# Generated by pormake.
# Topology wio, (6)-cn, num edge types: 1
# Building blocks:
#     Node 0, Type 0, BuildingBlock: CUKXOW_clean_sbu_0, # of connection points: 6
#     Node 1, Type 0, BuildingBlock: CUKXOW_clean_sbu_0, # of connection points: 6
#     Node 2, Type 0, BuildingBlock: CUKXOW_clean_sbu_0, # of connection points: 6
#     Node 3, Type 0, BuildingBlock: CUKXOW_clean_sbu_0, # of connection points: 6
#     Node 4, Type 0, BuildingBlock: CUKXOW_clean_sbu_0, # of connection points: 6
#     Node 5, Type 0, BuildingBlock: CUKXOW_clean_sbu_0, # of connection points: 6
#     Node 6, Type 0, BuildingBlock: CUKXOW_clean_sbu_0, # of connection points: 6
#     Node 7, Type 0, BuildingBlock: CUKXOW_clean_sbu_0, # of connection points: 6
#     Node 8, Type 0, BuildingBlock: CUKXOW_clean_sbu_0, # of connection points: 6
#     Node 9, Type 0, BuildingBlock: CUKXOW_clean_sbu_0, # of connection points: 6
#     Node 10, Type 0, BuildingBlock: CUKXOW_clean_sbu_0, # of connection points: 6
#     Node 11, Type 0, BuildingBlock: CUKXOW_clean_sbu_0, # of connection points: 6
#     Node 12, Type 0, BuildingBlock: CUKXOW_clean_sbu_0, # of connection points: 6
#     Node 13, Type 0, BuildingBlock: CUKXOW_clean_sbu_0, # of connection points: 6
#     Node 14, Type 0, BuildingBlock: CUKXOW_clean_sbu_0, # of connection points: 6
#     Node 15, Type 0, BuildingBlock: CUKXOW_clean_sbu_0, # of connection points: 6
#     Node 16, Type 0, BuildingBlock: CUKXOW_clean_sbu_0, # of connection points: 6
#     Node 17, Type 0, BuildingBlock: CUKXOW_clean_sbu_0, # of connection points: 6
#     Node 18, Type 0, BuildingBlock: CUKXOW_clean_sbu_0, # of connection points: 6
#     Node 19, Type 0, BuildingBlock: CUKXOW_clean_sbu_0, # of connection points: 6
#     Node 20, Type 0, BuildingBlock: CUKXOW_clean_sbu_0, # of connection points: 6
#     Node 21, Type 0, BuildingBlock: CUKXOW_clean_sbu_0, # of connection points: 6
#     Node 22, Type 0, BuildingBlock: CUKXOW_clean_sbu_0, # of connection points: 6
#     Node 23, Type 0, BuildingBlock: CUKXOW_clean_sbu_0, # of connection points: 6
#     Node 24, Type 0, BuildingBlock: CUKXOW_clean_sbu_0, # of connection points: 6
#     Node 25, Type 0, BuildingBlock: CUKXOW_clean_sbu_0, # of connection points: 6
#     Node 26, Type 0, BuildingBlock: CUKXOW_clean_sbu_0, # of connection points: 6
#     Node 27, Type 0, BuildingBlock: CUKXOW_clean_sbu_0, # of connection points: 6
#     Node 28, Type 0, BuildingBlock: CUKXOW_clean_sbu_0, # of connection points: 6
#     Node 29, Type 0, BuildingBlock: CUKXOW_clean_sbu_0, # of connection points: 6
#     Node 30, Type 0, BuildingBlock: CUKXOW_clean_sbu_0, # of connection points: 6
#     Node 31, Type 0, BuildingBlock: CUKXOW_clean_sbu_0, # of connection points: 6
#     Edge 32, Type (0, 0), BuildingBlock: XIVTED_clean_linker_0, # of connection points: 2
#     Edge 33, Type (0, 0), BuildingBlock: XIVTED_clean_linker_0, # of connection points: 2
#     Edge 34, Type (0, 0), BuildingBlock: XIVTED_clean_linker_0, # of connection points: 2
#     Edge 35, Type (0, 0), BuildingBlock: XIVTED_clean_linker_0, # of connection points: 2
#     Edge 36, Type (0, 0), BuildingBlock: XIVTED_clean_linker_0, # of connection points: 2
#     Edge 37, Type (0, 0), BuildingBlock: XIVTED_clean_linker_0, # of connection points: 2
#     Edge 38, Type (0, 0), BuildingBlock: XIVTED_clean_linker_0, # of connection points: 2
#     Edge 39, Type (0, 0), BuildingBlock: XIVTED_clean_linker_0, # of connection points: 2
#     Edge 40, Type (0, 0), BuildingBlock: XIVTED_clean_linker_0, # of connection points: 2
#     Edge 41, Type (0, 0), BuildingBlock: XIVTED_clean_linker_0, # of connection points: 2
#     Edge 42, Type (0, 0), BuildingBlock: XIVTED_clean_linker_0, # of connection points: 2
#     Edge 43, Type (0, 0), BuildingBlock: XIVTED_clean_linker_0, # of connection points: 2
#     Edge 44, Type (0, 0), BuildingBlock: XIVTED_clean_linker_0, # of connection points: 2
#     Edge 45, Type (0, 0), BuildingBlock: XIVTED_clean_linker_0, # of connection points: 2
#     Edge 46, Type (0, 0), BuildingBlock: XIVTED_clean_linker_0, # of connection points: 2
#     Edge 47, Type (0, 0), BuildingBlock: XIVTED_clean_linker_0, # of connection points: 2
#     Edge 48, Type (0, 0), BuildingBlock: XIVTED_clean_linker_0, # of connection points: 2
#     Edge 49, Type (0, 0), BuildingBlock: XIVTED_clean_linker_0, # of connection points: 2
#     Edge 50, Type (0, 0), BuildingBlock: XIVTED_clean_linker_0, # of connection points: 2
#     Edge 51, Type (0, 0), BuildingBlock: XIVTED_clean_linker_0, # of connection points: 2
#     Edge 52, Type (0, 0), BuildingBlock: XIVTED_clean_linker_0, # of connection points: 2
#     Edge 53, Type (0, 0), BuildingBlock: XIVTED_clean_linker_0, # of connection points: 2
#     Edge 54, Type (0, 0), BuildingBlock: XIVTED_clean_linker_0, # of connection points: 2
#     Edge 55, Type (0, 0), BuildingBlock: XIVTED_clean_linker_0, # of connection points: 2
#     Edge 56, Type (0, 0), BuildingBlock: XIVTED_clean_linker_0, # of connection points: 2
#     Edge 57, Type (0, 0), BuildingBlock: XIVTED_clean_linker_0, # of connection points: 2
#     Edge 58, Type (0, 0), BuildingBlock: XIVTED_clean_linker_0, # of connection points: 2
#     Edge 59, Type (0, 0), BuildingBlock: XIVTED_clean_linker_0, # of connection points: 2
#     Edge 60, Type (0, 0), BuildingBlock: XIVTED_clean_linker_0, # of connection points: 2
#     Edge 61, Type (0, 0), BuildingBlock: XIVTED_clean_linker_0, # of connection points: 2
#     Edge 62, Type (0, 0), BuildingBlock: XIVTED_clean_linker_0, # of connection points: 2
#     Edge 63, Type (0, 0), BuildingBlock: XIVTED_clean_linker_0, # of connection points: 2
#     Edge 64, Type (0, 0), BuildingBlock: XIVTED_clean_linker_0, # of connection points: 2
#     Edge 65, Type (0, 0), BuildingBlock: XIVTED_clean_linker_0, # of connection points: 2
#     Edge 66, Type (0, 0), BuildingBlock: XIVTED_clean_linker_0, # of connection points: 2
#     Edge 67, Type (0, 0), BuildingBlock: XIVTED_clean_linker_0, # of connection points: 2
#     Edge 68, Type (0, 0), BuildingBlock: XIVTED_clean_linker_0, # of connection points: 2
#     Edge 69, Type (0, 0), BuildingBlock: XIVTED_clean_linker_0, # of connection points: 2
#     Edge 70, Type (0, 0), BuildingBlock: XIVTED_clean_linker_0, # of connection points: 2
#     Edge 71, Type (0, 0), BuildingBlock: XIVTED_clean_linker_0, # of connection points: 2
#     Edge 72, Type (0, 0), BuildingBlock: XIVTED_clean_linker_0, # of connection points: 2
#     Edge 73, Type (0, 0), BuildingBlock: XIVTED_clean_linker_0, # of connection points: 2
#     Edge 74, Type (0, 0), BuildingBlock: XIVTED_clean_linker_0, # of connection points: 2
#     Edge 75, Type (0, 0), BuildingBlock: XIVTED_clean_linker_0, # of connection points: 2
#     Edge 76, Type (0, 0), BuildingBlock: XIVTED_clean_linker_0, # of connection points: 2
#     Edge 77, Type (0, 0), BuildingBlock: XIVTED_clean_linker_0, # of connection points: 2
#     Edge 78, Type (0, 0), BuildingBlock: XIVTED_clean_linker_0, # of connection points: 2
#     Edge 79, Type (0, 0), BuildingBlock: XIVTED_clean_linker_0, # of connection points: 2
#     Edge 80, Type (0, 0), BuildingBlock: XIVTED_clean_linker_0, # of connection points: 2
#     Edge 81, Type (0, 0), BuildingBlock: XIVTED_clean_linker_0, # of connection points: 2
#     Edge 82, Type (0, 0), BuildingBlock: XIVTED_clean_linker_0, # of connection points: 2
#     Edge 83, Type (0, 0), BuildingBlock: XIVTED_clean_linker_0, # of connection points: 2
#     Edge 84, Type (0, 0), BuildingBlock: XIVTED_clean_linker_0, # of connection points: 2
#     Edge 85, Type (0, 0), BuildingBlock: XIVTED_clean_linker_0, # of connection points: 2
#     Edge 86, Type (0, 0), BuildingBlock: XIVTED_clean_linker_0, # of connection points: 2
#     Edge 87, Type (0, 0), BuildingBlock: XIVTED_clean_linker_0, # of connection points: 2
#     Edge 88, Type (0, 0), BuildingBlock: XIVTED_clean_linker_0, # of connection points: 2
#     Edge 89, Type (0, 0), BuildingBlock: XIVTED_clean_linker_0, # of connection points: 2
#     Edge 90, Type (0, 0), BuildingBlock: XIVTED_clean_linker_0, # of connection points: 2
#     Edge 91, Type (0, 0), BuildingBlock: XIVTED_clean_linker_0, # of connection points: 2
#     Edge 92, Type (0, 0), BuildingBlock: XIVTED_clean_linker_0, # of connection points: 2
#     Edge 93, Type (0, 0), BuildingBlock: XIVTED_clean_linker_0, # of connection points: 2
#     Edge 94, Type (0, 0), BuildingBlock: XIVTED_clean_linker_0, # of connection points: 2
#     Edge 95, Type (0, 0), BuildingBlock: XIVTED_clean_linker_0, # of connection points: 2
#     Edge 96, Type (0, 0), BuildingBlock: XIVTED_clean_linker_0, # of connection points: 2
#     Edge 97, Type (0, 0), BuildingBlock: XIVTED_clean_linker_0, # of connection points: 2
#     Edge 98, Type (0, 0), BuildingBlock: XIVTED_clean_linker_0, # of connection points: 2
#     Edge 99, Type (0, 0), BuildingBlock: XIVTED_clean_linker_0, # of connection points: 2
#     Edge 100, Type (0, 0), BuildingBlock: XIVTED_clean_linker_0, # of connection points: 2
#     Edge 101, Type (0, 0), BuildingBlock: XIVTED_clean_linker_0, # of connection points: 2
#     Edge 102, Type (0, 0), BuildingBlock: XIVTED_clean_linker_0, # of connection points: 2
#     Edge 103, Type (0, 0), BuildingBlock: XIVTED_clean_linker_0, # of connection points: 2
#     Edge 104, Type (0, 0), BuildingBlock: XIVTED_clean_linker_0, # of connection points: 2
#     Edge 105, Type (0, 0), BuildingBlock: XIVTED_clean_linker_0, # of connection points: 2
#     Edge 106, Type (0, 0), BuildingBlock: XIVTED_clean_linker_0, # of connection points: 2
#     Edge 107, Type (0, 0), BuildingBlock: XIVTED_clean_linker_0, # of connection points: 2
#     Edge 108, Type (0, 0), BuildingBlock: XIVTED_clean_linker_0, # of connection points: 2
#     Edge 109, Type (0, 0), BuildingBlock: XIVTED_clean_linker_0, # of connection points: 2
#     Edge 110, Type (0, 0), BuildingBlock: XIVTED_clean_linker_0, # of connection points: 2
#     Edge 111, Type (0, 0), BuildingBlock: XIVTED_clean_linker_0, # of connection points: 2
#     Edge 112, Type (0, 0), BuildingBlock: XIVTED_clean_linker_0, # of connection points: 2
#     Edge 113, Type (0, 0), BuildingBlock: XIVTED_clean_linker_0, # of connection points: 2
#     Edge 114, Type (0, 0), BuildingBlock: XIVTED_clean_linker_0, # of connection points: 2
#     Edge 115, Type (0, 0), BuildingBlock: XIVTED_clean_linker_0, # of connection points: 2
#     Edge 116, Type (0, 0), BuildingBlock: XIVTED_clean_linker_0, # of connection points: 2
#     Edge 117, Type (0, 0), BuildingBlock: XIVTED_clean_linker_0, # of connection points: 2
#     Edge 118, Type (0, 0), BuildingBlock: XIVTED_clean_linker_0, # of connection points: 2
#     Edge 119, Type (0, 0), BuildingBlock: XIVTED_clean_linker_0, # of connection points: 2
#     Edge 120, Type (0, 0), BuildingBlock: XIVTED_clean_linker_0, # of connection points: 2
#     Edge 121, Type (0, 0), BuildingBlock: XIVTED_clean_linker_0, # of connection points: 2
#     Edge 122, Type (0, 0), BuildingBlock: XIVTED_clean_linker_0, # of connection points: 2
#     Edge 123, Type (0, 0), BuildingBlock: XIVTED_clean_linker_0, # of connection points: 2
#     Edge 124, Type (0, 0), BuildingBlock: XIVTED_clean_linker_0, # of connection points: 2
#     Edge 125, Type (0, 0), BuildingBlock: XIVTED_clean_linker_0, # of connection points: 2
#     Edge 126, Type (0, 0), BuildingBlock: XIVTED_clean_linker_0, # of connection points: 2
#     Edge 127, Type (0, 0), BuildingBlock: XIVTED_clean_linker_0, # of connection points: 2
# Relax obj value: 0.138
# Max RMSD: 0.173
# Mean RMSD: 0.173
data_MOF--net-wio--node1-CUKXOW_clean_sbu_0--edge1-XIVTED_clean_linker_0
_symmetry_space_group_name_H-M    P1
_symmetry_Int_Tables_number       1
_symmetry_cell_setting            triclinic
loop_
_symmetry_equiv_pos_as_xyz
'x, y, z'
_cell_length_a     47.248793
_cell_length_b     47.36467
_cell_length_c     47.544487
_cell_angle_alpha  89.918977
_cell_angle_beta   90.015058
_cell_angle_gamma 89.95651
loop_
_atom_site_label
_atom_site_type_symbol
_atom_site_fract_x
_atom_site_fract_y
_atom_site_fract_z
_atom_type_partial_charge
Tb0 Tb 0.15986 0.15282 0.32234 0.0
C1 C 0.16842 0.20004 0.36849 0.0
Tb2 Tb 0.18324 0.13506 0.3817 0.0
O3 O 0.11826 0.15897 0.34088 0.0
O4 O 0.14566 0.12912 0.35793 0.0
O5 O 0.16436 0.1947 0.34111 0.0
C6 C 0.18166 0.1107 0.4334 0.0
O7 O 0.17449 0.18026 0.38779 0.0
C8 C 0.22314 0.14782 0.34439 0.0
C9 C 0.18879 0.09451 0.33176 0.0
O10 O 0.16206 0.1266 0.42244 0.0
O11 O 0.20279 0.11021 0.41589 0.0
O12 O 0.22781 0.13407 0.36775 0.0
O13 O 0.19793 0.15678 0.34558 0.0
O14 O 0.18166 0.09594 0.35857 0.0
O15 O 0.18515 0.11578 0.31424 0.0
C16 C 0.14318 0.14893 0.2683 0.0
O17 O 0.13858 0.13077 0.28815 0.0
O18 O 0.15726 0.17022 0.2789 0.0
C19 C 0.12248 0.14181 0.36168 0.0
Tb20 Tb 0.10929 0.91554 0.56845 0.0
C21 C 0.07673 0.94385 0.61957 0.0
Tb22 Tb 0.14148 0.92543 0.62559 0.0
O23 O 0.09923 0.87142 0.57762 0.0
O24 O 0.10909 0.89906 0.60979 0.0
O25 O 0.07842 0.94153 0.59152 0.0
C26 C 0.1727 0.91909 0.67307 0.0
O27 O 0.09797 0.93675 0.63682 0.0
C28 C 0.1453 0.96615 0.58705 0.0
C29 C 0.16343 0.87993 0.58208 0.0
O30 O 0.14542 0.92299 0.67204 0.0
O31 O 0.18224 0.91964 0.64748 0.0
O32 O 0.14726 0.97035 0.61401 0.0
O33 O 0.14414 0.93988 0.58312 0.0
O34 O 0.16304 0.88864 0.60852 0.0
O35 O 0.14746 0.89113 0.56209 0.0
C36 C 0.09846 0.9174 0.51289 0.0
O37 O 0.08332 0.90419 0.53162 0.0
O38 O 0.11814 0.9313 0.52597 0.0
C39 C 0.10484 0.87329 0.60436 0.0
Tb40 Tb 0.35315 0.86993 0.82418 0.0
C41 C 0.34419 0.82696 0.87409 0.0
Tb42 Tb 0.33211 0.89316 0.88135 0.0
O43 O 0.39476 0.86402 0.84227 0.0
O44 O 0.36947 0.89714 0.85642 0.0
O45 O 0.34725 0.82983 0.84626 0.0
C46 C 0.33386 0.91962 0.93168 0.0
O47 O 0.34022 0.84874 0.89152 0.0
C48 C 0.29017 0.87823 0.84697 0.0
C49 C 0.32471 0.9291 0.82875 0.0
O50 O 0.35249 0.90166 0.92242 0.0
O51 O 0.31374 0.92137 0.91318 0.0
O52 O 0.28693 0.89368 0.86943 0.0
O53 O 0.31527 0.86878 0.84797 0.0
O54 O 0.33352 0.93033 0.85507 0.0
O55 O 0.32857 0.90651 0.81312 0.0
C56 C 0.36783 0.86725 0.76977 0.0
O57 O 0.37405 0.8872 0.78725 0.0
O58 O 0.35329 0.84791 0.78302 0.0
C59 C 0.39278 0.8845 0.86019 0.0
Tb60 Tb 0.39841 0.11961 0.06201 0.0
C61 C 0.43469 0.10179 0.11517 0.0
Tb62 Tb 0.36738 0.10834 0.11906 0.0
O63 O 0.39605 0.16527 0.06755 0.0
O64 O 0.39548 0.13857 0.10234 0.0
O65 O 0.43345 0.1018 0.08706 0.0
C66 C 0.33734 0.11596 0.16698 0.0
O67 O 0.41212 0.10741 0.1312 0.0
C68 C 0.36834 0.06573 0.08256 0.0
C69 C 0.33554 0.13944 0.0693 0.0
O70 O 0.35665 0.09674 0.16303 0.0
O71 O 0.33509 0.13053 0.14403 0.0
O72 O 0.3655 0.06252 0.10957 0.0
O73 O 0.36703 0.09171 0.07761 0.0
O74 O 0.33644 0.13395 0.09662 0.0
O75 O 0.35531 0.13098 0.05148 0.0
C76 C 0.41372 0.11689 1.00772 0.0
O77 O 0.41737 0.13835 1.02431 0.0
O78 O 0.40354 0.09609 1.0225 0.0
C79 C 0.39197 0.1638 0.09453 0.0
Tb80 Tb 0.13447 0.85896 0.25728 0.0
C81 C 0.14633 0.81859 0.20656 0.0
Tb82 Tb 0.15133 0.88629 0.19993 0.0
O83 O 0.09327 0.84917 0.23965 0.0
O84 O 0.11489 0.88525 0.22608 0.0
O85 O 0.14455 0.82022 0.23459 0.0
C86 C 0.14945 0.91235 0.14918 0.0
O87 O 0.14712 0.84124 0.18963 0.0
C88 C 0.19411 0.87653 0.23451 0.0
C89 C 0.15032 0.92319 0.25255 0.0
O90 O 0.13057 0.89488 0.15892 0.0
O91 O 0.16975 0.9139 0.16748 0.0
O92 O 0.19497 0.89435 0.21372 0.0
O93 O 0.17136 0.86267 0.23224 0.0
O94 O 0.14331 0.92297 0.22565 0.0
O95 O 0.14979 0.90025 0.26819 0.0
C96 C 0.1251 0.85275 0.31296 0.0
O97 O 0.10641 0.85917 0.29409 0.0
O98 O 0.14902 0.84813 0.30017 0.0
C99 C 0.09306 0.87032 0.22226 0.0
Tb100 Tb 0.38159 0.88834 0.50933 0.0
C101 C 0.41495 0.91221 0.45665 0.0
Tb102 Tb 0.34829 0.90175 0.45466 0.0
O103 O 0.38187 0.84316 0.50048 0.0
O104 O 0.37894 0.87224 0.46777 0.0
O105 O 0.41466 0.90951 0.48461 0.0
C106 C 0.31689 0.89638 0.40745 0.0
O107 O 0.39223 0.90689 0.44077 0.0
C108 C 0.34819 0.94196 0.49372 0.0
C109 C 0.32035 0.86454 0.50267 0.0
O110 O 0.33208 0.91827 0.41413 0.0
O111 O 0.31959 0.87778 0.42724 0.0
O112 O 0.34502 0.9466 0.46698 0.0
O113 O 0.34794 0.91564 0.49734 0.0
O114 O 0.31937 0.87312 0.47615 0.0
O115 O 0.34022 0.8726 0.52054 0.0
C116 C 0.40031 0.88959 0.56254 0.0
O117 O 0.40325 0.86873 0.54511 0.0
O118 O 0.38847 0.91056 0.54929 0.0
C119 C 0.37713 0.84632 0.47373 0.0
Tb120 Tb 0.34013 0.13737 0.75119 0.0
C121 C 0.33245 0.18173 0.70224 0.0
Tb122 Tb 0.31483 0.1168 0.69396 0.0
O123 O 0.38145 0.14099 0.73139 0.0
O124 O 0.35296 0.11082 0.71699 0.0
O125 O 0.33598 0.17817 0.72997 0.0
C126 C 0.31522 0.08991 0.64372 0.0
O127 O 0.32602 0.16071 0.68455 0.0
C128 C 0.27548 0.13431 0.73023 0.0
C129 C 0.30662 0.08078 0.7466 0.0
O130 O 0.33378 0.10825 0.65227 0.0
O131 O 0.29566 0.08813 0.66283 0.0
O132 O 0.27004 0.12066 0.70699 0.0
O133 O 0.30145 0.14099 0.7289 0.0
O134 O 0.31401 0.07938 0.71987 0.0
O135 O 0.31305 0.10257 0.76257 0.0
C136 C 0.35797 0.13798 0.80478 0.0
O137 O 0.36115 0.11762 0.78692 0.0
O138 O 0.34459 0.15877 0.79242 0.0
C139 C 0.37643 0.1226 0.71194 0.0
Tb140 Tb 0.09712 0.11001 1.011 0.0
C141 C 0.05912 0.08481 0.96148 0.0
Tb142 Tb 0.12561 0.09504 0.95275 0.0
O143 O 0.09532 0.15507 1.00134 0.0
O144 O 0.09763 0.12566 0.96925 0.0
O145 O 0.06147 0.08942 0.98923 0.0
C146 C 0.15608 0.09854 0.90438 0.0
O147 O 0.08077 0.08758 0.94348 0.0
C148 C 0.12567 0.05508 0.99205 0.0
C149 C 0.15713 0.13314 0.99686 0.0
O150 O 0.12865 0.1006 0.90643 0.0
O151 O 0.16594 0.09344 0.92936 0.0
O152 O 0.12621 0.04993 0.96514 0.0
O153 O 0.12787 0.08134 0.99533 0.0
O154 O 0.1532 0.12745 0.96992 0.0
O155 O 0.14063 0.12292 1.0169 0.0
C156 C 0.08652 0.11252 0.06665 0.0
O157 O 0.08135 0.13222 0.04833 0.0
O158 O 0.09546 0.09035 0.0531 0.0
C159 C 0.09881 0.15175 0.97444 0.0
Tb160 Tb 0.84463 0.89647 0.6938 0.0
C161 C 0.83306 0.93347 0.7466 0.0
Tb162 Tb 0.86239 0.87489 0.75404 0.0
O163 O 0.79918 0.89891 0.70376 0.0
O164 O 0.82592 0.87362 0.72753 0.0
O165 O 0.84094 0.93393 0.71992 0.0
C166 C 0.86734 0.85909 0.80818 0.0
O167 O 0.83827 0.91197 0.76342 0.0
C168 C 0.89987 0.90514 0.72522 0.0
C169 C 0.86032 0.83157 0.70265 0.0
O170 O 0.84485 0.86909 0.79612 0.0
O171 O 0.88696 0.85623 0.7891 0.0
O172 O 0.89838 0.90468 0.75241 0.0
O173 O 0.88224 0.88768 0.71606 0.0
O174 O 0.86247 0.83484 0.73059 0.0
O175 O 0.85554 0.8528 0.68468 0.0
C176 C 0.85444 0.92469 0.64565 0.0
O177 O 0.837 0.90337 0.64827 0.0
O178 O 0.86599 0.92959 0.66991 0.0
C179 C 0.80091 0.88362 0.72659 0.0
Tb180 Tb 0.87239 0.09413 0.4449 0.0
C181 C 0.83408 0.0787 0.49556 0.0
Tb182 Tb 0.89264 0.11012 0.50553 0.0
O183 O 0.87133 0.04852 0.45363 0.0
O184 O 0.89619 0.07526 0.47773 0.0
O185 O 0.83457 0.08466 0.4684 0.0
C186 C 0.89481 0.11991 0.56107 0.0
O187 O 0.85489 0.08514 0.51305 0.0
C188 C 0.87892 0.15201 0.47194 0.0
C189 C 0.93714 0.11084 0.45652 0.0
O190 O 0.87756 0.1314 0.54326 0.0
O191 O 0.91166 0.10277 0.54753 0.0
O192 O 0.8972 0.15398 0.49214 0.0
O193 O 0.8673 0.1281 0.47328 0.0
O194 O 0.93367 0.10898 0.48439 0.0
O195 O 0.91577 0.10913 0.43812 0.0
C196 C 0.84596 0.10387 0.39567 0.0
O197 O 0.86641 0.08563 0.39941 0.0
O198 O 0.84106 0.11638 0.41937 0.0
C199 C 0.88674 0.05022 0.4764 0.0
Tb200 Tb 0.67781 0.12443 0.19146 0.0
C201 C 0.6833 0.08502 0.24241 0.0
Tb202 Tb 0.65883 0.14641 0.25036 0.0
O203 O 0.722 0.11829 0.20443 0.0
O204 O 0.69626 0.14674 0.22563 0.0
O205 O 0.67693 0.08578 0.21537 0.0
C206 C 0.64444 0.14689 0.30546 0.0
O207 O 0.68022 0.10698 0.25921 0.0
C208 C 0.61849 0.1363 0.2137 0.0
C209 C 0.6687 0.1908 0.20162 0.0
O210 O 0.63323 0.13164 0.28582 0.0
O211 O 0.66374 0.16299 0.29392 0.0
O212 O 0.6176 0.15603 0.23256 0.0
O213 O 0.64089 0.12199 0.217 0.0
O214 O 0.66617 0.18721 0.22951 0.0
O215 O 0.67084 0.1694 0.18341 0.0
C216 C 0.67419 0.10068 0.1399 0.0
O217 O 0.65315 0.10858 0.15555 0.0
O218 O 0.69748 0.1076 0.15273 0.0
C219 C 0.72014 0.13451 0.22646 0.0
Tb220 Tb 0.64325 0.91928 0.94355 0.0
C221 C 0.6635 0.87574 0.98946 0.0
Tb222 Tb 0.60745 0.9102 1.00105 0.0
O223 O 0.67095 0.94954 0.96617 0.0
O224 O 0.63024 0.94258 0.97979 0.0
O225 O 0.66422 0.88349 0.96277 0.0
C226 C 0.60098 0.91382 0.05706 0.0
O227 O 0.64681 0.8876 1.00842 0.0
C228 C 0.60375 0.86758 0.96514 0.0
C229 C 0.57635 0.93425 0.94769 0.0
O230 O 0.58209 0.90388 0.03958 0.0
O231 O 0.62221 0.92346 0.04256 0.0
O232 O 0.59243 0.86721 0.99018 0.0
O233 O 0.61471 0.89152 0.96242 0.0
O234 O 0.57631 0.93299 0.97589 0.0
O235 O 0.59905 0.92841 0.93154 0.0
C236 C 0.67099 0.91155 0.8943 0.0
O237 O 0.65477 0.9332 0.9002 0.0
O238 O 0.67083 0.89473 0.91581 0.0
C239 C 0.65294 0.95472 0.98617 0.0
Tb240 Tb 0.81836 0.10916 0.88037 0.0
C241 C 0.80268 0.07564 0.82665 0.0
Tb242 Tb 0.83975 0.13125 0.82229 0.0
O243 O 0.77322 0.11196 0.86959 0.0
O244 O 0.80276 0.13544 0.84748 0.0
O245 O 0.80736 0.07366 0.85403 0.0
C246 C 0.85441 0.13593 0.76799 0.0
O247 O 0.81232 0.09655 0.81089 0.0
C248 C 0.8786 0.11414 0.85813 0.0
C249 C 0.83967 0.17292 0.87344 0.0
O250 O 0.86145 0.11571 0.78497 0.0
O251 O 0.83885 0.15417 0.78165 0.0
O252 O 0.88277 0.13308 0.83895 0.0
O253 O 0.85435 0.1035 0.85446 0.0
O254 O 0.83925 0.17104 0.84538 0.0
O255 O 0.83496 0.15099 0.89051 0.0
C256 C 0.82443 0.08006 0.92867 0.0
O257 O 0.80496 0.09909 0.92395 0.0
O258 O 0.84023 0.07805 0.9065 0.0
C259 C 0.7769 0.12774 0.8473 0.0
Tb260 Tb 0.62722 0.07558 0.62782 0.0
C261 C 0.66536 0.06167 0.57655 0.0
Tb262 Tb 0.60601 0.09223 0.56676 0.0
O263 O 0.62894 0.02998 0.61828 0.0
O264 O 0.60405 0.05706 0.59445 0.0
O265 O 0.66495 0.06717 0.6038 0.0
C266 C 0.60676 0.10496 0.51137 0.0
O267 O 0.64419 0.06769 0.55925 0.0
C268 C 0.6172 0.13338 0.60181 0.0
C269 C 0.56157 0.09001 0.61622 0.0
O270 O 0.5885 0.08797 0.52344 0.0
O271 O 0.62366 0.11453 0.53057 0.0
O272 O 0.59936 0.13543 0.58122 0.0
O273 O 0.63007 0.11016 0.59989 0.0
O274 O 0.56496 0.08897 0.58819 0.0
O275 O 0.58311 0.08862 0.63455 0.0
C276 C 0.65435 0.0872 0.67664 0.0
O277 O 0.63422 0.06844 0.67361 0.0
O278 O 0.65854 0.09911 0.65244 0.0
C279 C 0.61354 0.03202 0.59545 0.0
Tb280 Tb 0.64826 0.87765 0.37745 0.0
C281 C 0.66206 0.91756 0.32725 0.0
Tb282 Tb 0.63248 0.85805 0.316 0.0
O283 O 0.69377 0.87828 0.36806 0.0
O284 O 0.66661 0.85323 0.34455 0.0
O285 O 0.65946 0.91546 0.35485 0.0
C286 C 0.62928 0.85422 0.25927 0.0
O287 O 0.65245 0.89859 0.30921 0.0
C288 C 0.59059 0.87527 0.34808 0.0
C289 C 0.63155 0.81361 0.36482 0.0
O290 O 0.65118 0.86209 0.27372 0.0
O291 O 0.60973 0.84671 0.27696 0.0
O292 O 0.58731 0.85871 0.32673 0.0
O293 O 0.61558 0.88435 0.34793 0.0
O294 O 0.63647 0.81716 0.33731 0.0
O295 O 0.6311 0.83494 0.38322 0.0
C296 C 0.63932 0.90371 0.42711 0.0
O297 O 0.65716 0.88298 0.42304 0.0
O298 O 0.62665 0.90901 0.4035 0.0
C299 C 0.69163 0.86285 0.3454 0.0
Tb300 Tb 0.84309 0.89777 0.12484 0.0
C301 C 0.81654 0.86551 0.07316 0.0
Tb302 Tb 0.88024 0.88897 0.07087 0.0
O303 O 0.81932 0.93147 0.10377 0.0
O304 O 0.86123 0.92344 0.0925 0.0
O305 O 0.81384 0.87273 0.09998 0.0
C306 C 0.89215 0.8916 1.01559 0.0
O307 O 0.83936 0.87153 0.058 0.0
C308 C 0.88118 0.84784 0.10823 0.0
C309 C 0.91025 0.90926 0.12517 0.0
O310 O 0.87338 0.90654 1.02882 0.0
O311 O 0.9055 0.87608 1.03394 0.0
O312 O 0.90114 0.85163 0.08968 0.0
O313 O 0.86156 0.86453 0.10225 0.0
O314 O 0.91105 0.91042 0.09715 0.0
O315 O 0.88687 0.9027 0.13964 0.0
C316 C 0.81659 0.89039 0.17467 0.0
O317 O 0.8255 0.91448 0.16474 0.0
O318 O 0.82334 0.87079 0.15688 0.0
C319 C 0.83939 0.93745 0.08602 0.0
Tb320 Tb 0.66082 0.64471 0.82192 0.0
C321 C 0.66304 0.6881 0.87148 0.0
Tb322 Tb 0.67698 0.62224 0.88181 0.0
O323 O 0.61855 0.65319 0.8381 0.0
O324 O 0.64219 0.6194 0.85407 0.0
O325 O 0.66376 0.68528 0.84347 0.0
C326 C 0.66962 0.59764 0.93263 0.0
O327 O 0.66629 0.66655 0.88943 0.0
C328 C 0.7213 0.63563 0.85028 0.0
C329 C 0.68491 0.58421 0.83098 0.0
O330 O 0.65586 0.61955 0.92333 0.0
O331 O 0.68827 0.59065 0.91387 0.0
O332 O 0.72284 0.62082 0.87338 0.0
O333 O 0.69648 0.64567 0.84919 0.0
O334 O 0.67386 0.58473 0.85645 0.0
O335 O 0.68462 0.60652 0.81438 0.0
C336 C 0.64762 0.64545 0.76704 0.0
O337 O 0.63672 0.62926 0.78613 0.0
O338 O 0.66619 0.66212 0.77892 0.0
C339 C 0.61952 0.63316 0.85664 0.0
Tb340 Tb 0.62775 0.40949 0.07083 0.0
C341 C 0.58046 0.40341 0.11873 0.0
Tb342 Tb 0.63936 0.43218 0.13277 0.0
O343 O 0.66263 0.37932 0.07834 0.0
O344 O 0.63831 0.39347 0.11104 0.0
O345 O 0.58643 0.4029 0.09116 0.0
C346 C 0.66838 0.42692 0.1811 0.0
O347 O 0.59825 0.41237 0.1387 0.0
C348 C 0.62205 0.472 0.09722 0.0
C349 C 0.67892 0.44915 0.08218 0.0
O350 O 0.64537 0.44215 0.178 0.0
O351 O 0.67423 0.41482 0.15733 0.0
O352 O 0.63266 0.47702 0.12214 0.0
O353 O 0.61829 0.44546 0.09586 0.0
O354 O 0.67746 0.44289 0.10932 0.0
O355 O 0.66076 0.43969 0.06329 0.0
C356 C 0.61597 0.39215 1.01807 0.0
O357 O 0.61976 0.37591 0.03976 0.0
O358 O 0.61734 0.41819 1.02646 0.0
C359 C 0.65902 0.37808 0.10533 0.0
Tb360 Tb 0.85707 0.36267 0.32273 0.0
C361 C 0.83283 0.33188 0.37591 0.0
Tb362 Tb 0.84836 0.3982 0.38007 0.0
O363 O 0.89922 0.34527 0.33388 0.0
O364 O 0.87645 0.37008 0.361 0.0
O365 O 0.83347 0.3322 0.34772 0.0
C366 C 0.85586 0.42515 0.42955 0.0
O367 O 0.83939 0.35417 0.39217 0.0
C368 C 0.81192 0.40763 0.33797 0.0
C369 C 0.89288 0.41778 0.33455 0.0
O370 O 0.8361 0.40645 0.42454 0.0
O371 O 0.87082 0.42814 0.40692 0.0
O372 O 0.8169 0.42545 0.35814 0.0
O373 O 0.82473 0.38527 0.34415 0.0
O374 O 0.88482 0.41871 0.36117 0.0
O375 O 0.88113 0.40101 0.31565 0.0
C376 C 0.85267 0.35885 0.26673 0.0
O377 O 0.8461 0.38063 0.28197 0.0
O378 O 0.86002 0.33807 0.28341 0.0
C379 C 0.89958 0.35729 0.3586 0.0
Tb380 Tb 0.89562 0.60326 0.57304 0.0
C381 C 0.93969 0.60534 0.62177 0.0
Tb382 Tb 0.87518 0.58827 0.63405 0.0
O383 O 0.90154 0.647 0.5854 0.0
O384 O 0.87106 0.62225 0.60537 0.0
O385 O 0.93656 0.60144 0.5941 0.0
C386 C 0.84808 0.6 0.6825 0.0
O387 O 0.91835 0.60423 0.64025 0.0
C388 C 0.89029 0.54386 0.60319 0.0
C389 C 0.83765 0.57114 0.58333 0.0
O390 O 0.86818 0.58118 0.67971 0.0
O391 O 0.84397 0.61198 0.65832 0.0
O392 O 0.87485 0.54229 0.62599 0.0
O393 O 0.89905 0.56909 0.60162 0.0
O394 O 0.83759 0.57782 0.61034 0.0
O395 O 0.85865 0.57737 0.56605 0.0
C396 C 0.89467 0.61339 0.51765 0.0
O397 O 0.8761 0.62152 0.53594 0.0
O398 O 0.91471 0.59934 0.53059 0.0
C399 C 0.88375 0.6457 0.60605 0.0
Tb400 Tb 0.65751 0.35252 0.75759 0.0
C401 C 0.66061 0.3112 0.70647 0.0
Tb402 Tb 0.67345 0.3775 0.69841 0.0
O403 O 0.61524 0.34404 0.74101 0.0
O404 O 0.63872 0.37841 0.72636 0.0
O405 O 0.66197 0.31292 0.73455 0.0
C406 C 0.66179 0.40469 0.64985 0.0
O407 O 0.66174 0.33367 0.6894 0.0
C408 C 0.71773 0.36434 0.73012 0.0
C409 C 0.68504 0.41342 0.75142 0.0
O410 O 0.68331 0.3878 0.65389 0.0
O411 O 0.64711 0.40557 0.67283 0.0
O412 O 0.71883 0.38107 0.70823 0.0
O413 O 0.69323 0.35331 0.73041 0.0
O414 O 0.6791 0.41441 0.72425 0.0
O415 O 0.6803 0.39101 0.76739 0.0
C416 C 0.64423 0.35019 0.81251 0.0
O417 O 0.63322 0.36669 0.79372 0.0
O418 O 0.66289 0.33387 0.80023 0.0
C419 C 0.61609 0.36474 0.7232 0.0
Tb420 Tb 0.89646 0.39563 1.00682 0.0
C421 C 0.93808 0.39685 0.95612 0.0
Tb422 Tb 0.87188 0.4099 0.94687 0.0
O423 O 0.90441 0.35263 0.99299 0.0
O424 O 0.87102 0.37582 0.97561 0.0
O425 O 0.9361 0.40033 0.98395 0.0
C426 C 0.84424 0.39915 0.89839 0.0
O427 O 0.91573 0.39639 0.93877 0.0
C428 C 0.88553 0.4548 0.97719 0.0
C429 C 0.8356 0.42348 0.99977 0.0
O430 O 0.86475 0.41742 0.90133 0.0
O431 O 0.83988 0.38711 0.92251 0.0
O432 O 0.8692 0.45558 0.95501 0.0
O433 O 0.89602 0.43018 0.97833 0.0
O434 O 0.83486 0.41821 0.97243 0.0
O435 O 0.8573 0.41707 1.0161 0.0
C436 C 0.90099 0.38545 0.06228 0.0
O437 O 0.91258 0.40679 0.04917 0.0
O438 O 0.88791 0.36998 0.04402 0.0
C439 C 0.88494 0.35312 0.97381 0.0
Tb440 Tb 0.85568 0.63052 0.25575 0.0
C441 C 0.83671 0.66602 0.20457 0.0
Tb442 Tb 0.84181 0.59816 0.20004 0.0
O443 O 0.89214 0.65102 0.23487 0.0
O444 O 0.87748 0.61187 0.22237 0.0
O445 O 0.83772 0.66527 0.23254 0.0
C446 C 0.84968 0.57436 0.14908 0.0
O447 O 0.83893 0.64313 0.18821 0.0
C448 C 0.80332 0.59445 0.2401 0.0
C449 C 0.86981 0.56593 0.25044 0.0
O450 O 0.82519 0.58178 0.15944 0.0
O451 O 0.86907 0.58107 0.16706 0.0
O452 O 0.80696 0.57552 0.22055 0.0
O453 O 0.81882 0.61553 0.23464 0.0
O454 O 0.86605 0.5666 0.22284 0.0
O455 O 0.86068 0.5863 0.26712 0.0
C456 C 0.86448 0.64236 0.31023 0.0
O457 O 0.8838 0.638 0.29142 0.0
O458 O 0.83978 0.64144 0.29804 0.0
C459 C 0.89457 0.63106 0.21626 0.0
Tb460 Tb 0.61298 0.59129 0.50744 0.0
C461 C 0.56877 0.58571 0.45878 0.0
Tb462 Tb 0.63479 0.57433 0.44778 0.0
O463 O 0.60148 0.63255 0.4915 0.0
O464 O 0.63567 0.61082 0.47375 0.0
O465 O 0.57216 0.58548 0.48673 0.0
C466 C 0.65981 0.58141 0.39726 0.0
O467 O 0.59018 0.58406 0.44045 0.0
C468 C 0.62492 0.53076 0.48157 0.0
C469 C 0.67412 0.56551 0.49891 0.0
O470 O 0.64506 0.55938 0.40478 0.0
O471 O 0.65932 0.5994 0.41774 0.0
O472 O 0.64073 0.52969 0.45911 0.0
O473 O 0.6129 0.55474 0.48164 0.0
O474 O 0.67349 0.5714 0.47175 0.0
O475 O 0.65247 0.56993 0.5159 0.0
C476 C 0.61188 0.60524 0.56208 0.0
O477 O 0.62815 0.61597 0.54294 0.0
O478 O 0.59538 0.5864 0.5504 0.0
C479 C 0.62016 0.63257 0.47159 0.0
Tb480 Tb 0.35095 0.40069 0.19865 0.0
C481 C 0.38577 0.42728 0.24744 0.0
Tb482 Tb 0.36207 0.36626 0.25309 0.0
O483 O 0.3163 0.42453 0.21854 0.0
O484 O 0.32636 0.38462 0.23282 0.0
O485 O 0.38421 0.42458 0.21977 0.0
C486 C 0.36801 0.35366 0.30787 0.0
O487 O 0.37256 0.40951 0.26431 0.0
C488 C 0.39961 0.36 0.21278 0.0
C489 C 0.33771 0.33398 0.20166 0.0
O490 O 0.3883 0.3565 0.28977 0.0
O491 O 0.34397 0.35645 0.29474 0.0
O492 O 0.39519 0.34119 0.23229 0.0
O493 O 0.38582 0.38184 0.21883 0.0
O494 O 0.34005 0.33385 0.22961 0.0
O495 O 0.34204 0.35697 0.18578 0.0
C496 C 0.35459 0.42803 0.14882 0.0
O497 O 0.35229 0.40079 0.15193 0.0
O498 O 0.35396 0.43943 0.17354 0.0
C499 C 0.31198 0.40627 0.23839 0.0
Tb500 Tb 0.37517 0.58659 0.94102 0.0
C501 C 0.33563 0.57093 0.99164 0.0
Tb502 Tb 0.39091 0.60537 1.00316 0.0
O503 O 0.37615 0.54104 0.95086 0.0
O504 O 0.39689 0.57008 0.97623 0.0
O505 O 0.3366 0.57746 0.96455 0.0
C506 C 0.40186 0.6134 0.05807 0.0
O507 O 0.35528 0.57832 1.00986 0.0
C508 C 0.3611 0.64093 0.97173 0.0
C509 C 0.43843 0.60503 0.9554 0.0
O510 O 0.40657 0.63176 0.03816 0.0
O511 O 0.39291 0.59025 0.04658 0.0
O512 O 0.35936 0.63945 0.99885 0.0
O513 O 0.38009 0.62416 0.96427 0.0
O514 O 0.43254 0.60773 0.98286 0.0
O515 O 0.41945 0.59852 0.93551 0.0
C516 C 0.34853 0.59812 0.89222 0.0
O517 O 0.37003 0.58077 0.89492 0.0
O518 O 0.34263 0.60856 0.91676 0.0
C519 C 0.38967 0.54433 0.97469 0.0
Tb520 Tb 0.18005 0.63069 0.69207 0.0
C521 C 0.19319 0.59234 0.74328 0.0
Tb522 Tb 0.16523 0.65263 0.75239 0.0
O523 O 0.22569 0.627 0.7009 0.0
O524 O 0.2004 0.65367 0.72462 0.0
O525 O 0.18732 0.59271 0.7161 0.0
C526 C 0.15254 0.65364 0.8073 0.0
O527 O 0.18797 0.61373 0.76037 0.0
C528 C 0.12279 0.64226 0.71876 0.0
C529 C 0.16556 0.69626 0.70312 0.0
O530 O 0.17176 0.66957 0.79538 0.0
O531 O 0.14079 0.63806 0.78827 0.0
O532 O 0.12262 0.66177 0.7378 0.0
O533 O 0.14554 0.62832 0.7204 0.0
O534 O 0.16809 0.69334 0.73101 0.0
O535 O 0.16688 0.67457 0.68513 0.0
C536 C 0.16746 0.60457 0.64317 0.0
O537 O 0.18744 0.62341 0.64636 0.0
O538 O 0.15503 0.60115 0.66717 0.0
C539 C 0.22491 0.64267 0.72352 0.0
Tb540 Tb 0.14147 0.43868 0.44227 0.0
C541 C 0.17915 0.45498 0.49294 0.0
Tb542 Tb 0.12214 0.42107 0.50246 0.0
O543 O 0.14059 0.4841 0.45122 0.0
O544 O 0.11675 0.45636 0.47533 0.0
O545 O 0.17921 0.44851 0.46589 0.0
C546 C 0.12146 0.40721 0.55708 0.0
O547 O 0.1584 0.44796 0.51029 0.0
C548 C 0.13716 0.3807 0.46814 0.0
C549 C 0.07805 0.41729 0.45359 0.0
O550 O 0.13964 0.39885 0.53852 0.0
O551 O 0.10296 0.42379 0.5449 0.0
O552 O 0.11749 0.37807 0.48685 0.0
O553 O 0.14848 0.40471 0.47027 0.0
O554 O 0.0811 0.41995 0.48142 0.0
O555 O 0.09902 0.42161 0.43521 0.0
C556 C 0.16742 0.42996 0.39267 0.0
O557 O 0.15125 0.45154 0.39851 0.0
O558 O 0.16805 0.41341 0.41436 0.0
C559 C 0.12544 0.48176 0.4741 0.0
Tb560 Tb 0.34577 0.61242 0.37328 0.0
C561 C 0.38968 0.5878 0.32937 0.0
Tb562 Tb 0.35682 0.64334 0.31532 0.0
O563 O 0.30082 0.60728 0.3615 0.0
O564 O 0.33196 0.60932 0.33082 0.0
O565 O 0.3817 0.58932 0.35604 0.0
C566 C 0.35422 0.65466 0.25993 0.0
O567 O 0.37877 0.60378 0.30923 0.0
C568 C 0.3985 0.64705 0.35187 0.0
C569 C 0.32778 0.67699 0.36524 0.0
O570 O 0.33764 0.63771 0.27372 0.0
O571 O 0.37103 0.66684 0.27788 0.0
O572 O 0.40134 0.65161 0.325 0.0
O573 O 0.37246 0.64412 0.35683 0.0
O574 O 0.33132 0.67511 0.33738 0.0
O575 O 0.33395 0.65598 0.38309 0.0
C576 C 0.35138 0.58219 0.42149 0.0
O577 O 0.34984 0.6096 0.41973 0.0
O578 O 0.34894 0.57206 0.39625 0.0
C579 C 0.30561 0.60869 0.33459 0.0
Tb580 Tb 0.13962 0.57802 0.12671 0.0
C581 C 0.17797 0.56588 0.0761 0.0
Tb582 Tb 0.12034 0.59647 0.06673 0.0
O583 O 0.13848 0.53252 0.1176 0.0
O584 O 0.11585 0.56056 0.09309 0.0
O585 O 0.17827 0.57521 0.10231 0.0
C586 C 0.12135 0.61093 1.01227 0.0
O587 O 0.15635 0.56998 0.05913 0.0
C588 C 0.13161 0.637 0.10212 0.0
C589 C 0.07479 0.59432 0.11469 0.0
O590 O 0.13915 0.6188 1.03142 0.0
O591 O 0.10227 0.59453 1.02376 0.0
O592 O 0.11314 0.63852 0.08211 0.0
O593 O 0.14511 0.6139 0.10037 0.0
O594 O 0.07893 0.59533 0.08688 0.0
O595 O 0.09513 0.58902 0.13357 0.0
C596 C 0.16343 0.58095 0.17838 0.0
O597 O 0.14801 0.60047 0.1667 0.0
O598 O 0.16414 0.5595 0.16148 0.0
C599 C 0.12428 0.53517 0.09427 0.0
Tb600 Tb 0.1755 0.38495 0.87729 0.0
C601 C 0.18793 0.42387 0.82647 0.0
Tb602 Tb 0.16171 0.36298 0.81686 0.0
O603 O 0.221 0.3901 0.86878 0.0
O604 O 0.19676 0.36264 0.84483 0.0
O605 O 0.18158 0.42327 0.85353 0.0
C606 C 0.15019 0.36194 0.76175 0.0
O607 O 0.18358 0.4024 0.80929 0.0
C608 C 0.11864 0.37147 0.85023 0.0
C609 C 0.16366 0.31911 0.86587 0.0
O610 O 0.13783 0.37738 0.78053 0.0
O611 O 0.16932 0.34617 0.77405 0.0
O612 O 0.11931 0.35233 0.83084 0.0
O613 O 0.14087 0.38626 0.84895 0.0
O614 O 0.16568 0.32224 0.83798 0.0
O615 O 0.16421 0.34064 0.88407 0.0
C616 C 0.16281 0.41038 0.92637 0.0
O617 O 0.18339 0.39225 0.92282 0.0
O618 O 0.14974 0.41338 0.90266 0.0
C619 C 0.22089 0.37434 0.84623 0.0
Tb620 Tb 0.37442 0.42218 0.62944 0.0
C621 C 0.33668 0.4372 0.57827 0.0
Tb622 Tb 0.39368 0.40227 0.56946 0.0
O623 O 0.37508 0.46747 0.61844 0.0
O624 O 0.39821 0.4385 0.59522 0.0
O625 O 0.33689 0.43263 0.60572 0.0
C626 C 0.39411 0.38959 0.51455 0.0
O627 O 0.35703 0.42862 0.56113 0.0
C628 C 0.37998 0.36277 0.60559 0.0
C629 C 0.43873 0.40378 0.61815 0.0
O630 O 0.37447 0.38329 0.53248 0.0
O631 O 0.41431 0.40316 0.5276 0.0
O632 O 0.39737 0.35909 0.58489 0.0
O633 O 0.36867 0.38675 0.603 0.0
O634 O 0.43488 0.40327 0.59028 0.0
O635 O 0.41801 0.40815 0.63682 0.0
C636 C 0.34746 0.41171 0.67837 0.0
O637 O 0.34458 0.39805 0.65496 0.0
O638 O 0.36621 0.4317 0.67454 0.0
C639 C 0.38997 0.46406 0.59543 0.0
H640 H 0.27073 0.11585 0.33794 0.0
H641 H 0.29469 0.15415 0.17493 0.0
H642 H 0.21591 0.17208 0.29191 0.0
H643 H 0.34166 0.0895 0.21854 0.0
H644 H 0.26715 0.16275 0.21778 0.0
H645 H 0.29838 0.10801 0.29518 0.0
C646 C 0.26463 0.12679 0.31886 0.0
C647 C 0.24097 0.14478 0.31861 0.0
C648 C 0.28344 0.14666 0.21804 0.0
C649 C 0.27269 0.13572 0.26917 0.0
C650 C 0.29922 0.14172 0.19355 0.0
C651 C 0.32054 0.12101 0.19308 0.0
C652 C 0.28905 0.13091 0.24251 0.0
C653 C 0.32543 0.10563 0.21788 0.0
C654 C 0.28039 0.12215 0.29434 0.0
C655 C 0.234 0.15812 0.29311 0.0
N656 N 0.3099 0.11092 0.24153 0.0
N657 N 0.24977 0.15335 0.26948 0.0
H658 H 0.21256 0.06348 0.44628 0.0
H659 H 0.13305 0.0228 0.58909 0.0
H660 H 0.14164 0.11237 0.47583 0.0
H661 H 0.16911 0.95979 0.53456 0.0
H662 H 0.14197 0.05884 0.55269 0.0
H663 H 0.20348 0.02857 0.48343 0.0
C664 C 0.19532 0.06714 0.46084 0.0
C665 C 0.17795 0.09109 0.45792 0.0
C666 C 0.14784 0.03711 0.54867 0.0
C667 C 0.16748 0.05099 0.50083 0.0
C668 C 0.14281 0.01653 0.56946 0.0
C669 C 0.15007 0.98812 0.56483 0.0
C670 C 0.16105 0.02949 0.52327 0.0
C671 C 0.16279 0.98131 0.53896 0.0
C672 C 0.19001 0.04702 0.48193 0.0
C673 C 0.15568 0.09435 0.47732 0.0
N674 N 0.16811 1.00179 0.51937 0.0
N675 N 0.15121 0.07471 0.498 0.0
H676 H 0.23926 0.90507 0.84356 0.0
H677 H 0.22759 0.90047 0.67564 0.0
H678 H 0.29805 0.85806 0.7926 0.0
H679 H 0.15717 0.92229 0.7289 0.0
H680 H 0.25541 0.88833 0.71762 0.0
H681 H 0.21053 0.91436 0.80176 0.0
C682 C 0.24602 0.89638 0.8236 0.0
C683 C 0.27127 0.88076 0.82173 0.0
C684 C 0.23387 0.89574 0.72016 0.0
C685 C 0.2384 0.89185 0.77326 0.0
C686 C 0.21799 0.90285 0.69618 0.0
C687 C 0.18995 0.91253 0.69867 0.0
C688 C 0.22186 0.89864 0.74707 0.0
C689 C 0.17867 0.91498 0.72591 0.0
C690 C 0.22957 0.9018 0.79966 0.0
C691 C 0.27886 0.87023 0.79512 0.0
N692 N 0.19465 0.90827 0.74895 0.0
N693 N 0.26271 0.87621 0.77195 0.0
H694 H 0.30471 0.96813 0.94217 0.0
H695 H 0.37897 0.00877 0.08728 0.0
H696 H 0.3721 0.91672 0.97566 0.0
H697 H 0.34793 0.07126 1.02895 0.0
H698 H 0.37071 0.97198 0.0515 0.0
H699 H 0.31361 0.00313 0.97901 0.0
C700 C 0.32115 0.96399 0.95752 0.0
C701 C 0.33761 0.93935 0.95583 0.0
C702 C 0.36582 0.99377 0.04657 0.0
C703 C 0.34785 0.97949 0.99833 0.0
C704 C 0.37046 0.01474 0.06697 0.0
C705 C 0.36426 0.04317 0.06108 0.0
C706 C 0.35416 1.00116 1.02035 0.0
C707 C 0.35322 0.04969 1.03439 0.0
C708 C 0.32635 0.98412 0.97843 0.0
C709 C 0.35883 0.93536 0.97622 0.0
N710 N 0.34828 0.0289 1.0152 0.0
N711 N 0.36325 0.95512 0.99672 0.0
H712 H 0.28352 0.85144 0.39342 0.0
H713 H 0.23081 0.91876 0.24736 0.0
H714 H 0.30925 0.93342 0.36347 0.0
H715 H 0.2 0.83923 0.27898 0.0
H716 H 0.26035 0.92371 0.28919 0.0
H717 H 0.25362 0.84595 0.35162 0.0
C718 C 0.28289 0.8683 0.37801 0.0
C719 C 0.29894 0.89296 0.38196 0.0
C720 C 0.24719 0.90513 0.2871 0.0
C721 C 0.26469 0.88676 0.33387 0.0
C722 C 0.23035 0.9022 0.26309 0.0
C723 C 0.2127 0.87859 0.25972 0.0
C724 C 0.24677 0.88414 0.30799 0.0
C725 C 0.21293 0.85796 0.28093 0.0
C726 C 0.26577 0.86515 0.35414 0.0
C727 C 0.29727 0.91408 0.3613 0.0
N728 N 0.22969 0.86118 0.30414 0.0
N729 N 0.28052 0.91049 0.3382 0.0
H730 H 0.33071 0.9343 0.5484 0.0
H731 H 0.35132 0.09395 0.59835 0.0
H732 H 0.35627 0.99917 0.49009 0.0
H733 H 0.28859 0.03934 0.63532 0.0
H734 H 0.35969 0.05825 0.56158 0.0
H735 H 0.32204 0.97085 0.5841 0.0
C736 C 0.33472 0.9562 0.54316 0.0
C737 C 0.34421 0.96366 0.51615 0.0
C738 C 0.34397 0.0542 0.57765 0.0
C739 C 0.33455 0.00567 0.55709 0.0
C740 C 0.33913 0.07459 0.59859 0.0
C741 C 0.31899 0.06981 0.61981 0.0
C742 C 0.32915 0.02844 0.57833 0.0
C743 C 0.30408 0.04412 0.61923 0.0
C744 C 0.32959 0.97707 0.5635 0.0
C745 C 0.34889 0.99246 0.51059 0.0
N746 N 0.30966 0.02435 0.59911 0.0
N747 N 0.34422 0.01235 0.53087 0.0
H748 H 0.21338 0.10732 0.90132 0.0
H749 H 0.22166 0.11394 0.7334 0.0
H750 H 0.13909 0.10321 0.84895 0.0
H751 H 0.28681 0.14976 0.78572 0.0
H752 H 0.19256 0.10597 0.77524 0.0
H753 H 0.242 0.11827 0.85953 0.0
C754 C 0.20307 0.10854 0.881 0.0
C755 C 0.1737 0.10417 0.87873 0.0
C756 C 0.21313 0.11575 0.77765 0.0
C757 C 0.20658 0.1167 0.83053 0.0
C758 C 0.22982 0.1204 0.75369 0.0
C759 C 0.25691 0.13252 0.75586 0.0
C760 C 0.22355 0.12283 0.80439 0.0
C761 C 0.26617 0.14032 0.7829 0.0
C762 C 0.21945 0.11499 0.85715 0.0
C763 C 0.1616 0.10631 0.85178 0.0
N764 N 0.24973 0.13505 0.80606 0.0
N765 N 0.17805 0.11217 0.82883 0.0
H766 H 0.11115 0.90918 0.10524 0.0
H767 H 0.14747 0.0625 0.04487 0.0
H768 H 0.18009 0.95956 0.13677 0.0
H769 H 0.11096 0.99875 0.99149 0.0
H770 H 0.15339 0.02708 0.08208 0.0
H771 H 0.1051 0.94321 0.0663 0.0
C772 C 0.12512 0.92725 0.10388 0.0
C773 C 0.14631 0.93136 0.12424 0.0
C774 C 0.14406 0.02079 0.06225 0.0
C775 C 0.13899 0.97078 0.0802 0.0
C776 C 0.14049 0.04107 0.04102 0.0
C777 C 0.12862 0.03365 1.01498 0.0
C778 C 0.13526 0.99279 0.05775 0.0
C779 C 0.12024 0.0054 1.01121 0.0
C780 C 0.12165 0.94666 0.08168 0.0
C781 C 0.16363 0.95534 0.1215 0.0
N782 N 0.12351 0.98607 1.03238 0.0
N783 N 0.15941 0.97419 0.10019 0.0
H784 H 0.75395 0.91713 0.72958 0.0
H785 H 0.70803 0.86852 0.88501 0.0
H786 H 0.79812 0.85293 0.77643 0.0
H787 H 0.67457 0.94303 0.84485 0.0
H788 H 0.73813 0.86012 0.84404 0.0
H789 H 0.72137 0.9234 0.76911 0.0
C790 C 0.7568 0.9042 0.74817 0.0
C791 C 0.77953 0.88503 0.74991 0.0
C792 C 0.72422 0.87829 0.84405 0.0
C793 C 0.74198 0.89229 0.79569 0.0
C794 C 0.70689 0.88314 0.86749 0.0
C795 C 0.6886 0.90658 0.86853 0.0
C796 C 0.72329 0.89684 0.82099 0.0
C797 C 0.68825 0.9247 0.84507 0.0
C798 C 0.73819 0.90796 0.77087 0.0
C799 C 0.78177 0.86878 0.77454 0.0
N800 N 0.70525 0.91942 0.82232 0.0
N801 N 0.76344 0.87289 0.79646 0.0
H802 H 0.85303 0.00354 0.47959 0.0
H803 H 0.89246 0.96744 0.64002 0.0
H804 H 0.91424 0.05044 0.5277 0.0
H805 H 0.83 0.92118 0.59276 0.0
H806 H 0.90165 0.99689 0.59878 0.0
H807 H 0.84555 0.97228 0.51991 0.0
C808 C 0.86517 0.0071 0.49857 0.0
C809 C 0.88431 0.02977 0.50022 0.0
C810 C 0.88596 0.98031 0.59729 0.0
C811 C 0.87566 0.9939 0.54683 0.0
C812 C 0.88067 0.96342 0.62089 0.0
C813 C 0.86034 0.94177 0.61993 0.0
C814 C 0.87085 0.9757 0.57227 0.0
C815 C 0.84584 0.93758 0.59449 0.0
C816 C 0.86075 0.98928 0.52169 0.0
C817 C 0.89918 0.03341 0.52552 0.0
N818 N 0.85133 0.9544 0.57173 0.0
N819 N 0.8945 0.01576 0.54779 0.0
H820 H 0.7187 0.1635 0.27685 0.0
H821 H 0.84947 0.07708 0.34416 0.0
H822 H 0.76572 0.09977 0.2322 0.0
H823 H 0.80408 0.1426 0.38798 0.0
H824 H 0.81953 0.08551 0.30262 0.0
H825 H 0.74999 0.15664 0.31765 0.0
C826 C 0.73564 0.14817 0.2756 0.0
C827 C 0.73956 0.13223 0.25107 0.0
C828 C 0.81618 0.09811 0.3213 0.0
C829 C 0.77557 0.12415 0.29765 0.0
C830 C 0.83333 0.09331 0.34499 0.0
C831 C 0.82928 0.1091 0.36959 0.0
C832 C 0.79478 0.11886 0.32221 0.0
C833 C 0.80795 0.12985 0.36949 0.0
C834 C 0.75355 0.14422 0.29888 0.0
C835 C 0.76195 0.11264 0.25061 0.0
N836 N 0.79153 0.13406 0.3463 0.0
N837 N 0.77899 0.10913 0.27347 0.0
H838 H 0.61182 0.97724 1.02001 0.0
H839 H 0.71679 0.07824 0.10729 0.0
H840 H 0.70135 0.98201 1.0034 0.0
H841 H 0.62605 0.07895 0.11643 0.0
H842 H 0.7121 0.04308 0.06956 0.0
H843 H 0.61709 0.01367 0.05611 0.0
C844 C 0.63266 0.98584 1.02407 0.0
C845 C 0.65621 0.97636 1.00873 0.0
C846 C 0.69319 0.05107 0.07966 0.0
C847 C 0.66243 0.01857 0.05008 0.0
C848 C 0.69587 0.07126 0.10113 0.0
C849 C 0.67178 0.08172 0.11498 0.0
C850 C 0.66622 0.04102 0.07205 0.0
C851 C 0.64521 0.07166 0.10627 0.0
C852 C 0.63565 0.0068 0.04464 0.0
C853 C 0.68263 0.9886 1.01475 0.0
N854 N 0.64318 0.05186 0.08556 0.0
N855 N 0.68503 0.00897 1.03494 0.0
H856 H 0.7825 0.15101 0.79371 0.0
H857 H 0.64959 0.06475 0.73037 0.0
H858 H 0.72671 0.09965 0.84391 0.0
H859 H 0.69732 0.12535 0.68218 0.0
H860 H 0.67834 0.07655 0.77194 0.0
H861 H 0.75217 0.14193 0.75249 0.0
C862 C 0.76375 0.13814 0.79618 0.0
C863 C 0.75732 0.12607 0.82242 0.0
C864 C 0.68248 0.08736 0.75229 0.0
C865 C 0.72249 0.1152 0.77517 0.0
C866 C 0.66603 0.08057 0.72852 0.0
C867 C 0.67094 0.09404 0.70265 0.0
C868 C 0.70417 0.10774 0.75029 0.0
C869 C 0.69269 0.11437 0.70163 0.0
C870 C 0.74644 0.13283 0.7726 0.0
C871 C 0.73263 0.10948 0.82421 0.0
N872 N 0.70845 0.1205 0.72492 0.0
N873 N 0.7164 0.10439 0.80104 0.0
H874 H 0.58532 0.03381 0.5448 0.0
H875 H 0.66664 0.89956 0.4786 0.0
H876 H 0.64591 0.98418 0.59117 0.0
H877 H 0.60168 0.94646 0.43528 0.0
H878 H 0.65945 0.92975 0.52019 0.0
H879 H 0.59101 1.00182 0.50459 0.0
C880 C 0.59968 0.01608 0.54658 0.0
C881 C 0.61506 0.01169 0.57146 0.0
C882 C 0.64669 0.93336 0.50161 0.0
C883 C 0.62191 0.97482 0.52533 0.0
C884 C 0.65079 0.91606 0.47788 0.0
C885 C 0.63479 0.92045 0.45336 0.0
C886 C 0.62648 0.95528 0.50084 0.0
C887 C 0.61457 0.94228 0.45365 0.0
C888 C 0.60298 0.99778 0.5236 0.0
C889 C 0.63344 0.98831 0.5725 0.0
N890 N 0.61109 0.95882 0.47683 0.0
N891 N 0.63643 0.97089 0.54984 0.0
H892 H 0.7888 0.8424 0.1904 0.0
H893 H 0.73304 0.90224 0.33777 0.0
H894 H 0.80432 0.92776 0.21757 0.0
H895 H 0.69518 0.83017 0.29735 0.0
H896 H 0.76344 0.90915 0.29669 0.0
H897 H 0.75875 0.83497 0.23178 0.0
C898 C 0.78602 0.85957 0.20517 0.0
C899 C 0.7992 0.88577 0.20047 0.0
C900 C 0.74858 0.89176 0.29677 0.0
C901 C 0.76479 0.87727 0.24821 0.0
C902 C 0.73129 0.88764 0.32034 0.0
C903 C 0.71137 0.86561 0.32102 0.0
C904 C 0.74655 0.87335 0.27374 0.0
C905 C 0.71007 0.84753 0.29768 0.0
C906 C 0.76873 0.85532 0.22875 0.0
C907 C 0.79465 0.90724 0.22032 0.0
N908 N 0.72745 0.85172 0.27506 0.0
N909 N 0.77799 0.90248 0.24334 0.0
H910 H 0.86927 0.04671 0.9421 0.0
H911 H 0.79275 0.96771 0.07021 0.0
H912 H 0.78662 0.07068 0.9721 0.0
H913 H 0.88152 0.95821 0.05162 0.0
H914 H 0.78931 0.00404 1.03358 0.0
H915 H 0.87348 0.0132 0.98104 0.0
C916 C 0.85204 0.04505 0.95704 0.0
C917 C 0.82754 0.06157 0.95382 0.0
C918 C 0.80956 0.99405 0.03749 0.0
C919 C 0.83209 0.02275 0.9985 0.0
C920 C 0.81154 0.97323 0.05838 0.0
C921 C 0.83741 0.95961 0.06382 0.0
C922 C 0.8336 1.00131 1.02166 0.0
C923 C 0.86106 0.96779 0.04789 0.0
C924 C 0.85447 0.02587 0.97931 0.0
C925 C 0.80592 0.05847 0.97384 0.0
N926 N 0.85855 0.98792 1.02748 0.0
N927 N 0.8086 0.03928 0.99518 0.0
H928 H 0.76772 0.60147 0.84786 0.0
H929 H 0.80647 0.63936 0.68772 0.0
H930 H 0.72096 0.66166 0.79816 0.0
H931 H 0.85014 0.57528 0.73541 0.0
H932 H 0.77651 0.64913 0.72845 0.0
H933 H 0.79925 0.59314 0.80792 0.0
C934 C 0.76422 0.61319 0.82859 0.0
C935 C 0.74161 0.63239 0.82644 0.0
C936 C 0.79264 0.63297 0.73015 0.0
C937 C 0.77782 0.62277 0.78027 0.0
C938 C 0.80986 0.62736 0.70685 0.0
C939 C 0.83092 0.60641 0.70807 0.0
C940 C 0.79637 0.61758 0.75515 0.0
C941 C 0.83423 0.59163 0.73349 0.0
C942 C 0.78222 0.60828 0.8057 0.0
C943 C 0.73806 0.64669 0.80079 0.0
N944 N 0.81714 0.59746 0.75596 0.0
N945 N 0.75591 0.64158 0.77876 0.0
H946 H 0.67871 0.54131 0.94016 0.0
H947 H 0.64254 0.52587 0.09883 0.0
H948 H 0.64228 0.6137 0.9814 0.0
H949 H 0.60661 0.4657 0.04138 0.0
H950 H 0.65231 0.55756 0.05909 0.0
H951 H 0.6636 0.51155 0.97984 0.0
C952 C 0.66778 0.55101 0.9577 0.0
C953 C 0.66187 0.5801 0.95752 0.0
C954 C 0.6423 0.53737 0.05522 0.0
C955 C 0.64487 0.54614 1.00308 0.0
C956 C 0.63664 0.51924 0.07785 0.0
C957 C 0.62449 0.4925 0.07334 0.0
C958 C 0.63641 0.52854 1.02771 0.0
C959 C 0.61715 0.48537 0.04565 0.0
C960 C 0.65896 0.53396 0.98015 0.0
C961 C 0.64734 0.59142 0.98071 0.0
N962 N 0.62376 0.50294 1.0238 0.0
N963 N 0.63969 0.57451 1.00277 0.0
H964 H 0.67211 0.46159 0.2281 0.0
H965 H 0.7939 0.36755 0.30064 0.0
H966 H 0.70719 0.38608 0.19152 0.0
H967 H 0.77916 0.45404 0.3246 0.0
H968 H 0.758 0.37226 0.26388 0.0
H969 H 0.70651 0.45744 0.2671 0.0
C970 C 0.68676 0.444 0.22844 0.0
C971 C 0.68674 0.42415 0.2065 0.0
C972 C 0.7626 0.3903 0.27707 0.0
C973 C 0.72607 0.41923 0.25095 0.0
C974 C 0.78327 0.38765 0.29803 0.0
C975 C 0.79001 0.41058 0.31547 0.0
C976 C 0.74795 0.41595 0.27364 0.0
C977 C 0.77487 0.43588 0.31147 0.0
C978 C 0.70652 0.44174 0.25057 0.0
C979 C 0.70643 0.40193 0.2079 0.0
N980 N 0.75455 0.43789 0.29106 0.0
N981 N 0.72511 0.40006 0.22963 0.0
H982 H 0.85671 0.4968 0.59945 0.0
H983 H 0.8958 0.46541 0.43799 0.0
H984 H 0.91701 0.54535 0.55171 0.0
H985 H 0.82846 0.42212 0.48134 0.0
H986 H 0.90537 0.49275 0.48037 0.0
H987 H 0.84814 0.46717 0.55804 0.0
C988 C 0.86851 0.50098 0.58038 0.0
C989 C 0.88768 0.52367 0.57913 0.0
C990 C 0.88849 0.4773 0.48078 0.0
C991 C 0.87774 0.48977 0.53133 0.0
C992 C 0.88297 0.46159 0.45649 0.0
C993 C 0.86122 0.44136 0.45598 0.0
C994 C 0.87228 0.47287 0.50514 0.0
C995 C 0.84541 0.43746 0.48072 0.0
C996 C 0.86341 0.48414 0.55663 0.0
C997 C 0.90204 0.52818 0.55367 0.0
N998 N 0.85125 0.45303 0.50426 0.0
N999 N 0.89675 0.5115 0.53087 0.0
H1000 H 0.71697 0.33612 0.78108 0.0
H1001 H 0.84752 0.42446 0.84604 0.0
H1002 H 0.76404 0.39845 0.7345 0.0
H1003 H 0.80205 0.36041 0.89193 0.0
H1004 H 0.81771 0.41479 0.80471 0.0
H1005 H 0.7483 0.34401 0.82166 0.0
C1006 C 0.734 0.35129 0.77932 0.0
C1007 C 0.73782 0.36659 0.75431 0.0
C1008 C 0.8143 0.40277 0.8238 0.0
C1009 C 0.77387 0.37592 0.80074 0.0
C1010 C 0.83137 0.4083 0.84739 0.0
C1011 C 0.82732 0.39326 0.87253 0.0
C1012 C 0.79294 0.38203 0.82528 0.0
C1013 C 0.80595 0.37258 0.87303 0.0
C1014 C 0.7519 0.35586 0.8025 0.0
C1015 C 0.76032 0.38603 0.75327 0.0
N1016 N 0.78963 0.36764 0.84991 0.0
N1017 N 0.77733 0.39019 0.77606 0.0
H1018 H 0.89897 0.54911 0.13396 0.0
H1019 H 0.84851 0.49883 0.98176 0.0
H1020 H 0.81376 0.56266 0.10437 0.0
H1021 H 0.91581 0.45724 1.02684 0.0
H1022 H 0.83976 0.52878 1.02282 0.0
H1023 H 0.90902 0.52137 0.09177 0.0
C1024 C 0.88235 0.54639 0.11849 0.0
C1025 C 0.85543 0.55829 0.12276 0.0
C1026 C 0.85652 0.51319 1.02371 0.0
C1027 C 0.86705 0.52664 0.07402 0.0
C1028 C 0.86172 0.49619 1.0002 0.0
C1029 C 0.88273 0.47514 1.00098 0.0
C1030 C 0.87273 0.50956 0.04818 0.0
C1031 C 0.89908 0.47277 1.02551 0.0
C1032 C 0.88814 0.53042 0.09444 0.0
C1033 C 0.83478 0.5539 0.10196 0.0
N1034 N 0.89374 0.48971 0.04812 0.0
N1035 N 0.84107 0.53858 0.07841 0.0
H1036 H 0.7703 0.54918 0.25395 0.0
H1037 H 0.69023 0.62747 0.38101 0.0
H1038 H 0.78633 0.63549 0.27759 0.0
H1039 H 0.67225 0.54178 0.35645 0.0
H1040 H 0.72442 0.63108 0.34255 0.0
H1041 H 0.734 0.54618 0.29064 0.0
C1042 C 0.76623 0.56753 0.26692 0.0
C1043 C 0.78158 0.5926 0.26276 0.0
C1044 C 0.71293 0.61151 0.34537 0.0
C1045 C 0.73976 0.58934 0.30496 0.0
C1046 C 0.69327 0.60945 0.36732 0.0
C1047 C 0.67825 0.58428 0.37198 0.0
C1048 C 0.71788 0.58817 0.32782 0.0
C1049 C 0.68322 0.56163 0.35358 0.0
C1050 C 0.74544 0.5658 0.28788 0.0
C1051 C 0.7753 0.61566 0.28021 0.0
N1052 N 0.70267 0.56406 0.33244 0.0
N1053 N 0.75495 0.61347 0.30049 0.0
H1054 H 0.6185 0.44209 0.64275 0.0
H1055 H 0.66146 0.4865 0.48544 0.0
H1056 H 0.69046 0.40736 0.59912 0.0
H1057 H 0.59751 0.53015 0.53321 0.0
H1058 H 0.67026 0.45555 0.52564 0.0
H1059 H 0.60859 0.47228 0.6021 0.0
C1060 C 0.63221 0.44072 0.62454 0.0
C1061 C 0.65541 0.42209 0.62442 0.0
C1062 C 0.65421 0.47178 0.52741 0.0
C1063 C 0.64405 0.45683 0.57749 0.0
C1064 C 0.64902 0.48944 0.50435 0.0
C1065 C 0.62859 0.511 0.50584 0.0
C1066 C 0.63872 0.47533 0.55235 0.0
C1067 C 0.61341 0.51385 0.53107 0.0
C1068 C 0.62653 0.45807 0.60132 0.0
C1069 C 0.67236 0.42133 0.60018 0.0
N1070 N 0.61874 0.49624 0.55327 0.0
N1071 N 0.66634 0.4384 0.57774 0.0
H1072 H 0.17849 0.46749 0.34958 0.0
H1073 H 0.29258 0.36562 0.27502 0.0
H1074 H 0.19864 0.3837 0.37893 0.0
H1075 H 0.28032 0.45268 0.25156 0.0
H1076 H 0.25605 0.3709 0.3113 0.0
H1077 H 0.21285 0.46144 0.31116 0.0
C1078 C 0.18987 0.44772 0.34773 0.0
C1079 C 0.18567 0.42609 0.36748 0.0
C1080 C 0.26135 0.3889 0.29826 0.0
C1081 C 0.22522 0.41903 0.32375 0.0
C1082 C 0.28237 0.38591 0.27766 0.0
C1083 C 0.28981 0.40883 0.26048 0.0
C1084 C 0.24741 0.41497 0.30163 0.0
C1085 C 0.27534 0.43447 0.26442 0.0
C1086 C 0.20962 0.44431 0.32591 0.0
C1087 C 0.20119 0.40097 0.3642 0.0
N1088 N 0.25491 0.43685 0.28452 0.0
N1089 N 0.22024 0.39817 0.34289 0.0
H1090 H 0.37243 0.48233 0.14383 0.0
H1091 H 0.36021 0.49456 0.97759 0.0
H1092 H 0.35041 0.40992 0.09358 0.0
H1093 H 0.41625 0.5471 1.02605 0.0
H1094 H 0.35281 0.4646 1.01915 0.0
H1095 H 0.3836 0.50854 0.10089 0.0
C1096 C 0.36982 0.47194 0.12371 0.0
C1097 C 0.36041 0.44385 0.12234 0.0
C1098 C 0.36684 0.4826 1.02066 0.0
C1099 C 0.37317 0.47396 0.07284 0.0
C1100 C 0.37117 0.49969 0.99693 0.0
C1101 C 0.38828 0.52392 0.99859 0.0
C1102 C 0.37945 0.48993 0.0464 0.0
C1103 C 0.40201 0.52936 1.02416 0.0
C1104 C 0.37641 0.4869 0.09919 0.0
C1105 C 0.35758 0.43152 0.09562 0.0
N1106 N 0.39695 0.51284 0.04714 0.0
N1107 N 0.36371 0.44671 0.0719 0.0
H1108 H 0.22472 0.66878 0.77543 0.0
H1109 H 0.35346 0.57578 0.83845 0.0
H1110 H 0.27068 0.60731 0.72679 0.0
H1111 H 0.30612 0.63666 0.88661 0.0
H1112 H 0.32457 0.58774 0.7969 0.0
H1113 H 0.25537 0.65832 0.81591 0.0
C1114 C 0.24137 0.65324 0.7732 0.0
C1115 C 0.24502 0.63894 0.74762 0.0
C1116 C 0.32056 0.59854 0.81655 0.0
C1117 C 0.28042 0.62668 0.79401 0.0
C1118 C 0.33711 0.5917 0.84027 0.0
C1119 C 0.33225 0.60516 0.86613 0.0
C1120 C 0.29899 0.61905 0.81862 0.0
C1121 C 0.31065 0.62564 0.86719 0.0
C1122 C 0.2589 0.6472 0.79634 0.0
C1123 C 0.26711 0.61902 0.746 0.0
N1124 N 0.29492 0.63188 0.84395 0.0
N1125 N 0.2838 0.61343 0.76878 0.0
H1126 H 0.12671 0.56437 0.63815 0.0
H1127 H 0.15704 0.52984 0.47568 0.0
H1128 H 0.19116 0.60658 0.5897 0.0
H1129 H 0.10181 0.47952 0.52754 0.0
H1130 H 0.16684 0.56034 0.5159 0.0
H1131 H 0.11488 0.53561 0.59718 0.0
C1132 C 0.13838 0.56768 0.61882 0.0
C1133 C 0.16007 0.58799 0.61748 0.0
C1134 C 0.15243 0.54278 0.51854 0.0
C1135 C 0.1464 0.55486 0.57006 0.0
C1136 C 0.14662 0.52537 0.49547 0.0
C1137 C 0.12849 0.50195 0.49812 0.0
C1138 C 0.13988 0.53709 0.5447 0.0
C1139 C 0.11588 0.49726 0.52446 0.0
C1140 C 0.13158 0.55114 0.59538 0.0
C1141 C 0.17433 0.59124 0.59176 0.0
N1142 N 0.12184 0.51459 0.54668 0.0
N1143 N 0.16725 0.57488 0.56912 0.0
H1144 H 0.16148 0.62201 0.21954 0.0
H1145 H 0.31299 0.58482 0.28279 0.0
H1146 H 0.20838 0.54834 0.19388 0.0
H1147 H 0.24923 0.62323 0.33505 0.0
H1148 H 0.27734 0.57769 0.24593 0.0
H1149 H 0.19528 0.62877 0.25857 0.0
C1150 C 0.1787 0.60714 0.22226 0.0
C1151 C 0.18196 0.58444 0.20353 0.0
C1152 C 0.27113 0.5877 0.26545 0.0
C1153 C 0.22112 0.59255 0.2475 0.0
C1154 C 0.29151 0.59195 0.28643 0.0
C1155 C 0.2841 0.60474 0.31201 0.0
C1156 C 0.24313 0.59679 0.26974 0.0
C1157 C 0.25582 0.61324 0.31565 0.0
C1158 C 0.19797 0.61103 0.24448 0.0
C1159 C 0.20487 0.56599 0.2079 0.0
N1160 N 0.23642 0.60938 0.29468 0.0
N1161 N 0.22368 0.57063 0.22913 0.0
H1162 H 0.12162 0.45002 0.93189 0.0
H1163 H 0.15525 0.4867 0.09307 0.0
H1164 H 0.18799 0.40924 0.97912 0.0
H1165 H 0.1007 0.53763 0.04095 0.0
H1166 H 0.16415 0.45552 0.05313 0.0
H1167 H 0.11073 0.47938 0.97269 0.0
C1168 C 0.13388 0.44713 0.95094 0.0
C1169 C 0.15582 0.42708 0.95201 0.0
C1170 C 0.15009 0.47338 0.05038 0.0
C1171 C 0.1433 0.46087 0.99915 0.0
C1172 C 0.14482 0.49117 0.07327 0.0
C1173 C 0.12715 0.51491 0.07042 0.0
C1174 C 0.13741 0.47905 1.02428 0.0
C1175 C 0.11445 0.51962 0.04413 0.0
C1176 C 0.12765 0.46402 0.97425 0.0
C1177 C 0.17091 0.42437 0.97732 0.0
N1178 N 0.11984 0.5019 1.02211 0.0
N1179 N 0.16436 0.44105 0.99986 0.0
H1180 H 0.30918 0.36954 0.68544 0.0
H1181 H 0.26514 0.41134 0.84319 0.0
H1182 H 0.34663 0.43938 0.72993 0.0
H1183 H 0.22329 0.34657 0.79518 0.0
H1184 H 0.29668 0.42036 0.80332 0.0
H1185 H 0.2795 0.35951 0.72627 0.0
C1186 C 0.31125 0.38279 0.70388 0.0
C1187 C 0.33049 0.40543 0.70413 0.0
C1188 C 0.28074 0.40406 0.80148 0.0
C1189 C 0.29622 0.39392 0.75141 0.0
C1190 C 0.26276 0.39875 0.82434 0.0
C1191 C 0.24148 0.37806 0.82262 0.0
C1192 C 0.27771 0.38846 0.77655 0.0
C1193 C 0.23931 0.36271 0.79748 0.0
C1194 C 0.29419 0.37702 0.72725 0.0
C1195 C 0.33215 0.42173 0.72875 0.0
N1196 N 0.25712 0.36821 0.77551 0.0
N1197 N 0.31525 0.41568 0.75134 0.0
H1198 H 0.36426 0.51581 0.59267 0.0
H1199 H 0.36651 0.52648 0.42475 0.0
H1200 H 0.40968 0.45641 0.54112 0.0
H1201 H 0.35061 0.59891 0.47716 0.0
H1202 H 0.37797 0.49876 0.46692 0.0
H1203 H 0.35545 0.54499 0.55092 0.0
C1204 C 0.37271 0.50901 0.57261 0.0
C1205 C 0.38772 0.48343 0.57051 0.0
C1206 C 0.372 0.52071 0.46924 0.0
C1207 C 0.37711 0.51671 0.52221 0.0
C1208 C 0.36528 0.53655 0.44516 0.0
C1209 C 0.35749 0.56513 0.44733 0.0
C1210 C 0.37056 0.53329 0.49598 0.0
C1211 C 0.35647 0.57699 0.47441 0.0
C1212 C 0.36755 0.5257 0.54872 0.0
C1213 C 0.39791 0.47579 0.54379 0.0
N1214 N 0.36271 0.56102 0.49761 0.0
N1215 N 0.39216 0.49211 0.52073 0.0
H1216 H 0.18947 0.36289 0.45077 0.0
H1217 H 0.13181 0.24094 0.3505 0.0
H1218 H 0.10022 0.34814 0.43934 0.0
H1219 H 0.2002 0.2261 0.40876 0.0
H1220 H 0.12593 0.28859 0.37027 0.0
H1221 H 0.19955 0.32065 0.42209 0.0
C1222 C 0.1721 0.35112 0.44166 0.0
C1223 C 0.14402 0.35871 0.4474 0.0
C1224 C 0.14245 0.27495 0.37836 0.0
C1225 C 0.15527 0.31116 0.41461 0.0
C1226 C 0.14587 0.2479 0.3671 0.0
C1227 C 0.16636 0.22958 0.37822 0.0
C1228 C 0.1602 0.28392 0.40027 0.0
C1229 C 0.18396 0.23953 0.39984 0.0
C1230 C 0.17782 0.32706 0.42554 0.0
C1231 C 0.12215 0.34274 0.43544 0.0
N1232 N 0.18054 0.26609 0.41014 0.0
N1233 N 0.12821 0.31971 0.41953 0.0
H1234 H 0.0242 0.93795 0.59538 0.0
H1235 H 0.94251 0.93983 0.74338 0.0
H1236 H 0.06469 0.95817 0.67418 0.0
H1237 H 0.9119 0.89691 0.66948 0.0
H1238 H 0.98371 0.95611 0.71637 0.0
H1239 H 0.97899 0.93356 0.62014 0.0
C1240 C 0.02353 0.94223 0.61774 0.0
C1241 C 0.04846 0.94822 0.63271 0.0
C1242 C 0.96777 0.94344 0.70599 0.0
C1243 C 0.99668 0.94279 0.66128 0.0
C1244 C 0.94426 0.93416 0.72138 0.0
C1245 C 0.92365 0.91712 0.70864 0.0
C1246 C 0.97064 0.93576 0.67757 0.0
C1247 C 0.92706 0.91031 0.68009 0.0
C1248 C 0.9977 0.9394 0.63192 0.0
C1249 C 0.04612 0.95329 0.66176 0.0
N1250 N 0.95008 0.91959 0.66556 0.0
N1251 N 0.02081 0.95021 0.67511 0.0
H1252 H 0.35938 0.77661 0.84941 0.0
H1253 H 0.32795 0.68528 0.98815 0.0
H1254 H 0.32789 0.81166 0.92716 0.0
H1255 H 0.37682 0.65427 0.91806 0.0
H1256 H 0.32062 0.72975 0.96276 0.0
H1257 H 0.35939 0.7297 0.87126 0.0
C1258 C 0.35238 0.77448 0.87099 0.0
C1259 C 0.34386 0.79821 0.88651 0.0
C1260 C 0.33267 0.71308 0.9528 0.0
C1261 C 0.3436 0.7446 0.91153 0.0
C1262 C 0.33672 0.68767 0.96723 0.0
C1263 C 0.35299 0.6661 0.95519 0.0
C1264 C 0.34495 0.71689 0.92613 0.0
C1265 C 0.36397 0.6703 0.92805 0.0
C1266 C 0.3524 0.7477 0.88345 0.0
C1267 C 0.33493 0.79409 0.91441 0.0
N1268 N 0.35989 0.69526 0.91449 0.0
N1269 N 0.33507 0.76787 0.92599 0.0
H1270 H 0.44591 0.11307 0.17028 0.0
H1271 H 0.60958 0.08881 0.18039 0.0
H1272 H 0.48771 0.08922 0.09305 0.0
H1273 H 0.56962 0.16549 0.20903 0.0
H1274 H 0.56591 0.07702 0.15427 0.0
H1275 H 0.49186 0.11887 0.19251 0.0
C1276 C 0.46467 0.10855 0.15799 0.0
C1277 C 0.46275 0.10091 0.12949 0.0
C1278 C 0.56705 0.09651 0.16609 0.0
C1279 C 0.5157 0.10734 0.15534 0.0
C1280 C 0.59195 0.10339 0.18077 0.0
C1281 C 0.59347 0.12847 0.1965 0.0
C1282 C 0.54339 0.11436 0.16815 0.0
C1283 C 0.56953 0.14601 0.19714 0.0
C1284 C 0.49092 0.11202 0.17079 0.0
C1285 C 0.48813 0.09535 0.11496 0.0
N1286 N 0.54547 0.13847 0.18352 0.0
N1287 N 0.51368 0.09873 0.12805 0.0
H1288 H 0.13562 0.80652 0.15178 0.0
H1289 H 0.17452 0.64613 0.14172 0.0
H1290 H 0.15927 0.76659 0.23009 0.0
H1291 H 0.09764 0.68177 0.10766 0.0
H1292 H 0.18056 0.68953 0.17037 0.0
H1293 H 0.13483 0.76046 0.12933 0.0
C1294 C 0.14091 0.78811 0.16427 0.0
C1295 C 0.14726 0.79046 0.19298 0.0
C1296 C 0.16232 0.6874 0.15675 0.0
C1297 C 0.14659 0.73753 0.1671 0.0
C1298 C 0.15884 0.66277 0.14053 0.0
C1299 C 0.1357 0.6605 0.12211 0.0
C1300 C 0.14281 0.70966 0.15378 0.0
C1301 C 0.11604 0.68269 0.12121 0.0
C1302 C 0.1404 0.76182 0.1514 0.0
C1303 C 0.15394 0.76566 0.20797 0.0
N1304 N 0.12026 0.70638 0.13642 0.0
N1305 N 0.15343 0.74004 0.19483 0.0
H1306 H 0.58563 0.87494 0.40541 0.0
H1307 H 0.42422 0.92498 0.4013 0.0
H1308 H 0.54144 0.89819 0.32965 0.0
H1309 H 0.46859 0.90564 0.47833 0.0
H1310 H 0.46862 0.92073 0.37556 0.0
H1311 H 0.54491 0.89086 0.43322 0.0
C1312 C 0.56769 0.88428 0.39474 0.0
C1313 C 0.56714 0.8862 0.36535 0.0
C1314 C 0.46878 0.91775 0.39815 0.0
C1315 C 0.51999 0.90318 0.39673 0.0
C1316 C 0.44339 0.92028 0.41291 0.0
C1317 C 0.44253 0.91538 0.44203 0.0
C1318 C 0.4936 0.90997 0.41248 0.0
C1319 C 0.46816 0.90954 0.4559 0.0
C1320 C 0.54427 0.89298 0.41055 0.0
C1321 C 0.54271 0.89672 0.35235 0.0
N1322 N 0.49257 0.9066 0.44095 0.0
N1323 N 0.5201 0.90477 0.3681 0.0
H1324 H 0.35459 0.31705 0.58344 0.0
H1325 H 0.34983 0.23085 0.72832 0.0
H1326 H 0.37926 0.35372 0.66257 0.0
H1327 H 0.32272 0.19812 0.64796 0.0
H1328 H 0.35768 0.27701 0.70615 0.0
H1329 H 0.33949 0.27442 0.6081 0.0
C1330 C 0.35635 0.31618 0.60616 0.0
C1331 C 0.3677 0.33891 0.62113 0.0
C1332 C 0.34983 0.25972 0.69349 0.0
C1333 C 0.35117 0.28997 0.64959 0.0
C1334 C 0.34534 0.23335 0.70612 0.0
C1335 C 0.33579 0.21039 0.68999 0.0
C1336 C 0.34475 0.26312 0.66455 0.0
C1337 C 0.3303 0.21499 0.66131 0.0
C1338 C 0.34783 0.29185 0.62026 0.0
C1339 C 0.36997 0.33676 0.65045 0.0
N1340 N 0.33499 0.24068 0.64957 0.0
N1341 N 0.36196 0.31256 0.66378 0.0
H1342 H 0.00675 0.09231 0.98637 0.0
H1343 H 0.92675 0.09094 0.83798 0.0
H1344 H 0.04575 0.069 0.90767 0.0
H1345 H 0.88466 0.1114 0.91562 0.0
H1346 H 0.96903 0.07758 0.8645 0.0
H1347 H 0.96066 0.09385 0.9626 0.0
C1348 C 0.00564 0.08697 0.96426 0.0
C1349 C 0.0304 0.08076 0.94902 0.0
C1350 C 0.95046 0.08448 0.87592 0.0
C1351 C 0.97758 0.08285 0.92156 0.0
C1352 C 0.92627 0.09199 0.86074 0.0
C1353 C 0.90204 0.1017 0.87468 0.0
C1354 C 0.95077 0.08728 0.90537 0.0
C1355 C 0.90267 0.10324 0.90415 0.0
C1356 C 0.97927 0.08802 0.95065 0.0
C1357 C 0.02745 0.07418 0.92034 0.0
N1358 N 0.92674 0.09637 0.91853 0.0
N1359 N 1.00171 0.07567 0.90759 0.0
H1360 H 0.86897 0.78022 0.72946 0.0
H1361 H 0.86779 0.69528 0.58376 0.0
H1362 H 0.85583 0.81718 0.64733 0.0
H1363 H 0.88143 0.6538 0.66329 0.0
H1364 H 0.85988 0.73965 0.60831 0.0
H1365 H 0.87116 0.73335 0.70728 0.0
C1366 C 0.86658 0.77857 0.70686 0.0
C1367 C 0.86234 0.80284 0.6903 0.0
C1368 C 0.86421 0.72088 0.62061 0.0
C1369 C 0.86458 0.74939 0.66495 0.0
C1370 C 0.86856 0.69553 0.60654 0.0
C1371 C 0.8747 0.67092 0.62161 0.0
C1372 C 0.86657 0.72186 0.65006 0.0
C1373 C 0.87593 0.67229 0.65105 0.0
C1374 C 0.86774 0.75181 0.69426 0.0
C1375 C 0.85925 0.79931 0.66113 0.0
N1376 N 0.87212 0.69749 0.66441 0.0
N1377 N 0.86046 0.77324 0.64952 0.0
H1378 H 0.08011 0.10817 0.34402 0.0
H1379 H 0.98671 0.12528 0.48382 0.0
H1380 H 0.11038 0.15304 0.41674 0.0
H1381 H 0.95384 0.10177 0.4024 0.0
H1382 H 0.03422 0.12896 0.46297 0.0
H1383 H 0.03605 0.09776 0.36897 0.0
C1384 C 0.07763 0.11521 0.36556 0.0
C1385 C 0.09885 0.13104 0.37861 0.0
C1386 C 0.01653 0.12295 0.44979 0.0
C1387 C 0.04831 0.12005 0.40705 0.0
C1388 C 0.98943 0.12085 0.46165 0.0
C1389 C 0.96614 0.11343 0.44483 0.0
C1390 C 0.02034 0.11718 0.42104 0.0
C1391 C 0.97099 0.10786 0.41622 0.0
C1392 C 0.05244 0.10953 0.37972 0.0
C1393 C 0.09458 0.14026 0.40629 0.0
N1394 N 0.99745 0.10981 0.40532 0.0
N1395 N 0.06965 0.13477 0.41962 0.0
H1396 H 0.64267 0.36688 0.15929 0.0
H1397 H 0.68887 0.20566 0.14999 0.0
H1398 H 0.69155 0.33233 0.09088 0.0
H1399 H 0.65389 0.24198 0.22562 0.0
H1400 H 0.69119 0.25239 0.12909 0.0
H1401 H 0.64857 0.32262 0.18514 0.0
C1402 C 0.65519 0.35019 0.14994 0.0
C1403 C 0.66668 0.35333 0.12284 0.0
C1404 C 0.68314 0.25029 0.15031 0.0
C1405 C 0.67284 0.30224 0.1521 0.0
C1406 C 0.68162 0.22348 0.1623 0.0
C1407 C 0.67086 0.21972 0.18962 0.0
C1408 C 0.67356 0.27379 0.16549 0.0
C1409 C 0.66223 0.24382 0.2045 0.0
C1410 C 0.65838 0.32483 0.16468 0.0
C1411 C 0.68234 0.33084 0.11167 0.0
N1412 N 0.6635 0.26982 0.19214 0.0
N1413 N 0.68467 0.30616 0.1262 0.0
H1414 H 0.39673 0.92774 0.89943 0.0
H1415 H 0.56517 0.92935 0.8914 0.0
H1416 H 0.44712 0.86936 0.851 0.0
H1417 H 0.52368 0.94463 0.97092 0.0
H1418 H 0.51906 0.92214 0.86971 0.0
H1419 H 0.44077 0.94655 0.92044 0.0
C1420 C 0.41691 0.91887 0.89329 0.0
C1421 C 0.41823 0.89671 0.87371 0.0
C1422 C 0.52008 0.92755 0.89182 0.0
C1423 C 0.46822 0.9188 0.8965 0.0
C1424 C 0.54643 0.93187 0.90426 0.0
C1425 C 0.54852 0.93709 0.93326 0.0
C1426 C 0.49548 0.92875 0.90828 0.0
C1427 C 0.52319 0.94027 0.94859 0.0
C1428 C 0.44193 0.92968 0.90513 0.0
C1429 C 0.44498 0.88629 0.86613 0.0
N1430 N 0.49766 0.93572 0.93599 0.0
N1431 N 0.4688 0.89753 0.87734 0.0
H1432 H 0.87658 0.30147 0.99582 0.0
H1433 H 0.84775 0.225 0.84834 0.0
H1434 H 0.87505 0.34679 0.91726 0.0
H1435 H 0.84473 0.18391 0.92948 0.0
H1436 H 0.85734 0.26998 0.87215 0.0
H1437 H 0.86458 0.25816 0.97091 0.0
C1438 C 0.8733 0.30227 0.97327 0.0
C1439 C 0.87594 0.32773 0.95859 0.0
C1440 C 0.85449 0.25106 0.88463 0.0
C1441 C 0.86269 0.2782 0.92969 0.0
C1442 C 0.84907 0.22537 0.87108 0.0
C1443 C 0.84542 0.20054 0.88688 0.0
C1444 C 0.85636 0.25181 0.91413 0.0
C1445 C 0.84733 0.20236 0.91629 0.0
C1446 C 0.86647 0.27757 0.95901 0.0
C1447 C 0.87195 0.32773 0.92938 0.0
N1448 N 0.85269 0.22745 0.92886 0.0
N1449 N 0.86558 0.30324 0.91577 0.0
H1450 H 0.38596 0.1309 0.65575 0.0
H1451 H 0.54588 0.07876 0.67024 0.0
H1452 H 0.42032 0.09047 0.72936 0.0
H1453 H 0.51091 0.1046 0.59035 0.0
H1454 H 0.49921 0.08212 0.69114 0.0
H1455 H 0.42984 0.11979 0.63007 0.0
C1456 C 0.40238 0.11882 0.66616 0.0
C1457 C 0.39938 0.11093 0.69444 0.0
C1458 C 0.50155 0.08697 0.669 0.0
C1459 C 0.44995 0.0993 0.66579 0.0
C1460 C 0.52838 0.08522 0.65698 0.0
C1461 C 0.53256 0.09163 0.62842 0.0
C1462 C 0.47838 0.09553 0.65258 0.0
C1463 C 0.50876 0.09951 0.61245 0.0
C1464 C 0.42754 0.11279 0.65164 0.0
C1465 C 0.42169 0.09644 0.70741 0.0
N1466 N 0.48272 0.10149 0.62479 0.0
N1467 N 0.44604 0.09128 0.69308 0.0
H1468 H 0.59655 0.79762 0.407 0.0
H1469 H 0.66561 0.64945 0.43832 0.0
H1470 H 0.65878 0.76455 0.34948 0.0
H1471 H 0.57867 0.66892 0.45805 0.0
H1472 H 0.66721 0.69167 0.40782 0.0
H1473 H 0.5933 0.7513 0.42931 0.0
C1474 C 0.60938 0.78047 0.39894 0.0
C1475 C 0.62783 0.78483 0.37631 0.0
C1476 C 0.64771 0.68629 0.41851 0.0
C1477 C 0.62473 0.73181 0.40217 0.0
C1478 C 0.64672 0.66212 0.4357 0.0
C1479 C 0.6219 0.65557 0.45056 0.0
C1480 C 0.62393 0.70413 0.41687 0.0
C1481 C 0.59831 0.67326 0.44715 0.0
C1482 C 0.6075 0.75402 0.41164 0.0
C1483 C 0.64407 0.76189 0.36673 0.0
N1484 N 0.60001 0.6968 0.431 0.0
N1485 N 0.64246 0.73635 0.37999 0.0
H1486 H 0.91911 0.89688 0.18057 0.0
H1487 H 0.08599 0.91522 0.18564 0.0
H1488 H 0.96335 0.92444 0.10591 0.0
H1489 H 0.04121 0.84629 0.22492 0.0
H1490 H 0.04165 0.92932 0.16192 0.0
H1491 H 0.96438 0.89064 0.20418 0.0
C1492 C 0.93825 0.90219 0.16922 0.0
C1493 C 0.9373 0.91091 0.14099 0.0
C1494 C 0.04177 0.91111 0.17572 0.0
C1495 C 0.98936 0.90371 0.16818 0.0
C1496 C 0.06698 0.90297 0.18909 0.0
C1497 C 0.06733 0.87933 0.20698 0.0
C1498 C 0.01678 0.89599 0.18112 0.0
C1499 C 0.04198 0.86454 0.21121 0.0
C1500 C 0.96412 0.89841 0.18274 0.0
C1501 C 0.96305 0.91745 0.12759 0.0
N1502 N 0.01775 0.87325 0.1986 0.0
N1503 N 0.98813 0.91357 0.14127 0.0
H1504 H 0.65654 0.70039 0.92703 0.0
H1505 H 0.62425 0.8645 0.91109 0.0
H1506 H 0.65406 0.73947 0.84486 0.0
H1507 H 0.59817 0.81324 0.98141 0.0
H1508 H 0.64013 0.82142 0.88657 0.0
H1509 H 0.64149 0.74446 0.94783 0.0
C1510 C 0.65305 0.71828 0.91324 0.0
C1511 C 0.65649 0.71601 0.884 0.0
C1512 C 0.63073 0.81971 0.90728 0.0
C1513 C 0.63888 0.76697 0.90806 0.0
C1514 C 0.62183 0.84419 0.92125 0.0
C1515 C 0.61029 0.84231 0.94837 0.0
C1516 C 0.62822 0.79344 0.92081 0.0
C1517 C 0.60703 0.8156 0.96054 0.0
C1518 C 0.64423 0.74349 0.92524 0.0
C1519 C 0.65162 0.7402 0.86748 0.0
N1520 N 0.61619 0.79229 0.9468 0.0
N1521 N 0.64301 0.76477 0.87975 0.0
H1522 H 0.52896 0.40801 0.09243 0.0
H1523 H 0.44587 0.32542 0.21362 0.0
H1524 H 0.56942 0.37406 0.16648 0.0
H1525 H 0.40887 0.39552 0.16875 0.0
H1526 H 0.4896 0.3317 0.18647 0.0
H1527 H 0.48288 0.3925 0.11111 0.0
C1528 C 0.52814 0.39701 0.1124 0.0
C1529 C 0.55283 0.39261 0.12819 0.0
C1530 C 0.47168 0.34536 0.1823 0.0
C1531 C 0.50078 0.3744 0.14913 0.0
C1532 C 0.44676 0.34171 0.19763 0.0
C1533 C 0.42397 0.3602 0.19353 0.0
C1534 C 0.4735 0.36729 0.16248 0.0
C1535 C 0.42613 0.38099 0.1726 0.0
C1536 C 0.50197 0.38825 0.12301 0.0
C1537 C 0.55076 0.37824 0.15391 0.0
N1538 N 0.45058 0.38411 0.15789 0.0
N1539 N 0.52517 0.36962 0.16359 0.0
H1540 H 0.82933 0.27932 0.35162 0.0
H1541 H 0.86147 0.20028 0.49692 0.0
H1542 H 0.8303 0.32067 0.43254 0.0
H1543 H 0.86962 0.16092 0.41574 0.0
H1544 H 0.84304 0.24286 0.47411 0.0
H1545 H 0.83552 0.23395 0.37524 0.0
C1546 C 0.83023 0.27891 0.37437 0.0
C1547 C 0.82971 0.30406 0.39003 0.0
C1548 C 0.84841 0.22478 0.46126 0.0
C1549 C 0.83724 0.25202 0.41718 0.0
C1550 C 0.85898 0.20054 0.47426 0.0
C1551 C 0.86642 0.17694 0.45816 0.0
C1552 C 0.84561 0.22555 0.43184 0.0
C1553 C 0.86305 0.17829 0.42893 0.0
C1554 C 0.83399 0.25292 0.38784 0.0
C1555 C 0.83092 0.30197 0.41949 0.0
N1556 N 0.85301 0.20227 0.41665 0.0
N1557 N 0.83498 0.27649 0.43205 0.0
H1558 H 0.95216 0.64137 0.66403 0.0
H1559 H 0.10833 0.59309 0.69098 0.0
H1560 H 0.99118 0.58399 0.60528 0.0
H1561 H 0.08121 0.67881 0.70543 0.0
H1562 H 0.06524 0.58504 0.66301 0.0
H1563 H 0.9986 0.65102 0.68442 0.0
C1564 C 0.97059 0.63082 0.65544 0.0
C1565 C 0.96797 0.61187 0.633 0.0
C1566 C 0.06912 0.60572 0.67192 0.0
C1567 C 0.021 0.62247 0.65647 0.0
C1568 C 0.0938 0.61041 0.68756 0.0
C1569 C 0.09859 0.63684 0.69997 0.0
C1570 C 0.0489 0.62735 0.66961 0.0
C1571 C 0.07832 0.65813 0.69618 0.0
C1572 C 0.99704 0.63643 0.66696 0.0
C1573 C 0.99248 0.59886 0.6225 0.0
N1574 N 0.05423 0.65284 0.68164 0.0
N1575 N 0.01809 0.6041 0.63461 0.0
H1576 H 0.64961 0.25924 0.7309 0.0
H1577 H 0.63327 0.18372 0.58103 0.0
H1578 H 0.66406 0.2994 0.65054 0.0
H1579 H 0.62159 0.13905 0.65911 0.0
H1580 H 0.64661 0.22585 0.60727 0.0
H1581 H 0.64157 0.21431 0.70628 0.0
C1582 C 0.65128 0.25863 0.70819 0.0
C1583 C 0.65729 0.28326 0.69281 0.0
C1584 C 0.64149 0.20681 0.61882 0.0
C1585 C 0.6481 0.23212 0.66463 0.0
C1586 C 0.63389 0.1828 0.6038 0.0
C1587 C 0.627 0.15788 0.618 0.0
C1588 C 0.64174 0.2061 0.64839 0.0
C1589 C 0.62775 0.15769 0.64748 0.0
C1590 C 0.64666 0.233 0.69417 0.0
C1591 C 0.65921 0.28116 0.66341 0.0
N1592 N 0.63488 0.18156 0.66181 0.0
N1593 N 0.65453 0.25618 0.65039 0.0
H1594 H 0.9886 0.42088 0.97182 0.0
H1595 H 0.07953 0.33221 0.86295 0.0
H1596 H 0.95149 0.36397 0.91144 0.0
H1597 H 0.10191 0.41872 0.88027 0.0
H1598 H 0.03677 0.33799 0.89114 0.0
H1599 H 0.03479 0.41502 0.94827 0.0
C1600 C 0.99025 0.40701 0.9538 0.0
C1601 C 0.96629 0.39293 0.94343 0.0
C1602 C 0.05127 0.35558 0.88911 0.0
C1603 C 0.01863 0.38584 0.91703 0.0
C1604 C 0.07567 0.35233 0.87308 0.0
C1605 C 0.09452 0.37491 0.86964 0.0
C1606 C 0.04569 0.38154 0.90205 0.0
C1607 C 0.08844 0.40052 0.8832 0.0
C1608 C 0.01645 0.40384 0.94036 0.0
C1609 C 0.96942 0.37534 0.91995 0.0
N1610 N 0.06445 0.40319 0.89892 0.0
N1611 N 0.99514 0.37212 0.90769 0.0
H1612 H 0.91308 0.82047 0.1479 0.0
H1613 H 0.81961 0.68171 0.1516 0.0
H1614 H 0.83603 0.814 0.09978 0.0
H1615 H 0.86075 0.7133 0.22626 0.0
H1616 H 0.8307 0.72639 0.12767 0.0
H1617 H 0.90044 0.77622 0.17237 0.0
C1618 C 0.89369 0.80959 0.14241 0.0
C1619 C 0.87547 0.82072 0.12203 0.0
C1620 C 0.83699 0.72351 0.14939 0.0
C1621 C 0.86113 0.77062 0.14932 0.0
C1622 C 0.83056 0.69817 0.16305 0.0
C1623 C 0.83893 0.69397 0.19103 0.0
C1624 C 0.85264 0.74428 0.16359 0.0
C1625 C 0.85345 0.71584 0.20482 0.0
C1626 C 0.8864 0.78461 0.1564 0.0
C1627 C 0.85048 0.80609 0.11558 0.0
N1628 N 0.8602 0.73992 0.19085 0.0
N1629 N 0.84411 0.78166 0.12904 0.0
H1630 H 0.52078 0.60791 0.48367 0.0
H1631 H 0.45115 0.63393 0.33474 0.0
H1632 H 0.55188 0.57257 0.40591 0.0
H1633 H 0.39933 0.63791 0.40932 0.0
H1634 H 0.48991 0.61549 0.36264 0.0
H1635 H 0.47666 0.62123 0.4593 0.0
C1636 C 0.51815 0.60249 0.4617 0.0
C1637 C 0.54023 0.58955 0.44666 0.0
C1638 C 0.47009 0.62026 0.37305 0.0
C1639 C 0.49042 0.60499 0.41887 0.0
C1640 C 0.448 0.63107 0.35714 0.0
C1641 C 0.42204 0.63744 0.3698 0.0
C1642 C 0.46652 0.6161 0.40205 0.0
C1643 C 0.41909 0.63311 0.39887 0.0
C1644 C 0.49307 0.61017 0.44785 0.0
C1645 C 0.53573 0.58303 0.41825 0.0
N1646 N 0.44124 0.62282 0.4142 0.0
N1647 N 0.51156 0.59111 0.40528 0.0
H1648 H 0.36962 0.21218 0.07413 0.0
H1649 H 0.34146 0.28076 0.22456 0.0
H1650 H 0.38387 0.16735 0.15188 0.0
H1651 H 0.32994 0.32413 0.14541 0.0
H1652 H 0.3496 0.23682 0.19892 0.0
H1653 H 0.3488 0.25101 0.10035 0.0
C1654 C 0.36838 0.21055 0.09683 0.0
C1655 C 0.37883 0.18673 0.11094 0.0
C1656 C 0.34483 0.25587 0.18721 0.0
C1657 C 0.35489 0.23129 0.14126 0.0
C1658 C 0.33994 0.28099 0.20184 0.0
C1659 C 0.33541 0.30639 0.18713 0.0
C1660 C 0.34518 0.25614 0.15769 0.0
C1661 C 0.3337 0.30523 0.15769 0.0
C1662 C 0.35632 0.23271 0.11181 0.0
C1663 C 0.37624 0.18552 0.14029 0.0
N1664 N 0.33895 0.28065 0.14398 0.0
N1665 N 0.36474 0.20767 0.15457 0.0
H1666 H 0.60413 0.58291 0.88045 0.0
H1667 H 0.47672 0.64545 0.9708 0.0
H1668 H 0.58449 0.67182 0.87995 0.0
H1669 H 0.46707 0.57106 0.91952 0.0
H1670 H 0.52495 0.6515 0.95189 0.0
H1671 H 0.56206 0.57452 0.90998 0.0
C1672 C 0.59127 0.60065 0.88705 0.0
C1673 C 0.59729 0.62799 0.87756 0.0
C1674 C 0.51229 0.63368 0.94519 0.0
C1675 C 0.55015 0.61874 0.91146 0.0
C1676 C 0.48496 0.63022 0.95591 0.0
C1677 C 0.46801 0.60796 0.94633 0.0
C1678 C 0.5228 0.61418 0.92557 0.0
C1679 C 0.47947 0.58872 0.92705 0.0
C1680 C 0.56738 0.59587 0.90372 0.0
C1681 C 0.58015 0.65038 0.8866 0.0
N1682 N 0.50624 0.59222 0.91731 0.0
N1683 N 0.55725 0.64528 0.90308 0.0
H1684 H 0.10533 0.81931 0.58716 0.0
H1685 H 0.15395 0.74681 0.73034 0.0
H1686 H 0.12309 0.87057 0.65997 0.0
H1687 H 0.16308 0.71023 0.64764 0.0
H1688 H 0.13953 0.79165 0.70808 0.0
H1689 H 0.12161 0.778 0.61238 0.0
C1690 C 0.11254 0.82187 0.60864 0.0
C1691 C 0.11295 0.84847 0.62145 0.0
C1692 C 0.14496 0.77376 0.69499 0.0
C1693 C 0.13195 0.80081 0.6507 0.0
C1694 C 0.1532 0.7482 0.70761 0.0
C1695 C 0.15948 0.7245 0.6909 0.0
C1696 C 0.14276 0.77538 0.66555 0.0
C1697 C 0.15817 0.72761 0.66156 0.0
C1698 C 0.12205 0.7982 0.62301 0.0
C1699 C 0.12253 0.85039 0.64936 0.0
N1700 N 0.14979 0.75236 0.64997 0.0
N1701 N 0.13169 0.82676 0.66319 0.0
H1702 H 0.95315 0.34121 0.34638 0.0
H1703 H 0.02529 0.41697 0.47875 0.0
H1704 H 0.90379 0.38297 0.4102 0.0
H1705 H 0.06871 0.39419 0.40215 0.0
H1706 H 0.98087 0.39932 0.45818 0.0
H1707 H 0.99623 0.35383 0.3716 0.0
C1708 C 0.9514 0.35282 0.36592 0.0
C1709 C 0.92499 0.36149 0.37604 0.0
C1710 C 1.0002 0.39826 0.446 0.0
C1711 C 0.97423 0.37634 0.40494 0.0
C1712 C 0.0255 0.40831 0.45769 0.0
C1713 C 0.05071 0.40736 0.44205 0.0
C1714 C 1.00035 0.38679 0.41874 0.0
C1715 C 0.04979 0.39579 0.4149 0.0
C1716 C 0.976 0.3602 0.38023 0.0
C1717 C 0.92387 0.37639 0.40151 0.0
N1718 N 0.02513 0.38595 0.40421 0.0
N1719 N 0.94822 0.38357 0.41507 0.0
H1720 H 0.35178 0.79869 0.49217 0.0
H1721 H 0.33645 0.72906 0.34099 0.0
H1722 H 0.37171 0.8439 0.41594 0.0
H1723 H 0.31057 0.68948 0.41864 0.0
H1724 H 0.34275 0.77364 0.36626 0.0
H1725 H 0.33123 0.76091 0.46437 0.0
C1726 C 0.35187 0.80061 0.46946 0.0
C1727 C 0.36387 0.82421 0.45628 0.0
C1728 C 0.33512 0.75534 0.37762 0.0
C1729 C 0.34032 0.78075 0.42406 0.0
C1730 C 0.33123 0.72989 0.36315 0.0
C1731 C 0.32338 0.7053 0.3778 0.0
C1732 C 0.33116 0.75613 0.40689 0.0
C1733 C 0.31707 0.70773 0.40653 0.0
C1734 C 0.33991 0.77907 0.45355 0.0
C1735 C 0.36288 0.82585 0.42683 0.0
N1736 N 0.32152 0.7325 0.42016 0.0
N1737 N 0.35162 0.80418 0.41162 0.0
H1738 H 0.03665 0.63476 0.09872 0.0
H1739 H 0.91693 0.58062 0.20188 0.0
H1740 H 0.04873 0.56542 0.15636 0.0
H1741 H 0.92868 0.67019 0.19004 0.0
H1742 H 0.95902 0.57166 0.17385 0.0
H1743 H 0.99083 0.64507 0.12151 0.0
C1744 C 0.02938 0.62148 0.11583 0.0
C1745 C 0.0462 0.59917 0.12574 0.0
C1746 C 0.95228 0.59327 0.17721 0.0
C1747 C 0.99444 0.61058 0.15136 0.0
C1748 C 0.92818 0.59845 0.19304 0.0
C1749 C 0.91936 0.62622 0.19821 0.0
C1750 C 0.96759 0.61599 0.16614 0.0
C1751 C 0.93501 0.6485 0.18657 0.0
C1752 C 1.00355 0.62753 0.1289 0.0
C1753 C 0.03629 0.5828 0.14819 0.0
N1754 N 0.95851 0.64291 0.17089 0.0
N1755 N 0.01093 0.58871 0.16013 0.0
H1756 H 0.1397 0.27176 0.84164 0.0
H1757 H 0.1224 0.20029 0.99174 0.0
H1758 H 0.17805 0.302 0.91827 0.0
H1759 H 0.10304 0.15362 0.91632 0.0
H1760 H 0.14237 0.23775 0.96344 0.0
H1761 H 0.12662 0.2278 0.8663 0.0
C1762 C 0.14582 0.26894 0.86342 0.0
C1763 C 0.15957 0.29071 0.87809 0.0
C1764 C 0.13392 0.21936 0.95284 0.0
C1765 C 0.14456 0.24101 0.90623 0.0
C1766 C 0.12228 0.19799 0.96907 0.0
C1767 C 0.11084 0.17396 0.9563 0.0
C1768 C 0.13383 0.21713 0.92341 0.0
C1769 C 0.11164 0.17195 0.92686 0.0
C1770 C 0.13828 0.24395 0.87746 0.0
C1771 C 0.16697 0.28605 0.90625 0.0
N1772 N 0.1227 0.19351 0.91125 0.0
N1773 N 0.15916 0.26192 0.91938 0.0
H1774 H 0.58305 0.32753 0.69492 0.0
H1775 H 0.46334 0.43428 0.65968 0.0
H1776 H 0.59748 0.41663 0.70621 0.0
H1777 H 0.4792 0.36536 0.60267 0.0
H1778 H 0.50986 0.4264 0.68117 0.0
H1779 H 0.54231 0.33853 0.66466 0.0
C1780 C 0.57773 0.3494 0.69076 0.0
C1781 C 0.59348 0.37126 0.70293 0.0
C1782 C 0.50328 0.41323 0.66375 0.0
C1783 C 0.54685 0.38388 0.66914 0.0
C1784 C 0.47677 0.41759 0.65161 0.0
C1785 C 0.46757 0.40039 0.62945 0.0
C1786 C 0.52028 0.39093 0.65426 0.0
C1787 C 0.48569 0.37911 0.61966 0.0
C1788 C 0.55467 0.35563 0.67345 0.0
C1789 C 0.58587 0.39924 0.69701 0.0
N1790 N 0.51107 0.37458 0.63251 0.0
N1791 N 0.5627 0.4048 0.68091 0.0
H1792 H 0.20894 0.08523 0.27884 0.0
H1793 H 0.17483 0.9269 0.30408 0.0
H1794 H 0.19827 0.04514 0.35985 0.0
H1795 H 0.1642 0.97243 0.22582 0.0
H1796 H 0.20458 0.9646 0.32141 0.0
H1797 H 0.21664 0.03909 0.25778 0.0
C1798 C 0.20864 0.06674 0.29229 0.0
C1799 C 0.20085 0.06851 0.32068 0.0
C1800 C 0.19592 0.96622 0.30037 0.0
C1801 C 0.2097 0.01632 0.29686 0.0
C1802 C 0.17841 0.94501 0.2906 0.0
C1803 C 0.16599 0.94715 0.26384 0.0
C1804 C 0.20028 0.99015 0.28368 0.0
C1805 C 0.17244 0.97049 0.24698 0.0
C1806 C 0.21337 0.04051 0.28029 0.0
C1807 C 0.20254 0.04435 0.33749 0.0
N1808 N 0.1888 0.99144 0.25743 0.0
N1809 N 0.206 0.01894 0.32512 0.0
H1810 H 0.2057 0.85614 0.61352 0.0
H1811 H 0.32057 0.8335 0.55116 0.0
H1812 H 0.16174 0.84787 0.53443 0.0
H1813 H 0.27093 0.84967 0.47667 0.0
H1814 H 0.27993 0.81042 0.57248 0.0
H1815 H 0.2431 0.82635 0.59573 0.0
C1816 C 0.20375 0.84762 0.59247 0.0
C1817 C 0.18194 0.8563 0.57452 0.0
C1818 C 0.27778 0.81901 0.5515 0.0
C1819 C 0.22479 0.82235 0.55365 0.0
C1820 C 0.301 0.83228 0.53933 0.0
C1821 C 0.29821 0.84557 0.51309 0.0
C1822 C 0.2515 0.82043 0.53775 0.0
C1823 C 0.27335 0.84135 0.49775 0.0
C1824 C 0.2251 0.83021 0.58224 0.0
C1825 C 0.17943 0.84332 0.5482 0.0
N1826 N 0.25059 0.82984 0.51067 0.0
N1827 N 0.20108 0.82755 0.53821 0.0
H1828 H 0.29888 0.97122 0.85867 0.0
H1829 H 0.28151 0.0365 0.71927 0.0
H1830 H 0.2995 0.93051 0.77742 0.0
H1831 H 0.28367 0.07956 0.7992 0.0
H1832 H 0.25645 0.99757 0.74157 0.0
H1833 H 0.26509 0.00562 0.84049 0.0
C1834 C 0.29211 0.96967 0.83696 0.0
C1835 C 0.30376 0.94952 0.81881 0.0
C1836 C 0.26189 0.01584 0.75416 0.0
C1837 C 0.26515 0.98839 0.79806 0.0
C1838 C 0.27677 0.03774 0.74152 0.0
C1839 C 0.28725 0.05973 0.75814 0.0
C1840 C 0.25964 0.01532 0.78367 0.0
C1841 C 0.27825 0.06164 0.78616 0.0
C1842 C 0.27223 0.98879 0.8268 0.0
C1843 C 0.29259 0.94698 0.79162 0.0
N1844 N 0.26555 0.03922 0.79835 0.0
N1845 N 0.2743 0.96657 0.78189 0.0
H1846 H 0.19859 0.15483 0.96296 0.0
H1847 H 0.32818 0.15935 1.01587 0.0
H1848 H 0.16956 0.15346 0.04904 0.0
H1849 H 0.28798 0.15635 0.09735 0.0
H1850 H 0.28478 0.17712 0.99567 0.0
H1851 H 0.24274 0.17541 0.97837 0.0
C1852 C 0.2015 0.15909 0.98515 0.0
C1853 C 0.18122 0.1508 1.005 0.0
C1854 C 0.28513 0.1728 1.01796 0.0
C1855 C 0.232 0.17392 1.0231 0.0
C1856 C 0.31012 0.16249 1.02954 0.0
C1857 C 0.31107 0.15473 0.05798 0.0
C1858 C 0.26084 0.17463 1.03494 0.0
C1859 C 0.28771 0.16077 0.07501 0.0
C1860 C 0.22688 0.17094 0.99408 0.0
C1861 C 0.18535 0.15812 1.0332 0.0
N1862 N 0.2633 0.16972 0.06306 0.0
N1863 N 0.21059 0.16866 0.0415 0.0
H1864 H 0.78167 0.07758 0.77305 0.0
H1865 H 0.80419 0.9318 0.79601 0.0
H1866 H 0.77252 0.0329 0.85164 0.0
H1867 H 0.80819 0.97642 0.71675 0.0
H1868 H 0.76506 0.96114 0.81007 0.0
H1869 H 0.75643 0.03991 0.74946 0.0
C1870 C 0.77455 0.05971 0.78538 0.0
C1871 C 0.78238 0.05636 0.81367 0.0
C1872 C 0.77435 0.9646 0.78952 0.0
C1873 C 0.75542 0.01299 0.78649 0.0
C1874 C 0.7973 0.94825 0.78171 0.0
C1875 C 0.81083 0.95292 0.75583 0.0
C1876 C 0.76631 0.98745 0.77251 0.0
C1877 C 0.79955 0.97323 0.73759 0.0
C1878 C 0.75943 0.03851 0.77202 0.0
C1879 C 0.76982 0.03457 0.8291 0.0
N1880 N 0.77839 0.99029 0.74659 0.0
N1881 N 0.75717 0.01316 0.81512 0.0
H1882 H 0.7115 0.04165 0.60506 0.0
H1883 H 0.79041 0.05554 0.46579 0.0
H1884 H 0.67298 0.04343 0.52265 0.0
H1885 H 0.82802 0.05766 0.54862 0.0
H1886 H 0.75093 0.02874 0.48484 0.0
H1887 H 0.75487 0.02381 0.58408 0.0
C1888 C 0.7121 0.03813 0.58256 0.0
C1889 C 0.68948 0.04605 0.5652 0.0
C1890 C 0.76806 0.03468 0.49877 0.0
C1891 C 0.73884 0.02601 0.54122 0.0
C1892 C 0.79035 0.05041 0.488 0.0
C1893 C 0.81144 0.0605 0.50609 0.0
C1894 C 0.76657 0.02987 0.52788 0.0
C1895 C 0.81126 0.05178 0.53425 0.0
C1896 C 0.73674 0.02757 0.57063 0.0
C1897 C 0.69068 0.03935 0.53654 0.0
N1898 N 0.78873 0.03752 0.54447 0.0
N1899 N 0.71536 0.03047 0.52525 0.0
H1900 H 0.69868 0.03702 0.21443 0.0
H1901 H 0.68597 0.96177 0.3556 0.0
H1902 H 0.70267 0.07732 0.29581 0.0
H1903 H 0.68177 0.92238 0.27375 0.0
H1904 H 0.71345 1.00008 0.33513 0.0
H1905 H 0.71535 0.9934 0.2358 0.0
C1906 C 0.70311 0.03669 0.23679 0.0
C1907 C 0.69722 0.06001 0.25385 0.0
C1908 C 0.70687 0.98281 0.32174 0.0
C1909 C 0.7159 0.01047 0.27831 0.0
C1910 C 0.69073 0.96123 0.33333 0.0
C1911 C 0.67986 0.94004 0.31592 0.0
C1912 C 0.71137 0.98338 0.29253 0.0
C1913 C 0.6881 0.93936 0.2876 0.0
C1914 C 0.71305 0.01193 0.24892 0.0
C1915 C 0.70511 0.05914 0.28225 0.0
N1916 N 0.70287 0.96112 0.27664 0.0
N1917 N 0.7133 0.03441 0.29383 0.0
H1918 H 0.65999 0.84503 0.03802 0.0
H1919 H 0.81673 0.8418 1.02071 0.0
H1920 H 0.70626 0.8505 0.95995 0.0
H1921 H 0.76958 0.84352 0.09851 0.0
H1922 H 0.77784 0.81657 0.99862 0.0
H1923 H 0.69703 0.81486 0.05705 0.0
C1924 C 0.67787 0.83968 1.02479 0.0
C1925 C 0.68152 0.85222 0.99834 0.0
C1926 C 0.77625 0.82188 1.02072 0.0
C1927 C 0.72395 0.81857 1.02013 0.0
C1928 C 0.79824 0.83677 1.03322 0.0
C1929 C 0.79533 0.84667 0.06084 0.0
C1930 C 0.7509 0.81809 1.03567 0.0
C1931 C 0.77184 0.83795 0.07655 0.0
C1932 C 0.69879 0.82205 1.03548 0.0
C1933 C 0.70377 0.84288 0.98129 0.0
N1934 N 0.75012 0.82477 0.0635 0.0
N1935 N 0.72478 0.82727 0.99283 0.0
H1936 H 0.71649 0.57844 0.78336 0.0
H1937 H 0.70664 0.41661 0.80458 0.0
H1938 H 0.69234 0.53477 0.85953 0.0
H1939 H 0.70276 0.46176 0.72558 0.0
H1940 H 0.72827 0.45781 0.82625 0.0
H1941 H 0.73818 0.53515 0.76618 0.0
C1942 C 0.71582 0.55977 0.79653 0.0
C1943 C 0.70093 0.55946 0.82204 0.0
C1944 C 0.72325 0.45838 0.80402 0.0
C1945 C 0.72595 0.51044 0.80272 0.0
C1946 C 0.71041 0.43514 0.79174 0.0
C1947 C 0.70111 0.43664 0.76375 0.0
C1948 C 0.72613 0.48324 0.78828 0.0
C1949 C 0.70812 0.46038 0.74768 0.0
C1950 C 0.72869 0.53529 0.78693 0.0
C1951 C 0.70224 0.53536 0.83901 0.0
N1952 N 0.71964 0.48314 0.7604 0.0
N1953 N 0.71392 0.51146 0.8287 0.0
H1954 H 0.83745 0.44859 0.05114 0.0
H1955 H 0.72355 0.47049 0.11217 0.0
H1956 H 0.78858 0.44592 0.97437 0.0
H1957 H 0.68328 0.47474 1.03085 0.0
H1958 H 0.76585 0.49068 0.09196 0.0
H1959 H 0.80479 0.48226 0.07026 0.0
C1960 C 0.81931 0.45451 0.0385 0.0
C1961 C 0.81469 0.44289 1.01173 0.0
C1962 C 0.74795 0.48731 0.07826 0.0
C1963 C 0.7761 0.48099 1.03426 0.0
C1964 C 0.72368 0.47567 0.08997 0.0
C1965 C 0.70121 0.46813 0.07241 0.0
C1966 C 0.74989 0.48943 0.04874 0.0
C1967 C 0.70135 0.47771 0.04453 0.0
C1968 C 0.80066 0.4742 0.04943 0.0
C1969 C 0.79207 0.45307 0.99571 0.0
N1970 N 0.72581 0.48716 1.03323 0.0
N1971 N 0.77322 0.47105 1.00751 0.0
H1972 H 0.89795 0.5703 0.30025 0.0
H1973 H 0.92267 0.41572 0.28529 0.0
H1974 H 0.89254 0.51936 0.22516 0.0
H1975 H 0.9163 0.46241 0.36287 0.0
H1976 H 0.9444 0.45658 0.26315 0.0
H1977 H 0.93231 0.53738 0.31952 0.0
C1978 C 0.90377 0.552 0.28788 0.0
C1979 C 0.89087 0.54636 0.2619 0.0
C1980 C 0.93915 0.45764 0.28531 0.0
C1981 C 0.93039 0.50885 0.2838 0.0
C1982 C 0.92638 0.43442 0.29786 0.0
C1983 C 0.91521 0.43694 0.32505 0.0
C1984 C 0.93878 0.4835 0.29969 0.0
C1985 C 0.92257 0.46056 0.34105 0.0
C1986 C 0.92397 0.53363 0.29862 0.0
C1987 C 0.90074 0.52355 0.24601 0.0
N1988 N 0.93314 0.48355 0.3278 0.0
N1989 N 0.91941 0.50518 0.25754 0.0
H1990 H 0.72121 0.54697 0.47092 0.0
H1991 H 0.7923 0.54906 0.61169 0.0
H1992 H 0.6788 0.54276 0.55132 0.0
H1993 H 0.83488 0.54739 0.53129 0.0
H1994 H 0.75316 0.52299 0.591 0.0
H1995 H 0.76196 0.52347 0.49172 0.0
C1996 C 0.72051 0.54119 0.49296 0.0
C1997 C 0.69768 0.5489 0.51004 0.0
C1998 C 0.77131 0.52789 0.57798 0.0
C1999 C 0.74397 0.52227 0.5339 0.0
C2000 C 0.79341 0.54322 0.5897 0.0
C2001 C 0.81564 0.5524 0.57255 0.0
C2002 C 0.77116 0.52294 0.54882 0.0
C2003 C 0.81706 0.54257 0.54478 0.0
C2004 C 0.74354 0.52728 0.50474 0.0
C2005 C 0.69692 0.53911 0.53788 0.0
N2006 N 0.79469 0.52895 0.53353 0.0
N2007 N 0.72012 0.52692 0.54919 0.0
H2008 H 0.42088 0.586 0.28112 0.0
H2009 H 0.40695 0.42764 0.30075 0.0
H2010 H 0.40837 0.5425 0.35995 0.0
H2011 H 0.41081 0.47236 0.22168 0.0
H2012 H 0.43269 0.46602 0.32306 0.0
H2013 H 0.44391 0.54411 0.26235 0.0
C2014 C 0.42344 0.56775 0.29465 0.0
C2015 C 0.4109 0.56675 0.32135 0.0
C2016 C 0.42849 0.4672 0.30069 0.0
C2017 C 0.43654 0.51894 0.29991 0.0
C2018 C 0.4134 0.4455 0.28803 0.0
C2019 C 0.40527 0.44783 0.25976 0.0
C2020 C 0.43445 0.4917 0.28515 0.0
C2021 C 0.41553 0.47049 0.24389 0.0
C2022 C 0.43686 0.54394 0.28403 0.0
C2023 C 0.41634 0.54344 0.33862 0.0
N2024 N 0.42894 0.49205 0.25701 0.0
N2025 N 0.42797 0.51994 0.32726 0.0
H2026 H 0.33766 0.54034 0.03996 0.0
H2027 H 0.17752 0.5344 1.02828 0.0
H2028 H 0.28683 0.55348 0.96553 0.0
H2029 H 0.22793 0.55194 0.10204 0.0
H2030 H 0.21728 0.50953 1.00771 0.0
H2031 H 0.29989 0.51255 0.06033 0.0
C2032 C 0.31854 0.5373 1.02776 0.0
C2033 C 0.31441 0.55093 1.00181 0.0
C2034 C 0.21937 0.51812 1.02873 0.0
C2035 C 0.27123 0.5195 1.02536 0.0
C2036 C 0.19693 0.53289 0.04031 0.0
C2037 C 0.20032 0.54712 0.06601 0.0
C2038 C 0.24553 0.51871 0.04246 0.0
C2039 C 0.22512 0.5428 0.08138 0.0
C2040 C 0.29728 0.52086 0.03923 0.0
C2041 C 0.29011 0.54471 0.98631 0.0
N2042 N 0.24723 0.52957 0.06896 0.0
N2043 N 0.26889 0.53008 0.99875 0.0
H2044 H 0.20682 0.47007 0.85536 0.0
H2045 H 0.21267 0.54589 0.71517 0.0
H2046 H 0.21018 0.42972 0.77396 0.0
H2047 H 0.21374 0.58643 0.79653 0.0
H2048 H 0.23397 0.5042 0.73623 0.0
H2049 H 0.23091 0.51084 0.83555 0.0
C2050 C 0.21256 0.46981 0.83331 0.0
C2051 C 0.20464 0.44748 0.81574 0.0
C2052 C 0.22999 0.5224 0.74943 0.0
C2053 C 0.2321 0.4938 0.79303 0.0
C2054 C 0.21741 0.54603 0.73746 0.0
C2055 C 0.20943 0.56867 0.75461 0.0
C2056 C 0.23347 0.52124 0.77876 0.0
C2057 C 0.21775 0.56857 0.78291 0.0
C2058 C 0.22678 0.49287 0.8221 0.0
C2059 C 0.21421 0.44736 0.78784 0.0
N2060 N 0.22865 0.54481 0.79432 0.0
N2061 N 0.22685 0.47056 0.77713 0.0
H2062 H 0.22514 0.47604 0.46483 0.0
H2063 H 0.29411 0.46459 0.6063 0.0
H2064 H 0.18265 0.47847 0.54518 0.0
H2065 H 0.3348 0.45868 0.52513 0.0
H2066 H 0.25837 0.49531 0.58561 0.0
H2067 H 0.26641 0.49774 0.48642 0.0
C2068 C 0.22444 0.48125 0.48699 0.0
C2069 C 0.20163 0.47309 0.50391 0.0
C2070 C 0.27546 0.4877 0.57244 0.0
C2071 C 0.2486 0.49719 0.52863 0.0
C2072 C 0.2955 0.46967 0.58412 0.0
C2073 C 0.31611 0.45732 0.5669 0.0
C2074 C 0.27559 0.49244 0.54325 0.0
C2075 C 0.3181 0.46615 0.53881 0.0
C2076 C 0.24782 0.49408 0.49924 0.0
C2077 C 0.20086 0.48227 0.53191 0.0
N2078 N 0.29766 0.48269 0.52769 0.0
N2079 N 0.22448 0.49313 0.5437 0.0
H2080 H 0.08398 0.16298 0.0945 0.0
H2081 H 0.12598 0.09967 0.24499 0.0
H2082 H 0.10008 0.07447 0.10838 0.0
H2083 H 0.14003 0.18705 0.22377 0.0
H2084 H 0.11049 0.09072 0.19683 0.0
H2085 H 0.0977 0.17265 0.14334 0.0
C2086 C 0.0899 0.14548 0.10796 0.0
C2087 C 0.09064 0.11779 0.09731 0.0
C2088 C 0.11696 0.11187 0.20259 0.0
C2089 C 0.10664 0.12884 0.15336 0.0
C2090 C 0.12579 0.11707 0.23017 0.0
C2091 C 0.13438 0.14421 0.23853 0.0
C2092 C 0.11617 0.13403 0.183 0.0
C2093 C 0.1337 0.16581 0.21826 0.0
C2094 C 0.09802 0.1511 0.13578 0.0
C2095 C 0.09893 0.09607 0.11569 0.0
N2096 N 0.12457 0.16031 0.19149 0.0
N2097 N 0.10652 0.10204 0.14276 0.0
H2098 H 0.05942 0.88822 0.48121 0.0
H2099 H 0.16589 0.86348 0.35259 0.0
H2100 H 0.14104 0.92845 0.47571 0.0
H2101 H 0.07555 0.85615 0.34248 0.0
H2102 H 0.15844 0.88015 0.40096 0.0
H2103 H 0.06561 0.87062 0.43288 0.0
C2104 C 0.07843 0.8937 0.46971 0.0
C2105 C 0.09961 0.91007 0.48246 0.0
C2106 C 0.14025 0.87464 0.38823 0.0
C2107 C 0.1073 0.88913 0.42759 0.0
C2108 C 0.14452 0.8648 0.36074 0.0
C2109 C 0.12131 0.85824 0.34353 0.0
C2110 C 0.11258 0.87756 0.39881 0.0
C2111 C 0.09404 0.86085 0.35508 0.0
C2112 C 0.08203 0.88351 0.44221 0.0
C2113 C 0.12401 0.91616 0.46667 0.0
N2114 N 0.09042 0.87021 0.38196 0.0
N2115 N 0.12732 0.90546 0.44027 0.0
H2116 H 0.3626 0.82589 0.72891 0.0
H2117 H 0.39598 0.93116 0.60221 0.0
H2118 H 0.38888 0.91213 0.74151 0.0
H2119 H 0.40505 0.84104 0.59327 0.0
H2120 H 0.38994 0.92479 0.65306 0.0
H2121 H 0.37403 0.8308 0.67846 0.0
C2122 C 0.3708 0.84576 0.72109 0.0
C2123 C 0.37481 0.86861 0.73939 0.0
C2124 C 0.39361 0.90642 0.64002 0.0
C2125 C 0.38756 0.8745 0.68201 0.0
C2126 C 0.39721 0.91009 0.61103 0.0
C2127 C 0.40128 0.88664 0.59356 0.0
C2128 C 0.39343 0.87904 0.65156 0.0
C2129 C 0.40225 0.85973 0.60605 0.0
C2130 C 0.37741 0.84854 0.6924 0.0
C2131 C 0.38549 0.89392 0.72819 0.0
N2132 N 0.39799 0.85661 0.63422 0.0
N2133 N 0.39125 0.89625 0.7003 0.0
H2134 H 0.36106 0.18021 0.84494 0.0
H2135 H 0.4039 0.07473 0.96953 0.0
H2136 H 0.37718 0.09155 0.83214 0.0
H2137 H 0.41624 0.1647 0.97551 0.0
H2138 H 0.39175 0.08042 0.91967 0.0
H2139 H 0.37802 0.17527 0.89379 0.0
C2140 C 0.36812 0.15977 0.8524 0.0
C2141 C 0.36771 0.13628 0.83446 0.0
C2142 C 0.39747 0.0989 0.93179 0.0
C2143 C 0.38692 0.13039 0.89015 0.0
C2144 C 0.40459 0.09561 0.96021 0.0
C2145 C 0.41135 0.11922 0.97665 0.0
C2146 C 0.39652 0.12608 0.91979 0.0
C2147 C 0.41144 0.14587 0.96355 0.0
C2148 C 0.37791 0.15696 0.88019 0.0
C2149 C 0.37716 0.11026 0.84519 0.0
N2150 N 0.40381 0.14862 0.93603 0.0
N2151 N 0.38617 0.10798 0.87226 0.0
H2152 H 0.82852 0.87258 0.84793 0.0
H2153 H 0.92761 0.85837 0.98325 0.0
H2154 H 0.9157 0.8471 0.83906 0.0
H2155 H 0.85645 0.91511 0.97738 0.0
H2156 H 0.92266 0.84813 0.93257 0.0
H2157 H 0.83643 0.88055 0.89796 0.0
C2158 C 0.84928 0.86821 0.8566 0.0
C2159 C 0.87149 0.85917 0.8392 0.0
C2160 C 0.90835 0.86299 0.94242 0.0
C2161 C 0.8808 0.86858 0.89683 0.0
C2162 C 0.91123 0.86894 0.97126 0.0
C2163 C 0.89247 0.88771 0.98456 0.0
C2164 C 0.88619 0.87545 0.92701 0.0
C2165 C 0.87146 0.90059 0.96807 0.0
C2166 C 0.85385 0.87304 0.88519 0.0
C2167 C 0.89797 0.85399 0.85173 0.0
N2168 N 0.86872 0.89401 0.94037 0.0
N2169 N 0.90193 0.85879 0.87982 0.0
H2170 H 0.83725 0.17292 0.72637 0.0
H2171 H 0.92158 0.09078 0.60384 0.0
H2172 H 0.88977 0.09987 0.7409 0.0
H2173 H 0.86287 0.15878 0.58844 0.0
H2174 H 0.91372 0.09653 0.65468 0.0
H2175 H 0.84961 0.17086 0.67614 0.0
C2176 C 0.8515 0.1566 0.71902 0.0
C2177 C 0.86241 0.13651 0.7378 0.0
C2178 C 0.9027 0.11033 0.64016 0.0
C2179 C 0.87668 0.13391 0.68046 0.0
C2180 C 0.90731 0.10709 0.61117 0.0
C2181 C 0.89283 0.12427 0.59191 0.0
C2182 C 0.88353 0.13094 0.64992 0.0
C2183 C 0.87443 0.145 0.60255 0.0
C2184 C 0.85854 0.15536 0.69036 0.0
C2185 C 0.88077 0.11575 0.72714 0.0
N2186 N 0.87025 0.14769 0.63072 0.0
N2187 N 0.88726 0.11495 0.69928 0.0
H2188 H 0.57708 0.08419 0.46528 0.0
H2189 H 0.66983 0.17173 0.35185 0.0
H2190 H 0.64401 0.1417 0.48766 0.0
H2191 H 0.60379 0.11346 0.32886 0.0
H2192 H 0.65943 0.16242 0.40177 0.0
H2193 H 0.58515 0.09573 0.41531 0.0
C2194 C 0.59332 0.09933 0.45974 0.0
C2195 C 0.60983 0.11197 0.4808 0.0
C2196 C 0.64709 0.15176 0.38581 0.0
C2197 C 0.61936 0.1253 0.42355 0.0
C2198 C 0.65301 0.15719 0.35727 0.0
C2199 C 0.63766 0.14345 0.33604 0.0
C2200 C 0.62566 0.13241 0.3933 0.0
C2201 C 0.61619 0.12461 0.34444 0.0
C2202 C 0.598 0.10591 0.43118 0.0
C2203 C 0.63071 0.13138 0.47224 0.0
N2204 N 0.6109 0.11963 0.37222 0.0
N2205 N 0.63487 0.13737 0.44449 0.0
H2206 H 0.64229 0.92994 0.09365 0.0
H2207 H 0.58229 0.84362 0.22665 0.0
H2208 H 0.56413 0.88319 0.09048 0.0
H2209 H 0.66588 0.87974 0.22264 0.0
H2210 H 0.5738 0.85916 0.17797 0.0
H2211 H 0.64912 0.91448 0.14223 0.0
C2212 C 0.62629 0.91674 0.10332 0.0
C2213 C 0.60252 0.90797 0.08788 0.0
C2214 C 0.59407 0.86351 0.18766 0.0
C2215 C 0.61049 0.88965 0.14382 0.0
C2216 C 0.59899 0.85448 0.21542 0.0
C2217 C 0.62492 0.86019 0.22875 0.0
C2218 C 0.61511 0.87867 0.17313 0.0
C2219 C 0.64565 0.87466 0.21321 0.0
C2220 C 0.63034 0.90769 0.13108 0.0
C2221 C 0.58267 0.89065 0.1016 0.0
N2222 N 0.64025 0.88349 0.18643 0.0
N2223 N 0.58712 0.882 0.1287 0.0
H2224 H 0.67195 0.67254 0.72143 0.0
H2225 H 0.58355 0.58232 0.60763 0.0
H2226 H 0.608 0.6115 0.74343 0.0
H2227 H 0.64601 0.64483 0.5855 0.0
H2228 H 0.59082 0.59395 0.65756 0.0
H2229 H 0.66152 0.66415 0.67139 0.0
C2230 C 0.6556 0.65759 0.71575 0.0
C2231 C 0.64087 0.64271 0.73663 0.0
C2232 C 0.60283 0.60523 0.64175 0.0
C2233 C 0.62889 0.63278 0.67951 0.0
C2234 C 0.5986 0.5986 0.61326 0.0
C2235 C 0.61418 0.61259 0.59238 0.0
C2236 C 0.62283 0.62596 0.64939 0.0
C2237 C 0.63354 0.63346 0.60088 0.0
C2238 C 0.64966 0.65271 0.6872 0.0
C2239 C 0.61994 0.62344 0.72805 0.0
N2240 N 0.63737 0.63941 0.62861 0.0
N2241 N 0.61467 0.61897 0.70028 0.0
H2242 H 0.60789 0.38705 0.83649 0.0
H2243 H 0.63196 0.3407 0.99668 0.0
H2244 H 0.66593 0.32019 0.85826 0.0
H2245 H 0.60227 0.42295 0.97135 0.0
H2246 H 0.63794 0.32802 0.9468 0.0
H2247 H 0.59892 0.39524 0.88618 0.0
C2248 C 0.61866 0.37388 0.85175 0.0
C2249 C 0.63782 0.35293 0.84307 0.0
C2250 C 0.62992 0.34874 0.9522 0.0
C2251 C 0.62746 0.36234 0.90059 0.0
C2252 C 0.62626 0.35592 0.98063 0.0
C2253 C 0.61645 0.38291 0.98818 0.0
C2254 C 0.62327 0.36852 0.93116 0.0
C2255 C 0.60977 0.4019 0.96652 0.0
C2256 C 0.61356 0.37869 0.88023 0.0
C2257 C 0.65102 0.33657 0.86399 0.0
N2258 N 0.61321 0.39433 0.9391 0.0
N2259 N 0.64561 0.34161 0.89183 0.0
H2260 H 0.90539 0.4247 0.10476 0.0
H2261 H 0.86825 0.31666 0.22967 0.0
H2262 H 0.88901 0.33651 0.08968 0.0
H2263 H 0.85106 0.40596 0.23406 0.0
H2264 H 0.88238 0.32267 0.18011 0.0
H2265 H 0.89342 0.41751 0.15468 0.0
C2266 C 0.89985 0.40374 0.11207 0.0
C2267 C 0.89829 0.38115 0.09311 0.0
C2268 C 0.87536 0.34089 0.19195 0.0
C2269 C 0.88441 0.37276 0.15002 0.0
C2270 C 0.86715 0.33742 0.22016 0.0
C2271 C 0.85823 0.36077 0.23599 0.0
C2272 C 0.87523 0.36799 0.17971 0.0
C2273 C 0.85757 0.3873 0.22264 0.0
C2274 C 0.89273 0.39969 0.14046 0.0
C2275 C 0.89052 0.3545 0.10363 0.0
N2276 N 0.86617 0.39021 0.19547 0.0
N2277 N 0.88394 0.35102 0.13131 0.0
H2278 H 0.91502 0.63413 0.33656 0.0
H2279 H 0.84976 0.63735 0.49171 0.0
H2280 H 0.82652 0.6482 0.35369 0.0
H2281 H 0.93196 0.60199 0.47396 0.0
H2282 H 0.84294 0.64641 0.44176 0.0
H2283 H 0.92352 0.62771 0.38698 0.0
C2284 C 0.89741 0.63626 0.35099 0.0
C2285 C 0.87 0.64183 0.34092 0.0
C2286 C 0.8625 0.63668 0.44866 0.0
C2287 C 0.87962 0.63429 0.39872 0.0
C2288 C 0.86649 0.63152 0.47726 0.0
C2289 C 0.89151 0.61884 0.48707 0.0
C2290 C 0.88376 0.62936 0.42945 0.0
C2291 C 0.91236 0.61176 0.46729 0.0
C2292 C 0.90229 0.63237 0.37976 0.0
C2293 C 0.84799 0.64408 0.36055 0.0
N2294 N 0.90805 0.61718 0.43938 0.0
N2295 N 0.85328 0.64031 0.38849 0.0
H2296 H 0.32777 0.35065 0.34938 0.0
H2297 H 0.43394 0.39729 0.47255 0.0
H2298 H 0.41761 0.35991 0.33653 0.0
H2299 H 0.3493 0.36673 0.48737 0.0
H2300 H 0.4283 0.38598 0.42226 0.0
H2301 H 0.33496 0.35812 0.39994 0.0
C2302 C 0.34904 0.35385 0.35727 0.0
C2303 C 0.37212 0.35448 0.33877 0.0
C2304 C 0.41103 0.38167 0.4366 0.0
C2305 C 0.38053 0.36374 0.3965 0.0
C2306 C 0.41426 0.38819 0.46524 0.0
C2307 C 0.39209 0.38293 0.48414 0.0
C2308 C 0.38535 0.37013 0.42684 0.0
C2309 C 0.36698 0.37111 0.47356 0.0
C2310 C 0.35316 0.35825 0.38611 0.0
C2311 C 0.39923 0.35906 0.35009 0.0
N2312 N 0.36426 0.36527 0.44572 0.0
N2313 N 0.40266 0.36375 0.37813 0.0
H2314 H 0.39059 0.68623 0.22729 0.0
H2315 H 0.38173 0.57847 0.09876 0.0
H2316 H 0.3305 0.61794 0.22271 0.0
H2317 H 0.41337 0.66298 0.08659 0.0
H2318 H 0.36922 0.59052 0.14709 0.0
H2319 H 0.4039 0.67711 0.178 0.0
C2320 C 0.37986 0.66966 0.21579 0.0
C2321 C 0.35929 0.65292 0.22912 0.0
C2322 C 0.37904 0.60644 0.13396 0.0
C2323 C 0.37508 0.64179 0.17317 0.0
C2324 C 0.38648 0.59949 0.10639 0.0
C2325 C 0.39866 0.61974 0.08854 0.0
C2326 C 0.38407 0.63381 0.14412 0.0
C2327 C 0.40412 0.64669 0.09966 0.0
C2328 C 0.38759 0.66438 0.18775 0.0
C2329 C 0.34633 0.6315 0.2133 0.0
N2330 N 0.39681 0.65297 0.12676 0.0
N2331 N 0.35466 0.62636 0.18639 0.0
H2332 H 0.10952 0.62393 0.83052 0.0
H2333 H 0.1601 0.6465 0.98958 0.0
H2334 H 0.18058 0.6762 0.85325 0.0
H2335 H 0.08901 0.59437 0.96662 0.0
H2336 H 0.16647 0.65934 0.94028 0.0
H2337 H 0.10025 0.61506 0.88019 0.0
C2338 C 0.1231 0.63376 0.84603 0.0
C2339 C 0.14592 0.65084 0.83769 0.0
C2340 C 0.14939 0.64519 0.94592 0.0
C2341 C 0.13547 0.64048 0.89496 0.0
C2342 C 0.1457 0.6378 0.97413 0.0
C2343 C 0.12398 0.61925 0.98226 0.0
C2344 C 0.13127 0.63394 0.92544 0.0
C2345 C 0.10601 0.60872 0.96129 0.0
C2346 C 0.11778 0.62861 0.87446 0.0
C2347 C 0.16272 0.66299 0.85875 0.0
N2348 N 0.11012 0.61614 0.93384 0.0
N2349 N 0.15726 0.65744 0.88642 0.0
H2350 H 0.17889 0.3385 0.71678 0.0
H2351 H 0.08805 0.42468 0.60154 0.0
H2352 H 0.10855 0.39273 0.73731 0.0
H2353 H 0.15899 0.3712 0.58108 0.0
H2354 H 0.09358 0.41138 0.6513 0.0
H2355 H 0.17031 0.34799 0.66658 0.0
C2356 C 0.1615 0.35213 0.71071 0.0
C2357 C 0.14445 0.36486 0.73121 0.0
C2358 C 0.10786 0.40247 0.63588 0.0
C2359 C 0.13459 0.37606 0.674 0.0
C2360 C 0.10466 0.41007 0.6075 0.0
C2361 C 0.1231 0.3991 0.58719 0.0
C2362 C 0.12967 0.38377 0.64393 0.0
C2363 C 0.14432 0.38024 0.59606 0.0
C2364 C 0.15664 0.35766 0.6821 0.0
C2365 C 0.12228 0.38251 0.72221 0.0
N2366 N 0.14706 0.37326 0.62367 0.0
N2367 N 0.11807 0.38766 0.69439 0.0
loop_
_geom_bond_atom_site_label_1
_geom_bond_atom_site_label_2
_geom_bond_distance
_geom_bond_site_symmetry_2
_ccdc_geom_bond_type
Tb0 O3 2.453 . S
Tb0 O4 2.596 . S
Tb0 O5 2.374 . S
Tb0 O13 2.343 . S
Tb0 O15 2.353 . S
Tb0 O17 2.427 . S
Tb0 O18 2.513 . S
C1 O5 1.251 . S
C1 O7 1.263 . S
Tb2 O4 2.343 . S
Tb2 O7 2.353 . S
Tb2 O10 2.427 . S
Tb2 O11 2.513 . S
Tb2 O12 2.453 . S
Tb2 O13 2.596 . S
Tb2 O14 2.374 . S
O3 Tb0 2.453 . S
O3 C19 1.245 . S
O4 Tb0 2.596 . S
O4 Tb2 2.343 . S
O4 C19 1.259 . S
O5 Tb0 2.374 . S
O5 C1 1.251 . S
C6 O10 1.275 . S
C6 O11 1.246 . S
O7 C1 1.263 . S
O7 Tb2 2.353 . S
C8 O12 1.245 . S
C8 O13 1.259 . S
C9 O14 1.250 . S
C9 O15 1.263 . S
O10 Tb2 2.427 . S
O10 C6 1.275 . S
O11 Tb2 2.513 . S
O11 C6 1.246 . S
O12 Tb2 2.453 . S
O12 C8 1.245 . S
O13 Tb0 2.343 . S
O13 Tb2 2.596 . S
O13 C8 1.259 . S
O14 Tb2 2.374 . S
O14 C9 1.250 . S
O15 Tb0 2.353 . S
O15 C9 1.263 . S
C16 O17 1.275 . S
C16 O18 1.246 . S
O17 Tb0 2.427 . S
O17 C16 1.275 . S
O18 Tb0 2.513 . S
O18 C16 1.246 . S
C19 O3 1.245 . S
C19 O4 1.259 . S
Tb20 O23 2.453 . S
Tb20 O24 2.596 . S
Tb20 O25 2.374 . S
Tb20 O33 2.343 . S
Tb20 O35 2.353 . S
Tb20 O37 2.427 . S
Tb20 O38 2.513 . S
C21 O25 1.251 . S
C21 O27 1.263 . S
Tb22 O24 2.343 . S
Tb22 O27 2.353 . S
Tb22 O30 2.427 . S
Tb22 O31 2.513 . S
Tb22 O32 2.453 . S
Tb22 O33 2.596 . S
Tb22 O34 2.374 . S
O23 Tb20 2.453 . S
O23 C39 1.245 . S
O24 Tb20 2.596 . S
O24 Tb22 2.343 . S
O24 C39 1.259 . S
O25 Tb20 2.374 . S
O25 C21 1.251 . S
C26 O30 1.275 . S
C26 O31 1.246 . S
O27 C21 1.263 . S
O27 Tb22 2.353 . S
C28 O32 1.245 . S
C28 O33 1.259 . S
C29 O34 1.250 . S
C29 O35 1.263 . S
O30 Tb22 2.427 . S
O30 C26 1.275 . S
O31 Tb22 2.513 . S
O31 C26 1.246 . S
O32 Tb22 2.453 . S
O32 C28 1.245 . S
O33 Tb20 2.343 . S
O33 Tb22 2.596 . S
O33 C28 1.259 . S
O34 Tb22 2.374 . S
O34 C29 1.250 . S
O35 Tb20 2.353 . S
O35 C29 1.263 . S
C36 O37 1.275 . S
C36 O38 1.246 . S
O37 Tb20 2.427 . S
O37 C36 1.275 . S
O38 Tb20 2.513 . S
O38 C36 1.246 . S
C39 O23 1.245 . S
C39 O24 1.259 . S
Tb40 O43 2.453 . S
Tb40 O44 2.596 . S
Tb40 O45 2.374 . S
Tb40 O53 2.343 . S
Tb40 O55 2.353 . S
Tb40 O57 2.427 . S
Tb40 O58 2.513 . S
C41 O45 1.251 . S
C41 O47 1.263 . S
Tb42 O44 2.343 . S
Tb42 O47 2.353 . S
Tb42 O50 2.427 . S
Tb42 O51 2.513 . S
Tb42 O52 2.453 . S
Tb42 O53 2.596 . S
Tb42 O54 2.374 . S
O43 Tb40 2.453 . S
O43 C59 1.245 . S
O44 Tb40 2.596 . S
O44 Tb42 2.343 . S
O44 C59 1.259 . S
O45 Tb40 2.374 . S
O45 C41 1.251 . S
C46 O50 1.275 . S
C46 O51 1.246 . S
O47 C41 1.263 . S
O47 Tb42 2.353 . S
C48 O52 1.245 . S
C48 O53 1.259 . S
C49 O54 1.250 . S
C49 O55 1.263 . S
O50 Tb42 2.427 . S
O50 C46 1.275 . S
O51 Tb42 2.513 . S
O51 C46 1.246 . S
O52 Tb42 2.453 . S
O52 C48 1.245 . S
O53 Tb40 2.343 . S
O53 Tb42 2.596 . S
O53 C48 1.259 . S
O54 Tb42 2.374 . S
O54 C49 1.250 . S
O55 Tb40 2.353 . S
O55 C49 1.263 . S
C56 O57 1.275 . S
C56 O58 1.246 . S
O57 Tb40 2.427 . S
O57 C56 1.275 . S
O58 Tb40 2.513 . S
O58 C56 1.246 . S
C59 O43 1.245 . S
C59 O44 1.259 . S
Tb60 O63 2.453 . S
Tb60 O64 2.596 . S
Tb60 O65 2.374 . S
Tb60 O73 2.343 . S
Tb60 O75 2.353 . S
Tb60 O77 2.427 1_554 S
Tb60 O78 2.513 1_554 S
C61 O65 1.251 . S
C61 O67 1.263 . S
Tb62 O64 2.343 . S
Tb62 O67 2.353 . S
Tb62 O70 2.427 . S
Tb62 O71 2.513 . S
Tb62 O72 2.453 . S
Tb62 O73 2.596 . S
Tb62 O74 2.374 . S
O63 Tb60 2.453 . S
O63 C79 1.245 . S
O64 Tb60 2.596 . S
O64 Tb62 2.343 . S
O64 C79 1.259 . S
O65 Tb60 2.374 . S
O65 C61 1.251 . S
C66 O70 1.275 . S
C66 O71 1.246 . S
O67 C61 1.263 . S
O67 Tb62 2.353 . S
C68 O72 1.245 . S
C68 O73 1.259 . S
C69 O74 1.250 . S
C69 O75 1.263 . S
O70 Tb62 2.427 . S
O70 C66 1.275 . S
O71 Tb62 2.513 . S
O71 C66 1.246 . S
O72 Tb62 2.453 . S
O72 C68 1.245 . S
O73 Tb60 2.343 . S
O73 Tb62 2.596 . S
O73 C68 1.259 . S
O74 Tb62 2.374 . S
O74 C69 1.250 . S
O75 Tb60 2.353 . S
O75 C69 1.263 . S
C76 O77 1.275 . S
C76 O78 1.246 . S
O77 Tb60 2.427 1_556 S
O77 C76 1.275 . S
O78 Tb60 2.513 1_556 S
O78 C76 1.246 . S
C79 O63 1.245 . S
C79 O64 1.259 . S
Tb80 O83 2.453 . S
Tb80 O84 2.596 . S
Tb80 O85 2.374 . S
Tb80 O93 2.343 . S
Tb80 O95 2.353 . S
Tb80 O97 2.427 . S
Tb80 O98 2.513 . S
C81 O85 1.251 . S
C81 O87 1.263 . S
Tb82 O84 2.343 . S
Tb82 O87 2.353 . S
Tb82 O90 2.427 . S
Tb82 O91 2.513 . S
Tb82 O92 2.453 . S
Tb82 O93 2.596 . S
Tb82 O94 2.374 . S
O83 Tb80 2.453 . S
O83 C99 1.245 . S
O84 Tb80 2.596 . S
O84 Tb82 2.343 . S
O84 C99 1.259 . S
O85 Tb80 2.374 . S
O85 C81 1.251 . S
C86 O90 1.275 . S
C86 O91 1.246 . S
O87 C81 1.263 . S
O87 Tb82 2.353 . S
C88 O92 1.245 . S
C88 O93 1.259 . S
C89 O94 1.250 . S
C89 O95 1.263 . S
O90 Tb82 2.427 . S
O90 C86 1.275 . S
O91 Tb82 2.513 . S
O91 C86 1.246 . S
O92 Tb82 2.453 . S
O92 C88 1.245 . S
O93 Tb80 2.343 . S
O93 Tb82 2.596 . S
O93 C88 1.259 . S
O94 Tb82 2.374 . S
O94 C89 1.250 . S
O95 Tb80 2.353 . S
O95 C89 1.263 . S
C96 O97 1.275 . S
C96 O98 1.246 . S
O97 Tb80 2.427 . S
O97 C96 1.275 . S
O98 Tb80 2.513 . S
O98 C96 1.246 . S
C99 O83 1.245 . S
C99 O84 1.259 . S
Tb100 O103 2.453 . S
Tb100 O104 2.596 . S
Tb100 O105 2.374 . S
Tb100 O113 2.343 . S
Tb100 O115 2.353 . S
Tb100 O117 2.427 . S
Tb100 O118 2.513 . S
C101 O105 1.251 . S
C101 O107 1.263 . S
Tb102 O104 2.343 . S
Tb102 O107 2.353 . S
Tb102 O110 2.427 . S
Tb102 O111 2.513 . S
Tb102 O112 2.453 . S
Tb102 O113 2.596 . S
Tb102 O114 2.374 . S
O103 Tb100 2.453 . S
O103 C119 1.245 . S
O104 Tb100 2.596 . S
O104 Tb102 2.343 . S
O104 C119 1.259 . S
O105 Tb100 2.374 . S
O105 C101 1.251 . S
C106 O110 1.275 . S
C106 O111 1.246 . S
O107 C101 1.263 . S
O107 Tb102 2.353 . S
C108 O112 1.245 . S
C108 O113 1.259 . S
C109 O114 1.250 . S
C109 O115 1.263 . S
O110 Tb102 2.427 . S
O110 C106 1.275 . S
O111 Tb102 2.513 . S
O111 C106 1.246 . S
O112 Tb102 2.453 . S
O112 C108 1.245 . S
O113 Tb100 2.343 . S
O113 Tb102 2.596 . S
O113 C108 1.259 . S
O114 Tb102 2.374 . S
O114 C109 1.250 . S
O115 Tb100 2.353 . S
O115 C109 1.263 . S
C116 O117 1.275 . S
C116 O118 1.246 . S
O117 Tb100 2.427 . S
O117 C116 1.275 . S
O118 Tb100 2.513 . S
O118 C116 1.246 . S
C119 O103 1.245 . S
C119 O104 1.259 . S
Tb120 O123 2.453 . S
Tb120 O124 2.596 . S
Tb120 O125 2.374 . S
Tb120 O133 2.343 . S
Tb120 O135 2.353 . S
Tb120 O137 2.427 . S
Tb120 O138 2.513 . S
C121 O125 1.251 . S
C121 O127 1.263 . S
Tb122 O124 2.343 . S
Tb122 O127 2.353 . S
Tb122 O130 2.427 . S
Tb122 O131 2.513 . S
Tb122 O132 2.453 . S
Tb122 O133 2.596 . S
Tb122 O134 2.374 . S
O123 Tb120 2.453 . S
O123 C139 1.245 . S
O124 Tb120 2.596 . S
O124 Tb122 2.343 . S
O124 C139 1.259 . S
O125 Tb120 2.374 . S
O125 C121 1.251 . S
C126 O130 1.275 . S
C126 O131 1.246 . S
O127 C121 1.263 . S
O127 Tb122 2.353 . S
C128 O132 1.245 . S
C128 O133 1.259 . S
C129 O134 1.250 . S
C129 O135 1.263 . S
O130 Tb122 2.427 . S
O130 C126 1.275 . S
O131 Tb122 2.513 . S
O131 C126 1.246 . S
O132 Tb122 2.453 . S
O132 C128 1.245 . S
O133 Tb120 2.343 . S
O133 Tb122 2.596 . S
O133 C128 1.259 . S
O134 Tb122 2.374 . S
O134 C129 1.250 . S
O135 Tb120 2.353 . S
O135 C129 1.263 . S
C136 O137 1.275 . S
C136 O138 1.246 . S
O137 Tb120 2.427 . S
O137 C136 1.275 . S
O138 Tb120 2.513 . S
O138 C136 1.246 . S
C139 O123 1.245 . S
C139 O124 1.259 . S
Tb140 O143 2.453 . S
Tb140 O144 2.596 . S
Tb140 O145 2.374 . S
Tb140 O153 2.343 . S
Tb140 O155 2.353 . S
Tb140 O157 2.427 1_556 S
Tb140 O158 2.513 1_556 S
C141 O145 1.251 . S
C141 O147 1.263 . S
Tb142 O144 2.343 . S
Tb142 O147 2.353 . S
Tb142 O150 2.427 . S
Tb142 O151 2.513 . S
Tb142 O152 2.453 . S
Tb142 O153 2.596 . S
Tb142 O154 2.374 . S
O143 Tb140 2.453 . S
O143 C159 1.245 . S
O144 Tb140 2.596 . S
O144 Tb142 2.343 . S
O144 C159 1.259 . S
O145 Tb140 2.374 . S
O145 C141 1.251 . S
C146 O150 1.275 . S
C146 O151 1.246 . S
O147 C141 1.263 . S
O147 Tb142 2.353 . S
C148 O152 1.245 . S
C148 O153 1.259 . S
C149 O154 1.250 . S
C149 O155 1.263 . S
O150 Tb142 2.427 . S
O150 C146 1.275 . S
O151 Tb142 2.513 . S
O151 C146 1.246 . S
O152 Tb142 2.453 . S
O152 C148 1.245 . S
O153 Tb140 2.343 . S
O153 Tb142 2.596 . S
O153 C148 1.259 . S
O154 Tb142 2.374 . S
O154 C149 1.250 . S
O155 Tb140 2.353 . S
O155 C149 1.263 . S
C156 O157 1.275 . S
C156 O158 1.246 . S
O157 Tb140 2.427 1_554 S
O157 C156 1.275 . S
O158 Tb140 2.513 1_554 S
O158 C156 1.246 . S
C159 O143 1.245 . S
C159 O144 1.259 . S
Tb160 O163 2.453 . S
Tb160 O164 2.596 . S
Tb160 O165 2.374 . S
Tb160 O173 2.343 . S
Tb160 O175 2.353 . S
Tb160 O177 2.427 . S
Tb160 O178 2.513 . S
C161 O165 1.251 . S
C161 O167 1.263 . S
Tb162 O164 2.343 . S
Tb162 O167 2.353 . S
Tb162 O170 2.427 . S
Tb162 O171 2.513 . S
Tb162 O172 2.453 . S
Tb162 O173 2.596 . S
Tb162 O174 2.374 . S
O163 Tb160 2.453 . S
O163 C179 1.245 . S
O164 Tb160 2.596 . S
O164 Tb162 2.343 . S
O164 C179 1.259 . S
O165 Tb160 2.374 . S
O165 C161 1.251 . S
C166 O170 1.275 . S
C166 O171 1.246 . S
O167 C161 1.263 . S
O167 Tb162 2.353 . S
C168 O172 1.245 . S
C168 O173 1.259 . S
C169 O174 1.250 . S
C169 O175 1.263 . S
O170 Tb162 2.427 . S
O170 C166 1.275 . S
O171 Tb162 2.513 . S
O171 C166 1.246 . S
O172 Tb162 2.453 . S
O172 C168 1.245 . S
O173 Tb160 2.343 . S
O173 Tb162 2.596 . S
O173 C168 1.259 . S
O174 Tb162 2.374 . S
O174 C169 1.250 . S
O175 Tb160 2.353 . S
O175 C169 1.263 . S
C176 O177 1.275 . S
C176 O178 1.246 . S
O177 Tb160 2.427 . S
O177 C176 1.275 . S
O178 Tb160 2.513 . S
O178 C176 1.246 . S
C179 O163 1.245 . S
C179 O164 1.259 . S
Tb180 O183 2.453 . S
Tb180 O184 2.596 . S
Tb180 O185 2.374 . S
Tb180 O193 2.343 . S
Tb180 O195 2.353 . S
Tb180 O197 2.427 . S
Tb180 O198 2.513 . S
C181 O185 1.251 . S
C181 O187 1.263 . S
Tb182 O184 2.343 . S
Tb182 O187 2.353 . S
Tb182 O190 2.427 . S
Tb182 O191 2.513 . S
Tb182 O192 2.453 . S
Tb182 O193 2.596 . S
Tb182 O194 2.374 . S
O183 Tb180 2.453 . S
O183 C199 1.245 . S
O184 Tb180 2.596 . S
O184 Tb182 2.343 . S
O184 C199 1.259 . S
O185 Tb180 2.374 . S
O185 C181 1.251 . S
C186 O190 1.275 . S
C186 O191 1.246 . S
O187 C181 1.263 . S
O187 Tb182 2.353 . S
C188 O192 1.245 . S
C188 O193 1.259 . S
C189 O194 1.250 . S
C189 O195 1.263 . S
O190 Tb182 2.427 . S
O190 C186 1.275 . S
O191 Tb182 2.513 . S
O191 C186 1.246 . S
O192 Tb182 2.453 . S
O192 C188 1.245 . S
O193 Tb180 2.343 . S
O193 Tb182 2.596 . S
O193 C188 1.259 . S
O194 Tb182 2.374 . S
O194 C189 1.250 . S
O195 Tb180 2.353 . S
O195 C189 1.263 . S
C196 O197 1.275 . S
C196 O198 1.246 . S
O197 Tb180 2.427 . S
O197 C196 1.275 . S
O198 Tb180 2.513 . S
O198 C196 1.246 . S
C199 O183 1.245 . S
C199 O184 1.259 . S
Tb200 O203 2.453 . S
Tb200 O204 2.596 . S
Tb200 O205 2.374 . S
Tb200 O213 2.343 . S
Tb200 O215 2.353 . S
Tb200 O217 2.427 . S
Tb200 O218 2.513 . S
C201 O205 1.251 . S
C201 O207 1.263 . S
Tb202 O204 2.343 . S
Tb202 O207 2.353 . S
Tb202 O210 2.427 . S
Tb202 O211 2.513 . S
Tb202 O212 2.453 . S
Tb202 O213 2.596 . S
Tb202 O214 2.374 . S
O203 Tb200 2.453 . S
O203 C219 1.245 . S
O204 Tb200 2.596 . S
O204 Tb202 2.343 . S
O204 C219 1.259 . S
O205 Tb200 2.374 . S
O205 C201 1.251 . S
C206 O210 1.275 . S
C206 O211 1.246 . S
O207 C201 1.263 . S
O207 Tb202 2.353 . S
C208 O212 1.245 . S
C208 O213 1.259 . S
C209 O214 1.250 . S
C209 O215 1.263 . S
O210 Tb202 2.427 . S
O210 C206 1.275 . S
O211 Tb202 2.513 . S
O211 C206 1.246 . S
O212 Tb202 2.453 . S
O212 C208 1.245 . S
O213 Tb200 2.343 . S
O213 Tb202 2.596 . S
O213 C208 1.259 . S
O214 Tb202 2.374 . S
O214 C209 1.250 . S
O215 Tb200 2.353 . S
O215 C209 1.263 . S
C216 O217 1.275 . S
C216 O218 1.246 . S
O217 Tb200 2.427 . S
O217 C216 1.275 . S
O218 Tb200 2.513 . S
O218 C216 1.246 . S
C219 O203 1.245 . S
C219 O204 1.259 . S
Tb220 O223 2.453 . S
Tb220 O224 2.596 . S
Tb220 O225 2.374 . S
Tb220 O233 2.343 . S
Tb220 O235 2.353 . S
Tb220 O237 2.427 . S
Tb220 O238 2.513 . S
C221 O225 1.251 . S
C221 O227 1.263 . S
Tb222 O224 2.343 . S
Tb222 O227 2.353 . S
Tb222 O230 2.427 1_556 S
Tb222 O231 2.513 1_556 S
Tb222 O232 2.453 . S
Tb222 O233 2.596 . S
Tb222 O234 2.374 . S
O223 Tb220 2.453 . S
O223 C239 1.245 . S
O224 Tb220 2.596 . S
O224 Tb222 2.343 . S
O224 C239 1.259 . S
O225 Tb220 2.374 . S
O225 C221 1.251 . S
C226 O230 1.275 . S
C226 O231 1.246 . S
O227 C221 1.263 . S
O227 Tb222 2.353 . S
C228 O232 1.245 . S
C228 O233 1.259 . S
C229 O234 1.250 . S
C229 O235 1.263 . S
O230 Tb222 2.427 1_554 S
O230 C226 1.275 . S
O231 Tb222 2.513 1_554 S
O231 C226 1.246 . S
O232 Tb222 2.453 . S
O232 C228 1.245 . S
O233 Tb220 2.343 . S
O233 Tb222 2.596 . S
O233 C228 1.259 . S
O234 Tb222 2.374 . S
O234 C229 1.250 . S
O235 Tb220 2.353 . S
O235 C229 1.263 . S
C236 O237 1.275 . S
C236 O238 1.246 . S
O237 Tb220 2.427 . S
O237 C236 1.275 . S
O238 Tb220 2.513 . S
O238 C236 1.246 . S
C239 O223 1.245 . S
C239 O224 1.259 . S
Tb240 O243 2.453 . S
Tb240 O244 2.596 . S
Tb240 O245 2.374 . S
Tb240 O253 2.343 . S
Tb240 O255 2.353 . S
Tb240 O257 2.427 . S
Tb240 O258 2.513 . S
C241 O245 1.251 . S
C241 O247 1.263 . S
Tb242 O244 2.343 . S
Tb242 O247 2.353 . S
Tb242 O250 2.427 . S
Tb242 O251 2.513 . S
Tb242 O252 2.453 . S
Tb242 O253 2.596 . S
Tb242 O254 2.374 . S
O243 Tb240 2.453 . S
O243 C259 1.245 . S
O244 Tb240 2.596 . S
O244 Tb242 2.343 . S
O244 C259 1.259 . S
O245 Tb240 2.374 . S
O245 C241 1.251 . S
C246 O250 1.275 . S
C246 O251 1.246 . S
O247 C241 1.263 . S
O247 Tb242 2.353 . S
C248 O252 1.245 . S
C248 O253 1.259 . S
C249 O254 1.250 . S
C249 O255 1.263 . S
O250 Tb242 2.427 . S
O250 C246 1.275 . S
O251 Tb242 2.513 . S
O251 C246 1.246 . S
O252 Tb242 2.453 . S
O252 C248 1.245 . S
O253 Tb240 2.343 . S
O253 Tb242 2.596 . S
O253 C248 1.259 . S
O254 Tb242 2.374 . S
O254 C249 1.250 . S
O255 Tb240 2.353 . S
O255 C249 1.263 . S
C256 O257 1.275 . S
C256 O258 1.246 . S
O257 Tb240 2.427 . S
O257 C256 1.275 . S
O258 Tb240 2.513 . S
O258 C256 1.246 . S
C259 O243 1.245 . S
C259 O244 1.259 . S
Tb260 O263 2.453 . S
Tb260 O264 2.596 . S
Tb260 O265 2.374 . S
Tb260 O273 2.343 . S
Tb260 O275 2.353 . S
Tb260 O277 2.427 . S
Tb260 O278 2.513 . S
C261 O265 1.251 . S
C261 O267 1.263 . S
Tb262 O264 2.343 . S
Tb262 O267 2.353 . S
Tb262 O270 2.427 . S
Tb262 O271 2.513 . S
Tb262 O272 2.453 . S
Tb262 O273 2.596 . S
Tb262 O274 2.374 . S
O263 Tb260 2.453 . S
O263 C279 1.245 . S
O264 Tb260 2.596 . S
O264 Tb262 2.343 . S
O264 C279 1.259 . S
O265 Tb260 2.374 . S
O265 C261 1.251 . S
C266 O270 1.275 . S
C266 O271 1.246 . S
O267 C261 1.263 . S
O267 Tb262 2.353 . S
C268 O272 1.245 . S
C268 O273 1.259 . S
C269 O274 1.250 . S
C269 O275 1.263 . S
O270 Tb262 2.427 . S
O270 C266 1.275 . S
O271 Tb262 2.513 . S
O271 C266 1.246 . S
O272 Tb262 2.453 . S
O272 C268 1.245 . S
O273 Tb260 2.343 . S
O273 Tb262 2.596 . S
O273 C268 1.259 . S
O274 Tb262 2.374 . S
O274 C269 1.250 . S
O275 Tb260 2.353 . S
O275 C269 1.263 . S
C276 O277 1.275 . S
C276 O278 1.246 . S
O277 Tb260 2.427 . S
O277 C276 1.275 . S
O278 Tb260 2.513 . S
O278 C276 1.246 . S
C279 O263 1.245 . S
C279 O264 1.259 . S
Tb280 O283 2.453 . S
Tb280 O284 2.596 . S
Tb280 O285 2.374 . S
Tb280 O293 2.343 . S
Tb280 O295 2.353 . S
Tb280 O297 2.427 . S
Tb280 O298 2.513 . S
C281 O285 1.251 . S
C281 O287 1.263 . S
Tb282 O284 2.343 . S
Tb282 O287 2.353 . S
Tb282 O290 2.427 . S
Tb282 O291 2.513 . S
Tb282 O292 2.453 . S
Tb282 O293 2.596 . S
Tb282 O294 2.374 . S
O283 Tb280 2.453 . S
O283 C299 1.245 . S
O284 Tb280 2.596 . S
O284 Tb282 2.343 . S
O284 C299 1.259 . S
O285 Tb280 2.374 . S
O285 C281 1.251 . S
C286 O290 1.275 . S
C286 O291 1.246 . S
O287 C281 1.263 . S
O287 Tb282 2.353 . S
C288 O292 1.245 . S
C288 O293 1.259 . S
C289 O294 1.250 . S
C289 O295 1.263 . S
O290 Tb282 2.427 . S
O290 C286 1.275 . S
O291 Tb282 2.513 . S
O291 C286 1.246 . S
O292 Tb282 2.453 . S
O292 C288 1.245 . S
O293 Tb280 2.343 . S
O293 Tb282 2.596 . S
O293 C288 1.259 . S
O294 Tb282 2.374 . S
O294 C289 1.250 . S
O295 Tb280 2.353 . S
O295 C289 1.263 . S
C296 O297 1.275 . S
C296 O298 1.246 . S
O297 Tb280 2.427 . S
O297 C296 1.275 . S
O298 Tb280 2.513 . S
O298 C296 1.246 . S
C299 O283 1.245 . S
C299 O284 1.259 . S
Tb300 O303 2.453 . S
Tb300 O304 2.596 . S
Tb300 O305 2.374 . S
Tb300 O313 2.343 . S
Tb300 O315 2.353 . S
Tb300 O317 2.427 . S
Tb300 O318 2.513 . S
C301 O305 1.251 . S
C301 O307 1.263 . S
Tb302 O304 2.343 . S
Tb302 O307 2.353 . S
Tb302 O310 2.427 1_554 S
Tb302 O311 2.513 1_554 S
Tb302 O312 2.453 . S
Tb302 O313 2.596 . S
Tb302 O314 2.374 . S
O303 Tb300 2.453 . S
O303 C319 1.245 . S
O304 Tb300 2.596 . S
O304 Tb302 2.343 . S
O304 C319 1.259 . S
O305 Tb300 2.374 . S
O305 C301 1.251 . S
C306 O310 1.275 . S
C306 O311 1.246 . S
O307 C301 1.263 . S
O307 Tb302 2.353 . S
C308 O312 1.245 . S
C308 O313 1.259 . S
C309 O314 1.250 . S
C309 O315 1.263 . S
O310 Tb302 2.427 1_556 S
O310 C306 1.275 . S
O311 Tb302 2.513 1_556 S
O311 C306 1.246 . S
O312 Tb302 2.453 . S
O312 C308 1.245 . S
O313 Tb300 2.343 . S
O313 Tb302 2.596 . S
O313 C308 1.259 . S
O314 Tb302 2.374 . S
O314 C309 1.250 . S
O315 Tb300 2.353 . S
O315 C309 1.263 . S
C316 O317 1.275 . S
C316 O318 1.246 . S
O317 Tb300 2.427 . S
O317 C316 1.275 . S
O318 Tb300 2.513 . S
O318 C316 1.246 . S
C319 O303 1.245 . S
C319 O304 1.259 . S
Tb320 O323 2.453 . S
Tb320 O324 2.596 . S
Tb320 O325 2.374 . S
Tb320 O333 2.343 . S
Tb320 O335 2.353 . S
Tb320 O337 2.427 . S
Tb320 O338 2.513 . S
C321 O325 1.251 . S
C321 O327 1.263 . S
Tb322 O324 2.343 . S
Tb322 O327 2.353 . S
Tb322 O330 2.427 . S
Tb322 O331 2.513 . S
Tb322 O332 2.453 . S
Tb322 O333 2.596 . S
Tb322 O334 2.374 . S
O323 Tb320 2.453 . S
O323 C339 1.245 . S
O324 Tb320 2.596 . S
O324 Tb322 2.343 . S
O324 C339 1.259 . S
O325 Tb320 2.374 . S
O325 C321 1.251 . S
C326 O330 1.275 . S
C326 O331 1.246 . S
O327 C321 1.263 . S
O327 Tb322 2.353 . S
C328 O332 1.245 . S
C328 O333 1.259 . S
C329 O334 1.250 . S
C329 O335 1.263 . S
O330 Tb322 2.427 . S
O330 C326 1.275 . S
O331 Tb322 2.513 . S
O331 C326 1.246 . S
O332 Tb322 2.453 . S
O332 C328 1.245 . S
O333 Tb320 2.343 . S
O333 Tb322 2.596 . S
O333 C328 1.259 . S
O334 Tb322 2.374 . S
O334 C329 1.250 . S
O335 Tb320 2.353 . S
O335 C329 1.263 . S
C336 O337 1.275 . S
C336 O338 1.246 . S
O337 Tb320 2.427 . S
O337 C336 1.275 . S
O338 Tb320 2.513 . S
O338 C336 1.246 . S
C339 O323 1.245 . S
C339 O324 1.259 . S
Tb340 O343 2.453 . S
Tb340 O344 2.596 . S
Tb340 O345 2.374 . S
Tb340 O353 2.343 . S
Tb340 O355 2.353 . S
Tb340 O357 2.427 1_554 S
Tb340 O358 2.513 1_554 S
C341 O345 1.251 . S
C341 O347 1.263 . S
Tb342 O344 2.343 . S
Tb342 O347 2.353 . S
Tb342 O350 2.427 . S
Tb342 O351 2.513 . S
Tb342 O352 2.453 . S
Tb342 O353 2.596 . S
Tb342 O354 2.374 . S
O343 Tb340 2.453 . S
O343 C359 1.245 . S
O344 Tb340 2.596 . S
O344 Tb342 2.343 . S
O344 C359 1.259 . S
O345 Tb340 2.374 . S
O345 C341 1.251 . S
C346 O350 1.275 . S
C346 O351 1.246 . S
O347 C341 1.263 . S
O347 Tb342 2.353 . S
C348 O352 1.245 . S
C348 O353 1.259 . S
C349 O354 1.250 . S
C349 O355 1.263 . S
O350 Tb342 2.427 . S
O350 C346 1.275 . S
O351 Tb342 2.513 . S
O351 C346 1.246 . S
O352 Tb342 2.453 . S
O352 C348 1.245 . S
O353 Tb340 2.343 . S
O353 Tb342 2.596 . S
O353 C348 1.259 . S
O354 Tb342 2.374 . S
O354 C349 1.250 . S
O355 Tb340 2.353 . S
O355 C349 1.263 . S
C356 O357 1.275 . S
C356 O358 1.246 . S
O357 Tb340 2.427 1_556 S
O357 C356 1.275 . S
O358 Tb340 2.513 1_556 S
O358 C356 1.246 . S
C359 O343 1.245 . S
C359 O344 1.259 . S
Tb360 O363 2.453 . S
Tb360 O364 2.596 . S
Tb360 O365 2.374 . S
Tb360 O373 2.343 . S
Tb360 O375 2.353 . S
Tb360 O377 2.427 . S
Tb360 O378 2.513 . S
C361 O365 1.251 . S
C361 O367 1.263 . S
Tb362 O364 2.343 . S
Tb362 O367 2.353 . S
Tb362 O370 2.427 . S
Tb362 O371 2.513 . S
Tb362 O372 2.453 . S
Tb362 O373 2.596 . S
Tb362 O374 2.374 . S
O363 Tb360 2.453 . S
O363 C379 1.245 . S
O364 Tb360 2.596 . S
O364 Tb362 2.343 . S
O364 C379 1.259 . S
O365 Tb360 2.374 . S
O365 C361 1.251 . S
C366 O370 1.275 . S
C366 O371 1.246 . S
O367 C361 1.263 . S
O367 Tb362 2.353 . S
C368 O372 1.245 . S
C368 O373 1.259 . S
C369 O374 1.250 . S
C369 O375 1.263 . S
O370 Tb362 2.427 . S
O370 C366 1.275 . S
O371 Tb362 2.513 . S
O371 C366 1.246 . S
O372 Tb362 2.453 . S
O372 C368 1.245 . S
O373 Tb360 2.343 . S
O373 Tb362 2.596 . S
O373 C368 1.259 . S
O374 Tb362 2.374 . S
O374 C369 1.250 . S
O375 Tb360 2.353 . S
O375 C369 1.263 . S
C376 O377 1.275 . S
C376 O378 1.246 . S
O377 Tb360 2.427 . S
O377 C376 1.275 . S
O378 Tb360 2.513 . S
O378 C376 1.246 . S
C379 O363 1.245 . S
C379 O364 1.259 . S
Tb380 O383 2.453 . S
Tb380 O384 2.596 . S
Tb380 O385 2.374 . S
Tb380 O393 2.343 . S
Tb380 O395 2.353 . S
Tb380 O397 2.427 . S
Tb380 O398 2.513 . S
C381 O385 1.251 . S
C381 O387 1.263 . S
Tb382 O384 2.343 . S
Tb382 O387 2.353 . S
Tb382 O390 2.427 . S
Tb382 O391 2.513 . S
Tb382 O392 2.453 . S
Tb382 O393 2.596 . S
Tb382 O394 2.374 . S
O383 Tb380 2.453 . S
O383 C399 1.245 . S
O384 Tb380 2.596 . S
O384 Tb382 2.343 . S
O384 C399 1.259 . S
O385 Tb380 2.374 . S
O385 C381 1.251 . S
C386 O390 1.275 . S
C386 O391 1.246 . S
O387 C381 1.263 . S
O387 Tb382 2.353 . S
C388 O392 1.245 . S
C388 O393 1.259 . S
C389 O394 1.250 . S
C389 O395 1.263 . S
O390 Tb382 2.427 . S
O390 C386 1.275 . S
O391 Tb382 2.513 . S
O391 C386 1.246 . S
O392 Tb382 2.453 . S
O392 C388 1.245 . S
O393 Tb380 2.343 . S
O393 Tb382 2.596 . S
O393 C388 1.259 . S
O394 Tb382 2.374 . S
O394 C389 1.250 . S
O395 Tb380 2.353 . S
O395 C389 1.263 . S
C396 O397 1.275 . S
C396 O398 1.246 . S
O397 Tb380 2.427 . S
O397 C396 1.275 . S
O398 Tb380 2.513 . S
O398 C396 1.246 . S
C399 O383 1.245 . S
C399 O384 1.259 . S
Tb400 O403 2.453 . S
Tb400 O404 2.596 . S
Tb400 O405 2.374 . S
Tb400 O413 2.343 . S
Tb400 O415 2.353 . S
Tb400 O417 2.427 . S
Tb400 O418 2.513 . S
C401 O405 1.251 . S
C401 O407 1.263 . S
Tb402 O404 2.343 . S
Tb402 O407 2.353 . S
Tb402 O410 2.427 . S
Tb402 O411 2.513 . S
Tb402 O412 2.453 . S
Tb402 O413 2.596 . S
Tb402 O414 2.374 . S
O403 Tb400 2.453 . S
O403 C419 1.245 . S
O404 Tb400 2.596 . S
O404 Tb402 2.343 . S
O404 C419 1.259 . S
O405 Tb400 2.374 . S
O405 C401 1.251 . S
C406 O410 1.275 . S
C406 O411 1.246 . S
O407 C401 1.263 . S
O407 Tb402 2.353 . S
C408 O412 1.245 . S
C408 O413 1.259 . S
C409 O414 1.250 . S
C409 O415 1.263 . S
O410 Tb402 2.427 . S
O410 C406 1.275 . S
O411 Tb402 2.513 . S
O411 C406 1.246 . S
O412 Tb402 2.453 . S
O412 C408 1.245 . S
O413 Tb400 2.343 . S
O413 Tb402 2.596 . S
O413 C408 1.259 . S
O414 Tb402 2.374 . S
O414 C409 1.250 . S
O415 Tb400 2.353 . S
O415 C409 1.263 . S
C416 O417 1.275 . S
C416 O418 1.246 . S
O417 Tb400 2.427 . S
O417 C416 1.275 . S
O418 Tb400 2.513 . S
O418 C416 1.246 . S
C419 O403 1.245 . S
C419 O404 1.259 . S
Tb420 O423 2.453 . S
Tb420 O424 2.596 . S
Tb420 O425 2.374 . S
Tb420 O433 2.343 . S
Tb420 O435 2.353 . S
Tb420 O437 2.427 1_556 S
Tb420 O438 2.513 1_556 S
C421 O425 1.251 . S
C421 O427 1.263 . S
Tb422 O424 2.343 . S
Tb422 O427 2.353 . S
Tb422 O430 2.427 . S
Tb422 O431 2.513 . S
Tb422 O432 2.453 . S
Tb422 O433 2.596 . S
Tb422 O434 2.374 . S
O423 Tb420 2.453 . S
O423 C439 1.245 . S
O424 Tb420 2.596 . S
O424 Tb422 2.343 . S
O424 C439 1.259 . S
O425 Tb420 2.374 . S
O425 C421 1.251 . S
C426 O430 1.275 . S
C426 O431 1.246 . S
O427 C421 1.263 . S
O427 Tb422 2.353 . S
C428 O432 1.245 . S
C428 O433 1.259 . S
C429 O434 1.250 . S
C429 O435 1.263 . S
O430 Tb422 2.427 . S
O430 C426 1.275 . S
O431 Tb422 2.513 . S
O431 C426 1.246 . S
O432 Tb422 2.453 . S
O432 C428 1.245 . S
O433 Tb420 2.343 . S
O433 Tb422 2.596 . S
O433 C428 1.259 . S
O434 Tb422 2.374 . S
O434 C429 1.250 . S
O435 Tb420 2.353 . S
O435 C429 1.263 . S
C436 O437 1.275 . S
C436 O438 1.246 . S
O437 Tb420 2.427 1_554 S
O437 C436 1.275 . S
O438 Tb420 2.513 1_554 S
O438 C436 1.246 . S
C439 O423 1.245 . S
C439 O424 1.259 . S
Tb440 O443 2.453 . S
Tb440 O444 2.596 . S
Tb440 O445 2.374 . S
Tb440 O453 2.343 . S
Tb440 O455 2.353 . S
Tb440 O457 2.427 . S
Tb440 O458 2.513 . S
C441 O445 1.251 . S
C441 O447 1.263 . S
Tb442 O444 2.343 . S
Tb442 O447 2.353 . S
Tb442 O450 2.427 . S
Tb442 O451 2.513 . S
Tb442 O452 2.453 . S
Tb442 O453 2.596 . S
Tb442 O454 2.374 . S
O443 Tb440 2.453 . S
O443 C459 1.245 . S
O444 Tb440 2.596 . S
O444 Tb442 2.343 . S
O444 C459 1.259 . S
O445 Tb440 2.374 . S
O445 C441 1.251 . S
C446 O450 1.275 . S
C446 O451 1.246 . S
O447 C441 1.263 . S
O447 Tb442 2.353 . S
C448 O452 1.245 . S
C448 O453 1.259 . S
C449 O454 1.250 . S
C449 O455 1.263 . S
O450 Tb442 2.427 . S
O450 C446 1.275 . S
O451 Tb442 2.513 . S
O451 C446 1.246 . S
O452 Tb442 2.453 . S
O452 C448 1.245 . S
O453 Tb440 2.343 . S
O453 Tb442 2.596 . S
O453 C448 1.259 . S
O454 Tb442 2.374 . S
O454 C449 1.250 . S
O455 Tb440 2.353 . S
O455 C449 1.263 . S
C456 O457 1.275 . S
C456 O458 1.246 . S
O457 Tb440 2.427 . S
O457 C456 1.275 . S
O458 Tb440 2.513 . S
O458 C456 1.246 . S
C459 O443 1.245 . S
C459 O444 1.259 . S
Tb460 O463 2.453 . S
Tb460 O464 2.596 . S
Tb460 O465 2.374 . S
Tb460 O473 2.343 . S
Tb460 O475 2.353 . S
Tb460 O477 2.427 . S
Tb460 O478 2.513 . S
C461 O465 1.251 . S
C461 O467 1.263 . S
Tb462 O464 2.343 . S
Tb462 O467 2.353 . S
Tb462 O470 2.427 . S
Tb462 O471 2.513 . S
Tb462 O472 2.453 . S
Tb462 O473 2.596 . S
Tb462 O474 2.374 . S
O463 Tb460 2.453 . S
O463 C479 1.245 . S
O464 Tb460 2.596 . S
O464 Tb462 2.343 . S
O464 C479 1.259 . S
O465 Tb460 2.374 . S
O465 C461 1.251 . S
C466 O470 1.275 . S
C466 O471 1.246 . S
O467 C461 1.263 . S
O467 Tb462 2.353 . S
C468 O472 1.245 . S
C468 O473 1.259 . S
C469 O474 1.250 . S
C469 O475 1.263 . S
O470 Tb462 2.427 . S
O470 C466 1.275 . S
O471 Tb462 2.513 . S
O471 C466 1.246 . S
O472 Tb462 2.453 . S
O472 C468 1.245 . S
O473 Tb460 2.343 . S
O473 Tb462 2.596 . S
O473 C468 1.259 . S
O474 Tb462 2.374 . S
O474 C469 1.250 . S
O475 Tb460 2.353 . S
O475 C469 1.263 . S
C476 O477 1.275 . S
C476 O478 1.246 . S
O477 Tb460 2.427 . S
O477 C476 1.275 . S
O478 Tb460 2.513 . S
O478 C476 1.246 . S
C479 O463 1.245 . S
C479 O464 1.259 . S
Tb480 O483 2.453 . S
Tb480 O484 2.596 . S
Tb480 O485 2.374 . S
Tb480 O493 2.343 . S
Tb480 O495 2.353 . S
Tb480 O497 2.427 . S
Tb480 O498 2.513 . S
C481 O485 1.251 . S
C481 O487 1.263 . S
Tb482 O484 2.343 . S
Tb482 O487 2.353 . S
Tb482 O490 2.427 . S
Tb482 O491 2.513 . S
Tb482 O492 2.453 . S
Tb482 O493 2.596 . S
Tb482 O494 2.374 . S
O483 Tb480 2.453 . S
O483 C499 1.245 . S
O484 Tb480 2.596 . S
O484 Tb482 2.343 . S
O484 C499 1.259 . S
O485 Tb480 2.374 . S
O485 C481 1.251 . S
C486 O490 1.275 . S
C486 O491 1.246 . S
O487 C481 1.263 . S
O487 Tb482 2.353 . S
C488 O492 1.245 . S
C488 O493 1.259 . S
C489 O494 1.250 . S
C489 O495 1.263 . S
O490 Tb482 2.427 . S
O490 C486 1.275 . S
O491 Tb482 2.513 . S
O491 C486 1.246 . S
O492 Tb482 2.453 . S
O492 C488 1.245 . S
O493 Tb480 2.343 . S
O493 Tb482 2.596 . S
O493 C488 1.259 . S
O494 Tb482 2.374 . S
O494 C489 1.250 . S
O495 Tb480 2.353 . S
O495 C489 1.263 . S
C496 O497 1.275 . S
C496 O498 1.246 . S
O497 Tb480 2.427 . S
O497 C496 1.275 . S
O498 Tb480 2.513 . S
O498 C496 1.246 . S
C499 O483 1.245 . S
C499 O484 1.259 . S
Tb500 O503 2.453 . S
Tb500 O504 2.596 . S
Tb500 O505 2.374 . S
Tb500 O513 2.343 . S
Tb500 O515 2.353 . S
Tb500 O517 2.427 . S
Tb500 O518 2.513 . S
C501 O505 1.251 . S
C501 O507 1.263 . S
Tb502 O504 2.343 . S
Tb502 O507 2.353 . S
Tb502 O510 2.427 1_556 S
Tb502 O511 2.513 1_556 S
Tb502 O512 2.453 . S
Tb502 O513 2.596 . S
Tb502 O514 2.374 . S
O503 Tb500 2.453 . S
O503 C519 1.245 . S
O504 Tb500 2.596 . S
O504 Tb502 2.343 . S
O504 C519 1.259 . S
O505 Tb500 2.374 . S
O505 C501 1.251 . S
C506 O510 1.275 . S
C506 O511 1.246 . S
O507 C501 1.263 . S
O507 Tb502 2.353 . S
C508 O512 1.245 . S
C508 O513 1.259 . S
C509 O514 1.250 . S
C509 O515 1.263 . S
O510 Tb502 2.427 1_554 S
O510 C506 1.275 . S
O511 Tb502 2.513 1_554 S
O511 C506 1.246 . S
O512 Tb502 2.453 . S
O512 C508 1.245 . S
O513 Tb500 2.343 . S
O513 Tb502 2.596 . S
O513 C508 1.259 . S
O514 Tb502 2.374 . S
O514 C509 1.250 . S
O515 Tb500 2.353 . S
O515 C509 1.263 . S
C516 O517 1.275 . S
C516 O518 1.246 . S
O517 Tb500 2.427 . S
O517 C516 1.275 . S
O518 Tb500 2.513 . S
O518 C516 1.246 . S
C519 O503 1.245 . S
C519 O504 1.259 . S
Tb520 O523 2.453 . S
Tb520 O524 2.596 . S
Tb520 O525 2.374 . S
Tb520 O533 2.343 . S
Tb520 O535 2.353 . S
Tb520 O537 2.427 . S
Tb520 O538 2.513 . S
C521 O525 1.251 . S
C521 O527 1.263 . S
Tb522 O524 2.343 . S
Tb522 O527 2.353 . S
Tb522 O530 2.427 . S
Tb522 O531 2.513 . S
Tb522 O532 2.453 . S
Tb522 O533 2.596 . S
Tb522 O534 2.374 . S
O523 Tb520 2.453 . S
O523 C539 1.245 . S
O524 Tb520 2.596 . S
O524 Tb522 2.343 . S
O524 C539 1.259 . S
O525 Tb520 2.374 . S
O525 C521 1.251 . S
C526 O530 1.275 . S
C526 O531 1.246 . S
O527 C521 1.263 . S
O527 Tb522 2.353 . S
C528 O532 1.245 . S
C528 O533 1.259 . S
C529 O534 1.250 . S
C529 O535 1.263 . S
O530 Tb522 2.427 . S
O530 C526 1.275 . S
O531 Tb522 2.513 . S
O531 C526 1.246 . S
O532 Tb522 2.453 . S
O532 C528 1.245 . S
O533 Tb520 2.343 . S
O533 Tb522 2.596 . S
O533 C528 1.259 . S
O534 Tb522 2.374 . S
O534 C529 1.250 . S
O535 Tb520 2.353 . S
O535 C529 1.263 . S
C536 O537 1.275 . S
C536 O538 1.246 . S
O537 Tb520 2.427 . S
O537 C536 1.275 . S
O538 Tb520 2.513 . S
O538 C536 1.246 . S
C539 O523 1.245 . S
C539 O524 1.259 . S
Tb540 O543 2.453 . S
Tb540 O544 2.596 . S
Tb540 O545 2.374 . S
Tb540 O553 2.343 . S
Tb540 O555 2.353 . S
Tb540 O557 2.427 . S
Tb540 O558 2.513 . S
C541 O545 1.251 . S
C541 O547 1.263 . S
Tb542 O544 2.343 . S
Tb542 O547 2.353 . S
Tb542 O550 2.427 . S
Tb542 O551 2.513 . S
Tb542 O552 2.453 . S
Tb542 O553 2.596 . S
Tb542 O554 2.374 . S
O543 Tb540 2.453 . S
O543 C559 1.245 . S
O544 Tb540 2.596 . S
O544 Tb542 2.343 . S
O544 C559 1.259 . S
O545 Tb540 2.374 . S
O545 C541 1.251 . S
C546 O550 1.275 . S
C546 O551 1.246 . S
O547 C541 1.263 . S
O547 Tb542 2.353 . S
C548 O552 1.245 . S
C548 O553 1.259 . S
C549 O554 1.250 . S
C549 O555 1.263 . S
O550 Tb542 2.427 . S
O550 C546 1.275 . S
O551 Tb542 2.513 . S
O551 C546 1.246 . S
O552 Tb542 2.453 . S
O552 C548 1.245 . S
O553 Tb540 2.343 . S
O553 Tb542 2.596 . S
O553 C548 1.259 . S
O554 Tb542 2.374 . S
O554 C549 1.250 . S
O555 Tb540 2.353 . S
O555 C549 1.263 . S
C556 O557 1.275 . S
C556 O558 1.246 . S
O557 Tb540 2.427 . S
O557 C556 1.275 . S
O558 Tb540 2.513 . S
O558 C556 1.246 . S
C559 O543 1.245 . S
C559 O544 1.259 . S
Tb560 O563 2.453 . S
Tb560 O564 2.596 . S
Tb560 O565 2.374 . S
Tb560 O573 2.343 . S
Tb560 O575 2.353 . S
Tb560 O577 2.427 . S
Tb560 O578 2.513 . S
C561 O565 1.251 . S
C561 O567 1.263 . S
Tb562 O564 2.343 . S
Tb562 O567 2.353 . S
Tb562 O570 2.427 . S
Tb562 O571 2.513 . S
Tb562 O572 2.453 . S
Tb562 O573 2.596 . S
Tb562 O574 2.374 . S
O563 Tb560 2.453 . S
O563 C579 1.245 . S
O564 Tb560 2.596 . S
O564 Tb562 2.343 . S
O564 C579 1.259 . S
O565 Tb560 2.374 . S
O565 C561 1.251 . S
C566 O570 1.275 . S
C566 O571 1.246 . S
O567 C561 1.263 . S
O567 Tb562 2.353 . S
C568 O572 1.245 . S
C568 O573 1.259 . S
C569 O574 1.250 . S
C569 O575 1.263 . S
O570 Tb562 2.427 . S
O570 C566 1.275 . S
O571 Tb562 2.513 . S
O571 C566 1.246 . S
O572 Tb562 2.453 . S
O572 C568 1.245 . S
O573 Tb560 2.343 . S
O573 Tb562 2.596 . S
O573 C568 1.259 . S
O574 Tb562 2.374 . S
O574 C569 1.250 . S
O575 Tb560 2.353 . S
O575 C569 1.263 . S
C576 O577 1.275 . S
C576 O578 1.246 . S
O577 Tb560 2.427 . S
O577 C576 1.275 . S
O578 Tb560 2.513 . S
O578 C576 1.246 . S
C579 O563 1.245 . S
C579 O564 1.259 . S
Tb580 O583 2.453 . S
Tb580 O584 2.596 . S
Tb580 O585 2.374 . S
Tb580 O593 2.343 . S
Tb580 O595 2.353 . S
Tb580 O597 2.427 . S
Tb580 O598 2.513 . S
C581 O585 1.251 . S
C581 O587 1.263 . S
Tb582 O584 2.343 . S
Tb582 O587 2.353 . S
Tb582 O590 2.427 1_554 S
Tb582 O591 2.513 1_554 S
Tb582 O592 2.453 . S
Tb582 O593 2.596 . S
Tb582 O594 2.374 . S
O583 Tb580 2.453 . S
O583 C599 1.245 . S
O584 Tb580 2.596 . S
O584 Tb582 2.343 . S
O584 C599 1.259 . S
O585 Tb580 2.374 . S
O585 C581 1.251 . S
C586 O590 1.275 . S
C586 O591 1.246 . S
O587 C581 1.263 . S
O587 Tb582 2.353 . S
C588 O592 1.245 . S
C588 O593 1.259 . S
C589 O594 1.250 . S
C589 O595 1.263 . S
O590 Tb582 2.427 1_556 S
O590 C586 1.275 . S
O591 Tb582 2.513 1_556 S
O591 C586 1.246 . S
O592 Tb582 2.453 . S
O592 C588 1.245 . S
O593 Tb580 2.343 . S
O593 Tb582 2.596 . S
O593 C588 1.259 . S
O594 Tb582 2.374 . S
O594 C589 1.250 . S
O595 Tb580 2.353 . S
O595 C589 1.263 . S
C596 O597 1.275 . S
C596 O598 1.246 . S
O597 Tb580 2.427 . S
O597 C596 1.275 . S
O598 Tb580 2.513 . S
O598 C596 1.246 . S
C599 O583 1.245 . S
C599 O584 1.259 . S
Tb600 O603 2.453 . S
Tb600 O604 2.596 . S
Tb600 O605 2.374 . S
Tb600 O613 2.343 . S
Tb600 O615 2.353 . S
Tb600 O617 2.427 . S
Tb600 O618 2.513 . S
C601 O605 1.251 . S
C601 O607 1.263 . S
Tb602 O604 2.343 . S
Tb602 O607 2.353 . S
Tb602 O610 2.427 . S
Tb602 O611 2.513 . S
Tb602 O612 2.453 . S
Tb602 O613 2.596 . S
Tb602 O614 2.374 . S
O603 Tb600 2.453 . S
O603 C619 1.245 . S
O604 Tb600 2.596 . S
O604 Tb602 2.343 . S
O604 C619 1.259 . S
O605 Tb600 2.374 . S
O605 C601 1.251 . S
C606 O610 1.275 . S
C606 O611 1.246 . S
O607 C601 1.263 . S
O607 Tb602 2.353 . S
C608 O612 1.245 . S
C608 O613 1.259 . S
C609 O614 1.250 . S
C609 O615 1.263 . S
O610 Tb602 2.427 . S
O610 C606 1.275 . S
O611 Tb602 2.513 . S
O611 C606 1.246 . S
O612 Tb602 2.453 . S
O612 C608 1.245 . S
O613 Tb600 2.343 . S
O613 Tb602 2.596 . S
O613 C608 1.259 . S
O614 Tb602 2.374 . S
O614 C609 1.250 . S
O615 Tb600 2.353 . S
O615 C609 1.263 . S
C616 O617 1.275 . S
C616 O618 1.246 . S
O617 Tb600 2.427 . S
O617 C616 1.275 . S
O618 Tb600 2.513 . S
O618 C616 1.246 . S
C619 O603 1.245 . S
C619 O604 1.259 . S
Tb620 O623 2.453 . S
Tb620 O624 2.596 . S
Tb620 O625 2.374 . S
Tb620 O633 2.343 . S
Tb620 O635 2.353 . S
Tb620 O637 2.427 . S
Tb620 O638 2.513 . S
C621 O625 1.251 . S
C621 O627 1.263 . S
Tb622 O624 2.343 . S
Tb622 O627 2.353 . S
Tb622 O630 2.427 . S
Tb622 O631 2.513 . S
Tb622 O632 2.453 . S
Tb622 O633 2.596 . S
Tb622 O634 2.374 . S
O623 Tb620 2.453 . S
O623 C639 1.245 . S
O624 Tb620 2.596 . S
O624 Tb622 2.343 . S
O624 C639 1.259 . S
O625 Tb620 2.374 . S
O625 C621 1.251 . S
C626 O630 1.275 . S
C626 O631 1.246 . S
O627 C621 1.263 . S
O627 Tb622 2.353 . S
C628 O632 1.245 . S
C628 O633 1.259 . S
C629 O634 1.250 . S
C629 O635 1.263 . S
O630 Tb622 2.427 . S
O630 C626 1.275 . S
O631 Tb622 2.513 . S
O631 C626 1.246 . S
O632 Tb622 2.453 . S
O632 C628 1.245 . S
O633 Tb620 2.343 . S
O633 Tb622 2.596 . S
O633 C628 1.259 . S
O634 Tb622 2.374 . S
O634 C629 1.250 . S
O635 Tb620 2.353 . S
O635 C629 1.263 . S
C636 O637 1.275 . S
C636 O638 1.246 . S
O637 Tb620 2.427 . S
O637 C636 1.275 . S
O638 Tb620 2.513 . S
O638 C636 1.246 . S
C639 O623 1.245 . S
C639 O624 1.259 . S
H640 C646 0.930 . S
H641 C650 0.930 . S
H642 C655 0.929 . S
H643 C653 0.929 . S
H644 C648 0.929 . S
H645 C654 0.929 . S
C646 H640 0.930 . S
C646 C647 1.367 . S
C646 C654 1.378 . S
C647 C646 1.367 . S
C647 C655 1.433 . S
C648 H644 0.929 . S
C648 C650 1.378 . S
C648 C652 1.350 . S
C649 C652 1.463 . S
C649 C654 1.350 . S
C649 N657 1.427 . S
C650 H641 0.930 . S
C650 C648 1.378 . S
C650 C651 1.367 . S
C651 C650 1.367 . S
C651 C653 1.433 . S
C652 C648 1.350 . S
C652 C649 1.463 . S
C652 N656 1.427 . S
C653 H643 0.929 . S
C653 C651 1.433 . S
C653 N656 1.384 . S
C654 H645 0.929 . S
C654 C646 1.378 . S
C654 C649 1.350 . S
C655 H642 0.929 . S
C655 C647 1.433 . S
C655 N657 1.384 . S
N656 C652 1.427 . S
N656 C653 1.384 . S
N657 C649 1.427 . S
N657 C655 1.384 . S
H658 C664 0.930 . S
H659 C668 0.930 . S
H660 C673 0.929 . S
H661 C671 0.929 . S
H662 C666 0.894 1_545 S
H663 C672 0.929 1_565 S
C664 H658 0.930 . S
C664 C665 1.367 . S
C664 C672 1.378 . S
C665 C664 1.367 . S
C665 C673 1.433 . S
C666 H662 0.894 1_565 S
C666 C668 1.408 . S
C666 C670 1.356 . S
C667 C670 1.463 1_545 S
C667 C672 1.350 . S
C667 N675 1.427 . S
C668 H659 0.930 . S
C668 C666 1.408 . S
C668 C669 1.367 . S
C669 C668 1.367 . S
C669 C671 1.433 . S
C670 C666 1.356 . S
C670 C667 1.463 1_565 S
C670 N674 1.427 . S
C671 H661 0.929 . S
C671 C669 1.433 . S
C671 N674 1.384 . S
C672 H663 0.929 1_545 S
C672 C664 1.378 . S
C672 C667 1.350 . S
C673 H660 0.929 . S
C673 C665 1.433 . S
C673 N675 1.384 . S
N674 C670 1.427 . S
N674 C671 1.384 . S
N675 C667 1.427 . S
N675 C673 1.384 . S
H676 C682 0.930 . S
H677 C686 0.930 . S
H678 C691 0.929 . S
H679 C689 0.929 . S
H680 C684 0.929 . S
H681 C690 0.929 . S
C682 H676 0.930 . S
C682 C683 1.367 . S
C682 C690 1.378 . S
C683 C682 1.367 . S
C683 C691 1.433 . S
C684 H680 0.929 . S
C684 C686 1.378 . S
C684 C688 1.350 . S
C685 C688 1.463 . S
C685 C690 1.350 . S
C685 N693 1.427 . S
C686 H677 0.930 . S
C686 C684 1.378 . S
C686 C687 1.367 . S
C687 C686 1.367 . S
C687 C689 1.433 . S
C688 C684 1.350 . S
C688 C685 1.463 . S
C688 N692 1.427 . S
C689 H679 0.929 . S
C689 C687 1.433 . S
C689 N692 1.384 . S
C690 H681 0.929 . S
C690 C682 1.378 . S
C690 C685 1.350 . S
C691 H678 0.929 . S
C691 C683 1.433 . S
C691 N693 1.384 . S
N692 C688 1.427 . S
N692 C689 1.384 . S
N693 C685 1.427 . S
N693 C691 1.384 . S
H694 C700 0.930 . S
H695 C704 0.958 . S
H696 C709 0.929 . S
H697 C707 0.929 . S
H698 C702 0.929 1_565 S
H699 C708 0.929 . S
C700 H694 0.930 . S
C700 C701 1.367 . S
C700 C708 1.378 . S
C701 C700 1.367 . S
C701 C709 1.433 . S
C702 H698 0.929 1_545 S
C702 C704 1.354 1_556 S
C702 C706 1.350 . S
C703 C706 1.463 1_565 S
C703 C708 1.350 . S
C703 N711 1.427 . S
C704 H695 0.958 . S
C704 C702 1.354 1_554 S
C704 C705 1.364 1_554 S
C705 C704 1.364 1_556 S
C705 C707 1.433 . S
C706 C702 1.350 . S
C706 C703 1.463 1_545 S
C706 N710 1.427 . S
C707 H697 0.929 . S
C707 C705 1.433 . S
C707 N710 1.384 . S
C708 H699 0.929 . S
C708 C700 1.378 . S
C708 C703 1.350 . S
C709 H696 0.929 . S
C709 C701 1.433 . S
C709 N711 1.384 . S
N710 C706 1.427 . S
N710 C707 1.384 . S
N711 C703 1.427 . S
N711 C709 1.384 . S
H712 C718 0.930 . S
H713 C722 0.930 . S
H714 C727 0.929 . S
H715 C725 0.929 . S
H716 C720 0.929 . S
H717 C726 0.929 . S
C718 H712 0.930 . S
C718 C719 1.367 . S
C718 C726 1.378 . S
C719 C718 1.367 . S
C719 C727 1.433 . S
C720 H716 0.929 . S
C720 C722 1.378 . S
C720 C724 1.350 . S
C721 C724 1.463 . S
C721 C726 1.350 . S
C721 N729 1.427 . S
C722 H713 0.930 . S
C722 C720 1.378 . S
C722 C723 1.367 . S
C723 C722 1.367 . S
C723 C725 1.433 . S
C724 C720 1.350 . S
C724 C721 1.463 . S
C724 N728 1.427 . S
C725 H715 0.929 . S
C725 C723 1.433 . S
C725 N728 1.384 . S
C726 H717 0.929 . S
C726 C718 1.378 . S
C726 C721 1.350 . S
C727 H714 0.929 . S
C727 C719 1.433 . S
C727 N729 1.384 . S
N728 C724 1.427 . S
N728 C725 1.384 . S
N729 C721 1.427 . S
N729 C727 1.384 . S
H730 C736 0.930 . S
H731 C740 0.930 . S
H732 C745 0.929 . S
H733 C743 0.929 . S
H734 C738 0.929 . S
H735 C744 0.929 . S
C736 H730 0.930 . S
C736 C737 1.367 . S
C736 C744 1.378 . S
C737 C736 1.367 . S
C737 C745 1.433 . S
C738 H734 0.929 . S
C738 C740 1.378 . S
C738 C742 1.350 . S
C739 C742 1.463 1_565 S
C739 C744 1.350 . S
C739 N747 1.427 1_565 S
C740 H731 0.930 . S
C740 C738 1.378 . S
C740 C741 1.367 . S
C741 C740 1.367 . S
C741 C743 1.433 . S
C742 C738 1.350 . S
C742 C739 1.463 1_545 S
C742 N746 1.427 . S
C743 H733 0.929 . S
C743 C741 1.433 . S
C743 N746 1.384 . S
C744 H735 0.929 . S
C744 C736 1.378 . S
C744 C739 1.350 . S
C745 H732 0.929 . S
C745 C737 1.433 . S
C745 N747 1.384 1_565 S
N746 C742 1.427 . S
N746 C743 1.384 . S
N747 C739 1.427 1_545 S
N747 C745 1.384 1_545 S
H748 C754 0.930 . S
H749 C758 0.930 . S
H750 C763 0.929 . S
H751 C761 0.929 . S
H752 C756 0.929 . S
H753 C762 0.929 . S
C754 H748 0.930 . S
C754 C755 1.367 . S
C754 C762 1.378 . S
C755 C754 1.367 . S
C755 C763 1.433 . S
C756 H752 0.929 . S
C756 C758 1.378 . S
C756 C760 1.350 . S
C757 C760 1.463 . S
C757 C762 1.350 . S
C757 N765 1.427 . S
C758 H749 0.930 . S
C758 C756 1.378 . S
C758 C759 1.367 . S
C759 C758 1.367 . S
C759 C761 1.433 . S
C760 C756 1.350 . S
C760 C757 1.463 . S
C760 N764 1.427 . S
C761 H751 0.929 . S
C761 C759 1.433 . S
C761 N764 1.384 . S
C762 H753 0.929 . S
C762 C754 1.378 . S
C762 C757 1.350 . S
C763 H750 0.929 . S
C763 C755 1.433 . S
C763 N765 1.384 . S
N764 C760 1.427 . S
N764 C761 1.384 . S
N765 C757 1.427 . S
N765 C763 1.384 . S
H766 C772 0.930 . S
H767 C776 0.930 . S
H768 C781 0.929 . S
H769 C779 0.929 . S
H770 C774 0.929 . S
H771 C780 0.929 . S
C772 H766 0.930 . S
C772 C773 1.367 . S
C772 C780 1.378 . S
C773 C772 1.367 . S
C773 C781 1.433 . S
C774 H770 0.929 . S
C774 C776 1.378 . S
C774 C778 1.350 . S
C775 C778 1.463 1_565 S
C775 C780 1.350 . S
C775 N783 1.427 . S
C776 H767 0.930 . S
C776 C774 1.378 . S
C776 C777 1.367 . S
C777 C776 1.367 . S
C777 C779 1.433 1_554 S
C778 C774 1.350 . S
C778 C775 1.463 1_545 S
C778 N782 1.427 1_545 S
C779 H769 0.929 . S
C779 C777 1.433 1_556 S
C779 N782 1.384 1_546 S
C780 H771 0.929 . S
C780 C772 1.378 . S
C780 C775 1.350 . S
C781 H768 0.929 . S
C781 C773 1.433 . S
C781 N783 1.384 . S
N782 C778 1.427 1_565 S
N782 C779 1.384 1_564 S
N783 C775 1.427 . S
N783 C781 1.384 . S
H784 C790 0.930 . S
H785 C794 0.930 . S
H786 C799 0.929 . S
H787 C797 0.929 . S
H788 C792 0.929 . S
H789 C798 0.929 . S
C790 H784 0.930 . S
C790 C791 1.367 . S
C790 C798 1.378 . S
C791 C790 1.367 . S
C791 C799 1.433 . S
C792 H788 0.929 . S
C792 C794 1.378 . S
C792 C796 1.350 . S
C793 C796 1.463 . S
C793 C798 1.350 . S
C793 N801 1.427 . S
C794 H785 0.930 . S
C794 C792 1.378 . S
C794 C795 1.367 . S
C795 C794 1.367 . S
C795 C797 1.433 . S
C796 C792 1.350 . S
C796 C793 1.463 . S
C796 N800 1.427 . S
C797 H787 0.929 . S
C797 C795 1.433 . S
C797 N800 1.384 . S
C798 H789 0.929 . S
C798 C790 1.378 . S
C798 C793 1.350 . S
C799 H786 0.929 . S
C799 C791 1.433 . S
C799 N801 1.384 . S
N800 C796 1.427 . S
N800 C797 1.384 . S
N801 C793 1.427 . S
N801 C799 1.384 . S
H802 C808 0.930 . S
H803 C812 0.930 . S
H804 C817 0.929 . S
H805 C815 0.929 . S
H806 C810 0.929 1_545 S
H807 C816 0.929 . S
C808 H802 0.930 . S
C808 C809 1.367 . S
C808 C816 1.378 1_545 S
C809 C808 1.367 . S
C809 C817 1.433 . S
C810 H806 0.929 1_565 S
C810 C812 1.378 . S
C810 C814 1.350 . S
C811 C814 1.463 1_545 S
C811 C816 1.350 1_545 S
C811 N819 1.427 . S
C812 H803 0.930 . S
C812 C810 1.378 . S
C812 C813 1.367 . S
C813 C812 1.367 . S
C813 C815 1.433 . S
C814 C810 1.350 . S
C814 C811 1.463 1_565 S
C814 N818 1.427 . S
C815 H805 0.929 . S
C815 C813 1.433 . S
C815 N818 1.384 . S
C816 H807 0.929 . S
C816 C808 1.378 1_565 S
C816 C811 1.350 1_565 S
C817 H804 0.929 . S
C817 C809 1.433 . S
C817 N819 1.384 . S
N818 C814 1.427 . S
N818 C815 1.384 . S
N819 C811 1.427 . S
N819 C817 1.384 . S
H820 C826 0.930 . S
H821 C830 0.930 . S
H822 C835 0.929 . S
H823 C833 0.929 . S
H824 C828 0.929 . S
H825 C834 0.929 . S
C826 H820 0.930 . S
C826 C827 1.367 . S
C826 C834 1.378 . S
C827 C826 1.367 . S
C827 C835 1.433 . S
C828 H824 0.929 . S
C828 C830 1.378 . S
C828 C832 1.350 . S
C829 C832 1.463 . S
C829 C834 1.350 . S
C829 N837 1.427 . S
C830 H821 0.930 . S
C830 C828 1.378 . S
C830 C831 1.367 . S
C831 C830 1.367 . S
C831 C833 1.433 . S
C832 C828 1.350 . S
C832 C829 1.463 . S
C832 N836 1.427 . S
C833 H823 0.929 . S
C833 C831 1.433 . S
C833 N836 1.384 . S
C834 H825 0.929 . S
C834 C826 1.378 . S
C834 C829 1.350 . S
C835 H822 0.929 . S
C835 C827 1.433 . S
C835 N837 1.384 . S
N836 C832 1.427 . S
N836 C833 1.384 . S
N837 C829 1.427 . S
N837 C835 1.384 . S
H838 C844 0.930 1_556 S
H839 C848 0.930 . S
H840 C853 0.929 . S
H841 C851 0.929 . S
H842 C846 0.929 . S
H843 C852 0.929 1_545 S
C844 H838 0.930 1_554 S
C844 C845 1.367 . S
C844 C852 1.378 . S
C845 C844 1.367 . S
C845 C853 1.433 . S
C846 H842 0.929 . S
C846 C848 1.378 . S
C846 C850 1.350 . S
C847 C850 1.463 1_565 S
C847 C852 1.350 . S
C847 N855 1.427 . S
C848 H839 0.930 . S
C848 C846 1.378 . S
C848 C849 1.367 . S
C849 C848 1.367 . S
C849 C851 1.433 . S
C850 C846 1.350 . S
C850 C847 1.463 1_545 S
C850 N854 1.427 . S
C851 H841 0.929 . S
C851 C849 1.433 . S
C851 N854 1.384 . S
C852 H843 0.929 1_565 S
C852 C844 1.378 . S
C852 C847 1.350 . S
C853 H840 0.929 . S
C853 C845 1.433 . S
C853 N855 1.384 . S
N854 C850 1.427 . S
N854 C851 1.384 . S
N855 C847 1.427 . S
N855 C853 1.384 . S
H856 C862 0.930 . S
H857 C866 0.930 . S
H858 C871 0.929 . S
H859 C869 0.929 . S
H860 C864 0.929 . S
H861 C870 0.929 . S
C862 H856 0.930 . S
C862 C863 1.367 . S
C862 C870 1.378 . S
C863 C862 1.367 . S
C863 C871 1.433 . S
C864 H860 0.929 . S
C864 C866 1.378 . S
C864 C868 1.350 . S
C865 C868 1.463 . S
C865 C870 1.350 . S
C865 N873 1.427 . S
C866 H857 0.930 . S
C866 C864 1.378 . S
C866 C867 1.367 . S
C867 C866 1.367 . S
C867 C869 1.433 . S
C868 C864 1.350 . S
C868 C865 1.463 . S
C868 N872 1.427 . S
C869 H859 0.929 . S
C869 C867 1.433 . S
C869 N872 1.384 . S
C870 H861 0.929 . S
C870 C862 1.378 . S
C870 C865 1.350 . S
C871 H858 0.929 . S
C871 C863 1.433 . S
C871 N873 1.384 . S
N872 C868 1.427 . S
N872 C869 1.384 . S
N873 C865 1.427 . S
N873 C871 1.384 . S
H874 C880 0.930 . S
H875 C884 0.930 . S
H876 C889 0.929 . S
H877 C887 0.929 . S
H878 C882 0.929 . S
H879 C888 0.929 . S
C880 H874 0.930 . S
C880 C881 1.367 . S
C880 C888 1.378 . S
C881 C880 1.367 . S
C881 C889 1.433 . S
C882 H878 0.929 . S
C882 C884 1.378 . S
C882 C886 1.350 . S
C883 C886 1.463 1_545 S
C883 C888 1.350 . S
C883 N891 1.427 . S
C884 H875 0.930 . S
C884 C882 1.378 . S
C884 C885 1.367 . S
C885 C884 1.367 . S
C885 C887 1.433 . S
C886 C882 1.350 . S
C886 C883 1.463 1_565 S
C886 N890 1.427 . S
C887 H877 0.929 . S
C887 C885 1.433 . S
C887 N890 1.384 . S
C888 H879 0.929 . S
C888 C880 1.378 . S
C888 C883 1.350 . S
C889 H876 0.929 . S
C889 C881 1.433 . S
C889 N891 1.384 . S
N890 C886 1.427 . S
N890 C887 1.384 . S
N891 C883 1.427 . S
N891 C889 1.384 . S
H892 C898 0.930 . S
H893 C902 0.930 . S
H894 C907 0.929 . S
H895 C905 0.929 . S
H896 C900 0.929 . S
H897 C906 0.929 . S
C898 H892 0.930 . S
C898 C899 1.367 . S
C898 C906 1.378 . S
C899 C898 1.367 . S
C899 C907 1.433 . S
C900 H896 0.929 . S
C900 C902 1.378 . S
C900 C904 1.350 . S
C901 C904 1.463 . S
C901 C906 1.350 . S
C901 N909 1.427 . S
C902 H893 0.930 . S
C902 C900 1.378 . S
C902 C903 1.367 . S
C903 C902 1.367 . S
C903 C905 1.433 . S
C904 C900 1.350 . S
C904 C901 1.463 . S
C904 N908 1.427 . S
C905 H895 0.929 . S
C905 C903 1.433 . S
C905 N908 1.384 . S
C906 H897 0.929 . S
C906 C898 1.378 . S
C906 C901 1.350 . S
C907 H894 0.929 . S
C907 C899 1.433 . S
C907 N909 1.384 . S
N908 C904 1.427 . S
N908 C905 1.384 . S
N909 C901 1.427 . S
N909 C907 1.384 . S
H910 C916 0.930 . S
H911 C920 0.930 . S
H912 C925 0.929 . S
H913 C923 0.929 . S
H914 C918 0.929 . S
H915 C924 0.929 . S
C916 H910 0.930 . S
C916 C917 1.367 . S
C916 C924 1.378 . S
C917 C916 1.367 . S
C917 C925 1.433 . S
C918 H914 0.929 . S
C918 C920 1.378 . S
C918 C922 1.350 . S
C919 C922 1.463 1_545 S
C919 C924 1.350 . S
C919 N927 1.427 . S
C920 H911 0.930 . S
C920 C918 1.378 . S
C920 C921 1.367 . S
C921 C920 1.367 . S
C921 C923 1.433 . S
C922 C918 1.350 . S
C922 C919 1.463 1_565 S
C922 N926 1.427 . S
C923 H913 0.929 . S
C923 C921 1.433 . S
C923 N926 1.384 . S
C924 H915 0.929 . S
C924 C916 1.378 . S
C924 C919 1.350 . S
C925 H912 0.929 . S
C925 C917 1.433 . S
C925 N927 1.384 . S
N926 C922 1.427 . S
N926 C923 1.384 . S
N927 C919 1.427 . S
N927 C925 1.384 . S
H928 C934 0.930 . S
H929 C938 0.930 . S
H930 C943 0.929 . S
H931 C941 0.929 . S
H932 C936 0.929 . S
H933 C942 0.929 . S
C934 H928 0.930 . S
C934 C935 1.367 . S
C934 C942 1.378 . S
C935 C934 1.367 . S
C935 C943 1.433 . S
C936 H932 0.929 . S
C936 C938 1.378 . S
C936 C940 1.350 . S
C937 C940 1.463 . S
C937 C942 1.350 . S
C937 N945 1.427 . S
C938 H929 0.930 . S
C938 C936 1.378 . S
C938 C939 1.367 . S
C939 C938 1.367 . S
C939 C941 1.433 . S
C940 C936 1.350 . S
C940 C937 1.463 . S
C940 N944 1.427 . S
C941 H931 0.929 . S
C941 C939 1.433 . S
C941 N944 1.384 . S
C942 H933 0.929 . S
C942 C934 1.378 . S
C942 C937 1.350 . S
C943 H930 0.929 . S
C943 C935 1.433 . S
C943 N945 1.384 . S
N944 C940 1.427 . S
N944 C941 1.384 . S
N945 C937 1.427 . S
N945 C943 1.384 . S
H946 C952 0.930 . S
H947 C956 0.930 . S
H948 C961 0.929 . S
H949 C959 0.929 . S
H950 C954 0.929 . S
H951 C960 0.929 . S
C952 H946 0.930 . S
C952 C953 1.367 . S
C952 C960 1.378 . S
C953 C952 1.367 . S
C953 C961 1.433 . S
C954 H950 0.929 . S
C954 C956 1.378 1_556 S
C954 C958 1.350 . S
C955 C958 1.463 . S
C955 C960 1.350 . S
C955 N963 1.427 . S
C956 H947 0.930 . S
C956 C954 1.378 1_554 S
C956 C957 1.367 1_554 S
C957 C956 1.367 1_556 S
C957 C959 1.433 . S
C958 C954 1.350 . S
C958 C955 1.463 . S
C958 N962 1.427 . S
C959 H949 0.929 . S
C959 C957 1.433 . S
C959 N962 1.384 . S
C960 H951 0.929 . S
C960 C952 1.378 . S
C960 C955 1.350 . S
C961 H948 0.929 . S
C961 C953 1.433 . S
C961 N963 1.384 . S
N962 C958 1.427 . S
N962 C959 1.384 . S
N963 C955 1.427 . S
N963 C961 1.384 . S
H964 C970 0.930 . S
H965 C974 0.930 . S
H966 C979 0.929 . S
H967 C977 0.929 . S
H968 C972 0.929 . S
H969 C978 0.929 . S
C970 H964 0.930 . S
C970 C971 1.367 . S
C970 C978 1.378 . S
C971 C970 1.367 . S
C971 C979 1.433 . S
C972 H968 0.929 . S
C972 C974 1.378 . S
C972 C976 1.350 . S
C973 C976 1.463 . S
C973 C978 1.350 . S
C973 N981 1.427 . S
C974 H965 0.930 . S
C974 C972 1.378 . S
C974 C975 1.367 . S
C975 C974 1.367 . S
C975 C977 1.433 . S
C976 C972 1.350 . S
C976 C973 1.463 . S
C976 N980 1.427 . S
C977 H967 0.929 . S
C977 C975 1.433 . S
C977 N980 1.384 . S
C978 H969 0.929 . S
C978 C970 1.378 . S
C978 C973 1.350 . S
C979 H966 0.929 . S
C979 C971 1.433 . S
C979 N981 1.384 . S
N980 C976 1.427 . S
N980 C977 1.384 . S
N981 C973 1.427 . S
N981 C979 1.384 . S
H982 C988 0.930 . S
H983 C992 0.930 . S
H984 C997 0.929 . S
H985 C995 0.929 . S
H986 C990 0.929 . S
H987 C996 0.929 . S
C988 H982 0.930 . S
C988 C989 1.367 . S
C988 C996 1.378 . S
C989 C988 1.367 . S
C989 C997 1.433 . S
C990 H986 0.929 . S
C990 C992 1.378 . S
C990 C994 1.350 . S
C991 C994 1.463 . S
C991 C996 1.350 . S
C991 N999 1.427 . S
C992 H983 0.930 . S
C992 C990 1.378 . S
C992 C993 1.367 . S
C993 C992 1.367 . S
C993 C995 1.433 . S
C994 C990 1.350 . S
C994 C991 1.463 . S
C994 N998 1.427 . S
C995 H985 0.929 . S
C995 C993 1.433 . S
C995 N998 1.384 . S
C996 H987 0.929 . S
C996 C988 1.378 . S
C996 C991 1.350 . S
C997 H984 0.929 . S
C997 C989 1.433 . S
C997 N999 1.384 . S
N998 C994 1.427 . S
N998 C995 1.384 . S
N999 C991 1.427 . S
N999 C997 1.384 . S
H1000 C1006 0.930 . S
H1001 C1010 0.930 . S
H1002 C1015 0.929 . S
H1003 C1013 0.929 . S
H1004 C1008 0.929 . S
H1005 C1014 0.929 . S
C1006 H1000 0.930 . S
C1006 C1007 1.367 . S
C1006 C1014 1.378 . S
C1007 C1006 1.367 . S
C1007 C1015 1.433 . S
C1008 H1004 0.929 . S
C1008 C1010 1.378 . S
C1008 C1012 1.350 . S
C1009 C1012 1.463 . S
C1009 C1014 1.350 . S
C1009 N1017 1.427 . S
C1010 H1001 0.930 . S
C1010 C1008 1.378 . S
C1010 C1011 1.367 . S
C1011 C1010 1.367 . S
C1011 C1013 1.433 . S
C1012 C1008 1.350 . S
C1012 C1009 1.463 . S
C1012 N1016 1.427 . S
C1013 H1003 0.929 . S
C1013 C1011 1.433 . S
C1013 N1016 1.384 . S
C1014 H1005 0.929 . S
C1014 C1006 1.378 . S
C1014 C1009 1.350 . S
C1015 H1002 0.929 . S
C1015 C1007 1.433 . S
C1015 N1017 1.384 . S
N1016 C1012 1.427 . S
N1016 C1013 1.384 . S
N1017 C1009 1.427 . S
N1017 C1015 1.384 . S
H1018 C1024 0.930 . S
H1019 C1028 0.930 . S
H1020 C1033 0.929 . S
H1021 C1031 0.929 1_556 S
H1022 C1026 0.929 . S
H1023 C1032 0.929 . S
C1024 H1018 0.930 . S
C1024 C1025 1.367 . S
C1024 C1032 1.378 . S
C1025 C1024 1.367 . S
C1025 C1033 1.433 . S
C1026 H1022 0.929 . S
C1026 C1028 1.378 . S
C1026 C1030 1.350 . S
C1027 C1030 1.463 . S
C1027 C1032 1.350 . S
C1027 N1035 1.427 . S
C1028 H1019 0.930 . S
C1028 C1026 1.378 . S
C1028 C1029 1.367 . S
C1029 C1028 1.367 . S
C1029 C1031 1.433 . S
C1030 C1026 1.350 . S
C1030 C1027 1.463 . S
C1030 N1034 1.427 . S
C1031 H1021 0.929 1_554 S
C1031 C1029 1.433 . S
C1031 N1034 1.384 . S
C1032 H1023 0.929 . S
C1032 C1024 1.378 . S
C1032 C1027 1.350 . S
C1033 H1020 0.929 . S
C1033 C1025 1.433 . S
C1033 N1035 1.384 . S
N1034 C1030 1.427 . S
N1034 C1031 1.384 . S
N1035 C1027 1.427 . S
N1035 C1033 1.384 . S
H1036 C1042 0.930 . S
H1037 C1046 0.930 . S
H1038 C1051 0.929 . S
H1039 C1049 0.929 . S
H1040 C1044 0.929 . S
H1041 C1050 0.929 . S
C1042 H1036 0.930 . S
C1042 C1043 1.367 . S
C1042 C1050 1.378 . S
C1043 C1042 1.367 . S
C1043 C1051 1.433 . S
C1044 H1040 0.929 . S
C1044 C1046 1.378 . S
C1044 C1048 1.350 . S
C1045 C1048 1.463 . S
C1045 C1050 1.350 . S
C1045 N1053 1.427 . S
C1046 H1037 0.930 . S
C1046 C1044 1.378 . S
C1046 C1047 1.367 . S
C1047 C1046 1.367 . S
C1047 C1049 1.433 . S
C1048 C1044 1.350 . S
C1048 C1045 1.463 . S
C1048 N1052 1.427 . S
C1049 H1039 0.929 . S
C1049 C1047 1.433 . S
C1049 N1052 1.384 . S
C1050 H1041 0.929 . S
C1050 C1042 1.378 . S
C1050 C1045 1.350 . S
C1051 H1038 0.929 . S
C1051 C1043 1.433 . S
C1051 N1053 1.384 . S
N1052 C1048 1.427 . S
N1052 C1049 1.384 . S
N1053 C1045 1.427 . S
N1053 C1051 1.384 . S
H1054 C1060 0.930 . S
H1055 C1064 0.930 . S
H1056 C1069 0.929 . S
H1057 C1067 0.929 . S
H1058 C1062 0.929 . S
H1059 C1068 0.929 . S
C1060 H1054 0.930 . S
C1060 C1061 1.367 . S
C1060 C1068 1.378 . S
C1061 C1060 1.367 . S
C1061 C1069 1.433 . S
C1062 H1058 0.929 . S
C1062 C1064 1.378 . S
C1062 C1066 1.350 . S
C1063 C1066 1.463 . S
C1063 C1068 1.350 . S
C1063 N1071 1.427 . S
C1064 H1055 0.930 . S
C1064 C1062 1.378 . S
C1064 C1065 1.367 . S
C1065 C1064 1.367 . S
C1065 C1067 1.433 . S
C1066 C1062 1.350 . S
C1066 C1063 1.463 . S
C1066 N1070 1.427 . S
C1067 H1057 0.929 . S
C1067 C1065 1.433 . S
C1067 N1070 1.384 . S
C1068 H1059 0.929 . S
C1068 C1060 1.378 . S
C1068 C1063 1.350 . S
C1069 H1056 0.929 . S
C1069 C1061 1.433 . S
C1069 N1071 1.384 . S
N1070 C1066 1.427 . S
N1070 C1067 1.384 . S
N1071 C1063 1.427 . S
N1071 C1069 1.384 . S
H1072 C1078 0.930 . S
H1073 C1082 0.930 . S
H1074 C1087 0.929 . S
H1075 C1085 0.929 . S
H1076 C1080 0.929 . S
H1077 C1086 0.929 . S
C1078 H1072 0.930 . S
C1078 C1079 1.367 . S
C1078 C1086 1.378 . S
C1079 C1078 1.367 . S
C1079 C1087 1.433 . S
C1080 H1076 0.929 . S
C1080 C1082 1.378 . S
C1080 C1084 1.350 . S
C1081 C1084 1.463 . S
C1081 C1086 1.350 . S
C1081 N1089 1.427 . S
C1082 H1073 0.930 . S
C1082 C1080 1.378 . S
C1082 C1083 1.367 . S
C1083 C1082 1.367 . S
C1083 C1085 1.433 . S
C1084 C1080 1.350 . S
C1084 C1081 1.463 . S
C1084 N1088 1.427 . S
C1085 H1075 0.929 . S
C1085 C1083 1.433 . S
C1085 N1088 1.384 . S
C1086 H1077 0.929 . S
C1086 C1078 1.378 . S
C1086 C1081 1.350 . S
C1087 H1074 0.929 . S
C1087 C1079 1.433 . S
C1087 N1089 1.384 . S
N1088 C1084 1.427 . S
N1088 C1085 1.384 . S
N1089 C1081 1.427 . S
N1089 C1087 1.384 . S
H1090 C1096 0.930 . S
H1091 C1100 0.930 . S
H1092 C1105 0.929 . S
H1093 C1103 0.929 . S
H1094 C1098 0.929 . S
H1095 C1104 0.929 . S
C1096 H1090 0.930 . S
C1096 C1097 1.367 . S
C1096 C1104 1.378 . S
C1097 C1096 1.367 . S
C1097 C1105 1.433 . S
C1098 H1094 0.929 . S
C1098 C1100 1.378 1_554 S
C1098 C1102 1.350 . S
C1099 C1102 1.463 . S
C1099 C1104 1.350 . S
C1099 N1107 1.427 . S
C1100 H1091 0.930 . S
C1100 C1098 1.378 1_556 S
C1100 C1101 1.367 1_556 S
C1101 C1100 1.367 1_554 S
C1101 C1103 1.433 . S
C1102 C1098 1.350 . S
C1102 C1099 1.463 . S
C1102 N1106 1.427 . S
C1103 H1093 0.929 . S
C1103 C1101 1.433 . S
C1103 N1106 1.384 . S
C1104 H1095 0.929 . S
C1104 C1096 1.378 . S
C1104 C1099 1.350 . S
C1105 H1092 0.929 . S
C1105 C1097 1.433 . S
C1105 N1107 1.384 . S
N1106 C1102 1.427 . S
N1106 C1103 1.384 . S
N1107 C1099 1.427 . S
N1107 C1105 1.384 . S
H1108 C1114 0.930 . S
H1109 C1118 0.930 . S
H1110 C1123 0.929 . S
H1111 C1121 0.929 . S
H1112 C1116 0.929 . S
H1113 C1122 0.929 . S
C1114 H1108 0.930 . S
C1114 C1115 1.367 . S
C1114 C1122 1.378 . S
C1115 C1114 1.367 . S
C1115 C1123 1.433 . S
C1116 H1112 0.929 . S
C1116 C1118 1.378 . S
C1116 C1120 1.350 . S
C1117 C1120 1.463 . S
C1117 C1122 1.350 . S
C1117 N1125 1.427 . S
C1118 H1109 0.930 . S
C1118 C1116 1.378 . S
C1118 C1119 1.367 . S
C1119 C1118 1.367 . S
C1119 C1121 1.433 . S
C1120 C1116 1.350 . S
C1120 C1117 1.463 . S
C1120 N1124 1.427 . S
C1121 H1111 0.929 . S
C1121 C1119 1.433 . S
C1121 N1124 1.384 . S
C1122 H1113 0.929 . S
C1122 C1114 1.378 . S
C1122 C1117 1.350 . S
C1123 H1110 0.929 . S
C1123 C1115 1.433 . S
C1123 N1125 1.384 . S
N1124 C1120 1.427 . S
N1124 C1121 1.384 . S
N1125 C1117 1.427 . S
N1125 C1123 1.384 . S
H1126 C1132 0.930 . S
H1127 C1136 0.930 . S
H1128 C1141 0.929 . S
H1129 C1139 0.929 . S
H1130 C1134 0.929 . S
H1131 C1140 0.929 . S
C1132 H1126 0.930 . S
C1132 C1133 1.367 . S
C1132 C1140 1.378 . S
C1133 C1132 1.367 . S
C1133 C1141 1.433 . S
C1134 H1130 0.929 . S
C1134 C1136 1.378 . S
C1134 C1138 1.350 . S
C1135 C1138 1.463 . S
C1135 C1140 1.350 . S
C1135 N1143 1.427 . S
C1136 H1127 0.930 . S
C1136 C1134 1.378 . S
C1136 C1137 1.367 . S
C1137 C1136 1.367 . S
C1137 C1139 1.433 . S
C1138 C1134 1.350 . S
C1138 C1135 1.463 . S
C1138 N1142 1.427 . S
C1139 H1129 0.929 . S
C1139 C1137 1.433 . S
C1139 N1142 1.384 . S
C1140 H1131 0.929 . S
C1140 C1132 1.378 . S
C1140 C1135 1.350 . S
C1141 H1128 0.929 . S
C1141 C1133 1.433 . S
C1141 N1143 1.384 . S
N1142 C1138 1.427 . S
N1142 C1139 1.384 . S
N1143 C1135 1.427 . S
N1143 C1141 1.384 . S
H1144 C1150 0.930 . S
H1145 C1154 0.930 . S
H1146 C1159 0.929 . S
H1147 C1157 0.929 . S
H1148 C1152 0.929 . S
H1149 C1158 0.929 . S
C1150 H1144 0.930 . S
C1150 C1151 1.367 . S
C1150 C1158 1.378 . S
C1151 C1150 1.367 . S
C1151 C1159 1.433 . S
C1152 H1148 0.929 . S
C1152 C1154 1.378 . S
C1152 C1156 1.350 . S
C1153 C1156 1.463 . S
C1153 C1158 1.350 . S
C1153 N1161 1.427 . S
C1154 H1145 0.930 . S
C1154 C1152 1.378 . S
C1154 C1155 1.367 . S
C1155 C1154 1.367 . S
C1155 C1157 1.433 . S
C1156 C1152 1.350 . S
C1156 C1153 1.463 . S
C1156 N1160 1.427 . S
C1157 H1147 0.929 . S
C1157 C1155 1.433 . S
C1157 N1160 1.384 . S
C1158 H1149 0.929 . S
C1158 C1150 1.378 . S
C1158 C1153 1.350 . S
C1159 H1146 0.929 . S
C1159 C1151 1.433 . S
C1159 N1161 1.384 . S
N1160 C1156 1.427 . S
N1160 C1157 1.384 . S
N1161 C1153 1.427 . S
N1161 C1159 1.384 . S
H1162 C1168 0.930 . S
H1163 C1172 0.930 . S
H1164 C1177 0.929 . S
H1165 C1175 0.929 . S
H1166 C1170 0.929 . S
H1167 C1176 0.929 . S
C1168 H1162 0.930 . S
C1168 C1169 1.367 . S
C1168 C1176 1.378 . S
C1169 C1168 1.367 . S
C1169 C1177 1.433 . S
C1170 H1166 0.929 . S
C1170 C1172 1.378 1_556 S
C1170 C1174 1.350 . S
C1171 C1174 1.463 . S
C1171 C1176 1.350 . S
C1171 N1179 1.427 . S
C1172 H1163 0.930 . S
C1172 C1170 1.378 1_554 S
C1172 C1173 1.367 1_554 S
C1173 C1172 1.367 1_556 S
C1173 C1175 1.433 . S
C1174 C1170 1.350 . S
C1174 C1171 1.463 . S
C1174 N1178 1.427 . S
C1175 H1165 0.929 . S
C1175 C1173 1.433 . S
C1175 N1178 1.384 . S
C1176 H1167 0.929 . S
C1176 C1168 1.378 . S
C1176 C1171 1.350 . S
C1177 H1164 0.929 . S
C1177 C1169 1.433 . S
C1177 N1179 1.384 . S
N1178 C1174 1.427 . S
N1178 C1175 1.384 . S
N1179 C1171 1.427 . S
N1179 C1177 1.384 . S
H1180 C1186 0.930 . S
H1181 C1190 0.930 . S
H1182 C1195 0.929 . S
H1183 C1193 0.929 . S
H1184 C1188 0.929 . S
H1185 C1194 0.929 . S
C1186 H1180 0.930 . S
C1186 C1187 1.367 . S
C1186 C1194 1.378 . S
C1187 C1186 1.367 . S
C1187 C1195 1.433 . S
C1188 H1184 0.929 . S
C1188 C1190 1.378 . S
C1188 C1192 1.350 . S
C1189 C1192 1.463 . S
C1189 C1194 1.350 . S
C1189 N1197 1.427 . S
C1190 H1181 0.930 . S
C1190 C1188 1.378 . S
C1190 C1191 1.367 . S
C1191 C1190 1.367 . S
C1191 C1193 1.433 . S
C1192 C1188 1.350 . S
C1192 C1189 1.463 . S
C1192 N1196 1.427 . S
C1193 H1183 0.929 . S
C1193 C1191 1.433 . S
C1193 N1196 1.384 . S
C1194 H1185 0.929 . S
C1194 C1186 1.378 . S
C1194 C1189 1.350 . S
C1195 H1182 0.929 . S
C1195 C1187 1.433 . S
C1195 N1197 1.384 . S
N1196 C1192 1.427 . S
N1196 C1193 1.384 . S
N1197 C1189 1.427 . S
N1197 C1195 1.384 . S
H1198 C1204 0.930 . S
H1199 C1208 0.930 . S
H1200 C1213 0.929 . S
H1201 C1211 0.929 . S
H1202 C1206 0.929 . S
H1203 C1212 0.929 . S
C1204 H1198 0.930 . S
C1204 C1205 1.367 . S
C1204 C1212 1.378 . S
C1205 C1204 1.367 . S
C1205 C1213 1.433 . S
C1206 H1202 0.929 . S
C1206 C1208 1.378 . S
C1206 C1210 1.350 . S
C1207 C1210 1.463 . S
C1207 C1212 1.350 . S
C1207 N1215 1.427 . S
C1208 H1199 0.930 . S
C1208 C1206 1.378 . S
C1208 C1209 1.367 . S
C1209 C1208 1.367 . S
C1209 C1211 1.433 . S
C1210 C1206 1.350 . S
C1210 C1207 1.463 . S
C1210 N1214 1.427 . S
C1211 H1201 0.929 . S
C1211 C1209 1.433 . S
C1211 N1214 1.384 . S
C1212 H1203 0.929 . S
C1212 C1204 1.378 . S
C1212 C1207 1.350 . S
C1213 H1200 0.929 . S
C1213 C1205 1.433 . S
C1213 N1215 1.384 . S
N1214 C1210 1.427 . S
N1214 C1211 1.384 . S
N1215 C1207 1.427 . S
N1215 C1213 1.384 . S
H1216 C1222 0.930 . S
H1217 C1226 0.930 . S
H1218 C1231 0.929 . S
H1219 C1229 0.929 . S
H1220 C1224 0.929 . S
H1221 C1230 0.929 . S
C1222 H1216 0.930 . S
C1222 C1223 1.367 . S
C1222 C1230 1.378 . S
C1223 C1222 1.367 . S
C1223 C1231 1.433 . S
C1224 H1220 0.929 . S
C1224 C1226 1.378 . S
C1224 C1228 1.350 . S
C1225 C1228 1.463 . S
C1225 C1230 1.350 . S
C1225 N1233 1.427 . S
C1226 H1217 0.930 . S
C1226 C1224 1.378 . S
C1226 C1227 1.367 . S
C1227 C1226 1.367 . S
C1227 C1229 1.433 . S
C1228 C1224 1.350 . S
C1228 C1225 1.463 . S
C1228 N1232 1.427 . S
C1229 H1219 0.929 . S
C1229 C1227 1.433 . S
C1229 N1232 1.384 . S
C1230 H1221 0.929 . S
C1230 C1222 1.378 . S
C1230 C1225 1.350 . S
C1231 H1218 0.929 . S
C1231 C1223 1.433 . S
C1231 N1233 1.384 . S
N1232 C1228 1.427 . S
N1232 C1229 1.384 . S
N1233 C1225 1.427 . S
N1233 C1231 1.384 . S
H1234 C1240 0.930 . S
H1235 C1244 0.930 . S
H1236 C1249 0.929 . S
H1237 C1247 0.929 . S
H1238 C1242 0.929 . S
H1239 C1248 0.929 1_655 S
C1240 H1234 0.930 . S
C1240 C1241 1.367 . S
C1240 C1248 1.378 . S
C1241 C1240 1.367 . S
C1241 C1249 1.433 . S
C1242 H1238 0.929 . S
C1242 C1244 1.378 . S
C1242 C1246 1.350 . S
C1243 C1246 1.463 1_455 S
C1243 C1248 1.350 . S
C1243 N1251 1.427 . S
C1244 H1235 0.930 . S
C1244 C1242 1.378 . S
C1244 C1245 1.367 . S
C1245 C1244 1.367 . S
C1245 C1247 1.433 . S
C1246 C1242 1.350 . S
C1246 C1243 1.463 1_655 S
C1246 N1250 1.427 . S
C1247 H1237 0.929 . S
C1247 C1245 1.433 . S
C1247 N1250 1.384 . S
C1248 H1239 0.929 1_455 S
C1248 C1240 1.378 . S
C1248 C1243 1.350 . S
C1249 H1236 0.929 . S
C1249 C1241 1.433 . S
C1249 N1251 1.384 . S
N1250 C1246 1.427 . S
N1250 C1247 1.384 . S
N1251 C1243 1.427 . S
N1251 C1249 1.384 . S
H1252 C1258 0.930 . S
H1253 C1262 0.930 . S
H1254 C1267 0.929 . S
H1255 C1265 0.929 . S
H1256 C1260 0.929 . S
H1257 C1266 0.929 . S
C1258 H1252 0.930 . S
C1258 C1259 1.367 . S
C1258 C1266 1.378 . S
C1259 C1258 1.367 . S
C1259 C1267 1.433 . S
C1260 H1256 0.929 . S
C1260 C1262 1.378 . S
C1260 C1264 1.350 . S
C1261 C1264 1.463 . S
C1261 C1266 1.350 . S
C1261 N1269 1.427 . S
C1262 H1253 0.930 . S
C1262 C1260 1.378 . S
C1262 C1263 1.367 . S
C1263 C1262 1.367 . S
C1263 C1265 1.433 . S
C1264 C1260 1.350 . S
C1264 C1261 1.463 . S
C1264 N1268 1.427 . S
C1265 H1255 0.929 . S
C1265 C1263 1.433 . S
C1265 N1268 1.384 . S
C1266 H1257 0.929 . S
C1266 C1258 1.378 . S
C1266 C1261 1.350 . S
C1267 H1254 0.929 . S
C1267 C1259 1.433 . S
C1267 N1269 1.384 . S
N1268 C1264 1.427 . S
N1268 C1265 1.384 . S
N1269 C1261 1.427 . S
N1269 C1267 1.384 . S
H1270 C1276 0.930 . S
H1271 C1280 0.930 . S
H1272 C1285 0.929 . S
H1273 C1283 0.929 . S
H1274 C1278 0.929 . S
H1275 C1284 0.929 . S
C1276 H1270 0.930 . S
C1276 C1277 1.367 . S
C1276 C1284 1.378 . S
C1277 C1276 1.367 . S
C1277 C1285 1.433 . S
C1278 H1274 0.929 . S
C1278 C1280 1.378 . S
C1278 C1282 1.350 . S
C1279 C1282 1.463 . S
C1279 C1284 1.350 . S
C1279 N1287 1.427 . S
C1280 H1271 0.930 . S
C1280 C1278 1.378 . S
C1280 C1281 1.367 . S
C1281 C1280 1.367 . S
C1281 C1283 1.433 . S
C1282 C1278 1.350 . S
C1282 C1279 1.463 . S
C1282 N1286 1.427 . S
C1283 H1273 0.929 . S
C1283 C1281 1.433 . S
C1283 N1286 1.384 . S
C1284 H1275 0.929 . S
C1284 C1276 1.378 . S
C1284 C1279 1.350 . S
C1285 H1272 0.929 . S
C1285 C1277 1.433 . S
C1285 N1287 1.384 . S
N1286 C1282 1.427 . S
N1286 C1283 1.384 . S
N1287 C1279 1.427 . S
N1287 C1285 1.384 . S
H1288 C1294 0.930 . S
H1289 C1298 0.930 . S
H1290 C1303 0.929 . S
H1291 C1301 0.929 . S
H1292 C1296 0.929 . S
H1293 C1302 0.929 . S
C1294 H1288 0.930 . S
C1294 C1295 1.367 . S
C1294 C1302 1.378 . S
C1295 C1294 1.367 . S
C1295 C1303 1.433 . S
C1296 H1292 0.929 . S
C1296 C1298 1.378 . S
C1296 C1300 1.350 . S
C1297 C1300 1.463 . S
C1297 C1302 1.350 . S
C1297 N1305 1.427 . S
C1298 H1289 0.930 . S
C1298 C1296 1.378 . S
C1298 C1299 1.367 . S
C1299 C1298 1.367 . S
C1299 C1301 1.433 . S
C1300 C1296 1.350 . S
C1300 C1297 1.463 . S
C1300 N1304 1.427 . S
C1301 H1291 0.929 . S
C1301 C1299 1.433 . S
C1301 N1304 1.384 . S
C1302 H1293 0.929 . S
C1302 C1294 1.378 . S
C1302 C1297 1.350 . S
C1303 H1290 0.929 . S
C1303 C1295 1.433 . S
C1303 N1305 1.384 . S
N1304 C1300 1.427 . S
N1304 C1301 1.384 . S
N1305 C1297 1.427 . S
N1305 C1303 1.384 . S
H1306 C1312 0.930 . S
H1307 C1316 0.930 . S
H1308 C1321 0.929 . S
H1309 C1319 0.929 . S
H1310 C1314 0.929 . S
H1311 C1320 0.929 . S
C1312 H1306 0.930 . S
C1312 C1313 1.367 . S
C1312 C1320 1.378 . S
C1313 C1312 1.367 . S
C1313 C1321 1.433 . S
C1314 H1310 0.929 . S
C1314 C1316 1.378 . S
C1314 C1318 1.350 . S
C1315 C1318 1.463 . S
C1315 C1320 1.350 . S
C1315 N1323 1.427 . S
C1316 H1307 0.930 . S
C1316 C1314 1.378 . S
C1316 C1317 1.367 . S
C1317 C1316 1.367 . S
C1317 C1319 1.433 . S
C1318 C1314 1.350 . S
C1318 C1315 1.463 . S
C1318 N1322 1.427 . S
C1319 H1309 0.929 . S
C1319 C1317 1.433 . S
C1319 N1322 1.384 . S
C1320 H1311 0.929 . S
C1320 C1312 1.378 . S
C1320 C1315 1.350 . S
C1321 H1308 0.929 . S
C1321 C1313 1.433 . S
C1321 N1323 1.384 . S
N1322 C1318 1.427 . S
N1322 C1319 1.384 . S
N1323 C1315 1.427 . S
N1323 C1321 1.384 . S
H1324 C1330 0.930 . S
H1325 C1334 0.930 . S
H1326 C1339 0.929 . S
H1327 C1337 0.929 . S
H1328 C1332 0.929 . S
H1329 C1338 0.929 . S
C1330 H1324 0.930 . S
C1330 C1331 1.367 . S
C1330 C1338 1.378 . S
C1331 C1330 1.367 . S
C1331 C1339 1.433 . S
C1332 H1328 0.929 . S
C1332 C1334 1.378 . S
C1332 C1336 1.350 . S
C1333 C1336 1.463 . S
C1333 C1338 1.350 . S
C1333 N1341 1.427 . S
C1334 H1325 0.930 . S
C1334 C1332 1.378 . S
C1334 C1335 1.367 . S
C1335 C1334 1.367 . S
C1335 C1337 1.433 . S
C1336 C1332 1.350 . S
C1336 C1333 1.463 . S
C1336 N1340 1.427 . S
C1337 H1327 0.929 . S
C1337 C1335 1.433 . S
C1337 N1340 1.384 . S
C1338 H1329 0.929 . S
C1338 C1330 1.378 . S
C1338 C1333 1.350 . S
C1339 H1326 0.929 . S
C1339 C1331 1.433 . S
C1339 N1341 1.384 . S
N1340 C1336 1.427 . S
N1340 C1337 1.384 . S
N1341 C1333 1.427 . S
N1341 C1339 1.384 . S
H1342 C1348 0.930 . S
H1343 C1352 0.930 . S
H1344 C1357 0.929 . S
H1345 C1355 0.929 . S
H1346 C1350 0.929 . S
H1347 C1356 0.929 1_655 S
C1348 H1342 0.930 . S
C1348 C1349 1.367 . S
C1348 C1356 1.378 . S
C1349 C1348 1.367 . S
C1349 C1357 1.433 . S
C1350 H1346 0.929 . S
C1350 C1352 1.378 . S
C1350 C1354 1.350 . S
C1351 C1354 1.463 1_455 S
C1351 C1356 1.350 . S
C1351 N1359 1.427 . S
C1352 H1343 0.930 . S
C1352 C1350 1.378 . S
C1352 C1353 1.367 . S
C1353 C1352 1.367 . S
C1353 C1355 1.433 . S
C1354 C1350 1.350 . S
C1354 C1351 1.463 1_655 S
C1354 N1358 1.427 . S
C1355 H1345 0.929 . S
C1355 C1353 1.433 . S
C1355 N1358 1.384 . S
C1356 H1347 0.929 1_455 S
C1356 C1348 1.378 . S
C1356 C1351 1.350 . S
C1357 H1344 0.929 . S
C1357 C1349 1.433 . S
C1357 N1359 1.384 . S
N1358 C1354 1.427 . S
N1358 C1355 1.384 . S
N1359 C1351 1.427 . S
N1359 C1357 1.384 . S
H1360 C1366 0.930 . S
H1361 C1370 0.930 . S
H1362 C1375 0.929 . S
H1363 C1373 0.929 . S
H1364 C1368 0.929 . S
H1365 C1374 0.929 . S
C1366 H1360 0.930 . S
C1366 C1367 1.367 . S
C1366 C1374 1.378 . S
C1367 C1366 1.367 . S
C1367 C1375 1.433 . S
C1368 H1364 0.929 . S
C1368 C1370 1.378 . S
C1368 C1372 1.350 . S
C1369 C1372 1.463 . S
C1369 C1374 1.350 . S
C1369 N1377 1.427 . S
C1370 H1361 0.930 . S
C1370 C1368 1.378 . S
C1370 C1371 1.367 . S
C1371 C1370 1.367 . S
C1371 C1373 1.433 . S
C1372 C1368 1.350 . S
C1372 C1369 1.463 . S
C1372 N1376 1.427 . S
C1373 H1363 0.929 . S
C1373 C1371 1.433 . S
C1373 N1376 1.384 . S
C1374 H1365 0.929 . S
C1374 C1366 1.378 . S
C1374 C1369 1.350 . S
C1375 H1362 0.929 . S
C1375 C1367 1.433 . S
C1375 N1377 1.384 . S
N1376 C1372 1.427 . S
N1376 C1373 1.384 . S
N1377 C1369 1.427 . S
N1377 C1375 1.384 . S
H1378 C1384 0.930 . S
H1379 C1388 0.930 . S
H1380 C1393 0.929 . S
H1381 C1391 0.929 . S
H1382 C1386 0.929 1_455 S
H1383 C1392 0.929 . S
C1384 H1378 0.930 . S
C1384 C1385 1.367 . S
C1384 C1392 1.378 . S
C1385 C1384 1.367 . S
C1385 C1393 1.433 . S
C1386 H1382 0.929 1_655 S
C1386 C1388 1.378 . S
C1386 C1390 1.350 . S
C1387 C1390 1.463 1_455 S
C1387 C1392 1.350 . S
C1387 N1395 1.427 . S
C1388 H1379 0.930 . S
C1388 C1386 1.378 . S
C1388 C1389 1.367 . S
C1389 C1388 1.367 . S
C1389 C1391 1.433 . S
C1390 C1386 1.350 . S
C1390 C1387 1.463 1_655 S
C1390 N1394 1.427 . S
C1391 H1381 0.929 . S
C1391 C1389 1.433 . S
C1391 N1394 1.384 . S
C1392 H1383 0.929 . S
C1392 C1384 1.378 . S
C1392 C1387 1.350 . S
C1393 H1380 0.929 . S
C1393 C1385 1.433 . S
C1393 N1395 1.384 . S
N1394 C1390 1.427 . S
N1394 C1391 1.384 . S
N1395 C1387 1.427 . S
N1395 C1393 1.384 . S
H1396 C1402 0.930 . S
H1397 C1406 0.930 . S
H1398 C1411 0.929 . S
H1399 C1409 0.929 . S
H1400 C1404 0.929 . S
H1401 C1410 0.929 . S
C1402 H1396 0.930 . S
C1402 C1403 1.367 . S
C1402 C1410 1.378 . S
C1403 C1402 1.367 . S
C1403 C1411 1.433 . S
C1404 H1400 0.929 . S
C1404 C1406 1.378 . S
C1404 C1408 1.350 . S
C1405 C1408 1.463 . S
C1405 C1410 1.350 . S
C1405 N1413 1.427 . S
C1406 H1397 0.930 . S
C1406 C1404 1.378 . S
C1406 C1407 1.367 . S
C1407 C1406 1.367 . S
C1407 C1409 1.433 . S
C1408 C1404 1.350 . S
C1408 C1405 1.463 . S
C1408 N1412 1.427 . S
C1409 H1399 0.929 . S
C1409 C1407 1.433 . S
C1409 N1412 1.384 . S
C1410 H1401 0.929 . S
C1410 C1402 1.378 . S
C1410 C1405 1.350 . S
C1411 H1398 0.929 . S
C1411 C1403 1.433 . S
C1411 N1413 1.384 . S
N1412 C1408 1.427 . S
N1412 C1409 1.384 . S
N1413 C1405 1.427 . S
N1413 C1411 1.384 . S
H1414 C1420 0.930 . S
H1415 C1424 0.930 . S
H1416 C1429 0.929 . S
H1417 C1427 0.929 . S
H1418 C1422 0.929 . S
H1419 C1428 0.929 . S
C1420 H1414 0.930 . S
C1420 C1421 1.367 . S
C1420 C1428 1.378 . S
C1421 C1420 1.367 . S
C1421 C1429 1.433 . S
C1422 H1418 0.929 . S
C1422 C1424 1.378 . S
C1422 C1426 1.350 . S
C1423 C1426 1.463 . S
C1423 C1428 1.350 . S
C1423 N1431 1.427 . S
C1424 H1415 0.930 . S
C1424 C1422 1.378 . S
C1424 C1425 1.367 . S
C1425 C1424 1.367 . S
C1425 C1427 1.433 . S
C1426 C1422 1.350 . S
C1426 C1423 1.463 . S
C1426 N1430 1.427 . S
C1427 H1417 0.929 . S
C1427 C1425 1.433 . S
C1427 N1430 1.384 . S
C1428 H1419 0.929 . S
C1428 C1420 1.378 . S
C1428 C1423 1.350 . S
C1429 H1416 0.929 . S
C1429 C1421 1.433 . S
C1429 N1431 1.384 . S
N1430 C1426 1.427 . S
N1430 C1427 1.384 . S
N1431 C1423 1.427 . S
N1431 C1429 1.384 . S
H1432 C1438 0.930 . S
H1433 C1442 0.930 . S
H1434 C1447 0.929 . S
H1435 C1445 0.929 . S
H1436 C1440 0.929 . S
H1437 C1446 0.929 . S
C1438 H1432 0.930 . S
C1438 C1439 1.367 . S
C1438 C1446 1.378 . S
C1439 C1438 1.367 . S
C1439 C1447 1.433 . S
C1440 H1436 0.929 . S
C1440 C1442 1.378 . S
C1440 C1444 1.350 . S
C1441 C1444 1.463 . S
C1441 C1446 1.350 . S
C1441 N1449 1.427 . S
C1442 H1433 0.930 . S
C1442 C1440 1.378 . S
C1442 C1443 1.367 . S
C1443 C1442 1.367 . S
C1443 C1445 1.433 . S
C1444 C1440 1.350 . S
C1444 C1441 1.463 . S
C1444 N1448 1.427 . S
C1445 H1435 0.929 . S
C1445 C1443 1.433 . S
C1445 N1448 1.384 . S
C1446 H1437 0.929 . S
C1446 C1438 1.378 . S
C1446 C1441 1.350 . S
C1447 H1434 0.929 . S
C1447 C1439 1.433 . S
C1447 N1449 1.384 . S
N1448 C1444 1.427 . S
N1448 C1445 1.384 . S
N1449 C1441 1.427 . S
N1449 C1447 1.384 . S
H1450 C1456 0.930 . S
H1451 C1460 0.930 . S
H1452 C1465 0.929 . S
H1453 C1463 0.929 . S
H1454 C1458 0.929 . S
H1455 C1464 0.929 . S
C1456 H1450 0.930 . S
C1456 C1457 1.367 . S
C1456 C1464 1.378 . S
C1457 C1456 1.367 . S
C1457 C1465 1.433 . S
C1458 H1454 0.929 . S
C1458 C1460 1.378 . S
C1458 C1462 1.350 . S
C1459 C1462 1.463 . S
C1459 C1464 1.350 . S
C1459 N1467 1.427 . S
C1460 H1451 0.930 . S
C1460 C1458 1.378 . S
C1460 C1461 1.367 . S
C1461 C1460 1.367 . S
C1461 C1463 1.433 . S
C1462 C1458 1.350 . S
C1462 C1459 1.463 . S
C1462 N1466 1.427 . S
C1463 H1453 0.929 . S
C1463 C1461 1.433 . S
C1463 N1466 1.384 . S
C1464 H1455 0.929 . S
C1464 C1456 1.378 . S
C1464 C1459 1.350 . S
C1465 H1452 0.929 . S
C1465 C1457 1.433 . S
C1465 N1467 1.384 . S
N1466 C1462 1.427 . S
N1466 C1463 1.384 . S
N1467 C1459 1.427 . S
N1467 C1465 1.384 . S
H1468 C1474 0.930 . S
H1469 C1478 0.930 . S
H1470 C1483 0.929 . S
H1471 C1481 0.929 . S
H1472 C1476 0.929 . S
H1473 C1482 0.929 . S
C1474 H1468 0.930 . S
C1474 C1475 1.367 . S
C1474 C1482 1.378 . S
C1475 C1474 1.367 . S
C1475 C1483 1.433 . S
C1476 H1472 0.929 . S
C1476 C1478 1.378 . S
C1476 C1480 1.350 . S
C1477 C1480 1.463 . S
C1477 C1482 1.350 . S
C1477 N1485 1.427 . S
C1478 H1469 0.930 . S
C1478 C1476 1.378 . S
C1478 C1479 1.367 . S
C1479 C1478 1.367 . S
C1479 C1481 1.433 . S
C1480 C1476 1.350 . S
C1480 C1477 1.463 . S
C1480 N1484 1.427 . S
C1481 H1471 0.929 . S
C1481 C1479 1.433 . S
C1481 N1484 1.384 . S
C1482 H1473 0.929 . S
C1482 C1474 1.378 . S
C1482 C1477 1.350 . S
C1483 H1470 0.929 . S
C1483 C1475 1.433 . S
C1483 N1485 1.384 . S
N1484 C1480 1.427 . S
N1484 C1481 1.384 . S
N1485 C1477 1.427 . S
N1485 C1483 1.384 . S
H1486 C1492 0.930 . S
H1487 C1496 0.930 . S
H1488 C1501 0.929 . S
H1489 C1499 0.929 . S
H1490 C1494 0.929 . S
H1491 C1500 0.929 . S
C1492 H1486 0.930 . S
C1492 C1493 1.367 . S
C1492 C1500 1.378 . S
C1493 C1492 1.367 . S
C1493 C1501 1.433 . S
C1494 H1490 0.929 . S
C1494 C1496 1.378 . S
C1494 C1498 1.350 . S
C1495 C1498 1.463 1_655 S
C1495 C1500 1.350 . S
C1495 N1503 1.427 . S
C1496 H1487 0.930 . S
C1496 C1494 1.378 . S
C1496 C1497 1.367 . S
C1497 C1496 1.367 . S
C1497 C1499 1.433 . S
C1498 C1494 1.350 . S
C1498 C1495 1.463 1_455 S
C1498 N1502 1.427 . S
C1499 H1489 0.929 . S
C1499 C1497 1.433 . S
C1499 N1502 1.384 . S
C1500 H1491 0.929 . S
C1500 C1492 1.378 . S
C1500 C1495 1.350 . S
C1501 H1488 0.929 . S
C1501 C1493 1.433 . S
C1501 N1503 1.384 . S
N1502 C1498 1.427 . S
N1502 C1499 1.384 . S
N1503 C1495 1.427 . S
N1503 C1501 1.384 . S
H1504 C1510 0.930 . S
H1505 C1514 0.930 . S
H1506 C1519 0.929 . S
H1507 C1517 0.929 . S
H1508 C1512 0.929 . S
H1509 C1518 0.929 . S
C1510 H1504 0.930 . S
C1510 C1511 1.367 . S
C1510 C1518 1.378 . S
C1511 C1510 1.367 . S
C1511 C1519 1.433 . S
C1512 H1508 0.929 . S
C1512 C1514 1.378 . S
C1512 C1516 1.350 . S
C1513 C1516 1.463 . S
C1513 C1518 1.350 . S
C1513 N1521 1.427 . S
C1514 H1505 0.930 . S
C1514 C1512 1.378 . S
C1514 C1515 1.367 . S
C1515 C1514 1.367 . S
C1515 C1517 1.433 . S
C1516 C1512 1.350 . S
C1516 C1513 1.463 . S
C1516 N1520 1.427 . S
C1517 H1507 0.929 . S
C1517 C1515 1.433 . S
C1517 N1520 1.384 . S
C1518 H1509 0.929 . S
C1518 C1510 1.378 . S
C1518 C1513 1.350 . S
C1519 H1506 0.929 . S
C1519 C1511 1.433 . S
C1519 N1521 1.384 . S
N1520 C1516 1.427 . S
N1520 C1517 1.384 . S
N1521 C1513 1.427 . S
N1521 C1519 1.384 . S
H1522 C1528 0.930 . S
H1523 C1532 0.930 . S
H1524 C1537 0.929 . S
H1525 C1535 0.929 . S
H1526 C1530 0.929 . S
H1527 C1536 0.929 . S
C1528 H1522 0.930 . S
C1528 C1529 1.367 . S
C1528 C1536 1.378 . S
C1529 C1528 1.367 . S
C1529 C1537 1.433 . S
C1530 H1526 0.929 . S
C1530 C1532 1.378 . S
C1530 C1534 1.350 . S
C1531 C1534 1.463 . S
C1531 C1536 1.350 . S
C1531 N1539 1.427 . S
C1532 H1523 0.930 . S
C1532 C1530 1.378 . S
C1532 C1533 1.367 . S
C1533 C1532 1.367 . S
C1533 C1535 1.433 . S
C1534 C1530 1.350 . S
C1534 C1531 1.463 . S
C1534 N1538 1.427 . S
C1535 H1525 0.929 . S
C1535 C1533 1.433 . S
C1535 N1538 1.384 . S
C1536 H1527 0.929 . S
C1536 C1528 1.378 . S
C1536 C1531 1.350 . S
C1537 H1524 0.929 . S
C1537 C1529 1.433 . S
C1537 N1539 1.384 . S
N1538 C1534 1.427 . S
N1538 C1535 1.384 . S
N1539 C1531 1.427 . S
N1539 C1537 1.384 . S
H1540 C1546 0.930 . S
H1541 C1550 0.930 . S
H1542 C1555 0.929 . S
H1543 C1553 0.929 . S
H1544 C1548 0.929 . S
H1545 C1554 0.929 . S
C1546 H1540 0.930 . S
C1546 C1547 1.367 . S
C1546 C1554 1.378 . S
C1547 C1546 1.367 . S
C1547 C1555 1.433 . S
C1548 H1544 0.929 . S
C1548 C1550 1.378 . S
C1548 C1552 1.350 . S
C1549 C1552 1.463 . S
C1549 C1554 1.350 . S
C1549 N1557 1.427 . S
C1550 H1541 0.930 . S
C1550 C1548 1.378 . S
C1550 C1551 1.367 . S
C1551 C1550 1.367 . S
C1551 C1553 1.433 . S
C1552 C1548 1.350 . S
C1552 C1549 1.463 . S
C1552 N1556 1.427 . S
C1553 H1543 0.929 . S
C1553 C1551 1.433 . S
C1553 N1556 1.384 . S
C1554 H1545 0.929 . S
C1554 C1546 1.378 . S
C1554 C1549 1.350 . S
C1555 H1542 0.929 . S
C1555 C1547 1.433 . S
C1555 N1557 1.384 . S
N1556 C1552 1.427 . S
N1556 C1553 1.384 . S
N1557 C1549 1.427 . S
N1557 C1555 1.384 . S
H1558 C1564 0.930 . S
H1559 C1568 0.930 . S
H1560 C1573 0.929 . S
H1561 C1571 0.929 . S
H1562 C1566 0.929 . S
H1563 C1572 0.929 . S
C1564 H1558 0.930 . S
C1564 C1565 1.367 . S
C1564 C1572 1.378 . S
C1565 C1564 1.367 . S
C1565 C1573 1.433 . S
C1566 H1562 0.929 . S
C1566 C1568 1.378 . S
C1566 C1570 1.350 . S
C1567 C1570 1.463 1_655 S
C1567 C1572 1.350 . S
C1567 N1575 1.427 . S
C1568 H1559 0.930 . S
C1568 C1566 1.378 . S
C1568 C1569 1.367 . S
C1569 C1568 1.367 . S
C1569 C1571 1.433 . S
C1570 C1566 1.350 . S
C1570 C1567 1.463 1_455 S
C1570 N1574 1.427 . S
C1571 H1561 0.929 . S
C1571 C1569 1.433 . S
C1571 N1574 1.384 . S
C1572 H1563 0.929 . S
C1572 C1564 1.378 . S
C1572 C1567 1.350 . S
C1573 H1560 0.929 . S
C1573 C1565 1.433 . S
C1573 N1575 1.384 . S
N1574 C1570 1.427 . S
N1574 C1571 1.384 . S
N1575 C1567 1.427 . S
N1575 C1573 1.384 . S
H1576 C1582 0.930 . S
H1577 C1586 0.930 . S
H1578 C1591 0.929 . S
H1579 C1589 0.929 . S
H1580 C1584 0.929 . S
H1581 C1590 0.929 . S
C1582 H1576 0.930 . S
C1582 C1583 1.367 . S
C1582 C1590 1.378 . S
C1583 C1582 1.367 . S
C1583 C1591 1.433 . S
C1584 H1580 0.929 . S
C1584 C1586 1.378 . S
C1584 C1588 1.350 . S
C1585 C1588 1.463 . S
C1585 C1590 1.350 . S
C1585 N1593 1.427 . S
C1586 H1577 0.930 . S
C1586 C1584 1.378 . S
C1586 C1587 1.367 . S
C1587 C1586 1.367 . S
C1587 C1589 1.433 . S
C1588 C1584 1.350 . S
C1588 C1585 1.463 . S
C1588 N1592 1.427 . S
C1589 H1579 0.929 . S
C1589 C1587 1.433 . S
C1589 N1592 1.384 . S
C1590 H1581 0.929 . S
C1590 C1582 1.378 . S
C1590 C1585 1.350 . S
C1591 H1578 0.929 . S
C1591 C1583 1.433 . S
C1591 N1593 1.384 . S
N1592 C1588 1.427 . S
N1592 C1589 1.384 . S
N1593 C1585 1.427 . S
N1593 C1591 1.384 . S
H1594 C1600 0.930 . S
H1595 C1604 0.930 . S
H1596 C1609 0.929 . S
H1597 C1607 0.929 . S
H1598 C1602 0.929 . S
H1599 C1608 0.929 . S
C1600 H1594 0.930 . S
C1600 C1601 1.367 . S
C1600 C1608 1.378 . S
C1601 C1600 1.367 . S
C1601 C1609 1.433 . S
C1602 H1598 0.929 . S
C1602 C1604 1.378 . S
C1602 C1606 1.350 . S
C1603 C1606 1.463 1_655 S
C1603 C1608 1.350 . S
C1603 N1611 1.427 . S
C1604 H1595 0.930 . S
C1604 C1602 1.378 . S
C1604 C1605 1.367 . S
C1605 C1604 1.367 . S
C1605 C1607 1.433 . S
C1606 C1602 1.350 . S
C1606 C1603 1.463 1_455 S
C1606 N1610 1.427 . S
C1607 H1597 0.929 . S
C1607 C1605 1.433 . S
C1607 N1610 1.384 . S
C1608 H1599 0.929 . S
C1608 C1600 1.378 . S
C1608 C1603 1.350 . S
C1609 H1596 0.929 . S
C1609 C1601 1.433 . S
C1609 N1611 1.384 . S
N1610 C1606 1.427 . S
N1610 C1607 1.384 . S
N1611 C1603 1.427 . S
N1611 C1609 1.384 . S
H1612 C1618 0.930 . S
H1613 C1622 0.930 . S
H1614 C1627 0.929 . S
H1615 C1625 0.929 . S
H1616 C1620 0.929 . S
H1617 C1626 0.929 . S
C1618 H1612 0.930 . S
C1618 C1619 1.367 . S
C1618 C1626 1.378 . S
C1619 C1618 1.367 . S
C1619 C1627 1.433 . S
C1620 H1616 0.929 . S
C1620 C1622 1.378 . S
C1620 C1624 1.350 . S
C1621 C1624 1.463 . S
C1621 C1626 1.350 . S
C1621 N1629 1.427 . S
C1622 H1613 0.930 . S
C1622 C1620 1.378 . S
C1622 C1623 1.367 . S
C1623 C1622 1.367 . S
C1623 C1625 1.433 . S
C1624 C1620 1.350 . S
C1624 C1621 1.463 . S
C1624 N1628 1.427 . S
C1625 H1615 0.929 . S
C1625 C1623 1.433 . S
C1625 N1628 1.384 . S
C1626 H1617 0.929 . S
C1626 C1618 1.378 . S
C1626 C1621 1.350 . S
C1627 H1614 0.929 . S
C1627 C1619 1.433 . S
C1627 N1629 1.384 . S
N1628 C1624 1.427 . S
N1628 C1625 1.384 . S
N1629 C1621 1.427 . S
N1629 C1627 1.384 . S
H1630 C1636 0.930 . S
H1631 C1640 0.930 . S
H1632 C1645 0.929 . S
H1633 C1643 0.929 . S
H1634 C1638 0.929 . S
H1635 C1644 0.929 . S
C1636 H1630 0.930 . S
C1636 C1637 1.367 . S
C1636 C1644 1.378 . S
C1637 C1636 1.367 . S
C1637 C1645 1.433 . S
C1638 H1634 0.929 . S
C1638 C1640 1.378 . S
C1638 C1642 1.350 . S
C1639 C1642 1.463 . S
C1639 C1644 1.350 . S
C1639 N1647 1.427 . S
C1640 H1631 0.930 . S
C1640 C1638 1.378 . S
C1640 C1641 1.367 . S
C1641 C1640 1.367 . S
C1641 C1643 1.433 . S
C1642 C1638 1.350 . S
C1642 C1639 1.463 . S
C1642 N1646 1.427 . S
C1643 H1633 0.929 . S
C1643 C1641 1.433 . S
C1643 N1646 1.384 . S
C1644 H1635 0.929 . S
C1644 C1636 1.378 . S
C1644 C1639 1.350 . S
C1645 H1632 0.929 . S
C1645 C1637 1.433 . S
C1645 N1647 1.384 . S
N1646 C1642 1.427 . S
N1646 C1643 1.384 . S
N1647 C1639 1.427 . S
N1647 C1645 1.384 . S
H1648 C1654 0.930 . S
H1649 C1658 0.930 . S
H1650 C1663 0.929 . S
H1651 C1661 0.929 . S
H1652 C1656 0.929 . S
H1653 C1662 0.929 . S
C1654 H1648 0.930 . S
C1654 C1655 1.367 . S
C1654 C1662 1.378 . S
C1655 C1654 1.367 . S
C1655 C1663 1.433 . S
C1656 H1652 0.929 . S
C1656 C1658 1.378 . S
C1656 C1660 1.350 . S
C1657 C1660 1.463 . S
C1657 C1662 1.350 . S
C1657 N1665 1.427 . S
C1658 H1649 0.930 . S
C1658 C1656 1.378 . S
C1658 C1659 1.367 . S
C1659 C1658 1.367 . S
C1659 C1661 1.433 . S
C1660 C1656 1.350 . S
C1660 C1657 1.463 . S
C1660 N1664 1.427 . S
C1661 H1651 0.929 . S
C1661 C1659 1.433 . S
C1661 N1664 1.384 . S
C1662 H1653 0.929 . S
C1662 C1654 1.378 . S
C1662 C1657 1.350 . S
C1663 H1650 0.929 . S
C1663 C1655 1.433 . S
C1663 N1665 1.384 . S
N1664 C1660 1.427 . S
N1664 C1661 1.384 . S
N1665 C1657 1.427 . S
N1665 C1663 1.384 . S
H1666 C1672 0.930 . S
H1667 C1676 0.930 . S
H1668 C1681 0.929 . S
H1669 C1679 0.929 . S
H1670 C1674 0.929 . S
H1671 C1680 0.929 . S
C1672 H1666 0.930 . S
C1672 C1673 1.367 . S
C1672 C1680 1.378 . S
C1673 C1672 1.367 . S
C1673 C1681 1.433 . S
C1674 H1670 0.929 . S
C1674 C1676 1.378 . S
C1674 C1678 1.350 . S
C1675 C1678 1.463 . S
C1675 C1680 1.350 . S
C1675 N1683 1.427 . S
C1676 H1667 0.930 . S
C1676 C1674 1.378 . S
C1676 C1677 1.367 . S
C1677 C1676 1.367 . S
C1677 C1679 1.433 . S
C1678 C1674 1.350 . S
C1678 C1675 1.463 . S
C1678 N1682 1.427 . S
C1679 H1669 0.929 . S
C1679 C1677 1.433 . S
C1679 N1682 1.384 . S
C1680 H1671 0.929 . S
C1680 C1672 1.378 . S
C1680 C1675 1.350 . S
C1681 H1668 0.929 . S
C1681 C1673 1.433 . S
C1681 N1683 1.384 . S
N1682 C1678 1.427 . S
N1682 C1679 1.384 . S
N1683 C1675 1.427 . S
N1683 C1681 1.384 . S
H1684 C1690 0.930 . S
H1685 C1694 0.930 . S
H1686 C1699 0.929 . S
H1687 C1697 0.929 . S
H1688 C1692 0.929 . S
H1689 C1698 0.929 . S
C1690 H1684 0.930 . S
C1690 C1691 1.367 . S
C1690 C1698 1.378 . S
C1691 C1690 1.367 . S
C1691 C1699 1.433 . S
C1692 H1688 0.929 . S
C1692 C1694 1.378 . S
C1692 C1696 1.350 . S
C1693 C1696 1.463 . S
C1693 C1698 1.350 . S
C1693 N1701 1.427 . S
C1694 H1685 0.930 . S
C1694 C1692 1.378 . S
C1694 C1695 1.367 . S
C1695 C1694 1.367 . S
C1695 C1697 1.433 . S
C1696 C1692 1.350 . S
C1696 C1693 1.463 . S
C1696 N1700 1.427 . S
C1697 H1687 0.929 . S
C1697 C1695 1.433 . S
C1697 N1700 1.384 . S
C1698 H1689 0.929 . S
C1698 C1690 1.378 . S
C1698 C1693 1.350 . S
C1699 H1686 0.929 . S
C1699 C1691 1.433 . S
C1699 N1701 1.384 . S
N1700 C1696 1.427 . S
N1700 C1697 1.384 . S
N1701 C1693 1.427 . S
N1701 C1699 1.384 . S
H1702 C1708 0.930 . S
H1703 C1712 0.930 . S
H1704 C1717 0.929 . S
H1705 C1715 0.929 . S
H1706 C1710 0.937 . S
H1707 C1716 0.929 . S
C1708 H1702 0.930 . S
C1708 C1709 1.367 . S
C1708 C1716 1.378 . S
C1709 C1708 1.367 . S
C1709 C1717 1.433 . S
C1710 H1706 0.937 . S
C1710 C1712 1.378 . S
C1710 C1714 1.350 . S
C1711 C1714 1.463 1_655 S
C1711 C1716 1.350 . S
C1711 N1719 1.427 . S
C1712 H1703 0.930 . S
C1712 C1710 1.378 . S
C1712 C1713 1.367 . S
C1713 C1712 1.367 . S
C1713 C1715 1.433 . S
C1714 C1710 1.350 . S
C1714 C1711 1.463 1_455 S
C1714 N1718 1.427 . S
C1715 H1705 0.929 . S
C1715 C1713 1.433 . S
C1715 N1718 1.384 . S
C1716 H1707 0.929 . S
C1716 C1708 1.378 . S
C1716 C1711 1.350 . S
C1717 H1704 0.929 . S
C1717 C1709 1.433 . S
C1717 N1719 1.384 . S
N1718 C1714 1.427 . S
N1718 C1715 1.384 . S
N1719 C1711 1.427 . S
N1719 C1717 1.384 . S
H1720 C1726 0.930 . S
H1721 C1730 0.930 . S
H1722 C1735 0.929 . S
H1723 C1733 0.929 . S
H1724 C1728 0.929 . S
H1725 C1734 0.929 . S
C1726 H1720 0.930 . S
C1726 C1727 1.367 . S
C1726 C1734 1.378 . S
C1727 C1726 1.367 . S
C1727 C1735 1.433 . S
C1728 H1724 0.929 . S
C1728 C1730 1.378 . S
C1728 C1732 1.350 . S
C1729 C1732 1.463 . S
C1729 C1734 1.350 . S
C1729 N1737 1.427 . S
C1730 H1721 0.930 . S
C1730 C1728 1.378 . S
C1730 C1731 1.367 . S
C1731 C1730 1.367 . S
C1731 C1733 1.433 . S
C1732 C1728 1.350 . S
C1732 C1729 1.463 . S
C1732 N1736 1.427 . S
C1733 H1723 0.929 . S
C1733 C1731 1.433 . S
C1733 N1736 1.384 . S
C1734 H1725 0.929 . S
C1734 C1726 1.378 . S
C1734 C1729 1.350 . S
C1735 H1722 0.929 . S
C1735 C1727 1.433 . S
C1735 N1737 1.384 . S
N1736 C1732 1.427 . S
N1736 C1733 1.384 . S
N1737 C1729 1.427 . S
N1737 C1735 1.384 . S
H1738 C1744 0.930 . S
H1739 C1748 0.930 . S
H1740 C1753 0.929 . S
H1741 C1751 0.929 . S
H1742 C1746 0.929 . S
H1743 C1752 0.929 . S
C1744 H1738 0.930 . S
C1744 C1745 1.367 . S
C1744 C1752 1.378 . S
C1745 C1744 1.367 . S
C1745 C1753 1.433 . S
C1746 H1742 0.929 . S
C1746 C1748 1.378 . S
C1746 C1750 1.350 . S
C1747 C1750 1.463 1_455 S
C1747 C1752 1.350 . S
C1747 N1755 1.427 . S
C1748 H1739 0.930 . S
C1748 C1746 1.378 . S
C1748 C1749 1.367 . S
C1749 C1748 1.367 . S
C1749 C1751 1.433 . S
C1750 C1746 1.350 . S
C1750 C1747 1.463 1_655 S
C1750 N1754 1.427 . S
C1751 H1741 0.929 . S
C1751 C1749 1.433 . S
C1751 N1754 1.384 . S
C1752 H1743 0.929 . S
C1752 C1744 1.378 . S
C1752 C1747 1.350 . S
C1753 H1740 0.929 . S
C1753 C1745 1.433 . S
C1753 N1755 1.384 . S
N1754 C1750 1.427 . S
N1754 C1751 1.384 . S
N1755 C1747 1.427 . S
N1755 C1753 1.384 . S
H1756 C1762 0.930 . S
H1757 C1766 0.930 . S
H1758 C1771 0.929 . S
H1759 C1769 0.929 . S
H1760 C1764 0.929 . S
H1761 C1770 0.929 . S
C1762 H1756 0.930 . S
C1762 C1763 1.367 . S
C1762 C1770 1.378 . S
C1763 C1762 1.367 . S
C1763 C1771 1.433 . S
C1764 H1760 0.929 . S
C1764 C1766 1.378 . S
C1764 C1768 1.350 . S
C1765 C1768 1.463 . S
C1765 C1770 1.350 . S
C1765 N1773 1.427 . S
C1766 H1757 0.930 . S
C1766 C1764 1.378 . S
C1766 C1767 1.367 . S
C1767 C1766 1.367 . S
C1767 C1769 1.433 . S
C1768 C1764 1.350 . S
C1768 C1765 1.463 . S
C1768 N1772 1.427 . S
C1769 H1759 0.929 . S
C1769 C1767 1.433 . S
C1769 N1772 1.384 . S
C1770 H1761 0.929 . S
C1770 C1762 1.378 . S
C1770 C1765 1.350 . S
C1771 H1758 0.929 . S
C1771 C1763 1.433 . S
C1771 N1773 1.384 . S
N1772 C1768 1.427 . S
N1772 C1769 1.384 . S
N1773 C1765 1.427 . S
N1773 C1771 1.384 . S
H1774 C1780 0.930 . S
H1775 C1784 0.930 . S
H1776 C1789 0.929 . S
H1777 C1787 0.929 . S
H1778 C1782 0.929 . S
H1779 C1788 0.929 . S
C1780 H1774 0.930 . S
C1780 C1781 1.367 . S
C1780 C1788 1.378 . S
C1781 C1780 1.367 . S
C1781 C1789 1.433 . S
C1782 H1778 0.929 . S
C1782 C1784 1.378 . S
C1782 C1786 1.350 . S
C1783 C1786 1.463 . S
C1783 C1788 1.350 . S
C1783 N1791 1.427 . S
C1784 H1775 0.930 . S
C1784 C1782 1.378 . S
C1784 C1785 1.367 . S
C1785 C1784 1.367 . S
C1785 C1787 1.433 . S
C1786 C1782 1.350 . S
C1786 C1783 1.463 . S
C1786 N1790 1.427 . S
C1787 H1777 0.929 . S
C1787 C1785 1.433 . S
C1787 N1790 1.384 . S
C1788 H1779 0.929 . S
C1788 C1780 1.378 . S
C1788 C1783 1.350 . S
C1789 H1776 0.929 . S
C1789 C1781 1.433 . S
C1789 N1791 1.384 . S
N1790 C1786 1.427 . S
N1790 C1787 1.384 . S
N1791 C1783 1.427 . S
N1791 C1789 1.384 . S
H1792 C1798 0.930 . S
H1793 C1802 0.930 . S
H1794 C1807 0.929 . S
H1795 C1805 0.929 . S
H1796 C1800 0.929 . S
H1797 C1806 0.929 . S
C1798 H1792 0.930 . S
C1798 C1799 1.367 . S
C1798 C1806 1.378 . S
C1799 C1798 1.367 . S
C1799 C1807 1.433 . S
C1800 H1796 0.929 . S
C1800 C1802 1.378 . S
C1800 C1804 1.350 . S
C1801 C1804 1.463 1_545 S
C1801 C1806 1.350 . S
C1801 N1809 1.427 . S
C1802 H1793 0.930 . S
C1802 C1800 1.378 . S
C1802 C1803 1.367 . S
C1803 C1802 1.367 . S
C1803 C1805 1.433 . S
C1804 C1800 1.350 . S
C1804 C1801 1.463 1_565 S
C1804 N1808 1.427 . S
C1805 H1795 0.929 . S
C1805 C1803 1.433 . S
C1805 N1808 1.384 . S
C1806 H1797 0.929 . S
C1806 C1798 1.378 . S
C1806 C1801 1.350 . S
C1807 H1794 0.929 . S
C1807 C1799 1.433 . S
C1807 N1809 1.384 . S
N1808 C1804 1.427 . S
N1808 C1805 1.384 . S
N1809 C1801 1.427 . S
N1809 C1807 1.384 . S
H1810 C1816 0.930 . S
H1811 C1820 0.930 . S
H1812 C1825 0.929 . S
H1813 C1823 0.929 . S
H1814 C1818 0.929 . S
H1815 C1824 0.929 . S
C1816 H1810 0.930 . S
C1816 C1817 1.367 . S
C1816 C1824 1.378 . S
C1817 C1816 1.367 . S
C1817 C1825 1.433 . S
C1818 H1814 0.929 . S
C1818 C1820 1.378 . S
C1818 C1822 1.350 . S
C1819 C1822 1.463 . S
C1819 C1824 1.350 . S
C1819 N1827 1.427 . S
C1820 H1811 0.930 . S
C1820 C1818 1.378 . S
C1820 C1821 1.367 . S
C1821 C1820 1.367 . S
C1821 C1823 1.433 . S
C1822 C1818 1.350 . S
C1822 C1819 1.463 . S
C1822 N1826 1.427 . S
C1823 H1813 0.929 . S
C1823 C1821 1.433 . S
C1823 N1826 1.384 . S
C1824 H1815 0.929 . S
C1824 C1816 1.378 . S
C1824 C1819 1.350 . S
C1825 H1812 0.929 . S
C1825 C1817 1.433 . S
C1825 N1827 1.384 . S
N1826 C1822 1.427 . S
N1826 C1823 1.384 . S
N1827 C1819 1.427 . S
N1827 C1825 1.384 . S
H1828 C1834 0.930 . S
H1829 C1838 0.930 . S
H1830 C1843 0.929 . S
H1831 C1841 0.929 . S
H1832 C1836 0.929 1_565 S
H1833 C1842 0.929 1_545 S
C1834 H1828 0.930 . S
C1834 C1835 1.367 . S
C1834 C1842 1.378 . S
C1835 C1834 1.367 . S
C1835 C1843 1.433 . S
C1836 H1832 0.929 1_545 S
C1836 C1838 1.378 . S
C1836 C1840 1.350 . S
C1837 C1840 1.463 1_565 S
C1837 C1842 1.350 . S
C1837 N1845 1.427 . S
C1838 H1829 0.930 . S
C1838 C1836 1.378 . S
C1838 C1839 1.367 . S
C1839 C1838 1.367 . S
C1839 C1841 1.433 . S
C1840 C1836 1.350 . S
C1840 C1837 1.463 1_545 S
C1840 N1844 1.427 . S
C1841 H1831 0.929 . S
C1841 C1839 1.433 . S
C1841 N1844 1.384 . S
C1842 H1833 0.929 1_565 S
C1842 C1834 1.378 . S
C1842 C1837 1.350 . S
C1843 H1830 0.929 . S
C1843 C1835 1.433 . S
C1843 N1845 1.384 . S
N1844 C1840 1.427 . S
N1844 C1841 1.384 . S
N1845 C1837 1.427 . S
N1845 C1843 1.384 . S
H1846 C1852 0.930 . S
H1847 C1856 0.930 . S
H1848 C1861 0.929 . S
H1849 C1859 0.929 . S
H1850 C1854 0.929 . S
H1851 C1860 0.929 . S
C1852 H1846 0.930 . S
C1852 C1853 1.367 . S
C1852 C1860 1.378 . S
C1853 C1852 1.367 . S
C1853 C1861 1.433 . S
C1854 H1850 0.929 . S
C1854 C1856 1.378 . S
C1854 C1858 1.350 . S
C1855 C1858 1.463 1_556 S
C1855 C1860 1.350 . S
C1855 N1863 1.427 . S
C1856 H1847 0.930 . S
C1856 C1854 1.378 . S
C1856 C1857 1.367 . S
C1857 C1856 1.367 . S
C1857 C1859 1.433 . S
C1858 C1854 1.350 . S
C1858 C1855 1.463 1_554 S
C1858 N1862 1.427 . S
C1859 H1849 0.929 . S
C1859 C1857 1.433 . S
C1859 N1862 1.384 . S
C1860 H1851 0.929 . S
C1860 C1852 1.378 . S
C1860 C1855 1.350 . S
C1861 H1848 0.929 . S
C1861 C1853 1.433 . S
C1861 N1863 1.384 . S
N1862 C1858 1.427 . S
N1862 C1859 1.384 . S
N1863 C1855 1.427 . S
N1863 C1861 1.384 . S
H1864 C1870 0.930 . S
H1865 C1874 0.930 . S
H1866 C1879 0.929 . S
H1867 C1877 0.929 . S
H1868 C1872 0.929 . S
H1869 C1878 0.929 . S
C1870 H1864 0.930 . S
C1870 C1871 1.367 . S
C1870 C1878 1.378 . S
C1871 C1870 1.367 . S
C1871 C1879 1.433 . S
C1872 H1868 0.929 . S
C1872 C1874 1.378 . S
C1872 C1876 1.350 . S
C1873 C1876 1.463 1_545 S
C1873 C1878 1.350 . S
C1873 N1881 1.427 . S
C1874 H1865 0.930 . S
C1874 C1872 1.378 . S
C1874 C1875 1.367 . S
C1875 C1874 1.367 . S
C1875 C1877 1.433 . S
C1876 C1872 1.350 . S
C1876 C1873 1.463 1_565 S
C1876 N1880 1.427 . S
C1877 H1867 0.929 . S
C1877 C1875 1.433 . S
C1877 N1880 1.384 . S
C1878 H1869 0.929 . S
C1878 C1870 1.378 . S
C1878 C1873 1.350 . S
C1879 H1866 0.929 . S
C1879 C1871 1.433 . S
C1879 N1881 1.384 . S
N1880 C1876 1.427 . S
N1880 C1877 1.384 . S
N1881 C1873 1.427 . S
N1881 C1879 1.384 . S
H1882 C1888 0.930 . S
H1883 C1892 0.930 . S
H1884 C1897 0.929 . S
H1885 C1895 0.929 . S
H1886 C1890 0.929 . S
H1887 C1896 0.929 . S
C1888 H1882 0.930 . S
C1888 C1889 1.367 . S
C1888 C1896 1.378 . S
C1889 C1888 1.367 . S
C1889 C1897 1.433 . S
C1890 H1886 0.929 . S
C1890 C1892 1.378 . S
C1890 C1894 1.350 . S
C1891 C1894 1.463 . S
C1891 C1896 1.350 . S
C1891 N1899 1.427 . S
C1892 H1883 0.930 . S
C1892 C1890 1.378 . S
C1892 C1893 1.367 . S
C1893 C1892 1.367 . S
C1893 C1895 1.433 . S
C1894 C1890 1.350 . S
C1894 C1891 1.463 . S
C1894 N1898 1.427 . S
C1895 H1885 0.929 . S
C1895 C1893 1.433 . S
C1895 N1898 1.384 . S
C1896 H1887 0.929 . S
C1896 C1888 1.378 . S
C1896 C1891 1.350 . S
C1897 H1884 0.929 . S
C1897 C1889 1.433 . S
C1897 N1899 1.384 . S
N1898 C1894 1.427 . S
N1898 C1895 1.384 . S
N1899 C1891 1.427 . S
N1899 C1897 1.384 . S
H1900 C1906 0.930 . S
H1901 C1910 0.930 . S
H1902 C1915 0.929 . S
H1903 C1913 0.929 . S
H1904 C1908 0.929 1_545 S
H1905 C1914 0.929 1_565 S
C1906 H1900 0.930 . S
C1906 C1907 1.367 . S
C1906 C1914 1.378 . S
C1907 C1906 1.367 . S
C1907 C1915 1.433 . S
C1908 H1904 0.929 1_565 S
C1908 C1910 1.378 . S
C1908 C1912 1.350 . S
C1909 C1912 1.463 1_545 S
C1909 C1914 1.350 . S
C1909 N1917 1.427 . S
C1910 H1901 0.930 . S
C1910 C1908 1.378 . S
C1910 C1911 1.367 . S
C1911 C1910 1.367 . S
C1911 C1913 1.433 . S
C1912 C1908 1.350 . S
C1912 C1909 1.463 1_565 S
C1912 N1916 1.427 . S
C1913 H1903 0.929 . S
C1913 C1911 1.433 . S
C1913 N1916 1.384 . S
C1914 H1905 0.929 1_545 S
C1914 C1906 1.378 . S
C1914 C1909 1.350 . S
C1915 H1902 0.929 . S
C1915 C1907 1.433 . S
C1915 N1917 1.384 . S
N1916 C1912 1.427 . S
N1916 C1913 1.384 . S
N1917 C1909 1.427 . S
N1917 C1915 1.384 . S
H1918 C1924 0.930 . S
H1919 C1928 0.930 . S
H1920 C1933 0.929 . S
H1921 C1931 0.929 . S
H1922 C1926 0.929 1_556 S
H1923 C1932 0.929 1_554 S
C1924 H1918 0.930 . S
C1924 C1925 1.367 . S
C1924 C1932 1.378 . S
C1925 C1924 1.367 . S
C1925 C1933 1.433 . S
C1926 H1922 0.929 1_554 S
C1926 C1928 1.378 . S
C1926 C1930 1.350 . S
C1927 C1930 1.463 1_556 S
C1927 C1932 1.350 . S
C1927 N1935 1.427 . S
C1928 H1919 0.930 . S
C1928 C1926 1.378 . S
C1928 C1929 1.367 . S
C1929 C1928 1.367 . S
C1929 C1931 1.433 . S
C1930 C1926 1.350 . S
C1930 C1927 1.463 1_554 S
C1930 N1934 1.427 . S
C1931 H1921 0.929 . S
C1931 C1929 1.433 . S
C1931 N1934 1.384 . S
C1932 H1923 0.929 1_556 S
C1932 C1924 1.378 . S
C1932 C1927 1.350 . S
C1933 H1920 0.929 . S
C1933 C1925 1.433 . S
C1933 N1935 1.384 . S
N1934 C1930 1.427 . S
N1934 C1931 1.384 . S
N1935 C1927 1.427 . S
N1935 C1933 1.384 . S
H1936 C1942 0.930 . S
H1937 C1946 0.930 . S
H1938 C1951 0.929 . S
H1939 C1949 0.929 . S
H1940 C1944 0.929 . S
H1941 C1950 0.929 . S
C1942 H1936 0.930 . S
C1942 C1943 1.367 . S
C1942 C1950 1.378 . S
C1943 C1942 1.367 . S
C1943 C1951 1.433 . S
C1944 H1940 0.929 . S
C1944 C1946 1.378 . S
C1944 C1948 1.350 . S
C1945 C1948 1.463 . S
C1945 C1950 1.350 . S
C1945 N1953 1.427 . S
C1946 H1937 0.930 . S
C1946 C1944 1.378 . S
C1946 C1947 1.367 . S
C1947 C1946 1.367 . S
C1947 C1949 1.433 . S
C1948 C1944 1.350 . S
C1948 C1945 1.463 . S
C1948 N1952 1.427 . S
C1949 H1939 0.929 . S
C1949 C1947 1.433 . S
C1949 N1952 1.384 . S
C1950 H1941 0.929 . S
C1950 C1942 1.378 . S
C1950 C1945 1.350 . S
C1951 H1938 0.929 . S
C1951 C1943 1.433 . S
C1951 N1953 1.384 . S
N1952 C1948 1.427 . S
N1952 C1949 1.384 . S
N1953 C1945 1.427 . S
N1953 C1951 1.384 . S
H1954 C1960 0.930 . S
H1955 C1964 0.930 . S
H1956 C1969 0.929 . S
H1957 C1967 0.929 . S
H1958 C1962 0.929 . S
H1959 C1968 0.929 . S
C1960 H1954 0.930 . S
C1960 C1961 1.367 . S
C1960 C1968 1.378 1_556 S
C1961 C1960 1.367 . S
C1961 C1969 1.433 . S
C1962 H1958 0.929 . S
C1962 C1964 1.378 1_556 S
C1962 C1966 1.350 1_556 S
C1963 C1966 1.463 1_556 S
C1963 C1968 1.350 1_556 S
C1963 N1971 1.427 . S
C1964 H1955 0.930 . S
C1964 C1962 1.378 1_554 S
C1964 C1965 1.367 . S
C1965 C1964 1.367 . S
C1965 C1967 1.433 . S
C1966 C1962 1.350 1_554 S
C1966 C1963 1.463 1_554 S
C1966 N1970 1.427 . S
C1967 H1957 0.929 . S
C1967 C1965 1.433 . S
C1967 N1970 1.384 . S
C1968 H1959 0.929 . S
C1968 C1960 1.378 1_554 S
C1968 C1963 1.350 1_554 S
C1969 H1956 0.929 . S
C1969 C1961 1.433 . S
C1969 N1971 1.384 . S
N1970 C1966 1.427 . S
N1970 C1967 1.384 . S
N1971 C1963 1.427 . S
N1971 C1969 1.384 . S
H1972 C1978 0.930 . S
H1973 C1982 0.930 . S
H1974 C1987 0.929 . S
H1975 C1985 0.929 . S
H1976 C1980 0.929 . S
H1977 C1986 0.929 . S
C1978 H1972 0.930 . S
C1978 C1979 1.367 . S
C1978 C1986 1.378 . S
C1979 C1978 1.367 . S
C1979 C1987 1.433 . S
C1980 H1976 0.929 . S
C1980 C1982 1.378 . S
C1980 C1984 1.350 . S
C1981 C1984 1.463 . S
C1981 C1986 1.350 . S
C1981 N1989 1.427 . S
C1982 H1973 0.930 . S
C1982 C1980 1.378 . S
C1982 C1983 1.367 . S
C1983 C1982 1.367 . S
C1983 C1985 1.433 . S
C1984 C1980 1.350 . S
C1984 C1981 1.463 . S
C1984 N1988 1.427 . S
C1985 H1975 0.929 . S
C1985 C1983 1.433 . S
C1985 N1988 1.384 . S
C1986 H1977 0.929 . S
C1986 C1978 1.378 . S
C1986 C1981 1.350 . S
C1987 H1974 0.929 . S
C1987 C1979 1.433 . S
C1987 N1989 1.384 . S
N1988 C1984 1.427 . S
N1988 C1985 1.384 . S
N1989 C1981 1.427 . S
N1989 C1987 1.384 . S
H1990 C1996 0.930 . S
H1991 C2000 0.930 . S
H1992 C2005 0.929 . S
H1993 C2003 0.929 . S
H1994 C1998 0.929 . S
H1995 C2004 0.929 . S
C1996 H1990 0.930 . S
C1996 C1997 1.367 . S
C1996 C2004 1.378 . S
C1997 C1996 1.367 . S
C1997 C2005 1.433 . S
C1998 H1994 0.929 . S
C1998 C2000 1.378 . S
C1998 C2002 1.350 . S
C1999 C2002 1.463 . S
C1999 C2004 1.350 . S
C1999 N2007 1.427 . S
C2000 H1991 0.930 . S
C2000 C1998 1.378 . S
C2000 C2001 1.367 . S
C2001 C2000 1.367 . S
C2001 C2003 1.433 . S
C2002 C1998 1.350 . S
C2002 C1999 1.463 . S
C2002 N2006 1.427 . S
C2003 H1993 0.929 . S
C2003 C2001 1.433 . S
C2003 N2006 1.384 . S
C2004 H1995 0.929 . S
C2004 C1996 1.378 . S
C2004 C1999 1.350 . S
C2005 H1992 0.929 . S
C2005 C1997 1.433 . S
C2005 N2007 1.384 . S
N2006 C2002 1.427 . S
N2006 C2003 1.384 . S
N2007 C1999 1.427 . S
N2007 C2005 1.384 . S
H2008 C2014 0.930 . S
H2009 C2018 0.930 . S
H2010 C2023 0.929 . S
H2011 C2021 0.929 . S
H2012 C2016 0.929 . S
H2013 C2022 0.929 . S
C2014 H2008 0.930 . S
C2014 C2015 1.367 . S
C2014 C2022 1.378 . S
C2015 C2014 1.367 . S
C2015 C2023 1.433 . S
C2016 H2012 0.929 . S
C2016 C2018 1.378 . S
C2016 C2020 1.350 . S
C2017 C2020 1.463 . S
C2017 C2022 1.350 . S
C2017 N2025 1.427 . S
C2018 H2009 0.930 . S
C2018 C2016 1.378 . S
C2018 C2019 1.367 . S
C2019 C2018 1.367 . S
C2019 C2021 1.433 . S
C2020 C2016 1.350 . S
C2020 C2017 1.463 . S
C2020 N2024 1.427 . S
C2021 H2011 0.929 . S
C2021 C2019 1.433 . S
C2021 N2024 1.384 . S
C2022 H2013 0.929 . S
C2022 C2014 1.378 . S
C2022 C2017 1.350 . S
C2023 H2010 0.929 . S
C2023 C2015 1.433 . S
C2023 N2025 1.384 . S
N2024 C2020 1.427 . S
N2024 C2021 1.384 . S
N2025 C2017 1.427 . S
N2025 C2023 1.384 . S
H2026 C2032 0.930 . S
H2027 C2036 0.930 . S
H2028 C2041 0.929 . S
H2029 C2039 0.929 . S
H2030 C2034 0.929 . S
H2031 C2040 0.929 . S
C2032 H2026 0.930 . S
C2032 C2033 1.367 . S
C2032 C2040 1.378 1_556 S
C2033 C2032 1.367 . S
C2033 C2041 1.433 . S
C2034 H2030 0.929 . S
C2034 C2036 1.378 1_556 S
C2034 C2038 1.350 1_556 S
C2035 C2038 1.463 1_556 S
C2035 C2040 1.350 1_556 S
C2035 N2043 1.427 . S
C2036 H2027 0.930 . S
C2036 C2034 1.378 1_554 S
C2036 C2037 1.367 . S
C2037 C2036 1.367 . S
C2037 C2039 1.433 . S
C2038 C2034 1.350 1_554 S
C2038 C2035 1.463 1_554 S
C2038 N2042 1.427 . S
C2039 H2029 0.929 . S
C2039 C2037 1.433 . S
C2039 N2042 1.384 . S
C2040 H2031 0.929 . S
C2040 C2032 1.378 1_554 S
C2040 C2035 1.350 1_554 S
C2041 H2028 0.929 . S
C2041 C2033 1.433 . S
C2041 N2043 1.384 . S
N2042 C2038 1.427 . S
N2042 C2039 1.384 . S
N2043 C2035 1.427 . S
N2043 C2041 1.384 . S
H2044 C2050 0.930 . S
H2045 C2054 0.930 . S
H2046 C2059 0.929 . S
H2047 C2057 0.929 . S
H2048 C2052 0.929 . S
H2049 C2058 0.929 . S
C2050 H2044 0.930 . S
C2050 C2051 1.367 . S
C2050 C2058 1.378 . S
C2051 C2050 1.367 . S
C2051 C2059 1.433 . S
C2052 H2048 0.929 . S
C2052 C2054 1.378 . S
C2052 C2056 1.350 . S
C2053 C2056 1.463 . S
C2053 C2058 1.350 . S
C2053 N2061 1.427 . S
C2054 H2045 0.930 . S
C2054 C2052 1.378 . S
C2054 C2055 1.367 . S
C2055 C2054 1.367 . S
C2055 C2057 1.433 . S
C2056 C2052 1.350 . S
C2056 C2053 1.463 . S
C2056 N2060 1.427 . S
C2057 H2047 0.929 . S
C2057 C2055 1.433 . S
C2057 N2060 1.384 . S
C2058 H2049 0.929 . S
C2058 C2050 1.378 . S
C2058 C2053 1.350 . S
C2059 H2046 0.929 . S
C2059 C2051 1.433 . S
C2059 N2061 1.384 . S
N2060 C2056 1.427 . S
N2060 C2057 1.384 . S
N2061 C2053 1.427 . S
N2061 C2059 1.384 . S
H2062 C2068 0.930 . S
H2063 C2072 0.930 . S
H2064 C2077 0.929 . S
H2065 C2075 0.929 . S
H2066 C2070 0.929 . S
H2067 C2076 0.929 . S
C2068 H2062 0.930 . S
C2068 C2069 1.367 . S
C2068 C2076 1.378 . S
C2069 C2068 1.367 . S
C2069 C2077 1.433 . S
C2070 H2066 0.929 . S
C2070 C2072 1.378 . S
C2070 C2074 1.350 . S
C2071 C2074 1.463 . S
C2071 C2076 1.350 . S
C2071 N2079 1.427 . S
C2072 H2063 0.930 . S
C2072 C2070 1.378 . S
C2072 C2073 1.367 . S
C2073 C2072 1.367 . S
C2073 C2075 1.433 . S
C2074 C2070 1.350 . S
C2074 C2071 1.463 . S
C2074 N2078 1.427 . S
C2075 H2065 0.929 . S
C2075 C2073 1.433 . S
C2075 N2078 1.384 . S
C2076 H2067 0.929 . S
C2076 C2068 1.378 . S
C2076 C2071 1.350 . S
C2077 H2064 0.929 . S
C2077 C2069 1.433 . S
C2077 N2079 1.384 . S
N2078 C2074 1.427 . S
N2078 C2075 1.384 . S
N2079 C2071 1.427 . S
N2079 C2077 1.384 . S
H2080 C2086 0.930 . S
H2081 C2090 0.930 . S
H2082 C2095 0.929 . S
H2083 C2093 0.929 . S
H2084 C2088 0.929 . S
H2085 C2094 0.929 . S
C2086 H2080 0.930 . S
C2086 C2087 1.367 . S
C2086 C2094 1.378 . S
C2087 C2086 1.367 . S
C2087 C2095 1.433 . S
C2088 H2084 0.929 . S
C2088 C2090 1.378 . S
C2088 C2092 1.350 . S
C2089 C2092 1.463 . S
C2089 C2094 1.350 . S
C2089 N2097 1.427 . S
C2090 H2081 0.930 . S
C2090 C2088 1.378 . S
C2090 C2091 1.367 . S
C2091 C2090 1.367 . S
C2091 C2093 1.433 . S
C2092 C2088 1.350 . S
C2092 C2089 1.463 . S
C2092 N2096 1.427 . S
C2093 H2083 0.929 . S
C2093 C2091 1.433 . S
C2093 N2096 1.384 . S
C2094 H2085 0.929 . S
C2094 C2086 1.378 . S
C2094 C2089 1.350 . S
C2095 H2082 0.929 . S
C2095 C2087 1.433 . S
C2095 N2097 1.384 . S
N2096 C2092 1.427 . S
N2096 C2093 1.384 . S
N2097 C2089 1.427 . S
N2097 C2095 1.384 . S
H2098 C2104 0.930 . S
H2099 C2108 0.930 . S
H2100 C2113 0.929 . S
H2101 C2111 0.929 . S
H2102 C2106 0.929 . S
H2103 C2112 0.929 . S
C2104 H2098 0.930 . S
C2104 C2105 1.367 . S
C2104 C2112 1.378 . S
C2105 C2104 1.367 . S
C2105 C2113 1.433 . S
C2106 H2102 0.929 . S
C2106 C2108 1.378 . S
C2106 C2110 1.350 . S
C2107 C2110 1.463 . S
C2107 C2112 1.350 . S
C2107 N2115 1.427 . S
C2108 H2099 0.930 . S
C2108 C2106 1.378 . S
C2108 C2109 1.367 . S
C2109 C2108 1.367 . S
C2109 C2111 1.433 . S
C2110 C2106 1.350 . S
C2110 C2107 1.463 . S
C2110 N2114 1.427 . S
C2111 H2101 0.929 . S
C2111 C2109 1.433 . S
C2111 N2114 1.384 . S
C2112 H2103 0.929 . S
C2112 C2104 1.378 . S
C2112 C2107 1.350 . S
C2113 H2100 0.929 . S
C2113 C2105 1.433 . S
C2113 N2115 1.384 . S
N2114 C2110 1.427 . S
N2114 C2111 1.384 . S
N2115 C2107 1.427 . S
N2115 C2113 1.384 . S
H2116 C2122 0.930 . S
H2117 C2126 0.930 . S
H2118 C2131 0.929 . S
H2119 C2129 0.929 . S
H2120 C2124 0.929 . S
H2121 C2130 0.929 . S
C2122 H2116 0.930 . S
C2122 C2123 1.367 . S
C2122 C2130 1.378 . S
C2123 C2122 1.367 . S
C2123 C2131 1.433 . S
C2124 H2120 0.929 . S
C2124 C2126 1.378 . S
C2124 C2128 1.350 . S
C2125 C2128 1.463 . S
C2125 C2130 1.350 . S
C2125 N2133 1.427 . S
C2126 H2117 0.930 . S
C2126 C2124 1.378 . S
C2126 C2127 1.367 . S
C2127 C2126 1.367 . S
C2127 C2129 1.433 . S
C2128 C2124 1.350 . S
C2128 C2125 1.463 . S
C2128 N2132 1.427 . S
C2129 H2119 0.929 . S
C2129 C2127 1.433 . S
C2129 N2132 1.384 . S
C2130 H2121 0.929 . S
C2130 C2122 1.378 . S
C2130 C2125 1.350 . S
C2131 H2118 0.929 . S
C2131 C2123 1.433 . S
C2131 N2133 1.384 . S
N2132 C2128 1.427 . S
N2132 C2129 1.384 . S
N2133 C2125 1.427 . S
N2133 C2131 1.384 . S
H2134 C2140 0.930 . S
H2135 C2144 0.930 . S
H2136 C2149 0.929 . S
H2137 C2147 0.929 . S
H2138 C2142 0.929 . S
H2139 C2148 0.929 . S
C2140 H2134 0.930 . S
C2140 C2141 1.367 . S
C2140 C2148 1.378 . S
C2141 C2140 1.367 . S
C2141 C2149 1.433 . S
C2142 H2138 0.929 . S
C2142 C2144 1.378 . S
C2142 C2146 1.350 . S
C2143 C2146 1.463 . S
C2143 C2148 1.350 . S
C2143 N2151 1.427 . S
C2144 H2135 0.930 . S
C2144 C2142 1.378 . S
C2144 C2145 1.367 . S
C2145 C2144 1.367 . S
C2145 C2147 1.433 . S
C2146 C2142 1.350 . S
C2146 C2143 1.463 . S
C2146 N2150 1.427 . S
C2147 H2137 0.929 . S
C2147 C2145 1.433 . S
C2147 N2150 1.384 . S
C2148 H2139 0.929 . S
C2148 C2140 1.378 . S
C2148 C2143 1.350 . S
C2149 H2136 0.929 . S
C2149 C2141 1.433 . S
C2149 N2151 1.384 . S
N2150 C2146 1.427 . S
N2150 C2147 1.384 . S
N2151 C2143 1.427 . S
N2151 C2149 1.384 . S
H2152 C2158 0.930 . S
H2153 C2162 0.930 . S
H2154 C2167 0.929 . S
H2155 C2165 0.929 . S
H2156 C2160 0.929 . S
H2157 C2166 0.929 . S
C2158 H2152 0.930 . S
C2158 C2159 1.367 . S
C2158 C2166 1.378 . S
C2159 C2158 1.367 . S
C2159 C2167 1.433 . S
C2160 H2156 0.929 . S
C2160 C2162 1.378 . S
C2160 C2164 1.350 . S
C2161 C2164 1.463 . S
C2161 C2166 1.350 . S
C2161 N2169 1.427 . S
C2162 H2153 0.930 . S
C2162 C2160 1.378 . S
C2162 C2163 1.367 . S
C2163 C2162 1.367 . S
C2163 C2165 1.433 . S
C2164 C2160 1.350 . S
C2164 C2161 1.463 . S
C2164 N2168 1.427 . S
C2165 H2155 0.929 . S
C2165 C2163 1.433 . S
C2165 N2168 1.384 . S
C2166 H2157 0.929 . S
C2166 C2158 1.378 . S
C2166 C2161 1.350 . S
C2167 H2154 0.929 . S
C2167 C2159 1.433 . S
C2167 N2169 1.384 . S
N2168 C2164 1.427 . S
N2168 C2165 1.384 . S
N2169 C2161 1.427 . S
N2169 C2167 1.384 . S
H2170 C2176 0.930 . S
H2171 C2180 0.930 . S
H2172 C2185 0.929 . S
H2173 C2183 0.929 . S
H2174 C2178 0.929 . S
H2175 C2184 0.929 . S
C2176 H2170 0.930 . S
C2176 C2177 1.367 . S
C2176 C2184 1.378 . S
C2177 C2176 1.367 . S
C2177 C2185 1.433 . S
C2178 H2174 0.929 . S
C2178 C2180 1.378 . S
C2178 C2182 1.350 . S
C2179 C2182 1.463 . S
C2179 C2184 1.350 . S
C2179 N2187 1.427 . S
C2180 H2171 0.930 . S
C2180 C2178 1.378 . S
C2180 C2181 1.367 . S
C2181 C2180 1.367 . S
C2181 C2183 1.433 . S
C2182 C2178 1.350 . S
C2182 C2179 1.463 . S
C2182 N2186 1.427 . S
C2183 H2173 0.929 . S
C2183 C2181 1.433 . S
C2183 N2186 1.384 . S
C2184 H2175 0.929 . S
C2184 C2176 1.378 . S
C2184 C2179 1.350 . S
C2185 H2172 0.929 . S
C2185 C2177 1.433 . S
C2185 N2187 1.384 . S
N2186 C2182 1.427 . S
N2186 C2183 1.384 . S
N2187 C2179 1.427 . S
N2187 C2185 1.384 . S
H2188 C2194 0.930 . S
H2189 C2198 0.930 . S
H2190 C2203 0.929 . S
H2191 C2201 0.929 . S
H2192 C2196 0.929 . S
H2193 C2202 0.929 . S
C2194 H2188 0.930 . S
C2194 C2195 1.367 . S
C2194 C2202 1.378 . S
C2195 C2194 1.367 . S
C2195 C2203 1.433 . S
C2196 H2192 0.929 . S
C2196 C2198 1.378 . S
C2196 C2200 1.350 . S
C2197 C2200 1.463 . S
C2197 C2202 1.350 . S
C2197 N2205 1.427 . S
C2198 H2189 0.930 . S
C2198 C2196 1.378 . S
C2198 C2199 1.367 . S
C2199 C2198 1.367 . S
C2199 C2201 1.433 . S
C2200 C2196 1.350 . S
C2200 C2197 1.463 . S
C2200 N2204 1.427 . S
C2201 H2191 0.929 . S
C2201 C2199 1.433 . S
C2201 N2204 1.384 . S
C2202 H2193 0.929 . S
C2202 C2194 1.378 . S
C2202 C2197 1.350 . S
C2203 H2190 0.929 . S
C2203 C2195 1.433 . S
C2203 N2205 1.384 . S
N2204 C2200 1.427 . S
N2204 C2201 1.384 . S
N2205 C2197 1.427 . S
N2205 C2203 1.384 . S
H2206 C2212 0.930 . S
H2207 C2216 0.930 . S
H2208 C2221 0.929 . S
H2209 C2219 0.929 . S
H2210 C2214 0.929 . S
H2211 C2220 0.929 . S
C2212 H2206 0.930 . S
C2212 C2213 1.367 . S
C2212 C2220 1.378 . S
C2213 C2212 1.367 . S
C2213 C2221 1.433 . S
C2214 H2210 0.929 . S
C2214 C2216 1.378 . S
C2214 C2218 1.350 . S
C2215 C2218 1.463 . S
C2215 C2220 1.350 . S
C2215 N2223 1.427 . S
C2216 H2207 0.930 . S
C2216 C2214 1.378 . S
C2216 C2217 1.367 . S
C2217 C2216 1.367 . S
C2217 C2219 1.433 . S
C2218 C2214 1.350 . S
C2218 C2215 1.463 . S
C2218 N2222 1.427 . S
C2219 H2209 0.929 . S
C2219 C2217 1.433 . S
C2219 N2222 1.384 . S
C2220 H2211 0.929 . S
C2220 C2212 1.378 . S
C2220 C2215 1.350 . S
C2221 H2208 0.929 . S
C2221 C2213 1.433 . S
C2221 N2223 1.384 . S
N2222 C2218 1.427 . S
N2222 C2219 1.384 . S
N2223 C2215 1.427 . S
N2223 C2221 1.384 . S
H2224 C2230 0.930 . S
H2225 C2234 0.930 . S
H2226 C2239 0.929 . S
H2227 C2237 0.929 . S
H2228 C2232 0.929 . S
H2229 C2238 0.929 . S
C2230 H2224 0.930 . S
C2230 C2231 1.367 . S
C2230 C2238 1.378 . S
C2231 C2230 1.367 . S
C2231 C2239 1.433 . S
C2232 H2228 0.929 . S
C2232 C2234 1.378 . S
C2232 C2236 1.350 . S
C2233 C2236 1.463 . S
C2233 C2238 1.350 . S
C2233 N2241 1.427 . S
C2234 H2225 0.930 . S
C2234 C2232 1.378 . S
C2234 C2235 1.367 . S
C2235 C2234 1.367 . S
C2235 C2237 1.433 . S
C2236 C2232 1.350 . S
C2236 C2233 1.463 . S
C2236 N2240 1.427 . S
C2237 H2227 0.929 . S
C2237 C2235 1.433 . S
C2237 N2240 1.384 . S
C2238 H2229 0.929 . S
C2238 C2230 1.378 . S
C2238 C2233 1.350 . S
C2239 H2226 0.929 . S
C2239 C2231 1.433 . S
C2239 N2241 1.384 . S
N2240 C2236 1.427 . S
N2240 C2237 1.384 . S
N2241 C2233 1.427 . S
N2241 C2239 1.384 . S
H2242 C2248 0.930 . S
H2243 C2252 0.930 . S
H2244 C2257 0.929 . S
H2245 C2255 0.929 . S
H2246 C2250 0.929 . S
H2247 C2256 0.929 . S
C2248 H2242 0.930 . S
C2248 C2249 1.367 . S
C2248 C2256 1.378 . S
C2249 C2248 1.367 . S
C2249 C2257 1.433 . S
C2250 H2246 0.929 . S
C2250 C2252 1.378 . S
C2250 C2254 1.350 . S
C2251 C2254 1.463 . S
C2251 C2256 1.350 . S
C2251 N2259 1.427 . S
C2252 H2243 0.930 . S
C2252 C2250 1.378 . S
C2252 C2253 1.367 . S
C2253 C2252 1.367 . S
C2253 C2255 1.433 . S
C2254 C2250 1.350 . S
C2254 C2251 1.463 . S
C2254 N2258 1.427 . S
C2255 H2245 0.929 . S
C2255 C2253 1.433 . S
C2255 N2258 1.384 . S
C2256 H2247 0.929 . S
C2256 C2248 1.378 . S
C2256 C2251 1.350 . S
C2257 H2244 0.929 . S
C2257 C2249 1.433 . S
C2257 N2259 1.384 . S
N2258 C2254 1.427 . S
N2258 C2255 1.384 . S
N2259 C2251 1.427 . S
N2259 C2257 1.384 . S
H2260 C2266 0.930 . S
H2261 C2270 0.930 . S
H2262 C2275 0.929 . S
H2263 C2273 0.929 . S
H2264 C2268 0.929 . S
H2265 C2274 0.929 . S
C2266 H2260 0.930 . S
C2266 C2267 1.367 . S
C2266 C2274 1.378 . S
C2267 C2266 1.367 . S
C2267 C2275 1.433 . S
C2268 H2264 0.929 . S
C2268 C2270 1.378 . S
C2268 C2272 1.350 . S
C2269 C2272 1.463 . S
C2269 C2274 1.350 . S
C2269 N2277 1.427 . S
C2270 H2261 0.930 . S
C2270 C2268 1.378 . S
C2270 C2271 1.367 . S
C2271 C2270 1.367 . S
C2271 C2273 1.433 . S
C2272 C2268 1.350 . S
C2272 C2269 1.463 . S
C2272 N2276 1.427 . S
C2273 H2263 0.929 . S
C2273 C2271 1.433 . S
C2273 N2276 1.384 . S
C2274 H2265 0.929 . S
C2274 C2266 1.378 . S
C2274 C2269 1.350 . S
C2275 H2262 0.929 . S
C2275 C2267 1.433 . S
C2275 N2277 1.384 . S
N2276 C2272 1.427 . S
N2276 C2273 1.384 . S
N2277 C2269 1.427 . S
N2277 C2275 1.384 . S
H2278 C2284 0.930 . S
H2279 C2288 0.930 . S
H2280 C2293 0.929 . S
H2281 C2291 0.929 . S
H2282 C2286 0.929 . S
H2283 C2292 0.929 . S
C2284 H2278 0.930 . S
C2284 C2285 1.367 . S
C2284 C2292 1.378 . S
C2285 C2284 1.367 . S
C2285 C2293 1.433 . S
C2286 H2282 0.929 . S
C2286 C2288 1.378 . S
C2286 C2290 1.350 . S
C2287 C2290 1.463 . S
C2287 C2292 1.350 . S
C2287 N2295 1.427 . S
C2288 H2279 0.930 . S
C2288 C2286 1.378 . S
C2288 C2289 1.367 . S
C2289 C2288 1.367 . S
C2289 C2291 1.433 . S
C2290 C2286 1.350 . S
C2290 C2287 1.463 . S
C2290 N2294 1.427 . S
C2291 H2281 0.929 . S
C2291 C2289 1.433 . S
C2291 N2294 1.384 . S
C2292 H2283 0.929 . S
C2292 C2284 1.378 . S
C2292 C2287 1.350 . S
C2293 H2280 0.929 . S
C2293 C2285 1.433 . S
C2293 N2295 1.384 . S
N2294 C2290 1.427 . S
N2294 C2291 1.384 . S
N2295 C2287 1.427 . S
N2295 C2293 1.384 . S
H2296 C2302 0.930 . S
H2297 C2306 0.930 . S
H2298 C2311 0.929 . S
H2299 C2309 0.929 . S
H2300 C2304 0.929 . S
H2301 C2310 0.929 . S
C2302 H2296 0.930 . S
C2302 C2303 1.367 . S
C2302 C2310 1.378 . S
C2303 C2302 1.367 . S
C2303 C2311 1.433 . S
C2304 H2300 0.929 . S
C2304 C2306 1.378 . S
C2304 C2308 1.350 . S
C2305 C2308 1.463 . S
C2305 C2310 1.350 . S
C2305 N2313 1.427 . S
C2306 H2297 0.930 . S
C2306 C2304 1.378 . S
C2306 C2307 1.367 . S
C2307 C2306 1.367 . S
C2307 C2309 1.433 . S
C2308 C2304 1.350 . S
C2308 C2305 1.463 . S
C2308 N2312 1.427 . S
C2309 H2299 0.929 . S
C2309 C2307 1.433 . S
C2309 N2312 1.384 . S
C2310 H2301 0.929 . S
C2310 C2302 1.378 . S
C2310 C2305 1.350 . S
C2311 H2298 0.929 . S
C2311 C2303 1.433 . S
C2311 N2313 1.384 . S
N2312 C2308 1.427 . S
N2312 C2309 1.384 . S
N2313 C2305 1.427 . S
N2313 C2311 1.384 . S
H2314 C2320 0.930 . S
H2315 C2324 0.930 . S
H2316 C2329 0.929 . S
H2317 C2327 0.929 . S
H2318 C2322 0.929 . S
H2319 C2328 0.929 . S
C2320 H2314 0.930 . S
C2320 C2321 1.367 . S
C2320 C2328 1.378 . S
C2321 C2320 1.367 . S
C2321 C2329 1.433 . S
C2322 H2318 0.929 . S
C2322 C2324 1.378 . S
C2322 C2326 1.350 . S
C2323 C2326 1.463 . S
C2323 C2328 1.350 . S
C2323 N2331 1.427 . S
C2324 H2315 0.930 . S
C2324 C2322 1.378 . S
C2324 C2325 1.367 . S
C2325 C2324 1.367 . S
C2325 C2327 1.433 . S
C2326 C2322 1.350 . S
C2326 C2323 1.463 . S
C2326 N2330 1.427 . S
C2327 H2317 0.929 . S
C2327 C2325 1.433 . S
C2327 N2330 1.384 . S
C2328 H2319 0.929 . S
C2328 C2320 1.378 . S
C2328 C2323 1.350 . S
C2329 H2316 0.929 . S
C2329 C2321 1.433 . S
C2329 N2331 1.384 . S
N2330 C2326 1.427 . S
N2330 C2327 1.384 . S
N2331 C2323 1.427 . S
N2331 C2329 1.384 . S
H2332 C2338 0.930 . S
H2333 C2342 0.930 . S
H2334 C2347 0.929 . S
H2335 C2345 0.929 . S
H2336 C2340 0.929 . S
H2337 C2346 0.929 . S
C2338 H2332 0.930 . S
C2338 C2339 1.367 . S
C2338 C2346 1.378 . S
C2339 C2338 1.367 . S
C2339 C2347 1.433 . S
C2340 H2336 0.929 . S
C2340 C2342 1.378 . S
C2340 C2344 1.350 . S
C2341 C2344 1.463 . S
C2341 C2346 1.350 . S
C2341 N2349 1.427 . S
C2342 H2333 0.930 . S
C2342 C2340 1.378 . S
C2342 C2343 1.367 . S
C2343 C2342 1.367 . S
C2343 C2345 1.433 . S
C2344 C2340 1.350 . S
C2344 C2341 1.463 . S
C2344 N2348 1.427 . S
C2345 H2335 0.929 . S
C2345 C2343 1.433 . S
C2345 N2348 1.384 . S
C2346 H2337 0.929 . S
C2346 C2338 1.378 . S
C2346 C2341 1.350 . S
C2347 H2334 0.929 . S
C2347 C2339 1.433 . S
C2347 N2349 1.384 . S
N2348 C2344 1.427 . S
N2348 C2345 1.384 . S
N2349 C2341 1.427 . S
N2349 C2347 1.384 . S
H2350 C2356 0.930 . S
H2351 C2360 0.930 . S
H2352 C2365 0.929 . S
H2353 C2363 0.929 . S
H2354 C2358 0.929 . S
H2355 C2364 0.929 . S
C2356 H2350 0.930 . S
C2356 C2357 1.367 . S
C2356 C2364 1.378 . S
C2357 C2356 1.367 . S
C2357 C2365 1.433 . S
C2358 H2354 0.929 . S
C2358 C2360 1.378 . S
C2358 C2362 1.350 . S
C2359 C2362 1.463 . S
C2359 C2364 1.350 . S
C2359 N2367 1.427 . S
C2360 H2351 0.930 . S
C2360 C2358 1.378 . S
C2360 C2361 1.367 . S
C2361 C2360 1.367 . S
C2361 C2363 1.433 . S
C2362 C2358 1.350 . S
C2362 C2359 1.463 . S
C2362 N2366 1.427 . S
C2363 H2353 0.929 . S
C2363 C2361 1.433 . S
C2363 N2366 1.384 . S
C2364 H2355 0.929 . S
C2364 C2356 1.378 . S
C2364 C2359 1.350 . S
C2365 H2352 0.929 . S
C2365 C2357 1.433 . S
C2365 N2367 1.384 . S
N2366 C2362 1.427 . S
N2366 C2363 1.384 . S
N2367 C2359 1.427 . S
N2367 C2365 1.384 . S
C647 C8 1.785 . S
C651 C66 1.747 . S
C665 C6 1.740 . S
C669 C28 1.784 . S
C683 C48 1.784 . S
C687 C26 1.745 . S
C701 C46 1.740 . S
C705 C68 1.785 1_556 S
C719 C106 1.751 . S
C723 C88 1.789 . S
C737 C108 1.793 . S
C741 C126 1.753 . S
C755 C146 1.742 . S
C759 C128 1.783 . S
C773 C86 1.754 . S
C777 C148 1.793 1_554 S
C791 C179 1.783 . S
C795 C236 1.740 . S
C809 C199 1.783 . S
C813 C176 1.741 . S
C827 C219 1.793 . S
C831 C196 1.752 . S
C845 C239 1.786 1_554 S
C849 C216 1.741 . S
C863 C259 1.793 . S
C867 C276 1.754 . S
C881 C279 1.790 . S
C885 C296 1.746 . S
C899 C316 1.752 . S
C903 C299 1.790 . S
C917 C256 1.750 . S
C921 C319 1.788 1_556 S
C935 C328 1.788 . S
C939 C386 1.751 . S
C953 C326 1.740 . S
C957 C348 1.783 1_556 S
C971 C346 1.751 . S
C975 C368 1.793 . S
C989 C388 1.783 . S
C993 C366 1.743 . S
C1007 C408 1.790 . S
C1011 C426 1.745 . S
C1025 C446 1.753 . S
C1029 C428 1.790 1_554 S
C1043 C448 1.786 . S
C1047 C466 1.748 . S
C1061 C406 1.748 . S
C1065 C468 1.786 . S
C1079 C556 1.742 . S
C1083 C499 1.787 . S
C1097 C496 1.743 . S
C1101 C519 1.783 1_554 S
C1115 C539 1.791 . S
C1119 C516 1.747 . S
C1133 C536 1.742 . S
C1137 C559 1.783 . S
C1151 C596 1.754 . S
C1155 C579 1.792 . S
C1169 C616 1.743 . S
C1173 C599 1.783 1_556 S
C1187 C636 1.753 . S
C1191 C619 1.790 . S
C1205 C639 1.783 . S
C1209 C576 1.740 . S
C1223 C548 1.407 . S
C1227 C1 1.501 . S
C1241 C21 1.498 . S
C1245 C168 1.400 . S
C1259 C41 1.498 . S
C1263 C508 1.400 . S
C1277 C61 1.501 . S
C1281 C208 1.414 . S
C1295 C81 1.501 . S
C1299 C588 1.413 . S
C1313 C288 1.412 . S
C1317 C101 1.497 . S
C1331 C628 1.398 . S
C1335 C121 1.496 . S
C1349 C141 1.495 . S
C1353 C248 1.398 . S
C1367 C169 1.495 . S
C1371 C399 1.398 . S
C1385 C19 1.398 . S
C1389 C189 1.495 . S
C1403 C359 1.414 . S
C1407 C209 1.498 . S
C1421 C59 1.418 . S
C1425 C229 1.500 . S
C1439 C439 1.399 . S
C1443 C249 1.495 . S
C1457 C139 1.416 . S
C1461 C269 1.498 . S
C1475 C289 1.501 . S
C1479 C479 1.413 . S
C1493 C309 1.497 . S
C1497 C99 1.413 . S
C1511 C321 1.500 . S
C1515 C228 1.418 . S
C1529 C341 1.495 . S
C1533 C488 1.401 . S
C1547 C361 1.495 . S
C1551 C188 1.398 . S
C1565 C381 1.501 . S
C1569 C528 1.412 . S
C1583 C401 1.495 . S
C1587 C268 1.398 . S
C1601 C421 1.495 . S
C1605 C608 1.402 . S
C1619 C308 1.406 . S
C1623 C441 1.495 . S
C1637 C461 1.496 . S
C1641 C568 1.398 . S
C1655 C79 1.404 . S
C1659 C489 1.495 . S
C1673 C339 1.406 . S
C1677 C509 1.500 . S
C1691 C39 1.399 . S
C1695 C529 1.497 . S
C1709 C379 1.401 . S
C1713 C549 1.495 . S
C1727 C119 1.399 . S
C1731 C569 1.498 . S
C1745 C589 1.500 . S
C1749 C459 1.406 . S
C1763 C609 1.497 . S
C1767 C159 1.398 . S
C1781 C419 1.408 . S
C1785 C629 1.496 . S
C1799 C9 0.309 . S
C1803 C89 0.299 . S
C1817 C29 0.305 . S
C1821 C109 0.281 . S
C1835 C49 0.285 . S
C1839 C129 0.280 . S
C1853 C149 0.306 . S
C1857 C69 0.282 . S
C1871 C241 0.298 . S
C1875 C161 0.309 . S
C1889 C261 0.277 . S
C1893 C181 0.290 . S
C1907 C201 0.283 . S
C1911 C281 0.281 . S
C1925 C221 0.288 . S
C1929 C301 0.309 . S
C1943 C329 0.308 . S
C1947 C409 0.301 . S
C1961 C429 0.295 . S
C1965 C349 0.310 . S
C1979 C449 0.310 . S
C1983 C369 0.293 . S
C1997 C469 0.281 . S
C2001 C389 0.283 . S
C2015 C561 0.309 . S
C2019 C481 0.299 . S
C2033 C501 0.310 . S
C2037 C581 0.295 . S
C2051 C601 0.289 . S
C2055 C521 0.278 . S
C2069 C541 0.278 . S
C2073 C621 0.289 . S
C2087 C156 1.812 . S
C2091 C16 1.813 . S
C2105 C36 1.813 . S
C2109 C96 1.815 . S
C2123 C56 1.820 . S
C2127 C116 1.820 . S
C2141 C136 1.820 . S
C2145 C76 1.821 . S
C2159 C166 1.814 . S
C2163 C306 1.813 . S
C2177 C246 1.820 . S
C2181 C186 1.821 . S
C2195 C266 1.821 . S
C2199 C206 1.821 . S
C2213 C226 1.821 . S
C2217 C286 1.821 . S
C2231 C336 1.821 . S
C2235 C476 1.821 . S
C2249 C416 1.809 . S
C2253 C356 1.808 . S
C2267 C436 1.816 . S
C2271 C376 1.815 . S
C2285 C456 1.808 . S
C2289 C396 1.808 . S
C2303 C486 1.820 . S
C2307 C626 1.821 . S
C2321 C566 1.819 . S
C2325 C506 1.820 . S
C2339 C526 1.813 . S
C2343 C586 1.814 . S
C2357 C606 1.821 . S
C2361 C546 1.821 . S
