# Generated by pormake.
# Topology ukn, (4)-cn, num edge types: 1
# Building blocks:
#     Node 0, Type 0, BuildingBlock: NAHDIM_clean_sbu_0, # of connection points: 4
#     Node 1, Type 0, BuildingBlock: NAHDIM_clean_sbu_0, # of connection points: 4
#     Node 2, Type 0, BuildingBlock: NAHDIM_clean_sbu_0, # of connection points: 4
#     Node 3, Type 0, BuildingBlock: NAHDIM_clean_sbu_0, # of connection points: 4
#     Node 4, Type 0, BuildingBlock: NAHDIM_clean_sbu_0, # of connection points: 4
#     Node 5, Type 0, BuildingBlock: NAHDIM_clean_sbu_0, # of connection points: 4
#     Node 6, Type 0, BuildingBlock: NAHDIM_clean_sbu_0, # of connection points: 4
#     Node 7, Type 0, BuildingBlock: NAHDIM_clean_sbu_0, # of connection points: 4
#     Node 8, Type 0, BuildingBlock: NAHDIM_clean_sbu_0, # of connection points: 4
#     Node 9, Type 0, BuildingBlock: NAHDIM_clean_sbu_0, # of connection points: 4
#     Node 10, Type 0, BuildingBlock: NAHDIM_clean_sbu_0, # of connection points: 4
#     Node 11, Type 0, BuildingBlock: NAHDIM_clean_sbu_0, # of connection points: 4
#     Node 12, Type 0, BuildingBlock: NAHDIM_clean_sbu_0, # of connection points: 4
#     Node 13, Type 0, BuildingBlock: NAHDIM_clean_sbu_0, # of connection points: 4
#     Node 14, Type 0, BuildingBlock: NAHDIM_clean_sbu_0, # of connection points: 4
#     Node 15, Type 0, BuildingBlock: NAHDIM_clean_sbu_0, # of connection points: 4
#     Node 16, Type 0, BuildingBlock: NAHDIM_clean_sbu_0, # of connection points: 4
#     Node 17, Type 0, BuildingBlock: NAHDIM_clean_sbu_0, # of connection points: 4
#     Node 18, Type 0, BuildingBlock: NAHDIM_clean_sbu_0, # of connection points: 4
#     Node 19, Type 0, BuildingBlock: NAHDIM_clean_sbu_0, # of connection points: 4
#     Node 20, Type 0, BuildingBlock: NAHDIM_clean_sbu_0, # of connection points: 4
#     Node 21, Type 0, BuildingBlock: NAHDIM_clean_sbu_0, # of connection points: 4
#     Node 22, Type 0, BuildingBlock: NAHDIM_clean_sbu_0, # of connection points: 4
#     Node 23, Type 0, BuildingBlock: NAHDIM_clean_sbu_0, # of connection points: 4
#     Node 24, Type 0, BuildingBlock: NAHDIM_clean_sbu_0, # of connection points: 4
#     Node 25, Type 0, BuildingBlock: NAHDIM_clean_sbu_0, # of connection points: 4
#     Node 26, Type 0, BuildingBlock: NAHDIM_clean_sbu_0, # of connection points: 4
#     Node 27, Type 0, BuildingBlock: NAHDIM_clean_sbu_0, # of connection points: 4
#     Node 28, Type 0, BuildingBlock: NAHDIM_clean_sbu_0, # of connection points: 4
#     Node 29, Type 0, BuildingBlock: NAHDIM_clean_sbu_0, # of connection points: 4
#     Node 30, Type 0, BuildingBlock: NAHDIM_clean_sbu_0, # of connection points: 4
#     Node 31, Type 0, BuildingBlock: NAHDIM_clean_sbu_0, # of connection points: 4
#     Node 32, Type 0, BuildingBlock: NAHDIM_clean_sbu_0, # of connection points: 4
#     Node 33, Type 0, BuildingBlock: NAHDIM_clean_sbu_0, # of connection points: 4
#     Node 34, Type 0, BuildingBlock: NAHDIM_clean_sbu_0, # of connection points: 4
#     Node 35, Type 0, BuildingBlock: NAHDIM_clean_sbu_0, # of connection points: 4
#     Edge 36, Type (0, 0), None
#     Edge 37, Type (0, 0), None
#     Edge 38, Type (0, 0), None
#     Edge 39, Type (0, 0), None
#     Edge 40, Type (0, 0), None
#     Edge 41, Type (0, 0), None
#     Edge 42, Type (0, 0), None
#     Edge 43, Type (0, 0), None
#     Edge 44, Type (0, 0), None
#     Edge 45, Type (0, 0), None
#     Edge 46, Type (0, 0), None
#     Edge 47, Type (0, 0), None
#     Edge 48, Type (0, 0), None
#     Edge 49, Type (0, 0), None
#     Edge 50, Type (0, 0), None
#     Edge 51, Type (0, 0), None
#     Edge 52, Type (0, 0), None
#     Edge 53, Type (0, 0), None
#     Edge 54, Type (0, 0), None
#     Edge 55, Type (0, 0), None
#     Edge 56, Type (0, 0), None
#     Edge 57, Type (0, 0), None
#     Edge 58, Type (0, 0), None
#     Edge 59, Type (0, 0), None
#     Edge 60, Type (0, 0), None
#     Edge 61, Type (0, 0), None
#     Edge 62, Type (0, 0), None
#     Edge 63, Type (0, 0), None
#     Edge 64, Type (0, 0), None
#     Edge 65, Type (0, 0), None
#     Edge 66, Type (0, 0), None
#     Edge 67, Type (0, 0), None
#     Edge 68, Type (0, 0), None
#     Edge 69, Type (0, 0), None
#     Edge 70, Type (0, 0), None
#     Edge 71, Type (0, 0), None
#     Edge 72, Type (0, 0), None
#     Edge 73, Type (0, 0), None
#     Edge 74, Type (0, 0), None
#     Edge 75, Type (0, 0), None
#     Edge 76, Type (0, 0), None
#     Edge 77, Type (0, 0), None
#     Edge 78, Type (0, 0), None
#     Edge 79, Type (0, 0), None
#     Edge 80, Type (0, 0), None
#     Edge 81, Type (0, 0), None
#     Edge 82, Type (0, 0), None
#     Edge 83, Type (0, 0), None
#     Edge 84, Type (0, 0), None
#     Edge 85, Type (0, 0), None
#     Edge 86, Type (0, 0), None
#     Edge 87, Type (0, 0), None
#     Edge 88, Type (0, 0), None
#     Edge 89, Type (0, 0), None
#     Edge 90, Type (0, 0), None
#     Edge 91, Type (0, 0), None
#     Edge 92, Type (0, 0), None
#     Edge 93, Type (0, 0), None
#     Edge 94, Type (0, 0), None
#     Edge 95, Type (0, 0), None
#     Edge 96, Type (0, 0), None
#     Edge 97, Type (0, 0), None
#     Edge 98, Type (0, 0), None
#     Edge 99, Type (0, 0), None
#     Edge 100, Type (0, 0), None
#     Edge 101, Type (0, 0), None
#     Edge 102, Type (0, 0), None
#     Edge 103, Type (0, 0), None
#     Edge 104, Type (0, 0), None
#     Edge 105, Type (0, 0), None
#     Edge 106, Type (0, 0), None
#     Edge 107, Type (0, 0), None
# Relax obj value: 0.143
# Max RMSD: 0.138
# Mean RMSD: 0.138
data_MOF--net-ukn--node1-NAHDIM_clean_sbu_0--edge1-none
_symmetry_space_group_name_H-M    P1
_symmetry_Int_Tables_number       1
_symmetry_cell_setting            triclinic
loop_
_symmetry_equiv_pos_as_xyz
'x, y, z'
_cell_length_a     50.054706
_cell_length_b     50.080039
_cell_length_c     10.394112
_cell_angle_alpha  90.652723
_cell_angle_beta   89.49781
_cell_angle_gamma 120.01709
loop_
_atom_site_label
_atom_site_type_symbol
_atom_site_fract_x
_atom_site_fract_y
_atom_site_fract_z
_atom_type_partial_charge
C0 C 0.02254 0.26676 0.96253 0.0
O1 O 0.03729 0.29697 0.97249 0.0
O2 O 0.08665 0.30148 0.19092 0.0
Zn3 Zn 0.08255 0.28153 0.0153 0.0
O4 O 0.0995 0.31402 0.87599 0.0
C5 C 0.11612 0.25276 0.11688 0.0
O6 O 0.10267 0.25258 0.22614 0.0
O7 O 0.03736 0.25254 0.97809 0.0
C8 C 0.11999 0.31632 0.79638 0.0
O9 O 0.13109 0.29757 0.80393 0.0
C10 C 0.09992 0.3304 0.21175 0.0
O11 O 0.11153 0.34961 0.11515 0.0
O12 O 0.10867 0.26117 0.01495 0.0
C13 C 0.74148 0.7564 0.08398 0.0
O14 O 0.71133 0.74012 0.09558 0.0
O15 O 0.70709 0.78814 0.32673 0.0
Zn16 Zn 0.72566 0.8009 0.14742 0.0
O17 O 0.69221 0.78338 0.0128 0.0
C18 C 0.75237 0.86434 0.2353 0.0
O19 O 0.75264 0.85285 0.34787 0.0
O20 O 0.75508 0.78528 0.10562 0.0
C21 C 0.67455 0.79454 0.99938 0.0
O22 O 0.67742 0.81676 0.07658 0.0
C23 C 0.67873 0.76932 0.3492 0.0
O24 O 0.6598 0.75529 0.25313 0.0
O25 O 0.74478 0.8471 0.13584 0.0
C26 C 0.25665 0.98917 0.98743 0.0
O27 O 0.27216 0.97459 0.99991 0.0
O28 O 0.23067 0.92736 0.2147 0.0
Zn29 Zn 0.2121 0.92972 0.04559 0.0
O30 O 0.22612 0.91191 0.90184 0.0
C31 C 0.15167 0.8978 0.16747 0.0
O32 O 0.16663 0.91341 0.27033 0.0
O33 O 0.22758 0.97443 1.00425 0.0
C34 C 0.20749 0.89408 0.81646 0.0
O35 O 0.17837 0.88665 0.82104 0.0
C36 C 0.23761 0.90664 0.23652 0.0
O37 O 0.23352 0.8864 0.14624 0.0
O38 O 0.16584 0.90321 0.06048 0.0
C39 C 0.27337 0.02199 0.95453 0.0
O40 O 0.30344 0.03595 0.93902 0.0
O41 O 0.30965 0.08406 0.72598 0.0
Zn42 Zn 0.28946 0.08189 0.89887 0.0
O43 O 0.32175 0.09915 0.03954 0.0
C44 C 0.26179 0.11551 0.78736 0.0
O45 O 0.26167 0.10127 0.68033 0.0
O46 O 0.25964 0.03731 0.94075 0.0
C47 C 0.32184 0.11749 0.12546 0.0
O48 O 0.30082 0.12583 0.12357 0.0
C49 C 0.33808 0.1026 0.70405 0.0
O50 O 0.35569 0.12083 0.79651 0.0
O51 O 0.27008 0.1088 0.89156 0.0
C52 C 0.98927 0.25033 0.93721 0.0
O53 O 0.97505 0.26624 0.92674 0.0
O54 O 0.91871 0.21446 0.72729 0.0
Zn55 Zn 0.92793 0.20457 0.90466 0.0
O56 O 0.91406 0.22401 0.04126 0.0
C57 C 0.89122 0.13997 0.83457 0.0
O58 O 0.9021 0.14987 0.71873 0.0
O59 O 0.97369 0.2211 0.9283 0.0
C60 C 0.88562 0.2156 0.05139 0.0
O61 O 0.86578 0.19507 0.97046 0.0
C62 C 0.91425 0.23676 0.70337 0.0
O63 O 0.91694 0.25605 0.79573 0.0
O64 O 0.90138 0.15866 0.92933 0.0
C65 C 0.75853 0.74069 0.04688 0.0
O66 O 0.74335 0.71058 0.03225 0.0
O67 O 0.79243 0.70845 0.80809 0.0
Zn68 Zn 0.80482 0.7273 0.98735 0.0
O69 O 0.78817 0.69404 0.12185 0.0
C70 C 0.86818 0.75622 0.89814 0.0
O71 O 0.85612 0.75687 0.78736 0.0
O72 O 0.78756 0.75538 0.02866 0.0
C73 C 0.7984 0.67549 0.13029 0.0
O74 O 0.81931 0.67733 0.048 0.0
C75 C 0.77356 0.68013 0.78464 0.0
O76 O 0.75901 0.66125 0.87982 0.0
O77 O 0.85123 0.74764 0.99826 0.0
C78 C 0.991 0.74204 0.05409 0.0
O79 O 0.97625 0.71183 0.04413 0.0
O80 O 0.92689 0.70731 0.82568 0.0
Zn81 Zn 0.931 0.72726 1.0013 0.0
O82 O 0.91404 0.69477 0.14061 0.0
C83 C 0.89742 0.75604 0.89973 0.0
O84 O 0.91087 0.75622 0.79044 0.0
O85 O 0.97618 0.75625 0.03851 0.0
C86 C 0.89355 0.69247 0.22022 0.0
O87 O 0.88245 0.71122 0.21266 0.0
C88 C 0.91363 0.67839 0.80485 0.0
O89 O 0.90203 0.65918 0.90145 0.0
O90 O 0.90487 0.74762 1.00165 0.0
C91 C 0.27207 0.2524 0.93266 0.0
O92 O 0.30221 0.26868 0.92107 0.0
O93 O 0.30646 0.22066 0.6899 0.0
Zn94 Zn 0.28789 0.2079 0.86921 0.0
O95 O 0.32134 0.22543 1.00383 0.0
C96 C 0.26118 0.14446 0.7813 0.0
O97 O 0.26091 0.15595 0.66871 0.0
O98 O 0.25847 0.22352 0.91101 0.0
C99 C 0.339 0.21426 0.01727 0.0
O100 O 0.33612 0.19203 0.94008 0.0
C101 C 0.33482 0.23948 0.66743 0.0
O102 O 0.35375 0.2535 0.7635 0.0
O103 O 0.26877 0.1617 0.88077 0.0
C104 C 0.7569 0.01963 0.02921 0.0
O105 O 0.74138 0.03422 0.01674 0.0
O106 O 0.78288 0.08145 0.80194 0.0
Zn107 Zn 0.80144 0.07908 0.97106 0.0
O108 O 0.78742 0.0969 0.11481 0.0
C109 C 0.86187 0.111 0.84917 0.0
O110 O 0.84693 0.0954 0.74627 0.0
O111 O 0.78597 0.03437 0.01238 0.0
C112 C 0.80605 0.11473 0.20018 0.0
O113 O 0.83518 0.12215 0.19559 0.0
C114 C 0.77594 0.10217 0.78012 0.0
O115 O 0.78003 0.12241 0.87039 0.0
O116 O 0.84771 0.1056 0.95615 0.0
C117 C 0.74017 0.98682 0.06211 0.0
O118 O 0.71011 0.97285 0.07761 0.0
O119 O 0.7039 0.92474 0.29065 0.0
Zn120 Zn 0.72409 0.92691 0.11775 0.0
O121 O 0.6918 0.90966 0.97708 0.0
C122 C 0.75177 0.8933 0.22925 0.0
O123 O 0.75189 0.90753 0.33631 0.0
O124 O 0.75391 0.97149 0.07587 0.0
C125 C 0.69171 0.89131 0.89118 0.0
O126 O 0.71272 0.88296 0.89309 0.0
C127 C 0.67547 0.9062 0.31257 0.0
O128 O 0.65786 0.88797 0.2201 0.0
O129 O 0.74347 0.9 0.12506 0.0
C130 C 0.02428 0.75847 0.07942 0.0
O131 O 0.0385 0.74257 0.08989 0.0
O132 O 0.09482 0.79435 0.28936 0.0
Zn133 Zn 0.08561 0.80424 0.11199 0.0
O134 O 0.09949 0.78481 0.9754 0.0
C135 C 0.12232 0.86884 0.18208 0.0
O136 O 0.11145 0.85895 0.29794 0.0
O137 O 0.03985 0.78771 0.08833 0.0
C138 C 0.12792 0.79322 0.96525 0.0
O139 O 0.14777 0.81376 0.04617 0.0
C140 C 0.09929 0.77205 0.31328 0.0
O141 O 0.09661 0.75277 0.22092 0.0
O142 O 0.11216 0.85015 0.08731 0.0
C143 C 0.25501 0.26811 0.96976 0.0
O144 O 0.27019 0.29822 0.98441 0.0
O145 O 0.22111 0.30035 0.20854 0.0
Zn146 Zn 0.20872 0.28149 0.02928 0.0
O147 O 0.22537 0.31476 0.89478 0.0
C148 C 0.14536 0.25256 0.11848 0.0
O149 O 0.15741 0.25191 0.22929 0.0
O150 O 0.22598 0.25341 0.98798 0.0
C151 C 0.21514 0.33331 0.88633 0.0
O152 O 0.19423 0.33146 0.96861 0.0
C153 C 0.23999 0.32866 0.23199 0.0
O154 O 0.25453 0.34754 0.13682 0.0
O155 O 0.16232 0.26115 0.01837 0.0
C156 C 0.69173 0.60379 0.40308 0.0
O157 O 0.70593 0.63379 0.42092 0.0
O158 O 0.75401 0.63922 0.63123 0.0
Zn159 Zn 0.7516 0.61938 0.45687 0.0
O160 O 0.76867 0.65183 0.31762 0.0
C161 C 0.78633 0.59242 0.56426 0.0
O162 O 0.77306 0.59287 0.67315 0.0
O163 O 0.7069 0.58981 0.41459 0.0
C164 C 0.78668 0.6519 0.23033 0.0
O165 O 0.79485 0.63075 0.22981 0.0
C166 C 0.77033 0.66804 0.65274 0.0
O167 O 0.78626 0.68661 0.55859 0.0
O168 O 0.77855 0.59998 0.46092 0.0
C169 C 0.41171 0.09128 0.3198 0.0
O170 O 0.38154 0.07595 0.3317 0.0
O171 O 0.37843 0.12583 0.54975 0.0
Zn172 Zn 0.39747 0.13734 0.37099 0.0
O173 O 0.3642 0.11963 0.23577 0.0
C174 C 0.42551 0.20111 0.45457 0.0
O175 O 0.42624 0.18984 0.56709 0.0
O176 O 0.4261 0.12038 0.33573 0.0
C177 C 0.34541 0.12955 0.22613 0.0
O178 O 0.34715 0.15068 0.30715 0.0
C179 C 0.35058 0.10553 0.57322 0.0
O180 O 0.33239 0.08901 0.47864 0.0
O181 O 0.41728 0.18359 0.35588 0.0
C182 C 0.92235 0.32322 0.33043 0.0
O183 O 0.93853 0.30922 0.33861 0.0
O184 O 0.89772 0.26081 0.55298 0.0
Zn185 Zn 0.87882 0.26306 0.38488 0.0
O186 O 0.89336 0.24594 0.23993 0.0
C187 C 0.81847 0.23059 0.50739 0.0
O188 O 0.83339 0.24634 0.61007 0.0
O189 O 0.89332 0.30774 0.34745 0.0
C190 C 0.87485 0.22835 0.15371 0.0
O191 O 0.84576 0.22105 0.15782 0.0
C192 C 0.90363 0.23941 0.57543 0.0
O193 O 0.8981 0.21842 0.48667 0.0
O194 O 0.83264 0.23595 0.40041 0.0
C195 C 0.93833 0.35632 0.30313 0.0
O196 O 0.96835 0.37103 0.2856 0.0
O197 O 0.97234 0.42085 0.08669 0.0
Zn198 Zn 0.95285 0.41646 0.26295 0.0
O199 O 0.98573 0.43289 0.40121 0.0
C200 C 0.92496 0.45164 0.16911 0.0
O201 O 0.92553 0.43976 0.05655 0.0
O202 O 0.92401 0.37127 0.29752 0.0
C203 C 0.98708 0.45181 0.4872 0.0
O204 O 0.96694 0.4613 0.48748 0.0
C205 C 1.00097 0.43136 0.06617 0.0
O206 O 0.02016 0.43997 0.16343 0.0
O207 O 0.93263 0.4427 0.26893 0.0
C208 C 0.65889 0.58743 0.36979 0.0
O209 O 0.64455 0.60322 0.3591 0.0
O210 O 0.5973 0.56286 0.14121 0.0
Zn211 Zn 0.5993 0.5436 0.30846 0.0
O212 O 0.58158 0.55754 0.45273 0.0
C213 C 0.56732 0.48375 0.1814 0.0
O214 O 0.58346 0.49907 0.08051 0.0
O215 O 0.64392 0.55845 0.35061 0.0
C216 C 0.56469 0.53903 0.53992 0.0
O217 O 0.55839 0.51025 0.53688 0.0
C218 C 0.57521 0.5677 0.11756 0.0
O219 O 0.55359 0.56091 0.20446 0.0
O220 O 0.57235 0.49746 0.28961 0.0
C221 C 0.42781 0.07424 0.28923 0.0
O222 O 0.41171 0.04405 0.28007 0.0
O223 O 0.46254 0.03949 0.05967 0.0
Zn224 Zn 0.47303 0.05842 0.23921 0.0
O225 O 0.45382 0.02497 0.37199 0.0
C226 C 0.53759 0.08505 0.16905 0.0
O227 O 0.52773 0.08553 0.05293 0.0
O228 O 0.45685 0.08783 0.27171 0.0
C229 C 0.46124 1.0042 0.377 0.0
O230 O 0.48079 1.00401 0.29241 0.0
C231 C 0.43984 0.01298 0.033 0.0
O232 O 0.42025 0.99654 0.12379 0.0
O233 O 0.51897 0.07728 0.26361 0.0
C234 C 0.65853 0.07405 0.38003 0.0
O235 O 0.64432 0.04381 0.3736 0.0
O236 O 0.59783 0.03638 0.13789 0.0
Zn237 Zn 0.59924 0.05754 0.30748 0.0
O238 O 0.58136 0.02586 0.4488 0.0
C239 C 0.56653 0.08468 0.1845 0.0
O240 O 0.58236 0.08524 0.08215 0.0
O241 O 0.64364 0.0877 0.35347 0.0
C242 C 0.5652 0.028 0.53901 0.0
O243 O 0.5597 0.05103 0.54086 0.0
C244 C 0.57627 0.00914 0.11274 0.0
O245 O 0.55484 0.99392 0.19944 0.0
O246 O 0.57191 0.07632 0.29156 0.0
C247 C 0.93888 0.58785 0.35596 0.0
O248 O 0.969 0.60336 0.34154 0.0
O249 O 0.97196 0.55796 0.10456 0.0
Zn250 Zn 0.9528 0.5428 0.28165 0.0
O251 O 0.98572 0.55787 0.41832 0.0
C252 C 0.92475 0.48084 0.17531 0.0
O253 O 0.92475 0.49441 0.06799 0.0
O254 O 0.92434 0.55908 0.3313 0.0
C255 C 1.0026 0.54578 0.43001 0.0
O256 O 0.99932 0.52392 0.34969 0.0
C257 C 1.00088 0.57237 0.08296 0.0
O258 O 0.02024 0.58028 0.17924 0.0
O259 O 0.93264 0.49633 0.27973 0.0
C260 C 0.42772 0.356 0.26023 0.0
O261 O 0.41186 0.37027 0.2498 0.0
O262 O 0.4638 0.42666 0.05131 0.0
Zn263 Zn 0.47355 0.41726 0.22867 0.0
O264 O 0.45396 0.43098 0.36471 0.0
C265 C 0.53837 0.45453 0.1631 0.0
O266 O 0.52885 0.44428 0.04598 0.0
O267 O 0.45697 0.3715 0.25151 0.0
C268 C 0.46181 0.45927 0.37431 0.0
O269 O 0.48192 0.47918 0.2928 0.0
C270 C 0.44102 0.43034 0.02654 0.0
O271 O 0.42122 0.42673 0.11781 0.0
O272 O 0.5194 0.44384 0.25639 0.0
C273 C 0.41121 0.32278 0.28579 0.0
O274 O 0.38099 0.30814 0.2953 0.0
O275 O 0.37578 0.25973 0.51482 0.0
Zn276 Zn 0.39605 0.26295 0.34092 0.0
O277 O 0.36379 0.24574 0.20004 0.0
C278 C 0.42493 0.2301 0.44884 0.0
O279 O 0.42536 0.24441 0.55613 0.0
O280 O 0.42535 0.30793 0.30253 0.0
C281 C 0.36254 0.2261 0.11804 0.0
O282 O 0.38228 0.21617 0.12411 0.0
C283 C 0.34694 0.24324 0.53548 0.0
O284 O 0.32841 0.2276 0.44032 0.0
O285 O 0.41614 0.23661 0.34549 0.0
C286 C 0.69143 0.09109 0.41253 0.0
O287 O 0.70596 0.07569 0.43005 0.0
O288 O 0.76044 0.12675 0.628 0.0
Zn289 Zn 0.75211 0.13721 0.44984 0.0
O290 O 0.7667 0.11833 0.31419 0.0
C291 C 0.78911 0.20165 0.52218 0.0
O292 O 0.77847 0.19159 0.63811 0.0
O293 O 0.70651 0.12037 0.41998 0.0
C294 C 0.79524 0.12738 0.30258 0.0
O295 O 0.81508 0.14833 0.38226 0.0
C296 C 0.76588 0.10505 0.65126 0.0
O297 O 0.76481 0.08673 0.55761 0.0
O298 O 0.77867 0.18317 0.42687 0.0
C299 C 0.92298 0.60427 0.39939 0.0
O300 O 0.939 0.63432 0.41516 0.0
O301 O 0.89259 0.63777 0.6496 0.0
Zn302 Zn 0.87835 0.61915 0.47057 0.0
O303 O 0.89463 0.65248 0.33615 0.0
C304 C 0.81552 0.59216 0.56645 0.0
O305 O 0.82801 0.59249 0.67745 0.0
O306 O 0.89414 0.59023 0.42209 0.0
C307 C 0.8822 0.66894 0.32043 0.0
O308 O 0.8593 0.66504 0.39551 0.0
C309 C 0.90882 0.66659 0.67193 0.0
O310 O 0.919 0.68599 0.57569 0.0
O311 O 0.83197 0.59954 0.46494 0.0
C312 C 0.35502 0.93475 0.63661 0.0
O313 O 0.36923 0.965 0.64304 0.0
O314 O 0.41571 0.97243 0.87873 0.0
Zn315 Zn 0.4143 0.95126 0.70915 0.0
O316 O 0.43219 0.98294 0.56783 0.0
C317 C 0.44702 0.92413 0.83213 0.0
O318 O 0.43118 0.92357 0.93444 0.0
O319 O 0.3699 0.9211 0.66316 0.0
C320 C 0.44835 0.98079 0.47761 0.0
O321 O 0.45384 0.95777 0.47576 0.0
C322 C 0.43728 0.99966 0.90388 0.0
O323 O 0.45871 0.01488 0.81718 0.0
O324 O 0.44164 0.93248 0.72507 0.0
C325 C 0.07468 0.42096 0.66061 0.0
O326 O 0.04457 0.40545 0.67505 0.0
O327 O 0.04163 0.45095 0.91188 0.0
Zn328 Zn 0.06078 0.46604 0.73471 0.0
O329 O 0.02785 0.45094 0.59809 0.0
C330 C 0.08892 0.52803 0.84072 0.0
O331 O 0.08898 0.51447 0.948 0.0
O332 O 0.08922 0.44974 0.68518 0.0
C333 C 0.01085 0.46291 0.5868 0.0
O334 O 0.01402 0.48466 0.66751 0.0
C335 C 0.01272 0.43638 0.93348 0.0
O336 O 0.99334 0.42823 0.83717 0.0
O337 O 0.08095 0.5125 0.73638 0.0
C338 C 0.58583 0.6528 0.7564 0.0
O339 O 0.6017 0.63854 0.76683 0.0
O340 O 0.54975 0.58214 0.96532 0.0
Zn341 Zn 0.54 0.59154 0.78796 0.0
O342 O 0.5596 0.57782 0.65191 0.0
C343 C 0.47518 0.55427 0.85351 0.0
O344 O 0.48471 0.56453 0.97062 0.0
O345 O 0.55658 0.6373 0.76512 0.0
C346 C 0.55174 0.54953 0.64232 0.0
O347 O 0.53164 0.52963 0.72384 0.0
C348 C 0.57254 0.57846 0.99009 0.0
O349 O 0.59234 0.58207 0.89882 0.0
O350 O 0.49415 0.56496 0.76023 0.0
C351 C 0.60234 0.68602 0.73084 0.0
O352 O 0.63256 0.70066 0.72133 0.0
O353 O 0.63777 0.74906 0.50181 0.0
Zn354 Zn 0.6175 0.74585 0.6757 0.0
O355 O 0.64976 0.76306 0.81659 0.0
C356 C 0.58863 0.77871 0.56777 0.0
O357 O 0.5882 0.76439 0.46052 0.0
O358 O 0.5882 0.70087 0.71409 0.0
C359 C 0.65101 0.7827 0.89861 0.0
O360 O 0.63125 0.79262 0.89255 0.0
C361 C 0.66661 0.76556 0.48115 0.0
O362 O 0.68514 0.78121 0.5763 0.0
O363 O 0.59742 0.7722 0.67113 0.0
C364 C 0.32212 0.91771 0.60411 0.0
O365 O 0.30759 0.93312 0.58659 0.0
O366 O 0.25311 0.88206 0.38864 0.0
Zn367 Zn 0.26144 0.8716 0.5668 0.0
O368 O 0.24685 0.89048 0.70245 0.0
C369 C 0.22443 0.80715 0.49447 0.0
O370 O 0.23508 0.81723 0.37856 0.0
O371 O 0.30704 0.88844 0.59666 0.0
C372 C 0.2183 0.88143 0.71406 0.0
O373 O 0.19847 0.86047 0.63438 0.0
C374 C 0.24767 0.90376 0.36538 0.0
O375 O 0.24874 0.92208 0.45903 0.0
O376 O 0.23488 0.82564 0.58978 0.0
C377 C 0.09058 0.40453 0.61724 0.0
O378 O 0.07455 0.37447 0.60153 0.0
O379 O 0.12096 0.37103 0.367 0.0
Zn380 Zn 0.1352 0.38964 0.54603 0.0
O381 O 0.11891 0.35631 0.68045 0.0
C382 C 0.19803 0.41663 0.45017 0.0
O383 O 0.18554 0.4163 0.3392 0.0
O384 O 0.11942 0.41857 0.59449 0.0
C385 C 0.13135 0.33984 0.69616 0.0
O386 O 0.15424 0.34374 0.62107 0.0
C387 C 0.10473 0.34221 0.34467 0.0
O388 O 0.09454 0.3228 0.4409 0.0
O389 O 0.18158 0.40925 0.55168 0.0
C390 C 0.32182 0.40501 0.61356 0.0
O391 O 0.30762 0.375 0.59572 0.0
O392 O 0.25954 0.36958 0.3854 0.0
Zn393 Zn 0.26196 0.38942 0.55976 0.0
O394 O 0.24488 0.35697 0.69902 0.0
C395 C 0.22723 0.41639 0.45235 0.0
O396 O 0.24049 0.41593 0.34344 0.0
O397 O 0.30665 0.41898 0.60204 0.0
C398 C 0.22686 0.3569 0.78629 0.0
O399 O 0.21869 0.37805 0.78679 0.0
C400 C 0.24322 0.34075 0.36389 0.0
O401 O 0.22728 0.32218 0.45804 0.0
O402 O 0.23501 0.40881 0.5557 0.0
C403 C 0.60184 0.91753 0.69683 0.0
O404 O 0.63201 0.93285 0.68492 0.0
O405 O 0.63512 0.88297 0.46687 0.0
Zn406 Zn 0.61608 0.87146 0.64563 0.0
O407 O 0.64935 0.88917 0.78085 0.0
C408 C 0.58803 0.80769 0.56203 0.0
O409 O 0.58731 0.81895 0.44949 0.0
O410 O 0.58745 0.88842 0.6809 0.0
C411 C 0.66814 0.87925 0.79051 0.0
O412 O 0.66639 0.85812 0.7095 0.0
C413 C 0.66297 0.90327 0.4434 0.0
O414 O 0.68116 0.91978 0.53799 0.0
O415 O 0.59626 0.82521 0.66073 0.0
C416 C 0.09119 0.68559 0.68625 0.0
O417 O 0.07501 0.69959 0.67814 0.0
O418 O 0.11582 0.748 0.46368 0.0
Zn419 Zn 0.13472 0.74575 0.63177 0.0
O420 O 0.12018 0.76287 0.77673 0.0
C421 C 0.19507 0.77821 0.50925 0.0
O422 O 0.18016 0.76247 0.40655 0.0
O423 O 0.12022 0.70108 0.66919 0.0
C424 C 0.13869 0.78047 0.86293 0.0
O425 O 0.16779 0.78778 0.8588 0.0
C426 C 0.10991 0.7694 0.44123 0.0
O427 O 0.11544 0.7904 0.52998 0.0
O428 O 0.18091 0.77286 0.61624 0.0
C429 C 0.07522 0.65249 0.71348 0.0
O430 O 0.0452 0.63777 0.73099 0.0
O431 O 0.04124 0.58786 0.92972 0.0
Zn432 Zn 0.06074 0.59234 0.75342 0.0
O433 O 0.02784 0.57592 0.61519 0.0
C434 C 0.08872 0.55724 0.84696 0.0
O435 O 0.08819 0.56911 0.95957 0.0
O436 O 0.08955 0.63755 0.71903 0.0
C437 C 0.02637 0.55686 0.52961 0.0
O438 O 0.04638 0.54721 0.52974 0.0
C439 C 0.01264 0.57748 0.95028 0.0
O440 O 0.99346 0.56908 0.85302 0.0
O441 O 0.081 0.56614 0.74721 0.0
C442 C 0.35466 0.42137 0.64684 0.0
O443 O 0.36901 0.40557 0.65754 0.0
O444 O 0.41626 0.44595 0.87542 0.0
Zn445 Zn 0.41425 0.4652 0.70816 0.0
O446 O 0.43197 0.45126 0.56389 0.0
C447 C 0.44622 0.52505 0.83523 0.0
O448 O 0.4301 0.50973 0.93615 0.0
O449 O 0.36964 0.45035 0.66602 0.0
C450 C 0.44887 0.46977 0.47671 0.0
O451 O 0.45517 0.49856 0.47977 0.0
C452 C 0.43834 0.4411 0.89907 0.0
O453 O 0.45996 0.44789 0.81217 0.0
O454 O 0.4412 0.51134 0.72702 0.0
C455 C 0.58574 0.93456 0.7274 0.0
O456 O 0.60184 0.96475 0.73655 0.0
O457 O 0.551 0.96931 0.95695 0.0
Zn458 Zn 0.54052 0.95038 0.77741 0.0
O459 O 0.55973 0.98383 0.64463 0.0
C460 C 0.47596 0.92375 0.84759 0.0
O461 O 0.48582 0.92327 0.96372 0.0
O462 O 0.5567 0.92097 0.74492 0.0
C463 C 0.5523 0.0046 0.63963 0.0
O464 O 0.53276 0.00479 0.72422 0.0
C465 C 0.57371 0.99582 0.98362 0.0
O466 O 0.59329 0.01226 0.89283 0.0
O467 O 0.49458 0.93152 0.75302 0.0
loop_
_geom_bond_atom_site_label_1
_geom_bond_atom_site_label_2
_geom_bond_distance
_geom_bond_site_symmetry_2
_ccdc_geom_bond_type
C0 O1 1.160 . S
C0 O7 1.185 . S
O1 C0 1.160 . S
O2 Zn3 1.899 . S
O2 C10 1.284 . S
Zn3 O2 1.899 . S
Zn3 O4 2.032 1_554 S
Zn3 O7 2.086 . S
Zn3 O12 1.977 . S
O4 Zn3 2.032 1_556 S
O4 C8 1.278 . S
C5 O6 1.203 . S
C5 O12 1.267 . S
O6 C5 1.203 . S
O7 C0 1.185 . S
O7 Zn3 2.086 . S
C8 O4 1.278 . S
C8 O9 1.211 . S
O9 C8 1.211 . S
C10 O2 1.284 . S
C10 O11 1.273 . S
O11 C10 1.273 . S
O12 Zn3 1.977 . S
O12 C5 1.267 . S
C13 O14 1.160 . S
C13 O20 1.185 . S
O14 C13 1.160 . S
O15 Zn16 1.899 . S
O15 C23 1.284 . S
Zn16 O15 1.899 . S
Zn16 O17 2.032 1_554 S
Zn16 O20 2.086 . S
Zn16 O25 1.977 . S
O17 Zn16 2.032 1_556 S
O17 C21 1.278 . S
C18 O19 1.203 . S
C18 O25 1.267 . S
O19 C18 1.203 . S
O20 C13 1.185 . S
O20 Zn16 2.086 . S
C21 O17 1.278 . S
C21 O22 1.211 . S
O22 C21 1.211 . S
C23 O15 1.284 . S
C23 O24 1.273 . S
O24 C23 1.273 . S
O25 Zn16 1.977 . S
O25 C18 1.267 . S
C26 O27 1.160 . S
C26 O33 1.185 . S
O27 C26 1.160 . S
O28 Zn29 1.899 . S
O28 C36 1.284 . S
Zn29 O28 1.899 . S
Zn29 O30 2.032 1_554 S
Zn29 O33 2.086 . S
Zn29 O38 1.977 . S
O30 Zn29 2.032 1_556 S
O30 C34 1.278 . S
C31 O32 1.203 . S
C31 O38 1.267 . S
O32 C31 1.203 . S
O33 C26 1.185 . S
O33 Zn29 2.086 . S
C34 O30 1.278 . S
C34 O35 1.211 . S
O35 C34 1.211 . S
C36 O28 1.284 . S
C36 O37 1.273 . S
O37 C36 1.273 . S
O38 Zn29 1.977 . S
O38 C31 1.267 . S
C39 O40 1.160 . S
C39 O46 1.185 . S
O40 C39 1.160 . S
O41 Zn42 1.899 . S
O41 C49 1.284 . S
Zn42 O41 1.899 . S
Zn42 O43 2.032 1_556 S
Zn42 O46 2.086 . S
Zn42 O51 1.977 . S
O43 Zn42 2.032 1_554 S
O43 C47 1.278 . S
C44 O45 1.203 . S
C44 O51 1.267 . S
O45 C44 1.203 . S
O46 C39 1.185 . S
O46 Zn42 2.086 . S
C47 O43 1.278 . S
C47 O48 1.211 . S
O48 C47 1.211 . S
C49 O41 1.284 . S
C49 O50 1.273 . S
O50 C49 1.273 . S
O51 Zn42 1.977 . S
O51 C44 1.267 . S
C52 O53 1.160 . S
C52 O59 1.185 . S
O53 C52 1.160 . S
O54 Zn55 1.899 . S
O54 C62 1.284 . S
Zn55 O54 1.899 . S
Zn55 O56 2.032 1_556 S
Zn55 O59 2.086 . S
Zn55 O64 1.977 . S
O56 Zn55 2.032 1_554 S
O56 C60 1.278 . S
C57 O58 1.203 . S
C57 O64 1.267 . S
O58 C57 1.203 . S
O59 C52 1.185 . S
O59 Zn55 2.086 . S
C60 O56 1.278 . S
C60 O61 1.211 . S
O61 C60 1.211 . S
C62 O54 1.284 . S
C62 O63 1.273 . S
O63 C62 1.273 . S
O64 Zn55 1.977 . S
O64 C57 1.267 . S
C65 O66 1.160 . S
C65 O72 1.185 . S
O66 C65 1.160 . S
O67 Zn68 1.899 . S
O67 C75 1.284 . S
Zn68 O67 1.899 . S
Zn68 O69 2.032 1_556 S
Zn68 O72 2.086 . S
Zn68 O77 1.977 . S
O69 Zn68 2.032 1_554 S
O69 C73 1.278 . S
C70 O71 1.203 . S
C70 O77 1.267 . S
O71 C70 1.203 . S
O72 C65 1.185 . S
O72 Zn68 2.086 . S
C73 O69 1.278 . S
C73 O74 1.211 . S
O74 C73 1.211 . S
C75 O67 1.284 . S
C75 O76 1.273 . S
O76 C75 1.273 . S
O77 Zn68 1.977 . S
O77 C70 1.267 . S
C78 O79 1.160 . S
C78 O85 1.185 . S
O79 C78 1.160 . S
O80 Zn81 1.899 . S
O80 C88 1.284 . S
Zn81 O80 1.899 . S
Zn81 O82 2.032 1_556 S
Zn81 O85 2.086 . S
Zn81 O90 1.977 . S
O82 Zn81 2.032 1_554 S
O82 C86 1.278 . S
C83 O84 1.203 . S
C83 O90 1.267 . S
O84 C83 1.203 . S
O85 C78 1.185 . S
O85 Zn81 2.086 . S
C86 O82 1.278 . S
C86 O87 1.211 . S
O87 C86 1.211 . S
C88 O80 1.284 . S
C88 O89 1.273 . S
O89 C88 1.273 . S
O90 Zn81 1.977 . S
O90 C83 1.267 . S
C91 O92 1.160 . S
C91 O98 1.185 . S
O92 C91 1.160 . S
O93 Zn94 1.899 . S
O93 C101 1.284 . S
Zn94 O93 1.899 . S
Zn94 O95 2.032 1_556 S
Zn94 O98 2.086 . S
Zn94 O103 1.977 . S
O95 Zn94 2.032 1_554 S
O95 C99 1.278 . S
C96 O97 1.203 . S
C96 O103 1.267 . S
O97 C96 1.203 . S
O98 C91 1.185 . S
O98 Zn94 2.086 . S
C99 O95 1.278 . S
C99 O100 1.211 . S
O100 C99 1.211 . S
C101 O93 1.284 . S
C101 O102 1.273 . S
O102 C101 1.273 . S
O103 Zn94 1.977 . S
O103 C96 1.267 . S
C104 O105 1.160 . S
C104 O111 1.185 . S
O105 C104 1.160 . S
O106 Zn107 1.899 . S
O106 C114 1.284 . S
Zn107 O106 1.899 . S
Zn107 O108 2.032 1_556 S
Zn107 O111 2.086 . S
Zn107 O116 1.977 . S
O108 Zn107 2.032 1_554 S
O108 C112 1.278 . S
C109 O110 1.203 . S
C109 O116 1.267 . S
O110 C109 1.203 . S
O111 C104 1.185 . S
O111 Zn107 2.086 . S
C112 O108 1.278 . S
C112 O113 1.211 . S
O113 C112 1.211 . S
C114 O106 1.284 . S
C114 O115 1.273 . S
O115 C114 1.273 . S
O116 Zn107 1.977 . S
O116 C109 1.267 . S
C117 O118 1.160 . S
C117 O124 1.185 . S
O118 C117 1.160 . S
O119 Zn120 1.899 . S
O119 C127 1.284 . S
Zn120 O119 1.899 . S
Zn120 O121 2.032 1_554 S
Zn120 O124 2.086 . S
Zn120 O129 1.977 . S
O121 Zn120 2.032 1_556 S
O121 C125 1.278 . S
C122 O123 1.203 . S
C122 O129 1.267 . S
O123 C122 1.203 . S
O124 C117 1.185 . S
O124 Zn120 2.086 . S
C125 O121 1.278 . S
C125 O126 1.211 . S
O126 C125 1.211 . S
C127 O119 1.284 . S
C127 O128 1.273 . S
O128 C127 1.273 . S
O129 Zn120 1.977 . S
O129 C122 1.267 . S
C130 O131 1.160 . S
C130 O137 1.185 . S
O131 C130 1.160 . S
O132 Zn133 1.899 . S
O132 C140 1.284 . S
Zn133 O132 1.899 . S
Zn133 O134 2.032 1_554 S
Zn133 O137 2.086 . S
Zn133 O142 1.977 . S
O134 Zn133 2.032 1_556 S
O134 C138 1.278 . S
C135 O136 1.203 . S
C135 O142 1.267 . S
O136 C135 1.203 . S
O137 C130 1.185 . S
O137 Zn133 2.086 . S
C138 O134 1.278 . S
C138 O139 1.211 . S
O139 C138 1.211 . S
C140 O132 1.284 . S
C140 O141 1.273 . S
O141 C140 1.273 . S
O142 Zn133 1.977 . S
O142 C135 1.267 . S
C143 O144 1.160 . S
C143 O150 1.185 . S
O144 C143 1.160 . S
O145 Zn146 1.899 . S
O145 C153 1.284 . S
Zn146 O145 1.899 . S
Zn146 O147 2.032 1_554 S
Zn146 O150 2.086 . S
Zn146 O155 1.977 . S
O147 Zn146 2.032 1_556 S
O147 C151 1.278 . S
C148 O149 1.203 . S
C148 O155 1.267 . S
O149 C148 1.203 . S
O150 C143 1.185 . S
O150 Zn146 2.086 . S
C151 O147 1.278 . S
C151 O152 1.211 . S
O152 C151 1.211 . S
C153 O145 1.284 . S
C153 O154 1.273 . S
O154 C153 1.273 . S
O155 Zn146 1.977 . S
O155 C148 1.267 . S
C156 O157 1.160 . S
C156 O163 1.185 . S
O157 C156 1.160 . S
O158 Zn159 1.899 . S
O158 C166 1.284 . S
Zn159 O158 1.899 . S
Zn159 O160 2.032 . S
Zn159 O163 2.086 . S
Zn159 O168 1.977 . S
O160 Zn159 2.032 . S
O160 C164 1.278 . S
C161 O162 1.203 . S
C161 O168 1.267 . S
O162 C161 1.203 . S
O163 C156 1.185 . S
O163 Zn159 2.086 . S
C164 O160 1.278 . S
C164 O165 1.211 . S
O165 C164 1.211 . S
C166 O158 1.284 . S
C166 O167 1.273 . S
O167 C166 1.273 . S
O168 Zn159 1.977 . S
O168 C161 1.267 . S
C169 O170 1.160 . S
C169 O176 1.185 . S
O170 C169 1.160 . S
O171 Zn172 1.899 . S
O171 C179 1.284 . S
Zn172 O171 1.899 . S
Zn172 O173 2.032 . S
Zn172 O176 2.086 . S
Zn172 O181 1.977 . S
O173 Zn172 2.032 . S
O173 C177 1.278 . S
C174 O175 1.203 . S
C174 O181 1.267 . S
O175 C174 1.203 . S
O176 C169 1.185 . S
O176 Zn172 2.086 . S
C177 O173 1.278 . S
C177 O178 1.211 . S
O178 C177 1.211 . S
C179 O171 1.284 . S
C179 O180 1.273 . S
O180 C179 1.273 . S
O181 Zn172 1.977 . S
O181 C174 1.267 . S
C182 O183 1.160 . S
C182 O189 1.185 . S
O183 C182 1.160 . S
O184 Zn185 1.899 . S
O184 C192 1.284 . S
Zn185 O184 1.899 . S
Zn185 O186 2.032 . S
Zn185 O189 2.086 . S
Zn185 O194 1.977 . S
O186 Zn185 2.032 . S
O186 C190 1.278 . S
C187 O188 1.203 . S
C187 O194 1.267 . S
O188 C187 1.203 . S
O189 C182 1.185 . S
O189 Zn185 2.086 . S
C190 O186 1.278 . S
C190 O191 1.211 . S
O191 C190 1.211 . S
C192 O184 1.284 . S
C192 O193 1.273 . S
O193 C192 1.273 . S
O194 Zn185 1.977 . S
O194 C187 1.267 . S
C195 O196 1.160 . S
C195 O202 1.185 . S
O196 C195 1.160 . S
O197 Zn198 1.899 . S
O197 C205 1.284 . S
Zn198 O197 1.899 . S
Zn198 O199 2.032 . S
Zn198 O202 2.086 . S
Zn198 O207 1.977 . S
O199 Zn198 2.032 . S
O199 C203 1.278 . S
C200 O201 1.203 . S
C200 O207 1.267 . S
O201 C200 1.203 . S
O202 C195 1.185 . S
O202 Zn198 2.086 . S
C203 O199 1.278 . S
C203 O204 1.211 . S
O204 C203 1.211 . S
C205 O197 1.284 . S
C205 O206 1.273 1_655 S
O206 C205 1.273 1_455 S
O207 Zn198 1.977 . S
O207 C200 1.267 . S
C208 O209 1.160 . S
C208 O215 1.185 . S
O209 C208 1.160 . S
O210 Zn211 1.899 . S
O210 C218 1.284 . S
Zn211 O210 1.899 . S
Zn211 O212 2.032 . S
Zn211 O215 2.086 . S
Zn211 O220 1.977 . S
O212 Zn211 2.032 . S
O212 C216 1.278 . S
C213 O214 1.203 . S
C213 O220 1.267 . S
O214 C213 1.203 . S
O215 C208 1.185 . S
O215 Zn211 2.086 . S
C216 O212 1.278 . S
C216 O217 1.211 . S
O217 C216 1.211 . S
C218 O210 1.284 . S
C218 O219 1.273 . S
O219 C218 1.273 . S
O220 Zn211 1.977 . S
O220 C213 1.267 . S
C221 O222 1.160 . S
C221 O228 1.185 . S
O222 C221 1.160 . S
O223 Zn224 1.899 . S
O223 C231 1.284 . S
Zn224 O223 1.899 . S
Zn224 O225 2.032 . S
Zn224 O228 2.086 . S
Zn224 O233 1.977 . S
O225 Zn224 2.032 . S
O225 C229 1.278 . S
C226 O227 1.203 . S
C226 O233 1.267 . S
O227 C226 1.203 . S
O228 C221 1.185 . S
O228 Zn224 2.086 . S
C229 O225 1.278 . S
C229 O230 1.211 . S
O230 C229 1.211 . S
C231 O223 1.284 . S
C231 O232 1.273 1_545 S
O232 C231 1.273 1_565 S
O233 Zn224 1.977 . S
O233 C226 1.267 . S
C234 O235 1.160 . S
C234 O241 1.185 . S
O235 C234 1.160 . S
O236 Zn237 1.899 . S
O236 C244 1.284 . S
Zn237 O236 1.899 . S
Zn237 O238 2.032 . S
Zn237 O241 2.086 . S
Zn237 O246 1.977 . S
O238 Zn237 2.032 . S
O238 C242 1.278 . S
C239 O240 1.203 . S
C239 O246 1.267 . S
O240 C239 1.203 . S
O241 C234 1.185 . S
O241 Zn237 2.086 . S
C242 O238 1.278 . S
C242 O243 1.211 . S
O243 C242 1.211 . S
C244 O236 1.284 . S
C244 O245 1.273 1_545 S
O245 C244 1.273 1_565 S
O246 Zn237 1.977 . S
O246 C239 1.267 . S
C247 O248 1.160 . S
C247 O254 1.185 . S
O248 C247 1.160 . S
O249 Zn250 1.899 . S
O249 C257 1.284 . S
Zn250 O249 1.899 . S
Zn250 O251 2.032 . S
Zn250 O254 2.086 . S
Zn250 O259 1.977 . S
O251 Zn250 2.032 . S
O251 C255 1.278 . S
C252 O253 1.203 . S
C252 O259 1.267 . S
O253 C252 1.203 . S
O254 C247 1.185 . S
O254 Zn250 2.086 . S
C255 O251 1.278 . S
C255 O256 1.211 . S
O256 C255 1.211 . S
C257 O249 1.284 . S
C257 O258 1.273 1_655 S
O258 C257 1.273 1_455 S
O259 Zn250 1.977 . S
O259 C252 1.267 . S
C260 O261 1.160 . S
C260 O267 1.185 . S
O261 C260 1.160 . S
O262 Zn263 1.899 . S
O262 C270 1.284 . S
Zn263 O262 1.899 . S
Zn263 O264 2.032 . S
Zn263 O267 2.086 . S
Zn263 O272 1.977 . S
O264 Zn263 2.032 . S
O264 C268 1.278 . S
C265 O266 1.203 . S
C265 O272 1.267 . S
O266 C265 1.203 . S
O267 C260 1.185 . S
O267 Zn263 2.086 . S
C268 O264 1.278 . S
C268 O269 1.211 . S
O269 C268 1.211 . S
C270 O262 1.284 . S
C270 O271 1.273 . S
O271 C270 1.273 . S
O272 Zn263 1.977 . S
O272 C265 1.267 . S
C273 O274 1.160 . S
C273 O280 1.185 . S
O274 C273 1.160 . S
O275 Zn276 1.899 . S
O275 C283 1.284 . S
Zn276 O275 1.899 . S
Zn276 O277 2.032 . S
Zn276 O280 2.086 . S
Zn276 O285 1.977 . S
O277 Zn276 2.032 . S
O277 C281 1.278 . S
C278 O279 1.203 . S
C278 O285 1.267 . S
O279 C278 1.203 . S
O280 C273 1.185 . S
O280 Zn276 2.086 . S
C281 O277 1.278 . S
C281 O282 1.211 . S
O282 C281 1.211 . S
C283 O275 1.284 . S
C283 O284 1.273 . S
O284 C283 1.273 . S
O285 Zn276 1.977 . S
O285 C278 1.267 . S
C286 O287 1.160 . S
C286 O293 1.185 . S
O287 C286 1.160 . S
O288 Zn289 1.899 . S
O288 C296 1.284 . S
Zn289 O288 1.899 . S
Zn289 O290 2.032 . S
Zn289 O293 2.086 . S
Zn289 O298 1.977 . S
O290 Zn289 2.032 . S
O290 C294 1.278 . S
C291 O292 1.203 . S
C291 O298 1.267 . S
O292 C291 1.203 . S
O293 C286 1.185 . S
O293 Zn289 2.086 . S
C294 O290 1.278 . S
C294 O295 1.211 . S
O295 C294 1.211 . S
C296 O288 1.284 . S
C296 O297 1.273 . S
O297 C296 1.273 . S
O298 Zn289 1.977 . S
O298 C291 1.267 . S
C299 O300 1.160 . S
C299 O306 1.185 . S
O300 C299 1.160 . S
O301 Zn302 1.899 . S
O301 C309 1.284 . S
Zn302 O301 1.899 . S
Zn302 O303 2.032 . S
Zn302 O306 2.086 . S
Zn302 O311 1.977 . S
O303 Zn302 2.032 . S
O303 C307 1.278 . S
C304 O305 1.203 . S
C304 O311 1.267 . S
O305 C304 1.203 . S
O306 C299 1.185 . S
O306 Zn302 2.086 . S
C307 O303 1.278 . S
C307 O308 1.211 . S
O308 C307 1.211 . S
C309 O301 1.284 . S
C309 O310 1.273 . S
O310 C309 1.273 . S
O311 Zn302 1.977 . S
O311 C304 1.267 . S
C312 O313 1.160 . S
C312 O319 1.185 . S
O313 C312 1.160 . S
O314 Zn315 1.899 . S
O314 C322 1.284 . S
Zn315 O314 1.899 . S
Zn315 O316 2.032 . S
Zn315 O319 2.086 . S
Zn315 O324 1.977 . S
O316 Zn315 2.032 . S
O316 C320 1.278 . S
C317 O318 1.203 . S
C317 O324 1.267 . S
O318 C317 1.203 . S
O319 C312 1.185 . S
O319 Zn315 2.086 . S
C320 O316 1.278 . S
C320 O321 1.211 . S
O321 C320 1.211 . S
C322 O314 1.284 . S
C322 O323 1.273 1_565 S
O323 C322 1.273 1_545 S
O324 Zn315 1.977 . S
O324 C317 1.267 . S
C325 O326 1.160 . S
C325 O332 1.185 . S
O326 C325 1.160 . S
O327 Zn328 1.899 . S
O327 C335 1.284 . S
Zn328 O327 1.899 . S
Zn328 O329 2.032 . S
Zn328 O332 2.086 . S
Zn328 O337 1.977 . S
O329 Zn328 2.032 . S
O329 C333 1.278 . S
C330 O331 1.203 . S
C330 O337 1.267 . S
O331 C330 1.203 . S
O332 C325 1.185 . S
O332 Zn328 2.086 . S
C333 O329 1.278 . S
C333 O334 1.211 . S
O334 C333 1.211 . S
C335 O327 1.284 . S
C335 O336 1.273 1_455 S
O336 C335 1.273 1_655 S
O337 Zn328 1.977 . S
O337 C330 1.267 . S
C338 O339 1.160 . S
C338 O345 1.185 . S
O339 C338 1.160 . S
O340 Zn341 1.899 . S
O340 C348 1.284 . S
Zn341 O340 1.899 . S
Zn341 O342 2.032 . S
Zn341 O345 2.086 . S
Zn341 O350 1.977 . S
O342 Zn341 2.032 . S
O342 C346 1.278 . S
C343 O344 1.203 . S
C343 O350 1.267 . S
O344 C343 1.203 . S
O345 C338 1.185 . S
O345 Zn341 2.086 . S
C346 O342 1.278 . S
C346 O347 1.211 . S
O347 C346 1.211 . S
C348 O340 1.284 . S
C348 O349 1.273 . S
O349 C348 1.273 . S
O350 Zn341 1.977 . S
O350 C343 1.267 . S
C351 O352 1.160 . S
C351 O358 1.185 . S
O352 C351 1.160 . S
O353 Zn354 1.899 . S
O353 C361 1.284 . S
Zn354 O353 1.899 . S
Zn354 O355 2.032 . S
Zn354 O358 2.086 . S
Zn354 O363 1.977 . S
O355 Zn354 2.032 . S
O355 C359 1.278 . S
C356 O357 1.203 . S
C356 O363 1.267 . S
O357 C356 1.203 . S
O358 C351 1.185 . S
O358 Zn354 2.086 . S
C359 O355 1.278 . S
C359 O360 1.211 . S
O360 C359 1.211 . S
C361 O353 1.284 . S
C361 O362 1.273 . S
O362 C361 1.273 . S
O363 Zn354 1.977 . S
O363 C356 1.267 . S
C364 O365 1.160 . S
C364 O371 1.185 . S
O365 C364 1.160 . S
O366 Zn367 1.899 . S
O366 C374 1.284 . S
Zn367 O366 1.899 . S
Zn367 O368 2.032 . S
Zn367 O371 2.086 . S
Zn367 O376 1.977 . S
O368 Zn367 2.032 . S
O368 C372 1.278 . S
C369 O370 1.203 . S
C369 O376 1.267 . S
O370 C369 1.203 . S
O371 C364 1.185 . S
O371 Zn367 2.086 . S
C372 O368 1.278 . S
C372 O373 1.211 . S
O373 C372 1.211 . S
C374 O366 1.284 . S
C374 O375 1.273 . S
O375 C374 1.273 . S
O376 Zn367 1.977 . S
O376 C369 1.267 . S
C377 O378 1.160 . S
C377 O384 1.185 . S
O378 C377 1.160 . S
O379 Zn380 1.899 . S
O379 C387 1.284 . S
Zn380 O379 1.899 . S
Zn380 O381 2.032 . S
Zn380 O384 2.086 . S
Zn380 O389 1.977 . S
O381 Zn380 2.032 . S
O381 C385 1.278 . S
C382 O383 1.203 . S
C382 O389 1.267 . S
O383 C382 1.203 . S
O384 C377 1.185 . S
O384 Zn380 2.086 . S
C385 O381 1.278 . S
C385 O386 1.211 . S
O386 C385 1.211 . S
C387 O379 1.284 . S
C387 O388 1.273 . S
O388 C387 1.273 . S
O389 Zn380 1.977 . S
O389 C382 1.267 . S
C390 O391 1.160 . S
C390 O397 1.185 . S
O391 C390 1.160 . S
O392 Zn393 1.899 . S
O392 C400 1.284 . S
Zn393 O392 1.899 . S
Zn393 O394 2.032 . S
Zn393 O397 2.086 . S
Zn393 O402 1.977 . S
O394 Zn393 2.032 . S
O394 C398 1.278 . S
C395 O396 1.203 . S
C395 O402 1.267 . S
O396 C395 1.203 . S
O397 C390 1.185 . S
O397 Zn393 2.086 . S
C398 O394 1.278 . S
C398 O399 1.211 . S
O399 C398 1.211 . S
C400 O392 1.284 . S
C400 O401 1.273 . S
O401 C400 1.273 . S
O402 Zn393 1.977 . S
O402 C395 1.267 . S
C403 O404 1.160 . S
C403 O410 1.185 . S
O404 C403 1.160 . S
O405 Zn406 1.899 . S
O405 C413 1.284 . S
Zn406 O405 1.899 . S
Zn406 O407 2.032 . S
Zn406 O410 2.086 . S
Zn406 O415 1.977 . S
O407 Zn406 2.032 . S
O407 C411 1.278 . S
C408 O409 1.203 . S
C408 O415 1.267 . S
O409 C408 1.203 . S
O410 C403 1.185 . S
O410 Zn406 2.086 . S
C411 O407 1.278 . S
C411 O412 1.211 . S
O412 C411 1.211 . S
C413 O405 1.284 . S
C413 O414 1.273 . S
O414 C413 1.273 . S
O415 Zn406 1.977 . S
O415 C408 1.267 . S
C416 O417 1.160 . S
C416 O423 1.185 . S
O417 C416 1.160 . S
O418 Zn419 1.899 . S
O418 C426 1.284 . S
Zn419 O418 1.899 . S
Zn419 O420 2.032 . S
Zn419 O423 2.086 . S
Zn419 O428 1.977 . S
O420 Zn419 2.032 . S
O420 C424 1.278 . S
C421 O422 1.203 . S
C421 O428 1.267 . S
O422 C421 1.203 . S
O423 C416 1.185 . S
O423 Zn419 2.086 . S
C424 O420 1.278 . S
C424 O425 1.211 . S
O425 C424 1.211 . S
C426 O418 1.284 . S
C426 O427 1.273 . S
O427 C426 1.273 . S
O428 Zn419 1.977 . S
O428 C421 1.267 . S
C429 O430 1.160 . S
C429 O436 1.185 . S
O430 C429 1.160 . S
O431 Zn432 1.899 . S
O431 C439 1.284 . S
Zn432 O431 1.899 . S
Zn432 O433 2.032 . S
Zn432 O436 2.086 . S
Zn432 O441 1.977 . S
O433 Zn432 2.032 . S
O433 C437 1.278 . S
C434 O435 1.203 . S
C434 O441 1.267 . S
O435 C434 1.203 . S
O436 C429 1.185 . S
O436 Zn432 2.086 . S
C437 O433 1.278 . S
C437 O438 1.211 . S
O438 C437 1.211 . S
C439 O431 1.284 . S
C439 O440 1.273 1_455 S
O440 C439 1.273 1_655 S
O441 Zn432 1.977 . S
O441 C434 1.267 . S
C442 O443 1.160 . S
C442 O449 1.185 . S
O443 C442 1.160 . S
O444 Zn445 1.899 . S
O444 C452 1.284 . S
Zn445 O444 1.899 . S
Zn445 O446 2.032 . S
Zn445 O449 2.086 . S
Zn445 O454 1.977 . S
O446 Zn445 2.032 . S
O446 C450 1.278 . S
C447 O448 1.203 . S
C447 O454 1.267 . S
O448 C447 1.203 . S
O449 C442 1.185 . S
O449 Zn445 2.086 . S
C450 O446 1.278 . S
C450 O451 1.211 . S
O451 C450 1.211 . S
C452 O444 1.284 . S
C452 O453 1.273 . S
O453 C452 1.273 . S
O454 Zn445 1.977 . S
O454 C447 1.267 . S
C455 O456 1.160 . S
C455 O462 1.185 . S
O456 C455 1.160 . S
O457 Zn458 1.899 . S
O457 C465 1.284 . S
Zn458 O457 1.899 . S
Zn458 O459 2.032 . S
Zn458 O462 2.086 . S
Zn458 O467 1.977 . S
O459 Zn458 2.032 . S
O459 C463 1.278 . S
C460 O461 1.203 . S
C460 O467 1.267 . S
O461 C460 1.203 . S
O462 C455 1.185 . S
O462 Zn458 2.086 . S
C463 O459 1.278 . S
C463 O464 1.211 . S
O464 C463 1.211 . S
C465 O457 1.284 . S
C465 O466 1.273 1_565 S
O466 C465 1.273 1_545 S
O467 Zn458 1.977 . S
O467 C460 1.267 . S
C5 C148 1.095 . S
C18 C122 1.095 . S
C135 C31 1.095 . S
C44 C96 1.095 . S
C109 C57 1.095 . S
C70 C83 1.095 . S
C304 C161 1.095 . S
C174 C278 1.095 . S
C187 C291 1.095 . S
C252 C200 1.095 . S
C213 C265 1.095 . S
C239 C226 1.095 . S
C317 C460 1.095 . S
C434 C330 1.095 . S
C447 C343 1.095 . S
C408 C356 1.095 . S
C421 C369 1.095 . S
C395 C382 1.095 . S
C0 C52 1.609 1_454 S
C65 C13 1.611 1_556 S
C26 C39 1.609 1_564 S
C78 C130 1.609 1_656 S
C91 C143 1.611 1_556 S
C104 C117 1.609 1_546 S
C208 C156 1.609 . S
C221 C169 1.610 . S
C182 C195 1.609 . S
C286 C234 1.609 . S
C299 C247 1.610 . S
C260 C273 1.609 . S
C364 C312 1.609 . S
C325 C377 1.610 . S
C338 C351 1.609 . S
C442 C390 1.609 . S
C403 C455 1.610 . S
C429 C416 1.609 . S
C385 C8 1.175 . S
C21 C359 1.175 . S
C34 C372 1.175 . S
C47 C177 1.175 . S
C190 C60 1.175 . S
C164 C73 1.175 . S
C86 C307 1.175 . S
C99 C281 1.175 . S
C112 C294 1.175 . S
C411 C125 1.175 . S
C424 C138 1.175 . S
C151 C398 1.175 . S
C333 C203 1.175 1_455 S
C216 C346 1.175 . S
C320 C229 1.175 1_565 S
C463 C242 1.175 1_565 S
C255 C437 1.175 1_655 S
C268 C450 1.175 . S
C10 C387 1.588 . S
C361 C23 1.588 . S
C36 C374 1.588 . S
C179 C49 1.588 . S
C62 C192 1.588 . S
C75 C166 1.588 . S
C309 C88 1.588 . S
C101 C283 1.588 . S
C114 C296 1.588 . S
C127 C413 1.588 . S
C426 C140 1.588 . S
C153 C400 1.588 . S
C335 C205 1.588 1_456 S
C218 C348 1.588 1_554 S
C231 C322 1.588 1_544 S
C465 C244 1.588 1_566 S
C439 C257 1.588 1_456 S
C270 C452 1.588 1_554 S
