# Generated by pormake.
# Topology vbn, (6)-cn, num edge types: 1
# Building blocks:
#     Node 0, Type 0, BuildingBlock: OJICUG_clean_sbu_0, # of connection points: 6
#     Node 1, Type 0, BuildingBlock: OJICUG_clean_sbu_0, # of connection points: 6
#     Node 2, Type 0, BuildingBlock: OJICUG_clean_sbu_0, # of connection points: 6
#     Node 3, Type 0, BuildingBlock: OJICUG_clean_sbu_0, # of connection points: 6
#     Node 4, Type 0, BuildingBlock: OJICUG_clean_sbu_0, # of connection points: 6
#     Node 5, Type 0, BuildingBlock: OJICUG_clean_sbu_0, # of connection points: 6
#     Node 6, Type 0, BuildingBlock: OJICUG_clean_sbu_0, # of connection points: 6
#     Node 7, Type 0, BuildingBlock: OJICUG_clean_sbu_0, # of connection points: 6
#     Edge 8, Type (0, 0), BuildingBlock: XUDNAN_clean_linker_2, # of connection points: 2
#     Edge 9, Type (0, 0), BuildingBlock: XUDNAN_clean_linker_2, # of connection points: 2
#     Edge 10, Type (0, 0), BuildingBlock: XUDNAN_clean_linker_2, # of connection points: 2
#     Edge 11, Type (0, 0), BuildingBlock: XUDNAN_clean_linker_2, # of connection points: 2
#     Edge 12, Type (0, 0), BuildingBlock: XUDNAN_clean_linker_2, # of connection points: 2
#     Edge 13, Type (0, 0), BuildingBlock: XUDNAN_clean_linker_2, # of connection points: 2
#     Edge 14, Type (0, 0), BuildingBlock: XUDNAN_clean_linker_2, # of connection points: 2
#     Edge 15, Type (0, 0), BuildingBlock: XUDNAN_clean_linker_2, # of connection points: 2
#     Edge 16, Type (0, 0), BuildingBlock: XUDNAN_clean_linker_2, # of connection points: 2
#     Edge 17, Type (0, 0), BuildingBlock: XUDNAN_clean_linker_2, # of connection points: 2
#     Edge 18, Type (0, 0), BuildingBlock: XUDNAN_clean_linker_2, # of connection points: 2
#     Edge 19, Type (0, 0), BuildingBlock: XUDNAN_clean_linker_2, # of connection points: 2
#     Edge 20, Type (0, 0), BuildingBlock: XUDNAN_clean_linker_2, # of connection points: 2
#     Edge 21, Type (0, 0), BuildingBlock: XUDNAN_clean_linker_2, # of connection points: 2
#     Edge 22, Type (0, 0), BuildingBlock: XUDNAN_clean_linker_2, # of connection points: 2
#     Edge 23, Type (0, 0), BuildingBlock: XUDNAN_clean_linker_2, # of connection points: 2
#     Edge 24, Type (0, 0), BuildingBlock: XUDNAN_clean_linker_2, # of connection points: 2
#     Edge 25, Type (0, 0), BuildingBlock: XUDNAN_clean_linker_2, # of connection points: 2
#     Edge 26, Type (0, 0), BuildingBlock: XUDNAN_clean_linker_2, # of connection points: 2
#     Edge 27, Type (0, 0), BuildingBlock: XUDNAN_clean_linker_2, # of connection points: 2
#     Edge 28, Type (0, 0), BuildingBlock: XUDNAN_clean_linker_2, # of connection points: 2
#     Edge 29, Type (0, 0), BuildingBlock: XUDNAN_clean_linker_2, # of connection points: 2
#     Edge 30, Type (0, 0), BuildingBlock: XUDNAN_clean_linker_2, # of connection points: 2
#     Edge 31, Type (0, 0), BuildingBlock: XUDNAN_clean_linker_2, # of connection points: 2
# Relax obj value: 0.292
# Max RMSD: 0.267
# Mean RMSD: 0.267
data_MOF--net-vbn--node1-OJICUG_clean_sbu_0--edge1-XUDNAN_clean_linker_2
_symmetry_space_group_name_H-M    P1
_symmetry_Int_Tables_number       1
_symmetry_cell_setting            triclinic
loop_
_symmetry_equiv_pos_as_xyz
'x, y, z'
_cell_length_a     25.99288
_cell_length_b     29.255205
_cell_length_c     47.287707
_cell_angle_alpha  90.022792
_cell_angle_beta   90.038186
_cell_angle_gamma 89.973806
loop_
_atom_site_label
_atom_site_type_symbol
_atom_site_fract_x
_atom_site_fract_y
_atom_site_fract_z
_atom_type_partial_charge
Sc0 Sc 0.31427 0.30416 0.37712 0.0
Sc1 Sc 0.36097 0.27152 0.44331 0.0
Sc2 Sc 0.4149 0.36225 0.40909 0.0
O3 O 0.36345 0.31183 0.40916 0.0
C4 C 0.42553 0.32145 0.34836 0.0
C5 C 0.32799 0.20232 0.39395 0.0
C6 C 0.47557 0.27789 0.43756 0.0
C7 C 0.24585 0.29459 0.43382 0.0
C8 C 0.31987 0.41148 0.38034 0.0
C9 C 0.38804 0.3691 0.46989 0.0
O10 O 0.37723 0.31264 0.34636 0.0
O11 O 0.33376 0.21196 0.42001 0.0
O12 O 0.47109 0.32078 0.43283 0.0
O13 O 0.24978 0.295 0.40677 0.0
O14 O 0.36693 0.41162 0.38754 0.0
O15 O 0.38948 0.32558 0.47211 0.0
O16 O 0.29454 0.37494 0.37706 0.0
O17 O 0.28396 0.29152 0.4506 0.0
O18 O 0.38012 0.38759 0.44627 0.0
O19 O 0.32752 0.23222 0.37461 0.0
O20 O 0.4463 0.33728 0.37068 0.0
O21 O 0.43784 0.25074 0.43539 0.0
Sc22 Sc 0.19849 0.19771 0.88329 0.0
Sc23 Sc 0.13244 0.23408 0.9439 0.0
Sc24 Sc 0.0803 0.14662 0.90133 0.0
O25 O 0.13671 0.193 0.90944 0.0
C26 C 0.10357 0.18924 0.84058 0.0
C27 C 0.17788 0.30249 0.89858 0.0
C28 C 0.01435 0.22905 0.92636 0.0
C29 C 0.25145 0.2077 0.94303 0.0
C30 C 0.18084 0.09004 0.88442 0.0
C31 C 0.09613 0.13732 0.96751 0.0
O32 O 0.14854 0.20371 0.84672 0.0
O33 O 0.14723 0.29509 0.91908 0.0
O34 O 0.01788 0.19347 0.91098 0.0
O35 O 0.2525 0.19166 0.91802 0.0
O36 O 0.13474 0.09175 0.89327 0.0
O37 O 0.11756 0.17597 0.97168 0.0
O38 O 0.20625 0.12559 0.87831 0.0
O39 O 0.21211 0.22676 0.9536 0.0
O40 O 0.07999 0.12373 0.9437 0.0
O41 O 0.20101 0.27084 0.88537 0.0
O42 O 0.07592 0.16657 0.85777 0.0
O43 O 0.05225 0.24667 0.93913 0.0
Sc44 Sc 0.80893 0.20206 0.62775 0.0
Sc45 Sc 0.85697 0.24031 0.56318 0.0
Sc46 Sc 0.92685 0.16555 0.60334 0.0
O47 O 0.86415 0.20358 0.59839 0.0
C48 C 0.91513 0.20709 0.66255 0.0
C49 C 0.80551 0.30451 0.61135 0.0
C50 C 0.97052 0.25367 0.5703 0.0
C51 C 0.74699 0.20143 0.5692 0.0
C52 C 0.84055 0.09994 0.6252 0.0
C53 C 0.90789 0.14632 0.54147 0.0
O54 O 0.8664 0.20008 0.66216 0.0
O55 O 0.81676 0.29586 0.58551 0.0
O56 O 0.97483 0.21262 0.57913 0.0
O57 O 0.74729 0.20533 0.59612 0.0
O58 O 0.88769 0.11153 0.62624 0.0
O59 O 0.89727 0.18853 0.53712 0.0
O60 O 0.80474 0.12927 0.62422 0.0
O61 O 0.78656 0.20685 0.55394 0.0
O62 O 0.90865 0.1293 0.56604 0.0
O63 O 0.80887 0.27471 0.63083 0.0
O64 O 0.9436 0.20185 0.64097 0.0
O65 O 0.92783 0.27453 0.57105 0.0
Sc66 Sc 0.57063 0.33126 0.10766 0.0
Sc67 Sc 0.63085 0.25368 0.06403 0.0
Sc68 Sc 0.69657 0.3008 0.12138 0.0
O69 O 0.63306 0.2948 0.09779 0.0
C70 C 0.65999 0.40156 0.11952 0.0
C71 C 0.57162 0.34436 0.04359 0.0
C72 C 0.74047 0.29455 0.05788 0.0
C73 C 0.52117 0.23902 0.08269 0.0
C74 C 0.6036 0.29914 0.1667 0.0
C75 C 0.69781 0.19646 0.10939 0.0
O76 O 0.61353 0.38948 0.12341 0.0
O77 O 0.58348 0.30236 0.03943 0.0
O78 O 0.74764 0.29643 0.0846 0.0
O79 O 0.51769 0.28045 0.0908 0.0
O80 O 0.65119 0.30485 0.16053 0.0
O81 O 0.67755 0.20131 0.08491 0.0
O82 O 0.56814 0.30046 0.14822 0.0
O83 O 0.56438 0.2197 0.07985 0.0
O84 O 0.7013 0.2289 0.12713 0.0
O85 O 0.57355 0.3629 0.06775 0.0
O86 O 0.69607 0.37305 0.11587 0.0
O87 O 0.69755 0.28492 0.04664 0.0
Sc88 Sc 0.5726 0.6667 0.60482 0.0
Sc89 Sc 0.63135 0.71988 0.54849 0.0
Sc90 Sc 0.69019 0.71824 0.61337 0.0
O91 O 0.63062 0.70242 0.58893 0.0
C92 C 0.59409 0.72757 0.65551 0.0
C93 C 0.51773 0.73679 0.56204 0.0
C94 C 0.67836 0.80737 0.5815 0.0
C95 C 0.58468 0.61876 0.54746 0.0
C96 C 0.6715 0.61735 0.62842 0.0
C97 C 0.74451 0.69912 0.55392 0.0
O98 O 0.56127 0.71679 0.6368 0.0
O99 O 0.55963 0.75377 0.55327 0.0
O100 O 0.67618 0.7889 0.6058 0.0
O101 O 0.58352 0.61547 0.57409 0.0
O102 O 0.70334 0.64672 0.61919 0.0
O103 O 0.70296 0.68581 0.54268 0.0
O104 O 0.6238 0.6264 0.63186 0.0
O105 O 0.59273 0.65656 0.53461 0.0
O106 O 0.74538 0.71802 0.57824 0.0
O107 O 0.51569 0.70155 0.578 0.0
O108 O 0.64244 0.72256 0.65152 0.0
O109 O 0.67059 0.78486 0.55857 0.0
Sc110 Sc 0.8158 0.7863 0.11043 0.0
Sc111 Sc 0.87737 0.7759 0.04679 0.0
Sc112 Sc 0.93549 0.83388 0.1008 0.0
O113 O 0.87648 0.79814 0.0863 0.0
C114 C 0.83879 0.88729 0.12436 0.0
C115 C 0.76665 0.80545 0.04897 0.0
C116 C 0.93208 0.87299 0.04175 0.0
C117 C 0.82026 0.69547 0.08021 0.0
C118 C 0.91167 0.77689 0.15337 0.0
C119 C 0.98727 0.75512 0.06289 0.0
O120 O 0.80613 0.85806 0.11592 0.0
O121 O 0.81001 0.8145 0.03802 0.0
O122 O 0.92552 0.88181 0.06764 0.0
O123 O 0.82485 0.71464 0.10415 0.0
O124 O 0.94502 0.78744 0.1349 0.0
O125 O 0.94439 0.73746 0.05623 0.0
O126 O 0.86323 0.78075 0.14885 0.0
O127 O 0.83011 0.71613 0.05704 0.0
O128 O 0.9906 0.79373 0.07554 0.0
O129 O 0.76268 0.78944 0.0741 0.0
O130 O 0.88677 0.87851 0.1263 0.0
O131 O 0.92505 0.83298 0.03166 0.0
Sc132 Sc 0.07582 0.86494 0.38588 0.0
Sc133 Sc 0.13093 0.80137 0.43921 0.0
Sc134 Sc 0.1839 0.79953 0.37215 0.0
O135 O 0.13008 0.8219 0.39897 0.0
C136 C 0.08201 0.79948 0.33428 0.0
C137 C 0.01564 0.7947 0.42617 0.0
C138 C 0.16381 0.71152 0.40494 0.0
C139 C 0.09457 0.90573 0.44459 0.0
C140 C 0.17889 0.9034 0.35778 0.0
C141 C 0.24559 0.81521 0.43034 0.0
O142 O 0.05501 0.81966 0.35274 0.0
O143 O 0.05579 0.7743 0.43465 0.0
O144 O 0.16292 0.73103 0.38103 0.0
O145 O 0.09455 0.91184 0.41817 0.0
O146 O 0.20579 0.8682 0.3632 0.0
O147 O 0.20625 0.82819 0.44398 0.0
O148 O 0.12985 0.90382 0.35991 0.0
O149 O 0.09939 0.86616 0.45571 0.0
O150 O 0.24294 0.79759 0.40561 0.0
O151 O 0.01663 0.83185 0.41193 0.0
O152 O 0.13098 0.79672 0.33593 0.0
O153 O 0.16181 0.73351 0.42828 0.0
Sc154 Sc 0.42581 0.63689 0.88508 0.0
Sc155 Sc 0.36628 0.69511 0.93998 0.0
Sc156 Sc 0.31873 0.7044 0.87173 0.0
O157 O 0.37104 0.67917 0.89885 0.0
C158 C 0.42123 0.70553 0.83471 0.0
C159 C 0.48372 0.70262 0.92985 0.0
C160 C 0.33714 0.78899 0.90798 0.0
C161 C 0.40246 0.59061 0.94265 0.0
C162 C 0.32235 0.60069 0.85579 0.0
C163 C 0.25245 0.68347 0.92702 0.0
O164 O 0.44722 0.68335 0.85269 0.0
O165 O 0.44301 0.71977 0.94022 0.0
O166 O 0.33961 0.77183 0.88339 0.0
O167 O 0.40879 0.58734 0.91627 0.0
O168 O 0.2967 0.63683 0.8606 0.0
O169 O 0.29036 0.66882 0.9411 0.0
O170 O 0.37128 0.59872 0.85873 0.0
O171 O 0.39351 0.62852 0.955 0.0
O172 O 0.25755 0.70455 0.90358 0.0
O173 O 0.48401 0.67021 0.91165 0.0
O174 O 0.37251 0.70968 0.8363 0.0
O175 O 0.33832 0.76483 0.93055 0.0
H176 H 0.14349 0.99053 0.36702 0.0
H177 H 0.27851 0.91434 0.34059 0.0
H178 H 0.331 0.98417 0.34468 0.0
H179 H 0.18204 0.10205 0.33234 0.0
H180 H 0.15517 0.13464 0.36112 0.0
H181 H 0.12685 0.08071 0.35124 0.0
H182 H 0.13695 0.05362 0.4026 0.0
H183 H 0.16791 0.10592 0.41291 0.0
H184 H 0.19991 0.05205 0.41872 0.0
H185 H 0.3711 0.05943 0.35753 0.0
H186 H 0.39395 0.13706 0.37472 0.0
H187 H 0.23368 0.16343 0.39364 0.0
C188 C 0.18361 0.98892 0.36094 0.0
C189 C 0.20676 0.94696 0.35327 0.0
C190 C 0.25983 0.94611 0.34635 0.0
C191 C 0.29004 0.9856 0.34867 0.0
C192 C 0.2666 0.02582 0.35771 0.0
C193 C 0.21439 0.02806 0.36322 0.0
C194 C 0.19944 0.07472 0.37449 0.0
C195 C 0.16377 0.0995 0.35355 0.0
C196 C 0.17466 0.07132 0.40394 0.0
C197 C 0.2517 0.09742 0.37584 0.0
C198 C 0.28987 0.06896 0.36563 0.0
C199 C 0.34148 0.08217 0.36532 0.0
C200 C 0.35421 0.12595 0.3753 0.0
C201 C 0.31555 0.15533 0.38575 0.0
C202 C 0.26382 0.14099 0.38602 0.0
H203 H 0.27114 0.33799 0.88538 0.0
H204 H 0.1095 0.37299 0.89178 0.0
H205 H 0.12876 0.45085 0.87383 0.0
H206 H 0.31578 0.44247 0.91182 0.0
H207 H 0.37241 0.44535 0.88982 0.0
H208 H 0.34567 0.39078 0.89925 0.0
H209 H 0.33735 0.3686 0.84665 0.0
H210 H 0.36463 0.42282 0.83653 0.0
H211 H 0.30294 0.40561 0.82273 0.0
H212 H 0.16597 0.52421 0.85542 0.0
H213 H 0.21856 0.59277 0.84768 0.0
H214 H 0.35751 0.51157 0.85726 0.0
C215 C 0.23976 0.36201 0.8827 0.0
C216 C 0.18876 0.34968 0.88959 0.0
C217 C 0.14877 0.38205 0.88657 0.0
C218 C 0.15933 0.426 0.8761 0.0
C219 C 0.21009 0.43693 0.86917 0.0
C220 C 0.24979 0.40614 0.8729 0.0
C221 C 0.30159 0.42788 0.86702 0.0
C222 C 0.33589 0.42659 0.89354 0.0
C223 C 0.32818 0.40485 0.84172 0.0
C224 C 0.28501 0.47612 0.85981 0.0
C225 C 0.23198 0.48014 0.86034 0.0
C226 C 0.20748 0.5215 0.85502 0.0
C227 C 0.2379 0.56029 0.8505 0.0
C228 C 0.29243 0.55786 0.85201 0.0
C229 C 0.3161 0.51471 0.85565 0.0
H230 H 0.73534 0.56976 0.59392 0.0
H231 H 0.64588 0.55791 0.6709 0.0
H232 H 0.67356 0.4771 0.67566 0.0
H233 H 0.70141 0.4591 0.56767 0.0
H234 H 0.76293 0.44877 0.55129 0.0
H235 H 0.7396 0.5064 0.55524 0.0
H236 H 0.82281 0.52853 0.58217 0.0
H237 H 0.84656 0.47101 0.57826 0.0
H238 H 0.84167 0.49624 0.61295 0.0
H239 H 0.7116 0.39856 0.67205 0.0
H240 H 0.75086 0.32518 0.65884 0.0
H241 H 0.81045 0.38617 0.58177 0.0
C242 C 0.72242 0.5503 0.61206 0.0
C243 C 0.68952 0.57006 0.63248 0.0
C244 C 0.67166 0.54333 0.65533 0.0
C245 C 0.6872 0.49757 0.65815 0.0
C246 C 0.71957 0.47903 0.63757 0.0
C247 C 0.73641 0.50436 0.61476 0.0
C248 C 0.76785 0.47542 0.59452 0.0
C249 C 0.74136 0.47223 0.56547 0.0
C250 C 0.823 0.49391 0.59183 0.0
C251 C 0.76688 0.42988 0.60974 0.0
C252 C 0.73915 0.43294 0.63464 0.0
C253 C 0.73325 0.39572 0.65259 0.0
C254 C 0.75598 0.35416 0.64488 0.0
C255 C 0.78393 0.34976 0.61923 0.0
C256 C 0.7893 0.38831 0.60145 0.0
H257 H 0.68183 0.1117 0.08545 0.0
H258 H 0.76816 0.18161 0.1512 0.0
H259 H 0.81116 0.1095 0.16368 0.0
H260 H 0.6628 0.00609 0.12471 0.0
H261 H 0.66991 0.97033 0.09391 0.0
H262 H 0.64492 0.02749 0.09033 0.0
H263 H 0.71617 0.04628 0.05375 0.0
H264 H 0.74121 0.98917 0.05718 0.0
H265 H 0.78269 0.03758 0.06316 0.0
H266 H 0.85005 0.03129 0.16664 0.0
H267 H 0.87733 0.95046 0.16167 0.0
H268 H 0.76176 0.93071 0.09657 0.0
C269 C 0.70954 0.11176 0.10256 0.0
C270 C 0.7215 0.15232 0.11732 0.0
C271 C 0.75799 0.15094 0.13966 0.0
C272 C 0.78281 0.11015 0.14691 0.0
C273 C 0.77033 0.07086 0.13189 0.0
C274 C 0.73422 0.07115 0.11039 0.0
C275 C 0.7281 0.0241 0.09755 0.0
C276 C 0.67316 0.00594 0.1019 0.0
C277 C 0.74294 0.02432 0.06605 0.0
C278 C 0.76669 0.9976 0.11505 0.0
C279 C 0.79102 0.02522 0.13458 0.0
C280 C 0.83067 0.00902 0.15178 0.0
C281 C 0.84594 0.96325 0.14884 0.0
C282 C 0.8209 0.93435 0.12921 0.0
C283 C 0.78056 0.95178 0.11234 0.0
H284 H 0.75823 0.05004 0.64445 0.0
H285 H 0.89164 0.04321 0.58958 0.0
H286 H 0.85921 0.97108 0.56906 0.0
H287 H 0.75604 0.92593 0.65868 0.0
H288 H 0.6868 0.9243 0.66055 0.0
H289 H 0.72079 0.97546 0.67051 0.0
H290 H 0.66611 0.02134 0.63449 0.0
H291 H 0.63306 0.97004 0.62381 0.0
H292 H 0.66584 0.00441 0.59783 0.0
H293 H 0.80729 0.90487 0.55088 0.0
H294 H 0.75191 0.83643 0.54515 0.0
H295 H 0.65906 0.88035 0.61614 0.0
C296 C 0.78113 0.0327 0.6286 0.0
C297 C 0.82731 0.05214 0.61849 0.0
C298 C 0.85632 0.02868 0.59771 0.0
C299 C 0.83796 0.98801 0.58572 0.0
C300 C 0.79133 0.97059 0.59538 0.0
C301 C 0.76434 0.99113 0.61713 0.0
C302 C 0.71696 0.96364 0.6248 0.0
C303 C 0.72037 0.94629 0.65545 0.0
C304 C 0.66758 0.99154 0.61993 0.0
C305 C 0.72127 0.92478 0.60374 0.0
C306 C 0.76363 0.93019 0.58643 0.0
C307 C 0.7745 0.89969 0.56459 0.0
C308 C 0.74271 0.8613 0.5613 0.0
C309 C 0.70174 0.85319 0.58027 0.0
C310 C 0.69022 0.88589 0.60133 0.0
H311 H 0.8406 0.62022 0.11201 0.0
H312 H 0.73721 0.67363 0.04809 0.0
H313 H 0.68113 0.60573 0.05374 0.0
H314 H 0.82865 0.50034 0.0896 0.0
H315 H 0.83373 0.47933 0.12532 0.0
H316 H 0.86531 0.53174 0.1155 0.0
H317 H 0.81762 0.57345 0.15618 0.0
H318 H 0.7848 0.52144 0.16561 0.0
H319 H 0.7483 0.57213 0.15739 0.0
H320 H 0.6322 0.53626 0.07025 0.0
H321 H 0.6037 0.46096 0.08815 0.0
H322 H 0.74348 0.44974 0.13774 0.0
C323 C 0.80666 0.617 0.09884 0.0
C324 C 0.79304 0.65163 0.07955 0.0
C325 C 0.7484 0.64685 0.06268 0.0
C326 C 0.71611 0.60884 0.06602 0.0
C327 C 0.72975 0.57585 0.08592 0.0
C328 C 0.77481 0.57882 0.10137 0.0
C329 C 0.78177 0.53781 0.12046 0.0
C330 C 0.83022 0.51069 0.11221 0.0
C331 C 0.7832 0.55209 0.15176 0.0
C332 C 0.73323 0.51157 0.11363 0.0
C333 C 0.70317 0.53456 0.09414 0.0
C334 C 0.65568 0.5177 0.08528 0.0
C335 C 0.63955 0.47526 0.09578 0.0
C336 C 0.67146 0.44994 0.11431 0.0
C337 C 0.71841 0.46868 0.12368 0.0
H338 H 0.34192 0.49133 0.40849 0.0
H339 H 0.23153 0.429 0.35129 0.0
H340 H 0.17575 0.49681 0.35556 0.0
H341 H 0.24833 0.54273 0.45488 0.0
H342 H 0.28585 0.59365 0.46088 0.0
H343 H 0.31748 0.54038 0.45289 0.0
H344 H 0.36417 0.57921 0.41077 0.0
H345 H 0.3323 0.63226 0.41884 0.0
H346 H 0.32669 0.60782 0.38397 0.0
H347 H 0.13224 0.5701 0.36551 0.0
H348 H 0.10696 0.64928 0.37706 0.0
H349 H 0.24287 0.66409 0.42941 0.0
C350 C 0.30654 0.49241 0.39639 0.0
C351 C 0.29123 0.45506 0.37931 0.0
C352 C 0.24409 0.45731 0.36435 0.0
C353 C 0.21199 0.4955 0.36681 0.0
C354 C 0.22733 0.53099 0.38452 0.0
C355 C 0.27365 0.53016 0.39885 0.0
C356 C 0.28077 0.57314 0.41642 0.0
C357 C 0.28324 0.56179 0.44815 0.0
C358 C 0.32882 0.59968 0.40691 0.0
C359 C 0.23164 0.59861 0.40917 0.0
C360 C 0.20122 0.57326 0.39098 0.0
C361 C 0.15532 0.59014 0.37998 0.0
C362 C 0.14107 0.63489 0.38679 0.0
C363 C 0.17237 0.66199 0.40459 0.0
C364 C 0.21749 0.64331 0.41655 0.0
H365 H 0.15554 0.00813 0.9107 0.0
H366 H 0.2719 0.07276 0.85821 0.0
H367 H 0.32753 0.00562 0.86366 0.0
H368 H 0.24119 0.95323 0.95931 0.0
H369 H 0.20501 0.90079 0.96183 0.0
H370 H 0.17251 0.95369 0.95396 0.0
H371 H 0.13422 0.91876 0.90846 0.0
H372 H 0.16569 0.86541 0.91632 0.0
H373 H 0.17649 0.89297 0.88277 0.0
H374 H 0.37159 0.93365 0.87465 0.0
H375 H 0.39684 0.85415 0.8851 0.0
H376 H 0.254 0.83362 0.93058 0.0
C377 C 0.19232 0.00779 0.89997 0.0
C378 C 0.2093 0.04603 0.88411 0.0
C379 C 0.25796 0.0442 0.87059 0.0
C380 C 0.29013 0.00627 0.87369 0.0
C381 C 0.27322 0.97007 0.89027 0.0
C382 C 0.22516 0.96983 0.90274 0.0
C383 C 0.2162 0.92526 0.91852 0.0
C384 C 0.20829 0.93378 0.9503 0.0
C385 C 0.17045 0.89905 0.90575 0.0
C386 C 0.26681 0.90081 0.9129 0.0
C387 C 0.29915 0.92773 0.89677 0.0
C388 C 0.34691 0.9123 0.88748 0.0
C389 C 0.36117 0.86734 0.89371 0.0
C390 C 0.32799 0.83848 0.90922 0.0
C391 C 0.28079 0.85571 0.91959 0.0
H392 H 0.37644 0.46113 0.47506 0.0
H393 H 0.45758 0.34527 0.5109 0.0
H394 H 0.52148 0.39821 0.53198 0.0
H395 H 0.48271 0.52173 0.45393 0.0
H396 H 0.45798 0.5777 0.46235 0.0
H397 H 0.41436 0.53199 0.45377 0.0
H398 H 0.36657 0.54331 0.5015 0.0
H399 H 0.40922 0.59006 0.50946 0.0
H400 H 0.40289 0.54326 0.53399 0.0
H401 H 0.58221 0.4619 0.54318 0.0
H402 H 0.62555 0.53488 0.55408 0.0
H403 H 0.50546 0.60907 0.50998 0.0
C404 C 0.40651 0.44691 0.48829 0.0
C405 C 0.4126 0.399 0.49113 0.0
C406 C 0.45239 0.38175 0.50849 0.0
C407 C 0.4891 0.41148 0.52019 0.0
C408 C 0.48462 0.45815 0.51466 0.0
C409 C 0.44336 0.47599 0.49996 0.0
C410 C 0.44833 0.52727 0.49616 0.0
C411 C 0.451 0.54041 0.46468 0.0
C412 C 0.40414 0.55245 0.51119 0.0
C413 C 0.49934 0.53547 0.51073 0.0
C414 C 0.51978 0.49503 0.521 0.0
C415 C 0.56643 0.49376 0.53541 0.0
C416 C 0.59116 0.53523 0.54109 0.0
C417 C 0.56924 0.57725 0.53232 0.0
C418 C 0.52376 0.57728 0.51608 0.0
H419 H 0.90799 0.96279 0.03499 0.0
H420 H 0.02307 0.86081 0.01538 0.0
H421 H 0.08507 0.92194 0.00292 0.0
H422 H 0.94345 0.03702 0.97547 0.0
H423 H 0.92777 0.08832 0.99463 0.0
H424 H 0.8942 0.0361 0.0023 0.0
H425 H 0.92004 0.04409 0.05494 0.0
H426 H 0.9555 0.09556 0.04743 0.0
H427 H 0.98714 0.048 0.06434 0.0
H428 H 0.13558 0.99419 0.99638 0.0
H429 H 0.16315 0.07049 0.98006 0.0
H430 H 0.0133 0.12528 0.00084 0.0
C431 C 0.94583 0.9535 0.0273 0.0
C432 C 0.96126 0.90734 0.02598 0.0
C433 C 0.01089 0.89609 0.01608 0.0
C434 C 0.04641 0.93056 0.00954 0.0
C435 C 0.03096 0.97594 0.01258 0.0
C436 C 0.98118 0.98744 0.01999 0.0
C437 C 0.97288 0.03861 0.01899 0.0
C438 C 0.93221 0.05073 0.99652 0.0
C439 C 0.95802 0.05766 0.04818 0.0
C440 C 0.02613 0.05424 0.01035 0.0
C441 C 0.05938 0.01758 0.00751 0.0
C442 C 0.11001 0.02317 -0.00148 0.0
C443 C 0.12576 0.06679 0.98994 0.0
C444 C 0.09072 0.10377 0.99009 0.0
C445 C 0.0413 0.09792 0.00177 0.0
H446 H 0.90261 0.05388 0.53705 0.0
H447 H 0.96933 0.17384 0.49757 0.0
H448 H 0.02835 0.12385 0.47039 0.0
H449 H 0.01791 0.99513 0.54759 0.0
H450 H 0.99213 0.93909 0.54045 0.0
H451 H 0.9509 0.98344 0.554 0.0
H452 H 0.88906 0.97281 0.51138 0.0
H453 H 0.92992 0.92791 0.49818 0.0
H454 H 0.9143 0.97596 0.47592 0.0
H455 H 0.08789 0.06252 0.45325 0.0
H456 H 0.12988 0.99139 0.43711 0.0
H457 H 0.02477 0.91134 0.48807 0.0
C458 C 0.92869 0.06958 0.52209 0.0
C459 C 0.93131 0.11769 0.51926 0.0
C460 C 0.96606 0.13707 0.49965 0.0
C461 C 0.00038 0.10904 0.48461 0.0
C462 C -0.00072 0.06202 0.48955 0.0
C463 C 0.96332 0.04226 0.50716 0.0
C464 C 0.97074 0.99093 0.50918 0.0
C465 C 0.98368 0.97631 0.53961 0.0
C466 C 0.92317 0.96541 0.49798 0.0
C467 C 0.01669 0.9848 0.4899 0.0
C468 C 0.03299 0.0264 0.47921 0.0
C469 C 0.07505 0.02976 0.46118 0.0
C470 C 0.09899 0.98933 0.45241 0.0
C471 C 0.08066 0.94616 0.46147 0.0
C472 C 0.04021 0.94393 0.4813 0.0
H473 H 0.46733 0.58127 0.98751 0.0
H474 H 0.36537 0.50615 0.932 0.0
H475 H 0.40052 0.43301 0.94999 0.0
H476 H 0.57435 0.51214 0.97707 0.0
H477 H 0.59795 0.51496 0.01289 0.0
H478 H 0.56021 0.56125 -0.00121 0.0
H479 H 0.49476 0.55365 0.0398 0.0
H480 H 0.53333 0.50842 0.05455 0.0
H481 H 0.46618 0.49877 0.04714 0.0
H482 H 0.45185 0.3682 0.97175 0.0
H483 H 0.50791 0.31704 0.0002 0.0
H484 H 0.57955 0.43591 0.03834 0.0
C485 C 0.45099 0.54936 0.98011 0.0
C486 C 0.41296 0.54891 0.95891 0.0
C487 C 0.39391 0.50669 0.94868 0.0
C488 C 0.41397 0.46518 0.95855 0.0
C489 C 0.45343 0.46667 0.97844 0.0
C490 C 0.4712 0.50766 0.98942 0.0
C491 C 0.51559 0.50004 0.00953 0.0
C492 C 0.56492 0.52349 -0.00109 0.0
C493 C 0.50161 0.51615 0.03953 0.0
C494 C 0.52012 0.44855 0.00797 0.0
C495 C 0.48406 0.42974 0.98998 0.0
C496 C 0.48034 0.38252 0.9859 0.0
C497 C 0.51276 0.35373 0.00176 0.0
C498 C 0.54812 0.37259 0.02127 0.0
C499 C 0.55294 0.42057 0.02347 0.0
H500 H 0.50551 0.28987 0.18697 0.0
H501 H 0.66486 0.29932 0.21424 0.0
H502 H 0.63602 0.29984 0.26403 0.0
H503 H 0.45563 0.36633 0.23581 0.0
H504 H 0.39621 0.33598 0.24158 0.0
H505 H 0.42929 0.33054 0.20834 0.0
H506 H 0.43188 0.24251 0.21418 0.0
H507 H 0.39835 0.24759 0.24738 0.0
H508 H 0.45917 0.21808 0.24581 0.0
H509 H 0.58985 0.30668 0.31002 0.0
H510 H 0.53032 0.318 0.34964 0.0
H511 H 0.40025 0.30487 0.29239 0.0
C512 C 0.53463 0.2912 0.20333 0.0
C513 C 0.58762 0.29451 0.19662 0.0
C514 C 0.62415 0.2966 0.2188 0.0
C515 C 0.60812 0.29687 0.24713 0.0
C516 C 0.55552 0.29475 0.25286 0.0
C517 C 0.51934 0.29163 0.2316 0.0
C518 C 0.46505 0.29276 0.24328 0.0
C519 C 0.43479 0.33385 0.23156 0.0
C520 C 0.43696 0.24754 0.23731 0.0
C521 C 0.47626 0.29834 0.27448 0.0
C522 C 0.52871 0.29894 0.2795 0.0
C523 C 0.54875 0.30582 0.30639 0.0
C524 C 0.5144 0.31251 0.32874 0.0
C525 C 0.46036 0.31252 0.32417 0.0
C526 C 0.44119 0.30476 0.29664 0.0
H527 H 0.0121 0.15885 0.81854 0.0
H528 H 0.14316 0.24575 0.79955 0.0
H529 H 0.10324 0.26641 0.75391 0.0
H530 H 0.9956 0.11514 0.74956 0.0
H531 H 0.92635 0.1139 0.75136 0.0
H532 H 0.96383 0.10846 0.78318 0.0
H533 H 0.91499 0.17727 0.80493 0.0
H534 H 0.87772 0.18326 0.77298 0.0
H535 H 0.91397 0.23111 0.7864 0.0
H536 H 0.05187 0.27433 0.70969 0.0
H537 H 0.9955 0.26495 0.66816 0.0
H538 H 0.8969 0.17383 0.71598 0.0
C539 C 0.03245 0.18246 0.80493 0.0
C540 C 0.08087 0.20073 0.81272 0.0
C541 C 0.10617 0.2312 0.79408 0.0
C542 C 0.0836 0.24341 0.7682 0.0
C543 C 0.03571 0.225 0.76136 0.0
C544 C 0.01054 0.195 0.77909 0.0
C545 C 0.96077 0.17807 0.76606 0.0
C546 C 0.96173 0.12581 0.76231 0.0
C547 C 0.9141 0.19335 0.78364 0.0
C548 C 0.96238 0.20249 0.73786 0.0
C549 C 0.0057 0.22981 0.73579 0.0
C550 C 0.01758 0.2535 0.71117 0.0
C551 C 0.98533 0.24798 0.68773 0.0
C552 C 0.9417 0.21904 0.68906 0.0
C553 C 0.92928 0.19702 0.71468 0.0
H554 H 0.39083 0.71399 0.77926 0.0
H555 H 0.51771 0.74022 0.83658 0.0
H556 H 0.57271 0.76167 0.79635 0.0
H557 H 0.46119 0.65894 0.7295 0.0
H558 H 0.42823 0.68089 0.69883 0.0
H559 H 0.39521 0.67756 0.73211 0.0
H560 H 0.37449 0.76414 0.7296 0.0
H561 H 0.40732 0.76769 0.69609 0.0
H562 H 0.42601 0.80463 0.72483 0.0
H563 H 0.61808 0.76686 0.75037 0.0
H564 H 0.64999 0.75602 0.70167 0.0
H565 H 0.49417 0.7268 0.67378 0.0
C566 C 0.42953 0.72602 0.78331 0.0
C567 C 0.44999 0.72576 0.81093 0.0
C568 C 0.50135 0.74024 0.81549 0.0
C569 C 0.53282 0.75276 0.79281 0.0
C570 C 0.51235 0.75086 0.76565 0.0
C571 C 0.46174 0.73827 0.76077 0.0
C572 C 0.45132 0.73347 0.7294 0.0
C573 C 0.43294 0.68484 0.72205 0.0
C574 C 0.41248 0.76965 0.71939 0.0
C575 C 0.5045 0.74287 0.71765 0.0
C576 C 0.53892 0.75374 0.73884 0.0
C577 C 0.5913 0.75943 0.73346 0.0
C578 C 0.60913 0.75302 0.70574 0.0
C579 C 0.57468 0.74072 0.68382 0.0
C580 C 0.52153 0.73684 0.6899 0.0
H581 H 0.01087 0.78137 0.17249 0.0
H582 H 0.85588 0.74686 0.19927 0.0
H583 H 0.88746 0.73662 0.24817 0.0
H584 H 0.08165 0.70545 0.22309 0.0
H585 H 0.13128 0.74766 0.22827 0.0
H586 H 0.09865 0.74366 0.1947 0.0
H587 H 0.07403 0.82932 0.19805 0.0
H588 H 0.10624 0.83356 0.23158 0.0
H589 H 0.03947 0.84958 0.22865 0.0
H590 H 0.93253 0.7413 0.29448 0.0
H591 H 0.98675 0.76223 0.33518 0.0
H592 H 0.11277 0.79469 0.27859 0.0
C593 C 0.98364 0.77033 0.1884 0.0
C594 C 0.93079 0.76464 0.18194 0.0
C595 C 0.89649 0.75119 0.20362 0.0
C596 C 0.91417 0.74509 0.23143 0.0
C597 C 0.96623 0.75235 0.23714 0.0
C598 C 0.00054 0.76447 0.21619 0.0
C599 C 0.05314 0.77552 0.2283 0.0
C600 C 0.09357 0.741 0.21798 0.0
C601 C 0.06911 0.82492 0.22123 0.0
C602 C 0.04256 0.76972 0.25956 0.0
C603 C 0.99243 0.75546 0.2641 0.0
C604 C 0.97204 0.75163 0.29117 0.0
C605 C 0.0031 0.76382 0.31413 0.0
C606 C 0.054 0.77987 0.30996 0.0
C607 C 0.07444 0.78157 0.28237 0.0
H608 H 0.52784 0.31865 0.48064 0.0
H609 H 0.52237 0.1958 0.42948 0.0
H610 H 0.58647 0.15928 0.46093 0.0
H611 H 0.66164 0.31632 0.49968 0.0
H612 H 0.65028 0.33492 0.53549 0.0
H613 H 0.6067 0.35164 0.50779 0.0
H614 H 0.53087 0.31678 0.53647 0.0
H615 H 0.5748 0.29958 0.56386 0.0
H616 H 0.5337 0.25788 0.54718 0.0
H617 H 0.65078 0.13648 0.49788 0.0
H618 H 0.71659 0.13159 0.53565 0.0
H619 H 0.67369 0.26637 0.56521 0.0
C620 C 0.5411 0.28449 0.47575 0.0
C621 C 0.52108 0.26019 0.45243 0.0
C622 C 0.53811 0.21508 0.44703 0.0
C623 C 0.57395 0.19397 0.46492 0.0
C624 C 0.59129 0.21813 0.48846 0.0
C625 C 0.57559 0.26243 0.49389 0.0
C626 C 0.59881 0.28025 0.52113 0.0
C627 C 0.63132 0.32331 0.51568 0.0
C628 C 0.55705 0.28915 0.54347 0.0
C629 C 0.63167 0.23979 0.52952 0.0
C630 C 0.62621 0.20403 0.51062 0.0
C631 C 0.65474 0.1639 0.5131 0.0
C632 C 0.69146 0.16112 0.53475 0.0
C633 C 0.69849 0.19791 0.55374 0.0
C634 C 0.66724 0.23709 0.55163 0.0
H635 H 0.94723 0.18092 0.95739 0.0
H636 H 0.9734 0.3143 0.92062 0.0
H637 H 0.90404 0.34673 0.9505 0.0
H638 H 0.8064 0.19012 0.97042 0.0
H639 H 0.81216 0.16117 0.00393 0.0
H640 H 0.85603 0.14786 0.97563 0.0
H641 H 0.93304 0.1666 0.009 0.0
H642 H 0.88873 0.18009 0.03696 0.0
H643 H 0.93587 0.22161 0.02592 0.0
H644 H 0.83761 0.36558 0.98809 0.0
H645 H 0.77541 0.36789 0.02798 0.0
H646 H 0.79967 0.22341 0.04254 0.0
C647 C 0.93619 0.21636 0.95452 0.0
C648 C 0.96373 0.24486 0.93589 0.0
C649 C 0.95106 0.29178 0.93401 0.0
C650 C 0.91227 0.31048 0.95114 0.0
C651 C 0.88752 0.28187 0.97041 0.0
C652 C 0.89874 0.2357 0.97203 0.0
C653 C 0.87111 0.21331 0.99654 0.0
C654 C 0.83422 0.17592 0.986 0.0
C655 C 0.90947 0.19429 0.01839 0.0
C656 C 0.84231 0.25391 0.00837 0.0
C657 C 0.85217 0.29321 0.99308 0.0
C658 C 0.82974 0.33503 0.00023 0.0
C659 C 0.79514 0.33625 0.02305 0.0
C660 C 0.78441 0.29615 0.03859 0.0
C661 C 0.80865 0.25473 0.03136 0.0
H662 H 0.06029 0.21203 0.55464 0.0
H663 H 0.97202 0.33672 0.54297 0.0
H664 H 0.03004 0.35939 0.5041 0.0
H665 H 0.18638 0.26059 0.53927 0.0
H666 H 0.20747 0.20939 0.5215 0.0
H667 H 0.16097 0.20575 0.5496 0.0
H668 H 0.09831 0.16303 0.51562 0.0
H669 H 0.14476 0.1674 0.4875 0.0
H670 H 0.08075 0.18969 0.48261 0.0
H671 H 0.095 0.36537 0.46369 0.0
H672 H 0.1693 0.35912 0.43072 0.0
H673 H 0.21175 0.23033 0.46937 0.0
C674 C 0.05375 0.2447 0.5445 0.0
C675 C 0.0115 0.27251 0.55195 0.0
C676 C 0.00424 0.3148 0.53776 0.0
C677 C 0.03671 0.32783 0.51546 0.0
C678 C 0.07632 0.29831 0.5077 0.0
C679 C 0.08548 0.25808 0.52221 0.0
C680 C 0.12995 0.23188 0.50965 0.0
C681 C 0.17379 0.22663 0.53129 0.0
C682 C 0.11238 0.18521 0.49819 0.0
C683 C 0.14459 0.26367 0.48585 0.0
C684 C 0.11304 0.30164 0.48473 0.0
C685 C 0.11994 0.33576 0.46438 0.0
C686 C 0.16159 0.33174 0.44553 0.0
C687 C 0.19532 0.29399 0.44746 0.0
C688 C 0.18584 0.2592 0.46735 0.0
H689 H 0.42785 0.27833 0.07192 0.0
H690 H 0.5154 0.15375 0.05846 0.0
H691 H 0.4538 0.13017 0.02158 0.0
H692 H 0.29774 0.22921 0.05687 0.0
H693 H 0.27784 0.28117 0.03955 0.0
H694 H 0.32344 0.28344 0.06822 0.0
H695 H 0.38733 0.32699 0.03558 0.0
H696 H 0.34225 0.32383 0.00679 0.0
H697 H 0.4063 0.30137 0.00252 0.0
H698 H 0.39128 0.12707 0.98033 0.0
H699 H 0.32362 0.13876 0.94392 0.0
H700 H 0.27923 0.26531 0.98508 0.0
C701 C 0.43306 0.24518 0.06214 0.0
C702 C 0.47667 0.21808 0.06807 0.0
C703 C 0.48225 0.17519 0.05435 0.0
C704 C 0.44763 0.16158 0.0332 0.0
C705 C 0.40732 0.19091 0.02635 0.0
C706 C 0.39913 0.23124 0.04095 0.0
C707 C 0.35546 0.25844 0.02829 0.0
C708 C 0.31097 0.26333 0.04949 0.0
C709 C 0.37397 0.30542 0.01769 0.0
C710 C 0.34108 0.22764 0.00392 0.0
C711 C 0.37136 0.18889 0.00296 0.0
C712 C 0.36669 0.15689 0.98118 0.0
C713 C 0.32876 0.16405 0.96042 0.0
C714 C 0.29623 0.20277 0.96185 0.0
C715 C 0.30322 0.2351 0.98365 0.0
H716 H 0.44911 0.69095 0.52918 0.0
H717 H 0.48578 0.82467 0.56303 0.0
H718 H 0.42209 0.85991 0.53087 0.0
H719 H 0.44113 0.72527 0.45889 0.0
H720 H 0.38833 0.6887 0.44896 0.0
H721 H 0.43066 0.67211 0.4773 0.0
H722 H 0.35387 0.66486 0.5118 0.0
H723 H 0.31111 0.67937 0.48319 0.0
H724 H 0.30962 0.71193 0.51557 0.0
H725 H 0.35882 0.881 0.49368 0.0
H726 H 0.29279 0.88613 0.45614 0.0
H727 H 0.30167 0.73964 0.44351 0.0
C728 C 0.44187 0.72736 0.5306 0.0
C729 C 0.47087 0.75519 0.54907 0.0
C730 C 0.46268 0.80294 0.54949 0.0
C731 C 0.42709 0.82319 0.53112 0.0
C732 C 0.40072 0.79516 0.51222 0.0
C733 C 0.40705 0.74822 0.51201 0.0
C734 C 0.37604 0.72638 0.4884 0.0
C735 C 0.41117 0.70167 0.46714 0.0
C736 C 0.33522 0.69372 0.50046 0.0
C737 C 0.35158 0.76848 0.47534 0.0
C738 C 0.36634 0.80771 0.4895 0.0
C739 C 0.34723 0.85064 0.48226 0.0
C740 C 0.3103 0.85335 0.46076 0.0
C741 C 0.29368 0.81354 0.44651 0.0
C742 C 0.31543 0.77074 0.45341 0.0
H743 H 0.06607 0.80013 0.03696 0.0
H744 H 0.00742 0.66485 0.05576 0.0
H745 H 0.06718 0.63152 0.0208 0.0
H746 H 0.07049 0.78566 0.96463 0.0
H747 H 0.12947 0.8161 0.95771 0.0
H748 H 0.09069 0.83149 0.98761 0.0
H749 H 0.16478 0.81878 0.02272 0.0
H750 H 0.20607 0.80719 0.99301 0.0
H751 H 0.20113 0.76631 0.0214 0.0
H752 H 0.12827 0.61355 0.98161 0.0
H753 H 0.19458 0.61159 0.94401 0.0
H754 H 0.20669 0.7591 0.94743 0.0
C755 C 0.06714 0.76342 0.03436 0.0
C756 C 0.03261 0.73492 0.04914 0.0
C757 C 0.03419 0.68705 0.04484 0.0
C758 C 0.06755 0.66793 0.02485 0.0
C759 C 0.09859 0.69726 0.00921 0.0
C760 C 0.09932 0.74392 0.01396 0.0
C761 C 0.13423 0.76802 0.99309 0.0
C762 C 0.10434 0.80229 0.97468 0.0
C763 C 0.17924 0.79143 0.00847 0.0
C764 C 0.15234 0.72768 0.97573 0.0
C765 C 0.13156 0.68716 0.98546 0.0
C766 C 0.14446 0.64506 0.97361 0.0
C767 C 0.18143 0.64424 0.95207 0.0
C768 C 0.20385 0.68531 0.94235 0.0
C769 C 0.18823 0.72753 0.95379 0.0
H770 H 0.95677 0.83374 0.46653 0.0
H771 H 0.9707 0.71394 0.4133 0.0
H772 H 0.90342 0.67489 0.44141 0.0
H773 H 0.94727 0.77548 0.53006 0.0
H774 H 0.90115 0.81325 0.54633 0.0
H775 H 0.94422 0.83475 0.51969 0.0
H776 H 0.86756 0.86273 0.48875 0.0
H777 H 0.82551 0.84417 0.51657 0.0
H778 H 0.81573 0.82373 0.48105 0.0
H779 H 0.83895 0.64768 0.47698 0.0
H780 H 0.7764 0.63583 0.51569 0.0
H781 H 0.81049 0.77101 0.54829 0.0
C782 C 0.94385 0.80005 0.46016 0.0
C783 C 0.96712 0.77715 0.43731 0.0
C784 C 0.95172 0.73225 0.43027 0.0
C785 C 0.91411 0.70976 0.44628 0.0
C786 C 0.89324 0.73254 0.46949 0.0
C787 C 0.90716 0.77682 0.47627 0.0
C788 C 0.8812 0.79262 0.50318 0.0
C789 C 0.92086 0.80472 0.52616 0.0
C790 C 0.84533 0.83319 0.497 0.0
C791 C 0.8512 0.74998 0.51082 0.0
C792 C 0.85836 0.7159 0.49093 0.0
C793 C 0.83317 0.67399 0.49276 0.0
C794 C 0.79818 0.66737 0.5149 0.0
C795 C 0.7895 0.70216 0.53515 0.0
C796 C 0.81741 0.74347 0.53348 0.0
H797 H 0.67642 0.75755 0.05545 0.0
H798 H 0.75797 0.8469 0.99747 0.0
H799 H 0.69532 0.82869 0.96003 0.0
H800 H 0.64913 0.67156 0.00788 0.0
H801 H 0.58516 0.65889 0.02031 0.0
H802 H 0.63205 0.68248 0.04421 0.0
H803 H 0.57235 0.75027 0.05632 0.0
H804 H 0.52394 0.72619 0.03347 0.0
H805 H 0.5453 0.78417 0.02816 0.0
H806 H 0.63007 0.79382 0.92721 0.0
H807 H 0.55683 0.75447 0.90376 0.0
H808 H 0.51686 0.69021 0.98327 0.0
C809 C 0.68012 0.77454 0.03521 0.0
C810 C 0.72221 0.8036 0.02943 0.0
C811 C 0.7261 0.82444 0.00242 0.0
C812 C 0.69087 0.81415 0.98093 0.0
C813 C 0.65158 0.78337 0.98684 0.0
C814 C 0.64513 0.76479 0.01351 0.0
C815 C 0.6002 0.73191 0.0141 0.0
C816 C 0.61772 0.68334 0.02208 0.0
C817 C 0.55794 0.74919 0.03419 0.0
C818 C 0.58314 0.73433 0.98352 0.0
C819 C 0.61347 0.76392 0.96805 0.0
C820 C 0.60572 0.77086 0.93914 0.0
C821 C 0.56464 0.74811 0.92592 0.0
C822 C 0.53216 0.71923 0.94179 0.0
C823 C 0.54183 0.71191 0.97077 0.0
loop_
_geom_bond_atom_site_label_1
_geom_bond_atom_site_label_2
_geom_bond_distance
_geom_bond_site_symmetry_2
_ccdc_geom_bond_type
Sc0 O3 2.025 . S
Sc0 O10 2.105 . S
Sc0 O13 2.105 . S
Sc0 O16 2.105 . S
Sc0 O19 2.105 . S
Sc1 O3 2.025 . S
Sc1 O11 2.105 . S
Sc1 O15 2.105 . S
Sc1 O17 2.105 . S
Sc1 O21 2.105 . S
Sc2 O3 2.025 . S
Sc2 O12 2.105 . S
Sc2 O14 2.105 . S
Sc2 O18 2.105 . S
Sc2 O20 2.105 . S
O3 Sc0 2.025 . S
O3 Sc1 2.025 . S
O3 Sc2 2.025 . S
C4 O10 1.268 . S
C4 O20 1.268 . S
C5 O11 1.268 . S
C5 O19 1.268 . S
C6 O12 1.268 . S
C6 O21 1.268 . S
C7 O13 1.268 . S
C7 O17 1.268 . S
C8 O14 1.268 . S
C8 O16 1.268 . S
C9 O15 1.268 . S
C9 O18 1.268 . S
O10 Sc0 2.105 . S
O10 C4 1.268 . S
O11 Sc1 2.105 . S
O11 C5 1.268 . S
O12 Sc2 2.105 . S
O12 C6 1.268 . S
O13 Sc0 2.105 . S
O13 C7 1.268 . S
O14 Sc2 2.105 . S
O14 C8 1.268 . S
O15 Sc1 2.105 . S
O15 C9 1.268 . S
O16 Sc0 2.105 . S
O16 C8 1.268 . S
O17 Sc1 2.105 . S
O17 C7 1.268 . S
O18 Sc2 2.105 . S
O18 C9 1.268 . S
O19 Sc0 2.105 . S
O19 C5 1.268 . S
O20 Sc2 2.105 . S
O20 C4 1.268 . S
O21 Sc1 2.105 . S
O21 C6 1.268 . S
Sc22 O25 2.025 . S
Sc22 O32 2.105 . S
Sc22 O35 2.105 . S
Sc22 O38 2.105 . S
Sc22 O41 2.105 . S
Sc23 O25 2.025 . S
Sc23 O33 2.105 . S
Sc23 O37 2.105 . S
Sc23 O39 2.105 . S
Sc23 O43 2.105 . S
Sc24 O25 2.025 . S
Sc24 O34 2.105 1_455 S
Sc24 O36 2.105 . S
Sc24 O40 2.105 . S
Sc24 O42 2.105 . S
O25 Sc22 2.025 . S
O25 Sc23 2.025 . S
O25 Sc24 2.025 . S
C26 O32 1.268 . S
C26 O42 1.268 . S
C27 O33 1.268 . S
C27 O41 1.268 . S
C28 O34 1.268 . S
C28 O43 1.268 1_655 S
C29 O35 1.268 . S
C29 O39 1.268 . S
C30 O36 1.268 . S
C30 O38 1.268 . S
C31 O37 1.268 . S
C31 O40 1.268 . S
O32 Sc22 2.105 . S
O32 C26 1.268 . S
O33 Sc23 2.105 . S
O33 C27 1.268 . S
O34 Sc24 2.105 1_655 S
O34 C28 1.268 . S
O35 Sc22 2.105 . S
O35 C29 1.268 . S
O36 Sc24 2.105 . S
O36 C30 1.268 . S
O37 Sc23 2.105 . S
O37 C31 1.268 . S
O38 Sc22 2.105 . S
O38 C30 1.268 . S
O39 Sc23 2.105 . S
O39 C29 1.268 . S
O40 Sc24 2.105 . S
O40 C31 1.268 . S
O41 Sc22 2.105 . S
O41 C27 1.268 . S
O42 Sc24 2.105 . S
O42 C26 1.268 . S
O43 Sc23 2.105 . S
O43 C28 1.268 1_455 S
Sc44 O47 2.025 . S
Sc44 O54 2.105 . S
Sc44 O57 2.105 . S
Sc44 O60 2.105 . S
Sc44 O63 2.105 . S
Sc45 O47 2.025 . S
Sc45 O55 2.105 . S
Sc45 O59 2.105 . S
Sc45 O61 2.105 . S
Sc45 O65 2.105 . S
Sc46 O47 2.025 . S
Sc46 O56 2.105 1_655 S
Sc46 O58 2.105 . S
Sc46 O62 2.105 . S
Sc46 O64 2.105 . S
O47 Sc44 2.025 . S
O47 Sc45 2.025 . S
O47 Sc46 2.025 . S
C48 O54 1.268 . S
C48 O64 1.268 . S
C49 O55 1.268 . S
C49 O63 1.268 . S
C50 O56 1.268 . S
C50 O65 1.268 1_455 S
C51 O57 1.268 . S
C51 O61 1.268 . S
C52 O58 1.268 . S
C52 O60 1.268 . S
C53 O59 1.268 . S
C53 O62 1.268 . S
O54 Sc44 2.105 . S
O54 C48 1.268 . S
O55 Sc45 2.105 . S
O55 C49 1.268 . S
O56 Sc46 2.105 1_455 S
O56 C50 1.268 . S
O57 Sc44 2.105 . S
O57 C51 1.268 . S
O58 Sc46 2.105 . S
O58 C52 1.268 . S
O59 Sc45 2.105 . S
O59 C53 1.268 . S
O60 Sc44 2.105 . S
O60 C52 1.268 . S
O61 Sc45 2.105 . S
O61 C51 1.268 . S
O62 Sc46 2.105 . S
O62 C53 1.268 . S
O63 Sc44 2.105 . S
O63 C49 1.268 . S
O64 Sc46 2.105 . S
O64 C48 1.268 . S
O65 Sc45 2.105 . S
O65 C50 1.268 1_655 S
Sc66 O69 2.025 . S
Sc66 O76 2.105 . S
Sc66 O79 2.105 . S
Sc66 O82 2.105 . S
Sc66 O85 2.105 . S
Sc67 O69 2.025 . S
Sc67 O77 2.105 . S
Sc67 O81 2.105 . S
Sc67 O83 2.105 . S
Sc67 O87 2.105 . S
Sc68 O69 2.025 . S
Sc68 O78 2.105 . S
Sc68 O80 2.105 . S
Sc68 O84 2.105 . S
Sc68 O86 2.105 . S
O69 Sc66 2.025 . S
O69 Sc67 2.025 . S
O69 Sc68 2.025 . S
C70 O76 1.268 . S
C70 O86 1.268 . S
C71 O77 1.268 . S
C71 O85 1.268 . S
C72 O78 1.268 . S
C72 O87 1.268 . S
C73 O79 1.268 . S
C73 O83 1.268 . S
C74 O80 1.268 . S
C74 O82 1.268 . S
C75 O81 1.268 . S
C75 O84 1.268 . S
O76 Sc66 2.105 . S
O76 C70 1.268 . S
O77 Sc67 2.105 . S
O77 C71 1.268 . S
O78 Sc68 2.105 . S
O78 C72 1.268 . S
O79 Sc66 2.105 . S
O79 C73 1.268 . S
O80 Sc68 2.105 . S
O80 C74 1.268 . S
O81 Sc67 2.105 . S
O81 C75 1.268 . S
O82 Sc66 2.105 . S
O82 C74 1.268 . S
O83 Sc67 2.105 . S
O83 C73 1.268 . S
O84 Sc68 2.105 . S
O84 C75 1.268 . S
O85 Sc66 2.105 . S
O85 C71 1.268 . S
O86 Sc68 2.105 . S
O86 C70 1.268 . S
O87 Sc67 2.105 . S
O87 C72 1.268 . S
Sc88 O91 2.025 . S
Sc88 O98 2.105 . S
Sc88 O101 2.105 . S
Sc88 O104 2.105 . S
Sc88 O107 2.105 . S
Sc89 O91 2.025 . S
Sc89 O99 2.105 . S
Sc89 O103 2.105 . S
Sc89 O105 2.105 . S
Sc89 O109 2.105 . S
Sc90 O91 2.025 . S
Sc90 O100 2.105 . S
Sc90 O102 2.105 . S
Sc90 O106 2.105 . S
Sc90 O108 2.105 . S
O91 Sc88 2.025 . S
O91 Sc89 2.025 . S
O91 Sc90 2.025 . S
C92 O98 1.268 . S
C92 O108 1.268 . S
C93 O99 1.268 . S
C93 O107 1.268 . S
C94 O100 1.268 . S
C94 O109 1.268 . S
C95 O101 1.268 . S
C95 O105 1.268 . S
C96 O102 1.268 . S
C96 O104 1.268 . S
C97 O103 1.268 . S
C97 O106 1.268 . S
O98 Sc88 2.105 . S
O98 C92 1.268 . S
O99 Sc89 2.105 . S
O99 C93 1.268 . S
O100 Sc90 2.105 . S
O100 C94 1.268 . S
O101 Sc88 2.105 . S
O101 C95 1.268 . S
O102 Sc90 2.105 . S
O102 C96 1.268 . S
O103 Sc89 2.105 . S
O103 C97 1.268 . S
O104 Sc88 2.105 . S
O104 C96 1.268 . S
O105 Sc89 2.105 . S
O105 C95 1.268 . S
O106 Sc90 2.105 . S
O106 C97 1.268 . S
O107 Sc88 2.105 . S
O107 C93 1.268 . S
O108 Sc90 2.105 . S
O108 C92 1.268 . S
O109 Sc89 2.105 . S
O109 C94 1.268 . S
Sc110 O113 2.025 . S
Sc110 O120 2.105 . S
Sc110 O123 2.105 . S
Sc110 O126 2.105 . S
Sc110 O129 2.105 . S
Sc111 O113 2.025 . S
Sc111 O121 2.105 . S
Sc111 O125 2.105 . S
Sc111 O127 2.105 . S
Sc111 O131 2.105 . S
Sc112 O113 2.025 . S
Sc112 O122 2.105 . S
Sc112 O124 2.105 . S
Sc112 O128 2.105 1_655 S
Sc112 O130 2.105 . S
O113 Sc110 2.025 . S
O113 Sc111 2.025 . S
O113 Sc112 2.025 . S
C114 O120 1.268 . S
C114 O130 1.268 . S
C115 O121 1.268 . S
C115 O129 1.268 . S
C116 O122 1.268 . S
C116 O131 1.268 . S
C117 O123 1.268 . S
C117 O127 1.268 . S
C118 O124 1.268 . S
C118 O126 1.268 . S
C119 O125 1.268 1_455 S
C119 O128 1.268 . S
O120 Sc110 2.105 . S
O120 C114 1.268 . S
O121 Sc111 2.105 . S
O121 C115 1.268 . S
O122 Sc112 2.105 . S
O122 C116 1.268 . S
O123 Sc110 2.105 . S
O123 C117 1.268 . S
O124 Sc112 2.105 . S
O124 C118 1.268 . S
O125 Sc111 2.105 . S
O125 C119 1.268 1_655 S
O126 Sc110 2.105 . S
O126 C118 1.268 . S
O127 Sc111 2.105 . S
O127 C117 1.268 . S
O128 Sc112 2.105 1_455 S
O128 C119 1.268 . S
O129 Sc110 2.105 . S
O129 C115 1.268 . S
O130 Sc112 2.105 . S
O130 C114 1.268 . S
O131 Sc111 2.105 . S
O131 C116 1.268 . S
Sc132 O135 2.025 . S
Sc132 O142 2.105 . S
Sc132 O145 2.105 . S
Sc132 O148 2.105 . S
Sc132 O151 2.105 1_455 S
Sc133 O135 2.025 . S
Sc133 O143 2.105 . S
Sc133 O147 2.105 . S
Sc133 O149 2.105 . S
Sc133 O153 2.105 . S
Sc134 O135 2.025 . S
Sc134 O144 2.105 . S
Sc134 O146 2.105 . S
Sc134 O150 2.105 . S
Sc134 O152 2.105 . S
O135 Sc132 2.025 . S
O135 Sc133 2.025 . S
O135 Sc134 2.025 . S
C136 O142 1.268 . S
C136 O152 1.268 . S
C137 O143 1.268 1_655 S
C137 O151 1.268 . S
C138 O144 1.268 . S
C138 O153 1.268 . S
C139 O145 1.268 . S
C139 O149 1.268 . S
C140 O146 1.268 . S
C140 O148 1.268 . S
C141 O147 1.268 . S
C141 O150 1.268 . S
O142 Sc132 2.105 . S
O142 C136 1.268 . S
O143 Sc133 2.105 . S
O143 C137 1.268 1_455 S
O144 Sc134 2.105 . S
O144 C138 1.268 . S
O145 Sc132 2.105 . S
O145 C139 1.268 . S
O146 Sc134 2.105 . S
O146 C140 1.268 . S
O147 Sc133 2.105 . S
O147 C141 1.268 . S
O148 Sc132 2.105 . S
O148 C140 1.268 . S
O149 Sc133 2.105 . S
O149 C139 1.268 . S
O150 Sc134 2.105 . S
O150 C141 1.268 . S
O151 Sc132 2.105 1_655 S
O151 C137 1.268 . S
O152 Sc134 2.105 . S
O152 C136 1.268 . S
O153 Sc133 2.105 . S
O153 C138 1.268 . S
Sc154 O157 2.025 . S
Sc154 O164 2.105 . S
Sc154 O167 2.105 . S
Sc154 O170 2.105 . S
Sc154 O173 2.105 . S
Sc155 O157 2.025 . S
Sc155 O165 2.105 . S
Sc155 O169 2.105 . S
Sc155 O171 2.105 . S
Sc155 O175 2.105 . S
Sc156 O157 2.025 . S
Sc156 O166 2.105 . S
Sc156 O168 2.105 . S
Sc156 O172 2.105 . S
Sc156 O174 2.105 . S
O157 Sc154 2.025 . S
O157 Sc155 2.025 . S
O157 Sc156 2.025 . S
C158 O164 1.268 . S
C158 O174 1.268 . S
C159 O165 1.268 . S
C159 O173 1.268 . S
C160 O166 1.268 . S
C160 O175 1.268 . S
C161 O167 1.268 . S
C161 O171 1.268 . S
C162 O168 1.268 . S
C162 O170 1.268 . S
C163 O169 1.268 . S
C163 O172 1.268 . S
O164 Sc154 2.105 . S
O164 C158 1.268 . S
O165 Sc155 2.105 . S
O165 C159 1.268 . S
O166 Sc156 2.105 . S
O166 C160 1.268 . S
O167 Sc154 2.105 . S
O167 C161 1.268 . S
O168 Sc156 2.105 . S
O168 C162 1.268 . S
O169 Sc155 2.105 . S
O169 C163 1.268 . S
O170 Sc154 2.105 . S
O170 C162 1.268 . S
O171 Sc155 2.105 . S
O171 C161 1.268 . S
O172 Sc156 2.105 . S
O172 C163 1.268 . S
O173 Sc154 2.105 . S
O173 C159 1.268 . S
O174 Sc156 2.105 . S
O174 C158 1.268 . S
O175 Sc155 2.105 . S
O175 C160 1.268 . S
H176 C188 0.930 . S
H177 C190 0.930 . S
H178 C191 0.930 . S
H179 C195 0.959 . S
H180 C195 0.959 . S
H181 C195 0.961 . S
H182 C196 0.960 . S
H183 C196 0.961 . S
H184 C196 0.959 . S
H185 C199 0.929 . S
H186 C200 0.931 . S
H187 C202 0.930 . S
C188 H176 0.930 . S
C188 C189 1.399 . S
C188 C193 1.399 1_565 S
C189 C188 1.399 . S
C189 C190 1.376 . S
C190 H177 0.930 . S
C190 C189 1.376 . S
C190 C191 1.388 1_565 S
C191 H178 0.930 . S
C191 C190 1.388 1_545 S
C191 C192 1.390 . S
C192 C191 1.390 . S
C192 C193 1.394 . S
C192 C198 1.465 . S
C193 C188 1.399 1_545 S
C193 C192 1.394 . S
C193 C194 1.516 . S
C194 C193 1.516 . S
C194 C195 1.502 . S
C194 C196 1.561 . S
C194 C197 1.526 . S
C195 H179 0.959 . S
C195 H180 0.959 . S
C195 H181 0.961 . S
C195 C194 1.502 . S
C196 H182 0.960 . S
C196 H183 0.961 . S
C196 H184 0.959 . S
C196 C194 1.561 . S
C197 C194 1.526 . S
C197 C198 1.396 . S
C197 C202 1.390 . S
C198 C192 1.465 . S
C198 C197 1.396 . S
C198 C199 1.399 . S
C199 H185 0.929 . S
C199 C198 1.399 . S
C199 C200 1.385 . S
C200 H186 0.931 . S
C200 C199 1.385 . S
C200 C201 1.389 . S
C201 C200 1.389 . S
C201 C202 1.387 . S
C202 H187 0.930 . S
C202 C197 1.390 . S
C202 C201 1.387 . S
H203 C215 0.930 . S
H204 C217 0.930 . S
H205 C218 0.930 . S
H206 C222 0.959 . S
H207 C222 0.959 . S
H208 C222 0.961 . S
H209 C223 0.960 . S
H210 C223 0.961 . S
H211 C223 0.959 . S
H212 C226 0.929 . S
H213 C227 0.931 . S
H214 C229 0.930 . S
C215 H203 0.930 . S
C215 C216 1.399 . S
C215 C220 1.399 . S
C216 C215 1.399 . S
C216 C217 1.376 . S
C217 H204 0.930 . S
C217 C216 1.376 . S
C217 C218 1.388 . S
C218 H205 0.930 . S
C218 C217 1.388 . S
C218 C219 1.390 . S
C219 C218 1.390 . S
C219 C220 1.394 . S
C219 C225 1.465 . S
C220 C215 1.399 . S
C220 C219 1.394 . S
C220 C221 1.516 . S
C221 C220 1.516 . S
C221 C222 1.502 . S
C221 C223 1.561 . S
C221 C224 1.526 . S
C222 H206 0.959 . S
C222 H207 0.959 . S
C222 H208 0.961 . S
C222 C221 1.502 . S
C223 H209 0.960 . S
C223 H210 0.961 . S
C223 H211 0.959 . S
C223 C221 1.561 . S
C224 C221 1.526 . S
C224 C225 1.396 . S
C224 C229 1.390 . S
C225 C219 1.465 . S
C225 C224 1.396 . S
C225 C226 1.399 . S
C226 H212 0.929 . S
C226 C225 1.399 . S
C226 C227 1.385 . S
C227 H213 0.931 . S
C227 C226 1.385 . S
C227 C228 1.389 . S
C228 C227 1.389 . S
C228 C229 1.387 . S
C229 H214 0.930 . S
C229 C224 1.390 . S
C229 C228 1.387 . S
H230 C242 0.930 . S
H231 C244 0.930 . S
H232 C245 0.930 . S
H233 C249 0.959 . S
H234 C249 0.959 . S
H235 C249 0.961 . S
H236 C250 0.960 . S
H237 C250 0.961 . S
H238 C250 0.959 . S
H239 C253 0.929 . S
H240 C254 0.931 . S
H241 C256 0.930 . S
C242 H230 0.930 . S
C242 C243 1.399 . S
C242 C247 1.399 . S
C243 C242 1.399 . S
C243 C244 1.376 . S
C244 H231 0.930 . S
C244 C243 1.376 . S
C244 C245 1.388 . S
C245 H232 0.930 . S
C245 C244 1.388 . S
C245 C246 1.390 . S
C246 C245 1.390 . S
C246 C247 1.394 . S
C246 C252 1.465 . S
C247 C242 1.399 . S
C247 C246 1.394 . S
C247 C248 1.516 . S
C248 C247 1.516 . S
C248 C249 1.502 . S
C248 C250 1.561 . S
C248 C251 1.526 . S
C249 H233 0.959 . S
C249 H234 0.959 . S
C249 H235 0.961 . S
C249 C248 1.502 . S
C250 H236 0.960 . S
C250 H237 0.961 . S
C250 H238 0.959 . S
C250 C248 1.561 . S
C251 C248 1.526 . S
C251 C252 1.396 . S
C251 C256 1.390 . S
C252 C246 1.465 . S
C252 C251 1.396 . S
C252 C253 1.399 . S
C253 H239 0.929 . S
C253 C252 1.399 . S
C253 C254 1.385 . S
C254 H240 0.931 . S
C254 C253 1.385 . S
C254 C255 1.389 . S
C255 C254 1.389 . S
C255 C256 1.387 . S
C256 H241 0.930 . S
C256 C251 1.390 . S
C256 C255 1.387 . S
H257 C269 0.930 . S
H258 C271 0.930 . S
H259 C272 0.930 . S
H260 C276 0.959 1_565 S
H261 C276 0.959 1_565 S
H262 C276 0.961 . S
H263 C277 0.960 . S
H264 C277 0.961 . S
H265 C277 0.959 . S
H266 C280 0.929 . S
H267 C281 0.931 . S
H268 C283 0.930 . S
C269 H257 0.930 . S
C269 C270 1.399 . S
C269 C274 1.399 . S
C270 C269 1.399 . S
C270 C271 1.376 . S
C271 H258 0.930 . S
C271 C270 1.376 . S
C271 C272 1.388 . S
C272 H259 0.930 . S
C272 C271 1.388 . S
C272 C273 1.390 . S
C273 C272 1.390 . S
C273 C274 1.394 . S
C273 C279 1.465 . S
C274 C269 1.399 . S
C274 C273 1.394 . S
C274 C275 1.516 . S
C275 C274 1.516 . S
C275 C276 1.502 . S
C275 C277 1.561 . S
C275 C278 1.526 . S
C276 H260 0.959 1_545 S
C276 H261 0.959 1_545 S
C276 H262 0.961 . S
C276 C275 1.502 . S
C277 H263 0.960 . S
C277 H264 0.961 . S
C277 H265 0.959 . S
C277 C275 1.561 . S
C278 C275 1.526 . S
C278 C279 1.396 . S
C278 C283 1.390 1_545 S
C279 C273 1.465 . S
C279 C278 1.396 . S
C279 C280 1.399 . S
C280 H266 0.929 . S
C280 C279 1.399 . S
C280 C281 1.385 1_545 S
C281 H267 0.931 . S
C281 C280 1.385 1_565 S
C281 C282 1.389 . S
C282 C281 1.389 . S
C282 C283 1.387 . S
C283 H268 0.930 . S
C283 C278 1.390 1_565 S
C283 C282 1.387 . S
H284 C296 0.930 . S
H285 C298 0.930 . S
H286 C299 0.930 . S
H287 C303 0.959 . S
H288 C303 0.959 . S
H289 C303 0.961 . S
H290 C304 0.960 . S
H291 C304 0.961 . S
H292 C304 0.959 . S
H293 C307 0.929 . S
H294 C308 0.931 . S
H295 C310 0.930 . S
C296 H284 0.930 . S
C296 C297 1.399 . S
C296 C301 1.399 1_545 S
C297 C296 1.399 . S
C297 C298 1.376 . S
C298 H285 0.930 . S
C298 C297 1.376 . S
C298 C299 1.388 . S
C299 H286 0.930 . S
C299 C298 1.388 . S
C299 C300 1.390 1_545 S
C300 C299 1.390 1_565 S
C300 C301 1.394 . S
C300 C306 1.465 . S
C301 C296 1.399 1_565 S
C301 C300 1.394 . S
C301 C302 1.516 . S
C302 C301 1.516 . S
C302 C303 1.502 . S
C302 C304 1.561 . S
C302 C305 1.526 . S
C303 H287 0.959 . S
C303 H288 0.959 . S
C303 H289 0.961 . S
C303 C302 1.502 . S
C304 H290 0.960 . S
C304 H291 0.961 . S
C304 H292 0.959 . S
C304 C302 1.561 . S
C305 C302 1.526 . S
C305 C306 1.396 . S
C305 C310 1.390 . S
C306 C300 1.465 . S
C306 C305 1.396 . S
C306 C307 1.399 . S
C307 H293 0.929 . S
C307 C306 1.399 . S
C307 C308 1.385 . S
C308 H294 0.931 . S
C308 C307 1.385 . S
C308 C309 1.389 . S
C309 C308 1.389 . S
C309 C310 1.387 . S
C310 H295 0.930 . S
C310 C305 1.390 . S
C310 C309 1.387 . S
H311 C323 0.930 . S
H312 C325 0.930 . S
H313 C326 0.930 . S
H314 C330 0.959 . S
H315 C330 0.959 . S
H316 C330 0.961 . S
H317 C331 0.960 . S
H318 C331 0.961 . S
H319 C331 0.959 . S
H320 C334 0.929 . S
H321 C335 0.931 . S
H322 C337 0.930 . S
C323 H311 0.930 . S
C323 C324 1.399 . S
C323 C328 1.399 . S
C324 C323 1.399 . S
C324 C325 1.376 . S
C325 H312 0.930 . S
C325 C324 1.376 . S
C325 C326 1.388 . S
C326 H313 0.930 . S
C326 C325 1.388 . S
C326 C327 1.390 . S
C327 C326 1.390 . S
C327 C328 1.394 . S
C327 C333 1.465 . S
C328 C323 1.399 . S
C328 C327 1.394 . S
C328 C329 1.516 . S
C329 C328 1.516 . S
C329 C330 1.502 . S
C329 C331 1.561 . S
C329 C332 1.526 . S
C330 H314 0.959 . S
C330 H315 0.959 . S
C330 H316 0.961 . S
C330 C329 1.502 . S
C331 H317 0.960 . S
C331 H318 0.961 . S
C331 H319 0.959 . S
C331 C329 1.561 . S
C332 C329 1.526 . S
C332 C333 1.396 . S
C332 C337 1.390 . S
C333 C327 1.465 . S
C333 C332 1.396 . S
C333 C334 1.399 . S
C334 H320 0.929 . S
C334 C333 1.399 . S
C334 C335 1.385 . S
C335 H321 0.931 . S
C335 C334 1.385 . S
C335 C336 1.389 . S
C336 C335 1.389 . S
C336 C337 1.387 . S
C337 H322 0.930 . S
C337 C332 1.390 . S
C337 C336 1.387 . S
H338 C350 0.930 . S
H339 C352 0.930 . S
H340 C353 0.930 . S
H341 C357 0.959 . S
H342 C357 0.959 . S
H343 C357 0.961 . S
H344 C358 0.960 . S
H345 C358 0.961 . S
H346 C358 0.959 . S
H347 C361 0.929 . S
H348 C362 0.931 . S
H349 C364 0.930 . S
C350 H338 0.930 . S
C350 C351 1.399 . S
C350 C355 1.399 . S
C351 C350 1.399 . S
C351 C352 1.376 . S
C352 H339 0.930 . S
C352 C351 1.376 . S
C352 C353 1.388 . S
C353 H340 0.930 . S
C353 C352 1.388 . S
C353 C354 1.390 . S
C354 C353 1.390 . S
C354 C355 1.394 . S
C354 C360 1.465 . S
C355 C350 1.399 . S
C355 C354 1.394 . S
C355 C356 1.516 . S
C356 C355 1.516 . S
C356 C357 1.502 . S
C356 C358 1.561 . S
C356 C359 1.526 . S
C357 H341 0.959 . S
C357 H342 0.959 . S
C357 H343 0.961 . S
C357 C356 1.502 . S
C358 H344 0.960 . S
C358 H345 0.961 . S
C358 H346 0.959 . S
C358 C356 1.561 . S
C359 C356 1.526 . S
C359 C360 1.396 . S
C359 C364 1.390 . S
C360 C354 1.465 . S
C360 C359 1.396 . S
C360 C361 1.399 . S
C361 H347 0.929 . S
C361 C360 1.399 . S
C361 C362 1.385 . S
C362 H348 0.931 . S
C362 C361 1.385 . S
C362 C363 1.389 . S
C363 C362 1.389 . S
C363 C364 1.387 . S
C364 H349 0.930 . S
C364 C359 1.390 . S
C364 C363 1.387 . S
H365 C377 0.930 . S
H366 C379 0.930 . S
H367 C380 0.930 . S
H368 C384 0.959 . S
H369 C384 0.959 . S
H370 C384 0.961 1_545 S
H371 C385 0.960 . S
H372 C385 0.961 . S
H373 C385 0.959 . S
H374 C388 0.929 . S
H375 C389 0.931 . S
H376 C391 0.930 . S
C377 H365 0.930 . S
C377 C378 1.399 . S
C377 C382 1.399 1_545 S
C378 C377 1.399 . S
C378 C379 1.376 . S
C379 H366 0.930 . S
C379 C378 1.376 . S
C379 C380 1.388 1_545 S
C380 H367 0.930 . S
C380 C379 1.388 1_565 S
C380 C381 1.390 . S
C381 C380 1.390 . S
C381 C382 1.394 . S
C381 C387 1.465 . S
C382 C377 1.399 1_565 S
C382 C381 1.394 . S
C382 C383 1.516 . S
C383 C382 1.516 . S
C383 C384 1.502 . S
C383 C385 1.561 . S
C383 C386 1.526 . S
C384 H368 0.959 . S
C384 H369 0.959 . S
C384 H370 0.961 1_565 S
C384 C383 1.502 . S
C385 H371 0.960 . S
C385 H372 0.961 . S
C385 H373 0.959 . S
C385 C383 1.561 . S
C386 C383 1.526 . S
C386 C387 1.396 . S
C386 C391 1.390 . S
C387 C381 1.465 . S
C387 C386 1.396 . S
C387 C388 1.399 . S
C388 H374 0.929 . S
C388 C387 1.399 . S
C388 C389 1.385 . S
C389 H375 0.931 . S
C389 C388 1.385 . S
C389 C390 1.389 . S
C390 C389 1.389 . S
C390 C391 1.387 . S
C391 H376 0.930 . S
C391 C386 1.390 . S
C391 C390 1.387 . S
H392 C404 0.930 . S
H393 C406 0.930 . S
H394 C407 0.930 . S
H395 C411 0.959 . S
H396 C411 0.959 . S
H397 C411 0.961 . S
H398 C412 0.960 . S
H399 C412 0.961 . S
H400 C412 0.959 . S
H401 C415 0.929 . S
H402 C416 0.931 . S
H403 C418 0.930 . S
C404 H392 0.930 . S
C404 C405 1.399 . S
C404 C409 1.399 . S
C405 C404 1.399 . S
C405 C406 1.376 . S
C406 H393 0.930 . S
C406 C405 1.376 . S
C406 C407 1.388 . S
C407 H394 0.930 . S
C407 C406 1.388 . S
C407 C408 1.390 . S
C408 C407 1.390 . S
C408 C409 1.394 . S
C408 C414 1.465 . S
C409 C404 1.399 . S
C409 C408 1.394 . S
C409 C410 1.516 . S
C410 C409 1.516 . S
C410 C411 1.502 . S
C410 C412 1.561 . S
C410 C413 1.526 . S
C411 H395 0.959 . S
C411 H396 0.959 . S
C411 H397 0.961 . S
C411 C410 1.502 . S
C412 H398 0.960 . S
C412 H399 0.961 . S
C412 H400 0.959 . S
C412 C410 1.561 . S
C413 C410 1.526 . S
C413 C414 1.396 . S
C413 C418 1.390 . S
C414 C408 1.465 . S
C414 C413 1.396 . S
C414 C415 1.399 . S
C415 H401 0.929 . S
C415 C414 1.399 . S
C415 C416 1.385 . S
C416 H402 0.931 . S
C416 C415 1.385 . S
C416 C417 1.389 . S
C417 C416 1.389 . S
C417 C418 1.387 . S
C418 H403 0.930 . S
C418 C413 1.390 . S
C418 C417 1.387 . S
H419 C431 0.930 . S
H420 C433 0.930 . S
H421 C434 0.930 1_455 S
H422 C438 0.959 . S
H423 C438 0.959 . S
H424 C438 0.961 . S
H425 C439 0.960 1_655 S
H426 C439 0.961 . S
H427 C439 0.959 . S
H428 C442 0.929 1_565 S
H429 C443 0.931 . S
H430 C445 0.930 . S
C431 H419 0.930 . S
C431 C432 1.399 . S
C431 C436 1.399 . S
C432 C431 1.399 . S
C432 C433 1.376 1_554 S
C433 H420 0.930 . S
C433 C432 1.376 1_556 S
C433 C434 1.388 . S
C434 H421 0.930 1_655 S
C434 C433 1.388 . S
C434 C435 1.390 . S
C435 C434 1.390 . S
C435 C436 1.394 1_556 S
C435 C441 1.465 1_665 S
C436 C431 1.399 . S
C436 C435 1.394 1_554 S
C436 C437 1.516 1_565 S
C437 C436 1.516 1_545 S
C437 C438 1.502 . S
C437 C439 1.561 1_655 S
C437 C440 1.526 1_655 S
C438 H422 0.959 . S
C438 H423 0.959 . S
C438 H424 0.961 . S
C438 C437 1.502 . S
C439 H425 0.960 1_455 S
C439 H426 0.961 . S
C439 H427 0.959 . S
C439 C437 1.561 1_455 S
C440 C437 1.526 1_455 S
C440 C441 1.396 1_554 S
C440 C445 1.390 . S
C441 C435 1.465 1_445 S
C441 C440 1.396 1_556 S
C441 C442 1.399 . S
C442 H428 0.929 1_545 S
C442 C441 1.399 . S
C442 C443 1.385 . S
C443 H429 0.931 . S
C443 C442 1.385 . S
C443 C444 1.389 . S
C444 C443 1.389 . S
C444 C445 1.387 1_556 S
C445 H430 0.930 . S
C445 C440 1.390 . S
C445 C444 1.387 1_554 S
H446 C458 0.930 . S
H447 C460 0.930 . S
H448 C461 0.930 . S
H449 C465 0.959 . S
H450 C465 0.959 . S
H451 C465 0.961 1_655 S
H452 C466 0.960 . S
H453 C466 0.961 . S
H454 C466 0.959 . S
H455 C469 0.929 . S
H456 C470 0.931 . S
H457 C472 0.930 . S
C458 H446 0.930 . S
C458 C459 1.399 . S
C458 C463 1.399 . S
C459 C458 1.399 . S
C459 C460 1.376 . S
C460 H447 0.930 . S
C460 C459 1.376 . S
C460 C461 1.388 . S
C461 H448 0.930 . S
C461 C460 1.388 . S
C461 C462 1.390 . S
C462 C461 1.390 . S
C462 C463 1.394 . S
C462 C468 1.465 1_645 S
C463 C458 1.399 . S
C463 C462 1.394 . S
C463 C464 1.516 1_545 S
C464 C463 1.516 1_565 S
C464 C465 1.502 1_655 S
C464 C466 1.561 . S
C464 C467 1.526 1_655 S
C465 H449 0.959 . S
C465 H450 0.959 . S
C465 H451 0.961 1_455 S
C465 C464 1.502 1_455 S
C466 H452 0.960 . S
C466 H453 0.961 . S
C466 H454 0.959 . S
C466 C464 1.561 . S
C467 C464 1.526 1_455 S
C467 C468 1.396 . S
C467 C472 1.390 . S
C468 C462 1.465 1_465 S
C468 C467 1.396 . S
C468 C469 1.399 . S
C469 H455 0.929 . S
C469 C468 1.399 . S
C469 C470 1.385 . S
C470 H456 0.931 . S
C470 C469 1.385 . S
C470 C471 1.389 . S
C471 C470 1.389 . S
C471 C472 1.387 . S
C472 H457 0.930 . S
C472 C467 1.390 . S
C472 C471 1.387 . S
H473 C485 0.930 . S
H474 C487 0.930 . S
H475 C488 0.930 . S
H476 C492 0.959 . S
H477 C492 0.959 . S
H478 C492 0.961 . S
H479 C493 0.960 . S
H480 C493 0.961 . S
H481 C493 0.959 . S
H482 C496 0.929 . S
H483 C497 0.931 . S
H484 C499 0.930 . S
C485 H473 0.930 . S
C485 C486 1.399 1_554 S
C485 C490 1.399 . S
C486 C485 1.399 1_556 S
C486 C487 1.376 . S
C487 H474 0.930 . S
C487 C486 1.376 . S
C487 C488 1.388 . S
C488 H475 0.930 . S
C488 C487 1.388 . S
C488 C489 1.390 . S
C489 C488 1.390 . S
C489 C490 1.394 1_556 S
C489 C495 1.465 . S
C490 C485 1.399 . S
C490 C489 1.394 1_554 S
C490 C491 1.516 . S
C491 C490 1.516 . S
C491 C492 1.502 . S
C491 C493 1.561 . S
C491 C494 1.526 . S
C492 H476 0.959 . S
C492 H477 0.959 . S
C492 H478 0.961 . S
C492 C491 1.502 . S
C493 H479 0.960 . S
C493 H480 0.961 . S
C493 H481 0.959 . S
C493 C491 1.561 . S
C494 C491 1.526 . S
C494 C495 1.396 1_554 S
C494 C499 1.390 . S
C495 C489 1.465 . S
C495 C494 1.396 1_556 S
C495 C496 1.399 . S
C496 H482 0.929 . S
C496 C495 1.399 . S
C496 C497 1.385 . S
C497 H483 0.931 . S
C497 C496 1.385 . S
C497 C498 1.389 1_556 S
C498 C497 1.389 1_554 S
C498 C499 1.387 . S
C499 H484 0.930 . S
C499 C494 1.390 . S
C499 C498 1.387 . S
H500 C512 0.930 . S
H501 C514 0.930 . S
H502 C515 0.930 . S
H503 C519 0.959 . S
H504 C519 0.959 . S
H505 C519 0.961 . S
H506 C520 0.960 . S
H507 C520 0.961 . S
H508 C520 0.959 . S
H509 C523 0.929 . S
H510 C524 0.931 . S
H511 C526 0.930 . S
C512 H500 0.930 . S
C512 C513 1.399 . S
C512 C517 1.399 . S
C513 C512 1.399 . S
C513 C514 1.376 . S
C514 H501 0.930 . S
C514 C513 1.376 . S
C514 C515 1.388 . S
C515 H502 0.930 . S
C515 C514 1.388 . S
C515 C516 1.390 . S
C516 C515 1.390 . S
C516 C517 1.394 . S
C516 C522 1.465 . S
C517 C512 1.399 . S
C517 C516 1.394 . S
C517 C518 1.516 . S
C518 C517 1.516 . S
C518 C519 1.502 . S
C518 C520 1.561 . S
C518 C521 1.526 . S
C519 H503 0.959 . S
C519 H504 0.959 . S
C519 H505 0.961 . S
C519 C518 1.502 . S
C520 H506 0.960 . S
C520 H507 0.961 . S
C520 H508 0.959 . S
C520 C518 1.561 . S
C521 C518 1.526 . S
C521 C522 1.396 . S
C521 C526 1.390 . S
C522 C516 1.465 . S
C522 C521 1.396 . S
C522 C523 1.399 . S
C523 H509 0.929 . S
C523 C522 1.399 . S
C523 C524 1.385 . S
C524 H510 0.931 . S
C524 C523 1.385 . S
C524 C525 1.389 . S
C525 C524 1.389 . S
C525 C526 1.387 . S
C526 H511 0.930 . S
C526 C521 1.390 . S
C526 C525 1.387 . S
H527 C539 0.930 . S
H528 C541 0.930 . S
H529 C542 0.930 . S
H530 C546 0.959 . S
H531 C546 0.959 . S
H532 C546 0.961 . S
H533 C547 0.960 . S
H534 C547 0.961 . S
H535 C547 0.959 1_455 S
H536 C550 0.929 . S
H537 C551 0.931 . S
H538 C553 0.930 . S
C539 H527 0.930 . S
C539 C540 1.399 . S
C539 C544 1.399 . S
C540 C539 1.399 . S
C540 C541 1.376 . S
C541 H528 0.930 . S
C541 C540 1.376 . S
C541 C542 1.388 . S
C542 H529 0.930 . S
C542 C541 1.388 . S
C542 C543 1.390 . S
C543 C542 1.390 . S
C543 C544 1.394 . S
C543 C549 1.465 . S
C544 C539 1.399 . S
C544 C543 1.394 . S
C544 C545 1.516 1_455 S
C545 C544 1.516 1_655 S
C545 C546 1.502 . S
C545 C547 1.561 . S
C545 C548 1.526 . S
C546 H530 0.959 . S
C546 H531 0.959 . S
C546 H532 0.961 . S
C546 C545 1.502 . S
C547 H533 0.960 . S
C547 H534 0.961 . S
C547 H535 0.959 1_655 S
C547 C545 1.561 . S
C548 C545 1.526 . S
C548 C549 1.396 1_655 S
C548 C553 1.390 . S
C549 C543 1.465 . S
C549 C548 1.396 1_455 S
C549 C550 1.399 . S
C550 H536 0.929 . S
C550 C549 1.399 . S
C550 C551 1.385 1_455 S
C551 H537 0.931 . S
C551 C550 1.385 1_655 S
C551 C552 1.389 . S
C552 C551 1.389 . S
C552 C553 1.387 . S
C553 H538 0.930 . S
C553 C548 1.390 . S
C553 C552 1.387 . S
H554 C566 0.930 . S
H555 C568 0.930 . S
H556 C569 0.930 . S
H557 C573 0.959 . S
H558 C573 0.959 . S
H559 C573 0.961 . S
H560 C574 0.960 . S
H561 C574 0.961 . S
H562 C574 0.959 . S
H563 C577 0.929 . S
H564 C578 0.931 . S
H565 C580 0.930 . S
C566 H554 0.930 . S
C566 C567 1.399 . S
C566 C571 1.399 . S
C567 C566 1.399 . S
C567 C568 1.376 . S
C568 H555 0.930 . S
C568 C567 1.376 . S
C568 C569 1.388 . S
C569 H556 0.930 . S
C569 C568 1.388 . S
C569 C570 1.390 . S
C570 C569 1.390 . S
C570 C571 1.394 . S
C570 C576 1.465 . S
C571 C566 1.399 . S
C571 C570 1.394 . S
C571 C572 1.516 . S
C572 C571 1.516 . S
C572 C573 1.502 . S
C572 C574 1.561 . S
C572 C575 1.526 . S
C573 H557 0.959 . S
C573 H558 0.959 . S
C573 H559 0.961 . S
C573 C572 1.502 . S
C574 H560 0.960 . S
C574 H561 0.961 . S
C574 H562 0.959 . S
C574 C572 1.561 . S
C575 C572 1.526 . S
C575 C576 1.396 . S
C575 C580 1.390 . S
C576 C570 1.465 . S
C576 C575 1.396 . S
C576 C577 1.399 . S
C577 H563 0.929 . S
C577 C576 1.399 . S
C577 C578 1.385 . S
C578 H564 0.931 . S
C578 C577 1.385 . S
C578 C579 1.389 . S
C579 C578 1.389 . S
C579 C580 1.387 . S
C580 H565 0.930 . S
C580 C575 1.390 . S
C580 C579 1.387 . S
H581 C593 0.930 . S
H582 C595 0.930 . S
H583 C596 0.930 . S
H584 C600 0.959 . S
H585 C600 0.959 . S
H586 C600 0.961 . S
H587 C601 0.960 . S
H588 C601 0.961 . S
H589 C601 0.959 1_655 S
H590 C604 0.929 . S
H591 C605 0.931 . S
H592 C607 0.930 . S
C593 H581 0.930 . S
C593 C594 1.399 . S
C593 C598 1.399 . S
C594 C593 1.399 . S
C594 C595 1.376 . S
C595 H582 0.930 . S
C595 C594 1.376 . S
C595 C596 1.388 . S
C596 H583 0.930 . S
C596 C595 1.388 . S
C596 C597 1.390 . S
C597 C596 1.390 . S
C597 C598 1.394 . S
C597 C603 1.465 . S
C598 C593 1.399 . S
C598 C597 1.394 . S
C598 C599 1.516 1_655 S
C599 C598 1.516 1_455 S
C599 C600 1.502 . S
C599 C601 1.561 . S
C599 C602 1.526 . S
C600 H584 0.959 . S
C600 H585 0.959 . S
C600 H586 0.961 . S
C600 C599 1.502 . S
C601 H587 0.960 . S
C601 H588 0.961 . S
C601 H589 0.959 1_455 S
C601 C599 1.561 . S
C602 C599 1.526 . S
C602 C603 1.396 1_455 S
C602 C607 1.390 . S
C603 C597 1.465 . S
C603 C602 1.396 1_655 S
C603 C604 1.399 . S
C604 H590 0.929 . S
C604 C603 1.399 . S
C604 C605 1.385 1_655 S
C605 H591 0.931 . S
C605 C604 1.385 1_455 S
C605 C606 1.389 . S
C606 C605 1.389 . S
C606 C607 1.387 . S
C607 H592 0.930 . S
C607 C602 1.390 . S
C607 C606 1.387 . S
H608 C620 0.930 . S
H609 C622 0.930 . S
H610 C623 0.930 . S
H611 C627 0.959 . S
H612 C627 0.959 . S
H613 C627 0.961 . S
H614 C628 0.960 . S
H615 C628 0.961 . S
H616 C628 0.959 . S
H617 C631 0.929 . S
H618 C632 0.931 . S
H619 C634 0.930 . S
C620 H608 0.930 . S
C620 C621 1.399 . S
C620 C625 1.399 . S
C621 C620 1.399 . S
C621 C622 1.376 . S
C622 H609 0.930 . S
C622 C621 1.376 . S
C622 C623 1.388 . S
C623 H610 0.930 . S
C623 C622 1.388 . S
C623 C624 1.390 . S
C624 C623 1.390 . S
C624 C625 1.394 . S
C624 C630 1.465 . S
C625 C620 1.399 . S
C625 C624 1.394 . S
C625 C626 1.516 . S
C626 C625 1.516 . S
C626 C627 1.502 . S
C626 C628 1.561 . S
C626 C629 1.526 . S
C627 H611 0.959 . S
C627 H612 0.959 . S
C627 H613 0.961 . S
C627 C626 1.502 . S
C628 H614 0.960 . S
C628 H615 0.961 . S
C628 H616 0.959 . S
C628 C626 1.561 . S
C629 C626 1.526 . S
C629 C630 1.396 . S
C629 C634 1.390 . S
C630 C624 1.465 . S
C630 C629 1.396 . S
C630 C631 1.399 . S
C631 H617 0.929 . S
C631 C630 1.399 . S
C631 C632 1.385 . S
C632 H618 0.931 . S
C632 C631 1.385 . S
C632 C633 1.389 . S
C633 C632 1.389 . S
C633 C634 1.387 . S
C634 H619 0.930 . S
C634 C629 1.390 . S
C634 C633 1.387 . S
H635 C647 0.930 . S
H636 C649 0.930 . S
H637 C650 0.930 . S
H638 C654 0.959 . S
H639 C654 0.959 . S
H640 C654 0.961 . S
H641 C655 0.960 . S
H642 C655 0.961 . S
H643 C655 0.959 . S
H644 C658 0.929 1_556 S
H645 C659 0.931 . S
H646 C661 0.930 . S
C647 H635 0.930 . S
C647 C648 1.399 . S
C647 C652 1.399 . S
C648 C647 1.399 . S
C648 C649 1.376 . S
C649 H636 0.930 . S
C649 C648 1.376 . S
C649 C650 1.388 . S
C650 H637 0.930 . S
C650 C649 1.388 . S
C650 C651 1.390 . S
C651 C650 1.390 . S
C651 C652 1.394 . S
C651 C657 1.465 . S
C652 C647 1.399 . S
C652 C651 1.394 . S
C652 C653 1.516 . S
C653 C652 1.516 . S
C653 C654 1.502 . S
C653 C655 1.561 1_556 S
C653 C656 1.526 1_556 S
C654 H638 0.959 . S
C654 H639 0.959 . S
C654 H640 0.961 . S
C654 C653 1.502 . S
C655 H641 0.960 . S
C655 H642 0.961 . S
C655 H643 0.959 . S
C655 C653 1.561 1_554 S
C656 C653 1.526 1_554 S
C656 C657 1.396 1_554 S
C656 C661 1.390 . S
C657 C651 1.465 . S
C657 C656 1.396 1_556 S
C657 C658 1.399 1_556 S
C658 H644 0.929 1_554 S
C658 C657 1.399 1_554 S
C658 C659 1.385 . S
C659 H645 0.931 . S
C659 C658 1.385 . S
C659 C660 1.389 . S
C660 C659 1.389 . S
C660 C661 1.387 . S
C661 H646 0.930 . S
C661 C656 1.390 . S
C661 C660 1.387 . S
H662 C674 0.930 . S
H663 C676 0.930 1_655 S
H664 C677 0.930 . S
H665 C681 0.959 . S
H666 C681 0.959 . S
H667 C681 0.961 . S
H668 C682 0.960 . S
H669 C682 0.961 . S
H670 C682 0.959 . S
H671 C685 0.929 . S
H672 C686 0.931 . S
H673 C688 0.930 . S
C674 H662 0.930 . S
C674 C675 1.399 . S
C674 C679 1.399 . S
C675 C674 1.399 . S
C675 C676 1.376 . S
C676 H663 0.930 1_455 S
C676 C675 1.376 . S
C676 C677 1.388 . S
C677 H664 0.930 . S
C677 C676 1.388 . S
C677 C678 1.390 . S
C678 C677 1.390 . S
C678 C679 1.394 . S
C678 C684 1.465 . S
C679 C674 1.399 . S
C679 C678 1.394 . S
C679 C680 1.516 . S
C680 C679 1.516 . S
C680 C681 1.502 . S
C680 C682 1.561 . S
C680 C683 1.526 . S
C681 H665 0.959 . S
C681 H666 0.959 . S
C681 H667 0.961 . S
C681 C680 1.502 . S
C682 H668 0.960 . S
C682 H669 0.961 . S
C682 H670 0.959 . S
C682 C680 1.561 . S
C683 C680 1.526 . S
C683 C684 1.396 . S
C683 C688 1.390 . S
C684 C678 1.465 . S
C684 C683 1.396 . S
C684 C685 1.399 . S
C685 H671 0.929 . S
C685 C684 1.399 . S
C685 C686 1.385 . S
C686 H672 0.931 . S
C686 C685 1.385 . S
C686 C687 1.389 . S
C687 C686 1.389 . S
C687 C688 1.387 . S
C688 H673 0.930 . S
C688 C683 1.390 . S
C688 C687 1.387 . S
H689 C701 0.930 . S
H690 C703 0.930 . S
H691 C704 0.930 1_556 S
H692 C708 0.959 . S
H693 C708 0.959 . S
H694 C708 0.961 . S
H695 C709 0.960 . S
H696 C709 0.961 . S
H697 C709 0.959 . S
H698 C712 0.929 . S
H699 C713 0.931 . S
H700 C715 0.930 1_554 S
C701 H689 0.930 . S
C701 C702 1.399 . S
C701 C706 1.399 . S
C702 C701 1.399 . S
C702 C703 1.376 . S
C703 H690 0.930 . S
C703 C702 1.376 . S
C703 C704 1.388 . S
C704 H691 0.930 1_554 S
C704 C703 1.388 . S
C704 C705 1.390 . S
C705 C704 1.390 . S
C705 C706 1.394 . S
C705 C711 1.465 1_554 S
C706 C701 1.399 . S
C706 C705 1.394 . S
C706 C707 1.516 . S
C707 C706 1.516 . S
C707 C708 1.502 . S
C707 C709 1.561 . S
C707 C710 1.526 . S
C708 H692 0.959 . S
C708 H693 0.959 . S
C708 H694 0.961 . S
C708 C707 1.502 . S
C709 H695 0.960 . S
C709 H696 0.961 . S
C709 H697 0.959 . S
C709 C707 1.561 . S
C710 C707 1.526 . S
C710 C711 1.396 1_554 S
C710 C715 1.390 1_554 S
C711 C705 1.465 1_556 S
C711 C710 1.396 1_556 S
C711 C712 1.399 . S
C712 H698 0.929 . S
C712 C711 1.399 . S
C712 C713 1.385 . S
C713 H699 0.931 . S
C713 C712 1.385 . S
C713 C714 1.389 . S
C714 C713 1.389 . S
C714 C715 1.387 . S
C715 H700 0.930 1_556 S
C715 C710 1.390 1_556 S
C715 C714 1.387 . S
H716 C728 0.930 . S
H717 C730 0.930 . S
H718 C731 0.930 . S
H719 C735 0.959 . S
H720 C735 0.959 . S
H721 C735 0.961 . S
H722 C736 0.960 . S
H723 C736 0.961 . S
H724 C736 0.959 . S
H725 C739 0.929 . S
H726 C740 0.931 . S
H727 C742 0.930 . S
C728 H716 0.930 . S
C728 C729 1.399 . S
C728 C733 1.399 . S
C729 C728 1.399 . S
C729 C730 1.376 . S
C730 H717 0.930 . S
C730 C729 1.376 . S
C730 C731 1.388 . S
C731 H718 0.930 . S
C731 C730 1.388 . S
C731 C732 1.390 . S
C732 C731 1.390 . S
C732 C733 1.394 . S
C732 C738 1.465 . S
C733 C728 1.399 . S
C733 C732 1.394 . S
C733 C734 1.516 . S
C734 C733 1.516 . S
C734 C735 1.502 . S
C734 C736 1.561 . S
C734 C737 1.526 . S
C735 H719 0.959 . S
C735 H720 0.959 . S
C735 H721 0.961 . S
C735 C734 1.502 . S
C736 H722 0.960 . S
C736 H723 0.961 . S
C736 H724 0.959 . S
C736 C734 1.561 . S
C737 C734 1.526 . S
C737 C738 1.396 . S
C737 C742 1.390 . S
C738 C732 1.465 . S
C738 C737 1.396 . S
C738 C739 1.399 . S
C739 H725 0.929 . S
C739 C738 1.399 . S
C739 C740 1.385 . S
C740 H726 0.931 . S
C740 C739 1.385 . S
C740 C741 1.389 . S
C741 C740 1.389 . S
C741 C742 1.387 . S
C742 H727 0.930 . S
C742 C737 1.390 . S
C742 C741 1.387 . S
H743 C755 0.930 . S
H744 C757 0.930 . S
H745 C758 0.930 . S
H746 C762 0.959 . S
H747 C762 0.959 . S
H748 C762 0.961 . S
H749 C763 0.960 . S
H750 C763 0.961 . S
H751 C763 0.959 . S
H752 C766 0.929 . S
H753 C767 0.931 . S
H754 C769 0.930 . S
C755 H743 0.930 . S
C755 C756 1.399 . S
C755 C760 1.399 . S
C756 C755 1.399 . S
C756 C757 1.376 . S
C757 H744 0.930 . S
C757 C756 1.376 . S
C757 C758 1.388 . S
C758 H745 0.930 . S
C758 C757 1.388 . S
C758 C759 1.390 . S
C759 C758 1.390 . S
C759 C760 1.394 . S
C759 C765 1.465 . S
C760 C755 1.399 . S
C760 C759 1.394 . S
C760 C761 1.516 . S
C761 C760 1.516 . S
C761 C762 1.502 1_554 S
C761 C763 1.561 . S
C761 C764 1.526 1_554 S
C762 H746 0.959 . S
C762 H747 0.959 . S
C762 H748 0.961 . S
C762 C761 1.502 1_556 S
C763 H749 0.960 . S
C763 H750 0.961 . S
C763 H751 0.959 . S
C763 C761 1.561 . S
C764 C761 1.526 1_556 S
C764 C765 1.396 1_556 S
C764 C769 1.390 . S
C765 C759 1.465 . S
C765 C764 1.396 1_554 S
C765 C766 1.399 . S
C766 H752 0.929 . S
C766 C765 1.399 . S
C766 C767 1.385 1_554 S
C767 H753 0.931 . S
C767 C766 1.385 1_556 S
C767 C768 1.389 . S
C768 C767 1.389 . S
C768 C769 1.387 . S
C769 H754 0.930 . S
C769 C764 1.390 . S
C769 C768 1.387 . S
H770 C782 0.930 . S
H771 C784 0.930 . S
H772 C785 0.930 . S
H773 C789 0.959 . S
H774 C789 0.959 . S
H775 C789 0.961 . S
H776 C790 0.960 . S
H777 C790 0.961 . S
H778 C790 0.959 . S
H779 C793 0.929 . S
H780 C794 0.931 . S
H781 C796 0.930 . S
C782 H770 0.930 . S
C782 C783 1.399 . S
C782 C787 1.399 . S
C783 C782 1.399 . S
C783 C784 1.376 . S
C784 H771 0.930 . S
C784 C783 1.376 . S
C784 C785 1.388 . S
C785 H772 0.930 . S
C785 C784 1.388 . S
C785 C786 1.390 . S
C786 C785 1.390 . S
C786 C787 1.394 . S
C786 C792 1.465 . S
C787 C782 1.399 . S
C787 C786 1.394 . S
C787 C788 1.516 . S
C788 C787 1.516 . S
C788 C789 1.502 . S
C788 C790 1.561 . S
C788 C791 1.526 . S
C789 H773 0.959 . S
C789 H774 0.959 . S
C789 H775 0.961 . S
C789 C788 1.502 . S
C790 H776 0.960 . S
C790 H777 0.961 . S
C790 H778 0.959 . S
C790 C788 1.561 . S
C791 C788 1.526 . S
C791 C792 1.396 . S
C791 C796 1.390 . S
C792 C786 1.465 . S
C792 C791 1.396 . S
C792 C793 1.399 . S
C793 H779 0.929 . S
C793 C792 1.399 . S
C793 C794 1.385 . S
C794 H780 0.931 . S
C794 C793 1.385 . S
C794 C795 1.389 . S
C795 C794 1.389 . S
C795 C796 1.387 . S
C796 H781 0.930 . S
C796 C791 1.390 . S
C796 C795 1.387 . S
H797 C809 0.930 . S
H798 C811 0.930 . S
H799 C812 0.930 . S
H800 C816 0.947 1_556 S
H801 C816 0.956 1_556 S
H802 C816 0.974 . S
H803 C817 0.960 . S
H804 C817 0.961 . S
H805 C817 0.959 . S
H806 C820 0.929 . S
H807 C821 0.931 . S
H808 C823 0.930 . S
C809 H797 0.930 . S
C809 C810 1.399 . S
C809 C814 1.399 . S
C810 C809 1.399 . S
C810 C811 1.376 . S
C811 H798 0.930 . S
C811 C810 1.376 . S
C811 C812 1.388 1_554 S
C812 H799 0.930 . S
C812 C811 1.388 1_556 S
C812 C813 1.390 . S
C813 C812 1.390 . S
C813 C814 1.394 1_556 S
C813 C819 1.465 . S
C814 C809 1.399 . S
C814 C813 1.394 1_554 S
C814 C815 1.516 . S
C815 C814 1.516 . S
C815 C816 1.503 . S
C815 C817 1.561 . S
C815 C818 1.526 1_554 S
C816 H800 0.947 1_554 S
C816 H801 0.956 1_554 S
C816 H802 0.974 . S
C816 C815 1.503 . S
C817 H803 0.960 . S
C817 H804 0.961 . S
C817 H805 0.959 . S
C817 C815 1.561 . S
C818 C815 1.526 1_556 S
C818 C819 1.396 . S
C818 C823 1.390 . S
C819 C813 1.465 . S
C819 C818 1.396 . S
C819 C820 1.399 . S
C820 H806 0.929 . S
C820 C819 1.399 . S
C820 C821 1.385 . S
C821 H807 0.931 . S
C821 C820 1.385 . S
C821 C822 1.389 . S
C822 C821 1.389 . S
C822 C823 1.387 . S
C823 H808 0.930 . S
C823 C818 1.390 . S
C823 C822 1.387 . S
C189 C140 1.621 . S
C201 C5 1.515 . S
C216 C27 1.583 . S
C228 C162 1.623 . S
C243 C96 1.633 . S
C255 C49 1.499 . S
C270 C75 1.509 . S
C282 C114 1.635 . S
C297 C52 1.617 . S
C309 C94 1.542 . S
C324 C117 1.494 . S
C336 C70 1.623 . S
C351 C8 1.620 . S
C363 C138 1.567 . S
C378 C30 1.634 . S
C390 C160 1.526 . S
C405 C9 1.164 . S
C417 C95 1.050 . S
C432 C116 1.091 . S
C444 C31 1.093 . S
C459 C53 1.156 . S
C471 C139 1.062 . S
C486 C161 1.074 . S
C498 C71 1.146 . S
C513 C74 1.497 . S
C525 C4 1.495 . S
C540 C26 1.508 . S
C552 C48 1.503 . S
C567 C158 1.502 . S
C579 C92 1.497 . S
C594 C118 1.531 . S
C606 C136 1.540 . S
C621 C6 1.315 . S
C633 C51 1.441 . S
C648 C28 1.333 . S
C660 C72 1.440 . S
C675 C50 1.264 . S
C687 C7 1.419 . S
C702 C73 1.260 . S
C714 C29 1.396 . S
C729 C93 1.379 . S
C741 C141 1.435 . S
C756 C119 1.384 . S
C768 C163 1.429 . S
C783 C137 1.385 . S
C795 C97 1.412 . S
C810 C115 1.439 . S
C822 C159 1.371 . S
