# Generated by pormake.
# Topology snl, (6)-cn, num edge types: 1
# Building blocks:
#     Node 0, Type 0, BuildingBlock: KUMBOL_clean_sbu_1, # of connection points: 6
#     Node 1, Type 0, BuildingBlock: KUMBOL_clean_sbu_1, # of connection points: 6
#     Node 2, Type 0, BuildingBlock: KUMBOL_clean_sbu_1, # of connection points: 6
#     Node 3, Type 0, BuildingBlock: KUMBOL_clean_sbu_1, # of connection points: 6
#     Node 4, Type 0, BuildingBlock: KUMBOL_clean_sbu_1, # of connection points: 6
#     Node 5, Type 0, BuildingBlock: KUMBOL_clean_sbu_1, # of connection points: 6
#     Node 6, Type 0, BuildingBlock: KUMBOL_clean_sbu_1, # of connection points: 6
#     Node 7, Type 0, BuildingBlock: KUMBOL_clean_sbu_1, # of connection points: 6
#     Node 8, Type 0, BuildingBlock: KUMBOL_clean_sbu_1, # of connection points: 6
#     Node 9, Type 0, BuildingBlock: KUMBOL_clean_sbu_1, # of connection points: 6
#     Node 10, Type 0, BuildingBlock: KUMBOL_clean_sbu_1, # of connection points: 6
#     Node 11, Type 0, BuildingBlock: KUMBOL_clean_sbu_1, # of connection points: 6
#     Node 12, Type 0, BuildingBlock: KUMBOL_clean_sbu_1, # of connection points: 6
#     Node 13, Type 0, BuildingBlock: KUMBOL_clean_sbu_1, # of connection points: 6
#     Node 14, Type 0, BuildingBlock: KUMBOL_clean_sbu_1, # of connection points: 6
#     Node 15, Type 0, BuildingBlock: KUMBOL_clean_sbu_1, # of connection points: 6
#     Edge 16, Type (0, 0), BuildingBlock: TEMPAE_clean_linker_10, # of connection points: 2
#     Edge 17, Type (0, 0), BuildingBlock: TEMPAE_clean_linker_10, # of connection points: 2
#     Edge 18, Type (0, 0), BuildingBlock: TEMPAE_clean_linker_10, # of connection points: 2
#     Edge 19, Type (0, 0), BuildingBlock: TEMPAE_clean_linker_10, # of connection points: 2
#     Edge 20, Type (0, 0), BuildingBlock: TEMPAE_clean_linker_10, # of connection points: 2
#     Edge 21, Type (0, 0), BuildingBlock: TEMPAE_clean_linker_10, # of connection points: 2
#     Edge 22, Type (0, 0), BuildingBlock: TEMPAE_clean_linker_10, # of connection points: 2
#     Edge 23, Type (0, 0), BuildingBlock: TEMPAE_clean_linker_10, # of connection points: 2
#     Edge 24, Type (0, 0), BuildingBlock: TEMPAE_clean_linker_10, # of connection points: 2
#     Edge 25, Type (0, 0), BuildingBlock: TEMPAE_clean_linker_10, # of connection points: 2
#     Edge 26, Type (0, 0), BuildingBlock: TEMPAE_clean_linker_10, # of connection points: 2
#     Edge 27, Type (0, 0), BuildingBlock: TEMPAE_clean_linker_10, # of connection points: 2
#     Edge 28, Type (0, 0), BuildingBlock: TEMPAE_clean_linker_10, # of connection points: 2
#     Edge 29, Type (0, 0), BuildingBlock: TEMPAE_clean_linker_10, # of connection points: 2
#     Edge 30, Type (0, 0), BuildingBlock: TEMPAE_clean_linker_10, # of connection points: 2
#     Edge 31, Type (0, 0), BuildingBlock: TEMPAE_clean_linker_10, # of connection points: 2
#     Edge 32, Type (0, 0), BuildingBlock: TEMPAE_clean_linker_10, # of connection points: 2
#     Edge 33, Type (0, 0), BuildingBlock: TEMPAE_clean_linker_10, # of connection points: 2
#     Edge 34, Type (0, 0), BuildingBlock: TEMPAE_clean_linker_10, # of connection points: 2
#     Edge 35, Type (0, 0), BuildingBlock: TEMPAE_clean_linker_10, # of connection points: 2
#     Edge 36, Type (0, 0), BuildingBlock: TEMPAE_clean_linker_10, # of connection points: 2
#     Edge 37, Type (0, 0), BuildingBlock: TEMPAE_clean_linker_10, # of connection points: 2
#     Edge 38, Type (0, 0), BuildingBlock: TEMPAE_clean_linker_10, # of connection points: 2
#     Edge 39, Type (0, 0), BuildingBlock: TEMPAE_clean_linker_10, # of connection points: 2
#     Edge 40, Type (0, 0), BuildingBlock: TEMPAE_clean_linker_10, # of connection points: 2
#     Edge 41, Type (0, 0), BuildingBlock: TEMPAE_clean_linker_10, # of connection points: 2
#     Edge 42, Type (0, 0), BuildingBlock: TEMPAE_clean_linker_10, # of connection points: 2
#     Edge 43, Type (0, 0), BuildingBlock: TEMPAE_clean_linker_10, # of connection points: 2
#     Edge 44, Type (0, 0), BuildingBlock: TEMPAE_clean_linker_10, # of connection points: 2
#     Edge 45, Type (0, 0), BuildingBlock: TEMPAE_clean_linker_10, # of connection points: 2
#     Edge 46, Type (0, 0), BuildingBlock: TEMPAE_clean_linker_10, # of connection points: 2
#     Edge 47, Type (0, 0), BuildingBlock: TEMPAE_clean_linker_10, # of connection points: 2
#     Edge 48, Type (0, 0), BuildingBlock: TEMPAE_clean_linker_10, # of connection points: 2
#     Edge 49, Type (0, 0), BuildingBlock: TEMPAE_clean_linker_10, # of connection points: 2
#     Edge 50, Type (0, 0), BuildingBlock: TEMPAE_clean_linker_10, # of connection points: 2
#     Edge 51, Type (0, 0), BuildingBlock: TEMPAE_clean_linker_10, # of connection points: 2
#     Edge 52, Type (0, 0), BuildingBlock: TEMPAE_clean_linker_10, # of connection points: 2
#     Edge 53, Type (0, 0), BuildingBlock: TEMPAE_clean_linker_10, # of connection points: 2
#     Edge 54, Type (0, 0), BuildingBlock: TEMPAE_clean_linker_10, # of connection points: 2
#     Edge 55, Type (0, 0), BuildingBlock: TEMPAE_clean_linker_10, # of connection points: 2
#     Edge 56, Type (0, 0), BuildingBlock: TEMPAE_clean_linker_10, # of connection points: 2
#     Edge 57, Type (0, 0), BuildingBlock: TEMPAE_clean_linker_10, # of connection points: 2
#     Edge 58, Type (0, 0), BuildingBlock: TEMPAE_clean_linker_10, # of connection points: 2
#     Edge 59, Type (0, 0), BuildingBlock: TEMPAE_clean_linker_10, # of connection points: 2
#     Edge 60, Type (0, 0), BuildingBlock: TEMPAE_clean_linker_10, # of connection points: 2
#     Edge 61, Type (0, 0), BuildingBlock: TEMPAE_clean_linker_10, # of connection points: 2
#     Edge 62, Type (0, 0), BuildingBlock: TEMPAE_clean_linker_10, # of connection points: 2
#     Edge 63, Type (0, 0), BuildingBlock: TEMPAE_clean_linker_10, # of connection points: 2
# Relax obj value: 0.160
# Max RMSD: 0.229
# Mean RMSD: 0.226
data_MOF--net-snl--node1-KUMBOL_clean_sbu_1--edge1-TEMPAE_clean_linker_10
_symmetry_space_group_name_H-M    P1
_symmetry_Int_Tables_number       1
_symmetry_cell_setting            triclinic
loop_
_symmetry_equiv_pos_as_xyz
'x, y, z'
_cell_length_a     58.366873
_cell_length_b     58.308344
_cell_length_c     25.343359
_cell_angle_alpha  90.223348
_cell_angle_beta   90.427082
_cell_angle_gamma 90.030217
loop_
_atom_site_label
_atom_site_type_symbol
_atom_site_fract_x
_atom_site_fract_y
_atom_site_fract_z
_atom_type_partial_charge
C0 C 0.09788 0.57023 0.22833 0.0
C1 C 0.12696 0.54112 0.24399 0.0
C2 C 0.12093 0.5638 0.23059 0.0
C3 C 0.1097 0.525 0.25417 0.0
C4 C 0.08057 0.55407 0.23896 0.0
C5 C 0.0866 0.53143 0.2516 0.0
N6 N 0.0924 0.59226 0.21589 0.0
C7 C 0.07015 0.59944 0.2153 0.0
C8 C 0.05765 0.5612 0.23723 0.0
C9 C 0.05245 0.58402 0.22579 0.0
Gd10 Gd 0.14765 0.63163 0.06352 0.0
Gd11 Gd 0.12351 0.61694 0.2053 0.0
N12 N 0.13739 0.57964 0.21931 0.0
C13 C 0.15019 0.53533 0.24733 0.0
C14 C 0.16004 0.57418 0.22389 0.0
C15 C 0.16679 0.55199 0.23764 0.0
H16 H 0.17306 0.58678 0.21804 0.0
H17 H 0.1848 0.54778 0.24084 0.0
H18 H 0.09891 0.65777 0.02467 0.0
H19 H 0.06608 0.61723 0.20797 0.0
H20 H 0.08582 0.69649 1.00111 0.0
H21 H 0.1555 0.51812 0.2577 0.0
H22 H 0.11404 0.5075 0.26439 0.0
H23 H 0.20451 0.63208 0.05411 0.0
H24 H 0.04388 0.5493 0.24539 0.0
H25 H 0.03483 0.5898 0.22554 0.0
H26 H 0.15525 0.7399 0.99186 0.0
H27 H 0.07352 0.51879 0.25989 0.0
H28 H 0.22625 0.70058 0.02109 0.0
H29 H 0.23572 0.66019 0.04177 0.0
N30 N 0.17809 0.65677 0.04764 0.0
C31 C 0.17248 0.67848 0.03357 0.0
C32 C 0.2004 0.64995 0.04905 0.0
C33 C 0.2126 0.68842 0.0283 0.0
C34 C 0.21802 0.6657 0.0403 0.0
C35 C 0.18959 0.69497 0.02384 0.0
H36 H 0.19605 0.73026 1.00195 0.0
N37 N 0.13356 0.66752 0.0364 0.0
C38 C 0.14952 0.68402 0.02764 0.0
C39 C 0.11978 0.7109 1.00378 0.0
C40 C 0.14305 0.70621 0.0118 0.0
C41 C 0.1111 0.67152 0.02464 0.0
C42 C 0.10375 0.69336 0.00953 0.0
O43 O 0.11975 0.58964 0.13984 0.0
O44 O 0.15269 0.59671 0.09706 0.0
O45 O 0.13378 0.62513 0.98436 0.0
O46 O 0.16846 0.61555 1.00349 0.0
O47 O 0.16058 0.62875 0.20345 0.0
O48 O 0.17583 0.62018 0.12154 0.0
O49 O 0.15013 0.66028 0.12407 0.0
O50 O 0.12059 0.65496 0.18304 0.0
O51 O 0.1388 0.61893 0.28374 0.0
O52 O 0.10235 0.62393 0.27327 0.0
O53 O 0.10899 0.62297 0.07212 0.0
O54 O 0.0981 0.63583 0.15457 0.0
C55 C 0.13516 0.58351 0.10501 0.0
C56 C 0.17827 0.62489 0.17257 0.0
C57 C 0.16125 0.6268 0.91558 0.0
C58 C 0.16088 0.62634 0.81933 0.0
C59 C 0.18869 0.64966 0.86665 0.0
C60 C 0.17971 0.64229 0.91433 0.0
C61 C 0.17947 0.64164 0.81938 0.0
C62 C 0.15157 0.6191 0.8676 0.0
C63 C 0.15317 0.61752 0.96633 0.0
C64 C 0.15999 0.72281 1.00337 0.0
C65 C 0.1832 0.71725 0.00922 0.0
H66 H 0.11411 0.72771 0.99119 0.0
C67 C 0.13508 0.6684 0.15769 0.0
C68 C 0.0931 0.63016 0.10564 0.0
C69 C 0.11926 0.63952 0.35001 0.0
C70 C 0.12248 0.64671 0.44464 0.0
C71 C 0.11234 0.67764 0.38435 0.0
C72 C 0.11372 0.6626 0.34156 0.0
C73 C 0.11655 0.66979 0.43554 0.0
C74 C 0.12377 0.63167 0.40131 0.0
C75 C 0.11931 0.62294 0.30662 0.0
H76 H 0.20298 0.6615 0.86638 0.0
H77 H 0.18763 0.64845 0.94995 0.0
H78 H 0.18668 0.64762 0.78263 0.0
H79 H 0.1373 0.60718 0.86778 0.0
H80 H 0.1078 0.69541 0.37791 0.0
H81 H 0.11018 0.66885 0.30213 0.0
H82 H 0.11492 0.68176 0.46805 0.0
H83 H 0.12834 0.61383 0.40729 0.0
C84 C 0.69388 0.85031 0.48289 0.0
C85 C 0.72267 0.87979 0.49757 0.0
C86 C 0.69993 0.87338 0.48533 0.0
C87 C 0.73916 0.86277 0.50724 0.0
C88 C 0.71033 0.8332 0.49333 0.0
C89 C 0.73301 0.83956 0.50521 0.0
N90 N 0.67186 0.84459 0.47091 0.0
C91 C 0.66489 0.82226 0.47105 0.0
C92 C 0.70344 0.8102 0.49224 0.0
C93 C 0.68056 0.80474 0.4816 0.0
Gd94 Gd 0.62914 0.89907 0.31854 0.0
Gd95 Gd 0.64668 0.87517 0.45764 0.0
N96 N 0.68367 0.88951 0.47482 0.0
C97 C 0.72817 0.90313 0.49971 0.0
C98 C 0.68875 0.91226 0.47946 0.0
C99 C 0.71108 0.91943 0.49104 0.0
H100 H 0.67571 0.92501 0.47574 0.0
H101 H 0.71501 0.93754 0.49404 0.0
H102 H 0.60179 0.85069 0.28384 0.0
H103 H 0.64712 0.81793 0.46398 0.0
H104 H 0.56299 0.83862 0.25702 0.0
H105 H 0.74546 0.90875 0.50887 0.0
H106 H 0.75672 0.86739 0.51654 0.0
H107 H 0.62742 0.95678 0.33302 0.0
H108 H 0.71554 0.79656 0.50034 0.0
H109 H 0.67496 0.78705 0.48186 0.0
H110 H 0.52142 0.90917 0.24666 0.0
H111 H 0.7459 0.82664 0.51318 0.0
H112 H 0.55923 0.97859 0.29769 0.0
H113 H 0.59891 0.9876 0.32562 0.0
N114 N 0.60361 0.93005 0.31532 0.0
C115 C 0.58196 0.92472 0.29917 0.0
C116 C 0.60989 0.95235 0.3239 0.0
C117 C 0.57151 0.96483 0.30262 0.0
C118 C 0.59387 0.96999 0.31856 0.0
C119 C 0.5654 0.94205 0.29202 0.0
H120 H 0.53059 0.94929 0.26702 0.0
N121 N 0.59259 0.88534 0.297 0.0
C122 C 0.57637 0.90181 0.28934 0.0
C123 C 0.54928 0.87287 0.26074 0.0
C124 C 0.5543 0.89595 0.27099 0.0
C125 C 0.58828 0.86311 0.28358 0.0
C126 C 0.56643 0.8564 0.26668 0.0
O127 O 0.67455 0.87311 0.3925 0.0
O128 O 0.66639 0.90378 0.33921 0.0
O129 O 0.63506 0.88541 0.23936 0.0
O130 O 0.6322 0.92199 0.2522 0.0
O131 O 0.6335 0.9118 0.45306 0.0
O132 O 0.64682 0.92471 0.37373 0.0
O133 O 0.60183 0.89998 0.38218 0.0
O134 O 0.60972 0.86848 0.43249 0.0
O135 O 0.64372 0.88999 0.53682 0.0
O136 O 0.63459 0.85461 0.52235 0.0
O137 O 0.63905 0.86048 0.3222 0.0
O138 O 0.62994 0.84846 0.40624 0.0
C139 C 0.68044 0.88748 0.35444 0.0
C140 C 0.63959 0.92874 0.42213 0.0
C141 C 0.64926 0.91013 0.17232 0.0
C142 C 0.65543 0.90662 0.07775 0.0
C143 C 0.68116 0.92977 0.13157 0.0
C144 C 0.66828 0.92477 0.17626 0.0
C145 C 0.67494 0.92057 0.08263 0.0
C146 C 0.64268 0.90133 0.1228 0.0
C147 C 0.63457 0.90564 0.2178 0.0
C148 C 0.53814 0.91331 0.2622 0.0
C149 C 0.54347 0.9362 0.27347 0.0
H150 H 0.53242 0.8677 0.247 0.0
C151 C 0.59516 0.88357 0.4137 0.0
C152 C 0.63483 0.84398 0.35686 0.0
C153 C 0.64757 0.8636 0.60798 0.0
C154 C 0.64673 0.86374 0.70399 0.0
C155 C 0.67168 0.83735 0.65773 0.0
C156 C 0.66402 0.84603 0.60964 0.0
C157 C 0.66295 0.84599 0.70472 0.0
C158 C 0.63921 0.87274 0.65553 0.0
C159 C 0.63716 0.87067 0.55752 0.0
H160 H 0.69583 0.94105 0.1347 0.0
H161 H 0.67295 0.93265 0.21356 0.0
H162 H 0.68497 0.92488 0.04826 0.0
H163 H 0.62751 0.89067 0.11917 0.0
H164 H 0.6842 0.82365 0.65853 0.0
H165 H 0.67054 0.83848 0.57398 0.0
H166 H 0.669 0.83896 0.74181 0.0
H167 H 0.62641 0.88621 0.65485 0.0
C168 C 0.41407 0.4466 0.72371 0.0
C169 C 0.38429 0.4755 0.73196 0.0
C170 C 0.39085 0.45243 0.72473 0.0
C171 C 0.40116 0.49241 0.73955 0.0
C172 C 0.43099 0.46363 0.73049 0.0
C173 C 0.4244 0.48649 0.73894 0.0
N174 N 0.4201 0.42445 0.71372 0.0
C175 C 0.44252 0.41805 0.71158 0.0
C176 C 0.45408 0.45721 0.72811 0.0
C177 C 0.45984 0.43432 0.71885 0.0
Gd178 Gd 0.3665 0.38145 0.56515 0.0
Gd179 Gd 0.38985 0.39841 0.70831 0.0
N180 N 0.37481 0.43577 0.71582 0.0
C181 C 0.36097 0.48101 0.73053 0.0
C182 C 0.35205 0.4411 0.71498 0.0
C183 C 0.34482 0.46374 0.72193 0.0
H184 H 0.33927 0.4282 0.70878 0.0
H185 H 0.32674 0.46785 0.72077 0.0
H186 H 0.41662 0.35366 0.53762 0.0
H187 H 0.44702 0.40026 0.70631 0.0
H188 H 0.42915 0.31505 0.51446 0.0
H189 H 0.35527 0.49855 0.73577 0.0
H190 H 0.39639 0.51019 0.7454 0.0
H191 H 0.30964 0.38164 0.5488 0.0
H192 H 0.46758 0.46977 0.73353 0.0
H193 H 0.47759 0.42916 0.71816 0.0
H194 H 0.35935 0.27353 0.48542 0.0
H195 H 0.43718 0.49978 0.74444 0.0
H196 H 0.2885 0.31416 0.50277 0.0
H197 H 0.27886 0.35422 0.52619 0.0
N198 N 0.33631 0.3571 0.54075 0.0
C199 C 0.34206 0.33541 0.5264 0.0
C200 C 0.314 0.36404 0.5399 0.0
C201 C 0.30206 0.32607 0.51317 0.0
C202 C 0.29654 0.34864 0.52648 0.0
C203 C 0.32504 0.31924 0.51256 0.0
H204 H 0.31862 0.28418 0.48789 0.0
N205 N 0.38105 0.34546 0.5385 0.0
C206 C 0.36506 0.32941 0.52519 0.0
C207 C 0.39488 0.30178 0.50716 0.0
C208 C 0.37156 0.30706 0.50983 0.0
C209 C 0.40381 0.34067 0.53283 0.0
C210 C 0.41106 0.31873 0.51819 0.0
O211 O 0.39517 0.42339 0.63954 0.0
O212 O 0.36142 0.41621 0.6006 0.0
O213 O 0.37934 0.38587 0.48481 0.0
O214 O 0.34777 0.40195 0.50849 0.0
O215 O 0.35265 0.38787 0.7074 0.0
O216 O 0.3369 0.38822 0.62247 0.0
O217 O 0.36368 0.3528 0.62421 0.0
O218 O 0.39058 0.35962 0.69061 0.0
O219 O 0.37657 0.39924 0.78812 0.0
O220 O 0.41243 0.39237 0.77524 0.0
O221 O 0.40504 0.38962 0.57697 0.0
O222 O 0.41366 0.37686 0.66059 0.0
C223 C 0.37915 0.42951 0.60594 0.0
C224 C 0.33501 0.387 0.67462 0.0
C225 C 0.35098 0.39209 0.41792 0.0
C226 C 0.35272 0.39187 0.32156 0.0
C227 C 0.31703 0.38304 0.36556 0.0
C228 C 0.3276 0.38636 0.4144 0.0
C229 C 0.32943 0.38591 0.31942 0.0
C230 C 0.36362 0.39458 0.37102 0.0
C231 C 0.36159 0.39769 0.46966 0.0
C232 C 0.35466 0.29081 0.49688 0.0
C233 C 0.33146 0.29688 0.49826 0.0
H234 H 0.40058 0.28488 0.49515 0.0
C235 C 0.37709 0.34567 0.66273 0.0
C236 C 0.42005 0.38244 0.61289 0.0
C237 C 0.39589 0.37745 0.85232 0.0
C238 C 0.39257 0.36897 0.94606 0.0
C239 C 0.39713 0.33805 0.88216 0.0
C240 C 0.39769 0.35395 0.84118 0.0
C241 C 0.39451 0.34546 0.93425 0.0
C242 C 0.39347 0.38494 0.90476 0.0
C243 C 0.39624 0.3944 0.80985 0.0
H244 H 0.29902 0.37865 0.36346 0.0
H245 H 0.31718 0.38507 0.44914 0.0
H246 H 0.32079 0.38349 0.2818 0.0
H247 H 0.38155 0.39939 0.37292 0.0
H248 H 0.3986 0.31992 0.87351 0.0
H249 H 0.3995 0.34794 0.80093 0.0
H250 H 0.39404 0.33282 0.96543 0.0
H251 H 0.39178 0.40311 0.91324 0.0
C252 C 0.91726 0.06912 0.79181 0.0
C253 C 0.88828 0.03931 0.78334 0.0
C254 C 0.89426 0.06243 0.79237 0.0
C255 C 0.90552 0.02311 0.77339 0.0
C256 C 0.93455 0.05287 0.7816 0.0
C257 C 0.92855 0.02987 0.77243 0.0
N258 N 0.92273 0.09142 0.80179 0.0
C259 C 0.94489 0.0988 0.80012 0.0
C260 C 0.9574 0.06025 0.78061 0.0
C261 C 0.96255 0.08334 0.78942 0.0
Gd262 Gd 0.86699 0.13195 0.9549 0.0
Gd263 Gd 0.89168 0.11604 0.81313 0.0
N264 N 0.87786 0.07841 0.80314 0.0
C265 C 0.86512 0.03311 0.78454 0.0
C266 C 0.85523 0.07252 0.80291 0.0
C267 C 0.84854 0.04981 0.79406 0.0
H268 H 0.84218 0.0851 0.80951 0.0
H269 H 0.83057 0.04522 0.79454 0.0
H270 H 0.91575 0.1588 0.99254 0.0
H271 H 0.94891 0.11672 0.80626 0.0
H272 H 0.92871 0.19788 0.01404 0.0
H273 H 0.85985 0.01551 0.77783 0.0
H274 H 0.90122 1.00528 0.76631 0.0
H275 H 0.81018 0.13126 0.96952 0.0
H276 H 0.97116 0.0483 0.77263 0.0
H277 H 0.98011 0.08926 0.78785 0.0
H278 H 0.85878 0.2406 0.02803 0.0
H279 H 0.94162 0.01715 0.76453 0.0
H280 H 0.78814 0.19934 0.00755 0.0
H281 H 0.77898 0.15875 0.98756 0.0
N282 N 0.83649 0.15625 0.97657 0.0
C283 C 0.84196 0.17819 0.98957 0.0
C284 C 0.81428 0.14905 0.97701 0.0
C285 C 0.80186 0.18739 0.99916 0.0
C286 C 0.79661 0.16451 0.98781 0.0
C287 C 0.82478 0.19444 1.00078 0.0
H288 H 0.81806 0.22984 0.02208 0.0
N289 N 0.88092 0.16797 0.98283 0.0
C290 C 0.86487 0.18427 0.99276 0.0
C291 C 0.89456 0.21183 0.01341 0.0
C292 C 0.87125 0.20674 0.00753 0.0
C293 C 0.90345 0.17238 0.99295 0.0
C294 C 0.91071 0.19444 1.007 0.0
O295 O 0.89643 0.08994 0.8805 0.0
O296 O 0.86265 0.09744 0.91778 0.0
O297 O 0.87877 0.12782 0.03664 0.0
O298 O 0.84816 0.11071 0.00914 0.0
O299 O 0.85424 0.12661 0.8129 0.0
O300 O 0.83782 0.12397 0.89621 0.0
O301 O 0.86436 0.16039 0.89479 0.0
O302 O 0.89323 0.15434 0.83395 0.0
O303 O 0.87724 0.11511 0.73391 0.0
O304 O 0.91263 0.12462 0.74549 0.0
O305 O 0.90577 0.12379 0.94706 0.0
O306 O 0.91704 0.13526 0.86385 0.0
C307 C 0.88047 0.08426 0.91423 0.0
C308 C 0.8362 0.12594 0.84408 0.0
C309 C 0.8498 0.11992 0.10037 0.0
C310 C 0.85096 0.12043 0.19682 0.0
C311 C 0.81466 0.12429 0.15044 0.0
C312 C 0.82586 0.12262 0.10225 0.0
C313 C 0.82706 0.12301 0.19744 0.0
C314 C 0.86239 0.11916 0.14811 0.0
C315 C 0.86126 0.11527 0.04951 0.0
C316 C 0.85421 0.22319 0.01717 0.0
C317 C 0.83102 0.21705 0.01384 0.0
H318 H 0.90019 0.22884 0.02497 0.0
C319 C 0.87884 0.16797 0.85935 0.0
C320 C 0.92183 0.1302 0.9132 0.0
C321 C 0.89403 0.13814 0.66874 0.0
C322 C 0.88912 0.14597 0.5749 0.0
C323 C 0.89113 0.17737 0.63828 0.0
C324 C 0.89363 0.16173 0.67951 0.0
C325 C 0.88875 0.16957 0.58632 0.0
C326 C 0.89197 0.13028 0.61637 0.0
C327 C 0.89619 0.12139 0.71145 0.0
H328 H 0.79622 0.12619 0.15135 0.0
H329 H 0.81559 0.12278 0.06664 0.0
H330 H 0.81799 0.12411 0.23452 0.0
H331 H 0.8808 0.11677 0.14746 0.0
H332 H 0.89087 0.19558 0.64664 0.0
H333 H 0.89518 0.16802 0.71967 0.0
H334 H 0.88664 0.18196 0.55492 0.0
H335 H 0.89204 0.11202 0.60805 0.0
C336 C 0.19428 0.35546 0.97298 0.0
C337 C 0.22028 0.38721 0.99004 0.0
C338 C 0.19804 0.37897 0.97891 0.0
C339 C 0.23859 0.37169 0.99441 0.0
C340 C 0.21257 0.33984 0.97826 0.0
C341 C 0.23474 0.34809 0.98868 0.0
N342 N 0.1728 0.34792 0.96105 0.0
C343 C 0.16811 0.32506 0.95731 0.0
C344 C 0.208 0.31634 0.97308 0.0
C345 C 0.18562 0.30893 0.96323 0.0
Gd346 Gd 0.12928 0.39918 0.81186 0.0
Gd347 Gd 0.14454 0.37615 0.95503 0.0
N348 N 0.18001 0.39371 0.97373 0.0
C349 C 0.22344 0.41081 0.99713 0.0
C350 C 0.18279 0.41648 0.98437 0.0
C351 C 0.20456 0.42545 0.99502 0.0
H352 H 0.16835 0.42776 0.98671 0.0
H353 H 0.20668 0.44362 1.00259 0.0
H354 H 0.10063 0.35041 0.7837 0.0
H355 H 0.15075 0.31922 0.95064 0.0
H356 H 0.06266 0.33895 0.75101 0.0
H357 H 0.24026 0.41781 1.00572 0.0
H358 H 0.2558 0.37776 1.00277 0.0
H359 H 0.1286 0.45694 0.82142 0.0
H360 H 0.22156 0.30379 0.97725 0.0
H361 H 0.18182 0.2908 0.9604 0.0
H362 H 0.02582 0.41048 0.71363 0.0
H363 H 0.24902 0.33635 0.99263 0.0
H364 H 0.06296 0.47984 0.76776 0.0
H365 H 0.10145 0.48836 0.80432 0.0
N366 N 0.10492 0.43061 0.80018 0.0
C367 C 0.08386 0.42552 0.78001 0.0
C368 C 0.11145 0.45285 0.8083 0.0
C369 C 0.07456 0.46588 0.77685 0.0
C370 C 0.09625 0.47077 0.79762 0.0
C371 C 0.06824 0.44309 0.76717 0.0
H372 H 0.03508 0.45071 0.73254 0.0
N373 N 0.09287 0.3859 0.78713 0.0
C374 C 0.07778 0.40258 0.77268 0.0
C375 C 0.05063 0.37373 0.74388 0.0
C376 C 0.05631 0.39689 0.75053 0.0
C377 C 0.08792 0.36338 0.77788 0.0
C378 C 0.06655 0.3569 0.7576 0.0
O379 O 0.17119 0.37282 0.88816 0.0
O380 O 0.16499 0.40553 0.84159 0.0
O381 O 0.13745 0.3834 0.73636 0.0
O382 O 0.13565 0.42035 0.74315 0.0
O383 O 0.13112 0.41255 0.94967 0.0
O384 O 0.14493 0.42489 0.86979 0.0
O385 O 0.10002 0.40045 0.86969 0.0
O386 O 0.10651 0.37339 0.93458 0.0
O387 O 0.14152 0.38699 0.03907 0.0
O388 O 0.13616 0.35154 0.01379 0.0
O389 O 0.13858 0.36092 0.82008 0.0
O390 O 0.12626 0.35071 0.90305 0.0
C391 C 0.1786 0.3888 0.85565 0.0
C392 C 0.13639 0.42918 0.91694 0.0
C393 C 0.15438 0.40525 0.66812 0.0
C394 C 0.16132 0.40507 0.57347 0.0
C395 C 0.1927 0.41159 0.63519 0.0
C396 C 0.17763 0.40961 0.67747 0.0
C397 C 0.18465 0.40914 0.58341 0.0
C398 C 0.14619 0.40322 0.61603 0.0
C399 C 0.13819 0.40293 0.71163 0.0
C400 C 0.04144 0.41445 0.7346 0.0
C401 C 0.04706 0.43743 0.74411 0.0
H402 H 0.03421 0.36869 0.72733 0.0
C403 C 0.09277 0.38705 0.90762 0.0
C404 C 0.13228 0.3453 0.85489 0.0
C405 C 0.13246 0.35771 0.10693 0.0
C406 C 0.12782 0.3634 0.20202 0.0
C407 C 0.12377 0.32533 0.16356 0.0
C408 C 0.12807 0.33418 0.11386 0.0
C409 C 0.12367 0.33974 0.20726 0.0
C410 C 0.13251 0.3724 0.15145 0.0
C411 C 0.13701 0.36593 0.0528 0.0
H412 H 0.21065 0.41502 0.64249 0.0
H413 H 0.18398 0.41152 0.71727 0.0
H414 H 0.19659 0.41055 0.55106 0.0
H415 H 0.12816 0.39986 0.60862 0.0
H416 H 0.12059 0.30717 0.16828 0.0
H417 H 0.12803 0.32237 0.08074 0.0
H418 H 0.12068 0.33221 0.24562 0.0
H419 H 0.13594 0.39054 0.14683 0.0
C420 C 0.81881 0.85891 0.04146 0.0
C421 C 0.79342 0.8915 0.03007 0.0
C422 C 0.81552 0.88258 0.03952 0.0
C423 C 0.77478 0.87646 0.0235 0.0
C424 C 0.80027 0.84379 0.03314 0.0
C425 C 0.77822 0.85269 0.02482 0.0
N426 N 0.84019 0.85066 0.05081 0.0
C427 C 0.84468 0.82775 0.048 0.0
C428 C 0.80453 0.82014 0.03256 0.0
C429 C 0.8269 0.81212 0.03922 0.0
Gd430 Gd 0.88611 0.89744 0.20942 0.0
Gd431 Gd 0.86882 0.87794 0.06318 0.0
N432 N 0.83394 0.89679 0.04579 0.0
C433 C 0.79073 0.91527 0.0265 0.0
C434 C 0.83155 0.91986 0.03896 0.0
C435 C 0.80992 0.92948 0.03026 0.0
H436 H 0.84614 0.93097 0.03848 0.0
H437 H 0.80813 0.94784 0.0256 0.0
H438 H 0.91102 0.85255 0.26383 0.0
H439 H 0.86199 0.82147 0.05252 0.0
H440 H 0.94922 0.84146 0.29862 0.0
H441 H 0.77402 0.92279 0.01933 0.0
H442 H 0.75768 0.88305 0.01642 0.0
H443 H 0.88765 0.956 0.2054 0.0
H444 H 0.79076 0.80797 0.02596 0.0
H445 H 0.83047 0.79392 0.03751 0.0
H446 H 0.99573 0.90823 0.27 0.0
H447 H 0.76373 0.84134 0.0187 0.0
H448 H 0.9577 0.97669 0.214 0.0
H449 H 0.91679 0.9863 0.20114 0.0
N450 N 0.9119 0.92872 0.21067 0.0
C451 C 0.93403 0.92336 0.22255 0.0
C452 C 0.90549 0.95121 0.20686 0.0
C453 C 0.94502 0.96311 0.21343 0.0
C454 C 0.92196 0.96861 0.20605 0.0
C455 C 0.9512 0.94041 0.22405 0.0
H456 H 0.98711 0.94735 0.23986 0.0
N457 N 0.9221 0.88536 0.23846 0.0
C458 C 0.93912 0.90121 0.23859 0.0
C459 C 0.9648 0.87385 0.27914 0.0
C460 C 0.96115 0.89569 0.25776 0.0
C461 C 0.92519 0.86441 0.26127 0.0
C462 C 0.94667 0.85822 0.28135 0.0
O463 O 0.84298 0.87391 0.13139 0.0
O464 O 0.8507 0.90595 0.17956 0.0
O465 O 0.86792 0.88332 0.27691 0.0
O466 O 0.88833 0.91397 0.28602 0.0
O467 O 0.88296 0.91371 0.06978 0.0
O468 O 0.87303 0.92581 0.15329 0.0
O469 O 0.91244 0.87862 0.15999 0.0
O470 O 0.90519 0.89135 0.0766 0.0
O471 O 0.86625 0.88395 0.97754 0.0
O472 O 0.88542 0.85469 0.00957 0.0
O473 O 0.87624 0.85947 0.19958 0.0
O474 O 0.88377 0.84941 0.11233 0.0
C475 C 0.83636 0.88966 0.16571 0.0
C476 C 0.8797 0.93018 0.1044 0.0
C477 C 0.86118 0.90683 0.35227 0.0
C478 C 0.8546 0.91049 0.44688 0.0
C479 C 0.82968 0.92995 0.38417 0.0
C480 C 0.84253 0.92129 0.34231 0.0
C481 C 0.83576 0.92474 0.43621 0.0
C482 C 0.86708 0.90129 0.40458 0.0
C483 C 0.8759 0.89871 0.30953 0.0
C484 C 0.97857 0.91227 0.25642 0.0
C485 C 0.97365 0.93454 0.23914 0.0
H486 H 0.98144 0.86903 0.29473 0.0
C487 C 0.91976 0.88461 0.11321 0.0
C488 C 0.87996 0.84408 0.16194 0.0
C489 C 0.88469 0.85768 0.91432 0.0
C490 C 0.8881 0.86312 0.81896 0.0
C491 C 0.90237 0.82828 0.85997 0.0
C492 C 0.89542 0.83622 0.90913 0.0
C493 C 0.89884 0.84161 0.81527 0.0
C494 C 0.88074 0.87107 0.86877 0.0
C495 C 0.87859 0.86579 0.96778 0.0
H496 H 0.81524 0.94108 0.37638 0.0
H497 H 0.83831 0.92625 0.30243 0.0
H498 H 0.82577 0.93186 0.4682 0.0
H499 H 0.88184 0.89048 0.41242 0.0
H500 H 0.9106 0.81171 0.85652 0.0
H501 H 0.89857 0.82549 0.94321 0.0
H502 H 0.9043 0.83494 0.77743 0.0
H503 H 0.87252 0.88767 0.87209 0.0
C504 C 0.41325 0.56597 0.28654 0.0
C505 C 0.38281 0.53935 0.26276 0.0
C506 C 0.39003 0.56147 0.27843 0.0
C507 C 0.39904 0.52174 0.25737 0.0
C508 C 0.42957 0.54834 0.28085 0.0
C509 C 0.42232 0.5262 0.26663 0.0
N510 N 0.41981 0.58754 0.30071 0.0
C511 C 0.44241 0.59294 0.30658 0.0
C512 C 0.45274 0.55356 0.28924 0.0
C513 C 0.45919 0.57601 0.30166 0.0
Gd514 Gd 0.36973 0.63088 0.44907 0.0
Gd515 Gd 0.39035 0.61466 0.30548 0.0
N516 N 0.37453 0.57864 0.28603 0.0
C517 C 0.35945 0.53556 0.25345 0.0
C518 C 0.3521 0.57543 0.27293 0.0
C519 C 0.34407 0.55378 0.25783 0.0
H520 H 0.34061 0.58971 0.27119 0.0
H521 H 0.32614 0.55131 0.24825 0.0
H522 H 0.41993 0.65743 0.48025 0.0
H523 H 0.44756 0.61042 0.31296 0.0
H524 H 0.43318 0.69561 0.50645 0.0
H525 H 0.35321 0.5188 0.24154 0.0
H526 H 0.39376 0.50459 0.246 0.0
H527 H 0.31236 0.63393 0.44506 0.0
H528 H 0.46581 0.5405 0.2852 0.0
H529 H 0.47709 0.58036 0.30648 0.0
H530 H 0.36413 0.73899 0.52723 0.0
H531 H 0.43462 0.51242 0.26223 0.0
H532 H 0.29262 0.70167 0.4907 0.0
H533 H 0.28222 0.66255 0.46104 0.0
N534 N 0.33978 0.657 0.46185 0.0
C535 C 0.34588 0.67825 0.47913 0.0
C536 C 0.31725 0.65116 0.45597 0.0
C537 C 0.306 0.68928 0.48283 0.0
C538 C 0.30006 0.66725 0.46587 0.0
C539 C 0.32911 0.69499 0.48998 0.0
H540 H 0.32325 0.72994 0.51595 0.0
N541 N 0.38477 0.66684 0.47434 0.0
C542 C 0.369 0.68335 0.48537 0.0
C543 C 0.39922 0.70985 0.50937 0.0
C544 C 0.37584 0.70534 0.50283 0.0
C545 C 0.40751 0.67088 0.48347 0.0
C546 C 0.4151 0.6925 0.4999 0.0
O547 O 0.39485 0.58766 0.37121 0.0
O548 O 0.36371 0.59507 0.421 0.0
O549 O 0.38366 0.62539 0.52853 0.0
O550 O 0.34849 0.617 0.5105 0.0
O551 O 0.35319 0.62629 0.31202 0.0
O552 O 0.34232 0.61507 0.3953 0.0
O553 O 0.36479 0.65859 0.38748 0.0
O554 O 0.39327 0.6529 0.32608 0.0
O555 O 0.37623 0.6179 0.22641 0.0
O556 O 0.41288 0.61996 0.23907 0.0
O557 O 0.40812 0.62215 0.43662 0.0
O558 O 0.41579 0.63506 0.35293 0.0
C559 C 0.38032 0.58144 0.40793 0.0
C560 C 0.33722 0.62138 0.34665 0.0
C561 C 0.35626 0.62923 0.59719 0.0
C562 C 0.35635 0.6295 0.69323 0.0
C563 C 0.32911 0.65296 0.64501 0.0
C564 C 0.33801 0.64498 0.59761 0.0
C565 C 0.33808 0.64515 0.69263 0.0
C566 C 0.36567 0.62175 0.64537 0.0
C567 C 0.36398 0.61892 0.54722 0.0
C568 C 0.35918 0.72201 0.51382 0.0
C569 C 0.33589 0.71685 0.50748 0.0
H570 H 0.40516 0.72648 0.5229 0.0
C571 C 0.37914 0.66652 0.35219 0.0
C572 C 0.42275 0.6297 0.40067 0.0
C573 C 0.39776 0.63759 0.16298 0.0
C574 C 0.39515 0.6461 0.06916 0.0
C575 C 0.40593 0.67593 0.13225 0.0
C576 C 0.40396 0.66036 0.17365 0.0
C577 C 0.40165 0.66888 0.08031 0.0
C578 C 0.39327 0.63055 0.11102 0.0
C579 C 0.3962 0.62057 0.20486 0.0
H580 H 0.31498 0.66498 0.64481 0.0
H581 H 0.33011 0.6507 0.56151 0.0
H582 H 0.33087 0.65147 0.72919 0.0
H583 H 0.37963 0.60948 0.64569 0.0
H584 H 0.41089 0.69349 0.14037 0.0
H585 H 0.40739 0.666 0.21373 0.0
H586 H 0.40362 0.68123 0.04886 0.0
H587 H 0.38808 0.61297 0.10338 0.0
C588 C 0.6024 0.06886 0.71728 0.0
C589 C 0.63126 0.04053 0.74049 0.0
C590 C 0.62498 0.0633 0.72904 0.0
C591 C 0.61463 0.02317 0.73772 0.0
C592 C 0.58545 0.05161 0.71716 0.0
C593 C 0.59179 0.02868 0.72596 0.0
N594 N 0.59677 0.09129 0.70997 0.0
C595 C 0.57429 0.09772 0.71004 0.0
C596 C 0.56251 0.05805 0.71079 0.0
C597 C 0.55688 0.08127 0.70861 0.0
Gd598 Gd 0.64224 0.13291 0.56308 0.0
Gd599 Gd 0.62773 0.11734 0.71145 0.0
N600 N 0.64086 0.08036 0.72977 0.0
C601 C 0.65404 0.03601 0.75499 0.0
C602 C 0.66264 0.07639 0.74724 0.0
C603 C 0.66971 0.05409 0.75912 0.0
H604 H 0.6744 0.09053 0.75209 0.0
H605 H 0.68716 0.05089 0.77182 0.0
H606 H 0.59079 0.15791 0.53119 0.0
H607 H 0.56964 0.11546 0.71379 0.0
H608 H 0.57675 0.19575 0.50612 0.0
H609 H 0.65955 0.01873 0.76415 0.0
H610 H 0.61916 1.0055 0.74571 0.0
H611 H 0.69937 0.13597 0.55621 0.0
H612 H 0.54896 0.04534 0.71062 0.0
H613 H 0.53913 0.08655 0.70761 0.0
H614 H 0.64447 0.2395 0.47779 0.0
H615 H 0.57902 0.01519 0.72549 0.0
H616 H 0.71732 0.20365 0.50737 0.0
H617 H 0.7288 0.16468 0.5353 0.0
N618 N 0.67143 0.15883 0.54376 0.0
C619 C 0.66467 0.17984 0.52685 0.0
C620 C 0.69408 0.15309 0.54576 0.0
C621 C 0.70428 0.19118 0.51727 0.0
C622 C 0.71085 0.16924 0.5332 0.0
C623 C 0.68098 0.19665 0.51338 0.0
H624 H 0.68582 0.23138 0.48547 0.0
N625 N 0.62597 0.16783 0.53503 0.0
C626 C 0.64135 0.18456 0.52302 0.0
C627 C 0.61043 0.2105 0.50106 0.0
C628 C 0.63393 0.20629 0.50563 0.0
C629 C 0.60306 0.17147 0.52719 0.0
C630 C 0.59495 0.19293 0.51141 0.0
O631 O 0.64149 0.09005 0.65307 0.0
O632 O 0.62152 0.10209 0.58338 0.0
O633 O 0.63504 0.13196 0.47892 0.0
O634 O 0.66036 0.10894 0.51284 0.0
O635 O 0.66378 0.13004 0.69954 0.0
O636 O 0.67203 0.11842 0.61418 0.0
O637 O 0.65024 0.15983 0.62512 0.0
O638 O 0.62272 0.15523 0.68865 0.0
O639 O 0.64517 0.12687 0.78442 0.0
O640 O 0.60972 0.11658 0.78605 0.0
O641 O 0.60423 0.12674 0.58079 0.0
O642 O 0.59899 0.13624 0.6686 0.0
C643 C 0.63194 0.08539 0.60714 0.0
C644 C 0.67851 0.12412 0.66299 0.0
C645 C 0.66422 0.11878 0.42196 0.0
C646 C 0.66611 0.12006 0.32572 0.0
C647 C 0.70109 0.11901 0.37835 0.0
C648 C 0.68826 0.11853 0.42455 0.0
C649 C 0.69014 0.11959 0.32924 0.0
C650 C 0.65321 0.11987 0.37237 0.0
C651 C 0.65028 0.11617 0.46981 0.0
C652 C 0.6501 0.223 0.49217 0.0
C653 C 0.67356 0.21826 0.4961 0.0
H654 H 0.60409 0.22703 0.48814 0.0
C655 C 0.63617 0.16857 0.66006 0.0
C656 C 0.59091 0.13319 0.62027 0.0
C657 C 0.62285 0.14006 0.8556 0.0
C658 C 0.62218 0.14899 0.94947 0.0
C659 C 0.61199 0.17809 0.88505 0.0
C660 C 0.6158 0.16248 0.84405 0.0
C661 C 0.61531 0.17145 0.93754 0.0
C662 C 0.62583 0.13329 0.90832 0.0
C663 C 0.62729 0.12338 0.81359 0.0
H664 H 0.71961 0.11869 0.38057 0.0
H665 H 0.69716 0.11757 0.46209 0.0
H666 H 0.70046 0.1199 0.2939 0.0
H667 H 0.63465 0.11987 0.37002 0.0
H668 H 0.6066 0.19541 0.87614 0.0
H669 H 0.61334 0.16786 0.80353 0.0
H670 H 0.61255 0.18382 0.96886 0.0
H671 H 0.63138 0.11598 0.9173 0.0
C672 C 0.93262 0.41982 0.79592 0.0
C673 C 0.95848 0.39139 0.75913 0.0
C674 C 0.93703 0.39738 0.77984 0.0
C675 C 0.97586 0.40784 0.75751 0.0
C676 C 0.94996 0.43661 0.79228 0.0
C677 C 0.97176 0.43036 0.77424 0.0
N678 N 0.91096 0.42562 0.8104 0.0
C679 C 0.90515 0.44826 0.81586 0.0
C680 C 0.94456 0.45942 0.80398 0.0
C681 C 0.92194 0.46532 0.81484 0.0
Gd682 Gd 0.86828 0.37728 0.95695 0.0
Gd683 Gd 0.88466 0.39488 0.81028 0.0
N684 N 0.91997 0.3816 0.78217 0.0
C685 C 0.96167 0.36916 0.73927 0.0
C686 C 0.92251 0.36022 0.76085 0.0
C687 C 0.94353 0.35355 0.73977 0.0
H688 H 0.90826 0.34839 0.76008 0.0
H689 H 0.94568 0.33649 0.72359 0.0
H690 H 0.85042 0.42982 0.99778 0.0
H691 H 0.88753 0.45355 0.81945 0.0
H692 H 0.81406 0.44893 0.01809 0.0
H693 H 0.97796 0.36402 0.72276 0.0
H694 H 0.9924 0.40321 0.7426 0.0
H695 H 0.85675 0.32136 0.94814 0.0
H696 H 0.95744 0.47277 0.80183 0.0
H697 H 0.91728 0.48311 0.82074 0.0
H698 H 0.7588 0.38805 0.01375 0.0
H699 H 0.98534 0.44297 0.77142 0.0
H700 H 0.78526 0.31196 0.97608 0.0
H701 H 0.82331 0.29577 0.9549 0.0
N702 N 0.83762 0.35176 0.96147 0.0
C703 C 0.81721 0.36095 0.97585 0.0
C704 C 0.84015 0.32866 0.95547 0.0
C705 C 0.79987 0.32329 0.97244 0.0
C706 C 0.82128 0.31409 0.96019 0.0
C707 C 0.79766 0.34695 0.98087 0.0
H708 H 0.76136 0.34649 0.998 0.0
N709 N 0.83513 0.39759 0.98034 0.0
C710 C 0.81585 0.38453 0.98475 0.0
C711 C 0.79405 0.41807 0.00933 0.0
C712 C 0.79476 0.3945 0.99896 0.0
C713 C 0.83482 0.42017 0.99448 0.0
C714 C 0.81424 0.43089 0.00782 0.0
O715 O 0.91151 0.37744 0.86069 0.0
O716 O 0.90481 0.39062 0.94409 0.0
O717 O 0.86745 0.38308 0.04275 0.0
O718 O 0.88277 0.35198 0.00939 0.0
O719 O 0.87457 0.35681 0.82268 0.0
O720 O 0.88478 0.34934 0.90951 0.0
O721 O 0.84152 0.3735 0.88897 0.0
O722 O 0.84955 0.40428 0.83754 0.0
O723 O 0.86752 0.3812 0.73946 0.0
O724 O 0.888 0.41194 0.73544 0.0
O725 O 0.88287 0.4127 0.94843 0.0
O726 O 0.87081 0.42345 0.86542 0.0
C727 C 0.91915 0.38411 0.90697 0.0
C728 C 0.88019 0.34233 0.86116 0.0
C729 C 0.88341 0.3549 0.10492 0.0
C730 C 0.88741 0.35974 0.20067 0.0
C731 C 0.89787 0.32366 0.15878 0.0
C732 C 0.89184 0.33244 0.10967 0.0
C733 C 0.89572 0.33714 0.20387 0.0
C734 C 0.88098 0.36854 0.15081 0.0
C735 C 0.87772 0.36364 0.05169 0.0
C736 C 0.77515 0.38064 1.00314 0.0
C737 C 0.77661 0.35695 0.99424 0.0
H738 H 0.77816 0.42639 0.02019 0.0
C739 C 0.83515 0.38853 0.85272 0.0
C740 C 0.87766 0.42865 0.9141 0.0
C741 C 0.86176 0.40666 0.66623 0.0
C742 C 0.85669 0.41175 0.57127 0.0
C743 C 0.83591 0.43587 0.63302 0.0
C744 C 0.84642 0.42471 0.67543 0.0
C745 C 0.84116 0.42961 0.58122 0.0
C746 C 0.86665 0.40004 0.61408 0.0
C747 C 0.87578 0.39719 0.70924 0.0
H748 H 0.90424 0.30629 0.16193 0.0
H749 H 0.89379 0.32153 0.0753 0.0
H750 H 0.90029 0.32971 0.24162 0.0
H751 H 0.87457 0.38593 0.14771 0.0
H752 H 0.82405 0.44976 0.6403 0.0
H753 H 0.84302 0.43052 0.71526 0.0
H754 H 0.83319 0.43878 0.54885 0.0
H755 H 0.87914 0.38665 0.60678 0.0
C756 C 0.42797 0.0945 0.73277 0.0
C757 C 0.45491 0.12471 0.75566 0.0
C758 C 0.43295 0.11767 0.73836 0.0
C759 C 0.47173 0.10818 0.7667 0.0
C760 C 0.44485 0.07786 0.7438 0.0
C761 C 0.46672 0.08483 0.76079 0.0
N762 N 0.40675 0.08823 0.71569 0.0
C763 C 0.40108 0.06563 0.7101 0.0
C764 C 0.43927 0.05467 0.73723 0.0
C765 C 0.41726 0.04854 0.7205 0.0
Gd766 Gd 0.3641 0.13973 0.55686 0.0
Gd767 Gd 0.3807 0.11801 0.69958 0.0
N768 N 0.41633 0.1333 0.72702 0.0
C769 C 0.45924 0.14814 0.76202 0.0
C770 C 0.42016 0.15608 0.7364 0.0
C771 C 0.44172 0.16387 0.75277 0.0
H772 H 0.40661 0.16841 0.73346 0.0
H773 H 0.44464 0.18199 0.7594 0.0
H774 H 0.33774 0.0899 0.5289 0.0
H775 H 0.38392 0.06059 0.699 0.0
H776 H 0.29844 0.0753 0.51668 0.0
H777 H 0.47582 0.15424 0.77546 0.0
H778 H 0.48869 0.11328 0.77993 0.0
H779 H 0.36043 0.19699 0.56162 0.0
H780 H 0.45177 0.04138 0.74529 0.0
H781 H 0.41268 0.03065 0.71603 0.0
H782 H 0.25202 0.14319 0.52204 0.0
H783 H 0.47992 0.07229 0.76928 0.0
H784 H 0.28984 0.21556 0.54572 0.0
H785 H 0.33037 0.22673 0.55826 0.0
N786 N 0.33705 0.16935 0.55394 0.0
C787 C 0.315 0.16283 0.54436 0.0
C788 C 0.34275 0.19195 0.55795 0.0
C789 C 0.30295 0.20243 0.5476 0.0
C790 C 0.3258 0.20882 0.55518 0.0
C791 C 0.2973 0.17921 0.54178 0.0
H792 H 0.26074 0.18426 0.5321 0.0
N793 N 0.32746 0.12403 0.54356 0.0
C794 C 0.31006 0.13952 0.53928 0.0
C795 C 0.28307 0.10875 0.52401 0.0
C796 C 0.28731 0.13222 0.53064 0.0
C797 C 0.32363 0.10145 0.53301 0.0
C798 C 0.30138 0.09334 0.52427 0.0
O799 O 0.40877 0.11376 0.63932 0.0
O800 O 0.40264 0.14195 0.57677 0.0
O801 O 0.36476 0.12626 0.47694 0.0
O802 O 0.36957 0.16253 0.49066 0.0
O803 O 0.37238 0.15664 0.68743 0.0
O804 O 0.38513 0.16462 0.60378 0.0
O805 O 0.33842 0.14443 0.62524 0.0
O806 O 0.34566 0.11152 0.66715 0.0
O807 O 0.37539 0.13111 0.77992 0.0
O808 O 0.36394 0.09727 0.75796 0.0
O809 O 0.3764 0.10265 0.56023 0.0
O810 O 0.36733 0.0899 0.64383 0.0
C811 C 0.41646 0.12821 0.60391 0.0
C812 C 0.38006 0.17137 0.6517 0.0
C813 C 0.3858 0.1466 0.41392 0.0
C814 C 0.39471 0.14287 0.32051 0.0
C815 C 0.42506 0.15022 0.38483 0.0
C816 C 0.40906 0.15013 0.4255 0.0
C817 C 0.41798 0.14657 0.33268 0.0
C818 C 0.37865 0.14307 0.36151 0.0
C819 C 0.36869 0.14615 0.45578 0.0
C820 C 0.26962 0.14851 0.52836 0.0
C821 C 0.27459 0.17192 0.53395 0.0
H822 H 0.26584 0.10244 0.51709 0.0
C823 C 0.33188 0.12854 0.6585 0.0
C824 C 0.373 0.08594 0.5942 0.0
C825 C 0.37503 0.10227 0.84678 0.0
C826 C 0.37537 0.10284 0.94305 0.0
C827 C 0.39073 0.07007 0.89592 0.0
C828 C 0.38553 0.08055 0.84807 0.0
C829 C 0.38551 0.08102 0.94317 0.0
C830 C 0.37033 0.1136 0.8947 0.0
C831 C 0.36673 0.11185 0.79624 0.0
H832 H 0.443 0.15304 0.39376 0.0
H833 H 0.41481 0.15278 0.46582 0.0
H834 H 0.43069 0.14672 0.30176 0.0
H835 H 0.36068 0.13999 0.35283 0.0
H836 H 0.39855 0.05324 0.89637 0.0
H837 H 0.38915 0.07126 0.81221 0.0
H838 H 0.38958 0.07254 0.98004 0.0
H839 H 0.36214 0.13029 0.89444 0.0
C840 C 0.58693 0.5909 0.28267 0.0
C841 C 0.55923 0.62031 0.25975 0.0
C842 C 0.58133 0.61391 0.27721 0.0
C843 C 0.54295 0.6033 0.24787 0.0
C844 C 0.57063 0.57377 0.27057 0.0
C845 C 0.54864 0.5801 0.25315 0.0
N846 N 0.60828 0.58526 0.3 0.0
C847 C 0.61469 0.56281 0.30425 0.0
C848 C 0.57692 0.55075 0.27622 0.0
C849 C 0.59908 0.54526 0.29289 0.0
Gd850 Gd 0.65034 0.63769 0.4584 0.0
Gd851 Gd 0.6335 0.61584 0.3167 0.0
N852 N 0.59741 0.63002 0.28954 0.0
C853 C 0.55417 0.64362 0.25441 0.0
C854 C 0.59282 0.65274 0.28171 0.0
C855 C 0.57109 0.65988 0.26508 0.0
H856 H 0.60582 0.66557 0.28655 0.0
H857 H 0.56755 0.67794 0.25962 0.0
H858 H 0.67454 0.58498 0.47887 0.0
H859 H 0.63203 0.55828 0.31487 0.0
H860 H 0.7129 0.56867 0.48774 0.0
H861 H 0.53741 0.64922 0.24107 0.0
H862 H 0.52588 0.60791 0.23457 0.0
H863 H 0.65763 0.69437 0.45487 0.0
H864 H 0.56489 0.5371 0.26727 0.0
H865 H 0.60425 0.5275 0.2964 0.0
H866 H 0.76266 0.63401 0.489 0.0
H867 H 0.53588 0.56717 0.24385 0.0
H868 H 0.72918 0.7086 0.47108 0.0
H869 H 0.68938 0.72231 0.45891 0.0
N870 N 0.67925 0.66538 0.46111 0.0
C871 C 0.70086 0.65742 0.46981 0.0
C872 C 0.67495 0.6883 0.4581 0.0
C873 C 0.71529 0.6963 0.46863 0.0
C874 C 0.69288 0.70412 0.46142 0.0
C875 C 0.71952 0.67272 0.47301 0.0
H876 H 0.75631 0.67557 0.4826 0.0
N877 N 0.68606 0.61926 0.4686 0.0
C878 C 0.70438 0.63376 0.47318 0.0
C879 C 0.72983 0.60142 0.48419 0.0
C880 C 0.72676 0.62514 0.48028 0.0
C881 C 0.68891 0.59627 0.47598 0.0
C882 C 0.71079 0.58697 0.48269 0.0
O883 O 0.60438 0.61355 0.37467 0.0
O884 O 0.61146 0.63994 0.44157 0.0
O885 O 0.65065 0.62521 0.53909 0.0
O886 O 0.64581 0.66129 0.52373 0.0
O887 O 0.64114 0.65484 0.32819 0.0
O888 O 0.62979 0.66328 0.41293 0.0
O889 O 0.67503 0.64317 0.38844 0.0
O890 O 0.66896 0.60954 0.34772 0.0
O891 O 0.64034 0.63039 0.23879 0.0
O892 O 0.64806 0.59496 0.2548 0.0
O893 O 0.63582 0.60162 0.45555 0.0
O894 O 0.64594 0.58787 0.37379 0.0
C895 C 0.59728 0.62696 0.41306 0.0
C896 C 0.63443 0.66985 0.36475 0.0
C897 C 0.62991 0.6465 0.6016 0.0
C898 C 0.62126 0.64382 0.69538 0.0
C899 C 0.59131 0.65363 0.63186 0.0
C900 C 0.60697 0.65196 0.59074 0.0
C901 C 0.59837 0.64969 0.68382 0.0
C902 C 0.63699 0.64235 0.65375 0.0
C903 C 0.64685 0.64536 0.55937 0.0
C904 C 0.74537 0.64038 0.48358 0.0
C905 C 0.74176 0.66407 0.48003 0.0
H906 H 0.74675 0.59414 0.48965 0.0
C907 C 0.68227 0.62701 0.35638 0.0
C908 C 0.63887 0.58439 0.42265 0.0
C909 C 0.63666 0.60367 0.16779 0.0
C910 C 0.63625 0.60529 0.07164 0.0
C911 C 0.61293 0.57722 0.11681 0.0
C912 C 0.62097 0.58536 0.16519 0.0
C913 C 0.62063 0.58699 0.07025 0.0
C914 C 0.64405 0.61388 0.12058 0.0
C915 C 0.6467 0.61078 0.21901 0.0
H916 H 0.57366 0.65807 0.62349 0.0
H917 H 0.60125 0.6551 0.55065 0.0
H918 H 0.5859 0.65141 0.71503 0.0
H919 H 0.65467 0.63772 0.6617 0.0
H920 H 0.60094 0.56306 0.11542 0.0
H921 H 0.61529 0.57683 0.20029 0.0
H922 H 0.6143 0.58032 0.03291 0.0
H923 H 0.65627 0.62789 0.12181 0.0
C924 C 0.1714 0.8321 0.02406 0.0
C925 C 0.14258 0.80649 0.98723 0.0
C926 C 0.14862 0.82735 0.01187 0.0
C927 C 0.15945 0.78986 0.97844 0.0
C928 C 0.18851 0.81567 0.01333 0.0
C929 C 0.18228 0.79418 0.9926 0.0
N930 N 0.17709 0.85374 0.03954 0.0
C931 C 0.19939 0.86076 0.03771 0.0
C932 C 0.21152 0.82204 0.01915 0.0
C933 C 0.21698 0.84488 0.03002 0.0
Gd934 Gd 0.12659 0.89263 0.20102 0.0
Gd935 Gd 0.1461 0.87877 0.05346 0.0
N936 N 0.13274 0.84407 0.01905 0.0
C937 C 0.12001 0.80351 0.96925 0.0
C938 C 0.11116 0.84193 0.99839 0.0
C939 C 0.10429 0.82142 0.97432 0.0
H940 H 0.09933 0.85611 1.00042 0.0
H941 H 0.08702 0.81957 0.95906 0.0
H942 H 0.17593 0.92404 0.21076 0.0
H943 H 0.20358 0.87875 0.04088 0.0
H944 H 0.18688 0.96388 0.22788 0.0
H945 H 0.11475 0.78772 0.95 0.0
H946 H 0.15518 0.7742 0.95778 0.0
H947 H 0.06978 0.89046 0.21643 0.0
H948 H 0.22516 0.80991 0.01144 0.0
H949 H 0.23469 0.85043 0.03064 0.0
H950 H 0.1157 1.00245 0.25817 0.0
H951 H 0.19519 0.78139 0.98388 0.0
H952 H 0.04659 0.95815 0.25367 0.0
H953 H 0.03839 0.91702 0.23847 0.0
N954 N 0.09547 0.91632 0.21907 0.0
C955 C 0.10063 0.93857 0.23005 0.0
C956 C 0.07358 0.90839 0.22293 0.0
C957 C 0.06049 0.94654 0.24436 0.0
C958 C 0.05576 0.92336 0.23564 0.0
C959 C 0.08314 0.95441 0.24196 0.0
H960 H 0.07553 0.98987 0.2606 0.0
N961 N 0.14015 0.9299 0.2188 0.0
C962 C 0.1235 0.94558 0.2298 0.0
C963 C 0.15218 0.97531 0.23887 0.0
C964 C 0.12913 0.96873 0.23986 0.0
C965 C 0.16267 0.93622 0.21869 0.0
C966 C 0.169 0.95896 0.22845 0.0
O967 O 0.12775 0.85101 0.09877 0.0
O968 O 0.14113 0.85714 0.18205 0.0
O969 O 0.13514 0.89509 0.28489 0.0
O970 O 0.10843 0.87188 0.25751 0.0
O971 O 0.10825 0.88876 0.06494 0.0
O972 O 0.09843 0.87782 0.14988 0.0
O973 O 0.12335 0.92015 0.13598 0.0
O974 O 0.15559 0.91262 0.08975 0.0
O975 O 0.13235 0.90155 0.99254 0.0
O976 O 0.15977 0.87805 0.97427 0.0
O977 O 0.16388 0.88422 0.19711 0.0
O978 O 0.17689 0.88616 0.1106 0.0
C979 C 0.13365 0.84304 0.14515 0.0
C980 C 0.09287 0.88374 0.10138 0.0
C981 C 0.10673 0.884 0.34734 0.0
C982 C 0.10658 0.88534 0.44374 0.0
C983 C 0.07069 0.88454 0.39475 0.0
C984 C 0.08264 0.88371 0.34738 0.0
C985 C 0.08254 0.88514 0.44266 0.0
C986 C 0.11866 0.88514 0.39587 0.0
C987 C 0.11959 0.88017 0.29813 0.0
C988 C 0.11166 0.9846 0.25049 0.0
C989 C 0.08877 0.97745 0.25174 0.0
H990 H 0.15717 0.99294 0.24631 0.0
C991 C 0.13926 0.92691 0.10262 0.0
C992 C 0.18055 0.88472 0.16258 0.0
C993 C 0.15301 0.90728 0.91237 0.0
C994 C 0.15561 0.91272 0.81739 0.0
C995 C 0.17562 0.9385 0.8775 0.0
C996 C 0.16744 0.92615 0.92062 0.0
C997 C 0.16986 0.93176 0.82605 0.0
C998 C 0.14703 0.90066 0.86071 0.0
C999 C 0.14531 0.89289 0.95595 0.0
H1000 H 0.05215 0.88422 0.39434 0.0
H1001 H 0.07296 0.88212 0.3111 0.0
H1002 H 0.07292 0.88545 0.47905 0.0
H1003 H 0.13724 0.88488 0.39649 0.0
H1004 H 0.18673 0.95313 0.88393 0.0
H1005 H 0.17269 0.93098 0.96006 0.0
H1006 H 0.17651 0.94135 0.793 0.0
H1007 H 0.13616 0.8858 0.85416 0.0
C1008 C 0.93388 0.59687 0.2286 0.0
C1009 C 0.95688 0.62687 0.26927 0.0
C1010 C 0.93623 0.6195 0.24541 0.0
C1011 C 0.97529 0.6115 0.27424 0.0
C1012 C 0.95219 0.58129 0.23449 0.0
C1013 C 0.97301 0.58883 0.25657 0.0
N1014 N 0.91359 0.59003 0.207 0.0
C1015 C 0.90982 0.56746 0.1952 0.0
C1016 C 0.94891 0.55846 0.21894 0.0
C1017 C 0.92751 0.55146 0.19996 0.0
Gd1018 Gd 0.86635 0.63633 0.05462 0.0
Gd1019 Gd 0.88519 0.61831 0.20044 0.0
N1020 N 0.91833 0.63422 0.23891 0.0
C1021 C 0.95846 0.64951 0.28741 0.0
C1022 C 0.91966 0.6562 0.25755 0.0
C1023 C 0.93977 0.66421 0.28156 0.0
H1024 H 0.90512 0.66753 0.25558 0.0
H1025 H 0.94076 0.68167 0.29604 0.0
H1026 H 0.84054 0.58692 0.02461 0.0
H1027 H 0.89313 0.56147 0.18326 0.0
H1028 H 0.80153 0.57307 1.00311 0.0
H1029 H 0.97402 0.6558 0.30602 0.0
H1030 H 0.99137 0.61697 0.29183 0.0
H1031 H 0.86258 0.69437 0.05784 0.0
H1032 H 0.96255 0.54597 0.22286 0.0
H1033 H 0.92451 0.53366 0.18971 0.0
H1034 H 0.75491 0.64077 0.01285 0.0
H1035 H 0.98733 0.57715 0.26095 0.0
H1036 H 0.79192 0.7124 0.04975 0.0
H1037 H 0.83252 0.72373 0.06009 0.0
N1038 N 0.83942 0.66628 0.05562 0.0
C1039 C 0.81736 0.65977 0.04585 0.0
C1040 C 0.845 0.68899 0.058 0.0
C1041 C 0.80508 0.69931 0.0511 0.0
C1042 C 0.82795 0.70577 0.05734 0.0
C1043 C 0.79958 0.67614 0.04373 0.0
H1044 H 0.7632 0.68138 0.03121 0.0
N1045 N 0.82989 0.62118 0.0387 0.0
C1046 C 0.81258 0.63676 0.03545 0.0
C1047 C 0.78611 0.60646 0.01165 0.0
C1048 C 0.7901 0.6297 0.02267 0.0
C1049 C 0.82636 0.59874 0.0255 0.0
C1050 C 0.80436 0.59096 0.01266 0.0
O1051 O 0.91386 0.61737 0.14058 0.0
O1052 O 0.90464 0.64228 0.07203 0.0
O1053 O 0.87236 0.61893 0.97987 0.0
O1054 O 0.86602 0.65534 0.98109 0.0
O1055 O 0.87881 0.65687 0.18786 0.0
O1056 O 0.88454 0.6648 0.0991 0.0
O1057 O 0.83987 0.62316 0.11567 0.0
O1058 O 0.85409 0.64004 0.18858 0.0
O1059 O 0.88501 0.62138 0.28632 0.0
O1060 O 0.86359 0.59561 0.24653 0.0
O1061 O 0.88382 0.60268 0.06518 0.0
O1062 O 0.87004 0.59048 0.14429 0.0
C1063 C 0.91974 0.63116 0.10192 0.0
C1064 C 0.88361 0.67127 0.14898 0.0
C1065 C 0.88755 0.64079 0.91011 0.0
C1066 C 0.89676 0.64131 0.81631 0.0
C1067 C 0.92568 0.65145 0.88182 0.0
C1068 C 0.91 0.64769 0.92227 0.0
C1069 C 0.91909 0.64842 0.82909 0.0
C1070 C 0.88102 0.6374 0.85705 0.0
C1071 C 0.8706 0.63754 0.95201 0.0
C1072 C 0.77234 0.64592 0.02195 0.0
C1073 C 0.77705 0.66904 0.03266 0.0
H1074 H 0.76906 0.60037 1.00185 0.0
C1075 C 0.83652 0.63163 0.16336 0.0
C1076 C 0.87674 0.58609 0.09531 0.0
C1077 C 0.86172 0.59711 0.34298 0.0
C1078 C 0.85887 0.60097 0.43927 0.0
C1079 C 0.83892 0.57012 0.39291 0.0
C1080 C 0.84729 0.57789 0.34492 0.0
C1081 C 0.84464 0.58148 0.43961 0.0
C1082 C 0.86764 0.60861 0.39052 0.0
C1083 C 0.87027 0.60484 0.29113 0.0
H1084 H 0.94299 0.6568 0.89135 0.0
H1085 H 0.91531 0.65029 0.9629 0.0
H1086 H 0.93147 0.65142 0.79822 0.0
H1087 H 0.86369 0.63199 0.84746 0.0
H1088 H 0.82795 0.55517 0.39393 0.0
H1089 H 0.84251 0.56872 0.30925 0.0
H1090 H 0.83805 0.5748 0.47633 0.0
H1091 H 0.87865 0.62358 0.38957 0.0
C1092 C 0.08063 0.0937 0.78835 0.0
C1093 C 0.0534 0.12261 0.75949 0.0
C1094 C 0.0752 0.11658 0.77933 0.0
C1095 C 0.03636 0.10572 0.75444 0.0
C1096 C 0.06405 0.0765 0.77908 0.0
C1097 C 0.04161 0.08273 0.76477 0.0
N1098 N 0.10281 0.08811 0.79909 0.0
C1099 C 0.11004 0.06598 0.79325 0.0
C1100 C 0.07093 0.05352 0.78033 0.0
C1101 C 0.09416 0.04828 0.78582 0.0
Gd1102 Gd 0.14815 0.13762 0.95779 0.0
Gd1103 Gd 0.12764 0.11935 0.81308 0.0
N1104 N 0.09194 0.13264 0.78478 0.0
C1105 C 0.04975 0.1452 0.74284 0.0
C1106 C 0.08887 0.15441 0.76635 0.0
C1107 C 0.06763 0.16111 0.74578 0.0
H1108 H 0.10282 0.16657 0.76745 0.0
H1109 H 0.0651 0.17847 0.73196 0.0
H1110 H 0.1749 0.085 0.95563 0.0
H1111 H 0.12812 0.06194 0.79463 0.0
H1112 H 0.21327 0.06977 0.96981 0.0
H1113 H 0.03334 0.15042 0.72666 0.0
H1114 H 0.01934 0.11012 0.74046 0.0
H1115 H 0.15404 0.19454 0.96233 0.0
H1116 H 0.05872 0.03981 0.77348 0.0
H1117 H 0.09989 0.03066 0.78338 0.0
H1118 H 0.25987 0.1362 0.99917 0.0
H1119 H 0.02856 0.06977 0.7584 0.0
H1120 H 0.22466 0.2101 0.98784 0.0
H1121 H 0.18478 0.22307 0.97322 0.0
N1122 N 0.17628 0.16593 0.96485 0.0
C1123 C 0.19786 0.15832 0.9751 0.0
C1124 C 0.17141 0.18877 0.96553 0.0
C1125 C 0.21121 0.19754 0.98176 0.0
C1126 C 0.18878 0.20494 0.97312 0.0
C1127 C 0.21598 0.17401 0.98329 0.0
H1128 H 0.25233 0.17763 0.99889 0.0
N1129 N 0.18438 0.11993 0.96598 0.0
C1130 C 0.20203 0.13475 0.97577 0.0
C1131 C 0.22851 0.10298 0.98208 0.0
C1132 C 0.22455 0.1266 0.98394 0.0
C1133 C 0.18834 0.09688 0.96374 0.0
C1134 C 0.21035 0.08809 0.9717 0.0
O1135 O 0.10175 0.13699 0.86487 0.0
O1136 O 0.1105 0.12589 0.94927 0.0
O1137 O 0.15437 0.12923 0.04017 0.0
O1138 O 0.13683 0.16063 0.01979 0.0
O1139 O 0.13684 0.15754 0.82633 0.0
O1140 O 0.12962 0.16556 0.91424 0.0
O1141 O 0.17229 0.14143 0.88678 0.0
O1142 O 0.16305 0.10948 0.83982 0.0
O1143 O 0.14997 0.13212 0.75027 0.0
O1144 O 0.12273 0.1084 0.7324 0.0
O1145 O 0.13582 0.10122 0.95562 0.0
O1146 O 0.13468 0.08815 0.86855 0.0
C1147 C 0.09524 0.13101 0.91227 0.0
C1148 C 0.13258 0.17225 0.86524 0.0
C1149 C 0.1275 0.14334 0.10091 0.0
C1150 C 0.12032 0.13788 0.19475 0.0
C1151 C 0.08888 0.13602 0.13134 0.0
C1152 C 0.10408 0.14018 0.09023 0.0
C1153 C 0.09693 0.13476 0.18327 0.0
C1154 C 0.13556 0.14236 0.15332 0.0
C1155 C 0.14372 0.14727 0.05779 0.0
C1156 C 0.24251 0.14222 0.99273 0.0
C1157 C 0.23823 0.16582 0.99247 0.0
H1158 H 0.24557 0.09608 0.98805 0.0
C1159 C 0.17786 0.12567 0.85159 0.0
C1160 C 0.1342 0.08456 0.9206 0.0
C1161 C 0.15197 0.1102 0.67032 0.0
C1162 C 0.15964 0.10872 0.57556 0.0
C1163 C 0.1722 0.07774 0.63336 0.0
C1164 C 0.1625 0.08881 0.67666 0.0
C1165 C 0.17072 0.08751 0.5832 0.0
C1166 C 0.15061 0.12012 0.61991 0.0
C1167 C 0.13911 0.12075 0.71353 0.0
H1168 H 0.07083 0.13363 0.1229 0.0
H1169 H 0.09756 0.14091 0.05017 0.0
H1170 H 0.08488 0.13137 0.21461 0.0
H1171 H 0.15368 0.14457 0.16168 0.0
H1172 H 0.18038 0.06124 0.63843 0.0
H1173 H 0.16283 0.0805 0.71482 0.0
H1174 H 0.17753 0.07795 0.55015 0.0
H1175 H 0.14187 0.1364 0.61516 0.0
C1176 C 0.67522 0.33354 0.54238 0.0
C1177 C 0.64926 0.30491 0.50622 0.0
C1178 C 0.65335 0.32703 0.52669 0.0
C1179 C 0.66709 0.28881 0.50604 0.0
C1180 C 0.69343 0.31768 0.53954 0.0
C1181 C 0.68903 0.29503 0.52347 0.0
N1182 N 0.67915 0.35597 0.5542 0.0
C1183 C 0.70118 0.36402 0.55632 0.0
C1184 C 0.71575 0.32544 0.54904 0.0
C1185 C 0.71969 0.34884 0.55611 0.0
Gd1186 Gd 0.62956 0.39299 0.70765 0.0
Gd1187 Gd 0.64614 0.37944 0.55786 0.0
N1188 N 0.63653 0.34302 0.52684 0.0
C1189 C 0.62771 0.30004 0.4841 0.0
C1190 C 0.61596 0.33894 0.50264 0.0
C1191 C 0.61107 0.31726 0.48162 0.0
H1192 H 0.6034 0.35249 0.49987 0.0
H1193 H 0.59458 0.31388 0.46339 0.0
H1194 H 0.68121 0.41593 0.73903 0.0
H1195 H 0.70473 0.38219 0.55797 0.0
H1196 H 0.69786 0.45445 0.7521 0.0
H1197 H 0.62396 0.28328 0.4676 0.0
H1198 H 0.6644 0.27179 0.49046 0.0
H1199 H 0.57388 0.39674 0.73437 0.0
H1200 H 0.73018 0.31377 0.54746 0.0
H1201 H 0.73702 0.35527 0.56004 0.0
H1202 H 0.63216 0.50335 0.76513 0.0
H1203 H 0.70276 0.28257 0.52135 0.0
H1204 H 0.55854 0.46695 0.76929 0.0
H1205 H 0.54597 0.42658 0.75974 0.0
N1206 N 0.60185 0.41993 0.73072 0.0
C1207 C 0.60945 0.44164 0.73916 0.0
C1208 C 0.57957 0.41424 0.7394 0.0
C1209 C 0.57089 0.45388 0.75877 0.0
C1210 C 0.56372 0.43112 0.75345 0.0
C1211 C 0.59406 0.45936 0.75223 0.0
H1212 H 0.59077 0.49563 0.76945 0.0
N1213 N 0.64738 0.428 0.72885 0.0
C1214 C 0.63287 0.44589 0.73744 0.0
C1215 C 0.66509 0.47134 0.7505 0.0
C1216 C 0.64135 0.46811 0.74785 0.0
C1217 C 0.67028 0.43063 0.73714 0.0
C1218 C 0.67959 0.45239 0.74654 0.0
O1219 O 0.62727 0.35233 0.60489 0.0
O1220 O 0.64297 0.35741 0.68621 0.0
O1221 O 0.63805 0.39358 0.79159 0.0
O1222 O 0.61056 0.37183 0.7619 0.0
O1223 O 0.60803 0.38761 0.57021 0.0
O1224 O 0.59885 0.38166 0.65893 0.0
O1225 O 0.62422 0.42052 0.64262 0.0
O1226 O 0.65516 0.41422 0.59033 0.0
O1227 O 0.63074 0.39956 0.49454 0.0
O1228 O 0.6601 0.37813 0.47896 0.0
O1229 O 0.66581 0.38054 0.69605 0.0
O1230 O 0.67454 0.39358 0.61302 0.0
C1231 C 0.63419 0.34377 0.65 0.0
C1232 C 0.59308 0.38511 0.609 0.0
C1233 C 0.6092 0.38255 0.85291 0.0
C1234 C 0.60945 0.38443 0.94937 0.0
C1235 C 0.57339 0.38201 0.90117 0.0
C1236 C 0.58515 0.38133 0.85356 0.0
C1237 C 0.58541 0.38338 0.94877 0.0
C1238 C 0.6213 0.38439 0.90116 0.0
C1239 C 0.62194 0.37902 0.80335 0.0
C1240 C 0.62595 0.48612 0.75756 0.0
C1241 C 0.60237 0.48173 0.76005 0.0
H1242 H 0.67231 0.48813 0.75843 0.0
C1243 C 0.6392 0.42797 0.60766 0.0
C1244 C 0.68086 0.38578 0.65992 0.0
C1245 C 0.65245 0.40725 0.41752 0.0
C1246 C 0.65631 0.41445 0.32348 0.0
C1247 C 0.67264 0.44099 0.38758 0.0
C1248 C 0.66459 0.42742 0.42888 0.0
C1249 C 0.66848 0.43461 0.33508 0.0
C1250 C 0.64832 0.40082 0.36485 0.0
C1251 C 0.64481 0.3918 0.45915 0.0
H1252 H 0.55488 0.381 0.90123 0.0
H1253 H 0.57536 0.37918 0.81753 0.0
H1254 H 0.5759 0.38361 0.98532 0.0
H1255 H 0.63988 0.38479 0.90133 0.0
H1256 H 0.68228 0.45642 0.39622 0.0
H1257 H 0.66801 0.43247 0.46937 0.0
H1258 H 0.67473 0.44537 0.30354 0.0
H1259 H 0.63902 0.38513 0.35601 0.0
C1260 C 0.42836 0.92064 0.26934 0.0
C1261 C 0.45735 0.8926 0.24561 0.0
C1262 C 0.43578 0.89792 0.26706 0.0
C1263 C 0.47126 0.91027 0.22643 0.0
C1264 C 0.44252 0.93843 0.25079 0.0
C1265 C 0.4641 0.93313 0.22993 0.0
N1266 N 0.40678 0.92519 0.28651 0.0
C1267 C 0.39795 0.94681 0.28349 0.0
C1268 C 0.43414 0.96092 0.25144 0.0
C1269 C 0.41168 0.9651 0.2674 0.0
Gd1270 Gd 0.36771 0.87416 0.45621 0.0
Gd1271 Gd 0.38536 0.89321 0.31175 0.0
N1272 N 0.42174 0.88101 0.28485 0.0
C1273 C 0.46413 0.8696 0.2429 0.0
C1274 C 0.42772 0.85847 0.27935 0.0
C1275 C 0.44918 0.85247 0.25959 0.0
H1276 H 0.41604 0.84501 0.28981 0.0
H1277 H 0.45401 0.8346 0.25634 0.0
H1278 H 0.3406 0.92545 0.46758 0.0
H1279 H 0.38011 0.94984 0.29209 0.0
H1280 H 0.30109 0.93957 0.47394 0.0
H1281 H 0.48067 0.86487 0.22704 0.0
H1282 H 0.48737 0.90635 0.20775 0.0
H1283 H 0.36417 0.81681 0.45631 0.0
H1284 H 0.44457 0.97506 0.23782 0.0
H1285 H 0.40473 0.98229 0.26601 0.0
H1286 H 0.25532 0.87128 0.47527 0.0
H1287 H 0.4751 0.94653 0.21488 0.0
H1288 H 0.29335 0.79866 0.46425 0.0
H1289 H 0.33403 0.78721 0.45863 0.0
N1290 N 0.34077 0.84462 0.45652 0.0
C1291 C 0.31862 0.8514 0.46256 0.0
C1292 C 0.34647 0.82196 0.45634 0.0
C1293 C 0.30651 0.81174 0.46238 0.0
C1294 C 0.32944 0.80518 0.45874 0.0
C1295 C 0.30085 0.83506 0.46472 0.0
H1296 H 0.2642 0.83011 0.47098 0.0
N1297 N 0.33108 0.89038 0.46285 0.0
C1298 C 0.31363 0.87483 0.46572 0.0
C1299 C 0.28624 0.90575 0.47254 0.0
C1300 C 0.29072 0.88219 0.47015 0.0
C1301 C 0.32684 0.9133 0.46694 0.0
C1302 C 0.30438 0.92134 0.47123 0.0
O1303 O 0.41575 0.88679 0.36424 0.0
O1304 O 0.40671 0.8783 0.45128 0.0
O1305 O 0.36283 0.88678 0.53608 0.0
O1306 O 0.37419 0.85197 0.52336 0.0
O1307 O 0.37834 0.85489 0.32729 0.0
O1308 O 0.38847 0.84768 0.41384 0.0
O1309 O 0.34389 0.87126 0.38285 0.0
O1310 O 0.35131 0.90453 0.34147 0.0
O1311 O 0.36404 0.87555 0.25257 0.0
O1312 O 0.38551 0.90405 0.23055 0.0
O1313 O 0.38161 0.91011 0.45157 0.0
O1314 O 0.37562 0.92363 0.36657 0.0
C1315 C 0.4216 0.88281 0.41349 0.0
C1316 C 0.38489 0.84067 0.36521 0.0
C1317 C 0.38608 0.87044 0.60203 0.0
C1318 C 0.39343 0.87526 0.69627 0.0
C1319 C 0.42498 0.87564 0.63433 0.0
C1320 C 0.40964 0.87239 0.59245 0.0
C1321 C 0.41694 0.87723 0.68597 0.0
C1322 C 0.37801 0.8717 0.65412 0.0
C1323 C 0.3697 0.86783 0.55807 0.0
C1324 C 0.27302 0.8659 0.47188 0.0
C1325 C 0.27807 0.84244 0.46934 0.0
H1326 H 0.26885 0.91207 0.47587 0.0
C1327 C 0.33686 0.88821 0.35237 0.0
C1328 C 0.37942 0.9271 0.41793 0.0
C1329 C 0.35561 0.89563 0.1724 0.0
C1330 C 0.34851 0.89874 0.07729 0.0
C1331 C 0.32626 0.92133 0.14016 0.0
C1332 C 0.33856 0.91189 0.18213 0.0
C1333 C 0.33137 0.91513 0.08821 0.0
C1334 C 0.36027 0.88882 0.12032 0.0
C1335 C 0.37141 0.88839 0.21422 0.0
H1336 H 0.44315 0.87712 0.62671 0.0
H1337 H 0.41614 0.87152 0.55266 0.0
H1338 H 0.42906 0.87995 0.71798 0.0
H1339 H 0.35979 0.87043 0.66174 0.0
H1340 H 0.31323 0.9341 0.14776 0.0
H1341 H 0.33545 0.91791 0.22183 0.0
H1342 H 0.32226 0.9238 0.05678 0.0
H1343 H 0.37357 0.8762 0.11368 0.0
C1344 C 0.16585 0.60913 0.73047 0.0
C1345 C 0.1513 0.61902 0.76792 0.0
C1346 C 0.15968 0.6085 0.67695 0.0
C1347 C 0.13861 0.61828 0.66073 0.0
C1348 C 0.12285 0.62602 0.69921 0.0
C1349 C 0.1294 0.62625 0.75265 0.0
C1350 C 0.17686 0.5997 0.63754 0.0
C1351 C 0.10014 0.63641 0.68355 0.0
C1352 C 0.13961 0.65264 0.53431 0.0
C1353 C 0.12737 0.63855 0.49917 0.0
C1354 C 0.14344 0.64607 0.58669 0.0
C1355 C 0.13512 0.62465 0.60448 0.0
C1356 C 0.12346 0.60988 0.5689 0.0
C1357 C 0.11962 0.61705 0.51661 0.0
C1358 C 0.15619 0.66227 0.62319 0.0
C1359 C 0.11487 0.5867 0.58626 0.0
H1360 H 0.18278 0.60346 0.74257 0.0
H1361 H 0.11823 0.63397 0.78173 0.0
H1362 H 0.16826 0.59068 0.60426 0.0
H1363 H 0.18649 0.6144 0.62103 0.0
H1364 H 0.18939 0.58784 0.65624 0.0
H1365 H 0.08847 0.63816 0.71777 0.0
H1366 H 0.10308 0.65371 0.66674 0.0
H1367 H 0.09156 0.62587 0.6527 0.0
H1368 H 0.14624 0.66895 0.52083 0.0
H1369 H 0.11011 0.60602 0.48979 0.0
H1370 H 0.17178 0.65379 0.63906 0.0
H1371 H 0.14524 0.66685 0.65725 0.0
H1372 H 0.16143 0.67833 0.60314 0.0
H1373 H 0.12931 0.57634 0.60198 0.0
H1374 H 0.10652 0.57703 0.55353 0.0
H1375 H 0.10239 0.5888 0.61872 0.0
C1376 C 0.66339 0.88535 0.99491 0.0
C1377 C 0.64822 0.8984 0.02505 0.0
C1378 C 0.65828 0.87983 0.94233 0.0
C1379 C 0.63768 0.88798 0.91913 0.0
C1380 C 0.62179 0.90031 0.95017 0.0
C1381 C 0.6272 0.90527 1.00315 0.0
C1382 C 0.67534 0.86596 0.91105 0.0
C1383 C 0.59954 0.90889 0.92687 0.0
C1384 C 0.6458 0.89426 0.77239 0.0
C1385 C 0.6384 0.87275 0.75468 0.0
C1386 C 0.64374 0.90041 0.82572 0.0
C1387 C 0.63388 0.88468 0.86157 0.0
C1388 C 0.62411 0.86402 0.84238 0.0
C1389 C 0.62674 0.85817 0.78908 0.0
C1390 C 0.65418 0.92271 0.84451 0.0
C1391 C 0.61292 0.84691 0.87853 0.0
H1392 H 0.67951 0.8799 0.0123 0.0
H1393 H 0.6155 0.91538 0.02675 0.0
H1394 H 0.6668 0.85078 0.89318 0.0
H1395 H 0.68219 0.87648 0.87836 0.0
H1396 H 0.68995 0.85996 0.93575 0.0
H1397 H 0.58849 0.91717 0.95693 0.0
H1398 H 0.60313 0.9215 0.89533 0.0
H1399 H 0.58995 0.89448 0.90836 0.0
H1400 H 0.65487 0.90543 0.74555 0.0
H1401 H 0.62096 0.84154 0.77499 0.0
H1402 H 0.67036 0.91908 0.86622 0.0
H1403 H 0.64251 0.93164 0.87213 0.0
H1404 H 0.65811 0.93438 0.81122 0.0
H1405 H 0.62598 0.83435 0.89197 0.0
H1406 H 0.59923 0.83725 0.85735 0.0
H1407 H 0.60542 0.85521 0.91384 0.0
C1408 C 0.35609 0.41052 0.23391 0.0
C1409 C 0.36496 0.39515 0.27122 0.0
C1410 C 0.36335 0.40992 0.18131 0.0
C1411 C 0.3797 0.39337 0.16566 0.0
C1412 C 0.39022 0.37925 0.20431 0.0
C1413 C 0.38273 0.38035 0.25689 0.0
C1414 C 0.35184 0.4255 0.14176 0.0
C1415 C 0.40788 0.36154 0.1893 0.0
C1416 C 0.37156 0.36603 0.03087 0.0
C1417 C 0.3888 0.37647 1.00132 0.0
C1418 C 0.36828 0.37172 0.08401 0.0
C1419 C 0.38278 0.38815 0.10856 0.0
C1420 C 0.39996 0.39917 0.07866 0.0
C1421 C 0.40265 0.39334 0.02507 0.0
C1422 C 0.34941 0.3599 0.11403 0.0
C1423 C 0.41563 0.41684 0.10344 0.0
H1424 H 0.34241 0.42207 0.24525 0.0
H1425 H 0.38953 0.36843 0.28578 0.0
H1426 H 0.36433 0.43217 0.11287 0.0
H1427 H 0.33867 0.41562 0.11947 0.0
H1428 H 0.34327 0.44024 0.16129 0.0
H1429 H 0.41673 0.3543 0.22443 0.0
H1430 H 0.39938 0.34731 0.16752 0.0
H1431 H 0.42086 0.36909 0.16272 0.0
H1432 H 0.36059 0.3533 0.01224 0.0
H1433 H 0.41597 0.40147 1.00214 0.0
H1434 H 0.33752 0.37282 0.13072 0.0
H1435 H 0.35684 0.35015 0.14755 0.0
H1436 H 0.33938 0.34787 0.08879 0.0
H1437 H 0.40543 0.43167 0.11755 0.0
H1438 H 0.42873 0.42316 0.07543 0.0
H1439 H 0.42447 0.40947 0.13837 0.0
C1440 C 0.90228 0.12488 0.49399 0.0
C1441 C 0.88562 0.138 0.51984 0.0
C1442 C 0.8998 0.11921 0.44016 0.0
C1443 C 0.88005 0.1266 0.41211 0.0
C1444 C 0.86277 0.13897 0.43897 0.0
C1445 C 0.86586 0.14465 0.49233 0.0
C1446 C 0.91863 0.1061 0.41294 0.0
C1447 C 0.84117 0.14669 0.41105 0.0
C1448 C 0.87723 0.13732 0.26463 0.0
C1449 C 0.86331 0.11912 0.24789 0.0
C1450 C 0.8843 0.13913 0.31766 0.0
C1451 C 0.87741 0.12221 0.35436 0.0
C1452 C 0.86504 0.10277 0.33635 0.0
C1453 C 0.85796 0.10157 0.28336 0.0
C1454 C 0.89753 0.16008 0.33523 0.0
C1455 C 0.85772 0.08413 0.3738 0.0
H1456 H 0.91759 0.11977 0.51538 0.0
H1457 H 0.85288 0.15454 0.51266 0.0
H1458 H 0.91142 0.09202 0.38837 0.0
H1459 H 0.92797 0.11779 0.38618 0.0
H1460 H 0.93111 0.09874 0.44152 0.0
H1461 H 0.82907 0.15543 0.43812 0.0
H1462 H 0.84557 0.15867 0.37876 0.0
H1463 H 0.83232 0.13174 0.39291 0.0
H1464 H 0.8812 0.15095 0.23717 0.0
H1465 H 0.84718 0.08748 0.27017 0.0
H1466 H 0.91238 0.15507 0.36021 0.0
H1467 H 0.88632 0.17122 0.35952 0.0
H1468 H 0.90382 0.17024 0.30129 0.0
H1469 H 0.87219 0.079 0.39979 0.0
H1470 H 0.85126 0.06871 0.35251 0.0
H1471 H 0.84386 0.0907 0.39951 0.0
C1472 C 0.14663 0.39184 0.26336 0.0
C1473 C 0.12794 0.37767 0.25079 0.0
C1474 C 0.14973 0.40023 0.31512 0.0
C1475 C 0.13406 0.39387 0.35497 0.0
C1476 C 0.11401 0.38158 0.34105 0.0
C1477 C 0.11106 0.37392 0.28899 0.0
C1478 C 0.17063 0.41445 0.3281 0.0
C1479 C 0.09664 0.37481 0.38199 0.0
C1480 C 0.16043 0.38286 0.48977 0.0
C1481 C 0.15312 0.40192 0.51866 0.0
C1482 C 0.15396 0.37997 0.4368 0.0
C1483 C 0.14027 0.39688 0.41173 0.0
C1484 C 0.13251 0.41605 0.44118 0.0
C1485 C 0.13894 0.41826 0.49459 0.0
C1486 C 0.16187 0.3588 0.40762 0.0
C1487 C 0.11824 0.43475 0.41631 0.0
H1488 H 0.15963 0.39502 0.23394 0.0
H1489 H 0.09624 0.36351 0.27898 0.0
H1490 H 0.16585 0.42932 0.35321 0.0
H1491 H 0.18308 0.40394 0.35079 0.0
H1492 H 0.17919 0.42084 0.29201 0.0
H1493 H 0.08108 0.36695 0.36403 0.0
H1494 H 0.10446 0.36225 0.40958 0.0
H1495 H 0.09144 0.38998 0.40556 0.0
H1496 H 0.17125 0.37019 0.50882 0.0
H1497 H 0.13342 0.43307 0.51714 0.0
H1498 H 0.17313 0.36378 0.37452 0.0
H1499 H 0.1469 0.34959 0.39046 0.0
H1500 H 0.17145 0.34679 0.43359 0.0
H1501 H 0.12989 0.44783 0.39952 0.0
H1502 H 0.1073 0.44337 0.44608 0.0
H1503 H 0.10714 0.42821 0.38389 0.0
C1504 C 0.86252 0.88335 0.75422 0.0
C1505 C 0.88453 0.87642 0.76973 0.0
C1506 C 0.8583 0.89122 0.70261 0.0
C1507 C 0.87656 0.8923 0.66608 0.0
C1508 C 0.89909 0.88701 0.683 0.0
C1509 C 0.90278 0.8791 0.73456 0.0
C1510 C 0.83407 0.89691 0.68615 0.0
C1511 C 0.91914 0.88842 0.64583 0.0
C1512 C 0.86245 0.88317 0.52067 0.0
C1513 C 0.86142 0.90574 0.50219 0.0
C1514 C 0.86733 0.8786 0.57399 0.0
C1515 C 0.87185 0.89704 0.60924 0.0
C1516 C 0.87174 0.91982 0.59011 0.0
C1517 C 0.8662 0.92391 0.53693 0.0
C1518 C 0.86718 0.85406 0.59284 0.0
C1519 C 0.87715 0.93989 0.62587 0.0
H1520 H 0.84838 0.88123 0.78128 0.0
H1521 H 0.91988 0.87401 0.74676 0.0
H1522 H 0.83346 0.91385 0.66642 0.0
H1523 H 0.82787 0.88395 0.65719 0.0
H1524 H 0.82218 0.8972 0.72018 0.0
H1525 H 0.93582 0.88651 0.66678 0.0
H1526 H 0.91772 0.87461 0.61574 0.0
H1527 H 0.91905 0.90502 0.62462 0.0
H1528 H 0.85875 0.86914 0.4937 0.0
H1529 H 0.86566 0.94136 0.52234 0.0
H1530 H 0.85427 0.852 0.6244 0.0
H1531 H 0.88411 0.84959 0.6101 0.0
H1532 H 0.86319 0.84172 0.56055 0.0
H1533 H 0.86303 0.94228 0.65443 0.0
H1534 H 0.87933 0.95608 0.60349 0.0
H1535 H 0.89302 0.9366 0.64898 0.0
C1536 C 0.3509 0.61197 0.78123 0.0
C1537 C 0.36559 0.62211 0.74463 0.0
C1538 C 0.35702 0.61073 0.83468 0.0
C1539 C 0.37813 0.62027 0.85164 0.0
C1540 C 0.39397 0.62837 0.81387 0.0
C1541 C 0.3875 0.6291 0.76047 0.0
C1542 C 0.33981 0.60147 0.87332 0.0
C1543 C 0.4167 0.63857 0.8304 0.0
C1544 C 0.37778 0.65324 0.98046 0.0
C1545 C 0.3901 0.63871 0.01412 0.0
C1546 C 0.37357 0.6472 0.9278 0.0
C1547 C 0.38169 0.62593 0.90827 0.0
C1548 C 0.39346 0.61075 0.94236 0.0
C1549 C 0.3976 0.61735 0.99498 0.0
C1550 C 0.36066 0.66378 0.89287 0.0
C1551 C 0.40183 0.58773 0.92305 0.0
H1552 H 0.33397 0.60644 0.76857 0.0
H1553 H 0.39877 0.63698 0.73194 0.0
H1554 H 0.34838 0.59237 0.90634 0.0
H1555 H 0.32993 0.61595 0.89029 0.0
H1556 H 0.32751 0.58956 0.85375 0.0
H1557 H 0.42835 0.64081 0.79634 0.0
H1558 H 0.41377 0.65562 0.84878 0.0
H1559 H 0.42529 0.62762 0.86024 0.0
H1560 H 0.37138 0.66945 0.99537 0.0
H1561 H 0.40714 0.60599 0.02078 0.0
H1562 H 0.34501 0.65546 0.8767 0.0
H1563 H 0.37147 0.66876 0.85893 0.0
H1564 H 0.35552 0.6796 0.91429 0.0
H1565 H 0.38729 0.57764 0.90667 0.0
H1566 H 0.41019 0.57763 0.95491 0.0
H1567 H 0.41427 0.59013 0.89065 0.0
C1568 C 0.64578 0.15125 0.03119 0.0
C1569 C 0.62661 0.14239 1.00478 0.0
C1570 C 0.65011 0.14586 0.0842 0.0
C1571 C 0.63466 0.13152 0.11164 0.0
C1572 C 0.61528 0.12237 0.08485 0.0
C1573 C 0.61158 0.1278 0.0314 0.0
C1574 C 0.6712 0.15561 0.11092 0.0
C1575 C 0.59829 0.10726 0.11284 0.0
C1576 C 0.66132 0.10511 0.23383 0.0
C1577 C 0.65487 0.12079 0.27305 0.0
C1578 C 0.65353 0.10747 0.18164 0.0
C1579 C 0.63917 0.12615 0.16821 0.0
C1580 C 0.63144 0.1412 0.20836 0.0
C1581 C 0.63929 0.13826 0.2605 0.0
C1582 C 0.66178 0.09075 0.14032 0.0
C1583 C 0.61606 0.16127 0.19567 0.0
H1584 H 0.65742 0.16241 0.01016 0.0
H1585 H 0.59672 0.12103 0.01065 0.0
H1586 H 0.66616 0.1663 0.14523 0.0
H1587 H 0.68211 0.14148 0.12611 0.0
H1588 H 0.68159 0.16628 0.08385 0.0
H1589 H 0.58533 0.09986 0.08533 0.0
H1590 H 0.60723 0.09306 0.13344 0.0
H1591 H 0.58925 0.11745 0.14332 0.0
H1592 H 0.67307 0.09136 0.24377 0.0
H1593 H 0.63426 0.15037 0.29084 0.0
H1594 H 0.67394 0.09952 0.11366 0.0
H1595 H 0.64722 0.08454 0.11577 0.0
H1596 H 0.67057 0.07571 0.15807 0.0
H1597 H 0.62577 0.17412 0.17264 0.0
H1598 H 0.60945 0.16974 0.23183 0.0
H1599 H 0.60132 0.15564 0.17094 0.0
C1600 C 0.90286 0.3726 0.28818 0.0
C1601 C 0.88519 0.37327 0.25033 0.0
C1602 C 0.89963 0.38104 0.33948 0.0
C1603 C 0.8782 0.39052 0.35341 0.0
C1604 C 0.86088 0.39291 0.31424 0.0
C1605 C 0.86458 0.38426 0.26303 0.0
C1606 C 0.91872 0.37843 0.37957 0.0
C1607 C 0.83792 0.40329 0.32734 0.0
C1608 C 0.85984 0.38386 0.49638 0.0
C1609 C 0.86308 0.40607 0.51622 0.0
C1610 C 0.86456 0.37866 0.44336 0.0
C1611 C 0.87324 0.39598 0.40977 0.0
C1612 C 0.87724 0.41826 0.43023 0.0
C1613 C 0.87188 0.4231 0.48311 0.0
C1614 C 0.85993 0.35471 0.42304 0.0
C1615 C 0.88726 0.43694 0.39638 0.0
H1616 H 0.919 0.36453 0.27823 0.0
H1617 H 0.85087 0.38487 0.23398 0.0
H1618 H 0.9209 0.39438 0.40306 0.0
H1619 H 0.91433 0.36448 0.40738 0.0
H1620 H 0.93531 0.37413 0.36072 0.0
H1621 H 0.82713 0.40596 0.2916 0.0
H1622 H 0.82864 0.39178 0.35466 0.0
H1623 H 0.84022 0.41999 0.34781 0.0
H1624 H 0.85304 0.37072 0.52206 0.0
H1625 H 0.87471 0.4402 0.4988 0.0
H1626 H 0.87598 0.347 0.40798 0.0
H1627 H 0.84758 0.35538 0.38957 0.0
H1628 H 0.85286 0.34332 0.45396 0.0
H1629 H 0.90454 0.43177 0.3828 0.0
H1630 H 0.88877 0.45352 0.41787 0.0
H1631 H 0.87649 0.43953 0.36066 0.0
C1632 C 0.3996 0.12218 0.2351 0.0
C1633 C 0.38747 0.13819 0.26525 0.0
C1634 C 0.39394 0.11815 0.18208 0.0
C1635 C 0.37585 0.13067 0.1583 0.0
C1636 C 0.36295 0.14628 0.18896 0.0
C1637 C 0.36886 0.14981 0.24231 0.0
C1638 C 0.40739 0.10052 0.15143 0.0
C1639 C 0.34302 0.15919 0.16524 0.0
C1640 C 0.38349 0.13299 0.01038 0.0
C1641 C 0.37066 0.11393 0.99427 0.0
C1642 C 0.38383 0.13989 0.06355 0.0
C1643 C 0.37098 0.1274 0.10105 0.0
C1644 C 0.35626 0.10951 0.08373 0.0
C1645 C 0.35639 0.10294 0.03047 0.0
C1646 C 0.39943 0.15928 0.08027 0.0
C1647 C 0.34133 0.09606 0.12091 0.0
H1648 H 0.41358 0.11272 0.25316 0.0
H1649 H 0.3593 0.16207 0.2657 0.0
H1650 H 0.39558 0.08736 0.13489 0.0
H1651 H 0.41612 0.10884 0.1178 0.0
H1652 H 0.4205 0.09178 0.17619 0.0
H1653 H 0.33474 0.17082 0.19419 0.0
H1654 H 0.3489 0.16946 0.13113 0.0
H1655 H 0.33004 0.14683 0.15015 0.0
H1656 H 0.39456 0.14141 0.98224 0.0
H1657 H 0.34628 0.08829 0.01769 0.0
H1658 H 0.4144 0.15222 0.10206 0.0
H1659 H 0.39038 0.17116 0.10733 0.0
H1660 H 0.40582 0.16916 0.04598 0.0
H1661 H 0.34563 0.07755 0.11806 0.0
H1662 H 0.32315 0.09789 0.10841 0.0
H1663 H 0.34284 0.10153 0.16271 0.0
C1664 C 0.63593 0.63673 1.00563 0.0
C1665 C 0.64371 0.61507 0.02102 0.0
C1666 C 0.63678 0.64338 0.95246 0.0
C1667 C 0.64566 0.62795 0.91439 0.0
C1668 C 0.65589 0.60719 0.931 0.0
C1669 C 0.6546 0.60088 0.98421 0.0
C1670 C 0.6263 0.66595 0.93632 0.0
C1671 C 0.66632 0.59072 0.89192 0.0
C1672 C 0.61398 0.62639 0.78353 0.0
C1673 C 0.62844 0.63901 0.75069 0.0
C1674 C 0.6196 0.62261 0.83656 0.0
C1675 C 0.64037 0.63149 0.8575 0.0
C1676 C 0.65543 0.64375 0.82434 0.0
C1677 C 0.64933 0.64728 0.77116 0.0
C1678 C 0.60308 0.60927 0.87037 0.0
C1679 C 0.67806 0.65296 0.84442 0.0
H1680 H 0.62748 0.64764 0.03426 0.0
H1681 H 0.66073 0.58416 0.99649 0.0
H1682 H 0.63777 0.6751 0.90871 0.0
H1683 H 0.60985 0.66273 0.91529 0.0
H1684 H 0.6229 0.67722 0.97083 0.0
H1685 H 0.67619 0.57688 0.91177 0.0
H1686 H 0.65254 0.58271 0.8677 0.0
H1687 H 0.67785 0.6 0.86471 0.0
H1688 H 0.59813 0.61942 0.76768 0.0
H1689 H 0.66069 0.65697 0.74599 0.0
H1690 H 0.59736 0.62007 0.90392 0.0
H1691 H 0.61174 0.59398 0.88713 0.0
H1692 H 0.58771 0.60346 0.84791 0.0
H1693 H 0.68396 0.66772 0.82047 0.0
H1694 H 0.69117 0.63925 0.84153 0.0
H1695 H 0.67712 0.65843 0.88633 0.0
C1696 C 0.13264 0.90403 0.50973 0.0
C1697 C 0.1186 0.88554 0.49539 0.0
C1698 C 0.14056 0.90655 0.56196 0.0
C1699 C 0.13462 0.88992 0.60022 0.0
C1700 C 0.12194 0.87029 0.58468 0.0
C1701 C 0.11384 0.86849 0.53256 0.0
C1702 C 0.15397 0.92776 0.57696 0.0
C1703 C 0.11573 0.85182 0.62365 0.0
C1704 C 0.16573 0.89348 0.73261 0.0
C1705 C 0.14977 0.90547 0.76308 0.0
C1706 C 0.1608 0.88759 0.67988 0.0
C1707 C 0.13961 0.89431 0.65713 0.0
C1708 C 0.12326 0.90598 0.68845 0.0
C1709 C 0.12849 0.91126 0.74127 0.0
C1710 C 0.17831 0.87444 0.64837 0.0
C1711 C 0.10047 0.91344 0.66575 0.0
H1712 H 0.13624 0.91722 0.48091 0.0
H1713 H 0.10312 0.85407 0.52118 0.0
H1714 H 0.14353 0.93862 0.6036 0.0
H1715 H 0.16981 0.92305 0.59881 0.0
H1716 H 0.15877 0.93809 0.54198 0.0
H1717 H 0.11033 0.83573 0.60347 0.0
H1718 H 0.13037 0.84796 0.65035 0.0
H1719 H 0.10133 0.85786 0.64839 0.0
H1720 H 0.1821 0.88884 0.75003 0.0
H1721 H 0.1162 0.92045 0.76525 0.0
H1722 H 0.18438 0.88508 0.61509 0.0
H1723 H 0.17039 0.85878 0.6311 0.0
H1724 H 0.19334 0.86932 0.67274 0.0
H1725 H 0.10328 0.92514 0.63196 0.0
H1726 H 0.08969 0.92238 0.69533 0.0
H1727 H 0.09091 0.89833 0.65054 0.0
C1728 C 0.886 0.65647 0.72739 0.0
C1729 C 0.89023 0.63769 0.76035 0.0
C1730 C 0.88108 0.6533 0.67338 0.0
C1731 C 0.88068 0.63082 0.65187 0.0
C1732 C 0.88502 0.61183 0.68533 0.0
C1733 C 0.88957 0.6155 0.73926 0.0
C1734 C 0.87617 0.67396 0.63947 0.0
C1735 C 0.88498 0.5876 0.66406 0.0
C1736 C 0.84692 0.6157 0.52783 0.0
C1737 C 0.86432 0.61259 0.49049 0.0
C1738 C 0.85191 0.62263 0.57974 0.0
C1739 C 0.8749 0.62687 0.59494 0.0
C1740 C 0.89241 0.62543 0.5565 0.0
C1741 C 0.88692 0.61829 0.50466 0.0
C1742 C 0.83265 0.62413 0.61907 0.0
C1743 C 0.91709 0.63023 0.57089 0.0
H1744 H 0.88658 0.67363 0.74397 0.0
H1745 H 0.89305 0.60104 0.76489 0.0
H1746 H 0.8875 0.67399 0.60453 0.0
H1747 H 0.85826 0.6732 0.62466 0.0
H1748 H 0.87859 0.69033 0.66141 0.0
H1749 H 0.88913 0.57477 0.69498 0.0
H1750 H 0.86791 0.58345 0.64697 0.0
H1751 H 0.89768 0.58599 0.63188 0.0
H1752 H 0.82934 0.61187 0.51686 0.0
H1753 H 0.90047 0.616 0.47611 0.0
H1754 H 0.83333 0.64071 0.64062 0.0
H1755 H 0.83458 0.61028 0.64869 0.0
H1756 H 0.81554 0.62239 0.59996 0.0
H1757 H 0.91858 0.64681 0.59229 0.0
H1758 H 0.92827 0.63077 0.53564 0.0
H1759 H 0.9235 0.61666 0.59779 0.0
C1760 C 0.13529 0.12808 0.50615 0.0
C1761 C 0.15614 0.11782 0.52101 0.0
C1762 C 0.1308 0.13406 0.45336 0.0
C1763 C 0.14734 0.12926 0.41424 0.0
C1764 C 0.16881 0.12001 0.42932 0.0
C1765 C 0.17303 0.11467 0.48248 0.0
C1766 C 0.10789 0.14444 0.43906 0.0
C1767 C 0.18691 0.11461 0.3889 0.0
C1768 C 0.12392 0.11539 0.27763 0.0
C1769 C 0.12861 0.13553 0.24986 0.0
C1770 C 0.13029 0.11307 0.33077 0.0
C1771 C 0.1413 0.13154 0.3572 0.0
C1772 C 0.14633 0.1519 0.32913 0.0
C1773 C 0.14011 0.15357 0.27548 0.0
C1774 C 0.12503 0.09089 0.35877 0.0
C1775 C 0.15752 0.17216 0.35616 0.0
H1776 H 0.12199 0.13053 0.53523 0.0
H1777 H 0.18943 0.10738 0.49363 0.0
H1778 H 0.11026 0.15958 0.41326 0.0
H1779 H 0.0975 0.13174 0.41661 0.0
H1780 H 0.09811 0.14978 0.47448 0.0
H1781 H 0.20322 0.10881 0.40735 0.0
H1782 H 0.18059 0.10089 0.36201 0.0
H1783 H 0.19044 0.12991 0.36439 0.0
H1784 H 0.11519 0.1014 0.25757 0.0
H1785 H 0.14356 0.16922 0.254 0.0
H1786 H 0.11297 0.09416 0.39157 0.0
H1787 H 0.14093 0.08366 0.37625 0.0
H1788 H 0.1173 0.07786 0.33193 0.0
H1789 H 0.14531 0.17984 0.38457 0.0
H1790 H 0.1627 0.1856 0.32766 0.0
H1791 H 0.17283 0.16669 0.37901 0.0
C1792 C 0.63139 0.41523 0.24365 0.0
C1793 C 0.65158 0.40787 0.26821 0.0
C1794 C 0.62683 0.4098 0.19061 0.0
C1795 C 0.64284 0.39659 0.16165 0.0
C1796 C 0.6631 0.38872 0.18686 0.0
C1797 C 0.66728 0.39456 0.23998 0.0
C1798 C 0.60494 0.41838 0.16541 0.0
C1799 C 0.68047 0.37444 0.15761 0.0
C1800 C 0.61635 0.36917 0.03992 0.0
C1801 C 0.62167 0.38526 1.00088 0.0
C1802 C 0.6245 0.37177 0.09181 0.0
C1803 C 0.63805 0.39111 0.10513 0.0
C1804 C 0.64477 0.40656 0.06501 0.0
C1805 C 0.63658 0.40336 0.01313 0.0
C1806 C 0.61742 0.35457 0.13298 0.0
C1807 C 0.65931 0.42731 0.07758 0.0
H1808 H 0.61928 0.42542 0.26594 0.0
H1809 H 0.68285 0.38884 0.25946 0.0
H1810 H 0.609 0.42927 0.1309 0.0
H1811 H 0.5946 0.40368 0.15076 0.0
H1812 H 0.59436 0.42853 0.19329 0.0
H1813 H 0.69385 0.36739 0.18441 0.0
H1814 H 0.67195 0.36 0.13662 0.0
H1815 H 0.68896 0.38514 0.1274 0.0
H1816 H 0.60509 0.35495 0.03019 0.0
H1817 H 0.64072 0.41578 0.98293 0.0
H1818 H 0.60482 0.36257 0.15997 0.0
H1819 H 0.63241 0.34928 0.1572 0.0
H1820 H 0.60949 0.33903 0.11508 0.0
H1821 H 0.64927 0.43956 0.10178 0.0
H1822 H 0.66508 0.43624 0.04139 0.0
H1823 H 0.67458 0.42231 0.10115 0.0
C1824 C 0.37708 0.88654 0.00753 0.0
C1825 C 0.35459 0.8928 0.02139 0.0
C1826 C 0.38291 0.88169 0.95488 0.0
C1827 C 0.36622 0.88427 0.91453 0.0
C1828 C 0.34358 0.89045 0.92801 0.0
C1829 C 0.33793 0.89402 0.98114 0.0
C1830 C 0.40705 0.87422 0.94232 0.0
C1831 C 0.32541 0.89401 0.88611 0.0
C1832 C 0.38824 0.8985 0.77779 0.0
C1833 C 0.3852 0.87768 0.75103 0.0
C1834 C 0.38184 0.90092 0.83076 0.0
C1835 C 0.37269 0.88186 0.85797 0.0
C1836 C 0.36952 0.86074 0.83091 0.0
C1837 C 0.37559 0.85899 0.77741 0.0
C1838 C 0.3849 0.9239 0.85761 0.0
C1839 C 0.36044 0.83985 0.85887 0.0
H1840 H 0.39039 0.88584 0.03745 0.0
H1841 H 0.32036 0.89803 0.99086 0.0
H1842 H 0.40677 0.85887 0.91627 0.0
H1843 H 0.41602 0.88805 0.92076 0.0
H1844 H 0.41711 0.87013 0.97845 0.0
H1845 H 0.30863 0.89897 0.9031 0.0
H1846 H 0.33094 0.90767 0.85861 0.0
H1847 H 0.32306 0.87812 0.86254 0.0
H1848 H 0.39565 0.91293 0.75707 0.0
H1849 H 0.37347 0.84284 0.7566 0.0
H1850 H 0.39722 0.92234 0.8909 0.0
H1851 H 0.36835 0.92972 0.87428 0.0
H1852 H 0.39127 0.93725 0.83021 0.0
H1853 H 0.3727 0.83468 0.89032 0.0
H1854 H 0.35783 0.82511 0.83159 0.0
H1855 H 0.34394 0.8438 0.87831 0.0
C1856 C 0.15328 0.70745 0.14977 0.0
C1857 C 0.13453 0.69398 0.16552 0.0
C1858 C 0.15253 0.7316 0.15095 0.0
C1859 C 0.13273 0.74298 0.16964 0.0
C1860 C 0.11407 0.72954 0.18777 0.0
C1861 C 0.11514 0.70528 0.18534 0.0
C1862 C 0.17271 0.74498 0.13032 0.0
C1863 C 0.0926 0.74083 0.20796 0.0
C1864 C 0.1409 0.80724 0.20033 0.0
C1865 C 0.13196 0.81762 0.15464 0.0
C1866 C 0.14026 0.78311 0.20702 0.0
C1867 C 0.13111 0.76881 0.16648 0.0
C1868 C 0.12144 0.7793 0.1212 0.0
C1869 C 0.12152 0.80335 0.11663 0.0
C1870 C 0.14965 0.77288 0.25726 0.0
C1871 C 0.11204 0.76527 0.07576 0.0
H1872 H 0.1686 0.69908 0.13549 0.0
H1873 H 0.10052 0.69521 0.19759 0.0
H1874 H 0.16732 0.75508 0.09532 0.0
H1875 H 0.17891 0.75735 0.16055 0.0
H1876 H 0.1872 0.73369 0.11903 0.0
H1877 H 0.08056 0.72826 0.22548 0.0
H1878 H 0.097 0.75401 0.23808 0.0
H1879 H 0.08371 0.7497 0.175 0.0
H1880 H 0.1486 0.81793 0.23073 0.0
H1881 H 0.11349 0.81095 0.08249 0.0
H1882 H 0.16538 0.76293 0.24862 0.0
H1883 H 0.13701 0.7608 0.27426 0.0
H1884 H 0.15389 0.78621 0.28722 0.0
H1885 H 0.12649 0.76026 0.05001 0.0
H1886 H 0.09961 0.77522 0.05165 0.0
H1887 H 0.10352 0.74936 0.08917 0.0
C1888 C 0.55747 0.86302 0.40489 0.0
C1889 C 0.57024 0.88152 0.42485 0.0
C1890 C 0.53331 0.86265 0.40832 0.0
C1891 C 0.52163 0.88058 0.43508 0.0
C1892 C 0.53474 0.89868 0.45779 0.0
C1893 C 0.55873 0.89924 0.45113 0.0
C1894 C 0.52023 0.84382 0.38037 0.0
C1895 C 0.5233 0.9181 0.48691 0.0
C1896 C 0.46095 0.89635 0.39117 0.0
C1897 C 0.44691 0.88349 0.4247 0.0
C1898 C 0.48493 0.89532 0.39396 0.0
C1899 C 0.49577 0.88202 0.43343 0.0
C1900 C 0.48178 0.87031 0.4704 0.0
C1901 C 0.45753 0.87081 0.46505 0.0
C1902 C 0.49842 0.9073 0.35179 0.0
C1903 C 0.49241 0.85703 0.51519 0.0
H1904 H 0.5663 0.84942 0.38405 0.0
H1905 H 0.56853 0.91369 0.46619 0.0
H1906 H 0.5084 0.83524 0.40806 0.0
H1907 H 0.50963 0.85134 0.34825 0.0
H1908 H 0.53176 0.83072 0.36294 0.0
H1909 H 0.53587 0.92884 0.50902 0.0
H1910 H 0.51409 0.92922 0.45835 0.0
H1911 H 0.51047 0.91132 0.51495 0.0
H1912 H 0.45316 0.9072 0.36169 0.0
H1913 H 0.44702 0.86092 0.49167 0.0
H1914 H 0.50293 0.8943 0.32159 0.0
H1915 H 0.51453 0.9149 0.36724 0.0
H1916 H 0.48835 0.92108 0.3324 0.0
H1917 H 0.50038 0.84115 0.49962 0.0
H1918 H 0.47954 0.85218 0.54525 0.0
H1919 H 0.50614 0.86728 0.53458 0.0
C1920 C 0.36023 0.30628 0.65016 0.0
C1921 C 0.3776 0.32022 0.67193 0.0
C1922 C 0.36126 0.28219 0.65236 0.0
C1923 C 0.37997 0.27128 0.67781 0.0
C1924 C 0.39715 0.28519 0.70189 0.0
C1925 C 0.39582 0.30942 0.69856 0.0
C1926 C 0.34274 0.26841 0.62505 0.0
C1927 C 0.41738 0.27445 0.72964 0.0
C1928 C 0.37129 0.20703 0.70661 0.0
C1929 C 0.38206 0.19665 0.66326 0.0
C1930 C 0.37138 0.23119 0.71335 0.0
C1931 C 0.38219 0.24546 0.67556 0.0
C1932 C 0.39376 0.23494 0.63291 0.0
C1933 C 0.39388 0.21089 0.62788 0.0
C1934 C 0.3592 0.24153 0.75998 0.0
C1935 C 0.40489 0.24912 0.59047 0.0
H1936 H 0.34583 0.31422 0.63016 0.0
H1937 H 0.40941 0.31985 0.71545 0.0
H1938 H 0.35015 0.25974 0.59011 0.0
H1939 H 0.33607 0.25489 0.6515 0.0
H1940 H 0.32819 0.27925 0.61166 0.0
H1941 H 0.42798 0.28735 0.75101 0.0
H1942 H 0.41146 0.26135 0.75814 0.0
H1943 H 0.42832 0.26557 0.70035 0.0
H1944 H 0.36224 0.19636 0.7345 0.0
H1945 H 0.40256 0.20325 0.59448 0.0
H1946 H 0.34383 0.25101 0.74611 0.0
H1947 H 0.37053 0.25406 0.7805 0.0
H1948 H 0.35371 0.22831 0.78868 0.0
H1949 H 0.39132 0.25761 0.56676 0.0
H1950 H 0.41551 0.23855 0.5635 0.0
H1951 H 0.41581 0.26277 0.60802 0.0
C1952 C 0.95839 0.14869 0.94657 0.0
C1953 C 0.94663 0.12911 0.92867 0.0
C1954 C 0.98229 0.14842 0.95561 0.0
C1955 C 0.99537 0.12892 0.94086 0.0
C1956 C 0.98354 0.10901 0.92304 0.0
C1957 C 0.95933 0.10906 0.91955 0.0
C1958 C 0.99366 0.16962 0.97795 0.0
C1959 C 0.9965 0.08818 0.90407 0.0
C1960 C 0.055 0.14264 0.88791 0.0
C1961 C 0.06992 0.1318 0.92378 0.0
C1962 C 0.03102 0.14163 0.89283 0.0
C1963 C 0.02118 0.13052 0.93677 0.0
C1964 C 0.0361 0.1211 0.97576 0.0
C1965 C 0.06021 0.12145 0.96835 0.0
C1966 C 0.01638 0.15171 0.8492 0.0
C1967 C 0.02667 0.11137 0.02617 0.0
H1968 H 0.94914 0.16456 0.95227 0.0
H1969 H 0.95039 0.09374 0.90653 0.0
H1970 H 0.00807 0.16499 1.00468 0.0
H1971 H 1.00069 0.1801 0.94543 0.0
H1972 H 0.98128 0.1804 1.00006 0.0
H1973 H 0.9849 0.07375 0.89341 0.0
H1974 H 1.00672 0.09282 0.86889 0.0
H1975 H 0.00871 0.08221 0.93472 0.0
H1976 H 0.06204 0.15193 0.85514 0.0
H1977 H 0.07138 0.11353 0.99732 0.0
H1978 H 1.00096 0.16048 0.86424 0.0
H1979 H 0.01038 0.13764 0.82295 0.0
H1980 H 0.02605 0.16433 0.82543 0.0
H1981 H 0.01922 0.12553 0.04989 0.0
H1982 H 0.0401 0.10275 0.05021 0.0
H1983 H 0.01267 0.099 0.0179 0.0
C1984 C 0.15315 0.3082 0.84118 0.0
C1985 C 0.13251 0.3205 0.84082 0.0
C1986 C 0.15325 0.28397 0.84036 0.0
C1987 C 0.13232 0.27176 0.8346 0.0
C1988 C 0.11164 0.28435 0.82918 0.0
C1989 C 0.11189 0.3084 0.83484 0.0
C1990 C 0.17557 0.27149 0.84953 0.0
C1991 C 0.08904 0.27245 0.81925 0.0
C1992 C 0.13675 0.20704 0.80564 0.0
C1993 C 0.13096 0.19752 0.85462 0.0
C1994 C 0.13651 0.23107 0.79773 0.0
C1995 C 0.13162 0.24607 0.84054 0.0
C1996 C 0.12566 0.23647 0.88981 0.0
C1997 C 0.12432 0.21255 0.89531 0.0
C1998 C 0.14157 0.24028 0.74353 0.0
C1999 C 0.1213 0.25141 0.93757 0.0
H2000 H 0.16912 0.31749 0.84618 0.0
H2001 H 0.09581 0.31768 0.83546 0.0
H2002 H 0.17419 0.26051 0.88509 0.0
H2003 H 0.1793 0.26004 0.81571 0.0
H2004 H 0.19023 0.28343 0.8551 0.0
H2005 H 0.07617 0.28436 0.80206 0.0
H2006 H 0.09117 0.25764 0.79207 0.0
H2007 H 0.08217 0.2659 0.85696 0.0
H2008 H 0.14148 0.19576 0.77343 0.0
H2009 H 0.11874 0.20563 0.93269 0.0
H2010 H 0.15958 0.24627 0.74214 0.0
H2011 H 0.13033 0.25508 0.73405 0.0
H2012 H 0.13925 0.22692 0.71258 0.0
H2013 H 0.13528 0.26418 0.94256 0.0
H2014 H 0.12003 0.24125 0.97443 0.0
H2015 H 0.10508 0.26102 0.93223 0.0
C2016 C 0.05546 0.90461 0.10391 0.0
C2017 C 0.06799 0.88525 0.08848 0.0
C2018 C 0.03129 0.90465 0.10267 0.0
C2019 C 0.01925 0.8853 0.08266 0.0
C2020 C 0.03202 0.86652 0.06248 0.0
C2021 C 0.05616 0.86643 0.06707 0.0
C2022 C 0.01865 0.92487 0.12572 0.0
C2023 C 0.02014 0.84612 0.03775 0.0
C2024 C 0.95976 0.87179 0.13683 0.0
C2025 C 0.945 0.88348 0.10216 0.0
C2026 C 0.98374 0.87233 0.13099 0.0
C2027 C 0.99353 0.88384 0.08746 0.0
C2028 C 0.97865 0.89424 0.04989 0.0
C2029 C 0.95468 0.89434 0.05821 0.0
C2030 C 0.99857 0.86135 0.173 0.0
C2031 C 0.98791 0.90558 1.00109 0.0
H2032 H 0.0646 0.91939 0.11933 0.0
H2033 H 0.06571 0.85135 0.05527 0.0
H2034 H 1.00628 0.93185 0.09659 0.0
H2035 H 0.00868 0.91915 0.16038 0.0
H2036 H 0.03041 0.93887 0.13832 0.0
H2037 H 0.03234 0.8347 0.01686 0.0
H2038 H 0.01143 0.83598 0.06864 0.0
H2039 H 1.0068 0.85193 0.00934 0.0
H2040 H 0.95259 0.86235 0.16934 0.0
H2041 H 0.94358 0.90312 0.03042 0.0
H2042 H 1.00667 0.87502 0.19739 0.0
H2043 H 0.01256 0.8511 0.1555 0.0
H2044 H 0.98856 0.84994 0.19916 0.0
H2045 H 0.99292 0.92347 0.01061 0.0
H2046 H 0.97478 0.90617 0.96915 0.0
H2047 H 1.00326 0.89648 0.98609 0.0
C2048 C 0.36191 0.70587 0.36271 0.0
C2049 C 0.37982 0.692 0.34399 0.0
C2050 C 0.36317 0.72999 0.36144 0.0
C2051 C 0.38257 0.74088 0.33947 0.0
C2052 C 0.40015 0.72701 0.31765 0.0
C2053 C 0.39867 0.70282 0.3205 0.0
C2054 C 0.34407 0.74381 0.38575 0.0
C2055 C 0.42088 0.73777 0.29262 0.0
C2056 C 0.37595 0.80523 0.3101 0.0
C2057 C 0.38632 0.81534 0.35469 0.0
C2058 C 0.37532 0.78111 0.30351 0.0
C2059 C 0.38504 0.76662 0.34266 0.0
C2060 C 0.39612 0.77683 0.3868 0.0
C2061 C 0.39693 0.80087 0.39179 0.0
C2062 C 0.36366 0.77111 0.25535 0.0
C2063 C 0.40609 0.76235 0.43052 0.0
H2064 H 0.34689 0.69787 0.37935 0.0
H2065 H 0.41258 0.69241 0.30553 0.0
H2066 H 0.35066 0.75263 0.42161 0.0
H2067 H 0.33801 0.75725 0.35818 0.0
H2068 H 0.32924 0.73297 0.39692 0.0
H2069 H 0.43184 0.72488 0.2726 0.0
H2070 H 0.41551 0.75087 0.2634 0.0
H2071 H 0.43129 0.74664 0.32331 0.0
H2072 H 0.36775 0.81611 0.28099 0.0
H2073 H 0.40522 0.80835 0.42621 0.0
H2074 H 0.34783 0.76201 0.26718 0.0
H2075 H 0.37498 0.75833 0.23613 0.0
H2076 H 0.35898 0.78449 0.22609 0.0
H2077 H 0.39191 0.75372 0.4515 0.0
H2078 H 0.41603 0.77269 0.45962 0.0
H2079 H 0.41738 0.7488 0.4143 0.0
C2080 C 0.55135 0.14579 0.64868 0.0
C2081 C 0.56547 0.13528 0.61097 0.0
C2082 C 0.52725 0.14545 0.64384 0.0
C2083 C 0.51668 0.13519 0.59902 0.0
C2084 C 0.53088 0.12584 0.55911 0.0
C2085 C 0.55497 0.12578 0.56576 0.0
C2086 C 0.5131 0.15496 0.68839 0.0
C2087 C 0.52057 0.11532 0.5099 0.0
C2088 C 0.45594 0.11146 0.61555 0.0
C2089 C 0.442 0.12942 0.59704 0.0
C2090 C 0.48003 0.11301 0.61568 0.0
C2091 C 0.49089 0.1329 0.59582 0.0
C2092 C 0.47699 0.15072 0.57477 0.0
C2093 C 0.45279 0.14884 0.57586 0.0
C2094 C 0.49383 0.09359 0.63893 0.0
C2095 C 0.48771 0.17204 0.55222 0.0
H2096 H 0.55913 0.15358 0.68334 0.0
H2097 H 0.56554 0.11779 0.53592 0.0
H2098 H 0.49941 0.16639 0.67314 0.0
H2099 H 0.50468 0.14053 0.70896 0.0
H2100 H 0.52365 0.16462 0.71761 0.0
H2101 H 0.53382 0.11052 0.4806 0.0
H2102 H 0.51073 0.09972 0.5203 0.0
H2103 H 0.50839 0.12751 0.49124 0.0
H2104 H 0.44798 0.09612 0.63092 0.0
H2105 H 0.44234 0.16286 0.56139 0.0
H2106 H 0.50268 0.09973 0.67518 0.0
H2107 H 0.50722 0.08786 0.61102 0.0
H2108 H 0.48301 0.07861 0.64922 0.0
H2109 H 0.49639 0.18186 0.58418 0.0
H2110 H 0.47484 0.18334 0.53296 0.0
H2111 H 0.50095 0.16735 0.5229 0.0
C2112 C 0.86094 0.20714 0.86787 0.0
C2113 C 0.87909 0.19339 0.84971 0.0
C2114 C 0.86151 0.23124 0.86415 0.0
C2115 C 0.88057 0.24224 0.84091 0.0
C2116 C 0.89858 0.22848 0.82061 0.0
C2117 C 0.89765 0.2043 0.82525 0.0
C2118 C 0.84195 0.24497 0.88683 0.0
C2119 C 0.91926 0.23937 0.79565 0.0
C2120 C 0.87274 0.30613 0.80672 0.0
C2121 C 0.88215 0.31695 0.85149 0.0
C2122 C 0.87283 0.2819 0.80161 0.0
C2123 C 0.88239 0.26806 0.84229 0.0
C2124 C 0.89258 0.27901 0.88655 0.0
C2125 C 0.89255 0.30307 0.89026 0.0
C2126 C 0.86203 0.27104 0.75342 0.0
C2127 C 0.90256 0.26528 0.9316 0.0
H2128 H 0.84626 0.19908 0.88595 0.0
H2129 H 0.91179 0.19402 0.81102 0.0
H2130 H 0.8482 0.25531 0.92087 0.0
H2131 H 0.83518 0.25713 0.85701 0.0
H2132 H 0.82768 0.2339 0.90035 0.0
H2133 H 0.93065 0.22647 0.77695 0.0
H2134 H 0.91386 0.252 0.76539 0.0
H2135 H 0.92925 0.24882 0.82617 0.0
H2136 H 0.86474 0.31652 0.77639 0.0
H2137 H 0.90017 0.31099 0.92494 0.0
H2138 H 0.84637 0.26156 0.76495 0.0
H2139 H 0.87395 0.25842 0.73562 0.0
H2140 H 0.85727 0.28395 0.72314 0.0
H2141 H 0.88854 0.25617 0.95208 0.0
H2142 H 0.9117 0.27623 0.96092 0.0
H2143 H 0.91462 0.25211 0.91669 0.0
C2144 C 0.65598 0.80653 0.35055 0.0
C2145 C 0.63585 0.81914 0.34158 0.0
C2146 C 0.65601 0.78224 0.3494 0.0
C2147 C 0.6357 0.77006 0.33578 0.0
C2148 C 0.61576 0.78287 0.32289 0.0
C2149 C 0.61583 0.80703 0.32801 0.0
C2150 C 0.67738 0.76962 0.36638 0.0
C2151 C 0.5939 0.77107 0.30584 0.0
C2152 C 0.64152 0.7051 0.30705 0.0
C2153 C 0.63335 0.69531 0.35392 0.0
C2154 C 0.64179 0.72925 0.29975 0.0
C2155 C 0.63456 0.74418 0.34095 0.0
C2156 C 0.62611 0.73431 0.38796 0.0
C2157 C 0.62489 0.71028 0.39299 0.0
C2158 C 0.64979 0.73879 0.24785 0.0
C2159 C 0.61896 0.74912 0.43403 0.0
H2160 H 0.67145 0.81566 0.36184 0.0
H2161 H 0.59989 0.81626 0.32316 0.0
H2162 H 0.67372 0.75934 0.40214 0.0
H2163 H 0.6828 0.75746 0.33518 0.0
H2164 H 0.69184 0.78144 0.37533 0.0
H2165 H 0.58203 0.78309 0.28551 0.0
H2166 H 0.59759 0.75648 0.27894 0.0
H2167 H 0.58503 0.76415 0.34089 0.0
H2168 H 0.64784 0.69393 0.27614 0.0
H2169 H 0.61805 0.70322 0.42909 0.0
H2170 H 0.66627 0.74797 0.25359 0.0
H2171 H 0.63718 0.75141 0.23253 0.0
H2172 H 0.65227 0.72514 0.21774 0.0
H2173 H 0.63306 0.76103 0.44512 0.0
H2174 H 0.61438 0.73883 0.46922 0.0
H2175 H 0.60395 0.75973 0.42286 0.0
C2176 C 0.8772 0.70619 0.20708 0.0
C2177 C 0.8856 0.69646 0.16022 0.0
C2178 C 0.87686 0.73022 0.21476 0.0
C2179 C 0.88446 0.74501 0.1741 0.0
C2180 C 0.89346 0.73523 0.12738 0.0
C2181 C 0.8945 0.71124 0.12175 0.0
C2182 C 0.86779 0.7398 0.26587 0.0
C2183 C 0.90116 0.7501 0.08216 0.0
C2184 C 0.8607 0.80591 0.16269 0.0
C2185 C 0.87995 0.81929 0.17496 0.0
C2186 C 0.86174 0.78177 0.16325 0.0
C2187 C 0.88228 0.77065 0.17901 0.0
C2188 C 0.90126 0.78424 0.19542 0.0
C2189 C 0.90004 0.80838 0.19204 0.0
C2190 C 0.84133 0.76827 0.14342 0.0
C2191 C 0.92314 0.77327 0.21477 0.0
H2192 H 0.87036 0.69508 0.23732 0.0
H2193 H 0.90148 0.70404 0.08581 0.0
H2194 H 0.87966 0.75301 0.28194 0.0
H2195 H 0.85105 0.74826 0.25864 0.0
H2196 H 0.86539 0.72626 0.29604 0.0
H2197 H 0.90738 0.73984 0.04813 0.0
H2198 H 0.88671 0.761 0.06854 0.0
H2199 H 0.91511 0.76173 0.09538 0.0
H2200 H 0.84504 0.81437 0.15045 0.0
H2201 H 0.91503 0.81867 0.20117 0.0
H2202 H 0.8371 0.75417 0.17087 0.0
H2203 H 0.84558 0.76037 0.10483 0.0
H2204 H 0.82592 0.77922 0.13808 0.0
H2205 H 0.91929 0.7601 0.24496 0.0
H2206 H 0.93519 0.78605 0.23207 0.0
H2207 H 0.93178 0.76446 0.18157 0.0
C2208 C 0.65366 0.20761 0.64546 0.0
C2209 C 0.63596 0.19424 0.66692 0.0
C2210 C 0.65303 0.23178 0.64636 0.0
C2211 C 0.63454 0.24334 0.67074 0.0
C2212 C 0.61713 0.23001 0.69484 0.0
C2213 C 0.61793 0.20572 0.69231 0.0
C2214 C 0.67185 0.24495 0.61939 0.0
C2215 C 0.59735 0.24143 0.7224 0.0
C2216 C 0.64469 0.30748 0.70027 0.0
C2217 C 0.63303 0.31821 0.65836 0.0
C2218 C 0.64455 0.28331 0.70614 0.0
C2219 C 0.633 0.26925 0.66848 0.0
C2220 C 0.62077 0.28005 0.62693 0.0
C2221 C 0.6205 0.30419 0.62327 0.0
C2222 C 0.65702 0.27279 0.75239 0.0
C2223 C 0.60871 0.26609 0.58478 0.0
H2224 H 0.66808 0.19915 0.6272 0.0
H2225 H 0.60419 0.19575 0.70936 0.0
H2226 H 0.66451 0.25422 0.58514 0.0
H2227 H 0.67932 0.258 0.6464 0.0
H2228 H 0.68583 0.23362 0.6053 0.0
H2229 H 0.58653 0.22892 0.74387 0.0
H2230 H 0.60379 0.2545 0.75081 0.0
H2231 H 0.58646 0.25046 0.69306 0.0
H2232 H 0.65417 0.31795 0.72831 0.0
H2233 H 0.61056 0.31211 0.59221 0.0
H2234 H 0.67199 0.26288 0.73822 0.0
H2235 H 0.6456 0.26062 0.77316 0.0
H2236 H 0.66316 0.28593 0.78102 0.0
H2237 H 0.62174 0.25794 0.55916 0.0
H2238 H 0.59726 0.27676 0.55976 0.0
H2239 H 0.59841 0.25213 0.60234 0.0
C2240 C 0.95844 0.36995 0.88344 0.0
C2241 C 0.9445 0.38313 0.9169 0.0
C2242 C 0.98249 0.37065 0.88693 0.0
C2243 C 0.99322 0.38407 0.92666 0.0
C2244 C 0.97928 0.39628 0.96293 0.0
C2245 C 0.95513 0.3959 0.95729 0.0
C2246 C 0.99639 0.35781 0.84634 0.0
C2247 C 0.98994 0.41027 1.00684 0.0
C2248 C 0.05685 0.3699 0.94748 0.0
C2249 C 0.06755 0.38721 0.91821 0.0
C2250 C 0.03275 0.36932 0.95302 0.0
C2251 C 0.01893 0.38618 0.92793 0.0
C2252 C 0.0298 0.40412 0.90014 0.0
C2253 C 0.05379 0.40458 0.89641 0.0
C2254 C 0.022 0.35025 0.98436 0.0
C2255 C 0.0162 0.42209 0.87097 0.0
H2256 H 0.95053 0.35927 0.85349 0.0
H2257 H 0.94464 0.40598 0.98377 0.0
H2258 H 1.00437 0.3703 0.81909 0.0
H2259 H 0.01046 0.348 0.86525 0.0
H2260 H 0.98574 0.34568 0.8228 0.0
H2261 H 0.97698 0.41652 0.03536 0.0
H2262 H 1.00292 0.39992 0.02836 0.0
H2263 H 0.99891 0.42531 0.99 0.0
H2264 H 0.06721 0.35648 0.96503 0.0
H2265 H 0.06172 0.41851 0.87522 0.0
H2266 H 0.01235 0.33863 0.95749 0.0
H2267 H 0.00959 0.35741 0.013 0.0
H2268 H 0.03499 0.33998 1.00613 0.0
H2269 H 0.00954 0.41427 0.83411 0.0
H2270 H 0.02687 0.43712 0.86017 0.0
H2271 H 1.00137 0.42813 0.89425 0.0
C2272 C 0.45848 0.62058 0.45545 0.0
C2273 C 0.44808 0.63159 0.41225 0.0
C2274 C 0.48263 0.62061 0.46241 0.0
C2275 C 0.49693 0.63164 0.42501 0.0
C2276 C 0.48641 0.64335 0.38235 0.0
C2277 C 0.46234 0.64356 0.37717 0.0
C2278 C 0.49293 0.60822 0.50899 0.0
C2279 C 0.50062 0.6547 0.34031 0.0
C2280 C 0.56089 0.64556 0.44868 0.0
C2281 C 0.57179 0.62739 0.42231 0.0
C2282 C 0.53664 0.64674 0.45186 0.0
C2283 C 0.52278 0.62952 0.42766 0.0
C2284 C 0.5338 0.61081 0.40264 0.0
C2285 C 0.55791 0.60987 0.4009 0.0
C2286 C 0.52579 0.66678 0.47988 0.0
C2287 C 0.52013 0.59217 0.37542 0.0
H2288 H 0.44781 0.6114 0.48311 0.0
H2289 H 0.4547 0.65241 0.34389 0.0
H2290 H 0.50286 0.59319 0.49502 0.0
H2291 H 0.50503 0.61967 0.53045 0.0
H2292 H 0.47967 0.60216 0.5369 0.0
H2293 H 0.48998 0.66449 0.31171 0.0
H2294 H 0.51338 0.66649 0.35841 0.0
H2295 H 0.51023 0.64137 0.31832 0.0
H2296 H 0.57124 0.65921 0.46558 0.0
H2297 H 0.56589 0.59536 0.38165 0.0
H2298 H 0.51291 0.66061 0.50855 0.0
H2299 H 0.51664 0.67771 0.45084 0.0
H2300 H 0.53865 0.67749 0.50114 0.0
H2301 H 0.50654 0.58556 0.40162 0.0
H2302 H 0.53103 0.57757 0.3628 0.0
H2303 H 0.51156 0.59944 0.34004 0.0
C2304 C 0.45511 0.39601 0.56345 0.0
C2305 C 0.44513 0.3816 0.60114 0.0
C2306 C 0.47917 0.39688 0.55706 0.0
C2307 C 0.49366 0.38303 0.58904 0.0
C2308 C 0.48352 0.36791 0.62578 0.0
C2309 C 0.45954 0.36731 0.63112 0.0
C2310 C 0.48914 0.41333 0.51758 0.0
C2311 C 0.49804 0.35301 0.66129 0.0
C2312 C 0.55722 0.37069 0.56265 0.0
C2313 C 0.56806 0.3864 0.59668 0.0
C2314 C 0.53306 0.37033 0.55701 0.0
C2315 C 0.51937 0.38548 0.5875 0.0
C2316 C 0.53048 0.40205 0.61982 0.0
C2317 C 0.55454 0.40265 0.62263 0.0
C2318 C 0.52215 0.35328 0.51968 0.0
C2319 C 0.5171 0.41825 0.6544 0.0
H2320 H 0.44421 0.40723 0.54031 0.0
H2321 H 0.45204 0.35599 0.66012 0.0
H2322 H 0.49829 0.42733 0.53872 0.0
H2323 H 0.50184 0.40442 0.49242 0.0
H2324 H 0.47574 0.42109 0.49191 0.0
H2325 H 0.48755 0.3414 0.68602 0.0
H2326 H 0.50993 0.34245 0.63747 0.0
H2327 H 0.50863 0.36402 0.6877 0.0
H2328 H 0.5675 0.35821 0.54177 0.0
H2329 H 0.56286 0.41585 0.64568 0.0
H2330 H 0.50922 0.36193 0.49433 0.0
H2331 H 0.51308 0.33991 0.54251 0.0
H2332 H 0.53499 0.34478 0.49405 0.0
H2333 H 0.52759 0.43316 0.66736 0.0
H2334 H 0.51156 0.40882 0.69007 0.0
H2335 H 0.50154 0.42472 0.63406 0.0
C2336 C 0.05682 0.65008 0.07632 0.0
C2337 C 0.06826 0.62979 0.09035 0.0
C2338 C 0.03284 0.65055 0.06832 0.0
C2339 C 0.01946 0.63087 0.07972 0.0
C2340 C 0.03096 0.6103 0.09399 0.0
C2341 C 0.05518 0.6098 0.09683 0.0
C2342 C 0.02176 0.67252 0.05004 0.0
C2343 C 0.01764 0.58923 0.10959 0.0
C2344 C 0.95914 0.64187 0.13284 0.0
C2345 C 0.94486 0.63371 0.09222 0.0
C2346 C 0.98321 0.64125 0.12897 0.0
C2347 C 0.99362 0.63254 0.08265 0.0
C2348 C 0.97923 0.62534 0.04013 0.0
C2349 C 0.95505 0.62589 0.04551 0.0
C2350 C 0.99746 0.64908 0.17567 0.0
C2351 C 0.98936 0.61719 0.98884 0.0
H2352 H 0.06649 0.66582 0.07263 0.0
H2353 H 0.06385 0.59404 0.10754 0.0
H2354 H 0.00818 0.66888 0.02024 0.0
H2355 H 0.01357 0.68127 0.08392 0.0
H2356 H 0.03445 0.68445 0.03261 0.0
H2357 H 0.02899 0.57446 0.11876 0.0
H2358 H 1.00718 0.59314 0.14493 0.0
H2359 H 1.00561 0.58412 0.07759 0.0
H2360 H 0.95139 0.6487 0.16811 0.0
H2361 H 0.94415 0.61962 0.01377 0.0
H2362 H 0.01204 0.6599 0.16331 0.0
H2363 H 1.00473 0.63384 0.19582 0.0
H2364 H 0.98723 0.6591 0.20433 0.0
H2365 H 0.99883 0.63152 0.97026 0.0
H2366 H 0.97605 0.61094 0.9607 0.0
H2367 H 1.00187 0.60322 0.99596 0.0
C2368 C 0.14346 0.54145 0.09814 0.0
C2369 C 0.13361 0.5612 0.07655 0.0
C2370 C 0.14369 0.52049 0.07017 0.0
C2371 C 0.13399 0.5192 0.01871 0.0
C2372 C 0.12407 0.53925 0.99658 0.0
C2373 C 0.12407 0.55999 0.02566 0.0
C2374 C 0.15461 0.4998 0.0956 0.0
C2375 C 0.11343 0.53877 0.94214 0.0
C2376 C 0.15218 0.46928 0.9287 0.0
C2377 C 0.13485 0.45313 0.9378 0.0
C2378 C 0.15209 0.49087 0.95438 0.0
C2379 C 0.13388 0.49678 0.98877 0.0
C2380 C 0.11588 0.4808 0.99615 0.0
C2381 C 0.11677 0.45915 0.97134 0.0
C2382 C 0.17196 0.507 0.94626 0.0
C2383 C 0.09583 0.48638 0.03124 0.0
H2384 H 0.15141 0.54247 0.13661 0.0
H2385 H 0.11679 0.57536 0.00841 0.0
H2386 H 0.14187 0.48575 0.09881 0.0
H2387 H 0.16878 0.49339 0.07063 0.0
H2388 H 0.16149 0.50365 0.13566 0.0
H2389 H 0.10654 0.55576 0.93032 0.0
H2390 H 0.12632 0.53329 0.91272 0.0
H2391 H 0.09931 0.52602 0.94079 0.0
H2392 H 0.16637 0.46462 0.90349 0.0
H2393 H 0.10329 0.44677 0.97847 0.0
H2394 H 0.18098 0.50994 0.9844 0.0
H2395 H 0.16566 0.52389 0.93236 0.0
H2396 H 0.18446 0.50022 0.91728 0.0
H2397 H 0.10183 0.48836 0.07265 0.0
H2398 H 0.08242 0.47286 0.02986 0.0
H2399 H 0.08802 0.50293 0.01927 0.0
C2400 C 0.70655 0.8961 0.27786 0.0
C2401 C 0.70352 0.88588 0.3275 0.0
C2402 C 0.72773 0.89568 0.25115 0.0
C2403 C 0.74713 0.88502 0.27458 0.0
C2404 C 0.74427 0.8745 0.32476 0.0
C2405 C 0.72255 0.87467 0.34996 0.0
C2406 C 0.72874 0.90701 0.19777 0.0
C2407 C 0.76434 0.86348 0.35248 0.0
C2408 C 0.79865 0.86925 0.18592 0.0
C2409 C 0.81329 0.88826 0.19241 0.0
C2410 C 0.7773 0.86787 0.21236 0.0
C2411 C 0.77035 0.88563 0.24746 0.0
C2412 C 0.78494 0.90497 0.25336 0.0
C2413 C 0.80583 0.90616 0.22549 0.0
C2414 C 0.76182 0.84767 0.20157 0.0
C2415 C 0.7782 0.92478 0.28838 0.0
H2416 H 0.6921 0.90436 0.25917 0.0
H2417 H 0.72067 0.86633 0.38765 0.0
H2418 H 0.7458 0.90635 0.17895 0.0
H2419 H 0.71619 0.89859 0.17086 0.0
H2420 H 0.72359 0.92525 0.20177 0.0
H2421 H 0.75954 0.85603 0.39114 0.0
H2422 H 0.77162 0.84972 0.32733 0.0
H2423 H 0.77804 0.87642 0.35909 0.0
H2424 H 0.8038 0.85541 0.15993 0.0
H2425 H 0.81627 0.92141 0.22919 0.0
H2426 H 0.74533 0.85383 0.18467 0.0
H2427 H 0.75787 0.83874 0.23898 0.0
H2428 H 0.76953 0.8352 0.17363 0.0
H2429 H 0.76213 0.93262 0.27326 0.0
H2430 H 0.79162 0.93827 0.29036 0.0
H2431 H 0.77482 0.91854 0.32892 0.0
C2432 C 0.40126 0.46184 0.56438 0.0
C2433 C 0.38018 0.45201 0.57801 0.0
C2434 C 0.40232 0.48263 0.53597 0.0
C2435 C 0.38184 0.49441 0.52227 0.0
C2436 C 0.36053 0.48475 0.53716 0.0
C2437 C 0.35996 0.46359 0.56401 0.0
C2438 C 0.42539 0.49188 0.52004 0.0
C2439 C 0.33826 0.49678 0.52474 0.0
C2440 C 0.38361 0.55884 0.49179 0.0
C2441 C 0.3826 0.55916 0.43644 0.0
C2442 C 0.38391 0.538 0.52007 0.0
C2443 C 0.38265 0.51678 0.49254 0.0
C2444 C 0.38156 0.51707 0.43656 0.0
C2445 C 0.38168 0.53818 0.40943 0.0
C2446 C 0.38519 0.53872 0.57956 0.0
C2447 C 0.37971 0.49509 0.4052 0.0
H2448 H 0.41696 0.45296 0.57477 0.0
H2449 H 0.34359 0.45624 0.57478 0.0
H2450 H 0.42597 0.4939 0.47654 0.0
H2451 H 0.42809 0.50911 0.53772 0.0
H2452 H 0.43968 0.48051 0.53252 0.0
H2453 H 0.3232 0.48755 0.5408 0.0
H2454 H 0.33852 0.51442 0.54137 0.0
H2455 H 0.33607 0.49836 0.48139 0.0
H2456 H 0.38414 0.57498 0.51309 0.0
H2457 H 0.38007 0.53822 0.36718 0.0
H2458 H 0.40022 0.52878 0.59364 0.0
H2459 H 0.36971 0.53057 0.5964 0.0
H2460 H 0.38655 0.55652 0.59512 0.0
H2461 H 0.39445 0.48377 0.41451 0.0
H2462 H 0.37925 0.49817 0.36196 0.0
H2463 H 0.36392 0.48573 0.4163 0.0
C2464 C 0.79232 0.12879 0.8442 0.0
C2465 C 0.81299 0.12598 0.81673 0.0
C2466 C 0.77079 0.12878 0.81772 0.0
C2467 C 0.76956 0.12554 0.76209 0.0
C2468 C 0.79033 0.12264 0.73422 0.0
C2469 C 0.81153 0.12299 0.76152 0.0
C2470 C 0.74929 0.13214 0.84948 0.0
C2471 C 0.7902 0.11914 0.67516 0.0
C2472 C 0.71376 0.10365 0.69645 0.0
C2473 C 0.70322 0.12398 0.6795 0.0
C2474 C 0.735 0.10394 0.72389 0.0
C2475 C 0.7467 0.125 0.73296 0.0
C2476 C 0.73657 0.14548 0.7134 0.0
C2477 C 0.71484 0.14477 0.68816 0.0
C2478 C 0.74457 0.0817 0.74479 0.0
C2479 C 0.74845 0.1683 0.72021 0.0
H2480 H 0.79285 0.13111 0.88644 0.0
H2481 H 0.8271 0.12062 0.73913 0.0
H2482 H 0.73961 0.14714 0.83442 0.0
H2483 H 0.73803 0.11691 0.84503 0.0
H2484 H 0.75301 0.13488 0.89211 0.0
H2485 H 0.80774 0.1174 0.65893 0.0
H2486 H 0.7803 0.10349 0.66483 0.0
H2487 H 0.78159 0.13382 0.6556 0.0
H2488 H 0.7049 0.08753 0.69031 0.0
H2489 H 0.70668 0.16061 0.67597 0.0
H2490 H 0.74681 0.0829 0.78824 0.0
H2491 H 0.76171 0.07845 0.72774 0.0
H2492 H 0.73328 0.06684 0.73561 0.0
H2493 H 0.7494 0.17281 0.76273 0.0
H2494 H 0.73941 0.18229 0.69895 0.0
H2495 H 0.76628 0.16726 0.70553 0.0
C2496 C 0.88806 0.55892 0.02271 0.0
C2497 C 0.87665 0.5624 0.07097 0.0
C2498 C 0.88767 0.5377 0.99599 0.0
C2499 C 0.87553 0.51894 0.01741 0.0
C2500 C 0.86402 0.52213 0.06627 0.0
C2501 C 0.86473 0.54374 0.09247 0.0
C2502 C 0.90049 0.53536 0.94467 0.0
C2503 C 0.8509 0.50268 0.09084 0.0
C2504 C 0.86109 0.46891 0.92227 0.0
C2505 C 0.87815 0.45284 0.93488 0.0
C2506 C 0.85971 0.49023 0.94934 0.0
C2507 C 0.87596 0.49589 0.98953 0.0
C2508 C 0.89355 0.47989 1.00113 0.0
C2509 C 0.8943 0.4587 0.97418 0.0
C2510 C 0.84056 0.50655 0.9357 0.0
C2511 C 0.91165 0.4851 0.04236 0.0
H2512 H 0.89749 0.57296 1.00526 0.0
H2513 H 0.85571 0.54608 0.12932 0.0
H2514 H 0.91379 0.52186 0.94835 0.0
H2515 H 0.88858 0.52996 0.91264 0.0
H2516 H 0.90892 0.55161 0.9328 0.0
H2517 H 0.84195 0.50803 0.1274 0.0
H2518 H 0.83807 0.49585 0.0623 0.0
H2519 H 0.86279 0.48845 0.10058 0.0
H2520 H 0.84825 0.46443 0.89289 0.0
H2521 H 0.90753 0.44642 0.98448 0.0
H2522 H 0.84774 0.52311 0.92208 0.0
H2523 H 0.83027 0.51023 0.9714 0.0
H2524 H 0.82904 0.49961 0.90443 0.0
H2525 H 0.92113 0.50088 0.0315 0.0
H2526 H 0.92415 0.47088 0.04701 0.0
H2527 H 0.90348 0.4884 0.08103 0.0
C2528 C 0.2188 0.14015 0.84204 0.0
C2529 C 0.20029 0.12716 0.82235 0.0
C2530 C 0.24015 0.14085 0.81596 0.0
C2531 C 0.24294 0.12952 0.76673 0.0
C2532 C 0.22397 0.11728 0.74534 0.0
C2533 C 0.20334 0.11567 0.77404 0.0
C2534 C 0.25995 0.15327 0.84189 0.0
C2535 C 0.22528 0.10542 0.69241 0.0
C2536 C 0.29339 0.1472 0.67801 0.0
C2537 C 0.30905 0.12921 0.68578 0.0
C2538 C 0.27188 0.1475 0.70363 0.0
C2539 C 0.26586 0.12963 0.73896 0.0
C2540 C 0.28164 0.11148 0.74691 0.0
C2541 C 0.30282 0.11145 0.72036 0.0
C2542 C 0.25537 0.16673 0.692 0.0
C2543 C 0.27606 0.09186 0.78333 0.0
H2544 H 0.21684 0.14951 0.87847 0.0
H2545 H 0.1894 0.1056 0.75805 0.0
H2546 H 0.2741 0.14098 0.8496 0.0
H2547 H 0.26668 0.16665 0.81517 0.0
H2548 H 0.25507 0.16146 0.8798 0.0
H2549 H 0.20856 0.10644 0.67151 0.0
H2550 H 0.23851 0.11292 0.66643 0.0
H2551 H 0.22933 0.08703 0.69853 0.0
H2552 H 0.29787 0.16107 0.65179 0.0
H2553 H 0.31458 0.09735 0.72688 0.0
H2554 H 0.2513 0.17612 0.72891 0.0
H2555 H 0.23906 0.15955 0.67627 0.0
H2556 H 0.2623 0.17909 0.66291 0.0
H2557 H 0.27167 0.09855 0.82305 0.0
H2558 H 0.29049 0.07956 0.78735 0.0
H2559 H 0.26086 0.08246 0.768 0.0
C2560 C 0.62465 0.55707 0.49243 0.0
C2561 C 0.63707 0.56054 0.44566 0.0
C2562 C 0.62401 0.53558 0.51806 0.0
C2563 C 0.63629 0.51664 0.49725 0.0
C2564 C 0.64859 0.51989 0.44953 0.0
C2565 C 0.64874 0.54162 0.42428 0.0
C2566 C 0.61042 0.53326 0.56819 0.0
C2567 C 0.66189 0.50041 0.42541 0.0
C2568 C 0.65381 0.46806 0.59258 0.0
C2569 C 0.63712 0.45121 0.58282 0.0
C2570 C 0.65363 0.48929 0.56554 0.0
C2571 C 0.63669 0.49382 0.52633 0.0
C2572 C 0.61986 0.47667 0.51614 0.0
C2573 C 0.62019 0.45575 0.54461 0.0
C2574 C 0.6718 0.50686 0.57871 0.0
C2575 C 0.6016 0.48032 0.4746 0.0
H2576 H 0.61542 0.57137 0.50957 0.0
H2577 H 0.65859 0.54393 0.38862 0.0
H2578 H 0.59782 0.5191 0.56412 0.0
H2579 H 0.62205 0.52885 0.60145 0.0
H2580 H 0.60108 0.54925 0.5784 0.0
H2581 H 0.67146 0.50575 0.38978 0.0
H2582 H 0.67421 0.49335 0.45468 0.0
H2583 H 0.64995 0.48638 0.41423 0.0
H2584 H 0.66717 0.46456 0.62141 0.0
H2585 H 0.60753 0.44263 0.5359 0.0
H2586 H 0.66364 0.52312 0.59153 0.0
H2587 H 0.68198 0.51071 0.54302 0.0
H2588 H 0.68359 0.50097 0.61048 0.0
H2589 H 0.59134 0.49575 0.48439 0.0
H2590 H 0.58988 0.46537 0.47077 0.0
H2591 H 0.60968 0.48345 0.4358 0.0
C2592 C 0.30197 0.86668 0.31787 0.0
C2593 C 0.31416 0.88732 0.32397 0.0
C2594 C 0.28107 0.86573 0.28913 0.0
C2595 C 0.27172 0.88595 0.26638 0.0
C2596 C 0.28385 0.90687 0.27323 0.0
C2597 C 0.30477 0.90727 0.30166 0.0
C2598 C 0.26899 0.84298 0.28301 0.0
C2599 C 0.2745 0.92904 0.25135 0.0
C2600 C 0.22476 0.88322 0.15791 0.0
C2601 C 0.20444 0.8852 0.18707 0.0
C2602 C 0.24665 0.88298 0.18291 0.0
C2603 C 0.24861 0.88557 0.2386 0.0
C2604 C 0.22829 0.88822 0.2681 0.0
C2605 C 0.20677 0.88766 0.24244 0.0
C2606 C 0.26773 0.8798 0.14961 0.0
C2607 C 0.2292 0.89182 0.32718 0.0
H2608 H 0.30893 0.85113 0.33494 0.0
H2609 H 0.31378 0.9234 0.3067 0.0
H2610 H 0.25227 0.84356 0.30345 0.0
H2611 H 0.26543 0.83948 0.24066 0.0
H2612 H 0.27918 0.82857 0.29952 0.0
H2613 H 0.28614 0.94379 0.25906 0.0
H2614 H 0.27176 0.92747 0.20815 0.0
H2615 H 0.25762 0.93279 0.26928 0.0
H2616 H 0.22378 0.88172 0.11567 0.0
H2617 H 0.19161 0.88949 0.26649 0.0
H2618 H 0.27797 0.86514 0.16463 0.0
H2619 H 0.27873 0.89528 0.15238 0.0
H2620 H 0.26344 0.87664 0.10742 0.0
H2621 H 0.23654 0.87645 0.3466 0.0
H2622 H 0.21201 0.89515 0.34413 0.0
H2623 H 0.24055 0.90652 0.33708 0.0
C2624 C 0.62071 0.95889 0.4783 0.0
C2625 C 0.63877 0.9526 0.44482 0.0
C2626 C 0.6201 0.98051 0.5037 0.0
C2627 C 0.6384 0.99628 0.49727 0.0
C2628 C 0.65674 0.98999 0.46348 0.0
C2629 C 0.65652 0.96848 0.43707 0.0
C2630 C 0.59979 0.98644 0.53765 0.0
C2631 C 0.67689 1.00582 0.45611 0.0
C2632 C 0.62603 0.05979 0.52737 0.0
C2633 C 0.6347 0.0627 0.579 0.0
C2634 C 0.62769 0.03865 0.50014 0.0
C2635 C 0.63795 0.01942 0.52497 0.0
C2636 C 0.64697 0.02228 0.57689 0.0
C2637 C 0.64555 0.04384 0.60276 0.0
C2638 C 0.61804 0.03683 0.44484 0.0
C2639 C 0.65787 1.00242 0.60558 0.0
H2640 H 0.60685 0.94682 0.48447 0.0
H2641 H 0.67071 0.9637 0.41197 0.0
H2642 H 0.60553 0.98965 0.57884 0.0
H2643 H 0.59165 1.00246 0.52323 0.0
H2644 H 0.58668 0.97262 0.53775 0.0
H2645 H 0.68979 0.99857 0.42869 0.0
H2646 H 0.67098 0.02257 0.44056 0.0
H2647 H 0.68531 0.00917 0.49479 0.0
H2648 H 0.61779 0.07413 0.50789 0.0
H2649 H 0.65285 0.04585 0.64181 0.0
H2650 H 0.60385 0.02416 0.44388 0.0
H2651 H 0.6314 0.03056 0.41743 0.0
H2652 H 0.61147 0.05351 0.43005 0.0
H2653 H 0.64498 0.98868 0.61145 0.0
H2654 H 0.6649 0.00752 0.64476 0.0
H2655 H 0.67187 0.99502 0.58153 0.0
C2656 C 0.21052 0.40656 0.80344 0.0
C2657 C 0.20207 0.38771 0.83178 0.0
C2658 C 0.23155 0.40565 0.77652 0.0
C2659 C 0.24529 0.38566 0.77933 0.0
C2660 C 0.23734 0.36681 0.80963 0.0
C2661 C 0.21583 0.36798 0.83508 0.0
C2662 C 0.23909 0.42628 0.74527 0.0
C2663 C 0.25155 0.34535 0.81505 0.0
C2664 C 0.29199 0.37855 0.67372 0.0
C2665 C 0.31175 0.38633 0.70026 0.0
C2666 C 0.27046 0.37765 0.69911 0.0
C2667 C 0.26833 0.38504 0.75238 0.0
C2668 C 0.28818 0.39297 0.77928 0.0
C2669 C 0.30946 0.39329 0.75332 0.0
C2670 C 0.2499 0.36888 0.66878 0.0
C2671 C 0.28692 0.40149 0.83554 0.0
H2672 H 0.20044 0.42214 0.80149 0.0
H2673 H 0.20969 0.35334 0.85705 0.0
H2674 H 0.25418 0.43429 0.7648 0.0
H2675 H 0.24439 0.42106 0.70503 0.0
H2676 H 0.22535 0.43937 0.74174 0.0
H2677 H 0.24312 0.33225 0.84001 0.0
H2678 H 0.25477 0.33785 0.77549 0.0
H2679 H 0.26847 0.34961 0.83277 0.0
H2680 H 0.29333 0.37279 0.63337 0.0
H2681 H 0.32437 0.39943 0.77482 0.0
H2682 H 0.23676 0.38255 0.66593 0.0
H2683 H 0.24204 0.35431 0.69011 0.0
H2684 H 0.25436 0.36314 0.62828 0.0
H2685 H 0.27557 0.41672 0.83758 0.0
H2686 H 0.304 0.4063 0.85174 0.0
H2687 H 0.27936 0.38813 0.86114 0.0
C2688 C 0.86939 0.97283 0.10466 0.0
C2689 C 0.8814 0.95421 0.08304 0.0
C2690 C 0.86951 0.99466 0.08004 0.0
C2691 C 0.88167 0.99801 0.03219 0.0
C2692 C 0.89408 0.97932 0.01087 0.0
C2693 C 0.89391 0.95794 0.0365 0.0
C2694 C 0.85619 0.01404 0.10465 0.0
C2695 C 0.90709 0.9817 0.95986 0.0
C2696 C 0.8635 0.04601 0.9372 0.0
C2697 C 0.8812 0.06209 0.94346 0.0
C2698 C 0.8635 0.02517 0.96543 0.0
C2699 C 0.88101 0.02064 1.00318 0.0
C2700 C 0.89859 0.03725 0.01071 0.0
C2701 C 0.89873 0.0575 0.98007 0.0
C2702 C 0.8449 0.0078 0.95412 0.0
C2703 C 0.91717 0.03368 0.05153 0.0
H2704 H 0.85935 0.97022 0.13992 0.0
H2705 H 0.90338 0.94384 0.01917 0.0
H2706 H 0.86719 0.02949 0.10871 0.0
H2707 H 0.84156 0.01867 0.07865 0.0
H2708 H 0.84944 0.00945 0.1441 0.0
H2709 H 0.91595 0.9656 0.94842 0.0
H2710 H 0.89514 0.98659 0.92754 0.0
H2711 H 0.92004 0.99555 0.96352 0.0
H2712 H 0.84977 0.04959 0.90947 0.0
H2713 H 0.91221 0.07008 0.98582 0.0
H2714 H 0.83507 1.00434 0.9905 0.0
H2715 H 0.85266 0.99133 0.94138 0.0
H2716 H 0.83282 0.01365 0.92285 0.0
H2717 H 0.9094 0.03047 0.09065 0.0
H2718 H 0.92884 0.04869 0.05488 0.0
H2719 H 0.92746 0.01833 0.04129 0.0
C2720 C 0.20337 0.62347 0.25462 0.0
C2721 C 0.20163 0.6245 0.19911 0.0
C2722 C 0.22477 0.62291 0.28108 0.0
C2723 C 0.24537 0.62406 0.25196 0.0
C2724 C 0.24384 0.62541 0.19611 0.0
C2725 C 0.22218 0.62509 0.1706 0.0
C2726 C 0.22528 0.62101 0.34046 0.0
C2727 C 0.26518 0.62707 0.16307 0.0
C2728 C 0.30205 0.64301 0.31759 0.0
C2729 C 0.31279 0.62199 0.32832 0.0
C2730 C 0.27982 0.64394 0.29502 0.0
C2731 C 0.26844 0.62338 0.27973 0.0
C2732 C 0.27928 0.60211 0.29081 0.0
C2733 C 0.30082 0.60169 0.31667 0.0
C2734 C 0.26864 0.66699 0.28684 0.0
C2735 C 0.26841 0.57974 0.27395 0.0
H2736 H 0.18788 0.62267 0.27783 0.0
H2737 H 0.22157 0.62536 0.12827 0.0
H2738 H 0.23448 0.60518 0.35229 0.0
H2739 H 0.2348 0.63573 0.35779 0.0
H2740 H 0.20783 0.62056 0.35761 0.0
H2741 H 0.2612 0.62888 0.12034 0.0
H2742 H 0.27559 0.64204 0.17588 0.0
H2743 H 0.27586 0.61153 0.16885 0.0
H2744 H 0.31108 0.65878 0.32697 0.0
H2745 H 0.30877 0.58537 0.32567 0.0
H2746 H 0.25122 0.66705 0.3041 0.0
H2747 H 0.2667 0.67037 0.244 0.0
H2748 H 0.27874 0.68116 0.305 0.0
H2749 H 0.25191 0.57736 0.29461 0.0
H2750 H 0.27961 0.56477 0.28239 0.0
H2751 H 0.2646 0.58004 0.23099 0.0
C2752 C 0.37895 0.97123 0.41275 0.0
C2753 C 0.37914 0.95092 0.44248 0.0
C2754 C 0.37849 0.99318 0.43737 0.0
C2755 C 0.37771 0.99515 0.49334 0.0
C2756 C 0.37774 0.97475 0.52345 0.0
C2757 C 0.37864 0.9532 0.49802 0.0
C2758 C 0.37868 0.01434 0.40335 0.0
C2759 C 0.37675 0.97561 0.58298 0.0
C2760 C 0.39544 0.0522 0.55975 0.0
C2761 C 0.37426 0.06181 0.57358 0.0
C2762 C 0.39686 0.0304 0.53505 0.0
C2763 C 0.37656 0.01834 0.5207 0.0
C2764 C 0.35513 0.02808 0.5347 0.0
C2765 C 0.35431 0.04915 0.56257 0.0
C2766 C 0.42015 0.02029 0.5243 0.0
C2767 C 0.33295 0.0165 0.51916 0.0
H2768 H 0.37918 0.97013 0.37027 0.0
H2769 H 0.37858 0.93796 0.52233 0.0
H2770 H 0.36302 0.02463 0.41068 0.0
H2771 H 0.39361 0.02525 0.41392 0.0
H2772 H 0.37952 0.01012 0.36062 0.0
H2773 H 0.37754 0.95829 0.60099 0.0
H2774 H 0.39115 0.98605 0.59882 0.0
H2775 H 0.36064 0.98401 0.59563 0.0
H2776 H 0.41097 0.06173 0.56855 0.0
H2777 H 0.33788 0.05611 0.57405 0.0
H2778 H 0.42256 0.01826 0.48117 0.0
H2779 H 0.42143 1.00296 0.54206 0.0
H2780 H 0.43425 0.0311 0.54043 0.0
H2781 H 0.33251 0.01355 0.47586 0.0
H2782 H 0.31771 0.02682 0.53024 0.0
H2783 H 0.33174 0.99949 0.53833 0.0
C2784 C 0.81235 0.63594 0.24556 0.0
C2785 C 0.81377 0.63029 0.19151 0.0
C2786 C 0.79135 0.63531 0.27311 0.0
C2787 C 0.77069 0.62971 0.24607 0.0
C2788 C 0.77196 0.62404 0.19154 0.0
C2789 C 0.79341 0.6238 0.16559 0.0
C2790 C 0.79135 0.64044 0.33156 0.0
C2791 C 0.75057 0.61849 0.16022 0.0
C2792 C 0.71824 0.60812 0.32297 0.0
C2793 C 0.70527 0.62817 0.33032 0.0
C2794 C 0.73957 0.60849 0.29683 0.0
C2795 C 0.74801 0.62925 0.27516 0.0
C2796 C 0.73483 0.64955 0.28217 0.0
C2797 C 0.71397 0.64885 0.31052 0.0
C2798 C 0.7532 0.58657 0.2928 0.0
C2799 C 0.74254 0.67198 0.25877 0.0
H2800 H 0.82782 0.64063 0.26689 0.0
H2801 H 0.79414 0.61859 0.12487 0.0
H2802 H 0.78093 0.65595 0.33954 0.0
H2803 H 0.78338 0.62602 0.35326 0.0
H2804 H 0.8089 0.64327 0.34756 0.0
H2805 H 0.75424 0.61509 0.11795 0.0
H2806 H 0.74199 0.60322 0.17696 0.0
H2807 H 0.73833 0.633 0.16288 0.0
H2808 H 0.7118 0.59208 0.33848 0.0
H2809 H 0.70404 0.6644 0.31559 0.0
H2810 H 0.77066 0.58922 0.30942 0.0
H2811 H 0.7552 0.58163 0.25079 0.0
H2812 H 0.74496 0.57215 0.31399 0.0
H2813 H 0.75898 0.67739 0.27714 0.0
H2814 H 0.72976 0.68586 0.26451 0.0
H2815 H 0.7456 0.66982 0.21585 0.0
C2816 C 0.14086 0.05775 0.99776 0.0
C2817 C 0.1342 0.06059 0.94437 0.0
C2818 C 0.14152 0.03611 0.02244 0.0
C2819 C 0.13448 0.01623 0.99444 0.0
C2820 C 0.12732 0.01878 0.94098 0.0
C2821 C 0.12765 0.0407 0.91654 0.0
C2822 C 0.15014 0.03453 0.07868 0.0
C2823 C 0.11911 0.9983 0.90959 0.0
C2824 C 0.1563 0.95808 0.04582 0.0
C2825 C 0.13786 0.94995 0.07588 0.0
C2826 C 0.1552 0.97912 0.01833 0.0
C2827 C 0.13523 0.99293 0.02108 0.0
C2828 C 0.11662 0.985 0.05205 0.0
C2829 C 0.11815 0.96375 0.07897 0.0
C2830 C 0.17567 0.98671 0.9868 0.0
C2831 C 0.09502 0.99902 0.05688 0.0
H2832 H 0.14611 0.07259 0.02071 0.0
H2833 H 0.12243 0.04212 0.87597 0.0
H2834 H 0.1366 0.02737 0.10431 0.0
H2835 H 0.165 0.02269 0.08077 0.0
H2836 H 0.15548 0.05145 0.09488 0.0
H2837 H 0.1134 1.00304 0.86917 0.0
H2838 H 0.13302 0.98542 0.90651 0.0
H2839 H 0.10464 0.98997 0.93025 0.0
H2840 H 0.17186 0.94799 0.04406 0.0
H2841 H 0.10379 0.95788 0.10219 0.0
H2842 H 0.18218 1.00332 1.00234 0.0
H2843 H 0.17059 0.98948 0.94505 0.0
H2844 H 0.18982 0.97399 0.98793 0.0
H2845 H 0.09892 0.01558 0.07666 0.0
H2846 H 0.0816 0.99004 0.07982 0.0
H2847 H 0.08809 1.00303 0.01707 0.0
C2848 C 0.71535 0.36464 0.69389 0.0
C2849 C 0.70549 0.38532 0.67704 0.0
C2850 C 0.73704 0.36406 0.71898 0.0
C2851 C 0.74846 0.38487 0.73223 0.0
C2852 C 0.73852 0.40585 0.71486 0.0
C2853 C 0.71787 0.40567 0.68524 0.0
C2854 C 0.74732 0.34095 0.73145 0.0
C2855 C 0.74911 0.42867 0.72929 0.0
C2856 C 0.79215 0.38089 0.84723 0.0
C2857 C 0.81292 0.38614 0.82254 0.0
C2858 C 0.7711 0.38082 0.81889 0.0
C2859 C 0.77075 0.38478 0.76342 0.0
C2860 C 0.79192 0.38896 0.73802 0.0
C2861 C 0.81232 0.39034 0.76803 0.0
C2862 C 0.74925 0.37694 0.84899 0.0
C2863 C 0.79352 0.39208 0.67901 0.0
H2864 H 0.70602 0.34877 0.68741 0.0
H2865 H 0.71046 0.42174 0.67219 0.0
H2866 H 0.76627 0.3416 0.73484 0.0
H2867 H 0.74024 0.33464 0.76919 0.0
H2868 H 0.74263 0.32823 0.70043 0.0
H2869 H 0.7367 0.44297 0.72489 0.0
H2870 H 0.75563 0.42859 0.77057 0.0
H2871 H 0.76372 0.43219 0.7029 0.0
H2872 H 0.79212 0.37777 0.88912 0.0
H2873 H 0.828 0.39444 0.74822 0.0
H2874 H 0.74381 0.35884 0.8441 0.0
H2875 H 0.73525 0.38809 0.83399 0.0
H2876 H 0.75161 0.38027 0.89188 0.0
H2877 H 0.80962 0.38442 0.66385 0.0
H2878 H 0.79411 0.41065 0.66993 0.0
H2879 H 0.77887 0.38428 0.65731 0.0
loop_
_geom_bond_atom_site_label_1
_geom_bond_atom_site_label_2
_geom_bond_distance
_geom_bond_site_symmetry_2
_ccdc_geom_bond_type
C0 C2 1.422 . S
C0 C4 1.415 . S
C0 N6 1.369 . S
C1 C2 1.421 . S
C1 C3 1.417 . S
C1 C13 1.422 . S
C2 C0 1.422 . S
C2 C1 1.421 . S
C2 N12 1.359 . S
C3 C1 1.417 . S
C3 C5 1.329 . S
C3 H22 0.930 . S
C4 C0 1.415 . S
C4 C5 1.437 . S
C4 C8 1.413 . S
C5 C3 1.329 . S
C5 C4 1.437 . S
C5 H27 0.929 . S
N6 C0 1.369 . S
N6 C7 1.338 . S
N6 Gd11 2.622 . S
C7 N6 1.338 . S
C7 C9 1.378 . S
C7 H19 0.929 . S
C8 C4 1.413 . S
C8 C9 1.348 . S
C8 H24 0.931 . S
C9 C7 1.378 . S
C9 C8 1.348 . S
C9 H25 0.930 . S
Gd10 N30 2.622 . S
Gd10 N37 2.570 . S
Gd10 O44 2.353 . S
Gd10 O45 2.468 1_554 S
Gd10 O46 2.427 1_554 S
Gd10 O48 2.388 . S
Gd10 O49 2.386 . S
Gd10 O53 2.307 . S
Gd10 C63 2.805 1_554 S
Gd11 N6 2.622 . S
Gd11 N12 2.570 . S
Gd11 O43 2.386 . S
Gd11 O47 2.307 . S
Gd11 O50 2.353 . S
Gd11 O51 2.468 . S
Gd11 O52 2.427 . S
Gd11 O54 2.388 . S
Gd11 C75 2.805 . S
N12 C2 1.359 . S
N12 Gd11 2.570 . S
N12 C14 1.343 . S
C13 C1 1.422 . S
C13 C15 1.321 . S
C13 H21 0.931 . S
C14 N12 1.343 . S
C14 C15 1.390 . S
C14 H16 0.931 . S
C15 C13 1.321 . S
C15 C14 1.390 . S
C15 H17 0.930 . S
H16 C14 0.931 . S
H17 C15 0.930 . S
H18 C41 0.931 . S
H19 C7 0.929 . S
H20 C42 0.930 . S
H21 C13 0.931 . S
H22 C3 0.930 . S
H23 C32 0.929 . S
H24 C8 0.931 . S
H25 C9 0.930 . S
H26 C64 0.930 . S
H27 C5 0.929 . S
H28 C33 0.931 . S
H29 C34 0.930 . S
N30 Gd10 2.622 . S
N30 C31 1.369 . S
N30 C32 1.338 . S
C31 N30 1.369 . S
C31 C35 1.415 . S
C31 C38 1.422 . S
C32 H23 0.929 . S
C32 N30 1.338 . S
C32 C34 1.378 . S
C33 H28 0.931 . S
C33 C34 1.348 . S
C33 C35 1.413 . S
C34 H29 0.930 . S
C34 C32 1.378 . S
C34 C33 1.348 . S
C35 C31 1.415 . S
C35 C33 1.413 . S
C35 C65 1.437 1_554 S
H36 C65 0.929 . S
N37 Gd10 2.570 . S
N37 C38 1.359 . S
N37 C41 1.343 . S
C38 C31 1.422 . S
C38 N37 1.359 . S
C38 C40 1.421 1_554 S
C39 C40 1.422 . S
C39 C42 1.321 . S
C39 H66 0.931 . S
C40 C38 1.421 1_556 S
C40 C39 1.422 . S
C40 C64 1.417 . S
C41 H18 0.931 . S
C41 N37 1.343 . S
C41 C42 1.390 1_554 S
C42 H20 0.930 . S
C42 C39 1.321 . S
C42 C41 1.390 1_556 S
O43 Gd11 2.386 . S
O43 C55 1.265 . S
O44 Gd10 2.353 . S
O44 C55 1.242 . S
O45 Gd10 2.468 1_556 S
O45 C63 1.263 . S
O46 Gd10 2.427 1_556 S
O46 C63 1.252 . S
O47 Gd11 2.307 . S
O47 C56 1.261 . S
O48 Gd10 2.388 . S
O48 C56 1.252 . S
O49 Gd10 2.386 . S
O49 C67 1.265 . S
O50 Gd11 2.353 . S
O50 C67 1.242 . S
O51 Gd11 2.468 . S
O51 C75 1.263 . S
O52 Gd11 2.427 . S
O52 C75 1.252 . S
O53 Gd10 2.307 . S
O53 C68 1.261 . S
O54 Gd11 2.388 . S
O54 C68 1.252 . S
C55 O43 1.265 . S
C55 O44 1.242 . S
C56 O47 1.261 . S
C56 O48 1.252 . S
C57 C60 1.394 . S
C57 C62 1.370 . S
C57 C63 1.500 . S
C58 C61 1.383 . S
C58 C62 1.395 . S
C59 C60 1.396 . S
C59 C61 1.365 . S
C59 H76 0.929 . S
C60 C57 1.394 . S
C60 C59 1.396 . S
C60 H77 0.930 . S
C61 C58 1.383 . S
C61 C59 1.365 . S
C61 H78 0.931 . S
C62 C57 1.370 . S
C62 C58 1.395 . S
C62 H79 0.930 . S
C63 Gd10 2.805 1_556 S
C63 O45 1.263 . S
C63 O46 1.252 . S
C63 C57 1.500 . S
C64 H26 0.930 . S
C64 C40 1.417 . S
C64 C65 1.329 . S
C65 C35 1.437 1_556 S
C65 H36 0.929 . S
C65 C64 1.329 . S
H66 C39 0.931 . S
C67 O49 1.265 . S
C67 O50 1.242 . S
C68 O53 1.261 . S
C68 O54 1.252 . S
C69 C72 1.394 . S
C69 C74 1.370 . S
C69 C75 1.500 . S
C70 C73 1.383 . S
C70 C74 1.395 . S
C71 C72 1.396 . S
C71 C73 1.365 . S
C71 H80 0.929 . S
C72 C69 1.394 . S
C72 C71 1.396 . S
C72 H81 0.930 . S
C73 C70 1.383 . S
C73 C71 1.365 . S
C73 H82 0.931 . S
C74 C69 1.370 . S
C74 C70 1.395 . S
C74 H83 0.930 . S
C75 Gd11 2.805 . S
C75 O51 1.263 . S
C75 O52 1.252 . S
C75 C69 1.500 . S
H76 C59 0.929 . S
H77 C60 0.930 . S
H78 C61 0.931 . S
H79 C62 0.930 . S
H80 C71 0.929 . S
H81 C72 0.930 . S
H82 C73 0.931 . S
H83 C74 0.930 . S
C84 C86 1.422 . S
C84 C88 1.415 . S
C84 N90 1.369 . S
C85 C86 1.421 . S
C85 C87 1.417 . S
C85 C97 1.422 . S
C86 C84 1.422 . S
C86 C85 1.421 . S
C86 N96 1.359 . S
C87 C85 1.417 . S
C87 C89 1.329 . S
C87 H106 0.930 . S
C88 C84 1.415 . S
C88 C89 1.437 . S
C88 C92 1.413 . S
C89 C87 1.329 . S
C89 C88 1.437 . S
C89 H111 0.929 . S
N90 C84 1.369 . S
N90 C91 1.338 . S
N90 Gd95 2.622 . S
C91 N90 1.338 . S
C91 C93 1.378 . S
C91 H103 0.929 . S
C92 C88 1.413 . S
C92 C93 1.348 . S
C92 H108 0.931 . S
C93 C91 1.378 . S
C93 C92 1.348 . S
C93 H109 0.930 . S
Gd94 N114 2.622 . S
Gd94 N121 2.570 . S
Gd94 O128 2.353 . S
Gd94 O129 2.468 . S
Gd94 O130 2.427 . S
Gd94 O132 2.388 . S
Gd94 O133 2.386 . S
Gd94 O137 2.307 . S
Gd94 C147 2.805 . S
Gd95 N90 2.622 . S
Gd95 N96 2.570 . S
Gd95 O127 2.386 . S
Gd95 O131 2.307 . S
Gd95 O134 2.353 . S
Gd95 O135 2.468 . S
Gd95 O136 2.427 . S
Gd95 O138 2.388 . S
Gd95 C159 2.805 . S
N96 C86 1.359 . S
N96 Gd95 2.570 . S
N96 C98 1.343 . S
C97 C85 1.422 . S
C97 C99 1.321 . S
C97 H105 0.931 . S
C98 N96 1.343 . S
C98 C99 1.390 . S
C98 H100 0.931 . S
C99 C97 1.321 . S
C99 C98 1.390 . S
C99 H101 0.930 . S
H100 C98 0.931 . S
H101 C99 0.930 . S
H102 C125 0.931 . S
H103 C91 0.929 . S
H104 C126 0.930 . S
H105 C97 0.931 . S
H106 C87 0.930 . S
H107 C116 0.929 . S
H108 C92 0.931 . S
H109 C93 0.930 . S
H110 C148 0.930 . S
H111 C89 0.929 . S
H112 C117 0.931 . S
H113 C118 0.930 . S
N114 Gd94 2.622 . S
N114 C115 1.369 . S
N114 C116 1.338 . S
C115 N114 1.369 . S
C115 C119 1.415 . S
C115 C122 1.422 . S
C116 H107 0.929 . S
C116 N114 1.338 . S
C116 C118 1.378 . S
C117 H112 0.931 . S
C117 C118 1.348 . S
C117 C119 1.413 . S
C118 H113 0.930 . S
C118 C116 1.378 . S
C118 C117 1.348 . S
C119 C115 1.415 . S
C119 C117 1.413 . S
C119 C149 1.437 . S
H120 C149 0.929 . S
N121 Gd94 2.570 . S
N121 C122 1.359 . S
N121 C125 1.343 . S
C122 C115 1.422 . S
C122 N121 1.359 . S
C122 C124 1.421 . S
C123 C124 1.422 . S
C123 C126 1.321 . S
C123 H150 0.931 . S
C124 C122 1.421 . S
C124 C123 1.422 . S
C124 C148 1.417 . S
C125 H102 0.931 . S
C125 N121 1.343 . S
C125 C126 1.390 . S
C126 H104 0.930 . S
C126 C123 1.321 . S
C126 C125 1.390 . S
O127 Gd95 2.386 . S
O127 C139 1.265 . S
O128 Gd94 2.353 . S
O128 C139 1.242 . S
O129 Gd94 2.468 . S
O129 C147 1.263 . S
O130 Gd94 2.427 . S
O130 C147 1.252 . S
O131 Gd95 2.307 . S
O131 C140 1.261 . S
O132 Gd94 2.388 . S
O132 C140 1.252 . S
O133 Gd94 2.386 . S
O133 C151 1.265 . S
O134 Gd95 2.353 . S
O134 C151 1.242 . S
O135 Gd95 2.468 . S
O135 C159 1.263 . S
O136 Gd95 2.427 . S
O136 C159 1.252 . S
O137 Gd94 2.307 . S
O137 C152 1.261 . S
O138 Gd95 2.388 . S
O138 C152 1.252 . S
C139 O127 1.265 . S
C139 O128 1.242 . S
C140 O131 1.261 . S
C140 O132 1.252 . S
C141 C144 1.394 . S
C141 C146 1.370 . S
C141 C147 1.500 . S
C142 C145 1.383 . S
C142 C146 1.395 . S
C143 C144 1.396 . S
C143 C145 1.365 . S
C143 H160 0.929 . S
C144 C141 1.394 . S
C144 C143 1.396 . S
C144 H161 0.930 . S
C145 C142 1.383 . S
C145 C143 1.365 . S
C145 H162 0.931 . S
C146 C141 1.370 . S
C146 C142 1.395 . S
C146 H163 0.930 . S
C147 Gd94 2.805 . S
C147 O129 1.263 . S
C147 O130 1.252 . S
C147 C141 1.500 . S
C148 H110 0.930 . S
C148 C124 1.417 . S
C148 C149 1.329 . S
C149 C119 1.437 . S
C149 H120 0.929 . S
C149 C148 1.329 . S
H150 C123 0.931 . S
C151 O133 1.265 . S
C151 O134 1.242 . S
C152 O137 1.261 . S
C152 O138 1.252 . S
C153 C156 1.394 . S
C153 C158 1.370 . S
C153 C159 1.500 . S
C154 C157 1.383 . S
C154 C158 1.395 . S
C155 C156 1.396 . S
C155 C157 1.365 . S
C155 H164 0.929 . S
C156 C153 1.394 . S
C156 C155 1.396 . S
C156 H165 0.930 . S
C157 C154 1.383 . S
C157 C155 1.365 . S
C157 H166 0.931 . S
C158 C153 1.370 . S
C158 C154 1.395 . S
C158 H167 0.930 . S
C159 Gd95 2.805 . S
C159 O135 1.263 . S
C159 O136 1.252 . S
C159 C153 1.500 . S
H160 C143 0.929 . S
H161 C144 0.930 . S
H162 C145 0.931 . S
H163 C146 0.930 . S
H164 C155 0.929 . S
H165 C156 0.930 . S
H166 C157 0.931 . S
H167 C158 0.930 . S
C168 C170 1.422 . S
C168 C172 1.415 . S
C168 N174 1.369 . S
C169 C170 1.421 . S
C169 C171 1.417 . S
C169 C181 1.422 . S
C170 C168 1.422 . S
C170 C169 1.421 . S
C170 N180 1.359 . S
C171 C169 1.417 . S
C171 C173 1.329 . S
C171 H190 0.930 . S
C172 C168 1.415 . S
C172 C173 1.437 . S
C172 C176 1.413 . S
C173 C171 1.329 . S
C173 C172 1.437 . S
C173 H195 0.929 . S
N174 C168 1.369 . S
N174 C175 1.338 . S
N174 Gd179 2.622 . S
C175 N174 1.338 . S
C175 C177 1.378 . S
C175 H187 0.929 . S
C176 C172 1.413 . S
C176 C177 1.348 . S
C176 H192 0.931 . S
C177 C175 1.378 . S
C177 C176 1.348 . S
C177 H193 0.930 . S
Gd178 N198 2.622 . S
Gd178 N205 2.570 . S
Gd178 O212 2.353 . S
Gd178 O213 2.468 . S
Gd178 O214 2.427 . S
Gd178 O216 2.388 . S
Gd178 O217 2.386 . S
Gd178 O221 2.307 . S
Gd178 C231 2.805 . S
Gd179 N174 2.622 . S
Gd179 N180 2.570 . S
Gd179 O211 2.386 . S
Gd179 O215 2.307 . S
Gd179 O218 2.353 . S
Gd179 O219 2.468 . S
Gd179 O220 2.427 . S
Gd179 O222 2.388 . S
Gd179 C243 2.805 . S
N180 C170 1.359 . S
N180 Gd179 2.570 . S
N180 C182 1.343 . S
C181 C169 1.422 . S
C181 C183 1.321 . S
C181 H189 0.931 . S
C182 N180 1.343 . S
C182 C183 1.390 . S
C182 H184 0.931 . S
C183 C181 1.321 . S
C183 C182 1.390 . S
C183 H185 0.930 . S
H184 C182 0.931 . S
H185 C183 0.930 . S
H186 C209 0.931 . S
H187 C175 0.929 . S
H188 C210 0.930 . S
H189 C181 0.931 . S
H190 C171 0.930 . S
H191 C200 0.929 . S
H192 C176 0.931 . S
H193 C177 0.930 . S
H194 C232 0.930 . S
H195 C173 0.929 . S
H196 C201 0.931 . S
H197 C202 0.930 . S
N198 Gd178 2.622 . S
N198 C199 1.369 . S
N198 C200 1.338 . S
C199 N198 1.369 . S
C199 C203 1.415 . S
C199 C206 1.422 . S
C200 H191 0.929 . S
C200 N198 1.338 . S
C200 C202 1.378 . S
C201 H196 0.931 . S
C201 C202 1.348 . S
C201 C203 1.413 . S
C202 H197 0.930 . S
C202 C200 1.378 . S
C202 C201 1.348 . S
C203 C199 1.415 . S
C203 C201 1.413 . S
C203 C233 1.437 . S
H204 C233 0.929 . S
N205 Gd178 2.570 . S
N205 C206 1.359 . S
N205 C209 1.343 . S
C206 C199 1.422 . S
C206 N205 1.359 . S
C206 C208 1.421 . S
C207 C208 1.422 . S
C207 C210 1.321 . S
C207 H234 0.931 . S
C208 C206 1.421 . S
C208 C207 1.422 . S
C208 C232 1.417 . S
C209 H186 0.931 . S
C209 N205 1.343 . S
C209 C210 1.390 . S
C210 H188 0.930 . S
C210 C207 1.321 . S
C210 C209 1.390 . S
O211 Gd179 2.386 . S
O211 C223 1.265 . S
O212 Gd178 2.353 . S
O212 C223 1.242 . S
O213 Gd178 2.468 . S
O213 C231 1.263 . S
O214 Gd178 2.427 . S
O214 C231 1.252 . S
O215 Gd179 2.307 . S
O215 C224 1.261 . S
O216 Gd178 2.388 . S
O216 C224 1.252 . S
O217 Gd178 2.386 . S
O217 C235 1.265 . S
O218 Gd179 2.353 . S
O218 C235 1.242 . S
O219 Gd179 2.468 . S
O219 C243 1.263 . S
O220 Gd179 2.427 . S
O220 C243 1.252 . S
O221 Gd178 2.307 . S
O221 C236 1.261 . S
O222 Gd179 2.388 . S
O222 C236 1.252 . S
C223 O211 1.265 . S
C223 O212 1.242 . S
C224 O215 1.261 . S
C224 O216 1.252 . S
C225 C228 1.394 . S
C225 C230 1.370 . S
C225 C231 1.500 . S
C226 C229 1.383 . S
C226 C230 1.395 . S
C227 C228 1.396 . S
C227 C229 1.365 . S
C227 H244 0.929 . S
C228 C225 1.394 . S
C228 C227 1.396 . S
C228 H245 0.930 . S
C229 C226 1.383 . S
C229 C227 1.365 . S
C229 H246 0.931 . S
C230 C225 1.370 . S
C230 C226 1.395 . S
C230 H247 0.930 . S
C231 Gd178 2.805 . S
C231 O213 1.263 . S
C231 O214 1.252 . S
C231 C225 1.500 . S
C232 H194 0.930 . S
C232 C208 1.417 . S
C232 C233 1.329 . S
C233 C203 1.437 . S
C233 H204 0.929 . S
C233 C232 1.329 . S
H234 C207 0.931 . S
C235 O217 1.265 . S
C235 O218 1.242 . S
C236 O221 1.261 . S
C236 O222 1.252 . S
C237 C240 1.394 . S
C237 C242 1.370 . S
C237 C243 1.500 . S
C238 C241 1.383 . S
C238 C242 1.395 . S
C239 C240 1.396 . S
C239 C241 1.365 . S
C239 H248 0.929 . S
C240 C237 1.394 . S
C240 C239 1.396 . S
C240 H249 0.930 . S
C241 C238 1.383 . S
C241 C239 1.365 . S
C241 H250 0.931 . S
C242 C237 1.370 . S
C242 C238 1.395 . S
C242 H251 0.930 . S
C243 Gd179 2.805 . S
C243 O219 1.263 . S
C243 O220 1.252 . S
C243 C237 1.500 . S
H244 C227 0.929 . S
H245 C228 0.930 . S
H246 C229 0.931 . S
H247 C230 0.930 . S
H248 C239 0.929 . S
H249 C240 0.930 . S
H250 C241 0.931 . S
H251 C242 0.930 . S
C252 C254 1.422 . S
C252 C256 1.415 . S
C252 N258 1.369 . S
C253 C254 1.421 . S
C253 C255 1.417 . S
C253 C265 1.422 . S
C254 C252 1.422 . S
C254 C253 1.421 . S
C254 N264 1.359 . S
C255 C253 1.417 . S
C255 C257 1.329 . S
C255 H274 0.891 1_545 S
C256 C252 1.415 . S
C256 C257 1.437 . S
C256 C260 1.413 . S
C257 C255 1.329 . S
C257 C256 1.437 . S
C257 H279 0.929 . S
N258 C252 1.369 . S
N258 C259 1.338 . S
N258 Gd263 2.622 . S
C259 N258 1.338 . S
C259 C261 1.378 . S
C259 H271 0.929 . S
C260 C256 1.413 . S
C260 C261 1.348 . S
C260 H276 0.931 . S
C261 C259 1.378 . S
C261 C260 1.348 . S
C261 H277 0.930 . S
Gd262 N282 2.622 . S
Gd262 N289 2.570 . S
Gd262 O296 2.353 . S
Gd262 O297 2.468 1_556 S
Gd262 O298 2.427 1_556 S
Gd262 O300 2.388 . S
Gd262 O301 2.386 . S
Gd262 O305 2.307 . S
Gd262 C315 2.805 1_556 S
Gd263 N258 2.622 . S
Gd263 N264 2.570 . S
Gd263 O295 2.386 . S
Gd263 O299 2.307 . S
Gd263 O302 2.353 . S
Gd263 O303 2.468 . S
Gd263 O304 2.427 . S
Gd263 O306 2.388 . S
Gd263 C327 2.805 . S
N264 C254 1.359 . S
N264 Gd263 2.570 . S
N264 C266 1.343 . S
C265 C253 1.422 . S
C265 C267 1.321 . S
C265 H273 0.931 . S
C266 N264 1.343 . S
C266 C267 1.390 . S
C266 H268 0.931 . S
C267 C265 1.321 . S
C267 C266 1.390 . S
C267 H269 0.930 . S
H268 C266 0.931 . S
H269 C267 0.930 . S
H270 C293 0.932 . S
H271 C259 0.929 . S
H272 C294 0.930 . S
H273 C265 0.931 . S
H274 C255 0.891 1_565 S
H275 C284 0.929 . S
H276 C260 0.931 . S
H277 C261 0.930 . S
H278 C316 0.930 . S
H279 C257 0.929 . S
H280 C285 0.931 . S
H281 C286 0.930 . S
N282 Gd262 2.622 . S
N282 C283 1.369 . S
N282 C284 1.338 . S
C283 N282 1.369 . S
C283 C287 1.415 . S
C283 C290 1.422 . S
C284 H275 0.929 . S
C284 N282 1.338 . S
C284 C286 1.378 . S
C285 H280 0.931 . S
C285 C286 1.348 . S
C285 C287 1.413 . S
C286 H281 0.930 . S
C286 C284 1.378 . S
C286 C285 1.348 . S
C287 C283 1.415 . S
C287 C285 1.413 . S
C287 C317 1.437 1_556 S
H288 C317 0.929 . S
N289 Gd262 2.570 . S
N289 C290 1.359 . S
N289 C293 1.345 . S
C290 C283 1.422 . S
C290 N289 1.359 . S
C290 C292 1.421 1_556 S
C291 C292 1.422 . S
C291 C294 1.321 . S
C291 H318 0.931 . S
C292 C290 1.421 1_554 S
C292 C291 1.422 . S
C292 C316 1.417 . S
C293 H270 0.932 . S
C293 N289 1.345 . S
C293 C294 1.388 1_556 S
C294 H272 0.930 . S
C294 C291 1.321 . S
C294 C293 1.388 1_554 S
O295 Gd263 2.386 . S
O295 C307 1.265 . S
O296 Gd262 2.353 . S
O296 C307 1.242 . S
O297 Gd262 2.468 1_554 S
O297 C315 1.263 . S
O298 Gd262 2.427 1_554 S
O298 C315 1.252 . S
O299 Gd263 2.307 . S
O299 C308 1.261 . S
O300 Gd262 2.388 . S
O300 C308 1.252 . S
O301 Gd262 2.386 . S
O301 C319 1.265 . S
O302 Gd263 2.353 . S
O302 C319 1.242 . S
O303 Gd263 2.468 . S
O303 C327 1.263 . S
O304 Gd263 2.427 . S
O304 C327 1.252 . S
O305 Gd262 2.307 . S
O305 C320 1.261 . S
O306 Gd263 2.388 . S
O306 C320 1.252 . S
C307 O295 1.265 . S
C307 O296 1.242 . S
C308 O299 1.261 . S
C308 O300 1.252 . S
C309 C312 1.394 . S
C309 C314 1.370 . S
C309 C315 1.500 . S
C310 C313 1.383 . S
C310 C314 1.395 . S
C311 C312 1.396 . S
C311 C313 1.365 . S
C311 H328 0.929 . S
C312 C309 1.394 . S
C312 C311 1.396 . S
C312 H329 0.930 . S
C313 C310 1.383 . S
C313 C311 1.365 . S
C313 H330 0.931 . S
C314 C309 1.370 . S
C314 C310 1.395 . S
C314 H331 0.930 . S
C315 Gd262 2.805 1_554 S
C315 O297 1.263 . S
C315 O298 1.252 . S
C315 C309 1.500 . S
C316 H278 0.930 . S
C316 C292 1.417 . S
C316 C317 1.329 . S
C317 C287 1.437 1_554 S
C317 H288 0.929 . S
C317 C316 1.329 . S
H318 C291 0.931 . S
C319 O301 1.265 . S
C319 O302 1.242 . S
C320 O305 1.261 . S
C320 O306 1.252 . S
C321 C324 1.394 . S
C321 C326 1.370 . S
C321 C327 1.500 . S
C322 C325 1.383 . S
C322 C326 1.395 . S
C323 C324 1.396 . S
C323 C325 1.365 . S
C323 H332 0.929 . S
C324 C321 1.394 . S
C324 C323 1.396 . S
C324 H333 0.930 . S
C325 C322 1.383 . S
C325 C323 1.365 . S
C325 H334 0.931 . S
C326 C321 1.370 . S
C326 C322 1.395 . S
C326 H335 0.930 . S
C327 Gd263 2.805 . S
C327 O303 1.263 . S
C327 O304 1.252 . S
C327 C321 1.500 . S
H328 C311 0.929 . S
H329 C312 0.930 . S
H330 C313 0.931 . S
H331 C314 0.930 . S
H332 C323 0.929 . S
H333 C324 0.930 . S
H334 C325 0.931 . S
H335 C326 0.930 . S
C336 C338 1.422 . S
C336 C340 1.415 . S
C336 N342 1.369 . S
C337 C338 1.421 1_554 S
C337 C339 1.417 . S
C337 C349 1.422 . S
C338 C336 1.422 . S
C338 C337 1.421 1_556 S
C338 N348 1.359 . S
C339 C337 1.417 . S
C339 C341 1.329 . S
C339 H358 0.930 . S
C340 C336 1.415 . S
C340 C341 1.437 1_556 S
C340 C344 1.413 . S
C341 C339 1.329 . S
C341 C340 1.437 1_554 S
C341 H363 0.929 . S
N342 C336 1.369 . S
N342 C343 1.338 . S
N342 Gd347 2.622 . S
C343 N342 1.338 . S
C343 C345 1.378 . S
C343 H355 0.929 . S
C344 C340 1.413 . S
C344 C345 1.348 . S
C344 H360 0.931 . S
C345 C343 1.378 . S
C345 C344 1.348 . S
C345 H361 0.930 . S
Gd346 N366 2.622 . S
Gd346 N373 2.570 . S
Gd346 O380 2.353 . S
Gd346 O381 2.468 . S
Gd346 O382 2.427 . S
Gd346 O384 2.388 . S
Gd346 O385 2.386 . S
Gd346 O389 2.307 . S
Gd346 C399 2.805 . S
Gd347 N342 2.622 . S
Gd347 N348 2.570 . S
Gd347 O379 2.386 . S
Gd347 O383 2.307 . S
Gd347 O386 2.353 . S
Gd347 O387 2.468 1_556 S
Gd347 O388 2.427 1_556 S
Gd347 O390 2.388 . S
Gd347 C411 2.805 1_556 S
N348 C338 1.359 . S
N348 Gd347 2.570 . S
N348 C350 1.343 . S
C349 C337 1.422 . S
C349 C351 1.321 . S
C349 H357 0.931 . S
C350 N348 1.343 . S
C350 C351 1.390 1_556 S
C350 H352 0.931 . S
C351 C349 1.321 . S
C351 C350 1.390 1_554 S
C351 H353 0.930 . S
H352 C350 0.931 . S
H353 C351 0.930 . S
H354 C377 0.931 . S
H355 C343 0.929 . S
H356 C378 0.930 . S
H357 C349 0.931 . S
H358 C339 0.930 . S
H359 C368 0.929 . S
H360 C344 0.931 . S
H361 C345 0.930 . S
H362 C400 0.930 . S
H363 C341 0.929 . S
H364 C369 0.931 . S
H365 C370 0.930 . S
N366 Gd346 2.622 . S
N366 C367 1.369 . S
N366 C368 1.338 . S
C367 N366 1.369 . S
C367 C371 1.415 . S
C367 C374 1.422 . S
C368 H359 0.929 . S
C368 N366 1.338 . S
C368 C370 1.378 . S
C369 H364 0.931 . S
C369 C370 1.348 . S
C369 C371 1.413 . S
C370 H365 0.930 . S
C370 C368 1.378 . S
C370 C369 1.348 . S
C371 C367 1.415 . S
C371 C369 1.413 . S
C371 C401 1.437 . S
H372 C401 0.929 . S
N373 Gd346 2.570 . S
N373 C374 1.359 . S
N373 C377 1.343 . S
C374 C367 1.422 . S
C374 N373 1.359 . S
C374 C376 1.421 . S
C375 C376 1.422 . S
C375 C378 1.321 . S
C375 H402 0.931 . S
C376 C374 1.421 . S
C376 C375 1.422 . S
C376 C400 1.417 . S
C377 H354 0.931 . S
C377 N373 1.343 . S
C377 C378 1.390 . S
C378 H356 0.930 . S
C378 C375 1.321 . S
C378 C377 1.390 . S
O379 Gd347 2.386 . S
O379 C391 1.265 . S
O380 Gd346 2.353 . S
O380 C391 1.242 . S
O381 Gd346 2.468 . S
O381 C399 1.263 . S
O382 Gd346 2.427 . S
O382 C399 1.252 . S
O383 Gd347 2.307 . S
O383 C392 1.261 . S
O384 Gd346 2.388 . S
O384 C392 1.252 . S
O385 Gd346 2.386 . S
O385 C403 1.265 . S
O386 Gd347 2.353 . S
O386 C403 1.242 . S
O387 Gd347 2.468 1_554 S
O387 C411 1.263 . S
O388 Gd347 2.427 1_554 S
O388 C411 1.252 . S
O389 Gd346 2.307 . S
O389 C404 1.261 . S
O390 Gd347 2.388 . S
O390 C404 1.252 . S
C391 O379 1.265 . S
C391 O380 1.242 . S
C392 O383 1.261 . S
C392 O384 1.252 . S
C393 C396 1.394 . S
C393 C398 1.370 . S
C393 C399 1.500 . S
C394 C397 1.383 . S
C394 C398 1.395 . S
C395 C396 1.396 . S
C395 C397 1.365 . S
C395 H412 0.929 . S
C396 C393 1.394 . S
C396 C395 1.396 . S
C396 H413 0.930 . S
C397 C394 1.383 . S
C397 C395 1.365 . S
C397 H414 0.931 . S
C398 C393 1.370 . S
C398 C394 1.395 . S
C398 H415 0.930 . S
C399 Gd346 2.805 . S
C399 O381 1.263 . S
C399 O382 1.252 . S
C399 C393 1.500 . S
C400 H362 0.930 . S
C400 C376 1.417 . S
C400 C401 1.329 . S
C401 C371 1.437 . S
C401 H372 0.929 . S
C401 C400 1.329 . S
H402 C375 0.931 . S
C403 O385 1.265 . S
C403 O386 1.242 . S
C404 O389 1.261 . S
C404 O390 1.252 . S
C405 C408 1.394 . S
C405 C410 1.370 . S
C405 C411 1.500 . S
C406 C409 1.383 . S
C406 C410 1.395 . S
C407 C408 1.396 . S
C407 C409 1.365 . S
C407 H416 0.929 . S
C408 C405 1.394 . S
C408 C407 1.396 . S
C408 H417 0.930 . S
C409 C406 1.383 . S
C409 C407 1.365 . S
C409 H418 0.931 . S
C410 C405 1.370 . S
C410 C406 1.395 . S
C410 H419 0.930 . S
C411 Gd347 2.805 1_554 S
C411 O387 1.263 . S
C411 O388 1.252 . S
C411 C405 1.500 . S
H412 C395 0.929 . S
H413 C396 0.930 . S
H414 C397 0.931 . S
H415 C398 0.930 . S
H416 C407 0.929 . S
H417 C408 0.930 . S
H418 C409 0.931 . S
H419 C410 0.930 . S
C420 C422 1.422 . S
C420 C424 1.415 . S
C420 N426 1.369 . S
C421 C422 1.421 1_556 S
C421 C423 1.417 . S
C421 C433 1.422 . S
C422 C420 1.422 . S
C422 C421 1.421 1_554 S
C422 N432 1.359 . S
C423 C421 1.417 . S
C423 C425 1.329 . S
C423 H442 0.930 . S
C424 C420 1.415 . S
C424 C425 1.437 1_554 S
C424 C428 1.413 . S
C425 C423 1.329 . S
C425 C424 1.437 1_556 S
C425 H447 0.929 . S
N426 C420 1.369 . S
N426 C427 1.338 . S
N426 Gd431 2.622 . S
C427 N426 1.338 . S
C427 C429 1.378 . S
C427 H439 0.929 . S
C428 C424 1.413 . S
C428 C429 1.348 . S
C428 H444 0.931 . S
C429 C427 1.378 . S
C429 C428 1.348 . S
C429 H445 0.930 . S
Gd430 N450 2.622 . S
Gd430 N457 2.570 . S
Gd430 O464 2.353 . S
Gd430 O465 2.468 . S
Gd430 O466 2.427 . S
Gd430 O468 2.388 . S
Gd430 O469 2.386 . S
Gd430 O473 2.307 . S
Gd430 C483 2.805 . S
Gd431 N426 2.622 . S
Gd431 N432 2.570 . S
Gd431 O463 2.386 . S
Gd431 O467 2.307 . S
Gd431 O470 2.353 . S
Gd431 O471 2.468 1_554 S
Gd431 O472 2.427 1_554 S
Gd431 O474 2.388 . S
Gd431 C495 2.805 1_554 S
N432 C422 1.359 . S
N432 Gd431 2.570 . S
N432 C434 1.343 . S
C433 C421 1.422 . S
C433 C435 1.321 . S
C433 H441 0.931 . S
C434 N432 1.343 . S
C434 C435 1.390 1_554 S
C434 H436 0.931 . S
C435 C433 1.321 . S
C435 C434 1.390 1_556 S
C435 H437 0.930 . S
H436 C434 0.931 . S
H437 C435 0.930 . S
H438 C461 0.931 . S
H439 C427 0.929 . S
H440 C462 0.930 . S
H441 C433 0.931 . S
H442 C423 0.930 . S
H443 C452 0.929 . S
H444 C428 0.931 . S
H445 C429 0.930 . S
H446 C484 0.930 . S
H447 C425 0.929 . S
H448 C453 0.931 . S
H449 C454 0.930 . S
N450 Gd430 2.622 . S
N450 C451 1.369 . S
N450 C452 1.338 . S
C451 N450 1.369 . S
C451 C455 1.415 . S
C451 C458 1.422 . S
C452 H443 0.929 . S
C452 N450 1.338 . S
C452 C454 1.378 . S
C453 H448 0.931 . S
C453 C454 1.348 . S
C453 C455 1.413 . S
C454 H449 0.930 . S
C454 C452 1.378 . S
C454 C453 1.348 . S
C455 C451 1.415 . S
C455 C453 1.413 . S
C455 C485 1.437 . S
H456 C485 0.929 . S
N457 Gd430 2.570 . S
N457 C458 1.359 . S
N457 C461 1.343 . S
C458 C451 1.422 . S
C458 N457 1.359 . S
C458 C460 1.421 . S
C459 C460 1.422 . S
C459 C462 1.321 . S
C459 H486 0.931 . S
C460 C458 1.421 . S
C460 C459 1.422 . S
C460 C484 1.417 . S
C461 H438 0.931 . S
C461 N457 1.343 . S
C461 C462 1.390 . S
C462 H440 0.930 . S
C462 C459 1.321 . S
C462 C461 1.390 . S
O463 Gd431 2.386 . S
O463 C475 1.265 . S
O464 Gd430 2.353 . S
O464 C475 1.242 . S
O465 Gd430 2.468 . S
O465 C483 1.263 . S
O466 Gd430 2.427 . S
O466 C483 1.252 . S
O467 Gd431 2.307 . S
O467 C476 1.261 . S
O468 Gd430 2.388 . S
O468 C476 1.252 . S
O469 Gd430 2.386 . S
O469 C487 1.265 . S
O470 Gd431 2.353 . S
O470 C487 1.242 . S
O471 Gd431 2.468 1_556 S
O471 C495 1.263 . S
O472 Gd431 2.427 1_556 S
O472 C495 1.252 . S
O473 Gd430 2.307 . S
O473 C488 1.261 . S
O474 Gd431 2.388 . S
O474 C488 1.252 . S
C475 O463 1.265 . S
C475 O464 1.242 . S
C476 O467 1.261 . S
C476 O468 1.252 . S
C477 C480 1.394 . S
C477 C482 1.370 . S
C477 C483 1.500 . S
C478 C481 1.383 . S
C478 C482 1.395 . S
C479 C480 1.396 . S
C479 C481 1.365 . S
C479 H496 0.929 . S
C480 C477 1.394 . S
C480 C479 1.396 . S
C480 H497 0.930 . S
C481 C478 1.383 . S
C481 C479 1.365 . S
C481 H498 0.931 . S
C482 C477 1.370 . S
C482 C478 1.395 . S
C482 H499 0.930 . S
C483 Gd430 2.805 . S
C483 O465 1.263 . S
C483 O466 1.252 . S
C483 C477 1.500 . S
C484 H446 0.930 . S
C484 C460 1.417 . S
C484 C485 1.329 . S
C485 C455 1.437 . S
C485 H456 0.929 . S
C485 C484 1.329 . S
H486 C459 0.931 . S
C487 O469 1.265 . S
C487 O470 1.242 . S
C488 O473 1.261 . S
C488 O474 1.252 . S
C489 C492 1.394 . S
C489 C494 1.370 . S
C489 C495 1.500 . S
C490 C493 1.383 . S
C490 C494 1.395 . S
C491 C492 1.396 . S
C491 C493 1.365 . S
C491 H500 0.929 . S
C492 C489 1.394 . S
C492 C491 1.396 . S
C492 H501 0.930 . S
C493 C490 1.383 . S
C493 C491 1.365 . S
C493 H502 0.931 . S
C494 C489 1.370 . S
C494 C490 1.395 . S
C494 H503 0.930 . S
C495 Gd431 2.805 1_556 S
C495 O471 1.263 . S
C495 O472 1.252 . S
C495 C489 1.500 . S
H496 C479 0.929 . S
H497 C480 0.930 . S
H498 C481 0.931 . S
H499 C482 0.930 . S
H500 C491 0.929 . S
H501 C492 0.930 . S
H502 C493 0.931 . S
H503 C494 0.930 . S
C504 C506 1.422 . S
C504 C508 1.415 . S
C504 N510 1.369 . S
C505 C506 1.421 . S
C505 C507 1.417 . S
C505 C517 1.422 . S
C506 C504 1.422 . S
C506 C505 1.421 . S
C506 N516 1.359 . S
C507 C505 1.417 . S
C507 C509 1.329 . S
C507 H526 0.930 . S
C508 C504 1.415 . S
C508 C509 1.437 . S
C508 C512 1.413 . S
C509 C507 1.329 . S
C509 C508 1.437 . S
C509 H531 0.929 . S
N510 C504 1.369 . S
N510 C511 1.338 . S
N510 Gd515 2.622 . S
C511 N510 1.338 . S
C511 C513 1.378 . S
C511 H523 0.929 . S
C512 C508 1.413 . S
C512 C513 1.348 . S
C512 H528 0.931 . S
C513 C511 1.378 . S
C513 C512 1.348 . S
C513 H529 0.930 . S
Gd514 N534 2.622 . S
Gd514 N541 2.570 . S
Gd514 O548 2.353 . S
Gd514 O549 2.468 . S
Gd514 O550 2.427 . S
Gd514 O552 2.388 . S
Gd514 O553 2.386 . S
Gd514 O557 2.307 . S
Gd514 C567 2.805 . S
Gd515 N510 2.622 . S
Gd515 N516 2.570 . S
Gd515 O547 2.386 . S
Gd515 O551 2.307 . S
Gd515 O554 2.353 . S
Gd515 O555 2.468 . S
Gd515 O556 2.427 . S
Gd515 O558 2.388 . S
Gd515 C579 2.805 . S
N516 C506 1.359 . S
N516 Gd515 2.570 . S
N516 C518 1.343 . S
C517 C505 1.422 . S
C517 C519 1.321 . S
C517 H525 0.931 . S
C518 N516 1.343 . S
C518 C519 1.390 . S
C518 H520 0.931 . S
C519 C517 1.321 . S
C519 C518 1.390 . S
C519 H521 0.930 . S
H520 C518 0.931 . S
H521 C519 0.930 . S
H522 C545 0.931 . S
H523 C511 0.929 . S
H524 C546 0.930 . S
H525 C517 0.931 . S
H526 C507 0.930 . S
H527 C536 0.929 . S
H528 C512 0.931 . S
H529 C513 0.930 . S
H530 C568 0.930 . S
H531 C509 0.929 . S
H532 C537 0.931 . S
H533 C538 0.930 . S
N534 Gd514 2.622 . S
N534 C535 1.369 . S
N534 C536 1.338 . S
C535 N534 1.369 . S
C535 C539 1.415 . S
C535 C542 1.422 . S
C536 H527 0.929 . S
C536 N534 1.338 . S
C536 C538 1.378 . S
C537 H532 0.931 . S
C537 C538 1.348 . S
C537 C539 1.413 . S
C538 H533 0.930 . S
C538 C536 1.378 . S
C538 C537 1.348 . S
C539 C535 1.415 . S
C539 C537 1.413 . S
C539 C569 1.437 . S
H540 C569 0.929 . S
N541 Gd514 2.570 . S
N541 C542 1.359 . S
N541 C545 1.343 . S
C542 C535 1.422 . S
C542 N541 1.359 . S
C542 C544 1.421 . S
C543 C544 1.422 . S
C543 C546 1.321 . S
C543 H570 0.931 . S
C544 C542 1.421 . S
C544 C543 1.422 . S
C544 C568 1.417 . S
C545 H522 0.931 . S
C545 N541 1.343 . S
C545 C546 1.390 . S
C546 H524 0.930 . S
C546 C543 1.321 . S
C546 C545 1.390 . S
O547 Gd515 2.386 . S
O547 C559 1.265 . S
O548 Gd514 2.353 . S
O548 C559 1.242 . S
O549 Gd514 2.468 . S
O549 C567 1.263 . S
O550 Gd514 2.427 . S
O550 C567 1.252 . S
O551 Gd515 2.307 . S
O551 C560 1.261 . S
O552 Gd514 2.388 . S
O552 C560 1.252 . S
O553 Gd514 2.386 . S
O553 C571 1.265 . S
O554 Gd515 2.353 . S
O554 C571 1.242 . S
O555 Gd515 2.468 . S
O555 C579 1.263 . S
O556 Gd515 2.427 . S
O556 C579 1.252 . S
O557 Gd514 2.307 . S
O557 C572 1.261 . S
O558 Gd515 2.388 . S
O558 C572 1.252 . S
C559 O547 1.265 . S
C559 O548 1.242 . S
C560 O551 1.261 . S
C560 O552 1.252 . S
C561 C564 1.394 . S
C561 C566 1.370 . S
C561 C567 1.500 . S
C562 C565 1.383 . S
C562 C566 1.395 . S
C563 C564 1.396 . S
C563 C565 1.365 . S
C563 H580 0.929 . S
C564 C561 1.394 . S
C564 C563 1.396 . S
C564 H581 0.930 . S
C565 C562 1.383 . S
C565 C563 1.365 . S
C565 H582 0.931 . S
C566 C561 1.370 . S
C566 C562 1.395 . S
C566 H583 0.930 . S
C567 Gd514 2.805 . S
C567 O549 1.263 . S
C567 O550 1.252 . S
C567 C561 1.500 . S
C568 H530 0.930 . S
C568 C544 1.417 . S
C568 C569 1.329 . S
C569 C539 1.437 . S
C569 H540 0.929 . S
C569 C568 1.329 . S
H570 C543 0.931 . S
C571 O553 1.265 . S
C571 O554 1.242 . S
C572 O557 1.261 . S
C572 O558 1.252 . S
C573 C576 1.394 . S
C573 C578 1.370 . S
C573 C579 1.500 . S
C574 C577 1.383 . S
C574 C578 1.395 . S
C575 C576 1.396 . S
C575 C577 1.365 . S
C575 H584 0.929 . S
C576 C573 1.394 . S
C576 C575 1.396 . S
C576 H585 0.930 . S
C577 C574 1.383 . S
C577 C575 1.365 . S
C577 H586 0.931 . S
C578 C573 1.370 . S
C578 C574 1.395 . S
C578 H587 0.930 . S
C579 Gd515 2.805 . S
C579 O555 1.263 . S
C579 O556 1.252 . S
C579 C573 1.500 . S
H580 C563 0.929 . S
H581 C564 0.930 . S
H582 C565 0.931 . S
H583 C566 0.930 . S
H584 C575 0.929 . S
H585 C576 0.930 . S
H586 C577 0.931 . S
H587 C578 0.930 . S
C588 C590 1.422 . S
C588 C592 1.415 . S
C588 N594 1.369 . S
C589 C590 1.421 . S
C589 C591 1.417 . S
C589 C601 1.422 . S
C590 C588 1.422 . S
C590 C589 1.421 . S
C590 N600 1.359 . S
C591 C589 1.417 . S
C591 C593 1.329 . S
C591 H610 0.930 1_545 S
C592 C588 1.415 . S
C592 C593 1.437 . S
C592 C596 1.413 . S
C593 C591 1.329 . S
C593 C592 1.437 . S
C593 H615 0.929 . S
N594 C588 1.369 . S
N594 C595 1.338 . S
N594 Gd599 2.622 . S
C595 N594 1.338 . S
C595 C597 1.378 . S
C595 H607 0.929 . S
C596 C592 1.413 . S
C596 C597 1.348 . S
C596 H612 0.931 . S
C597 C595 1.378 . S
C597 C596 1.348 . S
C597 H613 0.930 . S
Gd598 N618 2.622 . S
Gd598 N625 2.570 . S
Gd598 O632 2.353 . S
Gd598 O633 2.468 . S
Gd598 O634 2.427 . S
Gd598 O636 2.388 . S
Gd598 O637 2.386 . S
Gd598 O641 2.307 . S
Gd598 C651 2.805 . S
Gd599 N594 2.622 . S
Gd599 N600 2.570 . S
Gd599 O631 2.386 . S
Gd599 O635 2.307 . S
Gd599 O638 2.353 . S
Gd599 O639 2.468 . S
Gd599 O640 2.427 . S
Gd599 O642 2.388 . S
Gd599 C663 2.805 . S
N600 C590 1.359 . S
N600 Gd599 2.570 . S
N600 C602 1.343 . S
C601 C589 1.422 . S
C601 C603 1.321 . S
C601 H609 0.931 . S
C602 N600 1.343 . S
C602 C603 1.390 . S
C602 H604 0.931 . S
C603 C601 1.321 . S
C603 C602 1.390 . S
C603 H605 0.930 . S
H604 C602 0.931 . S
H605 C603 0.930 . S
H606 C629 0.931 . S
H607 C595 0.929 . S
H608 C630 0.930 . S
H609 C601 0.931 . S
H610 C591 0.930 1_565 S
H611 C620 0.929 . S
H612 C596 0.931 . S
H613 C597 0.930 . S
H614 C652 0.930 . S
H615 C593 0.929 . S
H616 C621 0.931 . S
H617 C622 0.930 . S
N618 Gd598 2.622 . S
N618 C619 1.369 . S
N618 C620 1.338 . S
C619 N618 1.369 . S
C619 C623 1.415 . S
C619 C626 1.422 . S
C620 H611 0.929 . S
C620 N618 1.338 . S
C620 C622 1.378 . S
C621 H616 0.931 . S
C621 C622 1.348 . S
C621 C623 1.413 . S
C622 H617 0.930 . S
C622 C620 1.378 . S
C622 C621 1.348 . S
C623 C619 1.415 . S
C623 C621 1.413 . S
C623 C653 1.437 . S
H624 C653 0.929 . S
N625 Gd598 2.570 . S
N625 C626 1.359 . S
N625 C629 1.343 . S
C626 C619 1.422 . S
C626 N625 1.359 . S
C626 C628 1.421 . S
C627 C628 1.422 . S
C627 C630 1.321 . S
C627 H654 0.931 . S
C628 C626 1.421 . S
C628 C627 1.422 . S
C628 C652 1.417 . S
C629 H606 0.931 . S
C629 N625 1.343 . S
C629 C630 1.390 . S
C630 H608 0.930 . S
C630 C627 1.321 . S
C630 C629 1.390 . S
O631 Gd599 2.386 . S
O631 C643 1.265 . S
O632 Gd598 2.353 . S
O632 C643 1.242 . S
O633 Gd598 2.468 . S
O633 C651 1.263 . S
O634 Gd598 2.427 . S
O634 C651 1.252 . S
O635 Gd599 2.307 . S
O635 C644 1.261 . S
O636 Gd598 2.388 . S
O636 C644 1.252 . S
O637 Gd598 2.386 . S
O637 C655 1.265 . S
O638 Gd599 2.353 . S
O638 C655 1.242 . S
O639 Gd599 2.468 . S
O639 C663 1.263 . S
O640 Gd599 2.427 . S
O640 C663 1.252 . S
O641 Gd598 2.307 . S
O641 C656 1.261 . S
O642 Gd599 2.388 . S
O642 C656 1.252 . S
C643 O631 1.265 . S
C643 O632 1.242 . S
C644 O635 1.261 . S
C644 O636 1.252 . S
C645 C648 1.394 . S
C645 C650 1.370 . S
C645 C651 1.500 . S
C646 C649 1.383 . S
C646 C650 1.395 . S
C647 C648 1.396 . S
C647 C649 1.365 . S
C647 H664 0.929 . S
C648 C645 1.394 . S
C648 C647 1.396 . S
C648 H665 0.930 . S
C649 C646 1.383 . S
C649 C647 1.365 . S
C649 H666 0.931 . S
C650 C645 1.370 . S
C650 C646 1.395 . S
C650 H667 0.930 . S
C651 Gd598 2.805 . S
C651 O633 1.263 . S
C651 O634 1.252 . S
C651 C645 1.500 . S
C652 H614 0.930 . S
C652 C628 1.417 . S
C652 C653 1.329 . S
C653 C623 1.437 . S
C653 H624 0.929 . S
C653 C652 1.329 . S
H654 C627 0.931 . S
C655 O637 1.265 . S
C655 O638 1.242 . S
C656 O641 1.261 . S
C656 O642 1.252 . S
C657 C660 1.394 . S
C657 C662 1.370 . S
C657 C663 1.500 . S
C658 C661 1.383 . S
C658 C662 1.395 . S
C659 C660 1.396 . S
C659 C661 1.365 . S
C659 H668 0.929 . S
C660 C657 1.394 . S
C660 C659 1.396 . S
C660 H669 0.930 . S
C661 C658 1.383 . S
C661 C659 1.365 . S
C661 H670 0.931 . S
C662 C657 1.370 . S
C662 C658 1.395 . S
C662 H671 0.930 . S
C663 Gd599 2.805 . S
C663 O639 1.263 . S
C663 O640 1.252 . S
C663 C657 1.500 . S
H664 C647 0.929 . S
H665 C648 0.930 . S
H666 C649 0.931 . S
H667 C650 0.930 . S
H668 C659 0.929 . S
H669 C660 0.930 . S
H670 C661 0.931 . S
H671 C662 0.930 . S
C672 C674 1.422 . S
C672 C676 1.415 . S
C672 N678 1.369 . S
C673 C674 1.421 . S
C673 C675 1.417 . S
C673 C685 1.422 . S
C674 C672 1.422 . S
C674 C673 1.421 . S
C674 N684 1.359 . S
C675 C673 1.417 . S
C675 C677 1.329 . S
C675 H694 0.930 . S
C676 C672 1.415 . S
C676 C677 1.437 . S
C676 C680 1.413 . S
C677 C675 1.329 . S
C677 C676 1.437 . S
C677 H699 0.929 . S
N678 C672 1.369 . S
N678 C679 1.338 . S
N678 Gd683 2.622 . S
C679 N678 1.338 . S
C679 C681 1.378 . S
C679 H691 0.929 . S
C680 C676 1.413 . S
C680 C681 1.348 . S
C680 H696 0.931 . S
C681 C679 1.378 . S
C681 C680 1.348 . S
C681 H697 0.930 . S
Gd682 N702 2.622 . S
Gd682 N709 2.570 . S
Gd682 O716 2.353 . S
Gd682 O717 2.468 1_556 S
Gd682 O718 2.427 1_556 S
Gd682 O720 2.388 . S
Gd682 O721 2.386 . S
Gd682 O725 2.307 . S
Gd682 C735 2.805 1_556 S
Gd683 N678 2.622 . S
Gd683 N684 2.570 . S
Gd683 O715 2.386 . S
Gd683 O719 2.307 . S
Gd683 O722 2.353 . S
Gd683 O723 2.468 . S
Gd683 O724 2.427 . S
Gd683 O726 2.388 . S
Gd683 C747 2.805 . S
N684 C674 1.359 . S
N684 Gd683 2.570 . S
N684 C686 1.343 . S
C685 C673 1.422 . S
C685 C687 1.321 . S
C685 H693 0.931 . S
C686 N684 1.343 . S
C686 C687 1.390 . S
C686 H688 0.931 . S
C687 C685 1.321 . S
C687 C686 1.390 . S
C687 H689 0.930 . S
H688 C686 0.931 . S
H689 C687 0.930 . S
H690 C713 0.931 . S
H691 C679 0.929 . S
H692 C714 0.930 . S
H693 C685 0.931 . S
H694 C675 0.930 . S
H695 C704 0.929 . S
H696 C680 0.931 . S
H697 C681 0.930 . S
H698 C736 0.930 . S
H699 C677 0.929 . S
H700 C705 0.931 . S
H701 C706 0.930 . S
N702 Gd682 2.622 . S
N702 C703 1.369 . S
N702 C704 1.338 . S
C703 N702 1.369 . S
C703 C707 1.415 . S
C703 C710 1.422 . S
C704 H695 0.929 . S
C704 N702 1.338 . S
C704 C706 1.378 . S
C705 H700 0.931 . S
C705 C706 1.348 . S
C705 C707 1.413 . S
C706 H701 0.930 . S
C706 C704 1.378 . S
C706 C705 1.348 . S
C707 C703 1.415 . S
C707 C705 1.413 . S
C707 C737 1.437 1_556 S
H708 C737 0.929 . S
N709 Gd682 2.570 . S
N709 C710 1.359 . S
N709 C713 1.343 . S
C710 C703 1.422 . S
C710 N709 1.359 . S
C710 C712 1.421 1_556 S
C711 C712 1.422 . S
C711 C714 1.321 . S
C711 H738 0.931 . S
C712 C710 1.421 1_554 S
C712 C711 1.422 . S
C712 C736 1.417 . S
C713 H690 0.931 . S
C713 N709 1.343 . S
C713 C714 1.390 1_556 S
C714 H692 0.930 . S
C714 C711 1.321 . S
C714 C713 1.390 1_554 S
O715 Gd683 2.386 . S
O715 C727 1.265 . S
O716 Gd682 2.353 . S
O716 C727 1.242 . S
O717 Gd682 2.468 1_554 S
O717 C735 1.263 . S
O718 Gd682 2.427 1_554 S
O718 C735 1.252 . S
O719 Gd683 2.307 . S
O719 C728 1.261 . S
O720 Gd682 2.388 . S
O720 C728 1.252 . S
O721 Gd682 2.386 . S
O721 C739 1.265 . S
O722 Gd683 2.353 . S
O722 C739 1.242 . S
O723 Gd683 2.468 . S
O723 C747 1.263 . S
O724 Gd683 2.427 . S
O724 C747 1.252 . S
O725 Gd682 2.307 . S
O725 C740 1.261 . S
O726 Gd683 2.388 . S
O726 C740 1.252 . S
C727 O715 1.265 . S
C727 O716 1.242 . S
C728 O719 1.261 . S
C728 O720 1.252 . S
C729 C732 1.394 . S
C729 C734 1.370 . S
C729 C735 1.500 . S
C730 C733 1.383 . S
C730 C734 1.395 . S
C731 C732 1.396 . S
C731 C733 1.365 . S
C731 H748 0.929 . S
C732 C729 1.394 . S
C732 C731 1.396 . S
C732 H749 0.930 . S
C733 C730 1.383 . S
C733 C731 1.365 . S
C733 H750 0.931 . S
C734 C729 1.370 . S
C734 C730 1.395 . S
C734 H751 0.930 . S
C735 Gd682 2.805 1_554 S
C735 O717 1.263 . S
C735 O718 1.252 . S
C735 C729 1.500 . S
C736 H698 0.930 . S
C736 C712 1.417 . S
C736 C737 1.329 . S
C737 C707 1.437 1_554 S
C737 H708 0.929 . S
C737 C736 1.329 . S
H738 C711 0.931 . S
C739 O721 1.265 . S
C739 O722 1.242 . S
C740 O725 1.261 . S
C740 O726 1.252 . S
C741 C744 1.394 . S
C741 C746 1.370 . S
C741 C747 1.500 . S
C742 C745 1.383 . S
C742 C746 1.395 . S
C743 C744 1.396 . S
C743 C745 1.365 . S
C743 H752 0.929 . S
C744 C741 1.394 . S
C744 C743 1.396 . S
C744 H753 0.930 . S
C745 C742 1.383 . S
C745 C743 1.365 . S
C745 H754 0.931 . S
C746 C741 1.370 . S
C746 C742 1.395 . S
C746 H755 0.930 . S
C747 Gd683 2.805 . S
C747 O723 1.263 . S
C747 O724 1.252 . S
C747 C741 1.500 . S
H748 C731 0.929 . S
H749 C732 0.930 . S
H750 C733 0.931 . S
H751 C734 0.930 . S
H752 C743 0.929 . S
H753 C744 0.930 . S
H754 C745 0.931 . S
H755 C746 0.930 . S
C756 C758 1.422 . S
C756 C760 1.415 . S
C756 N762 1.369 . S
C757 C758 1.421 . S
C757 C759 1.417 . S
C757 C769 1.422 . S
C758 C756 1.422 . S
C758 C757 1.421 . S
C758 N768 1.359 . S
C759 C757 1.417 . S
C759 C761 1.329 . S
C759 H778 0.930 . S
C760 C756 1.415 . S
C760 C761 1.437 . S
C760 C764 1.413 . S
C761 C759 1.329 . S
C761 C760 1.437 . S
C761 H783 0.929 . S
N762 C756 1.369 . S
N762 C763 1.338 . S
N762 Gd767 2.622 . S
C763 N762 1.338 . S
C763 C765 1.378 . S
C763 H775 0.929 . S
C764 C760 1.413 . S
C764 C765 1.348 . S
C764 H780 0.931 . S
C765 C763 1.378 . S
C765 C764 1.348 . S
C765 H781 0.930 . S
Gd766 N786 2.622 . S
Gd766 N793 2.570 . S
Gd766 O800 2.353 . S
Gd766 O801 2.468 . S
Gd766 O802 2.427 . S
Gd766 O804 2.388 . S
Gd766 O805 2.386 . S
Gd766 O809 2.307 . S
Gd766 C819 2.805 . S
Gd767 N762 2.622 . S
Gd767 N768 2.570 . S
Gd767 O799 2.386 . S
Gd767 O803 2.307 . S
Gd767 O806 2.353 . S
Gd767 O807 2.468 . S
Gd767 O808 2.427 . S
Gd767 O810 2.388 . S
Gd767 C831 2.805 . S
N768 C758 1.359 . S
N768 Gd767 2.570 . S
N768 C770 1.343 . S
C769 C757 1.422 . S
C769 C771 1.321 . S
C769 H777 0.931 . S
C770 N768 1.343 . S
C770 C771 1.390 . S
C770 H772 0.931 . S
C771 C769 1.321 . S
C771 C770 1.390 . S
C771 H773 0.930 . S
H772 C770 0.931 . S
H773 C771 0.930 . S
H774 C797 0.931 . S
H775 C763 0.929 . S
H776 C798 0.930 . S
H777 C769 0.931 . S
H778 C759 0.930 . S
H779 C788 0.929 . S
H780 C764 0.931 . S
H781 C765 0.930 . S
H782 C820 0.930 . S
H783 C761 0.929 . S
H784 C789 0.931 . S
H785 C790 0.930 . S
N786 Gd766 2.622 . S
N786 C787 1.369 . S
N786 C788 1.338 . S
C787 N786 1.369 . S
C787 C791 1.415 . S
C787 C794 1.422 . S
C788 H779 0.929 . S
C788 N786 1.338 . S
C788 C790 1.378 . S
C789 H784 0.931 . S
C789 C790 1.348 . S
C789 C791 1.413 . S
C790 H785 0.930 . S
C790 C788 1.378 . S
C790 C789 1.348 . S
C791 C787 1.415 . S
C791 C789 1.413 . S
C791 C821 1.437 . S
H792 C821 0.929 . S
N793 Gd766 2.570 . S
N793 C794 1.359 . S
N793 C797 1.343 . S
C794 C787 1.422 . S
C794 N793 1.359 . S
C794 C796 1.421 . S
C795 C796 1.422 . S
C795 C798 1.321 . S
C795 H822 0.931 . S
C796 C794 1.421 . S
C796 C795 1.422 . S
C796 C820 1.417 . S
C797 H774 0.931 . S
C797 N793 1.343 . S
C797 C798 1.390 . S
C798 H776 0.930 . S
C798 C795 1.321 . S
C798 C797 1.390 . S
O799 Gd767 2.386 . S
O799 C811 1.265 . S
O800 Gd766 2.353 . S
O800 C811 1.242 . S
O801 Gd766 2.468 . S
O801 C819 1.263 . S
O802 Gd766 2.427 . S
O802 C819 1.252 . S
O803 Gd767 2.307 . S
O803 C812 1.261 . S
O804 Gd766 2.388 . S
O804 C812 1.252 . S
O805 Gd766 2.386 . S
O805 C823 1.265 . S
O806 Gd767 2.353 . S
O806 C823 1.242 . S
O807 Gd767 2.468 . S
O807 C831 1.263 . S
O808 Gd767 2.427 . S
O808 C831 1.252 . S
O809 Gd766 2.307 . S
O809 C824 1.261 . S
O810 Gd767 2.388 . S
O810 C824 1.252 . S
C811 O799 1.265 . S
C811 O800 1.242 . S
C812 O803 1.261 . S
C812 O804 1.252 . S
C813 C816 1.394 . S
C813 C818 1.370 . S
C813 C819 1.500 . S
C814 C817 1.383 . S
C814 C818 1.395 . S
C815 C816 1.396 . S
C815 C817 1.365 . S
C815 H832 0.929 . S
C816 C813 1.394 . S
C816 C815 1.396 . S
C816 H833 0.930 . S
C817 C814 1.383 . S
C817 C815 1.365 . S
C817 H834 0.931 . S
C818 C813 1.370 . S
C818 C814 1.395 . S
C818 H835 0.930 . S
C819 Gd766 2.805 . S
C819 O801 1.263 . S
C819 O802 1.252 . S
C819 C813 1.500 . S
C820 H782 0.930 . S
C820 C796 1.417 . S
C820 C821 1.329 . S
C821 C791 1.437 . S
C821 H792 0.929 . S
C821 C820 1.329 . S
H822 C795 0.931 . S
C823 O805 1.265 . S
C823 O806 1.242 . S
C824 O809 1.261 . S
C824 O810 1.252 . S
C825 C828 1.394 . S
C825 C830 1.370 . S
C825 C831 1.500 . S
C826 C829 1.383 . S
C826 C830 1.395 . S
C827 C828 1.396 . S
C827 C829 1.365 . S
C827 H836 0.929 . S
C828 C825 1.394 . S
C828 C827 1.396 . S
C828 H837 0.930 . S
C829 C826 1.383 . S
C829 C827 1.365 . S
C829 H838 0.931 . S
C830 C825 1.370 . S
C830 C826 1.395 . S
C830 H839 0.930 . S
C831 Gd767 2.805 . S
C831 O807 1.263 . S
C831 O808 1.252 . S
C831 C825 1.500 . S
H832 C815 0.929 . S
H833 C816 0.930 . S
H834 C817 0.931 . S
H835 C818 0.930 . S
H836 C827 0.929 . S
H837 C828 0.930 . S
H838 C829 0.931 . S
H839 C830 0.930 . S
C840 C842 1.422 . S
C840 C844 1.415 . S
C840 N846 1.369 . S
C841 C842 1.421 . S
C841 C843 1.417 . S
C841 C853 1.422 . S
C842 C840 1.422 . S
C842 C841 1.421 . S
C842 N852 1.359 . S
C843 C841 1.417 . S
C843 C845 1.329 . S
C843 H862 0.930 . S
C844 C840 1.415 . S
C844 C845 1.437 . S
C844 C848 1.413 . S
C845 C843 1.329 . S
C845 C844 1.437 . S
C845 H867 0.929 . S
N846 C840 1.369 . S
N846 C847 1.338 . S
N846 Gd851 2.622 . S
C847 N846 1.338 . S
C847 C849 1.378 . S
C847 H859 0.929 . S
C848 C844 1.413 . S
C848 C849 1.348 . S
C848 H864 0.931 . S
C849 C847 1.378 . S
C849 C848 1.348 . S
C849 H865 0.930 . S
Gd850 N870 2.622 . S
Gd850 N877 2.570 . S
Gd850 O884 2.353 . S
Gd850 O885 2.468 . S
Gd850 O886 2.427 . S
Gd850 O888 2.388 . S
Gd850 O889 2.386 . S
Gd850 O893 2.307 . S
Gd850 C903 2.805 . S
Gd851 N846 2.622 . S
Gd851 N852 2.570 . S
Gd851 O883 2.386 . S
Gd851 O887 2.307 . S
Gd851 O890 2.353 . S
Gd851 O891 2.468 . S
Gd851 O892 2.427 . S
Gd851 O894 2.388 . S
Gd851 C915 2.805 . S
N852 C842 1.359 . S
N852 Gd851 2.570 . S
N852 C854 1.343 . S
C853 C841 1.422 . S
C853 C855 1.321 . S
C853 H861 0.931 . S
C854 N852 1.343 . S
C854 C855 1.390 . S
C854 H856 0.931 . S
C855 C853 1.321 . S
C855 C854 1.390 . S
C855 H857 0.930 . S
H856 C854 0.931 . S
H857 C855 0.930 . S
H858 C881 0.931 . S
H859 C847 0.929 . S
H860 C882 0.930 . S
H861 C853 0.931 . S
H862 C843 0.930 . S
H863 C872 0.929 . S
H864 C848 0.931 . S
H865 C849 0.930 . S
H866 C904 0.930 . S
H867 C845 0.929 . S
H868 C873 0.931 . S
H869 C874 0.930 . S
N870 Gd850 2.622 . S
N870 C871 1.369 . S
N870 C872 1.338 . S
C871 N870 1.369 . S
C871 C875 1.415 . S
C871 C878 1.422 . S
C872 H863 0.929 . S
C872 N870 1.338 . S
C872 C874 1.378 . S
C873 H868 0.931 . S
C873 C874 1.348 . S
C873 C875 1.413 . S
C874 H869 0.930 . S
C874 C872 1.378 . S
C874 C873 1.348 . S
C875 C871 1.415 . S
C875 C873 1.413 . S
C875 C905 1.437 . S
H876 C905 0.929 . S
N877 Gd850 2.570 . S
N877 C878 1.359 . S
N877 C881 1.343 . S
C878 C871 1.422 . S
C878 N877 1.359 . S
C878 C880 1.421 . S
C879 C880 1.422 . S
C879 C882 1.321 . S
C879 H906 0.931 . S
C880 C878 1.421 . S
C880 C879 1.422 . S
C880 C904 1.417 . S
C881 H858 0.931 . S
C881 N877 1.343 . S
C881 C882 1.390 . S
C882 H860 0.930 . S
C882 C879 1.321 . S
C882 C881 1.390 . S
O883 Gd851 2.386 . S
O883 C895 1.265 . S
O884 Gd850 2.353 . S
O884 C895 1.242 . S
O885 Gd850 2.468 . S
O885 C903 1.263 . S
O886 Gd850 2.427 . S
O886 C903 1.252 . S
O887 Gd851 2.307 . S
O887 C896 1.261 . S
O888 Gd850 2.388 . S
O888 C896 1.252 . S
O889 Gd850 2.386 . S
O889 C907 1.265 . S
O890 Gd851 2.353 . S
O890 C907 1.242 . S
O891 Gd851 2.468 . S
O891 C915 1.263 . S
O892 Gd851 2.427 . S
O892 C915 1.252 . S
O893 Gd850 2.307 . S
O893 C908 1.261 . S
O894 Gd851 2.388 . S
O894 C908 1.252 . S
C895 O883 1.265 . S
C895 O884 1.242 . S
C896 O887 1.261 . S
C896 O888 1.252 . S
C897 C900 1.394 . S
C897 C902 1.370 . S
C897 C903 1.500 . S
C898 C901 1.383 . S
C898 C902 1.395 . S
C899 C900 1.396 . S
C899 C901 1.365 . S
C899 H916 0.929 . S
C900 C897 1.394 . S
C900 C899 1.396 . S
C900 H917 0.930 . S
C901 C898 1.383 . S
C901 C899 1.365 . S
C901 H918 0.931 . S
C902 C897 1.370 . S
C902 C898 1.395 . S
C902 H919 0.930 . S
C903 Gd850 2.805 . S
C903 O885 1.263 . S
C903 O886 1.252 . S
C903 C897 1.500 . S
C904 H866 0.930 . S
C904 C880 1.417 . S
C904 C905 1.329 . S
C905 C875 1.437 . S
C905 H876 0.929 . S
C905 C904 1.329 . S
H906 C879 0.931 . S
C907 O889 1.265 . S
C907 O890 1.242 . S
C908 O893 1.261 . S
C908 O894 1.252 . S
C909 C912 1.394 . S
C909 C914 1.370 . S
C909 C915 1.500 . S
C910 C913 1.383 . S
C910 C914 1.395 . S
C911 C912 1.396 . S
C911 C913 1.365 . S
C911 H920 0.929 . S
C912 C909 1.394 . S
C912 C911 1.396 . S
C912 H921 0.930 . S
C913 C910 1.383 . S
C913 C911 1.365 . S
C913 H922 0.931 . S
C914 C909 1.370 . S
C914 C910 1.395 . S
C914 H923 0.930 . S
C915 Gd851 2.805 . S
C915 O891 1.263 . S
C915 O892 1.252 . S
C915 C909 1.500 . S
H916 C899 0.929 . S
H917 C900 0.930 . S
H918 C901 0.931 . S
H919 C902 0.930 . S
H920 C911 0.929 . S
H921 C912 0.930 . S
H922 C913 0.931 . S
H923 C914 0.930 . S
C924 C926 1.422 . S
C924 C928 1.415 . S
C924 N930 1.369 . S
C925 C926 1.421 1_556 S
C925 C927 1.417 . S
C925 C937 1.422 . S
C926 C924 1.422 . S
C926 C925 1.421 1_554 S
C926 N936 1.359 . S
C927 C925 1.417 . S
C927 C929 1.329 . S
C927 H946 0.930 . S
C928 C924 1.415 . S
C928 C929 1.437 1_554 S
C928 C932 1.413 . S
C929 C927 1.329 . S
C929 C928 1.437 1_556 S
C929 H951 0.929 . S
N930 C924 1.369 . S
N930 C931 1.338 . S
N930 Gd935 2.622 . S
C931 N930 1.338 . S
C931 C933 1.378 . S
C931 H943 0.929 . S
C932 C928 1.413 . S
C932 C933 1.348 . S
C932 H948 0.931 . S
C933 C931 1.378 . S
C933 C932 1.348 . S
C933 H949 0.930 . S
Gd934 N954 2.622 . S
Gd934 N961 2.570 . S
Gd934 O968 2.353 . S
Gd934 O969 2.468 . S
Gd934 O970 2.427 . S
Gd934 O972 2.388 . S
Gd934 O973 2.386 . S
Gd934 O977 2.307 . S
Gd934 C987 2.805 . S
Gd935 N930 2.622 . S
Gd935 N936 2.570 . S
Gd935 O967 2.386 . S
Gd935 O971 2.307 . S
Gd935 O974 2.353 . S
Gd935 O975 2.468 1_554 S
Gd935 O976 2.427 1_554 S
Gd935 O978 2.388 . S
Gd935 C999 2.805 1_554 S
N936 C926 1.359 . S
N936 Gd935 2.570 . S
N936 C938 1.343 . S
C937 C925 1.422 . S
C937 C939 1.321 . S
C937 H945 0.931 . S
C938 N936 1.343 . S
C938 C939 1.390 1_554 S
C938 H940 0.931 . S
C939 C937 1.321 . S
C939 C938 1.390 1_556 S
C939 H941 0.930 . S
H940 C938 0.931 . S
H941 C939 0.930 . S
H942 C965 0.931 . S
H943 C931 0.929 . S
H944 C966 0.930 . S
H945 C937 0.931 . S
H946 C927 0.930 . S
H947 C956 0.929 . S
H948 C932 0.931 . S
H949 C933 0.930 . S
H950 C988 0.930 1_545 S
H951 C929 0.929 . S
H952 C957 0.931 . S
H953 C958 0.930 . S
N954 Gd934 2.622 . S
N954 C955 1.369 . S
N954 C956 1.338 . S
C955 N954 1.369 . S
C955 C959 1.415 . S
C955 C962 1.422 . S
C956 H947 0.929 . S
C956 N954 1.338 . S
C956 C958 1.378 . S
C957 H952 0.931 . S
C957 C958 1.348 . S
C957 C959 1.413 . S
C958 H953 0.930 . S
C958 C956 1.378 . S
C958 C957 1.348 . S
C959 C955 1.415 . S
C959 C957 1.413 . S
C959 C989 1.437 . S
H960 C989 0.929 . S
N961 Gd934 2.570 . S
N961 C962 1.359 . S
N961 C965 1.343 . S
C962 C955 1.422 . S
C962 N961 1.359 . S
C962 C964 1.421 . S
C963 C964 1.422 . S
C963 C966 1.321 . S
C963 H990 0.931 . S
C964 C962 1.421 . S
C964 C963 1.422 . S
C964 C988 1.417 . S
C965 H942 0.931 . S
C965 N961 1.343 . S
C965 C966 1.390 . S
C966 H944 0.930 . S
C966 C963 1.321 . S
C966 C965 1.390 . S
O967 Gd935 2.386 . S
O967 C979 1.265 . S
O968 Gd934 2.353 . S
O968 C979 1.242 . S
O969 Gd934 2.468 . S
O969 C987 1.263 . S
O970 Gd934 2.427 . S
O970 C987 1.252 . S
O971 Gd935 2.307 . S
O971 C980 1.261 . S
O972 Gd934 2.388 . S
O972 C980 1.252 . S
O973 Gd934 2.386 . S
O973 C991 1.265 . S
O974 Gd935 2.353 . S
O974 C991 1.242 . S
O975 Gd935 2.468 1_556 S
O975 C999 1.263 . S
O976 Gd935 2.427 1_556 S
O976 C999 1.252 . S
O977 Gd934 2.307 . S
O977 C992 1.261 . S
O978 Gd935 2.388 . S
O978 C992 1.252 . S
C979 O967 1.265 . S
C979 O968 1.242 . S
C980 O971 1.261 . S
C980 O972 1.252 . S
C981 C984 1.394 . S
C981 C986 1.370 . S
C981 C987 1.500 . S
C982 C985 1.383 . S
C982 C986 1.395 . S
C983 C984 1.396 . S
C983 C985 1.365 . S
C983 H1000 0.929 . S
C984 C981 1.394 . S
C984 C983 1.396 . S
C984 H1001 0.930 . S
C985 C982 1.383 . S
C985 C983 1.365 . S
C985 H1002 0.931 . S
C986 C981 1.370 . S
C986 C982 1.395 . S
C986 H1003 0.930 . S
C987 Gd934 2.805 . S
C987 O969 1.263 . S
C987 O970 1.252 . S
C987 C981 1.500 . S
C988 H950 0.930 1_565 S
C988 C964 1.417 . S
C988 C989 1.329 . S
C989 C959 1.437 . S
C989 H960 0.929 . S
C989 C988 1.329 . S
H990 C963 0.931 . S
C991 O973 1.265 . S
C991 O974 1.242 . S
C992 O977 1.261 . S
C992 O978 1.252 . S
C993 C996 1.394 . S
C993 C998 1.370 . S
C993 C999 1.500 . S
C994 C997 1.383 . S
C994 C998 1.395 . S
C995 C996 1.396 . S
C995 C997 1.365 . S
C995 H1004 0.929 . S
C996 C993 1.394 . S
C996 C995 1.396 . S
C996 H1005 0.930 . S
C997 C994 1.383 . S
C997 C995 1.365 . S
C997 H1006 0.931 . S
C998 C993 1.370 . S
C998 C994 1.395 . S
C998 H1007 0.930 . S
C999 Gd935 2.805 1_556 S
C999 O975 1.263 . S
C999 O976 1.252 . S
C999 C993 1.500 . S
H1000 C983 0.929 . S
H1001 C984 0.930 . S
H1002 C985 0.931 . S
H1003 C986 0.930 . S
H1004 C995 0.929 . S
H1005 C996 0.930 . S
H1006 C997 0.931 . S
H1007 C998 0.930 . S
C1008 C1010 1.422 . S
C1008 C1012 1.415 . S
C1008 N1014 1.369 . S
C1009 C1010 1.421 . S
C1009 C1011 1.417 . S
C1009 C1021 1.422 . S
C1010 C1008 1.422 . S
C1010 C1009 1.421 . S
C1010 N1020 1.359 . S
C1011 C1009 1.417 . S
C1011 C1013 1.329 . S
C1011 H1030 0.930 . S
C1012 C1008 1.415 . S
C1012 C1013 1.437 . S
C1012 C1016 1.413 . S
C1013 C1011 1.329 . S
C1013 C1012 1.437 . S
C1013 H1035 0.929 . S
N1014 C1008 1.369 . S
N1014 C1015 1.338 . S
N1014 Gd1019 2.622 . S
C1015 N1014 1.338 . S
C1015 C1017 1.378 . S
C1015 H1027 0.929 . S
C1016 C1012 1.413 . S
C1016 C1017 1.348 . S
C1016 H1032 0.931 . S
C1017 C1015 1.378 . S
C1017 C1016 1.348 . S
C1017 H1033 0.930 . S
Gd1018 N1038 2.622 . S
Gd1018 N1045 2.570 . S
Gd1018 O1052 2.353 . S
Gd1018 O1053 2.468 1_554 S
Gd1018 O1054 2.427 1_554 S
Gd1018 O1056 2.388 . S
Gd1018 O1057 2.386 . S
Gd1018 O1061 2.307 . S
Gd1018 C1071 2.805 1_554 S
Gd1019 N1014 2.622 . S
Gd1019 N1020 2.570 . S
Gd1019 O1051 2.386 . S
Gd1019 O1055 2.307 . S
Gd1019 O1058 2.353 . S
Gd1019 O1059 2.468 . S
Gd1019 O1060 2.427 . S
Gd1019 O1062 2.388 . S
Gd1019 C1083 2.805 . S
N1020 C1010 1.359 . S
N1020 Gd1019 2.570 . S
N1020 C1022 1.343 . S
C1021 C1009 1.422 . S
C1021 C1023 1.321 . S
C1021 H1029 0.931 . S
C1022 N1020 1.343 . S
C1022 C1023 1.390 . S
C1022 H1024 0.931 . S
C1023 C1021 1.321 . S
C1023 C1022 1.390 . S
C1023 H1025 0.930 . S
H1024 C1022 0.931 . S
H1025 C1023 0.930 . S
H1026 C1049 0.929 1_554 S
H1027 C1015 0.929 . S
H1028 C1050 0.930 . S
H1029 C1021 0.931 . S
H1030 C1011 0.930 . S
H1031 C1040 0.929 . S
H1032 C1016 0.931 . S
H1033 C1017 0.930 . S
H1034 C1072 0.930 . S
H1035 C1013 0.929 . S
H1036 C1041 0.931 . S
H1037 C1042 0.930 . S
N1038 Gd1018 2.622 . S
N1038 C1039 1.369 . S
N1038 C1040 1.338 . S
C1039 N1038 1.369 . S
C1039 C1043 1.415 . S
C1039 C1046 1.422 . S
C1040 H1031 0.929 . S
C1040 N1038 1.338 . S
C1040 C1042 1.378 . S
C1041 H1036 0.931 . S
C1041 C1042 1.348 . S
C1041 C1043 1.413 . S
C1042 H1037 0.930 . S
C1042 C1040 1.378 . S
C1042 C1041 1.348 . S
C1043 C1039 1.415 . S
C1043 C1041 1.413 . S
C1043 C1073 1.437 1_554 S
H1044 C1073 0.929 . S
N1045 Gd1018 2.570 . S
N1045 C1046 1.359 . S
N1045 C1049 1.340 1_554 S
C1046 C1039 1.422 . S
C1046 N1045 1.359 . S
C1046 C1048 1.421 1_554 S
C1047 C1048 1.422 . S
C1047 C1050 1.321 . S
C1047 H1074 0.931 . S
C1048 C1046 1.421 1_556 S
C1048 C1047 1.422 . S
C1048 C1072 1.417 . S
C1049 H1026 0.929 1_556 S
C1049 N1045 1.340 1_556 S
C1049 C1050 1.396 . S
C1050 H1028 0.930 . S
C1050 C1047 1.321 . S
C1050 C1049 1.396 . S
O1051 Gd1019 2.386 . S
O1051 C1063 1.265 . S
O1052 Gd1018 2.353 . S
O1052 C1063 1.242 . S
O1053 Gd1018 2.468 1_556 S
O1053 C1071 1.263 . S
O1054 Gd1018 2.427 1_556 S
O1054 C1071 1.252 . S
O1055 Gd1019 2.307 . S
O1055 C1064 1.261 . S
O1056 Gd1018 2.388 . S
O1056 C1064 1.252 . S
O1057 Gd1018 2.386 . S
O1057 C1075 1.265 . S
O1058 Gd1019 2.353 . S
O1058 C1075 1.242 . S
O1059 Gd1019 2.468 . S
O1059 C1083 1.263 . S
O1060 Gd1019 2.427 . S
O1060 C1083 1.252 . S
O1061 Gd1018 2.307 . S
O1061 C1076 1.261 . S
O1062 Gd1019 2.388 . S
O1062 C1076 1.252 . S
C1063 O1051 1.265 . S
C1063 O1052 1.242 . S
C1064 O1055 1.261 . S
C1064 O1056 1.252 . S
C1065 C1068 1.394 . S
C1065 C1070 1.370 . S
C1065 C1071 1.500 . S
C1066 C1069 1.383 . S
C1066 C1070 1.395 . S
C1067 C1068 1.396 . S
C1067 C1069 1.365 . S
C1067 H1084 0.929 . S
C1068 C1065 1.394 . S
C1068 C1067 1.396 . S
C1068 H1085 0.930 . S
C1069 C1066 1.383 . S
C1069 C1067 1.365 . S
C1069 H1086 0.931 . S
C1070 C1065 1.370 . S
C1070 C1066 1.395 . S
C1070 H1087 0.930 . S
C1071 Gd1018 2.805 1_556 S
C1071 O1053 1.263 . S
C1071 O1054 1.252 . S
C1071 C1065 1.500 . S
C1072 H1034 0.930 . S
C1072 C1048 1.417 . S
C1072 C1073 1.329 . S
C1073 C1043 1.437 1_556 S
C1073 H1044 0.929 . S
C1073 C1072 1.329 . S
H1074 C1047 0.931 . S
C1075 O1057 1.265 . S
C1075 O1058 1.242 . S
C1076 O1061 1.261 . S
C1076 O1062 1.252 . S
C1077 C1080 1.394 . S
C1077 C1082 1.370 . S
C1077 C1083 1.500 . S
C1078 C1081 1.383 . S
C1078 C1082 1.395 . S
C1079 C1080 1.396 . S
C1079 C1081 1.365 . S
C1079 H1088 0.929 . S
C1080 C1077 1.394 . S
C1080 C1079 1.396 . S
C1080 H1089 0.930 . S
C1081 C1078 1.383 . S
C1081 C1079 1.365 . S
C1081 H1090 0.931 . S
C1082 C1077 1.370 . S
C1082 C1078 1.395 . S
C1082 H1091 0.930 . S
C1083 Gd1019 2.805 . S
C1083 O1059 1.263 . S
C1083 O1060 1.252 . S
C1083 C1077 1.500 . S
H1084 C1067 0.929 . S
H1085 C1068 0.930 . S
H1086 C1069 0.931 . S
H1087 C1070 0.930 . S
H1088 C1079 0.929 . S
H1089 C1080 0.930 . S
H1090 C1081 0.931 . S
H1091 C1082 0.930 . S
C1092 C1094 1.422 . S
C1092 C1096 1.415 . S
C1092 N1098 1.369 . S
C1093 C1094 1.421 . S
C1093 C1095 1.417 . S
C1093 C1105 1.422 . S
C1094 C1092 1.422 . S
C1094 C1093 1.421 . S
C1094 N1104 1.359 . S
C1095 C1093 1.417 . S
C1095 C1097 1.329 . S
C1095 H1114 0.930 . S
C1096 C1092 1.415 . S
C1096 C1097 1.437 . S
C1096 C1100 1.413 . S
C1097 C1095 1.329 . S
C1097 C1096 1.437 . S
C1097 H1119 0.929 . S
N1098 C1092 1.369 . S
N1098 C1099 1.338 . S
N1098 Gd1103 2.622 . S
C1099 N1098 1.338 . S
C1099 C1101 1.378 . S
C1099 H1111 0.929 . S
C1100 C1096 1.413 . S
C1100 C1101 1.348 . S
C1100 H1116 0.931 . S
C1101 C1099 1.378 . S
C1101 C1100 1.348 . S
C1101 H1117 0.930 . S
Gd1102 N1122 2.622 . S
Gd1102 N1129 2.570 . S
Gd1102 O1136 2.353 . S
Gd1102 O1137 2.468 1_556 S
Gd1102 O1138 2.427 1_556 S
Gd1102 O1140 2.388 . S
Gd1102 O1141 2.386 . S
Gd1102 O1145 2.307 . S
Gd1102 C1155 2.805 1_556 S
Gd1103 N1098 2.622 . S
Gd1103 N1104 2.570 . S
Gd1103 O1135 2.386 . S
Gd1103 O1139 2.307 . S
Gd1103 O1142 2.353 . S
Gd1103 O1143 2.468 . S
Gd1103 O1144 2.427 . S
Gd1103 O1146 2.388 . S
Gd1103 C1167 2.805 . S
N1104 C1094 1.359 . S
N1104 Gd1103 2.570 . S
N1104 C1106 1.343 . S
C1105 C1093 1.422 . S
C1105 C1107 1.321 . S
C1105 H1113 0.931 . S
C1106 N1104 1.343 . S
C1106 C1107 1.390 . S
C1106 H1108 0.931 . S
C1107 C1105 1.321 . S
C1107 C1106 1.390 . S
C1107 H1109 0.930 . S
H1108 C1106 0.931 . S
H1109 C1107 0.930 . S
H1110 C1133 0.931 . S
H1111 C1099 0.929 . S
H1112 C1134 0.930 . S
H1113 C1105 0.931 . S
H1114 C1095 0.930 . S
H1115 C1124 0.929 . S
H1116 C1100 0.931 . S
H1117 C1101 0.930 . S
H1118 C1156 0.930 . S
H1119 C1097 0.929 . S
H1120 C1125 0.931 . S
H1121 C1126 0.930 . S
N1122 Gd1102 2.622 . S
N1122 C1123 1.369 . S
N1122 C1124 1.338 . S
C1123 N1122 1.369 . S
C1123 C1127 1.415 . S
C1123 C1130 1.422 . S
C1124 H1115 0.929 . S
C1124 N1122 1.338 . S
C1124 C1126 1.378 . S
C1125 H1120 0.931 . S
C1125 C1126 1.348 . S
C1125 C1127 1.413 . S
C1126 H1121 0.930 . S
C1126 C1124 1.378 . S
C1126 C1125 1.348 . S
C1127 C1123 1.415 . S
C1127 C1125 1.413 . S
C1127 C1157 1.437 1_556 S
H1128 C1157 0.929 . S
N1129 Gd1102 2.570 . S
N1129 C1130 1.359 . S
N1129 C1133 1.343 . S
C1130 C1123 1.422 . S
C1130 N1129 1.359 . S
C1130 C1132 1.421 1_556 S
C1131 C1132 1.422 . S
C1131 C1134 1.321 . S
C1131 H1158 0.931 . S
C1132 C1130 1.421 1_554 S
C1132 C1131 1.422 . S
C1132 C1156 1.417 . S
C1133 H1110 0.931 . S
C1133 N1129 1.343 . S
C1133 C1134 1.390 1_556 S
C1134 H1112 0.930 . S
C1134 C1131 1.321 . S
C1134 C1133 1.390 1_554 S
O1135 Gd1103 2.386 . S
O1135 C1147 1.265 . S
O1136 Gd1102 2.353 . S
O1136 C1147 1.242 . S
O1137 Gd1102 2.468 1_554 S
O1137 C1155 1.263 . S
O1138 Gd1102 2.427 1_554 S
O1138 C1155 1.252 . S
O1139 Gd1103 2.307 . S
O1139 C1148 1.261 . S
O1140 Gd1102 2.388 . S
O1140 C1148 1.252 . S
O1141 Gd1102 2.386 . S
O1141 C1159 1.265 . S
O1142 Gd1103 2.353 . S
O1142 C1159 1.242 . S
O1143 Gd1103 2.468 . S
O1143 C1167 1.263 . S
O1144 Gd1103 2.427 . S
O1144 C1167 1.252 . S
O1145 Gd1102 2.307 . S
O1145 C1160 1.261 . S
O1146 Gd1103 2.388 . S
O1146 C1160 1.252 . S
C1147 O1135 1.265 . S
C1147 O1136 1.242 . S
C1148 O1139 1.261 . S
C1148 O1140 1.252 . S
C1149 C1152 1.394 . S
C1149 C1154 1.370 . S
C1149 C1155 1.500 . S
C1150 C1153 1.383 . S
C1150 C1154 1.395 . S
C1151 C1152 1.396 . S
C1151 C1153 1.365 . S
C1151 H1168 0.929 . S
C1152 C1149 1.394 . S
C1152 C1151 1.396 . S
C1152 H1169 0.930 . S
C1153 C1150 1.383 . S
C1153 C1151 1.365 . S
C1153 H1170 0.931 . S
C1154 C1149 1.370 . S
C1154 C1150 1.395 . S
C1154 H1171 0.930 . S
C1155 Gd1102 2.805 1_554 S
C1155 O1137 1.263 . S
C1155 O1138 1.252 . S
C1155 C1149 1.500 . S
C1156 H1118 0.930 . S
C1156 C1132 1.417 . S
C1156 C1157 1.329 . S
C1157 C1127 1.437 1_554 S
C1157 H1128 0.929 . S
C1157 C1156 1.329 . S
H1158 C1131 0.931 . S
C1159 O1141 1.265 . S
C1159 O1142 1.242 . S
C1160 O1145 1.261 . S
C1160 O1146 1.252 . S
C1161 C1164 1.394 . S
C1161 C1166 1.370 . S
C1161 C1167 1.500 . S
C1162 C1165 1.383 . S
C1162 C1166 1.395 . S
C1163 C1164 1.396 . S
C1163 C1165 1.365 . S
C1163 H1172 0.929 . S
C1164 C1161 1.394 . S
C1164 C1163 1.396 . S
C1164 H1173 0.930 . S
C1165 C1162 1.383 . S
C1165 C1163 1.365 . S
C1165 H1174 0.931 . S
C1166 C1161 1.370 . S
C1166 C1162 1.395 . S
C1166 H1175 0.930 . S
C1167 Gd1103 2.805 . S
C1167 O1143 1.263 . S
C1167 O1144 1.252 . S
C1167 C1161 1.500 . S
H1168 C1151 0.929 . S
H1169 C1152 0.930 . S
H1170 C1153 0.931 . S
H1171 C1154 0.930 . S
H1172 C1163 0.929 . S
H1173 C1164 0.930 . S
H1174 C1165 0.931 . S
H1175 C1166 0.930 . S
C1176 C1178 1.422 . S
C1176 C1180 1.415 . S
C1176 N1182 1.369 . S
C1177 C1178 1.421 . S
C1177 C1179 1.417 . S
C1177 C1189 1.422 . S
C1178 C1176 1.422 . S
C1178 C1177 1.421 . S
C1178 N1188 1.359 . S
C1179 C1177 1.417 . S
C1179 C1181 1.329 . S
C1179 H1198 0.930 . S
C1180 C1176 1.415 . S
C1180 C1181 1.437 . S
C1180 C1184 1.413 . S
C1181 C1179 1.329 . S
C1181 C1180 1.437 . S
C1181 H1203 0.929 . S
N1182 C1176 1.369 . S
N1182 C1183 1.338 . S
N1182 Gd1187 2.622 . S
C1183 N1182 1.338 . S
C1183 C1185 1.378 . S
C1183 H1195 0.929 . S
C1184 C1180 1.413 . S
C1184 C1185 1.348 . S
C1184 H1200 0.931 . S
C1185 C1183 1.378 . S
C1185 C1184 1.348 . S
C1185 H1201 0.930 . S
Gd1186 N1206 2.622 . S
Gd1186 N1213 2.570 . S
Gd1186 O1220 2.353 . S
Gd1186 O1221 2.468 . S
Gd1186 O1222 2.427 . S
Gd1186 O1224 2.388 . S
Gd1186 O1225 2.386 . S
Gd1186 O1229 2.307 . S
Gd1186 C1239 2.805 . S
Gd1187 N1182 2.622 . S
Gd1187 N1188 2.570 . S
Gd1187 O1219 2.386 . S
Gd1187 O1223 2.307 . S
Gd1187 O1226 2.353 . S
Gd1187 O1227 2.468 . S
Gd1187 O1228 2.427 . S
Gd1187 O1230 2.388 . S
Gd1187 C1251 2.805 . S
N1188 C1178 1.359 . S
N1188 Gd1187 2.570 . S
N1188 C1190 1.343 . S
C1189 C1177 1.422 . S
C1189 C1191 1.321 . S
C1189 H1197 0.931 . S
C1190 N1188 1.343 . S
C1190 C1191 1.390 . S
C1190 H1192 0.931 . S
C1191 C1189 1.321 . S
C1191 C1190 1.390 . S
C1191 H1193 0.930 . S
H1192 C1190 0.931 . S
H1193 C1191 0.930 . S
H1194 C1217 0.931 . S
H1195 C1183 0.929 . S
H1196 C1218 0.930 . S
H1197 C1189 0.931 . S
H1198 C1179 0.930 . S
H1199 C1208 0.929 . S
H1200 C1184 0.931 . S
H1201 C1185 0.930 . S
H1202 C1240 0.930 . S
H1203 C1181 0.929 . S
H1204 C1209 0.931 . S
H1205 C1210 0.930 . S
N1206 Gd1186 2.622 . S
N1206 C1207 1.369 . S
N1206 C1208 1.338 . S
C1207 N1206 1.369 . S
C1207 C1211 1.415 . S
C1207 C1214 1.422 . S
C1208 H1199 0.929 . S
C1208 N1206 1.338 . S
C1208 C1210 1.378 . S
C1209 H1204 0.931 . S
C1209 C1210 1.348 . S
C1209 C1211 1.413 . S
C1210 H1205 0.930 . S
C1210 C1208 1.378 . S
C1210 C1209 1.348 . S
C1211 C1207 1.415 . S
C1211 C1209 1.413 . S
C1211 C1241 1.437 . S
H1212 C1241 0.929 . S
N1213 Gd1186 2.570 . S
N1213 C1214 1.359 . S
N1213 C1217 1.343 . S
C1214 C1207 1.422 . S
C1214 N1213 1.359 . S
C1214 C1216 1.421 . S
C1215 C1216 1.422 . S
C1215 C1218 1.321 . S
C1215 H1242 0.931 . S
C1216 C1214 1.421 . S
C1216 C1215 1.422 . S
C1216 C1240 1.417 . S
C1217 H1194 0.931 . S
C1217 N1213 1.343 . S
C1217 C1218 1.390 . S
C1218 H1196 0.930 . S
C1218 C1215 1.321 . S
C1218 C1217 1.390 . S
O1219 Gd1187 2.386 . S
O1219 C1231 1.265 . S
O1220 Gd1186 2.353 . S
O1220 C1231 1.242 . S
O1221 Gd1186 2.468 . S
O1221 C1239 1.263 . S
O1222 Gd1186 2.427 . S
O1222 C1239 1.252 . S
O1223 Gd1187 2.307 . S
O1223 C1232 1.261 . S
O1224 Gd1186 2.388 . S
O1224 C1232 1.252 . S
O1225 Gd1186 2.386 . S
O1225 C1243 1.265 . S
O1226 Gd1187 2.353 . S
O1226 C1243 1.242 . S
O1227 Gd1187 2.468 . S
O1227 C1251 1.263 . S
O1228 Gd1187 2.427 . S
O1228 C1251 1.252 . S
O1229 Gd1186 2.307 . S
O1229 C1244 1.261 . S
O1230 Gd1187 2.388 . S
O1230 C1244 1.252 . S
C1231 O1219 1.265 . S
C1231 O1220 1.242 . S
C1232 O1223 1.261 . S
C1232 O1224 1.252 . S
C1233 C1236 1.394 . S
C1233 C1238 1.370 . S
C1233 C1239 1.500 . S
C1234 C1237 1.383 . S
C1234 C1238 1.395 . S
C1235 C1236 1.396 . S
C1235 C1237 1.365 . S
C1235 H1252 0.929 . S
C1236 C1233 1.394 . S
C1236 C1235 1.396 . S
C1236 H1253 0.930 . S
C1237 C1234 1.383 . S
C1237 C1235 1.365 . S
C1237 H1254 0.931 . S
C1238 C1233 1.370 . S
C1238 C1234 1.395 . S
C1238 H1255 0.930 . S
C1239 Gd1186 2.805 . S
C1239 O1221 1.263 . S
C1239 O1222 1.252 . S
C1239 C1233 1.500 . S
C1240 H1202 0.930 . S
C1240 C1216 1.417 . S
C1240 C1241 1.329 . S
C1241 C1211 1.437 . S
C1241 H1212 0.929 . S
C1241 C1240 1.329 . S
H1242 C1215 0.931 . S
C1243 O1225 1.265 . S
C1243 O1226 1.242 . S
C1244 O1229 1.261 . S
C1244 O1230 1.252 . S
C1245 C1248 1.394 . S
C1245 C1250 1.370 . S
C1245 C1251 1.500 . S
C1246 C1249 1.383 . S
C1246 C1250 1.395 . S
C1247 C1248 1.396 . S
C1247 C1249 1.365 . S
C1247 H1256 0.929 . S
C1248 C1245 1.394 . S
C1248 C1247 1.396 . S
C1248 H1257 0.930 . S
C1249 C1246 1.383 . S
C1249 C1247 1.365 . S
C1249 H1258 0.931 . S
C1250 C1245 1.370 . S
C1250 C1246 1.395 . S
C1250 H1259 0.930 . S
C1251 Gd1187 2.805 . S
C1251 O1227 1.263 . S
C1251 O1228 1.252 . S
C1251 C1245 1.500 . S
H1252 C1235 0.929 . S
H1253 C1236 0.930 . S
H1254 C1237 0.931 . S
H1255 C1238 0.930 . S
H1256 C1247 0.929 . S
H1257 C1248 0.930 . S
H1258 C1249 0.931 . S
H1259 C1250 0.930 . S
C1260 C1262 1.422 . S
C1260 C1264 1.415 . S
C1260 N1266 1.369 . S
C1261 C1262 1.421 . S
C1261 C1263 1.417 . S
C1261 C1273 1.422 . S
C1262 C1260 1.422 . S
C1262 C1261 1.421 . S
C1262 N1272 1.359 . S
C1263 C1261 1.417 . S
C1263 C1265 1.329 . S
C1263 H1282 0.930 . S
C1264 C1260 1.415 . S
C1264 C1265 1.437 . S
C1264 C1268 1.413 . S
C1265 C1263 1.329 . S
C1265 C1264 1.437 . S
C1265 H1287 0.929 . S
N1266 C1260 1.369 . S
N1266 C1267 1.338 . S
N1266 Gd1271 2.622 . S
C1267 N1266 1.338 . S
C1267 C1269 1.378 . S
C1267 H1279 0.929 . S
C1268 C1264 1.413 . S
C1268 C1269 1.348 . S
C1268 H1284 0.931 . S
C1269 C1267 1.378 . S
C1269 C1268 1.348 . S
C1269 H1285 0.930 . S
Gd1270 N1290 2.622 . S
Gd1270 N1297 2.570 . S
Gd1270 O1304 2.353 . S
Gd1270 O1305 2.468 . S
Gd1270 O1306 2.427 . S
Gd1270 O1308 2.388 . S
Gd1270 O1309 2.386 . S
Gd1270 O1313 2.307 . S
Gd1270 C1323 2.805 . S
Gd1271 N1266 2.622 . S
Gd1271 N1272 2.570 . S
Gd1271 O1303 2.386 . S
Gd1271 O1307 2.307 . S
Gd1271 O1310 2.353 . S
Gd1271 O1311 2.468 . S
Gd1271 O1312 2.427 . S
Gd1271 O1314 2.388 . S
Gd1271 C1335 2.805 . S
N1272 C1262 1.359 . S
N1272 Gd1271 2.570 . S
N1272 C1274 1.343 . S
C1273 C1261 1.422 . S
C1273 C1275 1.321 . S
C1273 H1281 0.931 . S
C1274 N1272 1.343 . S
C1274 C1275 1.390 . S
C1274 H1276 0.931 . S
C1275 C1273 1.321 . S
C1275 C1274 1.390 . S
C1275 H1277 0.930 . S
H1276 C1274 0.931 . S
H1277 C1275 0.930 . S
H1278 C1301 0.931 . S
H1279 C1267 0.929 . S
H1280 C1302 0.930 . S
H1281 C1273 0.931 . S
H1282 C1263 0.930 . S
H1283 C1292 0.929 . S
H1284 C1268 0.931 . S
H1285 C1269 0.930 . S
H1286 C1324 0.930 . S
H1287 C1265 0.929 . S
H1288 C1293 0.931 . S
H1289 C1294 0.930 . S
N1290 Gd1270 2.622 . S
N1290 C1291 1.369 . S
N1290 C1292 1.338 . S
C1291 N1290 1.369 . S
C1291 C1295 1.415 . S
C1291 C1298 1.422 . S
C1292 H1283 0.929 . S
C1292 N1290 1.338 . S
C1292 C1294 1.378 . S
C1293 H1288 0.931 . S
C1293 C1294 1.348 . S
C1293 C1295 1.413 . S
C1294 H1289 0.930 . S
C1294 C1292 1.378 . S
C1294 C1293 1.348 . S
C1295 C1291 1.415 . S
C1295 C1293 1.413 . S
C1295 C1325 1.437 . S
H1296 C1325 0.929 . S
N1297 Gd1270 2.570 . S
N1297 C1298 1.359 . S
N1297 C1301 1.343 . S
C1298 C1291 1.422 . S
C1298 N1297 1.359 . S
C1298 C1300 1.421 . S
C1299 C1300 1.422 . S
C1299 C1302 1.321 . S
C1299 H1326 0.931 . S
C1300 C1298 1.421 . S
C1300 C1299 1.422 . S
C1300 C1324 1.417 . S
C1301 H1278 0.931 . S
C1301 N1297 1.343 . S
C1301 C1302 1.390 . S
C1302 H1280 0.930 . S
C1302 C1299 1.321 . S
C1302 C1301 1.390 . S
O1303 Gd1271 2.386 . S
O1303 C1315 1.265 . S
O1304 Gd1270 2.353 . S
O1304 C1315 1.242 . S
O1305 Gd1270 2.468 . S
O1305 C1323 1.263 . S
O1306 Gd1270 2.427 . S
O1306 C1323 1.252 . S
O1307 Gd1271 2.307 . S
O1307 C1316 1.261 . S
O1308 Gd1270 2.388 . S
O1308 C1316 1.252 . S
O1309 Gd1270 2.386 . S
O1309 C1327 1.265 . S
O1310 Gd1271 2.353 . S
O1310 C1327 1.242 . S
O1311 Gd1271 2.468 . S
O1311 C1335 1.263 . S
O1312 Gd1271 2.427 . S
O1312 C1335 1.252 . S
O1313 Gd1270 2.307 . S
O1313 C1328 1.261 . S
O1314 Gd1271 2.388 . S
O1314 C1328 1.252 . S
C1315 O1303 1.265 . S
C1315 O1304 1.242 . S
C1316 O1307 1.261 . S
C1316 O1308 1.252 . S
C1317 C1320 1.394 . S
C1317 C1322 1.370 . S
C1317 C1323 1.500 . S
C1318 C1321 1.383 . S
C1318 C1322 1.395 . S
C1319 C1320 1.396 . S
C1319 C1321 1.365 . S
C1319 H1336 0.929 . S
C1320 C1317 1.394 . S
C1320 C1319 1.396 . S
C1320 H1337 0.930 . S
C1321 C1318 1.383 . S
C1321 C1319 1.365 . S
C1321 H1338 0.931 . S
C1322 C1317 1.370 . S
C1322 C1318 1.395 . S
C1322 H1339 0.930 . S
C1323 Gd1270 2.805 . S
C1323 O1305 1.263 . S
C1323 O1306 1.252 . S
C1323 C1317 1.500 . S
C1324 H1286 0.930 . S
C1324 C1300 1.417 . S
C1324 C1325 1.329 . S
C1325 C1295 1.437 . S
C1325 H1296 0.929 . S
C1325 C1324 1.329 . S
H1326 C1299 0.931 . S
C1327 O1309 1.265 . S
C1327 O1310 1.242 . S
C1328 O1313 1.261 . S
C1328 O1314 1.252 . S
C1329 C1332 1.394 . S
C1329 C1334 1.370 . S
C1329 C1335 1.500 . S
C1330 C1333 1.383 . S
C1330 C1334 1.395 . S
C1331 C1332 1.396 . S
C1331 C1333 1.365 . S
C1331 H1340 0.929 . S
C1332 C1329 1.394 . S
C1332 C1331 1.396 . S
C1332 H1341 0.930 . S
C1333 C1330 1.383 . S
C1333 C1331 1.365 . S
C1333 H1342 0.931 . S
C1334 C1329 1.370 . S
C1334 C1330 1.395 . S
C1334 H1343 0.930 . S
C1335 Gd1271 2.805 . S
C1335 O1311 1.263 . S
C1335 O1312 1.252 . S
C1335 C1329 1.500 . S
H1336 C1319 0.929 . S
H1337 C1320 0.930 . S
H1338 C1321 0.931 . S
H1339 C1322 0.930 . S
H1340 C1331 0.929 . S
H1341 C1332 0.930 . S
H1342 C1333 0.931 . S
H1343 C1334 0.930 . S
C1344 C1345 1.391 . S
C1344 C1346 1.394 . S
C1344 H1360 0.931 . S
C1345 C1344 1.391 . S
C1345 C1349 1.376 . S
C1346 C1344 1.394 . S
C1346 C1347 1.369 . S
C1346 C1350 1.531 . S
C1347 C1346 1.369 . S
C1347 C1348 1.410 . S
C1347 C1355 1.503 . S
C1348 C1347 1.410 . S
C1348 C1349 1.392 . S
C1348 C1351 1.511 . S
C1349 C1345 1.376 . S
C1349 C1348 1.392 . S
C1349 H1361 0.929 . S
C1350 C1346 1.531 . S
C1350 H1362 0.960 . S
C1350 H1363 0.962 . S
C1350 H1364 0.960 . S
C1351 C1348 1.511 . S
C1351 H1365 0.961 . S
C1351 H1366 0.961 . S
C1351 H1367 0.961 . S
C1352 C1353 1.370 . S
C1352 C1354 1.363 . S
C1352 H1368 0.931 . S
C1353 C1352 1.370 . S
C1353 C1357 1.408 . S
C1354 C1352 1.363 . S
C1354 C1355 1.370 . S
C1354 C1358 1.524 . S
C1355 C1347 1.503 . S
C1355 C1354 1.370 . S
C1355 C1356 1.403 . S
C1356 C1355 1.403 . S
C1356 C1357 1.404 . S
C1356 C1359 1.539 . S
C1357 C1353 1.408 . S
C1357 C1356 1.404 . S
C1357 H1369 0.930 . S
C1358 C1354 1.524 . S
C1358 H1370 0.956 . S
C1358 H1371 0.961 . S
C1358 H1372 0.961 . S
C1359 C1356 1.539 . S
C1359 H1373 0.958 . S
C1359 H1374 0.961 . S
C1359 H1375 0.960 . S
H1360 C1344 0.931 . S
H1361 C1349 0.929 . S
H1362 C1350 0.960 . S
H1363 C1350 0.962 . S
H1364 C1350 0.960 . S
H1365 C1351 0.961 . S
H1366 C1351 0.961 . S
H1367 C1351 0.961 . S
H1368 C1352 0.931 . S
H1369 C1357 0.930 . S
H1370 C1358 0.956 . S
H1371 C1358 0.961 . S
H1372 C1358 0.961 . S
H1373 C1359 0.958 . S
H1374 C1359 0.961 . S
H1375 C1359 0.960 . S
C1376 C1377 1.391 1_556 S
C1376 C1378 1.394 . S
C1376 H1392 0.931 . S
C1377 C1376 1.391 1_554 S
C1377 C1381 1.376 1_554 S
C1378 C1376 1.394 . S
C1378 C1379 1.369 . S
C1378 C1382 1.531 . S
C1379 C1378 1.369 . S
C1379 C1380 1.410 . S
C1379 C1387 1.503 . S
C1380 C1379 1.410 . S
C1380 C1381 1.392 . S
C1380 C1383 1.511 . S
C1381 C1377 1.376 1_556 S
C1381 C1380 1.392 . S
C1381 H1393 0.929 1_556 S
C1382 C1378 1.531 . S
C1382 H1394 0.960 . S
C1382 H1395 0.962 . S
C1382 H1396 0.960 . S
C1383 C1380 1.511 . S
C1383 H1397 0.961 . S
C1383 H1398 0.961 . S
C1383 H1399 0.961 . S
C1384 C1385 1.370 . S
C1384 C1386 1.363 . S
C1384 H1400 0.931 . S
C1385 C1384 1.370 . S
C1385 C1389 1.408 . S
C1386 C1384 1.363 . S
C1386 C1387 1.370 . S
C1386 C1390 1.524 . S
C1387 C1379 1.503 . S
C1387 C1386 1.370 . S
C1387 C1388 1.403 . S
C1388 C1387 1.403 . S
C1388 C1389 1.404 . S
C1388 C1391 1.539 . S
C1389 C1385 1.408 . S
C1389 C1388 1.404 . S
C1389 H1401 0.930 . S
C1390 C1386 1.524 . S
C1390 H1402 0.956 . S
C1390 H1403 0.961 . S
C1390 H1404 0.961 . S
C1391 C1388 1.539 . S
C1391 H1405 0.958 . S
C1391 H1406 0.961 . S
C1391 H1407 0.960 . S
H1392 C1376 0.931 . S
H1393 C1381 0.929 1_554 S
H1394 C1382 0.960 . S
H1395 C1382 0.962 . S
H1396 C1382 0.960 . S
H1397 C1383 0.961 . S
H1398 C1383 0.961 . S
H1399 C1383 0.961 . S
H1400 C1384 0.931 . S
H1401 C1389 0.930 . S
H1402 C1390 0.956 . S
H1403 C1390 0.961 . S
H1404 C1390 0.961 . S
H1405 C1391 0.958 . S
H1406 C1391 0.961 . S
H1407 C1391 0.960 . S
C1408 C1409 1.391 . S
C1408 C1410 1.394 . S
C1408 H1424 0.931 . S
C1409 C1408 1.391 . S
C1409 C1413 1.376 . S
C1410 C1408 1.394 . S
C1410 C1411 1.369 . S
C1410 C1414 1.531 . S
C1411 C1410 1.369 . S
C1411 C1412 1.410 . S
C1411 C1419 1.503 . S
C1412 C1411 1.410 . S
C1412 C1413 1.392 . S
C1412 C1415 1.511 . S
C1413 C1409 1.376 . S
C1413 C1412 1.392 . S
C1413 H1425 0.929 . S
C1414 C1410 1.531 . S
C1414 H1426 0.960 . S
C1414 H1427 0.962 . S
C1414 H1428 0.960 . S
C1415 C1412 1.511 . S
C1415 H1429 0.961 . S
C1415 H1430 0.961 . S
C1415 H1431 0.961 . S
C1416 C1417 1.370 1_554 S
C1416 C1418 1.363 . S
C1416 H1432 0.931 . S
C1417 C1416 1.370 1_556 S
C1417 C1421 1.408 1_556 S
C1418 C1416 1.363 . S
C1418 C1419 1.370 . S
C1418 C1422 1.524 . S
C1419 C1411 1.503 . S
C1419 C1418 1.370 . S
C1419 C1420 1.403 . S
C1420 C1419 1.403 . S
C1420 C1421 1.404 . S
C1420 C1423 1.539 . S
C1421 C1417 1.408 1_554 S
C1421 C1420 1.404 . S
C1421 H1433 0.930 1_554 S
C1422 C1418 1.524 . S
C1422 H1434 0.956 . S
C1422 H1435 0.961 . S
C1422 H1436 0.961 . S
C1423 C1420 1.539 . S
C1423 H1437 0.958 . S
C1423 H1438 0.961 . S
C1423 H1439 0.960 . S
H1424 C1408 0.931 . S
H1425 C1413 0.929 . S
H1426 C1414 0.960 . S
H1427 C1414 0.962 . S
H1428 C1414 0.960 . S
H1429 C1415 0.961 . S
H1430 C1415 0.961 . S
H1431 C1415 0.961 . S
H1432 C1416 0.931 . S
H1433 C1421 0.930 1_556 S
H1434 C1422 0.956 . S
H1435 C1422 0.961 . S
H1436 C1422 0.961 . S
H1437 C1423 0.958 . S
H1438 C1423 0.961 . S
H1439 C1423 0.960 . S
C1440 C1441 1.391 . S
C1440 C1442 1.394 . S
C1440 H1456 0.931 . S
C1441 C1440 1.391 . S
C1441 C1445 1.376 . S
C1442 C1440 1.394 . S
C1442 C1443 1.369 . S
C1442 C1446 1.531 . S
C1443 C1442 1.369 . S
C1443 C1444 1.410 . S
C1443 C1451 1.503 . S
C1444 C1443 1.410 . S
C1444 C1445 1.392 . S
C1444 C1447 1.511 . S
C1445 C1441 1.376 . S
C1445 C1444 1.392 . S
C1445 H1457 0.929 . S
C1446 C1442 1.531 . S
C1446 H1458 0.960 . S
C1446 H1459 0.962 . S
C1446 H1460 0.960 . S
C1447 C1444 1.511 . S
C1447 H1461 0.961 . S
C1447 H1462 0.961 . S
C1447 H1463 0.961 . S
C1448 C1449 1.370 . S
C1448 C1450 1.363 . S
C1448 H1464 0.931 . S
C1449 C1448 1.370 . S
C1449 C1453 1.408 . S
C1450 C1448 1.363 . S
C1450 C1451 1.370 . S
C1450 C1454 1.524 . S
C1451 C1443 1.503 . S
C1451 C1450 1.370 . S
C1451 C1452 1.403 . S
C1452 C1451 1.403 . S
C1452 C1453 1.404 . S
C1452 C1455 1.539 . S
C1453 C1449 1.408 . S
C1453 C1452 1.404 . S
C1453 H1465 0.930 . S
C1454 C1450 1.524 . S
C1454 H1466 0.956 . S
C1454 H1467 0.961 . S
C1454 H1468 0.961 . S
C1455 C1452 1.539 . S
C1455 H1469 0.958 . S
C1455 H1470 0.961 . S
C1455 H1471 0.960 . S
H1456 C1440 0.931 . S
H1457 C1445 0.929 . S
H1458 C1446 0.960 . S
H1459 C1446 0.962 . S
H1460 C1446 0.960 . S
H1461 C1447 0.961 . S
H1462 C1447 0.961 . S
H1463 C1447 0.961 . S
H1464 C1448 0.931 . S
H1465 C1453 0.930 . S
H1466 C1454 0.956 . S
H1467 C1454 0.961 . S
H1468 C1454 0.961 . S
H1469 C1455 0.958 . S
H1470 C1455 0.961 . S
H1471 C1455 0.960 . S
C1472 C1473 1.391 . S
C1472 C1474 1.394 . S
C1472 H1488 0.931 . S
C1473 C1472 1.391 . S
C1473 C1477 1.376 . S
C1474 C1472 1.394 . S
C1474 C1475 1.369 . S
C1474 C1478 1.531 . S
C1475 C1474 1.369 . S
C1475 C1476 1.410 . S
C1475 C1483 1.503 . S
C1476 C1475 1.410 . S
C1476 C1477 1.392 . S
C1476 C1479 1.511 . S
C1477 C1473 1.376 . S
C1477 C1476 1.392 . S
C1477 H1489 0.929 . S
C1478 C1474 1.531 . S
C1478 H1490 0.960 . S
C1478 H1491 0.962 . S
C1478 H1492 0.960 . S
C1479 C1476 1.511 . S
C1479 H1493 0.961 . S
C1479 H1494 0.961 . S
C1479 H1495 0.961 . S
C1480 C1481 1.370 . S
C1480 C1482 1.363 . S
C1480 H1496 0.931 . S
C1481 C1480 1.370 . S
C1481 C1485 1.408 . S
C1482 C1480 1.363 . S
C1482 C1483 1.370 . S
C1482 C1486 1.524 . S
C1483 C1475 1.503 . S
C1483 C1482 1.370 . S
C1483 C1484 1.403 . S
C1484 C1483 1.403 . S
C1484 C1485 1.404 . S
C1484 C1487 1.539 . S
C1485 C1481 1.408 . S
C1485 C1484 1.404 . S
C1485 H1497 0.930 . S
C1486 C1482 1.524 . S
C1486 H1498 0.956 . S
C1486 H1499 0.961 . S
C1486 H1500 0.961 . S
C1487 C1484 1.539 . S
C1487 H1501 0.958 . S
C1487 H1502 0.961 . S
C1487 H1503 0.960 . S
H1488 C1472 0.931 . S
H1489 C1477 0.929 . S
H1490 C1478 0.960 . S
H1491 C1478 0.962 . S
H1492 C1478 0.960 . S
H1493 C1479 0.961 . S
H1494 C1479 0.961 . S
H1495 C1479 0.961 . S
H1496 C1480 0.931 . S
H1497 C1485 0.930 . S
H1498 C1486 0.956 . S
H1499 C1486 0.961 . S
H1500 C1486 0.961 . S
H1501 C1487 0.958 . S
H1502 C1487 0.961 . S
H1503 C1487 0.960 . S
C1504 C1505 1.391 . S
C1504 C1506 1.394 . S
C1504 H1520 0.931 . S
C1505 C1504 1.391 . S
C1505 C1509 1.376 . S
C1506 C1504 1.394 . S
C1506 C1507 1.369 . S
C1506 C1510 1.531 . S
C1507 C1506 1.369 . S
C1507 C1508 1.410 . S
C1507 C1515 1.503 . S
C1508 C1507 1.410 . S
C1508 C1509 1.392 . S
C1508 C1511 1.511 . S
C1509 C1505 1.376 . S
C1509 C1508 1.392 . S
C1509 H1521 0.929 . S
C1510 C1506 1.531 . S
C1510 H1522 0.960 . S
C1510 H1523 0.962 . S
C1510 H1524 0.960 . S
C1511 C1508 1.511 . S
C1511 H1525 0.961 . S
C1511 H1526 0.961 . S
C1511 H1527 0.961 . S
C1512 C1513 1.370 . S
C1512 C1514 1.363 . S
C1512 H1528 0.931 . S
C1513 C1512 1.370 . S
C1513 C1517 1.408 . S
C1514 C1512 1.363 . S
C1514 C1515 1.370 . S
C1514 C1518 1.524 . S
C1515 C1507 1.503 . S
C1515 C1514 1.370 . S
C1515 C1516 1.403 . S
C1516 C1515 1.403 . S
C1516 C1517 1.404 . S
C1516 C1519 1.539 . S
C1517 C1513 1.408 . S
C1517 C1516 1.404 . S
C1517 H1529 0.930 . S
C1518 C1514 1.524 . S
C1518 H1530 0.956 . S
C1518 H1531 0.961 . S
C1518 H1532 0.961 . S
C1519 C1516 1.539 . S
C1519 H1533 0.958 . S
C1519 H1534 0.961 . S
C1519 H1535 0.960 . S
H1520 C1504 0.931 . S
H1521 C1509 0.929 . S
H1522 C1510 0.960 . S
H1523 C1510 0.962 . S
H1524 C1510 0.960 . S
H1525 C1511 0.961 . S
H1526 C1511 0.961 . S
H1527 C1511 0.961 . S
H1528 C1512 0.931 . S
H1529 C1517 0.930 . S
H1530 C1518 0.956 . S
H1531 C1518 0.961 . S
H1532 C1518 0.961 . S
H1533 C1519 0.958 . S
H1534 C1519 0.961 . S
H1535 C1519 0.960 . S
C1536 C1537 1.391 . S
C1536 C1538 1.394 . S
C1536 H1552 0.931 . S
C1537 C1536 1.391 . S
C1537 C1541 1.376 . S
C1538 C1536 1.394 . S
C1538 C1539 1.369 . S
C1538 C1542 1.531 . S
C1539 C1538 1.369 . S
C1539 C1540 1.410 . S
C1539 C1547 1.503 . S
C1540 C1539 1.410 . S
C1540 C1541 1.392 . S
C1540 C1543 1.511 . S
C1541 C1537 1.376 . S
C1541 C1540 1.392 . S
C1541 H1553 0.929 . S
C1542 C1538 1.531 . S
C1542 H1554 0.960 . S
C1542 H1555 0.962 . S
C1542 H1556 0.960 . S
C1543 C1540 1.511 . S
C1543 H1557 0.961 . S
C1543 H1558 0.961 . S
C1543 H1559 0.961 . S
C1544 C1545 1.370 1_556 S
C1544 C1546 1.363 . S
C1544 H1560 0.931 . S
C1545 C1544 1.370 1_554 S
C1545 C1549 1.408 1_554 S
C1546 C1544 1.363 . S
C1546 C1547 1.370 . S
C1546 C1550 1.524 . S
C1547 C1539 1.503 . S
C1547 C1546 1.370 . S
C1547 C1548 1.403 . S
C1548 C1547 1.403 . S
C1548 C1549 1.404 . S
C1548 C1551 1.539 . S
C1549 C1545 1.408 1_556 S
C1549 C1548 1.404 . S
C1549 H1561 0.930 1_556 S
C1550 C1546 1.524 . S
C1550 H1562 0.956 . S
C1550 H1563 0.961 . S
C1550 H1564 0.961 . S
C1551 C1548 1.539 . S
C1551 H1565 0.958 . S
C1551 H1566 0.961 . S
C1551 H1567 0.960 . S
H1552 C1536 0.931 . S
H1553 C1541 0.929 . S
H1554 C1542 0.960 . S
H1555 C1542 0.962 . S
H1556 C1542 0.960 . S
H1557 C1543 0.961 . S
H1558 C1543 0.961 . S
H1559 C1543 0.961 . S
H1560 C1544 0.931 . S
H1561 C1549 0.930 1_554 S
H1562 C1550 0.956 . S
H1563 C1550 0.961 . S
H1564 C1550 0.961 . S
H1565 C1551 0.958 . S
H1566 C1551 0.961 . S
H1567 C1551 0.960 . S
C1568 C1569 1.377 1_554 S
C1568 C1570 1.394 . S
C1568 H1584 0.931 . S
C1569 C1568 1.377 1_556 S
C1569 C1573 1.372 1_556 S
C1570 C1568 1.394 . S
C1570 C1571 1.369 . S
C1570 C1574 1.531 . S
C1571 C1570 1.369 . S
C1571 C1572 1.410 . S
C1571 C1579 1.503 . S
C1572 C1571 1.410 . S
C1572 C1573 1.392 . S
C1572 C1575 1.511 . S
C1573 C1569 1.372 1_554 S
C1573 C1572 1.392 . S
C1573 H1585 0.929 1_554 S
C1574 C1570 1.531 . S
C1574 H1586 0.960 . S
C1574 H1587 0.962 . S
C1574 H1588 0.960 . S
C1575 C1572 1.511 . S
C1575 H1589 0.961 . S
C1575 H1590 0.961 . S
C1575 H1591 0.961 . S
C1576 C1577 1.370 . S
C1576 C1578 1.363 . S
C1576 H1592 0.931 . S
C1577 C1576 1.370 . S
C1577 C1581 1.408 . S
C1578 C1576 1.363 . S
C1578 C1579 1.370 . S
C1578 C1582 1.524 . S
C1579 C1571 1.503 . S
C1579 C1578 1.370 . S
C1579 C1580 1.403 . S
C1580 C1579 1.403 . S
C1580 C1581 1.404 . S
C1580 C1583 1.539 . S
C1581 C1577 1.408 . S
C1581 C1580 1.404 . S
C1581 H1593 0.930 . S
C1582 C1578 1.524 . S
C1582 H1594 0.956 . S
C1582 H1595 0.961 . S
C1582 H1596 0.961 . S
C1583 C1580 1.539 . S
C1583 H1597 0.958 . S
C1583 H1598 0.961 . S
C1583 H1599 0.960 . S
H1584 C1568 0.931 . S
H1585 C1573 0.929 1_556 S
H1586 C1574 0.960 . S
H1587 C1574 0.962 . S
H1588 C1574 0.960 . S
H1589 C1575 0.961 . S
H1590 C1575 0.961 . S
H1591 C1575 0.961 . S
H1592 C1576 0.931 . S
H1593 C1581 0.930 . S
H1594 C1582 0.956 . S
H1595 C1582 0.961 . S
H1596 C1582 0.961 . S
H1597 C1583 0.958 . S
H1598 C1583 0.961 . S
H1599 C1583 0.960 . S
C1600 C1601 1.391 . S
C1600 C1602 1.394 . S
C1600 H1616 0.931 . S
C1601 C1600 1.391 . S
C1601 C1605 1.376 . S
C1602 C1600 1.394 . S
C1602 C1603 1.369 . S
C1602 C1606 1.531 . S
C1603 C1602 1.369 . S
C1603 C1604 1.410 . S
C1603 C1611 1.503 . S
C1604 C1603 1.410 . S
C1604 C1605 1.392 . S
C1604 C1607 1.511 . S
C1605 C1601 1.376 . S
C1605 C1604 1.392 . S
C1605 H1617 0.929 . S
C1606 C1602 1.531 . S
C1606 H1618 0.960 . S
C1606 H1619 0.962 . S
C1606 H1620 0.960 . S
C1607 C1604 1.511 . S
C1607 H1621 0.961 . S
C1607 H1622 0.961 . S
C1607 H1623 0.961 . S
C1608 C1609 1.370 . S
C1608 C1610 1.363 . S
C1608 H1624 0.931 . S
C1609 C1608 1.370 . S
C1609 C1613 1.408 . S
C1610 C1608 1.363 . S
C1610 C1611 1.370 . S
C1610 C1614 1.524 . S
C1611 C1603 1.503 . S
C1611 C1610 1.370 . S
C1611 C1612 1.403 . S
C1612 C1611 1.403 . S
C1612 C1613 1.404 . S
C1612 C1615 1.539 . S
C1613 C1609 1.408 . S
C1613 C1612 1.404 . S
C1613 H1625 0.930 . S
C1614 C1610 1.524 . S
C1614 H1626 0.956 . S
C1614 H1627 0.961 . S
C1614 H1628 0.961 . S
C1615 C1612 1.539 . S
C1615 H1629 0.958 . S
C1615 H1630 0.961 . S
C1615 H1631 0.960 . S
H1616 C1600 0.931 . S
H1617 C1605 0.929 . S
H1618 C1606 0.960 . S
H1619 C1606 0.962 . S
H1620 C1606 0.960 . S
H1621 C1607 0.961 . S
H1622 C1607 0.961 . S
H1623 C1607 0.961 . S
H1624 C1608 0.931 . S
H1625 C1613 0.930 . S
H1626 C1614 0.956 . S
H1627 C1614 0.961 . S
H1628 C1614 0.961 . S
H1629 C1615 0.958 . S
H1630 C1615 0.961 . S
H1631 C1615 0.960 . S
C1632 C1633 1.391 . S
C1632 C1634 1.394 . S
C1632 H1648 0.931 . S
C1633 C1632 1.391 . S
C1633 C1637 1.376 . S
C1634 C1632 1.394 . S
C1634 C1635 1.369 . S
C1634 C1638 1.531 . S
C1635 C1634 1.369 . S
C1635 C1636 1.410 . S
C1635 C1643 1.503 . S
C1636 C1635 1.410 . S
C1636 C1637 1.392 . S
C1636 C1639 1.511 . S
C1637 C1633 1.376 . S
C1637 C1636 1.392 . S
C1637 H1649 0.929 . S
C1638 C1634 1.531 . S
C1638 H1650 0.960 . S
C1638 H1651 0.962 . S
C1638 H1652 0.960 . S
C1639 C1636 1.511 . S
C1639 H1653 0.961 . S
C1639 H1654 0.961 . S
C1639 H1655 0.961 . S
C1640 C1641 1.370 1_554 S
C1640 C1642 1.363 . S
C1640 H1656 0.931 . S
C1641 C1640 1.370 1_556 S
C1641 C1645 1.408 1_556 S
C1642 C1640 1.363 . S
C1642 C1643 1.370 . S
C1642 C1646 1.524 . S
C1643 C1635 1.503 . S
C1643 C1642 1.370 . S
C1643 C1644 1.403 . S
C1644 C1643 1.403 . S
C1644 C1645 1.404 . S
C1644 C1647 1.539 . S
C1645 C1641 1.408 1_554 S
C1645 C1644 1.404 . S
C1645 H1657 0.930 1_554 S
C1646 C1642 1.524 . S
C1646 H1658 0.956 . S
C1646 H1659 0.961 . S
C1646 H1660 0.961 . S
C1647 C1644 1.539 . S
C1647 H1661 0.958 . S
C1647 H1662 0.961 . S
C1647 H1663 0.960 . S
H1648 C1632 0.931 . S
H1649 C1637 0.929 . S
H1650 C1638 0.960 . S
H1651 C1638 0.962 . S
H1652 C1638 0.960 . S
H1653 C1639 0.961 . S
H1654 C1639 0.961 . S
H1655 C1639 0.961 . S
H1656 C1640 0.931 . S
H1657 C1645 0.930 1_556 S
H1658 C1646 0.956 . S
H1659 C1646 0.961 . S
H1660 C1646 0.961 . S
H1661 C1647 0.958 . S
H1662 C1647 0.961 . S
H1663 C1647 0.960 . S
C1664 C1665 1.391 1_556 S
C1664 C1666 1.394 . S
C1664 H1680 0.931 . S
C1665 C1664 1.391 1_554 S
C1665 C1669 1.376 1_554 S
C1666 C1664 1.394 . S
C1666 C1667 1.369 . S
C1666 C1670 1.531 . S
C1667 C1666 1.369 . S
C1667 C1668 1.410 . S
C1667 C1675 1.503 . S
C1668 C1667 1.410 . S
C1668 C1669 1.392 . S
C1668 C1671 1.511 . S
C1669 C1665 1.376 1_556 S
C1669 C1668 1.392 . S
C1669 H1681 0.929 1_556 S
C1670 C1666 1.531 . S
C1670 H1682 0.960 . S
C1670 H1683 0.962 . S
C1670 H1684 0.960 . S
C1671 C1668 1.511 . S
C1671 H1685 0.961 . S
C1671 H1686 0.961 . S
C1671 H1687 0.961 . S
C1672 C1673 1.370 . S
C1672 C1674 1.363 . S
C1672 H1688 0.931 . S
C1673 C1672 1.370 . S
C1673 C1677 1.408 . S
C1674 C1672 1.363 . S
C1674 C1675 1.370 . S
C1674 C1678 1.524 . S
C1675 C1667 1.503 . S
C1675 C1674 1.370 . S
C1675 C1676 1.403 . S
C1676 C1675 1.403 . S
C1676 C1677 1.404 . S
C1676 C1679 1.539 . S
C1677 C1673 1.408 . S
C1677 C1676 1.404 . S
C1677 H1689 0.930 . S
C1678 C1674 1.524 . S
C1678 H1690 0.956 . S
C1678 H1691 0.961 . S
C1678 H1692 0.961 . S
C1679 C1676 1.539 . S
C1679 H1693 0.958 . S
C1679 H1694 0.961 . S
C1679 H1695 0.960 . S
H1680 C1664 0.931 . S
H1681 C1669 0.929 1_554 S
H1682 C1670 0.960 . S
H1683 C1670 0.962 . S
H1684 C1670 0.960 . S
H1685 C1671 0.961 . S
H1686 C1671 0.961 . S
H1687 C1671 0.961 . S
H1688 C1672 0.931 . S
H1689 C1677 0.930 . S
H1690 C1678 0.956 . S
H1691 C1678 0.961 . S
H1692 C1678 0.961 . S
H1693 C1679 0.958 . S
H1694 C1679 0.961 . S
H1695 C1679 0.960 . S
C1696 C1697 1.391 . S
C1696 C1698 1.394 . S
C1696 H1712 0.931 . S
C1697 C1696 1.391 . S
C1697 C1701 1.376 . S
C1698 C1696 1.394 . S
C1698 C1699 1.369 . S
C1698 C1702 1.531 . S
C1699 C1698 1.369 . S
C1699 C1700 1.410 . S
C1699 C1707 1.503 . S
C1700 C1699 1.410 . S
C1700 C1701 1.392 . S
C1700 C1703 1.511 . S
C1701 C1697 1.376 . S
C1701 C1700 1.392 . S
C1701 H1713 0.929 . S
C1702 C1698 1.531 . S
C1702 H1714 0.960 . S
C1702 H1715 0.962 . S
C1702 H1716 0.960 . S
C1703 C1700 1.511 . S
C1703 H1717 0.961 . S
C1703 H1718 0.961 . S
C1703 H1719 0.961 . S
C1704 C1705 1.370 . S
C1704 C1706 1.363 . S
C1704 H1720 0.931 . S
C1705 C1704 1.370 . S
C1705 C1709 1.408 . S
C1706 C1704 1.363 . S
C1706 C1707 1.370 . S
C1706 C1710 1.524 . S
C1707 C1699 1.503 . S
C1707 C1706 1.370 . S
C1707 C1708 1.403 . S
C1708 C1707 1.403 . S
C1708 C1709 1.404 . S
C1708 C1711 1.539 . S
C1709 C1705 1.408 . S
C1709 C1708 1.404 . S
C1709 H1721 0.930 . S
C1710 C1706 1.524 . S
C1710 H1722 0.956 . S
C1710 H1723 0.961 . S
C1710 H1724 0.961 . S
C1711 C1708 1.539 . S
C1711 H1725 0.958 . S
C1711 H1726 0.961 . S
C1711 H1727 0.960 . S
H1712 C1696 0.931 . S
H1713 C1701 0.929 . S
H1714 C1702 0.960 . S
H1715 C1702 0.962 . S
H1716 C1702 0.960 . S
H1717 C1703 0.961 . S
H1718 C1703 0.961 . S
H1719 C1703 0.961 . S
H1720 C1704 0.931 . S
H1721 C1709 0.930 . S
H1722 C1710 0.956 . S
H1723 C1710 0.961 . S
H1724 C1710 0.961 . S
H1725 C1711 0.958 . S
H1726 C1711 0.961 . S
H1727 C1711 0.960 . S
C1728 C1729 1.391 . S
C1728 C1730 1.394 . S
C1728 H1744 0.931 . S
C1729 C1728 1.391 . S
C1729 C1733 1.376 . S
C1730 C1728 1.394 . S
C1730 C1731 1.369 . S
C1730 C1734 1.531 . S
C1731 C1730 1.369 . S
C1731 C1732 1.410 . S
C1731 C1739 1.503 . S
C1732 C1731 1.410 . S
C1732 C1733 1.392 . S
C1732 C1735 1.511 . S
C1733 C1729 1.376 . S
C1733 C1732 1.392 . S
C1733 H1745 0.929 . S
C1734 C1730 1.531 . S
C1734 H1746 0.960 . S
C1734 H1747 0.962 . S
C1734 H1748 0.960 . S
C1735 C1732 1.511 . S
C1735 H1749 0.961 . S
C1735 H1750 0.961 . S
C1735 H1751 0.961 . S
C1736 C1737 1.370 . S
C1736 C1738 1.363 . S
C1736 H1752 0.931 . S
C1737 C1736 1.370 . S
C1737 C1741 1.408 . S
C1738 C1736 1.363 . S
C1738 C1739 1.370 . S
C1738 C1742 1.524 . S
C1739 C1731 1.503 . S
C1739 C1738 1.370 . S
C1739 C1740 1.403 . S
C1740 C1739 1.403 . S
C1740 C1741 1.404 . S
C1740 C1743 1.539 . S
C1741 C1737 1.408 . S
C1741 C1740 1.404 . S
C1741 H1753 0.930 . S
C1742 C1738 1.524 . S
C1742 H1754 0.956 . S
C1742 H1755 0.961 . S
C1742 H1756 0.961 . S
C1743 C1740 1.539 . S
C1743 H1757 0.958 . S
C1743 H1758 0.961 . S
C1743 H1759 0.960 . S
H1744 C1728 0.931 . S
H1745 C1733 0.929 . S
H1746 C1734 0.960 . S
H1747 C1734 0.962 . S
H1748 C1734 0.960 . S
H1749 C1735 0.961 . S
H1750 C1735 0.961 . S
H1751 C1735 0.961 . S
H1752 C1736 0.931 . S
H1753 C1741 0.930 . S
H1754 C1742 0.956 . S
H1755 C1742 0.961 . S
H1756 C1742 0.961 . S
H1757 C1743 0.958 . S
H1758 C1743 0.961 . S
H1759 C1743 0.960 . S
C1760 C1761 1.391 . S
C1760 C1762 1.394 . S
C1760 H1776 0.931 . S
C1761 C1760 1.391 . S
C1761 C1765 1.376 . S
C1762 C1760 1.394 . S
C1762 C1763 1.369 . S
C1762 C1766 1.531 . S
C1763 C1762 1.369 . S
C1763 C1764 1.410 . S
C1763 C1771 1.503 . S
C1764 C1763 1.410 . S
C1764 C1765 1.392 . S
C1764 C1767 1.511 . S
C1765 C1761 1.376 . S
C1765 C1764 1.392 . S
C1765 H1777 0.929 . S
C1766 C1762 1.531 . S
C1766 H1778 0.960 . S
C1766 H1779 0.962 . S
C1766 H1780 0.960 . S
C1767 C1764 1.511 . S
C1767 H1781 0.961 . S
C1767 H1782 0.961 . S
C1767 H1783 0.961 . S
C1768 C1769 1.370 . S
C1768 C1770 1.363 . S
C1768 H1784 0.931 . S
C1769 C1768 1.370 . S
C1769 C1773 1.408 . S
C1770 C1768 1.363 . S
C1770 C1771 1.370 . S
C1770 C1774 1.524 . S
C1771 C1763 1.503 . S
C1771 C1770 1.370 . S
C1771 C1772 1.403 . S
C1772 C1771 1.403 . S
C1772 C1773 1.404 . S
C1772 C1775 1.539 . S
C1773 C1769 1.408 . S
C1773 C1772 1.404 . S
C1773 H1785 0.930 . S
C1774 C1770 1.524 . S
C1774 H1786 0.956 . S
C1774 H1787 0.961 . S
C1774 H1788 0.961 . S
C1775 C1772 1.539 . S
C1775 H1789 0.958 . S
C1775 H1790 0.961 . S
C1775 H1791 0.960 . S
H1776 C1760 0.931 . S
H1777 C1765 0.929 . S
H1778 C1766 0.960 . S
H1779 C1766 0.962 . S
H1780 C1766 0.960 . S
H1781 C1767 0.961 . S
H1782 C1767 0.961 . S
H1783 C1767 0.961 . S
H1784 C1768 0.931 . S
H1785 C1773 0.930 . S
H1786 C1774 0.956 . S
H1787 C1774 0.961 . S
H1788 C1774 0.961 . S
H1789 C1775 0.958 . S
H1790 C1775 0.961 . S
H1791 C1775 0.960 . S
C1792 C1793 1.391 . S
C1792 C1794 1.394 . S
C1792 H1808 0.931 . S
C1793 C1792 1.391 . S
C1793 C1797 1.376 . S
C1794 C1792 1.394 . S
C1794 C1795 1.369 . S
C1794 C1798 1.531 . S
C1795 C1794 1.369 . S
C1795 C1796 1.410 . S
C1795 C1803 1.503 . S
C1796 C1795 1.410 . S
C1796 C1797 1.392 . S
C1796 C1799 1.511 . S
C1797 C1793 1.376 . S
C1797 C1796 1.392 . S
C1797 H1809 0.929 . S
C1798 C1794 1.531 . S
C1798 H1810 0.960 . S
C1798 H1811 0.962 . S
C1798 H1812 0.960 . S
C1799 C1796 1.511 . S
C1799 H1813 0.961 . S
C1799 H1814 0.961 . S
C1799 H1815 0.961 . S
C1800 C1801 1.370 1_554 S
C1800 C1802 1.363 . S
C1800 H1816 0.931 . S
C1801 C1800 1.370 1_556 S
C1801 C1805 1.408 1_556 S
C1802 C1800 1.363 . S
C1802 C1803 1.370 . S
C1802 C1806 1.524 . S
C1803 C1795 1.503 . S
C1803 C1802 1.370 . S
C1803 C1804 1.403 . S
C1804 C1803 1.403 . S
C1804 C1805 1.404 . S
C1804 C1807 1.539 . S
C1805 C1801 1.408 1_554 S
C1805 C1804 1.404 . S
C1805 H1817 0.930 1_554 S
C1806 C1802 1.524 . S
C1806 H1818 0.956 . S
C1806 H1819 0.961 . S
C1806 H1820 0.961 . S
C1807 C1804 1.539 . S
C1807 H1821 0.958 . S
C1807 H1822 0.961 . S
C1807 H1823 0.960 . S
H1808 C1792 0.931 . S
H1809 C1797 0.929 . S
H1810 C1798 0.960 . S
H1811 C1798 0.962 . S
H1812 C1798 0.960 . S
H1813 C1799 0.961 . S
H1814 C1799 0.961 . S
H1815 C1799 0.961 . S
H1816 C1800 0.931 . S
H1817 C1805 0.930 1_556 S
H1818 C1806 0.956 . S
H1819 C1806 0.961 . S
H1820 C1806 0.961 . S
H1821 C1807 0.958 . S
H1822 C1807 0.961 . S
H1823 C1807 0.960 . S
C1824 C1825 1.391 1_556 S
C1824 C1826 1.394 . S
C1824 H1840 0.931 1_556 S
C1825 C1824 1.391 1_554 S
C1825 C1829 1.376 1_554 S
C1826 C1824 1.394 . S
C1826 C1827 1.369 . S
C1826 C1830 1.531 . S
C1827 C1826 1.369 . S
C1827 C1828 1.410 . S
C1827 C1835 1.503 . S
C1828 C1827 1.410 . S
C1828 C1829 1.392 . S
C1828 C1831 1.511 . S
C1829 C1825 1.376 1_556 S
C1829 C1828 1.392 . S
C1829 H1841 0.929 . S
C1830 C1826 1.531 . S
C1830 H1842 0.960 . S
C1830 H1843 0.962 . S
C1830 H1844 0.960 . S
C1831 C1828 1.511 . S
C1831 H1845 0.961 . S
C1831 H1846 0.961 . S
C1831 H1847 0.961 . S
C1832 C1833 1.370 . S
C1832 C1834 1.363 . S
C1832 H1848 0.931 . S
C1833 C1832 1.370 . S
C1833 C1837 1.408 . S
C1834 C1832 1.363 . S
C1834 C1835 1.370 . S
C1834 C1838 1.524 . S
C1835 C1827 1.503 . S
C1835 C1834 1.370 . S
C1835 C1836 1.403 . S
C1836 C1835 1.403 . S
C1836 C1837 1.404 . S
C1836 C1839 1.539 . S
C1837 C1833 1.408 . S
C1837 C1836 1.404 . S
C1837 H1849 0.930 . S
C1838 C1834 1.524 . S
C1838 H1850 0.956 . S
C1838 H1851 0.961 . S
C1838 H1852 0.961 . S
C1839 C1836 1.539 . S
C1839 H1853 0.958 . S
C1839 H1854 0.961 . S
C1839 H1855 0.960 . S
H1840 C1824 0.931 1_554 S
H1841 C1829 0.929 . S
H1842 C1830 0.960 . S
H1843 C1830 0.962 . S
H1844 C1830 0.960 . S
H1845 C1831 0.961 . S
H1846 C1831 0.961 . S
H1847 C1831 0.961 . S
H1848 C1832 0.931 . S
H1849 C1837 0.930 . S
H1850 C1838 0.956 . S
H1851 C1838 0.961 . S
H1852 C1838 0.961 . S
H1853 C1839 0.958 . S
H1854 C1839 0.961 . S
H1855 C1839 0.960 . S
C1856 C1857 1.391 . S
C1856 C1858 1.394 . S
C1856 H1872 0.931 . S
C1857 C1856 1.391 . S
C1857 C1861 1.376 . S
C1858 C1856 1.394 . S
C1858 C1859 1.369 . S
C1858 C1862 1.531 . S
C1859 C1858 1.369 . S
C1859 C1860 1.410 . S
C1859 C1867 1.503 . S
C1860 C1859 1.410 . S
C1860 C1861 1.392 . S
C1860 C1863 1.511 . S
C1861 C1857 1.376 . S
C1861 C1860 1.392 . S
C1861 H1873 0.929 . S
C1862 C1858 1.531 . S
C1862 H1874 0.960 . S
C1862 H1875 0.962 . S
C1862 H1876 0.960 . S
C1863 C1860 1.511 . S
C1863 H1877 0.961 . S
C1863 H1878 0.961 . S
C1863 H1879 0.961 . S
C1864 C1865 1.370 . S
C1864 C1866 1.363 . S
C1864 H1880 0.931 . S
C1865 C1864 1.370 . S
C1865 C1869 1.408 . S
C1866 C1864 1.363 . S
C1866 C1867 1.370 . S
C1866 C1870 1.524 . S
C1867 C1859 1.503 . S
C1867 C1866 1.370 . S
C1867 C1868 1.403 . S
C1868 C1867 1.403 . S
C1868 C1869 1.404 . S
C1868 C1871 1.539 . S
C1869 C1865 1.408 . S
C1869 C1868 1.404 . S
C1869 H1881 0.930 . S
C1870 C1866 1.524 . S
C1870 H1882 0.956 . S
C1870 H1883 0.961 . S
C1870 H1884 0.961 . S
C1871 C1868 1.539 . S
C1871 H1885 0.958 . S
C1871 H1886 0.961 . S
C1871 H1887 0.960 . S
H1872 C1856 0.931 . S
H1873 C1861 0.929 . S
H1874 C1862 0.960 . S
H1875 C1862 0.962 . S
H1876 C1862 0.960 . S
H1877 C1863 0.961 . S
H1878 C1863 0.961 . S
H1879 C1863 0.961 . S
H1880 C1864 0.931 . S
H1881 C1869 0.930 . S
H1882 C1870 0.956 . S
H1883 C1870 0.961 . S
H1884 C1870 0.961 . S
H1885 C1871 0.958 . S
H1886 C1871 0.961 . S
H1887 C1871 0.960 . S
C1888 C1889 1.391 . S
C1888 C1890 1.394 . S
C1888 H1904 0.931 . S
C1889 C1888 1.391 . S
C1889 C1893 1.376 . S
C1890 C1888 1.394 . S
C1890 C1891 1.369 . S
C1890 C1894 1.531 . S
C1891 C1890 1.369 . S
C1891 C1892 1.410 . S
C1891 C1899 1.503 . S
C1892 C1891 1.410 . S
C1892 C1893 1.392 . S
C1892 C1895 1.511 . S
C1893 C1889 1.376 . S
C1893 C1892 1.392 . S
C1893 H1905 0.929 . S
C1894 C1890 1.531 . S
C1894 H1906 0.960 . S
C1894 H1907 0.962 . S
C1894 H1908 0.960 . S
C1895 C1892 1.511 . S
C1895 H1909 0.961 . S
C1895 H1910 0.961 . S
C1895 H1911 0.961 . S
C1896 C1897 1.370 . S
C1896 C1898 1.363 . S
C1896 H1912 0.931 . S
C1897 C1896 1.370 . S
C1897 C1901 1.408 . S
C1898 C1896 1.363 . S
C1898 C1899 1.370 . S
C1898 C1902 1.524 . S
C1899 C1891 1.503 . S
C1899 C1898 1.370 . S
C1899 C1900 1.403 . S
C1900 C1899 1.403 . S
C1900 C1901 1.404 . S
C1900 C1903 1.539 . S
C1901 C1897 1.408 . S
C1901 C1900 1.404 . S
C1901 H1913 0.930 . S
C1902 C1898 1.524 . S
C1902 H1914 0.956 . S
C1902 H1915 0.961 . S
C1902 H1916 0.961 . S
C1903 C1900 1.539 . S
C1903 H1917 0.958 . S
C1903 H1918 0.961 . S
C1903 H1919 0.960 . S
H1904 C1888 0.931 . S
H1905 C1893 0.929 . S
H1906 C1894 0.960 . S
H1907 C1894 0.962 . S
H1908 C1894 0.960 . S
H1909 C1895 0.961 . S
H1910 C1895 0.961 . S
H1911 C1895 0.961 . S
H1912 C1896 0.931 . S
H1913 C1901 0.930 . S
H1914 C1902 0.956 . S
H1915 C1902 0.961 . S
H1916 C1902 0.961 . S
H1917 C1903 0.958 . S
H1918 C1903 0.961 . S
H1919 C1903 0.960 . S
C1920 C1921 1.391 . S
C1920 C1922 1.394 . S
C1920 H1936 0.931 . S
C1921 C1920 1.391 . S
C1921 C1925 1.376 . S
C1922 C1920 1.394 . S
C1922 C1923 1.369 . S
C1922 C1926 1.531 . S
C1923 C1922 1.369 . S
C1923 C1924 1.410 . S
C1923 C1931 1.503 . S
C1924 C1923 1.410 . S
C1924 C1925 1.392 . S
C1924 C1927 1.511 . S
C1925 C1921 1.376 . S
C1925 C1924 1.392 . S
C1925 H1937 0.929 . S
C1926 C1922 1.531 . S
C1926 H1938 0.960 . S
C1926 H1939 0.962 . S
C1926 H1940 0.960 . S
C1927 C1924 1.511 . S
C1927 H1941 0.961 . S
C1927 H1942 0.961 . S
C1927 H1943 0.961 . S
C1928 C1929 1.370 . S
C1928 C1930 1.363 . S
C1928 H1944 0.931 . S
C1929 C1928 1.370 . S
C1929 C1933 1.408 . S
C1930 C1928 1.363 . S
C1930 C1931 1.370 . S
C1930 C1934 1.524 . S
C1931 C1923 1.503 . S
C1931 C1930 1.370 . S
C1931 C1932 1.403 . S
C1932 C1931 1.403 . S
C1932 C1933 1.404 . S
C1932 C1935 1.539 . S
C1933 C1929 1.408 . S
C1933 C1932 1.404 . S
C1933 H1945 0.930 . S
C1934 C1930 1.524 . S
C1934 H1946 0.956 . S
C1934 H1947 0.961 . S
C1934 H1948 0.961 . S
C1935 C1932 1.539 . S
C1935 H1949 0.958 . S
C1935 H1950 0.961 . S
C1935 H1951 0.960 . S
H1936 C1920 0.931 . S
H1937 C1925 0.929 . S
H1938 C1926 0.960 . S
H1939 C1926 0.962 . S
H1940 C1926 0.960 . S
H1941 C1927 0.961 . S
H1942 C1927 0.961 . S
H1943 C1927 0.961 . S
H1944 C1928 0.931 . S
H1945 C1933 0.930 . S
H1946 C1934 0.956 . S
H1947 C1934 0.961 . S
H1948 C1934 0.961 . S
H1949 C1935 0.958 . S
H1950 C1935 0.961 . S
H1951 C1935 0.960 . S
C1952 C1953 1.391 . S
C1952 C1954 1.394 . S
C1952 H1968 0.931 . S
C1953 C1952 1.391 . S
C1953 C1957 1.376 . S
C1954 C1952 1.394 . S
C1954 C1955 1.369 . S
C1954 C1958 1.531 . S
C1955 C1954 1.369 . S
C1955 C1956 1.410 . S
C1955 C1963 1.503 1_655 S
C1956 C1955 1.410 . S
C1956 C1957 1.392 . S
C1956 C1959 1.511 . S
C1957 C1953 1.376 . S
C1957 C1956 1.392 . S
C1957 H1969 0.929 . S
C1958 C1954 1.531 . S
C1958 H1970 0.960 1_655 S
C1958 H1971 0.962 . S
C1958 H1972 0.960 . S
C1959 C1956 1.511 . S
C1959 H1973 0.961 . S
C1959 H1974 0.961 1_655 S
C1959 H1975 0.961 . S
C1960 C1961 1.370 . S
C1960 C1962 1.363 . S
C1960 H1976 0.931 . S
C1961 C1960 1.370 . S
C1961 C1965 1.408 . S
C1962 C1960 1.363 . S
C1962 C1963 1.370 . S
C1962 C1966 1.524 . S
C1963 C1955 1.503 1_455 S
C1963 C1962 1.370 . S
C1963 C1964 1.403 . S
C1964 C1963 1.403 . S
C1964 C1965 1.404 . S
C1964 C1967 1.539 1_556 S
C1965 C1961 1.408 . S
C1965 C1964 1.404 . S
C1965 H1977 0.930 . S
C1966 C1962 1.524 . S
C1966 H1978 0.947 1_455 S
C1966 H1979 0.961 1_455 S
C1966 H1980 0.961 . S
C1967 C1964 1.539 1_554 S
C1967 H1981 0.958 . S
C1967 H1982 0.961 . S
C1967 H1983 0.947 1_455 S
H1968 C1952 0.931 . S
H1969 C1957 0.929 . S
H1970 C1958 0.960 1_455 S
H1971 C1958 0.962 . S
H1972 C1958 0.960 . S
H1973 C1959 0.961 . S
H1974 C1959 0.961 1_455 S
H1975 C1959 0.961 . S
H1976 C1960 0.931 . S
H1977 C1965 0.930 . S
H1978 C1966 0.947 1_655 S
H1979 C1966 0.961 1_655 S
H1980 C1966 0.961 . S
H1981 C1967 0.958 . S
H1982 C1967 0.961 . S
H1983 C1967 0.947 1_655 S
C1984 C1985 1.391 . S
C1984 C1986 1.394 . S
C1984 H2000 0.931 . S
C1985 C1984 1.391 . S
C1985 C1989 1.376 . S
C1986 C1984 1.394 . S
C1986 C1987 1.369 . S
C1986 C1990 1.531 . S
C1987 C1986 1.369 . S
C1987 C1988 1.410 . S
C1987 C1995 1.503 . S
C1988 C1987 1.410 . S
C1988 C1989 1.392 . S
C1988 C1991 1.511 . S
C1989 C1985 1.376 . S
C1989 C1988 1.392 . S
C1989 H2001 0.929 . S
C1990 C1986 1.531 . S
C1990 H2002 0.960 . S
C1990 H2003 0.962 . S
C1990 H2004 0.960 . S
C1991 C1988 1.511 . S
C1991 H2005 0.961 . S
C1991 H2006 0.961 . S
C1991 H2007 0.961 . S
C1992 C1993 1.370 . S
C1992 C1994 1.363 . S
C1992 H2008 0.931 . S
C1993 C1992 1.370 . S
C1993 C1997 1.408 . S
C1994 C1992 1.363 . S
C1994 C1995 1.370 . S
C1994 C1998 1.524 . S
C1995 C1987 1.503 . S
C1995 C1994 1.370 . S
C1995 C1996 1.403 . S
C1996 C1995 1.403 . S
C1996 C1997 1.404 . S
C1996 C1999 1.539 . S
C1997 C1993 1.408 . S
C1997 C1996 1.404 . S
C1997 H2009 0.930 . S
C1998 C1994 1.524 . S
C1998 H2010 0.956 . S
C1998 H2011 0.961 . S
C1998 H2012 0.961 . S
C1999 C1996 1.539 . S
C1999 H2013 0.958 . S
C1999 H2014 0.961 . S
C1999 H2015 0.960 . S
H2000 C1984 0.931 . S
H2001 C1989 0.929 . S
H2002 C1990 0.960 . S
H2003 C1990 0.962 . S
H2004 C1990 0.960 . S
H2005 C1991 0.961 . S
H2006 C1991 0.961 . S
H2007 C1991 0.961 . S
H2008 C1992 0.931 . S
H2009 C1997 0.930 . S
H2010 C1998 0.956 . S
H2011 C1998 0.961 . S
H2012 C1998 0.961 . S
H2013 C1999 0.958 . S
H2014 C1999 0.961 . S
H2015 C1999 0.960 . S
C2016 C2017 1.391 . S
C2016 C2018 1.394 . S
C2016 H2032 0.931 . S
C2017 C2016 1.391 . S
C2017 C2021 1.376 . S
C2018 C2016 1.394 . S
C2018 C2019 1.369 . S
C2018 C2022 1.531 . S
C2019 C2018 1.369 . S
C2019 C2020 1.410 . S
C2019 C2027 1.503 1_455 S
C2020 C2019 1.410 . S
C2020 C2021 1.392 . S
C2020 C2023 1.511 . S
C2021 C2017 1.376 . S
C2021 C2020 1.392 . S
C2021 H2033 0.929 . S
C2022 C2018 1.531 . S
C2022 H2034 0.960 1_455 S
C2022 H2035 0.962 . S
C2022 H2036 0.960 . S
C2023 C2020 1.511 . S
C2023 H2037 0.961 . S
C2023 H2038 0.961 1_455 S
C2023 H2039 0.961 1_554 S
C2024 C2025 1.370 . S
C2024 C2026 1.363 . S
C2024 H2040 0.931 . S
C2025 C2024 1.370 . S
C2025 C2029 1.408 . S
C2026 C2024 1.363 . S
C2026 C2027 1.370 . S
C2026 C2030 1.524 . S
C2027 C2019 1.503 1_655 S
C2027 C2026 1.370 . S
C2027 C2028 1.403 . S
C2028 C2027 1.403 . S
C2028 C2029 1.404 . S
C2028 C2031 1.539 1_554 S
C2029 C2025 1.408 . S
C2029 C2028 1.404 . S
C2029 H2041 0.930 . S
C2030 C2026 1.524 . S
C2030 H2042 0.956 1_655 S
C2030 H2043 0.961 1_655 S
C2030 H2044 0.961 . S
C2031 C2028 1.539 1_556 S
C2031 H2045 0.958 . S
C2031 H2046 0.961 . S
C2031 H2047 0.956 . S
H2032 C2016 0.931 . S
H2033 C2021 0.929 . S
H2034 C2022 0.960 1_655 S
H2035 C2022 0.962 . S
H2036 C2022 0.960 . S
H2037 C2023 0.961 . S
H2038 C2023 0.961 1_655 S
H2039 C2023 0.961 1_556 S
H2040 C2024 0.931 . S
H2041 C2029 0.930 . S
H2042 C2030 0.956 1_455 S
H2043 C2030 0.961 1_455 S
H2044 C2030 0.961 . S
H2045 C2031 0.958 . S
H2046 C2031 0.961 . S
H2047 C2031 0.956 . S
C2048 C2049 1.391 . S
C2048 C2050 1.394 . S
C2048 H2064 0.931 . S
C2049 C2048 1.391 . S
C2049 C2053 1.376 . S
C2050 C2048 1.394 . S
C2050 C2051 1.369 . S
C2050 C2054 1.531 . S
C2051 C2050 1.369 . S
C2051 C2052 1.410 . S
C2051 C2059 1.503 . S
C2052 C2051 1.410 . S
C2052 C2053 1.392 . S
C2052 C2055 1.511 . S
C2053 C2049 1.376 . S
C2053 C2052 1.392 . S
C2053 H2065 0.929 . S
C2054 C2050 1.531 . S
C2054 H2066 0.960 . S
C2054 H2067 0.962 . S
C2054 H2068 0.960 . S
C2055 C2052 1.511 . S
C2055 H2069 0.961 . S
C2055 H2070 0.961 . S
C2055 H2071 0.961 . S
C2056 C2057 1.370 . S
C2056 C2058 1.363 . S
C2056 H2072 0.931 . S
C2057 C2056 1.370 . S
C2057 C2061 1.408 . S
C2058 C2056 1.363 . S
C2058 C2059 1.370 . S
C2058 C2062 1.524 . S
C2059 C2051 1.503 . S
C2059 C2058 1.370 . S
C2059 C2060 1.403 . S
C2060 C2059 1.403 . S
C2060 C2061 1.404 . S
C2060 C2063 1.539 . S
C2061 C2057 1.408 . S
C2061 C2060 1.404 . S
C2061 H2073 0.930 . S
C2062 C2058 1.524 . S
C2062 H2074 0.956 . S
C2062 H2075 0.961 . S
C2062 H2076 0.961 . S
C2063 C2060 1.539 . S
C2063 H2077 0.958 . S
C2063 H2078 0.961 . S
C2063 H2079 0.960 . S
H2064 C2048 0.931 . S
H2065 C2053 0.929 . S
H2066 C2054 0.960 . S
H2067 C2054 0.962 . S
H2068 C2054 0.960 . S
H2069 C2055 0.961 . S
H2070 C2055 0.961 . S
H2071 C2055 0.961 . S
H2072 C2056 0.931 . S
H2073 C2061 0.930 . S
H2074 C2062 0.956 . S
H2075 C2062 0.961 . S
H2076 C2062 0.961 . S
H2077 C2063 0.958 . S
H2078 C2063 0.961 . S
H2079 C2063 0.960 . S
C2080 C2081 1.391 . S
C2080 C2082 1.394 . S
C2080 H2096 0.931 . S
C2081 C2080 1.391 . S
C2081 C2085 1.376 . S
C2082 C2080 1.394 . S
C2082 C2083 1.369 . S
C2082 C2086 1.531 . S
C2083 C2082 1.369 . S
C2083 C2084 1.410 . S
C2083 C2091 1.503 . S
C2084 C2083 1.410 . S
C2084 C2085 1.392 . S
C2084 C2087 1.511 . S
C2085 C2081 1.376 . S
C2085 C2084 1.392 . S
C2085 H2097 0.929 . S
C2086 C2082 1.531 . S
C2086 H2098 0.960 . S
C2086 H2099 0.962 . S
C2086 H2100 0.960 . S
C2087 C2084 1.511 . S
C2087 H2101 0.961 . S
C2087 H2102 0.961 . S
C2087 H2103 0.961 . S
C2088 C2089 1.370 . S
C2088 C2090 1.363 . S
C2088 H2104 0.931 . S
C2089 C2088 1.370 . S
C2089 C2093 1.408 . S
C2090 C2088 1.363 . S
C2090 C2091 1.370 . S
C2090 C2094 1.524 . S
C2091 C2083 1.503 . S
C2091 C2090 1.370 . S
C2091 C2092 1.403 . S
C2092 C2091 1.403 . S
C2092 C2093 1.404 . S
C2092 C2095 1.539 . S
C2093 C2089 1.408 . S
C2093 C2092 1.404 . S
C2093 H2105 0.930 . S
C2094 C2090 1.524 . S
C2094 H2106 0.956 . S
C2094 H2107 0.961 . S
C2094 H2108 0.961 . S
C2095 C2092 1.539 . S
C2095 H2109 0.958 . S
C2095 H2110 0.961 . S
C2095 H2111 0.960 . S
H2096 C2080 0.931 . S
H2097 C2085 0.929 . S
H2098 C2086 0.960 . S
H2099 C2086 0.962 . S
H2100 C2086 0.960 . S
H2101 C2087 0.961 . S
H2102 C2087 0.961 . S
H2103 C2087 0.961 . S
H2104 C2088 0.931 . S
H2105 C2093 0.930 . S
H2106 C2094 0.956 . S
H2107 C2094 0.961 . S
H2108 C2094 0.961 . S
H2109 C2095 0.958 . S
H2110 C2095 0.961 . S
H2111 C2095 0.960 . S
C2112 C2113 1.391 . S
C2112 C2114 1.394 . S
C2112 H2128 0.931 . S
C2113 C2112 1.391 . S
C2113 C2117 1.376 . S
C2114 C2112 1.394 . S
C2114 C2115 1.369 . S
C2114 C2118 1.531 . S
C2115 C2114 1.369 . S
C2115 C2116 1.410 . S
C2115 C2123 1.503 . S
C2116 C2115 1.410 . S
C2116 C2117 1.392 . S
C2116 C2119 1.511 . S
C2117 C2113 1.376 . S
C2117 C2116 1.392 . S
C2117 H2129 0.929 . S
C2118 C2114 1.531 . S
C2118 H2130 0.960 . S
C2118 H2131 0.962 . S
C2118 H2132 0.960 . S
C2119 C2116 1.511 . S
C2119 H2133 0.961 . S
C2119 H2134 0.961 . S
C2119 H2135 0.961 . S
C2120 C2121 1.370 . S
C2120 C2122 1.363 . S
C2120 H2136 0.931 . S
C2121 C2120 1.370 . S
C2121 C2125 1.408 . S
C2122 C2120 1.363 . S
C2122 C2123 1.370 . S
C2122 C2126 1.524 . S
C2123 C2115 1.503 . S
C2123 C2122 1.370 . S
C2123 C2124 1.403 . S
C2124 C2123 1.403 . S
C2124 C2125 1.404 . S
C2124 C2127 1.539 . S
C2125 C2121 1.408 . S
C2125 C2124 1.404 . S
C2125 H2137 0.930 . S
C2126 C2122 1.524 . S
C2126 H2138 0.956 . S
C2126 H2139 0.961 . S
C2126 H2140 0.961 . S
C2127 C2124 1.539 . S
C2127 H2141 0.958 . S
C2127 H2142 0.961 . S
C2127 H2143 0.960 . S
H2128 C2112 0.931 . S
H2129 C2117 0.929 . S
H2130 C2118 0.960 . S
H2131 C2118 0.962 . S
H2132 C2118 0.960 . S
H2133 C2119 0.961 . S
H2134 C2119 0.961 . S
H2135 C2119 0.961 . S
H2136 C2120 0.931 . S
H2137 C2125 0.930 . S
H2138 C2126 0.956 . S
H2139 C2126 0.961 . S
H2140 C2126 0.961 . S
H2141 C2127 0.958 . S
H2142 C2127 0.961 . S
H2143 C2127 0.960 . S
C2144 C2145 1.391 . S
C2144 C2146 1.394 . S
C2144 H2160 0.931 . S
C2145 C2144 1.391 . S
C2145 C2149 1.376 . S
C2146 C2144 1.394 . S
C2146 C2147 1.369 . S
C2146 C2150 1.531 . S
C2147 C2146 1.369 . S
C2147 C2148 1.410 . S
C2147 C2155 1.503 . S
C2148 C2147 1.410 . S
C2148 C2149 1.392 . S
C2148 C2151 1.511 . S
C2149 C2145 1.376 . S
C2149 C2148 1.392 . S
C2149 H2161 0.929 . S
C2150 C2146 1.531 . S
C2150 H2162 0.960 . S
C2150 H2163 0.962 . S
C2150 H2164 0.960 . S
C2151 C2148 1.511 . S
C2151 H2165 0.961 . S
C2151 H2166 0.961 . S
C2151 H2167 0.961 . S
C2152 C2153 1.370 . S
C2152 C2154 1.363 . S
C2152 H2168 0.931 . S
C2153 C2152 1.370 . S
C2153 C2157 1.408 . S
C2154 C2152 1.363 . S
C2154 C2155 1.370 . S
C2154 C2158 1.524 . S
C2155 C2147 1.503 . S
C2155 C2154 1.370 . S
C2155 C2156 1.403 . S
C2156 C2155 1.403 . S
C2156 C2157 1.404 . S
C2156 C2159 1.539 . S
C2157 C2153 1.408 . S
C2157 C2156 1.404 . S
C2157 H2169 0.930 . S
C2158 C2154 1.524 . S
C2158 H2170 0.956 . S
C2158 H2171 0.961 . S
C2158 H2172 0.961 . S
C2159 C2156 1.539 . S
C2159 H2173 0.958 . S
C2159 H2174 0.961 . S
C2159 H2175 0.960 . S
H2160 C2144 0.931 . S
H2161 C2149 0.929 . S
H2162 C2150 0.960 . S
H2163 C2150 0.962 . S
H2164 C2150 0.960 . S
H2165 C2151 0.961 . S
H2166 C2151 0.961 . S
H2167 C2151 0.961 . S
H2168 C2152 0.931 . S
H2169 C2157 0.930 . S
H2170 C2158 0.956 . S
H2171 C2158 0.961 . S
H2172 C2158 0.961 . S
H2173 C2159 0.958 . S
H2174 C2159 0.961 . S
H2175 C2159 0.960 . S
C2176 C2177 1.391 . S
C2176 C2178 1.394 . S
C2176 H2192 0.931 . S
C2177 C2176 1.391 . S
C2177 C2181 1.376 . S
C2178 C2176 1.394 . S
C2178 C2179 1.369 . S
C2178 C2182 1.531 . S
C2179 C2178 1.369 . S
C2179 C2180 1.410 . S
C2179 C2187 1.503 . S
C2180 C2179 1.410 . S
C2180 C2181 1.392 . S
C2180 C2183 1.511 . S
C2181 C2177 1.376 . S
C2181 C2180 1.392 . S
C2181 H2193 0.929 . S
C2182 C2178 1.531 . S
C2182 H2194 0.960 . S
C2182 H2195 0.962 . S
C2182 H2196 0.960 . S
C2183 C2180 1.511 . S
C2183 H2197 0.961 . S
C2183 H2198 0.961 . S
C2183 H2199 0.961 . S
C2184 C2185 1.370 . S
C2184 C2186 1.363 . S
C2184 H2200 0.931 . S
C2185 C2184 1.370 . S
C2185 C2189 1.408 . S
C2186 C2184 1.363 . S
C2186 C2187 1.370 . S
C2186 C2190 1.524 . S
C2187 C2179 1.503 . S
C2187 C2186 1.370 . S
C2187 C2188 1.403 . S
C2188 C2187 1.403 . S
C2188 C2189 1.404 . S
C2188 C2191 1.539 . S
C2189 C2185 1.408 . S
C2189 C2188 1.404 . S
C2189 H2201 0.930 . S
C2190 C2186 1.524 . S
C2190 H2202 0.956 . S
C2190 H2203 0.961 . S
C2190 H2204 0.961 . S
C2191 C2188 1.539 . S
C2191 H2205 0.958 . S
C2191 H2206 0.961 . S
C2191 H2207 0.960 . S
H2192 C2176 0.931 . S
H2193 C2181 0.929 . S
H2194 C2182 0.960 . S
H2195 C2182 0.962 . S
H2196 C2182 0.960 . S
H2197 C2183 0.961 . S
H2198 C2183 0.961 . S
H2199 C2183 0.961 . S
H2200 C2184 0.931 . S
H2201 C2189 0.930 . S
H2202 C2190 0.956 . S
H2203 C2190 0.961 . S
H2204 C2190 0.961 . S
H2205 C2191 0.958 . S
H2206 C2191 0.961 . S
H2207 C2191 0.960 . S
C2208 C2209 1.391 . S
C2208 C2210 1.394 . S
C2208 H2224 0.931 . S
C2209 C2208 1.391 . S
C2209 C2213 1.376 . S
C2210 C2208 1.394 . S
C2210 C2211 1.369 . S
C2210 C2214 1.531 . S
C2211 C2210 1.369 . S
C2211 C2212 1.410 . S
C2211 C2219 1.503 . S
C2212 C2211 1.410 . S
C2212 C2213 1.392 . S
C2212 C2215 1.511 . S
C2213 C2209 1.376 . S
C2213 C2212 1.392 . S
C2213 H2225 0.929 . S
C2214 C2210 1.531 . S
C2214 H2226 0.960 . S
C2214 H2227 0.962 . S
C2214 H2228 0.960 . S
C2215 C2212 1.511 . S
C2215 H2229 0.961 . S
C2215 H2230 0.961 . S
C2215 H2231 0.961 . S
C2216 C2217 1.370 . S
C2216 C2218 1.363 . S
C2216 H2232 0.931 . S
C2217 C2216 1.370 . S
C2217 C2221 1.408 . S
C2218 C2216 1.363 . S
C2218 C2219 1.370 . S
C2218 C2222 1.524 . S
C2219 C2211 1.503 . S
C2219 C2218 1.370 . S
C2219 C2220 1.403 . S
C2220 C2219 1.403 . S
C2220 C2221 1.404 . S
C2220 C2223 1.539 . S
C2221 C2217 1.408 . S
C2221 C2220 1.404 . S
C2221 H2233 0.930 . S
C2222 C2218 1.524 . S
C2222 H2234 0.956 . S
C2222 H2235 0.961 . S
C2222 H2236 0.961 . S
C2223 C2220 1.539 . S
C2223 H2237 0.958 . S
C2223 H2238 0.961 . S
C2223 H2239 0.960 . S
H2224 C2208 0.931 . S
H2225 C2213 0.929 . S
H2226 C2214 0.960 . S
H2227 C2214 0.962 . S
H2228 C2214 0.960 . S
H2229 C2215 0.961 . S
H2230 C2215 0.961 . S
H2231 C2215 0.961 . S
H2232 C2216 0.931 . S
H2233 C2221 0.930 . S
H2234 C2222 0.956 . S
H2235 C2222 0.961 . S
H2236 C2222 0.961 . S
H2237 C2223 0.958 . S
H2238 C2223 0.961 . S
H2239 C2223 0.960 . S
C2240 C2241 1.391 . S
C2240 C2242 1.394 . S
C2240 H2256 0.931 . S
C2241 C2240 1.391 . S
C2241 C2245 1.376 . S
C2242 C2240 1.394 . S
C2242 C2243 1.369 . S
C2242 C2246 1.531 . S
C2243 C2242 1.369 . S
C2243 C2244 1.410 . S
C2243 C2251 1.503 1_655 S
C2244 C2243 1.410 . S
C2244 C2245 1.392 . S
C2244 C2247 1.528 . S
C2245 C2241 1.376 . S
C2245 C2244 1.392 . S
C2245 H2257 0.929 . S
C2246 C2242 1.531 . S
C2246 H2258 0.960 1_655 S
C2246 H2259 0.962 . S
C2246 H2260 0.960 . S
C2247 C2244 1.528 . S
C2247 H2261 0.942 1_556 S
C2247 H2262 0.958 1_656 S
C2247 H2263 0.966 . S
C2248 C2249 1.370 . S
C2248 C2250 1.363 . S
C2248 H2264 0.931 . S
C2249 C2248 1.370 . S
C2249 C2253 1.408 . S
C2250 C2248 1.363 . S
C2250 C2251 1.370 . S
C2250 C2254 1.524 . S
C2251 C2243 1.503 1_455 S
C2251 C2250 1.370 . S
C2251 C2252 1.403 . S
C2252 C2251 1.403 . S
C2252 C2253 1.404 . S
C2252 C2255 1.539 . S
C2253 C2249 1.408 . S
C2253 C2252 1.404 . S
C2253 H2265 0.930 . S
C2254 C2250 1.524 . S
C2254 H2266 0.956 . S
C2254 H2267 0.936 1_455 S
C2254 H2268 0.961 . S
C2255 C2252 1.539 . S
C2255 H2269 0.958 . S
C2255 H2270 0.961 . S
C2255 H2271 0.990 . S
H2256 C2240 0.931 . S
H2257 C2245 0.929 . S
H2258 C2246 0.960 1_455 S
H2259 C2246 0.962 . S
H2260 C2246 0.960 . S
H2261 C2247 0.942 1_554 S
H2262 C2247 0.958 1_454 S
H2263 C2247 0.966 . S
H2264 C2248 0.931 . S
H2265 C2253 0.930 . S
H2266 C2254 0.956 . S
H2267 C2254 0.936 1_655 S
H2268 C2254 0.961 . S
H2269 C2255 0.958 . S
H2270 C2255 0.961 . S
H2271 C2255 0.990 . S
C2272 C2273 1.391 . S
C2272 C2274 1.394 . S
C2272 H2288 0.931 . S
C2273 C2272 1.391 . S
C2273 C2277 1.376 . S
C2274 C2272 1.394 . S
C2274 C2275 1.369 . S
C2274 C2278 1.531 . S
C2275 C2274 1.369 . S
C2275 C2276 1.410 . S
C2275 C2283 1.503 . S
C2276 C2275 1.410 . S
C2276 C2277 1.392 . S
C2276 C2279 1.511 . S
C2277 C2273 1.376 . S
C2277 C2276 1.392 . S
C2277 H2289 0.929 . S
C2278 C2274 1.531 . S
C2278 H2290 0.960 . S
C2278 H2291 0.962 . S
C2278 H2292 0.960 . S
C2279 C2276 1.511 . S
C2279 H2293 0.961 . S
C2279 H2294 0.961 . S
C2279 H2295 0.961 . S
C2280 C2281 1.370 . S
C2280 C2282 1.363 . S
C2280 H2296 0.931 . S
C2281 C2280 1.370 . S
C2281 C2285 1.408 . S
C2282 C2280 1.363 . S
C2282 C2283 1.370 . S
C2282 C2286 1.524 . S
C2283 C2275 1.503 . S
C2283 C2282 1.370 . S
C2283 C2284 1.403 . S
C2284 C2283 1.403 . S
C2284 C2285 1.404 . S
C2284 C2287 1.539 . S
C2285 C2281 1.408 . S
C2285 C2284 1.404 . S
C2285 H2297 0.930 . S
C2286 C2282 1.524 . S
C2286 H2298 0.956 . S
C2286 H2299 0.961 . S
C2286 H2300 0.961 . S
C2287 C2284 1.539 . S
C2287 H2301 0.958 . S
C2287 H2302 0.961 . S
C2287 H2303 0.960 . S
H2288 C2272 0.931 . S
H2289 C2277 0.929 . S
H2290 C2278 0.960 . S
H2291 C2278 0.962 . S
H2292 C2278 0.960 . S
H2293 C2279 0.961 . S
H2294 C2279 0.961 . S
H2295 C2279 0.961 . S
H2296 C2280 0.931 . S
H2297 C2285 0.930 . S
H2298 C2286 0.956 . S
H2299 C2286 0.961 . S
H2300 C2286 0.961 . S
H2301 C2287 0.958 . S
H2302 C2287 0.961 . S
H2303 C2287 0.960 . S
C2304 C2305 1.391 . S
C2304 C2306 1.394 . S
C2304 H2320 0.931 . S
C2305 C2304 1.391 . S
C2305 C2309 1.376 . S
C2306 C2304 1.394 . S
C2306 C2307 1.369 . S
C2306 C2310 1.531 . S
C2307 C2306 1.369 . S
C2307 C2308 1.410 . S
C2307 C2315 1.503 . S
C2308 C2307 1.410 . S
C2308 C2309 1.392 . S
C2308 C2311 1.511 . S
C2309 C2305 1.376 . S
C2309 C2308 1.392 . S
C2309 H2321 0.929 . S
C2310 C2306 1.531 . S
C2310 H2322 0.960 . S
C2310 H2323 0.962 . S
C2310 H2324 0.960 . S
C2311 C2308 1.511 . S
C2311 H2325 0.961 . S
C2311 H2326 0.961 . S
C2311 H2327 0.961 . S
C2312 C2313 1.370 . S
C2312 C2314 1.363 . S
C2312 H2328 0.931 . S
C2313 C2312 1.370 . S
C2313 C2317 1.408 . S
C2314 C2312 1.363 . S
C2314 C2315 1.370 . S
C2314 C2318 1.524 . S
C2315 C2307 1.503 . S
C2315 C2314 1.370 . S
C2315 C2316 1.403 . S
C2316 C2315 1.403 . S
C2316 C2317 1.404 . S
C2316 C2319 1.539 . S
C2317 C2313 1.408 . S
C2317 C2316 1.404 . S
C2317 H2329 0.930 . S
C2318 C2314 1.524 . S
C2318 H2330 0.956 . S
C2318 H2331 0.961 . S
C2318 H2332 0.961 . S
C2319 C2316 1.539 . S
C2319 H2333 0.958 . S
C2319 H2334 0.961 . S
C2319 H2335 0.960 . S
H2320 C2304 0.931 . S
H2321 C2309 0.929 . S
H2322 C2310 0.960 . S
H2323 C2310 0.962 . S
H2324 C2310 0.960 . S
H2325 C2311 0.961 . S
H2326 C2311 0.961 . S
H2327 C2311 0.961 . S
H2328 C2312 0.931 . S
H2329 C2317 0.930 . S
H2330 C2318 0.956 . S
H2331 C2318 0.961 . S
H2332 C2318 0.961 . S
H2333 C2319 0.958 . S
H2334 C2319 0.961 . S
H2335 C2319 0.960 . S
C2336 C2337 1.391 . S
C2336 C2338 1.394 . S
C2336 H2352 0.931 . S
C2337 C2336 1.391 . S
C2337 C2341 1.376 . S
C2338 C2336 1.394 . S
C2338 C2339 1.369 . S
C2338 C2342 1.531 . S
C2339 C2338 1.369 . S
C2339 C2340 1.410 . S
C2339 C2347 1.503 1_455 S
C2340 C2339 1.410 . S
C2340 C2341 1.392 . S
C2340 C2343 1.511 . S
C2341 C2337 1.376 . S
C2341 C2340 1.392 . S
C2341 H2353 0.929 . S
C2342 C2338 1.531 . S
C2342 H2354 0.923 1_454 S
C2342 H2355 0.962 . S
C2342 H2356 0.960 1_554 S
C2343 C2340 1.511 . S
C2343 H2357 0.961 . S
C2343 H2358 0.961 1_455 S
C2343 H2359 0.961 . S
C2344 C2345 1.370 . S
C2344 C2346 1.363 . S
C2344 H2360 0.931 . S
C2345 C2344 1.370 . S
C2345 C2349 1.408 . S
C2346 C2344 1.363 . S
C2346 C2347 1.370 . S
C2346 C2350 1.524 . S
C2347 C2339 1.503 1_655 S
C2347 C2346 1.370 . S
C2347 C2348 1.403 . S
C2348 C2347 1.403 . S
C2348 C2349 1.404 . S
C2348 C2351 1.539 1_554 S
C2349 C2345 1.408 . S
C2349 C2348 1.404 . S
C2349 H2361 0.930 . S
C2350 C2346 1.524 . S
C2350 H2362 0.955 1_655 S
C2350 H2363 0.961 1_655 S
C2350 H2364 0.961 . S
C2351 C2348 1.539 1_556 S
C2351 H2365 0.958 . S
C2351 H2366 0.961 . S
C2351 H2367 0.935 1_656 S
H2352 C2336 0.931 . S
H2353 C2341 0.929 . S
H2354 C2342 0.923 1_656 S
H2355 C2342 0.962 . S
H2356 C2342 0.960 1_556 S
H2357 C2343 0.961 . S
H2358 C2343 0.961 1_655 S
H2359 C2343 0.961 . S
H2360 C2344 0.931 . S
H2361 C2349 0.930 . S
H2362 C2350 0.955 1_455 S
H2363 C2350 0.961 1_455 S
H2364 C2350 0.961 . S
H2365 C2351 0.958 . S
H2366 C2351 0.961 . S
H2367 C2351 0.935 1_454 S
C2368 C2369 1.391 . S
C2368 C2370 1.394 . S
C2368 H2384 0.931 . S
C2369 C2368 1.391 . S
C2369 C2373 1.376 . S
C2370 C2368 1.394 . S
C2370 C2371 1.369 . S
C2370 C2374 1.531 . S
C2371 C2370 1.369 . S
C2371 C2372 1.410 1_554 S
C2371 C2379 1.503 1_554 S
C2372 C2371 1.410 1_556 S
C2372 C2373 1.392 1_556 S
C2372 C2375 1.511 . S
C2373 C2369 1.376 . S
C2373 C2372 1.392 1_554 S
C2373 H2385 0.933 . S
C2374 C2370 1.531 . S
C2374 H2386 0.960 . S
C2374 H2387 0.962 . S
C2374 H2388 0.960 . S
C2375 C2372 1.511 . S
C2375 H2389 0.961 . S
C2375 H2390 0.961 . S
C2375 H2391 0.961 . S
C2376 C2377 1.370 . S
C2376 C2378 1.363 . S
C2376 H2392 0.931 . S
C2377 C2376 1.370 . S
C2377 C2381 1.408 . S
C2378 C2376 1.363 . S
C2378 C2379 1.370 . S
C2378 C2382 1.524 . S
C2379 C2371 1.503 1_556 S
C2379 C2378 1.370 . S
C2379 C2380 1.403 . S
C2380 C2379 1.403 . S
C2380 C2381 1.404 . S
C2380 C2383 1.539 1_556 S
C2381 C2377 1.408 . S
C2381 C2380 1.404 . S
C2381 H2393 0.930 . S
C2382 C2378 1.524 . S
C2382 H2394 0.956 . S
C2382 H2395 0.961 . S
C2382 H2396 0.961 . S
C2383 C2380 1.539 1_554 S
C2383 H2397 0.958 . S
C2383 H2398 0.961 . S
C2383 H2399 0.960 . S
H2384 C2368 0.931 . S
H2385 C2373 0.933 . S
H2386 C2374 0.960 . S
H2387 C2374 0.962 . S
H2388 C2374 0.960 . S
H2389 C2375 0.961 . S
H2390 C2375 0.961 . S
H2391 C2375 0.961 . S
H2392 C2376 0.931 . S
H2393 C2381 0.930 . S
H2394 C2382 0.956 . S
H2395 C2382 0.961 . S
H2396 C2382 0.961 . S
H2397 C2383 0.958 . S
H2398 C2383 0.961 . S
H2399 C2383 0.960 . S
C2400 C2401 1.391 . S
C2400 C2402 1.394 . S
C2400 H2416 0.931 . S
C2401 C2400 1.391 . S
C2401 C2405 1.376 . S
C2402 C2400 1.394 . S
C2402 C2403 1.369 . S
C2402 C2406 1.531 . S
C2403 C2402 1.369 . S
C2403 C2404 1.410 . S
C2403 C2411 1.503 . S
C2404 C2403 1.410 . S
C2404 C2405 1.392 . S
C2404 C2407 1.511 . S
C2405 C2401 1.376 . S
C2405 C2404 1.392 . S
C2405 H2417 0.929 . S
C2406 C2402 1.531 . S
C2406 H2418 0.960 . S
C2406 H2419 0.962 . S
C2406 H2420 0.960 . S
C2407 C2404 1.511 . S
C2407 H2421 0.961 . S
C2407 H2422 0.961 . S
C2407 H2423 0.961 . S
C2408 C2409 1.370 . S
C2408 C2410 1.363 . S
C2408 H2424 0.931 . S
C2409 C2408 1.370 . S
C2409 C2413 1.408 . S
C2410 C2408 1.363 . S
C2410 C2411 1.370 . S
C2410 C2414 1.524 . S
C2411 C2403 1.503 . S
C2411 C2410 1.370 . S
C2411 C2412 1.403 . S
C2412 C2411 1.403 . S
C2412 C2413 1.404 . S
C2412 C2415 1.539 . S
C2413 C2409 1.408 . S
C2413 C2412 1.404 . S
C2413 H2425 0.930 . S
C2414 C2410 1.524 . S
C2414 H2426 0.956 . S
C2414 H2427 0.961 . S
C2414 H2428 0.961 . S
C2415 C2412 1.539 . S
C2415 H2429 0.958 . S
C2415 H2430 0.961 . S
C2415 H2431 0.960 . S
H2416 C2400 0.931 . S
H2417 C2405 0.929 . S
H2418 C2406 0.960 . S
H2419 C2406 0.962 . S
H2420 C2406 0.960 . S
H2421 C2407 0.961 . S
H2422 C2407 0.961 . S
H2423 C2407 0.961 . S
H2424 C2408 0.931 . S
H2425 C2413 0.930 . S
H2426 C2414 0.956 . S
H2427 C2414 0.961 . S
H2428 C2414 0.961 . S
H2429 C2415 0.958 . S
H2430 C2415 0.961 . S
H2431 C2415 0.960 . S
C2432 C2433 1.391 . S
C2432 C2434 1.394 . S
C2432 H2448 0.931 . S
C2433 C2432 1.391 . S
C2433 C2437 1.376 . S
C2434 C2432 1.394 . S
C2434 C2435 1.369 . S
C2434 C2438 1.531 . S
C2435 C2434 1.369 . S
C2435 C2436 1.410 . S
C2435 C2443 1.503 . S
C2436 C2435 1.410 . S
C2436 C2437 1.392 . S
C2436 C2439 1.511 . S
C2437 C2433 1.376 . S
C2437 C2436 1.392 . S
C2437 H2449 0.929 . S
C2438 C2434 1.531 . S
C2438 H2450 0.960 . S
C2438 H2451 0.962 . S
C2438 H2452 0.960 . S
C2439 C2436 1.511 . S
C2439 H2453 0.961 . S
C2439 H2454 0.961 . S
C2439 H2455 0.961 . S
C2440 C2441 1.370 . S
C2440 C2442 1.363 . S
C2440 H2456 0.931 . S
C2441 C2440 1.370 . S
C2441 C2445 1.408 . S
C2442 C2440 1.363 . S
C2442 C2443 1.370 . S
C2442 C2446 1.524 . S
C2443 C2435 1.503 . S
C2443 C2442 1.370 . S
C2443 C2444 1.403 . S
C2444 C2443 1.403 . S
C2444 C2445 1.404 . S
C2444 C2447 1.539 . S
C2445 C2441 1.408 . S
C2445 C2444 1.404 . S
C2445 H2457 0.930 . S
C2446 C2442 1.524 . S
C2446 H2458 0.956 . S
C2446 H2459 0.961 . S
C2446 H2460 0.961 . S
C2447 C2444 1.539 . S
C2447 H2461 0.958 . S
C2447 H2462 0.961 . S
C2447 H2463 0.960 . S
H2448 C2432 0.931 . S
H2449 C2437 0.929 . S
H2450 C2438 0.960 . S
H2451 C2438 0.962 . S
H2452 C2438 0.960 . S
H2453 C2439 0.961 . S
H2454 C2439 0.961 . S
H2455 C2439 0.961 . S
H2456 C2440 0.931 . S
H2457 C2445 0.930 . S
H2458 C2446 0.956 . S
H2459 C2446 0.961 . S
H2460 C2446 0.961 . S
H2461 C2447 0.958 . S
H2462 C2447 0.961 . S
H2463 C2447 0.960 . S
C2464 C2465 1.391 . S
C2464 C2466 1.394 . S
C2464 H2480 0.931 . S
C2465 C2464 1.391 . S
C2465 C2469 1.376 . S
C2466 C2464 1.394 . S
C2466 C2467 1.369 . S
C2466 C2470 1.531 . S
C2467 C2466 1.369 . S
C2467 C2468 1.410 . S
C2467 C2475 1.503 . S
C2468 C2467 1.410 . S
C2468 C2469 1.392 . S
C2468 C2471 1.511 . S
C2469 C2465 1.376 . S
C2469 C2468 1.392 . S
C2469 H2481 0.929 . S
C2470 C2466 1.531 . S
C2470 H2482 0.960 . S
C2470 H2483 0.962 . S
C2470 H2484 0.960 . S
C2471 C2468 1.511 . S
C2471 H2485 0.961 . S
C2471 H2486 0.961 . S
C2471 H2487 0.961 . S
C2472 C2473 1.370 . S
C2472 C2474 1.363 . S
C2472 H2488 0.931 . S
C2473 C2472 1.370 . S
C2473 C2477 1.408 . S
C2474 C2472 1.363 . S
C2474 C2475 1.370 . S
C2474 C2478 1.524 . S
C2475 C2467 1.503 . S
C2475 C2474 1.370 . S
C2475 C2476 1.403 . S
C2476 C2475 1.403 . S
C2476 C2477 1.404 . S
C2476 C2479 1.539 . S
C2477 C2473 1.408 . S
C2477 C2476 1.404 . S
C2477 H2489 0.930 . S
C2478 C2474 1.524 . S
C2478 H2490 0.956 . S
C2478 H2491 0.961 . S
C2478 H2492 0.961 . S
C2479 C2476 1.539 . S
C2479 H2493 0.958 . S
C2479 H2494 0.961 . S
C2479 H2495 0.960 . S
H2480 C2464 0.931 . S
H2481 C2469 0.929 . S
H2482 C2470 0.960 . S
H2483 C2470 0.962 . S
H2484 C2470 0.960 . S
H2485 C2471 0.961 . S
H2486 C2471 0.961 . S
H2487 C2471 0.961 . S
H2488 C2472 0.931 . S
H2489 C2477 0.930 . S
H2490 C2478 0.956 . S
H2491 C2478 0.961 . S
H2492 C2478 0.961 . S
H2493 C2479 0.958 . S
H2494 C2479 0.961 . S
H2495 C2479 0.960 . S
C2496 C2497 1.391 . S
C2496 C2498 1.394 1_554 S
C2496 H2512 0.931 . S
C2497 C2496 1.391 . S
C2497 C2501 1.376 . S
C2498 C2496 1.394 1_556 S
C2498 C2499 1.369 1_556 S
C2498 C2502 1.531 . S
C2499 C2498 1.369 1_554 S
C2499 C2500 1.410 . S
C2499 C2507 1.503 1_554 S
C2500 C2499 1.410 . S
C2500 C2501 1.392 . S
C2500 C2503 1.511 . S
C2501 C2497 1.376 . S
C2501 C2500 1.392 . S
C2501 H2513 0.929 . S
C2502 C2498 1.531 . S
C2502 H2514 0.960 . S
C2502 H2515 0.962 . S
C2502 H2516 0.960 . S
C2503 C2500 1.511 . S
C2503 H2517 0.961 . S
C2503 H2518 0.961 . S
C2503 H2519 0.961 . S
C2504 C2505 1.370 . S
C2504 C2506 1.363 . S
C2504 H2520 0.931 . S
C2505 C2504 1.370 . S
C2505 C2509 1.408 . S
C2506 C2504 1.363 . S
C2506 C2507 1.370 . S
C2506 C2510 1.524 . S
C2507 C2499 1.503 1_556 S
C2507 C2506 1.370 . S
C2507 C2508 1.403 . S
C2508 C2507 1.403 . S
C2508 C2509 1.404 . S
C2508 C2511 1.539 1_556 S
C2509 C2505 1.408 . S
C2509 C2508 1.404 . S
C2509 H2521 0.930 . S
C2510 C2506 1.524 . S
C2510 H2522 0.956 . S
C2510 H2523 0.961 . S
C2510 H2524 0.961 . S
C2511 C2508 1.539 1_554 S
C2511 H2525 0.958 . S
C2511 H2526 0.961 . S
C2511 H2527 0.960 . S
H2512 C2496 0.931 . S
H2513 C2501 0.929 . S
H2514 C2502 0.960 . S
H2515 C2502 0.962 . S
H2516 C2502 0.960 . S
H2517 C2503 0.961 . S
H2518 C2503 0.961 . S
H2519 C2503 0.961 . S
H2520 C2504 0.931 . S
H2521 C2509 0.930 . S
H2522 C2510 0.956 . S
H2523 C2510 0.961 . S
H2524 C2510 0.961 . S
H2525 C2511 0.958 . S
H2526 C2511 0.961 . S
H2527 C2511 0.960 . S
C2528 C2529 1.391 . S
C2528 C2530 1.394 . S
C2528 H2544 0.931 . S
C2529 C2528 1.391 . S
C2529 C2533 1.376 . S
C2530 C2528 1.394 . S
C2530 C2531 1.369 . S
C2530 C2534 1.531 . S
C2531 C2530 1.369 . S
C2531 C2532 1.410 . S
C2531 C2539 1.503 . S
C2532 C2531 1.410 . S
C2532 C2533 1.392 . S
C2532 C2535 1.511 . S
C2533 C2529 1.376 . S
C2533 C2532 1.392 . S
C2533 H2545 0.929 . S
C2534 C2530 1.531 . S
C2534 H2546 0.960 . S
C2534 H2547 0.962 . S
C2534 H2548 0.960 . S
C2535 C2532 1.511 . S
C2535 H2549 0.961 . S
C2535 H2550 0.961 . S
C2535 H2551 0.961 . S
C2536 C2537 1.370 . S
C2536 C2538 1.363 . S
C2536 H2552 0.931 . S
C2537 C2536 1.370 . S
C2537 C2541 1.408 . S
C2538 C2536 1.363 . S
C2538 C2539 1.370 . S
C2538 C2542 1.524 . S
C2539 C2531 1.503 . S
C2539 C2538 1.370 . S
C2539 C2540 1.403 . S
C2540 C2539 1.403 . S
C2540 C2541 1.404 . S
C2540 C2543 1.539 . S
C2541 C2537 1.408 . S
C2541 C2540 1.404 . S
C2541 H2553 0.930 . S
C2542 C2538 1.524 . S
C2542 H2554 0.956 . S
C2542 H2555 0.961 . S
C2542 H2556 0.961 . S
C2543 C2540 1.539 . S
C2543 H2557 0.958 . S
C2543 H2558 0.961 . S
C2543 H2559 0.960 . S
H2544 C2528 0.931 . S
H2545 C2533 0.929 . S
H2546 C2534 0.960 . S
H2547 C2534 0.962 . S
H2548 C2534 0.960 . S
H2549 C2535 0.961 . S
H2550 C2535 0.961 . S
H2551 C2535 0.961 . S
H2552 C2536 0.931 . S
H2553 C2541 0.930 . S
H2554 C2542 0.956 . S
H2555 C2542 0.961 . S
H2556 C2542 0.961 . S
H2557 C2543 0.958 . S
H2558 C2543 0.961 . S
H2559 C2543 0.960 . S
C2560 C2561 1.391 . S
C2560 C2562 1.394 . S
C2560 H2576 0.931 . S
C2561 C2560 1.391 . S
C2561 C2565 1.376 . S
C2562 C2560 1.394 . S
C2562 C2563 1.369 . S
C2562 C2566 1.531 . S
C2563 C2562 1.369 . S
C2563 C2564 1.410 . S
C2563 C2571 1.503 . S
C2564 C2563 1.410 . S
C2564 C2565 1.392 . S
C2564 C2567 1.511 . S
C2565 C2561 1.376 . S
C2565 C2564 1.392 . S
C2565 H2577 0.929 . S
C2566 C2562 1.531 . S
C2566 H2578 0.960 . S
C2566 H2579 0.962 . S
C2566 H2580 0.960 . S
C2567 C2564 1.511 . S
C2567 H2581 0.961 . S
C2567 H2582 0.961 . S
C2567 H2583 0.961 . S
C2568 C2569 1.370 . S
C2568 C2570 1.363 . S
C2568 H2584 0.931 . S
C2569 C2568 1.370 . S
C2569 C2573 1.408 . S
C2570 C2568 1.363 . S
C2570 C2571 1.370 . S
C2570 C2574 1.524 . S
C2571 C2563 1.503 . S
C2571 C2570 1.370 . S
C2571 C2572 1.403 . S
C2572 C2571 1.403 . S
C2572 C2573 1.404 . S
C2572 C2575 1.539 . S
C2573 C2569 1.408 . S
C2573 C2572 1.404 . S
C2573 H2585 0.930 . S
C2574 C2570 1.524 . S
C2574 H2586 0.956 . S
C2574 H2587 0.961 . S
C2574 H2588 0.961 . S
C2575 C2572 1.539 . S
C2575 H2589 0.958 . S
C2575 H2590 0.961 . S
C2575 H2591 0.960 . S
H2576 C2560 0.931 . S
H2577 C2565 0.929 . S
H2578 C2566 0.960 . S
H2579 C2566 0.962 . S
H2580 C2566 0.960 . S
H2581 C2567 0.961 . S
H2582 C2567 0.961 . S
H2583 C2567 0.961 . S
H2584 C2568 0.931 . S
H2585 C2573 0.930 . S
H2586 C2574 0.956 . S
H2587 C2574 0.961 . S
H2588 C2574 0.961 . S
H2589 C2575 0.958 . S
H2590 C2575 0.961 . S
H2591 C2575 0.960 . S
C2592 C2593 1.391 . S
C2592 C2594 1.394 . S
C2592 H2608 0.931 . S
C2593 C2592 1.391 . S
C2593 C2597 1.376 . S
C2594 C2592 1.394 . S
C2594 C2595 1.369 . S
C2594 C2598 1.531 . S
C2595 C2594 1.369 . S
C2595 C2596 1.410 . S
C2595 C2603 1.503 . S
C2596 C2595 1.410 . S
C2596 C2597 1.392 . S
C2596 C2599 1.511 . S
C2597 C2593 1.376 . S
C2597 C2596 1.392 . S
C2597 H2609 0.929 . S
C2598 C2594 1.531 . S
C2598 H2610 0.960 . S
C2598 H2611 0.962 . S
C2598 H2612 0.960 . S
C2599 C2596 1.511 . S
C2599 H2613 0.961 . S
C2599 H2614 0.961 . S
C2599 H2615 0.961 . S
C2600 C2601 1.370 . S
C2600 C2602 1.363 . S
C2600 H2616 0.931 . S
C2601 C2600 1.370 . S
C2601 C2605 1.408 . S
C2602 C2600 1.363 . S
C2602 C2603 1.370 . S
C2602 C2606 1.524 . S
C2603 C2595 1.503 . S
C2603 C2602 1.370 . S
C2603 C2604 1.403 . S
C2604 C2603 1.403 . S
C2604 C2605 1.404 . S
C2604 C2607 1.539 . S
C2605 C2601 1.408 . S
C2605 C2604 1.404 . S
C2605 H2617 0.930 . S
C2606 C2602 1.524 . S
C2606 H2618 0.956 . S
C2606 H2619 0.961 . S
C2606 H2620 0.961 . S
C2607 C2604 1.539 . S
C2607 H2621 0.958 . S
C2607 H2622 0.961 . S
C2607 H2623 0.960 . S
H2608 C2592 0.931 . S
H2609 C2597 0.929 . S
H2610 C2598 0.960 . S
H2611 C2598 0.962 . S
H2612 C2598 0.960 . S
H2613 C2599 0.961 . S
H2614 C2599 0.961 . S
H2615 C2599 0.961 . S
H2616 C2600 0.931 . S
H2617 C2605 0.930 . S
H2618 C2606 0.956 . S
H2619 C2606 0.961 . S
H2620 C2606 0.961 . S
H2621 C2607 0.958 . S
H2622 C2607 0.961 . S
H2623 C2607 0.960 . S
C2624 C2625 1.391 . S
C2624 C2626 1.394 . S
C2624 H2640 0.931 . S
C2625 C2624 1.391 . S
C2625 C2629 1.376 . S
C2626 C2624 1.394 . S
C2626 C2627 1.369 . S
C2626 C2630 1.531 . S
C2627 C2626 1.369 . S
C2627 C2628 1.410 . S
C2627 C2635 1.503 1_565 S
C2628 C2627 1.410 . S
C2628 C2629 1.392 . S
C2628 C2631 1.511 . S
C2629 C2625 1.376 . S
C2629 C2628 1.392 . S
C2629 H2641 0.929 . S
C2630 C2626 1.531 . S
C2630 H2642 0.960 . S
C2630 H2643 0.962 . S
C2630 H2644 0.960 . S
C2631 C2628 1.511 . S
C2631 H2645 0.961 . S
C2631 H2646 0.961 1_565 S
C2631 H2647 0.961 . S
C2632 C2633 1.370 . S
C2632 C2634 1.363 . S
C2632 H2648 0.931 . S
C2633 C2632 1.370 . S
C2633 C2637 1.408 . S
C2634 C2632 1.363 . S
C2634 C2635 1.370 . S
C2634 C2638 1.524 . S
C2635 C2627 1.503 1_545 S
C2635 C2634 1.370 . S
C2635 C2636 1.403 . S
C2636 C2635 1.403 . S
C2636 C2637 1.404 . S
C2636 C2639 1.539 1_545 S
C2637 C2633 1.408 . S
C2637 C2636 1.404 . S
C2637 H2649 0.930 . S
C2638 C2634 1.524 . S
C2638 H2650 0.956 . S
C2638 H2651 0.961 . S
C2638 H2652 0.961 . S
C2639 C2636 1.539 1_565 S
C2639 H2653 0.958 . S
C2639 H2654 0.961 . S
C2639 H2655 0.960 . S
H2640 C2624 0.931 . S
H2641 C2629 0.929 . S
H2642 C2630 0.960 . S
H2643 C2630 0.962 . S
H2644 C2630 0.960 . S
H2645 C2631 0.961 . S
H2646 C2631 0.961 1_545 S
H2647 C2631 0.961 . S
H2648 C2632 0.931 . S
H2649 C2637 0.930 . S
H2650 C2638 0.956 . S
H2651 C2638 0.961 . S
H2652 C2638 0.961 . S
H2653 C2639 0.958 . S
H2654 C2639 0.961 . S
H2655 C2639 0.960 . S
C2656 C2657 1.391 . S
C2656 C2658 1.394 . S
C2656 H2672 0.931 . S
C2657 C2656 1.391 . S
C2657 C2661 1.376 . S
C2658 C2656 1.394 . S
C2658 C2659 1.369 . S
C2658 C2662 1.531 . S
C2659 C2658 1.369 . S
C2659 C2660 1.410 . S
C2659 C2667 1.503 . S
C2660 C2659 1.410 . S
C2660 C2661 1.392 . S
C2660 C2663 1.511 . S
C2661 C2657 1.376 . S
C2661 C2660 1.392 . S
C2661 H2673 0.929 . S
C2662 C2658 1.531 . S
C2662 H2674 0.960 . S
C2662 H2675 0.962 . S
C2662 H2676 0.960 . S
C2663 C2660 1.511 . S
C2663 H2677 0.961 . S
C2663 H2678 0.961 . S
C2663 H2679 0.961 . S
C2664 C2665 1.370 . S
C2664 C2666 1.363 . S
C2664 H2680 0.931 . S
C2665 C2664 1.370 . S
C2665 C2669 1.408 . S
C2666 C2664 1.363 . S
C2666 C2667 1.370 . S
C2666 C2670 1.524 . S
C2667 C2659 1.503 . S
C2667 C2666 1.370 . S
C2667 C2668 1.403 . S
C2668 C2667 1.403 . S
C2668 C2669 1.404 . S
C2668 C2671 1.539 . S
C2669 C2665 1.408 . S
C2669 C2668 1.404 . S
C2669 H2681 0.930 . S
C2670 C2666 1.524 . S
C2670 H2682 0.956 . S
C2670 H2683 0.961 . S
C2670 H2684 0.961 . S
C2671 C2668 1.539 . S
C2671 H2685 0.958 . S
C2671 H2686 0.961 . S
C2671 H2687 0.960 . S
H2672 C2656 0.931 . S
H2673 C2661 0.929 . S
H2674 C2662 0.960 . S
H2675 C2662 0.962 . S
H2676 C2662 0.960 . S
H2677 C2663 0.961 . S
H2678 C2663 0.961 . S
H2679 C2663 0.961 . S
H2680 C2664 0.931 . S
H2681 C2669 0.930 . S
H2682 C2670 0.956 . S
H2683 C2670 0.961 . S
H2684 C2670 0.961 . S
H2685 C2671 0.958 . S
H2686 C2671 0.961 . S
H2687 C2671 0.960 . S
C2688 C2689 1.391 . S
C2688 C2690 1.394 . S
C2688 H2704 0.931 . S
C2689 C2688 1.391 . S
C2689 C2693 1.376 . S
C2690 C2688 1.394 . S
C2690 C2691 1.369 . S
C2690 C2694 1.531 1_565 S
C2691 C2690 1.369 . S
C2691 C2692 1.410 . S
C2691 C2699 1.503 1_564 S
C2692 C2691 1.410 . S
C2692 C2693 1.392 . S
C2692 C2695 1.511 1_554 S
C2693 C2689 1.376 . S
C2693 C2692 1.392 . S
C2693 H2705 0.929 . S
C2694 C2690 1.531 1_545 S
C2694 H2706 0.960 . S
C2694 H2707 0.962 . S
C2694 H2708 0.960 . S
C2695 C2692 1.511 1_556 S
C2695 H2709 0.961 . S
C2695 H2710 0.961 . S
C2695 H2711 0.961 . S
C2696 C2697 1.370 . S
C2696 C2698 1.363 . S
C2696 H2712 0.931 . S
C2697 C2696 1.370 . S
C2697 C2701 1.408 . S
C2698 C2696 1.363 . S
C2698 C2699 1.370 . S
C2698 C2702 1.524 1_545 S
C2699 C2691 1.503 1_546 S
C2699 C2698 1.370 . S
C2699 C2700 1.403 1_556 S
C2700 C2699 1.403 1_554 S
C2700 C2701 1.404 1_554 S
C2700 C2703 1.539 . S
C2701 C2697 1.408 . S
C2701 C2700 1.404 1_556 S
C2701 H2713 0.930 . S
C2702 C2698 1.524 1_565 S
C2702 H2714 0.956 . S
C2702 H2715 0.961 . S
C2702 H2716 0.961 . S
C2703 C2700 1.539 . S
C2703 H2717 0.958 . S
C2703 H2718 0.961 . S
C2703 H2719 0.960 . S
H2704 C2688 0.931 . S
H2705 C2693 0.929 . S
H2706 C2694 0.960 . S
H2707 C2694 0.962 . S
H2708 C2694 0.960 . S
H2709 C2695 0.961 . S
H2710 C2695 0.961 . S
H2711 C2695 0.961 . S
H2712 C2696 0.931 . S
H2713 C2701 0.930 . S
H2714 C2702 0.956 . S
H2715 C2702 0.961 . S
H2716 C2702 0.961 . S
H2717 C2703 0.958 . S
H2718 C2703 0.961 . S
H2719 C2703 0.960 . S
C2720 C2721 1.391 . S
C2720 C2722 1.394 . S
C2720 H2736 0.931 . S
C2721 C2720 1.391 . S
C2721 C2725 1.376 . S
C2722 C2720 1.394 . S
C2722 C2723 1.369 . S
C2722 C2726 1.531 . S
C2723 C2722 1.369 . S
C2723 C2724 1.410 . S
C2723 C2731 1.503 . S
C2724 C2723 1.410 . S
C2724 C2725 1.392 . S
C2724 C2727 1.511 . S
C2725 C2721 1.376 . S
C2725 C2724 1.392 . S
C2725 H2737 0.929 . S
C2726 C2722 1.531 . S
C2726 H2738 0.960 . S
C2726 H2739 0.962 . S
C2726 H2740 0.960 . S
C2727 C2724 1.511 . S
C2727 H2741 0.961 . S
C2727 H2742 0.961 . S
C2727 H2743 0.961 . S
C2728 C2729 1.370 . S
C2728 C2730 1.363 . S
C2728 H2744 0.931 . S
C2729 C2728 1.370 . S
C2729 C2733 1.408 . S
C2730 C2728 1.363 . S
C2730 C2731 1.370 . S
C2730 C2734 1.524 . S
C2731 C2723 1.503 . S
C2731 C2730 1.370 . S
C2731 C2732 1.403 . S
C2732 C2731 1.403 . S
C2732 C2733 1.404 . S
C2732 C2735 1.539 . S
C2733 C2729 1.408 . S
C2733 C2732 1.404 . S
C2733 H2745 0.930 . S
C2734 C2730 1.524 . S
C2734 H2746 0.956 . S
C2734 H2747 0.961 . S
C2734 H2748 0.961 . S
C2735 C2732 1.539 . S
C2735 H2749 0.958 . S
C2735 H2750 0.961 . S
C2735 H2751 0.960 . S
H2736 C2720 0.931 . S
H2737 C2725 0.929 . S
H2738 C2726 0.960 . S
H2739 C2726 0.962 . S
H2740 C2726 0.960 . S
H2741 C2727 0.961 . S
H2742 C2727 0.961 . S
H2743 C2727 0.961 . S
H2744 C2728 0.931 . S
H2745 C2733 0.930 . S
H2746 C2734 0.956 . S
H2747 C2734 0.961 . S
H2748 C2734 0.961 . S
H2749 C2735 0.958 . S
H2750 C2735 0.961 . S
H2751 C2735 0.960 . S
C2752 C2753 1.391 . S
C2752 C2754 1.394 . S
C2752 H2768 0.931 . S
C2753 C2752 1.391 . S
C2753 C2757 1.376 . S
C2754 C2752 1.394 . S
C2754 C2755 1.369 . S
C2754 C2758 1.531 1_565 S
C2755 C2754 1.369 . S
C2755 C2756 1.410 . S
C2755 C2763 1.503 1_565 S
C2756 C2755 1.410 . S
C2756 C2757 1.392 . S
C2756 C2759 1.511 . S
C2757 C2753 1.376 . S
C2757 C2756 1.392 . S
C2757 H2769 0.929 . S
C2758 C2754 1.531 1_545 S
C2758 H2770 0.960 . S
C2758 H2771 0.962 . S
C2758 H2772 0.960 . S
C2759 C2756 1.511 . S
C2759 H2773 0.961 . S
C2759 H2774 0.961 . S
C2759 H2775 0.961 . S
C2760 C2761 1.370 . S
C2760 C2762 1.363 . S
C2760 H2776 0.931 . S
C2761 C2760 1.370 . S
C2761 C2765 1.408 . S
C2762 C2760 1.363 . S
C2762 C2763 1.370 . S
C2762 C2766 1.524 1_545 S
C2763 C2755 1.503 1_545 S
C2763 C2762 1.370 . S
C2763 C2764 1.403 . S
C2764 C2763 1.403 . S
C2764 C2765 1.404 . S
C2764 C2767 1.539 . S
C2765 C2761 1.408 . S
C2765 C2764 1.404 . S
C2765 H2777 0.930 . S
C2766 C2762 1.524 1_565 S
C2766 H2778 0.956 . S
C2766 H2779 0.961 . S
C2766 H2780 0.961 1_565 S
C2767 C2764 1.539 . S
C2767 H2781 0.958 . S
C2767 H2782 0.961 . S
C2767 H2783 0.960 . S
H2768 C2752 0.931 . S
H2769 C2757 0.929 . S
H2770 C2758 0.960 . S
H2771 C2758 0.962 . S
H2772 C2758 0.960 . S
H2773 C2759 0.961 . S
H2774 C2759 0.961 . S
H2775 C2759 0.961 . S
H2776 C2760 0.931 . S
H2777 C2765 0.930 . S
H2778 C2766 0.956 . S
H2779 C2766 0.961 . S
H2780 C2766 0.961 1_545 S
H2781 C2767 0.958 . S
H2782 C2767 0.961 . S
H2783 C2767 0.960 . S
C2784 C2785 1.391 . S
C2784 C2786 1.394 . S
C2784 H2800 0.931 . S
C2785 C2784 1.391 . S
C2785 C2789 1.376 . S
C2786 C2784 1.394 . S
C2786 C2787 1.369 . S
C2786 C2790 1.531 . S
C2787 C2786 1.369 . S
C2787 C2788 1.410 . S
C2787 C2795 1.503 . S
C2788 C2787 1.410 . S
C2788 C2789 1.392 . S
C2788 C2791 1.511 . S
C2789 C2785 1.376 . S
C2789 C2788 1.392 . S
C2789 H2801 0.929 . S
C2790 C2786 1.531 . S
C2790 H2802 0.960 . S
C2790 H2803 0.962 . S
C2790 H2804 0.960 . S
C2791 C2788 1.511 . S
C2791 H2805 0.961 . S
C2791 H2806 0.961 . S
C2791 H2807 0.961 . S
C2792 C2793 1.370 . S
C2792 C2794 1.363 . S
C2792 H2808 0.931 . S
C2793 C2792 1.370 . S
C2793 C2797 1.408 . S
C2794 C2792 1.363 . S
C2794 C2795 1.370 . S
C2794 C2798 1.524 . S
C2795 C2787 1.503 . S
C2795 C2794 1.370 . S
C2795 C2796 1.403 . S
C2796 C2795 1.403 . S
C2796 C2797 1.404 . S
C2796 C2799 1.539 . S
C2797 C2793 1.408 . S
C2797 C2796 1.404 . S
C2797 H2809 0.930 . S
C2798 C2794 1.524 . S
C2798 H2810 0.956 . S
C2798 H2811 0.961 . S
C2798 H2812 0.961 . S
C2799 C2796 1.539 . S
C2799 H2813 0.958 . S
C2799 H2814 0.961 . S
C2799 H2815 0.960 . S
H2800 C2784 0.931 . S
H2801 C2789 0.929 . S
H2802 C2790 0.960 . S
H2803 C2790 0.962 . S
H2804 C2790 0.960 . S
H2805 C2791 0.961 . S
H2806 C2791 0.961 . S
H2807 C2791 0.961 . S
H2808 C2792 0.931 . S
H2809 C2797 0.930 . S
H2810 C2798 0.956 . S
H2811 C2798 0.961 . S
H2812 C2798 0.961 . S
H2813 C2799 0.958 . S
H2814 C2799 0.961 . S
H2815 C2799 0.960 . S
C2816 C2817 1.391 . S
C2816 C2818 1.394 1_556 S
C2816 H2832 0.931 . S
C2817 C2816 1.391 . S
C2817 C2821 1.376 . S
C2818 C2816 1.394 1_554 S
C2818 C2819 1.369 1_554 S
C2818 C2822 1.531 . S
C2819 C2818 1.369 1_556 S
C2819 C2820 1.410 . S
C2819 C2827 1.503 1_546 S
C2820 C2819 1.410 . S
C2820 C2821 1.392 . S
C2820 C2823 1.511 1_545 S
C2821 C2817 1.376 . S
C2821 C2820 1.392 . S
C2821 H2833 0.929 . S
C2822 C2818 1.531 . S
C2822 H2834 0.960 . S
C2822 H2835 0.962 . S
C2822 H2836 0.960 . S
C2823 C2820 1.511 1_565 S
C2823 H2837 0.961 . S
C2823 H2838 0.961 . S
C2823 H2839 0.961 . S
C2824 C2825 1.370 . S
C2824 C2826 1.363 . S
C2824 H2840 0.931 . S
C2825 C2824 1.370 . S
C2825 C2829 1.408 . S
C2826 C2824 1.363 . S
C2826 C2827 1.370 . S
C2826 C2830 1.524 1_554 S
C2827 C2819 1.503 1_564 S
C2827 C2826 1.370 . S
C2827 C2828 1.403 . S
C2828 C2827 1.403 . S
C2828 C2829 1.404 . S
C2828 C2831 1.534 1_565 S
C2829 C2825 1.408 . S
C2829 C2828 1.404 . S
C2829 H2841 0.930 . S
C2830 C2826 1.524 1_556 S
C2830 H2842 0.956 . S
C2830 H2843 0.961 . S
C2830 H2844 0.961 . S
C2831 C2828 1.534 1_545 S
C2831 H2845 0.963 . S
C2831 H2846 0.956 1_545 S
C2831 H2847 0.964 . S
H2832 C2816 0.931 . S
H2833 C2821 0.929 . S
H2834 C2822 0.960 . S
H2835 C2822 0.962 . S
H2836 C2822 0.960 . S
H2837 C2823 0.961 . S
H2838 C2823 0.961 . S
H2839 C2823 0.961 . S
H2840 C2824 0.931 . S
H2841 C2829 0.930 . S
H2842 C2830 0.956 . S
H2843 C2830 0.961 . S
H2844 C2830 0.961 . S
H2845 C2831 0.963 . S
H2846 C2831 0.956 1_565 S
H2847 C2831 0.964 . S
C2848 C2849 1.391 . S
C2848 C2850 1.394 . S
C2848 H2864 0.931 . S
C2849 C2848 1.391 . S
C2849 C2853 1.376 . S
C2850 C2848 1.394 . S
C2850 C2851 1.369 . S
C2850 C2854 1.531 . S
C2851 C2850 1.369 . S
C2851 C2852 1.410 . S
C2851 C2859 1.503 . S
C2852 C2851 1.410 . S
C2852 C2853 1.392 . S
C2852 C2855 1.511 . S
C2853 C2849 1.376 . S
C2853 C2852 1.392 . S
C2853 H2865 0.929 . S
C2854 C2850 1.531 . S
C2854 H2866 0.960 . S
C2854 H2867 0.962 . S
C2854 H2868 0.960 . S
C2855 C2852 1.511 . S
C2855 H2869 0.961 . S
C2855 H2870 0.961 . S
C2855 H2871 0.961 . S
C2856 C2857 1.370 . S
C2856 C2858 1.363 . S
C2856 H2872 0.931 . S
C2857 C2856 1.370 . S
C2857 C2861 1.408 . S
C2858 C2856 1.363 . S
C2858 C2859 1.370 . S
C2858 C2862 1.524 . S
C2859 C2851 1.503 . S
C2859 C2858 1.370 . S
C2859 C2860 1.403 . S
C2860 C2859 1.403 . S
C2860 C2861 1.404 . S
C2860 C2863 1.539 . S
C2861 C2857 1.408 . S
C2861 C2860 1.404 . S
C2861 H2873 0.930 . S
C2862 C2858 1.524 . S
C2862 H2874 0.956 . S
C2862 H2875 0.961 . S
C2862 H2876 0.961 . S
C2863 C2860 1.539 . S
C2863 H2877 0.958 . S
C2863 H2878 0.961 . S
C2863 H2879 0.960 . S
H2864 C2848 0.931 . S
H2865 C2853 0.929 . S
H2866 C2854 0.960 . S
H2867 C2854 0.962 . S
H2868 C2854 0.960 . S
H2869 C2855 0.961 . S
H2870 C2855 0.961 . S
H2871 C2855 0.961 . S
H2872 C2856 0.931 . S
H2873 C2861 0.930 . S
H2874 C2862 0.956 . S
H2875 C2862 0.961 . S
H2876 C2862 0.961 . S
H2877 C2863 0.958 . S
H2878 C2863 0.961 . S
H2879 C2863 0.960 . S
C1345 C58 1.579 . S
C1353 C70 1.538 . S
C1377 C142 1.569 . S
C1385 C154 1.517 . S
C1409 C226 1.577 . S
C1417 C238 1.508 . S
C1441 C322 1.544 . S
C1449 C310 1.534 . S
C1473 C406 1.583 . S
C1481 C394 1.512 . S
C1505 C490 1.576 . S
C1513 C478 1.501 . S
C1537 C562 1.567 . S
C1545 C574 1.522 . S
C1569 C658 1.555 . S
C1577 C646 1.562 . S
C1601 C730 1.608 . S
C1609 C742 1.535 . S
C1633 C814 1.562 . S
C1641 C826 1.525 . S
C1665 C910 1.558 . S
C1673 C898 1.516 . S
C1697 C982 1.481 . S
C1705 C994 1.563 . S
C1729 C1066 1.536 . S
C1737 C1078 1.525 . S
C1761 C1162 1.578 . S
C1769 C1150 1.503 . S
C1793 C1246 1.520 . S
C1801 C1234 1.547 . S
C1825 C1330 1.599 . S
C1833 C1318 1.525 . S
C1857 C67 1.734 . S
C1865 C979 1.749 . S
C1889 C151 1.772 . S
C1897 C1315 1.767 . S
C1921 C235 1.755 . S
C1929 C812 1.700 . S
C1953 C320 1.745 . S
C1961 C1147 1.782 . S
C1985 C404 1.670 . S
C1993 C1148 1.697 . S
C2017 C980 1.728 . S
C2025 C487 1.766 . S
C2049 C571 1.747 . S
C2057 C1316 1.692 . S
C2081 C656 1.710 . S
C2089 C811 1.772 . S
C2113 C319 1.755 . S
C2121 C728 1.698 . S
C2145 C152 1.669 . S
C2153 C896 1.691 . S
C2177 C1064 1.728 . S
C2185 C488 1.724 . S
C2209 C655 1.748 . S
C2217 C1231 1.760 . S
C2241 C727 1.749 . S
C2249 C403 1.764 . S
C2273 C572 1.704 . S
C2281 C895 1.768 . S
C2305 C236 1.690 . S
C2313 C1232 1.701 . S
C2337 C68 1.740 . S
C2345 C1063 1.775 . S
C2369 C55 1.616 . S
C2377 C392 1.638 . S
C2401 C139 1.653 . S
C2409 C475 1.643 . S
C2433 C223 1.627 . S
C2441 C559 1.645 . S
C2465 C308 1.658 . S
C2473 C644 1.655 . S
C2497 C1076 1.654 . S
C2505 C740 1.660 . S
C2529 C1159 1.656 . S
C2537 C823 1.650 . S
C2561 C908 1.663 . S
C2569 C1243 1.648 . S
C2593 C1327 1.627 . S
C2601 C992 1.632 . S
C2625 C140 1.633 . S
C2633 C643 1.627 . S
C2657 C391 1.673 . S
C2665 C224 1.676 . S
C2689 C476 1.665 . S
C2697 C307 1.651 . S
C2721 C56 1.639 . S
C2729 C560 1.651 . S
C2753 C1328 1.641 . S
C2761 C824 1.651 . S
C2785 C1075 1.654 . S
C2793 C907 1.658 . S
C2817 C1160 1.652 . S
C2825 C991 1.634 . S
C2849 C1244 1.621 . S
C2857 C739 1.620 . S
