# Generated by pormake.
# Topology wje, (4)-cn, num edge types: 1
# Building blocks:
#     Node 0, Type 0, BuildingBlock: KUFVIS_clean_sbu_0, # of connection points: 4
#     Node 1, Type 0, BuildingBlock: KUFVIS_clean_sbu_0, # of connection points: 4
#     Node 2, Type 0, BuildingBlock: KUFVIS_clean_sbu_0, # of connection points: 4
#     Node 3, Type 0, BuildingBlock: KUFVIS_clean_sbu_0, # of connection points: 4
#     Node 4, Type 0, BuildingBlock: KUFVIS_clean_sbu_0, # of connection points: 4
#     Node 5, Type 0, BuildingBlock: KUFVIS_clean_sbu_0, # of connection points: 4
#     Node 6, Type 0, BuildingBlock: KUFVIS_clean_sbu_0, # of connection points: 4
#     Node 7, Type 0, BuildingBlock: KUFVIS_clean_sbu_0, # of connection points: 4
#     Node 8, Type 0, BuildingBlock: KUFVIS_clean_sbu_0, # of connection points: 4
#     Node 9, Type 0, BuildingBlock: KUFVIS_clean_sbu_0, # of connection points: 4
#     Node 10, Type 0, BuildingBlock: KUFVIS_clean_sbu_0, # of connection points: 4
#     Node 11, Type 0, BuildingBlock: KUFVIS_clean_sbu_0, # of connection points: 4
#     Edge 12, Type (0, 0), BuildingBlock: EZIPEK_clean_linker_0, # of connection points: 2
#     Edge 13, Type (0, 0), BuildingBlock: EZIPEK_clean_linker_0, # of connection points: 2
#     Edge 14, Type (0, 0), BuildingBlock: EZIPEK_clean_linker_0, # of connection points: 2
#     Edge 15, Type (0, 0), BuildingBlock: EZIPEK_clean_linker_0, # of connection points: 2
#     Edge 16, Type (0, 0), BuildingBlock: EZIPEK_clean_linker_0, # of connection points: 2
#     Edge 17, Type (0, 0), BuildingBlock: EZIPEK_clean_linker_0, # of connection points: 2
#     Edge 18, Type (0, 0), BuildingBlock: EZIPEK_clean_linker_0, # of connection points: 2
#     Edge 19, Type (0, 0), BuildingBlock: EZIPEK_clean_linker_0, # of connection points: 2
#     Edge 20, Type (0, 0), BuildingBlock: EZIPEK_clean_linker_0, # of connection points: 2
#     Edge 21, Type (0, 0), BuildingBlock: EZIPEK_clean_linker_0, # of connection points: 2
#     Edge 22, Type (0, 0), BuildingBlock: EZIPEK_clean_linker_0, # of connection points: 2
#     Edge 23, Type (0, 0), BuildingBlock: EZIPEK_clean_linker_0, # of connection points: 2
#     Edge 24, Type (0, 0), BuildingBlock: EZIPEK_clean_linker_0, # of connection points: 2
#     Edge 25, Type (0, 0), BuildingBlock: EZIPEK_clean_linker_0, # of connection points: 2
#     Edge 26, Type (0, 0), BuildingBlock: EZIPEK_clean_linker_0, # of connection points: 2
#     Edge 27, Type (0, 0), BuildingBlock: EZIPEK_clean_linker_0, # of connection points: 2
#     Edge 28, Type (0, 0), BuildingBlock: EZIPEK_clean_linker_0, # of connection points: 2
#     Edge 29, Type (0, 0), BuildingBlock: EZIPEK_clean_linker_0, # of connection points: 2
#     Edge 30, Type (0, 0), BuildingBlock: EZIPEK_clean_linker_0, # of connection points: 2
#     Edge 31, Type (0, 0), BuildingBlock: EZIPEK_clean_linker_0, # of connection points: 2
#     Edge 32, Type (0, 0), BuildingBlock: EZIPEK_clean_linker_0, # of connection points: 2
#     Edge 33, Type (0, 0), BuildingBlock: EZIPEK_clean_linker_0, # of connection points: 2
#     Edge 34, Type (0, 0), BuildingBlock: EZIPEK_clean_linker_0, # of connection points: 2
#     Edge 35, Type (0, 0), BuildingBlock: EZIPEK_clean_linker_0, # of connection points: 2
# Relax obj value: 0.154
# Max RMSD: 0.106
# Mean RMSD: 0.106
data_MOF--net-wje--node1-KUFVIS_clean_sbu_0--edge1-EZIPEK_clean_linker_0
_symmetry_space_group_name_H-M    P1
_symmetry_Int_Tables_number       1
_symmetry_cell_setting            triclinic
loop_
_symmetry_equiv_pos_as_xyz
'x, y, z'
_cell_length_a     28.689174
_cell_length_b     28.642454
_cell_length_c     27.597587
_cell_angle_alpha  90.286722
_cell_angle_beta   89.926194
_cell_angle_gamma 120.05355
loop_
_atom_site_label
_atom_site_type_symbol
_atom_site_fract_x
_atom_site_fract_y
_atom_site_fract_z
_atom_type_partial_charge
Mn0 Mn 0.34255 0.02764 0.34685 0.0
Mn1 Mn 0.28994 0.96164 0.24283 0.0
C2 C 0.25105 0.96396 0.34478 0.0
C3 C 0.3778 0.02209 0.42291 0.0
C4 C 0.32202 0.07958 0.25815 0.0
O5 O 0.40816 0.04005 0.30872 0.0
O6 O 0.36872 0.98785 0.24366 0.0
C7 C 0.30765 0.86915 0.25541 0.0
N8 N 0.27334 0.88871 0.24998 0.0
C9 C 0.19641 0.80057 0.26041 0.0
C10 C 0.23072 0.77927 0.26564 0.0
C11 C 0.28665 0.81374 0.26287 0.0
C12 C 0.21955 0.8558 0.25134 0.0
H13 H 0.35073 0.89562 0.25456 0.0
C14 C 0.41069 0.01889 0.26865 0.0
O15 O 0.38485 0.06799 0.40715 0.0
O16 O 0.35596 0.98284 0.3926 0.0
N17 N 0.21413 0.9335 0.23977 0.0
C18 C 0.1866 0.96055 0.23507 0.0
C19 C 0.13031 0.93229 0.23965 0.0
C20 C 0.10331 0.87693 0.25005 0.0
C21 C 0.13266 0.84995 0.25346 0.0
C22 C 0.18823 0.87963 0.24658 0.0
H23 H 0.20749 0.00347 0.22886 0.0
O24 O 0.27033 1.00196 0.37695 0.0
O25 O 0.28636 0.96647 0.31329 0.0
O26 O 0.33495 0.08293 0.30327 0.0
O27 O 0.30573 0.03671 0.23271 0.0
C28 C 0.10943 0.79546 0.26612 0.0
C29 C 0.14048 0.76992 0.26712 0.0
H30 H 0.2146 0.73677 0.27286 0.0
H31 H 0.31353 0.79782 0.26738 0.0
H32 H 0.10802 0.95344 0.23675 0.0
H33 H 0.06016 0.85564 0.25559 0.0
H34 H 0.06838 0.77382 0.27781 0.0
H35 H 0.12162 0.72758 0.27621 0.0
Mn36 Mn 0.29488 0.31289 0.6711 0.0
Mn37 Mn 0.32048 0.27821 0.56074 0.0
C38 C 0.27088 0.22333 0.65471 0.0
C39 C 0.32167 0.33746 0.75316 0.0
C40 C 0.23517 0.3112 0.57816 0.0
O41 O 0.35489 0.38399 0.64389 0.0
O42 O 0.37614 0.35429 0.57567 0.0
C43 C 0.42614 0.28532 0.57585 0.0
N44 N 0.37242 0.25514 0.56611 0.0
C45 C 0.37803 0.17431 0.55907 0.0
C46 C 0.43329 0.20449 0.56919 0.0
C47 C 0.45743 0.26023 0.57759 0.0
C48 C 0.349 0.20159 0.55727 0.0
H49 H 0.44499 0.32816 0.5825 0.0
C50 C 0.38558 0.39087 0.60749 0.0
O51 O 0.28666 0.34727 0.73279 0.0
O52 O 0.34263 0.31655 0.72546 0.0
N53 N 0.27027 0.20437 0.54494 0.0
C54 C 0.21805 0.18194 0.5305 0.0
C55 C 0.18792 0.12632 0.52096 0.0
C56 C 0.21231 0.09452 0.52496 0.0
C57 C 0.26699 0.11898 0.53723 0.0
C58 C 0.29483 0.17462 0.54651 0.0
H59 H 0.20001 0.20654 0.5253 0.0
O60 O 0.24571 0.23461 0.68774 0.0
O61 O 0.30502 0.26445 0.62965 0.0
O62 O 0.23917 0.31477 0.62443 0.0
O63 O 0.26489 0.29999 0.55145 0.0
C64 C 0.29508 0.09047 0.54016 0.0
C65 C 0.35055 0.11816 0.55104 0.0
H66 H 0.4575 0.18527 0.57086 0.0
H67 H 0.50005 0.28378 0.58555 0.0
H68 H 0.14614 0.10811 0.51011 0.0
H69 H 0.18901 0.05162 0.51752 0.0
H70 H 0.27454 0.04733 0.53371 0.0
H71 H 0.37165 0.09588 0.55323 0.0
Mn72 Mn 0.98784 0.31736 1.00532 0.0
Mn73 Mn 0.05535 0.33531 0.90064 0.0
C74 C 0.0492 0.28719 0.99809 0.0
C75 C 0.98561 0.3433 0.08586 0.0
C76 C 0.93526 0.25501 0.91041 0.0
O77 O 0.98607 0.38121 0.97553 0.0
O78 O 0.03539 0.39265 0.90756 0.0
C79 C 0.15388 0.44184 0.91367 0.0
N80 N 0.12996 0.38729 0.90833 0.0
C81 C 0.21554 0.39123 0.91146 0.0
C82 C 0.24115 0.44742 0.91674 0.0
C83 C 0.21015 0.47284 0.91776 0.0
C84 C 0.15953 0.36266 0.90575 0.0
H85 H 0.13035 0.46169 0.91469 0.0
C86 C 0.01088 0.4075 0.93757 0.0
O87 O 0.94136 0.31162 0.06258 0.0
O88 O 0.02973 0.36258 0.06157 0.0
N89 N 0.0779 0.28316 0.8941 0.0
C90 C 0.04702 0.22852 0.88954 0.0
C91 C 0.07148 0.19671 0.89197 0.0
C92 C 0.12711 0.22129 0.90019 0.0
C93 C 0.15804 0.27764 0.90385 0.0
C94 C 0.13182 0.30739 0.89966 0.0
H95 H 0.00387 0.20915 0.88544 0.0
O96 O 0.00825 0.26325 0.02697 0.0
O97 O 0.04886 0.32364 0.97051 0.0
O98 O 0.93145 0.26457 0.95523 0.0
O99 O 0.97976 0.27991 0.88762 0.0
C100 C 0.21345 0.30527 0.91384 0.0
C101 C 0.24288 0.36206 0.9148 0.0
H102 H 0.28443 0.47125 0.92126 0.0
H103 H 0.22952 0.51616 0.92222 0.0
H104 H 0.04728 0.15326 0.88912 0.0
H105 H 0.14557 0.1965 0.90397 0.0
H106 H 0.23317 0.28291 0.92249 0.0
H107 H 0.28588 0.38271 0.92135 0.0
Mn108 Mn 0.66766 0.98181 0.33975 0.0
Mn109 Mn 0.71505 0.04599 0.23333 0.0
C110 C 0.75906 0.04561 0.33169 0.0
C111 C 0.63826 0.98163 0.42 0.0
C112 C 0.67918 0.92694 0.24659 0.0
O113 O 0.60068 0.97555 0.30866 0.0
O114 O 0.63695 0.02236 0.23946 0.0
C115 C 0.7015 0.14164 0.24265 0.0
N116 N 0.73422 0.12 0.23889 0.0
C117 C 0.81326 0.20795 0.24087 0.0
C118 C 0.78053 0.23116 0.24556 0.0
C119 C 0.72433 0.19781 0.24614 0.0
C120 C 0.78816 0.15179 0.23627 0.0
H121 H 0.65832 0.11638 0.24261 0.0
C122 C 0.59778 0.99735 0.26931 0.0
O123 O 0.6274 0.93703 0.39802 0.0
O124 O 0.66242 0.02494 0.3945 0.0
N125 N 0.79037 0.07203 0.22679 0.0
C126 C 0.81644 0.04343 0.22223 0.0
C127 C 0.87295 0.0708 0.22275 0.0
C128 C 0.90189 0.12702 0.22892 0.0
C129 C 0.87399 0.1554 0.233 0.0
C130 C 0.81788 0.12633 0.23075 0.0
H131 H 0.79436 1.0 0.21925 0.0
O132 O 0.74318 0.00621 0.36218 0.0
O133 O 0.72132 0.04255 0.30353 0.0
O134 O 0.66586 0.92423 0.29138 0.0
O135 O 0.69807 0.97082 0.22288 0.0
C136 C 0.8996 0.21118 0.24125 0.0
C137 C 0.86979 0.238 0.24306 0.0
H138 H 0.79813 0.27442 0.24931 0.0
H139 H 0.69867 0.21532 0.24955 0.0
H140 H 0.8941 0.04849 0.21966 0.0
H141 H 0.94547 0.14794 0.23069 0.0
H142 H 0.94191 0.23314 0.24812 0.0
H143 H 0.89051 0.28127 0.24865 0.0
Mn144 Mn 0.6853 0.66884 0.6718 0.0
Mn145 Mn 0.6455 0.70512 0.57086 0.0
C146 C 0.70601 0.75796 0.66288 0.0
C147 C 0.66794 0.64089 0.75293 0.0
C148 C 0.74026 0.68406 0.57254 0.0
O149 O 0.62612 0.59703 0.64537 0.0
O150 O 0.59963 0.62593 0.58091 0.0
C151 C 0.5349 0.67706 0.60002 0.0
N152 N 0.58571 0.71473 0.5862 0.0
C153 C 0.56342 0.78512 0.59051 0.0
C154 C 0.51092 0.74712 0.6045 0.0
C155 C 0.49662 0.69281 0.60928 0.0
C156 C 0.59967 0.76693 0.58102 0.0
H157 H 0.52343 0.63522 0.60415 0.0
C158 C 0.59376 0.58892 0.61037 0.0
O159 O 0.70187 0.63371 0.72716 0.0
O160 O 0.64232 0.66086 0.73091 0.0
N161 N 0.6844 0.78112 0.55975 0.0
C162 C 0.7366 0.81302 0.54627 0.0
C163 C 0.75911 0.86922 0.54616 0.0
C164 C 0.727 0.89168 0.55842 0.0
C165 C 0.67202 0.85781 0.56753 0.0
C166 C 0.65224 0.80224 0.56821 0.0
H167 H 0.76077 0.79565 0.53624 0.0
O168 O 0.73448 0.74572 0.69089 0.0
O169 O 0.66792 0.71747 0.63888 0.0
O170 O 0.73732 0.67265 0.61769 0.0
O171 O 0.70824 0.69673 0.55161 0.0
C172 C 0.63646 0.87696 0.57777 0.0
C173 C 0.58184 0.84067 0.58764 0.0
H174 H 0.48155 0.75932 0.61241 0.0
H175 H 0.45628 0.66321 0.6204 0.0
H176 H 0.80125 0.89512 0.53758 0.0
H177 H 0.7451 0.93488 0.5613 0.0
H178 H 0.65077 0.91943 0.57946 0.0
H179 H 0.5551 0.85618 0.59556 0.0
Mn180 Mn 0.03446 0.70038 1.00493 0.0
Mn181 Mn 0.96419 0.66558 0.90073 0.0
C182 C 0.96684 0.72143 0.99377 0.0
C183 C 0.04039 0.68171 0.08715 0.0
C184 C 0.07838 0.76012 0.90713 0.0
O185 O 0.04732 0.64128 0.97886 0.0
O186 O 0.004 0.62561 0.9079 0.0
C187 C 0.88792 0.55125 0.92475 0.0
N188 N 0.89705 0.60134 0.91296 0.0
C189 C 0.80238 0.571 0.91624 0.0
C190 C 0.79198 0.51916 0.92816 0.0
C191 C 0.83499 0.50926 0.9324 0.0
C192 C 0.85594 0.61113 0.90831 0.0
H193 H 0.92065 0.54322 0.9285 0.0
C194 C 0.03313 0.61727 0.93782 0.0
O195 O 0.083 0.71559 0.06308 0.0
O196 O 0.99632 0.6562 0.0627 0.0
N197 N 0.92203 0.69949 0.89121 0.0
C198 C 0.93871 0.75185 0.88067 0.0
C199 C 0.90121 0.76967 0.8804 0.0
C200 C 0.8468 0.733 0.88989 0.0
C201 C 0.82989 0.67843 0.89699 0.0
C202 C 0.86923 0.66328 0.89766 0.0
H203 H 0.98032 0.77981 0.87348 0.0
O204 O 0.00672 0.74974 1.02289 0.0
O205 O 0.97028 0.68406 0.96952 0.0
O206 O 0.08567 0.75309 0.95189 0.0
O207 O 0.03316 0.73218 0.88525 0.0
C208 C 0.77587 0.63878 0.9052 0.0
C209 C 0.76188 0.58489 0.91363 0.0
H210 H 0.75123 0.48687 0.93476 0.0
H211 H 0.82742 0.46943 0.94187 0.0
H212 H 0.91437 0.8117 0.8739 0.0
H213 H 0.81857 0.74734 0.89238 0.0
H214 H 0.74482 0.64928 0.90623 0.0
H215 H 0.72014 0.55498 0.92017 0.0
Mn216 Mn 0.97903 0.68584 0.37163 0.0
Mn217 Mn 0.02653 0.71379 0.48588 0.0
C218 C 0.04521 0.77388 0.39205 0.0
C219 C 0.98689 0.66347 0.29078 0.0
C220 C 0.91312 0.68807 0.45831 0.0
O221 O 0.96151 0.61244 0.39823 0.0
O222 O 0.00303 0.6369 0.47038 0.0
C223 C 0.12196 0.70003 0.48294 0.0
N224 N 0.10033 0.73242 0.48979 0.0
C225 C 0.18337 0.80318 0.52319 0.0
C226 C 0.20655 0.77061 0.5164 0.0
C227 C 0.17593 0.71912 0.49557 0.0
C228 C 0.13 0.78271 0.50841 0.0
H229 H 0.09799 0.65965 0.46864 0.0
C230 C 0.97681 0.60099 0.43779 0.0
O231 O 0.94117 0.65499 0.30803 0.0
O232 O 0.02652 0.68118 0.32112 0.0
N233 N 0.05158 0.78734 0.50365 0.0
C234 C 0.02255 0.81254 0.51074 0.0
C235 C 0.04809 0.86563 0.52859 0.0
C236 C 0.10285 0.89155 0.54102 0.0
C237 C 0.13149 0.86412 0.53513 0.0
C238 C 0.10438 0.81208 0.51508 0.0
H239 H 0.98013 0.79201 0.50359 0.0
O240 O 0.012 0.7646 0.35654 0.0
O241 O 0.03508 0.73145 0.41692 0.0
O242 O 0.91804 0.68566 0.41245 0.0
O243 O 0.95038 0.69616 0.4881 0.0
C244 C 0.18515 0.88545 0.55037 0.0
C245 C 0.21048 0.85442 0.54554 0.0
H246 H 0.24762 0.78443 0.52744 0.0
H247 H 0.19349 0.69369 0.4904 0.0
H248 H 0.02527 0.88599 0.5339 0.0
H249 H 0.12216 0.93199 0.55607 0.0
H250 H 0.20681 0.92503 0.5671 0.0
H251 H 0.25072 0.8703 0.55958 0.0
Mn252 Mn 0.32434 0.97683 0.69837 0.0
Mn253 Mn 0.32929 0.04034 0.80326 0.0
C254 C 0.2891 0.03436 0.70066 0.0
C255 C 0.36902 0.98173 0.62409 0.0
C256 C 0.25053 0.92065 0.78622 0.0
O257 O 0.38235 0.9726 0.7366 0.0
O258 O 0.38672 0.02076 0.80321 0.0
C259 C 0.4369 0.13879 0.79832 0.0
N260 N 0.38216 0.11501 0.79821 0.0
C261 C 0.38726 0.20084 0.79107 0.0
C262 C 0.44357 0.22621 0.78985 0.0
C263 C 0.46854 0.195 0.7939 0.0
C264 C 0.35788 0.14481 0.79637 0.0
H265 H 0.45646 0.11527 0.80229 0.0
C266 C 0.40415 0.99621 0.77637 0.0
O267 O 0.33208 0.93585 0.64172 0.0
O268 O 0.37934 0.02336 0.64978 0.0
N269 N 0.27748 0.06353 0.80508 0.0
C270 C 0.22307 0.03371 0.81021 0.0
C271 C 0.19195 0.05877 0.80569 0.0
C272 C 0.21729 0.11424 0.79597 0.0
C273 C 0.27362 0.14433 0.79316 0.0
C274 C 0.30246 0.11747 0.79914 0.0
H275 H 0.20374 0.99129 0.81767 0.0
O276 O 0.27309 0.99646 0.66824 0.0
O277 O 0.32311 0.03499 0.7324 0.0
O278 O 0.26388 0.91806 0.74216 0.0
O279 O 0.27315 0.96384 0.81168 0.0
C280 C 0.3023 0.19967 0.78311 0.0
C281 C 0.35901 0.22861 0.78492 0.0
H282 H 0.46795 0.26951 0.7856 0.0
H283 H 0.51201 0.21417 0.79349 0.0
H284 H 0.14857 0.03528 0.80892 0.0
H285 H 0.19326 0.13342 0.79138 0.0
H286 H 0.28095 0.21956 0.77198 0.0
H287 H 0.38071 0.27167 0.77894 0.0
Mn288 Mn 0.33335 0.30254 0.03949 0.0
Mn289 Mn 0.3038 0.34817 0.14035 0.0
C290 C 0.24663 0.2869 0.04955 0.0
C291 C 0.35797 0.31948 0.95654 0.0
C292 C 0.31947 0.25008 0.14086 0.0
O293 O 0.40702 0.35921 0.06508 0.0
O294 O 0.38288 0.39043 0.12922 0.0
C295 C 0.33512 0.45946 0.11177 0.0
N296 N 0.29646 0.40931 0.12612 0.0
C297 C 0.22928 0.43591 0.12679 0.0
C298 C 0.26831 0.48784 0.11223 0.0
C299 C 0.32151 0.49967 0.10473 0.0
C300 C 0.24549 0.39782 0.13452 0.0
H301 H 0.37606 0.46879 0.10561 0.0
C302 C 0.41897 0.39139 0.1011 0.0
O303 O 0.36392 0.28387 0.98073 0.0
O304 O 0.34254 0.34743 0.98129 0.0
N305 N 0.22801 0.31102 0.1523 0.0
C306 C 0.19398 0.25713 0.15819 0.0
C307 C 0.13827 0.23693 0.15959 0.0
C308 C 0.11813 0.27213 0.15345 0.0
C309 C 0.15379 0.32754 0.14817 0.0
C310 C 0.20893 0.34542 0.14723 0.0
H311 H 0.20892 0.22931 0.15835 0.0
O312 O 0.25618 0.2565 1.02125 0.0
O313 O 0.28853 0.32399 0.07299 0.0
O314 O 0.32632 0.24874 0.09469 0.0
O315 O 0.31161 0.28611 0.16007 0.0
C316 C 0.13669 0.36517 0.1403 0.0
C317 C 0.17442 0.41963 0.13129 0.0
H318 H 0.25764 0.51859 0.10572 0.0
H319 H 0.35185 0.53953 0.09315 0.0
H320 H 0.11083 0.19398 0.16267 0.0
H321 H 0.07524 0.25573 0.15026 0.0
H322 H 0.09461 0.35245 0.13901 0.0
H323 H 0.16041 0.44782 0.1247 0.0
Mn324 Mn 0.02015 0.33847 0.37198 0.0
Mn325 Mn 0.95221 0.29878 0.47749 0.0
C326 C 0.95549 0.24775 0.38237 0.0
C327 C 0.02452 0.36597 0.29142 0.0
C328 C 0.06966 0.32679 0.46731 0.0
O329 O 0.02841 0.40851 0.39913 0.0
O330 O 0.97942 0.37735 0.46768 0.0
C331 C 0.86123 0.31778 0.45851 0.0
N332 N 0.87976 0.28313 0.46744 0.0
C333 C 0.79021 0.20674 0.46227 0.0
C334 C 0.77028 0.24149 0.45247 0.0
C335 C 0.80597 0.29733 0.45088 0.0
C336 C 0.84556 0.22955 0.47054 0.0
H337 H 0.88821 0.36074 0.45732 0.0
C338 C 0.0055 0.41454 0.43644 0.0
O339 O 0.06786 0.376 0.31491 0.0
O340 O 0.98003 0.34342 0.31544 0.0
N341 N 0.9215 0.22321 0.4883 0.0
C342 C 0.94632 0.19519 0.50098 0.0
C343 C 0.9169 0.13861 0.50103 0.0
C344 C 0.86199 0.11166 0.48894 0.0
C345 C 0.8365 0.14162 0.47982 0.0
C346 C 0.86784 0.19778 0.48059 0.0
H347 H 0.98808 0.21593 0.51106 0.0
O348 O 0.99512 0.262 0.35235 0.0
O349 O 0.95771 0.28723 0.40802 0.0
O350 O 0.07419 0.3382 0.42209 0.0
O351 O 0.02636 0.31254 0.49128 0.0
C352 C 0.78162 0.11808 0.46833 0.0
C353 C 0.75781 0.15024 0.46176 0.0
H354 H 0.7278 0.2257 0.44561 0.0
H355 H 0.791 0.32454 0.44341 0.0
H356 H 0.93662 0.1159 0.50968 0.0
H357 H 0.83982 0.06805 0.48725 0.0
H358 H 0.75808 0.07554 0.46248 0.0
H359 H 0.7152 0.13116 0.45361 0.0
Mn360 Mn 0.69003 0.02661 0.7058 0.0
Mn361 Mn 0.67248 0.96182 0.81143 0.0
C362 C 0.71424 0.96068 0.71259 0.0
C363 C 0.66146 0.02821 0.62576 0.0
C364 C 0.76028 0.07812 0.7979 0.0
O365 O 0.63274 0.03704 0.73856 0.0
O366 O 0.62618 0.99549 0.80934 0.0
C367 C 0.55827 0.87645 0.80039 0.0
N368 N 0.61107 0.89114 0.80617 0.0
C369 C 0.5893 0.79851 0.80616 0.0
C370 C 0.53469 0.78234 0.80074 0.0
C371 C 0.51912 0.82154 0.79785 0.0
C372 C 0.62642 0.8538 0.8096 0.0
H373 H 0.54602 0.90627 0.7974 0.0
C374 C 0.61285 0.02224 0.78102 0.0
O375 O 0.69646 0.0723 0.64769 0.0
O376 O 0.64023 0.98495 0.65147 0.0
N377 N 0.71384 0.92665 0.81569 0.0
C378 C 0.76836 0.94909 0.81761 0.0
C379 C 0.79092 0.91555 0.81571 0.0
C380 C 0.75718 0.85952 0.81151 0.0
C381 C 0.70112 0.83734 0.81113 0.0
C382 C 0.68092 0.87263 0.81364 0.0
H383 H 0.79446 0.99232 0.81905 0.0
O384 O 0.73866 0.99998 0.68218 0.0
O385 O 0.68026 0.96461 0.74118 0.0
O386 O 0.74722 0.08232 0.75427 0.0
O387 O 0.73685 0.03356 0.82081 0.0
C388 C 0.66453 0.78183 0.80607 0.0
C389 C 0.60867 0.76212 0.80552 0.0
H390 H 0.50454 0.74002 0.79771 0.0
H391 H 0.47712 0.80948 0.79314 0.0
H392 H 0.8342 0.93292 0.81608 0.0
H393 H 0.7749 0.83412 0.80792 0.0
H394 H 0.67887 0.75421 0.80038 0.0
H395 H 0.58121 0.71918 0.80148 0.0
Mn396 Mn 0.67776 0.69146 0.03877 0.0
Mn397 Mn 0.72494 0.67358 0.14442 0.0
C398 C 0.76945 0.72216 0.04726 0.0
C399 C 0.65104 0.6638 0.95826 0.0
C400 C 0.68399 0.75312 0.13339 0.0
O401 O 0.61163 0.62783 0.0679 0.0
O402 O 0.64794 0.61533 0.13618 0.0
C403 C 0.71887 0.5679 0.13148 0.0
N404 N 0.74876 0.62246 0.13725 0.0
C405 C 0.83121 0.62005 0.13417 0.0
C406 C 0.8014 0.56387 0.12848 0.0
C407 C 0.74494 0.53767 0.12725 0.0
C408 C 0.80297 0.64781 0.1401 0.0
H409 H 0.67546 0.54748 0.13014 0.0
C410 C 0.60918 0.6009 0.10562 0.0
O411 O 0.63777 0.69573 0.98026 0.0
O412 O 0.67589 0.64555 0.98372 0.0
N413 N 0.79927 0.72645 0.15221 0.0
C414 C 0.82224 0.78094 0.15739 0.0
C415 C 0.87852 0.81342 0.15601 0.0
C416 C 0.91042 0.78967 0.14814 0.0
C417 C 0.88575 0.73347 0.14342 0.0
C418 C 0.82972 0.703 0.14674 0.0
H419 H 0.79787 0.7997 0.16135 0.0
O420 O 0.75271 0.74579 1.01778 0.0
O421 O 0.7321 0.68587 0.07467 0.0
O422 O 0.6725 0.74422 0.08814 0.0
O423 O 0.70324 0.72821 0.1567 0.0
C424 C 0.91441 0.70673 0.13332 0.0
C425 C 0.88772 0.64998 0.13124 0.0
H426 H 0.82148 0.54064 0.12385 0.0
H427 H 0.7216 0.49436 0.12246 0.0
H428 H 0.89717 0.85678 0.15953 0.0
H429 H 0.95374 0.81496 0.14544 0.0
H430 H 0.95676 0.72979 0.12575 0.0
H431 H 0.91066 0.62995 0.12465 0.0
C432 C 0.28519 0.14141 0.24027 0.0
C433 C 0.32525 0.1273 0.23255 0.0
C434 C 0.36355 0.19493 0.16683 0.0
C435 C 0.32339 0.20992 0.17482 0.0
N436 N 0.25955 0.209 0.23482 0.0
N437 N 0.40784 0.14578 0.19414 0.0
C438 C 0.2882 0.18676 0.216 0.0
C439 C 0.36578 0.15543 0.1972 0.0
N440 N 0.24283 0.1105 0.27021 0.0
N441 N 0.40124 0.22003 0.13138 0.0
H442 H 0.41076 0.11768 0.21594 0.0
H443 H 0.44187 0.16794 0.1729 0.0
H444 H 0.40881 0.25599 0.11531 0.0
H445 H 0.42548 0.20553 0.11787 0.0
H446 H 0.20803 0.11336 0.27157 0.0
H447 H 0.24038 0.07886 0.29068 0.0
H448 H 0.23857 0.19643 0.26741 0.0
H449 H 0.26172 0.24434 0.22351 0.0
C450 C 0.20127 0.36894 0.53824 0.0
C451 C 0.19204 0.31749 0.5533 0.0
C452 C 0.11018 0.27455 0.50363 0.0
C453 C 0.11504 0.32524 0.49327 0.0
N454 N 0.16326 0.42149 0.50508 0.0
N455 N 0.12825 0.22275 0.56167 0.0
C456 C 0.16015 0.37283 0.51187 0.0
C457 C 0.1436 0.27075 0.53945 0.0
N458 N 0.24953 0.41385 0.54842 0.0
N459 N 0.07566 0.2302 0.47726 0.0
H460 H 0.1507 0.21903 0.58959 0.0
H461 H 0.09093 0.18837 0.55549 0.0
H462 H 0.05319 0.2325 0.44869 0.0
H463 H 0.07381 0.19306 0.48064 0.0
H464 H 0.26112 0.45177 0.53429 0.0
H465 H 0.27939 0.4124 0.56881 0.0
H466 H 0.19204 0.45702 0.52178 0.0
H467 H 0.13474 0.42558 0.48495 0.0
C468 C 0.79881 0.12936 0.8771 0.0
C469 C 0.80284 0.12688 0.82563 0.0
C470 C 0.88393 0.21674 0.83095 0.0
C471 C 0.88693 0.21234 0.88233 0.0
N472 N 0.84959 0.15249 0.95144 0.0
N473 N 0.85989 0.16711 0.75542 0.0
C474 C 0.84504 0.16532 0.90478 0.0
C475 C 0.84838 0.17029 0.8029 0.0
N476 N 0.75053 0.09939 0.89992 0.0
N477 N 0.91301 0.2655 0.80871 0.0
H478 H 0.83829 0.13262 0.73425 0.0
H479 H 0.89517 0.19661 0.73906 0.0
H480 H 0.93474 0.30155 0.82795 0.0
H481 H 0.90908 0.27074 0.77186 0.0
H482 H 0.74578 0.10292 0.937 0.0
H483 H 0.7143 0.07744 0.88114 0.0
H484 H 0.82093 0.11632 0.9672 0.0
H485 H 0.88447 0.17354 0.97205 0.0
C486 C 0.6785 0.84061 0.13943 0.0
C487 C 0.67593 0.79453 0.16159 0.0
C488 C 0.67759 0.83559 0.24126 0.0
C489 C 0.67314 0.87795 0.21892 0.0
N490 N 0.64564 0.90322 0.14507 0.0
N491 N 0.64974 0.74106 0.23508 0.0
C492 C 0.66613 0.87501 0.16749 0.0
C493 C 0.66827 0.78972 0.21297 0.0
N494 N 0.69538 0.85418 0.09272 0.0
N495 N 0.69317 0.83922 0.28847 0.0
H496 H 0.63606 0.70516 0.21573 0.0
H497 H 0.6406 0.73557 0.27195 0.0
H498 H 0.70536 0.87339 0.30988 0.0
H499 H 0.70048 0.81049 0.3043 0.0
H500 H 0.70096 0.88975 0.07717 0.0
H501 H 0.7107 0.83466 0.07181 0.0
H502 H 0.63701 0.89935 0.10806 0.0
H503 H 0.6301 0.92387 0.16422 0.0
C504 C 0.82196 0.63455 0.49914 0.0
C505 C 0.86313 0.68403 0.47961 0.0
C506 C 0.82787 0.73255 0.5263 0.0
C507 C 0.78354 0.68329 0.5423 0.0
N508 N 0.7341 0.58618 0.53806 0.0
N509 N 0.89417 0.77754 0.46338 0.0
C510 C 0.77923 0.63378 0.52688 0.0
C511 C 0.86228 0.73213 0.48942 0.0
N512 N 0.82429 0.58856 0.49199 0.0
N513 N 0.83991 0.77965 0.549 0.0
H514 H 0.91908 0.77811 0.4355 0.0
H515 H 0.89189 0.81263 0.46664 0.0
H516 H 0.81878 0.78045 0.57945 0.0
H517 H 0.87445 0.81627 0.54137 0.0
H518 H 0.7992 0.55241 0.50962 0.0
H519 H 0.85346 0.58748 0.47012 0.0
H520 H 0.72602 0.54909 0.52391 0.0
H521 H 0.70281 0.58427 0.55889 0.0
C522 C 0.21336 0.836 0.83775 0.0
C523 C 0.20454 0.87271 0.81021 0.0
C524 C 0.11937 0.84225 0.85341 0.0
C525 C 0.12475 0.80158 0.87744 0.0
N526 N 0.17388 0.75391 0.88567 0.0
N527 N 0.14109 0.89802 0.78202 0.0
C528 C 0.17102 0.79676 0.86773 0.0
C529 C 0.15482 0.87153 0.81484 0.0
N530 N 0.26246 0.83927 0.83598 0.0
N531 N 0.08292 0.85589 0.86981 0.0
H532 H 0.16582 0.91853 0.75269 0.0
H533 H 0.10339 0.89512 0.78154 0.0
H534 H 0.06128 0.83976 0.9017 0.0
H535 H 0.0799 0.88802 0.85581 0.0
H536 H 0.27369 0.81811 0.85928 0.0
H537 H 0.29299 0.86558 0.81272 0.0
H538 H 0.20381 0.74525 0.87582 0.0
H539 H 0.144 0.72455 0.90751 0.0
C540 C 0.51039 0.06133 0.28121 0.0
C541 C 0.46396 0.02427 0.25507 0.0
C542 C 0.50974 0.9749 0.23009 0.0
C543 C 0.55149 0.00604 0.26352 0.0
N544 N 0.59158 0.07845 0.32257 0.0
N545 N 0.43367 0.96639 0.18444 0.0
C546 C 0.55207 0.04945 0.28926 0.0
C547 C 0.46743 0.98672 0.22339 0.0
N548 N 0.5161 0.10976 0.29516 0.0
N549 N 0.50964 0.93299 0.20611 0.0
H550 H 0.4088 0.98133 0.17384 0.0
H551 H 0.43604 0.94121 0.15845 0.0
H552 H 0.54062 0.92415 0.20973 0.0
H553 H 0.4773 0.90474 0.1855 0.0
H554 H 0.55108 0.14074 0.31074 0.0
H555 H 0.4884 0.12147 0.28499 0.0
H556 H 0.59009 0.10583 0.3466 0.0
H557 H 0.62426 0.07278 0.32854 0.0
C558 C 0.51674 0.51287 0.56305 0.0
C559 C 0.542 0.53635 0.60812 0.0
C560 C 0.47022 0.45854 0.64945 0.0
C561 C 0.43943 0.44084 0.60633 0.0
N562 N 0.43161 0.45743 0.52178 0.0
N563 N 0.5278 0.53805 0.69488 0.0
C564 C 0.46215 0.46972 0.56279 0.0
C565 C 0.51471 0.51114 0.65165 0.0
N566 N 0.545 0.53017 0.5208 0.0
N567 N 0.45923 0.42469 0.68772 0.0
H568 H 0.55476 0.57924 0.69792 0.0
H569 H 0.50556 0.52079 0.7263 0.0
H570 H 0.4305 0.38383 0.68591 0.0
H571 H 0.48405 0.43597 0.71825 0.0
H572 H 0.52947 0.51136 0.48756 0.0
H573 H 0.58586 0.55904 0.51986 0.0
H574 H 0.44517 0.48049 0.49037 0.0
H575 H 0.39103 0.42775 0.52079 0.0
C576 C 0.01502 0.53397 0.88926 0.0
C577 C 0.04248 0.5708 0.92783 0.0
C578 C 0.05914 0.50354 0.9662 0.0
C579 C 0.0221 0.46377 0.93328 0.0
N580 N 0.96452 0.44046 0.86326 0.0
N581 N 0.11457 0.59886 0.98522 0.0
C582 C 1.00047 0.4789 0.89434 0.0
C583 C 0.07163 0.55804 0.96143 0.0
N584 N 0.00732 0.55252 0.84626 0.0
N585 N 0.08205 0.48917 1.0023 0.0
H586 H 0.12876 0.63932 0.97707 0.0
H587 H 0.14041 0.59325 1.00772 0.0
H588 H 0.07809 0.45107 1.00463 0.0
H589 H 0.10315 0.51427 0.03131 0.0
H590 H 0.99081 0.52823 0.81571 0.0
H591 H 0.02523 0.59362 0.83885 0.0
H592 H 0.94268 0.44816 0.83757 0.0
H593 H 0.95337 0.39983 0.86574 0.0
C594 C 0.94831 0.50616 0.40574 0.0
C595 C 0.97143 0.54574 0.44327 0.0
C596 C 0.0156 0.49815 0.47682 0.0
C597 C 0.99633 0.46135 0.43753 0.0
N598 N 0.93291 0.42127 0.37149 0.0
N599 N 0.99965 0.55794 0.5271 0.0
C600 C 0.95971 0.46302 0.40361 0.0
C601 C 0.99721 0.53565 0.48266 0.0
N602 N 0.91308 0.50803 0.37367 0.0
N603 N 0.05197 0.49774 0.50845 0.0
H604 H 0.97857 0.57796 0.53494 0.0
H605 H 0.0148 0.54909 0.55783 0.0
H606 H 0.06606 0.4706 0.50533 0.0
H607 H 0.07155 0.52736 0.53492 0.0
H608 H 0.90336 0.48854 0.34018 0.0
H609 H 0.89164 0.52761 0.3818 0.0
H610 H 0.90226 0.41699 0.34859 0.0
H611 H 0.93815 0.38787 0.36991 0.0
C612 C 0.52633 0.99442 0.82796 0.0
C613 C 0.56623 0.02951 0.79457 0.0
C614 C 0.50218 0.05187 0.75869 0.0
C615 C 0.46002 0.00882 0.7851 0.0
N616 N 0.43088 0.93992 0.84594 0.0
N617 N 0.59851 0.11128 0.7495 0.0
C618 C 0.47182 0.98076 0.82062 0.0
C619 C 0.55607 0.06447 0.76638 0.0
N620 N 0.54109 0.97796 0.86858 0.0
N621 N 0.49059 0.07952 0.72507 0.0
H622 H 0.63822 0.12294 0.75857 0.0
H623 H 0.59453 0.14121 0.732 0.0
H624 H 0.45203 0.0736 0.71976 0.0
H625 H 0.51872 0.10665 0.70069 0.0
H626 H 0.51421 0.95487 0.89566 0.0
H627 H 0.58123 0.9943 0.87887 0.0
H628 H 0.43616 0.91366 0.86818 0.0
H629 H 0.39078 0.93006 0.84213 0.0
C630 C 0.48882 0.4701 0.15017 0.0
C631 C 0.47614 0.43713 0.10796 0.0
C632 C 0.56058 0.50722 0.07134 0.0
C633 C 0.56425 0.54422 0.10784 0.0
N634 N 0.53202 0.56096 0.18283 0.0
N635 N 0.50961 0.41962 0.03335 0.0
C636 C 0.52873 0.52559 0.14779 0.0
C637 C 0.51501 0.45414 0.07003 0.0
N638 N 0.46497 0.44747 0.19326 0.0
N639 N 0.60246 0.52177 0.03979 0.0
H640 H 0.48856 0.37789 0.03739 0.0
H641 H 0.52865 0.43244 0.99993 0.0
H642 H 0.63762 0.55919 0.041 0.0
H643 H 0.60503 0.49543 1.01528 0.0
H644 H 0.47548 0.46865 0.22597 0.0
H645 H 0.44029 0.40584 0.19716 0.0
H646 H 0.5034 0.5504 0.21015 0.0
H647 H 0.56096 0.60189 0.18228 0.0
C648 C 0.10409 0.87423 0.38393 0.0
C649 C 0.10023 0.82307 0.38874 0.0
C650 C 0.19691 0.86514 0.36864 0.0
C651 C 0.19845 0.91415 0.35637 0.0
N652 N 0.15264 0.96519 0.35182 0.0
N653 N 0.14326 0.76889 0.3792 0.0
C654 C 0.15185 0.91871 0.36445 0.0
C655 C 0.14687 0.81837 0.38024 0.0
N656 N 0.06199 0.88037 0.39881 0.0
N657 N 0.24339 0.86295 0.37019 0.0
H658 H 0.10818 0.73252 0.38485 0.0
H659 H 0.17441 0.76282 0.36772 0.0
H660 H 0.28066 0.89435 0.35951 0.0
H661 H 0.24594 0.83142 0.38615 0.0
H662 H 0.06378 0.91749 0.40145 0.0
H663 H 0.02655 0.84864 0.41292 0.0
H664 H 0.11866 0.9694 0.35146 0.0
H665 H 0.18652 0.9984 0.33735 0.0
C666 C 0.22951 0.12258 0.66314 0.0
C667 C 0.27639 0.1744 0.66119 0.0
C668 C 0.33189 0.13333 0.68004 0.0
C669 C 0.2846 0.08296 0.68892 0.0
N670 N 0.18774 0.02977 0.69057 0.0
N671 N 0.3726 0.22986 0.67633 0.0
C672 C 0.2332 0.07755 0.68044 0.0
C673 C 0.32769 0.17997 0.67159 0.0
N674 N 0.18158 0.11623 0.6472 0.0
N675 N 0.38126 0.13697 0.67846 0.0
H676 H 0.37315 0.2661 0.67268 0.0
H677 H 0.4095 0.23611 0.68885 0.0
H678 H 0.38767 0.10509 0.68521 0.0
H679 H 0.41611 0.17093 0.66653 0.0
H680 H 0.14694 0.07886 0.64258 0.0
H681 H 0.17767 0.14825 0.63419 0.0
H682 H 0.14918 0.02466 0.69051 0.0
H683 H 0.18886 0.99613 0.70322 0.0
C684 C 0.19767 0.3374 0.02885 0.0
C685 C 0.19578 0.28833 0.04117 0.0
C686 C 0.09933 0.23837 1.01937 0.0
C687 C 0.10026 0.28781 1.01141 0.0
N688 N 0.14873 0.38524 1.02155 0.0
N689 N 0.14273 0.19245 0.05468 0.0
C690 C 0.14884 0.33756 1.02027 0.0
C691 C 0.14593 0.23892 0.03821 0.0
N692 N 0.2461 0.38366 1.02272 0.0
N693 N 0.0545 0.19069 1.00717 0.0
H694 H 0.17552 0.19119 0.06945 0.0
H695 H 0.10661 0.1563 0.05859 0.0
H696 H 0.01983 0.18841 0.99276 0.0
H697 H 0.05333 0.15378 1.00666 0.0
H698 H 0.25023 0.42017 1.01166 0.0
H699 H 0.28304 0.38523 1.02326 0.0
H700 H 0.18215 0.42221 0.03034 0.0
H701 H 0.11441 0.38835 1.01864 0.0
C702 C 0.9047 0.14643 0.36929 0.0
C703 C 0.90404 0.19573 0.37233 0.0
C704 C 0.8076 0.14645 0.3507 0.0
C705 C 0.80955 0.0981 0.34303 0.0
N706 N 0.86243 0.0542 0.3394 0.0
N707 N 0.85679 0.24392 0.35423 0.0
C708 C 0.85882 0.09875 0.351 0.0
C709 C 0.85609 0.1961 0.35963 0.0
N710 N 0.94885 0.14474 0.38529 0.0
N711 N 0.75929 0.14518 0.35146 0.0
H712 H 0.89102 0.28157 0.35772 0.0
H713 H 0.8244 0.247 0.34136 0.0
H714 H 0.72218 0.11026 0.34853 0.0
H715 H 0.75497 0.17812 0.36044 0.0
H716 H 0.94983 0.10916 0.38968 0.0
H717 H 0.98308 0.17858 0.39859 0.0
H718 H 0.89852 0.05384 0.3389 0.0
H719 H 0.83014 0.01883 0.32555 0.0
C720 C 0.75691 0.85915 0.67322 0.0
C721 C 0.70685 0.80995 0.67237 0.0
C722 C 0.66078 0.85978 0.69514 0.0
C723 C 0.71145 0.90799 0.70136 0.0
N724 N 0.80836 0.95135 0.7025 0.0
N725 N 0.61252 0.76218 0.6945 0.0
C726 C 0.75967 0.90702 0.69191 0.0
C727 C 0.65918 0.80986 0.6869 0.0
N728 N 0.80183 0.86054 0.65483 0.0
N729 N 0.61397 0.86147 0.69533 0.0
H730 H 0.60971 0.72462 0.69289 0.0
H731 H 0.57715 0.75941 0.70737 0.0
H732 H 0.61237 0.89685 0.6966 0.0
H733 H 0.57615 0.82816 0.68893 0.0
H734 H 0.83808 0.89609 0.64912 0.0
H735 H 0.80143 0.82654 0.64074 0.0
H736 H 0.84461 0.95129 0.70163 0.0
H737 H 0.81221 0.98677 0.71709 0.0
C738 C 0.81869 0.67139 0.02514 0.0
C739 C 0.81999 0.7212 0.03421 0.0
C740 C 0.91429 0.76968 1.00595 0.0
C741 C 0.91474 0.72033 1.0031 0.0
N742 N 0.86938 0.62487 1.02147 0.0
N743 N 0.87188 0.81831 0.03812 0.0
C744 C 0.86753 0.67137 1.01586 0.0
C745 C 0.86861 0.77049 0.02571 0.0
N746 N 0.7709 0.62374 0.02403 0.0
N747 N 0.95713 0.8158 0.98841 0.0
H748 H 0.83979 0.82073 0.05317 0.0
H749 H 0.90775 0.85512 0.03805 0.0
H750 H 0.99077 0.81663 0.97305 0.0
H751 H 0.95706 0.8519 0.98445 0.0
H752 H 0.76726 0.58696 1.01419 0.0
H753 H 0.73355 0.62045 0.02837 0.0
H754 H 0.83715 0.58869 0.0334 0.0
H755 H 0.90431 0.62263 1.01934 0.0
C756 C 0.35427 0.95779 0.49352 0.0
C757 C 0.3864 0.01108 0.47449 0.0
C758 C 0.42819 0.04056 0.55502 0.0
C759 C 0.39106 0.98859 0.57347 0.0
N760 N 0.35073 0.89484 0.55376 0.0
N761 N 0.46786 0.09715 0.4839 0.0
C762 C 0.36523 0.94602 0.54035 0.0
C763 C 0.42796 0.05094 0.50422 0.0
N764 N 0.30978 0.91962 0.46956 0.0
N765 N 0.46407 0.07911 0.58591 0.0
H766 H 0.47076 0.10385 0.44666 0.0
H767 H 0.50089 0.12656 0.50295 0.0
H768 H 0.47018 0.06962 0.6209 0.0
H769 H 0.48824 0.11952 0.57686 0.0
H770 H 0.28863 0.87935 0.47978 0.0
H771 H 0.289 0.92981 0.44484 0.0
H772 H 0.33567 0.86288 0.5291 0.0
H773 H 0.36081 0.88657 0.58773 0.0
C774 C 0.39078 0.37099 0.87781 0.0
C775 C 0.35658 0.32185 0.90235 0.0
C776 C 0.29324 0.29386 0.83422 0.0
C777 C 0.33012 0.33898 0.80688 0.0
N778 N 0.41572 0.42048 0.80172 0.0
N779 N 0.28208 0.23063 0.89732 0.0
C780 C 0.37969 0.37748 0.82839 0.0
C781 C 0.31053 0.28113 0.87801 0.0
N782 N 0.43325 0.41169 0.90208 0.0
N783 N 0.24131 0.26312 0.81849 0.0
H784 H 0.29339 0.21961 0.92917 0.0
H785 H 0.25013 0.19844 0.87941 0.0
H786 H 0.22697 0.27216 0.7873 0.0
H787 H 0.21178 0.23066 0.83783 0.0
H788 H 0.45626 0.45056 0.88846 0.0
H789 H 0.44401 0.40682 0.93703 0.0
H790 H 0.45506 0.44686 0.81286 0.0
H791 H 0.40613 0.42858 0.76749 0.0
C792 C 0.019 0.3221 0.21243 0.0
C793 C 0.02208 0.36663 0.23775 0.0
C794 C 0.99834 0.39603 0.16293 0.0
C795 C 0.98873 0.34786 0.13952 0.0
N796 N 0.97888 0.25946 0.14512 0.0
N797 N 0.00732 0.44226 0.23932 0.0
C798 C 0.99494 0.30878 0.16559 0.0
C799 C 0.00951 0.40256 0.21366 0.0
N800 N 0.03829 0.29202 0.23359 0.0
N801 N 0.99804 0.43602 0.13657 0.0
H802 H 0.01787 0.44969 0.2759 0.0
H803 H 0.99196 0.46535 0.22489 0.0
H804 H 0.98752 0.43153 0.09994 0.0
H805 H 0.01175 0.47456 0.15046 0.0
H806 H 0.03572 0.25768 0.21822 0.0
H807 H 0.05847 0.30201 0.26667 0.0
H808 H 0.979 0.22778 0.16328 0.0
H809 H 0.96015 0.24822 0.11136 0.0
C810 C 0.60161 0.99917 0.49747 0.0
C811 C 0.63802 0.98658 0.4739 0.0
C812 C 0.69578 0.01631 0.54625 0.0
C813 C 0.65655 0.02301 0.57184 0.0
N814 N 0.56914 0.0154 0.57373 0.0
N815 N 0.71476 0.97398 0.47823 0.0
C816 C 0.60843 0.01273 0.54799 0.0
C817 C 0.68297 0.99132 0.49957 0.0
N818 N 0.56108 0.99897 0.47139 0.0
N819 N 0.74481 0.03272 0.56715 0.0
H820 H 0.70503 0.95293 0.44551 0.0
H821 H 0.74985 0.97821 0.49312 0.0
H822 H 0.75617 0.05254 0.60044 0.0
H823 H 0.77633 0.03121 0.55019 0.0
H824 H 0.53662 0.01326 0.48489 0.0
H825 H 0.55383 0.98687 0.43513 0.0
H826 H 0.53085 0.00296 0.56001 0.0
H827 H 0.57425 0.02777 0.60993 0.0
C828 C 0.61627 0.60706 0.88256 0.0
C829 C 0.65053 0.65787 0.90474 0.0
C830 C 0.7057 0.68778 0.83098 0.0
C831 C 0.66748 0.6402 0.80677 0.0
N832 N 0.58582 0.55445 0.80802 0.0
N833 N 0.72407 0.74933 0.89853 0.0
C834 C 0.62255 0.5997 0.83223 0.0
C835 C 0.69387 0.69925 0.87823 0.0
N836 N 0.57852 0.5657 0.90989 0.0
N837 N 0.75262 0.72272 0.80797 0.0
H838 H 0.71618 0.75954 0.9326 0.0
H839 H 0.75451 0.7823 0.88055 0.0
H840 H 0.76305 0.71464 0.77407 0.0
H841 H 0.78325 0.75794 0.82326 0.0
H842 H 0.55638 0.52605 0.89753 0.0
H843 H 0.57126 0.57069 0.94609 0.0
H844 H 0.54886 0.5261 0.8225 0.0
H845 H 0.59219 0.54633 0.77249 0.0
C846 C 0.00866 0.62591 0.21611 0.0
C847 C 0.99738 0.66425 0.23765 0.0
C848 C 0.03422 0.72125 0.16583 0.0
C849 C 0.03749 0.67957 0.14116 0.0
N850 N 0.02192 0.5889 0.1414 0.0
N851 N 0.98683 0.74207 0.2271 0.0
C852 C 0.02306 0.63087 0.16596 0.0
C853 C 0.00573 0.70963 0.21041 0.0
N854 N 0.00586 0.585 0.2434 0.0
N855 N 0.05724 0.77174 0.14637 0.0
H856 H 0.96557 0.73502 0.25941 0.0
H857 H 0.98941 0.77417 0.2074 0.0
H858 H 0.07848 0.7819 0.11387 0.0
H859 H 0.05924 0.80461 0.16462 0.0
H860 H 0.01975 0.5597 0.23116 0.0
H861 H 0.99279 0.5787 0.27934 0.0
H862 H 0.00478 0.55029 0.1558 0.0
H863 H 0.0352 0.59225 0.10566 0.0
loop_
_geom_bond_atom_site_label_1
_geom_bond_atom_site_label_2
_geom_bond_distance
_geom_bond_site_symmetry_2
_ccdc_geom_bond_type
Mn0 O5 2.095 . S
Mn0 O15 2.162 . S
Mn0 O16 2.297 1_545 S
Mn0 O24 2.385 1_545 S
Mn0 O25 2.209 1_545 S
Mn0 O26 2.094 . S
Mn1 O6 2.121 . S
Mn1 N8 2.257 . S
Mn1 N17 2.282 . S
Mn1 O25 2.215 . S
Mn1 O27 2.117 1_565 S
C2 O24 1.234 . S
C2 O25 1.283 . S
C3 O15 1.281 . S
C3 O16 1.236 1_545 S
C4 O26 1.240 . S
C4 O27 1.264 . S
O5 Mn0 2.095 . S
O5 C14 1.250 . S
O6 Mn1 2.121 . S
O6 C14 1.258 1_565 S
C7 N8 1.326 . S
C7 C11 1.460 . S
C7 H13 0.929 . S
N8 Mn1 2.257 . S
N8 C7 1.326 . S
N8 C12 1.362 . S
C9 C10 1.258 . S
C9 C12 1.431 . S
C9 C29 1.449 . S
C10 C9 1.258 . S
C10 C11 1.477 . S
C10 H30 0.931 . S
C11 C7 1.460 . S
C11 C10 1.477 . S
C11 H31 0.930 . S
C12 N8 1.362 . S
C12 C9 1.431 . S
C12 C22 1.476 . S
H13 C7 0.929 . S
C14 O5 1.250 . S
C14 O6 1.258 1_545 S
O15 Mn0 2.162 . S
O15 C3 1.281 . S
O16 Mn0 2.297 1_565 S
O16 C3 1.236 1_565 S
N17 Mn1 2.282 . S
N17 C18 1.328 . S
N17 C22 1.318 . S
C18 N17 1.328 . S
C18 C19 1.457 . S
C18 H23 0.929 . S
C19 C18 1.457 . S
C19 C20 1.291 . S
C19 H32 0.931 . S
C20 C19 1.291 . S
C20 C21 1.373 . S
C20 H33 0.929 . S
C21 C20 1.373 . S
C21 C22 1.396 . S
C21 C28 1.403 . S
C22 C12 1.476 . S
C22 N17 1.318 . S
C22 C21 1.396 . S
H23 C18 0.929 . S
O24 Mn0 2.385 1_565 S
O24 C2 1.234 . S
O25 Mn0 2.209 1_565 S
O25 Mn1 2.215 . S
O25 C2 1.283 . S
O26 Mn0 2.094 . S
O26 C4 1.240 . S
O27 Mn1 2.117 1_545 S
O27 C4 1.264 . S
C28 C21 1.403 . S
C28 C29 1.399 . S
C28 H34 0.929 . S
C29 C9 1.449 . S
C29 C28 1.399 . S
C29 H35 0.930 . S
H30 C10 0.931 . S
H31 C11 0.930 . S
H32 C19 0.931 . S
H33 C20 0.929 . S
H34 C28 0.929 . S
H35 C29 0.930 . S
Mn36 O41 2.095 . S
Mn36 O51 2.162 . S
Mn36 O52 2.297 . S
Mn36 O60 2.385 . S
Mn36 O61 2.209 . S
Mn36 O62 2.094 . S
Mn37 O42 2.121 . S
Mn37 N44 2.257 . S
Mn37 N53 2.282 . S
Mn37 O61 2.215 . S
Mn37 O63 2.117 . S
C38 O60 1.234 . S
C38 O61 1.283 . S
C39 O51 1.281 . S
C39 O52 1.236 . S
C40 O62 1.240 . S
C40 O63 1.264 . S
O41 Mn36 2.095 . S
O41 C50 1.250 . S
O42 Mn37 2.121 . S
O42 C50 1.258 . S
C43 N44 1.326 . S
C43 C47 1.460 . S
C43 H49 0.929 . S
N44 Mn37 2.257 . S
N44 C43 1.326 . S
N44 C48 1.362 . S
C45 C46 1.258 . S
C45 C48 1.431 . S
C45 C65 1.449 . S
C46 C45 1.258 . S
C46 C47 1.477 . S
C46 H66 0.931 . S
C47 C43 1.460 . S
C47 C46 1.477 . S
C47 H67 0.930 . S
C48 N44 1.362 . S
C48 C45 1.431 . S
C48 C58 1.476 . S
H49 C43 0.929 . S
C50 O41 1.250 . S
C50 O42 1.258 . S
O51 Mn36 2.162 . S
O51 C39 1.281 . S
O52 Mn36 2.297 . S
O52 C39 1.236 . S
N53 Mn37 2.282 . S
N53 C54 1.328 . S
N53 C58 1.318 . S
C54 N53 1.328 . S
C54 C55 1.457 . S
C54 H59 0.929 . S
C55 C54 1.457 . S
C55 C56 1.291 . S
C55 H68 0.931 . S
C56 C55 1.291 . S
C56 C57 1.373 . S
C56 H69 0.929 . S
C57 C56 1.373 . S
C57 C58 1.396 . S
C57 C64 1.403 . S
C58 C48 1.476 . S
C58 N53 1.318 . S
C58 C57 1.396 . S
H59 C54 0.929 . S
O60 Mn36 2.385 . S
O60 C38 1.234 . S
O61 Mn36 2.209 . S
O61 Mn37 2.215 . S
O61 C38 1.283 . S
O62 Mn36 2.094 . S
O62 C40 1.240 . S
O63 Mn37 2.117 . S
O63 C40 1.264 . S
C64 C57 1.403 . S
C64 C65 1.399 . S
C64 H70 0.929 . S
C65 C45 1.449 . S
C65 C64 1.399 . S
C65 H71 0.930 . S
H66 C46 0.931 . S
H67 C47 0.930 . S
H68 C55 0.931 . S
H69 C56 0.929 . S
H70 C64 0.929 . S
H71 C65 0.930 . S
Mn72 O77 2.095 . S
Mn72 O87 2.162 1_556 S
Mn72 O88 2.297 1_656 S
Mn72 O96 2.385 1_655 S
Mn72 O97 2.209 1_655 S
Mn72 O98 2.094 . S
Mn73 O78 2.121 . S
Mn73 N80 2.257 . S
Mn73 N89 2.282 . S
Mn73 O97 2.215 . S
Mn73 O99 2.117 1_455 S
C74 O96 1.234 . S
C74 O97 1.283 . S
C75 O87 1.281 . S
C75 O88 1.236 1_655 S
C76 O98 1.240 . S
C76 O99 1.264 . S
O77 Mn72 2.095 . S
O77 C86 1.250 . S
O78 Mn73 2.121 . S
O78 C86 1.258 1_455 S
C79 N80 1.326 . S
C79 C83 1.460 . S
C79 H85 0.929 . S
N80 Mn73 2.257 . S
N80 C79 1.326 . S
N80 C84 1.362 . S
C81 C82 1.258 . S
C81 C84 1.431 . S
C81 C101 1.449 . S
C82 C81 1.258 . S
C82 C83 1.477 . S
C82 H102 0.931 . S
C83 C79 1.460 . S
C83 C82 1.477 . S
C83 H103 0.930 . S
C84 N80 1.362 . S
C84 C81 1.431 . S
C84 C94 1.476 . S
H85 C79 0.929 . S
C86 O77 1.250 . S
C86 O78 1.258 1_655 S
O87 Mn72 2.162 1_554 S
O87 C75 1.281 . S
O88 Mn72 2.297 1_454 S
O88 C75 1.236 1_455 S
N89 Mn73 2.282 . S
N89 C90 1.328 . S
N89 C94 1.318 . S
C90 N89 1.328 . S
C90 C91 1.457 . S
C90 H95 0.929 . S
C91 C90 1.457 . S
C91 C92 1.291 . S
C91 H104 0.931 . S
C92 C91 1.291 . S
C92 C93 1.373 . S
C92 H105 0.929 . S
C93 C92 1.373 . S
C93 C94 1.396 . S
C93 C100 1.403 . S
C94 C84 1.476 . S
C94 N89 1.318 . S
C94 C93 1.396 . S
H95 C90 0.929 . S
O96 Mn72 2.385 1_455 S
O96 C74 1.234 . S
O97 Mn72 2.209 1_455 S
O97 Mn73 2.215 . S
O97 C74 1.283 . S
O98 Mn72 2.094 . S
O98 C76 1.240 . S
O99 Mn73 2.117 1_655 S
O99 C76 1.264 . S
C100 C93 1.403 . S
C100 C101 1.399 . S
C100 H106 0.929 . S
C101 C81 1.449 . S
C101 C100 1.399 . S
C101 H107 0.930 . S
H102 C82 0.931 . S
H103 C83 0.930 . S
H104 C91 0.931 . S
H105 C92 0.929 . S
H106 C100 0.929 . S
H107 C101 0.930 . S
Mn108 O113 2.095 . S
Mn108 O123 2.162 . S
Mn108 O124 2.297 1_565 S
Mn108 O132 2.385 1_565 S
Mn108 O133 2.209 1_565 S
Mn108 O134 2.094 . S
Mn109 O114 2.121 . S
Mn109 N116 2.257 . S
Mn109 N125 2.282 . S
Mn109 O133 2.215 . S
Mn109 O135 2.117 1_545 S
C110 O132 1.234 . S
C110 O133 1.283 . S
C111 O123 1.281 . S
C111 O124 1.236 1_565 S
C112 O134 1.240 . S
C112 O135 1.264 . S
O113 Mn108 2.095 . S
O113 C122 1.250 . S
O114 Mn109 2.121 . S
O114 C122 1.258 1_545 S
C115 N116 1.326 . S
C115 C119 1.460 . S
C115 H121 0.929 . S
N116 Mn109 2.257 . S
N116 C115 1.326 . S
N116 C120 1.362 . S
C117 C118 1.258 . S
C117 C120 1.431 . S
C117 C137 1.449 . S
C118 C117 1.258 . S
C118 C119 1.477 . S
C118 H138 0.931 . S
C119 C115 1.460 . S
C119 C118 1.477 . S
C119 H139 0.930 . S
C120 N116 1.362 . S
C120 C117 1.431 . S
C120 C130 1.476 . S
H121 C115 0.929 . S
C122 O113 1.250 . S
C122 O114 1.258 1_565 S
O123 Mn108 2.162 . S
O123 C111 1.281 . S
O124 Mn108 2.297 1_545 S
O124 C111 1.236 1_545 S
N125 Mn109 2.282 . S
N125 C126 1.328 . S
N125 C130 1.318 . S
C126 N125 1.328 . S
C126 C127 1.457 . S
C126 H131 0.929 . S
C127 C126 1.457 . S
C127 C128 1.291 . S
C127 H140 0.931 . S
C128 C127 1.291 . S
C128 C129 1.373 . S
C128 H141 0.929 . S
C129 C128 1.373 . S
C129 C130 1.396 . S
C129 C136 1.403 . S
C130 C120 1.476 . S
C130 N125 1.318 . S
C130 C129 1.396 . S
H131 C126 0.929 . S
O132 Mn108 2.385 1_545 S
O132 C110 1.234 . S
O133 Mn108 2.209 1_545 S
O133 Mn109 2.215 . S
O133 C110 1.283 . S
O134 Mn108 2.094 . S
O134 C112 1.240 . S
O135 Mn109 2.117 1_565 S
O135 C112 1.264 . S
C136 C129 1.403 . S
C136 C137 1.399 . S
C136 H142 0.929 . S
C137 C117 1.449 . S
C137 C136 1.399 . S
C137 H143 0.930 . S
H138 C118 0.931 . S
H139 C119 0.930 . S
H140 C127 0.931 . S
H141 C128 0.929 . S
H142 C136 0.929 . S
H143 C137 0.930 . S
Mn144 O149 2.095 . S
Mn144 O159 2.162 . S
Mn144 O160 2.297 . S
Mn144 O168 2.385 . S
Mn144 O169 2.209 . S
Mn144 O170 2.094 . S
Mn145 O150 2.121 . S
Mn145 N152 2.257 . S
Mn145 N161 2.282 . S
Mn145 O169 2.215 . S
Mn145 O171 2.117 . S
C146 O168 1.234 . S
C146 O169 1.283 . S
C147 O159 1.281 . S
C147 O160 1.236 . S
C148 O170 1.240 . S
C148 O171 1.264 . S
O149 Mn144 2.095 . S
O149 C158 1.250 . S
O150 Mn145 2.121 . S
O150 C158 1.258 . S
C151 N152 1.326 . S
C151 C155 1.460 . S
C151 H157 0.929 . S
N152 Mn145 2.257 . S
N152 C151 1.326 . S
N152 C156 1.362 . S
C153 C154 1.258 . S
C153 C156 1.431 . S
C153 C173 1.449 . S
C154 C153 1.258 . S
C154 C155 1.477 . S
C154 H174 0.931 . S
C155 C151 1.460 . S
C155 C154 1.477 . S
C155 H175 0.930 . S
C156 N152 1.362 . S
C156 C153 1.431 . S
C156 C166 1.476 . S
H157 C151 0.929 . S
C158 O149 1.250 . S
C158 O150 1.258 . S
O159 Mn144 2.162 . S
O159 C147 1.281 . S
O160 Mn144 2.297 . S
O160 C147 1.236 . S
N161 Mn145 2.282 . S
N161 C162 1.328 . S
N161 C166 1.318 . S
C162 N161 1.328 . S
C162 C163 1.457 . S
C162 H167 0.929 . S
C163 C162 1.457 . S
C163 C164 1.291 . S
C163 H176 0.931 . S
C164 C163 1.291 . S
C164 C165 1.373 . S
C164 H177 0.929 . S
C165 C164 1.373 . S
C165 C166 1.396 . S
C165 C172 1.403 . S
C166 C156 1.476 . S
C166 N161 1.318 . S
C166 C165 1.396 . S
H167 C162 0.929 . S
O168 Mn144 2.385 . S
O168 C146 1.234 . S
O169 Mn144 2.209 . S
O169 Mn145 2.215 . S
O169 C146 1.283 . S
O170 Mn144 2.094 . S
O170 C148 1.240 . S
O171 Mn145 2.117 . S
O171 C148 1.264 . S
C172 C165 1.403 . S
C172 C173 1.399 . S
C172 H178 0.929 . S
C173 C153 1.449 . S
C173 C172 1.399 . S
C173 H179 0.930 . S
H174 C154 0.931 . S
H175 C155 0.930 . S
H176 C163 0.931 . S
H177 C164 0.929 . S
H178 C172 0.929 . S
H179 C173 0.930 . S
Mn180 O185 2.095 . S
Mn180 O195 2.162 1_556 S
Mn180 O196 2.297 1_456 S
Mn180 O204 2.385 1_455 S
Mn180 O205 2.209 1_455 S
Mn180 O206 2.094 . S
Mn181 O186 2.121 . S
Mn181 N188 2.257 . S
Mn181 N197 2.282 . S
Mn181 O205 2.215 . S
Mn181 O207 2.117 1_655 S
C182 O204 1.234 . S
C182 O205 1.283 . S
C183 O195 1.281 . S
C183 O196 1.236 1_455 S
C184 O206 1.240 . S
C184 O207 1.264 . S
O185 Mn180 2.095 . S
O185 C194 1.250 . S
O186 Mn181 2.121 . S
O186 C194 1.258 1_655 S
C187 N188 1.326 . S
C187 C191 1.460 . S
C187 H193 0.929 . S
N188 Mn181 2.257 . S
N188 C187 1.326 . S
N188 C192 1.362 . S
C189 C190 1.258 . S
C189 C192 1.431 . S
C189 C209 1.449 . S
C190 C189 1.258 . S
C190 C191 1.477 . S
C190 H210 0.931 . S
C191 C187 1.460 . S
C191 C190 1.477 . S
C191 H211 0.930 . S
C192 N188 1.362 . S
C192 C189 1.431 . S
C192 C202 1.476 . S
H193 C187 0.929 . S
C194 O185 1.250 . S
C194 O186 1.258 1_455 S
O195 Mn180 2.162 1_554 S
O195 C183 1.281 . S
O196 Mn180 2.297 1_654 S
O196 C183 1.236 1_655 S
N197 Mn181 2.282 . S
N197 C198 1.328 . S
N197 C202 1.318 . S
C198 N197 1.328 . S
C198 C199 1.457 . S
C198 H203 0.929 . S
C199 C198 1.457 . S
C199 C200 1.291 . S
C199 H212 0.931 . S
C200 C199 1.291 . S
C200 C201 1.373 . S
C200 H213 0.929 . S
C201 C200 1.373 . S
C201 C202 1.396 . S
C201 C208 1.403 . S
C202 C192 1.476 . S
C202 N197 1.318 . S
C202 C201 1.396 . S
H203 C198 0.929 . S
O204 Mn180 2.385 1_655 S
O204 C182 1.234 . S
O205 Mn180 2.209 1_655 S
O205 Mn181 2.215 . S
O205 C182 1.283 . S
O206 Mn180 2.094 . S
O206 C184 1.240 . S
O207 Mn181 2.117 1_455 S
O207 C184 1.264 . S
C208 C201 1.403 . S
C208 C209 1.399 . S
C208 H214 0.929 . S
C209 C189 1.449 . S
C209 C208 1.399 . S
C209 H215 0.930 . S
H210 C190 0.931 . S
H211 C191 0.930 . S
H212 C199 0.931 . S
H213 C200 0.929 . S
H214 C208 0.929 . S
H215 C209 0.930 . S
Mn216 O221 2.095 . S
Mn216 O231 2.162 . S
Mn216 O232 2.297 1_655 S
Mn216 O240 2.385 1_655 S
Mn216 O241 2.209 1_655 S
Mn216 O242 2.094 . S
Mn217 O222 2.121 . S
Mn217 N224 2.257 . S
Mn217 N233 2.282 . S
Mn217 O241 2.215 . S
Mn217 O243 2.117 1_455 S
C218 O240 1.234 . S
C218 O241 1.283 . S
C219 O231 1.281 . S
C219 O232 1.236 1_655 S
C220 O242 1.240 . S
C220 O243 1.264 . S
O221 Mn216 2.095 . S
O221 C230 1.250 . S
O222 Mn217 2.121 . S
O222 C230 1.258 1_455 S
C223 N224 1.326 . S
C223 C227 1.460 . S
C223 H229 0.929 . S
N224 Mn217 2.257 . S
N224 C223 1.326 . S
N224 C228 1.362 . S
C225 C226 1.258 . S
C225 C228 1.431 . S
C225 C245 1.449 . S
C226 C225 1.258 . S
C226 C227 1.477 . S
C226 H246 0.931 . S
C227 C223 1.460 . S
C227 C226 1.477 . S
C227 H247 0.930 . S
C228 N224 1.362 . S
C228 C225 1.431 . S
C228 C238 1.476 . S
H229 C223 0.929 . S
C230 O221 1.250 . S
C230 O222 1.258 1_655 S
O231 Mn216 2.162 . S
O231 C219 1.281 . S
O232 Mn216 2.297 1_455 S
O232 C219 1.236 1_455 S
N233 Mn217 2.282 . S
N233 C234 1.328 . S
N233 C238 1.318 . S
C234 N233 1.328 . S
C234 C235 1.457 . S
C234 H239 0.929 . S
C235 C234 1.457 . S
C235 C236 1.291 . S
C235 H248 0.931 . S
C236 C235 1.291 . S
C236 C237 1.373 . S
C236 H249 0.929 . S
C237 C236 1.373 . S
C237 C238 1.396 . S
C237 C244 1.403 . S
C238 C228 1.476 . S
C238 N233 1.318 . S
C238 C237 1.396 . S
H239 C234 0.929 . S
O240 Mn216 2.385 1_455 S
O240 C218 1.234 . S
O241 Mn216 2.209 1_455 S
O241 Mn217 2.215 . S
O241 C218 1.283 . S
O242 Mn216 2.094 . S
O242 C220 1.240 . S
O243 Mn217 2.117 1_655 S
O243 C220 1.264 . S
C244 C237 1.403 . S
C244 C245 1.399 . S
C244 H250 0.929 . S
C245 C225 1.449 . S
C245 C244 1.399 . S
C245 H251 0.930 . S
H246 C226 0.931 . S
H247 C227 0.930 . S
H248 C235 0.931 . S
H249 C236 0.929 . S
H250 C244 0.929 . S
H251 C245 0.930 . S
Mn252 O257 2.095 . S
Mn252 O267 2.162 . S
Mn252 O268 2.297 1_565 S
Mn252 O276 2.385 1_565 S
Mn252 O277 2.209 1_565 S
Mn252 O278 2.094 . S
Mn253 O258 2.121 . S
Mn253 N260 2.257 . S
Mn253 N269 2.282 . S
Mn253 O277 2.215 . S
Mn253 O279 2.117 1_545 S
C254 O276 1.234 . S
C254 O277 1.283 . S
C255 O267 1.281 . S
C255 O268 1.236 1_565 S
C256 O278 1.240 . S
C256 O279 1.264 . S
O257 Mn252 2.095 . S
O257 C266 1.250 . S
O258 Mn253 2.121 . S
O258 C266 1.258 1_545 S
C259 N260 1.326 . S
C259 C263 1.460 . S
C259 H265 0.929 . S
N260 Mn253 2.257 . S
N260 C259 1.326 . S
N260 C264 1.362 . S
C261 C262 1.258 . S
C261 C264 1.431 . S
C261 C281 1.449 . S
C262 C261 1.258 . S
C262 C263 1.477 . S
C262 H282 0.931 . S
C263 C259 1.460 . S
C263 C262 1.477 . S
C263 H283 0.930 . S
C264 N260 1.362 . S
C264 C261 1.431 . S
C264 C274 1.476 . S
H265 C259 0.929 . S
C266 O257 1.250 . S
C266 O258 1.258 1_565 S
O267 Mn252 2.162 . S
O267 C255 1.281 . S
O268 Mn252 2.297 1_545 S
O268 C255 1.236 1_545 S
N269 Mn253 2.282 . S
N269 C270 1.328 . S
N269 C274 1.318 . S
C270 N269 1.328 . S
C270 C271 1.457 . S
C270 H275 0.929 . S
C271 C270 1.457 . S
C271 C272 1.291 . S
C271 H284 0.931 . S
C272 C271 1.291 . S
C272 C273 1.373 . S
C272 H285 0.929 . S
C273 C272 1.373 . S
C273 C274 1.396 . S
C273 C280 1.403 . S
C274 C264 1.476 . S
C274 N269 1.318 . S
C274 C273 1.396 . S
H275 C270 0.929 . S
O276 Mn252 2.385 1_545 S
O276 C254 1.234 . S
O277 Mn252 2.209 1_545 S
O277 Mn253 2.215 . S
O277 C254 1.283 . S
O278 Mn252 2.094 . S
O278 C256 1.240 . S
O279 Mn253 2.117 1_565 S
O279 C256 1.264 . S
C280 C273 1.403 . S
C280 C281 1.399 . S
C280 H286 0.929 . S
C281 C261 1.449 . S
C281 C280 1.399 . S
C281 H287 0.930 . S
H282 C262 0.931 . S
H283 C263 0.930 . S
H284 C271 0.931 . S
H285 C272 0.929 . S
H286 C280 0.929 . S
H287 C281 0.930 . S
Mn288 O293 2.095 . S
Mn288 O303 2.162 1_554 S
Mn288 O304 2.297 1_554 S
Mn288 O312 2.385 . S
Mn288 O313 2.209 . S
Mn288 O314 2.094 . S
Mn289 O294 2.121 . S
Mn289 N296 2.257 . S
Mn289 N305 2.282 . S
Mn289 O313 2.215 . S
Mn289 O315 2.117 . S
C290 O312 1.234 . S
C290 O313 1.283 . S
C291 O303 1.281 . S
C291 O304 1.236 . S
C292 O314 1.240 . S
C292 O315 1.264 . S
O293 Mn288 2.095 . S
O293 C302 1.250 . S
O294 Mn289 2.121 . S
O294 C302 1.258 . S
C295 N296 1.326 . S
C295 C299 1.460 . S
C295 H301 0.929 . S
N296 Mn289 2.257 . S
N296 C295 1.326 . S
N296 C300 1.362 . S
C297 C298 1.258 . S
C297 C300 1.431 . S
C297 C317 1.449 . S
C298 C297 1.258 . S
C298 C299 1.477 . S
C298 H318 0.931 . S
C299 C295 1.460 . S
C299 C298 1.477 . S
C299 H319 0.930 . S
C300 N296 1.362 . S
C300 C297 1.431 . S
C300 C310 1.476 . S
H301 C295 0.929 . S
C302 O293 1.250 . S
C302 O294 1.258 . S
O303 Mn288 2.162 1_556 S
O303 C291 1.281 . S
O304 Mn288 2.297 1_556 S
O304 C291 1.236 . S
N305 Mn289 2.282 . S
N305 C306 1.328 . S
N305 C310 1.318 . S
C306 N305 1.328 . S
C306 C307 1.457 . S
C306 H311 0.929 . S
C307 C306 1.457 . S
C307 C308 1.291 . S
C307 H320 0.931 . S
C308 C307 1.291 . S
C308 C309 1.373 . S
C308 H321 0.929 . S
C309 C308 1.373 . S
C309 C310 1.396 . S
C309 C316 1.403 . S
C310 C300 1.476 . S
C310 N305 1.318 . S
C310 C309 1.396 . S
H311 C306 0.929 . S
O312 Mn288 2.385 . S
O312 C290 1.234 . S
O313 Mn288 2.209 . S
O313 Mn289 2.215 . S
O313 C290 1.283 . S
O314 Mn288 2.094 . S
O314 C292 1.240 . S
O315 Mn289 2.117 . S
O315 C292 1.264 . S
C316 C309 1.403 . S
C316 C317 1.399 . S
C316 H322 0.929 . S
C317 C297 1.449 . S
C317 C316 1.399 . S
C317 H323 0.930 . S
H318 C298 0.931 . S
H319 C299 0.930 . S
H320 C307 0.931 . S
H321 C308 0.929 . S
H322 C316 0.929 . S
H323 C317 0.930 . S
Mn324 O329 2.095 . S
Mn324 O339 2.162 . S
Mn324 O340 2.297 1_455 S
Mn324 O348 2.385 1_455 S
Mn324 O349 2.209 1_455 S
Mn324 O350 2.094 . S
Mn325 O330 2.121 . S
Mn325 N332 2.257 . S
Mn325 N341 2.282 . S
Mn325 O349 2.215 . S
Mn325 O351 2.117 1_655 S
C326 O348 1.234 . S
C326 O349 1.283 . S
C327 O339 1.281 . S
C327 O340 1.236 1_455 S
C328 O350 1.240 . S
C328 O351 1.264 . S
O329 Mn324 2.095 . S
O329 C338 1.250 . S
O330 Mn325 2.121 . S
O330 C338 1.258 1_655 S
C331 N332 1.326 . S
C331 C335 1.460 . S
C331 H337 0.929 . S
N332 Mn325 2.257 . S
N332 C331 1.326 . S
N332 C336 1.362 . S
C333 C334 1.258 . S
C333 C336 1.431 . S
C333 C353 1.449 . S
C334 C333 1.258 . S
C334 C335 1.477 . S
C334 H354 0.931 . S
C335 C331 1.460 . S
C335 C334 1.477 . S
C335 H355 0.930 . S
C336 N332 1.362 . S
C336 C333 1.431 . S
C336 C346 1.476 . S
H337 C331 0.929 . S
C338 O329 1.250 . S
C338 O330 1.258 1_455 S
O339 Mn324 2.162 . S
O339 C327 1.281 . S
O340 Mn324 2.297 1_655 S
O340 C327 1.236 1_655 S
N341 Mn325 2.282 . S
N341 C342 1.328 . S
N341 C346 1.318 . S
C342 N341 1.328 . S
C342 C343 1.457 . S
C342 H347 0.929 . S
C343 C342 1.457 . S
C343 C344 1.291 . S
C343 H356 0.931 . S
C344 C343 1.291 . S
C344 C345 1.373 . S
C344 H357 0.929 . S
C345 C344 1.373 . S
C345 C346 1.396 . S
C345 C352 1.403 . S
C346 C336 1.476 . S
C346 N341 1.318 . S
C346 C345 1.396 . S
H347 C342 0.929 . S
O348 Mn324 2.385 1_655 S
O348 C326 1.234 . S
O349 Mn324 2.209 1_655 S
O349 Mn325 2.215 . S
O349 C326 1.283 . S
O350 Mn324 2.094 . S
O350 C328 1.240 . S
O351 Mn325 2.117 1_455 S
O351 C328 1.264 . S
C352 C345 1.403 . S
C352 C353 1.399 . S
C352 H358 0.929 . S
C353 C333 1.449 . S
C353 C352 1.399 . S
C353 H359 0.930 . S
H354 C334 0.931 . S
H355 C335 0.930 . S
H356 C343 0.931 . S
H357 C344 0.929 . S
H358 C352 0.929 . S
H359 C353 0.930 . S
Mn360 O365 2.095 . S
Mn360 O375 2.162 . S
Mn360 O376 2.297 1_545 S
Mn360 O384 2.385 1_545 S
Mn360 O385 2.209 1_545 S
Mn360 O386 2.094 . S
Mn361 O366 2.121 . S
Mn361 N368 2.257 . S
Mn361 N377 2.282 . S
Mn361 O385 2.215 . S
Mn361 O387 2.117 1_565 S
C362 O384 1.234 . S
C362 O385 1.283 . S
C363 O375 1.281 . S
C363 O376 1.236 1_545 S
C364 O386 1.240 . S
C364 O387 1.264 . S
O365 Mn360 2.095 . S
O365 C374 1.250 . S
O366 Mn361 2.121 . S
O366 C374 1.258 1_565 S
C367 N368 1.326 . S
C367 C371 1.460 . S
C367 H373 0.929 . S
N368 Mn361 2.257 . S
N368 C367 1.326 . S
N368 C372 1.362 . S
C369 C370 1.258 . S
C369 C372 1.431 . S
C369 C389 1.449 . S
C370 C369 1.258 . S
C370 C371 1.477 . S
C370 H390 0.931 . S
C371 C367 1.460 . S
C371 C370 1.477 . S
C371 H391 0.930 . S
C372 N368 1.362 . S
C372 C369 1.431 . S
C372 C382 1.476 . S
H373 C367 0.929 . S
C374 O365 1.250 . S
C374 O366 1.258 1_545 S
O375 Mn360 2.162 . S
O375 C363 1.281 . S
O376 Mn360 2.297 1_565 S
O376 C363 1.236 1_565 S
N377 Mn361 2.282 . S
N377 C378 1.328 . S
N377 C382 1.318 . S
C378 N377 1.328 . S
C378 C379 1.457 . S
C378 H383 0.929 . S
C379 C378 1.457 . S
C379 C380 1.291 . S
C379 H392 0.931 . S
C380 C379 1.291 . S
C380 C381 1.373 . S
C380 H393 0.929 . S
C381 C380 1.373 . S
C381 C382 1.396 . S
C381 C388 1.403 . S
C382 C372 1.476 . S
C382 N377 1.318 . S
C382 C381 1.396 . S
H383 C378 0.929 . S
O384 Mn360 2.385 1_565 S
O384 C362 1.234 . S
O385 Mn360 2.209 1_565 S
O385 Mn361 2.215 . S
O385 C362 1.283 . S
O386 Mn360 2.094 . S
O386 C364 1.240 . S
O387 Mn361 2.117 1_545 S
O387 C364 1.264 . S
C388 C381 1.403 . S
C388 C389 1.399 . S
C388 H394 0.929 . S
C389 C369 1.449 . S
C389 C388 1.399 . S
C389 H395 0.930 . S
H390 C370 0.931 . S
H391 C371 0.930 . S
H392 C379 0.931 . S
H393 C380 0.929 . S
H394 C388 0.929 . S
H395 C389 0.930 . S
Mn396 O401 2.095 . S
Mn396 O411 2.162 1_554 S
Mn396 O412 2.297 1_554 S
Mn396 O420 2.385 . S
Mn396 O421 2.209 . S
Mn396 O422 2.094 . S
Mn397 O402 2.121 . S
Mn397 N404 2.257 . S
Mn397 N413 2.282 . S
Mn397 O421 2.215 . S
Mn397 O423 2.117 . S
C398 O420 1.234 . S
C398 O421 1.283 . S
C399 O411 1.281 . S
C399 O412 1.236 . S
C400 O422 1.240 . S
C400 O423 1.264 . S
O401 Mn396 2.095 . S
O401 C410 1.250 . S
O402 Mn397 2.121 . S
O402 C410 1.258 . S
C403 N404 1.326 . S
C403 C407 1.460 . S
C403 H409 0.929 . S
N404 Mn397 2.257 . S
N404 C403 1.326 . S
N404 C408 1.362 . S
C405 C406 1.258 . S
C405 C408 1.431 . S
C405 C425 1.449 . S
C406 C405 1.258 . S
C406 C407 1.477 . S
C406 H426 0.931 . S
C407 C403 1.460 . S
C407 C406 1.477 . S
C407 H427 0.930 . S
C408 N404 1.362 . S
C408 C405 1.431 . S
C408 C418 1.476 . S
H409 C403 0.929 . S
C410 O401 1.250 . S
C410 O402 1.258 . S
O411 Mn396 2.162 1_556 S
O411 C399 1.281 . S
O412 Mn396 2.297 1_556 S
O412 C399 1.236 . S
N413 Mn397 2.282 . S
N413 C414 1.328 . S
N413 C418 1.318 . S
C414 N413 1.328 . S
C414 C415 1.457 . S
C414 H419 0.929 . S
C415 C414 1.457 . S
C415 C416 1.291 . S
C415 H428 0.931 . S
C416 C415 1.291 . S
C416 C417 1.373 . S
C416 H429 0.929 . S
C417 C416 1.373 . S
C417 C418 1.396 . S
C417 C424 1.403 . S
C418 C408 1.476 . S
C418 N413 1.318 . S
C418 C417 1.396 . S
H419 C414 0.929 . S
O420 Mn396 2.385 . S
O420 C398 1.234 . S
O421 Mn396 2.209 . S
O421 Mn397 2.215 . S
O421 C398 1.283 . S
O422 Mn396 2.094 . S
O422 C400 1.240 . S
O423 Mn397 2.117 . S
O423 C400 1.264 . S
C424 C417 1.403 . S
C424 C425 1.399 . S
C424 H430 0.929 . S
C425 C405 1.449 . S
C425 C424 1.399 . S
C425 H431 0.930 . S
H426 C406 0.931 . S
H427 C407 0.930 . S
H428 C415 0.931 . S
H429 C416 0.929 . S
H430 C424 0.929 . S
H431 C425 0.930 . S
C432 C433 1.363 . S
C432 C438 1.379 . S
C432 N440 1.356 . S
C433 C432 1.363 . S
C433 C439 1.363 . S
C434 C435 1.363 . S
C434 C439 1.379 . S
C434 N441 1.356 . S
C435 C434 1.363 . S
C435 C438 1.363 . S
N436 C438 1.356 . S
N436 H448 0.984 . S
N436 H449 0.985 . S
N437 C439 1.356 . S
N437 H442 0.984 . S
N437 H443 0.985 . S
C438 C432 1.379 . S
C438 C435 1.363 . S
C438 N436 1.356 . S
C439 C433 1.363 . S
C439 C434 1.379 . S
C439 N437 1.356 . S
N440 C432 1.356 . S
N440 H446 0.984 . S
N440 H447 0.984 . S
N441 C434 1.356 . S
N441 H444 0.984 . S
N441 H445 0.985 . S
H442 N437 0.984 . S
H443 N437 0.985 . S
H444 N441 0.984 . S
H445 N441 0.985 . S
H446 N440 0.984 . S
H447 N440 0.984 . S
H448 N436 0.984 . S
H449 N436 0.985 . S
C450 C451 1.363 . S
C450 C456 1.379 . S
C450 N458 1.356 . S
C451 C450 1.363 . S
C451 C457 1.363 . S
C452 C453 1.363 . S
C452 C457 1.379 . S
C452 N459 1.356 . S
C453 C452 1.363 . S
C453 C456 1.363 . S
N454 C456 1.356 . S
N454 H466 0.984 . S
N454 H467 0.985 . S
N455 C457 1.356 . S
N455 H460 0.984 . S
N455 H461 0.985 . S
C456 C450 1.379 . S
C456 C453 1.363 . S
C456 N454 1.356 . S
C457 C451 1.363 . S
C457 C452 1.379 . S
C457 N455 1.356 . S
N458 C450 1.356 . S
N458 H464 0.984 . S
N458 H465 0.984 . S
N459 C452 1.356 . S
N459 H462 0.984 . S
N459 H463 0.985 . S
H460 N455 0.984 . S
H461 N455 0.985 . S
H462 N459 0.984 . S
H463 N459 0.985 . S
H464 N458 0.984 . S
H465 N458 0.984 . S
H466 N454 0.984 . S
H467 N454 0.985 . S
C468 C469 1.363 . S
C468 C474 1.379 . S
C468 N476 1.356 . S
C469 C468 1.363 . S
C469 C475 1.363 . S
C470 C471 1.363 . S
C470 C475 1.379 . S
C470 N477 1.356 . S
C471 C470 1.363 . S
C471 C474 1.363 . S
N472 C474 1.356 . S
N472 H484 0.984 . S
N472 H485 0.985 . S
N473 C475 1.356 . S
N473 H478 0.984 . S
N473 H479 0.985 . S
C474 C468 1.379 . S
C474 C471 1.363 . S
C474 N472 1.356 . S
C475 C469 1.363 . S
C475 C470 1.379 . S
C475 N473 1.356 . S
N476 C468 1.356 . S
N476 H482 0.984 . S
N476 H483 0.984 . S
N477 C470 1.356 . S
N477 H480 0.984 . S
N477 H481 0.985 . S
H478 N473 0.984 . S
H479 N473 0.985 . S
H480 N477 0.984 . S
H481 N477 0.985 . S
H482 N476 0.984 . S
H483 N476 0.984 . S
H484 N472 0.984 . S
H485 N472 0.985 . S
C486 C487 1.363 . S
C486 C492 1.379 . S
C486 N494 1.356 . S
C487 C486 1.363 . S
C487 C493 1.363 . S
C488 C489 1.363 . S
C488 C493 1.379 . S
C488 N495 1.356 . S
C489 C488 1.363 . S
C489 C492 1.363 . S
N490 C492 1.356 . S
N490 H502 0.984 . S
N490 H503 0.985 . S
N491 C493 1.356 . S
N491 H496 0.984 . S
N491 H497 0.985 . S
C492 C486 1.379 . S
C492 C489 1.363 . S
C492 N490 1.356 . S
C493 C487 1.363 . S
C493 C488 1.379 . S
C493 N491 1.356 . S
N494 C486 1.356 . S
N494 H500 0.984 . S
N494 H501 0.984 . S
N495 C488 1.356 . S
N495 H498 0.984 . S
N495 H499 0.985 . S
H496 N491 0.984 . S
H497 N491 0.985 . S
H498 N495 0.984 . S
H499 N495 0.985 . S
H500 N494 0.984 . S
H501 N494 0.984 . S
H502 N490 0.984 . S
H503 N490 0.985 . S
C504 C505 1.363 . S
C504 C510 1.379 . S
C504 N512 1.356 . S
C505 C504 1.363 . S
C505 C511 1.363 . S
C506 C507 1.363 . S
C506 C511 1.379 . S
C506 N513 1.356 . S
C507 C506 1.363 . S
C507 C510 1.363 . S
N508 C510 1.356 . S
N508 H520 0.984 . S
N508 H521 0.985 . S
N509 C511 1.356 . S
N509 H514 0.984 . S
N509 H515 0.985 . S
C510 C504 1.379 . S
C510 C507 1.363 . S
C510 N508 1.356 . S
C511 C505 1.363 . S
C511 C506 1.379 . S
C511 N509 1.356 . S
N512 C504 1.356 . S
N512 H518 0.984 . S
N512 H519 0.984 . S
N513 C506 1.356 . S
N513 H516 0.984 . S
N513 H517 0.985 . S
H514 N509 0.984 . S
H515 N509 0.985 . S
H516 N513 0.984 . S
H517 N513 0.985 . S
H518 N512 0.984 . S
H519 N512 0.984 . S
H520 N508 0.984 . S
H521 N508 0.985 . S
C522 C523 1.363 . S
C522 C528 1.379 . S
C522 N530 1.356 . S
C523 C522 1.363 . S
C523 C529 1.363 . S
C524 C525 1.363 . S
C524 C529 1.379 . S
C524 N531 1.356 . S
C525 C524 1.363 . S
C525 C528 1.363 . S
N526 C528 1.356 . S
N526 H538 0.984 . S
N526 H539 0.985 . S
N527 C529 1.356 . S
N527 H532 0.984 . S
N527 H533 0.985 . S
C528 C522 1.379 . S
C528 C525 1.363 . S
C528 N526 1.356 . S
C529 C523 1.363 . S
C529 C524 1.379 . S
C529 N527 1.356 . S
N530 C522 1.356 . S
N530 H536 0.984 . S
N530 H537 0.984 . S
N531 C524 1.356 . S
N531 H534 0.984 . S
N531 H535 0.985 . S
H532 N527 0.984 . S
H533 N527 0.985 . S
H534 N531 0.984 . S
H535 N531 0.985 . S
H536 N530 0.984 . S
H537 N530 0.984 . S
H538 N526 0.984 . S
H539 N526 0.985 . S
C540 C541 1.363 . S
C540 C546 1.379 . S
C540 N548 1.356 . S
C541 C540 1.363 . S
C541 C547 1.363 1_545 S
C542 C543 1.363 . S
C542 C547 1.379 . S
C542 N549 1.356 . S
C543 C542 1.363 . S
C543 C546 1.363 1_565 S
N544 C546 1.356 . S
N544 H556 0.984 . S
N544 H557 0.985 . S
N545 C547 1.356 . S
N545 H550 0.984 . S
N545 H551 0.985 . S
C546 C540 1.379 . S
C546 C543 1.363 1_545 S
C546 N544 1.356 . S
C547 C541 1.363 1_565 S
C547 C542 1.379 . S
C547 N545 1.356 . S
N548 C540 1.356 . S
N548 H554 0.984 . S
N548 H555 0.984 . S
N549 C542 1.356 . S
N549 H552 0.984 . S
N549 H553 0.985 . S
H550 N545 0.984 . S
H551 N545 0.985 . S
H552 N549 0.984 . S
H553 N549 0.985 . S
H554 N548 0.984 . S
H555 N548 0.984 . S
H556 N544 0.984 . S
H557 N544 0.985 . S
C558 C559 1.363 . S
C558 C564 1.379 . S
C558 N566 1.356 . S
C559 C558 1.363 . S
C559 C565 1.363 . S
C560 C561 1.363 . S
C560 C565 1.379 . S
C560 N567 1.356 . S
C561 C560 1.363 . S
C561 C564 1.363 . S
N562 C564 1.356 . S
N562 H574 0.984 . S
N562 H575 0.985 . S
N563 C565 1.356 . S
N563 H568 0.984 . S
N563 H569 0.985 . S
C564 C558 1.379 . S
C564 C561 1.363 . S
C564 N562 1.356 . S
C565 C559 1.363 . S
C565 C560 1.379 . S
C565 N563 1.356 . S
N566 C558 1.356 . S
N566 H572 0.984 . S
N566 H573 0.984 . S
N567 C560 1.356 . S
N567 H570 0.984 . S
N567 H571 0.985 . S
H568 N563 0.984 . S
H569 N563 0.985 . S
H570 N567 0.984 . S
H571 N567 0.985 . S
H572 N566 0.984 . S
H573 N566 0.984 . S
H574 N562 0.984 . S
H575 N562 0.985 . S
C576 C577 1.363 1_655 S
C576 C582 1.379 . S
C576 N584 1.356 . S
C577 C576 1.363 1_455 S
C577 C583 1.363 . S
C578 C579 1.363 1_455 S
C578 C583 1.379 . S
C578 N585 1.356 1_556 S
C579 C578 1.363 1_655 S
C579 C582 1.363 . S
N580 C582 1.356 . S
N580 H592 0.984 . S
N580 H593 0.985 . S
N581 C583 1.356 1_554 S
N581 H586 0.984 . S
N581 H587 0.985 . S
C582 C576 1.379 . S
C582 C579 1.363 . S
C582 N580 1.356 . S
C583 C577 1.363 . S
C583 C578 1.379 . S
C583 N581 1.356 1_556 S
N584 C576 1.356 . S
N584 H590 0.984 . S
N584 H591 0.984 . S
N585 C578 1.356 1_554 S
N585 H588 0.984 . S
N585 H589 0.985 . S
H586 N581 0.984 . S
H587 N581 0.985 . S
H588 N585 0.984 . S
H589 N585 0.985 . S
H590 N584 0.984 . S
H591 N584 0.984 . S
H592 N580 0.984 . S
H593 N580 0.985 . S
C594 C595 1.363 . S
C594 C600 1.379 . S
C594 N602 1.356 . S
C595 C594 1.363 . S
C595 C601 1.363 1_655 S
C596 C597 1.363 . S
C596 C601 1.379 . S
C596 N603 1.356 . S
C597 C596 1.363 . S
C597 C600 1.363 1_455 S
N598 C600 1.356 . S
N598 H610 0.984 . S
N598 H611 0.985 . S
N599 C601 1.356 . S
N599 H604 0.984 . S
N599 H605 0.985 . S
C600 C594 1.379 . S
C600 C597 1.363 1_655 S
C600 N598 1.356 . S
C601 C595 1.363 1_455 S
C601 C596 1.379 . S
C601 N599 1.356 . S
N602 C594 1.356 . S
N602 H608 0.984 . S
N602 H609 0.984 . S
N603 C596 1.356 . S
N603 H606 0.984 . S
N603 H607 0.985 . S
H604 N599 0.984 . S
H605 N599 0.985 . S
H606 N603 0.984 . S
H607 N603 0.985 . S
H608 N602 0.984 . S
H609 N602 0.984 . S
H610 N598 0.984 . S
H611 N598 0.985 . S
C612 C613 1.363 1_565 S
C612 C618 1.379 . S
C612 N620 1.356 . S
C613 C612 1.363 1_545 S
C613 C619 1.363 . S
C614 C615 1.363 1_545 S
C614 C619 1.379 . S
C614 N621 1.356 . S
C615 C614 1.363 1_565 S
C615 C618 1.363 . S
N616 C618 1.356 . S
N616 H628 0.984 . S
N616 H629 0.985 . S
N617 C619 1.356 . S
N617 H622 0.984 . S
N617 H623 0.985 . S
C618 C612 1.379 . S
C618 C615 1.363 . S
C618 N616 1.356 . S
C619 C613 1.363 . S
C619 C614 1.379 . S
C619 N617 1.356 . S
N620 C612 1.356 . S
N620 H626 0.984 . S
N620 H627 0.984 . S
N621 C614 1.356 . S
N621 H624 0.984 . S
N621 H625 0.985 . S
H622 N617 0.984 . S
H623 N617 0.985 . S
H624 N621 0.984 . S
H625 N621 0.985 . S
H626 N620 0.984 . S
H627 N620 0.984 . S
H628 N616 0.984 . S
H629 N616 0.985 . S
C630 C631 1.363 . S
C630 C636 1.379 . S
C630 N638 1.356 . S
C631 C630 1.363 . S
C631 C637 1.363 . S
C632 C633 1.363 . S
C632 C637 1.379 . S
C632 N639 1.356 1_554 S
C633 C632 1.363 . S
C633 C636 1.363 . S
N634 C636 1.356 . S
N634 H646 0.984 . S
N634 H647 0.985 . S
N635 C637 1.356 1_556 S
N635 H640 0.984 . S
N635 H641 0.985 . S
C636 C630 1.379 . S
C636 C633 1.363 . S
C636 N634 1.356 . S
C637 C631 1.363 . S
C637 C632 1.379 . S
C637 N635 1.356 1_554 S
N638 C630 1.356 . S
N638 H644 0.984 . S
N638 H645 0.984 . S
N639 C632 1.356 1_556 S
N639 H642 0.984 . S
N639 H643 0.985 . S
H640 N635 0.984 . S
H641 N635 0.985 . S
H642 N639 0.984 . S
H643 N639 0.985 . S
H644 N638 0.984 . S
H645 N638 0.984 . S
H646 N634 0.984 . S
H647 N634 0.985 . S
C648 C649 1.363 . S
C648 C654 1.379 . S
C648 N656 1.356 . S
C649 C648 1.363 . S
C649 C655 1.363 . S
C650 C651 1.363 . S
C650 C655 1.379 . S
C650 N657 1.356 . S
C651 C650 1.363 . S
C651 C654 1.363 . S
N652 C654 1.356 . S
N652 H664 0.984 . S
N652 H665 0.985 . S
N653 C655 1.356 . S
N653 H658 0.984 . S
N653 H659 0.985 . S
C654 C648 1.379 . S
C654 C651 1.363 . S
C654 N652 1.356 . S
C655 C649 1.363 . S
C655 C650 1.379 . S
C655 N653 1.356 . S
N656 C648 1.356 . S
N656 H662 0.984 . S
N656 H663 0.984 . S
N657 C650 1.356 . S
N657 H660 0.984 . S
N657 H661 0.985 . S
H658 N653 0.984 . S
H659 N653 0.985 . S
H660 N657 0.984 . S
H661 N657 0.985 . S
H662 N656 0.984 . S
H663 N656 0.984 . S
H664 N652 0.984 . S
H665 N652 0.985 . S
C666 C667 1.363 . S
C666 C672 1.379 . S
C666 N674 1.356 . S
C667 C666 1.363 . S
C667 C673 1.363 . S
C668 C669 1.363 . S
C668 C673 1.379 . S
C668 N675 1.356 . S
C669 C668 1.363 . S
C669 C672 1.363 . S
N670 C672 1.356 . S
N670 H682 0.984 . S
N670 H683 0.985 . S
N671 C673 1.356 . S
N671 H676 0.984 . S
N671 H677 0.985 . S
C672 C666 1.379 . S
C672 C669 1.363 . S
C672 N670 1.356 . S
C673 C667 1.363 . S
C673 C668 1.379 . S
C673 N671 1.356 . S
N674 C666 1.356 . S
N674 H680 0.984 . S
N674 H681 0.984 . S
N675 C668 1.356 . S
N675 H678 0.984 . S
N675 H679 0.985 . S
H676 N671 0.984 . S
H677 N671 0.985 . S
H678 N675 0.984 . S
H679 N675 0.985 . S
H680 N674 0.984 . S
H681 N674 0.984 . S
H682 N670 0.984 . S
H683 N670 0.985 . S
C684 C685 1.363 . S
C684 C690 1.379 . S
C684 N692 1.356 . S
C685 C684 1.363 . S
C685 C691 1.363 1_554 S
C686 C687 1.363 . S
C686 C691 1.379 . S
C686 N693 1.356 . S
C687 C686 1.363 . S
C687 C690 1.363 1_556 S
N688 C690 1.356 . S
N688 H700 0.984 . S
N688 H701 0.985 1_554 S
N689 C691 1.356 . S
N689 H694 0.984 1_556 S
N689 H695 0.985 . S
C690 C684 1.379 . S
C690 C687 1.363 1_554 S
C690 N688 1.356 . S
C691 C685 1.363 1_556 S
C691 C686 1.379 . S
C691 N689 1.356 . S
N692 C684 1.356 . S
N692 H698 0.984 . S
N692 H699 0.984 . S
N693 C686 1.356 . S
N693 H696 0.984 . S
N693 H697 0.985 . S
H694 N689 0.984 1_554 S
H695 N689 0.985 . S
H696 N693 0.984 . S
H697 N693 0.985 . S
H698 N692 0.984 . S
H699 N692 0.984 . S
H700 N688 0.984 . S
H701 N688 0.985 1_556 S
C702 C703 1.363 . S
C702 C708 1.379 . S
C702 N710 1.356 . S
C703 C702 1.363 . S
C703 C709 1.363 . S
C704 C705 1.363 . S
C704 C709 1.379 . S
C704 N711 1.356 . S
C705 C704 1.363 . S
C705 C708 1.363 . S
N706 C708 1.356 . S
N706 H718 0.984 . S
N706 H719 0.985 . S
N707 C709 1.356 . S
N707 H712 0.984 . S
N707 H713 0.985 . S
C708 C702 1.379 . S
C708 C705 1.363 . S
C708 N706 1.356 . S
C709 C703 1.363 . S
C709 C704 1.379 . S
C709 N707 1.356 . S
N710 C702 1.356 . S
N710 H716 0.984 . S
N710 H717 0.984 . S
N711 C704 1.356 . S
N711 H714 0.984 . S
N711 H715 0.985 . S
H712 N707 0.984 . S
H713 N707 0.985 . S
H714 N711 0.984 . S
H715 N711 0.985 . S
H716 N710 0.984 . S
H717 N710 0.984 . S
H718 N706 0.984 . S
H719 N706 0.985 . S
C720 C721 1.363 . S
C720 C726 1.379 . S
C720 N728 1.356 . S
C721 C720 1.363 . S
C721 C727 1.363 . S
C722 C723 1.363 . S
C722 C727 1.379 . S
C722 N729 1.356 . S
C723 C722 1.363 . S
C723 C726 1.363 . S
N724 C726 1.356 . S
N724 H736 0.984 . S
N724 H737 0.985 . S
N725 C727 1.356 . S
N725 H730 0.984 . S
N725 H731 0.985 . S
C726 C720 1.379 . S
C726 C723 1.363 . S
C726 N724 1.356 . S
C727 C721 1.363 . S
C727 C722 1.379 . S
C727 N725 1.356 . S
N728 C720 1.356 . S
N728 H734 0.984 . S
N728 H735 0.984 . S
N729 C722 1.356 . S
N729 H732 0.984 . S
N729 H733 0.985 . S
H730 N725 0.984 . S
H731 N725 0.985 . S
H732 N729 0.984 . S
H733 N729 0.985 . S
H734 N728 0.984 . S
H735 N728 0.984 . S
H736 N724 0.984 . S
H737 N724 0.985 . S
C738 C739 1.363 . S
C738 C744 1.379 . S
C738 N746 1.356 . S
C739 C738 1.363 . S
C739 C745 1.363 1_554 S
C740 C741 1.363 . S
C740 C745 1.379 . S
C740 N747 1.356 . S
C741 C740 1.363 . S
C741 C744 1.363 1_556 S
N742 C744 1.356 . S
N742 H754 0.984 . S
N742 H755 0.985 1_554 S
N743 C745 1.356 . S
N743 H748 0.984 1_556 S
N743 H749 0.985 . S
C744 C738 1.379 . S
C744 C741 1.363 1_554 S
C744 N742 1.356 . S
C745 C739 1.363 1_556 S
C745 C740 1.379 . S
C745 N743 1.356 . S
N746 C738 1.356 . S
N746 H752 0.984 . S
N746 H753 0.984 . S
N747 C740 1.356 . S
N747 H750 0.984 . S
N747 H751 0.985 . S
H748 N743 0.984 1_554 S
H749 N743 0.985 . S
H750 N747 0.984 . S
H751 N747 0.985 . S
H752 N746 0.984 . S
H753 N746 0.984 . S
H754 N742 0.984 . S
H755 N742 0.985 1_556 S
C756 C757 1.363 1_565 S
C756 C762 1.379 . S
C756 N764 1.356 . S
C757 C756 1.363 1_545 S
C757 C763 1.363 . S
C758 C759 1.363 1_545 S
C758 C763 1.379 . S
C758 N765 1.356 . S
C759 C758 1.363 1_565 S
C759 C762 1.363 . S
N760 C762 1.356 . S
N760 H772 0.984 . S
N760 H773 0.985 . S
N761 C763 1.356 . S
N761 H766 0.984 . S
N761 H767 0.985 . S
C762 C756 1.379 . S
C762 C759 1.363 . S
C762 N760 1.356 . S
C763 C757 1.363 . S
C763 C758 1.379 . S
C763 N761 1.356 . S
N764 C756 1.356 . S
N764 H770 0.984 . S
N764 H771 0.984 . S
N765 C758 1.356 . S
N765 H768 0.984 . S
N765 H769 0.985 . S
H766 N761 0.984 . S
H767 N761 0.985 . S
H768 N765 0.984 . S
H769 N765 0.985 . S
H770 N764 0.984 . S
H771 N764 0.984 . S
H772 N760 0.984 . S
H773 N760 0.985 . S
C774 C775 1.363 . S
C774 C780 1.379 . S
C774 N782 1.356 . S
C775 C774 1.363 . S
C775 C781 1.363 . S
C776 C777 1.363 . S
C776 C781 1.379 . S
C776 N783 1.356 . S
C777 C776 1.363 . S
C777 C780 1.363 . S
N778 C780 1.356 . S
N778 H790 0.984 . S
N778 H791 0.985 . S
N779 C781 1.356 . S
N779 H784 0.984 . S
N779 H785 0.985 . S
C780 C774 1.379 . S
C780 C777 1.363 . S
C780 N778 1.356 . S
C781 C775 1.363 . S
C781 C776 1.379 . S
C781 N779 1.356 . S
N782 C774 1.356 . S
N782 H788 0.984 . S
N782 H789 0.984 . S
N783 C776 1.356 . S
N783 H786 0.984 . S
N783 H787 0.985 . S
H784 N779 0.984 . S
H785 N779 0.985 . S
H786 N783 0.984 . S
H787 N783 0.985 . S
H788 N782 0.984 . S
H789 N782 0.984 . S
H790 N778 0.984 . S
H791 N778 0.985 . S
C792 C793 1.363 . S
C792 C798 1.379 1_455 S
C792 N800 1.356 . S
C793 C792 1.363 . S
C793 C799 1.363 . S
C794 C795 1.363 . S
C794 C799 1.379 1_655 S
C794 N801 1.356 . S
C795 C794 1.363 . S
C795 C798 1.363 . S
N796 C798 1.356 . S
N796 H808 0.984 . S
N796 H809 0.985 . S
N797 C799 1.356 . S
N797 H802 0.984 . S
N797 H803 0.985 . S
C798 C792 1.379 1_655 S
C798 C795 1.363 . S
C798 N796 1.356 . S
C799 C793 1.363 . S
C799 C794 1.379 1_455 S
C799 N797 1.356 . S
N800 C792 1.356 . S
N800 H806 0.984 . S
N800 H807 0.984 . S
N801 C794 1.356 . S
N801 H804 0.984 . S
N801 H805 0.985 . S
H802 N797 0.984 . S
H803 N797 0.985 . S
H804 N801 0.984 . S
H805 N801 0.985 . S
H806 N800 0.984 . S
H807 N800 0.984 . S
H808 N796 0.984 . S
H809 N796 0.985 . S
C810 C811 1.363 . S
C810 C816 1.379 . S
C810 N818 1.356 . S
C811 C810 1.363 . S
C811 C817 1.363 1_565 S
C812 C813 1.363 . S
C812 C817 1.379 . S
C812 N819 1.356 . S
C813 C812 1.363 . S
C813 C816 1.363 1_545 S
N814 C816 1.356 . S
N814 H826 0.984 . S
N814 H827 0.985 . S
N815 C817 1.356 . S
N815 H820 0.984 . S
N815 H821 0.985 . S
C816 C810 1.379 . S
C816 C813 1.363 1_565 S
C816 N814 1.356 . S
C817 C811 1.363 1_545 S
C817 C812 1.379 . S
C817 N815 1.356 . S
N818 C810 1.356 . S
N818 H824 0.984 . S
N818 H825 0.984 . S
N819 C812 1.356 . S
N819 H822 0.984 . S
N819 H823 0.985 . S
H820 N815 0.984 . S
H821 N815 0.985 . S
H822 N819 0.984 . S
H823 N819 0.985 . S
H824 N818 0.984 . S
H825 N818 0.984 . S
H826 N814 0.984 . S
H827 N814 0.985 . S
C828 C829 1.363 . S
C828 C834 1.379 . S
C828 N836 1.356 . S
C829 C828 1.363 . S
C829 C835 1.363 . S
C830 C831 1.363 . S
C830 C835 1.379 . S
C830 N837 1.356 . S
C831 C830 1.363 . S
C831 C834 1.363 . S
N832 C834 1.356 . S
N832 H844 0.984 . S
N832 H845 0.985 . S
N833 C835 1.356 . S
N833 H838 0.984 . S
N833 H839 0.985 . S
C834 C828 1.379 . S
C834 C831 1.363 . S
C834 N832 1.356 . S
C835 C829 1.363 . S
C835 C830 1.379 . S
C835 N833 1.356 . S
N836 C828 1.356 . S
N836 H842 0.984 . S
N836 H843 0.984 . S
N837 C830 1.356 . S
N837 H840 0.984 . S
N837 H841 0.985 . S
H838 N833 0.984 . S
H839 N833 0.985 . S
H840 N837 0.984 . S
H841 N837 0.985 . S
H842 N836 0.984 . S
H843 N836 0.984 . S
H844 N832 0.984 . S
H845 N832 0.985 . S
C846 C847 1.363 . S
C846 C852 1.379 1_655 S
C846 N854 1.356 . S
C847 C846 1.363 . S
C847 C853 1.363 . S
C848 C849 1.363 . S
C848 C853 1.379 1_455 S
C848 N855 1.356 . S
C849 C848 1.363 . S
C849 C852 1.363 . S
N850 C852 1.356 . S
N850 H862 0.984 . S
N850 H863 0.985 . S
N851 C853 1.356 . S
N851 H856 0.984 . S
N851 H857 0.985 . S
C852 C846 1.379 1_455 S
C852 C849 1.363 . S
C852 N850 1.356 . S
C853 C847 1.363 . S
C853 C848 1.379 1_655 S
C853 N851 1.356 . S
N854 C846 1.356 . S
N854 H860 0.984 . S
N854 H861 0.984 . S
N855 C848 1.356 . S
N855 H858 0.984 . S
N855 H859 0.985 . S
H856 N851 0.984 . S
H857 N851 0.985 . S
H858 N855 0.984 . S
H859 N855 0.985 . S
H860 N854 0.984 . S
H861 N854 0.984 . S
H862 N850 0.984 . S
H863 N850 0.985 . S
C433 C4 1.680 . S
C435 C292 1.680 . S
C451 C40 1.680 . S
C453 C328 1.680 . S
C469 C364 1.680 . S
C471 C76 1.680 . S
C487 C400 1.680 . S
C489 C112 1.680 . S
C505 C220 1.680 . S
C507 C148 1.680 . S
C523 C256 1.680 . S
C525 C184 1.680 . S
C541 C14 1.518 . S
C543 C122 1.518 . S
C559 C158 1.518 . S
C561 C50 1.518 . S
C577 C194 1.518 . S
C579 C86 1.518 . S
C595 C230 1.518 . S
C597 C338 1.518 . S
C613 C374 1.518 . S
C615 C266 1.518 . S
C631 C302 1.518 . S
C633 C410 1.518 . S
C649 C218 1.100 . S
C651 C2 1.100 . S
C667 C38 1.100 . S
C669 C254 1.100 . S
C685 C290 1.100 . S
C687 C74 1.100 . S
C703 C326 1.100 . S
C705 C110 1.100 . S
C721 C146 1.100 . S
C723 C362 1.100 . S
C739 C398 1.100 . S
C741 C182 1.100 . S
C757 C3 1.205 . S
C759 C255 1.205 . S
C775 C291 1.205 . S
C777 C39 1.205 . S
C793 C327 1.205 . S
C795 C75 1.205 . S
C811 C111 1.205 . S
C813 C363 1.205 . S
C829 C399 1.205 . S
C831 C147 1.205 . S
C847 C219 1.205 . S
C849 C183 1.205 . S
