# Generated by pormake.
# Topology sxi, (6)-cn, num edge types: 1
# Building blocks:
#     Node 0, Type 0, BuildingBlock: IZENUY_clean_sbu_0, # of connection points: 6
#     Node 1, Type 0, BuildingBlock: IZENUY_clean_sbu_0, # of connection points: 6
#     Node 2, Type 0, BuildingBlock: IZENUY_clean_sbu_0, # of connection points: 6
#     Node 3, Type 0, BuildingBlock: IZENUY_clean_sbu_0, # of connection points: 6
#     Node 4, Type 0, BuildingBlock: IZENUY_clean_sbu_0, # of connection points: 6
#     Node 5, Type 0, BuildingBlock: IZENUY_clean_sbu_0, # of connection points: 6
#     Node 6, Type 0, BuildingBlock: IZENUY_clean_sbu_0, # of connection points: 6
#     Node 7, Type 0, BuildingBlock: IZENUY_clean_sbu_0, # of connection points: 6
#     Node 8, Type 0, BuildingBlock: IZENUY_clean_sbu_0, # of connection points: 6
#     Node 9, Type 0, BuildingBlock: IZENUY_clean_sbu_0, # of connection points: 6
#     Node 10, Type 0, BuildingBlock: IZENUY_clean_sbu_0, # of connection points: 6
#     Node 11, Type 0, BuildingBlock: IZENUY_clean_sbu_0, # of connection points: 6
#     Node 12, Type 0, BuildingBlock: IZENUY_clean_sbu_0, # of connection points: 6
#     Node 13, Type 0, BuildingBlock: IZENUY_clean_sbu_0, # of connection points: 6
#     Node 14, Type 0, BuildingBlock: IZENUY_clean_sbu_0, # of connection points: 6
#     Node 15, Type 0, BuildingBlock: IZENUY_clean_sbu_0, # of connection points: 6
#     Node 16, Type 0, BuildingBlock: IZENUY_clean_sbu_0, # of connection points: 6
#     Node 17, Type 0, BuildingBlock: IZENUY_clean_sbu_0, # of connection points: 6
#     Node 18, Type 0, BuildingBlock: IZENUY_clean_sbu_0, # of connection points: 6
#     Node 19, Type 0, BuildingBlock: IZENUY_clean_sbu_0, # of connection points: 6
#     Node 20, Type 0, BuildingBlock: IZENUY_clean_sbu_0, # of connection points: 6
#     Node 21, Type 0, BuildingBlock: IZENUY_clean_sbu_0, # of connection points: 6
#     Node 22, Type 0, BuildingBlock: IZENUY_clean_sbu_0, # of connection points: 6
#     Node 23, Type 0, BuildingBlock: IZENUY_clean_sbu_0, # of connection points: 6
#     Edge 24, Type (0, 0), BuildingBlock: EZIPEK_clean_linker_0, # of connection points: 2
#     Edge 25, Type (0, 0), BuildingBlock: EZIPEK_clean_linker_0, # of connection points: 2
#     Edge 26, Type (0, 0), BuildingBlock: EZIPEK_clean_linker_0, # of connection points: 2
#     Edge 27, Type (0, 0), BuildingBlock: EZIPEK_clean_linker_0, # of connection points: 2
#     Edge 28, Type (0, 0), BuildingBlock: EZIPEK_clean_linker_0, # of connection points: 2
#     Edge 29, Type (0, 0), BuildingBlock: EZIPEK_clean_linker_0, # of connection points: 2
#     Edge 30, Type (0, 0), BuildingBlock: EZIPEK_clean_linker_0, # of connection points: 2
#     Edge 31, Type (0, 0), BuildingBlock: EZIPEK_clean_linker_0, # of connection points: 2
#     Edge 32, Type (0, 0), BuildingBlock: EZIPEK_clean_linker_0, # of connection points: 2
#     Edge 33, Type (0, 0), BuildingBlock: EZIPEK_clean_linker_0, # of connection points: 2
#     Edge 34, Type (0, 0), BuildingBlock: EZIPEK_clean_linker_0, # of connection points: 2
#     Edge 35, Type (0, 0), BuildingBlock: EZIPEK_clean_linker_0, # of connection points: 2
#     Edge 36, Type (0, 0), BuildingBlock: EZIPEK_clean_linker_0, # of connection points: 2
#     Edge 37, Type (0, 0), BuildingBlock: EZIPEK_clean_linker_0, # of connection points: 2
#     Edge 38, Type (0, 0), BuildingBlock: EZIPEK_clean_linker_0, # of connection points: 2
#     Edge 39, Type (0, 0), BuildingBlock: EZIPEK_clean_linker_0, # of connection points: 2
#     Edge 40, Type (0, 0), BuildingBlock: EZIPEK_clean_linker_0, # of connection points: 2
#     Edge 41, Type (0, 0), BuildingBlock: EZIPEK_clean_linker_0, # of connection points: 2
#     Edge 42, Type (0, 0), BuildingBlock: EZIPEK_clean_linker_0, # of connection points: 2
#     Edge 43, Type (0, 0), BuildingBlock: EZIPEK_clean_linker_0, # of connection points: 2
#     Edge 44, Type (0, 0), BuildingBlock: EZIPEK_clean_linker_0, # of connection points: 2
#     Edge 45, Type (0, 0), BuildingBlock: EZIPEK_clean_linker_0, # of connection points: 2
#     Edge 46, Type (0, 0), BuildingBlock: EZIPEK_clean_linker_0, # of connection points: 2
#     Edge 47, Type (0, 0), BuildingBlock: EZIPEK_clean_linker_0, # of connection points: 2
#     Edge 48, Type (0, 0), BuildingBlock: EZIPEK_clean_linker_0, # of connection points: 2
#     Edge 49, Type (0, 0), BuildingBlock: EZIPEK_clean_linker_0, # of connection points: 2
#     Edge 50, Type (0, 0), BuildingBlock: EZIPEK_clean_linker_0, # of connection points: 2
#     Edge 51, Type (0, 0), BuildingBlock: EZIPEK_clean_linker_0, # of connection points: 2
#     Edge 52, Type (0, 0), BuildingBlock: EZIPEK_clean_linker_0, # of connection points: 2
#     Edge 53, Type (0, 0), BuildingBlock: EZIPEK_clean_linker_0, # of connection points: 2
#     Edge 54, Type (0, 0), BuildingBlock: EZIPEK_clean_linker_0, # of connection points: 2
#     Edge 55, Type (0, 0), BuildingBlock: EZIPEK_clean_linker_0, # of connection points: 2
#     Edge 56, Type (0, 0), BuildingBlock: EZIPEK_clean_linker_0, # of connection points: 2
#     Edge 57, Type (0, 0), BuildingBlock: EZIPEK_clean_linker_0, # of connection points: 2
#     Edge 58, Type (0, 0), BuildingBlock: EZIPEK_clean_linker_0, # of connection points: 2
#     Edge 59, Type (0, 0), BuildingBlock: EZIPEK_clean_linker_0, # of connection points: 2
#     Edge 60, Type (0, 0), BuildingBlock: EZIPEK_clean_linker_0, # of connection points: 2
#     Edge 61, Type (0, 0), BuildingBlock: EZIPEK_clean_linker_0, # of connection points: 2
#     Edge 62, Type (0, 0), BuildingBlock: EZIPEK_clean_linker_0, # of connection points: 2
#     Edge 63, Type (0, 0), BuildingBlock: EZIPEK_clean_linker_0, # of connection points: 2
#     Edge 64, Type (0, 0), BuildingBlock: EZIPEK_clean_linker_0, # of connection points: 2
#     Edge 65, Type (0, 0), BuildingBlock: EZIPEK_clean_linker_0, # of connection points: 2
#     Edge 66, Type (0, 0), BuildingBlock: EZIPEK_clean_linker_0, # of connection points: 2
#     Edge 67, Type (0, 0), BuildingBlock: EZIPEK_clean_linker_0, # of connection points: 2
#     Edge 68, Type (0, 0), BuildingBlock: EZIPEK_clean_linker_0, # of connection points: 2
#     Edge 69, Type (0, 0), BuildingBlock: EZIPEK_clean_linker_0, # of connection points: 2
#     Edge 70, Type (0, 0), BuildingBlock: EZIPEK_clean_linker_0, # of connection points: 2
#     Edge 71, Type (0, 0), BuildingBlock: EZIPEK_clean_linker_0, # of connection points: 2
#     Edge 72, Type (0, 0), BuildingBlock: EZIPEK_clean_linker_0, # of connection points: 2
#     Edge 73, Type (0, 0), BuildingBlock: EZIPEK_clean_linker_0, # of connection points: 2
#     Edge 74, Type (0, 0), BuildingBlock: EZIPEK_clean_linker_0, # of connection points: 2
#     Edge 75, Type (0, 0), BuildingBlock: EZIPEK_clean_linker_0, # of connection points: 2
#     Edge 76, Type (0, 0), BuildingBlock: EZIPEK_clean_linker_0, # of connection points: 2
#     Edge 77, Type (0, 0), BuildingBlock: EZIPEK_clean_linker_0, # of connection points: 2
#     Edge 78, Type (0, 0), BuildingBlock: EZIPEK_clean_linker_0, # of connection points: 2
#     Edge 79, Type (0, 0), BuildingBlock: EZIPEK_clean_linker_0, # of connection points: 2
#     Edge 80, Type (0, 0), BuildingBlock: EZIPEK_clean_linker_0, # of connection points: 2
#     Edge 81, Type (0, 0), BuildingBlock: EZIPEK_clean_linker_0, # of connection points: 2
#     Edge 82, Type (0, 0), BuildingBlock: EZIPEK_clean_linker_0, # of connection points: 2
#     Edge 83, Type (0, 0), BuildingBlock: EZIPEK_clean_linker_0, # of connection points: 2
#     Edge 84, Type (0, 0), BuildingBlock: EZIPEK_clean_linker_0, # of connection points: 2
#     Edge 85, Type (0, 0), BuildingBlock: EZIPEK_clean_linker_0, # of connection points: 2
#     Edge 86, Type (0, 0), BuildingBlock: EZIPEK_clean_linker_0, # of connection points: 2
#     Edge 87, Type (0, 0), BuildingBlock: EZIPEK_clean_linker_0, # of connection points: 2
#     Edge 88, Type (0, 0), BuildingBlock: EZIPEK_clean_linker_0, # of connection points: 2
#     Edge 89, Type (0, 0), BuildingBlock: EZIPEK_clean_linker_0, # of connection points: 2
#     Edge 90, Type (0, 0), BuildingBlock: EZIPEK_clean_linker_0, # of connection points: 2
#     Edge 91, Type (0, 0), BuildingBlock: EZIPEK_clean_linker_0, # of connection points: 2
#     Edge 92, Type (0, 0), BuildingBlock: EZIPEK_clean_linker_0, # of connection points: 2
#     Edge 93, Type (0, 0), BuildingBlock: EZIPEK_clean_linker_0, # of connection points: 2
#     Edge 94, Type (0, 0), BuildingBlock: EZIPEK_clean_linker_0, # of connection points: 2
#     Edge 95, Type (0, 0), BuildingBlock: EZIPEK_clean_linker_0, # of connection points: 2
# Relax obj value: 0.412
# Max RMSD: 0.250
# Mean RMSD: 0.250
data_MOF--net-sxi--node1-IZENUY_clean_sbu_0--edge1-EZIPEK_clean_linker_0
_symmetry_space_group_name_H-M    P1
_symmetry_Int_Tables_number       1
_symmetry_cell_setting            triclinic
loop_
_symmetry_equiv_pos_as_xyz
'x, y, z'
_cell_length_a     34.601265
_cell_length_b     34.62881
_cell_length_c     34.64829
_cell_angle_alpha  90.050819
_cell_angle_beta   90.038789
_cell_angle_gamma 89.609905
loop_
_atom_site_label
_atom_site_type_symbol
_atom_site_fract_x
_atom_site_fract_y
_atom_site_fract_z
_atom_type_partial_charge
Fe0 Fe 1.01004 0.31394 0.42198 0.0
Fe1 Fe 0.08359 0.34342 0.38084 0.0
O2 O 0.0387 0.35206 0.40406 0.0
Fe3 Fe 0.02192 0.39992 0.40986 0.0
O4 O 0.99256 0.39119 0.45402 0.0
O5 O 1.01007 0.33293 0.47054 0.0
O6 O 0.05123 0.2835 0.43698 0.0
C7 C 0.08683 0.2911 0.44092 0.0
C8 C 0.95814 0.36597 0.38572 0.0
O9 O 0.10251 0.31821 0.42261 0.0
C10 C 0.05897 0.40424 0.33637 0.0
O11 O 1.00671 0.29142 0.37572 0.0
O12 O 0.06746 0.29668 0.35745 0.0
O13 O 0.98273 0.39099 0.37827 0.0
O14 O 0.96466 0.33858 0.40926 0.0
C15 C 0.09583 0.40992 0.43 0.0
O16 O 0.06896 0.36899 0.3364 0.0
O17 O 0.04696 0.41925 0.3674 0.0
C18 C 0.03408 0.28088 0.35461 0.0
O19 O 0.10637 0.38838 0.40169 0.0
O20 O 0.06134 0.41018 0.44123 0.0
C21 C 0.99585 0.36506 0.47938 0.0
Fe22 Fe 0.93225 0.83728 0.64111 0.0
Fe23 Fe 0.87791 0.77423 0.66723 0.0
O24 O 0.92491 0.79065 0.6605 0.0
Fe25 Fe 0.96308 0.7599 0.67449 0.0
O26 O 0.99456 0.79917 0.69084 0.0
O27 O 0.9599 0.85195 0.68323 0.0
O28 O 0.88725 0.85825 0.66596 0.0
C29 C 0.86756 0.84461 0.69451 0.0
C30 C 0.99437 0.78893 0.60908 0.0
O31 O 0.87152 0.80994 0.70349 0.0
C32 C 0.90862 0.71232 0.63643 0.0
O33 O 0.90407 0.82707 0.59655 0.0
O34 O 0.85597 0.8033 0.62864 0.0
O35 O 0.98288 0.75988 0.627 0.0
O36 O 0.97861 0.82235 0.61489 0.0
C37 C 0.9144 0.74239 0.7328 0.0
O38 O 0.88513 0.73903 0.63093 0.0
O39 O 0.93703 0.71605 0.65951 0.0
C40 C 0.8687 0.81733 0.59763 0.0
O41 O 0.88826 0.74033 0.70742 0.0
O42 O 0.94633 0.757 0.72416 0.0
C43 C 0.98764 0.83412 0.69927 0.0
Fe44 Fe 0.51658 0.71802 0.92295 0.0
Fe45 Fe 0.4457 0.68063 0.8864 0.0
O46 O 0.49271 0.67595 0.9057 0.0
Fe47 Fe 0.5173 0.63106 0.90646 0.0
O48 O 0.52668 0.63509 0.95836 0.0
O49 O 0.54927 0.69358 0.95686 0.0
O50 O 0.48144 0.72377 0.96137 0.0
C51 C 0.44619 0.73033 0.95348 0.0
C52 C 0.56747 0.68343 0.87339 0.0
O53 O 0.43195 0.71987 0.92099 0.0
C54 C 0.47783 0.61955 0.83817 0.0
O55 O 0.48994 0.75199 0.89356 0.0
O56 O 0.4639 0.71632 0.84932 0.0
O57 O 0.5628 0.65273 0.89275 0.0
O58 O 0.55079 0.7142 0.88386 0.0
C59 C 0.44144 0.61282 0.9307 0.0
O60 O 0.45013 0.64098 0.84989 0.0
O61 O 0.51005 0.62137 0.85502 0.0
C62 C 0.481 0.7476 0.85901 0.0
O63 O 0.4262 0.6454 0.92181 0.0
O64 O 0.47513 0.60378 0.91979 0.0
C65 C 0.54418 0.66239 0.97462 0.0
Fe66 Fe 0.59659 0.19441 0.1331 0.0
Fe67 Fe 0.65016 0.25994 0.16217 0.0
O68 O 0.6035 0.23995 0.15535 0.0
Fe69 Fe 0.56226 0.26701 0.17088 0.0
O70 O 0.5511 0.23122 0.20691 0.0
O71 O 0.55576 0.18189 0.16611 0.0
O72 O 0.62858 0.17008 0.16855 0.0
C73 C 0.66078 0.18152 0.18204 0.0
C74 C 0.53221 0.23462 0.10452 0.0
O75 O 0.67324 0.21494 0.17549 0.0
C76 C 0.60465 0.3179 0.12898 0.0
O77 O 0.63772 0.19864 0.09794 0.0
O78 O 0.66472 0.2543 0.11181 0.0
O79 O 0.5279 0.24536 0.13857 0.0
O80 O 0.56293 0.2158 0.09565 0.0
C81 C 0.61421 0.28629 0.22841 0.0
O82 O 0.6335 0.30807 0.14942 0.0
O83 O 0.57211 0.30258 0.1345 0.0
C84 C 0.66297 0.22451 0.09089 0.0
O85 O 0.64177 0.26736 0.21392 0.0
O86 O 0.58612 0.29581 0.20769 0.0
C87 C 0.54494 0.19621 0.19853 0.0
Fe88 Fe 0.52475 0.21297 0.60596 0.0
Fe89 Fe 0.59162 0.18402 0.65688 0.0
O90 O 0.55048 0.17448 0.62834 0.0
Fe91 Fe 0.53481 0.12685 0.62093 0.0
O92 O 0.54015 0.13245 0.5687 0.0
O93 O 0.50614 0.18513 0.56471 0.0
O94 O 0.56645 0.22565 0.57739 0.0
C95 C 0.5981 0.23577 0.5924 0.0
C96 C 0.46611 0.16987 0.63148 0.0
O97 O 0.60672 0.22631 0.62705 0.0
C98 C 0.55707 0.11763 0.69573 0.0
O99 O 0.53693 0.24865 0.64214 0.0
O100 O 0.56225 0.21574 0.68995 0.0
O101 O 0.48432 0.14039 0.61998 0.0
O102 O 0.48226 0.20217 0.634 0.0
C103 C 0.61448 0.11984 0.61364 0.0
O104 O 0.58443 0.14188 0.69067 0.0
O105 O 0.52907 0.11733 0.67236 0.0
C106 C 0.54251 0.24471 0.6777 0.0
O107 O 0.62266 0.15378 0.62498 0.0
O108 O 0.58223 0.1054 0.62078 0.0
C109 C 0.51827 0.15432 0.54943 0.0
Fe110 Fe 0.09885 0.33778 0.89254 0.0
Fe111 Fe 0.16023 0.2865 0.85451 0.0
O112 O 0.11073 0.2968 0.8641 0.0
Fe113 Fe 0.07471 0.26616 0.84475 0.0
O114 O 0.04096 0.30572 0.83293 0.0
O115 O 0.06916 0.35864 0.8547 0.0
O116 O 0.13939 0.36725 0.87186 0.0
C117 C 0.15876 0.36253 0.84059 0.0
C118 C 0.03991 0.28191 0.91444 0.0
O119 O 0.16384 0.32942 0.82656 0.0
C120 C 0.13415 0.21705 0.87451 0.0
O121 O 0.12879 0.32025 0.93343 0.0
O122 O 0.18 0.3105 0.89804 0.0
O123 O 0.05223 0.25735 0.8908 0.0
O124 O 0.05495 0.31559 0.916 0.0
C125 C 0.12497 0.25945 0.78522 0.0
O126 O 0.15774 0.2433 0.88199 0.0
O127 O 0.10391 0.22254 0.85425 0.0
C128 C 0.16523 0.31596 0.93105 0.0
O129 O 0.15264 0.25957 0.80896 0.0
O130 O 0.09226 0.27085 0.79572 0.0
C131 C 0.0439 0.34225 0.83431 0.0
Fe132 Fe 0.99332 0.90542 0.1027 0.0
Fe133 Fe 1.00092 0.8199 0.0842 0.0
O134 O 0.97618 0.85742 0.10939 0.0
Fe135 Fe 0.93614 0.84861 0.14039 0.0
O136 O 0.90841 0.88976 0.11816 0.0
O137 O 0.94997 0.91731 0.07717 0.0
O138 O 0.0177 0.89833 0.05621 0.0
C139 C 1.01314 0.87406 0.02969 0.0
C140 C 0.96193 0.91508 0.17784 0.0
O141 O 0.99585 0.84327 0.03736 0.0
C142 C 0.99084 0.78603 0.15689 0.0
O143 O 0.03669 0.89375 0.12917 0.0
O144 O 0.04649 0.84243 0.09384 0.0
O145 O 0.95311 0.87971 0.18074 0.0
O146 O 0.97431 0.92682 0.14621 0.0
C147 C 0.92402 0.79388 0.08058 0.0
O148 O 1.0096 0.79174 0.12655 0.0
O149 O 0.96023 0.80583 0.16501 0.0
C150 C 0.05718 0.86467 0.1208 0.0
O151 O 0.95914 0.79166 0.07186 0.0
O152 O 0.9116 0.81736 0.10561 0.0
C153 C 0.9159 0.91218 0.08948 0.0
Fe154 Fe 0.38558 0.75186 0.37604 0.0
Fe155 Fe 0.47162 0.76052 0.35921 0.0
O156 O 0.43358 0.73394 0.38099 0.0
Fe157 Fe 0.44168 0.69071 0.40725 0.0
O158 O 0.39866 0.66709 0.38409 0.0
O159 O 0.37423 0.71228 0.34524 0.0
O160 O 0.39387 0.78068 0.33282 0.0
C161 C 0.41807 0.77882 0.3057 0.0
C162 C 0.37742 0.7145 0.44828 0.0
O163 O 0.44922 0.76143 0.31175 0.0
C164 C 0.50553 0.74048 0.42912 0.0
O165 O 0.39676 0.79222 0.40709 0.0
O166 O 0.44954 0.80609 0.37416 0.0
O167 O 0.41326 0.70694 0.44975 0.0
O168 O 0.36364 0.72713 0.41722 0.0
C169 C 0.4942 0.68265 0.34546 0.0
O170 O 0.49903 0.76388 0.4025 0.0
O171 O 0.48627 0.70911 0.43256 0.0
C172 C 0.42452 0.81471 0.39994 0.0
O173 O 0.49919 0.71861 0.34235 0.0
O174 O 0.46998 0.66866 0.36868 0.0
C175 C 0.37749 0.67742 0.35523 0.0
Fe176 Fe 0.41837 0.02054 0.39429 0.0
Fe177 Fe 0.43458 0.02151 0.30857 0.0
O178 O 0.41283 0.04388 0.34952 0.0
Fe179 Fe 0.38692 0.0883 0.34702 0.0
O180 O 0.40938 0.10653 0.39396 0.0
O181 O 0.44833 0.05847 0.4106 0.0
O182 O 0.46415 0.99465 0.38288 0.0
C183 C 0.49099 1.00427 0.36012 0.0
C184 C 0.3442 0.05758 0.40686 0.0
O185 O 0.48273 0.02256 0.32992 0.0
C186 C 0.3641 0.04384 0.27827 0.0
O187 O 0.38867 0.98211 0.37742 0.0
O188 O 0.4248 0.97252 0.32656 0.0
O189 O 0.34347 0.07095 0.37287 0.0
O190 O 0.37489 0.04115 0.41813 0.0
C191 C 0.4468 0.10081 0.29426 0.0
O192 O 0.38985 0.01869 0.28363 0.0
O193 O 0.36176 0.07433 0.29983 0.0
C194 C 0.40119 0.95986 0.35159 0.0
O195 O 0.44718 0.066 0.28375 0.0
O196 O 0.4264 0.11236 0.32213 0.0
C197 C 0.43731 0.09265 0.41474 0.0
Fe198 Fe 0.25776 0.17675 0.55607 0.0
Fe199 Fe 0.19075 0.12972 0.58866 0.0
O200 O 0.23446 0.15506 0.59638 0.0
Fe201 Fe 0.25518 0.15781 0.64301 0.0
O202 O 0.25944 0.21053 0.64167 0.0
O203 O 0.28166 0.21578 0.58279 0.0
O204 O 0.21683 0.2087 0.54834 0.0
C205 C 0.18381 0.19588 0.54001 0.0
C206 C 0.31752 0.1412 0.59278 0.0
O207 O 0.17497 0.16109 0.54788 0.0
C208 C 0.22381 0.08617 0.65193 0.0
O209 O 0.23975 0.14195 0.52058 0.0
O210 O 0.21654 0.0951 0.55559 0.0
O211 O 0.30351 0.15112 0.62498 0.0
O212 O 0.29941 0.146 0.56166 0.0
C213 C 0.17588 0.17349 0.65445 0.0
O214 O 0.19614 0.09493 0.62942 0.0
O215 O 0.25426 0.10563 0.6504 0.0
C216 C 0.23417 0.10639 0.52517 0.0
O217 O 0.16473 0.16304 0.62101 0.0
O218 O 0.20909 0.16515 0.66729 0.0
C219 C 0.27688 0.22962 0.61611 0.0
Fe220 Fe 0.10144 1.01171 0.81667 0.0
Fe221 Fe 0.14998 0.9397 0.84094 0.0
O222 O 0.12158 0.98104 0.85252 0.0
Fe223 Fe 0.11228 0.99131 0.90204 0.0
O224 O 0.06794 0.02114 0.8955 0.0
O225 O 0.05268 1.0104 0.83601 0.0
O226 O 0.08592 0.97193 0.78476 0.0
C227 C 0.08899 0.9354 0.78768 0.0
C228 C 0.13528 0.0595 0.87532 0.0
O229 O 0.11257 0.91965 0.81062 0.0
C230 C 0.18819 0.95906 0.90836 0.0
O231 O 0.14618 0.01826 0.79145 0.0
O232 O 0.17487 0.9617 0.79799 0.0
O233 O 0.14146 0.03319 0.89951 0.0
O234 O 0.11507 0.0547 0.84484 0.0
C235 C 0.09501 0.91598 0.89778 0.0
O236 O 0.19098 0.95554 0.8719 0.0
O237 O 0.15486 0.96511 0.92243 0.0
C238 C 0.17168 0.99456 0.78143 0.0
O239 O 0.12747 0.91091 0.88053 0.0
O240 O 0.08241 0.94952 0.90449 0.0
C241 C 0.04344 0.02262 0.86865 0.0
Fe242 Fe 0.3405 0.89607 0.10007 0.0
Fe243 Fe 0.27778 0.8645 0.1541 0.0
O244 O 0.29803 0.86851 0.10737 0.0
Fe245 Fe 0.27502 0.84291 0.06975 0.0
O246 O 0.31817 0.8295 0.04313 0.0
O247 O 0.36566 0.85633 0.07538 0.0
O248 O 0.36299 0.87707 0.14649 0.0
C249 C 0.35254 0.84925 0.16898 0.0
C250 C 0.29029 0.91206 0.03309 0.0
O251 O 0.31882 0.83639 0.16801 0.0
C252 C 0.21607 0.88103 0.11069 0.0
O253 O 0.32225 0.94014 0.12528 0.0
O254 O 0.29806 0.9095 0.17404 0.0
O255 O 0.2679 0.88506 0.04116 0.0
O256 O 0.32184 0.91746 0.05249 0.0
C257 C 0.26006 0.79023 0.12507 0.0
O258 O 0.23574 0.89194 0.13936 0.0
O259 O 0.22849 0.8534 0.0901 0.0
C260 C 0.31156 0.94042 0.16033 0.0
O261 O 0.25263 0.81808 0.14742 0.0
O262 O 0.27885 0.79679 0.09478 0.0
C263 C 0.35363 0.83298 0.05012 0.0
Fe264 Fe 0.92057 0.48809 0.62392 0.0
Fe265 Fe 0.92568 0.50948 0.70922 0.0
O266 O 0.90827 0.47835 0.67272 0.0
Fe267 Fe 0.87909 0.43781 0.68308 0.0
O268 O 0.90307 0.40806 0.64362 0.0
O269 O 0.94983 0.44566 0.62259 0.0
O270 O 0.96492 0.51691 0.63366 0.0
C271 C 0.98727 0.51793 0.66246 0.0
C272 C 0.84501 0.45802 0.6139 0.0
O273 O 0.97563 0.50528 0.69403 0.0
C274 C 0.85333 0.49472 0.73994 0.0
O275 O 0.89133 0.52994 0.62467 0.0
O276 O 0.91583 0.55233 0.67926 0.0
O277 O 0.84017 0.45462 0.6501 0.0
O278 O 0.87895 0.46315 0.60141 0.0
C279 C 0.93635 0.43384 0.74046 0.0
O280 O 0.87881 0.51818 0.73005 0.0
O281 O 0.85217 0.46093 0.72481 0.0
C282 C 0.89766 0.55691 0.64761 0.0
O283 O 0.93778 0.47039 0.74287 0.0
O284 O 0.91449 0.41757 0.71623 0.0
C285 C 0.93457 0.41286 0.62429 0.0
Fe286 Fe 0.76194 0.67774 0.96089 0.0
Fe287 Fe 0.83065 0.62841 0.9327 0.0
O288 O 0.7912 0.6597 0.92289 0.0
Fe289 Fe 0.78089 0.67333 0.8748 0.0
O290 O 0.75962 0.72159 0.88717 0.0
O291 O 0.77166 0.72781 0.94878 0.0
O292 O 0.8012 0.68083 0.99624 0.0
C293 C 0.83706 0.68363 0.99023 0.0
C294 C 0.70901 0.6606 0.90108 0.0
O295 O 0.85312 0.66549 0.96278 0.0
C296 C 0.80533 0.59391 0.86549 0.0
O297 O 0.74881 0.63009 0.97592 0.0
O298 O 0.80707 0.60466 0.97588 0.0
O299 O 0.73447 0.6507 0.87711 0.0
O300 O 0.71822 0.6774 0.93202 0.0
C301 C 0.85835 0.67801 0.87179 0.0
O302 O 0.81081 0.58967 0.90162 0.0
O303 O 0.79955 0.62786 0.85242 0.0
C304 C 0.77188 0.6046 0.98746 0.0
O305 O 0.86088 0.64709 0.89185 0.0
O306 O 0.82699 0.69655 0.87022 0.0
C307 C 0.76096 0.74257 0.91735 0.0
Fe308 Fe 0.59124 0.51528 0.20482 0.0
Fe309 Fe 0.64151 0.58482 0.1825 0.0
O310 O 0.60868 0.54797 0.16987 0.0
Fe311 Fe 0.5923 0.54517 0.12168 0.0
O312 O 0.54467 0.52393 0.13291 0.0
O313 O 0.5412 0.52727 0.19533 0.0
O314 O 0.58839 0.55169 0.24355 0.0
C315 C 0.58785 0.58835 0.24162 0.0
C316 C 0.60562 0.47054 0.13693 0.0
O317 O 0.60603 0.60617 0.21533 0.0
C318 C 0.67251 0.563 0.11262 0.0
O319 O 0.63922 0.49989 0.21845 0.0
O320 O 0.66484 0.55721 0.22361 0.0
O321 O 0.61292 0.49864 0.11568 0.0
O322 O 0.59135 0.47434 0.17054 0.0
C323 C 0.5918 0.62113 0.1258 0.0
O324 O 0.67828 0.56489 0.14895 0.0
O325 O 0.63784 0.56383 0.10019 0.0
C326 C 0.66415 0.52154 0.2332 0.0
O327 O 0.62386 0.61948 0.14417 0.0
O328 O 0.57049 0.59204 0.12594 0.0
C329 C 0.52557 0.51987 0.16371 0.0
Fe330 Fe 0.72931 0.34324 0.37104 0.0
Fe331 Fe 0.75795 0.34257 0.45476 0.0
O332 O 0.72499 0.3591 0.4194 0.0
Fe333 Fe 0.68652 0.39101 0.43149 0.0
O334 O 0.65359 0.37233 0.39304 0.0
O335 O 0.68354 0.31962 0.37497 0.0
O336 O 0.75367 0.29648 0.38145 0.0
C337 C 0.75878 0.27727 0.41205 0.0
C338 C 0.70809 0.42265 0.36165 0.0
O339 O 0.75112 0.29225 0.4439 0.0
C340 C 0.74677 0.41388 0.48524 0.0
O341 O 0.77451 0.36597 0.3658 0.0
O342 O 0.79909 0.34684 0.42185 0.0
O343 O 0.70555 0.42851 0.39805 0.0
O344 O 0.70806 0.38785 0.34969 0.0
C345 C 0.68343 0.33556 0.48893 0.0
O346 O 0.76993 0.39058 0.47022 0.0
O347 O 0.71164 0.41456 0.47388 0.0
C348 C 0.80225 0.36138 0.38839 0.0
O349 O 0.72018 0.33594 0.49172 0.0
O350 O 0.66571 0.35502 0.46344 0.0
C351 C 0.65322 0.33976 0.3758 0.0
Fe352 Fe 0.345 0.37585 0.09071 0.0
Fe353 Fe 0.40706 0.40644 0.03514 0.0
O354 O 0.3583 0.40401 0.05047 0.0
Fe355 Fe 0.32199 0.43017 0.02562 0.0
O356 O 0.31209 0.4591 0.06796 0.0
O357 O 0.30412 0.40836 0.10511 0.0
O358 O 0.37569 0.40591 0.1219 0.0
C359 C 0.41016 0.41609 0.11471 0.0
C360 C 0.28469 0.36071 0.04034 0.0
O361 O 0.42678 0.40611 0.08382 0.0
C362 C 0.3627 0.39933 0.967 0.0
O363 O 0.38455 0.33862 0.08466 0.0
O364 O 0.41211 0.35437 0.03058 0.0
O365 O 0.28305 0.39688 0.03687 0.0
O366 O 0.3123 0.34567 0.06002 0.0
C367 C 0.3859 0.48102 0.01822 0.0
O368 O 0.39376 0.40693 0.98453 0.0
O369 O 0.33026 0.40181 0.98299 0.0
C370 C 0.40727 0.32984 0.05683 0.0
O371 O 0.40804 0.45931 0.0375 0.0
O372 O 0.35323 0.46901 1.00789 0.0
C373 C 0.29824 0.44414 0.09811 0.0
Fe374 Fe 0.81172 0.108 1.00558 0.0
Fe375 Fe 0.84468 0.15172 0.93676 0.0
O376 O 0.85251 0.12672 0.98044 0.0
Fe377 Fe 0.89942 0.12137 1.00043 0.0
O378 O 0.89456 0.06902 1.0045 0.0
O379 O 0.83752 0.06962 0.03117 0.0
O380 O 0.80206 0.07447 0.96738 0.0
C381 C 0.79443 0.08533 0.93342 0.0
C382 C 0.85122 0.14463 0.06212 0.0
O383 O 0.80464 0.1189 0.92176 0.0
C384 C 0.90851 0.1949 0.96987 0.0
O385 O 0.77599 0.14147 0.98601 0.0
O386 O 0.81126 0.187 0.96223 0.0
O387 O 0.88219 0.12956 0.04927 0.0
O388 O 0.81976 0.14143 0.04423 0.0
C389 C 0.91077 0.10697 0.92082 0.0
O390 O 0.88484 0.18701 0.94281 0.0
O391 O 0.91048 0.17264 0.99852 0.0
C392 C 0.78089 0.17674 0.98052 0.0
O393 O 0.87748 0.11878 0.91 0.0
O394 O 0.92313 0.11272 0.95458 0.0
C395 C 0.86834 0.05204 0.02296 0.0
Fe396 Fe 0.13298 0.59644 0.19641 0.0
Fe397 Fe 0.17026 0.66109 0.244 0.0
O398 O 0.16387 0.61088 0.23439 0.0
Fe399 Fe 0.18936 0.57777 0.26322 0.0
O400 O 0.20872 0.54981 0.22358 0.0
O401 O 0.16663 0.56019 0.17691 0.0
O402 O 0.15751 0.63303 0.16416 0.0
C403 C 0.18826 0.65379 0.1691 0.0
C404 C 0.11796 0.53895 0.2545 0.0
O405 O 0.20015 0.66338 0.20237 0.0
C406 C 0.1477 0.63257 0.31133 0.0
O407 O 0.09339 0.63008 0.21063 0.0
O408 O 0.12902 0.68051 0.21612 0.0
O409 O 0.15029 0.54557 0.26891 0.0
O410 O 0.10682 0.55831 0.22503 0.0
C411 C 0.24056 0.63437 0.27599 0.0
O412 O 0.14018 0.65694 0.28529 0.0
O413 O 0.17079 0.60367 0.30636 0.0
C414 C 0.09606 0.66642 0.21112 0.0
O415 O 0.21354 0.65861 0.27585 0.0
O416 O 0.23484 0.60275 0.26055 0.0
C417 C 0.19688 0.54385 0.18972 0.0
Fe418 Fe 0.71979 0.93077 0.50974 0.0
Fe419 Fe 0.68602 0.88307 0.44417 0.0
O420 O 0.67861 0.9101 0.48704 0.0
Fe421 Fe 0.63233 0.91625 0.50791 0.0
O422 O 0.63723 0.96902 0.51314 0.0
O423 O 0.69534 0.9691 0.53677 0.0
O424 O 0.72518 0.96321 0.46956 0.0
C425 C 0.73336 0.95019 0.43645 0.0
C426 C 0.68374 0.89445 0.56835 0.0
O427 O 0.72531 0.91538 0.4273 0.0
C428 C 0.62434 0.84028 0.47998 0.0
O429 O 0.75545 0.89732 0.48952 0.0
O430 O 0.72022 0.84977 0.47008 0.0
O431 O 0.65132 0.90691 0.55599 0.0
O432 O 0.71465 0.89865 0.54973 0.0
C433 C 0.61999 0.92812 0.42752 0.0
O434 O 0.64741 0.84713 0.45239 0.0
O435 O 0.62011 0.86511 0.5062 0.0
C436 C 0.75128 0.86168 0.48569 0.0
O437 O 0.65242 0.91419 0.41681 0.0
O438 O 0.6083 0.92583 0.46209 0.0
C439 C 0.66369 0.98596 0.53145 0.0
Fe440 Fe 0.34872 0.46502 0.75439 0.0
Fe441 Fe 0.39991 0.43234 0.68898 0.0
O442 O 0.36976 0.42559 0.72937 0.0
Fe443 Fe 0.36052 0.37808 0.74621 0.0
O444 O 0.31397 0.38962 0.77045 0.0
O445 O 0.30007 0.44671 0.74793 0.0
O446 O 0.34026 0.4949 0.71218 0.0
C447 C 0.34197 0.48749 0.67665 0.0
C448 C 0.38067 0.41692 0.81051 0.0
O449 O 0.36256 0.46014 0.66354 0.0
C450 C 0.43764 0.36836 0.71922 0.0
O451 O 0.39408 0.48744 0.76409 0.0
O452 O 0.42352 0.47793 0.70853 0.0
O453 O 0.38763 0.38787 0.78961 0.0
O454 O 0.35515 0.44114 0.80021 0.0
C455 C 0.34927 0.36816 0.66992 0.0
O456 O 0.44013 0.40401 0.71101 0.0
O457 O 0.40441 0.35508 0.72601 0.0
C458 C 0.42067 0.49547 0.7412 0.0
O459 O 0.37979 0.38837 0.6636 0.0
O460 O 0.33388 0.36745 0.70296 0.0
C461 C 0.28936 0.41598 0.76366 0.0
Fe462 Fe 0.11848 0.6158 0.53879 0.0
Fe463 Fe 0.20206 0.59498 0.52022 0.0
O464 O 0.16821 0.61961 0.55016 0.0
Fe465 Fe 0.18217 0.64701 0.59105 0.0
O466 O 0.13956 0.62968 0.6204 0.0
O467 O 0.11041 0.58839 0.58132 0.0
O468 O 0.12249 0.57009 0.51248 0.0
C469 C 0.14495 0.54162 0.51648 0.0
C470 C 0.1194 0.6921 0.56858 0.0
O471 O 0.1789 0.54838 0.52667 0.0
C472 C 0.24354 0.66141 0.53463 0.0
O473 O 0.1257 0.64275 0.49571 0.0
O474 O 0.1748 0.60641 0.4759 0.0
O475 O 0.15575 0.69098 0.57409 0.0
O476 O 0.10209 0.66076 0.56229 0.0
C477 C 0.23208 0.5836 0.59581 0.0
O478 O 0.22987 0.63778 0.51077 0.0
O479 O 0.22783 0.66619 0.56794 0.0
C480 C 0.14811 0.63113 0.46966 0.0
O481 O 0.23385 0.58047 0.55955 0.0
O482 O 0.20908 0.60681 0.61224 0.0
C483 C 0.11714 0.60066 0.61473 0.0
Fe484 Fe 0.65854 0.8721 0.79131 0.0
Fe485 Fe 0.675 0.95794 0.77868 0.0
O486 O 0.6525 0.92087 0.80562 0.0
Fe487 Fe 0.62488 0.93264 0.84682 0.0
O488 O 0.65788 0.9034 0.87757 0.0
O489 O 0.65866 0.85252 0.84005 0.0
O490 O 0.71069 0.8757 0.795 0.0
C491 C 0.7316 0.89876 0.77635 0.0
C492 C 0.58196 0.86877 0.81243 0.0
O493 O 0.71646 0.92882 0.76232 0.0
C494 C 0.60345 0.99204 0.7968 0.0
O495 O 0.66012 0.88338 0.74035 0.0
O496 O 0.64672 0.94534 0.73691 0.0
O497 O 0.58983 0.89142 0.84069 0.0
O498 O 0.60687 0.86442 0.78624 0.0
C499 C 0.69001 0.98311 0.8511 0.0
O500 O 0.6388 0.99487 0.78908 0.0
O501 O 0.59158 0.96394 0.81756 0.0
C502 C 0.65028 0.91282 0.72126 0.0
O503 O 0.70403 0.97225 0.81937 0.0
O504 O 0.65535 0.97485 0.86041 0.0
C505 C 0.66943 0.86921 0.87045 0.0
Fe506 Fe 0.899 0.09351 0.33721 0.0
Fe507 Fe 0.86375 0.15445 0.28243 0.0
O508 O 0.8707 0.1058 0.29655 0.0
Fe509 Fe 0.848 0.06856 0.27012 0.0
O510 O 0.81882 0.05671 0.31141 0.0
O511 O 0.86858 0.05168 0.35066 0.0
O512 O 0.86756 0.12277 0.36877 0.0
C513 C 0.85551 0.15683 0.36229 0.0
C514 C 0.91889 0.03385 0.28795 0.0
O515 O 0.8626 0.17368 0.33098 0.0
C516 C 0.87516 0.11316 0.21307 0.0
O517 O 0.93372 0.13394 0.33144 0.0
O518 O 0.91556 0.16344 0.27858 0.0
O519 O 0.88324 0.03083 0.28181 0.0
O520 O 0.93145 0.06265 0.30708 0.0
C521 C 0.79061 0.12608 0.26675 0.0
O522 O 0.86401 0.14256 0.23172 0.0
O523 O 0.87625 0.07992 0.22792 0.0
C524 C 0.94097 0.15748 0.30416 0.0
O525 O 0.81068 0.1505 0.28497 0.0
O526 O 0.8077 0.09752 0.25229 0.0
C527 C 0.83332 0.04497 0.34267 0.0
C528 C 0.89795 0.40441 0.3904 0.0
C529 C 0.91902 0.37332 0.37358 0.0
C530 C 0.86065 0.34133 0.3535 0.0
C531 C 0.84004 0.36998 0.37415 0.0
N532 N 0.83518 0.43463 0.39882 0.0
N533 N 0.92273 0.32085 0.32827 0.0
C534 C 0.8575 0.40385 0.38769 0.0
C535 C 0.90098 0.34473 0.35108 0.0
N536 N 0.91601 0.43233 0.4116 0.0
N537 N 0.84196 0.3101 0.33849 0.0
H538 H 0.95261 0.32392 0.32598 0.0
H539 H 0.91113 0.30074 0.30923 0.0
H540 H 0.81193 0.3082 0.33778 0.0
H541 H 0.85608 0.28575 0.32769 0.0
H542 H 0.90128 0.45211 0.42892 0.0
H543 H 0.94584 0.43512 0.41347 0.0
H544 H 0.84638 0.46149 0.40617 0.0
H545 H 0.80505 0.43424 0.39701 0.0
C546 C 0.86364 0.61849 0.65308 0.0
C547 C 0.89094 0.5954 0.63366 0.0
C548 C 0.92104 0.65092 0.60421 0.0
C549 C 0.896 0.67409 0.62645 0.0
N550 N 0.8342 0.68117 0.65968 0.0
N551 N 0.93599 0.58712 0.5805 0.0
C552 C 0.86386 0.6584 0.64646 0.0
C553 C 0.91625 0.61071 0.60539 0.0
N554 N 0.83898 0.60233 0.6792 0.0
N555 N 0.9504 0.66743 0.58374 0.0
H556 H 0.93294 0.5573 0.57984 0.0
H557 H 0.95252 0.59735 0.55765 0.0
H558 H 0.95279 0.69729 0.58053 0.0
H559 H 0.97304 0.65184 0.57133 0.0
H560 H 0.82247 0.61829 0.69873 0.0
H561 H 0.8366 0.57253 0.6825 0.0
H562 H 0.80898 0.67005 0.67154 0.0
H563 H 0.83206 0.71075 0.65526 0.0
C564 C 0.65396 0.63981 0.85872 0.0
C565 C 0.66982 0.66625 0.88607 0.0
C566 C 0.62632 0.71533 0.86271 0.0
C567 C 0.60223 0.68646 0.84924 0.0
N568 N 0.59897 0.62627 0.81632 0.0
N569 N 0.65537 0.72401 0.92388 0.0
C570 C 0.61919 0.65071 0.83945 0.0
C571 C 0.65274 0.70342 0.89054 0.0
N572 N 0.67018 0.60412 0.85374 0.0
N573 N 0.61754 0.75318 0.85701 0.0
H574 H 0.66584 0.71224 0.94948 0.0
H575 H 0.63969 0.74953 0.9278 0.0
H576 H 0.59509 0.76132 0.8386 0.0
H577 H 0.63456 0.77523 0.8684 0.0
H578 H 0.66119 0.58447 0.83292 0.0
H579 H 0.69244 0.59386 0.87139 0.0
H580 H 0.60769 0.5983 0.80946 0.0
H581 H 0.57286 0.63522 0.80389 0.0
C582 C 0.57275 0.37563 0.09946 0.0
C583 C 0.60688 0.35461 0.10772 0.0
C584 C 0.64336 0.41306 0.11717 0.0
C585 C 0.60762 0.43278 0.11914 0.0
N586 N 0.54289 0.4388 0.09386 0.0
N587 N 0.67567 0.35354 0.09869 0.0
C588 C 0.57349 0.41602 0.10421 0.0
C589 C 0.64282 0.37364 0.10742 0.0
N590 N 0.54032 0.35684 0.08767 0.0
N591 N 0.67699 0.43136 0.12632 0.0
H592 H 0.67447 0.32473 0.08994 0.0
H593 H 0.70275 0.36625 0.09616 0.0
H594 H 0.67811 0.46091 0.13213 0.0
H595 H 0.70336 0.41701 0.12938 0.0
H596 H 0.5131 0.3695 0.08505 0.0
H597 H 0.54149 0.32799 0.07945 0.0
H598 H 0.51696 0.42861 0.08276 0.0
H599 H 0.54514 0.46866 0.09269 0.0
C600 C 0.40878 0.18454 0.5933 0.0
C601 C 0.4245 0.16724 0.62691 0.0
C602 C 0.37473 0.11772 0.62544 0.0
C603 C 0.35927 0.13583 0.59232 0.0
N604 N 0.37167 0.17339 0.53543 0.0
N605 N 0.42233 0.11943 0.67705 0.0
C606 C 0.3799 0.16476 0.57297 0.0
C607 C 0.40721 0.13429 0.64372 0.0
N608 N 0.4206 0.2201 0.58126 0.0
N609 N 0.3566 0.08587 0.63972 0.0
H610 H 0.44497 0.13295 0.69163 0.0
H611 H 0.41221 0.09489 0.6909 0.0
H612 H 0.33304 0.07374 0.62535 0.0
H613 H 0.36499 0.071 0.66442 0.0
H614 H 0.40769 0.23473 0.55831 0.0
H615 H 0.43941 0.23725 0.59711 0.0
H616 H 0.38815 0.19242 0.51908 0.0
H617 H 0.35159 0.15778 0.51942 0.0
C618 C 0.1238 0.15931 0.91348 0.0
C619 C 0.14501 0.17792 0.88437 0.0
C620 C 0.17358 0.11723 0.86358 0.0
C621 C 0.1456 0.09846 0.88607 0.0
N622 N 0.09753 0.09933 0.93676 0.0
N623 N 0.19425 0.17713 0.83487 0.0
C624 C 0.12238 0.1187 0.91318 0.0
C625 C 0.17199 0.15777 0.86094 0.0
N626 N 0.1052 0.18075 0.941 0.0
N627 N 0.2012 0.09595 0.84491 0.0
H628 H 0.19609 0.2071 0.83429 0.0
H629 H 0.21039 0.16362 0.81335 0.0
H630 H 0.20269 0.06594 0.84748 0.0
H631 H 0.2244 0.10789 0.83014 0.0
H632 H 0.0914 0.16898 0.96489 0.0
H633 H 0.10676 0.21083 0.94165 0.0
H634 H 0.07578 0.11271 0.95275 0.0
H635 H 0.09823 0.06949 0.94004 0.0
C636 C 0.116 0.896 0.14984 0.0
C637 C 0.09889 0.86521 0.12895 0.0
C638 C 0.15353 0.85972 0.08764 0.0
C639 C 0.17384 0.88672 0.11024 0.0
N640 N 0.17192 0.93804 0.15712 0.0
N641 N 0.11134 0.80595 0.0939 0.0
C642 C 0.15439 0.90723 0.14007 0.0
C643 C 0.12143 0.84272 0.10368 0.0
N644 N 0.09613 0.91275 0.17955 0.0
N645 N 0.16569 0.84935 0.05163 0.0
H646 H 0.08942 0.79139 0.10849 0.0
H647 H 0.12803 0.78879 0.07548 0.0
H648 H 0.18776 0.86424 0.03762 0.0
H649 H 0.15066 0.82975 0.03445 0.0
H650 H 0.10622 0.93569 0.196 0.0
H651 H 0.07009 0.9014 0.18949 0.0
H652 H 0.16 0.95421 0.17948 0.0
H653 H 0.19775 0.94924 0.14652 0.0
C654 C 0.451 0.87833 0.3952 0.0
C655 C 0.42111 0.85601 0.41018 0.0
C656 C 0.3744 0.90379 0.38746 0.0
C657 C 0.40407 0.91933 0.36368 0.0
N658 N 0.46569 0.90513 0.33373 0.0
N659 N 0.35837 0.85807 0.43847 0.0
C660 C 0.44152 0.90275 0.36458 0.0
C661 C 0.38368 0.87224 0.41212 0.0
N662 N 0.48836 0.87025 0.40468 0.0
N663 N 0.33764 0.91813 0.38477 0.0
H664 H 0.36782 0.83801 0.45887 0.0
H665 H 0.33043 0.8685 0.44263 0.0
H666 H 0.33023 0.93952 0.36482 0.0
H667 H 0.31423 0.90727 0.40002 0.0
H668 H 0.51133 0.88616 0.39363 0.0
H669 H 0.49506 0.84965 0.42574 0.0
H670 H 0.49149 0.88939 0.33261 0.0
H671 H 0.45694 0.91684 0.3074 0.0
C672 C 0.35636 0.43744 0.90852 0.0
C673 C 0.36464 0.40113 0.92549 0.0
C674 C 0.40234 0.38174 0.86939 0.0
C675 C 0.39056 0.41646 0.8517 0.0
N676 N 0.37655 0.48381 0.86096 0.0
N677 N 0.39312 0.33759 0.92287 0.0
C678 C 0.37473 0.44668 0.87393 0.0
C679 C 0.38732 0.3729 0.90623 0.0
N680 N 0.33013 0.46248 0.92448 0.0
N681 N 0.42967 0.35922 0.85196 0.0
H682 H 0.3808 0.33035 0.94939 0.0
H683 H 0.40728 0.3147 0.90932 0.0
H684 H 0.44406 0.36876 0.82729 0.0
H685 H 0.44119 0.33412 0.86396 0.0
H686 H 0.32162 0.48822 0.91138 0.0
H687 H 0.31289 0.45566 0.94801 0.0
H688 H 0.36657 0.50755 0.8766 0.0
H689 H 0.39261 0.49085 0.83652 0.0
C690 C 0.82247 0.13263 0.12473 0.0
C691 C 0.85017 0.15294 0.10341 0.0
C692 C 0.89772 0.14391 0.15425 0.0
C693 C 0.87215 0.11744 0.17173 0.0
N694 N 0.81305 0.08048 0.16923 0.0
N695 N 0.90739 0.19078 0.10281 0.0
C696 C 0.83523 0.11002 0.15578 0.0
C697 C 0.88569 0.16315 0.12029 0.0
N698 N 0.7843 0.13504 0.11522 0.0
N699 N 0.93349 0.14951 0.16991 0.0
H700 H 0.89694 0.20537 0.07851 0.0
H701 H 0.93364 0.20086 0.11327 0.0
H702 H 0.943 0.13397 0.19398 0.0
H703 H 0.95431 0.1676 0.15827 0.0
H704 H 0.76257 0.12279 0.13187 0.0
H705 H 0.77431 0.15346 0.09359 0.0
H706 H 0.78718 0.07235 0.15622 0.0
H707 H 0.82288 0.06088 0.18984 0.0
C708 C 0.10959 0.62029 0.37001 0.0
C709 C 0.13708 0.64289 0.35055 0.0
C710 C 0.16339 0.66719 0.41068 0.0
C711 C 0.13896 0.64129 0.43015 0.0
N712 N 0.08069 0.60315 0.4312 0.0
N713 N 0.17849 0.69891 0.3506 0.0
C714 C 0.10901 0.62129 0.41075 0.0
C715 C 0.15999 0.67032 0.37032 0.0
N716 N 0.08524 0.59718 0.34938 0.0
N717 N 0.19074 0.68741 0.43065 0.0
H718 H 0.17533 0.70305 0.32104 0.0
H719 H 0.19349 0.72118 0.36397 0.0
H720 H 0.19204 0.68765 0.46074 0.0
H721 H 0.21302 0.7026 0.41751 0.0
H722 H 0.06737 0.57651 0.36165 0.0
H723 H 0.084 0.59796 0.31927 0.0
H724 H 0.05668 0.59031 0.41863 0.0
H725 H 0.07924 0.60384 0.46119 0.0
C726 C 0.65331 0.86692 0.6248 0.0
C727 C 0.68585 0.8855 0.60933 0.0
C728 C 0.69199 0.92635 0.66549 0.0
C729 C 0.6573 0.91011 0.68009 0.0
N730 N 0.60303 0.86754 0.67353 0.0
N731 N 0.74585 0.91807 0.62209 0.0
C732 C 0.63758 0.88065 0.65984 0.0
C733 C 0.70857 0.91018 0.63216 0.0
N734 N 0.63763 0.83678 0.60496 0.0
N735 N 0.70811 0.9584 0.68189 0.0
H736 H 0.75944 0.90542 0.59841 0.0
H737 H 0.7649 0.93287 0.63999 0.0
H738 H 0.69595 0.97366 0.7047 0.0
H739 H 0.73117 0.97316 0.66964 0.0
H740 H 0.61479 0.82014 0.61489 0.0
H741 H 0.64994 0.8269 0.57921 0.0
H742 H 0.586 0.84725 0.65951 0.0
H743 H 0.58996 0.87942 0.698 0.0
C744 C 0.10055 0.50342 0.47485 0.0
C745 C 0.1343 0.50365 0.49787 0.0
C746 C 0.14856 0.43821 0.47195 0.0
C747 C 0.11881 0.44326 0.44427 0.0
N748 N 0.07874 0.48968 0.41099 0.0
N749 N 0.19136 0.46767 0.51873 0.0
C750 C 0.09958 0.47927 0.44259 0.0
C751 C 0.15907 0.47013 0.49633 0.0
N752 N 0.06821 0.52387 0.48484 0.0
N753 N 0.1653 0.40268 0.47623 0.0
H754 H 0.19694 0.48647 0.54133 0.0
H755 H 0.21262 0.44659 0.51475 0.0
H756 H 0.15889 0.37972 0.45781 0.0
H757 H 0.1839 0.39567 0.49886 0.0
H758 H 0.04281 0.52267 0.46861 0.0
H759 H 0.06491 0.53657 0.51197 0.0
H760 H 0.06465 0.51635 0.40892 0.0
H761 H 0.08103 0.4742 0.38547 0.0
C762 C 0.80093 0.83796 0.72168 0.0
C763 C 0.83219 0.86308 0.71209 0.0
C764 C 0.79911 0.91369 0.75007 0.0
C765 C 0.77082 0.88628 0.76225 0.0
N766 N 0.76073 0.81796 0.77388 0.0
N767 N 0.86323 0.92423 0.72294 0.0
C768 C 0.77669 0.84711 0.75279 0.0
C769 C 0.83188 0.90103 0.72772 0.0
N770 N 0.79387 0.80492 0.70138 0.0
N771 N 0.79541 0.95141 0.76092 0.0
H772 H 0.88717 0.91603 0.70657 0.0
H773 H 0.86656 0.95051 0.73714 0.0
H774 H 0.77549 0.96048 0.78167 0.0
H775 H 0.81182 0.97355 0.74909 0.0
H776 H 0.76934 0.7882 0.7061 0.0
H777 H 0.80946 0.79646 0.6773 0.0
H778 H 0.76675 0.78892 0.76828 0.0
H779 H 0.7475 0.82217 0.80048 0.0
C780 C 0.40378 0.58668 0.989 0.0
C781 C 0.42046 0.5813 0.95182 0.0
C782 C 0.4231 0.51147 0.96415 0.0
C783 C 0.40126 0.51618 0.99847 0.0
N784 N 0.36472 0.55878 0.03999 0.0
N785 N 0.43602 0.53682 0.90055 0.0
C786 C 0.38934 0.55397 1.00961 0.0
C787 C 0.42654 0.54298 0.9383 0.0
N788 N 0.4044 0.62213 1.00606 0.0
N789 N 0.44163 0.47738 0.95658 0.0
H790 H 0.43467 0.55889 0.88011 0.0
H791 H 0.44112 0.50958 0.88884 0.0
H792 H 0.44313 0.45505 0.97653 0.0
H793 H 0.46013 0.47338 0.9332 0.0
H794 H 0.39577 0.62686 0.03451 0.0
H795 H 0.41751 0.64577 0.99318 0.0
H796 H 0.35252 0.58545 0.04715 0.0
H797 H 0.35437 0.5356 0.05607 0.0
C798 C 0.69311 0.17683 0.24614 0.0
C799 C 0.684 0.15872 0.2106 0.0
C800 C 0.73105 0.10855 0.22699 0.0
C801 C 0.74912 0.13385 0.2543 0.0
N802 N 0.74051 0.1902 0.29522 0.0
N803 N 0.6934 0.10466 0.16797 0.0
C804 C 0.72806 0.16742 0.26569 0.0
C805 C 0.70243 0.12351 0.20131 0.0
N806 N 0.66694 0.20163 0.26209 0.0
N807 N 0.739 0.06989 0.22732 0.0
H808 H 0.67202 0.11457 0.14913 0.0
H809 H 0.70878 0.08055 0.15825 0.0
H810 H 0.75481 0.05686 0.24946 0.0
H811 H 0.72497 0.05029 0.20937 0.0
H812 H 0.63983 0.20539 0.24956 0.0
H813 H 0.66991 0.21378 0.28944 0.0
H814 H 0.72958 0.21788 0.30025 0.0
H815 H 0.76123 0.1814 0.31503 0.0
C816 C 0.65202 0.02292 0.59352 0.0
C817 C 0.65634 0.02318 0.55267 0.0
C818 C 0.64485 0.09344 0.55319 0.0
C819 C 0.6419 0.09298 0.59411 0.0
N820 N 0.65395 0.05937 0.65336 0.0
N821 N 0.66887 0.06102 0.49574 0.0
C822 C 0.65008 0.05838 0.61415 0.0
C823 C 0.65669 0.05924 0.53312 0.0
N824 N 0.64681 0.98895 0.61257 0.0
N825 N 0.63385 0.12566 0.53328 0.0
H826 H 0.67889 0.03675 0.48087 0.0
H827 H 0.67261 0.08698 0.48105 0.0
H828 H 0.62497 0.15095 0.54714 0.0
H829 H 0.63113 0.12629 0.50333 0.0
H830 H 0.63852 0.98756 0.64144 0.0
H831 H 0.64639 0.96249 0.59853 0.0
H832 H 0.66269 0.03558 0.66965 0.0
H833 H 0.65203 0.08523 0.66882 0.0
C834 C 0.2465 0.42376 0.82193 0.0
C835 C 0.25051 0.4143 0.78221 0.0
C836 C 0.18284 0.39434 0.78174 0.0
C837 C 0.18308 0.39292 0.82269 0.0
N838 N 0.21568 0.40807 0.8825 0.0
N839 N 0.2214 0.39179 0.72328 0.0
C840 C 0.21469 0.40894 0.84312 0.0
C841 C 0.21806 0.40062 0.76155 0.0
N842 N 0.27233 0.44785 0.83908 0.0
N843 N 0.14899 0.38813 0.76257 0.0
H844 H 0.24702 0.39559 0.70798 0.0
H845 H 0.19962 0.37856 0.7074 0.0
H846 H 0.12314 0.38347 0.77737 0.0
H847 H 0.14598 0.39114 0.7328 0.0
H848 H 0.26921 0.4579 0.86726 0.0
H849 H 0.29336 0.46217 0.82328 0.0
H850 H 0.24046 0.41434 0.89838 0.0
H851 H 0.19227 0.39971 0.8993 0.0
C852 C 0.87217 0.96908 0.09559 0.0
C853 C 0.88672 0.9389 0.07249 0.0
C854 C 0.88344 0.98068 0.01525 0.0
C855 C 0.87491 1.01275 0.0396 0.0
N856 N 0.86796 0.03802 0.10427 0.0
N857 N 0.89281 0.911 1.00988 0.0
C858 C 0.8702 1.00699 0.08006 0.0
C859 C 0.88768 0.94328 0.03193 0.0
N860 N 0.86068 0.96155 0.13247 0.0
N861 N 0.88939 0.98627 0.97671 0.0
H862 H 0.89449 0.88375 0.02262 0.0
H863 H 0.89198 0.91044 0.97988 0.0
H864 H 0.88713 1.01324 0.96375 0.0
H865 H 0.89869 0.9649 0.95771 0.0
H866 H 0.84688 0.98188 0.14995 0.0
H867 H 0.86105 0.93369 0.14384 0.0
H868 H 0.8694 0.03552 0.13417 0.0
H869 H 0.86968 0.0664 0.0946 0.0
C870 C 0.31366 0.64503 0.35862 0.0
C871 C 0.34799 0.65196 0.33771 0.0
C872 C 0.31241 0.64597 0.27651 0.0
C873 C 0.27754 0.64066 0.29743 0.0
N874 N 0.24743 0.6246 0.35834 0.0
N875 N 0.38277 0.64856 0.27817 0.0
C876 C 0.27891 0.63703 0.33845 0.0
C877 C 0.3481 0.64868 0.29696 0.0
N878 N 0.31378 0.64814 0.3979 0.0
N879 N 0.31117 0.65002 0.23727 0.0
H880 H 0.40885 0.64967 0.29329 0.0
H881 H 0.38592 0.64369 0.24869 0.0
H882 H 0.28557 0.64829 0.22146 0.0
H883 H 0.33488 0.65768 0.22056 0.0
H884 H 0.28885 0.65061 0.4146 0.0
H885 H 0.33922 0.64921 0.41378 0.0
H886 H 0.24789 0.61677 0.38735 0.0
H887 H 0.2214 0.61905 0.34516 0.0
C888 C 0.47186 0.14849 0.44815 0.0
C889 C 0.45398 0.11175 0.45002 0.0
C890 C 0.48163 0.10172 0.51525 0.0
C891 C 0.4978 0.1393 0.5144 0.0
N892 N 0.50656 0.1998 0.48097 0.0
N893 N 0.4378 0.05545 0.48914 0.0
C894 C 0.49203 0.16319 0.48123 0.0
C895 C 0.45806 0.08901 0.48445 0.0
N896 N 0.47201 0.16815 0.41396 0.0
N897 N 0.48834 0.07729 0.54562 0.0
H898 H 0.42062 0.04277 0.46835 0.0
H899 H 0.43432 0.04163 0.51558 0.0
H900 H 0.49549 0.08597 0.57335 0.0
H901 H 0.48695 0.04733 0.54304 0.0
H902 H 0.48837 0.19274 0.40894 0.0
H903 H 0.45774 0.15841 0.38935 0.0
H904 H 0.49899 0.22054 0.46055 0.0
H905 H 0.52536 0.21009 0.50206 0.0
C906 C 0.15947 0.23753 0.68257 0.0
C907 C 0.15136 0.1975 0.6803 0.0
C908 C 0.1156 0.20183 0.74133 0.0
C909 C 0.12981 0.23998 0.74698 0.0
N910 N 0.16527 0.29451 0.72303 0.0
N911 N 0.12295 0.14065 0.70754 0.0
C912 C 0.15139 0.2581 0.71735 0.0
C913 C 0.1292 0.17953 0.70942 0.0
N914 N 0.17534 0.25558 0.65138 0.0
N915 N 0.0892 0.18681 0.76637 0.0
H916 H 0.13097 0.12407 0.68363 0.0
H917 H 0.11174 0.12457 0.73026 0.0
H918 H 0.07814 0.20215 0.78974 0.0
H919 H 0.07536 0.16058 0.76192 0.0
H920 H 0.17922 0.28531 0.64957 0.0
H921 H 0.18143 0.24093 0.62574 0.0
H922 H 0.18507 0.30766 0.70477 0.0
H923 H 0.15844 0.3109 0.74736 0.0
C924 C 0.09777 0.8825 0.95876 0.0
C925 C 0.07843 0.88648 0.92357 0.0
C926 C 0.0167 0.87378 0.9563 0.0
C927 C 0.03555 0.87782 0.99274 0.0
N928 N 0.09491 0.89562 0.02637 0.0
N929 N 0.02047 0.88259 0.88645 0.0
C930 C 0.07637 0.88454 0.99349 0.0
C931 C 0.03816 0.88001 0.9216 0.0
N932 N 0.13709 0.8792 0.95883 0.0
N933 N 0.97801 0.86649 0.95489 0.0
H934 H 0.03656 0.88537 0.86111 0.0
H935 H 0.99068 0.88284 0.88237 0.0
H936 H 0.9605 0.86743 0.97927 0.0
H937 H 0.96332 0.85911 0.92975 0.0
H938 H 0.15347 0.87637 0.98369 0.0
H939 H 0.15295 0.87538 0.93352 0.0
H940 H 0.12228 0.90801 0.02579 0.0
H941 H 0.08261 0.89652 0.05351 0.0
C942 C 0.35819 0.83918 0.24081 0.0
C943 C 0.37525 0.83636 0.20339 0.0
C944 C 0.42704 0.79626 0.2325 0.0
C945 C 0.41045 0.80262 0.26988 0.0
N946 N 0.37466 0.84999 0.30668 0.0
N947 N 0.42972 0.81613 0.16488 0.0
C948 C 0.38084 0.83056 0.273 0.0
C949 C 0.41124 0.81653 0.19968 0.0
N950 N 0.32041 0.84946 0.2469 0.0
N951 N 0.45682 0.77073 0.22767 0.0
H952 H 0.41808 0.82906 0.14028 0.0
H953 H 0.45768 0.80547 0.16109 0.0
H954 H 0.47234 0.75881 0.25038 0.0
H955 H 0.46585 0.76084 0.20074 0.0
H956 H 0.30759 0.84696 0.27405 0.0
H957 H 0.30131 0.8595 0.22609 0.0
H958 H 0.35365 0.87151 0.3096 0.0
H959 H 0.39402 0.848 0.32956 0.0
C960 C 0.93989 0.36414 0.52633 0.0
C961 C 0.97978 0.37054 0.51898 0.0
C962 C 0.98966 0.38459 0.5877 0.0
C963 C 0.94894 0.38565 0.59364 0.0
N964 N 0.88492 0.37312 0.56881 0.0
N965 N 0.04307 0.38711 0.54239 0.0
C966 C 0.92398 0.37363 0.56325 0.0
C967 C 1.0049 0.38016 0.54976 0.0
N968 N 0.91729 0.34821 0.49822 0.0
N969 N 1.01372 0.38902 0.61862 0.0
H970 H 0.0554 0.38372 0.51513 0.0
H971 H 0.06207 0.39876 0.5625 0.0
H972 H 1.00329 0.39386 0.64638 0.0
H973 H 0.04352 0.38483 0.61746 0.0
H974 H 0.88915 0.3388 0.50278 0.0
H975 H 0.92769 0.34148 0.47086 0.0
H976 H 0.8649 0.37187 0.5464 0.0
H977 H 0.87225 0.37403 0.59597 0.0
C978 C 0.90046 0.72711 0.8412 0.0
C979 C 0.88748 0.68847 0.84172 0.0
C980 C 0.90421 0.68253 0.77291 0.0
C981 C 0.90912 0.72323 0.77098 0.0
N982 N 0.91222 0.78482 0.80347 0.0
N983 N 0.88162 0.62725 0.80925 0.0
C984 C 0.90806 0.74563 0.80533 0.0
C985 C 0.89141 0.66533 0.80803 0.0
N986 N 0.90574 0.74571 0.87548 0.0
N987 N 0.91283 0.66024 0.74144 0.0
H988 H 0.87764 0.6126 0.83512 0.0
H989 H 0.8774 0.61021 0.78486 0.0
H990 H 0.92314 0.67181 0.71575 0.0
H991 H 0.91315 0.63019 0.74162 0.0
H992 H 0.91755 0.77317 0.878 0.0
H993 H 0.90239 0.7312 0.90163 0.0
H994 H 0.90741 0.80315 0.82683 0.0
H995 H 0.918 0.79944 0.77783 0.0
C996 C 0.54564 0.65812 0.0851 0.0
C997 C 0.58466 0.64783 0.09232 0.0
C998 C 0.59872 0.65365 0.02277 0.0
C999 C 0.55853 0.65855 0.01522 0.0
N1000 N 0.49329 0.66535 0.0389 0.0
N1001 N 0.65054 0.65063 0.07033 0.0
C1002 C 0.53192 0.66137 0.0464 0.0
C1003 C 0.61201 0.65029 0.06181 0.0
N1004 N 0.52197 0.66479 0.11596 0.0
N1005 N 0.62383 0.65014 0.99246 0.0
H1006 H 0.66075 0.65191 0.09857 0.0
H1007 H 0.6723 0.65426 0.04999 0.0
H1008 H 0.61512 0.65268 0.96374 0.0
H1009 H 0.65277 0.64229 0.9953 0.0
H1010 H 0.49371 0.675 0.11388 0.0
H1011 H 0.53242 0.6635 0.14422 0.0
H1012 H 0.47182 0.66367 0.05982 0.0
H1013 H 0.48221 0.66798 1.01107 0.0
C1014 C 0.61471 0.2928 0.33838 0.0
C1015 C 0.62597 0.33164 0.3437 0.0
C1016 C 0.62525 0.34191 0.27378 0.0
C1017 C 0.61665 0.30225 0.26821 0.0
N1018 N 0.58955 0.24412 0.29535 0.0
N1019 N 0.62415 0.39625 0.31799 0.0
C1020 C 0.60693 0.27896 0.30057 0.0
C1021 C 0.62524 0.35733 0.31186 0.0
N1022 N 0.61351 0.26873 0.36957 0.0
N1023 N 0.63467 0.36459 0.24296 0.0
H1024 H 0.621 0.40808 0.34547 0.0
H1025 H 0.62127 0.41643 0.29587 0.0
H1026 H 0.63468 0.35451 0.21459 0.0
H1027 H 0.64531 0.39252 0.2458 0.0
H1028 H 0.61082 0.23887 0.36742 0.0
H1029 H 0.61687 0.279 0.39773 0.0
H1030 H 0.57839 0.22766 0.31782 0.0
H1031 H 0.58342 0.2331 0.26819 0.0
C1032 C 0.49075 0.45704 0.17623 0.0
C1033 C 0.48969 0.49601 0.16272 0.0
C1034 C 0.42593 0.48356 0.1345 0.0
C1035 C 0.43159 0.44327 0.14002 0.0
N1036 N 0.4702 0.3911 0.16502 0.0
N1037 N 0.45543 0.54682 0.12965 0.0
C1038 C 0.46403 0.4299 0.16101 0.0
C1039 C 0.45674 0.50951 0.14242 0.0
N1040 N 0.51683 0.44573 0.20365 0.0
N1041 N 0.39118 0.49691 0.12139 0.0
H1042 H 0.47646 0.56705 0.13692 0.0
H1043 H 0.43456 0.55715 0.11051 0.0
H1044 H 0.36828 0.47847 0.11561 0.0
H1045 H 0.38388 0.5261 0.12028 0.0
H1046 H 0.51668 0.41845 0.21628 0.0
H1047 H 0.53554 0.4646 0.21744 0.0
H1048 H 0.49609 0.37931 0.17511 0.0
H1049 H 0.45006 0.37064 0.15604 0.0
C1050 C 0.9713 0.02503 0.88286 0.0
C1051 C 1.00613 0.04455 0.87381 0.0
C1052 C 0.97324 0.10697 0.88445 0.0
C1053 C 0.93872 0.0875 0.89423 0.0
N1054 N 0.90144 0.02955 0.89046 0.0
N1055 N 0.03497 0.10394 0.85198 0.0
C1056 C 0.93664 0.04693 0.88921 0.0
C1057 C 1.00551 0.08552 0.8703 0.0
N1058 N 0.97161 0.98579 0.88681 0.0
N1059 N 0.97549 0.14601 0.88963 0.0
H1060 H 0.05669 0.08887 0.83774 0.0
H1061 H 0.03502 0.13346 0.84628 0.0
H1062 H 0.95152 0.16286 0.89715 0.0
H1063 H 1.00132 0.16124 0.88822 0.0
H1064 H 0.94817 0.97022 0.89717 0.0
H1065 H 0.99634 0.96904 0.88213 0.0
H1066 H 0.8972 1.00047 0.88419 0.0
H1067 H 0.87602 0.0455 0.89414 0.0
C1068 C 0.24482 0.68064 0.13534 0.0
C1069 C 0.20401 0.67914 0.13861 0.0
C1070 C 0.19993 0.74913 0.13367 0.0
C1071 C 0.24095 0.75175 0.13047 0.0
N1072 N 0.30292 0.71959 0.13057 0.0
N1073 N 0.14318 0.70929 0.12557 0.0
C1074 C 0.26355 0.71715 0.13085 0.0
C1075 C 0.18195 0.71254 0.13182 0.0
N1076 N 0.26528 0.64706 0.13974 0.0
N1077 N 0.17783 0.78079 0.14184 0.0
H1078 H 0.12983 0.68249 0.12297 0.0
H1079 H 0.12541 0.7327 0.11894 0.0
H1080 H 0.18793 0.80887 0.14231 0.0
H1081 H 0.14976 0.7783 0.15246 0.0
H1082 H 0.29524 0.64496 0.14042 0.0
H1083 H 0.25134 0.6206 0.1429 0.0
H1084 H 0.32154 0.6961 0.1276 0.0
H1085 H 0.31724 0.7457 0.13442 0.0
C1086 C 0.5472 0.95827 0.34954 0.0
C1087 C 0.53151 0.99128 0.36825 0.0
C1088 C 0.58674 0.99052 0.41251 0.0
C1089 C 0.59562 0.95213 0.40099 0.0
N1090 N 0.58543 0.89961 0.35657 0.0
N1091 N 0.54035 0.04337 0.41319 0.0
C1092 C 0.57679 0.93627 0.36833 0.0
C1093 C 0.55269 1.00893 0.39836 0.0
N1094 N 0.5346 0.9486 0.31356 0.0
N1095 N 0.61188 1.00966 0.43593 0.0
H1096 H 0.51896 0.05986 0.39974 0.0
H1097 H 0.55107 0.0553 0.43861 0.0
H1098 H 0.63829 0.99738 0.44395 0.0
H1099 H 0.6088 0.03859 0.44357 0.0
H1100 H 0.54744 0.92692 0.29699 0.0
H1101 H 0.51348 0.96464 0.2991 0.0
H1102 H 0.56952 0.88505 0.33564 0.0
H1103 H 0.60713 0.883 0.36944 0.0
C1104 C 0.35587 0.3002 0.64717 0.0
C1105 C 0.33677 0.33625 0.64359 0.0
C1106 C 0.28038 0.30286 0.61571 0.0
C1107 C 0.29689 0.26661 0.6262 0.0
N1108 N 0.34946 0.23137 0.65613 0.0
N1109 N 0.28226 0.37298 0.62157 0.0
C1110 C 0.33452 0.26544 0.64287 0.0
C1111 C 0.29945 0.3378 0.62666 0.0
N1112 N 0.39464 0.29929 0.65445 0.0
N1113 N 0.24666 0.30384 0.59518 0.0
H1114 H 0.29772 0.39847 0.62524 0.0
H1115 H 0.25333 0.37688 0.61421 0.0
H1116 H 0.2316 0.27895 0.58767 0.0
H1117 H 0.23471 0.32896 0.58364 0.0
H1118 H 0.41112 0.27402 0.65488 0.0
H1119 H 0.41106 0.32438 0.65519 0.0
H1120 H 0.37493 0.22936 0.67206 0.0
H1121 H 0.33452 0.20553 0.65467 0.0
C1122 C 0.06012 0.52132 0.65525 0.0
C1123 C 0.0242 0.54034 0.66109 0.0
C1124 C 0.05571 0.60327 0.65252 0.0
C1125 C 0.09107 0.5842 0.64444 0.0
N1126 N 0.13012 0.52751 0.65194 0.0
N1127 N 0.99309 0.59903 0.68291 0.0
C1128 C 0.09422 0.54387 0.6508 0.0
C1129 C 0.02351 0.58129 0.66516 0.0
N1130 N 0.0615 0.48197 0.65277 0.0
N1131 N 0.05231 0.64209 0.64648 0.0
H1132 H 0.97244 0.58332 0.69774 0.0
H1133 H 0.99179 0.62862 0.6883 0.0
H1134 H 0.07598 0.65928 0.63968 0.0
H1135 H 0.02587 0.6567 0.6467 0.0
H1136 H 0.08614 0.4666 0.64462 0.0
H1137 H 0.03721 0.46478 0.65702 0.0
H1138 H 0.13529 0.49862 0.65861 0.0
H1139 H 0.15484 0.54457 0.65023 0.0
C1140 C 0.75847 0.81015 0.88936 0.0
C1141 C 0.74419 0.78297 0.9163 0.0
C1142 C 0.68592 0.82368 0.92546 0.0
C1143 C 0.6982 0.84794 0.89519 0.0
N1144 N 0.75313 0.87512 0.86334 0.0
N1145 N 0.70357 0.77502 0.97278 0.0
C1146 C 0.73687 0.84465 0.88196 0.0
C1147 C 0.71105 0.79342 0.93881 0.0
N1148 N 0.79253 0.80291 0.87072 0.0
N1149 N 0.64979 0.8288 0.9405 0.0
H1150 H 0.72093 0.75312 0.98395 0.0
H1151 H 0.68184 0.7838 0.99169 0.0
H1152 H 0.63183 0.85159 0.93196 0.0
H1153 H 0.63728 0.81006 0.96029 0.0
H1154 H 0.80272 0.81964 0.84798 0.0
H1155 H 0.8102 0.77934 0.87755 0.0
H1156 H 0.78217 0.87619 0.85556 0.0
H1157 H 0.7379 0.90083 0.85896 0.0
C1158 C 0.822 0.24167 0.42136 0.0
C1159 C 0.78212 0.24078 0.4111 0.0
C1160 C 0.79087 0.17381 0.38919 0.0
C1161 C 0.83153 0.17888 0.39023 0.0
N1162 N 0.88642 0.21707 0.40798 0.0
N1163 N 0.72723 0.20451 0.38951 0.0
C1164 C 0.84724 0.21243 0.40715 0.0
C1165 C 0.766 0.20609 0.39676 0.0
N1166 N 0.83576 0.26982 0.44521 0.0
N1167 N 0.77638 0.13848 0.37968 0.0
H1168 H 0.70843 0.22724 0.39624 0.0
H1169 H 0.71382 0.18147 0.37576 0.0
H1170 H 0.79431 0.11485 0.3739 0.0
H1171 H 0.74713 0.13176 0.38047 0.0
H1172 H 0.86406 0.2703 0.45545 0.0
H1173 H 0.8179 0.2897 0.45903 0.0
H1174 H 0.89969 0.24312 0.4148 0.0
H1175 H 0.90555 0.19507 0.39985 0.0
C1176 C 0.06377 0.48495 0.25915 0.0
C1177 C 0.09695 0.50493 0.27373 0.0
C1178 C 0.11016 0.44869 0.31508 0.0
C1179 C 0.0744 0.43186 0.3066 0.0
N1180 N 1.01393 0.43693 0.27279 0.0
N1181 N 0.13522 0.50996 0.33291 0.0
C1182 C 0.05013 0.45088 0.27916 0.0
C1183 C 0.11539 0.48806 0.30685 0.0
N1184 N 0.04492 0.49794 0.2271 0.0
N1185 N 0.13845 0.42808 0.33325 0.0
H1186 H 0.13404 0.54001 0.33291 0.0
H1187 H 0.14747 0.4982 0.35785 0.0
H1188 H 0.13631 0.39834 0.33727 0.0
H1189 H 0.16549 0.43987 0.33928 0.0
H1190 H 0.02352 0.48203 0.21329 0.0
H1191 H 0.05147 0.52372 0.21337 0.0
H1192 H 0.99323 0.45153 0.25641 0.0
H1193 H 1.00431 0.41154 0.28578 0.0
C1194 C 0.79886 0.827 0.57447 0.0
C1195 C 0.83928 0.82523 0.56522 0.0
C1196 C 0.82029 0.83874 0.49745 0.0
C1197 C 0.78029 0.83691 0.50711 0.0
N1198 N 0.73348 0.81447 0.55277 0.0
N1199 N 0.88577 0.81847 0.5133 0.0
C1200 C 0.77049 0.82505 0.54472 0.0
C1201 C 0.84933 0.82777 0.52528 0.0
N1202 N 0.78706 0.83498 0.6112 0.0
N1203 N 0.83063 0.85164 0.46176 0.0
H1204 H 0.90706 0.80797 0.53181 0.0
H1205 H 0.89345 0.81695 0.48426 0.0
H1206 H 0.81018 0.85767 0.44037 0.0
H1207 H 0.85907 0.85798 0.45433 0.0
H1208 H 0.75809 0.8365 0.61928 0.0
H1209 H 0.80558 0.84715 0.63148 0.0
H1210 H 0.72539 0.8032 0.57945 0.0
H1211 H 0.71221 0.81321 0.53146 0.0
C1212 C 0.4309 0.56758 0.75138 0.0
C1213 C 0.44551 0.52908 0.75423 0.0
C1214 C 0.48534 0.5501 0.80981 0.0
C1215 C 0.47095 0.58909 0.80664 0.0
N1216 N 0.43997 0.63574 0.76518 0.0
N1217 N 0.49422 0.4869 0.77954 0.0
C1218 C 0.44693 0.59801 0.77444 0.0
C1219 C 0.47562 0.52176 0.78099 0.0
N1220 N 0.39999 0.57485 0.72803 0.0
N1221 N 0.5055 0.53866 0.84181 0.0
H1222 H 0.48704 0.46588 0.75917 0.0
H1223 H 0.519 0.48053 0.79545 0.0
H1224 H 0.5117 0.55646 0.86508 0.0
H1225 H 0.51257 0.50995 0.84751 0.0
H1226 H 0.38479 0.60093 0.72804 0.0
H1227 H 0.38813 0.55362 0.71053 0.0
H1228 H 0.4255 0.64417 0.74016 0.0
H1229 H 0.45256 0.65861 0.78013 0.0
C1230 C 0.73405 0.2228 0.06785 0.0
C1231 C 0.69363 0.21889 0.05924 0.0
C1232 C 0.71225 0.20103 0.99216 0.0
C1233 C 0.75231 0.20321 1.00146 0.0
N1234 N 0.80035 0.22802 0.0443 0.0
N1235 N 0.64495 0.21306 1.01002 0.0
C1236 C 0.76268 0.21834 0.03799 0.0
C1237 C 0.68299 0.21052 0.02037 0.0
N1238 N 0.74567 0.22779 0.10522 0.0
N1239 N 0.7024 0.18969 0.95581 0.0
H1240 H 0.62324 0.22067 0.02949 0.0
H1241 H 0.63504 0.21061 0.98178 0.0
H1242 H 0.72299 0.18837 0.93389 0.0
H1243 H 0.67463 0.18192 0.94746 0.0
H1244 H 0.77442 0.2265 0.11403 0.0
H1245 H 0.72671 0.22932 0.12839 0.0
H1246 H 0.80989 0.24257 0.0688 0.0
H1247 H 0.82145 0.22495 0.02301 0.0
C1248 C 0.58177 0.06198 0.79014 0.0
C1249 C 0.57798 0.02272 0.77852 0.0
C1250 C 0.55664 0.0451 0.71416 0.0
C1251 C 0.56101 0.08488 0.72531 0.0
N1252 N 0.56852 0.13011 0.77751 0.0
N1253 N 0.55153 0.97762 0.73356 0.0
C1254 C 0.57077 0.09291 0.76449 0.0
C1255 C 0.56167 0.01475 0.74198 0.0
N1256 N 0.59697 0.06959 0.82569 0.0
N1257 N 0.55065 0.0355 0.67636 0.0
H1258 H 0.55534 0.9551 0.75323 0.0
H1259 H 0.53581 0.9699 0.70914 0.0
H1260 H 0.54612 0.05532 0.65442 0.0
H1261 H 0.55325 1.00742 0.66587 0.0
H1262 H 0.60538 0.09695 0.83472 0.0
H1263 H 0.60261 0.0477 0.84567 0.0
H1264 H 0.57184 0.13788 0.80633 0.0
H1265 H 0.55979 0.15301 0.75992 0.0
C1266 C 0.21396 0.35508 0.02459 0.0
C1267 C 0.25178 0.33889 0.02148 0.0
C1268 C 0.22704 0.2984 0.9683 0.0
C1269 C 0.19239 0.32115 0.96558 0.0
N1270 N 0.15713 0.37679 0.99007 0.0
N1271 N 0.29478 0.29631 0.98674 0.0
C1272 C 0.18662 0.35064 0.99384 0.0
C1273 C 0.25836 0.31049 0.99261 0.0
N1274 N 0.2044 0.37558 0.05693 0.0
N1275 N 0.22979 0.26439 0.94858 0.0
H1276 H 0.31817 0.30355 1.00419 0.0
H1277 H 0.30212 0.27933 0.96297 0.0
H1278 H 0.20674 0.25314 0.93301 0.0
H1279 H 0.2529 0.24521 0.9518 0.0
H1280 H 0.17642 0.38545 0.0625 0.0
H1281 H 0.22358 0.37876 0.07998 0.0
H1282 H 0.15439 0.401 1.00776 0.0
H1283 H 0.13795 0.37719 0.96697 0.0
C1284 C 0.95425 0.01469 0.2289 0.0
C1285 C 0.94385 1.00508 0.26689 0.0
C1286 C 0.9548 0.93621 0.24988 0.0
C1287 C 0.95594 0.94551 0.20967 0.0
N1288 N 0.94455 0.9974 0.16281 0.0
N1289 N 0.93175 0.95539 0.31356 0.0
C1290 C 0.95288 0.98586 0.19962 0.0
C1291 C 0.94356 0.96536 0.2774 0.0
N1292 N 0.9628 0.05208 0.22012 0.0
N1293 N 0.96572 0.90039 0.26232 0.0
H1294 H 0.92537 0.97609 0.3346 0.0
H1295 H 0.92657 0.92692 0.32173 0.0
H1296 H 0.97694 0.87929 0.24401 0.0
H1297 H 0.96807 0.89334 0.29147 0.0
H1298 H 0.97341 0.06034 0.19322 0.0
H1299 H 0.96325 0.07374 0.24109 0.0
H1300 H 0.9396 0.02619 0.15543 0.0
H1301 H 0.93624 0.97879 0.14092 0.0
C1302 C 0.31531 0.65519 0.51951 0.0
C1303 C 0.28189 0.67941 0.52312 0.0
C1304 C 0.3183 0.73046 0.48943 0.0
C1305 C 0.34882 0.70401 0.48003 0.0
N1306 N 0.37356 0.63867 0.48432 0.0
N1307 N 0.25141 0.74031 0.50949 0.0
C1308 C 0.34697 0.66594 0.49527 0.0
C1309 C 0.28359 0.71732 0.50789 0.0
N1310 N 0.31692 0.62142 0.5395 0.0
N1311 N 0.32298 0.76861 0.4812 0.0
H1312 H 0.22634 0.73206 0.52394 0.0
H1313 H 0.24884 0.76641 0.49478 0.0
H1314 H 0.34847 0.77876 0.46913 0.0
H1315 H 0.30383 0.79023 0.48992 0.0
H1316 H 0.34182 0.60458 0.54232 0.0
H1317 H 0.29432 0.61259 0.55675 0.0
H1318 H 0.3704 0.6093 0.48981 0.0
H1319 H 0.39726 0.64434 0.46686 0.0
C1320 C 0.29347 0.0701 0.50581 0.0
C1321 C 0.25507 0.08034 0.49666 0.0
C1322 C 0.27171 0.06754 0.42766 0.0
C1323 C 0.312 0.06569 0.43676 0.0
N1324 N 0.35809 0.08327 0.48585 0.0
N1325 N 0.20797 0.09152 0.44682 0.0
C1326 C 0.32211 0.07106 0.47639 0.0
C1327 C 0.24424 0.07965 0.45687 0.0
N1328 N 0.30344 0.06258 0.54311 0.0
N1329 N 0.25932 0.05717 0.39179 0.0
H1330 H 0.18717 0.09868 0.46751 0.0
H1331 H 0.19944 0.09595 0.41831 0.0
H1332 H 0.27806 0.04704 0.3705 0.0
H1333 H 0.23017 0.05505 0.38459 0.0
H1334 H 0.33113 0.05324 0.55082 0.0
H1335 H 0.28298 0.06219 0.56524 0.0
H1336 H 0.36653 0.08912 0.51415 0.0
H1337 H 0.37644 0.09417 0.46485 0.0
C1338 C 0.18058 1.00107 0.70879 0.0
C1339 C 0.19523 1.00677 0.74679 0.0
C1340 C 0.23153 0.06289 0.72274 0.0
C1341 C 0.21802 0.05647 0.68403 0.0
N1342 N 0.1896 1.01077 0.63997 0.0
N1343 N 0.24416 0.0352 0.78615 0.0
C1344 C 0.19578 0.02271 0.67701 0.0
C1345 C 0.22423 0.0348 0.75219 0.0
N1346 N 0.15056 0.9764 0.70316 0.0
N1347 N 0.24812 0.09713 0.73293 0.0
H1348 H 0.23897 0.01498 0.80786 0.0
H1349 H 0.26813 0.05266 0.79087 0.0
H1350 H 0.2514 0.12042 0.71442 0.0
H1351 H 0.25464 0.10425 0.76141 0.0
H1352 H 0.13553 0.97436 0.67718 0.0
H1353 H 0.13912 0.96 0.72547 0.0
H1354 H 0.17635 0.9847 0.6332 0.0
H1355 H 0.20173 0.02468 0.61623 0.0
C1356 C 0.2477 0.9197 0.93318 0.0
C1357 C 0.22259 0.95255 0.93613 0.0
C1358 C 0.25251 0.9664 1.00037 0.0
C1359 C 0.27761 0.93398 0.99708 0.0
N1360 N 0.30612 0.88655 0.95541 0.0
N1361 N 0.21109 1.01337 0.96832 0.0
C1362 C 0.27766 0.91334 0.96152 0.0
C1363 C 0.22817 0.97776 0.96848 0.0
N1364 N 0.24128 0.89259 0.90529 0.0
N1365 N 0.25058 0.98549 0.0348 0.0
H1366 H 0.19531 0.02351 0.94483 0.0
H1367 H 0.21639 0.03434 0.9892 0.0
H1368 H 0.2692 0.97903 0.05767 0.0
H1369 H 0.22946 1.0061 0.04118 0.0
H1370 H 0.25568 0.8661 0.90439 0.0
H1371 H 0.21908 0.89466 0.88512 0.0
H1372 H 0.31039 0.8726 0.92909 0.0
H1373 H 0.32792 0.88151 0.97571 0.0
C1374 C 0.32567 1.01373 0.17899 0.0
C1375 C 0.3193 0.97408 0.18894 0.0
C1376 C 0.31784 0.99525 0.25705 0.0
C1377 C 0.33448 0.03118 0.24861 0.0
N1378 N 0.35542 0.0746 0.19897 0.0
N1379 N 0.33374 0.93058 0.24108 0.0
C1380 C 0.33831 0.04069 0.20862 0.0
C1381 C 0.32069 0.96554 0.22915 0.0
N1382 N 0.3198 0.02592 0.14208 0.0
N1383 N 0.30654 0.98712 0.29378 0.0
H1384 H 0.34815 0.91261 0.22173 0.0
H1385 H 0.33797 0.92408 0.27018 0.0
H1386 H 0.30669 1.00818 0.3154 0.0
H1387 H 0.29445 0.96055 0.30106 0.0
H1388 H 0.32161 0.05485 0.13408 0.0
H1389 H 0.30942 1.00776 0.12052 0.0
H1390 H 0.36292 0.08168 0.17073 0.0
H1391 H 0.36337 0.09462 0.22 0.0
C1392 C 0.75722 0.41591 0.55758 0.0
C1393 C 0.76136 0.43426 0.52111 0.0
C1394 C 0.81076 0.47609 0.55079 0.0
C1395 C 0.81248 0.4523 0.58453 0.0
N1396 N 0.78894 0.39476 0.61627 0.0
N1397 N 0.79444 0.48121 0.48266 0.0
C1398 C 0.78571 0.42123 0.58722 0.0
C1399 C 0.78874 0.46432 0.51777 0.0
N1400 N 0.72602 0.393 0.56388 0.0
N1401 N 0.829 0.51087 0.5507 0.0
H1402 H 0.77724 0.47495 0.45872 0.0
H1403 H 0.81734 0.49974 0.47697 0.0
H1404 H 0.84259 0.52179 0.57509 0.0
H1405 H 0.82637 0.53082 0.52834 0.0
H1406 H 0.71941 0.38117 0.5907 0.0
H1407 H 0.70433 0.39013 0.54334 0.0
H1408 H 0.77298 0.36936 0.61697 0.0
H1409 H 0.81012 0.39576 0.63754 0.0
C1410 C 0.80054 0.53764 0.76868 0.0
C1411 C 0.82846 0.50793 0.77373 0.0
C1412 C 0.83758 0.5297 0.84115 0.0
C1413 C 0.81001 0.56046 0.83635 0.0
N1414 N 0.75555 0.58281 0.79848 0.0
N1415 N 0.859 0.46616 0.8195 0.0
C1416 C 0.78847 0.56101 0.80095 0.0
C1417 C 0.8419 0.5008 0.81164 0.0
N1418 N 0.78561 0.54365 0.73274 0.0
N1419 N 0.86231 0.5292 0.87187 0.0
H1420 H 0.86208 0.44483 0.79837 0.0
H1421 H 0.86629 0.45752 0.84741 0.0
H1422 H 0.86336 0.55059 0.89284 0.0
H1423 H 0.88506 0.50943 0.87412 0.0
H1424 H 0.7687 0.56758 0.72553 0.0
H1425 H 0.79178 0.52506 0.70976 0.0
H1426 H 0.73694 0.58216 0.77486 0.0
H1427 H 0.74439 0.59799 0.82194 0.0
C1428 C 0.74162 0.5823 0.08857 0.0
C1429 C 0.70518 0.56371 0.08273 0.0
C1430 C 0.72057 0.55998 1.01296 0.0
C1431 C 0.75623 0.57891 0.01897 0.0
N1432 N 0.80722 0.58873 0.06448 0.0
N1433 N 0.67171 0.51914 0.0407 0.0
C1434 C 0.76893 0.58373 0.05747 0.0
C1435 C 0.69825 0.54768 0.04528 0.0
N1436 N 0.74999 0.60083 0.12229 0.0
N1437 N 0.70767 0.55402 0.97621 0.0
H1438 H 0.65856 0.50598 0.06414 0.0
H1439 H 0.66733 0.50477 0.01463 0.0
H1440 H 0.72458 0.56007 0.95203 0.0
H1441 H 0.67972 0.54477 0.97004 0.0
H1442 H 0.77471 0.61759 0.12561 0.0
H1443 H 0.73124 0.60296 0.14556 0.0
H1444 H 0.81874 0.5896 0.09229 0.0
H1445 H 0.82753 0.58669 0.04232 0.0
C1446 C 0.71954 0.44547 0.29242 0.0
C1447 C 0.70677 0.45476 0.33069 0.0
C1448 C 0.68756 0.51865 0.30369 0.0
C1449 C 0.68853 0.50385 0.26542 0.0
N1450 N 0.70915 0.45222 0.22358 0.0
N1451 N 0.67735 0.50452 0.37122 0.0
C1452 C 0.70557 0.46689 0.25999 0.0
C1453 C 0.69087 0.49278 0.33612 0.0
N1454 N 0.7473 0.41785 0.287 0.0
N1455 N 0.68521 0.55751 0.30939 0.0
H1456 H 0.67937 0.48839 0.39633 0.0
H1457 H 0.66157 0.53005 0.37473 0.0
H1458 H 0.68457 0.5771 0.2866 0.0
H1459 H 0.68808 0.57017 0.33655 0.0
H1460 H 0.75951 0.41171 0.26018 0.0
H1461 H 0.76235 0.40565 0.30994 0.0
H1462 H 0.71652 0.42346 0.21817 0.0
H1463 H 0.70341 0.46864 0.19898 0.0
C1464 C 0.50098 0.2689 0.04663 0.0
C1465 C 0.49784 0.24386 0.07873 0.0
C1466 C 0.4291 0.26407 0.08609 0.0
C1467 C 0.43421 0.29394 0.05827 0.0
N1468 N 0.46729 0.30636 0.99785 0.0
N1469 N 0.45504 0.20619 0.11741 0.0
C1470 C 0.46782 0.29084 0.03402 0.0
C1471 C 0.46037 0.23778 0.09452 0.0
N1472 N 0.53592 0.27288 0.02894 0.0
N1473 N 0.39421 0.26025 0.10397 0.0
H1474 H 0.47745 0.18655 0.12284 0.0
H1475 H 0.42841 0.19762 0.12824 0.0
H1476 H 0.36914 0.27345 0.09352 0.0
H1477 H 0.38986 0.24341 0.12842 0.0
H1478 H 0.5416 0.29426 1.00862 0.0
H1479 H 0.55978 0.2559 0.03634 0.0
H1480 H 0.48989 0.30311 0.97825 0.0
H1481 H 0.44205 0.31673 0.98509 0.0
C1482 C 0.96668 0.27569 0.92039 0.0
C1483 C 1.0041 0.27052 0.93705 0.0
C1484 C 0.97455 0.22742 0.98575 0.0
C1485 C 0.9388 0.227 0.96467 0.0
N1486 N 0.89722 0.26574 0.92463 0.0
N1487 N 0.04343 0.24184 0.98639 0.0
C1488 C 0.93384 0.25558 0.93557 0.0
C1489 C 1.00774 0.24676 0.9702 0.0
N1490 N 0.96275 0.29873 0.88874 0.0
N1491 N 0.97622 0.21245 0.02215 0.0
H1492 H 0.06731 0.25796 0.97779 0.0
H1493 H 0.0498 0.22067 1.00678 0.0
H1494 H 0.9518 0.20437 0.03742 0.0
H1495 H 1.00048 0.21399 0.03984 0.0
H1496 H 0.93822 0.29951 0.87134 0.0
H1497 H 0.98499 0.31623 0.87916 0.0
H1498 H 0.89087 0.28844 0.90597 0.0
H1499 H 0.87279 0.25483 0.93834 0.0
C1500 C 0.03125 0.75834 0.2121 0.0
C1501 C 1.00624 0.7522 0.18026 0.0
C1502 C 0.0371 0.68789 0.17033 0.0
C1503 C 0.06183 0.69352 0.2028 0.0
N1504 N 0.07357 0.73043 0.26075 0.0
N1505 N 0.97868 0.70686 0.13588 0.0
C1506 C 0.05607 0.72765 0.22556 0.0
C1507 C 1.00684 0.71529 0.1621 0.0
N1508 N 0.03272 0.79418 0.22842 0.0
N1509 N 0.04424 0.65828 0.14518 0.0
H1510 H 0.95683 0.72658 0.12903 0.0
H1511 H 0.97478 0.67946 0.12414 0.0
H1512 H 0.06683 0.63858 0.1485 0.0
H1513 H 0.03009 0.65543 0.1188 0.0
H1514 H 0.05375 0.80229 0.24832 0.0
H1515 H 1.01394 0.81645 0.2203 0.0
H1516 H 0.06803 0.75277 0.28015 0.0
H1517 H 0.09025 0.70815 0.27231 0.0
C1518 C 0.57695 0.74833 0.43991 0.0
C1519 C 0.53871 0.75214 0.45463 0.0
C1520 C 0.56223 0.80281 0.49908 0.0
C1521 C 0.59811 0.8046 0.47857 0.0
N1522 N 0.64484 0.76572 0.44462 0.0
N1523 N 0.49484 0.78302 0.49863 0.0
C1524 C 0.60707 0.77322 0.45346 0.0
C1525 C 0.53164 0.77886 0.48492 0.0
N1526 N 0.58379 0.72251 0.41086 0.0
N1527 N 0.55799 0.82155 0.53352 0.0
H1528 H 0.47253 0.7646 0.49039 0.0
H1529 H 0.48609 0.80576 0.51636 0.0
H1530 H 0.58091 0.83418 0.54808 0.0
H1531 H 0.53353 0.81916 0.55081 0.0
H1532 H 0.6092 0.72156 0.39482 0.0
H1533 H 0.56286 0.70302 0.40169 0.0
H1534 H 0.65403 0.74172 0.42894 0.0
H1535 H 0.6675 0.78084 0.45737 0.0
C1536 C 0.49338 0.27122 0.72589 0.0
C1537 C 0.526 0.27715 0.70208 0.0
C1538 C 0.50474 0.34497 0.69238 0.0
C1539 C 0.47184 0.33961 0.71693 0.0
N1540 N 0.44599 0.29996 0.76854 0.0
N1541 N 0.56964 0.32333 0.67536 0.0
C1542 C 0.46974 0.30349 0.73733 0.0
C1543 C 0.53402 0.31548 0.69017 0.0
N1544 N 0.48364 0.23455 0.73626 0.0
N1545 N 0.50727 0.37616 0.66842 0.0
H1546 H 0.59113 0.30209 0.67332 0.0
H1547 H 0.57882 0.35124 0.66906 0.0
H1548 H 0.48648 0.39771 0.66606 0.0
H1549 H 0.5286 0.37854 0.64734 0.0
H1550 H 0.45739 0.22788 0.74933 0.0
H1551 H 0.50097 0.21066 0.72976 0.0
H1552 H 0.44575 0.27551 0.78606 0.0
H1553 H 0.43034 0.32304 0.77989 0.0
C1554 C 0.06684 0.78443 0.60745 0.0
C1555 C 0.03138 0.78144 0.58708 0.0
C1556 C 0.06344 0.73381 0.54449 0.0
C1557 C 0.09448 0.72884 0.57129 0.0
N1558 N 0.12488 0.75168 0.6299 0.0
N1559 N 0.99661 0.75356 0.53426 0.0
C1560 C 0.09652 0.75543 0.60277 0.0
C1561 C 0.03023 0.7566 0.5546 0.0
N1562 N 0.07183 0.81491 0.63174 0.0
N1563 N 0.06621 0.71751 0.50878 0.0
H1564 H 0.97277 0.77132 0.53997 0.0
H1565 H 0.99198 0.73246 0.51334 0.0
H1566 H 0.09152 0.70402 0.49955 0.0
H1567 H 0.0459 0.72197 0.48699 0.0
H1568 H 0.09833 0.82133 0.64445 0.0
H1569 H 0.0504 0.83599 0.63535 0.0
H1570 H 0.12495 0.76737 0.65558 0.0
H1571 H 0.14694 0.73121 0.62815 0.0
C1572 C 0.48728 0.81875 0.84656 0.0
C1573 C 0.49401 0.78033 0.83311 0.0
C1574 C 0.54536 0.80656 0.79131 0.0
C1575 C 0.54636 0.84183 0.8132 0.0
N1576 N 0.50953 0.88505 0.85364 0.0
N1577 N 0.53027 0.73809 0.79139 0.0
C1578 C 0.51444 0.84902 0.83832 0.0
C1579 C 0.52279 0.77452 0.80458 0.0
N1580 N 0.45451 0.82586 0.86747 0.0
N1581 N 0.56381 0.80398 0.75661 0.0
H1582 H 0.51343 0.71442 0.79891 0.0
H1583 H 0.55448 0.73122 0.77479 0.0
H1584 H 0.57485 0.82792 0.74243 0.0
H1585 H 0.5621 0.77977 0.73883 0.0
H1586 H 0.44572 0.85305 0.87686 0.0
H1587 H 0.43426 0.80427 0.87282 0.0
H1588 H 0.49075 0.89143 0.87622 0.0
H1589 H 0.52395 0.90909 0.8429 0.0
C1590 C 0.9804 0.2175 0.28331 0.0
C1591 C 0.97657 0.18365 0.30657 0.0
C1592 C 0.02834 0.20854 0.34889 0.0
C1593 C 0.02565 0.24541 0.33093 0.0
N1594 N 1.00187 0.28427 0.27878 0.0
N1595 N 1.01302 0.14013 0.34686 0.0
C1596 C 1.00301 0.24932 0.29697 0.0
C1597 C 1.00552 0.17704 0.33505 0.0
N1598 N 0.96507 0.21816 0.24701 0.0
N1599 N 0.05112 0.20429 0.38077 0.0
H1600 H 1.00008 0.11632 0.33383 0.0
H1601 H 0.03555 0.13268 0.3654 0.0
H1602 H 0.06984 0.22588 0.38985 0.0
H1603 H 0.05045 0.18025 0.39878 0.0
H1604 H 0.96869 0.24089 0.22775 0.0
H1605 H 0.95392 0.1936 0.23391 0.0
H1606 H 0.98216 0.29128 0.25713 0.0
H1607 H 0.01979 0.30701 0.28696 0.0
C1608 C 0.10426 0.26466 0.50637 0.0
C1609 C 0.11144 0.26631 0.46609 0.0
C1610 C 0.16834 0.22447 0.47476 0.0
C1611 C 0.1584 0.21931 0.51429 0.0
N1612 N 0.11338 0.23027 0.56638 0.0
N1613 N 0.14736 0.2435 0.41078 0.0
C1614 C 0.1251 0.23788 0.52957 0.0
C1615 C 0.1427 0.24504 0.44995 0.0
N1616 N 0.0795 0.29061 0.52302 0.0
N1617 N 0.20267 0.21055 0.4609 0.0
H1618 H 0.12992 0.25877 0.39152 0.0
H1619 H 0.16646 0.22458 0.39712 0.0
H1620 H 0.22202 0.19462 0.47748 0.0
H1621 H 0.21355 0.21751 0.43378 0.0
H1622 H 0.07595 0.2935 0.55274 0.0
H1623 H 0.06607 0.31245 0.50735 0.0
H1624 H 0.08695 0.23957 0.57754 0.0
H1625 H 0.12864 0.2121 0.58482 0.0
C1626 C 0.02216 0.9106 0.7718 0.0
C1627 C 0.06275 0.90937 0.7654 0.0
C1628 C 0.05432 0.84964 0.72799 0.0
C1629 C 1.01349 0.85589 0.72682 0.0
N1630 N 0.95814 0.88918 0.75397 0.0
N1631 N 0.11734 0.87856 0.73444 0.0
C1632 C 0.99735 0.88578 0.75033 0.0
C1633 C 0.07869 0.87921 0.74255 0.0
N1634 N 1.00753 0.93301 0.80086 0.0
N1635 N 0.07029 0.81471 0.71841 0.0
H1636 H 0.13685 0.89824 0.74592 0.0
H1637 H 0.12944 0.86023 0.71377 0.0
H1638 H 0.05464 0.79011 0.71199 0.0
H1639 H 0.0995 0.80832 0.7224 0.0
H1640 H 0.97882 0.9326 0.80979 0.0
H1641 H 0.02505 0.94872 0.81935 0.0
H1642 H 0.94443 0.91379 0.76474 0.0
H1643 H 0.93916 0.86723 0.74623 0.0
C1644 C 0.38955 0.74424 0.99698 0.0
C1645 C 0.42362 0.75731 0.97871 0.0
C1646 C 0.41193 0.82209 1.00653 0.0
C1647 C 0.3809 0.80715 0.02852 0.0
N1648 N 0.34948 0.75062 0.05334 0.0
N1649 N 0.4703 0.80871 0.97039 0.0
C1650 C 0.37247 0.7672 0.02622 0.0
C1651 C 0.43601 0.79614 0.98508 0.0
N1652 N 0.37275 0.71036 0.98621 0.0
N1653 N 0.41718 0.86109 1.00415 0.0
H1654 H 0.48798 0.79206 0.95268 0.0
H1655 H 0.48255 0.83504 0.97802 0.0
H1656 H 0.39988 0.88103 0.01877 0.0
H1657 H 0.43641 0.87383 0.98495 0.0
H1658 H 0.34601 0.70153 0.99676 0.0
H1659 H 0.38314 0.69329 0.96376 0.0
H1660 H 0.34472 0.72096 0.05488 0.0
H1661 H 0.34009 0.76611 0.07727 0.0
C1662 C 0.47929 0.18105 0.2263 0.0
C1663 C 0.51976 0.17341 0.22479 0.0
C1664 C 0.5124 0.12493 0.27595 0.0
C1665 C 0.47163 0.12846 0.27303 0.0
N1666 N 0.41563 0.15795 0.24374 0.0
N1667 N 0.57508 0.13731 0.24753 0.0
C1668 C 0.45488 0.1562 0.24794 0.0
C1669 C 0.53636 0.14503 0.2494 0.0
N1670 N 0.46415 0.21257 0.20787 0.0
N1671 N 0.52817 0.10382 0.3054 0.0
H1672 H 0.59388 0.15317 0.23043 0.0
H1673 H 0.58823 0.11391 0.26121 0.0
H1674 H 0.51132 0.09068 0.32651 0.0
H1675 H 0.55763 0.10276 0.31145 0.0
H1676 H 0.43574 0.222 0.2114 0.0
H1677 H 0.48069 0.23141 0.1915 0.0
H1678 H 0.40184 0.17384 0.22219 0.0
H1679 H 0.39676 0.14143 0.26025 0.0
C1680 C 0.61001 0.30239 0.56469 0.0
C1681 C 0.62246 0.26346 0.57044 0.0
C1682 C 0.66908 0.27106 0.5184 0.0
C1683 C 0.66091 0.31117 0.51626 0.0
N1684 N 0.62583 0.36631 0.54111 0.0
N1685 N 0.67098 0.21452 0.55892 0.0
C1686 C 0.63203 0.32732 0.54057 0.0
C1687 C 0.65462 0.2492 0.54961 0.0
N1688 N 0.57658 0.31537 0.58124 0.0
N1689 N 0.68702 0.25287 0.48841 0.0
H1690 H 0.66175 0.19831 0.58242 0.0
H1691 H 0.69622 0.20426 0.54592 0.0
H1692 H 0.69064 0.26668 0.46202 0.0
H1693 H 0.69162 0.2231 0.48742 0.0
H1694 H 0.56376 0.34183 0.57451 0.0
H1695 H 0.56014 0.29857 0.59969 0.0
H1696 H 0.60844 0.38004 0.56155 0.0
H1697 H 0.64022 0.38538 0.52296 0.0
C1698 C 0.96813 0.41835 0.80565 0.0
C1699 C 0.9627 0.40952 0.76557 0.0
C1700 C 0.01547 0.36152 0.77068 0.0
C1701 C 0.01681 0.36649 0.81107 0.0
N1702 N 0.99068 0.3964 0.86829 0.0
N1703 N 0.97826 0.36526 0.71258 0.0
C1704 C 0.99219 0.39408 0.82892 0.0
C1705 C 0.98509 0.37869 0.74901 0.0
N1706 N 0.95086 0.44997 0.82196 0.0
N1707 N 0.04495 0.34256 0.75227 0.0
H1708 H 0.95921 0.37746 0.69301 0.0
H1709 H 0.9903 0.33954 0.70233 0.0
H1710 H 0.06929 0.33233 0.76679 0.0
H1711 H 0.04776 0.34166 0.72233 0.0
H1712 H 0.95833 0.46052 0.8491 0.0
H1713 H 0.9309 0.46749 0.80801 0.0
H1714 H 0.96961 0.41212 0.8831 0.0
H1715 H 1.00838 0.38008 0.88644 0.0
C1716 C 0.88022 0.73632 0.07698 0.0
C1717 C 0.89707 0.76871 0.05874 0.0
C1718 C 0.87106 0.74714 0.99637 0.0
C1719 C 0.8592 0.71204 1.01361 0.0
N1720 N 0.8565 0.67112 0.06948 0.0
N1721 N 0.91094 0.80394 1.00043 0.0
C1722 C 0.86457 0.70622 0.05382 0.0
C1723 C 0.89308 0.77381 0.01824 0.0
N1724 N 0.87923 0.73419 0.11634 0.0
N1725 N 0.85986 0.7559 0.95955 0.0
H1726 H 0.92508 0.82547 0.01576 0.0
H1727 H 0.91353 0.80639 0.97057 0.0
H1728 H 0.84491 0.73675 0.94192 0.0
H1729 H 0.86308 0.78316 0.94732 0.0
H1730 H 0.86398 0.71319 0.13135 0.0
H1731 H 0.89098 0.75535 0.13418 0.0
H1732 H 0.86311 0.66338 0.09777 0.0
H1733 H 0.84674 0.64842 0.05259 0.0
C1734 C 0.5093 0.65683 0.2791 0.0
C1735 C 0.51642 0.65614 0.31952 0.0
C1736 C 0.56884 0.60873 0.30956 0.0
C1737 C 0.5626 0.61051 0.26898 0.0
N1738 N 0.52024 0.62748 0.21637 0.0
N1739 N 0.54757 0.62619 0.37419 0.0
C1740 C 0.53107 0.63231 0.25406 0.0
C1741 C 0.54455 0.63043 0.33505 0.0
N1742 N 0.48119 0.68062 0.26462 0.0
N1743 N 0.59858 0.58686 0.32368 0.0
H1744 H 0.53125 0.64226 0.39379 0.0
H1745 H 0.56431 0.60506 0.3876 0.0
H1746 H 0.61436 0.56802 0.30642 0.0
H1747 H 0.60858 0.58812 0.35197 0.0
H1748 H 0.47785 0.6867 0.2354 0.0
H1749 H 0.4616 0.69538 0.28212 0.0
H1750 H 0.49493 0.63879 0.20456 0.0
H1751 H 0.53464 0.60901 0.19737 0.0
C1752 C 0.24401 0.4934 0.10259 0.0
C1753 C 0.2697 0.46715 0.12136 0.0
C1754 C 0.23812 0.48368 0.1825 0.0
C1755 C 0.21941 0.51604 0.16503 0.0
N1756 N 0.21229 0.55528 0.10726 0.0
N1757 N 0.29529 0.44342 0.18203 0.0
C1758 C 0.22438 0.52197 0.1247 0.0
C1759 C 0.26791 0.46388 0.16216 0.0
N1760 N 0.23668 0.49017 0.06398 0.0
N1761 N 0.22649 0.47059 0.21779 0.0
H1762 H 0.31902 0.43034 0.16885 0.0
H1763 H 0.29662 0.44331 0.2121 0.0
H1764 H 0.20236 0.48171 0.23213 0.0
H1765 H 0.23758 0.44539 0.23014 0.0
H1766 H 0.21585 0.507 0.05 0.0
H1767 H 0.24719 0.46743 0.0472 0.0
H1768 H 0.21884 0.56164 0.07859 0.0
H1769 H 0.19991 0.57841 0.12198 0.0
C1770 C 0.77111 0.01925 0.91397 0.0
C1771 C 0.76794 0.06014 0.91018 0.0
C1772 C 0.71328 0.05041 0.86594 0.0
C1773 C 0.71335 1.01035 0.87451 0.0
N1774 N 0.73691 0.95865 0.91462 0.0
N1775 N 0.72781 0.1141 0.88931 0.0
C1776 C 0.74052 0.99543 0.90111 0.0
C1777 C 0.73683 0.07571 0.88794 0.0
N1778 N 0.80411 1.00282 0.92822 0.0
N1779 N 0.6913 0.06455 0.8364 0.0
H1780 H 0.74235 0.13377 0.90642 0.0
H1781 H 0.70289 0.12566 0.8768 0.0
H1782 H 0.67319 0.04726 0.82001 0.0
H1783 H 0.69359 0.09277 0.82626 0.0
H1784 H 0.80906 0.97309 0.92843 0.0
H1785 H 0.8283 0.019 0.93522 0.0
H1786 H 0.75432 0.94732 0.93647 0.0
H1787 H 0.71362 0.94127 0.90717 0.0
C1788 C 0.78485 0.99162 0.3491 0.0
C1789 C 0.81024 0.01843 0.36697 0.0
C1790 C 0.79169 0.99254 0.42966 0.0
C1791 C 0.76045 0.97253 0.4122 0.0
N1792 N 0.72346 0.95961 0.35434 0.0
N1793 N 0.83122 0.04915 0.42635 0.0
C1794 C 0.75585 0.97388 0.37159 0.0
C1795 C 0.81191 0.0203 0.40786 0.0
N1796 N 0.78944 0.98148 0.31125 0.0
N1797 N 0.8036 0.98397 0.4663 0.0
H1798 H 0.84518 0.07137 0.41206 0.0
H1799 H 0.82963 0.05324 0.45614 0.0
H1800 H 0.79224 0.9614 0.48243 0.0
H1801 H 0.82833 0.99592 0.47854 0.0
H1802 H 0.77314 0.95989 0.29815 0.0
H1803 H 0.81272 0.9906 0.29458 0.0
H1804 H 0.71774 0.96325 0.325 0.0
H1805 H 0.70048 0.94807 0.36979 0.0
C1806 C 0.27702 0.49618 0.64568 0.0
C1807 C 0.31532 0.50955 0.65132 0.0
C1808 C 0.29553 0.57378 0.62942 0.0
C1809 C 0.25878 0.55927 0.61901 0.0
N1810 N 0.21555 0.50528 0.61334 0.0
N1811 N 0.36309 0.55809 0.63924 0.0
C1812 C 0.24986 0.51996 0.62587 0.0
C1813 C 0.32521 0.54753 0.64039 0.0
N1814 N 0.26618 0.46139 0.66049 0.0
N1815 N 0.30184 0.61264 0.62993 0.0
H1816 H 0.38541 0.53851 0.64508 0.0
H1817 H 0.3722 0.58463 0.62851 0.0
H1818 H 0.28033 0.6327 0.62289 0.0
H1819 H 0.32719 0.6248 0.64055 0.0
H1820 H 0.23761 0.45215 0.66141 0.0
H1821 H 0.28561 0.44273 0.67408 0.0
H1822 H 0.2091 0.47595 0.61384 0.0
H1823 H 0.19441 0.52226 0.60006 0.0
loop_
_geom_bond_atom_site_label_1
_geom_bond_atom_site_label_2
_geom_bond_distance
_geom_bond_site_symmetry_2
_ccdc_geom_bond_type
Fe0 O2 1.918 . S
Fe0 O5 1.997 1_455 S
Fe0 O6 2.002 . S
Fe0 O11 1.976 . S
Fe0 O14 1.996 1_455 S
Fe1 O2 1.918 . S
Fe1 O9 1.997 . S
Fe1 O12 1.996 . S
Fe1 O16 1.976 . S
Fe1 O19 2.002 . S
O2 Fe0 1.918 . S
O2 Fe1 1.918 . S
O2 Fe3 1.918 . S
Fe3 O2 1.918 . S
Fe3 O4 2.000 1_455 S
Fe3 O13 1.976 1_455 S
Fe3 O17 1.996 . S
Fe3 O20 1.997 . S
O4 Fe3 2.000 1_655 S
O4 C21 1.297 . S
O5 Fe0 1.997 1_655 S
O5 C21 1.235 . S
O6 Fe0 2.002 . S
O6 C7 1.295 . S
C7 O6 1.295 . S
C7 O9 1.235 . S
C8 O13 1.287 . S
C8 O14 1.255 . S
O9 Fe1 1.997 . S
O9 C7 1.235 . S
C10 O16 1.287 . S
C10 O17 1.255 . S
O11 Fe0 1.976 . S
O11 C18 1.287 . S
O12 Fe1 1.996 . S
O12 C18 1.255 . S
O13 Fe3 1.976 1_655 S
O13 C8 1.287 . S
O14 Fe0 1.996 1_655 S
O14 C8 1.255 . S
C15 O19 1.295 . S
C15 O20 1.235 . S
O16 Fe1 1.976 . S
O16 C10 1.287 . S
O17 Fe3 1.996 . S
O17 C10 1.255 . S
C18 O11 1.287 . S
C18 O12 1.255 . S
O19 Fe1 2.002 . S
O19 C15 1.295 . S
O20 Fe3 1.997 . S
O20 C15 1.235 . S
C21 O4 1.297 . S
C21 O5 1.235 . S
Fe22 O24 1.918 . S
Fe22 O27 1.997 . S
Fe22 O28 2.002 . S
Fe22 O33 1.976 . S
Fe22 O36 1.996 . S
Fe23 O24 1.918 . S
Fe23 O31 1.997 . S
Fe23 O34 1.996 . S
Fe23 O38 1.976 . S
Fe23 O41 2.002 . S
O24 Fe22 1.918 . S
O24 Fe23 1.918 . S
O24 Fe25 1.918 . S
Fe25 O24 1.918 . S
Fe25 O26 2.002 . S
Fe25 O35 1.976 . S
Fe25 O39 1.996 . S
Fe25 O42 1.997 . S
O26 Fe25 2.002 . S
O26 C43 1.295 . S
O27 Fe22 1.997 . S
O27 C43 1.235 . S
O28 Fe22 2.002 . S
O28 C29 1.295 . S
C29 O28 1.295 . S
C29 O31 1.235 . S
C30 O35 1.287 . S
C30 O36 1.255 . S
O31 Fe23 1.997 . S
O31 C29 1.235 . S
C32 O38 1.287 . S
C32 O39 1.255 . S
O33 Fe22 1.976 . S
O33 C40 1.287 . S
O34 Fe23 1.996 . S
O34 C40 1.255 . S
O35 Fe25 1.976 . S
O35 C30 1.287 . S
O36 Fe22 1.996 . S
O36 C30 1.255 . S
C37 O41 1.295 . S
C37 O42 1.235 . S
O38 Fe23 1.976 . S
O38 C32 1.287 . S
O39 Fe25 1.996 . S
O39 C32 1.255 . S
C40 O33 1.287 . S
C40 O34 1.255 . S
O41 Fe23 2.002 . S
O41 C37 1.295 . S
O42 Fe25 1.997 . S
O42 C37 1.235 . S
C43 O26 1.295 . S
C43 O27 1.235 . S
Fe44 O46 1.918 . S
Fe44 O49 1.997 . S
Fe44 O50 2.002 . S
Fe44 O55 1.976 . S
Fe44 O58 1.996 . S
Fe45 O46 1.918 . S
Fe45 O53 1.997 . S
Fe45 O56 1.996 . S
Fe45 O60 1.976 . S
Fe45 O63 2.002 . S
O46 Fe44 1.918 . S
O46 Fe45 1.918 . S
O46 Fe47 1.918 . S
Fe47 O46 1.918 . S
Fe47 O48 2.002 . S
Fe47 O57 1.976 . S
Fe47 O61 1.996 . S
Fe47 O64 1.997 . S
O48 Fe47 2.002 . S
O48 C65 1.295 . S
O49 Fe44 1.997 . S
O49 C65 1.235 . S
O50 Fe44 2.002 . S
O50 C51 1.295 . S
C51 O50 1.295 . S
C51 O53 1.235 . S
C52 O57 1.287 . S
C52 O58 1.255 . S
O53 Fe45 1.997 . S
O53 C51 1.235 . S
C54 O60 1.287 . S
C54 O61 1.255 . S
O55 Fe44 1.976 . S
O55 C62 1.287 . S
O56 Fe45 1.996 . S
O56 C62 1.255 . S
O57 Fe47 1.976 . S
O57 C52 1.287 . S
O58 Fe44 1.996 . S
O58 C52 1.255 . S
C59 O63 1.295 . S
C59 O64 1.235 . S
O60 Fe45 1.976 . S
O60 C54 1.287 . S
O61 Fe47 1.996 . S
O61 C54 1.255 . S
C62 O55 1.287 . S
C62 O56 1.255 . S
O63 Fe45 2.002 . S
O63 C59 1.295 . S
O64 Fe47 1.997 . S
O64 C59 1.235 . S
C65 O48 1.295 . S
C65 O49 1.235 . S
Fe66 O68 1.918 . S
Fe66 O71 1.997 . S
Fe66 O72 2.002 . S
Fe66 O77 1.976 . S
Fe66 O80 1.996 . S
Fe67 O68 1.918 . S
Fe67 O75 1.997 . S
Fe67 O78 1.996 . S
Fe67 O82 1.976 . S
Fe67 O85 2.002 . S
O68 Fe66 1.918 . S
O68 Fe67 1.918 . S
O68 Fe69 1.918 . S
Fe69 O68 1.918 . S
Fe69 O70 2.002 . S
Fe69 O79 1.976 . S
Fe69 O83 1.996 . S
Fe69 O86 1.997 . S
O70 Fe69 2.002 . S
O70 C87 1.295 . S
O71 Fe66 1.997 . S
O71 C87 1.235 . S
O72 Fe66 2.002 . S
O72 C73 1.295 . S
C73 O72 1.295 . S
C73 O75 1.235 . S
C74 O79 1.287 . S
C74 O80 1.255 . S
O75 Fe67 1.997 . S
O75 C73 1.235 . S
C76 O82 1.287 . S
C76 O83 1.255 . S
O77 Fe66 1.976 . S
O77 C84 1.287 . S
O78 Fe67 1.996 . S
O78 C84 1.255 . S
O79 Fe69 1.976 . S
O79 C74 1.287 . S
O80 Fe66 1.996 . S
O80 C74 1.255 . S
C81 O85 1.295 . S
C81 O86 1.235 . S
O82 Fe67 1.976 . S
O82 C76 1.287 . S
O83 Fe69 1.996 . S
O83 C76 1.255 . S
C84 O77 1.287 . S
C84 O78 1.255 . S
O85 Fe67 2.002 . S
O85 C81 1.295 . S
O86 Fe69 1.997 . S
O86 C81 1.235 . S
C87 O70 1.295 . S
C87 O71 1.235 . S
Fe88 O90 1.918 . S
Fe88 O93 1.997 . S
Fe88 O94 2.002 . S
Fe88 O99 1.976 . S
Fe88 O102 1.996 . S
Fe89 O90 1.918 . S
Fe89 O97 1.997 . S
Fe89 O100 1.996 . S
Fe89 O104 1.976 . S
Fe89 O107 2.002 . S
O90 Fe88 1.918 . S
O90 Fe89 1.918 . S
O90 Fe91 1.918 . S
Fe91 O90 1.918 . S
Fe91 O92 2.002 . S
Fe91 O101 1.976 . S
Fe91 O105 1.996 . S
Fe91 O108 1.997 . S
O92 Fe91 2.002 . S
O92 C109 1.295 . S
O93 Fe88 1.997 . S
O93 C109 1.235 . S
O94 Fe88 2.002 . S
O94 C95 1.295 . S
C95 O94 1.295 . S
C95 O97 1.235 . S
C96 O101 1.287 . S
C96 O102 1.255 . S
O97 Fe89 1.997 . S
O97 C95 1.235 . S
C98 O104 1.287 . S
C98 O105 1.255 . S
O99 Fe88 1.976 . S
O99 C106 1.287 . S
O100 Fe89 1.996 . S
O100 C106 1.255 . S
O101 Fe91 1.976 . S
O101 C96 1.287 . S
O102 Fe88 1.996 . S
O102 C96 1.255 . S
C103 O107 1.295 . S
C103 O108 1.235 . S
O104 Fe89 1.976 . S
O104 C98 1.287 . S
O105 Fe91 1.996 . S
O105 C98 1.255 . S
C106 O99 1.287 . S
C106 O100 1.255 . S
O107 Fe89 2.002 . S
O107 C103 1.295 . S
O108 Fe91 1.997 . S
O108 C103 1.235 . S
C109 O92 1.295 . S
C109 O93 1.235 . S
Fe110 O112 1.918 . S
Fe110 O115 1.997 . S
Fe110 O116 2.002 . S
Fe110 O121 1.976 . S
Fe110 O124 1.996 . S
Fe111 O112 1.918 . S
Fe111 O119 1.997 . S
Fe111 O122 1.996 . S
Fe111 O126 1.976 . S
Fe111 O129 2.002 . S
O112 Fe110 1.918 . S
O112 Fe111 1.918 . S
O112 Fe113 1.918 . S
Fe113 O112 1.918 . S
Fe113 O114 2.002 . S
Fe113 O123 1.976 . S
Fe113 O127 1.996 . S
Fe113 O130 1.997 . S
O114 Fe113 2.002 . S
O114 C131 1.295 . S
O115 Fe110 1.997 . S
O115 C131 1.235 . S
O116 Fe110 2.002 . S
O116 C117 1.295 . S
C117 O116 1.295 . S
C117 O119 1.235 . S
C118 O123 1.287 . S
C118 O124 1.255 . S
O119 Fe111 1.997 . S
O119 C117 1.235 . S
C120 O126 1.287 . S
C120 O127 1.255 . S
O121 Fe110 1.976 . S
O121 C128 1.287 . S
O122 Fe111 1.996 . S
O122 C128 1.255 . S
O123 Fe113 1.976 . S
O123 C118 1.287 . S
O124 Fe110 1.996 . S
O124 C118 1.255 . S
C125 O129 1.295 . S
C125 O130 1.235 . S
O126 Fe111 1.976 . S
O126 C120 1.287 . S
O127 Fe113 1.996 . S
O127 C120 1.255 . S
C128 O121 1.287 . S
C128 O122 1.255 . S
O129 Fe111 2.002 . S
O129 C125 1.295 . S
O130 Fe113 1.997 . S
O130 C125 1.235 . S
C131 O114 1.295 . S
C131 O115 1.235 . S
Fe132 O134 1.918 . S
Fe132 O137 1.997 . S
Fe132 O138 2.000 1_655 S
Fe132 O143 1.976 1_655 S
Fe132 O146 1.996 . S
Fe133 O134 1.918 . S
Fe133 O141 1.997 1_655 S
Fe133 O144 1.996 1_655 S
Fe133 O148 1.976 . S
Fe133 O151 2.002 . S
O134 Fe132 1.918 . S
O134 Fe133 1.918 . S
O134 Fe135 1.918 . S
Fe135 O134 1.918 . S
Fe135 O136 2.002 . S
Fe135 O145 1.976 . S
Fe135 O149 1.996 . S
Fe135 O152 1.997 . S
O136 Fe135 2.002 . S
O136 C153 1.295 . S
O137 Fe132 1.997 . S
O137 C153 1.235 . S
O138 Fe132 2.000 1_455 S
O138 C139 1.297 . S
C139 O138 1.297 . S
C139 O141 1.235 . S
C140 O145 1.287 . S
C140 O146 1.255 . S
O141 Fe133 1.997 1_455 S
O141 C139 1.235 . S
C142 O148 1.287 . S
C142 O149 1.255 . S
O143 Fe132 1.976 1_455 S
O143 C150 1.287 . S
O144 Fe133 1.996 1_455 S
O144 C150 1.255 . S
O145 Fe135 1.976 . S
O145 C140 1.287 . S
O146 Fe132 1.996 . S
O146 C140 1.255 . S
C147 O151 1.295 . S
C147 O152 1.235 . S
O148 Fe133 1.976 . S
O148 C142 1.287 . S
O149 Fe135 1.996 . S
O149 C142 1.255 . S
C150 O143 1.287 . S
C150 O144 1.255 . S
O151 Fe133 2.002 . S
O151 C147 1.295 . S
O152 Fe135 1.997 . S
O152 C147 1.235 . S
C153 O136 1.295 . S
C153 O137 1.235 . S
Fe154 O156 1.918 . S
Fe154 O159 1.997 . S
Fe154 O160 2.002 . S
Fe154 O165 1.976 . S
Fe154 O168 1.996 . S
Fe155 O156 1.918 . S
Fe155 O163 1.997 . S
Fe155 O166 1.996 . S
Fe155 O170 1.976 . S
Fe155 O173 2.002 . S
O156 Fe154 1.918 . S
O156 Fe155 1.918 . S
O156 Fe157 1.918 . S
Fe157 O156 1.918 . S
Fe157 O158 2.002 . S
Fe157 O167 1.976 . S
Fe157 O171 1.996 . S
Fe157 O174 1.997 . S
O158 Fe157 2.002 . S
O158 C175 1.295 . S
O159 Fe154 1.997 . S
O159 C175 1.235 . S
O160 Fe154 2.002 . S
O160 C161 1.295 . S
C161 O160 1.295 . S
C161 O163 1.235 . S
C162 O167 1.287 . S
C162 O168 1.255 . S
O163 Fe155 1.997 . S
O163 C161 1.235 . S
C164 O170 1.287 . S
C164 O171 1.255 . S
O165 Fe154 1.976 . S
O165 C172 1.287 . S
O166 Fe155 1.996 . S
O166 C172 1.255 . S
O167 Fe157 1.976 . S
O167 C162 1.287 . S
O168 Fe154 1.996 . S
O168 C162 1.255 . S
C169 O173 1.295 . S
C169 O174 1.235 . S
O170 Fe155 1.976 . S
O170 C164 1.287 . S
O171 Fe157 1.996 . S
O171 C164 1.255 . S
C172 O165 1.287 . S
C172 O166 1.255 . S
O173 Fe155 2.002 . S
O173 C169 1.295 . S
O174 Fe157 1.997 . S
O174 C169 1.235 . S
C175 O158 1.295 . S
C175 O159 1.235 . S
Fe176 O178 1.918 . S
Fe176 O181 1.997 . S
Fe176 O182 2.000 1_545 S
Fe176 O187 1.976 1_545 S
Fe176 O190 1.996 . S
Fe177 O178 1.918 . S
Fe177 O185 1.997 1_545 S
Fe177 O188 1.996 1_545 S
Fe177 O192 1.976 . S
Fe177 O195 2.002 . S
O178 Fe176 1.918 . S
O178 Fe177 1.918 . S
O178 Fe179 1.918 . S
Fe179 O178 1.918 . S
Fe179 O180 2.002 . S
Fe179 O189 1.976 . S
Fe179 O193 1.996 . S
Fe179 O196 1.997 . S
O180 Fe179 2.002 . S
O180 C197 1.295 . S
O181 Fe176 1.997 . S
O181 C197 1.235 . S
O182 Fe176 2.000 1_565 S
O182 C183 1.297 . S
C183 O182 1.297 . S
C183 O185 1.235 . S
C184 O189 1.287 . S
C184 O190 1.255 . S
O185 Fe177 1.997 1_565 S
O185 C183 1.235 . S
C186 O192 1.287 . S
C186 O193 1.255 . S
O187 Fe176 1.976 1_565 S
O187 C194 1.287 . S
O188 Fe177 1.996 1_565 S
O188 C194 1.255 . S
O189 Fe179 1.976 . S
O189 C184 1.287 . S
O190 Fe176 1.996 . S
O190 C184 1.255 . S
C191 O195 1.295 . S
C191 O196 1.235 . S
O192 Fe177 1.976 . S
O192 C186 1.287 . S
O193 Fe179 1.996 . S
O193 C186 1.255 . S
C194 O187 1.287 . S
C194 O188 1.255 . S
O195 Fe177 2.002 . S
O195 C191 1.295 . S
O196 Fe179 1.997 . S
O196 C191 1.235 . S
C197 O180 1.295 . S
C197 O181 1.235 . S
Fe198 O200 1.918 . S
Fe198 O203 1.997 . S
Fe198 O204 2.002 . S
Fe198 O209 1.976 . S
Fe198 O212 1.996 . S
Fe199 O200 1.918 . S
Fe199 O207 1.997 . S
Fe199 O210 1.996 . S
Fe199 O214 1.976 . S
Fe199 O217 2.002 . S
O200 Fe198 1.918 . S
O200 Fe199 1.918 . S
O200 Fe201 1.918 . S
Fe201 O200 1.918 . S
Fe201 O202 2.002 . S
Fe201 O211 1.976 . S
Fe201 O215 1.996 . S
Fe201 O218 1.997 . S
O202 Fe201 2.002 . S
O202 C219 1.295 . S
O203 Fe198 1.997 . S
O203 C219 1.235 . S
O204 Fe198 2.002 . S
O204 C205 1.295 . S
C205 O204 1.295 . S
C205 O207 1.235 . S
C206 O211 1.287 . S
C206 O212 1.255 . S
O207 Fe199 1.997 . S
O207 C205 1.235 . S
C208 O214 1.287 . S
C208 O215 1.255 . S
O209 Fe198 1.976 . S
O209 C216 1.287 . S
O210 Fe199 1.996 . S
O210 C216 1.255 . S
O211 Fe201 1.976 . S
O211 C206 1.287 . S
O212 Fe198 1.996 . S
O212 C206 1.255 . S
C213 O217 1.295 . S
C213 O218 1.235 . S
O214 Fe199 1.976 . S
O214 C208 1.287 . S
O215 Fe201 1.996 . S
O215 C208 1.255 . S
C216 O209 1.287 . S
C216 O210 1.255 . S
O217 Fe199 2.002 . S
O217 C213 1.295 . S
O218 Fe201 1.997 . S
O218 C213 1.235 . S
C219 O202 1.295 . S
C219 O203 1.235 . S
Fe220 O222 1.918 . S
Fe220 O225 1.997 1_565 S
Fe220 O226 2.002 . S
Fe220 O231 1.976 . S
Fe220 O234 1.996 1_565 S
Fe221 O222 1.918 . S
Fe221 O229 1.997 . S
Fe221 O232 1.996 . S
Fe221 O236 1.976 . S
Fe221 O239 2.002 . S
O222 Fe220 1.918 . S
O222 Fe221 1.918 . S
O222 Fe223 1.918 . S
Fe223 O222 1.918 . S
Fe223 O224 2.000 1_565 S
Fe223 O233 1.976 1_565 S
Fe223 O237 1.996 . S
Fe223 O240 1.997 . S
O224 Fe223 2.000 1_545 S
O224 C241 1.297 . S
O225 Fe220 1.997 1_545 S
O225 C241 1.235 . S
O226 Fe220 2.002 . S
O226 C227 1.295 . S
C227 O226 1.295 . S
C227 O229 1.235 . S
C228 O233 1.287 . S
C228 O234 1.255 . S
O229 Fe221 1.997 . S
O229 C227 1.235 . S
C230 O236 1.287 . S
C230 O237 1.255 . S
O231 Fe220 1.976 . S
O231 C238 1.287 . S
O232 Fe221 1.996 . S
O232 C238 1.255 . S
O233 Fe223 1.976 1_545 S
O233 C228 1.287 . S
O234 Fe220 1.996 1_545 S
O234 C228 1.255 . S
C235 O239 1.295 . S
C235 O240 1.235 . S
O236 Fe221 1.976 . S
O236 C230 1.287 . S
O237 Fe223 1.996 . S
O237 C230 1.255 . S
C238 O231 1.287 . S
C238 O232 1.255 . S
O239 Fe221 2.002 . S
O239 C235 1.295 . S
O240 Fe223 1.997 . S
O240 C235 1.235 . S
C241 O224 1.297 . S
C241 O225 1.235 . S
Fe242 O244 1.918 . S
Fe242 O247 1.997 . S
Fe242 O248 2.002 . S
Fe242 O253 1.976 . S
Fe242 O256 1.996 . S
Fe243 O244 1.918 . S
Fe243 O251 1.997 . S
Fe243 O254 1.996 . S
Fe243 O258 1.976 . S
Fe243 O261 2.002 . S
O244 Fe242 1.918 . S
O244 Fe243 1.918 . S
O244 Fe245 1.918 . S
Fe245 O244 1.918 . S
Fe245 O246 2.002 . S
Fe245 O255 1.976 . S
Fe245 O259 1.996 . S
Fe245 O262 1.997 . S
O246 Fe245 2.002 . S
O246 C263 1.295 . S
O247 Fe242 1.997 . S
O247 C263 1.235 . S
O248 Fe242 2.002 . S
O248 C249 1.295 . S
C249 O248 1.295 . S
C249 O251 1.235 . S
C250 O255 1.287 . S
C250 O256 1.255 . S
O251 Fe243 1.997 . S
O251 C249 1.235 . S
C252 O258 1.287 . S
C252 O259 1.255 . S
O253 Fe242 1.976 . S
O253 C260 1.287 . S
O254 Fe243 1.996 . S
O254 C260 1.255 . S
O255 Fe245 1.976 . S
O255 C250 1.287 . S
O256 Fe242 1.996 . S
O256 C250 1.255 . S
C257 O261 1.295 . S
C257 O262 1.235 . S
O258 Fe243 1.976 . S
O258 C252 1.287 . S
O259 Fe245 1.996 . S
O259 C252 1.255 . S
C260 O253 1.287 . S
C260 O254 1.255 . S
O261 Fe243 2.002 . S
O261 C257 1.295 . S
O262 Fe245 1.997 . S
O262 C257 1.235 . S
C263 O246 1.295 . S
C263 O247 1.235 . S
Fe264 O266 1.918 . S
Fe264 O269 1.997 . S
Fe264 O270 2.002 . S
Fe264 O275 1.976 . S
Fe264 O278 1.996 . S
Fe265 O266 1.918 . S
Fe265 O273 1.997 . S
Fe265 O276 1.996 . S
Fe265 O280 1.976 . S
Fe265 O283 2.002 . S
O266 Fe264 1.918 . S
O266 Fe265 1.918 . S
O266 Fe267 1.918 . S
Fe267 O266 1.918 . S
Fe267 O268 2.002 . S
Fe267 O277 1.976 . S
Fe267 O281 1.996 . S
Fe267 O284 1.997 . S
O268 Fe267 2.002 . S
O268 C285 1.295 . S
O269 Fe264 1.997 . S
O269 C285 1.235 . S
O270 Fe264 2.002 . S
O270 C271 1.295 . S
C271 O270 1.295 . S
C271 O273 1.235 . S
C272 O277 1.287 . S
C272 O278 1.255 . S
O273 Fe265 1.997 . S
O273 C271 1.235 . S
C274 O280 1.287 . S
C274 O281 1.255 . S
O275 Fe264 1.976 . S
O275 C282 1.287 . S
O276 Fe265 1.996 . S
O276 C282 1.255 . S
O277 Fe267 1.976 . S
O277 C272 1.287 . S
O278 Fe264 1.996 . S
O278 C272 1.255 . S
C279 O283 1.295 . S
C279 O284 1.235 . S
O280 Fe265 1.976 . S
O280 C274 1.287 . S
O281 Fe267 1.996 . S
O281 C274 1.255 . S
C282 O275 1.287 . S
C282 O276 1.255 . S
O283 Fe265 2.002 . S
O283 C279 1.295 . S
O284 Fe267 1.997 . S
O284 C279 1.235 . S
C285 O268 1.295 . S
C285 O269 1.235 . S
Fe286 O288 1.918 . S
Fe286 O291 1.997 . S
Fe286 O292 2.002 . S
Fe286 O297 1.976 . S
Fe286 O300 1.996 . S
Fe287 O288 1.918 . S
Fe287 O295 1.997 . S
Fe287 O298 1.996 . S
Fe287 O302 1.976 . S
Fe287 O305 2.002 . S
O288 Fe286 1.918 . S
O288 Fe287 1.918 . S
O288 Fe289 1.918 . S
Fe289 O288 1.918 . S
Fe289 O290 2.002 . S
Fe289 O299 1.976 . S
Fe289 O303 1.996 . S
Fe289 O306 1.997 . S
O290 Fe289 2.002 . S
O290 C307 1.295 . S
O291 Fe286 1.997 . S
O291 C307 1.235 . S
O292 Fe286 2.002 . S
O292 C293 1.295 . S
C293 O292 1.295 . S
C293 O295 1.235 . S
C294 O299 1.287 . S
C294 O300 1.255 . S
O295 Fe287 1.997 . S
O295 C293 1.235 . S
C296 O302 1.287 . S
C296 O303 1.255 . S
O297 Fe286 1.976 . S
O297 C304 1.287 . S
O298 Fe287 1.996 . S
O298 C304 1.255 . S
O299 Fe289 1.976 . S
O299 C294 1.287 . S
O300 Fe286 1.996 . S
O300 C294 1.255 . S
C301 O305 1.295 . S
C301 O306 1.235 . S
O302 Fe287 1.976 . S
O302 C296 1.287 . S
O303 Fe289 1.996 . S
O303 C296 1.255 . S
C304 O297 1.287 . S
C304 O298 1.255 . S
O305 Fe287 2.002 . S
O305 C301 1.295 . S
O306 Fe289 1.997 . S
O306 C301 1.235 . S
C307 O290 1.295 . S
C307 O291 1.235 . S
Fe308 O310 1.918 . S
Fe308 O313 1.997 . S
Fe308 O314 2.002 . S
Fe308 O319 1.976 . S
Fe308 O322 1.996 . S
Fe309 O310 1.918 . S
Fe309 O317 1.997 . S
Fe309 O320 1.996 . S
Fe309 O324 1.976 . S
Fe309 O327 2.002 . S
O310 Fe308 1.918 . S
O310 Fe309 1.918 . S
O310 Fe311 1.918 . S
Fe311 O310 1.918 . S
Fe311 O312 2.002 . S
Fe311 O321 1.976 . S
Fe311 O325 1.996 . S
Fe311 O328 1.997 . S
O312 Fe311 2.002 . S
O312 C329 1.295 . S
O313 Fe308 1.997 . S
O313 C329 1.235 . S
O314 Fe308 2.002 . S
O314 C315 1.295 . S
C315 O314 1.295 . S
C315 O317 1.235 . S
C316 O321 1.287 . S
C316 O322 1.255 . S
O317 Fe309 1.997 . S
O317 C315 1.235 . S
C318 O324 1.287 . S
C318 O325 1.255 . S
O319 Fe308 1.976 . S
O319 C326 1.287 . S
O320 Fe309 1.996 . S
O320 C326 1.255 . S
O321 Fe311 1.976 . S
O321 C316 1.287 . S
O322 Fe308 1.996 . S
O322 C316 1.255 . S
C323 O327 1.295 . S
C323 O328 1.235 . S
O324 Fe309 1.976 . S
O324 C318 1.287 . S
O325 Fe311 1.996 . S
O325 C318 1.255 . S
C326 O319 1.287 . S
C326 O320 1.255 . S
O327 Fe309 2.002 . S
O327 C323 1.295 . S
O328 Fe311 1.997 . S
O328 C323 1.235 . S
C329 O312 1.295 . S
C329 O313 1.235 . S
Fe330 O332 1.918 . S
Fe330 O335 1.997 . S
Fe330 O336 2.002 . S
Fe330 O341 1.976 . S
Fe330 O344 1.996 . S
Fe331 O332 1.918 . S
Fe331 O339 1.997 . S
Fe331 O342 1.996 . S
Fe331 O346 1.976 . S
Fe331 O349 2.002 . S
O332 Fe330 1.918 . S
O332 Fe331 1.918 . S
O332 Fe333 1.918 . S
Fe333 O332 1.918 . S
Fe333 O334 2.002 . S
Fe333 O343 1.976 . S
Fe333 O347 1.996 . S
Fe333 O350 1.997 . S
O334 Fe333 2.002 . S
O334 C351 1.295 . S
O335 Fe330 1.997 . S
O335 C351 1.235 . S
O336 Fe330 2.002 . S
O336 C337 1.295 . S
C337 O336 1.295 . S
C337 O339 1.235 . S
C338 O343 1.287 . S
C338 O344 1.255 . S
O339 Fe331 1.997 . S
O339 C337 1.235 . S
C340 O346 1.287 . S
C340 O347 1.255 . S
O341 Fe330 1.976 . S
O341 C348 1.287 . S
O342 Fe331 1.996 . S
O342 C348 1.255 . S
O343 Fe333 1.976 . S
O343 C338 1.287 . S
O344 Fe330 1.996 . S
O344 C338 1.255 . S
C345 O349 1.295 . S
C345 O350 1.235 . S
O346 Fe331 1.976 . S
O346 C340 1.287 . S
O347 Fe333 1.996 . S
O347 C340 1.255 . S
C348 O341 1.287 . S
C348 O342 1.255 . S
O349 Fe331 2.002 . S
O349 C345 1.295 . S
O350 Fe333 1.997 . S
O350 C345 1.235 . S
C351 O334 1.295 . S
C351 O335 1.235 . S
Fe352 O354 1.918 . S
Fe352 O357 1.997 . S
Fe352 O358 2.002 . S
Fe352 O363 1.976 . S
Fe352 O366 1.996 . S
Fe353 O354 1.918 . S
Fe353 O361 1.997 . S
Fe353 O364 1.996 . S
Fe353 O368 1.976 1_554 S
Fe353 O371 2.000 1_554 S
O354 Fe352 1.918 . S
O354 Fe353 1.918 . S
O354 Fe355 1.918 . S
Fe355 O354 1.918 . S
Fe355 O356 2.002 . S
Fe355 O365 1.976 . S
Fe355 O369 1.996 1_554 S
Fe355 O372 1.997 1_554 S
O356 Fe355 2.002 . S
O356 C373 1.295 . S
O357 Fe352 1.997 . S
O357 C373 1.235 . S
O358 Fe352 2.002 . S
O358 C359 1.295 . S
C359 O358 1.295 . S
C359 O361 1.235 . S
C360 O365 1.287 . S
C360 O366 1.255 . S
O361 Fe353 1.997 . S
O361 C359 1.235 . S
C362 O368 1.287 . S
C362 O369 1.255 . S
O363 Fe352 1.976 . S
O363 C370 1.287 . S
O364 Fe353 1.996 . S
O364 C370 1.255 . S
O365 Fe355 1.976 . S
O365 C360 1.287 . S
O366 Fe352 1.996 . S
O366 C360 1.255 . S
C367 O371 1.297 . S
C367 O372 1.235 . S
O368 Fe353 1.976 1_556 S
O368 C362 1.287 . S
O369 Fe355 1.996 1_556 S
O369 C362 1.255 . S
C370 O363 1.287 . S
C370 O364 1.255 . S
O371 Fe353 2.000 1_556 S
O371 C367 1.297 . S
O372 Fe355 1.997 1_556 S
O372 C367 1.235 . S
C373 O356 1.295 . S
C373 O357 1.235 . S
Fe374 O376 1.918 . S
Fe374 O379 1.997 1_556 S
Fe374 O380 2.002 . S
Fe374 O385 1.976 . S
Fe374 O388 1.996 1_556 S
Fe375 O376 1.918 . S
Fe375 O383 1.997 . S
Fe375 O386 1.996 . S
Fe375 O390 1.976 . S
Fe375 O393 2.002 . S
O376 Fe374 1.918 . S
O376 Fe375 1.918 . S
O376 Fe377 1.918 . S
Fe377 O376 1.918 . S
Fe377 O378 2.000 1_556 S
Fe377 O387 1.976 1_556 S
Fe377 O391 1.996 . S
Fe377 O394 1.997 . S
O378 Fe377 2.000 1_554 S
O378 C395 1.297 . S
O379 Fe374 1.997 1_554 S
O379 C395 1.235 . S
O380 Fe374 2.002 . S
O380 C381 1.295 . S
C381 O380 1.295 . S
C381 O383 1.235 . S
C382 O387 1.287 . S
C382 O388 1.255 . S
O383 Fe375 1.997 . S
O383 C381 1.235 . S
C384 O390 1.287 . S
C384 O391 1.255 . S
O385 Fe374 1.976 . S
O385 C392 1.287 . S
O386 Fe375 1.996 . S
O386 C392 1.255 . S
O387 Fe377 1.976 1_554 S
O387 C382 1.287 . S
O388 Fe374 1.996 1_554 S
O388 C382 1.255 . S
C389 O393 1.295 . S
C389 O394 1.235 . S
O390 Fe375 1.976 . S
O390 C384 1.287 . S
O391 Fe377 1.996 . S
O391 C384 1.255 . S
C392 O385 1.287 . S
C392 O386 1.255 . S
O393 Fe375 2.002 . S
O393 C389 1.295 . S
O394 Fe377 1.997 . S
O394 C389 1.235 . S
C395 O378 1.297 . S
C395 O379 1.235 . S
Fe396 O398 1.918 . S
Fe396 O401 1.997 . S
Fe396 O402 2.002 . S
Fe396 O407 1.976 . S
Fe396 O410 1.996 . S
Fe397 O398 1.918 . S
Fe397 O405 1.997 . S
Fe397 O408 1.996 . S
Fe397 O412 1.976 . S
Fe397 O415 2.002 . S
O398 Fe396 1.918 . S
O398 Fe397 1.918 . S
O398 Fe399 1.918 . S
Fe399 O398 1.918 . S
Fe399 O400 2.002 . S
Fe399 O409 1.976 . S
Fe399 O413 1.996 . S
Fe399 O416 1.997 . S
O400 Fe399 2.002 . S
O400 C417 1.295 . S
O401 Fe396 1.997 . S
O401 C417 1.235 . S
O402 Fe396 2.002 . S
O402 C403 1.295 . S
C403 O402 1.295 . S
C403 O405 1.235 . S
C404 O409 1.287 . S
C404 O410 1.255 . S
O405 Fe397 1.997 . S
O405 C403 1.235 . S
C406 O412 1.287 . S
C406 O413 1.255 . S
O407 Fe396 1.976 . S
O407 C414 1.287 . S
O408 Fe397 1.996 . S
O408 C414 1.255 . S
O409 Fe399 1.976 . S
O409 C404 1.287 . S
O410 Fe396 1.996 . S
O410 C404 1.255 . S
C411 O415 1.295 . S
C411 O416 1.235 . S
O412 Fe397 1.976 . S
O412 C406 1.287 . S
O413 Fe399 1.996 . S
O413 C406 1.255 . S
C414 O407 1.287 . S
C414 O408 1.255 . S
O415 Fe397 2.002 . S
O415 C411 1.295 . S
O416 Fe399 1.997 . S
O416 C411 1.235 . S
C417 O400 1.295 . S
C417 O401 1.235 . S
Fe418 O420 1.918 . S
Fe418 O423 1.997 . S
Fe418 O424 2.002 . S
Fe418 O429 1.976 . S
Fe418 O432 1.996 . S
Fe419 O420 1.918 . S
Fe419 O427 1.997 . S
Fe419 O430 1.996 . S
Fe419 O434 1.976 . S
Fe419 O437 2.002 . S
O420 Fe418 1.918 . S
O420 Fe419 1.918 . S
O420 Fe421 1.918 . S
Fe421 O420 1.918 . S
Fe421 O422 2.002 . S
Fe421 O431 1.976 . S
Fe421 O435 1.996 . S
Fe421 O438 1.997 . S
O422 Fe421 2.002 . S
O422 C439 1.295 . S
O423 Fe418 1.997 . S
O423 C439 1.235 . S
O424 Fe418 2.002 . S
O424 C425 1.295 . S
C425 O424 1.295 . S
C425 O427 1.235 . S
C426 O431 1.287 . S
C426 O432 1.255 . S
O427 Fe419 1.997 . S
O427 C425 1.235 . S
C428 O434 1.287 . S
C428 O435 1.255 . S
O429 Fe418 1.976 . S
O429 C436 1.287 . S
O430 Fe419 1.996 . S
O430 C436 1.255 . S
O431 Fe421 1.976 . S
O431 C426 1.287 . S
O432 Fe418 1.996 . S
O432 C426 1.255 . S
C433 O437 1.295 . S
C433 O438 1.235 . S
O434 Fe419 1.976 . S
O434 C428 1.287 . S
O435 Fe421 1.996 . S
O435 C428 1.255 . S
C436 O429 1.287 . S
C436 O430 1.255 . S
O437 Fe419 2.002 . S
O437 C433 1.295 . S
O438 Fe421 1.997 . S
O438 C433 1.235 . S
C439 O422 1.295 . S
C439 O423 1.235 . S
Fe440 O442 1.918 . S
Fe440 O445 1.997 . S
Fe440 O446 2.002 . S
Fe440 O451 1.976 . S
Fe440 O454 1.996 . S
Fe441 O442 1.918 . S
Fe441 O449 1.997 . S
Fe441 O452 1.996 . S
Fe441 O456 1.976 . S
Fe441 O459 2.002 . S
O442 Fe440 1.918 . S
O442 Fe441 1.918 . S
O442 Fe443 1.918 . S
Fe443 O442 1.918 . S
Fe443 O444 2.002 . S
Fe443 O453 1.976 . S
Fe443 O457 1.996 . S
Fe443 O460 1.997 . S
O444 Fe443 2.002 . S
O444 C461 1.295 . S
O445 Fe440 1.997 . S
O445 C461 1.235 . S
O446 Fe440 2.002 . S
O446 C447 1.295 . S
C447 O446 1.295 . S
C447 O449 1.235 . S
C448 O453 1.287 . S
C448 O454 1.255 . S
O449 Fe441 1.997 . S
O449 C447 1.235 . S
C450 O456 1.287 . S
C450 O457 1.255 . S
O451 Fe440 1.976 . S
O451 C458 1.287 . S
O452 Fe441 1.996 . S
O452 C458 1.255 . S
O453 Fe443 1.976 . S
O453 C448 1.287 . S
O454 Fe440 1.996 . S
O454 C448 1.255 . S
C455 O459 1.295 . S
C455 O460 1.235 . S
O456 Fe441 1.976 . S
O456 C450 1.287 . S
O457 Fe443 1.996 . S
O457 C450 1.255 . S
C458 O451 1.287 . S
C458 O452 1.255 . S
O459 Fe441 2.002 . S
O459 C455 1.295 . S
O460 Fe443 1.997 . S
O460 C455 1.235 . S
C461 O444 1.295 . S
C461 O445 1.235 . S
Fe462 O464 1.918 . S
Fe462 O467 1.997 . S
Fe462 O468 2.002 . S
Fe462 O473 1.976 . S
Fe462 O476 1.996 . S
Fe463 O464 1.918 . S
Fe463 O471 1.997 . S
Fe463 O474 1.996 . S
Fe463 O478 1.976 . S
Fe463 O481 2.002 . S
O464 Fe462 1.918 . S
O464 Fe463 1.918 . S
O464 Fe465 1.918 . S
Fe465 O464 1.918 . S
Fe465 O466 2.002 . S
Fe465 O475 1.976 . S
Fe465 O479 1.996 . S
Fe465 O482 1.997 . S
O466 Fe465 2.002 . S
O466 C483 1.295 . S
O467 Fe462 1.997 . S
O467 C483 1.235 . S
O468 Fe462 2.002 . S
O468 C469 1.295 . S
C469 O468 1.295 . S
C469 O471 1.235 . S
C470 O475 1.287 . S
C470 O476 1.255 . S
O471 Fe463 1.997 . S
O471 C469 1.235 . S
C472 O478 1.287 . S
C472 O479 1.255 . S
O473 Fe462 1.976 . S
O473 C480 1.287 . S
O474 Fe463 1.996 . S
O474 C480 1.255 . S
O475 Fe465 1.976 . S
O475 C470 1.287 . S
O476 Fe462 1.996 . S
O476 C470 1.255 . S
C477 O481 1.295 . S
C477 O482 1.235 . S
O478 Fe463 1.976 . S
O478 C472 1.287 . S
O479 Fe465 1.996 . S
O479 C472 1.255 . S
C480 O473 1.287 . S
C480 O474 1.255 . S
O481 Fe463 2.002 . S
O481 C477 1.295 . S
O482 Fe465 1.997 . S
O482 C477 1.235 . S
C483 O466 1.295 . S
C483 O467 1.235 . S
Fe484 O486 1.918 . S
Fe484 O489 1.997 . S
Fe484 O490 2.002 . S
Fe484 O495 1.976 . S
Fe484 O498 1.996 . S
Fe485 O486 1.918 . S
Fe485 O493 1.997 . S
Fe485 O496 1.996 . S
Fe485 O500 1.976 . S
Fe485 O503 2.002 . S
O486 Fe484 1.918 . S
O486 Fe485 1.918 . S
O486 Fe487 1.918 . S
Fe487 O486 1.918 . S
Fe487 O488 2.002 . S
Fe487 O497 1.976 . S
Fe487 O501 1.996 . S
Fe487 O504 1.997 . S
O488 Fe487 2.002 . S
O488 C505 1.295 . S
O489 Fe484 1.997 . S
O489 C505 1.235 . S
O490 Fe484 2.002 . S
O490 C491 1.295 . S
C491 O490 1.295 . S
C491 O493 1.235 . S
C492 O497 1.287 . S
C492 O498 1.255 . S
O493 Fe485 1.997 . S
O493 C491 1.235 . S
C494 O500 1.287 . S
C494 O501 1.255 . S
O495 Fe484 1.976 . S
O495 C502 1.287 . S
O496 Fe485 1.996 . S
O496 C502 1.255 . S
O497 Fe487 1.976 . S
O497 C492 1.287 . S
O498 Fe484 1.996 . S
O498 C492 1.255 . S
C499 O503 1.295 . S
C499 O504 1.235 . S
O500 Fe485 1.976 . S
O500 C494 1.287 . S
O501 Fe487 1.996 . S
O501 C494 1.255 . S
C502 O495 1.287 . S
C502 O496 1.255 . S
O503 Fe485 2.002 . S
O503 C499 1.295 . S
O504 Fe487 1.997 . S
O504 C499 1.235 . S
C505 O488 1.295 . S
C505 O489 1.235 . S
Fe506 O508 1.918 . S
Fe506 O511 1.997 . S
Fe506 O512 2.002 . S
Fe506 O517 1.976 . S
Fe506 O520 1.996 . S
Fe507 O508 1.918 . S
Fe507 O515 1.997 . S
Fe507 O518 1.996 . S
Fe507 O522 1.976 . S
Fe507 O525 2.002 . S
O508 Fe506 1.918 . S
O508 Fe507 1.918 . S
O508 Fe509 1.918 . S
Fe509 O508 1.918 . S
Fe509 O510 2.002 . S
Fe509 O519 1.976 . S
Fe509 O523 1.996 . S
Fe509 O526 1.997 . S
O510 Fe509 2.002 . S
O510 C527 1.295 . S
O511 Fe506 1.997 . S
O511 C527 1.235 . S
O512 Fe506 2.002 . S
O512 C513 1.295 . S
C513 O512 1.295 . S
C513 O515 1.235 . S
C514 O519 1.287 . S
C514 O520 1.255 . S
O515 Fe507 1.997 . S
O515 C513 1.235 . S
C516 O522 1.287 . S
C516 O523 1.255 . S
O517 Fe506 1.976 . S
O517 C524 1.287 . S
O518 Fe507 1.996 . S
O518 C524 1.255 . S
O519 Fe509 1.976 . S
O519 C514 1.287 . S
O520 Fe506 1.996 . S
O520 C514 1.255 . S
C521 O525 1.295 . S
C521 O526 1.235 . S
O522 Fe507 1.976 . S
O522 C516 1.287 . S
O523 Fe509 1.996 . S
O523 C516 1.255 . S
C524 O517 1.287 . S
C524 O518 1.255 . S
O525 Fe507 2.002 . S
O525 C521 1.295 . S
O526 Fe509 1.997 . S
O526 C521 1.235 . S
C527 O510 1.295 . S
C527 O511 1.235 . S
C528 C529 1.363 . S
C528 C534 1.379 . S
C528 N536 1.356 . S
C529 C528 1.363 . S
C529 C535 1.363 . S
C530 C531 1.363 . S
C530 C535 1.379 . S
C530 N537 1.356 . S
C531 C530 1.363 . S
C531 C534 1.363 . S
N532 C534 1.356 . S
N532 H544 0.984 . S
N532 H545 0.985 . S
N533 C535 1.356 . S
N533 H538 0.984 . S
N533 H539 0.985 . S
C534 C528 1.379 . S
C534 C531 1.363 . S
C534 N532 1.356 . S
C535 C529 1.363 . S
C535 C530 1.379 . S
C535 N533 1.356 . S
N536 C528 1.356 . S
N536 H542 0.984 . S
N536 H543 0.984 . S
N537 C530 1.356 . S
N537 H540 0.984 . S
N537 H541 0.985 . S
H538 N533 0.984 . S
H539 N533 0.985 . S
H540 N537 0.984 . S
H541 N537 0.985 . S
H542 N536 0.984 . S
H543 N536 0.984 . S
H544 N532 0.984 . S
H545 N532 0.985 . S
C546 C547 1.363 . S
C546 C552 1.379 . S
C546 N554 1.356 . S
C547 C546 1.363 . S
C547 C553 1.363 . S
C548 C549 1.363 . S
C548 C553 1.379 . S
C548 N555 1.356 . S
C549 C548 1.363 . S
C549 C552 1.363 . S
N550 C552 1.356 . S
N550 H562 0.984 . S
N550 H563 0.985 . S
N551 C553 1.356 . S
N551 H556 0.984 . S
N551 H557 0.985 . S
C552 C546 1.379 . S
C552 C549 1.363 . S
C552 N550 1.356 . S
C553 C547 1.363 . S
C553 C548 1.379 . S
C553 N551 1.356 . S
N554 C546 1.356 . S
N554 H560 0.984 . S
N554 H561 0.984 . S
N555 C548 1.356 . S
N555 H558 0.984 . S
N555 H559 0.985 . S
H556 N551 0.984 . S
H557 N551 0.985 . S
H558 N555 0.984 . S
H559 N555 0.985 . S
H560 N554 0.984 . S
H561 N554 0.984 . S
H562 N550 0.984 . S
H563 N550 0.985 . S
C564 C565 1.363 . S
C564 C570 1.379 . S
C564 N572 1.356 . S
C565 C564 1.363 . S
C565 C571 1.363 . S
C566 C567 1.363 . S
C566 C571 1.379 . S
C566 N573 1.356 . S
C567 C566 1.363 . S
C567 C570 1.363 . S
N568 C570 1.356 . S
N568 H580 0.984 . S
N568 H581 0.985 . S
N569 C571 1.356 . S
N569 H574 0.984 . S
N569 H575 0.985 . S
C570 C564 1.379 . S
C570 C567 1.363 . S
C570 N568 1.356 . S
C571 C565 1.363 . S
C571 C566 1.379 . S
C571 N569 1.356 . S
N572 C564 1.356 . S
N572 H578 0.984 . S
N572 H579 0.984 . S
N573 C566 1.356 . S
N573 H576 0.984 . S
N573 H577 0.985 . S
H574 N569 0.984 . S
H575 N569 0.985 . S
H576 N573 0.984 . S
H577 N573 0.985 . S
H578 N572 0.984 . S
H579 N572 0.984 . S
H580 N568 0.984 . S
H581 N568 0.985 . S
C582 C583 1.363 . S
C582 C588 1.379 . S
C582 N590 1.356 . S
C583 C582 1.363 . S
C583 C589 1.363 . S
C584 C585 1.363 . S
C584 C589 1.379 . S
C584 N591 1.356 . S
C585 C584 1.363 . S
C585 C588 1.363 . S
N586 C588 1.356 . S
N586 H598 0.984 . S
N586 H599 0.985 . S
N587 C589 1.356 . S
N587 H592 0.984 . S
N587 H593 0.985 . S
C588 C582 1.379 . S
C588 C585 1.363 . S
C588 N586 1.356 . S
C589 C583 1.363 . S
C589 C584 1.379 . S
C589 N587 1.356 . S
N590 C582 1.356 . S
N590 H596 0.984 . S
N590 H597 0.984 . S
N591 C584 1.356 . S
N591 H594 0.984 . S
N591 H595 0.985 . S
H592 N587 0.984 . S
H593 N587 0.985 . S
H594 N591 0.984 . S
H595 N591 0.985 . S
H596 N590 0.984 . S
H597 N590 0.984 . S
H598 N586 0.984 . S
H599 N586 0.985 . S
C600 C601 1.363 . S
C600 C606 1.379 . S
C600 N608 1.356 . S
C601 C600 1.363 . S
C601 C607 1.363 . S
C602 C603 1.363 . S
C602 C607 1.379 . S
C602 N609 1.356 . S
C603 C602 1.363 . S
C603 C606 1.363 . S
N604 C606 1.356 . S
N604 H616 0.984 . S
N604 H617 0.985 . S
N605 C607 1.356 . S
N605 H610 0.984 . S
N605 H611 0.985 . S
C606 C600 1.379 . S
C606 C603 1.363 . S
C606 N604 1.356 . S
C607 C601 1.363 . S
C607 C602 1.379 . S
C607 N605 1.356 . S
N608 C600 1.356 . S
N608 H614 0.984 . S
N608 H615 0.984 . S
N609 C602 1.356 . S
N609 H612 0.984 . S
N609 H613 0.985 . S
H610 N605 0.984 . S
H611 N605 0.985 . S
H612 N609 0.984 . S
H613 N609 0.985 . S
H614 N608 0.984 . S
H615 N608 0.984 . S
H616 N604 0.984 . S
H617 N604 0.985 . S
C618 C619 1.363 . S
C618 C624 1.379 . S
C618 N626 1.356 . S
C619 C618 1.363 . S
C619 C625 1.363 . S
C620 C621 1.363 . S
C620 C625 1.379 . S
C620 N627 1.356 . S
C621 C620 1.363 . S
C621 C624 1.363 . S
N622 C624 1.356 . S
N622 H634 0.984 . S
N622 H635 0.985 . S
N623 C625 1.356 . S
N623 H628 0.984 . S
N623 H629 0.985 . S
C624 C618 1.379 . S
C624 C621 1.363 . S
C624 N622 1.356 . S
C625 C619 1.363 . S
C625 C620 1.379 . S
C625 N623 1.356 . S
N626 C618 1.356 . S
N626 H632 0.984 . S
N626 H633 0.984 . S
N627 C620 1.356 . S
N627 H630 0.984 . S
N627 H631 0.985 . S
H628 N623 0.984 . S
H629 N623 0.985 . S
H630 N627 0.984 . S
H631 N627 0.985 . S
H632 N626 0.984 . S
H633 N626 0.984 . S
H634 N622 0.984 . S
H635 N622 0.985 . S
C636 C637 1.363 . S
C636 C642 1.379 . S
C636 N644 1.356 . S
C637 C636 1.363 . S
C637 C643 1.363 . S
C638 C639 1.363 . S
C638 C643 1.379 . S
C638 N645 1.356 . S
C639 C638 1.363 . S
C639 C642 1.363 . S
N640 C642 1.356 . S
N640 H652 0.984 . S
N640 H653 0.985 . S
N641 C643 1.356 . S
N641 H646 0.984 . S
N641 H647 0.985 . S
C642 C636 1.379 . S
C642 C639 1.363 . S
C642 N640 1.356 . S
C643 C637 1.363 . S
C643 C638 1.379 . S
C643 N641 1.356 . S
N644 C636 1.356 . S
N644 H650 0.984 . S
N644 H651 0.984 . S
N645 C638 1.356 . S
N645 H648 0.984 . S
N645 H649 0.985 . S
H646 N641 0.984 . S
H647 N641 0.985 . S
H648 N645 0.984 . S
H649 N645 0.985 . S
H650 N644 0.984 . S
H651 N644 0.984 . S
H652 N640 0.984 . S
H653 N640 0.985 . S
C654 C655 1.363 . S
C654 C660 1.379 . S
C654 N662 1.356 . S
C655 C654 1.363 . S
C655 C661 1.363 . S
C656 C657 1.363 . S
C656 C661 1.379 . S
C656 N663 1.356 . S
C657 C656 1.363 . S
C657 C660 1.363 . S
N658 C660 1.356 . S
N658 H670 0.984 . S
N658 H671 0.985 . S
N659 C661 1.356 . S
N659 H664 0.984 . S
N659 H665 0.985 . S
C660 C654 1.379 . S
C660 C657 1.363 . S
C660 N658 1.356 . S
C661 C655 1.363 . S
C661 C656 1.379 . S
C661 N659 1.356 . S
N662 C654 1.356 . S
N662 H668 0.984 . S
N662 H669 0.984 . S
N663 C656 1.356 . S
N663 H666 0.984 . S
N663 H667 0.985 . S
H664 N659 0.984 . S
H665 N659 0.985 . S
H666 N663 0.984 . S
H667 N663 0.985 . S
H668 N662 0.984 . S
H669 N662 0.984 . S
H670 N658 0.984 . S
H671 N658 0.985 . S
C672 C673 1.363 . S
C672 C678 1.379 . S
C672 N680 1.356 . S
C673 C672 1.363 . S
C673 C679 1.363 . S
C674 C675 1.363 . S
C674 C679 1.379 . S
C674 N681 1.356 . S
C675 C674 1.363 . S
C675 C678 1.363 . S
N676 C678 1.356 . S
N676 H688 0.984 . S
N676 H689 0.985 . S
N677 C679 1.356 . S
N677 H682 0.984 . S
N677 H683 0.985 . S
C678 C672 1.379 . S
C678 C675 1.363 . S
C678 N676 1.356 . S
C679 C673 1.363 . S
C679 C674 1.379 . S
C679 N677 1.356 . S
N680 C672 1.356 . S
N680 H686 0.984 . S
N680 H687 0.984 . S
N681 C674 1.356 . S
N681 H684 0.984 . S
N681 H685 0.985 . S
H682 N677 0.984 . S
H683 N677 0.985 . S
H684 N681 0.984 . S
H685 N681 0.985 . S
H686 N680 0.984 . S
H687 N680 0.984 . S
H688 N676 0.984 . S
H689 N676 0.985 . S
C690 C691 1.363 . S
C690 C696 1.379 . S
C690 N698 1.356 . S
C691 C690 1.363 . S
C691 C697 1.363 . S
C692 C693 1.363 . S
C692 C697 1.379 . S
C692 N699 1.356 . S
C693 C692 1.363 . S
C693 C696 1.363 . S
N694 C696 1.356 . S
N694 H706 0.984 . S
N694 H707 0.985 . S
N695 C697 1.356 . S
N695 H700 0.984 . S
N695 H701 0.985 . S
C696 C690 1.379 . S
C696 C693 1.363 . S
C696 N694 1.356 . S
C697 C691 1.363 . S
C697 C692 1.379 . S
C697 N695 1.356 . S
N698 C690 1.356 . S
N698 H704 0.984 . S
N698 H705 0.984 . S
N699 C692 1.356 . S
N699 H702 0.984 . S
N699 H703 0.985 . S
H700 N695 0.984 . S
H701 N695 0.985 . S
H702 N699 0.984 . S
H703 N699 0.985 . S
H704 N698 0.984 . S
H705 N698 0.984 . S
H706 N694 0.984 . S
H707 N694 0.985 . S
C708 C709 1.363 . S
C708 C714 1.379 . S
C708 N716 1.356 . S
C709 C708 1.363 . S
C709 C715 1.363 . S
C710 C711 1.363 . S
C710 C715 1.379 . S
C710 N717 1.356 . S
C711 C710 1.363 . S
C711 C714 1.363 . S
N712 C714 1.356 . S
N712 H724 0.984 . S
N712 H725 0.985 . S
N713 C715 1.356 . S
N713 H718 0.984 . S
N713 H719 0.985 . S
C714 C708 1.379 . S
C714 C711 1.363 . S
C714 N712 1.356 . S
C715 C709 1.363 . S
C715 C710 1.379 . S
C715 N713 1.356 . S
N716 C708 1.356 . S
N716 H722 0.984 . S
N716 H723 0.984 . S
N717 C710 1.356 . S
N717 H720 0.984 . S
N717 H721 0.985 . S
H718 N713 0.984 . S
H719 N713 0.985 . S
H720 N717 0.984 . S
H721 N717 0.985 . S
H722 N716 0.984 . S
H723 N716 0.984 . S
H724 N712 0.984 . S
H725 N712 0.985 . S
C726 C727 1.363 . S
C726 C732 1.379 . S
C726 N734 1.356 . S
C727 C726 1.363 . S
C727 C733 1.363 . S
C728 C729 1.363 . S
C728 C733 1.379 . S
C728 N735 1.356 . S
C729 C728 1.363 . S
C729 C732 1.363 . S
N730 C732 1.356 . S
N730 H742 0.984 . S
N730 H743 0.985 . S
N731 C733 1.356 . S
N731 H736 0.984 . S
N731 H737 0.985 . S
C732 C726 1.379 . S
C732 C729 1.363 . S
C732 N730 1.356 . S
C733 C727 1.363 . S
C733 C728 1.379 . S
C733 N731 1.356 . S
N734 C726 1.356 . S
N734 H740 0.984 . S
N734 H741 0.984 . S
N735 C728 1.356 . S
N735 H738 0.984 . S
N735 H739 0.985 . S
H736 N731 0.984 . S
H737 N731 0.985 . S
H738 N735 0.984 . S
H739 N735 0.985 . S
H740 N734 0.984 . S
H741 N734 0.984 . S
H742 N730 0.984 . S
H743 N730 0.985 . S
C744 C745 1.363 . S
C744 C750 1.379 . S
C744 N752 1.356 . S
C745 C744 1.363 . S
C745 C751 1.363 . S
C746 C747 1.363 . S
C746 C751 1.379 . S
C746 N753 1.356 . S
C747 C746 1.363 . S
C747 C750 1.363 . S
N748 C750 1.356 . S
N748 H760 0.984 . S
N748 H761 0.985 . S
N749 C751 1.356 . S
N749 H754 0.984 . S
N749 H755 0.985 . S
C750 C744 1.379 . S
C750 C747 1.363 . S
C750 N748 1.356 . S
C751 C745 1.363 . S
C751 C746 1.379 . S
C751 N749 1.356 . S
N752 C744 1.356 . S
N752 H758 0.984 . S
N752 H759 0.984 . S
N753 C746 1.356 . S
N753 H756 0.984 . S
N753 H757 0.985 . S
H754 N749 0.984 . S
H755 N749 0.985 . S
H756 N753 0.984 . S
H757 N753 0.985 . S
H758 N752 0.984 . S
H759 N752 0.984 . S
H760 N748 0.984 . S
H761 N748 0.985 . S
C762 C763 1.363 . S
C762 C768 1.379 . S
C762 N770 1.356 . S
C763 C762 1.363 . S
C763 C769 1.363 . S
C764 C765 1.363 . S
C764 C769 1.379 . S
C764 N771 1.356 . S
C765 C764 1.363 . S
C765 C768 1.363 . S
N766 C768 1.356 . S
N766 H778 0.984 . S
N766 H779 0.985 . S
N767 C769 1.356 . S
N767 H772 0.984 . S
N767 H773 0.985 . S
C768 C762 1.379 . S
C768 C765 1.363 . S
C768 N766 1.356 . S
C769 C763 1.363 . S
C769 C764 1.379 . S
C769 N767 1.356 . S
N770 C762 1.356 . S
N770 H776 0.984 . S
N770 H777 0.984 . S
N771 C764 1.356 . S
N771 H774 0.984 . S
N771 H775 0.985 . S
H772 N767 0.984 . S
H773 N767 0.985 . S
H774 N771 0.984 . S
H775 N771 0.985 . S
H776 N770 0.984 . S
H777 N770 0.984 . S
H778 N766 0.984 . S
H779 N766 0.985 . S
C780 C781 1.363 . S
C780 C786 1.379 . S
C780 N788 1.356 . S
C781 C780 1.363 . S
C781 C787 1.363 . S
C782 C783 1.363 . S
C782 C787 1.379 . S
C782 N789 1.356 . S
C783 C782 1.363 . S
C783 C786 1.363 . S
N784 C786 1.356 1_554 S
N784 H796 0.984 . S
N784 H797 0.985 . S
N785 C787 1.356 . S
N785 H790 0.984 . S
N785 H791 0.985 . S
C786 C780 1.379 . S
C786 C783 1.363 . S
C786 N784 1.356 1_556 S
C787 C781 1.363 . S
C787 C782 1.379 . S
C787 N785 1.356 . S
N788 C780 1.356 . S
N788 H794 0.984 . S
N788 H795 0.984 . S
N789 C782 1.356 . S
N789 H792 0.984 . S
N789 H793 0.985 . S
H790 N785 0.984 . S
H791 N785 0.985 . S
H792 N789 0.984 . S
H793 N789 0.985 . S
H794 N788 0.984 . S
H795 N788 0.984 . S
H796 N784 0.984 . S
H797 N784 0.985 . S
C798 C799 1.363 . S
C798 C804 1.379 . S
C798 N806 1.356 . S
C799 C798 1.363 . S
C799 C805 1.363 . S
C800 C801 1.363 . S
C800 C805 1.379 . S
C800 N807 1.356 . S
C801 C800 1.363 . S
C801 C804 1.363 . S
N802 C804 1.356 . S
N802 H814 0.984 . S
N802 H815 0.985 . S
N803 C805 1.356 . S
N803 H808 0.984 . S
N803 H809 0.985 . S
C804 C798 1.379 . S
C804 C801 1.363 . S
C804 N802 1.356 . S
C805 C799 1.363 . S
C805 C800 1.379 . S
C805 N803 1.356 . S
N806 C798 1.356 . S
N806 H812 0.984 . S
N806 H813 0.984 . S
N807 C800 1.356 . S
N807 H810 0.984 . S
N807 H811 0.985 . S
H808 N803 0.984 . S
H809 N803 0.985 . S
H810 N807 0.984 . S
H811 N807 0.985 . S
H812 N806 0.984 . S
H813 N806 0.984 . S
H814 N802 0.984 . S
H815 N802 0.985 . S
C816 C817 1.363 . S
C816 C822 1.379 . S
C816 N824 1.356 1_545 S
C817 C816 1.363 . S
C817 C823 1.363 . S
C818 C819 1.363 . S
C818 C823 1.379 . S
C818 N825 1.356 . S
C819 C818 1.363 . S
C819 C822 1.363 . S
N820 C822 1.356 . S
N820 H832 0.984 . S
N820 H833 0.985 . S
N821 C823 1.356 . S
N821 H826 0.984 . S
N821 H827 0.985 . S
C822 C816 1.379 . S
C822 C819 1.363 . S
C822 N820 1.356 . S
C823 C817 1.363 . S
C823 C818 1.379 . S
C823 N821 1.356 . S
N824 C816 1.356 1_565 S
N824 H830 0.984 . S
N824 H831 0.984 . S
N825 C818 1.356 . S
N825 H828 0.984 . S
N825 H829 0.985 . S
H826 N821 0.984 . S
H827 N821 0.985 . S
H828 N825 0.984 . S
H829 N825 0.985 . S
H830 N824 0.984 . S
H831 N824 0.984 . S
H832 N820 0.984 . S
H833 N820 0.985 . S
C834 C835 1.363 . S
C834 C840 1.379 . S
C834 N842 1.356 . S
C835 C834 1.363 . S
C835 C841 1.363 . S
C836 C837 1.363 . S
C836 C841 1.379 . S
C836 N843 1.356 . S
C837 C836 1.363 . S
C837 C840 1.363 . S
N838 C840 1.356 . S
N838 H850 0.984 . S
N838 H851 0.985 . S
N839 C841 1.356 . S
N839 H844 0.984 . S
N839 H845 0.985 . S
C840 C834 1.379 . S
C840 C837 1.363 . S
C840 N838 1.356 . S
C841 C835 1.363 . S
C841 C836 1.379 . S
C841 N839 1.356 . S
N842 C834 1.356 . S
N842 H848 0.984 . S
N842 H849 0.984 . S
N843 C836 1.356 . S
N843 H846 0.984 . S
N843 H847 0.985 . S
H844 N839 0.984 . S
H845 N839 0.985 . S
H846 N843 0.984 . S
H847 N843 0.985 . S
H848 N842 0.984 . S
H849 N842 0.984 . S
H850 N838 0.984 . S
H851 N838 0.985 . S
C852 C853 1.363 . S
C852 C858 1.379 . S
C852 N860 1.356 . S
C853 C852 1.363 . S
C853 C859 1.363 . S
C854 C855 1.363 . S
C854 C859 1.379 . S
C854 N861 1.356 1_565 S
C855 C854 1.363 . S
C855 C858 1.363 . S
N856 C858 1.356 . S
N856 H868 0.984 . S
N856 H869 0.985 1_565 S
N857 C859 1.356 . S
N857 H862 0.984 . S
N857 H863 0.985 . S
C858 C852 1.379 . S
C858 C855 1.363 . S
C858 N856 1.356 . S
C859 C853 1.363 . S
C859 C854 1.379 . S
C859 N857 1.356 . S
N860 C852 1.356 . S
N860 H866 0.984 . S
N860 H867 0.984 . S
N861 C854 1.356 1_545 S
N861 H864 0.984 . S
N861 H865 0.985 . S
H862 N857 0.984 . S
H863 N857 0.985 . S
H864 N861 0.984 . S
H865 N861 0.985 . S
H866 N860 0.984 . S
H867 N860 0.984 . S
H868 N856 0.984 . S
H869 N856 0.985 1_545 S
C870 C871 1.363 . S
C870 C876 1.379 . S
C870 N878 1.356 . S
C871 C870 1.363 . S
C871 C877 1.363 . S
C872 C873 1.363 . S
C872 C877 1.379 . S
C872 N879 1.356 . S
C873 C872 1.363 . S
C873 C876 1.363 . S
N874 C876 1.356 . S
N874 H886 0.984 . S
N874 H887 0.985 . S
N875 C877 1.356 . S
N875 H880 0.984 . S
N875 H881 0.985 . S
C876 C870 1.379 . S
C876 C873 1.363 . S
C876 N874 1.356 . S
C877 C871 1.363 . S
C877 C872 1.379 . S
C877 N875 1.356 . S
N878 C870 1.356 . S
N878 H884 0.984 . S
N878 H885 0.984 . S
N879 C872 1.356 . S
N879 H882 0.984 . S
N879 H883 0.985 . S
H880 N875 0.984 . S
H881 N875 0.985 . S
H882 N879 0.984 . S
H883 N879 0.985 . S
H884 N878 0.984 . S
H885 N878 0.984 . S
H886 N874 0.984 . S
H887 N874 0.985 . S
C888 C889 1.363 . S
C888 C894 1.379 . S
C888 N896 1.356 . S
C889 C888 1.363 . S
C889 C895 1.363 . S
C890 C891 1.363 . S
C890 C895 1.379 . S
C890 N897 1.356 . S
C891 C890 1.363 . S
C891 C894 1.363 . S
N892 C894 1.356 . S
N892 H904 0.984 . S
N892 H905 0.985 . S
N893 C895 1.356 . S
N893 H898 0.984 . S
N893 H899 0.985 . S
C894 C888 1.379 . S
C894 C891 1.363 . S
C894 N892 1.356 . S
C895 C889 1.363 . S
C895 C890 1.379 . S
C895 N893 1.356 . S
N896 C888 1.356 . S
N896 H902 0.984 . S
N896 H903 0.984 . S
N897 C890 1.356 . S
N897 H900 0.984 . S
N897 H901 0.985 . S
H898 N893 0.984 . S
H899 N893 0.985 . S
H900 N897 0.984 . S
H901 N897 0.985 . S
H902 N896 0.984 . S
H903 N896 0.984 . S
H904 N892 0.984 . S
H905 N892 0.985 . S
C906 C907 1.363 . S
C906 C912 1.379 . S
C906 N914 1.356 . S
C907 C906 1.363 . S
C907 C913 1.363 . S
C908 C909 1.363 . S
C908 C913 1.379 . S
C908 N915 1.356 . S
C909 C908 1.363 . S
C909 C912 1.363 . S
N910 C912 1.356 . S
N910 H922 0.984 . S
N910 H923 0.985 . S
N911 C913 1.356 . S
N911 H916 0.984 . S
N911 H917 0.985 . S
C912 C906 1.379 . S
C912 C909 1.363 . S
C912 N910 1.356 . S
C913 C907 1.363 . S
C913 C908 1.379 . S
C913 N911 1.356 . S
N914 C906 1.356 . S
N914 H920 0.984 . S
N914 H921 0.984 . S
N915 C908 1.356 . S
N915 H918 0.984 . S
N915 H919 0.985 . S
H916 N911 0.984 . S
H917 N911 0.985 . S
H918 N915 0.984 . S
H919 N915 0.985 . S
H920 N914 0.984 . S
H921 N914 0.984 . S
H922 N910 0.984 . S
H923 N910 0.985 . S
C924 C925 1.363 . S
C924 C930 1.379 . S
C924 N932 1.356 . S
C925 C924 1.363 . S
C925 C931 1.363 . S
C926 C927 1.363 . S
C926 C931 1.379 . S
C926 N933 1.356 1_455 S
C927 C926 1.363 . S
C927 C930 1.363 . S
N928 C930 1.356 1_554 S
N928 H940 0.984 . S
N928 H941 0.985 . S
N929 C931 1.356 . S
N929 H934 0.984 . S
N929 H935 0.985 . S
C930 C924 1.379 . S
C930 C927 1.363 . S
C930 N928 1.356 1_556 S
C931 C925 1.363 . S
C931 C926 1.379 . S
C931 N929 1.356 . S
N932 C924 1.356 . S
N932 H938 0.984 . S
N932 H939 0.984 . S
N933 C926 1.356 1_655 S
N933 H936 0.984 1_556 S
N933 H937 0.985 . S
H934 N929 0.984 . S
H935 N929 0.985 . S
H936 N933 0.984 1_554 S
H937 N933 0.985 . S
H938 N932 0.984 . S
H939 N932 0.984 . S
H940 N928 0.984 . S
H941 N928 0.985 . S
C942 C943 1.363 . S
C942 C948 1.379 . S
C942 N950 1.356 . S
C943 C942 1.363 . S
C943 C949 1.363 . S
C944 C945 1.363 . S
C944 C949 1.379 . S
C944 N951 1.356 . S
C945 C944 1.363 . S
C945 C948 1.363 . S
N946 C948 1.356 . S
N946 H958 0.984 . S
N946 H959 0.985 . S
N947 C949 1.356 . S
N947 H952 0.984 . S
N947 H953 0.985 . S
C948 C942 1.379 . S
C948 C945 1.363 . S
C948 N946 1.356 . S
C949 C943 1.363 . S
C949 C944 1.379 . S
C949 N947 1.356 . S
N950 C942 1.356 . S
N950 H956 0.984 . S
N950 H957 0.984 . S
N951 C944 1.356 . S
N951 H954 0.984 . S
N951 H955 0.985 . S
H952 N947 0.984 . S
H953 N947 0.985 . S
H954 N951 0.984 . S
H955 N951 0.985 . S
H956 N950 0.984 . S
H957 N950 0.984 . S
H958 N946 0.984 . S
H959 N946 0.985 . S
C960 C961 1.363 . S
C960 C966 1.379 . S
C960 N968 1.356 . S
C961 C960 1.363 . S
C961 C967 1.363 . S
C962 C963 1.363 . S
C962 C967 1.379 . S
C962 N969 1.356 . S
C963 C962 1.363 . S
C963 C966 1.363 . S
N964 C966 1.356 . S
N964 H976 0.984 . S
N964 H977 0.985 . S
N965 C967 1.356 1_455 S
N965 H970 0.984 . S
N965 H971 0.985 . S
C966 C960 1.379 . S
C966 C963 1.363 . S
C966 N964 1.356 . S
C967 C961 1.363 . S
C967 C962 1.379 . S
C967 N965 1.356 1_655 S
N968 C960 1.356 . S
N968 H974 0.984 . S
N968 H975 0.984 . S
N969 C962 1.356 . S
N969 H972 0.984 . S
N969 H973 0.985 . S
H970 N965 0.984 . S
H971 N965 0.985 . S
H972 N969 0.984 . S
H973 N969 0.985 . S
H974 N968 0.984 . S
H975 N968 0.984 . S
H976 N964 0.984 . S
H977 N964 0.985 . S
C978 C979 1.363 . S
C978 C984 1.379 . S
C978 N986 1.356 . S
C979 C978 1.363 . S
C979 C985 1.363 . S
C980 C981 1.363 . S
C980 C985 1.379 . S
C980 N987 1.356 . S
C981 C980 1.363 . S
C981 C984 1.363 . S
N982 C984 1.356 . S
N982 H994 0.984 . S
N982 H995 0.985 . S
N983 C985 1.356 . S
N983 H988 0.984 . S
N983 H989 0.985 . S
C984 C978 1.379 . S
C984 C981 1.363 . S
C984 N982 1.356 . S
C985 C979 1.363 . S
C985 C980 1.379 . S
C985 N983 1.356 . S
N986 C978 1.356 . S
N986 H992 0.984 . S
N986 H993 0.984 . S
N987 C980 1.356 . S
N987 H990 0.984 . S
N987 H991 0.985 . S
H988 N983 0.984 . S
H989 N983 0.985 . S
H990 N987 0.984 . S
H991 N987 0.985 . S
H992 N986 0.984 . S
H993 N986 0.984 . S
H994 N982 0.984 . S
H995 N982 0.985 . S
C996 C997 1.363 . S
C996 C1002 1.379 . S
C996 N1004 1.356 . S
C997 C996 1.363 . S
C997 C1003 1.363 . S
C998 C999 1.363 . S
C998 C1003 1.379 . S
C998 N1005 1.356 1_554 S
C999 C998 1.363 . S
C999 C1002 1.363 . S
N1000 C1002 1.356 . S
N1000 H1012 0.984 . S
N1000 H1013 0.985 1_554 S
N1001 C1003 1.356 . S
N1001 H1006 0.984 . S
N1001 H1007 0.985 . S
C1002 C996 1.379 . S
C1002 C999 1.363 . S
C1002 N1000 1.356 . S
C1003 C997 1.363 . S
C1003 C998 1.379 . S
C1003 N1001 1.356 . S
N1004 C996 1.356 . S
N1004 H1010 0.984 . S
N1004 H1011 0.984 . S
N1005 C998 1.356 1_556 S
N1005 H1008 0.984 . S
N1005 H1009 0.985 . S
H1006 N1001 0.984 . S
H1007 N1001 0.985 . S
H1008 N1005 0.984 . S
H1009 N1005 0.985 . S
H1010 N1004 0.984 . S
H1011 N1004 0.984 . S
H1012 N1000 0.984 . S
H1013 N1000 0.985 1_556 S
C1014 C1015 1.363 . S
C1014 C1020 1.379 . S
C1014 N1022 1.356 . S
C1015 C1014 1.363 . S
C1015 C1021 1.363 . S
C1016 C1017 1.363 . S
C1016 C1021 1.379 . S
C1016 N1023 1.356 . S
C1017 C1016 1.363 . S
C1017 C1020 1.363 . S
N1018 C1020 1.356 . S
N1018 H1030 0.984 . S
N1018 H1031 0.985 . S
N1019 C1021 1.356 . S
N1019 H1024 0.984 . S
N1019 H1025 0.985 . S
C1020 C1014 1.379 . S
C1020 C1017 1.363 . S
C1020 N1018 1.356 . S
C1021 C1015 1.363 . S
C1021 C1016 1.379 . S
C1021 N1019 1.356 . S
N1022 C1014 1.356 . S
N1022 H1028 0.984 . S
N1022 H1029 0.984 . S
N1023 C1016 1.356 . S
N1023 H1026 0.984 . S
N1023 H1027 0.985 . S
H1024 N1019 0.984 . S
H1025 N1019 0.985 . S
H1026 N1023 0.984 . S
H1027 N1023 0.985 . S
H1028 N1022 0.984 . S
H1029 N1022 0.984 . S
H1030 N1018 0.984 . S
H1031 N1018 0.985 . S
C1032 C1033 1.363 . S
C1032 C1038 1.379 . S
C1032 N1040 1.356 . S
C1033 C1032 1.363 . S
C1033 C1039 1.363 . S
C1034 C1035 1.363 . S
C1034 C1039 1.379 . S
C1034 N1041 1.356 . S
C1035 C1034 1.363 . S
C1035 C1038 1.363 . S
N1036 C1038 1.356 . S
N1036 H1048 0.984 . S
N1036 H1049 0.985 . S
N1037 C1039 1.356 . S
N1037 H1042 0.984 . S
N1037 H1043 0.985 . S
C1038 C1032 1.379 . S
C1038 C1035 1.363 . S
C1038 N1036 1.356 . S
C1039 C1033 1.363 . S
C1039 C1034 1.379 . S
C1039 N1037 1.356 . S
N1040 C1032 1.356 . S
N1040 H1046 0.984 . S
N1040 H1047 0.984 . S
N1041 C1034 1.356 . S
N1041 H1044 0.984 . S
N1041 H1045 0.985 . S
H1042 N1037 0.984 . S
H1043 N1037 0.985 . S
H1044 N1041 0.984 . S
H1045 N1041 0.985 . S
H1046 N1040 0.984 . S
H1047 N1040 0.984 . S
H1048 N1036 0.984 . S
H1049 N1036 0.985 . S
C1050 C1051 1.363 . S
C1050 C1056 1.379 . S
C1050 N1058 1.356 1_545 S
C1051 C1050 1.363 . S
C1051 C1057 1.363 . S
C1052 C1053 1.363 . S
C1052 C1057 1.379 . S
C1052 N1059 1.356 . S
C1053 C1052 1.363 . S
C1053 C1056 1.363 . S
N1054 C1056 1.356 . S
N1054 H1066 0.984 . S
N1054 H1067 0.985 . S
N1055 C1057 1.356 1_455 S
N1055 H1060 0.984 . S
N1055 H1061 0.985 . S
C1056 C1050 1.379 . S
C1056 C1053 1.363 . S
C1056 N1054 1.356 . S
C1057 C1051 1.363 . S
C1057 C1052 1.379 . S
C1057 N1055 1.356 1_655 S
N1058 C1050 1.356 1_565 S
N1058 H1064 0.984 . S
N1058 H1065 0.984 1_655 S
N1059 C1052 1.356 . S
N1059 H1062 0.984 . S
N1059 H1063 0.985 . S
H1060 N1055 0.984 . S
H1061 N1055 0.985 . S
H1062 N1059 0.984 . S
H1063 N1059 0.985 . S
H1064 N1058 0.984 . S
H1065 N1058 0.984 1_455 S
H1066 N1054 0.984 . S
H1067 N1054 0.985 . S
C1068 C1069 1.363 . S
C1068 C1074 1.379 . S
C1068 N1076 1.356 . S
C1069 C1068 1.363 . S
C1069 C1075 1.363 . S
C1070 C1071 1.363 . S
C1070 C1075 1.379 . S
C1070 N1077 1.356 . S
C1071 C1070 1.363 . S
C1071 C1074 1.363 . S
N1072 C1074 1.356 . S
N1072 H1084 0.984 . S
N1072 H1085 0.985 . S
N1073 C1075 1.356 . S
N1073 H1078 0.984 . S
N1073 H1079 0.985 . S
C1074 C1068 1.379 . S
C1074 C1071 1.363 . S
C1074 N1072 1.356 . S
C1075 C1069 1.363 . S
C1075 C1070 1.379 . S
C1075 N1073 1.356 . S
N1076 C1068 1.356 . S
N1076 H1082 0.984 . S
N1076 H1083 0.984 . S
N1077 C1070 1.356 . S
N1077 H1080 0.984 . S
N1077 H1081 0.985 . S
H1078 N1073 0.984 . S
H1079 N1073 0.985 . S
H1080 N1077 0.984 . S
H1081 N1077 0.985 . S
H1082 N1076 0.984 . S
H1083 N1076 0.984 . S
H1084 N1072 0.984 . S
H1085 N1072 0.985 . S
C1086 C1087 1.363 . S
C1086 C1092 1.379 . S
C1086 N1094 1.356 . S
C1087 C1086 1.363 . S
C1087 C1093 1.363 . S
C1088 C1089 1.363 . S
C1088 C1093 1.379 . S
C1088 N1095 1.356 . S
C1089 C1088 1.363 . S
C1089 C1092 1.363 . S
N1090 C1092 1.356 . S
N1090 H1102 0.984 . S
N1090 H1103 0.985 . S
N1091 C1093 1.356 1_545 S
N1091 H1096 0.984 . S
N1091 H1097 0.985 . S
C1092 C1086 1.379 . S
C1092 C1089 1.363 . S
C1092 N1090 1.356 . S
C1093 C1087 1.363 . S
C1093 C1088 1.379 . S
C1093 N1091 1.356 1_565 S
N1094 C1086 1.356 . S
N1094 H1100 0.984 . S
N1094 H1101 0.984 . S
N1095 C1088 1.356 . S
N1095 H1098 0.984 . S
N1095 H1099 0.985 . S
H1096 N1091 0.984 . S
H1097 N1091 0.985 . S
H1098 N1095 0.984 . S
H1099 N1095 0.985 . S
H1100 N1094 0.984 . S
H1101 N1094 0.984 . S
H1102 N1090 0.984 . S
H1103 N1090 0.985 . S
C1104 C1105 1.363 . S
C1104 C1110 1.379 . S
C1104 N1112 1.356 . S
C1105 C1104 1.363 . S
C1105 C1111 1.363 . S
C1106 C1107 1.363 . S
C1106 C1111 1.379 . S
C1106 N1113 1.356 . S
C1107 C1106 1.363 . S
C1107 C1110 1.363 . S
N1108 C1110 1.356 . S
N1108 H1120 0.984 . S
N1108 H1121 0.985 . S
N1109 C1111 1.356 . S
N1109 H1114 0.984 . S
N1109 H1115 0.985 . S
C1110 C1104 1.379 . S
C1110 C1107 1.363 . S
C1110 N1108 1.356 . S
C1111 C1105 1.363 . S
C1111 C1106 1.379 . S
C1111 N1109 1.356 . S
N1112 C1104 1.356 . S
N1112 H1118 0.984 . S
N1112 H1119 0.984 . S
N1113 C1106 1.356 . S
N1113 H1116 0.984 . S
N1113 H1117 0.985 . S
H1114 N1109 0.984 . S
H1115 N1109 0.985 . S
H1116 N1113 0.984 . S
H1117 N1113 0.985 . S
H1118 N1112 0.984 . S
H1119 N1112 0.984 . S
H1120 N1108 0.984 . S
H1121 N1108 0.985 . S
C1122 C1123 1.363 . S
C1122 C1128 1.379 . S
C1122 N1130 1.356 . S
C1123 C1122 1.363 . S
C1123 C1129 1.363 . S
C1124 C1125 1.363 . S
C1124 C1129 1.379 . S
C1124 N1131 1.356 . S
C1125 C1124 1.363 . S
C1125 C1128 1.363 . S
N1126 C1128 1.356 . S
N1126 H1138 0.984 . S
N1126 H1139 0.985 . S
N1127 C1129 1.356 1_655 S
N1127 H1132 0.984 . S
N1127 H1133 0.985 . S
C1128 C1122 1.379 . S
C1128 C1125 1.363 . S
C1128 N1126 1.356 . S
C1129 C1123 1.363 . S
C1129 C1124 1.379 . S
C1129 N1127 1.356 1_455 S
N1130 C1122 1.356 . S
N1130 H1136 0.984 . S
N1130 H1137 0.984 1_455 S
N1131 C1124 1.356 . S
N1131 H1134 0.984 . S
N1131 H1135 0.985 . S
H1132 N1127 0.984 . S
H1133 N1127 0.985 . S
H1134 N1131 0.984 . S
H1135 N1131 0.985 . S
H1136 N1130 0.984 . S
H1137 N1130 0.984 1_655 S
H1138 N1126 0.984 . S
H1139 N1126 0.985 . S
C1140 C1141 1.363 . S
C1140 C1146 1.379 . S
C1140 N1148 1.356 . S
C1141 C1140 1.363 . S
C1141 C1147 1.363 . S
C1142 C1143 1.363 . S
C1142 C1147 1.379 . S
C1142 N1149 1.356 . S
C1143 C1142 1.363 . S
C1143 C1146 1.363 . S
N1144 C1146 1.356 . S
N1144 H1156 0.984 . S
N1144 H1157 0.985 . S
N1145 C1147 1.356 . S
N1145 H1150 0.984 . S
N1145 H1151 0.985 . S
C1146 C1140 1.379 . S
C1146 C1143 1.363 . S
C1146 N1144 1.356 . S
C1147 C1141 1.363 . S
C1147 C1142 1.379 . S
C1147 N1145 1.356 . S
N1148 C1140 1.356 . S
N1148 H1154 0.984 . S
N1148 H1155 0.984 . S
N1149 C1142 1.356 . S
N1149 H1152 0.984 . S
N1149 H1153 0.985 . S
H1150 N1145 0.984 . S
H1151 N1145 0.985 . S
H1152 N1149 0.984 . S
H1153 N1149 0.985 . S
H1154 N1148 0.984 . S
H1155 N1148 0.984 . S
H1156 N1144 0.984 . S
H1157 N1144 0.985 . S
C1158 C1159 1.363 . S
C1158 C1164 1.379 . S
C1158 N1166 1.356 . S
C1159 C1158 1.363 . S
C1159 C1165 1.363 . S
C1160 C1161 1.363 . S
C1160 C1165 1.379 . S
C1160 N1167 1.356 . S
C1161 C1160 1.363 . S
C1161 C1164 1.363 . S
N1162 C1164 1.356 . S
N1162 H1174 0.984 . S
N1162 H1175 0.985 . S
N1163 C1165 1.356 . S
N1163 H1168 0.984 . S
N1163 H1169 0.985 . S
C1164 C1158 1.379 . S
C1164 C1161 1.363 . S
C1164 N1162 1.356 . S
C1165 C1159 1.363 . S
C1165 C1160 1.379 . S
C1165 N1163 1.356 . S
N1166 C1158 1.356 . S
N1166 H1172 0.984 . S
N1166 H1173 0.984 . S
N1167 C1160 1.356 . S
N1167 H1170 0.984 . S
N1167 H1171 0.985 . S
H1168 N1163 0.984 . S
H1169 N1163 0.985 . S
H1170 N1167 0.984 . S
H1171 N1167 0.985 . S
H1172 N1166 0.984 . S
H1173 N1166 0.984 . S
H1174 N1162 0.984 . S
H1175 N1162 0.985 . S
C1176 C1177 1.363 . S
C1176 C1182 1.379 . S
C1176 N1184 1.356 . S
C1177 C1176 1.363 . S
C1177 C1183 1.363 . S
C1178 C1179 1.363 . S
C1178 C1183 1.379 . S
C1178 N1185 1.356 . S
C1179 C1178 1.363 . S
C1179 C1182 1.363 . S
N1180 C1182 1.356 . S
N1180 H1192 0.984 . S
N1180 H1193 0.985 . S
N1181 C1183 1.356 . S
N1181 H1186 0.984 . S
N1181 H1187 0.985 . S
C1182 C1176 1.379 . S
C1182 C1179 1.363 . S
C1182 N1180 1.356 . S
C1183 C1177 1.363 . S
C1183 C1178 1.379 . S
C1183 N1181 1.356 . S
N1184 C1176 1.356 . S
N1184 H1190 0.984 . S
N1184 H1191 0.984 . S
N1185 C1178 1.356 . S
N1185 H1188 0.984 . S
N1185 H1189 0.985 . S
H1186 N1181 0.984 . S
H1187 N1181 0.985 . S
H1188 N1185 0.984 . S
H1189 N1185 0.985 . S
H1190 N1184 0.984 . S
H1191 N1184 0.984 . S
H1192 N1180 0.984 . S
H1193 N1180 0.985 . S
C1194 C1195 1.363 . S
C1194 C1200 1.379 . S
C1194 N1202 1.356 . S
C1195 C1194 1.363 . S
C1195 C1201 1.363 . S
C1196 C1197 1.363 . S
C1196 C1201 1.379 . S
C1196 N1203 1.356 . S
C1197 C1196 1.363 . S
C1197 C1200 1.363 . S
N1198 C1200 1.356 . S
N1198 H1210 0.984 . S
N1198 H1211 0.985 . S
N1199 C1201 1.356 . S
N1199 H1204 0.984 . S
N1199 H1205 0.985 . S
C1200 C1194 1.379 . S
C1200 C1197 1.363 . S
C1200 N1198 1.356 . S
C1201 C1195 1.363 . S
C1201 C1196 1.379 . S
C1201 N1199 1.356 . S
N1202 C1194 1.356 . S
N1202 H1208 0.984 . S
N1202 H1209 0.984 . S
N1203 C1196 1.356 . S
N1203 H1206 0.984 . S
N1203 H1207 0.985 . S
H1204 N1199 0.984 . S
H1205 N1199 0.985 . S
H1206 N1203 0.984 . S
H1207 N1203 0.985 . S
H1208 N1202 0.984 . S
H1209 N1202 0.984 . S
H1210 N1198 0.984 . S
H1211 N1198 0.985 . S
C1212 C1213 1.363 . S
C1212 C1218 1.379 . S
C1212 N1220 1.356 . S
C1213 C1212 1.363 . S
C1213 C1219 1.363 . S
C1214 C1215 1.363 . S
C1214 C1219 1.379 . S
C1214 N1221 1.356 . S
C1215 C1214 1.363 . S
C1215 C1218 1.363 . S
N1216 C1218 1.356 . S
N1216 H1228 0.984 . S
N1216 H1229 0.985 . S
N1217 C1219 1.356 . S
N1217 H1222 0.984 . S
N1217 H1223 0.985 . S
C1218 C1212 1.379 . S
C1218 C1215 1.363 . S
C1218 N1216 1.356 . S
C1219 C1213 1.363 . S
C1219 C1214 1.379 . S
C1219 N1217 1.356 . S
N1220 C1212 1.356 . S
N1220 H1226 0.984 . S
N1220 H1227 0.984 . S
N1221 C1214 1.356 . S
N1221 H1224 0.984 . S
N1221 H1225 0.985 . S
H1222 N1217 0.984 . S
H1223 N1217 0.985 . S
H1224 N1221 0.984 . S
H1225 N1221 0.985 . S
H1226 N1220 0.984 . S
H1227 N1220 0.984 . S
H1228 N1216 0.984 . S
H1229 N1216 0.985 . S
C1230 C1231 1.363 . S
C1230 C1236 1.379 . S
C1230 N1238 1.356 . S
C1231 C1230 1.363 . S
C1231 C1237 1.363 1_554 S
C1232 C1233 1.363 . S
C1232 C1237 1.379 . S
C1232 N1239 1.356 . S
C1233 C1232 1.363 . S
C1233 C1236 1.363 1_556 S
N1234 C1236 1.356 . S
N1234 H1246 0.984 . S
N1234 H1247 0.985 1_554 S
N1235 C1237 1.356 . S
N1235 H1240 0.984 1_556 S
N1235 H1241 0.985 . S
C1236 C1230 1.379 . S
C1236 C1233 1.363 1_554 S
C1236 N1234 1.356 . S
C1237 C1231 1.363 1_556 S
C1237 C1232 1.379 . S
C1237 N1235 1.356 . S
N1238 C1230 1.356 . S
N1238 H1244 0.984 . S
N1238 H1245 0.984 . S
N1239 C1232 1.356 . S
N1239 H1242 0.984 . S
N1239 H1243 0.985 . S
H1240 N1235 0.984 1_554 S
H1241 N1235 0.985 . S
H1242 N1239 0.984 . S
H1243 N1239 0.985 . S
H1244 N1238 0.984 . S
H1245 N1238 0.984 . S
H1246 N1234 0.984 . S
H1247 N1234 0.985 1_556 S
C1248 C1249 1.363 . S
C1248 C1254 1.379 . S
C1248 N1256 1.356 . S
C1249 C1248 1.363 . S
C1249 C1255 1.363 . S
C1250 C1251 1.363 . S
C1250 C1255 1.379 . S
C1250 N1257 1.356 . S
C1251 C1250 1.363 . S
C1251 C1254 1.363 . S
N1252 C1254 1.356 . S
N1252 H1264 0.984 . S
N1252 H1265 0.985 . S
N1253 C1255 1.356 1_565 S
N1253 H1258 0.984 . S
N1253 H1259 0.985 . S
C1254 C1248 1.379 . S
C1254 C1251 1.363 . S
C1254 N1252 1.356 . S
C1255 C1249 1.363 . S
C1255 C1250 1.379 . S
C1255 N1253 1.356 1_545 S
N1256 C1248 1.356 . S
N1256 H1262 0.984 . S
N1256 H1263 0.984 . S
N1257 C1250 1.356 . S
N1257 H1260 0.984 . S
N1257 H1261 0.985 . S
H1258 N1253 0.984 . S
H1259 N1253 0.985 . S
H1260 N1257 0.984 . S
H1261 N1257 0.985 . S
H1262 N1256 0.984 . S
H1263 N1256 0.984 . S
H1264 N1252 0.984 . S
H1265 N1252 0.985 . S
C1266 C1267 1.363 . S
C1266 C1272 1.379 1_554 S
C1266 N1274 1.356 . S
C1267 C1266 1.363 . S
C1267 C1273 1.363 . S
C1268 C1269 1.363 . S
C1268 C1273 1.379 1_556 S
C1268 N1275 1.356 . S
C1269 C1268 1.363 . S
C1269 C1272 1.363 . S
N1270 C1272 1.356 . S
N1270 H1282 0.984 . S
N1270 H1283 0.985 . S
N1271 C1273 1.356 . S
N1271 H1276 0.984 . S
N1271 H1277 0.985 . S
C1272 C1266 1.379 1_556 S
C1272 C1269 1.363 . S
C1272 N1270 1.356 . S
C1273 C1267 1.363 . S
C1273 C1268 1.379 1_554 S
C1273 N1271 1.356 . S
N1274 C1266 1.356 . S
N1274 H1280 0.984 . S
N1274 H1281 0.984 . S
N1275 C1268 1.356 . S
N1275 H1278 0.984 . S
N1275 H1279 0.985 . S
H1276 N1271 0.984 . S
H1277 N1271 0.985 . S
H1278 N1275 0.984 . S
H1279 N1275 0.985 . S
H1280 N1274 0.984 . S
H1281 N1274 0.984 . S
H1282 N1270 0.984 . S
H1283 N1270 0.985 . S
C1284 C1285 1.363 . S
C1284 C1290 1.379 . S
C1284 N1292 1.356 1_565 S
C1285 C1284 1.363 . S
C1285 C1291 1.363 . S
C1286 C1287 1.363 . S
C1286 C1291 1.379 . S
C1286 N1293 1.356 . S
C1287 C1286 1.363 . S
C1287 C1290 1.363 . S
N1288 C1290 1.356 . S
N1288 H1300 0.984 . S
N1288 H1301 0.985 . S
N1289 C1291 1.356 . S
N1289 H1294 0.984 . S
N1289 H1295 0.985 . S
C1290 C1284 1.379 . S
C1290 C1287 1.363 . S
C1290 N1288 1.356 . S
C1291 C1285 1.363 . S
C1291 C1286 1.379 . S
C1291 N1289 1.356 . S
N1292 C1284 1.356 1_545 S
N1292 H1298 0.984 . S
N1292 H1299 0.984 . S
N1293 C1286 1.356 . S
N1293 H1296 0.984 . S
N1293 H1297 0.985 . S
H1294 N1289 0.984 . S
H1295 N1289 0.985 . S
H1296 N1293 0.984 . S
H1297 N1293 0.985 . S
H1298 N1292 0.984 . S
H1299 N1292 0.984 . S
H1300 N1288 0.984 . S
H1301 N1288 0.985 . S
C1302 C1303 1.363 . S
C1302 C1308 1.379 . S
C1302 N1310 1.356 . S
C1303 C1302 1.363 . S
C1303 C1309 1.363 . S
C1304 C1305 1.363 . S
C1304 C1309 1.379 . S
C1304 N1311 1.356 . S
C1305 C1304 1.363 . S
C1305 C1308 1.363 . S
N1306 C1308 1.356 . S
N1306 H1318 0.984 . S
N1306 H1319 0.985 . S
N1307 C1309 1.356 . S
N1307 H1312 0.984 . S
N1307 H1313 0.985 . S
C1308 C1302 1.379 . S
C1308 C1305 1.363 . S
C1308 N1306 1.356 . S
C1309 C1303 1.363 . S
C1309 C1304 1.379 . S
C1309 N1307 1.356 . S
N1310 C1302 1.356 . S
N1310 H1316 0.984 . S
N1310 H1317 0.984 . S
N1311 C1304 1.356 . S
N1311 H1314 0.984 . S
N1311 H1315 0.985 . S
H1312 N1307 0.984 . S
H1313 N1307 0.985 . S
H1314 N1311 0.984 . S
H1315 N1311 0.985 . S
H1316 N1310 0.984 . S
H1317 N1310 0.984 . S
H1318 N1306 0.984 . S
H1319 N1306 0.985 . S
C1320 C1321 1.363 . S
C1320 C1326 1.379 . S
C1320 N1328 1.356 . S
C1321 C1320 1.363 . S
C1321 C1327 1.363 . S
C1322 C1323 1.363 . S
C1322 C1327 1.379 . S
C1322 N1329 1.356 . S
C1323 C1322 1.363 . S
C1323 C1326 1.363 . S
N1324 C1326 1.356 . S
N1324 H1336 0.984 . S
N1324 H1337 0.985 . S
N1325 C1327 1.356 . S
N1325 H1330 0.984 . S
N1325 H1331 0.985 . S
C1326 C1320 1.379 . S
C1326 C1323 1.363 . S
C1326 N1324 1.356 . S
C1327 C1321 1.363 . S
C1327 C1322 1.379 . S
C1327 N1325 1.356 . S
N1328 C1320 1.356 . S
N1328 H1334 0.984 . S
N1328 H1335 0.984 . S
N1329 C1322 1.356 . S
N1329 H1332 0.984 . S
N1329 H1333 0.985 . S
H1330 N1325 0.984 . S
H1331 N1325 0.985 . S
H1332 N1329 0.984 . S
H1333 N1329 0.985 . S
H1334 N1328 0.984 . S
H1335 N1328 0.984 . S
H1336 N1324 0.984 . S
H1337 N1324 0.985 . S
C1338 C1339 1.363 . S
C1338 C1344 1.379 . S
C1338 N1346 1.356 . S
C1339 C1338 1.363 . S
C1339 C1345 1.363 1_565 S
C1340 C1341 1.363 . S
C1340 C1345 1.379 . S
C1340 N1347 1.356 . S
C1341 C1340 1.363 . S
C1341 C1344 1.363 1_545 S
N1342 C1344 1.356 . S
N1342 H1354 0.984 . S
N1342 H1355 0.985 1_565 S
N1343 C1345 1.356 . S
N1343 H1348 0.984 . S
N1343 H1349 0.985 . S
C1344 C1338 1.379 . S
C1344 C1341 1.363 1_565 S
C1344 N1342 1.356 . S
C1345 C1339 1.363 1_545 S
C1345 C1340 1.379 . S
C1345 N1343 1.356 . S
N1346 C1338 1.356 . S
N1346 H1352 0.984 . S
N1346 H1353 0.984 . S
N1347 C1340 1.356 . S
N1347 H1350 0.984 . S
N1347 H1351 0.985 . S
H1348 N1343 0.984 . S
H1349 N1343 0.985 . S
H1350 N1347 0.984 . S
H1351 N1347 0.985 . S
H1352 N1346 0.984 . S
H1353 N1346 0.984 . S
H1354 N1342 0.984 . S
H1355 N1342 0.985 1_545 S
C1356 C1357 1.363 . S
C1356 C1362 1.379 . S
C1356 N1364 1.356 . S
C1357 C1356 1.363 . S
C1357 C1363 1.363 . S
C1358 C1359 1.363 . S
C1358 C1363 1.379 . S
C1358 N1365 1.356 . S
C1359 C1358 1.363 . S
C1359 C1362 1.363 . S
N1360 C1362 1.356 . S
N1360 H1372 0.984 . S
N1360 H1373 0.985 1_556 S
N1361 C1363 1.356 . S
N1361 H1366 0.984 . S
N1361 H1367 0.985 1_565 S
C1362 C1356 1.379 . S
C1362 C1359 1.363 . S
C1362 N1360 1.356 . S
C1363 C1357 1.363 . S
C1363 C1358 1.379 . S
C1363 N1361 1.356 . S
N1364 C1356 1.356 . S
N1364 H1370 0.984 . S
N1364 H1371 0.984 . S
N1365 C1358 1.356 . S
N1365 H1368 0.984 1_556 S
N1365 H1369 0.985 1_565 S
H1366 N1361 0.984 . S
H1367 N1361 0.985 1_545 S
H1368 N1365 0.984 1_554 S
H1369 N1365 0.985 1_545 S
H1370 N1364 0.984 . S
H1371 N1364 0.984 . S
H1372 N1360 0.984 . S
H1373 N1360 0.985 1_554 S
C1374 C1375 1.363 1_545 S
C1374 C1380 1.379 . S
C1374 N1382 1.356 . S
C1375 C1374 1.363 1_565 S
C1375 C1381 1.363 . S
C1376 C1377 1.363 1_565 S
C1376 C1381 1.379 . S
C1376 N1383 1.356 . S
C1377 C1376 1.363 1_545 S
C1377 C1380 1.363 . S
N1378 C1380 1.356 . S
N1378 H1390 0.984 . S
N1378 H1391 0.985 . S
N1379 C1381 1.356 . S
N1379 H1384 0.984 . S
N1379 H1385 0.985 . S
C1380 C1374 1.379 . S
C1380 C1377 1.363 . S
C1380 N1378 1.356 . S
C1381 C1375 1.363 . S
C1381 C1376 1.379 . S
C1381 N1379 1.356 . S
N1382 C1374 1.356 . S
N1382 H1388 0.984 . S
N1382 H1389 0.984 1_545 S
N1383 C1376 1.356 . S
N1383 H1386 0.984 . S
N1383 H1387 0.985 . S
H1384 N1379 0.984 . S
H1385 N1379 0.985 . S
H1386 N1383 0.984 . S
H1387 N1383 0.985 . S
H1388 N1382 0.984 . S
H1389 N1382 0.984 1_565 S
H1390 N1378 0.984 . S
H1391 N1378 0.985 . S
C1392 C1393 1.363 . S
C1392 C1398 1.379 . S
C1392 N1400 1.356 . S
C1393 C1392 1.363 . S
C1393 C1399 1.363 . S
C1394 C1395 1.363 . S
C1394 C1399 1.379 . S
C1394 N1401 1.356 . S
C1395 C1394 1.363 . S
C1395 C1398 1.363 . S
N1396 C1398 1.356 . S
N1396 H1408 0.984 . S
N1396 H1409 0.985 . S
N1397 C1399 1.356 . S
N1397 H1402 0.984 . S
N1397 H1403 0.985 . S
C1398 C1392 1.379 . S
C1398 C1395 1.363 . S
C1398 N1396 1.356 . S
C1399 C1393 1.363 . S
C1399 C1394 1.379 . S
C1399 N1397 1.356 . S
N1400 C1392 1.356 . S
N1400 H1406 0.984 . S
N1400 H1407 0.984 . S
N1401 C1394 1.356 . S
N1401 H1404 0.984 . S
N1401 H1405 0.985 . S
H1402 N1397 0.984 . S
H1403 N1397 0.985 . S
H1404 N1401 0.984 . S
H1405 N1401 0.985 . S
H1406 N1400 0.984 . S
H1407 N1400 0.984 . S
H1408 N1396 0.984 . S
H1409 N1396 0.985 . S
C1410 C1411 1.363 . S
C1410 C1416 1.379 . S
C1410 N1418 1.356 . S
C1411 C1410 1.363 . S
C1411 C1417 1.363 . S
C1412 C1413 1.363 . S
C1412 C1417 1.379 . S
C1412 N1419 1.356 . S
C1413 C1412 1.363 . S
C1413 C1416 1.363 . S
N1414 C1416 1.356 . S
N1414 H1426 0.984 . S
N1414 H1427 0.985 . S
N1415 C1417 1.356 . S
N1415 H1420 0.984 . S
N1415 H1421 0.985 . S
C1416 C1410 1.379 . S
C1416 C1413 1.363 . S
C1416 N1414 1.356 . S
C1417 C1411 1.363 . S
C1417 C1412 1.379 . S
C1417 N1415 1.356 . S
N1418 C1410 1.356 . S
N1418 H1424 0.984 . S
N1418 H1425 0.984 . S
N1419 C1412 1.356 . S
N1419 H1422 0.984 . S
N1419 H1423 0.985 . S
H1420 N1415 0.984 . S
H1421 N1415 0.985 . S
H1422 N1419 0.984 . S
H1423 N1419 0.985 . S
H1424 N1418 0.984 . S
H1425 N1418 0.984 . S
H1426 N1414 0.984 . S
H1427 N1414 0.985 . S
C1428 C1429 1.363 . S
C1428 C1434 1.379 . S
C1428 N1436 1.356 . S
C1429 C1428 1.363 . S
C1429 C1435 1.363 . S
C1430 C1431 1.363 . S
C1430 C1435 1.379 . S
C1430 N1437 1.356 . S
C1431 C1430 1.363 . S
C1431 C1434 1.363 . S
N1432 C1434 1.356 . S
N1432 H1444 0.984 . S
N1432 H1445 0.985 1_554 S
N1433 C1435 1.356 . S
N1433 H1438 0.984 . S
N1433 H1439 0.985 . S
C1434 C1428 1.379 . S
C1434 C1431 1.363 . S
C1434 N1432 1.356 . S
C1435 C1429 1.363 . S
C1435 C1430 1.379 . S
C1435 N1433 1.356 . S
N1436 C1428 1.356 . S
N1436 H1442 0.984 . S
N1436 H1443 0.984 . S
N1437 C1430 1.356 . S
N1437 H1440 0.984 1_554 S
N1437 H1441 0.985 . S
H1438 N1433 0.984 . S
H1439 N1433 0.985 . S
H1440 N1437 0.984 1_556 S
H1441 N1437 0.985 . S
H1442 N1436 0.984 . S
H1443 N1436 0.984 . S
H1444 N1432 0.984 . S
H1445 N1432 0.985 1_556 S
C1446 C1447 1.363 . S
C1446 C1452 1.379 . S
C1446 N1454 1.356 . S
C1447 C1446 1.363 . S
C1447 C1453 1.363 . S
C1448 C1449 1.363 . S
C1448 C1453 1.379 . S
C1448 N1455 1.356 . S
C1449 C1448 1.363 . S
C1449 C1452 1.363 . S
N1450 C1452 1.356 . S
N1450 H1462 0.984 . S
N1450 H1463 0.985 . S
N1451 C1453 1.356 . S
N1451 H1456 0.984 . S
N1451 H1457 0.985 . S
C1452 C1446 1.379 . S
C1452 C1449 1.363 . S
C1452 N1450 1.356 . S
C1453 C1447 1.363 . S
C1453 C1448 1.379 . S
C1453 N1451 1.356 . S
N1454 C1446 1.356 . S
N1454 H1460 0.984 . S
N1454 H1461 0.984 . S
N1455 C1448 1.356 . S
N1455 H1458 0.984 . S
N1455 H1459 0.985 . S
H1456 N1451 0.984 . S
H1457 N1451 0.985 . S
H1458 N1455 0.984 . S
H1459 N1455 0.985 . S
H1460 N1454 0.984 . S
H1461 N1454 0.984 . S
H1462 N1450 0.984 . S
H1463 N1450 0.985 . S
C1464 C1465 1.363 . S
C1464 C1470 1.379 . S
C1464 N1472 1.356 . S
C1465 C1464 1.363 . S
C1465 C1471 1.363 . S
C1466 C1467 1.363 . S
C1466 C1471 1.379 . S
C1466 N1473 1.356 . S
C1467 C1466 1.363 . S
C1467 C1470 1.363 . S
N1468 C1470 1.356 . S
N1468 H1480 0.984 1_554 S
N1468 H1481 0.985 . S
N1469 C1471 1.356 . S
N1469 H1474 0.984 . S
N1469 H1475 0.985 . S
C1470 C1464 1.379 . S
C1470 C1467 1.363 . S
C1470 N1468 1.356 . S
C1471 C1465 1.363 . S
C1471 C1466 1.379 . S
C1471 N1469 1.356 . S
N1472 C1464 1.356 . S
N1472 H1478 0.984 . S
N1472 H1479 0.984 . S
N1473 C1466 1.356 . S
N1473 H1476 0.984 . S
N1473 H1477 0.985 . S
H1474 N1469 0.984 . S
H1475 N1469 0.985 . S
H1476 N1473 0.984 . S
H1477 N1473 0.985 . S
H1478 N1472 0.984 . S
H1479 N1472 0.984 . S
H1480 N1468 0.984 1_556 S
H1481 N1468 0.985 . S
C1482 C1483 1.363 . S
C1482 C1488 1.379 . S
C1482 N1490 1.356 . S
C1483 C1482 1.363 . S
C1483 C1489 1.363 . S
C1484 C1485 1.363 . S
C1484 C1489 1.379 . S
C1484 N1491 1.356 1_556 S
C1485 C1484 1.363 . S
C1485 C1488 1.363 . S
N1486 C1488 1.356 . S
N1486 H1498 0.984 . S
N1486 H1499 0.985 . S
N1487 C1489 1.336 1_455 S
N1487 H1492 1.005 . S
N1487 H1493 0.984 1_556 S
C1488 C1482 1.379 . S
C1488 C1485 1.363 . S
C1488 N1486 1.356 . S
C1489 C1483 1.363 . S
C1489 C1484 1.379 . S
C1489 N1487 1.336 1_655 S
N1490 C1482 1.356 . S
N1490 H1496 0.984 . S
N1490 H1497 0.984 1_655 S
N1491 C1484 1.356 1_554 S
N1491 H1494 0.984 1_554 S
N1491 H1495 0.985 . S
H1492 N1487 1.005 . S
H1493 N1487 0.984 1_554 S
H1494 N1491 0.984 1_556 S
H1495 N1491 0.985 . S
H1496 N1490 0.984 . S
H1497 N1490 0.984 1_455 S
H1498 N1486 0.984 . S
H1499 N1486 0.985 . S
C1500 C1501 1.363 1_455 S
C1500 C1506 1.379 . S
C1500 N1508 1.356 . S
C1501 C1500 1.363 1_655 S
C1501 C1507 1.363 . S
C1502 C1503 1.348 1_655 S
C1502 C1507 1.390 . S
C1502 N1509 1.356 1_655 S
C1503 C1502 1.348 1_455 S
C1503 C1506 1.363 . S
N1504 C1506 1.356 . S
N1504 H1516 0.984 . S
N1504 H1517 0.985 . S
N1505 C1507 1.356 . S
N1505 H1510 0.984 . S
N1505 H1511 0.985 . S
C1506 C1500 1.379 . S
C1506 C1503 1.363 . S
C1506 N1504 1.356 . S
C1507 C1501 1.363 . S
C1507 C1502 1.390 . S
C1507 N1505 1.356 . S
N1508 C1500 1.356 . S
N1508 H1514 0.984 . S
N1508 H1515 0.984 1_455 S
N1509 C1502 1.356 1_455 S
N1509 H1512 0.997 . S
N1509 H1513 0.973 1_455 S
H1510 N1505 0.984 . S
H1511 N1505 0.985 . S
H1512 N1509 0.997 . S
H1513 N1509 0.973 1_655 S
H1514 N1508 0.984 . S
H1515 N1508 0.984 1_655 S
H1516 N1504 0.984 . S
H1517 N1504 0.985 . S
C1518 C1519 1.363 . S
C1518 C1524 1.379 . S
C1518 N1526 1.356 . S
C1519 C1518 1.363 . S
C1519 C1525 1.363 . S
C1520 C1521 1.363 . S
C1520 C1525 1.379 . S
C1520 N1527 1.356 . S
C1521 C1520 1.363 . S
C1521 C1524 1.363 . S
N1522 C1524 1.356 . S
N1522 H1534 0.984 . S
N1522 H1535 0.985 . S
N1523 C1525 1.356 . S
N1523 H1528 0.984 . S
N1523 H1529 0.985 . S
C1524 C1518 1.379 . S
C1524 C1521 1.363 . S
C1524 N1522 1.356 . S
C1525 C1519 1.363 . S
C1525 C1520 1.379 . S
C1525 N1523 1.356 . S
N1526 C1518 1.356 . S
N1526 H1532 0.984 . S
N1526 H1533 0.984 . S
N1527 C1520 1.356 . S
N1527 H1530 0.984 . S
N1527 H1531 0.985 . S
H1528 N1523 0.984 . S
H1529 N1523 0.985 . S
H1530 N1527 0.984 . S
H1531 N1527 0.985 . S
H1532 N1526 0.984 . S
H1533 N1526 0.984 . S
H1534 N1522 0.984 . S
H1535 N1522 0.985 . S
C1536 C1537 1.363 . S
C1536 C1542 1.379 . S
C1536 N1544 1.356 . S
C1537 C1536 1.363 . S
C1537 C1543 1.363 . S
C1538 C1539 1.363 . S
C1538 C1543 1.379 . S
C1538 N1545 1.356 . S
C1539 C1538 1.363 . S
C1539 C1542 1.363 . S
N1540 C1542 1.356 . S
N1540 H1552 0.984 . S
N1540 H1553 0.985 . S
N1541 C1543 1.356 . S
N1541 H1546 0.984 . S
N1541 H1547 0.985 . S
C1542 C1536 1.379 . S
C1542 C1539 1.363 . S
C1542 N1540 1.356 . S
C1543 C1537 1.363 . S
C1543 C1538 1.379 . S
C1543 N1541 1.356 . S
N1544 C1536 1.356 . S
N1544 H1550 0.984 . S
N1544 H1551 0.984 . S
N1545 C1538 1.356 . S
N1545 H1548 0.984 . S
N1545 H1549 0.985 . S
H1546 N1541 0.984 . S
H1547 N1541 0.985 . S
H1548 N1545 0.984 . S
H1549 N1545 0.985 . S
H1550 N1544 0.984 . S
H1551 N1544 0.984 . S
H1552 N1540 0.984 . S
H1553 N1540 0.985 . S
C1554 C1555 1.363 . S
C1554 C1560 1.379 . S
C1554 N1562 1.356 . S
C1555 C1554 1.363 . S
C1555 C1561 1.363 . S
C1556 C1557 1.363 . S
C1556 C1561 1.379 . S
C1556 N1563 1.356 . S
C1557 C1556 1.363 . S
C1557 C1560 1.363 . S
N1558 C1560 1.356 . S
N1558 H1570 0.984 . S
N1558 H1571 0.985 . S
N1559 C1561 1.356 1_655 S
N1559 H1564 0.984 . S
N1559 H1565 0.985 . S
C1560 C1554 1.379 . S
C1560 C1557 1.363 . S
C1560 N1558 1.356 . S
C1561 C1555 1.363 . S
C1561 C1556 1.379 . S
C1561 N1559 1.356 1_455 S
N1562 C1554 1.356 . S
N1562 H1568 0.984 . S
N1562 H1569 0.984 . S
N1563 C1556 1.356 . S
N1563 H1566 0.984 . S
N1563 H1567 0.985 . S
H1564 N1559 0.984 . S
H1565 N1559 0.985 . S
H1566 N1563 0.984 . S
H1567 N1563 0.985 . S
H1568 N1562 0.984 . S
H1569 N1562 0.984 . S
H1570 N1558 0.984 . S
H1571 N1558 0.985 . S
C1572 C1573 1.363 . S
C1572 C1578 1.379 . S
C1572 N1580 1.356 . S
C1573 C1572 1.363 . S
C1573 C1579 1.363 . S
C1574 C1575 1.363 . S
C1574 C1579 1.379 . S
C1574 N1581 1.356 . S
C1575 C1574 1.363 . S
C1575 C1578 1.363 . S
N1576 C1578 1.356 . S
N1576 H1588 0.984 . S
N1576 H1589 0.985 . S
N1577 C1579 1.356 . S
N1577 H1582 0.984 . S
N1577 H1583 0.985 . S
C1578 C1572 1.379 . S
C1578 C1575 1.363 . S
C1578 N1576 1.356 . S
C1579 C1573 1.363 . S
C1579 C1574 1.379 . S
C1579 N1577 1.356 . S
N1580 C1572 1.356 . S
N1580 H1586 0.984 . S
N1580 H1587 0.984 . S
N1581 C1574 1.356 . S
N1581 H1584 0.984 . S
N1581 H1585 0.985 . S
H1582 N1577 0.984 . S
H1583 N1577 0.985 . S
H1584 N1581 0.984 . S
H1585 N1581 0.985 . S
H1586 N1580 0.984 . S
H1587 N1580 0.984 . S
H1588 N1576 0.984 . S
H1589 N1576 0.985 . S
C1590 C1591 1.363 . S
C1590 C1596 1.379 1_655 S
C1590 N1598 1.356 . S
C1591 C1590 1.363 . S
C1591 C1597 1.363 . S
C1592 C1593 1.363 1_655 S
C1592 C1597 1.379 . S
C1592 N1599 1.356 . S
C1593 C1592 1.363 1_455 S
C1593 C1596 1.363 . S
N1594 C1596 1.356 . S
N1594 H1606 0.984 . S
N1594 H1607 0.985 . S
N1595 C1597 1.356 . S
N1595 H1600 0.984 . S
N1595 H1601 0.985 . S
C1596 C1590 1.379 1_455 S
C1596 C1593 1.363 . S
C1596 N1594 1.356 . S
C1597 C1591 1.363 . S
C1597 C1592 1.379 . S
C1597 N1595 1.356 . S
N1598 C1590 1.356 . S
N1598 H1604 0.984 1_655 S
N1598 H1605 0.984 . S
N1599 C1592 1.356 . S
N1599 H1602 0.984 1_655 S
N1599 H1603 0.985 . S
H1600 N1595 0.984 . S
H1601 N1595 0.985 . S
H1602 N1599 0.984 1_455 S
H1603 N1599 0.985 . S
H1604 N1598 0.984 1_455 S
H1605 N1598 0.984 . S
H1606 N1594 0.984 . S
H1607 N1594 0.985 . S
C1608 C1609 1.363 . S
C1608 C1614 1.379 . S
C1608 N1616 1.356 . S
C1609 C1608 1.363 . S
C1609 C1615 1.363 . S
C1610 C1611 1.363 . S
C1610 C1615 1.379 . S
C1610 N1617 1.356 . S
C1611 C1610 1.363 . S
C1611 C1614 1.363 . S
N1612 C1614 1.356 . S
N1612 H1624 0.984 . S
N1612 H1625 0.985 . S
N1613 C1615 1.356 . S
N1613 H1618 0.984 . S
N1613 H1619 0.985 . S
C1614 C1608 1.379 . S
C1614 C1611 1.363 . S
C1614 N1612 1.356 . S
C1615 C1609 1.363 . S
C1615 C1610 1.379 . S
C1615 N1613 1.356 . S
N1616 C1608 1.356 . S
N1616 H1622 0.984 . S
N1616 H1623 0.984 . S
N1617 C1610 1.356 . S
N1617 H1620 0.984 . S
N1617 H1621 0.985 . S
H1618 N1613 0.984 . S
H1619 N1613 0.985 . S
H1620 N1617 0.984 . S
H1621 N1617 0.985 . S
H1622 N1616 0.984 . S
H1623 N1616 0.984 . S
H1624 N1612 0.984 . S
H1625 N1612 0.985 . S
C1626 C1627 1.363 . S
C1626 C1632 1.379 1_455 S
C1626 N1634 1.356 . S
C1627 C1626 1.363 . S
C1627 C1633 1.363 . S
C1628 C1629 1.363 1_455 S
C1628 C1633 1.379 . S
C1628 N1635 1.356 . S
C1629 C1628 1.363 1_655 S
C1629 C1632 1.363 . S
N1630 C1632 1.356 . S
N1630 H1642 0.984 . S
N1630 H1643 0.985 . S
N1631 C1633 1.356 . S
N1631 H1636 0.984 . S
N1631 H1637 0.985 . S
C1632 C1626 1.379 1_655 S
C1632 C1629 1.363 . S
C1632 N1630 1.356 . S
C1633 C1627 1.363 . S
C1633 C1628 1.379 . S
C1633 N1631 1.356 . S
N1634 C1626 1.356 . S
N1634 H1640 0.984 1_455 S
N1634 H1641 0.984 . S
N1635 C1628 1.356 . S
N1635 H1638 0.984 . S
N1635 H1639 0.985 . S
H1636 N1631 0.984 . S
H1637 N1631 0.985 . S
H1638 N1635 0.984 . S
H1639 N1635 0.985 . S
H1640 N1634 0.984 1_655 S
H1641 N1634 0.984 . S
H1642 N1630 0.984 . S
H1643 N1630 0.985 . S
C1644 C1645 1.363 . S
C1644 C1650 1.393 . S
C1644 N1652 1.356 . S
C1645 C1644 1.363 . S
C1645 C1651 1.363 . S
C1646 C1647 1.363 1_556 S
C1646 C1651 1.379 . S
C1646 N1653 1.356 1_556 S
C1647 C1646 1.363 1_554 S
C1647 C1650 1.357 1_554 S
N1648 C1650 1.345 1_554 S
N1648 H1660 0.984 . S
N1648 H1661 0.985 . S
N1649 C1651 1.356 . S
N1649 H1654 0.984 . S
N1649 H1655 0.985 . S
C1650 C1644 1.393 . S
C1650 C1647 1.357 1_556 S
C1650 N1648 1.345 1_556 S
C1651 C1645 1.363 . S
C1651 C1646 1.379 . S
C1651 N1649 1.356 . S
N1652 C1644 1.356 . S
N1652 H1658 0.984 . S
N1652 H1659 0.984 . S
N1653 C1646 1.356 1_554 S
N1653 H1656 0.984 . S
N1653 H1657 0.985 . S
H1654 N1649 0.984 . S
H1655 N1649 0.985 . S
H1656 N1653 0.984 . S
H1657 N1653 0.985 . S
H1658 N1652 0.984 . S
H1659 N1652 0.984 . S
H1660 N1648 0.984 . S
H1661 N1648 0.985 . S
C1662 C1663 1.363 . S
C1662 C1668 1.379 . S
C1662 N1670 1.356 . S
C1663 C1662 1.363 . S
C1663 C1669 1.363 . S
C1664 C1665 1.363 . S
C1664 C1669 1.379 . S
C1664 N1671 1.356 . S
C1665 C1664 1.363 . S
C1665 C1668 1.363 . S
N1666 C1668 1.356 . S
N1666 H1678 0.984 . S
N1666 H1679 0.985 . S
N1667 C1669 1.356 . S
N1667 H1672 0.984 . S
N1667 H1673 0.985 . S
C1668 C1662 1.379 . S
C1668 C1665 1.363 . S
C1668 N1666 1.356 . S
C1669 C1663 1.363 . S
C1669 C1664 1.379 . S
C1669 N1667 1.356 . S
N1670 C1662 1.356 . S
N1670 H1676 0.984 . S
N1670 H1677 0.984 . S
N1671 C1664 1.356 . S
N1671 H1674 0.984 . S
N1671 H1675 0.985 . S
H1672 N1667 0.984 . S
H1673 N1667 0.985 . S
H1674 N1671 0.984 . S
H1675 N1671 0.985 . S
H1676 N1670 0.984 . S
H1677 N1670 0.984 . S
H1678 N1666 0.984 . S
H1679 N1666 0.985 . S
C1680 C1681 1.363 . S
C1680 C1686 1.379 . S
C1680 N1688 1.356 . S
C1681 C1680 1.363 . S
C1681 C1687 1.363 . S
C1682 C1683 1.363 . S
C1682 C1687 1.379 . S
C1682 N1689 1.356 . S
C1683 C1682 1.363 . S
C1683 C1686 1.363 . S
N1684 C1686 1.356 . S
N1684 H1696 0.984 . S
N1684 H1697 0.985 . S
N1685 C1687 1.356 . S
N1685 H1690 0.984 . S
N1685 H1691 0.985 . S
C1686 C1680 1.379 . S
C1686 C1683 1.363 . S
C1686 N1684 1.356 . S
C1687 C1681 1.363 . S
C1687 C1682 1.379 . S
C1687 N1685 1.356 . S
N1688 C1680 1.356 . S
N1688 H1694 0.984 . S
N1688 H1695 0.984 . S
N1689 C1682 1.356 . S
N1689 H1692 0.984 . S
N1689 H1693 0.985 . S
H1690 N1685 0.984 . S
H1691 N1685 0.985 . S
H1692 N1689 0.984 . S
H1693 N1689 0.985 . S
H1694 N1688 0.984 . S
H1695 N1688 0.984 . S
H1696 N1684 0.984 . S
H1697 N1684 0.985 . S
C1698 C1699 1.363 . S
C1698 C1704 1.379 1_655 S
C1698 N1706 1.356 . S
C1699 C1698 1.363 . S
C1699 C1705 1.363 . S
C1700 C1701 1.363 1_655 S
C1700 C1705 1.379 . S
C1700 N1707 1.365 . S
C1701 C1700 1.363 1_455 S
C1701 C1704 1.363 . S
N1702 C1704 1.356 . S
N1702 H1714 0.984 . S
N1702 H1715 0.985 . S
N1703 C1705 1.356 . S
N1703 H1708 0.984 . S
N1703 H1709 0.985 . S
C1704 C1698 1.379 1_455 S
C1704 C1701 1.363 . S
C1704 N1702 1.356 . S
C1705 C1699 1.363 . S
C1705 C1700 1.379 . S
C1705 N1703 1.356 . S
N1706 C1698 1.356 . S
N1706 H1712 0.984 . S
N1706 H1713 0.984 . S
N1707 C1700 1.365 . S
N1707 H1710 0.964 1_655 S
N1707 H1711 0.997 . S
H1708 N1703 0.984 . S
H1709 N1703 0.985 . S
H1710 N1707 0.964 1_455 S
H1711 N1707 0.997 . S
H1712 N1706 0.984 . S
H1713 N1706 0.984 . S
H1714 N1702 0.984 . S
H1715 N1702 0.985 . S
C1716 C1717 1.363 . S
C1716 C1722 1.379 . S
C1716 N1724 1.356 . S
C1717 C1716 1.363 . S
C1717 C1723 1.363 . S
C1718 C1719 1.363 . S
C1718 C1723 1.379 1_556 S
C1718 N1725 1.356 . S
C1719 C1718 1.363 . S
C1719 C1722 1.363 1_556 S
N1720 C1722 1.356 . S
N1720 H1732 0.984 . S
N1720 H1733 0.985 . S
N1721 C1723 1.356 . S
N1721 H1726 0.984 . S
N1721 H1727 0.985 1_554 S
C1722 C1716 1.379 . S
C1722 C1719 1.363 1_554 S
C1722 N1720 1.356 . S
C1723 C1717 1.363 . S
C1723 C1718 1.379 1_554 S
C1723 N1721 1.356 . S
N1724 C1716 1.356 . S
N1724 H1730 0.984 . S
N1724 H1731 0.984 . S
N1725 C1718 1.356 . S
N1725 H1728 0.984 . S
N1725 H1729 0.985 . S
H1726 N1721 0.984 . S
H1727 N1721 0.985 1_556 S
H1728 N1725 0.984 . S
H1729 N1725 0.985 . S
H1730 N1724 0.984 . S
H1731 N1724 0.984 . S
H1732 N1720 0.984 . S
H1733 N1720 0.985 . S
C1734 C1735 1.363 . S
C1734 C1740 1.379 . S
C1734 N1742 1.356 . S
C1735 C1734 1.363 . S
C1735 C1741 1.363 . S
C1736 C1737 1.363 . S
C1736 C1741 1.379 . S
C1736 N1743 1.356 . S
C1737 C1736 1.363 . S
C1737 C1740 1.363 . S
N1738 C1740 1.356 . S
N1738 H1750 0.984 . S
N1738 H1751 0.985 . S
N1739 C1741 1.356 . S
N1739 H1744 0.984 . S
N1739 H1745 0.985 . S
C1740 C1734 1.379 . S
C1740 C1737 1.363 . S
C1740 N1738 1.356 . S
C1741 C1735 1.363 . S
C1741 C1736 1.379 . S
C1741 N1739 1.356 . S
N1742 C1734 1.356 . S
N1742 H1748 0.984 . S
N1742 H1749 0.984 . S
N1743 C1736 1.356 . S
N1743 H1746 0.984 . S
N1743 H1747 0.985 . S
H1744 N1739 0.984 . S
H1745 N1739 0.985 . S
H1746 N1743 0.984 . S
H1747 N1743 0.985 . S
H1748 N1742 0.984 . S
H1749 N1742 0.984 . S
H1750 N1738 0.984 . S
H1751 N1738 0.985 . S
C1752 C1753 1.363 . S
C1752 C1758 1.379 . S
C1752 N1760 1.356 . S
C1753 C1752 1.363 . S
C1753 C1759 1.363 . S
C1754 C1755 1.363 . S
C1754 C1759 1.379 . S
C1754 N1761 1.356 . S
C1755 C1754 1.363 . S
C1755 C1758 1.363 . S
N1756 C1758 1.356 . S
N1756 H1768 0.984 . S
N1756 H1769 0.985 . S
N1757 C1759 1.356 . S
N1757 H1762 0.984 . S
N1757 H1763 0.985 . S
C1758 C1752 1.379 . S
C1758 C1755 1.363 . S
C1758 N1756 1.356 . S
C1759 C1753 1.363 . S
C1759 C1754 1.379 . S
C1759 N1757 1.356 . S
N1760 C1752 1.356 . S
N1760 H1766 0.984 . S
N1760 H1767 0.984 . S
N1761 C1754 1.356 . S
N1761 H1764 0.984 . S
N1761 H1765 0.985 . S
H1762 N1757 0.984 . S
H1763 N1757 0.985 . S
H1764 N1761 0.984 . S
H1765 N1761 0.985 . S
H1766 N1760 0.984 . S
H1767 N1760 0.984 . S
H1768 N1756 0.984 . S
H1769 N1756 0.985 . S
C1770 C1771 1.365 . S
C1770 C1776 1.377 1_545 S
C1770 N1778 1.356 1_545 S
C1771 C1770 1.365 . S
C1771 C1777 1.363 . S
C1772 C1773 1.363 1_545 S
C1772 C1777 1.379 . S
C1772 N1779 1.356 . S
C1773 C1772 1.363 1_565 S
C1773 C1776 1.363 . S
N1774 C1776 1.356 . S
N1774 H1786 0.984 . S
N1774 H1787 0.985 . S
N1775 C1777 1.356 . S
N1775 H1780 0.984 . S
N1775 H1781 0.985 . S
C1776 C1770 1.377 1_565 S
C1776 C1773 1.363 . S
C1776 N1774 1.356 . S
C1777 C1771 1.363 . S
C1777 C1772 1.379 . S
C1777 N1775 1.356 . S
N1778 C1770 1.356 1_565 S
N1778 H1784 0.984 . S
N1778 H1785 0.984 1_565 S
N1779 C1772 1.356 . S
N1779 H1782 0.984 . S
N1779 H1783 0.985 . S
H1780 N1775 0.984 . S
H1781 N1775 0.985 . S
H1782 N1779 0.984 . S
H1783 N1779 0.985 . S
H1784 N1778 0.984 . S
H1785 N1778 0.984 1_545 S
H1786 N1774 0.984 . S
H1787 N1774 0.985 . S
C1788 C1789 1.363 1_565 S
C1788 C1794 1.379 . S
C1788 N1796 1.356 . S
C1789 C1788 1.363 1_545 S
C1789 C1795 1.363 . S
C1790 C1791 1.363 . S
C1790 C1795 1.379 1_565 S
C1790 N1797 1.356 . S
C1791 C1790 1.363 . S
C1791 C1794 1.363 . S
N1792 C1794 1.356 . S
N1792 H1804 0.984 . S
N1792 H1805 0.985 . S
N1793 C1795 1.356 . S
N1793 H1798 0.984 . S
N1793 H1799 0.985 . S
C1794 C1788 1.379 . S
C1794 C1791 1.363 . S
C1794 N1792 1.356 . S
C1795 C1789 1.363 . S
C1795 C1790 1.379 1_545 S
C1795 N1793 1.356 . S
N1796 C1788 1.356 . S
N1796 H1802 0.984 . S
N1796 H1803 0.984 1_565 S
N1797 C1790 1.356 . S
N1797 H1800 0.984 . S
N1797 H1801 0.985 . S
H1798 N1793 0.984 . S
H1799 N1793 0.985 . S
H1800 N1797 0.984 . S
H1801 N1797 0.985 . S
H1802 N1796 0.984 . S
H1803 N1796 0.984 1_545 S
H1804 N1792 0.984 . S
H1805 N1792 0.985 . S
C1806 C1807 1.363 . S
C1806 C1812 1.379 . S
C1806 N1814 1.356 . S
C1807 C1806 1.363 . S
C1807 C1813 1.363 . S
C1808 C1809 1.363 . S
C1808 C1813 1.379 . S
C1808 N1815 1.356 . S
C1809 C1808 1.363 . S
C1809 C1812 1.363 . S
N1810 C1812 1.356 . S
N1810 H1822 0.984 . S
N1810 H1823 0.985 . S
N1811 C1813 1.356 . S
N1811 H1816 0.984 . S
N1811 H1817 0.985 . S
C1812 C1806 1.379 . S
C1812 C1809 1.363 . S
C1812 N1810 1.356 . S
C1813 C1807 1.363 . S
C1813 C1808 1.379 . S
C1813 N1811 1.356 . S
N1814 C1806 1.356 . S
N1814 H1820 0.984 . S
N1814 H1821 0.984 . S
N1815 C1808 1.356 . S
N1815 H1818 0.984 . S
N1815 H1819 0.985 . S
H1816 N1811 0.984 . S
H1817 N1811 0.985 . S
H1818 N1815 0.984 . S
H1819 N1815 0.985 . S
H1820 N1814 0.984 . S
H1821 N1814 0.984 . S
H1822 N1810 0.984 . S
H1823 N1810 0.985 . S
C529 C8 1.109 . S
C531 C348 1.109 . S
C547 C282 1.109 . S
C549 C32 1.109 . S
C565 C294 1.109 . S
C567 C52 1.109 . S
C583 C76 1.109 . S
C585 C316 1.109 . S
C601 C96 1.109 . S
C603 C206 1.109 . S
C619 C120 1.109 . S
C621 C228 1.109 . S
C637 C150 1.109 . S
C639 C252 1.109 . S
C655 C172 1.109 . S
C657 C194 1.109 . S
C673 C362 1.109 . S
C675 C448 1.109 . S
C691 C382 1.109 . S
C693 C516 1.109 . S
C709 C406 1.109 . S
C711 C480 1.109 . S
C727 C426 1.109 . S
C729 C502 1.109 . S
C745 C469 1.412 . S
C747 C15 1.375 . S
C763 C29 1.375 . S
C765 C491 1.412 . S
C781 C59 1.375 . S
C783 C367 1.412 . S
C799 C73 1.375 . S
C801 C521 1.412 . S
C817 C439 1.412 1_545 S
C819 C103 1.375 . S
C835 C461 1.412 . S
C837 C117 1.375 . S
C853 C153 1.375 . S
C855 C395 1.412 1_565 S
C871 C175 1.375 . S
C873 C411 1.412 . S
C889 C197 1.375 . S
C891 C109 1.412 . S
C907 C213 1.375 . S
C909 C125 1.412 . S
C925 C235 1.375 . S
C927 C139 1.412 1_556 S
C943 C249 1.375 . S
C945 C161 1.412 . S
C961 C21 1.412 . S
C963 C285 1.375 . S
C979 C301 1.375 . S
C981 C37 1.412 . S
C997 C323 1.375 . S
C999 C65 1.412 1_554 S
C1015 C351 1.375 . S
C1017 C81 1.412 . S
C1033 C329 1.412 . S
C1035 C359 1.375 . S
C1051 C241 1.412 1_655 S
C1053 C389 1.375 . S
C1069 C403 1.375 . S
C1071 C257 1.412 . S
C1087 C183 1.412 . S
C1089 C433 1.375 . S
C1105 C455 1.375 . S
C1107 C219 1.412 . S
C1123 C271 1.412 1_455 S
C1125 C483 1.375 . S
C1141 C307 1.412 . S
C1143 C505 1.375 . S
C1159 C337 1.412 . S
C1161 C513 1.375 . S
C1177 C404 1.535 . S
C1179 C10 1.591 . S
C1195 C40 1.591 . S
C1197 C436 1.535 . S
C1213 C458 1.535 . S
C1215 C54 1.591 . S
C1231 C84 1.591 . S
C1233 C392 1.535 . S
C1249 C494 1.535 1_545 S
C1251 C98 1.591 . S
C1267 C360 1.535 . S
C1269 C128 1.591 . S
C1285 C514 1.535 1_565 S
C1287 C140 1.591 . S
C1303 C472 1.535 . S
C1305 C162 1.591 . S
C1321 C216 1.535 . S
C1323 C184 1.591 . S
C1339 C238 1.535 . S
C1341 C208 1.591 . S
C1357 C230 1.591 . S
C1359 C250 1.535 1_556 S
C1375 C260 1.591 . S
C1377 C186 1.535 . S
C1393 C340 1.535 . S
C1395 C272 1.591 . S
C1411 C274 1.535 . S
C1413 C296 1.591 . S
C1429 C318 1.591 . S
C1431 C304 1.535 1_554 S
C1447 C338 1.591 . S
C1449 C326 1.535 . S
C1465 C74 1.535 . S
C1467 C370 1.591 . S
C1483 C118 1.535 1_655 S
C1485 C384 1.591 . S
C1501 C142 1.535 . S
C1503 C414 1.591 . S
C1519 C164 1.535 . S
C1521 C428 1.591 . S
C1537 C106 1.535 . S
C1539 C450 1.591 . S
C1555 C30 1.535 1_455 S
C1557 C470 1.591 . S
C1573 C62 1.535 . S
C1575 C492 1.591 . S
C1591 C524 1.591 . S
C1593 C18 1.535 . S
C1609 C7 1.600 . S
C1611 C205 1.600 . S
C1627 C227 1.600 . S
C1629 C43 1.600 . S
C1645 C51 1.600 . S
C1647 C263 1.600 . S
C1663 C87 1.600 . S
C1665 C191 1.600 . S
C1681 C95 1.600 . S
C1683 C345 1.600 . S
C1699 C279 1.600 . S
C1701 C131 1.600 . S
C1717 C147 1.600 . S
C1719 C293 1.600 . S
C1735 C169 1.600 . S
C1737 C315 1.600 . S
C1753 C373 1.600 . S
C1755 C417 1.600 . S
C1771 C381 1.600 . S
C1773 C499 1.600 . S
C1789 C527 1.600 . S
C1791 C425 1.600 . S
C1807 C447 1.600 . S
C1809 C477 1.600 . S
