# Generated by pormake.
# Topology srs-g, (5)-cn, num edge types: 1
# Building blocks:
#     Node 0, Type 0, BuildingBlock: BEQFEK_clean_sbu_0, # of connection points: 5
#     Node 1, Type 0, BuildingBlock: BEQFEK_clean_sbu_0, # of connection points: 5
#     Node 2, Type 0, BuildingBlock: BEQFEK_clean_sbu_0, # of connection points: 5
#     Node 3, Type 0, BuildingBlock: BEQFEK_clean_sbu_0, # of connection points: 5
#     Node 4, Type 0, BuildingBlock: BEQFEK_clean_sbu_0, # of connection points: 5
#     Node 5, Type 0, BuildingBlock: BEQFEK_clean_sbu_0, # of connection points: 5
#     Node 6, Type 0, BuildingBlock: BEQFEK_clean_sbu_0, # of connection points: 5
#     Node 7, Type 0, BuildingBlock: BEQFEK_clean_sbu_0, # of connection points: 5
#     Node 8, Type 0, BuildingBlock: BEQFEK_clean_sbu_0, # of connection points: 5
#     Node 9, Type 0, BuildingBlock: BEQFEK_clean_sbu_0, # of connection points: 5
#     Node 10, Type 0, BuildingBlock: BEQFEK_clean_sbu_0, # of connection points: 5
#     Node 11, Type 0, BuildingBlock: BEQFEK_clean_sbu_0, # of connection points: 5
#     Node 12, Type 0, BuildingBlock: BEQFEK_clean_sbu_0, # of connection points: 5
#     Node 13, Type 0, BuildingBlock: BEQFEK_clean_sbu_0, # of connection points: 5
#     Node 14, Type 0, BuildingBlock: BEQFEK_clean_sbu_0, # of connection points: 5
#     Node 15, Type 0, BuildingBlock: BEQFEK_clean_sbu_0, # of connection points: 5
#     Node 16, Type 0, BuildingBlock: BEQFEK_clean_sbu_0, # of connection points: 5
#     Node 17, Type 0, BuildingBlock: BEQFEK_clean_sbu_0, # of connection points: 5
#     Node 18, Type 0, BuildingBlock: BEQFEK_clean_sbu_0, # of connection points: 5
#     Node 19, Type 0, BuildingBlock: BEQFEK_clean_sbu_0, # of connection points: 5
#     Node 20, Type 0, BuildingBlock: BEQFEK_clean_sbu_0, # of connection points: 5
#     Node 21, Type 0, BuildingBlock: BEQFEK_clean_sbu_0, # of connection points: 5
#     Node 22, Type 0, BuildingBlock: BEQFEK_clean_sbu_0, # of connection points: 5
#     Node 23, Type 0, BuildingBlock: BEQFEK_clean_sbu_0, # of connection points: 5
#     Node 24, Type 0, BuildingBlock: BEQFEK_clean_sbu_0, # of connection points: 5
#     Node 25, Type 0, BuildingBlock: BEQFEK_clean_sbu_0, # of connection points: 5
#     Node 26, Type 0, BuildingBlock: BEQFEK_clean_sbu_0, # of connection points: 5
#     Node 27, Type 0, BuildingBlock: BEQFEK_clean_sbu_0, # of connection points: 5
#     Node 28, Type 0, BuildingBlock: BEQFEK_clean_sbu_0, # of connection points: 5
#     Node 29, Type 0, BuildingBlock: BEQFEK_clean_sbu_0, # of connection points: 5
#     Node 30, Type 0, BuildingBlock: BEQFEK_clean_sbu_0, # of connection points: 5
#     Node 31, Type 0, BuildingBlock: BEQFEK_clean_sbu_0, # of connection points: 5
#     Node 32, Type 0, BuildingBlock: BEQFEK_clean_sbu_0, # of connection points: 5
#     Node 33, Type 0, BuildingBlock: BEQFEK_clean_sbu_0, # of connection points: 5
#     Node 34, Type 0, BuildingBlock: BEQFEK_clean_sbu_0, # of connection points: 5
#     Node 35, Type 0, BuildingBlock: BEQFEK_clean_sbu_0, # of connection points: 5
#     Node 36, Type 0, BuildingBlock: BEQFEK_clean_sbu_0, # of connection points: 5
#     Node 37, Type 0, BuildingBlock: BEQFEK_clean_sbu_0, # of connection points: 5
#     Node 38, Type 0, BuildingBlock: BEQFEK_clean_sbu_0, # of connection points: 5
#     Node 39, Type 0, BuildingBlock: BEQFEK_clean_sbu_0, # of connection points: 5
#     Node 40, Type 0, BuildingBlock: BEQFEK_clean_sbu_0, # of connection points: 5
#     Node 41, Type 0, BuildingBlock: BEQFEK_clean_sbu_0, # of connection points: 5
#     Node 42, Type 0, BuildingBlock: BEQFEK_clean_sbu_0, # of connection points: 5
#     Node 43, Type 0, BuildingBlock: BEQFEK_clean_sbu_0, # of connection points: 5
#     Node 44, Type 0, BuildingBlock: BEQFEK_clean_sbu_0, # of connection points: 5
#     Node 45, Type 0, BuildingBlock: BEQFEK_clean_sbu_0, # of connection points: 5
#     Node 46, Type 0, BuildingBlock: BEQFEK_clean_sbu_0, # of connection points: 5
#     Node 47, Type 0, BuildingBlock: BEQFEK_clean_sbu_0, # of connection points: 5
#     Edge 48, Type (0, 0), BuildingBlock: UVAHIK_clean_linker_0, # of connection points: 2
#     Edge 49, Type (0, 0), BuildingBlock: UVAHIK_clean_linker_0, # of connection points: 2
#     Edge 50, Type (0, 0), BuildingBlock: UVAHIK_clean_linker_0, # of connection points: 2
#     Edge 51, Type (0, 0), BuildingBlock: UVAHIK_clean_linker_0, # of connection points: 2
#     Edge 52, Type (0, 0), BuildingBlock: UVAHIK_clean_linker_0, # of connection points: 2
#     Edge 53, Type (0, 0), BuildingBlock: UVAHIK_clean_linker_0, # of connection points: 2
#     Edge 54, Type (0, 0), BuildingBlock: UVAHIK_clean_linker_0, # of connection points: 2
#     Edge 55, Type (0, 0), BuildingBlock: UVAHIK_clean_linker_0, # of connection points: 2
#     Edge 56, Type (0, 0), BuildingBlock: UVAHIK_clean_linker_0, # of connection points: 2
#     Edge 57, Type (0, 0), BuildingBlock: UVAHIK_clean_linker_0, # of connection points: 2
#     Edge 58, Type (0, 0), BuildingBlock: UVAHIK_clean_linker_0, # of connection points: 2
#     Edge 59, Type (0, 0), BuildingBlock: UVAHIK_clean_linker_0, # of connection points: 2
#     Edge 60, Type (0, 0), BuildingBlock: UVAHIK_clean_linker_0, # of connection points: 2
#     Edge 61, Type (0, 0), BuildingBlock: UVAHIK_clean_linker_0, # of connection points: 2
#     Edge 62, Type (0, 0), BuildingBlock: UVAHIK_clean_linker_0, # of connection points: 2
#     Edge 63, Type (0, 0), BuildingBlock: UVAHIK_clean_linker_0, # of connection points: 2
#     Edge 64, Type (0, 0), BuildingBlock: UVAHIK_clean_linker_0, # of connection points: 2
#     Edge 65, Type (0, 0), BuildingBlock: UVAHIK_clean_linker_0, # of connection points: 2
#     Edge 66, Type (0, 0), BuildingBlock: UVAHIK_clean_linker_0, # of connection points: 2
#     Edge 67, Type (0, 0), BuildingBlock: UVAHIK_clean_linker_0, # of connection points: 2
#     Edge 68, Type (0, 0), BuildingBlock: UVAHIK_clean_linker_0, # of connection points: 2
#     Edge 69, Type (0, 0), BuildingBlock: UVAHIK_clean_linker_0, # of connection points: 2
#     Edge 70, Type (0, 0), BuildingBlock: UVAHIK_clean_linker_0, # of connection points: 2
#     Edge 71, Type (0, 0), BuildingBlock: UVAHIK_clean_linker_0, # of connection points: 2
#     Edge 72, Type (0, 0), BuildingBlock: UVAHIK_clean_linker_0, # of connection points: 2
#     Edge 73, Type (0, 0), BuildingBlock: UVAHIK_clean_linker_0, # of connection points: 2
#     Edge 74, Type (0, 0), BuildingBlock: UVAHIK_clean_linker_0, # of connection points: 2
#     Edge 75, Type (0, 0), BuildingBlock: UVAHIK_clean_linker_0, # of connection points: 2
#     Edge 76, Type (0, 0), BuildingBlock: UVAHIK_clean_linker_0, # of connection points: 2
#     Edge 77, Type (0, 0), BuildingBlock: UVAHIK_clean_linker_0, # of connection points: 2
#     Edge 78, Type (0, 0), BuildingBlock: UVAHIK_clean_linker_0, # of connection points: 2
#     Edge 79, Type (0, 0), BuildingBlock: UVAHIK_clean_linker_0, # of connection points: 2
#     Edge 80, Type (0, 0), BuildingBlock: UVAHIK_clean_linker_0, # of connection points: 2
#     Edge 81, Type (0, 0), BuildingBlock: UVAHIK_clean_linker_0, # of connection points: 2
#     Edge 82, Type (0, 0), BuildingBlock: UVAHIK_clean_linker_0, # of connection points: 2
#     Edge 83, Type (0, 0), BuildingBlock: UVAHIK_clean_linker_0, # of connection points: 2
#     Edge 84, Type (0, 0), BuildingBlock: UVAHIK_clean_linker_0, # of connection points: 2
#     Edge 85, Type (0, 0), BuildingBlock: UVAHIK_clean_linker_0, # of connection points: 2
#     Edge 86, Type (0, 0), BuildingBlock: UVAHIK_clean_linker_0, # of connection points: 2
#     Edge 87, Type (0, 0), BuildingBlock: UVAHIK_clean_linker_0, # of connection points: 2
#     Edge 88, Type (0, 0), BuildingBlock: UVAHIK_clean_linker_0, # of connection points: 2
#     Edge 89, Type (0, 0), BuildingBlock: UVAHIK_clean_linker_0, # of connection points: 2
#     Edge 90, Type (0, 0), BuildingBlock: UVAHIK_clean_linker_0, # of connection points: 2
#     Edge 91, Type (0, 0), BuildingBlock: UVAHIK_clean_linker_0, # of connection points: 2
#     Edge 92, Type (0, 0), BuildingBlock: UVAHIK_clean_linker_0, # of connection points: 2
#     Edge 93, Type (0, 0), BuildingBlock: UVAHIK_clean_linker_0, # of connection points: 2
#     Edge 94, Type (0, 0), BuildingBlock: UVAHIK_clean_linker_0, # of connection points: 2
#     Edge 95, Type (0, 0), BuildingBlock: UVAHIK_clean_linker_0, # of connection points: 2
#     Edge 96, Type (0, 0), BuildingBlock: UVAHIK_clean_linker_0, # of connection points: 2
#     Edge 97, Type (0, 0), BuildingBlock: UVAHIK_clean_linker_0, # of connection points: 2
#     Edge 98, Type (0, 0), BuildingBlock: UVAHIK_clean_linker_0, # of connection points: 2
#     Edge 99, Type (0, 0), BuildingBlock: UVAHIK_clean_linker_0, # of connection points: 2
#     Edge 100, Type (0, 0), BuildingBlock: UVAHIK_clean_linker_0, # of connection points: 2
#     Edge 101, Type (0, 0), BuildingBlock: UVAHIK_clean_linker_0, # of connection points: 2
#     Edge 102, Type (0, 0), BuildingBlock: UVAHIK_clean_linker_0, # of connection points: 2
#     Edge 103, Type (0, 0), BuildingBlock: UVAHIK_clean_linker_0, # of connection points: 2
#     Edge 104, Type (0, 0), BuildingBlock: UVAHIK_clean_linker_0, # of connection points: 2
#     Edge 105, Type (0, 0), BuildingBlock: UVAHIK_clean_linker_0, # of connection points: 2
#     Edge 106, Type (0, 0), BuildingBlock: UVAHIK_clean_linker_0, # of connection points: 2
#     Edge 107, Type (0, 0), BuildingBlock: UVAHIK_clean_linker_0, # of connection points: 2
#     Edge 108, Type (0, 0), BuildingBlock: UVAHIK_clean_linker_0, # of connection points: 2
#     Edge 109, Type (0, 0), BuildingBlock: UVAHIK_clean_linker_0, # of connection points: 2
#     Edge 110, Type (0, 0), BuildingBlock: UVAHIK_clean_linker_0, # of connection points: 2
#     Edge 111, Type (0, 0), BuildingBlock: UVAHIK_clean_linker_0, # of connection points: 2
#     Edge 112, Type (0, 0), BuildingBlock: UVAHIK_clean_linker_0, # of connection points: 2
#     Edge 113, Type (0, 0), BuildingBlock: UVAHIK_clean_linker_0, # of connection points: 2
#     Edge 114, Type (0, 0), BuildingBlock: UVAHIK_clean_linker_0, # of connection points: 2
#     Edge 115, Type (0, 0), BuildingBlock: UVAHIK_clean_linker_0, # of connection points: 2
#     Edge 116, Type (0, 0), BuildingBlock: UVAHIK_clean_linker_0, # of connection points: 2
#     Edge 117, Type (0, 0), BuildingBlock: UVAHIK_clean_linker_0, # of connection points: 2
#     Edge 118, Type (0, 0), BuildingBlock: UVAHIK_clean_linker_0, # of connection points: 2
#     Edge 119, Type (0, 0), BuildingBlock: UVAHIK_clean_linker_0, # of connection points: 2
#     Edge 120, Type (0, 0), BuildingBlock: UVAHIK_clean_linker_0, # of connection points: 2
#     Edge 121, Type (0, 0), BuildingBlock: UVAHIK_clean_linker_0, # of connection points: 2
#     Edge 122, Type (0, 0), BuildingBlock: UVAHIK_clean_linker_0, # of connection points: 2
#     Edge 123, Type (0, 0), BuildingBlock: UVAHIK_clean_linker_0, # of connection points: 2
#     Edge 124, Type (0, 0), BuildingBlock: UVAHIK_clean_linker_0, # of connection points: 2
#     Edge 125, Type (0, 0), BuildingBlock: UVAHIK_clean_linker_0, # of connection points: 2
#     Edge 126, Type (0, 0), BuildingBlock: UVAHIK_clean_linker_0, # of connection points: 2
#     Edge 127, Type (0, 0), BuildingBlock: UVAHIK_clean_linker_0, # of connection points: 2
#     Edge 128, Type (0, 0), BuildingBlock: UVAHIK_clean_linker_0, # of connection points: 2
#     Edge 129, Type (0, 0), BuildingBlock: UVAHIK_clean_linker_0, # of connection points: 2
#     Edge 130, Type (0, 0), BuildingBlock: UVAHIK_clean_linker_0, # of connection points: 2
#     Edge 131, Type (0, 0), BuildingBlock: UVAHIK_clean_linker_0, # of connection points: 2
#     Edge 132, Type (0, 0), BuildingBlock: UVAHIK_clean_linker_0, # of connection points: 2
#     Edge 133, Type (0, 0), BuildingBlock: UVAHIK_clean_linker_0, # of connection points: 2
#     Edge 134, Type (0, 0), BuildingBlock: UVAHIK_clean_linker_0, # of connection points: 2
#     Edge 135, Type (0, 0), BuildingBlock: UVAHIK_clean_linker_0, # of connection points: 2
#     Edge 136, Type (0, 0), BuildingBlock: UVAHIK_clean_linker_0, # of connection points: 2
#     Edge 137, Type (0, 0), BuildingBlock: UVAHIK_clean_linker_0, # of connection points: 2
#     Edge 138, Type (0, 0), BuildingBlock: UVAHIK_clean_linker_0, # of connection points: 2
#     Edge 139, Type (0, 0), BuildingBlock: UVAHIK_clean_linker_0, # of connection points: 2
#     Edge 140, Type (0, 0), BuildingBlock: UVAHIK_clean_linker_0, # of connection points: 2
#     Edge 141, Type (0, 0), BuildingBlock: UVAHIK_clean_linker_0, # of connection points: 2
#     Edge 142, Type (0, 0), BuildingBlock: UVAHIK_clean_linker_0, # of connection points: 2
#     Edge 143, Type (0, 0), BuildingBlock: UVAHIK_clean_linker_0, # of connection points: 2
#     Edge 144, Type (0, 0), BuildingBlock: UVAHIK_clean_linker_0, # of connection points: 2
#     Edge 145, Type (0, 0), BuildingBlock: UVAHIK_clean_linker_0, # of connection points: 2
#     Edge 146, Type (0, 0), BuildingBlock: UVAHIK_clean_linker_0, # of connection points: 2
#     Edge 147, Type (0, 0), BuildingBlock: UVAHIK_clean_linker_0, # of connection points: 2
#     Edge 148, Type (0, 0), BuildingBlock: UVAHIK_clean_linker_0, # of connection points: 2
#     Edge 149, Type (0, 0), BuildingBlock: UVAHIK_clean_linker_0, # of connection points: 2
#     Edge 150, Type (0, 0), BuildingBlock: UVAHIK_clean_linker_0, # of connection points: 2
#     Edge 151, Type (0, 0), BuildingBlock: UVAHIK_clean_linker_0, # of connection points: 2
#     Edge 152, Type (0, 0), BuildingBlock: UVAHIK_clean_linker_0, # of connection points: 2
#     Edge 153, Type (0, 0), BuildingBlock: UVAHIK_clean_linker_0, # of connection points: 2
#     Edge 154, Type (0, 0), BuildingBlock: UVAHIK_clean_linker_0, # of connection points: 2
#     Edge 155, Type (0, 0), BuildingBlock: UVAHIK_clean_linker_0, # of connection points: 2
#     Edge 156, Type (0, 0), BuildingBlock: UVAHIK_clean_linker_0, # of connection points: 2
#     Edge 157, Type (0, 0), BuildingBlock: UVAHIK_clean_linker_0, # of connection points: 2
#     Edge 158, Type (0, 0), BuildingBlock: UVAHIK_clean_linker_0, # of connection points: 2
#     Edge 159, Type (0, 0), BuildingBlock: UVAHIK_clean_linker_0, # of connection points: 2
#     Edge 160, Type (0, 0), BuildingBlock: UVAHIK_clean_linker_0, # of connection points: 2
#     Edge 161, Type (0, 0), BuildingBlock: UVAHIK_clean_linker_0, # of connection points: 2
#     Edge 162, Type (0, 0), BuildingBlock: UVAHIK_clean_linker_0, # of connection points: 2
#     Edge 163, Type (0, 0), BuildingBlock: UVAHIK_clean_linker_0, # of connection points: 2
#     Edge 164, Type (0, 0), BuildingBlock: UVAHIK_clean_linker_0, # of connection points: 2
#     Edge 165, Type (0, 0), BuildingBlock: UVAHIK_clean_linker_0, # of connection points: 2
#     Edge 166, Type (0, 0), BuildingBlock: UVAHIK_clean_linker_0, # of connection points: 2
#     Edge 167, Type (0, 0), BuildingBlock: UVAHIK_clean_linker_0, # of connection points: 2
# Relax obj value: 1.225
# Max RMSD: 0.199
# Mean RMSD: 0.199
data_MOF--net-srs-g--node1-BEQFEK_clean_sbu_0--edge1-UVAHIK_clean_linker_0
_symmetry_space_group_name_H-M    P1
_symmetry_Int_Tables_number       1
_symmetry_cell_setting            triclinic
loop_
_symmetry_equiv_pos_as_xyz
'x, y, z'
_cell_length_a     101.25008
_cell_length_b     101.24896
_cell_length_c     101.2533
_cell_angle_alpha  90.028325
_cell_angle_beta   90.017201
_cell_angle_gamma 90.016263
loop_
_atom_site_label
_atom_site_type_symbol
_atom_site_fract_x
_atom_site_fract_y
_atom_site_fract_z
_atom_type_partial_charge
Co0 Co 0.03239 0.03751 0.1821 0.0
Co1 Co 0.03866 0.01239 0.16548 0.0
C2 C 0.05948 0.02555 0.18205 0.0
O3 O 0.05102 0.03389 0.18605 0.0
O4 O 0.05626 0.01656 0.17384 0.0
C5 C 0.037 0.06338 0.19004 0.0
O6 O 0.0476 0.06137 0.18282 0.0
C7 C 0.0514 -0.00063 0.14358 0.0
C8 C 0.03873 0.98208 0.13953 0.0
C9 C 0.04973 0.98885 0.13504 0.0
N10 N 0.04182 0.99896 0.1527 0.0
N11 N 0.03437 0.98848 0.15039 0.0
C12 C 0.06169 0.00999 0.14289 0.0
H13 H 0.07031 0.00692 0.14892 0.0
H14 H 0.0578 0.01935 0.14704 0.0
H15 H 0.06512 0.0116 0.13262 0.0
C16 C 0.02342 0.04762 0.15651 0.0
N17 N 0.02917 0.03825 0.16394 0.0
N18 N 0.03138 0.02766 0.15672 0.0
C19 C 0.02706 0.03006 0.14429 0.0
C20 C 0.022 0.04282 0.14378 0.0
C21 C 0.01816 0.06037 0.16184 0.0
H22 H 0.01316 0.05862 0.17142 0.0
H23 H 0.0265 0.06729 0.1635 0.0
H24 H 0.01101 0.06502 0.15496 0.0
O25 O 0.02089 0.02424 0.18956 0.0
O26 O 0.02567 0.00558 0.17895 0.0
H27 H 0.02429 0.01063 0.13635 0.0
H28 H 0.02216 0.02372 0.1244 0.0
C29 C 0.0279 0.02044 0.13311 0.0
H30 H 0.03835 0.01951 0.13005 0.0
H31 H 0.02601 0.986 0.15589 0.0
O32 O 0.02839 0.05432 0.19087 0.0
C33 C 0.01907 0.012 0.18757 0.0
Co34 Co 0.21052 0.78018 0.42772 0.0
Co35 Co 0.23723 0.78815 0.41462 0.0
C36 C 0.22149 0.80758 0.43062 0.0
O37 O 0.21294 0.79872 0.43296 0.0
O38 O 0.23156 0.80505 0.4235 0.0
C39 C 0.18384 0.78377 0.43237 0.0
O40 O 0.18644 0.79439 0.42539 0.0
C41 C 0.25227 0.80301 0.39568 0.0
C42 C 0.26899 0.78994 0.39067 0.0
C43 C 0.26305 0.80181 0.38738 0.0
N44 N 0.25185 0.79243 0.40361 0.0
N45 N 0.26204 0.78475 0.4008 0.0
C46 C 0.24138 0.81299 0.39474 0.0
H47 H 0.23185 0.80855 0.39783 0.0
H48 H 0.24041 0.8169 0.38455 0.0
H49 H 0.24365 0.82136 0.40145 0.0
C50 C 0.2042 0.77174 0.40074 0.0
N51 N 0.21217 0.77778 0.40947 0.0
N52 N 0.2234 0.78092 0.40372 0.0
C53 C 0.2228 0.77704 0.39095 0.0
C54 C 0.21067 0.77107 0.38872 0.0
C55 C 0.19078 0.76644 0.404 0.0
H56 H 0.19139 0.76014 0.41293 0.0
H57 H 0.18408 0.77481 0.40618 0.0
H58 H 0.18646 0.76068 0.39575 0.0
O59 O 0.2233 0.76889 0.43642 0.0
O60 O 0.24282 0.77479 0.4282 0.0
H61 H 0.24301 0.77373 0.38576 0.0
H62 H 0.23171 0.77255 0.37202 0.0
C63 C 0.23396 0.77794 0.3813 0.0
H64 H 0.23581 0.78845 0.37888 0.0
H65 H 0.26376 0.77559 0.4052 0.0
O66 O 0.19292 0.77533 0.4342 0.0
C67 C 0.23577 0.76764 0.43584 0.0
Co68 Co 0.46332 0.9538 0.68057 0.0
Co69 Co 0.4558 0.97985 0.66606 0.0
C70 C 0.43562 0.96326 0.68099 0.0
O71 O 0.44434 0.95487 0.6843 0.0
O72 O 0.43863 0.97331 0.67398 0.0
C73 C 0.46835 0.93574 0.70048 0.0
O74 O 0.46165 0.94463 0.70716 0.0
C75 C 0.44401 0.9922 0.64315 0.0
C76 C 0.45252 0.01231 0.64319 0.0
C77 C 0.44459 0.00382 0.63594 0.0
N78 N 0.45151 0.99361 0.65398 0.0
N79 N 0.45646 0.00569 0.65406 0.0
C80 C 0.43627 0.97999 0.63998 0.0
H81 H 0.4337 0.97459 0.64914 0.0
H82 H 0.44228 0.9733 0.63375 0.0
H83 H 0.42712 0.98252 0.63449 0.0
C84 C 0.47361 0.94667 0.65463 0.0
N85 N 0.46686 0.95488 0.66254 0.0
N86 N 0.46487 0.9662 0.65648 0.0
C87 C 0.47076 0.96563 0.6445 0.0
C88 C 0.4764 0.95322 0.64295 0.0
C89 C 0.47754 0.93293 0.65841 0.0
H90 H 0.48653 0.93336 0.66467 0.0
H91 H 0.46953 0.92824 0.66423 0.0
H92 H 0.47963 0.92679 0.64957 0.0
O93 O 0.4731 0.9678 0.68938 0.0
O94 O 0.4677 0.98695 0.68015 0.0
H95 H 0.47309 0.98651 0.64128 0.0
H96 H 0.48213 0.97617 0.6299 0.0
C97 C 0.47278 0.97721 0.63553 0.0
H98 H 0.46458 0.97771 0.62831 0.0
H99 H 0.46284 0.0093 0.66132 0.0
O100 O 0.47021 0.93741 0.6882 0.0
C101 C 0.47427 0.98025 0.68854 0.0
Co102 Co 0.28535 0.21493 0.92841 0.0
Co103 Co 0.25838 0.20783 0.91539 0.0
C104 C 0.27342 0.18794 0.93143 0.0
O105 O 0.28225 0.19653 0.93378 0.0
O106 O 0.26345 0.19074 0.92427 0.0
C107 C 0.31199 0.21051 0.9332 0.0
O108 O 0.30911 0.19973 0.92657 0.0
C109 C 0.24218 0.19357 0.89682 0.0
C110 C 0.22626 0.20762 0.89185 0.0
C111 C 0.23133 0.19531 0.8887 0.0
N112 N 0.24345 0.20425 0.90452 0.0
N113 N 0.23374 0.21254 0.90173 0.0
C114 C 0.25234 0.18284 0.89593 0.0
H115 H 0.26222 0.18672 0.89867 0.0
H116 H 0.25278 0.17859 0.88583 0.0
H117 H 0.24968 0.17485 0.90292 0.0
C118 C 0.292 0.22271 0.90133 0.0
N119 N 0.28378 0.21717 0.91014 0.0
N120 N 0.27244 0.21439 0.9044 0.0
C121 C 0.27322 0.21802 0.89156 0.0
C122 C 0.28561 0.22339 0.88928 0.0
C123 C 0.3055 0.22781 0.90458 0.0
H124 H 0.305 0.23415 0.9135 0.0
H125 H 0.31208 0.21934 0.90677 0.0
H126 H 0.30986 0.2335 0.89631 0.0
O127 O 0.27307 0.22677 0.93711 0.0
O128 O 0.25337 0.22141 0.92899 0.0
H129 H 0.25327 0.2223 0.88611 0.0
H130 H 0.2647 0.22221 0.87241 0.0
C131 C 0.26208 0.21737 0.88189 0.0
H132 H 0.25959 0.2069 0.87991 0.0
H133 H 0.2327 0.22187 0.90599 0.0
O134 O 0.30314 0.21923 0.93478 0.0
C135 C 0.26064 0.22838 0.93658 0.0
Co136 Co 0.02834 0.95773 0.31252 0.0
Co137 Co 0.03648 0.98225 0.32932 0.0
C138 C 0.05584 0.96876 0.31142 0.0
O139 O 0.04685 0.96087 0.3077 0.0
O140 O 0.05347 0.97761 0.32005 0.0
C141 C 0.03201 0.93195 0.30427 0.0
O142 O 0.0428 0.93381 0.31125 0.0
C143 C 0.05065 0.99395 0.3511 0.0
C144 C 0.03937 0.01203 0.35577 0.0
C145 C 0.04995 0.00439 0.35989 0.0
N146 N 0.04088 0.99521 0.34225 0.0
N147 N 0.03427 0.00615 0.34494 0.0
C148 C 0.06037 0.98279 0.35106 0.0
H149 H 0.05563 0.97365 0.3473 0.0
H150 H 0.06459 0.98102 0.361 0.0
H151 H 0.06859 0.98533 0.34428 0.0
C152 C 0.02016 0.94748 0.3383 0.0
N153 N 0.02596 0.95675 0.33079 0.0
N154 N 0.02889 0.96712 0.33809 0.0
C155 C 0.02493 0.96468 0.35062 0.0
C156 C 0.01941 0.95212 0.35113 0.0
C157 C 0.01419 0.93502 0.33299 0.0
H158 H 0.00888 0.93712 0.32365 0.0
H159 H 0.02217 0.92782 0.33091 0.0
H160 H 0.00715 0.93055 0.34009 0.0
O161 O 0.01709 0.97163 0.30582 0.0
O162 O 0.02332 0.98985 0.31646 0.0
H163 H 0.02341 0.98415 0.35883 0.0
H164 H 0.02066 0.97106 0.37064 0.0
C165 C 0.02647 0.9741 0.3619 0.0
H166 H 0.03699 0.97435 0.36484 0.0
H167 H 0.02598 0.00933 0.3397 0.0
O168 O 0.02351 0.94113 0.30368 0.0
C169 C 0.01602 0.98393 0.30804 0.0
Co170 Co 0.29017 0.7824 0.56469 0.0
Co171 Co 0.26441 0.79016 0.57961 0.0
C172 C 0.28013 0.81008 0.56385 0.0
O173 O 0.28841 0.80127 0.56047 0.0
O174 O 0.27036 0.80727 0.57129 0.0
C175 C 0.30699 0.77627 0.54416 0.0
O176 O 0.29655 0.78039 0.53765 0.0
C177 C 0.25076 0.80387 0.60063 0.0
C178 C 0.23279 0.79186 0.60369 0.0
C179 C 0.23965 0.80269 0.60853 0.0
N180 N 0.2505 0.79424 0.59155 0.0
N181 N 0.23964 0.78719 0.59327 0.0
C182 C 0.2623 0.81292 0.60261 0.0
H183 H 0.27131 0.80872 0.598 0.0
H184 H 0.26411 0.81463 0.61329 0.0
H185 H 0.26015 0.82256 0.59787 0.0
C186 C 0.29811 0.77324 0.5909 0.0
N187 N 0.2896 0.77944 0.58287 0.0
N188 N 0.27857 0.78198 0.58926 0.0
C189 C 0.27974 0.77728 0.6017 0.0
C190 C 0.29214 0.77156 0.6031 0.0
C191 C 0.31164 0.7689 0.58681 0.0
H192 H 0.31628 0.77663 0.58058 0.0
H193 H 0.31804 0.76697 0.59549 0.0
H194 H 0.31082 0.75975 0.58083 0.0
O195 O 0.27635 0.77186 0.55658 0.0
O196 O 0.2574 0.77762 0.56599 0.0
H197 H 0.27081 0.76988 0.61966 0.0
H198 H 0.26768 0.787 0.61602 0.0
C199 C 0.26879 0.77703 0.61162 0.0
H200 H 0.25939 0.77431 0.60672 0.0
H201 H 0.2372 0.77886 0.5877 0.0
O202 O 0.30671 0.7762 0.55671 0.0
C203 C 0.26394 0.77068 0.55778 0.0
Co204 Co 0.46467 0.03714 0.81624 0.0
Co205 Co 0.45757 0.01154 0.83179 0.0
C206 C 0.43772 0.02488 0.81434 0.0
O207 O 0.44639 0.03332 0.81109 0.0
O208 O 0.44041 0.01573 0.82256 0.0
C209 C 0.46002 0.06303 0.80837 0.0
O210 O 0.44901 0.0607 0.81482 0.0
C211 C 0.44387 0.99703 0.85224 0.0
C212 C 0.45851 0.98207 0.85835 0.0
C213 C 0.44622 0.98721 0.86146 0.0
N214 N 0.45426 0.99767 0.84404 0.0
N215 N 0.46285 0.98848 0.84752 0.0
C216 C 0.43293 0.00699 0.85242 0.0
H217 H 0.42473 0.00336 0.84612 0.0
H218 H 0.43642 0.01656 0.84838 0.0
H219 H 0.42909 0.0085 0.86257 0.0
C220 C 0.47124 0.04687 0.84272 0.0
N221 N 0.46657 0.03747 0.8346 0.0
N222 N 0.46411 0.02665 0.84138 0.0
C223 C 0.46731 0.02889 0.85417 0.0
C224 C 0.47178 0.04179 0.85537 0.0
C225 C 0.47607 0.06012 0.83827 0.0
H226 H 0.48216 0.059 0.82924 0.0
H227 H 0.46746 0.06645 0.83587 0.0
H228 H 0.48205 0.06507 0.84601 0.0
O229 O 0.47667 0.02414 0.80897 0.0
O230 O 0.47109 0.00526 0.81868 0.0
H231 H 0.47105 0.00961 0.86196 0.0
H232 H 0.47099 0.02254 0.87426 0.0
C233 C 0.46627 0.01895 0.86504 0.0
H234 H 0.45572 0.01697 0.86713 0.0
H235 H 0.47206 0.9872 0.84307 0.0
O236 O 0.46891 0.05421 0.80809 0.0
C237 C 0.47819 0.0118 0.81058 0.0
Co238 Co 0.20614 0.21452 0.0654 0.0
Co239 Co 0.23221 0.20629 0.07947 0.0
C240 C 0.21631 0.18715 0.06271 0.0
O241 O 0.20778 0.19597 0.0601 0.0
O242 O 0.22623 0.18971 0.07007 0.0
C243 C 0.18772 0.2197 0.0459 0.0
O244 O 0.19673 0.21346 0.03895 0.0
C245 C 0.24548 0.19128 0.09972 0.0
C246 C 0.26382 0.20252 0.10341 0.0
C247 C 0.25659 0.19172 0.1077 0.0
N248 N 0.2461 0.20131 0.0911 0.0
N249 N 0.25718 0.20791 0.09319 0.0
C250 C 0.23363 0.18256 0.10125 0.0
H251 H 0.2248 0.18721 0.09672 0.0
H252 H 0.23167 0.18052 0.11184 0.0
H253 H 0.23551 0.17303 0.09617 0.0
C254 C 0.19834 0.22168 0.09225 0.0
N255 N 0.20695 0.21635 0.08371 0.0
N256 N 0.21819 0.21391 0.08974 0.0
C257 C 0.21716 0.21801 0.1024 0.0
C258 C 0.20453 0.22309 0.1044 0.0
C259 C 0.1844 0.22514 0.08872 0.0
H260 H 0.18427 0.2349 0.08373 0.0
H261 H 0.18036 0.2177 0.08177 0.0
H262 H 0.17801 0.22556 0.09761 0.0
O263 O 0.2199 0.22538 0.05751 0.0
O264 O 0.23904 0.21948 0.06646 0.0
H265 H 0.23769 0.22095 0.10675 0.0
H266 H 0.2267 0.22573 0.11991 0.0
C267 C 0.22843 0.21838 0.11197 0.0
H268 H 0.2296 0.2085 0.11653 0.0
H269 H 0.25991 0.21641 0.08805 0.0
O270 O 0.18952 0.22136 0.0582 0.0
C271 C 0.23233 0.22662 0.05856 0.0
Co272 Co 0.18037 0.0287 0.03467 0.0
Co273 Co 0.16455 0.03523 0.009 0.0
C274 C 0.18174 0.05551 0.02199 0.0
O275 O 0.18527 0.04695 0.03042 0.0
O276 O 0.17338 0.05266 0.01302 0.0
C277 C 0.19049 0.03418 0.05962 0.0
O278 O 0.1851 0.04564 0.05683 0.0
C279 C 0.14356 0.04866 0.99518 0.0
C280 C 0.13806 0.0348 0.97926 0.0
C281 C 0.1346 0.04669 0.98507 0.0
N282 N 0.15203 0.03848 0.99534 0.0
N283 N 0.14888 0.03033 0.98563 0.0
C284 C 0.14302 0.05909 0.00567 0.0
H285 H 0.14885 0.06776 0.00236 0.0
H286 H 0.14735 0.05535 0.01501 0.0
H287 H 0.13271 0.06235 0.00745 0.0
C288 C 0.15429 0.02084 0.04425 0.0
N289 N 0.16208 0.02641 0.03508 0.0
N290 N 0.15528 0.02848 0.0242 0.0
C291 C 0.14279 0.02415 0.02616 0.0
C292 C 0.14182 0.01913 0.0389 0.0
C293 C 0.15894 0.01694 0.05773 0.0
H294 H 0.16603 0.00863 0.05685 0.0
H295 H 0.16418 0.02537 0.06235 0.0
H296 H 0.15063 0.014 0.06423 0.0
O297 O 0.18758 0.01667 0.02169 0.0
O298 O 0.17788 0.02187 0.00266 0.0
H299 H 0.13672 0.01922 0.00651 0.0
H300 H 0.12392 0.01725 0.01873 0.0
C301 C 0.13242 0.02344 0.01565 0.0
H302 H 0.12879 0.03353 0.01347 0.0
H303 H 0.15364 0.02136 0.98384 0.0
O304 O 0.18891 0.0246 0.05169 0.0
C305 C 0.186 0.01494 0.00937 0.0
Co306 Co 0.21382 0.92913 0.28698 0.0
Co307 Co 0.20753 0.91475 0.26048 0.0
C308 C 0.18756 0.9323 0.27382 0.0
O309 O 0.19584 0.93494 0.28285 0.0
O310 O 0.19056 0.92448 0.26441 0.0
C311 C 0.20878 0.93645 0.31303 0.0
O312 O 0.19755 0.93056 0.31027 0.0
C313 C 0.19296 0.89571 0.2451 0.0
C314 C 0.20716 0.88918 0.22988 0.0
C315 C 0.1946 0.8869 0.23479 0.0
N316 N 0.20396 0.903 0.24621 0.0
N317 N 0.21236 0.89925 0.23694 0.0
C318 C 0.18194 0.89591 0.25497 0.0
H319 H 0.17428 0.90297 0.25159 0.0
H320 H 0.18564 0.89918 0.26475 0.0
H321 H 0.17732 0.88602 0.25596 0.0
C322 C 0.21946 0.90217 0.29587 0.0
N323 N 0.21522 0.91074 0.28668 0.0
N324 N 0.21317 0.90447 0.27546 0.0
C325 C 0.21621 0.89158 0.27723 0.0
C326 C 0.22014 0.88975 0.29023 0.0
C327 C 0.22392 0.90604 0.30943 0.0
H328 H 0.23044 0.91481 0.30882 0.0
H329 H 0.21517 0.90867 0.31547 0.0
H330 H 0.22934 0.89792 0.31442 0.0
O331 O 0.22644 0.93649 0.27463 0.0
O332 O 0.22175 0.92755 0.25512 0.0
H333 H 0.2212 0.88474 0.25787 0.0
H334 H 0.22006 0.87178 0.27011 0.0
C335 C 0.21573 0.88125 0.26668 0.0
H336 H 0.20532 0.87948 0.26381 0.0
H337 H 0.22189 0.90304 0.23589 0.0
O338 O 0.21788 0.93656 0.30442 0.0
C339 C 0.22864 0.93525 0.26235 0.0
Co340 Co 0.32062 0.97094 0.53856 0.0
Co341 Co 0.33366 0.9623 0.51205 0.0
C342 C 0.31931 0.94291 0.52977 0.0
O343 O 0.31675 0.95194 0.53808 0.0
O344 O 0.32577 0.94547 0.51928 0.0
C345 C 0.31604 0.97106 0.56584 0.0
O346 O 0.32407 0.96088 0.56533 0.0
C347 C 0.35547 0.94906 0.49949 0.0
C348 C 0.35465 0.95563 0.47871 0.0
C349 C 0.36193 0.94809 0.4875 0.0
N350 N 0.345 0.95703 0.49801 0.0
N351 N 0.34448 0.96089 0.48554 0.0
C352 C 0.35886 0.94208 0.5121 0.0
H353 H 0.36809 0.94617 0.51631 0.0
H354 H 0.36057 0.93144 0.51009 0.0
H355 H 0.3509 0.94325 0.51951 0.0
C356 C 0.34706 0.98188 0.5436 0.0
N357 N 0.33861 0.97465 0.53632 0.0
N358 N 0.34408 0.97174 0.52489 0.0
C359 C 0.35625 0.97725 0.52452 0.0
C360 C 0.3585 0.98374 0.53637 0.0
C361 C 0.34407 0.98703 0.55715 0.0
H362 H 0.3347 0.99269 0.55694 0.0
H363 H 0.34284 0.97859 0.56398 0.0
H364 H 0.35205 0.99339 0.56108 0.0
O365 O 0.311 0.98021 0.52479 0.0
O366 O 0.31926 0.97411 0.50535 0.0
H367 H 0.35891 0.97817 0.50347 0.0
H368 H 0.37137 0.98676 0.51292 0.0
C369 C 0.36494 0.97788 0.51259 0.0
H370 H 0.37144 0.96909 0.51234 0.0
H371 H 0.33729 0.96723 0.48173 0.0
O372 O 0.31354 0.97744 0.55538 0.0
C373 C 0.3112 0.98091 0.51227 0.0
Co374 Co 0.2796 0.06615 0.78864 0.0
Co375 Co 0.28711 0.08183 0.76323 0.0
C376 C 0.30668 0.06425 0.777 0.0
O377 O 0.29786 0.06095 0.78525 0.0
O378 O 0.30418 0.07257 0.7679 0.0
C379 C 0.28376 0.05826 0.81448 0.0
O380 O 0.29466 0.06496 0.8123 0.0
C381 C 0.30052 0.10386 0.75122 0.0
C382 C 0.29045 0.1066 0.73207 0.0
C383 C 0.30011 0.11189 0.74019 0.0
N384 N 0.29143 0.09433 0.74985 0.0
N385 N 0.2855 0.0959 0.73831 0.0
C386 C 0.30953 0.10509 0.7629 0.0
H387 H 0.3063 0.09851 0.77103 0.0
H388 H 0.30986 0.11542 0.76652 0.0
H389 H 0.31969 0.10234 0.75987 0.0
C390 C 0.2724 0.09248 0.79826 0.0
N391 N 0.27759 0.08448 0.78903 0.0
N392 N 0.27977 0.09121 0.77812 0.0
C393 C 0.27563 0.10377 0.78006 0.0
C394 C 0.27109 0.10496 0.79292 0.0
C395 C 0.26766 0.08798 0.81152 0.0
H396 H 0.26157 0.07894 0.81038 0.0
H397 H 0.2763 0.08555 0.8178 0.0
H398 H 0.26169 0.09568 0.81655 0.0
O399 O 0.26798 0.05904 0.77518 0.0
O400 O 0.27384 0.06875 0.75633 0.0
H401 H 0.27319 0.11005 0.75994 0.0
H402 H 0.26797 0.12202 0.77211 0.0
C403 C 0.27542 0.11434 0.76976 0.0
H404 H 0.28521 0.11918 0.76945 0.0
H405 H 0.27784 0.08991 0.73487 0.0
O406 O 0.27498 0.05785 0.80555 0.0
C407 C 0.26666 0.06064 0.7628 0.0
Co408 Co 0.18099 0.96647 0.46056 0.0
Co409 Co 0.16547 0.95781 0.48564 0.0
C410 C 0.18235 0.93863 0.47021 0.0
O411 O 0.18568 0.94774 0.46225 0.0
O412 O 0.17444 0.94093 0.47976 0.0
C413 C 0.20119 0.97121 0.44242 0.0
O414 O 0.20805 0.96483 0.4514 0.0
C415 C 0.14436 0.94365 0.49885 0.0
C416 C 0.13969 0.95657 0.51581 0.0
C417 C 0.13565 0.94526 0.50926 0.0
N418 N 0.15319 0.95353 0.49921 0.0
N419 N 0.15053 0.96108 0.50953 0.0
C420 C 0.14325 0.93399 0.48771 0.0
H421 H 0.14825 0.92467 0.49058 0.0
H422 H 0.14809 0.93792 0.47871 0.0
H423 H 0.13274 0.9317 0.48556 0.0
C424 C 0.15485 0.97482 0.45176 0.0
N425 N 0.16275 0.96887 0.46058 0.0
N426 N 0.15599 0.96591 0.47127 0.0
C427 C 0.14341 0.9701 0.46957 0.0
C428 C 0.14235 0.97593 0.45717 0.0
C429 C 0.15932 0.9793 0.43839 0.0
H430 H 0.16526 0.98844 0.43947 0.0
H431 H 0.16569 0.97162 0.43387 0.0
H432 H 0.15084 0.98126 0.43173 0.0
O433 O 0.18852 0.97694 0.47464 0.0
O434 O 0.17872 0.97052 0.49318 0.0
H435 H 0.1371 0.97283 0.48957 0.0
H436 H 0.12447 0.97614 0.47745 0.0
C437 C 0.13293 0.96965 0.47997 0.0
H438 H 0.12928 0.95937 0.48096 0.0
H439 H 0.15563 0.96974 0.51183 0.0
O440 O 0.18894 0.97313 0.44426 0.0
C441 C 0.18696 0.97778 0.48703 0.0
Co442 Co 0.27383 0.9269 0.70893 0.0
Co443 Co 0.28307 0.91337 0.73496 0.0
C444 C 0.30224 0.92746 0.71704 0.0
O445 O 0.29299 0.93038 0.70909 0.0
O446 O 0.29988 0.92087 0.72749 0.0
C447 C 0.27325 0.93106 0.68162 0.0
O448 O 0.28283 0.92232 0.68203 0.0
C449 C 0.29722 0.89241 0.74786 0.0
C450 C 0.28916 0.89195 0.76813 0.0
C451 C 0.29793 0.88567 0.75971 0.0
N452 N 0.28831 0.90212 0.74907 0.0
N453 N 0.28357 0.90191 0.76124 0.0
C454 C 0.30518 0.89004 0.73561 0.0
H455 H 0.31496 0.89485 0.73677 0.0
H456 H 0.30019 0.89437 0.72687 0.0
H457 H 0.30688 0.87937 0.73391 0.0
C458 C 0.26255 0.90054 0.70379 0.0
N459 N 0.26981 0.90894 0.7111 0.0
N460 N 0.2735 0.90306 0.72211 0.0
C461 C 0.26876 0.89057 0.722 0.0
C462 C 0.26171 0.88863 0.71042 0.0
C463 C 0.25651 0.9039 0.69071 0.0
H464 H 0.25192 0.91383 0.69118 0.0
H465 H 0.26435 0.90402 0.68308 0.0
H466 H 0.24895 0.89661 0.68764 0.0
O467 O 0.26496 0.93661 0.72282 0.0
O468 O 0.27154 0.92797 0.74191 0.0
H469 H 0.2689 0.88589 0.74267 0.0
H470 H 0.26263 0.87286 0.73219 0.0
C471 C 0.2701 0.88085 0.73303 0.0
H472 H 0.28004 0.87628 0.73261 0.0
H473 H 0.27636 0.90838 0.76476 0.0
O474 O 0.26735 0.93419 0.6922 0.0
C475 C 0.26465 0.93623 0.73535 0.0
Co476 Co 0.31401 0.02891 0.95985 0.0
Co477 Co 0.32925 0.03753 0.98515 0.0
C478 C 0.312 0.0565 0.96947 0.0
O479 O 0.30884 0.04747 0.96134 0.0
O480 O 0.31986 0.05414 0.97906 0.0
C481 C 0.29379 0.0229 0.94217 0.0
O482 O 0.2868 0.02898 0.95125 0.0
C483 C 0.35141 0.05155 0.99635 0.0
C484 C 0.35424 0.04231 0.01589 0.0
C485 C 0.35954 0.05153 0.0073 0.0
N486 N 0.34168 0.04278 0.99828 0.0
N487 N 0.34328 0.03741 0.01007 0.0
C488 C 0.35338 0.05921 0.98387 0.0
H489 H 0.35198 0.06988 0.98595 0.0
H490 H 0.34628 0.05605 0.97615 0.0
H491 H 0.36363 0.0579 0.98021 0.0
C492 C 0.34042 0.02159 0.9509 0.0
N493 N 0.3323 0.02702 0.95986 0.0
N494 N 0.33877 0.02929 0.97089 0.0
C495 C 0.35126 0.02482 0.96941 0.0
C496 C 0.35274 0.01986 0.95666 0.0
C497 C 0.33635 0.01842 0.93704 0.0
H498 H 0.33145 0.00862 0.93687 0.0
H499 H 0.32918 0.02589 0.93346 0.0
H500 H 0.34498 0.01824 0.93029 0.0
O501 O 0.30676 0.01842 0.97416 0.0
O502 O 0.31633 0.02467 0.99291 0.0
H503 H 0.35609 0.02269 0.98998 0.0
H504 H 0.36791 0.0154 0.9788 0.0
C505 C 0.36114 0.02388 0.98036 0.0
H506 H 0.36712 0.03303 0.98055 0.0
H507 H 0.33725 0.02997 0.0139 0.0
O508 O 0.30617 0.0217 0.94372 0.0
C509 C 0.30821 0.01741 0.98657 0.0
Co510 Co 0.22058 0.06421 0.20914 0.0
Co511 Co 0.2107 0.07944 0.23404 0.0
C512 C 0.19221 0.06322 0.21717 0.0
O513 O 0.2016 0.06 0.20952 0.0
O514 O 0.19427 0.07072 0.22706 0.0
C515 C 0.22102 0.05889 0.18237 0.0
O516 O 0.21084 0.06692 0.18297 0.0
C517 C 0.1958 0.10111 0.24486 0.0
C518 C 0.20437 0.10427 0.26468 0.0
C519 C 0.19532 0.10936 0.25577 0.0
N520 N 0.20491 0.09175 0.24706 0.0
N521 N 0.20989 0.09354 0.259 0.0
C522 C 0.18768 0.10186 0.2325 0.0
H523 H 0.19425 0.10188 0.22373 0.0
H524 H 0.18115 0.11064 0.23232 0.0
H525 H 0.1814 0.09291 0.23182 0.0
C526 C 0.23101 0.09052 0.20206 0.0
N527 N 0.22388 0.08247 0.20989 0.0
N528 N 0.22008 0.08899 0.22049 0.0
C529 C 0.22469 0.10151 0.21963 0.0
C530 C 0.23168 0.10284 0.20794 0.0
C531 C 0.23718 0.08643 0.18925 0.0
H532 H 0.24225 0.07681 0.19047 0.0
H533 H 0.22935 0.08534 0.18169 0.0
H534 H 0.24437 0.0938 0.18555 0.0
O535 O 0.22983 0.05605 0.2238 0.0
O536 O 0.22276 0.06591 0.24215 0.0
H537 H 0.22484 0.10715 0.24007 0.0
H538 H 0.2311 0.11961 0.22895 0.0
C539 C 0.22357 0.11174 0.23023 0.0
H540 H 0.21369 0.11638 0.22968 0.0
H541 H 0.21737 0.08774 0.26308 0.0
O542 O 0.22737 0.05625 0.19282 0.0
C543 C 0.23005 0.05747 0.23627 0.0
Co544 Co 0.04088 0.18048 0.03022 0.0
Co545 Co 0.01467 0.16598 0.03704 0.0
C546 C 0.03016 0.18177 0.05742 0.0
O547 O 0.03883 0.1849 0.04892 0.0
O548 O 0.02036 0.17447 0.05426 0.0
C549 C 0.05789 0.20087 0.0245 0.0
O550 O 0.04743 0.20737 0.0286 0.0
C551 C 0.00242 0.14341 0.04921 0.0
C552 C 0.9819 0.14362 0.04178 0.0
C553 C 0.99063 0.13655 0.04958 0.0
N554 N 0.00092 0.15394 0.04135 0.0
N555 N 0.98862 0.15409 0.03695 0.0
C556 C 0.0148 0.14032 0.0567 0.0
H557 H 0.01244 0.13894 0.06731 0.0
H558 H 0.02219 0.14832 0.05555 0.0
H559 H 0.01914 0.13095 0.05305 0.0
C560 C 0.04895 0.15405 0.02177 0.0
N561 N 0.04023 0.16228 0.02742 0.0
N562 N 0.02882 0.15627 0.02887 0.0
C563 C 0.02978 0.14405 0.02358 0.0
C564 C 0.04262 0.14219 0.01901 0.0
C565 C 0.06307 0.15764 0.01921 0.0
H566 H 0.06376 0.16286 0.0096 0.0
H567 H 0.06669 0.1644 0.02704 0.0
H568 H 0.06943 0.14873 0.01893 0.0
O569 O 0.02719 0.18875 0.01945 0.0
O570 O 0.00789 0.17963 0.02453 0.0
H571 H 0.009 0.14087 0.02032 0.0
H572 H 0.01971 0.12932 0.01193 0.0
C573 C 0.01826 0.13509 0.02114 0.0
H574 H 0.01732 0.12801 0.02943 0.0
H575 H 0.98484 0.16126 0.03058 0.0
O576 O 0.05755 0.18833 0.02423 0.0
C577 C 0.01477 0.18782 0.01791 0.0
Co578 Co 0.53723 0.31694 0.96371 0.0
Co579 Co 0.51026 0.33038 0.95742 0.0
C580 C 0.52442 0.31355 0.93735 0.0
O581 O 0.53344 0.31112 0.94569 0.0
O582 O 0.51476 0.32106 0.94034 0.0
C583 C 0.56329 0.30964 0.9587 0.0
O584 O 0.56035 0.31498 0.94724 0.0
C585 C 0.49537 0.34973 0.94308 0.0
C586 C 0.47859 0.35459 0.95612 0.0
C587 C 0.48456 0.35797 0.94429 0.0
N588 N 0.49577 0.34171 0.95359 0.0
N589 N 0.48558 0.34447 0.96128 0.0
C590 C 0.50623 0.35069 0.93307 0.0
H591 H 0.51559 0.34671 0.93713 0.0
H592 H 0.50777 0.36109 0.92996 0.0
H593 H 0.50346 0.34483 0.92423 0.0
C594 C 0.54488 0.34406 0.97034 0.0
N595 N 0.53623 0.33532 0.96537 0.0
N596 N 0.52471 0.34107 0.96363 0.0
C597 C 0.52565 0.35375 0.96774 0.0
C598 C 0.53846 0.35602 0.97218 0.0
C599 C 0.559 0.34085 0.97339 0.0
H600 H 0.5594 0.33387 0.98182 0.0
H601 H 0.56354 0.33599 0.96471 0.0
H602 H 0.56486 0.3498 0.97573 0.0
O603 O 0.52492 0.30903 0.97615 0.0
O604 O 0.50512 0.31727 0.97135 0.0
H605 H 0.50555 0.35766 0.973 0.0
H606 H 0.51647 0.37152 0.97538 0.0
C607 C 0.51417 0.36299 0.9689 0.0
H608 H 0.51155 0.36674 0.95895 0.0
H609 H 0.48381 0.33995 0.97038 0.0
O610 O 0.55486 0.31001 0.96795 0.0
C611 C 0.51257 0.30979 0.97823 0.0
Co612 Co 0.93037 0.28564 0.21918 0.0
Co613 Co 0.915 0.26042 0.21059 0.0
C614 C 0.9318 0.27608 0.19141 0.0
O615 O 0.93504 0.28419 0.20043 0.0
O616 O 0.92407 0.26642 0.19386 0.0
C617 C 0.95069 0.30338 0.22448 0.0
O618 O 0.95758 0.29389 0.21891 0.0
C619 C 0.89341 0.24848 0.19628 0.0
C620 C 0.88979 0.22977 0.20687 0.0
C621 C 0.88513 0.23765 0.19672 0.0
N622 N 0.90265 0.24711 0.20567 0.0
N623 N 0.9006 0.23579 0.21185 0.0
C624 C 0.89188 0.2605 0.18783 0.0
H625 H 0.89566 0.25829 0.17779 0.0
H626 H 0.89753 0.26892 0.19198 0.0
H627 H 0.8813 0.26323 0.1869 0.0
C628 C 0.90424 0.29416 0.22783 0.0
N629 N 0.91215 0.28549 0.22168 0.0
N630 N 0.90551 0.27467 0.21888 0.0
C631 C 0.89303 0.27613 0.22341 0.0
C632 C 0.89187 0.2885 0.22925 0.0
C633 C 0.90861 0.30756 0.23232 0.0
H634 H 0.91492 0.31216 0.22464 0.0
H635 H 0.90007 0.31413 0.23432 0.0
H636 H 0.91457 0.30653 0.24145 0.0
O637 O 0.93793 0.27144 0.2295 0.0
O638 O 0.92815 0.25277 0.22332 0.0
H639 H 0.87503 0.26739 0.23088 0.0
H640 H 0.87802 0.26512 0.21352 0.0
C641 C 0.88278 0.26548 0.22338 0.0
H642 H 0.88741 0.25579 0.22541 0.0
H643 H 0.90616 0.2325 0.21987 0.0
O644 O 0.93831 0.30196 0.22586 0.0
C645 C 0.93641 0.25904 0.23048 0.0
Co646 Co 0.95867 0.68099 0.46876 0.0
Co647 Co 0.98386 0.66598 0.45956 0.0
C648 C 0.96798 0.68358 0.44112 0.0
O649 O 0.95982 0.68646 0.45021 0.0
O650 O 0.97768 0.67585 0.44335 0.0
C651 C 0.94135 0.70119 0.4753 0.0
O652 O 0.9506 0.70809 0.46938 0.0
C653 C 0.99545 0.64556 0.44354 0.0
C654 C 0.01409 0.64069 0.45378 0.0
C655 C 0.00617 0.63708 0.44319 0.0
N656 N 0.99695 0.65383 0.45378 0.0
N657 N 0.00819 0.65102 0.45979 0.0
C658 C 0.98315 0.64486 0.43534 0.0
H659 H 0.98478 0.65028 0.42596 0.0
H660 H 0.97474 0.64951 0.4406 0.0
H661 H 0.98066 0.63446 0.43295 0.0
C662 C 0.94983 0.65432 0.47551 0.0
N663 N 0.95874 0.66264 0.47031 0.0
N664 N 0.96965 0.65619 0.46748 0.0
C665 C 0.96812 0.64347 0.47121 0.0
C666 C 0.95549 0.64187 0.47644 0.0
C667 C 0.93607 0.65833 0.47916 0.0
H668 H 0.93618 0.66289 0.48913 0.0
H669 H 0.93234 0.66576 0.47204 0.0
H670 H 0.92929 0.64972 0.47921 0.0
O671 O 0.97312 0.68811 0.47919 0.0
O672 O 0.99174 0.6785 0.47269 0.0
H673 H 0.98852 0.63811 0.47331 0.0
H674 H 0.97707 0.62539 0.47824 0.0
C675 C 0.97893 0.63339 0.47099 0.0
H676 H 0.97952 0.62896 0.46098 0.0
H677 H 0.01156 0.65577 0.4683 0.0
O678 O 0.94263 0.68876 0.47627 0.0
C679 C 0.98552 0.68656 0.4801 0.0
Co680 Co 0.0647 0.21032 0.21847 0.0
Co681 Co 0.08012 0.2355 0.20993 0.0
C682 C 0.06354 0.21973 0.19062 0.0
O683 O 0.06018 0.21169 0.19965 0.0
O684 O 0.07125 0.22941 0.19308 0.0
C685 C 0.04453 0.19225 0.22382 0.0
O686 O 0.03751 0.2011 0.21744 0.0
C687 C 0.10133 0.24813 0.19562 0.0
C688 C 0.10603 0.26556 0.20787 0.0
C689 C 0.11007 0.25854 0.19686 0.0
N690 N 0.09242 0.24895 0.20538 0.0
N691 N 0.09509 0.25955 0.21253 0.0
C692 C 0.10238 0.23666 0.18634 0.0
H693 H 0.09697 0.23906 0.17712 0.0
H694 H 0.09786 0.22772 0.19077 0.0
H695 H 0.11284 0.23464 0.18375 0.0
C696 C 0.09084 0.20171 0.22705 0.0
N697 N 0.08292 0.21048 0.22106 0.0
N698 N 0.08962 0.22122 0.21816 0.0
C699 C 0.10219 0.2196 0.22241 0.0
C700 C 0.10331 0.2072 0.22822 0.0
C701 C 0.08644 0.1883 0.23148 0.0
H702 H 0.08049 0.18931 0.24062 0.0
H703 H 0.08011 0.18376 0.22377 0.0
H704 H 0.09496 0.18169 0.23343 0.0
O705 O 0.05705 0.22449 0.22873 0.0
O706 O 0.06688 0.24312 0.22258 0.0
H707 H 0.10838 0.23969 0.2248 0.0
H708 H 0.12095 0.22768 0.22873 0.0
C709 C 0.11265 0.23003 0.22197 0.0
H710 H 0.11656 0.23076 0.21178 0.0
H711 H 0.08995 0.26221 0.22107 0.0
O712 O 0.05682 0.19411 0.22541 0.0
C713 C 0.05858 0.23689 0.2297 0.0
Co714 Co 0.45482 0.81529 0.52794 0.0
Co715 Co 0.48049 0.83025 0.53591 0.0
C716 C 0.46379 0.81515 0.55582 0.0
O717 O 0.45558 0.81172 0.54697 0.0
O718 O 0.4738 0.82226 0.55295 0.0
C719 C 0.43668 0.79527 0.52342 0.0
O720 O 0.44549 0.78878 0.53038 0.0
C721 C 0.49204 0.85321 0.54827 0.0
C722 C 0.51282 0.85298 0.54163 0.0
C723 C 0.50378 0.86017 0.54895 0.0
N724 N 0.49391 0.84253 0.54066 0.0
N725 N 0.50637 0.84238 0.53674 0.0
C726 C 0.47937 0.85626 0.55528 0.0
H727 H 0.47434 0.86467 0.55041 0.0
H728 H 0.48143 0.85916 0.56565 0.0
H729 H 0.47261 0.84766 0.55506 0.0
C730 C 0.44748 0.84113 0.51745 0.0
N731 N 0.45571 0.83333 0.52431 0.0
N732 N 0.46687 0.83959 0.52655 0.0
C733 C 0.4662 0.85159 0.52073 0.0
C734 C 0.45387 0.85295 0.51485 0.0
C735 C 0.43383 0.83716 0.51338 0.0
H736 H 0.43443 0.83094 0.50438 0.0
H737 H 0.42916 0.83125 0.52133 0.0
H738 H 0.42758 0.84591 0.51128 0.0
O739 O 0.46914 0.80654 0.51853 0.0
O740 O 0.48802 0.8162 0.52427 0.0
H741 H 0.47676 0.86652 0.50981 0.0
H742 H 0.47775 0.86799 0.52741 0.0
C743 C 0.47765 0.86083 0.51914 0.0
H744 H 0.48708 0.85529 0.51907 0.0
H745 H 0.51043 0.83512 0.53065 0.0
O746 O 0.43853 0.80743 0.52102 0.0
C747 C 0.48161 0.8076 0.51767 0.0
Co748 Co 0.92805 0.70932 0.28335 0.0
Co749 Co 0.91414 0.73611 0.28922 0.0
C750 C 0.93079 0.72256 0.30969 0.0
O751 O 0.93354 0.71357 0.3014 0.0
O752 O 0.92307 0.73203 0.30663 0.0
C753 C 0.935 0.68312 0.28864 0.0
O754 O 0.92914 0.68591 0.29987 0.0
C755 C 0.89419 0.75193 0.30207 0.0
C756 C 0.88938 0.76705 0.28712 0.0
C757 C 0.88557 0.76219 0.29932 0.0
N758 N 0.90271 0.75077 0.292 0.0
N759 N 0.90003 0.76006 0.28322 0.0
C760 C 0.89303 0.74203 0.313 0.0
H761 H 0.89864 0.74567 0.32169 0.0
H762 H 0.89724 0.73239 0.30992 0.0
H763 H 0.88258 0.74064 0.316 0.0
C764 C 0.90107 0.70091 0.27715 0.0
N765 N 0.90972 0.71 0.28148 0.0
N766 N 0.90364 0.72136 0.28323 0.0
C767 C 0.8908 0.71981 0.27983 0.0
C768 C 0.88881 0.70679 0.27604 0.0
C769 C 0.90472 0.68716 0.27314 0.0
H770 H 0.91353 0.68743 0.26665 0.0
H771 H 0.90723 0.68136 0.28208 0.0
H772 H 0.89654 0.68214 0.26785 0.0
O773 O 0.936 0.72133 0.27079 0.0
O774 O 0.92761 0.74107 0.27545 0.0
H775 H 0.88476 0.7395 0.27503 0.0
H776 H 0.87159 0.72746 0.27444 0.0
C777 C 0.88065 0.73054 0.27978 0.0
H778 H 0.8779 0.73296 0.29008 0.0
H779 H 0.90484 0.761 0.27416 0.0
O780 O 0.93522 0.69173 0.27956 0.0
C781 C 0.93521 0.73365 0.26867 0.0
Co782 Co 0.56773 0.28925 0.77928 0.0
Co783 Co 0.58208 0.26304 0.78681 0.0
C784 C 0.5654 0.27768 0.80645 0.0
O785 O 0.56258 0.28614 0.79765 0.0
O786 O 0.57317 0.26811 0.80393 0.0
C787 C 0.5608 0.31544 0.78342 0.0
O788 O 0.56738 0.3131 0.79435 0.0
C789 C 0.60274 0.24923 0.80066 0.0
C790 C 0.60724 0.23224 0.78776 0.0
C791 C 0.61132 0.23873 0.79909 0.0
N792 N 0.59392 0.24897 0.79079 0.0
N793 N 0.59644 0.23861 0.78324 0.0
C794 C 0.60397 0.26036 0.81033 0.0
H795 H 0.59835 0.25781 0.81939 0.0
H796 H 0.59977 0.26956 0.80613 0.0
H797 H 0.61444 0.26202 0.81314 0.0
C798 C 0.59417 0.29688 0.77058 0.0
N799 N 0.586 0.28855 0.77688 0.0
N800 N 0.59219 0.2774 0.77941 0.0
C801 C 0.60464 0.27834 0.77467 0.0
C802 C 0.60624 0.29068 0.76889 0.0
C803 C 0.59022 0.31031 0.76582 0.0
H804 H 0.58209 0.30934 0.75853 0.0
H805 H 0.58651 0.31617 0.77428 0.0
H806 H 0.59858 0.31575 0.76131 0.0
O807 O 0.55971 0.27618 0.76783 0.0
O808 O 0.56854 0.2569 0.77361 0.0
H809 H 0.60932 0.25812 0.77064 0.0
H810 H 0.62274 0.2694 0.76755 0.0
C811 C 0.61431 0.26718 0.77419 0.0
H812 H 0.6182 0.26536 0.78425 0.0
H813 H 0.59135 0.2364 0.77455 0.0
O814 O 0.56022 0.30653 0.77463 0.0
C815 C 0.56068 0.26374 0.76651 0.0
Co816 Co 0.53156 0.54141 0.68242 0.0
Co817 Co 0.53862 0.51581 0.66688 0.0
C818 C 0.55887 0.53097 0.68317 0.0
O819 O 0.55036 0.53952 0.6866 0.0
O820 O 0.55571 0.52138 0.67562 0.0
C821 C 0.52501 0.55789 0.70332 0.0
O822 O 0.52895 0.54741 0.70987 0.0
C823 C 0.55094 0.50522 0.64358 0.0
C824 C 0.54344 0.4848 0.6421 0.0
C825 C 0.55121 0.49408 0.63574 0.0
N826 N 0.54327 0.50282 0.65409 0.0
N827 N 0.53889 0.49053 0.65327 0.0
C828 C 0.5578 0.51807 0.64102 0.0
H829 H 0.56848 0.51624 0.63934 0.0
H830 H 0.5565 0.52498 0.64942 0.0
H831 H 0.5538 0.52267 0.63192 0.0
C832 C 0.52188 0.54999 0.65667 0.0
N833 N 0.52845 0.54135 0.66429 0.0
N834 N 0.53014 0.5302 0.65783 0.0
C835 C 0.52428 0.53132 0.6459 0.0
C836 C 0.51895 0.54391 0.64476 0.0
C837 C 0.51811 0.56361 0.66102 0.0
H838 H 0.52613 0.56792 0.66713 0.0
H839 H 0.5162 0.57013 0.65244 0.0
H840 H 0.50906 0.56303 0.66717 0.0
O841 O 0.52108 0.52723 0.69008 0.0
O842 O 0.52609 0.50828 0.68016 0.0
H843 H 0.51252 0.52138 0.63116 0.0
H844 H 0.53003 0.51974 0.62925 0.0
C845 C 0.52195 0.52006 0.6366 0.0
H846 H 0.52164 0.51057 0.64204 0.0
H847 H 0.53252 0.48619 0.66011 0.0
O848 O 0.52525 0.55771 0.69078 0.0
C849 C 0.51949 0.51488 0.68861 0.0
Co850 Co 0.71057 0.27787 0.93094 0.0
Co851 Co 0.7365 0.28589 0.91657 0.0
C852 C 0.72102 0.30513 0.93365 0.0
O853 O 0.71245 0.29638 0.93635 0.0
O854 O 0.73083 0.3025 0.92618 0.0
C855 C 0.69215 0.27261 0.95057 0.0
O856 O 0.70132 0.27837 0.95774 0.0
C857 C 0.74991 0.3015 0.89698 0.0
C858 C 0.76732 0.28954 0.89154 0.0
C859 C 0.76062 0.30107 0.88853 0.0
N860 N 0.75027 0.29082 0.90478 0.0
N861 N 0.76082 0.28378 0.90166 0.0
C862 C 0.73858 0.311 0.89654 0.0
H863 H 0.72947 0.3063 0.90041 0.0
H864 H 0.73681 0.31451 0.8863 0.0
H865 H 0.74098 0.31968 0.90278 0.0
C866 C 0.70211 0.27133 0.90411 0.0
N867 N 0.71103 0.27623 0.9126 0.0
N868 N 0.72216 0.27866 0.90638 0.0
C869 C 0.72073 0.27502 0.89361 0.0
C870 C 0.70796 0.27021 0.89177 0.0
C871 C 0.68816 0.26812 0.90785 0.0
H872 H 0.68791 0.25828 0.91267 0.0
H873 H 0.68444 0.27552 0.91501 0.0
H874 H 0.68158 0.26801 0.89909 0.0
O875 O 0.72425 0.26678 0.93851 0.0
O876 O 0.74336 0.27246 0.92937 0.0
H877 H 0.74096 0.27165 0.88844 0.0
H878 H 0.72947 0.26842 0.87524 0.0
C879 C 0.73169 0.27501 0.8837 0.0
H880 H 0.73319 0.2852 0.87997 0.0
H881 H 0.76322 0.27473 0.90598 0.0
O882 O 0.69396 0.27124 0.93824 0.0
C883 C 0.73663 0.26534 0.93728 0.0
Co884 Co 0.96553 0.4575 0.17627 0.0
Co885 Co 0.95808 0.48425 0.16296 0.0
C886 C 0.93831 0.46889 0.17889 0.0
O887 O 0.94703 0.46023 0.18136 0.0
O888 O 0.941 0.47885 0.17168 0.0
C889 C 0.96183 0.43083 0.18159 0.0
O890 O 0.95101 0.43322 0.17483 0.0
C891 C 0.94413 0.49917 0.14315 0.0
C892 C 0.95764 0.51569 0.13868 0.0
C893 C 0.94596 0.50976 0.13471 0.0
N894 N 0.9542 0.49883 0.15174 0.0
N895 N 0.9621 0.50893 0.14926 0.0
C896 C 0.93412 0.48835 0.1418 0.0
H897 H 0.9254 0.49081 0.14796 0.0
H898 H 0.93827 0.47885 0.14536 0.0
H899 H 0.93081 0.48724 0.13141 0.0
C900 C 0.97413 0.45086 0.1495 0.0
N901 N 0.96803 0.45895 0.15806 0.0
N902 N 0.96529 0.47025 0.15223 0.0
C903 C 0.96958 0.46958 0.13959 0.0
C904 C 0.97526 0.45729 0.13753 0.0
C905 C 0.97957 0.43757 0.15301 0.0
H906 H 0.98586 0.43842 0.16195 0.0
H907 H 0.97128 0.4308 0.15531 0.0
H908 H 0.98543 0.43323 0.14483 0.0
O909 O 0.97689 0.47021 0.18495 0.0
O910 O 0.97133 0.48981 0.17671 0.0
H911 H 0.97353 0.48976 0.13473 0.0
H912 H 0.97532 0.47848 0.12102 0.0
C913 C 0.96944 0.48079 0.12998 0.0
H914 H 0.95913 0.4828 0.12693 0.0
H915 H 0.97101 0.51065 0.15416 0.0
O916 O 0.97028 0.43997 0.18298 0.0
C917 C 0.97831 0.48266 0.18441 0.0
Co918 Co 0.78931 0.71463 0.42821 0.0
Co919 Co 0.76269 0.70849 0.41395 0.0
C920 C 0.77666 0.68807 0.43053 0.0
O921 O 0.78558 0.6964 0.43336 0.0
O922 O 0.76714 0.69117 0.42289 0.0
C923 C 0.81513 0.70997 0.43676 0.0
O924 O 0.81263 0.69843 0.43136 0.0
C925 C 0.74899 0.69542 0.39274 0.0
C926 C 0.7317 0.70812 0.38892 0.0
C927 C 0.73839 0.69711 0.38432 0.0
N928 N 0.74861 0.70488 0.40199 0.0
N929 N 0.73808 0.71232 0.39986 0.0
C930 C 0.76025 0.686 0.39098 0.0
H931 H 0.75716 0.67607 0.39446 0.0
H932 H 0.76899 0.68923 0.39674 0.0
H933 H 0.76293 0.68515 0.38038 0.0
C934 C 0.79754 0.72225 0.40155 0.0
N935 N 0.78875 0.71687 0.40991 0.0
N936 N 0.77732 0.71539 0.4039 0.0
C937 C 0.77843 0.7202 0.39149 0.0
C938 C 0.79128 0.7247 0.38961 0.0
C939 C 0.81161 0.72506 0.40513 0.0
H940 H 0.81199 0.73369 0.41188 0.0
H941 H 0.81582 0.71644 0.41037 0.0
H942 H 0.81776 0.72703 0.39629 0.0
O943 O 0.77655 0.72658 0.43618 0.0
O944 O 0.75696 0.72186 0.4274 0.0
H945 H 0.75813 0.725 0.38782 0.0
H946 H 0.76918 0.72979 0.37476 0.0
C947 C 0.76706 0.72207 0.38223 0.0
H948 H 0.76507 0.71265 0.37703 0.0
H949 H 0.73573 0.72072 0.40534 0.0
O950 O 0.80659 0.7191 0.43588 0.0
C951 C 0.76419 0.72856 0.43527 0.0
Co952 Co 0.52636 0.45965 0.81492 0.0
Co953 Co 0.53683 0.48449 0.82977 0.0
C954 C 0.55428 0.46836 0.81161 0.0
O955 O 0.54485 0.4605 0.80899 0.0
O956 O 0.55262 0.47807 0.81947 0.0
C957 C 0.5193 0.44207 0.79507 0.0
O958 O 0.52476 0.45139 0.78787 0.0
C959 C 0.55365 0.49627 0.8495 0.0
C960 C 0.54314 0.51456 0.85509 0.0
C961 C 0.55407 0.50689 0.85815 0.0
N962 N 0.54303 0.4976 0.84171 0.0
N963 N 0.53687 0.50866 0.84492 0.0
C964 C 0.56211 0.48413 0.84973 0.0
H965 H 0.55681 0.47565 0.84525 0.0
H966 H 0.56501 0.48159 0.85999 0.0
H967 H 0.57121 0.48599 0.84391 0.0
C968 C 0.52003 0.45098 0.84169 0.0
N969 N 0.52524 0.45979 0.83328 0.0
N970 N 0.52901 0.47039 0.8398 0.0
C971 C 0.52611 0.46863 0.85272 0.0
C972 C 0.52039 0.45628 0.85425 0.0
C973 C 0.51451 0.43788 0.83764 0.0
H974 H 0.50573 0.43948 0.83128 0.0
H975 H 0.52197 0.43246 0.83171 0.0
H976 H 0.51162 0.43183 0.8463 0.0
O977 O 0.51603 0.4742 0.80801 0.0
O978 O 0.52347 0.49252 0.81753 0.0
H979 H 0.52537 0.48859 0.85976 0.0
H980 H 0.52238 0.47622 0.87231 0.0
C981 C 0.52822 0.47866 0.86336 0.0
H982 H 0.53882 0.47883 0.86611 0.0
H983 H 0.52807 0.51184 0.8406 0.0
O984 O 0.5187 0.4435 0.80751 0.0
C985 C 0.51561 0.48662 0.80965 0.0
Co986 Co 0.78673 0.27971 0.06488 0.0
Co987 Co 0.76114 0.28764 0.07987 0.0
C988 C 0.77677 0.30707 0.06294 0.0
O989 O 0.78521 0.29832 0.05987 0.0
O990 O 0.76707 0.30433 0.07051 0.0
C991 C 0.80472 0.27394 0.04485 0.0
O992 O 0.79557 0.27976 0.03772 0.0
C993 C 0.75036 0.30093 0.10261 0.0
C994 C 0.72989 0.29352 0.10401 0.0
C995 C 0.7391 0.30144 0.11033 0.0
N996 N 0.74808 0.29286 0.09235 0.0
N997 N 0.73579 0.28853 0.09314 0.0
C998 C 0.76304 0.30827 0.10474 0.0
H999 H 0.76875 0.30895 0.09543 0.0
H1000 H 0.7692 0.303 0.11209 0.0
H1001 H 0.76101 0.31832 0.10863 0.0
C1002 C 0.7954 0.27206 0.09131 0.0
N1003 N 0.78654 0.27761 0.08316 0.0
N1004 N 0.77534 0.27946 0.08944 0.0
C1005 C 0.77655 0.2745 0.10177 0.0
C1006 C 0.78936 0.26977 0.1034 0.0
C1007 C 0.80937 0.26915 0.08745 0.0
H1008 H 0.80976 0.25941 0.08243 0.0
H1009 H 0.81299 0.27676 0.08046 0.0
H1010 H 0.81595 0.26892 0.09622 0.0
O1011 O 0.77254 0.26908 0.05741 0.0
O1012 O 0.75359 0.27473 0.06696 0.0
H1013 H 0.75581 0.27172 0.1056 0.0
H1014 H 0.76671 0.26324 0.1169 0.0
C1015 C 0.76526 0.27242 0.11109 0.0
H1016 H 0.76472 0.28077 0.11814 0.0
H1017 H 0.73152 0.28194 0.08644 0.0
O1018 O 0.80305 0.27275 0.05721 0.0
C1019 C 0.76015 0.26772 0.0588 0.0
Co1020 Co 0.96706 0.53491 0.31376 0.0
Co1021 Co 0.95803 0.5098 0.32905 0.0
C1022 C 0.93917 0.52553 0.31207 0.0
O1023 O 0.94829 0.53358 0.30895 0.0
O1024 O 0.94145 0.51584 0.3198 0.0
C1025 C 0.97203 0.55345 0.29393 0.0
O1026 O 0.96573 0.54462 0.2868 0.0
C1027 C 0.94294 0.49717 0.3497 0.0
C1028 C 0.95534 0.48013 0.35533 0.0
C1029 C 0.94399 0.48698 0.35872 0.0
N1030 N 0.95314 0.4964 0.34129 0.0
N1031 N 0.96038 0.48601 0.34449 0.0
C1032 C 0.93349 0.50853 0.35015 0.0
H1033 H 0.92479 0.50614 0.34393 0.0
H1034 H 0.9382 0.51758 0.34615 0.0
H1035 H 0.93001 0.5104 0.36038 0.0
C1036 C 0.97534 0.5434 0.34004 0.0
N1037 N 0.96936 0.5347 0.33202 0.0
N1038 N 0.96608 0.52406 0.33872 0.0
C1039 C 0.96996 0.52574 0.3514 0.0
C1040 C 0.97599 0.53801 0.35257 0.0
C1041 C 0.98037 0.5566 0.33566 0.0
H1042 H 0.9892 0.55515 0.32933 0.0
H1043 H 0.97271 0.56163 0.32966 0.0
H1044 H 0.98303 0.56298 0.34416 0.0
O1045 O 0.97735 0.52072 0.30613 0.0
O1046 O 0.97086 0.50219 0.31595 0.0
H1047 H 0.97225 0.50582 0.35811 0.0
H1048 H 0.97495 0.51812 0.37074 0.0
C1049 C 0.96891 0.51549 0.36198 0.0
H1050 H 0.95846 0.51458 0.3651 0.0
H1051 H 0.96921 0.48346 0.33983 0.0
O1052 O 0.97389 0.55129 0.30614 0.0
C1053 C 0.97813 0.50831 0.30768 0.0
Co1054 Co 0.70943 0.71823 0.5634 0.0
Co1055 Co 0.73446 0.70961 0.57899 0.0
C1056 C 0.71876 0.69063 0.56159 0.0
O1057 O 0.7106 0.69961 0.55842 0.0
O1058 O 0.72836 0.69308 0.5694 0.0
C1059 C 0.69216 0.72416 0.54288 0.0
O1060 O 0.70141 0.71802 0.53617 0.0
C1061 C 0.74432 0.69601 0.60199 0.0
C1062 C 0.76503 0.70263 0.60376 0.0
C1063 C 0.75543 0.69504 0.60988 0.0
N1064 N 0.74706 0.70404 0.59182 0.0
N1065 N 0.75949 0.70792 0.59285 0.0
C1066 C 0.73138 0.68905 0.6038 0.0
H1067 H 0.73308 0.67873 0.60707 0.0
H1068 H 0.72559 0.68912 0.59452 0.0
H1069 H 0.72549 0.69409 0.61152 0.0
C1070 C 0.70028 0.7259 0.58967 0.0
N1071 N 0.70925 0.72029 0.58168 0.0
N1072 N 0.72026 0.71819 0.58821 0.0
C1073 C 0.71885 0.72309 0.60055 0.0
C1074 C 0.70608 0.72802 0.60193 0.0
C1075 C 0.6864 0.72887 0.58552 0.0
H1076 H 0.6861 0.73871 0.58072 0.0
H1077 H 0.68297 0.7214 0.57827 0.0
H1078 H 0.67961 0.72886 0.59412 0.0
O1079 O 0.72411 0.72839 0.55619 0.0
O1080 O 0.74265 0.72221 0.5662 0.0
H1081 H 0.73955 0.72545 0.60485 0.0
H1082 H 0.72858 0.73404 0.616 0.0
C1083 C 0.72998 0.72488 0.61013 0.0
H1084 H 0.73024 0.71646 0.61709 0.0
H1085 H 0.76411 0.71435 0.58624 0.0
O1086 O 0.69347 0.72555 0.55528 0.0
C1087 C 0.73651 0.72934 0.55783 0.0
Co1088 Co 0.68143 0.53276 0.53392 0.0
Co1089 Co 0.66655 0.53881 0.5076 0.0
C1090 C 0.68379 0.55913 0.52056 0.0
O1091 O 0.68693 0.55072 0.52929 0.0
O1092 O 0.6756 0.55622 0.51145 0.0
C1093 C 0.69185 0.5383 0.55892 0.0
O1094 O 0.68793 0.55022 0.55563 0.0
C1095 C 0.64562 0.55161 0.49306 0.0
C1096 C 0.64102 0.53738 0.47717 0.0
C1097 C 0.6369 0.54915 0.48283 0.0
N1098 N 0.65452 0.54181 0.49346 0.0
N1099 N 0.65193 0.53347 0.48374 0.0
C1100 C 0.64435 0.56201 0.50351 0.0
H1101 H 0.64889 0.57129 0.49986 0.0
H1102 H 0.64951 0.55894 0.51267 0.0
H1103 H 0.63381 0.56402 0.50573 0.0
C1104 C 0.6548 0.52638 0.54313 0.0
N1105 N 0.66307 0.53106 0.53389 0.0
N1106 N 0.65668 0.53266 0.52268 0.0
C1107 C 0.64403 0.52873 0.52445 0.0
C1108 C 0.64246 0.52462 0.53746 0.0
C1109 C 0.65879 0.52368 0.55711 0.0
H1110 H 0.66492 0.5146 0.55742 0.0
H1111 H 0.66483 0.53199 0.56087 0.0
H1112 H 0.6501 0.52244 0.56366 0.0
O1113 O 0.68862 0.52007 0.52151 0.0
O1114 O 0.67967 0.52496 0.50205 0.0
H1115 H 0.63882 0.52359 0.50458 0.0
H1116 H 0.62589 0.52072 0.51643 0.0
C1117 C 0.63405 0.52747 0.51362 0.0
H1118 H 0.62981 0.53732 0.51144 0.0
H1119 H 0.65706 0.52467 0.48215 0.0
O1120 O 0.68933 0.5287 0.55126 0.0
C1121 C 0.68735 0.51799 0.50921 0.0
Co1122 Co 0.7116 0.43019 0.78709 0.0
Co1123 Co 0.70682 0.41476 0.76087 0.0
C1124 C 0.68563 0.4317 0.77326 0.0
O1125 O 0.69357 0.43514 0.78233 0.0
O1126 O 0.68921 0.42362 0.76427 0.0
C1127 C 0.70594 0.43894 0.81272 0.0
O1128 O 0.6945 0.43348 0.80996 0.0
C1129 C 0.69511 0.39252 0.74744 0.0
C1130 C 0.70697 0.39031 0.72928 0.0
C1131 C 0.69678 0.38465 0.73642 0.0
N1132 N 0.70395 0.40236 0.74699 0.0
N1133 N 0.71093 0.40112 0.73602 0.0
C1134 C 0.68536 0.39061 0.7584 0.0
H1135 H 0.68747 0.3974 0.76674 0.0
H1136 H 0.68555 0.38026 0.76197 0.0
H1137 H 0.67528 0.39259 0.75459 0.0
C1138 C 0.71824 0.40385 0.797 0.0
N1139 N 0.71379 0.41188 0.78743 0.0
N1140 N 0.71297 0.40532 0.77623 0.0
C1141 C 0.71735 0.39288 0.77833 0.0
C1142 C 0.72056 0.39154 0.79158 0.0
C1143 C 0.7214 0.40823 0.81077 0.0
H1144 H 0.72816 0.41684 0.8104 0.0
H1145 H 0.71217 0.41137 0.81575 0.0
H1146 H 0.7261 0.40026 0.81663 0.0
O1147 O 0.72433 0.43749 0.77477 0.0
O1148 O 0.72057 0.42795 0.75532 0.0
H1149 H 0.72192 0.38726 0.75838 0.0
H1150 H 0.72683 0.37535 0.77074 0.0
C1151 C 0.71914 0.38261 0.76788 0.0
H1152 H 0.70973 0.37718 0.76663 0.0
H1153 H 0.71868 0.40738 0.73335 0.0
O1154 O 0.71521 0.43829 0.80433 0.0
C1155 C 0.72699 0.436 0.7626 0.0
Co1156 Co 0.81551 0.467 0.03619 0.0
Co1157 Co 0.83002 0.45897 0.01033 0.0
C1158 C 0.81311 0.43966 0.02594 0.0
O1159 O 0.81028 0.44845 0.03443 0.0
O1160 O 0.8206 0.44228 0.01614 0.0
C1161 C 0.79566 0.47257 0.05428 0.0
O1162 O 0.78859 0.46671 0.0451 0.0
C1163 C 0.85019 0.44365 0.99754 0.0
C1164 C 0.85537 0.45521 0.97979 0.0
C1165 C 0.85876 0.44404 0.98692 0.0
N1166 N 0.84199 0.454 0.99673 0.0
N1167 N 0.84495 0.46079 0.98597 0.0
C1168 C 0.85092 0.43465 0.00926 0.0
H1169 H 0.84637 0.43936 0.01804 0.0
H1170 H 0.86132 0.43203 0.01152 0.0
H1171 H 0.84546 0.42542 0.00701 0.0
C1172 C 0.84218 0.47409 0.0446 0.0
N1173 N 0.83381 0.46887 0.03575 0.0
N1174 N 0.84005 0.46653 0.02461 0.0
C1175 C 0.85271 0.47059 0.02596 0.0
C1176 C 0.85446 0.47554 0.03868 0.0
C1177 C 0.83837 0.47737 0.05851 0.0
H1178 H 0.83338 0.48712 0.05867 0.0
H1179 H 0.83135 0.46987 0.06231 0.0
H1180 H 0.84713 0.47771 0.06509 0.0
O1181 O 0.80791 0.47786 0.02236 0.0
O1182 O 0.81708 0.47218 0.00326 0.0
H1183 H 0.85756 0.47389 0.00562 0.0
H1184 H 0.87064 0.47801 0.01698 0.0
C1185 C 0.86252 0.47094 0.01491 0.0
H1186 H 0.8668 0.46095 0.01357 0.0
H1187 H 0.84033 0.46959 0.98323 0.0
O1188 O 0.80803 0.47382 0.05266 0.0
C1189 C 0.80911 0.47925 0.00997 0.0
Co1190 Co 0.78105 0.56653 0.28635 0.0
Co1191 Co 0.78767 0.58057 0.25974 0.0
C1192 C 0.80766 0.56366 0.27383 0.0
O1193 O 0.79918 0.56092 0.28263 0.0
O1194 O 0.80482 0.5714 0.26433 0.0
C1195 C 0.78573 0.55832 0.31227 0.0
O1196 O 0.79743 0.56317 0.30945 0.0
C1197 C 0.80189 0.60042 0.24535 0.0
C1198 C 0.78881 0.60552 0.22867 0.0
C1199 C 0.80057 0.60894 0.23477 0.0
N1200 N 0.79151 0.59223 0.2455 0.0
N1201 N 0.78381 0.59512 0.23535 0.0
C1202 C 0.81187 0.60127 0.25626 0.0
H1203 H 0.80778 0.59715 0.26554 0.0
H1204 H 0.81498 0.61165 0.25795 0.0
H1205 H 0.82072 0.59545 0.25344 0.0
C1206 C 0.77434 0.5935 0.29453 0.0
N1207 N 0.77926 0.58491 0.28569 0.0
N1208 N 0.78114 0.59092 0.27432 0.0
C1209 C 0.77715 0.60361 0.27555 0.0
C1210 C 0.77268 0.60563 0.28839 0.0
C1211 C 0.77138 0.59001 0.30859 0.0
H1212 H 0.76274 0.58328 0.30892 0.0
H1213 H 0.77995 0.58477 0.3129 0.0
H1214 H 0.76938 0.59887 0.31471 0.0
O1215 O 0.7689 0.5587 0.2737 0.0
O1216 O 0.77403 0.5673 0.25414 0.0
H1217 H 0.77235 0.60809 0.25544 0.0
H1218 H 0.76965 0.62159 0.26671 0.0
C1219 C 0.77623 0.61317 0.26432 0.0
H1220 H 0.78622 0.61706 0.26207 0.0
H1221 H 0.77478 0.59051 0.23344 0.0
O1222 O 0.77652 0.55927 0.30381 0.0
C1223 C 0.76709 0.5596 0.26131 0.0
Co1224 Co 0.68234 0.46485 0.96178 0.0
Co1225 Co 0.66636 0.45639 0.98664 0.0
C1226 C 0.6836 0.43711 0.97171 0.0
O1227 O 0.68705 0.44614 0.96369 0.0
O1228 O 0.67555 0.43952 0.98112 0.0
C1229 C 0.70253 0.46909 0.94325 0.0
O1230 O 0.70938 0.46211 0.95177 0.0
C1231 C 0.64485 0.44239 -0.00074 0.0
C1232 C 0.63963 0.45547 0.01592 0.0
C1233 C 0.63572 0.44418 0.00926 0.0
N1234 N 0.65379 0.45215 -6e-05 0.0
N1235 N 0.65082 0.45977 0.01012 0.0
C1236 C 0.64401 0.43275 0.98807 0.0
H1237 H 0.64879 0.42337 0.99111 0.0
H1238 H 0.64924 0.43662 0.97925 0.0
H1239 H 0.63357 0.43059 0.98552 0.0
C1240 C 0.65639 0.47315 0.95244 0.0
N1241 N 0.6641 0.4672 0.96143 0.0
N1242 N 0.6571 0.46424 0.97198 0.0
C1243 C 0.64455 0.46836 0.96995 0.0
C1244 C 0.64377 0.47416 0.95754 0.0
C1245 C 0.66119 0.47796 0.93931 0.0
H1246 H 0.66753 0.48677 0.94081 0.0
H1247 H 0.66726 0.47018 0.93455 0.0
H1248 H 0.65288 0.48057 0.93266 0.0
O1249 O 0.68952 0.47553 0.97588 0.0
O1250 O 0.6793 0.46938 0.9943 0.0
H1251 H 0.63762 0.4712 0.98974 0.0
H1252 H 0.62533 0.47428 0.9772 0.0
C1253 C 0.63377 0.4679 0.98005 0.0
H1254 H 0.63016 0.45761 0.98101 0.0
H1255 H 0.6559 0.46841 0.01255 0.0
O1256 O 0.69044 0.47147 0.94553 0.0
C1257 C 0.68764 0.47659 0.98822 0.0
Co1258 Co 0.77989 0.43058 0.20855 0.0
Co1259 Co 0.78743 0.41556 0.23436 0.0
C1260 C 0.80719 0.43225 0.21966 0.0
O1261 O 0.79835 0.43548 0.21141 0.0
O1262 O 0.80459 0.42433 0.22907 0.0
C1263 C 0.78387 0.43777 0.18254 0.0
O1264 O 0.79473 0.43106 0.1849 0.0
C1265 C 0.79994 0.39274 0.24575 0.0
C1266 C 0.79202 0.39162 0.26603 0.0
C1267 C 0.80008 0.38512 0.25708 0.0
N1268 N 0.79196 0.40312 0.24772 0.0
N1269 N 0.78731 0.4025 0.25991 0.0
C1270 C 0.80757 0.39037 0.23328 0.0
H1271 H 0.80795 0.39942 0.22715 0.0
H1272 H 0.80276 0.3825 0.22739 0.0
H1273 H 0.81773 0.38704 0.23566 0.0
C1274 C 0.77082 0.40436 0.20039 0.0
N1275 N 0.77726 0.4123 0.20887 0.0
N1276 N 0.77931 0.40601 0.22005 0.0
C1277 C 0.77384 0.39385 0.21911 0.0
C1278 C 0.76842 0.39242 0.2066 0.0
C1279 C 0.76662 0.40841 0.1868 0.0
H1280 H 0.75946 0.41668 0.18752 0.0
H1281 H 0.77535 0.41195 0.18124 0.0
H1282 H 0.76212 0.40014 0.18121 0.0
O1283 O 0.76874 0.43839 0.22212 0.0
O1284 O 0.77459 0.42906 0.24119 0.0
H1285 H 0.76263 0.37871 0.22906 0.0
H1286 H 0.78015 0.37762 0.23105 0.0
C1287 C 0.77177 0.38461 0.23046 0.0
H1288 H 0.77102 0.39017 0.23986 0.0
H1289 H 0.78073 0.40933 0.26396 0.0
O1290 O 0.77508 0.43842 0.19145 0.0
C1291 C 0.76753 0.43715 0.23456 0.0
Co1292 Co 0.81267 0.52927 0.46012 0.0
Co1293 Co 0.82837 0.53709 0.48537 0.0
C1294 C 0.81078 0.55652 0.47101 0.0
O1295 O 0.80749 0.54769 0.46272 0.0
O1296 O 0.81892 0.55399 0.4803 0.0
C1297 C 0.79232 0.52561 0.44194 0.0
O1298 O 0.78581 0.53224 0.45099 0.0
C1299 C 0.84984 0.55107 0.498 0.0
C1300 C 0.85459 0.53858 0.51522 0.0
C1301 C 0.85866 0.54965 0.50831 0.0
N1302 N 0.84086 0.54137 0.49876 0.0
N1303 N 0.84357 0.53406 0.50924 0.0
C1304 C 0.85088 0.56051 0.48667 0.0
H1305 H 0.84664 0.57016 0.48969 0.0
H1306 H 0.84533 0.55678 0.47799 0.0
H1307 H 0.86137 0.56214 0.48395 0.0
C1308 C 0.83899 0.5227 0.45028 0.0
N1309 N 0.831 0.5276 0.45965 0.0
N1310 N 0.83777 0.52978 0.47052 0.0
C1311 C 0.85037 0.52587 0.46848 0.0
C1312 C 0.85156 0.52126 0.45556 0.0
C1313 C 0.83456 0.51975 0.43647 0.0
H1314 H 0.82961 0.50997 0.43628 0.0
H1315 H 0.82732 0.5273 0.43321 0.0
H1316 H 0.843 0.51967 0.42949 0.0
O1317 O 0.80578 0.51791 0.4739 0.0
O1318 O 0.81564 0.52376 0.49262 0.0
H1319 H 0.85617 0.52247 0.48857 0.0
H1320 H 0.86848 0.51791 0.47656 0.0
C1321 C 0.86072 0.52524 0.47902 0.0
H1322 H 0.86542 0.53508 0.48006 0.0
H1323 H 0.83838 0.52554 0.51184 0.0
O1324 O 0.80448 0.52308 0.44371 0.0
C1325 C 0.80754 0.51653 0.48623 0.0
Co1326 Co 0.72048 0.56136 0.71244 0.0
Co1327 Co 0.71186 0.57801 0.73686 0.0
C1328 C 0.6925 0.56082 0.72247 0.0
O1329 O 0.70158 0.55714 0.71464 0.0
O1330 O 0.69493 0.56895 0.73177 0.0
C1331 C 0.71871 0.55602 0.68586 0.0
O1332 O 0.70911 0.56464 0.68728 0.0
C1333 C 0.69686 0.59803 0.75089 0.0
C1334 C 0.71116 0.60562 0.76553 0.0
C1335 C 0.69856 0.60754 0.76058 0.0
N1336 N 0.7079 0.59074 0.75018 0.0
N1337 N 0.71633 0.59514 0.75914 0.0
C1338 C 0.68577 0.59715 0.74113 0.0
H1339 H 0.67829 0.59009 0.74489 0.0
H1340 H 0.68945 0.59354 0.73147 0.0
H1341 H 0.68093 0.60688 0.7397 0.0
C1342 C 0.72937 0.58741 0.70288 0.0
N1343 N 0.72344 0.57969 0.71191 0.0
N1344 N 0.71946 0.587 0.72191 0.0
C1345 C 0.7224 0.59977 0.71926 0.0
C1346 C 0.72869 0.6004 0.70707 0.0
C1347 C 0.73675 0.58238 0.69108 0.0
H1348 H 0.74104 0.57254 0.69317 0.0
H1349 H 0.72991 0.58161 0.68257 0.0
H1350 H 0.74484 0.58925 0.68833 0.0
O1351 O 0.73113 0.55402 0.72643 0.0
O1352 O 0.72484 0.56492 0.74445 0.0
H1353 H 0.72389 0.61016 0.73758 0.0
H1354 H 0.72153 0.62078 0.72344 0.0
C1355 C 0.71881 0.61118 0.72794 0.0
H1356 H 0.70802 0.61115 0.72969 0.0
H1357 H 0.72588 0.59146 0.76037 0.0
O1358 O 0.72564 0.55289 0.6958 0.0
C1359 C 0.73202 0.55628 0.73872 0.0
Co1360 Co 0.53968 0.67643 0.52995 0.0
Co1361 Co 0.51307 0.66233 0.53632 0.0
C1362 C 0.52765 0.67847 0.55674 0.0
O1363 O 0.53639 0.68141 0.54828 0.0
O1364 O 0.51807 0.67087 0.55372 0.0
C1365 C 0.56567 0.68459 0.53429 0.0
O1366 O 0.56326 0.67908 0.54579 0.0
C1367 C 0.50029 0.63999 0.54824 0.0
C1368 C 0.47994 0.64032 0.54037 0.0
C1369 C 0.48844 0.63322 0.54841 0.0
N1370 N 0.49904 0.65048 0.54027 0.0
N1371 N 0.48683 0.6507 0.53562 0.0
C1372 C 0.51249 0.63689 0.55602 0.0
H1373 H 0.51963 0.64518 0.5556 0.0
H1374 H 0.51732 0.62794 0.55198 0.0
H1375 H 0.50982 0.63479 0.56645 0.0
C1376 C 0.54745 0.64981 0.52171 0.0
N1377 N 0.53886 0.65814 0.52742 0.0
N1378 N 0.52731 0.65232 0.52869 0.0
C1379 C 0.52808 0.64016 0.52322 0.0
C1380 C 0.5409 0.63815 0.5187 0.0
C1381 C 0.56163 0.65314 0.51915 0.0
H1382 H 0.56226 0.65994 0.51058 0.0
H1383 H 0.56583 0.65823 0.52787 0.0
H1384 H 0.56762 0.6442 0.51718 0.0
O1385 O 0.52669 0.68478 0.51845 0.0
O1386 O 0.50712 0.67611 0.52348 0.0
H1387 H 0.50733 0.63748 0.51942 0.0
H1388 H 0.51796 0.62578 0.51117 0.0
C1389 C 0.51642 0.63149 0.52041 0.0
H1390 H 0.51514 0.62434 0.52858 0.0
H1391 H 0.48324 0.65787 0.52912 0.0
O1392 O 0.55698 0.68394 0.52527 0.0
C1393 C 0.51426 0.68406 0.51679 0.0
Co1394 Co 0.03703 0.81633 0.4681 0.0
Co1395 Co 0.01084 0.83046 0.46062 0.0
C1396 C 0.02687 0.81451 0.44075 0.0
O1397 O 0.03541 0.81158 0.44946 0.0
O1398 O 0.01695 0.82175 0.44361 0.0
C1399 C 0.05542 0.79673 0.47354 0.0
O1400 O 0.04598 0.78945 0.46841 0.0
C1401 C 0.99893 0.85282 0.44782 0.0
C1402 C 0.97823 0.8528 0.45471 0.0
C1403 C 0.9872 0.85972 0.44704 0.0
N1404 N 0.99717 0.84241 0.45579 0.0
N1405 N 0.98476 0.84237 0.45987 0.0
C1406 C 0.01152 0.85574 0.44062 0.0
H1407 H 0.00942 0.85716 0.42995 0.0
H1408 H 0.01877 0.84765 0.44193 0.0
H1409 H 0.01591 0.86504 0.44437 0.0
C1410 C 0.04478 0.84287 0.47618 0.0
N1411 N 0.03616 0.83453 0.47054 0.0
N1412 N 0.02473 0.84045 0.46888 0.0
C1413 C 0.02558 0.85275 0.47403 0.0
C1414 C 0.03835 0.85471 0.47876 0.0
C1415 C 0.05891 0.83943 0.47887 0.0
H1416 H 0.05958 0.83414 0.48844 0.0
H1417 H 0.06269 0.8328 0.47101 0.0
H1418 H 0.06518 0.84841 0.47928 0.0
O1419 O 0.02331 0.80808 0.47873 0.0
O1420 O 0.00397 0.81693 0.47328 0.0
H1421 H 0.00474 0.85598 0.4768 0.0
H1422 H 0.01531 0.86759 0.48532 0.0
C1423 C 0.01403 0.86174 0.47613 0.0
H1424 H 0.0133 0.86875 0.46777 0.0
H1425 H 0.98078 0.83532 0.46625 0.0
O1426 O 0.05375 0.80911 0.47455 0.0
C1427 C 0.01088 0.80892 0.48011 0.0
Co1428 Co 0.4318 0.79139 0.71822 0.0
Co1429 Co 0.41577 0.76616 0.71101 0.0
C1430 C 0.43157 0.78162 0.69064 0.0
O1431 O 0.4354 0.7899 0.69925 0.0
O1432 O 0.42402 0.77203 0.69379 0.0
C1433 C 0.45305 0.80748 0.72452 0.0
O1434 O 0.45933 0.79694 0.7203 0.0
C1435 C 0.39232 0.75538 0.69894 0.0
C1436 C 0.39165 0.73474 0.70601 0.0
C1437 C 0.38485 0.74394 0.6985 0.0
N1438 N 0.40291 0.75319 0.70659 0.0
N1439 N 0.40252 0.74082 0.71076 0.0
C1440 C 0.38983 0.76803 0.69168 0.0
H1441 H 0.39879 0.77431 0.69157 0.0
H1442 H 0.38182 0.77363 0.69659 0.0
H1443 H 0.38662 0.7659 0.68141 0.0
C1444 C 0.40626 0.80018 0.72838 0.0
N1445 N 0.41372 0.79145 0.72177 0.0
N1446 N 0.40704 0.78046 0.71992 0.0
C1447 C 0.3951 0.78175 0.72576 0.0
C1448 C 0.39421 0.79432 0.73123 0.0
C1449 C 0.41078 0.81378 0.73203 0.0
H1450 H 0.41684 0.81323 0.74115 0.0
H1451 H 0.41702 0.8179 0.72402 0.0
H1452 H 0.40228 0.82047 0.73378 0.0
O1453 O 0.4397 0.77696 0.72818 0.0
O1454 O 0.42939 0.7583 0.72294 0.0
H1455 H 0.39076 0.76107 0.72815 0.0
H1456 H 0.37999 0.77204 0.7372 0.0
C1457 C 0.38552 0.77067 0.72784 0.0
H1458 H 0.37826 0.77053 0.71965 0.0
H1459 H 0.40961 0.73657 0.71693 0.0
O1460 O 0.4405 0.80749 0.72459 0.0
C1461 C 0.43814 0.76459 0.72946 0.0
Co1462 Co 0.46112 0.1813 0.96783 0.0
Co1463 Co 0.48703 0.16663 0.9603 0.0
C1464 C 0.47166 0.18296 0.94045 0.0
O1465 O 0.46317 0.18606 0.94915 0.0
O1466 O 0.48142 0.1755 0.9433 0.0
C1467 C 0.4422 0.20085 0.97208 0.0
O1468 O 0.45137 0.20811 0.96645 0.0
C1469 C 0.50075 0.14641 0.94574 0.0
C1470 C 0.5179 0.14152 0.9583 0.0
C1471 C 0.51141 0.13797 0.9468 0.0
N1472 N 0.50093 0.15472 0.95603 0.0
N1473 N 0.51134 0.15193 0.96343 0.0
C1474 C 0.48968 0.1456 0.93596 0.0
H1475 H 0.48038 0.14932 0.9404 0.0
H1476 H 0.48823 0.1353 0.93248 0.0
H1477 H 0.49214 0.15183 0.9273 0.0
C1478 C 0.45263 0.15469 0.97516 0.0
N1479 N 0.4616 0.16302 0.97009 0.0
N1480 N 0.47269 0.15669 0.9678 0.0
C1481 C 0.47118 0.144 0.97168 0.0
C1482 C 0.45841 0.14234 0.97652 0.0
C1483 C 0.43867 0.15853 0.97822 0.0
H1484 H 0.43841 0.16379 0.98783 0.0
H1485 H 0.43492 0.16533 0.9705 0.0
H1486 H 0.4321 0.14978 0.97871 0.0
O1487 O 0.47466 0.18932 0.97884 0.0
O1488 O 0.49372 0.17997 0.9733 0.0
H1489 H 0.49135 0.13862 0.97513 0.0
H1490 H 0.47968 0.12559 0.97846 0.0
C1491 C 0.48203 0.13396 0.9718 0.0
H1492 H 0.48347 0.13009 0.96166 0.0
H1493 H 0.51355 0.15666 0.97232 0.0
O1494 O 0.4443 0.18863 0.97388 0.0
C1495 C 0.48705 0.1881 0.98023 0.0
Co1496 Co 0.56571 0.70603 0.71602 0.0
Co1497 Co 0.5806 0.73179 0.70809 0.0
C1498 C 0.56343 0.71683 0.68873 0.0
O1499 O 0.5605 0.70835 0.6975 0.0
O1500 O 0.57116 0.72646 0.69133 0.0
C1501 C 0.54592 0.68754 0.72041 0.0
O1502 O 0.53909 0.69654 0.71403 0.0
C1503 C 0.60068 0.74611 0.69354 0.0
C1504 C 0.60624 0.76209 0.70733 0.0
C1505 C 0.60951 0.75641 0.69532 0.0
N1506 N 0.59254 0.74572 0.70398 0.0
N1507 N 0.5957 0.75548 0.71207 0.0
C1508 C 0.60118 0.73565 0.68309 0.0
H1509 H 0.59521 0.73892 0.6745 0.0
H1510 H 0.59698 0.72626 0.68687 0.0
H1511 H 0.61146 0.73397 0.67969 0.0
C1512 C 0.59236 0.69705 0.72235 0.0
N1513 N 0.58402 0.70626 0.71775 0.0
N1514 N 0.59054 0.7172 0.71514 0.0
C1515 C 0.60338 0.71528 0.71828 0.0
C1516 C 0.60489 0.70244 0.72283 0.0
C1517 C 0.58815 0.68361 0.72685 0.0
H1518 H 0.58113 0.68466 0.73519 0.0
H1519 H 0.58289 0.67853 0.71869 0.0
H1520 H 0.59666 0.67752 0.73009 0.0
O1521 O 0.5582 0.7196 0.72724 0.0
O1522 O 0.56767 0.73851 0.72148 0.0
H1523 H 0.61061 0.73492 0.72135 0.0
H1524 H 0.6232 0.72228 0.72218 0.0
C1525 C 0.61403 0.72545 0.71708 0.0
H1526 H 0.61633 0.72701 0.7065 0.0
H1527 H 0.5912 0.7571 0.7212 0.0
O1528 O 0.55817 0.68936 0.72236 0.0
C1529 C 0.55963 0.73197 0.72861 0.0
Co1530 Co 0.9599 0.31708 0.03293 0.0
Co1531 Co 0.98629 0.33083 0.04073 0.0
C1532 C 0.97132 0.31415 0.06014 0.0
O1533 O 0.96284 0.31152 0.05128 0.0
O1534 O 0.98105 0.32175 0.05769 0.0
C1535 C 0.93341 0.31101 0.03676 0.0
O1536 O 0.93584 0.31739 0.0478 0.0
C1537 C 0.00112 0.35055 0.05497 0.0
C1538 C 0.01813 0.35462 0.04193 0.0
C1539 C 0.01204 0.35868 0.0535 0.0
N1540 N 0.00077 0.3421 0.04477 0.0
N1541 N 0.0111 0.34438 0.03712 0.0
C1542 C 0.99011 0.35197 0.06474 0.0
H1543 H 0.99285 0.3468 0.074 0.0
H1544 H 0.98088 0.34752 0.06085 0.0
H1545 H 0.98831 0.36253 0.06709 0.0
C1546 C 0.95228 0.34416 0.02599 0.0
N1547 N 0.96087 0.33543 0.03108 0.0
N1548 N 0.97208 0.34144 0.03386 0.0
C1549 C 0.97088 0.35433 0.0305 0.0
C1550 C 0.95831 0.35638 0.02552 0.0
C1551 C 0.93876 0.34074 0.02107 0.0
H1552 H 0.93929 0.33188 0.01465 0.0
H1553 H 0.93233 0.33841 0.02962 0.0
H1554 H 0.93426 0.34901 0.01546 0.0
O1555 O 0.97269 0.30903 0.02118 0.0
O1556 O 0.99205 0.31753 0.02716 0.0
H1557 H 0.99103 0.3601 0.02757 0.0
H1558 H 0.97921 0.3733 0.02539 0.0
C1559 C 0.98168 0.36438 0.03127 0.0
H1560 H 0.98307 0.36742 0.04169 0.0
H1561 H 0.01293 0.33945 0.02825 0.0
O1562 O 0.94245 0.31012 0.02814 0.0
C1563 C 0.98513 0.30991 0.01987 0.0
Co1564 Co 0.43235 0.20942 0.77975 0.0
Co1565 Co 0.41677 0.23431 0.78887 0.0
C1566 C 0.43368 0.21828 0.80773 0.0
O1567 O 0.437 0.21036 0.79857 0.0
O1568 O 0.42592 0.22794 0.80543 0.0
C1569 C 0.45261 0.19161 0.77385 0.0
O1570 O 0.45962 0.20044 0.78028 0.0
C1571 C 0.39549 0.24578 0.80392 0.0
C1572 C 0.39082 0.26418 0.79318 0.0
C1573 C 0.38677 0.25632 0.80363 0.0
N1574 N 0.40429 0.24732 0.79414 0.0
N1575 N 0.40161 0.25845 0.78787 0.0
C1576 C 0.3945 0.23353 0.81215 0.0
H1577 H 0.39963 0.22517 0.80727 0.0
H1578 H 0.38401 0.23086 0.81388 0.0
H1579 H 0.39925 0.23535 0.82185 0.0
C1580 C 0.40623 0.20089 0.77093 0.0
N1581 N 0.41411 0.20949 0.77723 0.0
N1582 N 0.4074 0.22019 0.78026 0.0
C1583 C 0.39492 0.21875 0.77573 0.0
C1584 C 0.39382 0.20649 0.76963 0.0
C1585 C 0.41065 0.18757 0.76624 0.0
H1586 H 0.41708 0.18294 0.7738 0.0
H1587 H 0.40213 0.18096 0.76427 0.0
H1588 H 0.41649 0.18875 0.75705 0.0
O1589 O 0.43985 0.22398 0.76983 0.0
O1590 O 0.42982 0.24239 0.77634 0.0
H1591 H 0.37663 0.22738 0.76879 0.0
H1592 H 0.38023 0.22984 0.78603 0.0
C1593 C 0.38463 0.22936 0.77602 0.0
H1594 H 0.38919 0.23903 0.77373 0.0
H1595 H 0.40673 0.26179 0.77957 0.0
O1596 O 0.4403 0.19341 0.77238 0.0
C1597 C 0.43821 0.23638 0.76912 0.0
Co1598 Co 0.0614 0.78633 0.27961 0.0
Co1599 Co 0.07864 0.76231 0.28812 0.0
C1600 C 0.06114 0.77736 0.30745 0.0
O1601 O 0.05711 0.78513 0.29846 0.0
O1602 O 0.06938 0.76817 0.30484 0.0
C1603 C 0.0402 0.80336 0.27437 0.0
O1604 O 0.03379 0.7946 0.28148 0.0
C1605 C 0.10175 0.75264 0.30188 0.0
C1606 C 0.10595 0.73358 0.29211 0.0
C1607 C 0.11086 0.74244 0.30132 0.0
N1608 N 0.09209 0.75014 0.29316 0.0
N1609 N 0.09451 0.73862 0.28749 0.0
C1610 C 0.10208 0.76463 0.31057 0.0
H1611 H 0.0923 0.76603 0.31526 0.0
H1612 H 0.1041 0.77353 0.30453 0.0
H1613 H 0.10964 0.76374 0.31844 0.0
C1614 C 0.08697 0.79698 0.27149 0.0
N1615 N 0.07959 0.78745 0.277 0.0
N1616 N 0.08694 0.77699 0.27934 0.0
C1617 C 0.09927 0.77945 0.2748 0.0
C1618 C 0.09967 0.79224 0.26991 0.0
C1619 C 0.08165 0.81006 0.2671 0.0
H1620 H 0.07463 0.80847 0.25883 0.0
H1621 H 0.0761 0.8147 0.27534 0.0
H1622 H 0.0896 0.8168 0.26374 0.0
O1623 O 0.0547 0.77132 0.2697 0.0
O1624 O 0.0659 0.75345 0.27581 0.0
H1625 H 0.10651 0.75955 0.27338 0.0
H1626 H 0.11739 0.77192 0.26652 0.0
C1627 C 0.11037 0.76971 0.27463 0.0
H1628 H 0.11588 0.77036 0.28405 0.0
H1629 H 0.08867 0.73447 0.28008 0.0
O1630 O 0.05248 0.80186 0.27234 0.0
C1631 C 0.05706 0.75904 0.26881 0.0
C1632 C 0.99635 0.11323 0.0544 0.0
C1633 C 0.98812 0.12413 0.05665 0.0
C1634 C 0.99573 0.10225 0.06266 0.0
C1635 C 0.99106 0.07861 0.08053 0.0
H1636 H 0.9953 0.09054 0.11668 0.0
C1637 C 0.00546 0.04501 0.12545 0.0
C1638 C 0.01632 0.05004 0.13248 0.0
C1639 C -0.00062 0.05265 0.11565 0.0
C1640 C 0.99398 0.08705 0.10665 0.0
H1641 H 0.9721 0.13186 0.06846 0.0
H1642 H 0.97106 0.11259 0.08314 0.0
H1643 H 0.98792 0.10606 0.09986 0.0
H1644 H 0.0295 0.06671 0.13477 0.0
H1645 H 0.01879 0.08012 0.11784 0.0
H1646 H 0.99778 0.0597 0.08736 0.0
C1647 C 0.97801 0.11256 0.07501 0.0
C1648 C 0.98962 0.09588 0.09704 0.0
C1649 C 0.97855 0.12353 0.06663 0.0
C1650 C 0.02112 0.06266 0.12947 0.0
C1651 C 0.01496 0.07033 0.11987 0.0
C1652 C 0.99531 0.06971 0.09021 0.0
C1653 C 0.98692 0.10202 0.07337 0.0
C1654 C 0.98858 0.09189 0.0838 0.0
C1655 C 0.00393 0.06548 0.113 0.0
C1656 C 0.99728 0.07402 0.10323 0.0
H1657 H 0.00366 0.11346 0.04659 0.0
H1658 H 0.0028 0.09435 0.06119 0.0
H1659 H 0.99026 0.07526 0.0704 0.0
H1660 H 0.00144 0.03538 0.12781 0.0
H1661 H 0.99087 0.04872 0.11047 0.0
C1662 C 0.2026 0.77243 0.36557 0.0
C1663 C 0.20578 0.76473 0.3766 0.0
C1664 C 0.19559 0.76688 0.35505 0.0
C1665 C 0.17129 0.7407 0.34992 0.0
H1666 H 0.17258 0.75304 0.31372 0.0
C1667 C 0.12869 0.73043 0.31354 0.0
C1668 C 0.12406 0.742 0.30747 0.0
C1669 C 0.14094 0.73039 0.31998 0.0
C1670 C 0.17215 0.74944 0.32378 0.0
H1671 H 0.20532 0.74511 0.38501 0.0
H1672 H 0.19327 0.73526 0.36651 0.0
H1673 H 0.19085 0.75804 0.32868 0.0
H1674 H 0.12899 0.76217 0.30232 0.0
H1675 H 0.15013 0.7622 0.31364 0.0
H1676 H 0.15236 0.73261 0.34522 0.0
C1677 C 0.19587 0.74563 0.36605 0.0
C1678 C 0.18259 0.75232 0.33234 0.0
C1679 C 0.20282 0.75121 0.37658 0.0
C1680 C 0.13216 0.75324 0.30724 0.0
C1681 C 0.14439 0.75318 0.31355 0.0
C1682 C 0.16088 0.73781 0.34136 0.0
C1683 C 0.19173 0.75352 0.3554 0.0
C1684 C 0.18205 0.74838 0.34564 0.0
C1685 C 0.14881 0.74185 0.32021 0.0
C1686 C 0.16097 0.74257 0.32834 0.0
H1687 H 0.20481 0.7829 0.36546 0.0
H1688 H 0.19247 0.77328 0.34707 0.0
H1689 H 0.17046 0.73765 0.36014 0.0
H1690 H 0.12267 0.72159 0.31366 0.0
H1691 H 0.14415 0.72148 0.32494 0.0
C1692 C 0.47866 0.94826 0.61895 0.0
C1693 C 0.4841 0.94815 0.63168 0.0
C1694 C 0.48499 0.9416 0.60866 0.0
C1695 C 0.50677 0.91308 0.60444 0.0
H1696 H 0.50336 0.92187 0.56734 0.0
C1697 C 0.51681 0.87412 0.5646 0.0
C1698 C 0.50613 0.87274 0.55589 0.0
C1699 C 0.51793 0.88544 0.57247 0.0
C1700 C 0.50447 0.91932 0.57767 0.0
H1701 H 0.5009 0.94224 0.64349 0.0
H1702 H 0.51211 0.93074 0.62548 0.0
H1703 H 0.4984 0.93855 0.58406 0.0
H1704 H 0.48911 0.88253 0.54742 0.0
H1705 H 0.49084 0.9021 0.56127 0.0
H1706 H 0.51226 0.89373 0.59813 0.0
C1707 C 0.5028 0.93561 0.62348 0.0
C1708 C 0.5016 0.92886 0.58724 0.0
C1709 C 0.49642 0.94219 0.63377 0.0
C1710 C 0.49718 0.88321 0.55439 0.0
C1711 C 0.49833 0.89452 0.56216 0.0
C1712 C 0.50967 0.90359 0.59489 0.0
C1713 C 0.49692 0.93481 0.61092 0.0
C1714 C 0.50227 0.92569 0.60074 0.0
C1715 C 0.50847 0.89559 0.57159 0.0
C1716 C 0.50809 0.90645 0.58142 0.0
H1717 H 0.46915 0.95282 0.61715 0.0
H1718 H 0.48011 0.94109 0.59915 0.0
H1719 H 0.50724 0.91022 0.61474 0.0
H1720 H 0.52389 0.8662 0.56579 0.0
H1721 H 0.52593 0.88606 0.57954 0.0
C1722 C 0.29257 0.24344 0.87702 0.0
C1723 C 0.29072 0.22972 0.87726 0.0
C1724 C 0.30007 0.24925 0.86702 0.0
C1725 C 0.3172 0.24289 0.83506 0.0
H1726 H 0.34412 0.26561 0.85017 0.0
C1727 C 0.37456 0.25528 0.82497 0.0
C1728 C 0.3745 0.25769 0.81134 0.0
C1729 C 0.36274 0.25484 0.83201 0.0
C1730 C 0.33662 0.25936 0.84577 0.0
H1731 H 0.29436 0.21134 0.86705 0.0
H1732 H 0.30763 0.22141 0.84956 0.0
H1733 H 0.32536 0.2589 0.86358 0.0
H1734 H 0.3622 0.26221 0.79443 0.0
H1735 H 0.34139 0.2614 0.80679 0.0
H1736 H 0.32894 0.2428 0.81746 0.0
C1737 C 0.30318 0.22776 0.85693 0.0
C1738 C 0.32578 0.25562 0.85341 0.0
C1739 C 0.29563 0.22197 0.86692 0.0
C1740 C 0.36247 0.26033 0.80496 0.0
C1741 C 0.35059 0.25976 0.81199 0.0
C1742 C 0.32806 0.24667 0.8274 0.0
C1743 C 0.30591 0.2414 0.85716 0.0
C1744 C 0.31613 0.24704 0.84827 0.0
C1745 C 0.3506 0.25677 0.82555 0.0
C1746 C 0.33807 0.25462 0.83283 0.0
H1747 H 0.28884 0.24954 0.88498 0.0
H1748 H 0.3018 0.2598 0.86735 0.0
H1749 H 0.30987 0.23638 0.83078 0.0
H1750 H 0.38375 0.25339 0.83012 0.0
H1751 H 0.36308 0.2524 0.84242 0.0
C1752 C 0.00338 0.95021 0.36993 0.0
C1753 C 0.01387 0.94495 0.36253 0.0
C1754 C 0.99739 0.94266 0.37985 0.0
C1755 C 0.99166 0.90824 0.38902 0.0
H1756 H 0.98814 0.92057 0.42511 0.0
C1757 C 0.99328 0.88288 0.44187 0.0
C1758 C 0.98495 0.87204 0.4397 0.0
C1759 C 0.99296 0.8937 0.43338 0.0
C1760 C 0.9889 0.91706 0.41503 0.0
H1761 H 0.0265 0.92795 0.35971 0.0
H1762 H 0.016 0.91471 0.3769 0.0
H1763 H 0.99583 0.9358 0.40794 0.0
H1764 H 0.96901 0.86429 0.42778 0.0
H1765 H 0.96845 0.88328 0.41272 0.0
H1766 H 0.98538 0.88939 0.39608 0.0
C1767 C 0.01236 0.9246 0.37505 0.0
C1768 C 0.99325 0.92578 0.40523 0.0
C1769 C 0.01841 0.93217 0.3653 0.0
C1770 C 0.97555 0.87257 0.42956 0.0
C1771 C 0.97529 0.88338 0.42095 0.0
C1772 C 0.98722 0.89959 0.39876 0.0
C1773 C 0.00169 0.92969 0.38229 0.0
C1774 C 0.99511 0.92128 0.39225 0.0
C1775 C 0.98433 0.89383 0.42252 0.0
C1776 C 0.98623 0.90378 0.41195 0.0
H1777 H -0.00045 0.95995 0.36776 0.0
H1778 H 0.98916 0.94677 0.3853 0.0
H1779 H 0.99286 0.9046 0.37903 0.0
H1780 H 0.00046 0.88273 0.44981 0.0
H1781 H 0.00011 0.90154 0.43482 0.0
C1782 C 0.29825 0.77088 0.62695 0.0
C1783 C 0.2976 0.76458 0.61464 0.0
C1784 C 0.3049 0.7649 0.63746 0.0
C1785 C 0.33214 0.74184 0.64276 0.0
H1786 H 0.32343 0.74715 0.67966 0.0
C1787 C 0.37034 0.73117 0.68316 0.0
C1788 C 0.3722 0.74201 0.69158 0.0
C1789 C 0.35904 0.7304 0.67524 0.0
C1790 C 0.32596 0.74552 0.66939 0.0
H1791 H 0.30236 0.74678 0.6038 0.0
H1792 H 0.31392 0.73623 0.62218 0.0
H1793 H 0.30712 0.75243 0.66267 0.0
H1794 H 0.36323 0.75973 0.6995 0.0
H1795 H 0.34372 0.75862 0.68555 0.0
H1796 H 0.35114 0.73553 0.64937 0.0
C1797 C 0.30957 0.74588 0.62368 0.0
C1798 C 0.31664 0.74857 0.65968 0.0
C1799 C 0.30298 0.7519 0.61318 0.0
C1800 C 0.3622 0.7515 0.69275 0.0
C1801 C 0.35091 0.75072 0.68492 0.0
C1802 C 0.34143 0.7388 0.65246 0.0
C1803 C 0.31094 0.75248 0.63583 0.0
C1804 C 0.31979 0.74717 0.64623 0.0
C1805 C 0.34939 0.74039 0.67577 0.0
C1806 C 0.33861 0.74104 0.66585 0.0
H1807 H 0.29418 0.78069 0.62825 0.0
H1808 H 0.30589 0.77032 0.64662 0.0
H1809 H 0.33496 0.74079 0.6325 0.0
H1810 H 0.3779 0.72366 0.68222 0.0
H1811 H 0.35805 0.72223 0.66839 0.0
C1812 C 0.46977 0.06024 0.87127 0.0
C1813 C 0.47642 0.04883 0.8672 0.0
C1814 C 0.47524 0.06839 0.88091 0.0
C1815 C 0.50086 0.07114 0.90681 0.0
H1816 H 0.498 0.1083 0.89806 0.0
C1817 C 0.50944 0.11375 0.94386 0.0
C1818 C 0.51341 0.12602 0.93886 0.0
C1819 C 0.50778 0.103 0.93535 0.0
C1820 C 0.49915 0.09798 0.90058 0.0
H1821 H 0.49366 0.03657 0.87016 0.0
H1822 H 0.50343 0.05097 0.88707 0.0
H1823 H 0.48875 0.09197 0.88328 0.0
H1824 H 0.51971 0.13667 0.92149 0.0
H1825 H 0.5175 0.11777 0.90665 0.0
H1826 H 0.51143 0.07727 0.92413 0.0
C1827 C 0.4939 0.05353 0.88295 0.0
C1828 C 0.4936 0.0886 0.8922 0.0
C1829 C 0.48833 0.04529 0.87332 0.0
C1830 C 0.51672 0.12721 0.9255 0.0
C1831 C 0.51528 0.11644 0.91703 0.0
C1832 C 0.50649 0.08058 0.91524 0.0
C1833 C 0.48759 0.06538 0.88653 0.0
C1834 C 0.49415 0.0751 0.89532 0.0
C1835 C 0.51014 0.1044 0.92172 0.0
C1836 C 0.50555 0.09413 0.91228 0.0
H1837 H 0.46056 0.0631 0.86662 0.0
H1838 H 0.46998 0.07729 0.88367 0.0
H1839 H 0.50147 0.0608 0.90946 0.0
H1840 H 0.50661 0.11275 0.95414 0.0
H1841 H 0.5037 0.09394 0.9393 0.0
C1842 C 0.12355 0.2634 0.17696 0.0
C1843 C 0.1229 0.25956 0.19023 0.0
C1844 C 0.13536 0.26209 0.16995 0.0
C1845 C 0.16212 0.23969 0.1674 0.0
H1846 H 0.17854 0.26574 0.14467 0.0
C1847 C 0.20034 0.2235 0.1288 0.0
C1848 C 0.19906 0.22945 0.11636 0.0
C1849 C 0.19395 0.2289 0.1398 0.0
C1850 C 0.17402 0.2583 0.15087 0.0
H1851 H 0.13382 0.25154 0.20675 0.0
H1852 H 0.15448 0.24885 0.19434 0.0
H1853 H 0.1614 0.27255 0.16021 0.0
H1854 H 0.19101 0.24622 0.10581 0.0
H1855 H 0.17918 0.25512 0.1246 0.0
H1856 H 0.17375 0.22523 0.15749 0.0
C1857 C 0.14598 0.25318 0.18948 0.0
C1858 C 0.1643 0.26226 0.15984 0.0
C1859 C 0.13425 0.25476 0.19656 0.0
C1860 C 0.19188 0.24124 0.11524 0.0
C1861 C 0.18529 0.24649 0.12612 0.0
C1862 C 0.1716 0.23567 0.15824 0.0
C1863 C 0.14654 0.25659 0.17606 0.0
C1864 C 0.15811 0.25293 0.16798 0.0
C1865 C 0.18598 0.24024 0.13852 0.0
C1866 C 0.17746 0.24486 0.14961 0.0
H1867 H 0.1148 0.26691 0.1719 0.0
H1868 H 0.13553 0.26461 0.15955 0.0
H1869 H 0.15736 0.2323 0.1735 0.0
H1870 H 0.20588 0.21442 0.12993 0.0
H1871 H 0.195 0.22396 0.14922 0.0
C1872 C 0.11832 0.01845 0.04632 0.0
C1873 C 0.13058 0.01217 0.04501 0.0
C1874 C 0.10818 0.01243 0.05351 0.0
C1875 C 0.1043 0.98953 0.08103 0.0
H1876 H 0.06697 0.99318 0.07337 0.0
C1877 C 0.06566 0.97699 0.12047 0.0
C1878 C 0.05635 0.98705 0.12227 0.0
C1879 C 0.07338 0.97669 0.109 0.0
C1880 C 0.07736 0.99206 0.07564 0.0
H1881 H 0.14168 0.99438 0.04917 0.0
H1882 H 0.12399 0.98382 0.06176 0.0
H1883 H 0.08324 -0.00081 0.0566 0.0
H1884 H 0.04703 0.00411 0.11344 0.0
H1885 H 0.06055 0.00381 0.09358 0.0
H1886 H 0.09855 0.98305 0.10024 0.0
C1887 C 0.12224 0.99347 0.05747 0.0
C1888 C 0.08666 0.9955 0.06604 0.0
C1889 C 0.13234 -0.00052 0.05029 0.0
C1890 C 0.05424 0.99631 0.11221 0.0
C1891 C 0.06191 0.99604 0.1008 0.0
C1892 C 0.09503 0.98614 0.09063 0.0
C1893 C 0.11017 2e-05 0.05946 0.0
C1894 C 0.10024 0.99461 0.06877 0.0
C1895 C 0.07185 0.98647 0.09921 0.0
C1896 C 0.08145 0.98773 0.0882 0.0
H1897 H 0.11678 0.02824 0.0423 0.0
H1898 H 0.09904 0.01779 0.05496 0.0
H1899 H 0.11469 0.98887 0.08351 0.0
H1900 H 0.06737 0.96975 0.12815 0.0
H1901 H 0.08083 0.96909 0.10799 0.0
C1902 C 0.21804 0.87269 0.30757 0.0
C1903 C 0.22501 0.87774 0.29676 0.0
C1904 C 0.22382 0.86322 0.31572 0.0
C1905 C 0.25168 0.83987 0.31967 0.0
H1906 H 0.24635 0.8482 0.35666 0.0
C1907 C 0.26225 0.80411 0.363 0.0
C1908 C 0.26516 0.80964 0.37536 0.0
C1909 C 0.26025 0.81229 0.35205 0.0
C1910 C 0.24818 0.84583 0.3464 0.0
H1911 H 0.24312 0.87665 0.28549 0.0
H1912 H 0.2534 0.86007 0.29988 0.0
H1913 H 0.23623 0.8619 0.33994 0.0
H1914 H 0.26948 0.82769 0.38592 0.0
H1915 H 0.26665 0.84198 0.3667 0.0
H1916 H 0.26378 0.82377 0.32629 0.0
C1917 C 0.24341 0.86326 0.30196 0.0
C1918 C 0.24214 0.85356 0.33678 0.0
C1919 C 0.23755 0.8727 0.29372 0.0
C1920 C 0.26728 0.82327 0.37642 0.0
C1921 C 0.26549 0.83142 0.36546 0.0
C1922 C 0.25778 0.83207 0.32935 0.0
C1923 C 0.23677 0.8588 0.31332 0.0
C1924 C 0.24362 0.85057 0.32332 0.0
C1925 C 0.26123 0.8261 0.35334 0.0
C1926 C 0.256 0.83492 0.34284 0.0
H1927 H 0.20837 0.87654 0.31006 0.0
H1928 H 0.21833 0.85976 0.32422 0.0
H1929 H 0.25303 0.83735 0.30936 0.0
H1930 H 0.26037 0.79362 0.36207 0.0
H1931 H 0.25691 0.80786 0.34291 0.0
C1932 C 0.36985 0.00396 0.54466 0.0
C1933 C 0.37051 0.99072 0.54066 0.0
C1934 C 0.3804 0.00971 0.55144 0.0
C1935 C 0.41496 0.00395 0.56306 0.0
H1936 H 0.40151 0.01865 0.59578 0.0
C1937 C 0.4401 0.99663 0.61283 0.0
C1938 C 0.43906 0.00631 0.6227 0.0
C1939 C 0.43406 0.99845 0.60061 0.0
C1940 C 0.40553 0.01491 0.5866 0.0
H1941 H 0.38295 0.97343 0.53931 0.0
H1942 H 0.40137 0.98331 0.55132 0.0
H1943 H 0.38662 0.01533 0.57731 0.0
H1944 H 0.43183 0.02589 0.62728 0.0
H1945 H 0.42108 0.02911 0.60579 0.0
H1946 H 0.43374 0.00285 0.57274 0.0
C1947 C 0.39282 0.98937 0.5492 0.0
C1948 C 0.39697 0.013 0.57596 0.0
C1949 C 0.38227 0.98366 0.54238 0.0
C1950 C 0.43258 0.01822 0.61986 0.0
C1951 C 0.42643 0.02003 0.6076 0.0
C1952 C 0.42352 0.00585 0.57373 0.0
C1953 C 0.39176 0.00226 0.55433 0.0
C1954 C 0.40147 0.007 0.56426 0.0
C1955 C 0.42688 0.01003 0.59795 0.0
C1956 C 0.41876 0.01084 0.58579 0.0
H1957 H 0.36087 0.0096 0.54322 0.0
H1958 H 0.37939 0.01973 0.55503 0.0
H1959 H 0.41877 -0.00047 0.5541 0.0
H1960 H 0.44543 0.98755 0.61461 0.0
H1961 H 0.43452 0.99051 0.59346 0.0
C1962 C 0.27255 0.12162 0.8107 0.0
C1963 C 0.26578 0.11663 0.79973 0.0
C1964 C 0.26663 0.13103 0.81881 0.0
C1965 C 0.23937 0.15498 0.82201 0.0
H1966 H 0.24401 0.1471 0.85919 0.0
C1967 C 0.23144 0.19232 0.8644 0.0
C1968 C 0.22838 0.18734 0.87695 0.0
C1969 C 0.23261 0.18373 0.85365 0.0
C1970 C 0.24235 0.14935 0.84887 0.0
H1971 H 0.24782 0.11768 0.78821 0.0
H1972 H 0.2373 0.13425 0.8025 0.0
H1973 H 0.25356 0.13259 0.8428 0.0
H1974 H 0.22294 0.16996 0.88806 0.0
H1975 H 0.22433 0.15499 0.86919 0.0
H1976 H 0.22811 0.17182 0.82822 0.0
C1977 C 0.24725 0.13102 0.80474 0.0
C1978 C 0.24806 0.14114 0.83945 0.0
C1979 C 0.25324 0.12159 0.79657 0.0
C1980 C 0.22526 0.17395 0.87841 0.0
C1981 C 0.22622 0.16541 0.86764 0.0
C1982 C 0.23361 0.16326 0.83149 0.0
C1983 C 0.25374 0.13549 0.81618 0.0
C1984 C 0.24689 0.14399 0.82594 0.0
C1985 C 0.23065 0.17007 0.85532 0.0
C1986 C 0.2352 0.16062 0.84505 0.0
H1987 H 0.28222 0.11784 0.8133 0.0
H1988 H 0.27199 0.1345 0.8274 0.0
H1989 H 0.23828 0.15739 0.81164 0.0
H1990 H 0.23407 0.20262 0.86316 0.0
H1991 H 0.23611 0.18766 0.84434 0.0
C1992 C 0.13214 0.99536 0.44607 0.0
C1993 C 0.13084 0.98256 0.45119 0.0
C1994 C 0.12193 0.00101 0.43874 0.0
C1995 C 0.08671 0.99725 0.42913 0.0
H1996 H 0.09884 0.0111 0.39555 0.0
C1997 C 0.05559 0.99569 0.38207 0.0
C1998 C 0.05702 0.0056 0.37252 0.0
C1999 C 0.06319 0.99592 0.39354 0.0
C2000 C 0.09524 0.00758 0.40498 0.0
H2001 H 0.11771 0.96585 0.45341 0.0
H2002 H 0.0998 0.97564 0.44048 0.0
H2003 H 0.11481 0.00583 0.41267 0.0
H2004 H 0.06676 0.02397 0.36766 0.0
H2005 H 0.08021 0.02445 0.38787 0.0
H2006 H 0.06715 0.99854 0.4212 0.0
C2007 C 0.10865 0.98141 0.4422 0.0
C2008 C 0.10441 0.00453 0.41482 0.0
C2009 C 0.11889 0.97577 0.44956 0.0
C2010 C 0.06563 0.01618 0.3749 0.0
C2011 C 0.07332 0.0164 0.3864 0.0
C2012 C 0.07752 0.00032 0.4193 0.0
C2013 C 0.11022 0.99394 0.43639 0.0
C2014 C 0.10028 0.99898 0.42686 0.0
C2015 C 0.07237 0.00611 0.39571 0.0
C2016 C 0.08173 0.00514 0.40696 0.0
H2017 H 0.14124 0.00084 0.4474 0.0
H2018 H 0.12335 0.01077 0.43459 0.0
H2019 H 0.08321 0.9932 0.43839 0.0
H2020 H 0.04886 0.98754 0.38049 0.0
H2021 H 0.0623 0.98776 0.40039 0.0
C2022 C 0.23305 0.80336 0.63229 0.0
C2023 C 0.2367 0.81008 0.62073 0.0
C2024 C 0.23193 0.81018 0.64425 0.0
C2025 C 0.24179 0.82569 0.66828 0.0
H2026 H 0.22853 0.86156 0.6699 0.0
C2027 C 0.26356 0.86584 0.70159 0.0
C2028 C 0.25556 0.87641 0.70551 0.0
C2029 C 0.25823 0.85553 0.69413 0.0
C2030 C 0.23203 0.85146 0.66979 0.0
H2031 H 0.24097 0.82924 0.61227 0.0
H2032 H 0.23912 0.84116 0.63309 0.0
H2033 H 0.22385 0.84805 0.65061 0.0
H2034 H 0.23565 0.88407 0.70604 0.0
H2035 H 0.22617 0.86591 0.69318 0.0
H2036 H 0.25032 0.82925 0.68731 0.0
C2037 C 0.23717 0.83064 0.63301 0.0
C2038 C 0.22947 0.84377 0.65865 0.0
C2039 C 0.2384 0.82381 0.62112 0.0
C2040 C 0.24197 0.876 0.70297 0.0
C2041 C 0.2366 0.86567 0.69556 0.0
C2042 C 0.24437 0.83339 0.67945 0.0
C2043 C 0.23423 0.82386 0.64477 0.0
C2044 C 0.23473 0.83099 0.65756 0.0
C2045 C 0.24479 0.85564 0.69054 0.0
C2046 C 0.23991 0.84652 0.68013 0.0
H2047 H 0.23166 0.79275 0.6322 0.0
H2048 H 0.22954 0.80473 0.65314 0.0
H2049 H 0.24601 0.81588 0.66771 0.0
H2050 H 0.2741 0.86603 0.70348 0.0
H2051 H 0.26485 0.84802 0.69036 0.0
C2052 C 0.42573 0.98219 0.87404 0.0
C2053 C 0.43915 0.98558 0.87402 0.0
C2054 C 0.41839 0.98305 0.88569 0.0
C2055 C 0.41563 0.00404 0.91343 0.0
H2056 H 0.39198 0.97783 0.92821 0.0
C2057 C 0.37707 0.01928 0.95211 0.0
C2058 C 0.36452 0.01359 0.95067 0.0
C2059 C 0.38793 0.01401 0.94539 0.0
C2060 C 0.39843 0.98532 0.92414 0.0
H2061 H 0.45561 0.99221 0.88596 0.0
H2062 H 0.44262 0.99411 0.90634 0.0
H2063 H 0.40769 0.97143 0.91106 0.0
H2064 H 0.35365 0.99737 0.94193 0.0
H2065 H 0.37219 0.98877 0.9295 0.0
H2066 H 0.40584 0.0182 0.92551 0.0
C2067 C 0.43789 0.9905 0.89744 0.0
C2068 C 0.4075 0.98159 0.91442 0.0
C2069 C 0.44529 0.98935 0.88586 0.0
C2070 C 0.36314 0.00219 0.94292 0.0
C2071 C 0.3739 0.99709 0.93599 0.0
C2072 C 0.40638 0.00785 0.9229 0.0
C2073 C 0.42433 0.98762 0.89737 0.0
C2074 C 0.41601 0.99097 0.90885 0.0
C2075 C 0.38641 0.00308 0.9369 0.0
C2076 C 0.39743 0.99861 0.9282 0.0
H2077 H 0.42083 0.97942 0.86494 0.0
H2078 H 0.4079 0.98094 0.88538 0.0
H2079 H 0.42202 0.01148 0.90914 0.0
H2080 H 0.37842 0.02807 0.95805 0.0
H2081 H 0.39745 0.01873 0.94664 0.0
C2082 C 0.25146 0.11497 0.19973 0.0
C2083 C 0.2379 0.1148 0.20249 0.0
C2084 C 0.25689 0.12521 0.19225 0.0
C2085 C 0.24971 0.15798 0.17703 0.0
H2086 H 0.27013 0.14389 0.14784 0.0
C2087 C 0.25706 0.16998 0.11924 0.0
C2088 C 0.25918 0.18366 0.11955 0.0
C2089 C 0.25781 0.16256 0.13081 0.0
C2090 C 0.26453 0.148 0.15597 0.0
H2091 H 0.21952 0.1255 0.20073 0.0
H2092 H 0.22889 0.14336 0.1875 0.0
H2093 H 0.26487 0.12977 0.16653 0.0
H2094 H 0.26449 0.20026 0.13195 0.0
H2095 H 0.2658 0.18724 0.15232 0.0
H2096 H 0.24871 0.17599 0.16601 0.0
C2097 C 0.23542 0.13571 0.19113 0.0
C2098 C 0.26163 0.13996 0.16677 0.0
C2099 C 0.23002 0.12548 0.19864 0.0
C2100 C 0.26278 0.18971 0.1315 0.0
C2101 C 0.26344 0.18229 0.14314 0.0
C2102 C 0.25263 0.16604 0.1662 0.0
C2103 C 0.24882 0.13542 0.18741 0.0
C2104 C 0.25383 0.14472 0.17724 0.0
C2105 C 0.2607 0.16868 0.14294 0.0
C2106 C 0.2597 0.16098 0.15537 0.0
H2107 H 0.25772 0.10685 0.2028 0.0
H2108 H 0.26729 0.12483 0.18977 0.0
H2109 H 0.24382 0.16198 0.185 0.0
H2110 H 0.25449 0.16506 0.11009 0.0
H2111 H 0.25554 0.15211 0.13033 0.0
C2112 C 0.11012 0.04814 0.98617 0.0
C2113 C 0.12227 0.05409 0.98314 0.0
C2114 C 0.0987 0.05583 0.98714 0.0
C2115 C 0.08325 0.08743 0.97902 0.0
H2116 H 0.07046 0.08744 0.01509 0.0
C2117 C 0.05655 0.1321 0.00127 0.0
C2118 C 0.04819 0.1305 0.01219 0.0
C2119 C 0.06302 0.12126 0.99574 0.0
C2120 C 0.07355 0.08739 0.00486 0.0
H2121 H 0.13207 0.07237 0.97808 0.0
H2122 H 0.11196 0.08579 0.97927 0.0
H2123 H 0.08628 0.07082 0.00812 0.0
H2124 H 0.03923 0.11618 0.0253 0.0
H2125 H 0.04985 0.0971 0.01519 0.0
H2126 H 0.07055 0.10393 0.97565 0.0
C2127 C 0.11127 0.07525 0.98094 0.0
C2128 C 0.08269 0.07786 0.0009 0.0
C2129 C 0.12273 0.06762 0.98027 0.0
C2130 C 0.04567 0.11772 0.01691 0.0
C2131 C 0.05193 0.1068 0.01121 0.0
C2132 C 0.07387 0.09679 0.98288 0.0
C2133 C 0.09926 0.0695 0.98481 0.0
C2134 C 0.08791 0.07806 0.98808 0.0
C2135 C 0.06102 0.10846 0.0008 0.0
C2136 C 0.06924 0.09721 0.996 0.0
H2137 H 0.10964 0.03774 0.98862 0.0
H2138 H 0.08954 0.05122 0.9902 0.0
H2139 H 0.08712 0.0877 0.96904 0.0
H2140 H 0.05837 0.1418 0.99715 0.0
H2141 H 0.06999 0.12307 0.98786 0.0
C2142 C 0.61139 0.44498 0.00639 0.0
C2143 C 0.6227 0.43785 0.01003 0.0
C2144 C 0.59933 0.43847 0.00469 0.0
C2145 C 0.57981 0.40959 0.01246 0.0
H2146 H 0.57009 0.40828 0.97544 0.0
C2147 C 0.55062 0.36643 0.99086 0.0
C2148 C 0.54377 0.36784 0.97892 0.0
C2149 C 0.55737 0.37709 0.99636 0.0
C2150 C 0.5723 0.40878 0.98589 0.0
H2151 H 0.63041 0.41863 0.01524 0.0
H2152 H 0.60911 0.40727 0.01282 0.0
H2153 H 0.58731 0.42336 0.9827 0.0
H2154 H 0.53746 0.38171 0.96395 0.0
H2155 H 0.54866 0.40066 0.97391 0.0
H2156 H 0.56482 0.39514 0.01579 0.0
C2157 C 0.60959 0.41784 0.01123 0.0
C2158 C 0.58226 0.41739 0.99 0.0
C2159 C 0.62171 0.42429 0.01261 0.0
C2160 C 0.54282 0.38037 0.97311 0.0
C2161 C 0.54937 0.39117 0.97876 0.0
C2162 C 0.56961 0.40121 0.00842 0.0
C2163 C 0.59842 0.42483 0.00691 0.0
C2164 C 0.58637 0.41752 0.00322 0.0
C2165 C 0.55715 0.38956 0.99021 0.0
C2166 C 0.56607 0.40028 0.99497 0.0
H2167 H 0.61205 0.45542 0.00413 0.0
H2168 H 0.59084 0.44398 0.00124 0.0
H2169 H 0.58281 0.40964 0.02273 0.0
H2170 H 0.55123 0.3569 0.99569 0.0
H2171 H 0.5633 0.3753 0.00507 0.0
C2172 C 0.80514 0.36243 0.24921 0.0
C2173 C 0.80664 0.37226 0.25885 0.0
C2174 C 0.81255 0.35085 0.24984 0.0
C2175 C 0.84451 0.33976 0.26177 0.0
H2176 H 0.83271 0.30609 0.24779 0.0
C2177 C 0.88193 0.29943 0.24894 0.0
C2178 C 0.88041 0.29423 0.23619 0.0
C2179 C 0.87167 0.30649 0.25484 0.0
C2180 C 0.83614 0.31542 0.25174 0.0
H2181 H 0.81619 0.37741 0.27725 0.0
H2182 H 0.8293 0.35704 0.27841 0.0
H2183 H 0.81651 0.32317 0.25309 0.0
H2184 H 0.86689 0.29151 0.21988 0.0
H2185 H 0.84893 0.30403 0.23008 0.0
H2186 H 0.86414 0.33231 0.2599 0.0
C2187 C 0.82251 0.35838 0.27026 0.0
C2188 C 0.82688 0.32519 0.2548 0.0
C2189 C 0.815 0.36998 0.26964 0.0
C2190 C 0.86823 0.29545 0.22974 0.0
C2191 C 0.85796 0.30257 0.23562 0.0
C2192 C 0.85376 0.33001 0.25873 0.0
C2193 C 0.82161 0.34885 0.26016 0.0
C2194 C 0.83101 0.33762 0.25943 0.0
C2195 C 0.85972 0.3085 0.24808 0.0
C2196 C 0.84972 0.31788 0.25329 0.0
H2197 H 0.79846 0.3638 0.24098 0.0
H2198 H 0.81165 0.34379 0.24185 0.0
H2199 H 0.84805 0.34928 0.26515 0.0
H2200 H 0.8912 0.29838 0.25417 0.0
H2201 H 0.87325 0.31072 0.26455 0.0
C2202 C 0.8722 0.56943 0.51357 0.0
C2203 C 0.8715 0.55626 0.50938 0.0
C2204 C 0.88403 0.57643 0.51244 0.0
C2205 C 0.91092 0.57953 0.49027 0.0
H2206 H 0.92767 0.60095 0.51723 0.0
C2207 C 0.95032 0.61766 0.47579 0.0
C2208 C 0.94949 0.62988 0.48226 0.0
C2209 C 0.9435 0.60669 0.48068 0.0
C2210 C 0.92306 0.59513 0.50954 0.0
H2211 H 0.88234 0.53992 0.50091 0.0
H2212 H 0.90305 0.55233 0.49855 0.0
H2213 H 0.91019 0.5855 0.52337 0.0
H2214 H 0.94172 0.64002 0.49941 0.0
H2215 H 0.92912 0.62134 0.50744 0.0
H2216 H 0.92282 0.58974 0.47624 0.0
C2217 C 0.89457 0.55711 0.50299 0.0
C2218 C 0.91314 0.58621 0.51311 0.0
C2219 C 0.88281 0.55003 0.50439 0.0
C2220 C 0.94226 0.63079 0.49403 0.0
C2221 C 0.93523 0.61995 0.49878 0.0
C2222 C 0.9206 0.58865 0.48664 0.0
C2223 C 0.8952 0.57043 0.50679 0.0
C2224 C 0.90685 0.57852 0.50347 0.0
C2225 C 0.9355 0.6078 0.49203 0.0
C2226 C 0.92661 0.59681 0.49618 0.0
H2227 H 0.86347 0.57442 0.51723 0.0
H2228 H 0.88426 0.58675 0.51526 0.0
H2229 H 0.90608 0.57379 0.48264 0.0
H2230 H 0.95586 0.61668 0.46669 0.0
H2231 H 0.94424 0.59744 0.47537 0.0
C2232 C 0.12676 0.19963 0.22789 0.0
C2233 C 0.11487 0.20124 0.23477 0.0
C2234 C 0.13703 0.19224 0.23342 0.0
C2235 C 0.14139 0.16486 0.2566 0.0
H2236 H 0.17858 0.17082 0.24974 0.0
C2237 C 0.18009 0.12471 0.26773 0.0
C2238 C 0.18828 0.12205 0.25689 0.0
C2239 C 0.17254 0.13629 0.26803 0.0
C2240 C 0.16823 0.16905 0.25178 0.0
H2241 H 0.10461 0.19742 0.25313 0.0
H2242 H 0.12258 0.18463 0.26291 0.0
H2243 H 0.16259 0.18816 0.24467 0.0
H2244 H 0.19599 0.12975 0.2385 0.0
H2245 H 0.18277 0.14978 0.23888 0.0
H2246 H 0.14692 0.14558 0.26319 0.0
C2247 C 0.12392 0.18877 0.25314 0.0
C2248 C 0.15908 0.17896 0.24886 0.0
C2249 C 0.11366 0.19611 0.24758 0.0
C2250 C 0.18951 0.13147 0.24683 0.0
C2251 C 0.18206 0.14303 0.24714 0.0
C2252 C 0.15053 0.15496 0.25952 0.0
C2253 C 0.13556 0.18641 0.24596 0.0
C2254 C 0.14552 0.17683 0.25088 0.0
C2255 C 0.17325 0.14544 0.25758 0.0
C2256 C 0.164 0.15679 0.25677 0.0
H2257 H 0.12785 0.20349 0.21797 0.0
H2258 H 0.14581 0.19051 0.22757 0.0
H2259 H 0.13101 0.1628 0.25814 0.0
H2260 H 0.17916 0.11762 0.27569 0.0
H2261 H 0.16594 0.13796 0.27628 0.0
C2262 C 0.44272 0.86205 0.49484 0.0
C2263 C 0.44874 0.8642 0.50714 0.0
C2264 C 0.43612 0.87232 0.48843 0.0
C2265 C 0.42983 0.90856 0.48904 0.0
H2266 H 0.39428 0.89803 0.47938 0.0
C2267 C 0.38519 0.94268 0.4932 0.0
C2268 C 0.3743 0.94092 0.48483 0.0
C2269 C 0.39628 0.93463 0.49199 0.0
C2270 C 0.40425 0.90116 0.48167 0.0
H2271 H 0.45348 0.87881 0.52199 0.0
H2272 H 0.44181 0.89679 0.51092 0.0
H2273 H 0.41059 0.88126 0.48452 0.0
H2274 H 0.36678 0.93026 0.4679 0.0
H2275 H 0.3863 0.91608 0.46568 0.0
H2276 H 0.42323 0.92852 0.48675 0.0
C2277 C 0.44225 0.88724 0.50612 0.0
C2278 C 0.41363 0.89152 0.48465 0.0
C2279 C 0.44888 0.87696 0.51251 0.0
C2280 C 0.37504 0.93167 0.47456 0.0
C2281 C 0.38616 0.92354 0.47334 0.0
C2282 C 0.42044 0.91822 0.48603 0.0
C2283 C 0.43543 0.88492 0.49423 0.0
C2284 C 0.42639 0.89511 0.4888 0.0
C2285 C 0.39673 0.92467 0.48232 0.0
C2286 C 0.40741 0.91463 0.48278 0.0
H2287 H 0.44275 0.85232 0.49039 0.0
H2288 H 0.43118 0.87028 0.47916 0.0
H2289 H 0.43964 0.91162 0.49198 0.0
H2290 H 0.385 0.95007 0.50093 0.0
H2291 H 0.40418 0.93576 0.49912 0.0
C2292 C 0.82214 0.61984 0.23102 0.0
C2293 C 0.80846 0.62094 0.23271 0.0
C2294 C 0.83024 0.63084 0.23277 0.0
C2295 C 0.83094 0.66713 0.23919 0.0
H2296 H 0.85994 0.65715 0.26213 0.0
C2297 C 0.87208 0.70277 0.25842 0.0
C2298 C 0.87671 0.70036 0.27125 0.0
C2299 C 0.86249 0.69451 0.25283 0.0
C2300 C 0.85183 0.66014 0.25583 0.0
H2301 H 0.79231 0.63435 0.23666 0.0
H2302 H 0.80649 0.65363 0.24002 0.0
H2303 H 0.84624 0.64016 0.2524 0.0
H2304 H 0.87464 0.68817 0.28863 0.0
H2305 H 0.85763 0.67396 0.2791 0.0
H2306 H 0.83648 0.68725 0.24307 0.0
C2307 C 0.81099 0.64438 0.23707 0.0
C2308 C 0.8441 0.65037 0.25003 0.0
C2309 C 0.80286 0.63338 0.23513 0.0
C2310 C 0.87111 0.69018 0.27873 0.0
C2311 C 0.8615 0.68201 0.27321 0.0
C2312 C 0.83874 0.67698 0.24502 0.0
C2313 C 0.82481 0.64307 0.23653 0.0
C2314 C 0.83352 0.6537 0.24168 0.0
C2315 C 0.85748 0.68374 0.26003 0.0
C2316 C 0.84916 0.67356 0.25355 0.0
H2317 H 0.82662 0.6103 0.22917 0.0
H2318 H 0.84083 0.62958 0.23196 0.0
H2319 H 0.82287 0.67001 0.23278 0.0
H2320 H 0.87646 0.71051 0.25247 0.0
H2321 H 0.85962 0.69606 0.24264 0.0
C2322 C 0.61567 0.29982 0.74809 0.0
C2323 C 0.61755 0.2956 0.76115 0.0
C2324 C 0.62579 0.3063 0.74136 0.0
C2325 C 0.66139 0.31497 0.74227 0.0
H2326 H 0.64915 0.34883 0.72922 0.0
C2327 C 0.6931 0.36141 0.74306 0.0
C2328 C 0.69067 0.37169 0.73414 0.0
C2329 C 0.68576 0.34979 0.74248 0.0
C2330 C 0.65279 0.3393 0.73244 0.0
H2331 H 0.6316 0.29381 0.77713 0.0
H2332 H 0.6494 0.30524 0.7654 0.0
H2333 H 0.6332 0.33211 0.7355 0.0
H2334 H 0.67954 0.37768 0.71694 0.0
H2335 H 0.66669 0.35715 0.71568 0.0
H2336 H 0.68101 0.32237 0.73962 0.0
C2337 C 0.64014 0.30352 0.76032 0.0
C2338 C 0.6436 0.3297 0.73609 0.0
C2339 C 0.62997 0.29705 0.76707 0.0
C2340 C 0.68148 0.36985 0.72396 0.0
C2341 C 0.6741 0.35816 0.72332 0.0
C2342 C 0.67059 0.32455 0.73851 0.0
C2343 C 0.63799 0.3086 0.74756 0.0
C2344 C 0.6478 0.31762 0.74148 0.0
C2345 C 0.67585 0.34819 0.73287 0.0
C2346 C 0.66639 0.33702 0.73404 0.0
H2347 H 0.60619 0.29856 0.74329 0.0
H2348 H 0.62392 0.30993 0.73147 0.0
H2349 H 0.66489 0.30566 0.74621 0.0
H2350 H 0.70029 0.3626 0.75089 0.0
H2351 H 0.68732 0.34245 0.75009 0.0
C2352 C 0.49893 0.55553 0.63621 0.0
C2353 C 0.51107 0.54933 0.63376 0.0
C2354 C 0.49215 0.56186 0.62601 0.0
C2355 C 0.49126 0.56656 0.58951 0.0
H2356 H 0.4812 0.60232 0.59882 0.0
C2357 C 0.49426 0.61009 0.55403 0.0
C2358 C 0.48568 0.62085 0.5555 0.0
C2359 C 0.49321 0.59917 0.56232 0.0
C2360 C 0.4836 0.59227 0.59606 0.0
H2361 H 0.52533 0.54412 0.61873 0.0
H2362 H 0.51365 0.55535 0.60088 0.0
H2363 H 0.48726 0.58688 0.6161 0.0
H2364 H 0.4686 0.62833 0.56592 0.0
H2365 H 0.4667 0.60911 0.58058 0.0
H2366 H 0.48823 0.57226 0.56937 0.0
C2367 C 0.50923 0.55524 0.61062 0.0
C2368 C 0.48711 0.58339 0.60599 0.0
C2369 C 0.51598 0.54887 0.62083 0.0
C2370 C 0.47537 0.62013 0.5647 0.0
C2371 C 0.47434 0.6092 0.5731 0.0
C2372 C 0.48775 0.57546 0.57956 0.0
C2373 C 0.49741 0.5621 0.61316 0.0
C2374 C 0.49143 0.57058 0.6028 0.0
C2375 C 0.48355 0.5988 0.57227 0.0
C2376 C 0.48436 0.58855 0.58271 0.0
H2377 H 0.49481 0.55572 0.64608 0.0
H2378 H 0.48295 0.56684 0.62824 0.0
H2379 H 0.49429 0.55668 0.58676 0.0
H2380 H 0.50212 0.61035 0.54678 0.0
H2381 H 0.50052 0.5914 0.56145 0.0
C2382 C 0.63559 0.242 0.79957 0.0
C2383 C 0.62412 0.23732 0.80576 0.0
C2384 C 0.6473 0.24335 0.80675 0.0
C2385 C 0.66549 0.23351 0.83614 0.0
H2386 H 0.67546 0.27034 0.83942 0.0
C2387 C 0.69465 0.25267 0.88069 0.0
C2388 C 0.702 0.26438 0.87975 0.0
C2389 C 0.68759 0.24793 0.86986 0.0
C2390 C 0.67316 0.25995 0.83841 0.0
H2391 H 0.61578 0.22993 0.82397 0.0
H2392 H 0.63648 0.23176 0.83648 0.0
H2393 H 0.65876 0.26391 0.82342 0.0
H2394 H 0.70854 0.27982 0.86652 0.0
H2395 H 0.69685 0.27116 0.84728 0.0
H2396 H 0.67991 0.22941 0.85098 0.0
C2397 C 0.63641 0.2344 0.82611 0.0
C2398 C 0.6635 0.2563 0.82926 0.0
C2399 C 0.62463 0.23334 0.819 0.0
C2400 C 0.70291 0.27078 0.86751 0.0
C2401 C 0.69604 0.26589 0.85654 0.0
C2402 C 0.67539 0.23709 0.84508 0.0
C2403 C 0.64772 0.23979 0.82014 0.0
C2404 C 0.65933 0.24313 0.82832 0.0
C2405 C 0.68794 0.25461 0.85767 0.0
C2406 C 0.67904 0.25044 0.84667 0.0
H2407 H 0.63528 0.24534 0.78941 0.0
H2408 H 0.65589 0.2476 0.802 0.0
H2409 H 0.66246 0.22326 0.83549 0.0
H2410 H 0.69402 0.24737 0.88995 0.0
H2411 H 0.6814 0.23933 0.87128 0.0
C2412 C 0.01371 0.37103 0.07473 0.0
C2413 C 0.01475 0.37092 0.06093 0.0
C2414 C 0.01366 0.38297 0.0816 0.0
C2415 C 0.0036 0.41711 0.07637 0.0
H2416 H 0.01524 0.42061 0.11267 0.0
C2417 C 0.9756 0.44726 0.11515 0.0
C2418 C 0.98251 0.45253 0.1259 0.0
C2419 C 0.98236 0.44029 0.10534 0.0
C2420 C 0.01213 0.42001 0.10245 0.0
H2421 H 0.01765 0.38299 0.04352 0.0
H2422 H 0.01771 0.40396 0.05557 0.0
H2423 H 0.02342 0.40243 0.0993 0.0
H2424 H 0.00175 0.4556 0.13462 0.0
H2425 H 0.01371 0.44371 0.1173 0.0
H2426 H 0.99208 0.43454 0.07962 0.0
C2427 C 0.01671 0.39484 0.06106 0.0
C2428 C 0.01672 0.40947 0.09484 0.0
C2429 C 0.0168 0.38285 0.05418 0.0
C2430 C 0.99631 0.45157 0.12633 0.0
C2431 C 0.00309 0.44468 0.1165 0.0
C2432 C 0.99904 0.42769 0.08398 0.0
C2433 C 0.01469 0.39504 0.0748 0.0
C2434 C 0.01211 0.40761 0.08189 0.0
C2435 C 0.99614 0.43853 0.10615 0.0
C2436 C 0.00287 0.42898 0.09726 0.0
H2437 H 0.01231 0.36192 0.08015 0.0
H2438 H 0.01199 0.38274 0.09217 0.0
H2439 H -0.00021 0.41594 0.06645 0.0
H2440 H 0.96492 0.44785 0.11476 0.0
H2441 H 0.97666 0.43556 0.09763 0.0
C2442 C 0.80417 0.74338 0.37995 0.0
C2443 C 0.79676 0.73182 0.37808 0.0
C2444 C 0.81064 0.74932 0.36935 0.0
C2445 C 0.82334 0.74073 0.33612 0.0
H2446 H 0.83471 0.77732 0.33698 0.0
C2447 C 0.8611 0.76091 0.2991 0.0
C2448 C 0.87276 0.76429 0.3058 0.0
C2449 C 0.84923 0.75972 0.30603 0.0
C2450 C 0.83146 0.76713 0.33654 0.0
H2451 H 0.78933 0.71802 0.36354 0.0
H2452 H 0.79997 0.72883 0.34481 0.0
H2453 H 0.81765 0.76978 0.35228 0.0
H2454 H 0.8812 0.76988 0.32461 0.0
H2455 H 0.86028 0.7683 0.3367 0.0
H2456 H 0.83716 0.73819 0.32034 0.0
C2457 C 0.80134 0.73299 0.35456 0.0
C2458 C 0.8218 0.76274 0.34538 0.0
C2459 C 0.7951 0.72687 0.36525 0.0
C2460 C 0.87225 0.76743 0.31927 0.0
C2461 C 0.86032 0.76652 0.32614 0.0
C2462 C 0.83274 0.74521 0.32711 0.0
C2463 C 0.80957 0.74406 0.35653 0.0
C2464 C 0.81797 0.74935 0.34563 0.0
C2465 C 0.84884 0.76217 0.31967 0.0
C2466 C 0.83718 0.75832 0.32753 0.0
H2467 H 0.8053 0.74761 0.38971 0.0
H2468 H 0.81694 0.75771 0.37141 0.0
H2469 H 0.82089 0.73033 0.33606 0.0
H2470 H 0.86137 0.75824 0.28874 0.0
H2471 H 0.8405 0.75629 0.30088 0.0
C2472 C 0.50232 0.45035 0.86975 0.0
C2473 C 0.51573 0.44986 0.86637 0.0
C2474 C 0.49737 0.44209 0.87965 0.0
C2475 C 0.50432 0.40961 0.89309 0.0
H2476 H 0.47842 0.41809 0.92002 0.0
C2477 C 0.48097 0.3682 0.92238 0.0
C2478 C 0.48203 0.36967 0.93609 0.0
C2479 C 0.48235 0.37913 0.91412 0.0
C2480 C 0.48563 0.41561 0.91252 0.0
H2481 H 0.53465 0.44101 0.87073 0.0
H2482 H 0.52608 0.42658 0.88813 0.0
H2483 H 0.4875 0.43574 0.90606 0.0
H2484 H 0.48431 0.38363 0.95211 0.0
H2485 H 0.48689 0.40285 0.93765 0.0
H2486 H 0.5027 0.38962 0.89948 0.0
C2487 C 0.51935 0.43328 0.88318 0.0
C2488 C 0.49079 0.42567 0.90454 0.0
C2489 C 0.52428 0.44156 0.87335 0.0
C2490 C 0.48332 0.38235 0.94153 0.0
C2491 C 0.48483 0.39331 0.93326 0.0
C2492 C 0.49913 0.3996 0.90094 0.0
C2493 C 0.50577 0.43314 0.88613 0.0
C2494 C 0.50028 0.42275 0.89483 0.0
C2495 C 0.485 0.39168 0.91946 0.0
C2496 C 0.48974 0.40246 0.91075 0.0
H2497 H 0.49558 0.45661 0.86429 0.0
H2498 H 0.48686 0.44212 0.88165 0.0
H2499 H 0.51145 0.40702 0.88554 0.0
H2500 H 0.47996 0.35848 0.91802 0.0
H2501 H 0.48215 0.37763 0.90353 0.0
C2502 C 0.86121 0.24256 0.19554 0.0
C2503 C 0.87236 0.23652 0.18999 0.0
C2504 C 0.8496 0.24374 0.18819 0.0
C2505 C 0.8318 0.23232 0.15855 0.0
H2506 H 0.82075 0.26886 0.15572 0.0
C2507 C 0.80323 0.25218 0.11378 0.0
C2508 C 0.79521 0.26339 0.11517 0.0
C2509 C 0.81019 0.24717 0.12457 0.0
C2510 C 0.8234 0.25854 0.15659 0.0
H2511 H 0.88023 0.22657 0.17283 0.0
H2512 H 0.85978 0.22841 0.15995 0.0
H2513 H 0.83738 0.26275 0.17185 0.0
H2514 H 0.78731 0.27755 0.12911 0.0
H2515 H 0.79893 0.26845 0.14816 0.0
H2516 H 0.81788 0.2281 0.14322 0.0
C2517 C 0.85996 0.23214 0.16998 0.0
C2518 C 0.833 0.25505 0.16583 0.0
C2519 C 0.87163 0.23109 0.17729 0.0
C2520 C 0.79348 0.26892 0.12776 0.0
C2521 C 0.80028 0.2638 0.13862 0.0
C2522 C 0.82203 0.23577 0.14942 0.0
C2523 C 0.84897 0.23883 0.17523 0.0
C2524 C 0.83753 0.24198 0.16668 0.0
C2525 C 0.80908 0.25313 0.13708 0.0
C2526 C 0.81796 0.249 0.14807 0.0
H2527 H 0.86169 0.24691 0.2053 0.0
H2528 H 0.84126 0.2489 0.19247 0.0
H2529 H 0.83505 0.22214 0.15911 0.0
H2530 H 0.80446 0.24749 0.10425 0.0
H2531 H 0.81689 0.23902 0.12291 0.0
C2532 C 0.01136 0.61317 0.43992 0.0
C2533 C 0.00787 0.62547 0.43456 0.0
C2534 C 0.0112 0.60183 0.43201 0.0
C2535 C 0.00998 0.59053 0.39715 0.0
H2536 H 0.99019 0.56091 0.41123 0.0
C2537 C 0.9958 0.54758 0.36348 0.0
C2538 C 0.98247 0.54391 0.36418 0.0
C2539 C 0.00148 0.55513 0.37351 0.0
C2540 C 0.99577 0.56908 0.40716 0.0
H2541 H 0.00256 0.63583 0.41663 0.0
H2542 H 0.00211 0.61612 0.40287 0.0
H2543 H 0.9959 0.57939 0.42563 0.0
H2544 H 0.96476 0.54443 0.37608 0.0
H2545 H 0.97453 0.55795 0.39356 0.0
H2546 H 0.00919 0.58071 0.37853 0.0
C2547 C 0.00494 0.61513 0.41314 0.0
C2548 C -0.00082 0.57959 0.41545 0.0
C2549 C 0.00503 0.6264 0.42104 0.0
C2550 C 0.97509 0.54717 0.37541 0.0
C2551 C 0.98073 0.55485 0.38542 0.0
C2552 C 0.00656 0.58006 0.38887 0.0
C2553 C 0.00772 0.60266 0.41859 0.0
C2554 C 0.00599 0.5906 0.41043 0.0
C2555 C 0.99387 0.55929 0.38436 0.0
C2556 C -0.00089 0.56936 0.39369 0.0
H2557 H 0.01362 0.61223 0.45033 0.0
H2558 H 0.01353 0.59238 0.43645 0.0
H2559 H 0.01539 0.59879 0.39303 0.0
H2560 H 0.00168 0.54502 0.3549 0.0
H2561 H 0.0117 0.55813 0.37252 0.0
C2562 C 0.62138 0.76085 0.67427 0.0
C2563 C 0.62181 0.75846 0.6879 0.0
C2564 C 0.633 0.76067 0.66685 0.0
C2565 C 0.66234 0.74244 0.66458 0.0
H2566 H 0.67533 0.76924 0.64055 0.0
C2567 C 0.7018 0.729 0.62628 0.0
C2568 C 0.70002 0.73437 0.61364 0.0
C2569 C 0.69488 0.73412 0.63708 0.0
C2570 C 0.67178 0.76158 0.6471 0.0
H2571 H 0.63449 0.75431 0.70461 0.0
H2572 H 0.65486 0.75351 0.69147 0.0
H2573 H 0.65766 0.77464 0.65606 0.0
H2574 H 0.69055 0.75004 0.60257 0.0
H2575 H 0.67773 0.75827 0.62099 0.0
H2576 H 0.67542 0.72901 0.65508 0.0
C2577 C 0.6456 0.75585 0.68664 0.0
C2578 C 0.66176 0.76475 0.65605 0.0
C2579 C 0.63401 0.75635 0.69411 0.0
C2580 C 0.69179 0.74541 0.61213 0.0
C2581 C 0.68463 0.75032 0.62282 0.0
C2582 C 0.6721 0.73916 0.65542 0.0
C2583 C 0.64513 0.75778 0.67292 0.0
C2584 C 0.65685 0.75514 0.6647 0.0
C2585 C 0.68581 0.74455 0.63541 0.0
C2586 C 0.67678 0.7486 0.64634 0.0
H2587 H 0.61202 0.76238 0.66932 0.0
H2588 H 0.63243 0.76202 0.65625 0.0
H2589 H 0.65856 0.73483 0.67109 0.0
H2590 H 0.70812 0.72051 0.62776 0.0
H2591 H 0.69639 0.72963 0.64666 0.0
C2592 C 0.5683 0.48538 0.6203 0.0
C2593 C 0.55705 0.49313 0.6225 0.0
C2594 C 0.57527 0.48655 0.60842 0.0
C2595 C 0.5818 0.51201 0.58386 0.0
H2596 H 0.60074 0.48437 0.56535 0.0
C2597 C 0.61841 0.52532 0.54295 0.0
C2598 C 0.63062 0.51885 0.54373 0.0
C2599 C 0.60758 0.52059 0.55007 0.0
C2600 C 0.59554 0.4922 0.57045 0.0
H2601 H 0.54355 0.50727 0.61392 0.0
H2602 H 0.55557 0.50924 0.59313 0.0
H2603 H 0.58493 0.4785 0.58266 0.0
H2604 H 0.64093 0.50187 0.55165 0.0
H2605 H 0.62225 0.4939 0.56453 0.0
H2606 H 0.59273 0.52574 0.57225 0.0
C2607 C 0.55921 0.50247 0.60057 0.0
C2608 C 0.58648 0.48883 0.58033 0.0
C2609 C 0.55231 0.50133 0.61242 0.0
C2610 C 0.63166 0.50718 0.55112 0.0
C2611 C 0.62089 0.50251 0.55834 0.0
C2612 C 0.59088 0.51537 0.57409 0.0
C2613 C 0.57104 0.49549 0.59864 0.0
C2614 C 0.57966 0.49872 0.58725 0.0
C2615 C 0.6088 0.50935 0.55818 0.0
C2616 C 0.59803 0.50554 0.5674 0.0
H2617 H 0.57211 0.47904 0.62803 0.0
H2618 H 0.5844 0.4811 0.60724 0.0
H2619 H 0.57691 0.51989 0.58919 0.0
H2620 H 0.61738 0.5343 0.53724 0.0
H2621 H 0.59834 0.52595 0.54951 0.0
C2622 C 0.76369 0.32342 0.87911 0.0
C2623 C 0.76267 0.30978 0.87712 0.0
C2624 C 0.76224 0.33209 0.86851 0.0
C2625 C 0.75798 0.33453 0.83197 0.0
H2626 H 0.73371 0.3624 0.84202 0.0
C2627 C 0.73901 0.37605 0.79675 0.0
C2628 C 0.72585 0.37998 0.79855 0.0
C2629 C 0.74465 0.36664 0.80516 0.0
C2630 C 0.7404 0.35461 0.83901 0.0
H2631 H 0.76019 0.29429 0.86261 0.0
H2632 H 0.75729 0.30944 0.84402 0.0
H2633 H 0.74288 0.34815 0.85886 0.0
H2634 H 0.70803 0.37695 0.80988 0.0
H2635 H 0.71768 0.36027 0.82437 0.0
H2636 H 0.75501 0.34088 0.81196 0.0
C2637 C 0.7595 0.3135 0.85366 0.0
C2638 C 0.74587 0.34658 0.84871 0.0
C2639 C 0.76116 0.30482 0.86428 0.0
C2640 C 0.71819 0.37397 0.80836 0.0
C2641 C 0.72377 0.36455 0.81669 0.0
C2642 C 0.75246 0.34263 0.8222 0.0
C2643 C 0.75943 0.32724 0.85579 0.0
C2644 C 0.75466 0.33638 0.84534 0.0
C2645 C 0.73717 0.36111 0.81548 0.0
C2646 C 0.74346 0.35263 0.82563 0.0
H2647 H 0.76486 0.3274 0.88898 0.0
H2648 H 0.76258 0.34261 0.87042 0.0
H2649 H 0.76476 0.32679 0.82906 0.0
H2650 H 0.74508 0.38075 0.7893 0.0
H2651 H 0.755 0.36423 0.80403 0.0
C2652 C 0.86496 0.49361 0.05177 0.0
C2653 C 0.86629 0.4819 0.04449 0.0
C2654 C 0.87567 0.49884 0.05867 0.0
C2655 C 0.90778 0.48819 0.07275 0.0
H2656 H 0.90908 0.52494 0.08355 0.0
C2657 C 0.94581 0.50766 0.11031 0.0
C2658 C 0.93931 0.51148 0.12194 0.0
C2659 C 0.93874 0.5063 0.09853 0.0
C2660 C 0.9089 0.51469 0.08048 0.0
H2661 H 0.88008 0.46698 0.03785 0.0
H2662 H 0.89909 0.47652 0.04923 0.0
H2663 H 0.89379 0.51815 0.06617 0.0
H2664 H 0.92068 0.51747 0.13045 0.0
H2665 H 0.90835 0.51566 0.10965 0.0
H2666 H 0.92303 0.48488 0.08703 0.0
C2667 C 0.88962 0.4814 0.05014 0.0
C2668 C 0.90006 0.51073 0.07062 0.0
C2669 C 0.87878 0.476 0.04345 0.0
C2670 C 0.92587 0.51472 0.12151 0.0
C2671 C 0.91886 0.51368 0.10966 0.0
C2672 C 0.91682 0.49223 0.08235 0.0
C2673 C 0.88812 0.49267 0.05819 0.0
C2674 C 0.89903 0.49733 0.06696 0.0
C2675 C 0.92515 0.50903 0.0982 0.0
C2676 C 0.91717 0.50542 0.08655 0.0
H2677 H 0.8555 0.49854 0.05247 0.0
H2678 H 0.87395 0.50741 0.06482 0.0
H2679 H 0.90722 0.47777 0.07044 0.0
H2680 H 0.95614 0.50488 0.11054 0.0
H2681 H 0.94374 0.50263 0.08982 0.0
C2682 C 0.75459 0.61641 0.30117 0.0
C2683 C 0.76641 0.61756 0.29406 0.0
C2684 C 0.74945 0.62722 0.30799 0.0
C2685 C 0.76061 0.65897 0.32239 0.0
H2686 H 0.72371 0.66125 0.33245 0.0
C2687 C 0.742 0.69715 0.36011 0.0
C2688 C 0.73696 0.69081 0.37135 0.0
C2689 C 0.7435 0.69017 0.3483 0.0
C2690 C 0.73401 0.66079 0.3296 0.0
H2691 H 0.78161 0.63109 0.28754 0.0
H2692 H 0.77229 0.65026 0.29886 0.0
H2693 H 0.73041 0.64583 0.31515 0.0
H2694 H 0.72907 0.67258 0.37914 0.0
H2695 H 0.73119 0.66043 0.35828 0.0
H2696 H 0.7641 0.67402 0.33685 0.0
C2697 C 0.76724 0.64087 0.29969 0.0
C2698 C 0.73791 0.65189 0.31978 0.0
C2699 C 0.77251 0.62995 0.29306 0.0
C2700 C 0.73274 0.67766 0.37048 0.0
C2701 C 0.73397 0.67076 0.35859 0.0
C2702 C 0.75665 0.66806 0.33198 0.0
C2703 C 0.75586 0.63955 0.30761 0.0
C2704 C 0.75134 0.65052 0.31636 0.0
C2705 C 0.73977 0.67683 0.34754 0.0
C2706 C 0.7434 0.66877 0.33593 0.0
H2707 H 0.74953 0.60701 0.30184 0.0
H2708 H 0.74078 0.62566 0.31404 0.0
H2709 H 0.77105 0.65813 0.32027 0.0
H2710 H 0.74552 0.70724 0.3607 0.0
H2711 H 0.74804 0.69501 0.33991 0.0
C2712 C 0.62106 0.47384 0.94803 0.0
C2713 C 0.63247 0.48091 0.95137 0.0
C2714 C 0.61132 0.47971 0.94019 0.0
C2715 C 0.6087 0.50563 0.91492 0.0
H2716 H 0.57166 0.49599 0.91555 0.0
C2717 C 0.57635 0.50561 0.8686 0.0
C2718 C 0.56285 0.50848 0.86968 0.0
C2719 C 0.58432 0.50525 0.87983 0.0
C2720 C 0.58192 0.49899 0.91535 0.0
H2721 H 0.64236 0.49981 0.95019 0.0
H2722 H 0.62521 0.51025 0.93682 0.0
H2723 H 0.58588 0.48981 0.93398 0.0
H2724 H 0.54722 0.51414 0.88313 0.0
H2725 H 0.56121 0.51369 0.90285 0.0
H2726 H 0.60479 0.51472 0.89627 0.0
C2727 C 0.62388 0.50009 0.93986 0.0
C2728 C 0.59011 0.4953 0.92584 0.0
C2729 C 0.63364 0.49417 0.94757 0.0
C2730 C 0.55761 0.51184 0.88207 0.0
C2731 C 0.56558 0.51146 0.89334 0.0
C2732 C 0.60052 0.50936 0.90448 0.0
C2733 C 0.61282 0.49279 0.93568 0.0
C2734 C 0.60367 0.49827 0.92558 0.0
C2735 C 0.57896 0.50785 0.89238 0.0
C2736 C 0.58712 0.50575 0.90438 0.0
H2737 H 0.62003 0.46357 0.95087 0.0
H2738 H 0.60301 0.47374 0.93707 0.0
H2739 H 0.61911 0.50798 0.91428 0.0
H2740 H 0.58069 0.50326 0.85911 0.0
H2741 H 0.59455 0.50235 0.87871 0.0
C2742 C 0.76702 0.3687 0.20029 0.0
C2743 C 0.76096 0.38109 0.20131 0.0
C2744 C 0.76081 0.35851 0.19335 0.0
C2745 C 0.73756 0.35483 0.16593 0.0
H2746 H 0.74319 0.31751 0.1723 0.0
C2747 C 0.72665 0.31632 0.12562 0.0
C2748 C 0.73756 0.30814 0.12315 0.0
C2749 C 0.72606 0.32375 0.13727 0.0
C2750 C 0.74146 0.3279 0.17043 0.0
H2751 H 0.74327 0.39234 0.19718 0.0
H2752 H 0.73226 0.37448 0.18519 0.0
H2753 H 0.74839 0.33349 0.18962 0.0
H2754 H 0.75567 0.30024 0.13133 0.0
H2755 H 0.7548 0.3133 0.15146 0.0
H2756 H 0.73118 0.34933 0.14658 0.0
C2757 C 0.74194 0.37269 0.18938 0.0
C2758 C 0.74447 0.33704 0.18033 0.0
C2759 C 0.7482 0.38288 0.19625 0.0
C2760 C 0.74736 0.30679 0.13284 0.0
C2761 C 0.74673 0.3141 0.14448 0.0
C2762 C 0.73453 0.3457 0.15606 0.0
C2763 C 0.74838 0.36054 0.18743 0.0
C2764 C 0.74298 0.35065 0.17802 0.0
C2765 C 0.73626 0.32293 0.14668 0.0
C2766 C 0.73689 0.33218 0.15803 0.0
H2767 H 0.77686 0.36715 0.20419 0.0
H2768 H 0.76611 0.34933 0.19196 0.0
H2769 H 0.73644 0.36524 0.16373 0.0
H2770 H 0.71891 0.31738 0.11832 0.0
H2771 H 0.7178 0.33039 0.13877 0.0
C2772 C 0.87568 0.52124 0.44992 0.0
C2773 C 0.8632 0.51527 0.44906 0.0
C2774 C 0.88637 0.51611 0.44283 0.0
C2775 C 0.8966 0.48718 0.42177 0.0
H2776 H 0.91955 0.51327 0.40569 0.0
C2777 C 0.9233 0.48307 0.37132 0.0
C2778 C 0.93681 0.48607 0.37127 0.0
C2779 C 0.91596 0.48443 0.38293 0.0
C2780 C 0.91333 0.50586 0.41027 0.0
H2781 H 0.8523 0.49879 0.44087 0.0
H2782 H 0.8705 0.49041 0.42781 0.0
H2783 H 0.90365 0.52017 0.42229 0.0
H2784 H 0.95338 0.49269 0.38304 0.0
H2785 H 0.94039 0.49548 0.40334 0.0
H2786 H 0.90574 0.47312 0.40879 0.0
C2787 C 0.8723 0.49883 0.43415 0.0
C2788 C 0.90424 0.50978 0.41987 0.0
C2789 C 0.86174 0.50379 0.44145 0.0
C2790 C 0.943 0.4901 0.383 0.0
C2791 C 0.9356 0.49176 0.39452 0.0
C2792 C 0.90548 0.48335 0.41193 0.0
C2793 C 0.88474 0.50503 0.43454 0.0
C2794 C 0.89555 0.50054 0.42558 0.0
C2795 C 0.92198 0.48914 0.3945 0.0
C2796 C 0.91377 0.4927 0.40599 0.0
H2797 H 0.87708 0.5301 0.45575 0.0
H2798 H 0.89584 0.521 0.44366 0.0
H2799 H 0.89036 0.4797 0.42616 0.0
H2800 H 0.91836 0.48016 0.36229 0.0
H2801 H 0.90543 0.48252 0.38267 0.0
C2802 C 0.74684 0.68921 0.63217 0.0
C2803 C 0.75664 0.68786 0.62248 0.0
C2804 C 0.74704 0.68133 0.64345 0.0
C2805 C 0.7515 0.66567 0.66866 0.0
H2806 H 0.75471 0.62861 0.65955 0.0
C2807 C 0.74164 0.62149 0.70482 0.0
C2808 C 0.73301 0.61205 0.69943 0.0
C2809 C 0.74664 0.63168 0.69689 0.0
C2810 C 0.75391 0.63893 0.66227 0.0
H2811 H 0.77491 0.67803 0.61734 0.0
H2812 H 0.77525 0.66403 0.63713 0.0
H2813 H 0.7606 0.64536 0.64333 0.0
H2814 H 0.72242 0.60606 0.68184 0.0
H2815 H 0.73125 0.62363 0.66799 0.0
H2816 H 0.74421 0.65908 0.68745 0.0
C2817 C 0.76733 0.67112 0.63592 0.0
C2818 C 0.75741 0.64853 0.65304 0.0
C2819 C 0.76717 0.67912 0.62465 0.0
C2820 C 0.72919 0.61313 0.68616 0.0
C2821 C 0.73428 0.62314 0.67824 0.0
C2822 C 0.74809 0.65603 0.67796 0.0
C2823 C 0.75707 0.67191 0.64526 0.0
C2824 C 0.75583 0.66199 0.65597 0.0
C2825 C 0.7432 0.63238 0.68345 0.0
C2826 C 0.74883 0.64259 0.67465 0.0
H2827 H 0.73883 0.69617 0.6309 0.0
H2828 H 0.73896 0.68214 0.65041 0.0
H2829 H 0.75029 0.67599 0.67122 0.0
H2830 H 0.74483 0.62074 0.715 0.0
H2831 H 0.75349 0.63872 0.70112 0.0
C2832 C 0.61239 0.54869 0.4838 0.0
C2833 C 0.62405 0.55562 0.48096 0.0
C2834 C 0.60039 0.55543 0.48482 0.0
C2835 C 0.58248 0.58573 0.47704 0.0
H2836 H 0.56996 0.58465 0.5132 0.0
C2837 C 0.55404 0.6287 0.50009 0.0
C2838 C 0.54619 0.62669 0.51132 0.0
C2839 C 0.56063 0.61814 0.49419 0.0
C2840 C 0.57296 0.58486 0.50295 0.0
H2841 H 0.63242 0.57471 0.47629 0.0
H2842 H 0.61129 0.58648 0.47756 0.0
H2843 H 0.58687 0.56924 0.50604 0.0
H2844 H 0.53796 0.61196 0.52442 0.0
H2845 H 0.54887 0.59332 0.51369 0.0
H2846 H 0.56862 0.60131 0.47385 0.0
C2847 C 0.61143 0.57588 0.47904 0.0
C2848 C 0.58273 0.57604 0.49888 0.0
C2849 C 0.62347 0.5692 0.47833 0.0
C2850 C 0.54409 0.61378 0.51585 0.0
C2851 C 0.55049 0.60313 0.50978 0.0
C2852 C 0.57247 0.59437 0.48101 0.0
C2853 C 0.59988 0.56913 0.48272 0.0
C2854 C 0.58788 0.57671 0.48604 0.0
C2855 C 0.55925 0.60524 0.49917 0.0
C2856 C 0.56794 0.59442 0.49418 0.0
H2857 H 0.61271 0.53824 0.48608 0.0
H2858 H 0.59161 0.55007 0.48774 0.0
H2859 H 0.58627 0.58634 0.46706 0.0
H2860 H 0.5555 0.63853 0.49614 0.0
H2861 H 0.56732 0.6203 0.48614 0.0
C2862 C 0.11111 0.94517 0.50909 0.0
C2863 C 0.12302 0.93834 0.51096 0.0
C2864 C 0.09917 0.93826 0.50845 0.0
C2865 C 0.08176 0.90826 0.51692 0.0
H2866 H 0.06788 0.90814 0.48124 0.0
C2867 C 0.05199 0.8648 0.49666 0.0
C2868 C 0.04385 0.86642 0.48558 0.0
C2869 C 0.05887 0.87551 0.50192 0.0
C2870 C 0.07126 0.90827 0.49138 0.0
H2871 H 0.13195 0.91922 0.51421 0.0
H2872 H 0.11095 0.90712 0.51363 0.0
H2873 H 0.0852 0.92364 0.48721 0.0
H2874 H 0.03544 0.8807 0.47207 0.0
H2875 H 0.0468 0.89963 0.48174 0.0
H2876 H 0.06785 0.893 0.52124 0.0
C2877 C 0.11087 0.91777 0.51258 0.0
C2878 C 0.08127 0.91713 0.49474 0.0
C2879 C 0.12282 0.92464 0.51288 0.0
C2880 C 0.04176 0.87916 0.48057 0.0
C2881 C 0.04843 0.88997 0.48601 0.0
C2882 C 0.0715 0.8996 0.51367 0.0
C2883 C 0.09901 0.92449 0.51001 0.0
C2884 C 0.08688 0.91688 0.50739 0.0
C2885 C 0.05749 0.88821 0.49644 0.0
C2886 C 0.06647 0.89911 0.50069 0.0
H2887 H 0.11112 0.95574 0.50739 0.0
H2888 H 0.09013 0.94358 0.50634 0.0
H2889 H 0.08594 0.90798 0.52677 0.0
H2890 H 0.05346 0.85514 0.50099 0.0
H2891 H 0.06577 0.8736 0.50986 0.0
C2892 C 0.38564 0.80654 0.75088 0.0
C2893 C 0.3832 0.80004 0.73888 0.0
C2894 C 0.37551 0.81334 0.7573 0.0
C2895 C 0.33923 0.8189 0.75786 0.0
H2896 H 0.3492 0.85497 0.76605 0.0
C2897 C 0.30355 0.86241 0.75448 0.0
C2898 C 0.30551 0.87359 0.76239 0.0
C2899 C 0.31198 0.85158 0.75552 0.0
C2900 C 0.34624 0.84486 0.76418 0.0
H2901 H 0.36822 0.79478 0.72456 0.0
H2902 H 0.35048 0.80675 0.7357 0.0
H2903 H 0.36616 0.83896 0.76058 0.0
H2904 H 0.31693 0.88196 0.77839 0.0
H2905 H 0.33175 0.86288 0.78038 0.0
H2906 H 0.31922 0.825 0.76096 0.0
C2907 C 0.36017 0.80654 0.74024 0.0
C2908 C 0.356 0.83566 0.761 0.0
C2909 C 0.37031 0.79973 0.73382 0.0
C2910 C 0.31537 0.87344 0.7721 0.0
C2911 C 0.32386 0.86258 0.77317 0.0
C2912 C 0.32946 0.82811 0.76109 0.0
C2913 C 0.36275 0.81373 0.75185 0.0
C2914 C 0.35257 0.8227 0.75739 0.0
C2915 C 0.32251 0.8517 0.76458 0.0
C2916 C 0.33283 0.84131 0.76383 0.0
H2917 H 0.39545 0.80663 0.75513 0.0
H2918 H 0.37775 0.8186 0.76635 0.0
H2919 H 0.33631 0.80892 0.75533 0.0
H2920 H 0.29581 0.86226 0.74709 0.0
H2921 H 0.31068 0.84346 0.74868 0.0
C2922 C 0.3832 0.05222 0.00116 0.0
C2923 C 0.37261 0.05773 0.00816 0.0
C2924 C 0.39503 0.05915 -0.00014 0.0
C2925 C 0.41479 0.08704 0.01228 0.0
H2926 H 0.42404 0.09189 0.97544 0.0
C2927 C 0.445 0.1314 0.99404 0.0
C2928 C 0.45229 0.13041 0.9823 0.0
C2929 C 0.43768 0.12069 0.99864 0.0
C2930 C 0.4219 0.09042 0.98581 0.0
H2931 H 0.36606 0.07435 0.01986 0.0
H2932 H 0.38693 0.08654 0.01776 0.0
H2933 H 0.40684 0.0763 0.98137 0.0
H2934 H 0.4585 0.11722 0.96668 0.0
H2935 H 0.44622 0.0982 0.97503 0.0
H2936 H 0.42982 0.10121 0.01675 0.0
C2937 C 0.38611 0.07684 0.01332 0.0
C2938 C 0.41196 0.08151 0.9892 0.0
C2939 C 0.37421 0.06992 0.01451 0.0
C2940 C 0.45291 0.11823 0.97574 0.0
C2941 C 0.44573 0.10741 0.98045 0.0
C2942 C 0.4249 0.09583 0.00891 0.0
C2943 C 0.39648 0.07169 0.00563 0.0
C2944 C 0.40811 0.07995 0.00242 0.0
C2945 C 0.43767 0.10863 0.99173 0.0
C2946 C 0.42835 0.0979 0.99559 0.0
H2947 H 0.38213 0.04279 0.99623 0.0
H2948 H 0.40291 0.05492 0.99398 0.0
H2949 H 0.41208 0.08591 0.02256 0.0
H2950 H 0.44458 0.14064 -0.00057 0.0
H2951 H 0.43154 0.12212 0.00728 0.0
C2952 C 0.67661 0.61739 0.76529 0.0
C2953 C 0.69007 0.61914 0.7626 0.0
C2954 C 0.66786 0.62795 0.76395 0.0
C2955 C 0.6517 0.64666 0.74782 0.0
H2956 H 0.65877 0.68393 0.75317 0.0
C2957 C 0.6219 0.68515 0.71994 0.0
C2958 C 0.61692 0.69571 0.72733 0.0
C2959 C 0.63176 0.6771 0.72515 0.0
C2960 C 0.65663 0.67355 0.7517 0.0
H2961 H 0.7052 0.63327 0.75734 0.0
H2962 H 0.68989 0.65172 0.75467 0.0
H2963 H 0.67364 0.66741 0.76275 0.0
H2964 H 0.6185 0.70665 0.7456 0.0
H2965 H 0.63579 0.69243 0.75491 0.0
H2966 H 0.63471 0.65265 0.7369 0.0
C2967 C 0.68606 0.64232 0.75805 0.0
C2968 C 0.66517 0.6641 0.75712 0.0
C2969 C 0.69484 0.63178 0.75957 0.0
C2970 C 0.62236 0.69858 0.73974 0.0
C2971 C 0.63222 0.69045 0.74503 0.0
C2972 C 0.64321 0.65604 0.74245 0.0
C2973 C 0.67239 0.64036 0.75965 0.0
C2974 C 0.66284 0.65054 0.75513 0.0
C2975 C 0.6367 0.67937 0.73794 0.0
C2976 C 0.64568 0.66959 0.74413 0.0
H2977 H 0.67277 0.60769 0.76768 0.0
H2978 H 0.65744 0.62619 0.76559 0.0
H2979 H 0.6497 0.63634 0.74585 0.0
H2980 H 0.61776 0.68282 0.71034 0.0
H2981 H 0.63522 0.66882 0.71932 0.0
C2982 C 0.95228 0.37135 0.00704 0.0
C2983 C 0.95233 0.36863 0.02061 0.0
C2984 C 0.94402 0.38118 0.00198 0.0
C2985 C 0.91206 0.39533 0.00989 0.0
H2986 H 0.91899 0.41999 0.98141 0.0
C2987 C 0.86929 0.42198 0.98577 0.0
C2988 C 0.87057 0.43575 0.98531 0.0
C2989 C 0.88038 0.41406 0.98764 0.0
C2990 C 0.91695 0.41314 0.98936 0.0
H2991 H 0.94451 0.37419 0.03967 0.0
H2992 H 0.93015 0.39154 0.03091 0.0
H2993 H 0.93717 0.40684 0.99064 0.0
H2994 H 0.88434 0.45209 0.98541 0.0
H2995 H 0.90386 0.43821 0.98886 0.0
H2996 H 0.89198 0.40156 0.00881 0.0
C2997 C 0.9364 0.38609 0.02414 0.0
C2998 C 0.92732 0.40562 0.99461 0.0
C2999 C 0.94467 0.37629 0.02918 0.0
C3000 C 0.88319 0.44145 0.98564 0.0
C3001 C 0.89433 0.43352 0.98763 0.0
C3002 C 0.90176 0.40273 0.00462 0.0
C3003 C 0.93561 0.38828 0.01044 0.0
C3004 C 0.92496 0.3967 0.00498 0.0
C3005 C 0.89293 0.41979 0.98925 0.0
C3006 C 0.90404 0.41169 0.99428 0.0
H3007 H 0.95803 0.36535 0.0003 0.0
H3008 H 0.94355 0.38259 0.99138 0.0
H3009 H 0.90987 0.38837 0.01771 0.0
H3010 H 0.85961 0.41741 0.98545 0.0
H3011 H 0.87905 0.40348 0.98854 0.0
C3012 C 0.37012 0.19967 0.76891 0.0
C3013 C 0.38237 0.20083 0.76259 0.0
C3014 C 0.35982 0.19273 0.76287 0.0
C3015 C 0.35545 0.16538 0.73984 0.0
H3016 H 0.31824 0.17333 0.74404 0.0
C3017 C 0.31617 0.12619 0.7281 0.0
C3018 C 0.30708 0.1245 0.7384 0.0
C3019 C 0.32404 0.13757 0.72762 0.0
C3020 C 0.3286 0.17098 0.74276 0.0
H3021 H 0.39327 0.19668 0.74467 0.0
H3022 H 0.37531 0.18451 0.73409 0.0
H3023 H 0.33473 0.18998 0.74983 0.0
H3024 H 0.29811 0.13363 0.75549 0.0
H3025 H 0.31191 0.15326 0.75491 0.0
H3026 H 0.34945 0.1462 0.73345 0.0
C3027 C 0.37369 0.18873 0.74378 0.0
C3028 C 0.33803 0.18052 0.74607 0.0
C3029 C 0.38395 0.19567 0.74982 0.0
C3030 C 0.30527 0.13465 0.74763 0.0
C3031 C 0.31307 0.14597 0.74716 0.0
C3032 C 0.34605 0.15584 0.73659 0.0
C3033 C 0.36164 0.18685 0.7504 0.0
C3034 C 0.35156 0.17767 0.74501 0.0
C3035 C 0.32282 0.14742 0.73739 0.0
C3036 C 0.33252 0.15838 0.7384 0.0
H3037 H 0.36872 0.20357 0.77878 0.0
H3038 H 0.3507 0.19135 0.76828 0.0
H3039 H 0.36581 0.16281 0.73905 0.0
H3040 H 0.31761 0.11849 0.72082 0.0
H3041 H 0.33133 0.13847 0.71986 0.0
C3042 C 0.17269 0.87774 0.22882 0.0
C3043 C 0.18597 0.87557 0.23199 0.0
C3044 C 0.16361 0.86739 0.22952 0.0
C3045 C 0.14622 0.84881 0.24448 0.0
H3046 H 0.15284 0.81144 0.2393 0.0
C3047 C 0.11579 0.81048 0.27205 0.0
C3048 C 0.11108 0.79966 0.26485 0.0
C3049 C 0.12545 0.81869 0.2667 0.0
C3050 C 0.15081 0.82185 0.24069 0.0
H3051 H 0.20049 0.86094 0.23759 0.0
H3052 H 0.1846 0.84285 0.2392 0.0
H3053 H 0.16836 0.82771 0.23038 0.0
H3054 H 0.11282 0.78855 0.24668 0.0
H3055 H 0.12978 0.80306 0.23715 0.0
H3056 H 0.12872 0.84308 0.2547 0.0
C3057 C 0.18116 0.85241 0.23585 0.0
C3058 C 0.15973 0.83116 0.23566 0.0
C3059 C 0.19028 0.86275 0.23494 0.0
C3060 C 0.11646 0.79683 0.25241 0.0
C3061 C 0.12613 0.80511 0.24699 0.0
C3062 C 0.13735 0.83956 0.24945 0.0
C3063 C 0.16762 0.85477 0.23373 0.0
C3064 C 0.15761 0.84476 0.23765 0.0
C3065 C 0.13048 0.81632 0.25397 0.0
C3066 C 0.13966 0.82598 0.24786 0.0
H3067 H 0.16921 0.8876 0.22654 0.0
H3068 H 0.15332 0.86947 0.22749 0.0
H3069 H 0.14434 0.85916 0.24644 0.0
H3070 H 0.11174 0.81277 0.28168 0.0
H3071 H 0.1288 0.82708 0.27245 0.0
C3072 C 0.17673 0.04905 0.20398 0.0
C3073 C 0.17871 0.05815 0.2143 0.0
C3074 C 0.1641 0.04436 0.20099 0.0
C3075 C 0.13016 0.04115 0.2146 0.0
H3076 H 0.12048 0.03703 0.17776 0.0
C3077 C 0.0762 0.03559 0.19723 0.0
C3078 C 0.07333 0.02699 0.18668 0.0
C3079 C 0.08923 0.03801 0.20105 0.0
C3080 C 0.12308 0.03792 0.18809 0.0
H3081 H 0.16884 0.06939 0.22963 0.0
H3082 H 0.14673 0.06136 0.22428 0.0
H3083 H 0.14268 0.04432 0.18351 0.0
H3084 H 0.082 0.01396 0.17208 0.0
H3085 H 0.10488 0.01821 0.17879 0.0
H3086 H 0.11043 0.03498 0.21914 0.0
C3087 C 0.15502 0.05769 0.21861 0.0
C3088 C 0.13583 0.04212 0.19141 0.0
C3089 C 0.1677 0.06237 0.22164 0.0
C3090 C 0.08386 0.02061 0.18025 0.0
C3091 C 0.09696 0.02312 0.18404 0.0
C3092 C 0.1174 0.03698 0.21127 0.0
C3093 C 0.15304 0.04867 0.2082 0.0
C3094 C 0.13952 0.04389 0.20471 0.0
C3095 C 0.09979 0.03197 0.19441 0.0
C3096 C 0.11366 0.03542 0.19798 0.0
H3097 H 0.18497 0.0455 0.19815 0.0
H3098 H 0.16302 0.03725 0.19307 0.0
H3099 H 0.1327 0.04215 0.22494 0.0
H3100 H 0.06837 0.04069 0.20244 0.0
H3101 H 0.09102 0.04499 0.20896 0.0
C3102 C 0.20897 0.82322 0.44514 0.0
C3103 C 0.21924 0.82105 0.43601 0.0
C3104 C 0.20616 0.83591 0.44976 0.0
C3105 C 0.20938 0.87085 0.44057 0.0
H3106 H 0.19955 0.87723 0.47705 0.0
C3107 C 0.19836 0.92338 0.45919 0.0
C3108 C 0.18768 0.92515 0.4679 0.0
C3109 C 0.20299 0.91075 0.45615 0.0
C3110 C 0.20213 0.8756 0.4668 0.0
H3111 H 0.23477 0.83062 0.42481 0.0
H3112 H 0.22982 0.85288 0.43289 0.0
H3113 H 0.20658 0.85519 0.47022 0.0
H3114 H 0.17369 0.91495 0.48049 0.0
H3115 H 0.18165 0.89279 0.47498 0.0
H3116 H 0.20469 0.89111 0.43702 0.0
C3117 C 0.22391 0.84468 0.43639 0.0
C3118 C 0.20621 0.86297 0.46289 0.0
C3119 C 0.2268 0.83192 0.43182 0.0
C3120 C 0.18196 0.91394 0.47377 0.0
C3121 C 0.18656 0.90124 0.47064 0.0
C3122 C 0.20525 0.88344 0.44445 0.0
C3123 C 0.21348 0.84683 0.44535 0.0
C3124 C 0.20983 0.86042 0.44971 0.0
C3125 C 0.19703 0.89948 0.46163 0.0
C3126 C 0.20154 0.88601 0.45762 0.0
H3127 H 0.20293 0.8151 0.44862 0.0
H3128 H 0.19797 0.8372 0.45652 0.0
H3129 H 0.21186 0.86919 0.4303 0.0
H3130 H 0.20313 0.93178 0.4546 0.0
H3131 H 0.21127 0.90985 0.44944 0.0
C3132 C 0.32683 0.92714 0.72107 0.0
C3133 C 0.3159 0.93189 0.71394 0.0
C3134 C 0.33966 0.93123 0.71784 0.0
C3135 C 0.35904 0.94655 0.6905 0.0
H3136 H 0.38534 0.95165 0.71785 0.0
C3137 C 0.41117 0.96789 0.67955 0.0
C3138 C 0.42177 0.96103 0.68532 0.0
C3139 C 0.39812 0.96513 0.68331 0.0
C3140 C 0.37812 0.95021 0.71009 0.0
H3141 H 0.30995 0.94489 0.69796 0.0
H3142 H 0.33214 0.9522 0.6926 0.0
H3143 H 0.36294 0.94518 0.72392 0.0
H3144 H 0.42693 0.9461 0.69983 0.0
H3145 H 0.40431 0.9414 0.70638 0.0
H3146 H 0.37424 0.95167 0.67669 0.0
C3147 C 0.3309 0.94507 0.70047 0.0
C3148 C 0.36527 0.94644 0.71356 0.0
C3149 C 0.31812 0.94092 0.70362 0.0
C3150 C 0.41903 0.95157 0.69513 0.0
C3151 C 0.40604 0.94892 0.69897 0.0
C3152 C 0.37185 0.95042 0.68704 0.0
C3153 C 0.34188 0.94023 0.70746 0.0
C3154 C 0.35556 0.94447 0.70381 0.0
C3155 C 0.39541 0.95557 0.69304 0.0
C3156 C 0.38158 0.9522 0.69678 0.0
H3157 H 0.32549 0.92013 0.72904 0.0
H3158 H 0.34786 0.92713 0.72335 0.0
H3159 H 0.35193 0.94492 0.68267 0.0
H3160 H 0.41293 0.97522 0.67195 0.0
H3161 H 0.39014 0.9705 0.67862 0.0
C3162 C 0.31204 0.08111 0.97351 0.0
C3163 C 0.30654 0.06995 0.96734 0.0
C3164 C 0.30732 0.09381 0.97058 0.0
C3165 C 0.2888 0.1119 0.94451 0.0
H3166 H 0.28694 0.13965 0.97081 0.0
C3167 C 0.26767 0.16369 0.93236 0.0
C3168 C 0.27528 0.17442 0.93683 0.0
C3169 C 0.27033 0.15085 0.93684 0.0
C3170 C 0.28745 0.13202 0.96334 0.0
H3171 H 0.29133 0.06339 0.9537 0.0
H3172 H 0.28298 0.08532 0.94888 0.0
H3173 H 0.29395 0.11752 0.97731 0.0
H3174 H 0.29138 0.18005 0.94987 0.0
H3175 H 0.29592 0.15781 0.9576 0.0
H3176 H 0.28237 0.1264 0.93053 0.0
C3177 C 0.29118 0.08438 0.95568 0.0
C3178 C 0.29152 0.11933 0.96706 0.0
C3179 C 0.29594 0.07176 0.95852 0.0
C3180 C 0.28531 0.17204 0.94617 0.0
C3181 C 0.28788 0.15927 0.9507 0.0
C3182 C 0.28468 0.12455 0.94081 0.0
C3183 C 0.29693 0.09561 0.96148 0.0
C3184 C 0.29233 0.10911 0.95768 0.0
C3185 C 0.28055 0.14848 0.94597 0.0
C3186 C 0.28405 0.1348 0.95015 0.0
H3187 H 0.32024 0.08007 0.98031 0.0
H3188 H 0.31207 0.10223 0.97516 0.0
H3189 H 0.28952 0.10438 0.93694 0.0
H3190 H 0.25988 0.16516 0.92518 0.0
H3191 H 0.26441 0.14275 0.9331 0.0
C3192 C 0.0712 0.95841 0.29508 0.0
C3193 C 0.06929 0.96705 0.30581 0.0
C3194 C 0.08384 0.95585 0.29023 0.0
C3195 C 0.11849 0.9678 0.29025 0.0
H3196 H 0.12625 0.93126 0.28173 0.0
C3197 C 0.17153 0.94779 0.28447 0.0
C3198 C 0.17407 0.93794 0.27498 0.0
C3199 C 0.1587 0.95231 0.28671 0.0
C3200 C 0.12421 0.94154 0.28383 0.0
H3201 H 0.07925 0.98006 0.3196 0.0
H3202 H 0.10146 0.97544 0.3112 0.0
H3203 H 0.10415 0.93735 0.28889 0.0
H3204 H 0.16507 0.92549 0.26006 0.0
H3205 H 0.14257 0.93344 0.26397 0.0
H3206 H 0.13868 0.9719 0.28541 0.0
C3207 C 0.09308 0.97075 0.30646 0.0
C3208 C 0.11152 0.94506 0.28798 0.0
C3209 C 0.08037 0.97337 0.31132 0.0
C3210 C 0.16347 0.93306 0.26745 0.0
C3211 C 0.15057 0.93755 0.26976 0.0
C3212 C 0.13121 0.96428 0.28612 0.0
C3213 C 0.09498 0.96178 0.29598 0.0
C3214 C 0.10849 0.95821 0.29131 0.0
C3215 C 0.14802 0.94709 0.27957 0.0
C3216 C 0.13426 0.95108 0.28295 0.0
H3217 H 0.06291 0.95345 0.29048 0.0
H3218 H 0.08487 0.94913 0.28197 0.0
H3219 H 0.11647 0.97805 0.29254 0.0
H3220 H 0.17944 0.95183 0.29045 0.0
H3221 H 0.15712 0.95954 0.29443 0.0
C3222 C 0.29154 0.82643 0.5492 0.0
C3223 C 0.28237 0.82386 0.55932 0.0
C3224 C 0.29446 0.83938 0.54542 0.0
C3225 C 0.29459 0.8733 0.55815 0.0
H3226 H 0.29947 0.88295 0.52141 0.0
C3227 C 0.30556 0.92704 0.54287 0.0
C3228 C 0.31452 0.92929 0.53249 0.0
C3229 C 0.30104 0.91431 0.5457 0.0
C3230 C 0.29832 0.8804 0.53173 0.0
H3231 H 0.26888 0.83298 0.57323 0.0
H3232 H 0.27404 0.85567 0.56664 0.0
H3233 H 0.29224 0.86065 0.52705 0.0
H3234 H 0.32573 0.9198 0.51692 0.0
H3235 H 0.31808 0.89748 0.52204 0.0
H3236 H 0.30094 0.89286 0.56291 0.0
C3237 C 0.279 0.8476 0.56167 0.0
C3238 C 0.29411 0.86762 0.53496 0.0
C3239 C 0.27597 0.8346 0.56539 0.0
C3240 C 0.3188 0.91844 0.52495 0.0
C3241 C 0.31434 0.90564 0.52785 0.0
C3242 C 0.29889 0.88603 0.55494 0.0
C3243 C 0.28837 0.85013 0.55171 0.0
C3244 C 0.29222 0.8639 0.54821 0.0
C3245 C 0.30544 0.9034 0.53832 0.0
C3246 C 0.30083 0.88978 0.54168 0.0
H3247 H 0.29664 0.81842 0.54427 0.0
H3248 H 0.30181 0.84097 0.53781 0.0
H3249 H 0.29346 0.8707 0.56847 0.0
H3250 H 0.30193 0.93515 0.54883 0.0
H3251 H 0.29399 0.91307 0.55364 0.0
C3252 C 0.3312 0.06386 0.77233 0.0
C3253 C 0.32007 0.05847 0.77863 0.0
C3254 C 0.34388 0.05892 0.77504 0.0
C3255 C 0.36194 0.04065 0.8011 0.0
H3256 H 0.38926 0.03713 0.77454 0.0
C3257 C 0.41341 0.01935 0.81391 0.0
C3258 C 0.42422 0.0264 0.80881 0.0
C3259 C 0.40057 0.02191 0.80934 0.0
C3260 C 0.38175 0.03812 0.7821 0.0
H3261 H 0.31351 0.04322 0.79222 0.0
H3262 H 0.33536 0.03458 0.79671 0.0
H3263 H 0.36723 0.04455 0.76808 0.0
H3264 H 0.43001 0.04135 0.79453 0.0
H3265 H 0.40782 0.04581 0.78675 0.0
H3266 H 0.37645 0.03442 0.81514 0.0
C3267 C 0.33443 0.04281 0.78994 0.0
C3268 C 0.36913 0.0424 0.77839 0.0
C3269 C 0.32185 0.04775 0.78729 0.0
C3270 C 0.42194 0.03572 0.79874 0.0
C3271 C 0.40918 0.03823 0.79417 0.0
C3272 C 0.37454 0.03637 0.8048 0.0
C3273 C 0.34564 0.04848 0.78409 0.0
C3274 C 0.35908 0.04377 0.78786 0.0
C3275 C 0.3983 0.03152 0.79953 0.0
C3276 C 0.38464 0.03513 0.79537 0.0
H3277 H 0.33018 0.07214 0.76564 0.0
H3278 H 0.35232 0.06356 0.7704 0.0
H3279 H 0.35452 0.0418 0.80871 0.0
H3280 H 0.4148 0.01211 0.82166 0.0
H3281 H 0.39241 0.01644 0.81358 0.0
C3282 C 0.20415 0.17136 0.04801 0.0
C3283 C 0.21437 0.17369 0.05716 0.0
C3284 C 0.2018 0.15868 0.04309 0.0
C3285 C 0.20681 0.12363 0.05124 0.0
H3286 H 0.19655 0.11786 0.01476 0.0
C3287 C 0.19819 0.07125 0.03148 0.0
C3288 C 0.18704 0.06911 0.02347 0.0
C3289 C 0.20245 0.08402 0.03441 0.0
C3290 C 0.19928 0.11932 0.025 0.0
H3291 H 0.23029 0.16446 0.06809 0.0
H3292 H 0.22621 0.14226 0.05943 0.0
H3293 H 0.20257 0.14004 0.02216 0.0
H3294 H 0.17191 0.07878 0.01183 0.0
H3295 H 0.17927 0.10123 0.01711 0.0
H3296 H 0.20334 0.10302 0.05418 0.0
C3297 C 0.21994 0.15029 0.05618 0.0
C3298 C 0.20276 0.13203 0.02925 0.0
C3299 C 0.22233 0.16302 0.06109 0.0
C3300 C 0.18056 0.08009 0.01799 0.0
C3301 C 0.1848 0.09296 0.02101 0.0
C3302 C 0.20332 0.11095 0.04701 0.0
C3303 C 0.20958 0.14796 0.04718 0.0
C3304 C 0.20652 0.13435 0.04244 0.0
C3305 C 0.19562 0.09506 0.02952 0.0
C3306 C 0.19949 0.10862 0.03384 0.0
H3307 H 0.19781 0.17932 0.04472 0.0
H3308 H 0.19364 0.15725 0.03632 0.0
H3309 H 0.20939 0.12508 0.06152 0.0
H3310 H 0.20353 0.06302 0.03575 0.0
H3311 H 0.21101 0.08523 0.04071 0.0
C3312 C 0.06422 0.22375 0.16602 0.0
C3313 C 0.05862 0.21733 0.17698 0.0
C3314 C 0.06006 0.22063 0.15317 0.0
C3315 C 0.04332 0.19389 0.1343 0.0
H3316 H 0.04118 0.22033 0.10673 0.0
C3317 C 0.02423 0.18154 0.08165 0.0
C3318 C 0.0318 0.18664 0.07118 0.0
C3319 C 0.02645 0.18581 0.09466 0.0
C3320 C 0.04179 0.21281 0.11431 0.0
H3321 H 0.04386 0.20297 0.183 0.0
H3322 H 0.03649 0.19781 0.16078 0.0
H3323 H 0.04715 0.22694 0.12914 0.0
H3324 H 0.04743 0.20048 0.06621 0.0
H3325 H 0.05125 0.20781 0.08872 0.0
H3326 H 0.03801 0.17976 0.11947 0.0
C3327 C 0.04433 0.20499 0.16201 0.0
C3328 C 0.04526 0.2166 0.12716 0.0
C3329 C 0.04852 0.20803 0.1748 0.0
C3330 C 0.04141 0.19629 0.074 0.0
C3331 C 0.04356 0.20059 0.08693 0.0
C3332 C 0.0398 0.19012 0.12148 0.0
C3333 C 0.05016 0.21108 0.15099 0.0
C3334 C 0.04616 0.20718 0.13732 0.0
C3335 C 0.0362 0.19534 0.09745 0.0
C3336 C 0.0391 0.19951 0.11129 0.0
H3337 H 0.07205 0.23092 0.16733 0.0
H3338 H 0.06487 0.22545 0.14493 0.0
H3339 H 0.04412 0.1863 0.14179 0.0
H3340 H 0.01676 0.1741 0.07984 0.0
H3341 H 0.02053 0.18164 0.10253 0.0
C3342 C 0.51876 0.31313 0.91308 0.0
C3343 C 0.52585 0.308 0.92385 0.0
C3344 C 0.52141 0.30874 0.90021 0.0
C3345 C 0.53783 0.28192 0.88105 0.0
H3346 H 0.54244 0.30916 0.85459 0.0
C3347 C 0.56441 0.2727 0.83089 0.0
C3348 C 0.55954 0.27945 0.81979 0.0
C3349 C 0.55926 0.2753 0.84351 0.0
C3350 C 0.54101 0.30137 0.86178 0.0
H3351 H 0.54087 0.29379 0.92956 0.0
H3352 H 0.54543 0.28621 0.9073 0.0
H3353 H 0.53457 0.31512 0.87649 0.0
H3354 H 0.545 0.29379 0.81319 0.0
H3355 H 0.53595 0.29805 0.83492 0.0
H3356 H 0.54441 0.26819 0.86634 0.0
C3357 C 0.5378 0.29357 0.90872 0.0
C3358 C 0.53646 0.30481 0.87435 0.0
C3359 C 0.53523 0.29801 0.92151 0.0
C3360 C 0.54914 0.28851 0.82153 0.0
C3361 C 0.54397 0.29103 0.83404 0.0
C3362 C 0.54235 0.27847 0.86844 0.0
C3363 C 0.53112 0.29904 0.89787 0.0
C3364 C 0.53491 0.29515 0.88419 0.0
C3365 C 0.54909 0.28466 0.84524 0.0
C3366 C 0.54407 0.28817 0.85865 0.0
H3367 H 0.51148 0.32084 0.91454 0.0
H3368 H 0.51598 0.31305 0.89206 0.0
H3369 H 0.53662 0.27421 0.88836 0.0
H3370 H 0.57242 0.26568 0.8299 0.0
H3371 H 0.56351 0.27027 0.85193 0.0
C3372 C 0.95998 0.29839 0.07539 0.0
C3373 C 0.96922 0.30861 0.07356 0.0
C3374 C 0.95693 0.2938 0.08802 0.0
C3375 C 0.96808 0.29377 0.12301 0.0
H3376 H 0.93107 0.2866 0.12986 0.0
C3377 C 0.94685 0.28786 0.17568 0.0
C3378 C 0.93701 0.27827 0.17786 0.0
C3379 C 0.95143 0.29052 0.16295 0.0
C3380 C 0.94147 0.28836 0.12809 0.0
H3381 H 0.98278 0.32176 0.08364 0.0
H3382 H 0.97729 0.31387 0.10582 0.0
H3383 H 0.93799 0.29339 0.10789 0.0
H3384 H 0.92446 0.2638 0.16827 0.0
H3385 H 0.9325 0.26847 0.14595 0.0
H3386 H 0.97147 0.28896 0.14335 0.0
C3387 C 0.97252 0.30929 0.09741 0.0
C3388 C 0.94546 0.29227 0.11546 0.0
C3389 C 0.97566 0.31385 0.0847 0.0
C3390 C 0.93203 0.27125 0.16695 0.0
C3391 C 0.93659 0.27398 0.15416 0.0
C3392 C 0.96407 0.2899 0.13568 0.0
C3393 C 0.96294 0.29935 0.09924 0.0
C3394 C 0.95882 0.29505 0.11273 0.0
C3395 C 0.94629 0.28373 0.152 0.0
C3396 C 0.9507 0.28719 0.13838 0.0
H3397 H 0.95493 0.29401 0.06704 0.0
H3398 H 0.94976 0.28593 0.08898 0.0
H3399 H 0.97846 0.29565 0.12125 0.0
H3400 H 0.95095 0.29346 0.18382 0.0
H3401 H 0.95878 0.29819 0.16165 0.0
C3402 C 0.93031 0.72729 0.33418 0.0
C3403 C 0.93632 0.72126 0.32321 0.0
C3404 C 0.93473 0.72446 0.34702 0.0
C3405 C 0.95276 0.69827 0.36524 0.0
H3406 H 0.95372 0.72382 0.39373 0.0
C3407 C 0.97323 0.68478 0.41681 0.0
C3408 C 0.96578 0.68911 0.4277 0.0
C3409 C 0.97051 0.68955 0.4041 0.0
C3410 C 0.95343 0.71654 0.38589 0.0
H3411 H 0.95221 0.70824 0.31708 0.0
H3412 H 0.96003 0.70363 0.33924 0.0
H3413 H 0.94725 0.73088 0.37156 0.0
H3414 H 0.94983 0.70213 0.43374 0.0
H3415 H 0.9451 0.71031 0.41167 0.0
H3416 H 0.95882 0.68392 0.37951 0.0
C3417 C 0.95167 0.71019 0.33806 0.0
C3418 C 0.94969 0.72059 0.37318 0.0
C3419 C 0.94722 0.71292 0.32531 0.0
C3420 C 0.95577 0.69854 0.4256 0.0
C3421 C 0.95311 0.70333 0.41293 0.0
C3422 C 0.95651 0.69424 0.37789 0.0
C3423 C 0.94528 0.71561 0.34912 0.0
C3424 C 0.94931 0.7115 0.36269 0.0
C3425 C 0.96033 0.6988 0.40199 0.0
C3426 C 0.95686 0.7033 0.3884 0.0
H3427 H 0.92186 0.73372 0.33288 0.0
H3428 H 0.92954 0.72878 0.35532 0.0
H3429 H 0.95231 0.69091 0.35749 0.0
H3430 H 0.98101 0.67755 0.41805 0.0
H3431 H 0.97638 0.68597 0.3959 0.0
C3432 C 0.46869 0.81607 0.58024 0.0
C3433 C 0.46144 0.81078 0.56964 0.0
C3434 C 0.46598 0.81218 0.59326 0.0
C3435 C 0.43957 0.79671 0.61363 0.0
H3436 H 0.46757 0.79272 0.63943 0.0
C3437 C 0.42976 0.77653 0.66631 0.0
C3438 C 0.43576 0.78354 0.6767 0.0
C3439 C 0.43331 0.77904 0.65316 0.0
C3440 C 0.45963 0.79386 0.63235 0.0
H3441 H 0.44591 0.79693 0.56444 0.0
H3442 H 0.44142 0.79 0.58694 0.0
H3443 H 0.47303 0.79881 0.61676 0.0
H3444 H 0.45046 0.79845 0.68135 0.0
H3445 H 0.4566 0.80277 0.65855 0.0
H3446 H 0.42617 0.79174 0.62923 0.0
C3447 C 0.44897 0.7974 0.5853 0.0
C3448 C 0.46275 0.79741 0.61935 0.0
C3449 C 0.45161 0.80134 0.57235 0.0
C3450 C 0.4456 0.79287 0.67363 0.0
C3451 C 0.4492 0.7953 0.66053 0.0
C3452 C 0.43645 0.7931 0.6266 0.0
C3453 C 0.45601 0.80285 0.59597 0.0
C3454 C 0.45276 0.79893 0.60982 0.0
C3455 C 0.44302 0.78852 0.65011 0.0
C3456 C 0.44643 0.7917 0.63615 0.0
H3457 H 0.4763 0.8234 0.57852 0.0
H3458 H 0.47152 0.8167 0.60122 0.0
H3459 H 0.43157 0.79801 0.60665 0.0
H3460 H 0.42215 0.76928 0.66831 0.0
H3461 H 0.42845 0.77355 0.64536 0.0
C3462 C 0.583 0.52469 0.68294 0.0
C3463 C 0.57266 0.53244 0.68803 0.0
C3464 C 0.59602 0.52659 0.68731 0.0
C3465 C 0.61573 0.54109 0.71468 0.0
H3466 H 0.64365 0.54275 0.68857 0.0
C3467 C 0.66792 0.56183 0.72645 0.0
C3468 C 0.67881 0.55603 0.72009 0.0
C3469 C 0.65501 0.55801 0.72319 0.0
C3470 C 0.63604 0.54212 0.69605 0.0
H3471 H 0.56793 0.54811 0.7019 0.0
H3472 H 0.59048 0.55139 0.70942 0.0
H3473 H 0.62122 0.53749 0.68167 0.0
H3474 H 0.68462 0.54124 0.70568 0.0
H3475 H 0.66227 0.53442 0.70027 0.0
H3476 H 0.63053 0.54577 0.72907 0.0
C3477 C 0.58857 0.54379 0.70214 0.0
C3478 C 0.62315 0.5391 0.69206 0.0
C3479 C 0.57562 0.54196 0.69773 0.0
C3480 C 0.67649 0.54602 0.71072 0.0
C3481 C 0.66362 0.54216 0.70752 0.0
C3482 C 0.62864 0.54406 0.71868 0.0
C3483 C 0.59896 0.5362 0.69694 0.0
C3484 C 0.61281 0.53865 0.70131 0.0
C3485 C 0.65269 0.54825 0.71353 0.0
C3486 C 0.63896 0.5447 0.7094 0.0
H3487 H 0.58108 0.51728 0.67547 0.0
H3488 H 0.60378 0.5205 0.68318 0.0
H3489 H 0.60803 0.54066 0.72209 0.0
H3490 H 0.66933 0.56958 0.73368 0.0
H3491 H 0.64684 0.56301 0.72795 0.0
C3492 C 0.6832 0.4125 0.97575 0.0
C3493 C 0.68886 0.42357 0.96957 0.0
C3494 C 0.6877 0.39972 0.97279 0.0
C3495 C 0.70569 0.38131 0.94659 0.0
H3496 H 0.70759 0.3536 0.97292 0.0
C3497 C 0.72651 0.32945 0.93431 0.0
C3498 C 0.71908 0.31869 0.93899 0.0
C3499 C 0.72385 0.3423 0.93875 0.0
C3500 C 0.70705 0.36122 0.96543 0.0
H3501 H 0.7041 0.42987 0.95586 0.0
H3502 H 0.71204 0.4078 0.95097 0.0
H3503 H 0.70084 0.37582 0.97945 0.0
H3504 H 0.70329 0.31303 0.95236 0.0
H3505 H 0.69869 0.3353 0.96001 0.0
H3506 H 0.71183 0.36672 0.93257 0.0
C3507 C 0.7039 0.40887 0.95782 0.0
C3508 C 0.70314 0.37396 0.96917 0.0
C3509 C 0.69938 0.42158 0.96071 0.0
C3510 C 0.70921 0.32106 0.94849 0.0
C3511 C 0.70661 0.33385 0.95297 0.0
C3512 C 0.70964 0.3686 0.94287 0.0
C3513 C 0.69799 0.39774 0.96363 0.0
C3514 C 0.70235 0.38417 0.95979 0.0
C3515 C 0.71377 0.34467 0.94805 0.0
C3516 C 0.7103 0.35837 0.95222 0.0
H3517 H 0.67506 0.41367 0.98259 0.0
H3518 H 0.68283 0.39138 0.97738 0.0
H3519 H 0.70497 0.38883 0.93903 0.0
H3520 H 0.73419 0.32799 0.92701 0.0
H3521 H 0.72965 0.3504 0.93486 0.0
C3522 C 0.83184 0.43165 0.22344 0.0
C3523 C 0.8207 0.43761 0.21769 0.0
C3524 C 0.84459 0.43612 0.2203 0.0
C3525 C 0.86232 0.45456 0.19399 0.0
H3526 H 0.89106 0.4553 0.21925 0.0
C3527 C 0.91411 0.47473 0.18031 0.0
C3528 C 0.92485 0.46694 0.1844 0.0
C3529 C 0.90136 0.47221 0.18513 0.0
C3530 C 0.88314 0.45509 0.21206 0.0
H3531 H 0.81422 0.45339 0.20471 0.0
H3532 H 0.83622 0.46131 0.19957 0.0
H3533 H 0.86899 0.44874 0.22647 0.0
H3534 H 0.93059 0.45059 0.19705 0.0
H3535 H 0.90853 0.44623 0.20532 0.0
H3536 H 0.87645 0.46082 0.17957 0.0
C3537 C 0.83523 0.45295 0.20616 0.0
C3538 C 0.8705 0.45129 0.2162 0.0
C3539 C 0.82257 0.44844 0.2092 0.0
C3540 C 0.92258 0.4568 0.19363 0.0
C3541 C 0.90991 0.45434 0.19848 0.0
C3542 C 0.87493 0.4584 0.18988 0.0
C3543 C 0.84644 0.44669 0.21142 0.0
C3544 C 0.85992 0.45092 0.2072 0.0
C3545 C 0.89911 0.46191 0.19421 0.0
C3546 C 0.88552 0.45863 0.19883 0.0
H3547 H 0.83074 0.42326 0.22998 0.0
H3548 H 0.853 0.43101 0.22449 0.0
H3549 H 0.8545 0.45415 0.1867 0.0
H3550 H 0.9155 0.48262 0.17322 0.0
H3551 H 0.89326 0.4783 0.18172 0.0
C3552 C 0.81124 0.58114 0.475 0.0
C3553 C 0.8053 0.57 0.4692 0.0
C3554 C 0.80669 0.59388 0.47198 0.0
C3555 C 0.7884 0.61173 0.44574 0.0
H3556 H 0.7876 0.64032 0.47118 0.0
C3557 C 0.76991 0.66407 0.43169 0.0
C3558 C 0.77785 0.67456 0.43613 0.0
C3559 C 0.77187 0.65123 0.43656 0.0
C3560 C 0.78783 0.63245 0.46394 0.0
H3561 H 0.78944 0.56353 0.45627 0.0
H3562 H 0.78145 0.58556 0.45128 0.0
H3563 H 0.79385 0.61816 0.47835 0.0
H3564 H 0.79384 0.67978 0.44948 0.0
H3565 H 0.79725 0.65761 0.45778 0.0
H3566 H 0.78256 0.62601 0.4313 0.0
C3567 C 0.78983 0.58455 0.45785 0.0
C3568 C 0.79144 0.61974 0.46805 0.0
C3569 C 0.79439 0.57188 0.46079 0.0
C3570 C 0.78753 0.67197 0.44578 0.0
C3571 C 0.78944 0.65923 0.45066 0.0
C3572 C 0.78478 0.6244 0.44164 0.0
C3573 C 0.79609 0.59574 0.46315 0.0
C3574 C 0.79187 0.60923 0.45898 0.0
C3575 C 0.78175 0.64865 0.44602 0.0
C3576 C 0.78456 0.63496 0.45065 0.0
H3577 H 0.81968 0.58003 0.48148 0.0
H3578 H 0.81181 0.60228 0.47619 0.0
H3579 H 0.78883 0.60394 0.43842 0.0
H3580 H 0.76237 0.66571 0.42428 0.0
H3581 H 0.7657 0.64332 0.43286 0.0
C3582 C 0.66145 0.43053 0.76726 0.0
C3583 C 0.6719 0.43682 0.7739 0.0
C3584 C 0.64836 0.43466 0.76929 0.0
C3585 C 0.6281 0.46237 0.78267 0.0
H3586 H 0.60241 0.43498 0.79006 0.0
C3587 C 0.57868 0.47293 0.80958 0.0
C3588 C 0.56744 0.4658 0.80561 0.0
C3589 C 0.59113 0.46995 0.8043 0.0
C3590 C 0.60938 0.44278 0.78784 0.0
H3591 H 0.67682 0.45274 0.78741 0.0
H3592 H 0.65423 0.45984 0.7909 0.0
H3593 H 0.62448 0.4289 0.78265 0.0
H3594 H 0.56049 0.45017 0.79266 0.0
H3595 H 0.58205 0.44513 0.78341 0.0
H3596 H 0.61307 0.47625 0.78806 0.0
C3597 C 0.65604 0.45178 0.7841 0.0
C3598 C 0.62205 0.43928 0.78355 0.0
C3599 C 0.66903 0.44763 0.78215 0.0
C3600 C 0.56892 0.45581 0.79605 0.0
C3601 C 0.58133 0.45286 0.79077 0.0
C3602 C 0.61543 0.46588 0.78695 0.0
C3603 C 0.6455 0.44523 0.77789 0.0
C3604 C 0.63163 0.44901 0.7811 0.0
C3605 C 0.59263 0.45978 0.79492 0.0
C3606 C 0.60595 0.45612 0.78975 0.0
H3607 H 0.66332 0.42216 0.76087 0.0
H3608 H 0.64047 0.42947 0.76427 0.0
H3609 H 0.63518 0.47014 0.78069 0.0
H3610 H 0.57793 0.48066 0.81695 0.0
H3611 H 0.59964 0.47539 0.80784 0.0
C3612 C 0.78831 0.32322 0.04814 0.0
C3613 C 0.77869 0.32072 0.05786 0.0
C3614 C 0.79081 0.33608 0.04379 0.0
C3615 C 0.78811 0.37069 0.05447 0.0
H3616 H 0.79558 0.37845 0.01771 0.0
C3617 C 0.7977 0.42395 0.0372 0.0
C3618 C 0.80785 0.4261 0.02796 0.0
C3619 C 0.79327 0.41119 0.04001 0.0
C3620 C 0.79366 0.37644 0.02804 0.0
H3621 H 0.76396 0.32986 0.07042 0.0
H3622 H 0.76833 0.35238 0.06281 0.0
H3623 H 0.78913 0.35612 0.02415 0.0
H3624 H 0.82108 0.41644 0.01418 0.0
H3625 H 0.8135 0.39407 0.01927 0.0
H3626 H 0.79287 0.39086 0.05846 0.0
C3627 C 0.774 0.34433 0.05863 0.0
C3628 C 0.78992 0.36363 0.03172 0.0
C3629 C 0.77143 0.33142 0.06293 0.0
C3630 C 0.81322 0.41515 0.02132 0.0
C3631 C 0.80883 0.40232 0.02422 0.0
C3632 C 0.7919 0.38346 0.0508 0.0
C3633 C 0.7838 0.34683 0.04908 0.0
C3634 C 0.78714 0.36058 0.045 0.0
C3635 C 0.79893 0.40016 0.03376 0.0
C3636 C 0.79475 0.38652 0.03754 0.0
H3637 H 0.79409 0.31524 0.04396 0.0
H3638 H 0.79852 0.33763 0.03654 0.0
H3639 H 0.78629 0.36865 0.06481 0.0
H3640 H 0.7932 0.43215 0.0424 0.0
H3641 H 0.78542 0.40999 0.04717 0.0
C3642 C 0.83215 0.56378 0.26911 0.0
C3643 C 0.82114 0.55807 0.27534 0.0
C3644 C 0.84495 0.55925 0.27196 0.0
C3645 C 0.86321 0.54144 0.29831 0.0
H3646 H 0.89133 0.53968 0.27242 0.0
C3647 C 0.91477 0.52055 0.31136 0.0
C3648 C 0.92566 0.52784 0.30678 0.0
C3649 C 0.902 0.52334 0.30676 0.0
C3650 C 0.88359 0.54019 0.27978 0.0
H3651 H 0.81489 0.54261 0.28882 0.0
H3652 H 0.83697 0.5346 0.29347 0.0
H3653 H 0.86916 0.5463 0.26553 0.0
H3654 H 0.93165 0.5436 0.29351 0.0
H3655 H 0.90951 0.54844 0.28561 0.0
H3656 H 0.8776 0.53542 0.31256 0.0
C3657 C 0.83586 0.54282 0.28672 0.0
C3658 C 0.87089 0.54402 0.27583 0.0
C3659 C 0.82316 0.54738 0.28397 0.0
C3660 C 0.92351 0.53777 0.29729 0.0
C3661 C 0.9108 0.54051 0.29267 0.0
C3662 C 0.87587 0.53758 0.30223 0.0
C3663 C 0.84697 0.54889 0.28104 0.0
C3664 C 0.86052 0.5447 0.28505 0.0
C3665 C 0.89986 0.53343 0.29743 0.0
C3666 C 0.88624 0.53696 0.29305 0.0
H3667 H 0.83094 0.57206 0.26245 0.0
H3668 H 0.85328 0.56421 0.26744 0.0
H3669 H 0.85557 0.54211 0.30576 0.0
H3670 H 0.91605 0.51283 0.31864 0.0
H3671 H 0.89381 0.5176 0.31053 0.0
C3672 C 0.72446 0.66638 0.56033 0.0
C3673 C 0.71674 0.67713 0.55614 0.0
C3674 C 0.72204 0.65364 0.55542 0.0
C3675 C 0.70529 0.63552 0.52806 0.0
H3676 H 0.70529 0.60643 0.5529 0.0
C3677 C 0.68293 0.58371 0.51637 0.0
C3678 C 0.68926 0.57268 0.52193 0.0
C3679 C 0.68722 0.59655 0.51945 0.0
C3680 C 0.70543 0.61439 0.54576 0.0
H3681 H 0.70056 0.68288 0.54326 0.0
H3682 H 0.69633 0.66082 0.53488 0.0
H3683 H 0.71131 0.62844 0.56042 0.0
H3684 H 0.7056 0.56649 0.53436 0.0
H3685 H 0.71316 0.58865 0.53943 0.0
H3686 H 0.69925 0.62143 0.51343 0.0
C3687 C 0.70434 0.66219 0.54184 0.0
C3688 C 0.7089 0.62704 0.5501 0.0
C3689 C 0.70672 0.67486 0.54676 0.0
C3690 C 0.70036 0.57475 0.53003 0.0
C3691 C 0.70466 0.58749 0.53303 0.0
C3692 C 0.70182 0.62284 0.52372 0.0
C3693 C 0.71189 0.65138 0.54616 0.0
C3694 C 0.70883 0.63779 0.54133 0.0
C3695 C 0.69795 0.59858 0.52809 0.0
C3696 C 0.70181 0.61211 0.53252 0.0
H3697 H 0.73226 0.66775 0.56752 0.0
H3698 H 0.72814 0.64556 0.55886 0.0
H3699 H 0.70528 0.64354 0.52099 0.0
H3700 H 0.67431 0.58245 0.51015 0.0
H3701 H 0.68178 0.60486 0.5155 0.0
C3702 C 0.56298 0.7222 0.66441 0.0
C3703 C 0.55807 0.71497 0.67519 0.0
C3704 C 0.55856 0.71951 0.65157 0.0
C3705 C 0.53185 0.70287 0.6325 0.0
H3706 H 0.55876 0.69988 0.60547 0.0
C3707 C 0.52254 0.67839 0.58117 0.0
C3708 C 0.52913 0.68391 0.57027 0.0
C3709 C 0.5251 0.68303 0.594 0.0
C3710 C 0.55106 0.70085 0.61282 0.0
H3711 H 0.54426 0.69957 0.68092 0.0
H3712 H 0.53666 0.69491 0.65865 0.0
H3713 H 0.5649 0.70699 0.62756 0.0
H3714 H 0.54303 0.69912 0.56427 0.0
H3715 H 0.5472 0.70729 0.58637 0.0
H3716 H 0.51801 0.69662 0.61771 0.0
C3717 C 0.54387 0.70269 0.66007 0.0
C3718 C 0.5546 0.70495 0.62551 0.0
C3719 C 0.54832 0.70532 0.67286 0.0
C3720 C 0.5379 0.69448 0.57244 0.0
C3721 C 0.54037 0.69914 0.58516 0.0
C3722 C 0.52829 0.69879 0.61975 0.0
C3723 C 0.54906 0.7096 0.64923 0.0
C3724 C 0.54507 0.70596 0.63554 0.0
C3725 C 0.53425 0.69331 0.59615 0.0
C3726 C 0.53786 0.69771 0.60975 0.0
H3727 H 0.57048 0.7297 0.66585 0.0
H3728 H 0.56265 0.72513 0.64344 0.0
H3729 H 0.52423 0.70366 0.63996 0.0
H3730 H 0.51575 0.67023 0.57984 0.0
H3731 H 0.52025 0.67827 0.60225 0.0
C3732 C 0.03853 0.7998 0.42467 0.0
C3733 C 0.02891 0.80953 0.42708 0.0
C3734 C 0.04119 0.7955 0.41184 0.0
C3735 C 0.02807 0.79499 0.37756 0.0
H3736 H 0.06482 0.789 0.36859 0.0
C3737 C 0.04639 0.78877 0.32376 0.0
C3738 C 0.05645 0.77952 0.3212 0.0
C3739 C 0.04242 0.79154 0.33669 0.0
C3740 C 0.05449 0.79044 0.37096 0.0
H3741 H 0.01434 0.82218 0.41782 0.0
H3742 H 0.01913 0.8148 0.39529 0.0
H3743 H 0.05899 0.79581 0.39088 0.0
H3744 H 0.07001 0.76571 0.33035 0.0
H3745 H 0.06306 0.77053 0.35298 0.0
H3746 H 0.02365 0.7898 0.35751 0.0
C3747 C 0.02451 0.81037 0.4034 0.0
C3748 C 0.05112 0.79436 0.38377 0.0
C3749 C 0.02179 0.81465 0.41632 0.0
C3750 C 0.06226 0.77289 0.33194 0.0
C3751 C 0.05832 0.77573 0.34492 0.0
C3752 C 0.03145 0.79111 0.36471 0.0
C3753 C 0.03438 0.80085 0.40099 0.0
C3754 C 0.03786 0.79669 0.38727 0.0
C3755 C 0.04843 0.78518 0.34745 0.0
C3756 C 0.04472 0.7888 0.36125 0.0
H3757 H 0.04412 0.7955 0.43271 0.0
H3758 H 0.04862 0.78794 0.41044 0.0
H3759 H 0.01775 0.79651 0.37992 0.0
H3760 H 0.04165 0.79406 0.31575 0.0
H3761 H 0.03489 0.79897 0.33825 0.0
C3762 C 0.43361 0.22257 0.83229 0.0
C3763 C 0.43881 0.21588 0.82129 0.0
C3764 C 0.43813 0.21969 0.84507 0.0
C3765 C 0.45543 0.19338 0.86404 0.0
H3766 H 0.45885 0.22065 0.8907 0.0
C3767 C 0.4768 0.18247 0.91606 0.0
C3768 C 0.46968 0.1878 0.92672 0.0
C3769 C 0.47405 0.18645 0.90307 0.0
C3770 C 0.45788 0.2129 0.88338 0.0
H3771 H 0.45318 0.20121 0.81512 0.0
H3772 H 0.46118 0.19643 0.83721 0.0
H3773 H 0.45195 0.22659 0.86839 0.0
H3774 H 0.45435 0.20183 0.93206 0.0
H3775 H 0.44963 0.2087 0.90956 0.0
H3776 H 0.46133 0.1797 0.87905 0.0
C3777 C 0.45339 0.20366 0.83607 0.0
C3778 C 0.45388 0.21631 0.87059 0.0
C3779 C 0.44883 0.20648 0.82335 0.0
C3780 C 0.46003 0.19747 0.92411 0.0
C3781 C 0.45736 0.2015 0.91119 0.0
C3782 C 0.45949 0.19 0.87681 0.0
C3783 C 0.44801 0.2101 0.84714 0.0
C3784 C 0.45252 0.20658 0.86075 0.0
C3785 C 0.46421 0.19594 0.90048 0.0
C3786 C 0.46068 0.19969 0.88668 0.0
H3787 H 0.42585 0.22983 0.83107 0.0
H3788 H 0.43364 0.22475 0.85335 0.0
H3789 H 0.45428 0.18557 0.85683 0.0
H3790 H 0.48429 0.17502 0.9177 0.0
H3791 H 0.47961 0.18207 0.89505 0.0
C3792 C 0.0446 0.17168 0.23723 0.0
C3793 C 0.03879 0.17939 0.2273 0.0
C3794 C 0.04099 0.15847 0.23874 0.0
C3795 C 0.04275 0.13055 0.22964 0.0
H3796 H 0.01092 0.11458 0.21556 0.0
C3797 C 0.04504 0.08569 0.19651 0.0
C3798 C 0.03538 0.07581 0.19744 0.0
C3799 C 0.04383 0.09728 0.20378 0.0
C3800 C 0.0198 0.11881 0.21976 0.0
H3801 H 0.02385 0.17987 0.212 0.0
H3802 H 0.01808 0.15671 0.21404 0.0
H3803 H 0.01024 0.13722 0.22378 0.0
H3804 H 0.01681 0.07032 0.20665 0.0
H3805 H 0.01473 0.09071 0.21944 0.0
H3806 H 0.05234 0.11226 0.22549 0.0
C3807 C 0.02513 0.16079 0.22097 0.0
C3808 C 0.01945 0.13183 0.22436 0.0
C3809 C 0.02851 0.17408 0.2197 0.0
C3810 C 0.02441 0.07779 0.20573 0.0
C3811 C 0.02321 0.08944 0.21304 0.0
C3812 C 0.04305 0.11756 0.22521 0.0
C3813 C 0.03182 0.15266 0.23006 0.0
C3814 C 0.03109 0.13807 0.22871 0.0
C3815 C 0.03297 0.09925 0.2122 0.0
C3816 C 0.03177 0.11181 0.21957 0.0
H3817 H 0.05237 0.17567 0.24341 0.0
H3818 H 0.04602 0.15262 0.24614 0.0
H3819 H 0.05196 0.13495 0.23283 0.0
H3820 H 0.05357 0.08449 0.19016 0.0
H3821 H 0.05135 0.10481 0.20266 0.0
C3822 C 0.16883 0.77228 0.44832 0.0
C3823 C 0.17096 0.78231 0.43895 0.0
C3824 C 0.15704 0.7718 0.45548 0.0
C3825 C 0.12984 0.79355 0.46576 0.0
H3826 H 0.1097 0.76133 0.47046 0.0
C3827 C 0.07276 0.77998 0.46881 0.0
C3828 C 0.06858 0.7911 0.47593 0.0
C3829 C 0.08608 0.77646 0.46869 0.0
C3830 C 0.11525 0.7704 0.4693 0.0
H3831 H 0.1622 0.79929 0.42926 0.0
H3832 H 0.14162 0.79832 0.44153 0.0
H3833 H 0.13156 0.76037 0.46028 0.0
H3834 H 0.07454 0.8062 0.48989 0.0
H3835 H 0.09771 0.7997 0.49018 0.0
H3836 H 0.11339 0.80379 0.47377 0.0
C3837 C 0.14917 0.79104 0.44362 0.0
C3838 C 0.1278 0.76982 0.46357 0.0
C3839 C 0.16092 0.79153 0.43651 0.0
C3840 C 0.0776 0.79774 0.4841 0.0
C3841 C 0.09086 0.79404 0.48421 0.0
C3842 C 0.11733 0.79415 0.47137 0.0
C3843 C 0.14723 0.78136 0.45337 0.0
C3844 C 0.13496 0.78148 0.46128 0.0
C3845 C 0.09539 0.78389 0.47587 0.0
C3846 C 0.10966 0.78265 0.47278 0.0
H3847 H 0.17641 0.76502 0.45039 0.0
H3848 H 0.15577 0.76422 0.46292 0.0
H3849 H 0.1353 0.80266 0.46441 0.0
H3850 H 0.06598 0.77465 0.46248 0.0
H3851 H 0.08916 0.76863 0.46209 0.0
C3852 C 0.46658 0.91896 0.71835 0.0
C3853 C 0.47293 0.92358 0.70696 0.0
C3854 C 0.46983 0.90665 0.7236 0.0
C3855 C 0.48329 0.87506 0.71191 0.0
H3856 H 0.47439 0.86451 0.74763 0.0
C3857 C 0.47358 0.82111 0.72361 0.0
C3858 C 0.46038 0.81966 0.72763 0.0
C3859 C 0.47982 0.83337 0.72454 0.0
C3860 C 0.47713 0.86734 0.73768 0.0
H3861 H 0.48849 0.91966 0.69279 0.0
H3862 H 0.49461 0.8984 0.70228 0.0
H3863 H 0.47758 0.88788 0.74256 0.0
H3864 H 0.44377 0.82947 0.73695 0.0
H3865 H 0.45468 0.85086 0.7386 0.0
H3866 H 0.48246 0.85458 0.70697 0.0
C3867 C 0.48673 0.90398 0.70688 0.0
C3868 C 0.47885 0.88071 0.73473 0.0
C3869 C 0.48326 0.91617 0.70145 0.0
C3870 C 0.45391 0.83036 0.73363 0.0
C3871 C 0.4602 0.84256 0.73472 0.0
C3872 C 0.48181 0.86172 0.71492 0.0
C3873 C 0.47969 0.89882 0.7177 0.0
C3874 C 0.48125 0.88477 0.72165 0.0
C3875 C 0.47301 0.84429 0.72969 0.0
C3876 C 0.47809 0.85781 0.72767 0.0
H3877 H 0.45859 0.92452 0.7228 0.0
H3878 H 0.46402 0.903 0.73179 0.0
H3879 H 0.48498 0.87771 0.7017 0.0
H3880 H 0.47885 0.813 0.71904 0.0
H3881 H 0.48971 0.83449 0.72063 0.0
C3882 C 0.32749 0.22243 0.94835 0.0
C3883 C 0.32501 0.21199 0.93953 0.0
C3884 C 0.33949 0.22315 0.95513 0.0
C3885 C 0.36728 0.20198 0.96531 0.0
H3886 H 0.38706 0.23465 0.96799 0.0
C3887 C 0.42431 0.21677 0.96657 0.0
C3888 C 0.42887 0.20617 0.97423 0.0
C3889 C 0.41089 0.2199 0.96638 0.0
C3890 C 0.38163 0.22546 0.96738 0.0
H3891 H 0.3333 0.19442 0.93048 0.0
H3892 H 0.35427 0.19582 0.94205 0.0
H3893 H 0.36487 0.23488 0.95853 0.0
H3894 H 0.42345 0.19164 0.98896 0.0
H3895 H 0.40011 0.19747 0.98911 0.0
H3896 H 0.38417 0.19233 0.97317 0.0
C3897 C 0.34684 0.20326 0.94403 0.0
C3898 C 0.36888 0.22561 0.96207 0.0
C3899 C 0.33487 0.20252 0.93731 0.0
C3900 C 0.4201 0.19969 0.98277 0.0
C3901 C 0.40673 0.203 0.9828 0.0
C3902 C 0.37999 0.2018 0.9705 0.0
C3903 C 0.34919 0.21344 0.95317 0.0
C3904 C 0.3618 0.21378 0.96054 0.0
C3905 C 0.40186 0.21261 0.97404 0.0
C3906 C 0.38751 0.21346 0.97119 0.0
H3907 H 0.32005 0.22988 0.95027 0.0
H3908 H 0.34104 0.2311 0.96212 0.0
H3909 H 0.36191 0.19275 0.96455 0.0
H3910 H 0.43089 0.22196 0.95993 0.0
H3911 H 0.40753 0.22731 0.95945 0.0
C3912 C 0.01865 0.91742 0.28929 0.0
C3913 C 0.03007 0.91954 0.29692 0.0
C3914 C 0.01712 0.90572 0.28211 0.0
C3915 C 0.01369 0.87611 0.27617 0.0
H3916 H 0.04521 0.86019 0.26144 0.0
C3917 C 0.02386 0.82125 0.27837 0.0
C3918 C 0.03384 0.8158 0.27048 0.0
C3919 C 0.01997 0.83434 0.27653 0.0
C3920 C 0.03614 0.86449 0.26509 0.0
H3921 H 0.04877 0.91107 0.30308 0.0
H3922 H 0.04602 0.89071 0.2908 0.0
H3923 H 0.04556 0.88313 0.2679 0.0
H3924 H 0.04633 0.81896 0.25341 0.0
H3925 H 0.03906 0.8416 0.24971 0.0
H3926 H 0.00431 0.85735 0.27355 0.0
C3927 C 0.03837 0.89815 0.2901 0.0
C3928 C 0.03644 0.87765 0.269 0.0
C3929 C 0.03988 0.90977 0.29727 0.0
C3930 C 0.0388 0.82308 0.2598 0.0
C3931 C 0.03467 0.83605 0.25773 0.0
C3932 C 0.01332 0.86292 0.27209 0.0
C3933 C 0.02702 0.89602 0.28239 0.0
C3934 C 0.02549 0.88335 0.27529 0.0
C3935 C 0.02585 0.84211 0.2666 0.0
C3936 C 0.02479 0.85675 0.26721 0.0
H3937 H 0.01092 0.9248 0.28884 0.0
H3938 H 0.00827 0.9043 0.27627 0.0
H3939 H 0.00505 0.8803 0.28088 0.0
H3940 H 0.01984 0.81579 0.28665 0.0
H3941 H 0.01322 0.8386 0.28363 0.0
C3942 C 0.41944 0.77807 0.52677 0.0
C3943 C 0.42418 0.78892 0.5196 0.0
C3944 C 0.40674 0.77325 0.52448 0.0
C3945 C 0.375 0.78587 0.51223 0.0
H3946 H 0.36316 0.75121 0.52345 0.0
C3947 C 0.32074 0.77654 0.52371 0.0
C3948 C 0.31925 0.77301 0.53705 0.0
C3949 C 0.33295 0.77516 0.51747 0.0
C3950 C 0.36635 0.76086 0.5201 0.0
H3951 H 0.42002 0.80244 0.50355 0.0
H3952 H 0.39806 0.79364 0.49908 0.0
H3953 H 0.38658 0.75493 0.51892 0.0
H3954 H 0.329 0.76426 0.554 0.0
H3955 H 0.35032 0.76181 0.54306 0.0
H3956 H 0.35483 0.79185 0.51371 0.0
C3957 C 0.40387 0.78919 0.50687 0.0
C3958 C 0.37974 0.76304 0.5176 0.0
C3959 C 0.41646 0.7942 0.50938 0.0
C3960 C 0.3299 0.76718 0.54374 0.0
C3961 C 0.34206 0.76565 0.53745 0.0
C3962 C 0.36162 0.78361 0.51448 0.0
C3963 C 0.39862 0.77903 0.51478 0.0
C3964 C 0.38431 0.77575 0.51427 0.0
C3965 C 0.3438 0.77005 0.52441 0.0
C3966 C 0.35727 0.77127 0.519 0.0
H3967 H 0.42521 0.7738 0.5347 0.0
H3968 H 0.40305 0.76555 0.53091 0.0
H3969 H 0.37805 0.79583 0.50987 0.0
H3970 H 0.31267 0.78097 0.51826 0.0
H3971 H 0.33407 0.77859 0.5074 0.0
C3972 C 0.45198 0.08526 0.80169 0.0
C3973 C 0.46172 0.07546 0.80099 0.0
C3974 C 0.4532 0.0968 0.79433 0.0
C3975 C 0.45408 0.11694 0.77283 0.0
H3976 H 0.4869 0.13663 0.77402 0.0
C3977 C 0.45247 0.17098 0.76048 0.0
C3978 C 0.45836 0.17877 0.77032 0.0
C3979 C 0.45606 0.15777 0.75902 0.0
C3980 C 0.47768 0.13123 0.77352 0.0
H3981 H 0.48047 0.07004 0.7921 0.0
H3982 H 0.48257 0.09031 0.77915 0.0
H3983 H 0.48621 0.1141 0.78251 0.0
H3984 H 0.47346 0.17935 0.78547 0.0
H3985 H 0.4792 0.15619 0.78352 0.0
H3986 H 0.44517 0.13423 0.76503 0.0
C3987 C 0.47402 0.08904 0.78545 0.0
C3988 C 0.47732 0.11827 0.77826 0.0
C3989 C 0.47281 0.07746 0.79286 0.0
C3990 C 0.46872 0.17351 0.77785 0.0
C3991 C 0.47208 0.16021 0.77663 0.0
C3992 C 0.45438 0.12989 0.76826 0.0
C3993 C 0.46416 0.09878 0.78604 0.0
C3994 C 0.46535 0.11126 0.77854 0.0
C3995 C 0.4653 0.15201 0.76766 0.0
C3996 C 0.46603 0.13742 0.76912 0.0
H3997 H 0.44336 0.08405 0.80792 0.0
H3998 H 0.44561 0.10427 0.79529 0.0
H3999 H 0.4448 0.11163 0.77258 0.0
H4000 H 0.44463 0.17493 0.75436 0.0
H4001 H 0.45096 0.15186 0.7517 0.0
C4002 C 0.1674 0.23361 0.04553 0.0
C4003 C 0.17519 0.22371 0.03976 0.0
C4004 C 0.15486 0.23638 0.04052 0.0
C4005 C 0.1311 0.22714 0.01346 0.0
H4006 H 0.10572 0.22995 0.04198 0.0
C4007 C 0.08093 0.20135 0.01575 0.0
C4008 C 0.07025 0.20797 0.02161 0.0
C4009 C 0.09318 0.20756 0.01464 0.0
C4010 C 0.11265 0.22949 0.03384 0.0
H4011 H 0.17638 0.20941 0.02389 0.0
H4012 H 0.15429 0.2136 0.01564 0.0
H4013 H 0.1289 0.23331 0.04656 0.0
H4014 H 0.06372 0.22657 0.03005 0.0
H4015 H 0.08528 0.23727 0.02843 0.0
H4016 H 0.11467 0.22204 0.00107 0.0
C4017 C 0.15789 0.21962 0.02371 0.0
C4018 C 0.12601 0.23146 0.03644 0.0
C4019 C 0.17054 0.21709 0.02852 0.0
C4020 C 0.07181 0.22119 0.02558 0.0
C4021 C 0.08411 0.22733 0.02463 0.0
C4022 C 0.11772 0.2249 0.01093 0.0
C4023 C 0.14973 0.22903 0.02988 0.0
C4024 C 0.13548 0.22981 0.0264 0.0
C4025 C 0.09497 0.22043 0.01951 0.0
C4026 C 0.10847 0.22562 0.02121 0.0
H4027 H 0.17088 0.23902 0.05408 0.0
H4028 H 0.14902 0.24394 0.04531 0.0
H4029 H 0.13806 0.22614 0.00541 0.0
H4030 H 0.07998 0.1912 0.0125 0.0
H4031 H 0.10146 0.20198 0.01078 0.0
C4032 C 0.23045 0.04057 0.16882 0.0
C4033 C 0.22518 0.05338 0.16965 0.0
C4034 C 0.233 0.03491 0.15647 0.0
C4035 C 0.2372 0.0424 0.12126 0.0
H4036 H 0.21087 0.01538 0.11456 0.0
C4037 C 0.20359 0.04431 0.07768 0.0
C4038 C 0.19915 0.03288 0.07123 0.0
C4039 C 0.21195 0.04336 0.08853 0.0
C4040 C 0.21862 0.02257 0.11623 0.0
H4041 H 0.21932 0.07069 0.15854 0.0
H4042 H 0.22408 0.06098 0.13706 0.0
H4043 H 0.21751 0.02022 0.1372 0.0
H4044 H 0.20012 0.01148 0.0709 0.0
H4045 H 0.21457 0.00982 0.0903 0.0
H4046 H 0.23754 0.04551 0.10038 0.0
C4047 C 0.22615 0.05525 0.14586 0.0
C4048 C 0.22243 0.02533 0.1292 0.0
C4049 C 0.22328 0.06075 0.15811 0.0
C4050 C 0.20337 0.02045 0.07575 0.0
C4051 C 0.21166 0.01949 0.08677 0.0
C4052 C 0.23349 0.03958 0.10831 0.0
C4053 C 0.23071 0.04219 0.14491 0.0
C4054 C 0.23101 0.0359 0.13181 0.0
C4055 C 0.21601 0.03097 0.09325 0.0
C4056 C 0.22343 0.03034 0.1058 0.0
H4057 H 0.23197 0.03473 0.17765 0.0
H4058 H 0.23638 0.02477 0.15592 0.0
H4059 H 0.24394 0.05051 0.12309 0.0
H4060 H 0.2006 0.05404 0.07439 0.0
H4061 H 0.21486 0.05238 0.09351 0.0
C4062 C 0.20141 0.98409 0.42151 0.0
C4063 C 0.20698 0.97423 0.42948 0.0
C4064 C 0.20507 0.98519 0.40828 0.0
C4065 C 0.20332 0.97566 0.38048 0.0
H4066 H 0.23494 0.96058 0.36505 0.0
C4067 C 0.20059 0.94287 0.33529 0.0
C4068 C 0.21052 0.94346 0.32566 0.0
C4069 C 0.20185 0.94995 0.34701 0.0
C4070 C 0.22611 0.96505 0.36912 0.0
H4071 H 0.22155 0.95859 0.43036 0.0
H4072 H 0.22739 0.95993 0.40717 0.0
H4073 H 0.23558 0.96902 0.3876 0.0
H4074 H 0.22964 0.95184 0.32076 0.0
H4075 H 0.2318 0.96432 0.34131 0.0
H4076 H 0.19384 0.97165 0.36209 0.0
C4077 C 0.22049 0.96711 0.41106 0.0
C4078 C 0.22644 0.96977 0.38209 0.0
C4079 C 0.21707 0.96625 0.42437 0.0
C4080 C 0.22183 0.95117 0.32803 0.0
C4081 C 0.22308 0.95831 0.33978 0.0
C4082 C 0.20305 0.97112 0.36752 0.0
C4083 C 0.21405 0.97616 0.4027 0.0
C4084 C 0.21486 0.97451 0.38814 0.0
C4085 C 0.21304 0.95785 0.34933 0.0
C4086 C 0.21424 0.96513 0.36195 0.0
H4087 H 0.19378 0.99054 0.42533 0.0
H4088 H 0.20023 0.99256 0.40224 0.0
H4089 H 0.19415 0.97916 0.38472 0.0
H4090 H 0.1918 0.93696 0.33379 0.0
H4091 H 0.1941 0.9491 0.35433 0.0
C4092 C 0.29591 0.97915 0.57747 0.0
C4093 C 0.30878 0.97398 0.57806 0.0
C4094 C 0.28813 0.97969 0.58884 0.0
C4095 C 0.28827 0.97758 0.62495 0.0
H4096 H 0.26088 0.95102 0.62116 0.0
C4097 C 0.27368 0.93269 0.65714 0.0
C4098 C 0.27059 0.93836 0.66937 0.0
C4099 C 0.27323 0.9403 0.64568 0.0
C4100 C 0.26821 0.95873 0.62231 0.0
H4101 H 0.32404 0.96641 0.59098 0.0
H4102 H 0.31057 0.96769 0.61093 0.0
H4103 H 0.27104 0.96062 0.60146 0.0
H4104 H 0.26385 0.95614 0.67926 0.0
H4105 H 0.26362 0.96964 0.65919 0.0
H4106 H 0.28609 0.97501 0.6458 0.0
C4107 C 0.30646 0.9712 0.60169 0.0
C4108 C 0.27398 0.96425 0.61109 0.0
C4109 C 0.31412 0.97036 0.5903 0.0
C4110 C 0.26627 0.95154 0.66991 0.0
C4111 C 0.26612 0.95925 0.65848 0.0
C4112 C 0.28233 0.97224 0.63617 0.0
C4113 C 0.29327 0.97542 0.60096 0.0
C4114 C 0.28455 0.97315 0.61236 0.0
C4115 C 0.26993 0.95376 0.64635 0.0
C4116 C 0.2728 0.96225 0.63491 0.0
H4117 H 0.29157 0.98197 0.5681 0.0
H4118 H 0.27794 0.98288 0.58808 0.0
H4119 H 0.29642 0.98442 0.62611 0.0
H4120 H 0.27697 0.92252 0.65649 0.0
H4121 H 0.27638 0.9359 0.63645 0.0
C4122 C 0.29361 0.00957 0.92152 0.0
C4123 C 0.28782 0.01934 0.92943 0.0
C4124 C 0.28967 0.00802 0.90841 0.0
C4125 C 0.26727 0.02236 0.8824 0.0
H4126 H 0.29967 0.02167 0.86205 0.0
C4127 C 0.29195 0.05139 0.83658 0.0
C4128 C 0.28215 0.05073 0.82682 0.0
C4129 C 0.2909 0.04381 0.84798 0.0
C4130 C 0.29051 0.02183 0.86757 0.0
H4131 H 0.27259 0.03433 0.93038 0.0
H4132 H 0.26627 0.03228 0.90739 0.0
H4133 H 0.29986 0.01393 0.88458 0.0
H4134 H 0.26344 0.04175 0.82138 0.0
H4135 H 0.26163 0.02843 0.84147 0.0
H4136 H 0.25832 0.03148 0.86555 0.0
C4137 C 0.27355 0.02547 0.91123 0.0
C4138 C 0.29053 0.01716 0.88048 0.0
C4139 C 0.27726 0.02676 0.92443 0.0
C4140 C 0.27115 0.04246 0.82877 0.0
C4141 C 0.27011 0.03484 0.84023 0.0
C4142 C 0.2673 0.02721 0.86948 0.0
C4143 C 0.28019 0.01654 0.90287 0.0
C4144 C 0.27907 0.01797 0.8883 0.0
C4145 C 0.28006 0.03535 0.84988 0.0
C4146 C 0.27911 0.0276 0.86222 0.0
H4147 H 0.30161 0.00354 0.92528 0.0
H4148 H 0.29468 0.00073 0.9024 0.0
H4149 H 0.25818 0.0228 0.88802 0.0
H4150 H 0.3005 0.05772 0.83541 0.0
H4151 H 0.29856 0.04471 0.85541 0.0
C4152 C 0.67088 0.26032 0.9503 0.0
C4153 C 0.67912 0.26975 0.95623 0.0
C4154 C 0.65763 0.25943 0.95394 0.0
C4155 C 0.63007 0.26962 0.95258 0.0
H4156 H 0.61509 0.28434 0.9846 0.0
C4157 C 0.58557 0.30328 0.95057 0.0
C4158 C 0.57592 0.30266 0.96047 0.0
C4159 C 0.5972 0.29606 0.95175 0.0
C4160 C 0.61904 0.27998 0.97566 0.0
H4161 H 0.68042 0.28484 0.97135 0.0
H4162 H 0.65721 0.28393 0.97714 0.0
H4163 H 0.6374 0.27527 0.98499 0.0
H4164 H 0.57091 0.29414 0.97949 0.0
H4165 H 0.5913 0.28137 0.98149 0.0
H4166 H 0.61177 0.2743 0.94326 0.0
C4167 C 0.6609 0.27689 0.96999 0.0
C4168 C 0.63187 0.27491 0.97584 0.0
C4169 C 0.67423 0.27751 0.96659 0.0
C4170 C 0.57821 0.29483 0.97171 0.0
C4171 C 0.58987 0.28752 0.97286 0.0
C4172 C 0.61723 0.27449 0.95246 0.0
C4173 C 0.65229 0.26829 0.96324 0.0
C4174 C 0.63778 0.27029 0.96413 0.0
C4175 C 0.5994 0.28796 0.9628 0.0
C4176 C 0.61185 0.28036 0.9638 0.0
H4177 H 0.67454 0.25404 0.94245 0.0
H4178 H 0.6514 0.25238 0.94886 0.0
H4179 H 0.63419 0.26624 0.94332 0.0
H4180 H 0.58414 0.3093 0.94185 0.0
H4181 H 0.60452 0.29692 0.944 0.0
C4182 C 0.95055 0.32541 0.23538 0.0
C4183 C 0.95665 0.31641 0.2268 0.0
C4184 C 0.95434 0.33865 0.23538 0.0
C4185 C 0.95354 0.3651 0.22256 0.0
H4186 H 0.98658 0.37921 0.2093 0.0
C4187 C 0.9541 0.4081 0.18685 0.0
C4188 C 0.96352 0.41813 0.18847 0.0
C4189 C 0.95494 0.39654 0.19422 0.0
C4190 C 0.97734 0.37549 0.2132 0.0
H4191 H 0.97234 0.31377 0.21249 0.0
H4192 H 0.9785 0.33692 0.21192 0.0
H4193 H 0.98624 0.35747 0.21975 0.0
H4194 H 0.98149 0.42375 0.19876 0.0
H4195 H 0.98291 0.40343 0.21172 0.0
H4196 H 0.94462 0.383 0.21593 0.0
C4197 C 0.97103 0.33385 0.21892 0.0
C4198 C 0.97712 0.36301 0.21909 0.0
C4199 C 0.96743 0.32055 0.21915 0.0
C4200 C 0.97407 0.41618 0.19731 0.0
C4201 C 0.9749 0.40457 0.20473 0.0
C4202 C 0.95379 0.37756 0.2168 0.0
C4203 C 0.96404 0.34317 0.22651 0.0
C4204 C 0.9651 0.35744 0.22333 0.0
C4205 C 0.96519 0.39476 0.20342 0.0
C4206 C 0.96556 0.38262 0.21152 0.0
H4207 H 0.94237 0.32236 0.24157 0.0
H4208 H 0.94905 0.34549 0.24167 0.0
H4209 H 0.94406 0.36118 0.22556 0.0
H4210 H 0.94593 0.40925 0.18004 0.0
H4211 H 0.94751 0.38898 0.19274 0.0
C4212 C 0.92386 0.71788 0.47116 0.0
C4213 C 0.92867 0.70734 0.47872 0.0
C4214 C 0.91068 0.72169 0.47222 0.0
C4215 C 0.87971 0.70489 0.48031 0.0
H4216 H 0.86533 0.73657 0.46436 0.0
C4217 C 0.82909 0.72339 0.45219 0.0
C4218 C 0.82728 0.71195 0.44451 0.0
C4219 C 0.84026 0.72474 0.4602 0.0
C4220 C 0.86908 0.72775 0.46908 0.0
H4221 H 0.92422 0.69373 0.4946 0.0
H4222 H 0.90137 0.70091 0.49708 0.0
H4223 H 0.88745 0.73704 0.47383 0.0
H4224 H 0.83588 0.69315 0.4389 0.0
H4225 H 0.85543 0.69563 0.4525 0.0
H4226 H 0.8614 0.69561 0.47555 0.0
C4227 C 0.9075 0.70579 0.4898 0.0
C4228 C 0.88183 0.72796 0.47439 0.0
C4229 C 0.9206 0.70171 0.48846 0.0
C4230 C 0.83693 0.70203 0.44478 0.0
C4231 C 0.84807 0.7034 0.4527 0.0
C4232 C 0.86695 0.70476 0.47523 0.0
C4233 C 0.90214 0.71519 0.48108 0.0
C4234 C 0.88759 0.7163 0.47932 0.0
C4235 C 0.84979 0.71467 0.46063 0.0
C4236 C 0.86183 0.71592 0.46883 0.0
H4237 H 0.92995 0.72242 0.46362 0.0
H4238 H 0.907 0.72891 0.46526 0.0
H4239 H 0.88367 0.69567 0.48398 0.0
H4240 H 0.82177 0.73119 0.45221 0.0
H4241 H 0.84134 0.73355 0.46618 0.0
C4242 C 0.9669 0.57179 0.27844 0.0
C4243 C 0.97479 0.56665 0.28858 0.0
C4244 C 0.96732 0.58524 0.2755 0.0
C4245 C 0.97408 0.61553 0.29395 0.0
H4246 H 0.95995 0.63158 0.2622 0.0
C4247 C 0.94996 0.66824 0.27577 0.0
C4248 C 0.94193 0.67045 0.28688 0.0
C4249 C 0.95708 0.65649 0.27452 0.0
C4250 C 0.96413 0.62734 0.27108 0.0
H4251 H 0.99053 0.57099 0.30242 0.0
H4252 H 0.99177 0.59437 0.29686 0.0
H4253 H 0.96893 0.60926 0.26124 0.0
H4254 H 0.9348 0.66201 0.30523 0.0
H4255 H 0.94689 0.64143 0.3029 0.0
H4256 H 0.96928 0.63353 0.30379 0.0
C4257 C 0.9848 0.58821 0.29157 0.0
C4258 C 0.96916 0.61449 0.27056 0.0
C4259 C 0.98416 0.57481 0.29472 0.0
C4260 C 0.94097 0.66063 0.2966 0.0
C4261 C 0.94802 0.64889 0.29532 0.0
C4262 C 0.96922 0.62837 0.29442 0.0
C4263 C 0.97582 0.59373 0.28252 0.0
C4264 C 0.97364 0.60823 0.28213 0.0
C4265 C 0.95626 0.64675 0.28435 0.0
C4266 C 0.96361 0.63417 0.28315 0.0
H4267 H 0.95961 0.56568 0.27352 0.0
H4268 H 0.96019 0.58909 0.26852 0.0
H4269 H 0.97733 0.61109 0.30311 0.0
H4270 H 0.95093 0.67566 0.26813 0.0
H4271 H 0.96337 0.65512 0.26598 0.0
C4272 C 0.5075 0.4205 0.79563 0.0
C4273 C 0.51622 0.42914 0.78923 0.0
C4274 C 0.50678 0.40728 0.79181 0.0
C4275 C 0.52172 0.38233 0.76861 0.0
H4276 H 0.52473 0.36224 0.80104 0.0
C4277 C 0.55446 0.33775 0.79151 0.0
C4278 C 0.55332 0.32783 0.78191 0.0
C4279 C 0.54666 0.34903 0.79078 0.0
C4280 C 0.52389 0.36769 0.79188 0.0
H4281 H 0.53006 0.43118 0.77304 0.0
H4282 H 0.52947 0.40807 0.76688 0.0
H4283 H 0.51546 0.38418 0.80171 0.0
H4284 H 0.54334 0.32206 0.76382 0.0
H4285 H 0.52961 0.3419 0.7626 0.0
H4286 H 0.53132 0.36605 0.75908 0.0
C4287 C 0.52285 0.4114 0.77459 0.0
C4288 C 0.51833 0.38024 0.79219 0.0
C4289 C 0.5233 0.42469 0.77819 0.0
C4290 C 0.54444 0.32957 0.77136 0.0
C4291 C 0.53658 0.3409 0.77065 0.0
C4292 C 0.52746 0.36977 0.76834 0.0
C4293 C 0.51512 0.40239 0.78182 0.0
C4294 C 0.51771 0.38798 0.78067 0.0
C4295 C 0.53748 0.35064 0.78049 0.0
C4296 C 0.52915 0.36263 0.78011 0.0
H4297 H 0.50173 0.4238 0.80402 0.0
H4298 H 0.50036 0.40072 0.7973 0.0
H4299 H 0.52111 0.38788 0.75949 0.0
H4300 H 0.56128 0.33675 0.79969 0.0
H4301 H 0.54786 0.35654 0.79831 0.0
C4302 C 0.52541 0.57184 0.72366 0.0
C4303 C 0.52173 0.57019 0.71038 0.0
C4304 C 0.5242 0.58417 0.72972 0.0
C4305 C 0.5105 0.61781 0.72653 0.0
H4306 H 0.54598 0.62903 0.73547 0.0
C4307 C 0.5286 0.67031 0.71769 0.0
C4308 C 0.53968 0.67508 0.72448 0.0
C4309 C 0.52366 0.65774 0.72042 0.0
C4310 C 0.53589 0.62613 0.73346 0.0
H4311 H 0.51277 0.57971 0.69341 0.0
H4312 H 0.51062 0.60121 0.70402 0.0
H4313 H 0.54136 0.60579 0.73259 0.0
H4314 H 0.55357 0.67113 0.74026 0.0
H4315 H 0.54458 0.64943 0.74552 0.0
H4316 H 0.50507 0.63821 0.72708 0.0
C4317 C 0.51446 0.59301 0.70973 0.0
C4318 C 0.53326 0.61274 0.73177 0.0
C4319 C 0.51583 0.58075 0.70361 0.0
C4320 C 0.54516 0.66753 0.73471 0.0
C4321 C 0.54002 0.65509 0.73768 0.0
C4322 C 0.51306 0.63123 0.72846 0.0
C4323 C 0.51911 0.59495 0.72266 0.0
C4324 C 0.52071 0.60852 0.72771 0.0
C4325 C 0.52954 0.64981 0.73021 0.0
C4326 C 0.52595 0.63561 0.73131 0.0
H4327 H 0.52991 0.56384 0.72915 0.0
H4328 H 0.52783 0.58545 0.73971 0.0
H4329 H 0.5007 0.61474 0.72351 0.0
H4330 H 0.52419 0.67597 0.70975 0.0
H4331 H 0.51573 0.65402 0.7143 0.0
C4332 C 0.91872 0.29571 0.02401 0.0
C4333 C 0.92073 0.30413 0.03488 0.0
C4334 C 0.90703 0.28846 0.02285 0.0
C4335 C 0.87931 0.27634 0.04314 0.0
H4336 H 0.85957 0.27574 0.01034 0.0
C4337 C 0.82253 0.27837 0.02855 0.0
C4338 C 0.81767 0.27085 0.03911 0.0
C4339 C 0.83587 0.2777 0.02516 0.0
C4340 C 0.86499 0.27574 0.01956 0.0
H4341 H 0.91195 0.31189 0.05282 0.0
H4342 H 0.89153 0.29951 0.05067 0.0
H4343 H 0.88183 0.285 0.0107 0.0
H4344 H 0.82229 0.25544 0.05319 0.0
H4345 H 0.84543 0.25372 0.04683 0.0
H4346 H 0.86231 0.26821 0.05233 0.0
C4347 C 0.89909 0.29821 0.04322 0.0
C4348 C 0.87779 0.28094 0.01973 0.0
C4349 C 0.91074 0.30541 0.04438 0.0
C4350 C 0.82592 0.26154 0.04519 0.0
C4351 C 0.83917 0.26062 0.04157 0.0
C4352 C 0.86653 0.2713 0.04301 0.0
C4353 C 0.89719 0.28951 0.03256 0.0
C4354 C 0.8848 0.28182 0.03167 0.0
C4355 C 0.84449 0.2693 0.03212 0.0
C4356 C 0.85899 0.27146 0.03134 0.0
H4357 H 0.92627 0.29452 0.01653 0.0
H4358 H 0.9058 0.28185 0.01453 0.0
H4359 H 0.88464 0.27657 0.05241 0.0
H4360 H 0.81633 0.28559 0.02366 0.0
H4361 H 0.83955 0.2846 0.01787 0.0
C4362 C 0.58762 0.69232 0.54212 0.0
C4363 C 0.5779 0.69219 0.53226 0.0
C4364 C 0.59882 0.70015 0.54074 0.0
C4365 C 0.61987 0.71649 0.51643 0.0
H4366 H 0.6344 0.73161 0.54846 0.0
C4367 C 0.67117 0.73694 0.54218 0.0
C4368 C 0.67942 0.72726 0.53668 0.0
C4369 C 0.65804 0.73794 0.53814 0.0
C4370 C 0.63045 0.72787 0.53926 0.0
H4371 H 0.57236 0.7 0.51307 0.0
H4372 H 0.59207 0.71378 0.51068 0.0
H4373 H 0.61219 0.72299 0.54857 0.0
H4374 H 0.68092 0.71192 0.52185 0.0
H4375 H 0.65792 0.71302 0.5154 0.0
H4376 H 0.63821 0.72133 0.50712 0.0
C4377 C 0.59097 0.70778 0.51946 0.0
C4378 C 0.61773 0.72268 0.53942 0.0
C4379 C 0.57972 0.69989 0.52084 0.0
C4380 C 0.67472 0.71943 0.52628 0.0
C4381 C 0.66149 0.72017 0.5225 0.0
C4382 C 0.63258 0.72188 0.5162 0.0
C4383 C 0.60055 0.7081 0.52949 0.0
C4384 C 0.61262 0.71625 0.52826 0.0
C4385 C 0.65281 0.72896 0.52889 0.0
C4386 C 0.6383 0.72694 0.52783 0.0
H4387 H 0.58655 0.68644 0.55099 0.0
H4388 H 0.60621 0.69987 0.54847 0.0
H4389 H 0.61612 0.71173 0.50762 0.0
H4390 H 0.6747 0.74328 0.55005 0.0
H4391 H 0.65177 0.74516 0.54294 0.0
C4392 C 0.70436 0.54733 0.57799 0.0
C4393 C 0.69966 0.53631 0.57103 0.0
C4394 C 0.71178 0.54568 0.58941 0.0
C4395 C 0.73131 0.54032 0.61082 0.0
H4396 H 0.71295 0.5202 0.63772 0.0
C4397 C 0.72705 0.53807 0.67113 0.0
C4398 C 0.72198 0.55089 0.67273 0.0
C4399 C 0.72926 0.53302 0.65845 0.0
C4400 C 0.71849 0.52552 0.63026 0.0
H4401 H 0.69926 0.51489 0.57039 0.0
H4402 H 0.71213 0.51202 0.5907 0.0
H4403 H 0.7074 0.51685 0.61451 0.0
H4404 H 0.71595 0.56876 0.66262 0.0
H4405 H 0.72016 0.5601 0.64057 0.0
H4406 H 0.74134 0.55001 0.62673 0.0
C4407 C 0.71011 0.52191 0.58718 0.0
C4408 C 0.71532 0.52361 0.61698 0.0
C4409 C 0.70272 0.52357 0.57561 0.0
C4410 C 0.71975 0.55881 0.66161 0.0
C4411 C 0.7223 0.55391 0.64903 0.0
C4412 C 0.73437 0.54232 0.62409 0.0
C4413 C 0.71467 0.53298 0.5942 0.0
C4414 C 0.72108 0.53165 0.60724 0.0
C4415 C 0.72685 0.54093 0.64735 0.0
C4416 C 0.72739 0.5355 0.6339 0.0
H4417 H 0.70224 0.55728 0.57468 0.0
H4418 H 0.71486 0.55442 0.59477 0.0
H4419 H 0.73612 0.54642 0.60346 0.0
H4420 H 0.72881 0.53181 0.67962 0.0
H4421 H 0.73263 0.52293 0.6573 0.0
C4422 C 0.7176 0.46423 0.92448 0.0
C4423 C 0.70806 0.47242 0.93027 0.0
C4424 C 0.72066 0.46557 0.91112 0.0
C4425 C 0.72601 0.46942 0.88218 0.0
H4426 H 0.69313 0.47392 0.8631 0.0
C4427 C 0.71961 0.45308 0.82773 0.0
C4428 C 0.70791 0.44599 0.8253 0.0
C4429 C 0.7213 0.45993 0.83959 0.0
C4430 C 0.70241 0.47266 0.86827 0.0
H4431 H 0.69552 0.48949 0.92729 0.0
H4432 H 0.70138 0.49232 0.90412 0.0
H4433 H 0.6943 0.4802 0.88608 0.0
H4434 H 0.68887 0.44043 0.83338 0.0
H4435 H 0.69193 0.45202 0.85413 0.0
H4436 H 0.73367 0.46071 0.86451 0.0
C4437 C 0.70603 0.48444 0.90966 0.0
C4438 C 0.70318 0.4765 0.88144 0.0
C4439 C 0.70272 0.48288 0.92293 0.0
C4440 C 0.69797 0.44585 0.83493 0.0
C4441 C 0.69967 0.45263 0.84677 0.0
C4442 C 0.72517 0.4654 0.869 0.0
C4443 C 0.71442 0.47531 0.90339 0.0
C4444 C 0.71482 0.47438 0.88875 0.0
C4445 C 0.71133 0.45978 0.84923 0.0
C4446 C 0.71316 0.46643 0.86213 0.0
H4447 H 0.72189 0.45611 0.92997 0.0
H4448 H 0.7271 0.45828 0.90669 0.0
H4449 H 0.73523 0.46796 0.88741 0.0
H4450 H 0.72744 0.45341 0.82045 0.0
H4451 H 0.73036 0.46539 0.84119 0.0
C4452 C 0.79558 0.48557 0.07515 0.0
C4453 C 0.78975 0.47592 0.06709 0.0
C4454 C 0.79154 0.48704 0.08823 0.0
C4455 C 0.79188 0.47788 0.11617 0.0
H4456 H 0.75925 0.464 0.13062 0.0
C4457 C 0.7922 0.44404 0.16034 0.0
C4458 C 0.78236 0.44502 0.17003 0.0
C4459 C 0.79135 0.45143 0.14881 0.0
C4460 C 0.76834 0.46815 0.12681 0.0
H4461 H 0.77441 0.46106 0.06589 0.0
H4462 H 0.76792 0.46297 0.08885 0.0
H4463 H 0.7596 0.47254 0.10808 0.0
H4464 H 0.76376 0.45435 0.17517 0.0
H4465 H 0.76228 0.46735 0.15483 0.0
H4466 H 0.80064 0.47338 0.13479 0.0
C4467 C 0.7753 0.46974 0.08513 0.0
C4468 C 0.76859 0.47291 0.11386 0.0
C4469 C 0.77911 0.46853 0.07195 0.0
C4470 C 0.77149 0.45339 0.16785 0.0
C4471 C 0.77064 0.46083 0.15624 0.0
C4472 C 0.79158 0.47329 0.1291 0.0
C4473 C 0.78192 0.47858 0.09361 0.0
C4474 C 0.78054 0.47715 0.10815 0.0
C4475 C 0.78067 0.46003 0.1467 0.0
C4476 C 0.78002 0.46769 0.13429 0.0
H4477 H 0.80365 0.49159 0.07149 0.0
H4478 H 0.79655 0.49426 0.09434 0.0
H4479 H 0.80131 0.48099 0.11222 0.0
H4480 H 0.80066 0.43762 0.16167 0.0
H4481 H 0.79905 0.45031 0.14147 0.0
C4482 C 0.77151 0.54496 0.3275 0.0
C4483 C 0.78351 0.55145 0.32489 0.0
C4484 C 0.76976 0.53801 0.33931 0.0
C4485 C 0.7667 0.53196 0.36882 0.0
H4486 H 0.79748 0.51509 0.38405 0.0
C4487 C 0.7768 0.53152 0.42388 0.0
C4488 C 0.78625 0.52285 0.42907 0.0
C4489 C 0.77308 0.53058 0.41065 0.0
C4490 C 0.78859 0.51937 0.37994 0.0
H4491 H 0.80298 0.55594 0.33264 0.0
H4492 H 0.79985 0.54417 0.35322 0.0
H4493 H 0.7979 0.52184 0.36121 0.0
H4494 H 0.798 0.50541 0.42519 0.0
H4495 H 0.79094 0.50324 0.40228 0.0
H4496 H 0.75739 0.52949 0.38762 0.0
C4497 C 0.7919 0.5441 0.34607 0.0
C4498 C 0.78895 0.52346 0.36684 0.0
C4499 C 0.79365 0.55099 0.33431 0.0
C4500 C 0.79088 0.51238 0.42128 0.0
C4501 C 0.78688 0.5112 0.40815 0.0
C4502 C 0.76625 0.52766 0.38193 0.0
C4503 C 0.78 0.53744 0.34865 0.0
C4504 C 0.77831 0.53046 0.36138 0.0
C4505 C 0.77855 0.52075 0.40246 0.0
C4506 C 0.77747 0.52196 0.38786 0.0
H4507 H 0.76352 0.54512 0.32039 0.0
H4508 H 0.76049 0.53297 0.34105 0.0
H4509 H 0.75828 0.53722 0.36484 0.0
H4510 H 0.77306 0.53967 0.42973 0.0
H4511 H 0.76673 0.53821 0.40668 0.0
C4512 C 0.01151 0.00219 0.29231 0.0
C4513 C 0.00696 0.99122 0.2994 0.0
C4514 C 0.00531 0.00574 0.28049 0.0
C4515 C 0.99044 0.98688 0.25432 0.0
H4516 H 0.99227 0.0203 0.23587 0.0
C4517 C 0.99794 0.01216 0.19967 0.0
C4518 C 0.00959 0.00541 0.19632 0.0
C4519 C 0.99116 0.00902 0.21121 0.0
C4520 C 0.99135 0.01088 0.24084 0.0
H4521 H 0.99134 0.97669 0.30106 0.0
H4522 H 0.98035 0.98309 0.28062 0.0
H4523 H 0.99143 0.02009 0.25989 0.0
H4524 H 0.02244 0.98914 0.20137 0.0
H4525 H 0.0107 0.98366 0.22171 0.0
H4526 H 0.99123 0.97765 0.2353 0.0
C4527 C 0.98885 0.98871 0.2839 0.0
C4528 C 0.99098 0.01079 0.25462 0.0
C4529 C 0.99508 0.98512 0.29562 0.0
C4530 C 0.01344 0.9944 0.20375 0.0
C4531 C 0.00669 0.99131 0.2154 0.0
C4532 C 0.99089 0.98697 0.24055 0.0
C4533 C 0.99448 0.99839 0.27574 0.0
C4534 C 0.99114 0.99878 0.2615 0.0
C4535 C 0.99602 -0.00082 0.21965 0.0
C4536 C 0.99195 0.99895 0.2337 0.0
H4537 H 0.02069 0.00698 0.29502 0.0
H4538 H 0.0099 0.01326 0.27442 0.0
H4539 H 0.99068 0.97743 0.25932 0.0
H4540 H 0.99475 0.02065 0.19398 0.0
H4541 H 0.98281 0.01506 0.21411 0.0
C4542 C 0.24627 0.7656 0.54144 0.0
C4543 C 0.25736 0.76156 0.54864 0.0
C4544 C 0.24282 0.75894 0.52984 0.0
C4545 C 0.23742 0.74336 0.50486 0.0
H4546 H 0.27004 0.74197 0.48476 0.0
C4547 C 0.23473 0.74749 0.44964 0.0
C4548 C 0.24188 0.75862 0.44543 0.0
C4549 C 0.2379 0.74128 0.4615 0.0
C4550 C 0.26085 0.7421 0.49025 0.0
H4551 H 0.2724 0.74647 0.55063 0.0
H4552 H 0.26616 0.73463 0.53062 0.0
H4553 H 0.27089 0.74306 0.50873 0.0
H4554 H 0.25887 0.77098 0.4493 0.0
H4555 H 0.26433 0.76033 0.47018 0.0
H4556 H 0.22742 0.74357 0.48633 0.0
C4557 C 0.26037 0.74311 0.53362 0.0
C4558 C 0.26131 0.74259 0.50401 0.0
C4559 C 0.26389 0.74985 0.54508 0.0
C4560 C 0.25323 0.76242 0.45236 0.0
C4561 C 0.25634 0.75628 0.46433 0.0
C4562 C 0.23697 0.74286 0.4911 0.0
C4563 C 0.25038 0.74811 0.52542 0.0
C4564 C 0.24961 0.7439 0.51142 0.0
C4565 C 0.24818 0.7462 0.46939 0.0
C4566 C 0.24871 0.7429 0.48364 0.0
H4567 H 0.24114 0.77464 0.54399 0.0
H4568 H 0.23508 0.76307 0.52373 0.0
H4569 H 0.22825 0.74419 0.51032 0.0
H4570 H 0.22604 0.74425 0.4443 0.0
H4571 H 0.23164 0.73334 0.465 0.0
C4572 C 0.48334 0.99345 0.7951 0.0
C4573 C 0.48725 0.00511 0.80144 0.0
C4574 C 0.48925 0.98981 0.78316 0.0
C4575 C 0.50196 0.00822 0.75538 0.0
H4576 H 0.50116 0.97374 0.73885 0.0
C4577 C 0.49459 0.97997 0.70205 0.0
C4578 C 0.48308 0.98664 0.69813 0.0
C4579 C 0.50113 0.98355 0.71361 0.0
C4580 C 0.50177 0.98347 0.74326 0.0
H4581 H 0.50164 0.02095 0.80161 0.0
H4582 H 0.51219 0.01441 0.781 0.0
H4583 H 0.50282 0.97536 0.76275 0.0
H4584 H 0.4701 0.00308 0.7023 0.0
H4585 H 0.48133 0.00925 0.72275 0.0
H4586 H 0.50026 0.01632 0.73593 0.0
C4587 C 0.50432 0.00831 0.78492 0.0
C4588 C 0.5026 0.98436 0.75698 0.0
C4589 C 0.49834 0.01201 0.79674 0.0
C4590 C 0.47898 0.99783 0.70514 0.0
C4591 C 0.48545 0.00135 0.71684 0.0
C4592 C 0.50113 0.00732 0.74166 0.0
C4593 C 0.4992 0.99775 0.77754 0.0
C4594 C 0.50207 0.99673 0.76322 0.0
C4595 C 0.49614 0.99376 0.72154 0.0
C4596 C 0.5004 0.99494 0.7355 0.0
H4597 H 0.4748 0.98798 0.79853 0.0
H4598 H 0.48505 0.9816 0.77773 0.0
H4599 H 0.50143 0.01792 0.75985 0.0
H4600 H 0.49802 0.97138 0.69665 0.0
H4601 H 0.50951 0.97773 0.71681 0.0
C4602 C 0.24329 0.23414 0.95304 0.0
C4603 C 0.25481 0.23757 0.94619 0.0
C4604 C 0.24025 0.24043 0.96495 0.0
C4605 C 0.23575 0.25479 0.99072 0.0
H4606 H 0.26811 0.25293 0.0112 0.0
C4607 C 0.23204 0.24732 0.04559 0.0
C4608 C 0.23878 0.23581 0.04938 0.0
C4609 C 0.23559 0.254 0.0341 0.0
C4610 C 0.259 0.25367 0.00563 0.0
H4611 H 0.27109 0.25145 0.94519 0.0
H4612 H 0.26557 0.26268 0.96575 0.0
H4613 H 0.26922 0.25315 0.98724 0.0
H4614 H 0.25539 0.22307 0.04513 0.0
H4615 H 0.26146 0.23449 0.02484 0.0
H4616 H 0.22548 0.25407 0.00908 0.0
C4617 C 0.25914 0.25487 0.96224 0.0
C4618 C 0.25961 0.25396 0.99187 0.0
C4619 C 0.26225 0.24849 0.95045 0.0
C4620 C 0.25007 0.23194 0.0424 0.0
C4621 C 0.25353 0.23853 0.03077 0.0
C4622 C 0.23513 0.25446 0.00448 0.0
C4623 C 0.24863 0.25032 0.97005 0.0
C4624 C 0.24796 0.25383 0.98426 0.0
C4625 C 0.24581 0.24914 0.0261 0.0
C4626 C 0.24674 0.25322 0.01206 0.0
H4627 H 0.23742 0.22575 0.94995 0.0
H4628 H 0.23209 0.23664 0.97072 0.0
H4629 H 0.22662 0.2549 0.98514 0.0
H4630 H 0.22338 0.25058 0.05097 0.0
H4631 H 0.22967 0.26233 0.03094 0.0
C4632 C 0.29611 0.99628 0.98711 0.0
C4633 C 0.29923 0.00828 0.99335 0.0
C4634 C 0.28438 0.98974 0.99007 0.0
C4635 C 0.25484 0.98994 0.98688 0.0
H4636 H 0.2349 0.99094 0.01948 0.0
C4637 C 0.20269 0.00977 0.99215 0.0
C4638 C 0.19514 0.00567 0.00299 0.0
C4639 C 0.21479 0.00366 0.98951 0.0
C4640 C 0.24032 0.99024 0.01028 0.0
H4641 H 0.29353 0.02204 0.00865 0.0
H4642 H 0.27289 0.0107 0.01383 0.0
H4643 H 0.25892 0.99162 0.02028 0.0
H4644 H 0.19309 0.99084 0.01827 0.0
H4645 H 0.21402 0.97997 0.01346 0.0
H4646 H 0.23622 0.9894 0.97685 0.0
C4647 C 0.27951 0.00625 0.00671 0.0
C4648 C 0.25408 0.99076 0.01077 0.0
C4649 C 0.29135 0.01276 0.00379 0.0
C4650 C 0.19886 0.99424 0.00992 0.0
C4651 C 0.21086 0.98808 0.00723 0.0
C4652 C 0.24108 0.9895 0.98639 0.0
C4653 C 0.27553 0.99518 -0.00076 0.0
C4654 C 0.26146 0.99119 -0.00094 0.0
C4655 C 0.21937 0.99334 0.99766 0.0
C4656 C 0.23366 0.99022 0.99806 0.0
H4657 H 0.30215 0.99261 0.97907 0.0
H4658 H 0.28169 0.98109 0.98437 0.0
H4659 H 0.26023 0.99037 0.97765 0.0
H4660 H 0.20004 0.01861 0.98673 0.0
H4661 H 0.22113 0.00795 0.98204 0.0
C4662 C 0.23312 0.04076 0.25401 0.0
C4663 C 0.23842 0.04822 0.24365 0.0
C4664 C 0.23914 0.02888 0.25767 0.0
C4665 C 0.25628 0.00324 0.23981 0.0
H4666 H 0.25261 0.9845 0.27292 0.0
C4667 C 0.24928 0.94815 0.2643 0.0
C4668 C 0.23838 0.94434 0.2566 0.0
C4669 C 0.2558 0.95999 0.26174 0.0
C4670 C 0.25405 0.98957 0.26361 0.0
H4671 H 0.25498 0.05034 0.23027 0.0
H4672 H 0.26565 0.02981 0.23689 0.0
H4673 H 0.25234 0.00853 0.27285 0.0
H4674 H 0.22682 0.94886 0.2392 0.0
H4675 H 0.2381 0.96967 0.23475 0.0
H4676 H 0.25719 0.98427 0.23049 0.0
C4677 C 0.25673 0.03285 0.24194 0.0
C4678 C 0.25377 0.00335 0.26359 0.0
C4679 C 0.25066 0.04462 0.23822 0.0
C4680 C 0.23523 0.95159 0.24525 0.0
C4681 C 0.2417 0.96353 0.24274 0.0
C4682 C 0.2565 0.98946 0.23982 0.0
C4683 C 0.25055 0.02444 0.25105 0.0
C4684 C 0.25429 0.0103 0.25163 0.0
C4685 C 0.25143 0.96824 0.25151 0.0
C4686 C 0.2548 0.98249 0.25166 0.0
H4687 H 0.22364 0.04334 0.25826 0.0
H4688 H 0.23412 0.0226 0.26472 0.0
H4689 H 0.2566 0.00829 0.23039 0.0
H4690 H 0.25198 0.94258 0.27303 0.0
H4691 H 0.26346 0.96324 0.26847 0.0
C4692 C 0.29668 0.0005 0.51276 0.0
C4693 C 0.30093 0.98909 0.5061 0.0
C4694 C 0.2844 0.00601 0.50995 0.0
C4695 C 0.2549 0.00333 0.51253 0.0
H4696 H 0.23581 0.00303 0.4794 0.0
C4697 C 0.20349 0.98193 0.50471 0.0
C4698 C 0.19601 0.98665 0.49407 0.0
C4699 C 0.21541 0.98811 0.50797 0.0
C4700 C 0.24098 0.00349 0.48876 0.0
H4701 H 0.29656 0.97541 0.49027 0.0
H4702 H 0.27495 0.98498 0.48537 0.0
H4703 H 0.25986 0.00355 0.47921 0.0
H4704 H 0.19386 0.00244 0.4798 0.0
H4705 H 0.2145 0.01337 0.48568 0.0
H4706 H 0.23603 0.00243 0.52206 0.0
C4707 C 0.28111 0.98972 0.49272 0.0
C4708 C 0.25475 0.00367 0.48861 0.0
C4709 C 0.29348 0.98423 0.4955 0.0
C4710 C 0.1996 0.99858 0.48798 0.0
C4711 C 0.21142 0.00478 0.49128 0.0
C4712 C 0.24112 0.00305 0.51268 0.0
C4713 C 0.27616 0.00015 0.5005 0.0
C4714 C 0.26184 0.00309 0.50049 0.0
C4715 C 0.21987 0.99907 0.50064 0.0
C4716 C 0.23405 0.00262 0.50078 0.0
H4717 H 0.30238 0.00452 0.52088 0.0
H4718 H 0.28093 0.01421 0.5159 0.0
H4719 H 0.26009 0.00274 0.52187 0.0
H4720 H 0.20093 0.9727 0.50947 0.0
H4721 H 0.22174 0.98347 0.51524 0.0
C4722 C 0.24616 0.04742 0.76277 0.0
C4723 C 0.2576 0.05153 0.75607 0.0
C4724 C 0.24013 0.03548 0.75954 0.0
C4725 C 0.24154 0.00636 0.73728 0.0
H4726 H 0.24319 0.98681 0.77023 0.0
C4727 C 0.26197 0.95375 0.75245 0.0
C4728 C 0.25673 0.94645 0.74193 0.0
C4729 C 0.25654 0.96605 0.75566 0.0
C4730 C 0.24249 0.99214 0.76098 0.0
H4731 H 0.2707 0.04741 0.73971 0.0
H4732 H 0.26024 0.02644 0.73407 0.0
H4733 H 0.24312 0.01086 0.77064 0.0
H4734 H 0.24076 0.9452 0.72772 0.0
H4735 H 0.23116 0.96649 0.73347 0.0
H4736 H 0.24185 0.98763 0.72759 0.0
C4737 C 0.25586 0.03243 0.74178 0.0
C4738 C 0.24232 0.00591 0.76119 0.0
C4739 C 0.26186 0.04446 0.74497 0.0
C4740 C 0.24507 0.95078 0.73577 0.0
C4741 C 0.23961 0.96297 0.73901 0.0
C4742 C 0.24162 0.99258 0.73708 0.0
C4743 C 0.24552 0.02744 0.74963 0.0
C4744 C 0.24238 0.01316 0.74931 0.0
C4745 C 0.24577 0.97108 0.7484 0.0
C4746 C 0.24263 0.98535 0.74892 0.0
H4747 H 0.24262 0.05283 0.7713 0.0
H4748 H 0.23199 0.03201 0.76556 0.0
H4749 H 0.24153 0.01169 0.728 0.0
H4750 H 0.27099 0.95062 0.75729 0.0
H4751 H 0.26152 0.9721 0.76294 0.0
C4752 C 0.99711 0.20418 0.01288 0.0
C4753 C 0.00856 0.19744 0.00902 0.0
C4754 C 0.99375 0.21607 0.00672 0.0
C4755 C 0.98844 0.24175 0.99244 0.0
H4756 H 0.02059 0.26263 0.99294 0.0
C4757 C 0.98436 0.29669 -0.0007 0.0
C4758 C 0.9914 0.30068 0.01057 0.0
C4759 C 0.98782 0.28515 0.99265 0.0
C4760 C 0.01153 0.25694 0.99257 0.0
H4761 H 0.02439 0.19664 0.99464 0.0
H4762 H 0.01828 0.21714 0.98364 0.0
H4763 H 0.02199 0.23868 0.99295 0.0
H4764 H 0.00844 0.29675 0.02284 0.0
H4765 H 0.01437 0.27639 0.01147 0.0
H4766 H 0.97798 0.26 0.99329 0.0
C4767 C 0.01216 0.21357 0.99165 0.0
C4768 C 0.0123 0.24319 0.99243 0.0
C4769 C 0.01561 0.20181 0.9979 0.0
C4770 C 0.00288 0.29386 0.01417 0.0
C4771 C 0.00626 0.28219 0.00761 0.0
C4772 C 0.98767 0.25551 0.99262 0.0
C4773 C 0.00173 0.22126 0.99656 0.0
C4774 C 0.00076 0.23545 0.99303 0.0
C4775 C 0.99826 0.27732 0.9973 0.0
C4776 C -0.00079 0.26323 0.99336 0.0
H4777 H 0.99156 0.201 0.02145 0.0
H4778 H 0.98566 0.22176 0.01079 0.0
H4779 H 0.97938 0.23606 0.9927 0.0
H4780 H 0.97556 0.30195 0.99622 0.0
H4781 H 0.98168 0.28182 0.98454 0.0
C4782 C 0.51471 0.29691 0.99891 0.0
C4783 C 0.50701 0.30056 0.98795 0.0
C4784 C 0.51195 0.28533 0.0058 0.0
C4785 C 0.51318 0.25572 0.00592 0.0
H4786 H 0.47954 0.2376 0.00699 0.0
C4787 C 0.50465 0.20451 0.98521 0.0
C4788 C 0.49353 0.19738 0.9893 0.0
C4789 C 0.50796 0.21632 0.99158 0.0
C4790 C 0.48906 0.24247 0.00713 0.0
H4791 H 0.48954 0.29594 0.97655 0.0
H4792 H 0.48484 0.27551 0.98833 0.0
H4793 H 0.48003 0.26158 0.0071 0.0
H4794 H 0.47832 0.19573 0.00425 0.0
H4795 H 0.48436 0.21606 0.01564 0.0
H4796 H 0.52218 0.23661 0.00535 0.0
C4797 C 0.49292 0.28162 0.99178 0.0
C4798 C 0.48931 0.25624 0.00704 0.0
C4799 C 0.49559 0.29333 0.98498 0.0
C4800 C 0.48686 0.20121 0.00084 0.0
C4801 C 0.49026 0.21288 0.0073 0.0
C4802 C 0.51294 0.24194 0.00606 0.0
C4803 C 0.50157 0.2771 0.00171 0.0
C4804 C 0.50133 0.263 0.00571 0.0
C4805 C 0.50024 0.22101 0.00218 0.0
C4806 C 0.50085 0.23517 0.00594 0.0
H4807 H 0.52348 0.30248 0.00149 0.0
H4808 H 0.51859 0.28229 0.01362 0.0
H4809 H 0.52265 0.26058 0.00485 0.0
H4810 H 0.5099 0.20175 0.9763 0.0
H4811 H 0.51571 0.22235 0.98734 0.0
C4812 C 0.95339 0.24186 0.23472 0.0
C4813 C 0.94549 0.25218 0.23944 0.0
C4814 C 0.96542 0.23909 0.24093 0.0
C4815 C 0.99138 0.23566 0.25583 0.0
H4816 H 0.00854 0.26997 0.25514 0.0
C4817 C 0.04644 0.23764 0.25076 0.0
C4818 C 0.04956 0.24376 0.23871 0.0
C4819 C 0.03457 0.24046 0.25711 0.0
C4820 C 0.00388 0.26035 0.25564 0.0
H4821 H 0.94272 0.26631 0.25527 0.0
H4822 H 0.96357 0.26131 0.2662 0.0
H4823 H 0.98451 0.26864 0.25528 0.0
H4824 H 0.04376 0.25879 0.2247 0.0
H4825 H 0.0229 0.26376 0.23576 0.0
H4826 H 0.01075 0.22737 0.25521 0.0
C4827 C 0.96072 0.25557 0.25763 0.0
C4828 C 0.99013 0.25955 0.25582 0.0
C4829 C 0.94877 0.25836 0.25142 0.0
C4830 C 0.04156 0.25402 0.23403 0.0
C4831 C 0.02961 0.25682 0.24037 0.0
C4832 C 0.00514 0.23646 0.25578 0.0
C4833 C 0.96956 0.2466 0.25189 0.0
C4834 C 0.98376 0.24719 0.25532 0.0
C4835 C 0.02564 0.24938 0.25143 0.0
C4836 C 0.0115 0.24881 0.25508 0.0
H4837 H 0.95108 0.23704 0.22545 0.0
H4838 H 0.97206 0.23211 0.23627 0.0
H4839 H 0.98672 0.22603 0.25548 0.0
H4840 H 0.05256 0.22973 0.25457 0.0
H4841 H 0.03185 0.23477 0.26575 0.0
C4842 C 0.99384 0.7919 0.48508 0.0
C4843 C 0.00473 0.7994 0.48915 0.0
C4844 C 0.99106 0.77991 0.49134 0.0
C4845 C 0.98721 0.75415 0.50624 0.0
H4846 H 0.0206 0.73533 0.50509 0.0
C4847 C 0.98626 0.69906 0.50101 0.0
C4848 C 0.99249 0.69549 0.48914 0.0
C4849 C 0.98959 0.71081 0.50735 0.0
C4850 C 0.01123 0.74045 0.50569 0.0
H4851 H 0.02004 0.80144 0.50397 0.0
H4852 H 0.015 0.7807 0.51506 0.0
H4853 H 0.02047 0.75936 0.50488 0.0
H4854 H 0.00818 0.70033 0.47548 0.0
H4855 H 0.01397 0.721 0.48644 0.0
H4856 H 0.97794 0.73524 0.50599 0.0
C4857 C 0.00884 0.7838 0.50688 0.0
C4858 C 0.01112 0.75423 0.50569 0.0
C4859 C 0.01168 0.79569 0.50058 0.0
C4860 C 0.00329 0.70288 0.48465 0.0
C4861 C 0.00657 0.71473 0.49095 0.0
C4862 C 0.98732 0.74037 0.50632 0.0
C4863 C -0.0009 0.77539 0.50176 0.0
C4864 C -0.00091 0.7612 0.50534 0.0
C4865 C -0.00088 0.71921 0.50182 0.0
C4866 C -0.00068 0.73339 0.50541 0.0
H4867 H 0.9884 0.79456 0.47626 0.0
H4868 H 0.98348 0.77362 0.48715 0.0
H4869 H 0.97781 0.75927 0.50609 0.0
H4870 H 0.97797 0.69339 0.50471 0.0
H4871 H 0.9839 0.71388 0.51587 0.0
C4872 C 0.49649 0.70024 0.51154 0.0
C4873 C 0.50825 0.69389 0.50796 0.0
C4874 C 0.49314 0.71229 0.50569 0.0
C4875 C 0.48783 0.73827 0.49191 0.0
H4876 H 0.5193 0.76001 0.49466 0.0
C4877 C 0.48213 0.79334 0.49784 0.0
C4878 C 0.48842 0.79786 0.50935 0.0
C4879 C 0.48613 0.78163 0.49186 0.0
C4880 C 0.51045 0.75409 0.49369 0.0
H4881 H 0.5247 0.69396 0.49427 0.0
H4882 H 0.51867 0.71478 0.48384 0.0
H4883 H 0.52137 0.7361 0.49434 0.0
H4884 H 0.50462 0.79457 0.52288 0.0
H4885 H 0.51149 0.77385 0.51265 0.0
H4886 H 0.47684 0.75622 0.49238 0.0
C4887 C 0.51227 0.71077 0.49141 0.0
C4888 C 0.51161 0.74036 0.49335 0.0
C4889 C 0.51568 0.69883 0.49733 0.0
C4890 C 0.49966 0.79127 0.51399 0.0
C4891 C 0.50358 0.77941 0.50809 0.0
C4892 C 0.48667 0.752 0.49227 0.0
C4893 C 0.50145 0.71803 0.49613 0.0
C4894 C 0.50028 0.7323 0.49305 0.0
C4895 C 0.49636 0.77412 0.49741 0.0
C4896 C 0.49793 0.76002 0.49376 0.0
H4897 H 0.49061 0.69663 0.51971 0.0
H4898 H 0.48474 0.71764 0.50958 0.0
H4899 H 0.47894 0.73233 0.49151 0.0
H4900 H 0.47352 0.79841 0.49399 0.0
H4901 H 0.4806 0.77797 0.48346 0.0
C4902 C 0.94847 0.73141 0.24828 0.0
C4903 C 0.94464 0.73918 0.25912 0.0
C4904 C 0.96041 0.73381 0.24187 0.0
C4905 C 0.98998 0.73172 0.24355 0.0
H4906 H 0.00895 0.76484 0.24129 0.0
C4907 C 0.04094 0.74096 0.26499 0.0
C4908 C 0.0484 0.75147 0.26 0.0
C4909 C 0.02921 0.73727 0.25868 0.0
C4910 C 0.00384 0.75545 0.24152 0.0
H4911 H 0.9493 0.75653 0.27071 0.0
H4912 H 0.97028 0.7607 0.25963 0.0
H4913 H 0.98494 0.7649 0.24067 0.0
H4914 H 0.05074 0.7651 0.2437 0.0
H4915 H 0.03051 0.75843 0.23248 0.0
H4916 H 0.00887 0.72235 0.24518 0.0
C4917 C 0.96407 0.75278 0.25599 0.0
C4918 C 0.99006 0.75553 0.24129 0.0
C4919 C 0.95204 0.75043 0.26235 0.0
C4920 C 0.04503 0.757 0.24774 0.0
C4921 C 0.03341 0.75326 0.24138 0.0
C4922 C 0.00376 0.73165 0.24382 0.0
C4923 C 0.96874 0.74396 0.24628 0.0
C4924 C 0.98299 0.74373 0.24291 0.0
C4925 C 0.02492 0.74404 0.24729 0.0
C4926 C 0.01081 0.74356 0.24342 0.0
H4927 H 0.9428 0.72276 0.24551 0.0
H4928 H 0.96362 0.72705 0.23422 0.0
H4929 H 0.98484 0.72244 0.24492 0.0
H4930 H 0.04332 0.73664 0.27449 0.0
H4931 H 0.02287 0.73014 0.26351 0.0
C4932 C 0.45062 0.23765 0.7482 0.0
C4933 C 0.44716 0.24355 0.76027 0.0
C4934 C 0.46226 0.24121 0.74181 0.0
C4935 C 0.49189 0.23927 0.74209 0.0
H4936 H 0.51042 0.27268 0.74366 0.0
C4937 C 0.54403 0.24633 0.76163 0.0
C4938 C 0.55117 0.25745 0.75753 0.0
C4939 C 0.5319 0.24339 0.7557 0.0
C4940 C 0.5054 0.26328 0.74281 0.0
H4941 H 0.45215 0.25883 0.77435 0.0
H4942 H 0.47266 0.26502 0.76328 0.0
H4943 H 0.48639 0.27244 0.74436 0.0
H4944 H 0.55245 0.27298 0.74287 0.0
H4945 H 0.53144 0.2677 0.73237 0.0
H4946 H 0.51092 0.23008 0.74137 0.0
C4947 C 0.46636 0.25772 0.75866 0.0
C4948 C 0.49163 0.26316 0.74334 0.0
C4949 C 0.4546 0.25421 0.76501 0.0
C4950 C 0.54698 0.26445 0.7463 0.0
C4951 C 0.53494 0.26147 0.74034 0.0
C4952 C 0.50566 0.23939 0.74164 0.0
C4953 C 0.47069 0.25063 0.74748 0.0
C4954 C 0.48476 0.25114 0.74355 0.0
C4955 C 0.52687 0.25151 0.74558 0.0
C4956 C 0.51256 0.25136 0.74257 0.0
H4957 H 0.44491 0.22946 0.74432 0.0
H4958 H 0.46522 0.23579 0.73307 0.0
H4959 H 0.4869 0.22981 0.74235 0.0
H4960 H 0.54705 0.24082 0.77029 0.0
H4961 H 0.52589 0.23564 0.75997 0.0
C4962 C 0.49484 0.48803 0.79694 0.0
C4963 C 0.50676 0.49398 0.80085 0.0
C4964 C 0.48877 0.49172 0.78517 0.0
C4965 C 0.49138 0.51385 0.756 0.0
H4966 H 0.49169 0.48078 0.73656 0.0
C4967 C 0.51404 0.49751 0.70512 0.0
C4968 C 0.51016 0.50848 0.69765 0.0
C4969 C 0.50732 0.49447 0.71681 0.0
C4970 C 0.49133 0.49008 0.74185 0.0
H4971 H 0.5207 0.50962 0.79665 0.0
H4972 H 0.51018 0.51606 0.77596 0.0
H4973 H 0.49088 0.48047 0.76058 0.0
H4974 H 0.49533 0.52371 0.69529 0.0
H4975 H 0.48345 0.51823 0.71549 0.0
H4976 H 0.49291 0.52343 0.7373 0.0
C4977 C 0.50546 0.50857 0.78197 0.0
C4978 C 0.49074 0.48994 0.75561 0.0
C4979 C 0.5115 0.50492 0.79383 0.0
C4980 C 0.49855 0.51527 0.70103 0.0
C4981 C 0.4918 0.51219 0.7126 0.0
C4982 C 0.4919 0.51399 0.74223 0.0
C4983 C 0.49459 0.50136 0.7771 0.0
C4984 C 0.4914 0.50182 0.76284 0.0
C4985 C 0.49665 0.50234 0.72104 0.0
C4986 C 0.49252 0.50208 0.73506 0.0
H4987 H 0.49093 0.47965 0.80233 0.0
H4988 H 0.48024 0.4862 0.78179 0.0
H4989 H 0.49182 0.52313 0.76131 0.0
H4990 H 0.52301 0.4922 0.70272 0.0
H4991 H 0.51132 0.48682 0.72313 0.0
C4992 C 0.74294 0.26246 0.04209 0.0
C4993 C 0.75364 0.25838 0.04984 0.0
C4994 C 0.74 0.25573 0.03038 0.0
C4995 C 0.73598 0.24006 0.00513 0.0
H4996 H 0.7697 0.23933 0.98688 0.0
C4997 C 0.73613 0.24455 0.95001 0.0
C4998 C 0.74299 0.25607 0.94642 0.0
C4999 C 0.73898 0.23818 0.96186 0.0
C5000 C 0.76022 0.23925 0.99185 0.0
H5001 H 0.76841 0.24318 0.0527 0.0
H5002 H 0.76307 0.23124 0.03249 0.0
H5003 H 0.76918 0.24018 0.01089 0.0
H5004 H 0.75928 0.26897 0.95136 0.0
H5005 H 0.76423 0.25797 0.9722 0.0
H5006 H 0.72704 0.24026 0.98606 0.0
C5007 C 0.75718 0.23977 0.03516 0.0
C5008 C 0.75989 0.23962 0.00562 0.0
C5009 C 0.76018 0.24655 0.04675 0.0
C5010 C 0.7539 0.26009 0.95392 0.0
C5011 C 0.7567 0.25376 0.96587 0.0
C5012 C 0.73631 0.23965 0.99136 0.0
C5013 C 0.74771 0.24483 0.02641 0.0
C5014 C 0.74777 0.24069 0.01237 0.0
C5015 C 0.74865 0.24331 0.97035 0.0
C5016 C 0.74845 0.23991 0.98457 0.0
H5017 H 0.73783 0.2716 0.04427 0.0
H5018 H 0.73264 0.2599 0.02384 0.0
H5019 H 0.72651 0.24076 0.01007 0.0
H5020 H 0.72774 0.2412 0.94425 0.0
H5021 H 0.73283 0.22998 0.96492 0.0
C5022 C 0.98339 0.49961 0.20151 0.0
C5023 C 0.98732 0.48858 0.19414 0.0
C5024 C 0.98946 0.50228 0.21364 0.0
C5025 C 0.00284 0.48204 0.23974 0.0
H5026 H 0.00379 0.51534 0.25851 0.0
C5027 C 0.98208 0.49054 0.2912 0.0
C5028 C 0.98689 0.50122 0.29857 0.0
C5029 C 0.98817 0.48715 0.27927 0.0
C5030 C 0.00392 0.50592 0.25344 0.0
H5031 H 0.00179 0.47289 0.19248 0.0
H5032 H 0.01255 0.47773 0.21346 0.0
H5033 H 0.00412 0.51529 0.23448 0.0
H5034 H 0.00275 0.51545 0.30049 0.0
H5035 H 0.01355 0.50932 0.27987 0.0
H5036 H 0.00186 0.47271 0.25869 0.0
C5037 C 0.00459 0.48408 0.21015 0.0
C5038 C 0.00399 0.50593 0.23966 0.0
C5039 C 0.99848 0.48136 0.19813 0.0
C5040 C 0.99882 0.50725 0.29484 0.0
C5041 C 0.00494 0.5038 0.28302 0.0
C5042 C 0.00272 0.48203 0.25352 0.0
C5043 C -0.00044 0.49399 0.21842 0.0
C5044 C 0.00288 0.49402 0.23267 0.0
C5045 C -0.00085 0.49437 0.27469 0.0
C5046 C 0.00269 0.494 0.26049 0.0
H5047 H 0.97478 0.50528 0.19864 0.0
H5048 H 0.98534 0.51 0.21979 0.0
H5049 H 0.00187 0.47267 0.23465 0.0
H5050 H 0.97285 0.48582 0.29386 0.0
H5051 H 0.98345 0.47983 0.27305 0.0
C5052 C 0.74701 0.73445 0.45184 0.0
C5053 C 0.7584 0.73787 0.44477 0.0
C5054 C 0.74421 0.74074 0.46381 0.0
C5055 C 0.74029 0.7554 0.48963 0.0
H5056 H 0.77297 0.75303 0.50957 0.0
C5057 C 0.73744 0.74991 0.54477 0.0
C5058 C 0.74358 0.73812 0.54871 0.0
C5059 C 0.74111 0.75607 0.53303 0.0
C5060 C 0.76379 0.75394 0.50415 0.0
H5061 H 0.77468 0.75171 0.44346 0.0
H5062 H 0.76959 0.76292 0.46414 0.0
H5063 H 0.77364 0.75288 0.48557 0.0
H5064 H 0.75933 0.72434 0.54448 0.0
H5065 H 0.76568 0.73494 0.52381 0.0
H5066 H 0.73037 0.75533 0.50821 0.0
C5067 C 0.76306 0.75515 0.46074 0.0
C5068 C 0.76415 0.75399 0.49037 0.0
C5069 C 0.76592 0.74879 0.44888 0.0
C5070 C 0.75451 0.73346 0.54165 0.0
C5071 C 0.75812 0.73956 0.52979 0.0
C5072 C 0.73993 0.75536 0.50341 0.0
C5073 C 0.75272 0.7506 0.46875 0.0
C5074 C 0.75237 0.7541 0.48297 0.0
C5075 C 0.75087 0.75042 0.52498 0.0
C5076 C 0.75164 0.754 0.5108 0.0
H5077 H 0.74109 0.72603 0.44887 0.0
H5078 H 0.73616 0.73698 0.46976 0.0
H5079 H 0.73107 0.75563 0.48421 0.0
H5080 H 0.72903 0.75374 0.55018 0.0
H5081 H 0.73557 0.7646 0.52973 0.0
C5082 C 0.69928 0.49676 0.51079 0.0
C5083 C 0.69618 0.50807 0.50339 0.0
C5084 C 0.7108 0.48969 0.5082 0.0
C5085 C 0.74033 0.48953 0.51072 0.0
H5086 H 0.75982 0.48877 0.47785 0.0
C5087 C 0.79129 0.51116 0.50381 0.0
C5088 C 0.79885 0.50709 0.49296 0.0
C5089 C 0.77962 0.50446 0.50691 0.0
C5090 C 0.75456 0.48854 0.48716 0.0
H5091 H 0.70164 0.51994 0.4865 0.0
H5092 H 0.72194 0.50779 0.48206 0.0
H5093 H 0.73583 0.48869 0.47735 0.0
H5094 H 0.80145 0.49188 0.47814 0.0
H5095 H 0.78131 0.47997 0.4838 0.0
H5096 H 0.75907 0.49014 0.5205 0.0
C5097 C 0.71547 0.50423 0.48979 0.0
C5098 C 0.74078 0.48863 0.48683 0.0
C5099 C 0.70383 0.51123 0.4923 0.0
C5100 C 0.79564 0.49525 0.48648 0.0
C5101 C 0.78409 0.48849 0.48966 0.0
C5102 C 0.75411 0.48944 0.51105 0.0
C5103 C 0.71949 0.49395 0.49828 0.0
C5104 C 0.73354 0.48984 0.49857 0.0
C5105 C 0.77547 0.4936 0.49924 0.0
C5106 C 0.76136 0.48966 0.49925 0.0
H5107 H 0.6934 0.49407 0.51932 0.0
H5108 H 0.71348 0.48163 0.5147 0.0
H5109 H 0.73508 0.49053 0.51998 0.0
H5110 H 0.79356 0.52031 0.50888 0.0
H5111 H 0.7732 0.50868 0.51435 0.0
C5112 C 0.73437 0.4525 0.74599 0.0
C5113 C 0.73713 0.44477 0.75711 0.0
C5114 C 0.74157 0.46409 0.74375 0.0
C5115 C 0.75583 0.48875 0.76517 0.0
H5116 H 0.75867 0.50813 0.73235 0.0
C5117 C 0.75303 0.5441 0.74055 0.0
C5118 C 0.74087 0.54761 0.74622 0.0
C5119 C 0.75928 0.5324 0.7442 0.0
C5120 C 0.75831 0.50288 0.74166 0.0
H5121 H 0.7506 0.44179 0.77347 0.0
H5122 H 0.76336 0.46178 0.76937 0.0
H5123 H 0.7581 0.48413 0.73188 0.0
H5124 H 0.72653 0.54274 0.76127 0.0
H5125 H 0.73729 0.52215 0.76758 0.0
H5126 H 0.75522 0.50754 0.77488 0.0
C5127 C 0.75548 0.4592 0.7626 0.0
C5128 C 0.75785 0.48911 0.74134 0.0
C5129 C 0.74823 0.44774 0.76489 0.0
C5130 C 0.73594 0.54024 0.75682 0.0
C5131 C 0.74213 0.52842 0.76041 0.0
C5132 C 0.75625 0.50253 0.76548 0.0
C5133 C 0.75163 0.46795 0.75258 0.0
C5134 C 0.75593 0.48194 0.75303 0.0
C5135 C 0.75334 0.52396 0.75345 0.0
C5136 C 0.75682 0.50974 0.75368 0.0
H5137 H 0.72581 0.45042 0.73992 0.0
H5138 H 0.73832 0.47063 0.73595 0.0
H5139 H 0.75427 0.48354 0.77438 0.0
H5140 H 0.75705 0.54975 0.7324 0.0
H5141 H 0.76806 0.52936 0.7389 0.0
C5142 C 0.79648 0.50007 0.01043 0.0
C5143 C 0.79989 0.48846 0.00363 0.0
C5144 C 0.78449 0.50632 0.0079 0.0
C5145 C 0.75509 0.50432 0.01161 0.0
H5146 H 0.73455 0.5043 0.97936 0.0
C5147 C 0.70432 0.48138 0.00555 0.0
C5148 C 0.69627 0.48587 0.99524 0.0
C5149 C 0.71603 0.48809 0.00851 0.0
C5150 C 0.74011 0.50471 0.98849 0.0
H5151 H 0.79449 0.47528 0.98771 0.0
H5152 H 0.77343 0.48614 0.98328 0.0
H5153 H 0.75855 0.50511 0.97812 0.0
H5154 H 0.69288 0.50171 0.98129 0.0
H5155 H 0.71313 0.51358 0.98666 0.0
H5156 H 0.73668 0.50298 0.02196 0.0
C5157 C 0.77999 0.49048 0.99053 0.0
C5158 C 0.75387 0.50507 0.98774 0.0
C5159 C 0.79207 0.48425 0.99303 0.0
C5160 C 0.69904 0.49806 0.98924 0.0
C5161 C 0.71066 0.5048 0.99224 0.0
C5162 C 0.74133 0.50386 0.01237 0.0
C5163 C 0.77572 0.501 0.99859 0.0
C5164 C 0.76149 0.50428 -0.00073 0.0
C5165 C 0.71971 0.49936 0.0012 0.0
C5166 C 0.73374 0.50346 0.00079 0.0
H5167 H 0.80247 0.50355 0.01859 0.0
H5168 H 0.78156 0.51457 0.01406 0.0
H5169 H 0.76068 0.50358 0.0207 0.0
H5170 H 0.70239 0.47195 0.01022 0.0
H5171 H 0.72282 0.48365 0.01548 0.0
C5172 C 0.74674 0.54611 0.2628 0.0
C5173 C 0.75774 0.55018 0.2554 0.0
C5174 C 0.74034 0.53429 0.25985 0.0
C5175 C 0.74046 0.50531 0.23709 0.0
H5176 H 0.74232 0.48551 0.26987 0.0
C5177 C 0.76271 0.4536 0.25218 0.0
C5178 C 0.7585 0.44641 0.24113 0.0
C5179 C 0.75636 0.46541 0.25551 0.0
C5180 C 0.74157 0.49089 0.26065 0.0
H5181 H 0.76971 0.54605 0.23819 0.0
H5182 H 0.75875 0.52523 0.23312 0.0
H5183 H 0.74225 0.50951 0.27048 0.0
H5184 H 0.7434 0.44469 0.22607 0.0
H5185 H 0.73209 0.46506 0.23212 0.0
H5186 H 0.74095 0.48671 0.22722 0.0
C5187 C 0.75491 0.53118 0.24114 0.0
C5188 C 0.74138 0.50467 0.26097 0.0
C5189 C 0.76123 0.54312 0.24402 0.0
C5190 C 0.7469 0.45021 0.23455 0.0
C5191 C 0.74048 0.4619 0.23796 0.0
C5192 C 0.74066 0.49153 0.23677 0.0
C5193 C 0.74497 0.52625 0.24954 0.0
C5194 C 0.74148 0.51203 0.24917 0.0
C5195 C 0.74568 0.47006 0.24788 0.0
C5196 C 0.74186 0.48419 0.24853 0.0
H5197 H 0.74376 0.55153 0.27154 0.0
H5198 H 0.73249 0.53092 0.26629 0.0
H5199 H 0.74036 0.51069 0.22785 0.0
H5200 H 0.77167 0.45087 0.25736 0.0
H5201 H 0.76066 0.47147 0.26321 0.0
C5202 C 0.54398 0.75014 0.734 0.0
C5203 C 0.55057 0.73859 0.7378 0.0
C5204 C 0.53226 0.75375 0.74035 0.0
C5205 C 0.50683 0.75934 0.75509 0.0
H5206 H 0.48554 0.72746 0.75391 0.0
C5207 C 0.45179 0.76418 0.74966 0.0
C5208 C 0.44748 0.75773 0.73816 0.0
C5209 C 0.46345 0.76033 0.75585 0.0
C5210 C 0.49135 0.73643 0.75448 0.0
H5211 H 0.5514 0.72287 0.7523 0.0
H5212 H 0.53116 0.72936 0.76358 0.0
H5213 H 0.50949 0.72578 0.75377 0.0
H5214 H 0.45099 0.74135 0.72491 0.0
H5215 H 0.47159 0.7347 0.73552 0.0
H5216 H 0.48869 0.77002 0.75466 0.0
C5217 C 0.53473 0.7354 0.75551 0.0
C5218 C 0.50509 0.7355 0.75455 0.0
C5219 C 0.54633 0.73174 0.74909 0.0
C5220 C 0.45413 0.74642 0.7338 0.0
C5221 C 0.46593 0.74264 0.73991 0.0
C5222 C 0.49308 0.76028 0.75504 0.0
C5223 C 0.52711 0.74589 0.75062 0.0
C5224 C 0.51297 0.74696 0.75421 0.0
C5225 C 0.47108 0.75008 0.7505 0.0
C5226 C 0.48521 0.74884 0.7541 0.0
H5227 H 0.54706 0.75555 0.7253 0.0
H5228 H 0.52661 0.76189 0.73633 0.0
H5229 H 0.51264 0.76833 0.75498 0.0
H5230 H 0.44668 0.77286 0.75328 0.0
H5231 H 0.46702 0.76604 0.76416 0.0
loop_
_geom_bond_atom_site_label_1
_geom_bond_atom_site_label_2
_geom_bond_distance
_geom_bond_site_symmetry_2
_ccdc_geom_bond_type
Co0 O3 1.970 . S
Co0 N17 1.989 . S
Co0 O25 1.967 . S
Co0 O32 1.920 . S
Co1 O4 1.966 . S
Co1 N10 2.022 . S
Co1 N18 1.993 . S
Co1 O26 1.941 . S
C2 O3 1.258 . S
C2 O4 1.263 . S
O3 Co0 1.970 . S
O3 C2 1.258 . S
O4 Co1 1.966 . S
O4 C2 1.263 . S
C5 O6 1.235 . S
C5 O32 1.289 . S
O6 C5 1.235 . S
C7 C9 1.400 1_545 S
C7 N10 1.351 . S
C7 C12 1.501 . S
C8 C9 1.387 . S
C8 N11 1.341 . S
C9 C7 1.400 1_565 S
C9 C8 1.387 . S
N10 Co1 2.022 . S
N10 C7 1.351 . S
N10 N11 1.365 1_545 S
N11 C8 1.341 . S
N11 N10 1.365 1_565 S
N11 H31 0.862 . S
C12 C7 1.501 . S
C12 H13 0.961 . S
C12 H14 0.961 . S
C12 H15 1.014 . S
H13 C12 0.961 . S
H14 C12 0.961 . S
H15 C12 1.014 . S
C16 N17 1.342 . S
C16 C20 1.401 . S
C16 C21 1.499 . S
N17 Co0 1.989 . S
N17 C16 1.342 . S
N17 N18 1.388 . S
N18 Co1 1.993 . S
N18 N17 1.388 . S
N18 C19 1.346 . S
C19 N18 1.346 . S
C19 C20 1.396 . S
C19 C29 1.510 . S
C20 C16 1.401 . S
C20 C19 1.396 . S
C21 C16 1.499 . S
C21 H22 0.959 . S
C21 H23 0.960 . S
C21 H24 0.961 1_455 S
H22 C21 0.959 . S
H23 C21 0.960 . S
H24 C21 0.961 1_655 S
O25 Co0 1.967 . S
O25 C33 1.258 . S
O26 Co1 1.941 . S
O26 C33 1.266 . S
H27 C29 0.959 . S
H28 C29 0.961 . S
C29 C19 1.510 . S
C29 H27 0.959 . S
C29 H28 0.961 . S
C29 H30 0.960 . S
H30 C29 0.960 . S
H31 N11 0.862 . S
O32 Co0 1.920 . S
O32 C5 1.289 . S
C33 O25 1.258 . S
C33 O26 1.266 . S
Co34 O37 1.970 . S
Co34 N51 1.989 . S
Co34 O59 1.967 . S
Co34 O66 1.920 . S
Co35 O38 1.966 . S
Co35 N44 2.022 . S
Co35 N52 1.993 . S
Co35 O60 1.941 . S
C36 O37 1.258 . S
C36 O38 1.263 . S
O37 Co34 1.970 . S
O37 C36 1.258 . S
O38 Co35 1.966 . S
O38 C36 1.263 . S
C39 O40 1.235 . S
C39 O66 1.289 . S
O40 C39 1.235 . S
C41 C43 1.400 . S
C41 N44 1.351 . S
C41 C46 1.501 . S
C42 C43 1.387 . S
C42 N45 1.341 . S
C43 C41 1.400 . S
C43 C42 1.387 . S
N44 Co35 2.022 . S
N44 C41 1.351 . S
N44 N45 1.365 . S
N45 C42 1.341 . S
N45 N44 1.365 . S
N45 H65 0.862 . S
C46 C41 1.501 . S
C46 H47 0.961 . S
C46 H48 0.961 . S
C46 H49 0.960 . S
H47 C46 0.961 . S
H48 C46 0.961 . S
H49 C46 0.960 . S
C50 N51 1.342 . S
C50 C54 1.401 . S
C50 C55 1.499 . S
N51 Co34 1.989 . S
N51 C50 1.342 . S
N51 N52 1.388 . S
N52 Co35 1.993 . S
N52 N51 1.388 . S
N52 C53 1.346 . S
C53 N52 1.346 . S
C53 C54 1.396 . S
C53 C63 1.510 . S
C54 C50 1.401 . S
C54 C53 1.396 . S
C55 C50 1.499 . S
C55 H56 0.959 . S
C55 H57 0.960 . S
C55 H58 0.961 . S
H56 C55 0.959 . S
H57 C55 0.960 . S
H58 C55 0.961 . S
O59 Co34 1.967 . S
O59 C67 1.258 . S
O60 Co35 1.941 . S
O60 C67 1.266 . S
H61 C63 0.959 . S
H62 C63 0.961 . S
C63 C53 1.510 . S
C63 H61 0.959 . S
C63 H62 0.961 . S
C63 H64 0.960 . S
H64 C63 0.960 . S
H65 N45 0.862 . S
O66 Co34 1.920 . S
O66 C39 1.289 . S
C67 O59 1.258 . S
C67 O60 1.266 . S
Co68 O71 1.970 . S
Co68 N85 1.989 . S
Co68 O93 1.967 . S
Co68 O100 1.920 . S
Co69 O72 1.966 . S
Co69 N78 2.022 . S
Co69 N86 1.993 . S
Co69 O94 1.941 . S
C70 O71 1.258 . S
C70 O72 1.263 . S
O71 Co68 1.970 . S
O71 C70 1.258 . S
O72 Co69 1.966 . S
O72 C70 1.263 . S
C73 O74 1.235 . S
C73 O100 1.289 . S
O74 C73 1.235 . S
C75 C77 1.400 1_565 S
C75 N78 1.351 . S
C75 C80 1.501 . S
C76 C77 1.387 . S
C76 N79 1.341 . S
C77 C75 1.400 1_545 S
C77 C76 1.387 . S
N78 Co69 2.022 . S
N78 C75 1.351 . S
N78 N79 1.365 1_565 S
N79 C76 1.341 . S
N79 N78 1.365 1_545 S
N79 H99 0.862 . S
C80 C75 1.501 . S
C80 H81 0.961 . S
C80 H82 0.961 . S
C80 H83 0.960 . S
H81 C80 0.961 . S
H82 C80 0.961 . S
H83 C80 0.960 . S
C84 N85 1.342 . S
C84 C88 1.401 . S
C84 C89 1.499 . S
N85 Co68 1.989 . S
N85 C84 1.342 . S
N85 N86 1.388 . S
N86 Co69 1.993 . S
N86 N85 1.388 . S
N86 C87 1.346 . S
C87 N86 1.346 . S
C87 C88 1.396 . S
C87 C97 1.510 . S
C88 C84 1.401 . S
C88 C87 1.396 . S
C89 C84 1.499 . S
C89 H90 0.959 . S
C89 H91 0.960 . S
C89 H92 0.961 . S
H90 C89 0.959 . S
H91 C89 0.960 . S
H92 C89 0.961 . S
O93 Co68 1.967 . S
O93 C101 1.258 . S
O94 Co69 1.941 . S
O94 C101 1.266 . S
H95 C97 0.959 . S
H96 C97 0.961 . S
C97 C87 1.510 . S
C97 H95 0.959 . S
C97 H96 0.961 . S
C97 H98 0.960 . S
H98 C97 0.960 . S
H99 N79 0.862 . S
O100 Co68 1.920 . S
O100 C73 1.289 . S
C101 O93 1.258 . S
C101 O94 1.266 . S
Co102 O105 1.970 . S
Co102 N119 1.989 . S
Co102 O127 1.967 . S
Co102 O134 1.920 . S
Co103 O106 1.966 . S
Co103 N112 2.022 . S
Co103 N120 1.993 . S
Co103 O128 1.941 . S
C104 O105 1.258 . S
C104 O106 1.263 . S
O105 Co102 1.970 . S
O105 C104 1.258 . S
O106 Co103 1.966 . S
O106 C104 1.263 . S
C107 O108 1.235 . S
C107 O134 1.289 . S
O108 C107 1.235 . S
C109 C111 1.400 . S
C109 N112 1.351 . S
C109 C114 1.501 . S
C110 C111 1.387 . S
C110 N113 1.341 . S
C111 C109 1.400 . S
C111 C110 1.387 . S
N112 Co103 2.022 . S
N112 C109 1.351 . S
N112 N113 1.365 . S
N113 C110 1.341 . S
N113 N112 1.365 . S
N113 H133 0.862 . S
C114 C109 1.501 . S
C114 H115 0.961 . S
C114 H116 0.961 . S
C114 H117 0.960 . S
H115 C114 0.961 . S
H116 C114 0.961 . S
H117 C114 0.960 . S
C118 N119 1.342 . S
C118 C122 1.401 . S
C118 C123 1.499 . S
N119 Co102 1.989 . S
N119 C118 1.342 . S
N119 N120 1.388 . S
N120 Co103 1.993 . S
N120 N119 1.388 . S
N120 C121 1.346 . S
C121 N120 1.346 . S
C121 C122 1.396 . S
C121 C131 1.510 . S
C122 C118 1.401 . S
C122 C121 1.396 . S
C123 C118 1.499 . S
C123 H124 0.959 . S
C123 H125 0.960 . S
C123 H126 0.961 . S
H124 C123 0.959 . S
H125 C123 0.960 . S
H126 C123 0.961 . S
O127 Co102 1.967 . S
O127 C135 1.258 . S
O128 Co103 1.941 . S
O128 C135 1.266 . S
H129 C131 0.959 . S
H130 C131 0.961 . S
C131 C121 1.510 . S
C131 H129 0.959 . S
C131 H130 0.961 . S
C131 H132 0.960 . S
H132 C131 0.960 . S
H133 N113 0.862 . S
O134 Co102 1.920 . S
O134 C107 1.289 . S
C135 O127 1.258 . S
C135 O128 1.266 . S
Co136 O139 1.970 . S
Co136 N153 1.989 . S
Co136 O161 1.967 . S
Co136 O168 1.920 . S
Co137 O140 1.966 . S
Co137 N146 2.022 . S
Co137 N154 1.993 . S
Co137 O162 1.941 . S
C138 O139 1.258 . S
C138 O140 1.263 . S
O139 Co136 1.970 . S
O139 C138 1.258 . S
O140 Co137 1.966 . S
O140 C138 1.263 . S
C141 O142 1.235 . S
C141 O168 1.289 . S
O142 C141 1.235 . S
C143 C145 1.400 1_565 S
C143 N146 1.351 . S
C143 C148 1.501 . S
C144 C145 1.387 . S
C144 N147 1.341 . S
C145 C143 1.400 1_545 S
C145 C144 1.387 . S
N146 Co137 2.022 . S
N146 C143 1.351 . S
N146 N147 1.365 1_565 S
N147 C144 1.341 . S
N147 N146 1.365 1_545 S
N147 H167 0.862 . S
C148 C143 1.501 . S
C148 H149 0.961 . S
C148 H150 0.961 . S
C148 H151 0.960 . S
H149 C148 0.961 . S
H150 C148 0.961 . S
H151 C148 0.960 . S
C152 N153 1.342 . S
C152 C156 1.401 . S
C152 C157 1.499 . S
N153 Co136 1.989 . S
N153 C152 1.342 . S
N153 N154 1.388 . S
N154 Co137 1.993 . S
N154 N153 1.388 . S
N154 C155 1.346 . S
C155 N154 1.346 . S
C155 C156 1.396 . S
C155 C165 1.510 . S
C156 C152 1.401 . S
C156 C155 1.396 . S
C157 C152 1.499 . S
C157 H158 0.959 . S
C157 H159 0.960 . S
C157 H160 0.961 1_455 S
H158 C157 0.959 . S
H159 C157 0.960 . S
H160 C157 0.961 1_655 S
O161 Co136 1.967 . S
O161 C169 1.258 . S
O162 Co137 1.941 . S
O162 C169 1.266 . S
H163 C165 0.959 . S
H164 C165 0.961 . S
C165 C155 1.510 . S
C165 H163 0.959 . S
C165 H164 0.961 . S
C165 H166 0.960 . S
H166 C165 0.960 . S
H167 N147 0.862 . S
O168 Co136 1.920 . S
O168 C141 1.289 . S
C169 O161 1.258 . S
C169 O162 1.266 . S
Co170 O173 1.970 . S
Co170 N187 1.989 . S
Co170 O195 1.967 . S
Co170 O202 1.920 . S
Co171 O174 1.966 . S
Co171 N180 2.022 . S
Co171 N188 1.993 . S
Co171 O196 1.941 . S
C172 O173 1.258 . S
C172 O174 1.263 . S
O173 Co170 1.970 . S
O173 C172 1.258 . S
O174 Co171 1.966 . S
O174 C172 1.263 . S
C175 O176 1.235 . S
C175 O202 1.289 . S
O176 C175 1.235 . S
C177 C179 1.400 . S
C177 N180 1.351 . S
C177 C182 1.501 . S
C178 C179 1.387 . S
C178 N181 1.341 . S
C179 C177 1.400 . S
C179 C178 1.387 . S
N180 Co171 2.022 . S
N180 C177 1.351 . S
N180 N181 1.365 . S
N181 C178 1.341 . S
N181 N180 1.365 . S
N181 H201 0.862 . S
C182 C177 1.501 . S
C182 H183 0.961 . S
C182 H184 0.961 . S
C182 H185 0.960 . S
H183 C182 0.961 . S
H184 C182 0.961 . S
H185 C182 0.960 . S
C186 N187 1.342 . S
C186 C190 1.401 . S
C186 C191 1.499 . S
N187 Co170 1.989 . S
N187 C186 1.342 . S
N187 N188 1.388 . S
N188 Co171 1.993 . S
N188 N187 1.388 . S
N188 C189 1.346 . S
C189 N188 1.346 . S
C189 C190 1.396 . S
C189 C199 1.510 . S
C190 C186 1.401 . S
C190 C189 1.396 . S
C191 C186 1.499 . S
C191 H192 0.959 . S
C191 H193 0.960 . S
C191 H194 0.961 . S
H192 C191 0.959 . S
H193 C191 0.960 . S
H194 C191 0.961 . S
O195 Co170 1.967 . S
O195 C203 1.258 . S
O196 Co171 1.941 . S
O196 C203 1.266 . S
H197 C199 0.959 . S
H198 C199 0.961 . S
C199 C189 1.510 . S
C199 H197 0.959 . S
C199 H198 0.961 . S
C199 H200 0.960 . S
H200 C199 0.960 . S
H201 N181 0.862 . S
O202 Co170 1.920 . S
O202 C175 1.289 . S
C203 O195 1.258 . S
C203 O196 1.266 . S
Co204 O207 1.970 . S
Co204 N221 1.989 . S
Co204 O229 1.967 . S
Co204 O236 1.920 . S
Co205 O208 1.966 . S
Co205 N214 2.022 . S
Co205 N222 1.993 . S
Co205 O230 1.941 . S
C206 O207 1.258 . S
C206 O208 1.263 . S
O207 Co204 1.970 . S
O207 C206 1.258 . S
O208 Co205 1.966 . S
O208 C206 1.263 . S
C209 O210 1.235 . S
C209 O236 1.289 . S
O210 C209 1.235 . S
C211 C213 1.400 1_545 S
C211 N214 1.351 . S
C211 C216 1.501 . S
C212 C213 1.387 . S
C212 N215 1.341 . S
C213 C211 1.400 1_565 S
C213 C212 1.387 . S
N214 Co205 2.022 . S
N214 C211 1.351 . S
N214 N215 1.365 1_545 S
N215 C212 1.341 . S
N215 N214 1.365 1_565 S
N215 H235 0.862 . S
C216 C211 1.501 . S
C216 H217 0.961 . S
C216 H218 0.961 . S
C216 H219 1.013 . S
H217 C216 0.961 . S
H218 C216 0.961 . S
H219 C216 1.013 . S
C220 N221 1.342 . S
C220 C224 1.401 . S
C220 C225 1.499 . S
N221 Co204 1.989 . S
N221 C220 1.342 . S
N221 N222 1.388 . S
N222 Co205 1.993 . S
N222 N221 1.388 . S
N222 C223 1.346 . S
C223 N222 1.346 . S
C223 C224 1.396 . S
C223 C233 1.510 . S
C224 C220 1.401 . S
C224 C223 1.396 . S
C225 C220 1.499 . S
C225 H226 0.959 . S
C225 H227 0.960 . S
C225 H228 0.961 . S
H226 C225 0.959 . S
H227 C225 0.960 . S
H228 C225 0.961 . S
O229 Co204 1.967 . S
O229 C237 1.258 . S
O230 Co205 1.941 . S
O230 C237 1.266 . S
H231 C233 0.959 . S
H232 C233 0.961 . S
C233 C223 1.510 . S
C233 H231 0.959 . S
C233 H232 0.961 . S
C233 H234 0.960 . S
H234 C233 0.960 . S
H235 N215 0.862 . S
O236 Co204 1.920 . S
O236 C209 1.289 . S
C237 O229 1.258 . S
C237 O230 1.266 . S
Co238 O241 1.970 . S
Co238 N255 1.989 . S
Co238 O263 1.967 . S
Co238 O270 1.920 . S
Co239 O242 1.966 . S
Co239 N248 2.022 . S
Co239 N256 1.993 . S
Co239 O264 1.941 . S
C240 O241 1.258 . S
C240 O242 1.263 . S
O241 Co238 1.970 . S
O241 C240 1.258 . S
O242 Co239 1.966 . S
O242 C240 1.263 . S
C243 O244 1.235 . S
C243 O270 1.289 . S
O244 C243 1.235 . S
C245 C247 1.400 . S
C245 N248 1.351 . S
C245 C250 1.501 . S
C246 C247 1.387 . S
C246 N249 1.341 . S
C247 C245 1.400 . S
C247 C246 1.387 . S
N248 Co239 2.022 . S
N248 C245 1.351 . S
N248 N249 1.365 . S
N249 C246 1.341 . S
N249 N248 1.365 . S
N249 H269 0.862 . S
C250 C245 1.501 . S
C250 H251 0.961 . S
C250 H252 0.961 . S
C250 H253 0.960 . S
H251 C250 0.961 . S
H252 C250 0.961 . S
H253 C250 0.960 . S
C254 N255 1.342 . S
C254 C258 1.401 . S
C254 C259 1.499 . S
N255 Co238 1.989 . S
N255 C254 1.342 . S
N255 N256 1.388 . S
N256 Co239 1.993 . S
N256 N255 1.388 . S
N256 C257 1.346 . S
C257 N256 1.346 . S
C257 C258 1.396 . S
C257 C267 1.510 . S
C258 C254 1.401 . S
C258 C257 1.396 . S
C259 C254 1.499 . S
C259 H260 0.959 . S
C259 H261 0.960 . S
C259 H262 0.961 . S
H260 C259 0.959 . S
H261 C259 0.960 . S
H262 C259 0.961 . S
O263 Co238 1.967 . S
O263 C271 1.258 . S
O264 Co239 1.941 . S
O264 C271 1.266 . S
H265 C267 0.959 . S
H266 C267 0.961 . S
C267 C257 1.510 . S
C267 H265 0.959 . S
C267 H266 0.961 . S
C267 H268 0.960 . S
H268 C267 0.960 . S
H269 N249 0.862 . S
O270 Co238 1.920 . S
O270 C243 1.289 . S
C271 O263 1.258 . S
C271 O264 1.266 . S
Co272 O275 1.970 . S
Co272 N289 1.989 . S
Co272 O297 1.967 . S
Co272 O304 1.920 . S
Co273 O276 1.966 . S
Co273 N282 2.022 . S
Co273 N290 1.993 . S
Co273 O298 1.941 . S
C274 O275 1.258 . S
C274 O276 1.263 . S
O275 Co272 1.970 . S
O275 C274 1.258 . S
O276 Co273 1.966 . S
O276 C274 1.263 . S
C277 O278 1.235 . S
C277 O304 1.289 . S
O278 C277 1.235 . S
C279 C281 1.400 1_554 S
C279 N282 1.351 . S
C279 C284 1.501 . S
C280 C281 1.387 . S
C280 N283 1.341 . S
C281 C279 1.400 1_556 S
C281 C280 1.387 . S
N282 Co273 2.022 . S
N282 C279 1.351 . S
N282 N283 1.365 1_554 S
N283 C280 1.341 . S
N283 N282 1.365 1_556 S
N283 H303 0.862 . S
C284 C279 1.501 . S
C284 H285 0.961 . S
C284 H286 0.961 . S
C284 H287 1.014 . S
H285 C284 0.961 . S
H286 C284 0.961 . S
H287 C284 1.014 . S
C288 N289 1.342 . S
C288 C292 1.401 . S
C288 C293 1.499 . S
N289 Co272 1.989 . S
N289 C288 1.342 . S
N289 N290 1.388 . S
N290 Co273 1.993 . S
N290 N289 1.388 . S
N290 C291 1.346 . S
C291 N290 1.346 . S
C291 C292 1.396 . S
C291 C301 1.510 . S
C292 C288 1.401 . S
C292 C291 1.396 . S
C293 C288 1.499 . S
C293 H294 0.959 . S
C293 H295 0.960 . S
C293 H296 0.961 1_545 S
H294 C293 0.959 . S
H295 C293 0.960 . S
H296 C293 0.961 1_565 S
O297 Co272 1.967 . S
O297 C305 1.258 . S
O298 Co273 1.941 . S
O298 C305 1.266 . S
H299 C301 0.959 . S
H300 C301 0.961 . S
C301 C291 1.510 . S
C301 H299 0.959 . S
C301 H300 0.961 . S
C301 H302 0.960 . S
H302 C301 0.960 . S
H303 N283 0.862 . S
O304 Co272 1.920 . S
O304 C277 1.289 . S
C305 O297 1.258 . S
C305 O298 1.266 . S
Co306 O309 1.970 . S
Co306 N323 1.989 . S
Co306 O331 1.967 . S
Co306 O338 1.920 . S
Co307 O310 1.966 . S
Co307 N316 2.022 . S
Co307 N324 1.993 . S
Co307 O332 1.941 . S
C308 O309 1.258 . S
C308 O310 1.263 . S
O309 Co306 1.970 . S
O309 C308 1.258 . S
O310 Co307 1.966 . S
O310 C308 1.263 . S
C311 O312 1.235 . S
C311 O338 1.289 . S
O312 C311 1.235 . S
C313 C315 1.400 . S
C313 N316 1.351 . S
C313 C318 1.501 . S
C314 C315 1.387 . S
C314 N317 1.341 . S
C315 C313 1.400 . S
C315 C314 1.387 . S
N316 Co307 2.022 . S
N316 C313 1.351 . S
N316 N317 1.365 . S
N317 C314 1.341 . S
N317 N316 1.365 . S
N317 H337 0.862 . S
C318 C313 1.501 . S
C318 H319 0.961 . S
C318 H320 0.961 . S
C318 H321 0.960 . S
H319 C318 0.961 . S
H320 C318 0.961 . S
H321 C318 0.960 . S
C322 N323 1.342 . S
C322 C326 1.401 . S
C322 C327 1.499 . S
N323 Co306 1.989 . S
N323 C322 1.342 . S
N323 N324 1.388 . S
N324 Co307 1.993 . S
N324 N323 1.388 . S
N324 C325 1.346 . S
C325 N324 1.346 . S
C325 C326 1.396 . S
C325 C335 1.510 . S
C326 C322 1.401 . S
C326 C325 1.396 . S
C327 C322 1.499 . S
C327 H328 0.959 . S
C327 H329 0.960 . S
C327 H330 0.961 . S
H328 C327 0.959 . S
H329 C327 0.960 . S
H330 C327 0.961 . S
O331 Co306 1.967 . S
O331 C339 1.258 . S
O332 Co307 1.941 . S
O332 C339 1.266 . S
H333 C335 0.959 . S
H334 C335 0.961 . S
C335 C325 1.510 . S
C335 H333 0.959 . S
C335 H334 0.961 . S
C335 H336 0.960 . S
H336 C335 0.960 . S
H337 N317 0.862 . S
O338 Co306 1.920 . S
O338 C311 1.289 . S
C339 O331 1.258 . S
C339 O332 1.266 . S
Co340 O343 1.970 . S
Co340 N357 1.989 . S
Co340 O365 1.967 . S
Co340 O372 1.920 . S
Co341 O344 1.966 . S
Co341 N350 2.022 . S
Co341 N358 1.993 . S
Co341 O366 1.941 . S
C342 O343 1.258 . S
C342 O344 1.263 . S
O343 Co340 1.970 . S
O343 C342 1.258 . S
O344 Co341 1.966 . S
O344 C342 1.263 . S
C345 O346 1.235 . S
C345 O372 1.289 . S
O346 C345 1.235 . S
C347 C349 1.400 . S
C347 N350 1.351 . S
C347 C352 1.501 . S
C348 C349 1.387 . S
C348 N351 1.341 . S
C349 C347 1.400 . S
C349 C348 1.387 . S
N350 Co341 2.022 . S
N350 C347 1.351 . S
N350 N351 1.365 . S
N351 C348 1.341 . S
N351 N350 1.365 . S
N351 H371 0.862 . S
C352 C347 1.501 . S
C352 H353 0.961 . S
C352 H354 0.961 . S
C352 H355 0.960 . S
H353 C352 0.961 . S
H354 C352 0.961 . S
H355 C352 0.960 . S
C356 N357 1.342 . S
C356 C360 1.401 . S
C356 C361 1.499 . S
N357 Co340 1.989 . S
N357 C356 1.342 . S
N357 N358 1.388 . S
N358 Co341 1.993 . S
N358 N357 1.388 . S
N358 C359 1.346 . S
C359 N358 1.346 . S
C359 C360 1.396 . S
C359 C369 1.510 . S
C360 C356 1.401 . S
C360 C359 1.396 . S
C361 C356 1.499 . S
C361 H362 0.959 . S
C361 H363 0.960 . S
C361 H364 0.961 . S
H362 C361 0.959 . S
H363 C361 0.960 . S
H364 C361 0.961 . S
O365 Co340 1.967 . S
O365 C373 1.258 . S
O366 Co341 1.941 . S
O366 C373 1.266 . S
H367 C369 0.959 . S
H368 C369 0.961 . S
C369 C359 1.510 . S
C369 H367 0.959 . S
C369 H368 0.961 . S
C369 H370 0.960 . S
H370 C369 0.960 . S
H371 N351 0.862 . S
O372 Co340 1.920 . S
O372 C345 1.289 . S
C373 O365 1.258 . S
C373 O366 1.266 . S
Co374 O377 1.970 . S
Co374 N391 1.989 . S
Co374 O399 1.967 . S
Co374 O406 1.920 . S
Co375 O378 1.966 . S
Co375 N384 2.022 . S
Co375 N392 1.993 . S
Co375 O400 1.941 . S
C376 O377 1.258 . S
C376 O378 1.263 . S
O377 Co374 1.970 . S
O377 C376 1.258 . S
O378 Co375 1.966 . S
O378 C376 1.263 . S
C379 O380 1.235 . S
C379 O406 1.289 . S
O380 C379 1.235 . S
C381 C383 1.400 . S
C381 N384 1.351 . S
C381 C386 1.501 . S
C382 C383 1.387 . S
C382 N385 1.341 . S
C383 C381 1.400 . S
C383 C382 1.387 . S
N384 Co375 2.022 . S
N384 C381 1.351 . S
N384 N385 1.365 . S
N385 C382 1.341 . S
N385 N384 1.365 . S
N385 H405 0.862 . S
C386 C381 1.501 . S
C386 H387 0.961 . S
C386 H388 0.961 . S
C386 H389 0.960 . S
H387 C386 0.961 . S
H388 C386 0.961 . S
H389 C386 0.960 . S
C390 N391 1.342 . S
C390 C394 1.401 . S
C390 C395 1.499 . S
N391 Co374 1.989 . S
N391 C390 1.342 . S
N391 N392 1.388 . S
N392 Co375 1.993 . S
N392 N391 1.388 . S
N392 C393 1.346 . S
C393 N392 1.346 . S
C393 C394 1.396 . S
C393 C403 1.510 . S
C394 C390 1.401 . S
C394 C393 1.396 . S
C395 C390 1.499 . S
C395 H396 0.959 . S
C395 H397 0.960 . S
C395 H398 0.961 . S
H396 C395 0.959 . S
H397 C395 0.960 . S
H398 C395 0.961 . S
O399 Co374 1.967 . S
O399 C407 1.258 . S
O400 Co375 1.941 . S
O400 C407 1.266 . S
H401 C403 0.959 . S
H402 C403 0.961 . S
C403 C393 1.510 . S
C403 H401 0.959 . S
C403 H402 0.961 . S
C403 H404 0.960 . S
H404 C403 0.960 . S
H405 N385 0.862 . S
O406 Co374 1.920 . S
O406 C379 1.289 . S
C407 O399 1.258 . S
C407 O400 1.266 . S
Co408 O411 1.970 . S
Co408 N425 1.989 . S
Co408 O433 1.967 . S
Co408 O440 1.920 . S
Co409 O412 1.966 . S
Co409 N418 2.022 . S
Co409 N426 1.993 . S
Co409 O434 1.941 . S
C410 O411 1.258 . S
C410 O412 1.263 . S
O411 Co408 1.970 . S
O411 C410 1.258 . S
O412 Co409 1.966 . S
O412 C410 1.263 . S
C413 O414 1.235 . S
C413 O440 1.289 . S
O414 C413 1.235 . S
C415 C417 1.400 . S
C415 N418 1.351 . S
C415 C420 1.501 . S
C416 C417 1.387 . S
C416 N419 1.341 . S
C417 C415 1.400 . S
C417 C416 1.387 . S
N418 Co409 2.022 . S
N418 C415 1.351 . S
N418 N419 1.365 . S
N419 C416 1.341 . S
N419 N418 1.365 . S
N419 H439 0.862 . S
C420 C415 1.501 . S
C420 H421 0.961 . S
C420 H422 0.961 . S
C420 H423 0.960 . S
H421 C420 0.961 . S
H422 C420 0.961 . S
H423 C420 0.960 . S
C424 N425 1.342 . S
C424 C428 1.401 . S
C424 C429 1.499 . S
N425 Co408 1.989 . S
N425 C424 1.342 . S
N425 N426 1.388 . S
N426 Co409 1.993 . S
N426 N425 1.388 . S
N426 C427 1.346 . S
C427 N426 1.346 . S
C427 C428 1.396 . S
C427 C437 1.510 . S
C428 C424 1.401 . S
C428 C427 1.396 . S
C429 C424 1.499 . S
C429 H430 0.959 . S
C429 H431 0.960 . S
C429 H432 1.042 . S
H430 C429 0.959 . S
H431 C429 0.960 . S
H432 C429 1.042 . S
O433 Co408 1.967 . S
O433 C441 1.258 . S
O434 Co409 1.941 . S
O434 C441 1.266 . S
H435 C437 0.959 . S
H436 C437 0.961 . S
C437 C427 1.510 . S
C437 H435 0.959 . S
C437 H436 0.961 . S
C437 H438 0.960 . S
H438 C437 0.960 . S
H439 N419 0.862 . S
O440 Co408 1.920 . S
O440 C413 1.289 . S
C441 O433 1.258 . S
C441 O434 1.266 . S
Co442 O445 1.970 . S
Co442 N459 1.989 . S
Co442 O467 1.967 . S
Co442 O474 1.920 . S
Co443 O446 1.966 . S
Co443 N452 2.022 . S
Co443 N460 1.993 . S
Co443 O468 1.941 . S
C444 O445 1.258 . S
C444 O446 1.263 . S
O445 Co442 1.970 . S
O445 C444 1.258 . S
O446 Co443 1.966 . S
O446 C444 1.263 . S
C447 O448 1.235 . S
C447 O474 1.289 . S
O448 C447 1.235 . S
C449 C451 1.400 . S
C449 N452 1.351 . S
C449 C454 1.501 . S
C450 C451 1.387 . S
C450 N453 1.341 . S
C451 C449 1.400 . S
C451 C450 1.387 . S
N452 Co443 2.022 . S
N452 C449 1.351 . S
N452 N453 1.365 . S
N453 C450 1.341 . S
N453 N452 1.365 . S
N453 H473 0.862 . S
C454 C449 1.501 . S
C454 H455 0.961 . S
C454 H456 0.961 . S
C454 H457 0.960 . S
H455 C454 0.961 . S
H456 C454 0.961 . S
H457 C454 0.960 . S
C458 N459 1.342 . S
C458 C462 1.401 . S
C458 C463 1.499 . S
N459 Co442 1.989 . S
N459 C458 1.342 . S
N459 N460 1.388 . S
N460 Co443 1.993 . S
N460 N459 1.388 . S
N460 C461 1.346 . S
C461 N460 1.346 . S
C461 C462 1.396 . S
C461 C471 1.510 . S
C462 C458 1.401 . S
C462 C461 1.396 . S
C463 C458 1.499 . S
C463 H464 0.959 . S
C463 H465 0.960 . S
C463 H466 0.961 . S
H464 C463 0.959 . S
H465 C463 0.960 . S
H466 C463 0.961 . S
O467 Co442 1.967 . S
O467 C475 1.258 . S
O468 Co443 1.941 . S
O468 C475 1.266 . S
H469 C471 0.959 . S
H470 C471 0.961 . S
C471 C461 1.510 . S
C471 H469 0.959 . S
C471 H470 0.961 . S
C471 H472 0.960 . S
H472 C471 0.960 . S
H473 N453 0.862 . S
O474 Co442 1.920 . S
O474 C447 1.289 . S
C475 O467 1.258 . S
C475 O468 1.266 . S
Co476 O479 1.970 . S
Co476 N493 1.989 . S
Co476 O501 1.967 . S
Co476 O508 1.920 . S
Co477 O480 1.966 . S
Co477 N486 2.022 . S
Co477 N494 1.993 . S
Co477 O502 1.941 . S
C478 O479 1.258 . S
C478 O480 1.263 . S
O479 Co476 1.970 . S
O479 C478 1.258 . S
O480 Co477 1.966 . S
O480 C478 1.263 . S
C481 O482 1.235 . S
C481 O508 1.289 . S
O482 C481 1.235 . S
C483 C485 1.400 1_556 S
C483 N486 1.351 . S
C483 C488 1.501 . S
C484 C485 1.387 . S
C484 N487 1.341 . S
C485 C483 1.400 1_554 S
C485 C484 1.387 . S
N486 Co477 2.022 . S
N486 C483 1.351 . S
N486 N487 1.365 1_556 S
N487 C484 1.341 . S
N487 N486 1.365 1_554 S
N487 H507 0.862 . S
C488 C483 1.501 . S
C488 H489 0.961 . S
C488 H490 0.961 . S
C488 H491 0.960 . S
H489 C488 0.961 . S
H490 C488 0.961 . S
H491 C488 0.960 . S
C492 N493 1.342 . S
C492 C496 1.401 . S
C492 C497 1.499 . S
N493 Co476 1.989 . S
N493 C492 1.342 . S
N493 N494 1.388 . S
N494 Co477 1.993 . S
N494 N493 1.388 . S
N494 C495 1.346 . S
C495 N494 1.346 . S
C495 C496 1.396 . S
C495 C505 1.510 . S
C496 C492 1.401 . S
C496 C495 1.396 . S
C497 C492 1.499 . S
C497 H498 0.959 . S
C497 H499 0.960 . S
C497 H500 0.961 1_545 S
H498 C497 0.959 . S
H499 C497 0.960 . S
H500 C497 0.961 1_565 S
O501 Co476 1.967 . S
O501 C509 1.258 . S
O502 Co477 1.941 . S
O502 C509 1.266 . S
H503 C505 0.959 . S
H504 C505 0.961 . S
C505 C495 1.510 . S
C505 H503 0.959 . S
C505 H504 0.961 . S
C505 H506 0.960 . S
H506 C505 0.960 . S
H507 N487 0.862 . S
O508 Co476 1.920 . S
O508 C481 1.289 . S
C509 O501 1.258 . S
C509 O502 1.266 . S
Co510 O513 1.970 . S
Co510 N527 1.989 . S
Co510 O535 1.967 . S
Co510 O542 1.920 . S
Co511 O514 1.966 . S
Co511 N520 2.022 . S
Co511 N528 1.993 . S
Co511 O536 1.941 . S
C512 O513 1.258 . S
C512 O514 1.263 . S
O513 Co510 1.970 . S
O513 C512 1.258 . S
O514 Co511 1.966 . S
O514 C512 1.263 . S
C515 O516 1.235 . S
C515 O542 1.289 . S
O516 C515 1.235 . S
C517 C519 1.400 . S
C517 N520 1.351 . S
C517 C522 1.501 . S
C518 C519 1.387 . S
C518 N521 1.341 . S
C519 C517 1.400 . S
C519 C518 1.387 . S
N520 Co511 2.022 . S
N520 C517 1.351 . S
N520 N521 1.365 . S
N521 C518 1.341 . S
N521 N520 1.365 . S
N521 H541 0.862 . S
C522 C517 1.501 . S
C522 H523 0.961 . S
C522 H524 0.961 . S
C522 H525 0.960 . S
H523 C522 0.961 . S
H524 C522 0.961 . S
H525 C522 0.960 . S
C526 N527 1.342 . S
C526 C530 1.401 . S
C526 C531 1.499 . S
N527 Co510 1.989 . S
N527 C526 1.342 . S
N527 N528 1.388 . S
N528 Co511 1.993 . S
N528 N527 1.388 . S
N528 C529 1.346 . S
C529 N528 1.346 . S
C529 C530 1.396 . S
C529 C539 1.510 . S
C530 C526 1.401 . S
C530 C529 1.396 . S
C531 C526 1.499 . S
C531 H532 0.959 . S
C531 H533 0.960 . S
C531 H534 0.961 . S
H532 C531 0.959 . S
H533 C531 0.960 . S
H534 C531 0.961 . S
O535 Co510 1.967 . S
O535 C543 1.258 . S
O536 Co511 1.941 . S
O536 C543 1.266 . S
H537 C539 0.959 . S
H538 C539 0.961 . S
C539 C529 1.510 . S
C539 H537 0.959 . S
C539 H538 0.961 . S
C539 H540 0.960 . S
H540 C539 0.960 . S
H541 N521 0.862 . S
O542 Co510 1.920 . S
O542 C515 1.289 . S
C543 O535 1.258 . S
C543 O536 1.266 . S
Co544 O547 1.970 . S
Co544 N561 1.989 . S
Co544 O569 1.967 . S
Co544 O576 1.920 . S
Co545 O548 1.966 . S
Co545 N554 2.022 . S
Co545 N562 1.993 . S
Co545 O570 1.941 . S
C546 O547 1.258 . S
C546 O548 1.263 . S
O547 Co544 1.970 . S
O547 C546 1.258 . S
O548 Co545 1.966 . S
O548 C546 1.263 . S
C549 O550 1.235 . S
C549 O576 1.289 . S
O550 C549 1.235 . S
C551 C553 1.400 1_455 S
C551 N554 1.351 . S
C551 C556 1.501 . S
C552 C553 1.387 . S
C552 N555 1.341 . S
C553 C551 1.400 1_655 S
C553 C552 1.387 . S
N554 Co545 2.022 . S
N554 C551 1.351 . S
N554 N555 1.365 1_455 S
N555 C552 1.341 . S
N555 N554 1.365 1_655 S
N555 H575 0.862 . S
C556 C551 1.501 . S
C556 H557 0.961 . S
C556 H558 0.961 . S
C556 H559 1.014 . S
H557 C556 0.961 . S
H558 C556 0.961 . S
H559 C556 1.014 . S
C560 N561 1.342 . S
C560 C564 1.401 . S
C560 C565 1.499 . S
N561 Co544 1.989 . S
N561 C560 1.342 . S
N561 N562 1.388 . S
N562 Co545 1.993 . S
N562 N561 1.388 . S
N562 C563 1.346 . S
C563 N562 1.346 . S
C563 C564 1.396 . S
C563 C573 1.510 . S
C564 C560 1.401 . S
C564 C563 1.396 . S
C565 C560 1.499 . S
C565 H566 0.959 . S
C565 H567 0.960 . S
C565 H568 0.961 1_554 S
H566 C565 0.959 . S
H567 C565 0.960 . S
H568 C565 0.961 1_556 S
O569 Co544 1.967 . S
O569 C577 1.258 . S
O570 Co545 1.941 . S
O570 C577 1.266 . S
H571 C573 0.959 . S
H572 C573 0.961 . S
C573 C563 1.510 . S
C573 H571 0.959 . S
C573 H572 0.961 . S
C573 H574 0.960 . S
H574 C573 0.960 . S
H575 N555 0.862 . S
O576 Co544 1.920 . S
O576 C549 1.289 . S
C577 O569 1.258 . S
C577 O570 1.266 . S
Co578 O581 1.970 . S
Co578 N595 1.989 . S
Co578 O603 1.967 . S
Co578 O610 1.920 . S
Co579 O582 1.966 . S
Co579 N588 2.022 . S
Co579 N596 1.993 . S
Co579 O604 1.941 . S
C580 O581 1.258 . S
C580 O582 1.263 . S
O581 Co578 1.970 . S
O581 C580 1.258 . S
O582 Co579 1.966 . S
O582 C580 1.263 . S
C583 O584 1.235 . S
C583 O610 1.289 . S
O584 C583 1.235 . S
C585 C587 1.400 . S
C585 N588 1.351 . S
C585 C590 1.501 . S
C586 C587 1.387 . S
C586 N589 1.341 . S
C587 C585 1.400 . S
C587 C586 1.387 . S
N588 Co579 2.022 . S
N588 C585 1.351 . S
N588 N589 1.365 . S
N589 C586 1.341 . S
N589 N588 1.365 . S
N589 H609 0.862 . S
C590 C585 1.501 . S
C590 H591 0.961 . S
C590 H592 0.961 . S
C590 H593 0.960 . S
H591 C590 0.961 . S
H592 C590 0.961 . S
H593 C590 0.960 . S
C594 N595 1.342 . S
C594 C598 1.401 . S
C594 C599 1.499 . S
N595 Co578 1.989 . S
N595 C594 1.342 . S
N595 N596 1.388 . S
N596 Co579 1.993 . S
N596 N595 1.388 . S
N596 C597 1.346 . S
C597 N596 1.346 . S
C597 C598 1.396 . S
C597 C607 1.510 . S
C598 C594 1.401 . S
C598 C597 1.396 . S
C599 C594 1.499 . S
C599 H600 0.959 . S
C599 H601 0.960 . S
C599 H602 0.961 . S
H600 C599 0.959 . S
H601 C599 0.960 . S
H602 C599 0.961 . S
O603 Co578 1.967 . S
O603 C611 1.258 . S
O604 Co579 1.941 . S
O604 C611 1.266 . S
H605 C607 0.959 . S
H606 C607 0.961 . S
C607 C597 1.510 . S
C607 H605 0.959 . S
C607 H606 0.961 . S
C607 H608 0.960 . S
H608 C607 0.960 . S
H609 N589 0.862 . S
O610 Co578 1.920 . S
O610 C583 1.289 . S
C611 O603 1.258 . S
C611 O604 1.266 . S
Co612 O615 1.970 . S
Co612 N629 1.989 . S
Co612 O637 1.967 . S
Co612 O644 1.920 . S
Co613 O616 1.966 . S
Co613 N622 2.022 . S
Co613 N630 1.993 . S
Co613 O638 1.941 . S
C614 O615 1.258 . S
C614 O616 1.263 . S
O615 Co612 1.970 . S
O615 C614 1.258 . S
O616 Co613 1.966 . S
O616 C614 1.263 . S
C617 O618 1.235 . S
C617 O644 1.289 . S
O618 C617 1.235 . S
C619 C621 1.400 . S
C619 N622 1.351 . S
C619 C624 1.501 . S
C620 C621 1.387 . S
C620 N623 1.341 . S
C621 C619 1.400 . S
C621 C620 1.387 . S
N622 Co613 2.022 . S
N622 C619 1.351 . S
N622 N623 1.365 . S
N623 C620 1.341 . S
N623 N622 1.365 . S
N623 H643 0.862 . S
C624 C619 1.501 . S
C624 H625 0.961 . S
C624 H626 0.961 . S
C624 H627 0.960 . S
H625 C624 0.961 . S
H626 C624 0.961 . S
H627 C624 0.960 . S
C628 N629 1.342 . S
C628 C632 1.401 . S
C628 C633 1.499 . S
N629 Co612 1.989 . S
N629 C628 1.342 . S
N629 N630 1.388 . S
N630 Co613 1.993 . S
N630 N629 1.388 . S
N630 C631 1.346 . S
C631 N630 1.346 . S
C631 C632 1.396 . S
C631 C641 1.510 . S
C632 C628 1.401 . S
C632 C631 1.396 . S
C633 C628 1.499 . S
C633 H634 0.959 . S
C633 H635 0.960 . S
C633 H636 0.961 . S
H634 C633 0.959 . S
H635 C633 0.960 . S
H636 C633 0.961 . S
O637 Co612 1.967 . S
O637 C645 1.258 . S
O638 Co613 1.941 . S
O638 C645 1.266 . S
H639 C641 0.959 . S
H640 C641 0.961 . S
C641 C631 1.510 . S
C641 H639 0.959 . S
C641 H640 0.961 . S
C641 H642 0.960 . S
H642 C641 0.960 . S
H643 N623 0.862 . S
O644 Co612 1.920 . S
O644 C617 1.289 . S
C645 O637 1.258 . S
C645 O638 1.266 . S
Co646 O649 1.970 . S
Co646 N663 1.989 . S
Co646 O671 1.967 . S
Co646 O678 1.920 . S
Co647 O650 1.966 . S
Co647 N656 2.022 . S
Co647 N664 1.993 . S
Co647 O672 1.941 . S
C648 O649 1.258 . S
C648 O650 1.263 . S
O649 Co646 1.970 . S
O649 C648 1.258 . S
O650 Co647 1.966 . S
O650 C648 1.263 . S
C651 O652 1.235 . S
C651 O678 1.289 . S
O652 C651 1.235 . S
C653 C655 1.400 1_655 S
C653 N656 1.351 . S
C653 C658 1.501 . S
C654 C655 1.387 . S
C654 N657 1.341 . S
C655 C653 1.400 1_455 S
C655 C654 1.387 . S
N656 Co647 2.022 . S
N656 C653 1.351 . S
N656 N657 1.365 1_655 S
N657 C654 1.341 . S
N657 N656 1.365 1_455 S
N657 H677 0.862 . S
C658 C653 1.501 . S
C658 H659 0.961 . S
C658 H660 0.961 . S
C658 H661 0.960 . S
H659 C658 0.961 . S
H660 C658 0.961 . S
H661 C658 0.960 . S
C662 N663 1.342 . S
C662 C666 1.401 . S
C662 C667 1.499 . S
N663 Co646 1.989 . S
N663 C662 1.342 . S
N663 N664 1.388 . S
N664 Co647 1.993 . S
N664 N663 1.388 . S
N664 C665 1.346 . S
C665 N664 1.346 . S
C665 C666 1.396 . S
C665 C675 1.510 . S
C666 C662 1.401 . S
C666 C665 1.396 . S
C667 C662 1.499 . S
C667 H668 0.959 . S
C667 H669 0.960 . S
C667 H670 0.961 . S
H668 C667 0.959 . S
H669 C667 0.960 . S
H670 C667 0.961 . S
O671 Co646 1.967 . S
O671 C679 1.258 . S
O672 Co647 1.941 . S
O672 C679 1.266 . S
H673 C675 0.959 . S
H674 C675 0.961 . S
C675 C665 1.510 . S
C675 H673 0.959 . S
C675 H674 0.961 . S
C675 H676 0.960 . S
H676 C675 0.960 . S
H677 N657 0.862 . S
O678 Co646 1.920 . S
O678 C651 1.289 . S
C679 O671 1.258 . S
C679 O672 1.266 . S
Co680 O683 1.970 . S
Co680 N697 1.989 . S
Co680 O705 1.967 . S
Co680 O712 1.920 . S
Co681 O684 1.966 . S
Co681 N690 2.022 . S
Co681 N698 1.993 . S
Co681 O706 1.941 . S
C682 O683 1.258 . S
C682 O684 1.263 . S
O683 Co680 1.970 . S
O683 C682 1.258 . S
O684 Co681 1.966 . S
O684 C682 1.263 . S
C685 O686 1.235 . S
C685 O712 1.289 . S
O686 C685 1.235 . S
C687 C689 1.400 . S
C687 N690 1.351 . S
C687 C692 1.501 . S
C688 C689 1.387 . S
C688 N691 1.341 . S
C689 C687 1.400 . S
C689 C688 1.387 . S
N690 Co681 2.022 . S
N690 C687 1.351 . S
N690 N691 1.365 . S
N691 C688 1.341 . S
N691 N690 1.365 . S
N691 H711 0.862 . S
C692 C687 1.501 . S
C692 H693 0.961 . S
C692 H694 0.961 . S
C692 H695 0.960 . S
H693 C692 0.961 . S
H694 C692 0.961 . S
H695 C692 0.960 . S
C696 N697 1.342 . S
C696 C700 1.401 . S
C696 C701 1.499 . S
N697 Co680 1.989 . S
N697 C696 1.342 . S
N697 N698 1.388 . S
N698 Co681 1.993 . S
N698 N697 1.388 . S
N698 C699 1.346 . S
C699 N698 1.346 . S
C699 C700 1.396 . S
C699 C709 1.510 . S
C700 C696 1.401 . S
C700 C699 1.396 . S
C701 C696 1.499 . S
C701 H702 0.959 . S
C701 H703 0.960 . S
C701 H704 0.961 . S
H702 C701 0.959 . S
H703 C701 0.960 . S
H704 C701 0.961 . S
O705 Co680 1.967 . S
O705 C713 1.258 . S
O706 Co681 1.941 . S
O706 C713 1.266 . S
H707 C709 0.959 . S
H708 C709 0.961 . S
C709 C699 1.510 . S
C709 H707 0.959 . S
C709 H708 0.961 . S
C709 H710 0.960 . S
H710 C709 0.960 . S
H711 N691 0.862 . S
O712 Co680 1.920 . S
O712 C685 1.289 . S
C713 O705 1.258 . S
C713 O706 1.266 . S
Co714 O717 1.970 . S
Co714 N731 1.989 . S
Co714 O739 1.967 . S
Co714 O746 1.920 . S
Co715 O718 1.966 . S
Co715 N724 2.022 . S
Co715 N732 1.993 . S
Co715 O740 1.941 . S
C716 O717 1.258 . S
C716 O718 1.263 . S
O717 Co714 1.970 . S
O717 C716 1.258 . S
O718 Co715 1.966 . S
O718 C716 1.263 . S
C719 O720 1.235 . S
C719 O746 1.289 . S
O720 C719 1.235 . S
C721 C723 1.400 . S
C721 N724 1.351 . S
C721 C726 1.501 . S
C722 C723 1.387 . S
C722 N725 1.341 . S
C723 C721 1.400 . S
C723 C722 1.387 . S
N724 Co715 2.022 . S
N724 C721 1.351 . S
N724 N725 1.365 . S
N725 C722 1.341 . S
N725 N724 1.365 . S
N725 H745 0.862 . S
C726 C721 1.501 . S
C726 H727 0.961 . S
C726 H728 0.961 . S
C726 H729 0.960 . S
H727 C726 0.961 . S
H728 C726 0.961 . S
H729 C726 0.960 . S
C730 N731 1.342 . S
C730 C734 1.401 . S
C730 C735 1.499 . S
N731 Co714 1.989 . S
N731 C730 1.342 . S
N731 N732 1.388 . S
N732 Co715 1.993 . S
N732 N731 1.388 . S
N732 C733 1.346 . S
C733 N732 1.346 . S
C733 C734 1.396 . S
C733 C743 1.510 . S
C734 C730 1.401 . S
C734 C733 1.396 . S
C735 C730 1.499 . S
C735 H736 0.959 . S
C735 H737 0.960 . S
C735 H738 0.961 . S
H736 C735 0.959 . S
H737 C735 0.960 . S
H738 C735 0.961 . S
O739 Co714 1.967 . S
O739 C747 1.258 . S
O740 Co715 1.941 . S
O740 C747 1.266 . S
H741 C743 0.959 . S
H742 C743 0.961 . S
C743 C733 1.510 . S
C743 H741 0.959 . S
C743 H742 0.961 . S
C743 H744 0.960 . S
H744 C743 0.960 . S
H745 N725 0.862 . S
O746 Co714 1.920 . S
O746 C719 1.289 . S
C747 O739 1.258 . S
C747 O740 1.266 . S
Co748 O751 1.970 . S
Co748 N765 1.989 . S
Co748 O773 1.967 . S
Co748 O780 1.920 . S
Co749 O752 1.966 . S
Co749 N758 2.022 . S
Co749 N766 1.993 . S
Co749 O774 1.941 . S
C750 O751 1.258 . S
C750 O752 1.263 . S
O751 Co748 1.970 . S
O751 C750 1.258 . S
O752 Co749 1.966 . S
O752 C750 1.263 . S
C753 O754 1.235 . S
C753 O780 1.289 . S
O754 C753 1.235 . S
C755 C757 1.400 . S
C755 N758 1.351 . S
C755 C760 1.501 . S
C756 C757 1.387 . S
C756 N759 1.341 . S
C757 C755 1.400 . S
C757 C756 1.387 . S
N758 Co749 2.022 . S
N758 C755 1.351 . S
N758 N759 1.365 . S
N759 C756 1.341 . S
N759 N758 1.365 . S
N759 H779 0.862 . S
C760 C755 1.501 . S
C760 H761 0.961 . S
C760 H762 0.961 . S
C760 H763 0.960 . S
H761 C760 0.961 . S
H762 C760 0.961 . S
H763 C760 0.960 . S
C764 N765 1.342 . S
C764 C768 1.401 . S
C764 C769 1.499 . S
N765 Co748 1.989 . S
N765 C764 1.342 . S
N765 N766 1.388 . S
N766 Co749 1.993 . S
N766 N765 1.388 . S
N766 C767 1.346 . S
C767 N766 1.346 . S
C767 C768 1.396 . S
C767 C777 1.510 . S
C768 C764 1.401 . S
C768 C767 1.396 . S
C769 C764 1.499 . S
C769 H770 0.959 . S
C769 H771 0.960 . S
C769 H772 0.961 . S
H770 C769 0.959 . S
H771 C769 0.960 . S
H772 C769 0.961 . S
O773 Co748 1.967 . S
O773 C781 1.258 . S
O774 Co749 1.941 . S
O774 C781 1.266 . S
H775 C777 0.959 . S
H776 C777 0.961 . S
C777 C767 1.510 . S
C777 H775 0.959 . S
C777 H776 0.961 . S
C777 H778 0.960 . S
H778 C777 0.960 . S
H779 N759 0.862 . S
O780 Co748 1.920 . S
O780 C753 1.289 . S
C781 O773 1.258 . S
C781 O774 1.266 . S
Co782 O785 1.970 . S
Co782 N799 1.989 . S
Co782 O807 1.967 . S
Co782 O814 1.920 . S
Co783 O786 1.966 . S
Co783 N792 2.022 . S
Co783 N800 1.993 . S
Co783 O808 1.941 . S
C784 O785 1.258 . S
C784 O786 1.263 . S
O785 Co782 1.970 . S
O785 C784 1.258 . S
O786 Co783 1.966 . S
O786 C784 1.263 . S
C787 O788 1.235 . S
C787 O814 1.289 . S
O788 C787 1.235 . S
C789 C791 1.400 . S
C789 N792 1.351 . S
C789 C794 1.501 . S
C790 C791 1.387 . S
C790 N793 1.341 . S
C791 C789 1.400 . S
C791 C790 1.387 . S
N792 Co783 2.022 . S
N792 C789 1.351 . S
N792 N793 1.365 . S
N793 C790 1.341 . S
N793 N792 1.365 . S
N793 H813 0.862 . S
C794 C789 1.501 . S
C794 H795 0.961 . S
C794 H796 0.961 . S
C794 H797 0.960 . S
H795 C794 0.961 . S
H796 C794 0.961 . S
H797 C794 0.960 . S
C798 N799 1.342 . S
C798 C802 1.401 . S
C798 C803 1.499 . S
N799 Co782 1.989 . S
N799 C798 1.342 . S
N799 N800 1.388 . S
N800 Co783 1.993 . S
N800 N799 1.388 . S
N800 C801 1.346 . S
C801 N800 1.346 . S
C801 C802 1.396 . S
C801 C811 1.510 . S
C802 C798 1.401 . S
C802 C801 1.396 . S
C803 C798 1.499 . S
C803 H804 0.959 . S
C803 H805 0.960 . S
C803 H806 0.961 . S
H804 C803 0.959 . S
H805 C803 0.960 . S
H806 C803 0.961 . S
O807 Co782 1.967 . S
O807 C815 1.258 . S
O808 Co783 1.941 . S
O808 C815 1.266 . S
H809 C811 0.959 . S
H810 C811 0.961 . S
C811 C801 1.510 . S
C811 H809 0.959 . S
C811 H810 0.961 . S
C811 H812 0.960 . S
H812 C811 0.960 . S
H813 N793 0.862 . S
O814 Co782 1.920 . S
O814 C787 1.289 . S
C815 O807 1.258 . S
C815 O808 1.266 . S
Co816 O819 1.970 . S
Co816 N833 1.989 . S
Co816 O841 1.967 . S
Co816 O848 1.920 . S
Co817 O820 1.966 . S
Co817 N826 2.022 . S
Co817 N834 1.993 . S
Co817 O842 1.941 . S
C818 O819 1.258 . S
C818 O820 1.263 . S
O819 Co816 1.970 . S
O819 C818 1.258 . S
O820 Co817 1.966 . S
O820 C818 1.263 . S
C821 O822 1.235 . S
C821 O848 1.289 . S
O822 C821 1.235 . S
C823 C825 1.400 . S
C823 N826 1.351 . S
C823 C828 1.501 . S
C824 C825 1.387 . S
C824 N827 1.341 . S
C825 C823 1.400 . S
C825 C824 1.387 . S
N826 Co817 2.022 . S
N826 C823 1.351 . S
N826 N827 1.365 . S
N827 C824 1.341 . S
N827 N826 1.365 . S
N827 H847 0.862 . S
C828 C823 1.501 . S
C828 H829 0.961 . S
C828 H830 0.961 . S
C828 H831 0.960 . S
H829 C828 0.961 . S
H830 C828 0.961 . S
H831 C828 0.960 . S
C832 N833 1.342 . S
C832 C836 1.401 . S
C832 C837 1.499 . S
N833 Co816 1.989 . S
N833 C832 1.342 . S
N833 N834 1.388 . S
N834 Co817 1.993 . S
N834 N833 1.388 . S
N834 C835 1.346 . S
C835 N834 1.346 . S
C835 C836 1.396 . S
C835 C845 1.510 . S
C836 C832 1.401 . S
C836 C835 1.396 . S
C837 C832 1.499 . S
C837 H838 0.959 . S
C837 H839 0.960 . S
C837 H840 0.961 . S
H838 C837 0.959 . S
H839 C837 0.960 . S
H840 C837 0.961 . S
O841 Co816 1.967 . S
O841 C849 1.258 . S
O842 Co817 1.941 . S
O842 C849 1.266 . S
H843 C845 0.959 . S
H844 C845 0.961 . S
C845 C835 1.510 . S
C845 H843 0.959 . S
C845 H844 0.961 . S
C845 H846 0.960 . S
H846 C845 0.960 . S
H847 N827 0.862 . S
O848 Co816 1.920 . S
O848 C821 1.289 . S
C849 O841 1.258 . S
C849 O842 1.266 . S
Co850 O853 1.970 . S
Co850 N867 1.989 . S
Co850 O875 1.967 . S
Co850 O882 1.920 . S
Co851 O854 1.966 . S
Co851 N860 2.022 . S
Co851 N868 1.993 . S
Co851 O876 1.941 . S
C852 O853 1.258 . S
C852 O854 1.263 . S
O853 Co850 1.970 . S
O853 C852 1.258 . S
O854 Co851 1.966 . S
O854 C852 1.263 . S
C855 O856 1.235 . S
C855 O882 1.289 . S
O856 C855 1.235 . S
C857 C859 1.400 . S
C857 N860 1.351 . S
C857 C862 1.501 . S
C858 C859 1.387 . S
C858 N861 1.341 . S
C859 C857 1.400 . S
C859 C858 1.387 . S
N860 Co851 2.022 . S
N860 C857 1.351 . S
N860 N861 1.365 . S
N861 C858 1.341 . S
N861 N860 1.365 . S
N861 H881 0.862 . S
C862 C857 1.501 . S
C862 H863 0.961 . S
C862 H864 0.961 . S
C862 H865 0.960 . S
H863 C862 0.961 . S
H864 C862 0.961 . S
H865 C862 0.960 . S
C866 N867 1.342 . S
C866 C870 1.401 . S
C866 C871 1.499 . S
N867 Co850 1.989 . S
N867 C866 1.342 . S
N867 N868 1.388 . S
N868 Co851 1.993 . S
N868 N867 1.388 . S
N868 C869 1.346 . S
C869 N868 1.346 . S
C869 C870 1.396 . S
C869 C879 1.510 . S
C870 C866 1.401 . S
C870 C869 1.396 . S
C871 C866 1.499 . S
C871 H872 0.959 . S
C871 H873 0.960 . S
C871 H874 0.961 . S
H872 C871 0.959 . S
H873 C871 0.960 . S
H874 C871 0.961 . S
O875 Co850 1.967 . S
O875 C883 1.258 . S
O876 Co851 1.941 . S
O876 C883 1.266 . S
H877 C879 0.959 . S
H878 C879 0.961 . S
C879 C869 1.510 . S
C879 H877 0.959 . S
C879 H878 0.961 . S
C879 H880 0.960 . S
H880 C879 0.960 . S
H881 N861 0.862 . S
O882 Co850 1.920 . S
O882 C855 1.289 . S
C883 O875 1.258 . S
C883 O876 1.266 . S
Co884 O887 1.970 . S
Co884 N901 1.989 . S
Co884 O909 1.967 . S
Co884 O916 1.920 . S
Co885 O888 1.966 . S
Co885 N894 2.022 . S
Co885 N902 1.993 . S
Co885 O910 1.941 . S
C886 O887 1.258 . S
C886 O888 1.263 . S
O887 Co884 1.970 . S
O887 C886 1.258 . S
O888 Co885 1.966 . S
O888 C886 1.263 . S
C889 O890 1.235 . S
C889 O916 1.289 . S
O890 C889 1.235 . S
C891 C893 1.400 . S
C891 N894 1.351 . S
C891 C896 1.501 . S
C892 C893 1.387 . S
C892 N895 1.341 . S
C893 C891 1.400 . S
C893 C892 1.387 . S
N894 Co885 2.022 . S
N894 C891 1.351 . S
N894 N895 1.365 . S
N895 C892 1.341 . S
N895 N894 1.365 . S
N895 H915 0.862 . S
C896 C891 1.501 . S
C896 H897 0.961 . S
C896 H898 0.961 . S
C896 H899 0.960 . S
H897 C896 0.961 . S
H898 C896 0.961 . S
H899 C896 0.960 . S
C900 N901 1.342 . S
C900 C904 1.401 . S
C900 C905 1.499 . S
N901 Co884 1.989 . S
N901 C900 1.342 . S
N901 N902 1.388 . S
N902 Co885 1.993 . S
N902 N901 1.388 . S
N902 C903 1.346 . S
C903 N902 1.346 . S
C903 C904 1.396 . S
C903 C913 1.510 . S
C904 C900 1.401 . S
C904 C903 1.396 . S
C905 C900 1.499 . S
C905 H906 0.959 . S
C905 H907 0.960 . S
C905 H908 1.042 . S
H906 C905 0.959 . S
H907 C905 0.960 . S
H908 C905 1.042 . S
O909 Co884 1.967 . S
O909 C917 1.258 . S
O910 Co885 1.941 . S
O910 C917 1.266 . S
H911 C913 0.959 . S
H912 C913 0.961 . S
C913 C903 1.510 . S
C913 H911 0.959 . S
C913 H912 0.961 . S
C913 H914 0.960 . S
H914 C913 0.960 . S
H915 N895 0.862 . S
O916 Co884 1.920 . S
O916 C889 1.289 . S
C917 O909 1.258 . S
C917 O910 1.266 . S
Co918 O921 1.970 . S
Co918 N935 1.989 . S
Co918 O943 1.967 . S
Co918 O950 1.920 . S
Co919 O922 1.966 . S
Co919 N928 2.022 . S
Co919 N936 1.993 . S
Co919 O944 1.941 . S
C920 O921 1.258 . S
C920 O922 1.263 . S
O921 Co918 1.970 . S
O921 C920 1.258 . S
O922 Co919 1.966 . S
O922 C920 1.263 . S
C923 O924 1.235 . S
C923 O950 1.289 . S
O924 C923 1.235 . S
C925 C927 1.400 . S
C925 N928 1.351 . S
C925 C930 1.501 . S
C926 C927 1.387 . S
C926 N929 1.341 . S
C927 C925 1.400 . S
C927 C926 1.387 . S
N928 Co919 2.022 . S
N928 C925 1.351 . S
N928 N929 1.365 . S
N929 C926 1.341 . S
N929 N928 1.365 . S
N929 H949 0.862 . S
C930 C925 1.501 . S
C930 H931 0.961 . S
C930 H932 0.961 . S
C930 H933 0.960 . S
H931 C930 0.961 . S
H932 C930 0.961 . S
H933 C930 0.960 . S
C934 N935 1.342 . S
C934 C938 1.401 . S
C934 C939 1.499 . S
N935 Co918 1.989 . S
N935 C934 1.342 . S
N935 N936 1.388 . S
N936 Co919 1.993 . S
N936 N935 1.388 . S
N936 C937 1.346 . S
C937 N936 1.346 . S
C937 C938 1.396 . S
C937 C947 1.510 . S
C938 C934 1.401 . S
C938 C937 1.396 . S
C939 C934 1.499 . S
C939 H940 0.959 . S
C939 H941 0.960 . S
C939 H942 0.961 . S
H940 C939 0.959 . S
H941 C939 0.960 . S
H942 C939 0.961 . S
O943 Co918 1.967 . S
O943 C951 1.258 . S
O944 Co919 1.941 . S
O944 C951 1.266 . S
H945 C947 0.959 . S
H946 C947 0.961 . S
C947 C937 1.510 . S
C947 H945 0.959 . S
C947 H946 0.961 . S
C947 H948 0.960 . S
H948 C947 0.960 . S
H949 N929 0.862 . S
O950 Co918 1.920 . S
O950 C923 1.289 . S
C951 O943 1.258 . S
C951 O944 1.266 . S
Co952 O955 1.970 . S
Co952 N969 1.989 . S
Co952 O977 1.967 . S
Co952 O984 1.920 . S
Co953 O956 1.966 . S
Co953 N962 2.022 . S
Co953 N970 1.993 . S
Co953 O978 1.941 . S
C954 O955 1.258 . S
C954 O956 1.263 . S
O955 Co952 1.970 . S
O955 C954 1.258 . S
O956 Co953 1.966 . S
O956 C954 1.263 . S
C957 O958 1.235 . S
C957 O984 1.289 . S
O958 C957 1.235 . S
C959 C961 1.400 . S
C959 N962 1.351 . S
C959 C964 1.501 . S
C960 C961 1.387 . S
C960 N963 1.341 . S
C961 C959 1.400 . S
C961 C960 1.387 . S
N962 Co953 2.022 . S
N962 C959 1.351 . S
N962 N963 1.365 . S
N963 C960 1.341 . S
N963 N962 1.365 . S
N963 H983 0.862 . S
C964 C959 1.501 . S
C964 H965 0.961 . S
C964 H966 0.961 . S
C964 H967 0.960 . S
H965 C964 0.961 . S
H966 C964 0.961 . S
H967 C964 0.960 . S
C968 N969 1.342 . S
C968 C972 1.401 . S
C968 C973 1.499 . S
N969 Co952 1.989 . S
N969 C968 1.342 . S
N969 N970 1.388 . S
N970 Co953 1.993 . S
N970 N969 1.388 . S
N970 C971 1.346 . S
C971 N970 1.346 . S
C971 C972 1.396 . S
C971 C981 1.510 . S
C972 C968 1.401 . S
C972 C971 1.396 . S
C973 C968 1.499 . S
C973 H974 0.959 . S
C973 H975 0.960 . S
C973 H976 0.961 . S
H974 C973 0.959 . S
H975 C973 0.960 . S
H976 C973 0.961 . S
O977 Co952 1.967 . S
O977 C985 1.258 . S
O978 Co953 1.941 . S
O978 C985 1.266 . S
H979 C981 0.959 . S
H980 C981 0.961 . S
C981 C971 1.510 . S
C981 H979 0.959 . S
C981 H980 0.961 . S
C981 H982 0.960 . S
H982 C981 0.960 . S
H983 N963 0.862 . S
O984 Co952 1.920 . S
O984 C957 1.289 . S
C985 O977 1.258 . S
C985 O978 1.266 . S
Co986 O989 1.970 . S
Co986 N1003 1.989 . S
Co986 O1011 1.967 . S
Co986 O1018 1.920 . S
Co987 O990 1.966 . S
Co987 N996 2.022 . S
Co987 N1004 1.993 . S
Co987 O1012 1.941 . S
C988 O989 1.258 . S
C988 O990 1.263 . S
O989 Co986 1.970 . S
O989 C988 1.258 . S
O990 Co987 1.966 . S
O990 C988 1.263 . S
C991 O992 1.235 . S
C991 O1018 1.289 . S
O992 C991 1.235 . S
C993 C995 1.400 . S
C993 N996 1.351 . S
C993 C998 1.501 . S
C994 C995 1.387 . S
C994 N997 1.341 . S
C995 C993 1.400 . S
C995 C994 1.387 . S
N996 Co987 2.022 . S
N996 C993 1.351 . S
N996 N997 1.365 . S
N997 C994 1.341 . S
N997 N996 1.365 . S
N997 H1017 0.862 . S
C998 C993 1.501 . S
C998 H999 0.961 . S
C998 H1000 0.961 . S
C998 H1001 0.960 . S
H999 C998 0.961 . S
H1000 C998 0.961 . S
H1001 C998 0.960 . S
C1002 N1003 1.342 . S
C1002 C1006 1.401 . S
C1002 C1007 1.499 . S
N1003 Co986 1.989 . S
N1003 C1002 1.342 . S
N1003 N1004 1.388 . S
N1004 Co987 1.993 . S
N1004 N1003 1.388 . S
N1004 C1005 1.346 . S
C1005 N1004 1.346 . S
C1005 C1006 1.396 . S
C1005 C1015 1.510 . S
C1006 C1002 1.401 . S
C1006 C1005 1.396 . S
C1007 C1002 1.499 . S
C1007 H1008 0.959 . S
C1007 H1009 0.960 . S
C1007 H1010 0.961 . S
H1008 C1007 0.959 . S
H1009 C1007 0.960 . S
H1010 C1007 0.961 . S
O1011 Co986 1.967 . S
O1011 C1019 1.258 . S
O1012 Co987 1.941 . S
O1012 C1019 1.266 . S
H1013 C1015 0.959 . S
H1014 C1015 0.961 . S
C1015 C1005 1.510 . S
C1015 H1013 0.959 . S
C1015 H1014 0.961 . S
C1015 H1016 0.960 . S
H1016 C1015 0.960 . S
H1017 N997 0.862 . S
O1018 Co986 1.920 . S
O1018 C991 1.289 . S
C1019 O1011 1.258 . S
C1019 O1012 1.266 . S
Co1020 O1023 1.970 . S
Co1020 N1037 1.989 . S
Co1020 O1045 1.967 . S
Co1020 O1052 1.920 . S
Co1021 O1024 1.966 . S
Co1021 N1030 2.022 . S
Co1021 N1038 1.993 . S
Co1021 O1046 1.941 . S
C1022 O1023 1.258 . S
C1022 O1024 1.263 . S
O1023 Co1020 1.970 . S
O1023 C1022 1.258 . S
O1024 Co1021 1.966 . S
O1024 C1022 1.263 . S
C1025 O1026 1.235 . S
C1025 O1052 1.289 . S
O1026 C1025 1.235 . S
C1027 C1029 1.400 . S
C1027 N1030 1.351 . S
C1027 C1032 1.501 . S
C1028 C1029 1.387 . S
C1028 N1031 1.341 . S
C1029 C1027 1.400 . S
C1029 C1028 1.387 . S
N1030 Co1021 2.022 . S
N1030 C1027 1.351 . S
N1030 N1031 1.365 . S
N1031 C1028 1.341 . S
N1031 N1030 1.365 . S
N1031 H1051 0.862 . S
C1032 C1027 1.501 . S
C1032 H1033 0.961 . S
C1032 H1034 0.961 . S
C1032 H1035 0.960 . S
H1033 C1032 0.961 . S
H1034 C1032 0.961 . S
H1035 C1032 0.960 . S
C1036 N1037 1.342 . S
C1036 C1040 1.401 . S
C1036 C1041 1.499 . S
N1037 Co1020 1.989 . S
N1037 C1036 1.342 . S
N1037 N1038 1.388 . S
N1038 Co1021 1.993 . S
N1038 N1037 1.388 . S
N1038 C1039 1.346 . S
C1039 N1038 1.346 . S
C1039 C1040 1.396 . S
C1039 C1049 1.510 . S
C1040 C1036 1.401 . S
C1040 C1039 1.396 . S
C1041 C1036 1.499 . S
C1041 H1042 0.959 . S
C1041 H1043 0.960 . S
C1041 H1044 0.961 . S
H1042 C1041 0.959 . S
H1043 C1041 0.960 . S
H1044 C1041 0.961 . S
O1045 Co1020 1.967 . S
O1045 C1053 1.258 . S
O1046 Co1021 1.941 . S
O1046 C1053 1.266 . S
H1047 C1049 0.959 . S
H1048 C1049 0.961 . S
C1049 C1039 1.510 . S
C1049 H1047 0.959 . S
C1049 H1048 0.961 . S
C1049 H1050 0.960 . S
H1050 C1049 0.960 . S
H1051 N1031 0.862 . S
O1052 Co1020 1.920 . S
O1052 C1025 1.289 . S
C1053 O1045 1.258 . S
C1053 O1046 1.266 . S
Co1054 O1057 1.970 . S
Co1054 N1071 1.989 . S
Co1054 O1079 1.967 . S
Co1054 O1086 1.920 . S
Co1055 O1058 1.966 . S
Co1055 N1064 2.022 . S
Co1055 N1072 1.993 . S
Co1055 O1080 1.941 . S
C1056 O1057 1.258 . S
C1056 O1058 1.263 . S
O1057 Co1054 1.970 . S
O1057 C1056 1.258 . S
O1058 Co1055 1.966 . S
O1058 C1056 1.263 . S
C1059 O1060 1.235 . S
C1059 O1086 1.289 . S
O1060 C1059 1.235 . S
C1061 C1063 1.400 . S
C1061 N1064 1.351 . S
C1061 C1066 1.501 . S
C1062 C1063 1.387 . S
C1062 N1065 1.341 . S
C1063 C1061 1.400 . S
C1063 C1062 1.387 . S
N1064 Co1055 2.022 . S
N1064 C1061 1.351 . S
N1064 N1065 1.365 . S
N1065 C1062 1.341 . S
N1065 N1064 1.365 . S
N1065 H1085 0.862 . S
C1066 C1061 1.501 . S
C1066 H1067 0.961 . S
C1066 H1068 0.961 . S
C1066 H1069 0.960 . S
H1067 C1066 0.961 . S
H1068 C1066 0.961 . S
H1069 C1066 0.960 . S
C1070 N1071 1.342 . S
C1070 C1074 1.401 . S
C1070 C1075 1.499 . S
N1071 Co1054 1.989 . S
N1071 C1070 1.342 . S
N1071 N1072 1.388 . S
N1072 Co1055 1.993 . S
N1072 N1071 1.388 . S
N1072 C1073 1.346 . S
C1073 N1072 1.346 . S
C1073 C1074 1.396 . S
C1073 C1083 1.510 . S
C1074 C1070 1.401 . S
C1074 C1073 1.396 . S
C1075 C1070 1.499 . S
C1075 H1076 0.959 . S
C1075 H1077 0.960 . S
C1075 H1078 0.961 . S
H1076 C1075 0.959 . S
H1077 C1075 0.960 . S
H1078 C1075 0.961 . S
O1079 Co1054 1.967 . S
O1079 C1087 1.258 . S
O1080 Co1055 1.941 . S
O1080 C1087 1.266 . S
H1081 C1083 0.959 . S
H1082 C1083 0.961 . S
C1083 C1073 1.510 . S
C1083 H1081 0.959 . S
C1083 H1082 0.961 . S
C1083 H1084 0.960 . S
H1084 C1083 0.960 . S
H1085 N1065 0.862 . S
O1086 Co1054 1.920 . S
O1086 C1059 1.289 . S
C1087 O1079 1.258 . S
C1087 O1080 1.266 . S
Co1088 O1091 1.970 . S
Co1088 N1105 1.989 . S
Co1088 O1113 1.967 . S
Co1088 O1120 1.920 . S
Co1089 O1092 1.966 . S
Co1089 N1098 2.022 . S
Co1089 N1106 1.993 . S
Co1089 O1114 1.941 . S
C1090 O1091 1.258 . S
C1090 O1092 1.263 . S
O1091 Co1088 1.970 . S
O1091 C1090 1.258 . S
O1092 Co1089 1.966 . S
O1092 C1090 1.263 . S
C1093 O1094 1.235 . S
C1093 O1120 1.289 . S
O1094 C1093 1.235 . S
C1095 C1097 1.400 . S
C1095 N1098 1.351 . S
C1095 C1100 1.501 . S
C1096 C1097 1.387 . S
C1096 N1099 1.341 . S
C1097 C1095 1.400 . S
C1097 C1096 1.387 . S
N1098 Co1089 2.022 . S
N1098 C1095 1.351 . S
N1098 N1099 1.365 . S
N1099 C1096 1.341 . S
N1099 N1098 1.365 . S
N1099 H1119 0.862 . S
C1100 C1095 1.501 . S
C1100 H1101 0.961 . S
C1100 H1102 0.961 . S
C1100 H1103 0.960 . S
H1101 C1100 0.961 . S
H1102 C1100 0.961 . S
H1103 C1100 0.960 . S
C1104 N1105 1.342 . S
C1104 C1108 1.401 . S
C1104 C1109 1.499 . S
N1105 Co1088 1.989 . S
N1105 C1104 1.342 . S
N1105 N1106 1.388 . S
N1106 Co1089 1.993 . S
N1106 N1105 1.388 . S
N1106 C1107 1.346 . S
C1107 N1106 1.346 . S
C1107 C1108 1.396 . S
C1107 C1117 1.510 . S
C1108 C1104 1.401 . S
C1108 C1107 1.396 . S
C1109 C1104 1.499 . S
C1109 H1110 0.959 . S
C1109 H1111 0.960 . S
C1109 H1112 0.961 . S
H1110 C1109 0.959 . S
H1111 C1109 0.960 . S
H1112 C1109 0.961 . S
O1113 Co1088 1.967 . S
O1113 C1121 1.258 . S
O1114 Co1089 1.941 . S
O1114 C1121 1.266 . S
H1115 C1117 0.959 . S
H1116 C1117 0.961 . S
C1117 C1107 1.510 . S
C1117 H1115 0.959 . S
C1117 H1116 0.961 . S
C1117 H1118 0.960 . S
H1118 C1117 0.960 . S
H1119 N1099 0.862 . S
O1120 Co1088 1.920 . S
O1120 C1093 1.289 . S
C1121 O1113 1.258 . S
C1121 O1114 1.266 . S
Co1122 O1125 1.970 . S
Co1122 N1139 1.989 . S
Co1122 O1147 1.967 . S
Co1122 O1154 1.920 . S
Co1123 O1126 1.966 . S
Co1123 N1132 2.022 . S
Co1123 N1140 1.993 . S
Co1123 O1148 1.941 . S
C1124 O1125 1.258 . S
C1124 O1126 1.263 . S
O1125 Co1122 1.970 . S
O1125 C1124 1.258 . S
O1126 Co1123 1.966 . S
O1126 C1124 1.263 . S
C1127 O1128 1.235 . S
C1127 O1154 1.289 . S
O1128 C1127 1.235 . S
C1129 C1131 1.400 . S
C1129 N1132 1.351 . S
C1129 C1134 1.501 . S
C1130 C1131 1.387 . S
C1130 N1133 1.341 . S
C1131 C1129 1.400 . S
C1131 C1130 1.387 . S
N1132 Co1123 2.022 . S
N1132 C1129 1.351 . S
N1132 N1133 1.365 . S
N1133 C1130 1.341 . S
N1133 N1132 1.365 . S
N1133 H1153 0.862 . S
C1134 C1129 1.501 . S
C1134 H1135 0.961 . S
C1134 H1136 0.961 . S
C1134 H1137 0.960 . S
H1135 C1134 0.961 . S
H1136 C1134 0.961 . S
H1137 C1134 0.960 . S
C1138 N1139 1.342 . S
C1138 C1142 1.401 . S
C1138 C1143 1.499 . S
N1139 Co1122 1.989 . S
N1139 C1138 1.342 . S
N1139 N1140 1.388 . S
N1140 Co1123 1.993 . S
N1140 N1139 1.388 . S
N1140 C1141 1.346 . S
C1141 N1140 1.346 . S
C1141 C1142 1.396 . S
C1141 C1151 1.510 . S
C1142 C1138 1.401 . S
C1142 C1141 1.396 . S
C1143 C1138 1.499 . S
C1143 H1144 0.959 . S
C1143 H1145 0.960 . S
C1143 H1146 0.961 . S
H1144 C1143 0.959 . S
H1145 C1143 0.960 . S
H1146 C1143 0.961 . S
O1147 Co1122 1.967 . S
O1147 C1155 1.258 . S
O1148 Co1123 1.941 . S
O1148 C1155 1.266 . S
H1149 C1151 0.959 . S
H1150 C1151 0.961 . S
C1151 C1141 1.510 . S
C1151 H1149 0.959 . S
C1151 H1150 0.961 . S
C1151 H1152 0.960 . S
H1152 C1151 0.960 . S
H1153 N1133 0.862 . S
O1154 Co1122 1.920 . S
O1154 C1127 1.289 . S
C1155 O1147 1.258 . S
C1155 O1148 1.266 . S
Co1156 O1159 1.970 . S
Co1156 N1173 1.989 . S
Co1156 O1181 1.967 . S
Co1156 O1188 1.920 . S
Co1157 O1160 1.966 . S
Co1157 N1166 2.022 . S
Co1157 N1174 1.993 . S
Co1157 O1182 1.941 . S
C1158 O1159 1.258 . S
C1158 O1160 1.263 . S
O1159 Co1156 1.970 . S
O1159 C1158 1.258 . S
O1160 Co1157 1.966 . S
O1160 C1158 1.263 . S
C1161 O1162 1.235 . S
C1161 O1188 1.289 . S
O1162 C1161 1.235 . S
C1163 C1165 1.400 1_554 S
C1163 N1166 1.351 . S
C1163 C1168 1.501 . S
C1164 C1165 1.387 . S
C1164 N1167 1.341 . S
C1165 C1163 1.400 1_556 S
C1165 C1164 1.387 . S
N1166 Co1157 2.022 . S
N1166 C1163 1.351 . S
N1166 N1167 1.365 1_554 S
N1167 C1164 1.341 . S
N1167 N1166 1.365 1_556 S
N1167 H1187 0.862 . S
C1168 C1163 1.501 . S
C1168 H1169 0.961 . S
C1168 H1170 0.961 . S
C1168 H1171 1.013 . S
H1169 C1168 0.961 . S
H1170 C1168 0.961 . S
H1171 C1168 1.013 . S
C1172 N1173 1.342 . S
C1172 C1176 1.401 . S
C1172 C1177 1.499 . S
N1173 Co1156 1.989 . S
N1173 C1172 1.342 . S
N1173 N1174 1.388 . S
N1174 Co1157 1.993 . S
N1174 N1173 1.388 . S
N1174 C1175 1.346 . S
C1175 N1174 1.346 . S
C1175 C1176 1.396 . S
C1175 C1185 1.510 . S
C1176 C1172 1.401 . S
C1176 C1175 1.396 . S
C1177 C1172 1.499 . S
C1177 H1178 0.959 . S
C1177 H1179 0.960 . S
C1177 H1180 0.961 . S
H1178 C1177 0.959 . S
H1179 C1177 0.960 . S
H1180 C1177 0.961 . S
O1181 Co1156 1.967 . S
O1181 C1189 1.258 . S
O1182 Co1157 1.941 . S
O1182 C1189 1.266 . S
H1183 C1185 0.959 . S
H1184 C1185 0.961 . S
C1185 C1175 1.510 . S
C1185 H1183 0.959 . S
C1185 H1184 0.961 . S
C1185 H1186 0.960 . S
H1186 C1185 0.960 . S
H1187 N1167 0.862 . S
O1188 Co1156 1.920 . S
O1188 C1161 1.289 . S
C1189 O1181 1.258 . S
C1189 O1182 1.266 . S
Co1190 O1193 1.970 . S
Co1190 N1207 1.989 . S
Co1190 O1215 1.967 . S
Co1190 O1222 1.920 . S
Co1191 O1194 1.966 . S
Co1191 N1200 2.022 . S
Co1191 N1208 1.993 . S
Co1191 O1216 1.941 . S
C1192 O1193 1.258 . S
C1192 O1194 1.263 . S
O1193 Co1190 1.970 . S
O1193 C1192 1.258 . S
O1194 Co1191 1.966 . S
O1194 C1192 1.263 . S
C1195 O1196 1.235 . S
C1195 O1222 1.289 . S
O1196 C1195 1.235 . S
C1197 C1199 1.400 . S
C1197 N1200 1.351 . S
C1197 C1202 1.501 . S
C1198 C1199 1.387 . S
C1198 N1201 1.341 . S
C1199 C1197 1.400 . S
C1199 C1198 1.387 . S
N1200 Co1191 2.022 . S
N1200 C1197 1.351 . S
N1200 N1201 1.365 . S
N1201 C1198 1.341 . S
N1201 N1200 1.365 . S
N1201 H1221 0.862 . S
C1202 C1197 1.501 . S
C1202 H1203 0.961 . S
C1202 H1204 0.961 . S
C1202 H1205 0.960 . S
H1203 C1202 0.961 . S
H1204 C1202 0.961 . S
H1205 C1202 0.960 . S
C1206 N1207 1.342 . S
C1206 C1210 1.401 . S
C1206 C1211 1.499 . S
N1207 Co1190 1.989 . S
N1207 C1206 1.342 . S
N1207 N1208 1.388 . S
N1208 Co1191 1.993 . S
N1208 N1207 1.388 . S
N1208 C1209 1.346 . S
C1209 N1208 1.346 . S
C1209 C1210 1.396 . S
C1209 C1219 1.510 . S
C1210 C1206 1.401 . S
C1210 C1209 1.396 . S
C1211 C1206 1.499 . S
C1211 H1212 0.959 . S
C1211 H1213 0.960 . S
C1211 H1214 0.961 . S
H1212 C1211 0.959 . S
H1213 C1211 0.960 . S
H1214 C1211 0.961 . S
O1215 Co1190 1.967 . S
O1215 C1223 1.258 . S
O1216 Co1191 1.941 . S
O1216 C1223 1.266 . S
H1217 C1219 0.959 . S
H1218 C1219 0.961 . S
C1219 C1209 1.510 . S
C1219 H1217 0.959 . S
C1219 H1218 0.961 . S
C1219 H1220 0.960 . S
H1220 C1219 0.960 . S
H1221 N1201 0.862 . S
O1222 Co1190 1.920 . S
O1222 C1195 1.289 . S
C1223 O1215 1.258 . S
C1223 O1216 1.266 . S
Co1224 O1227 1.970 . S
Co1224 N1241 1.989 . S
Co1224 O1249 1.967 . S
Co1224 O1256 1.920 . S
Co1225 O1228 1.966 . S
Co1225 N1234 2.022 . S
Co1225 N1242 1.993 . S
Co1225 O1250 1.941 . S
C1226 O1227 1.258 . S
C1226 O1228 1.263 . S
O1227 Co1224 1.970 . S
O1227 C1226 1.258 . S
O1228 Co1225 1.966 . S
O1228 C1226 1.263 . S
C1229 O1230 1.235 . S
C1229 O1256 1.289 . S
O1230 C1229 1.235 . S
C1231 C1233 1.400 1_556 S
C1231 N1234 1.351 . S
C1231 C1236 1.501 . S
C1232 C1233 1.387 . S
C1232 N1235 1.341 . S
C1233 C1231 1.400 1_554 S
C1233 C1232 1.387 . S
N1234 Co1225 2.022 . S
N1234 C1231 1.351 . S
N1234 N1235 1.365 1_556 S
N1235 C1232 1.341 . S
N1235 N1234 1.365 1_554 S
N1235 H1255 0.862 . S
C1236 C1231 1.501 . S
C1236 H1237 0.961 . S
C1236 H1238 0.961 . S
C1236 H1239 0.960 . S
H1237 C1236 0.961 . S
H1238 C1236 0.961 . S
H1239 C1236 0.960 . S
C1240 N1241 1.342 . S
C1240 C1244 1.401 . S
C1240 C1245 1.499 . S
N1241 Co1224 1.989 . S
N1241 C1240 1.342 . S
N1241 N1242 1.388 . S
N1242 Co1225 1.993 . S
N1242 N1241 1.388 . S
N1242 C1243 1.346 . S
C1243 N1242 1.346 . S
C1243 C1244 1.396 . S
C1243 C1253 1.510 . S
C1244 C1240 1.401 . S
C1244 C1243 1.396 . S
C1245 C1240 1.499 . S
C1245 H1246 0.959 . S
C1245 H1247 0.960 . S
C1245 H1248 0.961 . S
H1246 C1245 0.959 . S
H1247 C1245 0.960 . S
H1248 C1245 0.961 . S
O1249 Co1224 1.967 . S
O1249 C1257 1.258 . S
O1250 Co1225 1.941 . S
O1250 C1257 1.266 . S
H1251 C1253 0.959 . S
H1252 C1253 0.961 . S
C1253 C1243 1.510 . S
C1253 H1251 0.959 . S
C1253 H1252 0.961 . S
C1253 H1254 0.960 . S
H1254 C1253 0.960 . S
H1255 N1235 0.862 . S
O1256 Co1224 1.920 . S
O1256 C1229 1.289 . S
C1257 O1249 1.258 . S
C1257 O1250 1.266 . S
Co1258 O1261 1.970 . S
Co1258 N1275 1.989 . S
Co1258 O1283 1.967 . S
Co1258 O1290 1.920 . S
Co1259 O1262 1.966 . S
Co1259 N1268 2.022 . S
Co1259 N1276 1.993 . S
Co1259 O1284 1.941 . S
C1260 O1261 1.258 . S
C1260 O1262 1.263 . S
O1261 Co1258 1.970 . S
O1261 C1260 1.258 . S
O1262 Co1259 1.966 . S
O1262 C1260 1.263 . S
C1263 O1264 1.235 . S
C1263 O1290 1.289 . S
O1264 C1263 1.235 . S
C1265 C1267 1.400 . S
C1265 N1268 1.351 . S
C1265 C1270 1.501 . S
C1266 C1267 1.387 . S
C1266 N1269 1.341 . S
C1267 C1265 1.400 . S
C1267 C1266 1.387 . S
N1268 Co1259 2.022 . S
N1268 C1265 1.351 . S
N1268 N1269 1.365 . S
N1269 C1266 1.341 . S
N1269 N1268 1.365 . S
N1269 H1289 0.862 . S
C1270 C1265 1.501 . S
C1270 H1271 0.961 . S
C1270 H1272 0.961 . S
C1270 H1273 0.960 . S
H1271 C1270 0.961 . S
H1272 C1270 0.961 . S
H1273 C1270 0.960 . S
C1274 N1275 1.342 . S
C1274 C1278 1.401 . S
C1274 C1279 1.499 . S
N1275 Co1258 1.989 . S
N1275 C1274 1.342 . S
N1275 N1276 1.388 . S
N1276 Co1259 1.993 . S
N1276 N1275 1.388 . S
N1276 C1277 1.346 . S
C1277 N1276 1.346 . S
C1277 C1278 1.396 . S
C1277 C1287 1.510 . S
C1278 C1274 1.401 . S
C1278 C1277 1.396 . S
C1279 C1274 1.499 . S
C1279 H1280 0.959 . S
C1279 H1281 0.960 . S
C1279 H1282 0.961 . S
H1280 C1279 0.959 . S
H1281 C1279 0.960 . S
H1282 C1279 0.961 . S
O1283 Co1258 1.967 . S
O1283 C1291 1.258 . S
O1284 Co1259 1.941 . S
O1284 C1291 1.266 . S
H1285 C1287 0.959 . S
H1286 C1287 0.961 . S
C1287 C1277 1.510 . S
C1287 H1285 0.959 . S
C1287 H1286 0.961 . S
C1287 H1288 0.960 . S
H1288 C1287 0.960 . S
H1289 N1269 0.862 . S
O1290 Co1258 1.920 . S
O1290 C1263 1.289 . S
C1291 O1283 1.258 . S
C1291 O1284 1.266 . S
Co1292 O1295 1.970 . S
Co1292 N1309 1.989 . S
Co1292 O1317 1.967 . S
Co1292 O1324 1.920 . S
Co1293 O1296 1.966 . S
Co1293 N1302 2.022 . S
Co1293 N1310 1.993 . S
Co1293 O1318 1.941 . S
C1294 O1295 1.258 . S
C1294 O1296 1.263 . S
O1295 Co1292 1.970 . S
O1295 C1294 1.258 . S
O1296 Co1293 1.966 . S
O1296 C1294 1.263 . S
C1297 O1298 1.235 . S
C1297 O1324 1.289 . S
O1298 C1297 1.235 . S
C1299 C1301 1.400 . S
C1299 N1302 1.351 . S
C1299 C1304 1.501 . S
C1300 C1301 1.387 . S
C1300 N1303 1.341 . S
C1301 C1299 1.400 . S
C1301 C1300 1.387 . S
N1302 Co1293 2.022 . S
N1302 C1299 1.351 . S
N1302 N1303 1.365 . S
N1303 C1300 1.341 . S
N1303 N1302 1.365 . S
N1303 H1323 0.862 . S
C1304 C1299 1.501 . S
C1304 H1305 0.961 . S
C1304 H1306 0.961 . S
C1304 H1307 0.960 . S
H1305 C1304 0.961 . S
H1306 C1304 0.961 . S
H1307 C1304 0.960 . S
C1308 N1309 1.342 . S
C1308 C1312 1.401 . S
C1308 C1313 1.499 . S
N1309 Co1292 1.989 . S
N1309 C1308 1.342 . S
N1309 N1310 1.388 . S
N1310 Co1293 1.993 . S
N1310 N1309 1.388 . S
N1310 C1311 1.346 . S
C1311 N1310 1.346 . S
C1311 C1312 1.396 . S
C1311 C1321 1.510 . S
C1312 C1308 1.401 . S
C1312 C1311 1.396 . S
C1313 C1308 1.499 . S
C1313 H1314 0.959 . S
C1313 H1315 0.960 . S
C1313 H1316 0.961 . S
H1314 C1313 0.959 . S
H1315 C1313 0.960 . S
H1316 C1313 0.961 . S
O1317 Co1292 1.967 . S
O1317 C1325 1.258 . S
O1318 Co1293 1.941 . S
O1318 C1325 1.266 . S
H1319 C1321 0.959 . S
H1320 C1321 0.961 . S
C1321 C1311 1.510 . S
C1321 H1319 0.959 . S
C1321 H1320 0.961 . S
C1321 H1322 0.960 . S
H1322 C1321 0.960 . S
H1323 N1303 0.862 . S
O1324 Co1292 1.920 . S
O1324 C1297 1.289 . S
C1325 O1317 1.258 . S
C1325 O1318 1.266 . S
Co1326 O1329 1.970 . S
Co1326 N1343 1.989 . S
Co1326 O1351 1.967 . S
Co1326 O1358 1.920 . S
Co1327 O1330 1.966 . S
Co1327 N1336 2.022 . S
Co1327 N1344 1.993 . S
Co1327 O1352 1.941 . S
C1328 O1329 1.258 . S
C1328 O1330 1.263 . S
O1329 Co1326 1.970 . S
O1329 C1328 1.258 . S
O1330 Co1327 1.966 . S
O1330 C1328 1.263 . S
C1331 O1332 1.235 . S
C1331 O1358 1.289 . S
O1332 C1331 1.235 . S
C1333 C1335 1.400 . S
C1333 N1336 1.351 . S
C1333 C1338 1.501 . S
C1334 C1335 1.387 . S
C1334 N1337 1.341 . S
C1335 C1333 1.400 . S
C1335 C1334 1.387 . S
N1336 Co1327 2.022 . S
N1336 C1333 1.351 . S
N1336 N1337 1.365 . S
N1337 C1334 1.341 . S
N1337 N1336 1.365 . S
N1337 H1357 0.862 . S
C1338 C1333 1.501 . S
C1338 H1339 0.961 . S
C1338 H1340 0.961 . S
C1338 H1341 0.960 . S
H1339 C1338 0.961 . S
H1340 C1338 0.961 . S
H1341 C1338 0.960 . S
C1342 N1343 1.342 . S
C1342 C1346 1.401 . S
C1342 C1347 1.499 . S
N1343 Co1326 1.989 . S
N1343 C1342 1.342 . S
N1343 N1344 1.388 . S
N1344 Co1327 1.993 . S
N1344 N1343 1.388 . S
N1344 C1345 1.346 . S
C1345 N1344 1.346 . S
C1345 C1346 1.396 . S
C1345 C1355 1.510 . S
C1346 C1342 1.401 . S
C1346 C1345 1.396 . S
C1347 C1342 1.499 . S
C1347 H1348 0.959 . S
C1347 H1349 0.960 . S
C1347 H1350 0.961 . S
H1348 C1347 0.959 . S
H1349 C1347 0.960 . S
H1350 C1347 0.961 . S
O1351 Co1326 1.967 . S
O1351 C1359 1.258 . S
O1352 Co1327 1.941 . S
O1352 C1359 1.266 . S
H1353 C1355 0.959 . S
H1354 C1355 0.961 . S
C1355 C1345 1.510 . S
C1355 H1353 0.959 . S
C1355 H1354 0.961 . S
C1355 H1356 0.960 . S
H1356 C1355 0.960 . S
H1357 N1337 0.862 . S
O1358 Co1326 1.920 . S
O1358 C1331 1.289 . S
C1359 O1351 1.258 . S
C1359 O1352 1.266 . S
Co1360 O1363 1.970 . S
Co1360 N1377 1.989 . S
Co1360 O1385 1.967 . S
Co1360 O1392 1.920 . S
Co1361 O1364 1.966 . S
Co1361 N1370 2.022 . S
Co1361 N1378 1.993 . S
Co1361 O1386 1.941 . S
C1362 O1363 1.258 . S
C1362 O1364 1.263 . S
O1363 Co1360 1.970 . S
O1363 C1362 1.258 . S
O1364 Co1361 1.966 . S
O1364 C1362 1.263 . S
C1365 O1366 1.235 . S
C1365 O1392 1.289 . S
O1366 C1365 1.235 . S
C1367 C1369 1.400 . S
C1367 N1370 1.351 . S
C1367 C1372 1.501 . S
C1368 C1369 1.387 . S
C1368 N1371 1.341 . S
C1369 C1367 1.400 . S
C1369 C1368 1.387 . S
N1370 Co1361 2.022 . S
N1370 C1367 1.351 . S
N1370 N1371 1.365 . S
N1371 C1368 1.341 . S
N1371 N1370 1.365 . S
N1371 H1391 0.862 . S
C1372 C1367 1.501 . S
C1372 H1373 0.961 . S
C1372 H1374 0.961 . S
C1372 H1375 0.960 . S
H1373 C1372 0.961 . S
H1374 C1372 0.961 . S
H1375 C1372 0.960 . S
C1376 N1377 1.342 . S
C1376 C1380 1.401 . S
C1376 C1381 1.499 . S
N1377 Co1360 1.989 . S
N1377 C1376 1.342 . S
N1377 N1378 1.388 . S
N1378 Co1361 1.993 . S
N1378 N1377 1.388 . S
N1378 C1379 1.346 . S
C1379 N1378 1.346 . S
C1379 C1380 1.396 . S
C1379 C1389 1.510 . S
C1380 C1376 1.401 . S
C1380 C1379 1.396 . S
C1381 C1376 1.499 . S
C1381 H1382 0.959 . S
C1381 H1383 0.960 . S
C1381 H1384 0.961 . S
H1382 C1381 0.959 . S
H1383 C1381 0.960 . S
H1384 C1381 0.961 . S
O1385 Co1360 1.967 . S
O1385 C1393 1.258 . S
O1386 Co1361 1.941 . S
O1386 C1393 1.266 . S
H1387 C1389 0.959 . S
H1388 C1389 0.961 . S
C1389 C1379 1.510 . S
C1389 H1387 0.959 . S
C1389 H1388 0.961 . S
C1389 H1390 0.960 . S
H1390 C1389 0.960 . S
H1391 N1371 0.862 . S
O1392 Co1360 1.920 . S
O1392 C1365 1.289 . S
C1393 O1385 1.258 . S
C1393 O1386 1.266 . S
Co1394 O1397 1.970 . S
Co1394 N1411 1.989 . S
Co1394 O1419 1.967 . S
Co1394 O1426 1.920 . S
Co1395 O1398 1.966 . S
Co1395 N1404 2.022 . S
Co1395 N1412 1.993 . S
Co1395 O1420 1.941 . S
C1396 O1397 1.258 . S
C1396 O1398 1.263 . S
O1397 Co1394 1.970 . S
O1397 C1396 1.258 . S
O1398 Co1395 1.966 . S
O1398 C1396 1.263 . S
C1399 O1400 1.235 . S
C1399 O1426 1.289 . S
O1400 C1399 1.235 . S
C1401 C1403 1.400 1_455 S
C1401 N1404 1.351 . S
C1401 C1406 1.501 . S
C1402 C1403 1.387 . S
C1402 N1405 1.341 . S
C1403 C1401 1.400 1_655 S
C1403 C1402 1.387 . S
N1404 Co1395 2.022 . S
N1404 C1401 1.351 . S
N1404 N1405 1.365 1_455 S
N1405 C1402 1.341 . S
N1405 N1404 1.365 1_655 S
N1405 H1425 0.862 . S
C1406 C1401 1.501 . S
C1406 H1407 0.961 . S
C1406 H1408 0.961 . S
C1406 H1409 1.013 . S
H1407 C1406 0.961 . S
H1408 C1406 0.961 . S
H1409 C1406 1.013 . S
C1410 N1411 1.342 . S
C1410 C1414 1.401 . S
C1410 C1415 1.499 . S
N1411 Co1394 1.989 . S
N1411 C1410 1.342 . S
N1411 N1412 1.388 . S
N1412 Co1395 1.993 . S
N1412 N1411 1.388 . S
N1412 C1413 1.346 . S
C1413 N1412 1.346 . S
C1413 C1414 1.396 . S
C1413 C1423 1.510 . S
C1414 C1410 1.401 . S
C1414 C1413 1.396 . S
C1415 C1410 1.499 . S
C1415 H1416 0.959 . S
C1415 H1417 0.960 . S
C1415 H1418 0.961 . S
H1416 C1415 0.959 . S
H1417 C1415 0.960 . S
H1418 C1415 0.961 . S
O1419 Co1394 1.967 . S
O1419 C1427 1.258 . S
O1420 Co1395 1.941 . S
O1420 C1427 1.266 . S
H1421 C1423 0.959 . S
H1422 C1423 0.961 . S
C1423 C1413 1.510 . S
C1423 H1421 0.959 . S
C1423 H1422 0.961 . S
C1423 H1424 0.960 . S
H1424 C1423 0.960 . S
H1425 N1405 0.862 . S
O1426 Co1394 1.920 . S
O1426 C1399 1.289 . S
C1427 O1419 1.258 . S
C1427 O1420 1.266 . S
Co1428 O1431 1.970 . S
Co1428 N1445 1.989 . S
Co1428 O1453 1.967 . S
Co1428 O1460 1.920 . S
Co1429 O1432 1.966 . S
Co1429 N1438 2.022 . S
Co1429 N1446 1.993 . S
Co1429 O1454 1.941 . S
C1430 O1431 1.258 . S
C1430 O1432 1.263 . S
O1431 Co1428 1.970 . S
O1431 C1430 1.258 . S
O1432 Co1429 1.966 . S
O1432 C1430 1.263 . S
C1433 O1434 1.235 . S
C1433 O1460 1.289 . S
O1434 C1433 1.235 . S
C1435 C1437 1.400 . S
C1435 N1438 1.351 . S
C1435 C1440 1.501 . S
C1436 C1437 1.387 . S
C1436 N1439 1.341 . S
C1437 C1435 1.400 . S
C1437 C1436 1.387 . S
N1438 Co1429 2.022 . S
N1438 C1435 1.351 . S
N1438 N1439 1.365 . S
N1439 C1436 1.341 . S
N1439 N1438 1.365 . S
N1439 H1459 0.862 . S
C1440 C1435 1.501 . S
C1440 H1441 0.961 . S
C1440 H1442 0.961 . S
C1440 H1443 0.960 . S
H1441 C1440 0.961 . S
H1442 C1440 0.961 . S
H1443 C1440 0.960 . S
C1444 N1445 1.342 . S
C1444 C1448 1.401 . S
C1444 C1449 1.499 . S
N1445 Co1428 1.989 . S
N1445 C1444 1.342 . S
N1445 N1446 1.388 . S
N1446 Co1429 1.993 . S
N1446 N1445 1.388 . S
N1446 C1447 1.346 . S
C1447 N1446 1.346 . S
C1447 C1448 1.396 . S
C1447 C1457 1.510 . S
C1448 C1444 1.401 . S
C1448 C1447 1.396 . S
C1449 C1444 1.499 . S
C1449 H1450 0.959 . S
C1449 H1451 0.960 . S
C1449 H1452 0.961 . S
H1450 C1449 0.959 . S
H1451 C1449 0.960 . S
H1452 C1449 0.961 . S
O1453 Co1428 1.967 . S
O1453 C1461 1.258 . S
O1454 Co1429 1.941 . S
O1454 C1461 1.266 . S
H1455 C1457 0.959 . S
H1456 C1457 0.961 . S
C1457 C1447 1.510 . S
C1457 H1455 0.959 . S
C1457 H1456 0.961 . S
C1457 H1458 0.960 . S
H1458 C1457 0.960 . S
H1459 N1439 0.862 . S
O1460 Co1428 1.920 . S
O1460 C1433 1.289 . S
C1461 O1453 1.258 . S
C1461 O1454 1.266 . S
Co1462 O1465 1.970 . S
Co1462 N1479 1.989 . S
Co1462 O1487 1.967 . S
Co1462 O1494 1.920 . S
Co1463 O1466 1.966 . S
Co1463 N1472 2.022 . S
Co1463 N1480 1.993 . S
Co1463 O1488 1.941 . S
C1464 O1465 1.258 . S
C1464 O1466 1.263 . S
O1465 Co1462 1.970 . S
O1465 C1464 1.258 . S
O1466 Co1463 1.966 . S
O1466 C1464 1.263 . S
C1467 O1468 1.235 . S
C1467 O1494 1.289 . S
O1468 C1467 1.235 . S
C1469 C1471 1.400 . S
C1469 N1472 1.351 . S
C1469 C1474 1.501 . S
C1470 C1471 1.387 . S
C1470 N1473 1.341 . S
C1471 C1469 1.400 . S
C1471 C1470 1.387 . S
N1472 Co1463 2.022 . S
N1472 C1469 1.351 . S
N1472 N1473 1.365 . S
N1473 C1470 1.341 . S
N1473 N1472 1.365 . S
N1473 H1493 0.862 . S
C1474 C1469 1.501 . S
C1474 H1475 0.961 . S
C1474 H1476 0.961 . S
C1474 H1477 0.960 . S
H1475 C1474 0.961 . S
H1476 C1474 0.961 . S
H1477 C1474 0.960 . S
C1478 N1479 1.342 . S
C1478 C1482 1.401 . S
C1478 C1483 1.499 . S
N1479 Co1462 1.989 . S
N1479 C1478 1.342 . S
N1479 N1480 1.388 . S
N1480 Co1463 1.993 . S
N1480 N1479 1.388 . S
N1480 C1481 1.346 . S
C1481 N1480 1.346 . S
C1481 C1482 1.396 . S
C1481 C1491 1.510 . S
C1482 C1478 1.401 . S
C1482 C1481 1.396 . S
C1483 C1478 1.499 . S
C1483 H1484 0.959 . S
C1483 H1485 0.960 . S
C1483 H1486 1.042 . S
H1484 C1483 0.959 . S
H1485 C1483 0.960 . S
H1486 C1483 1.042 . S
O1487 Co1462 1.967 . S
O1487 C1495 1.258 . S
O1488 Co1463 1.941 . S
O1488 C1495 1.266 . S
H1489 C1491 0.959 . S
H1490 C1491 0.961 . S
C1491 C1481 1.510 . S
C1491 H1489 0.959 . S
C1491 H1490 0.961 . S
C1491 H1492 0.960 . S
H1492 C1491 0.960 . S
H1493 N1473 0.862 . S
O1494 Co1462 1.920 . S
O1494 C1467 1.289 . S
C1495 O1487 1.258 . S
C1495 O1488 1.266 . S
Co1496 O1499 1.970 . S
Co1496 N1513 1.989 . S
Co1496 O1521 1.967 . S
Co1496 O1528 1.920 . S
Co1497 O1500 1.966 . S
Co1497 N1506 2.022 . S
Co1497 N1514 1.993 . S
Co1497 O1522 1.941 . S
C1498 O1499 1.258 . S
C1498 O1500 1.263 . S
O1499 Co1496 1.970 . S
O1499 C1498 1.258 . S
O1500 Co1497 1.966 . S
O1500 C1498 1.263 . S
C1501 O1502 1.235 . S
C1501 O1528 1.289 . S
O1502 C1501 1.235 . S
C1503 C1505 1.400 . S
C1503 N1506 1.351 . S
C1503 C1508 1.501 . S
C1504 C1505 1.387 . S
C1504 N1507 1.341 . S
C1505 C1503 1.400 . S
C1505 C1504 1.387 . S
N1506 Co1497 2.022 . S
N1506 C1503 1.351 . S
N1506 N1507 1.365 . S
N1507 C1504 1.341 . S
N1507 N1506 1.365 . S
N1507 H1527 0.862 . S
C1508 C1503 1.501 . S
C1508 H1509 0.961 . S
C1508 H1510 0.961 . S
C1508 H1511 0.960 . S
H1509 C1508 0.961 . S
H1510 C1508 0.961 . S
H1511 C1508 0.960 . S
C1512 N1513 1.342 . S
C1512 C1516 1.401 . S
C1512 C1517 1.499 . S
N1513 Co1496 1.989 . S
N1513 C1512 1.342 . S
N1513 N1514 1.388 . S
N1514 Co1497 1.993 . S
N1514 N1513 1.388 . S
N1514 C1515 1.346 . S
C1515 N1514 1.346 . S
C1515 C1516 1.396 . S
C1515 C1525 1.510 . S
C1516 C1512 1.401 . S
C1516 C1515 1.396 . S
C1517 C1512 1.499 . S
C1517 H1518 0.959 . S
C1517 H1519 0.960 . S
C1517 H1520 0.961 . S
H1518 C1517 0.959 . S
H1519 C1517 0.960 . S
H1520 C1517 0.961 . S
O1521 Co1496 1.967 . S
O1521 C1529 1.258 . S
O1522 Co1497 1.941 . S
O1522 C1529 1.266 . S
H1523 C1525 0.959 . S
H1524 C1525 0.961 . S
C1525 C1515 1.510 . S
C1525 H1523 0.959 . S
C1525 H1524 0.961 . S
C1525 H1526 0.960 . S
H1526 C1525 0.960 . S
H1527 N1507 0.862 . S
O1528 Co1496 1.920 . S
O1528 C1501 1.289 . S
C1529 O1521 1.258 . S
C1529 O1522 1.266 . S
Co1530 O1533 1.970 . S
Co1530 N1547 1.989 . S
Co1530 O1555 1.967 . S
Co1530 O1562 1.920 . S
Co1531 O1534 1.966 . S
Co1531 N1540 2.022 . S
Co1531 N1548 1.993 . S
Co1531 O1556 1.941 . S
C1532 O1533 1.258 . S
C1532 O1534 1.263 . S
O1533 Co1530 1.970 . S
O1533 C1532 1.258 . S
O1534 Co1531 1.966 . S
O1534 C1532 1.263 . S
C1535 O1536 1.235 . S
C1535 O1562 1.289 . S
O1536 C1535 1.235 . S
C1537 C1539 1.400 1_655 S
C1537 N1540 1.351 . S
C1537 C1542 1.501 . S
C1538 C1539 1.387 . S
C1538 N1541 1.341 . S
C1539 C1537 1.400 1_455 S
C1539 C1538 1.387 . S
N1540 Co1531 2.022 . S
N1540 C1537 1.351 . S
N1540 N1541 1.365 1_655 S
N1541 C1538 1.341 . S
N1541 N1540 1.365 1_455 S
N1541 H1561 0.862 . S
C1542 C1537 1.501 . S
C1542 H1543 0.961 . S
C1542 H1544 0.961 . S
C1542 H1545 0.960 . S
H1543 C1542 0.961 . S
H1544 C1542 0.961 . S
H1545 C1542 0.960 . S
C1546 N1547 1.342 . S
C1546 C1550 1.401 . S
C1546 C1551 1.499 . S
N1547 Co1530 1.989 . S
N1547 C1546 1.342 . S
N1547 N1548 1.388 . S
N1548 Co1531 1.993 . S
N1548 N1547 1.388 . S
N1548 C1549 1.346 . S
C1549 N1548 1.346 . S
C1549 C1550 1.396 . S
C1549 C1559 1.510 . S
C1550 C1546 1.401 . S
C1550 C1549 1.396 . S
C1551 C1546 1.499 . S
C1551 H1552 0.959 . S
C1551 H1553 0.960 . S
C1551 H1554 0.961 1_554 S
H1552 C1551 0.959 . S
H1553 C1551 0.960 . S
H1554 C1551 0.961 1_556 S
O1555 Co1530 1.967 . S
O1555 C1563 1.258 . S
O1556 Co1531 1.941 . S
O1556 C1563 1.266 . S
H1557 C1559 0.959 . S
H1558 C1559 0.961 . S
C1559 C1549 1.510 . S
C1559 H1557 0.959 . S
C1559 H1558 0.961 . S
C1559 H1560 0.960 . S
H1560 C1559 0.960 . S
H1561 N1541 0.862 . S
O1562 Co1530 1.920 . S
O1562 C1535 1.289 . S
C1563 O1555 1.258 . S
C1563 O1556 1.266 . S
Co1564 O1567 1.970 . S
Co1564 N1581 1.989 . S
Co1564 O1589 1.967 . S
Co1564 O1596 1.920 . S
Co1565 O1568 1.966 . S
Co1565 N1574 2.022 . S
Co1565 N1582 1.993 . S
Co1565 O1590 1.941 . S
C1566 O1567 1.258 . S
C1566 O1568 1.263 . S
O1567 Co1564 1.970 . S
O1567 C1566 1.258 . S
O1568 Co1565 1.966 . S
O1568 C1566 1.263 . S
C1569 O1570 1.235 . S
C1569 O1596 1.289 . S
O1570 C1569 1.235 . S
C1571 C1573 1.400 . S
C1571 N1574 1.351 . S
C1571 C1576 1.501 . S
C1572 C1573 1.387 . S
C1572 N1575 1.341 . S
C1573 C1571 1.400 . S
C1573 C1572 1.387 . S
N1574 Co1565 2.022 . S
N1574 C1571 1.351 . S
N1574 N1575 1.365 . S
N1575 C1572 1.341 . S
N1575 N1574 1.365 . S
N1575 H1595 0.862 . S
C1576 C1571 1.501 . S
C1576 H1577 0.961 . S
C1576 H1578 0.961 . S
C1576 H1579 0.960 . S
H1577 C1576 0.961 . S
H1578 C1576 0.961 . S
H1579 C1576 0.960 . S
C1580 N1581 1.342 . S
C1580 C1584 1.401 . S
C1580 C1585 1.499 . S
N1581 Co1564 1.989 . S
N1581 C1580 1.342 . S
N1581 N1582 1.388 . S
N1582 Co1565 1.993 . S
N1582 N1581 1.388 . S
N1582 C1583 1.346 . S
C1583 N1582 1.346 . S
C1583 C1584 1.396 . S
C1583 C1593 1.510 . S
C1584 C1580 1.401 . S
C1584 C1583 1.396 . S
C1585 C1580 1.499 . S
C1585 H1586 0.959 . S
C1585 H1587 0.960 . S
C1585 H1588 0.961 . S
H1586 C1585 0.959 . S
H1587 C1585 0.960 . S
H1588 C1585 0.961 . S
O1589 Co1564 1.967 . S
O1589 C1597 1.258 . S
O1590 Co1565 1.941 . S
O1590 C1597 1.266 . S
H1591 C1593 0.959 . S
H1592 C1593 0.961 . S
C1593 C1583 1.510 . S
C1593 H1591 0.959 . S
C1593 H1592 0.961 . S
C1593 H1594 0.960 . S
H1594 C1593 0.960 . S
H1595 N1575 0.862 . S
O1596 Co1564 1.920 . S
O1596 C1569 1.289 . S
C1597 O1589 1.258 . S
C1597 O1590 1.266 . S
Co1598 O1601 1.970 . S
Co1598 N1615 1.989 . S
Co1598 O1623 1.967 . S
Co1598 O1630 1.920 . S
Co1599 O1602 1.966 . S
Co1599 N1608 2.022 . S
Co1599 N1616 1.993 . S
Co1599 O1624 1.941 . S
C1600 O1601 1.258 . S
C1600 O1602 1.263 . S
O1601 Co1598 1.970 . S
O1601 C1600 1.258 . S
O1602 Co1599 1.966 . S
O1602 C1600 1.263 . S
C1603 O1604 1.235 . S
C1603 O1630 1.289 . S
O1604 C1603 1.235 . S
C1605 C1607 1.400 . S
C1605 N1608 1.351 . S
C1605 C1610 1.501 . S
C1606 C1607 1.387 . S
C1606 N1609 1.341 . S
C1607 C1605 1.400 . S
C1607 C1606 1.387 . S
N1608 Co1599 2.022 . S
N1608 C1605 1.351 . S
N1608 N1609 1.365 . S
N1609 C1606 1.341 . S
N1609 N1608 1.365 . S
N1609 H1629 0.862 . S
C1610 C1605 1.501 . S
C1610 H1611 0.961 . S
C1610 H1612 0.961 . S
C1610 H1613 0.960 . S
H1611 C1610 0.961 . S
H1612 C1610 0.961 . S
H1613 C1610 0.960 . S
C1614 N1615 1.342 . S
C1614 C1618 1.401 . S
C1614 C1619 1.499 . S
N1615 Co1598 1.989 . S
N1615 C1614 1.342 . S
N1615 N1616 1.388 . S
N1616 Co1599 1.993 . S
N1616 N1615 1.388 . S
N1616 C1617 1.346 . S
C1617 N1616 1.346 . S
C1617 C1618 1.396 . S
C1617 C1627 1.510 . S
C1618 C1614 1.401 . S
C1618 C1617 1.396 . S
C1619 C1614 1.499 . S
C1619 H1620 0.959 . S
C1619 H1621 0.960 . S
C1619 H1622 0.961 . S
H1620 C1619 0.959 . S
H1621 C1619 0.960 . S
H1622 C1619 0.961 . S
O1623 Co1598 1.967 . S
O1623 C1631 1.258 . S
O1624 Co1599 1.941 . S
O1624 C1631 1.266 . S
H1625 C1627 0.959 . S
H1626 C1627 0.961 . S
C1627 C1617 1.510 . S
C1627 H1625 0.959 . S
C1627 H1626 0.961 . S
C1627 H1628 0.960 . S
H1628 C1627 0.960 . S
H1629 N1609 0.862 . S
O1630 Co1598 1.920 . S
O1630 C1603 1.289 . S
C1631 O1623 1.258 . S
C1631 O1624 1.266 . S
C1632 C1633 1.349 1_455 S
C1632 C1634 1.327 . S
C1632 H1657 0.950 . S
C1633 C1632 1.349 1_655 S
C1633 C1649 1.349 . S
C1634 C1632 1.327 . S
C1634 C1653 1.429 1_455 S
C1634 H1658 0.950 . S
C1635 C1652 1.574 . S
C1635 C1654 1.392 . S
C1635 H1659 0.949 . S
H1636 C1640 0.949 . S
C1637 C1638 1.341 1_655 S
C1637 C1639 1.329 . S
C1637 H1660 0.956 . S
C1638 C1637 1.341 1_455 S
C1638 C1650 1.349 . S
C1639 C1637 1.329 . S
C1639 C1655 1.429 1_655 S
C1639 H1661 0.950 . S
C1640 H1636 0.949 . S
C1640 C1648 1.574 . S
C1640 C1656 1.368 . S
H1641 C1649 0.950 . S
H1642 C1647 0.950 . S
H1643 C1648 0.949 . S
H1644 C1650 0.950 . S
H1645 C1651 0.950 . S
H1646 C1652 0.949 . S
C1647 H1642 0.950 . S
C1647 C1649 1.327 . S
C1647 C1653 1.429 . S
C1648 C1640 1.574 . S
C1648 H1643 0.949 . S
C1648 C1654 1.341 1_455 S
C1649 C1633 1.349 . S
C1649 H1641 0.950 . S
C1649 C1647 1.327 . S
C1650 C1638 1.349 . S
C1650 H1644 0.950 . S
C1650 C1651 1.327 . S
C1651 H1645 0.950 . S
C1651 C1650 1.327 . S
C1651 C1655 1.429 . S
C1652 C1635 1.574 . S
C1652 H1646 0.949 . S
C1652 C1656 1.368 1_655 S
C1653 C1634 1.429 1_655 S
C1653 C1647 1.429 . S
C1653 C1654 1.529 . S
C1654 C1635 1.392 . S
C1654 C1648 1.341 1_655 S
C1654 C1653 1.529 . S
C1655 C1639 1.429 1_455 S
C1655 C1651 1.429 . S
C1655 C1656 1.523 . S
C1656 C1640 1.368 . S
C1656 C1652 1.368 1_455 S
C1656 C1655 1.523 . S
H1657 C1632 0.950 . S
H1658 C1634 0.950 . S
H1659 C1635 0.949 . S
H1660 C1637 0.956 . S
H1661 C1639 0.950 . S
C1662 C1663 1.349 . S
C1662 C1664 1.327 . S
C1662 H1687 0.950 . S
C1663 C1662 1.349 . S
C1663 C1679 1.349 . S
C1664 C1662 1.327 . S
C1664 C1683 1.429 . S
C1664 H1688 0.950 . S
C1665 C1682 1.574 . S
C1665 C1684 1.368 . S
C1665 H1689 0.949 . S
H1666 C1670 0.949 . S
C1667 C1668 1.349 . S
C1667 C1669 1.327 . S
C1667 H1690 0.950 . S
C1668 C1667 1.349 . S
C1668 C1680 1.349 . S
C1669 C1667 1.327 . S
C1669 C1685 1.429 . S
C1669 H1691 0.950 . S
C1670 H1666 0.949 . S
C1670 C1678 1.574 . S
C1670 C1686 1.368 . S
H1671 C1679 0.950 . S
H1672 C1677 0.950 . S
H1673 C1678 0.949 . S
H1674 C1680 0.950 . S
H1675 C1681 0.950 . S
H1676 C1682 0.949 . S
C1677 H1672 0.950 . S
C1677 C1679 1.327 . S
C1677 C1683 1.429 . S
C1678 C1670 1.574 . S
C1678 H1673 0.949 . S
C1678 C1684 1.368 . S
C1679 C1663 1.349 . S
C1679 H1671 0.950 . S
C1679 C1677 1.327 . S
C1680 C1668 1.349 . S
C1680 H1674 0.950 . S
C1680 C1681 1.327 . S
C1681 H1675 0.950 . S
C1681 C1680 1.327 . S
C1681 C1685 1.429 . S
C1682 C1665 1.574 . S
C1682 H1676 0.949 . S
C1682 C1686 1.368 . S
C1683 C1664 1.429 . S
C1683 C1677 1.429 . S
C1683 C1684 1.523 . S
C1684 C1665 1.368 . S
C1684 C1678 1.368 . S
C1684 C1683 1.523 . S
C1685 C1669 1.429 . S
C1685 C1681 1.429 . S
C1685 C1686 1.523 . S
C1686 C1670 1.368 . S
C1686 C1682 1.368 . S
C1686 C1685 1.523 . S
H1687 C1662 0.950 . S
H1688 C1664 0.950 . S
H1689 C1665 0.949 . S
H1690 C1667 0.950 . S
H1691 C1669 0.950 . S
C1692 C1693 1.349 . S
C1692 C1694 1.327 . S
C1692 H1717 0.950 . S
C1693 C1692 1.349 . S
C1693 C1709 1.349 . S
C1694 C1692 1.327 . S
C1694 C1713 1.429 . S
C1694 H1718 0.950 . S
C1695 C1712 1.574 . S
C1695 C1714 1.368 . S
C1695 H1719 0.949 . S
H1696 C1700 0.949 . S
C1697 C1698 1.349 . S
C1697 C1699 1.327 . S
C1697 H1720 0.950 . S
C1698 C1697 1.349 . S
C1698 C1710 1.349 . S
C1699 C1697 1.327 . S
C1699 C1715 1.429 . S
C1699 H1721 0.950 . S
C1700 H1696 0.949 . S
C1700 C1708 1.574 . S
C1700 C1716 1.368 . S
H1701 C1709 0.950 . S
H1702 C1707 0.950 . S
H1703 C1708 0.949 . S
H1704 C1710 0.950 . S
H1705 C1711 0.950 . S
H1706 C1712 0.949 . S
C1707 H1702 0.950 . S
C1707 C1709 1.327 . S
C1707 C1713 1.429 . S
C1708 C1700 1.574 . S
C1708 H1703 0.949 . S
C1708 C1714 1.368 . S
C1709 C1693 1.349 . S
C1709 H1701 0.950 . S
C1709 C1707 1.327 . S
C1710 C1698 1.349 . S
C1710 H1704 0.950 . S
C1710 C1711 1.327 . S
C1711 H1705 0.950 . S
C1711 C1710 1.327 . S
C1711 C1715 1.429 . S
C1712 C1695 1.574 . S
C1712 H1706 0.949 . S
C1712 C1716 1.368 . S
C1713 C1694 1.429 . S
C1713 C1707 1.429 . S
C1713 C1714 1.523 . S
C1714 C1695 1.368 . S
C1714 C1708 1.368 . S
C1714 C1713 1.523 . S
C1715 C1699 1.429 . S
C1715 C1711 1.429 . S
C1715 C1716 1.523 . S
C1716 C1700 1.368 . S
C1716 C1712 1.368 . S
C1716 C1715 1.523 . S
H1717 C1692 0.950 . S
H1718 C1694 0.950 . S
H1719 C1695 0.949 . S
H1720 C1697 0.950 . S
H1721 C1699 0.950 . S
C1722 C1723 1.349 . S
C1722 C1724 1.327 . S
C1722 H1747 0.950 . S
C1723 C1722 1.349 . S
C1723 C1739 1.349 . S
C1724 C1722 1.327 . S
C1724 C1743 1.429 . S
C1724 H1748 0.950 . S
C1725 C1742 1.574 . S
C1725 C1744 1.368 . S
C1725 H1749 0.949 . S
H1726 C1730 0.949 . S
C1727 C1728 1.349 . S
C1727 C1729 1.327 . S
C1727 H1750 0.950 . S
C1728 C1727 1.349 . S
C1728 C1740 1.349 . S
C1729 C1727 1.327 . S
C1729 C1745 1.429 . S
C1729 H1751 0.950 . S
C1730 H1726 0.949 . S
C1730 C1738 1.574 . S
C1730 C1746 1.368 . S
H1731 C1739 0.950 . S
H1732 C1737 0.950 . S
H1733 C1738 0.949 . S
H1734 C1740 0.950 . S
H1735 C1741 0.950 . S
H1736 C1742 0.949 . S
C1737 H1732 0.950 . S
C1737 C1739 1.327 . S
C1737 C1743 1.429 . S
C1738 C1730 1.574 . S
C1738 H1733 0.949 . S
C1738 C1744 1.368 . S
C1739 C1723 1.349 . S
C1739 H1731 0.950 . S
C1739 C1737 1.327 . S
C1740 C1728 1.349 . S
C1740 H1734 0.950 . S
C1740 C1741 1.327 . S
C1741 H1735 0.950 . S
C1741 C1740 1.327 . S
C1741 C1745 1.429 . S
C1742 C1725 1.574 . S
C1742 H1736 0.949 . S
C1742 C1746 1.368 . S
C1743 C1724 1.429 . S
C1743 C1737 1.429 . S
C1743 C1744 1.523 . S
C1744 C1725 1.368 . S
C1744 C1738 1.368 . S
C1744 C1743 1.523 . S
C1745 C1729 1.429 . S
C1745 C1741 1.429 . S
C1745 C1746 1.523 . S
C1746 C1730 1.368 . S
C1746 C1742 1.368 . S
C1746 C1745 1.523 . S
H1747 C1722 0.950 . S
H1748 C1724 0.950 . S
H1749 C1725 0.949 . S
H1750 C1727 0.950 . S
H1751 C1729 0.950 . S
C1752 C1753 1.295 1_655 S
C1752 C1754 1.340 . S
C1752 H1777 0.995 . S
C1753 C1752 1.295 1_455 S
C1753 C1769 1.349 . S
C1754 C1752 1.340 . S
C1754 C1773 1.429 1_655 S
C1754 H1778 0.950 . S
C1755 C1772 1.574 . S
C1755 C1774 1.368 . S
C1755 H1779 0.949 . S
H1756 C1760 0.949 . S
C1757 C1758 1.349 1_455 S
C1757 C1759 1.327 . S
C1757 H1780 0.950 . S
C1758 C1757 1.349 1_655 S
C1758 C1770 1.349 . S
C1759 C1757 1.327 . S
C1759 C1775 1.429 1_455 S
C1759 H1781 0.950 . S
C1760 H1756 0.949 . S
C1760 C1768 1.574 . S
C1760 C1776 1.392 . S
H1761 C1769 0.950 . S
H1762 C1767 0.950 . S
H1763 C1768 0.949 . S
H1764 C1770 0.950 . S
H1765 C1771 0.950 . S
H1766 C1772 0.949 . S
C1767 H1762 0.950 . S
C1767 C1769 1.327 . S
C1767 C1773 1.429 . S
C1768 C1760 1.574 . S
C1768 H1763 0.949 . S
C1768 C1774 1.368 1_655 S
C1769 C1753 1.349 . S
C1769 H1761 0.950 . S
C1769 C1767 1.327 . S
C1770 C1758 1.349 . S
C1770 H1764 0.950 . S
C1770 C1771 1.327 . S
C1771 H1765 0.950 . S
C1771 C1770 1.327 . S
C1771 C1775 1.429 . S
C1772 C1755 1.574 . S
C1772 H1766 0.949 . S
C1772 C1776 1.341 1_455 S
C1773 C1754 1.429 1_455 S
C1773 C1767 1.429 . S
C1773 C1774 1.523 . S
C1774 C1755 1.368 . S
C1774 C1768 1.368 1_455 S
C1774 C1773 1.523 . S
C1775 C1759 1.429 1_655 S
C1775 C1771 1.429 . S
C1775 C1776 1.528 . S
C1776 C1760 1.392 . S
C1776 C1772 1.341 1_655 S
C1776 C1775 1.528 . S
H1777 C1752 0.995 . S
H1778 C1754 0.950 . S
H1779 C1755 0.949 . S
H1780 C1757 0.950 . S
H1781 C1759 0.950 . S
C1782 C1783 1.349 . S
C1782 C1784 1.327 . S
C1782 H1807 0.950 . S
C1783 C1782 1.349 . S
C1783 C1799 1.349 . S
C1784 C1782 1.327 . S
C1784 C1803 1.429 . S
C1784 H1808 0.950 . S
C1785 C1802 1.574 . S
C1785 C1804 1.368 . S
C1785 H1809 0.949 . S
H1786 C1790 0.949 . S
C1787 C1788 1.349 . S
C1787 C1789 1.327 . S
C1787 H1810 0.950 . S
C1788 C1787 1.349 . S
C1788 C1800 1.349 . S
C1789 C1787 1.327 . S
C1789 C1805 1.429 . S
C1789 H1811 0.950 . S
C1790 H1786 0.949 . S
C1790 C1798 1.574 . S
C1790 C1806 1.368 . S
H1791 C1799 0.950 . S
H1792 C1797 0.950 . S
H1793 C1798 0.949 . S
H1794 C1800 0.950 . S
H1795 C1801 0.950 . S
H1796 C1802 0.949 . S
C1797 H1792 0.950 . S
C1797 C1799 1.327 . S
C1797 C1803 1.429 . S
C1798 C1790 1.574 . S
C1798 H1793 0.949 . S
C1798 C1804 1.368 . S
C1799 C1783 1.349 . S
C1799 H1791 0.950 . S
C1799 C1797 1.327 . S
C1800 C1788 1.349 . S
C1800 H1794 0.950 . S
C1800 C1801 1.327 . S
C1801 H1795 0.950 . S
C1801 C1800 1.327 . S
C1801 C1805 1.429 . S
C1802 C1785 1.574 . S
C1802 H1796 0.949 . S
C1802 C1806 1.368 . S
C1803 C1784 1.429 . S
C1803 C1797 1.429 . S
C1803 C1804 1.523 . S
C1804 C1785 1.368 . S
C1804 C1798 1.368 . S
C1804 C1803 1.523 . S
C1805 C1789 1.429 . S
C1805 C1801 1.429 . S
C1805 C1806 1.523 . S
C1806 C1790 1.368 . S
C1806 C1802 1.368 . S
C1806 C1805 1.523 . S
H1807 C1782 0.950 . S
H1808 C1784 0.950 . S
H1809 C1785 0.949 . S
H1810 C1787 0.950 . S
H1811 C1789 0.950 . S
C1812 C1813 1.349 . S
C1812 C1814 1.327 . S
C1812 H1837 0.950 . S
C1813 C1812 1.349 . S
C1813 C1829 1.349 . S
C1814 C1812 1.327 . S
C1814 C1833 1.429 . S
C1814 H1838 0.950 . S
C1815 C1832 1.574 . S
C1815 C1834 1.368 . S
C1815 H1839 0.949 . S
H1816 C1820 0.949 . S
C1817 C1818 1.349 . S
C1817 C1819 1.327 . S
C1817 H1840 0.950 . S
C1818 C1817 1.349 . S
C1818 C1830 1.349 . S
C1819 C1817 1.327 . S
C1819 C1835 1.429 . S
C1819 H1841 0.950 . S
C1820 H1816 0.949 . S
C1820 C1828 1.574 . S
C1820 C1836 1.368 . S
H1821 C1829 0.950 . S
H1822 C1827 0.950 . S
H1823 C1828 0.949 . S
H1824 C1830 0.950 . S
H1825 C1831 0.950 . S
H1826 C1832 0.949 . S
C1827 H1822 0.950 . S
C1827 C1829 1.327 . S
C1827 C1833 1.429 . S
C1828 C1820 1.574 . S
C1828 H1823 0.949 . S
C1828 C1834 1.368 . S
C1829 C1813 1.349 . S
C1829 H1821 0.950 . S
C1829 C1827 1.327 . S
C1830 C1818 1.349 . S
C1830 H1824 0.950 . S
C1830 C1831 1.327 . S
C1831 H1825 0.950 . S
C1831 C1830 1.327 . S
C1831 C1835 1.429 . S
C1832 C1815 1.574 . S
C1832 H1826 0.949 . S
C1832 C1836 1.368 . S
C1833 C1814 1.429 . S
C1833 C1827 1.429 . S
C1833 C1834 1.523 . S
C1834 C1815 1.368 . S
C1834 C1828 1.368 . S
C1834 C1833 1.523 . S
C1835 C1819 1.429 . S
C1835 C1831 1.429 . S
C1835 C1836 1.523 . S
C1836 C1820 1.368 . S
C1836 C1832 1.368 . S
C1836 C1835 1.523 . S
H1837 C1812 0.950 . S
H1838 C1814 0.950 . S
H1839 C1815 0.949 . S
H1840 C1817 0.950 . S
H1841 C1819 0.950 . S
C1842 C1843 1.349 . S
C1842 C1844 1.327 . S
C1842 H1867 0.950 . S
C1843 C1842 1.349 . S
C1843 C1859 1.349 . S
C1844 C1842 1.327 . S
C1844 C1863 1.429 . S
C1844 H1868 0.950 . S
C1845 C1862 1.574 . S
C1845 C1864 1.368 . S
C1845 H1869 0.949 . S
H1846 C1850 0.949 . S
C1847 C1848 1.349 . S
C1847 C1849 1.327 . S
C1847 H1870 0.950 . S
C1848 C1847 1.349 . S
C1848 C1860 1.349 . S
C1849 C1847 1.327 . S
C1849 C1865 1.429 . S
C1849 H1871 0.950 . S
C1850 H1846 0.949 . S
C1850 C1858 1.574 . S
C1850 C1866 1.368 . S
H1851 C1859 0.950 . S
H1852 C1857 0.950 . S
H1853 C1858 0.949 . S
H1854 C1860 0.950 . S
H1855 C1861 0.950 . S
H1856 C1862 0.949 . S
C1857 H1852 0.950 . S
C1857 C1859 1.327 . S
C1857 C1863 1.429 . S
C1858 C1850 1.574 . S
C1858 H1853 0.949 . S
C1858 C1864 1.368 . S
C1859 C1843 1.349 . S
C1859 H1851 0.950 . S
C1859 C1857 1.327 . S
C1860 C1848 1.349 . S
C1860 H1854 0.950 . S
C1860 C1861 1.327 . S
C1861 H1855 0.950 . S
C1861 C1860 1.327 . S
C1861 C1865 1.429 . S
C1862 C1845 1.574 . S
C1862 H1856 0.949 . S
C1862 C1866 1.368 . S
C1863 C1844 1.429 . S
C1863 C1857 1.429 . S
C1863 C1864 1.523 . S
C1864 C1845 1.368 . S
C1864 C1858 1.368 . S
C1864 C1863 1.523 . S
C1865 C1849 1.429 . S
C1865 C1861 1.429 . S
C1865 C1866 1.523 . S
C1866 C1850 1.368 . S
C1866 C1862 1.368 . S
C1866 C1865 1.523 . S
H1867 C1842 0.950 . S
H1868 C1844 0.950 . S
H1869 C1845 0.949 . S
H1870 C1847 0.950 . S
H1871 C1849 0.950 . S
C1872 C1873 1.349 . S
C1872 C1874 1.327 . S
C1872 H1897 0.950 . S
C1873 C1872 1.349 . S
C1873 C1889 1.349 1_545 S
C1874 C1872 1.327 . S
C1874 C1893 1.429 . S
C1874 H1898 0.950 . S
C1875 C1892 1.574 . S
C1875 C1894 1.368 1_565 S
C1875 H1899 0.949 . S
H1876 C1880 0.949 . S
C1877 C1878 1.349 . S
C1877 C1879 1.327 . S
C1877 H1900 0.950 . S
C1878 C1877 1.349 . S
C1878 C1890 1.349 1_565 S
C1879 C1877 1.327 . S
C1879 C1895 1.429 . S
C1879 H1901 0.950 . S
C1880 H1876 0.949 . S
C1880 C1888 1.574 . S
C1880 C1896 1.337 1_545 S
H1881 C1889 0.950 . S
H1882 C1887 0.950 . S
H1883 C1888 0.949 . S
H1884 C1890 0.950 . S
H1885 C1891 0.950 . S
H1886 C1892 0.949 . S
C1887 H1882 0.950 . S
C1887 C1889 1.327 . S
C1887 C1893 1.429 1_565 S
C1888 C1880 1.574 . S
C1888 H1883 0.949 . S
C1888 C1894 1.368 . S
C1889 C1873 1.349 1_565 S
C1889 H1881 0.950 . S
C1889 C1887 1.327 . S
C1890 C1878 1.349 1_545 S
C1890 H1884 0.950 . S
C1890 C1891 1.327 . S
C1891 H1885 0.950 . S
C1891 C1890 1.327 . S
C1891 C1895 1.429 1_545 S
C1892 C1875 1.574 . S
C1892 H1886 0.949 . S
C1892 C1896 1.396 . S
C1893 C1874 1.429 . S
C1893 C1887 1.429 1_545 S
C1893 C1894 1.523 . S
C1894 C1875 1.368 1_545 S
C1894 C1888 1.368 . S
C1894 C1893 1.523 . S
C1895 C1879 1.429 . S
C1895 C1891 1.429 1_565 S
C1895 C1896 1.529 . S
C1896 C1880 1.337 1_565 S
C1896 C1892 1.396 . S
C1896 C1895 1.529 . S
H1897 C1872 0.950 . S
H1898 C1874 0.950 . S
H1899 C1875 0.949 . S
H1900 C1877 0.950 . S
H1901 C1879 0.950 . S
C1902 C1903 1.349 . S
C1902 C1904 1.327 . S
C1902 H1927 0.950 . S
C1903 C1902 1.349 . S
C1903 C1919 1.349 . S
C1904 C1902 1.327 . S
C1904 C1923 1.429 . S
C1904 H1928 0.950 . S
C1905 C1922 1.574 . S
C1905 C1924 1.368 . S
C1905 H1929 0.949 . S
H1906 C1910 0.949 . S
C1907 C1908 1.349 . S
C1907 C1909 1.327 . S
C1907 H1930 0.950 . S
C1908 C1907 1.349 . S
C1908 C1920 1.349 . S
C1909 C1907 1.327 . S
C1909 C1925 1.429 . S
C1909 H1931 0.950 . S
C1910 H1906 0.949 . S
C1910 C1918 1.574 . S
C1910 C1926 1.368 . S
H1911 C1919 0.950 . S
H1912 C1917 0.950 . S
H1913 C1918 0.949 . S
H1914 C1920 0.950 . S
H1915 C1921 0.950 . S
H1916 C1922 0.949 . S
C1917 H1912 0.950 . S
C1917 C1919 1.327 . S
C1917 C1923 1.429 . S
C1918 C1910 1.574 . S
C1918 H1913 0.949 . S
C1918 C1924 1.368 . S
C1919 C1903 1.349 . S
C1919 H1911 0.950 . S
C1919 C1917 1.327 . S
C1920 C1908 1.349 . S
C1920 H1914 0.950 . S
C1920 C1921 1.327 . S
C1921 H1915 0.950 . S
C1921 C1920 1.327 . S
C1921 C1925 1.429 . S
C1922 C1905 1.574 . S
C1922 H1916 0.949 . S
C1922 C1926 1.368 . S
C1923 C1904 1.429 . S
C1923 C1917 1.429 . S
C1923 C1924 1.523 . S
C1924 C1905 1.368 . S
C1924 C1918 1.368 . S
C1924 C1923 1.523 . S
C1925 C1909 1.429 . S
C1925 C1921 1.429 . S
C1925 C1926 1.523 . S
C1926 C1910 1.368 . S
C1926 C1922 1.368 . S
C1926 C1925 1.523 . S
H1927 C1902 0.950 . S
H1928 C1904 0.950 . S
H1929 C1905 0.949 . S
H1930 C1907 0.950 . S
H1931 C1909 0.950 . S
C1932 C1933 1.349 . S
C1932 C1934 1.327 1_565 S
C1932 H1957 0.950 1_565 S
C1933 C1932 1.349 . S
C1933 C1949 1.349 . S
C1934 C1932 1.327 1_545 S
C1934 C1953 1.429 1_545 S
C1934 H1958 0.950 . S
C1935 C1952 1.574 . S
C1935 C1954 1.368 . S
C1935 H1959 0.949 . S
H1936 C1940 0.949 . S
C1937 C1938 1.349 1_565 S
C1937 C1939 1.327 . S
C1937 H1960 0.950 . S
C1938 C1937 1.349 1_545 S
C1938 C1950 1.349 . S
C1939 C1937 1.327 . S
C1939 C1955 1.409 1_565 S
C1939 H1961 0.950 . S
C1940 H1936 0.949 . S
C1940 C1948 1.574 . S
C1940 C1956 1.368 1_545 S
H1941 C1949 0.950 . S
H1942 C1947 0.950 . S
H1943 C1948 0.949 . S
H1944 C1950 0.950 . S
H1945 C1951 0.950 . S
H1946 C1952 0.949 . S
C1947 H1942 0.950 . S
C1947 C1949 1.327 . S
C1947 C1953 1.429 . S
C1948 C1940 1.574 . S
C1948 H1943 0.949 . S
C1948 C1954 1.368 1_545 S
C1949 C1933 1.349 . S
C1949 H1941 0.950 . S
C1949 C1947 1.327 . S
C1950 C1938 1.349 . S
C1950 H1944 0.950 . S
C1950 C1951 1.327 . S
C1951 H1945 0.950 . S
C1951 C1950 1.327 . S
C1951 C1955 1.453 . S
C1952 C1935 1.574 . S
C1952 H1946 0.949 . S
C1952 C1956 1.368 . S
C1953 C1934 1.429 1_565 S
C1953 C1947 1.429 . S
C1953 C1954 1.523 . S
C1954 C1935 1.368 . S
C1954 C1948 1.368 1_565 S
C1954 C1953 1.523 . S
C1955 C1939 1.409 1_545 S
C1955 C1951 1.453 . S
C1955 C1956 1.519 1_545 S
C1956 C1940 1.368 1_565 S
C1956 C1952 1.368 . S
C1956 C1955 1.519 1_565 S
H1957 C1932 0.950 1_545 S
H1958 C1934 0.950 . S
H1959 C1935 0.949 . S
H1960 C1937 0.950 . S
H1961 C1939 0.950 . S
C1962 C1963 1.349 . S
C1962 C1964 1.327 . S
C1962 H1987 0.950 . S
C1963 C1962 1.349 . S
C1963 C1979 1.349 . S
C1964 C1962 1.327 . S
C1964 C1983 1.429 . S
C1964 H1988 0.950 . S
C1965 C1982 1.574 . S
C1965 C1984 1.368 . S
C1965 H1989 0.949 . S
H1966 C1970 0.949 . S
C1967 C1968 1.349 . S
C1967 C1969 1.327 . S
C1967 H1990 0.950 . S
C1968 C1967 1.349 . S
C1968 C1980 1.349 . S
C1969 C1967 1.327 . S
C1969 C1985 1.429 . S
C1969 H1991 0.950 . S
C1970 H1966 0.949 . S
C1970 C1978 1.574 . S
C1970 C1986 1.368 . S
H1971 C1979 0.950 . S
H1972 C1977 0.950 . S
H1973 C1978 0.949 . S
H1974 C1980 0.950 . S
H1975 C1981 0.950 . S
H1976 C1982 0.949 . S
C1977 H1972 0.950 . S
C1977 C1979 1.327 . S
C1977 C1983 1.429 . S
C1978 C1970 1.574 . S
C1978 H1973 0.949 . S
C1978 C1984 1.368 . S
C1979 C1963 1.349 . S
C1979 H1971 0.950 . S
C1979 C1977 1.327 . S
C1980 C1968 1.349 . S
C1980 H1974 0.950 . S
C1980 C1981 1.327 . S
C1981 H1975 0.950 . S
C1981 C1980 1.327 . S
C1981 C1985 1.429 . S
C1982 C1965 1.574 . S
C1982 H1976 0.949 . S
C1982 C1986 1.368 . S
C1983 C1964 1.429 . S
C1983 C1977 1.429 . S
C1983 C1984 1.523 . S
C1984 C1965 1.368 . S
C1984 C1978 1.368 . S
C1984 C1983 1.523 . S
C1985 C1969 1.429 . S
C1985 C1981 1.429 . S
C1985 C1986 1.523 . S
C1986 C1970 1.368 . S
C1986 C1982 1.368 . S
C1986 C1985 1.523 . S
H1987 C1962 0.950 . S
H1988 C1964 0.950 . S
H1989 C1965 0.949 . S
H1990 C1967 0.950 . S
H1991 C1969 0.950 . S
C1992 C1993 1.349 . S
C1992 C1994 1.319 1_565 S
C1992 H2017 0.950 1_565 S
C1993 C1992 1.349 . S
C1993 C2009 1.349 . S
C1994 C1992 1.319 1_545 S
C1994 C2013 1.394 1_545 S
C1994 H2018 0.997 . S
C1995 C2012 1.574 . S
C1995 C2014 1.368 . S
C1995 H2019 0.949 . S
H1996 C2000 0.949 . S
C1997 C1998 1.349 1_565 S
C1997 C1999 1.327 . S
C1997 H2020 0.950 . S
C1998 C1997 1.349 1_545 S
C1998 C2010 1.349 . S
C1999 C1997 1.327 . S
C1999 C2015 1.404 1_565 S
C1999 H2021 0.950 . S
C2000 H1996 0.949 . S
C2000 C2008 1.574 . S
C2000 C2016 1.368 1_545 S
H2001 C2009 0.950 . S
H2002 C2007 0.950 . S
H2003 C2008 0.949 . S
H2004 C2010 0.950 . S
H2005 C2011 0.950 . S
H2006 C2012 0.949 . S
C2007 H2002 0.950 . S
C2007 C2009 1.327 . S
C2007 C2013 1.429 . S
C2008 C2000 1.574 . S
C2008 H2003 0.949 . S
C2008 C2014 1.368 1_545 S
C2009 C1993 1.349 . S
C2009 H2001 0.950 . S
C2009 C2007 1.327 . S
C2010 C1998 1.349 . S
C2010 H2004 0.950 . S
C2010 C2011 1.327 . S
C2011 H2005 0.950 . S
C2011 C2010 1.327 . S
C2011 C2015 1.461 . S
C2012 C1995 1.574 . S
C2012 H2006 0.949 . S
C2012 C2016 1.368 . S
C2013 C1994 1.394 1_565 S
C2013 C2007 1.429 . S
C2013 C2014 1.523 . S
C2014 C1995 1.368 . S
C2014 C2008 1.368 1_565 S
C2014 C2013 1.523 . S
C2015 C1999 1.404 1_545 S
C2015 C2011 1.461 . S
C2015 C2016 1.517 1_545 S
C2016 C2000 1.368 1_565 S
C2016 C2012 1.368 . S
C2016 C2015 1.517 1_565 S
H2017 C1992 0.950 1_545 S
H2018 C1994 0.997 . S
H2019 C1995 0.949 . S
H2020 C1997 0.950 . S
H2021 C1999 0.950 . S
C2022 C2023 1.349 . S
C2022 C2024 1.327 . S
C2022 H2047 0.950 . S
C2023 C2022 1.349 . S
C2023 C2039 1.349 . S
C2024 C2022 1.327 . S
C2024 C2043 1.429 . S
C2024 H2048 0.950 . S
C2025 C2042 1.574 . S
C2025 C2044 1.368 . S
C2025 H2049 0.949 . S
H2026 C2030 0.949 . S
C2027 C2028 1.349 . S
C2027 C2029 1.327 . S
C2027 H2050 0.950 . S
C2028 C2027 1.349 . S
C2028 C2040 1.349 . S
C2029 C2027 1.327 . S
C2029 C2045 1.429 . S
C2029 H2051 0.950 . S
C2030 H2026 0.949 . S
C2030 C2038 1.574 . S
C2030 C2046 1.368 . S
H2031 C2039 0.950 . S
H2032 C2037 0.950 . S
H2033 C2038 0.949 . S
H2034 C2040 0.950 . S
H2035 C2041 0.950 . S
H2036 C2042 0.949 . S
C2037 H2032 0.950 . S
C2037 C2039 1.327 . S
C2037 C2043 1.429 . S
C2038 C2030 1.574 . S
C2038 H2033 0.949 . S
C2038 C2044 1.368 . S
C2039 C2023 1.349 . S
C2039 H2031 0.950 . S
C2039 C2037 1.327 . S
C2040 C2028 1.349 . S
C2040 H2034 0.950 . S
C2040 C2041 1.327 . S
C2041 H2035 0.950 . S
C2041 C2040 1.327 . S
C2041 C2045 1.429 . S
C2042 C2025 1.574 . S
C2042 H2036 0.949 . S
C2042 C2046 1.368 . S
C2043 C2024 1.429 . S
C2043 C2037 1.429 . S
C2043 C2044 1.523 . S
C2044 C2025 1.368 . S
C2044 C2038 1.368 . S
C2044 C2043 1.523 . S
C2045 C2029 1.429 . S
C2045 C2041 1.429 . S
C2045 C2046 1.523 . S
C2046 C2030 1.368 . S
C2046 C2042 1.368 . S
C2046 C2045 1.523 . S
H2047 C2022 0.950 . S
H2048 C2024 0.950 . S
H2049 C2025 0.949 . S
H2050 C2027 0.950 . S
H2051 C2029 0.950 . S
C2052 C2053 1.349 . S
C2052 C2054 1.327 . S
C2052 H2077 0.950 . S
C2053 C2052 1.349 . S
C2053 C2069 1.349 1_565 S
C2054 C2052 1.327 . S
C2054 C2073 1.429 . S
C2054 H2078 0.950 . S
C2055 C2072 1.574 . S
C2055 C2074 1.334 1_545 S
C2055 H2079 0.949 . S
H2056 C2060 0.949 . S
C2057 C2058 1.349 . S
C2057 C2059 1.327 . S
C2057 H2080 0.950 . S
C2058 C2057 1.349 . S
C2058 C2070 1.349 1_545 S
C2059 C2057 1.327 . S
C2059 C2075 1.429 . S
C2059 H2081 0.950 . S
C2060 H2056 0.949 . S
C2060 C2068 1.574 . S
C2060 C2076 1.368 1_565 S
H2061 C2069 0.950 . S
H2062 C2067 0.950 . S
H2063 C2068 0.949 . S
H2064 C2070 0.950 . S
H2065 C2071 0.950 . S
H2066 C2072 0.949 . S
C2067 H2062 0.950 . S
C2067 C2069 1.327 . S
C2067 C2073 1.429 1_545 S
C2068 C2060 1.574 . S
C2068 H2063 0.949 . S
C2068 C2074 1.399 . S
C2069 C2053 1.349 1_545 S
C2069 H2061 0.950 . S
C2069 C2067 1.327 . S
C2070 C2058 1.349 1_565 S
C2070 H2064 0.950 . S
C2070 C2071 1.327 . S
C2071 H2065 0.950 . S
C2071 C2070 1.327 . S
C2071 C2075 1.429 1_565 S
C2072 C2055 1.574 . S
C2072 H2066 0.949 . S
C2072 C2076 1.368 . S
C2073 C2054 1.429 . S
C2073 C2067 1.429 1_565 S
C2073 C2074 1.528 . S
C2074 C2055 1.334 1_565 S
C2074 C2068 1.399 . S
C2074 C2073 1.528 . S
C2075 C2059 1.429 . S
C2075 C2071 1.429 1_545 S
C2075 C2076 1.523 . S
C2076 C2060 1.368 1_545 S
C2076 C2072 1.368 . S
C2076 C2075 1.523 . S
H2077 C2052 0.950 . S
H2078 C2054 0.950 . S
H2079 C2055 0.949 . S
H2080 C2057 0.950 . S
H2081 C2059 0.950 . S
C2082 C2083 1.349 . S
C2082 C2084 1.327 . S
C2082 H2107 0.950 . S
C2083 C2082 1.349 . S
C2083 C2099 1.349 . S
C2084 C2082 1.327 . S
C2084 C2103 1.429 . S
C2084 H2108 0.950 . S
C2085 C2102 1.574 . S
C2085 C2104 1.368 . S
C2085 H2109 0.949 . S
H2086 C2090 0.949 . S
C2087 C2088 1.349 . S
C2087 C2089 1.327 . S
C2087 H2110 0.950 . S
C2088 C2087 1.349 . S
C2088 C2100 1.349 . S
C2089 C2087 1.327 . S
C2089 C2105 1.429 . S
C2089 H2111 0.950 . S
C2090 H2086 0.949 . S
C2090 C2098 1.574 . S
C2090 C2106 1.368 . S
H2091 C2099 0.950 . S
H2092 C2097 0.950 . S
H2093 C2098 0.949 . S
H2094 C2100 0.950 . S
H2095 C2101 0.950 . S
H2096 C2102 0.949 . S
C2097 H2092 0.950 . S
C2097 C2099 1.327 . S
C2097 C2103 1.429 . S
C2098 C2090 1.574 . S
C2098 H2093 0.949 . S
C2098 C2104 1.368 . S
C2099 C2083 1.349 . S
C2099 H2091 0.950 . S
C2099 C2097 1.327 . S
C2100 C2088 1.349 . S
C2100 H2094 0.950 . S
C2100 C2101 1.327 . S
C2101 H2095 0.950 . S
C2101 C2100 1.327 . S
C2101 C2105 1.429 . S
C2102 C2085 1.574 . S
C2102 H2096 0.949 . S
C2102 C2106 1.368 . S
C2103 C2084 1.429 . S
C2103 C2097 1.429 . S
C2103 C2104 1.523 . S
C2104 C2085 1.368 . S
C2104 C2098 1.368 . S
C2104 C2103 1.523 . S
C2105 C2089 1.429 . S
C2105 C2101 1.429 . S
C2105 C2106 1.523 . S
C2106 C2090 1.368 . S
C2106 C2102 1.368 . S
C2106 C2105 1.523 . S
H2107 C2082 0.950 . S
H2108 C2084 0.950 . S
H2109 C2085 0.949 . S
H2110 C2087 0.950 . S
H2111 C2089 0.950 . S
C2112 C2113 1.349 1_554 S
C2112 C2114 1.327 . S
C2112 H2137 0.950 . S
C2113 C2112 1.349 1_556 S
C2113 C2129 1.349 . S
C2114 C2112 1.327 . S
C2114 C2133 1.429 1_554 S
C2114 H2138 0.950 . S
C2115 C2132 1.574 . S
C2115 C2134 1.397 . S
C2115 H2139 0.949 . S
H2116 C2120 0.949 . S
C2117 C2118 1.349 1_556 S
C2117 C2119 1.327 . S
C2117 H2140 0.950 . S
C2118 C2117 1.349 1_554 S
C2118 C2130 1.349 . S
C2119 C2117 1.327 . S
C2119 C2135 1.429 1_556 S
C2119 H2141 0.950 . S
C2120 H2116 0.949 . S
C2120 C2128 1.574 . S
C2120 C2136 1.368 . S
H2121 C2129 0.950 . S
H2122 C2127 0.950 . S
H2123 C2128 0.949 . S
H2124 C2130 0.950 . S
H2125 C2131 0.950 . S
H2126 C2132 0.949 . S
C2127 H2122 0.950 . S
C2127 C2129 1.327 . S
C2127 C2133 1.429 . S
C2128 C2120 1.574 . S
C2128 H2123 0.949 . S
C2128 C2134 1.336 1_554 S
C2129 C2113 1.349 . S
C2129 H2121 0.950 . S
C2129 C2127 1.327 . S
C2130 C2118 1.349 . S
C2130 H2124 0.950 . S
C2130 C2131 1.327 . S
C2131 H2125 0.950 . S
C2131 C2130 1.327 . S
C2131 C2135 1.429 . S
C2132 C2115 1.574 . S
C2132 H2126 0.949 . S
C2132 C2136 1.368 1_556 S
C2133 C2114 1.429 1_556 S
C2133 C2127 1.429 . S
C2133 C2134 1.529 . S
C2134 C2115 1.397 . S
C2134 C2128 1.336 1_556 S
C2134 C2133 1.529 . S
C2135 C2119 1.429 1_554 S
C2135 C2131 1.429 . S
C2135 C2136 1.523 . S
C2136 C2120 1.368 . S
C2136 C2132 1.368 1_554 S
C2136 C2135 1.523 . S
H2137 C2112 0.950 . S
H2138 C2114 0.950 . S
H2139 C2115 0.949 . S
H2140 C2117 0.950 . S
H2141 C2119 0.950 . S
C2142 C2143 1.349 1_556 S
C2142 C2144 1.327 . S
C2142 H2167 0.950 . S
C2143 C2142 1.349 1_554 S
C2143 C2159 1.349 . S
C2144 C2142 1.327 . S
C2144 C2163 1.405 1_556 S
C2144 H2168 0.950 . S
C2145 C2162 1.574 . S
C2145 C2164 1.368 1_554 S
C2145 H2169 0.949 . S
H2146 C2150 0.949 . S
C2147 C2148 1.283 1_554 S
C2147 C2149 1.341 . S
C2147 H2170 1.006 . S
C2148 C2147 1.283 1_556 S
C2148 C2160 1.349 . S
C2149 C2147 1.341 . S
C2149 C2165 1.429 1_554 S
C2149 H2171 0.950 . S
C2150 H2146 0.949 . S
C2150 C2158 1.574 . S
C2150 C2166 1.368 . S
H2151 C2159 0.950 . S
H2152 C2157 0.950 . S
H2153 C2158 0.949 . S
H2154 C2160 0.950 . S
H2155 C2161 0.950 . S
H2156 C2162 0.949 . S
C2157 H2152 0.950 . S
C2157 C2159 1.327 . S
C2157 C2163 1.457 . S
C2158 C2150 1.574 . S
C2158 H2153 0.949 . S
C2158 C2164 1.368 . S
C2159 C2143 1.349 . S
C2159 H2151 0.950 . S
C2159 C2157 1.327 . S
C2160 C2148 1.349 . S
C2160 H2154 0.950 . S
C2160 C2161 1.327 . S
C2161 H2155 0.950 . S
C2161 C2160 1.327 . S
C2161 C2165 1.429 . S
C2162 C2145 1.574 . S
C2162 H2156 0.949 . S
C2162 C2166 1.368 1_554 S
C2163 C2144 1.405 1_554 S
C2163 C2157 1.457 . S
C2163 C2164 1.519 1_554 S
C2164 C2145 1.368 1_556 S
C2164 C2158 1.368 . S
C2164 C2163 1.519 1_556 S
C2165 C2149 1.429 1_556 S
C2165 C2161 1.429 . S
C2165 C2166 1.523 . S
C2166 C2150 1.368 . S
C2166 C2162 1.368 1_556 S
C2166 C2165 1.523 . S
H2167 C2142 0.950 . S
H2168 C2144 0.950 . S
H2169 C2145 0.949 . S
H2170 C2147 1.006 . S
H2171 C2149 0.950 . S
C2172 C2173 1.349 . S
C2172 C2174 1.327 . S
C2172 H2197 0.950 . S
C2173 C2172 1.349 . S
C2173 C2189 1.349 . S
C2174 C2172 1.327 . S
C2174 C2193 1.429 . S
C2174 H2198 0.950 . S
C2175 C2192 1.574 . S
C2175 C2194 1.368 . S
C2175 H2199 0.949 . S
H2176 C2180 0.949 . S
C2177 C2178 1.349 . S
C2177 C2179 1.327 . S
C2177 H2200 0.950 . S
C2178 C2177 1.349 . S
C2178 C2190 1.349 . S
C2179 C2177 1.327 . S
C2179 C2195 1.429 . S
C2179 H2201 0.950 . S
C2180 H2176 0.949 . S
C2180 C2188 1.574 . S
C2180 C2196 1.368 . S
H2181 C2189 0.950 . S
H2182 C2187 0.950 . S
H2183 C2188 0.949 . S
H2184 C2190 0.950 . S
H2185 C2191 0.950 . S
H2186 C2192 0.949 . S
C2187 H2182 0.950 . S
C2187 C2189 1.327 . S
C2187 C2193 1.429 . S
C2188 C2180 1.574 . S
C2188 H2183 0.949 . S
C2188 C2194 1.368 . S
C2189 C2173 1.349 . S
C2189 H2181 0.950 . S
C2189 C2187 1.327 . S
C2190 C2178 1.349 . S
C2190 H2184 0.950 . S
C2190 C2191 1.327 . S
C2191 H2185 0.950 . S
C2191 C2190 1.327 . S
C2191 C2195 1.429 . S
C2192 C2175 1.574 . S
C2192 H2186 0.949 . S
C2192 C2196 1.368 . S
C2193 C2174 1.429 . S
C2193 C2187 1.429 . S
C2193 C2194 1.523 . S
C2194 C2175 1.368 . S
C2194 C2188 1.368 . S
C2194 C2193 1.523 . S
C2195 C2179 1.429 . S
C2195 C2191 1.429 . S
C2195 C2196 1.523 . S
C2196 C2180 1.368 . S
C2196 C2192 1.368 . S
C2196 C2195 1.523 . S
H2197 C2172 0.950 . S
H2198 C2174 0.950 . S
H2199 C2175 0.949 . S
H2200 C2177 0.950 . S
H2201 C2179 0.950 . S
C2202 C2203 1.349 . S
C2202 C2204 1.327 . S
C2202 H2227 0.950 . S
C2203 C2202 1.349 . S
C2203 C2219 1.349 . S
C2204 C2202 1.327 . S
C2204 C2223 1.429 . S
C2204 H2228 0.950 . S
C2205 C2222 1.574 . S
C2205 C2224 1.368 . S
C2205 H2229 0.949 . S
H2206 C2210 0.949 . S
C2207 C2208 1.349 . S
C2207 C2209 1.327 . S
C2207 H2230 0.950 . S
C2208 C2207 1.349 . S
C2208 C2220 1.349 . S
C2209 C2207 1.327 . S
C2209 C2225 1.429 . S
C2209 H2231 0.950 . S
C2210 H2206 0.949 . S
C2210 C2218 1.574 . S
C2210 C2226 1.368 . S
H2211 C2219 0.950 . S
H2212 C2217 0.950 . S
H2213 C2218 0.949 . S
H2214 C2220 0.950 . S
H2215 C2221 0.950 . S
H2216 C2222 0.949 . S
C2217 H2212 0.950 . S
C2217 C2219 1.327 . S
C2217 C2223 1.429 . S
C2218 C2210 1.574 . S
C2218 H2213 0.949 . S
C2218 C2224 1.368 . S
C2219 C2203 1.349 . S
C2219 H2211 0.950 . S
C2219 C2217 1.327 . S
C2220 C2208 1.349 . S
C2220 H2214 0.950 . S
C2220 C2221 1.327 . S
C2221 H2215 0.950 . S
C2221 C2220 1.327 . S
C2221 C2225 1.429 . S
C2222 C2205 1.574 . S
C2222 H2216 0.949 . S
C2222 C2226 1.368 . S
C2223 C2204 1.429 . S
C2223 C2217 1.429 . S
C2223 C2224 1.523 . S
C2224 C2205 1.368 . S
C2224 C2218 1.368 . S
C2224 C2223 1.523 . S
C2225 C2209 1.429 . S
C2225 C2221 1.429 . S
C2225 C2226 1.523 . S
C2226 C2210 1.368 . S
C2226 C2222 1.368 . S
C2226 C2225 1.523 . S
H2227 C2202 0.950 . S
H2228 C2204 0.950 . S
H2229 C2205 0.949 . S
H2230 C2207 0.950 . S
H2231 C2209 0.950 . S
C2232 C2233 1.349 . S
C2232 C2234 1.327 . S
C2232 H2257 0.950 . S
C2233 C2232 1.349 . S
C2233 C2249 1.349 . S
C2234 C2232 1.327 . S
C2234 C2253 1.429 . S
C2234 H2258 0.950 . S
C2235 C2252 1.574 . S
C2235 C2254 1.368 . S
C2235 H2259 0.949 . S
H2236 C2240 0.949 . S
C2237 C2238 1.349 . S
C2237 C2239 1.327 . S
C2237 H2260 0.950 . S
C2238 C2237 1.349 . S
C2238 C2250 1.349 . S
C2239 C2237 1.327 . S
C2239 C2255 1.429 . S
C2239 H2261 0.950 . S
C2240 H2236 0.949 . S
C2240 C2248 1.574 . S
C2240 C2256 1.368 . S
H2241 C2249 0.950 . S
H2242 C2247 0.950 . S
H2243 C2248 0.949 . S
H2244 C2250 0.950 . S
H2245 C2251 0.950 . S
H2246 C2252 0.949 . S
C2247 H2242 0.950 . S
C2247 C2249 1.327 . S
C2247 C2253 1.429 . S
C2248 C2240 1.574 . S
C2248 H2243 0.949 . S
C2248 C2254 1.368 . S
C2249 C2233 1.349 . S
C2249 H2241 0.950 . S
C2249 C2247 1.327 . S
C2250 C2238 1.349 . S
C2250 H2244 0.950 . S
C2250 C2251 1.327 . S
C2251 H2245 0.950 . S
C2251 C2250 1.327 . S
C2251 C2255 1.429 . S
C2252 C2235 1.574 . S
C2252 H2246 0.949 . S
C2252 C2256 1.368 . S
C2253 C2234 1.429 . S
C2253 C2247 1.429 . S
C2253 C2254 1.523 . S
C2254 C2235 1.368 . S
C2254 C2248 1.368 . S
C2254 C2253 1.523 . S
C2255 C2239 1.429 . S
C2255 C2251 1.429 . S
C2255 C2256 1.523 . S
C2256 C2240 1.368 . S
C2256 C2252 1.368 . S
C2256 C2255 1.523 . S
H2257 C2232 0.950 . S
H2258 C2234 0.950 . S
H2259 C2235 0.949 . S
H2260 C2237 0.950 . S
H2261 C2239 0.950 . S
C2262 C2263 1.349 . S
C2262 C2264 1.327 . S
C2262 H2287 0.950 . S
C2263 C2262 1.349 . S
C2263 C2279 1.349 . S
C2264 C2262 1.327 . S
C2264 C2283 1.429 . S
C2264 H2288 0.950 . S
C2265 C2282 1.574 . S
C2265 C2284 1.368 . S
C2265 H2289 0.949 . S
H2266 C2270 0.949 . S
C2267 C2268 1.349 . S
C2267 C2269 1.327 . S
C2267 H2290 0.950 . S
C2268 C2267 1.349 . S
C2268 C2280 1.349 . S
C2269 C2267 1.327 . S
C2269 C2285 1.429 . S
C2269 H2291 0.950 . S
C2270 H2266 0.949 . S
C2270 C2278 1.574 . S
C2270 C2286 1.368 . S
H2271 C2279 0.950 . S
H2272 C2277 0.950 . S
H2273 C2278 0.949 . S
H2274 C2280 0.950 . S
H2275 C2281 0.950 . S
H2276 C2282 0.949 . S
C2277 H2272 0.950 . S
C2277 C2279 1.327 . S
C2277 C2283 1.429 . S
C2278 C2270 1.574 . S
C2278 H2273 0.949 . S
C2278 C2284 1.368 . S
C2279 C2263 1.349 . S
C2279 H2271 0.950 . S
C2279 C2277 1.327 . S
C2280 C2268 1.349 . S
C2280 H2274 0.950 . S
C2280 C2281 1.327 . S
C2281 H2275 0.950 . S
C2281 C2280 1.327 . S
C2281 C2285 1.429 . S
C2282 C2265 1.574 . S
C2282 H2276 0.949 . S
C2282 C2286 1.368 . S
C2283 C2264 1.429 . S
C2283 C2277 1.429 . S
C2283 C2284 1.523 . S
C2284 C2265 1.368 . S
C2284 C2278 1.368 . S
C2284 C2283 1.523 . S
C2285 C2269 1.429 . S
C2285 C2281 1.429 . S
C2285 C2286 1.523 . S
C2286 C2270 1.368 . S
C2286 C2282 1.368 . S
C2286 C2285 1.523 . S
H2287 C2262 0.950 . S
H2288 C2264 0.950 . S
H2289 C2265 0.949 . S
H2290 C2267 0.950 . S
H2291 C2269 0.950 . S
C2292 C2293 1.349 . S
C2292 C2294 1.327 . S
C2292 H2317 0.950 . S
C2293 C2292 1.349 . S
C2293 C2309 1.349 . S
C2294 C2292 1.327 . S
C2294 C2313 1.429 . S
C2294 H2318 0.950 . S
C2295 C2312 1.574 . S
C2295 C2314 1.368 . S
C2295 H2319 0.949 . S
H2296 C2300 0.949 . S
C2297 C2298 1.349 . S
C2297 C2299 1.327 . S
C2297 H2320 0.950 . S
C2298 C2297 1.349 . S
C2298 C2310 1.349 . S
C2299 C2297 1.327 . S
C2299 C2315 1.429 . S
C2299 H2321 0.950 . S
C2300 H2296 0.949 . S
C2300 C2308 1.574 . S
C2300 C2316 1.368 . S
H2301 C2309 0.950 . S
H2302 C2307 0.950 . S
H2303 C2308 0.949 . S
H2304 C2310 0.950 . S
H2305 C2311 0.950 . S
H2306 C2312 0.949 . S
C2307 H2302 0.950 . S
C2307 C2309 1.327 . S
C2307 C2313 1.429 . S
C2308 C2300 1.574 . S
C2308 H2303 0.949 . S
C2308 C2314 1.368 . S
C2309 C2293 1.349 . S
C2309 H2301 0.950 . S
C2309 C2307 1.327 . S
C2310 C2298 1.349 . S
C2310 H2304 0.950 . S
C2310 C2311 1.327 . S
C2311 H2305 0.950 . S
C2311 C2310 1.327 . S
C2311 C2315 1.429 . S
C2312 C2295 1.574 . S
C2312 H2306 0.949 . S
C2312 C2316 1.368 . S
C2313 C2294 1.429 . S
C2313 C2307 1.429 . S
C2313 C2314 1.523 . S
C2314 C2295 1.368 . S
C2314 C2308 1.368 . S
C2314 C2313 1.523 . S
C2315 C2299 1.429 . S
C2315 C2311 1.429 . S
C2315 C2316 1.523 . S
C2316 C2300 1.368 . S
C2316 C2312 1.368 . S
C2316 C2315 1.523 . S
H2317 C2292 0.950 . S
H2318 C2294 0.950 . S
H2319 C2295 0.949 . S
H2320 C2297 0.950 . S
H2321 C2299 0.950 . S
C2322 C2323 1.349 . S
C2322 C2324 1.327 . S
C2322 H2347 0.950 . S
C2323 C2322 1.349 . S
C2323 C2339 1.349 . S
C2324 C2322 1.327 . S
C2324 C2343 1.429 . S
C2324 H2348 0.950 . S
C2325 C2342 1.574 . S
C2325 C2344 1.368 . S
C2325 H2349 0.949 . S
H2326 C2330 0.949 . S
C2327 C2328 1.349 . S
C2327 C2329 1.327 . S
C2327 H2350 0.950 . S
C2328 C2327 1.349 . S
C2328 C2340 1.349 . S
C2329 C2327 1.327 . S
C2329 C2345 1.429 . S
C2329 H2351 0.950 . S
C2330 H2326 0.949 . S
C2330 C2338 1.574 . S
C2330 C2346 1.368 . S
H2331 C2339 0.950 . S
H2332 C2337 0.950 . S
H2333 C2338 0.949 . S
H2334 C2340 0.950 . S
H2335 C2341 0.950 . S
H2336 C2342 0.949 . S
C2337 H2332 0.950 . S
C2337 C2339 1.327 . S
C2337 C2343 1.429 . S
C2338 C2330 1.574 . S
C2338 H2333 0.949 . S
C2338 C2344 1.368 . S
C2339 C2323 1.349 . S
C2339 H2331 0.950 . S
C2339 C2337 1.327 . S
C2340 C2328 1.349 . S
C2340 H2334 0.950 . S
C2340 C2341 1.327 . S
C2341 H2335 0.950 . S
C2341 C2340 1.327 . S
C2341 C2345 1.429 . S
C2342 C2325 1.574 . S
C2342 H2336 0.949 . S
C2342 C2346 1.368 . S
C2343 C2324 1.429 . S
C2343 C2337 1.429 . S
C2343 C2344 1.523 . S
C2344 C2325 1.368 . S
C2344 C2338 1.368 . S
C2344 C2343 1.523 . S
C2345 C2329 1.429 . S
C2345 C2341 1.429 . S
C2345 C2346 1.523 . S
C2346 C2330 1.368 . S
C2346 C2342 1.368 . S
C2346 C2345 1.523 . S
H2347 C2322 0.950 . S
H2348 C2324 0.950 . S
H2349 C2325 0.949 . S
H2350 C2327 0.950 . S
H2351 C2329 0.950 . S
C2352 C2353 1.349 . S
C2352 C2354 1.327 . S
C2352 H2377 0.950 . S
C2353 C2352 1.349 . S
C2353 C2369 1.349 . S
C2354 C2352 1.327 . S
C2354 C2373 1.429 . S
C2354 H2378 0.950 . S
C2355 C2372 1.574 . S
C2355 C2374 1.368 . S
C2355 H2379 0.949 . S
H2356 C2360 0.949 . S
C2357 C2358 1.349 . S
C2357 C2359 1.327 . S
C2357 H2380 0.950 . S
C2358 C2357 1.349 . S
C2358 C2370 1.349 . S
C2359 C2357 1.327 . S
C2359 C2375 1.429 . S
C2359 H2381 0.950 . S
C2360 H2356 0.949 . S
C2360 C2368 1.574 . S
C2360 C2376 1.368 . S
H2361 C2369 0.950 . S
H2362 C2367 0.950 . S
H2363 C2368 0.949 . S
H2364 C2370 0.950 . S
H2365 C2371 0.950 . S
H2366 C2372 0.949 . S
C2367 H2362 0.950 . S
C2367 C2369 1.327 . S
C2367 C2373 1.429 . S
C2368 C2360 1.574 . S
C2368 H2363 0.949 . S
C2368 C2374 1.368 . S
C2369 C2353 1.349 . S
C2369 H2361 0.950 . S
C2369 C2367 1.327 . S
C2370 C2358 1.349 . S
C2370 H2364 0.950 . S
C2370 C2371 1.327 . S
C2371 H2365 0.950 . S
C2371 C2370 1.327 . S
C2371 C2375 1.429 . S
C2372 C2355 1.574 . S
C2372 H2366 0.949 . S
C2372 C2376 1.368 . S
C2373 C2354 1.429 . S
C2373 C2367 1.429 . S
C2373 C2374 1.523 . S
C2374 C2355 1.368 . S
C2374 C2368 1.368 . S
C2374 C2373 1.523 . S
C2375 C2359 1.429 . S
C2375 C2371 1.429 . S
C2375 C2376 1.523 . S
C2376 C2360 1.368 . S
C2376 C2372 1.368 . S
C2376 C2375 1.523 . S
H2377 C2352 0.950 . S
H2378 C2354 0.950 . S
H2379 C2355 0.949 . S
H2380 C2357 0.950 . S
H2381 C2359 0.950 . S
C2382 C2383 1.349 . S
C2382 C2384 1.327 . S
C2382 H2407 0.950 . S
C2383 C2382 1.349 . S
C2383 C2399 1.349 . S
C2384 C2382 1.327 . S
C2384 C2403 1.429 . S
C2384 H2408 0.950 . S
C2385 C2402 1.574 . S
C2385 C2404 1.368 . S
C2385 H2409 0.949 . S
H2386 C2390 0.949 . S
C2387 C2388 1.349 . S
C2387 C2389 1.327 . S
C2387 H2410 0.950 . S
C2388 C2387 1.349 . S
C2388 C2400 1.349 . S
C2389 C2387 1.327 . S
C2389 C2405 1.429 . S
C2389 H2411 0.950 . S
C2390 H2386 0.949 . S
C2390 C2398 1.574 . S
C2390 C2406 1.368 . S
H2391 C2399 0.950 . S
H2392 C2397 0.950 . S
H2393 C2398 0.949 . S
H2394 C2400 0.950 . S
H2395 C2401 0.950 . S
H2396 C2402 0.949 . S
C2397 H2392 0.950 . S
C2397 C2399 1.327 . S
C2397 C2403 1.429 . S
C2398 C2390 1.574 . S
C2398 H2393 0.949 . S
C2398 C2404 1.368 . S
C2399 C2383 1.349 . S
C2399 H2391 0.950 . S
C2399 C2397 1.327 . S
C2400 C2388 1.349 . S
C2400 H2394 0.950 . S
C2400 C2401 1.327 . S
C2401 H2395 0.950 . S
C2401 C2400 1.327 . S
C2401 C2405 1.429 . S
C2402 C2385 1.574 . S
C2402 H2396 0.949 . S
C2402 C2406 1.368 . S
C2403 C2384 1.429 . S
C2403 C2397 1.429 . S
C2403 C2404 1.523 . S
C2404 C2385 1.368 . S
C2404 C2398 1.368 . S
C2404 C2403 1.523 . S
C2405 C2389 1.429 . S
C2405 C2401 1.429 . S
C2405 C2406 1.523 . S
C2406 C2390 1.368 . S
C2406 C2402 1.368 . S
C2406 C2405 1.523 . S
H2407 C2382 0.950 . S
H2408 C2384 0.950 . S
H2409 C2385 0.949 . S
H2410 C2387 0.950 . S
H2411 C2389 0.950 . S
C2412 C2413 1.349 . S
C2412 C2414 1.327 . S
C2412 H2437 0.950 . S
C2413 C2412 1.349 . S
C2413 C2429 1.349 1_455 S
C2414 C2412 1.327 . S
C2414 C2433 1.468 . S
C2414 H2438 0.950 . S
C2415 C2432 1.574 . S
C2415 C2434 1.368 . S
C2415 H2439 0.949 . S
H2416 C2420 0.949 . S
C2417 C2418 1.349 . S
C2417 C2419 1.327 . S
C2417 H2440 0.950 . S
C2418 C2417 1.349 . S
C2418 C2430 1.290 1_655 S
C2419 C2417 1.327 . S
C2419 C2435 1.429 . S
C2419 H2441 0.950 . S
C2420 H2416 0.949 . S
C2420 C2428 1.574 . S
C2420 C2436 1.368 1_455 S
H2421 C2429 0.950 . S
H2422 C2427 0.950 . S
H2423 C2428 0.949 . S
H2424 C2430 1.000 . S
H2425 C2431 0.950 . S
H2426 C2432 0.949 . S
C2427 H2422 0.950 . S
C2427 C2429 1.327 . S
C2427 C2433 1.397 1_655 S
C2428 C2420 1.574 . S
C2428 H2423 0.949 . S
C2428 C2434 1.368 1_455 S
C2429 C2413 1.349 1_655 S
C2429 H2421 0.950 . S
C2429 C2427 1.327 . S
C2430 C2418 1.290 1_455 S
C2430 H2424 1.000 . S
C2430 C2431 1.339 . S
C2431 H2425 0.950 . S
C2431 C2430 1.339 . S
C2431 C2435 1.429 1_455 S
C2432 C2415 1.574 . S
C2432 H2426 0.949 . S
C2432 C2436 1.368 . S
C2433 C2414 1.468 . S
C2433 C2427 1.397 1_455 S
C2433 C2434 1.517 1_455 S
C2434 C2415 1.368 . S
C2434 C2428 1.368 1_655 S
C2434 C2433 1.517 1_655 S
C2435 C2419 1.429 . S
C2435 C2431 1.429 1_655 S
C2435 C2436 1.523 . S
C2436 C2420 1.368 1_655 S
C2436 C2432 1.368 . S
C2436 C2435 1.523 . S
H2437 C2412 0.950 . S
H2438 C2414 0.950 . S
H2439 C2415 0.949 . S
H2440 C2417 0.950 . S
H2441 C2419 0.950 . S
C2442 C2443 1.349 . S
C2442 C2444 1.327 . S
C2442 H2467 0.950 . S
C2443 C2442 1.349 . S
C2443 C2459 1.349 . S
C2444 C2442 1.327 . S
C2444 C2463 1.429 . S
C2444 H2468 0.950 . S
C2445 C2462 1.574 . S
C2445 C2464 1.368 . S
C2445 H2469 0.949 . S
H2446 C2450 0.949 . S
C2447 C2448 1.349 . S
C2447 C2449 1.327 . S
C2447 H2470 0.950 . S
C2448 C2447 1.349 . S
C2448 C2460 1.349 . S
C2449 C2447 1.327 . S
C2449 C2465 1.429 . S
C2449 H2471 0.950 . S
C2450 H2446 0.949 . S
C2450 C2458 1.574 . S
C2450 C2466 1.368 . S
H2451 C2459 0.950 . S
H2452 C2457 0.950 . S
H2453 C2458 0.949 . S
H2454 C2460 0.950 . S
H2455 C2461 0.950 . S
H2456 C2462 0.949 . S
C2457 H2452 0.950 . S
C2457 C2459 1.327 . S
C2457 C2463 1.429 . S
C2458 C2450 1.574 . S
C2458 H2453 0.949 . S
C2458 C2464 1.368 . S
C2459 C2443 1.349 . S
C2459 H2451 0.950 . S
C2459 C2457 1.327 . S
C2460 C2448 1.349 . S
C2460 H2454 0.950 . S
C2460 C2461 1.327 . S
C2461 H2455 0.950 . S
C2461 C2460 1.327 . S
C2461 C2465 1.429 . S
C2462 C2445 1.574 . S
C2462 H2456 0.949 . S
C2462 C2466 1.368 . S
C2463 C2444 1.429 . S
C2463 C2457 1.429 . S
C2463 C2464 1.523 . S
C2464 C2445 1.368 . S
C2464 C2458 1.368 . S
C2464 C2463 1.523 . S
C2465 C2449 1.429 . S
C2465 C2461 1.429 . S
C2465 C2466 1.523 . S
C2466 C2450 1.368 . S
C2466 C2462 1.368 . S
C2466 C2465 1.523 . S
H2467 C2442 0.950 . S
H2468 C2444 0.950 . S
H2469 C2445 0.949 . S
H2470 C2447 0.950 . S
H2471 C2449 0.950 . S
C2472 C2473 1.349 . S
C2472 C2474 1.327 . S
C2472 H2497 0.950 . S
C2473 C2472 1.349 . S
C2473 C2489 1.349 . S
C2474 C2472 1.327 . S
C2474 C2493 1.429 . S
C2474 H2498 0.950 . S
C2475 C2492 1.574 . S
C2475 C2494 1.368 . S
C2475 H2499 0.949 . S
H2476 C2480 0.949 . S
C2477 C2478 1.349 . S
C2477 C2479 1.327 . S
C2477 H2500 0.950 . S
C2478 C2477 1.349 . S
C2478 C2490 1.349 . S
C2479 C2477 1.327 . S
C2479 C2495 1.429 . S
C2479 H2501 0.950 . S
C2480 H2476 0.949 . S
C2480 C2488 1.574 . S
C2480 C2496 1.368 . S
H2481 C2489 0.950 . S
H2482 C2487 0.950 . S
H2483 C2488 0.949 . S
H2484 C2490 0.950 . S
H2485 C2491 0.950 . S
H2486 C2492 0.949 . S
C2487 H2482 0.950 . S
C2487 C2489 1.327 . S
C2487 C2493 1.429 . S
C2488 C2480 1.574 . S
C2488 H2483 0.949 . S
C2488 C2494 1.368 . S
C2489 C2473 1.349 . S
C2489 H2481 0.950 . S
C2489 C2487 1.327 . S
C2490 C2478 1.349 . S
C2490 H2484 0.950 . S
C2490 C2491 1.327 . S
C2491 H2485 0.950 . S
C2491 C2490 1.327 . S
C2491 C2495 1.429 . S
C2492 C2475 1.574 . S
C2492 H2486 0.949 . S
C2492 C2496 1.368 . S
C2493 C2474 1.429 . S
C2493 C2487 1.429 . S
C2493 C2494 1.523 . S
C2494 C2475 1.368 . S
C2494 C2488 1.368 . S
C2494 C2493 1.523 . S
C2495 C2479 1.429 . S
C2495 C2491 1.429 . S
C2495 C2496 1.523 . S
C2496 C2480 1.368 . S
C2496 C2492 1.368 . S
C2496 C2495 1.523 . S
H2497 C2472 0.950 . S
H2498 C2474 0.950 . S
H2499 C2475 0.949 . S
H2500 C2477 0.950 . S
H2501 C2479 0.950 . S
C2502 C2503 1.349 . S
C2502 C2504 1.327 . S
C2502 H2527 0.950 . S
C2503 C2502 1.349 . S
C2503 C2519 1.349 . S
C2504 C2502 1.327 . S
C2504 C2523 1.429 . S
C2504 H2528 0.950 . S
C2505 C2522 1.574 . S
C2505 C2524 1.368 . S
C2505 H2529 0.949 . S
H2506 C2510 0.949 . S
C2507 C2508 1.349 . S
C2507 C2509 1.327 . S
C2507 H2530 0.950 . S
C2508 C2507 1.349 . S
C2508 C2520 1.349 . S
C2509 C2507 1.327 . S
C2509 C2525 1.429 . S
C2509 H2531 0.950 . S
C2510 H2506 0.949 . S
C2510 C2518 1.574 . S
C2510 C2526 1.368 . S
H2511 C2519 0.950 . S
H2512 C2517 0.950 . S
H2513 C2518 0.949 . S
H2514 C2520 0.950 . S
H2515 C2521 0.950 . S
H2516 C2522 0.949 . S
C2517 H2512 0.950 . S
C2517 C2519 1.327 . S
C2517 C2523 1.429 . S
C2518 C2510 1.574 . S
C2518 H2513 0.949 . S
C2518 C2524 1.368 . S
C2519 C2503 1.349 . S
C2519 H2511 0.950 . S
C2519 C2517 1.327 . S
C2520 C2508 1.349 . S
C2520 H2514 0.950 . S
C2520 C2521 1.327 . S
C2521 H2515 0.950 . S
C2521 C2520 1.327 . S
C2521 C2525 1.429 . S
C2522 C2505 1.574 . S
C2522 H2516 0.949 . S
C2522 C2526 1.368 . S
C2523 C2504 1.429 . S
C2523 C2517 1.429 . S
C2523 C2524 1.523 . S
C2524 C2505 1.368 . S
C2524 C2518 1.368 . S
C2524 C2523 1.523 . S
C2525 C2509 1.429 . S
C2525 C2521 1.429 . S
C2525 C2526 1.523 . S
C2526 C2510 1.368 . S
C2526 C2522 1.368 . S
C2526 C2525 1.523 . S
H2527 C2502 0.950 . S
H2528 C2504 0.950 . S
H2529 C2505 0.949 . S
H2530 C2507 0.950 . S
H2531 C2509 0.950 . S
C2532 C2533 1.349 1_655 S
C2532 C2534 1.327 . S
C2532 H2557 0.950 . S
C2533 C2532 1.349 1_455 S
C2533 C2549 1.349 . S
C2534 C2532 1.327 . S
C2534 C2553 1.407 1_655 S
C2534 H2558 0.950 . S
C2535 C2552 1.574 . S
C2535 C2554 1.368 1_455 S
C2535 H2559 0.949 . S
H2536 C2540 0.949 . S
C2537 C2538 1.355 1_455 S
C2537 C2539 1.326 . S
C2537 H2560 0.945 . S
C2538 C2537 1.355 1_655 S
C2538 C2550 1.349 . S
C2539 C2537 1.326 . S
C2539 C2555 1.429 1_455 S
C2539 H2561 0.950 . S
C2540 H2536 0.949 . S
C2540 C2548 1.574 . S
C2540 C2556 1.368 . S
H2541 C2549 0.950 . S
H2542 C2547 0.950 . S
H2543 C2548 0.949 . S
H2544 C2550 0.950 . S
H2545 C2551 0.950 . S
H2546 C2552 0.949 . S
C2547 H2542 0.950 . S
C2547 C2549 1.327 . S
C2547 C2553 1.456 . S
C2548 C2540 1.574 . S
C2548 H2543 0.949 . S
C2548 C2554 1.368 . S
C2549 C2533 1.349 . S
C2549 H2541 0.950 . S
C2549 C2547 1.327 . S
C2550 C2538 1.349 . S
C2550 H2544 0.950 . S
C2550 C2551 1.327 . S
C2551 H2545 0.950 . S
C2551 C2550 1.327 . S
C2551 C2555 1.429 . S
C2552 C2535 1.574 . S
C2552 H2546 0.949 . S
C2552 C2556 1.368 1_455 S
C2553 C2534 1.407 1_455 S
C2553 C2547 1.456 . S
C2553 C2554 1.519 1_455 S
C2554 C2535 1.368 1_655 S
C2554 C2548 1.368 . S
C2554 C2553 1.519 1_655 S
C2555 C2539 1.429 1_655 S
C2555 C2551 1.429 . S
C2555 C2556 1.523 . S
C2556 C2540 1.368 . S
C2556 C2552 1.368 1_655 S
C2556 C2555 1.523 . S
H2557 C2532 0.950 . S
H2558 C2534 0.950 . S
H2559 C2535 0.949 . S
H2560 C2537 0.945 . S
H2561 C2539 0.950 . S
C2562 C2563 1.349 . S
C2562 C2564 1.327 . S
C2562 H2587 0.950 . S
C2563 C2562 1.349 . S
C2563 C2579 1.349 . S
C2564 C2562 1.327 . S
C2564 C2583 1.429 . S
C2564 H2588 0.950 . S
C2565 C2582 1.574 . S
C2565 C2584 1.368 . S
C2565 H2589 0.949 . S
H2566 C2570 0.949 . S
C2567 C2568 1.349 . S
C2567 C2569 1.327 . S
C2567 H2590 0.950 . S
C2568 C2567 1.349 . S
C2568 C2580 1.349 . S
C2569 C2567 1.327 . S
C2569 C2585 1.429 . S
C2569 H2591 0.950 . S
C2570 H2566 0.949 . S
C2570 C2578 1.574 . S
C2570 C2586 1.368 . S
H2571 C2579 0.950 . S
H2572 C2577 0.950 . S
H2573 C2578 0.949 . S
H2574 C2580 0.950 . S
H2575 C2581 0.950 . S
H2576 C2582 0.949 . S
C2577 H2572 0.950 . S
C2577 C2579 1.327 . S
C2577 C2583 1.429 . S
C2578 C2570 1.574 . S
C2578 H2573 0.949 . S
C2578 C2584 1.368 . S
C2579 C2563 1.349 . S
C2579 H2571 0.950 . S
C2579 C2577 1.327 . S
C2580 C2568 1.349 . S
C2580 H2574 0.950 . S
C2580 C2581 1.327 . S
C2581 H2575 0.950 . S
C2581 C2580 1.327 . S
C2581 C2585 1.429 . S
C2582 C2565 1.574 . S
C2582 H2576 0.949 . S
C2582 C2586 1.368 . S
C2583 C2564 1.429 . S
C2583 C2577 1.429 . S
C2583 C2584 1.523 . S
C2584 C2565 1.368 . S
C2584 C2578 1.368 . S
C2584 C2583 1.523 . S
C2585 C2569 1.429 . S
C2585 C2581 1.429 . S
C2585 C2586 1.523 . S
C2586 C2570 1.368 . S
C2586 C2582 1.368 . S
C2586 C2585 1.523 . S
H2587 C2562 0.950 . S
H2588 C2564 0.950 . S
H2589 C2565 0.949 . S
H2590 C2567 0.950 . S
H2591 C2569 0.950 . S
C2592 C2593 1.349 . S
C2592 C2594 1.327 . S
C2592 H2617 0.950 . S
C2593 C2592 1.349 . S
C2593 C2609 1.349 . S
C2594 C2592 1.327 . S
C2594 C2613 1.429 . S
C2594 H2618 0.950 . S
C2595 C2612 1.574 . S
C2595 C2614 1.368 . S
C2595 H2619 0.949 . S
H2596 C2600 0.949 . S
C2597 C2598 1.349 . S
C2597 C2599 1.327 . S
C2597 H2620 0.950 . S
C2598 C2597 1.349 . S
C2598 C2610 1.349 . S
C2599 C2597 1.327 . S
C2599 C2615 1.429 . S
C2599 H2621 0.950 . S
C2600 H2596 0.949 . S
C2600 C2608 1.574 . S
C2600 C2616 1.368 . S
H2601 C2609 0.950 . S
H2602 C2607 0.950 . S
H2603 C2608 0.949 . S
H2604 C2610 0.950 . S
H2605 C2611 0.950 . S
H2606 C2612 0.949 . S
C2607 H2602 0.950 . S
C2607 C2609 1.327 . S
C2607 C2613 1.429 . S
C2608 C2600 1.574 . S
C2608 H2603 0.949 . S
C2608 C2614 1.368 . S
C2609 C2593 1.349 . S
C2609 H2601 0.950 . S
C2609 C2607 1.327 . S
C2610 C2598 1.349 . S
C2610 H2604 0.950 . S
C2610 C2611 1.327 . S
C2611 H2605 0.950 . S
C2611 C2610 1.327 . S
C2611 C2615 1.429 . S
C2612 C2595 1.574 . S
C2612 H2606 0.949 . S
C2612 C2616 1.368 . S
C2613 C2594 1.429 . S
C2613 C2607 1.429 . S
C2613 C2614 1.523 . S
C2614 C2595 1.368 . S
C2614 C2608 1.368 . S
C2614 C2613 1.523 . S
C2615 C2599 1.429 . S
C2615 C2611 1.429 . S
C2615 C2616 1.523 . S
C2616 C2600 1.368 . S
C2616 C2612 1.368 . S
C2616 C2615 1.523 . S
H2617 C2592 0.950 . S
H2618 C2594 0.950 . S
H2619 C2595 0.949 . S
H2620 C2597 0.950 . S
H2621 C2599 0.950 . S
C2622 C2623 1.349 . S
C2622 C2624 1.327 . S
C2622 H2647 0.950 . S
C2623 C2622 1.349 . S
C2623 C2639 1.349 . S
C2624 C2622 1.327 . S
C2624 C2643 1.429 . S
C2624 H2648 0.950 . S
C2625 C2642 1.574 . S
C2625 C2644 1.368 . S
C2625 H2649 0.949 . S
H2626 C2630 0.949 . S
C2627 C2628 1.349 . S
C2627 C2629 1.327 . S
C2627 H2650 0.950 . S
C2628 C2627 1.349 . S
C2628 C2640 1.349 . S
C2629 C2627 1.327 . S
C2629 C2645 1.429 . S
C2629 H2651 0.950 . S
C2630 H2626 0.949 . S
C2630 C2638 1.574 . S
C2630 C2646 1.368 . S
H2631 C2639 0.950 . S
H2632 C2637 0.950 . S
H2633 C2638 0.949 . S
H2634 C2640 0.950 . S
H2635 C2641 0.950 . S
H2636 C2642 0.949 . S
C2637 H2632 0.950 . S
C2637 C2639 1.327 . S
C2637 C2643 1.429 . S
C2638 C2630 1.574 . S
C2638 H2633 0.949 . S
C2638 C2644 1.368 . S
C2639 C2623 1.349 . S
C2639 H2631 0.950 . S
C2639 C2637 1.327 . S
C2640 C2628 1.349 . S
C2640 H2634 0.950 . S
C2640 C2641 1.327 . S
C2641 H2635 0.950 . S
C2641 C2640 1.327 . S
C2641 C2645 1.429 . S
C2642 C2625 1.574 . S
C2642 H2636 0.949 . S
C2642 C2646 1.368 . S
C2643 C2624 1.429 . S
C2643 C2637 1.429 . S
C2643 C2644 1.523 . S
C2644 C2625 1.368 . S
C2644 C2638 1.368 . S
C2644 C2643 1.523 . S
C2645 C2629 1.429 . S
C2645 C2641 1.429 . S
C2645 C2646 1.523 . S
C2646 C2630 1.368 . S
C2646 C2642 1.368 . S
C2646 C2645 1.523 . S
H2647 C2622 0.950 . S
H2648 C2624 0.950 . S
H2649 C2625 0.949 . S
H2650 C2627 0.950 . S
H2651 C2629 0.950 . S
C2652 C2653 1.349 . S
C2652 C2654 1.327 . S
C2652 H2677 0.950 . S
C2653 C2652 1.349 . S
C2653 C2669 1.349 . S
C2654 C2652 1.327 . S
C2654 C2673 1.429 . S
C2654 H2678 0.950 . S
C2655 C2672 1.574 . S
C2655 C2674 1.368 . S
C2655 H2679 0.949 . S
H2656 C2660 0.949 . S
C2657 C2658 1.349 . S
C2657 C2659 1.327 . S
C2657 H2680 0.950 . S
C2658 C2657 1.349 . S
C2658 C2670 1.349 . S
C2659 C2657 1.327 . S
C2659 C2675 1.429 . S
C2659 H2681 0.950 . S
C2660 H2656 0.949 . S
C2660 C2668 1.574 . S
C2660 C2676 1.368 . S
H2661 C2669 0.950 . S
H2662 C2667 0.950 . S
H2663 C2668 0.949 . S
H2664 C2670 0.950 . S
H2665 C2671 0.950 . S
H2666 C2672 0.949 . S
C2667 H2662 0.950 . S
C2667 C2669 1.327 . S
C2667 C2673 1.429 . S
C2668 C2660 1.574 . S
C2668 H2663 0.949 . S
C2668 C2674 1.368 . S
C2669 C2653 1.349 . S
C2669 H2661 0.950 . S
C2669 C2667 1.327 . S
C2670 C2658 1.349 . S
C2670 H2664 0.950 . S
C2670 C2671 1.327 . S
C2671 H2665 0.950 . S
C2671 C2670 1.327 . S
C2671 C2675 1.429 . S
C2672 C2655 1.574 . S
C2672 H2666 0.949 . S
C2672 C2676 1.368 . S
C2673 C2654 1.429 . S
C2673 C2667 1.429 . S
C2673 C2674 1.523 . S
C2674 C2655 1.368 . S
C2674 C2668 1.368 . S
C2674 C2673 1.523 . S
C2675 C2659 1.429 . S
C2675 C2671 1.429 . S
C2675 C2676 1.523 . S
C2676 C2660 1.368 . S
C2676 C2672 1.368 . S
C2676 C2675 1.523 . S
H2677 C2652 0.950 . S
H2678 C2654 0.950 . S
H2679 C2655 0.949 . S
H2680 C2657 0.950 . S
H2681 C2659 0.950 . S
C2682 C2683 1.349 . S
C2682 C2684 1.327 . S
C2682 H2707 0.950 . S
C2683 C2682 1.349 . S
C2683 C2699 1.349 . S
C2684 C2682 1.327 . S
C2684 C2703 1.429 . S
C2684 H2708 0.950 . S
C2685 C2702 1.574 . S
C2685 C2704 1.368 . S
C2685 H2709 0.949 . S
H2686 C2690 0.949 . S
C2687 C2688 1.349 . S
C2687 C2689 1.327 . S
C2687 H2710 0.950 . S
C2688 C2687 1.349 . S
C2688 C2700 1.349 . S
C2689 C2687 1.327 . S
C2689 C2705 1.429 . S
C2689 H2711 0.950 . S
C2690 H2686 0.949 . S
C2690 C2698 1.574 . S
C2690 C2706 1.368 . S
H2691 C2699 0.950 . S
H2692 C2697 0.950 . S
H2693 C2698 0.949 . S
H2694 C2700 0.950 . S
H2695 C2701 0.950 . S
H2696 C2702 0.949 . S
C2697 H2692 0.950 . S
C2697 C2699 1.327 . S
C2697 C2703 1.429 . S
C2698 C2690 1.574 . S
C2698 H2693 0.949 . S
C2698 C2704 1.368 . S
C2699 C2683 1.349 . S
C2699 H2691 0.950 . S
C2699 C2697 1.327 . S
C2700 C2688 1.349 . S
C2700 H2694 0.950 . S
C2700 C2701 1.327 . S
C2701 H2695 0.950 . S
C2701 C2700 1.327 . S
C2701 C2705 1.429 . S
C2702 C2685 1.574 . S
C2702 H2696 0.949 . S
C2702 C2706 1.368 . S
C2703 C2684 1.429 . S
C2703 C2697 1.429 . S
C2703 C2704 1.523 . S
C2704 C2685 1.368 . S
C2704 C2698 1.368 . S
C2704 C2703 1.523 . S
C2705 C2689 1.429 . S
C2705 C2701 1.429 . S
C2705 C2706 1.523 . S
C2706 C2690 1.368 . S
C2706 C2702 1.368 . S
C2706 C2705 1.523 . S
H2707 C2682 0.950 . S
H2708 C2684 0.950 . S
H2709 C2685 0.949 . S
H2710 C2687 0.950 . S
H2711 C2689 0.950 . S
C2712 C2713 1.349 . S
C2712 C2714 1.327 . S
C2712 H2737 0.950 . S
C2713 C2712 1.349 . S
C2713 C2729 1.349 . S
C2714 C2712 1.327 . S
C2714 C2733 1.429 . S
C2714 H2738 0.950 . S
C2715 C2732 1.574 . S
C2715 C2734 1.368 . S
C2715 H2739 0.949 . S
H2716 C2720 0.949 . S
C2717 C2718 1.349 . S
C2717 C2719 1.327 . S
C2717 H2740 0.950 . S
C2718 C2717 1.349 . S
C2718 C2730 1.349 . S
C2719 C2717 1.327 . S
C2719 C2735 1.429 . S
C2719 H2741 0.950 . S
C2720 H2716 0.949 . S
C2720 C2728 1.574 . S
C2720 C2736 1.368 . S
H2721 C2729 0.950 . S
H2722 C2727 0.950 . S
H2723 C2728 0.949 . S
H2724 C2730 0.950 . S
H2725 C2731 0.950 . S
H2726 C2732 0.949 . S
C2727 H2722 0.950 . S
C2727 C2729 1.327 . S
C2727 C2733 1.429 . S
C2728 C2720 1.574 . S
C2728 H2723 0.949 . S
C2728 C2734 1.368 . S
C2729 C2713 1.349 . S
C2729 H2721 0.950 . S
C2729 C2727 1.327 . S
C2730 C2718 1.349 . S
C2730 H2724 0.950 . S
C2730 C2731 1.327 . S
C2731 H2725 0.950 . S
C2731 C2730 1.327 . S
C2731 C2735 1.429 . S
C2732 C2715 1.574 . S
C2732 H2726 0.949 . S
C2732 C2736 1.368 . S
C2733 C2714 1.429 . S
C2733 C2727 1.429 . S
C2733 C2734 1.523 . S
C2734 C2715 1.368 . S
C2734 C2728 1.368 . S
C2734 C2733 1.523 . S
C2735 C2719 1.429 . S
C2735 C2731 1.429 . S
C2735 C2736 1.523 . S
C2736 C2720 1.368 . S
C2736 C2732 1.368 . S
C2736 C2735 1.523 . S
H2737 C2712 0.950 . S
H2738 C2714 0.950 . S
H2739 C2715 0.949 . S
H2740 C2717 0.950 . S
H2741 C2719 0.950 . S
C2742 C2743 1.349 . S
C2742 C2744 1.327 . S
C2742 H2767 0.950 . S
C2743 C2742 1.349 . S
C2743 C2759 1.349 . S
C2744 C2742 1.327 . S
C2744 C2763 1.429 . S
C2744 H2768 0.950 . S
C2745 C2762 1.574 . S
C2745 C2764 1.368 . S
C2745 H2769 0.949 . S
H2746 C2750 0.949 . S
C2747 C2748 1.349 . S
C2747 C2749 1.327 . S
C2747 H2770 0.950 . S
C2748 C2747 1.349 . S
C2748 C2760 1.349 . S
C2749 C2747 1.327 . S
C2749 C2765 1.429 . S
C2749 H2771 0.950 . S
C2750 H2746 0.949 . S
C2750 C2758 1.574 . S
C2750 C2766 1.368 . S
H2751 C2759 0.950 . S
H2752 C2757 0.950 . S
H2753 C2758 0.949 . S
H2754 C2760 0.950 . S
H2755 C2761 0.950 . S
H2756 C2762 0.949 . S
C2757 H2752 0.950 . S
C2757 C2759 1.327 . S
C2757 C2763 1.429 . S
C2758 C2750 1.574 . S
C2758 H2753 0.949 . S
C2758 C2764 1.368 . S
C2759 C2743 1.349 . S
C2759 H2751 0.950 . S
C2759 C2757 1.327 . S
C2760 C2748 1.349 . S
C2760 H2754 0.950 . S
C2760 C2761 1.327 . S
C2761 H2755 0.950 . S
C2761 C2760 1.327 . S
C2761 C2765 1.429 . S
C2762 C2745 1.574 . S
C2762 H2756 0.949 . S
C2762 C2766 1.368 . S
C2763 C2744 1.429 . S
C2763 C2757 1.429 . S
C2763 C2764 1.523 . S
C2764 C2745 1.368 . S
C2764 C2758 1.368 . S
C2764 C2763 1.523 . S
C2765 C2749 1.429 . S
C2765 C2761 1.429 . S
C2765 C2766 1.523 . S
C2766 C2750 1.368 . S
C2766 C2762 1.368 . S
C2766 C2765 1.523 . S
H2767 C2742 0.950 . S
H2768 C2744 0.950 . S
H2769 C2745 0.949 . S
H2770 C2747 0.950 . S
H2771 C2749 0.950 . S
C2772 C2773 1.349 . S
C2772 C2774 1.327 . S
C2772 H2797 0.950 . S
C2773 C2772 1.349 . S
C2773 C2789 1.349 . S
C2774 C2772 1.327 . S
C2774 C2793 1.429 . S
C2774 H2798 0.950 . S
C2775 C2792 1.574 . S
C2775 C2794 1.368 . S
C2775 H2799 0.949 . S
H2776 C2780 0.949 . S
C2777 C2778 1.349 . S
C2777 C2779 1.327 . S
C2777 H2800 0.950 . S
C2778 C2777 1.349 . S
C2778 C2790 1.349 . S
C2779 C2777 1.327 . S
C2779 C2795 1.429 . S
C2779 H2801 0.950 . S
C2780 H2776 0.949 . S
C2780 C2788 1.574 . S
C2780 C2796 1.368 . S
H2781 C2789 0.950 . S
H2782 C2787 0.950 . S
H2783 C2788 0.949 . S
H2784 C2790 0.950 . S
H2785 C2791 0.950 . S
H2786 C2792 0.949 . S
C2787 H2782 0.950 . S
C2787 C2789 1.327 . S
C2787 C2793 1.429 . S
C2788 C2780 1.574 . S
C2788 H2783 0.949 . S
C2788 C2794 1.368 . S
C2789 C2773 1.349 . S
C2789 H2781 0.950 . S
C2789 C2787 1.327 . S
C2790 C2778 1.349 . S
C2790 H2784 0.950 . S
C2790 C2791 1.327 . S
C2791 H2785 0.950 . S
C2791 C2790 1.327 . S
C2791 C2795 1.429 . S
C2792 C2775 1.574 . S
C2792 H2786 0.949 . S
C2792 C2796 1.368 . S
C2793 C2774 1.429 . S
C2793 C2787 1.429 . S
C2793 C2794 1.523 . S
C2794 C2775 1.368 . S
C2794 C2788 1.368 . S
C2794 C2793 1.523 . S
C2795 C2779 1.429 . S
C2795 C2791 1.429 . S
C2795 C2796 1.523 . S
C2796 C2780 1.368 . S
C2796 C2792 1.368 . S
C2796 C2795 1.523 . S
H2797 C2772 0.950 . S
H2798 C2774 0.950 . S
H2799 C2775 0.949 . S
H2800 C2777 0.950 . S
H2801 C2779 0.950 . S
C2802 C2803 1.349 . S
C2802 C2804 1.327 . S
C2802 H2827 0.950 . S
C2803 C2802 1.349 . S
C2803 C2819 1.349 . S
C2804 C2802 1.327 . S
C2804 C2823 1.429 . S
C2804 H2828 0.950 . S
C2805 C2822 1.574 . S
C2805 C2824 1.368 . S
C2805 H2829 0.949 . S
H2806 C2810 0.949 . S
C2807 C2808 1.349 . S
C2807 C2809 1.327 . S
C2807 H2830 0.950 . S
C2808 C2807 1.349 . S
C2808 C2820 1.349 . S
C2809 C2807 1.327 . S
C2809 C2825 1.429 . S
C2809 H2831 0.950 . S
C2810 H2806 0.949 . S
C2810 C2818 1.574 . S
C2810 C2826 1.368 . S
H2811 C2819 0.950 . S
H2812 C2817 0.950 . S
H2813 C2818 0.949 . S
H2814 C2820 0.950 . S
H2815 C2821 0.950 . S
H2816 C2822 0.949 . S
C2817 H2812 0.950 . S
C2817 C2819 1.327 . S
C2817 C2823 1.429 . S
C2818 C2810 1.574 . S
C2818 H2813 0.949 . S
C2818 C2824 1.368 . S
C2819 C2803 1.349 . S
C2819 H2811 0.950 . S
C2819 C2817 1.327 . S
C2820 C2808 1.349 . S
C2820 H2814 0.950 . S
C2820 C2821 1.327 . S
C2821 H2815 0.950 . S
C2821 C2820 1.327 . S
C2821 C2825 1.429 . S
C2822 C2805 1.574 . S
C2822 H2816 0.949 . S
C2822 C2826 1.368 . S
C2823 C2804 1.429 . S
C2823 C2817 1.429 . S
C2823 C2824 1.523 . S
C2824 C2805 1.368 . S
C2824 C2818 1.368 . S
C2824 C2823 1.523 . S
C2825 C2809 1.429 . S
C2825 C2821 1.429 . S
C2825 C2826 1.523 . S
C2826 C2810 1.368 . S
C2826 C2822 1.368 . S
C2826 C2825 1.523 . S
H2827 C2802 0.950 . S
H2828 C2804 0.950 . S
H2829 C2805 0.949 . S
H2830 C2807 0.950 . S
H2831 C2809 0.950 . S
C2832 C2833 1.349 . S
C2832 C2834 1.327 . S
C2832 H2857 0.950 . S
C2833 C2832 1.349 . S
C2833 C2849 1.349 . S
C2834 C2832 1.327 . S
C2834 C2853 1.429 . S
C2834 H2858 0.950 . S
C2835 C2852 1.574 . S
C2835 C2854 1.368 . S
C2835 H2859 0.949 . S
H2836 C2840 0.949 . S
C2837 C2838 1.349 . S
C2837 C2839 1.327 . S
C2837 H2860 0.950 . S
C2838 C2837 1.349 . S
C2838 C2850 1.349 . S
C2839 C2837 1.327 . S
C2839 C2855 1.429 . S
C2839 H2861 0.950 . S
C2840 H2836 0.949 . S
C2840 C2848 1.574 . S
C2840 C2856 1.368 . S
H2841 C2849 0.950 . S
H2842 C2847 0.950 . S
H2843 C2848 0.949 . S
H2844 C2850 0.950 . S
H2845 C2851 0.950 . S
H2846 C2852 0.949 . S
C2847 H2842 0.950 . S
C2847 C2849 1.327 . S
C2847 C2853 1.429 . S
C2848 C2840 1.574 . S
C2848 H2843 0.949 . S
C2848 C2854 1.368 . S
C2849 C2833 1.349 . S
C2849 H2841 0.950 . S
C2849 C2847 1.327 . S
C2850 C2838 1.349 . S
C2850 H2844 0.950 . S
C2850 C2851 1.327 . S
C2851 H2845 0.950 . S
C2851 C2850 1.327 . S
C2851 C2855 1.429 . S
C2852 C2835 1.574 . S
C2852 H2846 0.949 . S
C2852 C2856 1.368 . S
C2853 C2834 1.429 . S
C2853 C2847 1.429 . S
C2853 C2854 1.523 . S
C2854 C2835 1.368 . S
C2854 C2848 1.368 . S
C2854 C2853 1.523 . S
C2855 C2839 1.429 . S
C2855 C2851 1.429 . S
C2855 C2856 1.523 . S
C2856 C2840 1.368 . S
C2856 C2852 1.368 . S
C2856 C2855 1.523 . S
H2857 C2832 0.950 . S
H2858 C2834 0.950 . S
H2859 C2835 0.949 . S
H2860 C2837 0.950 . S
H2861 C2839 0.950 . S
C2862 C2863 1.349 . S
C2862 C2864 1.327 . S
C2862 H2887 0.950 . S
C2863 C2862 1.349 . S
C2863 C2879 1.349 . S
C2864 C2862 1.327 . S
C2864 C2883 1.429 . S
C2864 H2888 0.950 . S
C2865 C2882 1.574 . S
C2865 C2884 1.368 . S
C2865 H2889 0.949 . S
H2866 C2870 0.949 . S
C2867 C2868 1.349 . S
C2867 C2869 1.327 . S
C2867 H2890 0.950 . S
C2868 C2867 1.349 . S
C2868 C2880 1.349 . S
C2869 C2867 1.327 . S
C2869 C2885 1.429 . S
C2869 H2891 0.950 . S
C2870 H2866 0.949 . S
C2870 C2878 1.574 . S
C2870 C2886 1.368 . S
H2871 C2879 0.950 . S
H2872 C2877 0.950 . S
H2873 C2878 0.949 . S
H2874 C2880 0.950 . S
H2875 C2881 0.950 . S
H2876 C2882 0.949 . S
C2877 H2872 0.950 . S
C2877 C2879 1.327 . S
C2877 C2883 1.429 . S
C2878 C2870 1.574 . S
C2878 H2873 0.949 . S
C2878 C2884 1.368 . S
C2879 C2863 1.349 . S
C2879 H2871 0.950 . S
C2879 C2877 1.327 . S
C2880 C2868 1.349 . S
C2880 H2874 0.950 . S
C2880 C2881 1.327 . S
C2881 H2875 0.950 . S
C2881 C2880 1.327 . S
C2881 C2885 1.429 . S
C2882 C2865 1.574 . S
C2882 H2876 0.949 . S
C2882 C2886 1.368 . S
C2883 C2864 1.429 . S
C2883 C2877 1.429 . S
C2883 C2884 1.523 . S
C2884 C2865 1.368 . S
C2884 C2878 1.368 . S
C2884 C2883 1.523 . S
C2885 C2869 1.429 . S
C2885 C2881 1.429 . S
C2885 C2886 1.523 . S
C2886 C2870 1.368 . S
C2886 C2882 1.368 . S
C2886 C2885 1.523 . S
H2887 C2862 0.950 . S
H2888 C2864 0.950 . S
H2889 C2865 0.949 . S
H2890 C2867 0.950 . S
H2891 C2869 0.950 . S
C2892 C2893 1.349 . S
C2892 C2894 1.327 . S
C2892 H2917 0.950 . S
C2893 C2892 1.349 . S
C2893 C2909 1.349 . S
C2894 C2892 1.327 . S
C2894 C2913 1.429 . S
C2894 H2918 0.950 . S
C2895 C2912 1.574 . S
C2895 C2914 1.368 . S
C2895 H2919 0.949 . S
H2896 C2900 0.949 . S
C2897 C2898 1.349 . S
C2897 C2899 1.327 . S
C2897 H2920 0.950 . S
C2898 C2897 1.349 . S
C2898 C2910 1.349 . S
C2899 C2897 1.327 . S
C2899 C2915 1.429 . S
C2899 H2921 0.950 . S
C2900 H2896 0.949 . S
C2900 C2908 1.574 . S
C2900 C2916 1.368 . S
H2901 C2909 0.950 . S
H2902 C2907 0.950 . S
H2903 C2908 0.949 . S
H2904 C2910 0.950 . S
H2905 C2911 0.950 . S
H2906 C2912 0.949 . S
C2907 H2902 0.950 . S
C2907 C2909 1.327 . S
C2907 C2913 1.429 . S
C2908 C2900 1.574 . S
C2908 H2903 0.949 . S
C2908 C2914 1.368 . S
C2909 C2893 1.349 . S
C2909 H2901 0.950 . S
C2909 C2907 1.327 . S
C2910 C2898 1.349 . S
C2910 H2904 0.950 . S
C2910 C2911 1.327 . S
C2911 H2905 0.950 . S
C2911 C2910 1.327 . S
C2911 C2915 1.429 . S
C2912 C2895 1.574 . S
C2912 H2906 0.949 . S
C2912 C2916 1.368 . S
C2913 C2894 1.429 . S
C2913 C2907 1.429 . S
C2913 C2914 1.523 . S
C2914 C2895 1.368 . S
C2914 C2908 1.368 . S
C2914 C2913 1.523 . S
C2915 C2899 1.429 . S
C2915 C2911 1.429 . S
C2915 C2916 1.523 . S
C2916 C2900 1.368 . S
C2916 C2912 1.368 . S
C2916 C2915 1.523 . S
H2917 C2892 0.950 . S
H2918 C2894 0.950 . S
H2919 C2895 0.949 . S
H2920 C2897 0.950 . S
H2921 C2899 0.950 . S
C2922 C2923 1.349 1_556 S
C2922 C2924 1.327 . S
C2922 H2947 0.950 . S
C2923 C2922 1.349 1_554 S
C2923 C2939 1.349 . S
C2924 C2922 1.327 . S
C2924 C2943 1.399 1_556 S
C2924 H2948 0.950 . S
C2925 C2942 1.574 . S
C2925 C2944 1.368 1_554 S
C2925 H2949 0.949 . S
H2926 C2930 0.949 . S
C2927 C2928 1.341 . S
C2927 C2929 1.329 1_556 S
C2927 H2950 0.957 1_556 S
C2928 C2927 1.341 . S
C2928 C2940 1.349 . S
C2929 C2927 1.329 1_554 S
C2929 C2945 1.429 1_554 S
C2929 H2951 0.950 . S
C2930 H2926 0.949 . S
C2930 C2938 1.574 . S
C2930 C2946 1.368 . S
H2931 C2939 0.950 . S
H2932 C2937 0.950 . S
H2933 C2938 0.949 . S
H2934 C2940 0.950 . S
H2935 C2941 0.950 . S
H2936 C2942 0.949 . S
C2937 H2932 0.950 . S
C2937 C2939 1.327 . S
C2937 C2943 1.465 . S
C2938 C2930 1.574 . S
C2938 H2933 0.949 . S
C2938 C2944 1.368 . S
C2939 C2923 1.349 . S
C2939 H2931 0.950 . S
C2939 C2937 1.327 . S
C2940 C2928 1.349 . S
C2940 H2934 0.950 . S
C2940 C2941 1.327 . S
C2941 H2935 0.950 . S
C2941 C2940 1.327 . S
C2941 C2945 1.429 . S
C2942 C2925 1.574 . S
C2942 H2936 0.949 . S
C2942 C2946 1.368 1_554 S
C2943 C2924 1.399 1_554 S
C2943 C2937 1.465 . S
C2943 C2944 1.517 1_554 S
C2944 C2925 1.368 1_556 S
C2944 C2938 1.368 . S
C2944 C2943 1.517 1_556 S
C2945 C2929 1.429 1_556 S
C2945 C2941 1.429 . S
C2945 C2946 1.523 . S
C2946 C2930 1.368 . S
C2946 C2942 1.368 1_556 S
C2946 C2945 1.523 . S
H2947 C2922 0.950 . S
H2948 C2924 0.950 . S
H2949 C2925 0.949 . S
H2950 C2927 0.957 1_554 S
H2951 C2929 0.950 . S
C2952 C2953 1.349 . S
C2952 C2954 1.327 . S
C2952 H2977 0.950 . S
C2953 C2952 1.349 . S
C2953 C2969 1.349 . S
C2954 C2952 1.327 . S
C2954 C2973 1.429 . S
C2954 H2978 0.950 . S
C2955 C2972 1.574 . S
C2955 C2974 1.368 . S
C2955 H2979 0.949 . S
H2956 C2960 0.949 . S
C2957 C2958 1.349 . S
C2957 C2959 1.327 . S
C2957 H2980 0.950 . S
C2958 C2957 1.349 . S
C2958 C2970 1.349 . S
C2959 C2957 1.327 . S
C2959 C2975 1.429 . S
C2959 H2981 0.950 . S
C2960 H2956 0.949 . S
C2960 C2968 1.574 . S
C2960 C2976 1.368 . S
H2961 C2969 0.950 . S
H2962 C2967 0.950 . S
H2963 C2968 0.949 . S
H2964 C2970 0.950 . S
H2965 C2971 0.950 . S
H2966 C2972 0.949 . S
C2967 H2962 0.950 . S
C2967 C2969 1.327 . S
C2967 C2973 1.429 . S
C2968 C2960 1.574 . S
C2968 H2963 0.949 . S
C2968 C2974 1.368 . S
C2969 C2953 1.349 . S
C2969 H2961 0.950 . S
C2969 C2967 1.327 . S
C2970 C2958 1.349 . S
C2970 H2964 0.950 . S
C2970 C2971 1.327 . S
C2971 H2965 0.950 . S
C2971 C2970 1.327 . S
C2971 C2975 1.429 . S
C2972 C2955 1.574 . S
C2972 H2966 0.949 . S
C2972 C2976 1.368 . S
C2973 C2954 1.429 . S
C2973 C2967 1.429 . S
C2973 C2974 1.523 . S
C2974 C2955 1.368 . S
C2974 C2968 1.368 . S
C2974 C2973 1.523 . S
C2975 C2959 1.429 . S
C2975 C2971 1.429 . S
C2975 C2976 1.523 . S
C2976 C2960 1.368 . S
C2976 C2972 1.368 . S
C2976 C2975 1.523 . S
H2977 C2952 0.950 . S
H2978 C2954 0.950 . S
H2979 C2955 0.949 . S
H2980 C2957 0.950 . S
H2981 C2959 0.950 . S
C2982 C2983 1.349 . S
C2982 C2984 1.327 . S
C2982 H3007 0.950 . S
C2983 C2982 1.349 . S
C2983 C2999 1.349 . S
C2984 C2982 1.327 . S
C2984 C3003 1.429 . S
C2984 H3008 0.955 . S
C2985 C3002 1.574 . S
C2985 C3004 1.368 . S
C2985 H3009 0.949 . S
H2986 C2990 0.949 . S
C2987 C2988 1.349 . S
C2987 C2989 1.332 . S
C2987 H3010 0.963 . S
C2988 C2987 1.349 . S
C2988 C3000 1.349 . S
C2989 C2987 1.332 . S
C2989 C3005 1.433 . S
C2989 H3011 0.941 1_556 S
C2990 H2986 0.949 . S
C2990 C2998 1.588 . S
C2990 C3006 1.376 . S
H2991 C2999 0.950 . S
H2992 C2997 0.950 . S
H2993 C2998 0.966 . S
H2994 C3000 0.950 . S
H2995 C3001 0.950 . S
H2996 C3002 0.949 . S
C2997 H2992 0.950 . S
C2997 C2999 1.327 . S
C2997 C3003 1.429 . S
C2998 C2990 1.588 . S
C2998 H2993 0.966 . S
C2998 C3004 1.344 1_556 S
C2999 C2983 1.349 . S
C2999 H2991 0.950 . S
C2999 C2997 1.327 . S
C3000 C2988 1.349 . S
C3000 H2994 0.950 . S
C3000 C3001 1.327 . S
C3001 H2995 0.950 . S
C3001 C3000 1.327 . S
C3001 C3005 1.429 . S
C3002 C2985 1.574 . S
C3002 H2996 0.949 . S
C3002 C3006 1.358 1_554 S
C3003 C2984 1.429 . S
C3003 C2997 1.429 . S
C3003 C3004 1.523 . S
C3004 C2985 1.368 . S
C3004 C2998 1.344 1_554 S
C3004 C3003 1.523 . S
C3005 C2989 1.433 . S
C3005 C3001 1.429 . S
C3005 C3006 1.528 . S
C3006 C2990 1.376 . S
C3006 C3002 1.358 1_556 S
C3006 C3005 1.528 . S
H3007 C2982 0.950 . S
H3008 C2984 0.955 . S
H3009 C2985 0.949 . S
H3010 C2987 0.963 . S
H3011 C2989 0.941 1_554 S
C3012 C3013 1.349 . S
C3012 C3014 1.327 . S
C3012 H3037 0.950 . S
C3013 C3012 1.349 . S
C3013 C3029 1.349 . S
C3014 C3012 1.327 . S
C3014 C3033 1.429 . S
C3014 H3038 0.950 . S
C3015 C3032 1.574 . S
C3015 C3034 1.368 . S
C3015 H3039 0.949 . S
H3016 C3020 0.949 . S
C3017 C3018 1.349 . S
C3017 C3019 1.327 . S
C3017 H3040 0.950 . S
C3018 C3017 1.349 . S
C3018 C3030 1.349 . S
C3019 C3017 1.327 . S
C3019 C3035 1.429 . S
C3019 H3041 0.950 . S
C3020 H3016 0.949 . S
C3020 C3028 1.574 . S
C3020 C3036 1.368 . S
H3021 C3029 0.950 . S
H3022 C3027 0.950 . S
H3023 C3028 0.949 . S
H3024 C3030 0.950 . S
H3025 C3031 0.950 . S
H3026 C3032 0.949 . S
C3027 H3022 0.950 . S
C3027 C3029 1.327 . S
C3027 C3033 1.429 . S
C3028 C3020 1.574 . S
C3028 H3023 0.949 . S
C3028 C3034 1.368 . S
C3029 C3013 1.349 . S
C3029 H3021 0.950 . S
C3029 C3027 1.327 . S
C3030 C3018 1.349 . S
C3030 H3024 0.950 . S
C3030 C3031 1.327 . S
C3031 H3025 0.950 . S
C3031 C3030 1.327 . S
C3031 C3035 1.429 . S
C3032 C3015 1.574 . S
C3032 H3026 0.949 . S
C3032 C3036 1.368 . S
C3033 C3014 1.429 . S
C3033 C3027 1.429 . S
C3033 C3034 1.523 . S
C3034 C3015 1.368 . S
C3034 C3028 1.368 . S
C3034 C3033 1.523 . S
C3035 C3019 1.429 . S
C3035 C3031 1.429 . S
C3035 C3036 1.523 . S
C3036 C3020 1.368 . S
C3036 C3032 1.368 . S
C3036 C3035 1.523 . S
H3037 C3012 0.950 . S
H3038 C3014 0.950 . S
H3039 C3015 0.949 . S
H3040 C3017 0.950 . S
H3041 C3019 0.950 . S
C3042 C3043 1.349 . S
C3042 C3044 1.327 . S
C3042 H3067 0.950 . S
C3043 C3042 1.349 . S
C3043 C3059 1.349 . S
C3044 C3042 1.327 . S
C3044 C3063 1.429 . S
C3044 H3068 0.950 . S
C3045 C3062 1.574 . S
C3045 C3064 1.368 . S
C3045 H3069 0.949 . S
H3046 C3050 0.949 . S
C3047 C3048 1.349 . S
C3047 C3049 1.327 . S
C3047 H3070 0.950 . S
C3048 C3047 1.349 . S
C3048 C3060 1.349 . S
C3049 C3047 1.327 . S
C3049 C3065 1.429 . S
C3049 H3071 0.950 . S
C3050 H3046 0.949 . S
C3050 C3058 1.574 . S
C3050 C3066 1.368 . S
H3051 C3059 0.950 . S
H3052 C3057 0.950 . S
H3053 C3058 0.949 . S
H3054 C3060 0.950 . S
H3055 C3061 0.950 . S
H3056 C3062 0.949 . S
C3057 H3052 0.950 . S
C3057 C3059 1.327 . S
C3057 C3063 1.429 . S
C3058 C3050 1.574 . S
C3058 H3053 0.949 . S
C3058 C3064 1.368 . S
C3059 C3043 1.349 . S
C3059 H3051 0.950 . S
C3059 C3057 1.327 . S
C3060 C3048 1.349 . S
C3060 H3054 0.950 . S
C3060 C3061 1.327 . S
C3061 H3055 0.950 . S
C3061 C3060 1.327 . S
C3061 C3065 1.429 . S
C3062 C3045 1.574 . S
C3062 H3056 0.949 . S
C3062 C3066 1.368 . S
C3063 C3044 1.429 . S
C3063 C3057 1.429 . S
C3063 C3064 1.523 . S
C3064 C3045 1.368 . S
C3064 C3058 1.368 . S
C3064 C3063 1.523 . S
C3065 C3049 1.429 . S
C3065 C3061 1.429 . S
C3065 C3066 1.523 . S
C3066 C3050 1.368 . S
C3066 C3062 1.368 . S
C3066 C3065 1.523 . S
H3067 C3042 0.950 . S
H3068 C3044 0.950 . S
H3069 C3045 0.949 . S
H3070 C3047 0.950 . S
H3071 C3049 0.950 . S
C3072 C3073 1.349 . S
C3072 C3074 1.327 . S
C3072 H3097 0.950 . S
C3073 C3072 1.349 . S
C3073 C3089 1.349 . S
C3074 C3072 1.327 . S
C3074 C3093 1.429 . S
C3074 H3098 0.950 . S
C3075 C3092 1.574 . S
C3075 C3094 1.368 . S
C3075 H3099 0.949 . S
H3076 C3080 0.949 . S
C3077 C3078 1.349 . S
C3077 C3079 1.327 . S
C3077 H3100 0.950 . S
C3078 C3077 1.349 . S
C3078 C3090 1.349 . S
C3079 C3077 1.327 . S
C3079 C3095 1.429 . S
C3079 H3101 0.950 . S
C3080 H3076 0.949 . S
C3080 C3088 1.574 . S
C3080 C3096 1.368 . S
H3081 C3089 0.950 . S
H3082 C3087 0.950 . S
H3083 C3088 0.949 . S
H3084 C3090 0.950 . S
H3085 C3091 0.950 . S
H3086 C3092 0.949 . S
C3087 H3082 0.950 . S
C3087 C3089 1.327 . S
C3087 C3093 1.429 . S
C3088 C3080 1.574 . S
C3088 H3083 0.949 . S
C3088 C3094 1.368 . S
C3089 C3073 1.349 . S
C3089 H3081 0.950 . S
C3089 C3087 1.327 . S
C3090 C3078 1.349 . S
C3090 H3084 0.950 . S
C3090 C3091 1.327 . S
C3091 H3085 0.950 . S
C3091 C3090 1.327 . S
C3091 C3095 1.429 . S
C3092 C3075 1.574 . S
C3092 H3086 0.949 . S
C3092 C3096 1.368 . S
C3093 C3074 1.429 . S
C3093 C3087 1.429 . S
C3093 C3094 1.523 . S
C3094 C3075 1.368 . S
C3094 C3088 1.368 . S
C3094 C3093 1.523 . S
C3095 C3079 1.429 . S
C3095 C3091 1.429 . S
C3095 C3096 1.523 . S
C3096 C3080 1.368 . S
C3096 C3092 1.368 . S
C3096 C3095 1.523 . S
H3097 C3072 0.950 . S
H3098 C3074 0.950 . S
H3099 C3075 0.949 . S
H3100 C3077 0.950 . S
H3101 C3079 0.950 . S
C3102 C3103 1.349 . S
C3102 C3104 1.327 . S
C3102 H3127 0.950 . S
C3103 C3102 1.349 . S
C3103 C3119 1.349 . S
C3104 C3102 1.327 . S
C3104 C3123 1.429 . S
C3104 H3128 0.950 . S
C3105 C3122 1.574 . S
C3105 C3124 1.368 . S
C3105 H3129 0.949 . S
H3106 C3110 0.949 . S
C3107 C3108 1.349 . S
C3107 C3109 1.327 . S
C3107 H3130 0.950 . S
C3108 C3107 1.349 . S
C3108 C3120 1.349 . S
C3109 C3107 1.327 . S
C3109 C3125 1.429 . S
C3109 H3131 0.950 . S
C3110 H3106 0.949 . S
C3110 C3118 1.574 . S
C3110 C3126 1.368 . S
H3111 C3119 0.950 . S
H3112 C3117 0.950 . S
H3113 C3118 0.949 . S
H3114 C3120 0.950 . S
H3115 C3121 0.950 . S
H3116 C3122 0.949 . S
C3117 H3112 0.950 . S
C3117 C3119 1.327 . S
C3117 C3123 1.429 . S
C3118 C3110 1.574 . S
C3118 H3113 0.949 . S
C3118 C3124 1.368 . S
C3119 C3103 1.349 . S
C3119 H3111 0.950 . S
C3119 C3117 1.327 . S
C3120 C3108 1.349 . S
C3120 H3114 0.950 . S
C3120 C3121 1.327 . S
C3121 H3115 0.950 . S
C3121 C3120 1.327 . S
C3121 C3125 1.429 . S
C3122 C3105 1.574 . S
C3122 H3116 0.949 . S
C3122 C3126 1.368 . S
C3123 C3104 1.429 . S
C3123 C3117 1.429 . S
C3123 C3124 1.523 . S
C3124 C3105 1.368 . S
C3124 C3118 1.368 . S
C3124 C3123 1.523 . S
C3125 C3109 1.429 . S
C3125 C3121 1.429 . S
C3125 C3126 1.523 . S
C3126 C3110 1.368 . S
C3126 C3122 1.368 . S
C3126 C3125 1.523 . S
H3127 C3102 0.950 . S
H3128 C3104 0.950 . S
H3129 C3105 0.949 . S
H3130 C3107 0.950 . S
H3131 C3109 0.950 . S
C3132 C3133 1.349 . S
C3132 C3134 1.327 . S
C3132 H3157 0.950 . S
C3133 C3132 1.349 . S
C3133 C3149 1.349 . S
C3134 C3132 1.327 . S
C3134 C3153 1.429 . S
C3134 H3158 0.950 . S
C3135 C3152 1.574 . S
C3135 C3154 1.368 . S
C3135 H3159 0.949 . S
H3136 C3140 0.949 . S
C3137 C3138 1.349 . S
C3137 C3139 1.327 . S
C3137 H3160 0.950 . S
C3138 C3137 1.349 . S
C3138 C3150 1.349 . S
C3139 C3137 1.327 . S
C3139 C3155 1.429 . S
C3139 H3161 0.950 . S
C3140 H3136 0.949 . S
C3140 C3148 1.574 . S
C3140 C3156 1.368 . S
H3141 C3149 0.950 . S
H3142 C3147 0.950 . S
H3143 C3148 0.949 . S
H3144 C3150 0.950 . S
H3145 C3151 0.950 . S
H3146 C3152 0.949 . S
C3147 H3142 0.950 . S
C3147 C3149 1.327 . S
C3147 C3153 1.429 . S
C3148 C3140 1.574 . S
C3148 H3143 0.949 . S
C3148 C3154 1.368 . S
C3149 C3133 1.349 . S
C3149 H3141 0.950 . S
C3149 C3147 1.327 . S
C3150 C3138 1.349 . S
C3150 H3144 0.950 . S
C3150 C3151 1.327 . S
C3151 H3145 0.950 . S
C3151 C3150 1.327 . S
C3151 C3155 1.429 . S
C3152 C3135 1.574 . S
C3152 H3146 0.949 . S
C3152 C3156 1.368 . S
C3153 C3134 1.429 . S
C3153 C3147 1.429 . S
C3153 C3154 1.523 . S
C3154 C3135 1.368 . S
C3154 C3148 1.368 . S
C3154 C3153 1.523 . S
C3155 C3139 1.429 . S
C3155 C3151 1.429 . S
C3155 C3156 1.523 . S
C3156 C3140 1.368 . S
C3156 C3152 1.368 . S
C3156 C3155 1.523 . S
H3157 C3132 0.950 . S
H3158 C3134 0.950 . S
H3159 C3135 0.949 . S
H3160 C3137 0.950 . S
H3161 C3139 0.950 . S
C3162 C3163 1.349 . S
C3162 C3164 1.327 . S
C3162 H3187 0.950 . S
C3163 C3162 1.349 . S
C3163 C3179 1.349 . S
C3164 C3162 1.327 . S
C3164 C3183 1.429 . S
C3164 H3188 0.950 . S
C3165 C3182 1.574 . S
C3165 C3184 1.368 . S
C3165 H3189 0.949 . S
H3166 C3170 0.949 . S
C3167 C3168 1.349 . S
C3167 C3169 1.327 . S
C3167 H3190 0.950 . S
C3168 C3167 1.349 . S
C3168 C3180 1.349 . S
C3169 C3167 1.327 . S
C3169 C3185 1.429 . S
C3169 H3191 0.950 . S
C3170 H3166 0.949 . S
C3170 C3178 1.574 . S
C3170 C3186 1.368 . S
H3171 C3179 0.950 . S
H3172 C3177 0.950 . S
H3173 C3178 0.949 . S
H3174 C3180 0.950 . S
H3175 C3181 0.950 . S
H3176 C3182 0.949 . S
C3177 H3172 0.950 . S
C3177 C3179 1.327 . S
C3177 C3183 1.429 . S
C3178 C3170 1.574 . S
C3178 H3173 0.949 . S
C3178 C3184 1.368 . S
C3179 C3163 1.349 . S
C3179 H3171 0.950 . S
C3179 C3177 1.327 . S
C3180 C3168 1.349 . S
C3180 H3174 0.950 . S
C3180 C3181 1.327 . S
C3181 H3175 0.950 . S
C3181 C3180 1.327 . S
C3181 C3185 1.429 . S
C3182 C3165 1.574 . S
C3182 H3176 0.949 . S
C3182 C3186 1.368 . S
C3183 C3164 1.429 . S
C3183 C3177 1.429 . S
C3183 C3184 1.523 . S
C3184 C3165 1.368 . S
C3184 C3178 1.368 . S
C3184 C3183 1.523 . S
C3185 C3169 1.429 . S
C3185 C3181 1.429 . S
C3185 C3186 1.523 . S
C3186 C3170 1.368 . S
C3186 C3182 1.368 . S
C3186 C3185 1.523 . S
H3187 C3162 0.950 . S
H3188 C3164 0.950 . S
H3189 C3165 0.949 . S
H3190 C3167 0.950 . S
H3191 C3169 0.950 . S
C3192 C3193 1.349 . S
C3192 C3194 1.327 . S
C3192 H3217 0.950 . S
C3193 C3192 1.349 . S
C3193 C3209 1.349 . S
C3194 C3192 1.327 . S
C3194 C3213 1.429 . S
C3194 H3218 0.950 . S
C3195 C3212 1.574 . S
C3195 C3214 1.368 . S
C3195 H3219 0.949 . S
H3196 C3200 0.949 . S
C3197 C3198 1.349 . S
C3197 C3199 1.327 . S
C3197 H3220 0.950 . S
C3198 C3197 1.349 . S
C3198 C3210 1.349 . S
C3199 C3197 1.327 . S
C3199 C3215 1.429 . S
C3199 H3221 0.950 . S
C3200 H3196 0.949 . S
C3200 C3208 1.574 . S
C3200 C3216 1.368 . S
H3201 C3209 0.950 . S
H3202 C3207 0.950 . S
H3203 C3208 0.949 . S
H3204 C3210 0.950 . S
H3205 C3211 0.950 . S
H3206 C3212 0.949 . S
C3207 H3202 0.950 . S
C3207 C3209 1.327 . S
C3207 C3213 1.429 . S
C3208 C3200 1.574 . S
C3208 H3203 0.949 . S
C3208 C3214 1.368 . S
C3209 C3193 1.349 . S
C3209 H3201 0.950 . S
C3209 C3207 1.327 . S
C3210 C3198 1.349 . S
C3210 H3204 0.950 . S
C3210 C3211 1.327 . S
C3211 H3205 0.950 . S
C3211 C3210 1.327 . S
C3211 C3215 1.429 . S
C3212 C3195 1.574 . S
C3212 H3206 0.949 . S
C3212 C3216 1.368 . S
C3213 C3194 1.429 . S
C3213 C3207 1.429 . S
C3213 C3214 1.523 . S
C3214 C3195 1.368 . S
C3214 C3208 1.368 . S
C3214 C3213 1.523 . S
C3215 C3199 1.429 . S
C3215 C3211 1.429 . S
C3215 C3216 1.523 . S
C3216 C3200 1.368 . S
C3216 C3212 1.368 . S
C3216 C3215 1.523 . S
H3217 C3192 0.950 . S
H3218 C3194 0.950 . S
H3219 C3195 0.949 . S
H3220 C3197 0.950 . S
H3221 C3199 0.950 . S
C3222 C3223 1.349 . S
C3222 C3224 1.327 . S
C3222 H3247 0.950 . S
C3223 C3222 1.349 . S
C3223 C3239 1.349 . S
C3224 C3222 1.327 . S
C3224 C3243 1.429 . S
C3224 H3248 0.950 . S
C3225 C3242 1.574 . S
C3225 C3244 1.368 . S
C3225 H3249 0.949 . S
H3226 C3230 0.949 . S
C3227 C3228 1.349 . S
C3227 C3229 1.327 . S
C3227 H3250 0.950 . S
C3228 C3227 1.349 . S
C3228 C3240 1.349 . S
C3229 C3227 1.327 . S
C3229 C3245 1.429 . S
C3229 H3251 0.950 . S
C3230 H3226 0.949 . S
C3230 C3238 1.574 . S
C3230 C3246 1.368 . S
H3231 C3239 0.950 . S
H3232 C3237 0.950 . S
H3233 C3238 0.949 . S
H3234 C3240 0.950 . S
H3235 C3241 0.950 . S
H3236 C3242 0.949 . S
C3237 H3232 0.950 . S
C3237 C3239 1.327 . S
C3237 C3243 1.429 . S
C3238 C3230 1.574 . S
C3238 H3233 0.949 . S
C3238 C3244 1.368 . S
C3239 C3223 1.349 . S
C3239 H3231 0.950 . S
C3239 C3237 1.327 . S
C3240 C3228 1.349 . S
C3240 H3234 0.950 . S
C3240 C3241 1.327 . S
C3241 H3235 0.950 . S
C3241 C3240 1.327 . S
C3241 C3245 1.429 . S
C3242 C3225 1.574 . S
C3242 H3236 0.949 . S
C3242 C3246 1.368 . S
C3243 C3224 1.429 . S
C3243 C3237 1.429 . S
C3243 C3244 1.523 . S
C3244 C3225 1.368 . S
C3244 C3238 1.368 . S
C3244 C3243 1.523 . S
C3245 C3229 1.429 . S
C3245 C3241 1.429 . S
C3245 C3246 1.523 . S
C3246 C3230 1.368 . S
C3246 C3242 1.368 . S
C3246 C3245 1.523 . S
H3247 C3222 0.950 . S
H3248 C3224 0.950 . S
H3249 C3225 0.949 . S
H3250 C3227 0.950 . S
H3251 C3229 0.950 . S
C3252 C3253 1.349 . S
C3252 C3254 1.327 . S
C3252 H3277 0.950 . S
C3253 C3252 1.349 . S
C3253 C3269 1.349 . S
C3254 C3252 1.327 . S
C3254 C3273 1.429 . S
C3254 H3278 0.950 . S
C3255 C3272 1.574 . S
C3255 C3274 1.368 . S
C3255 H3279 0.949 . S
H3256 C3260 0.949 . S
C3257 C3258 1.349 . S
C3257 C3259 1.327 . S
C3257 H3280 0.950 . S
C3258 C3257 1.349 . S
C3258 C3270 1.349 . S
C3259 C3257 1.327 . S
C3259 C3275 1.429 . S
C3259 H3281 0.950 . S
C3260 H3256 0.949 . S
C3260 C3268 1.574 . S
C3260 C3276 1.368 . S
H3261 C3269 0.950 . S
H3262 C3267 0.950 . S
H3263 C3268 0.949 . S
H3264 C3270 0.950 . S
H3265 C3271 0.950 . S
H3266 C3272 0.949 . S
C3267 H3262 0.950 . S
C3267 C3269 1.327 . S
C3267 C3273 1.429 . S
C3268 C3260 1.574 . S
C3268 H3263 0.949 . S
C3268 C3274 1.368 . S
C3269 C3253 1.349 . S
C3269 H3261 0.950 . S
C3269 C3267 1.327 . S
C3270 C3258 1.349 . S
C3270 H3264 0.950 . S
C3270 C3271 1.327 . S
C3271 H3265 0.950 . S
C3271 C3270 1.327 . S
C3271 C3275 1.429 . S
C3272 C3255 1.574 . S
C3272 H3266 0.949 . S
C3272 C3276 1.368 . S
C3273 C3254 1.429 . S
C3273 C3267 1.429 . S
C3273 C3274 1.523 . S
C3274 C3255 1.368 . S
C3274 C3268 1.368 . S
C3274 C3273 1.523 . S
C3275 C3259 1.429 . S
C3275 C3271 1.429 . S
C3275 C3276 1.523 . S
C3276 C3260 1.368 . S
C3276 C3272 1.368 . S
C3276 C3275 1.523 . S
H3277 C3252 0.950 . S
H3278 C3254 0.950 . S
H3279 C3255 0.949 . S
H3280 C3257 0.950 . S
H3281 C3259 0.950 . S
C3282 C3283 1.349 . S
C3282 C3284 1.327 . S
C3282 H3307 0.950 . S
C3283 C3282 1.349 . S
C3283 C3299 1.349 . S
C3284 C3282 1.327 . S
C3284 C3303 1.429 . S
C3284 H3308 0.950 . S
C3285 C3302 1.574 . S
C3285 C3304 1.368 . S
C3285 H3309 0.949 . S
H3286 C3290 0.949 . S
C3287 C3288 1.349 . S
C3287 C3289 1.327 . S
C3287 H3310 0.950 . S
C3288 C3287 1.349 . S
C3288 C3300 1.349 . S
C3289 C3287 1.327 . S
C3289 C3305 1.429 . S
C3289 H3311 0.950 . S
C3290 H3286 0.949 . S
C3290 C3298 1.574 . S
C3290 C3306 1.368 . S
H3291 C3299 0.950 . S
H3292 C3297 0.950 . S
H3293 C3298 0.949 . S
H3294 C3300 0.950 . S
H3295 C3301 0.950 . S
H3296 C3302 0.949 . S
C3297 H3292 0.950 . S
C3297 C3299 1.327 . S
C3297 C3303 1.429 . S
C3298 C3290 1.574 . S
C3298 H3293 0.949 . S
C3298 C3304 1.368 . S
C3299 C3283 1.349 . S
C3299 H3291 0.950 . S
C3299 C3297 1.327 . S
C3300 C3288 1.349 . S
C3300 H3294 0.950 . S
C3300 C3301 1.327 . S
C3301 H3295 0.950 . S
C3301 C3300 1.327 . S
C3301 C3305 1.429 . S
C3302 C3285 1.574 . S
C3302 H3296 0.949 . S
C3302 C3306 1.368 . S
C3303 C3284 1.429 . S
C3303 C3297 1.429 . S
C3303 C3304 1.523 . S
C3304 C3285 1.368 . S
C3304 C3298 1.368 . S
C3304 C3303 1.523 . S
C3305 C3289 1.429 . S
C3305 C3301 1.429 . S
C3305 C3306 1.523 . S
C3306 C3290 1.368 . S
C3306 C3302 1.368 . S
C3306 C3305 1.523 . S
H3307 C3282 0.950 . S
H3308 C3284 0.950 . S
H3309 C3285 0.949 . S
H3310 C3287 0.950 . S
H3311 C3289 0.950 . S
C3312 C3313 1.349 . S
C3312 C3314 1.327 . S
C3312 H3337 0.950 . S
C3313 C3312 1.349 . S
C3313 C3329 1.349 . S
C3314 C3312 1.327 . S
C3314 C3333 1.429 . S
C3314 H3338 0.950 . S
C3315 C3332 1.574 . S
C3315 C3334 1.368 . S
C3315 H3339 0.949 . S
H3316 C3320 0.949 . S
C3317 C3318 1.349 . S
C3317 C3319 1.327 . S
C3317 H3340 0.950 . S
C3318 C3317 1.349 . S
C3318 C3330 1.349 . S
C3319 C3317 1.327 . S
C3319 C3335 1.429 . S
C3319 H3341 0.950 . S
C3320 H3316 0.949 . S
C3320 C3328 1.574 . S
C3320 C3336 1.368 . S
H3321 C3329 0.950 . S
H3322 C3327 0.950 . S
H3323 C3328 0.949 . S
H3324 C3330 0.950 . S
H3325 C3331 0.950 . S
H3326 C3332 0.949 . S
C3327 H3322 0.950 . S
C3327 C3329 1.327 . S
C3327 C3333 1.429 . S
C3328 C3320 1.574 . S
C3328 H3323 0.949 . S
C3328 C3334 1.368 . S
C3329 C3313 1.349 . S
C3329 H3321 0.950 . S
C3329 C3327 1.327 . S
C3330 C3318 1.349 . S
C3330 H3324 0.950 . S
C3330 C3331 1.327 . S
C3331 H3325 0.950 . S
C3331 C3330 1.327 . S
C3331 C3335 1.429 . S
C3332 C3315 1.574 . S
C3332 H3326 0.949 . S
C3332 C3336 1.368 . S
C3333 C3314 1.429 . S
C3333 C3327 1.429 . S
C3333 C3334 1.523 . S
C3334 C3315 1.368 . S
C3334 C3328 1.368 . S
C3334 C3333 1.523 . S
C3335 C3319 1.429 . S
C3335 C3331 1.429 . S
C3335 C3336 1.523 . S
C3336 C3320 1.368 . S
C3336 C3332 1.368 . S
C3336 C3335 1.523 . S
H3337 C3312 0.950 . S
H3338 C3314 0.950 . S
H3339 C3315 0.949 . S
H3340 C3317 0.950 . S
H3341 C3319 0.950 . S
C3342 C3343 1.349 . S
C3342 C3344 1.327 . S
C3342 H3367 0.950 . S
C3343 C3342 1.349 . S
C3343 C3359 1.349 . S
C3344 C3342 1.327 . S
C3344 C3363 1.429 . S
C3344 H3368 0.950 . S
C3345 C3362 1.574 . S
C3345 C3364 1.368 . S
C3345 H3369 0.949 . S
H3346 C3350 0.949 . S
C3347 C3348 1.349 . S
C3347 C3349 1.327 . S
C3347 H3370 0.950 . S
C3348 C3347 1.349 . S
C3348 C3360 1.349 . S
C3349 C3347 1.327 . S
C3349 C3365 1.429 . S
C3349 H3371 0.950 . S
C3350 H3346 0.949 . S
C3350 C3358 1.574 . S
C3350 C3366 1.368 . S
H3351 C3359 0.950 . S
H3352 C3357 0.950 . S
H3353 C3358 0.949 . S
H3354 C3360 0.950 . S
H3355 C3361 0.950 . S
H3356 C3362 0.949 . S
C3357 H3352 0.950 . S
C3357 C3359 1.327 . S
C3357 C3363 1.429 . S
C3358 C3350 1.574 . S
C3358 H3353 0.949 . S
C3358 C3364 1.368 . S
C3359 C3343 1.349 . S
C3359 H3351 0.950 . S
C3359 C3357 1.327 . S
C3360 C3348 1.349 . S
C3360 H3354 0.950 . S
C3360 C3361 1.327 . S
C3361 H3355 0.950 . S
C3361 C3360 1.327 . S
C3361 C3365 1.429 . S
C3362 C3345 1.574 . S
C3362 H3356 0.949 . S
C3362 C3366 1.368 . S
C3363 C3344 1.429 . S
C3363 C3357 1.429 . S
C3363 C3364 1.523 . S
C3364 C3345 1.368 . S
C3364 C3358 1.368 . S
C3364 C3363 1.523 . S
C3365 C3349 1.429 . S
C3365 C3361 1.429 . S
C3365 C3366 1.523 . S
C3366 C3350 1.368 . S
C3366 C3362 1.368 . S
C3366 C3365 1.523 . S
H3367 C3342 0.950 . S
H3368 C3344 0.950 . S
H3369 C3345 0.949 . S
H3370 C3347 0.950 . S
H3371 C3349 0.950 . S
C3372 C3373 1.349 . S
C3372 C3374 1.327 . S
C3372 H3397 0.950 . S
C3373 C3372 1.349 . S
C3373 C3389 1.349 . S
C3374 C3372 1.327 . S
C3374 C3393 1.429 . S
C3374 H3398 0.950 . S
C3375 C3392 1.574 . S
C3375 C3394 1.368 . S
C3375 H3399 0.949 . S
H3376 C3380 0.949 . S
C3377 C3378 1.349 . S
C3377 C3379 1.327 . S
C3377 H3400 0.950 . S
C3378 C3377 1.349 . S
C3378 C3390 1.349 . S
C3379 C3377 1.327 . S
C3379 C3395 1.429 . S
C3379 H3401 0.950 . S
C3380 H3376 0.949 . S
C3380 C3388 1.574 . S
C3380 C3396 1.368 . S
H3381 C3389 0.950 . S
H3382 C3387 0.950 . S
H3383 C3388 0.949 . S
H3384 C3390 0.950 . S
H3385 C3391 0.950 . S
H3386 C3392 0.949 . S
C3387 H3382 0.950 . S
C3387 C3389 1.327 . S
C3387 C3393 1.429 . S
C3388 C3380 1.574 . S
C3388 H3383 0.949 . S
C3388 C3394 1.368 . S
C3389 C3373 1.349 . S
C3389 H3381 0.950 . S
C3389 C3387 1.327 . S
C3390 C3378 1.349 . S
C3390 H3384 0.950 . S
C3390 C3391 1.327 . S
C3391 H3385 0.950 . S
C3391 C3390 1.327 . S
C3391 C3395 1.429 . S
C3392 C3375 1.574 . S
C3392 H3386 0.949 . S
C3392 C3396 1.368 . S
C3393 C3374 1.429 . S
C3393 C3387 1.429 . S
C3393 C3394 1.523 . S
C3394 C3375 1.368 . S
C3394 C3388 1.368 . S
C3394 C3393 1.523 . S
C3395 C3379 1.429 . S
C3395 C3391 1.429 . S
C3395 C3396 1.523 . S
C3396 C3380 1.368 . S
C3396 C3392 1.368 . S
C3396 C3395 1.523 . S
H3397 C3372 0.950 . S
H3398 C3374 0.950 . S
H3399 C3375 0.949 . S
H3400 C3377 0.950 . S
H3401 C3379 0.950 . S
C3402 C3403 1.349 . S
C3402 C3404 1.327 . S
C3402 H3427 0.950 . S
C3403 C3402 1.349 . S
C3403 C3419 1.349 . S
C3404 C3402 1.327 . S
C3404 C3423 1.429 . S
C3404 H3428 0.950 . S
C3405 C3422 1.574 . S
C3405 C3424 1.368 . S
C3405 H3429 0.949 . S
H3406 C3410 0.949 . S
C3407 C3408 1.349 . S
C3407 C3409 1.327 . S
C3407 H3430 0.950 . S
C3408 C3407 1.349 . S
C3408 C3420 1.349 . S
C3409 C3407 1.327 . S
C3409 C3425 1.429 . S
C3409 H3431 0.950 . S
C3410 H3406 0.949 . S
C3410 C3418 1.574 . S
C3410 C3426 1.368 . S
H3411 C3419 0.950 . S
H3412 C3417 0.950 . S
H3413 C3418 0.949 . S
H3414 C3420 0.950 . S
H3415 C3421 0.950 . S
H3416 C3422 0.949 . S
C3417 H3412 0.950 . S
C3417 C3419 1.327 . S
C3417 C3423 1.429 . S
C3418 C3410 1.574 . S
C3418 H3413 0.949 . S
C3418 C3424 1.368 . S
C3419 C3403 1.349 . S
C3419 H3411 0.950 . S
C3419 C3417 1.327 . S
C3420 C3408 1.349 . S
C3420 H3414 0.950 . S
C3420 C3421 1.327 . S
C3421 H3415 0.950 . S
C3421 C3420 1.327 . S
C3421 C3425 1.429 . S
C3422 C3405 1.574 . S
C3422 H3416 0.949 . S
C3422 C3426 1.368 . S
C3423 C3404 1.429 . S
C3423 C3417 1.429 . S
C3423 C3424 1.523 . S
C3424 C3405 1.368 . S
C3424 C3418 1.368 . S
C3424 C3423 1.523 . S
C3425 C3409 1.429 . S
C3425 C3421 1.429 . S
C3425 C3426 1.523 . S
C3426 C3410 1.368 . S
C3426 C3422 1.368 . S
C3426 C3425 1.523 . S
H3427 C3402 0.950 . S
H3428 C3404 0.950 . S
H3429 C3405 0.949 . S
H3430 C3407 0.950 . S
H3431 C3409 0.950 . S
C3432 C3433 1.349 . S
C3432 C3434 1.327 . S
C3432 H3457 0.950 . S
C3433 C3432 1.349 . S
C3433 C3449 1.349 . S
C3434 C3432 1.327 . S
C3434 C3453 1.429 . S
C3434 H3458 0.950 . S
C3435 C3452 1.574 . S
C3435 C3454 1.368 . S
C3435 H3459 0.949 . S
H3436 C3440 0.949 . S
C3437 C3438 1.349 . S
C3437 C3439 1.327 . S
C3437 H3460 0.950 . S
C3438 C3437 1.349 . S
C3438 C3450 1.349 . S
C3439 C3437 1.327 . S
C3439 C3455 1.429 . S
C3439 H3461 0.950 . S
C3440 H3436 0.949 . S
C3440 C3448 1.574 . S
C3440 C3456 1.368 . S
H3441 C3449 0.950 . S
H3442 C3447 0.950 . S
H3443 C3448 0.949 . S
H3444 C3450 0.950 . S
H3445 C3451 0.950 . S
H3446 C3452 0.949 . S
C3447 H3442 0.950 . S
C3447 C3449 1.327 . S
C3447 C3453 1.429 . S
C3448 C3440 1.574 . S
C3448 H3443 0.949 . S
C3448 C3454 1.368 . S
C3449 C3433 1.349 . S
C3449 H3441 0.950 . S
C3449 C3447 1.327 . S
C3450 C3438 1.349 . S
C3450 H3444 0.950 . S
C3450 C3451 1.327 . S
C3451 H3445 0.950 . S
C3451 C3450 1.327 . S
C3451 C3455 1.429 . S
C3452 C3435 1.574 . S
C3452 H3446 0.949 . S
C3452 C3456 1.368 . S
C3453 C3434 1.429 . S
C3453 C3447 1.429 . S
C3453 C3454 1.523 . S
C3454 C3435 1.368 . S
C3454 C3448 1.368 . S
C3454 C3453 1.523 . S
C3455 C3439 1.429 . S
C3455 C3451 1.429 . S
C3455 C3456 1.523 . S
C3456 C3440 1.368 . S
C3456 C3452 1.368 . S
C3456 C3455 1.523 . S
H3457 C3432 0.950 . S
H3458 C3434 0.950 . S
H3459 C3435 0.949 . S
H3460 C3437 0.950 . S
H3461 C3439 0.950 . S
C3462 C3463 1.349 . S
C3462 C3464 1.327 . S
C3462 H3487 0.950 . S
C3463 C3462 1.349 . S
C3463 C3479 1.349 . S
C3464 C3462 1.327 . S
C3464 C3483 1.429 . S
C3464 H3488 0.950 . S
C3465 C3482 1.574 . S
C3465 C3484 1.368 . S
C3465 H3489 0.949 . S
H3466 C3470 0.949 . S
C3467 C3468 1.349 . S
C3467 C3469 1.327 . S
C3467 H3490 0.950 . S
C3468 C3467 1.349 . S
C3468 C3480 1.349 . S
C3469 C3467 1.327 . S
C3469 C3485 1.429 . S
C3469 H3491 0.950 . S
C3470 H3466 0.949 . S
C3470 C3478 1.574 . S
C3470 C3486 1.368 . S
H3471 C3479 0.950 . S
H3472 C3477 0.950 . S
H3473 C3478 0.949 . S
H3474 C3480 0.950 . S
H3475 C3481 0.950 . S
H3476 C3482 0.949 . S
C3477 H3472 0.950 . S
C3477 C3479 1.327 . S
C3477 C3483 1.429 . S
C3478 C3470 1.574 . S
C3478 H3473 0.949 . S
C3478 C3484 1.368 . S
C3479 C3463 1.349 . S
C3479 H3471 0.950 . S
C3479 C3477 1.327 . S
C3480 C3468 1.349 . S
C3480 H3474 0.950 . S
C3480 C3481 1.327 . S
C3481 H3475 0.950 . S
C3481 C3480 1.327 . S
C3481 C3485 1.429 . S
C3482 C3465 1.574 . S
C3482 H3476 0.949 . S
C3482 C3486 1.368 . S
C3483 C3464 1.429 . S
C3483 C3477 1.429 . S
C3483 C3484 1.523 . S
C3484 C3465 1.368 . S
C3484 C3478 1.368 . S
C3484 C3483 1.523 . S
C3485 C3469 1.429 . S
C3485 C3481 1.429 . S
C3485 C3486 1.523 . S
C3486 C3470 1.368 . S
C3486 C3482 1.368 . S
C3486 C3485 1.523 . S
H3487 C3462 0.950 . S
H3488 C3464 0.950 . S
H3489 C3465 0.949 . S
H3490 C3467 0.950 . S
H3491 C3469 0.950 . S
C3492 C3493 1.349 . S
C3492 C3494 1.327 . S
C3492 H3517 0.950 . S
C3493 C3492 1.349 . S
C3493 C3509 1.349 . S
C3494 C3492 1.327 . S
C3494 C3513 1.429 . S
C3494 H3518 0.950 . S
C3495 C3512 1.574 . S
C3495 C3514 1.368 . S
C3495 H3519 0.949 . S
H3496 C3500 0.949 . S
C3497 C3498 1.349 . S
C3497 C3499 1.327 . S
C3497 H3520 0.950 . S
C3498 C3497 1.349 . S
C3498 C3510 1.349 . S
C3499 C3497 1.327 . S
C3499 C3515 1.429 . S
C3499 H3521 0.950 . S
C3500 H3496 0.949 . S
C3500 C3508 1.574 . S
C3500 C3516 1.368 . S
H3501 C3509 0.950 . S
H3502 C3507 0.950 . S
H3503 C3508 0.949 . S
H3504 C3510 0.950 . S
H3505 C3511 0.950 . S
H3506 C3512 0.949 . S
C3507 H3502 0.950 . S
C3507 C3509 1.327 . S
C3507 C3513 1.429 . S
C3508 C3500 1.574 . S
C3508 H3503 0.949 . S
C3508 C3514 1.368 . S
C3509 C3493 1.349 . S
C3509 H3501 0.950 . S
C3509 C3507 1.327 . S
C3510 C3498 1.349 . S
C3510 H3504 0.950 . S
C3510 C3511 1.327 . S
C3511 H3505 0.950 . S
C3511 C3510 1.327 . S
C3511 C3515 1.429 . S
C3512 C3495 1.574 . S
C3512 H3506 0.949 . S
C3512 C3516 1.368 . S
C3513 C3494 1.429 . S
C3513 C3507 1.429 . S
C3513 C3514 1.523 . S
C3514 C3495 1.368 . S
C3514 C3508 1.368 . S
C3514 C3513 1.523 . S
C3515 C3499 1.429 . S
C3515 C3511 1.429 . S
C3515 C3516 1.523 . S
C3516 C3500 1.368 . S
C3516 C3512 1.368 . S
C3516 C3515 1.523 . S
H3517 C3492 0.950 . S
H3518 C3494 0.950 . S
H3519 C3495 0.949 . S
H3520 C3497 0.950 . S
H3521 C3499 0.950 . S
C3522 C3523 1.349 . S
C3522 C3524 1.327 . S
C3522 H3547 0.950 . S
C3523 C3522 1.349 . S
C3523 C3539 1.349 . S
C3524 C3522 1.327 . S
C3524 C3543 1.429 . S
C3524 H3548 0.950 . S
C3525 C3542 1.574 . S
C3525 C3544 1.368 . S
C3525 H3549 0.949 . S
H3526 C3530 0.949 . S
C3527 C3528 1.349 . S
C3527 C3529 1.327 . S
C3527 H3550 0.950 . S
C3528 C3527 1.349 . S
C3528 C3540 1.349 . S
C3529 C3527 1.327 . S
C3529 C3545 1.429 . S
C3529 H3551 0.950 . S
C3530 H3526 0.949 . S
C3530 C3538 1.574 . S
C3530 C3546 1.368 . S
H3531 C3539 0.950 . S
H3532 C3537 0.950 . S
H3533 C3538 0.949 . S
H3534 C3540 0.950 . S
H3535 C3541 0.950 . S
H3536 C3542 0.949 . S
C3537 H3532 0.950 . S
C3537 C3539 1.327 . S
C3537 C3543 1.429 . S
C3538 C3530 1.574 . S
C3538 H3533 0.949 . S
C3538 C3544 1.368 . S
C3539 C3523 1.349 . S
C3539 H3531 0.950 . S
C3539 C3537 1.327 . S
C3540 C3528 1.349 . S
C3540 H3534 0.950 . S
C3540 C3541 1.327 . S
C3541 H3535 0.950 . S
C3541 C3540 1.327 . S
C3541 C3545 1.429 . S
C3542 C3525 1.574 . S
C3542 H3536 0.949 . S
C3542 C3546 1.368 . S
C3543 C3524 1.429 . S
C3543 C3537 1.429 . S
C3543 C3544 1.523 . S
C3544 C3525 1.368 . S
C3544 C3538 1.368 . S
C3544 C3543 1.523 . S
C3545 C3529 1.429 . S
C3545 C3541 1.429 . S
C3545 C3546 1.523 . S
C3546 C3530 1.368 . S
C3546 C3542 1.368 . S
C3546 C3545 1.523 . S
H3547 C3522 0.950 . S
H3548 C3524 0.950 . S
H3549 C3525 0.949 . S
H3550 C3527 0.950 . S
H3551 C3529 0.950 . S
C3552 C3553 1.349 . S
C3552 C3554 1.327 . S
C3552 H3577 0.950 . S
C3553 C3552 1.349 . S
C3553 C3569 1.349 . S
C3554 C3552 1.327 . S
C3554 C3573 1.429 . S
C3554 H3578 0.950 . S
C3555 C3572 1.574 . S
C3555 C3574 1.368 . S
C3555 H3579 0.949 . S
H3556 C3560 0.949 . S
C3557 C3558 1.349 . S
C3557 C3559 1.327 . S
C3557 H3580 0.950 . S
C3558 C3557 1.349 . S
C3558 C3570 1.349 . S
C3559 C3557 1.327 . S
C3559 C3575 1.429 . S
C3559 H3581 0.950 . S
C3560 H3556 0.949 . S
C3560 C3568 1.574 . S
C3560 C3576 1.368 . S
H3561 C3569 0.950 . S
H3562 C3567 0.950 . S
H3563 C3568 0.949 . S
H3564 C3570 0.950 . S
H3565 C3571 0.950 . S
H3566 C3572 0.949 . S
C3567 H3562 0.950 . S
C3567 C3569 1.327 . S
C3567 C3573 1.429 . S
C3568 C3560 1.574 . S
C3568 H3563 0.949 . S
C3568 C3574 1.368 . S
C3569 C3553 1.349 . S
C3569 H3561 0.950 . S
C3569 C3567 1.327 . S
C3570 C3558 1.349 . S
C3570 H3564 0.950 . S
C3570 C3571 1.327 . S
C3571 H3565 0.950 . S
C3571 C3570 1.327 . S
C3571 C3575 1.429 . S
C3572 C3555 1.574 . S
C3572 H3566 0.949 . S
C3572 C3576 1.368 . S
C3573 C3554 1.429 . S
C3573 C3567 1.429 . S
C3573 C3574 1.523 . S
C3574 C3555 1.368 . S
C3574 C3568 1.368 . S
C3574 C3573 1.523 . S
C3575 C3559 1.429 . S
C3575 C3571 1.429 . S
C3575 C3576 1.523 . S
C3576 C3560 1.368 . S
C3576 C3572 1.368 . S
C3576 C3575 1.523 . S
H3577 C3552 0.950 . S
H3578 C3554 0.950 . S
H3579 C3555 0.949 . S
H3580 C3557 0.950 . S
H3581 C3559 0.950 . S
C3582 C3583 1.349 . S
C3582 C3584 1.327 . S
C3582 H3607 0.950 . S
C3583 C3582 1.349 . S
C3583 C3599 1.349 . S
C3584 C3582 1.327 . S
C3584 C3603 1.429 . S
C3584 H3608 0.950 . S
C3585 C3602 1.574 . S
C3585 C3604 1.368 . S
C3585 H3609 0.949 . S
H3586 C3590 0.949 . S
C3587 C3588 1.349 . S
C3587 C3589 1.327 . S
C3587 H3610 0.950 . S
C3588 C3587 1.349 . S
C3588 C3600 1.349 . S
C3589 C3587 1.327 . S
C3589 C3605 1.429 . S
C3589 H3611 0.950 . S
C3590 H3586 0.949 . S
C3590 C3598 1.574 . S
C3590 C3606 1.368 . S
H3591 C3599 0.950 . S
H3592 C3597 0.950 . S
H3593 C3598 0.949 . S
H3594 C3600 0.950 . S
H3595 C3601 0.950 . S
H3596 C3602 0.949 . S
C3597 H3592 0.950 . S
C3597 C3599 1.327 . S
C3597 C3603 1.429 . S
C3598 C3590 1.574 . S
C3598 H3593 0.949 . S
C3598 C3604 1.368 . S
C3599 C3583 1.349 . S
C3599 H3591 0.950 . S
C3599 C3597 1.327 . S
C3600 C3588 1.349 . S
C3600 H3594 0.950 . S
C3600 C3601 1.327 . S
C3601 H3595 0.950 . S
C3601 C3600 1.327 . S
C3601 C3605 1.429 . S
C3602 C3585 1.574 . S
C3602 H3596 0.949 . S
C3602 C3606 1.368 . S
C3603 C3584 1.429 . S
C3603 C3597 1.429 . S
C3603 C3604 1.523 . S
C3604 C3585 1.368 . S
C3604 C3598 1.368 . S
C3604 C3603 1.523 . S
C3605 C3589 1.429 . S
C3605 C3601 1.429 . S
C3605 C3606 1.523 . S
C3606 C3590 1.368 . S
C3606 C3602 1.368 . S
C3606 C3605 1.523 . S
H3607 C3582 0.950 . S
H3608 C3584 0.950 . S
H3609 C3585 0.949 . S
H3610 C3587 0.950 . S
H3611 C3589 0.950 . S
C3612 C3613 1.349 . S
C3612 C3614 1.327 . S
C3612 H3637 0.950 . S
C3613 C3612 1.349 . S
C3613 C3629 1.349 . S
C3614 C3612 1.327 . S
C3614 C3633 1.429 . S
C3614 H3638 0.950 . S
C3615 C3632 1.574 . S
C3615 C3634 1.368 . S
C3615 H3639 0.949 . S
H3616 C3620 0.949 . S
C3617 C3618 1.349 . S
C3617 C3619 1.327 . S
C3617 H3640 0.950 . S
C3618 C3617 1.349 . S
C3618 C3630 1.349 . S
C3619 C3617 1.327 . S
C3619 C3635 1.429 . S
C3619 H3641 0.950 . S
C3620 H3616 0.949 . S
C3620 C3628 1.574 . S
C3620 C3636 1.368 . S
H3621 C3629 0.950 . S
H3622 C3627 0.950 . S
H3623 C3628 0.949 . S
H3624 C3630 0.950 . S
H3625 C3631 0.950 . S
H3626 C3632 0.949 . S
C3627 H3622 0.950 . S
C3627 C3629 1.327 . S
C3627 C3633 1.429 . S
C3628 C3620 1.574 . S
C3628 H3623 0.949 . S
C3628 C3634 1.368 . S
C3629 C3613 1.349 . S
C3629 H3621 0.950 . S
C3629 C3627 1.327 . S
C3630 C3618 1.349 . S
C3630 H3624 0.950 . S
C3630 C3631 1.327 . S
C3631 H3625 0.950 . S
C3631 C3630 1.327 . S
C3631 C3635 1.429 . S
C3632 C3615 1.574 . S
C3632 H3626 0.949 . S
C3632 C3636 1.368 . S
C3633 C3614 1.429 . S
C3633 C3627 1.429 . S
C3633 C3634 1.523 . S
C3634 C3615 1.368 . S
C3634 C3628 1.368 . S
C3634 C3633 1.523 . S
C3635 C3619 1.429 . S
C3635 C3631 1.429 . S
C3635 C3636 1.523 . S
C3636 C3620 1.368 . S
C3636 C3632 1.368 . S
C3636 C3635 1.523 . S
H3637 C3612 0.950 . S
H3638 C3614 0.950 . S
H3639 C3615 0.949 . S
H3640 C3617 0.950 . S
H3641 C3619 0.950 . S
C3642 C3643 1.349 . S
C3642 C3644 1.327 . S
C3642 H3667 0.950 . S
C3643 C3642 1.349 . S
C3643 C3659 1.349 . S
C3644 C3642 1.327 . S
C3644 C3663 1.429 . S
C3644 H3668 0.950 . S
C3645 C3662 1.574 . S
C3645 C3664 1.368 . S
C3645 H3669 0.949 . S
H3646 C3650 0.949 . S
C3647 C3648 1.349 . S
C3647 C3649 1.327 . S
C3647 H3670 0.950 . S
C3648 C3647 1.349 . S
C3648 C3660 1.349 . S
C3649 C3647 1.327 . S
C3649 C3665 1.429 . S
C3649 H3671 0.950 . S
C3650 H3646 0.949 . S
C3650 C3658 1.574 . S
C3650 C3666 1.368 . S
H3651 C3659 0.950 . S
H3652 C3657 0.950 . S
H3653 C3658 0.949 . S
H3654 C3660 0.950 . S
H3655 C3661 0.950 . S
H3656 C3662 0.949 . S
C3657 H3652 0.950 . S
C3657 C3659 1.327 . S
C3657 C3663 1.429 . S
C3658 C3650 1.574 . S
C3658 H3653 0.949 . S
C3658 C3664 1.368 . S
C3659 C3643 1.349 . S
C3659 H3651 0.950 . S
C3659 C3657 1.327 . S
C3660 C3648 1.349 . S
C3660 H3654 0.950 . S
C3660 C3661 1.327 . S
C3661 H3655 0.950 . S
C3661 C3660 1.327 . S
C3661 C3665 1.429 . S
C3662 C3645 1.574 . S
C3662 H3656 0.949 . S
C3662 C3666 1.368 . S
C3663 C3644 1.429 . S
C3663 C3657 1.429 . S
C3663 C3664 1.523 . S
C3664 C3645 1.368 . S
C3664 C3658 1.368 . S
C3664 C3663 1.523 . S
C3665 C3649 1.429 . S
C3665 C3661 1.429 . S
C3665 C3666 1.523 . S
C3666 C3650 1.368 . S
C3666 C3662 1.368 . S
C3666 C3665 1.523 . S
H3667 C3642 0.950 . S
H3668 C3644 0.950 . S
H3669 C3645 0.949 . S
H3670 C3647 0.950 . S
H3671 C3649 0.950 . S
C3672 C3673 1.349 . S
C3672 C3674 1.327 . S
C3672 H3697 0.950 . S
C3673 C3672 1.349 . S
C3673 C3689 1.349 . S
C3674 C3672 1.327 . S
C3674 C3693 1.429 . S
C3674 H3698 0.950 . S
C3675 C3692 1.574 . S
C3675 C3694 1.368 . S
C3675 H3699 0.949 . S
H3676 C3680 0.949 . S
C3677 C3678 1.349 . S
C3677 C3679 1.327 . S
C3677 H3700 0.950 . S
C3678 C3677 1.349 . S
C3678 C3690 1.349 . S
C3679 C3677 1.327 . S
C3679 C3695 1.429 . S
C3679 H3701 0.950 . S
C3680 H3676 0.949 . S
C3680 C3688 1.574 . S
C3680 C3696 1.368 . S
H3681 C3689 0.950 . S
H3682 C3687 0.950 . S
H3683 C3688 0.949 . S
H3684 C3690 0.950 . S
H3685 C3691 0.950 . S
H3686 C3692 0.949 . S
C3687 H3682 0.950 . S
C3687 C3689 1.327 . S
C3687 C3693 1.429 . S
C3688 C3680 1.574 . S
C3688 H3683 0.949 . S
C3688 C3694 1.368 . S
C3689 C3673 1.349 . S
C3689 H3681 0.950 . S
C3689 C3687 1.327 . S
C3690 C3678 1.349 . S
C3690 H3684 0.950 . S
C3690 C3691 1.327 . S
C3691 H3685 0.950 . S
C3691 C3690 1.327 . S
C3691 C3695 1.429 . S
C3692 C3675 1.574 . S
C3692 H3686 0.949 . S
C3692 C3696 1.368 . S
C3693 C3674 1.429 . S
C3693 C3687 1.429 . S
C3693 C3694 1.523 . S
C3694 C3675 1.368 . S
C3694 C3688 1.368 . S
C3694 C3693 1.523 . S
C3695 C3679 1.429 . S
C3695 C3691 1.429 . S
C3695 C3696 1.523 . S
C3696 C3680 1.368 . S
C3696 C3692 1.368 . S
C3696 C3695 1.523 . S
H3697 C3672 0.950 . S
H3698 C3674 0.950 . S
H3699 C3675 0.949 . S
H3700 C3677 0.950 . S
H3701 C3679 0.950 . S
C3702 C3703 1.349 . S
C3702 C3704 1.327 . S
C3702 H3727 0.950 . S
C3703 C3702 1.349 . S
C3703 C3719 1.349 . S
C3704 C3702 1.327 . S
C3704 C3723 1.429 . S
C3704 H3728 0.950 . S
C3705 C3722 1.574 . S
C3705 C3724 1.368 . S
C3705 H3729 0.949 . S
H3706 C3710 0.949 . S
C3707 C3708 1.349 . S
C3707 C3709 1.327 . S
C3707 H3730 0.950 . S
C3708 C3707 1.349 . S
C3708 C3720 1.349 . S
C3709 C3707 1.327 . S
C3709 C3725 1.429 . S
C3709 H3731 0.950 . S
C3710 H3706 0.949 . S
C3710 C3718 1.574 . S
C3710 C3726 1.368 . S
H3711 C3719 0.950 . S
H3712 C3717 0.950 . S
H3713 C3718 0.949 . S
H3714 C3720 0.950 . S
H3715 C3721 0.950 . S
H3716 C3722 0.949 . S
C3717 H3712 0.950 . S
C3717 C3719 1.327 . S
C3717 C3723 1.429 . S
C3718 C3710 1.574 . S
C3718 H3713 0.949 . S
C3718 C3724 1.368 . S
C3719 C3703 1.349 . S
C3719 H3711 0.950 . S
C3719 C3717 1.327 . S
C3720 C3708 1.349 . S
C3720 H3714 0.950 . S
C3720 C3721 1.327 . S
C3721 H3715 0.950 . S
C3721 C3720 1.327 . S
C3721 C3725 1.429 . S
C3722 C3705 1.574 . S
C3722 H3716 0.949 . S
C3722 C3726 1.368 . S
C3723 C3704 1.429 . S
C3723 C3717 1.429 . S
C3723 C3724 1.523 . S
C3724 C3705 1.368 . S
C3724 C3718 1.368 . S
C3724 C3723 1.523 . S
C3725 C3709 1.429 . S
C3725 C3721 1.429 . S
C3725 C3726 1.523 . S
C3726 C3710 1.368 . S
C3726 C3722 1.368 . S
C3726 C3725 1.523 . S
H3727 C3702 0.950 . S
H3728 C3704 0.950 . S
H3729 C3705 0.949 . S
H3730 C3707 0.950 . S
H3731 C3709 0.950 . S
C3732 C3733 1.349 . S
C3732 C3734 1.327 . S
C3732 H3757 0.950 . S
C3733 C3732 1.349 . S
C3733 C3749 1.349 . S
C3734 C3732 1.327 . S
C3734 C3753 1.429 . S
C3734 H3758 0.950 . S
C3735 C3752 1.574 . S
C3735 C3754 1.368 . S
C3735 H3759 0.949 . S
H3736 C3740 0.949 . S
C3737 C3738 1.349 . S
C3737 C3739 1.327 . S
C3737 H3760 0.950 . S
C3738 C3737 1.349 . S
C3738 C3750 1.349 . S
C3739 C3737 1.327 . S
C3739 C3755 1.429 . S
C3739 H3761 0.950 . S
C3740 H3736 0.949 . S
C3740 C3748 1.574 . S
C3740 C3756 1.368 . S
H3741 C3749 0.950 . S
H3742 C3747 0.950 . S
H3743 C3748 0.949 . S
H3744 C3750 0.950 . S
H3745 C3751 0.950 . S
H3746 C3752 0.949 . S
C3747 H3742 0.950 . S
C3747 C3749 1.327 . S
C3747 C3753 1.429 . S
C3748 C3740 1.574 . S
C3748 H3743 0.949 . S
C3748 C3754 1.368 . S
C3749 C3733 1.349 . S
C3749 H3741 0.950 . S
C3749 C3747 1.327 . S
C3750 C3738 1.349 . S
C3750 H3744 0.950 . S
C3750 C3751 1.327 . S
C3751 H3745 0.950 . S
C3751 C3750 1.327 . S
C3751 C3755 1.429 . S
C3752 C3735 1.574 . S
C3752 H3746 0.949 . S
C3752 C3756 1.368 . S
C3753 C3734 1.429 . S
C3753 C3747 1.429 . S
C3753 C3754 1.523 . S
C3754 C3735 1.368 . S
C3754 C3748 1.368 . S
C3754 C3753 1.523 . S
C3755 C3739 1.429 . S
C3755 C3751 1.429 . S
C3755 C3756 1.523 . S
C3756 C3740 1.368 . S
C3756 C3752 1.368 . S
C3756 C3755 1.523 . S
H3757 C3732 0.950 . S
H3758 C3734 0.950 . S
H3759 C3735 0.949 . S
H3760 C3737 0.950 . S
H3761 C3739 0.950 . S
C3762 C3763 1.349 . S
C3762 C3764 1.327 . S
C3762 H3787 0.950 . S
C3763 C3762 1.349 . S
C3763 C3779 1.349 . S
C3764 C3762 1.327 . S
C3764 C3783 1.429 . S
C3764 H3788 0.950 . S
C3765 C3782 1.574 . S
C3765 C3784 1.368 . S
C3765 H3789 0.949 . S
H3766 C3770 0.949 . S
C3767 C3768 1.349 . S
C3767 C3769 1.327 . S
C3767 H3790 0.950 . S
C3768 C3767 1.349 . S
C3768 C3780 1.349 . S
C3769 C3767 1.327 . S
C3769 C3785 1.429 . S
C3769 H3791 0.950 . S
C3770 H3766 0.949 . S
C3770 C3778 1.574 . S
C3770 C3786 1.368 . S
H3771 C3779 0.950 . S
H3772 C3777 0.950 . S
H3773 C3778 0.949 . S
H3774 C3780 0.950 . S
H3775 C3781 0.950 . S
H3776 C3782 0.949 . S
C3777 H3772 0.950 . S
C3777 C3779 1.327 . S
C3777 C3783 1.429 . S
C3778 C3770 1.574 . S
C3778 H3773 0.949 . S
C3778 C3784 1.368 . S
C3779 C3763 1.349 . S
C3779 H3771 0.950 . S
C3779 C3777 1.327 . S
C3780 C3768 1.349 . S
C3780 H3774 0.950 . S
C3780 C3781 1.327 . S
C3781 H3775 0.950 . S
C3781 C3780 1.327 . S
C3781 C3785 1.429 . S
C3782 C3765 1.574 . S
C3782 H3776 0.949 . S
C3782 C3786 1.368 . S
C3783 C3764 1.429 . S
C3783 C3777 1.429 . S
C3783 C3784 1.523 . S
C3784 C3765 1.368 . S
C3784 C3778 1.368 . S
C3784 C3783 1.523 . S
C3785 C3769 1.429 . S
C3785 C3781 1.429 . S
C3785 C3786 1.523 . S
C3786 C3770 1.368 . S
C3786 C3782 1.368 . S
C3786 C3785 1.523 . S
H3787 C3762 0.950 . S
H3788 C3764 0.950 . S
H3789 C3765 0.949 . S
H3790 C3767 0.950 . S
H3791 C3769 0.950 . S
C3792 C3793 1.349 . S
C3792 C3794 1.327 . S
C3792 H3817 0.950 . S
C3793 C3792 1.349 . S
C3793 C3809 1.349 . S
C3794 C3792 1.327 . S
C3794 C3813 1.429 . S
C3794 H3818 0.950 . S
C3795 C3812 1.574 . S
C3795 C3814 1.368 . S
C3795 H3819 0.949 . S
H3796 C3800 0.949 . S
C3797 C3798 1.349 . S
C3797 C3799 1.327 . S
C3797 H3820 0.950 . S
C3798 C3797 1.349 . S
C3798 C3810 1.349 . S
C3799 C3797 1.327 . S
C3799 C3815 1.429 . S
C3799 H3821 0.950 . S
C3800 H3796 0.949 . S
C3800 C3808 1.574 . S
C3800 C3816 1.368 . S
H3801 C3809 0.950 . S
H3802 C3807 0.950 . S
H3803 C3808 0.949 . S
H3804 C3810 0.950 . S
H3805 C3811 0.950 . S
H3806 C3812 0.949 . S
C3807 H3802 0.950 . S
C3807 C3809 1.327 . S
C3807 C3813 1.429 . S
C3808 C3800 1.574 . S
C3808 H3803 0.949 . S
C3808 C3814 1.368 . S
C3809 C3793 1.349 . S
C3809 H3801 0.950 . S
C3809 C3807 1.327 . S
C3810 C3798 1.349 . S
C3810 H3804 0.950 . S
C3810 C3811 1.327 . S
C3811 H3805 0.950 . S
C3811 C3810 1.327 . S
C3811 C3815 1.429 . S
C3812 C3795 1.574 . S
C3812 H3806 0.949 . S
C3812 C3816 1.368 . S
C3813 C3794 1.429 . S
C3813 C3807 1.429 . S
C3813 C3814 1.523 . S
C3814 C3795 1.368 . S
C3814 C3808 1.368 . S
C3814 C3813 1.523 . S
C3815 C3799 1.429 . S
C3815 C3811 1.429 . S
C3815 C3816 1.523 . S
C3816 C3800 1.368 . S
C3816 C3812 1.368 . S
C3816 C3815 1.523 . S
H3817 C3792 0.950 . S
H3818 C3794 0.950 . S
H3819 C3795 0.949 . S
H3820 C3797 0.950 . S
H3821 C3799 0.950 . S
C3822 C3823 1.349 . S
C3822 C3824 1.327 . S
C3822 H3847 0.950 . S
C3823 C3822 1.349 . S
C3823 C3839 1.349 . S
C3824 C3822 1.327 . S
C3824 C3843 1.429 . S
C3824 H3848 0.950 . S
C3825 C3842 1.574 . S
C3825 C3844 1.368 . S
C3825 H3849 0.949 . S
H3826 C3830 0.949 . S
C3827 C3828 1.349 . S
C3827 C3829 1.327 . S
C3827 H3850 0.950 . S
C3828 C3827 1.349 . S
C3828 C3840 1.349 . S
C3829 C3827 1.327 . S
C3829 C3845 1.429 . S
C3829 H3851 0.950 . S
C3830 H3826 0.949 . S
C3830 C3838 1.574 . S
C3830 C3846 1.368 . S
H3831 C3839 0.950 . S
H3832 C3837 0.950 . S
H3833 C3838 0.949 . S
H3834 C3840 0.950 . S
H3835 C3841 0.950 . S
H3836 C3842 0.949 . S
C3837 H3832 0.950 . S
C3837 C3839 1.327 . S
C3837 C3843 1.429 . S
C3838 C3830 1.574 . S
C3838 H3833 0.949 . S
C3838 C3844 1.368 . S
C3839 C3823 1.349 . S
C3839 H3831 0.950 . S
C3839 C3837 1.327 . S
C3840 C3828 1.349 . S
C3840 H3834 0.950 . S
C3840 C3841 1.327 . S
C3841 H3835 0.950 . S
C3841 C3840 1.327 . S
C3841 C3845 1.429 . S
C3842 C3825 1.574 . S
C3842 H3836 0.949 . S
C3842 C3846 1.368 . S
C3843 C3824 1.429 . S
C3843 C3837 1.429 . S
C3843 C3844 1.523 . S
C3844 C3825 1.368 . S
C3844 C3838 1.368 . S
C3844 C3843 1.523 . S
C3845 C3829 1.429 . S
C3845 C3841 1.429 . S
C3845 C3846 1.523 . S
C3846 C3830 1.368 . S
C3846 C3842 1.368 . S
C3846 C3845 1.523 . S
H3847 C3822 0.950 . S
H3848 C3824 0.950 . S
H3849 C3825 0.949 . S
H3850 C3827 0.950 . S
H3851 C3829 0.950 . S
C3852 C3853 1.349 . S
C3852 C3854 1.327 . S
C3852 H3877 0.950 . S
C3853 C3852 1.349 . S
C3853 C3869 1.349 . S
C3854 C3852 1.327 . S
C3854 C3873 1.429 . S
C3854 H3878 0.950 . S
C3855 C3872 1.574 . S
C3855 C3874 1.368 . S
C3855 H3879 0.949 . S
H3856 C3860 0.949 . S
C3857 C3858 1.349 . S
C3857 C3859 1.327 . S
C3857 H3880 0.950 . S
C3858 C3857 1.349 . S
C3858 C3870 1.349 . S
C3859 C3857 1.327 . S
C3859 C3875 1.429 . S
C3859 H3881 0.950 . S
C3860 H3856 0.949 . S
C3860 C3868 1.574 . S
C3860 C3876 1.368 . S
H3861 C3869 0.950 . S
H3862 C3867 0.950 . S
H3863 C3868 0.949 . S
H3864 C3870 0.950 . S
H3865 C3871 0.950 . S
H3866 C3872 0.949 . S
C3867 H3862 0.950 . S
C3867 C3869 1.327 . S
C3867 C3873 1.429 . S
C3868 C3860 1.574 . S
C3868 H3863 0.949 . S
C3868 C3874 1.368 . S
C3869 C3853 1.349 . S
C3869 H3861 0.950 . S
C3869 C3867 1.327 . S
C3870 C3858 1.349 . S
C3870 H3864 0.950 . S
C3870 C3871 1.327 . S
C3871 H3865 0.950 . S
C3871 C3870 1.327 . S
C3871 C3875 1.429 . S
C3872 C3855 1.574 . S
C3872 H3866 0.949 . S
C3872 C3876 1.368 . S
C3873 C3854 1.429 . S
C3873 C3867 1.429 . S
C3873 C3874 1.523 . S
C3874 C3855 1.368 . S
C3874 C3868 1.368 . S
C3874 C3873 1.523 . S
C3875 C3859 1.429 . S
C3875 C3871 1.429 . S
C3875 C3876 1.523 . S
C3876 C3860 1.368 . S
C3876 C3872 1.368 . S
C3876 C3875 1.523 . S
H3877 C3852 0.950 . S
H3878 C3854 0.950 . S
H3879 C3855 0.949 . S
H3880 C3857 0.950 . S
H3881 C3859 0.950 . S
C3882 C3883 1.349 . S
C3882 C3884 1.327 . S
C3882 H3907 0.950 . S
C3883 C3882 1.349 . S
C3883 C3899 1.349 . S
C3884 C3882 1.327 . S
C3884 C3903 1.429 . S
C3884 H3908 0.950 . S
C3885 C3902 1.574 . S
C3885 C3904 1.368 . S
C3885 H3909 0.949 . S
H3886 C3890 0.949 . S
C3887 C3888 1.349 . S
C3887 C3889 1.327 . S
C3887 H3910 0.950 . S
C3888 C3887 1.349 . S
C3888 C3900 1.349 . S
C3889 C3887 1.327 . S
C3889 C3905 1.429 . S
C3889 H3911 0.950 . S
C3890 H3886 0.949 . S
C3890 C3898 1.574 . S
C3890 C3906 1.368 . S
H3891 C3899 0.950 . S
H3892 C3897 0.950 . S
H3893 C3898 0.949 . S
H3894 C3900 0.950 . S
H3895 C3901 0.950 . S
H3896 C3902 0.949 . S
C3897 H3892 0.950 . S
C3897 C3899 1.327 . S
C3897 C3903 1.429 . S
C3898 C3890 1.574 . S
C3898 H3893 0.949 . S
C3898 C3904 1.368 . S
C3899 C3883 1.349 . S
C3899 H3891 0.950 . S
C3899 C3897 1.327 . S
C3900 C3888 1.349 . S
C3900 H3894 0.950 . S
C3900 C3901 1.327 . S
C3901 H3895 0.950 . S
C3901 C3900 1.327 . S
C3901 C3905 1.429 . S
C3902 C3885 1.574 . S
C3902 H3896 0.949 . S
C3902 C3906 1.368 . S
C3903 C3884 1.429 . S
C3903 C3897 1.429 . S
C3903 C3904 1.523 . S
C3904 C3885 1.368 . S
C3904 C3898 1.368 . S
C3904 C3903 1.523 . S
C3905 C3889 1.429 . S
C3905 C3901 1.429 . S
C3905 C3906 1.523 . S
C3906 C3890 1.368 . S
C3906 C3902 1.368 . S
C3906 C3905 1.523 . S
H3907 C3882 0.950 . S
H3908 C3884 0.950 . S
H3909 C3885 0.949 . S
H3910 C3887 0.950 . S
H3911 C3889 0.950 . S
C3912 C3913 1.349 . S
C3912 C3914 1.327 . S
C3912 H3937 0.950 . S
C3913 C3912 1.349 . S
C3913 C3929 1.349 . S
C3914 C3912 1.327 . S
C3914 C3933 1.429 . S
C3914 H3938 0.950 . S
C3915 C3932 1.574 . S
C3915 C3934 1.368 . S
C3915 H3939 0.949 . S
H3916 C3920 0.949 . S
C3917 C3918 1.349 . S
C3917 C3919 1.327 . S
C3917 H3940 0.950 . S
C3918 C3917 1.349 . S
C3918 C3930 1.349 . S
C3919 C3917 1.327 . S
C3919 C3935 1.429 . S
C3919 H3941 0.950 . S
C3920 H3916 0.949 . S
C3920 C3928 1.574 . S
C3920 C3936 1.368 . S
H3921 C3929 0.950 . S
H3922 C3927 0.950 . S
H3923 C3928 0.949 . S
H3924 C3930 0.950 . S
H3925 C3931 0.950 . S
H3926 C3932 0.949 . S
C3927 H3922 0.950 . S
C3927 C3929 1.327 . S
C3927 C3933 1.429 . S
C3928 C3920 1.574 . S
C3928 H3923 0.949 . S
C3928 C3934 1.368 . S
C3929 C3913 1.349 . S
C3929 H3921 0.950 . S
C3929 C3927 1.327 . S
C3930 C3918 1.349 . S
C3930 H3924 0.950 . S
C3930 C3931 1.327 . S
C3931 H3925 0.950 . S
C3931 C3930 1.327 . S
C3931 C3935 1.429 . S
C3932 C3915 1.574 . S
C3932 H3926 0.949 . S
C3932 C3936 1.368 . S
C3933 C3914 1.429 . S
C3933 C3927 1.429 . S
C3933 C3934 1.523 . S
C3934 C3915 1.368 . S
C3934 C3928 1.368 . S
C3934 C3933 1.523 . S
C3935 C3919 1.429 . S
C3935 C3931 1.429 . S
C3935 C3936 1.523 . S
C3936 C3920 1.368 . S
C3936 C3932 1.368 . S
C3936 C3935 1.523 . S
H3937 C3912 0.950 . S
H3938 C3914 0.950 . S
H3939 C3915 0.949 . S
H3940 C3917 0.950 . S
H3941 C3919 0.950 . S
C3942 C3943 1.349 . S
C3942 C3944 1.327 . S
C3942 H3967 0.950 . S
C3943 C3942 1.349 . S
C3943 C3959 1.349 . S
C3944 C3942 1.327 . S
C3944 C3963 1.429 . S
C3944 H3968 0.950 . S
C3945 C3962 1.574 . S
C3945 C3964 1.368 . S
C3945 H3969 0.949 . S
H3946 C3950 0.949 . S
C3947 C3948 1.349 . S
C3947 C3949 1.327 . S
C3947 H3970 0.950 . S
C3948 C3947 1.349 . S
C3948 C3960 1.349 . S
C3949 C3947 1.327 . S
C3949 C3965 1.429 . S
C3949 H3971 0.950 . S
C3950 H3946 0.949 . S
C3950 C3958 1.574 . S
C3950 C3966 1.368 . S
H3951 C3959 0.950 . S
H3952 C3957 0.950 . S
H3953 C3958 0.949 . S
H3954 C3960 0.950 . S
H3955 C3961 0.950 . S
H3956 C3962 0.949 . S
C3957 H3952 0.950 . S
C3957 C3959 1.327 . S
C3957 C3963 1.429 . S
C3958 C3950 1.574 . S
C3958 H3953 0.949 . S
C3958 C3964 1.368 . S
C3959 C3943 1.349 . S
C3959 H3951 0.950 . S
C3959 C3957 1.327 . S
C3960 C3948 1.349 . S
C3960 H3954 0.950 . S
C3960 C3961 1.327 . S
C3961 H3955 0.950 . S
C3961 C3960 1.327 . S
C3961 C3965 1.429 . S
C3962 C3945 1.574 . S
C3962 H3956 0.949 . S
C3962 C3966 1.368 . S
C3963 C3944 1.429 . S
C3963 C3957 1.429 . S
C3963 C3964 1.523 . S
C3964 C3945 1.368 . S
C3964 C3958 1.368 . S
C3964 C3963 1.523 . S
C3965 C3949 1.429 . S
C3965 C3961 1.429 . S
C3965 C3966 1.523 . S
C3966 C3950 1.368 . S
C3966 C3962 1.368 . S
C3966 C3965 1.523 . S
H3967 C3942 0.950 . S
H3968 C3944 0.950 . S
H3969 C3945 0.949 . S
H3970 C3947 0.950 . S
H3971 C3949 0.950 . S
C3972 C3973 1.349 . S
C3972 C3974 1.327 . S
C3972 H3997 0.950 . S
C3973 C3972 1.349 . S
C3973 C3989 1.349 . S
C3974 C3972 1.327 . S
C3974 C3993 1.429 . S
C3974 H3998 0.950 . S
C3975 C3992 1.574 . S
C3975 C3994 1.368 . S
C3975 H3999 0.949 . S
H3976 C3980 0.949 . S
C3977 C3978 1.349 . S
C3977 C3979 1.327 . S
C3977 H4000 0.950 . S
C3978 C3977 1.349 . S
C3978 C3990 1.349 . S
C3979 C3977 1.327 . S
C3979 C3995 1.429 . S
C3979 H4001 0.950 . S
C3980 H3976 0.949 . S
C3980 C3988 1.574 . S
C3980 C3996 1.368 . S
H3981 C3989 0.950 . S
H3982 C3987 0.950 . S
H3983 C3988 0.949 . S
H3984 C3990 0.950 . S
H3985 C3991 0.950 . S
H3986 C3992 0.949 . S
C3987 H3982 0.950 . S
C3987 C3989 1.327 . S
C3987 C3993 1.429 . S
C3988 C3980 1.574 . S
C3988 H3983 0.949 . S
C3988 C3994 1.368 . S
C3989 C3973 1.349 . S
C3989 H3981 0.950 . S
C3989 C3987 1.327 . S
C3990 C3978 1.349 . S
C3990 H3984 0.950 . S
C3990 C3991 1.327 . S
C3991 H3985 0.950 . S
C3991 C3990 1.327 . S
C3991 C3995 1.429 . S
C3992 C3975 1.574 . S
C3992 H3986 0.949 . S
C3992 C3996 1.368 . S
C3993 C3974 1.429 . S
C3993 C3987 1.429 . S
C3993 C3994 1.523 . S
C3994 C3975 1.368 . S
C3994 C3988 1.368 . S
C3994 C3993 1.523 . S
C3995 C3979 1.429 . S
C3995 C3991 1.429 . S
C3995 C3996 1.523 . S
C3996 C3980 1.368 . S
C3996 C3992 1.368 . S
C3996 C3995 1.523 . S
H3997 C3972 0.950 . S
H3998 C3974 0.950 . S
H3999 C3975 0.949 . S
H4000 C3977 0.950 . S
H4001 C3979 0.950 . S
C4002 C4003 1.349 . S
C4002 C4004 1.327 . S
C4002 H4027 0.950 . S
C4003 C4002 1.349 . S
C4003 C4019 1.349 . S
C4004 C4002 1.327 . S
C4004 C4023 1.429 . S
C4004 H4028 0.950 . S
C4005 C4022 1.574 . S
C4005 C4024 1.368 . S
C4005 H4029 0.949 . S
H4006 C4010 0.949 . S
C4007 C4008 1.349 . S
C4007 C4009 1.327 . S
C4007 H4030 0.950 . S
C4008 C4007 1.349 . S
C4008 C4020 1.349 . S
C4009 C4007 1.327 . S
C4009 C4025 1.429 . S
C4009 H4031 0.950 . S
C4010 H4006 0.949 . S
C4010 C4018 1.574 . S
C4010 C4026 1.368 . S
H4011 C4019 0.950 . S
H4012 C4017 0.950 . S
H4013 C4018 0.949 . S
H4014 C4020 0.950 . S
H4015 C4021 0.950 . S
H4016 C4022 0.949 . S
C4017 H4012 0.950 . S
C4017 C4019 1.327 . S
C4017 C4023 1.429 . S
C4018 C4010 1.574 . S
C4018 H4013 0.949 . S
C4018 C4024 1.368 . S
C4019 C4003 1.349 . S
C4019 H4011 0.950 . S
C4019 C4017 1.327 . S
C4020 C4008 1.349 . S
C4020 H4014 0.950 . S
C4020 C4021 1.327 . S
C4021 H4015 0.950 . S
C4021 C4020 1.327 . S
C4021 C4025 1.429 . S
C4022 C4005 1.574 . S
C4022 H4016 0.949 . S
C4022 C4026 1.368 . S
C4023 C4004 1.429 . S
C4023 C4017 1.429 . S
C4023 C4024 1.523 . S
C4024 C4005 1.368 . S
C4024 C4018 1.368 . S
C4024 C4023 1.523 . S
C4025 C4009 1.429 . S
C4025 C4021 1.429 . S
C4025 C4026 1.523 . S
C4026 C4010 1.368 . S
C4026 C4022 1.368 . S
C4026 C4025 1.523 . S
H4027 C4002 0.950 . S
H4028 C4004 0.950 . S
H4029 C4005 0.949 . S
H4030 C4007 0.950 . S
H4031 C4009 0.950 . S
C4032 C4033 1.349 . S
C4032 C4034 1.327 . S
C4032 H4057 0.950 . S
C4033 C4032 1.349 . S
C4033 C4049 1.349 . S
C4034 C4032 1.327 . S
C4034 C4053 1.429 . S
C4034 H4058 0.950 . S
C4035 C4052 1.574 . S
C4035 C4054 1.368 . S
C4035 H4059 0.949 . S
H4036 C4040 0.949 . S
C4037 C4038 1.349 . S
C4037 C4039 1.327 . S
C4037 H4060 0.950 . S
C4038 C4037 1.349 . S
C4038 C4050 1.349 . S
C4039 C4037 1.327 . S
C4039 C4055 1.429 . S
C4039 H4061 0.950 . S
C4040 H4036 0.949 . S
C4040 C4048 1.574 . S
C4040 C4056 1.368 . S
H4041 C4049 0.950 . S
H4042 C4047 0.950 . S
H4043 C4048 0.949 . S
H4044 C4050 0.950 . S
H4045 C4051 0.950 . S
H4046 C4052 0.949 . S
C4047 H4042 0.950 . S
C4047 C4049 1.327 . S
C4047 C4053 1.429 . S
C4048 C4040 1.574 . S
C4048 H4043 0.949 . S
C4048 C4054 1.368 . S
C4049 C4033 1.349 . S
C4049 H4041 0.950 . S
C4049 C4047 1.327 . S
C4050 C4038 1.349 . S
C4050 H4044 0.950 . S
C4050 C4051 1.327 . S
C4051 H4045 0.950 . S
C4051 C4050 1.327 . S
C4051 C4055 1.429 . S
C4052 C4035 1.574 . S
C4052 H4046 0.949 . S
C4052 C4056 1.368 . S
C4053 C4034 1.429 . S
C4053 C4047 1.429 . S
C4053 C4054 1.523 . S
C4054 C4035 1.368 . S
C4054 C4048 1.368 . S
C4054 C4053 1.523 . S
C4055 C4039 1.429 . S
C4055 C4051 1.429 . S
C4055 C4056 1.523 . S
C4056 C4040 1.368 . S
C4056 C4052 1.368 . S
C4056 C4055 1.523 . S
H4057 C4032 0.950 . S
H4058 C4034 0.950 . S
H4059 C4035 0.949 . S
H4060 C4037 0.950 . S
H4061 C4039 0.950 . S
C4062 C4063 1.349 . S
C4062 C4064 1.327 . S
C4062 H4087 0.950 . S
C4063 C4062 1.349 . S
C4063 C4079 1.349 . S
C4064 C4062 1.327 . S
C4064 C4083 1.429 . S
C4064 H4088 0.950 . S
C4065 C4082 1.574 . S
C4065 C4084 1.368 . S
C4065 H4089 0.949 . S
H4066 C4070 0.949 . S
C4067 C4068 1.349 . S
C4067 C4069 1.327 . S
C4067 H4090 0.950 . S
C4068 C4067 1.349 . S
C4068 C4080 1.349 . S
C4069 C4067 1.327 . S
C4069 C4085 1.429 . S
C4069 H4091 0.950 . S
C4070 H4066 0.949 . S
C4070 C4078 1.574 . S
C4070 C4086 1.368 . S
H4071 C4079 0.950 . S
H4072 C4077 0.950 . S
H4073 C4078 0.949 . S
H4074 C4080 0.950 . S
H4075 C4081 0.950 . S
H4076 C4082 0.949 . S
C4077 H4072 0.950 . S
C4077 C4079 1.327 . S
C4077 C4083 1.429 . S
C4078 C4070 1.574 . S
C4078 H4073 0.949 . S
C4078 C4084 1.368 . S
C4079 C4063 1.349 . S
C4079 H4071 0.950 . S
C4079 C4077 1.327 . S
C4080 C4068 1.349 . S
C4080 H4074 0.950 . S
C4080 C4081 1.327 . S
C4081 H4075 0.950 . S
C4081 C4080 1.327 . S
C4081 C4085 1.429 . S
C4082 C4065 1.574 . S
C4082 H4076 0.949 . S
C4082 C4086 1.368 . S
C4083 C4064 1.429 . S
C4083 C4077 1.429 . S
C4083 C4084 1.523 . S
C4084 C4065 1.368 . S
C4084 C4078 1.368 . S
C4084 C4083 1.523 . S
C4085 C4069 1.429 . S
C4085 C4081 1.429 . S
C4085 C4086 1.523 . S
C4086 C4070 1.368 . S
C4086 C4082 1.368 . S
C4086 C4085 1.523 . S
H4087 C4062 0.950 . S
H4088 C4064 0.950 . S
H4089 C4065 0.949 . S
H4090 C4067 0.950 . S
H4091 C4069 0.950 . S
C4092 C4093 1.349 . S
C4092 C4094 1.327 . S
C4092 H4117 0.950 . S
C4093 C4092 1.349 . S
C4093 C4109 1.349 . S
C4094 C4092 1.327 . S
C4094 C4113 1.429 . S
C4094 H4118 0.950 . S
C4095 C4112 1.574 . S
C4095 C4114 1.368 . S
C4095 H4119 0.949 . S
H4096 C4100 0.949 . S
C4097 C4098 1.349 . S
C4097 C4099 1.327 . S
C4097 H4120 0.950 . S
C4098 C4097 1.349 . S
C4098 C4110 1.349 . S
C4099 C4097 1.327 . S
C4099 C4115 1.429 . S
C4099 H4121 0.950 . S
C4100 H4096 0.949 . S
C4100 C4108 1.574 . S
C4100 C4116 1.368 . S
H4101 C4109 0.950 . S
H4102 C4107 0.950 . S
H4103 C4108 0.949 . S
H4104 C4110 0.950 . S
H4105 C4111 0.950 . S
H4106 C4112 0.949 . S
C4107 H4102 0.950 . S
C4107 C4109 1.327 . S
C4107 C4113 1.429 . S
C4108 C4100 1.574 . S
C4108 H4103 0.949 . S
C4108 C4114 1.368 . S
C4109 C4093 1.349 . S
C4109 H4101 0.950 . S
C4109 C4107 1.327 . S
C4110 C4098 1.349 . S
C4110 H4104 0.950 . S
C4110 C4111 1.327 . S
C4111 H4105 0.950 . S
C4111 C4110 1.327 . S
C4111 C4115 1.429 . S
C4112 C4095 1.574 . S
C4112 H4106 0.949 . S
C4112 C4116 1.368 . S
C4113 C4094 1.429 . S
C4113 C4107 1.429 . S
C4113 C4114 1.523 . S
C4114 C4095 1.368 . S
C4114 C4108 1.368 . S
C4114 C4113 1.523 . S
C4115 C4099 1.429 . S
C4115 C4111 1.429 . S
C4115 C4116 1.523 . S
C4116 C4100 1.368 . S
C4116 C4112 1.368 . S
C4116 C4115 1.523 . S
H4117 C4092 0.950 . S
H4118 C4094 0.950 . S
H4119 C4095 0.949 . S
H4120 C4097 0.950 . S
H4121 C4099 0.950 . S
C4122 C4123 1.349 . S
C4122 C4124 1.327 . S
C4122 H4147 0.950 . S
C4123 C4122 1.349 . S
C4123 C4139 1.349 . S
C4124 C4122 1.327 . S
C4124 C4143 1.429 . S
C4124 H4148 0.950 . S
C4125 C4142 1.574 . S
C4125 C4144 1.368 . S
C4125 H4149 0.949 . S
H4126 C4130 0.949 . S
C4127 C4128 1.349 . S
C4127 C4129 1.327 . S
C4127 H4150 0.950 . S
C4128 C4127 1.349 . S
C4128 C4140 1.349 . S
C4129 C4127 1.327 . S
C4129 C4145 1.429 . S
C4129 H4151 0.950 . S
C4130 H4126 0.949 . S
C4130 C4138 1.574 . S
C4130 C4146 1.368 . S
H4131 C4139 0.950 . S
H4132 C4137 0.950 . S
H4133 C4138 0.949 . S
H4134 C4140 0.950 . S
H4135 C4141 0.950 . S
H4136 C4142 0.949 . S
C4137 H4132 0.950 . S
C4137 C4139 1.327 . S
C4137 C4143 1.429 . S
C4138 C4130 1.574 . S
C4138 H4133 0.949 . S
C4138 C4144 1.368 . S
C4139 C4123 1.349 . S
C4139 H4131 0.950 . S
C4139 C4137 1.327 . S
C4140 C4128 1.349 . S
C4140 H4134 0.950 . S
C4140 C4141 1.327 . S
C4141 H4135 0.950 . S
C4141 C4140 1.327 . S
C4141 C4145 1.429 . S
C4142 C4125 1.574 . S
C4142 H4136 0.949 . S
C4142 C4146 1.368 . S
C4143 C4124 1.429 . S
C4143 C4137 1.429 . S
C4143 C4144 1.523 . S
C4144 C4125 1.368 . S
C4144 C4138 1.368 . S
C4144 C4143 1.523 . S
C4145 C4129 1.429 . S
C4145 C4141 1.429 . S
C4145 C4146 1.523 . S
C4146 C4130 1.368 . S
C4146 C4142 1.368 . S
C4146 C4145 1.523 . S
H4147 C4122 0.950 . S
H4148 C4124 0.950 . S
H4149 C4125 0.949 . S
H4150 C4127 0.950 . S
H4151 C4129 0.950 . S
C4152 C4153 1.349 . S
C4152 C4154 1.327 . S
C4152 H4177 0.950 . S
C4153 C4152 1.349 . S
C4153 C4169 1.349 . S
C4154 C4152 1.327 . S
C4154 C4173 1.429 . S
C4154 H4178 0.950 . S
C4155 C4172 1.574 . S
C4155 C4174 1.368 . S
C4155 H4179 0.949 . S
H4156 C4160 0.949 . S
C4157 C4158 1.349 . S
C4157 C4159 1.327 . S
C4157 H4180 0.950 . S
C4158 C4157 1.349 . S
C4158 C4170 1.349 . S
C4159 C4157 1.327 . S
C4159 C4175 1.429 . S
C4159 H4181 0.950 . S
C4160 H4156 0.949 . S
C4160 C4168 1.574 . S
C4160 C4176 1.368 . S
H4161 C4169 0.950 . S
H4162 C4167 0.950 . S
H4163 C4168 0.949 . S
H4164 C4170 0.950 . S
H4165 C4171 0.950 . S
H4166 C4172 0.949 . S
C4167 H4162 0.950 . S
C4167 C4169 1.327 . S
C4167 C4173 1.429 . S
C4168 C4160 1.574 . S
C4168 H4163 0.949 . S
C4168 C4174 1.368 . S
C4169 C4153 1.349 . S
C4169 H4161 0.950 . S
C4169 C4167 1.327 . S
C4170 C4158 1.349 . S
C4170 H4164 0.950 . S
C4170 C4171 1.327 . S
C4171 H4165 0.950 . S
C4171 C4170 1.327 . S
C4171 C4175 1.429 . S
C4172 C4155 1.574 . S
C4172 H4166 0.949 . S
C4172 C4176 1.368 . S
C4173 C4154 1.429 . S
C4173 C4167 1.429 . S
C4173 C4174 1.523 . S
C4174 C4155 1.368 . S
C4174 C4168 1.368 . S
C4174 C4173 1.523 . S
C4175 C4159 1.429 . S
C4175 C4171 1.429 . S
C4175 C4176 1.523 . S
C4176 C4160 1.368 . S
C4176 C4172 1.368 . S
C4176 C4175 1.523 . S
H4177 C4152 0.950 . S
H4178 C4154 0.950 . S
H4179 C4155 0.949 . S
H4180 C4157 0.950 . S
H4181 C4159 0.950 . S
C4182 C4183 1.349 . S
C4182 C4184 1.327 . S
C4182 H4207 0.950 . S
C4183 C4182 1.349 . S
C4183 C4199 1.349 . S
C4184 C4182 1.327 . S
C4184 C4203 1.429 . S
C4184 H4208 0.950 . S
C4185 C4202 1.574 . S
C4185 C4204 1.368 . S
C4185 H4209 0.949 . S
H4186 C4190 0.949 . S
C4187 C4188 1.349 . S
C4187 C4189 1.327 . S
C4187 H4210 0.950 . S
C4188 C4187 1.349 . S
C4188 C4200 1.349 . S
C4189 C4187 1.327 . S
C4189 C4205 1.429 . S
C4189 H4211 0.950 . S
C4190 H4186 0.949 . S
C4190 C4198 1.574 . S
C4190 C4206 1.368 . S
H4191 C4199 0.950 . S
H4192 C4197 0.950 . S
H4193 C4198 0.949 . S
H4194 C4200 0.950 . S
H4195 C4201 0.950 . S
H4196 C4202 0.949 . S
C4197 H4192 0.950 . S
C4197 C4199 1.327 . S
C4197 C4203 1.429 . S
C4198 C4190 1.574 . S
C4198 H4193 0.949 . S
C4198 C4204 1.368 . S
C4199 C4183 1.349 . S
C4199 H4191 0.950 . S
C4199 C4197 1.327 . S
C4200 C4188 1.349 . S
C4200 H4194 0.950 . S
C4200 C4201 1.327 . S
C4201 H4195 0.950 . S
C4201 C4200 1.327 . S
C4201 C4205 1.429 . S
C4202 C4185 1.574 . S
C4202 H4196 0.949 . S
C4202 C4206 1.368 . S
C4203 C4184 1.429 . S
C4203 C4197 1.429 . S
C4203 C4204 1.523 . S
C4204 C4185 1.368 . S
C4204 C4198 1.368 . S
C4204 C4203 1.523 . S
C4205 C4189 1.429 . S
C4205 C4201 1.429 . S
C4205 C4206 1.523 . S
C4206 C4190 1.368 . S
C4206 C4202 1.368 . S
C4206 C4205 1.523 . S
H4207 C4182 0.950 . S
H4208 C4184 0.950 . S
H4209 C4185 0.949 . S
H4210 C4187 0.950 . S
H4211 C4189 0.950 . S
C4212 C4213 1.349 . S
C4212 C4214 1.327 . S
C4212 H4237 0.950 . S
C4213 C4212 1.349 . S
C4213 C4229 1.349 . S
C4214 C4212 1.327 . S
C4214 C4233 1.429 . S
C4214 H4238 0.950 . S
C4215 C4232 1.574 . S
C4215 C4234 1.368 . S
C4215 H4239 0.949 . S
H4216 C4220 0.949 . S
C4217 C4218 1.349 . S
C4217 C4219 1.327 . S
C4217 H4240 0.950 . S
C4218 C4217 1.349 . S
C4218 C4230 1.349 . S
C4219 C4217 1.327 . S
C4219 C4235 1.429 . S
C4219 H4241 0.950 . S
C4220 H4216 0.949 . S
C4220 C4228 1.574 . S
C4220 C4236 1.368 . S
H4221 C4229 0.950 . S
H4222 C4227 0.950 . S
H4223 C4228 0.949 . S
H4224 C4230 0.950 . S
H4225 C4231 0.950 . S
H4226 C4232 0.949 . S
C4227 H4222 0.950 . S
C4227 C4229 1.327 . S
C4227 C4233 1.429 . S
C4228 C4220 1.574 . S
C4228 H4223 0.949 . S
C4228 C4234 1.368 . S
C4229 C4213 1.349 . S
C4229 H4221 0.950 . S
C4229 C4227 1.327 . S
C4230 C4218 1.349 . S
C4230 H4224 0.950 . S
C4230 C4231 1.327 . S
C4231 H4225 0.950 . S
C4231 C4230 1.327 . S
C4231 C4235 1.429 . S
C4232 C4215 1.574 . S
C4232 H4226 0.949 . S
C4232 C4236 1.368 . S
C4233 C4214 1.429 . S
C4233 C4227 1.429 . S
C4233 C4234 1.523 . S
C4234 C4215 1.368 . S
C4234 C4228 1.368 . S
C4234 C4233 1.523 . S
C4235 C4219 1.429 . S
C4235 C4231 1.429 . S
C4235 C4236 1.523 . S
C4236 C4220 1.368 . S
C4236 C4232 1.368 . S
C4236 C4235 1.523 . S
H4237 C4212 0.950 . S
H4238 C4214 0.950 . S
H4239 C4215 0.949 . S
H4240 C4217 0.950 . S
H4241 C4219 0.950 . S
C4242 C4243 1.349 . S
C4242 C4244 1.327 . S
C4242 H4267 0.950 . S
C4243 C4242 1.349 . S
C4243 C4259 1.349 . S
C4244 C4242 1.327 . S
C4244 C4263 1.429 . S
C4244 H4268 0.950 . S
C4245 C4262 1.574 . S
C4245 C4264 1.368 . S
C4245 H4269 0.949 . S
H4246 C4250 0.949 . S
C4247 C4248 1.349 . S
C4247 C4249 1.327 . S
C4247 H4270 0.950 . S
C4248 C4247 1.349 . S
C4248 C4260 1.349 . S
C4249 C4247 1.327 . S
C4249 C4265 1.429 . S
C4249 H4271 0.950 . S
C4250 H4246 0.949 . S
C4250 C4258 1.574 . S
C4250 C4266 1.368 . S
H4251 C4259 0.950 . S
H4252 C4257 0.950 . S
H4253 C4258 0.949 . S
H4254 C4260 0.950 . S
H4255 C4261 0.950 . S
H4256 C4262 0.949 . S
C4257 H4252 0.950 . S
C4257 C4259 1.327 . S
C4257 C4263 1.429 . S
C4258 C4250 1.574 . S
C4258 H4253 0.949 . S
C4258 C4264 1.368 . S
C4259 C4243 1.349 . S
C4259 H4251 0.950 . S
C4259 C4257 1.327 . S
C4260 C4248 1.349 . S
C4260 H4254 0.950 . S
C4260 C4261 1.327 . S
C4261 H4255 0.950 . S
C4261 C4260 1.327 . S
C4261 C4265 1.429 . S
C4262 C4245 1.574 . S
C4262 H4256 0.949 . S
C4262 C4266 1.368 . S
C4263 C4244 1.429 . S
C4263 C4257 1.429 . S
C4263 C4264 1.523 . S
C4264 C4245 1.368 . S
C4264 C4258 1.368 . S
C4264 C4263 1.523 . S
C4265 C4249 1.429 . S
C4265 C4261 1.429 . S
C4265 C4266 1.523 . S
C4266 C4250 1.368 . S
C4266 C4262 1.368 . S
C4266 C4265 1.523 . S
H4267 C4242 0.950 . S
H4268 C4244 0.950 . S
H4269 C4245 0.949 . S
H4270 C4247 0.950 . S
H4271 C4249 0.950 . S
C4272 C4273 1.349 . S
C4272 C4274 1.327 . S
C4272 H4297 0.950 . S
C4273 C4272 1.349 . S
C4273 C4289 1.349 . S
C4274 C4272 1.327 . S
C4274 C4293 1.429 . S
C4274 H4298 0.950 . S
C4275 C4292 1.574 . S
C4275 C4294 1.368 . S
C4275 H4299 0.949 . S
H4276 C4280 0.949 . S
C4277 C4278 1.349 . S
C4277 C4279 1.327 . S
C4277 H4300 0.950 . S
C4278 C4277 1.349 . S
C4278 C4290 1.349 . S
C4279 C4277 1.327 . S
C4279 C4295 1.429 . S
C4279 H4301 0.950 . S
C4280 H4276 0.949 . S
C4280 C4288 1.574 . S
C4280 C4296 1.368 . S
H4281 C4289 0.950 . S
H4282 C4287 0.950 . S
H4283 C4288 0.949 . S
H4284 C4290 0.950 . S
H4285 C4291 0.950 . S
H4286 C4292 0.949 . S
C4287 H4282 0.950 . S
C4287 C4289 1.327 . S
C4287 C4293 1.429 . S
C4288 C4280 1.574 . S
C4288 H4283 0.949 . S
C4288 C4294 1.368 . S
C4289 C4273 1.349 . S
C4289 H4281 0.950 . S
C4289 C4287 1.327 . S
C4290 C4278 1.349 . S
C4290 H4284 0.950 . S
C4290 C4291 1.327 . S
C4291 H4285 0.950 . S
C4291 C4290 1.327 . S
C4291 C4295 1.429 . S
C4292 C4275 1.574 . S
C4292 H4286 0.949 . S
C4292 C4296 1.368 . S
C4293 C4274 1.429 . S
C4293 C4287 1.429 . S
C4293 C4294 1.523 . S
C4294 C4275 1.368 . S
C4294 C4288 1.368 . S
C4294 C4293 1.523 . S
C4295 C4279 1.429 . S
C4295 C4291 1.429 . S
C4295 C4296 1.523 . S
C4296 C4280 1.368 . S
C4296 C4292 1.368 . S
C4296 C4295 1.523 . S
H4297 C4272 0.950 . S
H4298 C4274 0.950 . S
H4299 C4275 0.949 . S
H4300 C4277 0.950 . S
H4301 C4279 0.950 . S
C4302 C4303 1.349 . S
C4302 C4304 1.327 . S
C4302 H4327 0.950 . S
C4303 C4302 1.349 . S
C4303 C4319 1.349 . S
C4304 C4302 1.327 . S
C4304 C4323 1.429 . S
C4304 H4328 0.950 . S
C4305 C4322 1.574 . S
C4305 C4324 1.368 . S
C4305 H4329 0.949 . S
H4306 C4310 0.949 . S
C4307 C4308 1.349 . S
C4307 C4309 1.327 . S
C4307 H4330 0.950 . S
C4308 C4307 1.349 . S
C4308 C4320 1.349 . S
C4309 C4307 1.327 . S
C4309 C4325 1.429 . S
C4309 H4331 0.950 . S
C4310 H4306 0.949 . S
C4310 C4318 1.574 . S
C4310 C4326 1.368 . S
H4311 C4319 0.950 . S
H4312 C4317 0.950 . S
H4313 C4318 0.949 . S
H4314 C4320 0.950 . S
H4315 C4321 0.950 . S
H4316 C4322 0.949 . S
C4317 H4312 0.950 . S
C4317 C4319 1.327 . S
C4317 C4323 1.429 . S
C4318 C4310 1.574 . S
C4318 H4313 0.949 . S
C4318 C4324 1.368 . S
C4319 C4303 1.349 . S
C4319 H4311 0.950 . S
C4319 C4317 1.327 . S
C4320 C4308 1.349 . S
C4320 H4314 0.950 . S
C4320 C4321 1.327 . S
C4321 H4315 0.950 . S
C4321 C4320 1.327 . S
C4321 C4325 1.429 . S
C4322 C4305 1.574 . S
C4322 H4316 0.949 . S
C4322 C4326 1.368 . S
C4323 C4304 1.429 . S
C4323 C4317 1.429 . S
C4323 C4324 1.523 . S
C4324 C4305 1.368 . S
C4324 C4318 1.368 . S
C4324 C4323 1.523 . S
C4325 C4309 1.429 . S
C4325 C4321 1.429 . S
C4325 C4326 1.523 . S
C4326 C4310 1.368 . S
C4326 C4322 1.368 . S
C4326 C4325 1.523 . S
H4327 C4302 0.950 . S
H4328 C4304 0.950 . S
H4329 C4305 0.949 . S
H4330 C4307 0.950 . S
H4331 C4309 0.950 . S
C4332 C4333 1.349 . S
C4332 C4334 1.327 . S
C4332 H4357 0.950 . S
C4333 C4332 1.349 . S
C4333 C4349 1.349 . S
C4334 C4332 1.327 . S
C4334 C4353 1.429 . S
C4334 H4358 0.950 . S
C4335 C4352 1.574 . S
C4335 C4354 1.368 . S
C4335 H4359 0.949 . S
H4336 C4340 0.949 . S
C4337 C4338 1.349 . S
C4337 C4339 1.327 . S
C4337 H4360 0.950 . S
C4338 C4337 1.349 . S
C4338 C4350 1.349 . S
C4339 C4337 1.327 . S
C4339 C4355 1.429 . S
C4339 H4361 0.950 . S
C4340 H4336 0.949 . S
C4340 C4348 1.574 . S
C4340 C4356 1.368 . S
H4341 C4349 0.950 . S
H4342 C4347 0.950 . S
H4343 C4348 0.949 . S
H4344 C4350 0.950 . S
H4345 C4351 0.950 . S
H4346 C4352 0.949 . S
C4347 H4342 0.950 . S
C4347 C4349 1.327 . S
C4347 C4353 1.429 . S
C4348 C4340 1.574 . S
C4348 H4343 0.949 . S
C4348 C4354 1.368 . S
C4349 C4333 1.349 . S
C4349 H4341 0.950 . S
C4349 C4347 1.327 . S
C4350 C4338 1.349 . S
C4350 H4344 0.950 . S
C4350 C4351 1.327 . S
C4351 H4345 0.950 . S
C4351 C4350 1.327 . S
C4351 C4355 1.429 . S
C4352 C4335 1.574 . S
C4352 H4346 0.949 . S
C4352 C4356 1.368 . S
C4353 C4334 1.429 . S
C4353 C4347 1.429 . S
C4353 C4354 1.523 . S
C4354 C4335 1.368 . S
C4354 C4348 1.368 . S
C4354 C4353 1.523 . S
C4355 C4339 1.429 . S
C4355 C4351 1.429 . S
C4355 C4356 1.523 . S
C4356 C4340 1.368 . S
C4356 C4352 1.368 . S
C4356 C4355 1.523 . S
H4357 C4332 0.950 . S
H4358 C4334 0.950 . S
H4359 C4335 0.949 . S
H4360 C4337 0.950 . S
H4361 C4339 0.950 . S
C4362 C4363 1.349 . S
C4362 C4364 1.327 . S
C4362 H4387 0.950 . S
C4363 C4362 1.349 . S
C4363 C4379 1.349 . S
C4364 C4362 1.327 . S
C4364 C4383 1.429 . S
C4364 H4388 0.950 . S
C4365 C4382 1.574 . S
C4365 C4384 1.368 . S
C4365 H4389 0.949 . S
H4366 C4370 0.949 . S
C4367 C4368 1.349 . S
C4367 C4369 1.327 . S
C4367 H4390 0.950 . S
C4368 C4367 1.349 . S
C4368 C4380 1.349 . S
C4369 C4367 1.327 . S
C4369 C4385 1.429 . S
C4369 H4391 0.950 . S
C4370 H4366 0.949 . S
C4370 C4378 1.574 . S
C4370 C4386 1.368 . S
H4371 C4379 0.950 . S
H4372 C4377 0.950 . S
H4373 C4378 0.949 . S
H4374 C4380 0.950 . S
H4375 C4381 0.950 . S
H4376 C4382 0.949 . S
C4377 H4372 0.950 . S
C4377 C4379 1.327 . S
C4377 C4383 1.429 . S
C4378 C4370 1.574 . S
C4378 H4373 0.949 . S
C4378 C4384 1.368 . S
C4379 C4363 1.349 . S
C4379 H4371 0.950 . S
C4379 C4377 1.327 . S
C4380 C4368 1.349 . S
C4380 H4374 0.950 . S
C4380 C4381 1.327 . S
C4381 H4375 0.950 . S
C4381 C4380 1.327 . S
C4381 C4385 1.429 . S
C4382 C4365 1.574 . S
C4382 H4376 0.949 . S
C4382 C4386 1.368 . S
C4383 C4364 1.429 . S
C4383 C4377 1.429 . S
C4383 C4384 1.523 . S
C4384 C4365 1.368 . S
C4384 C4378 1.368 . S
C4384 C4383 1.523 . S
C4385 C4369 1.429 . S
C4385 C4381 1.429 . S
C4385 C4386 1.523 . S
C4386 C4370 1.368 . S
C4386 C4382 1.368 . S
C4386 C4385 1.523 . S
H4387 C4362 0.950 . S
H4388 C4364 0.950 . S
H4389 C4365 0.949 . S
H4390 C4367 0.950 . S
H4391 C4369 0.950 . S
C4392 C4393 1.349 . S
C4392 C4394 1.327 . S
C4392 H4417 0.950 . S
C4393 C4392 1.349 . S
C4393 C4409 1.349 . S
C4394 C4392 1.327 . S
C4394 C4413 1.429 . S
C4394 H4418 0.950 . S
C4395 C4412 1.574 . S
C4395 C4414 1.368 . S
C4395 H4419 0.949 . S
H4396 C4400 0.949 . S
C4397 C4398 1.349 . S
C4397 C4399 1.327 . S
C4397 H4420 0.950 . S
C4398 C4397 1.349 . S
C4398 C4410 1.349 . S
C4399 C4397 1.327 . S
C4399 C4415 1.429 . S
C4399 H4421 0.950 . S
C4400 H4396 0.949 . S
C4400 C4408 1.574 . S
C4400 C4416 1.368 . S
H4401 C4409 0.950 . S
H4402 C4407 0.950 . S
H4403 C4408 0.949 . S
H4404 C4410 0.950 . S
H4405 C4411 0.950 . S
H4406 C4412 0.949 . S
C4407 H4402 0.950 . S
C4407 C4409 1.327 . S
C4407 C4413 1.429 . S
C4408 C4400 1.574 . S
C4408 H4403 0.949 . S
C4408 C4414 1.368 . S
C4409 C4393 1.349 . S
C4409 H4401 0.950 . S
C4409 C4407 1.327 . S
C4410 C4398 1.349 . S
C4410 H4404 0.950 . S
C4410 C4411 1.327 . S
C4411 H4405 0.950 . S
C4411 C4410 1.327 . S
C4411 C4415 1.429 . S
C4412 C4395 1.574 . S
C4412 H4406 0.949 . S
C4412 C4416 1.368 . S
C4413 C4394 1.429 . S
C4413 C4407 1.429 . S
C4413 C4414 1.523 . S
C4414 C4395 1.368 . S
C4414 C4408 1.368 . S
C4414 C4413 1.523 . S
C4415 C4399 1.429 . S
C4415 C4411 1.429 . S
C4415 C4416 1.523 . S
C4416 C4400 1.368 . S
C4416 C4412 1.368 . S
C4416 C4415 1.523 . S
H4417 C4392 0.950 . S
H4418 C4394 0.950 . S
H4419 C4395 0.949 . S
H4420 C4397 0.950 . S
H4421 C4399 0.950 . S
C4422 C4423 1.349 . S
C4422 C4424 1.327 . S
C4422 H4447 0.950 . S
C4423 C4422 1.349 . S
C4423 C4439 1.349 . S
C4424 C4422 1.327 . S
C4424 C4443 1.429 . S
C4424 H4448 0.950 . S
C4425 C4442 1.574 . S
C4425 C4444 1.368 . S
C4425 H4449 0.949 . S
H4426 C4430 0.949 . S
C4427 C4428 1.349 . S
C4427 C4429 1.327 . S
C4427 H4450 0.950 . S
C4428 C4427 1.349 . S
C4428 C4440 1.349 . S
C4429 C4427 1.327 . S
C4429 C4445 1.429 . S
C4429 H4451 0.950 . S
C4430 H4426 0.949 . S
C4430 C4438 1.574 . S
C4430 C4446 1.368 . S
H4431 C4439 0.950 . S
H4432 C4437 0.950 . S
H4433 C4438 0.949 . S
H4434 C4440 0.950 . S
H4435 C4441 0.950 . S
H4436 C4442 0.949 . S
C4437 H4432 0.950 . S
C4437 C4439 1.327 . S
C4437 C4443 1.429 . S
C4438 C4430 1.574 . S
C4438 H4433 0.949 . S
C4438 C4444 1.368 . S
C4439 C4423 1.349 . S
C4439 H4431 0.950 . S
C4439 C4437 1.327 . S
C4440 C4428 1.349 . S
C4440 H4434 0.950 . S
C4440 C4441 1.327 . S
C4441 H4435 0.950 . S
C4441 C4440 1.327 . S
C4441 C4445 1.429 . S
C4442 C4425 1.574 . S
C4442 H4436 0.949 . S
C4442 C4446 1.368 . S
C4443 C4424 1.429 . S
C4443 C4437 1.429 . S
C4443 C4444 1.523 . S
C4444 C4425 1.368 . S
C4444 C4438 1.368 . S
C4444 C4443 1.523 . S
C4445 C4429 1.429 . S
C4445 C4441 1.429 . S
C4445 C4446 1.523 . S
C4446 C4430 1.368 . S
C4446 C4442 1.368 . S
C4446 C4445 1.523 . S
H4447 C4422 0.950 . S
H4448 C4424 0.950 . S
H4449 C4425 0.949 . S
H4450 C4427 0.950 . S
H4451 C4429 0.950 . S
C4452 C4453 1.349 . S
C4452 C4454 1.327 . S
C4452 H4477 0.950 . S
C4453 C4452 1.349 . S
C4453 C4469 1.349 . S
C4454 C4452 1.327 . S
C4454 C4473 1.429 . S
C4454 H4478 0.950 . S
C4455 C4472 1.574 . S
C4455 C4474 1.368 . S
C4455 H4479 0.949 . S
H4456 C4460 0.949 . S
C4457 C4458 1.349 . S
C4457 C4459 1.327 . S
C4457 H4480 0.950 . S
C4458 C4457 1.349 . S
C4458 C4470 1.349 . S
C4459 C4457 1.327 . S
C4459 C4475 1.429 . S
C4459 H4481 0.950 . S
C4460 H4456 0.949 . S
C4460 C4468 1.574 . S
C4460 C4476 1.368 . S
H4461 C4469 0.950 . S
H4462 C4467 0.950 . S
H4463 C4468 0.949 . S
H4464 C4470 0.950 . S
H4465 C4471 0.950 . S
H4466 C4472 0.949 . S
C4467 H4462 0.950 . S
C4467 C4469 1.327 . S
C4467 C4473 1.429 . S
C4468 C4460 1.574 . S
C4468 H4463 0.949 . S
C4468 C4474 1.368 . S
C4469 C4453 1.349 . S
C4469 H4461 0.950 . S
C4469 C4467 1.327 . S
C4470 C4458 1.349 . S
C4470 H4464 0.950 . S
C4470 C4471 1.327 . S
C4471 H4465 0.950 . S
C4471 C4470 1.327 . S
C4471 C4475 1.429 . S
C4472 C4455 1.574 . S
C4472 H4466 0.949 . S
C4472 C4476 1.368 . S
C4473 C4454 1.429 . S
C4473 C4467 1.429 . S
C4473 C4474 1.523 . S
C4474 C4455 1.368 . S
C4474 C4468 1.368 . S
C4474 C4473 1.523 . S
C4475 C4459 1.429 . S
C4475 C4471 1.429 . S
C4475 C4476 1.523 . S
C4476 C4460 1.368 . S
C4476 C4472 1.368 . S
C4476 C4475 1.523 . S
H4477 C4452 0.950 . S
H4478 C4454 0.950 . S
H4479 C4455 0.949 . S
H4480 C4457 0.950 . S
H4481 C4459 0.950 . S
C4482 C4483 1.349 . S
C4482 C4484 1.327 . S
C4482 H4507 0.950 . S
C4483 C4482 1.349 . S
C4483 C4499 1.349 . S
C4484 C4482 1.327 . S
C4484 C4503 1.429 . S
C4484 H4508 0.950 . S
C4485 C4502 1.574 . S
C4485 C4504 1.368 . S
C4485 H4509 0.949 . S
H4486 C4490 0.949 . S
C4487 C4488 1.349 . S
C4487 C4489 1.327 . S
C4487 H4510 0.950 . S
C4488 C4487 1.349 . S
C4488 C4500 1.349 . S
C4489 C4487 1.327 . S
C4489 C4505 1.429 . S
C4489 H4511 0.950 . S
C4490 H4486 0.949 . S
C4490 C4498 1.574 . S
C4490 C4506 1.368 . S
H4491 C4499 0.950 . S
H4492 C4497 0.950 . S
H4493 C4498 0.949 . S
H4494 C4500 0.950 . S
H4495 C4501 0.950 . S
H4496 C4502 0.949 . S
C4497 H4492 0.950 . S
C4497 C4499 1.327 . S
C4497 C4503 1.429 . S
C4498 C4490 1.574 . S
C4498 H4493 0.949 . S
C4498 C4504 1.368 . S
C4499 C4483 1.349 . S
C4499 H4491 0.950 . S
C4499 C4497 1.327 . S
C4500 C4488 1.349 . S
C4500 H4494 0.950 . S
C4500 C4501 1.327 . S
C4501 H4495 0.950 . S
C4501 C4500 1.327 . S
C4501 C4505 1.429 . S
C4502 C4485 1.574 . S
C4502 H4496 0.949 . S
C4502 C4506 1.368 . S
C4503 C4484 1.429 . S
C4503 C4497 1.429 . S
C4503 C4504 1.523 . S
C4504 C4485 1.368 . S
C4504 C4498 1.368 . S
C4504 C4503 1.523 . S
C4505 C4489 1.429 . S
C4505 C4501 1.429 . S
C4505 C4506 1.523 . S
C4506 C4490 1.368 . S
C4506 C4502 1.368 . S
C4506 C4505 1.523 . S
H4507 C4482 0.950 . S
H4508 C4484 0.950 . S
H4509 C4485 0.949 . S
H4510 C4487 0.950 . S
H4511 C4489 0.950 . S
C4512 C4513 1.284 1_545 S
C4512 C4514 1.344 . S
C4512 H4537 1.003 . S
C4513 C4512 1.284 1_565 S
C4513 C4529 1.349 . S
C4514 C4512 1.344 . S
C4514 C4533 1.429 1_545 S
C4514 H4538 0.950 . S
C4515 C4532 1.574 . S
C4515 C4534 1.368 . S
C4515 H4539 0.949 . S
H4516 C4520 0.949 . S
C4517 C4518 1.349 1_565 S
C4517 C4519 1.327 . S
C4517 H4540 0.950 . S
C4518 C4517 1.349 1_545 S
C4518 C4530 1.349 . S
C4519 C4517 1.327 . S
C4519 C4535 1.429 1_565 S
C4519 H4541 0.950 . S
C4520 H4516 0.949 . S
C4520 C4528 1.574 . S
C4520 C4536 1.368 . S
H4521 C4529 0.950 . S
H4522 C4527 0.950 . S
H4523 C4528 0.949 . S
H4524 C4530 0.950 . S
H4525 C4531 0.950 . S
H4526 C4532 0.949 . S
C4527 H4522 0.950 . S
C4527 C4529 1.327 . S
C4527 C4533 1.429 . S
C4528 C4520 1.574 . S
C4528 H4523 0.949 . S
C4528 C4534 1.368 1_545 S
C4529 C4513 1.349 . S
C4529 H4521 0.950 . S
C4529 C4527 1.327 . S
C4530 C4518 1.349 . S
C4530 H4524 0.950 . S
C4530 C4531 1.327 . S
C4531 H4525 0.950 . S
C4531 C4530 1.327 . S
C4531 C4535 1.429 . S
C4532 C4515 1.574 . S
C4532 H4526 0.949 . S
C4532 C4536 1.368 1_565 S
C4533 C4514 1.429 1_565 S
C4533 C4527 1.429 . S
C4533 C4534 1.523 . S
C4534 C4515 1.368 . S
C4534 C4528 1.368 1_565 S
C4534 C4533 1.523 . S
C4535 C4519 1.429 1_545 S
C4535 C4531 1.429 . S
C4535 C4536 1.523 . S
C4536 C4520 1.368 . S
C4536 C4532 1.368 1_545 S
C4536 C4535 1.523 . S
H4537 C4512 1.003 . S
H4538 C4514 0.950 . S
H4539 C4515 0.949 . S
H4540 C4517 0.950 . S
H4541 C4519 0.950 . S
C4542 C4543 1.349 . S
C4542 C4544 1.327 . S
C4542 H4567 0.950 . S
C4543 C4542 1.349 . S
C4543 C4559 1.349 . S
C4544 C4542 1.327 . S
C4544 C4563 1.429 . S
C4544 H4568 0.950 . S
C4545 C4562 1.574 . S
C4545 C4564 1.368 . S
C4545 H4569 0.949 . S
H4546 C4550 0.949 . S
C4547 C4548 1.349 . S
C4547 C4549 1.327 . S
C4547 H4570 0.950 . S
C4548 C4547 1.349 . S
C4548 C4560 1.349 . S
C4549 C4547 1.327 . S
C4549 C4565 1.429 . S
C4549 H4571 0.950 . S
C4550 H4546 0.949 . S
C4550 C4558 1.574 . S
C4550 C4566 1.368 . S
H4551 C4559 0.950 . S
H4552 C4557 0.950 . S
H4553 C4558 0.949 . S
H4554 C4560 0.950 . S
H4555 C4561 0.950 . S
H4556 C4562 0.949 . S
C4557 H4552 0.950 . S
C4557 C4559 1.327 . S
C4557 C4563 1.429 . S
C4558 C4550 1.574 . S
C4558 H4553 0.949 . S
C4558 C4564 1.368 . S
C4559 C4543 1.349 . S
C4559 H4551 0.950 . S
C4559 C4557 1.327 . S
C4560 C4548 1.349 . S
C4560 H4554 0.950 . S
C4560 C4561 1.327 . S
C4561 H4555 0.950 . S
C4561 C4560 1.327 . S
C4561 C4565 1.429 . S
C4562 C4545 1.574 . S
C4562 H4556 0.949 . S
C4562 C4566 1.368 . S
C4563 C4544 1.429 . S
C4563 C4557 1.429 . S
C4563 C4564 1.523 . S
C4564 C4545 1.368 . S
C4564 C4558 1.368 . S
C4564 C4563 1.523 . S
C4565 C4549 1.429 . S
C4565 C4561 1.429 . S
C4565 C4566 1.523 . S
C4566 C4550 1.368 . S
C4566 C4562 1.368 . S
C4566 C4565 1.523 . S
H4567 C4542 0.950 . S
H4568 C4544 0.950 . S
H4569 C4545 0.949 . S
H4570 C4547 0.950 . S
H4571 C4549 0.950 . S
C4572 C4573 1.349 1_565 S
C4572 C4574 1.327 . S
C4572 H4597 0.950 . S
C4573 C4572 1.349 1_545 S
C4573 C4589 1.349 . S
C4574 C4572 1.327 . S
C4574 C4593 1.429 1_565 S
C4574 H4598 0.950 . S
C4575 C4592 1.574 . S
C4575 C4594 1.368 . S
C4575 H4599 0.949 . S
H4576 C4580 0.949 . S
C4577 C4578 1.378 . S
C4577 C4579 1.320 1_565 S
C4577 H4600 0.928 1_565 S
C4578 C4577 1.378 . S
C4578 C4590 1.349 . S
C4579 C4577 1.320 1_545 S
C4579 C4595 1.429 1_545 S
C4579 H4601 0.950 . S
C4580 H4576 0.949 . S
C4580 C4588 1.574 . S
C4580 C4596 1.368 . S
H4581 C4589 0.950 . S
H4582 C4587 0.950 . S
H4583 C4588 0.949 . S
H4584 C4590 0.950 . S
H4585 C4591 0.950 . S
H4586 C4592 0.949 . S
C4587 H4582 0.950 . S
C4587 C4589 1.327 . S
C4587 C4593 1.429 . S
C4588 C4580 1.574 . S
C4588 H4583 0.949 . S
C4588 C4594 1.368 1_565 S
C4589 C4573 1.349 . S
C4589 H4581 0.950 . S
C4589 C4587 1.327 . S
C4590 C4578 1.349 . S
C4590 H4584 0.950 . S
C4590 C4591 1.327 . S
C4591 H4585 0.950 . S
C4591 C4590 1.327 . S
C4591 C4595 1.429 . S
C4592 C4575 1.574 . S
C4592 H4586 0.949 . S
C4592 C4596 1.368 1_545 S
C4593 C4574 1.429 1_545 S
C4593 C4587 1.429 . S
C4593 C4594 1.523 . S
C4594 C4575 1.368 . S
C4594 C4588 1.368 1_545 S
C4594 C4593 1.523 . S
C4595 C4579 1.429 1_565 S
C4595 C4591 1.429 . S
C4595 C4596 1.523 . S
C4596 C4580 1.368 . S
C4596 C4592 1.368 1_565 S
C4596 C4595 1.523 . S
H4597 C4572 0.950 . S
H4598 C4574 0.950 . S
H4599 C4575 0.949 . S
H4600 C4577 0.928 1_545 S
H4601 C4579 0.950 . S
C4602 C4603 1.349 . S
C4602 C4604 1.327 . S
C4602 H4627 0.950 . S
C4603 C4602 1.349 . S
C4603 C4619 1.349 . S
C4604 C4602 1.327 . S
C4604 C4623 1.429 . S
C4604 H4628 0.950 . S
C4605 C4622 1.574 1_556 S
C4605 C4624 1.368 . S
C4605 H4629 0.949 . S
H4606 C4610 0.949 . S
C4607 C4608 1.349 . S
C4607 C4609 1.327 . S
C4607 H4630 0.950 . S
C4608 C4607 1.349 . S
C4608 C4620 1.349 . S
C4609 C4607 1.327 . S
C4609 C4625 1.429 . S
C4609 H4631 0.950 . S
C4610 H4606 0.949 . S
C4610 C4618 1.574 1_554 S
C4610 C4626 1.368 . S
H4611 C4619 0.950 . S
H4612 C4617 0.950 . S
H4613 C4618 0.949 . S
H4614 C4620 0.950 . S
H4615 C4621 0.950 . S
H4616 C4622 0.949 . S
C4617 H4612 0.950 . S
C4617 C4619 1.327 . S
C4617 C4623 1.429 . S
C4618 C4610 1.574 1_556 S
C4618 H4613 0.949 . S
C4618 C4624 1.368 . S
C4619 C4603 1.349 . S
C4619 H4611 0.950 . S
C4619 C4617 1.327 . S
C4620 C4608 1.349 . S
C4620 H4614 0.950 . S
C4620 C4621 1.327 . S
C4621 H4615 0.950 . S
C4621 C4620 1.327 . S
C4621 C4625 1.429 . S
C4622 C4605 1.574 1_554 S
C4622 H4616 0.949 . S
C4622 C4626 1.368 . S
C4623 C4604 1.429 . S
C4623 C4617 1.429 . S
C4623 C4624 1.523 . S
C4624 C4605 1.368 . S
C4624 C4618 1.368 . S
C4624 C4623 1.523 . S
C4625 C4609 1.429 . S
C4625 C4621 1.429 . S
C4625 C4626 1.523 . S
C4626 C4610 1.368 . S
C4626 C4622 1.368 . S
C4626 C4625 1.523 . S
H4627 C4602 0.950 . S
H4628 C4604 0.950 . S
H4629 C4605 0.949 . S
H4630 C4607 0.950 . S
H4631 C4609 0.950 . S
C4632 C4633 1.349 . S
C4632 C4634 1.338 . S
C4632 H4657 0.929 1_556 S
C4633 C4632 1.349 . S
C4633 C4649 1.349 . S
C4634 C4632 1.338 . S
C4634 C4653 1.449 . S
C4634 H4658 0.921 1_556 S
C4635 C4652 1.574 . S
C4635 C4654 1.368 . S
C4635 H4659 0.949 . S
H4636 C4640 1.006 . S
C4637 C4638 1.349 . S
C4637 C4639 1.327 1_554 S
C4637 H4660 0.950 1_554 S
C4638 C4637 1.349 . S
C4638 C4650 1.349 . S
C4639 C4637 1.327 1_556 S
C4639 C4655 1.429 1_556 S
C4639 H4661 0.950 . S
C4640 H4636 1.006 . S
C4640 C4648 1.574 . S
C4640 C4656 1.368 . S
H4641 C4649 0.950 . S
H4642 C4647 0.950 . S
H4643 C4648 1.007 . S
H4644 C4650 0.950 . S
H4645 C4651 0.950 . S
H4646 C4652 0.949 . S
C4647 H4642 0.950 . S
C4647 C4649 1.327 . S
C4647 C4653 1.429 . S
C4648 C4640 1.574 . S
C4648 H4643 1.007 . S
C4648 C4654 1.368 1_554 S
C4649 C4633 1.349 . S
C4649 H4641 0.950 . S
C4649 C4647 1.327 . S
C4650 C4638 1.349 . S
C4650 H4644 0.950 . S
C4650 C4651 1.327 . S
C4651 H4645 0.950 . S
C4651 C4650 1.327 . S
C4651 C4655 1.429 . S
C4652 C4635 1.574 . S
C4652 H4646 0.949 . S
C4652 C4656 1.368 1_556 S
C4653 C4634 1.449 . S
C4653 C4647 1.429 . S
C4653 C4654 1.523 . S
C4654 C4635 1.368 . S
C4654 C4648 1.368 1_556 S
C4654 C4653 1.523 . S
C4655 C4639 1.429 1_554 S
C4655 C4651 1.429 . S
C4655 C4656 1.523 . S
C4656 C4640 1.368 . S
C4656 C4652 1.368 1_554 S
C4656 C4655 1.523 . S
H4657 C4632 0.929 1_554 S
H4658 C4634 0.921 1_554 S
H4659 C4635 0.949 . S
H4660 C4637 0.950 1_556 S
H4661 C4639 0.950 . S
C4662 C4663 1.349 . S
C4662 C4664 1.327 . S
C4662 H4687 0.950 . S
C4663 C4662 1.349 . S
C4663 C4679 1.349 . S
C4664 C4662 1.327 . S
C4664 C4683 1.429 . S
C4664 H4688 0.950 . S
C4665 C4682 1.574 1_545 S
C4665 C4684 1.368 . S
C4665 H4689 0.949 . S
H4666 C4670 0.949 . S
C4667 C4668 1.349 . S
C4667 C4669 1.327 . S
C4667 H4690 0.950 . S
C4668 C4667 1.349 . S
C4668 C4680 1.349 . S
C4669 C4667 1.327 . S
C4669 C4685 1.429 . S
C4669 H4691 0.950 . S
C4670 H4666 0.949 . S
C4670 C4678 1.574 1_565 S
C4670 C4686 1.368 . S
H4671 C4679 0.950 . S
H4672 C4677 0.950 . S
H4673 C4678 0.949 . S
H4674 C4680 0.950 . S
H4675 C4681 0.950 . S
H4676 C4682 0.949 . S
C4677 H4672 0.950 . S
C4677 C4679 1.327 . S
C4677 C4683 1.429 . S
C4678 C4670 1.574 1_545 S
C4678 H4673 0.949 . S
C4678 C4684 1.368 . S
C4679 C4663 1.349 . S
C4679 H4671 0.950 . S
C4679 C4677 1.327 . S
C4680 C4668 1.349 . S
C4680 H4674 0.950 . S
C4680 C4681 1.327 . S
C4681 H4675 0.950 . S
C4681 C4680 1.327 . S
C4681 C4685 1.429 . S
C4682 C4665 1.574 1_565 S
C4682 H4676 0.949 . S
C4682 C4686 1.368 . S
C4683 C4664 1.429 . S
C4683 C4677 1.429 . S
C4683 C4684 1.523 . S
C4684 C4665 1.368 . S
C4684 C4678 1.368 . S
C4684 C4683 1.523 . S
C4685 C4669 1.429 . S
C4685 C4681 1.429 . S
C4685 C4686 1.523 . S
C4686 C4670 1.368 . S
C4686 C4682 1.368 . S
C4686 C4685 1.523 . S
H4687 C4662 0.950 . S
H4688 C4664 0.950 . S
H4689 C4665 0.949 . S
H4690 C4667 0.950 . S
H4691 C4669 0.950 . S
C4692 C4693 1.349 . S
C4692 C4694 1.327 . S
C4692 H4717 0.950 . S
C4693 C4692 1.349 . S
C4693 C4709 1.349 . S
C4694 C4692 1.327 . S
C4694 C4713 1.429 . S
C4694 H4718 0.950 . S
C4695 C4712 1.574 . S
C4695 C4714 1.368 . S
C4695 H4719 0.949 . S
H4696 C4700 0.949 . S
C4697 C4698 1.349 . S
C4697 C4699 1.327 . S
C4697 H4720 0.950 . S
C4698 C4697 1.349 . S
C4698 C4710 1.349 . S
C4699 C4697 1.327 . S
C4699 C4715 1.429 . S
C4699 H4721 0.950 . S
C4700 H4696 0.949 . S
C4700 C4708 1.574 . S
C4700 C4716 1.368 . S
H4701 C4709 0.950 . S
H4702 C4707 0.950 . S
H4703 C4708 0.949 . S
H4704 C4710 0.950 . S
H4705 C4711 0.950 . S
H4706 C4712 0.949 . S
C4707 H4702 0.950 . S
C4707 C4709 1.327 . S
C4707 C4713 1.429 . S
C4708 C4700 1.574 . S
C4708 H4703 0.949 . S
C4708 C4714 1.368 . S
C4709 C4693 1.349 . S
C4709 H4701 0.950 . S
C4709 C4707 1.327 . S
C4710 C4698 1.349 . S
C4710 H4704 0.950 . S
C4710 C4711 1.327 . S
C4711 H4705 0.950 . S
C4711 C4710 1.327 . S
C4711 C4715 1.429 . S
C4712 C4695 1.574 . S
C4712 H4706 0.949 . S
C4712 C4716 1.368 . S
C4713 C4694 1.429 . S
C4713 C4707 1.429 . S
C4713 C4714 1.523 . S
C4714 C4695 1.368 . S
C4714 C4708 1.368 . S
C4714 C4713 1.523 . S
C4715 C4699 1.429 . S
C4715 C4711 1.429 . S
C4715 C4716 1.523 . S
C4716 C4700 1.368 . S
C4716 C4712 1.368 . S
C4716 C4715 1.523 . S
H4717 C4692 0.950 . S
H4718 C4694 0.950 . S
H4719 C4695 0.949 . S
H4720 C4697 0.950 . S
H4721 C4699 0.950 . S
C4722 C4723 1.349 . S
C4722 C4724 1.327 . S
C4722 H4747 0.950 . S
C4723 C4722 1.349 . S
C4723 C4739 1.349 . S
C4724 C4722 1.327 . S
C4724 C4743 1.429 . S
C4724 H4748 0.950 . S
C4725 C4742 1.574 1_545 S
C4725 C4744 1.368 . S
C4725 H4749 0.949 . S
H4726 C4730 0.949 . S
C4727 C4728 1.349 . S
C4727 C4729 1.327 . S
C4727 H4750 0.950 . S
C4728 C4727 1.349 . S
C4728 C4740 1.349 . S
C4729 C4727 1.327 . S
C4729 C4745 1.429 . S
C4729 H4751 0.950 . S
C4730 H4726 0.949 . S
C4730 C4738 1.574 1_565 S
C4730 C4746 1.368 . S
H4731 C4739 0.950 . S
H4732 C4737 0.950 . S
H4733 C4738 0.949 . S
H4734 C4740 0.950 . S
H4735 C4741 0.950 . S
H4736 C4742 0.949 . S
C4737 H4732 0.950 . S
C4737 C4739 1.327 . S
C4737 C4743 1.429 . S
C4738 C4730 1.574 1_545 S
C4738 H4733 0.949 . S
C4738 C4744 1.368 . S
C4739 C4723 1.349 . S
C4739 H4731 0.950 . S
C4739 C4737 1.327 . S
C4740 C4728 1.349 . S
C4740 H4734 0.950 . S
C4740 C4741 1.327 . S
C4741 H4735 0.950 . S
C4741 C4740 1.327 . S
C4741 C4745 1.429 . S
C4742 C4725 1.574 1_565 S
C4742 H4736 0.949 . S
C4742 C4746 1.368 . S
C4743 C4724 1.429 . S
C4743 C4737 1.429 . S
C4743 C4744 1.523 . S
C4744 C4725 1.368 . S
C4744 C4738 1.368 . S
C4744 C4743 1.523 . S
C4745 C4729 1.429 . S
C4745 C4741 1.429 . S
C4745 C4746 1.523 . S
C4746 C4730 1.368 . S
C4746 C4742 1.368 . S
C4746 C4745 1.523 . S
H4747 C4722 0.950 . S
H4748 C4724 0.950 . S
H4749 C4725 0.949 . S
H4750 C4727 0.950 . S
H4751 C4729 0.950 . S
C4752 C4753 1.349 . S
C4752 C4754 1.327 . S
C4752 H4777 0.950 . S
C4753 C4752 1.349 . S
C4753 C4769 1.349 . S
C4754 C4752 1.327 . S
C4754 C4773 1.429 . S
C4754 H4778 0.950 . S
C4755 C4772 1.574 . S
C4755 C4774 1.368 1_655 S
C4755 H4779 1.006 . S
H4756 C4760 0.949 . S
C4757 C4758 1.349 . S
C4757 C4759 1.327 . S
C4757 H4780 0.950 . S
C4758 C4757 1.349 . S
C4758 C4770 1.349 . S
C4759 C4757 1.327 . S
C4759 C4775 1.429 . S
C4759 H4781 0.950 . S
C4760 H4756 0.949 . S
C4760 C4768 1.574 . S
C4760 C4776 1.368 1_455 S
H4761 C4769 0.950 1_655 S
H4762 C4767 0.950 . S
H4763 C4768 0.949 . S
H4764 C4770 0.929 1_455 S
H4765 C4771 0.921 1_455 S
H4766 C4772 1.006 . S
C4767 H4762 0.950 . S
C4767 C4769 1.327 1_655 S
C4767 C4773 1.429 1_655 S
C4768 C4760 1.574 . S
C4768 H4763 0.949 . S
C4768 C4774 1.368 . S
C4769 C4753 1.349 . S
C4769 H4761 0.950 1_455 S
C4769 C4767 1.327 1_455 S
C4770 C4758 1.349 . S
C4770 H4764 0.929 1_655 S
C4770 C4771 1.338 . S
C4771 H4765 0.921 1_655 S
C4771 C4770 1.338 . S
C4771 C4775 1.449 . S
C4772 C4755 1.574 . S
C4772 H4766 1.006 . S
C4772 C4776 1.368 . S
C4773 C4754 1.429 . S
C4773 C4767 1.429 1_455 S
C4773 C4774 1.523 . S
C4774 C4755 1.368 1_455 S
C4774 C4768 1.368 . S
C4774 C4773 1.523 . S
C4775 C4759 1.429 . S
C4775 C4771 1.449 . S
C4775 C4776 1.523 . S
C4776 C4760 1.368 1_655 S
C4776 C4772 1.368 . S
C4776 C4775 1.523 . S
H4777 C4752 0.950 . S
H4778 C4754 0.950 . S
H4779 C4755 1.006 . S
H4780 C4757 0.950 . S
H4781 C4759 0.950 . S
C4782 C4783 1.349 . S
C4782 C4784 1.327 . S
C4782 H4807 0.950 . S
C4783 C4782 1.349 . S
C4783 C4799 1.349 . S
C4784 C4782 1.327 . S
C4784 C4803 1.429 . S
C4784 H4808 0.950 . S
C4785 C4802 1.574 . S
C4785 C4804 1.368 . S
C4785 H4809 0.949 . S
H4786 C4790 0.949 . S
C4787 C4788 1.349 . S
C4787 C4789 1.327 . S
C4787 H4810 0.950 . S
C4788 C4787 1.349 . S
C4788 C4800 1.349 . S
C4789 C4787 1.327 . S
C4789 C4805 1.429 . S
C4789 H4811 0.950 . S
C4790 H4786 0.949 . S
C4790 C4798 1.574 . S
C4790 C4806 1.368 . S
H4791 C4799 0.950 . S
H4792 C4797 0.950 . S
H4793 C4798 0.949 . S
H4794 C4800 0.950 . S
H4795 C4801 0.950 . S
H4796 C4802 0.949 . S
C4797 H4792 0.950 . S
C4797 C4799 1.327 . S
C4797 C4803 1.429 . S
C4798 C4790 1.574 . S
C4798 H4793 0.949 . S
C4798 C4804 1.368 . S
C4799 C4783 1.349 . S
C4799 H4791 0.950 . S
C4799 C4797 1.327 . S
C4800 C4788 1.349 . S
C4800 H4794 0.950 . S
C4800 C4801 1.327 . S
C4801 H4795 0.950 . S
C4801 C4800 1.327 . S
C4801 C4805 1.429 . S
C4802 C4785 1.574 . S
C4802 H4796 0.949 . S
C4802 C4806 1.368 . S
C4803 C4784 1.429 . S
C4803 C4797 1.429 . S
C4803 C4804 1.523 . S
C4804 C4785 1.368 . S
C4804 C4798 1.368 . S
C4804 C4803 1.523 . S
C4805 C4789 1.429 . S
C4805 C4801 1.429 . S
C4805 C4806 1.523 . S
C4806 C4790 1.368 . S
C4806 C4802 1.368 . S
C4806 C4805 1.523 . S
H4807 C4782 0.950 . S
H4808 C4784 0.950 . S
H4809 C4785 0.949 . S
H4810 C4787 0.950 . S
H4811 C4789 0.950 . S
C4812 C4813 1.349 . S
C4812 C4814 1.327 . S
C4812 H4837 0.950 . S
C4813 C4812 1.349 . S
C4813 C4829 1.349 . S
C4814 C4812 1.327 . S
C4814 C4833 1.429 . S
C4814 H4838 0.950 . S
C4815 C4832 1.574 1_655 S
C4815 C4834 1.368 . S
C4815 H4839 0.949 . S
H4816 C4820 0.949 . S
C4817 C4818 1.349 . S
C4817 C4819 1.327 . S
C4817 H4840 0.950 . S
C4818 C4817 1.349 . S
C4818 C4830 1.349 . S
C4819 C4817 1.327 . S
C4819 C4835 1.429 . S
C4819 H4841 0.950 . S
C4820 H4816 0.949 . S
C4820 C4828 1.574 1_455 S
C4820 C4836 1.368 . S
H4821 C4829 0.950 . S
H4822 C4827 0.950 . S
H4823 C4828 0.949 . S
H4824 C4830 0.950 . S
H4825 C4831 0.950 . S
H4826 C4832 0.949 . S
C4827 H4822 0.950 . S
C4827 C4829 1.327 . S
C4827 C4833 1.429 . S
C4828 C4820 1.574 1_655 S
C4828 H4823 0.949 . S
C4828 C4834 1.368 . S
C4829 C4813 1.349 . S
C4829 H4821 0.950 . S
C4829 C4827 1.327 . S
C4830 C4818 1.349 . S
C4830 H4824 0.950 . S
C4830 C4831 1.327 . S
C4831 H4825 0.950 . S
C4831 C4830 1.327 . S
C4831 C4835 1.429 . S
C4832 C4815 1.574 1_455 S
C4832 H4826 0.949 . S
C4832 C4836 1.368 . S
C4833 C4814 1.429 . S
C4833 C4827 1.429 . S
C4833 C4834 1.523 . S
C4834 C4815 1.368 . S
C4834 C4828 1.368 . S
C4834 C4833 1.523 . S
C4835 C4819 1.429 . S
C4835 C4831 1.429 . S
C4835 C4836 1.523 . S
C4836 C4820 1.368 . S
C4836 C4832 1.368 . S
C4836 C4835 1.523 . S
H4837 C4812 0.950 . S
H4838 C4814 0.950 . S
H4839 C4815 0.949 . S
H4840 C4817 0.950 . S
H4841 C4819 0.950 . S
C4842 C4843 1.349 . S
C4842 C4844 1.327 . S
C4842 H4867 0.950 . S
C4843 C4842 1.349 . S
C4843 C4859 1.349 . S
C4844 C4842 1.327 . S
C4844 C4863 1.429 . S
C4844 H4868 0.950 . S
C4845 C4862 1.574 . S
C4845 C4864 1.368 1_655 S
C4845 H4869 0.949 . S
H4846 C4850 0.949 . S
C4847 C4848 1.349 . S
C4847 C4849 1.327 . S
C4847 H4870 0.950 . S
C4848 C4847 1.349 . S
C4848 C4860 1.349 . S
C4849 C4847 1.327 . S
C4849 C4865 1.429 . S
C4849 H4871 0.950 . S
C4850 H4846 0.949 . S
C4850 C4858 1.574 . S
C4850 C4866 1.368 1_455 S
H4851 C4859 0.950 1_655 S
H4852 C4857 0.950 . S
H4853 C4858 0.949 . S
H4854 C4860 0.933 1_455 S
H4855 C4861 0.916 1_455 S
H4856 C4862 0.949 . S
C4857 H4852 0.950 . S
C4857 C4859 1.327 1_655 S
C4857 C4863 1.429 1_655 S
C4858 C4850 1.574 . S
C4858 H4853 0.949 . S
C4858 C4864 1.368 . S
C4859 C4843 1.349 . S
C4859 H4851 0.950 1_455 S
C4859 C4857 1.327 1_455 S
C4860 C4848 1.349 . S
C4860 H4854 0.933 1_655 S
C4860 C4861 1.340 . S
C4861 H4855 0.916 1_655 S
C4861 C4860 1.340 . S
C4861 C4865 1.452 . S
C4862 C4845 1.574 . S
C4862 H4856 0.949 . S
C4862 C4866 1.368 . S
C4863 C4844 1.429 . S
C4863 C4857 1.429 1_455 S
C4863 C4864 1.523 . S
C4864 C4845 1.368 1_455 S
C4864 C4858 1.368 . S
C4864 C4863 1.523 . S
C4865 C4849 1.429 . S
C4865 C4861 1.452 . S
C4865 C4866 1.523 . S
C4866 C4850 1.368 1_655 S
C4866 C4862 1.368 . S
C4866 C4865 1.523 . S
H4867 C4842 0.950 . S
H4868 C4844 0.950 . S
H4869 C4845 0.949 . S
H4870 C4847 0.950 . S
H4871 C4849 0.950 . S
C4872 C4873 1.349 . S
C4872 C4874 1.327 . S
C4872 H4897 0.950 . S
C4873 C4872 1.349 . S
C4873 C4889 1.349 . S
C4874 C4872 1.327 . S
C4874 C4893 1.429 . S
C4874 H4898 0.950 . S
C4875 C4892 1.574 . S
C4875 C4894 1.368 . S
C4875 H4899 0.949 . S
H4876 C4880 0.949 . S
C4877 C4878 1.349 . S
C4877 C4879 1.327 . S
C4877 H4900 0.950 . S
C4878 C4877 1.349 . S
C4878 C4890 1.349 . S
C4879 C4877 1.327 . S
C4879 C4895 1.429 . S
C4879 H4901 0.950 . S
C4880 H4876 0.949 . S
C4880 C4888 1.574 . S
C4880 C4896 1.368 . S
H4881 C4889 0.950 . S
H4882 C4887 0.950 . S
H4883 C4888 0.949 . S
H4884 C4890 0.950 . S
H4885 C4891 0.950 . S
H4886 C4892 0.949 . S
C4887 H4882 0.950 . S
C4887 C4889 1.327 . S
C4887 C4893 1.429 . S
C4888 C4880 1.574 . S
C4888 H4883 0.949 . S
C4888 C4894 1.368 . S
C4889 C4873 1.349 . S
C4889 H4881 0.950 . S
C4889 C4887 1.327 . S
C4890 C4878 1.349 . S
C4890 H4884 0.950 . S
C4890 C4891 1.327 . S
C4891 H4885 0.950 . S
C4891 C4890 1.327 . S
C4891 C4895 1.429 . S
C4892 C4875 1.574 . S
C4892 H4886 0.949 . S
C4892 C4896 1.368 . S
C4893 C4874 1.429 . S
C4893 C4887 1.429 . S
C4893 C4894 1.523 . S
C4894 C4875 1.368 . S
C4894 C4888 1.368 . S
C4894 C4893 1.523 . S
C4895 C4879 1.429 . S
C4895 C4891 1.429 . S
C4895 C4896 1.523 . S
C4896 C4880 1.368 . S
C4896 C4892 1.368 . S
C4896 C4895 1.523 . S
H4897 C4872 0.950 . S
H4898 C4874 0.950 . S
H4899 C4875 0.949 . S
H4900 C4877 0.950 . S
H4901 C4879 0.950 . S
C4902 C4903 1.349 . S
C4902 C4904 1.327 . S
C4902 H4927 0.950 . S
C4903 C4902 1.349 . S
C4903 C4919 1.349 . S
C4904 C4902 1.327 . S
C4904 C4923 1.429 . S
C4904 H4928 0.950 . S
C4905 C4922 1.574 1_655 S
C4905 C4924 1.368 . S
C4905 H4929 0.949 . S
H4906 C4910 0.949 . S
C4907 C4908 1.349 . S
C4907 C4909 1.327 . S
C4907 H4930 0.950 . S
C4908 C4907 1.349 . S
C4908 C4920 1.349 . S
C4909 C4907 1.327 . S
C4909 C4925 1.429 . S
C4909 H4931 0.950 . S
C4910 H4906 0.949 . S
C4910 C4918 1.574 1_455 S
C4910 C4926 1.368 . S
H4911 C4919 0.950 . S
H4912 C4917 0.950 . S
H4913 C4918 0.949 . S
H4914 C4920 0.950 . S
H4915 C4921 0.950 . S
H4916 C4922 0.949 . S
C4917 H4912 0.950 . S
C4917 C4919 1.327 . S
C4917 C4923 1.429 . S
C4918 C4910 1.574 1_655 S
C4918 H4913 0.949 . S
C4918 C4924 1.368 . S
C4919 C4903 1.349 . S
C4919 H4911 0.950 . S
C4919 C4917 1.327 . S
C4920 C4908 1.349 . S
C4920 H4914 0.950 . S
C4920 C4921 1.327 . S
C4921 H4915 0.950 . S
C4921 C4920 1.327 . S
C4921 C4925 1.429 . S
C4922 C4905 1.574 1_455 S
C4922 H4916 0.949 . S
C4922 C4926 1.368 . S
C4923 C4904 1.429 . S
C4923 C4917 1.429 . S
C4923 C4924 1.523 . S
C4924 C4905 1.368 . S
C4924 C4918 1.368 . S
C4924 C4923 1.523 . S
C4925 C4909 1.429 . S
C4925 C4921 1.429 . S
C4925 C4926 1.523 . S
C4926 C4910 1.368 . S
C4926 C4922 1.368 . S
C4926 C4925 1.523 . S
H4927 C4902 0.950 . S
H4928 C4904 0.950 . S
H4929 C4905 0.949 . S
H4930 C4907 0.950 . S
H4931 C4909 0.950 . S
C4932 C4933 1.349 . S
C4932 C4934 1.327 . S
C4932 H4957 0.950 . S
C4933 C4932 1.349 . S
C4933 C4949 1.349 . S
C4934 C4932 1.327 . S
C4934 C4953 1.429 . S
C4934 H4958 0.950 . S
C4935 C4952 1.574 . S
C4935 C4954 1.368 . S
C4935 H4959 0.949 . S
H4936 C4940 0.949 . S
C4937 C4938 1.349 . S
C4937 C4939 1.327 . S
C4937 H4960 0.950 . S
C4938 C4937 1.349 . S
C4938 C4950 1.349 . S
C4939 C4937 1.327 . S
C4939 C4955 1.429 . S
C4939 H4961 0.950 . S
C4940 H4936 0.949 . S
C4940 C4948 1.574 . S
C4940 C4956 1.368 . S
H4941 C4949 0.950 . S
H4942 C4947 0.950 . S
H4943 C4948 0.949 . S
H4944 C4950 0.950 . S
H4945 C4951 0.950 . S
H4946 C4952 0.949 . S
C4947 H4942 0.950 . S
C4947 C4949 1.327 . S
C4947 C4953 1.429 . S
C4948 C4940 1.574 . S
C4948 H4943 0.949 . S
C4948 C4954 1.368 . S
C4949 C4933 1.349 . S
C4949 H4941 0.950 . S
C4949 C4947 1.327 . S
C4950 C4938 1.349 . S
C4950 H4944 0.950 . S
C4950 C4951 1.327 . S
C4951 H4945 0.950 . S
C4951 C4950 1.327 . S
C4951 C4955 1.429 . S
C4952 C4935 1.574 . S
C4952 H4946 0.949 . S
C4952 C4956 1.368 . S
C4953 C4934 1.429 . S
C4953 C4947 1.429 . S
C4953 C4954 1.523 . S
C4954 C4935 1.368 . S
C4954 C4948 1.368 . S
C4954 C4953 1.523 . S
C4955 C4939 1.429 . S
C4955 C4951 1.429 . S
C4955 C4956 1.523 . S
C4956 C4940 1.368 . S
C4956 C4952 1.368 . S
C4956 C4955 1.523 . S
H4957 C4932 0.950 . S
H4958 C4934 0.950 . S
H4959 C4935 0.949 . S
H4960 C4937 0.950 . S
H4961 C4939 0.950 . S
C4962 C4963 1.349 . S
C4962 C4964 1.327 . S
C4962 H4987 0.950 . S
C4963 C4962 1.349 . S
C4963 C4979 1.349 . S
C4964 C4962 1.327 . S
C4964 C4983 1.429 . S
C4964 H4988 0.950 . S
C4965 C4982 1.574 . S
C4965 C4984 1.368 . S
C4965 H4989 0.949 . S
H4966 C4970 0.949 . S
C4967 C4968 1.349 . S
C4967 C4969 1.327 . S
C4967 H4990 0.950 . S
C4968 C4967 1.349 . S
C4968 C4980 1.349 . S
C4969 C4967 1.327 . S
C4969 C4985 1.429 . S
C4969 H4991 0.950 . S
C4970 H4966 0.949 . S
C4970 C4978 1.574 . S
C4970 C4986 1.368 . S
H4971 C4979 0.950 . S
H4972 C4977 0.950 . S
H4973 C4978 0.949 . S
H4974 C4980 0.950 . S
H4975 C4981 0.950 . S
H4976 C4982 0.949 . S
C4977 H4972 0.950 . S
C4977 C4979 1.327 . S
C4977 C4983 1.429 . S
C4978 C4970 1.574 . S
C4978 H4973 0.949 . S
C4978 C4984 1.368 . S
C4979 C4963 1.349 . S
C4979 H4971 0.950 . S
C4979 C4977 1.327 . S
C4980 C4968 1.349 . S
C4980 H4974 0.950 . S
C4980 C4981 1.327 . S
C4981 H4975 0.950 . S
C4981 C4980 1.327 . S
C4981 C4985 1.429 . S
C4982 C4965 1.574 . S
C4982 H4976 0.949 . S
C4982 C4986 1.368 . S
C4983 C4964 1.429 . S
C4983 C4977 1.429 . S
C4983 C4984 1.523 . S
C4984 C4965 1.368 . S
C4984 C4978 1.368 . S
C4984 C4983 1.523 . S
C4985 C4969 1.429 . S
C4985 C4981 1.429 . S
C4985 C4986 1.523 . S
C4986 C4970 1.368 . S
C4986 C4982 1.368 . S
C4986 C4985 1.523 . S
H4987 C4962 0.950 . S
H4988 C4964 0.950 . S
H4989 C4965 0.949 . S
H4990 C4967 0.950 . S
H4991 C4969 0.950 . S
C4992 C4993 1.349 . S
C4992 C4994 1.327 . S
C4992 H5017 0.950 . S
C4993 C4992 1.349 . S
C4993 C5009 1.349 . S
C4994 C4992 1.327 . S
C4994 C5013 1.429 . S
C4994 H5018 0.950 . S
C4995 C5012 1.574 1_554 S
C4995 C5014 1.368 . S
C4995 H5019 0.949 . S
H4996 C5000 0.949 . S
C4997 C4998 1.349 . S
C4997 C4999 1.327 . S
C4997 H5020 0.950 . S
C4998 C4997 1.349 . S
C4998 C5010 1.349 . S
C4999 C4997 1.327 . S
C4999 C5015 1.429 . S
C4999 H5021 0.950 . S
C5000 H4996 0.949 . S
C5000 C5008 1.574 1_556 S
C5000 C5016 1.368 . S
H5001 C5009 0.950 . S
H5002 C5007 0.950 . S
H5003 C5008 0.949 . S
H5004 C5010 0.950 . S
H5005 C5011 0.950 . S
H5006 C5012 0.949 . S
C5007 H5002 0.950 . S
C5007 C5009 1.327 . S
C5007 C5013 1.429 . S
C5008 C5000 1.574 1_554 S
C5008 H5003 0.949 . S
C5008 C5014 1.368 . S
C5009 C4993 1.349 . S
C5009 H5001 0.950 . S
C5009 C5007 1.327 . S
C5010 C4998 1.349 . S
C5010 H5004 0.950 . S
C5010 C5011 1.327 . S
C5011 H5005 0.950 . S
C5011 C5010 1.327 . S
C5011 C5015 1.429 . S
C5012 C4995 1.574 1_556 S
C5012 H5006 0.949 . S
C5012 C5016 1.368 . S
C5013 C4994 1.429 . S
C5013 C5007 1.429 . S
C5013 C5014 1.523 . S
C5014 C4995 1.368 . S
C5014 C5008 1.368 . S
C5014 C5013 1.523 . S
C5015 C4999 1.429 . S
C5015 C5011 1.429 . S
C5015 C5016 1.523 . S
C5016 C5000 1.368 . S
C5016 C5012 1.368 . S
C5016 C5015 1.523 . S
H5017 C4992 0.950 . S
H5018 C4994 0.950 . S
H5019 C4995 0.949 . S
H5020 C4997 0.950 . S
H5021 C4999 0.950 . S
C5022 C5023 1.349 . S
C5022 C5024 1.327 . S
C5022 H5047 0.950 . S
C5023 C5022 1.349 . S
C5023 C5039 1.349 . S
C5024 C5022 1.327 . S
C5024 C5043 1.429 . S
C5024 H5048 0.950 . S
C5025 C5042 1.574 . S
C5025 C5044 1.368 . S
C5025 H5049 0.949 . S
H5026 C5030 0.949 . S
C5027 C5028 1.349 . S
C5027 C5029 1.327 . S
C5027 H5050 0.950 . S
C5028 C5027 1.349 . S
C5028 C5040 1.349 . S
C5029 C5027 1.327 . S
C5029 C5045 1.429 . S
C5029 H5051 0.950 . S
C5030 H5026 0.949 . S
C5030 C5038 1.574 . S
C5030 C5046 1.368 . S
H5031 C5039 0.950 . S
H5032 C5037 0.950 . S
H5033 C5038 0.949 . S
H5034 C5040 0.950 . S
H5035 C5041 0.950 . S
H5036 C5042 0.949 . S
C5037 H5032 0.950 . S
C5037 C5039 1.327 . S
C5037 C5043 1.429 . S
C5038 C5030 1.574 . S
C5038 H5033 0.949 . S
C5038 C5044 1.368 . S
C5039 C5023 1.349 . S
C5039 H5031 0.950 . S
C5039 C5037 1.327 . S
C5040 C5028 1.349 . S
C5040 H5034 0.950 . S
C5040 C5041 1.327 . S
C5041 H5035 0.950 . S
C5041 C5040 1.327 . S
C5041 C5045 1.429 . S
C5042 C5025 1.574 . S
C5042 H5036 0.949 . S
C5042 C5046 1.368 . S
C5043 C5024 1.429 . S
C5043 C5037 1.429 . S
C5043 C5044 1.523 . S
C5044 C5025 1.368 . S
C5044 C5038 1.368 . S
C5044 C5043 1.523 . S
C5045 C5029 1.429 . S
C5045 C5041 1.429 . S
C5045 C5046 1.523 . S
C5046 C5030 1.368 . S
C5046 C5042 1.368 . S
C5046 C5045 1.523 . S
H5047 C5022 0.950 . S
H5048 C5024 0.950 . S
H5049 C5025 0.949 . S
H5050 C5027 0.950 . S
H5051 C5029 0.950 . S
C5052 C5053 1.349 . S
C5052 C5054 1.327 . S
C5052 H5077 0.950 . S
C5053 C5052 1.349 . S
C5053 C5069 1.349 . S
C5054 C5052 1.327 . S
C5054 C5073 1.429 . S
C5054 H5078 0.950 . S
C5055 C5072 1.574 . S
C5055 C5074 1.368 . S
C5055 H5079 0.949 . S
H5056 C5060 0.949 . S
C5057 C5058 1.349 . S
C5057 C5059 1.327 . S
C5057 H5080 0.950 . S
C5058 C5057 1.349 . S
C5058 C5070 1.349 . S
C5059 C5057 1.327 . S
C5059 C5075 1.429 . S
C5059 H5081 0.950 . S
C5060 H5056 0.949 . S
C5060 C5068 1.574 . S
C5060 C5076 1.368 . S
H5061 C5069 0.950 . S
H5062 C5067 0.950 . S
H5063 C5068 0.949 . S
H5064 C5070 0.950 . S
H5065 C5071 0.950 . S
H5066 C5072 0.949 . S
C5067 H5062 0.950 . S
C5067 C5069 1.327 . S
C5067 C5073 1.429 . S
C5068 C5060 1.574 . S
C5068 H5063 0.949 . S
C5068 C5074 1.368 . S
C5069 C5053 1.349 . S
C5069 H5061 0.950 . S
C5069 C5067 1.327 . S
C5070 C5058 1.349 . S
C5070 H5064 0.950 . S
C5070 C5071 1.327 . S
C5071 H5065 0.950 . S
C5071 C5070 1.327 . S
C5071 C5075 1.429 . S
C5072 C5055 1.574 . S
C5072 H5066 0.949 . S
C5072 C5076 1.368 . S
C5073 C5054 1.429 . S
C5073 C5067 1.429 . S
C5073 C5074 1.523 . S
C5074 C5055 1.368 . S
C5074 C5068 1.368 . S
C5074 C5073 1.523 . S
C5075 C5059 1.429 . S
C5075 C5071 1.429 . S
C5075 C5076 1.523 . S
C5076 C5060 1.368 . S
C5076 C5072 1.368 . S
C5076 C5075 1.523 . S
H5077 C5052 0.950 . S
H5078 C5054 0.950 . S
H5079 C5055 0.949 . S
H5080 C5057 0.950 . S
H5081 C5059 0.950 . S
C5082 C5083 1.349 . S
C5082 C5084 1.327 . S
C5082 H5107 0.950 . S
C5083 C5082 1.349 . S
C5083 C5099 1.349 . S
C5084 C5082 1.327 . S
C5084 C5103 1.429 . S
C5084 H5108 0.950 . S
C5085 C5102 1.574 . S
C5085 C5104 1.368 . S
C5085 H5109 0.949 . S
H5086 C5090 0.949 . S
C5087 C5088 1.349 . S
C5087 C5089 1.327 . S
C5087 H5110 0.950 . S
C5088 C5087 1.349 . S
C5088 C5100 1.349 . S
C5089 C5087 1.327 . S
C5089 C5105 1.429 . S
C5089 H5111 0.950 . S
C5090 H5086 0.949 . S
C5090 C5098 1.574 . S
C5090 C5106 1.368 . S
H5091 C5099 0.950 . S
H5092 C5097 0.950 . S
H5093 C5098 0.949 . S
H5094 C5100 0.950 . S
H5095 C5101 0.950 . S
H5096 C5102 0.949 . S
C5097 H5092 0.950 . S
C5097 C5099 1.327 . S
C5097 C5103 1.429 . S
C5098 C5090 1.574 . S
C5098 H5093 0.949 . S
C5098 C5104 1.368 . S
C5099 C5083 1.349 . S
C5099 H5091 0.950 . S
C5099 C5097 1.327 . S
C5100 C5088 1.349 . S
C5100 H5094 0.950 . S
C5100 C5101 1.327 . S
C5101 H5095 0.950 . S
C5101 C5100 1.327 . S
C5101 C5105 1.429 . S
C5102 C5085 1.574 . S
C5102 H5096 0.949 . S
C5102 C5106 1.368 . S
C5103 C5084 1.429 . S
C5103 C5097 1.429 . S
C5103 C5104 1.523 . S
C5104 C5085 1.368 . S
C5104 C5098 1.368 . S
C5104 C5103 1.523 . S
C5105 C5089 1.429 . S
C5105 C5101 1.429 . S
C5105 C5106 1.523 . S
C5106 C5090 1.368 . S
C5106 C5102 1.368 . S
C5106 C5105 1.523 . S
H5107 C5082 0.950 . S
H5108 C5084 0.950 . S
H5109 C5085 0.949 . S
H5110 C5087 0.950 . S
H5111 C5089 0.950 . S
C5112 C5113 1.349 . S
C5112 C5114 1.327 . S
C5112 H5137 0.950 . S
C5113 C5112 1.349 . S
C5113 C5129 1.349 . S
C5114 C5112 1.327 . S
C5114 C5133 1.429 . S
C5114 H5138 0.950 . S
C5115 C5132 1.574 . S
C5115 C5134 1.368 . S
C5115 H5139 0.949 . S
H5116 C5120 0.949 . S
C5117 C5118 1.349 . S
C5117 C5119 1.327 . S
C5117 H5140 0.950 . S
C5118 C5117 1.349 . S
C5118 C5130 1.349 . S
C5119 C5117 1.327 . S
C5119 C5135 1.429 . S
C5119 H5141 0.950 . S
C5120 H5116 0.949 . S
C5120 C5128 1.574 . S
C5120 C5136 1.368 . S
H5121 C5129 0.950 . S
H5122 C5127 0.950 . S
H5123 C5128 0.949 . S
H5124 C5130 0.950 . S
H5125 C5131 0.950 . S
H5126 C5132 0.949 . S
C5127 H5122 0.950 . S
C5127 C5129 1.327 . S
C5127 C5133 1.429 . S
C5128 C5120 1.574 . S
C5128 H5123 0.949 . S
C5128 C5134 1.368 . S
C5129 C5113 1.349 . S
C5129 H5121 0.950 . S
C5129 C5127 1.327 . S
C5130 C5118 1.349 . S
C5130 H5124 0.950 . S
C5130 C5131 1.327 . S
C5131 H5125 0.950 . S
C5131 C5130 1.327 . S
C5131 C5135 1.429 . S
C5132 C5115 1.574 . S
C5132 H5126 0.949 . S
C5132 C5136 1.368 . S
C5133 C5114 1.429 . S
C5133 C5127 1.429 . S
C5133 C5134 1.523 . S
C5134 C5115 1.368 . S
C5134 C5128 1.368 . S
C5134 C5133 1.523 . S
C5135 C5119 1.429 . S
C5135 C5131 1.429 . S
C5135 C5136 1.523 . S
C5136 C5120 1.368 . S
C5136 C5132 1.368 . S
C5136 C5135 1.523 . S
H5137 C5112 0.950 . S
H5138 C5114 0.950 . S
H5139 C5115 0.949 . S
H5140 C5117 0.950 . S
H5141 C5119 0.950 . S
C5142 C5143 1.349 . S
C5142 C5144 1.327 1_554 S
C5142 H5167 0.950 1_554 S
C5143 C5142 1.349 . S
C5143 C5159 1.349 . S
C5144 C5142 1.327 1_556 S
C5144 C5163 1.429 1_556 S
C5144 H5168 0.950 . S
C5145 C5162 1.574 . S
C5145 C5164 1.368 . S
C5145 H5169 0.949 . S
H5146 C5150 0.949 . S
C5147 C5148 1.349 . S
C5147 C5149 1.339 . S
C5147 H5170 0.931 1_556 S
C5148 C5147 1.349 . S
C5148 C5160 1.349 . S
C5149 C5147 1.339 . S
C5149 C5165 1.451 . S
C5149 H5171 0.917 1_556 S
C5150 H5146 0.949 . S
C5150 C5158 1.574 . S
C5150 C5166 1.368 . S
H5151 C5159 0.950 . S
H5152 C5157 0.950 . S
H5153 C5158 0.949 . S
H5154 C5160 0.950 . S
H5155 C5161 0.950 . S
H5156 C5162 0.949 . S
C5157 H5152 0.950 . S
C5157 C5159 1.327 . S
C5157 C5163 1.429 . S
C5158 C5150 1.574 . S
C5158 H5153 0.949 . S
C5158 C5164 1.368 1_556 S
C5159 C5143 1.349 . S
C5159 H5151 0.950 . S
C5159 C5157 1.327 . S
C5160 C5148 1.349 . S
C5160 H5154 0.950 . S
C5160 C5161 1.327 . S
C5161 H5155 0.950 . S
C5161 C5160 1.327 . S
C5161 C5165 1.429 . S
C5162 C5145 1.574 . S
C5162 H5156 0.949 . S
C5162 C5166 1.368 1_554 S
C5163 C5144 1.429 1_554 S
C5163 C5157 1.429 . S
C5163 C5164 1.523 . S
C5164 C5145 1.368 . S
C5164 C5158 1.368 1_554 S
C5164 C5163 1.523 . S
C5165 C5149 1.451 . S
C5165 C5161 1.429 . S
C5165 C5166 1.523 . S
C5166 C5150 1.368 . S
C5166 C5162 1.368 1_556 S
C5166 C5165 1.523 . S
H5167 C5142 0.950 1_556 S
H5168 C5144 0.950 . S
H5169 C5145 0.949 . S
H5170 C5147 0.931 1_554 S
H5171 C5149 0.917 1_554 S
C5172 C5173 1.349 . S
C5172 C5174 1.327 . S
C5172 H5197 0.950 . S
C5173 C5172 1.349 . S
C5173 C5189 1.349 . S
C5174 C5172 1.327 . S
C5174 C5193 1.429 . S
C5174 H5198 0.950 . S
C5175 C5192 1.574 . S
C5175 C5194 1.368 . S
C5175 H5199 0.949 . S
H5176 C5180 0.949 . S
C5177 C5178 1.349 . S
C5177 C5179 1.327 . S
C5177 H5200 0.950 . S
C5178 C5177 1.349 . S
C5178 C5190 1.349 . S
C5179 C5177 1.327 . S
C5179 C5195 1.429 . S
C5179 H5201 0.950 . S
C5180 H5176 0.949 . S
C5180 C5188 1.574 . S
C5180 C5196 1.368 . S
H5181 C5189 0.950 . S
H5182 C5187 0.950 . S
H5183 C5188 0.949 . S
H5184 C5190 0.950 . S
H5185 C5191 0.950 . S
H5186 C5192 0.949 . S
C5187 H5182 0.950 . S
C5187 C5189 1.327 . S
C5187 C5193 1.429 . S
C5188 C5180 1.574 . S
C5188 H5183 0.949 . S
C5188 C5194 1.368 . S
C5189 C5173 1.349 . S
C5189 H5181 0.950 . S
C5189 C5187 1.327 . S
C5190 C5178 1.349 . S
C5190 H5184 0.950 . S
C5190 C5191 1.327 . S
C5191 H5185 0.950 . S
C5191 C5190 1.327 . S
C5191 C5195 1.429 . S
C5192 C5175 1.574 . S
C5192 H5186 0.949 . S
C5192 C5196 1.368 . S
C5193 C5174 1.429 . S
C5193 C5187 1.429 . S
C5193 C5194 1.523 . S
C5194 C5175 1.368 . S
C5194 C5188 1.368 . S
C5194 C5193 1.523 . S
C5195 C5179 1.429 . S
C5195 C5191 1.429 . S
C5195 C5196 1.523 . S
C5196 C5180 1.368 . S
C5196 C5192 1.368 . S
C5196 C5195 1.523 . S
H5197 C5172 0.950 . S
H5198 C5174 0.950 . S
H5199 C5175 0.949 . S
H5200 C5177 0.950 . S
H5201 C5179 0.950 . S
C5202 C5203 1.349 . S
C5202 C5204 1.327 . S
C5202 H5227 0.950 . S
C5203 C5202 1.349 . S
C5203 C5219 1.349 . S
C5204 C5202 1.327 . S
C5204 C5223 1.429 . S
C5204 H5228 0.950 . S
C5205 C5222 1.574 . S
C5205 C5224 1.368 . S
C5205 H5229 0.949 . S
H5206 C5210 0.949 . S
C5207 C5208 1.349 . S
C5207 C5209 1.327 . S
C5207 H5230 0.950 . S
C5208 C5207 1.349 . S
C5208 C5220 1.349 . S
C5209 C5207 1.327 . S
C5209 C5225 1.429 . S
C5209 H5231 0.950 . S
C5210 H5206 0.949 . S
C5210 C5218 1.574 . S
C5210 C5226 1.368 . S
H5211 C5219 0.950 . S
H5212 C5217 0.950 . S
H5213 C5218 0.949 . S
H5214 C5220 0.950 . S
H5215 C5221 0.950 . S
H5216 C5222 0.949 . S
C5217 H5212 0.950 . S
C5217 C5219 1.327 . S
C5217 C5223 1.429 . S
C5218 C5210 1.574 . S
C5218 H5213 0.949 . S
C5218 C5224 1.368 . S
C5219 C5203 1.349 . S
C5219 H5211 0.950 . S
C5219 C5217 1.327 . S
C5220 C5208 1.349 . S
C5220 H5214 0.950 . S
C5220 C5221 1.327 . S
C5221 H5215 0.950 . S
C5221 C5220 1.327 . S
C5221 C5225 1.429 . S
C5222 C5205 1.574 . S
C5222 H5216 0.949 . S
C5222 C5226 1.368 . S
C5223 C5204 1.429 . S
C5223 C5217 1.429 . S
C5223 C5224 1.523 . S
C5224 C5205 1.368 . S
C5224 C5218 1.368 . S
C5224 C5223 1.523 . S
C5225 C5209 1.429 . S
C5225 C5221 1.429 . S
C5225 C5226 1.523 . S
C5226 C5210 1.368 . S
C5226 C5222 1.368 . S
C5226 C5225 1.523 . S
H5227 C5202 0.950 . S
H5228 C5204 0.950 . S
H5229 C5205 0.949 . S
H5230 C5207 0.950 . S
H5231 C5209 0.950 . S
C1633 C553 1.076 . S
C1638 C20 1.054 . S
C1663 C54 1.053 . S
C1668 C1607 1.075 . S
C1693 C88 1.054 . S
C1698 C723 1.076 . S
C1723 C122 1.053 . S
C1728 C1573 1.076 . S
C1753 C156 1.053 . S
C1758 C1403 1.076 . S
C1783 C190 1.054 . S
C1788 C1437 1.077 . S
C1813 C224 1.053 . S
C1818 C1471 1.075 . S
C1843 C689 1.077 . S
C1848 C258 1.054 . S
C1873 C292 1.054 . S
C1878 C9 1.076 . S
C1903 C326 1.053 . S
C1908 C43 1.076 . S
C1933 C360 1.052 . S
C1938 C77 1.075 . S
C1963 C394 1.054 . S
C1968 C111 1.077 . S
C1993 C428 1.054 . S
C1998 C145 1.076 . S
C2023 C179 1.075 . S
C2028 C462 1.053 . S
C2053 C213 1.076 . S
C2058 C496 1.053 . S
C2083 C530 1.054 . S
C2088 C247 1.077 . S
C2113 C281 1.076 . S
C2118 C564 1.054 . S
C2143 C1233 1.075 . S
C2148 C598 1.052 . S
C2173 C1267 1.076 . S
C2178 C632 1.053 . S
C2203 C1301 1.076 . S
C2208 C666 1.054 . S
C2233 C700 1.054 . S
C2238 C519 1.077 . S
C2263 C734 1.053 . S
C2268 C349 1.076 . S
C2293 C1199 1.075 . S
C2298 C768 1.053 . S
C2323 C802 1.054 . S
C2328 C1131 1.077 . S
C2353 C836 1.054 . S
C2358 C1369 1.076 . S
C2383 C791 1.075 . S
C2388 C870 1.053 . S
C2413 C1539 1.076 . S
C2418 C904 1.054 . S
C2443 C938 1.054 . S
C2448 C757 1.076 . S
C2473 C972 1.053 . S
C2478 C587 1.076 . S
C2503 C621 1.077 . S
C2508 C1006 1.054 . S
C2533 C655 1.075 . S
C2538 C1040 1.052 . S
C2563 C1505 1.077 . S
C2568 C1074 1.054 . S
C2593 C825 1.076 . S
C2598 C1108 1.054 . S
C2623 C859 1.076 . S
C2628 C1142 1.054 . S
C2653 C1176 1.053 . S
C2658 C893 1.075 . S
C2683 C1210 1.054 . S
C2688 C927 1.077 . S
C2713 C1244 1.054 . S
C2718 C961 1.076 . S
C2743 C1278 1.053 . S
C2748 C995 1.075 . S
C2773 C1312 1.053 . S
C2778 C1029 1.076 . S
C2803 C1063 1.077 . S
C2808 C1346 1.054 . S
C2833 C1097 1.076 . S
C2838 C1380 1.054 . S
C2863 C417 1.075 . S
C2868 C1414 1.053 . S
C2893 C1448 1.054 . S
C2898 C451 1.076 . S
C2923 C485 1.076 . S
C2928 C1482 1.054 . S
C2953 C1335 1.077 . S
C2958 C1516 1.054 . S
C2983 C1550 1.053 . S
C2988 C1165 1.076 . S
C3013 C1584 1.053 . S
C3018 C383 1.075 . S
C3043 C315 1.077 . S
C3048 C1618 1.054 . S
C3073 C512 1.774 . S
C3078 C2 1.774 . S
C3103 C36 1.774 . S
C3108 C410 1.774 . S
C3133 C444 1.774 . S
C3138 C70 1.774 . S
C3163 C478 1.774 . S
C3168 C104 1.774 . S
C3193 C138 1.774 . S
C3198 C308 1.774 . S
C3223 C172 1.774 . S
C3228 C342 1.774 . S
C3253 C376 1.775 . S
C3258 C206 1.774 . S
C3283 C240 1.774 . S
C3288 C274 1.774 . S
C3313 C682 1.774 . S
C3318 C546 1.774 . S
C3343 C580 1.774 . S
C3348 C784 1.774 . S
C3373 C1532 1.774 . S
C3378 C614 1.774 . S
C3403 C750 1.774 . S
C3408 C648 1.774 . S
C3433 C716 1.774 . S
C3438 C1430 1.774 . S
C3463 C818 1.774 . S
C3468 C1328 1.774 . S
C3493 C1226 1.774 . S
C3498 C852 1.774 . S
C3523 C1260 1.774 . S
C3528 C886 1.774 . S
C3553 C1294 1.774 . S
C3558 C920 1.774 . S
C3583 C1124 1.774 . S
C3588 C954 1.774 . S
C3613 C988 1.775 . S
C3618 C1158 1.774 . S
C3643 C1192 1.774 . S
C3648 C1022 1.774 . S
C3673 C1056 1.774 . S
C3678 C1090 1.774 . S
C3703 C1498 1.774 . S
C3708 C1362 1.774 . S
C3733 C1396 1.774 . S
C3738 C1600 1.775 . S
C3763 C1566 1.774 . S
C3768 C1464 1.774 . S
C3793 C685 0.751 . S
C3798 C5 0.751 . S
C3823 C39 0.752 . S
C3828 C1399 0.752 . S
C3853 C73 0.752 . S
C3858 C1433 0.752 . S
C3883 C107 0.752 . S
C3888 C1467 0.752 . S
C3913 C141 0.752 . S
C3918 C1603 0.752 . S
C3943 C719 0.752 . S
C3948 C175 0.752 . S
C3973 C209 0.752 . S
C3978 C1569 0.752 . S
C4003 C243 0.751 . S
C4008 C549 0.751 . S
C4033 C515 0.751 . S
C4038 C277 0.751 . S
C4063 C413 0.752 . S
C4068 C311 0.752 . S
C4093 C345 0.752 . S
C4098 C447 0.752 . S
C4123 C481 0.752 . S
C4128 C379 0.752 . S
C4153 C855 0.752 . S
C4158 C583 0.752 . S
C4183 C617 0.752 . S
C4188 C889 0.752 . S
C4213 C651 0.752 . S
C4218 C923 0.752 . S
C4243 C1025 0.752 . S
C4248 C753 0.752 . S
C4273 C957 0.752 . S
C4278 C787 0.752 . S
C4303 C821 0.751 . S
C4308 C1501 0.751 . S
C4333 C1535 0.752 . S
C4338 C991 0.752 . S
C4363 C1365 0.751 . S
C4368 C1059 0.751 . S
C4393 C1093 0.751 . S
C4398 C1331 0.751 . S
C4423 C1229 0.752 . S
C4428 C1127 0.752 . S
C4453 C1161 0.752 . S
C4458 C1263 0.752 . S
C4483 C1195 0.752 . S
C4488 C1297 0.752 . S
C4513 C169 0.758 . S
C4518 C33 0.758 . S
C4543 C203 0.757 . S
C4548 C67 0.757 . S
C4573 C237 0.757 . S
C4578 C101 0.757 . S
C4603 C135 0.759 . S
C4608 C271 0.759 . S
C4633 C509 0.758 . S
C4638 C305 0.758 . S
C4663 C543 0.759 . S
C4668 C339 0.759 . S
C4693 C373 0.757 . S
C4698 C441 0.757 . S
C4723 C407 0.757 . S
C4728 C475 0.757 . S
C4753 C577 0.758 . S
C4758 C1563 0.758 . S
C4783 C611 0.757 . S
C4788 C1495 0.757 . S
C4813 C645 0.759 . S
C4818 C713 0.759 . S
C4843 C1427 0.757 . S
C4848 C679 0.757 . S
C4873 C1393 0.759 . S
C4878 C747 0.759 . S
C4903 C781 0.757 . S
C4908 C1631 0.757 . S
C4933 C1597 0.757 . S
C4938 C815 0.757 . S
C4963 C985 0.759 . S
C4968 C849 0.759 . S
C4993 C1019 0.757 . S
C4998 C883 0.757 . S
C5023 C917 0.757 . S
C5028 C1053 0.757 . S
C5053 C951 0.759 . S
C5058 C1087 0.759 . S
C5083 C1121 0.759 . S
C5088 C1325 0.759 . S
C5113 C1155 0.759 . S
C5118 C1359 0.759 . S
C5143 C1189 0.757 . S
C5148 C1257 0.757 . S
C5173 C1223 0.757 . S
C5178 C1291 0.757 . S
C5203 C1529 0.759 . S
C5208 C1461 0.759 . S
