# Generated by pormake.
# Topology ukd, (4)-cn, num edge types: 1
# Building blocks:
#     Node 0, Type 0, BuildingBlock: QUQFOY_clean_sbu_3, # of connection points: 4
#     Node 1, Type 0, BuildingBlock: QUQFOY_clean_sbu_3, # of connection points: 4
#     Node 2, Type 0, BuildingBlock: QUQFOY_clean_sbu_3, # of connection points: 4
#     Node 3, Type 0, BuildingBlock: QUQFOY_clean_sbu_3, # of connection points: 4
#     Node 4, Type 0, BuildingBlock: QUQFOY_clean_sbu_3, # of connection points: 4
#     Node 5, Type 0, BuildingBlock: QUQFOY_clean_sbu_3, # of connection points: 4
#     Node 6, Type 0, BuildingBlock: QUQFOY_clean_sbu_3, # of connection points: 4
#     Node 7, Type 0, BuildingBlock: QUQFOY_clean_sbu_3, # of connection points: 4
#     Node 8, Type 0, BuildingBlock: QUQFOY_clean_sbu_3, # of connection points: 4
#     Node 9, Type 0, BuildingBlock: QUQFOY_clean_sbu_3, # of connection points: 4
#     Node 10, Type 0, BuildingBlock: QUQFOY_clean_sbu_3, # of connection points: 4
#     Node 11, Type 0, BuildingBlock: QUQFOY_clean_sbu_3, # of connection points: 4
#     Node 12, Type 0, BuildingBlock: QUQFOY_clean_sbu_3, # of connection points: 4
#     Node 13, Type 0, BuildingBlock: QUQFOY_clean_sbu_3, # of connection points: 4
#     Node 14, Type 0, BuildingBlock: QUQFOY_clean_sbu_3, # of connection points: 4
#     Node 15, Type 0, BuildingBlock: QUQFOY_clean_sbu_3, # of connection points: 4
#     Node 16, Type 0, BuildingBlock: QUQFOY_clean_sbu_3, # of connection points: 4
#     Node 17, Type 0, BuildingBlock: QUQFOY_clean_sbu_3, # of connection points: 4
#     Node 18, Type 0, BuildingBlock: QUQFOY_clean_sbu_3, # of connection points: 4
#     Node 19, Type 0, BuildingBlock: QUQFOY_clean_sbu_3, # of connection points: 4
#     Node 20, Type 0, BuildingBlock: QUQFOY_clean_sbu_3, # of connection points: 4
#     Node 21, Type 0, BuildingBlock: QUQFOY_clean_sbu_3, # of connection points: 4
#     Node 22, Type 0, BuildingBlock: QUQFOY_clean_sbu_3, # of connection points: 4
#     Node 23, Type 0, BuildingBlock: QUQFOY_clean_sbu_3, # of connection points: 4
#     Node 24, Type 0, BuildingBlock: QUQFOY_clean_sbu_3, # of connection points: 4
#     Node 25, Type 0, BuildingBlock: QUQFOY_clean_sbu_3, # of connection points: 4
#     Node 26, Type 0, BuildingBlock: QUQFOY_clean_sbu_3, # of connection points: 4
#     Node 27, Type 0, BuildingBlock: QUQFOY_clean_sbu_3, # of connection points: 4
#     Node 28, Type 0, BuildingBlock: QUQFOY_clean_sbu_3, # of connection points: 4
#     Node 29, Type 0, BuildingBlock: QUQFOY_clean_sbu_3, # of connection points: 4
#     Node 30, Type 0, BuildingBlock: QUQFOY_clean_sbu_3, # of connection points: 4
#     Node 31, Type 0, BuildingBlock: QUQFOY_clean_sbu_3, # of connection points: 4
#     Edge 32, Type (0, 0), BuildingBlock: UVAHIK_clean_linker_0, # of connection points: 2
#     Edge 33, Type (0, 0), BuildingBlock: UVAHIK_clean_linker_0, # of connection points: 2
#     Edge 34, Type (0, 0), BuildingBlock: UVAHIK_clean_linker_0, # of connection points: 2
#     Edge 35, Type (0, 0), BuildingBlock: UVAHIK_clean_linker_0, # of connection points: 2
#     Edge 36, Type (0, 0), BuildingBlock: UVAHIK_clean_linker_0, # of connection points: 2
#     Edge 37, Type (0, 0), BuildingBlock: UVAHIK_clean_linker_0, # of connection points: 2
#     Edge 38, Type (0, 0), BuildingBlock: UVAHIK_clean_linker_0, # of connection points: 2
#     Edge 39, Type (0, 0), BuildingBlock: UVAHIK_clean_linker_0, # of connection points: 2
#     Edge 40, Type (0, 0), BuildingBlock: UVAHIK_clean_linker_0, # of connection points: 2
#     Edge 41, Type (0, 0), BuildingBlock: UVAHIK_clean_linker_0, # of connection points: 2
#     Edge 42, Type (0, 0), BuildingBlock: UVAHIK_clean_linker_0, # of connection points: 2
#     Edge 43, Type (0, 0), BuildingBlock: UVAHIK_clean_linker_0, # of connection points: 2
#     Edge 44, Type (0, 0), BuildingBlock: UVAHIK_clean_linker_0, # of connection points: 2
#     Edge 45, Type (0, 0), BuildingBlock: UVAHIK_clean_linker_0, # of connection points: 2
#     Edge 46, Type (0, 0), BuildingBlock: UVAHIK_clean_linker_0, # of connection points: 2
#     Edge 47, Type (0, 0), BuildingBlock: UVAHIK_clean_linker_0, # of connection points: 2
#     Edge 48, Type (0, 0), BuildingBlock: UVAHIK_clean_linker_0, # of connection points: 2
#     Edge 49, Type (0, 0), BuildingBlock: UVAHIK_clean_linker_0, # of connection points: 2
#     Edge 50, Type (0, 0), BuildingBlock: UVAHIK_clean_linker_0, # of connection points: 2
#     Edge 51, Type (0, 0), BuildingBlock: UVAHIK_clean_linker_0, # of connection points: 2
#     Edge 52, Type (0, 0), BuildingBlock: UVAHIK_clean_linker_0, # of connection points: 2
#     Edge 53, Type (0, 0), BuildingBlock: UVAHIK_clean_linker_0, # of connection points: 2
#     Edge 54, Type (0, 0), BuildingBlock: UVAHIK_clean_linker_0, # of connection points: 2
#     Edge 55, Type (0, 0), BuildingBlock: UVAHIK_clean_linker_0, # of connection points: 2
#     Edge 56, Type (0, 0), BuildingBlock: UVAHIK_clean_linker_0, # of connection points: 2
#     Edge 57, Type (0, 0), BuildingBlock: UVAHIK_clean_linker_0, # of connection points: 2
#     Edge 58, Type (0, 0), BuildingBlock: UVAHIK_clean_linker_0, # of connection points: 2
#     Edge 59, Type (0, 0), BuildingBlock: UVAHIK_clean_linker_0, # of connection points: 2
#     Edge 60, Type (0, 0), BuildingBlock: UVAHIK_clean_linker_0, # of connection points: 2
#     Edge 61, Type (0, 0), BuildingBlock: UVAHIK_clean_linker_0, # of connection points: 2
#     Edge 62, Type (0, 0), BuildingBlock: UVAHIK_clean_linker_0, # of connection points: 2
#     Edge 63, Type (0, 0), BuildingBlock: UVAHIK_clean_linker_0, # of connection points: 2
#     Edge 64, Type (0, 0), BuildingBlock: UVAHIK_clean_linker_0, # of connection points: 2
#     Edge 65, Type (0, 0), BuildingBlock: UVAHIK_clean_linker_0, # of connection points: 2
#     Edge 66, Type (0, 0), BuildingBlock: UVAHIK_clean_linker_0, # of connection points: 2
#     Edge 67, Type (0, 0), BuildingBlock: UVAHIK_clean_linker_0, # of connection points: 2
#     Edge 68, Type (0, 0), BuildingBlock: UVAHIK_clean_linker_0, # of connection points: 2
#     Edge 69, Type (0, 0), BuildingBlock: UVAHIK_clean_linker_0, # of connection points: 2
#     Edge 70, Type (0, 0), BuildingBlock: UVAHIK_clean_linker_0, # of connection points: 2
#     Edge 71, Type (0, 0), BuildingBlock: UVAHIK_clean_linker_0, # of connection points: 2
#     Edge 72, Type (0, 0), BuildingBlock: UVAHIK_clean_linker_0, # of connection points: 2
#     Edge 73, Type (0, 0), BuildingBlock: UVAHIK_clean_linker_0, # of connection points: 2
#     Edge 74, Type (0, 0), BuildingBlock: UVAHIK_clean_linker_0, # of connection points: 2
#     Edge 75, Type (0, 0), BuildingBlock: UVAHIK_clean_linker_0, # of connection points: 2
#     Edge 76, Type (0, 0), BuildingBlock: UVAHIK_clean_linker_0, # of connection points: 2
#     Edge 77, Type (0, 0), BuildingBlock: UVAHIK_clean_linker_0, # of connection points: 2
#     Edge 78, Type (0, 0), BuildingBlock: UVAHIK_clean_linker_0, # of connection points: 2
#     Edge 79, Type (0, 0), BuildingBlock: UVAHIK_clean_linker_0, # of connection points: 2
#     Edge 80, Type (0, 0), BuildingBlock: UVAHIK_clean_linker_0, # of connection points: 2
#     Edge 81, Type (0, 0), BuildingBlock: UVAHIK_clean_linker_0, # of connection points: 2
#     Edge 82, Type (0, 0), BuildingBlock: UVAHIK_clean_linker_0, # of connection points: 2
#     Edge 83, Type (0, 0), BuildingBlock: UVAHIK_clean_linker_0, # of connection points: 2
#     Edge 84, Type (0, 0), BuildingBlock: UVAHIK_clean_linker_0, # of connection points: 2
#     Edge 85, Type (0, 0), BuildingBlock: UVAHIK_clean_linker_0, # of connection points: 2
#     Edge 86, Type (0, 0), BuildingBlock: UVAHIK_clean_linker_0, # of connection points: 2
#     Edge 87, Type (0, 0), BuildingBlock: UVAHIK_clean_linker_0, # of connection points: 2
#     Edge 88, Type (0, 0), BuildingBlock: UVAHIK_clean_linker_0, # of connection points: 2
#     Edge 89, Type (0, 0), BuildingBlock: UVAHIK_clean_linker_0, # of connection points: 2
#     Edge 90, Type (0, 0), BuildingBlock: UVAHIK_clean_linker_0, # of connection points: 2
#     Edge 91, Type (0, 0), BuildingBlock: UVAHIK_clean_linker_0, # of connection points: 2
#     Edge 92, Type (0, 0), BuildingBlock: UVAHIK_clean_linker_0, # of connection points: 2
#     Edge 93, Type (0, 0), BuildingBlock: UVAHIK_clean_linker_0, # of connection points: 2
#     Edge 94, Type (0, 0), BuildingBlock: UVAHIK_clean_linker_0, # of connection points: 2
#     Edge 95, Type (0, 0), BuildingBlock: UVAHIK_clean_linker_0, # of connection points: 2
# Relax obj value: 0.049
# Max RMSD: 0.079
# Mean RMSD: 0.074
data_MOF--net-ukd--node1-QUQFOY_clean_sbu_3--edge1-UVAHIK_clean_linker_0
_symmetry_space_group_name_H-M    P1
_symmetry_Int_Tables_number       1
_symmetry_cell_setting            triclinic
loop_
_symmetry_equiv_pos_as_xyz
'x, y, z'
_cell_length_a     59.724218
_cell_length_b     59.644991
_cell_length_c     98.072055
_cell_angle_alpha  89.94533
_cell_angle_beta   90.102414
_cell_angle_gamma 89.970278
loop_
_atom_site_label
_atom_site_type_symbol
_atom_site_fract_x
_atom_site_fract_y
_atom_site_fract_z
_atom_type_partial_charge
C0 C 0.19892 0.19226 0.30328 0.0
O1 O 0.17903 0.18502 0.30464 0.0
Cd2 Cd 0.16304 0.16861 0.32461 0.0
O3 O 0.213 0.19067 0.31305 0.0
Cd4 Cd 0.21383 0.17571 0.33685 0.0
C5 C 0.17373 0.21278 0.34647 0.0
O6 O 0.1905 0.14329 0.33254 0.0
O7 O 0.19733 0.14956 0.35367 0.0
O8 O 0.25126 0.16132 0.33228 0.0
C9 C 0.18795 0.1373 0.34481 0.0
O10 O 0.15991 0.19993 0.34038 0.0
C11 C 0.25991 0.16839 0.3433 0.0
O12 O 0.19475 0.20903 0.34605 0.0
O13 O 0.24733 0.17982 0.35109 0.0
C14 C 0.03224 0.95067 0.55315 0.0
O15 O 0.0382 0.93045 0.55505 0.0
Cd16 Cd 0.05333 0.91502 0.57558 0.0
O17 O 0.03447 0.96523 0.56258 0.0
Cd18 Cd 0.04902 0.96648 0.58647 0.0
C19 C 0.00984 0.92902 0.59703 0.0
O20 O 0.08044 0.94154 0.58265 0.0
O21 O 0.07452 0.9497 0.60364 0.0
O22 O 0.06496 0.00322 0.58142 0.0
C23 C 0.08647 0.93955 0.59495 0.0
O24 O 0.02183 0.91405 0.59133 0.0
C25 C 0.05792 0.01259 0.59221 0.0
O26 O 0.0149 0.94973 0.59608 0.0
O27 O 0.04589 0.00073 0.60009 0.0
C28 C 0.27612 0.77737 0.80462 0.0
O29 O 0.29651 0.78177 0.80714 0.0
Cd30 Cd 0.31028 0.79858 0.82769 0.0
O31 O 0.26098 0.78144 0.81341 0.0
Cd32 Cd 0.26037 0.79588 0.83718 0.0
C33 C 0.29528 0.75598 0.84889 0.0
O34 O 0.28556 0.82793 0.83441 0.0
O35 O 0.27993 0.81698 0.85503 0.0
O36 O 0.22446 0.81393 0.83252 0.0
C37 C 0.28827 0.83143 0.84704 0.0
O38 O 0.31092 0.76859 0.84456 0.0
C39 C 0.21486 0.80684 0.84323 0.0
O40 O 0.27483 0.76031 0.84627 0.0
O41 O 0.22619 0.79393 0.8509 0.0
C42 C 0.44589 0.0304 0.05254 0.0
O43 O 0.44 0.05056 0.05467 0.0
Cd44 Cd 0.42486 0.06462 0.07552 0.0
O45 O 0.44318 0.01548 0.06173 0.0
Cd46 Cd 0.42759 0.01312 0.08528 0.0
C47 C 0.4679 0.04801 0.09683 0.0
O48 O 0.3964 0.03916 0.08225 0.0
O49 O 0.40451 0.03064 0.10299 0.0
O50 O 0.41065 0.97751 0.0787 0.0
C51 C 0.39167 0.04091 0.09479 0.0
O52 O 0.45624 0.06363 0.09149 0.0
C53 C 0.41615 0.96711 0.0895 0.0
O54 O 0.46244 0.0275 0.09533 0.0
O55 O 0.42777 0.97787 0.09816 0.0
C56 C 0.20271 0.78923 0.17409 0.0
O57 O 0.18277 0.79644 0.17311 0.0
Cd58 Cd 0.16499 0.80638 0.15229 0.0
O59 O 0.2154 0.78852 0.16363 0.0
Cd60 Cd 0.2136 0.79971 0.139 0.0
C61 C 0.17671 0.75785 0.13411 0.0
O62 O 0.18942 0.83234 0.14146 0.0
O63 O 0.19288 0.81986 0.12103 0.0
O64 O 0.25015 0.81703 0.14219 0.0
C65 C 0.18509 0.83475 0.12891 0.0
O66 O 0.16293 0.7706 0.14028 0.0
C67 C 0.25873 0.80949 0.13128 0.0
O68 O 0.19703 0.76371 0.13241 0.0
O69 O 0.24657 0.79656 0.12412 0.0
C70 C 0.4482 0.95013 0.4218 0.0
O71 O 0.44276 0.92976 0.41996 0.0
Cd72 Cd 0.42633 0.91434 0.39982 0.0
O73 O 0.44474 0.96473 0.4125 0.0
Cd74 Cd 0.42836 0.96595 0.38904 0.0
C75 C 0.46757 0.92972 0.37711 0.0
O76 O 0.39788 0.94024 0.39382 0.0
O77 O 0.4016 0.94899 0.37272 0.0
O78 O 0.41331 0.00253 0.39536 0.0
C79 C 0.39075 0.93834 0.38173 0.0
O80 O 0.45641 0.9144 0.38308 0.0
C81 C 0.41803 0.01205 0.38414 0.0
O82 O 0.46214 0.9503 0.37834 0.0
O83 O 0.42835 0.00033 0.37535 0.0
C84 C 0.27612 0.19285 0.67329 0.0
O85 O 0.29602 0.18556 0.67214 0.0
Cd86 Cd 0.31227 0.16972 0.65213 0.0
O87 O 0.26234 0.19141 0.66335 0.0
Cd88 Cd 0.26154 0.17639 0.63955 0.0
C89 C 0.30122 0.2139 0.63004 0.0
O90 O 0.28513 0.14409 0.64409 0.0
O91 O 0.27762 0.14973 0.62296 0.0
O92 O 0.22406 0.16317 0.6451 0.0
C93 C 0.28739 0.13781 0.63186 0.0
O94 O 0.31484 0.20148 0.63663 0.0
C95 C 0.21527 0.16872 0.63379 0.0
O96 O 0.2803 0.20957 0.62988 0.0
O97 O 0.22781 0.17875 0.62529 0.0
C98 C 0.02772 0.02749 0.92065 0.0
O99 O 0.03355 0.04776 0.91885 0.0
Cd100 Cd 0.05033 0.06299 0.89876 0.0
O101 O 0.03098 0.01285 0.91138 0.0
Cd102 Cd 0.04744 0.01135 0.88801 0.0
C103 C 0.00874 0.04824 0.87607 0.0
O104 O 0.0783 0.03661 0.89279 0.0
O105 O 0.07442 0.02778 0.87172 0.0
O106 O 0.06195 0.97454 0.89435 0.0
C107 C 0.08544 0.03832 0.88071 0.0
O108 O 0.02014 0.0634 0.88203 0.0
C109 C 0.05715 0.96519 0.8831 0.0
O110 O 0.01391 0.02759 0.87728 0.0
O111 O 0.04697 0.97709 0.8743 0.0
C112 C 0.73068 0.80902 0.61814 0.0
O113 O 0.74014 0.80082 0.60769 0.0
Cd114 Cd 0.77372 0.77894 0.60888 0.0
O115 O 0.73851 0.80519 0.63002 0.0
Cd116 Cd 0.76975 0.78364 0.64051 0.0
C117 C 0.80867 0.81603 0.62506 0.0
O118 O 0.76815 0.7503 0.62578 0.0
O119 O 0.79644 0.75284 0.63942 0.0
O120 O 0.74377 0.77251 0.65837 0.0
C121 C 0.78538 0.74121 0.63097 0.0
O122 O 0.80355 0.80548 0.61422 0.0
C123 C 0.75652 0.77766 0.66825 0.0
O124 O 0.7983 0.8122 0.63615 0.0
O125 O 0.77523 0.78646 0.66525 0.0
C126 C 0.91447 0.97745 0.37033 0.0
O127 O 0.92288 0.9865 0.35981 0.0
Cd128 Cd 0.94379 0.02053 0.36094 0.0
O129 O 0.91807 0.98579 0.3821 0.0
Cd130 Cd 0.93998 0.01731 0.39206 0.0
C131 C 0.90642 0.05525 0.377 0.0
O132 O 0.97339 0.01596 0.37746 0.0
O133 O 0.96898 0.04576 0.38962 0.0
O134 O 0.95222 -0.00805 0.41007 0.0
C135 C 0.9815 0.03416 0.38196 0.0
O136 O 0.91651 0.04999 0.36603 0.0
C137 C 0.94717 0.00488 0.41986 0.0
O138 O 0.91096 0.04529 0.38814 0.0
O139 O 0.93811 0.02346 0.41675 0.0
C140 C 0.74641 0.16835 0.11779 0.0
O141 O 0.73626 0.17654 0.10755 0.0
Cd142 Cd 0.70186 0.19704 0.10957 0.0
O143 O 0.73893 0.17156 0.12979 0.0
Cd144 Cd 0.70761 0.1915 0.14106 0.0
C145 C 0.66895 0.15833 0.12592 0.0
O146 O 0.70642 0.22537 0.12676 0.0
O147 O 0.67921 0.22064 0.14098 0.0
O148 O 0.73317 0.20562 0.15831 0.0
C149 C 0.68904 0.23321 0.13246 0.0
O150 O 0.67337 0.16924 0.1151 0.0
C151 C 0.72279 0.19743 0.16844 0.0
O152 O 0.67957 0.16226 0.13693 0.0
O153 O 0.70557 0.18568 0.16584 0.0
C154 C 0.55909 -0.00617 0.86885 0.0
O155 O 0.5498 0.98443 0.85869 0.0
Cd156 Cd 0.52377 0.95367 0.86046 0.0
O157 O 0.55493 0.98718 0.88094 0.0
Cd158 Cd 0.53189 0.95855 0.89254 0.0
C159 C 0.55705 0.9149 0.87647 0.0
O160 O 0.49818 0.96296 0.87827 0.0
O161 O 0.49745 0.93686 0.89359 0.0
O162 O 0.52631 0.98632 0.91041 0.0
C163 C 0.48732 0.9477 0.88436 0.0
O164 O 0.54551 0.92039 0.86606 0.0
C165 C 0.5306 0.97311 0.92023 0.0
O166 O 0.55676 0.92682 0.88724 0.0
O167 O 0.53644 0.95327 0.91715 0.0
C168 C 0.72871 0.16287 0.85299 0.0
O169 O 0.73749 0.17095 0.86371 0.0
Cd170 Cd 0.77046 0.19387 0.86324 0.0
O171 O 0.73679 0.16753 0.84131 0.0
Cd172 Cd 0.76733 0.19068 0.83153 0.0
C173 C 0.80684 0.15862 0.84675 0.0
O174 O 0.7647 0.2233 0.84684 0.0
O175 O 0.79312 0.22206 0.83327 0.0
O176 O 0.74097 0.2017 0.81381 0.0
C177 C 0.78177 0.233 0.84191 0.0
O178 O 0.80114 0.16844 0.85773 0.0
C179 C 0.75388 0.19738 0.80388 0.0
O180 O 0.79663 0.16274 0.83561 0.0
O181 O 0.77294 0.18918 0.80679 0.0
C182 C 0.55922 0.97645 0.60453 0.0
O183 O 0.5497 0.98388 0.61516 0.0
Cd184 Cd 0.52747 0.0173 0.61472 0.0
O185 O 0.55626 0.98614 0.59309 0.0
Cd186 Cd 0.5346 0.01801 0.58349 0.0
C187 C 0.56523 0.05498 0.60139 0.0
O188 O 0.49992 0.01459 0.5969 0.0
O189 O 0.5048 0.04552 0.58585 0.0
O190 O 0.525 -0.00692 0.56483 0.0
C191 C 0.49193 0.03316 0.59284 0.0
O192 O 0.55374 0.04821 0.61152 0.0
C193 C 0.52982 0.00669 0.55533 0.0
O194 O 0.56278 0.04602 0.5897 0.0
O195 O 0.53758 0.02564 0.55888 0.0
C196 C 0.74488 0.80912 0.35422 0.0
O197 O 0.73526 0.801 0.36464 0.0
Cd198 Cd 0.70114 0.77994 0.36307 0.0
O199 O 0.73699 0.80553 0.34234 0.0
Cd200 Cd 0.70568 0.78483 0.33154 0.0
C201 C 0.66732 0.81805 0.34676 0.0
O202 O 0.70571 0.75114 0.34614 0.0
O203 O 0.67801 0.75516 0.33214 0.0
O204 O 0.73205 0.7731 0.31405 0.0
C205 C 0.6883 0.74292 0.34065 0.0
O206 O 0.67209 0.80729 0.3576 0.0
C207 C 0.71983 0.77866 0.304 0.0
O208 O 0.67772 0.81408 0.3357 0.0
O209 O 0.70124 0.78795 0.30675 0.0
C210 C 0.91626 0.0002 0.10282 0.0
O211 O 0.92587 -0.00736 0.11343 0.0
Cd212 Cd 0.94838 0.95934 0.11307 0.0
O213 O 0.91907 -0.00937 0.09134 0.0
Cd214 Cd 0.94025 0.95889 0.08139 0.0
C215 C 0.91068 0.92145 0.09982 0.0
O216 O 0.97492 0.96259 0.09482 0.0
O217 O 0.97149 0.9329 0.08241 0.0
O218 O 0.94826 0.98447 0.06278 0.0
C219 C 0.98365 0.94481 0.09012 0.0
O220 O 0.92219 0.92846 0.10989 0.0
C221 C 0.94339 0.97091 0.05327 0.0
O222 O 0.91289 0.93026 0.08806 0.0
O223 O 0.93625 0.9517 0.05681 0.0
C224 C 0.70089 0.68928 0.80032 0.0
O225 O 0.68133 0.68114 0.80142 0.0
Cd226 Cd 0.66478 0.66811 0.82204 0.0
O227 O 0.71407 0.68979 0.81057 0.0
Cd228 Cd 0.71382 0.67723 0.83492 0.0
C229 C 0.67374 0.7154 0.84193 0.0
O230 O 0.69089 0.64358 0.83247 0.0
O231 O 0.69551 0.65544 0.85296 0.0
O232 O 0.7508 0.66126 0.83124 0.0
C233 C 0.68729 0.64076 0.84508 0.0
O234 O 0.66073 0.70187 0.83573 0.0
C235 C 0.75959 0.66924 0.84198 0.0
O236 O 0.69473 0.71154 0.84269 0.0
O237 O 0.74734 0.68195 0.84922 0.0
C238 C 0.5335 0.44914 0.05393 0.0
O239 O 0.54122 0.42956 0.0559 0.0
Cd240 Cd 0.55609 0.41599 0.07696 0.0
O241 O 0.53414 0.46379 0.0634 0.0
Cd242 Cd 0.54811 0.46687 0.08734 0.0
C243 C 0.51048 0.42822 0.09744 0.0
O244 O 0.58136 0.44364 0.08485 0.0
O245 O 0.57159 0.4505 0.10547 0.0
O246 O 0.56228 0.50368 0.08095 0.0
C247 C 0.58545 0.44136 0.09744 0.0
O248 O 0.52382 0.41406 0.09209 0.0
C249 C 0.55608 0.51354 0.09177 0.0
O250 O 0.51402 0.44924 0.0964 0.0
O251 O 0.54527 0.50188 0.10039 0.0
C252 C 0.77641 0.27767 0.30284 0.0
O253 O 0.79675 0.28186 0.30564 0.0
Cd254 Cd 0.81052 0.29879 0.32617 0.0
O255 O 0.76096 0.28199 0.31141 0.0
Cd256 Cd 0.75925 0.29659 0.33513 0.0
C257 C 0.79415 0.25667 0.34742 0.0
O258 O 0.78524 0.32786 0.3323 0.0
O259 O 0.77685 0.31942 0.35297 0.0
O260 O 0.72326 0.31428 0.33004 0.0
C261 C 0.7869 0.33251 0.34485 0.0
O262 O 0.81009 0.26892 0.3431 0.0
C263 C 0.71345 0.307 0.34064 0.0
O264 O 0.7738 0.26132 0.34468 0.0
O265 O 0.72471 0.29412 0.34837 0.0
C266 C 0.94369 0.52248 0.55174 0.0
O267 O 0.93524 0.54197 0.55249 0.0
Cd268 Cd 0.92092 0.55851 0.57276 0.0
O269 O 0.94358 0.50946 0.56208 0.0
Cd270 Cd 0.92919 0.50999 0.58603 0.0
C271 C 0.96729 0.54979 0.59346 0.0
O272 O 0.89557 0.53257 0.5826 0.0
O273 O 0.90662 0.52925 0.60337 0.0
O274 O 0.91356 0.47289 0.58206 0.0
C275 C 0.89208 0.53667 0.59508 0.0
O276 O 0.95409 0.56282 0.587 0.0
C277 C 0.92076 0.46423 0.59306 0.0
O278 O 0.96324 0.52884 0.59428 0.0
O279 O 0.93284 0.47662 0.60062 0.0
C280 C 0.69864 0.28705 0.67189 0.0
O281 O 0.67899 0.29472 0.67018 0.0
Cd282 Cd 0.66469 0.30856 0.64902 0.0
O283 O 0.71279 0.28741 0.66217 0.0
Cd284 Cd 0.71502 0.30065 0.63808 0.0
C285 C 0.67655 0.2619 0.62926 0.0
O286 O 0.6916 0.33394 0.64028 0.0
O287 O 0.69811 0.32323 0.61977 0.0
O288 O 0.7516 0.31543 0.64427 0.0
C289 C 0.68913 0.33746 0.62764 0.0
O290 O 0.66253 0.27535 0.63463 0.0
C291 C 0.76151 0.30911 0.6335 0.0
O292 O 0.69754 0.26583 0.6298 0.0
O293 O 0.74999 0.29796 0.62496 0.0
C294 C 0.94195 0.4481 0.92331 0.0
O295 O 0.9356 0.42798 0.92161 0.0
Cd296 Cd 0.92014 0.41315 0.90104 0.0
O297 O 0.93954 0.46255 0.91382 0.0
Cd298 Cd 0.92389 0.46386 0.8902 0.0
C299 C 0.96363 0.42755 0.87962 0.0
O300 O 0.89213 0.43889 0.89389 0.0
O301 O 0.90026 0.44559 0.87293 0.0
O302 O 0.90807 0.50028 0.89612 0.0
C303 C 0.8872 0.43638 0.88142 0.0
O304 O 0.95166 0.41246 0.88522 0.0
C305 C 0.91356 0.50992 0.88508 0.0
O306 O 0.95847 0.44822 0.88064 0.0
O307 O 0.92459 0.49834 0.87654 0.0
C308 C 0.77433 0.68899 0.17211 0.0
O309 O 0.79389 0.68106 0.17056 0.0
Cd310 Cd 0.80888 0.66783 0.14948 0.0
O311 O 0.7605 0.68931 0.16219 0.0
Cd312 Cd 0.75935 0.67704 0.13788 0.0
C313 C 0.79889 0.71528 0.13008 0.0
O314 O 0.7821 0.64317 0.13981 0.0
O315 O 0.7768 0.65538 0.11944 0.0
O316 O 0.72233 0.66161 0.14224 0.0
C317 C 0.78507 0.64043 0.12714 0.0
O318 O 0.81252 0.70144 0.13551 0.0
C319 C 0.71314 0.66984 0.13168 0.0
O320 O 0.77785 0.71167 0.13028 0.0
O321 O 0.72525 0.68232 0.12421 0.0
C322 C 0.52985 0.52643 0.42097 0.0
O323 O 0.53623 0.54648 0.419 0.0
Cd324 Cd 0.55047 0.56088 0.39803 0.0
O325 O 0.53158 0.51183 0.41152 0.0
Cd326 Cd 0.54582 0.51014 0.38764 0.0
C327 C 0.50575 0.54647 0.37755 0.0
O328 O 0.57794 0.53495 0.39046 0.0
O329 O 0.56855 0.52794 0.36976 0.0
O330 O 0.56158 0.47356 0.39334 0.0
C331 C 0.5821 0.53734 0.3779 0.0
O332 O 0.51811 0.56157 0.38282 0.0
C333 C 0.55565 0.4641 0.38232 0.0
O334 O 0.51083 0.52578 0.37863 0.0
O335 O 0.54431 0.47581 0.37396 0.0
C336 C 0.22636 0.31059 0.12187 0.0
O337 O 0.23459 0.30139 0.11134 0.0
Cd338 Cd 0.268 0.279 0.11209 0.0
O339 O 0.23532 0.3075 0.13351 0.0
Cd340 Cd 0.26684 0.28635 0.14377 0.0
C341 C 0.30498 0.31657 0.12628 0.0
O342 O 0.26461 0.25177 0.13 0.0
O343 O 0.29343 0.25573 0.14313 0.0
O344 O 0.24111 0.27688 0.16201 0.0
C345 C 0.28232 0.24342 0.13508 0.0
O346 O 0.29861 0.30514 0.11603 0.0
C347 C 0.25416 0.28217 0.17171 0.0
O348 O 0.29549 0.31419 0.13782 0.0
O349 O 0.27306 0.2903 0.16844 0.0
C350 C 0.41645 0.47769 0.87019 0.0
O351 O 0.42477 0.48749 0.85989 0.0
Cd352 Cd 0.44593 0.52146 0.86161 0.0
O353 O 0.42005 0.48519 0.88216 0.0
Cd354 Cd 0.44134 0.51597 0.89322 0.0
C355 C 0.40838 0.55511 0.87836 0.0
O356 O 0.47474 0.51607 0.87848 0.0
O357 O 0.47135 0.54332 0.89281 0.0
O358 O 0.45278 0.48936 0.91079 0.0
C359 C 0.48325 0.53326 0.88407 0.0
O360 O 0.41858 0.55037 0.86735 0.0
C361 C 0.44703 0.50158 0.92078 0.0
O362 O 0.41276 0.54463 0.88936 0.0
O363 O 0.4379 0.52024 0.91795 0.0
C364 C 0.24878 0.66663 0.6205 0.0
O365 O 0.24029 0.6756 0.60996 0.0
Cd366 Cd 0.20769 0.69924 0.61106 0.0
O367 O 0.24042 0.67045 0.6322 0.0
Cd368 Cd 0.2095 0.69273 0.64201 0.0
C369 C 0.16947 0.66382 0.62564 0.0
O370 O 0.21178 0.72737 0.62838 0.0
O371 O 0.18143 0.722 0.63989 0.0
O372 O 0.23385 0.70634 0.65995 0.0
C373 C 0.19337 0.73513 0.6328 0.0
O374 O 0.1752 0.67554 0.61536 0.0
C375 C 0.22231 0.69892 0.66981 0.0
O376 O 0.18041 0.66498 0.63677 0.0
O377 O 0.20487 0.68777 0.6668 0.0
C378 C 0.05573 0.4978 0.36928 0.0
O379 O 0.04604 0.48917 0.35902 0.0
Cd380 Cd 0.0236 0.45586 0.36035 0.0
O381 O 0.05326 0.48926 0.3811 0.0
Cd382 Cd 0.03271 0.45777 0.39191 0.0
C383 C 0.06163 0.41893 0.37405 0.0
O384 O -0.00249 0.46004 0.37875 0.0
O385 O 0.00185 0.4314 0.392 0.0
O386 O 0.02429 0.48289 0.41075 0.0
C387 C -0.01074 0.4425 0.38408 0.0
O388 O 0.04973 0.42503 0.36393 0.0
C389 C 0.03075 0.46959 0.42008 0.0
O390 O 0.05986 0.42881 0.38551 0.0
O391 O 0.03895 0.45098 0.41628 0.0
C392 C 0.22503 0.6668 0.35503 0.0
O393 O 0.23374 0.67469 0.36581 0.0
Cd394 Cd 0.26792 0.69562 0.36548 0.0
O395 O 0.23389 0.67074 0.34347 0.0
Cd396 Cd 0.26631 0.6922 0.33441 0.0
C397 C 0.30307 0.65805 0.35005 0.0
O398 O 0.2651 0.72564 0.34912 0.0
O399 O 0.29542 0.72024 0.33763 0.0
O400 O 0.24245 0.70606 0.31614 0.0
C401 C 0.28377 0.73319 0.345 0.0
O402 O 0.29771 0.66859 0.36085 0.0
C403 C 0.2555 0.70065 0.30649 0.0
O404 O 0.29329 0.6623 0.3388 0.0
O405 O 0.27341 0.69049 0.30977 0.0
C406 C 0.05565 0.47825 0.10573 0.0
O407 O 0.04533 0.48657 0.11585 0.0
Cd408 Cd 0.02254 0.51965 0.11404 0.0
O409 O 0.05357 0.48693 0.09393 0.0
Cd410 Cd 0.0331 0.51801 0.08269 0.0
C411 C 0.06125 0.55665 0.10103 0.0
O412 O -0.00261 0.51537 0.09518 0.0
O413 O 0.00219 0.54437 0.0823 0.0
O414 O 0.0259 0.49152 0.06446 0.0
C415 C -0.01073 0.53298 0.08983 0.0
O416 O 0.04854 0.55061 0.11078 0.0
C417 C 0.03123 0.50461 0.05479 0.0
O418 O 0.06044 0.54667 0.08956 0.0
O419 O 0.03845 0.52389 0.0581 0.0
C420 C 0.24498 0.31129 0.85438 0.0
O421 O 0.23647 0.30266 0.86501 0.0
Cd422 Cd 0.20282 0.28094 0.86413 0.0
O423 O 0.23618 0.30777 0.84274 0.0
Cd424 Cd 0.20456 0.28615 0.83287 0.0
C425 C 0.16673 0.31835 0.84903 0.0
O426 O 0.20698 0.25223 0.84708 0.0
O427 O 0.17687 0.25646 0.83515 0.0
O428 O 0.2301 0.27515 0.81482 0.0
C429 C 0.18882 0.24394 0.84265 0.0
O430 O 0.1725 0.3075 0.85966 0.0
C431 C 0.21706 0.27994 0.80501 0.0
O432 O 0.17653 0.3149 0.83771 0.0
O433 O 0.1982 0.28835 0.80812 0.0
C434 C 0.41504 0.49441 0.60427 0.0
O435 O 0.42411 0.4848 0.61444 0.0
Cd436 Cd 0.44824 0.45262 0.61225 0.0
O437 O 0.41863 0.48727 0.59224 0.0
Cd438 Cd 0.44035 0.45724 0.58107 0.0
C439 C 0.41285 0.41532 0.59688 0.0
O440 O 0.47519 0.45961 0.59466 0.0
O441 O 0.47192 0.43167 0.5808 0.0
O442 O 0.44859 0.48422 0.56316 0.0
C443 C 0.4841 0.44273 0.58896 0.0
O444 O 0.42501 0.42011 0.60715 0.0
C445 C 0.44336 0.4714 0.55333 0.0
O446 O 0.41336 0.42737 0.58617 0.0
O447 O 0.43581 0.45215 0.55642 0.0
C448 C 0.08041 0.39014 0.35954 0.0
C449 C 0.0769 0.39952 0.3725 0.0
C450 C 0.09311 0.37069 0.35804 0.0
C451 C 0.13394 0.33302 0.37472 0.0
H452 H 0.10695 0.28901 0.35071 0.0
C453 C 0.1421 0.23435 0.35654 0.0
C454 C 0.16491 0.23315 0.35317 0.0
C455 C 0.13268 0.25445 0.36093 0.0
C456 C 0.11463 0.30098 0.35758 0.0
H457 H 0.08489 0.39633 0.39401 0.0
H458 H 0.10695 0.36202 0.39137 0.0
H459 H 0.08861 0.32484 0.3541 0.0
H460 H 0.19608 0.25175 0.35259 0.0
H461 H 0.17944 0.2872 0.36004 0.0
H462 H 0.15993 0.30877 0.37824 0.0
C463 C 0.09993 0.3699 0.38238 0.0
C464 C 0.10426 0.32167 0.35936 0.0
C465 C 0.08722 0.38949 0.38388 0.0
C466 C 0.17843 0.25218 0.3551 0.0
C467 C 0.16891 0.27246 0.3594 0.0
C468 C 0.14442 0.3122 0.37289 0.0
C469 C 0.10255 0.36003 0.36946 0.0
C470 C 0.11383 0.338 0.36788 0.0
C471 C 0.14577 0.27394 0.36191 0.0
C472 C 0.13481 0.29595 0.36431 0.0
H473 H 0.07299 0.39758 0.35052 0.0
H474 H 0.09523 0.36377 0.34792 0.0
H475 H 0.14174 0.34532 0.38131 0.0
H476 H 0.1313 0.21987 0.3554 0.0
H477 H 0.11491 0.2549 0.36313 0.0
C478 C 0.98615 0.89941 0.60775 0.0
C479 C -0.01085 0.922 0.60413 0.0
C480 C 0.96584 0.89204 0.61313 0.0
C481 C 0.90652 0.90465 0.61133 0.0
H482 H 0.90227 0.85767 0.63859 0.0
C483 C 0.8366 0.84097 0.63681 0.0
C484 C 0.82711 0.8326 0.6247 0.0
C485 C 0.85489 0.85561 0.63633 0.0
C486 C 0.90308 0.87104 0.63112 0.0
H487 H 0.97346 0.95481 0.60383 0.0
H488 H 0.9377 0.94179 0.61311 0.0
H489 H 0.93791 0.87683 0.635 0.0
H490 H 0.8289 0.83371 0.60261 0.0
H491 H 0.86065 0.85916 0.6018 0.0
H492 H 0.87189 0.89832 0.60713 0.0
C493 C 0.95118 0.92983 0.61176 0.0
C494 C 0.92352 0.88188 0.62899 0.0
C495 C 0.97166 0.93728 0.60651 0.0
C496 C 0.83585 0.83974 0.61213 0.0
C497 C 0.85394 0.85451 0.61166 0.0
C498 C 0.88612 0.89371 0.6134 0.0
C499 C 0.94796 0.90705 0.6149 0.0
C500 C 0.9256 0.89834 0.61881 0.0
C501 C 0.86385 0.86238 0.62374 0.0
C502 C 0.88436 0.87635 0.62304 0.0
H503 H -0.00066 0.88722 0.60613 0.0
H504 H 0.96383 0.87434 0.61529 0.0
H505 H 0.90762 0.91717 0.60335 0.0
H506 H 0.83023 0.83581 0.64666 0.0
H507 H 0.86215 0.8615 0.6458 0.0
C508 C 0.38108 0.5798 0.86621 0.0
C509 C 0.39189 0.57357 0.87838 0.0
C510 C 0.36691 0.59841 0.86588 0.0
C511 C 0.36374 0.65262 0.87567 0.0
H512 H 0.29907 0.65354 0.87215 0.0
C513 C 0.3192 0.73575 0.86563 0.0
C514 C 0.30142 0.7354 0.85629 0.0
C515 C 0.32726 0.71584 0.87128 0.0
C516 C 0.31713 0.65362 0.87301 0.0
H517 H 0.39593 0.58155 0.89982 0.0
H518 H 0.37164 0.61476 0.89905 0.0
H519 H 0.31848 0.61794 0.87611 0.0
H520 H 0.2775 0.71428 0.84583 0.0
H521 H 0.29234 0.67928 0.85499 0.0
H522 H 0.36308 0.68763 0.87155 0.0
C523 C 0.37389 0.60484 0.88991 0.0
C524 C 0.32814 0.63326 0.87542 0.0
C525 C 0.38774 0.58592 0.89032 0.0
C526 C 0.29117 0.71492 0.8531 0.0
C527 C 0.29966 0.69488 0.85843 0.0
C528 C 0.35287 0.67284 0.87299 0.0
C529 C 0.36359 0.61126 0.87766 0.0
C530 C 0.35151 0.63269 0.87664 0.0
C531 C 0.31824 0.69501 0.86733 0.0
C532 C 0.3294 0.67365 0.87147 0.0
H533 H 0.38388 0.57052 0.85687 0.0
H534 H 0.35923 0.60331 0.85631 0.0
H535 H 0.38185 0.65238 0.8764 0.0
H536 H 0.32718 0.75144 0.86836 0.0
H537 H 0.34103 0.7168 0.87844 0.0
C538 C 0.50584 0.03833 0.10633 0.0
C539 C 0.48867 0.0541 0.10421 0.0
C540 C 0.52642 0.04502 0.11185 0.0
C541 C 0.57155 0.06929 0.1121 0.0
H542 H 0.57652 0.11525 0.13991 0.0
C543 C 0.64208 0.13411 0.11308 0.0
C544 C 0.65093 0.14128 0.12563 0.0
C545 C 0.62419 0.1191 0.11265 0.0
C546 C 0.57553 0.10213 0.1323 0.0
H547 H 0.47914 0.08891 0.107 0.0
H548 H 0.51481 0.10047 0.1166 0.0
H549 H 0.54068 0.09656 0.13615 0.0
H550 H 0.6483 0.13778 0.14759 0.0
H551 H 0.61673 0.11164 0.14681 0.0
H552 H 0.60619 0.07542 0.10792 0.0
C553 C 0.51247 0.08297 0.11403 0.0
C554 C 0.55496 0.09157 0.13007 0.0
C555 C 0.49207 0.07637 0.1084 0.0
C556 C 0.64184 0.13261 0.13776 0.0
C557 C 0.62374 0.11771 0.13733 0.0
C558 C 0.59208 0.07993 0.11428 0.0
C559 C 0.53006 0.06751 0.11553 0.0
C560 C 0.55259 0.07556 0.11965 0.0
C561 C 0.6146 0.11098 0.12476 0.0
C562 C 0.5941 0.09698 0.1241 0.0
H563 H 0.50371 0.02104 0.10322 0.0
H564 H 0.53964 0.03272 0.11297 0.0
H565 H 0.57024 0.05712 0.10395 0.0
H566 H 0.64873 0.14037 0.10354 0.0
H567 H 0.61734 0.11451 0.10281 0.0
C568 C 0.17997 0.72379 0.11907 0.0
C569 C 0.16892 0.73557 0.12951 0.0
C570 C 0.17214 0.70273 0.11487 0.0
C571 C 0.14166 0.65419 0.12719 0.0
H572 H 0.11998 0.64474 0.09035 0.0
C573 C 0.07625 0.58752 0.11558 0.0
C574 C 0.07699 0.57551 0.10327 0.0
C575 C 0.09084 0.60531 0.11793 0.0
C576 C 0.12638 0.64688 0.1006 0.0
H577 H 0.14127 0.7344 0.14383 0.0
H578 H 0.1281 0.69762 0.13674 0.0
H579 H 0.14028 0.67923 0.09596 0.0
H580 H 0.09379 0.57285 0.08375 0.0
H581 H 0.11962 0.60398 0.08796 0.0
H582 H 0.12775 0.62218 0.132 0.0
C583 C 0.14262 0.70472 0.13173 0.0
C584 C 0.13795 0.66663 0.10379 0.0
C585 C 0.15011 0.72583 0.13572 0.0
C586 C 0.09276 0.58178 0.09334 0.0
C587 C 0.10751 0.59964 0.09573 0.0
C588 C 0.13039 0.63442 0.12399 0.0
C589 C 0.15352 0.69299 0.12129 0.0
C590 C 0.14499 0.67071 0.11723 0.0
C591 C 0.10675 0.61155 0.10809 0.0
C592 C 0.12185 0.63088 0.11079 0.0
H593 H 0.19447 0.73094 0.11408 0.0
H594 H 0.18076 0.69393 0.10677 0.0
H595 H 0.14719 0.65689 0.13759 0.0
H596 H 0.06423 0.58333 0.12344 0.0
H597 H 0.08935 0.61444 0.12743 0.0
C598 C 0.50491 0.93889 0.36674 0.0
C599 C 0.48784 0.92328 0.36939 0.0
C600 C 0.5252 0.93188 0.361 0.0
C601 C 0.57021 0.90736 0.36064 0.0
H602 H 0.57407 0.86035 0.33344 0.0
C603 C 0.64067 0.84236 0.35966 0.0
C604 C 0.64917 0.83496 0.34709 0.0
C605 C 0.62273 0.85731 0.36013 0.0
C606 C 0.57337 0.87375 0.34088 0.0
H607 H 0.47808 0.8884 0.36731 0.0
H608 H 0.51325 0.87628 0.35732 0.0
H609 H 0.53839 0.87929 0.33735 0.0
H610 H 0.64582 0.83793 0.32513 0.0
H611 H 0.61413 0.86395 0.32599 0.0
H612 H 0.60498 0.90125 0.36452 0.0
C613 C 0.51107 0.8939 0.35965 0.0
C614 C 0.55291 0.88446 0.34319 0.0
C615 C 0.49096 0.90083 0.36549 0.0
C616 C 0.63964 0.84329 0.33498 0.0
C617 C 0.62147 0.85812 0.33546 0.0
C618 C 0.59062 0.89656 0.35839 0.0
C619 C 0.52862 0.90921 0.35764 0.0
C620 C 0.55096 0.90089 0.35339 0.0
C621 C 0.61272 0.86512 0.34805 0.0
C622 C 0.59224 0.87915 0.34879 0.0
H623 H 0.50299 0.95631 0.36961 0.0
H624 H 0.53841 0.94407 0.35949 0.0
H625 H 0.56922 0.91985 0.36863 0.0
H626 H 0.64767 0.83636 0.36919 0.0
H627 H 0.61617 0.86213 0.37 0.0
C628 C 0.29603 0.24907 0.61603 0.0
C629 C 0.31015 0.23395 0.62295 0.0
C630 C 0.30484 0.26846 0.60998 0.0
C631 C 0.35905 0.29408 0.59929 0.0
H632 H 0.32919 0.35074 0.60607 0.0
C633 C 0.40452 0.37739 0.60623 0.0
C634 C 0.39875 0.39498 0.59736 0.0
C635 C 0.39178 0.35784 0.60661 0.0
C636 C 0.33748 0.33498 0.6039 0.0
H637 H 0.34467 0.22729 0.62871 0.0
H638 H 0.35973 0.26089 0.61853 0.0
H639 H 0.3101 0.31553 0.61157 0.0
H640 H 0.37487 0.40606 0.58208 0.0
H641 H 0.35196 0.37181 0.58315 0.0
H642 H 0.387 0.31365 0.59255 0.0
C643 C 0.34196 0.25772 0.61747 0.0
C644 C 0.32657 0.31483 0.607 0.0
C645 C 0.33323 0.23846 0.62345 0.0
C646 C 0.37973 0.39272 0.58898 0.0
C647 C 0.36663 0.37325 0.5896 0.0
C648 C 0.37001 0.31416 0.5964 0.0
C649 C 0.32793 0.27305 0.6107 0.0
C650 C 0.33758 0.29417 0.60517 0.0
C651 C 0.37275 0.35561 0.59833 0.0
C652 C 0.35956 0.33474 0.59905 0.0
H653 H 0.27817 0.24607 0.61543 0.0
H654 H 0.29359 0.27987 0.60478 0.0
H655 H 0.36779 0.27848 0.59741 0.0
H656 H 0.41913 0.37857 0.61276 0.0
H657 H 0.39668 0.34447 0.61348 0.0
C658 C 0.98529 0.07754 0.86476 0.0
C659 C -0.01158 0.05497 0.86843 0.0
C660 C 0.9651 0.08468 0.85906 0.0
C661 C 0.92298 0.09473 0.84289 0.0
H662 H 0.87116 0.07688 0.86403 0.0
C663 C 0.83556 0.13481 0.83487 0.0
C664 C 0.82569 0.14249 0.84702 0.0
C665 C 0.85412 0.12048 0.8353 0.0
C666 C 0.88544 0.0819 0.85797 0.0
H667 H 0.9732 0.02196 0.86836 0.0
H668 H 0.93768 0.03457 0.85847 0.0
H669 H 0.90705 0.05839 0.86793 0.0
H670 H 0.82713 0.14053 0.86911 0.0
H671 H 0.85934 0.11563 0.86982 0.0
H672 H 0.9016 0.11902 0.83341 0.0
C673 C 0.95092 0.04669 0.86007 0.0
C674 C 0.90594 0.07115 0.86009 0.0
C675 C 0.97127 0.03947 0.86566 0.0
C676 C 0.83437 0.13502 0.85956 0.0
C677 C 0.85272 0.12057 0.85997 0.0
C678 C 0.90244 0.1054 0.84071 0.0
C679 C 0.94749 0.06947 0.85697 0.0
C680 C 0.92509 0.07795 0.85289 0.0
C681 C 0.86297 0.11333 0.84787 0.0
C682 C 0.88365 0.09958 0.84854 0.0
H683 H -0.00179 0.08988 0.86667 0.0
H684 H 0.96292 0.10238 0.85693 0.0
H685 H 0.93742 0.10016 0.83709 0.0
H686 H 0.82926 0.14023 0.82505 0.0
H687 H 0.86164 0.11508 0.82581 0.0
C688 C 0.85961 0.56188 0.58998 0.0
C689 C 0.87539 0.55356 0.59933 0.0
C690 C 0.84562 0.57975 0.59352 0.0
C691 C 0.82659 0.6145 0.62301 0.0
H692 H 0.82006 0.66062 0.59537 0.0
C693 C 0.80849 0.70704 0.63529 0.0
C694 C 0.79238 0.71823 0.62735 0.0
C695 C 0.81529 0.68536 0.63192 0.0
C696 C 0.82146 0.64775 0.60313 0.0
H697 H 0.88827 0.55679 0.61993 0.0
H698 H 0.86445 0.58824 0.62597 0.0
H699 H 0.83757 0.62505 0.58947 0.0
H700 H 0.77067 0.71549 0.60968 0.0
H701 H 0.78297 0.6776 0.60362 0.0
H702 H 0.81141 0.63781 0.6368 0.0
C703 C 0.86245 0.58079 0.61598 0.0
C704 C 0.83142 0.6273 0.59976 0.0
C705 C 0.87625 0.5628 0.61249 0.0
C706 C 0.78313 0.70726 0.61598 0.0
C707 C 0.79018 0.68565 0.6125 0.0
C708 C 0.81688 0.63505 0.62641 0.0
C709 C 0.84727 0.58981 0.60645 0.0
C710 C 0.83447 0.61054 0.60971 0.0
C711 C 0.80632 0.67451 0.62045 0.0
C712 C 0.81457 0.65199 0.61656 0.0
H713 H 0.85843 0.55496 0.57979 0.0
H714 H 0.83381 0.58594 0.58601 0.0
H715 H 0.82823 0.60183 0.63087 0.0
H716 H 0.81587 0.71503 0.64414 0.0
H717 H 0.82795 0.67726 0.63813 0.0
C718 C 0.15486 0.11354 0.33899 0.0
C719 C 0.17059 0.12085 0.34868 0.0
C720 C 0.13662 0.10046 0.34296 0.0
C721 C 0.10284 0.08839 0.37359 0.0
H722 H 0.07307 0.04686 0.34919 0.0
C723 C 0.0194 0.02732 0.37182 0.0
C724 C 0.00422 0.04182 0.37829 0.0
C725 C 0.04107 0.03456 0.3687 0.0
C726 C 0.08129 0.05815 0.35624 0.0
H727 H 0.18045 0.11895 0.36992 0.0
H728 H 0.14904 0.09541 0.37679 0.0
H729 H 0.10957 0.06189 0.34308 0.0
H730 H -0.00034 0.07536 0.38633 0.0
H731 H 0.03702 0.08821 0.38051 0.0
H732 H 0.07489 0.08427 0.3869 0.0
C733 C 0.15034 0.1004 0.3662 0.0
C734 C 0.10213 0.06701 0.35264 0.0
C735 C 0.16844 0.11375 0.36226 0.0
C736 C 0.01103 0.06373 0.38144 0.0
C737 C 0.03256 0.07104 0.3782 0.0
C738 C 0.08216 0.07934 0.37725 0.0
C739 C 0.13383 0.09413 0.35668 0.0
C740 C 0.11296 0.08263 0.36114 0.0
C741 C 0.04794 0.05652 0.37188 0.0
C742 C 0.07086 0.06452 0.36848 0.0
H743 H 0.15603 0.11878 0.32844 0.0
H744 H 0.12417 0.09624 0.33535 0.0
H745 H 0.11047 0.10053 0.38036 0.0
H746 H 0.01464 0.01028 0.36934 0.0
H747 H 0.05253 0.02285 0.36398 0.0
C748 C 0.61563 0.41312 0.09317 0.0
C749 C 0.60115 0.42396 0.10233 0.0
C750 C 0.62798 0.39439 0.09731 0.0
C751 C 0.62312 0.34777 0.12073 0.0
H752 H 0.68535 0.33575 0.11224 0.0
C753 C 0.66536 0.26625 0.13834 0.0
C754 C 0.68071 0.256 0.12949 0.0
C755 C 0.65735 0.28778 0.13563 0.0
C756 C 0.66788 0.33872 0.11454 0.0
H757 H 0.58928 0.42449 0.12323 0.0
H758 H 0.61066 0.39163 0.13038 0.0
H759 H 0.66909 0.37221 0.10654 0.0
H760 H 0.69978 0.2602 0.11089 0.0
H761 H 0.68512 0.2975 0.10583 0.0
H762 H 0.62138 0.31423 0.12819 0.0
C763 C 0.61234 0.39759 0.11999 0.0
C764 C 0.65865 0.35965 0.11134 0.0
C765 C 0.6002 0.41645 0.11591 0.0
C766 C 0.68799 0.26774 0.11791 0.0
C767 C 0.6797 0.28919 0.11508 0.0
C768 C 0.63221 0.3268 0.12375 0.0
C769 C 0.62589 0.38605 0.11064 0.0
C770 C 0.6362 0.36435 0.11445 0.0
C771 C 0.66419 0.29946 0.12389 0.0
C772 C 0.65472 0.32198 0.12072 0.0
H773 H 0.61677 0.41858 0.08266 0.0
H774 H 0.63825 0.38575 0.08989 0.0
H775 H 0.60563 0.35081 0.12298 0.0
H776 H 0.65966 0.25772 0.14745 0.0
H777 H 0.64585 0.29529 0.14283 0.0
C778 C 0.44764 0.94048 0.89039 0.0
C779 C 0.46436 0.9418 0.88045 0.0
C780 C 0.42619 0.93306 0.88696 0.0
C781 C 0.39035 0.91576 0.857 0.0
H782 H 0.35898 0.88316 0.88527 0.0
C783 C 0.30878 0.86776 0.84479 0.0
C784 C 0.30499 0.84772 0.85191 0.0
C785 C 0.32583 0.88237 0.84889 0.0
C786 C 0.36759 0.89186 0.87714 0.0
H787 H 0.47219 0.93665 0.85918 0.0
H788 H 0.43543 0.92197 0.85327 0.0
H789 H 0.39348 0.90192 0.89071 0.0
H790 H 0.31598 0.82706 0.86881 0.0
H791 H 0.34648 0.85146 0.87542 0.0
H792 H 0.36557 0.90373 0.84315 0.0
C793 C 0.43815 0.92768 0.86361 0.0
C794 C 0.38732 0.90322 0.88036 0.0
C795 C 0.45936 0.93593 0.86697 0.0
C796 C 0.31835 0.84259 0.86325 0.0
C797 C 0.3358 0.85679 0.8671 0.0
C798 C 0.37099 0.90375 0.85369 0.0
C799 C 0.42126 0.92584 0.8736 0.0
C800 C 0.39921 0.91517 0.87032 0.0
C801 C 0.33993 0.87688 0.85995 0.0
C802 C 0.35948 0.89132 0.86367 0.0
H803 H 0.4512 0.94515 0.90085 0.0
H804 H 0.41364 0.93274 0.8949 0.0
H805 H 0.39849 0.92519 0.849 0.0
H806 H 0.29857 0.8721 0.83603 0.0
H807 H 0.32798 0.89785 0.84329 0.0
C808 C 0.87048 0.41147 0.86361 0.0
C809 C 0.87058 0.41946 0.87708 0.0
C810 C 0.85674 0.39353 0.85991 0.0
C811 C 0.82769 0.34508 0.87542 0.0
H812 H 0.80509 0.33745 0.83862 0.0
C813 C 0.77939 0.26585 0.85778 0.0
C814 C 0.78832 0.25591 0.846 0.0
C815 C 0.78621 0.28732 0.86176 0.0
C816 C 0.81128 0.33941 0.84894 0.0
H817 H 0.85538 0.41589 0.89701 0.0
H818 H 0.83083 0.38506 0.89045 0.0
H819 H 0.82186 0.37312 0.84527 0.0
H820 H 0.81091 0.26079 0.82896 0.0
H821 H 0.82254 0.29833 0.8358 0.0
H822 H 0.81705 0.31129 0.87902 0.0
C823 C 0.84187 0.39215 0.88284 0.0
C824 C 0.82098 0.35978 0.85275 0.0
C825 C 0.85582 0.40993 0.88658 0.0
C826 C 0.80381 0.26799 0.83812 0.0
C827 C 0.81034 0.28953 0.84197 0.0
C828 C 0.81772 0.32482 0.87165 0.0
C829 C 0.84256 0.38334 0.86954 0.0
C830 C 0.82981 0.36271 0.86594 0.0
C831 C 0.80176 0.29933 0.85388 0.0
C832 C 0.80989 0.32163 0.85829 0.0
H833 H 0.8817 0.41842 0.85606 0.0
H834 H 0.85801 0.38707 0.84963 0.0
H835 H 0.83458 0.34651 0.8856 0.0
H836 H 0.76743 0.25691 0.86405 0.0
H837 H 0.77933 0.29455 0.87097 0.0
C838 C 0.30589 0.11349 0.61443 0.0
C839 C 0.30448 0.1211 0.62794 0.0
C840 C 0.32369 0.09985 0.61034 0.0
C841 C 0.37229 0.06645 0.62336 0.0
H842 H 0.39805 0.08284 0.5885 0.0
C843 C 0.45407 0.02605 0.60303 0.0
C844 C 0.46912 0.04062 0.59652 0.0
C845 C 0.43246 0.03329 0.60636 0.0
C846 C 0.39117 0.07813 0.5983 0.0
H847 H 0.32002 0.11964 0.64792 0.0
H848 H 0.35138 0.09652 0.64074 0.0
H849 H 0.36288 0.0995 0.59552 0.0
H850 H 0.47346 0.07425 0.58852 0.0
H851 H 0.43621 0.08703 0.59462 0.0
H852 H 0.40137 0.04605 0.62644 0.0
C853 C 0.33858 0.1006 0.63332 0.0
C854 C 0.37074 0.08742 0.60224 0.0
C855 C 0.32064 0.114 0.63743 0.0
C856 C 0.46221 0.06256 0.59345 0.0
C857 C 0.44074 0.06983 0.59686 0.0
C858 C 0.39288 0.05729 0.61946 0.0
C859 C 0.34062 0.09378 0.61964 0.0
C860 C 0.36119 0.082 0.61492 0.0
C861 C 0.42554 0.05529 0.6033 0.0
C862 C 0.40276 0.06337 0.60699 0.0
H863 H 0.29353 0.1185 0.60693 0.0
H864 H 0.32442 0.09449 0.59981 0.0
H865 H 0.36528 0.06161 0.6331 0.0
H866 H 0.45891 0.009 0.60547 0.0
H867 H 0.42112 0.02158 0.6112 0.0
C868 C 0.68735 0.70899 0.35576 0.0
C869 C 0.68024 0.72015 0.3439 0.0
C870 C 0.67891 0.68774 0.35895 0.0
C871 C 0.63096 0.65046 0.35072 0.0
H872 H 0.66666 0.60529 0.36914 0.0
C873 C 0.59749 0.56172 0.35942 0.0
C874 C 0.59793 0.55465 0.37309 0.0
C875 C 0.60999 0.58028 0.35528 0.0
C876 C 0.65655 0.6178 0.364 0.0
H877 H 0.65955 0.71752 0.32579 0.0
H878 H 0.64553 0.6803 0.33103 0.0
H879 H 0.6837 0.64117 0.36293 0.0
H880 H 0.61292 0.56051 0.39293 0.0
H881 H 0.63501 0.59285 0.38561 0.0
H882 H 0.60395 0.62701 0.35164 0.0
C883 C 0.65694 0.68813 0.33817 0.0
C884 C 0.66622 0.63839 0.36051 0.0
C885 C 0.66508 0.70945 0.33511 0.0
C886 C 0.61217 0.56565 0.38234 0.0
C887 C 0.62488 0.58408 0.37815 0.0
C888 C 0.62144 0.62984 0.35403 0.0
C889 C 0.66344 0.67712 0.35024 0.0
C890 C 0.65351 0.65501 0.35384 0.0
C891 C 0.62337 0.59195 0.36468 0.0
C892 C 0.6341 0.61334 0.36072 0.0
H893 H 0.69901 0.71689 0.36273 0.0
H894 H 0.6841 0.67992 0.36841 0.0
H895 H 0.62044 0.663 0.34592 0.0
H896 H 0.58678 0.55354 0.35203 0.0
H897 H 0.60875 0.58588 0.3448 0.0
C898 C 0.16052 0.86802 0.133 0.0
C899 C 0.16828 0.85119 0.12419 0.0
C900 C 0.14306 0.8822 0.12902 0.0
C901 C 0.10896 0.89996 0.09893 0.0
H902 H 0.06348 0.91099 0.1263 0.0
C903 C 0.01726 0.92084 0.08617 0.0
C904 C 0.00667 0.93786 0.09367 0.0
C905 C 0.03876 0.91369 0.08965 0.0
C906 C 0.07619 0.90836 0.1186 0.0
H907 H 0.16439 0.83647 0.10411 0.0
H908 H 0.13357 0.86067 0.0973 0.0
H909 H 0.09818 0.89233 0.13278 0.0
H910 H 0.01035 0.96091 0.11061 0.0
H911 H 0.04795 0.948 0.11688 0.0
H912 H 0.08632 0.91509 0.08465 0.0
C913 C 0.14119 0.86333 0.10719 0.0
C914 C 0.09614 0.89772 0.1223 0.0
C915 C 0.1588 0.84932 0.11113 0.0
C916 C 0.01811 0.94776 0.10465 0.0
C917 C 0.03956 0.94035 0.10826 0.0
C918 C 0.0889 0.91037 0.09521 0.0
C919 C 0.13282 0.8797 0.11618 0.0
C920 C 0.11263 0.89303 0.11247 0.0
C921 C 0.05004 0.9232 0.10081 0.0
C922 C 0.07218 0.91434 0.10497 0.0
H923 H 0.16766 0.86999 0.14309 0.0
H924 H 0.13737 0.8949 0.13609 0.0
H925 H 0.12146 0.89706 0.09114 0.0
H926 H 0.00888 0.91295 0.07762 0.0
H927 H 0.04634 0.90025 0.08383 0.0
C928 C 0.64118 0.7407 0.846 0.0
C929 C 0.66394 0.73582 0.84814 0.0
C930 C 0.63146 0.75969 0.85173 0.0
C931 C 0.64424 0.81558 0.86548 0.0
H932 H 0.58208 0.81194 0.87671 0.0
C933 C 0.58971 0.89141 0.88418 0.0
C934 C 0.57063 0.8942 0.87592 0.0
C935 C 0.60275 0.87193 0.88316 0.0
C936 C 0.5995 0.81315 0.87372 0.0
H937 H 0.69437 0.74723 0.85804 0.0
H938 H 0.67717 0.78055 0.86825 0.0
H939 H 0.60234 0.77776 0.87097 0.0
H940 H 0.54996 0.87863 0.86037 0.0
H941 H 0.5723 0.84454 0.8589 0.0
H942 H 0.64105 0.85119 0.86817 0.0
C943 C 0.66696 0.76962 0.86199 0.0
C944 C 0.61108 0.79363 0.87034 0.0
C945 C 0.67679 0.75052 0.85618 0.0
C946 C 0.56461 0.87703 0.86683 0.0
C947 C 0.57731 0.85747 0.86603 0.0
C948 C 0.63267 0.83515 0.86905 0.0
C949 C 0.64412 0.77433 0.85987 0.0
C950 C 0.63331 0.79468 0.86566 0.0
C951 C 0.59653 0.85478 0.87412 0.0
C952 C 0.60999 0.83411 0.87274 0.0
H953 H 0.63075 0.72992 0.83977 0.0
H954 H 0.61399 0.76305 0.84955 0.0
H955 H 0.66131 0.81699 0.86188 0.0
H956 H 0.59477 0.90444 0.89123 0.0
H957 H 0.61754 0.87017 0.88948 0.0
C958 C 0.48887 0.39705 0.10804 0.0
C959 C 0.49 0.41969 0.10414 0.0
C960 C 0.4688 0.38783 0.1126 0.0
C961 C 0.41121 0.39989 0.12437 0.0
H962 H 0.39857 0.34343 0.10634 0.0
C963 C 0.33334 0.33579 0.11171 0.0
C964 C 0.32424 0.33201 0.12472 0.0
C965 C 0.3527 0.34855 0.11015 0.0
C966 C 0.40176 0.35924 0.1114 0.0
H967 H 0.47131 0.45079 0.10278 0.0
H968 H 0.43592 0.43446 0.11056 0.0
H969 H 0.4343 0.36172 0.10263 0.0
H970 H 0.3278 0.33964 0.14624 0.0
H971 H 0.36195 0.36191 0.14347 0.0
H972 H 0.37822 0.39734 0.13295 0.0
C973 C 0.45069 0.42394 0.11018 0.0
C974 C 0.42237 0.3696 0.10942 0.0
C975 C 0.47092 0.43327 0.10569 0.0
C976 C 0.33444 0.34217 0.13609 0.0
C977 C 0.35392 0.35499 0.13451 0.0
C978 C 0.39048 0.38939 0.12642 0.0
C979 C 0.4493 0.40094 0.11324 0.0
C980 C 0.42738 0.39003 0.11585 0.0
C981 C 0.36353 0.35782 0.12154 0.0
C982 C 0.38551 0.36905 0.11984 0.0
H983 H 0.50337 0.38622 0.10721 0.0
H984 H 0.4684 0.37018 0.11521 0.0
H985 H 0.41464 0.4156 0.12949 0.0
H986 H 0.32579 0.3285 0.1027 0.0
H987 H 0.35945 0.35083 0.09999 0.0
C988 C 0.88602 0.08649 0.38864 0.0
C989 C 0.88999 0.07375 0.37683 0.0
C990 C 0.87219 0.1054 0.3881 0.0
C991 C 0.82625 0.13329 0.37297 0.0
H992 H 0.86096 0.18804 0.37071 0.0
C993 C 0.7898 0.21558 0.35122 0.0
C994 C 0.79984 0.23598 0.35481 0.0
C995 C 0.79812 0.19539 0.35646 0.0
C996 C 0.85077 0.17314 0.3717 0.0
H997 H 0.88168 0.07005 0.35541 0.0
H998 H 0.857 0.10284 0.35461 0.0
H999 H 0.8797 0.15276 0.37546 0.0
H1000 H 0.82498 0.25173 0.36748 0.0
H1001 H 0.83845 0.21683 0.37744 0.0
H1002 H 0.79721 0.15348 0.36943 0.0
C1003 C 0.86483 0.09823 0.36419 0.0
C1004 C 0.86165 0.15289 0.37431 0.0
C1005 C 0.87902 0.07963 0.36464 0.0
C1006 C 0.81716 0.2361 0.36446 0.0
C1007 C 0.82502 0.21604 0.37002 0.0
C1008 C 0.81522 0.15366 0.37066 0.0
C1009 C 0.8617 0.11146 0.37584 0.0
C1010 C 0.84954 0.13283 0.37471 0.0
C1011 C 0.8163 0.1953 0.36566 0.0
C1012 C 0.8274 0.17385 0.3697 0.0
H1013 H 0.89433 0.0824 0.39815 0.0
H1014 H 0.87008 0.11559 0.39714 0.0
H1015 H 0.81667 0.11788 0.37325 0.0
H1016 H 0.7765 0.21511 0.3437 0.0
H1017 H 0.79104 0.1799 0.35269 0.0
C1018 C 0.1329 0.65447 0.61477 0.0
C1019 C 0.14924 0.64961 0.62467 0.0
C1020 C 0.1133 0.64187 0.61402 0.0
C1021 C 0.08877 0.58824 0.61864 0.0
H1022 H 0.03265 0.62071 0.62113 0.0
C1023 C 0.00255 0.54637 0.60756 0.0
C1024 C -0.01218 0.55943 0.59964 0.0
C1025 C 0.02207 0.55586 0.61304 0.0
C1026 C 0.04815 0.61137 0.62034 0.0
H1027 H 0.15808 0.62738 0.64135 0.0
H1028 H 0.12376 0.60471 0.63968 0.0
H1029 H 0.06775 0.63998 0.62594 0.0
H1030 H 0.9822 0.59269 0.59125 0.0
H1031 H 0.01606 0.60886 0.60043 0.0
H1032 H 0.06934 0.55997 0.61218 0.0
C1033 C 0.12621 0.61857 0.63269 0.0
C1034 C 0.06819 0.62239 0.6232 0.0
C1035 C 0.14573 0.63154 0.63365 0.0
C1036 C -0.007 0.58211 0.59738 0.0
C1037 C 0.01242 0.59149 0.60277 0.0
C1038 C 0.06867 0.57723 0.61556 0.0
C1039 C 0.10977 0.62388 0.62297 0.0
C1040 C 0.08867 0.61109 0.62204 0.0
C1041 C 0.02721 0.57857 0.6107 0.0
C1042 C 0.04818 0.58891 0.61597 0.0
H1043 H 0.13503 0.66833 0.60775 0.0
H1044 H 0.10087 0.64614 0.60638 0.0
H1045 H 0.10446 0.57927 0.61764 0.0
H1046 H -0.00097 0.52884 0.6095 0.0
H1047 H 0.03305 0.54546 0.61916 0.0
C1048 C 0.585 0.08242 0.61642 0.0
C1049 C 0.5808 0.07407 0.60327 0.0
C1050 C 0.59796 0.10162 0.61827 0.0
C1051 C 0.63811 0.14042 0.60193 0.0
H1052 H 0.61197 0.18302 0.62717 0.0
C1053 C 0.64504 0.23892 0.6202 0.0
C1054 C 0.66797 0.24087 0.62319 0.0
C1055 C 0.63598 0.21843 0.61622 0.0
C1056 C 0.61943 0.17141 0.62 0.0
H1057 H 0.58786 0.0788 0.58176 0.0
H1058 H 0.61036 0.11265 0.58501 0.0
H1059 H 0.59386 0.14713 0.62352 0.0
H1060 H 0.69965 0.22308 0.62356 0.0
H1061 H 0.68364 0.18695 0.61672 0.0
H1062 H 0.66359 0.16515 0.59835 0.0
C1063 C 0.6037 0.10416 0.59389 0.0
C1064 C 0.6092 0.15069 0.61805 0.0
C1065 C 0.59072 0.08484 0.59203 0.0
C1066 C 0.6819 0.22209 0.62135 0.0
C1067 C 0.67275 0.20144 0.61741 0.0
C1068 C 0.64846 0.16126 0.60395 0.0
C1069 C 0.60699 0.11304 0.60701 0.0
C1070 C 0.61839 0.13492 0.60902 0.0
C1071 C 0.64957 0.19928 0.61521 0.0
C1072 C 0.6391 0.17702 0.61295 0.0
H1073 H 0.5779 0.0744 0.62533 0.0
H1074 H 0.60059 0.10777 0.62854 0.0
H1075 H 0.64562 0.12855 0.59495 0.0
H1076 H 0.63388 0.25313 0.62128 0.0
H1077 H 0.61815 0.21744 0.61427 0.0
C1078 C 0.13968 0.34117 0.86265 0.0
C1079 C 0.14805 0.33462 0.84987 0.0
C1080 C 0.12123 0.35544 0.86356 0.0
C1081 C 0.08786 0.39383 0.86267 0.0
H1082 H 0.03584 0.37643 0.84146 0.0
C1083 C 0.00176 0.43619 0.87017 0.0
C1084 C 0.98443 0.42073 0.87256 0.0
C1085 C 0.0223 0.42897 0.8649 0.0
C1086 C 0.05028 0.3816 0.84737 0.0
H1087 H 0.14391 0.33843 0.82801 0.0
H1088 H 0.11141 0.36327 0.82963 0.0
H1089 H 0.07176 0.35807 0.83737 0.0
H1090 H 0.97463 0.38585 0.87057 0.0
H1091 H 0.01027 0.37337 0.86135 0.0
H1092 H 0.06616 0.41665 0.87309 0.0
C1093 C 0.11921 0.35728 0.83893 0.0
C1094 C 0.07088 0.37123 0.84495 0.0
C1095 C 0.13785 0.34313 0.83801 0.0
C1096 C -0.01232 0.39817 0.86894 0.0
C1097 C 0.00806 0.39103 0.86354 0.0
C1098 C 0.0673 0.40431 0.86502 0.0
C1099 C 0.11059 0.3634 0.85172 0.0
C1100 C 0.08972 0.37677 0.85285 0.0
C1101 C 0.02576 0.40624 0.86173 0.0
C1102 C 0.04815 0.39783 0.85767 0.0
H1103 H 0.14717 0.335 0.872 0.0
H1104 H 0.11481 0.35962 0.87357 0.0
H1105 H 0.10217 0.3986 0.86881 0.0
H1106 H -0.00024 0.45369 0.87285 0.0
H1107 H 0.03563 0.44107 0.86353 0.0
C1108 C 0.88581 0.89079 0.09077 0.0
C1109 C 0.89525 0.90231 0.10189 0.0
C1110 C 0.87296 0.87146 0.09289 0.0
C1111 C 0.86681 0.82646 0.11815 0.0
H1112 H 0.81343 0.81031 0.09784 0.0
C1113 C 0.79413 0.75486 0.12158 0.0
C1114 C 0.80797 0.73624 0.12418 0.0
C1115 C 0.80347 0.77534 0.11748 0.0
C1116 C 0.82826 0.81468 0.10362 0.0
H1117 H 0.8974 0.90333 0.12398 0.0
H1118 H 0.87489 0.86999 0.12764 0.0
H1119 H 0.83134 0.84673 0.0938 0.0
H1120 H 0.84222 0.72409 0.12356 0.0
H1121 H 0.85831 0.75947 0.11628 0.0
H1122 H 0.86376 0.79481 0.12811 0.0
C1123 C 0.87783 0.87552 0.11727 0.0
C1124 C 0.8386 0.83541 0.10123 0.0
C1125 C 0.89069 0.8947 0.11516 0.0
C1126 C 0.8311 0.73818 0.12188 0.0
C1127 C 0.84036 0.75851 0.11775 0.0
C1128 C 0.85658 0.80585 0.12049 0.0
C1129 C 0.86929 0.86334 0.10617 0.0
C1130 C 0.85796 0.84153 0.10853 0.0
C1131 C 0.82678 0.77749 0.11589 0.0
C1132 C 0.83726 0.79963 0.11323 0.0
H1133 H 0.88896 0.89626 0.08041 0.0
H1134 H 0.86667 0.86238 0.08412 0.0
H1135 H 0.88187 0.83049 0.1238 0.0
H1136 H 0.77623 0.75388 0.12323 0.0
H1137 H 0.79258 0.7897 0.11615 0.0
C1138 C 0.46715 0.53792 0.36875 0.0
C1139 C 0.48467 0.55331 0.37078 0.0
C1140 C 0.44641 0.54519 0.36373 0.0
C1141 C 0.4016 0.57014 0.36439 0.0
H1142 H 0.39626 0.61635 0.33671 0.0
C1143 C 0.3301 0.63434 0.36321 0.0
C1144 C 0.32133 0.64126 0.35058 0.0
C1145 C 0.34826 0.61963 0.3638 0.0
C1146 C 0.39737 0.60319 0.34431 0.0
H1147 H 0.49457 0.5881 0.36843 0.0
H1148 H 0.4586 0.60068 0.35969 0.0
H1149 H 0.43215 0.59759 0.34024 0.0
H1150 H 0.32439 0.63763 0.32865 0.0
H1151 H 0.35633 0.61202 0.32971 0.0
H1152 H 0.367 0.57625 0.36875 0.0
C1153 C 0.46081 0.58303 0.36194 0.0
C1154 C 0.41795 0.59258 0.3464 0.0
C1155 C 0.48138 0.57584 0.36707 0.0
C1156 C 0.33077 0.63266 0.33854 0.0
C1157 C 0.3491 0.61806 0.33914 0.0
C1158 C 0.38104 0.58084 0.36236 0.0
C1159 C 0.44295 0.5679 0.36049 0.0
C1160 C 0.42043 0.5764 0.35672 0.0
C1161 C 0.35817 0.6116 0.35178 0.0
C1162 C 0.37888 0.5979 0.35255 0.0
H1163 H 0.46918 0.52045 0.3715 0.0
H1164 H 0.43296 0.53315 0.36263 0.0
H1165 H 0.40302 0.55783 0.37248 0.0
H1166 H 0.32319 0.64057 0.37269 0.0
H1167 H 0.35505 0.61521 0.37369 0.0
C1168 C 0.36182 0.06958 0.09045 0.0
C1169 C 0.37578 0.05812 0.09968 0.0
C1170 C 0.34882 0.0877 0.09482 0.0
C1171 C 0.35072 0.13214 0.11984 0.0
H1172 H 0.28831 0.14262 0.1109 0.0
C1173 C 0.30543 0.2097 0.14023 0.0
C1174 C 0.29016 0.22067 0.13161 0.0
C1175 C 0.31383 0.18864 0.1368 0.0
C1176 C 0.30582 0.14008 0.11334 0.0
H1177 H 0.38622 0.05596 0.12084 0.0
H1178 H 0.36379 0.08779 0.12839 0.0
H1179 H 0.30628 0.10756 0.10396 0.0
H1180 H 0.27137 0.21811 0.11277 0.0
H1181 H 0.28677 0.18162 0.10644 0.0
H1182 H 0.35085 0.16476 0.12867 0.0
C1183 C 0.36296 0.08276 0.11779 0.0
C1184 C 0.31603 0.11996 0.10942 0.0
C1185 C 0.37573 0.06449 0.11347 0.0
C1186 C 0.2831 0.20998 0.11961 0.0
C1187 C 0.29184 0.189 0.11604 0.0
C1188 C 0.34067 0.15231 0.12356 0.0
C1189 C 0.34978 0.09482 0.10845 0.0
C1190 C 0.33854 0.11579 0.11272 0.0
C1191 C 0.30755 0.17819 0.12452 0.0
C1192 C 0.31805 0.15655 0.12045 0.0
H1193 H 0.36145 0.06498 0.07977 0.0
H1194 H 0.33885 0.09679 0.08742 0.0
H1195 H 0.36824 0.12953 0.12226 0.0
H1196 H 0.31092 0.21742 0.14965 0.0
H1197 H 0.32538 0.18062 0.1438 0.0
C1198 C 0.51659 0.55696 0.88909 0.0
C1199 C 0.50581 0.54149 0.88054 0.0
C1200 C 0.53765 0.56536 0.88572 0.0
C1201 C 0.58681 0.55625 0.86311 0.0
H1202 H 0.59741 0.61902 0.87111 0.0
C1203 C 0.65935 0.61019 0.84085 0.0
C1204 C 0.66998 0.62498 0.84995 0.0
C1205 C 0.64092 0.59752 0.84508 0.0
C1206 C 0.5948 0.6014 0.86896 0.0
H1207 H 0.50868 0.52243 0.86182 0.0
H1208 H 0.54524 0.53771 0.85564 0.0
H1209 H 0.56179 0.60218 0.87717 0.0
H1210 H 0.67047 0.63709 0.87081 0.0
H1211 H 0.63822 0.61513 0.87811 0.0
H1212 H 0.6198 0.55596 0.85442 0.0
C1213 C 0.53765 0.54299 0.86513 0.0
C1214 C 0.57438 0.59169 0.87246 0.0
C1215 C 0.51665 0.53433 0.86861 0.0
C1216 C 0.66256 0.62598 0.86353 0.0
C1217 C 0.64404 0.61349 0.8677 0.0
C1218 C 0.60721 0.5661 0.85944 0.0
C1219 C 0.54832 0.55878 0.87359 0.0
C1220 C 0.57014 0.56895 0.86968 0.0
C1221 C 0.63271 0.59958 0.85843 0.0
C1222 C 0.61141 0.58873 0.86242 0.0
H1223 H 0.50877 0.56257 0.89844 0.0
H1224 H 0.54555 0.57704 0.89267 0.0
H1225 H 0.58424 0.53864 0.86094 0.0
H1226 H 0.66475 0.60901 0.83034 0.0
H1227 H 0.63243 0.58696 0.83772 0.0
C1228 C 0.20002 0.77355 0.6232 0.0
C1229 C 0.18562 0.758 0.62942 0.0
C1230 C 0.19254 0.79525 0.6202 0.0
C1231 C 0.1683 0.83512 0.60758 0.0
H1232 H 0.12494 0.86336 0.63139 0.0
C1233 C 0.11078 0.90664 0.58962 0.0
C1234 C 0.10305 0.92246 0.59911 0.0
C1235 C 0.12433 0.88883 0.5938 0.0
C1236 C 0.13734 0.856 0.62472 0.0
H1237 H 0.15207 0.75286 0.63723 0.0
H1238 H 0.13885 0.79025 0.63165 0.0
H1239 H 0.14212 0.82822 0.63817 0.0
H1240 H 0.10456 0.93287 0.62025 0.0
H1241 H 0.12883 0.90215 0.62751 0.0
H1242 H 0.16383 0.86318 0.59425 0.0
C1243 C 0.1561 0.78605 0.62941 0.0
C1244 C 0.14694 0.83558 0.62851 0.0
C1245 C 0.16362 0.7645 0.63252 0.0
C1246 C 0.11009 0.92078 0.61274 0.0
C1247 C 0.12388 0.90309 0.6169 0.0
C1248 C 0.15887 0.85569 0.60384 0.0
C1249 C 0.17047 0.80176 0.62327 0.0
C1250 C 0.1621 0.82459 0.61984 0.0
C1251 C 0.13069 0.88655 0.60755 0.0
C1252 C 0.14286 0.86614 0.61222 0.0
H1253 H 0.21712 0.76904 0.62075 0.0
H1254 H 0.20413 0.80697 0.61559 0.0
H1255 H 0.17985 0.82712 0.60061 0.0
H1256 H 0.10561 0.90745 0.57904 0.0
H1257 H 0.12893 0.87631 0.58632 0.0
C1258 C 0.9553 0.44172 0.36902 0.0
C1259 C 0.96639 0.43471 0.38092 0.0
C1260 C 0.93422 0.433 0.36571 0.0
C1261 C 0.89784 0.38422 0.37368 0.0
H1262 H 0.8527 0.4185 0.35427 0.0
C1263 C 0.81033 0.34852 0.36361 0.0
C1264 C 0.80389 0.34857 0.34982 0.0
C1265 C 0.82846 0.36143 0.36798 0.0
C1266 C 0.8652 0.40878 0.35969 0.0
H1267 H 0.96374 0.41408 0.39905 0.0
H1268 H 0.92675 0.39966 0.39364 0.0
H1269 H 0.88777 0.43658 0.36103 0.0
H1270 H 0.81045 0.36324 0.32998 0.0
H1271 H 0.84201 0.38608 0.33772 0.0
H1272 H 0.87517 0.35655 0.37249 0.0
C1273 C 0.93454 0.41115 0.38653 0.0
C1274 C 0.88533 0.41906 0.3635 0.0
C1275 C 0.95571 0.41953 0.3897 0.0
C1276 C 0.81511 0.36278 0.34066 0.0
C1277 C 0.83309 0.37592 0.34508 0.0
C1278 C 0.87766 0.3741 0.37006 0.0
C1279 C 0.92369 0.41737 0.37435 0.0
C1280 C 0.90196 0.40686 0.37051 0.0
C1281 C 0.8403 0.37487 0.3587 0.0
C1282 C 0.86118 0.38623 0.36299 0.0
H1283 H 0.96321 0.45337 0.36206 0.0
H1284 H 0.92654 0.43802 0.35618 0.0
H1285 H 0.9104 0.37407 0.37873 0.0
H1286 H 0.80197 0.33782 0.37093 0.0
H1287 H 0.83357 0.36052 0.37857 0.0
C1288 C 0.27774 0.7712 0.3553 0.0
C1289 C 0.29186 0.75577 0.34874 0.0
C1290 C 0.28542 0.79275 0.35845 0.0
C1291 C 0.3102 0.83239 0.37095 0.0
H1292 H 0.35188 0.86134 0.34633 0.0
C1293 C 0.36757 0.90488 0.38767 0.0
C1294 C 0.37426 0.92092 0.37801 0.0
C1295 C 0.35417 0.88678 0.38382 0.0
C1296 C 0.33996 0.85376 0.35324 0.0
H1297 H 0.32517 0.75068 0.34052 0.0
H1298 H 0.33871 0.78786 0.34633 0.0
H1299 H 0.33484 0.826 0.33986 0.0
H1300 H 0.371 0.9314 0.35693 0.0
H1301 H 0.34703 0.90015 0.35026 0.0
H1302 H 0.31504 0.86042 0.38423 0.0
C1303 C 0.32153 0.78365 0.34874 0.0
C1304 C 0.33045 0.83325 0.34961 0.0
C1305 C 0.31382 0.76223 0.3455 0.0
C1306 C 0.3663 0.91916 0.36457 0.0
C1307 C 0.35268 0.90116 0.36074 0.0
C1308 C 0.31957 0.85305 0.37454 0.0
C1309 C 0.3074 0.79925 0.35516 0.0
C1310 C 0.31585 0.82204 0.35855 0.0
C1311 C 0.34693 0.88443 0.37024 0.0
C1312 C 0.33494 0.86377 0.36585 0.0
H1313 H 0.26069 0.76672 0.35786 0.0
H1314 H 0.27402 0.8044 0.36329 0.0
H1315 H 0.29909 0.82422 0.37812 0.0
H1316 H 0.37346 0.90576 0.39811 0.0
H1317 H 0.35035 0.87413 0.39139 0.0
C1318 C 0.95598 0.5562 0.08389 0.0
C1319 C 0.96618 0.54052 0.09258 0.0
C1320 C 0.93456 0.56427 0.08669 0.0
C1321 C 0.88389 0.5546 0.10809 0.0
H1322 H 0.87418 0.61776 0.10072 0.0
C1323 C 0.81221 0.60896 0.13082 0.0
C1324 C 0.8019 0.62438 0.12196 0.0
C1325 C 0.83031 0.596 0.12638 0.0
C1326 C 0.87653 0.60003 0.10268 0.0
H1327 H 0.96189 0.52063 0.11088 0.0
H1328 H 0.92473 0.53539 0.11612 0.0
H1329 H 0.90982 0.60075 0.0949 0.0
H1330 H 0.80158 0.63736 0.10128 0.0
H1331 H 0.83328 0.61491 0.09361 0.0
H1332 H 0.85066 0.55441 0.11643 0.0
C1333 C 0.93302 0.54107 0.10694 0.0
C1334 C 0.89696 0.59021 0.0993 0.0
C1335 C 0.95437 0.5327 0.104 0.0
C1336 C 0.80925 0.62573 0.10838 0.0
C1337 C 0.82744 0.61296 0.10399 0.0
C1338 C 0.86349 0.56455 0.11164 0.0
C1339 C 0.92296 0.55719 0.0984 0.0
C1340 C 0.90093 0.56735 0.10191 0.0
C1341 C 0.8385 0.5984 0.11304 0.0
C1342 C 0.85963 0.58735 0.10892 0.0
H1343 H 0.96457 0.56229 0.0749 0.0
H1344 H 0.92716 0.5762 0.07967 0.0
H1345 H 0.88623 0.5369 0.11011 0.0
H1346 H 0.80685 0.60748 0.14133 0.0
H1347 H 0.83859 0.58496 0.13357 0.0
C1348 C 0.19601 0.20625 0.85315 0.0
C1349 C 0.18152 0.22105 0.8463 0.0
C1350 C 0.18903 0.18449 0.85637 0.0
C1351 C 0.1652 0.14448 0.86907 0.0
H1352 H 0.12477 0.11364 0.84447 0.0
C1353 C 0.10854 0.07194 0.8864 0.0
C1354 C 0.10209 0.05552 0.87692 0.0
C1355 C 0.12197 0.08992 0.88239 0.0
C1356 C 0.13637 0.12174 0.85138 0.0
H1357 H 0.14832 0.22478 0.83759 0.0
H1358 H 0.13596 0.18725 0.84352 0.0
H1359 H 0.14117 0.14908 0.83762 0.0
H1360 H 0.10587 0.04417 0.85606 0.0
H1361 H 0.12992 0.07519 0.84915 0.0
H1362 H 0.16068 0.11688 0.88274 0.0
C1363 C 0.15291 0.19211 0.8461 0.0
C1364 C 0.1455 0.14232 0.84753 0.0
C1365 C 0.15993 0.21373 0.8428 0.0
C1366 C 0.11038 0.05673 0.86355 0.0
C1367 C 0.12404 0.07459 0.85958 0.0
C1368 C 0.15623 0.12376 0.87288 0.0
C1369 C 0.16738 0.17715 0.85287 0.0
C1370 C 0.15958 0.15422 0.85646 0.0
C1371 C 0.12948 0.09176 0.86885 0.0
C1372 C 0.14128 0.11237 0.86421 0.0
H1373 H 0.2128 0.2114 0.85591 0.0
H1374 H 0.20069 0.17335 0.86146 0.0
H1375 H 0.17592 0.1532 0.87623 0.0
H1376 H 0.10239 0.07148 0.89678 0.0
H1377 H 0.12553 0.10291 0.88978 0.0
C1378 C 0.51826 0.44275 0.60387 0.0
C1379 C 0.50724 0.43556 0.592 0.0
C1380 C 0.53966 0.43465 0.60704 0.0
C1381 C 0.57727 0.38699 0.59886 0.0
H1382 H 0.62185 0.42251 0.61785 0.0
C1383 C 0.66536 0.3528 0.6088 0.0
C1384 C 0.67211 0.35342 0.62253 0.0
C1385 C 0.64704 0.36543 0.60438 0.0
C1386 C 0.60951 0.41244 0.61255 0.0
H1387 H 0.5103 0.41525 0.57378 0.0
H1388 H 0.54777 0.40185 0.57898 0.0
H1389 H 0.58618 0.43965 0.61129 0.0
H1390 H 0.66592 0.36888 0.64218 0.0
H1391 H 0.63398 0.39114 0.63438 0.0
H1392 H 0.60063 0.35989 0.60002 0.0
C1393 C 0.53973 0.41303 0.58615 0.0
C1394 C 0.58904 0.42218 0.60885 0.0
C1395 C 0.51827 0.42083 0.58311 0.0
C1396 C 0.66104 0.36798 0.63155 0.0
C1397 C 0.64282 0.38079 0.62708 0.0
C1398 C 0.59776 0.37739 0.60239 0.0
C1399 C 0.55054 0.41945 0.59829 0.0
C1400 C 0.57262 0.40953 0.602 0.0
C1401 C 0.63526 0.3791 0.61356 0.0
C1402 C 0.61405 0.38996 0.60931 0.0
H1403 H 0.5101 0.45408 0.61091 0.0
H1404 H 0.54733 0.43979 0.61654 0.0
H1405 H 0.56489 0.37651 0.59392 0.0
H1406 H 0.67361 0.34185 0.60158 0.0
H1407 H 0.6417 0.36405 0.59385 0.0
C1408 C 0.26428 0.27885 0.19647 0.0
C1409 C 0.2482 0.27727 0.18603 0.0
C1410 C 0.25932 0.27139 0.20966 0.0
C1411 C 0.22174 0.23175 0.22698 0.0
H1412 H 0.24112 0.26135 0.26015 0.0
C1413 C 0.18999 0.20413 0.27943 0.0
C1414 C 0.20551 0.20278 0.2902 0.0
C1415 C 0.19591 0.21397 0.26705 0.0
C1416 C 0.23583 0.25278 0.25096 0.0
H1417 H 0.21393 0.26792 0.1814 0.0
H1418 H 0.20519 0.25533 0.20438 0.0
H1419 H 0.24967 0.2782 0.238 0.0
H1420 H 0.23943 0.21096 0.2964 0.0
H1421 H 0.24983 0.22808 0.27463 0.0
H1422 H 0.20792 0.20637 0.23983 0.0
C1423 C 0.22179 0.26179 0.20233 0.0
C1424 C 0.24068 0.26245 0.23829 0.0
C1425 C 0.22676 0.26915 0.18918 0.0
C1426 C 0.22709 0.21169 0.28831 0.0
C1427 C 0.23301 0.22161 0.27588 0.0
C1428 C 0.2169 0.22214 0.2396 0.0
C1429 C 0.23818 0.26226 0.21263 0.0
C1430 C 0.23347 0.25213 0.22617 0.0
C1431 C 0.2175 0.22271 0.26509 0.0
C1432 C 0.22367 0.23264 0.25174 0.0
H1433 H 0.28097 0.28502 0.19434 0.0
H1434 H 0.27233 0.27191 0.21736 0.0
H1435 H 0.21645 0.22306 0.21783 0.0
H1436 H 0.17318 0.19759 0.28052 0.0
H1437 H 0.18346 0.21488 0.25903 0.0
C1438 C 0.02189 0.94148 0.52908 0.0
C1439 C 0.02264 0.95715 0.53977 0.0
C1440 C 0.01297 0.94733 0.51642 0.0
C1441 C 0.97515 0.98694 0.4993 0.0
H1442 H 0.00708 0.96804 0.46688 0.0
C1443 C 0.9506 0.01504 0.44457 0.0
C1444 C 0.9529 -0.00088 0.43411 0.0
C1445 C 0.95805 0.01023 0.45779 0.0
C1446 C -0.00222 0.97319 0.47582 0.0
H1447 H 0.01436 -0.00872 0.54554 0.0
H1448 H -0.00126 0.00151 0.5233 0.0
H1449 H 0.02248 0.95955 0.48928 0.0
H1450 H 0.96387 0.96534 0.42941 0.0
H1451 H 0.97642 0.95678 0.45246 0.0
H1452 H 0.95034 0.00045 0.48578 0.0
C1453 C 0.00501 0.98465 0.52482 0.0
C1454 C 0.00666 0.96838 0.48866 0.0
C1455 C 0.01408 0.97882 0.53751 0.0
C1456 C 0.96203 0.97803 0.43722 0.0
C1457 C 0.96938 0.97319 0.45042 0.0
C1458 C 0.9662 -0.0083 0.48642 0.0
C1459 C 0.0045 0.96898 0.51412 0.0
C1460 C -0.00463 0.97503 0.50054 0.0
C1461 C 0.96789 -0.01063 0.4608 0.0
C1462 C 0.97734 0.9847 0.47453 0.0
H1463 H 0.02825 0.92461 0.53044 0.0
H1464 H 0.01251 0.93479 0.50844 0.0
H1465 H 0.96598 -0.0079 0.50829 0.0
H1466 H 0.94367 0.03147 0.44248 0.0
H1467 H 0.95679 0.02311 0.46552 0.0
C1468 C 0.21823 0.69311 0.69505 0.0
C1469 C 0.22843 0.70418 0.68406 0.0
C1470 C 0.22361 0.69896 0.70849 0.0
C1471 C 0.22785 0.72333 0.73558 0.0
H1472 H 0.28763 0.74461 0.74388 0.0
C1473 C 0.24854 0.76937 0.78594 0.0
C1474 C 0.27014 0.76702 0.79142 0.0
C1475 C 0.2433 0.76011 0.77323 0.0
C1476 C 0.27092 0.73839 0.74188 0.0
H1477 H 0.25208 0.73019 0.67848 0.0
H1478 H 0.26079 0.74094 0.7017 0.0
H1479 H 0.27949 0.73016 0.72139 0.0
H1480 H 0.30291 0.75232 0.78822 0.0
H1481 H 0.29359 0.73535 0.76645 0.0
H1482 H 0.21959 0.73067 0.75631 0.0
C1483 C 0.24922 0.72722 0.7001 0.0
C1484 C 0.26613 0.73044 0.72883 0.0
C1485 C 0.24411 0.72115 0.68673 0.0
C1486 C 0.28621 0.75472 0.78415 0.0
C1487 C 0.28086 0.74509 0.7716 0.0
C1488 C 0.23276 0.73095 0.74874 0.0
C1489 C 0.23909 0.71622 0.71118 0.0
C1490 C 0.24445 0.72315 0.72542 0.0
C1491 C 0.25945 0.74794 0.76584 0.0
C1492 C 0.2543 0.73885 0.75203 0.0
H1493 H 0.20612 0.67991 0.69328 0.0
H1494 H 0.21571 0.68987 0.71674 0.0
H1495 H 0.2109 0.71806 0.73333 0.0
H1496 H 0.23584 0.77884 0.79132 0.0
H1497 H 0.22674 0.763 0.76907 0.0
C1498 C 0.46375 0.00249 0.03672 0.0
C1499 C 0.45623 0.02442 0.03931 0.0
C1500 C 0.4736 -0.0029 0.0242 0.0
C1501 C 0.47621 0.01623 -0.01147 0.0
H1502 H 0.52914 0.9787 0.98647 0.0
C1503 C 0.52083 0.00214 0.9376 0.0
C1504 C 0.52692 0.97996 0.93454 0.0
C1505 C 0.51444 0.00803 0.9508 0.0
C1506 C 0.51426 -0.01094 0.98688 0.0
H1507 H 0.45338 0.05792 0.03077 0.0
H1508 H 0.47055 0.04852 0.00908 0.0
H1509 H 0.51297 0.9876 0.00871 0.0
H1510 H 0.53211 0.94679 0.94306 0.0
H1511 H 0.52066 0.95701 0.9661 0.0
H1512 H 0.47721 0.01754 0.96678 0.0
C1513 C 0.46863 0.03543 0.01664 0.0
C1514 C 0.50499 -0.00587 -0.00039 0.0
C1515 C 0.45886 0.04083 0.02913 0.0
C1516 C 0.52751 0.96403 0.9451 0.0
C1517 C 0.52102 0.96991 0.95832 0.0
C1518 C 0.48542 0.01115 0.97584 0.0
C1519 C 0.47603 0.0135 0.01401 0.0
C1520 C 0.48589 0.00782 0.00056 0.0
C1521 C 0.51388 -0.00815 0.96124 0.0
C1522 C 0.50459 -0.00244 0.97485 0.0
H1523 H 0.46201 -0.01054 0.04434 0.0
H1524 H 0.47895 0.98 0.02242 0.0
H1525 H 0.46124 0.02648 -0.0111 0.0
H1526 H 0.52037 0.01485 0.9297 0.0
H1527 H 0.5095 0.02519 0.95278 0.0
C1528 C 0.23098 0.71911 0.28915 0.0
C1529 C 0.25072 0.70734 0.29225 0.0
C1530 C 0.22733 0.72748 0.27605 0.0
C1531 C 0.24449 0.72267 0.2401 0.0
H1532 H 0.22092 0.78318 0.23797 0.0
C1533 C 0.23146 0.76988 0.18878 0.0
C1534 C 0.21077 0.78097 0.18748 0.0
C1535 C 0.23825 0.76118 0.20141 0.0
C1536 C 0.22739 0.76622 0.23838 0.0
H1537 H 0.28175 0.6944 0.28392 0.0
H1538 H 0.27534 0.70911 0.26095 0.0
H1539 H 0.22855 0.76653 0.26016 0.0
H1540 H 0.18118 0.79186 0.19848 0.0
H1541 H 0.19293 0.77672 0.2203 0.0
H1542 H 0.24304 0.72236 0.21825 0.0
C1543 C 0.26268 0.71178 0.26868 0.0
C1544 C 0.23171 0.75666 0.25109 0.0
C1545 C 0.26637 0.70341 0.28183 0.0
C1546 C 0.19723 0.78346 0.19909 0.0
C1547 C 0.20403 0.77489 0.21165 0.0
C1548 C 0.24013 0.73226 0.22733 0.0
C1549 C 0.24332 0.7243 0.26574 0.0
C1550 C 0.23994 0.73465 0.25212 0.0
C1551 C 0.22455 0.76357 0.21296 0.0
C1552 C 0.23117 0.75401 0.22636 0.0
H1553 H 0.21852 0.72231 0.29693 0.0
H1554 H 0.21202 0.73666 0.27403 0.0
H1555 H 0.25076 0.70564 0.24057 0.0
H1556 H 0.24227 0.76765 0.18003 0.0
H1557 H 0.25423 0.75267 0.20214 0.0
C1558 C 0.46523 0.97903 0.43737 0.0
C1559 C 0.45836 0.95681 0.43498 0.0
C1560 C 0.47434 0.98516 0.45 0.0
C1561 C 0.4748 0.96759 0.48593 0.0
H1562 H 0.52778 0.00482 0.4891 0.0
C1563 C 0.51831 0.97933 0.53741 0.0
C1564 C 0.52518 0.00108 0.54092 0.0
C1565 C 0.51168 0.97437 0.52411 0.0
C1566 C 0.51284 -0.0054 0.48838 0.0
H1567 H 0.45607 0.92358 0.44394 0.0
H1568 H 0.4719 0.93427 0.46581 0.0
H1569 H 0.51283 -0.00424 0.46651 0.0
H1570 H 0.53127 0.03455 0.53311 0.0
H1571 H 0.51935 0.02596 0.50983 0.0
H1572 H 0.47455 0.96648 0.50769 0.0
C1573 C 0.47003 0.947 0.458 0.0
C1574 C 0.50429 -0.01057 0.47545 0.0
C1575 C 0.46105 0.94086 0.44542 0.0
C1576 C 0.52608 0.01761 0.5307 0.0
C1577 C 0.51931 0.01267 0.51736 0.0
C1578 C 0.48326 0.9728 0.4988 0.0
C1579 C 0.4766 0.96923 0.46049 0.0
C1580 C 0.48532 0.97566 0.47411 0.0
C1581 C 0.51159 -0.0089 0.51399 0.0
C1582 C 0.50252 0.98614 0.5002 0.0
H1583 H 0.46344 -0.00828 0.42954 0.0
H1584 H 0.47915 0.00245 0.45165 0.0
H1585 H 0.45988 0.95734 0.48525 0.0
H1586 H 0.51764 0.96616 0.54501 0.0
H1587 H 0.50633 0.95745 0.52178 0.0
C1588 C 0.20723 0.27628 0.78022 0.0
C1589 C 0.22309 0.27452 0.79078 0.0
C1590 C 0.21239 0.26885 0.76706 0.0
C1591 C 0.2503 0.22945 0.7497 0.0
H1592 H 0.23216 0.2604 0.71669 0.0
C1593 C 0.28418 0.20409 0.69735 0.0
C1594 C 0.26906 0.20306 0.68637 0.0
C1595 C 0.27775 0.21343 0.70977 0.0
C1596 C 0.2371 0.25146 0.72583 0.0
H1597 H 0.25714 0.26465 0.79567 0.0
H1598 H 0.26622 0.25208 0.77275 0.0
H1599 H 0.22281 0.27639 0.73894 0.0
H1600 H 0.23534 0.21136 0.6798 0.0
H1601 H 0.22406 0.22764 0.70163 0.0
H1602 H 0.26462 0.20459 0.73669 0.0
C1603 C 0.24964 0.2587 0.77468 0.0
C1604 C 0.23178 0.26062 0.73856 0.0
C1605 C 0.24447 0.26605 0.7878 0.0
C1606 C 0.24738 0.21185 0.68807 0.0
C1607 C 0.24095 0.22129 0.70053 0.0
C1608 C 0.25562 0.22035 0.73703 0.0
C1609 C 0.23351 0.25954 0.76423 0.0
C1610 C 0.23855 0.24982 0.75063 0.0
C1611 C 0.25605 0.222 0.71154 0.0
C1612 C 0.24931 0.23135 0.72495 0.0
H1613 H 0.1906 0.28272 0.78222 0.0
H1614 H 0.19958 0.26964 0.75925 0.0
H1615 H 0.25527 0.22041 0.7588 0.0
H1616 H 0.30105 0.19763 0.69641 0.0
H1617 H 0.28989 0.21407 0.71798 0.0
C1618 C 0.01417 0.03708 0.94405 0.0
C1619 C 0.01717 0.021 0.93374 0.0
C1620 C 0.00468 0.03113 0.95651 0.0
C1621 C 0.96969 -0.01116 0.9736 0.0
H1622 H -0.002 0.0123 0.00621 0.0
C1623 C 0.94707 0.9603 0.02863 0.0
C1624 C 0.94758 0.97679 0.03886 0.0
C1625 C 0.95382 0.96546 0.01533 0.0
C1626 C -0.01032 0.00585 -0.00279 0.0
H1627 H 0.01214 0.98605 0.92841 0.0
H1628 H -0.00441 0.97564 0.95031 0.0
H1629 H 0.01347 0.02135 0.98398 0.0
H1630 H 0.95424 0.01187 0.04301 0.0
H1631 H 0.96552 0.02094 0.01983 0.0
H1632 H 0.94584 0.97333 0.98694 0.0
C1633 C 0.00052 -0.0071 0.94865 0.0
C1634 C -0.00141 0.011 0.98446 0.0
C1635 C 0.01012 -0.00116 0.93614 0.0
C1636 C 0.95388 -0.00126 0.03539 0.0
C1637 C 0.9605 0.0039 0.02212 0.0
C1638 C 0.96069 0.9837 0.9864 0.0
C1639 C -0.00209 0.00896 0.959 0.0
C1640 C -0.01138 0.00272 0.97251 0.0
C1641 C 0.96112 0.9872 0.01202 0.0
C1642 C 0.9705 -0.00767 -0.00165 0.0
H1643 H 0.01927 0.05433 0.94255 0.0
H1644 H 0.00255 0.04397 0.96421 0.0
H1645 H 0.96155 0.98235 0.96455 0.0
H1646 H 0.94231 0.94322 0.03101 0.0
H1647 H 0.95419 0.95219 0.0078 0.0
C1648 C 0.72983 0.76186 0.68532 0.0
C1649 C 0.75052 0.77199 0.68246 0.0
C1650 C 0.72505 0.75411 0.69842 0.0
C1651 C 0.74187 0.75765 0.73463 0.0
H1652 H 0.71447 0.69878 0.73647 0.0
C1653 C 0.72892 0.70918 0.78547 0.0
C1654 C 0.70801 0.69863 0.78701 0.0
C1655 C 0.73512 0.71844 0.7729 0.0
C1656 C 0.72195 0.71532 0.73614 0.0
H1657 H 0.78208 0.78278 0.69124 0.0
H1658 H 0.77373 0.76912 0.71417 0.0
H1659 H 0.72274 0.71532 0.71436 0.0
H1660 H 0.67727 0.68957 0.77651 0.0
H1661 H 0.68801 0.70573 0.75478 0.0
H1662 H 0.74096 0.75757 0.75649 0.0
C1663 C 0.76118 0.76728 0.70627 0.0
C1664 C 0.72665 0.72482 0.72347 0.0
C1665 C 0.76598 0.77505 0.69313 0.0
C1666 C 0.69354 0.69747 0.77571 0.0
C1667 C 0.69975 0.70664 0.7632 0.0
C1668 C 0.73714 0.74811 0.74736 0.0
C1669 C 0.74085 0.75628 0.70898 0.0
C1670 C 0.73642 0.74619 0.72255 0.0
C1671 C 0.72059 0.71722 0.76163 0.0
C1672 C 0.72689 0.72694 0.74823 0.0
H1673 H 0.7175 0.75939 0.67735 0.0
H1674 H 0.70904 0.74613 0.70025 0.0
H1675 H 0.74931 0.77419 0.73425 0.0
H1676 H 0.74045 0.71038 0.79397 0.0
H1677 H 0.75138 0.72633 0.77197 0.0
C1678 C 0.72035 0.19113 0.19369 0.0
C1679 C 0.72973 0.20258 0.18256 0.0
C1680 C 0.72605 0.19712 0.20704 0.0
C1681 C 0.7298 0.22199 0.23393 0.0
H1682 H 0.78892 0.24525 0.24198 0.0
C1683 C 0.74921 0.26916 0.28403 0.0
C1684 C 0.77081 0.26727 0.28959 0.0
C1685 C 0.74429 0.25977 0.27131 0.0
C1686 C 0.77241 0.23849 0.24003 0.0
H1687 H 0.75245 0.22922 0.17667 0.0
H1688 H 0.76175 0.24016 0.1998 0.0
H1689 H 0.78107 0.23031 0.21954 0.0
H1690 H 0.80394 0.25333 0.28647 0.0
H1691 H 0.79518 0.23619 0.26466 0.0
H1692 H 0.72144 0.22934 0.25464 0.0
C1693 C 0.75052 0.22611 0.19834 0.0
C1694 C 0.76778 0.23024 0.22702 0.0
C1695 C 0.74508 0.21992 0.18503 0.0
C1696 C 0.78722 0.25535 0.28236 0.0
C1697 C 0.7822 0.24562 0.26979 0.0
C1698 C 0.73454 0.22994 0.24703 0.0
C1699 C 0.74102 0.21488 0.20955 0.0
C1700 C 0.74632 0.22218 0.22372 0.0
C1701 C 0.76076 0.24793 0.26399 0.0
C1702 C 0.75584 0.23855 0.25022 0.0
H1703 H 0.70852 0.17762 0.19208 0.0
H1704 H 0.71868 0.18782 0.21539 0.0
H1705 H 0.71301 0.21616 0.23175 0.0
H1706 H 0.73625 0.27833 0.28937 0.0
H1707 H 0.72769 0.26224 0.26712 0.0
C1708 C 0.72626 0.21204 0.78691 0.0
C1709 C 0.74755 0.20314 0.78973 0.0
C1710 C 0.72094 0.21969 0.77385 0.0
C1711 C 0.73833 0.21787 0.73766 0.0
H1712 H 0.70699 0.27477 0.73591 0.0
C1713 C 0.72612 0.26765 0.68736 0.0
C1714 C 0.70487 0.27724 0.68526 0.0
C1715 C 0.73167 0.25804 0.69994 0.0
C1716 C 0.71555 0.25876 0.73621 0.0
H1717 H 0.77971 0.19451 0.78093 0.0
H1718 H 0.77049 0.20808 0.75811 0.0
H1719 H 0.71555 0.25822 0.758 0.0
H1720 H 0.67279 0.28417 0.69476 0.0
H1721 H 0.68244 0.26738 0.71657 0.0
H1722 H 0.73836 0.21855 0.71581 0.0
C1723 C 0.75784 0.20898 0.76599 0.0
C1724 C 0.72041 0.24924 0.74887 0.0
C1725 C 0.76315 0.20127 0.77907 0.0
C1726 C 0.68934 0.27704 0.69602 0.0
C1727 C 0.6949 0.2675 0.70857 0.0
C1728 C 0.73346 0.22743 0.72496 0.0
C1729 C 0.73682 0.21868 0.7633 0.0
C1730 C 0.73174 0.22862 0.74975 0.0
C1731 C 0.71612 0.25791 0.71068 0.0
C1732 C 0.7219 0.24792 0.72411 0.0
H1733 H 0.71381 0.21356 0.79488 0.0
H1734 H 0.70445 0.22665 0.77205 0.0
H1735 H 0.74692 0.20188 0.73799 0.0
H1736 H 0.73847 0.26751 0.67929 0.0
H1737 H 0.74823 0.25098 0.70131 0.0
C1738 C 0.74703 0.7628 0.28725 0.0
C1739 C 0.72625 0.77294 0.28987 0.0
C1740 C 0.7522 0.75505 0.27421 0.0
C1741 C 0.73583 0.75838 0.23783 0.0
H1742 H 0.76383 0.69976 0.23621 0.0
C1743 C 0.74705 0.70897 0.18737 0.0
C1744 C 0.76791 0.69847 0.18551 0.0
C1745 C 0.74146 0.71847 0.19996 0.0
C1746 C 0.7562 0.71623 0.23648 0.0
H1747 H 0.69492 0.7837 0.28076 0.0
H1748 H 0.70388 0.76996 0.25796 0.0
H1749 H 0.75563 0.71648 0.25826 0.0
H1750 H 0.79921 0.68967 0.19548 0.0
H1751 H 0.7895 0.70624 0.2173 0.0
H1752 H 0.73637 0.75799 0.21598 0.0
C1753 C 0.71625 0.76816 0.26598 0.0
C1754 C 0.75155 0.72586 0.24912 0.0
C1755 C 0.71109 0.77597 0.27905 0.0
C1756 C 0.78296 0.69755 0.19654 0.0
C1757 C 0.77736 0.70696 0.20909 0.0
C1758 C 0.74047 0.74872 0.22515 0.0
C1759 C 0.73668 0.75719 0.26349 0.0
C1760 C 0.74147 0.74711 0.24996 0.0
C1761 C 0.75658 0.71756 0.21095 0.0
C1762 C 0.75085 0.7276 0.22435 0.0
H1763 H 0.75914 0.76036 0.29535 0.0
H1764 H 0.76828 0.7471 0.27256 0.0
H1765 H 0.7282 0.77485 0.23813 0.0
H1766 H 0.73507 0.70999 0.17909 0.0
H1767 H 0.72523 0.72634 0.20112 0.0
C1768 C 0.51348 0.47576 0.03817 0.0
C1769 C 0.52351 0.45476 0.04052 0.0
C1770 C 0.50394 0.48077 0.02548 0.0
C1771 C 0.50614 0.4641 -0.01062 0.0
H1772 H 0.44851 0.49377 0.98669 0.0
C1773 C 0.46185 0.47406 0.9378 0.0
C1774 C 0.45223 0.49506 0.93499 0.0
C1775 C 0.46895 0.46873 0.95098 0.0
C1776 C 0.46471 0.48566 0.98728 0.0
H1777 H 0.53122 0.42253 0.03135 0.0
H1778 H 0.5146 0.43128 0.00935 0.0
H1779 H 0.46455 0.48586 0.00914 0.0
H1780 H 0.44179 0.52665 0.94388 0.0
H1781 H 0.45448 0.51746 0.96687 0.0
H1782 H 0.50653 0.46404 0.9676 0.0
C1783 C 0.5143 0.44395 0.01725 0.0
C1784 C 0.4739 0.48115 0.00012 0.0
C1785 C 0.52374 0.43891 0.02991 0.0
C1786 C 0.44912 0.51031 0.94573 0.0
C1787 C 0.45631 0.50501 0.95892 0.0
C1788 C 0.49702 0.46864 0.97657 0.0
C1789 C 0.50434 0.46494 0.01488 0.0
C1790 C 0.49467 0.47023 0.0013 0.0
C1791 C 0.46671 0.48432 0.96164 0.0
C1792 C 0.47615 0.47938 0.97535 0.0
H1793 H 0.51299 0.48833 0.04612 0.0
H1794 H 0.49655 0.49716 0.02391 0.0
H1795 H 0.52237 0.45602 -0.01005 0.0
H1796 H 0.46433 0.46188 0.92976 0.0
H1797 H 0.47646 0.45246 0.95278 0.0
C1798 C 0.0186 0.4959 0.43844 0.0
C1799 C 0.02727 0.47493 0.43464 0.0
C1800 C 0.01303 0.50025 0.45199 0.0
C1801 C -0.00423 0.47138 0.48322 0.0
H1802 H 0.00458 0.52997 0.49945 0.0
C1803 C 0.96499 0.49436 0.53769 0.0
C1804 C 0.95453 0.51541 0.53887 0.0
C1805 C 0.97606 0.48839 0.52565 0.0
C1806 C 0.0019 0.51355 0.49503 0.0
H1807 H 0.03764 0.44232 0.44215 0.0
H1808 H 0.02795 0.44999 0.46591 0.0
H1809 H 0.02113 0.52168 0.47732 0.0
H1810 H 0.94718 0.54648 0.52818 0.0
H1811 H 0.96617 0.53598 0.50729 0.0
H1812 H 0.97612 0.46344 0.50084 0.0
C1813 C 0.02529 0.46297 0.45834 0.0
C1814 C 0.0114 0.5088 0.48237 0.0
C1815 C 0.03097 0.45864 0.44477 0.0
C1816 C 0.95513 0.53017 0.52769 0.0
C1817 C 0.96619 0.52424 0.51572 0.0
C1818 C 0.98625 0.47614 0.49591 0.0
C1819 C 0.01595 0.48371 0.46206 0.0
C1820 C 0.00805 0.48783 0.47618 0.0
C1821 C 0.97695 0.50338 0.51459 0.0
C1822 C -0.01119 0.49745 0.5018 0.0
H1823 H 0.01553 0.5088 0.43087 0.0
H1824 H 0.00563 0.51632 0.45448 0.0
H1825 H -0.00731 0.45514 0.47866 0.0
H1826 H 0.96487 0.48261 0.54612 0.0
H1827 H 0.98426 0.47221 0.52509 0.0
C1828 C 0.02792 0.51445 0.03 0.0
C1829 C 0.02711 0.49829 0.04043 0.0
C1830 C 0.02076 0.50911 0.0168 0.0
C1831 C 0.98287 0.46963 -0.00044 0.0
H1832 H 0.01045 0.49138 0.96632 0.0
C1833 C 0.95478 0.43864 0.94692 0.0
C1834 C 0.95249 0.45456 0.93643 0.0
C1835 C 0.96477 0.44443 0.95928 0.0
C1836 C 0.00245 0.48539 0.97553 0.0
H1837 H 0.0196 0.46352 0.04502 0.0
H1838 H 0.00758 0.45413 0.02201 0.0
H1839 H 0.0275 0.50015 -0.01161 0.0
H1840 H 0.9591 0.48908 0.93071 0.0
H1841 H 0.97646 0.49924 0.95244 0.0
H1842 H 0.95783 0.45495 0.98681 0.0
C1843 C 0.01317 0.47107 0.02407 0.0
C1844 C 0.01223 0.49038 -0.01185 0.0
C1845 C 0.02021 0.47641 0.03724 0.0
C1846 C 0.96057 0.47642 0.93858 0.0
C1847 C 0.97064 0.48221 0.95099 0.0
C1848 C 0.97315 0.46465 0.98699 0.0
C1849 C 0.01272 0.48751 0.0138 0.0
C1850 C 0.00262 0.48239 0.0003 0.0
C1851 C 0.97274 0.46628 0.9615 0.0
C1852 C 0.98289 0.47232 0.97482 0.0
H1853 H 0.03313 0.53147 0.03216 0.0
H1854 H 0.02056 0.52217 0.00912 0.0
H1855 H 0.97471 0.4637 0.00873 0.0
H1856 H 0.94888 0.42161 0.94561 0.0
H1857 H 0.96644 0.43168 0.96709 0.0
C1858 C 0.51134 0.49866 0.43661 0.0
C1859 C 0.51999 0.52026 0.4343 0.0
C1860 C 0.50171 0.49319 0.44918 0.0
C1861 C 0.50129 0.51066 0.48519 0.0
H1862 H 0.44566 0.4773 0.48716 0.0
C1863 C 0.45565 0.49953 0.53602 0.0
C1864 C 0.44778 0.47791 0.53905 0.0
C1865 C 0.46261 0.50493 0.52285 0.0
C1866 C 0.46129 0.48647 0.48677 0.0
H1867 H 0.52521 0.55304 0.44339 0.0
H1868 H 0.50844 0.5435 0.46518 0.0
H1869 H 0.46217 0.48566 0.46492 0.0
H1870 H 0.44009 0.44528 0.53051 0.0
H1871 H 0.45252 0.45464 0.5075 0.0
H1872 H 0.50063 0.51138 0.50696 0.0
C1873 C 0.50928 0.53073 0.45735 0.0
C1874 C 0.47076 0.49121 0.47405 0.0
C1875 C 0.51881 0.53621 0.44482 0.0
C1876 C 0.44606 0.4621 0.52848 0.0
C1877 C 0.45312 0.46748 0.51529 0.0
C1878 C 0.49188 0.5059 0.49787 0.0
C1879 C 0.50066 0.50916 0.4597 0.0
C1880 C 0.4908 0.50348 0.47314 0.0
C1881 C 0.46199 0.4888 0.51241 0.0
C1882 C 0.4717 0.49388 0.49882 0.0
H1883 H 0.51195 0.48599 0.42872 0.0
H1884 H 0.49538 0.47637 0.45074 0.0
H1885 H 0.51696 0.51977 0.48484 0.0
H1886 H 0.45701 0.51215 0.54392 0.0
H1887 H 0.46889 0.52166 0.52089 0.0
C1888 C 0.29627 0.14909 0.33857 0.0
C1889 C 0.28265 0.1614 0.34753 0.0
C1890 C 0.31599 0.13904 0.34323 0.0
C1891 C 0.33722 0.11416 0.37437 0.0
H1892 H 0.39179 0.10594 0.35362 0.0
C1893 C 0.40143 0.04863 0.39142 0.0
C1894 C 0.40986 0.03488 0.38101 0.0
C1895 C 0.39057 0.06874 0.38826 0.0
C1896 C 0.37663 0.10798 0.35953 0.0
H1897 H 0.27984 0.17415 0.36816 0.0
H1898 H 0.31425 0.15645 0.37632 0.0
H1899 H 0.36406 0.13345 0.34607 0.0
H1900 H 0.41463 0.03196 0.35918 0.0
H1901 H 0.39504 0.06652 0.3536 0.0
H1902 H 0.34884 0.08794 0.38736 0.0
C1903 C 0.30956 0.15448 0.36571 0.0
C1904 C 0.36081 0.12383 0.35522 0.0
C1905 C 0.28992 0.16468 0.36102 0.0
C1906 C 0.40833 0.04223 0.36743 0.0
C1907 C 0.39718 0.06218 0.36425 0.0
C1908 C 0.35286 0.0982 0.37859 0.0
C1909 C 0.32241 0.14096 0.35698 0.0
C1910 C 0.34074 0.12674 0.36246 0.0
C1911 C 0.38756 0.07537 0.37459 0.0
C1912 C 0.37257 0.09453 0.37107 0.0
H1913 H 0.29118 0.14634 0.3281 0.0
H1914 H 0.32545 0.12862 0.33628 0.0
H1915 H 0.32175 0.11573 0.38005 0.0
H1916 H 0.4026 0.04352 0.402 0.0
H1917 H 0.38392 0.07874 0.39652 0.0
C1918 C 0.0615 0.04349 0.60934 0.0
C1919 C 0.06544 0.03533 0.59612 0.0
C1920 C 0.0719 0.06314 0.61382 0.0
C1921 C 0.10438 0.11307 0.60295 0.0
H1922 H 0.13757 0.10225 0.63631 0.0
C1923 C 0.18589 0.15965 0.61646 0.0
C1924 C 0.19234 0.16151 0.63019 0.0
C1925 C 0.1659 0.1489 0.61294 0.0
C1926 C 0.12806 0.10598 0.62718 0.0
H1927 H 0.08196 0.04228 0.5769 0.0
H1928 H 0.10006 0.07659 0.58472 0.0
H1929 H 0.10987 0.07528 0.62885 0.0
H1930 H 0.18206 0.15545 0.65105 0.0
H1931 H 0.14675 0.13758 0.64497 0.0
H1932 H 0.12294 0.14364 0.60116 0.0
C1933 C 0.08895 0.06781 0.59162 0.0
C1934 C 0.11216 0.09039 0.62287 0.0
C1935 C 0.07868 0.04807 0.58717 0.0
C1936 C 0.17764 0.15399 0.64036 0.0
C1937 C 0.15748 0.14358 0.63686 0.0
C1938 C 0.12017 0.12885 0.60734 0.0
C1939 C 0.08629 0.07513 0.60514 0.0
C1940 C 0.10054 0.09346 0.61055 0.0
C1941 C 0.15177 0.14006 0.62309 0.0
C1942 C 0.13265 0.12521 0.61934 0.0
H1943 H 0.05129 0.03412 0.61646 0.0
H1944 H 0.06934 0.06854 0.62425 0.0
H1945 H 0.09551 0.11597 0.59347 0.0
H1946 H 0.19692 0.16525 0.60839 0.0
H1947 H 0.16226 0.14638 0.60224 0.0
C1948 C 0.17981 0.82833 0.83819 0.0
C1949 C 0.19242 0.81503 0.84721 0.0
C1950 C 0.16023 0.83889 0.8426 0.0
C1951 C 0.13781 0.86301 0.87353 0.0
H1952 H 0.08407 0.8722 0.852 0.0
C1953 C 0.07335 0.92834 0.89028 0.0
C1954 C 0.06522 0.94237 0.87989 0.0
C1955 C 0.08424 0.90828 0.88708 0.0
C1956 C 0.09901 0.8699 0.85812 0.0
H1957 H 0.1937 0.80126 0.86768 0.0
H1958 H 0.1596 0.81994 0.87541 0.0
H1959 H 0.11196 0.84483 0.84458 0.0
H1960 H 0.06102 0.94587 0.85803 0.0
H1961 H 0.0807 0.91144 0.8524 0.0
H1962 H 0.12585 0.88886 0.88661 0.0
C1963 C 0.16493 0.82222 0.86495 0.0
C1964 C 0.1149 0.85414 0.85389 0.0
C1965 C 0.1844 0.81148 0.8605 0.0
C1966 C 0.06707 0.93536 0.86627 0.0
C1967 C 0.07829 0.9155 0.86305 0.0
C1968 C 0.12211 0.87892 0.87766 0.0
C1969 C 0.15299 0.83651 0.85615 0.0
C1970 C 0.13466 0.85085 0.86143 0.0
C1971 C 0.08762 0.90202 0.8734 0.0
C1972 C 0.10269 0.88294 0.86988 0.0
H1973 H 0.18551 0.83132 0.82787 0.0
H1974 H 0.15147 0.84994 0.83562 0.0
H1975 H 0.15303 0.8611 0.87944 0.0
H1976 H 0.07192 0.93319 0.90089 0.0
H1977 H 0.09065 0.89806 0.89534 0.0
C1978 C 0.29481 0.82965 0.13535 0.0
C1979 C 0.2809 0.8173 0.12657 0.0
C1980 C 0.31409 0.84009 0.1304 0.0
C1981 C 0.35837 0.85521 0.11769 0.0
H1982 H 0.34459 0.89297 0.0866 0.0
C1983 C 0.40682 0.93631 0.10584 0.0
C1984 C 0.40747 0.94439 0.09239 0.0
C1985 C 0.39532 0.91654 0.10893 0.0
C1986 C 0.3491 0.88219 0.09506 0.0
H1987 H 0.27695 0.80514 0.10587 0.0
H1988 H 0.31055 0.82367 0.09718 0.0
H1989 H 0.31768 0.8651 0.09402 0.0
H1990 H 0.39819 0.93724 0.07148 0.0
H1991 H 0.37894 0.90228 0.07674 0.0
H1992 H 0.3897 0.87251 0.11886 0.0
C1993 C 0.30648 0.82525 0.10789 0.0
C1994 C 0.33355 0.86621 0.09934 0.0
C1995 C 0.28732 0.81457 0.11289 0.0
C1996 C 0.39773 0.93154 0.08197 0.0
C1997 C 0.38655 0.91158 0.08501 0.0
C1998 C 0.37409 0.87103 0.1133 0.0
C1999 C 0.31972 0.8386 0.11653 0.0
C2000 C 0.33776 0.85295 0.11089 0.0
C2001 C 0.38449 0.90422 0.0986 0.0
C2002 C 0.3694 0.88517 0.10215 0.0
H2003 H 0.29035 0.83199 0.14596 0.0
H2004 H 0.32387 0.8504 0.13728 0.0
H2005 H 0.36213 0.84504 0.12656 0.0
H2006 H 0.41411 0.94589 0.11411 0.0
H2007 H 0.39395 0.91164 0.11952 0.0
C2008 C 0.69984 0.83265 0.62788 0.0
C2009 C 0.71087 0.82373 0.61645 0.0
C2010 C 0.68183 0.84739 0.62624 0.0
C2011 C 0.65841 0.88754 0.6017 0.0
H2012 H 0.60557 0.88457 0.62454 0.0
C2013 C 0.58404 0.94762 0.59371 0.0
C2014 C 0.57441 0.95688 0.60551 0.0
C2015 C 0.59926 0.9299 0.59469 0.0
C2016 C 0.6203 0.88574 0.61816 0.0
H2017 H 0.71122 0.82291 0.59432 0.0
H2018 H 0.67981 0.84857 0.5915 0.0
H2019 H 0.63484 0.85624 0.62699 0.0
H2020 H 0.57294 0.95445 0.62757 0.0
H2021 H 0.59976 0.92383 0.62928 0.0
H2022 H 0.64421 0.91722 0.59305 0.0
C2023 C 0.68525 0.84433 0.60172 0.0
C2024 C 0.63704 0.8695 0.61956 0.0
C2025 C 0.70319 0.82953 0.60335 0.0
C2026 C 0.58 0.94769 0.61827 0.0
C2027 C 0.5953 0.93003 0.61925 0.0
C2028 C 0.64174 0.90381 0.60034 0.0
C2029 C 0.67452 0.85359 0.61314 0.0
C2030 C 0.65632 0.8703 0.61138 0.0
C2031 C 0.60529 0.92107 0.60749 0.0
C2032 C 0.62253 0.90318 0.6086 0.0
H2033 H 0.7053 0.82852 0.63812 0.0
H2034 H 0.67403 0.85442 0.63524 0.0
H2035 H 0.67324 0.88882 0.5954 0.0
H2036 H 0.57998 0.95418 0.58371 0.0
H2037 H 0.60636 0.92314 0.58541 0.0
C2038 C 0.88944 0.94783 0.38024 0.0
C2039 C 0.89972 0.95765 0.36882 0.0
C2040 C 0.87446 0.93001 0.37865 0.0
C2041 C 0.83646 0.90554 0.35323 0.0
H2042 H 0.83496 0.85467 0.37787 0.0
C2043 C 0.7762 0.83187 0.34439 0.0
C2044 C 0.76482 0.82362 0.35588 0.0
C2045 C 0.79414 0.84667 0.34591 0.0
C2046 C 0.83506 0.86886 0.37097 0.0
H2047 H 0.90285 0.95593 0.34679 0.0
H2048 H 0.87688 0.92483 0.34405 0.0
H2049 H 0.8637 0.88344 0.38072 0.0
H2050 H 0.76375 0.82404 0.378 0.0
H2051 H 0.79482 0.85014 0.38062 0.0
H2052 H 0.80768 0.89129 0.34361 0.0
C2053 C 0.88015 0.93112 0.35422 0.0
C2054 C 0.85152 0.88532 0.37261 0.0
C2055 C 0.89514 0.94887 0.35581 0.0
C2056 C 0.77216 0.83006 0.36893 0.0
C2057 C 0.79006 0.84494 0.37044 0.0
C2058 C 0.82 0.88915 0.35162 0.0
C2059 C 0.86942 0.92168 0.36559 0.0
C2060 C 0.85236 0.90385 0.36376 0.0
C2061 C 0.80106 0.85365 0.35894 0.0
C2062 C 0.81907 0.87064 0.36048 0.0
H2063 H 0.89261 0.95417 0.39041 0.0
H2064 H 0.86631 0.92322 0.3876 0.0
H2065 H 0.8364 0.91982 0.3464 0.0
H2066 H 0.77111 0.82712 0.33419 0.0
H2067 H 0.80251 0.85276 0.33684 0.0
C2068 C 0.7781 0.14525 0.127 0.0
C2069 C 0.76648 0.15416 0.11575 0.0
C2070 C 0.79614 0.13068 0.12509 0.0
C2071 C 0.81841 0.09066 0.10023 0.0
H2072 H 0.87184 0.09287 0.12271 0.0
C2073 C 0.89162 0.02929 0.09205 0.0
C2074 C 0.90127 0.01991 0.10383 0.0
C2075 C 0.87671 0.04727 0.09303 0.0
C2076 C 0.85694 0.09193 0.11642 0.0
H2077 H 0.76519 0.15524 0.09364 0.0
H2078 H 0.79672 0.12986 0.09032 0.0
H2079 H 0.84307 0.12166 0.12529 0.0
H2080 H 0.9031 0.02236 0.12588 0.0
H2081 H 0.87683 0.05345 0.12761 0.0
H2082 H 0.83193 0.06073 0.09156 0.0
C2083 C 0.79168 0.13398 0.10062 0.0
C2084 C 0.8405 0.10843 0.11789 0.0
C2085 C 0.77369 0.14862 0.10253 0.0
C2086 C 0.896 0.0292 0.1166 0.0
C2087 C 0.88103 0.04713 0.11758 0.0
C2088 C 0.83479 0.07414 0.09879 0.0
C2089 C 0.80292 0.12464 0.11188 0.0
C2090 C 0.82098 0.10788 0.10987 0.0
C2091 C 0.87105 0.05624 0.10582 0.0
C2092 C 0.85418 0.07447 0.10694 0.0
H2093 H 0.77302 0.14918 0.13733 0.0
H2094 H 0.80433 0.1236 0.13396 0.0
H2095 H 0.80339 0.08957 0.09405 0.0
H2096 H 0.89543 0.02266 0.08204 0.0
H2097 H 0.8696 0.05412 0.08376 0.0
C2098 C 0.58484 0.02348 0.87789 0.0
C2099 C 0.57503 0.01252 0.86669 0.0
C2100 C 0.60013 0.04088 0.8759 0.0
C2101 C 0.63954 0.06358 0.85066 0.0
H2102 H 0.63811 0.11633 0.87374 0.0
C2103 C 0.69951 0.1382 0.84234 0.0
C2104 C 0.7094 0.14739 0.8541 0.0
C2105 C 0.68193 0.12284 0.84342 0.0
C2106 C 0.63884 0.10162 0.86729 0.0
H2107 H 0.57351 0.01143 0.84459 0.0
H2108 H 0.60017 0.04188 0.84114 0.0
H2109 H 0.6096 0.0874 0.87645 0.0
H2110 H 0.7083 0.14785 0.87622 0.0
H2111 H 0.67786 0.12092 0.87809 0.0
H2112 H 0.66894 0.07763 0.84162 0.0
C2113 C 0.59614 0.03684 0.85146 0.0
C2114 C 0.62251 0.08506 0.86883 0.0
C2115 C 0.58078 0.01947 0.85344 0.0
C2116 C 0.70105 0.14115 0.86695 0.0
C2117 C 0.6835 0.12579 0.86802 0.0
C2118 C 0.65589 0.08013 0.84912 0.0
C2119 C 0.60603 0.0477 0.86267 0.0
C2120 C 0.62278 0.06577 0.86062 0.0
C2121 C 0.67384 0.11632 0.85628 0.0
C2122 C 0.65584 0.09926 0.85749 0.0
H2123 H 0.58082 0.01856 0.88824 0.0
H2124 H 0.60767 0.0487 0.88475 0.0
H2125 H 0.64039 0.04878 0.8443 0.0
H2126 H 0.70545 0.14271 0.83228 0.0
H2127 H 0.67465 0.11609 0.83418 0.0
C2128 C 0.79568 0.64914 0.83784 0.0
C2129 C 0.78203 0.66186 0.84656 0.0
C2130 C 0.81499 0.63868 0.84281 0.0
C2131 C 0.83441 0.61338 0.87421 0.0
H2132 H 0.88969 0.60415 0.85432 0.0
C2133 C 0.8967 0.54651 0.89212 0.0
C2134 C 0.90558 0.53278 0.88184 0.0
C2135 C 0.8862 0.56675 0.88883 0.0
C2136 C 0.87432 0.60646 0.85998 0.0
H2137 H 0.77871 0.67486 0.8671 0.0
H2138 H 0.81238 0.65639 0.87581 0.0
H2139 H 0.86287 0.63228 0.8464 0.0
H2140 H 0.91142 0.52999 0.8601 0.0
H2141 H 0.8924 0.56478 0.85427 0.0
H2142 H 0.8449 0.58681 0.88729 0.0
C2143 C 0.80806 0.65446 0.86515 0.0
C2144 C 0.85903 0.62266 0.85547 0.0
C2145 C 0.78886 0.66512 0.86014 0.0
C2146 C 0.90477 0.54025 0.86826 0.0
C2147 C 0.89395 0.56032 0.86493 0.0
C2148 C 0.84952 0.59704 0.87862 0.0
C2149 C 0.82093 0.64058 0.85663 0.0
C2150 C 0.83872 0.62596 0.86239 0.0
C2151 C 0.88396 0.57354 0.87514 0.0
C2152 C 0.86947 0.59299 0.87141 0.0
H2153 H 0.79092 0.64639 0.82731 0.0
H2154 H 0.82446 0.62798 0.83602 0.0
H2155 H 0.81874 0.61526 0.87963 0.0
H2156 H 0.89731 0.54131 0.9027 0.0
H2157 H 0.87924 0.57674 0.897 0.0
C2158 C 0.68269 0.66684 0.11418 0.0
C2159 C 0.69029 0.66307 0.12756 0.0
C2160 C 0.66291 0.65684 0.10956 0.0
C2161 C 0.61182 0.62608 0.12017 0.0
H2162 H 0.62337 0.59047 0.08791 0.0
C2163 C 0.56467 0.54426 0.10829 0.0
C2164 C 0.56337 0.53669 0.09476 0.0
C2165 C 0.57549 0.56442 0.11136 0.0
C2166 C 0.61944 0.60066 0.09671 0.0
H2167 H 0.68222 0.64738 0.1469 0.0
H2168 H 0.64769 0.63008 0.13886 0.0
H2169 H 0.65048 0.61825 0.09509 0.0
H2170 H 0.57049 0.54518 0.07372 0.0
H2171 H 0.58846 0.5808 0.07899 0.0
H2172 H 0.58091 0.60815 0.12194 0.0
C2173 C 0.657 0.6407 0.13193 0.0
C2174 C 0.63511 0.61661 0.10085 0.0
C2175 C 0.67687 0.6505 0.13651 0.0
C2176 C 0.57151 0.55047 0.08427 0.0
C2177 C 0.58198 0.57081 0.08731 0.0
C2178 C 0.59596 0.61026 0.11593 0.0
C2179 C 0.65024 0.6431 0.11827 0.0
C2180 C 0.63178 0.62906 0.11282 0.0
C2181 C 0.58495 0.57762 0.10094 0.0
C2182 C 0.59987 0.59687 0.10436 0.0
H2183 H 0.69263 0.67649 0.10705 0.0
H2184 H 0.65797 0.65914 0.09902 0.0
H2185 H 0.60874 0.6356 0.12938 0.0
H2186 H 0.55859 0.53395 0.11659 0.0
H2187 H 0.57758 0.5689 0.12198 0.0
C2188 C 0.68262 0.311 0.3577 0.0
C2189 C 0.69091 0.31502 0.34452 0.0
C2190 C 0.66314 0.32167 0.36218 0.0
C2191 C 0.61342 0.35423 0.35147 0.0
H2192 H 0.62466 0.38794 0.38455 0.0
C2193 C 0.56517 0.43475 0.36511 0.0
C2194 C 0.56371 0.44141 0.37881 0.0
C2195 C 0.57644 0.41505 0.36158 0.0
C2196 C 0.62082 0.37828 0.3755 0.0
H2197 H 0.68441 0.33206 0.32537 0.0
H2198 H 0.65029 0.35055 0.33318 0.0
H2199 H 0.65174 0.36038 0.377 0.0
H2200 H 0.57112 0.43178 0.39963 0.0
H2201 H 0.58982 0.39689 0.39357 0.0
H2202 H 0.58255 0.37231 0.3499 0.0
C2203 C 0.65889 0.3392 0.34004 0.0
C2204 C 0.63647 0.36249 0.37115 0.0
C2205 C 0.67849 0.3287 0.3356 0.0
C2206 C 0.57225 0.42719 0.38897 0.0
C2207 C 0.58314 0.40728 0.38547 0.0
C2208 C 0.59755 0.36985 0.35594 0.0
C2209 C 0.65144 0.33637 0.35352 0.0
C2210 C 0.63321 0.35068 0.35893 0.0
C2211 C 0.58619 0.40138 0.37169 0.0
C2212 C 0.60131 0.38251 0.36784 0.0
H2213 H 0.69175 0.30048 0.3648 0.0
H2214 H 0.65764 0.31904 0.37258 0.0
H2215 H 0.61042 0.3452 0.34207 0.0
H2216 H 0.5588 0.44543 0.35704 0.0
H2217 H 0.57857 0.4113 0.35086 0.0
C2218 C 0.91605 0.43476 0.61105 0.0
C2219 C 0.91327 0.44171 0.59745 0.0
C2220 C 0.90543 0.41536 0.61579 0.0
C2221 C 0.87455 0.36414 0.6053 0.0
H2222 H 0.83798 0.37714 0.63692 0.0
C2223 C 0.79229 0.31753 0.61701 0.0
C2224 C 0.78459 0.31655 0.63051 0.0
C2225 C 0.81243 0.32837 0.61393 0.0
C2226 C 0.84842 0.37283 0.62829 0.0
H2227 H 0.89864 0.4329 0.57792 0.0
H2228 H 0.88025 0.39907 0.58617 0.0
H2229 H 0.86619 0.40382 0.62976 0.0
H2230 H 0.79279 0.32433 0.65151 0.0
H2231 H 0.82832 0.34237 0.64624 0.0
H2232 H 0.85643 0.33328 0.60369 0.0
C2233 C 0.89058 0.40856 0.59318 0.0
C2234 C 0.86462 0.38824 0.62417 0.0
C2235 C 0.90102 0.42804 0.58847 0.0
C2236 C 0.79819 0.32509 0.64098 0.0
C2237 C 0.81848 0.3356 0.63793 0.0
C2238 C 0.85846 0.34855 0.60951 0.0
C2239 C 0.89203 0.40244 0.60699 0.0
C2240 C 0.87748 0.38435 0.61243 0.0
C2241 C 0.82544 0.33818 0.62432 0.0
C2242 C 0.84476 0.35298 0.62087 0.0
H2243 H 0.92543 0.4449 0.61821 0.0
H2244 H 0.90703 0.41091 0.62646 0.0
H2245 H 0.88438 0.36061 0.59628 0.0
H2246 H 0.78213 0.31114 0.60872 0.0
H2247 H 0.81705 0.33015 0.60331 0.0
C2248 C 0.07542 0.45068 0.12088 0.0
C2249 C 0.07074 0.4588 0.10772 0.0
C2250 C 0.09059 0.4331 0.12278 0.0
C2251 C 0.1188 0.38641 0.10506 0.0
H2252 H 0.16397 0.39373 0.13315 0.0
C2253 C 0.19833 0.33152 0.10765 0.0
C2254 C 0.20664 0.32551 0.12057 0.0
C2255 C 0.18041 0.34646 0.10643 0.0
C2256 C 0.15128 0.39121 0.12541 0.0
H2257 H 0.07794 0.4544 0.08619 0.0
H2258 H 0.10439 0.42377 0.08954 0.0
H2259 H 0.13486 0.42199 0.13046 0.0
H2260 H 0.20217 0.33002 0.14235 0.0
H2261 H 0.17069 0.35575 0.14022 0.0
H2262 H 0.13526 0.35567 0.09997 0.0
C2263 C 0.09624 0.43093 0.09838 0.0
C2264 C 0.1346 0.40744 0.12386 0.0
C2265 C 0.08117 0.44859 0.09648 0.0
C2266 C 0.1963 0.33441 0.13224 0.0
C2267 C 0.17832 0.34927 0.13102 0.0
C2268 C 0.13543 0.37011 0.10665 0.0
C2269 C 0.1013 0.42317 0.11156 0.0
C2270 C 0.1183 0.40532 0.1136 0.0
C2271 C 0.17031 0.35566 0.1181 0.0
C2272 C 0.15198 0.37242 0.11677 0.0
H2273 H 0.06765 0.45812 0.12976 0.0
H2274 H 0.09397 0.42729 0.13305 0.0
H2275 H 0.10628 0.38418 0.09718 0.0
H2276 H 0.20594 0.32503 0.09845 0.0
H2277 H 0.17487 0.35124 0.09632 0.0
C2278 C 0.39212 0.44703 0.8795 0.0
C2279 C 0.40168 0.45801 0.86823 0.0
C2280 C 0.37707 0.42938 0.8776 0.0
C2281 C 0.3373 0.40737 0.8524 0.0
H2282 H 0.33735 0.35454 0.87548 0.0
C2283 C 0.27499 0.33502 0.84386 0.0
C2284 C 0.26487 0.32598 0.85557 0.0
C2285 C 0.29316 0.34964 0.84502 0.0
C2286 C 0.33701 0.36928 0.86903 0.0
H2287 H 0.40339 0.45855 0.84612 0.0
H2288 H 0.37721 0.42771 0.84285 0.0
H2289 H 0.36663 0.38273 0.87825 0.0
H2290 H 0.26616 0.32497 0.87768 0.0
H2291 H 0.29759 0.35072 0.8797 0.0
H2292 H 0.3075 0.39423 0.84334 0.0
C2293 C 0.38117 0.43295 0.85314 0.0
C2294 C 0.35379 0.3854 0.87061 0.0
C2295 C 0.39626 0.45056 0.85503 0.0
C2296 C 0.27358 0.33159 0.86845 0.0
C2297 C 0.29171 0.34626 0.86961 0.0
C2298 C 0.3205 0.39131 0.85085 0.0
C2299 C 0.3712 0.42236 0.8644 0.0
C2300 C 0.35403 0.40469 0.86237 0.0
C2301 C 0.30158 0.35561 0.85792 0.0
C2302 C 0.32007 0.37214 0.8592 0.0
H2303 H 0.39593 0.45233 0.88981 0.0
H2304 H 0.3695 0.42169 0.88648 0.0
H2305 H 0.33681 0.42223 0.84605 0.0
H2306 H 0.2688 0.33094 0.83378 0.0
H2307 H 0.3006 0.35629 0.83581 0.0
C2308 C 0.39448 0.52107 0.61959 0.0
C2309 C 0.39989 0.51378 0.60637 0.0
C2310 C 0.37963 0.5389 0.62153 0.0
C2311 C 0.35395 0.5875 0.60404 0.0
H2312 H 0.30755 0.58079 0.63134 0.0
C2313 C 0.27622 0.64504 0.6063 0.0
C2314 C 0.26801 0.65108 0.6192 0.0
C2315 C 0.29362 0.62948 0.60508 0.0
C2316 C 0.3206 0.58311 0.62381 0.0
H2317 H 0.39417 0.5198 0.58481 0.0
H2318 H 0.36819 0.55075 0.58821 0.0
H2319 H 0.33565 0.55153 0.62866 0.0
H2320 H 0.2721 0.64597 0.64099 0.0
H2321 H 0.30259 0.61909 0.63886 0.0
H2322 H 0.33879 0.61902 0.59912 0.0
C2323 C 0.37559 0.54281 0.59707 0.0
C2324 C 0.3367 0.56631 0.62228 0.0
C2325 C 0.39038 0.52496 0.59514 0.0
C2326 C 0.27791 0.64159 0.63088 0.0
C2327 C 0.29532 0.62607 0.62966 0.0
C2328 C 0.33787 0.60433 0.60559 0.0
C2329 C 0.36992 0.54988 0.61029 0.0
C2330 C 0.35346 0.56824 0.61231 0.0
C2331 C 0.30322 0.61965 0.61675 0.0
C2332 C 0.3209 0.60225 0.61543 0.0
H2333 H 0.40156 0.51289 0.62848 0.0
H2334 H 0.37578 0.54413 0.63184 0.0
H2335 H 0.36685 0.58961 0.5964 0.0
H2336 H 0.26896 0.65199 0.59709 0.0
H2337 H 0.29912 0.62471 0.59498 0.0
C2338 C 0.08071 0.5278 0.37875 0.0
C2339 C 0.07053 0.51749 0.36744 0.0
C2340 C 0.09548 0.54573 0.37696 0.0
C2341 C 0.13346 0.57015 0.35162 0.0
H2342 H 0.13336 0.62152 0.37583 0.0
C2343 C 0.19472 0.64379 0.34414 0.0
C2344 C 0.20503 0.6522 0.35598 0.0
C2345 C 0.17667 0.62897 0.34509 0.0
C2346 C 0.13372 0.6072 0.36905 0.0
H2347 H 0.06758 0.51829 0.34538 0.0
H2348 H 0.09333 0.54957 0.34229 0.0
H2349 H 0.1048 0.59256 0.37839 0.0
H2350 H 0.20411 0.65193 0.3781 0.0
H2351 H 0.17294 0.62586 0.37975 0.0
H2352 H 0.16261 0.58444 0.34247 0.0
C2353 C 0.09001 0.54364 0.35253 0.0
C2354 C 0.11735 0.59064 0.37051 0.0
C2355 C 0.07517 0.52578 0.35432 0.0
C2356 C 0.19655 0.64583 0.36877 0.0
C2357 C 0.17856 0.63096 0.36972 0.0
C2358 C 0.14987 0.58665 0.3502 0.0
C2359 C 0.10047 0.55368 0.36382 0.0
C2360 C 0.11715 0.57185 0.36188 0.0
C2361 C 0.16855 0.62217 0.3579 0.0
C2362 C 0.15032 0.60529 0.35896 0.0
H2363 H 0.07751 0.52186 0.389 0.0
H2364 H 0.10345 0.55297 0.38585 0.0
H2365 H 0.13395 0.55571 0.34494 0.0
H2366 H 0.20074 0.64846 0.33412 0.0
H2367 H 0.16911 0.62278 0.33578 0.0
loop_
_geom_bond_atom_site_label_1
_geom_bond_atom_site_label_2
_geom_bond_distance
_geom_bond_site_symmetry_2
_ccdc_geom_bond_type
C0 O1 1.306 . S
C0 O3 1.160 . S
O1 C0 1.306 . S
O1 Cd2 2.228 . S
Cd2 O1 2.228 . S
Cd2 O6 2.273 . S
Cd2 O10 2.277 . S
O3 C0 1.160 . S
O3 Cd4 2.203 . S
Cd4 O3 2.203 . S
Cd4 O6 2.411 . S
Cd4 O7 2.333 . S
Cd4 O8 2.352 . S
Cd4 O12 2.277 . S
Cd4 O13 2.356 . S
C5 O10 1.209 . S
C5 O12 1.226 . S
O6 Cd2 2.273 . S
O6 Cd4 2.411 . S
O6 C9 1.320 . S
O7 Cd4 2.333 . S
O7 C9 1.214 . S
O8 Cd4 2.352 . S
O8 C11 1.258 . S
C9 O6 1.320 . S
C9 O7 1.214 . S
O10 Cd2 2.277 . S
O10 C5 1.209 . S
C11 O8 1.258 . S
C11 O13 1.282 . S
O12 Cd4 2.277 . S
O12 C5 1.226 . S
O13 Cd4 2.356 . S
O13 C11 1.282 . S
C14 O15 1.306 . S
C14 O17 1.160 . S
O15 C14 1.306 . S
O15 Cd16 2.228 . S
Cd16 O15 2.228 . S
Cd16 O20 2.273 . S
Cd16 O24 2.277 . S
O17 C14 1.160 . S
O17 Cd18 2.203 . S
Cd18 O17 2.203 . S
Cd18 O20 2.411 . S
Cd18 O21 2.333 . S
Cd18 O22 2.352 . S
Cd18 O26 2.277 . S
Cd18 O27 2.356 . S
C19 O24 1.209 . S
C19 O26 1.226 . S
O20 Cd16 2.273 . S
O20 Cd18 2.411 . S
O20 C23 1.320 . S
O21 Cd18 2.333 . S
O21 C23 1.214 . S
O22 Cd18 2.352 . S
O22 C25 1.258 . S
C23 O20 1.320 . S
C23 O21 1.214 . S
O24 Cd16 2.277 . S
O24 C19 1.209 . S
C25 O22 1.258 . S
C25 O27 1.282 . S
O26 Cd18 2.277 . S
O26 C19 1.226 . S
O27 Cd18 2.356 . S
O27 C25 1.282 . S
C28 O29 1.306 . S
C28 O31 1.160 . S
O29 C28 1.306 . S
O29 Cd30 2.228 . S
Cd30 O29 2.228 . S
Cd30 O34 2.273 . S
Cd30 O38 2.277 . S
O31 C28 1.160 . S
O31 Cd32 2.203 . S
Cd32 O31 2.203 . S
Cd32 O34 2.411 . S
Cd32 O35 2.333 . S
Cd32 O36 2.352 . S
Cd32 O40 2.277 . S
Cd32 O41 2.356 . S
C33 O38 1.209 . S
C33 O40 1.226 . S
O34 Cd30 2.273 . S
O34 Cd32 2.411 . S
O34 C37 1.320 . S
O35 Cd32 2.333 . S
O35 C37 1.214 . S
O36 Cd32 2.352 . S
O36 C39 1.258 . S
C37 O34 1.320 . S
C37 O35 1.214 . S
O38 Cd30 2.277 . S
O38 C33 1.209 . S
C39 O36 1.258 . S
C39 O41 1.282 . S
O40 Cd32 2.277 . S
O40 C33 1.226 . S
O41 Cd32 2.356 . S
O41 C39 1.282 . S
C42 O43 1.306 . S
C42 O45 1.160 . S
O43 C42 1.306 . S
O43 Cd44 2.228 . S
Cd44 O43 2.228 . S
Cd44 O48 2.273 . S
Cd44 O52 2.277 . S
O45 C42 1.160 . S
O45 Cd46 2.203 . S
Cd46 O45 2.203 . S
Cd46 O48 2.411 . S
Cd46 O49 2.333 . S
Cd46 O50 2.352 . S
Cd46 O54 2.277 . S
Cd46 O55 2.356 . S
C47 O52 1.209 . S
C47 O54 1.226 . S
O48 Cd44 2.273 . S
O48 Cd46 2.411 . S
O48 C51 1.320 . S
O49 Cd46 2.333 . S
O49 C51 1.214 . S
O50 Cd46 2.352 . S
O50 C53 1.258 . S
C51 O48 1.320 . S
C51 O49 1.214 . S
O52 Cd44 2.277 . S
O52 C47 1.209 . S
C53 O50 1.258 . S
C53 O55 1.282 . S
O54 Cd46 2.277 . S
O54 C47 1.226 . S
O55 Cd46 2.356 . S
O55 C53 1.282 . S
C56 O57 1.306 . S
C56 O59 1.160 . S
O57 C56 1.306 . S
O57 Cd58 2.228 . S
Cd58 O57 2.228 . S
Cd58 O62 2.273 . S
Cd58 O66 2.277 . S
O59 C56 1.160 . S
O59 Cd60 2.203 . S
Cd60 O59 2.203 . S
Cd60 O62 2.411 . S
Cd60 O63 2.333 . S
Cd60 O64 2.352 . S
Cd60 O68 2.277 . S
Cd60 O69 2.356 . S
C61 O66 1.209 . S
C61 O68 1.226 . S
O62 Cd58 2.273 . S
O62 Cd60 2.411 . S
O62 C65 1.320 . S
O63 Cd60 2.333 . S
O63 C65 1.214 . S
O64 Cd60 2.352 . S
O64 C67 1.258 . S
C65 O62 1.320 . S
C65 O63 1.214 . S
O66 Cd58 2.277 . S
O66 C61 1.209 . S
C67 O64 1.258 . S
C67 O69 1.282 . S
O68 Cd60 2.277 . S
O68 C61 1.226 . S
O69 Cd60 2.356 . S
O69 C67 1.282 . S
C70 O71 1.306 . S
C70 O73 1.160 . S
O71 C70 1.306 . S
O71 Cd72 2.228 . S
Cd72 O71 2.228 . S
Cd72 O76 2.273 . S
Cd72 O80 2.277 . S
O73 C70 1.160 . S
O73 Cd74 2.203 . S
Cd74 O73 2.203 . S
Cd74 O76 2.411 . S
Cd74 O77 2.333 . S
Cd74 O78 2.352 . S
Cd74 O82 2.277 . S
Cd74 O83 2.356 . S
C75 O80 1.209 . S
C75 O82 1.226 . S
O76 Cd72 2.273 . S
O76 Cd74 2.411 . S
O76 C79 1.320 . S
O77 Cd74 2.333 . S
O77 C79 1.214 . S
O78 Cd74 2.352 . S
O78 C81 1.258 . S
C79 O76 1.320 . S
C79 O77 1.214 . S
O80 Cd72 2.277 . S
O80 C75 1.209 . S
C81 O78 1.258 . S
C81 O83 1.282 . S
O82 Cd74 2.277 . S
O82 C75 1.226 . S
O83 Cd74 2.356 . S
O83 C81 1.282 . S
C84 O85 1.306 . S
C84 O87 1.160 . S
O85 C84 1.306 . S
O85 Cd86 2.228 . S
Cd86 O85 2.228 . S
Cd86 O90 2.273 . S
Cd86 O94 2.277 . S
O87 C84 1.160 . S
O87 Cd88 2.203 . S
Cd88 O87 2.203 . S
Cd88 O90 2.411 . S
Cd88 O91 2.333 . S
Cd88 O92 2.352 . S
Cd88 O96 2.277 . S
Cd88 O97 2.356 . S
C89 O94 1.209 . S
C89 O96 1.226 . S
O90 Cd86 2.273 . S
O90 Cd88 2.411 . S
O90 C93 1.320 . S
O91 Cd88 2.333 . S
O91 C93 1.214 . S
O92 Cd88 2.352 . S
O92 C95 1.258 . S
C93 O90 1.320 . S
C93 O91 1.214 . S
O94 Cd86 2.277 . S
O94 C89 1.209 . S
C95 O92 1.258 . S
C95 O97 1.282 . S
O96 Cd88 2.277 . S
O96 C89 1.226 . S
O97 Cd88 2.356 . S
O97 C95 1.282 . S
C98 O99 1.306 . S
C98 O101 1.160 . S
O99 C98 1.306 . S
O99 Cd100 2.228 . S
Cd100 O99 2.228 . S
Cd100 O104 2.273 . S
Cd100 O108 2.277 . S
O101 C98 1.160 . S
O101 Cd102 2.203 . S
Cd102 O101 2.203 . S
Cd102 O104 2.411 . S
Cd102 O105 2.333 . S
Cd102 O106 2.352 . S
Cd102 O110 2.277 . S
Cd102 O111 2.356 . S
C103 O108 1.209 . S
C103 O110 1.226 . S
O104 Cd100 2.273 . S
O104 Cd102 2.411 . S
O104 C107 1.320 . S
O105 Cd102 2.333 . S
O105 C107 1.214 . S
O106 Cd102 2.352 . S
O106 C109 1.258 . S
C107 O104 1.320 . S
C107 O105 1.214 . S
O108 Cd100 2.277 . S
O108 C103 1.209 . S
C109 O106 1.258 . S
C109 O111 1.282 . S
O110 Cd102 2.277 . S
O110 C103 1.226 . S
O111 Cd102 2.356 . S
O111 C109 1.282 . S
C112 O113 1.306 . S
C112 O115 1.160 . S
O113 C112 1.306 . S
O113 Cd114 2.228 . S
Cd114 O113 2.228 . S
Cd114 O118 2.273 . S
Cd114 O122 2.277 . S
O115 C112 1.160 . S
O115 Cd116 2.203 . S
Cd116 O115 2.203 . S
Cd116 O118 2.411 . S
Cd116 O119 2.333 . S
Cd116 O120 2.352 . S
Cd116 O124 2.277 . S
Cd116 O125 2.356 . S
C117 O122 1.209 . S
C117 O124 1.226 . S
O118 Cd114 2.273 . S
O118 Cd116 2.411 . S
O118 C121 1.320 . S
O119 Cd116 2.333 . S
O119 C121 1.214 . S
O120 Cd116 2.352 . S
O120 C123 1.258 . S
C121 O118 1.320 . S
C121 O119 1.214 . S
O122 Cd114 2.277 . S
O122 C117 1.209 . S
C123 O120 1.258 . S
C123 O125 1.282 . S
O124 Cd116 2.277 . S
O124 C117 1.226 . S
O125 Cd116 2.356 . S
O125 C123 1.282 . S
C126 O127 1.306 . S
C126 O129 1.160 . S
O127 C126 1.306 . S
O127 Cd128 2.228 . S
Cd128 O127 2.228 . S
Cd128 O132 2.273 . S
Cd128 O136 2.277 . S
O129 C126 1.160 . S
O129 Cd130 2.203 . S
Cd130 O129 2.203 . S
Cd130 O132 2.411 . S
Cd130 O133 2.333 . S
Cd130 O134 2.352 . S
Cd130 O138 2.277 . S
Cd130 O139 2.356 . S
C131 O136 1.209 . S
C131 O138 1.226 . S
O132 Cd128 2.273 . S
O132 Cd130 2.411 . S
O132 C135 1.320 . S
O133 Cd130 2.333 . S
O133 C135 1.214 . S
O134 Cd130 2.352 . S
O134 C137 1.258 . S
C135 O132 1.320 . S
C135 O133 1.214 . S
O136 Cd128 2.277 . S
O136 C131 1.209 . S
C137 O134 1.258 . S
C137 O139 1.282 . S
O138 Cd130 2.277 . S
O138 C131 1.226 . S
O139 Cd130 2.356 . S
O139 C137 1.282 . S
C140 O141 1.306 . S
C140 O143 1.160 . S
O141 C140 1.306 . S
O141 Cd142 2.228 . S
Cd142 O141 2.228 . S
Cd142 O146 2.273 . S
Cd142 O150 2.277 . S
O143 C140 1.160 . S
O143 Cd144 2.203 . S
Cd144 O143 2.203 . S
Cd144 O146 2.411 . S
Cd144 O147 2.333 . S
Cd144 O148 2.352 . S
Cd144 O152 2.277 . S
Cd144 O153 2.356 . S
C145 O150 1.209 . S
C145 O152 1.226 . S
O146 Cd142 2.273 . S
O146 Cd144 2.411 . S
O146 C149 1.320 . S
O147 Cd144 2.333 . S
O147 C149 1.214 . S
O148 Cd144 2.352 . S
O148 C151 1.258 . S
C149 O146 1.320 . S
C149 O147 1.214 . S
O150 Cd142 2.277 . S
O150 C145 1.209 . S
C151 O148 1.258 . S
C151 O153 1.282 . S
O152 Cd144 2.277 . S
O152 C145 1.226 . S
O153 Cd144 2.356 . S
O153 C151 1.282 . S
C154 O155 1.306 . S
C154 O157 1.160 . S
O155 C154 1.306 . S
O155 Cd156 2.228 . S
Cd156 O155 2.228 . S
Cd156 O160 2.273 . S
Cd156 O164 2.277 . S
O157 C154 1.160 . S
O157 Cd158 2.203 . S
Cd158 O157 2.203 . S
Cd158 O160 2.411 . S
Cd158 O161 2.333 . S
Cd158 O162 2.352 . S
Cd158 O166 2.277 . S
Cd158 O167 2.356 . S
C159 O164 1.209 . S
C159 O166 1.226 . S
O160 Cd156 2.273 . S
O160 Cd158 2.411 . S
O160 C163 1.320 . S
O161 Cd158 2.333 . S
O161 C163 1.214 . S
O162 Cd158 2.352 . S
O162 C165 1.258 . S
C163 O160 1.320 . S
C163 O161 1.214 . S
O164 Cd156 2.277 . S
O164 C159 1.209 . S
C165 O162 1.258 . S
C165 O167 1.282 . S
O166 Cd158 2.277 . S
O166 C159 1.226 . S
O167 Cd158 2.356 . S
O167 C165 1.282 . S
C168 O169 1.306 . S
C168 O171 1.160 . S
O169 C168 1.306 . S
O169 Cd170 2.228 . S
Cd170 O169 2.228 . S
Cd170 O174 2.273 . S
Cd170 O178 2.277 . S
O171 C168 1.160 . S
O171 Cd172 2.203 . S
Cd172 O171 2.203 . S
Cd172 O174 2.411 . S
Cd172 O175 2.333 . S
Cd172 O176 2.352 . S
Cd172 O180 2.277 . S
Cd172 O181 2.356 . S
C173 O178 1.209 . S
C173 O180 1.226 . S
O174 Cd170 2.273 . S
O174 Cd172 2.411 . S
O174 C177 1.320 . S
O175 Cd172 2.333 . S
O175 C177 1.214 . S
O176 Cd172 2.352 . S
O176 C179 1.258 . S
C177 O174 1.320 . S
C177 O175 1.214 . S
O178 Cd170 2.277 . S
O178 C173 1.209 . S
C179 O176 1.258 . S
C179 O181 1.282 . S
O180 Cd172 2.277 . S
O180 C173 1.226 . S
O181 Cd172 2.356 . S
O181 C179 1.282 . S
C182 O183 1.306 . S
C182 O185 1.160 . S
O183 C182 1.306 . S
O183 Cd184 2.228 . S
Cd184 O183 2.228 . S
Cd184 O188 2.273 . S
Cd184 O192 2.277 . S
O185 C182 1.160 . S
O185 Cd186 2.203 . S
Cd186 O185 2.203 . S
Cd186 O188 2.411 . S
Cd186 O189 2.333 . S
Cd186 O190 2.352 . S
Cd186 O194 2.277 . S
Cd186 O195 2.356 . S
C187 O192 1.209 . S
C187 O194 1.226 . S
O188 Cd184 2.273 . S
O188 Cd186 2.411 . S
O188 C191 1.320 . S
O189 Cd186 2.333 . S
O189 C191 1.214 . S
O190 Cd186 2.352 . S
O190 C193 1.258 . S
C191 O188 1.320 . S
C191 O189 1.214 . S
O192 Cd184 2.277 . S
O192 C187 1.209 . S
C193 O190 1.258 . S
C193 O195 1.282 . S
O194 Cd186 2.277 . S
O194 C187 1.226 . S
O195 Cd186 2.356 . S
O195 C193 1.282 . S
C196 O197 1.306 . S
C196 O199 1.160 . S
O197 C196 1.306 . S
O197 Cd198 2.228 . S
Cd198 O197 2.228 . S
Cd198 O202 2.273 . S
Cd198 O206 2.277 . S
O199 C196 1.160 . S
O199 Cd200 2.203 . S
Cd200 O199 2.203 . S
Cd200 O202 2.411 . S
Cd200 O203 2.333 . S
Cd200 O204 2.352 . S
Cd200 O208 2.277 . S
Cd200 O209 2.356 . S
C201 O206 1.209 . S
C201 O208 1.226 . S
O202 Cd198 2.273 . S
O202 Cd200 2.411 . S
O202 C205 1.320 . S
O203 Cd200 2.333 . S
O203 C205 1.214 . S
O204 Cd200 2.352 . S
O204 C207 1.258 . S
C205 O202 1.320 . S
C205 O203 1.214 . S
O206 Cd198 2.277 . S
O206 C201 1.209 . S
C207 O204 1.258 . S
C207 O209 1.282 . S
O208 Cd200 2.277 . S
O208 C201 1.226 . S
O209 Cd200 2.356 . S
O209 C207 1.282 . S
C210 O211 1.306 . S
C210 O213 1.160 . S
O211 C210 1.306 . S
O211 Cd212 2.228 . S
Cd212 O211 2.228 . S
Cd212 O216 2.273 . S
Cd212 O220 2.277 . S
O213 C210 1.160 . S
O213 Cd214 2.203 . S
Cd214 O213 2.203 . S
Cd214 O216 2.411 . S
Cd214 O217 2.333 . S
Cd214 O218 2.352 . S
Cd214 O222 2.277 . S
Cd214 O223 2.356 . S
C215 O220 1.209 . S
C215 O222 1.226 . S
O216 Cd212 2.273 . S
O216 Cd214 2.411 . S
O216 C219 1.320 . S
O217 Cd214 2.333 . S
O217 C219 1.214 . S
O218 Cd214 2.352 . S
O218 C221 1.258 . S
C219 O216 1.320 . S
C219 O217 1.214 . S
O220 Cd212 2.277 . S
O220 C215 1.209 . S
C221 O218 1.258 . S
C221 O223 1.282 . S
O222 Cd214 2.277 . S
O222 C215 1.226 . S
O223 Cd214 2.356 . S
O223 C221 1.282 . S
C224 O225 1.306 . S
C224 O227 1.160 . S
O225 C224 1.306 . S
O225 Cd226 2.228 . S
Cd226 O225 2.228 . S
Cd226 O230 2.273 . S
Cd226 O234 2.277 . S
O227 C224 1.160 . S
O227 Cd228 2.203 . S
Cd228 O227 2.203 . S
Cd228 O230 2.411 . S
Cd228 O231 2.333 . S
Cd228 O232 2.352 . S
Cd228 O236 2.277 . S
Cd228 O237 2.356 . S
C229 O234 1.209 . S
C229 O236 1.226 . S
O230 Cd226 2.273 . S
O230 Cd228 2.411 . S
O230 C233 1.320 . S
O231 Cd228 2.333 . S
O231 C233 1.214 . S
O232 Cd228 2.352 . S
O232 C235 1.258 . S
C233 O230 1.320 . S
C233 O231 1.214 . S
O234 Cd226 2.277 . S
O234 C229 1.209 . S
C235 O232 1.258 . S
C235 O237 1.282 . S
O236 Cd228 2.277 . S
O236 C229 1.226 . S
O237 Cd228 2.356 . S
O237 C235 1.282 . S
C238 O239 1.306 . S
C238 O241 1.160 . S
O239 C238 1.306 . S
O239 Cd240 2.228 . S
Cd240 O239 2.228 . S
Cd240 O244 2.273 . S
Cd240 O248 2.277 . S
O241 C238 1.160 . S
O241 Cd242 2.203 . S
Cd242 O241 2.203 . S
Cd242 O244 2.411 . S
Cd242 O245 2.333 . S
Cd242 O246 2.352 . S
Cd242 O250 2.277 . S
Cd242 O251 2.356 . S
C243 O248 1.209 . S
C243 O250 1.226 . S
O244 Cd240 2.273 . S
O244 Cd242 2.411 . S
O244 C247 1.320 . S
O245 Cd242 2.333 . S
O245 C247 1.214 . S
O246 Cd242 2.352 . S
O246 C249 1.258 . S
C247 O244 1.320 . S
C247 O245 1.214 . S
O248 Cd240 2.277 . S
O248 C243 1.209 . S
C249 O246 1.258 . S
C249 O251 1.282 . S
O250 Cd242 2.277 . S
O250 C243 1.226 . S
O251 Cd242 2.356 . S
O251 C249 1.282 . S
C252 O253 1.306 . S
C252 O255 1.160 . S
O253 C252 1.306 . S
O253 Cd254 2.228 . S
Cd254 O253 2.228 . S
Cd254 O258 2.273 . S
Cd254 O262 2.277 . S
O255 C252 1.160 . S
O255 Cd256 2.203 . S
Cd256 O255 2.203 . S
Cd256 O258 2.411 . S
Cd256 O259 2.333 . S
Cd256 O260 2.352 . S
Cd256 O264 2.277 . S
Cd256 O265 2.356 . S
C257 O262 1.209 . S
C257 O264 1.226 . S
O258 Cd254 2.273 . S
O258 Cd256 2.411 . S
O258 C261 1.320 . S
O259 Cd256 2.333 . S
O259 C261 1.214 . S
O260 Cd256 2.352 . S
O260 C263 1.258 . S
C261 O258 1.320 . S
C261 O259 1.214 . S
O262 Cd254 2.277 . S
O262 C257 1.209 . S
C263 O260 1.258 . S
C263 O265 1.282 . S
O264 Cd256 2.277 . S
O264 C257 1.226 . S
O265 Cd256 2.356 . S
O265 C263 1.282 . S
C266 O267 1.306 . S
C266 O269 1.160 . S
O267 C266 1.306 . S
O267 Cd268 2.228 . S
Cd268 O267 2.228 . S
Cd268 O272 2.273 . S
Cd268 O276 2.277 . S
O269 C266 1.160 . S
O269 Cd270 2.203 . S
Cd270 O269 2.203 . S
Cd270 O272 2.411 . S
Cd270 O273 2.333 . S
Cd270 O274 2.352 . S
Cd270 O278 2.277 . S
Cd270 O279 2.356 . S
C271 O276 1.209 . S
C271 O278 1.226 . S
O272 Cd268 2.273 . S
O272 Cd270 2.411 . S
O272 C275 1.320 . S
O273 Cd270 2.333 . S
O273 C275 1.214 . S
O274 Cd270 2.352 . S
O274 C277 1.258 . S
C275 O272 1.320 . S
C275 O273 1.214 . S
O276 Cd268 2.277 . S
O276 C271 1.209 . S
C277 O274 1.258 . S
C277 O279 1.282 . S
O278 Cd270 2.277 . S
O278 C271 1.226 . S
O279 Cd270 2.356 . S
O279 C277 1.282 . S
C280 O281 1.306 . S
C280 O283 1.160 . S
O281 C280 1.306 . S
O281 Cd282 2.228 . S
Cd282 O281 2.228 . S
Cd282 O286 2.273 . S
Cd282 O290 2.277 . S
O283 C280 1.160 . S
O283 Cd284 2.203 . S
Cd284 O283 2.203 . S
Cd284 O286 2.411 . S
Cd284 O287 2.333 . S
Cd284 O288 2.352 . S
Cd284 O292 2.277 . S
Cd284 O293 2.356 . S
C285 O290 1.209 . S
C285 O292 1.226 . S
O286 Cd282 2.273 . S
O286 Cd284 2.411 . S
O286 C289 1.320 . S
O287 Cd284 2.333 . S
O287 C289 1.214 . S
O288 Cd284 2.352 . S
O288 C291 1.258 . S
C289 O286 1.320 . S
C289 O287 1.214 . S
O290 Cd282 2.277 . S
O290 C285 1.209 . S
C291 O288 1.258 . S
C291 O293 1.282 . S
O292 Cd284 2.277 . S
O292 C285 1.226 . S
O293 Cd284 2.356 . S
O293 C291 1.282 . S
C294 O295 1.306 . S
C294 O297 1.160 . S
O295 C294 1.306 . S
O295 Cd296 2.228 . S
Cd296 O295 2.228 . S
Cd296 O300 2.273 . S
Cd296 O304 2.277 . S
O297 C294 1.160 . S
O297 Cd298 2.203 . S
Cd298 O297 2.203 . S
Cd298 O300 2.411 . S
Cd298 O301 2.333 . S
Cd298 O302 2.352 . S
Cd298 O306 2.277 . S
Cd298 O307 2.356 . S
C299 O304 1.209 . S
C299 O306 1.226 . S
O300 Cd296 2.273 . S
O300 Cd298 2.411 . S
O300 C303 1.320 . S
O301 Cd298 2.333 . S
O301 C303 1.214 . S
O302 Cd298 2.352 . S
O302 C305 1.258 . S
C303 O300 1.320 . S
C303 O301 1.214 . S
O304 Cd296 2.277 . S
O304 C299 1.209 . S
C305 O302 1.258 . S
C305 O307 1.282 . S
O306 Cd298 2.277 . S
O306 C299 1.226 . S
O307 Cd298 2.356 . S
O307 C305 1.282 . S
C308 O309 1.306 . S
C308 O311 1.160 . S
O309 C308 1.306 . S
O309 Cd310 2.228 . S
Cd310 O309 2.228 . S
Cd310 O314 2.273 . S
Cd310 O318 2.277 . S
O311 C308 1.160 . S
O311 Cd312 2.203 . S
Cd312 O311 2.203 . S
Cd312 O314 2.411 . S
Cd312 O315 2.333 . S
Cd312 O316 2.352 . S
Cd312 O320 2.277 . S
Cd312 O321 2.356 . S
C313 O318 1.209 . S
C313 O320 1.226 . S
O314 Cd310 2.273 . S
O314 Cd312 2.411 . S
O314 C317 1.320 . S
O315 Cd312 2.333 . S
O315 C317 1.214 . S
O316 Cd312 2.352 . S
O316 C319 1.258 . S
C317 O314 1.320 . S
C317 O315 1.214 . S
O318 Cd310 2.277 . S
O318 C313 1.209 . S
C319 O316 1.258 . S
C319 O321 1.282 . S
O320 Cd312 2.277 . S
O320 C313 1.226 . S
O321 Cd312 2.356 . S
O321 C319 1.282 . S
C322 O323 1.306 . S
C322 O325 1.160 . S
O323 C322 1.306 . S
O323 Cd324 2.228 . S
Cd324 O323 2.228 . S
Cd324 O328 2.273 . S
Cd324 O332 2.277 . S
O325 C322 1.160 . S
O325 Cd326 2.203 . S
Cd326 O325 2.203 . S
Cd326 O328 2.411 . S
Cd326 O329 2.333 . S
Cd326 O330 2.352 . S
Cd326 O334 2.277 . S
Cd326 O335 2.356 . S
C327 O332 1.209 . S
C327 O334 1.226 . S
O328 Cd324 2.273 . S
O328 Cd326 2.411 . S
O328 C331 1.320 . S
O329 Cd326 2.333 . S
O329 C331 1.214 . S
O330 Cd326 2.352 . S
O330 C333 1.258 . S
C331 O328 1.320 . S
C331 O329 1.214 . S
O332 Cd324 2.277 . S
O332 C327 1.209 . S
C333 O330 1.258 . S
C333 O335 1.282 . S
O334 Cd326 2.277 . S
O334 C327 1.226 . S
O335 Cd326 2.356 . S
O335 C333 1.282 . S
C336 O337 1.306 . S
C336 O339 1.160 . S
O337 C336 1.306 . S
O337 Cd338 2.228 . S
Cd338 O337 2.228 . S
Cd338 O342 2.273 . S
Cd338 O346 2.277 . S
O339 C336 1.160 . S
O339 Cd340 2.203 . S
Cd340 O339 2.203 . S
Cd340 O342 2.411 . S
Cd340 O343 2.333 . S
Cd340 O344 2.352 . S
Cd340 O348 2.277 . S
Cd340 O349 2.356 . S
C341 O346 1.209 . S
C341 O348 1.226 . S
O342 Cd338 2.273 . S
O342 Cd340 2.411 . S
O342 C345 1.320 . S
O343 Cd340 2.333 . S
O343 C345 1.214 . S
O344 Cd340 2.352 . S
O344 C347 1.258 . S
C345 O342 1.320 . S
C345 O343 1.214 . S
O346 Cd338 2.277 . S
O346 C341 1.209 . S
C347 O344 1.258 . S
C347 O349 1.282 . S
O348 Cd340 2.277 . S
O348 C341 1.226 . S
O349 Cd340 2.356 . S
O349 C347 1.282 . S
C350 O351 1.306 . S
C350 O353 1.160 . S
O351 C350 1.306 . S
O351 Cd352 2.228 . S
Cd352 O351 2.228 . S
Cd352 O356 2.273 . S
Cd352 O360 2.277 . S
O353 C350 1.160 . S
O353 Cd354 2.203 . S
Cd354 O353 2.203 . S
Cd354 O356 2.411 . S
Cd354 O357 2.333 . S
Cd354 O358 2.352 . S
Cd354 O362 2.277 . S
Cd354 O363 2.356 . S
C355 O360 1.209 . S
C355 O362 1.226 . S
O356 Cd352 2.273 . S
O356 Cd354 2.411 . S
O356 C359 1.320 . S
O357 Cd354 2.333 . S
O357 C359 1.214 . S
O358 Cd354 2.352 . S
O358 C361 1.258 . S
C359 O356 1.320 . S
C359 O357 1.214 . S
O360 Cd352 2.277 . S
O360 C355 1.209 . S
C361 O358 1.258 . S
C361 O363 1.282 . S
O362 Cd354 2.277 . S
O362 C355 1.226 . S
O363 Cd354 2.356 . S
O363 C361 1.282 . S
C364 O365 1.306 . S
C364 O367 1.160 . S
O365 C364 1.306 . S
O365 Cd366 2.228 . S
Cd366 O365 2.228 . S
Cd366 O370 2.273 . S
Cd366 O374 2.277 . S
O367 C364 1.160 . S
O367 Cd368 2.203 . S
Cd368 O367 2.203 . S
Cd368 O370 2.411 . S
Cd368 O371 2.333 . S
Cd368 O372 2.352 . S
Cd368 O376 2.277 . S
Cd368 O377 2.356 . S
C369 O374 1.209 . S
C369 O376 1.226 . S
O370 Cd366 2.273 . S
O370 Cd368 2.411 . S
O370 C373 1.320 . S
O371 Cd368 2.333 . S
O371 C373 1.214 . S
O372 Cd368 2.352 . S
O372 C375 1.258 . S
C373 O370 1.320 . S
C373 O371 1.214 . S
O374 Cd366 2.277 . S
O374 C369 1.209 . S
C375 O372 1.258 . S
C375 O377 1.282 . S
O376 Cd368 2.277 . S
O376 C369 1.226 . S
O377 Cd368 2.356 . S
O377 C375 1.282 . S
C378 O379 1.306 . S
C378 O381 1.160 . S
O379 C378 1.306 . S
O379 Cd380 2.228 . S
Cd380 O379 2.228 . S
Cd380 O384 2.273 . S
Cd380 O388 2.277 . S
O381 C378 1.160 . S
O381 Cd382 2.203 . S
Cd382 O381 2.203 . S
Cd382 O384 2.411 . S
Cd382 O385 2.333 . S
Cd382 O386 2.352 . S
Cd382 O390 2.277 . S
Cd382 O391 2.356 . S
C383 O388 1.209 . S
C383 O390 1.226 . S
O384 Cd380 2.273 . S
O384 Cd382 2.411 . S
O384 C387 1.320 . S
O385 Cd382 2.333 . S
O385 C387 1.214 . S
O386 Cd382 2.352 . S
O386 C389 1.258 . S
C387 O384 1.320 . S
C387 O385 1.214 . S
O388 Cd380 2.277 . S
O388 C383 1.209 . S
C389 O386 1.258 . S
C389 O391 1.282 . S
O390 Cd382 2.277 . S
O390 C383 1.226 . S
O391 Cd382 2.356 . S
O391 C389 1.282 . S
C392 O393 1.306 . S
C392 O395 1.160 . S
O393 C392 1.306 . S
O393 Cd394 2.228 . S
Cd394 O393 2.228 . S
Cd394 O398 2.273 . S
Cd394 O402 2.277 . S
O395 C392 1.160 . S
O395 Cd396 2.203 . S
Cd396 O395 2.203 . S
Cd396 O398 2.411 . S
Cd396 O399 2.333 . S
Cd396 O400 2.352 . S
Cd396 O404 2.277 . S
Cd396 O405 2.356 . S
C397 O402 1.209 . S
C397 O404 1.226 . S
O398 Cd394 2.273 . S
O398 Cd396 2.411 . S
O398 C401 1.320 . S
O399 Cd396 2.333 . S
O399 C401 1.214 . S
O400 Cd396 2.352 . S
O400 C403 1.258 . S
C401 O398 1.320 . S
C401 O399 1.214 . S
O402 Cd394 2.277 . S
O402 C397 1.209 . S
C403 O400 1.258 . S
C403 O405 1.282 . S
O404 Cd396 2.277 . S
O404 C397 1.226 . S
O405 Cd396 2.356 . S
O405 C403 1.282 . S
C406 O407 1.306 . S
C406 O409 1.160 . S
O407 C406 1.306 . S
O407 Cd408 2.228 . S
Cd408 O407 2.228 . S
Cd408 O412 2.273 . S
Cd408 O416 2.277 . S
O409 C406 1.160 . S
O409 Cd410 2.203 . S
Cd410 O409 2.203 . S
Cd410 O412 2.411 . S
Cd410 O413 2.333 . S
Cd410 O414 2.352 . S
Cd410 O418 2.277 . S
Cd410 O419 2.356 . S
C411 O416 1.209 . S
C411 O418 1.226 . S
O412 Cd408 2.273 . S
O412 Cd410 2.411 . S
O412 C415 1.320 . S
O413 Cd410 2.333 . S
O413 C415 1.214 . S
O414 Cd410 2.352 . S
O414 C417 1.258 . S
C415 O412 1.320 . S
C415 O413 1.214 . S
O416 Cd408 2.277 . S
O416 C411 1.209 . S
C417 O414 1.258 . S
C417 O419 1.282 . S
O418 Cd410 2.277 . S
O418 C411 1.226 . S
O419 Cd410 2.356 . S
O419 C417 1.282 . S
C420 O421 1.306 . S
C420 O423 1.160 . S
O421 C420 1.306 . S
O421 Cd422 2.228 . S
Cd422 O421 2.228 . S
Cd422 O426 2.273 . S
Cd422 O430 2.277 . S
O423 C420 1.160 . S
O423 Cd424 2.203 . S
Cd424 O423 2.203 . S
Cd424 O426 2.411 . S
Cd424 O427 2.333 . S
Cd424 O428 2.352 . S
Cd424 O432 2.277 . S
Cd424 O433 2.356 . S
C425 O430 1.209 . S
C425 O432 1.226 . S
O426 Cd422 2.273 . S
O426 Cd424 2.411 . S
O426 C429 1.320 . S
O427 Cd424 2.333 . S
O427 C429 1.214 . S
O428 Cd424 2.352 . S
O428 C431 1.258 . S
C429 O426 1.320 . S
C429 O427 1.214 . S
O430 Cd422 2.277 . S
O430 C425 1.209 . S
C431 O428 1.258 . S
C431 O433 1.282 . S
O432 Cd424 2.277 . S
O432 C425 1.226 . S
O433 Cd424 2.356 . S
O433 C431 1.282 . S
C434 O435 1.306 . S
C434 O437 1.160 . S
O435 C434 1.306 . S
O435 Cd436 2.228 . S
Cd436 O435 2.228 . S
Cd436 O440 2.273 . S
Cd436 O444 2.277 . S
O437 C434 1.160 . S
O437 Cd438 2.203 . S
Cd438 O437 2.203 . S
Cd438 O440 2.411 . S
Cd438 O441 2.333 . S
Cd438 O442 2.352 . S
Cd438 O446 2.277 . S
Cd438 O447 2.356 . S
C439 O444 1.209 . S
C439 O446 1.226 . S
O440 Cd436 2.273 . S
O440 Cd438 2.411 . S
O440 C443 1.320 . S
O441 Cd438 2.333 . S
O441 C443 1.214 . S
O442 Cd438 2.352 . S
O442 C445 1.258 . S
C443 O440 1.320 . S
C443 O441 1.214 . S
O444 Cd436 2.277 . S
O444 C439 1.209 . S
C445 O442 1.258 . S
C445 O447 1.282 . S
O446 Cd438 2.277 . S
O446 C439 1.226 . S
O447 Cd438 2.356 . S
O447 C445 1.282 . S
C448 C449 1.349 . S
C448 C450 1.327 . S
C448 H473 0.950 . S
C449 C448 1.349 . S
C449 C465 1.349 . S
C450 C448 1.327 . S
C450 C469 1.429 . S
C450 H474 0.950 . S
C451 C468 1.574 . S
C451 C470 1.368 . S
C451 H475 0.949 . S
H452 C456 0.949 . S
C453 C454 1.349 . S
C453 C455 1.327 . S
C453 H476 0.950 . S
C454 C453 1.349 . S
C454 C466 1.349 . S
C455 C453 1.327 . S
C455 C471 1.429 . S
C455 H477 0.950 . S
C456 H452 0.949 . S
C456 C464 1.574 . S
C456 C472 1.368 . S
H457 C465 0.950 . S
H458 C463 0.950 . S
H459 C464 0.949 . S
H460 C466 0.950 . S
H461 C467 0.950 . S
H462 C468 0.949 . S
C463 H458 0.950 . S
C463 C465 1.327 . S
C463 C469 1.429 . S
C464 C456 1.574 . S
C464 H459 0.949 . S
C464 C470 1.368 . S
C465 C449 1.349 . S
C465 H457 0.950 . S
C465 C463 1.327 . S
C466 C454 1.349 . S
C466 H460 0.950 . S
C466 C467 1.327 . S
C467 H461 0.950 . S
C467 C466 1.327 . S
C467 C471 1.429 . S
C468 C451 1.574 . S
C468 H462 0.949 . S
C468 C472 1.368 . S
C469 C450 1.429 . S
C469 C463 1.429 . S
C469 C470 1.523 . S
C470 C451 1.368 . S
C470 C464 1.368 . S
C470 C469 1.523 . S
C471 C455 1.429 . S
C471 C467 1.429 . S
C471 C472 1.523 . S
C472 C456 1.368 . S
C472 C468 1.368 . S
C472 C471 1.523 . S
H473 C448 0.950 . S
H474 C450 0.950 . S
H475 C451 0.949 . S
H476 C453 0.950 . S
H477 C455 0.950 . S
C478 C479 1.349 . S
C478 C480 1.327 . S
C478 H503 0.950 . S
C479 C478 1.349 . S
C479 C495 1.349 . S
C480 C478 1.327 . S
C480 C499 1.429 . S
C480 H504 0.950 . S
C481 C498 1.574 . S
C481 C500 1.368 . S
C481 H505 0.949 . S
H482 C486 0.949 . S
C483 C484 1.349 . S
C483 C485 1.327 . S
C483 H506 0.950 . S
C484 C483 1.349 . S
C484 C496 1.349 . S
C485 C483 1.327 . S
C485 C501 1.429 . S
C485 H507 0.950 . S
C486 H482 0.949 . S
C486 C494 1.574 . S
C486 C502 1.368 . S
H487 C495 0.950 . S
H488 C493 0.950 . S
H489 C494 0.949 . S
H490 C496 0.950 . S
H491 C497 0.950 . S
H492 C498 0.949 . S
C493 H488 0.950 . S
C493 C495 1.327 . S
C493 C499 1.429 . S
C494 C486 1.574 . S
C494 H489 0.949 . S
C494 C500 1.368 . S
C495 C479 1.349 . S
C495 H487 0.950 . S
C495 C493 1.327 . S
C496 C484 1.349 . S
C496 H490 0.950 . S
C496 C497 1.327 . S
C497 H491 0.950 . S
C497 C496 1.327 . S
C497 C501 1.429 . S
C498 C481 1.574 . S
C498 H492 0.949 . S
C498 C502 1.368 . S
C499 C480 1.429 . S
C499 C493 1.429 . S
C499 C500 1.523 . S
C500 C481 1.368 . S
C500 C494 1.368 . S
C500 C499 1.523 . S
C501 C485 1.429 . S
C501 C497 1.429 . S
C501 C502 1.523 . S
C502 C486 1.368 . S
C502 C498 1.368 . S
C502 C501 1.523 . S
H503 C478 0.950 . S
H504 C480 0.950 . S
H505 C481 0.949 . S
H506 C483 0.950 . S
H507 C485 0.950 . S
C508 C509 1.349 . S
C508 C510 1.327 . S
C508 H533 0.950 . S
C509 C508 1.349 . S
C509 C525 1.349 . S
C510 C508 1.327 . S
C510 C529 1.429 . S
C510 H534 0.950 . S
C511 C528 1.574 . S
C511 C530 1.368 . S
C511 H535 0.949 . S
H512 C516 0.949 . S
C513 C514 1.349 . S
C513 C515 1.327 . S
C513 H536 0.950 . S
C514 C513 1.349 . S
C514 C526 1.349 . S
C515 C513 1.327 . S
C515 C531 1.429 . S
C515 H537 0.950 . S
C516 H512 0.949 . S
C516 C524 1.574 . S
C516 C532 1.368 . S
H517 C525 0.950 . S
H518 C523 0.950 . S
H519 C524 0.949 . S
H520 C526 0.950 . S
H521 C527 0.950 . S
H522 C528 0.949 . S
C523 H518 0.950 . S
C523 C525 1.327 . S
C523 C529 1.429 . S
C524 C516 1.574 . S
C524 H519 0.949 . S
C524 C530 1.368 . S
C525 C509 1.349 . S
C525 H517 0.950 . S
C525 C523 1.327 . S
C526 C514 1.349 . S
C526 H520 0.950 . S
C526 C527 1.327 . S
C527 H521 0.950 . S
C527 C526 1.327 . S
C527 C531 1.429 . S
C528 C511 1.574 . S
C528 H522 0.949 . S
C528 C532 1.368 . S
C529 C510 1.429 . S
C529 C523 1.429 . S
C529 C530 1.523 . S
C530 C511 1.368 . S
C530 C524 1.368 . S
C530 C529 1.523 . S
C531 C515 1.429 . S
C531 C527 1.429 . S
C531 C532 1.523 . S
C532 C516 1.368 . S
C532 C528 1.368 . S
C532 C531 1.523 . S
H533 C508 0.950 . S
H534 C510 0.950 . S
H535 C511 0.949 . S
H536 C513 0.950 . S
H537 C515 0.950 . S
C538 C539 1.349 . S
C538 C540 1.327 . S
C538 H563 0.950 . S
C539 C538 1.349 . S
C539 C555 1.349 . S
C540 C538 1.327 . S
C540 C559 1.429 . S
C540 H564 0.950 . S
C541 C558 1.574 . S
C541 C560 1.368 . S
C541 H565 0.949 . S
H542 C546 0.949 . S
C543 C544 1.349 . S
C543 C545 1.327 . S
C543 H566 0.950 . S
C544 C543 1.349 . S
C544 C556 1.349 . S
C545 C543 1.327 . S
C545 C561 1.429 . S
C545 H567 0.950 . S
C546 H542 0.949 . S
C546 C554 1.574 . S
C546 C562 1.368 . S
H547 C555 0.950 . S
H548 C553 0.950 . S
H549 C554 0.949 . S
H550 C556 0.950 . S
H551 C557 0.950 . S
H552 C558 0.949 . S
C553 H548 0.950 . S
C553 C555 1.327 . S
C553 C559 1.429 . S
C554 C546 1.574 . S
C554 H549 0.949 . S
C554 C560 1.368 . S
C555 C539 1.349 . S
C555 H547 0.950 . S
C555 C553 1.327 . S
C556 C544 1.349 . S
C556 H550 0.950 . S
C556 C557 1.327 . S
C557 H551 0.950 . S
C557 C556 1.327 . S
C557 C561 1.429 . S
C558 C541 1.574 . S
C558 H552 0.949 . S
C558 C562 1.368 . S
C559 C540 1.429 . S
C559 C553 1.429 . S
C559 C560 1.523 . S
C560 C541 1.368 . S
C560 C554 1.368 . S
C560 C559 1.523 . S
C561 C545 1.429 . S
C561 C557 1.429 . S
C561 C562 1.523 . S
C562 C546 1.368 . S
C562 C558 1.368 . S
C562 C561 1.523 . S
H563 C538 0.950 . S
H564 C540 0.950 . S
H565 C541 0.949 . S
H566 C543 0.950 . S
H567 C545 0.950 . S
C568 C569 1.349 . S
C568 C570 1.327 . S
C568 H593 0.950 . S
C569 C568 1.349 . S
C569 C585 1.349 . S
C570 C568 1.327 . S
C570 C589 1.429 . S
C570 H594 0.950 . S
C571 C588 1.574 . S
C571 C590 1.368 . S
C571 H595 0.949 . S
H572 C576 0.949 . S
C573 C574 1.349 . S
C573 C575 1.327 . S
C573 H596 0.950 . S
C574 C573 1.349 . S
C574 C586 1.349 . S
C575 C573 1.327 . S
C575 C591 1.429 . S
C575 H597 0.950 . S
C576 H572 0.949 . S
C576 C584 1.574 . S
C576 C592 1.368 . S
H577 C585 0.950 . S
H578 C583 0.950 . S
H579 C584 0.949 . S
H580 C586 0.950 . S
H581 C587 0.950 . S
H582 C588 0.949 . S
C583 H578 0.950 . S
C583 C585 1.327 . S
C583 C589 1.429 . S
C584 C576 1.574 . S
C584 H579 0.949 . S
C584 C590 1.368 . S
C585 C569 1.349 . S
C585 H577 0.950 . S
C585 C583 1.327 . S
C586 C574 1.349 . S
C586 H580 0.950 . S
C586 C587 1.327 . S
C587 H581 0.950 . S
C587 C586 1.327 . S
C587 C591 1.429 . S
C588 C571 1.574 . S
C588 H582 0.949 . S
C588 C592 1.368 . S
C589 C570 1.429 . S
C589 C583 1.429 . S
C589 C590 1.523 . S
C590 C571 1.368 . S
C590 C584 1.368 . S
C590 C589 1.523 . S
C591 C575 1.429 . S
C591 C587 1.429 . S
C591 C592 1.523 . S
C592 C576 1.368 . S
C592 C588 1.368 . S
C592 C591 1.523 . S
H593 C568 0.950 . S
H594 C570 0.950 . S
H595 C571 0.949 . S
H596 C573 0.950 . S
H597 C575 0.950 . S
C598 C599 1.349 . S
C598 C600 1.327 . S
C598 H623 0.950 . S
C599 C598 1.349 . S
C599 C615 1.349 . S
C600 C598 1.327 . S
C600 C619 1.429 . S
C600 H624 0.950 . S
C601 C618 1.574 . S
C601 C620 1.368 . S
C601 H625 0.949 . S
H602 C606 0.949 . S
C603 C604 1.349 . S
C603 C605 1.327 . S
C603 H626 0.950 . S
C604 C603 1.349 . S
C604 C616 1.349 . S
C605 C603 1.327 . S
C605 C621 1.429 . S
C605 H627 0.950 . S
C606 H602 0.949 . S
C606 C614 1.574 . S
C606 C622 1.368 . S
H607 C615 0.950 . S
H608 C613 0.950 . S
H609 C614 0.949 . S
H610 C616 0.950 . S
H611 C617 0.950 . S
H612 C618 0.949 . S
C613 H608 0.950 . S
C613 C615 1.327 . S
C613 C619 1.429 . S
C614 C606 1.574 . S
C614 H609 0.949 . S
C614 C620 1.368 . S
C615 C599 1.349 . S
C615 H607 0.950 . S
C615 C613 1.327 . S
C616 C604 1.349 . S
C616 H610 0.950 . S
C616 C617 1.327 . S
C617 H611 0.950 . S
C617 C616 1.327 . S
C617 C621 1.429 . S
C618 C601 1.574 . S
C618 H612 0.949 . S
C618 C622 1.368 . S
C619 C600 1.429 . S
C619 C613 1.429 . S
C619 C620 1.523 . S
C620 C601 1.368 . S
C620 C614 1.368 . S
C620 C619 1.523 . S
C621 C605 1.429 . S
C621 C617 1.429 . S
C621 C622 1.523 . S
C622 C606 1.368 . S
C622 C618 1.368 . S
C622 C621 1.523 . S
H623 C598 0.950 . S
H624 C600 0.950 . S
H625 C601 0.949 . S
H626 C603 0.950 . S
H627 C605 0.950 . S
C628 C629 1.349 . S
C628 C630 1.327 . S
C628 H653 0.950 . S
C629 C628 1.349 . S
C629 C645 1.349 . S
C630 C628 1.327 . S
C630 C649 1.429 . S
C630 H654 0.950 . S
C631 C648 1.574 . S
C631 C650 1.368 . S
C631 H655 0.949 . S
H632 C636 0.949 . S
C633 C634 1.349 . S
C633 C635 1.327 . S
C633 H656 0.950 . S
C634 C633 1.349 . S
C634 C646 1.349 . S
C635 C633 1.327 . S
C635 C651 1.429 . S
C635 H657 0.950 . S
C636 H632 0.949 . S
C636 C644 1.574 . S
C636 C652 1.368 . S
H637 C645 0.950 . S
H638 C643 0.950 . S
H639 C644 0.949 . S
H640 C646 0.950 . S
H641 C647 0.950 . S
H642 C648 0.949 . S
C643 H638 0.950 . S
C643 C645 1.327 . S
C643 C649 1.429 . S
C644 C636 1.574 . S
C644 H639 0.949 . S
C644 C650 1.368 . S
C645 C629 1.349 . S
C645 H637 0.950 . S
C645 C643 1.327 . S
C646 C634 1.349 . S
C646 H640 0.950 . S
C646 C647 1.327 . S
C647 H641 0.950 . S
C647 C646 1.327 . S
C647 C651 1.429 . S
C648 C631 1.574 . S
C648 H642 0.949 . S
C648 C652 1.368 . S
C649 C630 1.429 . S
C649 C643 1.429 . S
C649 C650 1.523 . S
C650 C631 1.368 . S
C650 C644 1.368 . S
C650 C649 1.523 . S
C651 C635 1.429 . S
C651 C647 1.429 . S
C651 C652 1.523 . S
C652 C636 1.368 . S
C652 C648 1.368 . S
C652 C651 1.523 . S
H653 C628 0.950 . S
H654 C630 0.950 . S
H655 C631 0.949 . S
H656 C633 0.950 . S
H657 C635 0.950 . S
C658 C659 1.349 . S
C658 C660 1.327 . S
C658 H683 0.950 1_655 S
C659 C658 1.349 . S
C659 C675 1.349 . S
C660 C658 1.327 . S
C660 C679 1.429 . S
C660 H684 0.950 . S
C661 C678 1.574 . S
C661 C680 1.368 . S
C661 H685 0.949 . S
H662 C666 0.949 . S
C663 C664 1.349 . S
C663 C665 1.327 . S
C663 H686 0.950 . S
C664 C663 1.349 . S
C664 C676 1.349 . S
C665 C663 1.327 . S
C665 C681 1.429 . S
C665 H687 0.950 . S
C666 H662 0.949 . S
C666 C674 1.574 . S
C666 C682 1.368 . S
H667 C675 0.950 . S
H668 C673 0.950 . S
H669 C674 0.949 . S
H670 C676 0.950 . S
H671 C677 0.950 . S
H672 C678 0.949 . S
C673 H668 0.950 . S
C673 C675 1.327 . S
C673 C679 1.429 . S
C674 C666 1.574 . S
C674 H669 0.949 . S
C674 C680 1.368 . S
C675 C659 1.349 . S
C675 H667 0.950 . S
C675 C673 1.327 . S
C676 C664 1.349 . S
C676 H670 0.950 . S
C676 C677 1.327 . S
C677 H671 0.950 . S
C677 C676 1.327 . S
C677 C681 1.429 . S
C678 C661 1.574 . S
C678 H672 0.949 . S
C678 C682 1.368 . S
C679 C660 1.429 . S
C679 C673 1.429 . S
C679 C680 1.523 . S
C680 C661 1.368 . S
C680 C674 1.368 . S
C680 C679 1.523 . S
C681 C665 1.429 . S
C681 C677 1.429 . S
C681 C682 1.523 . S
C682 C666 1.368 . S
C682 C678 1.368 . S
C682 C681 1.523 . S
H683 C658 0.950 1_455 S
H684 C660 0.950 . S
H685 C661 0.949 . S
H686 C663 0.950 . S
H687 C665 0.950 . S
C688 C689 1.349 . S
C688 C690 1.327 . S
C688 H713 0.950 . S
C689 C688 1.349 . S
C689 C705 1.349 . S
C690 C688 1.327 . S
C690 C709 1.429 . S
C690 H714 0.950 . S
C691 C708 1.574 . S
C691 C710 1.368 . S
C691 H715 0.949 . S
H692 C696 0.949 . S
C693 C694 1.349 . S
C693 C695 1.327 . S
C693 H716 0.950 . S
C694 C693 1.349 . S
C694 C706 1.349 . S
C695 C693 1.327 . S
C695 C711 1.429 . S
C695 H717 0.950 . S
C696 H692 0.949 . S
C696 C704 1.574 . S
C696 C712 1.368 . S
H697 C705 0.950 . S
H698 C703 0.950 . S
H699 C704 0.949 . S
H700 C706 0.950 . S
H701 C707 0.950 . S
H702 C708 0.949 . S
C703 H698 0.950 . S
C703 C705 1.327 . S
C703 C709 1.429 . S
C704 C696 1.574 . S
C704 H699 0.949 . S
C704 C710 1.368 . S
C705 C689 1.349 . S
C705 H697 0.950 . S
C705 C703 1.327 . S
C706 C694 1.349 . S
C706 H700 0.950 . S
C706 C707 1.327 . S
C707 H701 0.950 . S
C707 C706 1.327 . S
C707 C711 1.429 . S
C708 C691 1.574 . S
C708 H702 0.949 . S
C708 C712 1.368 . S
C709 C690 1.429 . S
C709 C703 1.429 . S
C709 C710 1.523 . S
C710 C691 1.368 . S
C710 C704 1.368 . S
C710 C709 1.523 . S
C711 C695 1.429 . S
C711 C707 1.429 . S
C711 C712 1.523 . S
C712 C696 1.368 . S
C712 C708 1.368 . S
C712 C711 1.523 . S
H713 C688 0.950 . S
H714 C690 0.950 . S
H715 C691 0.949 . S
H716 C693 0.950 . S
H717 C695 0.950 . S
C718 C719 1.349 . S
C718 C720 1.327 . S
C718 H743 0.950 . S
C719 C718 1.349 . S
C719 C735 1.349 . S
C720 C718 1.327 . S
C720 C739 1.429 . S
C720 H744 0.950 . S
C721 C738 1.574 . S
C721 C740 1.368 . S
C721 H745 0.949 . S
H722 C726 0.949 . S
C723 C724 1.396 . S
C723 C725 1.327 . S
C723 H746 0.950 . S
C724 C723 1.396 . S
C724 C736 1.344 1_455 S
C725 C723 1.327 . S
C725 C741 1.429 . S
C725 H747 0.950 . S
C726 H722 0.949 . S
C726 C734 1.574 . S
C726 C742 1.368 . S
H727 C735 0.950 . S
H728 C733 0.950 . S
H729 C734 0.949 . S
H730 C736 0.950 . S
H731 C737 0.950 . S
H732 C738 0.949 . S
C733 H728 0.950 . S
C733 C735 1.327 . S
C733 C739 1.429 . S
C734 C726 1.574 . S
C734 H729 0.949 . S
C734 C740 1.368 . S
C735 C719 1.349 . S
C735 H727 0.950 . S
C735 C733 1.327 . S
C736 C724 1.344 1_655 S
C736 H730 0.950 . S
C736 C737 1.327 1_655 S
C737 H731 0.950 . S
C737 C736 1.327 1_455 S
C737 C741 1.429 . S
C738 C721 1.574 . S
C738 H732 0.949 . S
C738 C742 1.368 . S
C739 C720 1.429 . S
C739 C733 1.429 . S
C739 C740 1.523 . S
C740 C721 1.368 . S
C740 C734 1.368 . S
C740 C739 1.523 . S
C741 C725 1.429 . S
C741 C737 1.429 . S
C741 C742 1.523 . S
C742 C726 1.368 . S
C742 C738 1.368 . S
C742 C741 1.523 . S
H743 C718 0.950 . S
H744 C720 0.950 . S
H745 C721 0.949 . S
H746 C723 0.950 . S
H747 C725 0.950 . S
C748 C749 1.349 . S
C748 C750 1.327 . S
C748 H773 0.950 . S
C749 C748 1.349 . S
C749 C765 1.349 . S
C750 C748 1.327 . S
C750 C769 1.429 . S
C750 H774 0.950 . S
C751 C768 1.574 . S
C751 C770 1.368 . S
C751 H775 0.949 . S
H752 C756 0.949 . S
C753 C754 1.349 . S
C753 C755 1.327 . S
C753 H776 0.950 . S
C754 C753 1.349 . S
C754 C766 1.349 . S
C755 C753 1.327 . S
C755 C771 1.429 . S
C755 H777 0.950 . S
C756 H752 0.949 . S
C756 C764 1.574 . S
C756 C772 1.368 . S
H757 C765 0.950 . S
H758 C763 0.950 . S
H759 C764 0.949 . S
H760 C766 0.950 . S
H761 C767 0.950 . S
H762 C768 0.949 . S
C763 H758 0.950 . S
C763 C765 1.327 . S
C763 C769 1.429 . S
C764 C756 1.574 . S
C764 H759 0.949 . S
C764 C770 1.368 . S
C765 C749 1.349 . S
C765 H757 0.950 . S
C765 C763 1.327 . S
C766 C754 1.349 . S
C766 H760 0.950 . S
C766 C767 1.327 . S
C767 H761 0.950 . S
C767 C766 1.327 . S
C767 C771 1.429 . S
C768 C751 1.574 . S
C768 H762 0.949 . S
C768 C772 1.368 . S
C769 C750 1.429 . S
C769 C763 1.429 . S
C769 C770 1.523 . S
C770 C751 1.368 . S
C770 C764 1.368 . S
C770 C769 1.523 . S
C771 C755 1.429 . S
C771 C767 1.429 . S
C771 C772 1.523 . S
C772 C756 1.368 . S
C772 C768 1.368 . S
C772 C771 1.523 . S
H773 C748 0.950 . S
H774 C750 0.950 . S
H775 C751 0.949 . S
H776 C753 0.950 . S
H777 C755 0.950 . S
C778 C779 1.349 . S
C778 C780 1.327 . S
C778 H803 0.950 . S
C779 C778 1.349 . S
C779 C795 1.349 . S
C780 C778 1.327 . S
C780 C799 1.429 . S
C780 H804 0.950 . S
C781 C798 1.574 . S
C781 C800 1.368 . S
C781 H805 0.949 . S
H782 C786 0.949 . S
C783 C784 1.349 . S
C783 C785 1.327 . S
C783 H806 0.950 . S
C784 C783 1.349 . S
C784 C796 1.349 . S
C785 C783 1.327 . S
C785 C801 1.429 . S
C785 H807 0.950 . S
C786 H782 0.949 . S
C786 C794 1.574 . S
C786 C802 1.368 . S
H787 C795 0.950 . S
H788 C793 0.950 . S
H789 C794 0.949 . S
H790 C796 0.950 . S
H791 C797 0.950 . S
H792 C798 0.949 . S
C793 H788 0.950 . S
C793 C795 1.327 . S
C793 C799 1.429 . S
C794 C786 1.574 . S
C794 H789 0.949 . S
C794 C800 1.368 . S
C795 C779 1.349 . S
C795 H787 0.950 . S
C795 C793 1.327 . S
C796 C784 1.349 . S
C796 H790 0.950 . S
C796 C797 1.327 . S
C797 H791 0.950 . S
C797 C796 1.327 . S
C797 C801 1.429 . S
C798 C781 1.574 . S
C798 H792 0.949 . S
C798 C802 1.368 . S
C799 C780 1.429 . S
C799 C793 1.429 . S
C799 C800 1.523 . S
C800 C781 1.368 . S
C800 C794 1.368 . S
C800 C799 1.523 . S
C801 C785 1.429 . S
C801 C797 1.429 . S
C801 C802 1.523 . S
C802 C786 1.368 . S
C802 C798 1.368 . S
C802 C801 1.523 . S
H803 C778 0.950 . S
H804 C780 0.950 . S
H805 C781 0.949 . S
H806 C783 0.950 . S
H807 C785 0.950 . S
C808 C809 1.349 . S
C808 C810 1.327 . S
C808 H833 0.950 . S
C809 C808 1.349 . S
C809 C825 1.349 . S
C810 C808 1.327 . S
C810 C829 1.429 . S
C810 H834 0.950 . S
C811 C828 1.574 . S
C811 C830 1.368 . S
C811 H835 0.949 . S
H812 C816 0.949 . S
C813 C814 1.349 . S
C813 C815 1.327 . S
C813 H836 0.950 . S
C814 C813 1.349 . S
C814 C826 1.349 . S
C815 C813 1.327 . S
C815 C831 1.429 . S
C815 H837 0.950 . S
C816 H812 0.949 . S
C816 C824 1.574 . S
C816 C832 1.368 . S
H817 C825 0.950 . S
H818 C823 0.950 . S
H819 C824 0.949 . S
H820 C826 0.950 . S
H821 C827 0.950 . S
H822 C828 0.949 . S
C823 H818 0.950 . S
C823 C825 1.327 . S
C823 C829 1.429 . S
C824 C816 1.574 . S
C824 H819 0.949 . S
C824 C830 1.368 . S
C825 C809 1.349 . S
C825 H817 0.950 . S
C825 C823 1.327 . S
C826 C814 1.349 . S
C826 H820 0.950 . S
C826 C827 1.327 . S
C827 H821 0.950 . S
C827 C826 1.327 . S
C827 C831 1.429 . S
C828 C811 1.574 . S
C828 H822 0.949 . S
C828 C832 1.368 . S
C829 C810 1.429 . S
C829 C823 1.429 . S
C829 C830 1.523 . S
C830 C811 1.368 . S
C830 C824 1.368 . S
C830 C829 1.523 . S
C831 C815 1.429 . S
C831 C827 1.429 . S
C831 C832 1.523 . S
C832 C816 1.368 . S
C832 C828 1.368 . S
C832 C831 1.523 . S
H833 C808 0.950 . S
H834 C810 0.950 . S
H835 C811 0.949 . S
H836 C813 0.950 . S
H837 C815 0.950 . S
C838 C839 1.349 . S
C838 C840 1.327 . S
C838 H863 0.950 . S
C839 C838 1.349 . S
C839 C855 1.349 . S
C840 C838 1.327 . S
C840 C859 1.429 . S
C840 H864 0.950 . S
C841 C858 1.574 . S
C841 C860 1.368 . S
C841 H865 0.949 . S
H842 C846 0.949 . S
C843 C844 1.349 . S
C843 C845 1.327 . S
C843 H866 0.950 . S
C844 C843 1.349 . S
C844 C856 1.349 . S
C845 C843 1.327 . S
C845 C861 1.429 . S
C845 H867 0.950 . S
C846 H842 0.949 . S
C846 C854 1.574 . S
C846 C862 1.368 . S
H847 C855 0.950 . S
H848 C853 0.950 . S
H849 C854 0.949 . S
H850 C856 0.950 . S
H851 C857 0.950 . S
H852 C858 0.949 . S
C853 H848 0.950 . S
C853 C855 1.327 . S
C853 C859 1.429 . S
C854 C846 1.574 . S
C854 H849 0.949 . S
C854 C860 1.368 . S
C855 C839 1.349 . S
C855 H847 0.950 . S
C855 C853 1.327 . S
C856 C844 1.349 . S
C856 H850 0.950 . S
C856 C857 1.327 . S
C857 H851 0.950 . S
C857 C856 1.327 . S
C857 C861 1.429 . S
C858 C841 1.574 . S
C858 H852 0.949 . S
C858 C862 1.368 . S
C859 C840 1.429 . S
C859 C853 1.429 . S
C859 C860 1.523 . S
C860 C841 1.368 . S
C860 C854 1.368 . S
C860 C859 1.523 . S
C861 C845 1.429 . S
C861 C857 1.429 . S
C861 C862 1.523 . S
C862 C846 1.368 . S
C862 C858 1.368 . S
C862 C861 1.523 . S
H863 C838 0.950 . S
H864 C840 0.950 . S
H865 C841 0.949 . S
H866 C843 0.950 . S
H867 C845 0.950 . S
C868 C869 1.349 . S
C868 C870 1.327 . S
C868 H893 0.950 . S
C869 C868 1.349 . S
C869 C885 1.349 . S
C870 C868 1.327 . S
C870 C889 1.429 . S
C870 H894 0.950 . S
C871 C888 1.574 . S
C871 C890 1.368 . S
C871 H895 0.949 . S
H872 C876 0.949 . S
C873 C874 1.349 . S
C873 C875 1.327 . S
C873 H896 0.950 . S
C874 C873 1.349 . S
C874 C886 1.349 . S
C875 C873 1.327 . S
C875 C891 1.429 . S
C875 H897 0.950 . S
C876 H872 0.949 . S
C876 C884 1.574 . S
C876 C892 1.368 . S
H877 C885 0.950 . S
H878 C883 0.950 . S
H879 C884 0.949 . S
H880 C886 0.950 . S
H881 C887 0.950 . S
H882 C888 0.949 . S
C883 H878 0.950 . S
C883 C885 1.327 . S
C883 C889 1.429 . S
C884 C876 1.574 . S
C884 H879 0.949 . S
C884 C890 1.368 . S
C885 C869 1.349 . S
C885 H877 0.950 . S
C885 C883 1.327 . S
C886 C874 1.349 . S
C886 H880 0.950 . S
C886 C887 1.327 . S
C887 H881 0.950 . S
C887 C886 1.327 . S
C887 C891 1.429 . S
C888 C871 1.574 . S
C888 H882 0.949 . S
C888 C892 1.368 . S
C889 C870 1.429 . S
C889 C883 1.429 . S
C889 C890 1.523 . S
C890 C871 1.368 . S
C890 C884 1.368 . S
C890 C889 1.523 . S
C891 C875 1.429 . S
C891 C887 1.429 . S
C891 C892 1.523 . S
C892 C876 1.368 . S
C892 C888 1.368 . S
C892 C891 1.523 . S
H893 C868 0.950 . S
H894 C870 0.950 . S
H895 C871 0.949 . S
H896 C873 0.950 . S
H897 C875 0.950 . S
C898 C899 1.349 . S
C898 C900 1.327 . S
C898 H923 0.950 . S
C899 C898 1.349 . S
C899 C915 1.349 . S
C900 C898 1.327 . S
C900 C919 1.429 . S
C900 H924 0.950 . S
C901 C918 1.574 . S
C901 C920 1.368 . S
C901 H925 0.949 . S
H902 C906 0.949 . S
C903 C904 1.359 . S
C903 C905 1.327 . S
C903 H926 0.950 1_455 S
C904 C903 1.359 . S
C904 C916 1.382 . S
C905 C903 1.327 . S
C905 C921 1.429 . S
C905 H927 0.950 . S
C906 H902 0.949 . S
C906 C914 1.574 . S
C906 C922 1.368 . S
H907 C915 0.950 . S
H908 C913 0.950 . S
H909 C914 0.949 . S
H910 C916 0.950 . S
H911 C917 0.950 . S
H912 C918 0.949 . S
C913 H908 0.950 . S
C913 C915 1.327 . S
C913 C919 1.429 . S
C914 C906 1.574 . S
C914 H909 0.949 . S
C914 C920 1.368 . S
C915 C899 1.349 . S
C915 H907 0.950 . S
C915 C913 1.327 . S
C916 C904 1.382 . S
C916 H910 0.950 . S
C916 C917 1.327 . S
C917 H911 0.950 . S
C917 C916 1.327 . S
C917 C921 1.429 . S
C918 C901 1.574 . S
C918 H912 0.949 . S
C918 C922 1.368 . S
C919 C900 1.429 . S
C919 C913 1.429 . S
C919 C920 1.523 . S
C920 C901 1.368 . S
C920 C914 1.368 . S
C920 C919 1.523 . S
C921 C905 1.429 . S
C921 C917 1.429 . S
C921 C922 1.523 . S
C922 C906 1.368 . S
C922 C918 1.368 . S
C922 C921 1.523 . S
H923 C898 0.950 . S
H924 C900 0.950 . S
H925 C901 0.949 . S
H926 C903 0.950 1_655 S
H927 C905 0.950 . S
C928 C929 1.349 . S
C928 C930 1.327 . S
C928 H953 0.950 . S
C929 C928 1.349 . S
C929 C945 1.349 . S
C930 C928 1.327 . S
C930 C949 1.429 . S
C930 H954 0.950 . S
C931 C948 1.574 . S
C931 C950 1.368 . S
C931 H955 0.949 . S
H932 C936 0.949 . S
C933 C934 1.349 . S
C933 C935 1.327 . S
C933 H956 0.950 . S
C934 C933 1.349 . S
C934 C946 1.349 . S
C935 C933 1.327 . S
C935 C951 1.429 . S
C935 H957 0.950 . S
C936 H932 0.949 . S
C936 C944 1.574 . S
C936 C952 1.368 . S
H937 C945 0.950 . S
H938 C943 0.950 . S
H939 C944 0.949 . S
H940 C946 0.950 . S
H941 C947 0.950 . S
H942 C948 0.949 . S
C943 H938 0.950 . S
C943 C945 1.327 . S
C943 C949 1.429 . S
C944 C936 1.574 . S
C944 H939 0.949 . S
C944 C950 1.368 . S
C945 C929 1.349 . S
C945 H937 0.950 . S
C945 C943 1.327 . S
C946 C934 1.349 . S
C946 H940 0.950 . S
C946 C947 1.327 . S
C947 H941 0.950 . S
C947 C946 1.327 . S
C947 C951 1.429 . S
C948 C931 1.574 . S
C948 H942 0.949 . S
C948 C952 1.368 . S
C949 C930 1.429 . S
C949 C943 1.429 . S
C949 C950 1.523 . S
C950 C931 1.368 . S
C950 C944 1.368 . S
C950 C949 1.523 . S
C951 C935 1.429 . S
C951 C947 1.429 . S
C951 C952 1.523 . S
C952 C936 1.368 . S
C952 C948 1.368 . S
C952 C951 1.523 . S
H953 C928 0.950 . S
H954 C930 0.950 . S
H955 C931 0.949 . S
H956 C933 0.950 . S
H957 C935 0.950 . S
C958 C959 1.349 . S
C958 C960 1.327 . S
C958 H983 0.950 . S
C959 C958 1.349 . S
C959 C975 1.349 . S
C960 C958 1.327 . S
C960 C979 1.429 . S
C960 H984 0.950 . S
C961 C978 1.574 . S
C961 C980 1.368 . S
C961 H985 0.949 . S
H962 C966 0.949 . S
C963 C964 1.349 . S
C963 C965 1.327 . S
C963 H986 0.950 . S
C964 C963 1.349 . S
C964 C976 1.349 . S
C965 C963 1.327 . S
C965 C981 1.429 . S
C965 H987 0.950 . S
C966 H962 0.949 . S
C966 C974 1.574 . S
C966 C982 1.368 . S
H967 C975 0.950 . S
H968 C973 0.950 . S
H969 C974 0.949 . S
H970 C976 0.950 . S
H971 C977 0.950 . S
H972 C978 0.949 . S
C973 H968 0.950 . S
C973 C975 1.327 . S
C973 C979 1.429 . S
C974 C966 1.574 . S
C974 H969 0.949 . S
C974 C980 1.368 . S
C975 C959 1.349 . S
C975 H967 0.950 . S
C975 C973 1.327 . S
C976 C964 1.349 . S
C976 H970 0.950 . S
C976 C977 1.327 . S
C977 H971 0.950 . S
C977 C976 1.327 . S
C977 C981 1.429 . S
C978 C961 1.574 . S
C978 H972 0.949 . S
C978 C982 1.368 . S
C979 C960 1.429 . S
C979 C973 1.429 . S
C979 C980 1.523 . S
C980 C961 1.368 . S
C980 C974 1.368 . S
C980 C979 1.523 . S
C981 C965 1.429 . S
C981 C977 1.429 . S
C981 C982 1.523 . S
C982 C966 1.368 . S
C982 C978 1.368 . S
C982 C981 1.523 . S
H983 C958 0.950 . S
H984 C960 0.950 . S
H985 C961 0.949 . S
H986 C963 0.950 . S
H987 C965 0.950 . S
C988 C989 1.349 . S
C988 C990 1.327 . S
C988 H1013 0.950 . S
C989 C988 1.349 . S
C989 C1005 1.349 . S
C990 C988 1.327 . S
C990 C1009 1.429 . S
C990 H1014 0.950 . S
C991 C1008 1.574 . S
C991 C1010 1.368 . S
C991 H1015 0.949 . S
H992 C996 0.949 . S
C993 C994 1.349 . S
C993 C995 1.327 . S
C993 H1016 0.950 . S
C994 C993 1.349 . S
C994 C1006 1.349 . S
C995 C993 1.327 . S
C995 C1011 1.429 . S
C995 H1017 0.950 . S
C996 H992 0.949 . S
C996 C1004 1.574 . S
C996 C1012 1.368 . S
H997 C1005 0.950 . S
H998 C1003 0.950 . S
H999 C1004 0.949 . S
H1000 C1006 0.950 . S
H1001 C1007 0.950 . S
H1002 C1008 0.949 . S
C1003 H998 0.950 . S
C1003 C1005 1.327 . S
C1003 C1009 1.429 . S
C1004 C996 1.574 . S
C1004 H999 0.949 . S
C1004 C1010 1.368 . S
C1005 C989 1.349 . S
C1005 H997 0.950 . S
C1005 C1003 1.327 . S
C1006 C994 1.349 . S
C1006 H1000 0.950 . S
C1006 C1007 1.327 . S
C1007 H1001 0.950 . S
C1007 C1006 1.327 . S
C1007 C1011 1.429 . S
C1008 C991 1.574 . S
C1008 H1002 0.949 . S
C1008 C1012 1.368 . S
C1009 C990 1.429 . S
C1009 C1003 1.429 . S
C1009 C1010 1.523 . S
C1010 C991 1.368 . S
C1010 C1004 1.368 . S
C1010 C1009 1.523 . S
C1011 C995 1.429 . S
C1011 C1007 1.429 . S
C1011 C1012 1.523 . S
C1012 C996 1.368 . S
C1012 C1008 1.368 . S
C1012 C1011 1.523 . S
H1013 C988 0.950 . S
H1014 C990 0.950 . S
H1015 C991 0.949 . S
H1016 C993 0.950 . S
H1017 C995 0.950 . S
C1018 C1019 1.349 . S
C1018 C1020 1.327 . S
C1018 H1043 0.950 . S
C1019 C1018 1.349 . S
C1019 C1035 1.349 . S
C1020 C1018 1.327 . S
C1020 C1039 1.429 . S
C1020 H1044 0.950 . S
C1021 C1038 1.574 . S
C1021 C1040 1.368 . S
C1021 H1045 0.949 . S
H1022 C1026 0.949 . S
C1023 C1024 1.349 . S
C1023 C1025 1.327 . S
C1023 H1046 0.950 1_455 S
C1024 C1023 1.349 . S
C1024 C1036 1.349 . S
C1025 C1023 1.327 . S
C1025 C1041 1.429 . S
C1025 H1047 0.950 . S
C1026 H1022 0.949 . S
C1026 C1034 1.574 . S
C1026 C1042 1.368 . S
H1027 C1035 0.950 . S
H1028 C1033 0.950 . S
H1029 C1034 0.949 . S
H1030 C1036 0.950 . S
H1031 C1037 0.950 . S
H1032 C1038 0.949 . S
C1033 H1028 0.950 . S
C1033 C1035 1.327 . S
C1033 C1039 1.429 . S
C1034 C1026 1.574 . S
C1034 H1029 0.949 . S
C1034 C1040 1.368 . S
C1035 C1019 1.349 . S
C1035 H1027 0.950 . S
C1035 C1033 1.327 . S
C1036 C1024 1.349 . S
C1036 H1030 0.950 . S
C1036 C1037 1.327 . S
C1037 H1031 0.950 . S
C1037 C1036 1.327 . S
C1037 C1041 1.429 . S
C1038 C1021 1.574 . S
C1038 H1032 0.949 . S
C1038 C1042 1.368 . S
C1039 C1020 1.429 . S
C1039 C1033 1.429 . S
C1039 C1040 1.523 . S
C1040 C1021 1.368 . S
C1040 C1034 1.368 . S
C1040 C1039 1.523 . S
C1041 C1025 1.429 . S
C1041 C1037 1.429 . S
C1041 C1042 1.523 . S
C1042 C1026 1.368 . S
C1042 C1038 1.368 . S
C1042 C1041 1.523 . S
H1043 C1018 0.950 . S
H1044 C1020 0.950 . S
H1045 C1021 0.949 . S
H1046 C1023 0.950 1_655 S
H1047 C1025 0.950 . S
C1048 C1049 1.349 . S
C1048 C1050 1.327 . S
C1048 H1073 0.950 . S
C1049 C1048 1.349 . S
C1049 C1065 1.349 . S
C1050 C1048 1.327 . S
C1050 C1069 1.429 . S
C1050 H1074 0.950 . S
C1051 C1068 1.574 . S
C1051 C1070 1.368 . S
C1051 H1075 0.949 . S
H1052 C1056 0.949 . S
C1053 C1054 1.349 . S
C1053 C1055 1.327 . S
C1053 H1076 0.950 . S
C1054 C1053 1.349 . S
C1054 C1066 1.349 . S
C1055 C1053 1.327 . S
C1055 C1071 1.429 . S
C1055 H1077 0.950 . S
C1056 H1052 0.949 . S
C1056 C1064 1.574 . S
C1056 C1072 1.368 . S
H1057 C1065 0.950 . S
H1058 C1063 0.950 . S
H1059 C1064 0.949 . S
H1060 C1066 0.950 . S
H1061 C1067 0.950 . S
H1062 C1068 0.949 . S
C1063 H1058 0.950 . S
C1063 C1065 1.327 . S
C1063 C1069 1.429 . S
C1064 C1056 1.574 . S
C1064 H1059 0.949 . S
C1064 C1070 1.368 . S
C1065 C1049 1.349 . S
C1065 H1057 0.950 . S
C1065 C1063 1.327 . S
C1066 C1054 1.349 . S
C1066 H1060 0.950 . S
C1066 C1067 1.327 . S
C1067 H1061 0.950 . S
C1067 C1066 1.327 . S
C1067 C1071 1.429 . S
C1068 C1051 1.574 . S
C1068 H1062 0.949 . S
C1068 C1072 1.368 . S
C1069 C1050 1.429 . S
C1069 C1063 1.429 . S
C1069 C1070 1.523 . S
C1070 C1051 1.368 . S
C1070 C1064 1.368 . S
C1070 C1069 1.523 . S
C1071 C1055 1.429 . S
C1071 C1067 1.429 . S
C1071 C1072 1.523 . S
C1072 C1056 1.368 . S
C1072 C1068 1.368 . S
C1072 C1071 1.523 . S
H1073 C1048 0.950 . S
H1074 C1050 0.950 . S
H1075 C1051 0.949 . S
H1076 C1053 0.950 . S
H1077 C1055 0.950 . S
C1078 C1079 1.349 . S
C1078 C1080 1.327 . S
C1078 H1103 0.950 . S
C1079 C1078 1.349 . S
C1079 C1095 1.349 . S
C1080 C1078 1.327 . S
C1080 C1099 1.429 . S
C1080 H1104 0.950 . S
C1081 C1098 1.574 . S
C1081 C1100 1.368 . S
C1081 H1105 0.949 . S
H1082 C1086 0.949 . S
C1083 C1084 1.349 . S
C1083 C1085 1.327 . S
C1083 H1106 0.950 . S
C1084 C1083 1.349 . S
C1084 C1096 1.349 . S
C1085 C1083 1.327 . S
C1085 C1101 1.429 . S
C1085 H1107 0.950 . S
C1086 H1082 0.949 . S
C1086 C1094 1.574 . S
C1086 C1102 1.368 . S
H1087 C1095 0.950 . S
H1088 C1093 0.950 . S
H1089 C1094 0.949 . S
H1090 C1096 0.950 . S
H1091 C1097 0.950 . S
H1092 C1098 0.949 . S
C1093 H1088 0.950 . S
C1093 C1095 1.327 . S
C1093 C1099 1.429 . S
C1094 C1086 1.574 . S
C1094 H1089 0.949 . S
C1094 C1100 1.368 . S
C1095 C1079 1.349 . S
C1095 H1087 0.950 . S
C1095 C1093 1.327 . S
C1096 C1084 1.349 . S
C1096 H1090 0.950 . S
C1096 C1097 1.327 . S
C1097 H1091 0.950 . S
C1097 C1096 1.327 . S
C1097 C1101 1.429 . S
C1098 C1081 1.574 . S
C1098 H1092 0.949 . S
C1098 C1102 1.368 . S
C1099 C1080 1.429 . S
C1099 C1093 1.429 . S
C1099 C1100 1.523 . S
C1100 C1081 1.368 . S
C1100 C1094 1.368 . S
C1100 C1099 1.523 . S
C1101 C1085 1.429 . S
C1101 C1097 1.429 . S
C1101 C1102 1.523 . S
C1102 C1086 1.368 . S
C1102 C1098 1.368 . S
C1102 C1101 1.523 . S
H1103 C1078 0.950 . S
H1104 C1080 0.950 . S
H1105 C1081 0.949 . S
H1106 C1083 0.950 . S
H1107 C1085 0.950 . S
C1108 C1109 1.349 . S
C1108 C1110 1.327 . S
C1108 H1133 0.950 . S
C1109 C1108 1.349 . S
C1109 C1125 1.349 . S
C1110 C1108 1.327 . S
C1110 C1129 1.429 . S
C1110 H1134 0.950 . S
C1111 C1128 1.574 . S
C1111 C1130 1.368 . S
C1111 H1135 0.949 . S
H1112 C1116 0.949 . S
C1113 C1114 1.349 . S
C1113 C1115 1.327 . S
C1113 H1136 0.950 . S
C1114 C1113 1.349 . S
C1114 C1126 1.349 . S
C1115 C1113 1.327 . S
C1115 C1131 1.429 . S
C1115 H1137 0.950 . S
C1116 H1112 0.949 . S
C1116 C1124 1.574 . S
C1116 C1132 1.368 . S
H1117 C1125 0.950 . S
H1118 C1123 0.950 . S
H1119 C1124 0.949 . S
H1120 C1126 0.950 . S
H1121 C1127 0.950 . S
H1122 C1128 0.949 . S
C1123 H1118 0.950 . S
C1123 C1125 1.327 . S
C1123 C1129 1.429 . S
C1124 C1116 1.574 . S
C1124 H1119 0.949 . S
C1124 C1130 1.368 . S
C1125 C1109 1.349 . S
C1125 H1117 0.950 . S
C1125 C1123 1.327 . S
C1126 C1114 1.349 . S
C1126 H1120 0.950 . S
C1126 C1127 1.327 . S
C1127 H1121 0.950 . S
C1127 C1126 1.327 . S
C1127 C1131 1.429 . S
C1128 C1111 1.574 . S
C1128 H1122 0.949 . S
C1128 C1132 1.368 . S
C1129 C1110 1.429 . S
C1129 C1123 1.429 . S
C1129 C1130 1.523 . S
C1130 C1111 1.368 . S
C1130 C1124 1.368 . S
C1130 C1129 1.523 . S
C1131 C1115 1.429 . S
C1131 C1127 1.429 . S
C1131 C1132 1.523 . S
C1132 C1116 1.368 . S
C1132 C1128 1.368 . S
C1132 C1131 1.523 . S
H1133 C1108 0.950 . S
H1134 C1110 0.950 . S
H1135 C1111 0.949 . S
H1136 C1113 0.950 . S
H1137 C1115 0.950 . S
C1138 C1139 1.349 . S
C1138 C1140 1.327 . S
C1138 H1163 0.950 . S
C1139 C1138 1.349 . S
C1139 C1155 1.349 . S
C1140 C1138 1.327 . S
C1140 C1159 1.429 . S
C1140 H1164 0.950 . S
C1141 C1158 1.574 . S
C1141 C1160 1.368 . S
C1141 H1165 0.949 . S
H1142 C1146 0.949 . S
C1143 C1144 1.349 . S
C1143 C1145 1.327 . S
C1143 H1166 0.950 . S
C1144 C1143 1.349 . S
C1144 C1156 1.349 . S
C1145 C1143 1.327 . S
C1145 C1161 1.429 . S
C1145 H1167 0.950 . S
C1146 H1142 0.949 . S
C1146 C1154 1.574 . S
C1146 C1162 1.368 . S
H1147 C1155 0.950 . S
H1148 C1153 0.950 . S
H1149 C1154 0.949 . S
H1150 C1156 0.950 . S
H1151 C1157 0.950 . S
H1152 C1158 0.949 . S
C1153 H1148 0.950 . S
C1153 C1155 1.327 . S
C1153 C1159 1.429 . S
C1154 C1146 1.574 . S
C1154 H1149 0.949 . S
C1154 C1160 1.368 . S
C1155 C1139 1.349 . S
C1155 H1147 0.950 . S
C1155 C1153 1.327 . S
C1156 C1144 1.349 . S
C1156 H1150 0.950 . S
C1156 C1157 1.327 . S
C1157 H1151 0.950 . S
C1157 C1156 1.327 . S
C1157 C1161 1.429 . S
C1158 C1141 1.574 . S
C1158 H1152 0.949 . S
C1158 C1162 1.368 . S
C1159 C1140 1.429 . S
C1159 C1153 1.429 . S
C1159 C1160 1.523 . S
C1160 C1141 1.368 . S
C1160 C1154 1.368 . S
C1160 C1159 1.523 . S
C1161 C1145 1.429 . S
C1161 C1157 1.429 . S
C1161 C1162 1.523 . S
C1162 C1146 1.368 . S
C1162 C1158 1.368 . S
C1162 C1161 1.523 . S
H1163 C1138 0.950 . S
H1164 C1140 0.950 . S
H1165 C1141 0.949 . S
H1166 C1143 0.950 . S
H1167 C1145 0.950 . S
C1168 C1169 1.349 . S
C1168 C1170 1.327 . S
C1168 H1193 0.950 . S
C1169 C1168 1.349 . S
C1169 C1185 1.349 . S
C1170 C1168 1.327 . S
C1170 C1189 1.429 . S
C1170 H1194 0.950 . S
C1171 C1188 1.574 . S
C1171 C1190 1.368 . S
C1171 H1195 0.949 . S
H1172 C1176 0.949 . S
C1173 C1174 1.349 . S
C1173 C1175 1.327 . S
C1173 H1196 0.950 . S
C1174 C1173 1.349 . S
C1174 C1186 1.349 . S
C1175 C1173 1.327 . S
C1175 C1191 1.429 . S
C1175 H1197 0.950 . S
C1176 H1172 0.949 . S
C1176 C1184 1.574 . S
C1176 C1192 1.368 . S
H1177 C1185 0.950 . S
H1178 C1183 0.950 . S
H1179 C1184 0.949 . S
H1180 C1186 0.950 . S
H1181 C1187 0.950 . S
H1182 C1188 0.949 . S
C1183 H1178 0.950 . S
C1183 C1185 1.327 . S
C1183 C1189 1.429 . S
C1184 C1176 1.574 . S
C1184 H1179 0.949 . S
C1184 C1190 1.368 . S
C1185 C1169 1.349 . S
C1185 H1177 0.950 . S
C1185 C1183 1.327 . S
C1186 C1174 1.349 . S
C1186 H1180 0.950 . S
C1186 C1187 1.327 . S
C1187 H1181 0.950 . S
C1187 C1186 1.327 . S
C1187 C1191 1.429 . S
C1188 C1171 1.574 . S
C1188 H1182 0.949 . S
C1188 C1192 1.368 . S
C1189 C1170 1.429 . S
C1189 C1183 1.429 . S
C1189 C1190 1.523 . S
C1190 C1171 1.368 . S
C1190 C1184 1.368 . S
C1190 C1189 1.523 . S
C1191 C1175 1.429 . S
C1191 C1187 1.429 . S
C1191 C1192 1.523 . S
C1192 C1176 1.368 . S
C1192 C1188 1.368 . S
C1192 C1191 1.523 . S
H1193 C1168 0.950 . S
H1194 C1170 0.950 . S
H1195 C1171 0.949 . S
H1196 C1173 0.950 . S
H1197 C1175 0.950 . S
C1198 C1199 1.349 . S
C1198 C1200 1.327 . S
C1198 H1223 0.950 . S
C1199 C1198 1.349 . S
C1199 C1215 1.349 . S
C1200 C1198 1.327 . S
C1200 C1219 1.429 . S
C1200 H1224 0.950 . S
C1201 C1218 1.574 . S
C1201 C1220 1.368 . S
C1201 H1225 0.949 . S
H1202 C1206 0.949 . S
C1203 C1204 1.349 . S
C1203 C1205 1.327 . S
C1203 H1226 0.950 . S
C1204 C1203 1.349 . S
C1204 C1216 1.349 . S
C1205 C1203 1.327 . S
C1205 C1221 1.429 . S
C1205 H1227 0.950 . S
C1206 H1202 0.949 . S
C1206 C1214 1.574 . S
C1206 C1222 1.368 . S
H1207 C1215 0.950 . S
H1208 C1213 0.950 . S
H1209 C1214 0.949 . S
H1210 C1216 0.950 . S
H1211 C1217 0.950 . S
H1212 C1218 0.949 . S
C1213 H1208 0.950 . S
C1213 C1215 1.327 . S
C1213 C1219 1.429 . S
C1214 C1206 1.574 . S
C1214 H1209 0.949 . S
C1214 C1220 1.368 . S
C1215 C1199 1.349 . S
C1215 H1207 0.950 . S
C1215 C1213 1.327 . S
C1216 C1204 1.349 . S
C1216 H1210 0.950 . S
C1216 C1217 1.327 . S
C1217 H1211 0.950 . S
C1217 C1216 1.327 . S
C1217 C1221 1.429 . S
C1218 C1201 1.574 . S
C1218 H1212 0.949 . S
C1218 C1222 1.368 . S
C1219 C1200 1.429 . S
C1219 C1213 1.429 . S
C1219 C1220 1.523 . S
C1220 C1201 1.368 . S
C1220 C1214 1.368 . S
C1220 C1219 1.523 . S
C1221 C1205 1.429 . S
C1221 C1217 1.429 . S
C1221 C1222 1.523 . S
C1222 C1206 1.368 . S
C1222 C1218 1.368 . S
C1222 C1221 1.523 . S
H1223 C1198 0.950 . S
H1224 C1200 0.950 . S
H1225 C1201 0.949 . S
H1226 C1203 0.950 . S
H1227 C1205 0.950 . S
C1228 C1229 1.349 . S
C1228 C1230 1.327 . S
C1228 H1253 0.950 . S
C1229 C1228 1.349 . S
C1229 C1245 1.349 . S
C1230 C1228 1.327 . S
C1230 C1249 1.429 . S
C1230 H1254 0.950 . S
C1231 C1248 1.574 . S
C1231 C1250 1.368 . S
C1231 H1255 0.949 . S
H1232 C1236 0.949 . S
C1233 C1234 1.349 . S
C1233 C1235 1.327 . S
C1233 H1256 0.950 . S
C1234 C1233 1.349 . S
C1234 C1246 1.349 . S
C1235 C1233 1.327 . S
C1235 C1251 1.429 . S
C1235 H1257 0.950 . S
C1236 H1232 0.949 . S
C1236 C1244 1.574 . S
C1236 C1252 1.368 . S
H1237 C1245 0.950 . S
H1238 C1243 0.950 . S
H1239 C1244 0.949 . S
H1240 C1246 0.950 . S
H1241 C1247 0.950 . S
H1242 C1248 0.949 . S
C1243 H1238 0.950 . S
C1243 C1245 1.327 . S
C1243 C1249 1.429 . S
C1244 C1236 1.574 . S
C1244 H1239 0.949 . S
C1244 C1250 1.368 . S
C1245 C1229 1.349 . S
C1245 H1237 0.950 . S
C1245 C1243 1.327 . S
C1246 C1234 1.349 . S
C1246 H1240 0.950 . S
C1246 C1247 1.327 . S
C1247 H1241 0.950 . S
C1247 C1246 1.327 . S
C1247 C1251 1.429 . S
C1248 C1231 1.574 . S
C1248 H1242 0.949 . S
C1248 C1252 1.368 . S
C1249 C1230 1.429 . S
C1249 C1243 1.429 . S
C1249 C1250 1.523 . S
C1250 C1231 1.368 . S
C1250 C1244 1.368 . S
C1250 C1249 1.523 . S
C1251 C1235 1.429 . S
C1251 C1247 1.429 . S
C1251 C1252 1.523 . S
C1252 C1236 1.368 . S
C1252 C1248 1.368 . S
C1252 C1251 1.523 . S
H1253 C1228 0.950 . S
H1254 C1230 0.950 . S
H1255 C1231 0.949 . S
H1256 C1233 0.950 . S
H1257 C1235 0.950 . S
C1258 C1259 1.353 . S
C1258 C1260 1.327 . S
C1258 H1283 0.950 1_655 S
C1259 C1258 1.353 . S
C1259 C1275 1.389 . S
C1260 C1258 1.327 . S
C1260 C1279 1.429 . S
C1260 H1284 0.950 . S
C1261 C1278 1.574 . S
C1261 C1280 1.368 . S
C1261 H1285 0.949 . S
H1262 C1266 0.949 . S
C1263 C1264 1.349 . S
C1263 C1265 1.327 . S
C1263 H1286 0.950 . S
C1264 C1263 1.349 . S
C1264 C1276 1.349 . S
C1265 C1263 1.327 . S
C1265 C1281 1.429 . S
C1265 H1287 0.950 . S
C1266 H1262 0.949 . S
C1266 C1274 1.574 . S
C1266 C1282 1.368 . S
H1267 C1275 0.950 . S
H1268 C1273 0.950 . S
H1269 C1274 0.949 . S
H1270 C1276 0.950 . S
H1271 C1277 0.950 . S
H1272 C1278 0.949 . S
C1273 H1268 0.950 . S
C1273 C1275 1.327 . S
C1273 C1279 1.429 . S
C1274 C1266 1.574 . S
C1274 H1269 0.949 . S
C1274 C1280 1.368 . S
C1275 C1259 1.389 . S
C1275 H1267 0.950 . S
C1275 C1273 1.327 . S
C1276 C1264 1.349 . S
C1276 H1270 0.950 . S
C1276 C1277 1.327 . S
C1277 H1271 0.950 . S
C1277 C1276 1.327 . S
C1277 C1281 1.429 . S
C1278 C1261 1.574 . S
C1278 H1272 0.949 . S
C1278 C1282 1.368 . S
C1279 C1260 1.429 . S
C1279 C1273 1.429 . S
C1279 C1280 1.523 . S
C1280 C1261 1.368 . S
C1280 C1274 1.368 . S
C1280 C1279 1.523 . S
C1281 C1265 1.429 . S
C1281 C1277 1.429 . S
C1281 C1282 1.523 . S
C1282 C1266 1.368 . S
C1282 C1278 1.368 . S
C1282 C1281 1.523 . S
H1283 C1258 0.950 1_455 S
H1284 C1260 0.950 . S
H1285 C1261 0.949 . S
H1286 C1263 0.950 . S
H1287 C1265 0.950 . S
C1288 C1289 1.349 . S
C1288 C1290 1.327 . S
C1288 H1313 0.950 . S
C1289 C1288 1.349 . S
C1289 C1305 1.349 . S
C1290 C1288 1.327 . S
C1290 C1309 1.429 . S
C1290 H1314 0.950 . S
C1291 C1308 1.574 . S
C1291 C1310 1.368 . S
C1291 H1315 0.949 . S
H1292 C1296 0.949 . S
C1293 C1294 1.349 . S
C1293 C1295 1.327 . S
C1293 H1316 0.950 . S
C1294 C1293 1.349 . S
C1294 C1306 1.349 . S
C1295 C1293 1.327 . S
C1295 C1311 1.429 . S
C1295 H1317 0.950 . S
C1296 H1292 0.949 . S
C1296 C1304 1.574 . S
C1296 C1312 1.368 . S
H1297 C1305 0.950 . S
H1298 C1303 0.950 . S
H1299 C1304 0.949 . S
H1300 C1306 0.950 . S
H1301 C1307 0.950 . S
H1302 C1308 0.949 . S
C1303 H1298 0.950 . S
C1303 C1305 1.327 . S
C1303 C1309 1.429 . S
C1304 C1296 1.574 . S
C1304 H1299 0.949 . S
C1304 C1310 1.368 . S
C1305 C1289 1.349 . S
C1305 H1297 0.950 . S
C1305 C1303 1.327 . S
C1306 C1294 1.349 . S
C1306 H1300 0.950 . S
C1306 C1307 1.327 . S
C1307 H1301 0.950 . S
C1307 C1306 1.327 . S
C1307 C1311 1.429 . S
C1308 C1291 1.574 . S
C1308 H1302 0.949 . S
C1308 C1312 1.368 . S
C1309 C1290 1.429 . S
C1309 C1303 1.429 . S
C1309 C1310 1.523 . S
C1310 C1291 1.368 . S
C1310 C1304 1.368 . S
C1310 C1309 1.523 . S
C1311 C1295 1.429 . S
C1311 C1307 1.429 . S
C1311 C1312 1.523 . S
C1312 C1296 1.368 . S
C1312 C1308 1.368 . S
C1312 C1311 1.523 . S
H1313 C1288 0.950 . S
H1314 C1290 0.950 . S
H1315 C1291 0.949 . S
H1316 C1293 0.950 . S
H1317 C1295 0.950 . S
C1318 C1319 1.386 . S
C1318 C1320 1.327 . S
C1318 H1343 0.950 . S
C1319 C1318 1.386 . S
C1319 C1335 1.355 . S
C1320 C1318 1.327 . S
C1320 C1339 1.429 . S
C1320 H1344 0.950 . S
C1321 C1338 1.574 . S
C1321 C1340 1.368 . S
C1321 H1345 0.949 . S
H1322 C1326 0.949 . S
C1323 C1324 1.349 . S
C1323 C1325 1.327 . S
C1323 H1346 0.950 . S
C1324 C1323 1.349 . S
C1324 C1336 1.349 . S
C1325 C1323 1.327 . S
C1325 C1341 1.429 . S
C1325 H1347 0.950 . S
C1326 H1322 0.949 . S
C1326 C1334 1.574 . S
C1326 C1342 1.368 . S
H1327 C1335 0.950 1_455 S
H1328 C1333 0.950 . S
H1329 C1334 0.949 . S
H1330 C1336 0.950 . S
H1331 C1337 0.950 . S
H1332 C1338 0.949 . S
C1333 H1328 0.950 . S
C1333 C1335 1.327 . S
C1333 C1339 1.429 . S
C1334 C1326 1.574 . S
C1334 H1329 0.949 . S
C1334 C1340 1.368 . S
C1335 C1319 1.355 . S
C1335 H1327 0.950 1_655 S
C1335 C1333 1.327 . S
C1336 C1324 1.349 . S
C1336 H1330 0.950 . S
C1336 C1337 1.327 . S
C1337 H1331 0.950 . S
C1337 C1336 1.327 . S
C1337 C1341 1.429 . S
C1338 C1321 1.574 . S
C1338 H1332 0.949 . S
C1338 C1342 1.368 . S
C1339 C1320 1.429 . S
C1339 C1333 1.429 . S
C1339 C1340 1.523 . S
C1340 C1321 1.368 . S
C1340 C1334 1.368 . S
C1340 C1339 1.523 . S
C1341 C1325 1.429 . S
C1341 C1337 1.429 . S
C1341 C1342 1.523 . S
C1342 C1326 1.368 . S
C1342 C1338 1.368 . S
C1342 C1341 1.523 . S
H1343 C1318 0.950 . S
H1344 C1320 0.950 . S
H1345 C1321 0.949 . S
H1346 C1323 0.950 . S
H1347 C1325 0.950 . S
C1348 C1349 1.349 . S
C1348 C1350 1.327 . S
C1348 H1373 0.950 . S
C1349 C1348 1.349 . S
C1349 C1365 1.349 . S
C1350 C1348 1.327 . S
C1350 C1369 1.429 . S
C1350 H1374 0.950 . S
C1351 C1368 1.574 . S
C1351 C1370 1.368 . S
C1351 H1375 0.949 . S
H1352 C1356 0.949 . S
C1353 C1354 1.349 . S
C1353 C1355 1.327 . S
C1353 H1376 0.950 . S
C1354 C1353 1.349 . S
C1354 C1366 1.349 . S
C1355 C1353 1.327 . S
C1355 C1371 1.429 . S
C1355 H1377 0.950 . S
C1356 H1352 0.949 . S
C1356 C1364 1.574 . S
C1356 C1372 1.368 . S
H1357 C1365 0.950 . S
H1358 C1363 0.950 . S
H1359 C1364 0.949 . S
H1360 C1366 0.950 . S
H1361 C1367 0.950 . S
H1362 C1368 0.949 . S
C1363 H1358 0.950 . S
C1363 C1365 1.327 . S
C1363 C1369 1.429 . S
C1364 C1356 1.574 . S
C1364 H1359 0.949 . S
C1364 C1370 1.368 . S
C1365 C1349 1.349 . S
C1365 H1357 0.950 . S
C1365 C1363 1.327 . S
C1366 C1354 1.349 . S
C1366 H1360 0.950 . S
C1366 C1367 1.327 . S
C1367 H1361 0.950 . S
C1367 C1366 1.327 . S
C1367 C1371 1.429 . S
C1368 C1351 1.574 . S
C1368 H1362 0.949 . S
C1368 C1372 1.368 . S
C1369 C1350 1.429 . S
C1369 C1363 1.429 . S
C1369 C1370 1.523 . S
C1370 C1351 1.368 . S
C1370 C1364 1.368 . S
C1370 C1369 1.523 . S
C1371 C1355 1.429 . S
C1371 C1367 1.429 . S
C1371 C1372 1.523 . S
C1372 C1356 1.368 . S
C1372 C1368 1.368 . S
C1372 C1371 1.523 . S
H1373 C1348 0.950 . S
H1374 C1350 0.950 . S
H1375 C1351 0.949 . S
H1376 C1353 0.950 . S
H1377 C1355 0.950 . S
C1378 C1379 1.349 . S
C1378 C1380 1.327 . S
C1378 H1403 0.950 . S
C1379 C1378 1.349 . S
C1379 C1395 1.349 . S
C1380 C1378 1.327 . S
C1380 C1399 1.429 . S
C1380 H1404 0.950 . S
C1381 C1398 1.574 . S
C1381 C1400 1.368 . S
C1381 H1405 0.949 . S
H1382 C1386 0.949 . S
C1383 C1384 1.349 . S
C1383 C1385 1.327 . S
C1383 H1406 0.950 . S
C1384 C1383 1.349 . S
C1384 C1396 1.349 . S
C1385 C1383 1.327 . S
C1385 C1401 1.429 . S
C1385 H1407 0.950 . S
C1386 H1382 0.949 . S
C1386 C1394 1.574 . S
C1386 C1402 1.368 . S
H1387 C1395 0.950 . S
H1388 C1393 0.950 . S
H1389 C1394 0.949 . S
H1390 C1396 0.950 . S
H1391 C1397 0.950 . S
H1392 C1398 0.949 . S
C1393 H1388 0.950 . S
C1393 C1395 1.327 . S
C1393 C1399 1.429 . S
C1394 C1386 1.574 . S
C1394 H1389 0.949 . S
C1394 C1400 1.368 . S
C1395 C1379 1.349 . S
C1395 H1387 0.950 . S
C1395 C1393 1.327 . S
C1396 C1384 1.349 . S
C1396 H1390 0.950 . S
C1396 C1397 1.327 . S
C1397 H1391 0.950 . S
C1397 C1396 1.327 . S
C1397 C1401 1.429 . S
C1398 C1381 1.574 . S
C1398 H1392 0.949 . S
C1398 C1402 1.368 . S
C1399 C1380 1.429 . S
C1399 C1393 1.429 . S
C1399 C1400 1.523 . S
C1400 C1381 1.368 . S
C1400 C1394 1.368 . S
C1400 C1399 1.523 . S
C1401 C1385 1.429 . S
C1401 C1397 1.429 . S
C1401 C1402 1.523 . S
C1402 C1386 1.368 . S
C1402 C1398 1.368 . S
C1402 C1401 1.523 . S
H1403 C1378 0.950 . S
H1404 C1380 0.950 . S
H1405 C1381 0.949 . S
H1406 C1383 0.950 . S
H1407 C1385 0.950 . S
C1408 C1409 1.349 . S
C1408 C1410 1.327 . S
C1408 H1433 0.950 . S
C1409 C1408 1.349 . S
C1409 C1425 1.349 . S
C1410 C1408 1.327 . S
C1410 C1429 1.429 . S
C1410 H1434 0.950 . S
C1411 C1428 1.574 . S
C1411 C1430 1.368 . S
C1411 H1435 0.949 . S
H1412 C1416 0.949 . S
C1413 C1414 1.349 . S
C1413 C1415 1.327 . S
C1413 H1436 0.950 . S
C1414 C1413 1.349 . S
C1414 C1426 1.349 . S
C1415 C1413 1.327 . S
C1415 C1431 1.429 . S
C1415 H1437 0.950 . S
C1416 H1412 0.949 . S
C1416 C1424 1.574 . S
C1416 C1432 1.368 . S
H1417 C1425 0.950 . S
H1418 C1423 0.950 . S
H1419 C1424 0.949 . S
H1420 C1426 0.950 . S
H1421 C1427 0.950 . S
H1422 C1428 0.949 . S
C1423 H1418 0.950 . S
C1423 C1425 1.327 . S
C1423 C1429 1.429 . S
C1424 C1416 1.574 . S
C1424 H1419 0.949 . S
C1424 C1430 1.368 . S
C1425 C1409 1.349 . S
C1425 H1417 0.950 . S
C1425 C1423 1.327 . S
C1426 C1414 1.349 . S
C1426 H1420 0.950 . S
C1426 C1427 1.327 . S
C1427 H1421 0.950 . S
C1427 C1426 1.327 . S
C1427 C1431 1.429 . S
C1428 C1411 1.574 . S
C1428 H1422 0.949 . S
C1428 C1432 1.368 . S
C1429 C1410 1.429 . S
C1429 C1423 1.429 . S
C1429 C1430 1.523 . S
C1430 C1411 1.368 . S
C1430 C1424 1.368 . S
C1430 C1429 1.523 . S
C1431 C1415 1.429 . S
C1431 C1427 1.429 . S
C1431 C1432 1.523 . S
C1432 C1416 1.368 . S
C1432 C1428 1.368 . S
C1432 C1431 1.523 . S
H1433 C1408 0.950 . S
H1434 C1410 0.950 . S
H1435 C1411 0.949 . S
H1436 C1413 0.950 . S
H1437 C1415 0.950 . S
C1438 C1439 1.349 . S
C1438 C1440 1.327 . S
C1438 H1463 0.950 . S
C1439 C1438 1.349 . S
C1439 C1455 1.349 . S
C1440 C1438 1.327 . S
C1440 C1459 1.429 . S
C1440 H1464 0.950 1_565 S
C1441 C1458 1.574 . S
C1441 C1460 1.368 1_655 S
C1441 H1465 0.949 . S
H1442 C1446 0.949 . S
C1443 C1444 1.349 1_565 S
C1443 C1445 1.327 . S
C1443 H1466 0.950 . S
C1444 C1443 1.349 1_545 S
C1444 C1456 1.349 . S
C1445 C1443 1.327 . S
C1445 C1461 1.429 1_565 S
C1445 H1467 0.950 . S
C1446 H1442 0.949 . S
C1446 C1454 1.574 . S
C1446 C1462 1.368 1_445 S
H1447 C1455 0.950 . S
H1448 C1453 0.950 1_655 S
H1449 C1454 0.949 . S
H1450 C1456 0.950 . S
H1451 C1457 0.950 1_455 S
H1452 C1458 0.949 . S
C1453 H1448 0.950 1_455 S
C1453 C1455 1.327 . S
C1453 C1459 1.429 . S
C1454 C1446 1.574 . S
C1454 H1449 0.949 . S
C1454 C1460 1.368 1_545 S
C1455 C1439 1.349 . S
C1455 H1447 0.950 . S
C1455 C1453 1.327 . S
C1456 C1444 1.349 . S
C1456 H1450 0.950 . S
C1456 C1457 1.327 . S
C1457 H1451 0.950 1_655 S
C1457 C1456 1.327 . S
C1457 C1461 1.429 . S
C1458 C1441 1.574 . S
C1458 H1452 0.949 . S
C1458 C1462 1.368 . S
C1459 C1440 1.429 . S
C1459 C1453 1.429 . S
C1459 C1460 1.523 . S
C1460 C1441 1.368 1_455 S
C1460 C1454 1.368 1_565 S
C1460 C1459 1.523 . S
C1461 C1445 1.429 1_545 S
C1461 C1457 1.429 . S
C1461 C1462 1.523 1_545 S
C1462 C1446 1.368 1_665 S
C1462 C1458 1.368 . S
C1462 C1461 1.523 1_565 S
H1463 C1438 0.950 . S
H1464 C1440 0.950 1_545 S
H1465 C1441 0.949 . S
H1466 C1443 0.950 . S
H1467 C1445 0.950 . S
C1468 C1469 1.349 . S
C1468 C1470 1.327 . S
C1468 H1493 0.950 . S
C1469 C1468 1.349 . S
C1469 C1485 1.349 . S
C1470 C1468 1.327 . S
C1470 C1489 1.429 . S
C1470 H1494 0.950 . S
C1471 C1488 1.574 . S
C1471 C1490 1.368 . S
C1471 H1495 0.949 . S
H1472 C1476 0.949 . S
C1473 C1474 1.349 . S
C1473 C1475 1.327 . S
C1473 H1496 0.950 . S
C1474 C1473 1.349 . S
C1474 C1486 1.349 . S
C1475 C1473 1.327 . S
C1475 C1491 1.429 . S
C1475 H1497 0.950 . S
C1476 H1472 0.949 . S
C1476 C1484 1.574 . S
C1476 C1492 1.368 . S
H1477 C1485 0.950 . S
H1478 C1483 0.950 . S
H1479 C1484 0.949 . S
H1480 C1486 0.950 . S
H1481 C1487 0.950 . S
H1482 C1488 0.949 . S
C1483 H1478 0.950 . S
C1483 C1485 1.327 . S
C1483 C1489 1.429 . S
C1484 C1476 1.574 . S
C1484 H1479 0.949 . S
C1484 C1490 1.368 . S
C1485 C1469 1.349 . S
C1485 H1477 0.950 . S
C1485 C1483 1.327 . S
C1486 C1474 1.349 . S
C1486 H1480 0.950 . S
C1486 C1487 1.327 . S
C1487 H1481 0.950 . S
C1487 C1486 1.327 . S
C1487 C1491 1.429 . S
C1488 C1471 1.574 . S
C1488 H1482 0.949 . S
C1488 C1492 1.368 . S
C1489 C1470 1.429 . S
C1489 C1483 1.429 . S
C1489 C1490 1.523 . S
C1490 C1471 1.368 . S
C1490 C1484 1.368 . S
C1490 C1489 1.523 . S
C1491 C1475 1.429 . S
C1491 C1487 1.429 . S
C1491 C1492 1.523 . S
C1492 C1476 1.368 . S
C1492 C1488 1.368 . S
C1492 C1491 1.523 . S
H1493 C1468 0.950 . S
H1494 C1470 0.950 . S
H1495 C1471 0.949 . S
H1496 C1473 0.950 . S
H1497 C1475 0.950 . S
C1498 C1499 1.349 . S
C1498 C1500 1.327 1_545 S
C1498 H1523 0.950 1_545 S
C1499 C1498 1.349 . S
C1499 C1515 1.349 . S
C1500 C1498 1.327 1_565 S
C1500 C1519 1.429 1_565 S
C1500 H1524 0.950 . S
C1501 C1518 1.574 1_554 S
C1501 C1520 1.368 . S
C1501 H1525 0.949 . S
H1502 C1506 0.949 . S
C1503 C1504 1.349 1_545 S
C1503 C1505 1.327 . S
C1503 H1526 0.950 . S
C1504 C1503 1.349 1_565 S
C1504 C1516 1.349 . S
C1505 C1503 1.327 . S
C1505 C1521 1.429 1_545 S
C1505 H1527 0.950 . S
C1506 H1502 0.949 . S
C1506 C1514 1.574 1_556 S
C1506 C1522 1.368 1_565 S
H1507 C1515 0.950 . S
H1508 C1513 0.950 . S
H1509 C1514 0.949 . S
H1510 C1516 0.950 . S
H1511 C1517 0.950 . S
H1512 C1518 0.949 . S
C1513 H1508 0.950 . S
C1513 C1515 1.327 . S
C1513 C1519 1.429 . S
C1514 C1506 1.574 1_554 S
C1514 H1509 0.949 . S
C1514 C1520 1.368 1_565 S
C1515 C1499 1.349 . S
C1515 H1507 0.950 . S
C1515 C1513 1.327 . S
C1516 C1504 1.349 . S
C1516 H1510 0.950 . S
C1516 C1517 1.327 . S
C1517 H1511 0.950 . S
C1517 C1516 1.327 . S
C1517 C1521 1.429 . S
C1518 C1501 1.574 1_556 S
C1518 H1512 0.949 . S
C1518 C1522 1.368 . S
C1519 C1500 1.429 1_545 S
C1519 C1513 1.429 . S
C1519 C1520 1.523 . S
C1520 C1501 1.368 . S
C1520 C1514 1.368 1_545 S
C1520 C1519 1.523 . S
C1521 C1505 1.429 1_565 S
C1521 C1517 1.429 . S
C1521 C1522 1.523 1_565 S
C1522 C1506 1.368 1_545 S
C1522 C1518 1.368 . S
C1522 C1521 1.523 1_545 S
H1523 C1498 0.950 1_565 S
H1524 C1500 0.950 . S
H1525 C1501 0.949 . S
H1526 C1503 0.950 . S
H1527 C1505 0.950 . S
C1528 C1529 1.349 . S
C1528 C1530 1.327 . S
C1528 H1553 0.950 . S
C1529 C1528 1.349 . S
C1529 C1545 1.349 . S
C1530 C1528 1.327 . S
C1530 C1549 1.429 . S
C1530 H1554 0.950 . S
C1531 C1548 1.574 . S
C1531 C1550 1.368 . S
C1531 H1555 0.949 . S
H1532 C1536 0.949 . S
C1533 C1534 1.349 . S
C1533 C1535 1.327 . S
C1533 H1556 0.950 . S
C1534 C1533 1.349 . S
C1534 C1546 1.349 . S
C1535 C1533 1.327 . S
C1535 C1551 1.429 . S
C1535 H1557 0.950 . S
C1536 H1532 0.949 . S
C1536 C1544 1.574 . S
C1536 C1552 1.368 . S
H1537 C1545 0.950 . S
H1538 C1543 0.950 . S
H1539 C1544 0.949 . S
H1540 C1546 0.950 . S
H1541 C1547 0.950 . S
H1542 C1548 0.949 . S
C1543 H1538 0.950 . S
C1543 C1545 1.327 . S
C1543 C1549 1.429 . S
C1544 C1536 1.574 . S
C1544 H1539 0.949 . S
C1544 C1550 1.368 . S
C1545 C1529 1.349 . S
C1545 H1537 0.950 . S
C1545 C1543 1.327 . S
C1546 C1534 1.349 . S
C1546 H1540 0.950 . S
C1546 C1547 1.327 . S
C1547 H1541 0.950 . S
C1547 C1546 1.327 . S
C1547 C1551 1.429 . S
C1548 C1531 1.574 . S
C1548 H1542 0.949 . S
C1548 C1552 1.368 . S
C1549 C1530 1.429 . S
C1549 C1543 1.429 . S
C1549 C1550 1.523 . S
C1550 C1531 1.368 . S
C1550 C1544 1.368 . S
C1550 C1549 1.523 . S
C1551 C1535 1.429 . S
C1551 C1547 1.429 . S
C1551 C1552 1.523 . S
C1552 C1536 1.368 . S
C1552 C1548 1.368 . S
C1552 C1551 1.523 . S
H1553 C1528 0.950 . S
H1554 C1530 0.950 . S
H1555 C1531 0.949 . S
H1556 C1533 0.950 . S
H1557 C1535 0.950 . S
C1558 C1559 1.349 . S
C1558 C1560 1.320 1_565 S
C1558 H1583 0.950 1_565 S
C1559 C1558 1.349 . S
C1559 C1575 1.349 . S
C1560 C1558 1.320 1_545 S
C1560 C1579 1.404 1_545 S
C1560 H1584 0.984 . S
C1561 C1578 1.574 . S
C1561 C1580 1.368 . S
C1561 H1585 0.949 . S
H1562 C1566 0.949 . S
C1563 C1564 1.349 1_565 S
C1563 C1565 1.327 . S
C1563 H1586 0.950 . S
C1564 C1563 1.349 1_545 S
C1564 C1576 1.349 . S
C1565 C1563 1.327 . S
C1565 C1581 1.429 1_565 S
C1565 H1587 0.950 . S
C1566 H1562 0.949 . S
C1566 C1574 1.574 . S
C1566 C1582 1.368 1_545 S
H1567 C1575 0.950 . S
H1568 C1573 0.950 . S
H1569 C1574 0.949 . S
H1570 C1576 0.950 . S
H1571 C1577 0.950 . S
H1572 C1578 0.949 . S
C1573 H1568 0.950 . S
C1573 C1575 1.327 . S
C1573 C1579 1.429 . S
C1574 C1566 1.574 . S
C1574 H1569 0.949 . S
C1574 C1580 1.368 1_545 S
C1575 C1559 1.349 . S
C1575 H1567 0.950 . S
C1575 C1573 1.327 . S
C1576 C1564 1.349 . S
C1576 H1570 0.950 . S
C1576 C1577 1.327 . S
C1577 H1571 0.950 . S
C1577 C1576 1.327 . S
C1577 C1581 1.429 . S
C1578 C1561 1.574 . S
C1578 H1572 0.949 . S
C1578 C1582 1.368 . S
C1579 C1560 1.404 1_565 S
C1579 C1573 1.429 . S
C1579 C1580 1.523 . S
C1580 C1561 1.368 . S
C1580 C1574 1.368 1_565 S
C1580 C1579 1.523 . S
C1581 C1565 1.429 1_545 S
C1581 C1577 1.429 . S
C1581 C1582 1.523 1_545 S
C1582 C1566 1.368 1_565 S
C1582 C1578 1.368 . S
C1582 C1581 1.523 1_565 S
H1583 C1558 0.950 1_545 S
H1584 C1560 0.984 . S
H1585 C1561 0.949 . S
H1586 C1563 0.950 . S
H1587 C1565 0.950 . S
C1588 C1589 1.349 . S
C1588 C1590 1.327 . S
C1588 H1613 0.950 . S
C1589 C1588 1.349 . S
C1589 C1605 1.349 . S
C1590 C1588 1.327 . S
C1590 C1609 1.429 . S
C1590 H1614 0.950 . S
C1591 C1608 1.574 . S
C1591 C1610 1.368 . S
C1591 H1615 0.949 . S
H1592 C1596 0.949 . S
C1593 C1594 1.349 . S
C1593 C1595 1.327 . S
C1593 H1616 0.950 . S
C1594 C1593 1.349 . S
C1594 C1606 1.349 . S
C1595 C1593 1.327 . S
C1595 C1611 1.429 . S
C1595 H1617 0.950 . S
C1596 H1592 0.949 . S
C1596 C1604 1.574 . S
C1596 C1612 1.368 . S
H1597 C1605 0.950 . S
H1598 C1603 0.950 . S
H1599 C1604 0.949 . S
H1600 C1606 0.950 . S
H1601 C1607 0.950 . S
H1602 C1608 0.949 . S
C1603 H1598 0.950 . S
C1603 C1605 1.327 . S
C1603 C1609 1.429 . S
C1604 C1596 1.574 . S
C1604 H1599 0.949 . S
C1604 C1610 1.368 . S
C1605 C1589 1.349 . S
C1605 H1597 0.950 . S
C1605 C1603 1.327 . S
C1606 C1594 1.349 . S
C1606 H1600 0.950 . S
C1606 C1607 1.327 . S
C1607 H1601 0.950 . S
C1607 C1606 1.327 . S
C1607 C1611 1.429 . S
C1608 C1591 1.574 . S
C1608 H1602 0.949 . S
C1608 C1612 1.368 . S
C1609 C1590 1.429 . S
C1609 C1603 1.429 . S
C1609 C1610 1.523 . S
C1610 C1591 1.368 . S
C1610 C1604 1.368 . S
C1610 C1609 1.523 . S
C1611 C1595 1.429 . S
C1611 C1607 1.429 . S
C1611 C1612 1.523 . S
C1612 C1596 1.368 . S
C1612 C1608 1.368 . S
C1612 C1611 1.523 . S
H1613 C1588 0.950 . S
H1614 C1590 0.950 . S
H1615 C1591 0.949 . S
H1616 C1593 0.950 . S
H1617 C1595 0.950 . S
C1618 C1619 1.349 . S
C1618 C1620 1.327 . S
C1618 H1643 0.950 . S
C1619 C1618 1.349 . S
C1619 C1635 1.349 . S
C1620 C1618 1.327 . S
C1620 C1639 1.429 . S
C1620 H1644 0.960 . S
C1621 C1638 1.574 1_556 S
C1621 C1640 1.368 1_565 S
C1621 H1645 0.949 . S
H1622 C1626 0.949 . S
C1623 C1624 1.349 . S
C1623 C1625 1.327 . S
C1623 H1646 0.950 . S
C1624 C1623 1.349 . S
C1624 C1636 1.349 1_565 S
C1625 C1623 1.327 . S
C1625 C1641 1.429 . S
C1625 H1647 0.950 1_655 S
C1626 H1622 0.949 . S
C1626 C1634 1.574 1_554 S
C1626 C1642 1.368 . S
H1627 C1635 0.950 1_565 S
H1628 C1633 0.965 . S
H1629 C1634 0.949 . S
H1630 C1636 0.950 . S
H1631 C1637 0.950 . S
H1632 C1638 0.949 . S
C1633 H1628 0.965 . S
C1633 C1635 1.323 1_565 S
C1633 C1639 1.417 1_565 S
C1634 C1626 1.574 1_556 S
C1634 H1629 0.949 . S
C1634 C1640 1.368 1_655 S
C1635 C1619 1.349 . S
C1635 H1627 0.950 1_545 S
C1635 C1633 1.323 1_545 S
C1636 C1624 1.349 1_545 S
C1636 H1630 0.950 . S
C1636 C1637 1.327 . S
C1637 H1631 0.950 . S
C1637 C1636 1.327 . S
C1637 C1641 1.429 1_545 S
C1638 C1621 1.574 1_554 S
C1638 H1632 0.949 . S
C1638 C1642 1.368 1_465 S
C1639 C1620 1.429 . S
C1639 C1633 1.417 1_545 S
C1639 C1640 1.523 . S
C1640 C1621 1.368 1_545 S
C1640 C1634 1.368 1_455 S
C1640 C1639 1.523 . S
C1641 C1625 1.429 . S
C1641 C1637 1.429 1_565 S
C1641 C1642 1.523 1_565 S
C1642 C1626 1.368 . S
C1642 C1638 1.368 1_645 S
C1642 C1641 1.523 1_545 S
H1643 C1618 0.950 . S
H1644 C1620 0.960 . S
H1645 C1621 0.949 . S
H1646 C1623 0.950 . S
H1647 C1625 0.950 1_455 S
C1648 C1649 1.349 . S
C1648 C1650 1.327 . S
C1648 H1673 0.950 . S
C1649 C1648 1.349 . S
C1649 C1665 1.349 . S
C1650 C1648 1.327 . S
C1650 C1669 1.429 . S
C1650 H1674 0.950 . S
C1651 C1668 1.574 . S
C1651 C1670 1.368 . S
C1651 H1675 0.949 . S
H1652 C1656 0.949 . S
C1653 C1654 1.349 . S
C1653 C1655 1.327 . S
C1653 H1676 0.950 . S
C1654 C1653 1.349 . S
C1654 C1666 1.349 . S
C1655 C1653 1.327 . S
C1655 C1671 1.429 . S
C1655 H1677 0.950 . S
C1656 H1652 0.949 . S
C1656 C1664 1.574 . S
C1656 C1672 1.368 . S
H1657 C1665 0.950 . S
H1658 C1663 0.950 . S
H1659 C1664 0.949 . S
H1660 C1666 0.950 . S
H1661 C1667 0.950 . S
H1662 C1668 0.949 . S
C1663 H1658 0.950 . S
C1663 C1665 1.327 . S
C1663 C1669 1.429 . S
C1664 C1656 1.574 . S
C1664 H1659 0.949 . S
C1664 C1670 1.368 . S
C1665 C1649 1.349 . S
C1665 H1657 0.950 . S
C1665 C1663 1.327 . S
C1666 C1654 1.349 . S
C1666 H1660 0.950 . S
C1666 C1667 1.327 . S
C1667 H1661 0.950 . S
C1667 C1666 1.327 . S
C1667 C1671 1.429 . S
C1668 C1651 1.574 . S
C1668 H1662 0.949 . S
C1668 C1672 1.368 . S
C1669 C1650 1.429 . S
C1669 C1663 1.429 . S
C1669 C1670 1.523 . S
C1670 C1651 1.368 . S
C1670 C1664 1.368 . S
C1670 C1669 1.523 . S
C1671 C1655 1.429 . S
C1671 C1667 1.429 . S
C1671 C1672 1.523 . S
C1672 C1656 1.368 . S
C1672 C1668 1.368 . S
C1672 C1671 1.523 . S
H1673 C1648 0.950 . S
H1674 C1650 0.950 . S
H1675 C1651 0.949 . S
H1676 C1653 0.950 . S
H1677 C1655 0.950 . S
C1678 C1679 1.349 . S
C1678 C1680 1.327 . S
C1678 H1703 0.950 . S
C1679 C1678 1.349 . S
C1679 C1695 1.349 . S
C1680 C1678 1.327 . S
C1680 C1699 1.429 . S
C1680 H1704 0.950 . S
C1681 C1698 1.574 . S
C1681 C1700 1.368 . S
C1681 H1705 0.949 . S
H1682 C1686 0.949 . S
C1683 C1684 1.349 . S
C1683 C1685 1.327 . S
C1683 H1706 0.950 . S
C1684 C1683 1.349 . S
C1684 C1696 1.349 . S
C1685 C1683 1.327 . S
C1685 C1701 1.429 . S
C1685 H1707 0.950 . S
C1686 H1682 0.949 . S
C1686 C1694 1.574 . S
C1686 C1702 1.368 . S
H1687 C1695 0.950 . S
H1688 C1693 0.950 . S
H1689 C1694 0.949 . S
H1690 C1696 0.950 . S
H1691 C1697 0.950 . S
H1692 C1698 0.949 . S
C1693 H1688 0.950 . S
C1693 C1695 1.327 . S
C1693 C1699 1.429 . S
C1694 C1686 1.574 . S
C1694 H1689 0.949 . S
C1694 C1700 1.368 . S
C1695 C1679 1.349 . S
C1695 H1687 0.950 . S
C1695 C1693 1.327 . S
C1696 C1684 1.349 . S
C1696 H1690 0.950 . S
C1696 C1697 1.327 . S
C1697 H1691 0.950 . S
C1697 C1696 1.327 . S
C1697 C1701 1.429 . S
C1698 C1681 1.574 . S
C1698 H1692 0.949 . S
C1698 C1702 1.368 . S
C1699 C1680 1.429 . S
C1699 C1693 1.429 . S
C1699 C1700 1.523 . S
C1700 C1681 1.368 . S
C1700 C1694 1.368 . S
C1700 C1699 1.523 . S
C1701 C1685 1.429 . S
C1701 C1697 1.429 . S
C1701 C1702 1.523 . S
C1702 C1686 1.368 . S
C1702 C1698 1.368 . S
C1702 C1701 1.523 . S
H1703 C1678 0.950 . S
H1704 C1680 0.950 . S
H1705 C1681 0.949 . S
H1706 C1683 0.950 . S
H1707 C1685 0.950 . S
C1708 C1709 1.349 . S
C1708 C1710 1.327 . S
C1708 H1733 0.950 . S
C1709 C1708 1.349 . S
C1709 C1725 1.349 . S
C1710 C1708 1.327 . S
C1710 C1729 1.429 . S
C1710 H1734 0.950 . S
C1711 C1728 1.574 . S
C1711 C1730 1.368 . S
C1711 H1735 0.949 . S
H1712 C1716 0.949 . S
C1713 C1714 1.349 . S
C1713 C1715 1.327 . S
C1713 H1736 0.950 . S
C1714 C1713 1.349 . S
C1714 C1726 1.349 . S
C1715 C1713 1.327 . S
C1715 C1731 1.429 . S
C1715 H1737 0.950 . S
C1716 H1712 0.949 . S
C1716 C1724 1.574 . S
C1716 C1732 1.368 . S
H1717 C1725 0.950 . S
H1718 C1723 0.950 . S
H1719 C1724 0.949 . S
H1720 C1726 0.950 . S
H1721 C1727 0.950 . S
H1722 C1728 0.949 . S
C1723 H1718 0.950 . S
C1723 C1725 1.327 . S
C1723 C1729 1.429 . S
C1724 C1716 1.574 . S
C1724 H1719 0.949 . S
C1724 C1730 1.368 . S
C1725 C1709 1.349 . S
C1725 H1717 0.950 . S
C1725 C1723 1.327 . S
C1726 C1714 1.349 . S
C1726 H1720 0.950 . S
C1726 C1727 1.327 . S
C1727 H1721 0.950 . S
C1727 C1726 1.327 . S
C1727 C1731 1.429 . S
C1728 C1711 1.574 . S
C1728 H1722 0.949 . S
C1728 C1732 1.368 . S
C1729 C1710 1.429 . S
C1729 C1723 1.429 . S
C1729 C1730 1.523 . S
C1730 C1711 1.368 . S
C1730 C1724 1.368 . S
C1730 C1729 1.523 . S
C1731 C1715 1.429 . S
C1731 C1727 1.429 . S
C1731 C1732 1.523 . S
C1732 C1716 1.368 . S
C1732 C1728 1.368 . S
C1732 C1731 1.523 . S
H1733 C1708 0.950 . S
H1734 C1710 0.950 . S
H1735 C1711 0.949 . S
H1736 C1713 0.950 . S
H1737 C1715 0.950 . S
C1738 C1739 1.349 . S
C1738 C1740 1.327 . S
C1738 H1763 0.950 . S
C1739 C1738 1.349 . S
C1739 C1755 1.349 . S
C1740 C1738 1.327 . S
C1740 C1759 1.429 . S
C1740 H1764 0.950 . S
C1741 C1758 1.574 . S
C1741 C1760 1.368 . S
C1741 H1765 0.949 . S
H1742 C1746 0.949 . S
C1743 C1744 1.349 . S
C1743 C1745 1.327 . S
C1743 H1766 0.950 . S
C1744 C1743 1.349 . S
C1744 C1756 1.349 . S
C1745 C1743 1.327 . S
C1745 C1761 1.429 . S
C1745 H1767 0.950 . S
C1746 H1742 0.949 . S
C1746 C1754 1.574 . S
C1746 C1762 1.368 . S
H1747 C1755 0.950 . S
H1748 C1753 0.950 . S
H1749 C1754 0.949 . S
H1750 C1756 0.950 . S
H1751 C1757 0.950 . S
H1752 C1758 0.949 . S
C1753 H1748 0.950 . S
C1753 C1755 1.327 . S
C1753 C1759 1.429 . S
C1754 C1746 1.574 . S
C1754 H1749 0.949 . S
C1754 C1760 1.368 . S
C1755 C1739 1.349 . S
C1755 H1747 0.950 . S
C1755 C1753 1.327 . S
C1756 C1744 1.349 . S
C1756 H1750 0.950 . S
C1756 C1757 1.327 . S
C1757 H1751 0.950 . S
C1757 C1756 1.327 . S
C1757 C1761 1.429 . S
C1758 C1741 1.574 . S
C1758 H1752 0.949 . S
C1758 C1762 1.368 . S
C1759 C1740 1.429 . S
C1759 C1753 1.429 . S
C1759 C1760 1.523 . S
C1760 C1741 1.368 . S
C1760 C1754 1.368 . S
C1760 C1759 1.523 . S
C1761 C1745 1.429 . S
C1761 C1757 1.429 . S
C1761 C1762 1.523 . S
C1762 C1746 1.368 . S
C1762 C1758 1.368 . S
C1762 C1761 1.523 . S
H1763 C1738 0.950 . S
H1764 C1740 0.950 . S
H1765 C1741 0.949 . S
H1766 C1743 0.950 . S
H1767 C1745 0.950 . S
C1768 C1769 1.349 . S
C1768 C1770 1.327 . S
C1768 H1793 0.950 . S
C1769 C1768 1.349 . S
C1769 C1785 1.349 . S
C1770 C1768 1.327 . S
C1770 C1789 1.429 . S
C1770 H1794 0.950 . S
C1771 C1788 1.574 1_554 S
C1771 C1790 1.368 . S
C1771 H1795 0.949 . S
H1772 C1776 0.949 . S
C1773 C1774 1.349 . S
C1773 C1775 1.327 . S
C1773 H1796 0.950 . S
C1774 C1773 1.349 . S
C1774 C1786 1.349 . S
C1775 C1773 1.327 . S
C1775 C1791 1.429 . S
C1775 H1797 0.950 . S
C1776 H1772 0.949 . S
C1776 C1784 1.574 1_556 S
C1776 C1792 1.368 . S
H1777 C1785 0.950 . S
H1778 C1783 0.950 . S
H1779 C1784 0.949 . S
H1780 C1786 0.950 . S
H1781 C1787 0.950 . S
H1782 C1788 0.949 . S
C1783 H1778 0.950 . S
C1783 C1785 1.327 . S
C1783 C1789 1.429 . S
C1784 C1776 1.574 1_554 S
C1784 H1779 0.949 . S
C1784 C1790 1.368 . S
C1785 C1769 1.349 . S
C1785 H1777 0.950 . S
C1785 C1783 1.327 . S
C1786 C1774 1.349 . S
C1786 H1780 0.950 . S
C1786 C1787 1.327 . S
C1787 H1781 0.950 . S
C1787 C1786 1.327 . S
C1787 C1791 1.429 . S
C1788 C1771 1.574 1_556 S
C1788 H1782 0.949 . S
C1788 C1792 1.368 . S
C1789 C1770 1.429 . S
C1789 C1783 1.429 . S
C1789 C1790 1.523 . S
C1790 C1771 1.368 . S
C1790 C1784 1.368 . S
C1790 C1789 1.523 . S
C1791 C1775 1.429 . S
C1791 C1787 1.429 . S
C1791 C1792 1.523 . S
C1792 C1776 1.368 . S
C1792 C1788 1.368 . S
C1792 C1791 1.523 . S
H1793 C1768 0.950 . S
H1794 C1770 0.950 . S
H1795 C1771 0.949 . S
H1796 C1773 0.950 . S
H1797 C1775 0.950 . S
C1798 C1799 1.349 . S
C1798 C1800 1.327 . S
C1798 H1823 0.950 . S
C1799 C1798 1.349 . S
C1799 C1815 1.349 . S
C1800 C1798 1.327 . S
C1800 C1819 1.429 . S
C1800 H1824 0.950 . S
C1801 C1818 1.574 . S
C1801 C1820 1.368 . S
C1801 H1825 0.949 . S
H1802 C1806 0.949 . S
C1803 C1804 1.349 . S
C1803 C1805 1.327 . S
C1803 H1826 0.950 . S
C1804 C1803 1.349 . S
C1804 C1816 1.349 . S
C1805 C1803 1.327 . S
C1805 C1821 1.429 . S
C1805 H1827 0.950 . S
C1806 H1802 0.949 . S
C1806 C1814 1.574 . S
C1806 C1822 1.368 . S
H1807 C1815 0.950 . S
H1808 C1813 0.950 . S
H1809 C1814 0.949 . S
H1810 C1816 0.950 . S
H1811 C1817 0.950 . S
H1812 C1818 0.949 . S
C1813 H1808 0.950 . S
C1813 C1815 1.327 . S
C1813 C1819 1.429 . S
C1814 C1806 1.574 . S
C1814 H1809 0.949 . S
C1814 C1820 1.368 1_655 S
C1815 C1799 1.349 . S
C1815 H1807 0.950 . S
C1815 C1813 1.327 . S
C1816 C1804 1.349 . S
C1816 H1810 0.950 . S
C1816 C1817 1.327 . S
C1817 H1811 0.950 . S
C1817 C1816 1.327 . S
C1817 C1821 1.429 . S
C1818 C1801 1.574 . S
C1818 H1812 0.949 . S
C1818 C1822 1.368 1_455 S
C1819 C1800 1.429 . S
C1819 C1813 1.429 . S
C1819 C1820 1.523 . S
C1820 C1801 1.368 . S
C1820 C1814 1.368 1_455 S
C1820 C1819 1.523 . S
C1821 C1805 1.429 . S
C1821 C1817 1.429 . S
C1821 C1822 1.523 . S
C1822 C1806 1.368 . S
C1822 C1818 1.368 1_655 S
C1822 C1821 1.523 . S
H1823 C1798 0.950 . S
H1824 C1800 0.950 . S
H1825 C1801 0.949 . S
H1826 C1803 0.950 . S
H1827 C1805 0.950 . S
C1828 C1829 1.349 . S
C1828 C1830 1.327 . S
C1828 H1853 0.950 . S
C1829 C1828 1.349 . S
C1829 C1845 1.349 . S
C1830 C1828 1.327 . S
C1830 C1849 1.429 . S
C1830 H1854 0.950 . S
C1831 C1848 1.574 1_454 S
C1831 C1850 1.368 . S
C1831 H1855 0.949 . S
H1832 C1836 0.949 . S
C1833 C1834 1.349 . S
C1833 C1835 1.327 . S
C1833 H1856 0.950 . S
C1834 C1833 1.349 . S
C1834 C1846 1.349 . S
C1835 C1833 1.327 . S
C1835 C1851 1.429 . S
C1835 H1857 0.950 . S
C1836 H1832 0.949 . S
C1836 C1844 1.574 1_656 S
C1836 C1852 1.368 . S
H1837 C1845 0.950 . S
H1838 C1843 0.950 . S
H1839 C1844 0.949 . S
H1840 C1846 0.950 . S
H1841 C1847 0.950 . S
H1842 C1848 0.949 . S
C1843 H1838 0.950 . S
C1843 C1845 1.327 . S
C1843 C1849 1.429 . S
C1844 C1836 1.574 1_454 S
C1844 H1839 0.949 . S
C1844 C1850 1.368 . S
C1845 C1829 1.349 . S
C1845 H1837 0.950 . S
C1845 C1843 1.327 . S
C1846 C1834 1.349 . S
C1846 H1840 0.950 . S
C1846 C1847 1.327 . S
C1847 H1841 0.950 . S
C1847 C1846 1.327 . S
C1847 C1851 1.429 . S
C1848 C1831 1.574 1_656 S
C1848 H1842 0.949 . S
C1848 C1852 1.368 . S
C1849 C1830 1.429 . S
C1849 C1843 1.429 . S
C1849 C1850 1.523 . S
C1850 C1831 1.368 . S
C1850 C1844 1.368 . S
C1850 C1849 1.523 . S
C1851 C1835 1.429 . S
C1851 C1847 1.429 . S
C1851 C1852 1.523 . S
C1852 C1836 1.368 . S
C1852 C1848 1.368 . S
C1852 C1851 1.523 . S
H1853 C1828 0.950 . S
H1854 C1830 0.950 . S
H1855 C1831 0.949 . S
H1856 C1833 0.950 . S
H1857 C1835 0.950 . S
C1858 C1859 1.349 . S
C1858 C1860 1.327 . S
C1858 H1883 0.950 . S
C1859 C1858 1.349 . S
C1859 C1875 1.349 . S
C1860 C1858 1.327 . S
C1860 C1879 1.429 . S
C1860 H1884 0.950 . S
C1861 C1878 1.574 . S
C1861 C1880 1.368 . S
C1861 H1885 0.949 . S
H1862 C1866 0.949 . S
C1863 C1864 1.349 . S
C1863 C1865 1.327 . S
C1863 H1886 0.950 . S
C1864 C1863 1.349 . S
C1864 C1876 1.349 . S
C1865 C1863 1.327 . S
C1865 C1881 1.429 . S
C1865 H1887 0.950 . S
C1866 H1862 0.949 . S
C1866 C1874 1.574 . S
C1866 C1882 1.368 . S
H1867 C1875 0.950 . S
H1868 C1873 0.950 . S
H1869 C1874 0.949 . S
H1870 C1876 0.950 . S
H1871 C1877 0.950 . S
H1872 C1878 0.949 . S
C1873 H1868 0.950 . S
C1873 C1875 1.327 . S
C1873 C1879 1.429 . S
C1874 C1866 1.574 . S
C1874 H1869 0.949 . S
C1874 C1880 1.368 . S
C1875 C1859 1.349 . S
C1875 H1867 0.950 . S
C1875 C1873 1.327 . S
C1876 C1864 1.349 . S
C1876 H1870 0.950 . S
C1876 C1877 1.327 . S
C1877 H1871 0.950 . S
C1877 C1876 1.327 . S
C1877 C1881 1.429 . S
C1878 C1861 1.574 . S
C1878 H1872 0.949 . S
C1878 C1882 1.368 . S
C1879 C1860 1.429 . S
C1879 C1873 1.429 . S
C1879 C1880 1.523 . S
C1880 C1861 1.368 . S
C1880 C1874 1.368 . S
C1880 C1879 1.523 . S
C1881 C1865 1.429 . S
C1881 C1877 1.429 . S
C1881 C1882 1.523 . S
C1882 C1866 1.368 . S
C1882 C1878 1.368 . S
C1882 C1881 1.523 . S
H1883 C1858 0.950 . S
H1884 C1860 0.950 . S
H1885 C1861 0.949 . S
H1886 C1863 0.950 . S
H1887 C1865 0.950 . S
C1888 C1889 1.349 . S
C1888 C1890 1.327 . S
C1888 H1913 0.950 . S
C1889 C1888 1.349 . S
C1889 C1905 1.349 . S
C1890 C1888 1.327 . S
C1890 C1909 1.429 . S
C1890 H1914 0.950 . S
C1891 C1908 1.574 . S
C1891 C1910 1.368 . S
C1891 H1915 0.949 . S
H1892 C1896 0.949 . S
C1893 C1894 1.349 . S
C1893 C1895 1.327 . S
C1893 H1916 0.950 . S
C1894 C1893 1.349 . S
C1894 C1906 1.349 . S
C1895 C1893 1.327 . S
C1895 C1911 1.429 . S
C1895 H1917 0.950 . S
C1896 H1892 0.949 . S
C1896 C1904 1.574 . S
C1896 C1912 1.368 . S
H1897 C1905 0.950 . S
H1898 C1903 0.950 . S
H1899 C1904 0.949 . S
H1900 C1906 0.950 . S
H1901 C1907 0.950 . S
H1902 C1908 0.949 . S
C1903 H1898 0.950 . S
C1903 C1905 1.327 . S
C1903 C1909 1.429 . S
C1904 C1896 1.574 . S
C1904 H1899 0.949 . S
C1904 C1910 1.368 . S
C1905 C1889 1.349 . S
C1905 H1897 0.950 . S
C1905 C1903 1.327 . S
C1906 C1894 1.349 . S
C1906 H1900 0.950 . S
C1906 C1907 1.327 . S
C1907 H1901 0.950 . S
C1907 C1906 1.327 . S
C1907 C1911 1.429 . S
C1908 C1891 1.574 . S
C1908 H1902 0.949 . S
C1908 C1912 1.368 . S
C1909 C1890 1.429 . S
C1909 C1903 1.429 . S
C1909 C1910 1.523 . S
C1910 C1891 1.368 . S
C1910 C1904 1.368 . S
C1910 C1909 1.523 . S
C1911 C1895 1.429 . S
C1911 C1907 1.429 . S
C1911 C1912 1.523 . S
C1912 C1896 1.368 . S
C1912 C1908 1.368 . S
C1912 C1911 1.523 . S
H1913 C1888 0.950 . S
H1914 C1890 0.950 . S
H1915 C1891 0.949 . S
H1916 C1893 0.950 . S
H1917 C1895 0.950 . S
C1918 C1919 1.349 . S
C1918 C1920 1.327 . S
C1918 H1943 0.950 1_545 S
C1919 C1918 1.349 . S
C1919 C1935 1.349 . S
C1920 C1918 1.327 . S
C1920 C1939 1.429 . S
C1920 H1944 0.950 . S
C1921 C1938 1.574 . S
C1921 C1940 1.368 . S
C1921 H1945 0.949 . S
H1922 C1926 0.949 . S
C1923 C1924 1.349 . S
C1923 C1925 1.327 . S
C1923 H1946 0.950 . S
C1924 C1923 1.349 . S
C1924 C1936 1.349 . S
C1925 C1923 1.327 . S
C1925 C1941 1.429 . S
C1925 H1947 0.950 . S
C1926 H1922 0.949 . S
C1926 C1934 1.574 . S
C1926 C1942 1.368 . S
H1927 C1935 0.950 . S
H1928 C1933 0.950 . S
H1929 C1934 0.949 . S
H1930 C1936 0.950 . S
H1931 C1937 0.950 . S
H1932 C1938 0.949 . S
C1933 H1928 0.950 . S
C1933 C1935 1.327 . S
C1933 C1939 1.429 . S
C1934 C1926 1.574 . S
C1934 H1929 0.949 . S
C1934 C1940 1.368 . S
C1935 C1919 1.349 . S
C1935 H1927 0.950 . S
C1935 C1933 1.327 . S
C1936 C1924 1.349 . S
C1936 H1930 0.950 . S
C1936 C1937 1.327 . S
C1937 H1931 0.950 . S
C1937 C1936 1.327 . S
C1937 C1941 1.429 . S
C1938 C1921 1.574 . S
C1938 H1932 0.949 . S
C1938 C1942 1.368 . S
C1939 C1920 1.429 . S
C1939 C1933 1.429 . S
C1939 C1940 1.523 . S
C1940 C1921 1.368 . S
C1940 C1934 1.368 . S
C1940 C1939 1.523 . S
C1941 C1925 1.429 . S
C1941 C1937 1.429 . S
C1941 C1942 1.523 . S
C1942 C1926 1.368 . S
C1942 C1938 1.368 . S
C1942 C1941 1.523 . S
H1943 C1918 0.950 1_565 S
H1944 C1920 0.950 . S
H1945 C1921 0.949 . S
H1946 C1923 0.950 . S
H1947 C1925 0.950 . S
C1948 C1949 1.349 . S
C1948 C1950 1.327 . S
C1948 H1973 0.950 . S
C1949 C1948 1.349 . S
C1949 C1965 1.349 . S
C1950 C1948 1.327 . S
C1950 C1969 1.429 . S
C1950 H1974 0.950 . S
C1951 C1968 1.574 . S
C1951 C1970 1.368 . S
C1951 H1975 0.949 . S
H1952 C1956 0.949 . S
C1953 C1954 1.349 . S
C1953 C1955 1.327 . S
C1953 H1976 0.950 . S
C1954 C1953 1.349 . S
C1954 C1966 1.349 . S
C1955 C1953 1.327 . S
C1955 C1971 1.429 . S
C1955 H1977 0.950 . S
C1956 H1952 0.949 . S
C1956 C1964 1.574 . S
C1956 C1972 1.368 . S
H1957 C1965 0.950 . S
H1958 C1963 0.950 . S
H1959 C1964 0.949 . S
H1960 C1966 0.950 . S
H1961 C1967 0.950 . S
H1962 C1968 0.949 . S
C1963 H1958 0.950 . S
C1963 C1965 1.327 . S
C1963 C1969 1.429 . S
C1964 C1956 1.574 . S
C1964 H1959 0.949 . S
C1964 C1970 1.368 . S
C1965 C1949 1.349 . S
C1965 H1957 0.950 . S
C1965 C1963 1.327 . S
C1966 C1954 1.349 . S
C1966 H1960 0.950 . S
C1966 C1967 1.327 . S
C1967 H1961 0.950 . S
C1967 C1966 1.327 . S
C1967 C1971 1.429 . S
C1968 C1951 1.574 . S
C1968 H1962 0.949 . S
C1968 C1972 1.368 . S
C1969 C1950 1.429 . S
C1969 C1963 1.429 . S
C1969 C1970 1.523 . S
C1970 C1951 1.368 . S
C1970 C1964 1.368 . S
C1970 C1969 1.523 . S
C1971 C1955 1.429 . S
C1971 C1967 1.429 . S
C1971 C1972 1.523 . S
C1972 C1956 1.368 . S
C1972 C1968 1.368 . S
C1972 C1971 1.523 . S
H1973 C1948 0.950 . S
H1974 C1950 0.950 . S
H1975 C1951 0.949 . S
H1976 C1953 0.950 . S
H1977 C1955 0.950 . S
C1978 C1979 1.349 . S
C1978 C1980 1.327 . S
C1978 H2003 0.950 . S
C1979 C1978 1.349 . S
C1979 C1995 1.349 . S
C1980 C1978 1.327 . S
C1980 C1999 1.429 . S
C1980 H2004 0.950 . S
C1981 C1998 1.574 . S
C1981 C2000 1.368 . S
C1981 H2005 0.949 . S
H1982 C1986 0.949 . S
C1983 C1984 1.349 . S
C1983 C1985 1.327 . S
C1983 H2006 0.950 . S
C1984 C1983 1.349 . S
C1984 C1996 1.349 . S
C1985 C1983 1.327 . S
C1985 C2001 1.429 . S
C1985 H2007 0.950 . S
C1986 H1982 0.949 . S
C1986 C1994 1.574 . S
C1986 C2002 1.368 . S
H1987 C1995 0.950 . S
H1988 C1993 0.950 . S
H1989 C1994 0.949 . S
H1990 C1996 0.950 1_545 S
H1991 C1997 0.950 . S
H1992 C1998 0.949 . S
C1993 H1988 0.950 . S
C1993 C1995 1.327 . S
C1993 C1999 1.429 . S
C1994 C1986 1.574 . S
C1994 H1989 0.949 . S
C1994 C2000 1.368 . S
C1995 C1979 1.349 . S
C1995 H1987 0.950 . S
C1995 C1993 1.327 . S
C1996 C1984 1.349 . S
C1996 H1990 0.950 1_565 S
C1996 C1997 1.327 . S
C1997 H1991 0.950 . S
C1997 C1996 1.327 . S
C1997 C2001 1.429 . S
C1998 C1981 1.574 . S
C1998 H1992 0.949 . S
C1998 C2002 1.368 . S
C1999 C1980 1.429 . S
C1999 C1993 1.429 . S
C1999 C2000 1.523 . S
C2000 C1981 1.368 . S
C2000 C1994 1.368 . S
C2000 C1999 1.523 . S
C2001 C1985 1.429 . S
C2001 C1997 1.429 . S
C2001 C2002 1.523 . S
C2002 C1986 1.368 . S
C2002 C1998 1.368 . S
C2002 C2001 1.523 . S
H2003 C1978 0.950 . S
H2004 C1980 0.950 . S
H2005 C1981 0.949 . S
H2006 C1983 0.950 . S
H2007 C1985 0.950 . S
C2008 C2009 1.349 . S
C2008 C2010 1.327 . S
C2008 H2033 0.950 . S
C2009 C2008 1.349 . S
C2009 C2025 1.349 . S
C2010 C2008 1.327 . S
C2010 C2029 1.429 . S
C2010 H2034 0.950 . S
C2011 C2028 1.574 . S
C2011 C2030 1.368 . S
C2011 H2035 0.949 . S
H2012 C2016 0.949 . S
C2013 C2014 1.349 . S
C2013 C2015 1.327 . S
C2013 H2036 0.950 . S
C2014 C2013 1.349 . S
C2014 C2026 1.349 . S
C2015 C2013 1.327 . S
C2015 C2031 1.429 . S
C2015 H2037 0.950 . S
C2016 H2012 0.949 . S
C2016 C2024 1.574 . S
C2016 C2032 1.368 . S
H2017 C2025 0.950 . S
H2018 C2023 0.950 . S
H2019 C2024 0.949 . S
H2020 C2026 0.950 . S
H2021 C2027 0.950 . S
H2022 C2028 0.949 . S
C2023 H2018 0.950 . S
C2023 C2025 1.327 . S
C2023 C2029 1.429 . S
C2024 C2016 1.574 . S
C2024 H2019 0.949 . S
C2024 C2030 1.368 . S
C2025 C2009 1.349 . S
C2025 H2017 0.950 . S
C2025 C2023 1.327 . S
C2026 C2014 1.349 . S
C2026 H2020 0.950 . S
C2026 C2027 1.327 . S
C2027 H2021 0.950 . S
C2027 C2026 1.327 . S
C2027 C2031 1.429 . S
C2028 C2011 1.574 . S
C2028 H2022 0.949 . S
C2028 C2032 1.368 . S
C2029 C2010 1.429 . S
C2029 C2023 1.429 . S
C2029 C2030 1.523 . S
C2030 C2011 1.368 . S
C2030 C2024 1.368 . S
C2030 C2029 1.523 . S
C2031 C2015 1.429 . S
C2031 C2027 1.429 . S
C2031 C2032 1.523 . S
C2032 C2016 1.368 . S
C2032 C2028 1.368 . S
C2032 C2031 1.523 . S
H2033 C2008 0.950 . S
H2034 C2010 0.950 . S
H2035 C2011 0.949 . S
H2036 C2013 0.950 . S
H2037 C2015 0.950 . S
C2038 C2039 1.349 . S
C2038 C2040 1.327 . S
C2038 H2063 0.950 . S
C2039 C2038 1.349 . S
C2039 C2055 1.349 . S
C2040 C2038 1.327 . S
C2040 C2059 1.429 . S
C2040 H2064 0.950 . S
C2041 C2058 1.574 . S
C2041 C2060 1.368 . S
C2041 H2065 0.949 . S
H2042 C2046 0.949 . S
C2043 C2044 1.349 . S
C2043 C2045 1.327 . S
C2043 H2066 0.950 . S
C2044 C2043 1.349 . S
C2044 C2056 1.349 . S
C2045 C2043 1.327 . S
C2045 C2061 1.429 . S
C2045 H2067 0.950 . S
C2046 H2042 0.949 . S
C2046 C2054 1.574 . S
C2046 C2062 1.368 . S
H2047 C2055 0.950 . S
H2048 C2053 0.950 . S
H2049 C2054 0.949 . S
H2050 C2056 0.950 . S
H2051 C2057 0.950 . S
H2052 C2058 0.949 . S
C2053 H2048 0.950 . S
C2053 C2055 1.327 . S
C2053 C2059 1.429 . S
C2054 C2046 1.574 . S
C2054 H2049 0.949 . S
C2054 C2060 1.368 . S
C2055 C2039 1.349 . S
C2055 H2047 0.950 . S
C2055 C2053 1.327 . S
C2056 C2044 1.349 . S
C2056 H2050 0.950 . S
C2056 C2057 1.327 . S
C2057 H2051 0.950 . S
C2057 C2056 1.327 . S
C2057 C2061 1.429 . S
C2058 C2041 1.574 . S
C2058 H2052 0.949 . S
C2058 C2062 1.368 . S
C2059 C2040 1.429 . S
C2059 C2053 1.429 . S
C2059 C2060 1.523 . S
C2060 C2041 1.368 . S
C2060 C2054 1.368 . S
C2060 C2059 1.523 . S
C2061 C2045 1.429 . S
C2061 C2057 1.429 . S
C2061 C2062 1.523 . S
C2062 C2046 1.368 . S
C2062 C2058 1.368 . S
C2062 C2061 1.523 . S
H2063 C2038 0.950 . S
H2064 C2040 0.950 . S
H2065 C2041 0.949 . S
H2066 C2043 0.950 . S
H2067 C2045 0.950 . S
C2068 C2069 1.349 . S
C2068 C2070 1.327 . S
C2068 H2093 0.950 . S
C2069 C2068 1.349 . S
C2069 C2085 1.349 . S
C2070 C2068 1.327 . S
C2070 C2089 1.429 . S
C2070 H2094 0.950 . S
C2071 C2088 1.574 . S
C2071 C2090 1.368 . S
C2071 H2095 0.949 . S
H2072 C2076 0.949 . S
C2073 C2074 1.349 . S
C2073 C2075 1.327 . S
C2073 H2096 0.950 . S
C2074 C2073 1.349 . S
C2074 C2086 1.349 . S
C2075 C2073 1.327 . S
C2075 C2091 1.429 . S
C2075 H2097 0.950 . S
C2076 H2072 0.949 . S
C2076 C2084 1.574 . S
C2076 C2092 1.368 . S
H2077 C2085 0.950 . S
H2078 C2083 0.950 . S
H2079 C2084 0.949 . S
H2080 C2086 0.950 1_565 S
H2081 C2087 0.950 . S
H2082 C2088 0.949 . S
C2083 H2078 0.950 . S
C2083 C2085 1.327 . S
C2083 C2089 1.429 . S
C2084 C2076 1.574 . S
C2084 H2079 0.949 . S
C2084 C2090 1.368 . S
C2085 C2069 1.349 . S
C2085 H2077 0.950 . S
C2085 C2083 1.327 . S
C2086 C2074 1.349 . S
C2086 H2080 0.950 1_545 S
C2086 C2087 1.327 . S
C2087 H2081 0.950 . S
C2087 C2086 1.327 . S
C2087 C2091 1.429 . S
C2088 C2071 1.574 . S
C2088 H2082 0.949 . S
C2088 C2092 1.368 . S
C2089 C2070 1.429 . S
C2089 C2083 1.429 . S
C2089 C2090 1.523 . S
C2090 C2071 1.368 . S
C2090 C2084 1.368 . S
C2090 C2089 1.523 . S
C2091 C2075 1.429 . S
C2091 C2087 1.429 . S
C2091 C2092 1.523 . S
C2092 C2076 1.368 . S
C2092 C2088 1.368 . S
C2092 C2091 1.523 . S
H2093 C2068 0.950 . S
H2094 C2070 0.950 . S
H2095 C2071 0.949 . S
H2096 C2073 0.950 . S
H2097 C2075 0.950 . S
C2098 C2099 1.349 . S
C2098 C2100 1.327 . S
C2098 H2123 0.950 . S
C2099 C2098 1.349 . S
C2099 C2115 1.349 . S
C2100 C2098 1.327 . S
C2100 C2119 1.429 . S
C2100 H2124 0.950 . S
C2101 C2118 1.574 . S
C2101 C2120 1.368 . S
C2101 H2125 0.949 . S
H2102 C2106 0.949 . S
C2103 C2104 1.349 . S
C2103 C2105 1.327 . S
C2103 H2126 0.950 . S
C2104 C2103 1.349 . S
C2104 C2116 1.349 . S
C2105 C2103 1.327 . S
C2105 C2121 1.429 . S
C2105 H2127 0.950 . S
C2106 H2102 0.949 . S
C2106 C2114 1.574 . S
C2106 C2122 1.368 . S
H2107 C2115 0.950 . S
H2108 C2113 0.950 . S
H2109 C2114 0.949 . S
H2110 C2116 0.950 . S
H2111 C2117 0.950 . S
H2112 C2118 0.949 . S
C2113 H2108 0.950 . S
C2113 C2115 1.327 . S
C2113 C2119 1.429 . S
C2114 C2106 1.574 . S
C2114 H2109 0.949 . S
C2114 C2120 1.368 . S
C2115 C2099 1.349 . S
C2115 H2107 0.950 . S
C2115 C2113 1.327 . S
C2116 C2104 1.349 . S
C2116 H2110 0.950 . S
C2116 C2117 1.327 . S
C2117 H2111 0.950 . S
C2117 C2116 1.327 . S
C2117 C2121 1.429 . S
C2118 C2101 1.574 . S
C2118 H2112 0.949 . S
C2118 C2122 1.368 . S
C2119 C2100 1.429 . S
C2119 C2113 1.429 . S
C2119 C2120 1.523 . S
C2120 C2101 1.368 . S
C2120 C2114 1.368 . S
C2120 C2119 1.523 . S
C2121 C2105 1.429 . S
C2121 C2117 1.429 . S
C2121 C2122 1.523 . S
C2122 C2106 1.368 . S
C2122 C2118 1.368 . S
C2122 C2121 1.523 . S
H2123 C2098 0.950 . S
H2124 C2100 0.950 . S
H2125 C2101 0.949 . S
H2126 C2103 0.950 . S
H2127 C2105 0.950 . S
C2128 C2129 1.349 . S
C2128 C2130 1.327 . S
C2128 H2153 0.950 . S
C2129 C2128 1.349 . S
C2129 C2145 1.349 . S
C2130 C2128 1.327 . S
C2130 C2149 1.429 . S
C2130 H2154 0.950 . S
C2131 C2148 1.574 . S
C2131 C2150 1.368 . S
C2131 H2155 0.949 . S
H2132 C2136 0.949 . S
C2133 C2134 1.349 . S
C2133 C2135 1.327 . S
C2133 H2156 0.950 . S
C2134 C2133 1.349 . S
C2134 C2146 1.349 . S
C2135 C2133 1.327 . S
C2135 C2151 1.429 . S
C2135 H2157 0.950 . S
C2136 H2132 0.949 . S
C2136 C2144 1.574 . S
C2136 C2152 1.368 . S
H2137 C2145 0.950 . S
H2138 C2143 0.950 . S
H2139 C2144 0.949 . S
H2140 C2146 0.950 . S
H2141 C2147 0.950 . S
H2142 C2148 0.949 . S
C2143 H2138 0.950 . S
C2143 C2145 1.327 . S
C2143 C2149 1.429 . S
C2144 C2136 1.574 . S
C2144 H2139 0.949 . S
C2144 C2150 1.368 . S
C2145 C2129 1.349 . S
C2145 H2137 0.950 . S
C2145 C2143 1.327 . S
C2146 C2134 1.349 . S
C2146 H2140 0.950 . S
C2146 C2147 1.327 . S
C2147 H2141 0.950 . S
C2147 C2146 1.327 . S
C2147 C2151 1.429 . S
C2148 C2131 1.574 . S
C2148 H2142 0.949 . S
C2148 C2152 1.368 . S
C2149 C2130 1.429 . S
C2149 C2143 1.429 . S
C2149 C2150 1.523 . S
C2150 C2131 1.368 . S
C2150 C2144 1.368 . S
C2150 C2149 1.523 . S
C2151 C2135 1.429 . S
C2151 C2147 1.429 . S
C2151 C2152 1.523 . S
C2152 C2136 1.368 . S
C2152 C2148 1.368 . S
C2152 C2151 1.523 . S
H2153 C2128 0.950 . S
H2154 C2130 0.950 . S
H2155 C2131 0.949 . S
H2156 C2133 0.950 . S
H2157 C2135 0.950 . S
C2158 C2159 1.349 . S
C2158 C2160 1.327 . S
C2158 H2183 0.950 . S
C2159 C2158 1.349 . S
C2159 C2175 1.349 . S
C2160 C2158 1.327 . S
C2160 C2179 1.429 . S
C2160 H2184 0.950 . S
C2161 C2178 1.574 . S
C2161 C2180 1.368 . S
C2161 H2185 0.949 . S
H2162 C2166 0.949 . S
C2163 C2164 1.349 . S
C2163 C2165 1.327 . S
C2163 H2186 0.950 . S
C2164 C2163 1.349 . S
C2164 C2176 1.349 . S
C2165 C2163 1.327 . S
C2165 C2181 1.429 . S
C2165 H2187 0.950 . S
C2166 H2162 0.949 . S
C2166 C2174 1.574 . S
C2166 C2182 1.368 . S
H2167 C2175 0.950 . S
H2168 C2173 0.950 . S
H2169 C2174 0.949 . S
H2170 C2176 0.950 . S
H2171 C2177 0.950 . S
H2172 C2178 0.949 . S
C2173 H2168 0.950 . S
C2173 C2175 1.327 . S
C2173 C2179 1.429 . S
C2174 C2166 1.574 . S
C2174 H2169 0.949 . S
C2174 C2180 1.368 . S
C2175 C2159 1.349 . S
C2175 H2167 0.950 . S
C2175 C2173 1.327 . S
C2176 C2164 1.349 . S
C2176 H2170 0.950 . S
C2176 C2177 1.327 . S
C2177 H2171 0.950 . S
C2177 C2176 1.327 . S
C2177 C2181 1.429 . S
C2178 C2161 1.574 . S
C2178 H2172 0.949 . S
C2178 C2182 1.368 . S
C2179 C2160 1.429 . S
C2179 C2173 1.429 . S
C2179 C2180 1.523 . S
C2180 C2161 1.368 . S
C2180 C2174 1.368 . S
C2180 C2179 1.523 . S
C2181 C2165 1.429 . S
C2181 C2177 1.429 . S
C2181 C2182 1.523 . S
C2182 C2166 1.368 . S
C2182 C2178 1.368 . S
C2182 C2181 1.523 . S
H2183 C2158 0.950 . S
H2184 C2160 0.950 . S
H2185 C2161 0.949 . S
H2186 C2163 0.950 . S
H2187 C2165 0.950 . S
C2188 C2189 1.349 . S
C2188 C2190 1.327 . S
C2188 H2213 0.950 . S
C2189 C2188 1.349 . S
C2189 C2205 1.349 . S
C2190 C2188 1.327 . S
C2190 C2209 1.429 . S
C2190 H2214 0.950 . S
C2191 C2208 1.574 . S
C2191 C2210 1.368 . S
C2191 H2215 0.949 . S
H2192 C2196 0.949 . S
C2193 C2194 1.349 . S
C2193 C2195 1.327 . S
C2193 H2216 0.950 . S
C2194 C2193 1.349 . S
C2194 C2206 1.349 . S
C2195 C2193 1.327 . S
C2195 C2211 1.429 . S
C2195 H2217 0.950 . S
C2196 H2192 0.949 . S
C2196 C2204 1.574 . S
C2196 C2212 1.368 . S
H2197 C2205 0.950 . S
H2198 C2203 0.950 . S
H2199 C2204 0.949 . S
H2200 C2206 0.950 . S
H2201 C2207 0.950 . S
H2202 C2208 0.949 . S
C2203 H2198 0.950 . S
C2203 C2205 1.327 . S
C2203 C2209 1.429 . S
C2204 C2196 1.574 . S
C2204 H2199 0.949 . S
C2204 C2210 1.368 . S
C2205 C2189 1.349 . S
C2205 H2197 0.950 . S
C2205 C2203 1.327 . S
C2206 C2194 1.349 . S
C2206 H2200 0.950 . S
C2206 C2207 1.327 . S
C2207 H2201 0.950 . S
C2207 C2206 1.327 . S
C2207 C2211 1.429 . S
C2208 C2191 1.574 . S
C2208 H2202 0.949 . S
C2208 C2212 1.368 . S
C2209 C2190 1.429 . S
C2209 C2203 1.429 . S
C2209 C2210 1.523 . S
C2210 C2191 1.368 . S
C2210 C2204 1.368 . S
C2210 C2209 1.523 . S
C2211 C2195 1.429 . S
C2211 C2207 1.429 . S
C2211 C2212 1.523 . S
C2212 C2196 1.368 . S
C2212 C2208 1.368 . S
C2212 C2211 1.523 . S
H2213 C2188 0.950 . S
H2214 C2190 0.950 . S
H2215 C2191 0.949 . S
H2216 C2193 0.950 . S
H2217 C2195 0.950 . S
C2218 C2219 1.349 . S
C2218 C2220 1.327 . S
C2218 H2243 0.950 . S
C2219 C2218 1.349 . S
C2219 C2235 1.349 . S
C2220 C2218 1.327 . S
C2220 C2239 1.429 . S
C2220 H2244 0.950 . S
C2221 C2238 1.574 . S
C2221 C2240 1.368 . S
C2221 H2245 0.949 . S
H2222 C2226 0.949 . S
C2223 C2224 1.349 . S
C2223 C2225 1.327 . S
C2223 H2246 0.950 . S
C2224 C2223 1.349 . S
C2224 C2236 1.349 . S
C2225 C2223 1.327 . S
C2225 C2241 1.429 . S
C2225 H2247 0.950 . S
C2226 H2222 0.949 . S
C2226 C2234 1.574 . S
C2226 C2242 1.368 . S
H2227 C2235 0.950 . S
H2228 C2233 0.950 . S
H2229 C2234 0.949 . S
H2230 C2236 0.950 . S
H2231 C2237 0.950 . S
H2232 C2238 0.949 . S
C2233 H2228 0.950 . S
C2233 C2235 1.327 . S
C2233 C2239 1.429 . S
C2234 C2226 1.574 . S
C2234 H2229 0.949 . S
C2234 C2240 1.368 . S
C2235 C2219 1.349 . S
C2235 H2227 0.950 . S
C2235 C2233 1.327 . S
C2236 C2224 1.349 . S
C2236 H2230 0.950 . S
C2236 C2237 1.327 . S
C2237 H2231 0.950 . S
C2237 C2236 1.327 . S
C2237 C2241 1.429 . S
C2238 C2221 1.574 . S
C2238 H2232 0.949 . S
C2238 C2242 1.368 . S
C2239 C2220 1.429 . S
C2239 C2233 1.429 . S
C2239 C2240 1.523 . S
C2240 C2221 1.368 . S
C2240 C2234 1.368 . S
C2240 C2239 1.523 . S
C2241 C2225 1.429 . S
C2241 C2237 1.429 . S
C2241 C2242 1.523 . S
C2242 C2226 1.368 . S
C2242 C2238 1.368 . S
C2242 C2241 1.523 . S
H2243 C2218 0.950 . S
H2244 C2220 0.950 . S
H2245 C2221 0.949 . S
H2246 C2223 0.950 . S
H2247 C2225 0.950 . S
C2248 C2249 1.349 . S
C2248 C2250 1.327 . S
C2248 H2273 0.950 . S
C2249 C2248 1.349 . S
C2249 C2265 1.349 . S
C2250 C2248 1.327 . S
C2250 C2269 1.429 . S
C2250 H2274 0.950 . S
C2251 C2268 1.574 . S
C2251 C2270 1.368 . S
C2251 H2275 0.949 . S
H2252 C2256 0.949 . S
C2253 C2254 1.349 . S
C2253 C2255 1.327 . S
C2253 H2276 0.950 . S
C2254 C2253 1.349 . S
C2254 C2266 1.349 . S
C2255 C2253 1.327 . S
C2255 C2271 1.429 . S
C2255 H2277 0.950 . S
C2256 H2252 0.949 . S
C2256 C2264 1.574 . S
C2256 C2272 1.368 . S
H2257 C2265 0.950 . S
H2258 C2263 0.950 . S
H2259 C2264 0.949 . S
H2260 C2266 0.950 . S
H2261 C2267 0.950 . S
H2262 C2268 0.949 . S
C2263 H2258 0.950 . S
C2263 C2265 1.327 . S
C2263 C2269 1.429 . S
C2264 C2256 1.574 . S
C2264 H2259 0.949 . S
C2264 C2270 1.368 . S
C2265 C2249 1.349 . S
C2265 H2257 0.950 . S
C2265 C2263 1.327 . S
C2266 C2254 1.349 . S
C2266 H2260 0.950 . S
C2266 C2267 1.327 . S
C2267 H2261 0.950 . S
C2267 C2266 1.327 . S
C2267 C2271 1.429 . S
C2268 C2251 1.574 . S
C2268 H2262 0.949 . S
C2268 C2272 1.368 . S
C2269 C2250 1.429 . S
C2269 C2263 1.429 . S
C2269 C2270 1.523 . S
C2270 C2251 1.368 . S
C2270 C2264 1.368 . S
C2270 C2269 1.523 . S
C2271 C2255 1.429 . S
C2271 C2267 1.429 . S
C2271 C2272 1.523 . S
C2272 C2256 1.368 . S
C2272 C2268 1.368 . S
C2272 C2271 1.523 . S
H2273 C2248 0.950 . S
H2274 C2250 0.950 . S
H2275 C2251 0.949 . S
H2276 C2253 0.950 . S
H2277 C2255 0.950 . S
C2278 C2279 1.349 . S
C2278 C2280 1.327 . S
C2278 H2303 0.950 . S
C2279 C2278 1.349 . S
C2279 C2295 1.349 . S
C2280 C2278 1.327 . S
C2280 C2299 1.429 . S
C2280 H2304 0.950 . S
C2281 C2298 1.574 . S
C2281 C2300 1.368 . S
C2281 H2305 0.949 . S
H2282 C2286 0.949 . S
C2283 C2284 1.349 . S
C2283 C2285 1.327 . S
C2283 H2306 0.950 . S
C2284 C2283 1.349 . S
C2284 C2296 1.349 . S
C2285 C2283 1.327 . S
C2285 C2301 1.429 . S
C2285 H2307 0.950 . S
C2286 H2282 0.949 . S
C2286 C2294 1.574 . S
C2286 C2302 1.368 . S
H2287 C2295 0.950 . S
H2288 C2293 0.950 . S
H2289 C2294 0.949 . S
H2290 C2296 0.950 . S
H2291 C2297 0.950 . S
H2292 C2298 0.949 . S
C2293 H2288 0.950 . S
C2293 C2295 1.327 . S
C2293 C2299 1.429 . S
C2294 C2286 1.574 . S
C2294 H2289 0.949 . S
C2294 C2300 1.368 . S
C2295 C2279 1.349 . S
C2295 H2287 0.950 . S
C2295 C2293 1.327 . S
C2296 C2284 1.349 . S
C2296 H2290 0.950 . S
C2296 C2297 1.327 . S
C2297 H2291 0.950 . S
C2297 C2296 1.327 . S
C2297 C2301 1.429 . S
C2298 C2281 1.574 . S
C2298 H2292 0.949 . S
C2298 C2302 1.368 . S
C2299 C2280 1.429 . S
C2299 C2293 1.429 . S
C2299 C2300 1.523 . S
C2300 C2281 1.368 . S
C2300 C2294 1.368 . S
C2300 C2299 1.523 . S
C2301 C2285 1.429 . S
C2301 C2297 1.429 . S
C2301 C2302 1.523 . S
C2302 C2286 1.368 . S
C2302 C2298 1.368 . S
C2302 C2301 1.523 . S
H2303 C2278 0.950 . S
H2304 C2280 0.950 . S
H2305 C2281 0.949 . S
H2306 C2283 0.950 . S
H2307 C2285 0.950 . S
C2308 C2309 1.349 . S
C2308 C2310 1.327 . S
C2308 H2333 0.950 . S
C2309 C2308 1.349 . S
C2309 C2325 1.349 . S
C2310 C2308 1.327 . S
C2310 C2329 1.429 . S
C2310 H2334 0.950 . S
C2311 C2328 1.574 . S
C2311 C2330 1.368 . S
C2311 H2335 0.949 . S
H2312 C2316 0.949 . S
C2313 C2314 1.349 . S
C2313 C2315 1.327 . S
C2313 H2336 0.950 . S
C2314 C2313 1.349 . S
C2314 C2326 1.349 . S
C2315 C2313 1.327 . S
C2315 C2331 1.429 . S
C2315 H2337 0.950 . S
C2316 H2312 0.949 . S
C2316 C2324 1.574 . S
C2316 C2332 1.368 . S
H2317 C2325 0.950 . S
H2318 C2323 0.950 . S
H2319 C2324 0.949 . S
H2320 C2326 0.950 . S
H2321 C2327 0.950 . S
H2322 C2328 0.949 . S
C2323 H2318 0.950 . S
C2323 C2325 1.327 . S
C2323 C2329 1.429 . S
C2324 C2316 1.574 . S
C2324 H2319 0.949 . S
C2324 C2330 1.368 . S
C2325 C2309 1.349 . S
C2325 H2317 0.950 . S
C2325 C2323 1.327 . S
C2326 C2314 1.349 . S
C2326 H2320 0.950 . S
C2326 C2327 1.327 . S
C2327 H2321 0.950 . S
C2327 C2326 1.327 . S
C2327 C2331 1.429 . S
C2328 C2311 1.574 . S
C2328 H2322 0.949 . S
C2328 C2332 1.368 . S
C2329 C2310 1.429 . S
C2329 C2323 1.429 . S
C2329 C2330 1.523 . S
C2330 C2311 1.368 . S
C2330 C2324 1.368 . S
C2330 C2329 1.523 . S
C2331 C2315 1.429 . S
C2331 C2327 1.429 . S
C2331 C2332 1.523 . S
C2332 C2316 1.368 . S
C2332 C2328 1.368 . S
C2332 C2331 1.523 . S
H2333 C2308 0.950 . S
H2334 C2310 0.950 . S
H2335 C2311 0.949 . S
H2336 C2313 0.950 . S
H2337 C2315 0.950 . S
C2338 C2339 1.349 . S
C2338 C2340 1.327 . S
C2338 H2363 0.950 . S
C2339 C2338 1.349 . S
C2339 C2355 1.349 . S
C2340 C2338 1.327 . S
C2340 C2359 1.429 . S
C2340 H2364 0.950 . S
C2341 C2358 1.574 . S
C2341 C2360 1.368 . S
C2341 H2365 0.949 . S
H2342 C2346 0.949 . S
C2343 C2344 1.349 . S
C2343 C2345 1.327 . S
C2343 H2366 0.950 . S
C2344 C2343 1.349 . S
C2344 C2356 1.349 . S
C2345 C2343 1.327 . S
C2345 C2361 1.429 . S
C2345 H2367 0.950 . S
C2346 H2342 0.949 . S
C2346 C2354 1.574 . S
C2346 C2362 1.368 . S
H2347 C2355 0.950 . S
H2348 C2353 0.950 . S
H2349 C2354 0.949 . S
H2350 C2356 0.950 . S
H2351 C2357 0.950 . S
H2352 C2358 0.949 . S
C2353 H2348 0.950 . S
C2353 C2355 1.327 . S
C2353 C2359 1.429 . S
C2354 C2346 1.574 . S
C2354 H2349 0.949 . S
C2354 C2360 1.368 . S
C2355 C2339 1.349 . S
C2355 H2347 0.950 . S
C2355 C2353 1.327 . S
C2356 C2344 1.349 . S
C2356 H2350 0.950 . S
C2356 C2357 1.327 . S
C2357 H2351 0.950 . S
C2357 C2356 1.327 . S
C2357 C2361 1.429 . S
C2358 C2341 1.574 . S
C2358 H2352 0.949 . S
C2358 C2362 1.368 . S
C2359 C2340 1.429 . S
C2359 C2353 1.429 . S
C2359 C2360 1.523 . S
C2360 C2341 1.368 . S
C2360 C2354 1.368 . S
C2360 C2359 1.523 . S
C2361 C2345 1.429 . S
C2361 C2357 1.429 . S
C2361 C2362 1.523 . S
C2362 C2346 1.368 . S
C2362 C2358 1.368 . S
C2362 C2361 1.523 . S
H2363 C2338 0.950 . S
H2364 C2340 0.950 . S
H2365 C2341 0.949 . S
H2366 C2343 0.950 . S
H2367 C2345 0.950 . S
C449 C383 1.228 . S
C454 C5 1.223 . S
C479 C19 1.223 1_655 S
C484 C117 1.228 . S
C509 C355 1.228 . S
C514 C33 1.223 . S
C539 C47 1.223 . S
C544 C145 1.228 . S
C569 C61 1.223 . S
C574 C411 1.228 . S
C599 C75 1.223 . S
C604 C201 1.228 . S
C629 C89 1.223 . S
C634 C439 1.228 . S
C659 C103 1.223 1_655 S
C664 C173 1.228 . S
C689 C275 1.267 . S
C694 C121 1.253 . S
C719 C9 1.267 . S
C724 C135 1.210 1_455 S
C749 C247 1.267 . S
C754 C149 1.253 . S
C779 C163 1.253 . S
C784 C37 1.267 . S
C809 C303 1.267 . S
C814 C177 1.253 . S
C839 C93 1.267 . S
C844 C191 1.253 . S
C869 C205 1.253 . S
C874 C331 1.267 . S
C899 C65 1.267 . S
C904 C219 1.210 1_455 S
C929 C229 1.223 . S
C934 C159 1.228 . S
C959 C243 1.223 . S
C964 C341 1.228 . S
C989 C131 1.228 . S
C994 C257 1.223 . S
C1019 C369 1.228 . S
C1024 C271 1.223 1_455 S
C1049 C187 1.228 . S
C1054 C285 1.223 . S
C1079 C425 1.228 . S
C1084 C299 1.223 1_455 S
C1109 C215 1.228 . S
C1114 C313 1.223 . S
C1139 C327 1.223 . S
C1144 C397 1.228 . S
C1169 C51 1.267 . S
C1174 C345 1.253 . S
C1199 C359 1.253 . S
C1204 C233 1.267 . S
C1229 C373 1.253 . S
C1234 C23 1.267 . S
C1259 C387 1.210 1_655 S
C1264 C261 1.267 . S
C1289 C401 1.253 . S
C1294 C79 1.267 . S
C1319 C415 1.210 1_655 S
C1324 C317 1.267 . S
C1349 C429 1.253 . S
C1354 C107 1.267 . S
C1379 C443 1.253 . S
C1384 C289 1.267 . S
C1409 C347 1.509 . S
C1414 C0 1.505 . S
C1439 C14 1.505 . S
C1444 C137 1.509 . S
C1469 C375 1.509 . S
C1474 C28 1.505 . S
C1499 C42 1.505 . S
C1504 C165 1.509 . S
C1529 C403 1.509 . S
C1534 C56 1.505 . S
C1559 C70 1.505 . S
C1564 C193 1.509 . S
C1589 C431 1.509 . S
C1594 C84 1.505 . S
C1619 C98 1.505 . S
C1624 C221 1.509 . S
C1649 C123 1.509 . S
C1654 C224 1.505 . S
C1679 C151 1.509 . S
C1684 C252 1.505 . S
C1709 C179 1.509 . S
C1714 C280 1.505 . S
C1739 C207 1.509 . S
C1744 C308 1.505 . S
C1769 C238 1.505 . S
C1774 C361 1.509 . S
C1799 C389 1.509 . S
C1804 C266 1.505 . S
C1829 C417 1.509 . S
C1834 C294 1.505 . S
C1859 C322 1.505 . S
C1864 C445 1.509 . S
C1889 C11 1.399 . S
C1894 C81 1.399 1_545 S
C1919 C25 1.399 1_545 S
C1924 C95 1.399 . S
C1949 C39 1.399 . S
C1954 C109 1.399 1_565 S
C1979 C67 1.399 . S
C1984 C53 1.399 1_565 S
C2009 C112 1.546 . S
C2014 C182 1.546 1_565 S
C2039 C126 1.546 1_565 S
C2044 C196 1.546 . S
C2069 C140 1.546 . S
C2074 C210 1.546 1_545 S
C2099 C154 1.546 1_545 S
C2104 C168 1.546 . S
C2129 C235 1.399 . S
C2134 C305 1.399 . S
C2159 C319 1.399 . S
C2164 C249 1.399 . S
C2189 C263 1.399 . S
C2194 C333 1.399 . S
C2219 C277 1.399 . S
C2224 C291 1.399 . S
C2249 C406 1.546 . S
C2254 C336 1.546 . S
C2279 C350 1.546 . S
C2284 C420 1.546 . S
C2309 C434 1.546 . S
C2314 C364 1.546 . S
C2339 C378 1.546 . S
C2344 C392 1.546 . S
