# Generated by pormake.
# Topology uni, (4)-cn, num edge types: 1
# Building blocks:
#     Node 0, Type 0, BuildingBlock: UXUYUI_clean_sbu_0, # of connection points: 4
#     Node 1, Type 0, BuildingBlock: UXUYUI_clean_sbu_0, # of connection points: 4
#     Node 2, Type 0, BuildingBlock: UXUYUI_clean_sbu_0, # of connection points: 4
#     Node 3, Type 0, BuildingBlock: UXUYUI_clean_sbu_0, # of connection points: 4
#     Node 4, Type 0, BuildingBlock: UXUYUI_clean_sbu_0, # of connection points: 4
#     Node 5, Type 0, BuildingBlock: UXUYUI_clean_sbu_0, # of connection points: 4
#     Edge 6, Type (0, 0), BuildingBlock: MIFKUJ_clean_linker_0, # of connection points: 2
#     Edge 7, Type (0, 0), BuildingBlock: MIFKUJ_clean_linker_0, # of connection points: 2
#     Edge 8, Type (0, 0), BuildingBlock: MIFKUJ_clean_linker_0, # of connection points: 2
#     Edge 9, Type (0, 0), BuildingBlock: MIFKUJ_clean_linker_0, # of connection points: 2
#     Edge 10, Type (0, 0), BuildingBlock: MIFKUJ_clean_linker_0, # of connection points: 2
#     Edge 11, Type (0, 0), BuildingBlock: MIFKUJ_clean_linker_0, # of connection points: 2
#     Edge 12, Type (0, 0), BuildingBlock: MIFKUJ_clean_linker_0, # of connection points: 2
#     Edge 13, Type (0, 0), BuildingBlock: MIFKUJ_clean_linker_0, # of connection points: 2
#     Edge 14, Type (0, 0), BuildingBlock: MIFKUJ_clean_linker_0, # of connection points: 2
#     Edge 15, Type (0, 0), BuildingBlock: MIFKUJ_clean_linker_0, # of connection points: 2
#     Edge 16, Type (0, 0), BuildingBlock: MIFKUJ_clean_linker_0, # of connection points: 2
#     Edge 17, Type (0, 0), BuildingBlock: MIFKUJ_clean_linker_0, # of connection points: 2
# Relax obj value: 0.104
# Max RMSD: 0.125
# Mean RMSD: 0.125
data_MOF--net-uni--node1-UXUYUI_clean_sbu_0--edge1-MIFKUJ_clean_linker_0
_symmetry_space_group_name_H-M    P1
_symmetry_Int_Tables_number       1
_symmetry_cell_setting            triclinic
loop_
_symmetry_equiv_pos_as_xyz
'x, y, z'
_cell_length_a     68.627219
_cell_length_b     68.6403
_cell_length_c     40.978747
_cell_angle_alpha  90.007058
_cell_angle_beta   89.997016
_cell_angle_gamma 119.9931
loop_
_atom_site_label
_atom_site_type_symbol
_atom_site_fract_x
_atom_site_fract_y
_atom_site_fract_z
_atom_type_partial_charge
Li0 Li 0.65832 0.03027 0.04559 0.0
Li1 Li 0.62493 0.01556 0.08108 0.0
Li2 Li 0.63856 0.99072 0.05756 0.0
Li3 Li 0.61963 0.00505 0.02246 0.0
C4 C 0.67284 0.03013 0.10574 0.0
N5 N 0.71186 0.05967 0.13826 0.0
C6 C 0.67248 0.04457 0.12949 0.0
C7 C 0.69298 0.03055 0.09875 0.0
C8 C 0.69241 0.05941 0.14562 0.0
C9 C 0.71255 0.04567 0.11537 0.0
C10 C 0.62418 0.05001 0.04192 0.0
C11 C 0.59323 0.05703 0.03591 0.0
N12 N 0.60758 0.07934 0.04087 0.0
C13 C 0.63864 0.07305 0.04661 0.0
C14 C 0.60131 0.04195 0.03625 0.0
C15 C 0.62992 0.08759 0.04613 0.0
C16 C 0.69843 0.05522 0.00974 0.0
N17 N 0.68692 0.05595 0.03626 0.0
C18 C 0.71581 0.0936 0.04799 0.0
C19 C 0.69515 0.07463 0.05532 0.0
C20 C 0.72805 0.0934 0.02062 0.0
C21 C 0.71914 0.07382 0.00146 0.0
H22 H 0.69139 0.04031 0.99469 0.0
H23 H 0.68562 0.07486 0.07614 0.0
C24 C 0.60122 0.00249 0.13959 0.0
N25 N 0.61107 0.02007 0.11845 0.0
C26 C 0.58942 0.00351 0.16666 0.0
C27 C 0.5984 0.04088 0.15004 0.0
C28 C 0.61025 0.03923 0.12349 0.0
C29 C 0.58765 0.02278 0.17186 0.0
H30 H 0.6022 0.98748 0.135 0.0
H31 H 0.61861 0.05321 0.10691 0.0
C32 C 0.65418 0.99116 0.99878 0.0
N33 N 0.66577 0.96212 0.96951 0.0
C34 C 0.64008 0.97583 0.97528 0.0
C35 C 0.67428 0.9919 0.00716 0.0
C36 C 0.64622 0.96125 0.9608 0.0
C37 C 0.6798 0.97702 0.99217 0.0
C38 C 0.58442 0.97183 0.06167 0.0
C39 C 0.5744 0.94866 0.05639 0.0
C40 C 0.57087 0.98122 0.06824 0.0
C41 C 0.55096 0.93537 0.05704 0.0
C42 C 0.5475 0.96738 0.06873 0.0
N43 N 0.53811 0.94494 0.06311 0.0
C44 C 0.65497 0.96606 0.09157 0.0
C45 C 0.62966 0.946 0.04865 0.0
C46 C 0.65689 0.9473 0.09951 0.0
N47 N 0.64149 0.96506 0.06657 0.0
C48 C 0.63106 0.92685 0.05573 0.0
C49 C 0.6447 0.92729 0.08162 0.0
H50 H 0.66398 0.98132 0.1057 0.0
H51 H 0.61903 0.94564 0.02893 0.0
C52 C 0.60454 0.01802 0.96766 0.0
N53 N 0.60064 0.99979 0.98567 0.0
C54 C 0.5903 0.01578 0.94187 0.0
C55 C 0.56909 0.97577 0.9522 0.0
C56 C 0.58363 0.97884 0.97806 0.0
C57 C 0.57212 0.99448 0.93415 0.0
H58 H 0.61852 0.03442 0.97373 0.0
H59 H 0.58124 0.96452 0.99216 0.0
O60 O 0.65353 0.0156 0.08954 0.0
O61 O 0.63249 0.03555 0.04238 0.0
O62 O 0.6483 0.00534 0.01354 0.0
O63 O 0.60737 0.98505 0.06115 0.0
H64 H 0.65703 0.04442 0.13526 0.0
H65 H 0.69352 0.01945 0.08048 0.0
H66 H 0.69242 0.07076 0.16395 0.0
H67 H 0.72829 0.04628 0.11006 0.0
H68 H 0.57557 0.05099 0.03158 0.0
H69 H 0.6564 0.07967 0.0507 0.0
H70 H 0.58993 0.02431 0.03171 0.0
H71 H 0.64092 0.10544 0.04991 0.0
H72 H 0.72212 0.10823 0.06364 0.0
H73 H 0.7278 0.07303 0.97985 0.0
H74 H 0.58123 0.98914 0.18283 0.0
H75 H 0.59769 0.05616 0.15353 0.0
H76 H 0.6245 0.97509 0.96846 0.0
H77 H 0.68539 0.00371 0.02525 0.0
H78 H 0.63542 0.94921 0.9427 0.0
H79 H 0.69523 0.97729 0.99858 0.0
H80 H 0.58457 0.94101 0.05168 0.0
H81 H 0.57825 0.99895 0.07331 0.0
H82 H 0.543 0.91745 0.05277 0.0
H83 H 0.53684 0.97447 0.07372 0.0
H84 H 0.66734 0.9483 0.11996 0.0
H85 H 0.62158 0.91187 0.04107 0.0
H86 H 0.59347 0.03056 0.92813 0.0
H87 H 0.55529 0.95906 0.94693 0.0
Li88 Li 0.63758 0.6573 0.21255 0.0
Li89 Li 0.62024 0.6246 0.24772 0.0
Li90 Li 0.65829 0.63724 0.22586 0.0
Li91 Li 0.62473 0.61901 0.19093 0.0
C92 C 0.64557 0.66347 0.28301 0.0
N93 N 0.63917 0.68255 0.33841 0.0
C94 C 0.62991 0.67082 0.28296 0.0
C95 C 0.65801 0.66585 0.31121 0.0
C96 C 0.6269 0.68041 0.3112 0.0
C97 C 0.65453 0.67554 0.33898 0.0
C98 C 0.58496 0.62454 0.21761 0.0
C99 C 0.54712 0.59474 0.22852 0.0
N100 N 0.54079 0.61034 0.23397 0.0
C101 C 0.57804 0.64028 0.22299 0.0
C102 C 0.56934 0.60158 0.22007 0.0
C103 C 0.55565 0.63276 0.23135 0.0
C104 C 0.62791 0.68552 0.17594 0.0
N105 N 0.64056 0.68551 0.2014 0.0
C106 C 0.6565 0.72517 0.20832 0.0
C107 C 0.65483 0.70478 0.21749 0.0
C108 C 0.64342 0.72568 0.18227 0.0
C109 C 0.62905 0.70548 0.16593 0.0
H110 H 0.61691 0.66993 0.1634 0.0
H111 H 0.66488 0.70431 0.23748 0.0
C112 C 0.60324 0.59364 0.29885 0.0
N113 N 0.60173 0.61089 0.28524 0.0
C114 C 0.58952 0.58166 0.32509 0.0
C115 C 0.57329 0.60581 0.32362 0.0
C116 C 0.58745 0.61741 0.29749 0.0
C117 C 0.574 0.58746 0.33754 0.0
H118 H 0.61502 0.58903 0.28912 0.0
H119 H 0.5867 0.63135 0.28669 0.0
C120 C 0.67293 0.6656 0.17093 0.0
N121 N 0.71132 0.70317 0.14867 0.0
C122 C 0.678 0.66819 0.13764 0.0
C123 C 0.68734 0.68213 0.19291 0.0
C124 C 0.69751 0.6873 0.12687 0.0
C125 C 0.70668 0.70099 0.18117 0.0
C126 C 0.62853 0.58563 0.22047 0.0
C127 C 0.64635 0.58256 0.21078 0.0
C128 C 0.60669 0.5672 0.22141 0.0
C129 C 0.64193 0.56112 0.20164 0.0
C130 C 0.60295 0.54604 0.21203 0.0
N131 N 0.6205 0.54346 0.2024 0.0
C132 C 0.68965 0.63604 0.26762 0.0
C133 C 0.70242 0.64406 0.21291 0.0
C134 C 0.70966 0.63714 0.27734 0.0
N135 N 0.6865 0.63968 0.23598 0.0
C136 C 0.72278 0.64546 0.2216 0.0
C137 C 0.72664 0.642 0.25424 0.0
H138 H 0.67643 0.63199 0.28523 0.0
H139 H 0.69933 0.64636 0.18774 0.0
C140 C 0.59168 0.59845 0.14271 0.0
N141 N 0.61093 0.59987 0.15415 0.0
C142 C 0.58002 0.5841 0.11688 0.0
C143 C 0.60857 0.57337 0.11415 0.0
C144 C 0.6198 0.58813 0.13993 0.0
C145 C 0.58821 0.57101 0.10252 0.0
H146 H 0.58534 0.6085 0.1536 0.0
H147 H 0.63551 0.59007 0.14872 0.0
O148 O 0.64866 0.65389 0.25567 0.0
O149 O 0.60682 0.63158 0.20947 0.0
O150 O 0.65374 0.64709 0.18173 0.0
O151 O 0.63252 0.60649 0.22951 0.0
H152 H 0.62005 0.66898 0.26144 0.0
H153 H 0.67026 0.66033 0.31167 0.0
H154 H 0.61477 0.68609 0.31151 0.0
H155 H 0.66405 0.67749 0.36099 0.0
H156 H 0.53489 0.57703 0.23071 0.0
H157 H 0.58983 0.65811 0.22085 0.0
H158 H 0.57436 0.5892 0.21557 0.0
H159 H 0.55008 0.64475 0.23577 0.0
H160 H 0.66767 0.74029 0.22176 0.0
H161 H 0.61898 0.70513 0.14536 0.0
H162 H 0.59107 0.568 0.3355 0.0
H163 H 0.56153 0.61082 0.33224 0.0
H164 H 0.66696 0.65557 0.12033 0.0
H165 H 0.6837 0.68042 0.21876 0.0
H166 H 0.70167 0.68953 0.10117 0.0
H167 H 0.71799 0.7139 0.1979 0.0
H168 H 0.66337 0.5966 0.21004 0.0
H169 H 0.59277 0.56921 0.22936 0.0
H170 H 0.65553 0.55852 0.19389 0.0
H171 H 0.58611 0.53165 0.21249 0.0
H172 H 0.71162 0.63381 0.3026 0.0
H173 H 0.73539 0.64938 0.20296 0.0
H174 H 0.5648 0.58341 0.10813 0.0
H175 H 0.61556 0.56366 0.10386 0.0
Li176 Li 0.99277 0.63808 0.37783 0.0
Li177 Li 0.00826 0.62007 0.41306 0.0
Li178 Li 0.03272 0.65841 0.38854 0.0
Li179 Li 0.01791 0.62453 0.35426 0.0
C180 C 0.99482 0.65494 0.43751 0.0
N181 N 0.9678 0.66766 0.47036 0.0
C182 C 0.98103 0.6417 0.463 0.0
C183 C 0.99508 0.67478 0.42897 0.0
C184 C 0.96744 0.64839 0.47926 0.0
C185 C 0.98122 0.68087 0.44579 0.0
C186 C 0.9728 0.58455 0.3782 0.0
C187 C 0.96408 0.5459 0.37584 0.0
N188 N 0.94247 0.53909 0.38443 0.0
C189 C 0.95042 0.57715 0.38657 0.0
C190 C 0.97963 0.56879 0.37242 0.0
C191 C 0.93538 0.55411 0.38977 0.0
C192 C 0.96657 0.64997 0.33919 0.0
N193 N 0.9669 0.64066 0.36832 0.0
C194 C 0.93008 0.63408 0.38108 0.0
C195 C 0.94912 0.63269 0.38917 0.0
C196 C 0.92921 0.64343 0.35101 0.0
C197 C 0.9478 0.6515 0.32998 0.0
H198 H 0.98079 0.65594 0.32287 0.0
H199 H 0.94954 0.62491 0.41187 0.0
C200 C 0.02293 0.60522 0.46621 0.0
N201 N 0.00404 0.60167 0.45034 0.0
C202 C 0.02149 0.59147 0.49223 0.0
C203 C 0.98103 0.57136 0.48642 0.0
C204 C 0.98328 0.58547 0.46034 0.0
C205 C 0.00035 0.57404 0.50234 0.0
H206 H 0.0392 0.6186 0.45836 0.0
H207 H 0.96845 0.58338 0.44805 0.0
C208 C 0.0307 0.67225 0.32859 0.0
N209 N 0.05791 0.7118 0.29549 0.0
C210 C 0.04559 0.67298 0.30472 0.0
C211 C 0.02944 0.69154 0.33536 0.0
C212 C 0.05925 0.69316 0.2883 0.0
C213 C 0.0434 0.71141 0.31845 0.0
C214 C 0.05267 0.62431 0.39027 0.0
C215 C 0.07563 0.63857 0.38459 0.0
C216 C 0.04432 0.60126 0.3943 0.0
C217 C 0.0898 0.62946 0.3824 0.0
C218 C 0.05902 0.59279 0.39196 0.0
N219 N 0.08126 0.60694 0.38605 0.0
C220 C 0.05801 0.69894 0.42329 0.0
C221 C 0.07674 0.69532 0.37713 0.0
C222 C 0.07678 0.71962 0.43114 0.0
N223 N 0.05833 0.68725 0.39673 0.0
C224 C 0.09588 0.71595 0.38402 0.0
C225 C 0.09614 0.72832 0.41153 0.0
H226 H 0.04333 0.692 0.43882 0.0
H227 H 0.0767 0.6856 0.35637 0.0
C228 C 0.0036 0.59578 0.30052 0.0
N229 N 0.02237 0.6102 0.31747 0.0
C230 C 0.005 0.58355 0.27436 0.0
C231 C 0.04521 0.60185 0.28263 0.0
C232 C 0.04301 0.61377 0.30867 0.0
C233 C 0.02598 0.58625 0.26536 0.0
H234 H 0.98745 0.5936 0.30762 0.0
H235 H 0.05778 0.62577 0.32188 0.0
O236 O 0.00815 0.64861 0.42122 0.0
O237 O 0.98775 0.60708 0.37496 0.0
O238 O 0.01734 0.65271 0.34511 0.0
O239 O 0.03855 0.63297 0.39231 0.0
H240 H 0.98074 0.62638 0.47005 0.0
H241 H 0.00577 0.68529 0.40946 0.0
H242 H 0.9566 0.63825 0.49893 0.0
H243 H 0.98114 0.69611 0.4393 0.0
H244 H 0.96918 0.53354 0.37153 0.0
H245 H 0.94475 0.58905 0.3908 0.0
H246 H 0.99667 0.57411 0.36499 0.0
H247 H 0.91806 0.54817 0.39649 0.0
H248 H 0.91596 0.62736 0.39778 0.0
H249 H 0.94785 0.65896 0.30666 0.0
H250 H 0.03678 0.59445 0.5043 0.0
H251 H 0.9644 0.55817 0.4935 0.0
H252 H 0.0467 0.65816 0.29909 0.0
H253 H 0.01786 0.69119 0.35356 0.0
H254 H 0.07095 0.69401 0.26989 0.0
H255 H 0.04271 0.72651 0.32358 0.0
H256 H 0.08246 0.65648 0.38177 0.0
H257 H 0.02675 0.59006 0.39956 0.0
H258 H 0.10758 0.64029 0.37781 0.0
H259 H 0.05275 0.57497 0.39496 0.0
H260 H 0.07634 0.72836 0.45289 0.0
H261 H 0.11033 0.72209 0.36803 0.0
H262 H 0.9898 0.57212 0.26127 0.0
H263 H 0.06171 0.60448 0.27658 0.0
Li264 Li 0.39794 0.00542 0.58235 0.0
Li265 Li 0.36603 0.99103 0.54588 0.0
Li266 Li 0.40371 0.0153 0.52554 0.0
Li267 Li 0.38599 0.03029 0.55985 0.0
C268 C 0.40641 0.97759 0.54178 0.0
N269 N 0.43706 0.96289 0.53527 0.0
C270 C 0.39968 0.95637 0.52862 0.0
C271 C 0.42873 0.99133 0.55164 0.0
C272 C 0.41543 0.94924 0.52553 0.0
C273 C 0.44397 0.9836 0.54815 0.0
C274 C 0.35677 0.98855 0.61287 0.0
C275 C 0.3353 0.97735 0.6628 0.0
N276 N 0.33244 0.95636 0.6595 0.0
C277 C 0.35362 0.96687 0.60998 0.0
C278 C 0.34755 0.99386 0.63948 0.0
C279 C 0.34127 0.95083 0.6338 0.0
C280 C 0.42451 0.01771 0.63851 0.0
N281 N 0.41061 0.99967 0.6199 0.0
C282 C 0.41712 0.97526 0.65403 0.0
C283 C 0.40666 0.97867 0.62716 0.0
C284 C 0.43192 0.99366 0.67346 0.0
C285 C 0.43545 0.01511 0.66543 0.0
H286 H 0.42735 0.03421 0.63208 0.0
H287 H 0.39561 0.9646 0.61186 0.0
C288 C 0.33817 0.95395 0.50769 0.0
N289 N 0.33783 0.96591 0.53387 0.0
C290 C 0.3184 0.93524 0.49686 0.0
C291 C 0.2982 0.94151 0.54011 0.0
C292 C 0.31837 0.96026 0.54991 0.0
C293 C 0.29803 0.92863 0.51327 0.0
H294 H 0.35388 0.95907 0.49516 0.0
H295 H 0.31848 0.97023 0.57041 0.0
C296 C 0.43185 0.05715 0.55302 0.0
N297 N 0.46138 0.10044 0.53228 0.0
C298 C 0.42779 0.06522 0.52397 0.0
C299 C 0.45096 0.07109 0.57146 0.0
C300 C 0.44291 0.08715 0.51393 0.0
C301 C 0.46569 0.09293 0.56058 0.0
C302 C 0.35798 0.01829 0.50551 0.0
C303 C 0.35545 0.02184 0.47259 0.0
C304 C 0.34167 0.01603 0.52804 0.0
C305 C 0.33662 0.02309 0.46271 0.0
C306 C 0.32308 0.01737 0.5172 0.0
N307 N 0.32096 0.02085 0.48503 0.0
C308 C 0.41336 0.01151 0.45998 0.0
C309 C 0.44565 0.0303 0.49366 0.0
C310 C 0.42669 0.01292 0.43331 0.0
N311 N 0.42299 0.02001 0.48941 0.0
C312 C 0.45959 0.032 0.46773 0.0
C313 C 0.45012 0.02303 0.43714 0.0
H314 H 0.39526 0.0032 0.45745 0.0
H315 H 0.45289 0.03679 0.51737 0.0
C316 C 0.3844 0.06122 0.60221 0.0
N317 N 0.38367 0.05612 0.57004 0.0
C318 C 0.38352 0.08026 0.61193 0.0
C319 C 0.38098 0.08838 0.55518 0.0
C320 C 0.38207 0.06925 0.54654 0.0
C321 C 0.38181 0.09413 0.58827 0.0
H322 H 0.38582 0.05052 0.62031 0.0
H323 H 0.38187 0.06504 0.52108 0.0
O324 O 0.39114 0.98476 0.54473 0.0
O325 O 0.36889 0.00466 0.59002 0.0
O326 O 0.41728 0.03576 0.56358 0.0
O327 O 0.37632 0.01694 0.51534 0.0
H328 H 0.38246 0.94554 0.52087 0.0
H329 H 0.43427 0.00781 0.56185 0.0
H330 H 0.41045 0.93286 0.51538 0.0
H331 H 0.46129 0.99407 0.55565 0.0
H332 H 0.32806 0.98122 0.68352 0.0
H333 H 0.36055 0.9624 0.58953 0.0
H334 H 0.34985 0.01058 0.64207 0.0
H335 H 0.33869 0.93399 0.63184 0.0
H336 H 0.41363 0.95838 0.65949 0.0
H337 H 0.44695 0.02986 0.67929 0.0
H338 H 0.31907 0.92619 0.47564 0.0
H339 H 0.28301 0.93699 0.55374 0.0
H340 H 0.41317 0.05471 0.50924 0.0
H341 H 0.4544 0.0651 0.59395 0.0
H342 H 0.43995 0.0936 0.49152 0.0
H343 H 0.48054 0.1039 0.57463 0.0
H344 H 0.36793 0.02361 0.45486 0.0
H345 H 0.34331 0.01332 0.55362 0.0
H346 H 0.33446 0.02584 0.4373 0.0
H347 H 0.31034 0.01566 0.53436 0.0
H348 H 0.41868 0.00556 0.41025 0.0
H349 H 0.47758 0.04016 0.47164 0.0
H350 H 0.38402 0.08399 0.6377 0.0
H351 H 0.37997 0.0988 0.53617 0.0
Li352 Li 0.40526 0.39801 0.74804 0.0
Li353 Li 0.38617 0.36403 0.71369 0.0
Li354 Li 0.39968 0.40279 0.69031 0.0
Li355 Li 0.36624 0.38467 0.72572 0.0
C356 C 0.43907 0.39567 0.7164 0.0
N357 N 0.48297 0.40756 0.7308 0.0
C358 C 0.44456 0.37909 0.72357 0.0
C359 C 0.45596 0.41828 0.71609 0.0
C360 C 0.46684 0.38544 0.7309 0.0
C361 C 0.47803 0.42396 0.72358 0.0
C362 C 0.36707 0.35051 0.77536 0.0
C363 C 0.3355 0.31396 0.78781 0.0
N364 N 0.34749 0.31174 0.81251 0.0
C365 C 0.37899 0.34799 0.80109 0.0
C366 C 0.34507 0.33348 0.76884 0.0
C367 C 0.36883 0.32822 0.8195 0.0
C368 C 0.42381 0.42955 0.79852 0.0
N369 N 0.42433 0.41179 0.7848 0.0
C370 C 0.45209 0.41519 0.82325 0.0
C371 C 0.4378 0.40423 0.79693 0.0
C372 C 0.45208 0.43376 0.8376 0.0
C373 C 0.43757 0.44081 0.8251 0.0
H374 H 0.41268 0.435 0.78879 0.0
H375 H 0.43743 0.38966 0.7863 0.0
C376 C 0.37715 0.32748 0.67325 0.0
N377 N 0.38291 0.33532 0.70426 0.0
C378 C 0.37557 0.30713 0.66419 0.0
C379 C 0.38588 0.30322 0.71915 0.0
C380 C 0.38735 0.32371 0.7271 0.0
C381 C 0.38006 0.29472 0.68724 0.0
H382 H 0.3742 0.33728 0.65533 0.0
H383 H 0.39255 0.33055 0.7513 0.0
C384 C 0.39836 0.43735 0.72097 0.0
N385 N 0.41051 0.48103 0.70469 0.0
C386 C 0.38187 0.44279 0.71286 0.0
C387 C 0.42099 0.45418 0.72129 0.0
C388 C 0.38836 0.46496 0.70459 0.0
C389 C 0.4268 0.47614 0.71283 0.0
C390 C 0.35134 0.36442 0.66516 0.0
C391 C 0.34829 0.37579 0.63915 0.0
C392 C 0.33434 0.34268 0.67307 0.0
C393 C 0.32804 0.36535 0.62185 0.0
C394 C 0.31434 0.33281 0.65518 0.0
N395 N 0.31161 0.34427 0.63018 0.0
C396 C 0.43123 0.42103 0.63975 0.0
C397 C 0.40527 0.43425 0.63999 0.0
C398 C 0.44241 0.43455 0.61295 0.0
N399 N 0.41321 0.42132 0.65296 0.0
C400 C 0.41608 0.44821 0.61331 0.0
C401 C 0.43496 0.4485 0.59952 0.0
H402 H 0.43697 0.4103 0.65008 0.0
H403 H 0.39052 0.43371 0.65027 0.0
C404 C 0.33087 0.377 0.76763 0.0
N405 N 0.33785 0.38193 0.73613 0.0
C406 C 0.3108 0.37571 0.77756 0.0
C407 C 0.30538 0.38459 0.72244 0.0
C408 C 0.32564 0.38583 0.71362 0.0
C409 C 0.2978 0.37961 0.75486 0.0
H410 H 0.34107 0.37435 0.7852 0.0
H411 H 0.33185 0.39047 0.68902 0.0
O412 O 0.41731 0.38976 0.70933 0.0
O413 O 0.37677 0.36975 0.75708 0.0
O414 O 0.39233 0.4157 0.72894 0.0
O415 O 0.37104 0.3744 0.68239 0.0
H416 H 0.43175 0.36151 0.72365 0.0
H417 H 0.45207 0.43128 0.71009 0.0
H418 H 0.47131 0.37279 0.73668 0.0
H419 H 0.49125 0.4414 0.7236 0.0
H420 H 0.31851 0.30061 0.78296 0.0
H421 H 0.39597 0.36109 0.80662 0.0
H422 H 0.33545 0.33538 0.74949 0.0
H423 H 0.37791 0.32597 0.83935 0.0
H424 H 0.46279 0.40904 0.83256 0.0
H425 H 0.43713 0.45511 0.83544 0.0
H426 H 0.37147 0.30152 0.63915 0.0
H427 H 0.38936 0.29421 0.73781 0.0
H428 H 0.36428 0.43002 0.71273 0.0
H429 H 0.43391 0.45033 0.72805 0.0
H430 H 0.37579 0.46939 0.69805 0.0
H431 H 0.44426 0.48931 0.71281 0.0
H432 H 0.36135 0.39256 0.63255 0.0
H433 H 0.33663 0.33347 0.69265 0.0
H434 H 0.32538 0.37401 0.6018 0.0
H435 H 0.30101 0.31602 0.66111 0.0
H436 H 0.45698 0.43435 0.60317 0.0
H437 H 0.40959 0.45845 0.60334 0.0
H438 H 0.30551 0.37168 0.80274 0.0
H439 H 0.29608 0.38812 0.70431 0.0
Li440 Li 0.01527 0.40142 0.91135 0.0
Li441 Li 0.03169 0.384 0.87719 0.0
Li442 Li 0.00588 0.39592 0.85431 0.0
Li443 Li 0.99095 0.36313 0.8894 0.0
C444 C 0.05221 0.43547 0.8833 0.0
N445 N 0.08494 0.47777 0.90341 0.0
C446 C 0.07296 0.43899 0.89452 0.0
C447 C 0.04823 0.45353 0.88185 0.0
C448 C 0.08926 0.46049 0.90468 0.0
C449 C 0.06494 0.47476 0.89228 0.0
C450 C 0.01825 0.35556 0.93145 0.0
C451 C 0.01772 0.32074 0.92081 0.0
N452 N 0.02053 0.31866 0.95323 0.0
C453 C 0.02111 0.35308 0.96465 0.0
C454 C 0.01652 0.33927 0.90931 0.0
C455 C 0.02224 0.33431 0.97518 0.0
C456 C 0.00186 0.42181 0.95871 0.0
N457 N 0.01978 0.42014 0.94838 0.0
C458 C 0.0427 0.44484 0.99098 0.0
C459 C 0.03987 0.43099 0.96424 0.0
C460 C 0.0245 0.44709 0.00184 0.0
C461 C 0.00386 0.43527 0.9854 0.0
H462 H 0.98589 0.41257 0.94637 0.0
H463 H 0.05367 0.4288 0.9563 0.0
C464 C 0.06396 0.38388 0.83608 0.0
N465 N 0.05783 0.38206 0.86793 0.0
C466 C 0.08305 0.38289 0.82705 0.0
C467 C 0.08939 0.37847 0.88392 0.0
C468 C 0.07015 0.37958 0.89184 0.0
C469 C 0.09605 0.3801 0.85111 0.0
H470 H 0.05409 0.38635 0.8177 0.0
H471 H 0.06514 0.37857 0.91708 0.0
C472 C 0.96971 0.39472 0.88369 0.0
N473 N 0.93885 0.4077 0.86691 0.0
C474 C 0.9471 0.37853 0.87901 0.0
C475 C 0.97654 0.41752 0.88035 0.0
C476 C 0.93178 0.38543 0.8704 0.0
C477 C 0.96071 0.42374 0.8717 0.0
C478 C 0.9928 0.35617 0.82012 0.0
C479 C 0.97003 0.3498 0.81998 0.0
C480 C 0.00209 0.35137 0.79308 0.0
C481 C 0.9569 0.33878 0.79272 0.0
C482 C 0.98841 0.34032 0.76627 0.0
N483 N 0.96629 0.33431 0.76663 0.0
C484 C 0.02008 0.42637 0.80273 0.0
C485 C 0.98046 0.40282 0.80379 0.0
C486 C 0.0186 0.43791 0.7757 0.0
N487 N 0.00118 0.40937 0.81643 0.0
C488 C 0.97818 0.41403 0.77689 0.0
C489 C 0.99743 0.4319 0.7626 0.0
H490 H 0.03637 0.43113 0.81299 0.0
H491 H 0.96565 0.38906 0.81467 0.0
C492 C 0.95381 0.33442 0.9266 0.0
N493 N 0.96602 0.33464 0.90039 0.0
C494 C 0.93517 0.31438 0.93682 0.0
C495 C 0.94213 0.29503 0.89304 0.0
C496 C 0.96076 0.31548 0.88378 0.0
C497 C 0.92896 0.29431 0.91984 0.0
H498 H 0.95862 0.34991 0.93958 0.0
H499 H 0.97098 0.31606 0.8633 0.0
O500 O 0.03602 0.41454 0.87333 0.0
O501 O 0.01696 0.37379 0.9209 0.0
O502 O 0.98497 0.38828 0.89206 0.0
O503 O 0.006 0.36711 0.84649 0.0
H504 H 0.07638 0.42525 0.89566 0.0
H505 H 0.03243 0.45119 0.8727 0.0
H506 H 0.10534 0.46343 0.91363 0.0
H507 H 0.06204 0.48886 0.89145 0.0
H508 H 0.01641 0.30801 0.90396 0.0
H509 H 0.02243 0.36554 0.98208 0.0
H510 H 0.01432 0.34088 0.88353 0.0
H511 H 0.02445 0.33217 0.00081 0.0
H512 H 0.05879 0.45339 0.00334 0.0
H513 H 0.98942 0.4366 0.99286 0.0
H514 H 0.08779 0.38471 0.80156 0.0
H515 H 0.09881 0.37618 0.90325 0.0
H516 H 0.94143 0.36082 0.88192 0.0
H517 H 0.99388 0.43025 0.88431 0.0
H518 H 0.91426 0.37308 0.86653 0.0
H519 H 0.9658 0.44131 0.86881 0.0
H520 H 0.96258 0.35336 0.84068 0.0
H521 H 0.01968 0.35609 0.79281 0.0
H522 H 0.93925 0.3338 0.79229 0.0
H523 H 0.99539 0.3365 0.74517 0.0
H524 H 0.03386 0.45172 0.76561 0.0
H525 H 0.96156 0.40871 0.76727 0.0
H526 H 0.92588 0.31461 0.95802 0.0
H527 H 0.93793 0.28004 0.87907 0.0
H528 H 0.58845 0.01141 0.23553 0.0
H529 H 0.56544 0.0121 0.28063 0.0
H530 H 0.53301 0.03639 0.2152 0.0
H531 H 0.55643 0.03629 0.17026 0.0
H532 H 0.54151 0.05805 0.27028 0.0
H533 H 0.50742 0.98021 0.24074 0.0
H534 H 0.50629 0.94439 0.22925 0.0
H535 H 0.52801 0.94304 0.32708 0.0
H536 H 0.52956 0.97902 0.33902 0.0
H537 H 0.44783 0.03269 0.37285 0.0
H538 H 0.47138 0.033 0.32773 0.0
H539 H 0.50862 0.01519 0.39437 0.0
H540 H 0.48484 0.01434 0.43941 0.0
H541 H 0.49728 0.99019 0.33862 0.0
H542 H 0.53093 0.06851 0.36742 0.0
H543 H 0.53099 0.1039 0.37808 0.0
H544 H 0.50847 0.10353 0.2802 0.0
H545 H 0.50798 0.06795 0.26909 0.0
C546 C 0.57638 0.01687 0.23082 0.0
C547 C 0.57416 0.02373 0.19941 0.0
C548 C 0.56319 0.0172 0.25656 0.0
C549 C 0.54719 0.02393 0.25122 0.0
C550 C 0.54521 0.03112 0.21994 0.0
C551 C 0.55861 0.03108 0.19429 0.0
C552 C 0.5325 0.0235 0.2782 0.0
C553 C 0.53161 0.0431 0.28492 0.0
C554 C 0.51985 0.00413 0.29773 0.0
C555 C 0.51881 0.98242 0.29067 0.0
C556 C 0.51211 0.97235 0.25973 0.0
C557 C 0.51137 0.95201 0.25315 0.0
C558 C 0.51713 0.94147 0.2774 0.0
C559 C 0.52358 0.95123 0.30831 0.0
C560 C 0.52437 0.97159 0.315 0.0
C561 C 0.46096 0.02873 0.37784 0.0
C562 C 0.46455 0.0236 0.40972 0.0
C563 C 0.47451 0.02908 0.3521 0.0
C564 C 0.49189 0.02433 0.35778 0.0
C565 C 0.49535 0.01898 0.38949 0.0
C566 C 0.48188 0.0187 0.41524 0.0
C567 C 0.50636 0.02472 0.33064 0.0
C568 C 0.50719 0.0051 0.32391 0.0
C569 C 0.51878 0.04399 0.31094 0.0
C570 C 0.51921 0.06546 0.31753 0.0
C571 C 0.52583 0.07589 0.34824 0.0
C572 C 0.52597 0.096 0.35436 0.0
C573 C 0.51969 0.10593 0.32986 0.0
C574 C 0.51331 0.0958 0.29916 0.0
C575 C 0.51311 0.07568 0.29294 0.0
H576 H 0.51981 0.12149 0.33464 0.0
H577 H 0.51655 0.92572 0.27225 0.0
H578 H 0.55246 0.54185 0.34627 0.0
H579 H 0.52732 0.51989 0.39049 0.0
H580 H 0.53398 0.58042 0.43303 0.0
H581 H 0.56011 0.60274 0.38957 0.0
H582 H 0.53665 0.55477 0.47888 0.0
H583 H 0.48596 0.54284 0.39155 0.0
H584 H 0.47079 0.53319 0.33566 0.0
H585 H 0.46035 0.46647 0.34737 0.0
H586 H 0.47576 0.47581 0.4032 0.0
H587 H 0.44698 0.49266 0.59112 0.0
H588 H 0.46856 0.51755 0.54596 0.0
H589 H 0.47198 0.46285 0.49982 0.0
H590 H 0.45018 0.43784 0.5446 0.0
H591 H 0.46236 0.48756 0.45615 0.0
H592 H 0.51582 0.50107 0.54222 0.0
H593 H 0.53084 0.51103 0.59817 0.0
H594 H 0.5354 0.57548 0.58856 0.0
H595 H 0.52009 0.56576 0.53267 0.0
C596 C 0.54882 0.55058 0.36519 0.0
C597 C 0.55838 0.5741 0.36435 0.0
C598 C 0.53417 0.53793 0.39026 0.0
C599 C 0.52845 0.54845 0.41482 0.0
C600 C 0.53804 0.57193 0.41422 0.0
C601 C 0.55283 0.58464 0.3892 0.0
C602 C 0.51289 0.53489 0.44147 0.0
C603 C 0.52023 0.54033 0.4739 0.0
C604 C 0.49159 0.51583 0.43501 0.0
C605 C 0.48218 0.51009 0.40149 0.0
C606 C 0.48058 0.52616 0.38214 0.0
C607 C 0.47191 0.52074 0.35047 0.0
C608 C 0.46465 0.49925 0.33795 0.0
C609 C 0.46599 0.48312 0.3571 0.0
C610 C 0.47467 0.48846 0.38877 0.0
C611 C 0.4521 0.48589 0.57114 0.0
C612 C 0.44701 0.46334 0.57146 0.0
C613 C 0.46454 0.50015 0.5455 0.0
C614 C 0.47203 0.49207 0.51973 0.0
C615 C 0.4664 0.46941 0.51952 0.0
C616 C 0.4541 0.4552 0.54522 0.0
C617 C 0.48628 0.50731 0.49335 0.0
C618 C 0.47869 0.50217 0.46103 0.0
C619 C 0.50728 0.5267 0.4999 0.0
C620 C 0.51657 0.53259 0.53342 0.0
C621 C 0.51985 0.51729 0.55214 0.0
C622 C 0.52845 0.5229 0.58382 0.0
C623 C 0.53401 0.54384 0.59695 0.0
C624 C 0.53105 0.55924 0.57838 0.0
C625 C 0.52242 0.5537 0.5467 0.0
H626 H 0.54067 0.54816 0.62147 0.0
H627 H 0.45795 0.49509 0.31343 0.0
H628 H 0.02302 0.44543 0.70726 0.0
H629 H 0.02165 0.46852 0.6629 0.0
H630 H 0.96646 0.47033 0.71036 0.0
H631 H 0.96763 0.44703 0.75475 0.0
H632 H 0.95977 0.46496 0.64547 0.0
H633 H 0.01985 0.51468 0.71626 0.0
H634 H 0.05468 0.52768 0.74812 0.0
H635 H 0.09091 0.532 0.66046 0.0
H636 H 0.05621 0.51871 0.62812 0.0
H637 H 0.97043 0.5583 0.55327 0.0
H638 H 0.96817 0.53313 0.59731 0.0
H639 H 0.02395 0.52957 0.55526 0.0
H640 H 0.02637 0.55477 0.51141 0.0
H641 H 0.02948 0.53631 0.61904 0.0
H642 H 0.96905 0.48592 0.54835 0.0
H643 H 0.93412 0.47288 0.51672 0.0
H644 H 0.89849 0.4701 0.60433 0.0
H645 H 0.9333 0.48342 0.63644 0.0
C646 C 0.01059 0.45075 0.70824 0.0
C647 C 0.99556 0.4446 0.73462 0.0
C648 C 0.00982 0.46393 0.68289 0.0
C649 C 0.99421 0.47149 0.68362 0.0
C650 C 0.97867 0.46473 0.70935 0.0
C651 C 0.97933 0.4514 0.73465 0.0
C652 C 0.99457 0.48692 0.65796 0.0
C653 C 0.97492 0.48071 0.63995 0.0
C654 C 0.01444 0.50732 0.65045 0.0
C655 C 0.03538 0.51552 0.66981 0.0
C656 C 0.03521 0.51826 0.70381 0.0
C657 C 0.05493 0.5257 0.72195 0.0
C658 C 0.07498 0.53062 0.70633 0.0
C659 C 0.07536 0.52817 0.67252 0.0
C660 C 0.05568 0.5207 0.65427 0.0
C661 C 0.98208 0.55199 0.5533 0.0
C662 C 0.99862 0.55856 0.52892 0.0
C663 C 0.98076 0.5376 0.57845 0.0
C664 C 0.99578 0.5293 0.57944 0.0
C665 C 0.01224 0.53582 0.55507 0.0
C666 C 0.01365 0.55027 0.53008 0.0
C667 C 0.99476 0.51423 0.60618 0.0
C668 C 0.0143 0.52057 0.62453 0.0
C669 C 0.97479 0.494 0.61399 0.0
C670 C 0.95383 0.48588 0.59474 0.0
C671 C 0.9538 0.48269 0.56083 0.0
C672 C 0.93402 0.47522 0.54283 0.0
C673 C 0.91411 0.47072 0.55849 0.0
C674 C 0.91393 0.47362 0.59222 0.0
C675 C 0.93368 0.48111 0.61034 0.0
H676 H 0.89882 0.46494 0.54451 0.0
H677 H 0.09023 0.53637 0.72042 0.0
H678 H 0.55534 0.96298 0.88541 0.0
H679 H 0.52945 0.95955 0.84157 0.0
H680 H 0.52709 0.01684 0.87996 0.0
H681 H 0.55282 0.02029 0.92382 0.0
H682 H 0.48468 0.98084 0.86325 0.0
H683 H 0.55911 0.02397 0.81643 0.0
H684 H 0.59672 0.03074 0.80093 0.0
H685 H 0.56655 0.97142 0.74113 0.0
H686 H 0.52873 0.96413 0.75667 0.0
H687 H 0.44191 0.01506 0.73277 0.0
H688 H 0.46384 0.01194 0.77711 0.0
H689 H 0.47053 0.96173 0.72282 0.0
H690 H 0.4497 0.96572 0.67748 0.0
H691 H 0.50927 0.99043 0.74764 0.0
H692 H 0.43501 0.94813 0.79048 0.0
H693 H 0.39703 0.94026 0.80596 0.0
H694 H 0.42566 0.99566 0.87318 0.0
H695 H 0.46384 0.00407 0.85779 0.0
C696 C 0.54916 0.97473 0.88457 0.0
C697 C 0.55619 0.99199 0.90787 0.0
C698 C 0.53448 0.97282 0.85949 0.0
C699 C 0.52648 0.98803 0.85747 0.0
C700 C 0.5331 0.00496 0.8811 0.0
C701 C 0.54792 0.00702 0.90595 0.0
C702 C 0.51154 0.98667 0.83042 0.0
C703 C 0.49006 0.9831 0.83796 0.0
C704 C 0.51838 0.98894 0.79743 0.0
C705 C 0.5411 0.99336 0.78801 0.0
C706 C 0.5605 0.01226 0.80021 0.0
C707 C 0.58185 0.01622 0.79137 0.0
C708 C 0.58402 0.00148 0.77014 0.0
C709 C 0.56484 0.9828 0.75763 0.0
C710 C 0.54344 0.97875 0.76642 0.0
C711 C 0.44815 0.00345 0.7301 0.0
C712 C 0.44403 0.99068 0.70143 0.0
C713 C 0.46045 0.00145 0.75572 0.0
C714 C 0.46858 0.98635 0.75356 0.0
C715 C 0.46434 0.97342 0.72514 0.0
C716 C 0.45221 0.97556 0.69935 0.0
C717 C 0.48235 0.98483 0.78037 0.0
C718 C 0.50367 0.98789 0.77283 0.0
C719 C 0.47525 0.98186 0.81336 0.0
C720 C 0.4523 0.97684 0.82277 0.0
C721 C 0.43322 0.95874 0.80839 0.0
C722 C 0.41165 0.95417 0.81718 0.0
C723 C 0.40893 0.96748 0.84049 0.0
C724 C 0.42779 0.98537 0.85511 0.0
C725 C 0.4494 0.99003 0.84639 0.0
H726 H 0.39222 0.96391 0.84726 0.0
H727 H 0.60057 0.00458 0.76332 0.0
H728 H 0.60491 0.5612 0.04779 0.0
H729 H 0.58362 0.53558 0.00334 0.0
H730 H 0.52147 0.51988 0.05127 0.0
H731 H 0.54256 0.54441 0.09655 0.0
H732 H 0.51794 0.48316 0.02701 0.0
H733 H 0.54366 0.55793 0.98653 0.0
H734 H 0.57171 0.59712 0.97283 0.0
H735 H 0.60447 0.57383 0.90717 0.0
H736 H 0.57675 0.53447 0.92082 0.0
H737 H 0.44113 0.4467 0.8944 0.0
H738 H 0.46621 0.46783 0.93956 0.0
H739 H 0.52199 0.4693 0.88878 0.0
H740 H 0.49692 0.44813 0.84343 0.0
H741 H 0.531 0.51156 0.91317 0.0
H742 H 0.50166 0.43595 0.95118 0.0
H743 H 0.47192 0.39735 0.96448 0.0
H744 H 0.44407 0.42312 0.03468 0.0
H745 H 0.47347 0.46192 0.02145 0.0
C746 C 0.58672 0.55204 0.04913 0.0
C747 C 0.57547 0.55506 0.07567 0.0
C748 C 0.57456 0.53758 0.0235 0.0
C749 C 0.55092 0.52608 0.02367 0.0
C750 C 0.53968 0.52865 0.05048 0.0
C751 C 0.5518 0.54291 0.07621 0.0
C752 C 0.53775 0.51163 0.9958 0.0
C753 C 0.5207 0.48946 0.00217 0.0
C754 C 0.54163 0.51964 0.96324 0.0
C755 C 0.5583 0.54327 0.95499 0.0
C756 C 0.55695 0.56117 0.96937 0.0
C757 C 0.57277 0.58341 0.96158 0.0
C758 C 0.58991 0.58796 0.93922 0.0
C759 C 0.59122 0.57028 0.92454 0.0
C760 C 0.57545 0.548 0.93228 0.0
C761 C 0.45874 0.45152 0.8929 0.0
C762 C 0.46711 0.4458 0.86545 0.0
C763 C 0.473 0.46345 0.91875 0.0
C764 C 0.4959 0.46999 0.91754 0.0
C765 C 0.50434 0.46433 0.89017 0.0
C766 C 0.49001 0.45215 0.86444 0.0
C767 C 0.51107 0.48331 0.94455 0.0
C768 C 0.52846 0.50524 0.93799 0.0
C769 C 0.50732 0.47519 0.97698 0.0
C770 C 0.48967 0.45186 0.98512 0.0
C771 C 0.48909 0.43341 0.96927 0.0
C772 C 0.47231 0.41148 0.97683 0.0
C773 C 0.45609 0.40779 0.00037 0.0
C774 C 0.45664 0.42601 0.01644 0.0
C775 C 0.47337 0.44797 0.00894 0.0
H776 H 0.44311 0.3908 0.00619 0.0
H777 H 0.60213 0.6052 0.93321 0.0
H778 H 0.059 0.48955 0.01522 0.0
H779 H 0.06142 0.51417 0.06022 0.0
H780 H 0.99765 0.46192 0.09722 0.0
H781 H 0.99509 0.43739 0.05227 0.0
H782 H 0.99828 0.50065 0.09517 0.0
H783 H 0.04818 0.47566 0.13449 0.0
H784 H 0.08054 0.4694 0.13179 0.0
H785 H 0.12555 0.54048 0.12192 0.0
H786 H 0.09341 0.54714 0.12412 0.0
H787 H 0.99736 0.5418 0.25215 0.0
H788 H 0.99924 0.51957 0.20707 0.0
H789 H 0.06032 0.57717 0.1729 0.0
H790 H 0.05842 0.59973 0.21781 0.0
H791 H 0.06264 0.53804 0.17179 0.0
H792 H 0.01247 0.56286 0.13453 0.0
H793 H 0.97996 0.56882 0.13805 0.0
H794 H 0.93521 0.4975 0.14454 0.0
H795 H 0.9675 0.49112 0.14154 0.0
C796 C 0.04567 0.48324 0.03322 0.0
C797 C 0.02681 0.46158 0.03016 0.0
C798 C 0.04706 0.49732 0.05891 0.0
C799 C 0.02976 0.48986 0.0822 0.0
C800 C 0.01114 0.46809 0.07945 0.0
C801 C 0.00968 0.4541 0.05373 0.0
C802 C 0.03051 0.50492 0.1088 0.0
C803 C 0.01224 0.50859 0.11215 0.0
C804 C 0.04903 0.51584 0.13038 0.0
C805 C 0.06837 0.51187 0.12911 0.0
C806 C 0.06496 0.48994 0.13147 0.0
C807 C 0.08327 0.48632 0.13008 0.0
C808 C 0.10508 0.50452 0.12659 0.0
C809 C 0.10864 0.52639 0.12457 0.0
C810 C 0.09039 0.5301 0.12591 0.0
C811 C 0.01109 0.54984 0.2349 0.0
C812 C 0.02761 0.57263 0.23841 0.0
C813 C 0.01219 0.53707 0.20923 0.0
C814 C 0.02977 0.5468 0.18643 0.0
C815 C 0.04661 0.56936 0.19024 0.0
C816 C 0.04552 0.5822 0.21595 0.0
C817 C 0.03024 0.53339 0.15839 0.0
C818 C 0.04874 0.53012 0.1547 0.0
C819 C 0.01191 0.52276 0.13651 0.0
C820 C 0.99243 0.52653 0.13809 0.0
C821 C 0.99571 0.54846 0.13695 0.0
C822 C 0.97732 0.55191 0.13882 0.0
C823 C 0.95553 0.53355 0.14159 0.0
C824 C 0.95209 0.5117 0.14243 0.0
C825 C 0.97043 0.50816 0.14061 0.0
H826 H 0.94132 0.53626 0.14304 0.0
H827 H 0.11923 0.50169 0.12552 0.0
H828 H 0.60874 0.73214 0.16389 0.0
H829 H 0.61079 0.76697 0.14565 0.0
H830 H 0.68267 0.80259 0.15997 0.0
H831 H 0.68083 0.76768 0.17788 0.0
H832 H 0.66311 0.82595 0.18398 0.0
H833 H 0.66186 0.78896 0.08432 0.0
H834 H 0.64756 0.75742 0.04531 0.0
H835 H 0.58474 0.75669 0.03913 0.0
H836 H 0.59855 0.78803 0.07849 0.0
H837 H 0.68171 0.92442 0.09935 0.0
H838 H 0.68296 0.89079 0.11576 0.0
H839 H 0.61134 0.85035 0.10056 0.0
H840 H 0.60994 0.88386 0.08424 0.0
H841 H 0.63288 0.83012 0.07582 0.0
H842 H 0.63334 0.86581 0.17709 0.0
H843 H 0.64726 0.89706 0.21655 0.0
H844 H 0.71124 0.90004 0.22 0.0
H845 H 0.69779 0.86899 0.18017 0.0
C846 C 0.62503 0.74732 0.16287 0.0
C847 C 0.64465 0.74707 0.17211 0.0
C848 C 0.62616 0.76723 0.15252 0.0
C849 C 0.64692 0.78731 0.15106 0.0
C850 C 0.66649 0.78727 0.16089 0.0
C851 C 0.66538 0.76732 0.17123 0.0
C852 C 0.6481 0.8083 0.13927 0.0
C853 C 0.65684 0.827 0.16012 0.0
C854 C 0.6395 0.80949 0.1084 0.0
C855 C 0.63118 0.79072 0.08458 0.0
C856 C 0.64493 0.78196 0.07484 0.0
C857 C 0.63692 0.76414 0.05263 0.0
C858 C 0.61523 0.75503 0.03981 0.0
C859 C 0.60153 0.76375 0.04911 0.0
C860 C 0.60944 0.78156 0.07134 0.0
C861 C 0.66621 0.90838 0.09967 0.0
C862 C 0.64571 0.90683 0.09057 0.0
C863 C 0.66696 0.88918 0.10902 0.0
C864 C 0.6472 0.86809 0.10973 0.0
C865 C 0.6268 0.86644 0.10013 0.0
C866 C 0.62604 0.8856 0.0907 0.0
C867 C 0.64769 0.84773 0.12065 0.0
C868 C 0.63927 0.82913 0.09961 0.0
C869 C 0.65655 0.84663 0.15136 0.0
C870 C 0.66464 0.86524 0.17539 0.0
C871 C 0.65044 0.87325 0.18606 0.0
C872 C 0.65823 0.89091 0.20853 0.0
C873 C 0.68014 0.90058 0.2207 0.0
C874 C 0.69428 0.89256 0.2105 0.0
C875 C 0.68658 0.87493 0.188 0.0
H876 H 0.68614 0.91424 0.2381 0.0
H877 H 0.60906 0.74123 0.02262 0.0
H878 H 0.90444 0.65644 0.38785 0.0
H879 H 0.87051 0.65723 0.37168 0.0
H880 H 0.87375 0.63254 0.27613 0.0
H881 H 0.90788 0.63212 0.29202 0.0
H882 H 0.8639 0.66461 0.27035 0.0
H883 H 0.83615 0.59802 0.33576 0.0
H884 H 0.83346 0.57584 0.38462 0.0
H885 H 0.81338 0.61518 0.44203 0.0
H886 H 0.81626 0.6378 0.39357 0.0
H887 H 0.75115 0.62702 0.22042 0.0
H888 H 0.78618 0.62877 0.23703 0.0
H889 H 0.78547 0.66069 0.3273 0.0
H890 H 0.75073 0.65955 0.3106 0.0
H891 H 0.79404 0.62569 0.33627 0.0
H892 H 0.82098 0.69152 0.26894 0.0
H893 H 0.823 0.71251 0.21903 0.0
H894 H 0.84377 0.67282 0.1639 0.0
H895 H 0.84155 0.65136 0.21342 0.0
C896 C 0.89784 0.6511 0.36345 0.0
C897 C 0.90878 0.64418 0.34122 0.0
C898 C 0.87844 0.65153 0.35423 0.0
C899 C 0.86938 0.64465 0.3228 0.0
C900 C 0.88043 0.63795 0.30048 0.0
C901 C 0.89994 0.63775 0.30957 0.0
C902 C 0.8484 0.64442 0.31309 0.0
C903 C 0.84856 0.65585 0.28458 0.0
C904 C 0.82846 0.63338 0.33195 0.0
C905 C 0.82664 0.61975 0.36111 0.0
C906 C 0.83133 0.60205 0.35885 0.0
C907 C 0.82974 0.58938 0.38647 0.0
C908 C 0.82331 0.59414 0.41643 0.0
C909 C 0.8184 0.61154 0.41882 0.0
C910 C 0.81998 0.62428 0.39128 0.0
C911 C 0.75858 0.63472 0.24361 0.0
C912 C 0.74809 0.64319 0.26413 0.0
C913 C 0.77857 0.63561 0.25311 0.0
C914 C 0.78848 0.64497 0.28331 0.0
C915 C 0.77804 0.65333 0.30393 0.0
C916 C 0.75812 0.65257 0.29438 0.0
C917 C 0.80959 0.64578 0.29355 0.0
C918 C 0.80942 0.63446 0.32214 0.0
C919 C 0.82945 0.65674 0.27462 0.0
C920 C 0.83089 0.66969 0.24484 0.0
C921 C 0.8258 0.68714 0.24613 0.0
C922 C 0.82701 0.69915 0.21791 0.0
C923 C 0.83346 0.69396 0.18829 0.0
C924 C 0.83875 0.6768 0.18685 0.0
C925 C 0.83754 0.66472 0.21499 0.0
H926 H 0.83439 0.70328 0.16648 0.0
H927 H 0.82209 0.58431 0.43778 0.0
H928 H 0.09901 0.76705 0.43526 0.0
H929 H 0.13284 0.80148 0.45237 0.0
H930 H 0.17367 0.77266 0.42452 0.0
H931 H 0.1399 0.73792 0.40848 0.0
H932 H 0.18549 0.79204 0.48344 0.0
H933 H 0.17123 0.81283 0.37751 0.0
H934 H 0.14838 0.81791 0.33556 0.0
H935 H 0.14058 0.86361 0.39841 0.0
H936 H 0.16314 0.85857 0.44093 0.0
H937 H 0.29275 0.88884 0.48983 0.0
H938 H 0.25823 0.85582 0.47175 0.0
H939 H 0.22046 0.88863 0.49597 0.0
H940 H 0.25519 0.92235 0.51228 0.0
H941 H 0.20626 0.86747 0.44011 0.0
H942 H 0.22047 0.84739 0.54574 0.0
H943 H 0.2428 0.84235 0.58857 0.0
H944 H 0.24985 0.79524 0.52787 0.0
H945 H 0.22781 0.80024 0.48448 0.0
C946 C 0.11518 0.768 0.43289 0.0
C947 C 0.11673 0.74972 0.42044 0.0
C948 C 0.13452 0.78778 0.4424 0.0
C949 C 0.15581 0.78973 0.43943 0.0
C950 C 0.15742 0.77155 0.42693 0.0
C951 C 0.1381 0.75178 0.41747 0.0
C952 C 0.1764 0.81046 0.45016 0.0
C953 C 0.19019 0.8085 0.47365 0.0
C954 C 0.18215 0.83202 0.43814 0.0
C955 C 0.16869 0.83515 0.41252 0.0
C956 C 0.1645 0.82383 0.38248 0.0
C957 C 0.15163 0.82673 0.35858 0.0
C958 C 0.14299 0.84103 0.36435 0.0
C959 C 0.14726 0.85252 0.394 0.0
C960 C 0.16011 0.84966 0.41799 0.0
C961 C 0.27719 0.88923 0.49092 0.0
C962 C 0.27684 0.90834 0.5026 0.0
C963 C 0.25737 0.87016 0.48097 0.0
C964 C 0.23665 0.86955 0.48303 0.0
C965 C 0.23622 0.88864 0.49433 0.0
C966 C 0.25609 0.90784 0.50399 0.0
C967 C 0.21549 0.84904 0.47321 0.0
C968 C 0.20155 0.85102 0.44996 0.0
C969 C 0.20951 0.82749 0.4856 0.0
C970 C 0.22265 0.82434 0.51175 0.0
C971 C 0.22691 0.83607 0.54144 0.0
C972 C 0.2395 0.8332 0.56583 0.0
C973 C 0.24778 0.81852 0.56092 0.0
C974 C 0.24344 0.80663 0.53163 0.0
C975 C 0.23088 0.80945 0.50714 0.0
H976 H 0.25753 0.81633 0.57983 0.0
H977 H 0.13302 0.84324 0.34582 0.0
H978 H 0.35012 0.26155 0.64634 0.0
H979 H 0.35005 0.22745 0.62916 0.0
H980 H 0.40779 0.24513 0.69016 0.0
H981 H 0.40864 0.27979 0.70625 0.0
H982 H 0.41334 0.23141 0.63274 0.0
H983 H 0.35404 0.20356 0.71202 0.0
H984 H 0.31896 0.19789 0.73724 0.0
H985 H 0.28223 0.16484 0.65043 0.0
H986 H 0.31717 0.17059 0.62451 0.0
H987 H 0.40794 0.12544 0.63383 0.0
H988 H 0.40691 0.1592 0.65011 0.0
H989 H 0.35357 0.14317 0.58101 0.0
H990 H 0.35429 0.10915 0.5649 0.0
H991 H 0.34538 0.15579 0.64146 0.0
H992 H 0.40523 0.18336 0.56292 0.0
H993 H 0.4405 0.1887 0.53882 0.0
H994 H 0.47641 0.22204 0.62602 0.0
H995 H 0.44127 0.2166 0.65084 0.0
C996 C 0.36292 0.25829 0.65595 0.0
C997 C 0.37936 0.27344 0.67776 0.0
C998 C 0.3627 0.23864 0.64636 0.0
C999 C 0.37875 0.23357 0.65867 0.0
C1000 C 0.39518 0.24864 0.68043 0.0
C1001 C 0.39549 0.26835 0.68988 0.0
C1002 C 0.37875 0.21281 0.64836 0.0
C1003 C 0.39855 0.21486 0.63508 0.0
C1004 C 0.35931 0.19123 0.65066 0.0
C1005 C 0.33827 0.18771 0.66621 0.0
C1006 C 0.33852 0.19524 0.69821 0.0
C1007 C 0.31865 0.19198 0.71265 0.0
C1008 C 0.29839 0.18106 0.69542 0.0
C1009 C 0.29794 0.17332 0.66373 0.0
C1010 C 0.31777 0.17656 0.64916 0.0
C1011 C 0.39589 0.12902 0.62226 0.0
C1012 C 0.3812 0.11465 0.59806 0.0
C1013 C 0.39543 0.14839 0.63141 0.0
C1014 C 0.38029 0.15377 0.61657 0.0
C1015 C 0.36542 0.13934 0.59269 0.0
C1016 C 0.36596 0.12002 0.58336 0.0
C1017 C 0.37998 0.17446 0.62608 0.0
C1018 C 0.36013 0.17238 0.63914 0.0
C1019 C 0.3994 0.196 0.62377 0.0
C1020 C 0.42057 0.19937 0.60886 0.0
C1021 C 0.42061 0.19166 0.57706 0.0
C1022 C 0.44058 0.19474 0.56325 0.0
C1023 C 0.46067 0.20565 0.58091 0.0
C1024 C 0.46083 0.21356 0.61239 0.0
C1025 C 0.44089 0.2105 0.62633 0.0
H1026 H 0.47612 0.20803 0.57017 0.0
H1027 H 0.28302 0.17855 0.70664 0.0
H1028 H 0.13665 0.39934 0.88285 0.0
H1029 H 0.17051 0.39841 0.8671 0.0
H1030 H 0.13615 0.3587 0.7824 0.0
H1031 H 0.10194 0.35881 0.79866 0.0
H1032 H 0.16032 0.34286 0.81098 0.0
H1033 H 0.1735 0.4151 0.77606 0.0
H1034 H 0.17622 0.45211 0.7822 0.0
H1035 H 0.22817 0.47103 0.85406 0.0
H1036 H 0.22554 0.43398 0.84868 0.0
H1037 H 0.2574 0.36064 0.72278 0.0
H1038 H 0.22297 0.36024 0.73969 0.0
H1039 H 0.25622 0.39677 0.82711 0.0
H1040 H 0.29078 0.39759 0.81009 0.0
H1041 H 0.23266 0.41413 0.7971 0.0
H1042 H 0.2194 0.34154 0.83118 0.0
H1043 H 0.21666 0.30458 0.82401 0.0
H1044 H 0.16481 0.28647 0.75223 0.0
H1045 H 0.16746 0.32347 0.75864 0.0
C1046 C 0.13619 0.39016 0.86109 0.0
C1047 C 0.11658 0.37923 0.84195 0.0
C1048 C 0.15565 0.38985 0.85193 0.0
C1049 C 0.15598 0.37876 0.82331 0.0
C1050 C 0.13632 0.36746 0.8045 0.0
C1051 C 0.11684 0.36772 0.81368 0.0
C1052 C 0.17684 0.37903 0.81287 0.0
C1053 C 0.17607 0.35845 0.80754 0.0
C1054 C 0.1975 0.39936 0.80897 0.0
C1055 C 0.19916 0.42168 0.8122 0.0
C1056 C 0.18538 0.42708 0.79336 0.0
C1057 C 0.18693 0.44808 0.79667 0.0
C1058 C 0.20231 0.46389 0.81857 0.0
C1059 C 0.21623 0.45875 0.83714 0.0
C1060 C 0.21473 0.43776 0.83396 0.0
C1061 C 0.25739 0.36868 0.74552 0.0
C1062 C 0.27678 0.37907 0.76516 0.0
C1063 C 0.23768 0.36829 0.75527 0.0
C1064 C 0.23699 0.3783 0.78481 0.0
C1065 C 0.25637 0.38888 0.80429 0.0
C1066 C 0.27604 0.38918 0.79465 0.0
C1067 C 0.21613 0.37798 0.79527 0.0
C1068 C 0.2169 0.39855 0.80057 0.0
C1069 C 0.19547 0.35765 0.79898 0.0
C1070 C 0.19379 0.33537 0.79515 0.0
C1071 C 0.20754 0.32975 0.81366 0.0
C1072 C 0.20598 0.30878 0.80978 0.0
C1073 C 0.19061 0.29321 0.78762 0.0
C1074 C 0.17673 0.29856 0.76936 0.0
C1075 C 0.17824 0.31952 0.77312 0.0
H1076 H 0.18942 0.27698 0.78465 0.0
H1077 H 0.20349 0.48014 0.82109 0.0
H1078 H 0.88856 0.2881 0.94184 0.0
H1079 H 0.85596 0.25322 0.96025 0.0
H1080 H 0.89059 0.21687 0.93856 0.0
H1081 H 0.92364 0.25186 0.92084 0.0
H1082 H 0.84635 0.19522 0.91613 0.0
H1083 H 0.88619 0.22797 0.01524 0.0
H1084 H 0.90574 0.258 0.05603 0.0
H1085 H 0.84541 0.261 0.0715 0.0
H1086 H 0.82557 0.2312 0.03041 0.0
H1087 H 0.76659 0.09529 0.99811 0.0
H1088 H 0.80165 0.12865 0.98157 0.0
H1089 H 0.77357 0.17066 0.00622 0.0
H1090 H 0.73843 0.13742 0.02255 0.0
H1091 H 0.81612 0.18858 0.02813 0.0
H1092 H 0.77683 0.15749 0.92741 0.0
H1093 H 0.75709 0.12787 0.8861 0.0
H1094 H 0.81611 0.12212 0.87324 0.0
H1095 H 0.83611 0.1515 0.91485 0.0
C1096 C 0.88942 0.27277 0.94133 0.0
C1097 C 0.90885 0.27287 0.93008 0.0
C1098 C 0.87071 0.25282 0.95174 0.0
C1099 C 0.87097 0.23253 0.95108 0.0
C1100 C 0.89008 0.23239 0.93926 0.0
C1101 C 0.90891 0.2524 0.929 0.0
C1102 C 0.85118 0.21149 0.96275 0.0
C1103 C 0.83993 0.19359 0.94078 0.0
C1104 C 0.8426 0.20961 0.99471 0.0
C1105 C 0.85445 0.22749 0.01952 0.0
C1106 C 0.87714 0.23516 0.02713 0.0
C1107 C 0.88827 0.25212 0.05034 0.0
C1108 C 0.87684 0.26144 0.06629 0.0
C1109 C 0.85425 0.25378 0.0591 0.0
C1110 C 0.84305 0.23684 0.03587 0.0
C1111 C 0.76783 0.11162 0.99982 0.0
C1112 C 0.74967 0.11367 0.01156 0.0
C1113 C 0.78789 0.13067 0.99042 0.0
C1114 C 0.79014 0.15212 0.99236 0.0
C1115 C 0.77221 0.15427 0.00459 0.0
C1116 C 0.75216 0.13525 0.01402 0.0
C1117 C 0.8111 0.17236 0.98142 0.0
C1118 C 0.82259 0.19013 0.00354 0.0
C1119 C 0.81986 0.17414 0.94957 0.0
C1120 C 0.80788 0.15651 0.92451 0.0
C1121 C 0.78554 0.14977 0.91598 0.0
C1122 C 0.77431 0.13305 0.89247 0.0
C1123 C 0.78531 0.12307 0.87713 0.0
C1124 C 0.80759 0.12983 0.88519 0.0
C1125 C 0.81889 0.14653 0.90872 0.0
H1126 H 0.77659 0.11013 0.85893 0.0
H1127 H 0.88549 0.27456 0.08426 0.0
loop_
_geom_bond_atom_site_label_1
_geom_bond_atom_site_label_2
_geom_bond_distance
_geom_bond_site_symmetry_2
_ccdc_geom_bond_type
Li0 N17 1.990 . S
Li0 O60 1.956 . S
Li0 O61 1.970 . S
Li0 O62 1.961 . S
Li1 N25 1.990 . S
Li1 O60 1.970 . S
Li1 O61 1.956 . S
Li1 O63 1.961 1_545 S
Li2 N47 1.990 . S
Li2 O60 1.961 1_565 S
Li2 O62 1.956 1_565 S
Li2 O63 1.970 . S
Li3 N53 1.990 1_554 S
Li3 O61 1.961 . S
Li3 O62 1.970 . S
Li3 O63 1.956 1_545 S
C4 C6 1.348 . S
C4 C7 1.356 . S
C4 O60 1.325 . S
N5 C8 1.314 . S
N5 C9 1.279 . S
C6 C4 1.348 . S
C6 C8 1.353 . S
C6 H64 0.929 . S
C7 C4 1.356 . S
C7 C9 1.358 . S
C7 H65 0.930 . S
C8 N5 1.314 . S
C8 C6 1.353 . S
C8 H66 0.930 . S
C9 N5 1.279 . S
C9 C7 1.358 . S
C9 H67 0.930 . S
C10 C13 1.348 . S
C10 C14 1.356 . S
C10 O61 1.325 . S
C11 N12 1.279 . S
C11 C14 1.358 . S
C11 H68 0.930 . S
N12 C11 1.279 . S
N12 C15 1.314 . S
C13 C10 1.348 . S
C13 C15 1.353 . S
C13 H69 0.929 . S
C14 C10 1.356 . S
C14 C11 1.358 . S
C14 H70 0.930 . S
C15 N12 1.314 . S
C15 C13 1.353 . S
C15 H71 0.930 . S
C16 N17 1.314 . S
C16 C21 1.353 . S
C16 H22 0.930 1_554 S
N17 Li0 1.990 . S
N17 C16 1.314 . S
N17 C19 1.279 . S
C18 C19 1.358 . S
C18 C20 1.356 . S
C18 H72 0.930 . S
C19 N17 1.279 . S
C19 C18 1.358 . S
C19 H23 0.930 . S
C20 C18 1.356 . S
C20 C21 1.348 . S
C21 C16 1.353 . S
C21 C20 1.348 . S
C21 H73 0.929 1_554 S
H22 C16 0.930 1_556 S
H23 C19 0.930 . S
C24 N25 1.314 . S
C24 C26 1.353 . S
C24 H30 0.930 1_545 S
N25 Li1 1.990 . S
N25 C24 1.314 . S
N25 C28 1.279 . S
C26 C24 1.353 . S
C26 C29 1.348 . S
C26 H74 0.929 1_545 S
C27 C28 1.358 . S
C27 C29 1.356 . S
C27 H75 0.930 . S
C28 N25 1.279 . S
C28 C27 1.358 . S
C28 H31 0.930 . S
C29 C26 1.348 . S
C29 C27 1.356 . S
H30 C24 0.930 1_565 S
H31 C28 0.930 . S
C32 C34 1.348 1_545 S
C32 C35 1.356 . S
C32 O62 1.325 1_556 S
N33 C36 1.314 . S
N33 C37 1.279 1_565 S
C34 C32 1.348 1_565 S
C34 C36 1.353 . S
C34 H76 0.929 . S
C35 C32 1.356 . S
C35 C37 1.358 . S
C35 H77 0.930 1_556 S
C36 N33 1.314 . S
C36 C34 1.353 . S
C36 H78 0.930 . S
C37 N33 1.279 1_545 S
C37 C35 1.358 . S
C37 H79 0.930 . S
C38 C39 1.348 . S
C38 C40 1.356 . S
C38 O63 1.325 . S
C39 C38 1.348 . S
C39 C41 1.353 . S
C39 H80 0.929 . S
C40 C38 1.356 . S
C40 C42 1.358 . S
C40 H81 0.930 . S
C41 C39 1.353 . S
C41 N43 1.314 . S
C41 H82 0.930 . S
C42 C40 1.358 . S
C42 N43 1.279 . S
C42 H83 0.930 . S
N43 C41 1.314 . S
N43 C42 1.279 . S
C44 C46 1.353 . S
C44 N47 1.314 . S
C44 H50 0.930 . S
C45 N47 1.279 . S
C45 C48 1.358 . S
C45 H51 0.930 . S
C46 C44 1.353 . S
C46 C49 1.348 . S
C46 H84 0.929 . S
N47 Li2 1.990 . S
N47 C44 1.314 . S
N47 C45 1.279 . S
C48 C45 1.358 . S
C48 C49 1.356 . S
C48 H85 0.930 . S
C49 C46 1.348 . S
C49 C48 1.356 . S
H50 C44 0.930 . S
H51 C45 0.930 . S
C52 N53 1.314 . S
C52 C54 1.353 . S
C52 H58 0.930 . S
N53 Li3 1.990 1_556 S
N53 C52 1.314 . S
N53 C56 1.279 1_545 S
C54 C52 1.353 . S
C54 C57 1.348 1_545 S
C54 H86 0.929 . S
C55 C56 1.358 . S
C55 C57 1.356 . S
C55 H87 0.930 . S
C56 N53 1.279 1_565 S
C56 C55 1.358 . S
C56 H59 0.930 . S
C57 C54 1.348 1_565 S
C57 C55 1.356 . S
H58 C52 0.930 . S
H59 C56 0.930 . S
O60 Li0 1.956 . S
O60 Li1 1.970 . S
O60 Li2 1.961 1_545 S
O60 C4 1.325 . S
O61 Li0 1.970 . S
O61 Li1 1.956 . S
O61 Li3 1.961 . S
O61 C10 1.325 . S
O62 Li0 1.961 . S
O62 Li2 1.956 1_545 S
O62 Li3 1.970 . S
O62 C32 1.325 1_554 S
O63 Li1 1.961 1_565 S
O63 Li2 1.970 . S
O63 Li3 1.956 1_565 S
O63 C38 1.325 . S
H64 C6 0.929 . S
H65 C7 0.930 . S
H66 C8 0.930 . S
H67 C9 0.930 . S
H68 C11 0.930 . S
H69 C13 0.929 . S
H70 C14 0.930 . S
H71 C15 0.930 . S
H72 C18 0.930 . S
H73 C21 0.929 1_556 S
H74 C26 0.929 1_565 S
H75 C27 0.930 . S
H76 C34 0.929 . S
H77 C35 0.930 1_554 S
H78 C36 0.930 . S
H79 C37 0.930 . S
H80 C39 0.929 . S
H81 C40 0.930 . S
H82 C41 0.930 . S
H83 C42 0.930 . S
H84 C46 0.929 . S
H85 C48 0.930 . S
H86 C54 0.929 . S
H87 C55 0.930 . S
Li88 N105 1.990 . S
Li88 O148 1.956 . S
Li88 O149 1.970 . S
Li88 O150 1.961 . S
Li89 N113 1.990 . S
Li89 O148 1.970 . S
Li89 O149 1.956 . S
Li89 O151 1.961 . S
Li90 N135 1.990 . S
Li90 O148 1.961 . S
Li90 O150 1.956 . S
Li90 O151 1.970 . S
Li91 N141 1.990 . S
Li91 O149 1.961 . S
Li91 O150 1.970 . S
Li91 O151 1.956 . S
C92 C94 1.348 . S
C92 C95 1.356 . S
C92 O148 1.325 . S
N93 C96 1.314 . S
N93 C97 1.279 . S
C94 C92 1.348 . S
C94 C96 1.353 . S
C94 H152 0.929 . S
C95 C92 1.356 . S
C95 C97 1.358 . S
C95 H153 0.930 . S
C96 N93 1.314 . S
C96 C94 1.353 . S
C96 H154 0.930 . S
C97 N93 1.279 . S
C97 C95 1.358 . S
C97 H155 0.930 . S
C98 C101 1.348 . S
C98 C102 1.356 . S
C98 O149 1.325 . S
C99 N100 1.279 . S
C99 C102 1.358 . S
C99 H156 0.930 . S
N100 C99 1.279 . S
N100 C103 1.314 . S
C101 C98 1.348 . S
C101 C103 1.353 . S
C101 H157 0.929 . S
C102 C98 1.356 . S
C102 C99 1.358 . S
C102 H158 0.930 . S
C103 N100 1.314 . S
C103 C101 1.353 . S
C103 H159 0.930 . S
C104 N105 1.314 . S
C104 C109 1.353 . S
C104 H110 0.930 . S
N105 Li88 1.990 . S
N105 C104 1.314 . S
N105 C107 1.279 . S
C106 C107 1.358 . S
C106 C108 1.356 . S
C106 H160 0.930 . S
C107 N105 1.279 . S
C107 C106 1.358 . S
C107 H111 0.930 . S
C108 C106 1.356 . S
C108 C109 1.348 . S
C109 C104 1.353 . S
C109 C108 1.348 . S
C109 H161 0.929 . S
H110 C104 0.930 . S
H111 C107 0.930 . S
C112 N113 1.314 . S
C112 C114 1.353 . S
C112 H118 0.930 . S
N113 Li89 1.990 . S
N113 C112 1.314 . S
N113 C116 1.279 . S
C114 C112 1.353 . S
C114 C117 1.348 . S
C114 H162 0.929 . S
C115 C116 1.358 . S
C115 C117 1.356 . S
C115 H163 0.930 . S
C116 N113 1.279 . S
C116 C115 1.358 . S
C116 H119 0.930 . S
C117 C114 1.348 . S
C117 C115 1.356 . S
H118 C112 0.930 . S
H119 C116 0.930 . S
C120 C122 1.348 . S
C120 C123 1.356 . S
C120 O150 1.325 . S
N121 C124 1.314 . S
N121 C125 1.279 . S
C122 C120 1.348 . S
C122 C124 1.353 . S
C122 H164 0.929 . S
C123 C120 1.356 . S
C123 C125 1.358 . S
C123 H165 0.930 . S
C124 N121 1.314 . S
C124 C122 1.353 . S
C124 H166 0.930 . S
C125 N121 1.279 . S
C125 C123 1.358 . S
C125 H167 0.930 . S
C126 C127 1.348 . S
C126 C128 1.356 . S
C126 O151 1.325 . S
C127 C126 1.348 . S
C127 C129 1.353 . S
C127 H168 0.929 . S
C128 C126 1.356 . S
C128 C130 1.358 . S
C128 H169 0.930 . S
C129 C127 1.353 . S
C129 N131 1.314 . S
C129 H170 0.930 . S
C130 C128 1.358 . S
C130 N131 1.279 . S
C130 H171 0.930 . S
N131 C129 1.314 . S
N131 C130 1.279 . S
C132 C134 1.353 . S
C132 N135 1.314 . S
C132 H138 0.930 . S
C133 N135 1.279 . S
C133 C136 1.358 . S
C133 H139 0.930 . S
C134 C132 1.353 . S
C134 C137 1.348 . S
C134 H172 0.929 . S
N135 Li90 1.990 . S
N135 C132 1.314 . S
N135 C133 1.279 . S
C136 C133 1.358 . S
C136 C137 1.356 . S
C136 H173 0.930 . S
C137 C134 1.348 . S
C137 C136 1.356 . S
H138 C132 0.930 . S
H139 C133 0.930 . S
C140 N141 1.314 . S
C140 C142 1.353 . S
C140 H146 0.930 . S
N141 Li91 1.990 . S
N141 C140 1.314 . S
N141 C144 1.279 . S
C142 C140 1.353 . S
C142 C145 1.348 . S
C142 H174 0.929 . S
C143 C144 1.358 . S
C143 C145 1.356 . S
C143 H175 0.930 . S
C144 N141 1.279 . S
C144 C143 1.358 . S
C144 H147 0.930 . S
C145 C142 1.348 . S
C145 C143 1.356 . S
H146 C140 0.930 . S
H147 C144 0.930 . S
O148 Li88 1.956 . S
O148 Li89 1.970 . S
O148 Li90 1.961 . S
O148 C92 1.325 . S
O149 Li88 1.970 . S
O149 Li89 1.956 . S
O149 Li91 1.961 . S
O149 C98 1.325 . S
O150 Li88 1.961 . S
O150 Li90 1.956 . S
O150 Li91 1.970 . S
O150 C120 1.325 . S
O151 Li89 1.961 . S
O151 Li90 1.970 . S
O151 Li91 1.956 . S
O151 C126 1.325 . S
H152 C94 0.929 . S
H153 C95 0.930 . S
H154 C96 0.930 . S
H155 C97 0.930 . S
H156 C99 0.930 . S
H157 C101 0.929 . S
H158 C102 0.930 . S
H159 C103 0.930 . S
H160 C106 0.930 . S
H161 C109 0.929 . S
H162 C114 0.929 . S
H163 C115 0.930 . S
H164 C122 0.929 . S
H165 C123 0.930 . S
H166 C124 0.930 . S
H167 C125 0.930 . S
H168 C127 0.929 . S
H169 C128 0.930 . S
H170 C129 0.930 . S
H171 C130 0.930 . S
H172 C134 0.929 . S
H173 C136 0.930 . S
H174 C142 0.929 . S
H175 C143 0.930 . S
Li176 N193 1.990 . S
Li176 O236 1.956 1_655 S
Li176 O237 1.970 . S
Li176 O238 1.961 1_655 S
Li177 N201 1.990 . S
Li177 O236 1.970 . S
Li177 O237 1.956 1_455 S
Li177 O239 1.961 . S
Li178 N223 1.990 . S
Li178 O236 1.961 . S
Li178 O238 1.956 . S
Li178 O239 1.970 . S
Li179 N229 1.990 . S
Li179 O237 1.961 1_455 S
Li179 O238 1.970 . S
Li179 O239 1.956 . S
C180 C182 1.348 1_455 S
C180 C183 1.356 . S
C180 O236 1.325 . S
N181 C184 1.314 . S
N181 C185 1.279 1_655 S
C182 C180 1.348 1_655 S
C182 C184 1.353 . S
C182 H240 0.929 . S
C183 C180 1.356 . S
C183 C185 1.358 . S
C183 H241 0.930 . S
C184 N181 1.314 . S
C184 C182 1.353 . S
C184 H242 0.930 . S
C185 N181 1.279 1_455 S
C185 C183 1.358 . S
C185 H243 0.930 . S
C186 C189 1.348 . S
C186 C190 1.356 . S
C186 O237 1.325 . S
C187 N188 1.279 . S
C187 C190 1.358 . S
C187 H244 0.930 . S
N188 C187 1.279 . S
N188 C191 1.314 . S
C189 C186 1.348 . S
C189 C191 1.353 . S
C189 H245 0.929 . S
C190 C186 1.356 . S
C190 C187 1.358 . S
C190 H246 0.930 . S
C191 N188 1.314 . S
C191 C189 1.353 . S
C191 H247 0.930 . S
C192 N193 1.314 . S
C192 C197 1.353 . S
C192 H198 0.930 . S
N193 Li176 1.990 . S
N193 C192 1.314 . S
N193 C195 1.279 . S
C194 C195 1.358 . S
C194 C196 1.356 . S
C194 H248 0.930 . S
C195 N193 1.279 . S
C195 C194 1.358 . S
C195 H199 0.930 . S
C196 C194 1.356 . S
C196 C197 1.348 . S
C197 C192 1.353 . S
C197 C196 1.348 . S
C197 H249 0.929 . S
H198 C192 0.930 . S
H199 C195 0.930 . S
C200 N201 1.314 . S
C200 C202 1.353 . S
C200 H206 0.930 . S
N201 Li177 1.990 . S
N201 C200 1.314 . S
N201 C204 1.279 1_455 S
C202 C200 1.353 . S
C202 C205 1.348 1_455 S
C202 H250 0.929 . S
C203 C204 1.358 . S
C203 C205 1.356 . S
C203 H251 0.930 . S
C204 N201 1.279 1_655 S
C204 C203 1.358 . S
C204 H207 0.930 . S
C205 C202 1.348 1_655 S
C205 C203 1.356 . S
H206 C200 0.930 . S
H207 C204 0.930 . S
C208 C210 1.348 . S
C208 C211 1.356 . S
C208 O238 1.325 . S
N209 C212 1.314 . S
N209 C213 1.279 . S
C210 C208 1.348 . S
C210 C212 1.353 . S
C210 H252 0.929 . S
C211 C208 1.356 . S
C211 C213 1.358 . S
C211 H253 0.930 . S
C212 N209 1.314 . S
C212 C210 1.353 . S
C212 H254 0.930 . S
C213 N209 1.279 . S
C213 C211 1.358 . S
C213 H255 0.930 . S
C214 C215 1.348 . S
C214 C216 1.356 . S
C214 O239 1.325 . S
C215 C214 1.348 . S
C215 C217 1.353 . S
C215 H256 0.929 . S
C216 C214 1.356 . S
C216 C218 1.358 . S
C216 H257 0.930 . S
C217 C215 1.353 . S
C217 N219 1.314 . S
C217 H258 0.930 . S
C218 C216 1.358 . S
C218 N219 1.279 . S
C218 H259 0.930 . S
N219 C217 1.314 . S
N219 C218 1.279 . S
C220 C222 1.353 . S
C220 N223 1.314 . S
C220 H226 0.930 . S
C221 N223 1.279 . S
C221 C224 1.358 . S
C221 H227 0.930 . S
C222 C220 1.353 . S
C222 C225 1.348 . S
C222 H260 0.929 . S
N223 Li178 1.990 . S
N223 C220 1.314 . S
N223 C221 1.279 . S
C224 C221 1.358 . S
C224 C225 1.356 . S
C224 H261 0.930 . S
C225 C222 1.348 . S
C225 C224 1.356 . S
H226 C220 0.930 . S
H227 C221 0.930 . S
C228 N229 1.314 . S
C228 C230 1.353 . S
C228 H234 0.930 1_455 S
N229 Li179 1.990 . S
N229 C228 1.314 . S
N229 C232 1.279 . S
C230 C228 1.353 . S
C230 C233 1.348 . S
C230 H262 0.929 1_455 S
C231 C232 1.358 . S
C231 C233 1.356 . S
C231 H263 0.930 . S
C232 N229 1.279 . S
C232 C231 1.358 . S
C232 H235 0.930 . S
C233 C230 1.348 . S
C233 C231 1.356 . S
H234 C228 0.930 1_655 S
H235 C232 0.930 . S
O236 Li176 1.956 1_455 S
O236 Li177 1.970 . S
O236 Li178 1.961 . S
O236 C180 1.325 . S
O237 Li176 1.970 . S
O237 Li177 1.956 1_655 S
O237 Li179 1.961 1_655 S
O237 C186 1.325 . S
O238 Li176 1.961 1_455 S
O238 Li178 1.956 . S
O238 Li179 1.970 . S
O238 C208 1.325 . S
O239 Li177 1.961 . S
O239 Li178 1.970 . S
O239 Li179 1.956 . S
O239 C214 1.325 . S
H240 C182 0.929 . S
H241 C183 0.930 . S
H242 C184 0.930 . S
H243 C185 0.930 . S
H244 C187 0.930 . S
H245 C189 0.929 . S
H246 C190 0.930 . S
H247 C191 0.930 . S
H248 C194 0.930 . S
H249 C197 0.929 . S
H250 C202 0.929 . S
H251 C203 0.930 . S
H252 C210 0.929 . S
H253 C211 0.930 . S
H254 C212 0.930 . S
H255 C213 0.930 . S
H256 C215 0.929 . S
H257 C216 0.930 . S
H258 C217 0.930 . S
H259 C218 0.930 . S
H260 C222 0.929 . S
H261 C224 0.930 . S
H262 C230 0.929 1_655 S
H263 C231 0.930 . S
Li264 N281 1.990 . S
Li264 O324 1.956 1_545 S
Li264 O325 1.970 . S
Li264 O326 1.961 . S
Li265 N289 1.990 . S
Li265 O324 1.970 . S
Li265 O325 1.956 1_565 S
Li265 O327 1.961 1_565 S
Li266 N311 1.990 . S
Li266 O324 1.961 1_545 S
Li266 O326 1.956 . S
Li266 O327 1.970 . S
Li267 N317 1.990 . S
Li267 O325 1.961 . S
Li267 O326 1.970 . S
Li267 O327 1.956 . S
C268 C270 1.348 . S
C268 C271 1.356 . S
C268 O324 1.325 . S
N269 C272 1.314 . S
N269 C273 1.279 . S
C270 C268 1.348 . S
C270 C272 1.353 . S
C270 H328 0.929 . S
C271 C268 1.356 . S
C271 C273 1.358 . S
C271 H329 0.930 . S
C272 N269 1.314 . S
C272 C270 1.353 . S
C272 H330 0.930 . S
C273 N269 1.279 . S
C273 C271 1.358 . S
C273 H331 0.930 . S
C274 C277 1.348 1_545 S
C274 C278 1.356 . S
C274 O325 1.325 . S
C275 N276 1.279 1_545 S
C275 C278 1.358 . S
C275 H332 0.930 . S
N276 C275 1.279 1_565 S
N276 C279 1.314 . S
C277 C274 1.348 1_565 S
C277 C279 1.353 . S
C277 H333 0.929 . S
C278 C274 1.356 . S
C278 C275 1.358 . S
C278 H334 0.930 . S
C279 N276 1.314 . S
C279 C277 1.353 . S
C279 H335 0.930 . S
C280 N281 1.314 . S
C280 C285 1.353 . S
C280 H286 0.930 . S
N281 Li264 1.990 . S
N281 C280 1.314 . S
N281 C283 1.279 1_545 S
C282 C283 1.358 . S
C282 C284 1.356 . S
C282 H336 0.930 . S
C283 N281 1.279 1_565 S
C283 C282 1.358 . S
C283 H287 0.930 . S
C284 C282 1.356 . S
C284 C285 1.348 1_565 S
C285 C280 1.353 . S
C285 C284 1.348 1_545 S
C285 H337 0.929 . S
H286 C280 0.930 . S
H287 C283 0.930 . S
C288 N289 1.314 . S
C288 C290 1.353 . S
C288 H294 0.930 . S
N289 Li265 1.990 . S
N289 C288 1.314 . S
N289 C292 1.279 . S
C290 C288 1.353 . S
C290 C293 1.348 . S
C290 H338 0.929 . S
C291 C292 1.358 . S
C291 C293 1.356 . S
C291 H339 0.930 . S
C292 N289 1.279 . S
C292 C291 1.358 . S
C292 H295 0.930 . S
C293 C290 1.348 . S
C293 C291 1.356 . S
H294 C288 0.930 . S
H295 C292 0.930 . S
C296 C298 1.348 . S
C296 C299 1.356 . S
C296 O326 1.325 . S
N297 C300 1.314 . S
N297 C301 1.279 . S
C298 C296 1.348 . S
C298 C300 1.353 . S
C298 H340 0.929 . S
C299 C296 1.356 . S
C299 C301 1.358 . S
C299 H341 0.930 . S
C300 N297 1.314 . S
C300 C298 1.353 . S
C300 H342 0.930 . S
C301 N297 1.279 . S
C301 C299 1.358 . S
C301 H343 0.930 . S
C302 C303 1.348 . S
C302 C304 1.356 . S
C302 O327 1.325 . S
C303 C302 1.348 . S
C303 C305 1.353 . S
C303 H344 0.929 . S
C304 C302 1.356 . S
C304 C306 1.358 . S
C304 H345 0.930 . S
C305 C303 1.353 . S
C305 N307 1.314 . S
C305 H346 0.930 . S
C306 C304 1.358 . S
C306 N307 1.279 . S
C306 H347 0.930 . S
N307 C305 1.314 . S
N307 C306 1.279 . S
C308 C310 1.353 . S
C308 N311 1.314 . S
C308 H314 0.930 1_545 S
C309 N311 1.279 . S
C309 C312 1.358 . S
C309 H315 0.930 . S
C310 C308 1.353 . S
C310 C313 1.348 . S
C310 H348 0.929 1_545 S
N311 Li266 1.990 . S
N311 C308 1.314 . S
N311 C309 1.279 . S
C312 C309 1.358 . S
C312 C313 1.356 . S
C312 H349 0.930 . S
C313 C310 1.348 . S
C313 C312 1.356 . S
H314 C308 0.930 1_565 S
H315 C309 0.930 . S
C316 N317 1.314 . S
C316 C318 1.353 . S
C316 H322 0.930 . S
N317 Li267 1.990 . S
N317 C316 1.314 . S
N317 C320 1.279 . S
C318 C316 1.353 . S
C318 C321 1.348 . S
C318 H350 0.929 . S
C319 C320 1.358 . S
C319 C321 1.356 . S
C319 H351 0.930 . S
C320 N317 1.279 . S
C320 C319 1.358 . S
C320 H323 0.930 . S
C321 C318 1.348 . S
C321 C319 1.356 . S
H322 C316 0.930 . S
H323 C320 0.930 . S
O324 Li264 1.956 1_565 S
O324 Li265 1.970 . S
O324 Li266 1.961 1_565 S
O324 C268 1.325 . S
O325 Li264 1.970 . S
O325 Li265 1.956 1_545 S
O325 Li267 1.961 . S
O325 C274 1.325 . S
O326 Li264 1.961 . S
O326 Li266 1.956 . S
O326 Li267 1.970 . S
O326 C296 1.325 . S
O327 Li265 1.961 1_545 S
O327 Li266 1.970 . S
O327 Li267 1.956 . S
O327 C302 1.325 . S
H328 C270 0.929 . S
H329 C271 0.930 . S
H330 C272 0.930 . S
H331 C273 0.930 . S
H332 C275 0.930 . S
H333 C277 0.929 . S
H334 C278 0.930 . S
H335 C279 0.930 . S
H336 C282 0.930 . S
H337 C285 0.929 . S
H338 C290 0.929 . S
H339 C291 0.930 . S
H340 C298 0.929 . S
H341 C299 0.930 . S
H342 C300 0.930 . S
H343 C301 0.930 . S
H344 C303 0.929 . S
H345 C304 0.930 . S
H346 C305 0.930 . S
H347 C306 0.930 . S
H348 C310 0.929 1_565 S
H349 C312 0.930 . S
H350 C318 0.929 . S
H351 C319 0.930 . S
Li352 N369 1.990 . S
Li352 O412 1.956 . S
Li352 O413 1.970 . S
Li352 O414 1.961 . S
Li353 N377 1.990 . S
Li353 O412 1.970 . S
Li353 O413 1.956 . S
Li353 O415 1.961 . S
Li354 N399 1.990 . S
Li354 O412 1.961 . S
Li354 O414 1.956 . S
Li354 O415 1.970 . S
Li355 N405 1.990 . S
Li355 O413 1.961 . S
Li355 O414 1.970 . S
Li355 O415 1.956 . S
C356 C358 1.348 . S
C356 C359 1.356 . S
C356 O412 1.325 . S
N357 C360 1.314 . S
N357 C361 1.279 . S
C358 C356 1.348 . S
C358 C360 1.353 . S
C358 H416 0.929 . S
C359 C356 1.356 . S
C359 C361 1.358 . S
C359 H417 0.930 . S
C360 N357 1.314 . S
C360 C358 1.353 . S
C360 H418 0.930 . S
C361 N357 1.279 . S
C361 C359 1.358 . S
C361 H419 0.930 . S
C362 C365 1.348 . S
C362 C366 1.356 . S
C362 O413 1.325 . S
C363 N364 1.279 . S
C363 C366 1.358 . S
C363 H420 0.930 . S
N364 C363 1.279 . S
N364 C367 1.314 . S
C365 C362 1.348 . S
C365 C367 1.353 . S
C365 H421 0.929 . S
C366 C362 1.356 . S
C366 C363 1.358 . S
C366 H422 0.930 . S
C367 N364 1.314 . S
C367 C365 1.353 . S
C367 H423 0.930 . S
C368 N369 1.314 . S
C368 C373 1.353 . S
C368 H374 0.930 . S
N369 Li352 1.990 . S
N369 C368 1.314 . S
N369 C371 1.279 . S
C370 C371 1.358 . S
C370 C372 1.356 . S
C370 H424 0.930 . S
C371 N369 1.279 . S
C371 C370 1.358 . S
C371 H375 0.930 . S
C372 C370 1.356 . S
C372 C373 1.348 . S
C373 C368 1.353 . S
C373 C372 1.348 . S
C373 H425 0.929 . S
H374 C368 0.930 . S
H375 C371 0.930 . S
C376 N377 1.314 . S
C376 C378 1.353 . S
C376 H382 0.930 . S
N377 Li353 1.990 . S
N377 C376 1.314 . S
N377 C380 1.279 . S
C378 C376 1.353 . S
C378 C381 1.348 . S
C378 H426 0.929 . S
C379 C380 1.358 . S
C379 C381 1.356 . S
C379 H427 0.930 . S
C380 N377 1.279 . S
C380 C379 1.358 . S
C380 H383 0.930 . S
C381 C378 1.348 . S
C381 C379 1.356 . S
H382 C376 0.930 . S
H383 C380 0.930 . S
C384 C386 1.348 . S
C384 C387 1.356 . S
C384 O414 1.325 . S
N385 C388 1.314 . S
N385 C389 1.279 . S
C386 C384 1.348 . S
C386 C388 1.353 . S
C386 H428 0.929 . S
C387 C384 1.356 . S
C387 C389 1.358 . S
C387 H429 0.930 . S
C388 N385 1.314 . S
C388 C386 1.353 . S
C388 H430 0.930 . S
C389 N385 1.279 . S
C389 C387 1.358 . S
C389 H431 0.930 . S
C390 C391 1.348 . S
C390 C392 1.356 . S
C390 O415 1.325 . S
C391 C390 1.348 . S
C391 C393 1.353 . S
C391 H432 0.929 . S
C392 C390 1.356 . S
C392 C394 1.358 . S
C392 H433 0.930 . S
C393 C391 1.353 . S
C393 N395 1.314 . S
C393 H434 0.930 . S
C394 C392 1.358 . S
C394 N395 1.279 . S
C394 H435 0.930 . S
N395 C393 1.314 . S
N395 C394 1.279 . S
C396 C398 1.353 . S
C396 N399 1.314 . S
C396 H402 0.930 . S
C397 N399 1.279 . S
C397 C400 1.358 . S
C397 H403 0.930 . S
C398 C396 1.353 . S
C398 C401 1.348 . S
C398 H436 0.929 . S
N399 Li354 1.990 . S
N399 C396 1.314 . S
N399 C397 1.279 . S
C400 C397 1.358 . S
C400 C401 1.356 . S
C400 H437 0.930 . S
C401 C398 1.348 . S
C401 C400 1.356 . S
H402 C396 0.930 . S
H403 C397 0.930 . S
C404 N405 1.314 . S
C404 C406 1.353 . S
C404 H410 0.930 . S
N405 Li355 1.990 . S
N405 C404 1.314 . S
N405 C408 1.279 . S
C406 C404 1.353 . S
C406 C409 1.348 . S
C406 H438 0.929 . S
C407 C408 1.358 . S
C407 C409 1.356 . S
C407 H439 0.930 . S
C408 N405 1.279 . S
C408 C407 1.358 . S
C408 H411 0.930 . S
C409 C406 1.348 . S
C409 C407 1.356 . S
H410 C404 0.930 . S
H411 C408 0.930 . S
O412 Li352 1.956 . S
O412 Li353 1.970 . S
O412 Li354 1.961 . S
O412 C356 1.325 . S
O413 Li352 1.970 . S
O413 Li353 1.956 . S
O413 Li355 1.961 . S
O413 C362 1.325 . S
O414 Li352 1.961 . S
O414 Li354 1.956 . S
O414 Li355 1.970 . S
O414 C384 1.325 . S
O415 Li353 1.961 . S
O415 Li354 1.970 . S
O415 Li355 1.956 . S
O415 C390 1.325 . S
H416 C358 0.929 . S
H417 C359 0.930 . S
H418 C360 0.930 . S
H419 C361 0.930 . S
H420 C363 0.930 . S
H421 C365 0.929 . S
H422 C366 0.930 . S
H423 C367 0.930 . S
H424 C370 0.930 . S
H425 C373 0.929 . S
H426 C378 0.929 . S
H427 C379 0.930 . S
H428 C386 0.929 . S
H429 C387 0.930 . S
H430 C388 0.930 . S
H431 C389 0.930 . S
H432 C391 0.929 . S
H433 C392 0.930 . S
H434 C393 0.930 . S
H435 C394 0.930 . S
H436 C398 0.929 . S
H437 C400 0.930 . S
H438 C406 0.929 . S
H439 C407 0.930 . S
Li440 N457 1.990 . S
Li440 O500 1.956 . S
Li440 O501 1.970 . S
Li440 O502 1.961 1_455 S
Li441 N465 1.990 . S
Li441 O500 1.970 . S
Li441 O501 1.956 . S
Li441 O503 1.961 . S
Li442 N487 1.990 . S
Li442 O500 1.961 . S
Li442 O502 1.956 1_455 S
Li442 O503 1.970 . S
Li443 N493 1.990 . S
Li443 O501 1.961 1_655 S
Li443 O502 1.970 . S
Li443 O503 1.956 1_655 S
C444 C446 1.348 . S
C444 C447 1.356 . S
C444 O500 1.325 . S
N445 C448 1.314 . S
N445 C449 1.279 . S
C446 C444 1.348 . S
C446 C448 1.353 . S
C446 H504 0.929 . S
C447 C444 1.356 . S
C447 C449 1.358 . S
C447 H505 0.930 . S
C448 N445 1.314 . S
C448 C446 1.353 . S
C448 H506 0.930 . S
C449 N445 1.279 . S
C449 C447 1.358 . S
C449 H507 0.930 . S
C450 C453 1.348 . S
C450 C454 1.356 . S
C450 O501 1.325 . S
C451 N452 1.300 . S
C451 C454 1.358 . S
C451 H508 0.930 . S
N452 C451 1.300 . S
N452 C455 1.315 . S
C453 C450 1.348 . S
C453 C455 1.353 . S
C453 H509 0.929 . S
C454 C450 1.356 . S
C454 C451 1.358 . S
C454 H510 0.930 . S
C455 N452 1.315 . S
C455 C453 1.353 . S
C455 H511 0.930 1_556 S
C456 N457 1.314 . S
C456 C461 1.353 1_556 S
C456 H462 0.930 1_455 S
N457 Li440 1.990 . S
N457 C456 1.314 . S
N457 C459 1.279 . S
C458 C459 1.358 . S
C458 C460 1.356 1_556 S
C458 H512 0.930 . S
C459 N457 1.279 . S
C459 C458 1.358 . S
C459 H463 0.930 . S
C460 C458 1.356 1_554 S
C460 C461 1.348 . S
C461 C456 1.353 1_554 S
C461 C460 1.348 . S
C461 H513 0.929 1_455 S
H462 C456 0.930 1_655 S
H463 C459 0.930 . S
C464 N465 1.314 . S
C464 C466 1.353 . S
C464 H470 0.930 . S
N465 Li441 1.990 . S
N465 C464 1.314 . S
N465 C468 1.279 . S
C466 C464 1.353 . S
C466 C469 1.348 . S
C466 H514 0.929 . S
C467 C468 1.358 . S
C467 C469 1.356 . S
C467 H515 0.930 . S
C468 N465 1.279 . S
C468 C467 1.358 . S
C468 H471 0.930 . S
C469 C466 1.348 . S
C469 C467 1.356 . S
H470 C464 0.930 . S
H471 C468 0.930 . S
C472 C474 1.348 . S
C472 C475 1.356 . S
C472 O502 1.325 . S
N473 C476 1.314 . S
N473 C477 1.279 . S
C474 C472 1.348 . S
C474 C476 1.353 . S
C474 H516 0.929 . S
C475 C472 1.356 . S
C475 C477 1.358 . S
C475 H517 0.930 . S
C476 N473 1.314 . S
C476 C474 1.353 . S
C476 H518 0.930 . S
C477 N473 1.279 . S
C477 C475 1.358 . S
C477 H519 0.930 . S
C478 C479 1.348 1_455 S
C478 C480 1.356 . S
C478 O503 1.325 . S
C479 C478 1.348 1_655 S
C479 C481 1.353 . S
C479 H520 0.929 . S
C480 C478 1.356 . S
C480 C482 1.358 . S
C480 H521 0.930 . S
C481 C479 1.353 . S
C481 N483 1.314 . S
C481 H522 0.930 . S
C482 C480 1.358 . S
C482 N483 1.279 1_455 S
C482 H523 0.930 . S
N483 C481 1.314 . S
N483 C482 1.279 1_655 S
C484 C486 1.353 . S
C484 N487 1.314 . S
C484 H490 0.930 . S
C485 N487 1.279 1_655 S
C485 C488 1.358 . S
C485 H491 0.930 . S
C486 C484 1.353 . S
C486 C489 1.348 1_455 S
C486 H524 0.929 . S
N487 Li442 1.990 . S
N487 C484 1.314 . S
N487 C485 1.279 1_455 S
C488 C485 1.358 . S
C488 C489 1.356 . S
C488 H525 0.930 . S
C489 C486 1.348 1_655 S
C489 C488 1.356 . S
H490 C484 0.930 . S
H491 C485 0.930 . S
C492 N493 1.314 . S
C492 C494 1.353 . S
C492 H498 0.930 . S
N493 Li443 1.990 . S
N493 C492 1.314 . S
N493 C496 1.279 . S
C494 C492 1.353 . S
C494 C497 1.348 . S
C494 H526 0.929 . S
C495 C496 1.358 . S
C495 C497 1.356 . S
C495 H527 0.930 . S
C496 N493 1.279 . S
C496 C495 1.358 . S
C496 H499 0.930 . S
C497 C494 1.348 . S
C497 C495 1.356 . S
H498 C492 0.930 . S
H499 C496 0.930 . S
O500 Li440 1.956 . S
O500 Li441 1.970 . S
O500 Li442 1.961 . S
O500 C444 1.325 . S
O501 Li440 1.970 . S
O501 Li441 1.956 . S
O501 Li443 1.961 1_455 S
O501 C450 1.325 . S
O502 Li440 1.961 1_655 S
O502 Li442 1.956 1_655 S
O502 Li443 1.970 . S
O502 C472 1.325 . S
O503 Li441 1.961 . S
O503 Li442 1.970 . S
O503 Li443 1.956 1_455 S
O503 C478 1.325 . S
H504 C446 0.929 . S
H505 C447 0.930 . S
H506 C448 0.930 . S
H507 C449 0.930 . S
H508 C451 0.930 . S
H509 C453 0.929 . S
H510 C454 0.930 . S
H511 C455 0.930 1_554 S
H512 C458 0.930 . S
H513 C461 0.929 1_655 S
H514 C466 0.929 . S
H515 C467 0.930 . S
H516 C474 0.929 . S
H517 C475 0.930 . S
H518 C476 0.930 . S
H519 C477 0.930 . S
H520 C479 0.929 . S
H521 C480 0.930 . S
H522 C481 0.930 . S
H523 C482 0.930 . S
H524 C486 0.929 . S
H525 C488 0.930 . S
H526 C494 0.929 . S
H527 C495 0.930 . S
H528 C546 0.951 . S
H529 C548 0.951 . S
H530 C550 0.950 . S
H531 C551 0.950 . S
H532 C553 0.950 . S
H533 C556 0.950 . S
H534 C557 0.950 . S
H535 C559 0.950 . S
H536 C560 0.950 . S
H537 C561 0.951 . S
H538 C563 0.951 . S
H539 C565 0.950 . S
H540 C566 0.950 . S
H541 C568 0.950 1_565 S
H542 C571 0.950 . S
H543 C572 0.950 . S
H544 C574 0.950 . S
H545 C575 0.950 . S
C546 H528 0.951 . S
C546 C547 1.366 . S
C546 C548 1.388 . S
C547 C546 1.366 . S
C547 C551 1.385 . S
C548 H529 0.951 . S
C548 C546 1.388 . S
C548 C549 1.366 . S
C549 C548 1.366 . S
C549 C550 1.414 . S
C549 C552 1.499 . S
C550 H530 0.950 . S
C550 C549 1.414 . S
C550 C551 1.374 . S
C551 H531 0.950 . S
C551 C547 1.385 . S
C551 C550 1.374 . S
C552 C549 1.499 . S
C552 C553 1.373 . S
C552 C554 1.389 . S
C553 H532 0.950 . S
C553 C552 1.373 . S
C553 C569 1.377 . S
C554 C552 1.389 . S
C554 C555 1.524 1_545 S
C554 C568 1.377 . S
C555 C554 1.524 1_565 S
C555 C556 1.397 . S
C555 C560 1.363 . S
C556 H533 0.950 . S
C556 C555 1.397 . S
C556 C557 1.334 . S
C557 H534 0.950 . S
C557 C556 1.334 . S
C557 C558 1.287 . S
C558 C557 1.287 . S
C558 C559 1.524 . S
C558 H577 0.913 . S
C559 H535 0.950 . S
C559 C558 1.524 . S
C559 C560 1.415 . S
C560 H536 0.950 . S
C560 C555 1.363 . S
C560 C559 1.415 . S
C561 H537 0.951 . S
C561 C562 1.366 . S
C561 C563 1.388 . S
C562 C561 1.366 . S
C562 C566 1.385 . S
C563 H538 0.951 . S
C563 C561 1.388 . S
C563 C564 1.366 . S
C564 C563 1.366 . S
C564 C565 1.414 . S
C564 C567 1.499 . S
C565 H539 0.950 . S
C565 C564 1.414 . S
C565 C566 1.374 . S
C566 H540 0.950 . S
C566 C562 1.385 . S
C566 C565 1.374 . S
C567 C564 1.499 . S
C567 C568 1.373 . S
C567 C569 1.389 . S
C568 H541 0.950 1_545 S
C568 C554 1.377 . S
C568 C567 1.373 . S
C569 C553 1.377 . S
C569 C567 1.389 . S
C569 C570 1.524 . S
C570 C569 1.524 . S
C570 C571 1.397 . S
C570 C575 1.363 . S
C571 H542 0.950 . S
C571 C570 1.397 . S
C571 C572 1.334 . S
C572 H543 0.950 . S
C572 C571 1.334 . S
C572 C573 1.287 . S
C573 C572 1.287 . S
C573 C574 1.524 . S
C573 H576 0.999 . S
C574 H544 0.950 . S
C574 C573 1.524 . S
C574 C575 1.415 . S
C575 H545 0.950 . S
C575 C570 1.363 . S
C575 C574 1.415 . S
H576 C573 0.999 . S
H577 C558 0.913 . S
H578 C596 0.951 . S
H579 C598 0.951 . S
H580 C600 0.950 . S
H581 C601 0.950 . S
H582 C603 0.950 . S
H583 C606 0.950 . S
H584 C607 0.950 . S
H585 C609 0.950 . S
H586 C610 0.950 . S
H587 C611 0.951 . S
H588 C613 0.951 . S
H589 C615 0.950 . S
H590 C616 0.950 . S
H591 C618 0.950 . S
H592 C621 0.950 . S
H593 C622 0.950 . S
H594 C624 0.950 . S
H595 C625 0.950 . S
C596 H578 0.951 . S
C596 C597 1.366 . S
C596 C598 1.388 . S
C597 C596 1.366 . S
C597 C601 1.385 . S
C598 H579 0.951 . S
C598 C596 1.388 . S
C598 C599 1.366 . S
C599 C598 1.366 . S
C599 C600 1.414 . S
C599 C602 1.499 . S
C600 H580 0.950 . S
C600 C599 1.414 . S
C600 C601 1.374 . S
C601 H581 0.950 . S
C601 C597 1.385 . S
C601 C600 1.374 . S
C602 C599 1.499 . S
C602 C603 1.373 . S
C602 C604 1.389 . S
C603 H582 0.950 . S
C603 C602 1.373 . S
C603 C619 1.377 . S
C604 C602 1.389 . S
C604 C605 1.524 . S
C604 C618 1.377 . S
C605 C604 1.524 . S
C605 C606 1.397 . S
C605 C610 1.363 . S
C606 H583 0.950 . S
C606 C605 1.397 . S
C606 C607 1.334 . S
C607 H584 0.950 . S
C607 C606 1.334 . S
C607 C608 1.287 . S
C608 C607 1.287 . S
C608 C609 1.524 . S
C608 H627 0.913 . S
C609 H585 0.950 . S
C609 C608 1.524 . S
C609 C610 1.415 . S
C610 H586 0.950 . S
C610 C605 1.363 . S
C610 C609 1.415 . S
C611 H587 0.951 . S
C611 C612 1.366 . S
C611 C613 1.388 . S
C612 C611 1.366 . S
C612 C616 1.385 . S
C613 H588 0.951 . S
C613 C611 1.388 . S
C613 C614 1.366 . S
C614 C613 1.366 . S
C614 C615 1.414 . S
C614 C617 1.499 . S
C615 H589 0.950 . S
C615 C614 1.414 . S
C615 C616 1.374 . S
C616 H590 0.950 . S
C616 C612 1.385 . S
C616 C615 1.374 . S
C617 C614 1.499 . S
C617 C618 1.373 . S
C617 C619 1.389 . S
C618 H591 0.950 . S
C618 C604 1.377 . S
C618 C617 1.373 . S
C619 C603 1.377 . S
C619 C617 1.389 . S
C619 C620 1.524 . S
C620 C619 1.524 . S
C620 C621 1.397 . S
C620 C625 1.363 . S
C621 H592 0.950 . S
C621 C620 1.397 . S
C621 C622 1.334 . S
C622 H593 0.950 . S
C622 C621 1.334 . S
C622 C623 1.287 . S
C623 C622 1.287 . S
C623 C624 1.524 . S
C623 H626 0.999 . S
C624 H594 0.950 . S
C624 C623 1.524 . S
C624 C625 1.415 . S
C625 H595 0.950 . S
C625 C620 1.363 . S
C625 C624 1.415 . S
H626 C623 0.999 . S
H627 C608 0.913 . S
H628 C646 0.951 . S
H629 C648 0.951 . S
H630 C650 0.950 . S
H631 C651 0.950 . S
H632 C653 0.950 . S
H633 C656 0.950 . S
H634 C657 0.950 . S
H635 C659 0.950 . S
H636 C660 0.950 . S
H637 C661 0.951 . S
H638 C663 0.951 . S
H639 C665 0.950 . S
H640 C666 0.950 . S
H641 C668 0.950 . S
H642 C671 0.950 . S
H643 C672 0.950 . S
H644 C674 0.950 . S
H645 C675 0.950 . S
C646 H628 0.951 . S
C646 C647 1.366 1_455 S
C646 C648 1.388 . S
C647 C646 1.366 1_655 S
C647 C651 1.385 . S
C648 H629 0.951 . S
C648 C646 1.388 . S
C648 C649 1.366 1_455 S
C649 C648 1.366 1_655 S
C649 C650 1.414 . S
C649 C652 1.499 . S
C650 H630 0.950 . S
C650 C649 1.414 . S
C650 C651 1.374 . S
C651 H631 0.950 . S
C651 C647 1.385 . S
C651 C650 1.374 . S
C652 C649 1.499 . S
C652 C653 1.373 . S
C652 C654 1.389 1_655 S
C653 H632 0.950 . S
C653 C652 1.373 . S
C653 C669 1.377 . S
C654 C652 1.389 1_455 S
C654 C655 1.524 . S
C654 C668 1.377 . S
C655 C654 1.524 . S
C655 C656 1.397 . S
C655 C660 1.363 . S
C656 H633 0.950 . S
C656 C655 1.397 . S
C656 C657 1.334 . S
C657 H634 0.950 . S
C657 C656 1.334 . S
C657 C658 1.287 . S
C658 C657 1.287 . S
C658 C659 1.524 . S
C658 H677 0.913 . S
C659 H635 0.950 . S
C659 C658 1.524 . S
C659 C660 1.415 . S
C660 H636 0.950 . S
C660 C655 1.363 . S
C660 C659 1.415 . S
C661 H637 0.951 . S
C661 C662 1.366 . S
C661 C663 1.388 . S
C662 C661 1.366 . S
C662 C666 1.385 1_655 S
C663 H638 0.951 . S
C663 C661 1.388 . S
C663 C664 1.366 . S
C664 C663 1.366 . S
C664 C665 1.414 1_655 S
C664 C667 1.499 . S
C665 H639 0.950 . S
C665 C664 1.414 1_455 S
C665 C666 1.374 . S
C666 H640 0.950 . S
C666 C662 1.385 1_455 S
C666 C665 1.374 . S
C667 C664 1.499 . S
C667 C668 1.373 1_655 S
C667 C669 1.389 . S
C668 H641 0.950 . S
C668 C654 1.377 . S
C668 C667 1.373 1_455 S
C669 C653 1.377 . S
C669 C667 1.389 . S
C669 C670 1.524 . S
C670 C669 1.524 . S
C670 C671 1.397 . S
C670 C675 1.363 . S
C671 H642 0.950 . S
C671 C670 1.397 . S
C671 C672 1.334 . S
C672 H643 0.950 . S
C672 C671 1.334 . S
C672 C673 1.287 . S
C673 C672 1.287 . S
C673 C674 1.524 . S
C673 H676 0.999 . S
C674 H644 0.950 . S
C674 C673 1.524 . S
C674 C675 1.415 . S
C675 H645 0.950 . S
C675 C670 1.363 . S
C675 C674 1.415 . S
H676 C673 0.999 . S
H677 C658 0.913 . S
H678 C696 0.951 . S
H679 C698 0.951 . S
H680 C700 0.950 . S
H681 C701 0.950 . S
H682 C703 0.950 . S
H683 C706 0.950 . S
H684 C707 0.950 . S
H685 C709 0.950 . S
H686 C710 0.950 . S
H687 C711 0.951 . S
H688 C713 0.951 . S
H689 C715 0.950 . S
H690 C716 0.950 . S
H691 C718 0.950 . S
H692 C721 0.950 . S
H693 C722 0.950 . S
H694 C724 0.950 1_545 S
H695 C725 0.950 1_545 S
C696 H678 0.951 . S
C696 C697 1.366 . S
C696 C698 1.388 . S
C697 C696 1.366 . S
C697 C701 1.385 1_565 S
C698 H679 0.951 . S
C698 C696 1.388 . S
C698 C699 1.366 . S
C699 C698 1.366 . S
C699 C700 1.414 1_565 S
C699 C702 1.499 . S
C700 H680 0.950 . S
C700 C699 1.414 1_545 S
C700 C701 1.374 . S
C701 H681 0.950 . S
C701 C697 1.385 1_545 S
C701 C700 1.374 . S
C702 C699 1.499 . S
C702 C703 1.373 . S
C702 C704 1.389 . S
C703 H682 0.950 . S
C703 C702 1.373 . S
C703 C719 1.377 . S
C704 C702 1.389 . S
C704 C705 1.524 1_565 S
C704 C718 1.377 . S
C705 C704 1.524 1_545 S
C705 C706 1.397 . S
C705 C710 1.363 1_545 S
C706 H683 0.950 . S
C706 C705 1.397 . S
C706 C707 1.334 . S
C707 H684 0.950 . S
C707 C706 1.334 . S
C707 C708 1.287 . S
C708 C707 1.287 . S
C708 C709 1.524 1_545 S
C708 H727 0.913 . S
C709 H685 0.950 . S
C709 C708 1.524 1_565 S
C709 C710 1.415 . S
C710 H686 0.950 . S
C710 C705 1.363 1_565 S
C710 C709 1.415 . S
C711 H687 0.951 . S
C711 C712 1.366 1_545 S
C711 C713 1.388 . S
C712 C711 1.366 1_565 S
C712 C716 1.385 . S
C713 H688 0.951 . S
C713 C711 1.388 . S
C713 C714 1.366 1_545 S
C714 C713 1.366 1_565 S
C714 C715 1.414 . S
C714 C717 1.499 . S
C715 H689 0.950 . S
C715 C714 1.414 . S
C715 C716 1.374 . S
C716 H690 0.950 . S
C716 C712 1.385 . S
C716 C715 1.374 . S
C717 C714 1.499 . S
C717 C718 1.373 . S
C717 C719 1.389 . S
C718 H691 0.950 . S
C718 C704 1.377 . S
C718 C717 1.373 . S
C719 C703 1.377 . S
C719 C717 1.389 . S
C719 C720 1.524 . S
C720 C719 1.524 . S
C720 C721 1.397 . S
C720 C725 1.363 . S
C721 H692 0.950 . S
C721 C720 1.397 . S
C721 C722 1.334 . S
C722 H693 0.950 . S
C722 C721 1.334 . S
C722 C723 1.287 . S
C723 C722 1.287 . S
C723 C724 1.524 . S
C723 H726 0.999 . S
C724 H694 0.950 1_565 S
C724 C723 1.524 . S
C724 C725 1.415 . S
C725 H695 0.950 1_565 S
C725 C720 1.363 . S
C725 C724 1.415 . S
H726 C723 0.999 . S
H727 C708 0.913 . S
H728 C746 0.951 . S
H729 C748 0.951 1_556 S
H730 C750 0.950 . S
H731 C751 0.950 . S
H732 C753 0.974 . S
H733 C756 0.950 . S
H734 C757 0.950 . S
H735 C759 0.950 . S
H736 C760 0.950 . S
H737 C761 0.951 . S
H738 C763 0.951 . S
H739 C765 0.950 . S
H740 C766 0.950 . S
H741 C768 0.950 . S
H742 C771 0.950 . S
H743 C772 0.950 . S
H744 C774 0.950 . S
H745 C775 0.950 . S
C746 H728 0.951 . S
C746 C747 1.366 . S
C746 C748 1.388 . S
C747 C746 1.366 . S
C747 C751 1.385 . S
C748 H729 0.951 1_554 S
C748 C746 1.388 . S
C748 C749 1.366 . S
C749 C748 1.366 . S
C749 C750 1.414 . S
C749 C752 1.499 1_554 S
C750 H730 0.950 . S
C750 C749 1.414 . S
C750 C751 1.374 . S
C751 H731 0.950 . S
C751 C747 1.385 . S
C751 C750 1.374 . S
C752 C749 1.499 1_556 S
C752 C753 1.368 1_556 S
C752 C754 1.389 . S
C753 H732 0.974 . S
C753 C752 1.368 1_554 S
C753 C769 1.359 1_554 S
C754 C752 1.389 . S
C754 C755 1.524 . S
C754 C768 1.377 . S
C755 C754 1.524 . S
C755 C756 1.397 . S
C755 C760 1.363 . S
C756 H733 0.950 . S
C756 C755 1.397 . S
C756 C757 1.334 . S
C757 H734 0.950 . S
C757 C756 1.334 . S
C757 C758 1.287 . S
C758 C757 1.287 . S
C758 C759 1.524 . S
C758 H777 0.913 . S
C759 H735 0.950 . S
C759 C758 1.524 . S
C759 C760 1.415 . S
C760 H736 0.950 . S
C760 C755 1.363 . S
C760 C759 1.415 . S
C761 H737 0.951 . S
C761 C762 1.366 . S
C761 C763 1.388 . S
C762 C761 1.366 . S
C762 C766 1.385 . S
C763 H738 0.951 . S
C763 C761 1.388 . S
C763 C764 1.366 . S
C764 C763 1.366 . S
C764 C765 1.414 . S
C764 C767 1.499 . S
C765 H739 0.950 . S
C765 C764 1.414 . S
C765 C766 1.374 . S
C766 H740 0.950 . S
C766 C762 1.385 . S
C766 C765 1.374 . S
C767 C764 1.499 . S
C767 C768 1.373 . S
C767 C769 1.389 . S
C768 H741 0.950 . S
C768 C754 1.377 . S
C768 C767 1.373 . S
C769 C753 1.359 1_556 S
C769 C767 1.389 . S
C769 C770 1.524 . S
C770 C769 1.524 . S
C770 C771 1.397 . S
C770 C775 1.363 1_556 S
C771 H742 0.950 . S
C771 C770 1.397 . S
C771 C772 1.334 . S
C772 H743 0.950 . S
C772 C771 1.334 . S
C772 C773 1.287 1_556 S
C773 C772 1.287 1_554 S
C773 C774 1.524 . S
C773 H776 0.999 . S
C774 H744 0.950 . S
C774 C773 1.524 . S
C774 C775 1.415 . S
C775 H745 0.950 . S
C775 C770 1.363 1_554 S
C775 C774 1.415 . S
H776 C773 0.999 . S
H777 C758 0.913 . S
H778 C796 0.951 . S
H779 C798 0.951 . S
H780 C800 0.950 1_655 S
H781 C801 0.950 1_655 S
H782 C803 0.950 1_655 S
H783 C806 0.950 . S
H784 C807 0.950 . S
H785 C809 0.950 . S
H786 C810 0.950 . S
H787 C811 0.951 1_655 S
H788 C813 0.951 1_655 S
H789 C815 0.950 . S
H790 C816 0.950 . S
H791 C818 0.950 . S
H792 C821 0.950 1_455 S
H793 C822 0.950 . S
H794 C824 0.950 . S
H795 C825 0.950 . S
C796 H778 0.951 . S
C796 C797 1.366 . S
C796 C798 1.388 . S
C797 C796 1.366 . S
C797 C801 1.385 . S
C798 H779 0.951 . S
C798 C796 1.388 . S
C798 C799 1.366 . S
C799 C798 1.366 . S
C799 C800 1.414 . S
C799 C802 1.499 . S
C800 H780 0.950 1_455 S
C800 C799 1.414 . S
C800 C801 1.374 . S
C801 H781 0.950 1_455 S
C801 C797 1.385 . S
C801 C800 1.374 . S
C802 C799 1.499 . S
C802 C803 1.373 . S
C802 C804 1.389 . S
C803 H782 0.950 1_455 S
C803 C802 1.373 . S
C803 C819 1.377 . S
C804 C802 1.389 . S
C804 C805 1.524 . S
C804 C818 1.377 . S
C805 C804 1.524 . S
C805 C806 1.397 . S
C805 C810 1.363 . S
C806 H783 0.950 . S
C806 C805 1.397 . S
C806 C807 1.334 . S
C807 H784 0.950 . S
C807 C806 1.334 . S
C807 C808 1.287 . S
C808 C807 1.287 . S
C808 C809 1.524 . S
C808 H827 0.913 . S
C809 H785 0.950 . S
C809 C808 1.524 . S
C809 C810 1.415 . S
C810 H786 0.950 . S
C810 C805 1.363 . S
C810 C809 1.415 . S
C811 H787 0.951 1_455 S
C811 C812 1.366 . S
C811 C813 1.388 . S
C812 C811 1.366 . S
C812 C816 1.385 . S
C813 H788 0.951 1_455 S
C813 C811 1.388 . S
C813 C814 1.366 . S
C814 C813 1.366 . S
C814 C815 1.414 . S
C814 C817 1.499 . S
C815 H789 0.950 . S
C815 C814 1.414 . S
C815 C816 1.374 . S
C816 H790 0.950 . S
C816 C812 1.385 . S
C816 C815 1.374 . S
C817 C814 1.499 . S
C817 C818 1.373 . S
C817 C819 1.389 . S
C818 H791 0.950 . S
C818 C804 1.377 . S
C818 C817 1.373 . S
C819 C803 1.377 . S
C819 C817 1.389 . S
C819 C820 1.524 1_455 S
C820 C819 1.524 1_655 S
C820 C821 1.397 . S
C820 C825 1.363 . S
C821 H792 0.950 1_655 S
C821 C820 1.397 . S
C821 C822 1.334 . S
C822 H793 0.950 . S
C822 C821 1.334 . S
C822 C823 1.287 . S
C823 C822 1.287 . S
C823 C824 1.524 . S
C823 H826 0.999 . S
C824 H794 0.950 . S
C824 C823 1.524 . S
C824 C825 1.415 . S
C825 H795 0.950 . S
C825 C820 1.363 . S
C825 C824 1.415 . S
H826 C823 0.999 . S
H827 C808 0.913 . S
H828 C846 0.951 . S
H829 C848 0.951 . S
H830 C850 0.950 . S
H831 C851 0.950 . S
H832 C853 0.950 . S
H833 C856 0.950 . S
H834 C857 0.950 . S
H835 C859 0.950 . S
H836 C860 0.950 . S
H837 C861 0.951 . S
H838 C863 0.951 . S
H839 C865 0.950 . S
H840 C866 0.950 . S
H841 C868 0.950 . S
H842 C871 0.950 . S
H843 C872 0.950 . S
H844 C874 0.950 . S
H845 C875 0.950 . S
C846 H828 0.951 . S
C846 C847 1.366 . S
C846 C848 1.388 . S
C847 C846 1.366 . S
C847 C851 1.385 . S
C848 H829 0.951 . S
C848 C846 1.388 . S
C848 C849 1.366 . S
C849 C848 1.366 . S
C849 C850 1.414 . S
C849 C852 1.499 . S
C850 H830 0.950 . S
C850 C849 1.414 . S
C850 C851 1.374 . S
C851 H831 0.950 . S
C851 C847 1.385 . S
C851 C850 1.374 . S
C852 C849 1.499 . S
C852 C853 1.373 . S
C852 C854 1.389 . S
C853 H832 0.950 . S
C853 C852 1.373 . S
C853 C869 1.377 . S
C854 C852 1.389 . S
C854 C855 1.524 . S
C854 C868 1.377 . S
C855 C854 1.524 . S
C855 C856 1.397 . S
C855 C860 1.363 . S
C856 H833 0.950 . S
C856 C855 1.397 . S
C856 C857 1.334 . S
C857 H834 0.950 . S
C857 C856 1.334 . S
C857 C858 1.287 . S
C858 C857 1.287 . S
C858 C859 1.524 . S
C858 H877 0.913 . S
C859 H835 0.950 . S
C859 C858 1.524 . S
C859 C860 1.415 . S
C860 H836 0.950 . S
C860 C855 1.363 . S
C860 C859 1.415 . S
C861 H837 0.951 . S
C861 C862 1.366 . S
C861 C863 1.388 . S
C862 C861 1.366 . S
C862 C866 1.385 . S
C863 H838 0.951 . S
C863 C861 1.388 . S
C863 C864 1.366 . S
C864 C863 1.366 . S
C864 C865 1.414 . S
C864 C867 1.499 . S
C865 H839 0.950 . S
C865 C864 1.414 . S
C865 C866 1.374 . S
C866 H840 0.950 . S
C866 C862 1.385 . S
C866 C865 1.374 . S
C867 C864 1.499 . S
C867 C868 1.373 . S
C867 C869 1.389 . S
C868 H841 0.950 . S
C868 C854 1.377 . S
C868 C867 1.373 . S
C869 C853 1.377 . S
C869 C867 1.389 . S
C869 C870 1.524 . S
C870 C869 1.524 . S
C870 C871 1.397 . S
C870 C875 1.363 . S
C871 H842 0.950 . S
C871 C870 1.397 . S
C871 C872 1.334 . S
C872 H843 0.950 . S
C872 C871 1.334 . S
C872 C873 1.287 . S
C873 C872 1.287 . S
C873 C874 1.524 . S
C873 H876 0.999 . S
C874 H844 0.950 . S
C874 C873 1.524 . S
C874 C875 1.415 . S
C875 H845 0.950 . S
C875 C870 1.363 . S
C875 C874 1.415 . S
H876 C873 0.999 . S
H877 C858 0.913 . S
H878 C896 0.951 . S
H879 C898 0.951 . S
H880 C900 0.950 . S
H881 C901 0.950 . S
H882 C903 0.950 . S
H883 C906 0.950 . S
H884 C907 0.950 . S
H885 C909 0.950 . S
H886 C910 0.950 . S
H887 C911 0.951 . S
H888 C913 0.951 . S
H889 C915 0.950 . S
H890 C916 0.950 . S
H891 C918 0.950 . S
H892 C921 0.950 . S
H893 C922 0.950 . S
H894 C924 0.950 . S
H895 C925 0.950 . S
C896 H878 0.951 . S
C896 C897 1.366 . S
C896 C898 1.388 . S
C897 C896 1.366 . S
C897 C901 1.385 . S
C898 H879 0.951 . S
C898 C896 1.388 . S
C898 C899 1.366 . S
C899 C898 1.366 . S
C899 C900 1.414 . S
C899 C902 1.499 . S
C900 H880 0.950 . S
C900 C899 1.414 . S
C900 C901 1.374 . S
C901 H881 0.950 . S
C901 C897 1.385 . S
C901 C900 1.374 . S
C902 C899 1.499 . S
C902 C903 1.373 . S
C902 C904 1.389 . S
C903 H882 0.950 . S
C903 C902 1.373 . S
C903 C919 1.377 . S
C904 C902 1.389 . S
C904 C905 1.524 . S
C904 C918 1.377 . S
C905 C904 1.524 . S
C905 C906 1.397 . S
C905 C910 1.363 . S
C906 H883 0.950 . S
C906 C905 1.397 . S
C906 C907 1.334 . S
C907 H884 0.950 . S
C907 C906 1.334 . S
C907 C908 1.287 . S
C908 C907 1.287 . S
C908 C909 1.524 . S
C908 H927 0.913 . S
C909 H885 0.950 . S
C909 C908 1.524 . S
C909 C910 1.415 . S
C910 H886 0.950 . S
C910 C905 1.363 . S
C910 C909 1.415 . S
C911 H887 0.951 . S
C911 C912 1.366 . S
C911 C913 1.388 . S
C912 C911 1.366 . S
C912 C916 1.385 . S
C913 H888 0.951 . S
C913 C911 1.388 . S
C913 C914 1.366 . S
C914 C913 1.366 . S
C914 C915 1.414 . S
C914 C917 1.499 . S
C915 H889 0.950 . S
C915 C914 1.414 . S
C915 C916 1.374 . S
C916 H890 0.950 . S
C916 C912 1.385 . S
C916 C915 1.374 . S
C917 C914 1.499 . S
C917 C918 1.373 . S
C917 C919 1.389 . S
C918 H891 0.950 . S
C918 C904 1.377 . S
C918 C917 1.373 . S
C919 C903 1.377 . S
C919 C917 1.389 . S
C919 C920 1.524 . S
C920 C919 1.524 . S
C920 C921 1.397 . S
C920 C925 1.363 . S
C921 H892 0.950 . S
C921 C920 1.397 . S
C921 C922 1.334 . S
C922 H893 0.950 . S
C922 C921 1.334 . S
C922 C923 1.287 . S
C923 C922 1.287 . S
C923 C924 1.524 . S
C923 H926 0.999 . S
C924 H894 0.950 . S
C924 C923 1.524 . S
C924 C925 1.415 . S
C925 H895 0.950 . S
C925 C920 1.363 . S
C925 C924 1.415 . S
H926 C923 0.999 . S
H927 C908 0.913 . S
H928 C946 0.951 . S
H929 C948 0.951 . S
H930 C950 0.950 . S
H931 C951 0.950 . S
H932 C953 0.950 . S
H933 C956 0.950 . S
H934 C957 0.950 . S
H935 C959 0.950 . S
H936 C960 0.950 . S
H937 C961 0.951 . S
H938 C963 0.951 . S
H939 C965 0.950 . S
H940 C966 0.950 . S
H941 C968 0.950 . S
H942 C971 0.950 . S
H943 C972 0.950 . S
H944 C974 0.950 . S
H945 C975 0.950 . S
C946 H928 0.951 . S
C946 C947 1.366 . S
C946 C948 1.388 . S
C947 C946 1.366 . S
C947 C951 1.385 . S
C948 H929 0.951 . S
C948 C946 1.388 . S
C948 C949 1.366 . S
C949 C948 1.366 . S
C949 C950 1.414 . S
C949 C952 1.499 . S
C950 H930 0.950 . S
C950 C949 1.414 . S
C950 C951 1.374 . S
C951 H931 0.950 . S
C951 C947 1.385 . S
C951 C950 1.374 . S
C952 C949 1.499 . S
C952 C953 1.373 . S
C952 C954 1.389 . S
C953 H932 0.950 . S
C953 C952 1.373 . S
C953 C969 1.377 . S
C954 C952 1.389 . S
C954 C955 1.524 . S
C954 C968 1.377 . S
C955 C954 1.524 . S
C955 C956 1.397 . S
C955 C960 1.363 . S
C956 H933 0.950 . S
C956 C955 1.397 . S
C956 C957 1.334 . S
C957 H934 0.950 . S
C957 C956 1.334 . S
C957 C958 1.287 . S
C958 C957 1.287 . S
C958 C959 1.524 . S
C958 H977 0.913 . S
C959 H935 0.950 . S
C959 C958 1.524 . S
C959 C960 1.415 . S
C960 H936 0.950 . S
C960 C955 1.363 . S
C960 C959 1.415 . S
C961 H937 0.951 . S
C961 C962 1.366 . S
C961 C963 1.388 . S
C962 C961 1.366 . S
C962 C966 1.385 . S
C963 H938 0.951 . S
C963 C961 1.388 . S
C963 C964 1.366 . S
C964 C963 1.366 . S
C964 C965 1.414 . S
C964 C967 1.499 . S
C965 H939 0.950 . S
C965 C964 1.414 . S
C965 C966 1.374 . S
C966 H940 0.950 . S
C966 C962 1.385 . S
C966 C965 1.374 . S
C967 C964 1.499 . S
C967 C968 1.373 . S
C967 C969 1.389 . S
C968 H941 0.950 . S
C968 C954 1.377 . S
C968 C967 1.373 . S
C969 C953 1.377 . S
C969 C967 1.389 . S
C969 C970 1.524 . S
C970 C969 1.524 . S
C970 C971 1.397 . S
C970 C975 1.363 . S
C971 H942 0.950 . S
C971 C970 1.397 . S
C971 C972 1.334 . S
C972 H943 0.950 . S
C972 C971 1.334 . S
C972 C973 1.287 . S
C973 C972 1.287 . S
C973 C974 1.524 . S
C973 H976 0.999 . S
C974 H944 0.950 . S
C974 C973 1.524 . S
C974 C975 1.415 . S
C975 H945 0.950 . S
C975 C970 1.363 . S
C975 C974 1.415 . S
H976 C973 0.999 . S
H977 C958 0.913 . S
H978 C996 0.951 . S
H979 C998 0.951 . S
H980 C1000 0.950 . S
H981 C1001 0.950 . S
H982 C1003 0.950 . S
H983 C1006 0.950 . S
H984 C1007 0.950 . S
H985 C1009 0.950 . S
H986 C1010 0.950 . S
H987 C1011 0.951 . S
H988 C1013 0.951 . S
H989 C1015 0.950 . S
H990 C1016 0.950 . S
H991 C1018 0.950 . S
H992 C1021 0.950 . S
H993 C1022 0.950 . S
H994 C1024 0.950 . S
H995 C1025 0.950 . S
C996 H978 0.951 . S
C996 C997 1.366 . S
C996 C998 1.388 . S
C997 C996 1.366 . S
C997 C1001 1.385 . S
C998 H979 0.951 . S
C998 C996 1.388 . S
C998 C999 1.366 . S
C999 C998 1.366 . S
C999 C1000 1.414 . S
C999 C1002 1.499 . S
C1000 H980 0.950 . S
C1000 C999 1.414 . S
C1000 C1001 1.374 . S
C1001 H981 0.950 . S
C1001 C997 1.385 . S
C1001 C1000 1.374 . S
C1002 C999 1.499 . S
C1002 C1003 1.373 . S
C1002 C1004 1.389 . S
C1003 H982 0.950 . S
C1003 C1002 1.373 . S
C1003 C1019 1.377 . S
C1004 C1002 1.389 . S
C1004 C1005 1.524 . S
C1004 C1018 1.377 . S
C1005 C1004 1.524 . S
C1005 C1006 1.397 . S
C1005 C1010 1.363 . S
C1006 H983 0.950 . S
C1006 C1005 1.397 . S
C1006 C1007 1.334 . S
C1007 H984 0.950 . S
C1007 C1006 1.334 . S
C1007 C1008 1.287 . S
C1008 C1007 1.287 . S
C1008 C1009 1.524 . S
C1008 H1027 0.913 . S
C1009 H985 0.950 . S
C1009 C1008 1.524 . S
C1009 C1010 1.415 . S
C1010 H986 0.950 . S
C1010 C1005 1.363 . S
C1010 C1009 1.415 . S
C1011 H987 0.951 . S
C1011 C1012 1.366 . S
C1011 C1013 1.388 . S
C1012 C1011 1.366 . S
C1012 C1016 1.385 . S
C1013 H988 0.951 . S
C1013 C1011 1.388 . S
C1013 C1014 1.366 . S
C1014 C1013 1.366 . S
C1014 C1015 1.414 . S
C1014 C1017 1.499 . S
C1015 H989 0.950 . S
C1015 C1014 1.414 . S
C1015 C1016 1.374 . S
C1016 H990 0.950 . S
C1016 C1012 1.385 . S
C1016 C1015 1.374 . S
C1017 C1014 1.499 . S
C1017 C1018 1.373 . S
C1017 C1019 1.389 . S
C1018 H991 0.950 . S
C1018 C1004 1.377 . S
C1018 C1017 1.373 . S
C1019 C1003 1.377 . S
C1019 C1017 1.389 . S
C1019 C1020 1.524 . S
C1020 C1019 1.524 . S
C1020 C1021 1.397 . S
C1020 C1025 1.363 . S
C1021 H992 0.950 . S
C1021 C1020 1.397 . S
C1021 C1022 1.334 . S
C1022 H993 0.950 . S
C1022 C1021 1.334 . S
C1022 C1023 1.287 . S
C1023 C1022 1.287 . S
C1023 C1024 1.524 . S
C1023 H1026 0.999 . S
C1024 H994 0.950 . S
C1024 C1023 1.524 . S
C1024 C1025 1.415 . S
C1025 H995 0.950 . S
C1025 C1020 1.363 . S
C1025 C1024 1.415 . S
H1026 C1023 0.999 . S
H1027 C1008 0.913 . S
H1028 C1046 0.951 . S
H1029 C1048 0.951 . S
H1030 C1050 0.950 . S
H1031 C1051 0.950 . S
H1032 C1053 0.950 . S
H1033 C1056 0.950 . S
H1034 C1057 0.950 . S
H1035 C1059 0.950 . S
H1036 C1060 0.950 . S
H1037 C1061 0.951 . S
H1038 C1063 0.951 . S
H1039 C1065 0.950 . S
H1040 C1066 0.950 . S
H1041 C1068 0.950 . S
H1042 C1071 0.950 . S
H1043 C1072 0.950 . S
H1044 C1074 0.950 . S
H1045 C1075 0.950 . S
C1046 H1028 0.951 . S
C1046 C1047 1.366 . S
C1046 C1048 1.388 . S
C1047 C1046 1.366 . S
C1047 C1051 1.385 . S
C1048 H1029 0.951 . S
C1048 C1046 1.388 . S
C1048 C1049 1.366 . S
C1049 C1048 1.366 . S
C1049 C1050 1.414 . S
C1049 C1052 1.499 . S
C1050 H1030 0.950 . S
C1050 C1049 1.414 . S
C1050 C1051 1.374 . S
C1051 H1031 0.950 . S
C1051 C1047 1.385 . S
C1051 C1050 1.374 . S
C1052 C1049 1.499 . S
C1052 C1053 1.373 . S
C1052 C1054 1.389 . S
C1053 H1032 0.950 . S
C1053 C1052 1.373 . S
C1053 C1069 1.377 . S
C1054 C1052 1.389 . S
C1054 C1055 1.524 . S
C1054 C1068 1.377 . S
C1055 C1054 1.524 . S
C1055 C1056 1.397 . S
C1055 C1060 1.363 . S
C1056 H1033 0.950 . S
C1056 C1055 1.397 . S
C1056 C1057 1.334 . S
C1057 H1034 0.950 . S
C1057 C1056 1.334 . S
C1057 C1058 1.287 . S
C1058 C1057 1.287 . S
C1058 C1059 1.524 . S
C1058 H1077 0.913 . S
C1059 H1035 0.950 . S
C1059 C1058 1.524 . S
C1059 C1060 1.415 . S
C1060 H1036 0.950 . S
C1060 C1055 1.363 . S
C1060 C1059 1.415 . S
C1061 H1037 0.951 . S
C1061 C1062 1.366 . S
C1061 C1063 1.388 . S
C1062 C1061 1.366 . S
C1062 C1066 1.385 . S
C1063 H1038 0.951 . S
C1063 C1061 1.388 . S
C1063 C1064 1.366 . S
C1064 C1063 1.366 . S
C1064 C1065 1.414 . S
C1064 C1067 1.499 . S
C1065 H1039 0.950 . S
C1065 C1064 1.414 . S
C1065 C1066 1.374 . S
C1066 H1040 0.950 . S
C1066 C1062 1.385 . S
C1066 C1065 1.374 . S
C1067 C1064 1.499 . S
C1067 C1068 1.373 . S
C1067 C1069 1.389 . S
C1068 H1041 0.950 . S
C1068 C1054 1.377 . S
C1068 C1067 1.373 . S
C1069 C1053 1.377 . S
C1069 C1067 1.389 . S
C1069 C1070 1.524 . S
C1070 C1069 1.524 . S
C1070 C1071 1.397 . S
C1070 C1075 1.363 . S
C1071 H1042 0.950 . S
C1071 C1070 1.397 . S
C1071 C1072 1.334 . S
C1072 H1043 0.950 . S
C1072 C1071 1.334 . S
C1072 C1073 1.287 . S
C1073 C1072 1.287 . S
C1073 C1074 1.524 . S
C1073 H1076 0.999 . S
C1074 H1044 0.950 . S
C1074 C1073 1.524 . S
C1074 C1075 1.415 . S
C1075 H1045 0.950 . S
C1075 C1070 1.363 . S
C1075 C1074 1.415 . S
H1076 C1073 0.999 . S
H1077 C1058 0.913 . S
H1078 C1096 0.951 . S
H1079 C1098 0.951 . S
H1080 C1100 0.950 . S
H1081 C1101 0.950 . S
H1082 C1103 0.950 . S
H1083 C1106 0.950 . S
H1084 C1107 0.950 . S
H1085 C1109 0.950 . S
H1086 C1110 0.950 . S
H1087 C1111 0.951 . S
H1088 C1113 0.951 . S
H1089 C1115 0.950 . S
H1090 C1116 0.950 . S
H1091 C1118 0.971 . S
H1092 C1121 0.950 . S
H1093 C1122 0.950 . S
H1094 C1124 0.950 . S
H1095 C1125 0.950 . S
C1096 H1078 0.951 . S
C1096 C1097 1.366 . S
C1096 C1098 1.388 . S
C1097 C1096 1.366 . S
C1097 C1101 1.385 . S
C1098 H1079 0.951 . S
C1098 C1096 1.388 . S
C1098 C1099 1.366 . S
C1099 C1098 1.366 . S
C1099 C1100 1.414 . S
C1099 C1102 1.499 . S
C1100 H1080 0.950 . S
C1100 C1099 1.414 . S
C1100 C1101 1.374 . S
C1101 H1081 0.950 . S
C1101 C1097 1.385 . S
C1101 C1100 1.374 . S
C1102 C1099 1.499 . S
C1102 C1103 1.373 . S
C1102 C1104 1.389 . S
C1103 H1082 0.950 . S
C1103 C1102 1.373 . S
C1103 C1119 1.377 . S
C1104 C1102 1.389 . S
C1104 C1105 1.524 1_556 S
C1104 C1118 1.369 1_556 S
C1105 C1104 1.524 1_554 S
C1105 C1106 1.397 . S
C1105 C1110 1.363 . S
C1106 H1083 0.950 . S
C1106 C1105 1.397 . S
C1106 C1107 1.334 . S
C1107 H1084 0.950 . S
C1107 C1106 1.334 . S
C1107 C1108 1.287 . S
C1108 C1107 1.287 . S
C1108 C1109 1.524 . S
C1108 H1127 0.913 . S
C1109 H1085 0.950 . S
C1109 C1108 1.524 . S
C1109 C1110 1.415 . S
C1110 H1086 0.950 . S
C1110 C1105 1.363 . S
C1110 C1109 1.415 . S
C1111 H1087 0.951 . S
C1111 C1112 1.366 . S
C1111 C1113 1.388 1_554 S
C1112 C1111 1.366 . S
C1112 C1116 1.385 . S
C1113 H1088 0.951 . S
C1113 C1111 1.388 1_556 S
C1113 C1114 1.366 . S
C1114 C1113 1.366 . S
C1114 C1115 1.414 1_556 S
C1114 C1117 1.499 . S
C1115 H1089 0.950 . S
C1115 C1114 1.414 1_554 S
C1115 C1116 1.374 . S
C1116 H1090 0.950 . S
C1116 C1112 1.385 . S
C1116 C1115 1.374 . S
C1117 C1114 1.499 . S
C1117 C1118 1.361 1_556 S
C1117 C1119 1.389 . S
C1118 H1091 0.971 . S
C1118 C1104 1.369 1_554 S
C1118 C1117 1.361 1_554 S
C1119 C1103 1.377 . S
C1119 C1117 1.389 . S
C1119 C1120 1.524 . S
C1120 C1119 1.524 . S
C1120 C1121 1.397 . S
C1120 C1125 1.363 . S
C1121 H1092 0.950 . S
C1121 C1120 1.397 . S
C1121 C1122 1.334 . S
C1122 H1093 0.950 . S
C1122 C1121 1.334 . S
C1122 C1123 1.287 . S
C1123 C1122 1.287 . S
C1123 C1124 1.524 . S
C1123 H1126 0.999 . S
C1124 H1094 0.950 . S
C1124 C1123 1.524 . S
C1124 C1125 1.415 . S
C1125 H1095 0.950 . S
C1125 C1120 1.363 . S
C1125 C1124 1.415 . S
H1126 C1123 0.999 . S
H1127 C1108 0.913 . S
C547 C29 1.228 . S
C562 C313 1.228 . S
C597 C117 1.229 . S
C612 C401 1.229 . S
C647 C489 1.229 . S
C662 C205 1.229 . S
C697 C57 1.228 . S
C712 C284 1.228 . S
C747 C145 1.228 . S
C762 C372 1.228 . S
C797 C460 1.228 . S
C812 C233 1.228 . S
C847 C108 1.432 . S
C862 C49 1.432 . S
C897 C196 1.430 . S
C912 C137 1.430 . S
C947 C225 1.431 . S
C962 C293 1.431 . S
C997 C381 1.431 . S
C1012 C321 1.431 . S
C1047 C469 1.430 . S
C1062 C409 1.430 . S
C1097 C497 1.431 . S
C1112 C20 1.431 . S
