# Generated by pormake.
# Topology skc, (5)-cn, num edge types: 1
# Building blocks:
#     Node 0, Type 0, BuildingBlock: BEQFEK_clean_sbu_0, # of connection points: 5
#     Node 1, Type 0, BuildingBlock: BEQFEK_clean_sbu_0, # of connection points: 5
#     Node 2, Type 0, BuildingBlock: BEQFEK_clean_sbu_0, # of connection points: 5
#     Node 3, Type 0, BuildingBlock: BEQFEK_clean_sbu_0, # of connection points: 5
#     Node 4, Type 0, BuildingBlock: BEQFEK_clean_sbu_0, # of connection points: 5
#     Node 5, Type 0, BuildingBlock: BEQFEK_clean_sbu_0, # of connection points: 5
#     Node 6, Type 0, BuildingBlock: BEQFEK_clean_sbu_0, # of connection points: 5
#     Node 7, Type 0, BuildingBlock: BEQFEK_clean_sbu_0, # of connection points: 5
#     Edge 8, Type (0, 0), BuildingBlock: CIFDUS_clean_linker_0, # of connection points: 2
#     Edge 9, Type (0, 0), BuildingBlock: CIFDUS_clean_linker_0, # of connection points: 2
#     Edge 10, Type (0, 0), BuildingBlock: CIFDUS_clean_linker_0, # of connection points: 2
#     Edge 11, Type (0, 0), BuildingBlock: CIFDUS_clean_linker_0, # of connection points: 2
#     Edge 12, Type (0, 0), BuildingBlock: CIFDUS_clean_linker_0, # of connection points: 2
#     Edge 13, Type (0, 0), BuildingBlock: CIFDUS_clean_linker_0, # of connection points: 2
#     Edge 14, Type (0, 0), BuildingBlock: CIFDUS_clean_linker_0, # of connection points: 2
#     Edge 15, Type (0, 0), BuildingBlock: CIFDUS_clean_linker_0, # of connection points: 2
#     Edge 16, Type (0, 0), BuildingBlock: CIFDUS_clean_linker_0, # of connection points: 2
#     Edge 17, Type (0, 0), BuildingBlock: CIFDUS_clean_linker_0, # of connection points: 2
#     Edge 18, Type (0, 0), BuildingBlock: CIFDUS_clean_linker_0, # of connection points: 2
#     Edge 19, Type (0, 0), BuildingBlock: CIFDUS_clean_linker_0, # of connection points: 2
#     Edge 20, Type (0, 0), BuildingBlock: CIFDUS_clean_linker_0, # of connection points: 2
#     Edge 21, Type (0, 0), BuildingBlock: CIFDUS_clean_linker_0, # of connection points: 2
#     Edge 22, Type (0, 0), BuildingBlock: CIFDUS_clean_linker_0, # of connection points: 2
#     Edge 23, Type (0, 0), BuildingBlock: CIFDUS_clean_linker_0, # of connection points: 2
#     Edge 24, Type (0, 0), BuildingBlock: CIFDUS_clean_linker_0, # of connection points: 2
#     Edge 25, Type (0, 0), BuildingBlock: CIFDUS_clean_linker_0, # of connection points: 2
#     Edge 26, Type (0, 0), BuildingBlock: CIFDUS_clean_linker_0, # of connection points: 2
#     Edge 27, Type (0, 0), BuildingBlock: CIFDUS_clean_linker_0, # of connection points: 2
# Relax obj value: 0.151
# Max RMSD: 0.197
# Mean RMSD: 0.197
data_MOF--net-skc--node1-BEQFEK_clean_sbu_0--edge1-CIFDUS_clean_linker_0
_symmetry_space_group_name_H-M    P1
_symmetry_Int_Tables_number       1
_symmetry_cell_setting            triclinic
loop_
_symmetry_equiv_pos_as_xyz
'x, y, z'
_cell_length_a     41.240158
_cell_length_b     19.200674
_cell_length_c     22.054363
_cell_angle_alpha  90.005915
_cell_angle_beta   89.79786
_cell_angle_gamma 90.049895
loop_
_atom_site_label
_atom_site_type_symbol
_atom_site_fract_x
_atom_site_fract_y
_atom_site_fract_z
_atom_type_partial_charge
Co0 Co 0.07863 0.19984 0.15289 0.0
Co1 Co 0.11772 0.27128 0.04659 0.0
C2 C 0.07081 0.15364 0.02384 0.0
O3 O 0.06273 0.14875 0.07961 0.0
O4 O 0.09219 0.19723 0.00622 0.0
C5 C 0.03131 0.14201 0.23478 0.0
O6 O 0.01184 0.14832 0.18807 0.0
C7 C 0.16776 0.28204 0.95019 0.0
C8 C 0.1697 0.39588 0.93597 0.0
C9 C 0.18316 0.33368 0.91647 0.0
N10 N 0.14648 0.31261 0.98824 0.0
N11 N 0.14777 0.38063 0.97932 0.0
C12 C 0.17161 0.20487 0.94377 0.0
H13 H 0.15071 0.17711 0.96431 0.0
H14 H 0.19392 0.18783 0.96735 0.0
H15 H 0.17404 0.1906 0.89519 0.0
C16 C 0.14492 0.18597 0.20216 0.0
N17 N 0.12455 0.20391 0.15717 0.0
N18 N 0.14105 0.23583 0.11413 0.0
C19 C 0.17248 0.23961 0.13077 0.0
C20 C 0.17594 0.20785 0.18688 0.0
C21 C 0.13457 0.15006 0.25925 0.0
H22 H 0.11879 0.10511 0.24797 0.0
H23 H 0.1557 0.13151 0.28572 0.0
H24 H 0.12022 0.18682 0.2874 0.0
O25 O 0.06095 0.29576 0.15098 0.0
O26 O 0.08665 0.34481 0.0731 0.0
H27 H 0.18772 0.32828 0.07866 0.0
H28 H 0.21881 0.29248 0.12699 0.0
C29 C 0.19805 0.27948 0.09716 0.0
H30 H 0.20717 0.24745 0.05901 0.0
H31 H 0.13364 0.41676 0.00286 0.0
O32 O 0.06105 0.15796 0.22855 0.0
C33 C 0.06587 0.34738 0.11594 0.0
Co34 Co 0.93446 0.8153 0.15086 0.0
Co35 Co 0.89215 0.75687 0.04411 0.0
C36 C 0.938 0.87502 0.02457 0.0
O37 O 0.94788 0.8725 0.07928 0.0
O38 O 0.91537 0.83532 0.00595 0.0
C39 C 0.97817 0.89529 0.22771 0.0
O40 O 0.99222 0.91468 0.17688 0.0
C41 C 0.84125 0.75343 0.95133 0.0
C42 C 0.83608 0.64039 0.93536 0.0
C43 C 0.82387 0.70458 0.91772 0.0
N44 N 0.86239 0.7193 0.98681 0.0
N45 N 0.85935 0.65183 0.97672 0.0
C46 C 0.83685 0.83074 0.95356 0.0
H47 H 0.84733 0.85228 0.9959 0.0
H48 H 0.81076 0.84443 0.9509 0.0
H49 H 0.84976 0.85477 0.91459 0.0
C50 C 0.86937 0.82524 0.20828 0.0
N51 N 0.88864 0.81008 0.16057 0.0
N52 N 0.87077 0.78448 0.11652 0.0
C53 C 0.83953 0.78249 0.13494 0.0
C54 C 0.83763 0.80854 0.19349 0.0
C55 C 0.88126 0.85561 0.26659 0.0
H56 H 0.89576 0.90306 0.25693 0.0
H57 H 0.86095 0.8692 0.29752 0.0
H58 H 0.89738 0.81745 0.28923 0.0
O59 O 0.95318 0.72057 0.13923 0.0
O60 O 0.92485 0.68349 0.05998 0.0
H61 H 0.79108 0.73982 0.12854 0.0
H62 H 0.80458 0.78937 0.06398 0.0
C63 C 0.81228 0.75172 0.09917 0.0
H64 H 0.82038 0.7032 0.07657 0.0
H65 H 0.87288 0.61354 0.99867 0.0
O66 O 0.95382 0.85464 0.2258 0.0
C67 C 0.9473 0.67492 0.09877 0.0
Co68 Co 0.06868 0.80834 0.65673 0.0
Co69 Co 0.11559 0.7416 0.75247 0.0
C70 C 0.06948 0.85868 0.78443 0.0
O71 O 0.05875 0.8633 0.73048 0.0
O72 O 0.09124 0.81434 0.79829 0.0
C73 C 0.04213 0.90621 0.56479 0.0
O74 O 0.06105 0.95579 0.58546 0.0
C75 C 0.16776 0.73641 0.84336 0.0
C76 C 0.17648 0.62321 0.85014 0.0
C77 C 0.18649 0.68677 0.87358 0.0
N78 N 0.14793 0.70324 0.8046 0.0
N79 N 0.15321 0.63563 0.80903 0.0
C80 C 0.16939 0.81411 0.84779 0.0
H81 H 0.15819 0.83844 0.80729 0.0
H82 H 0.19493 0.8317 0.85177 0.0
H83 H 0.15566 0.83151 0.8884 0.0
C84 C 0.132 0.82366 0.59001 0.0
N85 N 0.1143 0.80543 0.63918 0.0
N86 N 0.13383 0.77756 0.6797 0.0
C87 C 0.16435 0.77699 0.65749 0.0
C88 C 0.16421 0.8068 0.60027 0.0
C89 C 0.11822 0.85091 0.53203 0.0
H90 H 0.09474 0.82522 0.52235 0.0
H91 H 0.1143 0.90779 0.53635 0.0
H92 H 0.13504 0.84184 0.49344 0.0
O93 O 0.05119 0.71266 0.66903 0.0
O94 O 0.08586 0.66368 0.73286 0.0
H95 H 0.18762 0.69356 0.70473 0.0
H96 H 0.21515 0.74794 0.66157 0.0
C97 C 0.193 0.74765 0.6902 0.0
H98 H 0.19771 0.77922 0.73126 0.0
H99 H 0.14089 0.59791 0.78399 0.0
O100 O 0.04297 0.8457 0.58811 0.0
C101 C 0.06073 0.66045 0.6997 0.0
Co102 Co 0.92963 0.19391 0.66008 0.0
Co103 Co 0.88443 0.25695 0.76205 0.0
C104 C 0.93486 0.14647 0.78847 0.0
O105 O 0.94368 0.14077 0.73321 0.0
O106 O 0.91257 0.18874 0.80417 0.0
C107 C 0.98131 0.14599 0.58243 0.0
O108 O 0.99946 0.15949 0.62987 0.0
C109 C 0.8336 0.25593 0.85763 0.0
C110 C 0.81765 0.36569 0.85623 0.0
C111 C 0.8111 0.30177 0.88283 0.0
N112 N 0.85185 0.29099 0.81703 0.0
N113 N 0.8424 0.35673 0.81709 0.0
C114 C 0.83803 0.18031 0.87197 0.0
H115 H 0.86341 0.1643 0.86418 0.0
H116 H 0.82243 0.1487 0.8417 0.0
H117 H 0.83134 0.16929 0.91981 0.0
C118 C 0.86582 0.18305 0.59838 0.0
N119 N 0.88379 0.19489 0.6484 0.0
N120 N 0.86486 0.21906 0.69167 0.0
C121 C 0.83417 0.2222 0.67097 0.0
C122 C 0.8337 0.20032 0.61092 0.0
C123 C 0.88009 0.16486 0.53791 0.0
H124 H 0.89997 0.20181 0.52702 0.0
H125 H 0.89071 0.11185 0.54017 0.0
H126 H 0.86185 0.16673 0.50116 0.0
O127 O 0.94587 0.29071 0.67013 0.0
O128 O 0.91218 0.33744 0.738 0.0
H129 H 0.8085 0.30396 0.71625 0.0
H130 H 0.78248 0.23743 0.68455 0.0
C131 C 0.80588 0.24734 0.70761 0.0
H132 H 0.80537 0.21979 0.75161 0.0
H133 H 0.85238 0.39523 0.7893 0.0
O134 O 0.95084 0.15495 0.58637 0.0
C135 C 0.93632 0.34226 0.70194 0.0
Co136 Co 0.57318 0.69162 0.64976 0.0
Co137 Co 0.61932 0.75525 0.55017 0.0
C138 C 0.57125 0.64479 0.51918 0.0
O139 O 0.5608 0.64251 0.57362 0.0
O140 O 0.59458 0.68479 0.50416 0.0
C141 C 0.54909 0.5916 0.74267 0.0
O142 O 0.5705 0.54547 0.72446 0.0
C143 C 0.67236 0.76039 0.46021 0.0
C144 C 0.68359 0.87292 0.4575 0.0
C145 C 0.69283 0.80921 0.43374 0.0
N146 N 0.6522 0.7937 0.49851 0.0
N147 N 0.6589 0.86101 0.49629 0.0
C148 C 0.67061 0.68394 0.44725 0.0
H149 H 0.65862 0.65609 0.48531 0.0
H150 H 0.69502 0.66177 0.43906 0.0
H151 H 0.65601 0.6758 0.40566 0.0
C152 C 0.63627 0.67726 0.71425 0.0
N153 N 0.61861 0.69224 0.66455 0.0
N154 N 0.63806 0.71676 0.62207 0.0
C155 C 0.66884 0.7157 0.64278 0.0
C156 C 0.66869 0.69068 0.70191 0.0
C157 C 0.62212 0.66041 0.77514 0.0
H158 H 0.59791 0.68466 0.78027 0.0
H159 H 0.61985 0.60314 0.77982 0.0
H160 H 0.63803 0.67949 0.81209 0.0
O161 O 0.5583 0.78858 0.64434 0.0
O162 O 0.5889 0.83332 0.57076 0.0
H163 H 0.69594 0.79312 0.59448 0.0
H164 H 0.72089 0.72744 0.63022 0.0
C165 C 0.69781 0.73708 0.60614 0.0
H166 H 0.69836 0.70665 0.56358 0.0
H167 H 0.64684 0.8988 0.5218 0.0
O168 O 0.54776 0.65113 0.71763 0.0
C169 C 0.56628 0.83891 0.60999 0.0
Co170 Co 0.43604 0.30236 0.65628 0.0
Co171 Co 0.39057 0.24927 0.55155 0.0
C172 C 0.43641 0.36873 0.53297 0.0
O173 O 0.447 0.3647 0.58709 0.0
O174 O 0.41377 0.32895 0.51448 0.0
C175 C 0.45982 0.39251 0.75544 0.0
O176 O 0.44059 0.44212 0.73599 0.0
C177 C 0.33562 0.25109 0.46542 0.0
C178 C 0.33339 0.14035 0.43838 0.0
C179 C 0.31885 0.20438 0.429 0.0
N180 N 0.35881 0.21597 0.49539 0.0
N181 N 0.35734 0.14986 0.47885 0.0
C182 C 0.33124 0.32839 0.46849 0.0
H183 H 0.35159 0.35315 0.49322 0.0
H184 H 0.30832 0.3409 0.49244 0.0
H185 H 0.32956 0.35012 0.42197 0.0
C186 C 0.37286 0.30075 0.72325 0.0
N187 N 0.39056 0.29416 0.67192 0.0
N188 N 0.37153 0.27191 0.62807 0.0
C189 C 0.34113 0.26441 0.65013 0.0
C190 C 0.34095 0.28287 0.7109 0.0
C191 C 0.38638 0.32217 0.78333 0.0
H192 H 0.39098 0.379 0.78277 0.0
H193 H 0.36937 0.31109 0.82111 0.0
H194 H 0.4096 0.2948 0.79163 0.0
O195 O 0.45407 0.20947 0.63653 0.0
O196 O 0.42309 0.17344 0.56055 0.0
H197 H 0.2934 0.2175 0.64652 0.0
H198 H 0.30397 0.27242 0.58341 0.0
C199 C 0.31343 0.23338 0.61575 0.0
H200 H 0.3218 0.18724 0.58991 0.0
H201 H 0.37277 0.11114 0.49509 0.0
O202 O 0.46044 0.33382 0.72877 0.0
C203 C 0.44695 0.16453 0.59625 0.0
Co204 Co 0.56884 0.30481 0.16953 0.0
Co205 Co 0.61261 0.23661 0.27006 0.0
C206 C 0.56957 0.3589 0.29738 0.0
O207 O 0.55864 0.35995 0.24333 0.0
O208 O 0.59156 0.31584 0.31331 0.0
C209 C 0.52089 0.37626 0.09527 0.0
O210 O 0.50426 0.38404 0.14574 0.0
C211 C 0.6676 0.21699 0.35504 0.0
C212 C 0.66845 0.10223 0.36196 0.0
C213 C 0.68453 0.16164 0.38142 0.0
N214 N 0.64321 0.19072 0.32162 0.0
N215 N 0.64375 0.1222 0.32648 0.0
C216 C 0.67519 0.29315 0.35749 0.0
H217 H 0.66262 0.32116 0.32033 0.0
H218 H 0.70173 0.30187 0.3539 0.0
H219 H 0.66647 0.31472 0.40127 0.0
C220 C 0.6326 0.31829 0.10894 0.0
N221 N 0.61415 0.29803 0.15629 0.0
N222 N 0.63252 0.26613 0.19633 0.0
C223 C 0.66315 0.26332 0.17454 0.0
C224 C 0.66416 0.29693 0.11898 0.0
C225 C 0.61996 0.35561 0.05438 0.0
H226 H 0.60308 0.32076 0.02969 0.0
H227 H 0.60614 0.4023 0.06898 0.0
H228 H 0.63986 0.37155 0.02332 0.0
O229 O 0.54878 0.21115 0.17944 0.0
O230 O 0.57804 0.16711 0.25448 0.0
H231 H 0.68275 0.17922 0.22698 0.0
H232 H 0.71079 0.21653 0.17276 0.0
C233 C 0.69097 0.22825 0.20535 0.0
H234 H 0.70077 0.26331 0.24072 0.0
H235 H 0.62761 0.08886 0.30452 0.0
O236 O 0.5484 0.34653 0.09689 0.0
C237 C 0.55458 0.16275 0.21734 0.0
Co238 Co 0.43315 0.68654 0.14813 0.0
Co239 Co 0.38603 0.74693 0.24824 0.0
C240 C 0.43686 0.6416 0.27899 0.0
O241 O 0.44727 0.63987 0.22447 0.0
O242 O 0.41266 0.67921 0.29394 0.0
C243 C 0.48288 0.61277 0.07831 0.0
O244 O 0.49811 0.60386 0.12994 0.0
C245 C 0.33748 0.75738 0.34792 0.0
C246 C 0.31109 0.85251 0.32119 0.0
C247 C 0.31102 0.79899 0.36335 0.0
N248 N 0.35173 0.78413 0.29802 0.0
N249 N 0.33612 0.84164 0.28303 0.0
C250 C 0.35041 0.69576 0.38156 0.0
H251 H 0.37711 0.69994 0.3847 0.0
H252 H 0.34445 0.64746 0.35627 0.0
H253 H 0.34052 0.69267 0.42828 0.0
C254 C 0.37078 0.66136 0.08678 0.0
N255 N 0.38788 0.68127 0.13574 0.0
N256 N 0.36791 0.70452 0.17772 0.0
C257 C 0.33721 0.69786 0.15739 0.0
C258 C 0.33797 0.67101 0.0988 0.0
C259 C 0.3861 0.64185 0.02748 0.0
H260 H 0.4056 0.67962 0.0164 0.0
H261 H 0.39727 0.58951 0.0316 0.0
H262 H 0.36841 0.64156 0.98978 0.0
O263 O 0.44632 0.78511 0.15151 0.0
O264 O 0.41514 0.82678 0.22572 0.0
H265 H 0.30367 0.77222 0.19295 0.0
H266 H 0.28578 0.68897 0.17527 0.0
C267 C 0.30761 0.71512 0.19381 0.0
H268 H 0.31093 0.69831 0.24142 0.0
H269 H 0.34196 0.87236 0.24551 0.0
O270 O 0.45584 0.64445 0.07779 0.0
C271 C 0.43743 0.83467 0.18603 0.0
H272 H 0.03746 0.42227 0.02733 0.0
H273 H 0.04826 0.41104 0.22131 0.0
H274 H 0.01316 0.51313 0.23369 0.0
H275 H 0.97869 0.60489 0.18882 0.0
H276 H 0.96378 0.60729 0.99531 0.0
H277 H 1.00088 0.50931 0.98315 0.0
C278 C 0.03228 0.4427 0.0722 0.0
C279 C 0.04567 0.41018 0.1233 0.0
C280 C 0.01112 0.49944 0.07901 0.0
C281 C 0.03827 0.43577 0.18137 0.0
C282 C 0.0182 0.49395 0.18842 0.0
C283 C 0.98358 0.58375 0.14411 0.0
C284 C 0.96859 0.61332 0.09307 0.0
C285 C 0.00435 0.52607 0.13755 0.0
C286 C 0.97485 0.58509 0.03538 0.0
C287 C 0.99619 0.5293 0.02831 0.0
H288 H 1.00134 0.35745 0.69426 0.0
H289 H 0.91234 0.4744 0.70488 0.0
H290 H 0.94299 0.5838 0.70148 0.0
H291 H 0.99536 0.64598 0.69738 0.0
H292 H 0.08437 0.52843 0.6985 0.0
H293 H 0.05362 0.41935 0.6954 0.0
C294 C 0.98872 0.407 0.69538 0.0
C295 C 0.95469 0.40819 0.69904 0.0
C296 C 0.00654 0.46938 0.69569 0.0
C297 C 0.93855 0.47247 0.70186 0.0
C298 C 0.95605 0.53487 0.69989 0.0
C299 C 0.00793 0.59637 0.69658 0.0
C300 C 0.04201 0.59495 0.69749 0.0
C301 C 0.99007 0.53396 0.69701 0.0
C302 C 0.05812 0.53057 0.69771 0.0
C303 C 0.04057 0.46831 0.69587 0.0
H304 H 0.53252 0.90456 0.52204 0.0
H305 H 0.55795 0.91654 0.71101 0.0
H306 H 0.52378 0.01991 0.7234 0.0
H307 H 0.48534 0.10438 0.68113 0.0
H308 H 0.45584 0.08612 0.4943 0.0
H309 H 0.49253 0.98739 0.48036 0.0
C310 C 0.53081 0.93065 0.56557 0.0
C311 C 0.54797 0.90427 0.61538 0.0
C312 C 0.51006 0.98817 0.57285 0.0
C313 C 0.54509 0.93683 0.67207 0.0
C314 C 0.52549 0.99556 0.67917 0.0
C315 C 0.48694 0.07875 0.63739 0.0
C316 C 0.46793 0.10257 0.58885 0.0
C317 C 0.5076 0.02124 0.63003 0.0
C318 C 0.47004 0.06845 0.53255 0.0
C319 C 0.49116 0.01224 0.52443 0.0
H320 H 0.46601 0.90322 0.27816 0.0
H321 H 0.44999 0.91181 0.08545 0.0
H322 H 0.48366 0.01684 0.07809 0.0
H323 H 0.51961 0.10338 0.12628 0.0
H324 H 0.54019 0.08611 0.31735 0.0
H325 H 0.50312 0.98734 0.32571 0.0
C326 C 0.4696 0.9289 0.23482 0.0
C327 C 0.45527 0.90101 0.18256 0.0
C328 C 0.49015 0.98712 0.23062 0.0
C329 C 0.46066 0.93314 0.12626 0.0
C330 C 0.47998 0.99287 0.12206 0.0
C331 C 0.51589 0.07796 0.16968 0.0
C332 C 0.5326 0.10197 0.22108 0.0
C333 C 0.49518 0.01986 0.17385 0.0
C334 C 0.52781 0.06822 0.27699 0.0
C335 C 0.50649 0.01195 0.2819 0.0
H336 H 0.31018 0.15606 0.31527 0.0
H337 H 0.26382 0.2776 0.45509 0.0
H338 H 0.21552 0.29016 0.39213 0.0
H339 H 0.18559 0.26262 0.29838 0.0
H340 H 0.23243 0.14418 0.15733 0.0
H341 H 0.28141 0.13384 0.21944 0.0
C342 C 0.28956 0.18578 0.33157 0.0
C343 C 0.29069 0.21683 0.38922 0.0
C344 C 0.2619 0.19267 0.29508 0.0
C345 C 0.26388 0.255 0.41016 0.0
C346 C 0.2361 0.26144 0.37446 0.0
C347 C 0.20661 0.23461 0.28155 0.0
C348 C 0.20557 0.20343 0.22402 0.0
C349 C 0.23473 0.23001 0.31708 0.0
C350 C 0.23289 0.16816 0.2018 0.0
C351 C 0.26078 0.1623 0.23722 0.0
H352 H 0.7049 0.87125 0.32607 0.0
H353 H 0.7445 0.72464 0.4537 0.0
H354 H 0.79315 0.71167 0.39082 0.0
H355 H 0.82504 0.74429 0.30018 0.0
H356 H 0.78467 0.8875 0.17063 0.0
H357 H 0.73577 0.90012 0.2333 0.0
C358 C 0.72412 0.83601 0.33955 0.0
C359 C 0.72098 0.79775 0.3935 0.0
C360 C 0.75193 0.82882 0.30308 0.0
C361 C 0.74606 0.75287 0.41127 0.0
C362 C 0.77399 0.74608 0.37572 0.0
C363 C 0.80546 0.77825 0.28604 0.0
C364 C 0.8083 0.81555 0.23156 0.0
C365 C 0.77727 0.78403 0.32168 0.0
C366 C 0.78282 0.8587 0.21276 0.0
C367 C 0.75496 0.86582 0.24847 0.0
H368 H 0.27663 0.89806 0.42264 0.0
H369 H 0.28586 0.67512 0.40526 0.0
H370 H 0.24302 0.65825 0.48009 0.0
H371 H 0.20115 0.70677 0.54817 0.0
H372 H 0.18821 0.92894 0.55821 0.0
H373 H 0.23372 0.94647 0.48792 0.0
C374 C 0.26942 0.84577 0.43556 0.0
C375 C 0.28556 0.78805 0.41025 0.0
C376 C 0.24375 0.83639 0.47687 0.0
C377 C 0.27532 0.72064 0.42641 0.0
C378 C 0.25031 0.71085 0.46849 0.0
C379 C 0.20858 0.75887 0.53507 0.0
C380 C 0.19186 0.81662 0.55842 0.0
C381 C 0.23431 0.7683 0.49392 0.0
C382 C 0.20104 0.88396 0.54071 0.0
C383 C 0.22699 0.89388 0.50068 0.0
H384 H 0.8111 0.1005 0.53446 0.0
H385 H 0.79498 0.31251 0.59098 0.0
H386 H 0.74721 0.31984 0.52608 0.0
H387 H 0.70883 0.26418 0.45703 0.0
H388 H 0.72719 0.05486 0.39395 0.0
H389 H 0.77488 0.04802 0.45829 0.0
C390 C 0.79728 0.14845 0.53187 0.0
C391 C 0.80618 0.20548 0.56803 0.0
C392 C 0.77013 0.15268 0.49361 0.0
C393 C 0.78815 0.2674 0.56442 0.0
C394 C 0.76093 0.27173 0.52714 0.0
C395 C 0.72361 0.21783 0.45544 0.0
C396 C 0.7144 0.16076 0.41934 0.0
C397 C 0.75151 0.21448 0.49186 0.0
C398 C 0.73349 0.09991 0.42105 0.0
C399 C 0.76093 0.09584 0.45779 0.0
H400 H 0.77594 0.61303 0.89309 0.0
H401 H 0.81135 0.81651 0.84213 0.0
H402 H 0.76579 0.83116 0.77355 0.0
H403 H 0.7156 0.78602 0.72749 0.0
H404 H 0.68306 0.5787 0.77177 0.0
H405 H 0.72769 0.56572 0.84359 0.0
C406 C 0.7738 0.66067 0.86699 0.0
C407 C 0.79663 0.71449 0.87463 0.0
C408 C 0.74802 0.66792 0.82616 0.0
C409 C 0.79352 0.77542 0.83976 0.0
C410 C 0.76763 0.78348 0.79962 0.0
C411 C 0.71865 0.73765 0.7522 0.0
C412 C 0.69632 0.68312 0.7441 0.0
C413 C 0.7447 0.73013 0.79254 0.0
C414 C 0.69995 0.62141 0.7775 0.0
C415 C 0.7255 0.6139 0.81834 0.0
H416 H 0.23634 0.24916 0.91825 0.0
H417 H 0.18868 0.40694 0.81188 0.0
H418 H 0.23272 0.4034 0.73741 0.0
H419 H 0.28578 0.35787 0.70409 0.0
H420 H 0.33409 0.20265 0.81178 0.0
H421 H 0.28866 0.20166 0.88382 0.0
C422 C 0.23518 0.28142 0.87804 0.0
C423 C 0.20895 0.32717 0.86991 0.0
C424 C 0.26086 0.27988 0.83594 0.0
C425 C 0.20853 0.37092 0.81885 0.0
C426 C 0.2337 0.36896 0.77629 0.0
C427 C 0.28614 0.32377 0.7433 0.0
C428 C 0.31315 0.28095 0.75334 0.0
C429 C 0.26012 0.32409 0.78463 0.0
C430 C 0.31358 0.23668 0.80393 0.0
C431 C 0.28763 0.236 0.84488 0.0
H432 H 0.69149 0.20404 0.0427 0.0
H433 H 0.69955 0.41486 0.10724 0.0
H434 H 0.74671 0.43442 0.04116 0.0
H435 H 0.78516 0.3913 0.96439 0.0
H436 H 0.77403 0.18281 0.89429 0.0
H437 H 0.72914 0.16198 0.96363 0.0
C438 C 0.70378 0.25402 0.04213 0.0
C439 C 0.69254 0.30797 0.07947 0.0
C440 C 0.7305 0.26491 0.00359 0.0
C441 C 0.70814 0.37282 0.07863 0.0
C442 C 0.73499 0.38387 0.04099 0.0
C443 C 0.77302 0.34115 0.9645 0.0
C444 C 0.78398 0.28786 0.92571 0.0
C445 C 0.74635 0.33028 0.00318 0.0
C446 C 0.7675 0.22368 0.92566 0.0
C447 C 0.74131 0.21202 0.96471 0.0
H448 H 0.23445 0.5955 0.89955 0.0
H449 H 0.19604 0.79463 0.95573 0.0
H450 H 0.23977 0.8075 0.02821 0.0
H451 H 0.28961 0.76301 0.07545 0.0
H452 H 0.32492 0.55918 0.02691 0.0
H453 H 0.28157 0.54709 0.9521 0.0
C454 C 0.23551 0.64185 0.92759 0.0
C455 C 0.21247 0.69529 0.91979 0.0
C456 C 0.26017 0.64788 0.971 0.0
C457 C 0.21413 0.7542 0.95762 0.0
C458 C 0.23897 0.76116 1.00019 0.0
C459 C 0.28749 0.71553 0.04913 0.0
C460 C 0.31049 0.66219 0.05631 0.0
C461 C 0.26222 0.70854 0.00701 0.0
C462 C 0.30771 0.60129 0.02147 0.0
C463 C 0.2829 0.59432 0.97891 0.0
H464 H 0.0637 0.14088 0.34222 0.0
H465 H 0.96887 0.10813 0.2649 0.0
H466 H 0.94545 0.09851 0.36639 0.0
H467 H 0.95094 0.11278 0.47665 0.0
H468 H 0.04583 0.14547 0.55372 0.0
H469 H 0.07014 0.14054 0.45279 0.0
C470 C 0.03794 0.13102 0.34744 0.0
C471 C 0.01799 0.12662 0.29589 0.0
C472 C 0.02456 0.12607 0.40595 0.0
C473 C 0.98475 0.11273 0.30369 0.0
C474 C 0.97131 0.10723 0.36178 0.0
C475 C 0.97699 0.11803 0.47151 0.0
C476 C 0.99641 0.1311 0.52267 0.0
C477 C 0.99082 0.11596 0.4132 0.0
C478 C 0.0302 0.13636 0.51516 0.0
C479 C 0.04414 0.13385 0.45736 0.0
H480 H 0.06222 0.96382 0.45889 0.0
H481 H 0.98013 0.86693 0.54612 0.0
H482 H 0.9513 0.86253 0.44952 0.0
H483 H 0.95208 0.87341 0.33918 0.0
H484 H 0.03589 0.96122 0.24969 0.0
H485 H 0.06159 0.9811 0.34787 0.0
C486 C 0.03773 0.9433 0.45668 0.0
C487 C 0.02311 0.91604 0.50918 0.0
C488 C 0.02195 0.93789 0.40044 0.0
C489 C 0.99167 0.88837 0.50603 0.0
C490 C 0.9753 0.88551 0.45086 0.0
C491 C 0.97582 0.89766 0.34107 0.0
C492 C 0.99217 0.91499 0.28707 0.0
C493 C 0.99062 0.90806 0.39751 0.0
C494 C 0.02283 0.94682 0.29049 0.0
C495 C 0.03758 0.95818 0.34666 0.0
H496 H 0.00863 0.91238 0.78152 0.0
H497 H 0.09091 0.88519 0.89947 0.0
H498 H 0.05679 0.90947 0.98771 0.0
H499 H 1.00196 0.90732 0.03108 0.0
H500 H 0.91913 0.92001 0.91268 0.0
H501 H 0.95497 0.93435 0.82527 0.0
C502 C 0.01936 0.91382 0.82634 0.0
C503 C 0.05207 0.89503 0.83407 0.0
C504 C 0.99923 0.92374 0.87706 0.0
C505 C 0.06563 0.89806 0.89241 0.0
C506 C 0.04607 0.91155 0.94294 0.0
C507 C 0.99171 0.91589 0.98648 0.0
C508 C 0.95796 0.91078 0.97814 0.0
C509 C 0.01249 0.91977 0.93599 0.0
C510 C 0.94507 0.92244 0.9201 0.0
C511 C 0.96557 0.92991 0.87 0.0
H512 H 0.00766 0.11434 0.03183 0.0
H513 H 0.08935 0.11737 0.90923 0.0
H514 H 0.05324 0.09747 0.8234 0.0
H515 H 0.99821 0.10796 0.78222 0.0
H516 H 0.91653 0.11653 0.90469 0.0
H517 H 0.95265 0.10172 0.99111 0.0
C518 C 0.01767 0.10831 0.98659 0.0
C519 C 0.05104 0.11887 0.97673 0.0
C520 C 0.99659 0.1007 0.93707 0.0
C521 C 0.06365 0.11059 0.91785 0.0
C522 C 0.04298 0.09977 0.86867 0.0
C523 C 0.98819 0.1043 0.82765 0.0
C524 C 0.95479 0.11493 0.83706 0.0
C525 C 0.00929 0.09924 0.87741 0.0
C526 C 0.94221 0.10975 0.89626 0.0
C527 C 0.9629 0.10173 0.9458 0.0
H528 H 0.45712 0.62374 0.96589 0.0
H529 H 0.54303 0.55526 0.05981 0.0
H530 H 0.56978 0.53221 0.96269 0.0
H531 H 0.57056 0.54332 0.85088 0.0
H532 H 0.48558 0.61937 0.75909 0.0
H533 H 0.4563 0.62591 0.85547 0.0
C534 C 0.48164 0.60343 0.96533 0.0
C535 C 0.49819 0.59228 0.02012 0.0
C536 C 0.49699 0.59139 0.90954 0.0
C537 C 0.52983 0.5651 0.01832 0.0
C538 C 0.54516 0.55192 0.96278 0.0
C539 C 0.54539 0.55964 0.85212 0.0
C540 C 0.53008 0.58076 0.79838 0.0
C541 C 0.52922 0.56632 0.90807 0.0
C542 C 0.49769 0.60288 0.80019 0.0
C543 C 0.48108 0.60712 0.85521 0.0
H544 H 0.43698 0.44147 0.86274 0.0
H545 H 0.52217 0.35744 0.77595 0.0
H546 H 0.54986 0.35145 0.87367 0.0
H547 H 0.54784 0.35891 0.98397 0.0
H548 H 0.46145 0.43488 0.07296 0.0
H549 H 0.43612 0.45491 0.97436 0.0
C550 C 0.46181 0.42313 0.8654 0.0
C551 C 0.47769 0.40007 0.81264 0.0
C552 C 0.47703 0.41696 0.92212 0.0
C553 C 0.50963 0.37541 0.81627 0.0
C554 C 0.52534 0.37164 0.87204 0.0
C555 C 0.52354 0.38027 0.98201 0.0
C556 C 0.50649 0.39468 0.03591 0.0
C557 C 0.50895 0.39036 0.92539 0.0
C558 C 0.47506 0.42271 0.03224 0.0
C559 C 0.46053 0.4341 0.97585 0.0
H560 H 0.50815 0.40895 0.29149 0.0
H561 H 0.58994 0.39152 0.41204 0.0
H562 H 0.55465 0.41454 0.49893 0.0
H563 H 0.49959 0.40778 0.54075 0.0
H564 H 0.41752 0.41053 0.41993 0.0
H565 H 0.45378 0.42683 0.33337 0.0
C566 C 0.5185 0.4123 0.33654 0.0
C567 C 0.55148 0.39647 0.34546 0.0
C568 C 0.49776 0.42122 0.38653 0.0
C569 C 0.56451 0.4021 0.40408 0.0
C570 C 0.54427 0.41474 0.45384 0.0
C571 C 0.4895 0.4145 0.49578 0.0
C572 C 0.45594 0.40592 0.48662 0.0
C573 C 0.51061 0.4195 0.44584 0.0
C574 C 0.44331 0.41553 0.42808 0.0
C575 C 0.46407 0.4241 0.37845 0.0
H576 H 0.50803 0.60564 0.52394 0.0
H577 H 0.5908 0.61299 0.40386 0.0
H578 H 0.55537 0.59579 0.31659 0.0
H579 H 0.50064 0.6061 0.27421 0.0
H580 H 0.41789 0.60874 0.39446 0.0
H581 H 0.45347 0.59368 0.48162 0.0
C582 C 0.51847 0.60145 0.47888 0.0
C583 C 0.55192 0.61231 0.47027 0.0
C584 C 0.49781 0.59528 0.4287 0.0
C585 C 0.56504 0.60601 0.41159 0.0
C586 C 0.54476 0.5967 0.36161 0.0
C587 C 0.49027 0.60135 0.31928 0.0
C588 C 0.45672 0.61073 0.32798 0.0
C589 C 0.511 0.59557 0.36944 0.0
C590 C 0.44371 0.60366 0.38667 0.0
C591 C 0.46407 0.5953 0.4366 0.0
loop_
_geom_bond_atom_site_label_1
_geom_bond_atom_site_label_2
_geom_bond_distance
_geom_bond_site_symmetry_2
_ccdc_geom_bond_type
Co0 O3 1.970 . S
Co0 N17 1.989 . S
Co0 O25 1.967 . S
Co0 O32 1.920 . S
Co1 O4 1.966 1_554 S
Co1 N10 2.022 1_554 S
Co1 N18 1.993 . S
Co1 O26 1.941 . S
C2 O3 1.258 . S
C2 O4 1.263 1_554 S
O3 Co0 1.970 . S
O3 C2 1.258 . S
O4 Co1 1.966 1_556 S
O4 C2 1.263 1_556 S
C5 O6 1.235 . S
C5 O32 1.289 . S
O6 C5 1.235 . S
C7 C9 1.400 . S
C7 N10 1.351 . S
C7 C12 1.501 . S
C8 C9 1.387 . S
C8 N11 1.341 . S
C9 C7 1.400 . S
C9 C8 1.387 . S
N10 Co1 2.022 1_556 S
N10 C7 1.351 . S
N10 N11 1.365 . S
N11 C8 1.341 . S
N11 N10 1.365 . S
N11 H31 0.862 . S
C12 C7 1.501 . S
C12 H13 0.961 . S
C12 H14 0.961 . S
C12 H15 0.960 . S
H13 C12 0.961 . S
H14 C12 0.961 . S
H15 C12 0.960 . S
C16 N17 1.342 . S
C16 C20 1.401 . S
C16 C21 1.499 . S
N17 Co0 1.989 . S
N17 C16 1.342 . S
N17 N18 1.388 . S
N18 Co1 1.993 . S
N18 N17 1.388 . S
N18 C19 1.346 . S
C19 N18 1.346 . S
C19 C20 1.396 . S
C19 C29 1.510 . S
C20 C16 1.401 . S
C20 C19 1.396 . S
C21 C16 1.499 . S
C21 H22 0.959 . S
C21 H23 0.960 . S
C21 H24 0.961 . S
H22 C21 0.959 . S
H23 C21 0.960 . S
H24 C21 0.961 . S
O25 Co0 1.967 . S
O25 C33 1.258 . S
O26 Co1 1.941 . S
O26 C33 1.266 . S
H27 C29 0.959 . S
H28 C29 0.961 . S
C29 C19 1.510 . S
C29 H27 0.959 . S
C29 H28 0.961 . S
C29 H30 0.960 . S
H30 C29 0.960 . S
H31 N11 0.862 . S
O32 Co0 1.920 . S
O32 C5 1.289 . S
C33 O25 1.258 . S
C33 O26 1.266 . S
Co34 O37 1.970 . S
Co34 N51 1.989 . S
Co34 O59 1.967 . S
Co34 O66 1.920 . S
Co35 O38 1.966 1_554 S
Co35 N44 2.022 1_554 S
Co35 N52 1.993 . S
Co35 O60 1.941 . S
C36 O37 1.258 . S
C36 O38 1.263 1_554 S
O37 Co34 1.970 . S
O37 C36 1.258 . S
O38 Co35 1.966 1_556 S
O38 C36 1.263 1_556 S
C39 O40 1.235 . S
C39 O66 1.289 . S
O40 C39 1.235 . S
C41 C43 1.400 . S
C41 N44 1.351 . S
C41 C46 1.501 . S
C42 C43 1.387 . S
C42 N45 1.341 . S
C43 C41 1.400 . S
C43 C42 1.387 . S
N44 Co35 2.022 1_556 S
N44 C41 1.351 . S
N44 N45 1.365 . S
N45 C42 1.341 . S
N45 N44 1.365 . S
N45 H65 0.862 . S
C46 C41 1.501 . S
C46 H47 0.961 . S
C46 H48 0.961 . S
C46 H49 0.960 . S
H47 C46 0.961 . S
H48 C46 0.961 . S
H49 C46 0.960 . S
C50 N51 1.342 . S
C50 C54 1.401 . S
C50 C55 1.499 . S
N51 Co34 1.989 . S
N51 C50 1.342 . S
N51 N52 1.388 . S
N52 Co35 1.993 . S
N52 N51 1.388 . S
N52 C53 1.346 . S
C53 N52 1.346 . S
C53 C54 1.396 . S
C53 C63 1.510 . S
C54 C50 1.401 . S
C54 C53 1.396 . S
C55 C50 1.499 . S
C55 H56 0.959 . S
C55 H57 0.960 . S
C55 H58 0.961 . S
H56 C55 0.959 . S
H57 C55 0.960 . S
H58 C55 0.961 . S
O59 Co34 1.967 . S
O59 C67 1.258 . S
O60 Co35 1.941 . S
O60 C67 1.266 . S
H61 C63 0.959 . S
H62 C63 0.961 . S
C63 C53 1.510 . S
C63 H61 0.959 . S
C63 H62 0.961 . S
C63 H64 0.960 . S
H64 C63 0.960 . S
H65 N45 0.862 . S
O66 Co34 1.920 . S
O66 C39 1.289 . S
C67 O59 1.258 . S
C67 O60 1.266 . S
Co68 O71 1.970 . S
Co68 N85 1.989 . S
Co68 O93 1.967 . S
Co68 O100 1.920 . S
Co69 O72 1.966 . S
Co69 N78 2.022 . S
Co69 N86 1.993 . S
Co69 O94 1.941 . S
C70 O71 1.258 . S
C70 O72 1.263 . S
O71 Co68 1.970 . S
O71 C70 1.258 . S
O72 Co69 1.966 . S
O72 C70 1.263 . S
C73 O74 1.235 . S
C73 O100 1.289 . S
O74 C73 1.235 . S
C75 C77 1.400 . S
C75 N78 1.351 . S
C75 C80 1.501 . S
C76 C77 1.387 . S
C76 N79 1.341 . S
C77 C75 1.400 . S
C77 C76 1.387 . S
N78 Co69 2.022 . S
N78 C75 1.351 . S
N78 N79 1.365 . S
N79 C76 1.341 . S
N79 N78 1.365 . S
N79 H99 0.862 . S
C80 C75 1.501 . S
C80 H81 0.961 . S
C80 H82 0.961 . S
C80 H83 0.960 . S
H81 C80 0.961 . S
H82 C80 0.961 . S
H83 C80 0.960 . S
C84 N85 1.342 . S
C84 C88 1.401 . S
C84 C89 1.499 . S
N85 Co68 1.989 . S
N85 C84 1.342 . S
N85 N86 1.388 . S
N86 Co69 1.993 . S
N86 N85 1.388 . S
N86 C87 1.346 . S
C87 N86 1.346 . S
C87 C88 1.396 . S
C87 C97 1.510 . S
C88 C84 1.401 . S
C88 C87 1.396 . S
C89 C84 1.499 . S
C89 H90 0.959 . S
C89 H91 0.960 . S
C89 H92 0.961 . S
H90 C89 0.959 . S
H91 C89 0.960 . S
H92 C89 0.961 . S
O93 Co68 1.967 . S
O93 C101 1.258 . S
O94 Co69 1.941 . S
O94 C101 1.266 . S
H95 C97 0.959 . S
H96 C97 0.961 . S
C97 C87 1.510 . S
C97 H95 0.959 . S
C97 H96 0.961 . S
C97 H98 0.960 . S
H98 C97 0.960 . S
H99 N79 0.862 . S
O100 Co68 1.920 . S
O100 C73 1.289 . S
C101 O93 1.258 . S
C101 O94 1.266 . S
Co102 O105 1.970 . S
Co102 N119 1.989 . S
Co102 O127 1.967 . S
Co102 O134 1.920 . S
Co103 O106 1.966 . S
Co103 N112 2.022 . S
Co103 N120 1.993 . S
Co103 O128 1.941 . S
C104 O105 1.258 . S
C104 O106 1.263 . S
O105 Co102 1.970 . S
O105 C104 1.258 . S
O106 Co103 1.966 . S
O106 C104 1.263 . S
C107 O108 1.235 . S
C107 O134 1.289 . S
O108 C107 1.235 . S
C109 C111 1.400 . S
C109 N112 1.351 . S
C109 C114 1.501 . S
C110 C111 1.387 . S
C110 N113 1.341 . S
C111 C109 1.400 . S
C111 C110 1.387 . S
N112 Co103 2.022 . S
N112 C109 1.351 . S
N112 N113 1.365 . S
N113 C110 1.341 . S
N113 N112 1.365 . S
N113 H133 0.862 . S
C114 C109 1.501 . S
C114 H115 0.961 . S
C114 H116 0.961 . S
C114 H117 0.960 . S
H115 C114 0.961 . S
H116 C114 0.961 . S
H117 C114 0.960 . S
C118 N119 1.342 . S
C118 C122 1.401 . S
C118 C123 1.499 . S
N119 Co102 1.989 . S
N119 C118 1.342 . S
N119 N120 1.388 . S
N120 Co103 1.993 . S
N120 N119 1.388 . S
N120 C121 1.346 . S
C121 N120 1.346 . S
C121 C122 1.396 . S
C121 C131 1.510 . S
C122 C118 1.401 . S
C122 C121 1.396 . S
C123 C118 1.499 . S
C123 H124 0.959 . S
C123 H125 0.960 . S
C123 H126 0.961 . S
H124 C123 0.959 . S
H125 C123 0.960 . S
H126 C123 0.961 . S
O127 Co102 1.967 . S
O127 C135 1.258 . S
O128 Co103 1.941 . S
O128 C135 1.266 . S
H129 C131 0.959 . S
H130 C131 0.961 . S
C131 C121 1.510 . S
C131 H129 0.959 . S
C131 H130 0.961 . S
C131 H132 0.960 . S
H132 C131 0.960 . S
H133 N113 0.862 . S
O134 Co102 1.920 . S
O134 C107 1.289 . S
C135 O127 1.258 . S
C135 O128 1.266 . S
Co136 O139 1.970 . S
Co136 N153 1.989 . S
Co136 O161 1.967 . S
Co136 O168 1.920 . S
Co137 O140 1.966 . S
Co137 N146 2.022 . S
Co137 N154 1.993 . S
Co137 O162 1.941 . S
C138 O139 1.258 . S
C138 O140 1.263 . S
O139 Co136 1.970 . S
O139 C138 1.258 . S
O140 Co137 1.966 . S
O140 C138 1.263 . S
C141 O142 1.235 . S
C141 O168 1.289 . S
O142 C141 1.235 . S
C143 C145 1.400 . S
C143 N146 1.351 . S
C143 C148 1.501 . S
C144 C145 1.387 . S
C144 N147 1.341 . S
C145 C143 1.400 . S
C145 C144 1.387 . S
N146 Co137 2.022 . S
N146 C143 1.351 . S
N146 N147 1.365 . S
N147 C144 1.341 . S
N147 N146 1.365 . S
N147 H167 0.862 . S
C148 C143 1.501 . S
C148 H149 0.961 . S
C148 H150 0.961 . S
C148 H151 0.960 . S
H149 C148 0.961 . S
H150 C148 0.961 . S
H151 C148 0.960 . S
C152 N153 1.342 . S
C152 C156 1.401 . S
C152 C157 1.499 . S
N153 Co136 1.989 . S
N153 C152 1.342 . S
N153 N154 1.388 . S
N154 Co137 1.993 . S
N154 N153 1.388 . S
N154 C155 1.346 . S
C155 N154 1.346 . S
C155 C156 1.396 . S
C155 C165 1.510 . S
C156 C152 1.401 . S
C156 C155 1.396 . S
C157 C152 1.499 . S
C157 H158 0.959 . S
C157 H159 0.960 . S
C157 H160 0.961 . S
H158 C157 0.959 . S
H159 C157 0.960 . S
H160 C157 0.961 . S
O161 Co136 1.967 . S
O161 C169 1.258 . S
O162 Co137 1.941 . S
O162 C169 1.266 . S
H163 C165 0.959 . S
H164 C165 0.961 . S
C165 C155 1.510 . S
C165 H163 0.959 . S
C165 H164 0.961 . S
C165 H166 0.960 . S
H166 C165 0.960 . S
H167 N147 0.862 . S
O168 Co136 1.920 . S
O168 C141 1.289 . S
C169 O161 1.258 . S
C169 O162 1.266 . S
Co170 O173 1.970 . S
Co170 N187 1.989 . S
Co170 O195 1.967 . S
Co170 O202 1.920 . S
Co171 O174 1.966 . S
Co171 N180 2.022 . S
Co171 N188 1.993 . S
Co171 O196 1.941 . S
C172 O173 1.258 . S
C172 O174 1.263 . S
O173 Co170 1.970 . S
O173 C172 1.258 . S
O174 Co171 1.966 . S
O174 C172 1.263 . S
C175 O176 1.235 . S
C175 O202 1.289 . S
O176 C175 1.235 . S
C177 C179 1.400 . S
C177 N180 1.351 . S
C177 C182 1.501 . S
C178 C179 1.387 . S
C178 N181 1.341 . S
C179 C177 1.400 . S
C179 C178 1.387 . S
N180 Co171 2.022 . S
N180 C177 1.351 . S
N180 N181 1.365 . S
N181 C178 1.341 . S
N181 N180 1.365 . S
N181 H201 0.862 . S
C182 C177 1.501 . S
C182 H183 0.961 . S
C182 H184 0.961 . S
C182 H185 0.960 . S
H183 C182 0.961 . S
H184 C182 0.961 . S
H185 C182 0.960 . S
C186 N187 1.342 . S
C186 C190 1.401 . S
C186 C191 1.499 . S
N187 Co170 1.989 . S
N187 C186 1.342 . S
N187 N188 1.388 . S
N188 Co171 1.993 . S
N188 N187 1.388 . S
N188 C189 1.346 . S
C189 N188 1.346 . S
C189 C190 1.396 . S
C189 C199 1.510 . S
C190 C186 1.401 . S
C190 C189 1.396 . S
C191 C186 1.499 . S
C191 H192 0.959 . S
C191 H193 0.960 . S
C191 H194 0.961 . S
H192 C191 0.959 . S
H193 C191 0.960 . S
H194 C191 0.961 . S
O195 Co170 1.967 . S
O195 C203 1.258 . S
O196 Co171 1.941 . S
O196 C203 1.266 . S
H197 C199 0.959 . S
H198 C199 0.961 . S
C199 C189 1.510 . S
C199 H197 0.959 . S
C199 H198 0.961 . S
C199 H200 0.960 . S
H200 C199 0.960 . S
H201 N181 0.862 . S
O202 Co170 1.920 . S
O202 C175 1.289 . S
C203 O195 1.258 . S
C203 O196 1.266 . S
Co204 O207 1.970 . S
Co204 N221 1.989 . S
Co204 O229 1.967 . S
Co204 O236 1.920 . S
Co205 O208 1.966 . S
Co205 N214 2.022 . S
Co205 N222 1.993 . S
Co205 O230 1.941 . S
C206 O207 1.258 . S
C206 O208 1.263 . S
O207 Co204 1.970 . S
O207 C206 1.258 . S
O208 Co205 1.966 . S
O208 C206 1.263 . S
C209 O210 1.235 . S
C209 O236 1.289 . S
O210 C209 1.235 . S
C211 C213 1.400 . S
C211 N214 1.351 . S
C211 C216 1.501 . S
C212 C213 1.387 . S
C212 N215 1.341 . S
C213 C211 1.400 . S
C213 C212 1.387 . S
N214 Co205 2.022 . S
N214 C211 1.351 . S
N214 N215 1.365 . S
N215 C212 1.341 . S
N215 N214 1.365 . S
N215 H235 0.862 . S
C216 C211 1.501 . S
C216 H217 0.961 . S
C216 H218 0.961 . S
C216 H219 0.960 . S
H217 C216 0.961 . S
H218 C216 0.961 . S
H219 C216 0.960 . S
C220 N221 1.342 . S
C220 C224 1.401 . S
C220 C225 1.499 . S
N221 Co204 1.989 . S
N221 C220 1.342 . S
N221 N222 1.388 . S
N222 Co205 1.993 . S
N222 N221 1.388 . S
N222 C223 1.346 . S
C223 N222 1.346 . S
C223 C224 1.396 . S
C223 C233 1.510 . S
C224 C220 1.401 . S
C224 C223 1.396 . S
C225 C220 1.499 . S
C225 H226 0.959 . S
C225 H227 0.960 . S
C225 H228 0.961 . S
H226 C225 0.959 . S
H227 C225 0.960 . S
H228 C225 0.961 . S
O229 Co204 1.967 . S
O229 C237 1.258 . S
O230 Co205 1.941 . S
O230 C237 1.266 . S
H231 C233 0.959 . S
H232 C233 0.961 . S
C233 C223 1.510 . S
C233 H231 0.959 . S
C233 H232 0.961 . S
C233 H234 0.960 . S
H234 C233 0.960 . S
H235 N215 0.862 . S
O236 Co204 1.920 . S
O236 C209 1.289 . S
C237 O229 1.258 . S
C237 O230 1.266 . S
Co238 O241 1.970 . S
Co238 N255 1.989 . S
Co238 O263 1.967 . S
Co238 O270 1.920 . S
Co239 O242 1.966 . S
Co239 N248 2.022 . S
Co239 N256 1.993 . S
Co239 O264 1.941 . S
C240 O241 1.258 . S
C240 O242 1.263 . S
O241 Co238 1.970 . S
O241 C240 1.258 . S
O242 Co239 1.966 . S
O242 C240 1.263 . S
C243 O244 1.235 . S
C243 O270 1.289 . S
O244 C243 1.235 . S
C245 C247 1.400 . S
C245 N248 1.351 . S
C245 C250 1.501 . S
C246 C247 1.387 . S
C246 N249 1.341 . S
C247 C245 1.400 . S
C247 C246 1.387 . S
N248 Co239 2.022 . S
N248 C245 1.351 . S
N248 N249 1.365 . S
N249 C246 1.341 . S
N249 N248 1.365 . S
N249 H269 0.862 . S
C250 C245 1.501 . S
C250 H251 0.961 . S
C250 H252 0.961 . S
C250 H253 0.960 . S
H251 C250 0.961 . S
H252 C250 0.961 . S
H253 C250 0.960 . S
C254 N255 1.342 . S
C254 C258 1.401 . S
C254 C259 1.499 . S
N255 Co238 1.989 . S
N255 C254 1.342 . S
N255 N256 1.388 . S
N256 Co239 1.993 . S
N256 N255 1.388 . S
N256 C257 1.346 . S
C257 N256 1.346 . S
C257 C258 1.396 . S
C257 C267 1.510 . S
C258 C254 1.401 . S
C258 C257 1.396 . S
C259 C254 1.499 . S
C259 H260 0.959 . S
C259 H261 0.960 . S
C259 H262 0.961 . S
H260 C259 0.959 . S
H261 C259 0.960 . S
H262 C259 0.961 . S
O263 Co238 1.967 . S
O263 C271 1.258 . S
O264 Co239 1.941 . S
O264 C271 1.266 . S
H265 C267 0.959 . S
H266 C267 0.961 . S
C267 C257 1.510 . S
C267 H265 0.959 . S
C267 H266 0.961 . S
C267 H268 0.960 . S
H268 C267 0.960 . S
H269 N249 0.862 . S
O270 Co238 1.920 . S
O270 C243 1.289 . S
C271 O263 1.258 . S
C271 O264 1.266 . S
H272 C278 0.930 . S
H273 C281 0.930 . S
H274 C282 0.930 . S
H275 C283 0.930 . S
H276 C286 0.930 . S
H277 C287 0.930 . S
C278 H272 0.930 . S
C278 C279 1.355 . S
C278 C280 1.415 . S
C279 C278 1.355 . S
C279 C281 1.419 . S
C280 C278 1.415 . S
C280 C285 1.425 1_455 S
C280 C287 1.409 . S
C281 H273 0.930 . S
C281 C279 1.419 . S
C281 C282 1.362 1_455 S
C282 H274 0.930 . S
C282 C281 1.362 1_655 S
C282 C285 1.409 . S
C283 H275 0.930 . S
C283 C284 1.355 . S
C283 C285 1.415 . S
C284 C283 1.355 . S
C284 C286 1.419 . S
C285 C280 1.425 1_655 S
C285 C282 1.409 . S
C285 C283 1.415 . S
C286 H276 0.930 . S
C286 C284 1.419 . S
C286 C287 1.362 1_655 S
C287 H277 0.930 . S
C287 C280 1.409 . S
C287 C286 1.362 1_455 S
H288 C294 0.930 . S
H289 C297 0.930 . S
H290 C298 0.930 . S
H291 C299 0.930 . S
H292 C302 0.930 . S
H293 C303 0.930 . S
C294 H288 0.930 . S
C294 C295 1.355 . S
C294 C296 1.415 1_655 S
C295 C294 1.355 . S
C295 C297 1.419 . S
C296 C294 1.415 1_455 S
C296 C301 1.425 1_455 S
C296 C303 1.409 . S
C297 H289 0.930 . S
C297 C295 1.419 . S
C297 C298 1.362 . S
C298 H290 0.930 . S
C298 C297 1.362 . S
C298 C301 1.409 . S
C299 H291 0.930 . S
C299 C300 1.355 . S
C299 C301 1.415 1_455 S
C300 C299 1.355 . S
C300 C302 1.419 . S
C301 C296 1.425 1_655 S
C301 C298 1.409 . S
C301 C299 1.415 1_655 S
C302 H292 0.930 . S
C302 C300 1.419 . S
C302 C303 1.362 . S
C303 H293 0.930 . S
C303 C296 1.409 . S
C303 C302 1.362 . S
H304 C310 0.930 . S
H305 C313 0.930 . S
H306 C314 0.930 . S
H307 C315 0.930 . S
H308 C318 0.930 . S
H309 C319 0.930 . S
C310 H304 0.930 . S
C310 C311 1.355 . S
C310 C312 1.415 1_565 S
C311 C310 1.355 . S
C311 C313 1.419 . S
C312 C310 1.415 1_545 S
C312 C317 1.425 1_545 S
C312 C319 1.409 . S
C313 H305 0.930 . S
C313 C311 1.419 . S
C313 C314 1.362 . S
C314 H306 0.930 . S
C314 C313 1.362 . S
C314 C317 1.409 . S
C315 H307 0.930 . S
C315 C316 1.355 . S
C315 C317 1.415 1_545 S
C316 C315 1.355 . S
C316 C318 1.419 . S
C317 C312 1.425 1_565 S
C317 C314 1.409 . S
C317 C315 1.415 1_565 S
C318 H308 0.930 . S
C318 C316 1.419 . S
C318 C319 1.362 . S
C319 H309 0.930 . S
C319 C312 1.409 . S
C319 C318 1.362 . S
H320 C326 0.930 . S
H321 C329 0.930 . S
H322 C330 0.930 . S
H323 C331 0.930 . S
H324 C334 0.930 . S
H325 C335 0.930 . S
C326 H320 0.930 . S
C326 C327 1.355 . S
C326 C328 1.415 . S
C327 C326 1.355 . S
C327 C329 1.419 . S
C328 C326 1.415 . S
C328 C333 1.425 1_565 S
C328 C335 1.409 1_565 S
C329 H321 0.930 . S
C329 C327 1.419 . S
C329 C330 1.362 . S
C330 H322 0.930 . S
C330 C329 1.362 . S
C330 C333 1.409 1_565 S
C331 H323 0.930 . S
C331 C332 1.355 . S
C331 C333 1.415 . S
C332 C331 1.355 . S
C332 C334 1.419 . S
C333 C328 1.425 1_545 S
C333 C330 1.409 1_545 S
C333 C331 1.415 . S
C334 H324 0.930 . S
C334 C332 1.419 . S
C334 C335 1.362 . S
C335 H325 0.930 . S
C335 C328 1.409 1_545 S
C335 C334 1.362 . S
H336 C342 0.930 . S
H337 C345 0.930 . S
H338 C346 0.930 . S
H339 C347 0.930 . S
H340 C350 0.930 . S
H341 C351 0.930 . S
C342 H336 0.930 . S
C342 C343 1.355 . S
C342 C344 1.415 . S
C343 C342 1.355 . S
C343 C345 1.419 . S
C344 C342 1.415 . S
C344 C349 1.425 . S
C344 C351 1.409 . S
C345 H337 0.930 . S
C345 C343 1.419 . S
C345 C346 1.362 . S
C346 H338 0.930 . S
C346 C345 1.362 . S
C346 C349 1.409 . S
C347 H339 0.930 . S
C347 C348 1.355 . S
C347 C349 1.415 . S
C348 C347 1.355 . S
C348 C350 1.419 . S
C349 C344 1.425 . S
C349 C346 1.409 . S
C349 C347 1.415 . S
C350 H340 0.930 . S
C350 C348 1.419 . S
C350 C351 1.362 . S
C351 H341 0.930 . S
C351 C344 1.409 . S
C351 C350 1.362 . S
H352 C358 0.930 . S
H353 C361 0.930 . S
H354 C362 0.930 . S
H355 C363 0.930 . S
H356 C366 0.930 . S
H357 C367 0.930 . S
C358 H352 0.930 . S
C358 C359 1.355 . S
C358 C360 1.415 . S
C359 C358 1.355 . S
C359 C361 1.419 . S
C360 C358 1.415 . S
C360 C365 1.425 . S
C360 C367 1.409 . S
C361 H353 0.930 . S
C361 C359 1.419 . S
C361 C362 1.362 . S
C362 H354 0.930 . S
C362 C361 1.362 . S
C362 C365 1.409 . S
C363 H355 0.930 . S
C363 C364 1.355 . S
C363 C365 1.415 . S
C364 C363 1.355 . S
C364 C366 1.419 . S
C365 C360 1.425 . S
C365 C362 1.409 . S
C365 C363 1.415 . S
C366 H356 0.930 . S
C366 C364 1.419 . S
C366 C367 1.362 . S
C367 H357 0.930 . S
C367 C360 1.409 . S
C367 C366 1.362 . S
H368 C374 0.930 . S
H369 C377 0.930 . S
H370 C378 0.930 . S
H371 C379 0.930 . S
H372 C382 0.930 . S
H373 C383 0.930 . S
C374 H368 0.930 . S
C374 C375 1.355 . S
C374 C376 1.415 . S
C375 C374 1.355 . S
C375 C377 1.419 . S
C376 C374 1.415 . S
C376 C381 1.425 . S
C376 C383 1.409 . S
C377 H369 0.930 . S
C377 C375 1.419 . S
C377 C378 1.362 . S
C378 H370 0.930 . S
C378 C377 1.362 . S
C378 C381 1.409 . S
C379 H371 0.930 . S
C379 C380 1.355 . S
C379 C381 1.415 . S
C380 C379 1.355 . S
C380 C382 1.419 . S
C381 C376 1.425 . S
C381 C378 1.409 . S
C381 C379 1.415 . S
C382 H372 0.930 . S
C382 C380 1.419 . S
C382 C383 1.362 . S
C383 H373 0.930 . S
C383 C376 1.409 . S
C383 C382 1.362 . S
H384 C390 0.930 . S
H385 C393 0.930 . S
H386 C394 0.930 . S
H387 C395 0.930 . S
H388 C398 0.930 . S
H389 C399 0.930 . S
C390 H384 0.930 . S
C390 C391 1.355 . S
C390 C392 1.415 . S
C391 C390 1.355 . S
C391 C393 1.419 . S
C392 C390 1.415 . S
C392 C397 1.425 . S
C392 C399 1.409 . S
C393 H385 0.930 . S
C393 C391 1.419 . S
C393 C394 1.362 . S
C394 H386 0.930 . S
C394 C393 1.362 . S
C394 C397 1.409 . S
C395 H387 0.930 . S
C395 C396 1.355 . S
C395 C397 1.415 . S
C396 C395 1.355 . S
C396 C398 1.419 . S
C397 C392 1.425 . S
C397 C394 1.409 . S
C397 C395 1.415 . S
C398 H388 0.930 . S
C398 C396 1.419 . S
C398 C399 1.362 . S
C399 H389 0.930 . S
C399 C392 1.409 . S
C399 C398 1.362 . S
H400 C406 0.930 . S
H401 C409 0.930 . S
H402 C410 0.930 . S
H403 C411 0.930 . S
H404 C414 0.930 . S
H405 C415 0.930 . S
C406 H400 0.930 . S
C406 C407 1.355 . S
C406 C408 1.415 . S
C407 C406 1.355 . S
C407 C409 1.419 . S
C408 C406 1.415 . S
C408 C413 1.425 . S
C408 C415 1.409 . S
C409 H401 0.930 . S
C409 C407 1.419 . S
C409 C410 1.362 . S
C410 H402 0.930 . S
C410 C409 1.362 . S
C410 C413 1.409 . S
C411 H403 0.930 . S
C411 C412 1.355 . S
C411 C413 1.415 . S
C412 C411 1.355 . S
C412 C414 1.419 . S
C413 C408 1.425 . S
C413 C410 1.409 . S
C413 C411 1.415 . S
C414 H404 0.930 . S
C414 C412 1.419 . S
C414 C415 1.362 . S
C415 H405 0.930 . S
C415 C408 1.409 . S
C415 C414 1.362 . S
H416 C422 0.930 . S
H417 C425 0.930 . S
H418 C426 0.930 . S
H419 C427 0.930 . S
H420 C430 0.930 . S
H421 C431 0.930 . S
C422 H416 0.930 . S
C422 C423 1.355 . S
C422 C424 1.415 . S
C423 C422 1.355 . S
C423 C425 1.419 . S
C424 C422 1.415 . S
C424 C429 1.425 . S
C424 C431 1.409 . S
C425 H417 0.930 . S
C425 C423 1.419 . S
C425 C426 1.362 . S
C426 H418 0.930 . S
C426 C425 1.362 . S
C426 C429 1.409 . S
C427 H419 0.930 . S
C427 C428 1.355 . S
C427 C429 1.415 . S
C428 C427 1.355 . S
C428 C430 1.419 . S
C429 C424 1.425 . S
C429 C426 1.409 . S
C429 C427 1.415 . S
C430 H420 0.930 . S
C430 C428 1.419 . S
C430 C431 1.362 . S
C431 H421 0.930 . S
C431 C424 1.409 . S
C431 C430 1.362 . S
H432 C438 0.930 . S
H433 C441 0.930 . S
H434 C442 0.930 1_556 S
H435 C443 0.930 . S
H436 C446 0.930 . S
H437 C447 0.930 . S
C438 H432 0.930 . S
C438 C439 1.355 . S
C438 C440 1.415 . S
C439 C438 1.355 . S
C439 C441 1.419 . S
C440 C438 1.415 . S
C440 C445 1.425 1_554 S
C440 C447 1.409 . S
C441 H433 0.930 . S
C441 C439 1.419 . S
C441 C442 1.362 . S
C442 H434 0.930 1_554 S
C442 C441 1.362 . S
C442 C445 1.409 1_554 S
C443 H435 0.930 . S
C443 C444 1.355 . S
C443 C445 1.415 . S
C444 C443 1.355 . S
C444 C446 1.419 . S
C445 C440 1.425 1_556 S
C445 C442 1.409 1_556 S
C445 C443 1.415 . S
C446 H436 0.930 . S
C446 C444 1.419 . S
C446 C447 1.362 1_556 S
C447 H437 0.930 . S
C447 C440 1.409 . S
C447 C446 1.362 1_554 S
H448 C454 0.930 . S
H449 C457 0.930 . S
H450 C458 0.930 . S
H451 C459 0.930 . S
H452 C462 0.933 . S
H453 C463 0.930 . S
C454 H448 0.930 . S
C454 C455 1.355 . S
C454 C456 1.415 . S
C455 C454 1.355 . S
C455 C457 1.419 1_556 S
C456 C454 1.415 . S
C456 C461 1.425 1_556 S
C456 C463 1.409 . S
C457 H449 0.930 . S
C457 C455 1.419 1_554 S
C457 C458 1.362 . S
C458 H450 0.930 . S
C458 C457 1.362 . S
C458 C461 1.409 . S
C459 H451 0.930 . S
C459 C460 1.355 . S
C459 C461 1.415 . S
C460 C459 1.355 . S
C460 C462 1.419 . S
C461 C456 1.425 1_554 S
C461 C458 1.409 . S
C461 C459 1.415 . S
C462 H452 0.933 . S
C462 C460 1.419 . S
C462 C463 1.362 1_554 S
C463 H453 0.930 . S
C463 C456 1.409 . S
C463 C462 1.362 1_556 S
H464 C470 0.930 . S
H465 C473 0.930 . S
H466 C474 0.930 . S
H467 C475 0.930 . S
H468 C478 0.930 . S
H469 C479 0.930 . S
C470 H464 0.930 . S
C470 C471 1.355 . S
C470 C472 1.415 . S
C471 C470 1.355 . S
C471 C473 1.419 1_455 S
C472 C470 1.415 . S
C472 C477 1.425 1_455 S
C472 C479 1.409 . S
C473 H465 0.930 . S
C473 C471 1.419 1_655 S
C473 C474 1.362 . S
C474 H466 0.930 . S
C474 C473 1.362 . S
C474 C477 1.409 . S
C475 H467 0.930 . S
C475 C476 1.355 . S
C475 C477 1.415 . S
C476 C475 1.355 . S
C476 C478 1.419 1_655 S
C477 C472 1.425 1_655 S
C477 C474 1.409 . S
C477 C475 1.415 . S
C478 H468 0.930 . S
C478 C476 1.419 1_455 S
C478 C479 1.362 . S
C479 H469 0.930 . S
C479 C472 1.409 . S
C479 C478 1.362 . S
H480 C486 0.930 . S
H481 C489 0.930 . S
H482 C490 0.930 . S
H483 C491 0.930 . S
H484 C494 0.930 . S
H485 C495 0.930 . S
C486 H480 0.930 . S
C486 C487 1.355 . S
C486 C488 1.415 . S
C487 C486 1.355 . S
C487 C489 1.419 . S
C488 C486 1.415 . S
C488 C493 1.425 1_455 S
C488 C495 1.409 . S
C489 H481 0.930 . S
C489 C487 1.419 . S
C489 C490 1.362 1_455 S
C490 H482 0.930 . S
C490 C489 1.362 1_655 S
C490 C493 1.409 . S
C491 H483 0.930 . S
C491 C492 1.355 . S
C491 C493 1.415 . S
C492 C491 1.355 . S
C492 C494 1.419 . S
C493 C488 1.425 1_655 S
C493 C490 1.409 . S
C493 C491 1.415 . S
C494 H484 0.930 . S
C494 C492 1.419 . S
C494 C495 1.362 1_655 S
C495 H485 0.930 . S
C495 C488 1.409 . S
C495 C494 1.362 1_455 S
H496 C502 0.930 . S
H497 C505 0.930 . S
H498 C506 0.930 . S
H499 C507 0.930 1_554 S
H500 C510 0.930 . S
H501 C511 0.930 . S
C502 H496 0.930 . S
C502 C503 1.355 . S
C502 C504 1.415 1_455 S
C503 C502 1.355 . S
C503 C505 1.419 . S
C504 C502 1.415 1_655 S
C504 C509 1.425 1_655 S
C504 C511 1.409 . S
C505 H497 0.930 . S
C505 C503 1.419 . S
C505 C506 1.362 . S
C506 H498 0.930 . S
C506 C505 1.362 . S
C506 C509 1.409 . S
C507 H499 0.930 1_556 S
C507 C508 1.355 . S
C507 C509 1.415 1_655 S
C508 C507 1.355 . S
C508 C510 1.419 . S
C509 C504 1.425 1_455 S
C509 C506 1.409 . S
C509 C507 1.415 1_455 S
C510 H500 0.930 . S
C510 C508 1.419 . S
C510 C511 1.362 . S
C511 H501 0.930 . S
C511 C504 1.409 . S
C511 C510 1.362 . S
H512 C518 0.930 . S
H513 C521 0.930 . S
H514 C522 0.930 . S
H515 C523 0.930 . S
H516 C526 0.930 . S
H517 C527 0.930 . S
C518 H512 0.930 . S
C518 C519 1.355 . S
C518 C520 1.396 1_455 S
C519 C518 1.355 . S
C519 C521 1.419 . S
C520 C518 1.396 1_655 S
C520 C525 1.424 1_655 S
C520 C527 1.430 . S
C521 H513 0.930 . S
C521 C519 1.419 . S
C521 C522 1.362 . S
C522 H514 0.930 . S
C522 C521 1.362 . S
C522 C525 1.430 . S
C523 H515 0.930 . S
C523 C524 1.355 . S
C523 C525 1.396 1_655 S
C524 C523 1.355 . S
C524 C526 1.419 . S
C525 C520 1.424 1_455 S
C525 C522 1.430 . S
C525 C523 1.396 1_455 S
C526 H516 0.930 . S
C526 C524 1.419 . S
C526 C527 1.362 . S
C527 H517 0.930 . S
C527 C520 1.430 . S
C527 C526 1.362 . S
H528 C534 0.930 . S
H529 C537 0.930 . S
H530 C538 0.930 . S
H531 C539 0.930 . S
H532 C542 0.930 . S
H533 C543 0.930 . S
C534 H528 0.930 . S
C534 C535 1.355 1_556 S
C534 C536 1.415 . S
C535 C534 1.355 1_554 S
C535 C537 1.419 . S
C536 C534 1.415 . S
C536 C541 1.425 . S
C536 C543 1.409 . S
C537 H529 0.930 . S
C537 C535 1.419 . S
C537 C538 1.362 1_554 S
C538 H530 0.930 . S
C538 C537 1.362 1_556 S
C538 C541 1.409 . S
C539 H531 0.930 . S
C539 C540 1.355 . S
C539 C541 1.415 . S
C540 C539 1.355 . S
C540 C542 1.419 . S
C541 C536 1.425 . S
C541 C538 1.409 . S
C541 C539 1.415 . S
C542 H532 0.930 . S
C542 C540 1.419 . S
C542 C543 1.362 . S
C543 H533 0.930 . S
C543 C536 1.409 . S
C543 C542 1.362 . S
H544 C550 0.930 . S
H545 C553 0.930 . S
H546 C554 0.930 . S
H547 C555 0.930 . S
H548 C558 0.930 . S
H549 C559 0.930 . S
C550 H544 0.930 . S
C550 C551 1.355 . S
C550 C552 1.415 . S
C551 C550 1.355 . S
C551 C553 1.419 . S
C552 C550 1.415 . S
C552 C557 1.425 . S
C552 C559 1.409 . S
C553 H545 0.930 . S
C553 C551 1.419 . S
C553 C554 1.362 . S
C554 H546 0.930 . S
C554 C553 1.362 . S
C554 C557 1.409 . S
C555 H547 0.930 . S
C555 C556 1.355 1_556 S
C555 C557 1.415 . S
C556 C555 1.355 1_554 S
C556 C558 1.419 . S
C557 C552 1.425 . S
C557 C554 1.409 . S
C557 C555 1.415 . S
C558 H548 0.930 . S
C558 C556 1.419 . S
C558 C559 1.362 1_554 S
C559 H549 0.930 . S
C559 C552 1.409 . S
C559 C558 1.362 1_556 S
H560 C566 0.930 . S
H561 C569 0.930 . S
H562 C570 0.930 . S
H563 C571 0.930 . S
H564 C574 0.930 . S
H565 C575 0.930 . S
C566 H560 0.930 . S
C566 C567 1.355 . S
C566 C568 1.415 . S
C567 C566 1.355 . S
C567 C569 1.419 . S
C568 C566 1.415 . S
C568 C573 1.425 . S
C568 C575 1.409 . S
C569 H561 0.930 . S
C569 C567 1.419 . S
C569 C570 1.362 . S
C570 H562 0.930 . S
C570 C569 1.362 . S
C570 C573 1.409 . S
C571 H563 0.930 . S
C571 C572 1.355 . S
C571 C573 1.415 . S
C572 C571 1.355 . S
C572 C574 1.419 . S
C573 C568 1.425 . S
C573 C570 1.409 . S
C573 C571 1.415 . S
C574 H564 0.930 . S
C574 C572 1.419 . S
C574 C575 1.362 . S
C575 H565 0.930 . S
C575 C568 1.409 . S
C575 C574 1.362 . S
H576 C582 0.930 . S
H577 C585 0.930 . S
H578 C586 0.930 . S
H579 C587 0.930 . S
H580 C590 0.930 . S
H581 C591 0.930 . S
C582 H576 0.930 . S
C582 C583 1.355 . S
C582 C584 1.415 . S
C583 C582 1.355 . S
C583 C585 1.419 . S
C584 C582 1.415 . S
C584 C589 1.425 . S
C584 C591 1.409 . S
C585 H577 0.930 . S
C585 C583 1.419 . S
C585 C586 1.362 . S
C586 H578 0.930 . S
C586 C585 1.362 . S
C586 C589 1.409 . S
C587 H579 0.930 . S
C587 C588 1.355 . S
C587 C589 1.415 . S
C588 C587 1.355 . S
C588 C590 1.419 . S
C589 C584 1.425 . S
C589 C586 1.409 . S
C589 C587 1.415 . S
C590 H580 0.930 . S
C590 C588 1.419 . S
C590 C591 1.362 . S
C591 H581 0.930 . S
C591 C584 1.409 . S
C591 C590 1.362 . S
C279 C33 1.545 . S
C284 C67 1.545 . S
C295 C135 1.578 . S
C300 C101 1.578 . S
C311 C169 1.547 . S
C316 C203 1.546 . S
C327 C271 1.560 . S
C332 C237 1.560 . S
C343 C179 1.423 . S
C348 C20 1.512 . S
C359 C145 1.425 . S
C364 C54 1.512 . S
C375 C247 1.443 . S
C380 C88 1.514 . S
C391 C122 1.484 . S
C396 C213 1.343 . S
C407 C43 1.409 . S
C412 C156 1.498 . S
C423 C9 1.370 . S
C428 C190 1.486 . S
C439 C224 1.515 . S
C444 C111 1.438 . S
C455 C77 1.398 . S
C460 C258 1.494 . S
C471 C5 1.553 . S
C476 C107 1.553 . S
C487 C73 1.543 . S
C492 C39 1.543 . S
C503 C70 1.112 . S
C508 C36 1.076 1_556 S
C519 C2 1.134 1_556 S
C524 C104 1.043 . S
C535 C243 1.553 . S
C540 C141 1.553 . S
C551 C175 1.555 . S
C556 C209 1.555 . S
C567 C206 1.084 . S
C572 C172 1.105 . S
C583 C138 1.101 . S
C588 C240 1.088 . S
