# Generated by pormake.
# Topology sni, (6)-cn, num edge types: 1
# Building blocks:
#     Node 0, Type 0, BuildingBlock: IZENUY_clean_sbu_0, # of connection points: 6
#     Node 1, Type 0, BuildingBlock: IZENUY_clean_sbu_0, # of connection points: 6
#     Node 2, Type 0, BuildingBlock: IZENUY_clean_sbu_0, # of connection points: 6
#     Node 3, Type 0, BuildingBlock: IZENUY_clean_sbu_0, # of connection points: 6
#     Node 4, Type 0, BuildingBlock: IZENUY_clean_sbu_0, # of connection points: 6
#     Node 5, Type 0, BuildingBlock: IZENUY_clean_sbu_0, # of connection points: 6
#     Node 6, Type 0, BuildingBlock: IZENUY_clean_sbu_0, # of connection points: 6
#     Node 7, Type 0, BuildingBlock: IZENUY_clean_sbu_0, # of connection points: 6
#     Edge 8, Type (0, 0), BuildingBlock: KIFKEQ_clean_linker_1, # of connection points: 2
#     Edge 9, Type (0, 0), BuildingBlock: KIFKEQ_clean_linker_1, # of connection points: 2
#     Edge 10, Type (0, 0), BuildingBlock: KIFKEQ_clean_linker_1, # of connection points: 2
#     Edge 11, Type (0, 0), BuildingBlock: KIFKEQ_clean_linker_1, # of connection points: 2
#     Edge 12, Type (0, 0), BuildingBlock: KIFKEQ_clean_linker_1, # of connection points: 2
#     Edge 13, Type (0, 0), BuildingBlock: KIFKEQ_clean_linker_1, # of connection points: 2
#     Edge 14, Type (0, 0), BuildingBlock: KIFKEQ_clean_linker_1, # of connection points: 2
#     Edge 15, Type (0, 0), BuildingBlock: KIFKEQ_clean_linker_1, # of connection points: 2
#     Edge 16, Type (0, 0), BuildingBlock: KIFKEQ_clean_linker_1, # of connection points: 2
#     Edge 17, Type (0, 0), BuildingBlock: KIFKEQ_clean_linker_1, # of connection points: 2
#     Edge 18, Type (0, 0), BuildingBlock: KIFKEQ_clean_linker_1, # of connection points: 2
#     Edge 19, Type (0, 0), BuildingBlock: KIFKEQ_clean_linker_1, # of connection points: 2
#     Edge 20, Type (0, 0), BuildingBlock: KIFKEQ_clean_linker_1, # of connection points: 2
#     Edge 21, Type (0, 0), BuildingBlock: KIFKEQ_clean_linker_1, # of connection points: 2
#     Edge 22, Type (0, 0), BuildingBlock: KIFKEQ_clean_linker_1, # of connection points: 2
#     Edge 23, Type (0, 0), BuildingBlock: KIFKEQ_clean_linker_1, # of connection points: 2
#     Edge 24, Type (0, 0), BuildingBlock: KIFKEQ_clean_linker_1, # of connection points: 2
#     Edge 25, Type (0, 0), BuildingBlock: KIFKEQ_clean_linker_1, # of connection points: 2
#     Edge 26, Type (0, 0), BuildingBlock: KIFKEQ_clean_linker_1, # of connection points: 2
#     Edge 27, Type (0, 0), BuildingBlock: KIFKEQ_clean_linker_1, # of connection points: 2
#     Edge 28, Type (0, 0), BuildingBlock: KIFKEQ_clean_linker_1, # of connection points: 2
#     Edge 29, Type (0, 0), BuildingBlock: KIFKEQ_clean_linker_1, # of connection points: 2
#     Edge 30, Type (0, 0), BuildingBlock: KIFKEQ_clean_linker_1, # of connection points: 2
#     Edge 31, Type (0, 0), BuildingBlock: KIFKEQ_clean_linker_1, # of connection points: 2
# Relax obj value: 0.128
# Max RMSD: 0.110
# Mean RMSD: 0.110
data_MOF--net-sni--node1-IZENUY_clean_sbu_0--edge1-KIFKEQ_clean_linker_1
_symmetry_space_group_name_H-M    P1
_symmetry_Int_Tables_number       1
_symmetry_cell_setting            triclinic
loop_
_symmetry_equiv_pos_as_xyz
'x, y, z'
_cell_length_a     41.276033
_cell_length_b     41.261143
_cell_length_c     20.751122
_cell_angle_alpha  90.063402
_cell_angle_beta   89.942466
_cell_angle_gamma 90.040548
loop_
_atom_site_label
_atom_site_type_symbol
_atom_site_fract_x
_atom_site_fract_y
_atom_site_fract_z
_atom_type_partial_charge
Fe0 Fe 0.64927 0.20212 0.98823 0.0
Fe1 Fe 0.70233 0.14931 -0.00363 0.0
O2 O 0.66092 0.16072 0.99084 0.0
Fe3 Fe 0.63073 0.13045 0.98797 0.0
O4 O 0.61796 0.14367 0.90922 0.0
O5 O 0.61416 0.19523 0.93488 0.0
O6 O 0.67305 0.20903 0.91618 0.0
C7 C 0.7028 0.20277 0.90958 0.0
C8 C 0.60134 0.17837 0.06588 0.0
O9 O 0.71719 0.18334 0.94727 0.0
C10 C 0.67007 0.10589 0.08113 0.0
O11 O 0.68239 0.21634 0.03994 0.0
O12 O 0.70751 0.17195 0.07075 0.0
O13 O 0.59942 0.1546 0.02768 0.0
O14 O 0.62445 0.19828 0.06091 0.0
C15 C 0.68024 0.10345 0.91165 0.0
O16 O 0.69444 0.1133 0.04674 0.0
O17 O 0.64209 0.11576 0.06662 0.0
C18 C 0.70125 0.20166 0.0781 0.0
O19 O 0.7005 0.12574 0.92195 0.0
O20 O 0.65574 0.10017 0.94742 0.0
C21 C 0.60784 0.17183 0.89716 0.0
Fe22 Fe 0.89918 0.62983 0.99079 0.0
Fe23 Fe 0.88101 0.70172 -0.00671 0.0
O24 O 0.86921 0.6603 -0.00786 0.0
Fe25 Fe 0.82775 0.64902 -0.00792 0.0
O26 O 0.83207 0.62594 0.0667 0.0
O27 O 0.8752 0.5997 0.03408 0.0
O28 O 0.91488 0.64311 0.06783 0.0
C29 C 0.92542 0.67135 0.07855 0.0
C30 C 0.85658 0.60503 0.90374 0.0
O31 O 0.91778 0.69479 0.042 0.0
C32 C 0.82674 0.70071 0.90898 0.0
O33 O 0.92904 0.65371 0.94684 0.0
O34 O 0.90333 0.69775 0.91773 0.0
O35 O 0.83364 0.61253 0.9417 0.0
O36 O 0.88498 0.61515 0.91372 0.0
C37 C 0.82983 0.70302 0.07758 0.0
O38 O 0.84638 0.71573 0.94524 0.0
O39 O 0.82043 0.67112 0.91804 0.0
C40 C 0.92524 0.677 0.90828 0.0
O41 O 0.8595 0.70888 0.06834 0.0
O42 O 0.81456 0.68347 0.04153 0.0
C43 C 0.85155 0.60256 0.07225 0.0
Fe44 Fe 0.32804 0.88179 0.99136 0.0
Fe45 Fe 0.38118 0.82904 -0.00686 0.0
O46 O 0.36955 0.87047 -0.00733 0.0
Fe47 Fe 0.39965 0.90082 -0.00642 0.0
O48 O 0.37555 0.93017 0.03833 0.0
O49 O 0.33162 0.90394 0.06701 0.0
O50 O 0.31435 0.84682 0.03898 0.0
C51 C 0.32943 0.82747 0.0757 0.0
C52 C 0.35776 0.9268 0.90633 0.0
O53 O 0.35918 0.82176 0.06742 0.0
C54 C 0.42603 0.85406 0.91013 0.0
O55 O 0.3215 0.86036 0.91616 0.0
O56 O 0.34671 0.81546 0.94384 0.0
O57 O 0.38603 0.91653 0.9169 0.0
O58 O 0.33445 0.91888 0.94302 0.0
C59 C 0.42525 0.85852 0.08052 0.0
O60 O 0.40399 0.83331 0.91842 0.0
O61 O 0.42956 0.8773 0.94906 0.0
C62 C 0.32745 0.83069 0.90713 0.0
O63 O 0.41781 0.83536 0.04298 0.0
O64 O 0.41488 0.88679 0.07033 0.0
C65 C 0.35225 0.92594 0.07678 0.0
Fe66 Fe 0.20293 0.38215 0.99149 0.0
Fe67 Fe 0.13121 0.40072 0.9916 0.0
O68 O 0.16147 0.37056 0.99145 0.0
Fe69 Fe 0.15003 0.32904 0.99131 0.0
O70 O 0.17145 0.32178 0.06625 0.0
O71 O 0.21636 0.34727 0.0394 0.0
O72 O 0.19858 0.4043 0.06714 0.0
C73 C 0.17778 0.4262 0.07638 0.0
C74 C 0.20442 0.33109 0.907 0.0
O75 O 0.15472 0.43021 0.03734 0.0
C76 C 0.10581 0.35398 0.90687 0.0
O77 O 0.19677 0.41919 0.94311 0.0
O78 O 0.14542 0.41658 0.91554 0.0
O79 O 0.18494 0.31576 0.94312 0.0
O80 O 0.2103 0.36077 0.9164 0.0
C81 C 0.1052 0.35808 0.07746 0.0
O82 O 0.1018 0.3771 0.9459 0.0
O83 O 0.12782 0.33328 0.91585 0.0
C84 C 0.17373 0.42696 0.90578 0.0
O85 O 0.11542 0.38645 0.0677 0.0
O86 O 0.113 0.33506 0.03996 0.0
C87 C 0.20108 0.32777 0.07555 0.0
Fe88 Fe 0.64857 0.82878 0.49371 0.0
Fe89 Fe 0.70159 0.88179 0.49175 0.0
O90 O 0.66012 0.87029 0.49537 0.0
Fe91 Fe 0.62975 0.90028 0.50073 0.0
O92 O 0.61604 0.88456 0.57724 0.0
O93 O 0.61236 0.83405 0.54483 0.0
O94 O 0.67122 0.82069 0.5667 0.0
C95 C 0.70094 0.82682 0.57479 0.0
C96 C 0.60276 0.85493 0.41442 0.0
O97 O 0.71578 0.84662 0.53837 0.0
C98 C 0.66986 0.92758 0.41128 0.0
O99 O 0.68258 0.81573 0.44304 0.0
O100 O 0.70736 0.8608 0.41565 0.0
O101 O 0.59939 0.8772 0.45578 0.0
O102 O 0.62512 0.83427 0.42003 0.0
C103 C 0.67908 0.92562 0.5805 0.0
O104 O 0.69422 0.91895 0.44439 0.0
O105 O 0.64182 0.91758 0.4248 0.0
C106 C 0.70158 0.83115 0.40625 0.0
O107 O 0.69946 0.9038 0.56785 0.0
O108 O 0.6541 0.92929 0.54628 0.0
C109 C 0.60571 0.85612 0.58521 0.0
Fe110 Fe 0.14829 0.70231 0.49201 0.0
Fe111 Fe 0.20146 0.64953 0.49196 0.0
O112 O 0.15993 0.66085 0.49237 0.0
Fe113 Fe 0.12983 0.63049 0.49311 0.0
O114 O 0.10018 0.65372 0.44744 0.0
O115 O 0.12586 0.69765 0.41683 0.0
O116 O 0.18298 0.71565 0.44328 0.0
C117 C 0.20238 0.70031 0.40701 0.0
C118 C 0.10377 0.67327 0.5788 0.0
O119 O 0.20845 0.67071 0.4166 0.0
C120 C 0.17684 0.60558 0.57751 0.0
O121 O 0.16994 0.70998 0.56666 0.0
O122 O 0.21486 0.68464 0.5394 0.0
O123 O 0.11412 0.64493 0.56921 0.0
O124 O 0.11145 0.69623 0.54112 0.0
C125 C 0.17227 0.60424 0.40702 0.0
O126 O 0.19749 0.62759 0.56781 0.0
O127 O 0.15361 0.60134 0.53893 0.0
C128 C 0.19964 0.70415 0.57566 0.0
O129 O 0.19537 0.61231 0.444 0.0
O130 O 0.14392 0.61442 0.41704 0.0
C131 C 0.10398 0.67673 0.40817 0.0
Fe132 Fe 0.38233 0.20179 0.49078 0.0
Fe133 Fe 0.32871 0.14933 0.49043 0.0
O134 O 0.3703 0.16047 0.49004 0.0
Fe135 Fe 0.40009 0.12985 0.489 0.0
O136 O 0.41586 0.14315 0.56549 0.0
O137 O 0.41878 0.19487 0.54039 0.0
O138 O 0.36061 0.20934 0.56541 0.0
C139 C 0.33092 0.20367 0.57474 0.0
C140 C 0.42753 0.17723 0.40734 0.0
O141 O 0.31556 0.18412 0.53893 0.0
C142 C 0.35721 0.10497 0.40287 0.0
O143 O 0.34791 0.21562 0.44194 0.0
O144 O 0.32143 0.17106 0.41593 0.0
O145 O 0.43028 0.15333 0.44482 0.0
O146 O 0.40514 0.19763 0.41566 0.0
C147 C 0.35345 0.10442 0.57363 0.0
O148 O 0.33447 0.11251 0.44122 0.0
O149 O 0.38567 0.11505 0.41227 0.0
C150 C 0.32791 0.20059 0.40638 0.0
O151 O 0.33305 0.12682 0.56569 0.0
O152 O 0.37605 0.10023 0.5335 0.0
C153 C 0.4263 0.1713 0.5767 0.0
Fe154 Fe 0.88265 0.32862 0.49177 0.0
Fe155 Fe 0.90124 0.40041 0.49333 0.0
O156 O 0.87106 0.3701 0.49203 0.0
Fe157 Fe 0.82952 0.38144 0.49135 0.0
O158 O 0.81597 0.34635 0.5387 0.0
O159 O 0.86089 0.3212 0.56647 0.0
O160 O 0.91944 0.33463 0.54091 0.0
C161 C 0.92706 0.35753 0.57878 0.0
C162 C 0.82872 0.33053 0.40656 0.0
O163 O 0.91669 0.38585 0.56941 0.0
C164 C 0.85917 0.4271 0.40726 0.0
O165 O 0.90521 0.33316 0.41673 0.0
O166 O 0.93089 0.37711 0.44749 0.0
O167 O 0.82265 0.36014 0.4161 0.0
O168 O 0.84808 0.31521 0.44281 0.0
C169 C 0.85394 0.42546 0.57726 0.0
O170 O 0.88744 0.41676 0.41751 0.0
O171 O 0.83578 0.41859 0.44325 0.0
C172 C 0.92715 0.35403 0.4082 0.0
O173 O 0.87743 0.42955 0.53922 0.0
O174 O 0.83326 0.40352 0.56719 0.0
C175 C 0.83116 0.32699 0.57516 0.0
H176 H 0.44144 0.23132 0.33279 0.0
H177 H 0.47044 0.1321 0.36644 0.0
H178 H 0.4836 0.23591 0.24891 0.0
H179 H 0.51172 0.13682 0.28411 0.0
H180 H 0.54818 0.1404 0.08114 0.0
H181 H 0.50582 0.14441 0.16131 0.0
H182 H 0.55033 0.23049 0.23949 0.0
H183 H 0.59363 0.22666 0.15793 0.0
C184 C 0.4567 0.21061 0.32246 0.0
C185 C 0.45245 0.18133 0.35626 0.0
C186 C 0.48092 0.21333 0.27494 0.0
C187 C 0.50079 0.18666 0.25998 0.0
C188 C 0.49661 0.15769 0.29424 0.0
C189 C 0.4729 0.15506 0.34164 0.0
C190 C 0.54913 0.16044 0.11485 0.0
C191 C 0.57469 0.18303 0.11331 0.0
C192 C 0.5247 0.16268 0.16088 0.0
C193 C 0.52491 0.18759 0.20687 0.0
C194 C 0.54958 0.21111 0.20429 0.0
C195 C 0.57441 0.20878 0.15794 0.0
H196 H 0.82059 0.60486 0.19016 0.0
H197 H 0.86967 0.54006 0.05885 0.0
H198 H 0.81892 0.56145 0.27136 0.0
H199 H 0.86742 0.49713 0.13828 0.0
H200 H 0.90326 0.44798 0.31896 0.0
H201 H 0.89697 0.49003 0.2386 0.0
H202 H 0.79807 0.50535 0.29956 0.0
H203 H 0.80451 0.46315 0.38172 0.0
C204 C 0.83041 0.58126 0.17828 0.0
C205 C 0.84579 0.57603 0.11873 0.0
C206 C 0.82943 0.55644 0.22457 0.0
C207 C 0.84366 0.52608 0.21162 0.0
C208 C 0.85705 0.52047 0.15044 0.0
C209 C 0.85825 0.54511 0.10482 0.0
C210 C 0.88009 0.46015 0.31543 0.0
C211 C 0.85437 0.45207 0.35682 0.0
C212 C 0.87642 0.48421 0.26898 0.0
C213 C 0.84692 0.50087 0.26231 0.0
C214 C 0.82113 0.49302 0.30376 0.0
C215 C 0.82477 0.46871 0.35043 0.0
H216 H 0.57138 0.9048 0.35881 0.0
H217 H 0.57961 0.80061 0.3517 0.0
H218 H 0.52891 0.90315 0.2785 0.0
H219 H 0.53546 0.79858 0.27258 0.0
H220 H 0.47389 0.81323 0.08638 0.0
H221 H 0.51776 0.81036 0.16542 0.0
H222 H 0.47432 0.88966 0.27094 0.0
H223 H 0.43179 0.89343 0.19058 0.0
C224 C 0.56385 0.88142 0.34024 0.0
C225 C 0.57855 0.85281 0.36206 0.0
C226 C 0.53922 0.88041 0.29447 0.0
C227 C 0.52799 0.85067 0.26995 0.0
C228 C 0.54343 0.82195 0.29026 0.0
C229 C 0.56868 0.82304 0.33563 0.0
C230 C 0.4737 0.82982 0.12686 0.0
C231 C 0.44966 0.85384 0.13188 0.0
C232 C 0.49879 0.82814 0.1723 0.0
C233 C 0.50009 0.85019 0.22411 0.0
C234 C 0.47489 0.87297 0.23066 0.0
C235 C 0.45027 0.875 0.18484 0.0
H236 H 0.23264 0.45297 0.13058 0.0
H237 H 0.12832 0.45116 0.14414 0.0
H238 H 0.23428 0.49705 0.21042 0.0
H239 H 0.12982 0.49366 0.22477 0.0
H240 H 0.13514 0.59372 0.30126 0.0
H241 H 0.13966 0.55014 0.22313 0.0
H242 H 0.22441 0.51385 0.32164 0.0
H243 H 0.22053 0.55859 0.39892 0.0
C244 C 0.2102 0.46157 0.1516 0.0
C245 C 0.18034 0.44912 0.13067 0.0
C246 C 0.21108 0.48676 0.19719 0.0
C247 C 0.1821 0.49949 0.22281 0.0
C248 C 0.15253 0.48536 0.20445 0.0
C249 C 0.15166 0.46077 0.15861 0.0
C250 C 0.15489 0.57659 0.30605 0.0
C251 C 0.17723 0.57935 0.35666 0.0
C252 C 0.15738 0.55143 0.2615 0.0
C253 C 0.18196 0.52797 0.26695 0.0
C254 C 0.2052 0.53148 0.31601 0.0
C255 C 0.20293 0.55705 0.36034 0.0
H256 H 0.59939 0.88885 0.69773 0.0
H257 H 0.55732 0.81057 0.58759 0.0
H258 H 0.55578 0.88461 0.776 0.0
H259 H 0.51267 0.80706 0.6651 0.0
H260 H 0.44972 0.79843 0.85327 0.0
H261 H 0.49484 0.79507 0.77603 0.0
H262 H 0.49997 0.8997 0.77149 0.0
H263 H 0.45624 0.90286 0.8491 0.0
C264 C 0.58081 0.87064 0.69044 0.0
C265 C 0.58147 0.85037 0.6362 0.0
C266 C 0.55569 0.86831 0.73503 0.0
C267 C 0.53029 0.84604 0.72588 0.0
C268 C 0.53185 0.82447 0.67347 0.0
C269 C 0.55736 0.82653 0.62908 0.0
C270 C 0.46045 0.82057 0.83504 0.0
C271 C 0.44996 0.85088 0.8578 0.0
C272 C 0.48622 0.81869 0.791 0.0
C273 C 0.50155 0.84712 0.76895 0.0
C274 C 0.48956 0.87731 0.78921 0.0
C275 C 0.4643 0.87914 0.83334 0.0
H276 H 0.22165 0.47306 0.89814 0.0
H277 H 0.1367 0.43709 0.79985 0.0
H278 H 0.22508 0.51801 0.82138 0.0
H279 H 0.14074 0.48092 0.72236 0.0
H280 H 0.12793 0.58014 0.64611 0.0
H281 H 0.13018 0.53743 0.72607 0.0
H282 H 0.23458 0.53511 0.70973 0.0
H283 H 0.2322 0.57934 0.63046 0.0
C284 C 0.20407 0.47445 0.85952 0.0
C285 C 0.1786 0.45186 0.85553 0.0
C286 C 0.20607 0.50015 0.81552 0.0
C287 C 0.18278 0.50349 0.76654 0.0
C288 C 0.15849 0.47973 0.7607 0.0
C289 C 0.15627 0.45443 0.80487 0.0
C290 C 0.15142 0.57073 0.66002 0.0
C291 C 0.17986 0.58269 0.63164 0.0
C292 C 0.15272 0.54603 0.70546 0.0
C293 C 0.18249 0.53214 0.72301 0.0
C294 C 0.21124 0.54522 0.69707 0.0
C295 C 0.20994 0.57049 0.65183 0.0
H296 H 0.44386 0.12737 0.66767 0.0
H297 H 0.4654 0.22405 0.5995 0.0
H298 H 0.48877 0.13075 0.74269 0.0
H299 H 0.51087 0.22722 0.67511 0.0
H300 H 0.56874 0.22427 0.87292 0.0
H301 H 0.52416 0.22711 0.79536 0.0
H302 H 0.54853 0.13143 0.7262 0.0
H303 H 0.59259 0.12836 0.80334 0.0
C304 C 0.45811 0.14943 0.66881 0.0
C305 C 0.45135 0.17527 0.6269 0.0
C306 C 0.48395 0.15127 0.71164 0.0
C307 C 0.50366 0.17898 0.71371 0.0
C308 C 0.49606 0.20554 0.67424 0.0
C309 C 0.47009 0.20369 0.63103 0.0
C310 C 0.56481 0.20405 0.84053 0.0
C311 C 0.58385 0.17586 0.845 0.0
C312 C 0.53935 0.20572 0.79617 0.0
C313 C 0.53256 0.17924 0.7558 0.0
C314 C 0.55275 0.15189 0.75788 0.0
C315 C 0.57809 0.15021 0.80193 0.0
H316 H 0.80847 0.55921 0.89597 0.0
H317 H 0.89357 0.59484 0.79749 0.0
H318 H 0.80501 0.51413 0.81942 0.0
H319 H 0.88951 0.5508 0.7202 0.0
H320 H 0.90254 0.45089 0.6466 0.0
H321 H 0.90003 0.4941 0.72565 0.0
H322 H 0.79574 0.49676 0.7074 0.0
H323 H 0.79837 0.45209 0.62891 0.0
C324 C 0.82605 0.55774 0.8573 0.0
C325 C 0.85159 0.58026 0.85322 0.0
C326 C 0.82403 0.53196 0.81343 0.0
C327 C 0.84738 0.52844 0.76453 0.0
C328 C 0.87171 0.55216 0.75849 0.0
C329 C 0.87393 0.57757 0.80253 0.0
C330 C 0.87902 0.46047 0.65991 0.0
C331 C 0.85068 0.44849 0.63119 0.0
C332 C 0.87758 0.48545 0.70481 0.0
C333 C 0.84777 0.49958 0.72151 0.0
C334 C 0.8191 0.48648 0.69533 0.0
C335 C 0.82055 0.46094 0.65058 0.0
H336 H 0.95125 0.62789 0.84097 0.0
H337 H 0.95151 0.73228 0.85457 0.0
H338 H 0.99402 0.63001 0.76103 0.0
H339 H 0.99582 0.73454 0.7753 0.0
H340 H 0.05762 0.72109 0.58646 0.0
H341 H 1.01289 0.72467 0.66383 0.0
H342 H 0.05041 0.64083 0.76362 0.0
H343 H 0.09401 0.63662 0.68549 0.0
C344 C 0.96058 0.65138 0.8267 0.0
C345 C 0.94842 0.6799 0.85447 0.0
C346 C 0.98532 0.6526 0.78123 0.0
C347 C 0.99906 0.68239 0.76302 0.0
C348 C 0.98584 0.71119 0.78845 0.0
C349 C 0.96052 0.70995 0.83372 0.0
C350 C 0.05637 0.70365 0.62537 0.0
C351 C 0.079 0.67826 0.62939 0.0
C352 C 0.0308 0.70575 0.66974 0.0
C353 C 0.02763 0.68263 0.71914 0.0
C354 C 0.05145 0.65844 0.72499 0.0
C355 C 0.07662 0.65612 0.68044 0.0
H356 H 0.40307 0.07766 0.638 0.0
H357 H 0.29861 0.07883 0.63068 0.0
H358 H 0.40152 0.03543 0.71891 0.0
H359 H 0.29684 0.03488 0.71055 0.0
H360 H 0.31018 0.97318 0.89786 0.0
H361 H 0.30683 0.01761 0.82003 0.0
H362 H 0.39098 0.97967 0.72136 0.0
H363 H 0.39505 0.93652 0.80029 0.0
C364 C 0.37968 0.06872 0.65379 0.0
C365 C 0.35097 0.08124 0.62761 0.0
C366 C 0.37876 0.04423 0.69982 0.0
C367 C 0.34908 0.03096 0.72014 0.0
C368 C 0.32014 0.04445 0.69597 0.0
C369 C 0.32109 0.06958 0.65028 0.0
C370 C 0.32777 0.97431 0.85916 0.0
C371 C 0.35315 0.95163 0.85568 0.0
C372 C 0.32581 0.99972 0.81445 0.0
C373 C 0.34901 1.00271 0.76504 0.0
C374 C 0.37329 0.97889 0.75991 0.0
C375 C 0.37552 0.95391 0.80492 0.0
H376 H 0.93668 0.39401 0.68587 0.0
H377 H 0.97337 0.30988 0.58563 0.0
H378 H 0.98037 0.38986 0.76362 0.0
H379 H 0.01819 0.30638 0.66259 0.0
H380 H 0.0798 0.29871 0.85261 0.0
H381 H 0.03542 0.2964 0.77371 0.0
H382 H 0.03671 0.40096 0.76071 0.0
H383 H 0.07956 0.40312 0.84032 0.0
C384 C 0.95414 0.37459 0.68049 0.0
C385 C 0.95183 0.35253 0.62921 0.0
C386 C 0.97937 0.37232 0.72481 0.0
C387 C 1.0033 0.34825 0.71848 0.0
C388 C 1.00019 0.3252 0.66887 0.0
C389 C 0.97457 0.32725 0.62474 0.0
C390 C 0.07067 0.32103 0.83209 0.0
C391 C 0.08265 0.3511 0.85311 0.0
C392 C 0.04531 0.31977 0.78705 0.0
C393 C 0.03192 0.34856 0.76211 0.0
C394 C 0.04554 0.37837 0.78055 0.0
C395 C 0.07033 0.37962 0.8258 0.0
H396 H 0.73538 0.07026 0.87544 0.0
H397 H 0.63437 0.08323 0.82963 0.0
H398 H 0.73836 0.0252 0.7979 0.0
H399 H 0.63748 0.04023 0.75034 0.0
H400 H 0.63555 0.94165 0.67115 0.0
H401 H 0.63929 0.98417 0.75166 0.0
H402 H 0.73676 1.00599 0.68831 0.0
H403 H 0.73336 0.96147 0.60973 0.0
C404 C 0.71409 0.06392 0.84767 0.0
C405 C 0.68455 0.07987 0.8588 0.0
C406 C 0.71572 0.03815 0.80331 0.0
C407 C 0.68792 0.02833 0.76888 0.0
C408 C 0.65909 0.04601 0.77758 0.0
C409 C 0.65733 0.07103 0.8225 0.0
C410 C 0.65796 0.9552 0.67525 0.0
C411 C 0.68409 0.94847 0.63427 0.0
C412 C 0.66004 0.97992 0.72084 0.0
C413 C 0.68799 0.99939 0.72539 0.0
C414 C 0.71484 0.99161 0.68625 0.0
C415 C 0.71296 0.96615 0.64127 0.0
H416 H 0.09622 0.39427 0.1851 0.0
H417 H 0.05848 0.31076 0.08437 0.0
H418 H 0.05288 0.39008 0.26375 0.0
H419 H 1.01393 0.30726 0.16215 0.0
H420 H 0.95266 0.29898 0.35217 0.0
H421 H 0.99686 0.29686 0.27273 0.0
H422 H 0.99683 0.40154 0.26327 0.0
H423 H 0.95421 0.40348 0.34352 0.0
C424 C 0.07858 0.37499 0.17978 0.0
C425 C 0.08052 0.3531 0.12817 0.0
C426 C 0.05354 0.3727 0.22462 0.0
C427 C 0.02939 0.3488 0.21845 0.0
C428 C 0.0321 0.32594 0.16837 0.0
C429 C 0.05757 0.32798 0.12376 0.0
C430 C 0.96207 0.32139 0.33241 0.0
C431 C 0.95048 0.35139 0.35458 0.0
C432 C 0.98731 0.32023 0.28701 0.0
C433 C 1.00099 0.34907 0.26278 0.0
C434 C 0.98781 0.37887 0.28251 0.0
C435 C 0.96315 0.38001 0.32816 0.0
H436 H 0.72214 0.96691 0.38534 0.0
H437 H 0.62485 0.94464 0.32215 0.0
H438 H 0.7246 1.01139 0.30732 0.0
H439 H 0.62755 0.98835 0.24435 0.0
H440 H 0.72235 0.0673 0.10962 0.0
H441 H 0.72473 0.02375 0.18945 0.0
H442 H 0.62762 0.04731 0.25145 0.0
H443 H 0.62496 0.09016 0.17155 0.0
C444 C 0.70147 0.97126 0.35443 0.0
C445 C 0.67315 0.95254 0.36057 0.0
C446 C 0.70291 0.99666 0.30976 0.0
C447 C 0.67605 1.00371 0.27057 0.0
C448 C 0.64833 0.98409 0.27505 0.0
C449 C 0.64687 0.95889 0.31948 0.0
C450 C 0.70165 0.06333 0.14075 0.0
C451 C 0.67328 0.08186 0.13358 0.0
C452 C 0.70307 0.03846 0.18653 0.0
C453 C 0.67616 0.03176 0.22591 0.0
C454 C 0.64846 0.05134 0.22069 0.0
C455 C 0.647 0.07602 0.17505 0.0
H456 H 0.93649 0.63309 0.18273 0.0
H457 H 0.97092 0.71967 0.08791 0.0
H458 H 0.98007 0.63734 0.26078 0.0
H459 H 0.01565 0.72325 0.16484 0.0
H460 H 0.07679 0.73138 0.35422 0.0
H461 H 0.03259 0.73272 0.27497 0.0
H462 H 0.03635 0.62822 0.26082 0.0
H463 H 0.07895 0.62702 0.34107 0.0
C464 C 0.95346 0.65302 0.17851 0.0
C465 C 0.95045 0.67583 0.12879 0.0
C466 C 0.97865 0.65536 0.223 0.0
C467 C 1.0019 0.68025 0.21834 0.0
C468 C 0.99819 0.70382 0.16999 0.0
C469 C 0.97261 0.70172 0.12581 0.0
C470 C 0.06823 0.70887 0.3334 0.0
C471 C 0.08085 0.67909 0.35426 0.0
C472 C 0.04296 0.70956 0.28811 0.0
C473 C 0.03031 0.6805 0.26261 0.0
C474 C 0.04456 0.651 0.28102 0.0
C475 C 0.06922 0.6503 0.32662 0.0
H476 H 0.29698 0.95346 0.12733 0.0
H477 H 0.40098 0.9499 0.14747 0.0
H478 H 0.29486 0.99803 0.20613 0.0
H479 H 0.39894 0.99299 0.2269 0.0
H480 H 0.39411 0.09411 0.29684 0.0
H481 H 0.38938 0.05004 0.21978 0.0
H482 H 0.3042 1.01489 0.31891 0.0
H483 H 0.30836 0.05998 0.39529 0.0
C484 C 0.3192 0.96176 0.14966 0.0
C485 C 0.34918 0.94876 0.13089 0.0
C486 C 0.31804 0.98721 0.19456 0.0
C487 C 0.34684 0.99961 0.22142 0.0
C488 C 0.37644 0.98485 0.20547 0.0
C489 C 0.3776 0.95997 0.16039 0.0
C490 C 0.3742 0.07716 0.30192 0.0
C491 C 0.35188 0.08023 0.35256 0.0
C492 C 0.37158 0.05177 0.25802 0.0
C493 C 0.34686 0.02848 0.26419 0.0
C494 C 0.32353 0.0324 0.31295 0.0
C495 C 0.32595 0.05817 0.35669 0.0
H496 H 0.8433 0.27149 0.35479 0.0
H497 H 0.77251 0.34842 0.34642 0.0
H498 H 0.81242 0.24069 0.27584 0.0
H499 H 0.7408 0.31707 0.26961 0.0
H500 H 0.70805 0.26736 0.08529 0.0
H501 H 0.7392 0.29854 0.16285 0.0
H502 H 0.7647 0.21014 0.26234 0.0
H503 H 0.7346 0.17881 0.18271 0.0
C504 C 0.82102 0.28175 0.33631 0.0
C505 C 0.81039 0.31242 0.35686 0.0
C506 C 0.80313 0.26395 0.29137 0.0
C507 C 0.77391 0.27619 0.26641 0.0
C508 C 0.7634 0.30699 0.28687 0.0
C509 C 0.78153 0.32498 0.33118 0.0
C510 C 0.7202 0.25455 0.12386 0.0
C511 C 0.71888 0.22056 0.12771 0.0
C512 C 0.73798 0.2725 0.16867 0.0
C513 C 0.7546 0.25698 0.21909 0.0
C514 C 0.75279 0.22295 0.22352 0.0
C515 C 0.73532 0.20495 0.17814 0.0
H516 H 0.85254 0.75013 0.15979 0.0
H517 H 0.76548 0.6983 0.10672 0.0
H518 H 0.82155 0.78155 0.23838 0.0
H519 H 0.73463 0.73004 0.18391 0.0
H520 H 0.74812 0.85423 0.3232 0.0
H521 H 0.77943 0.82345 0.24411 0.0
H522 H 0.72847 0.73622 0.29877 0.0
H523 H 0.69684 0.76686 0.37648 0.0
C524 C 0.82684 0.74542 0.1648 0.0
C525 C 0.81156 0.72162 0.12692 0.0
C526 C 0.80904 0.76361 0.2095 0.0
C527 C 0.77559 0.75834 0.21742 0.0
C528 C 0.76041 0.73445 0.17971 0.0
C529 C 0.77814 0.71632 0.13515 0.0
C530 C 0.74348 0.82852 0.31808 0.0
C531 C 0.7199 0.81307 0.35623 0.0
C532 C 0.76162 0.81083 0.2731 0.0
C533 C 0.7565 0.77735 0.26515 0.0
C534 C 0.73276 0.76203 0.303 0.0
C535 C 0.71469 0.77964 0.34785 0.0
H536 H 0.26476 0.83137 0.10311 0.0
H537 H 0.35231 0.78143 0.15947 0.0
H538 H 0.23405 0.79993 0.18118 0.0
H539 H 0.32151 0.75036 0.23861 0.0
H540 H 0.24926 0.67734 0.32478 0.0
H541 H 0.27999 0.70787 0.24461 0.0
H542 H 0.22789 0.7948 0.29683 0.0
H543 H 0.19684 0.76436 0.37583 0.0
C544 C 0.27754 0.81382 0.13237 0.0
C545 C 0.31105 0.80895 0.12489 0.0
C546 C 0.2599 0.79587 0.17739 0.0
C547 C 0.27531 0.77262 0.21616 0.0
C548 C 0.30884 0.76779 0.20889 0.0
C549 C 0.32652 0.78578 0.16383 0.0
C550 C 0.24427 0.70293 0.31898 0.0
C551 C 0.22056 0.71836 0.35684 0.0
C552 C 0.26205 0.72048 0.27333 0.0
C553 C 0.25643 0.75379 0.26439 0.0
C554 C 0.23256 0.7691 0.30191 0.0
C555 C 0.21485 0.75163 0.3475 0.0
H556 H 0.28111 0.17784 0.32401 0.0
H557 H 0.3331 0.26492 0.37674 0.0
H558 H 0.25025 0.20857 0.24462 0.0
H559 H 0.30186 0.29558 0.29849 0.0
H560 H 0.26545 0.33237 0.10462 0.0
H561 H 0.29594 0.30118 0.18312 0.0
H562 H 0.20857 0.25066 0.23856 0.0
H563 H 0.17798 0.28149 0.15884 0.0
C564 C 0.28596 0.20351 0.31878 0.0
C565 C 0.30963 0.21887 0.35682 0.0
C566 C 0.26809 0.22116 0.27358 0.0
C567 C 0.27354 0.25455 0.26528 0.0
C568 C 0.29732 0.26983 0.30307 0.0
C569 C 0.31515 0.25223 0.3482 0.0
C570 C 0.25263 0.31468 0.13354 0.0
C571 C 0.21922 0.30944 0.12525 0.0
C572 C 0.27014 0.29688 0.17884 0.0
C573 C 0.25471 0.27342 0.21716 0.0
C574 C 0.22126 0.26826 0.20921 0.0
C575 C 0.20369 0.2861 0.16381 0.0
H576 H 0.2639 0.69903 0.60514 0.0
H577 H 0.17698 0.75103 0.65838 0.0
H578 H 0.29464 0.73006 0.68367 0.0
H579 H 0.20784 0.78174 0.73815 0.0
H580 H 0.28129 0.85385 0.82396 0.0
H581 H 0.25018 0.82336 0.74441 0.0
H582 H 0.30038 0.7358 0.79918 0.0
H583 H 0.33186 0.76624 0.87767 0.0
C584 C 0.25125 0.71696 0.63383 0.0
C585 C 0.21791 0.72252 0.62527 0.0
C586 C 0.26891 0.73466 0.67917 0.0
C587 C 0.25373 0.75839 0.71727 0.0
C588 C 0.22036 0.76392 0.709 0.0
C589 C 0.20263 0.74615 0.66357 0.0
C590 C 0.28579 0.82812 0.81889 0.0
C591 C 0.30912 0.81253 0.85729 0.0
C592 C 0.26777 0.8106 0.7736 0.0
C593 C 0.27273 0.77712 0.76551 0.0
C594 C 0.2962 0.76162 0.80361 0.0
C595 C 0.31418 0.77909 0.84887 0.0
H596 H 0.26658 0.19939 0.60437 0.0
H597 H 0.35422 0.2503 0.65728 0.0
H598 H 0.23628 0.23086 0.68295 0.0
H599 H 0.32379 0.28144 0.73711 0.0
H600 H 0.25107 0.35416 0.8243 0.0
H601 H 0.28194 0.32356 0.7443 0.0
H602 H 0.23086 0.23631 0.79842 0.0
H603 H 0.19967 0.26679 0.87716 0.0
C604 C 0.27948 0.21716 0.63301 0.0
C605 C 0.31289 0.22227 0.62439 0.0
C606 C 0.26207 0.23512 0.67835 0.0
C607 C 0.27759 0.25865 0.71641 0.0
C608 C 0.31103 0.26377 0.708 0.0
C609 C 0.3285 0.24575 0.66256 0.0
C610 C 0.24635 0.32847 0.81897 0.0
C611 C 0.22283 0.31298 0.85721 0.0
C612 C 0.26421 0.31089 0.77343 0.0
C613 C 0.25888 0.27748 0.76497 0.0
C614 C 0.23529 0.26209 0.80305 0.0
C615 C 0.21749 0.27959 0.8485 0.0
H616 H 0.85503 0.29404 0.6795 0.0
H617 H 0.76581 0.3182 0.58222 0.0
H618 H 0.8244 0.26434 0.76097 0.0
H619 H 0.73538 0.28744 0.66141 0.0
H620 H 0.68594 0.25831 0.84652 0.0
H621 H 0.71753 0.28848 0.76806 0.0
H622 H 0.79386 0.21703 0.78065 0.0
H623 H 0.76271 0.18765 0.86162 0.0
C624 C 0.82891 0.29278 0.67525 0.0
C625 C 0.81287 0.30862 0.62458 0.0
C626 C 0.81131 0.27557 0.72172 0.0
C627 C 0.77729 0.27345 0.71812 0.0
C628 C 0.76141 0.28906 0.66684 0.0
C629 C 0.77893 0.3066 0.62104 0.0
C630 C 0.70945 0.249 0.83249 0.0
C631 C 0.72179 0.22055 0.86033 0.0
C632 C 0.72756 0.26623 0.7871 0.0
C633 C 0.75831 0.25522 0.7675 0.0
C634 C 0.77056 0.22661 0.79519 0.0
C635 C 0.75259 0.2096 0.84134 0.0
H636 H 0.76555 0.83152 0.60303 0.0
H637 H 0.67825 0.78064 0.65835 0.0
H638 H 0.79616 0.80066 0.68223 0.0
H639 H 0.70886 0.75021 0.73834 0.0
H640 H 0.83234 0.76497 0.87845 0.0
H641 H 0.80187 0.79535 0.7984 0.0
H642 H 0.75046 0.70821 0.74467 0.0
H643 H 0.78054 0.67781 0.82561 0.0
C644 C 0.75282 0.81387 0.63222 0.0
C645 C 0.71941 0.80855 0.62411 0.0
C646 C 0.77038 0.79627 0.67789 0.0
C647 C 0.75498 0.77293 0.71658 0.0
C648 C 0.72155 0.76769 0.70868 0.0
C649 C 0.70397 0.78531 0.66306 0.0
C650 C 0.81458 0.75221 0.84957 0.0
C651 C 0.80885 0.71892 0.85871 0.0
C652 C 0.79722 0.76964 0.80339 0.0
C653 C 0.77369 0.75423 0.76518 0.0
C654 C 0.7681 0.7209 0.77394 0.0
C655 C 0.7855 0.70343 0.82009 0.0
loop_
_geom_bond_atom_site_label_1
_geom_bond_atom_site_label_2
_geom_bond_distance
_geom_bond_site_symmetry_2
_ccdc_geom_bond_type
Fe0 O2 1.918 . S
Fe0 O5 1.997 1_554 S
Fe0 O6 2.002 1_554 S
Fe0 O11 1.976 . S
Fe0 O14 1.996 . S
Fe1 O2 1.918 . S
Fe1 O9 1.997 1_554 S
Fe1 O12 1.996 . S
Fe1 O16 1.976 . S
Fe1 O19 2.002 1_554 S
O2 Fe0 1.918 . S
O2 Fe1 1.918 . S
O2 Fe3 1.918 . S
Fe3 O2 1.918 . S
Fe3 O4 2.002 1_554 S
Fe3 O13 1.976 . S
Fe3 O17 1.996 . S
Fe3 O20 1.997 1_554 S
O4 Fe3 2.002 1_556 S
O4 C21 1.295 . S
O5 Fe0 1.997 1_556 S
O5 C21 1.235 . S
O6 Fe0 2.002 1_556 S
O6 C7 1.295 . S
C7 O6 1.295 . S
C7 O9 1.235 . S
C8 O13 1.287 . S
C8 O14 1.255 . S
O9 Fe1 1.997 1_556 S
O9 C7 1.235 . S
C10 O16 1.287 . S
C10 O17 1.255 . S
O11 Fe0 1.976 . S
O11 C18 1.287 . S
O12 Fe1 1.996 . S
O12 C18 1.255 . S
O13 Fe3 1.976 . S
O13 C8 1.287 . S
O14 Fe0 1.996 . S
O14 C8 1.255 . S
C15 O19 1.295 . S
C15 O20 1.235 . S
O16 Fe1 1.976 . S
O16 C10 1.287 . S
O17 Fe3 1.996 . S
O17 C10 1.255 . S
C18 O11 1.287 . S
C18 O12 1.255 . S
O19 Fe1 2.002 1_556 S
O19 C15 1.295 . S
O20 Fe3 1.997 1_556 S
O20 C15 1.235 . S
C21 O4 1.295 . S
C21 O5 1.235 . S
Fe22 O24 1.918 . S
Fe22 O27 1.997 1_556 S
Fe22 O28 2.002 1_556 S
Fe22 O33 1.976 . S
Fe22 O36 1.996 . S
Fe23 O24 1.918 . S
Fe23 O31 1.997 1_556 S
Fe23 O34 1.996 . S
Fe23 O38 1.976 . S
Fe23 O41 2.002 1_556 S
O24 Fe22 1.918 . S
O24 Fe23 1.918 . S
O24 Fe25 1.918 . S
Fe25 O24 1.918 . S
Fe25 O26 2.002 1_556 S
Fe25 O35 1.976 . S
Fe25 O39 1.996 . S
Fe25 O42 1.997 1_556 S
O26 Fe25 2.002 1_554 S
O26 C43 1.295 . S
O27 Fe22 1.997 1_554 S
O27 C43 1.235 . S
O28 Fe22 2.002 1_554 S
O28 C29 1.295 . S
C29 O28 1.295 . S
C29 O31 1.235 . S
C30 O35 1.287 . S
C30 O36 1.255 . S
O31 Fe23 1.997 1_554 S
O31 C29 1.235 . S
C32 O38 1.287 . S
C32 O39 1.255 . S
O33 Fe22 1.976 . S
O33 C40 1.287 . S
O34 Fe23 1.996 . S
O34 C40 1.255 . S
O35 Fe25 1.976 . S
O35 C30 1.287 . S
O36 Fe22 1.996 . S
O36 C30 1.255 . S
C37 O41 1.295 . S
C37 O42 1.235 . S
O38 Fe23 1.976 . S
O38 C32 1.287 . S
O39 Fe25 1.996 . S
O39 C32 1.255 . S
C40 O33 1.287 . S
C40 O34 1.255 . S
O41 Fe23 2.002 1_554 S
O41 C37 1.295 . S
O42 Fe25 1.997 1_554 S
O42 C37 1.235 . S
C43 O26 1.295 . S
C43 O27 1.235 . S
Fe44 O46 1.918 . S
Fe44 O49 1.997 1_556 S
Fe44 O50 2.002 1_556 S
Fe44 O55 1.976 . S
Fe44 O58 1.996 . S
Fe45 O46 1.918 . S
Fe45 O53 1.997 1_556 S
Fe45 O56 1.996 . S
Fe45 O60 1.976 . S
Fe45 O63 2.002 1_556 S
O46 Fe44 1.918 . S
O46 Fe45 1.918 . S
O46 Fe47 1.918 . S
Fe47 O46 1.918 . S
Fe47 O48 2.002 1_556 S
Fe47 O57 1.976 . S
Fe47 O61 1.996 . S
Fe47 O64 1.997 1_556 S
O48 Fe47 2.002 1_554 S
O48 C65 1.295 . S
O49 Fe44 1.997 1_554 S
O49 C65 1.235 . S
O50 Fe44 2.002 1_554 S
O50 C51 1.295 . S
C51 O50 1.295 . S
C51 O53 1.235 . S
C52 O57 1.287 . S
C52 O58 1.255 . S
O53 Fe45 1.997 1_554 S
O53 C51 1.235 . S
C54 O60 1.287 . S
C54 O61 1.255 . S
O55 Fe44 1.976 . S
O55 C62 1.287 . S
O56 Fe45 1.996 . S
O56 C62 1.255 . S
O57 Fe47 1.976 . S
O57 C52 1.287 . S
O58 Fe44 1.996 . S
O58 C52 1.255 . S
C59 O63 1.295 . S
C59 O64 1.235 . S
O60 Fe45 1.976 . S
O60 C54 1.287 . S
O61 Fe47 1.996 . S
O61 C54 1.255 . S
C62 O55 1.287 . S
C62 O56 1.255 . S
O63 Fe45 2.002 1_554 S
O63 C59 1.295 . S
O64 Fe47 1.997 1_554 S
O64 C59 1.235 . S
C65 O48 1.295 . S
C65 O49 1.235 . S
Fe66 O68 1.918 . S
Fe66 O71 1.997 1_556 S
Fe66 O72 2.002 1_556 S
Fe66 O77 1.976 . S
Fe66 O80 1.996 . S
Fe67 O68 1.918 . S
Fe67 O75 1.997 1_556 S
Fe67 O78 1.996 . S
Fe67 O82 1.976 . S
Fe67 O85 2.002 1_556 S
O68 Fe66 1.918 . S
O68 Fe67 1.918 . S
O68 Fe69 1.918 . S
Fe69 O68 1.918 . S
Fe69 O70 2.002 1_556 S
Fe69 O79 1.976 . S
Fe69 O83 1.996 . S
Fe69 O86 1.997 1_556 S
O70 Fe69 2.002 1_554 S
O70 C87 1.295 . S
O71 Fe66 1.997 1_554 S
O71 C87 1.235 . S
O72 Fe66 2.002 1_554 S
O72 C73 1.295 . S
C73 O72 1.295 . S
C73 O75 1.235 . S
C74 O79 1.287 . S
C74 O80 1.255 . S
O75 Fe67 1.997 1_554 S
O75 C73 1.235 . S
C76 O82 1.287 . S
C76 O83 1.255 . S
O77 Fe66 1.976 . S
O77 C84 1.287 . S
O78 Fe67 1.996 . S
O78 C84 1.255 . S
O79 Fe69 1.976 . S
O79 C74 1.287 . S
O80 Fe66 1.996 . S
O80 C74 1.255 . S
C81 O85 1.295 . S
C81 O86 1.235 . S
O82 Fe67 1.976 . S
O82 C76 1.287 . S
O83 Fe69 1.996 . S
O83 C76 1.255 . S
C84 O77 1.287 . S
C84 O78 1.255 . S
O85 Fe67 2.002 1_554 S
O85 C81 1.295 . S
O86 Fe69 1.997 1_554 S
O86 C81 1.235 . S
C87 O70 1.295 . S
C87 O71 1.235 . S
Fe88 O90 1.918 . S
Fe88 O93 1.997 . S
Fe88 O94 2.002 . S
Fe88 O99 1.976 . S
Fe88 O102 1.996 . S
Fe89 O90 1.918 . S
Fe89 O97 1.997 . S
Fe89 O100 1.996 . S
Fe89 O104 1.976 . S
Fe89 O107 2.002 . S
O90 Fe88 1.918 . S
O90 Fe89 1.918 . S
O90 Fe91 1.918 . S
Fe91 O90 1.918 . S
Fe91 O92 2.002 . S
Fe91 O101 1.976 . S
Fe91 O105 1.996 . S
Fe91 O108 1.997 . S
O92 Fe91 2.002 . S
O92 C109 1.295 . S
O93 Fe88 1.997 . S
O93 C109 1.235 . S
O94 Fe88 2.002 . S
O94 C95 1.295 . S
C95 O94 1.295 . S
C95 O97 1.235 . S
C96 O101 1.287 . S
C96 O102 1.255 . S
O97 Fe89 1.997 . S
O97 C95 1.235 . S
C98 O104 1.287 . S
C98 O105 1.255 . S
O99 Fe88 1.976 . S
O99 C106 1.287 . S
O100 Fe89 1.996 . S
O100 C106 1.255 . S
O101 Fe91 1.976 . S
O101 C96 1.287 . S
O102 Fe88 1.996 . S
O102 C96 1.255 . S
C103 O107 1.295 . S
C103 O108 1.235 . S
O104 Fe89 1.976 . S
O104 C98 1.287 . S
O105 Fe91 1.996 . S
O105 C98 1.255 . S
C106 O99 1.287 . S
C106 O100 1.255 . S
O107 Fe89 2.002 . S
O107 C103 1.295 . S
O108 Fe91 1.997 . S
O108 C103 1.235 . S
C109 O92 1.295 . S
C109 O93 1.235 . S
Fe110 O112 1.918 . S
Fe110 O115 1.997 . S
Fe110 O116 2.002 . S
Fe110 O121 1.976 . S
Fe110 O124 1.996 . S
Fe111 O112 1.918 . S
Fe111 O119 1.997 . S
Fe111 O122 1.996 . S
Fe111 O126 1.976 . S
Fe111 O129 2.002 . S
O112 Fe110 1.918 . S
O112 Fe111 1.918 . S
O112 Fe113 1.918 . S
Fe113 O112 1.918 . S
Fe113 O114 2.002 . S
Fe113 O123 1.976 . S
Fe113 O127 1.996 . S
Fe113 O130 1.997 . S
O114 Fe113 2.002 . S
O114 C131 1.295 . S
O115 Fe110 1.997 . S
O115 C131 1.235 . S
O116 Fe110 2.002 . S
O116 C117 1.295 . S
C117 O116 1.295 . S
C117 O119 1.235 . S
C118 O123 1.287 . S
C118 O124 1.255 . S
O119 Fe111 1.997 . S
O119 C117 1.235 . S
C120 O126 1.287 . S
C120 O127 1.255 . S
O121 Fe110 1.976 . S
O121 C128 1.287 . S
O122 Fe111 1.996 . S
O122 C128 1.255 . S
O123 Fe113 1.976 . S
O123 C118 1.287 . S
O124 Fe110 1.996 . S
O124 C118 1.255 . S
C125 O129 1.295 . S
C125 O130 1.235 . S
O126 Fe111 1.976 . S
O126 C120 1.287 . S
O127 Fe113 1.996 . S
O127 C120 1.255 . S
C128 O121 1.287 . S
C128 O122 1.255 . S
O129 Fe111 2.002 . S
O129 C125 1.295 . S
O130 Fe113 1.997 . S
O130 C125 1.235 . S
C131 O114 1.295 . S
C131 O115 1.235 . S
Fe132 O134 1.918 . S
Fe132 O137 1.997 . S
Fe132 O138 2.002 . S
Fe132 O143 1.976 . S
Fe132 O146 1.996 . S
Fe133 O134 1.918 . S
Fe133 O141 1.997 . S
Fe133 O144 1.996 . S
Fe133 O148 1.976 . S
Fe133 O151 2.002 . S
O134 Fe132 1.918 . S
O134 Fe133 1.918 . S
O134 Fe135 1.918 . S
Fe135 O134 1.918 . S
Fe135 O136 2.002 . S
Fe135 O145 1.976 . S
Fe135 O149 1.996 . S
Fe135 O152 1.997 . S
O136 Fe135 2.002 . S
O136 C153 1.295 . S
O137 Fe132 1.997 . S
O137 C153 1.235 . S
O138 Fe132 2.002 . S
O138 C139 1.295 . S
C139 O138 1.295 . S
C139 O141 1.235 . S
C140 O145 1.287 . S
C140 O146 1.255 . S
O141 Fe133 1.997 . S
O141 C139 1.235 . S
C142 O148 1.287 . S
C142 O149 1.255 . S
O143 Fe132 1.976 . S
O143 C150 1.287 . S
O144 Fe133 1.996 . S
O144 C150 1.255 . S
O145 Fe135 1.976 . S
O145 C140 1.287 . S
O146 Fe132 1.996 . S
O146 C140 1.255 . S
C147 O151 1.295 . S
C147 O152 1.235 . S
O148 Fe133 1.976 . S
O148 C142 1.287 . S
O149 Fe135 1.996 . S
O149 C142 1.255 . S
C150 O143 1.287 . S
C150 O144 1.255 . S
O151 Fe133 2.002 . S
O151 C147 1.295 . S
O152 Fe135 1.997 . S
O152 C147 1.235 . S
C153 O136 1.295 . S
C153 O137 1.235 . S
Fe154 O156 1.918 . S
Fe154 O159 1.997 . S
Fe154 O160 2.002 . S
Fe154 O165 1.976 . S
Fe154 O168 1.996 . S
Fe155 O156 1.918 . S
Fe155 O163 1.997 . S
Fe155 O166 1.996 . S
Fe155 O170 1.976 . S
Fe155 O173 2.002 . S
O156 Fe154 1.918 . S
O156 Fe155 1.918 . S
O156 Fe157 1.918 . S
Fe157 O156 1.918 . S
Fe157 O158 2.002 . S
Fe157 O167 1.976 . S
Fe157 O171 1.996 . S
Fe157 O174 1.997 . S
O158 Fe157 2.002 . S
O158 C175 1.295 . S
O159 Fe154 1.997 . S
O159 C175 1.235 . S
O160 Fe154 2.002 . S
O160 C161 1.295 . S
C161 O160 1.295 . S
C161 O163 1.235 . S
C162 O167 1.287 . S
C162 O168 1.255 . S
O163 Fe155 1.997 . S
O163 C161 1.235 . S
C164 O170 1.287 . S
C164 O171 1.255 . S
O165 Fe154 1.976 . S
O165 C172 1.287 . S
O166 Fe155 1.996 . S
O166 C172 1.255 . S
O167 Fe157 1.976 . S
O167 C162 1.287 . S
O168 Fe154 1.996 . S
O168 C162 1.255 . S
C169 O173 1.295 . S
C169 O174 1.235 . S
O170 Fe155 1.976 . S
O170 C164 1.287 . S
O171 Fe157 1.996 . S
O171 C164 1.255 . S
C172 O165 1.287 . S
C172 O166 1.255 . S
O173 Fe155 2.002 . S
O173 C169 1.295 . S
O174 Fe157 1.997 . S
O174 C169 1.235 . S
C175 O158 1.295 . S
C175 O159 1.235 . S
H176 C184 0.950 . S
H177 C189 0.950 . S
H178 C186 0.950 . S
H179 C188 0.950 . S
H180 C190 0.950 . S
H181 C192 0.950 . S
H182 C194 0.950 . S
H183 C195 0.950 . S
C184 H176 0.950 . S
C184 C185 1.386 . S
C184 C186 1.391 . S
C185 C184 1.386 . S
C185 C189 1.393 . S
C186 H178 0.950 . S
C186 C184 1.391 . S
C186 C187 1.400 . S
C187 C186 1.400 . S
C187 C188 1.398 . S
C187 C193 1.491 . S
C188 H179 0.950 . S
C188 C187 1.398 . S
C188 C189 1.391 . S
C189 H177 0.950 . S
C189 C185 1.393 . S
C189 C188 1.391 . S
C190 H180 0.950 . S
C190 C191 1.386 . S
C190 C192 1.391 . S
C191 C190 1.386 . S
C191 C195 1.393 . S
C192 H181 0.950 . S
C192 C190 1.391 . S
C192 C193 1.400 . S
C193 C187 1.491 . S
C193 C192 1.400 . S
C193 C194 1.398 . S
C194 H182 0.950 . S
C194 C193 1.398 . S
C194 C195 1.391 . S
C195 H183 0.950 . S
C195 C191 1.393 . S
C195 C194 1.391 . S
H196 C204 0.950 . S
H197 C209 0.950 . S
H198 C206 0.950 . S
H199 C208 0.950 . S
H200 C210 0.950 . S
H201 C212 0.950 . S
H202 C214 0.950 . S
H203 C215 0.950 . S
C204 H196 0.950 . S
C204 C205 1.386 . S
C204 C206 1.391 . S
C205 C204 1.386 . S
C205 C209 1.393 . S
C206 H198 0.950 . S
C206 C204 1.391 . S
C206 C207 1.400 . S
C207 C206 1.400 . S
C207 C208 1.398 . S
C207 C213 1.491 . S
C208 H199 0.950 . S
C208 C207 1.398 . S
C208 C209 1.391 . S
C209 H197 0.950 . S
C209 C205 1.393 . S
C209 C208 1.391 . S
C210 H200 0.950 . S
C210 C211 1.386 . S
C210 C212 1.391 . S
C211 C210 1.386 . S
C211 C215 1.393 . S
C212 H201 0.950 . S
C212 C210 1.391 . S
C212 C213 1.400 . S
C213 C207 1.491 . S
C213 C212 1.400 . S
C213 C214 1.398 . S
C214 H202 0.950 . S
C214 C213 1.398 . S
C214 C215 1.391 . S
C215 H203 0.950 . S
C215 C211 1.393 . S
C215 C214 1.391 . S
H216 C224 0.950 . S
H217 C229 0.950 . S
H218 C226 0.950 . S
H219 C228 0.950 . S
H220 C230 0.950 . S
H221 C232 0.950 . S
H222 C234 0.950 . S
H223 C235 0.950 . S
C224 H216 0.950 . S
C224 C225 1.386 . S
C224 C226 1.391 . S
C225 C224 1.386 . S
C225 C229 1.393 . S
C226 H218 0.950 . S
C226 C224 1.391 . S
C226 C227 1.400 . S
C227 C226 1.400 . S
C227 C228 1.398 . S
C227 C233 1.491 . S
C228 H219 0.950 . S
C228 C227 1.398 . S
C228 C229 1.391 . S
C229 H217 0.950 . S
C229 C225 1.393 . S
C229 C228 1.391 . S
C230 H220 0.950 . S
C230 C231 1.386 . S
C230 C232 1.391 . S
C231 C230 1.386 . S
C231 C235 1.393 . S
C232 H221 0.950 . S
C232 C230 1.391 . S
C232 C233 1.400 . S
C233 C227 1.491 . S
C233 C232 1.400 . S
C233 C234 1.398 . S
C234 H222 0.950 . S
C234 C233 1.398 . S
C234 C235 1.391 . S
C235 H223 0.950 . S
C235 C231 1.393 . S
C235 C234 1.391 . S
H236 C244 0.950 . S
H237 C249 0.950 . S
H238 C246 0.950 . S
H239 C248 0.950 . S
H240 C250 0.950 . S
H241 C252 0.950 . S
H242 C254 0.950 . S
H243 C255 0.950 . S
C244 H236 0.950 . S
C244 C245 1.386 . S
C244 C246 1.391 . S
C245 C244 1.386 . S
C245 C249 1.393 . S
C246 H238 0.950 . S
C246 C244 1.391 . S
C246 C247 1.400 . S
C247 C246 1.400 . S
C247 C248 1.398 . S
C247 C253 1.491 . S
C248 H239 0.950 . S
C248 C247 1.398 . S
C248 C249 1.391 . S
C249 H237 0.950 . S
C249 C245 1.393 . S
C249 C248 1.391 . S
C250 H240 0.950 . S
C250 C251 1.386 . S
C250 C252 1.391 . S
C251 C250 1.386 . S
C251 C255 1.393 . S
C252 H241 0.950 . S
C252 C250 1.391 . S
C252 C253 1.400 . S
C253 C247 1.491 . S
C253 C252 1.400 . S
C253 C254 1.398 . S
C254 H242 0.950 . S
C254 C253 1.398 . S
C254 C255 1.391 . S
C255 H243 0.950 . S
C255 C251 1.393 . S
C255 C254 1.391 . S
H256 C264 0.950 . S
H257 C269 0.950 . S
H258 C266 0.950 . S
H259 C268 0.950 . S
H260 C270 0.950 . S
H261 C272 0.950 . S
H262 C274 0.950 . S
H263 C275 0.950 . S
C264 H256 0.950 . S
C264 C265 1.386 . S
C264 C266 1.391 . S
C265 C264 1.386 . S
C265 C269 1.393 . S
C266 H258 0.950 . S
C266 C264 1.391 . S
C266 C267 1.400 . S
C267 C266 1.400 . S
C267 C268 1.398 . S
C267 C273 1.491 . S
C268 H259 0.950 . S
C268 C267 1.398 . S
C268 C269 1.391 . S
C269 H257 0.950 . S
C269 C265 1.393 . S
C269 C268 1.391 . S
C270 H260 0.950 . S
C270 C271 1.386 . S
C270 C272 1.391 . S
C271 C270 1.386 . S
C271 C275 1.393 . S
C272 H261 0.950 . S
C272 C270 1.391 . S
C272 C273 1.400 . S
C273 C267 1.491 . S
C273 C272 1.400 . S
C273 C274 1.398 . S
C274 H262 0.950 . S
C274 C273 1.398 . S
C274 C275 1.391 . S
C275 H263 0.950 . S
C275 C271 1.393 . S
C275 C274 1.391 . S
H276 C284 0.950 . S
H277 C289 0.950 . S
H278 C286 0.950 . S
H279 C288 0.950 . S
H280 C290 0.950 . S
H281 C292 0.950 . S
H282 C294 0.950 . S
H283 C295 0.950 . S
C284 H276 0.950 . S
C284 C285 1.386 . S
C284 C286 1.391 . S
C285 C284 1.386 . S
C285 C289 1.393 . S
C286 H278 0.950 . S
C286 C284 1.391 . S
C286 C287 1.400 . S
C287 C286 1.400 . S
C287 C288 1.398 . S
C287 C293 1.491 . S
C288 H279 0.950 . S
C288 C287 1.398 . S
C288 C289 1.391 . S
C289 H277 0.950 . S
C289 C285 1.393 . S
C289 C288 1.391 . S
C290 H280 0.950 . S
C290 C291 1.386 . S
C290 C292 1.391 . S
C291 C290 1.386 . S
C291 C295 1.393 . S
C292 H281 0.950 . S
C292 C290 1.391 . S
C292 C293 1.400 . S
C293 C287 1.491 . S
C293 C292 1.400 . S
C293 C294 1.398 . S
C294 H282 0.950 . S
C294 C293 1.398 . S
C294 C295 1.391 . S
C295 H283 0.950 . S
C295 C291 1.393 . S
C295 C294 1.391 . S
H296 C304 0.950 . S
H297 C309 0.950 . S
H298 C306 0.950 . S
H299 C308 0.950 . S
H300 C310 0.950 . S
H301 C312 0.950 . S
H302 C314 0.950 . S
H303 C315 0.950 . S
C304 H296 0.950 . S
C304 C305 1.386 . S
C304 C306 1.391 . S
C305 C304 1.386 . S
C305 C309 1.393 . S
C306 H298 0.950 . S
C306 C304 1.391 . S
C306 C307 1.400 . S
C307 C306 1.400 . S
C307 C308 1.398 . S
C307 C313 1.491 . S
C308 H299 0.950 . S
C308 C307 1.398 . S
C308 C309 1.391 . S
C309 H297 0.950 . S
C309 C305 1.393 . S
C309 C308 1.391 . S
C310 H300 0.950 . S
C310 C311 1.386 . S
C310 C312 1.391 . S
C311 C310 1.386 . S
C311 C315 1.393 . S
C312 H301 0.950 . S
C312 C310 1.391 . S
C312 C313 1.400 . S
C313 C307 1.491 . S
C313 C312 1.400 . S
C313 C314 1.398 . S
C314 H302 0.950 . S
C314 C313 1.398 . S
C314 C315 1.391 . S
C315 H303 0.950 . S
C315 C311 1.393 . S
C315 C314 1.391 . S
H316 C324 0.950 . S
H317 C329 0.950 . S
H318 C326 0.950 . S
H319 C328 0.950 . S
H320 C330 0.950 . S
H321 C332 0.950 . S
H322 C334 0.950 . S
H323 C335 0.950 . S
C324 H316 0.950 . S
C324 C325 1.386 . S
C324 C326 1.391 . S
C325 C324 1.386 . S
C325 C329 1.393 . S
C326 H318 0.950 . S
C326 C324 1.391 . S
C326 C327 1.400 . S
C327 C326 1.400 . S
C327 C328 1.398 . S
C327 C333 1.491 . S
C328 H319 0.950 . S
C328 C327 1.398 . S
C328 C329 1.391 . S
C329 H317 0.950 . S
C329 C325 1.393 . S
C329 C328 1.391 . S
C330 H320 0.950 . S
C330 C331 1.386 . S
C330 C332 1.391 . S
C331 C330 1.386 . S
C331 C335 1.393 . S
C332 H321 0.950 . S
C332 C330 1.391 . S
C332 C333 1.400 . S
C333 C327 1.491 . S
C333 C332 1.400 . S
C333 C334 1.398 . S
C334 H322 0.950 . S
C334 C333 1.398 . S
C334 C335 1.391 . S
C335 H323 0.950 . S
C335 C331 1.393 . S
C335 C334 1.391 . S
H336 C344 0.950 . S
H337 C349 0.950 . S
H338 C346 0.936 1_455 S
H339 C348 0.950 . S
H340 C350 0.950 . S
H341 C352 0.936 1_655 S
H342 C354 0.950 . S
H343 C355 0.950 . S
C344 H336 0.950 . S
C344 C345 1.386 . S
C344 C346 1.391 . S
C345 C344 1.386 . S
C345 C349 1.393 . S
C346 H338 0.936 1_655 S
C346 C344 1.391 . S
C346 C347 1.400 . S
C347 C346 1.400 . S
C347 C348 1.398 . S
C347 C353 1.491 1_655 S
C348 H339 0.950 . S
C348 C347 1.398 . S
C348 C349 1.391 . S
C349 H337 0.950 . S
C349 C345 1.393 . S
C349 C348 1.391 . S
C350 H340 0.950 . S
C350 C351 1.386 . S
C350 C352 1.391 . S
C351 C350 1.386 . S
C351 C355 1.393 . S
C352 H341 0.936 1_455 S
C352 C350 1.391 . S
C352 C353 1.400 . S
C353 C347 1.491 1_455 S
C353 C352 1.400 . S
C353 C354 1.398 . S
C354 H342 0.950 . S
C354 C353 1.398 . S
C354 C355 1.391 . S
C355 H343 0.950 . S
C355 C351 1.393 . S
C355 C354 1.391 . S
H356 C364 0.950 . S
H357 C369 0.950 . S
H358 C366 0.950 . S
H359 C368 0.950 . S
H360 C370 0.950 . S
H361 C372 0.950 . S
H362 C374 0.950 . S
H363 C375 0.950 . S
C364 H356 0.950 . S
C364 C365 1.386 . S
C364 C366 1.391 . S
C365 C364 1.386 . S
C365 C369 1.393 . S
C366 H358 0.950 . S
C366 C364 1.391 . S
C366 C367 1.400 . S
C367 C366 1.400 . S
C367 C368 1.398 . S
C367 C373 1.491 1_545 S
C368 H359 0.950 . S
C368 C367 1.398 . S
C368 C369 1.391 . S
C369 H357 0.950 . S
C369 C365 1.393 . S
C369 C368 1.391 . S
C370 H360 0.950 . S
C370 C371 1.386 . S
C370 C372 1.391 . S
C371 C370 1.386 . S
C371 C375 1.393 . S
C372 H361 0.950 . S
C372 C370 1.391 . S
C372 C373 1.400 . S
C373 C367 1.491 1_565 S
C373 C372 1.400 . S
C373 C374 1.398 . S
C374 H362 0.950 . S
C374 C373 1.398 . S
C374 C375 1.391 . S
C375 H363 0.950 . S
C375 C371 1.393 . S
C375 C374 1.391 . S
H376 C384 0.950 . S
H377 C389 0.950 . S
H378 C386 0.950 . S
H379 C388 0.950 . S
H380 C390 0.950 . S
H381 C392 0.950 . S
H382 C394 0.950 . S
H383 C395 0.950 . S
C384 H376 0.950 . S
C384 C385 1.386 . S
C384 C386 1.391 . S
C385 C384 1.386 . S
C385 C389 1.393 . S
C386 H378 0.950 . S
C386 C384 1.391 . S
C386 C387 1.400 . S
C387 C386 1.400 . S
C387 C388 1.398 . S
C387 C393 1.491 1_655 S
C388 H379 0.950 . S
C388 C387 1.398 . S
C388 C389 1.391 . S
C389 H377 0.950 . S
C389 C385 1.393 . S
C389 C388 1.391 . S
C390 H380 0.950 . S
C390 C391 1.386 . S
C390 C392 1.391 . S
C391 C390 1.386 . S
C391 C395 1.393 . S
C392 H381 0.950 . S
C392 C390 1.391 . S
C392 C393 1.400 . S
C393 C387 1.491 1_455 S
C393 C392 1.400 . S
C393 C394 1.398 . S
C394 H382 0.950 . S
C394 C393 1.398 . S
C394 C395 1.391 . S
C395 H383 0.950 . S
C395 C391 1.393 . S
C395 C394 1.391 . S
H396 C404 0.950 . S
H397 C409 0.950 . S
H398 C406 0.950 . S
H399 C408 0.950 . S
H400 C410 0.950 . S
H401 C412 0.950 . S
H402 C414 0.950 . S
H403 C415 0.950 . S
C404 H396 0.950 . S
C404 C405 1.386 . S
C404 C406 1.391 . S
C405 C404 1.386 . S
C405 C409 1.393 . S
C406 H398 0.950 . S
C406 C404 1.391 . S
C406 C407 1.400 . S
C407 C406 1.400 . S
C407 C408 1.398 . S
C407 C413 1.491 1_545 S
C408 H399 0.950 . S
C408 C407 1.398 . S
C408 C409 1.391 . S
C409 H397 0.950 . S
C409 C405 1.393 . S
C409 C408 1.391 . S
C410 H400 0.950 . S
C410 C411 1.386 . S
C410 C412 1.391 . S
C411 C410 1.386 . S
C411 C415 1.393 . S
C412 H401 0.950 . S
C412 C410 1.391 . S
C412 C413 1.400 . S
C413 C407 1.491 1_565 S
C413 C412 1.400 . S
C413 C414 1.398 . S
C414 H402 0.950 . S
C414 C413 1.398 . S
C414 C415 1.391 . S
C415 H403 0.950 . S
C415 C411 1.393 . S
C415 C414 1.391 . S
H416 C424 0.950 . S
H417 C429 0.950 . S
H418 C426 0.950 . S
H419 C428 0.950 . S
H420 C430 0.950 . S
H421 C432 0.950 . S
H422 C434 0.950 . S
H423 C435 0.950 . S
C424 H416 0.950 . S
C424 C425 1.386 . S
C424 C426 1.391 . S
C425 C424 1.386 . S
C425 C429 1.393 . S
C426 H418 0.950 . S
C426 C424 1.391 . S
C426 C427 1.400 . S
C427 C426 1.400 . S
C427 C428 1.398 . S
C427 C433 1.491 1_455 S
C428 H419 0.950 . S
C428 C427 1.398 . S
C428 C429 1.391 . S
C429 H417 0.950 . S
C429 C425 1.393 . S
C429 C428 1.391 . S
C430 H420 0.950 . S
C430 C431 1.386 . S
C430 C432 1.391 . S
C431 C430 1.386 . S
C431 C435 1.393 . S
C432 H421 0.950 . S
C432 C430 1.391 . S
C432 C433 1.400 . S
C433 C427 1.491 1_655 S
C433 C432 1.400 . S
C433 C434 1.398 . S
C434 H422 0.950 . S
C434 C433 1.398 . S
C434 C435 1.391 . S
C435 H423 0.950 . S
C435 C431 1.393 . S
C435 C434 1.391 . S
H436 C444 0.950 . S
H437 C449 0.950 . S
H438 C446 0.950 1_545 S
H439 C448 0.950 . S
H440 C450 0.950 . S
H441 C452 0.950 1_565 S
H442 C454 0.950 . S
H443 C455 0.950 . S
C444 H436 0.950 . S
C444 C445 1.386 . S
C444 C446 1.391 . S
C445 C444 1.386 . S
C445 C449 1.393 . S
C446 H438 0.950 1_565 S
C446 C444 1.391 . S
C446 C447 1.400 . S
C447 C446 1.400 . S
C447 C448 1.398 . S
C447 C453 1.491 1_565 S
C448 H439 0.950 . S
C448 C447 1.398 . S
C448 C449 1.391 . S
C449 H437 0.950 . S
C449 C445 1.393 . S
C449 C448 1.391 . S
C450 H440 0.950 . S
C450 C451 1.386 . S
C450 C452 1.391 . S
C451 C450 1.386 . S
C451 C455 1.393 . S
C452 H441 0.950 1_545 S
C452 C450 1.391 . S
C452 C453 1.400 . S
C453 C447 1.491 1_545 S
C453 C452 1.400 . S
C453 C454 1.398 . S
C454 H442 0.950 . S
C454 C453 1.398 . S
C454 C455 1.391 . S
C455 H443 0.950 . S
C455 C451 1.393 . S
C455 C454 1.391 . S
H456 C464 0.950 . S
H457 C469 0.950 . S
H458 C466 0.950 . S
H459 C468 0.950 . S
H460 C470 0.950 . S
H461 C472 0.950 . S
H462 C474 0.950 . S
H463 C475 0.950 . S
C464 H456 0.950 . S
C464 C465 1.386 . S
C464 C466 1.391 . S
C465 C464 1.386 . S
C465 C469 1.393 . S
C466 H458 0.950 . S
C466 C464 1.391 . S
C466 C467 1.400 . S
C467 C466 1.400 . S
C467 C468 1.398 . S
C467 C473 1.491 1_655 S
C468 H459 0.950 . S
C468 C467 1.398 . S
C468 C469 1.391 . S
C469 H457 0.950 . S
C469 C465 1.393 . S
C469 C468 1.391 . S
C470 H460 0.950 . S
C470 C471 1.386 . S
C470 C472 1.391 . S
C471 C470 1.386 . S
C471 C475 1.393 . S
C472 H461 0.950 . S
C472 C470 1.391 . S
C472 C473 1.400 . S
C473 C467 1.491 1_455 S
C473 C472 1.400 . S
C473 C474 1.398 . S
C474 H462 0.950 . S
C474 C473 1.398 . S
C474 C475 1.391 . S
C475 H463 0.950 . S
C475 C471 1.393 . S
C475 C474 1.391 . S
H476 C484 0.950 . S
H477 C489 0.950 . S
H478 C486 0.950 . S
H479 C488 0.950 . S
H480 C490 0.950 . S
H481 C492 0.950 . S
H482 C494 0.950 . S
H483 C495 0.950 . S
C484 H476 0.950 . S
C484 C485 1.386 . S
C484 C486 1.391 . S
C485 C484 1.386 . S
C485 C489 1.393 . S
C486 H478 0.950 . S
C486 C484 1.391 . S
C486 C487 1.400 . S
C487 C486 1.400 . S
C487 C488 1.398 . S
C487 C493 1.491 1_565 S
C488 H479 0.950 . S
C488 C487 1.398 . S
C488 C489 1.391 . S
C489 H477 0.950 . S
C489 C485 1.393 . S
C489 C488 1.391 . S
C490 H480 0.950 . S
C490 C491 1.386 . S
C490 C492 1.391 . S
C491 C490 1.386 . S
C491 C495 1.393 . S
C492 H481 0.950 . S
C492 C490 1.391 . S
C492 C493 1.400 . S
C493 C487 1.491 1_545 S
C493 C492 1.400 . S
C493 C494 1.398 . S
C494 H482 0.950 . S
C494 C493 1.398 . S
C494 C495 1.391 . S
C495 H483 0.950 . S
C495 C491 1.393 . S
C495 C494 1.391 . S
H496 C504 0.950 . S
H497 C509 0.950 . S
H498 C506 0.950 . S
H499 C508 0.950 . S
H500 C510 0.950 . S
H501 C512 0.950 . S
H502 C514 0.950 . S
H503 C515 0.950 . S
C504 H496 0.950 . S
C504 C505 1.386 . S
C504 C506 1.391 . S
C505 C504 1.386 . S
C505 C509 1.393 . S
C506 H498 0.950 . S
C506 C504 1.391 . S
C506 C507 1.400 . S
C507 C506 1.400 . S
C507 C508 1.398 . S
C507 C513 1.491 . S
C508 H499 0.950 . S
C508 C507 1.398 . S
C508 C509 1.391 . S
C509 H497 0.950 . S
C509 C505 1.393 . S
C509 C508 1.391 . S
C510 H500 0.950 . S
C510 C511 1.386 . S
C510 C512 1.391 . S
C511 C510 1.386 . S
C511 C515 1.393 . S
C512 H501 0.950 . S
C512 C510 1.391 . S
C512 C513 1.400 . S
C513 C507 1.491 . S
C513 C512 1.400 . S
C513 C514 1.398 . S
C514 H502 0.950 . S
C514 C513 1.398 . S
C514 C515 1.391 . S
C515 H503 0.950 . S
C515 C511 1.393 . S
C515 C514 1.391 . S
H516 C524 0.950 . S
H517 C529 0.950 . S
H518 C526 0.950 . S
H519 C528 0.950 . S
H520 C530 0.950 . S
H521 C532 0.950 . S
H522 C534 0.950 . S
H523 C535 0.950 . S
C524 H516 0.950 . S
C524 C525 1.386 . S
C524 C526 1.391 . S
C525 C524 1.386 . S
C525 C529 1.393 . S
C526 H518 0.950 . S
C526 C524 1.391 . S
C526 C527 1.400 . S
C527 C526 1.400 . S
C527 C528 1.398 . S
C527 C533 1.491 . S
C528 H519 0.950 . S
C528 C527 1.398 . S
C528 C529 1.391 . S
C529 H517 0.950 . S
C529 C525 1.393 . S
C529 C528 1.391 . S
C530 H520 0.950 . S
C530 C531 1.386 . S
C530 C532 1.391 . S
C531 C530 1.386 . S
C531 C535 1.393 . S
C532 H521 0.950 . S
C532 C530 1.391 . S
C532 C533 1.400 . S
C533 C527 1.491 . S
C533 C532 1.400 . S
C533 C534 1.398 . S
C534 H522 0.950 . S
C534 C533 1.398 . S
C534 C535 1.391 . S
C535 H523 0.950 . S
C535 C531 1.393 . S
C535 C534 1.391 . S
H536 C544 0.950 . S
H537 C549 0.950 . S
H538 C546 0.950 . S
H539 C548 0.950 . S
H540 C550 0.950 . S
H541 C552 0.950 . S
H542 C554 0.950 . S
H543 C555 0.950 . S
C544 H536 0.950 . S
C544 C545 1.386 . S
C544 C546 1.391 . S
C545 C544 1.386 . S
C545 C549 1.393 . S
C546 H538 0.950 . S
C546 C544 1.391 . S
C546 C547 1.400 . S
C547 C546 1.400 . S
C547 C548 1.398 . S
C547 C553 1.491 . S
C548 H539 0.950 . S
C548 C547 1.398 . S
C548 C549 1.391 . S
C549 H537 0.950 . S
C549 C545 1.393 . S
C549 C548 1.391 . S
C550 H540 0.950 . S
C550 C551 1.386 . S
C550 C552 1.391 . S
C551 C550 1.386 . S
C551 C555 1.393 . S
C552 H541 0.950 . S
C552 C550 1.391 . S
C552 C553 1.400 . S
C553 C547 1.491 . S
C553 C552 1.400 . S
C553 C554 1.398 . S
C554 H542 0.950 . S
C554 C553 1.398 . S
C554 C555 1.391 . S
C555 H543 0.950 . S
C555 C551 1.393 . S
C555 C554 1.391 . S
H556 C564 0.950 . S
H557 C569 0.950 . S
H558 C566 0.950 . S
H559 C568 0.950 . S
H560 C570 0.950 . S
H561 C572 0.950 . S
H562 C574 0.950 . S
H563 C575 0.950 . S
C564 H556 0.950 . S
C564 C565 1.386 . S
C564 C566 1.391 . S
C565 C564 1.386 . S
C565 C569 1.393 . S
C566 H558 0.950 . S
C566 C564 1.391 . S
C566 C567 1.400 . S
C567 C566 1.400 . S
C567 C568 1.398 . S
C567 C573 1.491 . S
C568 H559 0.950 . S
C568 C567 1.398 . S
C568 C569 1.391 . S
C569 H557 0.950 . S
C569 C565 1.393 . S
C569 C568 1.391 . S
C570 H560 0.950 . S
C570 C571 1.386 . S
C570 C572 1.391 . S
C571 C570 1.386 . S
C571 C575 1.393 . S
C572 H561 0.950 . S
C572 C570 1.391 . S
C572 C573 1.400 . S
C573 C567 1.491 . S
C573 C572 1.400 . S
C573 C574 1.398 . S
C574 H562 0.950 . S
C574 C573 1.398 . S
C574 C575 1.391 . S
C575 H563 0.950 . S
C575 C571 1.393 . S
C575 C574 1.391 . S
H576 C584 0.950 . S
H577 C589 0.950 . S
H578 C586 0.950 . S
H579 C588 0.950 . S
H580 C590 0.950 . S
H581 C592 0.950 . S
H582 C594 0.950 . S
H583 C595 0.950 . S
C584 H576 0.950 . S
C584 C585 1.386 . S
C584 C586 1.391 . S
C585 C584 1.386 . S
C585 C589 1.393 . S
C586 H578 0.950 . S
C586 C584 1.391 . S
C586 C587 1.400 . S
C587 C586 1.400 . S
C587 C588 1.398 . S
C587 C593 1.491 . S
C588 H579 0.950 . S
C588 C587 1.398 . S
C588 C589 1.391 . S
C589 H577 0.950 . S
C589 C585 1.393 . S
C589 C588 1.391 . S
C590 H580 0.950 . S
C590 C591 1.386 . S
C590 C592 1.391 . S
C591 C590 1.386 . S
C591 C595 1.393 . S
C592 H581 0.950 . S
C592 C590 1.391 . S
C592 C593 1.400 . S
C593 C587 1.491 . S
C593 C592 1.400 . S
C593 C594 1.398 . S
C594 H582 0.950 . S
C594 C593 1.398 . S
C594 C595 1.391 . S
C595 H583 0.950 . S
C595 C591 1.393 . S
C595 C594 1.391 . S
H596 C604 0.950 . S
H597 C609 0.950 . S
H598 C606 0.950 . S
H599 C608 0.950 . S
H600 C610 0.950 . S
H601 C612 0.950 . S
H602 C614 0.950 . S
H603 C615 0.950 . S
C604 H596 0.950 . S
C604 C605 1.386 . S
C604 C606 1.391 . S
C605 C604 1.386 . S
C605 C609 1.393 . S
C606 H598 0.950 . S
C606 C604 1.391 . S
C606 C607 1.400 . S
C607 C606 1.400 . S
C607 C608 1.398 . S
C607 C613 1.491 . S
C608 H599 0.950 . S
C608 C607 1.398 . S
C608 C609 1.391 . S
C609 H597 0.950 . S
C609 C605 1.393 . S
C609 C608 1.391 . S
C610 H600 0.950 . S
C610 C611 1.386 . S
C610 C612 1.391 . S
C611 C610 1.386 . S
C611 C615 1.393 . S
C612 H601 0.950 . S
C612 C610 1.391 . S
C612 C613 1.400 . S
C613 C607 1.491 . S
C613 C612 1.400 . S
C613 C614 1.398 . S
C614 H602 0.950 . S
C614 C613 1.398 . S
C614 C615 1.391 . S
C615 H603 0.950 . S
C615 C611 1.393 . S
C615 C614 1.391 . S
H616 C624 0.950 . S
H617 C629 0.950 . S
H618 C626 0.950 . S
H619 C628 0.950 . S
H620 C630 0.950 . S
H621 C632 0.950 . S
H622 C634 0.950 . S
H623 C635 0.950 . S
C624 H616 0.950 . S
C624 C625 1.386 . S
C624 C626 1.391 . S
C625 C624 1.386 . S
C625 C629 1.393 . S
C626 H618 0.950 . S
C626 C624 1.391 . S
C626 C627 1.400 . S
C627 C626 1.400 . S
C627 C628 1.398 . S
C627 C633 1.491 . S
C628 H619 0.950 . S
C628 C627 1.398 . S
C628 C629 1.391 . S
C629 H617 0.950 . S
C629 C625 1.393 . S
C629 C628 1.391 . S
C630 H620 0.950 . S
C630 C631 1.386 . S
C630 C632 1.391 . S
C631 C630 1.386 . S
C631 C635 1.393 . S
C632 H621 0.950 . S
C632 C630 1.391 . S
C632 C633 1.400 . S
C633 C627 1.491 . S
C633 C632 1.400 . S
C633 C634 1.398 . S
C634 H622 0.950 . S
C634 C633 1.398 . S
C634 C635 1.391 . S
C635 H623 0.950 . S
C635 C631 1.393 . S
C635 C634 1.391 . S
H636 C644 0.950 . S
H637 C649 0.950 . S
H638 C646 0.950 . S
H639 C648 0.950 . S
H640 C650 0.950 . S
H641 C652 0.950 . S
H642 C654 0.950 . S
H643 C655 0.950 . S
C644 H636 0.950 . S
C644 C645 1.386 . S
C644 C646 1.391 . S
C645 C644 1.386 . S
C645 C649 1.393 . S
C646 H638 0.950 . S
C646 C644 1.391 . S
C646 C647 1.400 . S
C647 C646 1.400 . S
C647 C648 1.398 . S
C647 C653 1.491 . S
C648 H639 0.950 . S
C648 C647 1.398 . S
C648 C649 1.391 . S
C649 H637 0.950 . S
C649 C645 1.393 . S
C649 C648 1.391 . S
C650 H640 0.950 . S
C650 C651 1.386 . S
C650 C652 1.391 . S
C651 C650 1.386 . S
C651 C655 1.393 . S
C652 H641 0.950 . S
C652 C650 1.391 . S
C652 C653 1.400 . S
C653 C647 1.491 . S
C653 C652 1.400 . S
C653 C654 1.398 . S
C654 H642 0.950 . S
C654 C653 1.398 . S
C654 C655 1.391 . S
C655 H643 0.950 . S
C655 C651 1.393 . S
C655 C654 1.391 . S
C185 C140 1.387 . S
C191 C8 1.390 . S
C205 C43 1.437 . S
C211 C164 1.438 . S
C225 C96 1.442 . S
C231 C59 1.442 . S
C245 C73 1.482 . S
C251 C125 1.480 . S
C265 C109 1.421 . S
C271 C54 1.438 . S
C285 C84 1.385 . S
C291 C120 1.380 . S
C305 C153 1.469 . S
C311 C21 1.475 . S
C325 C30 1.438 . S
C331 C169 1.423 . S
C345 C40 1.390 . S
C351 C118 1.394 . S
C365 C147 1.442 . S
C371 C52 1.441 . S
C385 C161 1.442 . S
C391 C76 1.442 . S
C405 C15 1.481 . S
C411 C103 1.481 . S
C425 C81 1.419 . S
C431 C172 1.431 . S
C445 C98 1.386 . S
C451 C10 1.375 . S
C465 C29 1.472 . S
C471 C131 1.470 . S
C485 C65 1.433 . S
C491 C142 1.433 . S
C505 C162 1.126 . S
C511 C18 1.127 . S
C525 C37 1.173 . S
C531 C106 1.179 . S
C545 C51 1.223 . S
C551 C117 1.221 . S
C565 C150 1.177 . S
C571 C87 1.169 . S
C585 C128 1.127 . S
C591 C62 1.126 . S
C605 C139 1.179 . S
C611 C74 1.178 . S
C625 C175 1.226 . S
C631 C7 1.227 . S
C645 C95 1.176 . S
C651 C32 1.177 . S
