# Generated by pormake.
# Topology afi, (4)-cn, num edge types: 1
# Building blocks:
#     Node 0, Type 0, BuildingBlock: AZAVOO_clean_sbu_0, # of connection points: 4
#     Node 1, Type 0, BuildingBlock: AZAVOO_clean_sbu_0, # of connection points: 4
#     Node 2, Type 0, BuildingBlock: AZAVOO_clean_sbu_0, # of connection points: 4
#     Node 3, Type 0, BuildingBlock: AZAVOO_clean_sbu_0, # of connection points: 4
#     Node 4, Type 0, BuildingBlock: AZAVOO_clean_sbu_0, # of connection points: 4
#     Node 5, Type 0, BuildingBlock: AZAVOO_clean_sbu_0, # of connection points: 4
#     Node 6, Type 0, BuildingBlock: AZAVOO_clean_sbu_0, # of connection points: 4
#     Node 7, Type 0, BuildingBlock: AZAVOO_clean_sbu_0, # of connection points: 4
#     Node 8, Type 0, BuildingBlock: AZAVOO_clean_sbu_0, # of connection points: 4
#     Node 9, Type 0, BuildingBlock: AZAVOO_clean_sbu_0, # of connection points: 4
#     Node 10, Type 0, BuildingBlock: AZAVOO_clean_sbu_0, # of connection points: 4
#     Node 11, Type 0, BuildingBlock: AZAVOO_clean_sbu_0, # of connection points: 4
#     Node 12, Type 0, BuildingBlock: AZAVOO_clean_sbu_0, # of connection points: 4
#     Node 13, Type 0, BuildingBlock: AZAVOO_clean_sbu_0, # of connection points: 4
#     Node 14, Type 0, BuildingBlock: AZAVOO_clean_sbu_0, # of connection points: 4
#     Node 15, Type 0, BuildingBlock: AZAVOO_clean_sbu_0, # of connection points: 4
#     Node 16, Type 0, BuildingBlock: AZAVOO_clean_sbu_0, # of connection points: 4
#     Node 17, Type 0, BuildingBlock: AZAVOO_clean_sbu_0, # of connection points: 4
#     Node 18, Type 0, BuildingBlock: AZAVOO_clean_sbu_0, # of connection points: 4
#     Node 19, Type 0, BuildingBlock: AZAVOO_clean_sbu_0, # of connection points: 4
#     Node 20, Type 0, BuildingBlock: AZAVOO_clean_sbu_0, # of connection points: 4
#     Node 21, Type 0, BuildingBlock: AZAVOO_clean_sbu_0, # of connection points: 4
#     Node 22, Type 0, BuildingBlock: AZAVOO_clean_sbu_0, # of connection points: 4
#     Node 23, Type 0, BuildingBlock: AZAVOO_clean_sbu_0, # of connection points: 4
#     Edge 24, Type (0, 0), BuildingBlock: TEMPAE_clean_linker_10, # of connection points: 2
#     Edge 25, Type (0, 0), BuildingBlock: TEMPAE_clean_linker_10, # of connection points: 2
#     Edge 26, Type (0, 0), BuildingBlock: TEMPAE_clean_linker_10, # of connection points: 2
#     Edge 27, Type (0, 0), BuildingBlock: TEMPAE_clean_linker_10, # of connection points: 2
#     Edge 28, Type (0, 0), BuildingBlock: TEMPAE_clean_linker_10, # of connection points: 2
#     Edge 29, Type (0, 0), BuildingBlock: TEMPAE_clean_linker_10, # of connection points: 2
#     Edge 30, Type (0, 0), BuildingBlock: TEMPAE_clean_linker_10, # of connection points: 2
#     Edge 31, Type (0, 0), BuildingBlock: TEMPAE_clean_linker_10, # of connection points: 2
#     Edge 32, Type (0, 0), BuildingBlock: TEMPAE_clean_linker_10, # of connection points: 2
#     Edge 33, Type (0, 0), BuildingBlock: TEMPAE_clean_linker_10, # of connection points: 2
#     Edge 34, Type (0, 0), BuildingBlock: TEMPAE_clean_linker_10, # of connection points: 2
#     Edge 35, Type (0, 0), BuildingBlock: TEMPAE_clean_linker_10, # of connection points: 2
#     Edge 36, Type (0, 0), BuildingBlock: TEMPAE_clean_linker_10, # of connection points: 2
#     Edge 37, Type (0, 0), BuildingBlock: TEMPAE_clean_linker_10, # of connection points: 2
#     Edge 38, Type (0, 0), BuildingBlock: TEMPAE_clean_linker_10, # of connection points: 2
#     Edge 39, Type (0, 0), BuildingBlock: TEMPAE_clean_linker_10, # of connection points: 2
#     Edge 40, Type (0, 0), BuildingBlock: TEMPAE_clean_linker_10, # of connection points: 2
#     Edge 41, Type (0, 0), BuildingBlock: TEMPAE_clean_linker_10, # of connection points: 2
#     Edge 42, Type (0, 0), BuildingBlock: TEMPAE_clean_linker_10, # of connection points: 2
#     Edge 43, Type (0, 0), BuildingBlock: TEMPAE_clean_linker_10, # of connection points: 2
#     Edge 44, Type (0, 0), BuildingBlock: TEMPAE_clean_linker_10, # of connection points: 2
#     Edge 45, Type (0, 0), BuildingBlock: TEMPAE_clean_linker_10, # of connection points: 2
#     Edge 46, Type (0, 0), BuildingBlock: TEMPAE_clean_linker_10, # of connection points: 2
#     Edge 47, Type (0, 0), BuildingBlock: TEMPAE_clean_linker_10, # of connection points: 2
#     Edge 48, Type (0, 0), BuildingBlock: TEMPAE_clean_linker_10, # of connection points: 2
#     Edge 49, Type (0, 0), BuildingBlock: TEMPAE_clean_linker_10, # of connection points: 2
#     Edge 50, Type (0, 0), BuildingBlock: TEMPAE_clean_linker_10, # of connection points: 2
#     Edge 51, Type (0, 0), BuildingBlock: TEMPAE_clean_linker_10, # of connection points: 2
#     Edge 52, Type (0, 0), BuildingBlock: TEMPAE_clean_linker_10, # of connection points: 2
#     Edge 53, Type (0, 0), BuildingBlock: TEMPAE_clean_linker_10, # of connection points: 2
#     Edge 54, Type (0, 0), BuildingBlock: TEMPAE_clean_linker_10, # of connection points: 2
#     Edge 55, Type (0, 0), BuildingBlock: TEMPAE_clean_linker_10, # of connection points: 2
#     Edge 56, Type (0, 0), BuildingBlock: TEMPAE_clean_linker_10, # of connection points: 2
#     Edge 57, Type (0, 0), BuildingBlock: TEMPAE_clean_linker_10, # of connection points: 2
#     Edge 58, Type (0, 0), BuildingBlock: TEMPAE_clean_linker_10, # of connection points: 2
#     Edge 59, Type (0, 0), BuildingBlock: TEMPAE_clean_linker_10, # of connection points: 2
#     Edge 60, Type (0, 0), BuildingBlock: TEMPAE_clean_linker_10, # of connection points: 2
#     Edge 61, Type (0, 0), BuildingBlock: TEMPAE_clean_linker_10, # of connection points: 2
#     Edge 62, Type (0, 0), BuildingBlock: TEMPAE_clean_linker_10, # of connection points: 2
#     Edge 63, Type (0, 0), BuildingBlock: TEMPAE_clean_linker_10, # of connection points: 2
#     Edge 64, Type (0, 0), BuildingBlock: TEMPAE_clean_linker_10, # of connection points: 2
#     Edge 65, Type (0, 0), BuildingBlock: TEMPAE_clean_linker_10, # of connection points: 2
#     Edge 66, Type (0, 0), BuildingBlock: TEMPAE_clean_linker_10, # of connection points: 2
#     Edge 67, Type (0, 0), BuildingBlock: TEMPAE_clean_linker_10, # of connection points: 2
#     Edge 68, Type (0, 0), BuildingBlock: TEMPAE_clean_linker_10, # of connection points: 2
#     Edge 69, Type (0, 0), BuildingBlock: TEMPAE_clean_linker_10, # of connection points: 2
#     Edge 70, Type (0, 0), BuildingBlock: TEMPAE_clean_linker_10, # of connection points: 2
#     Edge 71, Type (0, 0), BuildingBlock: TEMPAE_clean_linker_10, # of connection points: 2
# Relax obj value: 0.098
# Max RMSD: 0.124
# Mean RMSD: 0.123
data_MOF--net-afi--node1-AZAVOO_clean_sbu_0--edge1-TEMPAE_clean_linker_10
_symmetry_space_group_name_H-M    P1
_symmetry_Int_Tables_number       1
_symmetry_cell_setting            triclinic
loop_
_symmetry_equiv_pos_as_xyz
'x, y, z'
_cell_length_a     66.901297
_cell_length_b     66.825781
_cell_length_c     43.336015
_cell_angle_alpha  89.896449
_cell_angle_beta   90.018204
_cell_angle_gamma 119.87643
loop_
_atom_site_label
_atom_site_type_symbol
_atom_site_fract_x
_atom_site_fract_y
_atom_site_fract_z
_atom_type_partial_charge
Mg0 Mg 0.43495 0.11152 0.16239 0.0
O1 O 0.46588 0.11078 0.18543 0.0
O2 O 0.46149 0.07612 0.17388 0.0
Mg3 Mg 0.42993 0.05542 0.14402 0.0
C4 C 0.47245 0.09579 0.18699 0.0
C5 C 0.46677 0.164 0.18983 0.0
O6 O 0.45012 0.15148 0.17062 0.0
O7 O 0.45274 0.11728 0.11583 0.0
O8 O 0.44806 0.08228 0.10607 0.0
O9 O 0.4123 0.09459 0.20354 0.0
O10 O 0.41621 0.07595 0.16401 0.0
C11 C 0.45544 0.10331 0.09859 0.0
C12 C 0.40781 0.07528 0.19087 0.0
O13 O 0.45053 0.15135 0.17121 0.0
Mg14 Mg 0.32104 0.43738 0.17723 0.0
O15 O 0.35705 0.46663 0.19047 0.0
O16 O 0.38237 0.45727 0.17133 0.0
Mg17 Mg 0.36298 0.42185 0.14809 0.0
C18 C 0.37774 0.47109 0.18587 0.0
C19 C 0.28225 0.44639 0.18707 0.0
O20 O 0.27369 0.42547 0.17575 0.0
O21 O 0.32745 0.45043 0.12744 0.0
O22 O 0.35062 0.43734 0.11075 0.0
O23 O 0.31978 0.41847 0.22061 0.0
O24 O 0.33265 0.41396 0.17564 0.0
C25 C 0.33888 0.44736 0.10617 0.0
C26 C 0.32918 0.40906 0.20446 0.0
O27 O 0.30398 0.45846 0.19036 0.0
Mg28 Mg 0.87709 0.32495 0.16065 0.0
O29 O 0.88181 0.3588 0.18185 0.0
O30 O 0.91475 0.3874 0.1626 0.0
Mg31 Mg 0.93122 0.37295 0.13062 0.0
C32 C 0.89678 0.38024 0.17937 0.0
C33 C 0.83577 0.30384 0.2067 0.0
O34 O 0.85271 0.31692 0.2255 0.0
O35 O 0.86662 0.33415 0.115 0.0
O36 O 0.90071 0.36279 0.09844 0.0
O37 O 0.89795 0.32137 0.19838 0.0
O38 O 0.91241 0.33977 0.15452 0.0
C39 C 0.87904 0.34949 0.09509 0.0
C40 C 0.91584 0.33381 0.18134 0.0
O41 O 0.83998 0.30451 0.17798 0.0
Mg42 Mg 0.5428 0.87862 0.16417 0.0
O43 O 0.51317 0.88336 0.18357 0.0
O44 O 0.51825 0.91666 0.1642 0.0
Mg45 Mg 0.55025 0.93354 0.13403 0.0
C46 C 0.50691 0.89852 0.18058 0.0
C47 C 0.53748 0.83142 0.17683 0.0
O48 O 0.55698 0.84271 0.16156 0.0
O49 O 0.52474 0.86894 0.11732 0.0
O50 O 0.53121 0.90349 0.10087 0.0
O51 O 0.56605 0.89869 0.2033 0.0
O52 O 0.56309 0.91411 0.1596 0.0
C53 C 0.52283 0.88183 0.09707 0.0
C54 C 0.57145 0.91691 0.18695 0.0
O55 O 0.52557 0.84121 0.18103 0.0
Mg56 Mg 0.65955 0.54305 0.17145 0.0
O57 O 0.6245 0.51474 0.1901 0.0
O58 O 0.59778 0.52291 0.17315 0.0
Mg59 Mg 0.61498 0.55553 0.14387 0.0
C60 C 0.60356 0.51014 0.18817 0.0
C61 C 0.67884 0.51956 0.21491 0.0
O62 O 0.66743 0.52496 0.23474 0.0
O63 O 0.65026 0.52632 0.12381 0.0
O64 O 0.62342 0.53516 0.10914 0.0
O65 O 0.66333 0.56525 0.21215 0.0
O66 O 0.64751 0.56608 0.16767 0.0
C67 C 0.6356 0.52564 0.10426 0.0
C68 C 0.65279 0.57325 0.19554 0.0
O69 O 0.67737 0.523 0.18633 0.0
Mg70 Mg 0.10833 0.665 0.15948 0.0
O71 O 0.10259 0.63157 0.18325 0.0
O72 O 0.06861 0.60305 0.16674 0.0
Mg73 Mg 0.05269 0.61715 0.13317 0.0
C74 C 0.08693 0.61029 0.18278 0.0
C75 C 0.15024 0.68606 0.20443 0.0
O76 O 0.13334 0.67385 0.22379 0.0
O77 O 0.11734 0.65304 0.11497 0.0
O78 O 0.08244 0.62449 0.10088 0.0
O79 O 0.08847 0.67096 0.19654 0.0
O80 O 0.07315 0.65125 0.15389 0.0
C81 C 0.10413 0.63688 0.09656 0.0
C82 C 0.07028 0.65842 0.18008 0.0
O83 O 0.14576 0.68484 0.17575 0.0
Mg84 Mg 0.87689 0.54946 0.30091 0.0
O85 O 0.88057 0.51865 0.28377 0.0
O86 O 0.91552 0.52582 0.29899 0.0
Mg87 Mg 0.93466 0.56057 0.32305 0.0
C88 C 0.89615 0.51292 0.28593 0.0
C89 C 0.83174 0.54451 0.28162 0.0
O90 O 0.84729 0.5665 0.27943 0.0
O91 O 0.8723 0.53567 0.35015 0.0
O92 O 0.90843 0.54465 0.36203 0.0
O93 O 0.89266 0.56941 0.25741 0.0
O94 O 0.9122 0.57038 0.29909 0.0
C95 C 0.88721 0.53623 0.36914 0.0
C96 C 0.91227 0.57649 0.27099 0.0
O97 O 0.83818 0.5306 0.29113 0.0
Mg98 Mg 0.31889 0.87872 0.30643 0.0
O99 O 0.35303 0.88301 0.28704 0.0
O100 O 0.38126 0.91643 0.30565 0.0
Mg101 Mg 0.36624 0.93385 0.33493 0.0
C102 C 0.37439 0.89804 0.28988 0.0
C103 C 0.27837 0.83541 0.28264 0.0
O104 O 0.27201 0.8511 0.28412 0.0
O105 O 0.3274 0.86964 0.3536 0.0
O106 O 0.35551 0.90434 0.36915 0.0
O107 O 0.31589 0.89864 0.26674 0.0
O108 O 0.33346 0.91415 0.31061 0.0
C109 C 0.34225 0.88274 0.37353 0.0
C110 C 0.32787 0.91694 0.28325 0.0
O111 O 0.29872 0.84106 0.291 0.0
Mg112 Mg 0.43784 0.31986 0.31148 0.0
O113 O 0.46627 0.3551 0.29316 0.0
O114 O 0.45723 0.38156 0.30856 0.0
Mg115 Mg 0.42437 0.3642 0.33709 0.0
C116 C 0.47046 0.37596 0.29445 0.0
C117 C 0.46713 0.30385 0.27193 0.0
O118 O 0.46688 0.31855 0.25198 0.0
O119 O 0.45376 0.32947 0.35956 0.0
O120 O 0.44474 0.35646 0.37273 0.0
O121 O 0.41666 0.31601 0.26964 0.0
O122 O 0.41464 0.33174 0.31362 0.0
C123 C 0.45429 0.3444 0.37845 0.0
C124 C 0.4083 0.32659 0.28543 0.0
O125 O 0.45824 0.30202 0.29846 0.0
Mg126 Mg 0.109 0.44182 0.3036 0.0
O127 O 0.10598 0.47305 0.28643 0.0
O128 O 0.07112 0.46634 0.30159 0.0
Mg129 Mg 0.05136 0.43147 0.32519 0.0
C130 C 0.09062 0.47908 0.28872 0.0
C131 C 0.15608 0.46923 0.26851 0.0
O132 O 0.14236 0.47064 0.24799 0.0
O133 O 0.11343 0.45556 0.35275 0.0
O134 O 0.07744 0.44737 0.36419 0.0
O135 O 0.09344 0.42222 0.25995 0.0
O136 O 0.07368 0.42149 0.30126 0.0
C137 C 0.09859 0.45551 0.3714 0.0
C138 C 0.07376 0.4155 0.27316 0.0
O139 O 0.14778 0.45998 0.29453 0.0
Mg140 Mg 0.66129 0.11305 0.30563 0.0
O141 O 0.63038 0.1139 0.2834 0.0
O142 O 0.59878 0.08137 0.29823 0.0
Mg143 Mg 0.60884 0.0589 0.32599 0.0
C144 C 0.60853 0.10072 0.28419 0.0
C145 C 0.70561 0.15629 0.28876 0.0
O146 O 0.711 0.13992 0.29086 0.0
O147 O 0.65092 0.12033 0.35279 0.0
O148 O 0.62006 0.08598 0.36369 0.0
O149 O 0.6648 0.09419 0.26497 0.0
O150 O 0.64348 0.07736 0.30602 0.0
C151 C 0.63448 0.10684 0.37076 0.0
C152 C 0.65053 0.07537 0.27925 0.0
O153 O 0.68495 0.15118 0.29442 0.0
Mg154 Mg 0.54576 0.66412 0.29957 0.0
O155 O 0.51792 0.62852 0.2814 0.0
O156 O 0.52782 0.60273 0.29715 0.0
Mg157 Mg 0.56071 0.62086 0.32556 0.0
C158 C 0.51427 0.60784 0.28285 0.0
C159 C 0.53176 0.70104 0.29614 0.0
O160 O 0.54793 0.70865 0.31736 0.0
O161 O 0.53002 0.65447 0.34798 0.0
O162 O 0.54027 0.62839 0.36134 0.0
O163 O 0.56697 0.66839 0.25774 0.0
O164 O 0.56968 0.65309 0.30182 0.0
C165 C 0.53027 0.64 0.36714 0.0
C166 C 0.57577 0.65821 0.27353 0.0
O167 O 0.52471 0.681 0.28511 0.0
Mg168 Mg 0.53409 0.86472 0.80726 0.0
O169 O 0.49883 0.85491 0.78678 0.0
O170 O 0.47394 0.81852 0.80056 0.0
Mg171 Mg 0.49328 0.80435 0.82777 0.0
C172 C 0.47858 0.83733 0.78704 0.0
C173 C 0.56326 0.9114 0.77624 0.0
O174 O 0.5718 0.89869 0.76615 0.0
O175 O 0.52127 0.86691 0.85527 0.0
O176 O 0.498 0.82951 0.86628 0.0
O177 O 0.54325 0.85181 0.7654 0.0
O178 O 0.52575 0.83019 0.80611 0.0
C179 C 0.50769 0.85081 0.87357 0.0
C180 C 0.53366 0.83179 0.7786 0.0
O181 O 0.54693 0.9027 0.79585 0.0
Mg182 Mg 0.66023 0.53493 0.81443 0.0
O183 O 0.63498 0.49927 0.795 0.0
O184 O 0.64809 0.47502 0.80554 0.0
Mg185 Mg 0.68005 0.49425 0.83548 0.0
C186 C 0.63341 0.47948 0.79333 0.0
C187 C 0.64259 0.56318 0.78105 0.0
O188 O 0.6637 0.57121 0.77081 0.0
O189 O 0.64501 0.52246 0.86224 0.0
O190 O 0.65834 0.49841 0.87311 0.0
O191 O 0.68254 0.54339 0.77277 0.0
O192 O 0.68674 0.52694 0.81456 0.0
C193 C 0.6469 0.50835 0.88034 0.0
C194 C 0.69314 0.53433 0.78688 0.0
O195 O 0.63503 0.5475 0.80166 0.0
Mg196 Mg 0.11901 0.6589 0.81158 0.0
O197 O 0.13082 0.63576 0.7884 0.0
O198 O 0.1672 0.64792 0.80269 0.0
Mg199 Mg 0.17929 0.67943 0.83341 0.0
C200 C 0.14896 0.63399 0.78805 0.0
C201 C 0.07308 0.64286 0.78015 0.0
O202 O 0.08552 0.66489 0.77337 0.0
O203 O 0.11622 0.64118 0.85759 0.0
O204 O 0.15353 0.6559 0.86971 0.0
O205 O 0.13262 0.68377 0.77246 0.0
O206 O 0.15278 0.68591 0.8139 0.0
C207 C 0.13212 0.64317 0.87588 0.0
C208 C 0.15192 0.69402 0.78733 0.0
O209 O 0.08176 0.63385 0.7976 0.0
Mg210 Mg 0.44607 0.12103 0.81045 0.0
O211 O 0.48118 0.1327 0.78788 0.0
O212 O 0.50556 0.16863 0.80375 0.0
Mg213 Mg 0.48598 0.18083 0.83419 0.0
C214 C 0.50123 0.1506 0.78849 0.0
C215 C 0.41754 0.07567 0.77632 0.0
O216 O 0.40889 0.08859 0.76744 0.0
O217 O 0.46019 0.1173 0.85657 0.0
O218 O 0.4827 0.15429 0.87015 0.0
O219 O 0.43511 0.13505 0.77155 0.0
O220 O 0.45342 0.15518 0.81287 0.0
C221 C 0.47373 0.13272 0.87558 0.0
C222 C 0.44445 0.1544 0.78633 0.0
O223 O 0.43379 0.08376 0.79601 0.0
Mg224 Mg 0.32101 0.45226 0.81637 0.0
O225 O 0.34485 0.48768 0.79576 0.0
O226 O 0.33157 0.51144 0.80776 0.0
Mg227 Mg 0.29693 0.48996 0.83245 0.0
C228 C 0.34657 0.50756 0.79523 0.0
C229 C 0.34342 0.42157 0.8085 0.0
O230 O 0.32332 0.40633 0.81999 0.0
O231 O 0.33397 0.46592 0.86496 0.0
O232 O 0.31493 0.48498 0.87405 0.0
O233 O 0.30016 0.44102 0.77332 0.0
O234 O 0.29346 0.45821 0.81231 0.0
C235 C 0.32778 0.47699 0.88298 0.0
C236 C 0.28844 0.44984 0.78486 0.0
O237 O 0.34847 0.44255 0.80678 0.0
Mg238 Mg 0.86394 0.32328 0.80865 0.0
O239 O 0.85269 0.34677 0.78516 0.0
O240 O 0.81593 0.33434 0.79758 0.0
Mg241 Mg 0.80301 0.30191 0.8269 0.0
C242 C 0.83459 0.34856 0.78395 0.0
C243 C 0.91415 0.34139 0.78981 0.0
O244 O 0.90545 0.31889 0.78983 0.0
O245 O 0.86472 0.33934 0.85523 0.0
O246 O 0.82707 0.32403 0.86553 0.0
O247 O 0.85227 0.29967 0.76815 0.0
O248 O 0.83033 0.29613 0.80826 0.0
C249 C 0.84825 0.33657 0.87295 0.0
C250 C 0.8323 0.28899 0.7815 0.0
O251 O 0.90133 0.34951 0.7978 0.0
Mg252 Mg 0.11545 0.44314 0.66223 0.0
O253 O 0.12814 0.47917 0.68244 0.0
O254 O 0.16412 0.5026 0.66594 0.0
Mg255 Mg 0.17513 0.48147 0.63681 0.0
C256 C 0.14627 0.499 0.68106 0.0
C257 C 0.07525 0.43392 0.70552 0.0
O258 O 0.09298 0.44277 0.72435 0.0
O259 O 0.11158 0.45599 0.61516 0.0
O260 O 0.14854 0.47793 0.60101 0.0
O261 O 0.12968 0.43331 0.70216 0.0
O262 O 0.14911 0.44957 0.65947 0.0
C263 C 0.12699 0.46906 0.59575 0.0
C264 C 0.1488 0.44188 0.6868 0.0
O265 O 0.07869 0.43232 0.67698 0.0
Mg266 Mg 0.66047 0.11987 0.66128 0.0
O267 O 0.63646 0.13145 0.68251 0.0
O268 O 0.64858 0.16769 0.6671 0.0
Mg269 Mg 0.68108 0.18012 0.63824 0.0
C270 C 0.63443 0.14947 0.68171 0.0
C271 C 0.64307 0.07396 0.69454 0.0
O272 O 0.6645 0.08666 0.70377 0.0
O273 O 0.644 0.11685 0.6141 0.0
O274 O 0.65889 0.15415 0.60155 0.0
O275 O 0.68428 0.13341 0.70147 0.0
O276 O 0.68728 0.15404 0.66008 0.0
C277 C 0.64648 0.13272 0.59532 0.0
C278 C 0.69465 0.15295 0.68709 0.0
O279 O 0.63517 0.08239 0.67485 0.0
Mg280 Mg 0.5345 0.66137 0.65833 0.0
O281 O 0.49897 0.63774 0.6798 0.0
O282 O 0.47482 0.64956 0.66353 0.0
Mg283 Mg 0.49483 0.68135 0.6333 0.0
C284 C 0.479 0.6358 0.67901 0.0
C285 C 0.56254 0.6441 0.69327 0.0
O286 O 0.57133 0.6657 0.70188 0.0
O287 O 0.52192 0.64464 0.61106 0.0
O288 O 0.49941 0.65913 0.59716 0.0
O289 O 0.54393 0.68534 0.69808 0.0
O290 O 0.52718 0.6883 0.65577 0.0
C291 C 0.50883 0.64695 0.59159 0.0
C292 C 0.53499 0.69569 0.68303 0.0
O293 O 0.54641 0.63607 0.67338 0.0
Mg294 Mg 0.86552 0.54072 0.66343 0.0
O295 O 0.85497 0.50419 0.68 0.0
O296 O 0.81929 0.4801 0.66302 0.0
Mg297 Mg 0.80635 0.50112 0.63711 0.0
C298 C 0.83751 0.48396 0.67744 0.0
C299 C 0.91067 0.56634 0.69969 0.0
O300 O 0.89722 0.57282 0.71307 0.0
O301 O 0.87003 0.53135 0.61446 0.0
O302 O 0.83334 0.50835 0.59995 0.0
O303 O 0.8507 0.54706 0.70566 0.0
O304 O 0.83098 0.53203 0.66278 0.0
C305 C 0.85496 0.51881 0.59443 0.0
C306 C 0.8313 0.53808 0.69103 0.0
O307 O 0.90297 0.55283 0.67662 0.0
Mg308 Mg 0.31684 0.86685 0.6645 0.0
O309 O 0.34257 0.85675 0.68348 0.0
O310 O 0.33039 0.82013 0.67002 0.0
Mg311 Mg 0.29645 0.80627 0.64407 0.0
C312 C 0.34498 0.83895 0.68299 0.0
C313 C 0.33429 0.91369 0.69403 0.0
O314 O 0.31293 0.90121 0.7037 0.0
O315 O 0.33074 0.86876 0.6159 0.0
O316 O 0.3163 0.83128 0.60511 0.0
O317 O 0.29587 0.85433 0.70741 0.0
O318 O 0.29097 0.83252 0.6666 0.0
C319 C 0.32783 0.85255 0.59757 0.0
C320 C 0.28546 0.83424 0.69452 0.0
O321 O 0.34208 0.90475 0.67506 0.0
Mg322 Mg 0.44301 0.32479 0.66744 0.0
O323 O 0.47882 0.34727 0.68798 0.0
O324 O 0.50116 0.33192 0.67786 0.0
Mg325 Mg 0.48015 0.3008 0.64703 0.0
C326 C 0.49784 0.34732 0.69017 0.0
C327 C 0.414 0.34896 0.67832 0.0
O328 O 0.3987 0.33058 0.66337 0.0
O329 O 0.45713 0.34048 0.62032 0.0
O330 O 0.47893 0.32452 0.60975 0.0
O331 O 0.43197 0.30154 0.70838 0.0
O332 O 0.44791 0.29645 0.66666 0.0
C333 C 0.47069 0.33753 0.60253 0.0
C334 C 0.43991 0.28996 0.69409 0.0
O335 O 0.4343 0.35231 0.68151 0.0
C336 C 0.37334 0.04603 0.21962 0.0
C337 C 0.39522 0.05324 0.20733 0.0
C338 C 0.36027 0.02384 0.23236 0.0
C339 C 0.3697 0.00899 0.23334 0.0
C340 C 0.39217 0.01666 0.22187 0.0
C341 C 0.40456 0.03864 0.20872 0.0
C342 C 0.33623 0.01606 0.24399 0.0
C343 C 0.4031 0.00159 0.22328 0.0
C344 C 0.34837 0.95959 0.29011 0.0
C345 C 0.33656 0.94041 0.27071 0.0
C346 C 0.35855 0.98209 0.27843 0.0
C347 C 0.35641 0.98549 0.24668 0.0
C348 C 0.34339 0.96626 0.22726 0.0
C349 C 0.33369 0.94387 0.2395 0.0
C350 C 0.37251 0.00214 0.29981 0.0
C351 C 0.34045 0.96932 0.19335 0.0
H352 H 0.36615 0.0574 0.21822 0.0
H353 H 0.42166 0.04447 0.19964 0.0
H354 H 0.32357 0.00079 0.23069 0.0
H355 H 0.33463 0.0107 0.26852 0.0
H356 H 0.33157 0.02981 0.24195 0.0
H357 H 0.42101 0.01048 0.21417 0.0
H358 H 0.40342 -0.0037 0.24748 0.0
H359 H 0.39271 0.98563 0.2097 0.0
H360 H 0.3501 0.9571 0.31444 0.0
H361 H 0.32434 0.92912 0.22448 0.0
H362 H 0.36676 0.01506 0.29809 0.0
H363 H 0.39092 0.01088 0.29288 0.0
H364 H 0.37118 -0.00338 0.32428 0.0
H365 H 0.33472 0.98217 0.19005 0.0
H366 H 0.32776 0.95287 0.18221 0.0
H367 H 0.35725 0.97603 0.18139 0.0
C368 C 0.37329 0.33011 0.28472 0.0
C369 C 0.3943 0.33528 0.27119 0.0
C370 C 0.36087 0.34052 0.27403 0.0
C371 C 0.37032 0.3572 0.25021 0.0
C372 C 0.39156 0.36235 0.23636 0.0
C373 C 0.40316 0.35099 0.24675 0.0
C374 C 0.33791 0.334 0.2886 0.0
C375 C 0.40246 0.38051 0.21149 0.0
C376 C 0.33356 0.37449 0.20341 0.0
C377 C 0.33761 0.39469 0.21845 0.0
C378 C 0.34331 0.36154 0.21433 0.0
C379 C 0.35822 0.3696 0.24012 0.0
C380 C 0.36217 0.38992 0.25561 0.0
C381 C 0.35143 0.40206 0.24484 0.0
C382 C 0.33802 0.33952 0.19793 0.0
C383 C 0.37848 0.39936 0.28267 0.0
H384 H 0.36668 0.31804 0.30385 0.0
H385 H 0.41973 0.35525 0.2369 0.0
H386 H 0.33913 0.349 0.30119 0.0
H387 H 0.32456 0.32918 0.27049 0.0
H388 H 0.33215 0.31936 0.30503 0.0
H389 H 0.41912 0.38257 0.20332 0.0
H390 H 0.39065 0.37598 0.19149 0.0
H391 H 0.40552 0.39737 0.22041 0.0
H392 H 0.3228 0.3689 0.18295 0.0
H393 H 0.35476 0.41792 0.25606 0.0
H394 H 0.33223 0.32515 0.21477 0.0
H395 H 0.35384 0.34162 0.18668 0.0
H396 H 0.32448 0.33461 0.18004 0.0
H397 H 0.37291 0.38626 0.30128 0.0
H398 H 0.37953 0.41527 0.29225 0.0
H399 H 0.396 0.40338 0.27538 0.0
C400 C 0.95842 0.35594 0.17362 0.0
C401 C 0.93953 0.34278 0.19303 0.0
C402 C 0.981 0.3666 0.1849 0.0
C403 C 0.98482 0.36347 0.21617 0.0
C404 C 0.96596 0.34897 0.23541 0.0
C405 C 0.94346 0.33892 0.22366 0.0
C406 C 0.00064 0.38217 0.16377 0.0
C407 C 0.96949 0.34484 0.26872 0.0
C408 C 0.04595 0.3821 0.24169 0.0
C409 C 0.05203 0.40304 0.2562 0.0
C410 C 0.02398 0.36882 0.22857 0.0
C411 C 0.00824 0.37716 0.22944 0.0
C412 C 0.01479 0.3988 0.24309 0.0
C413 C 0.03656 0.41134 0.25667 0.0
C414 C 0.01736 0.34562 0.21473 0.0
C415 C -0.00125 0.4086 0.24366 0.0
H416 H 0.95561 0.3584 0.14966 0.0
H417 H 0.92897 0.32847 0.23866 0.0
H418 H 0.00856 0.40025 0.172 0.0
H419 H 0.01427 0.37733 0.16415 0.0
H420 H -0.00509 0.38151 0.13955 0.0
H421 H 0.95342 0.33105 0.27948 0.0
H422 H 0.98307 0.33998 0.27059 0.0
H423 H 0.97541 0.36097 0.28208 0.0
H424 H 0.058 0.3757 0.24172 0.0
H425 H 0.04153 0.42772 0.26764 0.0
H426 H 0.01161 0.34477 0.19053 0.0
H427 H 0.00264 0.33183 0.22775 0.0
H428 H 0.03184 0.34195 0.21512 0.0
H429 H -0.00689 0.40953 0.21987 0.0
H430 H 0.00694 0.42614 0.25396 0.0
H431 H 0.98307 0.3971 0.25719 0.0
C432 C 0.60554 0.94695 0.21542 0.0
C433 C 0.58473 0.94014 0.20008 0.0
C434 C 0.61864 0.96947 0.22699 0.0
C435 C 0.61024 0.9851 0.22383 0.0
C436 C 0.5891 0.97811 0.20851 0.0
C437 C 0.5767 0.95574 0.1966 0.0
C438 C 0.64131 0.97651 0.24274 0.0
C439 C 0.57922 -0.00599 0.20546 0.0
C440 C 0.6269 0.03258 0.28238 0.0
C441 C 0.64152 0.05234 0.26517 0.0
C442 C 0.61706 0.01056 0.26937 0.0
C443 C 0.62245 0.00814 0.23858 0.0
C444 C 0.63807 0.02788 0.22145 0.0
C445 C 0.64733 0.04984 0.2349 0.0
C446 C 0.60023 0.98997 0.28829 0.0
C447 C 0.64455 0.02581 0.18873 0.0
H448 H 0.61172 0.93481 0.21786 0.0
H449 H 0.56034 0.95025 0.18535 0.0
H450 H 0.65519 0.99264 0.23227 0.0
H451 H 0.64021 0.98012 0.26746 0.0
H452 H 0.64624 0.96294 0.24114 0.0
H453 H 0.56286 0.98607 0.19214 0.0
H454 H 0.57586 -0.00138 0.22872 0.0
H455 H 0.59179 0.01029 0.19386 0.0
H456 H 0.62286 0.03423 0.30608 0.0
H457 H 0.65888 0.06502 0.22162 0.0
H458 H 0.60588 0.97695 0.28941 0.0
H459 H 0.58302 0.98162 0.27712 0.0
H460 H 0.59838 -0.00521 0.31221 0.0
H461 H 0.6501 0.01272 0.18741 0.0
H462 H 0.65862 0.04248 0.17967 0.0
H463 H 0.6293 0.0199 0.17352 0.0
C464 C 0.57905 0.63129 0.23771 0.0
C465 C 0.58943 0.64933 0.25892 0.0
C466 C 0.5906 0.61985 0.22753 0.0
C467 C 0.61322 0.62719 0.23831 0.0
C468 C 0.62408 0.64613 0.25876 0.0
C469 C 0.61181 0.6567 0.26935 0.0
C470 C 0.57825 0.59934 0.20634 0.0
C471 C 0.64841 0.65487 0.26995 0.0
C472 C 0.63372 0.58351 0.23688 0.0
C473 C 0.64495 0.58844 0.20836 0.0
C474 C 0.62342 0.59617 0.24712 0.0
C475 C 0.62521 0.61458 0.22879 0.0
C476 C 0.63759 0.62029 0.20068 0.0
C477 C 0.64693 0.60681 0.1905 0.0
C478 C 0.60978 0.58919 0.27681 0.0
C479 C 0.64054 0.64029 0.18106 0.0
H480 H 0.56149 0.62539 0.23035 0.0
H481 H 0.61956 0.67055 0.2861 0.0
H482 H 0.58829 0.60221 0.18482 0.0
H483 H 0.57674 0.58373 0.21766 0.0
H484 H 0.5607 0.59588 0.20014 0.0
H485 H 0.65501 0.67101 0.28358 0.0
H486 H 0.64907 0.64159 0.2846 0.0
H487 H 0.66011 0.65818 0.25006 0.0
H488 H 0.63199 0.56904 0.25036 0.0
H489 H 0.65571 0.61053 0.16841 0.0
H490 H 0.59152 0.58391 0.27194 0.0
H491 H 0.61651 0.60404 0.29287 0.0
H492 H 0.61033 0.57467 0.28853 0.0
H493 H 0.62359 0.63657 0.17172 0.0
H494 H 0.6525 0.64376 0.16141 0.0
H495 H 0.64723 0.65614 0.19526 0.0
C496 C 0.04302 0.65374 0.22275 0.0
C497 C 0.04677 0.65031 0.1919 0.0
C498 C 0.02054 0.64385 0.23461 0.0
C499 C 0.00156 0.63 0.21521 0.0
C500 C 0.00524 0.62751 0.18369 0.0
C501 C 0.0278 0.63796 0.17235 0.0
C502 C 0.01716 0.6473 0.26822 0.0
C503 C 0.98548 0.61269 0.16234 0.0
C504 C 0.94958 0.58112 0.25421 0.0
C505 C 0.93413 0.58944 0.25443 0.0
C506 C 0.97145 0.59404 0.24099 0.0
C507 C 0.97815 0.61609 0.2285 0.0
C508 C 0.96246 0.62451 0.22847 0.0
C509 C 0.94038 0.61086 0.24115 0.0
C510 C 0.98743 0.58415 0.2406 0.0
C511 C 0.96923 0.64814 0.21591 0.0
H512 H 0.05761 0.66354 0.23786 0.0
H513 H 0.03052 0.63586 0.14822 0.0
H514 H 0.0036 0.65212 0.2708 0.0
H515 H 0.0113 0.63089 0.28097 0.0
H516 H 0.0333 0.66085 0.27908 0.0
H517 H -0.00888 0.61404 0.13794 0.0
H518 H 0.9775 0.59436 0.16963 0.0
H519 H 0.97193 0.6176 0.16365 0.0
H520 H 0.9445 0.56442 0.26435 0.0
H521 H 0.92835 0.61727 0.24178 0.0
H522 H 0.00313 0.59527 0.25428 0.0
H523 H -0.00696 0.58378 0.21661 0.0
H524 H 0.97917 0.56637 0.2502 0.0
H525 H 0.98401 0.66148 0.22927 0.0
H526 H 0.95484 0.65191 0.21703 0.0
H527 H 0.97496 0.64965 0.19158 0.0
C528 C 0.58782 0.94263 0.73917 0.0
C529 C 0.57236 0.93511 0.76408 0.0
C530 C 0.59722 0.96508 0.72747 0.0
C531 C 0.59118 0.98055 0.74111 0.0
C532 C 0.57519 0.97298 0.76583 0.0
C533 C 0.56588 0.95028 0.77699 0.0
C534 C 0.61414 0.97242 0.70099 0.0
C535 C 0.56845 0.98906 0.78104 0.0
C536 C 0.63707 0.04332 0.73234 0.0
C537 C 0.62875 0.05043 0.70736 0.0
C538 C 0.6245 0.02091 0.74432 0.0
C539 C 0.6031 0.00508 0.73089 0.0
C540 C 0.59424 0.01228 0.70621 0.0
C541 C 0.60716 0.03494 0.69477 0.0
C542 C 0.63454 0.01398 0.77075 0.0
C543 C 0.57152 -0.00418 0.69125 0.0
H544 H 0.59276 0.93098 0.72882 0.0
H545 H 0.55388 0.94456 0.79617 0.0
H546 H 0.60866 0.97979 0.68203 0.0
H547 H 0.63137 0.98611 0.70882 0.0
H548 H 0.61584 0.95787 0.69166 0.0
H549 H 0.55459 0.98009 0.79848 0.0
H550 H 0.58369 0.0033 0.7926 0.0
H551 H 0.56249 -0.00299 0.76346 0.0
H552 H 0.65362 0.05522 0.74247 0.0
H553 H 0.60059 0.04035 0.67554 0.0
H554 H 0.63863 0.00064 0.76285 0.0
H555 H 0.62179 0.0063 0.78973 0.0
H556 H 0.65053 0.02881 0.78006 0.0
H557 H 0.57294 0.98186 0.67945 0.0
H558 H 0.56614 0.00456 0.67404 0.0
H559 H 0.55782 0.98755 0.70898 0.0
C560 C 0.60706 0.56707 0.78149 0.0
C561 C 0.62815 0.57221 0.76801 0.0
C562 C 0.59401 0.57657 0.76959 0.0
C563 C 0.60221 0.59136 0.74354 0.0
C564 C 0.6231 0.59594 0.7293 0.0
C565 C 0.63582 0.5864 0.74175 0.0
C566 C 0.57186 0.57139 0.78545 0.0
C567 C 0.63241 0.61152 0.70139 0.0
C568 C 0.56428 0.60738 0.69617 0.0
C569 C 0.57141 0.62971 0.70702 0.0
C570 C 0.57351 0.59424 0.7086 0.0
C571 C 0.59015 0.60366 0.73246 0.0
C572 C 0.59683 0.62588 0.74411 0.0
C573 C 0.58744 0.63861 0.73122 0.0
C574 C 0.56603 0.57062 0.69555 0.0
C575 C 0.61448 0.63655 0.76956 0.0
H576 H 0.601 0.55606 0.80171 0.0
H577 H 0.65196 0.59027 0.73094 0.0
H578 H 0.57382 0.58741 0.79592 0.0
H579 H 0.55761 0.56525 0.76845 0.0
H580 H 0.56692 0.55816 0.80388 0.0
H581 H 0.64808 0.61206 0.6918 0.0
H582 H 0.61912 0.60563 0.68303 0.0
H583 H 0.63682 0.62933 0.70776 0.0
H584 H 0.55182 0.60033 0.67758 0.0
H585 H 0.59291 0.65576 0.74 0.0
H586 H 0.56062 0.5577 0.7144 0.0
H587 H 0.58077 0.57081 0.68355 0.0
H588 H 0.55157 0.56499 0.67892 0.0
H589 H 0.60949 0.62464 0.78958 0.0
H590 H 0.61656 0.65328 0.77754 0.0
H591 H 0.63144 0.63954 0.76125 0.0
C592 C 0.94141 0.58819 0.73856 0.0
C593 C 0.93429 0.57481 0.71162 0.0
C594 C 0.96386 0.59719 0.74991 0.0
C595 C 0.9797 0.59281 0.7339 0.0
C596 C 0.97251 0.57881 0.70714 0.0
C597 C 0.94983 0.56992 0.69631 0.0
C598 C 0.97083 0.61202 0.77856 0.0
C599 C 0.98896 0.57381 0.68945 0.0
C600 C 0.04205 0.63899 0.74468 0.0
C601 C 0.04955 0.62917 0.76729 0.0
C602 C 0.01963 0.62694 0.73281 0.0
C603 C 0.0042 0.60451 0.74393 0.0
C604 C 0.01178 0.59419 0.76617 0.0
C605 C 0.03445 0.60664 0.77755 0.0
C606 C 0.01227 0.63853 0.70901 0.0
C607 C -0.00425 0.57033 0.77862 0.0
H608 H 0.92948 0.59191 0.75073 0.0
H609 H 0.94443 0.55952 0.67556 0.0
H610 H 0.97851 0.6055 0.79575 0.0
H611 H 0.98417 0.62993 0.77259 0.0
H612 H 0.95605 0.6125 0.78945 0.0
H613 H 0.98024 0.56117 0.67057 0.0
H614 H 0.00289 0.59004 0.67926 0.0
H615 H -0.00275 0.567 0.7052 0.0
H616 H 0.05367 0.6563 0.73636 0.0
H617 H 0.04016 0.59892 0.79494 0.0
H618 H -0.00139 0.64145 0.71879 0.0
H619 H 0.00486 0.62724 0.68854 0.0
H620 H 0.02679 0.6554 0.7013 0.0
H621 H 0.98161 0.57046 0.79182 0.0
H622 H 0.00477 0.56406 0.79401 0.0
H623 H 0.98771 0.55792 0.75937 0.0
C624 C 0.39301 0.04554 0.73816 0.0
C625 C 0.40827 0.05226 0.76324 0.0
C626 C 0.38307 0.02321 0.72602 0.0
C627 C 0.38835 0.00707 0.73939 0.0
C628 C 0.40425 0.01389 0.76413 0.0
C629 C 0.41412 0.03648 0.77573 0.0
C630 C 0.36629 0.01668 0.69951 0.0
C631 C 0.41019 -0.00292 0.77904 0.0
C632 C 0.34092 0.94495 0.73088 0.0
C633 C 0.34888 0.93735 0.7061 0.0
C634 C 0.35403 0.96733 0.74261 0.0
C635 C 0.3756 0.98263 0.72907 0.0
C636 C 0.384 0.97499 0.70441 0.0
C637 C 0.37055 0.95234 0.69327 0.0
C638 C 0.34449 0.97478 0.76903 0.0
C639 C 0.40687 0.99091 0.68929 0.0
H640 H 0.38858 0.05769 0.72812 0.0
H641 H 0.42595 0.0416 0.79504 0.0
H642 H 0.37126 0.0089 0.68053 0.0
H643 H 0.34879 0.00352 0.70731 0.0
H644 H 0.3654 0.03172 0.69021 0.0
H645 H 0.42425 0.00555 0.79629 0.0
H646 H 0.39472 0.98322 0.79078 0.0
H647 H 0.4155 0.98873 0.76128 0.0
H648 H 0.32429 0.93342 0.74117 0.0
H649 H 0.37683 0.94654 0.67418 0.0
H650 H 0.34121 0.9887 0.7612 0.0
H651 H 0.35723 0.98188 0.78808 0.0
H652 H 0.32814 0.96034 0.77824 0.0
H653 H 0.40608 0.00536 0.67784 0.0
H654 H 0.41165 0.98189 0.67179 0.0
H655 H 0.42069 -0.00144 0.70692 0.0
C656 C 0.37341 0.42762 0.76941 0.0
C657 C 0.35783 0.41377 0.79239 0.0
C658 C 0.38454 0.41909 0.75057 0.0
C659 C 0.38032 0.39634 0.75523 0.0
C660 C 0.36562 0.38277 0.77952 0.0
C661 C 0.35437 0.39157 0.79763 0.0
C662 C 0.39988 0.434 0.72469 0.0
C663 C 0.36109 0.35861 0.78567 0.0
C664 C 0.38547 0.36186 0.68929 0.0
C665 C 0.40671 0.36334 0.69561 0.0
C666 C 0.37711 0.37328 0.70785 0.0
C667 C 0.39013 0.38617 0.73366 0.0
C668 C 0.41192 0.38833 0.7396 0.0
C669 C 0.42004 0.37706 0.72034 0.0
C670 C 0.354 0.37097 0.70038 0.0
C671 C 0.42618 0.40169 0.76709 0.0
H672 H 0.37607 0.44476 0.76508 0.0
H673 H 0.34246 0.38085 0.81546 0.0
H674 H 0.41685 0.43485 0.72559 0.0
H675 H 0.3919 0.42624 0.70218 0.0
H676 H 0.40271 0.45185 0.72555 0.0
H677 H 0.35084 0.3511 0.80703 0.0
H678 H 0.35154 0.34727 0.76597 0.0
H679 H 0.37761 0.35859 0.78782 0.0
H680 H 0.37515 0.3514 0.67013 0.0
H681 H 0.43644 0.3782 0.72549 0.0
H682 H 0.35553 0.38826 0.69906 0.0
H683 H 0.34153 0.36124 0.71904 0.0
H684 H 0.34688 0.36184 0.67821 0.0
H685 H 0.42862 0.41936 0.7672 0.0
H686 H 0.44339 0.40297 0.76736 0.0
H687 H 0.41696 0.39307 0.78867 0.0
C688 C 0.04791 0.42266 0.74999 0.0
C689 C 0.05152 0.42374 0.71798 0.0
C690 C 0.02558 0.41094 0.76244 0.0
C691 C 0.00639 0.40018 0.7424 0.0
C692 C 0.00985 0.40213 0.71005 0.0
C693 C 0.03239 0.41383 0.69821 0.0
C694 C 0.02261 0.40922 0.79706 0.0
C695 C 0.98978 0.39107 0.68794 0.0
C696 C 0.95231 0.34759 0.77192 0.0
C697 C 0.93803 0.35677 0.77888 0.0
C698 C 0.97462 0.36159 0.76026 0.0
C699 C 0.98286 0.38538 0.75528 0.0
C700 C 0.96865 0.39486 0.76252 0.0
C701 C 0.9464 0.38044 0.77433 0.0
C702 C 0.98932 0.35086 0.75305 0.0
C703 C 0.97684 0.42014 0.75743 0.0
H704 H 0.06257 0.43034 0.76547 0.0
H705 H 0.03501 0.41472 0.67345 0.0
H706 H 0.01006 0.41457 0.80428 0.0
H707 H 0.01558 0.39101 0.80441 0.0
H708 H 0.03912 0.42004 0.80941 0.0
H709 H -0.00476 0.39585 0.66356 0.0
H710 H 0.98118 0.37201 0.69012 0.0
H711 H 0.97681 0.39621 0.6937 0.0
H712 H 0.94603 0.32934 0.77543 0.0
H713 H 0.93545 0.38767 0.77957 0.0
H714 H 0.00569 0.35972 0.76624 0.0
H715 H -0.00612 0.35305 0.72818 0.0
H716 H 0.98048 0.33216 0.75869 0.0
H717 H -0.00705 0.43085 0.77058 0.0
H718 H 0.9638 0.42487 0.7646 0.0
H719 H 0.9809 0.42451 0.73267 0.0
C720 C 0.45394 0.19342 0.19428 0.0
C721 C 0.47065 0.18691 0.19951 0.0
C722 C 0.45663 0.21413 0.2061 0.0
C723 C 0.47667 0.22896 0.22317 0.0
C724 C 0.49402 0.22294 0.22749 0.0
C725 C 0.49064 0.2018 0.21591 0.0
C726 C 0.43754 0.21968 0.20131 0.0
C727 C 0.51584 0.23854 0.24494 0.0
C728 C 0.48406 0.28873 0.23299 0.0
C729 C 0.47357 0.2866 0.26179 0.0
C730 C 0.48679 0.2707 0.221 0.0
C731 C 0.47847 0.24991 0.23798 0.0
C732 C 0.46916 0.24824 0.26784 0.0
C733 C 0.46702 0.26666 0.27948 0.0
C734 C 0.49734 0.27339 0.18941 0.0
C735 C 0.45988 0.22633 0.28662 0.0
H736 H 0.43832 0.18196 0.18183 0.0
H737 H 0.50354 0.19678 0.21997 0.0
H738 H 0.43034 0.22065 0.22397 0.0
H739 H 0.44441 0.23677 0.19002 0.0
H740 H 0.42329 0.20658 0.18691 0.0
H741 H 0.52867 0.23263 0.24338 0.0
H742 H 0.52376 0.25644 0.23592 0.0
H743 H 0.51174 0.23906 0.26962 0.0
H744 H 0.48941 0.30417 0.2193 0.0
H745 H 0.45897 0.26485 0.30179 0.0
H746 H 0.48363 0.26284 0.17254 0.0
H747 H 0.50986 0.26708 0.18943 0.0
H748 H 0.50624 0.29163 0.18145 0.0
H749 H 0.44428 0.21243 0.27521 0.0
H750 H 0.45519 0.22853 0.31046 0.0
H751 H 0.47274 0.2205 0.28793 0.0
C752 C 0.18809 0.48275 0.22982 0.0
C753 C 0.17934 0.47379 0.2592 0.0
C754 C 0.20775 0.48281 0.21829 0.0
C755 C 0.21877 0.47349 0.23645 0.0
C756 C 0.21115 0.46623 0.26706 0.0
C757 C 0.19161 0.46658 0.27812 0.0
C758 C 0.21559 0.49116 0.18578 0.0
C759 C 0.22239 0.4562 0.28725 0.0
C760 C 0.24257 0.43975 0.19558 0.0
C761 C 0.26646 0.45452 0.19785 0.0
C762 C 0.22701 0.446 0.20754 0.0
C763 C 0.23547 0.46772 0.22198 0.0
C764 C 0.25955 0.48311 0.22351 0.0
C765 C 0.27481 0.47628 0.21153 0.0
C766 C 0.20147 0.42901 0.20542 0.0
C767 C 0.26918 0.50652 0.23837 0.0
H768 H 0.17894 0.48866 0.21517 0.0
H769 H 0.18514 0.45982 0.30096 0.0
H770 H 0.23466 0.50167 0.18459 0.0
H771 H 0.21015 0.47608 0.17035 0.0
H772 H 0.2081 0.5016 0.17687 0.0
H773 H 0.21657 0.45433 0.31162 0.0
H774 H 0.218 0.4389 0.27843 0.0
H775 H 0.24142 0.46716 0.28657 0.0
H776 H 0.23589 0.42294 0.18497 0.0
H777 H 0.29325 0.48783 0.2133 0.0
H778 H 0.19258 0.43702 0.19332 0.0
H779 H 0.19398 0.42422 0.22894 0.0
H780 H 0.19772 0.413 0.19296 0.0
H781 H 0.26076 0.51585 0.22869 0.0
H782 H 0.28812 0.51729 0.23509 0.0
H783 H 0.26546 0.50442 0.26348 0.0
C784 C 0.71768 0.19737 0.27479 0.0
C785 C 0.72317 0.17979 0.27856 0.0
C786 C 0.73421 0.21934 0.26391 0.0
C787 C 0.75668 0.22375 0.25656 0.0
C788 C 0.76236 0.20616 0.26076 0.0
C789 C 0.74559 0.18447 0.27172 0.0
C790 C 0.72758 0.23772 0.25988 0.0
C791 C 0.78613 0.21012 0.25325 0.0
C792 C 0.79654 0.26929 0.19958 0.0
C793 C 0.81336 0.28568 0.21928 0.0
C794 C 0.77709 0.24971 0.21147 0.0
C795 C 0.77436 0.24648 0.24382 0.0
C796 C 0.79038 0.2638 0.26379 0.0
C797 C 0.8097 0.2832 0.25128 0.0
C798 C 0.76035 0.23172 0.18937 0.0
C799 C 0.78799 0.26113 0.29842 0.0
H800 H 0.70041 0.19391 0.28006 0.0
H801 H 0.75005 0.17105 0.27459 0.0
H802 H 0.73965 0.25347 0.27285 0.0
H803 H 0.72894 0.24265 0.23518 0.0
H804 H 0.70974 0.23188 0.26788 0.0
H805 H 0.78786 0.19474 0.25825 0.0
H806 H 0.78998 0.21456 0.22846 0.0
H807 H 0.79931 0.22489 0.26678 0.0
H808 H 0.79909 0.27113 0.17482 0.0
H809 H 0.82246 0.29587 0.26671 0.0
H810 H 0.74233 0.22627 0.19597 0.0
H811 H 0.76234 0.21621 0.19043 0.0
H812 H 0.76322 0.23808 0.16517 0.0
H813 H 0.77004 0.25549 0.30563 0.0
H814 H 0.79984 0.27743 0.31059 0.0
H815 H 0.79197 0.24762 0.30592 0.0
C816 C 0.54577 0.79966 0.18848 0.0
C817 C 0.53129 0.80909 0.19196 0.0
C818 C 0.54205 0.78017 0.20535 0.0
C819 C 0.52325 0.76965 0.22614 0.0
C820 C 0.50781 0.7783 0.22859 0.0
C821 C 0.51206 0.798 0.21154 0.0
C822 C 0.55895 0.77154 0.20198 0.0
C823 C 0.48739 0.76737 0.25014 0.0
C824 C 0.5121 0.71108 0.25437 0.0
C825 C 0.52552 0.71725 0.28132 0.0
C826 C 0.50977 0.72767 0.23715 0.0
C827 C 0.52123 0.75096 0.24703 0.0
C828 C 0.53337 0.7569 0.27536 0.0
C829 C 0.53529 0.73997 0.29218 0.0
C830 C 0.49631 0.72055 0.20737 0.0
C831 C 0.5458 0.78149 0.28685 0.0
H832 H 0.56057 0.80796 0.17328 0.0
H833 H 0.5007 0.80509 0.21427 0.0
H834 H 0.5682 0.77381 0.22411 0.0
H835 H 0.54968 0.75284 0.19657 0.0
H836 H 0.57189 0.78081 0.18358 0.0
H837 H 0.47537 0.77407 0.2463 0.0
H838 H 0.47781 0.74835 0.24723 0.0
H839 H 0.4935 0.77096 0.27438 0.0
H840 H 0.50433 0.69353 0.24588 0.0
H841 H 0.54548 0.74489 0.31314 0.0
H842 H 0.50846 0.72679 0.18758 0.0
H843 H 0.48519 0.72845 0.20534 0.0
H844 H 0.48536 0.70151 0.20553 0.0
H845 H 0.56057 0.79221 0.27139 0.0
H846 H 0.55246 0.78285 0.3107 0.0
H847 H 0.53418 0.78887 0.28641 0.0
C848 C 0.71082 0.51112 0.20488 0.0
C849 C 0.69696 0.51464 0.22598 0.0
C850 C 0.73105 0.51149 0.21452 0.0
C851 C 0.73763 0.51561 0.24595 0.0
C852 C 0.72263 0.51706 0.26773 0.0
C853 C 0.70243 0.51647 0.2575 0.0
C854 C 0.74634 0.50947 0.1906 0.0
C855 C 0.72891 0.52136 0.30149 0.0
C856 C 0.79041 0.5132 0.27439 0.0
C857 C 0.80752 0.53656 0.27268 0.0
C858 C 0.76751 0.50594 0.26566 0.0
C859 C 0.76167 0.52245 0.25506 0.0
C860 C 0.77891 0.546 0.25328 0.0
C861 C 0.80153 0.55272 0.26208 0.0
C862 C 0.74959 0.4807 0.26781 0.0
C863 C 0.77348 0.56421 0.24212 0.0
H864 H 0.70658 0.50936 0.18052 0.0
H865 H 0.69173 0.51894 0.27408 0.0
H866 H 0.76134 0.52682 0.18595 0.0
H867 H 0.75312 0.49833 0.19908 0.0
H868 H 0.73708 0.50231 0.16852 0.0
H869 H 0.71397 0.51834 0.316 0.0
H870 H 0.73561 0.51013 0.30987 0.0
H871 H 0.74278 0.53953 0.30462 0.0
H872 H 0.7949 0.5006 0.28252 0.0
H873 H 0.81457 0.5708 0.26061 0.0
H874 H 0.74152 0.47427 0.24491 0.0
H875 H 0.73567 0.47833 0.28388 0.0
H876 H 0.75698 0.46998 0.27597 0.0
H877 H 0.76644 0.56014 0.21833 0.0
H878 H 0.78888 0.58177 0.24209 0.0
H879 H 0.7601 0.56438 0.25706 0.0
C880 C 0.17661 0.70795 0.24808 0.0
C881 C 0.17296 0.70416 0.21622 0.0
C882 C 0.1961 0.72765 0.25954 0.0
C883 C 0.21236 0.74392 0.23864 0.0
C884 C 0.20978 0.73919 0.20659 0.0
C885 C 0.19009 0.71937 0.19575 0.0
C886 C 0.19827 0.73193 0.29389 0.0
C887 C 0.22684 0.75595 0.18353 0.0
C888 C 0.23976 0.80675 0.26204 0.0
C889 C 0.2619 0.81188 0.27135 0.0
C890 C 0.22366 0.78476 0.25131 0.0
C891 C 0.22975 0.76731 0.24979 0.0
C892 C 0.25207 0.7723 0.25905 0.0
C893 C 0.26793 0.79457 0.26975 0.0
C894 C 0.20005 0.78022 0.24167 0.0
C895 C 0.25915 0.75411 0.25773 0.0
H896 H 0.16363 0.69618 0.26413 0.0
H897 H 0.18758 0.71647 0.1711 0.0
H898 H 0.21617 0.73795 0.30169 0.0
H899 H 0.1942 0.74573 0.2994 0.0
H900 H 0.18635 0.71622 0.30719 0.0
H901 H 0.22445 0.74816 0.16024 0.0
H902 H 0.2246 0.77128 0.18171 0.0
H903 H 0.24478 0.76205 0.19122 0.0
H904 H 0.23491 0.81997 0.26313 0.0
H905 H 0.285 0.7984 0.27689 0.0
H906 H 0.18661 0.76608 0.25585 0.0
H907 H 0.19678 0.77457 0.21723 0.0
H908 H 0.19809 0.7957 0.24416 0.0
H909 H 0.24761 0.73926 0.2726 0.0
H910 H 0.27723 0.76081 0.26536 0.0
H911 H 0.25732 0.74749 0.23383 0.0
C912 C 0.54596 0.72557 0.72383 0.0
C913 C 0.53364 0.71514 0.69683 0.0
C914 C 0.54577 0.74474 0.7365 0.0
C915 C 0.53254 0.75331 0.72213 0.0
C916 C 0.5198 0.74267 0.69516 0.0
C917 C 0.52076 0.72389 0.68259 0.0
C918 C 0.5599 0.75598 0.76503 0.0
C919 C 0.50515 0.75112 0.6796 0.0
C920 C 0.51627 0.7892 0.77229 0.0
C921 C 0.53225 0.81164 0.76278 0.0
C922 C 0.51579 0.77 0.75867 0.0
C923 C 0.532 0.7734 0.73543 0.0
C924 C 0.54801 0.79599 0.72539 0.0
C925 C 0.54778 0.81487 0.739 0.0
C926 C 0.49813 0.74609 0.76943 0.0
C927 C 0.56578 0.80023 0.70093 0.0
H928 H 0.55615 0.71904 0.73478 0.0
H929 H 0.5114 0.71614 0.6616 0.0
H930 H 0.57231 0.77444 0.76033 0.0
H931 H 0.54851 0.75534 0.78405 0.0
H932 H 0.56965 0.74748 0.77297 0.0
H933 H 0.4957 0.74044 0.65931 0.0
H934 H 0.49244 0.75091 0.69623 0.0
H935 H 0.51613 0.76923 0.67185 0.0
H936 H 0.5041 0.78654 0.79037 0.0
H937 H 0.56027 0.83222 0.73172 0.0
H938 H 0.50693 0.73746 0.78009 0.0
H939 H 0.48812 0.73542 0.74947 0.0
H940 H 0.48593 0.7464 0.78656 0.0
H941 H 0.57702 0.79342 0.70887 0.0
H942 H 0.57679 0.81885 0.69542 0.0
H943 H 0.55719 0.7909 0.67946 0.0
C944 C 0.72217 0.52124 0.78679 0.0
C945 C 0.71188 0.53242 0.77178 0.0
C946 C 0.7408 0.52038 0.77353 0.0
C947 C 0.74972 0.53154 0.74499 0.0
C948 C 0.7393 0.54266 0.7295 0.0
C949 C 0.72033 0.54279 0.74299 0.0
C950 C 0.75125 0.50801 0.79043 0.0
C951 C 0.74865 0.55505 0.69921 0.0
C952 C 0.81236 0.55162 0.72798 0.0
C953 C 0.81044 0.53539 0.70609 0.0
C954 C 0.79267 0.55058 0.74083 0.0
C955 C 0.77064 0.53252 0.73204 0.0
C956 C 0.76864 0.5156 0.71075 0.0
C957 C 0.78863 0.51738 0.69776 0.0
C958 C 0.79542 0.5691 0.76319 0.0
C959 C 0.7454 0.49575 0.70157 0.0
H960 H 0.71602 0.51345 0.80919 0.0
H961 H 0.71254 0.55158 0.73135 0.0
H962 H 0.75256 0.49555 0.77483 0.0
H963 H 0.76899 0.52064 0.79797 0.0
H964 H 0.74104 0.49855 0.81106 0.0
H965 H 0.73821 0.56238 0.68979 0.0
H966 H 0.76663 0.56929 0.7024 0.0
H967 H 0.7491 0.54306 0.68192 0.0
H968 H 0.82928 0.56562 0.73428 0.0
H969 H 0.78715 0.50456 0.68134 0.0
H970 H 0.78715 0.56122 0.78554 0.0
H971 H 0.78663 0.57822 0.75401 0.0
H972 H 0.8138 0.58199 0.7675 0.0
H973 H 0.73572 0.48614 0.72241 0.0
H974 H 0.74691 0.48354 0.68568 0.0
H975 H 0.73508 0.50242 0.69007 0.0
C976 C 0.26492 0.79213 0.7055 0.0
C977 C 0.26776 0.81401 0.71113 0.0
C978 C 0.24676 0.77244 0.71901 0.0
C979 C 0.23105 0.7748 0.73834 0.0
C980 C 0.23428 0.79696 0.74494 0.0
C981 C 0.25281 0.8164 0.7314 0.0
C982 C 0.24411 0.74909 0.71207 0.0
C983 C 0.21773 0.80004 0.76536 0.0
C984 C 0.17117 0.72301 0.74543 0.0
C985 C 0.17236 0.71423 0.77432 0.0
C986 C 0.19017 0.74287 0.73351 0.0
C987 C 0.21082 0.75398 0.75084 0.0
C988 C 0.21219 0.74512 0.77988 0.0
C989 C 0.19286 0.72542 0.7914 0.0
C990 C 0.18812 0.75204 0.70249 0.0
C991 C 0.23405 0.75648 0.79882 0.0
H992 H 0.27688 0.79035 0.6906 0.0
H993 H 0.25506 0.83338 0.73568 0.0
H994 H 0.24325 0.73996 0.73387 0.0
H995 H 0.22771 0.73832 0.69953 0.0
H996 H 0.25852 0.75039 0.69785 0.0
H997 H 0.22324 0.81851 0.76915 0.0
H998 H 0.20034 0.79146 0.75469 0.0
H999 H 0.21612 0.79171 0.78809 0.0
H1000 H 0.15532 0.71452 0.73224 0.0
H1001 H 0.1938 0.71898 0.81396 0.0
H1002 H 0.20105 0.75224 0.68627 0.0
H1003 H 0.19181 0.7701 0.70488 0.0
H1004 H 0.17071 0.74156 0.6922 0.0
H1005 H 0.24856 0.75737 0.78532 0.0
H1006 H 0.23238 0.74709 0.82071 0.0
H1007 H 0.23864 0.77445 0.80444 0.0
C1008 C 0.43218 0.26341 0.7389 0.0
C1009 C 0.44087 0.27059 0.70902 0.0
C1010 C 0.43257 0.24461 0.75275 0.0
C1011 C 0.44224 0.23312 0.73647 0.0
C1012 C 0.45127 0.24048 0.70651 0.0
C1013 C 0.45012 0.25887 0.69298 0.0
C1014 C 0.42234 0.23683 0.78454 0.0
C1015 C 0.46201 0.22882 0.6886 0.0
C1016 C 0.46194 0.19697 0.7802 0.0
C1017 C 0.44422 0.17462 0.77346 0.0
C1018 C 0.46144 0.21627 0.76852 0.0
C1019 C 0.44251 0.21301 0.75029 0.0
C1020 C 0.42439 0.19045 0.7438 0.0
C1021 C 0.42563 0.17148 0.75516 0.0
C1022 C 0.48136 0.2401 0.77514 0.0
C1023 C 0.40375 0.18635 0.72483 0.0
H1024 H 0.42481 0.27227 0.75131 0.0
H1025 H 0.45635 0.26386 0.66964 0.0
H1026 H 0.40817 0.21862 0.78367 0.0
H1027 H 0.43557 0.2375 0.8006 0.0
H1028 H 0.41545 0.24761 0.79407 0.0
H1029 H 0.46944 0.23755 0.66626 0.0
H1030 H 0.47587 0.22861 0.70243 0.0
H1031 H 0.44887 0.21062 0.68388 0.0
H1032 H 0.47645 0.1994 0.794 0.0
H1033 H 0.41179 0.15415 0.75026 0.0
H1034 H 0.47504 0.2508 0.78639 0.0
H1035 H 0.48973 0.24878 0.75317 0.0
H1036 H 0.49454 0.23966 0.79027 0.0
H1037 H 0.39573 0.19595 0.73486 0.0
H1038 H 0.39049 0.16777 0.72352 0.0
H1039 H 0.40927 0.19294 0.70103 0.0
C1040 C 0.19028 0.45299 0.68318 0.0
C1041 C 0.1698 0.44354 0.70038 0.0
C1042 C 0.21036 0.45463 0.69557 0.0
C1043 C 0.20978 0.44614 0.72563 0.0
C1044 C 0.18912 0.43628 0.743 0.0
C1045 C 0.16937 0.43523 0.73022 0.0
C1046 C 0.2322 0.46552 0.67654 0.0
C1047 C 0.18787 0.4268 0.77505 0.0
C1048 C 0.25548 0.43125 0.74851 0.0
C1049 C 0.26965 0.44995 0.76747 0.0
C1050 C 0.23594 0.42983 0.73447 0.0
C1051 C 0.23089 0.44781 0.73909 0.0
C1052 C 0.24576 0.46722 0.75712 0.0
C1053 C 0.26491 0.46796 0.77131 0.0
C1054 C 0.22031 0.40877 0.7156 0.0
C1055 C 0.24122 0.487 0.76186 0.0
H1056 H 0.19069 0.45905 0.6599 0.0
H1057 H 0.15356 0.42775 0.74354 0.0
H1058 H 0.24613 0.48035 0.68916 0.0
H1059 H 0.2381 0.45288 0.67269 0.0
H1060 H 0.22983 0.4717 0.65375 0.0
H1061 H 0.17031 0.41913 0.78516 0.0
H1062 H 0.19303 0.41339 0.77443 0.0
H1063 H 0.20013 0.44075 0.79051 0.0
H1064 H 0.25916 0.41728 0.74569 0.0
H1065 H 0.27618 0.48268 0.78534 0.0
H1066 H 0.21809 0.41395 0.69209 0.0
H1067 H 0.20298 0.39953 0.72642 0.0
H1068 H 0.22705 0.39663 0.71356 0.0
H1069 H 0.23958 0.49384 0.73924 0.0
H1070 H 0.25512 0.50133 0.77528 0.0
H1071 H 0.22467 0.48081 0.7743 0.0
C1072 C 0.81441 0.2613 0.73776 0.0
C1073 C 0.8122 0.26959 0.7665 0.0
C1074 C 0.79551 0.24227 0.72406 0.0
C1075 C 0.77393 0.23163 0.73933 0.0
C1076 C 0.77155 0.24011 0.76812 0.0
C1077 C 0.79078 0.25878 0.78152 0.0
C1078 C 0.79866 0.23337 0.6935 0.0
C1079 C 0.7487 0.22936 0.78488 0.0
C1080 C 0.7197 0.19552 0.69301 0.0
C1081 C 0.7145 0.17312 0.70099 0.0
C1082 C 0.7391 0.21478 0.70523 0.0
C1083 C 0.75378 0.21145 0.72548 0.0
C1084 C 0.74868 0.18886 0.73351 0.0
C1085 C 0.7289 0.16992 0.7214 0.0
C1086 C 0.74372 0.23866 0.69681 0.0
C1087 C 0.76416 0.18471 0.75476 0.0
H1088 H 0.83097 0.26945 0.72615 0.0
H1089 H 0.78896 0.26472 0.80398 0.0
H1090 H 0.7942 0.21507 0.69593 0.0
H1091 H 0.78682 0.23394 0.67606 0.0
H1092 H 0.81661 0.24352 0.68473 0.0
H1093 H 0.74956 0.23869 0.80648 0.0
H1094 H 0.73527 0.22925 0.76973 0.0
H1095 H 0.74309 0.21116 0.79078 0.0
H1096 H 0.70846 0.19807 0.67764 0.0
H1097 H 0.72499 0.15257 0.72734 0.0
H1098 H 0.76104 0.24874 0.68616 0.0
H1099 H 0.74368 0.24799 0.71796 0.0
H1100 H 0.73071 0.23824 0.6805 0.0
H1101 H 0.78202 0.19349 0.74559 0.0
H1102 H 0.75825 0.16605 0.75763 0.0
H1103 H 0.76474 0.19217 0.77781 0.0
C1104 C 0.46167 0.12658 0.05107 0.0
C1105 C 0.46538 0.11071 0.06756 0.0
C1106 C 0.46682 0.13024 0.01953 0.0
C1107 C 0.47642 0.11815 0.00451 0.0
C1108 C 0.48205 0.10364 0.0217 0.0
C1109 C 0.47614 0.09983 0.05302 0.0
C1110 C 0.46044 0.14578 0.00189 0.0
C1111 C 0.49308 0.09115 0.00671 0.0
C1112 C 0.4588 0.10644 0.92085 0.0
C1113 C 0.4769 0.12585 0.90668 0.0
C1114 C 0.45907 0.10292 0.95268 0.0
C1115 C 0.47817 0.11893 0.97041 0.0
C1116 C 0.4975 0.1372 0.95566 0.0
C1117 C 0.49652 0.14064 0.92392 0.0
C1118 C 0.43806 0.08325 0.96765 0.0
C1119 C 0.51852 0.15408 0.97365 0.0
H1120 H 0.45331 0.13495 0.06228 0.0
H1121 H 0.4793 0.08775 0.06593 0.0
H1122 H 0.47548 0.15888 -0.01136 0.0
H1123 H 0.44662 0.13538 0.98504 0.0
H1124 H 0.45425 0.15483 0.01729 0.0
H1125 H 0.50022 0.08415 0.02407 0.0
H1126 H 0.48002 0.07656 -0.0072 0.0
H1127 H 0.50712 0.10281 -0.00916 0.0
H1128 H 0.44361 0.09502 0.90756 0.0
H1129 H 0.51068 0.15551 0.91286 0.0
H1130 H 0.42933 0.09027 0.98217 0.0
H1131 H 0.44312 0.07322 0.98298 0.0
H1132 H 0.42551 0.07133 0.95038 0.0
H1133 H 0.51469 0.16623 0.98621 0.0
H1134 H 0.53356 0.16429 0.95831 0.0
H1135 H 0.52326 0.14496 -0.00896 0.0
C1136 C 0.31644 0.47715 0.93738 0.0
C1137 C 0.3327 0.47789 0.91628 0.0
C1138 C 0.31866 0.47462 0.96902 0.0
C1139 C 0.33802 0.47356 0.97994 0.0
C1140 C 0.35532 0.47588 0.95899 0.0
C1141 C 0.35223 0.47757 0.92722 0.0
C1142 C 0.29944 0.47141 -0.00958 0.0
C1143 C 0.37658 0.4756 0.97001 0.0
C1144 C 0.34658 0.47759 0.06687 0.0
C1145 C 0.33775 0.45435 0.0745 0.0
C1146 C 0.34746 0.48431 0.03593 0.0
C1147 C 0.33861 0.46722 0.01259 0.0
C1148 C 0.32926 0.44366 0.02052 0.0
C1149 C 0.32933 0.43757 0.05138 0.0
C1150 C 0.35815 0.50962 0.02815 0.0
C1151 C 0.31897 0.42484 -0.00354 0.0
H1152 H 0.30117 0.47716 0.929 0.0
H1153 H 0.36489 0.47831 0.91094 0.0
H1154 H 0.2907 0.45358 -0.00018 0.0
H1155 H 0.30641 0.48337 0.01028 0.0
H1156 H 0.28637 0.47431 0.97856 0.0
H1157 H 0.38993 0.48119 0.95168 0.0
H1158 H 0.3841 0.48703 -0.00967 0.0
H1159 H 0.37188 0.45787 0.97732 0.0
H1160 H 0.35344 0.4905 0.08495 0.0
H1161 H 0.32263 0.41961 0.05758 0.0
H1162 H 0.34521 0.51302 0.01699 0.0
H1163 H 0.37241 0.51461 0.01138 0.0
H1164 H 0.36501 0.52076 0.04888 0.0
H1165 H 0.30503 0.42578 0.98382 0.0
H1166 H 0.31174 0.40733 0.00671 0.0
H1167 H 0.3323 0.42726 0.97932 0.0
C1168 C 0.83716 0.34854 0.92148 0.0
C1169 C 0.85339 0.34547 0.90475 0.0
C1170 C 0.83952 0.3524 0.95339 0.0
C1171 C 0.85822 0.35261 0.96884 0.0
C1172 C 0.87542 0.35098 0.95175 0.0
C1173 C 0.87292 0.3477 0.91978 0.0
C1174 C 0.82132 0.35492 0.9707 0.0
C1175 C 0.89562 0.35105 0.96747 0.0
C1176 C 0.87781 0.37203 0.05033 0.0
C1177 C 0.869 0.35074 0.0655 0.0
C1178 C 0.87268 0.37313 0.01927 0.0
C1179 C 0.85898 0.35238 0.00299 0.0
C1180 C 0.84856 0.33098 0.01889 0.0
C1181 C 0.8535 0.33045 0.05022 0.0
C1182 C 0.88336 0.39632 0.00339 0.0
C1183 C 0.83392 0.30846 0.00223 0.0
H1184 H 0.82215 0.34707 0.90981 0.0
H1185 H 0.88545 0.34527 0.90694 0.0
H1186 H 0.80989 0.33865 0.98319 0.0
H1187 H 0.82932 0.36888 -0.01187 0.0
H1188 H 0.81052 0.35872 0.95494 0.0
H1189 H 0.90797 0.35066 0.95071 0.0
H1190 H 0.90498 0.36662 0.9821 0.0
H1191 H 0.88927 0.33576 0.98282 0.0
H1192 H 0.88962 0.38777 0.06238 0.0
H1193 H 0.84677 0.314 0.06198 0.0
H1194 H 0.87082 0.39729 -0.01243 0.0
H1195 H 0.89827 0.39878 -0.01068 0.0
H1196 H 0.88955 0.4107 0.02024 0.0
H1197 H 0.82047 0.30929 -0.01173 0.0
H1198 H 0.82541 0.29361 0.01839 0.0
H1199 H 0.84491 0.30523 0.98613 0.0
C1200 C 0.51719 0.85637 0.05226 0.0
C1201 C 0.51269 0.87239 0.06675 0.0
C1202 C 0.51273 0.85171 0.02069 0.0
C1203 C 0.50311 0.863 0.00367 0.0
C1204 C 0.49648 0.87745 0.01896 0.0
C1205 C 0.50162 0.8822 0.05033 0.0
C1206 C 0.52006 0.8362 0.0051 0.0
C1207 C 0.48548 0.88917 0.00182 0.0
C1208 C 0.52262 0.87538 0.92045 0.0
C1209 C 0.50468 0.85636 0.90551 0.0
C1210 C 0.52191 0.87818 0.9524 0.0
C1211 C 0.50257 0.86181 0.96952 0.0
C1212 C 0.48364 0.84359 0.95416 0.0
C1213 C 0.48502 0.84093 0.92232 0.0
C1214 C 0.54248 0.89785 0.96805 0.0
C1215 C 0.46244 0.82626 0.97152 0.0
H1216 H 0.52584 0.84888 0.06496 0.0
H1217 H 0.4979 0.89443 0.06172 0.0
H1218 H 0.50583 0.82306 -0.00919 0.0
H1219 H 0.53478 0.84665 -0.01057 0.0
H1220 H 0.5254 0.82722 0.02197 0.0
H1221 H 0.47778 0.89646 0.01781 0.0
H1222 H 0.4987 0.90346 -0.01241 0.0
H1223 H 0.47187 0.87692 0.98595 0.0
H1224 H 0.53786 0.88726 0.90753 0.0
H1225 H 0.47099 0.82632 0.9107 0.0
H1226 H 0.55056 0.89085 0.9839 0.0
H1227 H 0.53696 0.90806 0.98218 0.0
H1228 H 0.5557 0.90959 0.95127 0.0
H1229 H 0.46658 0.81478 0.98527 0.0
H1230 H 0.44796 0.81539 0.95573 0.0
H1231 H 0.45667 0.83511 -0.01212 0.0
C1232 C 0.65355 0.51886 0.0582 0.0
C1233 C 0.63373 0.51541 0.07365 0.0
C1234 C 0.65279 0.514 0.02662 0.0
C1235 C 0.63157 0.50497 0.01057 0.0
C1236 C 0.61114 0.49944 0.02682 0.0
C1237 C 0.61252 0.50505 0.05815 0.0
C1238 C 0.67499 0.52027 0.00999 0.0
C1239 C 0.58809 0.48903 0.01074 0.0
C1240 C 0.63793 0.52388 0.92716 0.0
C1241 C 0.63831 0.50551 0.91226 0.0
C1242 C 0.63479 0.52349 0.95916 0.0
C1243 C 0.6314 0.504 0.9764 0.0
C1244 C 0.62981 0.4846 0.96109 0.0
C1245 C 0.63358 0.4857 0.92917 0.0
C1246 C 0.6367 0.54458 0.97474 0.0
C1247 C 0.62539 0.46321 0.97857 0.0
H1248 H 0.66995 0.52697 0.0702 0.0
H1249 H 0.59712 0.50215 0.07029 0.0
H1250 H 0.67302 0.50552 -0.00399 0.0
H1251 H 0.67931 0.53482 -0.0061 0.0
H1252 H 0.68965 0.52548 0.02617 0.0
H1253 H 0.57355 0.48198 0.02744 0.0
H1254 H 0.58724 0.50244 -0.00338 0.0
H1255 H 0.58582 0.47501 -0.00508 0.0
H1256 H 0.64167 0.53925 0.91418 0.0
H1257 H 0.63363 0.47135 0.91759 0.0
H1258 H 0.65207 0.5524 -0.01001 0.0
H1259 H 0.62139 0.53971 -0.01054 0.0
H1260 H 0.63828 0.55784 0.95787 0.0
H1261 H 0.6411 0.46676 -0.00842 0.0
H1262 H 0.6208 0.44841 0.9629 0.0
H1263 H 0.61128 0.45822 -0.00442 0.0
C1264 C 0.1416 0.62906 0.92379 0.0
C1265 C 0.12611 0.63336 0.90717 0.0
C1266 C 0.1392 0.62533 0.95572 0.0
C1267 C 0.12127 0.62654 0.97126 0.0
C1268 C 0.1045 0.62894 0.9542 0.0
C1269 C 0.10699 0.63205 0.92219 0.0
C1270 C 0.15683 0.62183 0.97298 0.0
C1271 C 0.08507 0.63028 0.96999 0.0
C1272 C 0.10312 0.61149 0.0542 0.0
C1273 C 0.11327 0.63354 0.06742 0.0
C1274 C 0.10733 0.60858 0.02336 0.0
C1275 C 0.12147 0.62829 0.00532 0.0
C1276 C 0.13331 0.65036 0.01932 0.0
C1277 C 0.12925 0.65268 0.05047 0.0
C1278 C 0.09519 0.58468 0.00957 0.0
C1279 C 0.14856 0.67181 0.00078 0.0
H1280 H 0.15625 0.62976 0.91206 0.0
H1281 H 0.09502 0.63538 0.90938 0.0
H1282 H 0.1696 0.63832 0.98387 0.0
H1283 H 0.14858 0.60885 -0.00837 0.0
H1284 H 0.16623 0.61618 0.95736 0.0
H1285 H 0.07266 0.63062 0.95326 0.0
H1286 H 0.07556 0.61534 0.98569 0.0
H1287 H 0.09226 0.64615 0.98424 0.0
H1288 H 0.09097 0.59662 0.06756 0.0
H1289 H 0.13705 0.66972 0.06074 0.0
H1290 H 0.10665 0.58232 -0.00671 0.0
H1291 H 0.0799 0.5822 -0.00358 0.0
H1292 H 0.08925 0.57111 0.02767 0.0
H1293 H 0.16129 0.66947 -0.01277 0.0
H1294 H 0.15799 0.6873 0.01561 0.0
H1295 H 0.13784 0.67505 0.98416 0.0
C1296 C 0.87916 0.53831 0.54861 0.0
C1297 C 0.86218 0.51808 0.56266 0.0
C1298 C 0.88301 0.53906 0.51674 0.0
C1299 C 0.87001 0.51889 0.49889 0.0
C1300 C 0.85399 0.498 0.51339 0.0
C1301 C 0.84997 0.49794 0.54512 0.0
C1302 C 0.9 0.56175 0.50196 0.0
C1303 C 0.84041 0.476 0.49523 0.0
C1304 C 0.86213 0.52948 0.41506 0.0
C1305 C 0.88045 0.52836 0.4012 0.0
C1306 C 0.85802 0.52563 0.44684 0.0
C1307 C 0.87232 0.52014 0.46485 0.0
C1308 C 0.88985 0.5175 0.45057 0.0
C1309 C 0.89384 0.52185 0.41891 0.0
C1310 C 0.83923 0.52873 0.46138 0.0
C1311 C 0.90504 0.51108 0.46892 0.0
H1312 H 0.88837 0.55393 0.56218 0.0
H1313 H 0.83689 0.48227 0.55615 0.0
H1314 H 0.91289 0.55975 0.48825 0.0
H1315 H 0.89079 0.5673 0.48584 0.0
H1316 H 0.90926 0.57562 0.51925 0.0
H1317 H 0.83078 0.46074 0.51047 0.0
H1318 H 0.82788 0.47752 0.48005 0.0
H1319 H 0.85206 0.47299 0.48015 0.0
H1320 H 0.8518 0.53457 0.40143 0.0
H1321 H 0.90785 0.52069 0.40815 0.0
H1322 H 0.84702 0.54364 0.47742 0.0
H1323 H 0.82749 0.51327 0.47514 0.0
H1324 H 0.82887 0.5318 0.44394 0.0
H1325 H 0.91647 0.5256 0.48426 0.0
H1326 H 0.91598 0.50705 0.45383 0.0
H1327 H 0.8944 0.49592 0.48385 0.0
C1328 C 0.34013 0.84251 0.5486 0.0
C1329 C 0.33595 0.85797 0.56545 0.0
C1330 C 0.3439 0.84511 0.5167 0.0
C1331 C 0.34295 0.86329 0.50136 0.0
C1332 C 0.33994 0.87964 0.5185 0.0
C1333 C 0.33672 0.87691 0.5505 0.0
C1334 C 0.34779 0.82779 0.49929 0.0
C1335 C 0.33876 0.89924 0.50284 0.0
C1336 C 0.36394 0.88356 0.42036 0.0
C1337 C 0.34307 0.87361 0.40408 0.0
C1338 C 0.36444 0.87894 0.45177 0.0
C1339 C 0.34349 0.86449 0.46723 0.0
C1340 C 0.32258 0.85311 0.45039 0.0
C1341 C 0.32267 0.85764 0.41878 0.0
C1342 C 0.38715 0.89076 0.46876 0.0
C1343 C 0.29986 0.83762 0.4662 0.0
H1344 H 0.33977 0.82796 0.56025 0.0
H1345 H 0.33338 0.8888 0.56348 0.0
H1346 H 0.33224 0.81642 0.4855 0.0
H1347 H 0.36241 0.83668 0.48295 0.0
H1348 H 0.35136 0.8168 0.51503 0.0
H1349 H 0.33724 0.91096 0.51963 0.0
H1350 H 0.35436 0.9095 0.48854 0.0
H1351 H 0.32364 0.89217 0.48717 0.0
H1352 H 0.37979 0.89574 0.4088 0.0
H1353 H 0.30654 0.85004 0.40618 0.0
H1354 H 0.3887 0.87852 0.48455 0.0
H1355 H 0.38806 0.90495 0.48305 0.0
H1356 H 0.40207 0.89819 0.45267 0.0
H1357 H 0.30107 0.82451 0.48056 0.0
H1358 H 0.28553 0.82859 0.44946 0.0
H1359 H 0.29557 0.84808 0.48183 0.0
C1360 C 0.45678 0.34773 0.55519 0.0
C1361 C 0.47444 0.34642 0.5707 0.0
C1362 C 0.45747 0.35039 0.52308 0.0
C1363 C 0.47658 0.35238 0.50635 0.0
C1364 C 0.49547 0.35331 0.52227 0.0
C1365 C 0.49404 0.34998 0.55431 0.0
C1366 C 0.43692 0.34922 0.50687 0.0
C1367 C 0.51652 0.35632 0.50535 0.0
C1368 C 0.46048 0.32745 0.42604 0.0
C1369 C 0.46462 0.34698 0.40913 0.0
C1370 C 0.46552 0.32916 0.45765 0.0
C1371 C 0.47548 0.35103 0.47222 0.0
C1372 C 0.48171 0.37107 0.45449 0.0
C1373 C 0.47583 0.36875 0.42317 0.0
C1374 C 0.45847 0.30736 0.47588 0.0
C1375 C 0.49317 0.39475 0.46894 0.0
H1376 H 0.44158 0.34488 0.5678 0.0
H1377 H 0.50784 0.34921 0.56638 0.0
H1378 H 0.4425 0.3642 0.49119 0.0
H1379 H 0.42836 0.33339 0.49253 0.0
H1380 H 0.42405 0.34893 0.52334 0.0
H1381 H 0.53126 0.36115 0.52124 0.0
H1382 H 0.51243 0.33991 0.49383 0.0
H1383 H 0.52185 0.36975 0.48717 0.0
H1384 H 0.45171 0.31063 0.41513 0.0
H1385 H 0.47925 0.3839 0.40987 0.0
H1386 H 0.44432 0.30431 0.49199 0.0
H1387 H 0.47309 0.30913 0.48998 0.0
H1388 H 0.45243 0.292 0.46078 0.0
H1389 H 0.48026 0.39694 0.48231 0.0
H1390 H 0.50081 0.40864 0.45127 0.0
H1391 H 0.50692 0.39687 0.48519 0.0
C1392 C 0.13463 0.49188 0.54748 0.0
C1393 C 0.12014 0.47201 0.56458 0.0
C1394 C 0.13121 0.49296 0.51579 0.0
C1395 C 0.11326 0.47348 0.50091 0.0
C1396 C 0.09764 0.454 0.51847 0.0
C1397 C 0.10112 0.45362 0.55029 0.0
C1398 C 0.14768 0.51434 0.49797 0.0
C1399 C 0.07835 0.43282 0.50333 0.0
C1400 C 0.09388 0.47339 0.419 0.0
C1401 C 0.10535 0.46375 0.40318 0.0
C1402 C 0.09738 0.47806 0.45063 0.0
C1403 C 0.11219 0.47233 0.4668 0.0
C1404 C 0.12468 0.46366 0.45063 0.0
C1405 C 0.12131 0.45974 0.41881 0.0
C1406 C 0.0844 0.48806 0.46694 0.0
C1407 C 0.14051 0.45718 0.46721 0.0
H1408 H 0.14923 0.50622 0.55867 0.0
H1409 H 0.08999 0.43823 0.5635 0.0
H1410 H 0.15969 0.51084 0.48448 0.0
H1411 H 0.13819 0.51922 0.48138 0.0
H1412 H 0.15803 0.52921 0.51348 0.0
H1413 H 0.06676 0.41984 0.52048 0.0
H1414 H 0.06791 0.43762 0.48843 0.0
H1415 H 0.08575 0.42469 0.48833 0.0
H1416 H 0.08171 0.47674 0.40675 0.0
H1417 H 0.13008 0.4522 0.40655 0.0
H1418 H 0.09603 0.50223 0.4826 0.0
H1419 H 0.07051 0.47452 0.48131 0.0
H1420 H 0.07645 0.49479 0.45043 0.0
H1421 H 0.1535 0.472 0.48085 0.0
H1422 H 0.14968 0.4516 0.45106 0.0
H1423 H 0.13036 0.44288 0.48363 0.0
C1424 C 0.61149 0.10396 0.41725 0.0
C1425 C 0.63285 0.11441 0.40205 0.0
C1426 C 0.61003 0.10728 0.44887 0.0
C1427 C 0.6305 0.12101 0.46565 0.0
C1428 C 0.65194 0.13282 0.45004 0.0
C1429 C 0.65283 0.12954 0.41824 0.0
C1430 C 0.5868 0.09498 0.46457 0.0
C1431 C 0.67415 0.14764 0.46725 0.0
C1432 C 0.63279 0.1421 0.54704 0.0
C1433 C 0.63715 0.12671 0.56382 0.0
C1434 C 0.62893 0.13954 0.51517 0.0
C1435 C 0.62994 0.12144 0.4998 0.0
C1436 C 0.63267 0.10489 0.51696 0.0
C1437 C 0.63603 0.10761 0.54895 0.0
C1438 C 0.6253 0.15707 0.49776 0.0
C1439 C 0.63381 0.08531 0.50129 0.0
H1440 H 0.59595 0.09246 0.40461 0.0
H1441 H 0.66935 0.13756 0.40652 0.0
H1442 H 0.58536 0.08028 0.47826 0.0
H1443 H 0.58481 0.10671 0.48076 0.0
H1444 H 0.5724 0.08818 0.44768 0.0
H1445 H 0.68913 0.15675 0.45146 0.0
H1446 H 0.6727 0.16065 0.48146 0.0
H1447 H 0.67758 0.13668 0.4832 0.0
H1448 H 0.63338 0.15675 0.55865 0.0
H1449 H 0.63947 0.09574 0.56187 0.0
H1450 H 0.61116 0.14843 0.48071 0.0
H1451 H 0.6412 0.16883 0.48481 0.0
H1452 H 0.62116 0.16762 0.51348 0.0
H1453 H 0.61872 0.07569 0.48594 0.0
H1454 H 0.63432 0.07301 0.51812 0.0
H1455 H 0.6495 0.09238 0.48667 0.0
C1456 C 0.51058 0.616 0.41313 0.0
C1457 C 0.52035 0.63746 0.39817 0.0
C1458 C 0.50489 0.61391 0.44453 0.0
C1459 C 0.50972 0.63389 0.46144 0.0
C1460 C 0.51845 0.65539 0.44604 0.0
C1461 C 0.5234 0.65685 0.41438 0.0
C1462 C 0.49486 0.59056 0.45988 0.0
C1463 C 0.52402 0.67714 0.46339 0.0
C1464 C 0.48758 0.63343 0.54192 0.0
C1465 C 0.50696 0.63832 0.55984 0.0
C1466 C 0.4876 0.63037 0.50993 0.0
C1467 C 0.50769 0.63286 0.49557 0.0
C1468 C 0.52674 0.63633 0.51382 0.0
C1469 C 0.52602 0.63873 0.54587 0.0
C1470 C 0.46666 0.62585 0.49138 0.0
C1471 C 0.54855 0.63921 0.4993 0.0
H1472 H 0.50805 0.60093 0.40044 0.0
H1473 H 0.5311 0.67346 0.40282 0.0
H1474 H 0.50813 0.59006 0.47468 0.0
H1475 H 0.48017 0.58739 0.47499 0.0
H1476 H 0.48885 0.57636 0.44277 0.0
H1477 H 0.52953 0.69219 0.44777 0.0
H1478 H 0.5088 0.67464 0.47675 0.0
H1479 H 0.53808 0.68119 0.48014 0.0
H1480 H 0.47274 0.63294 0.55277 0.0
H1481 H 0.54108 0.64269 0.55965 0.0
H1482 H 0.46245 0.61206 0.47412 0.0
H1483 H 0.47031 0.6417 0.47856 0.0
H1484 H 0.45134 0.62073 0.50627 0.0
H1485 H 0.54455 0.6245 0.4838 0.0
H1486 H 0.56125 0.64046 0.51681 0.0
H1487 H 0.55665 0.65513 0.48501 0.0
C1488 C 0.51211 0.1237 0.20664 0.0
C1489 C 0.49372 0.10103 0.20385 0.0
C1490 C 0.53316 0.12812 0.21984 0.0
C1491 C 0.53561 0.10944 0.23067 0.0
C1492 C 0.51675 0.08665 0.2289 0.0
C1493 C 0.49613 0.08275 0.21544 0.0
C1494 C 0.55291 0.15262 0.22141 0.0
C1495 C 0.51845 0.06623 0.24067 0.0
C1496 C 0.59155 0.1086 0.23792 0.0
C1497 C 0.59352 0.1083 0.26999 0.0
C1498 C 0.57368 0.11088 0.22446 0.0
C1499 C 0.55777 0.11317 0.24369 0.0
C1500 C 0.56108 0.11489 0.27604 0.0
C1501 C 0.57877 0.11209 0.28884 0.0
C1502 C 0.57062 0.10878 0.18989 0.0
C1503 C 0.54479 0.11769 0.29733 0.0
H1504 H 0.51034 0.13786 0.19756 0.0
H1505 H 0.48185 0.06522 0.2137 0.0
H1506 H 0.56004 0.15672 0.24514 0.0
H1507 H 0.567 0.1546 0.20594 0.0
H1508 H 0.54766 0.16533 0.21442 0.0
H1509 H 0.50203 0.04967 0.23798 0.0
H1510 H 0.53219 0.06497 0.228 0.0
H1511 H 0.52322 0.06858 0.26545 0.0
H1512 H 0.60296 0.10548 0.2235 0.0
H1513 H 0.58046 0.11185 0.31372 0.0
H1514 H 0.56694 0.12213 0.18074 0.0
H1515 H 0.55566 0.09167 0.18415 0.0
H1516 H 0.5861 0.11044 0.17801 0.0
H1517 H 0.54077 0.13081 0.2882 0.0
H1518 H 0.55201 0.12283 0.32095 0.0
H1519 H 0.52833 0.10109 0.29894 0.0
C1520 C 0.48537 0.566 0.27741 0.0
C1521 C 0.49351 0.58889 0.26803 0.0
C1522 C 0.46595 0.54766 0.26364 0.0
C1523 C 0.45452 0.55223 0.23952 0.0
C1524 C 0.46256 0.57528 0.22993 0.0
C1525 C 0.48187 0.59339 0.2445 0.0
C1526 C 0.45774 0.52336 0.27484 0.0
C1527 C 0.45099 0.58074 0.20396 0.0
C1528 C 0.4195 0.50124 0.1868 0.0
C1529 C 0.39709 0.49278 0.19825 0.0
C1530 C 0.43821 0.52115 0.19919 0.0
C1531 C 0.4345 0.53268 0.22398 0.0
C1532 C 0.41186 0.52452 0.23525 0.0
C1533 C 0.39339 0.50476 0.22208 0.0
C1534 C 0.46205 0.52949 0.18627 0.0
C1535 C 0.40727 0.53616 0.26195 0.0
H1536 H 0.49412 0.56238 0.29579 0.0
H1537 H 0.48813 0.61102 0.23706 0.0
H1538 H 0.43938 0.5151 0.28192 0.0
H1539 H 0.45886 0.51285 0.25585 0.0
H1540 H 0.468 0.52284 0.29467 0.0
H1541 H 0.45914 0.59958 0.19955 0.0
H1542 H 0.4518 0.57216 0.18248 0.0
H1543 H 0.4325 0.5739 0.20937 0.0
H1544 H 0.42248 0.49224 0.16817 0.0
H1545 H 0.37614 0.49829 0.23112 0.0
H1546 H 0.47299 0.52762 0.20397 0.0
H1547 H 0.47032 0.54808 0.18026 0.0
H1548 H 0.46176 0.51973 0.16539 0.0
H1549 H 0.4159 0.53465 0.28299 0.0
H1550 H 0.38857 0.52847 0.26685 0.0
H1551 H 0.41461 0.55482 0.25713 0.0
C1552 C 0.90624 0.48178 0.28184 0.0
C1553 C 0.89208 0.49073 0.27284 0.0
C1554 C 0.90414 0.46186 0.26817 0.0
C1555 C 0.88758 0.45062 0.24469 0.0
C1556 C 0.87251 0.45891 0.2364 0.0
C1557 C 0.87487 0.47885 0.2507 0.0
C1558 C 0.92046 0.45351 0.27785 0.0
C1559 C 0.8547 0.44741 0.21136 0.0
C1560 C 0.90564 0.42087 0.186 0.0
C1561 C 0.89315 0.39772 0.19545 0.0
C1562 C 0.90321 0.43802 0.2011 0.0
C1563 C 0.88806 0.43199 0.22658 0.0
C1564 C 0.87495 0.4086 0.23588 0.0
C1565 C 0.87756 0.39167 0.22007 0.0
C1566 C 0.91739 0.46274 0.19027 0.0
C1567 C 0.85877 0.40159 0.26311 0.0
H1568 H 0.91936 0.49061 0.29928 0.0
H1569 H 0.86381 0.4856 0.2437 0.0
H1570 H 0.91077 0.43474 0.2829 0.0
H1571 H 0.93257 0.45624 0.25869 0.0
H1572 H 0.9307 0.46272 0.29855 0.0
H1573 H 0.8426 0.45424 0.21014 0.0
H1574 H 0.86348 0.45032 0.18872 0.0
H1575 H 0.84465 0.4285 0.21519 0.0
H1576 H 0.91748 0.4257 0.16671 0.0
H1577 H 0.86782 0.37381 0.22745 0.0
H1578 H 0.92986 0.47327 0.2085 0.0
H1579 H 0.9061 0.47022 0.18599 0.0
H1580 H 0.92715 0.4643 0.16881 0.0
H1581 H 0.86883 0.40906 0.28454 0.0
H1582 H 0.84846 0.38255 0.26586 0.0
H1583 H 0.84684 0.40851 0.26055 0.0
C1584 C 0.47395 0.87738 0.21773 0.0
C1585 C 0.48571 0.89517 0.19618 0.0
C1586 C 0.45434 0.87488 0.23319 0.0
C1587 C 0.44632 0.89048 0.22679 0.0
C1588 C 0.45774 0.90802 0.20445 0.0
C1589 C 0.47726 0.91018 0.18951 0.0
C1590 C 0.44263 0.85603 0.257 0.0
C1591 C 0.44973 0.925 0.1969 0.0
C1592 C 0.3868 0.8795 0.24954 0.0
C1593 C 0.39212 0.8942 0.27502 0.0
C1594 C 0.40414 0.87729 0.23422 0.0
C1595 C 0.42717 0.88985 0.24496 0.0
C1596 C 0.43237 0.9038 0.27157 0.0
C1597 C 0.41483 0.90591 0.28613 0.0
C1598 C 0.39801 0.86239 0.20578 0.0
C1599 C 0.45665 0.9173 0.28396 0.0
H1600 H 0.48028 0.86566 0.22298 0.0
H1601 H 0.48603 0.92386 0.1727 0.0
H1602 H 0.44467 0.86383 0.28019 0.0
H1603 H 0.42388 0.84575 0.25226 0.0
H1604 H 0.44986 0.84425 0.25759 0.0
H1605 H 0.45959 0.93667 0.17752 0.0
H1606 H 0.43118 0.91567 0.19074 0.0
H1607 H 0.45174 0.93571 0.21747 0.0
H1608 H 0.36927 0.87036 0.24091 0.0
H1609 H 0.41902 0.917 0.30614 0.0
H1610 H 0.40514 0.85057 0.20735 0.0
H1611 H 0.40582 0.87348 0.18518 0.0
H1612 H 0.37908 0.85197 0.20224 0.0
H1613 H 0.46411 0.90585 0.28692 0.0
H1614 H 0.45742 0.9256 0.30646 0.0
H1615 H 0.46769 0.93097 0.26723 0.0
C1616 C 0.56218 0.48002 0.19389 0.0
C1617 C 0.58516 0.48911 0.20328 0.0
C1618 C 0.54432 0.46047 0.2082 0.0
C1619 C 0.54949 0.44989 0.23286 0.0
C1620 C 0.57268 0.45871 0.24218 0.0
C1621 C 0.59029 0.47815 0.2271 0.0
C1622 C 0.51984 0.45143 0.19734 0.0
C1623 C 0.57879 0.44806 0.26867 0.0
C1624 C 0.50018 0.4175 0.28886 0.0
C1625 C 0.49147 0.39452 0.27959 0.0
C1626 C 0.51958 0.43555 0.27457 0.0
C1627 C 0.53038 0.43058 0.25005 0.0
C1628 C 0.52196 0.40741 0.24089 0.0
C1629 C 0.50268 0.38959 0.25596 0.0
C1630 C 0.52819 0.46001 0.28528 0.0
C1631 C 0.53287 0.40151 0.21455 0.0
H1632 H 0.55808 0.48821 0.17523 0.0
H1633 H 0.60801 0.4851 0.23448 0.0
H1634 H 0.51164 0.43275 0.19202 0.0
H1635 H 0.50957 0.4534 0.21595 0.0
H1636 H 0.51892 0.46063 0.1765 0.0
H1637 H 0.59771 0.45618 0.272 0.0
H1638 H 0.57102 0.44996 0.2903 0.0
H1639 H 0.57156 0.42931 0.26471 0.0
H1640 H 0.4918 0.42143 0.30738 0.0
H1641 H 0.49601 0.37188 0.24867 0.0
H1642 H 0.526 0.4701 0.26658 0.0
H1643 H 0.54687 0.46853 0.29066 0.0
H1644 H 0.51888 0.46077 0.30607 0.0
H1645 H 0.53074 0.40906 0.19282 0.0
H1646 H 0.52511 0.38259 0.21141 0.0
H1647 H 0.55164 0.40912 0.21853 0.0
C1648 C 0.07548 0.56941 0.19449 0.0
C1649 C 0.0904 0.59301 0.19985 0.0
C1650 C 0.07849 0.55258 0.20959 0.0
C1651 C 0.09676 0.55941 0.2309 0.0
C1652 C 0.11202 0.58317 0.23639 0.0
C1653 C 0.10872 0.59974 0.22067 0.0
C1654 C 0.06185 0.52741 0.203 0.0
C1655 C 0.13154 0.59103 0.25921 0.0
C1656 C 0.08365 0.5123 0.28896 0.0
C1657 C 0.09512 0.50152 0.27618 0.0
C1658 C 0.08543 0.53221 0.27565 0.0
C1659 C 0.09873 0.5414 0.24857 0.0
C1660 C 0.11136 0.53134 0.23645 0.0
C1661 C 0.10955 0.51154 0.2506 0.0
C1662 C 0.07194 0.54258 0.28956 0.0
C1663 C 0.12558 0.54056 0.20746 0.0
H1664 H 0.06138 0.56396 0.17826 0.0
H1665 H 0.12037 0.61793 0.2249 0.0
H1666 H 0.07143 0.5186 0.19583 0.0
H1667 H 0.05212 0.51872 0.22425 0.0
H1668 H 0.04929 0.52503 0.1846 0.0
H1669 H 0.1425 0.61013 0.25985 0.0
H1670 H 0.12449 0.58483 0.28266 0.0
H1671 H 0.14252 0.58346 0.25333 0.0
H1672 H 0.07279 0.50483 0.3091 0.0
H1673 H 0.11847 0.50327 0.24072 0.0
H1674 H 0.05733 0.53922 0.27417 0.0
H1675 H 0.08295 0.56157 0.29173 0.0
H1676 H 0.06489 0.53525 0.31268 0.0
H1677 H 0.11393 0.53669 0.18737 0.0
H1678 H 0.13663 0.53277 0.2033 0.0
H1679 H 0.13668 0.55958 0.20871 0.0
C1680 C 0.43692 0.8249 0.78185 0.0
C1681 C 0.45968 0.83888 0.77177 0.0
C1682 C 0.4187 0.82609 0.76774 0.0
C1683 C 0.42333 0.84124 0.74249 0.0
C1684 C 0.44628 0.85542 0.7322 0.0
C1685 C 0.46426 0.85426 0.74722 0.0
C1686 C 0.39448 0.81102 0.77974 0.0
C1687 C 0.45177 0.87145 0.70494 0.0
C1688 C 0.37301 0.82488 0.68853 0.0
C1689 C 0.36548 0.84016 0.69764 0.0
C1690 C 0.39226 0.82553 0.70235 0.0
C1691 C 0.40396 0.84155 0.72626 0.0
C1692 C 0.39656 0.85714 0.73545 0.0
C1693 C 0.3775 0.8564 0.72079 0.0
C1694 C 0.39991 0.80891 0.69157 0.0
C1695 C 0.40842 0.87418 0.76125 0.0
H1696 H 0.43335 0.81319 0.80107 0.0
H1697 H 0.48185 0.86503 0.73931 0.0
H1698 H 0.38663 0.82177 0.7855 0.0
H1699 H 0.38363 0.79866 0.76162 0.0
H1700 H 0.39399 0.80109 0.80059 0.0
H1701 H 0.47056 0.88159 0.70015 0.0
H1702 H 0.44289 0.86131 0.68406 0.0
H1703 H 0.44529 0.88359 0.70913 0.0
H1704 H 0.36394 0.81247 0.67038 0.0
H1705 H 0.37169 0.86819 0.72797 0.0
H1706 H 0.39803 0.79698 0.71061 0.0
H1707 H 0.41841 0.81849 0.68507 0.0
H1708 H 0.38977 0.7985 0.67147 0.0
H1709 H 0.407 0.86476 0.78299 0.0
H1710 H 0.40089 0.88551 0.76508 0.0
H1711 H 0.42704 0.88517 0.75609 0.0
C1712 C 0.61667 0.44768 0.75509 0.0
C1713 C 0.61346 0.46078 0.77761 0.0
C1714 C 0.59771 0.42947 0.7403 0.0
C1715 C 0.57512 0.42374 0.74931 0.0
C1716 C 0.57186 0.43679 0.77243 0.0
C1717 C 0.59116 0.45552 0.7859 0.0
C1718 C 0.60185 0.41649 0.71493 0.0
C1719 C 0.54806 0.43068 0.78339 0.0
C1720 C 0.52504 0.38919 0.69522 0.0
C1721 C 0.51712 0.36671 0.70586 0.0
C1722 C 0.54416 0.40794 0.7089 0.0
C1723 C 0.5549 0.40405 0.73455 0.0
C1724 C 0.54649 0.38133 0.74586 0.0
C1725 C 0.52792 0.3628 0.73089 0.0
C1726 C 0.55315 0.43179 0.69551 0.0
C1727 C 0.55701 0.37663 0.77383 0.0
H1728 H 0.63403 0.45195 0.74874 0.0
H1729 H 0.58885 0.46562 0.80364 0.0
H1730 H 0.59481 0.39819 0.72175 0.0
H1731 H 0.5927 0.41664 0.69363 0.0
H1732 H 0.62046 0.42398 0.70952 0.0
H1733 H 0.54857 0.44213 0.8023 0.0
H1734 H 0.53791 0.43192 0.764 0.0
H1735 H 0.53877 0.41257 0.79174 0.0
H1736 H 0.51665 0.39198 0.67559 0.0
H1737 H 0.52157 0.3453 0.73902 0.0
H1738 H 0.5715 0.43916 0.68882 0.0
H1739 H 0.55237 0.44343 0.71308 0.0
H1740 H 0.54321 0.43172 0.67493 0.0
H1741 H 0.57519 0.38163 0.76902 0.0
H1742 H 0.54754 0.35816 0.78074 0.0
H1743 H 0.55708 0.38723 0.79357 0.0
C1744 C 0.13216 0.60275 0.74828 0.0
C1745 C 0.14855 0.61452 0.77138 0.0
C1746 C 0.13137 0.5839 0.73291 0.0
C1747 C 0.14706 0.57643 0.74131 0.0
C1748 C 0.16356 0.58817 0.7647 0.0
C1749 C 0.16425 0.6072 0.77925 0.0
C1750 C 0.11383 0.57205 0.70764 0.0
C1751 C 0.18034 0.58048 0.77459 0.0
C1752 C 0.13197 0.51511 0.72194 0.0
C1753 C 0.14636 0.5187 0.69656 0.0
C1754 C 0.13202 0.53378 0.7368 0.0
C1755 C 0.14641 0.55644 0.72549 0.0
C1756 C 0.16065 0.5601 0.69953 0.0
C1757 C 0.16065 0.5412 0.68559 0.0
C1758 C 0.11696 0.52929 0.76483 0.0
C1759 C 0.17587 0.58398 0.68646 0.0
H1760 H 0.12005 0.60839 0.74203 0.0
H1761 H 0.17682 0.61608 0.7973 0.0
H1762 H 0.12269 0.57241 0.68582 0.0
H1763 H 0.10224 0.55367 0.71372 0.0
H1764 H 0.10317 0.58028 0.70349 0.0
H1765 H 0.19176 0.59118 0.79364 0.0
H1766 H 0.17079 0.56221 0.78231 0.0
H1767 H 0.19126 0.58141 0.75476 0.0
H1768 H 0.12096 0.49774 0.73053 0.0
H1769 H 0.1716 0.54401 0.66572 0.0
H1770 H 0.10489 0.53589 0.76086 0.0
H1771 H 0.12779 0.53869 0.785 0.0
H1772 H 0.10677 0.51064 0.77067 0.0
H1773 H 0.16536 0.5921 0.68073 0.0
H1774 H 0.18518 0.58374 0.66535 0.0
H1775 H 0.18876 0.59506 0.70393 0.0
C1776 C 0.60665 0.16385 0.6873 0.0
C1777 C 0.61456 0.14904 0.69725 0.0
C1778 C 0.58762 0.16351 0.70133 0.0
C1779 C 0.57654 0.14833 0.72635 0.0
C1780 C 0.58446 0.13336 0.73658 0.0
C1781 C 0.60326 0.13371 0.72167 0.0
C1782 C 0.57939 0.17943 0.68942 0.0
C1783 C 0.57331 0.11724 0.76357 0.0
C1784 C 0.54323 0.1651 0.78114 0.0
C1785 C 0.52038 0.15011 0.77216 0.0
C1786 C 0.56163 0.16441 0.76673 0.0
C1787 C 0.55709 0.14867 0.74235 0.0
C1788 C 0.53409 0.13363 0.73295 0.0
C1789 C 0.51596 0.13437 0.74819 0.0
C1790 C 0.58592 0.18047 0.77772 0.0
C1791 C 0.52866 0.11692 0.70663 0.0
H1792 H 0.61514 0.17553 0.66817 0.0
H1793 H 0.60937 0.12228 0.72948 0.0
H1794 H 0.56087 0.16932 0.68318 0.0
H1795 H 0.58107 0.19175 0.70774 0.0
H1796 H 0.58927 0.18943 0.66887 0.0
H1797 H 0.58147 0.10661 0.76855 0.0
H1798 H 0.57456 0.12735 0.7845 0.0
H1799 H 0.55473 0.10554 0.75892 0.0
H1800 H 0.54676 0.17713 0.79988 0.0
H1801 H 0.49833 0.12281 0.7411 0.0
H1802 H 0.59632 0.19215 0.75869 0.0
H1803 H 0.59426 0.17036 0.78458 0.0
H1804 H 0.58643 0.19115 0.79765 0.0
H1805 H 0.53743 0.1265 0.68531 0.0
H1806 H 0.50986 0.1065 0.70203 0.0
H1807 H 0.53529 0.10503 0.71183 0.0
C1808 C 0.37392 0.54962 0.78657 0.0
C1809 C 0.36648 0.52655 0.77914 0.0
C1810 C 0.39282 0.56771 0.77136 0.0
C1811 C 0.40418 0.56257 0.74773 0.0
C1812 C 0.39671 0.53932 0.7401 0.0
C1813 C 0.3781 0.52158 0.75613 0.0
C1814 C 0.40061 0.59231 0.78051 0.0
C1815 C 0.40809 0.53317 0.71463 0.0
C1816 C 0.43705 0.60876 0.68756 0.0
C1817 C 0.45997 0.61701 0.69661 0.0
C1818 C 0.41875 0.59094 0.70391 0.0
C1819 C 0.42346 0.58151 0.73033 0.0
C1820 C 0.44654 0.58995 0.73981 0.0
C1821 C 0.46457 0.60744 0.7226 0.0
C1822 C 0.39438 0.58205 0.69272 0.0
C1823 C 0.45218 0.58059 0.76822 0.0
H1824 H 0.36512 0.55353 0.80453 0.0
H1825 H 0.37233 0.50377 0.75015 0.0
H1826 H 0.41915 0.60132 0.78678 0.0
H1827 H 0.39868 0.60176 0.76071 0.0
H1828 H 0.39063 0.59334 0.80032 0.0
H1829 H 0.40024 0.51422 0.71164 0.0
H1830 H 0.40669 0.54076 0.69249 0.0
H1831 H 0.42672 0.54056 0.71958 0.0
H1832 H 0.43343 0.61599 0.66735 0.0
H1833 H 0.48226 0.61392 0.72981 0.0
H1834 H 0.38403 0.58434 0.71091 0.0
H1835 H 0.38608 0.56329 0.68787 0.0
H1836 H 0.39369 0.59101 0.67147 0.0
H1837 H 0.44326 0.58254 0.7886 0.0
H1838 H 0.47099 0.58949 0.77298 0.0
H1839 H 0.44585 0.56189 0.7654 0.0
C1840 C 0.85191 0.37963 0.74389 0.0
C1841 C 0.83545 0.36821 0.76709 0.0
C1842 C 0.853 0.39849 0.72808 0.0
C1843 C 0.83757 0.40635 0.73616 0.0
C1844 C 0.82103 0.39498 0.7597 0.0
C1845 C 0.82002 0.37589 0.77466 0.0
C1846 C 0.87054 0.40993 0.70265 0.0
C1847 C 0.80455 0.40311 0.7693 0.0
C1848 C 0.85297 0.46777 0.71671 0.0
C1849 C 0.8383 0.46428 0.69169 0.0
C1850 C 0.85311 0.44906 0.73123 0.0
C1851 C 0.83859 0.42644 0.72002 0.0
C1852 C 0.82427 0.4229 0.69418 0.0
C1853 C 0.82412 0.44185 0.68053 0.0
C1854 C 0.86832 0.45343 0.75907 0.0
C1855 C 0.8089 0.39907 0.6812 0.0
H1856 H 0.86379 0.37366 0.73786 0.0
H1857 H 0.8074 0.36726 0.79278 0.0
H1858 H 0.86171 0.40954 0.68079 0.0
H1859 H 0.88236 0.42832 0.70837 0.0
H1860 H 0.88096 0.40141 0.69876 0.0
H1861 H 0.79308 0.39267 0.78851 0.0
H1862 H 0.81436 0.42142 0.77669 0.0
H1863 H 0.79369 0.40221 0.74942 0.0
H1864 H 0.8639 0.48507 0.72548 0.0
H1865 H 0.81294 0.43911 0.66095 0.0
H1866 H 0.87992 0.44626 0.75525 0.0
H1867 H 0.85751 0.44449 0.7795 0.0
H1868 H 0.87901 0.47211 0.76442 0.0
H1869 H 0.81918 0.39061 0.67603 0.0
H1870 H 0.79994 0.39945 0.6598 0.0
H1871 H 0.79571 0.38821 0.69854 0.0
loop_
_geom_bond_atom_site_label_1
_geom_bond_atom_site_label_2
_geom_bond_distance
_geom_bond_site_symmetry_2
_ccdc_geom_bond_type
Mg0 O1 2.028 . S
Mg0 O7 1.986 . S
Mg0 O9 2.114 . S
Mg0 O10 2.251 . S
Mg0 O13 2.010 . S
O1 Mg0 2.028 . S
O1 C4 1.250 . S
O2 Mg3 2.028 . S
O2 C4 1.248 . S
Mg3 O2 2.028 . S
Mg3 O8 2.032 . S
Mg3 O10 2.079 . S
C4 O1 1.250 . S
C4 O2 1.248 . S
C5 O6 1.264 . S
C5 O13 1.249 . S
O6 C5 1.264 . S
O7 Mg0 1.986 . S
O7 C11 1.246 . S
O8 Mg3 2.032 . S
O8 C11 1.259 . S
O9 Mg0 2.114 . S
O9 C12 1.252 . S
O10 Mg0 2.251 . S
O10 Mg3 2.079 . S
O10 C12 1.273 . S
C11 O7 1.246 . S
C11 O8 1.259 . S
C12 O9 1.252 . S
C12 O10 1.273 . S
O13 Mg0 2.010 . S
O13 C5 1.249 . S
Mg14 O15 2.028 . S
Mg14 O21 1.986 . S
Mg14 O23 2.114 . S
Mg14 O24 2.251 . S
Mg14 O27 2.010 . S
O15 Mg14 2.028 . S
O15 C18 1.250 . S
O16 Mg17 2.028 . S
O16 C18 1.248 . S
Mg17 O16 2.028 . S
Mg17 O22 2.032 . S
Mg17 O24 2.079 . S
C18 O15 1.250 . S
C18 O16 1.248 . S
C19 O20 1.264 . S
C19 O27 1.249 . S
O20 C19 1.264 . S
O21 Mg14 1.986 . S
O21 C25 1.246 . S
O22 Mg17 2.032 . S
O22 C25 1.259 . S
O23 Mg14 2.114 . S
O23 C26 1.252 . S
O24 Mg14 2.251 . S
O24 Mg17 2.079 . S
O24 C26 1.273 . S
C25 O21 1.246 . S
C25 O22 1.259 . S
C26 O23 1.252 . S
C26 O24 1.273 . S
O27 Mg14 2.010 . S
O27 C19 1.249 . S
Mg28 O29 2.028 . S
Mg28 O35 1.986 . S
Mg28 O37 2.114 . S
Mg28 O38 2.251 . S
Mg28 O41 2.010 . S
O29 Mg28 2.028 . S
O29 C32 1.250 . S
O30 Mg31 2.028 . S
O30 C32 1.248 . S
Mg31 O30 2.028 . S
Mg31 O36 2.032 . S
Mg31 O38 2.079 . S
C32 O29 1.250 . S
C32 O30 1.248 . S
C33 O34 1.264 . S
C33 O41 1.249 . S
O34 C33 1.264 . S
O35 Mg28 1.986 . S
O35 C39 1.246 . S
O36 Mg31 2.032 . S
O36 C39 1.259 . S
O37 Mg28 2.114 . S
O37 C40 1.252 . S
O38 Mg28 2.251 . S
O38 Mg31 2.079 . S
O38 C40 1.273 . S
C39 O35 1.246 . S
C39 O36 1.259 . S
C40 O37 1.252 . S
C40 O38 1.273 . S
O41 Mg28 2.010 . S
O41 C33 1.249 . S
Mg42 O43 2.028 . S
Mg42 O49 1.986 . S
Mg42 O51 2.114 . S
Mg42 O52 2.251 . S
Mg42 O55 2.010 . S
O43 Mg42 2.028 . S
O43 C46 1.250 . S
O44 Mg45 2.028 . S
O44 C46 1.248 . S
Mg45 O44 2.028 . S
Mg45 O50 2.032 . S
Mg45 O52 2.079 . S
C46 O43 1.250 . S
C46 O44 1.248 . S
C47 O48 1.264 . S
C47 O55 1.249 . S
O48 C47 1.264 . S
O49 Mg42 1.986 . S
O49 C53 1.246 . S
O50 Mg45 2.032 . S
O50 C53 1.259 . S
O51 Mg42 2.114 . S
O51 C54 1.252 . S
O52 Mg42 2.251 . S
O52 Mg45 2.079 . S
O52 C54 1.273 . S
C53 O49 1.246 . S
C53 O50 1.259 . S
C54 O51 1.252 . S
C54 O52 1.273 . S
O55 Mg42 2.010 . S
O55 C47 1.249 . S
Mg56 O57 2.028 . S
Mg56 O63 1.986 . S
Mg56 O65 2.114 . S
Mg56 O66 2.251 . S
Mg56 O69 2.010 . S
O57 Mg56 2.028 . S
O57 C60 1.250 . S
O58 Mg59 2.028 . S
O58 C60 1.248 . S
Mg59 O58 2.028 . S
Mg59 O64 2.032 . S
Mg59 O66 2.079 . S
C60 O57 1.250 . S
C60 O58 1.248 . S
C61 O62 1.264 . S
C61 O69 1.249 . S
O62 C61 1.264 . S
O63 Mg56 1.986 . S
O63 C67 1.246 . S
O64 Mg59 2.032 . S
O64 C67 1.259 . S
O65 Mg56 2.114 . S
O65 C68 1.252 . S
O66 Mg56 2.251 . S
O66 Mg59 2.079 . S
O66 C68 1.273 . S
C67 O63 1.246 . S
C67 O64 1.259 . S
C68 O65 1.252 . S
C68 O66 1.273 . S
O69 Mg56 2.010 . S
O69 C61 1.249 . S
Mg70 O71 2.028 . S
Mg70 O77 1.986 . S
Mg70 O79 2.114 . S
Mg70 O80 2.251 . S
Mg70 O83 2.010 . S
O71 Mg70 2.028 . S
O71 C74 1.250 . S
O72 Mg73 2.028 . S
O72 C74 1.248 . S
Mg73 O72 2.028 . S
Mg73 O78 2.032 . S
Mg73 O80 2.079 . S
C74 O71 1.250 . S
C74 O72 1.248 . S
C75 O76 1.264 . S
C75 O83 1.249 . S
O76 C75 1.264 . S
O77 Mg70 1.986 . S
O77 C81 1.246 . S
O78 Mg73 2.032 . S
O78 C81 1.259 . S
O79 Mg70 2.114 . S
O79 C82 1.252 . S
O80 Mg70 2.251 . S
O80 Mg73 2.079 . S
O80 C82 1.273 . S
C81 O77 1.246 . S
C81 O78 1.259 . S
C82 O79 1.252 . S
C82 O80 1.273 . S
O83 Mg70 2.010 . S
O83 C75 1.249 . S
Mg84 O85 2.028 . S
Mg84 O91 1.986 . S
Mg84 O93 2.114 . S
Mg84 O94 2.251 . S
Mg84 O97 2.010 . S
O85 Mg84 2.028 . S
O85 C88 1.250 . S
O86 Mg87 2.028 . S
O86 C88 1.248 . S
Mg87 O86 2.028 . S
Mg87 O92 2.032 . S
Mg87 O94 2.079 . S
C88 O85 1.250 . S
C88 O86 1.248 . S
C89 O90 1.264 . S
C89 O97 1.249 . S
O90 C89 1.264 . S
O91 Mg84 1.986 . S
O91 C95 1.246 . S
O92 Mg87 2.032 . S
O92 C95 1.259 . S
O93 Mg84 2.114 . S
O93 C96 1.252 . S
O94 Mg84 2.251 . S
O94 Mg87 2.079 . S
O94 C96 1.273 . S
C95 O91 1.246 . S
C95 O92 1.259 . S
C96 O93 1.252 . S
C96 O94 1.273 . S
O97 Mg84 2.010 . S
O97 C89 1.249 . S
Mg98 O99 2.028 . S
Mg98 O105 1.986 . S
Mg98 O107 2.114 . S
Mg98 O108 2.251 . S
Mg98 O111 2.010 . S
O99 Mg98 2.028 . S
O99 C102 1.250 . S
O100 Mg101 2.028 . S
O100 C102 1.248 . S
Mg101 O100 2.028 . S
Mg101 O106 2.032 . S
Mg101 O108 2.079 . S
C102 O99 1.250 . S
C102 O100 1.248 . S
C103 O104 1.264 . S
C103 O111 1.249 . S
O104 C103 1.264 . S
O105 Mg98 1.986 . S
O105 C109 1.246 . S
O106 Mg101 2.032 . S
O106 C109 1.259 . S
O107 Mg98 2.114 . S
O107 C110 1.252 . S
O108 Mg98 2.251 . S
O108 Mg101 2.079 . S
O108 C110 1.273 . S
C109 O105 1.246 . S
C109 O106 1.259 . S
C110 O107 1.252 . S
C110 O108 1.273 . S
O111 Mg98 2.010 . S
O111 C103 1.249 . S
Mg112 O113 2.028 . S
Mg112 O119 1.986 . S
Mg112 O121 2.114 . S
Mg112 O122 2.251 . S
Mg112 O125 2.010 . S
O113 Mg112 2.028 . S
O113 C116 1.250 . S
O114 Mg115 2.028 . S
O114 C116 1.248 . S
Mg115 O114 2.028 . S
Mg115 O120 2.032 . S
Mg115 O122 2.079 . S
C116 O113 1.250 . S
C116 O114 1.248 . S
C117 O118 1.264 . S
C117 O125 1.249 . S
O118 C117 1.264 . S
O119 Mg112 1.986 . S
O119 C123 1.246 . S
O120 Mg115 2.032 . S
O120 C123 1.259 . S
O121 Mg112 2.114 . S
O121 C124 1.252 . S
O122 Mg112 2.251 . S
O122 Mg115 2.079 . S
O122 C124 1.273 . S
C123 O119 1.246 . S
C123 O120 1.259 . S
C124 O121 1.252 . S
C124 O122 1.273 . S
O125 Mg112 2.010 . S
O125 C117 1.249 . S
Mg126 O127 2.028 . S
Mg126 O133 1.986 . S
Mg126 O135 2.114 . S
Mg126 O136 2.251 . S
Mg126 O139 2.010 . S
O127 Mg126 2.028 . S
O127 C130 1.250 . S
O128 Mg129 2.028 . S
O128 C130 1.248 . S
Mg129 O128 2.028 . S
Mg129 O134 2.032 . S
Mg129 O136 2.079 . S
C130 O127 1.250 . S
C130 O128 1.248 . S
C131 O132 1.264 . S
C131 O139 1.249 . S
O132 C131 1.264 . S
O133 Mg126 1.986 . S
O133 C137 1.246 . S
O134 Mg129 2.032 . S
O134 C137 1.259 . S
O135 Mg126 2.114 . S
O135 C138 1.252 . S
O136 Mg126 2.251 . S
O136 Mg129 2.079 . S
O136 C138 1.273 . S
C137 O133 1.246 . S
C137 O134 1.259 . S
C138 O135 1.252 . S
C138 O136 1.273 . S
O139 Mg126 2.010 . S
O139 C131 1.249 . S
Mg140 O141 2.028 . S
Mg140 O147 1.986 . S
Mg140 O149 2.114 . S
Mg140 O150 2.251 . S
Mg140 O153 2.010 . S
O141 Mg140 2.028 . S
O141 C144 1.250 . S
O142 Mg143 2.028 . S
O142 C144 1.248 . S
Mg143 O142 2.028 . S
Mg143 O148 2.032 . S
Mg143 O150 2.079 . S
C144 O141 1.250 . S
C144 O142 1.248 . S
C145 O146 1.264 . S
C145 O153 1.249 . S
O146 C145 1.264 . S
O147 Mg140 1.986 . S
O147 C151 1.246 . S
O148 Mg143 2.032 . S
O148 C151 1.259 . S
O149 Mg140 2.114 . S
O149 C152 1.252 . S
O150 Mg140 2.251 . S
O150 Mg143 2.079 . S
O150 C152 1.273 . S
C151 O147 1.246 . S
C151 O148 1.259 . S
C152 O149 1.252 . S
C152 O150 1.273 . S
O153 Mg140 2.010 . S
O153 C145 1.249 . S
Mg154 O155 2.028 . S
Mg154 O161 1.986 . S
Mg154 O163 2.114 . S
Mg154 O164 2.251 . S
Mg154 O167 2.010 . S
O155 Mg154 2.028 . S
O155 C158 1.250 . S
O156 Mg157 2.028 . S
O156 C158 1.248 . S
Mg157 O156 2.028 . S
Mg157 O162 2.032 . S
Mg157 O164 2.079 . S
C158 O155 1.250 . S
C158 O156 1.248 . S
C159 O160 1.264 . S
C159 O167 1.249 . S
O160 C159 1.264 . S
O161 Mg154 1.986 . S
O161 C165 1.246 . S
O162 Mg157 2.032 . S
O162 C165 1.259 . S
O163 Mg154 2.114 . S
O163 C166 1.252 . S
O164 Mg154 2.251 . S
O164 Mg157 2.079 . S
O164 C166 1.273 . S
C165 O161 1.246 . S
C165 O162 1.259 . S
C166 O163 1.252 . S
C166 O164 1.273 . S
O167 Mg154 2.010 . S
O167 C159 1.249 . S
Mg168 O169 2.028 . S
Mg168 O175 1.986 . S
Mg168 O177 2.114 . S
Mg168 O178 2.251 . S
Mg168 O181 2.010 . S
O169 Mg168 2.028 . S
O169 C172 1.250 . S
O170 Mg171 2.028 . S
O170 C172 1.248 . S
Mg171 O170 2.028 . S
Mg171 O176 2.032 . S
Mg171 O178 2.079 . S
C172 O169 1.250 . S
C172 O170 1.248 . S
C173 O174 1.264 . S
C173 O181 1.249 . S
O174 C173 1.264 . S
O175 Mg168 1.986 . S
O175 C179 1.246 . S
O176 Mg171 2.032 . S
O176 C179 1.259 . S
O177 Mg168 2.114 . S
O177 C180 1.252 . S
O178 Mg168 2.251 . S
O178 Mg171 2.079 . S
O178 C180 1.273 . S
C179 O175 1.246 . S
C179 O176 1.259 . S
C180 O177 1.252 . S
C180 O178 1.273 . S
O181 Mg168 2.010 . S
O181 C173 1.249 . S
Mg182 O183 2.028 . S
Mg182 O189 1.986 . S
Mg182 O191 2.114 . S
Mg182 O192 2.251 . S
Mg182 O195 2.010 . S
O183 Mg182 2.028 . S
O183 C186 1.250 . S
O184 Mg185 2.028 . S
O184 C186 1.248 . S
Mg185 O184 2.028 . S
Mg185 O190 2.032 . S
Mg185 O192 2.079 . S
C186 O183 1.250 . S
C186 O184 1.248 . S
C187 O188 1.264 . S
C187 O195 1.249 . S
O188 C187 1.264 . S
O189 Mg182 1.986 . S
O189 C193 1.246 . S
O190 Mg185 2.032 . S
O190 C193 1.259 . S
O191 Mg182 2.114 . S
O191 C194 1.252 . S
O192 Mg182 2.251 . S
O192 Mg185 2.079 . S
O192 C194 1.273 . S
C193 O189 1.246 . S
C193 O190 1.259 . S
C194 O191 1.252 . S
C194 O192 1.273 . S
O195 Mg182 2.010 . S
O195 C187 1.249 . S
Mg196 O197 2.028 . S
Mg196 O203 1.986 . S
Mg196 O205 2.114 . S
Mg196 O206 2.251 . S
Mg196 O209 2.010 . S
O197 Mg196 2.028 . S
O197 C200 1.250 . S
O198 Mg199 2.028 . S
O198 C200 1.248 . S
Mg199 O198 2.028 . S
Mg199 O204 2.032 . S
Mg199 O206 2.079 . S
C200 O197 1.250 . S
C200 O198 1.248 . S
C201 O202 1.264 . S
C201 O209 1.249 . S
O202 C201 1.264 . S
O203 Mg196 1.986 . S
O203 C207 1.246 . S
O204 Mg199 2.032 . S
O204 C207 1.259 . S
O205 Mg196 2.114 . S
O205 C208 1.252 . S
O206 Mg196 2.251 . S
O206 Mg199 2.079 . S
O206 C208 1.273 . S
C207 O203 1.246 . S
C207 O204 1.259 . S
C208 O205 1.252 . S
C208 O206 1.273 . S
O209 Mg196 2.010 . S
O209 C201 1.249 . S
Mg210 O211 2.028 . S
Mg210 O217 1.986 . S
Mg210 O219 2.114 . S
Mg210 O220 2.251 . S
Mg210 O223 2.010 . S
O211 Mg210 2.028 . S
O211 C214 1.250 . S
O212 Mg213 2.028 . S
O212 C214 1.248 . S
Mg213 O212 2.028 . S
Mg213 O218 2.032 . S
Mg213 O220 2.079 . S
C214 O211 1.250 . S
C214 O212 1.248 . S
C215 O216 1.264 . S
C215 O223 1.249 . S
O216 C215 1.264 . S
O217 Mg210 1.986 . S
O217 C221 1.246 . S
O218 Mg213 2.032 . S
O218 C221 1.259 . S
O219 Mg210 2.114 . S
O219 C222 1.252 . S
O220 Mg210 2.251 . S
O220 Mg213 2.079 . S
O220 C222 1.273 . S
C221 O217 1.246 . S
C221 O218 1.259 . S
C222 O219 1.252 . S
C222 O220 1.273 . S
O223 Mg210 2.010 . S
O223 C215 1.249 . S
Mg224 O225 2.028 . S
Mg224 O231 1.986 . S
Mg224 O233 2.114 . S
Mg224 O234 2.251 . S
Mg224 O237 2.010 . S
O225 Mg224 2.028 . S
O225 C228 1.250 . S
O226 Mg227 2.028 . S
O226 C228 1.248 . S
Mg227 O226 2.028 . S
Mg227 O232 2.032 . S
Mg227 O234 2.079 . S
C228 O225 1.250 . S
C228 O226 1.248 . S
C229 O230 1.264 . S
C229 O237 1.249 . S
O230 C229 1.264 . S
O231 Mg224 1.986 . S
O231 C235 1.246 . S
O232 Mg227 2.032 . S
O232 C235 1.259 . S
O233 Mg224 2.114 . S
O233 C236 1.252 . S
O234 Mg224 2.251 . S
O234 Mg227 2.079 . S
O234 C236 1.273 . S
C235 O231 1.246 . S
C235 O232 1.259 . S
C236 O233 1.252 . S
C236 O234 1.273 . S
O237 Mg224 2.010 . S
O237 C229 1.249 . S
Mg238 O239 2.028 . S
Mg238 O245 1.986 . S
Mg238 O247 2.114 . S
Mg238 O248 2.251 . S
Mg238 O251 2.010 . S
O239 Mg238 2.028 . S
O239 C242 1.250 . S
O240 Mg241 2.028 . S
O240 C242 1.248 . S
Mg241 O240 2.028 . S
Mg241 O246 2.032 . S
Mg241 O248 2.079 . S
C242 O239 1.250 . S
C242 O240 1.248 . S
C243 O244 1.264 . S
C243 O251 1.249 . S
O244 C243 1.264 . S
O245 Mg238 1.986 . S
O245 C249 1.246 . S
O246 Mg241 2.032 . S
O246 C249 1.259 . S
O247 Mg238 2.114 . S
O247 C250 1.252 . S
O248 Mg238 2.251 . S
O248 Mg241 2.079 . S
O248 C250 1.273 . S
C249 O245 1.246 . S
C249 O246 1.259 . S
C250 O247 1.252 . S
C250 O248 1.273 . S
O251 Mg238 2.010 . S
O251 C243 1.249 . S
Mg252 O253 2.028 . S
Mg252 O259 1.986 . S
Mg252 O261 2.114 . S
Mg252 O262 2.251 . S
Mg252 O265 2.010 . S
O253 Mg252 2.028 . S
O253 C256 1.250 . S
O254 Mg255 2.028 . S
O254 C256 1.248 . S
Mg255 O254 2.028 . S
Mg255 O260 2.032 . S
Mg255 O262 2.079 . S
C256 O253 1.250 . S
C256 O254 1.248 . S
C257 O258 1.264 . S
C257 O265 1.249 . S
O258 C257 1.264 . S
O259 Mg252 1.986 . S
O259 C263 1.246 . S
O260 Mg255 2.032 . S
O260 C263 1.259 . S
O261 Mg252 2.114 . S
O261 C264 1.252 . S
O262 Mg252 2.251 . S
O262 Mg255 2.079 . S
O262 C264 1.273 . S
C263 O259 1.246 . S
C263 O260 1.259 . S
C264 O261 1.252 . S
C264 O262 1.273 . S
O265 Mg252 2.010 . S
O265 C257 1.249 . S
Mg266 O267 2.028 . S
Mg266 O273 1.986 . S
Mg266 O275 2.114 . S
Mg266 O276 2.251 . S
Mg266 O279 2.010 . S
O267 Mg266 2.028 . S
O267 C270 1.250 . S
O268 Mg269 2.028 . S
O268 C270 1.248 . S
Mg269 O268 2.028 . S
Mg269 O274 2.032 . S
Mg269 O276 2.079 . S
C270 O267 1.250 . S
C270 O268 1.248 . S
C271 O272 1.264 . S
C271 O279 1.249 . S
O272 C271 1.264 . S
O273 Mg266 1.986 . S
O273 C277 1.246 . S
O274 Mg269 2.032 . S
O274 C277 1.259 . S
O275 Mg266 2.114 . S
O275 C278 1.252 . S
O276 Mg266 2.251 . S
O276 Mg269 2.079 . S
O276 C278 1.273 . S
C277 O273 1.246 . S
C277 O274 1.259 . S
C278 O275 1.252 . S
C278 O276 1.273 . S
O279 Mg266 2.010 . S
O279 C271 1.249 . S
Mg280 O281 2.028 . S
Mg280 O287 1.986 . S
Mg280 O289 2.114 . S
Mg280 O290 2.251 . S
Mg280 O293 2.010 . S
O281 Mg280 2.028 . S
O281 C284 1.250 . S
O282 Mg283 2.028 . S
O282 C284 1.248 . S
Mg283 O282 2.028 . S
Mg283 O288 2.032 . S
Mg283 O290 2.079 . S
C284 O281 1.250 . S
C284 O282 1.248 . S
C285 O286 1.264 . S
C285 O293 1.249 . S
O286 C285 1.264 . S
O287 Mg280 1.986 . S
O287 C291 1.246 . S
O288 Mg283 2.032 . S
O288 C291 1.259 . S
O289 Mg280 2.114 . S
O289 C292 1.252 . S
O290 Mg280 2.251 . S
O290 Mg283 2.079 . S
O290 C292 1.273 . S
C291 O287 1.246 . S
C291 O288 1.259 . S
C292 O289 1.252 . S
C292 O290 1.273 . S
O293 Mg280 2.010 . S
O293 C285 1.249 . S
Mg294 O295 2.028 . S
Mg294 O301 1.986 . S
Mg294 O303 2.114 . S
Mg294 O304 2.251 . S
Mg294 O307 2.010 . S
O295 Mg294 2.028 . S
O295 C298 1.250 . S
O296 Mg297 2.028 . S
O296 C298 1.248 . S
Mg297 O296 2.028 . S
Mg297 O302 2.032 . S
Mg297 O304 2.079 . S
C298 O295 1.250 . S
C298 O296 1.248 . S
C299 O300 1.264 . S
C299 O307 1.249 . S
O300 C299 1.264 . S
O301 Mg294 1.986 . S
O301 C305 1.246 . S
O302 Mg297 2.032 . S
O302 C305 1.259 . S
O303 Mg294 2.114 . S
O303 C306 1.252 . S
O304 Mg294 2.251 . S
O304 Mg297 2.079 . S
O304 C306 1.273 . S
C305 O301 1.246 . S
C305 O302 1.259 . S
C306 O303 1.252 . S
C306 O304 1.273 . S
O307 Mg294 2.010 . S
O307 C299 1.249 . S
Mg308 O309 2.028 . S
Mg308 O315 1.986 . S
Mg308 O317 2.114 . S
Mg308 O318 2.251 . S
Mg308 O321 2.010 . S
O309 Mg308 2.028 . S
O309 C312 1.250 . S
O310 Mg311 2.028 . S
O310 C312 1.248 . S
Mg311 O310 2.028 . S
Mg311 O316 2.032 . S
Mg311 O318 2.079 . S
C312 O309 1.250 . S
C312 O310 1.248 . S
C313 O314 1.264 . S
C313 O321 1.249 . S
O314 C313 1.264 . S
O315 Mg308 1.986 . S
O315 C319 1.246 . S
O316 Mg311 2.032 . S
O316 C319 1.259 . S
O317 Mg308 2.114 . S
O317 C320 1.252 . S
O318 Mg308 2.251 . S
O318 Mg311 2.079 . S
O318 C320 1.273 . S
C319 O315 1.246 . S
C319 O316 1.259 . S
C320 O317 1.252 . S
C320 O318 1.273 . S
O321 Mg308 2.010 . S
O321 C313 1.249 . S
Mg322 O323 2.028 . S
Mg322 O329 1.986 . S
Mg322 O331 2.114 . S
Mg322 O332 2.251 . S
Mg322 O335 2.010 . S
O323 Mg322 2.028 . S
O323 C326 1.250 . S
O324 Mg325 2.028 . S
O324 C326 1.248 . S
Mg325 O324 2.028 . S
Mg325 O330 2.032 . S
Mg325 O332 2.079 . S
C326 O323 1.250 . S
C326 O324 1.248 . S
C327 O328 1.264 . S
C327 O335 1.249 . S
O328 C327 1.264 . S
O329 Mg322 1.986 . S
O329 C333 1.246 . S
O330 Mg325 2.032 . S
O330 C333 1.259 . S
O331 Mg322 2.114 . S
O331 C334 1.252 . S
O332 Mg322 2.251 . S
O332 Mg325 2.079 . S
O332 C334 1.273 . S
C333 O329 1.246 . S
C333 O330 1.259 . S
C334 O331 1.252 . S
C334 O332 1.273 . S
O335 Mg322 2.010 . S
O335 C327 1.249 . S
C336 C337 1.391 . S
C336 C338 1.394 . S
C336 H352 0.931 . S
C337 C336 1.391 . S
C337 C341 1.376 . S
C338 C336 1.394 . S
C338 C339 1.369 . S
C338 C342 1.531 . S
C339 C338 1.369 . S
C339 C340 1.410 . S
C339 C347 1.503 1_545 S
C340 C339 1.410 . S
C340 C341 1.392 . S
C340 C343 1.511 . S
C341 C337 1.376 . S
C341 C340 1.392 . S
C341 H353 0.929 . S
C342 C338 1.531 . S
C342 H354 0.960 1_545 S
C342 H355 0.962 . S
C342 H356 0.960 . S
C343 C340 1.511 . S
C343 H357 0.961 . S
C343 H358 0.961 1_545 S
C343 H359 0.961 1_545 S
C344 C345 1.370 . S
C344 C346 1.363 . S
C344 H360 0.931 . S
C345 C344 1.370 . S
C345 C349 1.408 . S
C346 C344 1.363 . S
C346 C347 1.370 . S
C346 C350 1.524 1_565 S
C347 C339 1.503 1_565 S
C347 C346 1.370 . S
C347 C348 1.403 . S
C348 C347 1.403 . S
C348 C349 1.404 . S
C348 C351 1.539 . S
C349 C345 1.408 . S
C349 C348 1.404 . S
C349 H361 0.930 . S
C350 C346 1.524 1_545 S
C350 H362 0.956 . S
C350 H363 0.961 . S
C350 H364 0.954 1_545 S
C351 C348 1.539 . S
C351 H365 0.958 . S
C351 H366 0.961 . S
C351 H367 0.960 . S
H352 C336 0.931 . S
H353 C341 0.929 . S
H354 C342 0.960 1_565 S
H355 C342 0.962 . S
H356 C342 0.960 . S
H357 C343 0.961 . S
H358 C343 0.961 1_565 S
H359 C343 0.961 1_565 S
H360 C344 0.931 . S
H361 C349 0.930 . S
H362 C350 0.956 . S
H363 C350 0.961 . S
H364 C350 0.954 1_565 S
H365 C351 0.958 . S
H366 C351 0.961 . S
H367 C351 0.960 . S
C368 C369 1.391 . S
C368 C370 1.394 . S
C368 H384 0.931 . S
C369 C368 1.391 . S
C369 C373 1.376 . S
C370 C368 1.394 . S
C370 C371 1.369 . S
C370 C374 1.531 . S
C371 C370 1.369 . S
C371 C372 1.410 . S
C371 C379 1.503 . S
C372 C371 1.410 . S
C372 C373 1.392 . S
C372 C375 1.511 . S
C373 C369 1.376 . S
C373 C372 1.392 . S
C373 H385 0.929 . S
C374 C370 1.531 . S
C374 H386 0.960 . S
C374 H387 0.962 . S
C374 H388 0.960 . S
C375 C372 1.511 . S
C375 H389 0.961 . S
C375 H390 0.961 . S
C375 H391 0.961 . S
C376 C377 1.370 . S
C376 C378 1.363 . S
C376 H392 0.931 . S
C377 C376 1.370 . S
C377 C381 1.408 . S
C378 C376 1.363 . S
C378 C379 1.370 . S
C378 C382 1.524 . S
C379 C371 1.503 . S
C379 C378 1.370 . S
C379 C380 1.403 . S
C380 C379 1.403 . S
C380 C381 1.404 . S
C380 C383 1.539 . S
C381 C377 1.408 . S
C381 C380 1.404 . S
C381 H393 0.930 . S
C382 C378 1.524 . S
C382 H394 0.956 . S
C382 H395 0.961 . S
C382 H396 0.961 . S
C383 C380 1.539 . S
C383 H397 0.958 . S
C383 H398 0.961 . S
C383 H399 0.960 . S
H384 C368 0.931 . S
H385 C373 0.929 . S
H386 C374 0.960 . S
H387 C374 0.962 . S
H388 C374 0.960 . S
H389 C375 0.961 . S
H390 C375 0.961 . S
H391 C375 0.961 . S
H392 C376 0.931 . S
H393 C381 0.930 . S
H394 C382 0.956 . S
H395 C382 0.961 . S
H396 C382 0.961 . S
H397 C383 0.958 . S
H398 C383 0.961 . S
H399 C383 0.960 . S
C400 C401 1.391 . S
C400 C402 1.394 . S
C400 H416 0.931 . S
C401 C400 1.391 . S
C401 C405 1.376 . S
C402 C400 1.394 . S
C402 C403 1.369 . S
C402 C406 1.531 1_655 S
C403 C402 1.369 . S
C403 C404 1.410 . S
C403 C411 1.503 1_655 S
C404 C403 1.410 . S
C404 C405 1.392 . S
C404 C407 1.511 . S
C405 C401 1.376 . S
C405 C404 1.392 . S
C405 H417 0.929 . S
C406 C402 1.531 1_455 S
C406 H418 0.960 . S
C406 H419 0.962 . S
C406 H420 0.976 . S
C407 C404 1.511 . S
C407 H421 0.961 . S
C407 H422 0.961 . S
C407 H423 0.961 . S
C408 C409 1.370 . S
C408 C410 1.363 . S
C408 H424 0.931 . S
C409 C408 1.370 . S
C409 C413 1.408 . S
C410 C408 1.363 . S
C410 C411 1.370 . S
C410 C414 1.524 . S
C411 C403 1.503 1_455 S
C411 C410 1.370 . S
C411 C412 1.403 . S
C412 C411 1.403 . S
C412 C413 1.404 . S
C412 C415 1.539 . S
C413 C409 1.408 . S
C413 C412 1.404 . S
C413 H425 0.930 . S
C414 C410 1.524 . S
C414 H426 0.956 . S
C414 H427 0.961 1_455 S
C414 H428 0.961 . S
C415 C412 1.539 . S
C415 H429 0.958 . S
C415 H430 0.961 . S
C415 H431 0.960 . S
H416 C400 0.931 . S
H417 C405 0.929 . S
H418 C406 0.960 . S
H419 C406 0.962 . S
H420 C406 0.976 . S
H421 C407 0.961 . S
H422 C407 0.961 . S
H423 C407 0.961 . S
H424 C408 0.931 . S
H425 C413 0.930 . S
H426 C414 0.956 . S
H427 C414 0.961 1_655 S
H428 C414 0.961 . S
H429 C415 0.958 . S
H430 C415 0.961 . S
H431 C415 0.960 . S
C432 C433 1.391 . S
C432 C434 1.394 . S
C432 H448 0.931 . S
C433 C432 1.391 . S
C433 C437 1.376 . S
C434 C432 1.394 . S
C434 C435 1.369 . S
C434 C438 1.531 . S
C435 C434 1.369 . S
C435 C436 1.410 . S
C435 C443 1.503 1_565 S
C436 C435 1.410 . S
C436 C437 1.392 . S
C436 C439 1.511 . S
C437 C433 1.376 . S
C437 C436 1.392 . S
C437 H449 0.929 . S
C438 C434 1.531 . S
C438 H450 0.960 1_565 S
C438 H451 0.962 . S
C438 H452 0.960 . S
C439 C436 1.511 . S
C439 H453 0.961 . S
C439 H454 0.961 1_565 S
C439 H455 0.961 1_565 S
C440 C441 1.370 . S
C440 C442 1.363 . S
C440 H456 0.931 . S
C441 C440 1.370 . S
C441 C445 1.408 . S
C442 C440 1.363 . S
C442 C443 1.370 . S
C442 C446 1.524 1_545 S
C443 C435 1.503 1_545 S
C443 C442 1.370 . S
C443 C444 1.403 . S
C444 C443 1.403 . S
C444 C445 1.404 . S
C444 C447 1.539 . S
C445 C441 1.408 . S
C445 C444 1.404 . S
C445 H457 0.930 . S
C446 C442 1.524 1_565 S
C446 H458 0.956 . S
C446 H459 0.961 . S
C446 H460 0.965 . S
C447 C444 1.539 . S
C447 H461 0.958 . S
C447 H462 0.961 . S
C447 H463 0.960 . S
H448 C432 0.931 . S
H449 C437 0.929 . S
H450 C438 0.960 1_545 S
H451 C438 0.962 . S
H452 C438 0.960 . S
H453 C439 0.961 . S
H454 C439 0.961 1_545 S
H455 C439 0.961 1_545 S
H456 C440 0.931 . S
H457 C445 0.930 . S
H458 C446 0.956 . S
H459 C446 0.961 . S
H460 C446 0.965 . S
H461 C447 0.958 . S
H462 C447 0.961 . S
H463 C447 0.960 . S
C464 C465 1.391 . S
C464 C466 1.394 . S
C464 H480 0.931 . S
C465 C464 1.391 . S
C465 C469 1.376 . S
C466 C464 1.394 . S
C466 C467 1.369 . S
C466 C470 1.531 . S
C467 C466 1.369 . S
C467 C468 1.410 . S
C467 C475 1.503 . S
C468 C467 1.410 . S
C468 C469 1.392 . S
C468 C471 1.511 . S
C469 C465 1.376 . S
C469 C468 1.392 . S
C469 H481 0.929 . S
C470 C466 1.531 . S
C470 H482 0.960 . S
C470 H483 0.962 . S
C470 H484 0.960 . S
C471 C468 1.511 . S
C471 H485 0.961 . S
C471 H486 0.961 . S
C471 H487 0.961 . S
C472 C473 1.370 . S
C472 C474 1.363 . S
C472 H488 0.931 . S
C473 C472 1.370 . S
C473 C477 1.408 . S
C474 C472 1.363 . S
C474 C475 1.370 . S
C474 C478 1.524 . S
C475 C467 1.503 . S
C475 C474 1.370 . S
C475 C476 1.403 . S
C476 C475 1.403 . S
C476 C477 1.404 . S
C476 C479 1.539 . S
C477 C473 1.408 . S
C477 C476 1.404 . S
C477 H489 0.930 . S
C478 C474 1.524 . S
C478 H490 0.956 . S
C478 H491 0.961 . S
C478 H492 0.961 . S
C479 C476 1.539 . S
C479 H493 0.958 . S
C479 H494 0.961 . S
C479 H495 0.960 . S
H480 C464 0.931 . S
H481 C469 0.929 . S
H482 C470 0.960 . S
H483 C470 0.962 . S
H484 C470 0.960 . S
H485 C471 0.961 . S
H486 C471 0.961 . S
H487 C471 0.961 . S
H488 C472 0.931 . S
H489 C477 0.930 . S
H490 C478 0.956 . S
H491 C478 0.961 . S
H492 C478 0.961 . S
H493 C479 0.958 . S
H494 C479 0.961 . S
H495 C479 0.960 . S
C496 C497 1.391 . S
C496 C498 1.394 . S
C496 H512 0.931 . S
C497 C496 1.391 . S
C497 C501 1.376 . S
C498 C496 1.394 . S
C498 C499 1.369 . S
C498 C502 1.531 . S
C499 C498 1.369 . S
C499 C500 1.410 . S
C499 C507 1.503 1_455 S
C500 C499 1.410 . S
C500 C501 1.392 . S
C500 C503 1.511 1_455 S
C501 C497 1.376 . S
C501 C500 1.392 . S
C501 H513 0.929 . S
C502 C498 1.531 . S
C502 H514 0.960 . S
C502 H515 0.962 . S
C502 H516 0.960 . S
C503 C500 1.511 1_655 S
C503 H517 0.961 1_655 S
C503 H518 0.961 . S
C503 H519 0.961 . S
C504 C505 1.370 . S
C504 C506 1.363 . S
C504 H520 0.931 . S
C505 C504 1.370 . S
C505 C509 1.408 . S
C506 C504 1.363 . S
C506 C507 1.370 . S
C506 C510 1.524 . S
C507 C499 1.503 1_655 S
C507 C506 1.370 . S
C507 C508 1.403 . S
C508 C507 1.403 . S
C508 C509 1.404 . S
C508 C511 1.539 . S
C509 C505 1.408 . S
C509 C508 1.404 . S
C509 H521 0.930 . S
C510 C506 1.524 . S
C510 H522 0.956 . S
C510 H523 0.961 . S
C510 H524 0.961 . S
C511 C508 1.539 . S
C511 H525 0.958 1_655 S
C511 H526 0.961 . S
C511 H527 0.960 1_655 S
H512 C496 0.931 . S
H513 C501 0.929 . S
H514 C502 0.960 . S
H515 C502 0.962 . S
H516 C502 0.960 . S
H517 C503 0.961 1_455 S
H518 C503 0.961 . S
H519 C503 0.961 . S
H520 C504 0.931 . S
H521 C509 0.930 . S
H522 C510 0.956 . S
H523 C510 0.961 . S
H524 C510 0.961 . S
H525 C511 0.958 1_455 S
H526 C511 0.961 . S
H527 C511 0.960 1_455 S
C528 C529 1.391 . S
C528 C530 1.394 . S
C528 H544 0.931 . S
C529 C528 1.391 . S
C529 C533 1.376 . S
C530 C528 1.394 . S
C530 C531 1.369 . S
C530 C534 1.531 . S
C531 C530 1.369 . S
C531 C532 1.410 . S
C531 C539 1.503 1_565 S
C532 C531 1.410 . S
C532 C533 1.392 . S
C532 C535 1.511 . S
C533 C529 1.376 . S
C533 C532 1.392 . S
C533 H545 0.929 . S
C534 C530 1.531 . S
C534 H546 0.960 . S
C534 H547 0.962 . S
C534 H548 0.960 . S
C535 C532 1.511 . S
C535 H549 0.961 . S
C535 H550 0.961 1_565 S
C535 H551 0.961 . S
C536 C537 1.370 . S
C536 C538 1.363 . S
C536 H552 0.931 . S
C537 C536 1.370 . S
C537 C541 1.408 . S
C538 C536 1.363 . S
C538 C539 1.370 . S
C538 C542 1.524 . S
C539 C531 1.503 1_545 S
C539 C538 1.370 . S
C539 C540 1.403 . S
C540 C539 1.403 . S
C540 C541 1.404 . S
C540 C543 1.539 . S
C541 C537 1.408 . S
C541 C540 1.404 . S
C541 H553 0.930 . S
C542 C538 1.524 . S
C542 H554 0.956 . S
C542 H555 0.961 . S
C542 H556 0.961 . S
C543 C540 1.539 . S
C543 H557 0.958 1_545 S
C543 H558 0.961 . S
C543 H559 0.960 1_545 S
H544 C528 0.931 . S
H545 C533 0.929 . S
H546 C534 0.960 . S
H547 C534 0.962 . S
H548 C534 0.960 . S
H549 C535 0.961 . S
H550 C535 0.961 1_545 S
H551 C535 0.961 . S
H552 C536 0.931 . S
H553 C541 0.930 . S
H554 C542 0.956 . S
H555 C542 0.961 . S
H556 C542 0.961 . S
H557 C543 0.958 1_565 S
H558 C543 0.961 . S
H559 C543 0.960 1_565 S
C560 C561 1.391 . S
C560 C562 1.394 . S
C560 H576 0.931 . S
C561 C560 1.391 . S
C561 C565 1.376 . S
C562 C560 1.394 . S
C562 C563 1.369 . S
C562 C566 1.531 . S
C563 C562 1.369 . S
C563 C564 1.410 . S
C563 C571 1.503 . S
C564 C563 1.410 . S
C564 C565 1.392 . S
C564 C567 1.511 . S
C565 C561 1.376 . S
C565 C564 1.392 . S
C565 H577 0.929 . S
C566 C562 1.531 . S
C566 H578 0.960 . S
C566 H579 0.962 . S
C566 H580 0.960 . S
C567 C564 1.511 . S
C567 H581 0.961 . S
C567 H582 0.961 . S
C567 H583 0.961 . S
C568 C569 1.370 . S
C568 C570 1.363 . S
C568 H584 0.931 . S
C569 C568 1.370 . S
C569 C573 1.408 . S
C570 C568 1.363 . S
C570 C571 1.370 . S
C570 C574 1.524 . S
C571 C563 1.503 . S
C571 C570 1.370 . S
C571 C572 1.403 . S
C572 C571 1.403 . S
C572 C573 1.404 . S
C572 C575 1.539 . S
C573 C569 1.408 . S
C573 C572 1.404 . S
C573 H585 0.930 . S
C574 C570 1.524 . S
C574 H586 0.956 . S
C574 H587 0.961 . S
C574 H588 0.961 . S
C575 C572 1.539 . S
C575 H589 0.958 . S
C575 H590 0.961 . S
C575 H591 0.960 . S
H576 C560 0.931 . S
H577 C565 0.929 . S
H578 C566 0.960 . S
H579 C566 0.962 . S
H580 C566 0.960 . S
H581 C567 0.961 . S
H582 C567 0.961 . S
H583 C567 0.961 . S
H584 C568 0.931 . S
H585 C573 0.930 . S
H586 C574 0.956 . S
H587 C574 0.961 . S
H588 C574 0.961 . S
H589 C575 0.958 . S
H590 C575 0.961 . S
H591 C575 0.960 . S
C592 C593 1.391 . S
C592 C594 1.394 . S
C592 H608 0.931 . S
C593 C592 1.391 . S
C593 C597 1.376 . S
C594 C592 1.394 . S
C594 C595 1.369 . S
C594 C598 1.531 . S
C595 C594 1.369 . S
C595 C596 1.410 . S
C595 C603 1.503 1_655 S
C596 C595 1.410 . S
C596 C597 1.392 . S
C596 C599 1.518 . S
C597 C593 1.376 . S
C597 C596 1.392 . S
C597 H609 0.929 . S
C598 C594 1.531 . S
C598 H610 0.960 . S
C598 H611 0.962 . S
C598 H612 0.960 . S
C599 C596 1.518 . S
C599 H613 0.963 . S
C599 H614 0.957 1_655 S
C599 H615 0.941 1_655 S
C600 C601 1.370 . S
C600 C602 1.363 . S
C600 H616 0.931 . S
C601 C600 1.370 . S
C601 C605 1.408 . S
C602 C600 1.363 . S
C602 C603 1.370 . S
C602 C606 1.524 . S
C603 C595 1.503 1_455 S
C603 C602 1.370 . S
C603 C604 1.403 . S
C604 C603 1.403 . S
C604 C605 1.404 . S
C604 C607 1.539 . S
C605 C601 1.408 . S
C605 C604 1.404 . S
C605 H617 0.930 . S
C606 C602 1.524 . S
C606 H618 0.956 . S
C606 H619 0.961 . S
C606 H620 0.961 . S
C607 C604 1.539 . S
C607 H621 0.948 1_455 S
C607 H622 0.961 . S
C607 H623 0.960 1_455 S
H608 C592 0.931 . S
H609 C597 0.929 . S
H610 C598 0.960 . S
H611 C598 0.962 . S
H612 C598 0.960 . S
H613 C599 0.963 . S
H614 C599 0.957 1_455 S
H615 C599 0.941 1_455 S
H616 C600 0.931 . S
H617 C605 0.930 . S
H618 C606 0.956 . S
H619 C606 0.961 . S
H620 C606 0.961 . S
H621 C607 0.948 1_655 S
H622 C607 0.961 . S
H623 C607 0.960 1_655 S
C624 C625 1.391 . S
C624 C626 1.394 . S
C624 H640 0.931 . S
C625 C624 1.391 . S
C625 C629 1.376 . S
C626 C624 1.394 . S
C626 C627 1.369 . S
C626 C630 1.531 . S
C627 C626 1.369 . S
C627 C628 1.410 . S
C627 C635 1.503 1_545 S
C628 C627 1.410 . S
C628 C629 1.392 . S
C628 C631 1.511 . S
C629 C625 1.376 . S
C629 C628 1.392 . S
C629 H641 0.929 . S
C630 C626 1.531 . S
C630 H642 0.960 . S
C630 H643 0.962 . S
C630 H644 0.960 . S
C631 C628 1.511 . S
C631 H645 0.961 . S
C631 H646 0.961 1_545 S
C631 H647 0.961 . S
C632 C633 1.370 . S
C632 C634 1.363 . S
C632 H648 0.931 . S
C633 C632 1.370 . S
C633 C637 1.408 . S
C634 C632 1.363 . S
C634 C635 1.370 . S
C634 C638 1.524 . S
C635 C627 1.503 1_565 S
C635 C634 1.370 . S
C635 C636 1.403 . S
C636 C635 1.403 . S
C636 C637 1.404 . S
C636 C639 1.539 . S
C637 C633 1.408 . S
C637 C636 1.404 . S
C637 H649 0.930 . S
C638 C634 1.524 . S
C638 H650 0.956 . S
C638 H651 0.961 . S
C638 H652 0.961 . S
C639 C636 1.539 . S
C639 H653 0.958 1_565 S
C639 H654 0.961 . S
C639 H655 0.960 1_565 S
H640 C624 0.931 . S
H641 C629 0.929 . S
H642 C630 0.960 . S
H643 C630 0.962 . S
H644 C630 0.960 . S
H645 C631 0.961 . S
H646 C631 0.961 1_565 S
H647 C631 0.961 . S
H648 C632 0.931 . S
H649 C637 0.930 . S
H650 C638 0.956 . S
H651 C638 0.961 . S
H652 C638 0.961 . S
H653 C639 0.958 1_545 S
H654 C639 0.961 . S
H655 C639 0.960 1_545 S
C656 C657 1.391 . S
C656 C658 1.394 . S
C656 H672 0.931 . S
C657 C656 1.391 . S
C657 C661 1.376 . S
C658 C656 1.394 . S
C658 C659 1.369 . S
C658 C662 1.531 . S
C659 C658 1.369 . S
C659 C660 1.410 . S
C659 C667 1.503 . S
C660 C659 1.410 . S
C660 C661 1.392 . S
C660 C663 1.511 . S
C661 C657 1.376 . S
C661 C660 1.392 . S
C661 H673 0.929 . S
C662 C658 1.531 . S
C662 H674 0.960 . S
C662 H675 0.962 . S
C662 H676 0.960 . S
C663 C660 1.511 . S
C663 H677 0.961 . S
C663 H678 0.961 . S
C663 H679 0.961 . S
C664 C665 1.370 . S
C664 C666 1.363 . S
C664 H680 0.931 . S
C665 C664 1.370 . S
C665 C669 1.408 . S
C666 C664 1.363 . S
C666 C667 1.370 . S
C666 C670 1.524 . S
C667 C659 1.503 . S
C667 C666 1.370 . S
C667 C668 1.403 . S
C668 C667 1.403 . S
C668 C669 1.404 . S
C668 C671 1.539 . S
C669 C665 1.408 . S
C669 C668 1.404 . S
C669 H681 0.930 . S
C670 C666 1.524 . S
C670 H682 0.956 . S
C670 H683 0.961 . S
C670 H684 0.961 . S
C671 C668 1.539 . S
C671 H685 0.958 . S
C671 H686 0.961 . S
C671 H687 0.960 . S
H672 C656 0.931 . S
H673 C661 0.929 . S
H674 C662 0.960 . S
H675 C662 0.962 . S
H676 C662 0.960 . S
H677 C663 0.961 . S
H678 C663 0.961 . S
H679 C663 0.961 . S
H680 C664 0.931 . S
H681 C669 0.930 . S
H682 C670 0.956 . S
H683 C670 0.961 . S
H684 C670 0.961 . S
H685 C671 0.958 . S
H686 C671 0.961 . S
H687 C671 0.960 . S
C688 C689 1.391 . S
C688 C690 1.394 . S
C688 H704 0.931 . S
C689 C688 1.391 . S
C689 C693 1.376 . S
C690 C688 1.394 . S
C690 C691 1.369 . S
C690 C694 1.531 . S
C691 C690 1.369 . S
C691 C692 1.410 . S
C691 C699 1.503 1_455 S
C692 C691 1.410 . S
C692 C693 1.392 . S
C692 C695 1.511 1_455 S
C693 C689 1.376 . S
C693 C692 1.392 . S
C693 H705 0.929 . S
C694 C690 1.531 . S
C694 H706 0.960 . S
C694 H707 0.962 . S
C694 H708 0.960 . S
C695 C692 1.511 1_655 S
C695 H709 0.961 1_655 S
C695 H710 0.961 . S
C695 H711 0.961 . S
C696 C697 1.370 . S
C696 C698 1.363 . S
C696 H712 0.931 . S
C697 C696 1.370 . S
C697 C701 1.408 . S
C698 C696 1.363 . S
C698 C699 1.370 . S
C698 C702 1.524 . S
C699 C691 1.503 1_655 S
C699 C698 1.370 . S
C699 C700 1.403 . S
C700 C699 1.403 . S
C700 C701 1.404 . S
C700 C703 1.539 . S
C701 C697 1.408 . S
C701 C700 1.404 . S
C701 H713 0.930 . S
C702 C698 1.524 . S
C702 H714 0.956 1_655 S
C702 H715 0.961 . S
C702 H716 0.961 . S
C703 C700 1.539 . S
C703 H717 0.958 . S
C703 H718 0.961 . S
C703 H719 0.960 . S
H704 C688 0.931 . S
H705 C693 0.929 . S
H706 C694 0.960 . S
H707 C694 0.962 . S
H708 C694 0.960 . S
H709 C695 0.961 1_455 S
H710 C695 0.961 . S
H711 C695 0.961 . S
H712 C696 0.931 . S
H713 C701 0.930 . S
H714 C702 0.956 1_455 S
H715 C702 0.961 . S
H716 C702 0.961 . S
H717 C703 0.958 . S
H718 C703 0.961 . S
H719 C703 0.960 . S
C720 C721 1.391 . S
C720 C722 1.394 . S
C720 H736 0.931 . S
C721 C720 1.391 . S
C721 C725 1.376 . S
C722 C720 1.394 . S
C722 C723 1.369 . S
C722 C726 1.531 . S
C723 C722 1.369 . S
C723 C724 1.410 . S
C723 C731 1.503 . S
C724 C723 1.410 . S
C724 C725 1.392 . S
C724 C727 1.511 . S
C725 C721 1.376 . S
C725 C724 1.392 . S
C725 H737 0.929 . S
C726 C722 1.531 . S
C726 H738 0.960 . S
C726 H739 0.962 . S
C726 H740 0.960 . S
C727 C724 1.511 . S
C727 H741 0.961 . S
C727 H742 0.961 . S
C727 H743 0.961 . S
C728 C729 1.370 . S
C728 C730 1.363 . S
C728 H744 0.931 . S
C729 C728 1.370 . S
C729 C733 1.408 . S
C730 C728 1.363 . S
C730 C731 1.370 . S
C730 C734 1.524 . S
C731 C723 1.503 . S
C731 C730 1.370 . S
C731 C732 1.403 . S
C732 C731 1.403 . S
C732 C733 1.404 . S
C732 C735 1.539 . S
C733 C729 1.408 . S
C733 C732 1.404 . S
C733 H745 0.930 . S
C734 C730 1.524 . S
C734 H746 0.956 . S
C734 H747 0.961 . S
C734 H748 0.961 . S
C735 C732 1.539 . S
C735 H749 0.958 . S
C735 H750 0.961 . S
C735 H751 0.960 . S
H736 C720 0.931 . S
H737 C725 0.929 . S
H738 C726 0.960 . S
H739 C726 0.962 . S
H740 C726 0.960 . S
H741 C727 0.961 . S
H742 C727 0.961 . S
H743 C727 0.961 . S
H744 C728 0.931 . S
H745 C733 0.930 . S
H746 C734 0.956 . S
H747 C734 0.961 . S
H748 C734 0.961 . S
H749 C735 0.958 . S
H750 C735 0.961 . S
H751 C735 0.960 . S
C752 C753 1.391 . S
C752 C754 1.394 . S
C752 H768 0.931 . S
C753 C752 1.391 . S
C753 C757 1.376 . S
C754 C752 1.394 . S
C754 C755 1.369 . S
C754 C758 1.531 . S
C755 C754 1.369 . S
C755 C756 1.410 . S
C755 C763 1.503 . S
C756 C755 1.410 . S
C756 C757 1.392 . S
C756 C759 1.511 . S
C757 C753 1.376 . S
C757 C756 1.392 . S
C757 H769 0.929 . S
C758 C754 1.531 . S
C758 H770 0.960 . S
C758 H771 0.962 . S
C758 H772 0.960 . S
C759 C756 1.511 . S
C759 H773 0.961 . S
C759 H774 0.961 . S
C759 H775 0.961 . S
C760 C761 1.370 . S
C760 C762 1.363 . S
C760 H776 0.931 . S
C761 C760 1.370 . S
C761 C765 1.408 . S
C762 C760 1.363 . S
C762 C763 1.370 . S
C762 C766 1.524 . S
C763 C755 1.503 . S
C763 C762 1.370 . S
C763 C764 1.403 . S
C764 C763 1.403 . S
C764 C765 1.404 . S
C764 C767 1.539 . S
C765 C761 1.408 . S
C765 C764 1.404 . S
C765 H777 0.930 . S
C766 C762 1.524 . S
C766 H778 0.956 . S
C766 H779 0.961 . S
C766 H780 0.961 . S
C767 C764 1.539 . S
C767 H781 0.958 . S
C767 H782 0.961 . S
C767 H783 0.960 . S
H768 C752 0.931 . S
H769 C757 0.929 . S
H770 C758 0.960 . S
H771 C758 0.962 . S
H772 C758 0.960 . S
H773 C759 0.961 . S
H774 C759 0.961 . S
H775 C759 0.961 . S
H776 C760 0.931 . S
H777 C765 0.930 . S
H778 C766 0.956 . S
H779 C766 0.961 . S
H780 C766 0.961 . S
H781 C767 0.958 . S
H782 C767 0.961 . S
H783 C767 0.960 . S
C784 C785 1.391 . S
C784 C786 1.394 . S
C784 H800 0.931 . S
C785 C784 1.391 . S
C785 C789 1.376 . S
C786 C784 1.394 . S
C786 C787 1.369 . S
C786 C790 1.531 . S
C787 C786 1.369 . S
C787 C788 1.410 . S
C787 C795 1.503 . S
C788 C787 1.410 . S
C788 C789 1.392 . S
C788 C791 1.511 . S
C789 C785 1.376 . S
C789 C788 1.392 . S
C789 H801 0.929 . S
C790 C786 1.531 . S
C790 H802 0.960 . S
C790 H803 0.962 . S
C790 H804 0.960 . S
C791 C788 1.511 . S
C791 H805 0.961 . S
C791 H806 0.961 . S
C791 H807 0.961 . S
C792 C793 1.370 . S
C792 C794 1.363 . S
C792 H808 0.931 . S
C793 C792 1.370 . S
C793 C797 1.408 . S
C794 C792 1.363 . S
C794 C795 1.370 . S
C794 C798 1.524 . S
C795 C787 1.503 . S
C795 C794 1.370 . S
C795 C796 1.403 . S
C796 C795 1.403 . S
C796 C797 1.404 . S
C796 C799 1.539 . S
C797 C793 1.408 . S
C797 C796 1.404 . S
C797 H809 0.930 . S
C798 C794 1.524 . S
C798 H810 0.956 . S
C798 H811 0.961 . S
C798 H812 0.961 . S
C799 C796 1.539 . S
C799 H813 0.958 . S
C799 H814 0.961 . S
C799 H815 0.960 . S
H800 C784 0.931 . S
H801 C789 0.929 . S
H802 C790 0.960 . S
H803 C790 0.962 . S
H804 C790 0.960 . S
H805 C791 0.961 . S
H806 C791 0.961 . S
H807 C791 0.961 . S
H808 C792 0.931 . S
H809 C797 0.930 . S
H810 C798 0.956 . S
H811 C798 0.961 . S
H812 C798 0.961 . S
H813 C799 0.958 . S
H814 C799 0.961 . S
H815 C799 0.960 . S
C816 C817 1.391 . S
C816 C818 1.394 . S
C816 H832 0.931 . S
C817 C816 1.391 . S
C817 C821 1.376 . S
C818 C816 1.394 . S
C818 C819 1.369 . S
C818 C822 1.531 . S
C819 C818 1.369 . S
C819 C820 1.410 . S
C819 C827 1.503 . S
C820 C819 1.410 . S
C820 C821 1.392 . S
C820 C823 1.511 . S
C821 C817 1.376 . S
C821 C820 1.392 . S
C821 H833 0.929 . S
C822 C818 1.531 . S
C822 H834 0.960 . S
C822 H835 0.962 . S
C822 H836 0.960 . S
C823 C820 1.511 . S
C823 H837 0.961 . S
C823 H838 0.961 . S
C823 H839 0.961 . S
C824 C825 1.370 . S
C824 C826 1.363 . S
C824 H840 0.931 . S
C825 C824 1.370 . S
C825 C829 1.408 . S
C826 C824 1.363 . S
C826 C827 1.370 . S
C826 C830 1.524 . S
C827 C819 1.503 . S
C827 C826 1.370 . S
C827 C828 1.403 . S
C828 C827 1.403 . S
C828 C829 1.404 . S
C828 C831 1.539 . S
C829 C825 1.408 . S
C829 C828 1.404 . S
C829 H841 0.930 . S
C830 C826 1.524 . S
C830 H842 0.956 . S
C830 H843 0.961 . S
C830 H844 0.961 . S
C831 C828 1.539 . S
C831 H845 0.958 . S
C831 H846 0.961 . S
C831 H847 0.960 . S
H832 C816 0.931 . S
H833 C821 0.929 . S
H834 C822 0.960 . S
H835 C822 0.962 . S
H836 C822 0.960 . S
H837 C823 0.961 . S
H838 C823 0.961 . S
H839 C823 0.961 . S
H840 C824 0.931 . S
H841 C829 0.930 . S
H842 C830 0.956 . S
H843 C830 0.961 . S
H844 C830 0.961 . S
H845 C831 0.958 . S
H846 C831 0.961 . S
H847 C831 0.960 . S
C848 C849 1.391 . S
C848 C850 1.394 . S
C848 H864 0.931 . S
C849 C848 1.391 . S
C849 C853 1.376 . S
C850 C848 1.394 . S
C850 C851 1.369 . S
C850 C854 1.531 . S
C851 C850 1.369 . S
C851 C852 1.410 . S
C851 C859 1.503 . S
C852 C851 1.410 . S
C852 C853 1.392 . S
C852 C855 1.511 . S
C853 C849 1.376 . S
C853 C852 1.392 . S
C853 H865 0.929 . S
C854 C850 1.531 . S
C854 H866 0.960 . S
C854 H867 0.962 . S
C854 H868 0.960 . S
C855 C852 1.511 . S
C855 H869 0.961 . S
C855 H870 0.961 . S
C855 H871 0.961 . S
C856 C857 1.370 . S
C856 C858 1.363 . S
C856 H872 0.931 . S
C857 C856 1.370 . S
C857 C861 1.408 . S
C858 C856 1.363 . S
C858 C859 1.370 . S
C858 C862 1.524 . S
C859 C851 1.503 . S
C859 C858 1.370 . S
C859 C860 1.403 . S
C860 C859 1.403 . S
C860 C861 1.404 . S
C860 C863 1.539 . S
C861 C857 1.408 . S
C861 C860 1.404 . S
C861 H873 0.930 . S
C862 C858 1.524 . S
C862 H874 0.956 . S
C862 H875 0.961 . S
C862 H876 0.961 . S
C863 C860 1.539 . S
C863 H877 0.958 . S
C863 H878 0.961 . S
C863 H879 0.960 . S
H864 C848 0.931 . S
H865 C853 0.929 . S
H866 C854 0.960 . S
H867 C854 0.962 . S
H868 C854 0.960 . S
H869 C855 0.961 . S
H870 C855 0.961 . S
H871 C855 0.961 . S
H872 C856 0.931 . S
H873 C861 0.930 . S
H874 C862 0.956 . S
H875 C862 0.961 . S
H876 C862 0.961 . S
H877 C863 0.958 . S
H878 C863 0.961 . S
H879 C863 0.960 . S
C880 C881 1.391 . S
C880 C882 1.394 . S
C880 H896 0.931 . S
C881 C880 1.391 . S
C881 C885 1.376 . S
C882 C880 1.394 . S
C882 C883 1.369 . S
C882 C886 1.531 . S
C883 C882 1.369 . S
C883 C884 1.410 . S
C883 C891 1.503 . S
C884 C883 1.410 . S
C884 C885 1.392 . S
C884 C887 1.511 . S
C885 C881 1.376 . S
C885 C884 1.392 . S
C885 H897 0.929 . S
C886 C882 1.531 . S
C886 H898 0.960 . S
C886 H899 0.962 . S
C886 H900 0.960 . S
C887 C884 1.511 . S
C887 H901 0.961 . S
C887 H902 0.961 . S
C887 H903 0.961 . S
C888 C889 1.370 . S
C888 C890 1.363 . S
C888 H904 0.931 . S
C889 C888 1.370 . S
C889 C893 1.408 . S
C890 C888 1.363 . S
C890 C891 1.370 . S
C890 C894 1.524 . S
C891 C883 1.503 . S
C891 C890 1.370 . S
C891 C892 1.403 . S
C892 C891 1.403 . S
C892 C893 1.404 . S
C892 C895 1.539 . S
C893 C889 1.408 . S
C893 C892 1.404 . S
C893 H905 0.930 . S
C894 C890 1.524 . S
C894 H906 0.956 . S
C894 H907 0.961 . S
C894 H908 0.961 . S
C895 C892 1.539 . S
C895 H909 0.958 . S
C895 H910 0.961 . S
C895 H911 0.960 . S
H896 C880 0.931 . S
H897 C885 0.929 . S
H898 C886 0.960 . S
H899 C886 0.962 . S
H900 C886 0.960 . S
H901 C887 0.961 . S
H902 C887 0.961 . S
H903 C887 0.961 . S
H904 C888 0.931 . S
H905 C893 0.930 . S
H906 C894 0.956 . S
H907 C894 0.961 . S
H908 C894 0.961 . S
H909 C895 0.958 . S
H910 C895 0.961 . S
H911 C895 0.960 . S
C912 C913 1.391 . S
C912 C914 1.394 . S
C912 H928 0.931 . S
C913 C912 1.391 . S
C913 C917 1.376 . S
C914 C912 1.394 . S
C914 C915 1.369 . S
C914 C918 1.531 . S
C915 C914 1.369 . S
C915 C916 1.410 . S
C915 C923 1.503 . S
C916 C915 1.410 . S
C916 C917 1.392 . S
C916 C919 1.511 . S
C917 C913 1.376 . S
C917 C916 1.392 . S
C917 H929 0.929 . S
C918 C914 1.531 . S
C918 H930 0.960 . S
C918 H931 0.962 . S
C918 H932 0.960 . S
C919 C916 1.511 . S
C919 H933 0.961 . S
C919 H934 0.961 . S
C919 H935 0.961 . S
C920 C921 1.370 . S
C920 C922 1.363 . S
C920 H936 0.931 . S
C921 C920 1.370 . S
C921 C925 1.408 . S
C922 C920 1.363 . S
C922 C923 1.370 . S
C922 C926 1.524 . S
C923 C915 1.503 . S
C923 C922 1.370 . S
C923 C924 1.403 . S
C924 C923 1.403 . S
C924 C925 1.404 . S
C924 C927 1.539 . S
C925 C921 1.408 . S
C925 C924 1.404 . S
C925 H937 0.930 . S
C926 C922 1.524 . S
C926 H938 0.956 . S
C926 H939 0.961 . S
C926 H940 0.961 . S
C927 C924 1.539 . S
C927 H941 0.958 . S
C927 H942 0.961 . S
C927 H943 0.960 . S
H928 C912 0.931 . S
H929 C917 0.929 . S
H930 C918 0.960 . S
H931 C918 0.962 . S
H932 C918 0.960 . S
H933 C919 0.961 . S
H934 C919 0.961 . S
H935 C919 0.961 . S
H936 C920 0.931 . S
H937 C925 0.930 . S
H938 C926 0.956 . S
H939 C926 0.961 . S
H940 C926 0.961 . S
H941 C927 0.958 . S
H942 C927 0.961 . S
H943 C927 0.960 . S
C944 C945 1.391 . S
C944 C946 1.394 . S
C944 H960 0.931 . S
C945 C944 1.391 . S
C945 C949 1.376 . S
C946 C944 1.394 . S
C946 C947 1.369 . S
C946 C950 1.531 . S
C947 C946 1.369 . S
C947 C948 1.410 . S
C947 C955 1.503 . S
C948 C947 1.410 . S
C948 C949 1.392 . S
C948 C951 1.511 . S
C949 C945 1.376 . S
C949 C948 1.392 . S
C949 H961 0.929 . S
C950 C946 1.531 . S
C950 H962 0.960 . S
C950 H963 0.962 . S
C950 H964 0.960 . S
C951 C948 1.511 . S
C951 H965 0.961 . S
C951 H966 0.961 . S
C951 H967 0.961 . S
C952 C953 1.370 . S
C952 C954 1.363 . S
C952 H968 0.931 . S
C953 C952 1.370 . S
C953 C957 1.408 . S
C954 C952 1.363 . S
C954 C955 1.370 . S
C954 C958 1.524 . S
C955 C947 1.503 . S
C955 C954 1.370 . S
C955 C956 1.403 . S
C956 C955 1.403 . S
C956 C957 1.404 . S
C956 C959 1.539 . S
C957 C953 1.408 . S
C957 C956 1.404 . S
C957 H969 0.930 . S
C958 C954 1.524 . S
C958 H970 0.956 . S
C958 H971 0.961 . S
C958 H972 0.961 . S
C959 C956 1.539 . S
C959 H973 0.958 . S
C959 H974 0.961 . S
C959 H975 0.960 . S
H960 C944 0.931 . S
H961 C949 0.929 . S
H962 C950 0.960 . S
H963 C950 0.962 . S
H964 C950 0.960 . S
H965 C951 0.961 . S
H966 C951 0.961 . S
H967 C951 0.961 . S
H968 C952 0.931 . S
H969 C957 0.930 . S
H970 C958 0.956 . S
H971 C958 0.961 . S
H972 C958 0.961 . S
H973 C959 0.958 . S
H974 C959 0.961 . S
H975 C959 0.960 . S
C976 C977 1.391 . S
C976 C978 1.394 . S
C976 H992 0.931 . S
C977 C976 1.391 . S
C977 C981 1.376 . S
C978 C976 1.394 . S
C978 C979 1.369 . S
C978 C982 1.531 . S
C979 C978 1.369 . S
C979 C980 1.410 . S
C979 C987 1.503 . S
C980 C979 1.410 . S
C980 C981 1.392 . S
C980 C983 1.511 . S
C981 C977 1.376 . S
C981 C980 1.392 . S
C981 H993 0.929 . S
C982 C978 1.531 . S
C982 H994 0.960 . S
C982 H995 0.962 . S
C982 H996 0.960 . S
C983 C980 1.511 . S
C983 H997 0.961 . S
C983 H998 0.961 . S
C983 H999 0.961 . S
C984 C985 1.370 . S
C984 C986 1.363 . S
C984 H1000 0.931 . S
C985 C984 1.370 . S
C985 C989 1.408 . S
C986 C984 1.363 . S
C986 C987 1.370 . S
C986 C990 1.524 . S
C987 C979 1.503 . S
C987 C986 1.370 . S
C987 C988 1.403 . S
C988 C987 1.403 . S
C988 C989 1.404 . S
C988 C991 1.539 . S
C989 C985 1.408 . S
C989 C988 1.404 . S
C989 H1001 0.930 . S
C990 C986 1.524 . S
C990 H1002 0.956 . S
C990 H1003 0.961 . S
C990 H1004 0.961 . S
C991 C988 1.539 . S
C991 H1005 0.958 . S
C991 H1006 0.961 . S
C991 H1007 0.960 . S
H992 C976 0.931 . S
H993 C981 0.929 . S
H994 C982 0.960 . S
H995 C982 0.962 . S
H996 C982 0.960 . S
H997 C983 0.961 . S
H998 C983 0.961 . S
H999 C983 0.961 . S
H1000 C984 0.931 . S
H1001 C989 0.930 . S
H1002 C990 0.956 . S
H1003 C990 0.961 . S
H1004 C990 0.961 . S
H1005 C991 0.958 . S
H1006 C991 0.961 . S
H1007 C991 0.960 . S
C1008 C1009 1.391 . S
C1008 C1010 1.394 . S
C1008 H1024 0.931 . S
C1009 C1008 1.391 . S
C1009 C1013 1.376 . S
C1010 C1008 1.394 . S
C1010 C1011 1.369 . S
C1010 C1014 1.531 . S
C1011 C1010 1.369 . S
C1011 C1012 1.410 . S
C1011 C1019 1.503 . S
C1012 C1011 1.410 . S
C1012 C1013 1.392 . S
C1012 C1015 1.511 . S
C1013 C1009 1.376 . S
C1013 C1012 1.392 . S
C1013 H1025 0.929 . S
C1014 C1010 1.531 . S
C1014 H1026 0.960 . S
C1014 H1027 0.962 . S
C1014 H1028 0.960 . S
C1015 C1012 1.511 . S
C1015 H1029 0.961 . S
C1015 H1030 0.961 . S
C1015 H1031 0.961 . S
C1016 C1017 1.370 . S
C1016 C1018 1.363 . S
C1016 H1032 0.931 . S
C1017 C1016 1.370 . S
C1017 C1021 1.408 . S
C1018 C1016 1.363 . S
C1018 C1019 1.370 . S
C1018 C1022 1.524 . S
C1019 C1011 1.503 . S
C1019 C1018 1.370 . S
C1019 C1020 1.403 . S
C1020 C1019 1.403 . S
C1020 C1021 1.404 . S
C1020 C1023 1.539 . S
C1021 C1017 1.408 . S
C1021 C1020 1.404 . S
C1021 H1033 0.930 . S
C1022 C1018 1.524 . S
C1022 H1034 0.956 . S
C1022 H1035 0.961 . S
C1022 H1036 0.961 . S
C1023 C1020 1.539 . S
C1023 H1037 0.958 . S
C1023 H1038 0.961 . S
C1023 H1039 0.960 . S
H1024 C1008 0.931 . S
H1025 C1013 0.929 . S
H1026 C1014 0.960 . S
H1027 C1014 0.962 . S
H1028 C1014 0.960 . S
H1029 C1015 0.961 . S
H1030 C1015 0.961 . S
H1031 C1015 0.961 . S
H1032 C1016 0.931 . S
H1033 C1021 0.930 . S
H1034 C1022 0.956 . S
H1035 C1022 0.961 . S
H1036 C1022 0.961 . S
H1037 C1023 0.958 . S
H1038 C1023 0.961 . S
H1039 C1023 0.960 . S
C1040 C1041 1.391 . S
C1040 C1042 1.394 . S
C1040 H1056 0.931 . S
C1041 C1040 1.391 . S
C1041 C1045 1.376 . S
C1042 C1040 1.394 . S
C1042 C1043 1.369 . S
C1042 C1046 1.531 . S
C1043 C1042 1.369 . S
C1043 C1044 1.410 . S
C1043 C1051 1.503 . S
C1044 C1043 1.410 . S
C1044 C1045 1.392 . S
C1044 C1047 1.511 . S
C1045 C1041 1.376 . S
C1045 C1044 1.392 . S
C1045 H1057 0.929 . S
C1046 C1042 1.531 . S
C1046 H1058 0.960 . S
C1046 H1059 0.962 . S
C1046 H1060 0.960 . S
C1047 C1044 1.511 . S
C1047 H1061 0.961 . S
C1047 H1062 0.961 . S
C1047 H1063 0.961 . S
C1048 C1049 1.370 . S
C1048 C1050 1.363 . S
C1048 H1064 0.931 . S
C1049 C1048 1.370 . S
C1049 C1053 1.408 . S
C1050 C1048 1.363 . S
C1050 C1051 1.370 . S
C1050 C1054 1.524 . S
C1051 C1043 1.503 . S
C1051 C1050 1.370 . S
C1051 C1052 1.403 . S
C1052 C1051 1.403 . S
C1052 C1053 1.404 . S
C1052 C1055 1.539 . S
C1053 C1049 1.408 . S
C1053 C1052 1.404 . S
C1053 H1065 0.930 . S
C1054 C1050 1.524 . S
C1054 H1066 0.956 . S
C1054 H1067 0.961 . S
C1054 H1068 0.961 . S
C1055 C1052 1.539 . S
C1055 H1069 0.958 . S
C1055 H1070 0.961 . S
C1055 H1071 0.960 . S
H1056 C1040 0.931 . S
H1057 C1045 0.929 . S
H1058 C1046 0.960 . S
H1059 C1046 0.962 . S
H1060 C1046 0.960 . S
H1061 C1047 0.961 . S
H1062 C1047 0.961 . S
H1063 C1047 0.961 . S
H1064 C1048 0.931 . S
H1065 C1053 0.930 . S
H1066 C1054 0.956 . S
H1067 C1054 0.961 . S
H1068 C1054 0.961 . S
H1069 C1055 0.958 . S
H1070 C1055 0.961 . S
H1071 C1055 0.960 . S
C1072 C1073 1.391 . S
C1072 C1074 1.394 . S
C1072 H1088 0.931 . S
C1073 C1072 1.391 . S
C1073 C1077 1.376 . S
C1074 C1072 1.394 . S
C1074 C1075 1.369 . S
C1074 C1078 1.531 . S
C1075 C1074 1.369 . S
C1075 C1076 1.410 . S
C1075 C1083 1.503 . S
C1076 C1075 1.410 . S
C1076 C1077 1.392 . S
C1076 C1079 1.511 . S
C1077 C1073 1.376 . S
C1077 C1076 1.392 . S
C1077 H1089 0.929 . S
C1078 C1074 1.531 . S
C1078 H1090 0.960 . S
C1078 H1091 0.962 . S
C1078 H1092 0.960 . S
C1079 C1076 1.511 . S
C1079 H1093 0.961 . S
C1079 H1094 0.961 . S
C1079 H1095 0.961 . S
C1080 C1081 1.370 . S
C1080 C1082 1.363 . S
C1080 H1096 0.931 . S
C1081 C1080 1.370 . S
C1081 C1085 1.408 . S
C1082 C1080 1.363 . S
C1082 C1083 1.370 . S
C1082 C1086 1.524 . S
C1083 C1075 1.503 . S
C1083 C1082 1.370 . S
C1083 C1084 1.403 . S
C1084 C1083 1.403 . S
C1084 C1085 1.404 . S
C1084 C1087 1.539 . S
C1085 C1081 1.408 . S
C1085 C1084 1.404 . S
C1085 H1097 0.930 . S
C1086 C1082 1.524 . S
C1086 H1098 0.956 . S
C1086 H1099 0.961 . S
C1086 H1100 0.961 . S
C1087 C1084 1.539 . S
C1087 H1101 0.958 . S
C1087 H1102 0.961 . S
C1087 H1103 0.960 . S
H1088 C1072 0.931 . S
H1089 C1077 0.929 . S
H1090 C1078 0.960 . S
H1091 C1078 0.962 . S
H1092 C1078 0.960 . S
H1093 C1079 0.961 . S
H1094 C1079 0.961 . S
H1095 C1079 0.961 . S
H1096 C1080 0.931 . S
H1097 C1085 0.930 . S
H1098 C1086 0.956 . S
H1099 C1086 0.961 . S
H1100 C1086 0.961 . S
H1101 C1087 0.958 . S
H1102 C1087 0.961 . S
H1103 C1087 0.960 . S
C1104 C1105 1.391 . S
C1104 C1106 1.394 . S
C1104 H1120 0.931 . S
C1105 C1104 1.391 . S
C1105 C1109 1.376 . S
C1106 C1104 1.394 . S
C1106 C1107 1.369 . S
C1106 C1110 1.531 . S
C1107 C1106 1.369 . S
C1107 C1108 1.410 . S
C1107 C1115 1.503 1_554 S
C1108 C1107 1.410 . S
C1108 C1109 1.392 . S
C1108 C1111 1.511 . S
C1109 C1105 1.376 . S
C1109 C1108 1.392 . S
C1109 H1121 0.929 . S
C1110 C1106 1.531 . S
C1110 H1122 0.949 1_554 S
C1110 H1123 0.962 . S
C1110 H1124 0.960 . S
C1111 C1108 1.511 . S
C1111 H1125 0.961 . S
C1111 H1126 0.961 1_554 S
C1111 H1127 0.961 . S
C1112 C1113 1.370 . S
C1112 C1114 1.363 . S
C1112 H1128 0.931 . S
C1113 C1112 1.370 . S
C1113 C1117 1.408 . S
C1114 C1112 1.363 . S
C1114 C1115 1.370 . S
C1114 C1118 1.524 . S
C1115 C1107 1.503 1_556 S
C1115 C1114 1.370 . S
C1115 C1116 1.403 . S
C1116 C1115 1.403 . S
C1116 C1117 1.404 . S
C1116 C1119 1.539 . S
C1117 C1113 1.408 . S
C1117 C1116 1.404 . S
C1117 H1129 0.930 . S
C1118 C1114 1.524 . S
C1118 H1130 0.956 . S
C1118 H1131 0.971 . S
C1118 H1132 0.961 . S
C1119 C1116 1.539 . S
C1119 H1133 0.958 . S
C1119 H1134 0.961 . S
C1119 H1135 0.960 1_556 S
H1120 C1104 0.931 . S
H1121 C1109 0.929 . S
H1122 C1110 0.949 1_556 S
H1123 C1110 0.962 . S
H1124 C1110 0.960 . S
H1125 C1111 0.961 . S
H1126 C1111 0.961 1_556 S
H1127 C1111 0.961 . S
H1128 C1112 0.931 . S
H1129 C1117 0.930 . S
H1130 C1118 0.956 . S
H1131 C1118 0.971 . S
H1132 C1118 0.961 . S
H1133 C1119 0.958 . S
H1134 C1119 0.961 . S
H1135 C1119 0.960 1_554 S
C1136 C1137 1.391 . S
C1136 C1138 1.394 . S
C1136 H1152 0.931 . S
C1137 C1136 1.391 . S
C1137 C1141 1.376 . S
C1138 C1136 1.394 . S
C1138 C1139 1.369 . S
C1138 C1142 1.531 . S
C1139 C1138 1.369 . S
C1139 C1140 1.410 . S
C1139 C1147 1.503 1_556 S
C1140 C1139 1.410 . S
C1140 C1141 1.392 . S
C1140 C1143 1.511 . S
C1141 C1137 1.376 . S
C1141 C1140 1.392 . S
C1141 H1153 0.929 . S
C1142 C1138 1.531 . S
C1142 H1154 0.960 1_556 S
C1142 H1155 0.962 . S
C1142 H1156 0.960 . S
C1143 C1140 1.511 . S
C1143 H1157 0.961 . S
C1143 H1158 0.961 1_556 S
C1143 H1159 0.961 . S
C1144 C1145 1.370 . S
C1144 C1146 1.363 . S
C1144 H1160 0.931 . S
C1145 C1144 1.370 . S
C1145 C1149 1.408 . S
C1146 C1144 1.363 . S
C1146 C1147 1.370 . S
C1146 C1150 1.524 . S
C1147 C1139 1.503 1_554 S
C1147 C1146 1.370 . S
C1147 C1148 1.403 . S
C1148 C1147 1.403 . S
C1148 C1149 1.404 . S
C1148 C1151 1.539 . S
C1149 C1145 1.408 . S
C1149 C1148 1.404 . S
C1149 H1161 0.930 . S
C1150 C1146 1.524 . S
C1150 H1162 0.956 . S
C1150 H1163 0.940 1_554 S
C1150 H1164 0.961 . S
C1151 C1148 1.539 . S
C1151 H1165 0.958 . S
C1151 H1166 0.961 . S
C1151 H1167 0.960 1_554 S
H1152 C1136 0.931 . S
H1153 C1141 0.929 . S
H1154 C1142 0.960 1_554 S
H1155 C1142 0.962 . S
H1156 C1142 0.960 . S
H1157 C1143 0.961 . S
H1158 C1143 0.961 1_554 S
H1159 C1143 0.961 . S
H1160 C1144 0.931 . S
H1161 C1149 0.930 . S
H1162 C1150 0.956 . S
H1163 C1150 0.940 1_556 S
H1164 C1150 0.961 . S
H1165 C1151 0.958 . S
H1166 C1151 0.961 . S
H1167 C1151 0.960 1_556 S
C1168 C1169 1.391 . S
C1168 C1170 1.394 . S
C1168 H1184 0.931 . S
C1169 C1168 1.391 . S
C1169 C1173 1.376 . S
C1170 C1168 1.394 . S
C1170 C1171 1.369 . S
C1170 C1174 1.531 . S
C1171 C1170 1.369 . S
C1171 C1172 1.410 . S
C1171 C1179 1.503 1_556 S
C1172 C1171 1.410 . S
C1172 C1173 1.392 . S
C1172 C1175 1.511 . S
C1173 C1169 1.376 . S
C1173 C1172 1.392 . S
C1173 H1185 0.929 . S
C1174 C1170 1.531 . S
C1174 H1186 0.960 1_556 S
C1174 H1187 0.962 . S
C1174 H1188 0.960 . S
C1175 C1172 1.511 . S
C1175 H1189 0.961 . S
C1175 H1190 0.940 1_556 S
C1175 H1191 0.961 . S
C1176 C1177 1.370 . S
C1176 C1178 1.363 . S
C1176 H1192 0.931 . S
C1177 C1176 1.370 . S
C1177 C1181 1.408 . S
C1178 C1176 1.363 . S
C1178 C1179 1.370 . S
C1178 C1182 1.524 . S
C1179 C1171 1.503 1_554 S
C1179 C1178 1.370 . S
C1179 C1180 1.403 . S
C1180 C1179 1.403 . S
C1180 C1181 1.404 . S
C1180 C1183 1.539 . S
C1181 C1177 1.408 . S
C1181 C1180 1.404 . S
C1181 H1193 0.930 . S
C1182 C1178 1.524 . S
C1182 H1194 0.956 . S
C1182 H1195 0.961 1_554 S
C1182 H1196 0.961 . S
C1183 C1180 1.539 . S
C1183 H1197 0.958 . S
C1183 H1198 0.961 . S
C1183 H1199 0.964 . S
H1184 C1168 0.931 . S
H1185 C1173 0.929 . S
H1186 C1174 0.960 1_554 S
H1187 C1174 0.962 . S
H1188 C1174 0.960 . S
H1189 C1175 0.961 . S
H1190 C1175 0.940 1_554 S
H1191 C1175 0.961 . S
H1192 C1176 0.931 . S
H1193 C1181 0.930 . S
H1194 C1182 0.956 . S
H1195 C1182 0.961 1_556 S
H1196 C1182 0.961 . S
H1197 C1183 0.958 . S
H1198 C1183 0.961 . S
H1199 C1183 0.964 . S
C1200 C1201 1.391 . S
C1200 C1202 1.394 . S
C1200 H1216 0.931 . S
C1201 C1200 1.391 . S
C1201 C1205 1.376 . S
C1202 C1200 1.394 . S
C1202 C1203 1.369 . S
C1202 C1206 1.531 . S
C1203 C1202 1.369 . S
C1203 C1204 1.410 . S
C1203 C1211 1.503 1_554 S
C1204 C1203 1.410 . S
C1204 C1205 1.392 . S
C1204 C1207 1.511 . S
C1205 C1201 1.376 . S
C1205 C1204 1.392 . S
C1205 H1217 0.929 . S
C1206 C1202 1.531 . S
C1206 H1218 0.938 1_554 S
C1206 H1219 0.962 . S
C1206 H1220 0.960 . S
C1207 C1204 1.511 . S
C1207 H1221 0.961 . S
C1207 H1222 0.961 1_554 S
C1207 H1223 0.961 . S
C1208 C1209 1.370 . S
C1208 C1210 1.363 . S
C1208 H1224 0.931 . S
C1209 C1208 1.370 . S
C1209 C1213 1.408 . S
C1210 C1208 1.363 . S
C1210 C1211 1.370 . S
C1210 C1214 1.524 . S
C1211 C1203 1.503 1_556 S
C1211 C1210 1.370 . S
C1211 C1212 1.403 . S
C1212 C1211 1.403 . S
C1212 C1213 1.404 . S
C1212 C1215 1.539 . S
C1213 C1209 1.408 . S
C1213 C1212 1.404 . S
C1213 H1225 0.930 . S
C1214 C1210 1.524 . S
C1214 H1226 0.956 . S
C1214 H1227 0.977 . S
C1214 H1228 0.961 . S
C1215 C1212 1.539 . S
C1215 H1229 0.958 . S
C1215 H1230 0.961 . S
C1215 H1231 0.960 1_556 S
H1216 C1200 0.931 . S
H1217 C1205 0.929 . S
H1218 C1206 0.938 1_556 S
H1219 C1206 0.962 . S
H1220 C1206 0.960 . S
H1221 C1207 0.961 . S
H1222 C1207 0.961 1_556 S
H1223 C1207 0.961 . S
H1224 C1208 0.931 . S
H1225 C1213 0.930 . S
H1226 C1214 0.956 . S
H1227 C1214 0.977 . S
H1228 C1214 0.961 . S
H1229 C1215 0.958 . S
H1230 C1215 0.961 . S
H1231 C1215 0.960 1_554 S
C1232 C1233 1.391 . S
C1232 C1234 1.394 . S
C1232 H1248 0.931 . S
C1233 C1232 1.391 . S
C1233 C1237 1.376 . S
C1234 C1232 1.394 . S
C1234 C1235 1.369 . S
C1234 C1238 1.531 . S
C1235 C1234 1.369 . S
C1235 C1236 1.410 . S
C1235 C1243 1.503 1_554 S
C1236 C1235 1.410 . S
C1236 C1237 1.392 . S
C1236 C1239 1.511 . S
C1237 C1233 1.376 . S
C1237 C1236 1.392 . S
C1237 H1249 0.929 . S
C1238 C1234 1.531 . S
C1238 H1250 0.960 1_554 S
C1238 H1251 0.962 . S
C1238 H1252 0.960 . S
C1239 C1236 1.511 . S
C1239 H1253 0.961 . S
C1239 H1254 0.961 1_554 S
C1239 H1255 0.961 . S
C1240 C1241 1.370 . S
C1240 C1242 1.363 . S
C1240 H1256 0.931 . S
C1241 C1240 1.370 . S
C1241 C1245 1.408 . S
C1242 C1240 1.363 . S
C1242 C1243 1.370 . S
C1242 C1246 1.524 . S
C1243 C1235 1.503 1_556 S
C1243 C1242 1.370 . S
C1243 C1244 1.403 . S
C1244 C1243 1.403 . S
C1244 C1245 1.404 . S
C1244 C1247 1.539 . S
C1245 C1241 1.408 . S
C1245 C1244 1.404 . S
C1245 H1257 0.930 . S
C1246 C1242 1.524 . S
C1246 H1258 0.956 . S
C1246 H1259 0.979 . S
C1246 H1260 0.961 . S
C1247 C1244 1.539 . S
C1247 H1261 0.958 . S
C1247 H1262 0.961 . S
C1247 H1263 0.960 1_556 S
H1248 C1232 0.931 . S
H1249 C1237 0.929 . S
H1250 C1238 0.960 1_556 S
H1251 C1238 0.962 . S
H1252 C1238 0.960 . S
H1253 C1239 0.961 . S
H1254 C1239 0.961 1_556 S
H1255 C1239 0.961 . S
H1256 C1240 0.931 . S
H1257 C1245 0.930 . S
H1258 C1246 0.956 . S
H1259 C1246 0.979 . S
H1260 C1246 0.961 . S
H1261 C1247 0.958 . S
H1262 C1247 0.961 . S
H1263 C1247 0.960 1_554 S
C1264 C1265 1.391 . S
C1264 C1266 1.394 . S
C1264 H1280 0.931 . S
C1265 C1264 1.391 . S
C1265 C1269 1.376 . S
C1266 C1264 1.394 . S
C1266 C1267 1.369 . S
C1266 C1270 1.531 . S
C1267 C1266 1.369 . S
C1267 C1268 1.410 . S
C1267 C1275 1.503 1_556 S
C1268 C1267 1.410 . S
C1268 C1269 1.392 . S
C1268 C1271 1.511 . S
C1269 C1265 1.376 . S
C1269 C1268 1.392 . S
C1269 H1281 0.929 . S
C1270 C1266 1.531 . S
C1270 H1282 0.960 1_556 S
C1270 H1283 0.962 . S
C1270 H1284 0.960 . S
C1271 C1268 1.511 . S
C1271 H1285 0.961 . S
C1271 H1286 0.940 1_556 S
C1271 H1287 0.961 . S
C1272 C1273 1.370 . S
C1272 C1274 1.363 . S
C1272 H1288 0.931 . S
C1273 C1272 1.370 . S
C1273 C1277 1.408 . S
C1274 C1272 1.363 . S
C1274 C1275 1.370 . S
C1274 C1278 1.524 . S
C1275 C1267 1.503 1_554 S
C1275 C1274 1.370 . S
C1275 C1276 1.403 . S
C1276 C1275 1.403 . S
C1276 C1277 1.404 . S
C1276 C1279 1.539 . S
C1277 C1273 1.408 . S
C1277 C1276 1.404 . S
C1277 H1289 0.930 . S
C1278 C1274 1.524 . S
C1278 H1290 0.956 . S
C1278 H1291 0.961 1_554 S
C1278 H1292 0.961 . S
C1279 C1276 1.539 . S
C1279 H1293 0.958 . S
C1279 H1294 0.961 . S
C1279 H1295 0.965 . S
H1280 C1264 0.931 . S
H1281 C1269 0.929 . S
H1282 C1270 0.960 1_554 S
H1283 C1270 0.962 . S
H1284 C1270 0.960 . S
H1285 C1271 0.961 . S
H1286 C1271 0.940 1_554 S
H1287 C1271 0.961 . S
H1288 C1272 0.931 . S
H1289 C1277 0.930 . S
H1290 C1278 0.956 . S
H1291 C1278 0.961 1_556 S
H1292 C1278 0.961 . S
H1293 C1279 0.958 . S
H1294 C1279 0.961 . S
H1295 C1279 0.965 . S
C1296 C1297 1.391 . S
C1296 C1298 1.394 . S
C1296 H1312 0.931 . S
C1297 C1296 1.391 . S
C1297 C1301 1.376 . S
C1298 C1296 1.394 . S
C1298 C1299 1.369 . S
C1298 C1302 1.531 . S
C1299 C1298 1.369 . S
C1299 C1300 1.410 . S
C1299 C1307 1.503 . S
C1300 C1299 1.410 . S
C1300 C1301 1.392 . S
C1300 C1303 1.511 . S
C1301 C1297 1.376 . S
C1301 C1300 1.392 . S
C1301 H1313 0.929 . S
C1302 C1298 1.531 . S
C1302 H1314 0.960 . S
C1302 H1315 0.962 . S
C1302 H1316 0.960 . S
C1303 C1300 1.511 . S
C1303 H1317 0.961 . S
C1303 H1318 0.961 . S
C1303 H1319 0.961 . S
C1304 C1305 1.370 . S
C1304 C1306 1.363 . S
C1304 H1320 0.931 . S
C1305 C1304 1.370 . S
C1305 C1309 1.408 . S
C1306 C1304 1.363 . S
C1306 C1307 1.370 . S
C1306 C1310 1.524 . S
C1307 C1299 1.503 . S
C1307 C1306 1.370 . S
C1307 C1308 1.403 . S
C1308 C1307 1.403 . S
C1308 C1309 1.404 . S
C1308 C1311 1.539 . S
C1309 C1305 1.408 . S
C1309 C1308 1.404 . S
C1309 H1321 0.930 . S
C1310 C1306 1.524 . S
C1310 H1322 0.956 . S
C1310 H1323 0.961 . S
C1310 H1324 0.961 . S
C1311 C1308 1.539 . S
C1311 H1325 0.958 . S
C1311 H1326 0.961 . S
C1311 H1327 0.960 . S
H1312 C1296 0.931 . S
H1313 C1301 0.929 . S
H1314 C1302 0.960 . S
H1315 C1302 0.962 . S
H1316 C1302 0.960 . S
H1317 C1303 0.961 . S
H1318 C1303 0.961 . S
H1319 C1303 0.961 . S
H1320 C1304 0.931 . S
H1321 C1309 0.930 . S
H1322 C1310 0.956 . S
H1323 C1310 0.961 . S
H1324 C1310 0.961 . S
H1325 C1311 0.958 . S
H1326 C1311 0.961 . S
H1327 C1311 0.960 . S
C1328 C1329 1.391 . S
C1328 C1330 1.394 . S
C1328 H1344 0.931 . S
C1329 C1328 1.391 . S
C1329 C1333 1.376 . S
C1330 C1328 1.394 . S
C1330 C1331 1.369 . S
C1330 C1334 1.531 . S
C1331 C1330 1.369 . S
C1331 C1332 1.410 . S
C1331 C1339 1.503 . S
C1332 C1331 1.410 . S
C1332 C1333 1.392 . S
C1332 C1335 1.511 . S
C1333 C1329 1.376 . S
C1333 C1332 1.392 . S
C1333 H1345 0.929 . S
C1334 C1330 1.531 . S
C1334 H1346 0.960 . S
C1334 H1347 0.962 . S
C1334 H1348 0.960 . S
C1335 C1332 1.511 . S
C1335 H1349 0.961 . S
C1335 H1350 0.961 . S
C1335 H1351 0.961 . S
C1336 C1337 1.370 . S
C1336 C1338 1.363 . S
C1336 H1352 0.931 . S
C1337 C1336 1.370 . S
C1337 C1341 1.408 . S
C1338 C1336 1.363 . S
C1338 C1339 1.370 . S
C1338 C1342 1.524 . S
C1339 C1331 1.503 . S
C1339 C1338 1.370 . S
C1339 C1340 1.403 . S
C1340 C1339 1.403 . S
C1340 C1341 1.404 . S
C1340 C1343 1.539 . S
C1341 C1337 1.408 . S
C1341 C1340 1.404 . S
C1341 H1353 0.930 . S
C1342 C1338 1.524 . S
C1342 H1354 0.956 . S
C1342 H1355 0.961 . S
C1342 H1356 0.961 . S
C1343 C1340 1.539 . S
C1343 H1357 0.958 . S
C1343 H1358 0.961 . S
C1343 H1359 0.960 . S
H1344 C1328 0.931 . S
H1345 C1333 0.929 . S
H1346 C1334 0.960 . S
H1347 C1334 0.962 . S
H1348 C1334 0.960 . S
H1349 C1335 0.961 . S
H1350 C1335 0.961 . S
H1351 C1335 0.961 . S
H1352 C1336 0.931 . S
H1353 C1341 0.930 . S
H1354 C1342 0.956 . S
H1355 C1342 0.961 . S
H1356 C1342 0.961 . S
H1357 C1343 0.958 . S
H1358 C1343 0.961 . S
H1359 C1343 0.960 . S
C1360 C1361 1.391 . S
C1360 C1362 1.394 . S
C1360 H1376 0.931 . S
C1361 C1360 1.391 . S
C1361 C1365 1.376 . S
C1362 C1360 1.394 . S
C1362 C1363 1.369 . S
C1362 C1366 1.531 . S
C1363 C1362 1.369 . S
C1363 C1364 1.410 . S
C1363 C1371 1.503 . S
C1364 C1363 1.410 . S
C1364 C1365 1.392 . S
C1364 C1367 1.511 . S
C1365 C1361 1.376 . S
C1365 C1364 1.392 . S
C1365 H1377 0.929 . S
C1366 C1362 1.531 . S
C1366 H1378 0.960 . S
C1366 H1379 0.962 . S
C1366 H1380 0.960 . S
C1367 C1364 1.511 . S
C1367 H1381 0.961 . S
C1367 H1382 0.961 . S
C1367 H1383 0.961 . S
C1368 C1369 1.370 . S
C1368 C1370 1.363 . S
C1368 H1384 0.931 . S
C1369 C1368 1.370 . S
C1369 C1373 1.408 . S
C1370 C1368 1.363 . S
C1370 C1371 1.370 . S
C1370 C1374 1.524 . S
C1371 C1363 1.503 . S
C1371 C1370 1.370 . S
C1371 C1372 1.403 . S
C1372 C1371 1.403 . S
C1372 C1373 1.404 . S
C1372 C1375 1.539 . S
C1373 C1369 1.408 . S
C1373 C1372 1.404 . S
C1373 H1385 0.930 . S
C1374 C1370 1.524 . S
C1374 H1386 0.956 . S
C1374 H1387 0.961 . S
C1374 H1388 0.961 . S
C1375 C1372 1.539 . S
C1375 H1389 0.958 . S
C1375 H1390 0.961 . S
C1375 H1391 0.960 . S
H1376 C1360 0.931 . S
H1377 C1365 0.929 . S
H1378 C1366 0.960 . S
H1379 C1366 0.962 . S
H1380 C1366 0.960 . S
H1381 C1367 0.961 . S
H1382 C1367 0.961 . S
H1383 C1367 0.961 . S
H1384 C1368 0.931 . S
H1385 C1373 0.930 . S
H1386 C1374 0.956 . S
H1387 C1374 0.961 . S
H1388 C1374 0.961 . S
H1389 C1375 0.958 . S
H1390 C1375 0.961 . S
H1391 C1375 0.960 . S
C1392 C1393 1.391 . S
C1392 C1394 1.394 . S
C1392 H1408 0.931 . S
C1393 C1392 1.391 . S
C1393 C1397 1.376 . S
C1394 C1392 1.394 . S
C1394 C1395 1.369 . S
C1394 C1398 1.531 . S
C1395 C1394 1.369 . S
C1395 C1396 1.410 . S
C1395 C1403 1.503 . S
C1396 C1395 1.410 . S
C1396 C1397 1.392 . S
C1396 C1399 1.511 . S
C1397 C1393 1.376 . S
C1397 C1396 1.392 . S
C1397 H1409 0.929 . S
C1398 C1394 1.531 . S
C1398 H1410 0.960 . S
C1398 H1411 0.962 . S
C1398 H1412 0.960 . S
C1399 C1396 1.511 . S
C1399 H1413 0.961 . S
C1399 H1414 0.961 . S
C1399 H1415 0.961 . S
C1400 C1401 1.370 . S
C1400 C1402 1.363 . S
C1400 H1416 0.931 . S
C1401 C1400 1.370 . S
C1401 C1405 1.408 . S
C1402 C1400 1.363 . S
C1402 C1403 1.370 . S
C1402 C1406 1.524 . S
C1403 C1395 1.503 . S
C1403 C1402 1.370 . S
C1403 C1404 1.403 . S
C1404 C1403 1.403 . S
C1404 C1405 1.404 . S
C1404 C1407 1.539 . S
C1405 C1401 1.408 . S
C1405 C1404 1.404 . S
C1405 H1417 0.930 . S
C1406 C1402 1.524 . S
C1406 H1418 0.956 . S
C1406 H1419 0.961 . S
C1406 H1420 0.961 . S
C1407 C1404 1.539 . S
C1407 H1421 0.958 . S
C1407 H1422 0.961 . S
C1407 H1423 0.960 . S
H1408 C1392 0.931 . S
H1409 C1397 0.929 . S
H1410 C1398 0.960 . S
H1411 C1398 0.962 . S
H1412 C1398 0.960 . S
H1413 C1399 0.961 . S
H1414 C1399 0.961 . S
H1415 C1399 0.961 . S
H1416 C1400 0.931 . S
H1417 C1405 0.930 . S
H1418 C1406 0.956 . S
H1419 C1406 0.961 . S
H1420 C1406 0.961 . S
H1421 C1407 0.958 . S
H1422 C1407 0.961 . S
H1423 C1407 0.960 . S
C1424 C1425 1.391 . S
C1424 C1426 1.394 . S
C1424 H1440 0.931 . S
C1425 C1424 1.391 . S
C1425 C1429 1.376 . S
C1426 C1424 1.394 . S
C1426 C1427 1.369 . S
C1426 C1430 1.531 . S
C1427 C1426 1.369 . S
C1427 C1428 1.410 . S
C1427 C1435 1.503 . S
C1428 C1427 1.410 . S
C1428 C1429 1.392 . S
C1428 C1431 1.511 . S
C1429 C1425 1.376 . S
C1429 C1428 1.392 . S
C1429 H1441 0.929 . S
C1430 C1426 1.531 . S
C1430 H1442 0.960 . S
C1430 H1443 0.962 . S
C1430 H1444 0.960 . S
C1431 C1428 1.511 . S
C1431 H1445 0.961 . S
C1431 H1446 0.961 . S
C1431 H1447 0.961 . S
C1432 C1433 1.370 . S
C1432 C1434 1.363 . S
C1432 H1448 0.931 . S
C1433 C1432 1.370 . S
C1433 C1437 1.408 . S
C1434 C1432 1.363 . S
C1434 C1435 1.370 . S
C1434 C1438 1.524 . S
C1435 C1427 1.503 . S
C1435 C1434 1.370 . S
C1435 C1436 1.403 . S
C1436 C1435 1.403 . S
C1436 C1437 1.404 . S
C1436 C1439 1.539 . S
C1437 C1433 1.408 . S
C1437 C1436 1.404 . S
C1437 H1449 0.930 . S
C1438 C1434 1.524 . S
C1438 H1450 0.956 . S
C1438 H1451 0.961 . S
C1438 H1452 0.961 . S
C1439 C1436 1.539 . S
C1439 H1453 0.958 . S
C1439 H1454 0.961 . S
C1439 H1455 0.960 . S
H1440 C1424 0.931 . S
H1441 C1429 0.929 . S
H1442 C1430 0.960 . S
H1443 C1430 0.962 . S
H1444 C1430 0.960 . S
H1445 C1431 0.961 . S
H1446 C1431 0.961 . S
H1447 C1431 0.961 . S
H1448 C1432 0.931 . S
H1449 C1437 0.930 . S
H1450 C1438 0.956 . S
H1451 C1438 0.961 . S
H1452 C1438 0.961 . S
H1453 C1439 0.958 . S
H1454 C1439 0.961 . S
H1455 C1439 0.960 . S
C1456 C1457 1.391 . S
C1456 C1458 1.394 . S
C1456 H1472 0.931 . S
C1457 C1456 1.391 . S
C1457 C1461 1.376 . S
C1458 C1456 1.394 . S
C1458 C1459 1.369 . S
C1458 C1462 1.531 . S
C1459 C1458 1.369 . S
C1459 C1460 1.410 . S
C1459 C1467 1.503 . S
C1460 C1459 1.410 . S
C1460 C1461 1.392 . S
C1460 C1463 1.511 . S
C1461 C1457 1.376 . S
C1461 C1460 1.392 . S
C1461 H1473 0.929 . S
C1462 C1458 1.531 . S
C1462 H1474 0.960 . S
C1462 H1475 0.962 . S
C1462 H1476 0.960 . S
C1463 C1460 1.511 . S
C1463 H1477 0.961 . S
C1463 H1478 0.961 . S
C1463 H1479 0.961 . S
C1464 C1465 1.370 . S
C1464 C1466 1.363 . S
C1464 H1480 0.931 . S
C1465 C1464 1.370 . S
C1465 C1469 1.408 . S
C1466 C1464 1.363 . S
C1466 C1467 1.370 . S
C1466 C1470 1.524 . S
C1467 C1459 1.503 . S
C1467 C1466 1.370 . S
C1467 C1468 1.403 . S
C1468 C1467 1.403 . S
C1468 C1469 1.404 . S
C1468 C1471 1.539 . S
C1469 C1465 1.408 . S
C1469 C1468 1.404 . S
C1469 H1481 0.930 . S
C1470 C1466 1.524 . S
C1470 H1482 0.956 . S
C1470 H1483 0.961 . S
C1470 H1484 0.961 . S
C1471 C1468 1.539 . S
C1471 H1485 0.958 . S
C1471 H1486 0.961 . S
C1471 H1487 0.960 . S
H1472 C1456 0.931 . S
H1473 C1461 0.929 . S
H1474 C1462 0.960 . S
H1475 C1462 0.962 . S
H1476 C1462 0.960 . S
H1477 C1463 0.961 . S
H1478 C1463 0.961 . S
H1479 C1463 0.961 . S
H1480 C1464 0.931 . S
H1481 C1469 0.930 . S
H1482 C1470 0.956 . S
H1483 C1470 0.961 . S
H1484 C1470 0.961 . S
H1485 C1471 0.958 . S
H1486 C1471 0.961 . S
H1487 C1471 0.960 . S
C1488 C1489 1.391 . S
C1488 C1490 1.394 . S
C1488 H1504 0.931 . S
C1489 C1488 1.391 . S
C1489 C1493 1.376 . S
C1490 C1488 1.394 . S
C1490 C1491 1.369 . S
C1490 C1494 1.531 . S
C1491 C1490 1.369 . S
C1491 C1492 1.410 . S
C1491 C1499 1.503 . S
C1492 C1491 1.410 . S
C1492 C1493 1.392 . S
C1492 C1495 1.511 . S
C1493 C1489 1.376 . S
C1493 C1492 1.392 . S
C1493 H1505 0.929 . S
C1494 C1490 1.531 . S
C1494 H1506 0.960 . S
C1494 H1507 0.962 . S
C1494 H1508 0.960 . S
C1495 C1492 1.511 . S
C1495 H1509 0.961 . S
C1495 H1510 0.961 . S
C1495 H1511 0.961 . S
C1496 C1497 1.370 . S
C1496 C1498 1.363 . S
C1496 H1512 0.931 . S
C1497 C1496 1.370 . S
C1497 C1501 1.408 . S
C1498 C1496 1.363 . S
C1498 C1499 1.370 . S
C1498 C1502 1.524 . S
C1499 C1491 1.503 . S
C1499 C1498 1.370 . S
C1499 C1500 1.403 . S
C1500 C1499 1.403 . S
C1500 C1501 1.404 . S
C1500 C1503 1.539 . S
C1501 C1497 1.408 . S
C1501 C1500 1.404 . S
C1501 H1513 0.930 . S
C1502 C1498 1.524 . S
C1502 H1514 0.956 . S
C1502 H1515 0.961 . S
C1502 H1516 0.961 . S
C1503 C1500 1.539 . S
C1503 H1517 0.958 . S
C1503 H1518 0.961 . S
C1503 H1519 0.960 . S
H1504 C1488 0.931 . S
H1505 C1493 0.929 . S
H1506 C1494 0.960 . S
H1507 C1494 0.962 . S
H1508 C1494 0.960 . S
H1509 C1495 0.961 . S
H1510 C1495 0.961 . S
H1511 C1495 0.961 . S
H1512 C1496 0.931 . S
H1513 C1501 0.930 . S
H1514 C1502 0.956 . S
H1515 C1502 0.961 . S
H1516 C1502 0.961 . S
H1517 C1503 0.958 . S
H1518 C1503 0.961 . S
H1519 C1503 0.960 . S
C1520 C1521 1.391 . S
C1520 C1522 1.394 . S
C1520 H1536 0.931 . S
C1521 C1520 1.391 . S
C1521 C1525 1.376 . S
C1522 C1520 1.394 . S
C1522 C1523 1.369 . S
C1522 C1526 1.531 . S
C1523 C1522 1.369 . S
C1523 C1524 1.410 . S
C1523 C1531 1.503 . S
C1524 C1523 1.410 . S
C1524 C1525 1.392 . S
C1524 C1527 1.511 . S
C1525 C1521 1.376 . S
C1525 C1524 1.392 . S
C1525 H1537 0.929 . S
C1526 C1522 1.531 . S
C1526 H1538 0.960 . S
C1526 H1539 0.962 . S
C1526 H1540 0.960 . S
C1527 C1524 1.511 . S
C1527 H1541 0.961 . S
C1527 H1542 0.961 . S
C1527 H1543 0.961 . S
C1528 C1529 1.370 . S
C1528 C1530 1.363 . S
C1528 H1544 0.931 . S
C1529 C1528 1.370 . S
C1529 C1533 1.408 . S
C1530 C1528 1.363 . S
C1530 C1531 1.370 . S
C1530 C1534 1.524 . S
C1531 C1523 1.503 . S
C1531 C1530 1.370 . S
C1531 C1532 1.403 . S
C1532 C1531 1.403 . S
C1532 C1533 1.404 . S
C1532 C1535 1.539 . S
C1533 C1529 1.408 . S
C1533 C1532 1.404 . S
C1533 H1545 0.930 . S
C1534 C1530 1.524 . S
C1534 H1546 0.956 . S
C1534 H1547 0.961 . S
C1534 H1548 0.961 . S
C1535 C1532 1.539 . S
C1535 H1549 0.958 . S
C1535 H1550 0.961 . S
C1535 H1551 0.960 . S
H1536 C1520 0.931 . S
H1537 C1525 0.929 . S
H1538 C1526 0.960 . S
H1539 C1526 0.962 . S
H1540 C1526 0.960 . S
H1541 C1527 0.961 . S
H1542 C1527 0.961 . S
H1543 C1527 0.961 . S
H1544 C1528 0.931 . S
H1545 C1533 0.930 . S
H1546 C1534 0.956 . S
H1547 C1534 0.961 . S
H1548 C1534 0.961 . S
H1549 C1535 0.958 . S
H1550 C1535 0.961 . S
H1551 C1535 0.960 . S
C1552 C1553 1.391 . S
C1552 C1554 1.394 . S
C1552 H1568 0.931 . S
C1553 C1552 1.391 . S
C1553 C1557 1.376 . S
C1554 C1552 1.394 . S
C1554 C1555 1.369 . S
C1554 C1558 1.531 . S
C1555 C1554 1.369 . S
C1555 C1556 1.410 . S
C1555 C1563 1.503 . S
C1556 C1555 1.410 . S
C1556 C1557 1.392 . S
C1556 C1559 1.511 . S
C1557 C1553 1.376 . S
C1557 C1556 1.392 . S
C1557 H1569 0.929 . S
C1558 C1554 1.531 . S
C1558 H1570 0.960 . S
C1558 H1571 0.962 . S
C1558 H1572 0.960 . S
C1559 C1556 1.511 . S
C1559 H1573 0.961 . S
C1559 H1574 0.961 . S
C1559 H1575 0.961 . S
C1560 C1561 1.370 . S
C1560 C1562 1.363 . S
C1560 H1576 0.931 . S
C1561 C1560 1.370 . S
C1561 C1565 1.408 . S
C1562 C1560 1.363 . S
C1562 C1563 1.370 . S
C1562 C1566 1.524 . S
C1563 C1555 1.503 . S
C1563 C1562 1.370 . S
C1563 C1564 1.403 . S
C1564 C1563 1.403 . S
C1564 C1565 1.404 . S
C1564 C1567 1.539 . S
C1565 C1561 1.408 . S
C1565 C1564 1.404 . S
C1565 H1577 0.930 . S
C1566 C1562 1.524 . S
C1566 H1578 0.956 . S
C1566 H1579 0.961 . S
C1566 H1580 0.961 . S
C1567 C1564 1.539 . S
C1567 H1581 0.958 . S
C1567 H1582 0.961 . S
C1567 H1583 0.960 . S
H1568 C1552 0.931 . S
H1569 C1557 0.929 . S
H1570 C1558 0.960 . S
H1571 C1558 0.962 . S
H1572 C1558 0.960 . S
H1573 C1559 0.961 . S
H1574 C1559 0.961 . S
H1575 C1559 0.961 . S
H1576 C1560 0.931 . S
H1577 C1565 0.930 . S
H1578 C1566 0.956 . S
H1579 C1566 0.961 . S
H1580 C1566 0.961 . S
H1581 C1567 0.958 . S
H1582 C1567 0.961 . S
H1583 C1567 0.960 . S
C1584 C1585 1.391 . S
C1584 C1586 1.394 . S
C1584 H1600 0.931 . S
C1585 C1584 1.391 . S
C1585 C1589 1.376 . S
C1586 C1584 1.394 . S
C1586 C1587 1.369 . S
C1586 C1590 1.531 . S
C1587 C1586 1.369 . S
C1587 C1588 1.410 . S
C1587 C1595 1.503 . S
C1588 C1587 1.410 . S
C1588 C1589 1.392 . S
C1588 C1591 1.511 . S
C1589 C1585 1.376 . S
C1589 C1588 1.392 . S
C1589 H1601 0.929 . S
C1590 C1586 1.531 . S
C1590 H1602 0.960 . S
C1590 H1603 0.962 . S
C1590 H1604 0.960 . S
C1591 C1588 1.511 . S
C1591 H1605 0.961 . S
C1591 H1606 0.961 . S
C1591 H1607 0.961 . S
C1592 C1593 1.370 . S
C1592 C1594 1.363 . S
C1592 H1608 0.931 . S
C1593 C1592 1.370 . S
C1593 C1597 1.408 . S
C1594 C1592 1.363 . S
C1594 C1595 1.370 . S
C1594 C1598 1.524 . S
C1595 C1587 1.503 . S
C1595 C1594 1.370 . S
C1595 C1596 1.403 . S
C1596 C1595 1.403 . S
C1596 C1597 1.404 . S
C1596 C1599 1.539 . S
C1597 C1593 1.408 . S
C1597 C1596 1.404 . S
C1597 H1609 0.930 . S
C1598 C1594 1.524 . S
C1598 H1610 0.956 . S
C1598 H1611 0.961 . S
C1598 H1612 0.961 . S
C1599 C1596 1.539 . S
C1599 H1613 0.958 . S
C1599 H1614 0.961 . S
C1599 H1615 0.960 . S
H1600 C1584 0.931 . S
H1601 C1589 0.929 . S
H1602 C1590 0.960 . S
H1603 C1590 0.962 . S
H1604 C1590 0.960 . S
H1605 C1591 0.961 . S
H1606 C1591 0.961 . S
H1607 C1591 0.961 . S
H1608 C1592 0.931 . S
H1609 C1597 0.930 . S
H1610 C1598 0.956 . S
H1611 C1598 0.961 . S
H1612 C1598 0.961 . S
H1613 C1599 0.958 . S
H1614 C1599 0.961 . S
H1615 C1599 0.960 . S
C1616 C1617 1.391 . S
C1616 C1618 1.394 . S
C1616 H1632 0.931 . S
C1617 C1616 1.391 . S
C1617 C1621 1.376 . S
C1618 C1616 1.394 . S
C1618 C1619 1.369 . S
C1618 C1622 1.531 . S
C1619 C1618 1.369 . S
C1619 C1620 1.410 . S
C1619 C1627 1.503 . S
C1620 C1619 1.410 . S
C1620 C1621 1.392 . S
C1620 C1623 1.511 . S
C1621 C1617 1.376 . S
C1621 C1620 1.392 . S
C1621 H1633 0.929 . S
C1622 C1618 1.531 . S
C1622 H1634 0.960 . S
C1622 H1635 0.962 . S
C1622 H1636 0.960 . S
C1623 C1620 1.511 . S
C1623 H1637 0.961 . S
C1623 H1638 0.961 . S
C1623 H1639 0.961 . S
C1624 C1625 1.370 . S
C1624 C1626 1.363 . S
C1624 H1640 0.931 . S
C1625 C1624 1.370 . S
C1625 C1629 1.408 . S
C1626 C1624 1.363 . S
C1626 C1627 1.370 . S
C1626 C1630 1.524 . S
C1627 C1619 1.503 . S
C1627 C1626 1.370 . S
C1627 C1628 1.403 . S
C1628 C1627 1.403 . S
C1628 C1629 1.404 . S
C1628 C1631 1.539 . S
C1629 C1625 1.408 . S
C1629 C1628 1.404 . S
C1629 H1641 0.930 . S
C1630 C1626 1.524 . S
C1630 H1642 0.956 . S
C1630 H1643 0.961 . S
C1630 H1644 0.961 . S
C1631 C1628 1.539 . S
C1631 H1645 0.958 . S
C1631 H1646 0.961 . S
C1631 H1647 0.960 . S
H1632 C1616 0.931 . S
H1633 C1621 0.929 . S
H1634 C1622 0.960 . S
H1635 C1622 0.962 . S
H1636 C1622 0.960 . S
H1637 C1623 0.961 . S
H1638 C1623 0.961 . S
H1639 C1623 0.961 . S
H1640 C1624 0.931 . S
H1641 C1629 0.930 . S
H1642 C1630 0.956 . S
H1643 C1630 0.961 . S
H1644 C1630 0.961 . S
H1645 C1631 0.958 . S
H1646 C1631 0.961 . S
H1647 C1631 0.960 . S
C1648 C1649 1.391 . S
C1648 C1650 1.394 . S
C1648 H1664 0.931 . S
C1649 C1648 1.391 . S
C1649 C1653 1.376 . S
C1650 C1648 1.394 . S
C1650 C1651 1.369 . S
C1650 C1654 1.531 . S
C1651 C1650 1.369 . S
C1651 C1652 1.410 . S
C1651 C1659 1.503 . S
C1652 C1651 1.410 . S
C1652 C1653 1.392 . S
C1652 C1655 1.511 . S
C1653 C1649 1.376 . S
C1653 C1652 1.392 . S
C1653 H1665 0.929 . S
C1654 C1650 1.531 . S
C1654 H1666 0.960 . S
C1654 H1667 0.962 . S
C1654 H1668 0.960 . S
C1655 C1652 1.511 . S
C1655 H1669 0.961 . S
C1655 H1670 0.961 . S
C1655 H1671 0.961 . S
C1656 C1657 1.370 . S
C1656 C1658 1.363 . S
C1656 H1672 0.931 . S
C1657 C1656 1.370 . S
C1657 C1661 1.408 . S
C1658 C1656 1.363 . S
C1658 C1659 1.370 . S
C1658 C1662 1.524 . S
C1659 C1651 1.503 . S
C1659 C1658 1.370 . S
C1659 C1660 1.403 . S
C1660 C1659 1.403 . S
C1660 C1661 1.404 . S
C1660 C1663 1.539 . S
C1661 C1657 1.408 . S
C1661 C1660 1.404 . S
C1661 H1673 0.930 . S
C1662 C1658 1.524 . S
C1662 H1674 0.956 . S
C1662 H1675 0.961 . S
C1662 H1676 0.961 . S
C1663 C1660 1.539 . S
C1663 H1677 0.958 . S
C1663 H1678 0.961 . S
C1663 H1679 0.960 . S
H1664 C1648 0.931 . S
H1665 C1653 0.929 . S
H1666 C1654 0.960 . S
H1667 C1654 0.962 . S
H1668 C1654 0.960 . S
H1669 C1655 0.961 . S
H1670 C1655 0.961 . S
H1671 C1655 0.961 . S
H1672 C1656 0.931 . S
H1673 C1661 0.930 . S
H1674 C1662 0.956 . S
H1675 C1662 0.961 . S
H1676 C1662 0.961 . S
H1677 C1663 0.958 . S
H1678 C1663 0.961 . S
H1679 C1663 0.960 . S
C1680 C1681 1.391 . S
C1680 C1682 1.394 . S
C1680 H1696 0.931 . S
C1681 C1680 1.391 . S
C1681 C1685 1.376 . S
C1682 C1680 1.394 . S
C1682 C1683 1.369 . S
C1682 C1686 1.531 . S
C1683 C1682 1.369 . S
C1683 C1684 1.410 . S
C1683 C1691 1.503 . S
C1684 C1683 1.410 . S
C1684 C1685 1.392 . S
C1684 C1687 1.511 . S
C1685 C1681 1.376 . S
C1685 C1684 1.392 . S
C1685 H1697 0.929 . S
C1686 C1682 1.531 . S
C1686 H1698 0.960 . S
C1686 H1699 0.962 . S
C1686 H1700 0.960 . S
C1687 C1684 1.511 . S
C1687 H1701 0.961 . S
C1687 H1702 0.961 . S
C1687 H1703 0.961 . S
C1688 C1689 1.370 . S
C1688 C1690 1.363 . S
C1688 H1704 0.931 . S
C1689 C1688 1.370 . S
C1689 C1693 1.408 . S
C1690 C1688 1.363 . S
C1690 C1691 1.370 . S
C1690 C1694 1.524 . S
C1691 C1683 1.503 . S
C1691 C1690 1.370 . S
C1691 C1692 1.403 . S
C1692 C1691 1.403 . S
C1692 C1693 1.404 . S
C1692 C1695 1.539 . S
C1693 C1689 1.408 . S
C1693 C1692 1.404 . S
C1693 H1705 0.930 . S
C1694 C1690 1.524 . S
C1694 H1706 0.956 . S
C1694 H1707 0.961 . S
C1694 H1708 0.961 . S
C1695 C1692 1.539 . S
C1695 H1709 0.958 . S
C1695 H1710 0.961 . S
C1695 H1711 0.960 . S
H1696 C1680 0.931 . S
H1697 C1685 0.929 . S
H1698 C1686 0.960 . S
H1699 C1686 0.962 . S
H1700 C1686 0.960 . S
H1701 C1687 0.961 . S
H1702 C1687 0.961 . S
H1703 C1687 0.961 . S
H1704 C1688 0.931 . S
H1705 C1693 0.930 . S
H1706 C1694 0.956 . S
H1707 C1694 0.961 . S
H1708 C1694 0.961 . S
H1709 C1695 0.958 . S
H1710 C1695 0.961 . S
H1711 C1695 0.960 . S
C1712 C1713 1.391 . S
C1712 C1714 1.394 . S
C1712 H1728 0.931 . S
C1713 C1712 1.391 . S
C1713 C1717 1.376 . S
C1714 C1712 1.394 . S
C1714 C1715 1.369 . S
C1714 C1718 1.531 . S
C1715 C1714 1.369 . S
C1715 C1716 1.410 . S
C1715 C1723 1.503 . S
C1716 C1715 1.410 . S
C1716 C1717 1.392 . S
C1716 C1719 1.511 . S
C1717 C1713 1.376 . S
C1717 C1716 1.392 . S
C1717 H1729 0.929 . S
C1718 C1714 1.531 . S
C1718 H1730 0.960 . S
C1718 H1731 0.962 . S
C1718 H1732 0.960 . S
C1719 C1716 1.511 . S
C1719 H1733 0.961 . S
C1719 H1734 0.961 . S
C1719 H1735 0.961 . S
C1720 C1721 1.370 . S
C1720 C1722 1.363 . S
C1720 H1736 0.931 . S
C1721 C1720 1.370 . S
C1721 C1725 1.408 . S
C1722 C1720 1.363 . S
C1722 C1723 1.370 . S
C1722 C1726 1.524 . S
C1723 C1715 1.503 . S
C1723 C1722 1.370 . S
C1723 C1724 1.403 . S
C1724 C1723 1.403 . S
C1724 C1725 1.404 . S
C1724 C1727 1.539 . S
C1725 C1721 1.408 . S
C1725 C1724 1.404 . S
C1725 H1737 0.930 . S
C1726 C1722 1.524 . S
C1726 H1738 0.956 . S
C1726 H1739 0.961 . S
C1726 H1740 0.961 . S
C1727 C1724 1.539 . S
C1727 H1741 0.958 . S
C1727 H1742 0.961 . S
C1727 H1743 0.960 . S
H1728 C1712 0.931 . S
H1729 C1717 0.929 . S
H1730 C1718 0.960 . S
H1731 C1718 0.962 . S
H1732 C1718 0.960 . S
H1733 C1719 0.961 . S
H1734 C1719 0.961 . S
H1735 C1719 0.961 . S
H1736 C1720 0.931 . S
H1737 C1725 0.930 . S
H1738 C1726 0.956 . S
H1739 C1726 0.961 . S
H1740 C1726 0.961 . S
H1741 C1727 0.958 . S
H1742 C1727 0.961 . S
H1743 C1727 0.960 . S
C1744 C1745 1.391 . S
C1744 C1746 1.394 . S
C1744 H1760 0.931 . S
C1745 C1744 1.391 . S
C1745 C1749 1.376 . S
C1746 C1744 1.394 . S
C1746 C1747 1.369 . S
C1746 C1750 1.531 . S
C1747 C1746 1.369 . S
C1747 C1748 1.410 . S
C1747 C1755 1.503 . S
C1748 C1747 1.410 . S
C1748 C1749 1.392 . S
C1748 C1751 1.511 . S
C1749 C1745 1.376 . S
C1749 C1748 1.392 . S
C1749 H1761 0.929 . S
C1750 C1746 1.531 . S
C1750 H1762 0.960 . S
C1750 H1763 0.962 . S
C1750 H1764 0.960 . S
C1751 C1748 1.511 . S
C1751 H1765 0.961 . S
C1751 H1766 0.961 . S
C1751 H1767 0.961 . S
C1752 C1753 1.370 . S
C1752 C1754 1.363 . S
C1752 H1768 0.931 . S
C1753 C1752 1.370 . S
C1753 C1757 1.408 . S
C1754 C1752 1.363 . S
C1754 C1755 1.370 . S
C1754 C1758 1.524 . S
C1755 C1747 1.503 . S
C1755 C1754 1.370 . S
C1755 C1756 1.403 . S
C1756 C1755 1.403 . S
C1756 C1757 1.404 . S
C1756 C1759 1.539 . S
C1757 C1753 1.408 . S
C1757 C1756 1.404 . S
C1757 H1769 0.930 . S
C1758 C1754 1.524 . S
C1758 H1770 0.956 . S
C1758 H1771 0.961 . S
C1758 H1772 0.961 . S
C1759 C1756 1.539 . S
C1759 H1773 0.958 . S
C1759 H1774 0.961 . S
C1759 H1775 0.960 . S
H1760 C1744 0.931 . S
H1761 C1749 0.929 . S
H1762 C1750 0.960 . S
H1763 C1750 0.962 . S
H1764 C1750 0.960 . S
H1765 C1751 0.961 . S
H1766 C1751 0.961 . S
H1767 C1751 0.961 . S
H1768 C1752 0.931 . S
H1769 C1757 0.930 . S
H1770 C1758 0.956 . S
H1771 C1758 0.961 . S
H1772 C1758 0.961 . S
H1773 C1759 0.958 . S
H1774 C1759 0.961 . S
H1775 C1759 0.960 . S
C1776 C1777 1.391 . S
C1776 C1778 1.394 . S
C1776 H1792 0.931 . S
C1777 C1776 1.391 . S
C1777 C1781 1.376 . S
C1778 C1776 1.394 . S
C1778 C1779 1.369 . S
C1778 C1782 1.531 . S
C1779 C1778 1.369 . S
C1779 C1780 1.410 . S
C1779 C1787 1.503 . S
C1780 C1779 1.410 . S
C1780 C1781 1.392 . S
C1780 C1783 1.511 . S
C1781 C1777 1.376 . S
C1781 C1780 1.392 . S
C1781 H1793 0.929 . S
C1782 C1778 1.531 . S
C1782 H1794 0.960 . S
C1782 H1795 0.962 . S
C1782 H1796 0.960 . S
C1783 C1780 1.511 . S
C1783 H1797 0.961 . S
C1783 H1798 0.961 . S
C1783 H1799 0.961 . S
C1784 C1785 1.370 . S
C1784 C1786 1.363 . S
C1784 H1800 0.931 . S
C1785 C1784 1.370 . S
C1785 C1789 1.408 . S
C1786 C1784 1.363 . S
C1786 C1787 1.370 . S
C1786 C1790 1.524 . S
C1787 C1779 1.503 . S
C1787 C1786 1.370 . S
C1787 C1788 1.403 . S
C1788 C1787 1.403 . S
C1788 C1789 1.404 . S
C1788 C1791 1.539 . S
C1789 C1785 1.408 . S
C1789 C1788 1.404 . S
C1789 H1801 0.930 . S
C1790 C1786 1.524 . S
C1790 H1802 0.956 . S
C1790 H1803 0.961 . S
C1790 H1804 0.961 . S
C1791 C1788 1.539 . S
C1791 H1805 0.958 . S
C1791 H1806 0.961 . S
C1791 H1807 0.960 . S
H1792 C1776 0.931 . S
H1793 C1781 0.929 . S
H1794 C1782 0.960 . S
H1795 C1782 0.962 . S
H1796 C1782 0.960 . S
H1797 C1783 0.961 . S
H1798 C1783 0.961 . S
H1799 C1783 0.961 . S
H1800 C1784 0.931 . S
H1801 C1789 0.930 . S
H1802 C1790 0.956 . S
H1803 C1790 0.961 . S
H1804 C1790 0.961 . S
H1805 C1791 0.958 . S
H1806 C1791 0.961 . S
H1807 C1791 0.960 . S
C1808 C1809 1.391 . S
C1808 C1810 1.394 . S
C1808 H1824 0.931 . S
C1809 C1808 1.391 . S
C1809 C1813 1.376 . S
C1810 C1808 1.394 . S
C1810 C1811 1.369 . S
C1810 C1814 1.531 . S
C1811 C1810 1.369 . S
C1811 C1812 1.410 . S
C1811 C1819 1.503 . S
C1812 C1811 1.410 . S
C1812 C1813 1.392 . S
C1812 C1815 1.511 . S
C1813 C1809 1.376 . S
C1813 C1812 1.392 . S
C1813 H1825 0.929 . S
C1814 C1810 1.531 . S
C1814 H1826 0.960 . S
C1814 H1827 0.962 . S
C1814 H1828 0.960 . S
C1815 C1812 1.511 . S
C1815 H1829 0.961 . S
C1815 H1830 0.961 . S
C1815 H1831 0.961 . S
C1816 C1817 1.370 . S
C1816 C1818 1.363 . S
C1816 H1832 0.931 . S
C1817 C1816 1.370 . S
C1817 C1821 1.408 . S
C1818 C1816 1.363 . S
C1818 C1819 1.370 . S
C1818 C1822 1.524 . S
C1819 C1811 1.503 . S
C1819 C1818 1.370 . S
C1819 C1820 1.403 . S
C1820 C1819 1.403 . S
C1820 C1821 1.404 . S
C1820 C1823 1.539 . S
C1821 C1817 1.408 . S
C1821 C1820 1.404 . S
C1821 H1833 0.930 . S
C1822 C1818 1.524 . S
C1822 H1834 0.956 . S
C1822 H1835 0.961 . S
C1822 H1836 0.961 . S
C1823 C1820 1.539 . S
C1823 H1837 0.958 . S
C1823 H1838 0.961 . S
C1823 H1839 0.960 . S
H1824 C1808 0.931 . S
H1825 C1813 0.929 . S
H1826 C1814 0.960 . S
H1827 C1814 0.962 . S
H1828 C1814 0.960 . S
H1829 C1815 0.961 . S
H1830 C1815 0.961 . S
H1831 C1815 0.961 . S
H1832 C1816 0.931 . S
H1833 C1821 0.930 . S
H1834 C1822 0.956 . S
H1835 C1822 0.961 . S
H1836 C1822 0.961 . S
H1837 C1823 0.958 . S
H1838 C1823 0.961 . S
H1839 C1823 0.960 . S
C1840 C1841 1.391 . S
C1840 C1842 1.394 . S
C1840 H1856 0.931 . S
C1841 C1840 1.391 . S
C1841 C1845 1.376 . S
C1842 C1840 1.394 . S
C1842 C1843 1.369 . S
C1842 C1846 1.531 . S
C1843 C1842 1.369 . S
C1843 C1844 1.410 . S
C1843 C1851 1.503 . S
C1844 C1843 1.410 . S
C1844 C1845 1.392 . S
C1844 C1847 1.511 . S
C1845 C1841 1.376 . S
C1845 C1844 1.392 . S
C1845 H1857 0.929 . S
C1846 C1842 1.531 . S
C1846 H1858 0.960 . S
C1846 H1859 0.962 . S
C1846 H1860 0.960 . S
C1847 C1844 1.511 . S
C1847 H1861 0.961 . S
C1847 H1862 0.961 . S
C1847 H1863 0.961 . S
C1848 C1849 1.370 . S
C1848 C1850 1.363 . S
C1848 H1864 0.931 . S
C1849 C1848 1.370 . S
C1849 C1853 1.408 . S
C1850 C1848 1.363 . S
C1850 C1851 1.370 . S
C1850 C1854 1.524 . S
C1851 C1843 1.503 . S
C1851 C1850 1.370 . S
C1851 C1852 1.403 . S
C1852 C1851 1.403 . S
C1852 C1853 1.404 . S
C1852 C1855 1.539 . S
C1853 C1849 1.408 . S
C1853 C1852 1.404 . S
C1853 H1865 0.930 . S
C1854 C1850 1.524 . S
C1854 H1866 0.956 . S
C1854 H1867 0.961 . S
C1854 H1868 0.961 . S
C1855 C1852 1.539 . S
C1855 H1869 0.958 . S
C1855 H1870 0.961 . S
C1855 H1871 0.960 . S
H1856 C1840 0.931 . S
H1857 C1845 0.929 . S
H1858 C1846 0.960 . S
H1859 C1846 0.962 . S
H1860 C1846 0.960 . S
H1861 C1847 0.961 . S
H1862 C1847 0.961 . S
H1863 C1847 0.961 . S
H1864 C1848 0.931 . S
H1865 C1853 0.930 . S
H1866 C1854 0.956 . S
H1867 C1854 0.961 . S
H1868 C1854 0.961 . S
H1869 C1855 0.958 . S
H1870 C1855 0.961 . S
H1871 C1855 0.960 . S
C337 C12 1.420 . S
C345 C110 1.417 . S
C369 C124 1.406 . S
C377 C26 1.412 . S
C401 C40 1.401 . S
C409 C138 1.411 . S
C433 C54 1.419 . S
C441 C152 1.417 . S
C465 C166 1.422 . S
C473 C68 1.422 . S
C497 C82 1.425 . S
C505 C96 1.423 . S
C529 C173 1.149 . S
C537 C271 1.106 . S
C561 C187 1.024 . S
C569 C285 1.065 . S
C593 C299 1.153 . S
C601 C201 1.111 . S
C625 C215 1.144 . S
C633 C313 1.101 . S
C657 C229 1.121 . S
C665 C327 1.115 . S
C689 C257 1.150 . S
C697 C243 1.116 . S
C721 C5 0.967 . S
C729 C117 0.934 . S
C753 C131 0.997 . S
C761 C19 0.988 . S
C785 C145 0.899 . S
C793 C33 0.956 . S
C817 C47 0.937 . S
C825 C159 0.925 . S
C849 C61 0.871 . S
C857 C89 0.937 . S
C881 C75 1.035 . S
C889 C103 0.980 . S
C913 C292 1.316 . S
C921 C180 1.320 . S
C945 C194 1.312 . S
C953 C306 1.317 . S
C977 C320 1.317 . S
C985 C208 1.317 . S
C1009 C334 1.320 . S
C1017 C222 1.320 . S
C1041 C264 1.311 . S
C1049 C236 1.317 . S
C1073 C250 1.316 . S
C1081 C278 1.320 . S
C1105 C11 1.487 . S
C1113 C221 1.487 . S
C1137 C235 1.506 . S
C1145 C25 1.487 . S
C1169 C249 1.498 . S
C1177 C39 1.494 . S
C1201 C53 1.491 . S
C1209 C179 1.487 . S
C1233 C67 1.498 . S
C1241 C193 1.487 . S
C1265 C207 1.498 . S
C1273 C81 1.494 . S
C1297 C305 1.506 . S
C1305 C95 1.485 . S
C1329 C319 1.481 . S
C1337 C109 1.497 . S
C1361 C333 1.483 . S
C1369 C123 1.484 . S
C1393 C263 1.497 . S
C1401 C137 1.495 . S
C1425 C151 1.470 . S
C1433 C277 1.499 . S
C1457 C165 1.469 . S
C1465 C291 1.499 . S
C1489 C4 1.479 . S
C1497 C144 1.461 . S
C1521 C158 1.476 . S
C1529 C18 1.471 . S
C1553 C88 1.442 . S
C1561 C32 1.462 . S
C1585 C46 1.477 . S
C1593 C102 1.459 . S
C1617 C60 1.460 . S
C1625 C116 1.468 . S
C1649 C74 1.436 . S
C1657 C130 1.459 . S
C1681 C172 1.518 . S
C1689 C312 1.511 . S
C1713 C186 1.491 . S
C1721 C326 1.505 . S
C1745 C200 1.512 . S
C1753 C256 1.507 . S
C1777 C270 1.515 . S
C1785 C214 1.513 . S
C1809 C228 1.501 . S
C1817 C284 1.510 . S
C1841 C242 1.489 . S
C1849 C298 1.500 . S
