# Generated by pormake.
# Topology noy, (5)-cn, num edge types: 1
# Building blocks:
#     Node 0, Type 0, BuildingBlock: XOMCOT_clean_sbu_0, # of connection points: 5
#     Node 1, Type 0, BuildingBlock: XOMCOT_clean_sbu_0, # of connection points: 5
#     Node 2, Type 0, BuildingBlock: XOMCOT_clean_sbu_0, # of connection points: 5
#     Node 3, Type 0, BuildingBlock: XOMCOT_clean_sbu_0, # of connection points: 5
#     Node 4, Type 0, BuildingBlock: XOMCOT_clean_sbu_0, # of connection points: 5
#     Node 5, Type 0, BuildingBlock: XOMCOT_clean_sbu_0, # of connection points: 5
#     Node 6, Type 0, BuildingBlock: XOMCOT_clean_sbu_0, # of connection points: 5
#     Node 7, Type 0, BuildingBlock: XOMCOT_clean_sbu_0, # of connection points: 5
#     Edge 8, Type (0, 0), BuildingBlock: XIVTED_clean_linker_0, # of connection points: 2
#     Edge 9, Type (0, 0), BuildingBlock: XIVTED_clean_linker_0, # of connection points: 2
#     Edge 10, Type (0, 0), BuildingBlock: XIVTED_clean_linker_0, # of connection points: 2
#     Edge 11, Type (0, 0), BuildingBlock: XIVTED_clean_linker_0, # of connection points: 2
#     Edge 12, Type (0, 0), BuildingBlock: XIVTED_clean_linker_0, # of connection points: 2
#     Edge 13, Type (0, 0), BuildingBlock: XIVTED_clean_linker_0, # of connection points: 2
#     Edge 14, Type (0, 0), BuildingBlock: XIVTED_clean_linker_0, # of connection points: 2
#     Edge 15, Type (0, 0), BuildingBlock: XIVTED_clean_linker_0, # of connection points: 2
#     Edge 16, Type (0, 0), BuildingBlock: XIVTED_clean_linker_0, # of connection points: 2
#     Edge 17, Type (0, 0), BuildingBlock: XIVTED_clean_linker_0, # of connection points: 2
#     Edge 18, Type (0, 0), BuildingBlock: XIVTED_clean_linker_0, # of connection points: 2
#     Edge 19, Type (0, 0), BuildingBlock: XIVTED_clean_linker_0, # of connection points: 2
#     Edge 20, Type (0, 0), BuildingBlock: XIVTED_clean_linker_0, # of connection points: 2
#     Edge 21, Type (0, 0), BuildingBlock: XIVTED_clean_linker_0, # of connection points: 2
#     Edge 22, Type (0, 0), BuildingBlock: XIVTED_clean_linker_0, # of connection points: 2
#     Edge 23, Type (0, 0), BuildingBlock: XIVTED_clean_linker_0, # of connection points: 2
#     Edge 24, Type (0, 0), BuildingBlock: XIVTED_clean_linker_0, # of connection points: 2
#     Edge 25, Type (0, 0), BuildingBlock: XIVTED_clean_linker_0, # of connection points: 2
#     Edge 26, Type (0, 0), BuildingBlock: XIVTED_clean_linker_0, # of connection points: 2
#     Edge 27, Type (0, 0), BuildingBlock: XIVTED_clean_linker_0, # of connection points: 2
# Relax obj value: 0.203
# Max RMSD: 0.216
# Mean RMSD: 0.216
data_MOF--net-noy--node1-XOMCOT_clean_sbu_0--edge1-XIVTED_clean_linker_0
_symmetry_space_group_name_H-M    P1
_symmetry_Int_Tables_number       1
_symmetry_cell_setting            triclinic
loop_
_symmetry_equiv_pos_as_xyz
'x, y, z'
_cell_length_a     49.158825
_cell_length_b     47.75515
_cell_length_c     20.06555
_cell_angle_alpha  90.038296
_cell_angle_beta   90.24013
_cell_angle_gamma 89.947038
loop_
_atom_site_label
_atom_site_type_symbol
_atom_site_fract_x
_atom_site_fract_y
_atom_site_fract_z
_atom_type_partial_charge
Co0 Co 0.31185 0.38458 0.34455 0.0
C1 C 0.31915 0.42583 0.23068 0.0
C2 C 0.28139 0.40342 0.22896 0.0
C3 C 0.28209 0.42068 0.17445 0.0
N4 N 0.30488 0.40594 0.26356 0.0
N5 N 0.30579 0.43471 0.17558 0.0
H6 H 0.33862 0.43399 0.24581 0.0
H7 H 0.2648 0.38974 0.24257 0.0
C8 C 0.30352 0.34236 0.238 0.0
O9 O 0.3211 0.35711 0.20353 0.0
N10 N 0.31709 0.36327 0.42518 0.0
C11 C 0.33558 0.36804 0.47361 0.0
C12 C 0.33042 0.35012 0.52591 0.0
C13 C 0.30106 0.34255 0.44816 0.0
N14 N 0.30877 0.33413 0.50963 0.0
C15 C 0.36764 0.39763 0.31934 0.0
C16 C 0.38614 0.34349 0.30185 0.0
C17 C 0.4046 0.36572 0.29554 0.0
C18 C 0.39503 0.39301 0.30581 0.0
C19 C 0.3587 0.34913 0.31535 0.0
N20 N 0.34943 0.37611 0.32019 0.0
H21 H 0.36133 0.41864 0.33126 0.0
H22 H 0.34505 0.33172 0.32291 0.0
H23 H 0.35121 0.38394 0.47175 0.0
H24 H 0.28342 0.33467 0.42175 0.0
O25 O 0.31876 0.4185 0.39337 0.0
O26 O 0.27791 0.39964 0.38044 0.0
O27 O 0.29756 0.34982 0.29757 0.0
C28 C 0.29292 0.41962 0.4053 0.0
H29 H 0.26612 0.42329 0.13764 0.0
H30 H 0.34152 0.34912 0.57255 0.0
H31 H 0.39278 0.32199 0.29627 0.0
H32 H 0.40876 0.41073 0.30515 0.0
Co33 Co 0.69664 0.63532 0.83399 0.0
C34 C 0.68667 0.59576 0.71767 0.0
C35 C 0.72661 0.61371 0.72109 0.0
C36 C 0.72488 0.59692 0.66577 0.0
N37 N 0.70258 0.61351 0.75331 0.0
N38 N 0.6998 0.58568 0.6636 0.0
H39 H 0.66608 0.59019 0.7298 0.0
H40 H 0.74426 0.62555 0.7368 0.0
C41 C 0.70686 0.67709 0.72771 0.0
O42 O 0.6891 0.66288 0.69214 0.0
N43 N 0.69237 0.65699 0.91439 0.0
C44 C 0.67343 0.65356 0.96201 0.0
C45 C 0.67974 0.67087 0.01489 0.0
C46 C 0.70985 0.67626 0.93849 0.0
N47 N 0.70261 0.6851 0.99986 0.0
C48 C 0.64024 0.62477 0.81079 0.0
C49 C 0.62379 0.67969 0.79435 0.0
C50 C 0.60414 0.65846 0.79464 0.0
C51 C 0.61272 0.63075 0.80272 0.0
C52 C 0.65129 0.67277 0.80345 0.0
N53 N 0.65941 0.64541 0.80903 0.0
H54 H 0.64589 0.60344 0.82155 0.0
H55 H 0.6658 0.68958 0.80889 0.0
H56 H 0.6567 0.6389 0.95928 0.0
H57 H 0.72813 0.68274 0.9129 0.0
O58 O 0.68821 0.60198 0.88305 0.0
O59 O 0.72988 0.61879 0.87126 0.0
O60 O 0.71243 0.66929 0.78732 0.0
C61 C 0.7139 0.5998 0.89654 0.0
H62 H 0.74104 0.59279 0.6306 0.0
H63 H 0.66854 0.67268 0.06102 0.0
H64 H 0.61783 0.70148 0.79051 0.0
H65 H 0.59814 0.61376 0.80444 0.0
Co66 Co 0.31136 0.63673 0.68344 0.0
C67 C 0.31979 0.59672 0.79852 0.0
C68 C 0.28783 0.62635 0.815 0.0
C69 C 0.28948 0.60919 0.8696 0.0
N70 N 0.30764 0.61954 0.77134 0.0
N71 N 0.30956 0.59061 0.85917 0.0
H72 H 0.33473 0.58385 0.77401 0.0
H73 H 0.27245 0.64217 0.80686 0.0
C74 C 0.30667 0.68495 0.77592 0.0
O75 O 0.32649 0.67278 0.80928 0.0
N76 N 0.31333 0.65366 0.59628 0.0
C77 C 0.33006 0.6468 0.54584 0.0
C78 C 0.32336 0.66295 0.49113 0.0
C79 C 0.29678 0.67376 0.57197 0.0
N80 N 0.30249 0.67991 0.50785 0.0
C81 C 0.36776 0.62653 0.71099 0.0
C82 C 0.38549 0.68128 0.70222 0.0
C83 C 0.40401 0.6604 0.7213 0.0
C84 C 0.39494 0.63266 0.72385 0.0
C85 C 0.3582 0.67417 0.69034 0.0
N86 N 0.34929 0.64724 0.699 0.0
H87 H 0.36188 0.60492 0.70882 0.0
H88 H 0.34417 0.69038 0.67493 0.0
H89 H 0.34581 0.63101 0.5485 0.0
H90 H 0.2804 0.68316 0.60009 0.0
O91 O 0.31807 0.60054 0.64532 0.0
O92 O 0.27699 0.61897 0.65808 0.0
O93 O 0.29772 0.67361 0.72212 0.0
C94 C 0.29197 0.59788 0.63893 0.0
H95 H 0.27604 0.60937 0.91222 0.0
H96 H 0.33319 0.6624 0.44297 0.0
H97 H 0.39189 0.70289 0.69762 0.0
H98 H 0.4089 0.61567 0.73458 0.0
Co99 Co 0.69848 0.38235 0.18453 0.0
C100 C 0.68232 0.4234 0.2901 0.0
C101 C 0.70466 0.38873 0.33042 0.0
C102 C 0.69826 0.40653 0.3816 0.0
N103 N 0.69457 0.39905 0.27276 0.0
N104 N 0.68436 0.42837 0.3563 0.0
H105 H 0.67233 0.43735 0.25533 0.0
H106 H 0.71628 0.36977 0.33582 0.0
C107 C 0.70937 0.32239 0.2247 0.0
O108 O 0.68957 0.31408 0.18517 0.0
N109 N 0.70358 0.36581 0.09584 0.0
C110 C 0.69407 0.37525 0.03666 0.0
C111 C 0.70355 0.35832 0.9863 0.0
C112 C 0.72032 0.34442 0.07925 0.0
N113 N 0.71996 0.33869 0.0132 0.0
C114 C 0.64338 0.37383 0.14395 0.0
C115 C 0.62501 0.34955 0.2602 0.0
C116 C 0.60597 0.35749 0.21136 0.0
C117 C 0.61575 0.36868 0.15163 0.0
C118 C 0.65282 0.35459 0.24983 0.0
N119 N 0.66174 0.367 0.19239 0.0
H120 H 0.64947 0.38526 0.10066 0.0
H121 H 0.66694 0.34977 0.28953 0.0
H122 H 0.68178 0.39376 0.0294 0.0
H123 H 0.73359 0.334 0.11416 0.0
O124 O 0.68854 0.41748 0.14469 0.0
O125 O 0.7309 0.40506 0.16938 0.0
O126 O 0.7158 0.34832 0.22768 0.0
C127 C 0.71418 0.42384 0.14557 0.0
H128 H 0.70448 0.40426 0.43315 0.0
H129 H 0.69871 0.36055 0.93396 0.0
H130 H 0.61842 0.34106 0.30748 0.0
H131 H 0.60198 0.37486 0.112 0.0
Co132 Co 0.81222 0.88241 0.32552 0.0
C133 C 0.82887 0.92012 0.21414 0.0
C134 C 0.79693 0.89179 0.18602 0.0
C135 C 0.80289 0.90835 0.13221 0.0
N136 N 0.81347 0.89876 0.23713 0.0
N137 N 0.82285 0.92618 0.14986 0.0
H138 H 0.84366 0.93136 0.24398 0.0
H139 H 0.78068 0.87667 0.18832 0.0
C140 C 0.80067 0.82181 0.29192 0.0
O141 O 0.81952 0.81373 0.3344 0.0
N142 N 0.80967 0.86613 0.4148 0.0
C143 C 0.82261 0.87402 0.47129 0.0
C144 C 0.8135 0.85792 0.52356 0.0
C145 C 0.79158 0.84659 0.43508 0.0
N146 N 0.79408 0.84046 0.50061 0.0
C147 C 0.86892 0.87646 0.35501 0.0
C148 C 0.88238 0.84261 0.24855 0.0
C149 C 0.90285 0.85026 0.29411 0.0
C150 C 0.89574 0.86768 0.34742 0.0
C151 C 0.85561 0.85192 0.25817 0.0
N152 N 0.84891 0.86769 0.31265 0.0
H153 H 0.86466 0.89139 0.39355 0.0
H154 H 0.84042 0.84679 0.2211 0.0
H155 H 0.83674 0.89116 0.47589 0.0
H156 H 0.77662 0.83719 0.40262 0.0
O157 O 0.82208 0.91796 0.36311 0.0
O158 O 0.77959 0.90418 0.34467 0.0
O159 O 0.79503 0.8478 0.28482 0.0
C160 C 0.79628 0.92354 0.36559 0.0
H161 H 0.79226 0.90842 0.08483 0.0
H162 H 0.82017 0.8596 0.57486 0.0
H163 H 0.88699 0.82974 0.20561 0.0
H164 H 0.911 0.87549 0.3818 0.0
Co165 Co 0.1971 0.13542 0.83193 0.0
C166 C 0.18267 0.09504 0.72322 0.0
C167 C 0.21943 0.11795 0.70415 0.0
C168 C 0.21431 0.10086 0.65061 0.0
N169 N 0.19948 0.11466 0.74929 0.0
N170 N 0.19127 0.08649 0.66247 0.0
H171 H 0.16454 0.08742 0.74768 0.0
H172 H 0.23676 0.13166 0.7099 0.0
C173 C 0.2104 0.19374 0.7878 0.0
O174 O 0.18981 0.20277 0.82346 0.0
N175 N 0.19629 0.15634 0.91595 0.0
C176 C 0.18041 0.15239 0.96996 0.0
C177 C 0.18866 0.17015 0.02017 0.0
C178 C 0.21506 0.17524 0.93638 0.0
N179 N 0.2104 0.18472 0.99883 0.0
C180 C 0.13962 0.14334 0.84329 0.0
C181 C 0.13125 0.1703 0.72325 0.0
C182 C 0.10902 0.16562 0.76538 0.0
C183 C 0.1135 0.15181 0.82577 0.0
C184 C 0.15739 0.16195 0.74362 0.0
N185 N 0.16147 0.14955 0.80438 0.0
H186 H 0.14186 0.13052 0.88678 0.0
H187 H 0.17419 0.16489 0.70982 0.0
H188 H 0.16484 0.13671 0.97519 0.0
H189 H 0.23243 0.18124 0.90688 0.0
O190 O 0.18485 0.1026 0.87769 0.0
O191 O 0.22821 0.11448 0.86677 0.0
O192 O 0.21641 0.16767 0.7868 0.0
C193 C 0.21016 0.09725 0.89091 0.0
H194 H 0.227 0.09854 0.60697 0.0
H195 H 0.17943 0.17187 0.06884 0.0
H196 H 0.12844 0.18009 0.67505 0.0
H197 H 0.09668 0.1464 0.85803 0.0
Co198 Co 0.81644 0.1342 0.67479 0.0
C199 C 0.82758 0.09415 0.78985 0.0
C200 C 0.78851 0.11412 0.79228 0.0
C201 C 0.7908 0.09727 0.8473 0.0
N202 N 0.81172 0.11284 0.75674 0.0
N203 N 0.81532 0.08475 0.84581 0.0
H204 H 0.84745 0.08734 0.77436 0.0
H205 H 0.771 0.12669 0.77898 0.0
C206 C 0.80804 0.1764 0.78114 0.0
O207 O 0.82645 0.16232 0.81502 0.0
N208 N 0.81953 0.15533 0.59314 0.0
C209 C 0.8371 0.15048 0.54304 0.0
C210 C 0.83018 0.16738 0.48996 0.0
C211 C 0.80232 0.17518 0.57033 0.0
N212 N 0.80839 0.18287 0.50738 0.0
C213 C 0.87325 0.12359 0.69256 0.0
C214 C 0.88971 0.17876 0.7023 0.0
C215 C 0.90949 0.15764 0.70039 0.0
C216 C 0.90092 0.12977 0.6958 0.0
C217 C 0.86212 0.17165 0.69812 0.0
N218 N 0.85405 0.14422 0.69551 0.0
H219 H 0.86745 0.10214 0.68402 0.0
H220 H 0.84741 0.18835 0.69373 0.0
H221 H 0.8532 0.13504 0.54422 0.0
H222 H 0.78497 0.18286 0.59793 0.0
O223 O 0.82384 0.1005 0.62608 0.0
O224 O 0.78251 0.11787 0.64153 0.0
O225 O 0.80164 0.16859 0.72201 0.0
C226 C 0.79793 0.09859 0.61521 0.0
H227 H 0.77536 0.0939 0.88476 0.0
H228 H 0.84015 0.16802 0.44197 0.0
H229 H 0.89553 0.20062 0.70378 0.0
H230 H 0.91554 0.11281 0.69331 0.0
Co231 Co 0.19309 0.88104 0.19179 0.0
C232 C 0.17797 0.9188 0.30447 0.0
C233 C 0.21093 0.89109 0.32912 0.0
C234 C 0.2056 0.90757 0.38355 0.0
N235 N 0.19342 0.89777 0.2798 0.0
N236 N 0.18497 0.92502 0.36813 0.0
H237 H 0.16231 0.92956 0.27633 0.0
H238 H 0.22725 0.87606 0.32524 0.0
C239 C 0.2071 0.82043 0.21933 0.0
O240 O 0.18892 0.81244 0.17506 0.0
N241 N 0.19397 0.86416 0.1032 0.0
C242 C 0.17566 0.86524 0.05296 0.0
C243 C 0.18506 0.84945 1.00042 0.0
C244 C 0.21477 0.84878 0.07884 0.0
N245 N 0.20961 0.8388 0.0169 0.0
C246 C 0.13549 0.87901 0.17462 0.0
C247 C 0.124 0.83919 0.26998 0.0
C248 C 0.10269 0.84981 0.23061 0.0
C249 C 0.10876 0.87038 0.18345 0.0
C250 C 0.15076 0.84835 0.25894 0.0
N251 N 0.15645 0.86692 0.20896 0.0
H252 H 0.13907 0.896 0.14058 0.0
H253 H 0.16666 0.84088 0.29164 0.0
H254 H 0.15677 0.87661 0.05293 0.0
H255 H 0.23319 0.84468 0.10679 0.0
O256 O 0.18296 0.91642 0.154 0.0
O257 O 0.22557 0.90252 0.16844 0.0
O258 O 0.211 0.84647 0.23091 0.0
C259 C 0.20865 0.92187 0.14852 0.0
H260 H 0.21698 0.90774 0.42988 0.0
H261 H 0.17418 0.84562 0.95437 0.0
H262 H 0.12007 0.82402 0.30885 0.0
H263 H 0.09283 0.88043 0.15463 0.0
H264 H 0.43954 0.32502 0.34397 0.0
H265 H 0.56882 0.39736 0.17691 0.0
H266 H 0.43627 0.39586 0.21077 0.0
H267 H 0.57494 0.31746 0.27642 0.0
H268 H 0.52013 0.39697 0.19372 0.0
H269 H 0.48867 0.32109 0.32294 0.0
C270 C 0.44906 0.33954 0.30982 0.0
C271 C 0.4338 0.36105 0.27973 0.0
C272 C 0.53195 0.37935 0.21164 0.0
C273 C 0.48986 0.35687 0.25622 0.0
C274 C 0.5599 0.37946 0.20164 0.0
C275 C 0.57611 0.35711 0.224 0.0
C276 C 0.51975 0.35687 0.24508 0.0
C277 C 0.56326 0.3351 0.25817 0.0
C278 C 0.4771 0.33737 0.29817 0.0
C279 C 0.44724 0.37934 0.23625 0.0
N280 N 0.53578 0.3355 0.26764 0.0
N281 N 0.4744 0.37692 0.22622 0.0
H282 H 0.56484 0.64034 0.87878 0.0
H283 H 0.44063 0.69301 0.65239 0.0
H284 H 0.57646 0.69081 0.70318 0.0
H285 H 0.4328 0.64196 0.82844 0.0
H286 H 0.4896 0.69779 0.67575 0.0
H287 H 0.51584 0.64601 0.86714 0.0
C288 C 0.55697 0.65276 0.83782 0.0
C289 C 0.57464 0.66478 0.7913 0.0
C290 C 0.47707 0.68581 0.70958 0.0
C291 C 0.51835 0.6713 0.77714 0.0
C292 C 0.44915 0.6832 0.69644 0.0
C293 C 0.43277 0.66675 0.73809 0.0
C294 C 0.4885 0.67198 0.76489 0.0
C295 C 0.44479 0.65441 0.79437 0.0
C296 C 0.52897 0.65606 0.83119 0.0
C297 C 0.56344 0.68112 0.73991 0.0
N298 N 0.47186 0.65711 0.80578 0.0
N299 N 0.53591 0.68362 0.73362 0.0
H300 H 0.06488 0.83827 0.13434 0.0
H301 H 0.94042 0.83531 0.38933 0.0
H302 H 0.07476 0.84218 0.34787 0.0
H303 H 0.93163 0.84698 0.17701 0.0
H304 H 0.98932 0.82873 0.37444 0.0
H305 H 0.016 0.83199 0.14901 0.0
C306 C 0.05677 0.83753 0.18443 0.0
C307 C 0.07389 0.84123 0.23997 0.0
C308 C 0.97664 0.83243 0.33105 0.0
C309 C 0.01783 0.834 0.25711 0.0
C310 C 0.94871 0.8363 0.33947 0.0
C311 C 0.93184 0.84216 0.28444 0.0
C312 C 0.98789 0.83433 0.26708 0.0
C313 C 0.94371 0.84247 0.22092 0.0
C314 C 0.02885 0.83392 0.19274 0.0
C315 C 0.06234 0.83946 0.30368 0.0
N316 N 0.97102 0.83891 0.2141 0.0
N317 N 0.03496 0.83632 0.31051 0.0
H318 H 0.07105 0.19384 0.83789 0.0
H319 H 0.94868 0.13687 0.61782 0.0
H320 H 0.08257 0.15234 0.64926 0.0
H321 H 0.93729 0.19369 0.7825 0.0
H322 H 0.99772 0.14473 0.62449 0.0
H323 H 0.02229 0.19719 0.81437 0.0
C324 C 0.0633 0.18589 0.79092 0.0
C325 C 0.08076 0.17264 0.74558 0.0
C326 C 0.98453 0.15573 0.65877 0.0
C327 C 0.02496 0.1759 0.71882 0.0
C328 C 0.95654 0.15111 0.65528 0.0
C329 C 0.93895 0.16436 0.70033 0.0
C330 C 0.99512 0.17349 0.70826 0.0
C331 C 0.95016 0.18301 0.74696 0.0
C332 C 0.03549 0.18778 0.77752 0.0
C333 C 0.06978 0.16279 0.68539 0.0
N334 N 0.97758 0.18673 0.75034 0.0
N335 N 0.04249 0.1642 0.67421 0.0
H336 H 0.3198 0.53686 0.82377 0.0
H337 H 0.32991 0.48444 0.20246 0.0
H338 H 0.31442 0.59223 0.99275 0.0
H339 H 0.29957 0.43303 0.04215 0.0
H340 H 0.33743 0.52268 0.12249 0.0
H341 H 0.32544 0.49706 0.90047 0.0
C342 C 0.32037 0.54062 0.87697 0.0
C343 C 0.31643 0.56766 0.90234 0.0
C344 C 0.32949 0.50286 0.1048 0.0
C345 C 0.32295 0.52266 0.98978 0.0
C346 C 0.32538 0.48109 0.15021 0.0
C347 C 0.31387 0.45581 0.12866 0.0
C348 C 0.32245 0.49902 0.03743 0.0
C349 C 0.30814 0.45243 0.06058 0.0
C350 C 0.32342 0.518 0.9206 0.0
C351 C 0.31708 0.57156 0.9716 0.0
N352 N 0.31239 0.47383 0.01733 0.0
N353 N 0.32018 0.54929 0.01302 0.0
H354 H 0.68919 0.48212 0.31484 0.0
H355 H 0.6657 0.54183 0.68348 0.0
H356 H 0.66462 0.43131 0.48131 0.0
H357 H 0.71185 0.5845 0.53232 0.0
H358 H 0.65425 0.50525 0.60207 0.0
H359 H 0.68625 0.52386 0.38601 0.0
C360 C 0.68247 0.4799 0.36587 0.0
C361 C 0.67739 0.45332 0.39263 0.0
C362 C 0.6666 0.52282 0.58656 0.0
C363 C 0.67426 0.50066 0.47429 0.0
C364 C 0.673 0.54373 0.63287 0.0
C365 C 0.69005 0.56595 0.61474 0.0
C366 C 0.67712 0.52437 0.5216 0.0
C367 C 0.69909 0.56739 0.54856 0.0
C368 C 0.68104 0.50362 0.40662 0.0
C369 C 0.66903 0.45147 0.45926 0.0
N370 N 0.69267 0.54679 0.5045 0.0
N371 N 0.66796 0.47477 0.49801 0.0
H372 H 0.75495 0.5606 0.88232 0.0
H373 H 0.69287 0.47297 0.18433 0.0
H374 H 0.69231 0.58889 0.01596 0.0
H375 H 0.75367 0.43821 0.05429 0.0
H376 H 0.69976 0.51867 0.13436 0.0
H377 H 0.76174 0.51892 0.95364 0.0
C378 C 0.74323 0.55839 0.92761 0.0
C379 C 0.723 0.578 0.94352 0.0
C380 C 0.71197 0.50129 0.1169 0.0
C381 C 0.73037 0.53076 0.02435 0.0
C382 C 0.70809 0.47516 0.14582 0.0
C383 C 0.72272 0.45189 0.12336 0.0
C384 C 0.73011 0.50421 0.06341 0.0
C385 C 0.74214 0.45582 0.07316 0.0
C386 C 0.74694 0.53459 0.96795 0.0
C387 C 0.70802 0.57412 1.00192 0.0
N388 N 0.74497 0.48147 0.04382 0.0
N389 N 0.71189 0.55097 0.03979 0.0
H390 H 0.25527 0.46032 0.37468 0.0
H391 H 0.30029 0.54799 0.69666 0.0
H392 H 0.30825 0.43089 0.53111 0.0
H393 H 0.26044 0.58632 0.52834 0.0
H394 H 0.29235 0.50198 0.64771 0.0
H395 H 0.24686 0.50339 0.43977 0.0
C396 C 0.26437 0.46258 0.42365 0.0
C397 C 0.28231 0.44213 0.44811 0.0
C398 C 0.28485 0.5203 0.62169 0.0
C399 C 0.27316 0.49102 0.52196 0.0
C400 C 0.28921 0.54655 0.64996 0.0
C401 C 0.28089 0.57081 0.6165 0.0
C402 C 0.27261 0.5182 0.55847 0.0
C403 C 0.26688 0.56796 0.55584 0.0
C404 C 0.2598 0.48718 0.46042 0.0
C405 C 0.29418 0.44619 0.51086 0.0
N406 N 0.26355 0.54206 0.52803 0.0
N407 N 0.2895 0.47014 0.54537 0.0
H408 H 0.80947 0.08649 0.97924 0.0
H409 H 0.83573 0.92495 0.01967 0.0
H410 H 0.84251 0.03646 0.82031 0.0
H411 H 0.82923 0.98017 0.1885 0.0
H412 H 0.8416 0.96559 0.94677 0.0
H413 H 0.8194 0.04868 0.05792 0.0
C414 C 0.81917 0.0676 0.96123 0.0
C415 C 0.82498 0.06441 0.89326 0.0
C416 C 0.83948 0.96889 0.99989 0.0
C417 C 0.83609 0.02086 0.98265 0.0
C418 C 0.83615 0.94572 0.04138 0.0
C419 C 0.83192 0.94933 0.10992 0.0
C420 C 0.83792 0.99596 0.02695 0.0
C421 C 0.83259 0.97658 0.13592 0.0
C422 C 0.82495 0.04607 1.00611 0.0
C423 C 0.83778 0.03969 0.87237 0.0
N424 N 0.83496 0.99892 0.09421 0.0
N425 N 0.84246 0.01862 0.91671 0.0
H426 H 0.18677 0.08835 0.52874 0.0
H427 H 0.17715 0.92384 0.50102 0.0
H428 H 0.1717 0.03562 0.69851 0.0
H429 H 0.17266 0.97807 0.32993 0.0
H430 H 0.17025 0.96433 0.57382 0.0
H431 H 0.17676 0.04893 0.45476 0.0
C432 C 0.18086 0.06849 0.55026 0.0
C433 C 0.18027 0.06508 0.61967 0.0
C434 C 0.17024 0.9674 0.52036 0.0
C435 C 0.16927 0.01966 0.53552 0.0
C436 C 0.17422 0.9443 0.47887 0.0
C437 C 0.1757 0.94772 0.40953 0.0
C438 C 0.16825 0.99428 0.49242 0.0
C439 C 0.17157 0.97457 0.38313 0.0
C440 C 0.17512 0.046 0.50809 0.0
C441 C 0.17231 0.03905 0.64524 0.0
N442 N 0.16854 0.99692 0.42468 0.0
N443 N 0.16762 0.01715 0.60318 0.0
H444 H 0.18389 0.08581 1.00409 0.0
H445 H 0.24976 0.93484 0.05982 0.0
H446 H 0.25088 0.05703 0.88428 0.0
H447 H 0.18574 0.97131 0.17758 0.0
H448 H 0.25584 0.98042 1.00334 0.0
H449 H 0.18953 0.04567 0.07658 0.0
C450 C 0.20002 0.07099 0.99346 0.0
C451 C 0.2168 0.07455 0.93799 0.0
C452 C 0.24086 0.97849 0.04245 0.0
C453 C 0.22312 0.02772 0.0203 0.0
C454 C 0.23753 0.95261 0.07486 0.0
C455 C 0.21706 0.94942 0.12284 0.0
C456 C 0.22367 1.00106 0.05887 0.0
C457 C 0.20153 0.97285 0.14026 0.0
C458 C 0.20328 0.04798 0.03494 0.0
C459 C 0.23755 0.05491 0.92678 0.0
N460 N 0.20503 0.99749 0.1081 0.0
N461 N 0.23988 0.03194 0.96706 0.0
H462 H 0.75871 0.05818 0.63573 0.0
H463 H 0.81503 0.9731 0.32309 0.0
H464 H 0.81571 0.08935 0.49129 0.0
H465 H 0.75851 0.93679 0.46176 0.0
H466 H 0.80786 0.01876 0.37387 0.0
H467 H 0.75101 0.01667 0.56446 0.0
C468 C 0.76892 0.05663 0.58814 0.0
C469 C 0.78789 0.07698 0.56903 0.0
C470 C 0.79663 1.00103 0.39303 0.0
C471 C 0.77956 0.02994 0.48828 0.0
C472 C 0.80069 0.97497 0.36374 0.0
C473 C 0.78738 0.95133 0.38851 0.0
C474 C 0.77968 1.00346 0.44902 0.0
C475 C 0.769 0.95472 0.44121 0.0
C476 C 0.76471 0.03294 0.54779 0.0
C477 C 0.801 0.07397 0.50772 0.0
N478 N 0.76604 0.98031 0.47075 0.0
N479 N 0.79675 0.05087 0.46991 0.0
H480 H 0.26807 0.30409 0.29319 0.0
H481 H 0.24284 0.22514 0.94613 0.0
H482 H 0.30893 0.32465 0.10959 0.0
H483 H 0.21147 0.19449 0.13311 0.0
H484 H 0.26627 0.26232 1.00598 0.0
H485 H 0.24599 0.26455 0.23632 0.0
C486 C 0.27245 0.30029 0.2411 0.0
C487 C 0.29037 0.31779 0.20616 0.0
C488 C 0.25436 0.24739 0.03405 0.0
C489 C 0.26513 0.27274 0.14083 0.0
C490 C 0.24105 0.22593 0.99981 0.0
C491 C 0.22511 0.20636 0.03433 0.0
C492 C 0.25168 0.24961 0.10354 0.0
C493 C 0.22322 0.20913 0.10403 0.0
C494 C 0.25987 0.27771 0.2087 0.0
C495 C 0.2953 0.3118 0.13872 0.0
N496 N 0.23626 0.23036 0.13626 0.0
N497 N 0.28271 0.28993 0.10837 0.0
H498 H 0.74792 0.71008 0.77932 0.0
H499 H 0.74593 0.81541 0.46829 0.0
H500 H 0.69418 0.70223 0.60963 0.0
H501 H 0.8096 0.81569 0.61727 0.0
H502 H 0.72425 0.77675 0.52627 0.0
H503 H 0.7684 0.75154 0.72736 0.0
C504 C 0.74038 0.71708 0.73133 0.0
C505 C 0.71938 0.70253 0.69869 0.0
C506 C 0.74294 0.78532 0.54643 0.0
C507 C 0.74256 0.74996 0.63926 0.0
C508 C 0.75546 0.80742 0.51306 0.0
C509 C 0.77989 0.81889 0.53728 0.0
C510 C 0.75477 0.77446 0.6048 0.0
C511 C 0.79075 0.80781 0.59673 0.0
C512 C 0.75209 0.74071 0.70169 0.0
C513 C 0.7104 0.71261 0.63662 0.0
N514 N 0.77819 0.78617 0.62825 0.0
N515 N 0.72201 0.73561 0.60907 0.0
H516 H 0.25033 0.80499 0.06287 0.0
H517 H 0.26369 0.71633 0.72678 0.0
H518 H 0.20532 0.82599 0.88428 0.0
H519 H 0.3196 0.71074 0.8928 0.0
H520 H 0.24103 0.75583 0.78255 0.0
H521 H 0.27503 0.76972 1.00054 0.0
C522 C 0.24576 0.80257 0.01044 0.0
C523 C 0.22553 0.81879 0.97923 0.0
C524 C 0.25838 0.746 0.80636 0.0
C525 C 0.25369 0.77752 0.90725 0.0
C526 C 0.2713 0.72347 0.77459 0.0
C527 C 0.2935 0.71004 0.80523 0.0
C528 C 0.26763 0.75494 0.86934 0.0
C529 C 0.30251 0.72025 0.8672 0.0
C530 C 0.25986 0.78216 0.97478 0.0
C531 C 0.2204 0.8139 0.91105 0.0
N532 N 0.28947 0.74186 0.89722 0.0
N533 N 0.23425 0.79363 0.87751 0.0
H534 H 0.74542 0.33243 0.32677 0.0
H535 H 0.79552 0.17668 0.37704 0.0
H536 H 0.70884 0.26497 0.21471 0.0
H537 H 0.78805 0.23326 0.54324 0.0
H538 H 0.77095 0.21049 0.30651 0.0
H539 H 0.76871 0.29805 0.39666 0.0
C540 C 0.74212 0.31045 0.31687 0.0
C541 C 0.72465 0.30166 0.26537 0.0
C542 C 0.77467 0.21543 0.35845 0.0
C543 C 0.75207 0.26221 0.3442 0.0
C544 C 0.78876 0.1963 0.39844 0.0
C545 C 0.79375 0.20233 0.46584 0.0
C546 C 0.76619 0.24103 0.38571 0.0
C547 C 0.78442 0.22787 0.49157 0.0
C548 C 0.75549 0.29085 0.35687 0.0
C549 C 0.72184 0.27274 0.25426 0.0
N550 N 0.77134 0.24648 0.45127 0.0
N551 N 0.73556 0.25402 0.29306 0.0
H552 H 0.73048 0.73098 0.96054 0.0
H553 H 0.78875 0.76721 0.32226 0.0
H554 H 0.70781 0.68366 0.13449 0.0
H555 H 0.78052 0.82869 0.16621 0.0
H556 H 0.76479 0.73314 0.25123 0.0
H557 H 0.75492 0.76408 0.03243 0.0
C558 C 0.73077 0.72753 0.01386 0.0
C559 C 0.71704 0.70465 0.04169 0.0
C560 C 0.76818 0.75416 0.23283 0.0
C561 C 0.74505 0.74223 0.12413 0.0
C562 C 0.78192 0.77352 0.27312 0.0
C563 C 0.78635 0.80089 0.2503 0.0
C564 C 0.75942 0.76212 0.16882 0.0
C565 C 0.7771 0.80801 0.18625 0.0
C566 C 0.74456 0.74647 0.05486 0.0
C567 C 0.71787 0.70123 0.11119 0.0
N568 N 0.76424 0.78872 0.14762 0.0
N569 N 0.73178 0.71972 0.15008 0.0
H570 H 0.23842 0.18354 0.6728 0.0
H571 H 0.30139 0.33652 0.6431 0.0
H572 H 0.21823 0.24955 0.81093 0.0
H573 H 0.28593 0.28523 0.47028 0.0
H574 H 0.27807 0.30178 0.71245 0.0
H575 H 0.26317 0.21762 0.60462 0.0
C576 C 0.23939 0.20515 0.68903 0.0
C577 C 0.22625 0.21378 0.74749 0.0
C578 C 0.27982 0.29814 0.65936 0.0
C579 C 0.25464 0.25268 0.67024 0.0
C580 C 0.29325 0.31782 0.61994 0.0
C581 C 0.29553 0.31367 0.55097 0.0
C582 C 0.26911 0.27387 0.62978 0.0
C583 C 0.28438 0.28925 0.52321 0.0
C584 C 0.25335 0.22457 0.64993 0.0
C585 C 0.22795 0.24208 0.76595 0.0
N586 N 0.2718 0.27013 0.56278 0.0
N587 N 0.24204 0.26051 0.72768 0.0
H588 H 0.77617 0.2172 0.72256 0.0
H589 H 0.74271 0.29204 0.06896 0.0
H590 H 0.80997 0.19159 0.91188 0.0
H591 H 0.72802 0.33209 0.87903 0.0
H592 H 0.7643 0.25333 0.01132 0.0
H593 H 0.75495 0.25756 0.77809 0.0
C594 C 0.7791 0.22002 0.77568 0.0
C595 C 0.7949 0.20099 0.81259 0.0
C596 C 0.75646 0.27067 0.98225 0.0
C597 C 0.77063 0.24688 0.87626 0.0
C598 C 0.7442 0.29304 0.01528 0.0
C599 C 0.73353 0.31583 0.97929 0.0
C600 C 0.75792 0.27068 0.9124 0.0
C601 C 0.73566 0.31511 0.9093 0.0
C602 C 0.76709 0.24309 0.80725 0.0
C603 C 0.79808 0.20574 0.88126 0.0
N604 N 0.74751 0.29289 0.87821 0.0
N605 N 0.78599 0.22807 0.91079 0.0
H606 H 0.21719 0.76535 0.18881 0.0
H607 H 0.28008 0.72913 0.54628 0.0
H608 H 0.23007 0.82713 0.3426 0.0
H609 H 0.2939 0.67703 0.37417 0.0
H610 H 0.25697 0.76332 0.47496 0.0
H611 H 0.24087 0.73064 0.2584 0.0
C612 C 0.225 0.77162 0.23711 0.0
C613 C 0.22177 0.79925 0.25976 0.0
C614 C 0.2651 0.74443 0.45273 0.0
C615 C 0.24853 0.75966 0.33973 0.0
C616 C 0.27813 0.72485 0.4935 0.0
C617 C 0.28893 0.70022 0.46611 0.0
C618 C 0.26246 0.73922 0.38409 0.0
C619 C 0.28609 0.69587 0.39716 0.0
C620 C 0.23858 0.75186 0.27664 0.0
C621 C 0.23235 0.80623 0.32271 0.0
N622 N 0.27298 0.71509 0.35854 0.0
N623 N 0.24507 0.78657 0.36059 0.0
loop_
_geom_bond_atom_site_label_1
_geom_bond_atom_site_label_2
_geom_bond_distance
_geom_bond_site_symmetry_2
_ccdc_geom_bond_type
Co0 N4 2.148 . S
Co0 N10 2.128 . S
Co0 N20 2.194 . S
Co0 O25 2.351 . S
Co0 O26 2.155 . S
Co0 O27 2.096 . S
C1 N4 1.301 . S
C1 N5 1.328 . S
C1 H6 0.930 . S
C2 C3 1.333 . S
C2 N4 1.317 . S
C2 H7 0.930 . S
C3 C2 1.333 . S
C3 N5 1.350 . S
C3 H29 0.931 . S
N4 Co0 2.148 . S
N4 C1 1.301 . S
N4 C2 1.317 . S
N5 C1 1.328 . S
N5 C3 1.350 . S
H6 C1 0.930 . S
H7 C2 0.930 . S
C8 O9 1.224 . S
C8 O27 1.247 . S
O9 C8 1.224 . S
N10 Co0 2.128 . S
N10 C11 1.355 . S
N10 C13 1.311 . S
C11 N10 1.355 . S
C11 C12 1.363 . S
C11 H23 0.929 . S
C12 C11 1.363 . S
C12 N14 1.375 . S
C12 H30 0.931 . S
C13 N10 1.311 . S
C13 N14 1.347 . S
C13 H24 0.929 . S
N14 C12 1.375 . S
N14 C13 1.347 . S
C15 C18 1.365 . S
C15 N20 1.328 . S
C15 H21 0.929 . S
C16 C17 1.362 . S
C16 C19 1.378 . S
C16 H31 0.929 . S
C17 C16 1.362 . S
C17 C18 1.366 . S
C18 C15 1.365 . S
C18 C17 1.366 . S
C18 H32 0.930 . S
C19 C16 1.378 . S
C19 N20 1.315 . S
C19 H22 0.930 . S
N20 Co0 2.194 . S
N20 C15 1.328 . S
N20 C19 1.315 . S
H21 C15 0.929 . S
H22 C19 0.930 . S
H23 C11 0.929 . S
H24 C13 0.929 . S
O25 Co0 2.351 . S
O25 C28 1.244 . S
O26 Co0 2.155 . S
O26 C28 1.240 . S
O27 Co0 2.096 . S
O27 C8 1.247 . S
C28 O25 1.244 . S
C28 O26 1.240 . S
H29 C3 0.931 . S
H30 C12 0.931 . S
H31 C16 0.929 . S
H32 C18 0.930 . S
Co33 N37 2.148 . S
Co33 N43 2.128 . S
Co33 N53 2.194 . S
Co33 O58 2.351 . S
Co33 O59 2.155 . S
Co33 O60 2.096 . S
C34 N37 1.301 . S
C34 N38 1.328 . S
C34 H39 0.930 . S
C35 C36 1.333 . S
C35 N37 1.317 . S
C35 H40 0.930 . S
C36 C35 1.333 . S
C36 N38 1.350 . S
C36 H62 0.931 . S
N37 Co33 2.148 . S
N37 C34 1.301 . S
N37 C35 1.317 . S
N38 C34 1.328 . S
N38 C36 1.350 . S
H39 C34 0.930 . S
H40 C35 0.930 . S
C41 O42 1.224 . S
C41 O60 1.247 . S
O42 C41 1.224 . S
N43 Co33 2.128 . S
N43 C44 1.355 . S
N43 C46 1.311 . S
C44 N43 1.355 . S
C44 C45 1.363 . S
C44 H56 0.929 . S
C45 C44 1.363 . S
C45 N47 1.375 . S
C45 H63 0.931 1_556 S
C46 N43 1.311 . S
C46 N47 1.347 . S
C46 H57 0.929 . S
N47 C45 1.375 . S
N47 C46 1.347 . S
C48 C51 1.365 . S
C48 N53 1.328 . S
C48 H54 0.929 . S
C49 C50 1.362 . S
C49 C52 1.378 . S
C49 H64 0.929 . S
C50 C49 1.362 . S
C50 C51 1.366 . S
C51 C48 1.365 . S
C51 C50 1.366 . S
C51 H65 0.930 . S
C52 C49 1.378 . S
C52 N53 1.315 . S
C52 H55 0.930 . S
N53 Co33 2.194 . S
N53 C48 1.328 . S
N53 C52 1.315 . S
H54 C48 0.929 . S
H55 C52 0.930 . S
H56 C44 0.929 . S
H57 C46 0.929 . S
O58 Co33 2.351 . S
O58 C61 1.244 . S
O59 Co33 2.155 . S
O59 C61 1.240 . S
O60 Co33 2.096 . S
O60 C41 1.247 . S
C61 O58 1.244 . S
C61 O59 1.240 . S
H62 C36 0.931 . S
H63 C45 0.931 1_554 S
H64 C49 0.929 . S
H65 C51 0.930 . S
Co66 N70 2.148 . S
Co66 N76 2.128 . S
Co66 N86 2.194 . S
Co66 O91 2.351 . S
Co66 O92 2.155 . S
Co66 O93 2.096 . S
C67 N70 1.301 . S
C67 N71 1.328 . S
C67 H72 0.930 . S
C68 C69 1.333 . S
C68 N70 1.317 . S
C68 H73 0.930 . S
C69 C68 1.333 . S
C69 N71 1.350 . S
C69 H95 0.931 . S
N70 Co66 2.148 . S
N70 C67 1.301 . S
N70 C68 1.317 . S
N71 C67 1.328 . S
N71 C69 1.350 . S
H72 C67 0.930 . S
H73 C68 0.930 . S
C74 O75 1.224 . S
C74 O93 1.247 . S
O75 C74 1.224 . S
N76 Co66 2.128 . S
N76 C77 1.355 . S
N76 C79 1.311 . S
C77 N76 1.355 . S
C77 C78 1.363 . S
C77 H89 0.929 . S
C78 C77 1.363 . S
C78 N80 1.375 . S
C78 H96 0.931 . S
C79 N76 1.311 . S
C79 N80 1.347 . S
C79 H90 0.929 . S
N80 C78 1.375 . S
N80 C79 1.347 . S
C81 C84 1.365 . S
C81 N86 1.328 . S
C81 H87 0.929 . S
C82 C83 1.362 . S
C82 C85 1.378 . S
C82 H97 0.929 . S
C83 C82 1.362 . S
C83 C84 1.366 . S
C84 C81 1.365 . S
C84 C83 1.366 . S
C84 H98 0.930 . S
C85 C82 1.378 . S
C85 N86 1.315 . S
C85 H88 0.930 . S
N86 Co66 2.194 . S
N86 C81 1.328 . S
N86 C85 1.315 . S
H87 C81 0.929 . S
H88 C85 0.930 . S
H89 C77 0.929 . S
H90 C79 0.929 . S
O91 Co66 2.351 . S
O91 C94 1.244 . S
O92 Co66 2.155 . S
O92 C94 1.240 . S
O93 Co66 2.096 . S
O93 C74 1.247 . S
C94 O91 1.244 . S
C94 O92 1.240 . S
H95 C69 0.931 . S
H96 C78 0.931 . S
H97 C82 0.929 . S
H98 C84 0.930 . S
Co99 N103 2.148 . S
Co99 N109 2.128 . S
Co99 N119 2.194 . S
Co99 O124 2.351 . S
Co99 O125 2.155 . S
Co99 O126 2.096 . S
C100 N103 1.301 . S
C100 N104 1.328 . S
C100 H105 0.930 . S
C101 C102 1.333 . S
C101 N103 1.317 . S
C101 H106 0.930 . S
C102 C101 1.333 . S
C102 N104 1.350 . S
C102 H128 0.931 . S
N103 Co99 2.148 . S
N103 C100 1.301 . S
N103 C101 1.317 . S
N104 C100 1.328 . S
N104 C102 1.350 . S
H105 C100 0.930 . S
H106 C101 0.930 . S
C107 O108 1.224 . S
C107 O126 1.247 . S
O108 C107 1.224 . S
N109 Co99 2.128 . S
N109 C110 1.355 . S
N109 C112 1.311 . S
C110 N109 1.355 . S
C110 C111 1.363 . S
C110 H122 0.929 . S
C111 C110 1.363 . S
C111 N113 1.375 . S
C111 H129 0.931 1_554 S
C112 N109 1.311 . S
C112 N113 1.347 . S
C112 H123 0.929 . S
N113 C111 1.375 . S
N113 C112 1.347 . S
C114 C117 1.365 . S
C114 N119 1.328 . S
C114 H120 0.929 . S
C115 C116 1.362 . S
C115 C118 1.378 . S
C115 H130 0.929 . S
C116 C115 1.362 . S
C116 C117 1.366 . S
C117 C114 1.365 . S
C117 C116 1.366 . S
C117 H131 0.930 . S
C118 C115 1.378 . S
C118 N119 1.315 . S
C118 H121 0.930 . S
N119 Co99 2.194 . S
N119 C114 1.328 . S
N119 C118 1.315 . S
H120 C114 0.929 . S
H121 C118 0.930 . S
H122 C110 0.929 . S
H123 C112 0.929 . S
O124 Co99 2.351 . S
O124 C127 1.244 . S
O125 Co99 2.155 . S
O125 C127 1.240 . S
O126 Co99 2.096 . S
O126 C107 1.247 . S
C127 O124 1.244 . S
C127 O125 1.240 . S
H128 C102 0.931 . S
H129 C111 0.931 1_556 S
H130 C115 0.929 . S
H131 C117 0.930 . S
Co132 N136 2.148 . S
Co132 N142 2.128 . S
Co132 N152 2.194 . S
Co132 O157 2.351 . S
Co132 O158 2.155 . S
Co132 O159 2.096 . S
C133 N136 1.301 . S
C133 N137 1.328 . S
C133 H138 0.930 . S
C134 C135 1.333 . S
C134 N136 1.317 . S
C134 H139 0.930 . S
C135 C134 1.333 . S
C135 N137 1.350 . S
C135 H161 0.931 . S
N136 Co132 2.148 . S
N136 C133 1.301 . S
N136 C134 1.317 . S
N137 C133 1.328 . S
N137 C135 1.350 . S
H138 C133 0.930 . S
H139 C134 0.930 . S
C140 O141 1.224 . S
C140 O159 1.247 . S
O141 C140 1.224 . S
N142 Co132 2.128 . S
N142 C143 1.355 . S
N142 C145 1.311 . S
C143 N142 1.355 . S
C143 C144 1.363 . S
C143 H155 0.929 . S
C144 C143 1.363 . S
C144 N146 1.375 . S
C144 H162 0.931 . S
C145 N142 1.311 . S
C145 N146 1.347 . S
C145 H156 0.929 . S
N146 C144 1.375 . S
N146 C145 1.347 . S
C147 C150 1.365 . S
C147 N152 1.328 . S
C147 H153 0.929 . S
C148 C149 1.362 . S
C148 C151 1.378 . S
C148 H163 0.929 . S
C149 C148 1.362 . S
C149 C150 1.366 . S
C150 C147 1.365 . S
C150 C149 1.366 . S
C150 H164 0.930 . S
C151 C148 1.378 . S
C151 N152 1.315 . S
C151 H154 0.930 . S
N152 Co132 2.194 . S
N152 C147 1.328 . S
N152 C151 1.315 . S
H153 C147 0.929 . S
H154 C151 0.930 . S
H155 C143 0.929 . S
H156 C145 0.929 . S
O157 Co132 2.351 . S
O157 C160 1.244 . S
O158 Co132 2.155 . S
O158 C160 1.240 . S
O159 Co132 2.096 . S
O159 C140 1.247 . S
C160 O157 1.244 . S
C160 O158 1.240 . S
H161 C135 0.931 . S
H162 C144 0.931 . S
H163 C148 0.929 . S
H164 C150 0.930 . S
Co165 N169 2.148 . S
Co165 N175 2.128 . S
Co165 N185 2.194 . S
Co165 O190 2.351 . S
Co165 O191 2.155 . S
Co165 O192 2.096 . S
C166 N169 1.301 . S
C166 N170 1.328 . S
C166 H171 0.930 . S
C167 C168 1.333 . S
C167 N169 1.317 . S
C167 H172 0.930 . S
C168 C167 1.333 . S
C168 N170 1.350 . S
C168 H194 0.931 . S
N169 Co165 2.148 . S
N169 C166 1.301 . S
N169 C167 1.317 . S
N170 C166 1.328 . S
N170 C168 1.350 . S
H171 C166 0.930 . S
H172 C167 0.930 . S
C173 O174 1.224 . S
C173 O192 1.247 . S
O174 C173 1.224 . S
N175 Co165 2.128 . S
N175 C176 1.355 . S
N175 C178 1.311 . S
C176 N175 1.355 . S
C176 C177 1.363 . S
C176 H188 0.929 . S
C177 C176 1.363 . S
C177 N179 1.375 . S
C177 H195 0.931 1_556 S
C178 N175 1.311 . S
C178 N179 1.347 . S
C178 H189 0.929 . S
N179 C177 1.375 . S
N179 C178 1.347 . S
C180 C183 1.365 . S
C180 N185 1.328 . S
C180 H186 0.929 . S
C181 C182 1.362 . S
C181 C184 1.378 . S
C181 H196 0.929 . S
C182 C181 1.362 . S
C182 C183 1.366 . S
C183 C180 1.365 . S
C183 C182 1.366 . S
C183 H197 0.930 . S
C184 C181 1.378 . S
C184 N185 1.315 . S
C184 H187 0.930 . S
N185 Co165 2.194 . S
N185 C180 1.328 . S
N185 C184 1.315 . S
H186 C180 0.929 . S
H187 C184 0.930 . S
H188 C176 0.929 . S
H189 C178 0.929 . S
O190 Co165 2.351 . S
O190 C193 1.244 . S
O191 Co165 2.155 . S
O191 C193 1.240 . S
O192 Co165 2.096 . S
O192 C173 1.247 . S
C193 O190 1.244 . S
C193 O191 1.240 . S
H194 C168 0.931 . S
H195 C177 0.931 1_554 S
H196 C181 0.929 . S
H197 C183 0.930 . S
Co198 N202 2.148 . S
Co198 N208 2.128 . S
Co198 N218 2.194 . S
Co198 O223 2.351 . S
Co198 O224 2.155 . S
Co198 O225 2.096 . S
C199 N202 1.301 . S
C199 N203 1.328 . S
C199 H204 0.930 . S
C200 C201 1.333 . S
C200 N202 1.317 . S
C200 H205 0.930 . S
C201 C200 1.333 . S
C201 N203 1.350 . S
C201 H227 0.931 . S
N202 Co198 2.148 . S
N202 C199 1.301 . S
N202 C200 1.317 . S
N203 C199 1.328 . S
N203 C201 1.350 . S
H204 C199 0.930 . S
H205 C200 0.930 . S
C206 O207 1.224 . S
C206 O225 1.247 . S
O207 C206 1.224 . S
N208 Co198 2.128 . S
N208 C209 1.355 . S
N208 C211 1.311 . S
C209 N208 1.355 . S
C209 C210 1.363 . S
C209 H221 0.929 . S
C210 C209 1.363 . S
C210 N212 1.375 . S
C210 H228 0.931 . S
C211 N208 1.311 . S
C211 N212 1.347 . S
C211 H222 0.929 . S
N212 C210 1.375 . S
N212 C211 1.347 . S
C213 C216 1.365 . S
C213 N218 1.328 . S
C213 H219 0.929 . S
C214 C215 1.362 . S
C214 C217 1.378 . S
C214 H229 0.929 . S
C215 C214 1.362 . S
C215 C216 1.366 . S
C216 C213 1.365 . S
C216 C215 1.366 . S
C216 H230 0.930 . S
C217 C214 1.378 . S
C217 N218 1.315 . S
C217 H220 0.930 . S
N218 Co198 2.194 . S
N218 C213 1.328 . S
N218 C217 1.315 . S
H219 C213 0.929 . S
H220 C217 0.930 . S
H221 C209 0.929 . S
H222 C211 0.929 . S
O223 Co198 2.351 . S
O223 C226 1.244 . S
O224 Co198 2.155 . S
O224 C226 1.240 . S
O225 Co198 2.096 . S
O225 C206 1.247 . S
C226 O223 1.244 . S
C226 O224 1.240 . S
H227 C201 0.931 . S
H228 C210 0.931 . S
H229 C214 0.929 . S
H230 C216 0.930 . S
Co231 N235 2.148 . S
Co231 N241 2.128 . S
Co231 N251 2.194 . S
Co231 O256 2.351 . S
Co231 O257 2.155 . S
Co231 O258 2.096 . S
C232 N235 1.301 . S
C232 N236 1.328 . S
C232 H237 0.930 . S
C233 C234 1.333 . S
C233 N235 1.317 . S
C233 H238 0.930 . S
C234 C233 1.333 . S
C234 N236 1.350 . S
C234 H260 0.931 . S
N235 Co231 2.148 . S
N235 C232 1.301 . S
N235 C233 1.317 . S
N236 C232 1.328 . S
N236 C234 1.350 . S
H237 C232 0.930 . S
H238 C233 0.930 . S
C239 O240 1.224 . S
C239 O258 1.247 . S
O240 C239 1.224 . S
N241 Co231 2.128 . S
N241 C242 1.355 . S
N241 C244 1.311 . S
C242 N241 1.355 . S
C242 C243 1.363 . S
C242 H254 0.929 . S
C243 C242 1.363 . S
C243 N245 1.375 . S
C243 H261 0.931 1_554 S
C244 N241 1.311 . S
C244 N245 1.347 . S
C244 H255 0.929 . S
N245 C243 1.375 . S
N245 C244 1.347 . S
C246 C249 1.365 . S
C246 N251 1.328 . S
C246 H252 0.929 . S
C247 C248 1.362 . S
C247 C250 1.378 . S
C247 H262 0.929 . S
C248 C247 1.362 . S
C248 C249 1.366 . S
C249 C246 1.365 . S
C249 C248 1.366 . S
C249 H263 0.930 . S
C250 C247 1.378 . S
C250 N251 1.315 . S
C250 H253 0.930 . S
N251 Co231 2.194 . S
N251 C246 1.328 . S
N251 C250 1.315 . S
H252 C246 0.929 . S
H253 C250 0.930 . S
H254 C242 0.929 . S
H255 C244 0.929 . S
O256 Co231 2.351 . S
O256 C259 1.244 . S
O257 Co231 2.155 . S
O257 C259 1.240 . S
O258 Co231 2.096 . S
O258 C239 1.247 . S
C259 O256 1.244 . S
C259 O257 1.240 . S
H260 C234 0.931 . S
H261 C243 0.931 1_556 S
H262 C247 0.929 . S
H263 C249 0.930 . S
H264 C270 0.930 . S
H265 C274 0.930 . S
H266 C279 0.929 . S
H267 C277 0.929 . S
H268 C272 0.929 . S
H269 C278 0.929 . S
C270 H264 0.930 . S
C270 C271 1.367 . S
C270 C278 1.378 . S
C271 C270 1.367 . S
C271 C279 1.433 . S
C272 H268 0.929 . S
C272 C274 1.378 . S
C272 C276 1.350 . S
C273 C276 1.463 . S
C273 C278 1.350 . S
C273 N281 1.427 . S
C274 H265 0.930 . S
C274 C272 1.378 . S
C274 C275 1.367 . S
C275 C274 1.367 . S
C275 C277 1.433 . S
C276 C272 1.350 . S
C276 C273 1.463 . S
C276 N280 1.427 . S
C277 H267 0.929 . S
C277 C275 1.433 . S
C277 N280 1.384 . S
C278 H269 0.929 . S
C278 C270 1.378 . S
C278 C273 1.350 . S
C279 H266 0.929 . S
C279 C271 1.433 . S
C279 N281 1.384 . S
N280 C276 1.427 . S
N280 C277 1.384 . S
N281 C273 1.427 . S
N281 C279 1.384 . S
H282 C288 0.930 . S
H283 C292 0.930 . S
H284 C297 0.929 . S
H285 C295 0.929 . S
H286 C290 0.929 . S
H287 C296 0.929 . S
C288 H282 0.930 . S
C288 C289 1.367 . S
C288 C296 1.378 . S
C289 C288 1.367 . S
C289 C297 1.433 . S
C290 H286 0.929 . S
C290 C292 1.378 . S
C290 C294 1.350 . S
C291 C294 1.463 . S
C291 C296 1.350 . S
C291 N299 1.427 . S
C292 H283 0.930 . S
C292 C290 1.378 . S
C292 C293 1.367 . S
C293 C292 1.367 . S
C293 C295 1.433 . S
C294 C290 1.350 . S
C294 C291 1.463 . S
C294 N298 1.427 . S
C295 H285 0.929 . S
C295 C293 1.433 . S
C295 N298 1.384 . S
C296 H287 0.929 . S
C296 C288 1.378 . S
C296 C291 1.350 . S
C297 H284 0.929 . S
C297 C289 1.433 . S
C297 N299 1.384 . S
N298 C294 1.427 . S
N298 C295 1.384 . S
N299 C291 1.427 . S
N299 C297 1.384 . S
H300 C306 0.930 . S
H301 C310 0.930 . S
H302 C315 0.929 . S
H303 C313 0.929 . S
H304 C308 0.929 . S
H305 C314 0.929 . S
C306 H300 0.930 . S
C306 C307 1.367 . S
C306 C314 1.378 . S
C307 C306 1.367 . S
C307 C315 1.433 . S
C308 H304 0.929 . S
C308 C310 1.378 . S
C308 C312 1.350 . S
C309 C312 1.463 1_455 S
C309 C314 1.350 . S
C309 N317 1.427 . S
C310 H301 0.930 . S
C310 C308 1.378 . S
C310 C311 1.367 . S
C311 C310 1.367 . S
C311 C313 1.433 . S
C312 C308 1.350 . S
C312 C309 1.463 1_655 S
C312 N316 1.427 . S
C313 H303 0.929 . S
C313 C311 1.433 . S
C313 N316 1.384 . S
C314 H305 0.929 . S
C314 C306 1.378 . S
C314 C309 1.350 . S
C315 H302 0.929 . S
C315 C307 1.433 . S
C315 N317 1.384 . S
N316 C312 1.427 . S
N316 C313 1.384 . S
N317 C309 1.427 . S
N317 C315 1.384 . S
H318 C324 0.930 . S
H319 C328 0.930 . S
H320 C333 0.929 . S
H321 C331 0.929 . S
H322 C326 0.929 . S
H323 C332 0.929 . S
C324 H318 0.930 . S
C324 C325 1.367 . S
C324 C332 1.378 . S
C325 C324 1.367 . S
C325 C333 1.433 . S
C326 H322 0.929 . S
C326 C328 1.378 . S
C326 C330 1.350 . S
C327 C330 1.463 1_455 S
C327 C332 1.350 . S
C327 N335 1.427 . S
C328 H319 0.930 . S
C328 C326 1.378 . S
C328 C329 1.367 . S
C329 C328 1.367 . S
C329 C331 1.433 . S
C330 C326 1.350 . S
C330 C327 1.463 1_655 S
C330 N334 1.427 . S
C331 H321 0.929 . S
C331 C329 1.433 . S
C331 N334 1.384 . S
C332 H323 0.929 . S
C332 C324 1.378 . S
C332 C327 1.350 . S
C333 H320 0.929 . S
C333 C325 1.433 . S
C333 N335 1.384 . S
N334 C330 1.427 . S
N334 C331 1.384 . S
N335 C327 1.427 . S
N335 C333 1.384 . S
H336 C342 0.930 . S
H337 C346 0.930 . S
H338 C351 0.929 . S
H339 C349 0.929 . S
H340 C344 0.929 . S
H341 C350 0.929 . S
C342 H336 0.930 . S
C342 C343 1.367 . S
C342 C350 1.378 . S
C343 C342 1.367 . S
C343 C351 1.433 . S
C344 H340 0.929 . S
C344 C346 1.378 . S
C344 C348 1.350 . S
C345 C348 1.463 1_556 S
C345 C350 1.350 . S
C345 N353 1.427 . S
C346 H337 0.930 . S
C346 C344 1.378 . S
C346 C347 1.367 . S
C347 C346 1.367 . S
C347 C349 1.433 . S
C348 C344 1.350 . S
C348 C345 1.463 1_554 S
C348 N352 1.427 . S
C349 H339 0.929 . S
C349 C347 1.433 . S
C349 N352 1.384 . S
C350 H341 0.929 . S
C350 C342 1.378 . S
C350 C345 1.350 . S
C351 H338 0.929 . S
C351 C343 1.433 . S
C351 N353 1.384 . S
N352 C348 1.427 . S
N352 C349 1.384 . S
N353 C345 1.427 . S
N353 C351 1.384 . S
H354 C360 0.930 . S
H355 C364 0.930 . S
H356 C369 0.929 . S
H357 C367 0.929 . S
H358 C362 0.929 . S
H359 C368 0.929 . S
C360 H354 0.930 . S
C360 C361 1.367 . S
C360 C368 1.378 . S
C361 C360 1.367 . S
C361 C369 1.433 . S
C362 H358 0.929 . S
C362 C364 1.378 . S
C362 C366 1.350 . S
C363 C366 1.463 . S
C363 C368 1.350 . S
C363 N371 1.427 . S
C364 H355 0.930 . S
C364 C362 1.378 . S
C364 C365 1.367 . S
C365 C364 1.367 . S
C365 C367 1.433 . S
C366 C362 1.350 . S
C366 C363 1.463 . S
C366 N370 1.427 . S
C367 H357 0.929 . S
C367 C365 1.433 . S
C367 N370 1.384 . S
C368 H359 0.929 . S
C368 C360 1.378 . S
C368 C363 1.350 . S
C369 H356 0.929 . S
C369 C361 1.433 . S
C369 N371 1.384 . S
N370 C366 1.427 . S
N370 C367 1.384 . S
N371 C363 1.427 . S
N371 C369 1.384 . S
H372 C378 0.930 . S
H373 C382 0.930 . S
H374 C387 0.929 . S
H375 C385 0.929 . S
H376 C380 0.929 . S
H377 C386 0.929 . S
C378 H372 0.930 . S
C378 C379 1.367 . S
C378 C386 1.378 . S
C379 C378 1.367 . S
C379 C387 1.433 . S
C380 H376 0.929 . S
C380 C382 1.378 . S
C380 C384 1.350 . S
C381 C384 1.463 1_556 S
C381 C386 1.350 . S
C381 N389 1.427 . S
C382 H373 0.930 . S
C382 C380 1.378 . S
C382 C383 1.367 . S
C383 C382 1.367 . S
C383 C385 1.433 . S
C384 C380 1.350 . S
C384 C381 1.463 1_554 S
C384 N388 1.427 . S
C385 H375 0.929 . S
C385 C383 1.433 . S
C385 N388 1.384 . S
C386 H377 0.929 . S
C386 C378 1.378 . S
C386 C381 1.350 . S
C387 H374 0.929 . S
C387 C379 1.433 . S
C387 N389 1.384 . S
N388 C384 1.427 . S
N388 C385 1.384 . S
N389 C381 1.427 . S
N389 C387 1.384 . S
H390 C396 0.930 . S
H391 C400 0.930 . S
H392 C405 0.929 . S
H393 C403 0.929 . S
H394 C398 0.929 . S
H395 C404 0.929 . S
C396 H390 0.930 . S
C396 C397 1.367 . S
C396 C404 1.378 . S
C397 C396 1.367 . S
C397 C405 1.433 . S
C398 H394 0.929 . S
C398 C400 1.378 . S
C398 C402 1.350 . S
C399 C402 1.463 . S
C399 C404 1.350 . S
C399 N407 1.427 . S
C400 H391 0.930 . S
C400 C398 1.378 . S
C400 C401 1.367 . S
C401 C400 1.367 . S
C401 C403 1.433 . S
C402 C398 1.350 . S
C402 C399 1.463 . S
C402 N406 1.427 . S
C403 H393 0.929 . S
C403 C401 1.433 . S
C403 N406 1.384 . S
C404 H395 0.929 . S
C404 C396 1.378 . S
C404 C399 1.350 . S
C405 H392 0.929 . S
C405 C397 1.433 . S
C405 N407 1.384 . S
N406 C402 1.427 . S
N406 C403 1.384 . S
N407 C399 1.427 . S
N407 C405 1.384 . S
H408 C414 0.930 . S
H409 C418 0.930 . S
H410 C423 0.929 . S
H411 C421 0.929 . S
H412 C416 0.929 1_556 S
H413 C422 0.929 1_554 S
C414 H408 0.930 . S
C414 C415 1.367 . S
C414 C422 1.378 . S
C415 C414 1.367 . S
C415 C423 1.433 . S
C416 H412 0.929 1_554 S
C416 C418 1.378 . S
C416 C420 1.350 . S
C417 C420 1.463 1_546 S
C417 C422 1.350 . S
C417 N425 1.427 . S
C418 H409 0.930 . S
C418 C416 1.378 . S
C418 C419 1.367 . S
C419 C418 1.367 . S
C419 C421 1.433 . S
C420 C416 1.350 . S
C420 C417 1.463 1_564 S
C420 N424 1.427 . S
C421 H411 0.929 . S
C421 C419 1.433 . S
C421 N424 1.384 . S
C422 H413 0.929 1_556 S
C422 C414 1.378 . S
C422 C417 1.350 . S
C423 H410 0.929 . S
C423 C415 1.433 . S
C423 N425 1.384 . S
N424 C420 1.427 . S
N424 C421 1.384 . S
N425 C417 1.427 . S
N425 C423 1.384 . S
H426 C432 0.930 . S
H427 C436 0.930 . S
H428 C441 0.929 . S
H429 C439 0.929 . S
H430 C434 0.929 . S
H431 C440 0.929 . S
C432 H426 0.930 . S
C432 C433 1.367 . S
C432 C440 1.378 . S
C433 C432 1.367 . S
C433 C441 1.433 . S
C434 H430 0.929 . S
C434 C436 1.378 . S
C434 C438 1.350 . S
C435 C438 1.463 1_545 S
C435 C440 1.350 . S
C435 N443 1.427 . S
C436 H427 0.930 . S
C436 C434 1.378 . S
C436 C437 1.367 . S
C437 C436 1.367 . S
C437 C439 1.433 . S
C438 C434 1.350 . S
C438 C435 1.463 1_565 S
C438 N442 1.427 . S
C439 H429 0.929 . S
C439 C437 1.433 . S
C439 N442 1.384 . S
C440 H431 0.929 . S
C440 C432 1.378 . S
C440 C435 1.350 . S
C441 H428 0.929 . S
C441 C433 1.433 . S
C441 N443 1.384 . S
N442 C438 1.427 . S
N442 C439 1.384 . S
N443 C435 1.427 . S
N443 C441 1.384 . S
H444 C450 0.930 . S
H445 C454 0.930 . S
H446 C459 0.929 . S
H447 C457 0.929 . S
H448 C452 0.929 . S
H449 C458 0.929 . S
C450 H444 0.930 . S
C450 C451 1.367 . S
C450 C458 1.378 1_556 S
C451 C450 1.367 . S
C451 C459 1.433 . S
C452 H448 0.929 . S
C452 C454 1.378 1_556 S
C452 C456 1.350 1_556 S
C453 C456 1.463 1_546 S
C453 C458 1.350 1_556 S
C453 N461 1.427 . S
C454 H445 0.930 . S
C454 C452 1.378 1_554 S
C454 C455 1.367 . S
C455 C454 1.367 . S
C455 C457 1.433 . S
C456 C452 1.350 1_554 S
C456 C453 1.463 1_564 S
C456 N460 1.427 . S
C457 H447 0.929 . S
C457 C455 1.433 . S
C457 N460 1.384 . S
C458 H449 0.929 . S
C458 C450 1.378 1_554 S
C458 C453 1.350 1_554 S
C459 H446 0.929 . S
C459 C451 1.433 . S
C459 N461 1.384 . S
N460 C456 1.427 . S
N460 C457 1.384 . S
N461 C453 1.427 . S
N461 C459 1.384 . S
H462 C468 0.930 . S
H463 C472 0.930 . S
H464 C477 0.929 . S
H465 C475 0.929 . S
H466 C470 0.929 1_545 S
H467 C476 0.929 1_565 S
C468 H462 0.930 . S
C468 C469 1.367 . S
C468 C476 1.378 . S
C469 C468 1.367 . S
C469 C477 1.433 . S
C470 H466 0.929 1_565 S
C470 C472 1.378 . S
C470 C474 1.350 . S
C471 C474 1.463 1_545 S
C471 C476 1.350 . S
C471 N479 1.427 . S
C472 H463 0.930 . S
C472 C470 1.378 . S
C472 C473 1.367 . S
C473 C472 1.367 . S
C473 C475 1.433 . S
C474 C470 1.350 . S
C474 C471 1.463 1_565 S
C474 N478 1.427 . S
C475 H465 0.929 . S
C475 C473 1.433 . S
C475 N478 1.384 . S
C476 H467 0.929 1_545 S
C476 C468 1.378 . S
C476 C471 1.350 . S
C477 H464 0.929 . S
C477 C469 1.433 . S
C477 N479 1.384 . S
N478 C474 1.427 . S
N478 C475 1.384 . S
N479 C471 1.427 . S
N479 C477 1.384 . S
H480 C486 0.930 . S
H481 C490 0.930 . S
H482 C495 0.929 . S
H483 C493 0.929 . S
H484 C488 0.929 1_556 S
H485 C494 0.929 . S
C486 H480 0.930 . S
C486 C487 1.367 . S
C486 C494 1.378 . S
C487 C486 1.367 . S
C487 C495 1.433 . S
C488 H484 0.929 1_554 S
C488 C490 1.378 1_554 S
C488 C492 1.350 . S
C489 C492 1.463 . S
C489 C494 1.350 . S
C489 N497 1.427 . S
C490 H481 0.930 . S
C490 C488 1.378 1_556 S
C490 C491 1.367 . S
C491 C490 1.367 . S
C491 C493 1.433 1_556 S
C492 C488 1.350 . S
C492 C489 1.463 . S
C492 N496 1.427 . S
C493 H483 0.929 . S
C493 C491 1.433 1_554 S
C493 N496 1.384 . S
C494 H485 0.929 . S
C494 C486 1.378 . S
C494 C489 1.350 . S
C495 H482 0.929 . S
C495 C487 1.433 . S
C495 N497 1.384 . S
N496 C492 1.427 . S
N496 C493 1.384 . S
N497 C489 1.427 . S
N497 C495 1.384 . S
H498 C504 0.930 . S
H499 C508 0.930 . S
H500 C513 0.929 . S
H501 C511 0.929 . S
H502 C506 0.929 . S
H503 C512 0.929 . S
C504 H498 0.930 . S
C504 C505 1.367 . S
C504 C512 1.378 . S
C505 C504 1.367 . S
C505 C513 1.433 . S
C506 H502 0.929 . S
C506 C508 1.378 . S
C506 C510 1.350 . S
C507 C510 1.463 . S
C507 C512 1.350 . S
C507 N515 1.427 . S
C508 H499 0.930 . S
C508 C506 1.378 . S
C508 C509 1.367 . S
C509 C508 1.367 . S
C509 C511 1.433 . S
C510 C506 1.350 . S
C510 C507 1.463 . S
C510 N514 1.427 . S
C511 H501 0.929 . S
C511 C509 1.433 . S
C511 N514 1.384 . S
C512 H503 0.929 . S
C512 C504 1.378 . S
C512 C507 1.350 . S
C513 H500 0.929 . S
C513 C505 1.433 . S
C513 N515 1.384 . S
N514 C510 1.427 . S
N514 C511 1.384 . S
N515 C507 1.427 . S
N515 C513 1.384 . S
H516 C522 0.930 . S
H517 C526 0.930 . S
H518 C531 0.929 . S
H519 C529 0.929 . S
H520 C524 0.929 . S
H521 C530 0.929 . S
C522 H516 0.930 . S
C522 C523 1.367 . S
C522 C530 1.378 1_554 S
C523 C522 1.367 . S
C523 C531 1.433 1_554 S
C524 H520 0.929 . S
C524 C526 1.378 . S
C524 C528 1.350 . S
C525 C528 1.463 . S
C525 C530 1.350 . S
C525 N533 1.427 . S
C526 H517 0.930 . S
C526 C524 1.378 . S
C526 C527 1.367 . S
C527 C526 1.367 . S
C527 C529 1.433 . S
C528 C524 1.350 . S
C528 C525 1.463 . S
C528 N532 1.427 . S
C529 H519 0.929 . S
C529 C527 1.433 . S
C529 N532 1.384 . S
C530 H521 0.929 . S
C530 C522 1.378 1_556 S
C530 C525 1.350 . S
C531 H518 0.929 . S
C531 C523 1.433 1_556 S
C531 N533 1.384 . S
N532 C528 1.427 . S
N532 C529 1.384 . S
N533 C525 1.427 . S
N533 C531 1.384 . S
H534 C540 0.930 . S
H535 C544 0.930 . S
H536 C549 0.929 . S
H537 C547 0.929 . S
H538 C542 0.929 . S
H539 C548 0.929 . S
C540 H534 0.930 . S
C540 C541 1.367 . S
C540 C548 1.378 . S
C541 C540 1.367 . S
C541 C549 1.433 . S
C542 H538 0.929 . S
C542 C544 1.378 . S
C542 C546 1.350 . S
C543 C546 1.463 . S
C543 C548 1.350 . S
C543 N551 1.427 . S
C544 H535 0.930 . S
C544 C542 1.378 . S
C544 C545 1.367 . S
C545 C544 1.367 . S
C545 C547 1.433 . S
C546 C542 1.350 . S
C546 C543 1.463 . S
C546 N550 1.427 . S
C547 H537 0.929 . S
C547 C545 1.433 . S
C547 N550 1.384 . S
C548 H539 0.929 . S
C548 C540 1.378 . S
C548 C543 1.350 . S
C549 H536 0.929 . S
C549 C541 1.433 . S
C549 N551 1.384 . S
N550 C546 1.427 . S
N550 C547 1.384 . S
N551 C543 1.427 . S
N551 C549 1.384 . S
H552 C558 0.930 . S
H553 C562 0.930 . S
H554 C567 0.929 . S
H555 C565 0.929 . S
H556 C560 0.929 . S
H557 C566 0.929 . S
C558 H552 0.930 . S
C558 C559 1.367 . S
C558 C566 1.378 . S
C559 C558 1.367 . S
C559 C567 1.433 1_556 S
C560 H556 0.929 . S
C560 C562 1.378 . S
C560 C564 1.350 . S
C561 C564 1.463 . S
C561 C566 1.350 1_554 S
C561 N569 1.427 . S
C562 H553 0.930 . S
C562 C560 1.378 . S
C562 C563 1.367 . S
C563 C562 1.367 . S
C563 C565 1.433 . S
C564 C560 1.350 . S
C564 C561 1.463 . S
C564 N568 1.427 . S
C565 H555 0.929 . S
C565 C563 1.433 . S
C565 N568 1.384 . S
C566 H557 0.929 . S
C566 C558 1.378 . S
C566 C561 1.350 1_556 S
C567 H554 0.929 . S
C567 C559 1.433 1_554 S
C567 N569 1.384 . S
N568 C564 1.427 . S
N568 C565 1.384 . S
N569 C561 1.427 . S
N569 C567 1.384 . S
H570 C576 0.930 . S
H571 C580 0.930 . S
H572 C585 0.929 . S
H573 C583 0.929 . S
H574 C578 0.929 . S
H575 C584 0.929 . S
C576 H570 0.930 . S
C576 C577 1.367 . S
C576 C584 1.378 . S
C577 C576 1.367 . S
C577 C585 1.433 . S
C578 H574 0.929 . S
C578 C580 1.378 . S
C578 C582 1.350 . S
C579 C582 1.463 . S
C579 C584 1.350 . S
C579 N587 1.427 . S
C580 H571 0.930 . S
C580 C578 1.378 . S
C580 C581 1.367 . S
C581 C580 1.367 . S
C581 C583 1.433 . S
C582 C578 1.350 . S
C582 C579 1.463 . S
C582 N586 1.427 . S
C583 H573 0.929 . S
C583 C581 1.433 . S
C583 N586 1.384 . S
C584 H575 0.929 . S
C584 C576 1.378 . S
C584 C579 1.350 . S
C585 H572 0.929 . S
C585 C577 1.433 . S
C585 N587 1.384 . S
N586 C582 1.427 . S
N586 C583 1.384 . S
N587 C579 1.427 . S
N587 C585 1.384 . S
H588 C594 0.930 . S
H589 C598 0.930 . S
H590 C603 0.929 . S
H591 C601 0.929 . S
H592 C596 0.929 1_554 S
H593 C602 0.929 . S
C594 H588 0.930 . S
C594 C595 1.367 . S
C594 C602 1.378 . S
C595 C594 1.367 . S
C595 C603 1.433 . S
C596 H592 0.929 1_556 S
C596 C598 1.378 1_556 S
C596 C600 1.350 . S
C597 C600 1.463 . S
C597 C602 1.350 . S
C597 N605 1.427 . S
C598 H589 0.930 . S
C598 C596 1.378 1_554 S
C598 C599 1.367 . S
C599 C598 1.367 . S
C599 C601 1.433 1_554 S
C600 C596 1.350 . S
C600 C597 1.463 . S
C600 N604 1.427 . S
C601 H591 0.929 . S
C601 C599 1.433 1_556 S
C601 N604 1.384 . S
C602 H593 0.929 . S
C602 C594 1.378 . S
C602 C597 1.350 . S
C603 H590 0.929 . S
C603 C595 1.433 . S
C603 N605 1.384 . S
N604 C600 1.427 . S
N604 C601 1.384 . S
N605 C597 1.427 . S
N605 C603 1.384 . S
H606 C612 0.930 . S
H607 C616 0.930 . S
H608 C621 0.929 . S
H609 C619 0.929 . S
H610 C614 0.929 . S
H611 C620 0.929 . S
C612 H606 0.930 . S
C612 C613 1.367 . S
C612 C620 1.378 . S
C613 C612 1.367 . S
C613 C621 1.433 . S
C614 H610 0.929 . S
C614 C616 1.378 . S
C614 C618 1.350 . S
C615 C618 1.463 . S
C615 C620 1.350 . S
C615 N623 1.427 . S
C616 H607 0.930 . S
C616 C614 1.378 . S
C616 C617 1.367 . S
C617 C616 1.367 . S
C617 C619 1.433 . S
C618 C614 1.350 . S
C618 C615 1.463 . S
C618 N622 1.427 . S
C619 H609 0.929 . S
C619 C617 1.433 . S
C619 N622 1.384 . S
C620 H611 0.929 . S
C620 C612 1.378 . S
C620 C615 1.350 . S
C621 H608 0.929 . S
C621 C613 1.433 . S
C621 N623 1.384 . S
N622 C618 1.427 . S
N622 C619 1.384 . S
N623 C615 1.427 . S
N623 C621 1.384 . S
C271 C17 1.497 . S
C275 C116 1.490 . S
C289 C50 1.497 . S
C293 C83 1.497 . S
C307 C248 1.495 . S
C311 C149 1.499 . S
C325 C182 1.497 . S
C329 C215 1.497 . S
C343 N71 1.129 . S
C347 N5 1.120 . S
C361 N104 1.129 . S
C365 N38 1.120 . S
C379 C61 1.576 . S
C383 C127 1.570 . S
C397 C28 1.575 . S
C401 C94 1.570 . S
C415 N203 1.111 . S
C419 N137 1.115 . S
C433 N170 1.111 . S
C437 N236 1.116 . S
C451 C193 1.570 . S
C455 C259 1.576 . S
C469 C226 1.574 . S
C473 C160 1.572 . S
C487 C8 1.349 . S
C491 N179 1.354 . S
C505 C41 1.354 . S
C509 N146 1.346 . S
C523 N245 1.353 . S
C527 C74 1.347 . S
C541 C107 1.347 . S
C545 N212 1.345 . S
C559 N47 1.354 . S
C563 C140 1.354 . S
C577 C173 1.349 . S
C581 N14 1.344 . S
C595 C206 1.349 . S
C599 N113 1.354 . S
C613 C239 1.351 . S
C617 N80 1.355 . S
