# Generated by pormake.
# Topology uns, (4)-cn, num edge types: 1
# Building blocks:
#     Node 0, Type 0, BuildingBlock: NAWXER_clean_sbu_0, # of connection points: 4
#     Node 1, Type 0, BuildingBlock: NAWXER_clean_sbu_0, # of connection points: 4
#     Node 2, Type 0, BuildingBlock: NAWXER_clean_sbu_0, # of connection points: 4
#     Node 3, Type 0, BuildingBlock: NAWXER_clean_sbu_0, # of connection points: 4
#     Node 4, Type 0, BuildingBlock: NAWXER_clean_sbu_0, # of connection points: 4
#     Node 5, Type 0, BuildingBlock: NAWXER_clean_sbu_0, # of connection points: 4
#     Node 6, Type 0, BuildingBlock: NAWXER_clean_sbu_0, # of connection points: 4
#     Node 7, Type 0, BuildingBlock: NAWXER_clean_sbu_0, # of connection points: 4
#     Node 8, Type 0, BuildingBlock: NAWXER_clean_sbu_0, # of connection points: 4
#     Node 9, Type 0, BuildingBlock: NAWXER_clean_sbu_0, # of connection points: 4
#     Node 10, Type 0, BuildingBlock: NAWXER_clean_sbu_0, # of connection points: 4
#     Node 11, Type 0, BuildingBlock: NAWXER_clean_sbu_0, # of connection points: 4
#     Node 12, Type 0, BuildingBlock: NAWXER_clean_sbu_0, # of connection points: 4
#     Node 13, Type 0, BuildingBlock: NAWXER_clean_sbu_0, # of connection points: 4
#     Node 14, Type 0, BuildingBlock: NAWXER_clean_sbu_0, # of connection points: 4
#     Node 15, Type 0, BuildingBlock: NAWXER_clean_sbu_0, # of connection points: 4
#     Node 16, Type 0, BuildingBlock: NAWXER_clean_sbu_0, # of connection points: 4
#     Node 17, Type 0, BuildingBlock: NAWXER_clean_sbu_0, # of connection points: 4
#     Node 18, Type 0, BuildingBlock: NAWXER_clean_sbu_0, # of connection points: 4
#     Node 19, Type 0, BuildingBlock: NAWXER_clean_sbu_0, # of connection points: 4
#     Node 20, Type 0, BuildingBlock: NAWXER_clean_sbu_0, # of connection points: 4
#     Node 21, Type 0, BuildingBlock: NAWXER_clean_sbu_0, # of connection points: 4
#     Node 22, Type 0, BuildingBlock: NAWXER_clean_sbu_0, # of connection points: 4
#     Node 23, Type 0, BuildingBlock: NAWXER_clean_sbu_0, # of connection points: 4
#     Node 24, Type 0, BuildingBlock: NAWXER_clean_sbu_0, # of connection points: 4
#     Node 25, Type 0, BuildingBlock: NAWXER_clean_sbu_0, # of connection points: 4
#     Node 26, Type 0, BuildingBlock: NAWXER_clean_sbu_0, # of connection points: 4
#     Node 27, Type 0, BuildingBlock: NAWXER_clean_sbu_0, # of connection points: 4
#     Node 28, Type 0, BuildingBlock: NAWXER_clean_sbu_0, # of connection points: 4
#     Node 29, Type 0, BuildingBlock: NAWXER_clean_sbu_0, # of connection points: 4
#     Node 30, Type 0, BuildingBlock: NAWXER_clean_sbu_0, # of connection points: 4
#     Node 31, Type 0, BuildingBlock: NAWXER_clean_sbu_0, # of connection points: 4
#     Node 32, Type 0, BuildingBlock: NAWXER_clean_sbu_0, # of connection points: 4
#     Node 33, Type 0, BuildingBlock: NAWXER_clean_sbu_0, # of connection points: 4
#     Node 34, Type 0, BuildingBlock: NAWXER_clean_sbu_0, # of connection points: 4
#     Node 35, Type 0, BuildingBlock: NAWXER_clean_sbu_0, # of connection points: 4
#     Edge 36, Type (0, 0), None
#     Edge 37, Type (0, 0), None
#     Edge 38, Type (0, 0), None
#     Edge 39, Type (0, 0), None
#     Edge 40, Type (0, 0), None
#     Edge 41, Type (0, 0), None
#     Edge 42, Type (0, 0), None
#     Edge 43, Type (0, 0), None
#     Edge 44, Type (0, 0), None
#     Edge 45, Type (0, 0), None
#     Edge 46, Type (0, 0), None
#     Edge 47, Type (0, 0), None
#     Edge 48, Type (0, 0), None
#     Edge 49, Type (0, 0), None
#     Edge 50, Type (0, 0), None
#     Edge 51, Type (0, 0), None
#     Edge 52, Type (0, 0), None
#     Edge 53, Type (0, 0), None
#     Edge 54, Type (0, 0), None
#     Edge 55, Type (0, 0), None
#     Edge 56, Type (0, 0), None
#     Edge 57, Type (0, 0), None
#     Edge 58, Type (0, 0), None
#     Edge 59, Type (0, 0), None
#     Edge 60, Type (0, 0), None
#     Edge 61, Type (0, 0), None
#     Edge 62, Type (0, 0), None
#     Edge 63, Type (0, 0), None
#     Edge 64, Type (0, 0), None
#     Edge 65, Type (0, 0), None
#     Edge 66, Type (0, 0), None
#     Edge 67, Type (0, 0), None
#     Edge 68, Type (0, 0), None
#     Edge 69, Type (0, 0), None
#     Edge 70, Type (0, 0), None
#     Edge 71, Type (0, 0), None
#     Edge 72, Type (0, 0), None
#     Edge 73, Type (0, 0), None
#     Edge 74, Type (0, 0), None
#     Edge 75, Type (0, 0), None
#     Edge 76, Type (0, 0), None
#     Edge 77, Type (0, 0), None
#     Edge 78, Type (0, 0), None
#     Edge 79, Type (0, 0), None
#     Edge 80, Type (0, 0), None
#     Edge 81, Type (0, 0), None
#     Edge 82, Type (0, 0), None
#     Edge 83, Type (0, 0), None
#     Edge 84, Type (0, 0), None
#     Edge 85, Type (0, 0), None
#     Edge 86, Type (0, 0), None
#     Edge 87, Type (0, 0), None
#     Edge 88, Type (0, 0), None
#     Edge 89, Type (0, 0), None
#     Edge 90, Type (0, 0), None
#     Edge 91, Type (0, 0), None
#     Edge 92, Type (0, 0), None
#     Edge 93, Type (0, 0), None
#     Edge 94, Type (0, 0), None
#     Edge 95, Type (0, 0), None
#     Edge 96, Type (0, 0), None
#     Edge 97, Type (0, 0), None
#     Edge 98, Type (0, 0), None
#     Edge 99, Type (0, 0), None
#     Edge 100, Type (0, 0), None
#     Edge 101, Type (0, 0), None
#     Edge 102, Type (0, 0), None
#     Edge 103, Type (0, 0), None
#     Edge 104, Type (0, 0), None
#     Edge 105, Type (0, 0), None
#     Edge 106, Type (0, 0), None
#     Edge 107, Type (0, 0), None
# Relax obj value: 0.008
# Max RMSD: 0.156
# Mean RMSD: 0.156
data_MOF--net-uns--node1-NAWXER_clean_sbu_0--edge1-none
_symmetry_space_group_name_H-M    P1
_symmetry_Int_Tables_number       1
_symmetry_cell_setting            triclinic
loop_
_symmetry_equiv_pos_as_xyz
'x, y, z'
_cell_length_a     26.39883
_cell_length_b     26.398595
_cell_length_c     19.823393
_cell_angle_alpha  90.001667
_cell_angle_beta   89.998801
_cell_angle_gamma 119.99804
loop_
_atom_site_label
_atom_site_type_symbol
_atom_site_fract_x
_atom_site_fract_y
_atom_site_fract_z
_atom_type_partial_charge
C0 C 0.32388 0.17745 0.15811 0.0
C1 C 0.17096 0.21397 0.06434 0.0
O2 O 0.27548 0.1638 0.1872 0.0
Zn3 Zn 0.23958 0.18538 0.11531 0.0
O4 O 0.33241 0.19514 0.09699 0.0
Zn5 Zn 0.28956 0.2181 0.02229 0.0
O6 O 0.3462 0.30122 0.01918 0.0
O7 O 0.30204 0.27396 0.11819 0.0
O8 O 0.21281 0.2231 0.02484 0.0
O9 O 0.16772 0.19192 0.12248 0.0
O10 O 0.22199 0.12029 0.04077 0.0
O11 O 0.27298 0.16178 0.94862 0.0
C12 C 0.34041 0.31303 0.08023 0.0
C13 C 0.2356 0.11604 0.97979 0.0
C14 C 0.80967 0.96172 0.06434 0.0
C15 C 0.84619 0.15116 0.15811 0.0
O16 O 0.83172 0.98052 0.12248 0.0
Zn17 Zn 0.83826 0.05892 0.11531 0.0
O18 O 0.80054 0.99443 0.02483 0.0
Zn19 Zn 0.80554 0.07618 0.02229 0.0
O20 O 0.86186 0.11592 0.94862 0.0
O21 O 0.90335 0.10643 0.04078 0.0
O22 O 0.82849 0.14199 0.09699 0.0
O23 O 0.85983 0.11641 0.1872 0.0
O24 O 0.74968 0.03282 0.11819 0.0
O25 O 0.72242 0.04971 0.01917 0.0
C26 C 0.9076 0.1243 0.9798 0.0
C27 C 0.71061 0.03212 0.08022 0.0
C28 C 0.89933 0.78802 0.9798 0.0
C29 C 0.99152 0.68322 0.08023 0.0
O30 O 0.90771 0.75066 0.94863 0.0
Zn31 Zn 0.94745 0.73408 0.02229 0.0
O32 O 0.9172 0.80165 0.04078 0.0
Zn33 Zn 0.96471 0.78406 0.11532 0.0
O34 O 0.04311 0.85592 0.12248 0.0
O35 O 0.0292 0.81083 0.02484 0.0
O36 O 0.99082 0.72159 0.11819 0.0
O37 O 0.97394 0.67744 0.01917 0.0
O38 O 0.88165 0.69123 0.09699 0.0
O39 O 0.90722 0.74815 0.1872 0.0
C40 C 0.06191 0.85268 0.06434 0.0
C41 C 0.87247 0.69975 0.15811 0.0
C42 C 0.12077 0.23089 0.5393 0.0
C43 C 0.31776 0.3357 0.43887 0.0
O44 O 0.1665 0.26826 0.57047 0.0
Zn45 Zn 0.22283 0.28484 0.49681 0.0
O46 O 0.12502 0.21727 0.47832 0.0
Zn47 Zn 0.19011 0.23485 0.40379 0.0
O48 O 0.19666 0.163 0.39662 0.0
O49 O 0.22783 0.20809 0.49427 0.0
O50 O 0.27869 0.29733 0.40091 0.0
O51 O 0.30595 0.34148 0.49993 0.0
O52 O 0.19987 0.32768 0.42211 0.0
O53 O 0.16853 0.27076 0.3319 0.0
C54 C 0.2187 0.16624 0.45477 0.0
C55 C 0.18218 0.31916 0.36099 0.0
C56 C 0.8574 0.05719 0.45476 0.0
C57 C 0.70448 0.86775 0.36099 0.0
O58 O 0.86064 0.03838 0.39662 0.0
Zn59 Zn 0.78879 0.95998 0.40378 0.0
O60 O 0.81556 0.02447 0.49426 0.0
Zn61 Zn 0.7388 0.94273 0.49681 0.0
O62 O 0.75539 0.90298 0.57047 0.0
O63 O 0.80637 0.91248 0.47832 0.0
O64 O 0.69596 0.87692 0.42211 0.0
O65 O 0.75288 0.9025 0.33189 0.0
O66 O 0.72632 0.98609 0.40091 0.0
O67 O 0.68216 0.96921 0.49993 0.0
C68 C 0.79275 0.89461 0.53929 0.0
C69 C 0.68795 0.9868 0.43887 0.0
C70 C 0.96645 0.80494 0.45476 0.0
C71 C 0.15589 0.84146 0.36099 0.0
O72 O 0.98525 0.82699 0.39662 0.0
Zn73 Zn 0.06365 0.83353 0.40379 0.0
O74 O 0.99916 0.79581 0.49426 0.0
Zn75 Zn 0.08091 0.8008 0.49681 0.0
O76 O 0.12065 0.85713 0.57048 0.0
O77 O 0.11115 0.89862 0.47832 0.0
O78 O 0.14672 0.82376 0.42212 0.0
O79 O 0.12114 0.85511 0.3319 0.0
O80 O 0.03754 0.74495 0.40091 0.0
O81 O 0.05443 0.71768 0.49993 0.0
C82 C 0.12903 0.90287 0.5393 0.0
C83 C 0.03684 0.70588 0.43888 0.0
C84 C 0.79275 0.90286 0.03931 0.0
C85 C 0.68794 0.70587 0.93887 0.0
O86 O 0.80637 0.89862 0.97833 0.0
Zn87 Zn 0.78878 0.83353 0.90379 0.0
O88 O 0.75537 0.85713 0.07048 0.0
Zn89 Zn 0.73879 0.8008 0.99681 0.0
O90 O 0.81555 0.79581 0.99426 0.0
O91 O 0.86064 0.82698 0.89662 0.0
O92 O 0.68215 0.71768 0.99992 0.0
O93 O 0.72631 0.74495 0.90091 0.0
O94 O 0.75287 0.85511 0.8319 0.0
O95 O 0.69595 0.82377 0.92211 0.0
C96 C 0.85739 0.80494 0.95476 0.0
C97 C 0.70448 0.84146 0.86099 0.0
C98 C 0.21868 0.05718 0.95476 0.0
C99 C 0.18218 0.86774 0.861 0.0
O100 O 0.22782 0.02447 0.99427 0.0
Zn101 Zn 0.22283 0.94272 0.99682 0.0
O102 O 0.19664 0.03837 0.89662 0.0
Zn103 Zn 0.1901 0.95998 0.90379 0.0
O104 O 0.12501 0.91248 0.97833 0.0
O105 O 0.16651 0.90298 0.07049 0.0
O106 O 0.16852 0.90249 0.83191 0.0
O107 O 0.19987 0.87691 0.92212 0.0
O108 O 0.30595 0.9692 0.99993 0.0
O109 O 0.27868 0.98609 0.90091 0.0
C110 C 0.12077 0.89462 0.03931 0.0
C111 C 0.31776 0.9868 0.93888 0.0
C112 C 0.12902 0.23088 0.03931 0.0
C113 C 0.03683 0.33568 0.93887 0.0
O114 O 0.11116 0.21726 0.97833 0.0
Zn115 Zn 0.06366 0.23485 0.90379 0.0
O116 O 0.12066 0.26826 0.07048 0.0
Zn117 Zn 0.08092 0.28484 0.99681 0.0
O118 O 0.99917 0.20808 0.99426 0.0
O119 O 0.98526 0.16299 0.89662 0.0
O120 O 0.05443 0.34148 0.99992 0.0
O121 O 0.03754 0.29732 0.90091 0.0
O122 O 0.12115 0.27076 0.8319 0.0
O123 O 0.14672 0.32768 0.92211 0.0
C124 C 0.96646 0.16624 0.95476 0.0
C125 C 0.15589 0.31916 0.86099 0.0
C126 C 0.90758 0.78802 0.47979 0.0
C127 C 0.7106 0.68322 0.58023 0.0
O128 O 0.90334 0.80165 0.54077 0.0
Zn129 Zn 0.83825 0.78405 0.61531 0.0
O130 O 0.86185 0.75064 0.44862 0.0
Zn131 Zn 0.80553 0.73406 0.52229 0.0
O132 O 0.80054 0.81082 0.52483 0.0
O133 O 0.83171 0.85591 0.62248 0.0
O134 O 0.72241 0.67743 0.51918 0.0
O135 O 0.74968 0.72159 0.61819 0.0
O136 O 0.85984 0.74815 0.6872 0.0
O137 O 0.82849 0.69122 0.59699 0.0
C138 C 0.80967 0.85267 0.56434 0.0
C139 C 0.84619 0.69975 0.65811 0.0
C140 C 0.32389 0.15116 0.65812 0.0
C141 C 0.17096 0.96173 0.56434 0.0
O142 O 0.33241 0.14199 0.59699 0.0
Zn143 Zn 0.28956 0.07619 0.52229 0.0
O144 O 0.27549 0.11642 0.68721 0.0
Zn145 Zn 0.23958 0.05893 0.61532 0.0
O146 O 0.30205 0.03282 0.61819 0.0
O147 O 0.3462 0.0497 0.51918 0.0
O148 O 0.16772 0.98053 0.62248 0.0
O149 O 0.21281 0.99444 0.52484 0.0
O150 O 0.27299 0.11593 0.44863 0.0
O151 O 0.22199 0.10643 0.54078 0.0
C152 C 0.34042 0.03211 0.58023 0.0
C153 C 0.23562 0.1243 0.47981 0.0
C154 C 0.87247 0.17745 0.65811 0.0
C155 C 0.06191 0.21397 0.56434 0.0
O156 O 0.88164 0.19514 0.59699 0.0
Zn157 Zn 0.94744 0.2181 0.52229 0.0
O158 O 0.90722 0.1638 0.6872 0.0
Zn159 Zn 0.96471 0.18538 0.61531 0.0
O160 O 0.99081 0.27396 0.61819 0.0
O161 O 0.97392 0.30122 0.51917 0.0
O162 O 0.04311 0.19193 0.62248 0.0
O163 O 0.02919 0.2231 0.52483 0.0
O164 O 0.9077 0.16178 0.44862 0.0
O165 O 0.91721 0.12029 0.54078 0.0
C166 C 0.99151 0.31303 0.58022 0.0
C167 C 0.89934 0.11604 0.4798 0.0
C168 C 0.99055 0.51078 0.49144 0.0
C169 C 0.83763 0.5473 0.39768 0.0
O170 O 0.94215 0.49713 0.52053 0.0
Zn171 Zn 0.90624 0.51871 0.44865 0.0
O172 O 0.99907 0.52847 0.43032 0.0
Zn173 Zn 0.95623 0.55144 0.35562 0.0
O174 O 1.01287 0.63456 0.35251 0.0
O175 O 0.96871 0.60729 0.45153 0.0
O176 O 0.87947 0.55643 0.35817 0.0
O177 O 0.83438 0.52525 0.45582 0.0
O178 O 0.88865 0.45362 0.3741 0.0
O179 O 0.93964 0.49511 0.28196 0.0
C180 C 1.00708 0.64636 0.41356 0.0
C181 C 0.90227 0.44937 0.31312 0.0
C182 C 0.47633 0.29505 0.39767 0.0
C183 C 0.51285 0.48449 0.49144 0.0
O184 O 0.49838 0.31386 0.45581 0.0
Zn185 Zn 0.50492 0.39226 0.44864 0.0
O186 O 0.4672 0.32776 0.35817 0.0
Zn187 Zn 0.4722 0.40952 0.35562 0.0
O188 O 0.52853 0.44926 0.28196 0.0
O189 O 0.57002 0.43976 0.37411 0.0
O190 O 0.49516 0.47533 0.43032 0.0
O191 O 0.5265 0.44974 0.52053 0.0
O192 O 0.41634 0.36615 0.45152 0.0
O193 O 0.38908 0.38304 0.3525 0.0
C194 C 0.57427 0.45763 0.31313 0.0
C195 C 0.37728 0.36546 0.41356 0.0
C196 C 0.566 0.12135 0.31314 0.0
C197 C 0.65819 0.01655 0.41356 0.0
O198 O 0.57438 0.08399 0.28196 0.0
Zn199 Zn 0.61412 0.06741 0.35563 0.0
O200 O 0.58387 0.13498 0.37412 0.0
Zn201 Zn 0.63138 0.11739 0.44865 0.0
O202 O 0.70977 0.18925 0.45582 0.0
O203 O 0.69587 0.14416 0.35817 0.0
O204 O 0.65749 0.05492 0.45153 0.0
O205 O 0.6406 0.01077 0.35251 0.0
O206 O 0.54831 0.02456 0.43033 0.0
O207 O 0.57389 0.08149 0.52054 0.0
C208 C 0.72858 0.18601 0.39768 0.0
C209 C 0.53914 0.03309 0.49145 0.0
C210 C 0.78744 0.56423 0.87263 0.0
C211 C 0.98443 0.66903 0.77221 0.0
O212 O 0.83317 0.60159 0.90381 0.0
Zn213 Zn 0.8895 0.61817 0.83014 0.0
O214 O 0.79169 0.5506 0.81166 0.0
Zn215 Zn 0.85678 0.56819 0.73712 0.0
O216 O 0.86333 0.49633 0.72995 0.0
O217 O 0.8945 0.54142 0.8276 0.0
O218 O 0.94536 0.63066 0.73424 0.0
O219 O 0.97262 0.67481 0.83326 0.0
O220 O 0.86654 0.66102 0.75544 0.0
O221 O 0.8352 0.60409 0.66523 0.0
C222 C 0.88537 0.49957 0.7881 0.0
C223 C 0.84885 0.65249 0.69432 0.0
C224 C 0.35463 0.32015 0.77221 0.0
C225 C 0.45942 0.22795 0.87265 0.0
O226 O 0.34883 0.30255 0.83326 0.0
Zn227 Zn 0.40547 0.27606 0.83015 0.0
O228 O 0.39299 0.31943 0.73425 0.0
Zn229 Zn 0.45545 0.29331 0.73713 0.0
O230 O 0.41955 0.23582 0.66524 0.0
O231 O 0.36262 0.21025 0.75545 0.0
O232 O 0.47304 0.24581 0.81168 0.0
O233 O 0.42204 0.23632 0.90382 0.0
O234 O 0.48222 0.35781 0.8276 0.0
O235 O 0.52731 0.37171 0.72996 0.0
C236 C 0.37115 0.20108 0.69433 0.0
C237 C 0.52407 0.39051 0.7881 0.0
C238 C 0.79569 0.23621 0.87263 0.0
C239 C 0.70351 0.03921 0.77221 0.0
O240 O 0.78732 0.19047 0.90381 0.0
Zn241 Zn 0.74758 0.13414 0.83014 0.0
O242 O 0.77782 0.23195 0.81166 0.0
Zn243 Zn 0.73032 0.16686 0.73712 0.0
O244 O 0.65191 0.16032 0.72996 0.0
O245 O 0.66583 0.12914 0.8276 0.0
O246 O 0.70421 0.07828 0.73424 0.0
O247 O 0.7211 0.05102 0.83326 0.0
O248 O 0.81339 0.1571 0.75544 0.0
O249 O 0.7878 0.18844 0.66523 0.0
C250 C 0.63311 0.13827 0.7881 0.0
C251 C 0.82255 0.17479 0.69432 0.0
C252 C 0.45941 0.23619 0.37264 0.0
C253 C 0.35461 0.03921 0.27221 0.0
O254 O 0.47304 0.23195 0.31166 0.0
Zn255 Zn 0.45544 0.16686 0.23712 0.0
O256 O 0.42204 0.19046 0.40381 0.0
Zn257 Zn 0.40546 0.13414 0.33014 0.0
O258 O 0.48221 0.12914 0.3276 0.0
O259 O 0.5273 0.16031 0.22995 0.0
O260 O 0.34882 0.05102 0.33326 0.0
O261 O 0.39298 0.07828 0.23424 0.0
O262 O 0.41954 0.18844 0.16523 0.0
O263 O 0.36261 0.1571 0.25544 0.0
C264 C 0.52406 0.13827 0.2881 0.0
C265 C 0.37114 0.17479 0.19432 0.0
C266 C 0.88535 0.39051 0.28809 0.0
C267 C 0.84884 0.20107 0.19433 0.0
O268 O 0.89449 0.3578 0.3276 0.0
Zn269 Zn 0.88949 0.27605 0.33015 0.0
O270 O 0.86331 0.37171 0.22995 0.0
Zn271 Zn 0.85677 0.29331 0.23712 0.0
O272 O 0.79168 0.24581 0.31166 0.0
O273 O 0.83317 0.23631 0.40382 0.0
O274 O 0.83519 0.23582 0.16524 0.0
O275 O 0.86653 0.21024 0.25545 0.0
O276 O 0.97261 0.30253 0.33326 0.0
O277 O 0.94535 0.31942 0.23424 0.0
C278 C 0.78744 0.22795 0.37264 0.0
C279 C 0.98442 0.32013 0.27221 0.0
C280 C 0.79568 0.56422 0.37264 0.0
C281 C 0.7035 0.66901 0.27221 0.0
O282 O 0.77782 0.55059 0.31166 0.0
Zn283 Zn 0.73033 0.56818 0.23712 0.0
O284 O 0.78732 0.60159 0.40382 0.0
Zn285 Zn 0.74758 0.61817 0.33014 0.0
O286 O 0.66584 0.54141 0.3276 0.0
O287 O 0.65193 0.49632 0.22995 0.0
O288 O 0.7211 0.67481 0.33326 0.0
O289 O 0.70421 0.63065 0.23424 0.0
O290 O 0.78782 0.60409 0.16524 0.0
O291 O 0.81339 0.66102 0.25545 0.0
C292 C 0.63312 0.49957 0.28809 0.0
C293 C 0.82256 0.65249 0.19433 0.0
C294 C 0.51285 0.03308 0.99144 0.0
C295 C 0.47633 0.18601 0.89769 0.0
O296 O 0.49516 0.02456 0.93032 0.0
Zn297 Zn 0.4722 0.0674 0.85563 0.0
O298 O 0.5265 0.08148 0.02054 0.0
Zn299 Zn 0.50492 0.11739 0.94866 0.0
O300 O 0.41634 0.05492 0.95153 0.0
O301 O 0.38908 0.01077 0.85251 0.0
O302 O 0.49838 0.18924 0.95583 0.0
O303 O 0.4672 0.14416 0.85818 0.0
O304 O 0.52852 0.08399 0.78196 0.0
O305 O 0.57001 0.13498 0.87412 0.0
C306 C 0.37727 0.01655 0.91357 0.0
C307 C 0.57425 0.12135 0.81314 0.0
C308 C 0.99055 0.4845 0.99144 0.0
C309 C 0.83763 0.29506 0.89767 0.0
O310 O 0.99908 0.47533 0.93032 0.0
Zn311 Zn 0.95623 0.40952 0.85562 0.0
O312 O 0.94216 0.44975 0.02053 0.0
Zn313 Zn 0.90625 0.39226 0.94865 0.0
O314 O 0.96871 0.36615 0.95152 0.0
O315 O 1.01287 0.38304 0.8525 0.0
O316 O 0.83439 0.31387 0.95581 0.0
O317 O 0.87948 0.32778 0.85817 0.0
O318 O 0.93965 0.44927 0.78195 0.0
O319 O 0.88866 0.43977 0.87411 0.0
C320 C 1.00709 0.36545 0.91356 0.0
C321 C 0.90229 0.45764 0.81314 0.0
C322 C 0.53914 0.51078 0.99145 0.0
C323 C 0.72858 0.5473 0.89767 0.0
O324 O 0.54831 0.52847 0.93033 0.0
Zn325 Zn 0.61411 0.55143 0.85562 0.0
O326 O 0.57389 0.49713 0.02054 0.0
Zn327 Zn 0.63138 0.51871 0.94865 0.0
O328 O 0.65748 0.60729 0.95153 0.0
O329 O 0.64059 0.63455 0.85251 0.0
O330 O 0.70978 0.52526 0.95581 0.0
O331 O 0.69586 0.55643 0.85817 0.0
O332 O 0.57437 0.4951 0.78196 0.0
O333 O 0.58388 0.45362 0.87412 0.0
C334 C 0.65818 0.64636 0.91356 0.0
C335 C 0.56601 0.44937 0.81314 0.0
C336 C 0.56894 0.78271 0.64647 0.0
C337 C 0.67376 0.9797 0.7469 0.0
O338 O 0.60631 0.82844 0.61529 0.0
Zn339 Zn 0.62289 0.88477 0.68896 0.0
O340 O 0.55532 0.78696 0.70745 0.0
Zn341 Zn 0.57291 0.85205 0.78199 0.0
O342 O 0.50106 0.8586 0.78916 0.0
O343 O 0.54614 0.88977 0.69151 0.0
O344 O 0.63538 0.94063 0.78486 0.0
O345 O 0.67954 0.96789 0.68584 0.0
O346 O 0.66574 0.86181 0.76366 0.0
O347 O 0.60882 0.83047 0.85387 0.0
C348 C 0.5043 0.88064 0.73102 0.0
C349 C 0.65721 0.84412 0.82478 0.0
C350 C 0.04394 0.69878 0.74689 0.0
C351 C 0.24093 0.79096 0.64646 0.0
O352 O 0.05575 0.71638 0.68584 0.0
Zn353 Zn 0.13887 0.74285 0.68896 0.0
O354 O 0.08302 0.69948 0.78486 0.0
Zn355 Zn 0.1716 0.72559 0.78198 0.0
O356 O 0.19318 0.78308 0.85386 0.0
O357 O 0.16183 0.80866 0.76366 0.0
O358 O 0.23669 0.77309 0.70743 0.0
O359 O 0.19519 0.7826 0.61529 0.0
O360 O 0.13387 0.6611 0.6915 0.0
O361 O 0.16505 0.64719 0.78914 0.0
C362 C 0.17953 0.81783 0.82478 0.0
C363 C 0.14301 0.62839 0.73099 0.0
C364 C 0.32487 0.3499 0.74689 0.0
C365 C 0.23267 0.45469 0.64645 0.0
O366 O 0.30728 0.3441 0.68584 0.0
Zn367 Zn 0.28079 0.40074 0.68895 0.0
O368 O 0.32416 0.38827 0.78486 0.0
Zn369 Zn 0.29804 0.45073 0.78197 0.0
O370 O 0.24055 0.41482 0.85386 0.0
O371 O 0.21498 0.35789 0.76365 0.0
O372 O 0.25054 0.46831 0.70743 0.0
O373 O 0.24105 0.41732 0.61528 0.0
O374 O 0.36254 0.4775 0.6915 0.0
O375 O 0.37643 0.52259 0.78914 0.0
C376 C 0.2058 0.36642 0.82477 0.0
C377 C 0.39524 0.51935 0.731 0.0
C378 C 0.4541 0.89755 0.20596 0.0
C379 C 0.65109 1.00236 0.10554 0.0
O380 O 0.49984 0.93492 0.23714 0.0
Zn381 Zn 0.55617 0.9515 0.16347 0.0
O382 O 0.45835 0.88393 0.14499 0.0
Zn383 Zn 0.52345 0.90152 0.07045 0.0
O384 O 0.52999 0.82966 0.06328 0.0
O385 O 0.56117 0.87475 0.16093 0.0
O386 O 0.61202 0.96399 0.06757 0.0
O387 O 0.63929 1.00815 0.16659 0.0
O388 O 0.5332 0.99435 0.08878 0.0
O389 O 0.50186 0.93742 0.99856 0.0
C390 C 0.55204 0.8329 0.12143 0.0
C391 C 0.51551 0.98582 0.02766 0.0
C392 C 0.19073 0.72385 0.12143 0.0
C393 C 0.03781 0.53441 0.02766 0.0
O394 O 0.19398 0.70505 0.06329 0.0
Zn395 Zn 0.12212 0.62665 0.07046 0.0
O396 O 0.14889 0.69114 0.16093 0.0
Zn397 Zn 0.07213 0.60939 0.16348 0.0
O398 O 0.08871 0.56965 0.23715 0.0
O399 O 0.1397 0.57914 0.14499 0.0
O400 O 0.02929 0.54358 0.08878 0.0
O401 O 0.08621 0.56916 0.99857 0.0
O402 O 0.05965 0.65276 0.06758 0.0
O403 O 0.01549 0.63587 0.1666 0.0
C404 C 0.12608 0.56127 0.20597 0.0
C405 C 0.02128 0.65346 0.10554 0.0
C406 C 0.37017 0.37255 0.10554 0.0
C407 C 0.46235 0.56953 0.20598 0.0
O408 O 0.38776 0.38435 0.16659 0.0
Zn409 Zn 0.41425 0.46747 0.16348 0.0
O410 O 0.37087 0.41162 0.06758 0.0
Zn411 Zn 0.39699 0.5002 0.07046 0.0
O412 O 0.45448 0.52178 0.99858 0.0
O413 O 0.48005 0.49043 0.08878 0.0
O414 O 0.44449 0.56529 0.14501 0.0
O415 O 0.45399 0.52379 0.23715 0.0
O416 O 0.3325 0.46248 0.16094 0.0
O417 O 0.31859 0.49366 0.0633 0.0
C418 C 0.48922 0.50813 0.02766 0.0
C419 C 0.29978 0.47161 0.12144 0.0
C420 C 0.03781 0.50813 0.52765 0.0
C421 C 0.19073 0.4716 0.62141 0.0
O422 O 0.02929 0.49043 0.58877 0.0
Zn423 Zn 0.07213 0.46747 0.66347 0.0
O424 O 0.0862 0.52177 0.49856 0.0
Zn425 Zn 0.12211 0.50019 0.57044 0.0
O426 O 0.05964 0.41161 0.56757 0.0
O427 O 0.01549 0.38435 0.66659 0.0
O428 O 0.19397 0.49364 0.56327 0.0
O429 O 0.14889 0.46247 0.66092 0.0
O430 O 0.08872 0.5238 0.73714 0.0
O431 O 0.13971 0.56528 0.64498 0.0
C432 C 0.02127 0.37255 0.60554 0.0
C433 C 0.12608 0.56953 0.70595 0.0
C434 C 0.55202 0.72385 0.62143 0.0
C435 C 0.5155 0.53441 0.52766 0.0
O436 O 0.56115 0.69113 0.66093 0.0
Zn437 Zn 0.55616 0.60938 0.66348 0.0
O438 O 0.52998 0.70505 0.56329 0.0
Zn439 Zn 0.52343 0.62664 0.57045 0.0
O440 O 0.45834 0.57915 0.645 0.0
O441 O 0.49984 0.56964 0.73715 0.0
O442 O 0.50185 0.56915 0.49857 0.0
O443 O 0.5332 0.54358 0.58878 0.0
O444 O 0.63928 0.63587 0.66659 0.0
O445 O 0.61201 0.65276 0.56757 0.0
C446 C 0.4541 0.56129 0.70597 0.0
C447 C 0.65109 0.65346 0.60554 0.0
C448 C 0.46235 0.89755 0.70598 0.0
C449 C 0.37017 1.00235 0.60554 0.0
O450 O 0.44449 0.88393 0.645 0.0
Zn451 Zn 0.397 0.90152 0.57046 0.0
O452 O 0.45399 0.93493 0.73715 0.0
Zn453 Zn 0.41425 0.9515 0.66348 0.0
O454 O 0.3325 0.87475 0.66093 0.0
O455 O 0.3186 0.82966 0.56329 0.0
O456 O 0.38776 1.00814 0.6666 0.0
O457 O 0.37088 0.96398 0.56758 0.0
O458 O 0.45449 0.93743 0.49857 0.0
O459 O 0.48006 0.99435 0.58878 0.0
C460 C 0.29979 0.8329 0.62143 0.0
C461 C 0.48923 0.98583 0.52766 0.0
C462 C 0.17952 0.36642 0.32478 0.0
C463 C 0.143 0.51933 0.23101 0.0
O464 O 0.16183 0.35789 0.26366 0.0
Zn465 Zn 0.13886 0.40073 0.18896 0.0
O466 O 0.19317 0.41481 0.35387 0.0
Zn467 Zn 0.17158 0.45072 0.28199 0.0
O468 O 0.08301 0.38825 0.28486 0.0
O469 O 0.05574 0.34409 0.18584 0.0
O470 O 0.16504 0.52258 0.28915 0.0
O471 O 0.13387 0.47749 0.19151 0.0
O472 O 0.19519 0.41732 0.11529 0.0
O473 O 0.23668 0.46831 0.20745 0.0
C474 C 0.04394 0.34988 0.2469 0.0
C475 C 0.24092 0.45469 0.14648 0.0
C476 C 0.65722 0.81784 0.32477 0.0
C477 C 0.50429 0.62839 0.23101 0.0
O478 O 0.66574 0.80866 0.26365 0.0
Zn479 Zn 0.62289 0.74285 0.18895 0.0
O480 O 0.60882 0.78309 0.35387 0.0
Zn481 Zn 0.57291 0.7256 0.28198 0.0
O482 O 0.63538 0.69948 0.28486 0.0
O483 O 0.67953 0.71636 0.18584 0.0
O484 O 0.50106 0.6472 0.28915 0.0
O485 O 0.54614 0.6611 0.19151 0.0
O486 O 0.60631 0.78259 0.11528 0.0
O487 O 0.55532 0.7731 0.20744 0.0
C488 C 0.67375 0.69878 0.24689 0.0
C489 C 0.56895 0.79096 0.14647 0.0
C490 C 0.2058 0.84411 0.32478 0.0
C491 C 0.39524 0.88063 0.231 0.0
O492 O 0.21497 0.8618 0.26366 0.0
Zn493 Zn 0.28078 0.88477 0.18896 0.0
O494 O 0.24055 0.83046 0.35387 0.0
Zn495 Zn 0.29804 0.85204 0.28198 0.0
O496 O 0.32415 0.94062 0.28486 0.0
O497 O 0.30726 0.96789 0.18584 0.0
O498 O 0.37644 0.85859 0.28914 0.0
O499 O 0.36253 0.88976 0.1915 0.0
O500 O 0.24104 0.82844 0.11529 0.0
O501 O 0.25054 0.78695 0.20745 0.0
C502 C 0.32484 0.97969 0.2469 0.0
C503 C 0.23267 0.78271 0.14647 0.0
loop_
_geom_bond_atom_site_label_1
_geom_bond_atom_site_label_2
_geom_bond_distance
_geom_bond_site_symmetry_2
_ccdc_geom_bond_type
C0 O2 1.247 . S
C0 O4 1.258 . S
C1 O8 1.247 1_554 S
C1 O9 1.258 . S
O2 C0 1.247 . S
O2 Zn3 2.028 . S
Zn3 O2 2.028 . S
Zn3 O7 2.035 . S
Zn3 O9 2.035 . S
Zn3 O10 2.028 . S
O4 C0 1.258 . S
O4 Zn5 2.035 . S
Zn5 O4 2.035 . S
Zn5 O6 2.028 . S
Zn5 O8 2.028 1_554 S
Zn5 O11 2.038 . S
O6 Zn5 2.028 . S
O6 C12 1.247 . S
O7 Zn3 2.035 . S
O7 C12 1.258 . S
O8 C1 1.247 1_556 S
O8 Zn5 2.028 1_556 S
O9 C1 1.258 . S
O9 Zn3 2.035 . S
O10 Zn3 2.028 . S
O10 C13 1.247 . S
O11 Zn5 2.038 . S
O11 C13 1.269 . S
C12 O6 1.247 . S
C12 O7 1.258 . S
C13 O10 1.247 . S
C13 O11 1.269 . S
C14 O16 1.247 . S
C14 O18 1.258 1_564 S
C15 O22 1.247 . S
C15 O23 1.258 . S
O16 C14 1.247 . S
O16 Zn17 2.028 1_565 S
Zn17 O16 2.028 1_545 S
Zn17 O21 2.035 . S
Zn17 O23 2.035 . S
Zn17 O24 2.028 1_545 S
O18 C14 1.258 1_546 S
O18 Zn19 2.035 1_556 S
Zn19 O18 2.035 1_554 S
Zn19 O20 2.029 . S
Zn19 O22 2.028 . S
Zn19 O25 2.035 . S
O20 Zn19 2.029 . S
O20 C26 1.252 . S
O21 Zn17 2.035 . S
O21 C26 1.258 . S
O22 C15 1.247 . S
O22 Zn19 2.028 . S
O23 C15 1.258 . S
O23 Zn17 2.035 . S
O24 Zn17 2.028 1_565 S
O24 C27 1.247 . S
O25 Zn19 2.035 . S
O25 C27 1.258 1_545 S
C26 O20 1.252 . S
C26 O21 1.258 . S
C27 O24 1.247 . S
C27 O25 1.258 1_565 S
C28 O30 1.252 . S
C28 O32 1.258 . S
C29 O36 1.247 . S
C29 O37 1.258 1_455 S
O30 C28 1.252 . S
O30 Zn31 2.029 . S
Zn31 O30 2.029 . S
Zn31 O35 2.035 1_554 S
Zn31 O37 2.035 . S
Zn31 O38 2.028 . S
O32 C28 1.258 . S
O32 Zn33 2.035 . S
Zn33 O32 2.035 . S
Zn33 O34 2.028 1_655 S
Zn33 O36 2.028 1_655 S
Zn33 O39 2.035 . S
O34 Zn33 2.028 1_455 S
O34 C40 1.247 . S
O35 Zn31 2.035 1_556 S
O35 C40 1.258 1_656 S
O36 C29 1.247 . S
O36 Zn33 2.028 1_455 S
O37 C29 1.258 1_655 S
O37 Zn31 2.035 . S
O38 Zn31 2.028 . S
O38 C41 1.247 . S
O39 Zn33 2.035 . S
O39 C41 1.258 . S
C40 O34 1.247 . S
C40 O35 1.258 1_454 S
C41 O38 1.247 . S
C41 O39 1.258 . S
C42 O44 1.247 . S
C42 O46 1.258 . S
C43 O50 1.247 . S
C43 O51 1.258 . S
O44 C42 1.247 . S
O44 Zn45 2.028 . S
Zn45 O44 2.028 . S
Zn45 O49 2.035 . S
Zn45 O51 2.035 . S
Zn45 O52 2.028 . S
O46 C42 1.258 . S
O46 Zn47 2.035 . S
Zn47 O46 2.035 . S
Zn47 O48 2.028 . S
Zn47 O50 2.028 . S
Zn47 O53 2.035 . S
O48 Zn47 2.028 . S
O48 C54 1.247 . S
O49 Zn45 2.035 . S
O49 C54 1.258 . S
O50 C43 1.247 . S
O50 Zn47 2.028 . S
O51 C43 1.258 . S
O51 Zn45 2.035 . S
O52 Zn45 2.028 . S
O52 C55 1.247 . S
O53 Zn47 2.035 . S
O53 C55 1.258 . S
C54 O48 1.247 . S
C54 O49 1.258 . S
C55 O52 1.247 . S
C55 O53 1.258 . S
C56 O58 1.247 . S
C56 O60 1.258 1_545 S
C57 O64 1.247 . S
C57 O65 1.258 . S
O58 C56 1.247 . S
O58 Zn59 2.028 1_545 S
Zn59 O58 2.028 1_565 S
Zn59 O63 2.035 . S
Zn59 O65 2.035 . S
Zn59 O66 2.028 1_565 S
O60 C56 1.258 1_565 S
O60 Zn61 2.035 . S
Zn61 O60 2.035 . S
Zn61 O62 2.028 . S
Zn61 O64 2.028 . S
Zn61 O67 2.035 . S
O62 Zn61 2.028 . S
O62 C68 1.247 . S
O63 Zn59 2.035 . S
O63 C68 1.258 . S
O64 C57 1.247 . S
O64 Zn61 2.028 . S
O65 C57 1.258 . S
O65 Zn59 2.035 . S
O66 Zn59 2.028 1_545 S
O66 C69 1.247 . S
O67 Zn61 2.035 . S
O67 C69 1.258 1_565 S
C68 O62 1.247 . S
C68 O63 1.258 . S
C69 O66 1.247 . S
C69 O67 1.258 1_545 S
C70 O72 1.247 . S
C70 O74 1.258 1_655 S
C71 O78 1.247 . S
C71 O79 1.258 . S
O72 C70 1.247 . S
O72 Zn73 2.028 1_655 S
Zn73 O72 2.028 1_455 S
Zn73 O77 2.035 . S
Zn73 O79 2.035 . S
Zn73 O80 2.028 1_455 S
O74 C70 1.258 1_455 S
O74 Zn75 2.035 . S
Zn75 O74 2.035 . S
Zn75 O76 2.028 . S
Zn75 O78 2.028 . S
Zn75 O81 2.035 . S
O76 Zn75 2.028 . S
O76 C82 1.247 . S
O77 Zn73 2.035 . S
O77 C82 1.258 . S
O78 C71 1.247 . S
O78 Zn75 2.028 . S
O79 C71 1.258 . S
O79 Zn73 2.035 . S
O80 Zn73 2.028 1_655 S
O80 C83 1.247 . S
O81 Zn75 2.035 . S
O81 C83 1.258 1_455 S
C82 O76 1.247 . S
C82 O77 1.258 . S
C83 O80 1.247 . S
C83 O81 1.258 1_655 S
C84 O86 1.247 . S
C84 O88 1.269 . S
C85 O92 1.247 . S
C85 O93 1.258 . S
O86 C84 1.247 . S
O86 Zn87 2.028 . S
Zn87 O86 2.028 . S
Zn87 O91 2.035 . S
Zn87 O93 2.035 . S
Zn87 O94 2.028 . S
O88 C84 1.269 . S
O88 Zn89 2.038 . S
Zn89 O88 2.038 . S
Zn89 O90 2.028 1_556 S
Zn89 O92 2.028 . S
Zn89 O95 2.035 . S
O90 Zn89 2.028 1_554 S
O90 C96 1.247 1_554 S
O91 Zn87 2.035 . S
O91 C96 1.258 . S
O92 C85 1.247 . S
O92 Zn89 2.028 . S
O93 C85 1.258 . S
O93 Zn87 2.035 . S
O94 Zn87 2.028 . S
O94 C97 1.247 . S
O95 Zn89 2.035 . S
O95 C97 1.258 . S
C96 O90 1.247 1_556 S
C96 O91 1.258 . S
C97 O94 1.247 . S
C97 O95 1.258 . S
C98 O100 1.247 1_546 S
C98 O102 1.258 . S
C99 O106 1.247 . S
C99 O107 1.258 . S
O100 C98 1.247 1_564 S
O100 Zn101 2.028 1_554 S
Zn101 O100 2.028 1_556 S
Zn101 O105 2.038 . S
Zn101 O107 2.035 . S
Zn101 O108 2.028 . S
O102 C98 1.258 . S
O102 Zn103 2.035 1_545 S
Zn103 O102 2.035 1_565 S
Zn103 O104 2.028 . S
Zn103 O106 2.028 . S
Zn103 O109 2.035 1_565 S
O104 Zn103 2.028 . S
O104 C110 1.247 . S
O105 Zn101 2.038 . S
O105 C110 1.268 . S
O106 C99 1.247 . S
O106 Zn103 2.028 . S
O107 C99 1.258 . S
O107 Zn101 2.035 . S
O108 Zn101 2.028 . S
O108 C111 1.247 1_565 S
O109 Zn103 2.035 1_545 S
O109 C111 1.258 . S
C110 O104 1.247 . S
C110 O105 1.268 . S
C111 O108 1.247 1_545 S
C111 O109 1.258 . S
C112 O114 1.247 . S
C112 O116 1.269 . S
C113 O120 1.247 1_655 S
C113 O121 1.258 . S
O114 C112 1.247 . S
O114 Zn115 2.028 . S
Zn115 O114 2.028 . S
Zn115 O119 2.035 1_455 S
Zn115 O121 2.035 1_455 S
Zn115 O122 2.028 . S
O116 C112 1.269 . S
O116 Zn117 2.038 . S
Zn117 O116 2.038 . S
Zn117 O118 2.028 1_556 S
Zn117 O120 2.028 . S
Zn117 O123 2.035 . S
O118 Zn117 2.028 1_554 S
O118 C124 1.247 1_454 S
O119 Zn115 2.035 1_655 S
O119 C124 1.258 . S
O120 C113 1.247 1_455 S
O120 Zn117 2.028 . S
O121 C113 1.258 . S
O121 Zn115 2.035 1_655 S
O122 Zn115 2.028 . S
O122 C125 1.247 . S
O123 Zn117 2.035 . S
O123 C125 1.258 . S
C124 O118 1.247 1_656 S
C124 O119 1.258 . S
C125 O122 1.247 . S
C125 O123 1.258 . S
C126 O128 1.247 . S
C126 O130 1.258 . S
C127 O134 1.247 . S
C127 O135 1.258 . S
O128 C126 1.247 . S
O128 Zn129 2.028 . S
Zn129 O128 2.028 . S
Zn129 O133 2.035 . S
Zn129 O135 2.035 . S
Zn129 O136 2.028 . S
O130 C126 1.258 . S
O130 Zn131 2.035 . S
Zn131 O130 2.035 . S
Zn131 O132 2.028 . S
Zn131 O134 2.028 . S
Zn131 O137 2.035 . S
O132 Zn131 2.028 . S
O132 C138 1.247 . S
O133 Zn129 2.035 . S
O133 C138 1.258 . S
O134 C127 1.247 . S
O134 Zn131 2.028 . S
O135 C127 1.258 . S
O135 Zn129 2.035 . S
O136 Zn129 2.028 . S
O136 C139 1.247 . S
O137 Zn131 2.035 . S
O137 C139 1.258 . S
C138 O132 1.247 . S
C138 O133 1.258 . S
C139 O136 1.247 . S
C139 O137 1.258 . S
C140 O142 1.247 . S
C140 O144 1.258 . S
C141 O148 1.247 . S
C141 O149 1.258 1_565 S
O142 C140 1.247 . S
O142 Zn143 2.028 . S
Zn143 O142 2.028 . S
Zn143 O147 2.035 . S
Zn143 O149 2.035 . S
Zn143 O150 2.028 . S
O144 C140 1.258 . S
O144 Zn145 2.035 . S
Zn145 O144 2.035 . S
Zn145 O146 2.028 1_545 S
Zn145 O148 2.028 1_545 S
Zn145 O151 2.035 . S
O146 Zn145 2.028 1_565 S
O146 C152 1.247 . S
O147 Zn143 2.035 . S
O147 C152 1.258 1_545 S
O148 C141 1.247 . S
O148 Zn145 2.028 1_565 S
O149 C141 1.258 1_545 S
O149 Zn143 2.035 . S
O150 Zn143 2.028 . S
O150 C153 1.247 . S
O151 Zn145 2.035 . S
O151 C153 1.258 . S
C152 O146 1.247 . S
C152 O147 1.258 1_565 S
C153 O150 1.247 . S
C153 O151 1.258 . S
C154 O156 1.247 . S
C154 O158 1.258 . S
C155 O162 1.247 . S
C155 O163 1.258 1_455 S
O156 C154 1.247 . S
O156 Zn157 2.028 . S
Zn157 O156 2.028 . S
Zn157 O161 2.035 . S
Zn157 O163 2.035 . S
Zn157 O164 2.028 . S
O158 C154 1.258 . S
O158 Zn159 2.035 . S
Zn159 O158 2.035 . S
Zn159 O160 2.028 1_655 S
Zn159 O162 2.028 1_655 S
Zn159 O165 2.035 . S
O160 Zn159 2.028 1_455 S
O160 C166 1.247 . S
O161 Zn157 2.035 . S
O161 C166 1.258 1_655 S
O162 C155 1.247 . S
O162 Zn159 2.028 1_455 S
O163 C155 1.258 1_655 S
O163 Zn157 2.035 . S
O164 Zn157 2.028 . S
O164 C167 1.247 . S
O165 Zn159 2.035 . S
O165 C167 1.258 . S
C166 O160 1.247 . S
C166 O161 1.258 1_455 S
C167 O164 1.247 . S
C167 O165 1.258 . S
C168 O170 1.247 . S
C168 O172 1.258 . S
C169 O176 1.247 . S
C169 O177 1.258 . S
O170 C168 1.247 . S
O170 Zn171 2.028 . S
Zn171 O170 2.028 . S
Zn171 O175 2.035 . S
Zn171 O177 2.035 . S
Zn171 O178 2.028 . S
O172 C168 1.258 . S
O172 Zn173 2.035 . S
Zn173 O172 2.035 . S
Zn173 O174 2.028 . S
Zn173 O176 2.028 . S
Zn173 O179 2.035 . S
O174 Zn173 2.028 . S
O174 C180 1.247 . S
O175 Zn171 2.035 . S
O175 C180 1.258 . S
O176 C169 1.247 . S
O176 Zn173 2.028 . S
O177 C169 1.258 . S
O177 Zn171 2.035 . S
O178 Zn171 2.028 . S
O178 C181 1.247 . S
O179 Zn173 2.035 . S
O179 C181 1.258 . S
C180 O174 1.247 . S
C180 O175 1.258 . S
C181 O178 1.247 . S
C181 O179 1.258 . S
C182 O184 1.247 . S
C182 O186 1.258 . S
C183 O190 1.247 . S
C183 O191 1.258 . S
O184 C182 1.247 . S
O184 Zn185 2.028 . S
Zn185 O184 2.028 . S
Zn185 O189 2.035 . S
Zn185 O191 2.035 . S
Zn185 O192 2.028 . S
O186 C182 1.258 . S
O186 Zn187 2.035 . S
Zn187 O186 2.035 . S
Zn187 O188 2.028 . S
Zn187 O190 2.028 . S
Zn187 O193 2.035 . S
O188 Zn187 2.028 . S
O188 C194 1.247 . S
O189 Zn185 2.035 . S
O189 C194 1.258 . S
O190 C183 1.247 . S
O190 Zn187 2.028 . S
O191 C183 1.258 . S
O191 Zn185 2.035 . S
O192 Zn185 2.028 . S
O192 C195 1.247 . S
O193 Zn187 2.035 . S
O193 C195 1.258 . S
C194 O188 1.247 . S
C194 O189 1.258 . S
C195 O192 1.247 . S
C195 O193 1.258 . S
C196 O198 1.247 . S
C196 O200 1.258 . S
C197 O204 1.247 . S
C197 O205 1.258 . S
O198 C196 1.247 . S
O198 Zn199 2.028 . S
Zn199 O198 2.028 . S
Zn199 O203 2.035 . S
Zn199 O205 2.035 . S
Zn199 O206 2.028 . S
O200 C196 1.258 . S
O200 Zn201 2.035 . S
Zn201 O200 2.035 . S
Zn201 O202 2.028 . S
Zn201 O204 2.028 . S
Zn201 O207 2.035 . S
O202 Zn201 2.028 . S
O202 C208 1.247 . S
O203 Zn199 2.035 . S
O203 C208 1.258 . S
O204 C197 1.247 . S
O204 Zn201 2.028 . S
O205 C197 1.258 . S
O205 Zn199 2.035 . S
O206 Zn199 2.028 . S
O206 C209 1.247 . S
O207 Zn201 2.035 . S
O207 C209 1.258 . S
C208 O202 1.247 . S
C208 O203 1.258 . S
C209 O206 1.247 . S
C209 O207 1.258 . S
C210 O212 1.247 . S
C210 O214 1.258 . S
C211 O218 1.247 . S
C211 O219 1.258 . S
O212 C210 1.247 . S
O212 Zn213 2.028 . S
Zn213 O212 2.028 . S
Zn213 O217 2.035 . S
Zn213 O219 2.035 . S
Zn213 O220 2.028 . S
O214 C210 1.258 . S
O214 Zn215 2.035 . S
Zn215 O214 2.035 . S
Zn215 O216 2.028 . S
Zn215 O218 2.028 . S
Zn215 O221 2.035 . S
O216 Zn215 2.028 . S
O216 C222 1.247 . S
O217 Zn213 2.035 . S
O217 C222 1.258 . S
O218 C211 1.247 . S
O218 Zn215 2.028 . S
O219 C211 1.258 . S
O219 Zn213 2.035 . S
O220 Zn213 2.028 . S
O220 C223 1.247 . S
O221 Zn215 2.035 . S
O221 C223 1.258 . S
C222 O216 1.247 . S
C222 O217 1.258 . S
C223 O220 1.247 . S
C223 O221 1.258 . S
C224 O226 1.247 . S
C224 O228 1.258 . S
C225 O232 1.247 . S
C225 O233 1.258 . S
O226 C224 1.247 . S
O226 Zn227 2.028 . S
Zn227 O226 2.028 . S
Zn227 O231 2.035 . S
Zn227 O233 2.035 . S
Zn227 O234 2.028 . S
O228 C224 1.258 . S
O228 Zn229 2.035 . S
Zn229 O228 2.035 . S
Zn229 O230 2.028 . S
Zn229 O232 2.028 . S
Zn229 O235 2.035 . S
O230 Zn229 2.028 . S
O230 C236 1.247 . S
O231 Zn227 2.035 . S
O231 C236 1.258 . S
O232 C225 1.247 . S
O232 Zn229 2.028 . S
O233 C225 1.258 . S
O233 Zn227 2.035 . S
O234 Zn227 2.028 . S
O234 C237 1.247 . S
O235 Zn229 2.035 . S
O235 C237 1.258 . S
C236 O230 1.247 . S
C236 O231 1.258 . S
C237 O234 1.247 . S
C237 O235 1.258 . S
C238 O240 1.247 . S
C238 O242 1.258 . S
C239 O246 1.247 . S
C239 O247 1.258 . S
O240 C238 1.247 . S
O240 Zn241 2.028 . S
Zn241 O240 2.028 . S
Zn241 O245 2.035 . S
Zn241 O247 2.035 . S
Zn241 O248 2.028 . S
O242 C238 1.258 . S
O242 Zn243 2.035 . S
Zn243 O242 2.035 . S
Zn243 O244 2.028 . S
Zn243 O246 2.028 . S
Zn243 O249 2.035 . S
O244 Zn243 2.028 . S
O244 C250 1.247 . S
O245 Zn241 2.035 . S
O245 C250 1.258 . S
O246 C239 1.247 . S
O246 Zn243 2.028 . S
O247 C239 1.258 . S
O247 Zn241 2.035 . S
O248 Zn241 2.028 . S
O248 C251 1.247 . S
O249 Zn243 2.035 . S
O249 C251 1.258 . S
C250 O244 1.247 . S
C250 O245 1.258 . S
C251 O248 1.247 . S
C251 O249 1.258 . S
C252 O254 1.247 . S
C252 O256 1.258 . S
C253 O260 1.247 . S
C253 O261 1.258 . S
O254 C252 1.247 . S
O254 Zn255 2.028 . S
Zn255 O254 2.028 . S
Zn255 O259 2.035 . S
Zn255 O261 2.035 . S
Zn255 O262 2.028 . S
O256 C252 1.258 . S
O256 Zn257 2.035 . S
Zn257 O256 2.035 . S
Zn257 O258 2.028 . S
Zn257 O260 2.028 . S
Zn257 O263 2.035 . S
O258 Zn257 2.028 . S
O258 C264 1.247 . S
O259 Zn255 2.035 . S
O259 C264 1.258 . S
O260 C253 1.247 . S
O260 Zn257 2.028 . S
O261 C253 1.258 . S
O261 Zn255 2.035 . S
O262 Zn255 2.028 . S
O262 C265 1.247 . S
O263 Zn257 2.035 . S
O263 C265 1.258 . S
C264 O258 1.247 . S
C264 O259 1.258 . S
C265 O262 1.247 . S
C265 O263 1.258 . S
C266 O268 1.247 . S
C266 O270 1.258 . S
C267 O274 1.247 . S
C267 O275 1.258 . S
O268 C266 1.247 . S
O268 Zn269 2.028 . S
Zn269 O268 2.028 . S
Zn269 O273 2.035 . S
Zn269 O275 2.035 . S
Zn269 O276 2.028 . S
O270 C266 1.258 . S
O270 Zn271 2.035 . S
Zn271 O270 2.035 . S
Zn271 O272 2.028 . S
Zn271 O274 2.028 . S
Zn271 O277 2.035 . S
O272 Zn271 2.028 . S
O272 C278 1.247 . S
O273 Zn269 2.035 . S
O273 C278 1.258 . S
O274 C267 1.247 . S
O274 Zn271 2.028 . S
O275 C267 1.258 . S
O275 Zn269 2.035 . S
O276 Zn269 2.028 . S
O276 C279 1.247 . S
O277 Zn271 2.035 . S
O277 C279 1.258 . S
C278 O272 1.247 . S
C278 O273 1.258 . S
C279 O276 1.247 . S
C279 O277 1.258 . S
C280 O282 1.247 . S
C280 O284 1.258 . S
C281 O288 1.247 . S
C281 O289 1.258 . S
O282 C280 1.247 . S
O282 Zn283 2.028 . S
Zn283 O282 2.028 . S
Zn283 O287 2.035 . S
Zn283 O289 2.035 . S
Zn283 O290 2.028 . S
O284 C280 1.258 . S
O284 Zn285 2.035 . S
Zn285 O284 2.035 . S
Zn285 O286 2.028 . S
Zn285 O288 2.028 . S
Zn285 O291 2.035 . S
O286 Zn285 2.028 . S
O286 C292 1.247 . S
O287 Zn283 2.035 . S
O287 C292 1.258 . S
O288 C281 1.247 . S
O288 Zn285 2.028 . S
O289 C281 1.258 . S
O289 Zn283 2.035 . S
O290 Zn283 2.028 . S
O290 C293 1.247 . S
O291 Zn285 2.035 . S
O291 C293 1.258 . S
C292 O286 1.247 . S
C292 O287 1.258 . S
C293 O290 1.247 . S
C293 O291 1.258 . S
C294 O296 1.247 . S
C294 O298 1.258 1_556 S
C295 O302 1.247 . S
C295 O303 1.258 . S
O296 C294 1.247 . S
O296 Zn297 2.028 . S
Zn297 O296 2.028 . S
Zn297 O301 2.035 . S
Zn297 O303 2.035 . S
Zn297 O304 2.028 . S
O298 C294 1.258 1_554 S
O298 Zn299 2.035 1_554 S
Zn299 O298 2.035 1_556 S
Zn299 O300 2.028 . S
Zn299 O302 2.028 . S
Zn299 O305 2.035 . S
O300 Zn299 2.028 . S
O300 C306 1.247 . S
O301 Zn297 2.035 . S
O301 C306 1.258 . S
O302 C295 1.247 . S
O302 Zn299 2.028 . S
O303 C295 1.258 . S
O303 Zn297 2.035 . S
O304 Zn297 2.028 . S
O304 C307 1.247 . S
O305 Zn299 2.035 . S
O305 C307 1.258 . S
C306 O300 1.247 . S
C306 O301 1.258 . S
C307 O304 1.247 . S
C307 O305 1.258 . S
C308 O310 1.247 . S
C308 O312 1.258 1_556 S
C309 O316 1.247 . S
C309 O317 1.258 . S
O310 C308 1.247 . S
O310 Zn311 2.028 . S
Zn311 O310 2.028 . S
Zn311 O315 2.035 . S
Zn311 O317 2.035 . S
Zn311 O318 2.028 . S
O312 C308 1.258 1_554 S
O312 Zn313 2.035 1_554 S
Zn313 O312 2.035 1_556 S
Zn313 O314 2.028 . S
Zn313 O316 2.028 . S
Zn313 O319 2.035 . S
O314 Zn313 2.028 . S
O314 C320 1.247 . S
O315 Zn311 2.035 . S
O315 C320 1.258 . S
O316 C309 1.247 . S
O316 Zn313 2.028 . S
O317 C309 1.258 . S
O317 Zn311 2.035 . S
O318 Zn311 2.028 . S
O318 C321 1.247 . S
O319 Zn313 2.035 . S
O319 C321 1.258 . S
C320 O314 1.247 . S
C320 O315 1.258 . S
C321 O318 1.247 . S
C321 O319 1.258 . S
C322 O324 1.247 . S
C322 O326 1.258 1_556 S
C323 O330 1.247 . S
C323 O331 1.258 . S
O324 C322 1.247 . S
O324 Zn325 2.028 . S
Zn325 O324 2.028 . S
Zn325 O329 2.035 . S
Zn325 O331 2.035 . S
Zn325 O332 2.028 . S
O326 C322 1.258 1_554 S
O326 Zn327 2.035 1_554 S
Zn327 O326 2.035 1_556 S
Zn327 O328 2.028 . S
Zn327 O330 2.028 . S
Zn327 O333 2.035 . S
O328 Zn327 2.028 . S
O328 C334 1.247 . S
O329 Zn325 2.035 . S
O329 C334 1.258 . S
O330 C323 1.247 . S
O330 Zn327 2.028 . S
O331 C323 1.258 . S
O331 Zn325 2.035 . S
O332 Zn325 2.028 . S
O332 C335 1.247 . S
O333 Zn327 2.035 . S
O333 C335 1.258 . S
C334 O328 1.247 . S
C334 O329 1.258 . S
C335 O332 1.247 . S
C335 O333 1.258 . S
C336 O338 1.247 . S
C336 O340 1.258 . S
C337 O344 1.247 . S
C337 O345 1.258 . S
O338 C336 1.247 . S
O338 Zn339 2.028 . S
Zn339 O338 2.028 . S
Zn339 O343 2.035 . S
Zn339 O345 2.035 . S
Zn339 O346 2.028 . S
O340 C336 1.258 . S
O340 Zn341 2.035 . S
Zn341 O340 2.035 . S
Zn341 O342 2.028 . S
Zn341 O344 2.028 . S
Zn341 O347 2.035 . S
O342 Zn341 2.028 . S
O342 C348 1.247 . S
O343 Zn339 2.035 . S
O343 C348 1.258 . S
O344 C337 1.247 . S
O344 Zn341 2.028 . S
O345 C337 1.258 . S
O345 Zn339 2.035 . S
O346 Zn339 2.028 . S
O346 C349 1.247 . S
O347 Zn341 2.035 . S
O347 C349 1.258 . S
C348 O342 1.247 . S
C348 O343 1.258 . S
C349 O346 1.247 . S
C349 O347 1.258 . S
C350 O352 1.247 . S
C350 O354 1.258 . S
C351 O358 1.247 . S
C351 O359 1.258 . S
O352 C350 1.247 . S
O352 Zn353 2.028 . S
Zn353 O352 2.028 . S
Zn353 O357 2.035 . S
Zn353 O359 2.035 . S
Zn353 O360 2.028 . S
O354 C350 1.258 . S
O354 Zn355 2.035 . S
Zn355 O354 2.035 . S
Zn355 O356 2.028 . S
Zn355 O358 2.028 . S
Zn355 O361 2.035 . S
O356 Zn355 2.028 . S
O356 C362 1.247 . S
O357 Zn353 2.035 . S
O357 C362 1.258 . S
O358 C351 1.247 . S
O358 Zn355 2.028 . S
O359 C351 1.258 . S
O359 Zn353 2.035 . S
O360 Zn353 2.028 . S
O360 C363 1.247 . S
O361 Zn355 2.035 . S
O361 C363 1.258 . S
C362 O356 1.247 . S
C362 O357 1.258 . S
C363 O360 1.247 . S
C363 O361 1.258 . S
C364 O366 1.247 . S
C364 O368 1.258 . S
C365 O372 1.247 . S
C365 O373 1.258 . S
O366 C364 1.247 . S
O366 Zn367 2.028 . S
Zn367 O366 2.028 . S
Zn367 O371 2.035 . S
Zn367 O373 2.035 . S
Zn367 O374 2.028 . S
O368 C364 1.258 . S
O368 Zn369 2.035 . S
Zn369 O368 2.035 . S
Zn369 O370 2.028 . S
Zn369 O372 2.028 . S
Zn369 O375 2.035 . S
O370 Zn369 2.028 . S
O370 C376 1.247 . S
O371 Zn367 2.035 . S
O371 C376 1.258 . S
O372 C365 1.247 . S
O372 Zn369 2.028 . S
O373 C365 1.258 . S
O373 Zn367 2.035 . S
O374 Zn367 2.028 . S
O374 C377 1.247 . S
O375 Zn369 2.035 . S
O375 C377 1.258 . S
C376 O370 1.247 . S
C376 O371 1.258 . S
C377 O374 1.247 . S
C377 O375 1.258 . S
C378 O380 1.247 . S
C378 O382 1.258 . S
C379 O386 1.247 . S
C379 O387 1.258 . S
O380 C378 1.247 . S
O380 Zn381 2.028 . S
Zn381 O380 2.028 . S
Zn381 O385 2.035 . S
Zn381 O387 2.035 . S
Zn381 O388 2.028 . S
O382 C378 1.258 . S
O382 Zn383 2.035 . S
Zn383 O382 2.035 . S
Zn383 O384 2.028 . S
Zn383 O386 2.028 . S
Zn383 O389 2.035 1_554 S
O384 Zn383 2.028 . S
O384 C390 1.247 . S
O385 Zn381 2.035 . S
O385 C390 1.258 . S
O386 C379 1.247 . S
O386 Zn383 2.028 . S
O387 C379 1.258 . S
O387 Zn381 2.035 . S
O388 Zn381 2.028 . S
O388 C391 1.247 . S
O389 Zn383 2.035 1_556 S
O389 C391 1.258 1_556 S
C390 O384 1.247 . S
C390 O385 1.258 . S
C391 O388 1.247 . S
C391 O389 1.258 1_554 S
C392 O394 1.247 . S
C392 O396 1.258 . S
C393 O400 1.247 . S
C393 O401 1.258 1_554 S
O394 C392 1.247 . S
O394 Zn395 2.028 . S
Zn395 O394 2.028 . S
Zn395 O399 2.035 . S
Zn395 O401 2.035 1_554 S
Zn395 O402 2.028 . S
O396 C392 1.258 . S
O396 Zn397 2.035 . S
Zn397 O396 2.035 . S
Zn397 O398 2.028 . S
Zn397 O400 2.028 . S
Zn397 O403 2.035 . S
O398 Zn397 2.028 . S
O398 C404 1.247 . S
O399 Zn395 2.035 . S
O399 C404 1.258 . S
O400 C393 1.247 . S
O400 Zn397 2.028 . S
O401 C393 1.258 1_556 S
O401 Zn395 2.035 1_556 S
O402 Zn395 2.028 . S
O402 C405 1.247 . S
O403 Zn397 2.035 . S
O403 C405 1.258 . S
C404 O398 1.247 . S
C404 O399 1.258 . S
C405 O402 1.247 . S
C405 O403 1.258 . S
C406 O408 1.247 . S
C406 O410 1.258 . S
C407 O414 1.247 . S
C407 O415 1.258 . S
O408 C406 1.247 . S
O408 Zn409 2.028 . S
Zn409 O408 2.028 . S
Zn409 O413 2.035 . S
Zn409 O415 2.035 . S
Zn409 O416 2.028 . S
O410 C406 1.258 . S
O410 Zn411 2.035 . S
Zn411 O410 2.035 . S
Zn411 O412 2.028 1_554 S
Zn411 O414 2.028 . S
Zn411 O417 2.035 . S
O412 Zn411 2.028 1_556 S
O412 C418 1.247 1_556 S
O413 Zn409 2.035 . S
O413 C418 1.258 . S
O414 C407 1.247 . S
O414 Zn411 2.028 . S
O415 C407 1.258 . S
O415 Zn409 2.035 . S
O416 Zn409 2.028 . S
O416 C419 1.247 . S
O417 Zn411 2.035 . S
O417 C419 1.258 . S
C418 O412 1.247 1_554 S
C418 O413 1.258 . S
C419 O416 1.247 . S
C419 O417 1.258 . S
C420 O422 1.247 . S
C420 O424 1.258 . S
C421 O428 1.247 . S
C421 O429 1.258 . S
O422 C420 1.247 . S
O422 Zn423 2.028 . S
Zn423 O422 2.028 . S
Zn423 O427 2.035 . S
Zn423 O429 2.035 . S
Zn423 O430 2.028 . S
O424 C420 1.258 . S
O424 Zn425 2.035 . S
Zn425 O424 2.035 . S
Zn425 O426 2.028 . S
Zn425 O428 2.028 . S
Zn425 O431 2.035 . S
O426 Zn425 2.028 . S
O426 C432 1.247 . S
O427 Zn423 2.035 . S
O427 C432 1.258 . S
O428 C421 1.247 . S
O428 Zn425 2.028 . S
O429 C421 1.258 . S
O429 Zn423 2.035 . S
O430 Zn423 2.028 . S
O430 C433 1.247 . S
O431 Zn425 2.035 . S
O431 C433 1.258 . S
C432 O426 1.247 . S
C432 O427 1.258 . S
C433 O430 1.247 . S
C433 O431 1.258 . S
C434 O436 1.247 . S
C434 O438 1.258 . S
C435 O442 1.247 . S
C435 O443 1.258 . S
O436 C434 1.247 . S
O436 Zn437 2.028 . S
Zn437 O436 2.028 . S
Zn437 O441 2.035 . S
Zn437 O443 2.035 . S
Zn437 O444 2.028 . S
O438 C434 1.258 . S
O438 Zn439 2.035 . S
Zn439 O438 2.035 . S
Zn439 O440 2.028 . S
Zn439 O442 2.028 . S
Zn439 O445 2.035 . S
O440 Zn439 2.028 . S
O440 C446 1.247 . S
O441 Zn437 2.035 . S
O441 C446 1.258 . S
O442 C435 1.247 . S
O442 Zn439 2.028 . S
O443 C435 1.258 . S
O443 Zn437 2.035 . S
O444 Zn437 2.028 . S
O444 C447 1.247 . S
O445 Zn439 2.035 . S
O445 C447 1.258 . S
C446 O440 1.247 . S
C446 O441 1.258 . S
C447 O444 1.247 . S
C447 O445 1.258 . S
C448 O450 1.247 . S
C448 O452 1.258 . S
C449 O456 1.247 . S
C449 O457 1.258 . S
O450 C448 1.247 . S
O450 Zn451 2.028 . S
Zn451 O450 2.028 . S
Zn451 O455 2.035 . S
Zn451 O457 2.035 . S
Zn451 O458 2.028 . S
O452 C448 1.258 . S
O452 Zn453 2.035 . S
Zn453 O452 2.035 . S
Zn453 O454 2.028 . S
Zn453 O456 2.028 . S
Zn453 O459 2.035 . S
O454 Zn453 2.028 . S
O454 C460 1.247 . S
O455 Zn451 2.035 . S
O455 C460 1.258 . S
O456 C449 1.247 . S
O456 Zn453 2.028 . S
O457 C449 1.258 . S
O457 Zn451 2.035 . S
O458 Zn451 2.028 . S
O458 C461 1.247 . S
O459 Zn453 2.035 . S
O459 C461 1.258 . S
C460 O454 1.247 . S
C460 O455 1.258 . S
C461 O458 1.247 . S
C461 O459 1.258 . S
C462 O464 1.247 . S
C462 O466 1.258 . S
C463 O470 1.247 . S
C463 O471 1.258 . S
O464 C462 1.247 . S
O464 Zn465 2.028 . S
Zn465 O464 2.028 . S
Zn465 O469 2.035 . S
Zn465 O471 2.035 . S
Zn465 O472 2.028 . S
O466 C462 1.258 . S
O466 Zn467 2.035 . S
Zn467 O466 2.035 . S
Zn467 O468 2.028 . S
Zn467 O470 2.028 . S
Zn467 O473 2.035 . S
O468 Zn467 2.028 . S
O468 C474 1.247 . S
O469 Zn465 2.035 . S
O469 C474 1.258 . S
O470 C463 1.247 . S
O470 Zn467 2.028 . S
O471 C463 1.258 . S
O471 Zn465 2.035 . S
O472 Zn465 2.028 . S
O472 C475 1.247 . S
O473 Zn467 2.035 . S
O473 C475 1.258 . S
C474 O468 1.247 . S
C474 O469 1.258 . S
C475 O472 1.247 . S
C475 O473 1.258 . S
C476 O478 1.247 . S
C476 O480 1.258 . S
C477 O484 1.247 . S
C477 O485 1.258 . S
O478 C476 1.247 . S
O478 Zn479 2.028 . S
Zn479 O478 2.028 . S
Zn479 O483 2.035 . S
Zn479 O485 2.035 . S
Zn479 O486 2.028 . S
O480 C476 1.258 . S
O480 Zn481 2.035 . S
Zn481 O480 2.035 . S
Zn481 O482 2.028 . S
Zn481 O484 2.028 . S
Zn481 O487 2.035 . S
O482 Zn481 2.028 . S
O482 C488 1.247 . S
O483 Zn479 2.035 . S
O483 C488 1.258 . S
O484 C477 1.247 . S
O484 Zn481 2.028 . S
O485 C477 1.258 . S
O485 Zn479 2.035 . S
O486 Zn479 2.028 . S
O486 C489 1.247 . S
O487 Zn481 2.035 . S
O487 C489 1.258 . S
C488 O482 1.247 . S
C488 O483 1.258 . S
C489 O486 1.247 . S
C489 O487 1.258 . S
C490 O492 1.247 . S
C490 O494 1.258 . S
C491 O498 1.247 . S
C491 O499 1.258 . S
O492 C490 1.247 . S
O492 Zn493 2.028 . S
Zn493 O492 2.028 . S
Zn493 O497 2.035 . S
Zn493 O499 2.035 . S
Zn493 O500 2.028 . S
O494 C490 1.258 . S
O494 Zn495 2.035 . S
Zn495 O494 2.035 . S
Zn495 O496 2.028 . S
Zn495 O498 2.028 . S
Zn495 O501 2.035 . S
O496 Zn495 2.028 . S
O496 C502 1.247 . S
O497 Zn493 2.035 . S
O497 C502 1.258 . S
O498 C491 1.247 . S
O498 Zn495 2.028 . S
O499 C491 1.258 . S
O499 Zn493 2.035 . S
O500 Zn493 2.028 . S
O500 C503 1.247 . S
O501 Zn495 2.035 . S
O501 C503 1.258 . S
C502 O496 1.247 . S
C502 O497 1.258 . S
C503 O500 1.247 . S
C503 O501 1.258 . S
C0 C265 1.568 . S
C15 C267 1.571 . S
C293 C41 1.571 . S
C55 C462 1.573 . S
C476 C57 1.573 . S
C71 C490 1.573 . S
C349 C97 1.571 . S
C99 C362 1.568 . S
C125 C376 1.568 . S
C139 C223 1.571 . S
C236 C140 1.571 . S
C154 C251 1.573 . S
C168 C420 1.571 1_655 S
C183 C435 1.571 . S
C209 C461 1.571 1_545 S
C294 C391 1.573 1_546 S
C308 C393 1.573 1_656 S
C322 C418 1.571 1_556 S
C98 C13 1.695 1_556 S
C124 C26 1.690 1_556 S
C28 C96 1.691 1_554 S
C155 C42 1.690 . S
C138 C68 1.691 . S
C141 C82 1.690 . S
C84 C14 1.695 1_556 S
C110 C40 1.695 1_556 S
C112 C1 1.695 1_556 S
C126 C70 1.695 . S
C54 C153 1.691 . S
C56 C167 1.690 . S
C181 C266 1.695 . S
C194 C292 1.690 . S
C196 C264 1.690 . S
C323 C210 1.690 . S
C225 C295 1.695 . S
C309 C238 1.690 . S
C252 C182 1.694 . S
C208 C278 1.695 . S
C169 C280 1.695 . S
C307 C250 1.690 . S
C321 C222 1.690 . S
C335 C237 1.690 . S
C434 C336 1.690 . S
C351 C460 1.695 . S
C365 C421 1.695 . S
C491 C378 1.690 . S
C463 C404 1.690 . S
C477 C407 1.695 . S
C363 C433 1.690 . S
C377 C446 1.695 . S
C348 C448 1.695 . S
C475 C419 1.690 . S
C390 C489 1.690 . S
C503 C392 1.690 . S
C12 C406 2.074 . S
C379 C27 2.086 . S
C29 C405 2.086 . S
C43 C195 2.086 . S
C197 C69 2.086 . S
C83 C180 2.080 . S
C334 C85 2.080 . S
C111 C306 2.080 . S
C113 C320 2.080 . S
C127 C447 2.074 . S
C152 C449 2.080 . S
C432 C166 2.086 . S
C211 C350 2.080 1_655 S
C364 C224 2.074 . S
C337 C239 2.086 1_565 S
C502 C253 2.080 1_565 S
C279 C474 2.080 1_655 S
C281 C488 2.080 . S
