# Generated by pormake.
# Topology som, (6)-cn, num edge types: 1
# Building blocks:
#     Node 0, Type 0, BuildingBlock: CUKXOW_clean_sbu_0, # of connection points: 6
#     Node 1, Type 0, BuildingBlock: CUKXOW_clean_sbu_0, # of connection points: 6
#     Node 2, Type 0, BuildingBlock: CUKXOW_clean_sbu_0, # of connection points: 6
#     Node 3, Type 0, BuildingBlock: CUKXOW_clean_sbu_0, # of connection points: 6
#     Node 4, Type 0, BuildingBlock: CUKXOW_clean_sbu_0, # of connection points: 6
#     Node 5, Type 0, BuildingBlock: CUKXOW_clean_sbu_0, # of connection points: 6
#     Node 6, Type 0, BuildingBlock: CUKXOW_clean_sbu_0, # of connection points: 6
#     Node 7, Type 0, BuildingBlock: CUKXOW_clean_sbu_0, # of connection points: 6
#     Node 8, Type 0, BuildingBlock: CUKXOW_clean_sbu_0, # of connection points: 6
#     Node 9, Type 0, BuildingBlock: CUKXOW_clean_sbu_0, # of connection points: 6
#     Node 10, Type 0, BuildingBlock: CUKXOW_clean_sbu_0, # of connection points: 6
#     Node 11, Type 0, BuildingBlock: CUKXOW_clean_sbu_0, # of connection points: 6
#     Node 12, Type 0, BuildingBlock: CUKXOW_clean_sbu_0, # of connection points: 6
#     Node 13, Type 0, BuildingBlock: CUKXOW_clean_sbu_0, # of connection points: 6
#     Node 14, Type 0, BuildingBlock: CUKXOW_clean_sbu_0, # of connection points: 6
#     Node 15, Type 0, BuildingBlock: CUKXOW_clean_sbu_0, # of connection points: 6
#     Node 16, Type 0, BuildingBlock: CUKXOW_clean_sbu_0, # of connection points: 6
#     Node 17, Type 0, BuildingBlock: CUKXOW_clean_sbu_0, # of connection points: 6
#     Node 18, Type 0, BuildingBlock: CUKXOW_clean_sbu_0, # of connection points: 6
#     Node 19, Type 0, BuildingBlock: CUKXOW_clean_sbu_0, # of connection points: 6
#     Node 20, Type 0, BuildingBlock: CUKXOW_clean_sbu_0, # of connection points: 6
#     Node 21, Type 0, BuildingBlock: CUKXOW_clean_sbu_0, # of connection points: 6
#     Node 22, Type 0, BuildingBlock: CUKXOW_clean_sbu_0, # of connection points: 6
#     Node 23, Type 0, BuildingBlock: CUKXOW_clean_sbu_0, # of connection points: 6
#     Node 24, Type 0, BuildingBlock: CUKXOW_clean_sbu_0, # of connection points: 6
#     Node 25, Type 0, BuildingBlock: CUKXOW_clean_sbu_0, # of connection points: 6
#     Node 26, Type 0, BuildingBlock: CUKXOW_clean_sbu_0, # of connection points: 6
#     Node 27, Type 0, BuildingBlock: CUKXOW_clean_sbu_0, # of connection points: 6
#     Node 28, Type 0, BuildingBlock: CUKXOW_clean_sbu_0, # of connection points: 6
#     Node 29, Type 0, BuildingBlock: CUKXOW_clean_sbu_0, # of connection points: 6
#     Node 30, Type 0, BuildingBlock: CUKXOW_clean_sbu_0, # of connection points: 6
#     Node 31, Type 0, BuildingBlock: CUKXOW_clean_sbu_0, # of connection points: 6
#     Edge 32, Type (0, 0), BuildingBlock: XIVTED_clean_linker_0, # of connection points: 2
#     Edge 33, Type (0, 0), BuildingBlock: XIVTED_clean_linker_0, # of connection points: 2
#     Edge 34, Type (0, 0), BuildingBlock: XIVTED_clean_linker_0, # of connection points: 2
#     Edge 35, Type (0, 0), BuildingBlock: XIVTED_clean_linker_0, # of connection points: 2
#     Edge 36, Type (0, 0), BuildingBlock: XIVTED_clean_linker_0, # of connection points: 2
#     Edge 37, Type (0, 0), BuildingBlock: XIVTED_clean_linker_0, # of connection points: 2
#     Edge 38, Type (0, 0), BuildingBlock: XIVTED_clean_linker_0, # of connection points: 2
#     Edge 39, Type (0, 0), BuildingBlock: XIVTED_clean_linker_0, # of connection points: 2
#     Edge 40, Type (0, 0), BuildingBlock: XIVTED_clean_linker_0, # of connection points: 2
#     Edge 41, Type (0, 0), BuildingBlock: XIVTED_clean_linker_0, # of connection points: 2
#     Edge 42, Type (0, 0), BuildingBlock: XIVTED_clean_linker_0, # of connection points: 2
#     Edge 43, Type (0, 0), BuildingBlock: XIVTED_clean_linker_0, # of connection points: 2
#     Edge 44, Type (0, 0), BuildingBlock: XIVTED_clean_linker_0, # of connection points: 2
#     Edge 45, Type (0, 0), BuildingBlock: XIVTED_clean_linker_0, # of connection points: 2
#     Edge 46, Type (0, 0), BuildingBlock: XIVTED_clean_linker_0, # of connection points: 2
#     Edge 47, Type (0, 0), BuildingBlock: XIVTED_clean_linker_0, # of connection points: 2
#     Edge 48, Type (0, 0), BuildingBlock: XIVTED_clean_linker_0, # of connection points: 2
#     Edge 49, Type (0, 0), BuildingBlock: XIVTED_clean_linker_0, # of connection points: 2
#     Edge 50, Type (0, 0), BuildingBlock: XIVTED_clean_linker_0, # of connection points: 2
#     Edge 51, Type (0, 0), BuildingBlock: XIVTED_clean_linker_0, # of connection points: 2
#     Edge 52, Type (0, 0), BuildingBlock: XIVTED_clean_linker_0, # of connection points: 2
#     Edge 53, Type (0, 0), BuildingBlock: XIVTED_clean_linker_0, # of connection points: 2
#     Edge 54, Type (0, 0), BuildingBlock: XIVTED_clean_linker_0, # of connection points: 2
#     Edge 55, Type (0, 0), BuildingBlock: XIVTED_clean_linker_0, # of connection points: 2
#     Edge 56, Type (0, 0), BuildingBlock: XIVTED_clean_linker_0, # of connection points: 2
#     Edge 57, Type (0, 0), BuildingBlock: XIVTED_clean_linker_0, # of connection points: 2
#     Edge 58, Type (0, 0), BuildingBlock: XIVTED_clean_linker_0, # of connection points: 2
#     Edge 59, Type (0, 0), BuildingBlock: XIVTED_clean_linker_0, # of connection points: 2
#     Edge 60, Type (0, 0), BuildingBlock: XIVTED_clean_linker_0, # of connection points: 2
#     Edge 61, Type (0, 0), BuildingBlock: XIVTED_clean_linker_0, # of connection points: 2
#     Edge 62, Type (0, 0), BuildingBlock: XIVTED_clean_linker_0, # of connection points: 2
#     Edge 63, Type (0, 0), BuildingBlock: XIVTED_clean_linker_0, # of connection points: 2
#     Edge 64, Type (0, 0), BuildingBlock: XIVTED_clean_linker_0, # of connection points: 2
#     Edge 65, Type (0, 0), BuildingBlock: XIVTED_clean_linker_0, # of connection points: 2
#     Edge 66, Type (0, 0), BuildingBlock: XIVTED_clean_linker_0, # of connection points: 2
#     Edge 67, Type (0, 0), BuildingBlock: XIVTED_clean_linker_0, # of connection points: 2
#     Edge 68, Type (0, 0), BuildingBlock: XIVTED_clean_linker_0, # of connection points: 2
#     Edge 69, Type (0, 0), BuildingBlock: XIVTED_clean_linker_0, # of connection points: 2
#     Edge 70, Type (0, 0), BuildingBlock: XIVTED_clean_linker_0, # of connection points: 2
#     Edge 71, Type (0, 0), BuildingBlock: XIVTED_clean_linker_0, # of connection points: 2
#     Edge 72, Type (0, 0), BuildingBlock: XIVTED_clean_linker_0, # of connection points: 2
#     Edge 73, Type (0, 0), BuildingBlock: XIVTED_clean_linker_0, # of connection points: 2
#     Edge 74, Type (0, 0), BuildingBlock: XIVTED_clean_linker_0, # of connection points: 2
#     Edge 75, Type (0, 0), BuildingBlock: XIVTED_clean_linker_0, # of connection points: 2
#     Edge 76, Type (0, 0), BuildingBlock: XIVTED_clean_linker_0, # of connection points: 2
#     Edge 77, Type (0, 0), BuildingBlock: XIVTED_clean_linker_0, # of connection points: 2
#     Edge 78, Type (0, 0), BuildingBlock: XIVTED_clean_linker_0, # of connection points: 2
#     Edge 79, Type (0, 0), BuildingBlock: XIVTED_clean_linker_0, # of connection points: 2
#     Edge 80, Type (0, 0), BuildingBlock: XIVTED_clean_linker_0, # of connection points: 2
#     Edge 81, Type (0, 0), BuildingBlock: XIVTED_clean_linker_0, # of connection points: 2
#     Edge 82, Type (0, 0), BuildingBlock: XIVTED_clean_linker_0, # of connection points: 2
#     Edge 83, Type (0, 0), BuildingBlock: XIVTED_clean_linker_0, # of connection points: 2
#     Edge 84, Type (0, 0), BuildingBlock: XIVTED_clean_linker_0, # of connection points: 2
#     Edge 85, Type (0, 0), BuildingBlock: XIVTED_clean_linker_0, # of connection points: 2
#     Edge 86, Type (0, 0), BuildingBlock: XIVTED_clean_linker_0, # of connection points: 2
#     Edge 87, Type (0, 0), BuildingBlock: XIVTED_clean_linker_0, # of connection points: 2
#     Edge 88, Type (0, 0), BuildingBlock: XIVTED_clean_linker_0, # of connection points: 2
#     Edge 89, Type (0, 0), BuildingBlock: XIVTED_clean_linker_0, # of connection points: 2
#     Edge 90, Type (0, 0), BuildingBlock: XIVTED_clean_linker_0, # of connection points: 2
#     Edge 91, Type (0, 0), BuildingBlock: XIVTED_clean_linker_0, # of connection points: 2
#     Edge 92, Type (0, 0), BuildingBlock: XIVTED_clean_linker_0, # of connection points: 2
#     Edge 93, Type (0, 0), BuildingBlock: XIVTED_clean_linker_0, # of connection points: 2
#     Edge 94, Type (0, 0), BuildingBlock: XIVTED_clean_linker_0, # of connection points: 2
#     Edge 95, Type (0, 0), BuildingBlock: XIVTED_clean_linker_0, # of connection points: 2
#     Edge 96, Type (0, 0), BuildingBlock: XIVTED_clean_linker_0, # of connection points: 2
#     Edge 97, Type (0, 0), BuildingBlock: XIVTED_clean_linker_0, # of connection points: 2
#     Edge 98, Type (0, 0), BuildingBlock: XIVTED_clean_linker_0, # of connection points: 2
#     Edge 99, Type (0, 0), BuildingBlock: XIVTED_clean_linker_0, # of connection points: 2
#     Edge 100, Type (0, 0), BuildingBlock: XIVTED_clean_linker_0, # of connection points: 2
#     Edge 101, Type (0, 0), BuildingBlock: XIVTED_clean_linker_0, # of connection points: 2
#     Edge 102, Type (0, 0), BuildingBlock: XIVTED_clean_linker_0, # of connection points: 2
#     Edge 103, Type (0, 0), BuildingBlock: XIVTED_clean_linker_0, # of connection points: 2
#     Edge 104, Type (0, 0), BuildingBlock: XIVTED_clean_linker_0, # of connection points: 2
#     Edge 105, Type (0, 0), BuildingBlock: XIVTED_clean_linker_0, # of connection points: 2
#     Edge 106, Type (0, 0), BuildingBlock: XIVTED_clean_linker_0, # of connection points: 2
#     Edge 107, Type (0, 0), BuildingBlock: XIVTED_clean_linker_0, # of connection points: 2
#     Edge 108, Type (0, 0), BuildingBlock: XIVTED_clean_linker_0, # of connection points: 2
#     Edge 109, Type (0, 0), BuildingBlock: XIVTED_clean_linker_0, # of connection points: 2
#     Edge 110, Type (0, 0), BuildingBlock: XIVTED_clean_linker_0, # of connection points: 2
#     Edge 111, Type (0, 0), BuildingBlock: XIVTED_clean_linker_0, # of connection points: 2
#     Edge 112, Type (0, 0), BuildingBlock: XIVTED_clean_linker_0, # of connection points: 2
#     Edge 113, Type (0, 0), BuildingBlock: XIVTED_clean_linker_0, # of connection points: 2
#     Edge 114, Type (0, 0), BuildingBlock: XIVTED_clean_linker_0, # of connection points: 2
#     Edge 115, Type (0, 0), BuildingBlock: XIVTED_clean_linker_0, # of connection points: 2
#     Edge 116, Type (0, 0), BuildingBlock: XIVTED_clean_linker_0, # of connection points: 2
#     Edge 117, Type (0, 0), BuildingBlock: XIVTED_clean_linker_0, # of connection points: 2
#     Edge 118, Type (0, 0), BuildingBlock: XIVTED_clean_linker_0, # of connection points: 2
#     Edge 119, Type (0, 0), BuildingBlock: XIVTED_clean_linker_0, # of connection points: 2
#     Edge 120, Type (0, 0), BuildingBlock: XIVTED_clean_linker_0, # of connection points: 2
#     Edge 121, Type (0, 0), BuildingBlock: XIVTED_clean_linker_0, # of connection points: 2
#     Edge 122, Type (0, 0), BuildingBlock: XIVTED_clean_linker_0, # of connection points: 2
#     Edge 123, Type (0, 0), BuildingBlock: XIVTED_clean_linker_0, # of connection points: 2
#     Edge 124, Type (0, 0), BuildingBlock: XIVTED_clean_linker_0, # of connection points: 2
#     Edge 125, Type (0, 0), BuildingBlock: XIVTED_clean_linker_0, # of connection points: 2
#     Edge 126, Type (0, 0), BuildingBlock: XIVTED_clean_linker_0, # of connection points: 2
#     Edge 127, Type (0, 0), BuildingBlock: XIVTED_clean_linker_0, # of connection points: 2
# Relax obj value: 0.122
# Max RMSD: 0.178
# Mean RMSD: 0.177
data_MOF--net-som--node1-CUKXOW_clean_sbu_0--edge1-XIVTED_clean_linker_0
_symmetry_space_group_name_H-M    P1
_symmetry_Int_Tables_number       1
_symmetry_cell_setting            triclinic
loop_
_symmetry_equiv_pos_as_xyz
'x, y, z'
_cell_length_a     14.469234
_cell_length_b     72.108292
_cell_length_c     122.80881
_cell_angle_alpha  90.03452
_cell_angle_beta   89.914184
_cell_angle_gamma 89.836034
loop_
_atom_site_label
_atom_site_type_symbol
_atom_site_fract_x
_atom_site_fract_y
_atom_site_fract_z
_atom_type_partial_charge
Tb0 Tb 0.05994 0.46761 0.05515 0.0
C1 C 0.11091 0.48717 0.07734 0.0
Tb2 Tb 0.09913 0.51159 0.0558 0.0
O3 O 0.20636 0.45885 0.0543 0.0
O4 O 0.1711 0.48626 0.05457 0.0
O5 O 0.06795 0.47297 0.07261 0.0
C6 C 0.16367 0.5462 0.05642 0.0
O7 O 0.14008 0.50211 0.07197 0.0
C8 C 0.91934 0.5036 0.05675 0.0
C9 C 0.05778 0.49167 0.03353 0.0
O10 O 0.12907 0.53717 0.0646 0.0
O11 O 0.16552 0.5354 0.04792 0.0
O12 O 0.9525 0.52026 0.0568 0.0
O13 O 0.98786 0.49295 0.0563 0.0
O14 O 0.10215 0.50549 0.03844 0.0
O15 O 1.02303 0.47717 0.03884 0.0
C16 C 0.98955 0.43352 0.05435 0.0
O17 O 1.04059 0.44113 0.0469 0.0
O18 O 0.97567 0.44536 0.0622 0.0
C19 C 0.23952 0.47554 0.05422 0.0
Tb20 Tb 0.27238 0.76347 0.0571 0.0
C21 C 0.2299 0.74125 0.07838 0.0
Tb22 Tb 0.23215 0.71963 0.05626 0.0
O23 O 0.12655 0.77255 0.05559 0.0
O24 O 0.16066 0.7451 0.05567 0.0
O25 O 0.28294 0.75431 0.074 0.0
C26 C 0.16752 0.68498 0.05607 0.0
O27 O 0.18947 0.72806 0.07254 0.0
C28 C 0.41243 0.7274 0.05783 0.0
C29 C 0.25838 0.7426 0.03446 0.0
O30 O 0.18501 0.69472 0.06472 0.0
O31 O 0.18273 0.69509 0.04749 0.0
O32 O 0.37896 0.71081 0.05716 0.0
O33 O 0.34383 0.73803 0.05778 0.0
O34 O 0.22033 0.72785 0.03921 0.0
O35 O 0.29269 0.75697 0.03994 0.0
C36 C 0.34589 0.79724 0.05867 0.0
O37 O 0.36089 0.78563 0.05075 0.0
O38 O 0.29162 0.78961 0.06578 0.0
C39 C 0.09272 0.75591 0.05524 0.0
Tb40 Tb 0.06545 0.76303 0.18022 0.0
C41 C 0.11227 0.74183 0.15864 0.0
Tb42 Tb 0.10652 0.71912 0.18028 0.0
O43 O 0.21083 0.77197 0.18219 0.0
O44 O 0.17745 0.74455 0.18147 0.0
O45 O 0.05784 0.75464 0.16312 0.0
C46 C 0.17115 0.68441 0.1799 0.0
O47 O 0.15268 0.72845 0.16435 0.0
C48 C 0.9262 0.72709 0.1787 0.0
C49 C 0.07256 0.74059 0.20244 0.0
O50 O 0.14635 0.69402 0.17145 0.0
O51 O 0.16326 0.69467 0.18856 0.0
O52 O 0.95989 0.71045 0.17914 0.0
O53 O 0.99467 0.73767 0.17893 0.0
O54 O 0.11218 0.72613 0.19753 0.0
O55 O 1.04017 0.7554 0.19716 0.0
C56 C 0.99264 0.79705 0.17887 0.0
O57 O 0.97952 0.78552 0.18687 0.0
O58 O 1.04445 0.78919 0.17157 0.0
C59 C 0.24507 0.75532 0.18223 0.0
Tb60 Tb 0.27679 0.46658 0.17996 0.0
C61 C 0.2294 0.48711 0.15794 0.0
Tb62 Tb 0.23774 0.51083 0.1799 0.0
O63 O 0.1298 0.45824 0.17993 0.0
O64 O 0.16665 0.48552 0.18046 0.0
O65 O 0.27014 0.47248 0.16255 0.0
C66 C 0.17354 0.54558 0.17963 0.0
O67 O 0.20088 0.50203 0.16345 0.0
C68 C 0.41724 0.50251 0.17938 0.0
C69 C 0.26706 0.48948 0.20202 0.0
O70 O 0.20319 0.53636 0.17124 0.0
O71 O 0.17635 0.53489 0.18816 0.0
O72 O 0.38465 0.51925 0.17936 0.0
O73 O 0.34844 0.492 0.17962 0.0
O74 O 0.22549 0.50364 0.19706 0.0
O75 O 0.30422 0.47513 0.19672 0.0
C76 C 0.34674 0.43237 0.18072 0.0
O77 O 0.27912 0.43861 0.18663 0.0
O78 O 0.37692 0.44556 0.1744 0.0
C79 C 0.09765 0.47505 0.18031 0.0
Tb80 Tb 0.99855 0.47208 0.93015 0.0
C81 C 1.01066 0.49453 0.9519 0.0
Tb82 Tb 1.03101 0.51488 0.9291 0.0
O83 O 0.13698 0.4683 0.93672 0.0
O84 O 0.11058 0.4904 0.9263 0.0
O85 O 0.97447 0.47978 0.94702 0.0
C86 C 0.10181 0.54895 0.92788 0.0
O87 O 1.04713 0.50868 0.94644 0.0
C88 C 0.8526 0.50738 0.93099 0.0
C89 C 0.99173 0.49294 0.90755 0.0
O90 O 0.12556 0.53646 0.93499 0.0
O91 O 1.0402 0.54206 0.9214 0.0
O92 O 0.88583 0.52403 0.93051 0.0
O93 O 0.92026 0.49649 0.93062 0.0
O94 O 1.03507 0.50733 0.91194 0.0
O95 O 0.96133 0.47869 0.91339 0.0
C96 C 0.95752 0.43614 0.92832 0.0
O97 O 1.01878 0.44494 0.92261 0.0
O98 O 0.91712 0.44772 0.93494 0.0
C99 C 0.17073 0.48318 0.93241 0.0
Tb100 Tb 0.85459 0.26297 0.93101 0.0
C101 C 0.82921 0.23993 0.95277 0.0
Tb102 Tb 0.81792 0.21885 0.93027 0.0
O103 O 0.70783 0.2713 0.92931 0.0
O104 O 0.7453 0.24411 0.92917 0.0
O105 O 0.86979 0.25431 0.94794 0.0
C106 C 0.74624 0.18485 0.9289 0.0
O107 O 0.79418 0.22559 0.94734 0.0
C108 C 0.99609 0.22709 0.93257 0.0
C109 C 0.855 0.24162 0.90861 0.0
O110 O 0.72767 0.19685 0.93651 0.0
O111 O 0.80324 0.19219 0.92198 0.0
O112 O 0.964 0.21031 0.93221 0.0
O113 O 0.92726 0.23766 0.932 0.0
O114 O 0.81188 0.22726 0.91317 0.0
O115 O 0.88678 0.25605 0.91421 0.0
C116 C 0.91741 0.29765 0.9325 0.0
O117 O 0.93269 0.28647 0.92436 0.0
O118 O 0.86985 0.28902 0.93987 0.0
C119 C 0.676 0.25455 0.92878 0.0
Tb120 Tb 0.98938 0.2616 0.80588 0.0
C121 C 1.00831 0.23765 0.78436 0.0
Tb122 Tb 1.02913 0.2177 0.80714 0.0
O123 O 0.13568 0.27031 0.80699 0.0
O124 O 0.10087 0.24306 0.80758 0.0
O125 O 0.9692 0.25227 0.78916 0.0
C126 C 0.1039 0.18391 0.80861 0.0
O127 O 1.04598 0.2236 0.78984 0.0
C128 C 0.8499 0.2254 0.8052 0.0
C129 C 0.99303 0.24122 0.82854 0.0
O130 O 0.12141 0.19588 0.80096 0.0
O131 O 1.04634 0.19119 0.81551 0.0
O132 O 0.8837 0.20872 0.80566 0.0
O133 O 0.9177 0.2362 0.80555 0.0
O134 O 1.03693 0.22677 0.82412 0.0
O135 O 0.95891 0.25525 0.82277 0.0
C136 C 0.9253 0.29624 0.80434 0.0
O137 O 0.9169 0.28559 0.81283 0.0
O138 O 0.96633 0.28706 0.79662 0.0
C139 C 0.16921 0.2537 0.80769 0.0
Tb140 Tb 0.84779 0.46957 0.80563 0.0
C141 C 0.8048 0.4898 0.78354 0.0
Tb142 Tb 0.80737 0.51358 0.80533 0.0
O143 O 0.70128 0.46092 0.80637 0.0
O144 O 0.73614 0.48822 0.80633 0.0
O145 O 0.84934 0.47582 0.78831 0.0
C146 C 0.73582 0.54766 0.80466 0.0
O147 O 0.77033 0.50426 0.78898 0.0
C148 C 0.9871 0.50567 0.80427 0.0
C149 C 0.85985 0.49357 0.82733 0.0
O150 O 0.78718 0.54013 0.79719 0.0
O151 O 0.72235 0.53576 0.81248 0.0
O152 O 0.95346 0.52236 0.80446 0.0
O153 O 0.91901 0.49494 0.80461 0.0
O154 O 0.81639 0.50789 0.82275 0.0
O155 O 0.88913 0.47875 0.82182 0.0
C156 C 0.91244 0.43493 0.80634 0.0
O157 O 0.87241 0.44366 0.8143 0.0
O158 O 0.91956 0.44603 0.79802 0.0
C159 C 0.66777 0.47759 0.80656 0.0
Tb160 Tb 0.05579 0.9671 0.55717 0.0
C161 C 0.0879 0.9893 0.5789 0.0
Tb162 Tb 0.08602 0.00995 0.55614 0.0
O163 O 0.20106 0.95814 0.55596 0.0
O164 O 0.16581 0.98568 0.55578 0.0
O165 O 0.04926 0.97452 0.57434 0.0
C166 C 0.1187 0.0462 0.5579 0.0
O167 O 0.11525 0.00397 0.57321 0.0
C168 C 0.91564 -0.00189 0.55347 0.0
C169 C 0.07696 0.98771 0.53437 0.0
O170 O 1.04464 0.03775 0.56109 0.0
O171 O 0.17668 0.03414 0.55388 0.0
O172 O 0.94975 0.01268 0.54883 0.0
O173 O 0.97496 -0.00864 0.55987 0.0
O174 O 0.11238 0.0025 0.5393 0.0
O175 O 1.04096 0.97343 0.5398 0.0
C176 C 0.98719 0.93286 0.55844 0.0
O177 O 0.96428 0.9451 0.55113 0.0
O178 O 1.04664 0.9401 0.56506 0.0
C179 C 0.23374 0.97483 0.55551 0.0
Tb180 Tb 0.28643 0.2633 0.55638 0.0
C181 C 0.24166 0.24345 0.57868 0.0
Tb182 Tb 0.24874 0.21906 0.55702 0.0
O183 O 0.13972 0.27185 0.55598 0.0
O184 O 0.17647 0.24446 0.55632 0.0
O185 O 0.28198 0.25788 0.57385 0.0
C186 C 0.19218 0.18412 0.55895 0.0
O187 O 0.21289 0.2284 0.57339 0.0
C188 C 0.42791 0.22769 0.55681 0.0
C189 C 0.2832 0.239 0.53464 0.0
O190 O 0.25014 0.19247 0.56531 0.0
O191 O 0.1627 0.19571 0.55156 0.0
O192 O 0.39636 0.21092 0.55659 0.0
O193 O 0.35831 0.23804 0.5571 0.0
O194 O 0.24311 0.22475 0.53965 0.0
O195 O 0.3173 0.25372 0.53984 0.0
C196 C 0.35809 0.29725 0.55535 0.0
O197 O 0.30507 0.28973 0.54808 0.0
O198 O 0.37291 0.28543 0.56318 0.0
C199 C 0.10759 0.25506 0.55605 0.0
Tb200 Tb 0.06086 0.26505 0.68116 0.0
C201 C 0.11563 0.24543 0.65907 0.0
Tb202 Tb 0.10165 0.2211 0.68059 0.0
O203 O 0.20689 0.27389 0.68212 0.0
O204 O 0.17261 0.24646 0.68184 0.0
O205 O 0.07148 0.25964 0.66371 0.0
C206 C 0.16757 0.18656 0.68002 0.0
O207 O 0.14462 0.23054 0.66452 0.0
C208 C 0.92155 0.22907 0.67956 0.0
C209 C 0.05859 0.24101 0.70281 0.0
O210 O 0.13147 0.19542 0.67187 0.0
O211 O 0.16998 0.19747 0.68846 0.0
O212 O 0.95524 0.21241 0.67957 0.0
O213 O 0.9898 0.2397 0.68 0.0
O214 O 0.10352 0.22718 0.69793 0.0
O215 O 1.02383 0.25554 0.69748 0.0
C216 C 0.98715 0.29894 0.68172 0.0
O217 O 1.03846 0.2916 0.68924 0.0
O218 O 0.9751 0.28695 0.67392 0.0
C219 C 0.24065 0.2572 0.68222 0.0
Tb220 Tb 0.27905 0.96925 0.68077 0.0
C221 C 0.22844 0.99025 0.65894 0.0
Tb222 Tb 0.24019 0.01327 0.68093 0.0
O223 O 0.13256 0.96062 0.68163 0.0
O224 O 0.1685 0.98796 0.68203 0.0
O225 O 0.2712 0.97571 0.6634 0.0
C226 C 0.17498 0.04792 0.68134 0.0
O227 O 0.2001 0.005 0.66457 0.0
C228 C 0.41963 0.005 0.6793 0.0
C229 C 0.2756 -0.00804 0.70276 0.0
O230 O 0.18552 0.03781 0.67267 0.0
O231 O 0.19766 0.0382 0.68983 0.0
O232 O 0.38691 0.02174 0.67954 0.0
O233 O 0.351 -0.00548 0.6798 0.0
O234 O 0.22857 0.00558 0.698 0.0
O235 O 0.31515 0.97818 0.69722 0.0
C236 C 0.35272 0.93532 0.68127 0.0
O237 O 0.31237 0.94364 0.68936 0.0
O238 O 0.35378 0.94632 0.67287 0.0
C239 C 0.09987 0.97738 0.68212 0.0
Tb240 Tb 0.99359 0.9686 0.43111 0.0
C241 C 1.02021 -0.00839 0.45283 0.0
Tb242 Tb 1.03001 0.01269 0.43032 0.0
O243 O 0.14033 0.96028 0.42934 0.0
O244 O 0.10283 0.98746 0.42924 0.0
O245 O 0.97863 0.97732 0.44804 0.0
C246 C 0.10093 0.04675 0.42881 0.0
O247 O 0.05547 0.00589 0.44736 0.0
C248 C 0.85184 0.00447 0.43269 0.0
C249 C 0.99392 0.98971 0.40867 0.0
O250 O 0.11676 0.03514 0.43669 0.0
O251 O 1.04725 0.03897 0.42171 0.0
O252 O 0.88392 0.02124 0.43229 0.0
O253 O 0.92068 -0.0061 0.43211 0.0
O254 O 1.03615 0.0042 0.41321 0.0
O255 O 0.96244 0.97528 0.41429 0.0
C256 C 0.9306 0.93396 0.43263 0.0
O257 O 0.9135 0.94527 0.42462 0.0
O258 O 0.98015 0.94243 0.43987 0.0
C259 C 0.17212 0.97703 0.42881 0.0
Tb260 Tb 0.85381 0.75949 0.43121 0.0
C261 C 0.84189 0.73707 0.45295 0.0
Tb262 Tb 0.82135 0.71669 0.43015 0.0
O263 O 0.71537 0.76326 0.43785 0.0
O264 O 0.74179 0.74116 0.42741 0.0
O265 O 0.8782 0.75178 0.44805 0.0
C266 C 0.75067 0.68262 0.42872 0.0
O267 O 0.80517 0.72291 0.44751 0.0
C268 C 0.99977 0.72418 0.43196 0.0
C269 C 0.86006 0.73876 0.40859 0.0
O270 O 0.72752 0.69491 0.436 0.0
O271 O 0.81165 0.6897 0.42221 0.0
O272 O 0.96653 0.70753 0.4315 0.0
O273 O 0.93211 0.73508 0.43162 0.0
O274 O 0.81698 0.72435 0.41301 0.0
O275 O 0.89059 0.753 0.41442 0.0
C276 C 0.8954 0.79539 0.42946 0.0
O277 O 0.83331 0.78672 0.42383 0.0
O278 O 0.93624 0.78371 0.43596 0.0
C279 C 0.68164 0.74837 0.43355 0.0
Tb280 Tb 0.99807 0.7613 0.30583 0.0
C281 C 1.01219 0.73919 0.28401 0.0
Tb282 Tb 1.03134 0.71852 0.30674 0.0
O283 O 0.13656 0.76511 0.29928 0.0
O284 O 0.11046 0.74291 0.30963 0.0
O285 O 0.97471 0.7538 0.28894 0.0
C286 C 0.10172 0.68432 0.30811 0.0
O287 O 0.04889 0.72497 0.28943 0.0
C288 C 0.85286 0.72603 0.30483 0.0
C289 C 0.99058 0.74039 0.32834 0.0
O290 O 0.12461 0.69657 0.30081 0.0
O291 O 1.0413 0.69153 0.31467 0.0
O292 O 0.88656 0.70938 0.30524 0.0
O293 O 0.92013 0.73693 0.30526 0.0
O294 O 1.03456 0.72603 0.32392 0.0
O295 O 0.95972 0.75462 0.32252 0.0
C296 C 0.95731 0.79723 0.30788 0.0
O297 O 1.01765 0.7882 0.3136 0.0
O298 O 0.9176 0.78589 0.3011 0.0
C299 C 0.17055 0.75019 0.30354 0.0
Tb300 Tb 0.86539 0.97051 0.30599 0.0
C301 C 0.8455 -0.00604 0.28431 0.0
Tb302 Tb 0.82716 0.01459 0.30691 0.0
O303 O 0.71864 0.96213 0.30737 0.0
O304 O 0.75513 0.98932 0.30763 0.0
O305 O 0.88519 0.97951 0.2892 0.0
C306 C 0.75397 0.04853 0.30838 0.0
O307 O 0.80807 0.00816 0.2897 0.0
C308 C 1.00584 0.00645 0.30494 0.0
C309 C 0.86151 -0.0086 0.3285 0.0
O310 O 0.73812 0.03678 0.30056 0.0
O311 O 0.809 0.04095 0.31543 0.0
O312 O 0.97317 0.02322 0.30532 0.0
O313 O 0.93738 -0.00416 0.30537 0.0
O314 O 0.81874 0.00585 0.32395 0.0
O315 O 0.89477 0.97709 0.32288 0.0
C316 C 0.92842 0.93582 0.30435 0.0
O317 O 0.94202 0.94676 0.31262 0.0
O318 O 0.88256 0.9447 0.29692 0.0
C319 C 0.68621 0.97886 0.30791 0.0
Tb320 Tb 0.57113 0.46699 0.55619 0.0
C321 C 0.60482 0.49032 0.57766 0.0
Tb322 Tb 0.6083 0.51101 0.55511 0.0
O323 O 0.71743 0.4583 0.55474 0.0
O324 O 0.68104 0.48568 0.5547 0.0
O325 O 0.56123 0.47598 0.57316 0.0
C326 C 0.6713 0.54568 0.55382 0.0
O327 O 0.63914 0.50439 0.57196 0.0
C328 C 0.42917 0.50275 0.55683 0.0
C329 C 0.59037 0.48725 0.53349 0.0
O330 O 0.67691 0.53507 0.56236 0.0
O331 O 0.63366 0.53644 0.54592 0.0
O332 O 0.46122 0.51946 0.55618 0.0
O333 O 0.49832 0.49227 0.55669 0.0
O334 O 0.62879 0.50186 0.53834 0.0
O335 O 0.55339 0.4731 0.53892 0.0
C336 C 0.49882 0.43311 0.55781 0.0
O337 O 0.48256 0.44473 0.54994 0.0
O338 O 0.55377 0.44077 0.56482 0.0
C339 C 0.74973 0.47506 0.55434 0.0
Tb340 Tb 0.78424 0.76271 0.55611 0.0
C341 C 0.73248 0.74331 0.57835 0.0
Tb342 Tb 0.74489 0.71875 0.55685 0.0
O343 O 0.6379 0.77151 0.55529 0.0
O344 O 0.67306 0.74409 0.55562 0.0
O345 O 0.77538 0.75752 0.57361 0.0
C346 C 0.68023 0.6842 0.55761 0.0
O347 O 0.70353 0.72835 0.57298 0.0
C348 C 0.92474 0.72673 0.55767 0.0
C349 C 0.7864 0.73838 0.53452 0.0
O350 O 0.71862 0.69302 0.56563 0.0
O351 O 0.67478 0.69516 0.54922 0.0
O352 O 0.89156 0.71007 0.55773 0.0
O353 O 0.85619 0.73738 0.55726 0.0
O354 O 0.74253 0.72455 0.53948 0.0
O355 O 0.8206 0.75301 0.53978 0.0
C356 C 0.85566 0.79668 0.55514 0.0
O357 O 0.80367 0.78909 0.54779 0.0
O358 O 0.86974 0.7849 0.56301 0.0
C359 C 0.60469 0.75482 0.55525 0.0
Tb360 Tb 0.55187 0.76478 0.68089 0.0
C361 C 0.60551 0.74504 0.65878 0.0
Tb362 Tb 0.59094 0.7207 0.68027 0.0
O363 O 0.69824 0.77335 0.68206 0.0
O364 O 0.66246 0.74599 0.68164 0.0
O365 O 0.56125 0.75922 0.66343 0.0
C366 C 0.65489 0.686 0.67946 0.0
O367 O 0.63464 0.73016 0.66422 0.0
C368 C 0.41146 0.72912 0.67921 0.0
C369 C 0.54761 0.74061 0.70252 0.0
O370 O 0.61775 0.69501 0.67143 0.0
O371 O 0.65945 0.69685 0.68793 0.0
O372 O 0.44389 0.71236 0.67931 0.0
O373 O 0.48042 0.73955 0.67956 0.0
O374 O 0.59192 0.72668 0.69764 0.0
O375 O 0.51365 0.75521 0.69718 0.0
C376 C 0.47838 0.79872 0.6813 0.0
O377 O 0.52157 0.79076 0.68929 0.0
O378 O 0.47427 0.78734 0.67308 0.0
C379 C 0.73097 0.75657 0.68212 0.0
Tb380 Tb 0.77172 0.46863 0.67917 0.0
C381 C 0.73538 0.49205 0.65785 0.0
Tb382 Tb 0.73334 0.51265 0.68049 0.0
O383 O 0.6257 0.45993 0.68064 0.0
O384 O 0.66134 0.48731 0.68085 0.0
O385 O 0.78025 0.47773 0.66224 0.0
C386 C 0.66939 0.54732 0.68195 0.0
O387 O 0.70091 0.50605 0.66365 0.0
C388 C 0.91267 0.5044 0.67864 0.0
C389 C 0.75342 0.48864 0.70198 0.0
O390 O 0.66594 0.53697 0.67328 0.0
O391 O 0.70538 0.53783 0.68986 0.0
O392 O 0.88017 0.5211 0.67942 0.0
O393 O 0.84378 0.49393 0.67872 0.0
O394 O 0.71462 0.50337 0.69726 0.0
O395 O 0.79012 0.47455 0.69643 0.0
C396 C 0.84557 0.43478 0.67766 0.0
O397 O 0.86152 0.44655 0.68546 0.0
O398 O 0.79008 0.44229 0.67063 0.0
C399 C 0.59295 0.47669 0.68117 0.0
Tb400 Tb 0.49542 0.46877 0.42955 0.0
C401 C 0.536 0.4884 0.45193 0.0
Tb402 Tb 0.53329 0.5129 0.43048 0.0
O403 O 0.6426 0.46042 0.42848 0.0
O404 O 0.60548 0.48762 0.4291 0.0
O405 O 0.49198 0.47463 0.44693 0.0
C406 C 0.60426 0.54693 0.43144 0.0
O407 O 0.57044 0.50305 0.44672 0.0
C408 C 0.35435 0.50456 0.43145 0.0
C409 C 0.48117 0.49369 0.4082 0.0
O410 O 0.5517 0.53939 0.43876 0.0
O411 O 0.61904 0.53509 0.42361 0.0
O412 O 0.38637 0.52135 0.43146 0.0
O413 O 0.42338 0.49404 0.431 0.0
O414 O 0.52358 0.5079 0.41299 0.0
O415 O 0.45336 0.47854 0.41348 0.0
C416 C 0.43124 0.43413 0.42888 0.0
O417 O 0.46465 0.44328 0.42068 0.0
O418 O 0.43052 0.44481 0.43743 0.0
C419 C 0.67465 0.47717 0.42861 0.0
Tb420 Tb 0.35039 0.26076 0.43085 0.0
C421 C 0.31971 0.23962 0.45289 0.0
Tb422 Tb 0.31087 0.21679 0.43093 0.0
O423 O 0.20373 0.26953 0.43015 0.0
O424 O 0.23873 0.2422 0.43037 0.0
O425 O 0.36414 0.25337 0.44794 0.0
C426 C 0.23864 0.18282 0.4317 0.0
O427 O 0.27972 0.22573 0.44753 0.0
C428 C 0.49056 0.22459 0.43156 0.0
C429 C 0.35827 0.23728 0.4089 0.0
O430 O 0.29082 0.19026 0.43908 0.0
O431 O 0.22485 0.19475 0.4239 0.0
O432 O 0.45725 0.20791 0.43127 0.0
O433 O 0.42225 0.23535 0.43151 0.0
O434 O 0.3168 0.22279 0.41352 0.0
O435 O 0.38747 0.25207 0.41441 0.0
C436 C 0.41571 0.29536 0.43065 0.0
O437 O 0.39332 0.28572 0.42213 0.0
O438 O 0.40488 0.2852 0.4393 0.0
C439 C 0.17035 0.25289 0.43009 0.0
Tb440 Tb 0.4934 0.26223 0.30693 0.0
C441 C 0.53206 0.24233 0.28461 0.0
Tb442 Tb 0.53413 0.21828 0.30618 0.0
O443 O 0.6398 0.27092 0.30799 0.0
O444 O 0.60537 0.24363 0.30735 0.0
O445 O 0.48676 0.25597 0.28961 0.0
C446 C 0.60784 0.18437 0.30536 0.0
O447 O 0.56925 0.22797 0.28985 0.0
C448 C 0.35431 0.22614 0.30529 0.0
C449 C 0.48138 0.23771 0.32841 0.0
O450 O 0.556 0.19184 0.29793 0.0
O451 O 0.62042 0.19623 0.31322 0.0
O452 O 0.38807 0.20945 0.30532 0.0
O453 O 0.42232 0.23688 0.30568 0.0
O454 O 0.52468 0.22351 0.32365 0.0
O455 O 0.45245 0.25273 0.32308 0.0
C456 C 0.42762 0.29684 0.3074 0.0
O457 O 0.45597 0.28745 0.31578 0.0
O458 O 0.4327 0.28641 0.29878 0.0
C459 C 0.67354 0.25427 0.30786 0.0
Tb460 Tb 0.35331 0.47021 0.30587 0.0
C461 C 0.31746 0.49067 0.28369 0.0
Tb462 Tb 0.31277 0.51418 0.30551 0.0
O463 O 0.2069 0.46148 0.30664 0.0
O464 O 0.24132 0.4888 0.30634 0.0
O465 O 0.36207 0.47688 0.28863 0.0
C466 C 0.24053 0.5482 0.30466 0.0
O467 O 0.27969 0.5049 0.28902 0.0
C468 C 0.49262 0.50632 0.30475 0.0
C469 C 0.36217 0.49415 0.32762 0.0
O470 O 0.29337 0.54072 0.29732 0.0
O471 O 0.22604 0.53629 0.31245 0.0
O472 O 0.45892 0.523 0.30494 0.0
O473 O 0.42458 0.49557 0.30496 0.0
O474 O 0.31972 0.50852 0.32296 0.0
O475 O 0.39202 0.47932 0.32216 0.0
C476 C 0.41895 0.43559 0.30641 0.0
O477 O 0.38916 0.44496 0.31474 0.0
O478 O 0.41537 0.44604 0.29779 0.0
C479 C 0.17316 0.47813 0.30666 0.0
Tb480 Tb 0.55497 0.96711 0.05644 0.0
C481 C 0.6013 0.98687 0.07874 0.0
Tb482 Tb 0.59295 0.01135 0.05712 0.0
O483 O 0.70172 0.95857 0.05581 0.0
O484 O 0.66495 0.98594 0.05626 0.0
O485 O 0.56074 0.97247 0.07392 0.0
C486 C 0.65191 0.04619 0.05873 0.0
O487 O 0.62939 0.002 0.07346 0.0
C488 C 0.41372 0.00276 0.05717 0.0
C489 C 0.555 -0.00851 0.03475 0.0
O490 O 0.59254 0.03825 0.06511 0.0
O491 O 0.68119 0.03426 0.05151 0.0
O492 O 0.44533 0.01953 0.05697 0.0
O493 O 0.48333 -0.0076 0.05733 0.0
O494 O 0.59566 0.00574 0.03971 0.0
O495 O 0.52193 0.97672 0.04 0.0
C496 C 0.48319 0.93318 0.05556 0.0
O497 O 0.53565 0.94064 0.0482 0.0
O498 O 0.46897 0.94505 0.06339 0.0
C499 C 0.73387 0.97536 0.0559 0.0
Tb500 Tb 0.79869 0.26281 0.05729 0.0
C501 C 0.76449 0.2404 0.07888 0.0
Tb502 Tb 0.76641 0.22013 0.05601 0.0
O503 O 0.65392 0.27213 0.05623 0.0
O504 O 0.68736 0.24452 0.05581 0.0
O505 O 0.80418 0.25517 0.07444 0.0
C506 C 0.72982 0.184 0.05759 0.0
O507 O 0.73686 0.22588 0.07309 0.0
C508 C 0.93779 0.23156 0.05337 0.0
C509 C 0.77684 0.24264 0.03438 0.0
O510 O 0.80475 0.19208 0.06082 0.0
O511 O 0.67343 0.19636 0.05361 0.0
O512 O 0.90258 0.21717 0.04865 0.0
O513 O 0.87884 0.23839 0.05983 0.0
O514 O 0.74061 0.22785 0.03922 0.0
O515 O 0.81352 0.25674 0.03989 0.0
C516 C 0.86859 0.29698 0.05857 0.0
O517 O 0.89014 0.28478 0.05117 0.0
O518 O 0.80995 0.28972 0.0653 0.0
C519 C 0.62006 0.25555 0.05567 0.0
Tb520 Tb 0.57957 0.26273 0.18007 0.0
C521 C 0.60917 0.24003 0.15853 0.0
Tb522 Tb 0.61356 0.21979 0.18143 0.0
O523 O 0.71855 0.26686 0.17376 0.0
O524 O 0.69173 0.24444 0.18401 0.0
O525 O 0.5692 0.25487 0.16297 0.0
C526 C 0.67442 0.18491 0.18307 0.0
O527 O 0.64089 0.22582 0.16434 0.0
C528 C 0.43462 0.22745 0.17949 0.0
C529 C 0.58939 0.24277 0.20304 0.0
O530 O 0.69368 0.19618 0.17511 0.0
O531 O 0.62423 0.19359 0.1902 0.0
O532 O 0.46812 0.21086 0.18019 0.0
O533 O 0.50243 0.23822 0.17973 0.0
O534 O 0.62819 0.22806 0.19836 0.0
O535 O 0.55645 0.25706 0.19738 0.0
C536 C 0.52403 0.29805 0.18089 0.0
O537 O 0.60161 0.2917 0.18465 0.0
O538 O 0.47667 0.28445 0.17679 0.0
C539 C 0.75224 0.25185 0.17801 0.0
Tb540 Tb 0.78476 0.96748 0.18114 0.0
C541 C 0.73086 0.98714 0.15904 0.0
Tb542 Tb 0.74439 0.0115 0.18054 0.0
O543 O 0.63872 0.9587 0.18207 0.0
O544 O 0.67319 0.98613 0.18176 0.0
O545 O 0.77474 0.9729 0.16366 0.0
C546 C 0.68101 0.04624 0.17981 0.0
O547 O 0.7017 0.00202 0.1645 0.0
C548 C 0.92442 0.00341 0.17964 0.0
C549 C 0.78637 -0.00826 0.2028 0.0
O550 O 0.72158 0.03751 0.17189 0.0
O551 O 0.67246 0.03508 0.18809 0.0
O552 O 0.89097 0.02008 0.17968 0.0
O553 O 0.85601 -0.0072 0.18001 0.0
O554 O 0.74241 0.00563 0.19789 0.0
O555 O 0.82068 0.9771 0.19751 0.0
C556 C 0.85721 0.93344 0.1819 0.0
O557 O 0.80628 0.94104 0.18939 0.0
O558 O 0.86973 0.94524 0.17401 0.0
C559 C 0.6051 0.9754 0.18215 0.0
Tb560 Tb 0.49076 0.97106 0.93122 0.0
C561 C 0.51966 -0.00696 0.95301 0.0
Tb562 Tb 0.53041 0.01501 0.9308 0.0
O563 O 0.63737 0.96224 0.93046 0.0
O564 O 0.60249 0.98957 0.93054 0.0
O565 O 0.47481 0.97922 0.94818 0.0
C566 C 0.60302 0.04896 0.93121 0.0
O567 O 0.56061 0.00666 0.94752 0.0
C568 C 0.35066 0.00723 0.93148 0.0
C569 C 0.48406 -0.0063 0.90898 0.0
O570 O 0.54901 0.04193 0.93856 0.0
O571 O 0.61832 0.03664 0.92365 0.0
O572 O 0.38398 0.0239 0.93097 0.0
O573 O 0.41899 -0.00352 0.9316 0.0
O574 O 0.52471 0.00841 0.91346 0.0
O575 O 0.45535 0.97901 0.91461 0.0
C576 C 0.425 0.93649 0.93164 0.0
O577 O 0.44187 0.9461 0.92292 0.0
O578 O 0.4416 0.94667 0.94014 0.0
C579 C 0.67083 0.97887 0.93028 0.0
Tb580 Tb 0.34467 0.76316 0.93076 0.0
C581 C 0.30533 0.74233 0.95277 0.0
Tb582 Tb 0.30536 0.71917 0.93082 0.0
O583 O 0.19804 0.77188 0.92992 0.0
O584 O 0.23336 0.74456 0.93001 0.0
O585 O 0.34991 0.75628 0.94801 0.0
C586 C 0.23392 0.68515 0.93123 0.0
O587 O 0.26938 0.72814 0.94728 0.0
C588 C 0.48492 0.72704 0.93185 0.0
C589 C 0.35765 0.73947 0.90891 0.0
O590 O 0.28673 0.69232 0.93865 0.0
O591 O 0.21901 0.69738 0.92363 0.0
O592 O 0.45172 0.71035 0.93154 0.0
O593 O 0.41653 0.73778 0.93163 0.0
O594 O 0.31489 0.72506 0.91344 0.0
O595 O 0.3859 0.75428 0.91446 0.0
C596 C 0.40972 0.79774 0.93034 0.0
O597 O 0.37851 0.7886 0.92202 0.0
O598 O 0.40774 0.7871 0.93889 0.0
C599 C 0.16484 0.75522 0.92974 0.0
Tb600 Tb 0.49463 0.76059 0.80596 0.0
C601 C 0.5049 0.73808 0.78424 0.0
Tb602 Tb 0.52881 0.71797 0.80707 0.0
O603 O 0.6319 0.76433 0.79904 0.0
O604 O 0.60826 0.74243 0.80967 0.0
O605 O 0.46831 0.75281 0.78916 0.0
C606 C 0.60048 0.68388 0.80842 0.0
O607 O 0.54303 0.72404 0.78968 0.0
C608 C 0.34973 0.72512 0.80546 0.0
C609 C 0.48984 0.73998 0.82862 0.0
O610 O 0.62194 0.69608 0.80104 0.0
O611 O 0.5408 0.69108 0.81508 0.0
O612 O 0.38442 0.70856 0.80592 0.0
O613 O 0.41642 0.7362 0.80569 0.0
O614 O 0.53384 0.72564 0.82421 0.0
O615 O 0.45815 0.75411 0.82276 0.0
C616 C 0.45483 0.79661 0.808 0.0
O617 O 0.51529 0.78752 0.81368 0.0
O618 O 0.4144 0.78527 0.80128 0.0
C619 C 0.66723 0.74961 0.80339 0.0
Tb620 Tb 0.36013 0.96994 0.80625 0.0
C621 C 0.32966 -0.00838 0.78436 0.0
Tb622 Tb 0.31945 0.01395 0.8063 0.0
O623 O 0.21408 0.96128 0.80803 0.0
O624 O 0.24831 0.98854 0.80695 0.0
O625 O 0.37751 0.97827 0.7893 0.0
C626 C 0.24601 0.04789 0.80585 0.0
O627 O 0.28685 0.00512 0.78979 0.0
C628 C 0.49938 0.00607 0.80547 0.0
C629 C 0.36371 -0.0071 0.82842 0.0
O630 O 0.29945 0.04077 0.79845 0.0
O631 O 0.23169 0.03568 0.81348 0.0
O632 O 0.46572 0.02275 0.80594 0.0
O633 O 0.43113 -0.00464 0.80539 0.0
O634 O 0.32631 0.00777 0.82368 0.0
O635 O 0.38948 0.97762 0.82307 0.0
C636 C 0.42497 0.93531 0.80478 0.0
O637 O 0.43507 0.94618 0.81316 0.0
O638 O 0.38173 0.94426 0.79716 0.0
C639 C 0.18026 0.97793 0.80781 0.0
H640 H 1.02652 0.40759 0.03884 0.0
H641 H 0.82481 0.32304 0.07373 0.0
H642 H 0.90034 0.41426 0.07044 0.0
H643 H 0.96621 0.31603 0.04307 0.0
H644 H 0.85131 0.35644 0.07266 0.0
H645 H 1.00093 0.37416 0.03999 0.0
C646 C 0.99254 0.40201 0.04598 0.0
C647 C 0.96533 0.41367 0.05456 0.0
C648 C 0.87708 0.34763 0.06619 0.0
C649 C 0.9368 0.37539 0.056 0.0
C650 C 0.86233 0.32855 0.06682 0.0
C651 C 0.89353 0.3168 0.05847 0.0
C652 C 0.92299 0.35505 0.05711 0.0
C653 C 0.94137 0.32463 0.04969 0.0
C654 C 0.97843 0.38291 0.04666 0.0
C655 C 0.92205 0.40573 0.06364 0.0
N656 N 0.95427 0.3433 0.0492 0.0
N657 N 0.90932 0.38706 0.06414 0.0
H658 H 0.51692 0.9074 0.03989 0.0
H659 H 0.30961 0.8229 0.07439 0.0
H660 H 0.39205 0.91406 0.07157 0.0
H661 H 0.44064 0.81641 0.04306 0.0
H662 H 0.34012 0.85623 0.07363 0.0
H663 H 0.48698 0.87412 0.0408 0.0
C664 C 0.48237 0.90184 0.047 0.0
C665 C 0.45679 0.91345 0.05567 0.0
C666 C 0.36268 0.84753 0.06695 0.0
C667 C 0.42324 0.87533 0.05683 0.0
C668 C 0.34569 0.8285 0.0674 0.0
C669 C 0.3728 0.81694 0.05877 0.0
C670 C 0.40685 0.85506 0.05777 0.0
C671 C 0.41888 0.82487 0.04989 0.0
C672 C 0.46571 0.88283 0.04754 0.0
C673 C 0.41258 0.90556 0.0647 0.0
N674 N 0.43413 0.84346 0.04959 0.0
N675 N 0.39743 0.88695 0.06507 0.0
H676 H 0.82712 0.90787 0.19777 0.0
H677 H 1.02554 0.82251 0.16295 0.0
H678 H 0.94446 0.91392 0.16567 0.0
H679 H 0.90269 0.81668 0.19477 0.0
H680 H 0.99568 0.85591 0.16368 0.0
H681 H 0.85685 0.87454 0.19691 0.0
C682 C 0.85999 0.90217 0.19057 0.0
C683 C 0.88353 0.91364 0.18178 0.0
C684 C 0.97478 0.84734 0.17049 0.0
C685 C 0.91684 0.87542 0.18067 0.0
C686 C 0.99141 0.82826 0.17005 0.0
C687 C 0.96636 0.81685 0.17881 0.0
C688 C 0.93302 0.85509 0.17978 0.0
C689 C 0.9228 0.825 0.18783 0.0
C690 C 0.87654 0.88312 0.19006 0.0
C691 C 0.92557 0.90554 0.17264 0.0
N692 N 0.90781 0.84364 0.1881 0.0
N693 N 0.94064 0.8869 0.17231 0.0
H694 H 0.51164 0.41778 0.17357 0.0
H695 H 0.35175 0.31276 0.17786 0.0
H696 H 0.24866 0.40259 0.18746 0.0
H697 H 0.63557 0.32809 0.18348 0.0
H698 H 0.3095 0.3458 0.17764 0.0
H699 H 0.55655 0.38475 0.1735 0.0
C700 C 0.46353 0.40749 0.17657 0.0
C701 C 0.37669 0.41282 0.18058 0.0
C702 C 0.38097 0.34187 0.17892 0.0
C703 C 0.42623 0.37534 0.18029 0.0
C704 C 0.40503 0.32309 0.17903 0.0
C705 C 0.49703 0.31778 0.18077 0.0
C706 C 0.44984 0.35537 0.18029 0.0
C707 C 0.56369 0.33167 0.1822 0.0
C708 C 0.48912 0.38875 0.17656 0.0
C709 C 0.31658 0.39902 0.18438 0.0
N710 N 0.53896 0.34988 0.18185 0.0
N711 N 0.34209 0.38089 0.18405 0.0
H712 H 0.21078 0.56689 0.94272 0.0
H713 H 0.13611 0.66699 0.91541 0.0
H714 H 0.05197 0.57582 0.91349 0.0
H715 H 0.27514 0.65838 0.94604 0.0
H716 H 0.10694 0.63354 0.9143 0.0
H717 H 0.24124 0.60029 0.94364 0.0
C718 C 0.18319 0.57588 0.93644 0.0
C719 C 0.12887 0.56865 0.92802 0.0
C720 C 0.14346 0.63898 0.92129 0.0
C721 C 0.1623 0.60681 0.92906 0.0
C722 C 0.15966 0.65806 0.92194 0.0
C723 C 0.20787 0.6654 0.93083 0.0
C724 C 0.17616 0.6272 0.92957 0.0
C725 C 0.23749 0.65326 0.93905 0.0
C726 C 0.20004 0.59494 0.93699 0.0
C727 C 0.09426 0.58087 0.92012 0.0
N728 N 0.22149 0.63476 0.93821 0.0
N729 N 0.11134 0.59935 0.92084 0.0
H730 H 0.64152 0.16661 0.944 0.0
H731 H 0.70173 0.06709 0.9154 0.0
H732 H 0.7902 0.15832 0.91392 0.0
H733 H 0.565 0.07559 0.94623 0.0
H734 H 0.73432 0.10045 0.91453 0.0
H735 H 0.60871 0.13332 0.94463 0.0
C736 C 0.66648 0.15778 0.93748 0.0
C737 C 0.71852 0.16517 0.9289 0.0
C738 C 0.69752 0.095 0.92151 0.0
C739 C 0.68235 0.12708 0.9296 0.0
C740 C 0.67937 0.07597 0.92202 0.0
C741 C 0.63079 0.06863 0.9309 0.0
C742 C 0.66653 0.10672 0.92993 0.0
C743 C 0.6028 0.08071 0.93924 0.0
C744 C 0.64822 0.13877 0.93786 0.0
C745 C 0.74967 0.15314 0.92068 0.0
N746 N 0.62079 0.09915 0.93854 0.0
N747 N 0.73135 0.13468 0.92124 0.0
H748 H 0.20818 0.16567 0.7934 0.0
H749 H 0.14878 0.06612 0.82179 0.0
H750 H 0.06179 0.15741 0.82362 0.0
H751 H 0.28308 0.07451 0.79082 0.0
H752 H 0.117 0.09952 0.82278 0.0
H753 H 0.24088 0.13235 0.79266 0.0
C754 C 0.18378 0.15685 0.79993 0.0
C755 C 0.13232 0.16425 0.80858 0.0
C756 C 0.15307 0.09404 0.81575 0.0
C757 C 0.16829 0.12613 0.80774 0.0
C758 C 0.17074 0.07498 0.81516 0.0
C759 C 0.21842 0.06759 0.80621 0.0
C760 C 0.18366 0.10575 0.80732 0.0
C761 C 0.24595 0.07966 0.79786 0.0
C762 C 0.20195 0.13782 0.79948 0.0
C763 C 0.10185 0.15222 0.81681 0.0
N764 N 0.22846 0.09813 0.79864 0.0
N765 N 0.12003 0.13375 0.81617 0.0
H766 H 0.55732 0.65782 0.82356 0.0
H767 H 0.77159 0.57362 0.78918 0.0
H768 H 0.70185 0.66498 0.79313 0.0
H769 H 0.64429 0.5668 0.82069 0.0
H770 H 0.74253 0.60696 0.79024 0.0
H771 H 0.58773 0.6245 0.82265 0.0
C772 C 0.59631 0.65236 0.81673 0.0
C773 C 0.62726 0.66413 0.80841 0.0
C774 C 0.72058 0.59821 0.79692 0.0
C775 C 0.66125 0.62596 0.80722 0.0
C776 C 0.73669 0.57915 0.79629 0.0
C777 C 0.71012 0.56747 0.80486 0.0
C778 C 0.67752 0.60567 0.8062 0.0
C779 C 0.66556 0.57535 0.8139 0.0
C780 C 0.61332 0.63333 0.81619 0.0
C781 C 0.67709 0.65637 0.79973 0.0
N782 N 0.65082 0.59399 0.81434 0.0
N783 N 0.69217 0.63774 0.79933 0.0
H784 H 1.03286 0.90685 0.5735 0.0
H785 H 0.8186 0.82246 0.53959 0.0
H786 H 0.88605 0.91387 0.54325 0.0
H787 H 0.9485 0.8159 0.57094 0.0
H788 H 0.84733 0.8558 0.54049 0.0
H789 H 1.00395 0.87352 0.57264 0.0
C790 C 0.99372 0.90136 0.56672 0.0
C791 C 0.96163 0.91309 0.55843 0.0
C792 C 0.86993 0.8471 0.54716 0.0
C793 C 0.9293 0.87491 0.55731 0.0
C794 C 0.85402 0.82805 0.54663 0.0
C795 C 0.88136 0.81645 0.55521 0.0
C796 C 0.91356 0.85463 0.55635 0.0
C797 C 0.92659 0.82438 0.56414 0.0
C798 C 0.97756 0.88232 0.56621 0.0
C799 C 0.91165 0.90528 0.54982 0.0
N800 N 0.94109 0.84301 0.5645 0.0
N801 N 0.89735 0.88665 0.54945 0.0
H802 H 0.32298 0.3229 0.53968 0.0
H803 H 0.53674 0.40754 0.57349 0.0
H804 H 0.45126 0.31647 0.57113 0.0
H805 H 0.40198 0.41386 0.54242 0.0
H806 H 0.50529 0.37424 0.57289 0.0
H807 H 0.35387 0.35616 0.54043 0.0
C808 C 0.35846 0.3285 0.54671 0.0
C809 C 0.38476 0.31696 0.55536 0.0
C810 C 0.48214 0.3829 0.56622 0.0
C811 C 0.41944 0.35506 0.55634 0.0
C812 C 0.49969 0.40191 0.56659 0.0
C813 C 0.47179 0.41341 0.55799 0.0
C814 C 0.43658 0.37532 0.55717 0.0
C815 C 0.42442 0.40545 0.54922 0.0
C816 C 0.37568 0.34751 0.54716 0.0
C817 C 0.43015 0.32491 0.56428 0.0
N818 N 0.40861 0.38687 0.54901 0.0
N819 N 0.44585 0.34351 0.56456 0.0
H820 H 1.0181 0.32503 0.69726 0.0
H821 H 0.80832 0.40876 0.6622 0.0
H822 H 0.89723 0.31772 0.66547 0.0
H823 H 0.94251 0.41596 0.69324 0.0
H824 H 0.83993 0.37544 0.66316 0.0
H825 H 0.98711 0.35828 0.69608 0.0
C826 C 0.98418 0.33043 0.69006 0.0
C827 C 0.96003 0.31865 0.68145 0.0
C828 C 0.86295 0.3843 0.66974 0.0
C829 C 0.92528 0.35674 0.67998 0.0
C830 C 0.84531 0.40332 0.66917 0.0
C831 C 0.87298 0.41508 0.67765 0.0
C832 C 0.90826 0.37698 0.67889 0.0
C833 C 0.92025 0.40735 0.68651 0.0
C834 C 0.96696 0.34943 0.68937 0.0
C835 C 0.91664 0.32636 0.6723 0.0
N836 N 0.93605 0.38877 0.68693 0.0
N837 N 0.90084 0.34495 0.67179 0.0
H838 H 0.42683 0.81981 0.66377 0.0
H839 H 0.36836 0.91267 0.69881 0.0
H840 H 0.47344 0.82261 0.6984 0.0
H841 H 0.39383 0.91302 0.66383 0.0
H842 H 0.39581 0.87922 0.6988 0.0
H843 H 0.39983 0.85346 0.66357 0.0
C844 C 0.43025 0.82749 0.67134 0.0
C845 C 0.45218 0.81849 0.68112 0.0
C846 C 0.39608 0.8866 0.69112 0.0
C847 C 0.42227 0.85682 0.68096 0.0
C848 C 0.38068 0.90569 0.69113 0.0
C849 C 0.37919 0.91557 0.68131 0.0
C850 C 0.40892 0.87724 0.68119 0.0
C851 C 0.39506 0.90588 0.67158 0.0
C852 C 0.41565 0.84668 0.67121 0.0
C853 C 0.4566 0.82904 0.69069 0.0
N854 N 0.40861 0.88718 0.67175 0.0
N855 N 0.44175 0.84764 0.69037 0.0
H856 H 0.06347 0.07237 0.41311 0.0
H857 H 0.27104 0.1571 0.4474 0.0
H858 H 0.19531 0.06612 0.44436 0.0
H859 H 0.1482 0.16361 0.41566 0.0
H860 H 0.24055 0.12385 0.44655 0.0
H861 H 0.09386 0.10572 0.41379 0.0
C862 C 0.09964 0.07802 0.42007 0.0
C863 C 0.12708 0.06651 0.42869 0.0
C864 C 0.21984 0.13251 0.43978 0.0
C865 C 0.16104 0.10467 0.4296 0.0
C866 C 0.23683 0.15152 0.44028 0.0
C867 C 0.21197 0.16309 0.43159 0.0
C868 C 0.17772 0.12496 0.43049 0.0
C869 C 0.16817 0.15514 0.42255 0.0
C870 C 0.11659 0.09707 0.42048 0.0
C871 C 0.17327 0.07452 0.43753 0.0
N872 N 0.15265 0.13654 0.42222 0.0
N873 N 0.18849 0.09312 0.43778 0.0
H874 H 0.79671 0.65643 0.41372 0.0
H875 H 0.56562 0.5729 0.44687 0.0
H876 H 0.6443 0.66402 0.4436 0.0
H877 H 0.70118 0.56587 0.41584 0.0
H878 H 0.59776 0.60613 0.44609 0.0
H879 H 0.76344 0.62325 0.4144 0.0
C880 C 0.75548 0.6511 0.42038 0.0
C881 C 0.72308 0.66294 0.42862 0.0
C882 C 0.62082 0.59735 0.43946 0.0
C883 C 0.68566 0.62493 0.42953 0.0
C884 C 0.60291 0.57836 0.43993 0.0
C885 C 0.63095 0.56666 0.43141 0.0
C886 C 0.6672 0.60472 0.4304 0.0
C887 C 0.67864 0.57444 0.42259 0.0
C888 C 0.73679 0.63215 0.42079 0.0
C889 C 0.67029 0.65534 0.43708 0.0
N890 N 0.69513 0.593 0.4223 0.0
N891 N 0.65354 0.63678 0.43734 0.0
H892 H 0.27813 0.57418 0.28926 0.0
H893 H 0.05563 0.65818 0.32309 0.0
H894 H 0.1455 0.56725 0.32046 0.0
H895 H 0.20573 0.66548 0.29304 0.0
H896 H 0.08657 0.62487 0.32222 0.0
H897 H 0.24774 0.60749 0.29022 0.0
C898 C 0.24179 0.57968 0.29628 0.0
C899 C 0.21413 0.56798 0.30479 0.0
C900 C 0.11324 0.63373 0.31584 0.0
C901 C 0.17997 0.60614 0.30601 0.0
C902 C 0.09591 0.65276 0.31635 0.0
C903 C 0.12833 0.66456 0.30812 0.0
C904 C 0.16299 0.62641 0.307 0.0
C905 C 0.1798 0.65684 0.29956 0.0
C906 C 0.22491 0.59871 0.29685 0.0
C907 C 0.16769 0.57581 0.31371 0.0
N908 N 0.19521 0.63822 0.29919 0.0
N909 N 0.15223 0.59443 0.3141 0.0
H910 H 0.79009 0.07431 0.32401 0.0
H911 H 0.57654 0.15855 0.28966 0.0
H912 H 0.65748 0.0676 0.29284 0.0
H913 H 0.69917 0.16531 0.3214 0.0
H914 H 0.60884 0.12532 0.29054 0.0
H915 H 0.75735 0.1076 0.32328 0.0
C916 C 0.75326 0.07985 0.31706 0.0
C917 C 0.72631 0.06823 0.30847 0.0
C918 C 0.62909 0.13404 0.2973 0.0
C919 C 0.68964 0.10632 0.30751 0.0
C920 C 0.61108 0.15303 0.29678 0.0
C921 C 0.63538 0.16466 0.30547 0.0
C922 C 0.67168 0.12657 0.30659 0.0
C923 C 0.67961 0.1568 0.31451 0.0
C924 C 0.73495 0.09886 0.31662 0.0
C925 C 0.67918 0.07609 0.29964 0.0
N926 N 0.69614 0.13821 0.31486 0.0
N927 N 0.66266 0.09467 0.29936 0.0
H928 H 0.10449 0.45689 0.09098 0.0
H929 H 0.1898 0.51655 0.14476 0.0
H930 H 0.15709 0.51581 0.09083 0.0
H931 H 0.23084 0.45722 0.14396 0.0
H932 H 0.16093 0.51619 0.12523 0.0
H933 H 0.13443 0.45641 0.11064 0.0
C934 C 0.12211 0.46972 0.09506 0.0
C935 C 0.12835 0.48642 0.08922 0.0
C936 C 0.17646 0.50324 0.12931 0.0
C937 C 0.16201 0.48595 0.11168 0.0
C938 C 0.19264 0.50341 0.14049 0.0
C939 C 0.21291 0.48688 0.14604 0.0
C940 C 0.17936 0.4864 0.12359 0.0
C941 C 0.21597 0.47031 0.14001 0.0
C942 C 0.13956 0.4694 0.10627 0.0
C943 C 0.15186 0.50259 0.09495 0.0
N944 N 0.19886 0.47047 0.12911 0.0
N945 N 0.16731 0.50196 0.10585 0.0
H946 H 0.0714 0.73176 0.08893 0.0
H947 H 0.27267 0.73321 0.14821 0.0
H948 H 0.34733 0.75206 0.09461 0.0
H949 H 0.99413 0.75214 0.14233 0.0
H950 H 0.30241 0.73399 0.12854 0.0
H951 H 1.04168 0.733 0.10861 0.0
C952 C 0.12581 0.73637 0.09434 0.0
C953 C 0.212 0.74179 0.0902 0.0
C954 C 0.23499 0.73802 0.13159 0.0
C955 C 0.17888 0.74295 0.11258 0.0
C956 C 0.21779 0.73748 0.14276 0.0
C957 C 0.1308 0.74261 0.14685 0.0
C958 C 0.16387 0.74317 0.12446 0.0
C959 C 0.06219 0.74817 0.13948 0.0
C960 C 0.10855 0.7372 0.10551 0.0
C961 C 0.27991 0.74783 0.09751 0.0
N962 N 0.07975 0.74806 0.12859 0.0
N963 N 0.26235 0.74802 0.1084 0.0
H964 H 0.8587 0.52368 0.8411 0.0
H965 H 0.94591 0.46346 0.89463 0.0
H966 H 0.90345 0.46445 0.84057 0.0
H967 H 0.99765 0.52236 0.89342 0.0
H968 H 0.91337 0.46382 0.87512 0.0
H969 H 0.89239 0.52375 0.86067 0.0
C970 C 0.87527 0.5107 0.84509 0.0
C971 C 0.87843 0.49404 0.83918 0.0
C972 C 0.93217 0.47666 0.87912 0.0
C973 C 0.91642 0.49403 0.86152 0.0
C974 C 0.95053 0.47647 0.89026 0.0
C975 C 0.97478 0.4929 0.89567 0.0
C976 C 0.93671 0.49343 0.87334 0.0
C977 C 0.97982 0.50935 0.88957 0.0
C978 C 0.89491 0.51077 0.85623 0.0
C979 C 0.90071 0.47764 0.84477 0.0
N980 N 0.96038 0.50922 0.87874 0.0
N981 N 0.91838 0.47805 0.85562 0.0
H982 H 0.95219 0.27113 0.84135 0.0
H983 H 0.84963 0.21177 0.89476 0.0
H984 H 0.99761 0.21199 0.84283 0.0
H985 H 0.89924 0.27078 0.89538 0.0
H986 H 0.88624 0.21151 0.87527 0.0
H987 H 0.91718 0.27118 0.8608 0.0
C988 C 0.95517 0.25815 0.84577 0.0
C989 C 0.978 0.24152 0.84045 0.0
C990 C 0.889 0.22449 0.87969 0.0
C991 C 0.93676 0.24148 0.86271 0.0
C992 C 0.86745 0.22469 0.89079 0.0
C993 C 0.87135 0.24133 0.89671 0.0
C994 C 0.91337 0.24109 0.87446 0.0
C995 C 0.89564 0.25762 0.89116 0.0
C996 C 0.93527 0.25821 0.85688 0.0
C997 C 0.98095 0.22514 0.84662 0.0
N998 N 0.91538 0.2571 0.88034 0.0
N999 N 0.95982 0.2255 0.85742 0.0
H1000 H 0.08437 0.95956 0.5928 0.0
H1001 H 0.18454 0.01976 0.64601 0.0
H1002 H 0.12959 0.01872 0.59212 0.0
H1003 H 0.2274 0.9605 0.64489 0.0
H1004 H 0.14811 0.01945 0.62664 0.0
H1005 H 0.11936 0.95952 0.6123 0.0
C1006 C 0.10093 0.97257 0.59676 0.0
C1007 C 0.10397 0.98919 0.5908 0.0
C1008 C 0.16572 0.00652 0.63061 0.0
C1009 C 0.14412 0.98918 0.6131 0.0
C1010 C 0.18632 0.00665 0.6417 0.0
C1011 C 0.20913 0.99011 0.64711 0.0
C1012 C 0.16671 0.98969 0.62487 0.0
C1013 C 0.21066 0.97359 0.64105 0.0
C1014 C 0.12149 0.97249 0.60787 0.0
C1015 C 0.12662 0.00557 0.59636 0.0
N1016 N 0.18917 0.97378 0.63026 0.0
N1017 N 0.1455 0.00516 0.60719 0.0
H1018 H 0.20516 0.21442 0.5922 0.0
H1019 H 0.10891 0.27547 0.64522 0.0
H1020 H 0.24078 0.27385 0.59228 0.0
H1021 H 0.16604 0.21666 0.6459 0.0
H1022 H 0.14183 0.27556 0.62559 0.0
H1023 H 0.17499 0.21539 0.61169 0.0
C1024 C 0.2066 0.22771 0.59631 0.0
C1025 C 0.22558 0.24409 0.59058 0.0
C1026 C 0.14732 0.26269 0.63008 0.0
C1027 C 0.19052 0.24528 0.61298 0.0
C1028 C 0.12817 0.26259 0.64126 0.0
C1029 C 0.13475 0.24603 0.64723 0.0
C1030 C 0.17183 0.24606 0.62485 0.0
C1031 C 0.16041 0.22978 0.64168 0.0
C1032 C 0.18967 0.22823 0.60747 0.0
C1033 C 0.22692 0.26088 0.59639 0.0
N1034 N 0.17749 0.2302 0.63082 0.0
N1035 N 0.20905 0.26107 0.60729 0.0
H1036 H 0.9541 0.96016 0.39557 0.0
H1037 H 0.85344 0.02094 0.34259 0.0
H1038 H 0.99634 0.01939 0.39468 0.0
H1039 H 0.90377 0.96191 0.34158 0.0
H1040 H 0.88754 0.02072 0.36213 0.0
H1041 H 0.91931 0.96065 0.37613 0.0
C1042 C 0.95639 0.97328 0.39128 0.0
C1043 C 0.97838 0.98976 0.39677 0.0
C1044 C 0.89095 0.00784 0.35761 0.0
C1045 C 0.93744 0.99043 0.37451 0.0
C1046 C 0.87084 0.00791 0.34648 0.0
C1047 C 0.87582 -0.00859 0.34043 0.0
C1048 C 0.91495 -0.00889 0.36274 0.0
C1049 C 0.89946 0.97498 0.3459 0.0
C1050 C 0.9366 0.97353 0.38018 0.0
C1051 C 0.98038 0.00633 0.39077 0.0
N1052 N 0.91785 0.97524 0.35674 0.0
N1053 N 0.9595 0.00627 0.37996 0.0
H1054 H 0.9458 0.76996 0.3413 0.0
H1055 H 0.85382 0.70935 0.39448 0.0
H1056 H 0.99539 0.71092 0.34242 0.0
H1057 H 0.90451 0.7683 0.39562 0.0
H1058 H 0.88679 0.70968 0.37492 0.0
H1059 H 0.91282 0.76961 0.36083 0.0
C1060 C 0.94985 0.75692 0.34565 0.0
C1061 C 0.97356 0.74045 0.34022 0.0
C1062 C 0.89067 0.72252 0.37947 0.0
C1063 C 0.93493 0.73995 0.36254 0.0
C1064 C 0.87132 0.72238 0.39061 0.0
C1065 C 0.87646 0.73883 0.3967 0.0
C1066 C 0.914 0.73927 0.37435 0.0
C1067 C 0.9001 0.75528 0.39127 0.0
C1068 C 0.93124 0.75676 0.3568 0.0
C1069 C 0.97795 0.72397 0.34629 0.0
N1070 N 0.91758 0.7551 0.38039 0.0
N1071 N 0.9582 0.72412 0.35712 0.0
H1072 H 0.59668 0.46093 0.5918 0.0
H1073 H 0.69081 0.52163 0.64493 0.0
H1074 H 0.64653 0.51991 0.59068 0.0
H1075 H 0.74222 0.46265 0.6437 0.0
H1076 H 0.65649 0.52123 0.62545 0.0
H1077 H 0.63003 0.46128 0.61135 0.0
C1078 C 0.61383 0.47397 0.59567 0.0
C1079 C 0.61891 0.49042 0.58959 0.0
C1080 C 0.67569 0.5084 0.62944 0.0
C1081 C 0.65707 0.49088 0.61192 0.0
C1082 C 0.69518 0.5086 0.64056 0.0
C1083 C 0.71968 0.49215 0.64595 0.0
C1084 C 0.67921 0.49158 0.62369 0.0
C1085 C 0.7243 0.47568 0.63986 0.0
C1086 C 0.6335 0.47413 0.60681 0.0
C1087 C 0.64219 0.50689 0.59503 0.0
N1088 N 0.70357 0.47579 0.62906 0.0
N1089 N 0.66008 0.50671 0.60589 0.0
H1090 H 0.69021 0.7144 0.59173 0.0
H1091 H 0.60005 0.77518 0.645 0.0
H1092 H 0.73378 0.77362 0.59206 0.0
H1093 H 0.65392 0.71626 0.6455 0.0
H1094 H 0.63234 0.77536 0.62535 0.0
H1095 H 0.65939 0.71532 0.61121 0.0
C1096 C 0.69314 0.72764 0.59589 0.0
C1097 C 0.71469 0.74397 0.59022 0.0
C1098 C 0.63723 0.76244 0.62981 0.0
C1099 C 0.67896 0.74509 0.61263 0.0
C1100 C 0.61844 0.7623 0.641 0.0
C1101 C 0.62431 0.74568 0.64692 0.0
C1102 C 0.66058 0.74581 0.62451 0.0
C1103 C 0.64888 0.72942 0.64131 0.0
C1104 C 0.67587 0.72813 0.60704 0.0
C1105 C 0.71789 0.76068 0.59611 0.0
N1106 N 0.66556 0.72989 0.63044 0.0
N1107 N 0.69969 0.76084 0.607 0.0
H1108 H 0.40368 0.46485 0.34078 0.0
H1109 H 0.48527 0.52422 0.39472 0.0
H1110 H 0.35808 0.52405 0.34163 0.0
H1111 H 0.43547 0.4652 0.3946 0.0
H1112 H 0.45462 0.52491 0.37506 0.0
H1113 H 0.43208 0.46522 0.3603 0.0
C1114 C 0.39977 0.47797 0.34506 0.0
C1115 C 0.37841 0.49446 0.33953 0.0
C1116 C 0.45022 0.51185 0.37938 0.0
C1117 C 0.41136 0.49494 0.36199 0.0
C1118 C 0.46808 0.51142 0.39058 0.0
C1119 C 0.46294 0.49462 0.39634 0.0
C1120 C 0.42851 0.49533 0.3739 0.0
C1121 C 0.43992 0.47849 0.39055 0.0
C1122 C 0.41567 0.47814 0.35624 0.0
C1123 C 0.3739 0.511 0.34557 0.0
N1124 N 0.42412 0.47924 0.37966 0.0
N1125 N 0.39078 0.51084 0.35649 0.0
H1126 H 0.39779 0.26671 0.39578 0.0
H1127 H 0.4868 0.20729 0.34195 0.0
H1128 H 0.35663 0.20744 0.39489 0.0
H1129 H 0.43405 0.26627 0.34193 0.0
H1130 H 0.45507 0.20668 0.36159 0.0
H1131 H 0.42747 0.2664 0.37626 0.0
C1132 C 0.39507 0.2536 0.39148 0.0
C1133 C 0.37462 0.23706 0.397 0.0
C1134 C 0.45029 0.21971 0.35724 0.0
C1135 C 0.40911 0.23664 0.37457 0.0
C1136 C 0.46878 0.2201 0.34606 0.0
C1137 C 0.46305 0.23686 0.34027 0.0
C1138 C 0.4273 0.23624 0.36268 0.0
C1139 C 0.43895 0.25301 0.34602 0.0
C1140 C 0.41171 0.25346 0.38031 0.0
C1141 C 0.37166 0.22052 0.39096 0.0
N1142 N 0.42249 0.2523 0.35689 0.0
N1143 N 0.38927 0.2207 0.38006 0.0
H1144 H 0.68357 0.01617 0.14597 0.0
H1145 H 0.60045 0.95634 0.09222 0.0
H1146 H 0.73458 0.95715 0.14507 0.0
H1147 H 0.64161 0.01564 0.09234 0.0
H1148 H 0.63256 0.95578 0.11185 0.0
H1149 H 0.65063 0.0156 0.12657 0.0
C1150 C 0.68772 0.00304 0.14171 0.0
C1151 C 0.71199 0.98666 0.14719 0.0
C1152 C 0.63461 0.96887 0.10754 0.0
C1153 C 0.67387 0.98595 0.12486 0.0
C1154 C 0.61585 0.96923 0.09636 0.0
C1155 C 0.61843 0.98607 0.09061 0.0
C1156 C 0.65469 0.98549 0.113 0.0
C1157 C 0.63926 0.00232 0.0964 0.0
C1158 C 0.66919 0.00276 0.13059 0.0
C1159 C 0.7166 0.97011 0.14117 0.0
N1160 N 0.65614 0.00162 0.10725 0.0
N1161 N 0.69725 0.97015 0.13031 0.0
H1162 H 0.76699 0.26998 0.09292 0.0
H1163 H 0.64896 0.21005 0.14571 0.0
H1164 H 0.71878 0.21093 0.09187 0.0
H1165 H 0.60967 0.26937 0.14431 0.0
H1166 H 0.68867 0.21008 0.12637 0.0
H1167 H 0.72606 0.26996 0.11226 0.0
C1168 C 0.74861 0.25698 0.09677 0.0
C1169 C 0.74632 0.24042 0.09075 0.0
C1170 C 0.6708 0.22307 0.13028 0.0
C1171 C 0.69912 0.24036 0.11286 0.0
C1172 C 0.64812 0.22308 0.14133 0.0
C1173 C 0.6257 0.23974 0.14664 0.0
C1174 C 0.67246 0.23987 0.12452 0.0
C1175 C 0.6258 0.25619 0.14053 0.0
C1176 C 0.72457 0.25702 0.10779 0.0
C1177 C 0.72124 0.22404 0.09616 0.0
N1178 N 0.64955 0.25586 0.12981 0.0
N1179 N 0.69888 0.22441 0.10691 0.0
H1180 H 0.36298 0.02325 0.84196 0.0
H1181 H 0.44204 0.96403 0.89607 0.0
H1182 H 0.40143 0.96383 0.84206 0.0
H1183 H 0.48813 0.02313 0.89472 0.0
H1184 H 0.412 0.964 0.87654 0.0
H1185 H 0.39332 0.02374 0.86157 0.0
C1186 C 0.37737 0.0103 0.84609 0.0
C1187 C 0.37964 -0.00654 0.84033 0.0
C1188 C 0.42891 0.97698 0.8805 0.0
C1189 C 0.41418 -0.00603 0.86277 0.0
C1190 C 0.44581 0.97703 0.89168 0.0
C1191 C 0.46771 -0.00638 0.89707 0.0
C1192 C 0.43276 -0.00634 0.87465 0.0
C1193 C 0.47194 0.01 0.8909 0.0
C1194 C 0.39515 0.01062 0.85728 0.0
C1195 C 0.39924 0.97715 0.84613 0.0
N1196 N 0.45412 0.00963 0.88002 0.0
N1197 N 0.41535 0.97781 0.85702 0.0
H1198 H 0.44324 0.76952 0.84153 0.0
H1199 H 0.35823 0.70941 0.89513 0.0
H1200 H 0.49772 0.71066 0.84281 0.0
H1201 H 0.4008 0.76865 0.89567 0.0
H1202 H 0.39247 0.70935 0.87556 0.0
H1203 H 0.41117 0.76923 0.86107 0.0
C1204 C 0.44858 0.75653 0.84591 0.0
C1205 C 0.47341 0.74009 0.84052 0.0
C1206 C 0.39442 0.72233 0.88 0.0
C1207 C 0.43584 0.73966 0.86288 0.0
C1208 C 0.37445 0.72239 0.89114 0.0
C1209 C 0.37676 0.73905 0.89706 0.0
C1210 C 0.41543 0.73907 0.87471 0.0
C1211 C 0.39866 0.75545 0.89147 0.0
C1212 C 0.43048 0.7564 0.85708 0.0
C1213 C 0.4794 0.72368 0.84664 0.0
N1214 N 0.41665 0.75506 0.88061 0.0
N1215 N 0.46015 0.72385 0.85749 0.0
H1216 H 0.14437 0.66229 0.07356 0.0
H1217 H 0.19772 0.56858 0.03885 0.0
H1218 H 0.16859 0.66148 0.03857 0.0
H1219 H 0.15384 0.56997 0.07358 0.0
H1220 H 0.19419 0.6026 0.03856 0.0
H1221 H 0.14866 0.62841 0.07368 0.0
C1222 C 0.14923 0.65494 0.06589 0.0
C1223 C 0.15587 0.66466 0.05604 0.0
C1224 C 0.18598 0.59546 0.04626 0.0
C1225 C 0.16281 0.62587 0.05611 0.0
C1226 C 0.18886 0.57607 0.04643 0.0
C1227 C 0.1762 0.5665 0.05626 0.0
C1228 C 0.17037 0.6053 0.05598 0.0
C1229 C 0.16403 0.57683 0.06583 0.0
C1230 C 0.15235 0.63559 0.06596 0.0
C1231 C 0.16279 0.65448 0.04633 0.0
N1232 N 0.16105 0.59565 0.06545 0.0
N1233 N 0.16666 0.63563 0.04661 0.0
H1234 H 0.18336 0.66163 0.16227 0.0
H1235 H 0.14895 0.56811 0.19736 0.0
H1236 H 0.18123 0.66095 0.19738 0.0
H1237 H 0.1754 0.56927 0.16239 0.0
H1238 H 0.15325 0.60212 0.1976 0.0
H1239 H 0.17902 0.62775 0.1622 0.0
C1240 C 0.18334 0.65431 0.16998 0.0
C1241 C 0.18292 0.66407 0.17985 0.0
C1242 C 0.1575 0.59494 0.18987 0.0
C1243 C 0.17593 0.62528 0.17985 0.0
C1244 C 0.15417 0.57555 0.18973 0.0
C1245 C 0.16166 0.56591 0.17984 0.0
C1246 C 0.16829 0.60471 0.18004 0.0
C1247 C 0.16923 0.57618 0.17019 0.0
C1248 C 0.18021 0.63496 0.16994 0.0
C1249 C 0.18216 0.65392 0.18959 0.0
N1250 N 0.17269 0.595 0.17053 0.0
N1251 N 0.17806 0.63506 0.18935 0.0
H1252 H 0.86744 0.3226 0.94807 0.0
H1253 H 1.03484 0.41131 0.91429 0.0
H1254 H 0.99994 0.31868 0.91667 0.0
H1255 H 0.85927 0.41473 0.94262 0.0
H1256 H 1.03034 0.37745 0.91545 0.0
H1257 H 0.87521 0.3564 0.94693 0.0
C1258 C 0.89928 0.32887 0.94099 0.0
C1259 C 0.93318 0.31786 0.93245 0.0
C1260 C 0.99233 0.38558 0.92138 0.0
C1261 C 0.94128 0.35656 0.93102 0.0
C1262 C 0.9946 0.40489 0.9207 0.0
C1263 C 0.94712 0.41578 0.92836 0.0
C1264 C 0.94291 0.37707 0.92986 0.0
C1265 C 0.89644 0.40681 0.93653 0.0
C1266 C 0.90304 0.34818 0.94031 0.0
C1267 C 0.97326 0.3267 0.92344 0.0
N1268 N 0.89608 0.38796 0.9371 0.0
N1269 N 0.976 0.34555 0.92295 0.0
H1270 H 0.96587 0.41323 0.7891 0.0
H1271 H 0.86665 0.31829 0.82109 0.0
H1272 H 0.88556 0.41054 0.82289 0.0
H1273 H 0.95853 0.32032 0.78769 0.0
H1274 H 0.86816 0.35222 0.82167 0.0
H1275 H 0.96464 0.37923 0.78834 0.0
C1276 C 0.9494 0.40546 0.79639 0.0
C1277 C 0.92592 0.41465 0.80607 0.0
C1278 C 0.88742 0.34527 0.81419 0.0
C1279 C 0.92247 0.37588 0.80523 0.0
C1280 C 0.88578 0.32591 0.81383 0.0
C1281 C 0.91234 0.31654 0.80433 0.0
C1282 C 0.91602 0.35531 0.80497 0.0
C1283 C 0.93731 0.32705 0.79518 0.0
C1284 C 0.94794 0.38608 0.79594 0.0
C1285 C 0.90425 0.40397 0.81527 0.0
N1286 N 0.93897 0.34588 0.79574 0.0
N1287 N 0.90255 0.38517 0.81461 0.0
H1288 H 0.98173 0.07186 0.55853 0.0
H1289 H 0.30027 0.15832 0.56864 0.0
H1290 H 0.2785 0.06662 0.5572 0.0
H1291 H 0.05315 0.16396 0.54931 0.0
H1292 H 0.28389 0.12459 0.56797 0.0
H1293 H 0.99738 0.10571 0.55843 0.0
C1294 C 0.05024 0.07787 0.55826 0.0
C1295 C 0.12913 0.06652 0.5579 0.0
C1296 C 0.23328 0.13322 0.56389 0.0
C1297 C 0.14713 0.10505 0.55795 0.0
C1298 C 0.24196 0.15244 0.56434 0.0
C1299 C 0.17767 0.16389 0.55904 0.0
C1300 C 0.15848 0.1254 0.55834 0.0
C1301 C 0.10399 0.15557 0.5535 0.0
C1302 C 0.0589 0.09712 0.55813 0.0
C1303 C 0.21616 0.07494 0.55748 0.0
N1304 N 0.09576 0.13675 0.55338 0.0
N1305 N 0.22299 0.09377 0.55766 0.0
H1306 H 0.20663 0.16456 0.69759 0.0
H1307 H 0.14317 0.07021 0.66383 0.0
H1308 H 0.15485 0.1625 0.66304 0.0
H1309 H 0.18351 0.07176 0.6986 0.0
H1310 H 0.1468 0.10409 0.66343 0.0
H1311 H 0.20415 0.13057 0.69812 0.0
C1312 C 0.19627 0.15693 0.6901 0.0
C1313 C 0.18103 0.16629 0.68026 0.0
C1314 C 0.1542 0.09706 0.67117 0.0
C1315 C 0.1763 0.12753 0.68082 0.0
C1316 C 0.15141 0.07772 0.6714 0.0
C1317 C 0.16285 0.06822 0.68126 0.0
C1318 C 0.16901 0.10698 0.68087 0.0
C1319 C 0.17404 0.0786 0.69083 0.0
C1320 C 0.194 0.13755 0.69041 0.0
C1321 C 0.16702 0.15579 0.6708 0.0
N1322 N 0.17739 0.09743 0.6904 0.0
N1323 N 0.16457 0.13698 0.67132 0.0
H1324 H 0.99824 0.81643 0.44346 0.0
H1325 H 0.84305 0.9133 0.41704 0.0
H1326 H 0.81542 0.82051 0.41586 0.0
H1327 H 0.98523 0.9087 0.44776 0.0
H1328 H 0.83593 0.87936 0.41603 0.0
H1329 H 1.00234 0.85037 0.44449 0.0
C1330 C 0.95981 0.8245 0.43755 0.0
C1331 C 0.90651 0.81572 0.42956 0.0
C1332 C 0.86804 0.88578 0.42303 0.0
C1333 C 0.90994 0.85446 0.43074 0.0
C1334 C 0.87161 0.90513 0.42364 0.0
C1335 C 0.9146 0.91376 0.4325 0.0
C1336 C 0.9085 0.87504 0.43132 0.0
C1337 C 0.95124 0.90258 0.44079 0.0
C1338 C 0.96155 0.84385 0.43819 0.0
C1339 C 0.85744 0.82677 0.42215 0.0
N1340 N 0.94792 0.8838 0.43997 0.0
N1341 N 0.86026 0.84557 0.42291 0.0
H1342 H 1.0323 0.8215 0.32231 0.0
H1343 H 0.88108 0.91135 0.28845 0.0
H1344 H 0.86356 0.81922 0.29343 0.0
H1345 H 1.0056 0.91423 0.32029 0.0
H1346 H 0.8857 0.87751 0.28944 0.0
H1347 H 1.03066 0.85537 0.32131 0.0
C1348 C 0.9941 0.82817 0.31582 0.0
C1349 C 0.94778 0.8176 0.30795 0.0
C1350 C 0.9125 0.88551 0.2962 0.0
C1351 C 0.94694 0.85632 0.30664 0.0
C1352 C 0.91059 0.90483 0.2956 0.0
C1353 C 0.9431 0.91557 0.30431 0.0
C1354 C 0.94748 0.87684 0.30556 0.0
C1355 C 0.9801 0.90643 0.31339 0.0
C1356 C 0.99349 0.8475 0.31523 0.0
C1357 C 0.89974 0.8269 0.29969 0.0
N1358 N 0.98106 0.88757 0.3138 0.0
N1359 N 0.90102 0.84575 0.2992 0.0
H1360 H 0.64502 0.56967 0.53696 0.0
H1361 H 0.70147 0.65997 0.57439 0.0
H1362 H 0.7203 0.56782 0.5709 0.0
H1363 H 0.63395 0.66234 0.54023 0.0
H1364 H 0.70391 0.62614 0.57335 0.0
H1365 H 0.64179 0.60358 0.53788 0.0
C1366 C 0.66223 0.57644 0.54457 0.0
C1367 C 0.68314 0.56598 0.55387 0.0
C1368 C 0.68792 0.63402 0.56609 0.0
C1369 C 0.67782 0.60471 0.55505 0.0
C1370 C 0.6858 0.65333 0.5667 0.0
C1371 C 0.66736 0.66393 0.55738 0.0
C1372 C 0.67173 0.62521 0.55607 0.0
C1373 C 0.64808 0.65465 0.54761 0.0
C1374 C 0.65968 0.59578 0.54511 0.0
C1375 C 0.70421 0.57539 0.56354 0.0
N1376 N 0.65126 0.6358 0.54719 0.0
N1377 N 0.70051 0.59423 0.56389 0.0
H1378 H 0.69202 0.57089 0.69911 0.0
H1379 H 0.63694 0.66215 0.66245 0.0
H1380 H 0.62239 0.56992 0.66499 0.0
H1381 H 0.6988 0.66372 0.69678 0.0
H1382 H 0.63589 0.6283 0.66317 0.0
H1383 H 0.69363 0.60483 0.69855 0.0
C1384 C 0.67573 0.57785 0.69154 0.0
C1385 C 0.65685 0.56763 0.68208 0.0
C1386 C 0.6503 0.636 0.67054 0.0
C1387 C 0.66029 0.60641 0.68131 0.0
C1388 C 0.6516 0.65533 0.67012 0.0
C1389 C 0.66811 0.66571 0.67957 0.0
C1390 C 0.66536 0.62695 0.68051 0.0
C1391 C 0.68617 0.6562 0.6893 0.0
C1392 C 0.67733 0.59721 0.6912 0.0
C1393 C 0.6369 0.5773 0.67247 0.0
N1394 N 0.68385 0.63734 0.68953 0.0
N1395 N 0.63964 0.59615 0.67232 0.0
H1396 H 0.43406 0.41064 0.41154 0.0
H1397 H 0.42785 0.31866 0.44818 0.0
H1398 H 0.40267 0.4115 0.44645 0.0
H1399 H 0.42907 0.31821 0.41307 0.0
H1400 H 0.42675 0.35266 0.44784 0.0
H1401 H 0.43486 0.37675 0.41198 0.0
C1402 C 0.42603 0.40366 0.41929 0.0
C1403 C 0.41802 0.41385 0.42897 0.0
C1404 C 0.42783 0.34513 0.44021 0.0
C1405 C 0.42081 0.37505 0.42959 0.0
C1406 C 0.42931 0.32574 0.4404 0.0
C1407 C 0.42875 0.31566 0.43063 0.0
C1408 C 0.42592 0.35447 0.43016 0.0
C1409 C 0.42975 0.32548 0.42078 0.0
C1410 C 0.42707 0.38431 0.41955 0.0
C1411 C 0.40846 0.40413 0.4388 0.0
N1412 N 0.428 0.34433 0.4208 0.0
N1413 N 0.41075 0.38526 0.43887 0.0
H1414 H 0.42051 0.32 0.32489 0.0
H1415 H 0.44221 0.4126 0.28887 0.0
H1416 H 0.41053 0.31984 0.2898 0.0
H1417 H 0.42065 0.41243 0.32389 0.0
H1418 H 0.43947 0.37859 0.28899 0.0
H1419 H 0.42341 0.35389 0.32467 0.0
C1420 C 0.41756 0.32714 0.31714 0.0
C1421 C 0.41499 0.31715 0.30736 0.0
C1422 C 0.43595 0.38599 0.29665 0.0
C1423 C 0.42034 0.35593 0.307 0.0
C1424 C 0.43841 0.40538 0.29659 0.0
C1425 C 0.43182 0.41529 0.30639 0.0
C1426 C 0.42701 0.37649 0.30659 0.0
C1427 C 0.42607 0.4053 0.31616 0.0
C1428 C 0.41984 0.34649 0.31701 0.0
C1429 C 0.41197 0.32706 0.29753 0.0
N1430 N 0.42349 0.38647 0.31601 0.0
N1431 N 0.41538 0.34592 0.2976 0.0
H1432 H 0.79544 0.06525 0.04926 0.0
H1433 H 0.56718 0.16463 0.05666 0.0
H1434 H 0.5448 0.07285 0.06781 0.0
H1435 H 0.8628 0.15749 0.05844 0.0
H1436 H 0.5496 0.13065 0.05689 0.0
H1437 H 0.81501 0.09922 0.04881 0.0
C1438 C 0.74491 0.07406 0.05324 0.0
C1439 C 0.6689 0.06633 0.05865 0.0
C1440 C 0.61818 0.13661 0.05722 0.0
C1441 C 0.68906 0.10482 0.05788 0.0
C1442 C 0.62814 0.1559 0.05706 0.0
C1443 C 0.7164 0.16376 0.05761 0.0
C1444 C 0.69718 0.12524 0.05761 0.0
C1445 C 0.79347 0.15191 0.0581 0.0
C1446 C 0.75599 0.09334 0.05298 0.0
C1447 C 0.60488 0.07829 0.06365 0.0
N1448 N 0.7822 0.13321 0.058 0.0
N1449 N 0.61582 0.09695 0.06304 0.0
H1450 H 0.7419 0.16328 0.16653 0.0
H1451 H 0.62423 0.0677 0.19698 0.0
H1452 H 0.6314 0.1604 0.19911 0.0
H1453 H 0.71432 0.07096 0.16355 0.0
H1454 H 0.62744 0.10165 0.19804 0.0
H1455 H 0.73925 0.12932 0.16557 0.0
C1456 C 0.71853 0.15547 0.17354 0.0
C1457 C 0.68697 0.1646 0.18291 0.0
C1458 C 0.64584 0.09495 0.19044 0.0
C1459 C 0.68206 0.12585 0.18184 0.0
C1460 C 0.64327 0.07559 0.18982 0.0
C1461 C 0.66885 0.06656 0.18016 0.0
C1462 C 0.67464 0.10531 0.18135 0.0
C1463 C 0.69388 0.07741 0.17115 0.0
C1464 C 0.71618 0.13611 0.17297 0.0
C1465 C 0.65646 0.15387 0.19173 0.0
N1466 N 0.69666 0.09619 0.17198 0.0
N1467 N 0.65442 0.13507 0.19097 0.0
H1468 H 0.40934 0.8211 0.91297 0.0
H1469 H 0.42023 0.91348 0.94932 0.0
H1470 H 0.43656 0.82048 0.94793 0.0
H1471 H 0.4045 0.91337 0.91426 0.0
H1472 H 0.4216 0.87948 0.94913 0.0
H1473 H 0.40854 0.85496 0.91335 0.0
C1474 C 0.41647 0.82813 0.92072 0.0
C1475 C 0.42323 0.81802 0.93043 0.0
C1476 C 0.41722 0.88689 0.94149 0.0
C1477 C 0.42053 0.85681 0.93097 0.0
C1478 C 0.41564 0.90628 0.9416 0.0
C1479 C 0.41205 0.9162 0.93179 0.0
C1480 C 0.41527 0.87739 0.93149 0.0
C1481 C 0.40708 0.90623 0.922 0.0
C1482 C 0.41537 0.84747 0.92095 0.0
C1483 C 0.4317 0.8278 0.94025 0.0
N1484 N 0.40921 0.88739 0.9221 0.0
N1485 N 0.42955 0.84667 0.94029 0.0
H1486 H 0.52985 0.8208 0.82249 0.0
H1487 H 0.38191 0.91092 0.78867 0.0
H1488 H 0.36169 0.81874 0.79356 0.0
H1489 H 0.49877 0.91362 0.82091 0.0
H1490 H 0.38703 0.87706 0.78958 0.0
H1491 H 0.52814 0.85469 0.82158 0.0
C1492 C 0.49179 0.82752 0.816 0.0
C1493 C 0.44558 0.817 0.8081 0.0
C1494 C 0.41203 0.88503 0.79644 0.0
C1495 C 0.4447 0.85576 0.80689 0.0
C1496 C 0.40986 0.90436 0.79589 0.0
C1497 C 0.44005 0.91505 0.80473 0.0
C1498 C 0.44504 0.8763 0.80588 0.0
C1499 C 0.47507 0.90586 0.81391 0.0
C1500 C 0.49111 0.84686 0.81546 0.0
C1501 C 0.39775 0.82637 0.79984 0.0
N1502 N 0.47642 0.88699 0.81426 0.0
N1503 N 0.39901 0.84523 0.79941 0.0
H1504 H 0.77751 0.52791 0.05809 0.0
H1505 H 0.38136 0.45118 0.05332 0.0
H1506 H 0.83422 0.46943 0.05494 0.0
H1507 H 0.32451 0.50977 0.05571 0.0
H1508 H 0.54657 0.4576 0.05401 0.0
H1509 H 0.61224 0.52151 0.05742 0.0
C1510 C 0.75501 0.51366 0.05728 0.0
C1511 C 0.81966 0.49915 0.05659 0.0
C1512 C 0.49834 0.46909 0.05438 0.0
C1513 C 0.62973 0.49171 0.05579 0.0
C1514 C 0.40383 0.46546 0.05397 0.0
C1515 C 0.33918 0.47999 0.05445 0.0
C1516 C 0.52906 0.48745 0.05528 0.0
C1517 C 0.37214 0.49818 0.0553 0.0
C1518 C 0.66047 0.51004 0.05689 0.0
C1519 C 0.78665 0.48099 0.05554 0.0
N1520 N 0.46496 0.5014 0.0557 0.0
N1521 N 0.69383 0.47778 0.05517 0.0
H1522 H 0.55476 0.70305 0.05755 0.0
H1523 H 0.9504 0.78031 0.05457 0.0
H1524 H 0.49754 0.76174 0.05767 0.0
H1525 H 1.00773 0.72166 0.05604 0.0
H1526 H 0.78505 0.77378 0.05529 0.0
H1527 H 0.71993 0.7096 0.05676 0.0
C1528 C 0.57709 0.71737 0.05742 0.0
C1529 C 0.51224 0.7319 0.05765 0.0
C1530 C 0.83345 0.7623 0.05544 0.0
C1531 C 0.7022 0.73952 0.05671 0.0
C1532 C 0.92802 0.766 0.055 0.0
C1533 C 0.99287 0.75148 0.05523 0.0
C1534 C 0.80289 0.74389 0.05611 0.0
C1535 C 0.95999 0.73325 0.05582 0.0
C1536 C 0.67161 0.72109 0.05696 0.0
C1537 C 0.54517 0.75015 0.05748 0.0
N1538 N 0.86721 0.72997 0.05625 0.0
N1539 N 0.63793 0.75345 0.057 0.0
H1540 H 0.78456 0.70278 0.17833 0.0
H1541 H 0.38659 0.77965 0.18366 0.0
H1542 H 0.84022 0.76142 0.17984 0.0
H1543 H 0.33127 0.72118 0.18052 0.0
H1544 H 0.55216 0.77323 0.18272 0.0
H1545 H 0.61929 0.70926 0.17939 0.0
C1546 C 0.76185 0.71708 0.17887 0.0
C1547 C 0.8263 0.7316 0.17901 0.0
C1548 C 0.50415 0.76176 0.18226 0.0
C1549 C 0.63616 0.73914 0.18028 0.0
C1550 C 0.40945 0.7654 0.18282 0.0
C1551 C 0.34508 0.7509 0.18219 0.0
C1552 C 0.53534 0.74344 0.18104 0.0
C1553 C 0.3786 0.73274 0.18108 0.0
C1554 C 0.66727 0.72076 0.17948 0.0
C1555 C 0.79289 0.74983 0.17971 0.0
N1556 N 0.47149 0.72953 0.18053 0.0
N1557 N 0.70003 0.75309 0.18034 0.0
H1558 H 1.01599 0.50968 0.17962 0.0
H1559 H 0.5003 0.46828 0.18175 0.0
H1560 H 0.95422 0.45124 0.18068 0.0
H1561 H 0.5601 0.52629 0.17727 0.0
H1562 H 0.66696 0.46175 0.18191 0.0
H1563 H 0.849 0.51634 0.17936 0.0
C1564 C 0.96727 0.4983 0.17981 0.0
C1565 C 0.99855 0.47992 0.18016 0.0
C1566 C 0.64357 0.47591 0.18085 0.0
C1567 C 0.80844 0.4873 0.17989 0.0
C1568 C 0.54847 0.47957 0.1807 0.0
C1569 C 0.51658 0.49777 0.17938 0.0
C1570 C 0.70692 0.4906 0.17973 0.0
C1571 C 0.58192 0.51201 0.17828 0.0
C1572 C 0.87215 0.50206 0.17964 0.0
C1573 C 0.93286 0.46563 0.18038 0.0
N1574 N 0.67383 0.50815 0.17848 0.0
N1575 N 0.84114 0.46961 0.18026 0.0
H1576 H 0.76825 0.47367 0.93459 0.0
H1577 H 0.25887 0.51318 0.92341 0.0
H1578 H 0.71132 0.53122 0.92773 0.0
H1579 H 0.30943 0.46241 0.94101 0.0
H1580 H 0.42625 0.51878 0.92292 0.0
H1581 H 0.60066 0.46772 0.93492 0.0
C1582 C 0.7205 0.48499 0.93314 0.0
C1583 C 0.75321 0.50294 0.93117 0.0
C1584 C 0.40052 0.50644 0.92691 0.0
C1585 C 0.56283 0.49632 0.93143 0.0
C1586 C 0.30519 0.50327 0.92719 0.0
C1587 C 0.27052 0.48736 0.93228 0.0
C1588 C 0.46133 0.49345 0.93162 0.0
C1589 C 0.33341 0.47489 0.93702 0.0
C1590 C 0.62515 0.48164 0.93335 0.0
C1591 C 0.68876 0.51718 0.92933 0.0
N1592 N 0.42576 0.47814 0.93653 0.0
N1593 N 0.59679 0.51356 0.92946 0.0
H1594 H 0.59444 0.21996 0.9293 0.0
H1595 H 0.07742 0.26161 0.93154 0.0
H1596 H 0.53171 0.27842 0.92871 0.0
H1597 H 0.14042 0.20321 0.93323 0.0
H1598 H 0.24392 0.26817 0.93043 0.0
H1599 H 0.42801 0.21337 0.93047 0.0
C1600 C 0.54567 0.23136 0.9294 0.0
C1601 C 0.57673 0.24972 0.92895 0.0
C1602 C 0.22126 0.25391 0.93107 0.0
C1603 C 0.38674 0.24243 0.93029 0.0
C1604 C 0.12632 0.25022 0.93173 0.0
C1605 C 0.09537 0.23188 0.93248 0.0
C1606 C 0.28534 0.23914 0.93114 0.0
C1607 C 0.16147 0.21758 0.93267 0.0
C1608 C 0.45074 0.22765 0.93007 0.0
C1609 C 0.51066 0.26404 0.92906 0.0
N1610 N 0.25309 0.22149 0.93198 0.0
N1611 N 0.41907 0.26011 0.92973 0.0
H1612 H 0.7086 0.20099 0.80455 0.0
H1613 H 0.31048 0.27809 0.80757 0.0
H1614 H 0.76391 0.25967 0.80584 0.0
H1615 H 0.25552 0.21938 0.80762 0.0
H1616 H 0.47583 0.27161 0.80678 0.0
H1617 H 0.54316 0.20747 0.80529 0.0
C1618 C 0.68575 0.2153 0.80494 0.0
C1619 C 0.75004 0.22984 0.80513 0.0
C1620 C 0.42796 0.2601 0.80698 0.0
C1621 C 0.55995 0.23737 0.80604 0.0
C1622 C 0.33335 0.26377 0.80744 0.0
C1623 C 0.26909 0.24922 0.80763 0.0
C1624 C 0.45921 0.24169 0.80668 0.0
C1625 C 0.30268 0.23098 0.80745 0.0
C1626 C 0.59112 0.21897 0.8054 0.0
C1627 C 0.71659 0.24807 0.80566 0.0
N1628 N 0.39554 0.22772 0.80696 0.0
N1629 N 0.62372 0.25132 0.80611 0.0
H1630 H 0.12817 0.53006 0.8034 0.0
H1631 H 0.52664 0.45325 0.80746 0.0
H1632 H 0.07322 0.47143 0.80551 0.0
H1633 H 0.58172 0.51184 0.80511 0.0
H1634 H 0.36125 0.45966 0.80681 0.0
H1635 H 0.29361 0.52365 0.804 0.0
C1636 C 0.1511 0.51578 0.80397 0.0
C1637 C 0.08691 0.50123 0.8044 0.0
C1638 C 0.40913 0.47116 0.80645 0.0
C1639 C 0.27706 0.49378 0.80511 0.0
C1640 C 0.50376 0.46753 0.80682 0.0
C1641 C 0.568 0.48206 0.80636 0.0
C1642 C 0.37786 0.48951 0.80558 0.0
C1643 C 0.53447 0.50025 0.80553 0.0
C1644 C 0.24575 0.51215 0.80432 0.0
C1645 C 0.12047 0.48303 0.80514 0.0
N1646 N 0.44156 0.50347 0.80516 0.0
N1647 N 0.21339 0.47982 0.80548 0.0
H1648 H 0.31864 0.00824 0.55114 0.0
H1649 H 0.82686 0.96885 0.56313 0.0
H1650 H 0.37422 0.95125 0.55956 0.0
H1651 H 0.77775 0.01837 0.54429 0.0
H1652 H 0.65934 0.96359 0.56386 0.0
H1653 H 0.48643 0.014 0.55064 0.0
C1654 C 0.36612 -0.00298 0.55293 0.0
C1655 C 0.33303 0.97928 0.55537 0.0
C1656 C 0.6854 0.97558 0.55954 0.0
C1657 C 0.52346 0.98566 0.5549 0.0
C1658 C 0.7808 0.97855 0.55913 0.0
C1659 C 0.81587 -0.00598 0.55363 0.0
C1660 C 0.62498 0.98833 0.55456 0.0
C1661 C 0.75339 0.00623 0.54859 0.0
C1662 C 0.46155 0.00025 0.5526 0.0
C1663 C 0.39709 0.96513 0.55759 0.0
N1664 N 0.66094 0.0032 0.54923 0.0
N1665 N 0.4891 0.96863 0.55735 0.0
H1666 H 0.50898 0.26231 0.55598 0.0
H1667 H 1.02577 0.2206 0.55698 0.0
H1668 H 0.57179 0.20385 0.55683 0.0
H1669 H 0.96406 0.27905 0.55519 0.0
H1670 H 0.85909 0.21409 0.55699 0.0
H1671 H 0.6757 0.26893 0.55574 0.0
C1672 C 0.55783 0.25093 0.55613 0.0
C1673 C 0.52687 0.23256 0.55646 0.0
C1674 C 0.8821 0.22835 0.55658 0.0
C1675 C 0.71687 0.23987 0.55616 0.0
C1676 C 0.97713 0.23201 0.55656 0.0
C1677 C 1.00842 0.25034 0.55606 0.0
C1678 C 0.81832 0.24315 0.55611 0.0
C1679 C 0.94269 0.26469 0.55559 0.0
C1680 C 0.65286 0.25465 0.55597 0.0
C1681 C 0.59286 0.21824 0.55657 0.0
N1682 N 0.85092 0.2608 0.55563 0.0
N1683 N 0.68451 0.22218 0.55644 0.0
H1684 H 0.78025 0.20479 0.67818 0.0
H1685 H 0.38192 0.28155 0.68323 0.0
H1686 H 0.83546 0.26324 0.68147 0.0
H1687 H 0.32669 0.22299 0.68066 0.0
H1688 H 0.54737 0.27512 0.68251 0.0
H1689 H 0.61479 0.21121 0.6789 0.0
C1690 C 0.7574 0.21904 0.67903 0.0
C1691 C 0.8217 0.23354 0.67973 0.0
C1692 C 0.49944 0.26363 0.68212 0.0
C1693 C 0.6315 0.241 0.6806 0.0
C1694 C 0.40479 0.26727 0.68253 0.0
C1695 C 0.3405 0.25275 0.68202 0.0
C1696 C 0.53068 0.24528 0.68115 0.0
C1697 C 0.374 0.23457 0.68111 0.0
C1698 C 0.66273 0.22268 0.67945 0.0
C1699 C 0.7882 0.25169 0.68084 0.0
N1700 N 0.46691 0.23134 0.68069 0.0
N1701 N 0.69528 0.25491 0.68124 0.0
H1702 H 1.01801 0.01194 0.68121 0.0
H1703 H 0.50156 0.97049 0.68056 0.0
H1704 H 0.95632 0.9535 0.68229 0.0
H1705 H 0.56327 0.02882 0.67833 0.0
H1706 H 0.6683 0.96386 0.68126 0.0
H1707 H 0.85125 0.01857 0.68033 0.0
C1708 C 0.96933 0.00056 0.68129 0.0
C1709 C 1.00063 0.98218 0.68183 0.0
C1710 C 0.64529 0.97812 0.68059 0.0
C1711 C 0.81056 0.98953 0.68081 0.0
C1712 C 0.55024 0.98185 0.68016 0.0
C1713 C 0.51892 0.00019 0.67936 0.0
C1714 C 0.70906 -0.00714 0.68024 0.0
C1715 C 0.58467 0.01446 0.67894 0.0
C1716 C 0.87429 0.00429 0.68077 0.0
C1717 C 0.93493 0.96789 0.68188 0.0
N1718 N 0.67642 0.01051 0.6794 0.0
N1719 N 0.84322 0.97185 0.68138 0.0
H1720 H 0.7705 0.96996 0.43157 0.0
H1721 H 0.25344 0.01162 0.42965 0.0
H1722 H 0.70752 0.02834 0.43345 0.0
H1723 H 0.31649 0.95319 0.42844 0.0
H1724 H 0.41987 0.0182 0.43084 0.0
H1725 H 0.60404 0.96341 0.43043 0.0
C1726 C 0.72161 0.98135 0.4318 0.0
C1727 C 0.75256 -0.00032 0.43261 0.0
C1728 C 0.3972 0.00393 0.4303 0.0
C1729 C 0.56263 -0.00756 0.43124 0.0
C1730 C 0.30229 0.00022 0.42959 0.0
C1731 C 0.27135 0.98187 0.42897 0.0
C1732 C 0.46127 0.98916 0.43036 0.0
C1733 C 0.33748 0.96757 0.42892 0.0
C1734 C 0.6267 0.97766 0.43112 0.0
C1735 C 0.68647 0.01399 0.43284 0.0
N1736 N 0.42904 0.97149 0.42962 0.0
N1737 N 0.59487 0.01008 0.43214 0.0
H1738 H 0.59382 0.71835 0.42456 0.0
H1739 H 0.08398 0.75789 0.4356 0.0
H1740 H 0.54261 0.76917 0.44213 0.0
H1741 H 0.14121 0.70034 0.42873 0.0
H1742 H 0.25156 0.76384 0.436 0.0
H1743 H 0.42647 0.71275 0.42404 0.0
C1744 C 0.54735 0.72827 0.42833 0.0
C1745 C 0.58184 0.74419 0.43342 0.0
C1746 C 0.22713 0.74992 0.43441 0.0
C1747 C 0.39105 0.7381 0.43271 0.0
C1748 C 0.1318 0.74657 0.43416 0.0
C1749 C 0.09916 0.72862 0.43217 0.0
C1750 C 0.28954 0.73524 0.43249 0.0
C1751 C 0.16369 0.71438 0.43034 0.0
C1752 C 0.45204 0.7251 0.42803 0.0
C1753 C 0.51878 0.75667 0.43815 0.0
N1754 N 0.25566 0.718 0.4305 0.0
N1755 N 0.42643 0.75343 0.43763 0.0
H1756 H 0.25923 0.72002 0.31236 0.0
H1757 H 0.76761 0.75978 0.30145 0.0
H1758 H 0.30878 0.7711 0.29507 0.0
H1759 H 0.71231 0.70208 0.30789 0.0
H1760 H 0.59983 0.76572 0.30115 0.0
H1761 H 0.42679 0.71441 0.31281 0.0
C1762 C 0.30538 0.72999 0.30864 0.0
C1763 C 0.2704 0.746 0.30365 0.0
C1764 C 0.62474 0.75177 0.30262 0.0
C1765 C 0.46131 0.7399 0.30427 0.0
C1766 C 0.72017 0.74843 0.30281 0.0
C1767 C 0.75338 0.73044 0.30465 0.0
C1768 C 0.56285 0.73704 0.30444 0.0
C1769 C 0.68935 0.71616 0.30639 0.0
C1770 C 0.40078 0.72683 0.3089 0.0
C1771 C 0.33302 0.75855 0.29898 0.0
N1772 N 0.59728 0.71976 0.30629 0.0
N1773 N 0.42543 0.7553 0.29945 0.0
H1774 H 0.08795 0.97191 0.30563 0.0
H1775 H 0.60386 0.01345 0.30766 0.0
H1776 H 0.14941 0.03034 0.30444 0.0
H1777 H 0.54267 0.95498 0.30789 0.0
H1778 H 0.43723 0.02008 0.30672 0.0
H1779 H 0.25465 0.9653 0.30652 0.0
C1780 C 0.13657 0.9833 0.30551 0.0
C1781 C 0.10517 0.00166 0.30496 0.0
C1782 C 0.46034 0.00579 0.30699 0.0
C1783 C 0.29528 -0.00566 0.30604 0.0
C1784 C 0.55537 0.00206 0.30753 0.0
C1785 C 0.58687 0.98369 0.30782 0.0
C1786 C 0.39674 -0.00898 0.30674 0.0
C1787 C 0.52122 0.96938 0.30767 0.0
C1788 C 0.2316 0.97957 0.30604 0.0
C1789 C 0.17086 0.01596 0.30485 0.0
N1790 N 0.42951 0.97333 0.30713 0.0
N1791 N 0.26258 0.01202 0.3054 0.0
H1792 H 0.34787 0.46817 0.55698 0.0
H1793 H 0.83071 0.50961 0.5548 0.0
H1794 H 0.28501 0.52663 0.55647 0.0
H1795 H 0.89397 0.45115 0.55397 0.0
H1796 H 0.99724 0.51625 0.55554 0.0
H1797 H 0.18142 0.4615 0.55617 0.0
C1798 C 0.29905 0.47955 0.55671 0.0
C1799 C 0.33 0.49793 0.55675 0.0
C1800 C 0.97462 0.50197 0.55517 0.0
C1801 C 0.1401 0.49056 0.55583 0.0
C1802 C 0.8797 0.49822 0.55472 0.0
C1803 C 0.84888 0.47984 0.55432 0.0
C1804 C 1.03875 0.48721 0.55523 0.0
C1805 C 0.91498 0.46554 0.55427 0.0
C1806 C 0.20413 0.4758 0.55624 0.0
C1807 C 0.26396 0.51223 0.55644 0.0
N1808 N 1.00659 0.46951 0.55475 0.0
N1809 N 0.17236 0.50826 0.55598 0.0
H1810 H 0.46286 0.77918 0.5543 0.0
H1811 H 0.06658 0.70243 0.55895 0.0
H1812 H 0.51962 0.7206 0.55675 0.0
H1813 H 1.0099 0.76091 0.55585 0.0
H1814 H 0.23186 0.70884 0.5583 0.0
H1815 H 0.2976 0.77276 0.55494 0.0
C1816 C 0.44037 0.76491 0.55496 0.0
C1817 C 0.50501 0.75037 0.55546 0.0
C1818 C 0.18363 0.72031 0.55778 0.0
C1819 C 0.31508 0.74291 0.55623 0.0
C1820 C 0.08908 0.71668 0.55816 0.0
C1821 C 1.02443 0.73119 0.55748 0.0
C1822 C 0.21439 0.73864 0.55671 0.0
C1823 C 0.05745 0.74935 0.55645 0.0
C1824 C 0.34583 0.76127 0.55533 0.0
C1825 C 0.47201 0.73219 0.55631 0.0
N1826 N 0.15028 0.75256 0.55609 0.0
N1827 N 0.37918 0.72897 0.55668 0.0
H1828 H 0.81319 0.72212 0.68056 0.0
H1829 H 0.32958 0.76363 0.68091 0.0
H1830 H 0.8744 0.78044 0.68312 0.0
H1831 H 0.26787 0.70534 0.67826 0.0
H1832 H 0.16278 0.77023 0.68172 0.0
H1833 H 0.98001 0.71557 0.67981 0.0
C1834 C 0.86178 0.7335 0.681 0.0
C1835 C 0.8303 0.75181 0.68192 0.0
C1836 C 0.18583 0.756 0.68095 0.0
C1837 C 1.02052 0.74456 0.68102 0.0
C1838 C 0.28091 0.75228 0.68046 0.0
C1839 C 0.31223 0.73396 0.6795 0.0
C1840 C 0.12207 0.74126 0.68047 0.0
C1841 C 0.24649 0.71969 0.679 0.0
C1842 C 0.95687 0.7298 0.68055 0.0
C1843 C 0.89592 0.7661 0.68242 0.0
N1844 N 0.15475 0.72363 0.6795 0.0
N1845 N 0.98771 0.76219 0.68195 0.0
H1846 H 0.99502 0.46982 0.6783 0.0
H1847 H 0.51094 0.51124 0.68087 0.0
H1848 H 0.05615 0.52827 0.6792 0.0
H1849 H 0.44937 0.45278 0.6814 0.0
H1850 H 0.34423 0.51789 0.68013 0.0
H1851 H 0.16164 0.46315 0.67914 0.0
C1852 C 1.04349 0.4812 0.67866 0.0
C1853 C 1.01199 0.49958 0.67873 0.0
C1854 C 0.36726 0.5036 0.68043 0.0
C1855 C 0.2021 0.4922 0.67967 0.0
C1856 C 0.46229 0.49985 0.68088 0.0
C1857 C 0.49364 0.48147 0.68121 0.0
C1858 C 0.30355 0.48884 0.68029 0.0
C1859 C 0.42795 0.46717 0.68117 0.0
C1860 C 0.13851 0.47744 0.67915 0.0
C1861 C 0.07761 0.51387 0.67916 0.0
N1862 N 0.33622 0.47114 0.68069 0.0
N1863 N 0.16932 0.5099 0.67962 0.0
H1864 H 0.75582 0.51155 0.43087 0.0
H1865 H 0.27336 0.47009 0.4297 0.0
H1866 H 0.81883 0.45343 0.42709 0.0
H1867 H 0.21017 0.52837 0.43257 0.0
H1868 H 0.10668 0.46352 0.42895 0.0
H1869 H 0.92238 0.5181 0.43163 0.0
C1870 C 0.80471 0.50023 0.43014 0.0
C1871 C 0.7738 0.48197 0.42887 0.0
C1872 C 0.12939 0.47775 0.42976 0.0
C1873 C 0.96381 0.4892 0.42981 0.0
C1874 C 0.22438 0.48145 0.4302 0.0
C1875 C 0.25523 0.49976 0.4312 0.0
C1876 C 0.06526 0.49249 0.43033 0.0
C1877 C 0.18914 0.51403 0.43179 0.0
C1878 C 0.89969 0.50391 0.43061 0.0
C1879 C 0.83989 0.46773 0.42807 0.0
N1880 N 0.0975 0.51011 0.43134 0.0
N1881 N 0.93156 0.47163 0.42855 0.0
H1882 H 1.02851 0.27727 0.42913 0.0
H1883 H 0.63246 0.20019 0.43181 0.0
H1884 H 0.08521 0.21865 0.43122 0.0
H1885 H 0.57539 0.25889 0.43091 0.0
H1886 H 0.79768 0.20669 0.43137 0.0
H1887 H 0.86318 0.2708 0.42951 0.0
C1888 C 1.00601 0.26297 0.42965 0.0
C1889 C 0.07066 0.24844 0.43012 0.0
C1890 C 0.7494 0.21819 0.43128 0.0
C1891 C 0.88071 0.24093 0.43057 0.0
C1892 C 0.65489 0.21451 0.43153 0.0
C1893 C 0.59019 0.22905 0.4314 0.0
C1894 C 0.78005 0.23661 0.43088 0.0
C1895 C 0.62307 0.24729 0.43103 0.0
C1896 C 0.91144 0.25931 0.42987 0.0
C1897 C 1.03765 0.23023 0.43079 0.0
N1898 N 0.71588 0.25056 0.43077 0.0
N1899 N 0.94483 0.22699 0.431 0.0
H1900 H 0.21307 0.20179 0.30427 0.0
H1901 H 0.81479 0.27854 0.30938 0.0
H1902 H 0.26836 0.26035 0.30687 0.0
H1903 H 0.75962 0.22013 0.30586 0.0
H1904 H 0.98027 0.27211 0.3087 0.0
H1905 H 0.04764 0.20823 0.30498 0.0
C1906 C 0.19022 0.21606 0.30498 0.0
C1907 C 0.25449 0.23058 0.30551 0.0
C1908 C 0.93233 0.26066 0.30809 0.0
C1909 C 0.06436 0.23807 0.30636 0.0
C1910 C 0.83767 0.2643 0.30849 0.0
C1911 C 0.77338 0.24981 0.3077 0.0
C1912 C 0.96356 0.24235 0.30688 0.0
C1913 C 0.80688 0.23167 0.30655 0.0
C1914 C 0.09558 0.21971 0.30538 0.0
C1915 C 0.22103 0.24877 0.30642 0.0
N1916 N 0.8998 0.22845 0.30616 0.0
N1917 N 0.12813 0.252 0.30683 0.0
H1918 H 1.03204 0.45378 0.30777 0.0
H1919 H 0.63377 0.53071 0.30417 0.0
H1920 H 0.08707 0.51234 0.30522 0.0
H1921 H 0.57849 0.47205 0.30579 0.0
H1922 H 0.79916 0.52425 0.30471 0.0
H1923 H 0.86656 0.46022 0.30727 0.0
C1924 C 1.00913 0.46806 0.30713 0.0
C1925 C 0.07336 0.48258 0.30656 0.0
C1926 C 0.75124 0.51275 0.30494 0.0
C1927 C 0.88322 0.49006 0.30596 0.0
C1928 C 0.65662 0.51641 0.30463 0.0
C1929 C 0.59238 0.50186 0.30494 0.0
C1930 C 0.78245 0.49436 0.30557 0.0
C1931 C 0.62582 0.48364 0.30553 0.0
C1932 C 0.91448 0.4717 0.30683 0.0
C1933 C 1.03984 0.50077 0.30573 0.0
N1934 N 0.71872 0.4804 0.30584 0.0
N1935 N 0.94693 0.504 0.30544 0.0
H1936 H 0.81568 0.00977 0.05731 0.0
H1937 H 0.33269 0.96816 0.05596 0.0
H1938 H 0.87755 0.95143 0.05467 0.0
H1939 H 0.26969 0.02657 0.05756 0.0
H1940 H 0.16598 0.96154 0.05558 0.0
H1941 H 0.98233 0.0163 0.05748 0.0
C1942 C 0.86434 -0.00161 0.05673 0.0
C1943 C 0.83308 0.98009 0.05594 0.0
C1944 C 0.18877 0.97581 0.05601 0.0
C1945 C 1.02322 0.98729 0.05619 0.0
C1946 C 0.28381 0.97953 0.05625 0.0
C1947 C 0.31472 -0.00211 0.05683 0.0
C1948 C 0.1247 0.99058 0.05637 0.0
C1949 C 0.24867 0.01219 0.05712 0.0
C1950 C 0.95938 0.00206 0.05685 0.0
C1951 C 0.89888 0.96577 0.05528 0.0
N1952 N 0.15702 0.00824 0.0569 0.0
N1953 N 0.99065 0.96966 0.05543 0.0
H1954 H 0.07372 0.21112 0.04385 0.0
H1955 H 0.48168 0.27943 0.06021 0.0
H1956 H 1.03009 0.2603 0.06323 0.0
H1957 H 0.53146 0.22257 0.05096 0.0
H1958 H 0.31577 0.27372 0.0598 0.0
H1959 H 0.24047 0.21625 0.0447 0.0
C1960 C 0.0993 0.22307 0.04825 0.0
C1961 C 1.03808 0.23532 0.05349 0.0
C1962 C 0.36271 0.26244 0.0579 0.0
C1963 C 0.22896 0.24127 0.05446 0.0
C1964 C 0.45751 0.26568 0.0581 0.0
C1965 C 0.52026 0.25142 0.05562 0.0
C1966 C 0.32989 0.24484 0.05504 0.0
C1967 C 0.48523 0.2339 0.05297 0.0
C1968 C 0.19453 0.22591 0.04878 0.0
C1969 C 0.07497 0.25053 0.05908 0.0
N1970 N 0.39206 0.23112 0.05267 0.0
N1971 N 0.16814 0.25312 0.05938 0.0
H1972 H 0.83946 0.22081 0.18596 0.0
H1973 H 0.34847 0.26126 0.17653 0.0
H1974 H 0.8916 0.27345 0.17049 0.0
H1975 H 0.29387 0.2033 0.18195 0.0
H1976 H 0.18125 0.26721 0.17629 0.0
H1977 H 1.00696 0.21502 0.18644 0.0
C1978 C 0.88619 0.2311 0.18266 0.0
C1979 C 0.85199 0.24759 0.17817 0.0
C1980 C 0.20608 0.25319 0.17752 0.0
C1981 C 1.0427 0.24127 0.17882 0.0
C1982 C 0.30143 0.24985 0.1777 0.0
C1983 C 0.33493 0.23183 0.17927 0.0
C1984 C 0.14423 0.23837 0.17902 0.0
C1985 C 0.27088 0.21744 0.1807 0.0
C1986 C 0.98153 0.22782 0.18293 0.0
C1987 C 0.91522 0.26052 0.174 0.0
N1988 N 0.17872 0.22101 0.18058 0.0
N1989 N 1.00749 0.25714 0.17448 0.0
H1990 H 0.46405 0.95103 0.18319 0.0
H1991 H 0.06555 0.0277 0.17839 0.0
H1992 H 0.51895 0.0096 0.18063 0.0
H1993 H 1.01047 0.96921 0.18142 0.0
H1994 H 0.23095 0.02131 0.17908 0.0
H1995 H 0.29861 0.95741 0.18252 0.0
C1996 C 0.44111 0.96529 0.1825 0.0
C1997 C 0.50529 0.97984 0.18197 0.0
C1998 C 0.18306 0.00983 0.17958 0.0
C1999 C 0.31513 0.98725 0.18117 0.0
C2000 C 0.08843 0.01345 0.17918 0.0
C2001 C 1.02419 -0.00107 0.17983 0.0
C2002 C 0.21433 -0.0085 0.18065 0.0
C2003 C 0.05771 0.98077 0.18085 0.0
C2004 C 0.34646 0.96891 0.18211 0.0
C2005 C 0.47171 -0.00199 0.18108 0.0
N2006 N 0.15063 0.97757 0.18124 0.0
N2007 N 0.37879 0.00121 0.1807 0.0
H2008 H 0.8127 0.95448 0.92929 0.0
H2009 H 0.20868 0.03162 0.9314 0.0
H2010 H 0.75602 0.01311 0.93122 0.0
H2011 H 0.26588 0.9729 0.93116 0.0
H2012 H 1.04349 0.02509 0.93099 0.0
H2013 H 0.97806 0.96095 0.92958 0.0
C2014 C 0.83521 0.96877 0.92975 0.0
C2015 C 0.77055 0.98331 0.9302 0.0
C2016 C 0.0918 0.01359 0.93104 0.0
C2017 C 0.96052 -0.00917 0.93056 0.0
C2018 C 0.1863 0.0173 0.93127 0.0
C2019 C 0.25102 0.00276 0.93132 0.0
C2020 C 0.06118 -0.00483 0.93083 0.0
C2021 C 0.21817 0.9845 0.93114 0.0
C2022 C 0.92979 0.97244 0.92992 0.0
C2023 C 0.80357 0.00153 0.93079 0.0
N2024 N 0.12537 0.98122 0.93089 0.0
N2025 N 0.89638 0.00477 0.93096 0.0
H2026 H 1.02297 0.77957 0.92871 0.0
H2027 H 0.62678 0.70265 0.93248 0.0
H2028 H 0.07969 0.721 0.93115 0.0
H2029 H 0.56992 0.76131 0.93082 0.0
H2030 H 0.79202 0.70911 0.9319 0.0
H2031 H 0.85768 0.77313 0.92929 0.0
C2032 C 1.00048 0.76529 0.92934 0.0
C2033 C 0.06514 0.75076 0.92985 0.0
C2034 C 0.74378 0.72061 0.93167 0.0
C2035 C 0.87518 0.74329 0.93056 0.0
C2036 C 0.64924 0.71695 0.93201 0.0
C2037 C 0.58459 0.7315 0.9317 0.0
C2038 C 0.7745 0.73899 0.931 0.0
C2039 C 0.61755 0.74972 0.93109 0.0
C2040 C 0.90592 0.76165 0.92969 0.0
C2041 C 1.03213 0.73257 0.93068 0.0
N2042 N 0.71038 0.75295 0.93075 0.0
N2043 N 0.9393 0.72935 0.93102 0.0
H2044 H 0.21157 0.70093 0.80919 0.0
H2045 H 0.80307 0.77057 0.79439 0.0
H2046 H 0.26077 0.75838 0.80146 0.0
H2047 H 0.75973 0.72024 0.81264 0.0
H2048 H 0.96985 0.76524 0.79513 0.0
H2049 H 1.04553 0.70675 0.80882 0.0
C2050 C 0.18723 0.71482 0.80741 0.0
C2051 C 0.24981 0.72922 0.80534 0.0
C2052 C 0.92396 0.75538 0.79899 0.0
C2053 C 0.0594 0.73593 0.80482 0.0
C2054 C 0.82872 0.75833 0.79852 0.0
C2055 C 0.76758 0.74581 0.80348 0.0
C2056 C 0.95847 0.73963 0.80431 0.0
C2057 C 0.80455 0.73022 0.80872 0.0
C2058 C 0.09238 0.71812 0.80724 0.0
C2059 C 0.21461 0.74694 0.80311 0.0
N2060 N 0.89773 0.72752 0.80897 0.0
N2061 N 0.12142 0.74979 0.80283 0.0
H2062 H 0.64059 0.03045 0.80521 0.0
H2063 H 1.03913 0.95377 0.81012 0.0
H2064 H 0.58543 0.97177 0.80654 0.0
H2065 H 0.09399 0.01202 0.80577 0.0
H2066 H 0.87352 0.96018 0.80959 0.0
H2067 H 0.80592 0.02402 0.80604 0.0
C2068 C 0.66344 0.01615 0.80567 0.0
C2069 C 0.59919 0.0016 0.80581 0.0
C2070 C 0.92145 0.9716 0.80878 0.0
C2071 C 0.78931 -0.00588 0.8068 0.0
C2072 C 1.01618 0.96798 0.80911 0.0
C2073 C 0.08042 0.98242 0.80802 0.0
C2074 C 0.89013 0.98986 0.80735 0.0
C2075 C 1.0468 0.00052 0.80671 0.0
C2076 C 0.75804 0.01251 0.80614 0.0
C2077 C 0.63271 0.98338 0.80641 0.0
N2078 N 0.95386 0.00373 0.8064 0.0
N2079 N 0.72561 0.98015 0.8069 0.0
H2080 H 0.97255 0.46633 0.02027 0.0
H2081 H 0.0831 0.52145 0.96519 0.0
H2082 H 0.11669 0.51869 0.01937 0.0
H2083 H 0.94386 0.46857 0.9662 0.0
H2084 H 0.09122 0.52125 0.98505 0.0
H2085 H 0.957 0.46748 0.00052 0.0
C2086 C 1.00084 0.4781 0.01594 0.0
C2087 C 1.04625 0.49242 0.02154 0.0
C2088 C 0.05868 0.50972 0.98092 0.0
C2089 C 1.02859 0.4938 -0.00117 0.0
C2090 C 0.05388 0.50982 0.96956 0.0
C2091 C 1.0129 0.49498 0.96397 0.0
C2092 C 1.02228 0.49466 0.98676 0.0
C2093 C 0.97628 0.48031 0.97013 0.0
C2094 C 0.9919 0.47874 0.00464 0.0
C2095 C 0.08129 0.50731 0.01543 0.0
N2096 N 0.98204 0.48051 0.98117 0.0
N2097 N 0.07186 0.50759 0.00442 0.0
H2098 H 0.22201 0.71631 0.96576 0.0
H2099 H 0.33211 0.76971 0.02141 0.0
H2100 H 0.36532 0.76872 0.96725 0.0
H2101 H 0.19561 0.71657 0.01992 0.0
H2102 H 0.34136 0.76996 0.00158 0.0
H2103 H 0.20825 0.71659 0.98555 0.0
C2104 C 0.2505 0.72791 0.97022 0.0
C2105 C 0.29508 0.74251 0.96478 0.0
C2106 C 0.30929 0.75826 0.00559 0.0
C2107 C 0.27949 0.74288 0.98753 0.0
C2108 C 0.30389 0.75809 0.01694 0.0
C2109 C 0.26307 0.74307 0.02239 0.0
C2110 C 0.27363 0.7433 -0.00039 0.0
C2111 C 0.22778 0.72844 0.0161 0.0
C2112 C 0.24262 0.72804 0.98155 0.0
C2113 C 0.33051 0.75715 0.97106 0.0
N2114 N 0.23397 0.72892 0.00506 0.0
N2115 N 0.32202 0.75694 0.98209 0.0
H2116 H 0.94703 0.76561 0.26989 0.0
H2117 H 0.13021 0.71331 0.21648 0.0
H2118 H 0.08737 0.71267 0.27056 0.0
H2119 H 0.99372 0.76666 0.21591 0.0
H2120 H 0.11292 0.7126 0.23624 0.0
H2121 H 0.96038 0.76586 0.25009 0.0
C2122 C 0.98038 0.75398 0.26589 0.0
C2123 C 1.01626 0.7391 0.27195 0.0
C2124 C 0.08675 0.72447 0.23179 0.0
C2125 C 1.03204 0.73936 0.2492 0.0
C2126 C 0.09666 0.7249 0.22049 0.0
C2127 C 0.06348 0.74009 0.21447 0.0
C2128 C 1.04328 0.73931 0.23717 0.0
C2129 C 1.02054 0.75467 0.22017 0.0
C2130 C 0.98808 0.75416 0.25456 0.0
C2131 C 0.05868 0.72445 0.26626 0.0
N2132 N 1.01171 0.75391 0.23119 0.0
N2133 N 0.06554 0.72498 0.25522 0.0
H2134 H 0.20089 0.516 0.2161 0.0
H2135 H 0.3818 0.46396 0.26963 0.0
H2136 H 0.34661 0.46363 0.21552 0.0
H2137 H 0.2343 0.51613 0.27024 0.0
H2138 H 0.36878 0.46354 0.24982 0.0
H2139 H 0.21187 0.5162 0.23592 0.0
C2140 C 0.23521 0.50452 0.22011 0.0
C2141 C 0.27294 0.48977 0.21408 0.0
C2142 C 0.3392 0.47507 0.25429 0.0
C2143 C 0.28571 0.48995 0.23685 0.0
C2144 C 0.34658 0.47534 0.26562 0.0
C2145 C 0.30916 0.49012 0.27166 0.0
C2146 C 0.29411 0.4897 0.24891 0.0
C2147 C 0.26428 0.50443 0.26596 0.0
C2148 C 0.24141 0.50466 0.23146 0.0
C2149 C 0.31651 0.47531 0.21979 0.0
N2150 N 0.25811 0.50387 0.25492 0.0
N2151 N 0.32171 0.47578 0.23084 0.0
H2152 H 0.75204 0.21348 0.96602 0.0
H2153 H 0.84992 0.26955 0.02113 0.0
H2154 H 0.88877 0.26664 0.96705 0.0
H2155 H 0.7137 0.21635 0.02007 0.0
H2156 H 0.86257 0.26896 0.00131 0.0
H2157 H 0.73673 0.21439 0.9858 0.0
C2158 C 0.77912 0.22533 0.97039 0.0
C2159 C 0.82188 0.24 0.96482 0.0
C2160 C 0.82971 0.25744 0.00541 0.0
C2161 C 0.8041 0.24115 0.98753 0.0
C2162 C 0.82224 0.25777 0.01675 0.0
C2163 C 0.78075 0.24296 0.02232 0.0
C2164 C 0.79555 0.24217 -0.00043 0.0
C2165 C 0.7463 0.22809 0.01616 0.0
C2166 C 0.77016 0.22585 0.9817 0.0
C2167 C 0.8554 0.25499 0.97096 0.0
N2168 N 0.75467 0.22806 0.00513 0.0
N2169 N 0.84573 0.25517 0.98197 0.0
H2170 H 0.0838 0.21092 0.77107 0.0
H2171 H 0.97113 0.26617 0.71609 0.0
H2172 H 0.93906 0.26337 0.77009 0.0
H2173 H 0.11822 0.21397 0.71691 0.0
H2174 H 0.95455 0.26482 0.73583 0.0
H2175 H 0.09246 0.21121 0.75121 0.0
C2176 C 0.05347 0.22246 0.7667 0.0
C2177 C 1.01081 0.23717 0.7723 0.0
C2178 C 0.99031 0.25364 0.73169 0.0
C2179 C 1.02082 0.23759 0.74952 0.0
C2180 C 0.99986 0.2544 0.72039 0.0
C2181 C 1.04641 0.24019 0.71479 0.0
C2182 C 1.02758 0.23857 0.73747 0.0
C2183 C 0.08195 0.22528 0.72085 0.0
C2184 C 0.05857 0.22262 0.75534 0.0
C2185 C 0.9728 0.25174 0.76616 0.0
N2186 N 0.07195 0.22488 0.73186 0.0
N2187 N 0.97893 0.2516 0.75512 0.0
H2188 H 0.71848 0.51547 0.77056 0.0
H2189 H 0.8275 0.46147 0.715 0.0
H2190 H 0.86327 0.46304 0.76914 0.0
H2191 H 0.68702 0.51436 0.71652 0.0
H2192 H 0.8366 0.46126 0.73484 0.0
H2193 H 0.702 0.51474 0.75081 0.0
C2194 C 0.74671 0.50377 0.76612 0.0
C2195 C 0.79259 0.48931 0.77156 0.0
C2196 C 0.80358 0.47289 0.73083 0.0
C2197 C 0.77387 0.48842 0.74887 0.0
C2198 C 0.79824 0.47302 0.71948 0.0
C2199 C 0.75657 0.48798 0.71403 0.0
C2200 C 0.76706 0.48782 0.73681 0.0
C2201 C 0.71992 0.50253 0.72033 0.0
C2202 C 0.73723 0.50337 0.75482 0.0
C2203 C 0.82752 0.47452 0.76532 0.0
N2204 N 0.72622 0.5021 0.73136 0.0
N2205 N 0.81757 0.47448 0.75432 0.0
H2206 H 1.00475 0.96092 0.521 0.0
H2207 H 0.09956 0.01782 0.46609 0.0
H2208 H 0.13928 0.0143 0.52018 0.0
H2209 H 0.96095 0.96486 0.46707 0.0
H2210 H 0.11653 0.01662 0.48586 0.0
H2211 H 0.99153 0.96182 0.5012 0.0
C2212 C 1.03196 0.9728 0.51667 0.0
C2213 C 0.07307 0.98757 0.52231 0.0
C2214 C 0.08232 0.00528 0.48175 0.0
C2215 C 0.0576 0.98873 0.49958 0.0
C2216 C 0.07241 0.00596 0.47044 0.0
C2217 C 1.02859 -0.00857 0.46487 0.0
C2218 C 0.04831 0.98995 0.48755 0.0
C2219 C 0.99508 0.97641 0.47099 0.0
C2220 C 1.02415 0.97332 0.50535 0.0
C2221 C 0.10694 0.00259 0.51622 0.0
N2222 N 1.0057 0.97607 0.48198 0.0
N2223 N 0.09825 0.0028 0.5052 0.0
H2224 H 0.388 0.26571 0.467 0.0
H2225 H 0.22032 0.21217 0.52061 0.0
H2226 H 0.2405 0.21372 0.46634 0.0
H2227 H 0.36185 0.26484 0.52113 0.0
H2228 H 0.22941 0.21221 0.50076 0.0
H2229 H 0.38067 0.26539 0.48684 0.0
C2230 C 0.35398 0.25422 0.47101 0.0
C2231 C 0.31477 0.23972 0.46495 0.0
C2232 C 0.25857 0.22374 0.50522 0.0
C2233 C 0.30633 0.23927 0.48774 0.0
C2234 C 0.25355 0.22373 0.51657 0.0
C2235 C 0.29032 0.23854 0.52259 0.0
C2236 C 0.30069 0.23866 0.49981 0.0
C2237 C 0.33244 0.25312 0.51687 0.0
C2238 C 0.34987 0.25405 0.48236 0.0
C2239 C 0.27163 0.22522 0.47064 0.0
N2240 N 0.33637 0.25281 0.50582 0.0
N2241 N 0.26863 0.22536 0.4817 0.0
H2242 H 0.40354 0.96624 0.77008 0.0
H2243 H 0.20619 0.01761 0.71713 0.0
H2244 H 0.24175 0.01665 0.77112 0.0
H2245 H 0.36479 0.9668 0.71588 0.0
H2246 H 0.2202 0.01758 0.73691 0.0
H2247 H 0.39167 0.96632 0.75024 0.0
C2248 C 0.36557 0.97734 0.76616 0.0
C2249 C 0.32356 -0.00854 0.77232 0.0
C2250 C 0.25199 0.00643 0.73232 0.0
C2251 C 0.30973 -0.00839 0.74956 0.0
C2252 C 0.24404 0.00643 0.72099 0.0
C2253 C 0.2843 -0.00783 0.71479 0.0
C2254 C 0.30058 -0.00793 0.73752 0.0
C2255 C 0.33255 0.97809 0.7203 0.0
C2256 C 0.35881 0.97737 0.75481 0.0
C2257 C 0.27525 0.00546 0.76675 0.0
N2258 N 0.33928 0.9784 0.73134 0.0
N2259 N 0.26968 0.00517 0.7557 0.0
H2260 H 0.91079 0.76299 0.4671 0.0
H2261 H 0.72842 0.71103 0.52055 0.0
H2262 H 0.76764 0.71052 0.46638 0.0
H2263 H 0.87098 0.76358 0.52108 0.0
H2264 H 0.74591 0.71013 0.50078 0.0
H2265 H 0.90095 0.76289 0.48692 0.0
C2266 C 0.87753 0.75139 0.47109 0.0
C2267 C 0.83976 0.73675 0.46502 0.0
C2268 C 0.77352 0.72184 0.50523 0.0
C2269 C 0.82807 0.7366 0.4878 0.0
C2270 C 0.76356 0.72238 0.51654 0.0
C2271 C 0.79807 0.73744 0.52253 0.0
C2272 C 0.81827 0.73646 0.49984 0.0
C2273 C 0.84307 0.7517 0.51684 0.0
C2274 C 0.8719 0.75136 0.48243 0.0
C2275 C 0.79767 0.72212 0.4707 0.0
N2276 N 0.85167 0.75086 0.50583 0.0
N2277 N 0.79274 0.72245 0.48175 0.0
H2278 H 0.72789 0.01914 0.21675 0.0
H2279 H 0.91437 0.96785 0.2702 0.0
H2280 H 0.87158 0.96654 0.21624 0.0
H2281 H 0.76867 0.02022 0.27083 0.0
H2282 H 0.90323 0.96764 0.2504 0.0
H2283 H 0.74577 0.02019 0.23648 0.0
C2284 C 0.76335 0.0078 0.22076 0.0
C2285 C 0.79812 -0.0073 0.21478 0.0
C2286 C 0.8739 0.97921 0.25486 0.0
C2287 C 0.81877 -0.00615 0.23745 0.0
C2288 C 0.88028 0.97936 0.2662 0.0
C2289 C 0.84225 -0.00593 0.27224 0.0
C2290 C 0.82907 -0.00615 0.24948 0.0
C2291 C 0.79898 0.00857 0.26654 0.0
C2292 C 0.77353 0.00843 0.23205 0.0
C2293 C 0.8435 0.97846 0.22048 0.0
N2294 N 0.7934 0.00807 0.25549 0.0
N2295 N 0.85235 0.97938 0.23148 0.0
H2296 H 0.66015 0.51301 0.51929 0.0
H2297 H 0.47659 0.46114 0.46589 0.0
H2298 H 0.51473 0.46078 0.5201 0.0
H2299 H 0.62131 0.51345 0.46537 0.0
H2300 H 0.49355 0.46026 0.48567 0.0
H2301 H 0.65047 0.51282 0.49949 0.0
C2302 C 0.62641 0.50145 0.51533 0.0
C2303 C 0.58801 0.4869 0.52142 0.0
C2304 C 0.52174 0.47191 0.48122 0.0
C2305 C 0.57649 0.48666 0.49865 0.0
C2306 C 0.5121 0.47244 0.46991 0.0
C2307 C 0.54736 0.48743 0.46392 0.0
C2308 C 0.56693 0.48647 0.48661 0.0
C2309 C 0.59279 0.50162 0.46961 0.0
C2310 C 0.62088 0.50137 0.50399 0.0
C2311 C 0.54528 0.47231 0.51577 0.0
N2312 N 0.60107 0.5008 0.48062 0.0
N2313 N 0.54047 0.47259 0.50471 0.0
H2314 H 0.57643 0.71106 0.77087 0.0
H2315 H 0.46238 0.7661 0.71582 0.0
H2316 H 0.43613 0.76399 0.76999 0.0
H2317 H 0.60582 0.7135 0.71667 0.0
H2318 H 0.44737 0.76501 0.7356 0.0
H2319 H 0.58276 0.71116 0.751 0.0
C2320 C 0.54659 0.72268 0.76652 0.0
C2321 C 0.50588 0.73757 0.77216 0.0
C2322 C 0.48194 0.75368 0.73146 0.0
C2323 C 0.5132 0.73777 0.74934 0.0
C2324 C 0.49057 0.75428 0.72014 0.0
C2325 C 0.53571 0.73989 0.71452 0.0
C2326 C 0.51872 0.73859 0.73726 0.0
C2327 C 0.57063 0.72495 0.72062 0.0
C2328 C 0.55035 0.72273 0.75515 0.0
C2329 C 0.46839 0.75222 0.76603 0.0
N2330 N 0.56157 0.72471 0.73164 0.0
N2331 N 0.47319 0.75196 0.75497 0.0
H2332 H 0.46836 0.26918 0.27059 0.0
H2333 H 0.65505 0.21689 0.21738 0.0
H2334 H 0.61798 0.21726 0.27117 0.0
H2335 H 0.51086 0.26939 0.21625 0.0
H2336 H 0.64279 0.21717 0.23713 0.0
H2337 H 0.48386 0.26982 0.25077 0.0
C2338 C 0.50459 0.25792 0.26658 0.0
C2339 C 0.54184 0.24312 0.2726 0.0
C2340 C 0.61394 0.22866 0.23258 0.0
C2341 C 0.55969 0.2438 0.24988 0.0
C2342 C 0.62091 0.22853 0.22127 0.0
C2343 C 0.58389 0.24315 0.21509 0.0
C2344 C 0.56943 0.2435 0.23784 0.0
C2345 C 0.54049 0.25783 0.22065 0.0
C2346 C 0.51339 0.25831 0.25525 0.0
C2347 C 0.58804 0.22895 0.26691 0.0
N2348 N 0.53431 0.25761 0.23171 0.0
N2349 N 0.5955 0.22964 0.2559 0.0
H2350 H 0.47208 0.96593 0.02144 0.0
H2351 H 0.60052 0.01907 0.96624 0.0
H2352 H 0.61783 0.01812 0.02056 0.0
H2353 H 0.44933 0.96753 0.96734 0.0
H2354 H 0.60704 0.01908 0.9861 0.0
H2355 H 0.46211 0.9665 0.00163 0.0
C2356 C 0.50187 0.97755 0.01711 0.0
C2357 C 0.54604 -0.00801 0.02273 0.0
C2358 C 0.57239 0.00778 0.982 0.0
C2359 C 0.53494 -0.00732 -5e-05 0.0
C2360 C 0.56868 0.00774 0.97063 0.0
C2361 C 0.52436 -0.00674 0.96507 0.0
C2362 C 0.5316 -0.00678 0.98787 0.0
C2363 C 0.48429 0.97899 0.97125 0.0
C2364 C 0.49613 0.97785 0.00577 0.0
C2365 C 0.58313 0.00667 0.01661 0.0
N2366 N 0.48896 0.97934 0.9823 0.0
N2367 N 0.57691 0.00661 0.00557 0.0
loop_
_geom_bond_atom_site_label_1
_geom_bond_atom_site_label_2
_geom_bond_distance
_geom_bond_site_symmetry_2
_ccdc_geom_bond_type
Tb0 O3 2.453 . S
Tb0 O4 2.596 . S
Tb0 O5 2.374 . S
Tb0 O13 2.343 1_455 S
Tb0 O15 2.353 . S
Tb0 O17 2.427 1_455 S
Tb0 O18 2.513 1_455 S
C1 O5 1.251 . S
C1 O7 1.263 . S
Tb2 O4 2.343 1_655 S
Tb2 O7 2.353 1_655 S
Tb2 O10 2.427 1_655 S
Tb2 O11 2.513 1_655 S
Tb2 O12 2.453 . S
Tb2 O13 2.596 . S
Tb2 O14 2.374 . S
O3 Tb0 2.453 . S
O3 C19 1.245 . S
O4 Tb0 2.596 . S
O4 Tb2 2.343 1_455 S
O4 C19 1.259 . S
O5 Tb0 2.374 . S
O5 C1 1.251 . S
C6 O10 1.275 . S
C6 O11 1.246 . S
O7 C1 1.263 . S
O7 Tb2 2.353 1_455 S
C8 O12 1.245 . S
C8 O13 1.259 . S
C9 O14 1.250 1_455 S
C9 O15 1.263 . S
O10 Tb2 2.427 1_455 S
O10 C6 1.275 . S
O11 Tb2 2.513 1_455 S
O11 C6 1.246 . S
O12 Tb2 2.453 . S
O12 C8 1.245 . S
O13 Tb0 2.343 1_655 S
O13 Tb2 2.596 . S
O13 C8 1.259 . S
O14 Tb2 2.374 . S
O14 C9 1.250 1_655 S
O15 Tb0 2.353 . S
O15 C9 1.263 . S
C16 O17 1.275 . S
C16 O18 1.246 . S
O17 Tb0 2.427 1_655 S
O17 C16 1.275 . S
O18 Tb0 2.513 1_655 S
O18 C16 1.246 . S
C19 O3 1.245 . S
C19 O4 1.259 . S
Tb20 O23 2.453 . S
Tb20 O24 2.596 . S
Tb20 O25 2.374 . S
Tb20 O33 2.343 . S
Tb20 O35 2.353 . S
Tb20 O37 2.427 . S
Tb20 O38 2.513 . S
C21 O25 1.251 . S
C21 O27 1.263 . S
Tb22 O24 2.343 . S
Tb22 O27 2.353 . S
Tb22 O30 2.427 . S
Tb22 O31 2.513 . S
Tb22 O32 2.453 . S
Tb22 O33 2.596 . S
Tb22 O34 2.374 . S
O23 Tb20 2.453 . S
O23 C39 1.245 . S
O24 Tb20 2.596 . S
O24 Tb22 2.343 . S
O24 C39 1.259 . S
O25 Tb20 2.374 . S
O25 C21 1.251 . S
C26 O30 1.275 . S
C26 O31 1.246 . S
O27 C21 1.263 . S
O27 Tb22 2.353 . S
C28 O32 1.245 . S
C28 O33 1.259 . S
C29 O34 1.250 . S
C29 O35 1.263 . S
O30 Tb22 2.427 . S
O30 C26 1.275 . S
O31 Tb22 2.513 . S
O31 C26 1.246 . S
O32 Tb22 2.453 . S
O32 C28 1.245 . S
O33 Tb20 2.343 . S
O33 Tb22 2.596 . S
O33 C28 1.259 . S
O34 Tb22 2.374 . S
O34 C29 1.250 . S
O35 Tb20 2.353 . S
O35 C29 1.263 . S
C36 O37 1.275 . S
C36 O38 1.246 . S
O37 Tb20 2.427 . S
O37 C36 1.275 . S
O38 Tb20 2.513 . S
O38 C36 1.246 . S
C39 O23 1.245 . S
C39 O24 1.259 . S
Tb40 O43 2.453 . S
Tb40 O44 2.596 . S
Tb40 O45 2.374 . S
Tb40 O53 2.343 1_455 S
Tb40 O55 2.353 . S
Tb40 O57 2.427 1_455 S
Tb40 O58 2.513 1_455 S
C41 O45 1.251 . S
C41 O47 1.263 . S
Tb42 O44 2.343 1_655 S
Tb42 O47 2.353 1_655 S
Tb42 O50 2.427 1_655 S
Tb42 O51 2.513 1_655 S
Tb42 O52 2.453 . S
Tb42 O53 2.596 . S
Tb42 O54 2.374 . S
O43 Tb40 2.453 . S
O43 C59 1.245 . S
O44 Tb40 2.596 . S
O44 Tb42 2.343 1_455 S
O44 C59 1.259 . S
O45 Tb40 2.374 . S
O45 C41 1.251 . S
C46 O50 1.275 . S
C46 O51 1.246 . S
O47 C41 1.263 . S
O47 Tb42 2.353 1_455 S
C48 O52 1.245 . S
C48 O53 1.259 . S
C49 O54 1.250 1_455 S
C49 O55 1.263 . S
O50 Tb42 2.427 1_455 S
O50 C46 1.275 . S
O51 Tb42 2.513 1_455 S
O51 C46 1.246 . S
O52 Tb42 2.453 . S
O52 C48 1.245 . S
O53 Tb40 2.343 1_655 S
O53 Tb42 2.596 . S
O53 C48 1.259 . S
O54 Tb42 2.374 . S
O54 C49 1.250 1_655 S
O55 Tb40 2.353 . S
O55 C49 1.263 . S
C56 O57 1.275 . S
C56 O58 1.246 . S
O57 Tb40 2.427 1_655 S
O57 C56 1.275 . S
O58 Tb40 2.513 1_655 S
O58 C56 1.246 . S
C59 O43 1.245 . S
C59 O44 1.259 . S
Tb60 O63 2.453 . S
Tb60 O64 2.596 . S
Tb60 O65 2.374 . S
Tb60 O73 2.343 . S
Tb60 O75 2.353 . S
Tb60 O77 2.427 . S
Tb60 O78 2.513 . S
C61 O65 1.251 . S
C61 O67 1.263 . S
Tb62 O64 2.343 . S
Tb62 O67 2.353 . S
Tb62 O70 2.427 . S
Tb62 O71 2.513 . S
Tb62 O72 2.453 . S
Tb62 O73 2.596 . S
Tb62 O74 2.374 . S
O63 Tb60 2.453 . S
O63 C79 1.245 . S
O64 Tb60 2.596 . S
O64 Tb62 2.343 . S
O64 C79 1.259 . S
O65 Tb60 2.374 . S
O65 C61 1.251 . S
C66 O70 1.275 . S
C66 O71 1.246 . S
O67 C61 1.263 . S
O67 Tb62 2.353 . S
C68 O72 1.245 . S
C68 O73 1.259 . S
C69 O74 1.250 . S
C69 O75 1.263 . S
O70 Tb62 2.427 . S
O70 C66 1.275 . S
O71 Tb62 2.513 . S
O71 C66 1.246 . S
O72 Tb62 2.453 . S
O72 C68 1.245 . S
O73 Tb60 2.343 . S
O73 Tb62 2.596 . S
O73 C68 1.259 . S
O74 Tb62 2.374 . S
O74 C69 1.250 . S
O75 Tb60 2.353 . S
O75 C69 1.263 . S
C76 O77 1.275 . S
C76 O78 1.246 . S
O77 Tb60 2.427 . S
O77 C76 1.275 . S
O78 Tb60 2.513 . S
O78 C76 1.246 . S
C79 O63 1.245 . S
C79 O64 1.259 . S
Tb80 O83 2.453 . S
Tb80 O84 2.596 . S
Tb80 O85 2.374 . S
Tb80 O93 2.343 1_455 S
Tb80 O95 2.353 1_455 S
Tb80 O97 2.427 1_455 S
Tb80 O98 2.513 1_455 S
C81 O85 1.251 1_655 S
C81 O87 1.263 . S
Tb82 O84 2.343 1_655 S
Tb82 O87 2.353 . S
Tb82 O90 2.427 1_655 S
Tb82 O91 2.513 1_655 S
Tb82 O92 2.453 . S
Tb82 O93 2.596 . S
Tb82 O94 2.374 . S
O83 Tb80 2.453 . S
O83 C99 1.245 . S
O84 Tb80 2.596 . S
O84 Tb82 2.343 1_455 S
O84 C99 1.259 . S
O85 Tb80 2.374 . S
O85 C81 1.251 1_455 S
C86 O90 1.275 . S
C86 O91 1.246 . S
O87 C81 1.263 . S
O87 Tb82 2.353 . S
C88 O92 1.245 . S
C88 O93 1.259 . S
C89 O94 1.250 . S
C89 O95 1.263 . S
O90 Tb82 2.427 1_455 S
O90 C86 1.275 . S
O91 Tb82 2.513 1_455 S
O91 C86 1.246 . S
O92 Tb82 2.453 . S
O92 C88 1.245 . S
O93 Tb80 2.343 1_655 S
O93 Tb82 2.596 . S
O93 C88 1.259 . S
O94 Tb82 2.374 . S
O94 C89 1.250 . S
O95 Tb80 2.353 1_655 S
O95 C89 1.263 . S
C96 O97 1.275 . S
C96 O98 1.246 . S
O97 Tb80 2.427 1_655 S
O97 C96 1.275 . S
O98 Tb80 2.513 1_655 S
O98 C96 1.246 . S
C99 O83 1.245 . S
C99 O84 1.259 . S
Tb100 O103 2.453 . S
Tb100 O104 2.596 . S
Tb100 O105 2.374 . S
Tb100 O113 2.343 . S
Tb100 O115 2.353 . S
Tb100 O117 2.427 . S
Tb100 O118 2.513 . S
C101 O105 1.251 . S
C101 O107 1.263 . S
Tb102 O104 2.343 . S
Tb102 O107 2.353 . S
Tb102 O110 2.427 . S
Tb102 O111 2.513 . S
Tb102 O112 2.453 . S
Tb102 O113 2.596 . S
Tb102 O114 2.374 . S
O103 Tb100 2.453 . S
O103 C119 1.245 . S
O104 Tb100 2.596 . S
O104 Tb102 2.343 . S
O104 C119 1.259 . S
O105 Tb100 2.374 . S
O105 C101 1.251 . S
C106 O110 1.275 . S
C106 O111 1.246 . S
O107 C101 1.263 . S
O107 Tb102 2.353 . S
C108 O112 1.245 . S
C108 O113 1.259 . S
C109 O114 1.250 . S
C109 O115 1.263 . S
O110 Tb102 2.427 . S
O110 C106 1.275 . S
O111 Tb102 2.513 . S
O111 C106 1.246 . S
O112 Tb102 2.453 . S
O112 C108 1.245 . S
O113 Tb100 2.343 . S
O113 Tb102 2.596 . S
O113 C108 1.259 . S
O114 Tb102 2.374 . S
O114 C109 1.250 . S
O115 Tb100 2.353 . S
O115 C109 1.263 . S
C116 O117 1.275 . S
C116 O118 1.246 . S
O117 Tb100 2.427 . S
O117 C116 1.275 . S
O118 Tb100 2.513 . S
O118 C116 1.246 . S
C119 O103 1.245 . S
C119 O104 1.259 . S
Tb120 O123 2.453 . S
Tb120 O124 2.596 . S
Tb120 O125 2.374 . S
Tb120 O133 2.343 1_455 S
Tb120 O135 2.353 1_455 S
Tb120 O137 2.427 1_455 S
Tb120 O138 2.513 1_455 S
C121 O125 1.251 1_655 S
C121 O127 1.263 . S
Tb122 O124 2.343 1_655 S
Tb122 O127 2.353 . S
Tb122 O130 2.427 1_655 S
Tb122 O131 2.513 1_655 S
Tb122 O132 2.453 . S
Tb122 O133 2.596 . S
Tb122 O134 2.374 . S
O123 Tb120 2.453 . S
O123 C139 1.245 . S
O124 Tb120 2.596 . S
O124 Tb122 2.343 1_455 S
O124 C139 1.259 . S
O125 Tb120 2.374 . S
O125 C121 1.251 1_455 S
C126 O130 1.275 . S
C126 O131 1.246 . S
O127 C121 1.263 . S
O127 Tb122 2.353 . S
C128 O132 1.245 . S
C128 O133 1.259 . S
C129 O134 1.250 . S
C129 O135 1.263 . S
O130 Tb122 2.427 1_455 S
O130 C126 1.275 . S
O131 Tb122 2.513 1_455 S
O131 C126 1.246 . S
O132 Tb122 2.453 . S
O132 C128 1.245 . S
O133 Tb120 2.343 1_655 S
O133 Tb122 2.596 . S
O133 C128 1.259 . S
O134 Tb122 2.374 . S
O134 C129 1.250 . S
O135 Tb120 2.353 1_655 S
O135 C129 1.263 . S
C136 O137 1.275 . S
C136 O138 1.246 . S
O137 Tb120 2.427 1_655 S
O137 C136 1.275 . S
O138 Tb120 2.513 1_655 S
O138 C136 1.246 . S
C139 O123 1.245 . S
C139 O124 1.259 . S
Tb140 O143 2.453 . S
Tb140 O144 2.596 . S
Tb140 O145 2.374 . S
Tb140 O153 2.343 . S
Tb140 O155 2.353 . S
Tb140 O157 2.427 . S
Tb140 O158 2.513 . S
C141 O145 1.251 . S
C141 O147 1.263 . S
Tb142 O144 2.343 . S
Tb142 O147 2.353 . S
Tb142 O150 2.427 . S
Tb142 O151 2.513 . S
Tb142 O152 2.453 . S
Tb142 O153 2.596 . S
Tb142 O154 2.374 . S
O143 Tb140 2.453 . S
O143 C159 1.245 . S
O144 Tb140 2.596 . S
O144 Tb142 2.343 . S
O144 C159 1.259 . S
O145 Tb140 2.374 . S
O145 C141 1.251 . S
C146 O150 1.275 . S
C146 O151 1.246 . S
O147 C141 1.263 . S
O147 Tb142 2.353 . S
C148 O152 1.245 . S
C148 O153 1.259 . S
C149 O154 1.250 . S
C149 O155 1.263 . S
O150 Tb142 2.427 . S
O150 C146 1.275 . S
O151 Tb142 2.513 . S
O151 C146 1.246 . S
O152 Tb142 2.453 . S
O152 C148 1.245 . S
O153 Tb140 2.343 . S
O153 Tb142 2.596 . S
O153 C148 1.259 . S
O154 Tb142 2.374 . S
O154 C149 1.250 . S
O155 Tb140 2.353 . S
O155 C149 1.263 . S
C156 O157 1.275 . S
C156 O158 1.246 . S
O157 Tb140 2.427 . S
O157 C156 1.275 . S
O158 Tb140 2.513 . S
O158 C156 1.246 . S
C159 O143 1.245 . S
C159 O144 1.259 . S
Tb160 O163 2.453 . S
Tb160 O164 2.596 1_565 S
Tb160 O165 2.374 . S
Tb160 O173 2.343 1_455 S
Tb160 O175 2.353 . S
Tb160 O177 2.427 1_455 S
Tb160 O178 2.513 1_455 S
C161 O165 1.291 . S
C161 O167 1.226 1_565 S
Tb162 O164 2.343 1_655 S
Tb162 O167 2.353 1_655 S
Tb162 O170 2.427 1_655 S
Tb162 O171 2.513 1_655 S
Tb162 O172 2.453 . S
Tb162 O173 2.596 1_545 S
Tb162 O174 2.374 . S
O163 Tb160 2.453 . S
O163 C179 1.245 1_565 S
O164 Tb160 2.596 1_545 S
O164 Tb162 2.343 1_455 S
O164 C179 1.259 . S
O165 Tb160 2.374 . S
O165 C161 1.291 . S
C166 O170 1.275 . S
C166 O171 1.246 . S
O167 C161 1.226 1_545 S
O167 Tb162 2.353 1_455 S
C168 O172 1.245 1_565 S
C168 O173 1.259 . S
C169 O174 1.278 1_455 S
C169 O175 1.237 1_545 S
O170 Tb162 2.427 1_455 S
O170 C166 1.275 . S
O171 Tb162 2.513 1_455 S
O171 C166 1.246 . S
O172 Tb162 2.453 . S
O172 C168 1.245 1_545 S
O173 Tb160 2.343 1_655 S
O173 Tb162 2.596 1_565 S
O173 C168 1.259 . S
O174 Tb162 2.374 . S
O174 C169 1.278 1_655 S
O175 Tb160 2.353 . S
O175 C169 1.237 1_565 S
C176 O177 1.275 . S
C176 O178 1.246 . S
O177 Tb160 2.427 1_655 S
O177 C176 1.275 . S
O178 Tb160 2.513 1_655 S
O178 C176 1.246 . S
C179 O163 1.245 1_545 S
C179 O164 1.259 . S
Tb180 O183 2.453 . S
Tb180 O184 2.596 . S
Tb180 O185 2.374 . S
Tb180 O193 2.343 . S
Tb180 O195 2.353 . S
Tb180 O197 2.427 . S
Tb180 O198 2.513 . S
C181 O185 1.251 . S
C181 O187 1.263 . S
Tb182 O184 2.343 . S
Tb182 O187 2.353 . S
Tb182 O190 2.427 . S
Tb182 O191 2.513 . S
Tb182 O192 2.453 . S
Tb182 O193 2.596 . S
Tb182 O194 2.374 . S
O183 Tb180 2.453 . S
O183 C199 1.245 . S
O184 Tb180 2.596 . S
O184 Tb182 2.343 . S
O184 C199 1.259 . S
O185 Tb180 2.374 . S
O185 C181 1.251 . S
C186 O190 1.275 . S
C186 O191 1.246 . S
O187 C181 1.263 . S
O187 Tb182 2.353 . S
C188 O192 1.245 . S
C188 O193 1.259 . S
C189 O194 1.250 . S
C189 O195 1.263 . S
O190 Tb182 2.427 . S
O190 C186 1.275 . S
O191 Tb182 2.513 . S
O191 C186 1.246 . S
O192 Tb182 2.453 . S
O192 C188 1.245 . S
O193 Tb180 2.343 . S
O193 Tb182 2.596 . S
O193 C188 1.259 . S
O194 Tb182 2.374 . S
O194 C189 1.250 . S
O195 Tb180 2.353 . S
O195 C189 1.263 . S
C196 O197 1.275 . S
C196 O198 1.246 . S
O197 Tb180 2.427 . S
O197 C196 1.275 . S
O198 Tb180 2.513 . S
O198 C196 1.246 . S
C199 O183 1.245 . S
C199 O184 1.259 . S
Tb200 O203 2.453 . S
Tb200 O204 2.596 . S
Tb200 O205 2.374 . S
Tb200 O213 2.343 1_455 S
Tb200 O215 2.353 . S
Tb200 O217 2.427 1_455 S
Tb200 O218 2.513 1_455 S
C201 O205 1.251 . S
C201 O207 1.263 . S
Tb202 O204 2.343 1_655 S
Tb202 O207 2.353 1_655 S
Tb202 O210 2.427 1_655 S
Tb202 O211 2.513 1_655 S
Tb202 O212 2.453 . S
Tb202 O213 2.596 . S
Tb202 O214 2.374 . S
O203 Tb200 2.453 . S
O203 C219 1.245 . S
O204 Tb200 2.596 . S
O204 Tb202 2.343 1_455 S
O204 C219 1.259 . S
O205 Tb200 2.374 . S
O205 C201 1.251 . S
C206 O210 1.275 . S
C206 O211 1.246 . S
O207 C201 1.263 . S
O207 Tb202 2.353 1_455 S
C208 O212 1.245 . S
C208 O213 1.259 . S
C209 O214 1.250 1_455 S
C209 O215 1.263 . S
O210 Tb202 2.427 1_455 S
O210 C206 1.275 . S
O211 Tb202 2.513 1_455 S
O211 C206 1.246 . S
O212 Tb202 2.453 . S
O212 C208 1.245 . S
O213 Tb200 2.343 1_655 S
O213 Tb202 2.596 . S
O213 C208 1.259 . S
O214 Tb202 2.374 . S
O214 C209 1.250 1_655 S
O215 Tb200 2.353 . S
O215 C209 1.263 . S
C216 O217 1.275 . S
C216 O218 1.246 . S
O217 Tb200 2.427 1_655 S
O217 C216 1.275 . S
O218 Tb200 2.513 1_655 S
O218 C216 1.246 . S
C219 O203 1.245 . S
C219 O204 1.259 . S
Tb220 O223 2.453 . S
Tb220 O224 2.596 1_565 S
Tb220 O225 2.374 . S
Tb220 O233 2.343 . S
Tb220 O235 2.353 . S
Tb220 O237 2.427 . S
Tb220 O238 2.513 . S
C221 O225 1.291 . S
C221 O227 1.226 1_565 S
Tb222 O224 2.343 . S
Tb222 O227 2.353 . S
Tb222 O230 2.427 . S
Tb222 O231 2.513 . S
Tb222 O232 2.453 . S
Tb222 O233 2.596 1_545 S
Tb222 O234 2.374 . S
O223 Tb220 2.453 . S
O223 C239 1.245 1_565 S
O224 Tb220 2.596 1_545 S
O224 Tb222 2.343 . S
O224 C239 1.259 . S
O225 Tb220 2.374 . S
O225 C221 1.291 . S
C226 O230 1.275 . S
C226 O231 1.246 . S
O227 C221 1.226 1_545 S
O227 Tb222 2.353 . S
C228 O232 1.245 1_565 S
C228 O233 1.259 . S
C229 O234 1.278 . S
C229 O235 1.237 1_545 S
O230 Tb222 2.427 . S
O230 C226 1.275 . S
O231 Tb222 2.513 . S
O231 C226 1.246 . S
O232 Tb222 2.453 . S
O232 C228 1.245 1_545 S
O233 Tb220 2.343 . S
O233 Tb222 2.596 1_565 S
O233 C228 1.259 . S
O234 Tb222 2.374 . S
O234 C229 1.278 . S
O235 Tb220 2.353 . S
O235 C229 1.237 1_565 S
C236 O237 1.275 . S
C236 O238 1.246 . S
O237 Tb220 2.427 . S
O237 C236 1.275 . S
O238 Tb220 2.513 . S
O238 C236 1.246 . S
C239 O223 1.245 1_545 S
C239 O224 1.259 . S
Tb240 O243 2.453 . S
Tb240 O244 2.596 1_565 S
Tb240 O245 2.374 . S
Tb240 O253 2.343 1_455 S
Tb240 O255 2.353 1_455 S
Tb240 O257 2.427 1_455 S
Tb240 O258 2.513 1_455 S
C241 O245 1.278 1_655 S
C241 O247 1.237 1_565 S
Tb242 O244 2.343 1_655 S
Tb242 O247 2.353 . S
Tb242 O250 2.427 1_655 S
Tb242 O251 2.513 1_655 S
Tb242 O252 2.453 . S
Tb242 O253 2.596 1_545 S
Tb242 O254 2.374 . S
O243 Tb240 2.453 . S
O243 C259 1.245 1_565 S
O244 Tb240 2.596 1_545 S
O244 Tb242 2.343 1_455 S
O244 C259 1.259 . S
O245 Tb240 2.374 . S
O245 C241 1.278 1_455 S
C246 O250 1.275 . S
C246 O251 1.246 . S
O247 C241 1.237 1_545 S
O247 Tb242 2.353 . S
C248 O252 1.245 1_565 S
C248 O253 1.259 . S
C249 O254 1.291 . S
C249 O255 1.226 1_545 S
O250 Tb242 2.427 1_455 S
O250 C246 1.275 . S
O251 Tb242 2.513 1_455 S
O251 C246 1.246 . S
O252 Tb242 2.453 . S
O252 C248 1.245 1_545 S
O253 Tb240 2.343 1_655 S
O253 Tb242 2.596 1_565 S
O253 C248 1.259 . S
O254 Tb242 2.374 . S
O254 C249 1.291 . S
O255 Tb240 2.353 1_655 S
O255 C249 1.226 1_565 S
C256 O257 1.275 . S
C256 O258 1.246 . S
O257 Tb240 2.427 1_655 S
O257 C256 1.275 . S
O258 Tb240 2.513 1_655 S
O258 C256 1.246 . S
C259 O243 1.245 1_545 S
C259 O244 1.259 . S
Tb260 O263 2.453 . S
Tb260 O264 2.596 . S
Tb260 O265 2.374 . S
Tb260 O273 2.343 . S
Tb260 O275 2.353 . S
Tb260 O277 2.427 . S
Tb260 O278 2.513 . S
C261 O265 1.251 . S
C261 O267 1.263 . S
Tb262 O264 2.343 . S
Tb262 O267 2.353 . S
Tb262 O270 2.427 . S
Tb262 O271 2.513 . S
Tb262 O272 2.453 . S
Tb262 O273 2.596 . S
Tb262 O274 2.374 . S
O263 Tb260 2.453 . S
O263 C279 1.245 . S
O264 Tb260 2.596 . S
O264 Tb262 2.343 . S
O264 C279 1.259 . S
O265 Tb260 2.374 . S
O265 C261 1.251 . S
C266 O270 1.275 . S
C266 O271 1.246 . S
O267 C261 1.263 . S
O267 Tb262 2.353 . S
C268 O272 1.245 . S
C268 O273 1.259 . S
C269 O274 1.250 . S
C269 O275 1.263 . S
O270 Tb262 2.427 . S
O270 C266 1.275 . S
O271 Tb262 2.513 . S
O271 C266 1.246 . S
O272 Tb262 2.453 . S
O272 C268 1.245 . S
O273 Tb260 2.343 . S
O273 Tb262 2.596 . S
O273 C268 1.259 . S
O274 Tb262 2.374 . S
O274 C269 1.250 . S
O275 Tb260 2.353 . S
O275 C269 1.263 . S
C276 O277 1.275 . S
C276 O278 1.246 . S
O277 Tb260 2.427 . S
O277 C276 1.275 . S
O278 Tb260 2.513 . S
O278 C276 1.246 . S
C279 O263 1.245 . S
C279 O264 1.259 . S
Tb280 O283 2.453 . S
Tb280 O284 2.596 . S
Tb280 O285 2.374 . S
Tb280 O293 2.343 1_455 S
Tb280 O295 2.353 1_455 S
Tb280 O297 2.427 1_455 S
Tb280 O298 2.513 1_455 S
C281 O285 1.251 1_655 S
C281 O287 1.263 . S
Tb282 O284 2.343 1_655 S
Tb282 O287 2.353 . S
Tb282 O290 2.427 1_655 S
Tb282 O291 2.513 1_655 S
Tb282 O292 2.453 . S
Tb282 O293 2.596 . S
Tb282 O294 2.374 . S
O283 Tb280 2.453 . S
O283 C299 1.245 . S
O284 Tb280 2.596 . S
O284 Tb282 2.343 1_455 S
O284 C299 1.259 . S
O285 Tb280 2.374 . S
O285 C281 1.251 1_455 S
C286 O290 1.275 . S
C286 O291 1.246 . S
O287 C281 1.263 . S
O287 Tb282 2.353 . S
C288 O292 1.245 . S
C288 O293 1.259 . S
C289 O294 1.250 . S
C289 O295 1.263 . S
O290 Tb282 2.427 1_455 S
O290 C286 1.275 . S
O291 Tb282 2.513 1_455 S
O291 C286 1.246 . S
O292 Tb282 2.453 . S
O292 C288 1.245 . S
O293 Tb280 2.343 1_655 S
O293 Tb282 2.596 . S
O293 C288 1.259 . S
O294 Tb282 2.374 . S
O294 C289 1.250 . S
O295 Tb280 2.353 1_655 S
O295 C289 1.263 . S
C296 O297 1.275 . S
C296 O298 1.246 . S
O297 Tb280 2.427 1_655 S
O297 C296 1.275 . S
O298 Tb280 2.513 1_655 S
O298 C296 1.246 . S
C299 O283 1.245 . S
C299 O284 1.259 . S
Tb300 O303 2.453 . S
Tb300 O304 2.596 1_565 S
Tb300 O305 2.374 . S
Tb300 O313 2.343 . S
Tb300 O315 2.353 . S
Tb300 O317 2.427 . S
Tb300 O318 2.513 . S
C301 O305 1.278 . S
C301 O307 1.237 1_565 S
Tb302 O304 2.343 . S
Tb302 O307 2.353 . S
Tb302 O310 2.427 . S
Tb302 O311 2.513 . S
Tb302 O312 2.453 . S
Tb302 O313 2.596 1_545 S
Tb302 O314 2.374 . S
O303 Tb300 2.453 . S
O303 C319 1.245 1_565 S
O304 Tb300 2.596 1_545 S
O304 Tb302 2.343 . S
O304 C319 1.259 . S
O305 Tb300 2.374 . S
O305 C301 1.278 . S
C306 O310 1.275 . S
C306 O311 1.246 . S
O307 C301 1.237 1_545 S
O307 Tb302 2.353 . S
C308 O312 1.245 1_565 S
C308 O313 1.259 . S
C309 O314 1.291 . S
C309 O315 1.226 1_545 S
O310 Tb302 2.427 . S
O310 C306 1.275 . S
O311 Tb302 2.513 . S
O311 C306 1.246 . S
O312 Tb302 2.453 . S
O312 C308 1.245 1_545 S
O313 Tb300 2.343 . S
O313 Tb302 2.596 1_565 S
O313 C308 1.259 . S
O314 Tb302 2.374 . S
O314 C309 1.291 . S
O315 Tb300 2.353 . S
O315 C309 1.226 1_565 S
C316 O317 1.275 . S
C316 O318 1.246 . S
O317 Tb300 2.427 . S
O317 C316 1.275 . S
O318 Tb300 2.513 . S
O318 C316 1.246 . S
C319 O303 1.245 1_545 S
C319 O304 1.259 . S
Tb320 O323 2.453 . S
Tb320 O324 2.596 . S
Tb320 O325 2.374 . S
Tb320 O333 2.343 . S
Tb320 O335 2.353 . S
Tb320 O337 2.427 . S
Tb320 O338 2.513 . S
C321 O325 1.251 . S
C321 O327 1.263 . S
Tb322 O324 2.343 . S
Tb322 O327 2.353 . S
Tb322 O330 2.427 . S
Tb322 O331 2.513 . S
Tb322 O332 2.453 . S
Tb322 O333 2.596 . S
Tb322 O334 2.374 . S
O323 Tb320 2.453 . S
O323 C339 1.245 . S
O324 Tb320 2.596 . S
O324 Tb322 2.343 . S
O324 C339 1.259 . S
O325 Tb320 2.374 . S
O325 C321 1.251 . S
C326 O330 1.275 . S
C326 O331 1.246 . S
O327 C321 1.263 . S
O327 Tb322 2.353 . S
C328 O332 1.245 . S
C328 O333 1.259 . S
C329 O334 1.250 . S
C329 O335 1.263 . S
O330 Tb322 2.427 . S
O330 C326 1.275 . S
O331 Tb322 2.513 . S
O331 C326 1.246 . S
O332 Tb322 2.453 . S
O332 C328 1.245 . S
O333 Tb320 2.343 . S
O333 Tb322 2.596 . S
O333 C328 1.259 . S
O334 Tb322 2.374 . S
O334 C329 1.250 . S
O335 Tb320 2.353 . S
O335 C329 1.263 . S
C336 O337 1.275 . S
C336 O338 1.246 . S
O337 Tb320 2.427 . S
O337 C336 1.275 . S
O338 Tb320 2.513 . S
O338 C336 1.246 . S
C339 O323 1.245 . S
C339 O324 1.259 . S
Tb340 O343 2.453 . S
Tb340 O344 2.596 . S
Tb340 O345 2.374 . S
Tb340 O353 2.343 . S
Tb340 O355 2.353 . S
Tb340 O357 2.427 . S
Tb340 O358 2.513 . S
C341 O345 1.251 . S
C341 O347 1.263 . S
Tb342 O344 2.343 . S
Tb342 O347 2.353 . S
Tb342 O350 2.427 . S
Tb342 O351 2.513 . S
Tb342 O352 2.453 . S
Tb342 O353 2.596 . S
Tb342 O354 2.374 . S
O343 Tb340 2.453 . S
O343 C359 1.245 . S
O344 Tb340 2.596 . S
O344 Tb342 2.343 . S
O344 C359 1.259 . S
O345 Tb340 2.374 . S
O345 C341 1.251 . S
C346 O350 1.275 . S
C346 O351 1.246 . S
O347 C341 1.263 . S
O347 Tb342 2.353 . S
C348 O352 1.245 . S
C348 O353 1.259 . S
C349 O354 1.250 . S
C349 O355 1.263 . S
O350 Tb342 2.427 . S
O350 C346 1.275 . S
O351 Tb342 2.513 . S
O351 C346 1.246 . S
O352 Tb342 2.453 . S
O352 C348 1.245 . S
O353 Tb340 2.343 . S
O353 Tb342 2.596 . S
O353 C348 1.259 . S
O354 Tb342 2.374 . S
O354 C349 1.250 . S
O355 Tb340 2.353 . S
O355 C349 1.263 . S
C356 O357 1.275 . S
C356 O358 1.246 . S
O357 Tb340 2.427 . S
O357 C356 1.275 . S
O358 Tb340 2.513 . S
O358 C356 1.246 . S
C359 O343 1.245 . S
C359 O344 1.259 . S
Tb360 O363 2.453 . S
Tb360 O364 2.596 . S
Tb360 O365 2.374 . S
Tb360 O373 2.343 . S
Tb360 O375 2.353 . S
Tb360 O377 2.427 . S
Tb360 O378 2.513 . S
C361 O365 1.251 . S
C361 O367 1.263 . S
Tb362 O364 2.343 . S
Tb362 O367 2.353 . S
Tb362 O370 2.427 . S
Tb362 O371 2.513 . S
Tb362 O372 2.453 . S
Tb362 O373 2.596 . S
Tb362 O374 2.374 . S
O363 Tb360 2.453 . S
O363 C379 1.245 . S
O364 Tb360 2.596 . S
O364 Tb362 2.343 . S
O364 C379 1.259 . S
O365 Tb360 2.374 . S
O365 C361 1.251 . S
C366 O370 1.275 . S
C366 O371 1.246 . S
O367 C361 1.263 . S
O367 Tb362 2.353 . S
C368 O372 1.245 . S
C368 O373 1.259 . S
C369 O374 1.250 . S
C369 O375 1.263 . S
O370 Tb362 2.427 . S
O370 C366 1.275 . S
O371 Tb362 2.513 . S
O371 C366 1.246 . S
O372 Tb362 2.453 . S
O372 C368 1.245 . S
O373 Tb360 2.343 . S
O373 Tb362 2.596 . S
O373 C368 1.259 . S
O374 Tb362 2.374 . S
O374 C369 1.250 . S
O375 Tb360 2.353 . S
O375 C369 1.263 . S
C376 O377 1.275 . S
C376 O378 1.246 . S
O377 Tb360 2.427 . S
O377 C376 1.275 . S
O378 Tb360 2.513 . S
O378 C376 1.246 . S
C379 O363 1.245 . S
C379 O364 1.259 . S
Tb380 O383 2.453 . S
Tb380 O384 2.596 . S
Tb380 O385 2.374 . S
Tb380 O393 2.343 . S
Tb380 O395 2.353 . S
Tb380 O397 2.427 . S
Tb380 O398 2.513 . S
C381 O385 1.251 . S
C381 O387 1.263 . S
Tb382 O384 2.343 . S
Tb382 O387 2.353 . S
Tb382 O390 2.427 . S
Tb382 O391 2.513 . S
Tb382 O392 2.453 . S
Tb382 O393 2.596 . S
Tb382 O394 2.374 . S
O383 Tb380 2.453 . S
O383 C399 1.245 . S
O384 Tb380 2.596 . S
O384 Tb382 2.343 . S
O384 C399 1.259 . S
O385 Tb380 2.374 . S
O385 C381 1.251 . S
C386 O390 1.275 . S
C386 O391 1.246 . S
O387 C381 1.263 . S
O387 Tb382 2.353 . S
C388 O392 1.245 . S
C388 O393 1.259 . S
C389 O394 1.250 . S
C389 O395 1.263 . S
O390 Tb382 2.427 . S
O390 C386 1.275 . S
O391 Tb382 2.513 . S
O391 C386 1.246 . S
O392 Tb382 2.453 . S
O392 C388 1.245 . S
O393 Tb380 2.343 . S
O393 Tb382 2.596 . S
O393 C388 1.259 . S
O394 Tb382 2.374 . S
O394 C389 1.250 . S
O395 Tb380 2.353 . S
O395 C389 1.263 . S
C396 O397 1.275 . S
C396 O398 1.246 . S
O397 Tb380 2.427 . S
O397 C396 1.275 . S
O398 Tb380 2.513 . S
O398 C396 1.246 . S
C399 O383 1.245 . S
C399 O384 1.259 . S
Tb400 O403 2.453 . S
Tb400 O404 2.596 . S
Tb400 O405 2.374 . S
Tb400 O413 2.343 . S
Tb400 O415 2.353 . S
Tb400 O417 2.427 . S
Tb400 O418 2.513 . S
C401 O405 1.251 . S
C401 O407 1.263 . S
Tb402 O404 2.343 . S
Tb402 O407 2.353 . S
Tb402 O410 2.427 . S
Tb402 O411 2.513 . S
Tb402 O412 2.453 . S
Tb402 O413 2.596 . S
Tb402 O414 2.374 . S
O403 Tb400 2.453 . S
O403 C419 1.245 . S
O404 Tb400 2.596 . S
O404 Tb402 2.343 . S
O404 C419 1.259 . S
O405 Tb400 2.374 . S
O405 C401 1.251 . S
C406 O410 1.275 . S
C406 O411 1.246 . S
O407 C401 1.263 . S
O407 Tb402 2.353 . S
C408 O412 1.245 . S
C408 O413 1.259 . S
C409 O414 1.250 . S
C409 O415 1.263 . S
O410 Tb402 2.427 . S
O410 C406 1.275 . S
O411 Tb402 2.513 . S
O411 C406 1.246 . S
O412 Tb402 2.453 . S
O412 C408 1.245 . S
O413 Tb400 2.343 . S
O413 Tb402 2.596 . S
O413 C408 1.259 . S
O414 Tb402 2.374 . S
O414 C409 1.250 . S
O415 Tb400 2.353 . S
O415 C409 1.263 . S
C416 O417 1.275 . S
C416 O418 1.246 . S
O417 Tb400 2.427 . S
O417 C416 1.275 . S
O418 Tb400 2.513 . S
O418 C416 1.246 . S
C419 O403 1.245 . S
C419 O404 1.259 . S
Tb420 O423 2.453 . S
Tb420 O424 2.596 . S
Tb420 O425 2.374 . S
Tb420 O433 2.343 . S
Tb420 O435 2.353 . S
Tb420 O437 2.427 . S
Tb420 O438 2.513 . S
C421 O425 1.251 . S
C421 O427 1.263 . S
Tb422 O424 2.343 . S
Tb422 O427 2.353 . S
Tb422 O430 2.427 . S
Tb422 O431 2.513 . S
Tb422 O432 2.453 . S
Tb422 O433 2.596 . S
Tb422 O434 2.374 . S
O423 Tb420 2.453 . S
O423 C439 1.245 . S
O424 Tb420 2.596 . S
O424 Tb422 2.343 . S
O424 C439 1.259 . S
O425 Tb420 2.374 . S
O425 C421 1.251 . S
C426 O430 1.275 . S
C426 O431 1.246 . S
O427 C421 1.263 . S
O427 Tb422 2.353 . S
C428 O432 1.245 . S
C428 O433 1.259 . S
C429 O434 1.250 . S
C429 O435 1.263 . S
O430 Tb422 2.427 . S
O430 C426 1.275 . S
O431 Tb422 2.513 . S
O431 C426 1.246 . S
O432 Tb422 2.453 . S
O432 C428 1.245 . S
O433 Tb420 2.343 . S
O433 Tb422 2.596 . S
O433 C428 1.259 . S
O434 Tb422 2.374 . S
O434 C429 1.250 . S
O435 Tb420 2.353 . S
O435 C429 1.263 . S
C436 O437 1.275 . S
C436 O438 1.246 . S
O437 Tb420 2.427 . S
O437 C436 1.275 . S
O438 Tb420 2.513 . S
O438 C436 1.246 . S
C439 O423 1.245 . S
C439 O424 1.259 . S
Tb440 O443 2.453 . S
Tb440 O444 2.596 . S
Tb440 O445 2.374 . S
Tb440 O453 2.343 . S
Tb440 O455 2.353 . S
Tb440 O457 2.427 . S
Tb440 O458 2.513 . S
C441 O445 1.251 . S
C441 O447 1.263 . S
Tb442 O444 2.343 . S
Tb442 O447 2.353 . S
Tb442 O450 2.427 . S
Tb442 O451 2.513 . S
Tb442 O452 2.453 . S
Tb442 O453 2.596 . S
Tb442 O454 2.374 . S
O443 Tb440 2.453 . S
O443 C459 1.245 . S
O444 Tb440 2.596 . S
O444 Tb442 2.343 . S
O444 C459 1.259 . S
O445 Tb440 2.374 . S
O445 C441 1.251 . S
C446 O450 1.275 . S
C446 O451 1.246 . S
O447 C441 1.263 . S
O447 Tb442 2.353 . S
C448 O452 1.245 . S
C448 O453 1.259 . S
C449 O454 1.250 . S
C449 O455 1.263 . S
O450 Tb442 2.427 . S
O450 C446 1.275 . S
O451 Tb442 2.513 . S
O451 C446 1.246 . S
O452 Tb442 2.453 . S
O452 C448 1.245 . S
O453 Tb440 2.343 . S
O453 Tb442 2.596 . S
O453 C448 1.259 . S
O454 Tb442 2.374 . S
O454 C449 1.250 . S
O455 Tb440 2.353 . S
O455 C449 1.263 . S
C456 O457 1.275 . S
C456 O458 1.246 . S
O457 Tb440 2.427 . S
O457 C456 1.275 . S
O458 Tb440 2.513 . S
O458 C456 1.246 . S
C459 O443 1.245 . S
C459 O444 1.259 . S
Tb460 O463 2.453 . S
Tb460 O464 2.596 . S
Tb460 O465 2.374 . S
Tb460 O473 2.343 . S
Tb460 O475 2.353 . S
Tb460 O477 2.427 . S
Tb460 O478 2.513 . S
C461 O465 1.251 . S
C461 O467 1.263 . S
Tb462 O464 2.343 . S
Tb462 O467 2.353 . S
Tb462 O470 2.427 . S
Tb462 O471 2.513 . S
Tb462 O472 2.453 . S
Tb462 O473 2.596 . S
Tb462 O474 2.374 . S
O463 Tb460 2.453 . S
O463 C479 1.245 . S
O464 Tb460 2.596 . S
O464 Tb462 2.343 . S
O464 C479 1.259 . S
O465 Tb460 2.374 . S
O465 C461 1.251 . S
C466 O470 1.275 . S
C466 O471 1.246 . S
O467 C461 1.263 . S
O467 Tb462 2.353 . S
C468 O472 1.245 . S
C468 O473 1.259 . S
C469 O474 1.250 . S
C469 O475 1.263 . S
O470 Tb462 2.427 . S
O470 C466 1.275 . S
O471 Tb462 2.513 . S
O471 C466 1.246 . S
O472 Tb462 2.453 . S
O472 C468 1.245 . S
O473 Tb460 2.343 . S
O473 Tb462 2.596 . S
O473 C468 1.259 . S
O474 Tb462 2.374 . S
O474 C469 1.250 . S
O475 Tb460 2.353 . S
O475 C469 1.263 . S
C476 O477 1.275 . S
C476 O478 1.246 . S
O477 Tb460 2.427 . S
O477 C476 1.275 . S
O478 Tb460 2.513 . S
O478 C476 1.246 . S
C479 O463 1.245 . S
C479 O464 1.259 . S
Tb480 O483 2.453 . S
Tb480 O484 2.596 1_565 S
Tb480 O485 2.374 . S
Tb480 O493 2.343 . S
Tb480 O495 2.353 . S
Tb480 O497 2.427 . S
Tb480 O498 2.513 . S
C481 O485 1.291 . S
C481 O487 1.226 1_565 S
Tb482 O484 2.343 . S
Tb482 O487 2.353 . S
Tb482 O490 2.427 . S
Tb482 O491 2.513 . S
Tb482 O492 2.453 . S
Tb482 O493 2.596 1_545 S
Tb482 O494 2.374 . S
O483 Tb480 2.453 . S
O483 C499 1.245 1_565 S
O484 Tb480 2.596 1_545 S
O484 Tb482 2.343 . S
O484 C499 1.259 . S
O485 Tb480 2.374 . S
O485 C481 1.291 . S
C486 O490 1.275 . S
C486 O491 1.246 . S
O487 C481 1.226 1_545 S
O487 Tb482 2.353 . S
C488 O492 1.245 1_565 S
C488 O493 1.259 . S
C489 O494 1.278 . S
C489 O495 1.237 1_545 S
O490 Tb482 2.427 . S
O490 C486 1.275 . S
O491 Tb482 2.513 . S
O491 C486 1.246 . S
O492 Tb482 2.453 . S
O492 C488 1.245 1_545 S
O493 Tb480 2.343 . S
O493 Tb482 2.596 1_565 S
O493 C488 1.259 . S
O494 Tb482 2.374 . S
O494 C489 1.278 . S
O495 Tb480 2.353 . S
O495 C489 1.237 1_565 S
C496 O497 1.275 . S
C496 O498 1.246 . S
O497 Tb480 2.427 . S
O497 C496 1.275 . S
O498 Tb480 2.513 . S
O498 C496 1.246 . S
C499 O483 1.245 1_545 S
C499 O484 1.259 . S
Tb500 O503 2.453 . S
Tb500 O504 2.596 . S
Tb500 O505 2.374 . S
Tb500 O513 2.343 . S
Tb500 O515 2.353 . S
Tb500 O517 2.427 . S
Tb500 O518 2.513 . S
C501 O505 1.251 . S
C501 O507 1.263 . S
Tb502 O504 2.343 . S
Tb502 O507 2.353 . S
Tb502 O510 2.427 . S
Tb502 O511 2.513 . S
Tb502 O512 2.453 . S
Tb502 O513 2.596 . S
Tb502 O514 2.374 . S
O503 Tb500 2.453 . S
O503 C519 1.245 . S
O504 Tb500 2.596 . S
O504 Tb502 2.343 . S
O504 C519 1.259 . S
O505 Tb500 2.374 . S
O505 C501 1.251 . S
C506 O510 1.275 . S
C506 O511 1.246 . S
O507 C501 1.263 . S
O507 Tb502 2.353 . S
C508 O512 1.245 . S
C508 O513 1.259 . S
C509 O514 1.250 . S
C509 O515 1.263 . S
O510 Tb502 2.427 . S
O510 C506 1.275 . S
O511 Tb502 2.513 . S
O511 C506 1.246 . S
O512 Tb502 2.453 . S
O512 C508 1.245 . S
O513 Tb500 2.343 . S
O513 Tb502 2.596 . S
O513 C508 1.259 . S
O514 Tb502 2.374 . S
O514 C509 1.250 . S
O515 Tb500 2.353 . S
O515 C509 1.263 . S
C516 O517 1.275 . S
C516 O518 1.246 . S
O517 Tb500 2.427 . S
O517 C516 1.275 . S
O518 Tb500 2.513 . S
O518 C516 1.246 . S
C519 O503 1.245 . S
C519 O504 1.259 . S
Tb520 O523 2.453 . S
Tb520 O524 2.596 . S
Tb520 O525 2.374 . S
Tb520 O533 2.343 . S
Tb520 O535 2.353 . S
Tb520 O537 2.427 . S
Tb520 O538 2.513 . S
C521 O525 1.251 . S
C521 O527 1.263 . S
Tb522 O524 2.343 . S
Tb522 O527 2.353 . S
Tb522 O530 2.427 . S
Tb522 O531 2.513 . S
Tb522 O532 2.453 . S
Tb522 O533 2.596 . S
Tb522 O534 2.374 . S
O523 Tb520 2.453 . S
O523 C539 1.245 . S
O524 Tb520 2.596 . S
O524 Tb522 2.343 . S
O524 C539 1.259 . S
O525 Tb520 2.374 . S
O525 C521 1.251 . S
C526 O530 1.275 . S
C526 O531 1.246 . S
O527 C521 1.263 . S
O527 Tb522 2.353 . S
C528 O532 1.245 . S
C528 O533 1.259 . S
C529 O534 1.250 . S
C529 O535 1.263 . S
O530 Tb522 2.427 . S
O530 C526 1.275 . S
O531 Tb522 2.513 . S
O531 C526 1.246 . S
O532 Tb522 2.453 . S
O532 C528 1.245 . S
O533 Tb520 2.343 . S
O533 Tb522 2.596 . S
O533 C528 1.259 . S
O534 Tb522 2.374 . S
O534 C529 1.250 . S
O535 Tb520 2.353 . S
O535 C529 1.263 . S
C536 O537 1.275 . S
C536 O538 1.246 . S
O537 Tb520 2.427 . S
O537 C536 1.275 . S
O538 Tb520 2.513 . S
O538 C536 1.246 . S
C539 O523 1.245 . S
C539 O524 1.259 . S
Tb540 O543 2.453 . S
Tb540 O544 2.596 1_565 S
Tb540 O545 2.374 . S
Tb540 O553 2.343 . S
Tb540 O555 2.353 . S
Tb540 O557 2.427 . S
Tb540 O558 2.513 . S
C541 O545 1.291 . S
C541 O547 1.226 1_565 S
Tb542 O544 2.343 . S
Tb542 O547 2.353 . S
Tb542 O550 2.427 . S
Tb542 O551 2.513 . S
Tb542 O552 2.453 . S
Tb542 O553 2.596 1_545 S
Tb542 O554 2.374 . S
O543 Tb540 2.453 . S
O543 C559 1.245 1_565 S
O544 Tb540 2.596 1_545 S
O544 Tb542 2.343 . S
O544 C559 1.259 . S
O545 Tb540 2.374 . S
O545 C541 1.291 . S
C546 O550 1.275 . S
C546 O551 1.246 . S
O547 C541 1.226 1_545 S
O547 Tb542 2.353 . S
C548 O552 1.245 1_565 S
C548 O553 1.259 . S
C549 O554 1.278 . S
C549 O555 1.237 1_545 S
O550 Tb542 2.427 . S
O550 C546 1.275 . S
O551 Tb542 2.513 . S
O551 C546 1.246 . S
O552 Tb542 2.453 . S
O552 C548 1.245 1_545 S
O553 Tb540 2.343 . S
O553 Tb542 2.596 1_565 S
O553 C548 1.259 . S
O554 Tb542 2.374 . S
O554 C549 1.278 . S
O555 Tb540 2.353 . S
O555 C549 1.237 1_565 S
C556 O557 1.275 . S
C556 O558 1.246 . S
O557 Tb540 2.427 . S
O557 C556 1.275 . S
O558 Tb540 2.513 . S
O558 C556 1.246 . S
C559 O543 1.245 1_545 S
C559 O544 1.259 . S
Tb560 O563 2.453 . S
Tb560 O564 2.596 1_565 S
Tb560 O565 2.374 . S
Tb560 O573 2.343 . S
Tb560 O575 2.353 . S
Tb560 O577 2.427 . S
Tb560 O578 2.513 . S
C561 O565 1.278 . S
C561 O567 1.237 1_565 S
Tb562 O564 2.343 . S
Tb562 O567 2.353 . S
Tb562 O570 2.427 . S
Tb562 O571 2.513 . S
Tb562 O572 2.453 . S
Tb562 O573 2.596 1_545 S
Tb562 O574 2.374 . S
O563 Tb560 2.453 . S
O563 C579 1.245 1_565 S
O564 Tb560 2.596 1_545 S
O564 Tb562 2.343 . S
O564 C579 1.259 . S
O565 Tb560 2.374 . S
O565 C561 1.278 . S
C566 O570 1.275 . S
C566 O571 1.246 . S
O567 C561 1.237 1_545 S
O567 Tb562 2.353 . S
C568 O572 1.245 1_565 S
C568 O573 1.259 . S
C569 O574 1.291 . S
C569 O575 1.226 1_545 S
O570 Tb562 2.427 . S
O570 C566 1.275 . S
O571 Tb562 2.513 . S
O571 C566 1.246 . S
O572 Tb562 2.453 . S
O572 C568 1.245 1_545 S
O573 Tb560 2.343 . S
O573 Tb562 2.596 1_565 S
O573 C568 1.259 . S
O574 Tb562 2.374 . S
O574 C569 1.291 . S
O575 Tb560 2.353 . S
O575 C569 1.226 1_565 S
C576 O577 1.275 . S
C576 O578 1.246 . S
O577 Tb560 2.427 . S
O577 C576 1.275 . S
O578 Tb560 2.513 . S
O578 C576 1.246 . S
C579 O563 1.245 1_545 S
C579 O564 1.259 . S
Tb580 O583 2.453 . S
Tb580 O584 2.596 . S
Tb580 O585 2.374 . S
Tb580 O593 2.343 . S
Tb580 O595 2.353 . S
Tb580 O597 2.427 . S
Tb580 O598 2.513 . S
C581 O585 1.251 . S
C581 O587 1.263 . S
Tb582 O584 2.343 . S
Tb582 O587 2.353 . S
Tb582 O590 2.427 . S
Tb582 O591 2.513 . S
Tb582 O592 2.453 . S
Tb582 O593 2.596 . S
Tb582 O594 2.374 . S
O583 Tb580 2.453 . S
O583 C599 1.245 . S
O584 Tb580 2.596 . S
O584 Tb582 2.343 . S
O584 C599 1.259 . S
O585 Tb580 2.374 . S
O585 C581 1.251 . S
C586 O590 1.275 . S
C586 O591 1.246 . S
O587 C581 1.263 . S
O587 Tb582 2.353 . S
C588 O592 1.245 . S
C588 O593 1.259 . S
C589 O594 1.250 . S
C589 O595 1.263 . S
O590 Tb582 2.427 . S
O590 C586 1.275 . S
O591 Tb582 2.513 . S
O591 C586 1.246 . S
O592 Tb582 2.453 . S
O592 C588 1.245 . S
O593 Tb580 2.343 . S
O593 Tb582 2.596 . S
O593 C588 1.259 . S
O594 Tb582 2.374 . S
O594 C589 1.250 . S
O595 Tb580 2.353 . S
O595 C589 1.263 . S
C596 O597 1.275 . S
C596 O598 1.246 . S
O597 Tb580 2.427 . S
O597 C596 1.275 . S
O598 Tb580 2.513 . S
O598 C596 1.246 . S
C599 O583 1.245 . S
C599 O584 1.259 . S
Tb600 O603 2.453 . S
Tb600 O604 2.596 . S
Tb600 O605 2.374 . S
Tb600 O613 2.343 . S
Tb600 O615 2.353 . S
Tb600 O617 2.427 . S
Tb600 O618 2.513 . S
C601 O605 1.251 . S
C601 O607 1.263 . S
Tb602 O604 2.343 . S
Tb602 O607 2.353 . S
Tb602 O610 2.427 . S
Tb602 O611 2.513 . S
Tb602 O612 2.453 . S
Tb602 O613 2.596 . S
Tb602 O614 2.374 . S
O603 Tb600 2.453 . S
O603 C619 1.245 . S
O604 Tb600 2.596 . S
O604 Tb602 2.343 . S
O604 C619 1.259 . S
O605 Tb600 2.374 . S
O605 C601 1.251 . S
C606 O610 1.275 . S
C606 O611 1.246 . S
O607 C601 1.263 . S
O607 Tb602 2.353 . S
C608 O612 1.245 . S
C608 O613 1.259 . S
C609 O614 1.250 . S
C609 O615 1.263 . S
O610 Tb602 2.427 . S
O610 C606 1.275 . S
O611 Tb602 2.513 . S
O611 C606 1.246 . S
O612 Tb602 2.453 . S
O612 C608 1.245 . S
O613 Tb600 2.343 . S
O613 Tb602 2.596 . S
O613 C608 1.259 . S
O614 Tb602 2.374 . S
O614 C609 1.250 . S
O615 Tb600 2.353 . S
O615 C609 1.263 . S
C616 O617 1.275 . S
C616 O618 1.246 . S
O617 Tb600 2.427 . S
O617 C616 1.275 . S
O618 Tb600 2.513 . S
O618 C616 1.246 . S
C619 O603 1.245 . S
C619 O604 1.259 . S
Tb620 O623 2.453 . S
Tb620 O624 2.596 1_565 S
Tb620 O625 2.374 . S
Tb620 O633 2.343 . S
Tb620 O635 2.353 . S
Tb620 O637 2.427 . S
Tb620 O638 2.513 . S
C621 O625 1.278 . S
C621 O627 1.237 1_565 S
Tb622 O624 2.343 . S
Tb622 O627 2.353 . S
Tb622 O630 2.427 . S
Tb622 O631 2.513 . S
Tb622 O632 2.453 . S
Tb622 O633 2.596 1_545 S
Tb622 O634 2.374 . S
O623 Tb620 2.453 . S
O623 C639 1.245 1_565 S
O624 Tb620 2.596 1_545 S
O624 Tb622 2.343 . S
O624 C639 1.259 . S
O625 Tb620 2.374 . S
O625 C621 1.278 . S
C626 O630 1.275 . S
C626 O631 1.246 . S
O627 C621 1.237 1_545 S
O627 Tb622 2.353 . S
C628 O632 1.245 1_565 S
C628 O633 1.259 . S
C629 O634 1.291 . S
C629 O635 1.226 1_545 S
O630 Tb622 2.427 . S
O630 C626 1.275 . S
O631 Tb622 2.513 . S
O631 C626 1.246 . S
O632 Tb622 2.453 . S
O632 C628 1.245 1_545 S
O633 Tb620 2.343 . S
O633 Tb622 2.596 1_565 S
O633 C628 1.259 . S
O634 Tb622 2.374 . S
O634 C629 1.291 . S
O635 Tb620 2.353 . S
O635 C629 1.226 1_565 S
C636 O637 1.275 . S
C636 O638 1.246 . S
O637 Tb620 2.427 . S
O637 C636 1.275 . S
O638 Tb620 2.513 . S
O638 C636 1.246 . S
C639 O623 1.245 1_545 S
C639 O624 1.259 . S
H640 C646 0.930 . S
H641 C650 0.930 . S
H642 C655 0.929 . S
H643 C653 0.929 . S
H644 C648 0.929 . S
H645 C654 0.929 . S
C646 H640 0.930 . S
C646 C647 1.367 . S
C646 C654 1.378 . S
C647 C646 1.367 . S
C647 C655 1.433 . S
C648 H644 0.929 . S
C648 C650 1.378 . S
C648 C652 1.350 . S
C649 C652 1.463 . S
C649 C654 1.350 . S
C649 N657 1.427 . S
C650 H641 0.930 . S
C650 C648 1.378 . S
C650 C651 1.367 . S
C651 C650 1.367 . S
C651 C653 1.433 . S
C652 C648 1.350 . S
C652 C649 1.463 . S
C652 N656 1.427 . S
C653 H643 0.929 . S
C653 C651 1.433 . S
C653 N656 1.384 . S
C654 H645 0.929 . S
C654 C646 1.378 . S
C654 C649 1.350 . S
C655 H642 0.929 . S
C655 C647 1.433 . S
C655 N657 1.384 . S
N656 C652 1.427 . S
N656 C653 1.384 . S
N657 C649 1.427 . S
N657 C655 1.384 . S
H658 C664 0.930 . S
H659 C668 0.930 . S
H660 C673 0.929 . S
H661 C671 0.929 . S
H662 C666 0.929 . S
H663 C672 0.929 . S
C664 H658 0.930 . S
C664 C665 1.367 . S
C664 C672 1.378 . S
C665 C664 1.367 . S
C665 C673 1.433 . S
C666 H662 0.929 . S
C666 C668 1.378 . S
C666 C670 1.350 . S
C667 C670 1.463 . S
C667 C672 1.350 . S
C667 N675 1.427 . S
C668 H659 0.930 . S
C668 C666 1.378 . S
C668 C669 1.367 . S
C669 C668 1.367 . S
C669 C671 1.433 . S
C670 C666 1.350 . S
C670 C667 1.463 . S
C670 N674 1.427 . S
C671 H661 0.929 . S
C671 C669 1.433 . S
C671 N674 1.384 . S
C672 H663 0.929 . S
C672 C664 1.378 . S
C672 C667 1.350 . S
C673 H660 0.929 . S
C673 C665 1.433 . S
C673 N675 1.384 . S
N674 C670 1.427 . S
N674 C671 1.384 . S
N675 C667 1.427 . S
N675 C673 1.384 . S
H676 C682 0.930 . S
H677 C686 0.930 . S
H678 C691 0.929 . S
H679 C689 0.929 . S
H680 C684 0.929 . S
H681 C690 0.929 . S
C682 H676 0.930 . S
C682 C683 1.367 . S
C682 C690 1.378 . S
C683 C682 1.367 . S
C683 C691 1.433 . S
C684 H680 0.929 . S
C684 C686 1.378 . S
C684 C688 1.350 . S
C685 C688 1.463 . S
C685 C690 1.350 . S
C685 N693 1.427 . S
C686 H677 0.930 . S
C686 C684 1.378 . S
C686 C687 1.367 . S
C687 C686 1.367 . S
C687 C689 1.433 . S
C688 C684 1.350 . S
C688 C685 1.463 . S
C688 N692 1.427 . S
C689 H679 0.929 . S
C689 C687 1.433 . S
C689 N692 1.384 . S
C690 H681 0.929 . S
C690 C682 1.378 . S
C690 C685 1.350 . S
C691 H678 0.929 . S
C691 C683 1.433 . S
C691 N693 1.384 . S
N692 C688 1.427 . S
N692 C689 1.384 . S
N693 C685 1.427 . S
N693 C691 1.384 . S
H694 C700 0.930 . S
H695 C704 0.930 . S
H696 C709 0.929 . S
H697 C707 0.929 . S
H698 C702 0.929 . S
H699 C708 0.929 . S
C700 H694 0.930 . S
C700 C701 1.367 . S
C700 C708 1.378 . S
C701 C700 1.367 . S
C701 C709 1.433 . S
C702 H698 0.929 . S
C702 C704 1.378 . S
C702 C706 1.350 . S
C703 C706 1.463 . S
C703 C708 1.350 . S
C703 N711 1.427 . S
C704 H695 0.930 . S
C704 C702 1.378 . S
C704 C705 1.367 . S
C705 C704 1.367 . S
C705 C707 1.433 . S
C706 C702 1.350 . S
C706 C703 1.463 . S
C706 N710 1.427 . S
C707 H697 0.929 . S
C707 C705 1.433 . S
C707 N710 1.384 . S
C708 H699 0.929 . S
C708 C700 1.378 . S
C708 C703 1.350 . S
C709 H696 0.929 . S
C709 C701 1.433 . S
C709 N711 1.384 . S
N710 C706 1.427 . S
N710 C707 1.384 . S
N711 C703 1.427 . S
N711 C709 1.384 . S
H712 C718 0.930 . S
H713 C722 0.930 . S
H714 C727 0.929 . S
H715 C725 0.929 . S
H716 C720 0.929 . S
H717 C726 0.929 . S
C718 H712 0.930 . S
C718 C719 1.367 . S
C718 C726 1.378 . S
C719 C718 1.367 . S
C719 C727 1.433 . S
C720 H716 0.929 . S
C720 C722 1.378 . S
C720 C724 1.350 . S
C721 C724 1.463 . S
C721 C726 1.350 . S
C721 N729 1.427 . S
C722 H713 0.930 . S
C722 C720 1.378 . S
C722 C723 1.367 . S
C723 C722 1.367 . S
C723 C725 1.433 . S
C724 C720 1.350 . S
C724 C721 1.463 . S
C724 N728 1.427 . S
C725 H715 0.929 . S
C725 C723 1.433 . S
C725 N728 1.384 . S
C726 H717 0.929 . S
C726 C718 1.378 . S
C726 C721 1.350 . S
C727 H714 0.929 . S
C727 C719 1.433 . S
C727 N729 1.384 . S
N728 C724 1.427 . S
N728 C725 1.384 . S
N729 C721 1.427 . S
N729 C727 1.384 . S
H730 C736 0.930 . S
H731 C740 0.930 . S
H732 C745 0.929 . S
H733 C743 0.929 . S
H734 C738 0.929 . S
H735 C744 0.929 . S
C736 H730 0.930 . S
C736 C737 1.367 . S
C736 C744 1.378 . S
C737 C736 1.367 . S
C737 C745 1.433 . S
C738 H734 0.929 . S
C738 C740 1.378 . S
C738 C742 1.350 . S
C739 C742 1.463 . S
C739 C744 1.350 . S
C739 N747 1.427 . S
C740 H731 0.930 . S
C740 C738 1.378 . S
C740 C741 1.367 . S
C741 C740 1.367 . S
C741 C743 1.433 . S
C742 C738 1.350 . S
C742 C739 1.463 . S
C742 N746 1.427 . S
C743 H733 0.929 . S
C743 C741 1.433 . S
C743 N746 1.384 . S
C744 H735 0.929 . S
C744 C736 1.378 . S
C744 C739 1.350 . S
C745 H732 0.929 . S
C745 C737 1.433 . S
C745 N747 1.384 . S
N746 C742 1.427 . S
N746 C743 1.384 . S
N747 C739 1.427 . S
N747 C745 1.384 . S
H748 C754 0.930 . S
H749 C758 0.930 . S
H750 C763 0.929 . S
H751 C761 0.929 . S
H752 C756 0.929 . S
H753 C762 0.929 . S
C754 H748 0.930 . S
C754 C755 1.367 . S
C754 C762 1.378 . S
C755 C754 1.367 . S
C755 C763 1.433 . S
C756 H752 0.929 . S
C756 C758 1.378 . S
C756 C760 1.350 . S
C757 C760 1.463 . S
C757 C762 1.350 . S
C757 N765 1.427 . S
C758 H749 0.930 . S
C758 C756 1.378 . S
C758 C759 1.367 . S
C759 C758 1.367 . S
C759 C761 1.433 . S
C760 C756 1.350 . S
C760 C757 1.463 . S
C760 N764 1.427 . S
C761 H751 0.929 . S
C761 C759 1.433 . S
C761 N764 1.384 . S
C762 H753 0.929 . S
C762 C754 1.378 . S
C762 C757 1.350 . S
C763 H750 0.929 . S
C763 C755 1.433 . S
C763 N765 1.384 . S
N764 C760 1.427 . S
N764 C761 1.384 . S
N765 C757 1.427 . S
N765 C763 1.384 . S
H766 C772 0.930 . S
H767 C776 0.930 . S
H768 C781 0.929 . S
H769 C779 0.929 . S
H770 C774 0.929 . S
H771 C780 0.929 . S
C772 H766 0.930 . S
C772 C773 1.367 . S
C772 C780 1.378 . S
C773 C772 1.367 . S
C773 C781 1.433 . S
C774 H770 0.929 . S
C774 C776 1.378 . S
C774 C778 1.350 . S
C775 C778 1.463 . S
C775 C780 1.350 . S
C775 N783 1.427 . S
C776 H767 0.930 . S
C776 C774 1.378 . S
C776 C777 1.367 . S
C777 C776 1.367 . S
C777 C779 1.433 . S
C778 C774 1.350 . S
C778 C775 1.463 . S
C778 N782 1.427 . S
C779 H769 0.929 . S
C779 C777 1.433 . S
C779 N782 1.384 . S
C780 H771 0.929 . S
C780 C772 1.378 . S
C780 C775 1.350 . S
C781 H768 0.929 . S
C781 C773 1.433 . S
C781 N783 1.384 . S
N782 C778 1.427 . S
N782 C779 1.384 . S
N783 C775 1.427 . S
N783 C781 1.384 . S
H784 C790 0.930 . S
H785 C794 0.930 . S
H786 C799 0.929 . S
H787 C797 0.929 . S
H788 C792 0.929 . S
H789 C798 0.929 . S
C790 H784 0.930 . S
C790 C791 1.367 . S
C790 C798 1.378 . S
C791 C790 1.367 . S
C791 C799 1.433 . S
C792 H788 0.929 . S
C792 C794 1.378 . S
C792 C796 1.350 . S
C793 C796 1.463 . S
C793 C798 1.350 . S
C793 N801 1.427 . S
C794 H785 0.930 . S
C794 C792 1.378 . S
C794 C795 1.367 . S
C795 C794 1.367 . S
C795 C797 1.433 . S
C796 C792 1.350 . S
C796 C793 1.463 . S
C796 N800 1.427 . S
C797 H787 0.929 . S
C797 C795 1.433 . S
C797 N800 1.384 . S
C798 H789 0.929 . S
C798 C790 1.378 . S
C798 C793 1.350 . S
C799 H786 0.929 . S
C799 C791 1.433 . S
C799 N801 1.384 . S
N800 C796 1.427 . S
N800 C797 1.384 . S
N801 C793 1.427 . S
N801 C799 1.384 . S
H802 C808 0.930 . S
H803 C812 0.930 . S
H804 C817 0.929 . S
H805 C815 0.929 . S
H806 C810 0.929 . S
H807 C816 0.929 . S
C808 H802 0.930 . S
C808 C809 1.367 . S
C808 C816 1.378 . S
C809 C808 1.367 . S
C809 C817 1.433 . S
C810 H806 0.929 . S
C810 C812 1.378 . S
C810 C814 1.350 . S
C811 C814 1.463 . S
C811 C816 1.350 . S
C811 N819 1.427 . S
C812 H803 0.930 . S
C812 C810 1.378 . S
C812 C813 1.367 . S
C813 C812 1.367 . S
C813 C815 1.433 . S
C814 C810 1.350 . S
C814 C811 1.463 . S
C814 N818 1.427 . S
C815 H805 0.929 . S
C815 C813 1.433 . S
C815 N818 1.384 . S
C816 H807 0.929 . S
C816 C808 1.378 . S
C816 C811 1.350 . S
C817 H804 0.929 . S
C817 C809 1.433 . S
C817 N819 1.384 . S
N818 C814 1.427 . S
N818 C815 1.384 . S
N819 C811 1.427 . S
N819 C817 1.384 . S
H820 C826 0.930 . S
H821 C830 0.930 . S
H822 C835 0.929 . S
H823 C833 0.929 . S
H824 C828 0.929 . S
H825 C834 0.929 . S
C826 H820 0.930 . S
C826 C827 1.367 . S
C826 C834 1.378 . S
C827 C826 1.367 . S
C827 C835 1.433 . S
C828 H824 0.929 . S
C828 C830 1.378 . S
C828 C832 1.350 . S
C829 C832 1.463 . S
C829 C834 1.350 . S
C829 N837 1.427 . S
C830 H821 0.930 . S
C830 C828 1.378 . S
C830 C831 1.367 . S
C831 C830 1.367 . S
C831 C833 1.433 . S
C832 C828 1.350 . S
C832 C829 1.463 . S
C832 N836 1.427 . S
C833 H823 0.929 . S
C833 C831 1.433 . S
C833 N836 1.384 . S
C834 H825 0.929 . S
C834 C826 1.378 . S
C834 C829 1.350 . S
C835 H822 0.929 . S
C835 C827 1.433 . S
C835 N837 1.384 . S
N836 C832 1.427 . S
N836 C833 1.384 . S
N837 C829 1.427 . S
N837 C835 1.384 . S
H838 C844 0.930 . S
H839 C848 0.930 . S
H840 C853 0.929 . S
H841 C851 0.929 . S
H842 C846 0.929 . S
H843 C852 0.929 . S
C844 H838 0.930 . S
C844 C845 1.367 . S
C844 C852 1.378 . S
C845 C844 1.367 . S
C845 C853 1.433 . S
C846 H842 0.929 . S
C846 C848 1.378 . S
C846 C850 1.350 . S
C847 C850 1.463 . S
C847 C852 1.350 . S
C847 N855 1.427 . S
C848 H839 0.930 . S
C848 C846 1.378 . S
C848 C849 1.367 . S
C849 C848 1.367 . S
C849 C851 1.433 . S
C850 C846 1.350 . S
C850 C847 1.463 . S
C850 N854 1.427 . S
C851 H841 0.929 . S
C851 C849 1.433 . S
C851 N854 1.384 . S
C852 H843 0.929 . S
C852 C844 1.378 . S
C852 C847 1.350 . S
C853 H840 0.929 . S
C853 C845 1.433 . S
C853 N855 1.384 . S
N854 C850 1.427 . S
N854 C851 1.384 . S
N855 C847 1.427 . S
N855 C853 1.384 . S
H856 C862 0.930 . S
H857 C866 0.930 . S
H858 C871 0.929 . S
H859 C869 0.929 . S
H860 C864 0.929 . S
H861 C870 0.929 . S
C862 H856 0.930 . S
C862 C863 1.367 . S
C862 C870 1.378 . S
C863 C862 1.367 . S
C863 C871 1.433 . S
C864 H860 0.929 . S
C864 C866 1.378 . S
C864 C868 1.350 . S
C865 C868 1.463 . S
C865 C870 1.350 . S
C865 N873 1.427 . S
C866 H857 0.930 . S
C866 C864 1.378 . S
C866 C867 1.367 . S
C867 C866 1.367 . S
C867 C869 1.433 . S
C868 C864 1.350 . S
C868 C865 1.463 . S
C868 N872 1.427 . S
C869 H859 0.929 . S
C869 C867 1.433 . S
C869 N872 1.384 . S
C870 H861 0.929 . S
C870 C862 1.378 . S
C870 C865 1.350 . S
C871 H858 0.929 . S
C871 C863 1.433 . S
C871 N873 1.384 . S
N872 C868 1.427 . S
N872 C869 1.384 . S
N873 C865 1.427 . S
N873 C871 1.384 . S
H874 C880 0.930 . S
H875 C884 0.930 . S
H876 C889 0.929 . S
H877 C887 0.929 . S
H878 C882 0.929 . S
H879 C888 0.929 . S
C880 H874 0.930 . S
C880 C881 1.367 . S
C880 C888 1.378 . S
C881 C880 1.367 . S
C881 C889 1.433 . S
C882 H878 0.929 . S
C882 C884 1.378 . S
C882 C886 1.350 . S
C883 C886 1.463 . S
C883 C888 1.350 . S
C883 N891 1.427 . S
C884 H875 0.930 . S
C884 C882 1.378 . S
C884 C885 1.367 . S
C885 C884 1.367 . S
C885 C887 1.433 . S
C886 C882 1.350 . S
C886 C883 1.463 . S
C886 N890 1.427 . S
C887 H877 0.929 . S
C887 C885 1.433 . S
C887 N890 1.384 . S
C888 H879 0.929 . S
C888 C880 1.378 . S
C888 C883 1.350 . S
C889 H876 0.929 . S
C889 C881 1.433 . S
C889 N891 1.384 . S
N890 C886 1.427 . S
N890 C887 1.384 . S
N891 C883 1.427 . S
N891 C889 1.384 . S
H892 C898 0.930 . S
H893 C902 0.930 . S
H894 C907 0.929 . S
H895 C905 0.929 . S
H896 C900 0.929 . S
H897 C906 0.929 . S
C898 H892 0.930 . S
C898 C899 1.367 . S
C898 C906 1.378 . S
C899 C898 1.367 . S
C899 C907 1.433 . S
C900 H896 0.929 . S
C900 C902 1.378 . S
C900 C904 1.350 . S
C901 C904 1.463 . S
C901 C906 1.350 . S
C901 N909 1.427 . S
C902 H893 0.930 . S
C902 C900 1.378 . S
C902 C903 1.367 . S
C903 C902 1.367 . S
C903 C905 1.433 . S
C904 C900 1.350 . S
C904 C901 1.463 . S
C904 N908 1.427 . S
C905 H895 0.929 . S
C905 C903 1.433 . S
C905 N908 1.384 . S
C906 H897 0.929 . S
C906 C898 1.378 . S
C906 C901 1.350 . S
C907 H894 0.929 . S
C907 C899 1.433 . S
C907 N909 1.384 . S
N908 C904 1.427 . S
N908 C905 1.384 . S
N909 C901 1.427 . S
N909 C907 1.384 . S
H910 C916 0.930 . S
H911 C920 0.930 . S
H912 C925 0.929 . S
H913 C923 0.929 . S
H914 C918 0.929 . S
H915 C924 0.929 . S
C916 H910 0.930 . S
C916 C917 1.367 . S
C916 C924 1.378 . S
C917 C916 1.367 . S
C917 C925 1.433 . S
C918 H914 0.929 . S
C918 C920 1.378 . S
C918 C922 1.350 . S
C919 C922 1.463 . S
C919 C924 1.350 . S
C919 N927 1.427 . S
C920 H911 0.930 . S
C920 C918 1.378 . S
C920 C921 1.367 . S
C921 C920 1.367 . S
C921 C923 1.433 . S
C922 C918 1.350 . S
C922 C919 1.463 . S
C922 N926 1.427 . S
C923 H913 0.929 . S
C923 C921 1.433 . S
C923 N926 1.384 . S
C924 H915 0.929 . S
C924 C916 1.378 . S
C924 C919 1.350 . S
C925 H912 0.929 . S
C925 C917 1.433 . S
C925 N927 1.384 . S
N926 C922 1.427 . S
N926 C923 1.384 . S
N927 C919 1.427 . S
N927 C925 1.384 . S
H928 C934 0.930 . S
H929 C938 0.930 . S
H930 C943 0.929 . S
H931 C941 0.929 . S
H932 C936 0.929 . S
H933 C942 0.929 . S
C934 H928 0.930 . S
C934 C935 1.367 . S
C934 C942 1.378 . S
C935 C934 1.367 . S
C935 C943 1.433 . S
C936 H932 0.929 . S
C936 C938 1.378 . S
C936 C940 1.350 . S
C937 C940 1.463 . S
C937 C942 1.350 . S
C937 N945 1.427 . S
C938 H929 0.930 . S
C938 C936 1.378 . S
C938 C939 1.367 . S
C939 C938 1.367 . S
C939 C941 1.433 . S
C940 C936 1.350 . S
C940 C937 1.463 . S
C940 N944 1.427 . S
C941 H931 0.929 . S
C941 C939 1.433 . S
C941 N944 1.384 . S
C942 H933 0.929 . S
C942 C934 1.378 . S
C942 C937 1.350 . S
C943 H930 0.929 . S
C943 C935 1.433 . S
C943 N945 1.384 . S
N944 C940 1.427 . S
N944 C941 1.384 . S
N945 C937 1.427 . S
N945 C943 1.384 . S
H946 C952 0.930 . S
H947 C956 0.930 . S
H948 C961 0.929 . S
H949 C959 0.929 1_655 S
H950 C954 0.929 . S
H951 C960 0.929 . S
C952 H946 0.930 . S
C952 C953 1.367 . S
C952 C960 1.378 . S
C953 C952 1.367 . S
C953 C961 1.433 . S
C954 H950 0.929 . S
C954 C956 1.378 . S
C954 C958 1.350 . S
C955 C958 1.463 . S
C955 C960 1.350 . S
C955 N963 1.427 . S
C956 H947 0.930 . S
C956 C954 1.378 . S
C956 C957 1.367 . S
C957 C956 1.367 . S
C957 C959 1.433 . S
C958 C954 1.350 . S
C958 C955 1.463 . S
C958 N962 1.427 . S
C959 H949 0.929 1_455 S
C959 C957 1.433 . S
C959 N962 1.384 . S
C960 H951 0.929 . S
C960 C952 1.378 . S
C960 C955 1.350 . S
C961 H948 0.929 . S
C961 C953 1.433 . S
C961 N963 1.384 . S
N962 C958 1.427 . S
N962 C959 1.384 . S
N963 C955 1.427 . S
N963 C961 1.384 . S
H964 C970 0.930 . S
H965 C974 0.930 . S
H966 C979 0.929 . S
H967 C977 0.929 . S
H968 C972 0.929 . S
H969 C978 0.929 . S
C970 H964 0.930 . S
C970 C971 1.367 . S
C970 C978 1.378 . S
C971 C970 1.367 . S
C971 C979 1.433 . S
C972 H968 0.929 . S
C972 C974 1.378 . S
C972 C976 1.350 . S
C973 C976 1.463 . S
C973 C978 1.350 . S
C973 N981 1.427 . S
C974 H965 0.930 . S
C974 C972 1.378 . S
C974 C975 1.367 . S
C975 C974 1.367 . S
C975 C977 1.433 . S
C976 C972 1.350 . S
C976 C973 1.463 . S
C976 N980 1.427 . S
C977 H967 0.929 . S
C977 C975 1.433 . S
C977 N980 1.384 . S
C978 H969 0.929 . S
C978 C970 1.378 . S
C978 C973 1.350 . S
C979 H966 0.929 . S
C979 C971 1.433 . S
C979 N981 1.384 . S
N980 C976 1.427 . S
N980 C977 1.384 . S
N981 C973 1.427 . S
N981 C979 1.384 . S
H982 C988 0.930 1_455 S
H983 C992 0.930 . S
H984 C997 0.929 . S
H985 C995 0.929 . S
H986 C990 0.929 . S
H987 C996 0.929 . S
C988 H982 0.930 1_655 S
C988 C989 1.367 . S
C988 C996 1.378 . S
C989 C988 1.367 . S
C989 C997 1.433 . S
C990 H986 0.929 . S
C990 C992 1.378 . S
C990 C994 1.350 . S
C991 C994 1.463 . S
C991 C996 1.350 . S
C991 N999 1.427 . S
C992 H983 0.930 . S
C992 C990 1.378 . S
C992 C993 1.367 . S
C993 C992 1.367 . S
C993 C995 1.433 . S
C994 C990 1.350 . S
C994 C991 1.463 . S
C994 N998 1.427 . S
C995 H985 0.929 . S
C995 C993 1.433 . S
C995 N998 1.384 . S
C996 H987 0.929 . S
C996 C988 1.378 . S
C996 C991 1.350 . S
C997 H984 0.929 . S
C997 C989 1.433 . S
C997 N999 1.384 . S
N998 C994 1.427 . S
N998 C995 1.384 . S
N999 C991 1.427 . S
N999 C997 1.384 . S
H1000 C1006 0.930 . S
H1001 C1010 0.930 . S
H1002 C1015 0.929 1_655 S
H1003 C1013 0.929 . S
H1004 C1008 0.929 . S
H1005 C1014 0.929 . S
C1006 H1000 0.930 . S
C1006 C1007 1.370 1_565 S
C1006 C1014 1.378 . S
C1007 C1006 1.370 1_545 S
C1007 C1015 1.430 . S
C1008 H1004 0.929 . S
C1008 C1010 1.378 . S
C1008 C1012 1.379 . S
C1009 C1012 1.461 1_565 S
C1009 C1014 1.350 . S
C1009 N1017 1.427 1_565 S
C1010 H1001 0.930 . S
C1010 C1008 1.378 . S
C1010 C1011 1.390 . S
C1011 C1010 1.390 . S
C1011 C1013 1.410 1_545 S
C1012 C1008 1.379 . S
C1012 C1009 1.461 1_545 S
C1012 N1016 1.399 1_545 S
C1013 H1003 0.929 . S
C1013 C1011 1.410 1_565 S
C1013 N1016 1.384 . S
C1014 H1005 0.929 . S
C1014 C1006 1.378 . S
C1014 C1009 1.350 . S
C1015 H1002 0.929 1_455 S
C1015 C1007 1.430 . S
C1015 N1017 1.384 . S
N1016 C1012 1.399 1_565 S
N1016 C1013 1.384 . S
N1017 C1009 1.427 1_545 S
N1017 C1015 1.384 . S
H1018 C1024 0.930 . S
H1019 C1028 0.930 . S
H1020 C1033 0.929 . S
H1021 C1031 0.929 1_655 S
H1022 C1026 0.929 . S
H1023 C1032 0.929 . S
C1024 H1018 0.930 . S
C1024 C1025 1.367 . S
C1024 C1032 1.378 . S
C1025 C1024 1.367 . S
C1025 C1033 1.433 . S
C1026 H1022 0.929 . S
C1026 C1028 1.378 . S
C1026 C1030 1.350 . S
C1027 C1030 1.463 . S
C1027 C1032 1.350 . S
C1027 N1035 1.427 . S
C1028 H1019 0.930 . S
C1028 C1026 1.378 . S
C1028 C1029 1.367 . S
C1029 C1028 1.367 . S
C1029 C1031 1.433 . S
C1030 C1026 1.350 . S
C1030 C1027 1.463 . S
C1030 N1034 1.427 . S
C1031 H1021 0.929 1_455 S
C1031 C1029 1.433 . S
C1031 N1034 1.384 . S
C1032 H1023 0.929 . S
C1032 C1024 1.378 . S
C1032 C1027 1.350 . S
C1033 H1020 0.929 . S
C1033 C1025 1.433 . S
C1033 N1035 1.384 . S
N1034 C1030 1.427 . S
N1034 C1031 1.384 . S
N1035 C1027 1.427 . S
N1035 C1033 1.384 . S
H1036 C1042 0.930 1_455 S
H1037 C1046 0.930 . S
H1038 C1051 0.929 . S
H1039 C1049 0.929 . S
H1040 C1044 0.929 . S
H1041 C1050 0.929 . S
C1042 H1036 0.930 1_655 S
C1042 C1043 1.380 . S
C1042 C1050 1.378 . S
C1043 C1042 1.380 . S
C1043 C1051 1.421 1_565 S
C1044 H1040 0.929 . S
C1044 C1046 1.378 . S
C1044 C1048 1.352 1_545 S
C1045 C1048 1.462 . S
C1045 C1050 1.366 . S
C1045 N1053 1.412 1_565 S
C1046 H1037 0.930 . S
C1046 C1044 1.378 . S
C1046 C1047 1.366 1_545 S
C1047 C1046 1.366 1_565 S
C1047 C1049 1.434 . S
C1048 C1044 1.352 1_565 S
C1048 C1045 1.462 . S
C1048 N1052 1.425 . S
C1049 H1039 0.929 . S
C1049 C1047 1.434 . S
C1049 N1052 1.384 . S
C1050 H1041 0.929 . S
C1050 C1042 1.378 . S
C1050 C1045 1.366 . S
C1051 H1038 0.929 . S
C1051 C1043 1.421 1_545 S
C1051 N1053 1.384 . S
N1052 C1048 1.425 . S
N1052 C1049 1.384 . S
N1053 C1045 1.412 1_545 S
N1053 C1051 1.384 . S
H1054 C1060 0.930 . S
H1055 C1064 0.930 . S
H1056 C1069 0.929 . S
H1057 C1067 0.929 . S
H1058 C1062 0.929 . S
H1059 C1068 0.929 . S
C1060 H1054 0.930 . S
C1060 C1061 1.367 . S
C1060 C1068 1.378 . S
C1061 C1060 1.367 . S
C1061 C1069 1.433 . S
C1062 H1058 0.929 . S
C1062 C1064 1.378 . S
C1062 C1066 1.350 . S
C1063 C1066 1.463 . S
C1063 C1068 1.350 . S
C1063 N1071 1.427 . S
C1064 H1055 0.930 . S
C1064 C1062 1.378 . S
C1064 C1065 1.367 . S
C1065 C1064 1.367 . S
C1065 C1067 1.433 . S
C1066 C1062 1.350 . S
C1066 C1063 1.463 . S
C1066 N1070 1.427 . S
C1067 H1057 0.929 . S
C1067 C1065 1.433 . S
C1067 N1070 1.384 . S
C1068 H1059 0.929 . S
C1068 C1060 1.378 . S
C1068 C1063 1.350 . S
C1069 H1056 0.929 . S
C1069 C1061 1.433 . S
C1069 N1071 1.384 . S
N1070 C1066 1.427 . S
N1070 C1067 1.384 . S
N1071 C1063 1.427 . S
N1071 C1069 1.384 . S
H1072 C1078 0.930 . S
H1073 C1082 0.930 . S
H1074 C1087 0.929 . S
H1075 C1085 0.929 . S
H1076 C1080 0.929 . S
H1077 C1086 0.929 . S
C1078 H1072 0.930 . S
C1078 C1079 1.367 . S
C1078 C1086 1.378 . S
C1079 C1078 1.367 . S
C1079 C1087 1.433 . S
C1080 H1076 0.929 . S
C1080 C1082 1.378 . S
C1080 C1084 1.350 . S
C1081 C1084 1.463 . S
C1081 C1086 1.350 . S
C1081 N1089 1.427 . S
C1082 H1073 0.930 . S
C1082 C1080 1.378 . S
C1082 C1083 1.367 . S
C1083 C1082 1.367 . S
C1083 C1085 1.433 . S
C1084 C1080 1.350 . S
C1084 C1081 1.463 . S
C1084 N1088 1.427 . S
C1085 H1075 0.929 . S
C1085 C1083 1.433 . S
C1085 N1088 1.384 . S
C1086 H1077 0.929 . S
C1086 C1078 1.378 . S
C1086 C1081 1.350 . S
C1087 H1074 0.929 . S
C1087 C1079 1.433 . S
C1087 N1089 1.384 . S
N1088 C1084 1.427 . S
N1088 C1085 1.384 . S
N1089 C1081 1.427 . S
N1089 C1087 1.384 . S
H1090 C1096 0.930 . S
H1091 C1100 0.930 . S
H1092 C1105 0.929 . S
H1093 C1103 0.929 . S
H1094 C1098 0.929 . S
H1095 C1104 0.929 . S
C1096 H1090 0.930 . S
C1096 C1097 1.367 . S
C1096 C1104 1.378 . S
C1097 C1096 1.367 . S
C1097 C1105 1.433 . S
C1098 H1094 0.929 . S
C1098 C1100 1.378 . S
C1098 C1102 1.350 . S
C1099 C1102 1.463 . S
C1099 C1104 1.350 . S
C1099 N1107 1.427 . S
C1100 H1091 0.930 . S
C1100 C1098 1.378 . S
C1100 C1101 1.367 . S
C1101 C1100 1.367 . S
C1101 C1103 1.433 . S
C1102 C1098 1.350 . S
C1102 C1099 1.463 . S
C1102 N1106 1.427 . S
C1103 H1093 0.929 . S
C1103 C1101 1.433 . S
C1103 N1106 1.384 . S
C1104 H1095 0.929 . S
C1104 C1096 1.378 . S
C1104 C1099 1.350 . S
C1105 H1092 0.929 . S
C1105 C1097 1.433 . S
C1105 N1107 1.384 . S
N1106 C1102 1.427 . S
N1106 C1103 1.384 . S
N1107 C1099 1.427 . S
N1107 C1105 1.384 . S
H1108 C1114 0.930 . S
H1109 C1118 0.930 . S
H1110 C1123 0.929 . S
H1111 C1121 0.929 . S
H1112 C1116 0.929 . S
H1113 C1122 0.929 . S
C1114 H1108 0.930 . S
C1114 C1115 1.367 . S
C1114 C1122 1.378 . S
C1115 C1114 1.367 . S
C1115 C1123 1.433 . S
C1116 H1112 0.929 . S
C1116 C1118 1.378 . S
C1116 C1120 1.350 . S
C1117 C1120 1.463 . S
C1117 C1122 1.350 . S
C1117 N1125 1.427 . S
C1118 H1109 0.930 . S
C1118 C1116 1.378 . S
C1118 C1119 1.367 . S
C1119 C1118 1.367 . S
C1119 C1121 1.433 . S
C1120 C1116 1.350 . S
C1120 C1117 1.463 . S
C1120 N1124 1.427 . S
C1121 H1111 0.929 . S
C1121 C1119 1.433 . S
C1121 N1124 1.384 . S
C1122 H1113 0.929 . S
C1122 C1114 1.378 . S
C1122 C1117 1.350 . S
C1123 H1110 0.929 . S
C1123 C1115 1.433 . S
C1123 N1125 1.384 . S
N1124 C1120 1.427 . S
N1124 C1121 1.384 . S
N1125 C1117 1.427 . S
N1125 C1123 1.384 . S
H1126 C1132 0.930 . S
H1127 C1136 0.930 . S
H1128 C1141 0.929 . S
H1129 C1139 0.929 . S
H1130 C1134 0.929 . S
H1131 C1140 0.929 . S
C1132 H1126 0.930 . S
C1132 C1133 1.367 . S
C1132 C1140 1.378 . S
C1133 C1132 1.367 . S
C1133 C1141 1.433 . S
C1134 H1130 0.929 . S
C1134 C1136 1.378 . S
C1134 C1138 1.350 . S
C1135 C1138 1.463 . S
C1135 C1140 1.350 . S
C1135 N1143 1.427 . S
C1136 H1127 0.930 . S
C1136 C1134 1.378 . S
C1136 C1137 1.367 . S
C1137 C1136 1.367 . S
C1137 C1139 1.433 . S
C1138 C1134 1.350 . S
C1138 C1135 1.463 . S
C1138 N1142 1.427 . S
C1139 H1129 0.929 . S
C1139 C1137 1.433 . S
C1139 N1142 1.384 . S
C1140 H1131 0.929 . S
C1140 C1132 1.378 . S
C1140 C1135 1.350 . S
C1141 H1128 0.929 . S
C1141 C1133 1.433 . S
C1141 N1143 1.384 . S
N1142 C1138 1.427 . S
N1142 C1139 1.384 . S
N1143 C1135 1.427 . S
N1143 C1141 1.384 . S
H1144 C1150 0.930 . S
H1145 C1154 0.930 . S
H1146 C1159 0.929 . S
H1147 C1157 0.929 . S
H1148 C1152 0.929 . S
H1149 C1158 0.929 . S
C1150 H1144 0.930 . S
C1150 C1151 1.390 . S
C1150 C1158 1.378 . S
C1151 C1150 1.390 . S
C1151 C1159 1.410 1_545 S
C1152 H1148 0.929 . S
C1152 C1154 1.378 . S
C1152 C1156 1.350 . S
C1153 C1156 1.461 1_545 S
C1153 C1158 1.379 . S
C1153 N1161 1.399 1_545 S
C1154 H1145 0.930 . S
C1154 C1152 1.378 . S
C1154 C1155 1.370 1_565 S
C1155 C1154 1.370 1_545 S
C1155 C1157 1.430 . S
C1156 C1152 1.350 . S
C1156 C1153 1.461 1_565 S
C1156 N1160 1.428 1_565 S
C1157 H1147 0.929 . S
C1157 C1155 1.430 . S
C1157 N1160 1.384 . S
C1158 H1149 0.929 . S
C1158 C1150 1.378 . S
C1158 C1153 1.379 . S
C1159 H1146 0.929 . S
C1159 C1151 1.410 1_565 S
C1159 N1161 1.384 . S
N1160 C1156 1.428 1_545 S
N1160 C1157 1.384 . S
N1161 C1153 1.399 1_565 S
N1161 C1159 1.384 . S
H1162 C1168 0.930 . S
H1163 C1172 0.930 . S
H1164 C1177 0.929 . S
H1165 C1175 0.929 . S
H1166 C1170 0.929 . S
H1167 C1176 0.929 . S
C1168 H1162 0.930 . S
C1168 C1169 1.367 . S
C1168 C1176 1.378 . S
C1169 C1168 1.367 . S
C1169 C1177 1.433 . S
C1170 H1166 0.929 . S
C1170 C1172 1.378 . S
C1170 C1174 1.350 . S
C1171 C1174 1.463 . S
C1171 C1176 1.350 . S
C1171 N1179 1.427 . S
C1172 H1163 0.930 . S
C1172 C1170 1.378 . S
C1172 C1173 1.367 . S
C1173 C1172 1.367 . S
C1173 C1175 1.433 . S
C1174 C1170 1.350 . S
C1174 C1171 1.463 . S
C1174 N1178 1.427 . S
C1175 H1165 0.929 . S
C1175 C1173 1.433 . S
C1175 N1178 1.384 . S
C1176 H1167 0.929 . S
C1176 C1168 1.378 . S
C1176 C1171 1.350 . S
C1177 H1164 0.929 . S
C1177 C1169 1.433 . S
C1177 N1179 1.384 . S
N1178 C1174 1.427 . S
N1178 C1175 1.384 . S
N1179 C1171 1.427 . S
N1179 C1177 1.384 . S
H1180 C1186 0.930 . S
H1181 C1190 0.930 . S
H1182 C1195 0.929 . S
H1183 C1193 0.929 . S
H1184 C1188 0.929 . S
H1185 C1194 0.929 . S
C1186 H1180 0.930 . S
C1186 C1187 1.367 1_545 S
C1186 C1194 1.378 . S
C1187 C1186 1.367 1_565 S
C1187 C1195 1.433 . S
C1188 H1184 0.929 . S
C1188 C1190 1.378 . S
C1188 C1192 1.371 . S
C1189 C1192 1.462 1_545 S
C1189 C1194 1.347 . S
C1189 N1197 1.430 1_545 S
C1190 H1181 0.930 . S
C1190 C1188 1.378 . S
C1190 C1191 1.384 . S
C1191 C1190 1.384 . S
C1191 C1193 1.417 1_565 S
C1192 C1188 1.371 . S
C1192 C1189 1.462 1_565 S
C1192 N1196 1.407 1_565 S
C1193 H1183 0.929 . S
C1193 C1191 1.417 1_545 S
C1193 N1196 1.384 . S
C1194 H1185 0.929 . S
C1194 C1186 1.378 . S
C1194 C1189 1.347 . S
C1195 H1182 0.929 . S
C1195 C1187 1.433 . S
C1195 N1197 1.384 . S
N1196 C1192 1.407 1_545 S
N1196 C1193 1.384 . S
N1197 C1189 1.430 1_565 S
N1197 C1195 1.384 . S
H1198 C1204 0.930 . S
H1199 C1208 0.930 . S
H1200 C1213 0.929 . S
H1201 C1211 0.929 . S
H1202 C1206 0.929 . S
H1203 C1212 0.929 . S
C1204 H1198 0.930 . S
C1204 C1205 1.367 . S
C1204 C1212 1.378 . S
C1205 C1204 1.367 . S
C1205 C1213 1.433 . S
C1206 H1202 0.929 . S
C1206 C1208 1.378 . S
C1206 C1210 1.350 . S
C1207 C1210 1.463 . S
C1207 C1212 1.350 . S
C1207 N1215 1.427 . S
C1208 H1199 0.930 . S
C1208 C1206 1.378 . S
C1208 C1209 1.367 . S
C1209 C1208 1.367 . S
C1209 C1211 1.433 . S
C1210 C1206 1.350 . S
C1210 C1207 1.463 . S
C1210 N1214 1.427 . S
C1211 H1201 0.929 . S
C1211 C1209 1.433 . S
C1211 N1214 1.384 . S
C1212 H1203 0.929 . S
C1212 C1204 1.378 . S
C1212 C1207 1.350 . S
C1213 H1200 0.929 . S
C1213 C1205 1.433 . S
C1213 N1215 1.384 . S
N1214 C1210 1.427 . S
N1214 C1211 1.384 . S
N1215 C1207 1.427 . S
N1215 C1213 1.384 . S
H1216 C1222 0.930 . S
H1217 C1226 0.930 . S
H1218 C1231 0.929 . S
H1219 C1229 0.929 . S
H1220 C1224 0.929 . S
H1221 C1230 0.929 . S
C1222 H1216 0.930 . S
C1222 C1223 1.367 . S
C1222 C1230 1.378 . S
C1223 C1222 1.367 . S
C1223 C1231 1.433 . S
C1224 H1220 0.929 . S
C1224 C1226 1.378 . S
C1224 C1228 1.350 . S
C1225 C1228 1.463 . S
C1225 C1230 1.350 . S
C1225 N1233 1.427 . S
C1226 H1217 0.930 . S
C1226 C1224 1.378 . S
C1226 C1227 1.367 . S
C1227 C1226 1.367 . S
C1227 C1229 1.433 . S
C1228 C1224 1.350 . S
C1228 C1225 1.463 . S
C1228 N1232 1.427 . S
C1229 H1219 0.929 . S
C1229 C1227 1.433 . S
C1229 N1232 1.384 . S
C1230 H1221 0.929 . S
C1230 C1222 1.378 . S
C1230 C1225 1.350 . S
C1231 H1218 0.929 . S
C1231 C1223 1.433 . S
C1231 N1233 1.384 . S
N1232 C1228 1.427 . S
N1232 C1229 1.384 . S
N1233 C1225 1.427 . S
N1233 C1231 1.384 . S
H1234 C1240 0.930 . S
H1235 C1244 0.930 . S
H1236 C1249 0.929 . S
H1237 C1247 0.929 . S
H1238 C1242 0.929 . S
H1239 C1248 0.929 . S
C1240 H1234 0.930 . S
C1240 C1241 1.367 . S
C1240 C1248 1.378 . S
C1241 C1240 1.367 . S
C1241 C1249 1.433 . S
C1242 H1238 0.929 . S
C1242 C1244 1.378 . S
C1242 C1246 1.350 . S
C1243 C1246 1.463 . S
C1243 C1248 1.350 . S
C1243 N1251 1.427 . S
C1244 H1235 0.930 . S
C1244 C1242 1.378 . S
C1244 C1245 1.367 . S
C1245 C1244 1.367 . S
C1245 C1247 1.433 . S
C1246 C1242 1.350 . S
C1246 C1243 1.463 . S
C1246 N1250 1.427 . S
C1247 H1237 0.929 . S
C1247 C1245 1.433 . S
C1247 N1250 1.384 . S
C1248 H1239 0.929 . S
C1248 C1240 1.378 . S
C1248 C1243 1.350 . S
C1249 H1236 0.929 . S
C1249 C1241 1.433 . S
C1249 N1251 1.384 . S
N1250 C1246 1.427 . S
N1250 C1247 1.384 . S
N1251 C1243 1.427 . S
N1251 C1249 1.384 . S
H1252 C1258 0.930 . S
H1253 C1262 0.930 . S
H1254 C1267 0.931 . S
H1255 C1265 0.929 . S
H1256 C1260 0.929 . S
H1257 C1266 0.929 . S
C1258 H1252 0.930 . S
C1258 C1259 1.367 . S
C1258 C1266 1.378 . S
C1259 C1258 1.367 . S
C1259 C1267 1.433 . S
C1260 H1256 0.929 . S
C1260 C1262 1.378 . S
C1260 C1264 1.350 . S
C1261 C1264 1.463 . S
C1261 C1266 1.350 . S
C1261 N1269 1.427 . S
C1262 H1253 0.930 . S
C1262 C1260 1.378 . S
C1262 C1263 1.367 . S
C1263 C1262 1.367 . S
C1263 C1265 1.433 . S
C1264 C1260 1.350 . S
C1264 C1261 1.463 . S
C1264 N1268 1.427 . S
C1265 H1255 0.929 . S
C1265 C1263 1.433 . S
C1265 N1268 1.384 . S
C1266 H1257 0.929 . S
C1266 C1258 1.378 . S
C1266 C1261 1.350 . S
C1267 H1254 0.931 . S
C1267 C1259 1.433 . S
C1267 N1269 1.384 . S
N1268 C1264 1.427 . S
N1268 C1265 1.384 . S
N1269 C1261 1.427 . S
N1269 C1267 1.384 . S
H1270 C1276 0.930 . S
H1271 C1280 0.930 . S
H1272 C1285 0.929 . S
H1273 C1283 0.929 . S
H1274 C1278 0.929 . S
H1275 C1284 0.929 . S
C1276 H1270 0.930 . S
C1276 C1277 1.367 . S
C1276 C1284 1.378 . S
C1277 C1276 1.367 . S
C1277 C1285 1.433 . S
C1278 H1274 0.929 . S
C1278 C1280 1.378 . S
C1278 C1282 1.350 . S
C1279 C1282 1.463 . S
C1279 C1284 1.350 . S
C1279 N1287 1.427 . S
C1280 H1271 0.930 . S
C1280 C1278 1.378 . S
C1280 C1281 1.367 . S
C1281 C1280 1.367 . S
C1281 C1283 1.433 . S
C1282 C1278 1.350 . S
C1282 C1279 1.463 . S
C1282 N1286 1.427 . S
C1283 H1273 0.929 . S
C1283 C1281 1.433 . S
C1283 N1286 1.384 . S
C1284 H1275 0.929 . S
C1284 C1276 1.378 . S
C1284 C1279 1.350 . S
C1285 H1272 0.929 . S
C1285 C1277 1.433 . S
C1285 N1287 1.384 . S
N1286 C1282 1.427 . S
N1286 C1283 1.384 . S
N1287 C1279 1.427 . S
N1287 C1285 1.384 . S
H1288 C1294 0.930 . S
H1289 C1298 0.930 . S
H1290 C1303 0.929 . S
H1291 C1301 0.929 1_655 S
H1292 C1296 0.929 . S
H1293 C1302 0.929 . S
C1294 H1288 0.930 . S
C1294 C1295 1.367 . S
C1294 C1302 1.378 . S
C1295 C1294 1.367 . S
C1295 C1303 1.433 . S
C1296 H1292 0.929 . S
C1296 C1298 1.378 . S
C1296 C1300 1.350 . S
C1297 C1300 1.463 . S
C1297 C1302 1.350 . S
C1297 N1305 1.427 . S
C1298 H1289 0.930 . S
C1298 C1296 1.378 . S
C1298 C1299 1.367 . S
C1299 C1298 1.367 . S
C1299 C1301 1.433 . S
C1300 C1296 1.350 . S
C1300 C1297 1.463 . S
C1300 N1304 1.427 . S
C1301 H1291 0.929 1_455 S
C1301 C1299 1.433 . S
C1301 N1304 1.384 . S
C1302 H1293 0.929 . S
C1302 C1294 1.378 . S
C1302 C1297 1.350 . S
C1303 H1290 0.929 . S
C1303 C1295 1.433 . S
C1303 N1305 1.384 . S
N1304 C1300 1.427 . S
N1304 C1301 1.384 . S
N1305 C1297 1.427 . S
N1305 C1303 1.384 . S
H1306 C1312 0.930 . S
H1307 C1316 0.930 . S
H1308 C1321 0.929 . S
H1309 C1319 0.929 . S
H1310 C1314 0.929 . S
H1311 C1320 0.929 . S
C1312 H1306 0.930 . S
C1312 C1313 1.367 . S
C1312 C1320 1.378 . S
C1313 C1312 1.367 . S
C1313 C1321 1.433 . S
C1314 H1310 0.929 . S
C1314 C1316 1.378 . S
C1314 C1318 1.350 . S
C1315 C1318 1.463 . S
C1315 C1320 1.350 . S
C1315 N1323 1.427 . S
C1316 H1307 0.930 . S
C1316 C1314 1.378 . S
C1316 C1317 1.367 . S
C1317 C1316 1.367 . S
C1317 C1319 1.433 . S
C1318 C1314 1.350 . S
C1318 C1315 1.463 . S
C1318 N1322 1.427 . S
C1319 H1309 0.929 . S
C1319 C1317 1.433 . S
C1319 N1322 1.384 . S
C1320 H1311 0.929 . S
C1320 C1312 1.378 . S
C1320 C1315 1.350 . S
C1321 H1308 0.929 . S
C1321 C1313 1.433 . S
C1321 N1323 1.384 . S
N1322 C1318 1.427 . S
N1322 C1319 1.384 . S
N1323 C1315 1.427 . S
N1323 C1321 1.384 . S
H1324 C1330 0.930 . S
H1325 C1334 0.930 . S
H1326 C1339 0.929 . S
H1327 C1337 0.929 . S
H1328 C1332 0.929 . S
H1329 C1338 0.929 . S
C1330 H1324 0.930 . S
C1330 C1331 1.367 . S
C1330 C1338 1.378 . S
C1331 C1330 1.367 . S
C1331 C1339 1.433 . S
C1332 H1328 0.929 . S
C1332 C1334 1.378 . S
C1332 C1336 1.350 . S
C1333 C1336 1.463 . S
C1333 C1338 1.350 . S
C1333 N1341 1.427 . S
C1334 H1325 0.930 . S
C1334 C1332 1.378 . S
C1334 C1335 1.367 . S
C1335 C1334 1.367 . S
C1335 C1337 1.433 . S
C1336 C1332 1.350 . S
C1336 C1333 1.463 . S
C1336 N1340 1.427 . S
C1337 H1327 0.929 . S
C1337 C1335 1.433 . S
C1337 N1340 1.384 . S
C1338 H1329 0.929 . S
C1338 C1330 1.378 . S
C1338 C1333 1.350 . S
C1339 H1326 0.929 . S
C1339 C1331 1.433 . S
C1339 N1341 1.384 . S
N1340 C1336 1.427 . S
N1340 C1337 1.384 . S
N1341 C1333 1.427 . S
N1341 C1339 1.384 . S
H1342 C1348 0.930 . S
H1343 C1352 0.930 . S
H1344 C1357 0.929 . S
H1345 C1355 0.929 1_455 S
H1346 C1350 0.929 . S
H1347 C1356 0.929 . S
C1348 H1342 0.930 . S
C1348 C1349 1.367 . S
C1348 C1356 1.378 . S
C1349 C1348 1.367 . S
C1349 C1357 1.433 . S
C1350 H1346 0.929 . S
C1350 C1352 1.378 . S
C1350 C1354 1.350 . S
C1351 C1354 1.463 . S
C1351 C1356 1.350 . S
C1351 N1359 1.427 . S
C1352 H1343 0.930 . S
C1352 C1350 1.378 . S
C1352 C1353 1.367 . S
C1353 C1352 1.367 . S
C1353 C1355 1.433 . S
C1354 C1350 1.350 . S
C1354 C1351 1.463 . S
C1354 N1358 1.427 . S
C1355 H1345 0.929 1_655 S
C1355 C1353 1.433 . S
C1355 N1358 1.384 . S
C1356 H1347 0.929 . S
C1356 C1348 1.378 . S
C1356 C1351 1.350 . S
C1357 H1344 0.929 . S
C1357 C1349 1.433 . S
C1357 N1359 1.384 . S
N1358 C1354 1.427 . S
N1358 C1355 1.384 . S
N1359 C1351 1.427 . S
N1359 C1357 1.384 . S
H1360 C1366 0.930 . S
H1361 C1370 0.930 . S
H1362 C1375 0.929 . S
H1363 C1373 0.929 . S
H1364 C1368 0.929 . S
H1365 C1374 0.929 . S
C1366 H1360 0.930 . S
C1366 C1367 1.367 . S
C1366 C1374 1.378 . S
C1367 C1366 1.367 . S
C1367 C1375 1.433 . S
C1368 H1364 0.929 . S
C1368 C1370 1.378 . S
C1368 C1372 1.350 . S
C1369 C1372 1.463 . S
C1369 C1374 1.350 . S
C1369 N1377 1.427 . S
C1370 H1361 0.930 . S
C1370 C1368 1.378 . S
C1370 C1371 1.367 . S
C1371 C1370 1.367 . S
C1371 C1373 1.433 . S
C1372 C1368 1.350 . S
C1372 C1369 1.463 . S
C1372 N1376 1.427 . S
C1373 H1363 0.929 . S
C1373 C1371 1.433 . S
C1373 N1376 1.384 . S
C1374 H1365 0.929 . S
C1374 C1366 1.378 . S
C1374 C1369 1.350 . S
C1375 H1362 0.929 . S
C1375 C1367 1.433 . S
C1375 N1377 1.384 . S
N1376 C1372 1.427 . S
N1376 C1373 1.384 . S
N1377 C1369 1.427 . S
N1377 C1375 1.384 . S
H1378 C1384 0.930 . S
H1379 C1388 0.930 . S
H1380 C1393 0.929 . S
H1381 C1391 0.929 . S
H1382 C1386 0.929 . S
H1383 C1392 0.929 . S
C1384 H1378 0.930 . S
C1384 C1385 1.367 . S
C1384 C1392 1.378 . S
C1385 C1384 1.367 . S
C1385 C1393 1.433 . S
C1386 H1382 0.929 . S
C1386 C1388 1.378 . S
C1386 C1390 1.350 . S
C1387 C1390 1.463 . S
C1387 C1392 1.350 . S
C1387 N1395 1.427 . S
C1388 H1379 0.930 . S
C1388 C1386 1.378 . S
C1388 C1389 1.367 . S
C1389 C1388 1.367 . S
C1389 C1391 1.433 . S
C1390 C1386 1.350 . S
C1390 C1387 1.463 . S
C1390 N1394 1.427 . S
C1391 H1381 0.929 . S
C1391 C1389 1.433 . S
C1391 N1394 1.384 . S
C1392 H1383 0.929 . S
C1392 C1384 1.378 . S
C1392 C1387 1.350 . S
C1393 H1380 0.929 . S
C1393 C1385 1.433 . S
C1393 N1395 1.384 . S
N1394 C1390 1.427 . S
N1394 C1391 1.384 . S
N1395 C1387 1.427 . S
N1395 C1393 1.384 . S
H1396 C1402 0.930 . S
H1397 C1406 0.930 . S
H1398 C1411 0.929 . S
H1399 C1409 0.929 . S
H1400 C1404 0.929 . S
H1401 C1410 0.929 . S
C1402 H1396 0.930 . S
C1402 C1403 1.367 . S
C1402 C1410 1.378 . S
C1403 C1402 1.367 . S
C1403 C1411 1.433 . S
C1404 H1400 0.929 . S
C1404 C1406 1.378 . S
C1404 C1408 1.350 . S
C1405 C1408 1.463 . S
C1405 C1410 1.350 . S
C1405 N1413 1.427 . S
C1406 H1397 0.930 . S
C1406 C1404 1.378 . S
C1406 C1407 1.367 . S
C1407 C1406 1.367 . S
C1407 C1409 1.433 . S
C1408 C1404 1.350 . S
C1408 C1405 1.463 . S
C1408 N1412 1.427 . S
C1409 H1399 0.929 . S
C1409 C1407 1.433 . S
C1409 N1412 1.384 . S
C1410 H1401 0.929 . S
C1410 C1402 1.378 . S
C1410 C1405 1.350 . S
C1411 H1398 0.929 . S
C1411 C1403 1.433 . S
C1411 N1413 1.384 . S
N1412 C1408 1.427 . S
N1412 C1409 1.384 . S
N1413 C1405 1.427 . S
N1413 C1411 1.384 . S
H1414 C1420 0.930 . S
H1415 C1424 0.930 . S
H1416 C1429 0.929 . S
H1417 C1427 0.929 . S
H1418 C1422 0.929 . S
H1419 C1428 0.929 . S
C1420 H1414 0.930 . S
C1420 C1421 1.367 . S
C1420 C1428 1.378 . S
C1421 C1420 1.367 . S
C1421 C1429 1.433 . S
C1422 H1418 0.929 . S
C1422 C1424 1.378 . S
C1422 C1426 1.350 . S
C1423 C1426 1.463 . S
C1423 C1428 1.350 . S
C1423 N1431 1.427 . S
C1424 H1415 0.930 . S
C1424 C1422 1.378 . S
C1424 C1425 1.367 . S
C1425 C1424 1.367 . S
C1425 C1427 1.433 . S
C1426 C1422 1.350 . S
C1426 C1423 1.463 . S
C1426 N1430 1.427 . S
C1427 H1417 0.929 . S
C1427 C1425 1.433 . S
C1427 N1430 1.384 . S
C1428 H1419 0.929 . S
C1428 C1420 1.378 . S
C1428 C1423 1.350 . S
C1429 H1416 0.929 . S
C1429 C1421 1.433 . S
C1429 N1431 1.384 . S
N1430 C1426 1.427 . S
N1430 C1427 1.384 . S
N1431 C1423 1.427 . S
N1431 C1429 1.384 . S
H1432 C1438 0.930 . S
H1433 C1442 0.930 . S
H1434 C1447 0.929 . S
H1435 C1445 0.929 . S
H1436 C1440 0.929 . S
H1437 C1446 0.929 . S
C1438 H1432 0.930 . S
C1438 C1439 1.367 . S
C1438 C1446 1.378 . S
C1439 C1438 1.367 . S
C1439 C1447 1.433 . S
C1440 H1436 0.929 . S
C1440 C1442 1.378 . S
C1440 C1444 1.350 . S
C1441 C1444 1.463 . S
C1441 C1446 1.350 . S
C1441 N1449 1.427 . S
C1442 H1433 0.930 . S
C1442 C1440 1.378 . S
C1442 C1443 1.367 . S
C1443 C1442 1.367 . S
C1443 C1445 1.433 . S
C1444 C1440 1.350 . S
C1444 C1441 1.463 . S
C1444 N1448 1.427 . S
C1445 H1435 0.929 . S
C1445 C1443 1.433 . S
C1445 N1448 1.384 . S
C1446 H1437 0.929 . S
C1446 C1438 1.378 . S
C1446 C1441 1.350 . S
C1447 H1434 0.929 . S
C1447 C1439 1.433 . S
C1447 N1449 1.384 . S
N1448 C1444 1.427 . S
N1448 C1445 1.384 . S
N1449 C1441 1.427 . S
N1449 C1447 1.384 . S
H1450 C1456 0.930 . S
H1451 C1460 0.930 . S
H1452 C1465 0.929 . S
H1453 C1463 0.929 . S
H1454 C1458 0.929 . S
H1455 C1464 0.929 . S
C1456 H1450 0.930 . S
C1456 C1457 1.367 . S
C1456 C1464 1.378 . S
C1457 C1456 1.367 . S
C1457 C1465 1.433 . S
C1458 H1454 0.929 . S
C1458 C1460 1.378 . S
C1458 C1462 1.350 . S
C1459 C1462 1.463 . S
C1459 C1464 1.350 . S
C1459 N1467 1.427 . S
C1460 H1451 0.930 . S
C1460 C1458 1.378 . S
C1460 C1461 1.367 . S
C1461 C1460 1.367 . S
C1461 C1463 1.433 . S
C1462 C1458 1.350 . S
C1462 C1459 1.463 . S
C1462 N1466 1.427 . S
C1463 H1453 0.929 . S
C1463 C1461 1.433 . S
C1463 N1466 1.384 . S
C1464 H1455 0.929 . S
C1464 C1456 1.378 . S
C1464 C1459 1.350 . S
C1465 H1452 0.929 . S
C1465 C1457 1.433 . S
C1465 N1467 1.384 . S
N1466 C1462 1.427 . S
N1466 C1463 1.384 . S
N1467 C1459 1.427 . S
N1467 C1465 1.384 . S
H1468 C1474 0.930 . S
H1469 C1478 0.930 . S
H1470 C1483 0.929 . S
H1471 C1481 0.929 . S
H1472 C1476 0.929 . S
H1473 C1482 0.929 . S
C1474 H1468 0.930 . S
C1474 C1475 1.367 . S
C1474 C1482 1.378 . S
C1475 C1474 1.367 . S
C1475 C1483 1.433 . S
C1476 H1472 0.929 . S
C1476 C1478 1.378 . S
C1476 C1480 1.350 . S
C1477 C1480 1.463 . S
C1477 C1482 1.350 . S
C1477 N1485 1.427 . S
C1478 H1469 0.930 . S
C1478 C1476 1.378 . S
C1478 C1479 1.367 . S
C1479 C1478 1.367 . S
C1479 C1481 1.433 . S
C1480 C1476 1.350 . S
C1480 C1477 1.463 . S
C1480 N1484 1.427 . S
C1481 H1471 0.929 . S
C1481 C1479 1.433 . S
C1481 N1484 1.384 . S
C1482 H1473 0.929 . S
C1482 C1474 1.378 . S
C1482 C1477 1.350 . S
C1483 H1470 0.929 . S
C1483 C1475 1.433 . S
C1483 N1485 1.384 . S
N1484 C1480 1.427 . S
N1484 C1481 1.384 . S
N1485 C1477 1.427 . S
N1485 C1483 1.384 . S
H1486 C1492 0.930 . S
H1487 C1496 0.930 . S
H1488 C1501 0.929 . S
H1489 C1499 0.929 . S
H1490 C1494 0.929 . S
H1491 C1500 0.929 . S
C1492 H1486 0.930 . S
C1492 C1493 1.367 . S
C1492 C1500 1.378 . S
C1493 C1492 1.367 . S
C1493 C1501 1.433 . S
C1494 H1490 0.929 . S
C1494 C1496 1.378 . S
C1494 C1498 1.350 . S
C1495 C1498 1.463 . S
C1495 C1500 1.350 . S
C1495 N1503 1.427 . S
C1496 H1487 0.930 . S
C1496 C1494 1.378 . S
C1496 C1497 1.367 . S
C1497 C1496 1.367 . S
C1497 C1499 1.433 . S
C1498 C1494 1.350 . S
C1498 C1495 1.463 . S
C1498 N1502 1.427 . S
C1499 H1489 0.929 . S
C1499 C1497 1.433 . S
C1499 N1502 1.384 . S
C1500 H1491 0.929 . S
C1500 C1492 1.378 . S
C1500 C1495 1.350 . S
C1501 H1488 0.929 . S
C1501 C1493 1.433 . S
C1501 N1503 1.384 . S
N1502 C1498 1.427 . S
N1502 C1499 1.384 . S
N1503 C1495 1.427 . S
N1503 C1501 1.384 . S
H1504 C1510 0.930 . S
H1505 C1514 0.930 . S
H1506 C1519 0.929 . S
H1507 C1517 0.929 . S
H1508 C1512 0.929 . S
H1509 C1518 0.929 . S
C1510 H1504 0.930 . S
C1510 C1511 1.367 . S
C1510 C1518 1.378 . S
C1511 C1510 1.367 . S
C1511 C1519 1.433 . S
C1512 H1508 0.929 . S
C1512 C1514 1.378 . S
C1512 C1516 1.350 . S
C1513 C1516 1.463 . S
C1513 C1518 1.350 . S
C1513 N1521 1.427 . S
C1514 H1505 0.930 . S
C1514 C1512 1.378 . S
C1514 C1515 1.367 . S
C1515 C1514 1.367 . S
C1515 C1517 1.433 . S
C1516 C1512 1.350 . S
C1516 C1513 1.463 . S
C1516 N1520 1.427 . S
C1517 H1507 0.929 . S
C1517 C1515 1.433 . S
C1517 N1520 1.384 . S
C1518 H1509 0.929 . S
C1518 C1510 1.378 . S
C1518 C1513 1.350 . S
C1519 H1506 0.929 . S
C1519 C1511 1.433 . S
C1519 N1521 1.384 . S
N1520 C1516 1.427 . S
N1520 C1517 1.384 . S
N1521 C1513 1.427 . S
N1521 C1519 1.384 . S
H1522 C1528 0.930 . S
H1523 C1532 0.930 . S
H1524 C1537 0.929 . S
H1525 C1535 0.929 . S
H1526 C1530 0.929 . S
H1527 C1536 0.929 . S
C1528 H1522 0.930 . S
C1528 C1529 1.367 . S
C1528 C1536 1.378 . S
C1529 C1528 1.367 . S
C1529 C1537 1.433 . S
C1530 H1526 0.929 . S
C1530 C1532 1.378 . S
C1530 C1534 1.350 . S
C1531 C1534 1.463 . S
C1531 C1536 1.350 . S
C1531 N1539 1.427 . S
C1532 H1523 0.930 . S
C1532 C1530 1.378 . S
C1532 C1533 1.367 . S
C1533 C1532 1.367 . S
C1533 C1535 1.433 . S
C1534 C1530 1.350 . S
C1534 C1531 1.463 . S
C1534 N1538 1.427 . S
C1535 H1525 0.929 . S
C1535 C1533 1.433 . S
C1535 N1538 1.384 . S
C1536 H1527 0.929 . S
C1536 C1528 1.378 . S
C1536 C1531 1.350 . S
C1537 H1524 0.929 . S
C1537 C1529 1.433 . S
C1537 N1539 1.384 . S
N1538 C1534 1.427 . S
N1538 C1535 1.384 . S
N1539 C1531 1.427 . S
N1539 C1537 1.384 . S
H1540 C1546 0.930 . S
H1541 C1550 0.930 . S
H1542 C1555 0.929 . S
H1543 C1553 0.929 . S
H1544 C1548 0.929 . S
H1545 C1554 0.929 . S
C1546 H1540 0.930 . S
C1546 C1547 1.367 . S
C1546 C1554 1.378 . S
C1547 C1546 1.367 . S
C1547 C1555 1.433 . S
C1548 H1544 0.929 . S
C1548 C1550 1.378 . S
C1548 C1552 1.350 . S
C1549 C1552 1.463 . S
C1549 C1554 1.350 . S
C1549 N1557 1.427 . S
C1550 H1541 0.930 . S
C1550 C1548 1.378 . S
C1550 C1551 1.367 . S
C1551 C1550 1.367 . S
C1551 C1553 1.433 . S
C1552 C1548 1.350 . S
C1552 C1549 1.463 . S
C1552 N1556 1.427 . S
C1553 H1543 0.929 . S
C1553 C1551 1.433 . S
C1553 N1556 1.384 . S
C1554 H1545 0.929 . S
C1554 C1546 1.378 . S
C1554 C1549 1.350 . S
C1555 H1542 0.929 . S
C1555 C1547 1.433 . S
C1555 N1557 1.384 . S
N1556 C1552 1.427 . S
N1556 C1553 1.384 . S
N1557 C1549 1.427 . S
N1557 C1555 1.384 . S
H1558 C1564 0.930 . S
H1559 C1568 0.930 . S
H1560 C1573 0.929 . S
H1561 C1571 0.929 . S
H1562 C1566 0.929 . S
H1563 C1572 0.929 . S
C1564 H1558 0.930 . S
C1564 C1565 1.367 . S
C1564 C1572 1.378 . S
C1565 C1564 1.367 . S
C1565 C1573 1.433 . S
C1566 H1562 0.929 . S
C1566 C1568 1.378 . S
C1566 C1570 1.350 . S
C1567 C1570 1.463 . S
C1567 C1572 1.350 . S
C1567 N1575 1.427 . S
C1568 H1559 0.930 . S
C1568 C1566 1.378 . S
C1568 C1569 1.367 . S
C1569 C1568 1.367 . S
C1569 C1571 1.433 . S
C1570 C1566 1.350 . S
C1570 C1567 1.463 . S
C1570 N1574 1.427 . S
C1571 H1561 0.929 . S
C1571 C1569 1.433 . S
C1571 N1574 1.384 . S
C1572 H1563 0.929 . S
C1572 C1564 1.378 . S
C1572 C1567 1.350 . S
C1573 H1560 0.929 . S
C1573 C1565 1.433 . S
C1573 N1575 1.384 . S
N1574 C1570 1.427 . S
N1574 C1571 1.384 . S
N1575 C1567 1.427 . S
N1575 C1573 1.384 . S
H1576 C1582 0.930 . S
H1577 C1586 0.930 . S
H1578 C1591 0.929 . S
H1579 C1589 0.929 . S
H1580 C1584 0.929 . S
H1581 C1590 0.929 . S
C1582 H1576 0.930 . S
C1582 C1583 1.367 . S
C1582 C1590 1.378 . S
C1583 C1582 1.367 . S
C1583 C1591 1.433 . S
C1584 H1580 0.929 . S
C1584 C1586 1.378 . S
C1584 C1588 1.350 . S
C1585 C1588 1.463 . S
C1585 C1590 1.350 . S
C1585 N1593 1.427 . S
C1586 H1577 0.930 . S
C1586 C1584 1.378 . S
C1586 C1587 1.367 . S
C1587 C1586 1.367 . S
C1587 C1589 1.433 . S
C1588 C1584 1.350 . S
C1588 C1585 1.463 . S
C1588 N1592 1.427 . S
C1589 H1579 0.929 . S
C1589 C1587 1.433 . S
C1589 N1592 1.384 . S
C1590 H1581 0.929 . S
C1590 C1582 1.378 . S
C1590 C1585 1.350 . S
C1591 H1578 0.929 . S
C1591 C1583 1.433 . S
C1591 N1593 1.384 . S
N1592 C1588 1.427 . S
N1592 C1589 1.384 . S
N1593 C1585 1.427 . S
N1593 C1591 1.384 . S
H1594 C1600 0.930 . S
H1595 C1604 0.930 . S
H1596 C1609 0.929 . S
H1597 C1607 0.929 . S
H1598 C1602 0.929 . S
H1599 C1608 0.929 . S
C1600 H1594 0.930 . S
C1600 C1601 1.367 . S
C1600 C1608 1.378 . S
C1601 C1600 1.367 . S
C1601 C1609 1.433 . S
C1602 H1598 0.929 . S
C1602 C1604 1.378 . S
C1602 C1606 1.350 . S
C1603 C1606 1.463 . S
C1603 C1608 1.350 . S
C1603 N1611 1.427 . S
C1604 H1595 0.930 . S
C1604 C1602 1.378 . S
C1604 C1605 1.367 . S
C1605 C1604 1.367 . S
C1605 C1607 1.433 . S
C1606 C1602 1.350 . S
C1606 C1603 1.463 . S
C1606 N1610 1.427 . S
C1607 H1597 0.929 . S
C1607 C1605 1.433 . S
C1607 N1610 1.384 . S
C1608 H1599 0.929 . S
C1608 C1600 1.378 . S
C1608 C1603 1.350 . S
C1609 H1596 0.929 . S
C1609 C1601 1.433 . S
C1609 N1611 1.384 . S
N1610 C1606 1.427 . S
N1610 C1607 1.384 . S
N1611 C1603 1.427 . S
N1611 C1609 1.384 . S
H1612 C1618 0.930 . S
H1613 C1622 0.930 . S
H1614 C1627 0.929 . S
H1615 C1625 0.929 . S
H1616 C1620 0.929 . S
H1617 C1626 0.929 . S
C1618 H1612 0.930 . S
C1618 C1619 1.367 . S
C1618 C1626 1.378 . S
C1619 C1618 1.367 . S
C1619 C1627 1.433 . S
C1620 H1616 0.929 . S
C1620 C1622 1.378 . S
C1620 C1624 1.350 . S
C1621 C1624 1.463 . S
C1621 C1626 1.350 . S
C1621 N1629 1.427 . S
C1622 H1613 0.930 . S
C1622 C1620 1.378 . S
C1622 C1623 1.367 . S
C1623 C1622 1.367 . S
C1623 C1625 1.433 . S
C1624 C1620 1.350 . S
C1624 C1621 1.463 . S
C1624 N1628 1.427 . S
C1625 H1615 0.929 . S
C1625 C1623 1.433 . S
C1625 N1628 1.384 . S
C1626 H1617 0.929 . S
C1626 C1618 1.378 . S
C1626 C1621 1.350 . S
C1627 H1614 0.929 . S
C1627 C1619 1.433 . S
C1627 N1629 1.384 . S
N1628 C1624 1.427 . S
N1628 C1625 1.384 . S
N1629 C1621 1.427 . S
N1629 C1627 1.384 . S
H1630 C1636 0.930 . S
H1631 C1640 0.930 . S
H1632 C1645 0.929 . S
H1633 C1643 0.929 . S
H1634 C1638 0.929 . S
H1635 C1644 0.929 . S
C1636 H1630 0.930 . S
C1636 C1637 1.367 . S
C1636 C1644 1.378 . S
C1637 C1636 1.367 . S
C1637 C1645 1.433 . S
C1638 H1634 0.929 . S
C1638 C1640 1.378 . S
C1638 C1642 1.350 . S
C1639 C1642 1.463 . S
C1639 C1644 1.350 . S
C1639 N1647 1.427 . S
C1640 H1631 0.930 . S
C1640 C1638 1.378 . S
C1640 C1641 1.367 . S
C1641 C1640 1.367 . S
C1641 C1643 1.433 . S
C1642 C1638 1.350 . S
C1642 C1639 1.463 . S
C1642 N1646 1.427 . S
C1643 H1633 0.929 . S
C1643 C1641 1.433 . S
C1643 N1646 1.384 . S
C1644 H1635 0.929 . S
C1644 C1636 1.378 . S
C1644 C1639 1.350 . S
C1645 H1632 0.929 . S
C1645 C1637 1.433 . S
C1645 N1647 1.384 . S
N1646 C1642 1.427 . S
N1646 C1643 1.384 . S
N1647 C1639 1.427 . S
N1647 C1645 1.384 . S
H1648 C1654 0.930 . S
H1649 C1658 0.930 . S
H1650 C1663 0.929 . S
H1651 C1661 0.929 . S
H1652 C1656 0.929 . S
H1653 C1662 0.929 . S
C1654 H1648 0.930 . S
C1654 C1655 1.367 . S
C1654 C1662 1.378 . S
C1655 C1654 1.367 . S
C1655 C1663 1.433 1_545 S
C1656 H1652 0.929 . S
C1656 C1658 1.378 . S
C1656 C1660 1.350 . S
C1657 C1660 1.463 1_545 S
C1657 C1662 1.350 . S
C1657 N1665 1.427 1_545 S
C1658 H1649 0.930 . S
C1658 C1656 1.378 . S
C1658 C1659 1.367 . S
C1659 C1658 1.367 . S
C1659 C1661 1.433 1_565 S
C1660 C1656 1.350 . S
C1660 C1657 1.463 1_565 S
C1660 N1664 1.427 1_565 S
C1661 H1651 0.929 . S
C1661 C1659 1.433 1_545 S
C1661 N1664 1.384 . S
C1662 H1653 0.929 . S
C1662 C1654 1.378 . S
C1662 C1657 1.350 . S
C1663 H1650 0.929 . S
C1663 C1655 1.433 1_565 S
C1663 N1665 1.384 . S
N1664 C1660 1.427 1_545 S
N1664 C1661 1.384 . S
N1665 C1657 1.427 1_565 S
N1665 C1663 1.384 . S
H1666 C1672 0.930 . S
H1667 C1676 0.930 . S
H1668 C1681 0.929 . S
H1669 C1679 0.929 . S
H1670 C1674 0.929 . S
H1671 C1680 0.929 . S
C1672 H1666 0.930 . S
C1672 C1673 1.367 . S
C1672 C1680 1.378 . S
C1673 C1672 1.367 . S
C1673 C1681 1.433 . S
C1674 H1670 0.929 . S
C1674 C1676 1.378 . S
C1674 C1678 1.350 . S
C1675 C1678 1.463 . S
C1675 C1680 1.350 . S
C1675 N1683 1.427 . S
C1676 H1667 0.930 . S
C1676 C1674 1.378 . S
C1676 C1677 1.367 . S
C1677 C1676 1.367 . S
C1677 C1679 1.433 . S
C1678 C1674 1.350 . S
C1678 C1675 1.463 . S
C1678 N1682 1.427 . S
C1679 H1669 0.929 . S
C1679 C1677 1.433 . S
C1679 N1682 1.384 . S
C1680 H1671 0.929 . S
C1680 C1672 1.378 . S
C1680 C1675 1.350 . S
C1681 H1668 0.929 . S
C1681 C1673 1.433 . S
C1681 N1683 1.384 . S
N1682 C1678 1.427 . S
N1682 C1679 1.384 . S
N1683 C1675 1.427 . S
N1683 C1681 1.384 . S
H1684 C1690 0.930 . S
H1685 C1694 0.930 . S
H1686 C1699 0.929 . S
H1687 C1697 0.929 . S
H1688 C1692 0.929 . S
H1689 C1698 0.929 . S
C1690 H1684 0.930 . S
C1690 C1691 1.367 . S
C1690 C1698 1.378 . S
C1691 C1690 1.367 . S
C1691 C1699 1.433 . S
C1692 H1688 0.929 . S
C1692 C1694 1.378 . S
C1692 C1696 1.350 . S
C1693 C1696 1.463 . S
C1693 C1698 1.350 . S
C1693 N1701 1.427 . S
C1694 H1685 0.930 . S
C1694 C1692 1.378 . S
C1694 C1695 1.367 . S
C1695 C1694 1.367 . S
C1695 C1697 1.433 . S
C1696 C1692 1.350 . S
C1696 C1693 1.463 . S
C1696 N1700 1.427 . S
C1697 H1687 0.929 . S
C1697 C1695 1.433 . S
C1697 N1700 1.384 . S
C1698 H1689 0.929 . S
C1698 C1690 1.378 . S
C1698 C1693 1.350 . S
C1699 H1686 0.929 . S
C1699 C1691 1.433 . S
C1699 N1701 1.384 . S
N1700 C1696 1.427 . S
N1700 C1697 1.384 . S
N1701 C1693 1.427 . S
N1701 C1699 1.384 . S
H1702 C1708 0.930 . S
H1703 C1712 0.930 . S
H1704 C1717 0.929 . S
H1705 C1715 0.929 . S
H1706 C1710 0.925 1_545 S
H1707 C1716 0.923 1_565 S
C1708 H1702 0.930 . S
C1708 C1709 1.367 . S
C1708 C1716 1.378 . S
C1709 C1708 1.367 . S
C1709 C1717 1.433 . S
C1710 H1706 0.925 1_565 S
C1710 C1712 1.378 . S
C1710 C1714 1.350 . S
C1711 C1714 1.463 1_545 S
C1711 C1716 1.350 . S
C1711 N1719 1.427 . S
C1712 H1703 0.930 . S
C1712 C1710 1.378 . S
C1712 C1713 1.367 . S
C1713 C1712 1.367 . S
C1713 C1715 1.433 . S
C1714 C1710 1.350 . S
C1714 C1711 1.463 1_565 S
C1714 N1718 1.427 . S
C1715 H1705 0.929 . S
C1715 C1713 1.433 . S
C1715 N1718 1.384 . S
C1716 H1707 0.923 1_545 S
C1716 C1708 1.378 . S
C1716 C1711 1.350 . S
C1717 H1704 0.929 . S
C1717 C1709 1.433 . S
C1717 N1719 1.384 . S
N1718 C1714 1.427 . S
N1718 C1715 1.384 . S
N1719 C1711 1.427 . S
N1719 C1717 1.384 . S
H1720 C1726 0.930 . S
H1721 C1730 0.930 . S
H1722 C1735 0.929 . S
H1723 C1733 0.929 . S
H1724 C1728 0.929 . S
H1725 C1734 0.929 . S
C1726 H1720 0.930 . S
C1726 C1727 1.367 . S
C1726 C1734 1.378 . S
C1727 C1726 1.367 . S
C1727 C1735 1.433 1_565 S
C1728 H1724 0.929 . S
C1728 C1730 1.378 . S
C1728 C1732 1.350 . S
C1729 C1732 1.463 1_565 S
C1729 C1734 1.350 . S
C1729 N1737 1.427 1_565 S
C1730 H1721 0.930 . S
C1730 C1728 1.378 . S
C1730 C1731 1.367 . S
C1731 C1730 1.367 . S
C1731 C1733 1.433 1_545 S
C1732 C1728 1.350 . S
C1732 C1729 1.463 1_545 S
C1732 N1736 1.427 1_545 S
C1733 H1723 0.929 . S
C1733 C1731 1.433 1_565 S
C1733 N1736 1.384 . S
C1734 H1725 0.929 . S
C1734 C1726 1.378 . S
C1734 C1729 1.350 . S
C1735 H1722 0.929 . S
C1735 C1727 1.433 1_545 S
C1735 N1737 1.384 . S
N1736 C1732 1.427 1_565 S
N1736 C1733 1.384 . S
N1737 C1729 1.427 1_545 S
N1737 C1735 1.384 . S
H1738 C1744 0.930 . S
H1739 C1748 0.930 . S
H1740 C1753 0.929 . S
H1741 C1751 0.929 . S
H1742 C1746 0.929 . S
H1743 C1752 0.929 . S
C1744 H1738 0.930 . S
C1744 C1745 1.367 . S
C1744 C1752 1.378 . S
C1745 C1744 1.367 . S
C1745 C1753 1.433 . S
C1746 H1742 0.929 . S
C1746 C1748 1.378 . S
C1746 C1750 1.350 . S
C1747 C1750 1.463 . S
C1747 C1752 1.350 . S
C1747 N1755 1.427 . S
C1748 H1739 0.930 . S
C1748 C1746 1.378 . S
C1748 C1749 1.367 . S
C1749 C1748 1.367 . S
C1749 C1751 1.433 . S
C1750 C1746 1.350 . S
C1750 C1747 1.463 . S
C1750 N1754 1.427 . S
C1751 H1741 0.929 . S
C1751 C1749 1.433 . S
C1751 N1754 1.384 . S
C1752 H1743 0.929 . S
C1752 C1744 1.378 . S
C1752 C1747 1.350 . S
C1753 H1740 0.929 . S
C1753 C1745 1.433 . S
C1753 N1755 1.384 . S
N1754 C1750 1.427 . S
N1754 C1751 1.384 . S
N1755 C1747 1.427 . S
N1755 C1753 1.384 . S
H1756 C1762 0.930 . S
H1757 C1766 0.930 . S
H1758 C1771 0.929 . S
H1759 C1769 0.929 . S
H1760 C1764 0.929 . S
H1761 C1770 0.929 . S
C1762 H1756 0.930 . S
C1762 C1763 1.367 . S
C1762 C1770 1.378 . S
C1763 C1762 1.367 . S
C1763 C1771 1.433 . S
C1764 H1760 0.929 . S
C1764 C1766 1.378 . S
C1764 C1768 1.350 . S
C1765 C1768 1.463 . S
C1765 C1770 1.350 . S
C1765 N1773 1.427 . S
C1766 H1757 0.930 . S
C1766 C1764 1.378 . S
C1766 C1767 1.367 . S
C1767 C1766 1.367 . S
C1767 C1769 1.433 . S
C1768 C1764 1.350 . S
C1768 C1765 1.463 . S
C1768 N1772 1.427 . S
C1769 H1759 0.929 . S
C1769 C1767 1.433 . S
C1769 N1772 1.384 . S
C1770 H1761 0.929 . S
C1770 C1762 1.378 . S
C1770 C1765 1.350 . S
C1771 H1758 0.929 . S
C1771 C1763 1.433 . S
C1771 N1773 1.384 . S
N1772 C1768 1.427 . S
N1772 C1769 1.384 . S
N1773 C1765 1.427 . S
N1773 C1771 1.384 . S
H1774 C1780 0.930 . S
H1775 C1784 0.930 . S
H1776 C1789 0.929 . S
H1777 C1787 0.929 . S
H1778 C1782 0.929 . S
H1779 C1788 0.929 . S
C1780 H1774 0.930 . S
C1780 C1781 1.367 . S
C1780 C1788 1.378 . S
C1781 C1780 1.367 . S
C1781 C1789 1.433 1_565 S
C1782 H1778 0.929 . S
C1782 C1784 1.378 . S
C1782 C1786 1.350 . S
C1783 C1786 1.463 1_565 S
C1783 C1788 1.350 . S
C1783 N1791 1.427 1_565 S
C1784 H1775 0.930 . S
C1784 C1782 1.378 . S
C1784 C1785 1.367 . S
C1785 C1784 1.367 . S
C1785 C1787 1.433 1_545 S
C1786 C1782 1.350 . S
C1786 C1783 1.463 1_545 S
C1786 N1790 1.427 1_545 S
C1787 H1777 0.929 . S
C1787 C1785 1.433 1_565 S
C1787 N1790 1.384 . S
C1788 H1779 0.929 . S
C1788 C1780 1.378 . S
C1788 C1783 1.350 . S
C1789 H1776 0.929 . S
C1789 C1781 1.433 1_545 S
C1789 N1791 1.384 . S
N1790 C1786 1.427 1_565 S
N1790 C1787 1.384 . S
N1791 C1783 1.427 1_545 S
N1791 C1789 1.384 . S
H1792 C1798 0.930 . S
H1793 C1802 0.930 . S
H1794 C1807 0.929 . S
H1795 C1805 0.929 . S
H1796 C1800 0.929 . S
H1797 C1806 0.929 . S
C1798 H1792 0.930 . S
C1798 C1799 1.367 . S
C1798 C1806 1.378 . S
C1799 C1798 1.367 . S
C1799 C1807 1.433 . S
C1800 H1796 0.929 . S
C1800 C1802 1.378 . S
C1800 C1804 1.350 . S
C1801 C1804 1.463 1_455 S
C1801 C1806 1.350 . S
C1801 N1809 1.427 . S
C1802 H1793 0.930 . S
C1802 C1800 1.378 . S
C1802 C1803 1.367 . S
C1803 C1802 1.367 . S
C1803 C1805 1.433 . S
C1804 C1800 1.350 . S
C1804 C1801 1.463 1_655 S
C1804 N1808 1.427 . S
C1805 H1795 0.929 . S
C1805 C1803 1.433 . S
C1805 N1808 1.384 . S
C1806 H1797 0.929 . S
C1806 C1798 1.378 . S
C1806 C1801 1.350 . S
C1807 H1794 0.929 . S
C1807 C1799 1.433 . S
C1807 N1809 1.384 . S
N1808 C1804 1.427 . S
N1808 C1805 1.384 . S
N1809 C1801 1.427 . S
N1809 C1807 1.384 . S
H1810 C1816 0.930 . S
H1811 C1820 0.930 . S
H1812 C1825 0.929 . S
H1813 C1823 0.929 . S
H1814 C1818 0.929 . S
H1815 C1824 0.929 . S
C1816 H1810 0.930 . S
C1816 C1817 1.367 . S
C1816 C1824 1.378 . S
C1817 C1816 1.367 . S
C1817 C1825 1.433 . S
C1818 H1814 0.929 . S
C1818 C1820 1.378 . S
C1818 C1822 1.350 . S
C1819 C1822 1.463 . S
C1819 C1824 1.350 . S
C1819 N1827 1.427 . S
C1820 H1811 0.930 . S
C1820 C1818 1.378 . S
C1820 C1821 1.367 . S
C1821 C1820 1.367 . S
C1821 C1823 1.433 . S
C1822 C1818 1.350 . S
C1822 C1819 1.463 . S
C1822 N1826 1.427 . S
C1823 H1813 0.929 . S
C1823 C1821 1.433 . S
C1823 N1826 1.384 . S
C1824 H1815 0.929 . S
C1824 C1816 1.378 . S
C1824 C1819 1.350 . S
C1825 H1812 0.929 . S
C1825 C1817 1.433 . S
C1825 N1827 1.384 . S
N1826 C1822 1.427 . S
N1826 C1823 1.384 . S
N1827 C1819 1.427 . S
N1827 C1825 1.384 . S
H1828 C1834 0.930 . S
H1829 C1838 0.930 . S
H1830 C1843 0.929 . S
H1831 C1841 0.929 . S
H1832 C1836 0.929 . S
H1833 C1842 0.929 . S
C1834 H1828 0.930 . S
C1834 C1835 1.367 . S
C1834 C1842 1.378 . S
C1835 C1834 1.367 . S
C1835 C1843 1.433 . S
C1836 H1832 0.929 . S
C1836 C1838 1.378 . S
C1836 C1840 1.350 . S
C1837 C1840 1.463 1_655 S
C1837 C1842 1.350 . S
C1837 N1845 1.427 . S
C1838 H1829 0.930 . S
C1838 C1836 1.378 . S
C1838 C1839 1.367 . S
C1839 C1838 1.367 . S
C1839 C1841 1.433 . S
C1840 C1836 1.350 . S
C1840 C1837 1.463 1_455 S
C1840 N1844 1.427 . S
C1841 H1831 0.929 . S
C1841 C1839 1.433 . S
C1841 N1844 1.384 . S
C1842 H1833 0.929 . S
C1842 C1834 1.378 . S
C1842 C1837 1.350 . S
C1843 H1830 0.929 . S
C1843 C1835 1.433 . S
C1843 N1845 1.384 . S
N1844 C1840 1.427 . S
N1844 C1841 1.384 . S
N1845 C1837 1.427 . S
N1845 C1843 1.384 . S
H1846 C1852 0.930 . S
H1847 C1856 0.930 . S
H1848 C1861 0.929 . S
H1849 C1859 0.929 . S
H1850 C1854 0.929 . S
H1851 C1860 0.929 . S
C1852 H1846 0.930 . S
C1852 C1853 1.367 . S
C1852 C1860 1.378 . S
C1853 C1852 1.367 . S
C1853 C1861 1.433 . S
C1854 H1850 0.929 . S
C1854 C1856 1.378 . S
C1854 C1858 1.350 . S
C1855 C1858 1.463 . S
C1855 C1860 1.350 . S
C1855 N1863 1.427 . S
C1856 H1847 0.930 . S
C1856 C1854 1.378 . S
C1856 C1857 1.367 . S
C1857 C1856 1.367 . S
C1857 C1859 1.433 . S
C1858 C1854 1.350 . S
C1858 C1855 1.463 . S
C1858 N1862 1.427 . S
C1859 H1849 0.929 . S
C1859 C1857 1.433 . S
C1859 N1862 1.384 . S
C1860 H1851 0.929 . S
C1860 C1852 1.378 . S
C1860 C1855 1.350 . S
C1861 H1848 0.929 . S
C1861 C1853 1.433 . S
C1861 N1863 1.384 . S
N1862 C1858 1.427 . S
N1862 C1859 1.384 . S
N1863 C1855 1.427 . S
N1863 C1861 1.384 . S
H1864 C1870 0.930 . S
H1865 C1874 0.930 . S
H1866 C1879 0.929 . S
H1867 C1877 0.929 . S
H1868 C1872 0.929 . S
H1869 C1878 0.929 . S
C1870 H1864 0.930 . S
C1870 C1871 1.367 . S
C1870 C1878 1.378 . S
C1871 C1870 1.367 . S
C1871 C1879 1.433 . S
C1872 H1868 0.929 . S
C1872 C1874 1.378 . S
C1872 C1876 1.350 . S
C1873 C1876 1.463 1_655 S
C1873 C1878 1.350 . S
C1873 N1881 1.427 . S
C1874 H1865 0.930 . S
C1874 C1872 1.378 . S
C1874 C1875 1.367 . S
C1875 C1874 1.367 . S
C1875 C1877 1.433 . S
C1876 C1872 1.350 . S
C1876 C1873 1.463 1_455 S
C1876 N1880 1.427 . S
C1877 H1867 0.929 . S
C1877 C1875 1.433 . S
C1877 N1880 1.384 . S
C1878 H1869 0.929 . S
C1878 C1870 1.378 . S
C1878 C1873 1.350 . S
C1879 H1866 0.929 . S
C1879 C1871 1.433 . S
C1879 N1881 1.384 . S
N1880 C1876 1.427 . S
N1880 C1877 1.384 . S
N1881 C1873 1.427 . S
N1881 C1879 1.384 . S
H1882 C1888 0.930 . S
H1883 C1892 0.930 . S
H1884 C1897 0.929 . S
H1885 C1895 0.929 . S
H1886 C1890 0.929 . S
H1887 C1896 0.929 . S
C1888 H1882 0.930 . S
C1888 C1889 1.367 . S
C1888 C1896 1.378 . S
C1889 C1888 1.367 . S
C1889 C1897 1.433 . S
C1890 H1886 0.929 . S
C1890 C1892 1.378 . S
C1890 C1894 1.350 . S
C1891 C1894 1.463 . S
C1891 C1896 1.350 . S
C1891 N1899 1.427 . S
C1892 H1883 0.930 . S
C1892 C1890 1.378 . S
C1892 C1893 1.367 . S
C1893 C1892 1.367 . S
C1893 C1895 1.433 . S
C1894 C1890 1.350 . S
C1894 C1891 1.463 . S
C1894 N1898 1.427 . S
C1895 H1885 0.929 . S
C1895 C1893 1.433 . S
C1895 N1898 1.384 . S
C1896 H1887 0.929 . S
C1896 C1888 1.378 . S
C1896 C1891 1.350 . S
C1897 H1884 0.929 . S
C1897 C1889 1.433 . S
C1897 N1899 1.384 . S
N1898 C1894 1.427 . S
N1898 C1895 1.384 . S
N1899 C1891 1.427 . S
N1899 C1897 1.384 . S
H1900 C1906 0.930 . S
H1901 C1910 0.930 . S
H1902 C1915 0.929 . S
H1903 C1913 0.929 . S
H1904 C1908 0.929 . S
H1905 C1914 0.929 . S
C1906 H1900 0.930 . S
C1906 C1907 1.367 . S
C1906 C1914 1.378 . S
C1907 C1906 1.367 . S
C1907 C1915 1.433 . S
C1908 H1904 0.929 . S
C1908 C1910 1.378 . S
C1908 C1912 1.350 . S
C1909 C1912 1.463 1_455 S
C1909 C1914 1.350 . S
C1909 N1917 1.427 . S
C1910 H1901 0.930 . S
C1910 C1908 1.378 . S
C1910 C1911 1.367 . S
C1911 C1910 1.367 . S
C1911 C1913 1.433 . S
C1912 C1908 1.350 . S
C1912 C1909 1.463 1_655 S
C1912 N1916 1.427 . S
C1913 H1903 0.929 . S
C1913 C1911 1.433 . S
C1913 N1916 1.384 . S
C1914 H1905 0.929 . S
C1914 C1906 1.378 . S
C1914 C1909 1.350 . S
C1915 H1902 0.929 . S
C1915 C1907 1.433 . S
C1915 N1917 1.384 . S
N1916 C1912 1.427 . S
N1916 C1913 1.384 . S
N1917 C1909 1.427 . S
N1917 C1915 1.384 . S
H1918 C1924 0.930 . S
H1919 C1928 0.930 . S
H1920 C1933 0.929 . S
H1921 C1931 0.929 . S
H1922 C1926 0.929 . S
H1923 C1932 0.929 . S
C1924 H1918 0.930 . S
C1924 C1925 1.367 . S
C1924 C1932 1.378 . S
C1925 C1924 1.367 . S
C1925 C1933 1.433 . S
C1926 H1922 0.929 . S
C1926 C1928 1.378 . S
C1926 C1930 1.350 . S
C1927 C1930 1.463 . S
C1927 C1932 1.350 . S
C1927 N1935 1.427 . S
C1928 H1919 0.930 . S
C1928 C1926 1.378 . S
C1928 C1929 1.367 . S
C1929 C1928 1.367 . S
C1929 C1931 1.433 . S
C1930 C1926 1.350 . S
C1930 C1927 1.463 . S
C1930 N1934 1.427 . S
C1931 H1921 0.929 . S
C1931 C1929 1.433 . S
C1931 N1934 1.384 . S
C1932 H1923 0.929 . S
C1932 C1924 1.378 . S
C1932 C1927 1.350 . S
C1933 H1920 0.929 . S
C1933 C1925 1.433 . S
C1933 N1935 1.384 . S
N1934 C1930 1.427 . S
N1934 C1931 1.384 . S
N1935 C1927 1.427 . S
N1935 C1933 1.384 . S
H1936 C1942 0.930 . S
H1937 C1946 0.930 . S
H1938 C1951 0.929 . S
H1939 C1949 0.929 . S
H1940 C1944 0.929 . S
H1941 C1950 0.929 . S
C1942 H1936 0.930 . S
C1942 C1943 1.367 . S
C1942 C1950 1.378 . S
C1943 C1942 1.367 . S
C1943 C1951 1.433 1_545 S
C1944 H1940 0.929 . S
C1944 C1946 1.378 . S
C1944 C1948 1.350 . S
C1945 C1948 1.463 1_645 S
C1945 C1950 1.350 . S
C1945 N1953 1.427 1_545 S
C1946 H1937 0.930 . S
C1946 C1944 1.378 . S
C1946 C1947 1.367 . S
C1947 C1946 1.367 . S
C1947 C1949 1.433 1_565 S
C1948 C1944 1.350 . S
C1948 C1945 1.463 1_465 S
C1948 N1952 1.427 1_565 S
C1949 H1939 0.929 . S
C1949 C1947 1.433 1_545 S
C1949 N1952 1.384 . S
C1950 H1941 0.929 . S
C1950 C1942 1.378 . S
C1950 C1945 1.350 . S
C1951 H1938 0.929 . S
C1951 C1943 1.433 1_565 S
C1951 N1953 1.384 . S
N1952 C1948 1.427 1_545 S
N1952 C1949 1.384 . S
N1953 C1945 1.427 1_565 S
N1953 C1951 1.384 . S
H1954 C1960 0.930 . S
H1955 C1964 0.930 . S
H1956 C1969 0.929 . S
H1957 C1967 0.929 . S
H1958 C1962 0.929 . S
H1959 C1968 0.929 . S
C1960 H1954 0.930 . S
C1960 C1961 1.367 . S
C1960 C1968 1.378 . S
C1961 C1960 1.367 . S
C1961 C1969 1.433 . S
C1962 H1958 0.929 . S
C1962 C1964 1.378 . S
C1962 C1966 1.350 . S
C1963 C1966 1.463 . S
C1963 C1968 1.350 . S
C1963 N1971 1.427 . S
C1964 H1955 0.930 . S
C1964 C1962 1.378 . S
C1964 C1965 1.367 . S
C1965 C1964 1.367 . S
C1965 C1967 1.433 . S
C1966 C1962 1.350 . S
C1966 C1963 1.463 . S
C1966 N1970 1.427 . S
C1967 H1957 0.929 . S
C1967 C1965 1.433 . S
C1967 N1970 1.384 . S
C1968 H1959 0.929 . S
C1968 C1960 1.378 . S
C1968 C1963 1.350 . S
C1969 H1956 0.929 . S
C1969 C1961 1.433 . S
C1969 N1971 1.384 . S
N1970 C1966 1.427 . S
N1970 C1967 1.384 . S
N1971 C1963 1.427 . S
N1971 C1969 1.384 . S
H1972 C1978 0.930 . S
H1973 C1982 0.930 . S
H1974 C1987 0.929 . S
H1975 C1985 0.929 . S
H1976 C1980 0.929 . S
H1977 C1986 0.929 . S
C1978 H1972 0.930 . S
C1978 C1979 1.367 . S
C1978 C1986 1.378 . S
C1979 C1978 1.367 . S
C1979 C1987 1.433 . S
C1980 H1976 0.929 . S
C1980 C1982 1.378 . S
C1980 C1984 1.350 . S
C1981 C1984 1.463 1_655 S
C1981 C1986 1.350 . S
C1981 N1989 1.427 . S
C1982 H1973 0.930 . S
C1982 C1980 1.378 . S
C1982 C1983 1.367 . S
C1983 C1982 1.367 . S
C1983 C1985 1.433 . S
C1984 C1980 1.350 . S
C1984 C1981 1.463 1_455 S
C1984 N1988 1.427 . S
C1985 H1975 0.929 . S
C1985 C1983 1.433 . S
C1985 N1988 1.384 . S
C1986 H1977 0.929 . S
C1986 C1978 1.378 . S
C1986 C1981 1.350 . S
C1987 H1974 0.929 . S
C1987 C1979 1.433 . S
C1987 N1989 1.384 . S
N1988 C1984 1.427 . S
N1988 C1985 1.384 . S
N1989 C1981 1.427 . S
N1989 C1987 1.384 . S
H1990 C1996 0.930 . S
H1991 C2000 0.930 . S
H1992 C2005 0.929 . S
H1993 C2003 0.929 . S
H1994 C1998 0.929 . S
H1995 C2004 0.929 . S
C1996 H1990 0.930 . S
C1996 C1997 1.367 1_565 S
C1996 C2004 1.378 . S
C1997 C1996 1.367 1_545 S
C1997 C2005 1.433 . S
C1998 H1994 0.929 . S
C1998 C2000 1.378 . S
C1998 C2002 1.350 1_545 S
C1999 C2002 1.458 1_545 S
C1999 C2004 1.331 1_545 S
C1999 N2007 1.456 . S
C2000 H1991 0.930 . S
C2000 C1998 1.378 . S
C2000 C2001 1.367 1_545 S
C2001 C2000 1.367 1_565 S
C2001 C2003 1.433 . S
C2002 C1998 1.350 1_565 S
C2002 C1999 1.458 1_565 S
C2002 N2006 1.427 . S
C2003 H1993 0.929 . S
C2003 C2001 1.433 . S
C2003 N2006 1.384 . S
C2004 H1995 0.929 . S
C2004 C1996 1.378 . S
C2004 C1999 1.331 1_565 S
C2005 H1992 0.929 . S
C2005 C1997 1.433 . S
C2005 N2007 1.384 . S
N2006 C2002 1.427 . S
N2006 C2003 1.384 . S
N2007 C1999 1.456 . S
N2007 C2005 1.384 . S
H2008 C2014 0.931 . S
H2009 C2018 0.931 1_545 S
H2010 C2023 0.929 . S
H2011 C2021 0.929 . S
H2012 C2016 0.929 . S
H2013 C2022 0.943 . S
C2014 H2008 0.931 . S
C2014 C2015 1.367 . S
C2014 C2022 1.372 1_545 S
C2015 C2014 1.367 . S
C2015 C2023 1.433 . S
C2016 H2012 0.929 . S
C2016 C2018 1.378 1_545 S
C2016 C2020 1.350 1_545 S
C2017 C2020 1.463 1_645 S
C2017 C2022 1.345 1_545 S
C2017 N2025 1.427 . S
C2018 H2009 0.931 1_565 S
C2018 C2016 1.378 1_565 S
C2018 C2019 1.367 . S
C2019 C2018 1.367 . S
C2019 C2021 1.433 . S
C2020 C2016 1.350 1_565 S
C2020 C2017 1.463 1_465 S
C2020 N2024 1.427 . S
C2021 H2011 0.929 . S
C2021 C2019 1.433 . S
C2021 N2024 1.384 . S
C2022 H2013 0.943 . S
C2022 C2014 1.372 1_565 S
C2022 C2017 1.345 1_565 S
C2023 H2010 0.929 . S
C2023 C2015 1.433 . S
C2023 N2025 1.384 . S
N2024 C2020 1.427 . S
N2024 C2021 1.384 . S
N2025 C2017 1.427 . S
N2025 C2023 1.384 . S
H2026 C2032 0.930 . S
H2027 C2036 0.930 . S
H2028 C2041 0.929 . S
H2029 C2039 0.929 . S
H2030 C2034 0.929 . S
H2031 C2040 0.929 . S
C2032 H2026 0.930 . S
C2032 C2033 1.367 . S
C2032 C2040 1.378 . S
C2033 C2032 1.367 . S
C2033 C2041 1.433 . S
C2034 H2030 0.929 . S
C2034 C2036 1.378 . S
C2034 C2038 1.350 . S
C2035 C2038 1.463 . S
C2035 C2040 1.350 . S
C2035 N2043 1.427 . S
C2036 H2027 0.930 . S
C2036 C2034 1.378 . S
C2036 C2037 1.367 . S
C2037 C2036 1.367 . S
C2037 C2039 1.433 . S
C2038 C2034 1.350 . S
C2038 C2035 1.463 . S
C2038 N2042 1.427 . S
C2039 H2029 0.929 . S
C2039 C2037 1.433 . S
C2039 N2042 1.384 . S
C2040 H2031 0.929 . S
C2040 C2032 1.378 . S
C2040 C2035 1.350 . S
C2041 H2028 0.929 . S
C2041 C2033 1.433 . S
C2041 N2043 1.384 . S
N2042 C2038 1.427 . S
N2042 C2039 1.384 . S
N2043 C2035 1.427 . S
N2043 C2041 1.384 . S
H2044 C2050 0.930 . S
H2045 C2054 0.930 . S
H2046 C2059 0.929 . S
H2047 C2057 0.929 . S
H2048 C2052 0.929 . S
H2049 C2058 0.929 . S
C2050 H2044 0.930 . S
C2050 C2051 1.367 . S
C2050 C2058 1.378 . S
C2051 C2050 1.367 . S
C2051 C2059 1.433 . S
C2052 H2048 0.929 . S
C2052 C2054 1.378 . S
C2052 C2056 1.350 . S
C2053 C2056 1.463 1_455 S
C2053 C2058 1.350 . S
C2053 N2061 1.427 . S
C2054 H2045 0.930 . S
C2054 C2052 1.378 . S
C2054 C2055 1.367 . S
C2055 C2054 1.367 . S
C2055 C2057 1.433 . S
C2056 C2052 1.350 . S
C2056 C2053 1.463 1_655 S
C2056 N2060 1.427 . S
C2057 H2047 0.929 . S
C2057 C2055 1.433 . S
C2057 N2060 1.384 . S
C2058 H2049 0.929 . S
C2058 C2050 1.378 . S
C2058 C2053 1.350 . S
C2059 H2046 0.929 . S
C2059 C2051 1.433 . S
C2059 N2061 1.384 . S
N2060 C2056 1.427 . S
N2060 C2057 1.384 . S
N2061 C2053 1.427 . S
N2061 C2059 1.384 . S
H2062 C2068 0.930 . S
H2063 C2072 0.930 . S
H2064 C2077 0.929 . S
H2065 C2075 0.929 . S
H2066 C2070 0.929 . S
H2067 C2076 0.929 . S
C2068 H2062 0.930 . S
C2068 C2069 1.367 1_545 S
C2068 C2076 1.378 . S
C2069 C2068 1.367 1_565 S
C2069 C2077 1.433 . S
C2070 H2066 0.929 . S
C2070 C2072 1.378 . S
C2070 C2074 1.350 1_565 S
C2071 C2074 1.458 1_565 S
C2071 C2076 1.332 1_565 S
C2071 N2079 1.456 . S
C2072 H2063 0.930 . S
C2072 C2070 1.378 . S
C2072 C2073 1.367 1_565 S
C2073 C2072 1.367 1_545 S
C2073 C2075 1.433 . S
C2074 C2070 1.350 1_545 S
C2074 C2071 1.458 1_545 S
C2074 N2078 1.427 . S
C2075 H2065 0.929 . S
C2075 C2073 1.433 . S
C2075 N2078 1.384 . S
C2076 H2067 0.929 . S
C2076 C2068 1.378 . S
C2076 C2071 1.332 1_545 S
C2077 H2064 0.929 . S
C2077 C2069 1.433 . S
C2077 N2079 1.384 . S
N2078 C2074 1.427 . S
N2078 C2075 1.384 . S
N2079 C2071 1.456 . S
N2079 C2077 1.384 . S
H2080 C2086 0.930 . S
H2081 C2090 0.930 . S
H2082 C2095 0.929 . S
H2083 C2093 0.929 . S
H2084 C2088 0.929 . S
H2085 C2094 0.929 . S
C2086 H2080 0.930 . S
C2086 C2087 1.367 . S
C2086 C2094 1.378 . S
C2087 C2086 1.367 . S
C2087 C2095 1.433 1_655 S
C2088 H2084 0.929 . S
C2088 C2090 1.378 . S
C2088 C2092 1.350 . S
C2089 C2092 1.463 1_654 S
C2089 C2094 1.350 . S
C2089 N2097 1.427 1_655 S
C2090 H2081 0.930 . S
C2090 C2088 1.378 . S
C2090 C2091 1.367 . S
C2091 C2090 1.367 . S
C2091 C2093 1.433 1_455 S
C2092 C2088 1.350 . S
C2092 C2089 1.463 1_456 S
C2092 N2096 1.427 1_455 S
C2093 H2083 0.929 . S
C2093 C2091 1.433 1_655 S
C2093 N2096 1.384 . S
C2094 H2085 0.929 . S
C2094 C2086 1.378 . S
C2094 C2089 1.350 . S
C2095 H2082 0.929 . S
C2095 C2087 1.433 1_455 S
C2095 N2097 1.384 . S
N2096 C2092 1.427 1_655 S
N2096 C2093 1.384 . S
N2097 C2089 1.427 1_455 S
N2097 C2095 1.384 . S
H2098 C2104 0.930 . S
H2099 C2108 0.930 . S
H2100 C2113 0.929 . S
H2101 C2111 0.929 . S
H2102 C2106 0.929 . S
H2103 C2112 0.929 . S
C2104 H2098 0.930 . S
C2104 C2105 1.367 . S
C2104 C2112 1.378 . S
C2105 C2104 1.367 . S
C2105 C2113 1.433 . S
C2106 H2102 0.929 . S
C2106 C2108 1.378 . S
C2106 C2110 1.350 . S
C2107 C2110 1.463 1_556 S
C2107 C2112 1.350 . S
C2107 N2115 1.427 . S
C2108 H2099 0.930 . S
C2108 C2106 1.378 . S
C2108 C2109 1.367 . S
C2109 C2108 1.367 . S
C2109 C2111 1.433 . S
C2110 C2106 1.350 . S
C2110 C2107 1.463 1_554 S
C2110 N2114 1.427 . S
C2111 H2101 0.929 . S
C2111 C2109 1.433 . S
C2111 N2114 1.384 . S
C2112 H2103 0.929 . S
C2112 C2104 1.378 . S
C2112 C2107 1.350 . S
C2113 H2100 0.929 . S
C2113 C2105 1.433 . S
C2113 N2115 1.384 . S
N2114 C2110 1.427 . S
N2114 C2111 1.384 . S
N2115 C2107 1.427 . S
N2115 C2113 1.384 . S
H2116 C2122 0.930 . S
H2117 C2126 0.930 . S
H2118 C2131 0.929 . S
H2119 C2129 0.929 . S
H2120 C2124 0.929 . S
H2121 C2130 0.929 . S
C2122 H2116 0.930 . S
C2122 C2123 1.367 . S
C2122 C2130 1.378 . S
C2123 C2122 1.367 . S
C2123 C2131 1.433 1_455 S
C2124 H2120 0.929 . S
C2124 C2126 1.378 . S
C2124 C2128 1.350 . S
C2125 C2128 1.463 1_455 S
C2125 C2130 1.350 . S
C2125 N2133 1.427 1_455 S
C2126 H2117 0.930 . S
C2126 C2124 1.378 . S
C2126 C2127 1.367 . S
C2127 C2126 1.367 . S
C2127 C2129 1.433 1_655 S
C2128 C2124 1.350 . S
C2128 C2125 1.463 1_655 S
C2128 N2132 1.427 1_655 S
C2129 H2119 0.929 . S
C2129 C2127 1.433 1_455 S
C2129 N2132 1.384 . S
C2130 H2121 0.929 . S
C2130 C2122 1.378 . S
C2130 C2125 1.350 . S
C2131 H2118 0.929 . S
C2131 C2123 1.433 1_655 S
C2131 N2133 1.384 . S
N2132 C2128 1.427 1_455 S
N2132 C2129 1.384 . S
N2133 C2125 1.427 1_655 S
N2133 C2131 1.384 . S
H2134 C2140 0.930 . S
H2135 C2144 0.930 . S
H2136 C2149 0.929 . S
H2137 C2147 0.929 . S
H2138 C2142 0.929 . S
H2139 C2148 0.929 . S
C2140 H2134 0.930 . S
C2140 C2141 1.367 . S
C2140 C2148 1.378 . S
C2141 C2140 1.367 . S
C2141 C2149 1.433 . S
C2142 H2138 0.929 . S
C2142 C2144 1.378 . S
C2142 C2146 1.350 . S
C2143 C2146 1.463 . S
C2143 C2148 1.350 . S
C2143 N2151 1.427 . S
C2144 H2135 0.930 . S
C2144 C2142 1.378 . S
C2144 C2145 1.367 . S
C2145 C2144 1.367 . S
C2145 C2147 1.433 . S
C2146 C2142 1.350 . S
C2146 C2143 1.463 . S
C2146 N2150 1.427 . S
C2147 H2137 0.929 . S
C2147 C2145 1.433 . S
C2147 N2150 1.384 . S
C2148 H2139 0.929 . S
C2148 C2140 1.378 . S
C2148 C2143 1.350 . S
C2149 H2136 0.929 . S
C2149 C2141 1.433 . S
C2149 N2151 1.384 . S
N2150 C2146 1.427 . S
N2150 C2147 1.384 . S
N2151 C2143 1.427 . S
N2151 C2149 1.384 . S
H2152 C2158 0.930 . S
H2153 C2162 0.930 . S
H2154 C2167 0.929 . S
H2155 C2165 0.929 . S
H2156 C2160 0.929 . S
H2157 C2166 0.929 . S
C2158 H2152 0.930 . S
C2158 C2159 1.367 . S
C2158 C2166 1.378 . S
C2159 C2158 1.367 . S
C2159 C2167 1.433 . S
C2160 H2156 0.929 . S
C2160 C2162 1.378 . S
C2160 C2164 1.350 . S
C2161 C2164 1.463 1_556 S
C2161 C2166 1.350 . S
C2161 N2169 1.427 . S
C2162 H2153 0.930 . S
C2162 C2160 1.378 . S
C2162 C2163 1.367 . S
C2163 C2162 1.367 . S
C2163 C2165 1.433 . S
C2164 C2160 1.350 . S
C2164 C2161 1.463 1_554 S
C2164 N2168 1.427 . S
C2165 H2155 0.929 . S
C2165 C2163 1.433 . S
C2165 N2168 1.384 . S
C2166 H2157 0.929 . S
C2166 C2158 1.378 . S
C2166 C2161 1.350 . S
C2167 H2154 0.929 . S
C2167 C2159 1.433 . S
C2167 N2169 1.384 . S
N2168 C2164 1.427 . S
N2168 C2165 1.384 . S
N2169 C2161 1.427 . S
N2169 C2167 1.384 . S
H2170 C2176 0.930 . S
H2171 C2180 0.930 . S
H2172 C2185 0.929 . S
H2173 C2183 0.929 . S
H2174 C2178 0.929 . S
H2175 C2184 0.929 . S
C2176 H2170 0.930 . S
C2176 C2177 1.367 1_655 S
C2176 C2184 1.378 . S
C2177 C2176 1.367 1_455 S
C2177 C2185 1.433 . S
C2178 H2174 0.929 . S
C2178 C2180 1.378 . S
C2178 C2182 1.346 1_455 S
C2179 C2182 1.462 1_455 S
C2179 C2184 1.344 1_455 S
C2179 N2187 1.434 . S
C2180 H2171 0.930 . S
C2180 C2178 1.378 . S
C2180 C2181 1.367 1_455 S
C2181 C2180 1.367 1_655 S
C2181 C2183 1.433 . S
C2182 C2178 1.346 1_655 S
C2182 C2179 1.462 1_655 S
C2182 N2186 1.432 . S
C2183 H2173 0.929 . S
C2183 C2181 1.433 . S
C2183 N2186 1.384 . S
C2184 H2175 0.929 . S
C2184 C2176 1.378 . S
C2184 C2179 1.344 1_655 S
C2185 H2172 0.929 . S
C2185 C2177 1.433 . S
C2185 N2187 1.384 . S
N2186 C2182 1.432 . S
N2186 C2183 1.384 . S
N2187 C2179 1.434 . S
N2187 C2185 1.384 . S
H2188 C2194 0.930 . S
H2189 C2198 0.930 . S
H2190 C2203 0.929 . S
H2191 C2201 0.929 . S
H2192 C2196 0.929 . S
H2193 C2202 0.929 . S
C2194 H2188 0.930 . S
C2194 C2195 1.367 . S
C2194 C2202 1.378 . S
C2195 C2194 1.367 . S
C2195 C2203 1.433 . S
C2196 H2192 0.929 . S
C2196 C2198 1.378 . S
C2196 C2200 1.350 . S
C2197 C2200 1.463 . S
C2197 C2202 1.350 . S
C2197 N2205 1.427 . S
C2198 H2189 0.930 . S
C2198 C2196 1.378 . S
C2198 C2199 1.367 . S
C2199 C2198 1.367 . S
C2199 C2201 1.433 . S
C2200 C2196 1.350 . S
C2200 C2197 1.463 . S
C2200 N2204 1.427 . S
C2201 H2191 0.929 . S
C2201 C2199 1.433 . S
C2201 N2204 1.384 . S
C2202 H2193 0.929 . S
C2202 C2194 1.378 . S
C2202 C2197 1.350 . S
C2203 H2190 0.929 . S
C2203 C2195 1.433 . S
C2203 N2205 1.384 . S
N2204 C2200 1.427 . S
N2204 C2201 1.384 . S
N2205 C2197 1.427 . S
N2205 C2203 1.384 . S
H2206 C2212 0.933 . S
H2207 C2216 0.930 . S
H2208 C2221 0.929 . S
H2209 C2219 0.929 . S
H2210 C2214 0.928 . S
H2211 C2220 0.928 . S
C2212 H2206 0.933 . S
C2212 C2213 1.366 . S
C2212 C2220 1.378 . S
C2213 C2212 1.366 . S
C2213 C2221 1.433 1_665 S
C2214 H2210 0.928 . S
C2214 C2216 1.378 . S
C2214 C2218 1.350 1_545 S
C2215 C2218 1.462 1_655 S
C2215 C2220 1.349 . S
C2215 N2223 1.427 1_665 S
C2216 H2207 0.930 . S
C2216 C2214 1.378 . S
C2216 C2217 1.366 . S
C2217 C2216 1.366 . S
C2217 C2219 1.433 1_445 S
C2218 C2214 1.350 1_565 S
C2218 C2215 1.462 1_455 S
C2218 N2222 1.427 1_455 S
C2219 H2209 0.929 . S
C2219 C2217 1.433 1_665 S
C2219 N2222 1.384 . S
C2220 H2211 0.928 . S
C2220 C2212 1.378 . S
C2220 C2215 1.349 . S
C2221 H2208 0.929 . S
C2221 C2213 1.433 1_445 S
C2221 N2223 1.384 . S
N2222 C2218 1.427 1_655 S
N2222 C2219 1.384 . S
N2223 C2215 1.427 1_445 S
N2223 C2221 1.384 . S
H2224 C2230 0.930 . S
H2225 C2234 0.930 . S
H2226 C2239 0.929 . S
H2227 C2237 0.929 . S
H2228 C2232 0.929 . S
H2229 C2238 0.929 . S
C2230 H2224 0.930 . S
C2230 C2231 1.367 . S
C2230 C2238 1.378 . S
C2231 C2230 1.367 . S
C2231 C2239 1.433 . S
C2232 H2228 0.929 . S
C2232 C2234 1.378 . S
C2232 C2236 1.350 . S
C2233 C2236 1.463 . S
C2233 C2238 1.350 . S
C2233 N2241 1.427 . S
C2234 H2225 0.930 . S
C2234 C2232 1.378 . S
C2234 C2235 1.367 . S
C2235 C2234 1.367 . S
C2235 C2237 1.433 . S
C2236 C2232 1.350 . S
C2236 C2233 1.463 . S
C2236 N2240 1.427 . S
C2237 H2227 0.929 . S
C2237 C2235 1.433 . S
C2237 N2240 1.384 . S
C2238 H2229 0.929 . S
C2238 C2230 1.378 . S
C2238 C2233 1.350 . S
C2239 H2226 0.929 . S
C2239 C2231 1.433 . S
C2239 N2241 1.384 . S
N2240 C2236 1.427 . S
N2240 C2237 1.384 . S
N2241 C2233 1.427 . S
N2241 C2239 1.384 . S
H2242 C2248 0.930 . S
H2243 C2252 0.930 . S
H2244 C2257 0.929 . S
H2245 C2255 0.929 . S
H2246 C2250 0.929 . S
H2247 C2256 0.929 . S
C2248 H2242 0.930 . S
C2248 C2249 1.370 1_565 S
C2248 C2256 1.378 . S
C2249 C2248 1.370 1_545 S
C2249 C2257 1.430 . S
C2250 H2246 0.929 . S
C2250 C2252 1.378 . S
C2250 C2254 1.381 . S
C2251 C2254 1.461 1_565 S
C2251 C2256 1.369 . S
C2251 N2259 1.408 1_565 S
C2252 H2243 0.930 . S
C2252 C2250 1.378 . S
C2252 C2253 1.370 . S
C2253 C2252 1.370 . S
C2253 C2255 1.430 1_545 S
C2254 C2250 1.381 . S
C2254 C2251 1.461 1_545 S
C2254 N2258 1.396 1_545 S
C2255 H2245 0.929 . S
C2255 C2253 1.430 1_565 S
C2255 N2258 1.384 . S
C2256 H2247 0.929 . S
C2256 C2248 1.378 . S
C2256 C2251 1.369 . S
C2257 H2244 0.929 . S
C2257 C2249 1.430 . S
C2257 N2259 1.384 . S
N2258 C2254 1.396 1_565 S
N2258 C2255 1.384 . S
N2259 C2251 1.408 1_545 S
N2259 C2257 1.384 . S
H2260 C2266 0.930 . S
H2261 C2270 0.930 . S
H2262 C2275 0.929 . S
H2263 C2273 0.929 . S
H2264 C2268 0.929 . S
H2265 C2274 0.929 . S
C2266 H2260 0.930 . S
C2266 C2267 1.367 . S
C2266 C2274 1.378 . S
C2267 C2266 1.367 . S
C2267 C2275 1.433 . S
C2268 H2264 0.929 . S
C2268 C2270 1.378 . S
C2268 C2272 1.350 . S
C2269 C2272 1.463 . S
C2269 C2274 1.350 . S
C2269 N2277 1.427 . S
C2270 H2261 0.930 . S
C2270 C2268 1.378 . S
C2270 C2271 1.367 . S
C2271 C2270 1.367 . S
C2271 C2273 1.433 . S
C2272 C2268 1.350 . S
C2272 C2269 1.463 . S
C2272 N2276 1.427 . S
C2273 H2263 0.929 . S
C2273 C2271 1.433 . S
C2273 N2276 1.384 . S
C2274 H2265 0.929 . S
C2274 C2266 1.378 . S
C2274 C2269 1.350 . S
C2275 H2262 0.929 . S
C2275 C2267 1.433 . S
C2275 N2277 1.384 . S
N2276 C2272 1.427 . S
N2276 C2273 1.384 . S
N2277 C2269 1.427 . S
N2277 C2275 1.384 . S
H2278 C2284 0.930 . S
H2279 C2288 0.930 . S
H2280 C2293 0.929 . S
H2281 C2291 0.929 . S
H2282 C2286 0.929 . S
H2283 C2292 0.929 . S
C2284 H2278 0.930 . S
C2284 C2285 1.370 1_545 S
C2284 C2292 1.378 . S
C2285 C2284 1.370 1_565 S
C2285 C2293 1.430 . S
C2286 H2282 0.929 . S
C2286 C2288 1.378 . S
C2286 C2290 1.380 . S
C2287 C2290 1.461 1_545 S
C2287 C2292 1.368 . S
C2287 N2295 1.409 1_545 S
C2288 H2279 0.930 . S
C2288 C2286 1.378 . S
C2288 C2289 1.370 . S
C2289 C2288 1.370 . S
C2289 C2291 1.430 1_565 S
C2290 C2286 1.380 . S
C2290 C2287 1.461 1_565 S
C2290 N2294 1.397 1_565 S
C2291 H2281 0.929 . S
C2291 C2289 1.430 1_545 S
C2291 N2294 1.384 . S
C2292 H2283 0.929 . S
C2292 C2284 1.378 . S
C2292 C2287 1.368 . S
C2293 H2280 0.929 . S
C2293 C2285 1.430 . S
C2293 N2295 1.384 . S
N2294 C2290 1.397 1_545 S
N2294 C2291 1.384 . S
N2295 C2287 1.409 1_565 S
N2295 C2293 1.384 . S
H2296 C2302 0.930 . S
H2297 C2306 0.930 . S
H2298 C2311 0.929 . S
H2299 C2309 0.929 . S
H2300 C2304 0.929 . S
H2301 C2310 0.929 . S
C2302 H2296 0.930 . S
C2302 C2303 1.367 . S
C2302 C2310 1.378 . S
C2303 C2302 1.367 . S
C2303 C2311 1.433 . S
C2304 H2300 0.929 . S
C2304 C2306 1.378 . S
C2304 C2308 1.350 . S
C2305 C2308 1.463 . S
C2305 C2310 1.350 . S
C2305 N2313 1.427 . S
C2306 H2297 0.930 . S
C2306 C2304 1.378 . S
C2306 C2307 1.367 . S
C2307 C2306 1.367 . S
C2307 C2309 1.433 . S
C2308 C2304 1.350 . S
C2308 C2305 1.463 . S
C2308 N2312 1.427 . S
C2309 H2299 0.929 . S
C2309 C2307 1.433 . S
C2309 N2312 1.384 . S
C2310 H2301 0.929 . S
C2310 C2302 1.378 . S
C2310 C2305 1.350 . S
C2311 H2298 0.929 . S
C2311 C2303 1.433 . S
C2311 N2313 1.384 . S
N2312 C2308 1.427 . S
N2312 C2309 1.384 . S
N2313 C2305 1.427 . S
N2313 C2311 1.384 . S
H2314 C2320 0.930 . S
H2315 C2324 0.930 . S
H2316 C2329 0.929 . S
H2317 C2327 0.929 . S
H2318 C2322 0.929 . S
H2319 C2328 0.929 . S
C2320 H2314 0.930 . S
C2320 C2321 1.367 . S
C2320 C2328 1.378 . S
C2321 C2320 1.367 . S
C2321 C2329 1.433 . S
C2322 H2318 0.929 . S
C2322 C2324 1.378 . S
C2322 C2326 1.350 . S
C2323 C2326 1.463 . S
C2323 C2328 1.350 . S
C2323 N2331 1.427 . S
C2324 H2315 0.930 . S
C2324 C2322 1.378 . S
C2324 C2325 1.367 . S
C2325 C2324 1.367 . S
C2325 C2327 1.433 . S
C2326 C2322 1.350 . S
C2326 C2323 1.463 . S
C2326 N2330 1.427 . S
C2327 H2317 0.929 . S
C2327 C2325 1.433 . S
C2327 N2330 1.384 . S
C2328 H2319 0.929 . S
C2328 C2320 1.378 . S
C2328 C2323 1.350 . S
C2329 H2316 0.929 . S
C2329 C2321 1.433 . S
C2329 N2331 1.384 . S
N2330 C2326 1.427 . S
N2330 C2327 1.384 . S
N2331 C2323 1.427 . S
N2331 C2329 1.384 . S
H2332 C2338 0.930 . S
H2333 C2342 0.930 . S
H2334 C2347 0.929 . S
H2335 C2345 0.929 . S
H2336 C2340 0.929 . S
H2337 C2346 0.929 . S
C2338 H2332 0.930 . S
C2338 C2339 1.367 . S
C2338 C2346 1.378 . S
C2339 C2338 1.367 . S
C2339 C2347 1.433 . S
C2340 H2336 0.929 . S
C2340 C2342 1.378 . S
C2340 C2344 1.350 . S
C2341 C2344 1.463 . S
C2341 C2346 1.350 . S
C2341 N2349 1.427 . S
C2342 H2333 0.930 . S
C2342 C2340 1.378 . S
C2342 C2343 1.367 . S
C2343 C2342 1.367 . S
C2343 C2345 1.433 . S
C2344 C2340 1.350 . S
C2344 C2341 1.463 . S
C2344 N2348 1.427 . S
C2345 H2335 0.929 . S
C2345 C2343 1.433 . S
C2345 N2348 1.384 . S
C2346 H2337 0.929 . S
C2346 C2338 1.378 . S
C2346 C2341 1.350 . S
C2347 H2334 0.929 . S
C2347 C2339 1.433 . S
C2347 N2349 1.384 . S
N2348 C2344 1.427 . S
N2348 C2345 1.384 . S
N2349 C2341 1.427 . S
N2349 C2347 1.384 . S
H2350 C2356 0.930 . S
H2351 C2360 0.930 . S
H2352 C2365 0.929 . S
H2353 C2363 0.929 . S
H2354 C2358 0.929 . S
H2355 C2364 0.929 . S
C2356 H2350 0.930 . S
C2356 C2357 1.393 . S
C2356 C2364 1.378 . S
C2357 C2356 1.393 . S
C2357 C2365 1.407 1_565 S
C2358 H2354 0.929 . S
C2358 C2360 1.378 . S
C2358 C2362 1.361 . S
C2359 C2362 1.461 1_564 S
C2359 C2364 1.370 . S
C2359 N2367 1.408 1_565 S
C2360 H2351 0.930 . S
C2360 C2358 1.378 . S
C2360 C2361 1.384 . S
C2361 C2360 1.384 . S
C2361 C2363 1.416 1_545 S
C2362 C2358 1.361 . S
C2362 C2359 1.461 1_546 S
C2362 N2366 1.416 1_545 S
C2363 H2353 0.929 . S
C2363 C2361 1.416 1_565 S
C2363 N2366 1.384 . S
C2364 H2355 0.929 . S
C2364 C2356 1.378 . S
C2364 C2359 1.370 . S
C2365 H2352 0.929 . S
C2365 C2357 1.407 1_545 S
C2365 N2367 1.384 . S
N2366 C2362 1.416 1_565 S
N2366 C2363 1.384 . S
N2367 C2359 1.408 1_545 S
N2367 C2365 1.384 . S
C647 C16 1.673 . S
C651 C516 1.672 . S
C665 C496 1.660 . S
C669 C36 1.652 . S
C683 C556 1.660 . S
C687 C56 1.652 . S
C701 C76 1.685 . S
C705 C536 1.685 . S
C719 C86 1.681 . S
C723 C586 1.680 . S
C737 C106 1.668 . S
C741 C566 1.661 . S
C755 C126 1.666 . S
C759 C626 1.658 . S
C773 C606 1.672 . S
C777 C146 1.673 . S
C791 C176 1.658 . S
C795 C356 1.653 . S
C809 C196 1.671 . S
C813 C336 1.670 . S
C827 C216 1.673 . S
C831 C396 1.672 . S
C845 C376 1.664 . S
C849 C236 1.659 . S
C863 C246 1.657 . S
C867 C426 1.651 . S
C881 C266 1.673 . S
C885 C406 1.674 . S
C899 C466 1.674 . S
C903 C286 1.673 . S
C917 C306 1.658 . S
C921 C446 1.653 . S
C935 C1 1.498 . S
C939 C61 1.500 . S
C953 C21 1.505 . S
C957 C41 1.505 . S
C971 C149 1.498 . S
C975 C89 1.501 . S
C989 C129 1.499 . S
C993 C109 1.498 . S
C1007 C161 1.499 1_545 S
C1011 C221 1.499 1_545 S
C1025 C181 1.500 . S
C1029 C201 1.498 . S
C1043 C249 1.494 1_565 S
C1047 C309 1.494 1_565 S
C1061 C289 1.498 . S
C1065 C269 1.495 . S
C1079 C321 1.499 . S
C1083 C381 1.502 . S
C1097 C341 1.502 . S
C1101 C361 1.499 . S
C1115 C469 1.502 . S
C1119 C409 1.499 . S
C1133 C429 1.505 . S
C1137 C449 1.503 . S
C1151 C541 1.494 1_545 S
C1155 C481 1.494 1_545 S
C1169 C501 1.496 . S
C1173 C521 1.499 . S
C1187 C629 1.494 1_565 S
C1191 C569 1.494 1_565 S
C1205 C609 1.497 . S
C1209 C589 1.494 . S
C1223 C26 1.515 . S
C1227 C6 1.514 . S
C1241 C46 1.516 . S
C1245 C66 1.515 . S
C1259 C116 1.501 . S
C1263 C96 1.501 . S
C1277 C156 1.508 . S
C1281 C136 1.509 . S
C1295 C166 1.514 . S
C1299 C186 1.521 . S
C1313 C206 1.528 . S
C1317 C226 1.535 . S
C1331 C276 1.523 . S
C1335 C256 1.530 . S
C1349 C296 1.516 . S
C1353 C316 1.522 . S
C1367 C326 1.501 . S
C1371 C346 1.502 . S
C1385 C386 1.503 . S
C1389 C366 1.504 . S
C1403 C416 1.513 . S
C1407 C436 1.512 . S
C1421 C456 1.504 . S
C1425 C476 1.503 . S
C1439 C486 1.535 . S
C1443 C506 1.542 . S
C1457 C526 1.521 . S
C1461 C546 1.527 . S
C1475 C596 1.517 . S
C1479 C576 1.523 . S
C1493 C616 1.520 . S
C1497 C636 1.526 . S
C1511 C8 1.958 . S
C1515 C19 1.958 . S
C1529 C28 1.960 . S
C1533 C39 1.960 1_655 S
C1547 C48 1.957 . S
C1551 C59 1.957 . S
C1565 C79 1.969 1_655 S
C1569 C68 1.969 . S
C1583 C88 1.973 . S
C1587 C99 1.973 . S
C1601 C119 1.973 . S
C1605 C108 1.973 1_455 S
C1619 C128 1.958 . S
C1623 C139 1.958 . S
C1637 C148 1.959 1_455 S
C1641 C159 1.959 . S
C1655 C179 1.966 . S
C1659 C168 1.966 . S
C1673 C188 1.964 . S
C1677 C199 1.964 1_655 S
C1691 C208 1.958 . S
C1695 C219 1.958 . S
C1709 C239 1.968 1_655 S
C1713 C228 1.968 . S
C1727 C248 1.973 . S
C1731 C259 1.973 . S
C1745 C279 1.971 . S
C1749 C268 1.971 1_455 S
C1763 C299 1.969 . S
C1767 C288 1.969 . S
C1781 C308 1.973 1_455 S
C1785 C319 1.973 . S
C1799 C328 1.972 . S
C1803 C339 1.972 . S
C1817 C359 1.960 . S
C1821 C348 1.960 1_455 S
C1835 C379 1.966 . S
C1839 C368 1.966 . S
C1853 C388 1.973 1_455 S
C1857 C399 1.973 . S
C1871 C419 1.971 . S
C1875 C408 1.971 . S
C1889 C439 1.961 1_655 S
C1893 C428 1.961 . S
C1907 C448 1.960 . S
C1911 C459 1.960 . S
C1925 C479 1.959 1_655 S
C1929 C468 1.959 . S
C1943 C499 1.973 . S
C1947 C488 1.973 . S
C1961 C508 1.961 1_455 S
C1965 C519 1.961 . S
C1979 C539 1.970 . S
C1983 C528 1.970 . S
C1997 C559 1.959 . S
C2001 C548 1.959 1_455 S
C2015 C579 1.967 . S
C2019 C568 1.967 . S
C2033 C599 1.960 1_655 S
C2037 C588 1.960 . S
C2051 C608 1.963 . S
C2055 C619 1.963 . S
C2069 C628 1.965 . S
C2073 C639 1.965 1_655 S
C2087 C9 1.530 1_655 S
C2091 C81 1.530 1_455 S
C2105 C581 1.522 . S
C2109 C29 1.522 . S
C2123 C281 1.529 1_455 S
C2127 C49 1.529 1_655 S
C2141 C69 1.520 . S
C2145 C461 1.520 . S
C2159 C101 1.524 . S
C2163 C509 1.524 . S
C2177 C121 1.521 1_455 S
C2181 C209 1.521 1_655 S
C2195 C141 1.521 . S
C2199 C389 1.521 . S
C2213 C169 1.529 1_665 S
C2217 C241 1.529 1_445 S
C2231 C421 1.529 . S
C2235 C189 1.529 . S
C2249 C621 1.523 1_545 S
C2253 C229 1.523 . S
C2267 C261 1.530 . S
C2271 C349 1.530 . S
C2285 C549 1.521 1_565 S
C2289 C301 1.521 . S
C2303 C329 1.522 . S
C2307 C401 1.522 . S
C2321 C601 1.522 . S
C2325 C369 1.522 . S
C2339 C441 1.528 . S
C2343 C529 1.528 . S
C2357 C489 1.527 1_565 S
C2361 C561 1.527 1_545 S
