# Generated by pormake.
# Topology mmt, (4)-cn, num edge types: 1
# Building blocks:
#     Node 0, Type 0, BuildingBlock: ICAMEG_clean_sbu_1, # of connection points: 4
#     Node 1, Type 0, BuildingBlock: ICAMEG_clean_sbu_1, # of connection points: 4
#     Node 2, Type 0, BuildingBlock: ICAMEG_clean_sbu_1, # of connection points: 4
#     Node 3, Type 0, BuildingBlock: ICAMEG_clean_sbu_1, # of connection points: 4
#     Node 4, Type 0, BuildingBlock: ICAMEG_clean_sbu_1, # of connection points: 4
#     Node 5, Type 0, BuildingBlock: ICAMEG_clean_sbu_1, # of connection points: 4
#     Node 6, Type 0, BuildingBlock: ICAMEG_clean_sbu_1, # of connection points: 4
#     Node 7, Type 0, BuildingBlock: ICAMEG_clean_sbu_1, # of connection points: 4
#     Edge 8, Type (0, 0), BuildingBlock: XIVTED_clean_linker_0, # of connection points: 2
#     Edge 9, Type (0, 0), BuildingBlock: XIVTED_clean_linker_0, # of connection points: 2
#     Edge 10, Type (0, 0), BuildingBlock: XIVTED_clean_linker_0, # of connection points: 2
#     Edge 11, Type (0, 0), BuildingBlock: XIVTED_clean_linker_0, # of connection points: 2
#     Edge 12, Type (0, 0), BuildingBlock: XIVTED_clean_linker_0, # of connection points: 2
#     Edge 13, Type (0, 0), BuildingBlock: XIVTED_clean_linker_0, # of connection points: 2
#     Edge 14, Type (0, 0), BuildingBlock: XIVTED_clean_linker_0, # of connection points: 2
#     Edge 15, Type (0, 0), BuildingBlock: XIVTED_clean_linker_0, # of connection points: 2
#     Edge 16, Type (0, 0), BuildingBlock: XIVTED_clean_linker_0, # of connection points: 2
#     Edge 17, Type (0, 0), BuildingBlock: XIVTED_clean_linker_0, # of connection points: 2
#     Edge 18, Type (0, 0), BuildingBlock: XIVTED_clean_linker_0, # of connection points: 2
#     Edge 19, Type (0, 0), BuildingBlock: XIVTED_clean_linker_0, # of connection points: 2
#     Edge 20, Type (0, 0), BuildingBlock: XIVTED_clean_linker_0, # of connection points: 2
#     Edge 21, Type (0, 0), BuildingBlock: XIVTED_clean_linker_0, # of connection points: 2
#     Edge 22, Type (0, 0), BuildingBlock: XIVTED_clean_linker_0, # of connection points: 2
#     Edge 23, Type (0, 0), BuildingBlock: XIVTED_clean_linker_0, # of connection points: 2
# Relax obj value: 0.088
# Max RMSD: 0.129
# Mean RMSD: 0.129
data_MOF--net-mmt--node1-ICAMEG_clean_sbu_1--edge1-XIVTED_clean_linker_0
_symmetry_space_group_name_H-M    P1
_symmetry_Int_Tables_number       1
_symmetry_cell_setting            triclinic
loop_
_symmetry_equiv_pos_as_xyz
'x, y, z'
_cell_length_a     23.922479
_cell_length_b     42.422905
_cell_length_c     42.583182
_cell_angle_alpha  89.8909
_cell_angle_beta   89.98321
_cell_angle_gamma 89.942376
loop_
_atom_site_label
_atom_site_type_symbol
_atom_site_fract_x
_atom_site_fract_y
_atom_site_fract_z
_atom_type_partial_charge
Co0 Co 0.1891 0.54414 0.35377 0.0
Co1 Co 0.11008 0.61195 0.35802 0.0
O2 O 0.18176 0.59026 0.35041 0.0
C3 C 0.26372 0.56238 0.29863 0.0
O4 O 0.25042 0.59232 0.30043 0.0
C5 C 0.19453 0.65142 0.39248 0.0
O6 O 0.22316 0.62608 0.39985 0.0
O7 O 0.10351 0.59175 0.40023 0.0
O8 O 0.13555 0.54325 0.38969 0.0
H9 H 0.90928 0.61823 0.39217 0.0
H10 H 0.2915 0.58452 0.35589 0.0
O11 O 0.24294 0.54228 0.3176 0.0
H12 H 0.2938 0.52326 0.45424 0.0
H13 H 0.29255 0.44059 0.35359 0.0
H14 H 0.10839 0.49196 0.36345 0.0
H15 H 0.21754 0.51639 0.41605 0.0
H16 H 0.28406 0.49844 0.35032 0.0
O17 O 0.1494 0.6492 0.37684 0.0
H18 H 0.99922 0.59178 0.3819 0.0
H19 H 0.06976 0.67828 0.35087 0.0
H20 H 0.11509 0.43408 0.36713 0.0
H21 H 0.36898 0.59167 0.39308 0.0
H22 H 0.20768 0.40801 0.36218 0.0
H23 H 0.3705 0.56099 0.4428 0.0
O24 O 0.12622 0.53814 0.32373 0.0
H25 H 0.20926 0.67099 0.27209 0.0
H26 H 0.03312 0.61946 0.30322 0.0
H27 H 0.04098 0.64337 0.25063 0.0
H28 H 0.12953 0.66948 0.23478 0.0
H29 H 0.1998 0.64637 0.32431 0.0
H30 H 0.98067 0.70568 0.36103 0.0
H31 H 0.89956 0.6756 0.38173 0.0
O32 O 0.0674 0.57624 0.33904 0.0
C33 C 0.10919 0.56261 0.4071 0.0
C34 C 0.94428 0.63159 0.38309 0.0
C35 C 0.98437 0.68067 0.36565 0.0
N36 N 0.03968 0.6334 0.36566 0.0
C37 C 0.99531 0.61672 0.37717 0.0
C38 C 0.03477 0.66503 0.36003 0.0
C39 C 0.93887 0.66378 0.37725 0.0
C40 C 0.29217 0.5706 0.37705 0.0
N41 N 0.25024 0.54969 0.38338 0.0
C42 C 0.33604 0.57497 0.39823 0.0
C43 C 0.33679 0.55782 0.42616 0.0
C44 C 0.29376 0.53668 0.4326 0.0
C45 C 0.25056 0.53296 0.41088 0.0
C46 C 0.25198 0.45168 0.35583 0.0
C47 C 0.14889 0.48083 0.36145 0.0
C48 C 0.24688 0.48443 0.35393 0.0
N49 N 0.1958 0.49861 0.35691 0.0
C50 C 0.1524 0.44802 0.36347 0.0
C51 C 0.20435 0.43341 0.36067 0.0
C52 C 0.07799 0.55094 0.32404 0.0
C53 C 0.17046 0.65968 0.27871 0.0
C54 C 0.07198 0.63044 0.29641 0.0
C55 C 0.07608 0.64411 0.26664 0.0
C56 C 0.12574 0.6588 0.25778 0.0
N57 N 0.11606 0.63134 0.31681 0.0
C58 C 0.1648 0.64577 0.3083 0.0
Co59 Co 0.32662 0.97955 0.35361 0.0
Co60 Co 0.41406 0.91607 0.35681 0.0
O61 O 0.33993 0.93426 0.34932 0.0
C62 C 0.27081 0.96965 0.29111 0.0
O63 O 0.31837 0.96049 0.27869 0.0
C64 C 0.33708 0.87267 0.39131 0.0
O65 O 0.31036 0.89729 0.40238 0.0
O66 O 0.41556 0.93472 0.39974 0.0
O67 O 0.38287 0.98291 0.38828 0.0
H68 H 0.61353 0.91742 0.39383 0.0
H69 H 0.23055 0.9355 0.35626 0.0
O70 O 0.26829 0.97752 0.31988 0.0
H71 H 0.22683 0.99259 0.457 0.0
H72 H 0.20712 0.07734 0.35684 0.0
H73 H 0.39935 0.03556 0.3617 0.0
H74 H 0.29908 1.00435 0.41741 0.0
H75 H 0.22461 0.02021 0.35278 0.0
O76 O 0.37912 0.87635 0.37336 0.0
H77 H 0.52052 0.94013 0.38326 0.0
H78 H 0.46423 0.8523 0.34753 0.0
H79 H 0.38366 0.09282 0.36613 0.0
H80 H 0.15709 0.92328 0.39504 0.0
H81 H 0.28697 0.11407 0.3637 0.0
H82 H 0.15503 0.95185 0.44589 0.0
O83 O 0.38702 0.98854 0.32225 0.0
H84 H 0.32594 0.85922 0.26608 0.0
H85 H 0.49452 0.91461 0.30319 0.0
H86 H 0.49193 0.89373 0.24921 0.0
H87 H 0.40723 0.86573 0.23036 0.0
H88 H 0.33015 0.88069 0.31983 0.0
H89 H 0.55653 0.82857 0.35795 0.0
H90 H 0.63204 0.86123 0.38115 0.0
O91 O 0.45186 0.95471 0.34006 0.0
C92 C 0.40888 0.96384 0.40633 0.0
C93 C 0.58103 0.90296 0.38363 0.0
C94 C 0.54901 0.85309 0.36353 0.0
N95 N 0.48705 0.89764 0.36461 0.0
C96 C 0.52829 0.91572 0.37752 0.0
C97 C 0.49678 0.86665 0.35776 0.0
C98 C 0.59136 0.87143 0.37654 0.0
C99 C 0.22963 0.94825 0.37821 0.0
N100 N 0.26904 0.97066 0.38451 0.0
C101 C 0.18806 0.94113 0.40013 0.0
C102 C 0.18699 0.95714 0.42867 0.0
C103 C 0.2273 0.97997 0.43494 0.0
C104 C 0.26826 0.98644 0.41247 0.0
C105 C 0.24944 0.06837 0.35796 0.0
C106 C 0.35713 0.04458 0.36075 0.0
C107 C 0.25964 0.03604 0.35559 0.0
N108 N 0.31296 0.02451 0.35716 0.0
C109 C 0.34851 0.07705 0.36321 0.0
C110 C 0.29425 0.08896 0.36182 0.0
C111 C 0.43755 0.9789 0.32412 0.0
C112 C 0.36316 0.87128 0.27406 0.0
C113 C 0.45747 0.9025 0.29515 0.0
C114 C 0.45629 0.89069 0.26457 0.0
C115 C 0.40876 0.87498 0.25401 0.0
N116 N 0.41265 0.89867 0.31472 0.0
C117 C 0.36585 0.88339 0.3045 0.0
Co118 Co 0.69064 0.47964 0.14118 0.0
Co119 Co 0.60987 0.41258 0.1373 0.0
O120 O 0.68206 0.43362 0.14486 0.0
C121 C 0.76427 0.46097 0.19654 0.0
O122 O 0.74973 0.43122 0.19501 0.0
C123 C 0.69352 0.37205 0.1033 0.0
O124 O 0.72296 0.39706 0.09588 0.0
O125 O 0.60421 0.43251 0.09496 0.0
O126 O 0.63727 0.48082 0.10518 0.0
H127 H 0.40921 0.40797 0.10273 0.0
H128 H 0.792 0.43832 0.13948 0.0
O129 O 0.7444 0.48119 0.17738 0.0
H130 H 0.79633 0.49883 0.04069 0.0
H131 H 0.7968 0.58219 0.1408 0.0
H132 H 0.61134 0.53251 0.13115 0.0
H133 H 0.72007 0.50668 0.07874 0.0
H134 H 0.78679 0.52445 0.1444 0.0
O135 O 0.64831 0.37483 0.1188 0.0
H136 H 0.49976 0.43364 0.11305 0.0
H137 H 0.56773 0.3467 0.14483 0.0
H138 H 0.61956 0.5903 0.12714 0.0
H139 H 0.86949 0.4302 0.10244 0.0
H140 H 0.71282 0.61552 0.13198 0.0
H141 H 0.87201 0.46049 0.0525 0.0
O142 O 0.62785 0.48641 0.17114 0.0
H143 H 0.70678 0.35306 0.22377 0.0
H144 H 0.53236 0.40622 0.19203 0.0
H145 H 0.53919 0.38256 0.24477 0.0
H146 H 0.62686 0.35563 0.26094 0.0
H147 H 0.69837 0.37746 0.17139 0.0
H148 H 0.47802 0.32007 0.13464 0.0
H149 H 0.39789 0.35077 0.11355 0.0
O150 O 0.568 0.44884 0.15599 0.0
C151 C 0.6107 0.46152 0.08784 0.0
C152 C 0.44377 0.39435 0.11199 0.0
C153 C 0.48241 0.34501 0.12986 0.0
N154 N 0.53896 0.39175 0.12967 0.0
C155 C 0.49514 0.40877 0.11794 0.0
C156 C 0.53317 0.36021 0.13551 0.0
C157 C 0.43747 0.36225 0.11804 0.0
C158 C 0.79312 0.45208 0.11822 0.0
N159 N 0.75175 0.47332 0.11167 0.0
C160 C 0.83699 0.44716 0.09712 0.0
C161 C 0.8383 0.46408 0.06907 0.0
C162 C 0.79584 0.48557 0.06242 0.0
C163 C 0.75262 0.48984 0.08406 0.0
C164 C 0.75596 0.57147 0.13859 0.0
C165 C 0.65212 0.54327 0.1331 0.0
C166 C 0.74999 0.53879 0.14068 0.0
N167 N 0.69856 0.52507 0.13776 0.0
C168 C 0.6565 0.57603 0.13089 0.0
C169 C 0.70882 0.59016 0.13364 0.0
C170 C 0.57927 0.47409 0.17089 0.0
C171 C 0.66835 0.36473 0.21701 0.0
C172 C 0.57086 0.39489 0.19897 0.0
C173 C 0.57437 0.38136 0.22883 0.0
C174 C 0.62353 0.36621 0.23787 0.0
N175 N 0.61504 0.39341 0.17866 0.0
C176 C 0.66329 0.37852 0.18734 0.0
Co177 Co 0.82738 0.04369 0.14131 0.0
Co178 Co 0.91514 0.10697 0.13966 0.0
O179 O 0.84072 0.0889 0.14632 0.0
C180 C 0.76978 0.05283 0.20346 0.0
O181 O 0.81701 0.06163 0.21647 0.0
C182 C 0.83925 0.15119 0.10526 0.0
O183 O 0.81222 0.12688 0.09381 0.0
O184 O 0.91754 0.08895 0.0965 0.0
O185 O 0.88462 0.04064 0.10708 0.0
H186 H 0.1154 0.10554 0.10394 0.0
H187 H 0.73147 0.08794 0.1384 0.0
O188 O 0.7681 0.04543 0.17454 0.0
H189 H 0.73052 0.03216 0.03691 0.0
H190 H 0.70766 0.94623 0.13582 0.0
H191 H 0.90015 0.98762 0.13319 0.0
H192 H 0.80165 0.01978 0.07696 0.0
H193 H 0.72523 1.00326 0.14072 0.0
O194 O 0.88092 0.14702 0.12339 0.0
H195 H 0.02205 0.08296 0.11359 0.0
H196 H 0.96549 0.17042 0.15024 0.0
H197 H 0.8844 0.93045 0.12794 0.0
H198 H 0.65909 0.10076 0.09916 0.0
H199 H 0.78758 0.9094 0.12925 0.0
H200 H 0.65843 0.07285 0.04794 0.0
O201 O 0.88682 0.03418 0.17308 0.0
H202 H 0.82508 0.16281 0.23049 0.0
H203 H 0.99428 0.10745 0.19389 0.0
H204 H 0.99045 0.12759 0.24814 0.0
H205 H 0.90543 0.15557 0.26673 0.0
H206 H 0.83052 0.14207 0.17649 0.0
H207 H 0.05815 0.19402 0.14076 0.0
H208 H 0.13395 0.16147 0.11756 0.0
O209 O 0.95234 0.06798 0.15618 0.0
C210 C 0.911 0.05993 0.08946 0.0
C211 C 0.08277 0.11994 0.11415 0.0
C212 C 0.05061 0.16961 0.13478 0.0
N213 N 0.98843 0.12527 0.13266 0.0
C214 C 0.02984 0.10726 0.11975 0.0
C215 C 0.99818 0.15613 0.14002 0.0
C216 C 0.09313 0.15133 0.12177 0.0
C217 C 0.73116 0.07548 0.11628 0.0
N218 N 0.77072 0.0531 0.11003 0.0
C219 C 0.6902 0.08293 0.0941 0.0
C220 C 0.68991 0.0673 0.06535 0.0
C221 C 0.73038 0.0445 0.05913 0.0
C222 C 0.77072 0.03768 0.08186 0.0
C223 C 0.75004 0.95512 0.13518 0.0
C224 C 0.85787 0.97868 0.13364 0.0
C225 C 0.76028 0.98739 0.13803 0.0
N226 N 0.81368 0.99881 0.13708 0.0
C227 C 0.84923 0.94627 0.13072 0.0
C228 C 0.79489 0.93447 0.13148 0.0
C229 C 0.93745 0.04368 0.17175 0.0
C230 C 0.86243 0.15075 0.22263 0.0
C231 C 0.95709 0.11955 0.20182 0.0
C232 C 0.95521 0.13094 0.23255 0.0
C233 C 0.9075 0.14665 0.24297 0.0
N234 N 0.91279 0.12378 0.18198 0.0
C235 C 0.86581 0.13906 0.19205 0.0
Co236 Co 0.82667 0.47993 0.64252 0.0
Co237 Co 0.90956 0.41437 0.6367 0.0
O238 O 0.83672 0.43408 0.64582 0.0
C239 C 0.75123 0.46007 0.697 0.0
O240 O 0.76437 0.43014 0.69459 0.0
C241 C 0.82664 0.3721 0.60484 0.0
O242 O 0.79745 0.39681 0.59614 0.0
O243 O 0.90958 0.43346 0.59394 0.0
O244 O 0.87991 0.48198 0.60626 0.0
H245 H 0.10661 0.41238 0.59573 0.0
H246 H 0.72724 0.43712 0.6395 0.0
O247 O 0.77284 0.48062 0.67879 0.0
H248 H 0.72006 0.50055 0.54263 0.0
H249 H 0.71801 0.58176 0.64392 0.0
H250 H 0.90455 0.53346 0.63284 0.0
H251 H 0.79594 0.50827 0.58088 0.0
H252 H 0.72947 0.52406 0.64671 0.0
O253 O 0.87159 0.3755 0.62043 0.0
H254 H 0.01575 0.4367 0.6083 0.0
H255 H 0.95649 0.34957 0.64457 0.0
H256 H 0.89485 0.59124 0.62958 0.0
H257 H 0.65021 0.42907 0.60227 0.0
H258 H 0.80105 0.61576 0.63515 0.0
H259 H 0.6462 0.46084 0.55328 0.0
O260 O 0.88946 0.48648 0.67255 0.0
H261 H 0.82524 0.35592 0.72786 0.0
H262 H 0.99273 0.41129 0.68897 0.0
H263 H 0.99263 0.38918 0.74254 0.0
H264 H 0.90849 0.36118 0.76229 0.0
H265 H 0.82695 0.37867 0.67453 0.0
H266 H 0.04662 0.32426 0.63218 0.0
H267 H 0.12254 0.35574 0.60768 0.0
O268 O 0.9511 0.45197 0.65302 0.0
C269 C 0.90399 0.46274 0.58766 0.0
C270 C 0.07392 0.39842 0.60647 0.0
C271 C 0.04022 0.34896 0.62689 0.0
N272 N 0.98089 0.39466 0.62732 0.0
C273 C 0.02238 0.41209 0.61372 0.0
C274 C 0.98921 0.36342 0.63379 0.0
C275 C 0.0828 0.36664 0.61316 0.0
C276 C 0.72544 0.45156 0.61874 0.0
N277 N 0.76572 0.47361 0.6129 0.0
C278 C 0.68184 0.44666 0.59749 0.0
C279 C 0.6797 0.46442 0.56997 0.0
C280 C 0.72114 0.48667 0.56398 0.0
C281 C 0.76411 0.49089 0.58575 0.0
C282 C 0.75909 0.57135 0.64141 0.0
C283 C 0.86353 0.54392 0.63511 0.0
C284 C 0.76588 0.53869 0.64306 0.0
N285 N 0.81761 0.52535 0.63974 0.0
C286 C 0.85833 0.57667 0.63332 0.0
C287 C 0.8057 0.59042 0.63648 0.0
C288 C 0.93914 0.47596 0.66971 0.0
C289 C 0.86217 0.36804 0.71951 0.0
C290 C 0.95579 0.39935 0.69744 0.0
C291 C 0.95607 0.38676 0.72777 0.0
C292 C 0.90887 0.37103 0.73883 0.0
N293 N 0.9098 0.39632 0.67863 0.0
C294 C 0.86342 0.38091 0.68931 0.0
Co295 Co 0.69468 0.04339 0.64224 0.0
Co296 Co 0.60633 0.10651 0.63974 0.0
O297 O 0.68084 0.08861 0.64683 0.0
C298 C 0.75085 0.05329 0.70457 0.0
O299 O 0.70331 0.06243 0.71704 0.0
C300 C 0.68282 0.15072 0.60578 0.0
O301 O 0.71078 0.12645 0.5949 0.0
O302 O 0.6046 0.08814 0.5967 0.0
O303 O 0.63806 0.04002 0.60776 0.0
H304 H 0.40646 0.10449 0.60342 0.0
H305 H 0.79042 0.08767 0.63954 0.0
O306 O 0.75331 0.04545 0.67579 0.0
H307 H 0.7934 0.03125 0.53842 0.0
H308 H 0.81526 0.94606 0.63807 0.0
H309 H 0.6225 0.98717 0.63413 0.0
H310 H 0.72163 0.0191 0.57817 0.0
H311 H 0.79716 1.0031 0.64249 0.0
O312 O 0.6404 0.14652 0.62333 0.0
H313 H 0.4999 0.08213 0.61352 0.0
H314 H 0.55533 0.16997 0.64966 0.0
H315 H 0.63879 0.92998 0.62936 0.0
H316 H 0.86343 0.10026 0.6006 0.0
H317 H 0.73575 0.90907 0.63133 0.0
H318 H 0.86511 0.07202 0.54956 0.0
O319 O 0.63484 0.03401 0.67378 0.0
H320 H 0.69479 0.16315 0.7305 0.0
H321 H 0.52649 0.10728 0.69368 0.0
H322 H 0.52947 0.12783 0.74779 0.0
H323 H 0.61403 0.15607 0.76649 0.0
H324 H 0.69021 0.142 0.67664 0.0
H325 H 0.46258 0.19335 0.63972 0.0
H326 H 0.3873 0.1605 0.61654 0.0
O327 O 0.56924 0.06759 0.65641 0.0
C328 C 0.61158 0.05907 0.58992 0.0
C329 C 0.43887 0.11903 0.61361 0.0
C330 C 0.47039 0.1689 0.63394 0.0
N331 N 0.53297 0.12464 0.63235 0.0
C332 C 0.49185 0.10647 0.61946 0.0
C333 C 0.52288 0.15555 0.63944 0.0
C334 C 0.42816 0.15046 0.62095 0.0
C335 C 0.79118 0.07507 0.61751 0.0
N336 N 0.75181 0.05265 0.61118 0.0
C337 C 0.83249 0.08239 0.5955 0.0
C338 C 0.83335 0.06658 0.56684 0.0
C339 C 0.79309 0.04373 0.56056 0.0
C340 C 0.75239 0.03704 0.58312 0.0
C341 C 0.77283 0.95488 0.63715 0.0
C342 C 0.66484 0.97829 0.63487 0.0
C343 C 0.76229 0.98716 0.63972 0.0
N344 N 0.70882 0.9985 0.6384 0.0
C345 C 0.67379 0.94586 0.63222 0.0
C346 C 0.7282 0.93415 0.63335 0.0
C347 C 0.58416 0.04343 0.67222 0.0
C348 C 0.65764 0.15098 0.72259 0.0
C349 C 0.56349 0.11949 0.70166 0.0
C350 C 0.56489 0.13112 0.73231 0.0
C351 C 0.61234 0.14697 0.74278 0.0
N352 N 0.60801 0.12364 0.68195 0.0
C353 C 0.65474 0.13905 0.69208 0.0
Co354 Co 0.32246 0.54349 0.85471 0.0
Co355 Co 0.40508 0.60938 0.85708 0.0
O356 O 0.33236 0.58917 0.85075 0.0
C357 C 0.26713 0.55257 0.79216 0.0
O358 O 0.31455 0.5622 0.77993 0.0
C359 C 0.32481 0.65037 0.89268 0.0
O360 O 0.29702 0.62531 0.90173 0.0
O361 O 0.41199 0.58946 0.89942 0.0
O362 O 0.37906 0.54108 0.88911 0.0
H363 H 0.60735 0.61231 0.88874 0.0
H364 H 0.22255 0.58494 0.85736 0.0
O365 O 0.26427 0.54472 0.82096 0.0
H366 H 0.22439 0.52772 0.95826 0.0
H367 H 0.2096 0.44336 0.85748 0.0
H368 H 0.39895 0.48892 0.86241 0.0
H369 H 0.29749 0.51803 0.91863 0.0
H370 H 0.22328 0.50084 0.85376 0.0
O371 O 0.36834 0.64757 0.87574 0.0
H372 H 0.51566 0.58742 0.8798 0.0
H373 H 0.44868 0.67483 0.84867 0.0
H374 H 0.3871 0.43133 0.86645 0.0
H375 H 0.14812 0.59499 0.89615 0.0
H376 H 0.29187 0.40818 0.864 0.0
H377 H 0.14886 0.56636 0.94709 0.0
O378 O 0.38319 0.5357 0.82333 0.0
H379 H 0.30341 0.66609 0.77055 0.0
H380 H 0.48095 0.61589 0.80166 0.0
H381 H 0.47161 0.6385 0.74855 0.0
H382 H 0.38235 0.66392 0.73272 0.0
H383 H 0.31442 0.64291 0.82335 0.0
H384 H 0.53956 0.70071 0.8575 0.0
H385 H 0.61976 0.66937 0.87756 0.0
O386 O 0.44474 0.57264 0.83801 0.0
C387 C 0.40621 0.5603 0.9063 0.0
C388 C 0.57276 0.62621 0.87992 0.0
C389 C 0.5347 0.67582 0.86243 0.0
N390 N 0.4769 0.62959 0.86358 0.0
C391 C 0.52075 0.61223 0.87476 0.0
C392 C 0.48328 0.66105 0.85756 0.0
C393 C 0.57968 0.65822 0.87367 0.0
C394 C 0.22287 0.57214 0.87933 0.0
N395 N 0.26436 0.55091 0.88569 0.0
C396 C 0.18073 0.57804 0.90127 0.0
C397 C 0.18123 0.56202 0.92986 0.0
C398 C 0.22364 0.54037 0.93617 0.0
C399 C 0.2651 0.53509 0.91368 0.0
C400 C 0.2513 0.45316 0.85863 0.0
C401 C 0.35734 0.47906 0.86147 0.0
C402 C 0.25933 0.4857 0.85647 0.0
N403 N 0.31185 0.49827 0.85807 0.0
C404 C 0.35091 0.44641 0.8637 0.0
C405 C 0.29748 0.43344 0.8623 0.0
C406 C 0.43224 0.54758 0.82309 0.0
C407 C 0.34256 0.65515 0.7772 0.0
C408 C 0.44192 0.62677 0.79492 0.0
C409 C 0.43692 0.63962 0.76483 0.0
C410 C 0.38684 0.65389 0.75597 0.0
N411 N 0.39836 0.62819 0.81566 0.0
C412 C 0.3491 0.64207 0.8071 0.0
Co413 Co 0.19451 0.97901 0.85387 0.0
Co414 Co 0.10719 0.91549 0.85577 0.0
O415 O 0.18138 0.93378 0.84897 0.0
C416 C 0.25113 0.96924 0.79166 0.0
O417 O 0.20387 0.95963 0.77927 0.0
C418 C 0.18361 0.87198 0.8905 0.0
O419 O 0.2099 0.8966 0.90184 0.0
O420 O 0.10457 0.93371 0.89884 0.0
O421 O 0.13764 0.98199 0.88828 0.0
H422 H 0.90688 0.91637 0.89142 0.0
H423 H 0.29073 0.93496 0.85642 0.0
O424 O 0.25331 0.97736 0.82037 0.0
H425 H 0.29238 0.99064 0.95796 0.0
H426 H 0.31379 0.07666 0.8589 0.0
H427 H 0.12154 0.03497 0.86219 0.0
H428 H 0.2208 1.00295 0.91814 0.0
H429 H 0.29645 0.0196 0.85407 0.0
O430 O 0.14196 0.87567 0.87226 0.0
H431 H 1.00001 0.93923 0.88172 0.0
H432 H 0.05761 0.85179 0.84555 0.0
H433 H 0.13706 0.09217 0.86736 0.0
H434 H 0.36354 0.92221 0.89543 0.0
H435 H 0.23377 0.11337 0.86573 0.0
H436 H 0.36454 0.95008 0.94668 0.0
O437 O 0.1347 0.9884 0.82231 0.0
H438 H 0.19781 0.85948 0.76521 0.0
H439 H 0.02807 0.9145 0.80154 0.0
H440 H 0.03212 0.89413 0.74739 0.0
H441 H 0.11741 0.86632 0.72892 0.0
H442 H 0.19215 0.88045 0.81912 0.0
H443 H 0.9652 0.82791 0.85508 0.0
H444 H 0.88898 0.86031 0.87807 0.0
O445 O 0.06956 0.95427 0.83907 0.0
C446 C 0.11117 0.96273 0.90588 0.0
C447 C 0.9397 0.90203 0.8813 0.0
C448 C 0.97245 0.85238 0.86095 0.0
N449 N 0.03412 0.89696 0.86288 0.0
C450 C 0.99249 0.91488 0.87568 0.0
C451 C 0.02474 0.86602 0.85567 0.0
C452 C 0.9297 0.87057 0.87384 0.0
C453 C 0.29121 0.94741 0.87854 0.0
N454 N 0.25159 0.96972 0.88494 0.0
C455 C 0.33241 0.93999 0.9006 0.0
C456 C 0.33289 0.95559 0.92936 0.0
C457 C 0.29237 0.97833 0.93572 0.0
C458 C 0.25179 0.98511 0.91312 0.0
C459 C 0.27146 0.06771 0.85968 0.0
C460 C 0.16376 0.04398 0.86159 0.0
C461 C 0.26136 0.03541 0.85688 0.0
N462 N 0.20802 0.02391 0.85802 0.0
C463 C 0.17228 0.07641 0.86447 0.0
C464 C 0.22655 0.08829 0.86352 0.0
C465 C 0.08419 0.9787 0.8236 0.0
C466 C 0.16034 0.87146 0.77301 0.0
C467 C 0.06538 0.90248 0.79367 0.0
C468 C 0.06738 0.89095 0.76299 0.0
C469 C 0.11524 0.87534 0.75265 0.0
N470 N 0.10971 0.89847 0.81354 0.0
C471 C 0.15683 0.88328 0.80354 0.0
H472 H 0.27753 0.50314 0.27602 0.0
H473 H 0.57846 0.53157 0.20153 0.0
H474 H 0.3498 0.59621 0.27175 0.0
H475 H 0.47318 0.45195 0.1794 0.0
H476 H 0.49991 0.55526 0.23041 0.0
H477 H 0.35363 0.48334 0.24364 0.0
C478 C 0.3093 0.5195 0.26804 0.0
C479 C 0.30726 0.55139 0.27654 0.0
C480 C 0.49428 0.53265 0.21909 0.0
C481 C 0.39535 0.52869 0.2397 0.0
C482 C 0.5391 0.51903 0.20276 0.0
C483 C 0.53286 0.48947 0.18828 0.0
C484 C 0.44323 0.51641 0.2212 0.0
C485 C 0.48057 0.47453 0.1904 0.0
C486 C 0.35278 0.50817 0.24951 0.0
C487 C 0.34963 0.57149 0.26551 0.0
N488 N 0.43817 0.48802 0.20669 0.0
N489 N 0.39242 0.55973 0.24787 0.0
H490 H 0.93265 1.00927 0.22679 0.0
H491 H 0.26258 0.97338 0.22677 0.0
H492 H 0.0453 0.03775 0.15291 0.0
H493 H 0.16264 0.97479 0.31116 0.0
H494 H 0.17853 0.9857 0.1961 0.0
H495 H 0.01232 0.9854 0.25482 0.0
C496 C 0.97387 1.01008 0.21629 0.0
C497 C 0.98252 0.02581 0.1877 0.0
C498 C 0.175 0.98301 0.22132 0.0
C499 C 0.07332 0.99851 0.2193 0.0
C500 C 0.22292 0.97584 0.2388 0.0
C501 C 0.21982 0.97339 0.2716 0.0
C502 C 0.12351 0.9874 0.2367 0.0
C503 C 0.16715 0.97684 0.28593 0.0
C504 C 0.01929 0.99664 0.23231 0.0
C505 C 0.03685 0.02626 0.17513 0.0
N506 N 0.12118 0.98378 0.26844 0.0
N507 N 0.08007 0.01292 0.19099 0.0
H508 H 0.84806 0.426 0.22431 0.0
H509 H 0.97278 0.5744 0.31543 0.0
H510 H 0.78103 0.5203 0.2183 0.0
H511 H 0.07493 0.49318 0.29392 0.0
H512 H 0.89582 0.55077 0.28696 0.0
H513 H 0.92513 0.44629 0.25689 0.0
C514 C 0.84915 0.45082 0.23017 0.0
C515 C 0.80816 0.47152 0.21859 0.0
C516 C 0.93507 0.53809 0.28836 0.0
C517 C 0.89557 0.49468 0.25563 0.0
C518 C 0.97933 0.55161 0.30463 0.0
C519 C 0.03105 0.53603 0.30676 0.0
C520 C 0.94183 0.50851 0.27425 0.0
C521 C 0.0361 0.50624 0.29258 0.0
C522 C 0.89327 0.46238 0.2485 0.0
C523 C 0.81181 0.50351 0.22661 0.0
N524 N 0.99196 0.49339 0.2769 0.0
N525 N 0.85458 0.51404 0.24463 0.0
H526 H 0.66231 0.04799 0.18227 0.0
H527 H 0.54436 0.98525 0.34441 0.0
H528 H 0.75935 0.04834 0.26768 0.0
H529 H 0.43531 0.01218 0.2683 0.0
H530 H 0.623 1.00879 0.31667 0.0
H531 H 0.57868 0.03573 0.21289 0.0
C532 C 0.66599 0.04577 0.20754 0.0
C533 C 0.71816 0.04895 0.22241 0.0
C534 C 0.58189 1.00993 0.30609 0.0
C535 C 0.62232 0.03458 0.25758 0.0
C536 C 0.53689 0.99636 0.32187 0.0
C537 C 0.48322 0.99652 0.3085 0.0
C538 C 0.57369 0.02337 0.27634 0.0
C539 C 0.47599 0.01157 0.27942 0.0
C540 C 0.61808 0.03886 0.225 0.0
C541 C 0.72015 0.04605 0.25521 0.0
N542 N 0.52094 0.02399 0.26405 0.0
N543 N 0.67308 0.03861 0.27163 0.0
H544 H 0.43228 0.49024 0.79163 0.0
H545 H 0.73684 0.51872 0.72083 0.0
H546 H 0.53829 0.56932 0.81457 0.0
H547 H 0.66317 0.42592 0.72163 0.0
H548 H 0.65921 0.53812 0.75215 0.0
H549 H 0.51115 0.46648 0.76277 0.0
C550 C 0.47178 0.50265 0.79057 0.0
C551 C 0.47818 0.53205 0.80534 0.0
C552 C 0.66 0.51343 0.74577 0.0
C553 C 0.56808 0.50509 0.77252 0.0
C554 C 0.70443 0.50232 0.72785 0.0
C555 C 0.70662 0.47062 0.71869 0.0
C556 C 0.61657 0.4929 0.75437 0.0
C557 C 0.66329 0.45049 0.72846 0.0
C558 C 0.51677 0.489 0.77427 0.0
C559 C 0.53065 0.54685 0.80341 0.0
N560 N 0.61959 0.46203 0.74558 0.0
N561 N 0.5731 0.53334 0.78724 0.0
H562 H 0.75902 0.04922 0.76888 0.0
H563 H 0.08898 0.01364 0.76891 0.0
H564 H 0.85902 0.04831 0.68451 0.0
H565 H 0.97606 0.98394 0.84219 0.0
H566 H 1.00931 0.03764 0.741 0.0
H567 H 0.84302 0.03667 0.79949 0.0
C568 C 0.79869 0.04683 0.75685 0.0
C569 C 0.80182 0.04948 0.72406 0.0
C570 C 1.00228 0.0261 0.76335 0.0
C571 C 0.89806 0.03521 0.7589 0.0
C572 C 0.04769 0.01257 0.7793 0.0
C573 C 0.03898 0.99648 0.80769 0.0
C574 C 0.94819 0.02395 0.77624 0.0
C575 C 0.98456 0.99571 0.82012 0.0
C576 C 0.84657 0.03953 0.77429 0.0
C577 C 0.8545 0.04611 0.70972 0.0
N578 N 0.94136 1.00915 0.80434 0.0
N579 N 0.90044 0.03904 0.72718 0.0
H580 H 0.15845 0.55007 0.81131 0.0
H581 H 0.04927 0.47491 0.65336 0.0
H582 H 0.2613 0.54422 0.72826 0.0
H583 H 0.93617 0.51419 0.72193 0.0
H584 H 0.1276 0.49884 0.68106 0.0
H585 H 0.07673 0.53626 0.7798 0.0
C586 C 0.16375 0.54619 0.78634 0.0
C587 C 0.21689 0.5481 0.77239 0.0
C588 C 0.08565 0.5025 0.68992 0.0
C589 C 0.12349 0.53183 0.73632 0.0
C590 C 0.04084 0.48868 0.67423 0.0
C591 C 0.98601 0.49233 0.6855 0.0
C592 C 0.07594 0.51968 0.71748 0.0
C593 C 0.97772 0.51074 0.71246 0.0
C594 C 0.11701 0.5384 0.76838 0.0
C595 C 0.22117 0.54301 0.73995 0.0
N596 N 0.02233 0.52339 0.7278 0.0
N597 N 0.1752 0.53463 0.72308 0.0
H598 H 0.25955 0.97266 0.72732 0.0
H599 H 0.58904 1.00923 0.72736 0.0
H600 H 0.35909 0.97495 0.8118 0.0
H601 H 0.4763 0.03746 0.65341 0.0
H602 H 0.50949 0.98538 0.75545 0.0
H603 H 0.34354 0.98509 0.69666 0.0
C604 C 0.29912 0.97534 0.73938 0.0
C605 C 0.30212 0.9731 0.77219 0.0
C606 C 0.50248 0.99656 0.73291 0.0
C607 C 0.39835 0.98721 0.7373 0.0
C608 C 0.54782 1.00999 0.71686 0.0
C609 C 0.53912 0.02564 0.68822 0.0
C610 C 0.44846 0.99835 0.71989 0.0
C611 C 0.48479 0.02604 0.67566 0.0
C612 C 0.347 0.98256 0.7219 0.0
C613 C 0.35467 0.97683 0.78656 0.0
N614 N 0.44165 0.0127 0.69155 0.0
N615 N 0.40061 0.98381 0.76907 0.0
H616 H 0.03529 0.59181 0.44755 0.0
H617 H 0.97448 0.43352 0.54554 0.0
H618 H 0.11701 0.50263 0.4303 0.0
H619 H 0.89643 0.52317 0.56543 0.0
H620 H 0.02512 0.45826 0.50209 0.0
H621 H 0.98347 0.5672 0.49076 0.0
C622 C 0.0428 0.56722 0.45298 0.0
C623 C 0.08072 0.54938 0.43517 0.0
C624 C 0.99669 0.47247 0.51591 0.0
C625 C 0.02104 0.52093 0.48433 0.0
C626 C 0.9675 0.45827 0.54063 0.0
C627 C 0.93109 0.4762 0.5593 0.0
C628 C 0.98942 0.50482 0.50975 0.0
C629 C 0.92406 0.50831 0.55182 0.0
C630 C 0.01297 0.55311 0.47754 0.0
C631 C 0.08831 0.51746 0.44323 0.0
N632 N 0.95303 0.52155 0.52776 0.0
N633 N 0.0587 0.50432 0.46707 0.0
H634 H 0.39915 0.02387 0.4291 0.0
H635 H 0.62152 0.99915 0.56696 0.0
H636 H 0.48168 0.93516 0.44776 0.0
H637 H 0.53819 0.08771 0.54876 0.0
H638 H 0.57151 0.97569 0.52317 0.0
H639 H 0.44901 0.04734 0.47294 0.0
C640 C 0.42749 1.00917 0.44251 0.0
C641 C 0.4361 0.97734 0.43459 0.0
C642 C 0.56423 1.00027 0.52864 0.0
C643 C 0.49398 1.00448 0.48498 0.0
C644 C 0.59297 0.01382 0.55366 0.0
C645 C 0.58419 0.0456 0.5617 0.0
C646 C 0.52615 0.01848 0.51136 0.0
C647 C 0.54652 0.06321 0.54345 0.0
C648 C 0.45614 0.02273 0.46756 0.0
C649 C 0.4735 0.9597 0.45298 0.0
N650 N 0.51878 0.04938 0.5192 0.0
N651 N 0.50117 0.97354 0.47724 0.0
H652 H 0.53727 0.43233 0.0473 0.0
H653 H 0.48068 0.58934 0.94637 0.0
H654 H 0.62003 0.52122 0.06399 0.0
H655 H 0.39837 0.50034 0.92958 0.0
H656 H 0.53194 0.56487 0.98985 0.0
H657 H 0.4869 0.45666 0.00345 0.0
C658 C 0.54531 0.45681 0.04162 0.0
C659 C 0.58306 0.47465 0.05946 0.0
C660 C 0.50247 0.55077 0.97667 0.0
C661 C 0.52507 0.50278 0.00949 0.0
C662 C 0.47299 0.5648 0.95193 0.0
C663 C 0.43501 0.54698 0.93421 0.0
C664 C 0.49395 0.51871 0.98375 0.0
C665 C 0.42714 0.51514 0.94246 0.0
C666 C 0.51631 0.47076 0.01667 0.0
C667 C 0.59139 0.50641 0.05103 0.0
N668 N 0.45635 0.50208 0.96652 0.0
N669 N 0.56258 0.51942 0.02679 0.0
H670 H 0.03867 0.93324 0.94681 0.0
H671 H 0.98341 0.08945 0.0485 0.0
H672 H 0.11957 0.02257 0.92925 0.0
H673 H 0.90274 1.00007 0.06613 0.0
H674 H 0.03311 0.06549 0.00429 0.0
H675 H 0.98897 0.95721 0.991 0.0
C676 C 0.04638 0.95776 0.95234 0.0
C677 C 0.08346 0.97582 0.93419 0.0
C678 C 1.00435 0.05119 0.01781 0.0
C679 C 0.0263 1.00352 0.9846 0.0
C680 C 0.97576 0.06492 0.04298 0.0
C681 C 0.93874 0.04684 0.06115 0.0
C682 C 0.9959 0.01915 0.01074 0.0
C683 C 0.93083 0.01504 0.05291 0.0
C684 C 0.01779 0.9715 0.97751 0.0
C685 C 0.09142 1.00761 0.94246 0.0
N686 N 0.9592 1.00226 0.02842 0.0
N687 N 0.06305 0.0204 0.96694 0.0
H688 H 0.30321 0.66909 0.40395 0.0
H689 H 0.23299 0.85399 0.41134 0.0
H690 H 0.13617 0.70666 0.39567 0.0
H691 H 0.39486 0.81736 0.38539 0.0
H692 H 0.19871 0.79973 0.41685 0.0
H693 H 0.33913 0.72312 0.40852 0.0
C694 C 0.27403 0.68863 0.4036 0.0
C695 C 0.21666 0.68336 0.39922 0.0
C696 C 0.24185 0.80364 0.4102 0.0
C697 C 0.25738 0.7451 0.40448 0.0
C698 C 0.26149 0.83458 0.40719 0.0
C699 C 0.31675 0.84024 0.39767 0.0
C700 C 0.27794 0.77818 0.4041 0.0
C701 C 0.35179 0.81412 0.3925 0.0
C702 C 0.29457 0.71944 0.406 0.0
C703 C 0.18079 0.70963 0.39874 0.0
N704 N 0.33181 0.78428 0.39575 0.0
N705 N 0.2017 0.7393 0.40127 0.0
H706 H 0.89845 0.20585 0.1116 0.0
H707 H 0.63352 0.31748 0.09998 0.0
H708 H 0.73566 0.17104 0.08535 0.0
H709 H 0.80188 0.35311 0.09264 0.0
H710 H 0.66963 0.26377 0.0955 0.0
H711 H 0.86401 0.25982 0.10585 0.0
C712 C 0.85551 0.20955 0.10441 0.0
C713 C 0.81979 0.18384 0.09908 0.0
C714 C 0.69865 0.28332 0.09448 0.0
C715 C 0.77993 0.24573 0.09278 0.0
C716 C 0.67811 0.31402 0.0971 0.0
C717 C 0.71478 0.33987 0.09679 0.0
C718 C 0.75648 0.27824 0.09212 0.0
C719 C 0.7721 0.33392 0.0929 0.0
C720 C 0.83596 0.24041 0.10101 0.0
C721 C 0.76467 0.19012 0.08964 0.0
N722 N 0.79127 0.30371 0.09116 0.0
N723 N 0.74622 0.22043 0.08719 0.0
H724 H 0.62264 0.20526 0.61075 0.0
H725 H 0.88709 0.31749 0.60432 0.0
H726 H 0.78742 0.17076 0.58793 0.0
H727 H 0.71911 0.35271 0.59264 0.0
H728 H 0.85177 0.26365 0.59981 0.0
H729 H 0.65694 0.25931 0.6057 0.0
C730 C 0.666 0.20905 0.60445 0.0
C731 C 0.70229 0.1834 0.59987 0.0
C732 C 0.82268 0.28313 0.59789 0.0
C733 C 0.74198 0.24537 0.59443 0.0
C734 C 0.84276 0.31391 0.60056 0.0
C735 C 0.80594 0.33969 0.59897 0.0
C736 C 0.76513 0.27792 0.59419 0.0
C737 C 0.74899 0.33357 0.59392 0.0
C738 C 0.68548 0.23994 0.60147 0.0
C739 C 0.75796 0.18979 0.5916 0.0
N740 N 0.73022 0.30331 0.59213 0.0
N741 N 0.77628 0.22013 0.58954 0.0
H742 H 0.21718 0.66855 0.90626 0.0
H743 H 0.28799 0.8533 0.91003 0.0
H744 H 0.38358 0.7055 0.89326 0.0
H745 H 0.12562 0.81677 0.88528 0.0
H746 H 0.32229 0.799 0.91573 0.0
H747 H 0.18179 0.72277 0.91053 0.0
C748 C 0.24636 0.68801 0.90482 0.0
C749 C 0.30335 0.68251 0.89921 0.0
C750 C 0.27904 0.80295 0.90931 0.0
C751 C 0.26326 0.74443 0.90418 0.0
C752 C 0.25939 0.8339 0.9062 0.0
C753 C 0.20398 0.83958 0.89696 0.0
C754 C 0.24278 0.77752 0.90364 0.0
C755 C 0.16881 0.81349 0.89217 0.0
C756 C 0.22612 0.71891 0.90706 0.0
C757 C 0.33925 0.70866 0.89733 0.0
N758 N 0.18877 0.78365 0.89555 0.0
N759 N 0.31864 0.73844 0.89978 0.0
loop_
_geom_bond_atom_site_label_1
_geom_bond_atom_site_label_2
_geom_bond_distance
_geom_bond_site_symmetry_2
_ccdc_geom_bond_type
Co0 O2 2.143 . S
Co0 O8 2.074 . S
Co0 O11 2.093 . S
Co0 O24 2.097 . S
Co0 N41 2.151 . S
Co0 N49 2.214 . S
Co1 O2 2.160 . S
Co1 O7 2.058 . S
Co1 O17 2.057 . S
Co1 O32 2.037 . S
Co1 N36 2.145 . S
Co1 N57 2.257 . S
O2 Co0 2.143 . S
O2 Co1 2.160 . S
C3 O4 1.278 . S
C3 O11 1.224 . S
O4 C3 1.278 . S
C5 O6 1.245 . S
C5 O17 1.232 . S
O6 C5 1.245 . S
O7 Co1 2.058 . S
O7 C33 1.269 . S
O8 Co0 2.074 . S
O8 C33 1.257 . S
H9 C34 0.930 . S
H10 C40 0.930 . S
O11 Co0 2.093 . S
O11 C3 1.224 . S
H12 C44 0.929 . S
H13 C46 0.930 . S
H14 C47 0.930 . S
H15 C45 0.929 . S
H16 C48 0.928 . S
O17 Co1 2.057 . S
O17 C5 1.232 . S
H18 C37 0.929 . S
H19 C38 0.929 . S
H20 C50 0.931 . S
H21 C42 0.929 . S
H22 C51 0.930 . S
H23 C43 0.931 . S
O24 Co0 2.097 . S
O24 C52 1.214 . S
H25 C53 0.929 . S
H26 C54 0.929 . S
H27 C55 0.930 . S
H28 C56 0.929 . S
H29 C58 0.930 . S
H30 C35 0.930 . S
H31 C39 0.930 . S
O32 Co1 2.037 . S
O32 C52 1.234 . S
C33 O7 1.269 . S
C33 O8 1.257 . S
C34 H9 0.930 . S
C34 C37 1.388 . S
C34 C39 1.418 . S
C35 H30 0.930 . S
C35 C38 1.404 1_655 S
C35 C39 1.353 . S
N36 Co1 2.145 . S
N36 C37 1.397 1_455 S
N36 C38 1.334 . S
C37 H18 0.929 . S
C37 C34 1.388 . S
C37 N36 1.397 1_655 S
C38 H19 0.929 . S
C38 C35 1.404 1_455 S
C38 N36 1.334 . S
C39 H31 0.930 . S
C39 C34 1.418 . S
C39 C35 1.353 . S
C40 H10 0.930 . S
C40 N41 1.330 . S
C40 C42 1.446 . S
N41 Co0 2.151 . S
N41 C40 1.330 . S
N41 C45 1.418 . S
C42 H21 0.929 . S
C42 C40 1.446 . S
C42 C43 1.332 . S
C43 H23 0.931 . S
C43 C42 1.332 . S
C43 C44 1.267 . S
C44 H12 0.929 . S
C44 C43 1.267 . S
C44 C45 1.251 . S
C45 H15 0.929 . S
C45 N41 1.418 . S
C45 C44 1.251 . S
C46 H13 0.930 . S
C46 C48 1.406 . S
C46 C51 1.261 . S
C47 H14 0.930 . S
C47 N49 1.325 . S
C47 C50 1.357 . S
C48 H16 0.928 . S
C48 C46 1.406 . S
C48 N49 1.261 . S
N49 Co0 2.214 . S
N49 C47 1.325 . S
N49 C48 1.261 . S
C50 H20 0.931 . S
C50 C47 1.357 . S
C50 C51 1.312 . S
C51 H22 0.930 . S
C51 C46 1.261 . S
C51 C50 1.312 . S
C52 O24 1.214 . S
C52 O32 1.234 . S
C53 H25 0.929 . S
C53 C56 1.391 . S
C53 C58 1.391 . S
C54 H26 0.929 . S
C54 C55 1.390 . S
C54 N57 1.391 . S
C55 H27 0.930 . S
C55 C54 1.390 . S
C55 C56 1.392 . S
C56 H28 0.929 . S
C56 C53 1.391 . S
C56 C55 1.392 . S
N57 Co1 2.257 . S
N57 C54 1.391 . S
N57 C58 1.388 . S
C58 H29 0.930 . S
C58 C53 1.391 . S
C58 N57 1.388 . S
Co59 O61 2.143 . S
Co59 O67 2.074 . S
Co59 O70 2.093 . S
Co59 O83 2.097 . S
Co59 N100 2.151 . S
Co59 N108 2.214 1_565 S
Co60 O61 2.160 . S
Co60 O66 2.058 . S
Co60 O76 2.057 . S
Co60 O91 2.037 . S
Co60 N95 2.145 . S
Co60 N116 2.257 . S
O61 Co59 2.143 . S
O61 Co60 2.160 . S
C62 O63 1.278 . S
C62 O70 1.224 . S
O63 C62 1.278 . S
C64 O65 1.245 . S
C64 O76 1.232 . S
O65 C64 1.245 . S
O66 Co60 2.058 . S
O66 C92 1.269 . S
O67 Co59 2.074 . S
O67 C92 1.257 . S
H68 C93 0.930 . S
H69 C99 0.930 . S
O70 Co59 2.093 . S
O70 C62 1.224 . S
H71 C103 0.929 . S
H72 C105 0.930 . S
H73 C106 0.930 . S
H74 C104 0.929 1_545 S
H75 C107 0.928 . S
O76 Co60 2.057 . S
O76 C64 1.232 . S
H77 C96 0.929 . S
H78 C97 0.929 . S
H79 C109 0.931 . S
H80 C101 0.929 . S
H81 C110 0.930 . S
H82 C102 0.931 . S
O83 Co59 2.097 . S
O83 C111 1.214 . S
H84 C112 0.929 . S
H85 C113 0.929 . S
H86 C114 0.930 . S
H87 C115 0.929 . S
H88 C117 0.930 . S
H89 C94 0.930 . S
H90 C98 0.930 . S
O91 Co60 2.037 . S
O91 C111 1.234 . S
C92 O66 1.269 . S
C92 O67 1.257 . S
C93 H68 0.930 . S
C93 C96 1.388 . S
C93 C98 1.418 . S
C94 H89 0.930 . S
C94 C97 1.404 . S
C94 C98 1.353 . S
N95 Co60 2.145 . S
N95 C96 1.397 . S
N95 C97 1.334 . S
C96 H77 0.929 . S
C96 C93 1.388 . S
C96 N95 1.397 . S
C97 H78 0.929 . S
C97 C94 1.404 . S
C97 N95 1.334 . S
C98 H90 0.930 . S
C98 C93 1.418 . S
C98 C94 1.353 . S
C99 H69 0.930 . S
C99 N100 1.330 . S
C99 C101 1.446 . S
N100 Co59 2.151 . S
N100 C99 1.330 . S
N100 C104 1.418 . S
C101 H80 0.929 . S
C101 C99 1.446 . S
C101 C102 1.332 . S
C102 H82 0.931 . S
C102 C101 1.332 . S
C102 C103 1.267 1_565 S
C103 H71 0.929 . S
C103 C102 1.267 1_545 S
C103 C104 1.251 1_545 S
C104 H74 0.929 1_565 S
C104 N100 1.418 . S
C104 C103 1.251 1_565 S
C105 H72 0.930 . S
C105 C107 1.406 . S
C105 C110 1.261 . S
C106 H73 0.930 . S
C106 N108 1.325 . S
C106 C109 1.357 . S
C107 H75 0.928 . S
C107 C105 1.406 . S
C107 N108 1.261 . S
N108 Co59 2.214 1_545 S
N108 C106 1.325 . S
N108 C107 1.261 . S
C109 H79 0.931 . S
C109 C106 1.357 . S
C109 C110 1.312 . S
C110 H81 0.930 . S
C110 C105 1.261 . S
C110 C109 1.312 . S
C111 O83 1.214 . S
C111 O91 1.234 . S
C112 H84 0.929 . S
C112 C115 1.391 . S
C112 C117 1.391 . S
C113 H85 0.929 . S
C113 C114 1.390 . S
C113 N116 1.391 . S
C114 H86 0.930 . S
C114 C113 1.390 . S
C114 C115 1.392 . S
C115 H87 0.929 . S
C115 C112 1.391 . S
C115 C114 1.392 . S
N116 Co60 2.257 . S
N116 C113 1.391 . S
N116 C117 1.388 . S
C117 H88 0.930 . S
C117 C112 1.391 . S
C117 N116 1.388 . S
Co118 O120 2.143 . S
Co118 O126 2.074 . S
Co118 O129 2.093 . S
Co118 O142 2.097 . S
Co118 N159 2.151 . S
Co118 N167 2.214 . S
Co119 O120 2.160 . S
Co119 O125 2.058 . S
Co119 O135 2.057 . S
Co119 O150 2.037 . S
Co119 N154 2.145 . S
Co119 N175 2.257 . S
O120 Co118 2.143 . S
O120 Co119 2.160 . S
C121 O122 1.278 . S
C121 O129 1.224 . S
O122 C121 1.278 . S
C123 O124 1.245 . S
C123 O135 1.232 . S
O124 C123 1.245 . S
O125 Co119 2.058 . S
O125 C151 1.269 . S
O126 Co118 2.074 . S
O126 C151 1.257 . S
H127 C152 0.930 . S
H128 C158 0.930 . S
O129 Co118 2.093 . S
O129 C121 1.224 . S
H130 C162 0.929 . S
H131 C164 0.930 . S
H132 C165 0.930 . S
H133 C163 0.929 . S
H134 C166 0.928 . S
O135 Co119 2.057 . S
O135 C123 1.232 . S
H136 C155 0.929 . S
H137 C156 0.929 . S
H138 C168 0.931 . S
H139 C160 0.929 . S
H140 C169 0.930 . S
H141 C161 0.931 . S
O142 Co118 2.097 . S
O142 C170 1.214 . S
H143 C171 0.929 . S
H144 C172 0.929 . S
H145 C173 0.930 . S
H146 C174 0.929 . S
H147 C176 0.930 . S
H148 C153 0.930 . S
H149 C157 0.930 . S
O150 Co119 2.037 . S
O150 C170 1.234 . S
C151 O125 1.269 . S
C151 O126 1.257 . S
C152 H127 0.930 . S
C152 C155 1.388 . S
C152 C157 1.418 . S
C153 H148 0.930 . S
C153 C156 1.404 . S
C153 C157 1.353 . S
N154 Co119 2.145 . S
N154 C155 1.397 . S
N154 C156 1.334 . S
C155 H136 0.929 . S
C155 C152 1.388 . S
C155 N154 1.397 . S
C156 H137 0.929 . S
C156 C153 1.404 . S
C156 N154 1.334 . S
C157 H149 0.930 . S
C157 C152 1.418 . S
C157 C153 1.353 . S
C158 H128 0.930 . S
C158 N159 1.330 . S
C158 C160 1.446 . S
N159 Co118 2.151 . S
N159 C158 1.330 . S
N159 C163 1.418 . S
C160 H139 0.929 . S
C160 C158 1.446 . S
C160 C161 1.332 . S
C161 H141 0.931 . S
C161 C160 1.332 . S
C161 C162 1.267 . S
C162 H130 0.929 . S
C162 C161 1.267 . S
C162 C163 1.251 . S
C163 H133 0.929 . S
C163 N159 1.418 . S
C163 C162 1.251 . S
C164 H131 0.930 . S
C164 C166 1.406 . S
C164 C169 1.261 . S
C165 H132 0.930 . S
C165 N167 1.325 . S
C165 C168 1.357 . S
C166 H134 0.928 . S
C166 C164 1.406 . S
C166 N167 1.261 . S
N167 Co118 2.214 . S
N167 C165 1.325 . S
N167 C166 1.261 . S
C168 H138 0.931 . S
C168 C165 1.357 . S
C168 C169 1.312 . S
C169 H140 0.930 . S
C169 C164 1.261 . S
C169 C168 1.312 . S
C170 O142 1.214 . S
C170 O150 1.234 . S
C171 H143 0.929 . S
C171 C174 1.391 . S
C171 C176 1.391 . S
C172 H144 0.929 . S
C172 C173 1.390 . S
C172 N175 1.391 . S
C173 H145 0.930 . S
C173 C172 1.390 . S
C173 C174 1.392 . S
C174 H146 0.929 . S
C174 C171 1.391 . S
C174 C173 1.392 . S
N175 Co119 2.257 . S
N175 C172 1.391 . S
N175 C176 1.388 . S
C176 H147 0.930 . S
C176 C171 1.391 . S
C176 N175 1.388 . S
Co177 O179 2.143 . S
Co177 O185 2.074 . S
Co177 O188 2.093 . S
Co177 O201 2.097 . S
Co177 N218 2.151 . S
Co177 N226 2.214 1_545 S
Co178 O179 2.160 . S
Co178 O184 2.058 . S
Co178 O194 2.057 . S
Co178 O209 2.037 . S
Co178 N213 2.145 . S
Co178 N234 2.257 . S
O179 Co177 2.143 . S
O179 Co178 2.160 . S
C180 O181 1.278 . S
C180 O188 1.224 . S
O181 C180 1.278 . S
C182 O183 1.245 . S
C182 O194 1.232 . S
O183 C182 1.245 . S
O184 Co178 2.058 . S
O184 C210 1.269 . S
O185 Co177 2.074 . S
O185 C210 1.257 . S
H186 C211 0.930 . S
H187 C217 0.930 . S
O188 Co177 2.093 . S
O188 C180 1.224 . S
H189 C221 0.929 . S
H190 C223 0.930 . S
H191 C224 0.930 . S
H192 C222 0.929 1_565 S
H193 C225 0.928 . S
O194 Co178 2.057 . S
O194 C182 1.232 . S
H195 C214 0.929 . S
H196 C215 0.929 . S
H197 C227 0.931 . S
H198 C219 0.929 . S
H199 C228 0.930 . S
H200 C220 0.931 . S
O201 Co177 2.097 . S
O201 C229 1.214 . S
H202 C230 0.929 . S
H203 C231 0.929 . S
H204 C232 0.930 . S
H205 C233 0.929 . S
H206 C235 0.930 . S
H207 C212 0.930 . S
H208 C216 0.930 . S
O209 Co178 2.037 . S
O209 C229 1.234 . S
C210 O184 1.269 . S
C210 O185 1.257 . S
C211 H186 0.930 . S
C211 C214 1.388 . S
C211 C216 1.418 . S
C212 H207 0.930 . S
C212 C215 1.404 1_455 S
C212 C216 1.353 . S
N213 Co178 2.145 . S
N213 C214 1.397 1_655 S
N213 C215 1.334 . S
C214 H195 0.929 . S
C214 C211 1.388 . S
C214 N213 1.397 1_455 S
C215 H196 0.929 . S
C215 C212 1.404 1_655 S
C215 N213 1.334 . S
C216 H208 0.930 . S
C216 C211 1.418 . S
C216 C212 1.353 . S
C217 H187 0.930 . S
C217 N218 1.330 . S
C217 C219 1.446 . S
N218 Co177 2.151 . S
N218 C217 1.330 . S
N218 C222 1.418 . S
C219 H198 0.929 . S
C219 C217 1.446 . S
C219 C220 1.332 . S
C220 H200 0.931 . S
C220 C219 1.332 . S
C220 C221 1.267 1_545 S
C221 H189 0.929 . S
C221 C220 1.267 1_565 S
C221 C222 1.251 1_565 S
C222 H192 0.929 1_545 S
C222 N218 1.418 . S
C222 C221 1.251 1_545 S
C223 H190 0.930 . S
C223 C225 1.406 . S
C223 C228 1.261 . S
C224 H191 0.930 . S
C224 N226 1.325 . S
C224 C227 1.357 . S
C225 H193 0.928 . S
C225 C223 1.406 . S
C225 N226 1.261 . S
N226 Co177 2.214 1_565 S
N226 C224 1.325 . S
N226 C225 1.261 . S
C227 H197 0.931 . S
C227 C224 1.357 . S
C227 C228 1.312 . S
C228 H199 0.930 . S
C228 C223 1.261 . S
C228 C227 1.312 . S
C229 O201 1.214 . S
C229 O209 1.234 . S
C230 H202 0.929 . S
C230 C233 1.391 . S
C230 C235 1.391 . S
C231 H203 0.929 . S
C231 C232 1.390 . S
C231 N234 1.391 . S
C232 H204 0.930 . S
C232 C231 1.390 . S
C232 C233 1.392 . S
C233 H205 0.929 . S
C233 C230 1.391 . S
C233 C232 1.392 . S
N234 Co178 2.257 . S
N234 C231 1.391 . S
N234 C235 1.388 . S
C235 H206 0.930 . S
C235 C230 1.391 . S
C235 N234 1.388 . S
Co236 O238 2.143 . S
Co236 O244 2.074 . S
Co236 O247 2.093 . S
Co236 O260 2.097 . S
Co236 N277 2.151 . S
Co236 N285 2.214 . S
Co237 O238 2.160 . S
Co237 O243 2.058 . S
Co237 O253 2.057 . S
Co237 O268 2.037 . S
Co237 N272 2.145 . S
Co237 N293 2.257 . S
O238 Co236 2.143 . S
O238 Co237 2.160 . S
C239 O240 1.278 . S
C239 O247 1.224 . S
O240 C239 1.278 . S
C241 O242 1.245 . S
C241 O253 1.232 . S
O242 C241 1.245 . S
O243 Co237 2.058 . S
O243 C269 1.269 . S
O244 Co236 2.074 . S
O244 C269 1.257 . S
H245 C270 0.930 . S
H246 C276 0.930 . S
O247 Co236 2.093 . S
O247 C239 1.224 . S
H248 C280 0.929 . S
H249 C282 0.930 . S
H250 C283 0.930 . S
H251 C281 0.929 . S
H252 C284 0.928 . S
O253 Co237 2.057 . S
O253 C241 1.232 . S
H254 C273 0.929 . S
H255 C274 0.929 . S
H256 C286 0.931 . S
H257 C278 0.929 . S
H258 C287 0.930 . S
H259 C279 0.931 . S
O260 Co236 2.097 . S
O260 C288 1.214 . S
H261 C289 0.929 . S
H262 C290 0.929 . S
H263 C291 0.930 . S
H264 C292 0.929 . S
H265 C294 0.930 . S
H266 C271 0.930 . S
H267 C275 0.930 . S
O268 Co237 2.037 . S
O268 C288 1.234 . S
C269 O243 1.269 . S
C269 O244 1.257 . S
C270 H245 0.930 . S
C270 C273 1.388 . S
C270 C275 1.418 . S
C271 H266 0.930 . S
C271 C274 1.404 1_455 S
C271 C275 1.353 . S
N272 Co237 2.145 . S
N272 C273 1.397 1_655 S
N272 C274 1.334 . S
C273 H254 0.929 . S
C273 C270 1.388 . S
C273 N272 1.397 1_455 S
C274 H255 0.929 . S
C274 C271 1.404 1_655 S
C274 N272 1.334 . S
C275 H267 0.930 . S
C275 C270 1.418 . S
C275 C271 1.353 . S
C276 H246 0.930 . S
C276 N277 1.330 . S
C276 C278 1.446 . S
N277 Co236 2.151 . S
N277 C276 1.330 . S
N277 C281 1.418 . S
C278 H257 0.929 . S
C278 C276 1.446 . S
C278 C279 1.332 . S
C279 H259 0.931 . S
C279 C278 1.332 . S
C279 C280 1.267 . S
C280 H248 0.929 . S
C280 C279 1.267 . S
C280 C281 1.251 . S
C281 H251 0.929 . S
C281 N277 1.418 . S
C281 C280 1.251 . S
C282 H249 0.930 . S
C282 C284 1.406 . S
C282 C287 1.261 . S
C283 H250 0.930 . S
C283 N285 1.325 . S
C283 C286 1.357 . S
C284 H252 0.928 . S
C284 C282 1.406 . S
C284 N285 1.261 . S
N285 Co236 2.214 . S
N285 C283 1.325 . S
N285 C284 1.261 . S
C286 H256 0.931 . S
C286 C283 1.357 . S
C286 C287 1.312 . S
C287 H258 0.930 . S
C287 C282 1.261 . S
C287 C286 1.312 . S
C288 O260 1.214 . S
C288 O268 1.234 . S
C289 H261 0.929 . S
C289 C292 1.391 . S
C289 C294 1.391 . S
C290 H262 0.929 . S
C290 C291 1.390 . S
C290 N293 1.391 . S
C291 H263 0.930 . S
C291 C290 1.390 . S
C291 C292 1.392 . S
C292 H264 0.929 . S
C292 C289 1.391 . S
C292 C291 1.392 . S
N293 Co237 2.257 . S
N293 C290 1.391 . S
N293 C294 1.388 . S
C294 H265 0.930 . S
C294 C289 1.391 . S
C294 N293 1.388 . S
Co295 O297 2.143 . S
Co295 O303 2.074 . S
Co295 O306 2.093 . S
Co295 O319 2.097 . S
Co295 N336 2.151 . S
Co295 N344 2.214 1_545 S
Co296 O297 2.160 . S
Co296 O302 2.058 . S
Co296 O312 2.057 . S
Co296 O327 2.037 . S
Co296 N331 2.145 . S
Co296 N352 2.257 . S
O297 Co295 2.143 . S
O297 Co296 2.160 . S
C298 O299 1.278 . S
C298 O306 1.224 . S
O299 C298 1.278 . S
C300 O301 1.245 . S
C300 O312 1.232 . S
O301 C300 1.245 . S
O302 Co296 2.058 . S
O302 C328 1.269 . S
O303 Co295 2.074 . S
O303 C328 1.257 . S
H304 C329 0.930 . S
H305 C335 0.930 . S
O306 Co295 2.093 . S
O306 C298 1.224 . S
H307 C339 0.929 . S
H308 C341 0.930 . S
H309 C342 0.930 . S
H310 C340 0.929 1_565 S
H311 C343 0.928 . S
O312 Co296 2.057 . S
O312 C300 1.232 . S
H313 C332 0.929 . S
H314 C333 0.929 . S
H315 C345 0.931 . S
H316 C337 0.929 . S
H317 C346 0.930 . S
H318 C338 0.931 . S
O319 Co295 2.097 . S
O319 C347 1.214 . S
H320 C348 0.929 . S
H321 C349 0.929 . S
H322 C350 0.930 . S
H323 C351 0.929 . S
H324 C353 0.930 . S
H325 C330 0.930 . S
H326 C334 0.930 . S
O327 Co296 2.037 . S
O327 C347 1.234 . S
C328 O302 1.269 . S
C328 O303 1.257 . S
C329 H304 0.930 . S
C329 C332 1.388 . S
C329 C334 1.418 . S
C330 H325 0.930 . S
C330 C333 1.404 . S
C330 C334 1.353 . S
N331 Co296 2.145 . S
N331 C332 1.397 . S
N331 C333 1.334 . S
C332 H313 0.929 . S
C332 C329 1.388 . S
C332 N331 1.397 . S
C333 H314 0.929 . S
C333 C330 1.404 . S
C333 N331 1.334 . S
C334 H326 0.930 . S
C334 C329 1.418 . S
C334 C330 1.353 . S
C335 H305 0.930 . S
C335 N336 1.330 . S
C335 C337 1.446 . S
N336 Co295 2.151 . S
N336 C335 1.330 . S
N336 C340 1.418 . S
C337 H316 0.929 . S
C337 C335 1.446 . S
C337 C338 1.332 . S
C338 H318 0.931 . S
C338 C337 1.332 . S
C338 C339 1.267 1_545 S
C339 H307 0.929 . S
C339 C338 1.267 1_565 S
C339 C340 1.251 1_565 S
C340 H310 0.929 1_545 S
C340 N336 1.418 . S
C340 C339 1.251 1_545 S
C341 H308 0.930 . S
C341 C343 1.406 . S
C341 C346 1.261 . S
C342 H309 0.930 . S
C342 N344 1.325 . S
C342 C345 1.357 . S
C343 H311 0.928 . S
C343 C341 1.406 . S
C343 N344 1.261 . S
N344 Co295 2.214 1_565 S
N344 C342 1.325 . S
N344 C343 1.261 . S
C345 H315 0.931 . S
C345 C342 1.357 . S
C345 C346 1.312 . S
C346 H317 0.930 . S
C346 C341 1.261 . S
C346 C345 1.312 . S
C347 O319 1.214 . S
C347 O327 1.234 . S
C348 H320 0.929 . S
C348 C351 1.391 . S
C348 C353 1.391 . S
C349 H321 0.929 . S
C349 C350 1.390 . S
C349 N352 1.391 . S
C350 H322 0.930 . S
C350 C349 1.390 . S
C350 C351 1.392 . S
C351 H323 0.929 . S
C351 C348 1.391 . S
C351 C350 1.392 . S
N352 Co296 2.257 . S
N352 C349 1.391 . S
N352 C353 1.388 . S
C353 H324 0.930 . S
C353 C348 1.391 . S
C353 N352 1.388 . S
Co354 O356 2.143 . S
Co354 O362 2.074 . S
Co354 O365 2.093 . S
Co354 O378 2.097 . S
Co354 N395 2.151 . S
Co354 N403 2.214 . S
Co355 O356 2.160 . S
Co355 O361 2.058 . S
Co355 O371 2.057 . S
Co355 O386 2.037 . S
Co355 N390 2.145 . S
Co355 N411 2.257 . S
O356 Co354 2.143 . S
O356 Co355 2.160 . S
C357 O358 1.278 . S
C357 O365 1.224 . S
O358 C357 1.278 . S
C359 O360 1.245 . S
C359 O371 1.232 . S
O360 C359 1.245 . S
O361 Co355 2.058 . S
O361 C387 1.269 . S
O362 Co354 2.074 . S
O362 C387 1.257 . S
H363 C388 0.930 . S
H364 C394 0.930 . S
O365 Co354 2.093 . S
O365 C357 1.224 . S
H366 C398 0.929 . S
H367 C400 0.930 . S
H368 C401 0.930 . S
H369 C399 0.929 . S
H370 C402 0.928 . S
O371 Co355 2.057 . S
O371 C359 1.232 . S
H372 C391 0.929 . S
H373 C392 0.929 . S
H374 C404 0.931 . S
H375 C396 0.929 . S
H376 C405 0.930 . S
H377 C397 0.931 . S
O378 Co354 2.097 . S
O378 C406 1.214 . S
H379 C407 0.929 . S
H380 C408 0.929 . S
H381 C409 0.930 . S
H382 C410 0.929 . S
H383 C412 0.930 . S
H384 C389 0.930 . S
H385 C393 0.930 . S
O386 Co355 2.037 . S
O386 C406 1.234 . S
C387 O361 1.269 . S
C387 O362 1.257 . S
C388 H363 0.930 . S
C388 C391 1.388 . S
C388 C393 1.418 . S
C389 H384 0.930 . S
C389 C392 1.404 . S
C389 C393 1.353 . S
N390 Co355 2.145 . S
N390 C391 1.397 . S
N390 C392 1.334 . S
C391 H372 0.929 . S
C391 C388 1.388 . S
C391 N390 1.397 . S
C392 H373 0.929 . S
C392 C389 1.404 . S
C392 N390 1.334 . S
C393 H385 0.930 . S
C393 C388 1.418 . S
C393 C389 1.353 . S
C394 H364 0.930 . S
C394 N395 1.330 . S
C394 C396 1.446 . S
N395 Co354 2.151 . S
N395 C394 1.330 . S
N395 C399 1.418 . S
C396 H375 0.929 . S
C396 C394 1.446 . S
C396 C397 1.332 . S
C397 H377 0.931 . S
C397 C396 1.332 . S
C397 C398 1.267 . S
C398 H366 0.929 . S
C398 C397 1.267 . S
C398 C399 1.251 . S
C399 H369 0.929 . S
C399 N395 1.418 . S
C399 C398 1.251 . S
C400 H367 0.930 . S
C400 C402 1.406 . S
C400 C405 1.261 . S
C401 H368 0.930 . S
C401 N403 1.325 . S
C401 C404 1.357 . S
C402 H370 0.928 . S
C402 C400 1.406 . S
C402 N403 1.261 . S
N403 Co354 2.214 . S
N403 C401 1.325 . S
N403 C402 1.261 . S
C404 H374 0.931 . S
C404 C401 1.357 . S
C404 C405 1.312 . S
C405 H376 0.930 . S
C405 C400 1.261 . S
C405 C404 1.312 . S
C406 O378 1.214 . S
C406 O386 1.234 . S
C407 H379 0.929 . S
C407 C410 1.391 . S
C407 C412 1.391 . S
C408 H380 0.929 . S
C408 C409 1.390 . S
C408 N411 1.391 . S
C409 H381 0.930 . S
C409 C408 1.390 . S
C409 C410 1.392 . S
C410 H382 0.929 . S
C410 C407 1.391 . S
C410 C409 1.392 . S
N411 Co355 2.257 . S
N411 C408 1.391 . S
N411 C412 1.388 . S
C412 H383 0.930 . S
C412 C407 1.391 . S
C412 N411 1.388 . S
Co413 O415 2.143 . S
Co413 O421 2.074 . S
Co413 O424 2.093 . S
Co413 O437 2.097 . S
Co413 N454 2.151 . S
Co413 N462 2.214 1_565 S
Co414 O415 2.160 . S
Co414 O420 2.058 . S
Co414 O430 2.057 . S
Co414 O445 2.037 . S
Co414 N449 2.145 . S
Co414 N470 2.257 . S
O415 Co413 2.143 . S
O415 Co414 2.160 . S
C416 O417 1.278 . S
C416 O424 1.224 . S
O417 C416 1.278 . S
C418 O419 1.245 . S
C418 O430 1.232 . S
O419 C418 1.245 . S
O420 Co414 2.058 . S
O420 C446 1.269 . S
O421 Co413 2.074 . S
O421 C446 1.257 . S
H422 C447 0.930 . S
H423 C453 0.930 . S
O424 Co413 2.093 . S
O424 C416 1.224 . S
H425 C457 0.929 . S
H426 C459 0.930 . S
H427 C460 0.930 . S
H428 C458 0.929 1_545 S
H429 C461 0.928 . S
O430 Co414 2.057 . S
O430 C418 1.232 . S
H431 C450 0.929 . S
H432 C451 0.929 . S
H433 C463 0.931 . S
H434 C455 0.929 . S
H435 C464 0.930 . S
H436 C456 0.931 . S
O437 Co413 2.097 . S
O437 C465 1.214 . S
H438 C466 0.929 . S
H439 C467 0.929 . S
H440 C468 0.930 . S
H441 C469 0.929 . S
H442 C471 0.930 . S
H443 C448 0.930 . S
H444 C452 0.930 . S
O445 Co414 2.037 . S
O445 C465 1.234 . S
C446 O420 1.269 . S
C446 O421 1.257 . S
C447 H422 0.930 . S
C447 C450 1.388 . S
C447 C452 1.418 . S
C448 H443 0.930 . S
C448 C451 1.404 1_655 S
C448 C452 1.353 . S
N449 Co414 2.145 . S
N449 C450 1.397 1_455 S
N449 C451 1.334 . S
C450 H431 0.929 . S
C450 C447 1.388 . S
C450 N449 1.397 1_655 S
C451 H432 0.929 . S
C451 C448 1.404 1_455 S
C451 N449 1.334 . S
C452 H444 0.930 . S
C452 C447 1.418 . S
C452 C448 1.353 . S
C453 H423 0.930 . S
C453 N454 1.330 . S
C453 C455 1.446 . S
N454 Co413 2.151 . S
N454 C453 1.330 . S
N454 C458 1.418 . S
C455 H434 0.929 . S
C455 C453 1.446 . S
C455 C456 1.332 . S
C456 H436 0.931 . S
C456 C455 1.332 . S
C456 C457 1.267 1_565 S
C457 H425 0.929 . S
C457 C456 1.267 1_545 S
C457 C458 1.251 1_545 S
C458 H428 0.929 1_565 S
C458 N454 1.418 . S
C458 C457 1.251 1_565 S
C459 H426 0.930 . S
C459 C461 1.406 . S
C459 C464 1.261 . S
C460 H427 0.930 . S
C460 N462 1.325 . S
C460 C463 1.357 . S
C461 H429 0.928 . S
C461 C459 1.406 . S
C461 N462 1.261 . S
N462 Co413 2.214 1_545 S
N462 C460 1.325 . S
N462 C461 1.261 . S
C463 H433 0.931 . S
C463 C460 1.357 . S
C463 C464 1.312 . S
C464 H435 0.930 . S
C464 C459 1.261 . S
C464 C463 1.312 . S
C465 O437 1.214 . S
C465 O445 1.234 . S
C466 H438 0.929 . S
C466 C469 1.391 . S
C466 C471 1.391 . S
C467 H439 0.929 . S
C467 C468 1.390 . S
C467 N470 1.391 . S
C468 H440 0.930 . S
C468 C467 1.390 . S
C468 C469 1.392 . S
C469 H441 0.929 . S
C469 C466 1.391 . S
C469 C468 1.392 . S
N470 Co414 2.257 . S
N470 C467 1.391 . S
N470 C471 1.388 . S
C471 H442 0.930 . S
C471 C466 1.391 . S
C471 N470 1.388 . S
H472 C478 0.930 . S
H473 C482 0.930 . S
H474 C487 0.929 . S
H475 C485 0.929 . S
H476 C480 0.929 . S
H477 C486 0.929 . S
C478 H472 0.930 . S
C478 C479 1.367 . S
C478 C486 1.378 . S
C479 C478 1.367 . S
C479 C487 1.433 . S
C480 H476 0.929 . S
C480 C482 1.378 . S
C480 C484 1.350 . S
C481 C484 1.463 . S
C481 C486 1.350 . S
C481 N489 1.427 . S
C482 H473 0.930 . S
C482 C480 1.378 . S
C482 C483 1.367 . S
C483 C482 1.367 . S
C483 C485 1.433 . S
C484 C480 1.350 . S
C484 C481 1.463 . S
C484 N488 1.427 . S
C485 H475 0.929 . S
C485 C483 1.433 . S
C485 N488 1.384 . S
C486 H477 0.929 . S
C486 C478 1.378 . S
C486 C481 1.350 . S
C487 H474 0.929 . S
C487 C479 1.433 . S
C487 N489 1.384 . S
N488 C484 1.427 . S
N488 C485 1.384 . S
N489 C481 1.427 . S
N489 C487 1.384 . S
H490 C496 0.930 . S
H491 C500 0.930 . S
H492 C505 0.929 1_565 S
H493 C503 0.929 . S
H494 C498 0.929 . S
H495 C504 0.929 . S
C496 H490 0.930 . S
C496 C497 1.367 . S
C496 C504 1.378 1_655 S
C497 C496 1.367 . S
C497 C505 1.433 1_655 S
C498 H494 0.929 . S
C498 C500 1.378 . S
C498 C502 1.350 . S
C499 C502 1.463 1_545 S
C499 C504 1.350 . S
C499 N507 1.427 1_545 S
C500 H491 0.930 . S
C500 C498 1.378 . S
C500 C501 1.367 . S
C501 C500 1.367 . S
C501 C503 1.433 . S
C502 C498 1.350 . S
C502 C499 1.463 1_565 S
C502 N506 1.428 1_565 S
C503 H493 0.929 . S
C503 C501 1.433 . S
C503 N506 1.384 1_565 S
C504 H495 0.929 . S
C504 C496 1.378 1_455 S
C504 C499 1.350 . S
C505 H492 0.929 1_545 S
C505 C497 1.433 1_455 S
C505 N507 1.384 1_545 S
N506 C502 1.428 1_545 S
N506 C503 1.384 1_545 S
N507 C499 1.427 1_565 S
N507 C505 1.384 1_565 S
H508 C514 0.930 . S
H509 C518 0.930 . S
H510 C523 0.929 . S
H511 C521 0.929 . S
H512 C516 0.929 . S
H513 C522 0.929 . S
C514 H508 0.930 . S
C514 C515 1.367 . S
C514 C522 1.378 . S
C515 C514 1.367 . S
C515 C523 1.433 . S
C516 H512 0.929 . S
C516 C518 1.378 1_655 S
C516 C520 1.350 . S
C517 C520 1.463 . S
C517 C522 1.350 . S
C517 N525 1.427 . S
C518 H509 0.930 . S
C518 C516 1.378 1_455 S
C518 C519 1.367 . S
C519 C518 1.367 . S
C519 C521 1.433 . S
C520 C516 1.350 . S
C520 C517 1.463 . S
C520 N524 1.427 . S
C521 H511 0.929 . S
C521 C519 1.433 . S
C521 N524 1.384 1_455 S
C522 H513 0.929 . S
C522 C514 1.378 . S
C522 C517 1.350 . S
C523 H510 0.929 . S
C523 C515 1.433 . S
C523 N525 1.384 . S
N524 C520 1.427 . S
N524 C521 1.384 1_655 S
N525 C517 1.427 . S
N525 C523 1.384 . S
H526 C532 0.930 1_565 S
H527 C536 0.930 . S
H528 C541 0.929 . S
H529 C539 0.929 . S
H530 C534 0.929 . S
H531 C540 0.929 . S
C532 H526 0.930 1_545 S
C532 C533 1.367 . S
C532 C540 1.378 1_545 S
C533 C532 1.367 . S
C533 C541 1.433 . S
C534 H530 0.929 . S
C534 C536 1.378 . S
C534 C538 1.350 1_545 S
C535 C538 1.463 1_545 S
C535 C540 1.350 1_545 S
C535 N543 1.427 . S
C536 H527 0.930 . S
C536 C534 1.378 . S
C536 C537 1.367 1_545 S
C537 C536 1.367 1_565 S
C537 C539 1.433 . S
C538 C534 1.350 1_565 S
C538 C535 1.463 1_565 S
C538 N542 1.427 . S
C539 H529 0.929 . S
C539 C537 1.433 . S
C539 N542 1.384 . S
C540 H531 0.929 . S
C540 C532 1.378 1_565 S
C540 C535 1.350 1_565 S
C541 H528 0.929 . S
C541 C533 1.433 . S
C541 N543 1.384 . S
N542 C538 1.427 . S
N542 C539 1.384 . S
N543 C535 1.427 . S
N543 C541 1.384 . S
H544 C550 0.930 . S
H545 C554 0.930 . S
H546 C559 0.929 . S
H547 C557 0.929 . S
H548 C552 0.929 . S
H549 C558 0.929 . S
C550 H544 0.930 . S
C550 C551 1.367 . S
C550 C558 1.378 . S
C551 C550 1.367 . S
C551 C559 1.433 . S
C552 H548 0.929 . S
C552 C554 1.378 . S
C552 C556 1.350 . S
C553 C556 1.463 . S
C553 C558 1.350 . S
C553 N561 1.427 . S
C554 H545 0.930 . S
C554 C552 1.378 . S
C554 C555 1.367 . S
C555 C554 1.367 . S
C555 C557 1.433 . S
C556 C552 1.350 . S
C556 C553 1.463 . S
C556 N560 1.427 . S
C557 H547 0.929 . S
C557 C555 1.433 . S
C557 N560 1.384 . S
C558 H549 0.929 . S
C558 C550 1.378 . S
C558 C553 1.350 . S
C559 H546 0.929 . S
C559 C551 1.433 . S
C559 N561 1.384 . S
N560 C556 1.427 . S
N560 C557 1.384 . S
N561 C553 1.427 . S
N561 C559 1.384 . S
H562 C568 0.930 . S
H563 C572 0.930 . S
H564 C577 0.929 . S
H565 C575 0.929 . S
H566 C570 0.929 . S
H567 C576 0.929 . S
C568 H562 0.930 . S
C568 C569 1.367 . S
C568 C576 1.378 . S
C569 C568 1.367 . S
C569 C577 1.433 1_545 S
C570 H566 0.929 . S
C570 C572 1.378 1_655 S
C570 C574 1.350 . S
C571 C574 1.463 1_545 S
C571 C576 1.350 . S
C571 N579 1.427 1_545 S
C572 H563 0.930 . S
C572 C570 1.378 1_455 S
C572 C573 1.367 . S
C573 C572 1.367 . S
C573 C575 1.433 1_565 S
C574 C570 1.350 . S
C574 C571 1.463 1_565 S
C574 N578 1.427 1_565 S
C575 H565 0.929 . S
C575 C573 1.433 1_545 S
C575 N578 1.384 1_455 S
C576 H567 0.929 . S
C576 C568 1.378 . S
C576 C571 1.350 . S
C577 H564 0.929 . S
C577 C569 1.433 1_565 S
C577 N579 1.384 . S
N578 C574 1.427 1_545 S
N578 C575 1.384 1_655 S
N579 C571 1.427 1_565 S
N579 C577 1.384 . S
H580 C586 0.930 . S
H581 C590 0.930 . S
H582 C595 0.929 . S
H583 C593 0.929 . S
H584 C588 0.929 . S
H585 C594 0.929 . S
C586 H580 0.930 . S
C586 C587 1.367 . S
C586 C594 1.378 . S
C587 C586 1.367 . S
C587 C595 1.433 . S
C588 H584 0.929 . S
C588 C590 1.378 . S
C588 C592 1.350 . S
C589 C592 1.463 . S
C589 C594 1.350 . S
C589 N597 1.427 . S
C590 H581 0.930 . S
C590 C588 1.378 . S
C590 C591 1.367 1_455 S
C591 C590 1.367 1_655 S
C591 C593 1.433 . S
C592 C588 1.350 . S
C592 C589 1.463 . S
C592 N596 1.427 . S
C593 H583 0.929 . S
C593 C591 1.433 . S
C593 N596 1.384 1_655 S
C594 H585 0.929 . S
C594 C586 1.378 . S
C594 C589 1.350 . S
C595 H582 0.929 . S
C595 C587 1.433 . S
C595 N597 1.384 . S
N596 C592 1.427 . S
N596 C593 1.384 1_455 S
N597 C589 1.427 . S
N597 C595 1.384 . S
H598 C604 0.930 . S
H599 C608 0.930 . S
H600 C613 0.929 . S
H601 C611 0.929 . S
H602 C606 0.929 1_565 S
H603 C612 0.929 . S
C604 H598 0.930 . S
C604 C605 1.367 . S
C604 C612 1.378 . S
C605 C604 1.367 . S
C605 C613 1.433 . S
C606 H602 0.929 1_545 S
C606 C608 1.378 . S
C606 C610 1.350 . S
C607 C610 1.463 1_565 S
C607 C612 1.350 . S
C607 N615 1.427 . S
C608 H599 0.930 . S
C608 C606 1.378 . S
C608 C609 1.367 . S
C609 C608 1.367 . S
C609 C611 1.433 . S
C610 C606 1.350 . S
C610 C607 1.463 1_545 S
C610 N614 1.427 . S
C611 H601 0.929 . S
C611 C609 1.433 . S
C611 N614 1.384 . S
C612 H603 0.929 . S
C612 C604 1.378 . S
C612 C607 1.350 . S
C613 H600 0.929 . S
C613 C605 1.433 . S
C613 N615 1.384 . S
N614 C610 1.427 . S
N614 C611 1.384 . S
N615 C607 1.427 . S
N615 C613 1.384 . S
H616 C622 0.930 . S
H617 C626 0.930 . S
H618 C631 0.929 . S
H619 C629 0.929 . S
H620 C624 0.929 . S
H621 C630 0.929 . S
C622 H616 0.930 . S
C622 C623 1.367 . S
C622 C630 1.378 . S
C623 C622 1.367 . S
C623 C631 1.433 . S
C624 H620 0.929 . S
C624 C626 1.378 . S
C624 C628 1.350 . S
C625 C628 1.463 1_455 S
C625 C630 1.350 . S
C625 N633 1.427 . S
C626 H617 0.930 . S
C626 C624 1.378 . S
C626 C627 1.367 . S
C627 C626 1.367 . S
C627 C629 1.433 . S
C628 C624 1.350 . S
C628 C625 1.463 1_655 S
C628 N632 1.427 . S
C629 H619 0.929 . S
C629 C627 1.433 . S
C629 N632 1.384 . S
C630 H621 0.929 . S
C630 C622 1.378 . S
C630 C625 1.350 . S
C631 H618 0.929 . S
C631 C623 1.433 . S
C631 N633 1.384 . S
N632 C628 1.427 . S
N632 C629 1.384 . S
N633 C625 1.427 . S
N633 C631 1.384 . S
H634 C640 0.930 1_545 S
H635 C644 0.930 1_565 S
H636 C649 0.929 . S
H637 C647 0.929 . S
H638 C642 0.929 . S
H639 C648 0.929 . S
C640 H634 0.930 1_565 S
C640 C641 1.367 . S
C640 C648 1.378 1_565 S
C641 C640 1.367 . S
C641 C649 1.433 . S
C642 H638 0.929 . S
C642 C644 1.378 1_565 S
C642 C646 1.350 1_565 S
C643 C646 1.463 1_565 S
C643 C648 1.350 1_565 S
C643 N651 1.427 . S
C644 H635 0.930 1_545 S
C644 C642 1.378 1_545 S
C644 C645 1.367 . S
C645 C644 1.367 . S
C645 C647 1.433 . S
C646 C642 1.350 1_545 S
C646 C643 1.463 1_545 S
C646 N650 1.427 . S
C647 H637 0.929 . S
C647 C645 1.433 . S
C647 N650 1.384 . S
C648 H639 0.929 . S
C648 C640 1.378 1_545 S
C648 C643 1.350 1_545 S
C649 H636 0.929 . S
C649 C641 1.433 . S
C649 N651 1.384 . S
N650 C646 1.427 . S
N650 C647 1.384 . S
N651 C643 1.427 . S
N651 C649 1.384 . S
H652 C658 0.930 . S
H653 C662 0.930 . S
H654 C667 0.929 . S
H655 C665 0.929 . S
H656 C660 0.929 . S
H657 C666 0.929 . S
C658 H652 0.930 . S
C658 C659 1.367 . S
C658 C666 1.378 . S
C659 C658 1.367 . S
C659 C667 1.433 . S
C660 H656 0.929 . S
C660 C662 1.378 . S
C660 C664 1.350 . S
C661 C664 1.463 1_554 S
C661 C666 1.350 . S
C661 N669 1.427 . S
C662 H653 0.930 . S
C662 C660 1.378 . S
C662 C663 1.367 . S
C663 C662 1.367 . S
C663 C665 1.433 . S
C664 C660 1.350 . S
C664 C661 1.463 1_556 S
C664 N668 1.427 . S
C665 H655 0.929 . S
C665 C663 1.433 . S
C665 N668 1.384 . S
C666 H657 0.929 . S
C666 C658 1.378 . S
C666 C661 1.350 . S
C667 H654 0.929 . S
C667 C659 1.433 . S
C667 N669 1.384 . S
N668 C664 1.427 . S
N668 C665 1.384 . S
N669 C661 1.427 . S
N669 C667 1.384 . S
H670 C676 0.930 1_655 S
H671 C680 0.930 1_455 S
H672 C685 0.929 . S
H673 C683 0.929 . S
H674 C678 0.929 . S
H675 C684 0.929 . S
C676 H670 0.930 1_455 S
C676 C677 1.367 . S
C676 C684 1.378 1_455 S
C677 C676 1.367 . S
C677 C685 1.433 . S
C678 H674 0.929 . S
C678 C680 1.378 1_455 S
C678 C682 1.350 1_455 S
C679 C682 1.463 1_466 S
C679 C684 1.350 1_455 S
C679 N687 1.427 . S
C680 H671 0.930 1_655 S
C680 C678 1.378 1_655 S
C680 C681 1.367 . S
C681 C680 1.367 . S
C681 C683 1.433 . S
C682 C678 1.350 1_655 S
C682 C679 1.463 1_644 S
C682 N686 1.427 . S
C683 H673 0.929 . S
C683 C681 1.433 . S
C683 N686 1.384 . S
C684 H675 0.929 . S
C684 C676 1.378 1_655 S
C684 C679 1.350 1_655 S
C685 H672 0.929 . S
C685 C677 1.433 . S
C685 N687 1.384 . S
N686 C682 1.427 . S
N686 C683 1.384 . S
N687 C679 1.427 . S
N687 C685 1.384 . S
H688 C694 0.930 . S
H689 C698 0.930 . S
H690 C703 0.929 . S
H691 C701 0.929 . S
H692 C696 0.929 . S
H693 C702 0.929 . S
C694 H688 0.930 . S
C694 C695 1.367 . S
C694 C702 1.378 . S
C695 C694 1.367 . S
C695 C703 1.433 . S
C696 H692 0.929 . S
C696 C698 1.378 . S
C696 C700 1.350 . S
C697 C700 1.463 . S
C697 C702 1.350 . S
C697 N705 1.427 . S
C698 H689 0.930 . S
C698 C696 1.378 . S
C698 C699 1.367 . S
C699 C698 1.367 . S
C699 C701 1.433 . S
C700 C696 1.350 . S
C700 C697 1.463 . S
C700 N704 1.427 . S
C701 H691 0.929 . S
C701 C699 1.433 . S
C701 N704 1.384 . S
C702 H693 0.929 . S
C702 C694 1.378 . S
C702 C697 1.350 . S
C703 H690 0.929 . S
C703 C695 1.433 . S
C703 N705 1.384 . S
N704 C700 1.427 . S
N704 C701 1.384 . S
N705 C697 1.427 . S
N705 C703 1.384 . S
H706 C712 0.930 . S
H707 C716 0.930 . S
H708 C721 0.929 . S
H709 C719 0.929 . S
H710 C714 0.929 . S
H711 C720 0.929 . S
C712 H706 0.930 . S
C712 C713 1.367 . S
C712 C720 1.378 . S
C713 C712 1.367 . S
C713 C721 1.433 . S
C714 H710 0.929 . S
C714 C716 1.378 . S
C714 C718 1.350 . S
C715 C718 1.463 . S
C715 C720 1.350 . S
C715 N723 1.427 . S
C716 H707 0.930 . S
C716 C714 1.378 . S
C716 C717 1.367 . S
C717 C716 1.367 . S
C717 C719 1.433 . S
C718 C714 1.350 . S
C718 C715 1.463 . S
C718 N722 1.427 . S
C719 H709 0.929 . S
C719 C717 1.433 . S
C719 N722 1.384 . S
C720 H711 0.929 . S
C720 C712 1.378 . S
C720 C715 1.350 . S
C721 H708 0.929 . S
C721 C713 1.433 . S
C721 N723 1.384 . S
N722 C718 1.427 . S
N722 C719 1.384 . S
N723 C715 1.427 . S
N723 C721 1.384 . S
H724 C730 0.930 . S
H725 C734 0.930 . S
H726 C739 0.929 . S
H727 C737 0.929 . S
H728 C732 0.929 . S
H729 C738 0.929 . S
C730 H724 0.930 . S
C730 C731 1.367 . S
C730 C738 1.378 . S
C731 C730 1.367 . S
C731 C739 1.433 . S
C732 H728 0.929 . S
C732 C734 1.378 . S
C732 C736 1.350 . S
C733 C736 1.463 . S
C733 C738 1.350 . S
C733 N741 1.427 . S
C734 H725 0.930 . S
C734 C732 1.378 . S
C734 C735 1.367 . S
C735 C734 1.367 . S
C735 C737 1.433 . S
C736 C732 1.350 . S
C736 C733 1.463 . S
C736 N740 1.427 . S
C737 H727 0.929 . S
C737 C735 1.433 . S
C737 N740 1.384 . S
C738 H729 0.929 . S
C738 C730 1.378 . S
C738 C733 1.350 . S
C739 H726 0.929 . S
C739 C731 1.433 . S
C739 N741 1.384 . S
N740 C736 1.427 . S
N740 C737 1.384 . S
N741 C733 1.427 . S
N741 C739 1.384 . S
H742 C748 0.930 . S
H743 C752 0.930 . S
H744 C757 0.929 . S
H745 C755 0.929 . S
H746 C750 0.929 . S
H747 C756 0.929 . S
C748 H742 0.930 . S
C748 C749 1.367 . S
C748 C756 1.378 . S
C749 C748 1.367 . S
C749 C757 1.433 . S
C750 H746 0.929 . S
C750 C752 1.378 . S
C750 C754 1.350 . S
C751 C754 1.463 . S
C751 C756 1.350 . S
C751 N759 1.427 . S
C752 H743 0.930 . S
C752 C750 1.378 . S
C752 C753 1.367 . S
C753 C752 1.367 . S
C753 C755 1.433 . S
C754 C750 1.350 . S
C754 C751 1.463 . S
C754 N758 1.427 . S
C755 H745 0.929 . S
C755 C753 1.433 . S
C755 N758 1.384 . S
C756 H747 0.929 . S
C756 C748 1.378 . S
C756 C751 1.350 . S
C757 H744 0.929 . S
C757 C749 1.433 . S
C757 N759 1.384 . S
N758 C754 1.427 . S
N758 C755 1.384 . S
N759 C751 1.427 . S
N759 C757 1.384 . S
C479 C3 1.563 . S
C483 C170 1.565 . S
C497 C229 1.560 . S
C501 C62 1.563 . S
C515 C121 1.566 . S
C519 C52 1.560 . S
C533 C180 1.566 . S
C537 C111 1.566 . S
C551 C406 1.566 . S
C555 C239 1.564 . S
C569 C298 1.565 . S
C573 C465 1.559 . S
C587 C357 1.567 . S
C591 C288 1.566 . S
C605 C416 1.562 . S
C609 C347 1.561 . S
C623 C33 1.596 . S
C627 C269 1.596 . S
C641 C92 1.589 . S
C645 C328 1.589 . S
C659 C151 1.590 . S
C663 C387 1.590 . S
C677 C446 1.591 . S
C681 C210 1.591 . S
C695 C5 1.651 . S
C699 C64 1.647 . S
C713 C182 1.646 . S
C717 C123 1.648 . S
C731 C300 1.650 . S
C735 C241 1.646 . S
C749 C359 1.647 . S
C753 C418 1.651 . S
