# Generated by pormake.
# Topology kag, (6)-cn, num edge types: 1
# Building blocks:
#     Node 0, Type 0, BuildingBlock: BETFEN_clean_sbu_0, # of connection points: 6
#     Node 1, Type 0, BuildingBlock: BETFEN_clean_sbu_0, # of connection points: 6
#     Node 2, Type 0, BuildingBlock: BETFEN_clean_sbu_0, # of connection points: 6
#     Edge 3, Type (0, 0), BuildingBlock: XIVTED_clean_linker_0, # of connection points: 2
#     Edge 4, Type (0, 0), BuildingBlock: XIVTED_clean_linker_0, # of connection points: 2
#     Edge 5, Type (0, 0), BuildingBlock: XIVTED_clean_linker_0, # of connection points: 2
#     Edge 6, Type (0, 0), BuildingBlock: XIVTED_clean_linker_0, # of connection points: 2
#     Edge 7, Type (0, 0), BuildingBlock: XIVTED_clean_linker_0, # of connection points: 2
#     Edge 8, Type (0, 0), BuildingBlock: XIVTED_clean_linker_0, # of connection points: 2
#     Edge 9, Type (0, 0), BuildingBlock: XIVTED_clean_linker_0, # of connection points: 2
#     Edge 10, Type (0, 0), BuildingBlock: XIVTED_clean_linker_0, # of connection points: 2
#     Edge 11, Type (0, 0), BuildingBlock: XIVTED_clean_linker_0, # of connection points: 2
# Relax obj value: 0.077
# Max RMSD: 0.195
# Mean RMSD: 0.102
data_MOF--net-kag--node1-BETFEN_clean_sbu_0--edge1-XIVTED_clean_linker_0
_symmetry_space_group_name_H-M    P1
_symmetry_Int_Tables_number       1
_symmetry_cell_setting            triclinic
loop_
_symmetry_equiv_pos_as_xyz
'x, y, z'
_cell_length_a     31.980479
_cell_length_b     42.787111
_cell_length_c     14.868076
_cell_angle_alpha  94.838466
_cell_angle_beta   90.496424
_cell_angle_gamma 97.100491
loop_
_atom_site_label
_atom_site_type_symbol
_atom_site_fract_x
_atom_site_fract_y
_atom_site_fract_z
_atom_type_partial_charge
Pr0 Pr 1.04805 0.46967 0.01131 0.0
Pr1 Pr 0.05998 0.54763 0.99025 0.0
C2 C 1.03402 0.41302 0.07869 0.0
C3 C 1.00694 0.38263 0.06172 0.0
C4 C 0.99432 0.37029 0.97385 0.0
C5 C 0.96806 0.34155 0.95978 0.0
C6 C 0.95377 0.32472 0.03336 0.0
C7 C 0.96636 0.33742 0.12124 0.0
C8 C 0.9927 0.36605 0.13515 0.0
C9 C 1.04623 0.4831 0.8277 0.0
C10 C 0.9625 0.50732 0.99041 0.0
C11 C 0.07397 0.60432 0.92288 0.0
C12 C 0.10095 0.63477 0.93974 0.0
C13 C 0.11474 0.64664 0.0273 0.0
C14 C 0.14084 0.67547 0.04127 0.0
C15 C 0.15379 0.69287 0.96788 0.0
C16 C 0.14002 0.68063 0.88029 0.0
C17 C 0.11386 0.65191 0.86649 0.0
C18 C 0.06188 0.53421 0.17385 0.0
C19 C 0.14547 0.50983 0.0115 0.0
O20 O 1.01508 0.43725 0.10815 0.0
O21 O 0.06343 0.41987 0.01992 0.0
O22 O 1.05001 0.50218 0.89752 0.0
O23 O 1.04258 0.45449 0.85294 0.0
O24 O 0.9865 0.53318 0.96883 0.0
O25 O 0.97841 0.48208 0.01526 0.0
O26 O 0.09298 0.58011 0.89353 0.0
O27 O 1.0446 0.59746 0.98172 0.0
O28 O 0.05798 0.51513 0.10404 0.0
O29 O 0.06557 0.56282 0.1486 0.0
O30 O 0.12134 0.48408 0.03322 0.0
O31 O 0.12972 0.53513 0.98641 0.0
H32 H 1.00474 0.38285 0.91616 0.0
H33 H 0.95936 0.33234 0.89119 0.0
H34 H 0.95538 0.32547 0.17958 0.0
H35 H 1.00178 0.37538 0.20351 0.0
H36 H 0.10535 0.63364 0.08481 0.0
H37 H 0.15044 0.68429 0.10968 0.0
H38 H 0.14995 0.69302 0.82202 0.0
H39 H 0.10386 0.64295 0.79834 0.0
Pr40 Pr 0.59936 0.01336 0.98499 0.0
Pr41 Pr 0.5063 1.00547 0.01357 0.0
C42 C 0.67911 0.03123 0.93532 0.0
C43 C 0.70799 0.06098 0.93875 0.0
C44 C 0.75066 0.06099 0.96104 0.0
C45 C 0.77803 0.08927 0.96891 0.0
C46 C 0.76319 0.11815 0.95479 0.0
C47 C 0.72041 0.11795 0.9315 0.0
C48 C 0.69312 0.08965 0.9236 0.0
C49 C 0.57752 1.00863 0.16539 0.0
C50 C 0.54944 0.078 0.01426 0.0
C51 C 0.42692 0.98735 0.065 0.0
C52 C 0.39821 0.95748 0.06117 0.0
C53 C 0.3555 0.95732 0.03902 0.0
C54 C 0.32826 0.92896 0.03124 0.0
C55 C 0.34327 0.90013 0.04519 0.0
C56 C 0.38612 0.90048 0.06826 0.0
C57 C 0.41326 0.92886 0.07629 0.0
C58 C 0.52813 0.01032 0.83345 0.0
C59 C 0.55632 0.94071 0.98237 0.0
O60 O 0.64661 0.02858 0.87992 0.0
O61 O 0.66986 0.02023 0.01297 0.0
O62 O 0.56067 0.02506 0.11192 0.0
O63 O 0.60708 0.99447 0.12668 0.0
O64 O 0.5174 0.06025 0.04685 0.0
O65 O 0.58155 0.06514 0.978 0.0
O66 O 0.45977 0.98979 0.11939 0.0
O67 O 0.4356 0.99888 0.98773 0.0
O68 O 0.54497 0.99378 0.88671 0.0
O69 O 0.49848 0.02442 0.87213 0.0
O70 O 0.58898 0.95865 0.95294 0.0
O71 O 0.52352 0.9533 0.01635 0.0
H72 H 0.76275 0.03911 0.97309 0.0
H73 H 0.81088 0.08848 0.98572 0.0
H74 H 0.70774 0.13974 0.9213 0.0
H75 H 0.66029 0.09021 0.90659 0.0
H76 H 0.34324 0.97915 0.02715 0.0
H77 H 0.29536 0.92967 0.01471 0.0
H78 H 0.39896 0.87875 0.07833 0.0
H79 H 0.44611 0.92838 0.0935 0.0
Pr80 Pr 0.5624 0.54455 0.99249 0.0
Pr81 Pr 0.54581 0.4742 0.01017 0.0
C82 C 0.56999 0.60503 0.94736 0.0
C83 C 0.56206 0.63852 0.9656 0.0
C84 C 0.59065 0.66005 0.01951 0.0
C85 C 0.58744 0.69249 0.02551 0.0
C86 C 0.55563 0.7044 0.9776 0.0
C87 C 0.52606 0.68278 0.92631 0.0
C88 C 0.52939 0.65026 0.91995 0.0
C89 C 0.56378 0.52888 0.17224 0.0
C90 C 0.46286 0.51192 0.01049 0.0
C91 C 0.53734 0.41412 0.05785 0.0
C92 C 0.54704 0.38105 0.05224 0.0
C93 C 0.55185 0.36376 0.96909 0.0
C94 C 0.55471 0.33118 0.9654 0.0
C95 C 0.55239 0.31519 0.04466 0.0
C96 C 0.54906 0.33291 0.12788 0.0
C97 C 0.54647 0.36541 0.13152 0.0
C98 C 0.54359 0.49019 0.83071 0.0
C99 C 0.64525 0.50659 0.98778 0.0
O100 O 0.53953 0.58347 0.9159 0.0
O101 O 0.59666 0.59411 1.00003 0.0
O102 O 0.53746 0.51631 0.11218 0.0
O103 O 0.58885 0.55155 0.14174 0.0
O104 O 0.47875 0.48817 0.04362 0.0
O105 O 0.4879 0.53479 0.97638 0.0
O106 O 0.56325 0.43679 0.10028 0.0
O107 O 0.51666 0.42328 0.99067 0.0
O108 O 0.5704 0.50246 0.89019 0.0
O109 O 0.51825 0.46774 0.8617 0.0
O110 O 0.62893 0.53031 0.95551 0.0
O111 O 0.62058 0.48358 0.02223 0.0
H112 H 0.6165 0.652 0.05493 0.0
H113 H 0.61037 0.70834 0.06674 0.0
H114 H 0.50136 0.6911 0.88791 0.0
H115 H 0.50725 0.63446 0.87666 0.0
H116 H 0.55207 0.3752 0.90679 0.0
H117 H 0.55704 0.3183 0.90011 0.0
H118 H 0.54789 0.32155 0.19037 0.0
H119 H 0.54253 0.37818 0.19638 0.0
H120 H 1.04348 0.44192 0.67689 0.0
H121 H 0.06479 0.5754 0.32466 0.0
H122 H 0.05297 0.54163 0.75822 0.0
H123 H 0.05514 0.47569 0.24333 0.0
H124 H 0.06084 0.56356 0.48275 0.0
H125 H 1.04748 0.45376 0.51881 0.0
C126 C 1.04642 0.46639 0.66157 0.0
C127 C 1.04808 0.49083 0.73147 0.0
C128 C 0.05953 0.54419 0.43059 0.0
C129 C 0.05275 0.50466 0.54907 0.0
C130 C 0.06183 0.55093 0.33998 0.0
C131 C 0.06011 0.52649 0.27009 0.0
C132 C 0.05549 0.51266 0.45249 0.0
C133 C 0.05631 0.49528 0.2946 0.0
C134 C 1.04874 0.47313 0.57096 0.0
C135 C 0.05185 0.52204 0.70695 0.0
N136 N 0.05411 0.48928 0.38347 0.0
N137 N 0.05408 0.52804 0.61808 0.0
H138 H 0.52093 0.04025 0.26309 0.0
H139 H 0.58478 0.9788 0.73572 0.0
H140 H 0.61515 0.97757 0.29052 0.0
H141 H 0.49053 0.04146 0.7084 0.0
H142 H 0.59663 0.97818 0.57288 0.0
H143 H 0.50911 0.04092 0.42598 0.0
C144 C 0.53909 0.02661 0.30342 0.0
C145 C 0.56915 1.0089 0.26331 0.0
C146 C 0.57335 0.99208 0.60245 0.0
C147 C 0.55588 0.00954 0.44977 0.0
C148 C 0.56662 0.99244 0.69543 0.0
C149 C 0.53654 0.01012 0.73556 0.0
C150 C 0.54984 0.00955 0.54912 0.0
C151 C 0.51396 0.02743 0.6802 0.0
C152 C 0.53238 0.02701 0.39641 0.0
C153 C 0.59173 0.99161 0.3187 0.0
N154 N 0.52102 0.02668 0.58997 0.0
N155 N 0.58468 0.99239 0.40894 0.0
H156 H 0.49253 0.46143 0.69169 0.0
H157 H 0.61425 0.55793 0.31165 0.0
H158 H 0.59955 0.53234 0.74907 0.0
H159 H 0.50799 0.48641 0.25344 0.0
H160 H 0.60934 0.5489 0.47175 0.0
H161 H 0.49731 0.47044 0.53148 0.0
C162 C 0.51704 0.47894 0.67054 0.0
C163 C 0.54577 0.4961 0.73384 0.0
C164 C 0.58707 0.53515 0.42413 0.0
C165 C 0.55149 0.50657 0.5501 0.0
C166 C 0.58987 0.54029 0.3326 0.0
C167 C 0.5614 0.52297 0.26909 0.0
C168 C 0.55552 0.51247 0.45279 0.0
C169 C 0.53052 0.50035 0.30012 0.0
C170 C 0.51977 0.48406 0.57896 0.0
C171 C 0.5768 0.51854 0.70257 0.0
N172 N 0.52838 0.49579 0.38968 0.0
N173 N 0.57886 0.52309 0.61302 0.0
H174 H 0.19188 0.46394 0.06335 0.0
H175 H 0.41716 0.55793 0.95584 0.0
H176 H 0.20672 0.55678 0.96575 0.0
H177 H 0.40169 0.46772 0.06908 0.0
H178 H 0.34047 0.55794 0.95769 0.0
H179 H 0.2685 0.46489 0.06463 0.0
C180 C 0.21111 0.48458 0.0423 0.0
C181 C 0.19239 0.51031 0.01439 0.0
C182 C 0.35386 0.53817 0.98228 0.0
C183 C 0.28088 0.5115 0.01549 0.0
C184 C 0.39776 0.53814 0.98123 0.0
C185 C 0.41624 0.51279 0.01237 0.0
C186 C 0.32794 0.51261 0.01439 0.0
C187 C 0.38916 0.48783 0.04444 0.0
C188 C 0.25505 0.4851 0.04307 0.0
C189 C 0.21941 0.53635 0.9879 0.0
N190 N 0.34662 0.48836 0.04442 0.0
N191 N 0.26207 0.53623 0.98895 0.0
H192 H 0.82541 0.13658 0.08345 0.0
H193 H 0.8884 0.30808 0.91024 0.0
H194 H 0.7666 0.16885 0.85182 0.0
H195 H 0.95523 0.27143 0.12362 0.0
H196 H 0.84261 0.25778 0.88924 0.0
H197 H 0.8722 0.18636 0.10096 0.0
C198 C 0.82252 0.15401 0.03575 0.0
C199 C 0.79203 0.14838 0.96581 0.0
C200 C 0.86732 0.26074 0.9406 0.0
C201 C 0.84531 0.2058 0.98632 0.0
C202 C 0.89368 0.28943 0.95231 0.0
C203 C 0.92581 0.29412 0.01892 0.0
C204 C 0.87298 0.23651 0.99596 0.0
C205 C 0.93056 0.26917 0.07236 0.0
C206 C 0.84913 0.18255 0.04614 0.0
C207 C 0.78927 0.17223 0.90733 0.0
N208 N 0.90446 0.24152 0.05977 0.0
N209 N 0.81554 0.19985 0.91889 0.0
H210 H 0.62258 0.90654 0.94757 0.0
H211 H 0.48683 0.7375 0.98758 0.0
H212 H 0.4901 0.89506 0.00757 0.0
H213 H 0.62225 0.75095 0.96731 0.0
H214 H 0.48652 0.79472 0.98622 0.0
H215 H 0.6222 0.84925 0.94542 0.0
C216 C 0.59335 0.89202 0.96007 0.0
C217 C 0.55636 0.90581 0.97831 0.0
C218 C 0.51631 0.78515 0.98226 0.0
C219 C 0.55569 0.83995 0.97585 0.0
C220 C 0.51649 0.75243 0.98261 0.0
C221 C 0.55464 0.73926 0.97801 0.0
C222 C 0.55453 0.80497 0.9764 0.0
C223 C 0.59211 0.75996 0.97243 0.0
C224 C 0.5932 0.85926 0.95913 0.0
C225 C 0.51948 0.88564 0.99413 0.0
N226 N 0.59109 0.79164 0.97155 0.0
N227 N 0.52007 0.85383 0.99244 0.0
H228 H 0.90221 0.45976 0.0355 0.0
H229 H 0.70524 0.5512 0.92743 0.0
H230 H 0.9149 0.5528 0.93929 0.0
H231 H 0.69236 0.46115 0.04159 0.0
H232 H 0.78159 0.55115 0.92619 0.0
H233 H 0.82565 0.45896 0.0331 0.0
C234 C 0.88905 0.48006 0.01365 0.0
C235 C 0.91551 0.50644 0.9876 0.0
C236 C 0.76215 0.53134 0.95141 0.0
C237 C 0.82705 0.50557 0.98475 0.0
C238 C 0.71834 0.5313 0.95203 0.0
C239 C 0.69194 0.50611 0.98469 0.0
C240 C 0.78019 0.50598 0.98347 0.0
C241 C 0.71122 0.4811 0.01577 0.0
C242 C 0.84513 0.47955 0.01244 0.0
C243 C 0.8961 0.53193 0.96007 0.0
N244 N 0.75401 0.48169 0.01439 0.0
N245 N 0.85326 0.53084 0.95939 0.0
H246 H 0.22068 0.70923 0.0874 0.0
H247 H 0.28019 0.8817 0.91821 0.0
H248 H 0.15043 0.74671 0.88096 0.0
H249 H 0.34092 0.84913 0.14702 0.0
H250 H 0.23365 0.83181 0.90119 0.0
H251 H 0.26617 0.75968 0.10815 0.0
C252 C 0.21457 0.72809 0.04683 0.0
C253 C 0.18157 0.72358 0.9822 0.0
C254 C 0.25709 0.83558 0.95527 0.0
C255 C 0.23406 0.78139 0.00485 0.0
C256 C 0.28357 0.86419 0.96542 0.0
C257 C 0.31455 0.86979 0.0344 0.0
C258 C 0.26155 0.8122 0.01431 0.0
C259 C 0.3179 0.84581 0.09219 0.0
C260 C 0.24076 0.75687 0.05839 0.0
C261 C 0.17579 0.74882 0.93061 0.0
N262 N 0.29177 0.81811 0.08082 0.0
N263 N 0.20175 0.77655 0.94297 0.0
H264 H 0.50281 0.2729 0.13972 0.0
H265 H 0.6038 0.12091 0.93173 0.0
H266 H 0.6 0.27714 0.94011 0.0
H267 H 0.4959 0.1151 0.10442 0.0
H268 H 0.60476 0.17817 0.939 0.0
H269 H 0.50186 0.21553 0.13285 0.0
C270 C 0.52421 0.26183 0.09484 0.0
C271 C 0.55171 0.28007 0.04073 0.0
C272 C 0.58084 0.16442 0.97533 0.0
C273 C 0.55047 0.21399 0.03199 0.0
C274 C 0.58036 0.13161 0.97157 0.0
C275 C 0.54985 0.11296 0.01792 0.0
C276 C 0.55065 0.17898 0.02614 0.0
C277 C 0.52002 0.1284 0.06752 0.0
C278 C 0.52342 0.22897 0.09053 0.0
C279 C 0.57807 0.26414 0.98262 0.0
N280 N 0.52125 0.16044 0.07051 0.0
N281 N 0.5769 0.23213 0.98008 0.0
loop_
_geom_bond_atom_site_label_1
_geom_bond_atom_site_label_2
_geom_bond_distance
_geom_bond_site_symmetry_2
_ccdc_geom_bond_type
Pr0 C2 2.880 . S
Pr0 O20 2.562 1_556 S
Pr0 O21 2.490 . S
Pr0 O22 2.695 1_655 S
Pr0 O23 2.512 . S
Pr0 O25 2.437 . S
Pr0 O28 2.436 1_556 S
Pr0 O30 2.438 1_655 S
Pr1 C11 2.880 . S
Pr1 O22 2.436 1_554 S
Pr1 O24 2.438 1_455 S
Pr1 O26 2.562 1_554 S
Pr1 O27 2.490 . S
Pr1 O28 2.695 1_455 S
Pr1 O29 2.512 . S
Pr1 O31 2.437 . S
C2 Pr0 2.880 . S
C2 C3 1.491 . S
C2 O20 1.254 1_556 S
C2 O21 1.225 . S
C3 C2 1.491 . S
C3 C4 1.392 . S
C3 C8 1.356 1_556 S
C4 C3 1.392 . S
C4 C5 1.368 . S
C4 H32 0.929 . S
C5 C4 1.368 . S
C5 C6 1.386 . S
C5 H33 0.929 . S
C6 C5 1.386 . S
C6 C7 1.373 1_556 S
C7 C6 1.373 1_554 S
C7 C8 1.409 . S
C7 H34 0.931 . S
C8 C3 1.356 1_554 S
C8 C7 1.409 . S
C8 H35 0.930 . S
C9 O22 1.270 . S
C9 O23 1.248 1_455 S
C10 O24 1.267 1_556 S
C10 O25 1.278 . S
C11 Pr1 2.880 . S
C11 C12 1.491 . S
C11 O26 1.254 1_554 S
C11 O27 1.225 . S
C12 C11 1.491 . S
C12 C13 1.392 . S
C12 C17 1.356 1_554 S
C13 C12 1.392 . S
C13 C14 1.368 . S
C13 H36 0.929 . S
C14 C13 1.368 . S
C14 C15 1.386 . S
C14 H37 0.929 . S
C15 C14 1.386 . S
C15 C16 1.373 1_554 S
C16 C15 1.373 1_556 S
C16 C17 1.409 . S
C16 H38 0.931 . S
C17 C12 1.356 1_556 S
C17 C16 1.409 . S
C17 H39 0.930 . S
C18 O28 1.270 1_455 S
C18 O29 1.248 . S
C19 O30 1.267 1_554 S
C19 O31 1.278 . S
O20 Pr0 2.562 1_554 S
O20 C2 1.254 1_554 S
O21 Pr0 2.490 . S
O21 C2 1.225 . S
O22 Pr0 2.695 1_455 S
O22 Pr1 2.436 1_556 S
O22 C9 1.270 . S
O23 Pr0 2.512 . S
O23 C9 1.248 1_655 S
O24 Pr1 2.438 1_655 S
O24 C10 1.267 1_554 S
O25 Pr0 2.437 . S
O25 C10 1.278 . S
O26 Pr1 2.562 1_556 S
O26 C11 1.254 1_556 S
O27 Pr1 2.490 . S
O27 C11 1.225 . S
O28 Pr0 2.436 1_554 S
O28 Pr1 2.695 1_655 S
O28 C18 1.270 1_655 S
O29 Pr1 2.512 . S
O29 C18 1.248 . S
O30 Pr0 2.438 1_455 S
O30 C19 1.267 1_556 S
O31 Pr1 2.437 . S
O31 C19 1.278 . S
H32 C4 0.929 . S
H33 C5 0.929 . S
H34 C7 0.931 . S
H35 C8 0.930 . S
H36 C13 0.929 . S
H37 C14 0.929 . S
H38 C16 0.931 . S
H39 C17 0.930 . S
Pr40 C42 2.880 . S
Pr40 O60 2.562 1_554 S
Pr40 O61 2.490 . S
Pr40 O62 2.695 1_545 S
Pr40 O63 2.512 . S
Pr40 O65 2.437 . S
Pr40 O68 2.436 1_554 S
Pr40 O70 2.438 1_545 S
Pr41 C51 2.880 . S
Pr41 O62 2.436 1_556 S
Pr41 O64 2.438 1_565 S
Pr41 O66 2.562 1_556 S
Pr41 O67 2.490 . S
Pr41 O68 2.695 1_565 S
Pr41 O69 2.512 . S
Pr41 O71 2.437 . S
C42 Pr40 2.880 . S
C42 C43 1.491 1_554 S
C42 O60 1.254 1_554 S
C42 O61 1.225 . S
C43 C42 1.491 1_556 S
C43 C44 1.390 1_556 S
C43 C48 1.358 . S
C44 C43 1.390 1_554 S
C44 C45 1.368 . S
C44 H72 0.929 . S
C45 C44 1.368 . S
C45 C46 1.386 1_554 S
C45 H73 0.929 . S
C46 C45 1.386 1_556 S
C46 C47 1.373 . S
C47 C46 1.373 . S
C47 C48 1.409 . S
C47 H74 0.931 . S
C48 C43 1.358 . S
C48 C47 1.409 . S
C48 H75 0.930 . S
C49 O62 1.270 1_545 S
C49 O63 1.248 . S
C50 O64 1.266 1_554 S
C50 O65 1.278 . S
C51 Pr41 2.880 . S
C51 C52 1.490 1_556 S
C51 O66 1.254 1_556 S
C51 O67 1.225 . S
C52 C51 1.490 1_554 S
C52 C53 1.386 1_554 S
C52 C57 1.363 . S
C53 C52 1.386 1_556 S
C53 C54 1.368 . S
C53 H76 0.929 . S
C54 C53 1.368 . S
C54 C55 1.386 1_556 S
C54 H77 0.929 . S
C55 C54 1.386 1_554 S
C55 C56 1.373 . S
C56 C55 1.373 . S
C56 C57 1.409 . S
C56 H78 0.931 . S
C57 C52 1.363 . S
C57 C56 1.409 . S
C57 H79 0.930 . S
C58 O68 1.270 1_565 S
C58 O69 1.248 . S
C59 O70 1.267 1_556 S
C59 O71 1.278 . S
O60 Pr40 2.562 1_556 S
O60 C42 1.254 1_556 S
O61 Pr40 2.490 . S
O61 C42 1.225 . S
O62 Pr40 2.695 1_565 S
O62 Pr41 2.436 1_554 S
O62 C49 1.270 1_565 S
O63 Pr40 2.512 . S
O63 C49 1.248 . S
O64 Pr41 2.438 1_545 S
O64 C50 1.266 1_556 S
O65 Pr40 2.437 . S
O65 C50 1.278 . S
O66 Pr41 2.562 1_554 S
O66 C51 1.254 1_554 S
O67 Pr41 2.490 . S
O67 C51 1.225 . S
O68 Pr40 2.436 1_556 S
O68 Pr41 2.695 1_545 S
O68 C58 1.270 1_545 S
O69 Pr41 2.512 . S
O69 C58 1.248 . S
O70 Pr40 2.438 1_565 S
O70 C59 1.267 1_554 S
O71 Pr41 2.437 . S
O71 C59 1.278 . S
H72 C44 0.929 . S
H73 C45 0.929 . S
H74 C47 0.931 . S
H75 C48 0.930 . S
H76 C53 0.929 . S
H77 C54 0.929 . S
H78 C56 0.931 . S
H79 C57 0.930 . S
Pr80 C82 2.880 . S
Pr80 O100 2.562 1_554 S
Pr80 O101 2.490 . S
Pr80 O102 2.695 . S
Pr80 O103 2.512 . S
Pr80 O105 2.437 . S
Pr80 O108 2.436 1_554 S
Pr80 O110 2.438 . S
Pr81 C91 2.880 . S
Pr81 O102 2.436 1_556 S
Pr81 O104 2.438 . S
Pr81 O106 2.562 1_556 S
Pr81 O107 2.490 . S
Pr81 O108 2.695 . S
Pr81 O109 2.512 . S
Pr81 O111 2.437 . S
C82 Pr80 2.880 . S
C82 C83 1.491 . S
C82 O100 1.254 1_554 S
C82 O101 1.225 . S
C83 C82 1.491 . S
C83 C84 1.392 . S
C83 C88 1.356 1_554 S
C84 C83 1.392 . S
C84 C85 1.368 . S
C84 H112 0.929 . S
C85 C84 1.368 . S
C85 C86 1.392 . S
C85 H113 0.929 . S
C86 C85 1.392 . S
C86 C87 1.368 1_554 S
C87 C86 1.368 1_556 S
C87 C88 1.409 . S
C87 H114 0.931 . S
C88 C83 1.356 1_556 S
C88 C87 1.409 . S
C88 H115 0.930 . S
C89 O102 1.270 . S
C89 O103 1.248 . S
C90 O104 1.267 1_554 S
C90 O105 1.278 . S
C91 Pr81 2.880 . S
C91 C92 1.491 . S
C91 O106 1.254 1_556 S
C91 O107 1.225 . S
C92 C91 1.491 . S
C92 C93 1.392 . S
C92 C97 1.356 1_556 S
C93 C92 1.392 . S
C93 C94 1.368 . S
C93 H116 0.929 . S
C94 C93 1.368 . S
C94 C95 1.387 . S
C94 H117 0.929 . S
C95 C94 1.387 . S
C95 C96 1.372 1_556 S
C96 C95 1.372 1_554 S
C96 C97 1.409 . S
C96 H118 0.931 . S
C97 C92 1.356 1_554 S
C97 C96 1.409 . S
C97 H119 0.930 . S
C98 O108 1.270 . S
C98 O109 1.248 . S
C99 O110 1.267 1_556 S
C99 O111 1.278 . S
O100 Pr80 2.562 1_556 S
O100 C82 1.254 1_556 S
O101 Pr80 2.490 . S
O101 C82 1.225 . S
O102 Pr80 2.695 . S
O102 Pr81 2.436 1_554 S
O102 C89 1.270 . S
O103 Pr80 2.512 . S
O103 C89 1.248 . S
O104 Pr81 2.438 . S
O104 C90 1.267 1_556 S
O105 Pr80 2.437 . S
O105 C90 1.278 . S
O106 Pr81 2.562 1_554 S
O106 C91 1.254 1_554 S
O107 Pr81 2.490 . S
O107 C91 1.225 . S
O108 Pr80 2.436 1_556 S
O108 Pr81 2.695 . S
O108 C98 1.270 . S
O109 Pr81 2.512 . S
O109 C98 1.248 . S
O110 Pr80 2.438 . S
O110 C99 1.267 1_554 S
O111 Pr81 2.437 . S
O111 C99 1.278 . S
H112 C84 0.929 . S
H113 C85 0.929 . S
H114 C87 0.931 . S
H115 C88 0.930 . S
H116 C93 0.929 . S
H117 C94 0.929 . S
H118 C96 0.931 . S
H119 C97 0.930 . S
H120 C126 0.930 . S
H121 C130 0.930 . S
H122 C135 0.929 . S
H123 C133 0.929 . S
H124 C128 0.929 . S
H125 C134 0.929 . S
C126 H120 0.930 . S
C126 C127 1.367 1_655 S
C126 C134 1.378 . S
C127 C126 1.367 1_455 S
C127 C135 1.433 . S
C128 H124 0.929 . S
C128 C130 1.378 . S
C128 C132 1.350 . S
C129 C132 1.463 . S
C129 C134 1.350 1_455 S
C129 N137 1.427 . S
C130 H121 0.930 . S
C130 C128 1.378 . S
C130 C131 1.367 . S
C131 C130 1.367 . S
C131 C133 1.433 1_455 S
C132 C128 1.350 . S
C132 C129 1.463 . S
C132 N136 1.427 1_455 S
C133 H123 0.929 . S
C133 C131 1.433 1_655 S
C133 N136 1.384 . S
C134 H125 0.929 . S
C134 C126 1.378 . S
C134 C129 1.350 1_655 S
C135 H122 0.929 . S
C135 C127 1.433 . S
C135 N137 1.384 . S
N136 C132 1.427 1_655 S
N136 C133 1.384 . S
N137 C129 1.427 . S
N137 C135 1.384 . S
H138 C144 0.930 . S
H139 C148 0.930 . S
H140 C153 0.929 . S
H141 C151 0.929 . S
H142 C146 0.929 . S
H143 C152 0.929 . S
C144 H138 0.930 . S
C144 C145 1.367 . S
C144 C152 1.378 . S
C145 C144 1.367 . S
C145 C153 1.433 1_545 S
C146 H142 0.929 . S
C146 C148 1.378 . S
C146 C150 1.379 . S
C147 C150 1.458 1_545 S
C147 C152 1.350 . S
C147 N155 1.427 1_545 S
C148 H139 0.930 . S
C148 C146 1.378 . S
C148 C149 1.395 . S
C149 C148 1.395 . S
C149 C151 1.402 1_565 S
C150 C146 1.379 . S
C150 C147 1.458 1_565 S
C150 N154 1.401 1_565 S
C151 H141 0.929 . S
C151 C149 1.402 1_545 S
C151 N154 1.384 . S
C152 H143 0.929 . S
C152 C144 1.378 . S
C152 C147 1.350 . S
C153 H140 0.929 . S
C153 C145 1.433 1_565 S
C153 N155 1.384 . S
N154 C150 1.401 1_545 S
N154 C151 1.384 . S
N155 C147 1.427 1_565 S
N155 C153 1.384 . S
H156 C162 0.930 . S
H157 C166 0.930 . S
H158 C171 0.929 . S
H159 C169 0.929 . S
H160 C164 0.929 . S
H161 C170 0.929 . S
C162 H156 0.930 . S
C162 C163 1.367 . S
C162 C170 1.378 . S
C163 C162 1.367 . S
C163 C171 1.433 . S
C164 H160 0.929 . S
C164 C166 1.378 . S
C164 C168 1.350 . S
C165 C168 1.463 . S
C165 C170 1.350 . S
C165 N173 1.427 . S
C166 H157 0.930 . S
C166 C164 1.378 . S
C166 C167 1.367 . S
C167 C166 1.367 . S
C167 C169 1.433 . S
C168 C164 1.350 . S
C168 C165 1.463 . S
C168 N172 1.427 . S
C169 H159 0.929 . S
C169 C167 1.433 . S
C169 N172 1.384 . S
C170 H161 0.929 . S
C170 C162 1.378 . S
C170 C165 1.350 . S
C171 H158 0.929 . S
C171 C163 1.433 . S
C171 N173 1.384 . S
N172 C168 1.427 . S
N172 C169 1.384 . S
N173 C165 1.427 . S
N173 C171 1.384 . S
H174 C180 0.930 . S
H175 C184 0.930 . S
H176 C189 0.929 . S
H177 C187 0.929 . S
H178 C182 0.929 . S
H179 C188 0.929 . S
C180 H174 0.930 . S
C180 C181 1.367 1_554 S
C180 C188 1.378 . S
C181 C180 1.367 1_556 S
C181 C189 1.433 . S
C182 H178 0.929 . S
C182 C184 1.378 . S
C182 C186 1.350 . S
C183 C186 1.463 . S
C183 C188 1.350 1_556 S
C183 N191 1.427 . S
C184 H175 0.930 . S
C184 C182 1.378 . S
C184 C185 1.367 . S
C185 C184 1.367 . S
C185 C187 1.433 1_556 S
C186 C182 1.350 . S
C186 C183 1.463 . S
C186 N190 1.427 1_556 S
C187 H177 0.929 . S
C187 C185 1.433 1_554 S
C187 N190 1.384 . S
C188 H179 0.929 . S
C188 C180 1.378 . S
C188 C183 1.350 1_554 S
C189 H176 0.929 . S
C189 C181 1.433 . S
C189 N191 1.384 . S
N190 C186 1.427 1_554 S
N190 C187 1.384 . S
N191 C183 1.427 . S
N191 C189 1.384 . S
H192 C198 0.930 . S
H193 C202 0.930 . S
H194 C207 0.929 . S
H195 C205 0.929 . S
H196 C200 0.929 . S
H197 C206 0.929 . S
C198 H192 0.930 . S
C198 C199 1.367 1_554 S
C198 C206 1.378 . S
C199 C198 1.367 1_556 S
C199 C207 1.433 . S
C200 H196 0.929 . S
C200 C202 1.378 . S
C200 C204 1.350 . S
C201 C204 1.463 . S
C201 C206 1.350 1_556 S
C201 N209 1.427 . S
C202 H193 0.930 . S
C202 C200 1.378 . S
C202 C203 1.367 . S
C203 C202 1.367 . S
C203 C205 1.433 1_556 S
C204 C200 1.350 . S
C204 C201 1.463 . S
C204 N208 1.427 1_556 S
C205 H195 0.929 . S
C205 C203 1.433 1_554 S
C205 N208 1.384 . S
C206 H197 0.929 . S
C206 C198 1.378 . S
C206 C201 1.350 1_554 S
C207 H194 0.929 . S
C207 C199 1.433 . S
C207 N209 1.384 . S
N208 C204 1.427 1_554 S
N208 C205 1.384 . S
N209 C201 1.427 . S
N209 C207 1.384 . S
H210 C216 0.930 . S
H211 C220 0.930 . S
H212 C225 0.929 . S
H213 C223 0.929 . S
H214 C218 0.929 . S
H215 C224 0.929 . S
C216 H210 0.930 . S
C216 C217 1.367 1_554 S
C216 C224 1.378 . S
C217 C216 1.367 1_556 S
C217 C225 1.433 . S
C218 H214 0.929 . S
C218 C220 1.378 . S
C218 C222 1.350 . S
C219 C222 1.463 . S
C219 C224 1.350 1_556 S
C219 N227 1.427 . S
C220 H211 0.930 . S
C220 C218 1.378 . S
C220 C221 1.367 . S
C221 C220 1.367 . S
C221 C223 1.433 1_556 S
C222 C218 1.350 . S
C222 C219 1.463 . S
C222 N226 1.427 1_556 S
C223 H213 0.929 . S
C223 C221 1.433 1_554 S
C223 N226 1.384 . S
C224 H215 0.929 . S
C224 C216 1.378 . S
C224 C219 1.350 1_554 S
C225 H212 0.929 . S
C225 C217 1.433 . S
C225 N227 1.384 . S
N226 C222 1.427 1_554 S
N226 C223 1.384 . S
N227 C219 1.427 . S
N227 C225 1.384 . S
H228 C234 0.930 . S
H229 C238 0.930 . S
H230 C243 0.929 . S
H231 C241 0.929 . S
H232 C236 0.929 . S
H233 C242 0.929 . S
C234 H228 0.930 . S
C234 C235 1.367 1_556 S
C234 C242 1.378 . S
C235 C234 1.367 1_554 S
C235 C243 1.433 . S
C236 H232 0.929 . S
C236 C238 1.378 . S
C236 C240 1.350 . S
C237 C240 1.463 . S
C237 C242 1.350 1_554 S
C237 N245 1.427 . S
C238 H229 0.930 . S
C238 C236 1.378 . S
C238 C239 1.367 . S
C239 C238 1.367 . S
C239 C241 1.433 1_554 S
C240 C236 1.350 . S
C240 C237 1.463 . S
C240 N244 1.427 1_554 S
C241 H231 0.929 . S
C241 C239 1.433 1_556 S
C241 N244 1.384 . S
C242 H233 0.929 . S
C242 C234 1.378 . S
C242 C237 1.350 1_556 S
C243 H230 0.929 . S
C243 C235 1.433 . S
C243 N245 1.384 . S
N244 C240 1.427 1_556 S
N244 C241 1.384 . S
N245 C237 1.427 . S
N245 C243 1.384 . S
H246 C252 0.930 . S
H247 C256 0.930 . S
H248 C261 0.929 . S
H249 C259 0.929 . S
H250 C254 0.929 . S
H251 C260 0.929 . S
C252 H246 0.930 . S
C252 C253 1.367 . S
C252 C260 1.378 . S
C253 C252 1.367 . S
C253 C261 1.433 1_554 S
C254 H250 0.929 . S
C254 C256 1.378 . S
C254 C258 1.350 1_556 S
C255 C258 1.463 . S
C255 C260 1.350 . S
C255 N263 1.427 1_554 S
C256 H247 0.930 . S
C256 C254 1.378 . S
C256 C257 1.367 1_556 S
C257 C256 1.367 1_554 S
C257 C259 1.433 . S
C258 C254 1.350 1_554 S
C258 C255 1.463 . S
C258 N262 1.427 . S
C259 H249 0.929 . S
C259 C257 1.433 . S
C259 N262 1.384 . S
C260 H251 0.929 . S
C260 C252 1.378 . S
C260 C255 1.350 . S
C261 H248 0.929 . S
C261 C253 1.433 1_556 S
C261 N263 1.384 . S
N262 C258 1.427 . S
N262 C259 1.384 . S
N263 C255 1.427 1_556 S
N263 C261 1.384 . S
H264 C270 0.930 . S
H265 C274 0.930 . S
H266 C279 0.929 . S
H267 C277 0.929 . S
H268 C272 0.929 . S
H269 C278 0.929 . S
C270 H264 0.930 . S
C270 C271 1.367 . S
C270 C278 1.378 . S
C271 C270 1.367 . S
C271 C279 1.433 1_554 S
C272 H268 0.929 . S
C272 C274 1.378 . S
C272 C276 1.350 1_556 S
C273 C276 1.463 . S
C273 C278 1.350 . S
C273 N281 1.427 1_554 S
C274 H265 0.930 . S
C274 C272 1.378 . S
C274 C275 1.367 1_556 S
C275 C274 1.367 1_554 S
C275 C277 1.433 . S
C276 C272 1.350 1_554 S
C276 C273 1.463 . S
C276 N280 1.427 . S
C277 H267 0.929 . S
C277 C275 1.433 . S
C277 N280 1.384 . S
C278 H269 0.929 . S
C278 C270 1.378 . S
C278 C273 1.350 . S
C279 H266 0.929 . S
C279 C271 1.433 1_556 S
C279 N281 1.384 . S
N280 C276 1.427 . S
N280 C277 1.384 . S
N281 C273 1.427 1_556 S
N281 C279 1.384 . S
C127 C9 1.448 . S
C131 C18 1.448 . S
C145 C49 1.450 . S
C149 C58 1.454 . S
C163 C98 1.455 . S
C167 C89 1.455 . S
C181 C19 2.613 1_556 S
C185 C90 2.569 1_556 S
C199 C46 0.883 . S
C203 C6 0.880 . S
C217 C59 2.040 . S
C221 C86 1.994 1_556 S
C235 C10 2.614 1_554 S
C239 C99 2.566 1_554 S
C253 C15 0.884 . S
C257 C55 0.887 . S
C271 C95 1.981 1_554 S
C275 C50 2.031 . S
