# Generated by pormake.
# Topology rob, (6)-cn, num edge types: 1
# Building blocks:
#     Node 0, Type 0, BuildingBlock: UKALOJ_clean_sbu_0, # of connection points: 6
#     Node 1, Type 0, BuildingBlock: UKALOJ_clean_sbu_0, # of connection points: 6
#     Node 2, Type 0, BuildingBlock: UKALOJ_clean_sbu_0, # of connection points: 6
#     Node 3, Type 0, BuildingBlock: UKALOJ_clean_sbu_0, # of connection points: 6
#     Edge 4, Type (0, 0), BuildingBlock: ZUJKAS_clean_linker_0, # of connection points: 2
#     Edge 5, Type (0, 0), BuildingBlock: ZUJKAS_clean_linker_0, # of connection points: 2
#     Edge 6, Type (0, 0), BuildingBlock: ZUJKAS_clean_linker_0, # of connection points: 2
#     Edge 7, Type (0, 0), BuildingBlock: ZUJKAS_clean_linker_0, # of connection points: 2
#     Edge 8, Type (0, 0), BuildingBlock: ZUJKAS_clean_linker_0, # of connection points: 2
#     Edge 9, Type (0, 0), BuildingBlock: ZUJKAS_clean_linker_0, # of connection points: 2
#     Edge 10, Type (0, 0), BuildingBlock: ZUJKAS_clean_linker_0, # of connection points: 2
#     Edge 11, Type (0, 0), BuildingBlock: ZUJKAS_clean_linker_0, # of connection points: 2
#     Edge 12, Type (0, 0), BuildingBlock: ZUJKAS_clean_linker_0, # of connection points: 2
#     Edge 13, Type (0, 0), BuildingBlock: ZUJKAS_clean_linker_0, # of connection points: 2
#     Edge 14, Type (0, 0), BuildingBlock: ZUJKAS_clean_linker_0, # of connection points: 2
#     Edge 15, Type (0, 0), BuildingBlock: ZUJKAS_clean_linker_0, # of connection points: 2
# Relax obj value: 0.168
# Max RMSD: 0.196
# Mean RMSD: 0.196
data_MOF--net-rob--node1-UKALOJ_clean_sbu_0--edge1-ZUJKAS_clean_linker_0
_symmetry_space_group_name_H-M    P1
_symmetry_Int_Tables_number       1
_symmetry_cell_setting            triclinic
loop_
_symmetry_equiv_pos_as_xyz
'x, y, z'
_cell_length_a     18.801262
_cell_length_b     45.255497
_cell_length_c     31.77204
_cell_angle_alpha  99.891589
_cell_angle_beta   89.856777
_cell_angle_gamma 90.087528
loop_
_atom_site_label
_atom_site_type_symbol
_atom_site_fract_x
_atom_site_fract_y
_atom_site_fract_z
_atom_type_partial_charge
Zn0 Zn 0.28807 0.28701 -0.0184 0.0
O1 O 0.34513 0.26801 0.92652 0.0
C2 C 0.16331 0.29613 0.92966 0.0
Zn3 Zn 0.21644 0.24718 0.97371 0.0
C4 C 0.32618 0.24279 0.90544 0.0
O5 O 0.27332 0.22918 0.91812 0.0
C6 C 0.17828 0.29132 0.04995 0.0
O7 O 0.28558 0.22482 0.01013 0.0
O8 O 0.35452 0.26452 0.01874 0.0
N9 N 0.14932 0.21113 0.96234 0.0
C10 C 0.13105 0.18964 -0.01501 0.0
C11 C 0.08513 0.17774 0.9231 0.0
N12 N 0.12008 0.20381 0.92409 0.0
N13 N 0.09092 0.16838 0.96094 0.0
C14 C 0.37247 0.34403 0.96836 0.0
C15 C 0.42507 0.35591 0.02823 0.0
N16 N 0.35506 0.32317 -0.00777 0.0
N17 N 0.3881 0.33053 0.02933 0.0
N18 N 0.4159 0.36495 -0.00963 0.0
H19 H 0.34004 0.31973 0.90685 0.0
H20 H 0.39127 0.35332 0.90495 0.0
H21 H 0.30013 0.35598 0.92239 0.0
C22 C 0.34999 0.34306 0.92291 0.0
C23 C 0.15854 0.18806 0.02879 0.0
H24 H 0.17455 0.21055 0.04568 0.0
H25 H 0.20513 0.17285 0.0258 0.0
H26 H 0.11796 0.17889 0.04829 0.0
O27 O 0.16022 0.26578 0.02941 0.0
O28 O 0.23022 0.30525 0.03673 0.0
C29 C 0.34114 0.23832 0.02595 0.0
O30 O 0.21991 0.30917 0.94465 0.0
O31 O 0.14906 0.2701 0.93724 0.0
Zn32 Zn 0.76279 0.79222 -0.00569 0.0
O33 O 0.85512 0.77388 0.96232 0.0
C34 C 0.69379 0.78787 0.91079 0.0
Zn35 Zn 0.70823 0.74818 0.9765 0.0
C36 C 0.85626 0.74664 0.94378 0.0
O37 O 0.80177 0.73026 0.94565 0.0
C38 C 0.61468 0.79382 0.02689 0.0
O39 O 0.73946 0.73494 0.03426 0.0
O40 O 0.79644 0.77769 0.05043 0.0
N41 N 0.65551 0.7086 0.95765 0.0
C42 C 0.66787 0.6805 0.96461 0.0
C43 C 0.57258 0.6792 0.92813 0.0
N44 N 0.59641 0.7077 0.93487 0.0
N45 N 0.61632 0.66168 0.94663 0.0
C46 C 0.84317 0.8524 -0.0068 0.0
C47 C 0.84433 0.87125 0.05946 0.0
N48 N 0.81209 0.8324 0.01435 0.0
N49 N 0.81314 0.84413 0.05549 0.0
N50 N 0.86336 0.87713 0.02083 0.0
H51 H 0.86343 0.82269 0.93365 0.0
H52 H 0.90519 0.85907 0.93833 0.0
H53 H 0.81075 0.85506 0.92949 0.0
C54 C 0.85682 0.84693 0.94598 0.0
C55 C 0.73228 0.67129 -0.01313 0.0
H56 H 0.77825 0.68588 -0.01708 0.0
H57 H 0.74648 0.64763 0.97425 0.0
H58 H 0.72068 0.67336 0.02148 0.0
O59 O 0.61507 0.76683 0.00743 0.0
O60 O 0.67002 0.80983 0.02609 0.0
C61 C 0.7779 0.75266 0.06002 0.0
O62 O 0.72811 0.80625 0.93801 0.0
O63 O 0.67789 0.76218 0.91909 0.0
Zn64 Zn 0.21462 0.79462 0.49577 0.0
O65 O 0.25524 0.80917 0.44089 0.0
C66 C 0.11331 0.75431 0.44299 0.0
Zn67 Zn 0.25984 0.74882 0.47597 0.0
C68 C 0.28927 0.79047 0.41388 0.0
O69 O 0.29914 0.76404 0.42115 0.0
C70 C 0.18514 0.75292 0.55779 0.0
O71 O 0.35479 0.76227 0.50873 0.0
O72 O 0.31044 0.80742 0.52836 0.0
N73 N 0.30101 0.70734 0.4531 0.0
C74 C 0.32786 0.68553 0.47243 0.0
C75 C 0.33169 0.66964 0.40529 0.0
N76 N 0.30361 0.69741 0.41139 0.0
N77 N 0.34704 0.6616 0.44312 0.0
C78 C 0.14793 0.85805 0.49876 0.0
C79 C 0.14482 0.87451 0.56576 0.0
N80 N 0.17367 0.83621 0.51846 0.0
N81 N 0.17143 0.84648 0.56008 0.0
N82 N 0.13001 0.88235 0.52773 0.0
H83 H 0.12887 0.83127 0.43669 0.0
H84 H 0.18441 0.86371 0.43701 0.0
H85 H 0.09014 0.86837 0.44462 0.0
C86 C 0.13683 0.85502 0.45153 0.0
C87 C 0.33887 0.6883 0.51964 0.0
H88 H 0.34575 0.71204 0.53481 0.0
H89 H 0.38614 0.67526 0.52645 0.0
H90 H 0.29162 0.67915 0.53393 0.0
O91 O 0.2194 0.73426 0.53083 0.0
O92 O 0.17513 0.77936 0.55056 0.0
C93 C 0.36114 0.78894 0.52888 0.0
O94 O 0.11943 0.78108 0.46286 0.0
O95 O 0.16426 0.73599 0.44364 0.0
Zn96 Zn 0.71762 0.29321 0.48475 0.0
O97 O 0.78636 0.31493 0.44707 0.0
C98 C 0.67692 0.24902 0.40909 0.0
Zn99 Zn 0.7881 0.25305 0.47619 0.0
C100 C 0.84184 0.30135 0.43114 0.0
O101 O 0.85508 0.27518 0.43847 0.0
C102 C 0.6638 0.24471 0.52944 0.0
O103 O 0.84642 0.27184 0.53081 0.0
O104 O 0.7763 0.31116 0.53955 0.0
N105 N 0.85306 0.2163 0.46503 0.0
C106 C 0.87 0.19542 0.48891 0.0
C107 C 0.91802 0.18215 0.42778 0.0
N108 N 0.88324 0.20806 0.42714 0.0
N109 N 0.91021 0.17358 0.46609 0.0
C110 C 0.63437 0.35085 0.47288 0.0
C111 C 0.58587 0.36312 0.53407 0.0
N112 N 0.65236 0.32983 0.49629 0.0
N113 N 0.62193 0.33746 0.53422 0.0
N114 N 0.5931 0.37216 0.49604 0.0
H115 H 0.66368 0.32621 0.41091 0.0
H116 H 0.70396 0.36248 0.42508 0.0
H117 H 0.61184 0.35967 0.40971 0.0
C118 C 0.65425 0.34959 0.4269 0.0
C119 C 0.8502 0.19731 0.53504 0.0
H120 H 0.84255 0.22086 0.55073 0.0
H121 H 0.89186 0.18683 0.5523 0.0
H122 H 0.79957 0.18513 0.53728 0.0
O123 O 0.71961 0.23138 0.51369 0.0
O124 O 0.65031 0.27091 0.52233 0.0
C125 C 0.82871 0.29723 0.55192 0.0
O126 O 0.65958 0.27453 0.42997 0.0
O127 O 0.72908 0.235 0.42158 0.0
H128 H 0.57432 0.61888 0.88199 0.0
H129 H 0.54534 0.56646 0.88595 0.0
H130 H 0.60184 0.58206 0.01942 0.0
H131 H 0.62893 0.63449 0.01576 0.0
H132 H 0.63109 0.51987 0.91283 0.0
H133 H 0.39394 0.55094 0.01561 0.0
H134 H 0.43685 0.57682 -0.01374 0.0
H135 H 0.47511 0.56934 0.03511 0.0
C136 C 0.58103 0.61092 0.91199 0.0
C137 C 0.60502 0.63049 0.94835 0.0
C138 C 0.56473 0.58108 0.91421 0.0
C139 C 0.57116 0.57052 0.95302 0.0
C140 C 0.59625 0.58988 -0.01078 0.0
H141 H 0.5466 0.38861 0.00548 0.0
H142 H 0.58726 0.43807 -0.00665 0.0
C143 C 0.61265 0.61968 -0.01303 0.0
C144 C 0.54904 0.53957 0.95607 0.0
H145 H 0.4278 0.49984 0.00381 0.0
C146 C 0.58662 0.51541 0.93263 0.0
C147 C 0.4904 0.53394 -0.01851 0.0
C148 C 0.4462 0.55908 0.0058 0.0
C149 C 0.56773 0.48562 0.93458 0.0
C150 C 0.51026 0.48003 0.96094 0.0
C151 C 0.47211 0.50423 -0.01618 0.0
C152 C 0.48823 0.44927 0.96527 0.0
C153 C 0.60864 0.4604 0.90801 0.0
C154 C 0.41897 0.4394 0.95402 0.0
C155 C 0.39578 0.41135 0.96114 0.0
C156 C 0.44152 0.39263 0.97951 0.0
C157 C 0.51088 0.40251 -0.00933 0.0
C158 C 0.53416 0.43059 -0.01649 0.0
H159 H 0.63907 0.46822 0.88197 0.0
H160 H 0.64703 0.45109 0.92874 0.0
H161 H 0.57233 0.44204 0.89373 0.0
H162 H 0.38238 0.45369 0.94051 0.0
H163 H 0.34123 0.40486 0.95384 0.0
H164 H 0.29767 0.62652 0.49754 0.0
H165 H 0.34155 0.57664 0.5051 0.0
H166 H 0.49938 0.58154 0.40783 0.0
H167 H 0.45572 0.63159 0.40045 0.0
H168 H 0.35521 0.52453 0.43 0.0
H169 H 0.60641 0.55935 0.51735 0.0
H170 H 0.53096 0.58419 0.51863 0.0
H171 H 0.58543 0.57637 0.47165 0.0
C172 C 0.34268 0.61719 0.47852 0.0
C173 C 0.37455 0.63303 0.44911 0.0
C174 C 0.36716 0.58866 0.48252 0.0
C175 C 0.42404 0.57568 0.45731 0.0
C176 C 0.4559 0.59142 0.42786 0.0
H177 H 0.66103 0.41089 0.45299 0.0
H178 H 0.6168 0.45913 0.43963 0.0
C179 C 0.43101 0.61983 0.42361 0.0
C180 C 0.44877 0.54527 0.46094 0.0
H181 H 0.58554 0.50748 0.49779 0.0
C182 C 0.40549 0.52069 0.44483 0.0
C183 C 0.51457 0.54054 0.47998 0.0
C184 C 0.5622 0.56642 0.49818 0.0
C185 C 0.42672 0.49125 0.44693 0.0
C186 C 0.4921 0.48647 0.46673 0.0
C187 C 0.53547 0.51116 0.48262 0.0
C188 C 0.51624 0.45612 0.47194 0.0
C189 C 0.37964 0.46559 0.4271 0.0
C190 C 0.47451 0.43836 0.49455 0.0
C191 C 0.49908 0.41043 0.50128 0.0
C192 C 0.56596 0.39978 0.48576 0.0
C193 C 0.60799 0.41775 0.46356 0.0
C194 C 0.58319 0.44558 0.45653 0.0
H195 H 0.34422 0.4722 0.40235 0.0
H196 H 0.41162 0.44591 0.41229 0.0
H197 H 0.3454 0.45874 0.45225 0.0
H198 H 0.42363 0.44639 0.50788 0.0
H199 H 0.46629 0.39725 0.51916 0.0
H200 H 0.1208 0.11574 0.91162 0.0
H201 H 0.08314 0.06581 0.9228 0.0
H202 H 0.97753 0.10547 0.03963 0.0
H203 H 0.01204 0.15557 0.02704 0.0
H204 H 0.1121 0.03549 -0.01333 0.0
H205 H 0.82141 0.05433 0.97781 0.0
H206 H 0.88602 0.08014 0.96277 0.0
H207 H 0.86511 0.08068 0.01819 0.0
C208 C 0.08936 0.11366 0.93957 0.0
C209 C 0.07038 0.13928 0.96892 0.0
C210 C 0.06816 0.08523 0.94605 0.0
C211 C 0.02711 0.08192 -0.01812 0.0
C212 C 0.00841 0.10752 0.01147 0.0
H213 H 0.95999 0.91139 0.06891 0.0
H214 H 0.00225 0.96115 0.0598 0.0
C215 C 0.02921 0.13605 0.00475 0.0
C216 C 0.00421 0.05157 -0.01204 0.0
H217 H 0.85778 1.00873 -0.00165 0.0
C218 C 0.05648 0.0296 -0.01082 0.0
C219 C 0.93159 0.04383 -0.00944 0.0
C220 C 0.87272 0.06587 -0.01315 0.0
C221 C 0.03818 1.00011 -0.0069 0.0
C222 C 0.96565 0.99262 -0.00301 0.0
C223 C 0.91339 1.01457 -0.00436 0.0
C224 C 0.94246 0.96206 0.00187 0.0
C225 C 0.0966 0.97715 -0.00811 0.0
C226 C 0.89349 0.94637 0.97303 0.0
C227 C 0.86852 0.91822 0.97862 0.0
C228 C 0.89273 0.90504 0.01289 0.0
C229 C 0.94157 0.92084 0.04181 0.0
C230 C 0.96607 0.94912 0.03644 0.0
H231 H 0.14555 0.98407 0.97648 0.0
H232 H 0.11038 0.97469 0.02505 0.0
H233 H 0.07945 0.95492 0.97438 0.0
H234 H 0.87373 0.95612 0.94649 0.0
H235 H 0.82847 0.90732 0.95699 0.0
H236 H 0.83831 0.13617 0.5094 0.0
H237 H 0.87851 0.08772 0.5241 0.0
H238 H 0.0741 0.09723 0.45639 0.0
H239 H 0.03546 0.14666 0.44379 0.0
H240 H 0.90733 0.03849 0.46723 0.0
H241 H 0.14907 0.07184 0.56335 0.0
H242 H 0.08398 0.09875 0.55233 0.0
H243 H 0.14991 0.08453 0.51288 0.0
C244 C 0.89104 0.12856 0.49922 0.0
C245 C 0.93495 0.14573 0.47685 0.0
C246 C 0.91353 0.1006 0.50702 0.0
C247 C 0.97999 0.0891 0.49217 0.0
C248 C 0.02356 0.10602 0.4693 0.0
H249 H 0.18428 0.91605 0.47294 0.0
H250 H 0.14525 0.96629 0.46393 0.0
C251 C 0.00128 0.1341 0.46181 0.0
C252 C 0.00162 0.05863 0.49835 0.0
H253 H 0.13403 1.01947 0.53751 0.0
C254 C 0.95661 0.03438 0.48292 0.0
C255 C 0.06597 0.05329 0.51884 0.0
C256 C 0.11468 0.07851 0.53818 0.0
C257 C 0.97483 1.00492 0.48676 0.0
C258 C 0.03958 0.99961 0.50656 0.0
C259 C 0.08453 0.02374 0.52215 0.0
C260 C 0.0616 0.96905 0.51129 0.0
C261 C 0.92552 0.97951 0.46902 0.0
C262 C 0.02755 0.9542 0.54102 0.0
C263 C 0.04967 0.92555 0.54608 0.0
C264 C 0.10548 0.91124 0.52112 0.0
C265 C 0.13965 0.92623 0.49152 0.0
C266 C 0.11795 0.95497 0.48671 0.0
H267 H 0.88249 0.98685 0.44925 0.0
H268 H 0.95579 0.96106 0.4493 0.0
H269 H 0.90071 0.97037 0.49582 0.0
H270 H 0.98445 0.96492 0.56059 0.0
H271 H 0.02326 0.91446 0.5694 0.0
H272 H 0.69231 0.19318 0.36082 0.0
H273 H 0.63562 0.17393 0.29225 0.0
H274 H 0.52112 0.25717 0.29909 0.0
H275 H 0.576 0.2763 0.36781 0.0
H276 H 0.43841 0.20661 0.27066 0.0
H277 H 0.69609 0.20329 0.18273 0.0
H278 H 0.68967 0.18173 0.22513 0.0
H279 H 0.68713 0.22194 0.23739 0.0
C280 C 0.65456 0.20727 0.34785 0.0
C281 C 0.63903 0.23638 0.36949 0.0
C282 C 0.62249 0.19626 0.30865 0.0
C283 C 0.5751 0.21431 0.29042 0.0
C284 C 0.55764 0.2429 0.31271 0.0
H285 H 0.45762 0.26351 0.06835 0.0
H286 H 0.51773 0.24707 0.12785 0.0
C287 C 0.58918 0.25384 0.35192 0.0
C288 C 0.54593 0.20462 0.24714 0.0
H289 H 0.59218 0.19704 0.14198 0.0
C290 C 0.47181 0.20379 0.24236 0.0
C291 C 0.5901 0.20091 0.21051 0.0
C292 C 0.67017 0.20214 0.21388 0.0
C293 C 0.4404 0.20192 0.20205 0.0
C294 C 0.48466 0.2001 0.16559 0.0
C295 C 0.55866 0.19833 0.17008 0.0
C296 C 0.45635 0.20623 0.12463 0.0
C297 C 0.36054 0.20455 0.19931 0.0
C298 C 0.40395 0.18803 0.1019 0.0
C299 C 0.36872 0.19758 0.06791 0.0
C300 C 0.38593 0.22533 0.05617 0.0
C301 C 0.44248 0.24219 0.07685 0.0
C302 C 0.4772 0.23274 0.1108 0.0
H303 H 0.3351 0.20971 0.23133 0.0
H304 H 0.34597 0.22244 0.18097 0.0
H305 H 0.33821 0.18307 0.18241 0.0
H306 H 0.3882 0.16716 0.11159 0.0
H307 H 0.32613 0.18387 0.05214 0.0
H308 H 0.59737 0.85004 0.07355 0.0
H309 H 0.52191 0.86315 0.13674 0.0
H310 H 0.42596 0.77532 0.11126 0.0
H311 H 0.50001 0.76213 0.04774 0.0
H312 H 0.33262 0.82264 0.15209 0.0
H313 H 0.59545 0.81879 0.23205 0.0
H314 H 0.58626 0.84552 0.19663 0.0
H315 H 0.584 0.80608 0.17554 0.0
C316 C 0.55849 0.83386 0.08055 0.0
C317 C 0.55594 0.80475 0.05635 0.0
C318 C 0.51549 0.84142 0.11667 0.0
C319 C 0.4699 0.81992 0.12909 0.0
C320 C 0.46125 0.79214 0.10224 0.0
H321 H 0.36376 0.75552 0.35057 0.0
H322 H 0.40314 0.76832 0.28276 0.0
C323 C 0.50385 0.78461 0.06599 0.0
C324 C 0.44153 0.82381 0.17303 0.0
H325 H 0.49415 0.82149 0.27512 0.0
C326 C 0.36768 0.82308 0.17925 0.0
C327 C 0.48786 0.82389 0.20813 0.0
C328 C 0.56781 0.82341 0.203 0.0
C329 C 0.33894 0.82131 0.21958 0.0
C330 C 0.38547 0.82034 0.25414 0.0
C331 C 0.459 0.82243 0.24835 0.0
C332 C 0.35992 0.81325 0.29511 0.0
C333 C 0.25952 0.8187 0.22461 0.0
C334 C 0.32332 0.83451 0.3245 0.0
C335 C 0.30101 0.82733 0.36354 0.0
C336 C 0.31495 0.79878 0.37354 0.0
C337 C 0.35214 0.7777 0.34393 0.0
C338 C 0.37456 0.78492 0.30514 0.0
H339 H 0.2309 0.81807 0.19392 0.0
H340 H 0.24654 0.79804 0.23755 0.0
H341 H 0.23976 0.83812 0.24784 0.0
H342 H 0.31241 0.85661 0.31733 0.0
H343 H 0.27275 0.84408 0.38571 0.0
H344 H 0.65658 0.74938 0.83891 0.0
H345 H 0.62769 0.76154 0.76904 0.0
H346 H 0.66136 0.85548 0.81745 0.0
H347 H 0.69147 0.84349 0.88781 0.0
H348 H 0.52229 0.83547 0.7745 0.0
H349 H 0.7612 0.79487 0.67922 0.0
H350 H 0.72923 0.77034 0.71405 0.0
H351 H 0.76329 0.80671 0.73657 0.0
C352 C 0.65812 0.77264 0.83475 0.0
C353 C 0.67587 0.79552 0.86885 0.0
C354 C 0.64241 0.77949 0.79472 0.0
C355 C 0.64369 0.80931 0.78813 0.0
C356 C 0.66122 0.8323 0.82198 0.0
H357 H 0.4035 0.8452 0.56623 0.0
H358 H 0.48832 0.85762 0.62499 0.0
C359 C 0.678 0.82542 0.86205 0.0
C360 C 0.61953 0.81615 0.74682 0.0
H361 H 0.65351 0.79874 0.64004 0.0
C362 C 0.55143 0.82828 0.74501 0.0
C363 C 0.6581 0.80655 0.70879 0.0
C364 C 0.73233 0.7941 0.70957 0.0
C365 C 0.51795 0.82863 0.70575 0.0
C366 C 0.55499 0.81742 0.66739 0.0
C367 C 0.62534 0.80737 0.66941 0.0
C368 C 0.51773 0.8115 0.62583 0.0
C369 C 0.44122 0.83854 0.70596 0.0
C370 C 0.51077 0.78176 0.60466 0.0
C371 C 0.46374 0.77468 0.57057 0.0
C372 C 0.42228 0.79723 0.55745 0.0
C373 C 0.43396 0.82731 0.57619 0.0
C374 C 0.48206 0.83443 0.60986 0.0
H375 H 0.417 0.84119 0.73833 0.0
H376 H 0.43815 0.86052 0.6951 0.0
H377 H 0.4089 0.82212 0.68394 0.0
H378 H 0.53817 0.76372 0.6163 0.0
H379 H 0.45626 0.75131 0.55662 0.0
H380 H 0.67404 0.18847 0.54994 0.0
H381 H 0.60759 0.16884 0.60548 0.0
H382 H 0.48374 0.25021 0.62964 0.0
H383 H 0.54912 0.2698 0.57434 0.0
H384 H 0.61221 0.19484 0.68785 0.0
H385 H 0.33236 0.18821 0.63679 0.0
H386 H 0.40468 0.19001 0.59972 0.0
H387 H 0.36842 0.22386 0.63052 0.0
C388 C 0.63185 0.20195 0.56661 0.0
C389 C 0.61753 0.23087 0.55822 0.0
C390 C 0.59367 0.1906 0.5981 0.0
C391 C 0.54013 0.20788 0.62125 0.0
C392 C 0.52352 0.23613 0.61141 0.0
H393 H 0.44029 0.26616 0.86948 0.0
H394 H 0.49481 0.24749 0.80046 0.0
C395 C 0.56155 0.24746 0.58003 0.0
C396 C 0.50897 0.199 0.65994 0.0
H397 H 0.35223 0.2019 0.71439 0.0
C398 C 0.5552 0.1954 0.6933 0.0
C399 C 0.4347 0.199 0.66684 0.0
C400 C 0.38233 0.20014 0.63129 0.0
C401 C 0.52932 0.19523 0.73461 0.0
C402 C 0.45575 0.1993 0.74263 0.0
C403 C 0.40891 0.19943 0.70834 0.0
C404 C 0.42775 0.20807 0.78642 0.0
C405 C 0.58139 0.19231 0.7697 0.0
C406 C 0.37133 0.19229 0.80115 0.0
C407 C 0.33955 0.20308 0.84057 0.0
C408 C 0.36334 0.22999 0.86557 0.0
C409 C 0.42091 0.24533 0.85107 0.0
C410 C 0.4526 0.23452 0.81179 0.0
H411 H 0.62794 0.1785 0.7569 0.0
H412 H 0.60143 0.2149 0.78387 0.0
H413 H 0.55612 0.18205 0.79536 0.0
H414 H 0.35096 0.17203 0.78175 0.0
H415 H 0.29521 0.19077 0.85089 0.0
H416 H 0.73629 0.70424 0.0957 0.0
H417 H 0.77205 0.69262 0.16539 0.0
H418 H 0.90284 0.77209 0.18712 0.0
H419 H 0.86806 0.78385 0.11808 0.0
H420 H 0.96621 0.71103 0.19714 0.0
H421 H 0.71881 0.74652 0.2891 0.0
H422 H 0.71413 0.72433 0.23621 0.0
H423 H 0.7427 0.76262 0.24278 0.0
C424 C 0.77285 0.71915 0.1153 0.0
C425 C 0.79962 0.7449 0.10134 0.0
C426 C 0.79276 0.71256 0.15508 0.0
C427 C 0.83957 0.73164 0.18116 0.0
C428 C 0.86641 0.75721 0.16728 0.0
H429 H 0.01509 0.79112 0.41589 0.0
H430 H 0.93418 0.77801 0.35566 0.0
C431 C 0.84653 0.76385 0.12781 0.0
C432 C 0.8634 0.72504 0.22264 0.0
H433 H 0.8208 0.73835 0.32858 0.0
C434 C 0.93415 0.71617 0.22591 0.0
C435 C 0.82101 0.73207 0.25971 0.0
C436 C 0.74482 0.74196 0.25721 0.0
C437 C 0.96549 0.71608 0.26578 0.0
C438 C 0.92413 0.72451 0.30325 0.0
C439 C 0.85198 0.73165 0.29977 0.0
C440 C 0.95817 0.73054 0.34572 0.0
C441 C 0.04401 0.70929 0.26747 0.0
C442 C -0.0048 0.70792 0.36153 0.0
C443 C 0.04238 0.71541 0.39556 0.0
C444 C 0.05215 0.74557 0.41459 0.0
C445 C 0.0091 0.76772 0.40168 0.0
C446 C 0.96263 0.76024 0.36733 0.0
H447 H 0.07026 0.70804 0.23584 0.0
H448 H 0.07144 0.72673 0.29068 0.0
H449 H 0.05135 0.68737 0.27802 0.0
H450 H 0.99124 0.68478 0.34574 0.0
H451 H 0.07408 0.69781 0.40532 0.0
H452 H 0.96113 0.27706 0.39061 0.0
H453 H 0.02464 0.29427 0.3327 0.0
H454 H 0.89028 0.37252 0.34563 0.0
H455 H 0.82549 0.35521 0.40374 0.0
H456 H 0.88918 0.34154 0.26586 0.0
H457 H 0.16786 0.35767 0.31726 0.0
H458 H 0.13646 0.32235 0.32817 0.0
H459 H 0.09596 0.35664 0.35485 0.0
C460 C 0.94596 0.2983 0.38192 0.0
C461 C 0.88751 0.31455 0.40136 0.0
C462 C 0.98295 0.3083 0.34903 0.0
C463 C 0.96281 0.33489 0.33521 0.0
C464 C 0.90695 0.35205 0.35607 0.0
H465 H 0.20373 0.34524 0.10141 0.0
H466 H 0.14681 0.365 0.1698 0.0
C467 C 0.86982 0.34205 0.38912 0.0
C468 C 0.99282 0.34166 0.2949 0.0
H469 H 0.14966 0.33895 0.24051 0.0
C470 C 0.94617 0.34194 0.26054 0.0
C471 C 0.06699 0.34283 0.28805 0.0
C472 C 0.11951 0.34521 0.32428 0.0
C473 C 0.97192 0.34011 0.21879 0.0
C474 C 0.04593 0.33738 0.21136 0.0
C475 C 0.09275 0.34039 0.24617 0.0
C476 C 0.07514 0.32738 0.16807 0.0
C477 C 0.91945 0.33968 0.18285 0.0
C478 C 0.05371 0.29966 0.14461 0.0
C479 C 0.086 0.28829 0.10569 0.0
C480 C 0.14088 0.30433 0.08969 0.0
C481 C 0.16153 0.33235 0.1129 0.0
C482 C 0.12906 0.34372 0.1519 0.0
H483 H 0.87102 0.35278 0.19406 0.0
H484 H 0.94315 0.34895 0.15582 0.0
H485 H 0.90266 0.31621 0.17105 0.0
H486 H 0.01356 0.28629 0.15711 0.0
H487 H 0.06915 0.26659 0.08872 0.0
H488 H 0.8004 0.34959 0.60642 0.0
H489 H 0.85632 0.36781 0.67553 0.0
H490 H -0.00407 0.29108 0.65673 0.0
H491 H 0.94125 0.27292 0.58771 0.0
H492 H 0.85499 0.33807 0.74297 0.0
H493 H 0.13258 0.35885 0.7 0.0
H494 H 0.06105 0.35574 0.66158 0.0
H495 H 0.10417 0.32259 0.67346 0.0
C496 C 0.84389 0.33688 0.61669 0.0
C497 C 0.86641 0.30977 0.59166 0.0
C498 C 0.87576 0.34737 0.65611 0.0
C499 C 0.931 0.33108 0.67084 0.0
C500 C 0.95464 0.30443 0.64543 0.0
H501 H 0.04713 0.27137 0.88622 0.0
H502 H 0.98304 0.29031 0.83013 0.0
C503 C 0.92288 0.29392 0.60612 0.0
C504 C 0.95899 0.33966 0.71462 0.0
H505 H 0.11489 0.34355 0.7695 0.0
C506 C 0.9117 0.34016 0.74899 0.0
C507 C 0.03266 0.34321 0.72259 0.0
C508 C 0.08535 0.34542 0.68739 0.0
C509 C 0.93693 0.34086 0.7906 0.0
C510 C 0.01111 0.34048 0.79759 0.0
C511 C 0.05795 0.3433 0.76403 0.0
C512 C 0.04138 0.33217 0.83681 0.0
C513 C 0.88399 0.34054 0.82625 0.0
C514 C 0.09552 0.34943 0.85935 0.0
C515 C 0.13298 0.33844 0.89131 0.0
C516 C 0.11733 0.3099 0.90081 0.0
C517 C 0.0606 0.29343 0.87969 0.0
C518 C 0.02332 0.30439 0.84783 0.0
H519 H 0.83464 0.35267 0.82038 0.0
H520 H 0.86899 0.317 0.82764 0.0
H521 H 0.90631 0.3509 0.85767 0.0
H522 H 0.11053 0.37084 0.85109 0.0
H523 H 0.17579 0.35182 0.90739 0.0
H524 H 0.10966 0.78763 0.62089 0.0
H525 H 0.06886 0.77448 0.6882 0.0
H526 H 0.16023 0.68631 0.65351 0.0
H527 H 0.20153 0.69922 0.58569 0.0
H528 H 0.97726 0.72281 0.69562 0.0
H529 H 0.23976 0.72245 0.77682 0.0
H530 H 0.22614 0.74226 0.73275 0.0
H531 H 0.23045 0.70211 0.72313 0.0
C532 C 0.12116 0.76541 0.62742 0.0
C533 C 0.15896 0.74447 0.59794 0.0
C534 C 0.0979 0.75798 0.66592 0.0
C535 C 0.11225 0.72958 0.67579 0.0
C536 C 0.14954 0.70847 0.64651 0.0
H537 H 0.87184 0.69087 0.89539 0.0
H538 H 0.94678 0.6784 0.83184 0.0
C539 C 0.17275 0.71586 0.60778 0.0
C540 C 0.08584 0.72226 0.71647 0.0
H541 H 0.13752 0.71747 0.81797 0.0
C542 C 0.01212 0.72099 0.72221 0.0
C543 C 0.13195 0.72013 0.75086 0.0
C544 C 0.21158 0.72189 0.746 0.0
C545 C 0.98281 0.71915 0.7622 0.0
C546 C 0.0288 0.71799 0.7971 0.0
C547 C 0.10272 0.71796 0.79093 0.0
C548 C 0.00028 0.72134 0.84096 0.0
C549 C 0.90289 0.7205 0.76738 0.0
C550 C 0.00974 0.74873 0.86859 0.0
C551 C 0.96733 0.75592 0.90497 0.0
C552 C 0.91468 0.73581 0.91401 0.0
C553 C 0.91123 0.70701 0.88893 0.0
C554 C 0.95392 0.69982 0.8526 0.0
H555 H 0.87576 0.72589 0.73861 0.0
H556 H 0.88291 0.69845 0.77311 0.0
H557 H 0.88771 0.73766 0.79529 0.0
H558 H 0.0456 0.76556 0.86015 0.0
H559 H 0.97188 0.77816 0.92389 0.0
loop_
_geom_bond_atom_site_label_1
_geom_bond_atom_site_label_2
_geom_bond_distance
_geom_bond_site_symmetry_2
_ccdc_geom_bond_type
Zn0 O1 2.055 1_554 S
Zn0 O8 2.046 . S
Zn0 N16 2.036 . S
Zn0 O28 2.053 . S
Zn0 O30 2.066 1_554 S
O1 Zn0 2.055 1_556 S
O1 C4 1.259 . S
C2 O30 1.256 . S
C2 O31 1.244 . S
Zn3 O5 2.046 . S
Zn3 O7 2.055 1_556 S
Zn3 N9 2.036 . S
Zn3 O27 2.066 1_556 S
Zn3 O31 2.053 . S
C4 O1 1.259 . S
C4 O5 1.254 . S
O5 Zn3 2.046 . S
O5 C4 1.254 . S
C6 O27 1.256 . S
C6 O28 1.244 . S
O7 Zn3 2.055 1_554 S
O7 C29 1.259 . S
O8 Zn0 2.046 . S
O8 C29 1.254 . S
N9 Zn3 2.036 . S
N9 C10 1.298 1_556 S
N9 N12 1.398 . S
C10 N9 1.298 1_554 S
C10 N13 1.367 1_554 S
C10 C23 1.481 . S
C11 N12 1.299 . S
C11 N13 1.379 . S
N12 N9 1.398 . S
N12 C11 1.299 . S
N13 C10 1.367 1_556 S
N13 C11 1.379 . S
C14 N16 1.298 1_556 S
C14 N18 1.367 1_556 S
C14 C22 1.481 . S
C15 N17 1.299 . S
C15 N18 1.379 . S
N16 Zn0 2.036 . S
N16 C14 1.298 1_554 S
N16 N17 1.398 . S
N17 C15 1.299 . S
N17 N16 1.398 . S
N18 C14 1.367 1_554 S
N18 C15 1.379 . S
H19 C22 0.980 . S
H20 C22 0.981 . S
H21 C22 0.981 . S
C22 C14 1.481 . S
C22 H19 0.980 . S
C22 H20 0.981 . S
C22 H21 0.981 . S
C23 C10 1.481 . S
C23 H24 0.980 . S
C23 H25 0.981 . S
C23 H26 0.981 . S
H24 C23 0.980 . S
H25 C23 0.981 . S
H26 C23 0.981 . S
O27 Zn3 2.066 1_554 S
O27 C6 1.256 . S
O28 Zn0 2.053 . S
O28 C6 1.244 . S
C29 O7 1.259 . S
C29 O8 1.254 . S
O30 Zn0 2.066 1_556 S
O30 C2 1.256 . S
O31 C2 1.244 . S
O31 Zn3 2.053 . S
Zn32 O33 2.055 1_554 S
Zn32 O40 2.046 . S
Zn32 N48 2.036 . S
Zn32 O60 2.053 . S
Zn32 O62 2.066 1_554 S
O33 Zn32 2.055 1_556 S
O33 C36 1.259 . S
C34 O62 1.256 . S
C34 O63 1.244 . S
Zn35 O37 2.046 . S
Zn35 O39 2.055 1_556 S
Zn35 N41 2.036 . S
Zn35 O59 2.066 1_556 S
Zn35 O63 2.053 . S
C36 O33 1.259 . S
C36 O37 1.254 . S
O37 Zn35 2.046 . S
O37 C36 1.254 . S
C38 O59 1.256 . S
C38 O60 1.244 . S
O39 Zn35 2.055 1_554 S
O39 C61 1.259 . S
O40 Zn32 2.046 . S
O40 C61 1.254 . S
N41 Zn35 2.036 . S
N41 C42 1.298 1_556 S
N41 N44 1.398 . S
C42 N41 1.298 1_554 S
C42 N45 1.367 1_554 S
C42 C55 1.481 . S
C43 N44 1.299 . S
C43 N45 1.379 . S
N44 N41 1.398 . S
N44 C43 1.299 . S
N45 C42 1.367 1_556 S
N45 C43 1.379 . S
C46 N48 1.298 1_556 S
C46 N50 1.367 1_556 S
C46 C54 1.481 . S
C47 N49 1.299 . S
C47 N50 1.379 . S
N48 Zn32 2.036 . S
N48 C46 1.298 1_554 S
N48 N49 1.398 . S
N49 C47 1.299 . S
N49 N48 1.398 . S
N50 C46 1.367 1_554 S
N50 C47 1.379 . S
H51 C54 0.980 . S
H52 C54 0.981 . S
H53 C54 0.981 . S
C54 C46 1.481 . S
C54 H51 0.980 . S
C54 H52 0.981 . S
C54 H53 0.981 . S
C55 C42 1.481 . S
C55 H56 0.980 . S
C55 H57 0.981 . S
C55 H58 0.981 . S
H56 C55 0.980 . S
H57 C55 0.981 . S
H58 C55 0.981 . S
O59 Zn35 2.066 1_554 S
O59 C38 1.256 . S
O60 Zn32 2.053 . S
O60 C38 1.244 . S
C61 O39 1.259 . S
C61 O40 1.254 . S
O62 Zn32 2.066 1_556 S
O62 C34 1.256 . S
O63 C34 1.244 . S
O63 Zn35 2.053 . S
Zn64 O65 2.055 . S
Zn64 O72 2.046 . S
Zn64 N80 2.036 . S
Zn64 O92 2.053 . S
Zn64 O94 2.066 . S
O65 Zn64 2.055 . S
O65 C68 1.259 . S
C66 O94 1.256 . S
C66 O95 1.244 . S
Zn67 O69 2.046 . S
Zn67 O71 2.055 . S
Zn67 N73 2.036 . S
Zn67 O91 2.066 . S
Zn67 O95 2.053 . S
C68 O65 1.259 . S
C68 O69 1.254 . S
O69 Zn67 2.046 . S
O69 C68 1.254 . S
C70 O91 1.256 . S
C70 O92 1.244 . S
O71 Zn67 2.055 . S
O71 C93 1.259 . S
O72 Zn64 2.046 . S
O72 C93 1.254 . S
N73 Zn67 2.036 . S
N73 C74 1.298 . S
N73 N76 1.398 . S
C74 N73 1.298 . S
C74 N77 1.367 . S
C74 C87 1.481 . S
C75 N76 1.299 . S
C75 N77 1.379 . S
N76 N73 1.398 . S
N76 C75 1.299 . S
N77 C74 1.367 . S
N77 C75 1.379 . S
C78 N80 1.298 . S
C78 N82 1.367 . S
C78 C86 1.481 . S
C79 N81 1.299 . S
C79 N82 1.379 . S
N80 Zn64 2.036 . S
N80 C78 1.298 . S
N80 N81 1.398 . S
N81 C79 1.299 . S
N81 N80 1.398 . S
N82 C78 1.367 . S
N82 C79 1.379 . S
H83 C86 0.980 . S
H84 C86 0.981 . S
H85 C86 0.981 . S
C86 C78 1.481 . S
C86 H83 0.980 . S
C86 H84 0.981 . S
C86 H85 0.981 . S
C87 C74 1.481 . S
C87 H88 0.980 . S
C87 H89 0.981 . S
C87 H90 0.981 . S
H88 C87 0.980 . S
H89 C87 0.981 . S
H90 C87 0.981 . S
O91 Zn67 2.066 . S
O91 C70 1.256 . S
O92 Zn64 2.053 . S
O92 C70 1.244 . S
C93 O71 1.259 . S
C93 O72 1.254 . S
O94 Zn64 2.066 . S
O94 C66 1.256 . S
O95 C66 1.244 . S
O95 Zn67 2.053 . S
Zn96 O97 2.055 . S
Zn96 O104 2.046 . S
Zn96 N112 2.036 . S
Zn96 O124 2.053 . S
Zn96 O126 2.066 . S
O97 Zn96 2.055 . S
O97 C100 1.259 . S
C98 O126 1.256 . S
C98 O127 1.244 . S
Zn99 O101 2.046 . S
Zn99 O103 2.055 . S
Zn99 N105 2.036 . S
Zn99 O123 2.066 . S
Zn99 O127 2.053 . S
C100 O97 1.259 . S
C100 O101 1.254 . S
O101 Zn99 2.046 . S
O101 C100 1.254 . S
C102 O123 1.256 . S
C102 O124 1.244 . S
O103 Zn99 2.055 . S
O103 C125 1.259 . S
O104 Zn96 2.046 . S
O104 C125 1.254 . S
N105 Zn99 2.036 . S
N105 C106 1.298 . S
N105 N108 1.398 . S
C106 N105 1.298 . S
C106 N109 1.367 . S
C106 C119 1.481 . S
C107 N108 1.299 . S
C107 N109 1.379 . S
N108 N105 1.398 . S
N108 C107 1.299 . S
N109 C106 1.367 . S
N109 C107 1.379 . S
C110 N112 1.298 . S
C110 N114 1.367 . S
C110 C118 1.481 . S
C111 N113 1.299 . S
C111 N114 1.379 . S
N112 Zn96 2.036 . S
N112 C110 1.298 . S
N112 N113 1.398 . S
N113 C111 1.299 . S
N113 N112 1.398 . S
N114 C110 1.367 . S
N114 C111 1.379 . S
H115 C118 0.980 . S
H116 C118 0.981 . S
H117 C118 0.981 . S
C118 C110 1.481 . S
C118 H115 0.980 . S
C118 H116 0.981 . S
C118 H117 0.981 . S
C119 C106 1.481 . S
C119 H120 0.980 . S
C119 H121 0.981 . S
C119 H122 0.981 . S
H120 C119 0.980 . S
H121 C119 0.981 . S
H122 C119 0.981 . S
O123 Zn99 2.066 . S
O123 C102 1.256 . S
O124 Zn96 2.053 . S
O124 C102 1.244 . S
C125 O103 1.259 . S
C125 O104 1.254 . S
O126 Zn96 2.066 . S
O126 C98 1.256 . S
O127 C98 1.244 . S
O127 Zn99 2.053 . S
H128 C136 0.929 . S
H129 C138 0.930 . S
H130 C140 0.930 . S
H131 C143 0.929 . S
H132 C146 0.930 . S
H133 C148 0.960 . S
H134 C148 0.960 1_556 S
H135 C148 0.960 . S
C136 H128 0.929 . S
C136 C137 1.390 . S
C136 C138 1.384 . S
C137 C136 1.390 . S
C137 C143 1.375 1_556 S
C138 H129 0.930 . S
C138 C136 1.384 . S
C138 C139 1.372 . S
C139 C138 1.372 . S
C139 C140 1.400 1_556 S
C139 C144 1.490 . S
C140 H130 0.930 . S
C140 C139 1.400 1_554 S
C140 C143 1.386 . S
H141 C157 0.930 . S
H142 C158 0.931 . S
C143 H131 0.929 . S
C143 C137 1.375 1_554 S
C143 C140 1.386 . S
C144 C139 1.490 . S
C144 C146 1.395 . S
C144 C147 1.403 1_556 S
H145 C151 0.930 . S
C146 H132 0.930 . S
C146 C144 1.395 . S
C146 C149 1.403 . S
C147 C144 1.403 1_554 S
C147 C148 1.524 . S
C147 C151 1.400 . S
C148 H133 0.960 . S
C148 H134 0.960 1_554 S
C148 H135 0.960 . S
C148 C147 1.524 . S
C149 C146 1.403 . S
C149 C150 1.392 . S
C149 C153 1.495 . S
C150 C149 1.392 . S
C150 C151 1.385 1_556 S
C150 C152 1.478 . S
C151 H145 0.930 . S
C151 C147 1.400 . S
C151 C150 1.385 1_554 S
C152 C150 1.478 . S
C152 C154 1.381 . S
C152 C158 1.383 1_556 S
C153 C149 1.495 . S
C153 H159 0.959 . S
C153 H160 0.961 1_556 S
C153 H161 0.960 . S
C154 C152 1.381 . S
C154 C155 1.394 . S
C154 H162 0.930 . S
C155 C154 1.394 . S
C155 C156 1.370 1_556 S
C155 H163 0.929 . S
C156 C155 1.370 1_554 S
C156 C157 1.388 . S
C157 H141 0.930 . S
C157 C156 1.388 . S
C157 C158 1.379 . S
C158 H142 0.931 . S
C158 C152 1.383 1_554 S
C158 C157 1.379 . S
H159 C153 0.959 . S
H160 C153 0.961 1_554 S
H161 C153 0.960 . S
H162 C154 0.930 . S
H163 C155 0.929 . S
H164 C172 0.929 . S
H165 C174 0.930 . S
H166 C176 0.930 . S
H167 C179 0.929 . S
H168 C182 0.930 . S
H169 C184 0.960 . S
H170 C184 0.960 . S
H171 C184 0.960 . S
C172 H164 0.929 . S
C172 C173 1.377 . S
C172 C174 1.384 . S
C173 C172 1.377 . S
C173 C179 1.390 . S
C174 H165 0.930 . S
C174 C172 1.384 . S
C174 C175 1.372 . S
C175 C174 1.372 . S
C175 C176 1.400 . S
C175 C180 1.490 . S
C176 H166 0.930 . S
C176 C175 1.400 . S
C176 C179 1.386 . S
H177 C193 0.930 . S
H178 C194 0.931 . S
C179 H167 0.929 . S
C179 C173 1.390 . S
C179 C176 1.386 . S
C180 C175 1.490 . S
C180 C182 1.395 . S
C180 C183 1.403 . S
H181 C187 0.930 . S
C182 H168 0.930 . S
C182 C180 1.395 . S
C182 C185 1.403 . S
C183 C180 1.403 . S
C183 C184 1.524 . S
C183 C187 1.400 . S
C184 H169 0.960 . S
C184 H170 0.960 . S
C184 H171 0.960 . S
C184 C183 1.524 . S
C185 C182 1.403 . S
C185 C186 1.392 . S
C185 C189 1.495 . S
C186 C185 1.392 . S
C186 C187 1.385 . S
C186 C188 1.478 . S
C187 H181 0.930 . S
C187 C183 1.400 . S
C187 C186 1.385 . S
C188 C186 1.478 . S
C188 C190 1.381 . S
C188 C194 1.383 . S
C189 C185 1.495 . S
C189 H195 0.959 . S
C189 H196 0.961 . S
C189 H197 0.960 . S
C190 C188 1.381 . S
C190 C191 1.394 . S
C190 H198 0.930 . S
C191 C190 1.394 . S
C191 C192 1.383 . S
C191 H199 0.929 . S
C192 C191 1.383 . S
C192 C193 1.377 . S
C193 H177 0.930 . S
C193 C192 1.377 . S
C193 C194 1.379 . S
C194 H178 0.931 . S
C194 C188 1.383 . S
C194 C193 1.379 . S
H195 C189 0.959 . S
H196 C189 0.961 . S
H197 C189 0.960 . S
H198 C190 0.930 . S
H199 C191 0.929 . S
H200 C208 0.929 . S
H201 C210 0.930 . S
H202 C212 0.930 . S
H203 C215 0.929 . S
H204 C218 0.934 . S
H205 C220 0.960 . S
H206 C220 0.960 1_556 S
H207 C220 0.960 . S
C208 H200 0.929 . S
C208 C209 1.390 . S
C208 C210 1.384 . S
C209 C208 1.390 . S
C209 C215 1.375 1_556 S
C210 H201 0.930 . S
C210 C208 1.384 . S
C210 C211 1.372 . S
C211 C210 1.372 . S
C211 C212 1.400 1_556 S
C211 C216 1.490 . S
C212 H202 0.930 . S
C212 C211 1.400 1_554 S
C212 C215 1.386 . S
H213 C229 0.930 . S
H214 C230 0.931 . S
C215 H203 0.929 . S
C215 C209 1.375 1_554 S
C215 C212 1.386 . S
C216 C211 1.490 . S
C216 C218 1.427 . S
C216 C219 1.403 1_456 S
H217 C223 0.930 . S
C218 H204 0.934 . S
C218 C216 1.427 . S
C218 C221 1.368 1_545 S
C219 C216 1.403 1_654 S
C219 C220 1.524 . S
C219 C223 1.400 1_545 S
C220 H205 0.960 . S
C220 H206 0.960 1_554 S
C220 H207 0.960 . S
C220 C219 1.524 . S
C221 C218 1.368 1_565 S
C221 C222 1.392 1_455 S
C221 C225 1.495 . S
C222 C221 1.392 1_655 S
C222 C223 1.385 1_556 S
C222 C224 1.478 . S
C223 H217 0.930 . S
C223 C219 1.400 1_565 S
C223 C222 1.385 1_554 S
C224 C222 1.478 . S
C224 C226 1.381 . S
C224 C230 1.383 1_556 S
C225 C221 1.495 . S
C225 H231 0.959 . S
C225 H232 0.961 1_556 S
C225 H233 0.960 . S
C226 C224 1.381 . S
C226 C227 1.394 . S
C226 H234 0.930 . S
C227 C226 1.394 . S
C227 C228 1.371 1_556 S
C227 H235 0.929 . S
C228 C227 1.371 1_554 S
C228 C229 1.386 . S
C229 H213 0.930 . S
C229 C228 1.386 . S
C229 C230 1.379 . S
C230 H214 0.931 . S
C230 C224 1.383 1_554 S
C230 C229 1.379 . S
H231 C225 0.959 . S
H232 C225 0.961 1_554 S
H233 C225 0.960 . S
H234 C226 0.930 . S
H235 C227 0.929 . S
H236 C244 0.929 . S
H237 C246 0.930 . S
H238 C248 0.930 . S
H239 C251 0.929 . S
H240 C254 0.930 . S
H241 C256 0.960 . S
H242 C256 0.960 . S
H243 C256 0.960 . S
C244 H236 0.929 . S
C244 C245 1.377 . S
C244 C246 1.384 . S
C245 C244 1.377 . S
C245 C251 1.390 . S
C246 H237 0.930 . S
C246 C244 1.384 . S
C246 C247 1.372 . S
C247 C246 1.372 . S
C247 C248 1.400 . S
C247 C252 1.490 . S
C248 H238 0.930 . S
C248 C247 1.400 . S
C248 C251 1.386 . S
H249 C265 0.930 . S
H250 C266 0.931 . S
C251 H239 0.929 . S
C251 C245 1.390 . S
C251 C248 1.386 . S
C252 C247 1.490 . S
C252 C254 1.395 1_545 S
C252 C255 1.403 1_655 S
H253 C259 0.930 . S
C254 H240 0.930 . S
C254 C252 1.395 1_565 S
C254 C257 1.403 . S
C255 C252 1.403 1_455 S
C255 C256 1.524 . S
C255 C259 1.400 1_545 S
C256 H241 0.960 . S
C256 H242 0.960 . S
C256 H243 0.960 . S
C256 C255 1.524 . S
C257 C254 1.403 . S
C257 C258 1.392 1_655 S
C257 C261 1.495 . S
C258 C257 1.392 1_455 S
C258 C259 1.385 . S
C258 C260 1.478 . S
C259 H253 0.930 . S
C259 C255 1.400 1_565 S
C259 C258 1.385 . S
C260 C258 1.478 . S
C260 C262 1.381 . S
C260 C266 1.383 . S
C261 C257 1.495 . S
C261 H267 0.959 . S
C261 H268 0.961 . S
C261 H269 0.960 . S
C262 C260 1.381 . S
C262 C263 1.394 . S
C262 H270 0.930 1_455 S
C263 C262 1.394 . S
C263 C264 1.383 . S
C263 H271 0.929 . S
C264 C263 1.383 . S
C264 C265 1.377 . S
C265 H249 0.930 . S
C265 C264 1.377 . S
C265 C266 1.379 . S
C266 H250 0.931 . S
C266 C260 1.383 . S
C266 C265 1.379 . S
H267 C261 0.959 . S
H268 C261 0.961 . S
H269 C261 0.960 . S
H270 C262 0.930 1_655 S
H271 C263 0.929 . S
H272 C280 0.929 . S
H273 C282 0.930 . S
H274 C284 0.930 . S
H275 C287 0.929 . S
H276 C290 0.930 . S
H277 C292 0.960 . S
H278 C292 0.960 . S
H279 C292 0.960 . S
C280 H272 0.929 . S
C280 C281 1.377 . S
C280 C282 1.384 . S
C281 C280 1.377 . S
C281 C287 1.390 . S
C282 H273 0.930 . S
C282 C280 1.384 . S
C282 C283 1.372 . S
C283 C282 1.372 . S
C283 C284 1.400 . S
C283 C288 1.490 . S
C284 H274 0.930 . S
C284 C283 1.400 . S
C284 C287 1.386 . S
H285 C301 0.930 . S
H286 C302 0.931 . S
C287 H275 0.929 . S
C287 C281 1.390 . S
C287 C284 1.386 . S
C288 C283 1.490 . S
C288 C290 1.395 . S
C288 C291 1.403 . S
H289 C295 0.930 . S
C290 H276 0.930 . S
C290 C288 1.395 . S
C290 C293 1.403 . S
C291 C288 1.403 . S
C291 C292 1.524 . S
C291 C295 1.400 . S
C292 H277 0.960 . S
C292 H278 0.960 . S
C292 H279 0.960 . S
C292 C291 1.524 . S
C293 C290 1.403 . S
C293 C294 1.392 . S
C293 C297 1.495 . S
C294 C293 1.392 . S
C294 C295 1.385 . S
C294 C296 1.478 . S
C295 H289 0.930 . S
C295 C291 1.400 . S
C295 C294 1.385 . S
C296 C294 1.478 . S
C296 C298 1.381 . S
C296 C302 1.383 . S
C297 C293 1.495 . S
C297 H303 0.959 . S
C297 H304 0.961 . S
C297 H305 0.960 . S
C298 C296 1.381 . S
C298 C299 1.394 . S
C298 H306 0.930 . S
C299 C298 1.394 . S
C299 C300 1.383 . S
C299 H307 0.929 . S
C300 C299 1.383 . S
C300 C301 1.377 . S
C301 H285 0.930 . S
C301 C300 1.377 . S
C301 C302 1.379 . S
C302 H286 0.931 . S
C302 C296 1.383 . S
C302 C301 1.379 . S
H303 C297 0.959 . S
H304 C297 0.961 . S
H305 C297 0.960 . S
H306 C298 0.930 . S
H307 C299 0.929 . S
H308 C316 0.929 . S
H309 C318 0.930 . S
H310 C320 0.930 . S
H311 C323 0.929 . S
H312 C326 0.930 . S
H313 C328 0.960 . S
H314 C328 0.960 . S
H315 C328 0.960 . S
C316 H308 0.929 . S
C316 C317 1.377 . S
C316 C318 1.384 . S
C317 C316 1.377 . S
C317 C323 1.390 . S
C318 H309 0.930 . S
C318 C316 1.384 . S
C318 C319 1.372 . S
C319 C318 1.372 . S
C319 C320 1.400 . S
C319 C324 1.490 . S
C320 H310 0.930 . S
C320 C319 1.400 . S
C320 C323 1.386 . S
H321 C337 0.930 . S
H322 C338 0.931 . S
C323 H311 0.929 . S
C323 C317 1.390 . S
C323 C320 1.386 . S
C324 C319 1.490 . S
C324 C326 1.395 . S
C324 C327 1.403 . S
H325 C331 0.930 . S
C326 H312 0.930 . S
C326 C324 1.395 . S
C326 C329 1.403 . S
C327 C324 1.403 . S
C327 C328 1.524 . S
C327 C331 1.400 . S
C328 H313 0.960 . S
C328 H314 0.960 . S
C328 H315 0.960 . S
C328 C327 1.524 . S
C329 C326 1.403 . S
C329 C330 1.392 . S
C329 C333 1.495 . S
C330 C329 1.392 . S
C330 C331 1.385 . S
C330 C332 1.478 . S
C331 H325 0.930 . S
C331 C327 1.400 . S
C331 C330 1.385 . S
C332 C330 1.478 . S
C332 C334 1.381 . S
C332 C338 1.383 . S
C333 C329 1.495 . S
C333 H339 0.959 . S
C333 H340 0.961 . S
C333 H341 0.960 . S
C334 C332 1.381 . S
C334 C335 1.394 . S
C334 H342 0.930 . S
C335 C334 1.394 . S
C335 C336 1.383 . S
C335 H343 0.929 . S
C336 C335 1.383 . S
C336 C337 1.377 . S
C337 H321 0.930 . S
C337 C336 1.377 . S
C337 C338 1.379 . S
C338 H322 0.931 . S
C338 C332 1.383 . S
C338 C337 1.379 . S
H339 C333 0.959 . S
H340 C333 0.961 . S
H341 C333 0.960 . S
H342 C334 0.930 . S
H343 C335 0.929 . S
H344 C352 0.929 . S
H345 C354 0.930 . S
H346 C356 0.930 . S
H347 C359 0.929 . S
H348 C362 0.930 . S
H349 C364 0.960 . S
H350 C364 0.960 . S
H351 C364 0.960 . S
C352 H344 0.929 . S
C352 C353 1.377 . S
C352 C354 1.384 . S
C353 C352 1.377 . S
C353 C359 1.390 . S
C354 H345 0.930 . S
C354 C352 1.384 . S
C354 C355 1.372 . S
C355 C354 1.372 . S
C355 C356 1.400 . S
C355 C360 1.490 . S
C356 H346 0.930 . S
C356 C355 1.400 . S
C356 C359 1.386 . S
H357 C373 0.930 . S
H358 C374 0.931 . S
C359 H347 0.929 . S
C359 C353 1.390 . S
C359 C356 1.386 . S
C360 C355 1.490 . S
C360 C362 1.395 . S
C360 C363 1.403 . S
H361 C367 0.930 . S
C362 H348 0.930 . S
C362 C360 1.395 . S
C362 C365 1.403 . S
C363 C360 1.403 . S
C363 C364 1.524 . S
C363 C367 1.400 . S
C364 H349 0.960 . S
C364 H350 0.960 . S
C364 H351 0.960 . S
C364 C363 1.524 . S
C365 C362 1.403 . S
C365 C366 1.392 . S
C365 C369 1.495 . S
C366 C365 1.392 . S
C366 C367 1.385 . S
C366 C368 1.478 . S
C367 H361 0.930 . S
C367 C363 1.400 . S
C367 C366 1.385 . S
C368 C366 1.478 . S
C368 C370 1.381 . S
C368 C374 1.383 . S
C369 C365 1.495 . S
C369 H375 0.959 . S
C369 H376 0.961 . S
C369 H377 0.960 . S
C370 C368 1.381 . S
C370 C371 1.394 . S
C370 H378 0.930 . S
C371 C370 1.394 . S
C371 C372 1.383 . S
C371 H379 0.929 . S
C372 C371 1.383 . S
C372 C373 1.377 . S
C373 H357 0.930 . S
C373 C372 1.377 . S
C373 C374 1.379 . S
C374 H358 0.931 . S
C374 C368 1.383 . S
C374 C373 1.379 . S
H375 C369 0.959 . S
H376 C369 0.961 . S
H377 C369 0.960 . S
H378 C370 0.930 . S
H379 C371 0.929 . S
H380 C388 0.929 . S
H381 C390 0.930 . S
H382 C392 0.930 . S
H383 C395 0.929 . S
H384 C398 0.930 . S
H385 C400 0.960 . S
H386 C400 0.960 . S
H387 C400 0.960 . S
C388 H380 0.929 . S
C388 C389 1.377 . S
C388 C390 1.384 . S
C389 C388 1.377 . S
C389 C395 1.390 . S
C390 H381 0.930 . S
C390 C388 1.384 . S
C390 C391 1.372 . S
C391 C390 1.372 . S
C391 C392 1.400 . S
C391 C396 1.490 . S
C392 H382 0.930 . S
C392 C391 1.400 . S
C392 C395 1.386 . S
H393 C409 0.930 . S
H394 C410 0.931 . S
C395 H383 0.929 . S
C395 C389 1.390 . S
C395 C392 1.386 . S
C396 C391 1.490 . S
C396 C398 1.395 . S
C396 C399 1.403 . S
H397 C403 0.930 . S
C398 H384 0.930 . S
C398 C396 1.395 . S
C398 C401 1.403 . S
C399 C396 1.403 . S
C399 C400 1.524 . S
C399 C403 1.400 . S
C400 H385 0.960 . S
C400 H386 0.960 . S
C400 H387 0.960 . S
C400 C399 1.524 . S
C401 C398 1.403 . S
C401 C402 1.392 . S
C401 C405 1.495 . S
C402 C401 1.392 . S
C402 C403 1.385 . S
C402 C404 1.478 . S
C403 H397 0.930 . S
C403 C399 1.400 . S
C403 C402 1.385 . S
C404 C402 1.478 . S
C404 C406 1.381 . S
C404 C410 1.383 . S
C405 C401 1.495 . S
C405 H411 0.959 . S
C405 H412 0.961 . S
C405 H413 0.960 . S
C406 C404 1.381 . S
C406 C407 1.394 . S
C406 H414 0.930 . S
C407 C406 1.394 . S
C407 C408 1.383 . S
C407 H415 0.929 . S
C408 C407 1.383 . S
C408 C409 1.377 . S
C409 H393 0.930 . S
C409 C408 1.377 . S
C409 C410 1.379 . S
C410 H394 0.931 . S
C410 C404 1.383 . S
C410 C409 1.379 . S
H411 C405 0.959 . S
H412 C405 0.961 . S
H413 C405 0.960 . S
H414 C406 0.930 . S
H415 C407 0.929 . S
H416 C424 0.929 . S
H417 C426 0.930 . S
H418 C428 0.930 . S
H419 C431 0.929 . S
H420 C434 0.930 . S
H421 C436 0.960 . S
H422 C436 0.960 . S
H423 C436 0.960 . S
C424 H416 0.929 . S
C424 C425 1.377 . S
C424 C426 1.384 . S
C425 C424 1.377 . S
C425 C431 1.390 . S
C426 H417 0.930 . S
C426 C424 1.384 . S
C426 C427 1.372 . S
C427 C426 1.372 . S
C427 C428 1.400 . S
C427 C432 1.490 . S
C428 H418 0.930 . S
C428 C427 1.400 . S
C428 C431 1.386 . S
H429 C445 0.930 . S
H430 C446 0.931 . S
C431 H419 0.929 . S
C431 C425 1.390 . S
C431 C428 1.386 . S
C432 C427 1.490 . S
C432 C434 1.395 1_655 S
C432 C435 1.403 . S
H433 C439 0.930 . S
C434 H420 0.930 . S
C434 C432 1.395 1_455 S
C434 C437 1.403 . S
C435 C432 1.403 . S
C435 C436 1.524 . S
C435 C439 1.400 1_655 S
C436 H421 0.960 . S
C436 H422 0.960 . S
C436 H423 0.960 . S
C436 C435 1.524 . S
C437 C434 1.403 . S
C437 C438 1.392 . S
C437 C441 1.495 . S
C438 C437 1.392 . S
C438 C439 1.385 . S
C438 C440 1.478 . S
C439 H433 0.930 . S
C439 C435 1.400 1_455 S
C439 C438 1.385 . S
C440 C438 1.478 . S
C440 C442 1.381 . S
C440 C446 1.383 . S
C441 C437 1.495 . S
C441 H447 0.959 . S
C441 H448 0.961 . S
C441 H449 0.960 . S
C442 C440 1.381 . S
C442 C443 1.394 . S
C442 H450 0.930 . S
C443 C442 1.394 . S
C443 C444 1.383 . S
C443 H451 0.929 . S
C444 C443 1.383 . S
C444 C445 1.377 . S
C445 H429 0.930 . S
C445 C444 1.377 . S
C445 C446 1.379 . S
C446 H430 0.931 . S
C446 C440 1.383 . S
C446 C445 1.379 . S
H447 C441 0.959 . S
H448 C441 0.961 . S
H449 C441 0.960 . S
H450 C442 0.930 . S
H451 C443 0.929 . S
H452 C460 0.929 . S
H453 C462 0.930 . S
H454 C464 0.930 . S
H455 C467 0.929 . S
H456 C470 0.930 . S
H457 C472 0.960 . S
H458 C472 0.960 . S
H459 C472 0.960 . S
C460 H452 0.929 . S
C460 C461 1.377 . S
C460 C462 1.384 . S
C461 C460 1.377 . S
C461 C467 1.390 . S
C462 H453 0.930 . S
C462 C460 1.384 . S
C462 C463 1.372 . S
C463 C462 1.372 . S
C463 C464 1.400 . S
C463 C468 1.490 . S
C464 H454 0.930 . S
C464 C463 1.400 . S
C464 C467 1.386 . S
H465 C481 0.930 . S
H466 C482 0.931 . S
C467 H455 0.929 . S
C467 C461 1.390 . S
C467 C464 1.386 . S
C468 C463 1.490 . S
C468 C470 1.395 . S
C468 C471 1.403 1_655 S
H469 C475 0.930 . S
C470 H456 0.930 . S
C470 C468 1.395 . S
C470 C473 1.403 . S
C471 C468 1.403 1_455 S
C471 C472 1.524 . S
C471 C475 1.400 . S
C472 H457 0.960 . S
C472 H458 0.960 . S
C472 H459 0.960 . S
C472 C471 1.524 . S
C473 C470 1.403 . S
C473 C474 1.392 1_655 S
C473 C477 1.495 . S
C474 C473 1.392 1_455 S
C474 C475 1.385 . S
C474 C476 1.478 . S
C475 H469 0.930 . S
C475 C471 1.400 . S
C475 C474 1.385 . S
C476 C474 1.478 . S
C476 C478 1.381 . S
C476 C482 1.383 . S
C477 C473 1.495 . S
C477 H483 0.959 . S
C477 H484 0.961 . S
C477 H485 0.960 . S
C478 C476 1.381 . S
C478 C479 1.394 . S
C478 H486 0.930 . S
C479 C478 1.394 . S
C479 C480 1.383 . S
C479 H487 0.929 . S
C480 C479 1.383 . S
C480 C481 1.377 . S
C481 H465 0.930 . S
C481 C480 1.377 . S
C481 C482 1.379 . S
C482 H466 0.931 . S
C482 C476 1.383 . S
C482 C481 1.379 . S
H483 C477 0.959 . S
H484 C477 0.961 . S
H485 C477 0.960 . S
H486 C478 0.930 . S
H487 C479 0.929 . S
H488 C496 0.929 . S
H489 C498 0.930 . S
H490 C500 0.930 . S
H491 C503 0.929 . S
H492 C506 0.930 . S
H493 C508 0.960 . S
H494 C508 0.960 . S
H495 C508 0.960 . S
C496 H488 0.929 . S
C496 C497 1.377 . S
C496 C498 1.384 . S
C497 C496 1.377 . S
C497 C503 1.390 . S
C498 H489 0.930 . S
C498 C496 1.384 . S
C498 C499 1.372 . S
C499 C498 1.372 . S
C499 C500 1.400 . S
C499 C504 1.490 . S
C500 H490 0.930 . S
C500 C499 1.400 . S
C500 C503 1.386 . S
H501 C517 0.930 . S
H502 C518 0.931 . S
C503 H491 0.929 . S
C503 C497 1.390 . S
C503 C500 1.386 . S
C504 C499 1.490 . S
C504 C506 1.395 . S
C504 C507 1.403 1_655 S
H505 C511 0.930 . S
C506 H492 0.930 . S
C506 C504 1.395 . S
C506 C509 1.403 . S
C507 C504 1.403 1_455 S
C507 C508 1.524 . S
C507 C511 1.400 . S
C508 H493 0.960 . S
C508 H494 0.960 . S
C508 H495 0.960 . S
C508 C507 1.524 . S
C509 C506 1.403 . S
C509 C510 1.392 1_655 S
C509 C513 1.495 . S
C510 C509 1.392 1_455 S
C510 C511 1.385 . S
C510 C512 1.478 . S
C511 H505 0.930 . S
C511 C507 1.400 . S
C511 C510 1.385 . S
C512 C510 1.478 . S
C512 C514 1.381 . S
C512 C518 1.383 . S
C513 C509 1.495 . S
C513 H519 0.959 . S
C513 H520 0.961 . S
C513 H521 0.960 . S
C514 C512 1.381 . S
C514 C515 1.394 . S
C514 H522 0.930 . S
C515 C514 1.394 . S
C515 C516 1.383 . S
C515 H523 0.929 . S
C516 C515 1.383 . S
C516 C517 1.377 . S
C517 H501 0.930 . S
C517 C516 1.377 . S
C517 C518 1.379 . S
C518 H502 0.931 . S
C518 C512 1.383 . S
C518 C517 1.379 . S
H519 C513 0.959 . S
H520 C513 0.961 . S
H521 C513 0.960 . S
H522 C514 0.930 . S
H523 C515 0.929 . S
H524 C532 0.929 . S
H525 C534 0.930 . S
H526 C536 0.930 . S
H527 C539 0.929 . S
H528 C542 0.930 . S
H529 C544 0.960 . S
H530 C544 0.960 . S
H531 C544 0.960 . S
C532 H524 0.929 . S
C532 C533 1.377 . S
C532 C534 1.384 . S
C533 C532 1.377 . S
C533 C539 1.390 . S
C534 H525 0.930 . S
C534 C532 1.384 . S
C534 C535 1.372 . S
C535 C534 1.372 . S
C535 C536 1.400 . S
C535 C540 1.490 . S
C536 H526 0.930 . S
C536 C535 1.400 . S
C536 C539 1.386 . S
H537 C553 0.930 . S
H538 C554 0.931 . S
C539 H527 0.929 . S
C539 C533 1.390 . S
C539 C536 1.386 . S
C540 C535 1.490 . S
C540 C542 1.395 . S
C540 C543 1.403 . S
H541 C547 0.930 . S
C542 H528 0.930 . S
C542 C540 1.395 . S
C542 C545 1.403 1_455 S
C543 C540 1.403 . S
C543 C544 1.524 . S
C543 C547 1.400 . S
C544 H529 0.960 . S
C544 H530 0.960 . S
C544 H531 0.960 . S
C544 C543 1.524 . S
C545 C542 1.403 1_655 S
C545 C546 1.392 . S
C545 C549 1.495 . S
C546 C545 1.392 . S
C546 C547 1.385 1_655 S
C546 C548 1.478 . S
C547 H541 0.930 . S
C547 C543 1.400 . S
C547 C546 1.385 1_455 S
C548 C546 1.478 . S
C548 C550 1.381 . S
C548 C554 1.383 . S
C549 C545 1.495 . S
C549 H555 0.959 . S
C549 H556 0.961 . S
C549 H557 0.960 . S
C550 C548 1.381 . S
C550 C551 1.394 . S
C550 H558 0.930 1_655 S
C551 C550 1.394 . S
C551 C552 1.383 . S
C551 H559 0.929 . S
C552 C551 1.383 . S
C552 C553 1.377 . S
C553 H537 0.930 . S
C553 C552 1.377 . S
C553 C554 1.379 . S
C554 H538 0.931 . S
C554 C548 1.383 . S
C554 C553 1.379 . S
H555 C549 0.959 . S
H556 C549 0.961 . S
H557 C549 0.960 . S
H558 C550 0.930 1_455 S
H559 C551 0.929 . S
C137 N45 1.592 . S
C156 N18 1.553 . S
C173 N77 1.569 . S
C192 N114 1.581 . S
C209 N13 1.592 . S
C228 N50 1.553 . S
C245 N109 1.571 . S
C264 N82 1.593 . S
C281 C98 0.796 . S
C300 C29 0.806 . S
C317 C38 0.802 . S
C336 C68 0.790 . S
C353 C34 0.825 . S
C372 C93 0.831 . S
C389 C102 0.828 . S
C408 C4 0.836 . S
C425 C61 0.800 . S
C444 C66 0.803 . S
C461 C100 0.802 . S
C480 C6 0.806 . S
C497 C125 0.829 . S
C516 C2 0.842 . S
C533 C70 0.822 . S
C552 C36 0.813 . S
