# Generated by pormake.
# Topology lcy-e, (6)-cn, num edge types: 1
# Building blocks:
#     Node 0, Type 0, BuildingBlock: GEDQOX_clean_sbu_0, # of connection points: 6
#     Node 1, Type 0, BuildingBlock: GEDQOX_clean_sbu_0, # of connection points: 6
#     Node 2, Type 0, BuildingBlock: GEDQOX_clean_sbu_0, # of connection points: 6
#     Node 3, Type 0, BuildingBlock: GEDQOX_clean_sbu_0, # of connection points: 6
#     Node 4, Type 0, BuildingBlock: GEDQOX_clean_sbu_0, # of connection points: 6
#     Node 5, Type 0, BuildingBlock: GEDQOX_clean_sbu_0, # of connection points: 6
#     Node 6, Type 0, BuildingBlock: GEDQOX_clean_sbu_0, # of connection points: 6
#     Node 7, Type 0, BuildingBlock: GEDQOX_clean_sbu_0, # of connection points: 6
#     Node 8, Type 0, BuildingBlock: GEDQOX_clean_sbu_0, # of connection points: 6
#     Node 9, Type 0, BuildingBlock: GEDQOX_clean_sbu_0, # of connection points: 6
#     Node 10, Type 0, BuildingBlock: GEDQOX_clean_sbu_0, # of connection points: 6
#     Node 11, Type 0, BuildingBlock: GEDQOX_clean_sbu_0, # of connection points: 6
#     Edge 12, Type (0, 0), BuildingBlock: EZIPEK_clean_linker_0, # of connection points: 2
#     Edge 13, Type (0, 0), BuildingBlock: EZIPEK_clean_linker_0, # of connection points: 2
#     Edge 14, Type (0, 0), BuildingBlock: EZIPEK_clean_linker_0, # of connection points: 2
#     Edge 15, Type (0, 0), BuildingBlock: EZIPEK_clean_linker_0, # of connection points: 2
#     Edge 16, Type (0, 0), BuildingBlock: EZIPEK_clean_linker_0, # of connection points: 2
#     Edge 17, Type (0, 0), BuildingBlock: EZIPEK_clean_linker_0, # of connection points: 2
#     Edge 18, Type (0, 0), BuildingBlock: EZIPEK_clean_linker_0, # of connection points: 2
#     Edge 19, Type (0, 0), BuildingBlock: EZIPEK_clean_linker_0, # of connection points: 2
#     Edge 20, Type (0, 0), BuildingBlock: EZIPEK_clean_linker_0, # of connection points: 2
#     Edge 21, Type (0, 0), BuildingBlock: EZIPEK_clean_linker_0, # of connection points: 2
#     Edge 22, Type (0, 0), BuildingBlock: EZIPEK_clean_linker_0, # of connection points: 2
#     Edge 23, Type (0, 0), BuildingBlock: EZIPEK_clean_linker_0, # of connection points: 2
#     Edge 24, Type (0, 0), BuildingBlock: EZIPEK_clean_linker_0, # of connection points: 2
#     Edge 25, Type (0, 0), BuildingBlock: EZIPEK_clean_linker_0, # of connection points: 2
#     Edge 26, Type (0, 0), BuildingBlock: EZIPEK_clean_linker_0, # of connection points: 2
#     Edge 27, Type (0, 0), BuildingBlock: EZIPEK_clean_linker_0, # of connection points: 2
#     Edge 28, Type (0, 0), BuildingBlock: EZIPEK_clean_linker_0, # of connection points: 2
#     Edge 29, Type (0, 0), BuildingBlock: EZIPEK_clean_linker_0, # of connection points: 2
#     Edge 30, Type (0, 0), BuildingBlock: EZIPEK_clean_linker_0, # of connection points: 2
#     Edge 31, Type (0, 0), BuildingBlock: EZIPEK_clean_linker_0, # of connection points: 2
#     Edge 32, Type (0, 0), BuildingBlock: EZIPEK_clean_linker_0, # of connection points: 2
#     Edge 33, Type (0, 0), BuildingBlock: EZIPEK_clean_linker_0, # of connection points: 2
#     Edge 34, Type (0, 0), BuildingBlock: EZIPEK_clean_linker_0, # of connection points: 2
#     Edge 35, Type (0, 0), BuildingBlock: EZIPEK_clean_linker_0, # of connection points: 2
#     Edge 36, Type (0, 0), BuildingBlock: EZIPEK_clean_linker_0, # of connection points: 2
#     Edge 37, Type (0, 0), BuildingBlock: EZIPEK_clean_linker_0, # of connection points: 2
#     Edge 38, Type (0, 0), BuildingBlock: EZIPEK_clean_linker_0, # of connection points: 2
#     Edge 39, Type (0, 0), BuildingBlock: EZIPEK_clean_linker_0, # of connection points: 2
#     Edge 40, Type (0, 0), BuildingBlock: EZIPEK_clean_linker_0, # of connection points: 2
#     Edge 41, Type (0, 0), BuildingBlock: EZIPEK_clean_linker_0, # of connection points: 2
#     Edge 42, Type (0, 0), BuildingBlock: EZIPEK_clean_linker_0, # of connection points: 2
#     Edge 43, Type (0, 0), BuildingBlock: EZIPEK_clean_linker_0, # of connection points: 2
#     Edge 44, Type (0, 0), BuildingBlock: EZIPEK_clean_linker_0, # of connection points: 2
#     Edge 45, Type (0, 0), BuildingBlock: EZIPEK_clean_linker_0, # of connection points: 2
#     Edge 46, Type (0, 0), BuildingBlock: EZIPEK_clean_linker_0, # of connection points: 2
#     Edge 47, Type (0, 0), BuildingBlock: EZIPEK_clean_linker_0, # of connection points: 2
# Relax obj value: 0.433
# Max RMSD: 0.359
# Mean RMSD: 0.266
data_MOF--net-lcy-e--node1-GEDQOX_clean_sbu_0--edge1-EZIPEK_clean_linker_0
_symmetry_space_group_name_H-M    P1
_symmetry_Int_Tables_number       1
_symmetry_cell_setting            triclinic
loop_
_symmetry_equiv_pos_as_xyz
'x, y, z'
_cell_length_a     28.92083
_cell_length_b     36.012997
_cell_length_c     35.118327
_cell_angle_alpha  90.559562
_cell_angle_beta   85.838593
_cell_angle_gamma 73.394835
loop_
_atom_site_label
_atom_site_type_symbol
_atom_site_fract_x
_atom_site_fract_y
_atom_site_fract_z
_atom_type_partial_charge
Nd0 Nd 0.11593 0.2312 0.46486 0.0
Nd1 Nd 0.17666 0.25603 0.49586 0.0
C2 C 0.05019 0.19382 0.44497 0.0
C3 C 0.01537 0.16765 0.44651 0.0
C4 C 0.02858 0.12934 0.46029 0.0
C5 C 0.99841 0.10405 0.45792 0.0
C6 C 0.95327 0.11522 0.44127 0.0
C7 C 0.93995 0.15361 0.42777 0.0
C8 C 0.97002 0.17895 0.4303 0.0
C9 C 0.20977 0.20546 0.42007 0.0
C10 C 0.16469 0.17922 0.53333 0.0
C11 C 0.23648 0.29087 0.52343 0.0
C12 C 0.24829 0.32414 0.50593 0.0
C13 C 0.25075 0.32695 0.46596 0.0
C14 C 0.24887 0.36215 0.44917 0.0
C15 C 0.24832 0.39441 0.47193 0.0
C16 C 0.24788 0.39109 0.51186 0.0
C17 C 0.24761 0.3563 0.52877 0.0
C18 C 0.09565 0.26139 0.56148 0.0
C19 C 0.13839 0.3026 0.41621 0.0
O20 O 0.03802 0.2309 0.45472 0.0
O21 O 0.09667 0.17816 0.44594 0.0
O22 O 0.16804 0.22188 0.40746 0.0
O23 O 0.20141 0.20326 0.45597 0.0
O24 O 0.12751 0.1884 0.51283 0.0
O25 O 0.19628 0.19935 0.53006 0.0
O26 O 0.25158 0.25798 0.50426 0.0
O27 O 0.19156 0.2982 0.53618 0.0
O28 O 0.09978 0.27279 0.52624 0.0
O29 O 0.1014 0.2722 0.52547 0.0
O30 O 0.17045 0.29642 0.44213 0.0
O31 O 0.10543 0.28332 0.42126 0.0
H32 H 0.06295 0.11848 0.47264 0.0
H33 H 1.01089 0.07519 0.46887 0.0
H34 H 0.90597 0.16415 0.41482 0.0
H35 H 0.95793 0.20754 0.41866 0.0
H36 H 0.25236 0.30226 0.44768 0.0
H37 H 0.24714 0.36424 0.41853 0.0
H38 H 0.2462 0.41597 0.53009 0.0
H39 H 0.24483 0.35498 0.55963 0.0
Nd40 Nd 1.0065 0.9413 0.71221 0.0
Nd41 Nd 0.97289 0.87765 0.72953 0.0
C42 C 0.02059 1.01017 0.69705 0.0
C43 C 0.04799 0.03019 0.67099 0.0
C44 C 0.02661 0.06901 0.6622 0.0
C45 C 0.05311 0.08989 0.64084 0.0
C46 C 0.1017 0.07243 0.62782 0.0
C47 C 0.12314 0.03345 0.63629 0.0
C48 C 0.09655 1.01251 0.6576 0.0
C49 C 0.07332 0.87417 0.68327 0.0
C50 C 0.93336 0.91698 0.64691 0.0
C51 C 0.96311 0.80825 0.7447 0.0
C52 C 0.99583 0.77207 0.75796 0.0
C53 C 0.02058 0.74182 0.73171 0.0
C54 C 0.05558 0.70945 0.74373 0.0
C55 C 0.06544 0.70674 0.78222 0.0
C56 C 0.03954 0.73615 0.80858 0.0
C57 C 1.00509 0.76848 0.79664 0.0
C58 C 0.90545 0.94466 0.76225 0.0
C59 C 0.05631 0.89302 0.78885 0.0
O60 O 0.98524 0.99902 0.68432 0.0
O61 O 0.04544 0.98529 0.71988 0.0
O62 O 0.08462 0.9037 0.69641 0.0
O63 O 0.02806 0.8818 0.68228 0.0
O64 O 0.95565 0.94295 0.65836 0.0
O65 O 0.93599 0.88722 0.66984 0.0
O66 O 0.97392 0.81844 0.71044 0.0
O67 O 0.94951 0.83773 0.769 0.0
O68 O 0.89504 0.91706 0.74389 0.0
O69 O 0.95139 0.93734 0.76089 0.0
O70 O 0.03545 0.86747 0.77493 0.0
O71 O 0.04515 0.92727 0.7717 0.0
H72 H 0.9895 0.08348 0.67247 0.0
H73 H 0.03573 0.11982 0.63461 0.0
H74 H 0.16048 0.01931 0.62646 0.0
H75 H 0.11417 0.98269 0.66409 0.0
H76 H 0.014 0.74379 0.70172 0.0
H77 H 0.07524 0.68686 0.72312 0.0
H78 H 0.04653 0.73428 0.83851 0.0
H79 H 0.98655 0.79099 0.81769 0.0
Nd80 Nd 0.28989 0.85452 0.95737 0.0
Nd81 Nd 0.23784 0.80956 1.00303 0.0
C82 C 0.35192 0.8928 0.92889 0.0
C83 C 0.39345 0.90951 0.93603 0.0
C84 C 0.43481 0.88857 0.95401 0.0
C85 C 0.47545 0.90296 0.95636 0.0
C86 C 0.47655 0.9387 0.9406 0.0
C87 C 0.43501 0.95979 0.92311 0.0
C88 C 0.39436 0.94551 0.9209 0.0
C89 C 0.20738 0.85035 0.91521 0.0
C90 C 0.24085 0.89533 0.04019 0.0
C91 C 0.19416 0.75958 0.03818 0.0
C92 C 0.20592 0.71814 0.05465 0.0
C93 C 0.22145 0.68364 1.03139 0.0
C94 C 0.23013 0.64579 0.04689 0.0
C95 C 0.22233 0.63999 0.08654 0.0
C96 C 0.2059 0.67458 0.10962 0.0
C97 C 0.1982 0.71234 0.09423 0.0
C98 C 0.33114 0.79885 1.02867 0.0
C99 C 0.3224 0.76374 0.94359 0.0
O100 O 0.36053 0.85512 0.92778 0.0
O101 O 0.30769 0.91027 0.94304 0.0
O102 O 0.25132 0.84824 0.90232 0.0
O103 O 0.20723 0.85328 0.95263 0.0
O104 O 0.26585 0.89794 1.008 0.0
O105 O 0.22074 0.86608 0.04423 0.0
O106 O 0.19842 0.76374 1.00126 0.0
O107 O 0.20565 0.7874 0.05597 0.0
O108 O 0.3105 0.77204 1.02329 0.0
O109 O 0.30282 0.82976 1.01719 0.0
O110 O 0.27624 0.76901 0.95272 0.0
O111 O 0.33987 0.79314 0.9474 0.0
H112 H 0.43619 0.8606 0.96572 0.0
H113 H 0.50651 0.8858 0.97009 0.0
H114 H 0.4342 0.98735 0.91066 0.0
H115 H 0.36382 0.96238 0.9064 0.0
H116 H 0.22664 0.68571 1.0008 0.0
H117 H 0.24291 0.62078 1.0275 0.0
H118 H 0.19912 0.67245 0.14014 0.0
H119 H 0.18548 0.73734 0.11363 0.0
Nd120 Nd 0.44479 0.10509 0.23325 0.0
Nd121 Nd 0.49899 0.14487 0.2622 0.0
C122 C 0.40049 0.05876 0.19865 0.0
C123 C 0.37317 0.03413 0.17958 0.0
C124 C 0.39722 0.99809 0.16108 0.0
C125 C 0.37159 0.97651 0.14158 0.0
C126 C 0.32081 0.98982 0.14006 0.0
C127 C 0.29669 0.02556 0.15908 0.0
C128 C 0.32232 0.04732 0.17824 0.0
C129 C 0.40784 0.18682 0.22117 0.0
C130 C 0.53524 0.11487 0.17353 0.0
C131 C 0.53218 0.19471 0.29946 0.0
C132 C 0.5057 0.23091 0.31956 0.0
C133 C 0.45766 0.249 0.31178 0.0
C134 C 0.42871 0.27923 0.33531 0.0
C135 C 0.44617 0.28868 0.36904 0.0
C136 C 0.495 0.27215 0.37582 0.0
C137 C 0.52489 0.24362 0.35084 0.0
C138 C 0.5518 0.06883 0.27466 0.0
C139 C 0.39401 0.14462 0.3128 0.0
O140 O 0.44549 0.0466 0.20731 0.0
O141 O 0.37987 0.09481 0.20902 0.0
O142 O 0.38306 0.16429 0.23426 0.0
O143 O 0.45111 0.16604 0.21515 0.0
O144 O 0.50219 0.09623 0.18016 0.0
O145 O 0.54015 0.13874 0.20094 0.0
O146 O 0.53042 0.19426 0.26256 0.0
O147 O 0.52444 0.16406 0.31481 0.0
O148 O 0.56747 0.09513 0.25813 0.0
O149 O 0.50448 0.0816 0.27879 0.0
O150 O 0.4253 0.16472 0.30361 0.0
O151 O 0.40023 0.11238 0.29242 0.0
H152 H 0.43619 0.98682 0.16098 0.0
H153 H 0.39181 0.94962 0.12705 0.0
H154 H 0.2578 0.03701 0.15867 0.0
H155 H 0.30208 0.07483 0.1919 0.0
H156 H 0.44133 0.23773 0.28942 0.0
H157 H 0.39129 0.29211 0.32951 0.0
H158 H 0.5091 0.27959 0.40169 0.0
H159 H 0.56165 0.22947 0.35755 0.0
Nd160 Nd 0.60287 0.39032 0.62686 0.0
Nd161 Nd 0.51141 0.37284 0.62378 0.0
C162 C 0.69041 0.39969 0.61899 0.0
C163 C 0.7204 0.41511 0.643 0.0
C164 C 0.76882 0.39384 0.64513 0.0
C165 C 0.79742 0.40633 0.66962 0.0
C166 C 0.77803 0.44036 0.69214 0.0
C167 C 0.72991 0.46233 0.6895 0.0
C168 C 0.70099 0.44956 0.66522 0.0
C169 C 0.52368 0.4521 0.65358 0.0
C170 C 0.5692 0.3491 0.69993 0.0
C171 C 0.42376 0.36506 0.62738 0.0
C172 C 0.40239 0.35271 0.59474 0.0
C173 C 0.36624 0.38019 0.57703 0.0
C174 C 0.35974 0.37499 0.5386 0.0
C175 C 0.38922 0.34233 0.51785 0.0
C176 C 0.42213 0.31335 0.53645 0.0
C177 C 0.42801 0.31809 0.57476 0.0
C178 C 0.58614 0.3148 0.58645 0.0
C179 C 0.54706 0.4154 0.5512 0.0
O180 O 0.68223 0.36751 0.63001 0.0
O181 O 0.6522 0.42446 0.60726 0.0
O182 O 0.56415 0.44187 0.67005 0.0
O183 O 0.52699 0.42955 0.62578 0.0
O184 O 0.60742 0.3542 0.68058 0.0
O185 O 0.5259 0.36279 0.68732 0.0
O186 O 0.43212 0.39863 0.62359 0.0
O187 O 0.46035 0.33902 0.64005 0.0
O188 O 0.54339 0.32878 0.57437 0.0
O189 O 0.58792 0.33206 0.61772 0.0
O190 O 0.50871 0.41216 0.57206 0.0
O191 O 0.59016 0.39834 0.56292 0.0
H192 H 0.78426 0.36719 0.62833 0.0
H193 H 0.83467 0.3892 0.67136 0.0
H194 H 0.71468 0.48873 0.70668 0.0
H195 H 0.66348 0.46626 0.66424 0.0
H196 H 0.3466 0.40734 0.59172 0.0
H197 H 0.33506 0.39792 0.52428 0.0
H198 H 0.44476 0.28769 0.52082 0.0
H199 H 0.45611 0.29619 0.58744 0.0
Nd200 Nd 1.00739 0.35583 0.81976 0.0
Nd201 Nd 0.04868 0.4044 0.78092 0.0
C202 C 0.96147 0.30374 0.84607 0.0
C203 C 0.93481 0.27469 0.86129 0.0
C204 C 0.95382 0.23417 0.85421 0.0
C205 C 0.92948 0.20738 0.86888 0.0
C206 C 0.88517 0.21959 0.89186 0.0
C207 C 0.8663 0.26004 0.89918 0.0
C208 C 0.89041 0.28687 0.88423 0.0
C209 C 1.0028 0.42182 0.87055 0.0
C210 C 0.93883 0.42316 0.77336 0.0
C211 C 0.09989 0.44926 0.75093 0.0
C212 C 0.12525 0.47983 0.75208 0.0
C213 C 0.17614 0.4693 0.74765 0.0
C214 C 0.20041 0.497 0.73841 0.0
C215 C 0.17427 0.53573 0.73333 0.0
C216 C 0.12375 0.54692 0.74054 0.0
C217 C 0.09942 0.51928 0.7499 0.0
C218 C 0.04458 0.34873 0.72277 0.0
C219 C 0.10467 0.3599 0.85391 0.0
O220 O 1.00555 0.29388 0.82964 0.0
O221 O 0.94166 0.34125 0.84707 0.0
O222 O 1.00933 0.38593 0.87969 0.0
O223 O 0.99609 0.4228 0.83472 0.0
O224 O 0.94842 0.38622 0.781 0.0
O225 O 0.97088 0.44151 0.77902 0.0
O226 O 0.05269 0.45921 0.7546 0.0
O227 O 0.11976 0.41472 0.76347 0.0
O228 O 0.03065 0.38602 0.72169 0.0
O229 O 0.05533 0.34059 0.75833 0.0
O230 O 0.09666 0.39023 0.83215 0.0
O231 O 0.07903 0.33563 0.84879 0.0
H232 H 0.9877 0.22298 0.83698 0.0
H233 H 0.94539 0.17678 0.86204 0.0
H234 H 0.83227 0.2711 0.91625 0.0
H235 H 0.8741 0.31746 0.89086 0.0
H236 H 0.19711 0.43918 0.74866 0.0
H237 H 0.23937 0.48767 0.73251 0.0
H238 H 0.10291 0.57647 0.736 0.0
H239 H 0.06023 0.52845 0.75272 0.0
Nd240 Nd 0.9091 0.6069 0.06365 0.0
Nd241 Nd 0.98411 0.62844 0.04449 0.0
C242 C 0.8223 0.59815 0.07986 0.0
C243 C 0.78725 0.60708 0.11283 0.0
C244 C 0.80281 0.60592 0.14983 0.0
C245 C 0.76945 0.62064 0.18068 0.0
C246 C 0.72056 0.63671 0.17456 0.0
C247 C 0.70469 0.63653 0.13785 0.0
C248 C 0.73806 0.62168 0.107 0.0
C249 C 0.98453 0.56945 0.10841 0.0
C250 C 0.92038 0.6789 0.11932 0.0
C251 C 0.06277 0.64598 1.01766 0.0
C252 C 0.08866 0.64566 0.97975 0.0
C253 C 0.12525 0.61236 0.96564 0.0
C254 C 0.14463 0.60991 0.92771 0.0
C255 C 0.12713 0.64051 0.90341 0.0
C256 C 0.09369 0.67489 0.91841 0.0
C257 C 0.07514 0.67763 0.95634 0.0
C258 C 0.88512 0.68197 1.01205 0.0
C259 C 0.97343 0.55216 0.99327 0.0
O260 O 0.82955 0.62842 0.0633 0.0
O261 O 0.86231 0.57081 0.08362 0.0
O262 O 0.95935 0.55198 0.08967 0.0
O263 O 0.97226 0.60474 0.10141 0.0
O264 O 0.89034 0.65945 0.10895 0.0
O265 O 0.96326 0.6703 0.09949 0.0
O266 O 0.06295 0.6119 1.03033 0.0
O267 O 0.0207 0.67206 1.0247 0.0
O268 O 0.9155 0.64739 1.01332 0.0
O269 O 0.916 0.64795 1.01392 0.0
O270 O 1.00585 0.56782 1.00717 0.0
O271 O 0.92879 0.56636 1.00853 0.0
H272 H 0.84083 0.59498 0.15466 0.0
H273 H 0.78183 0.6207 0.20907 0.0
H274 H 0.66686 0.64891 0.13306 0.0
H275 H 0.72582 0.62302 0.07846 0.0
H276 H 0.13761 0.58764 0.98345 0.0
H277 H 0.17161 0.58366 0.91701 0.0
H278 H 0.08039 0.69919 0.90025 0.0
H279 H 0.0488 0.70424 0.96684 0.0
Nd280 Nd 0.55754 0.71142 0.38872 0.0
Nd281 Nd 0.49607 0.76167 0.34975 0.0
C282 C 0.59745 0.65783 0.438 0.0
C283 C 0.58719 0.62209 0.45232 0.0
C284 C 0.54298 0.61477 0.44661 0.0
C285 C 0.53427 0.58011 0.45842 0.0
C286 C 0.56855 0.55284 0.47813 0.0
C287 C 0.61234 0.56071 0.48472 0.0
C288 C 0.62177 0.59477 0.47155 0.0
C289 C 0.58863 0.78039 0.39099 0.0
C290 C 0.45368 0.7487 0.43098 0.0
C291 C 0.45263 0.80957 0.29611 0.0
C292 C 0.43836 0.8062 0.25572 0.0
C293 C 0.47229 0.78767 0.22546 0.0
C294 C 0.45843 0.78595 0.18776 0.0
C295 C 0.41021 0.80273 0.17889 0.0
C296 C 0.37629 0.82103 0.20907 0.0
C297 C 0.39011 0.82276 0.24675 0.0
C298 C 0.46874 0.69226 0.34584 0.0
C299 C 0.59258 0.70533 0.30427 0.0
O300 O 0.61319 0.65701 0.40216 0.0
O301 O 0.5651 0.69053 0.44799 0.0
O302 O 0.61448 0.74558 0.38077 0.0
O303 O 0.54395 0.77949 0.39488 0.0
O304 O 0.48651 0.71602 0.42214 0.0
O305 O 0.4532 0.77841 0.40915 0.0
O306 O 0.49848 0.80169 0.30169 0.0
O307 O 0.42921 0.7971 0.32387 0.0
O308 O 0.44017 0.72678 0.35257 0.0
O309 O 0.51227 0.69456 0.343 0.0
O310 O 0.5627 0.74046 0.30626 0.0
O311 O 0.59344 0.6828 0.33305 0.0
H312 H 0.51517 0.63583 0.43286 0.0
H313 H 0.50027 0.57491 0.45282 0.0
H314 H 0.63939 0.5403 0.49983 0.0
H315 H 0.65603 0.59984 0.47652 0.0
H316 H 0.50976 0.77448 0.23083 0.0
H317 H 0.48553 0.77148 0.16538 0.0
H318 H 0.33885 0.83393 0.20351 0.0
H319 H 0.36288 0.83732 0.26901 0.0
Nd320 Nd 0.20302 0.41341 0.19606 0.0
Nd321 Nd 0.24326 0.45088 0.23745 0.0
C322 C 0.1772 0.38553 0.13223 0.0
C323 C 0.16454 0.38808 0.09124 0.0
C324 C 0.19749 0.39325 0.06152 0.0
C325 C 0.18903 0.38928 1.02287 0.0
C326 C 0.14741 0.37996 1.01254 0.0
C327 C 0.11358 0.37616 0.04213 0.0
C328 C 0.12212 0.38003 0.08087 0.0
C329 C 0.1933 0.38358 0.27215 0.0
C330 C 0.1275 0.48901 0.21275 0.0
C331 C 0.29738 0.48202 0.2815 0.0
C332 C 0.3203 0.51499 0.28861 0.0
C333 C 0.30666 0.53997 0.32148 0.0
C334 C 0.33161 0.56761 0.33008 0.0
C335 C 0.37155 0.57154 0.30628 0.0
C336 C 0.38507 0.54673 0.27344 0.0
C337 C 0.36044 0.519 0.26502 0.0
C338 C 0.2368 0.49406 0.17191 0.0
C339 C 0.29864 0.35393 0.21203 0.0
O340 O 0.22147 0.38405 0.13912 0.0
O341 O 0.14567 0.40232 0.16043 0.0
O342 O 0.19973 0.36533 0.23922 0.0
O343 O 0.19054 0.41929 0.26487 0.0
O344 O 0.12914 0.45311 0.20819 0.0
O345 O 0.16593 0.49666 0.22641 0.0
O346 O 0.25129 0.48575 0.28996 0.0
O347 O 0.31382 0.45907 0.25154 0.0
O348 O 0.22235 0.50735 0.20621 0.0
O349 O 0.24994 0.45602 0.1723 0.0
O350 O 0.30424 0.38724 0.22572 0.0
O351 O 0.25648 0.35615 0.20108 0.0
H352 H 0.23071 0.39926 0.06807 0.0
H353 H 0.21573 0.39255 1.0009 0.0
H354 H 0.08108 0.36916 1.03523 0.0
H355 H 0.0962 0.37542 0.1028 0.0
H356 H 0.27706 0.53768 0.34115 0.0
H357 H 0.31976 0.58586 0.35567 0.0
H358 H 0.41538 0.54849 0.25427 0.0
H359 H 0.37359 0.50017 0.23996 0.0
Nd360 Nd 0.67133 0.08565 0.93807 0.0
Nd361 Nd 0.73967 0.03136 0.97017 0.0
C362 C 0.61582 0.14622 0.90361 0.0
C363 C 0.61437 0.17701 0.87542 0.0
C364 C 0.64404 0.17032 0.84101 0.0
C365 C 0.6386 0.19931 0.81371 0.0
C366 C 0.60351 0.23547 0.82033 0.0
C367 C 0.57484 0.24239 0.85512 0.0
C368 C 0.58025 0.21349 0.88233 0.0
C369 C 0.64429 0.08339 1.01791 0.0
C370 C 0.77051 0.10963 0.94292 0.0
C371 C 0.7914 0.97201 1.01021 0.0
C372 C 0.81098 0.92845 1.01118 0.0
C373 C 0.79006 0.90772 0.03753 0.0
C374 C 0.81028 0.86762 0.04168 0.0
C375 C 0.85432 0.84622 1.02132 0.0
C376 C 0.87188 0.86682 0.99193 0.0
C377 C 0.8516 0.90712 0.98772 0.0
C378 C 0.77399 0.02787 0.89418 0.0
C379 C 0.63928 1.00946 0.9431 0.0
O380 O 0.62555 0.11033 0.89099 0.0
O381 O 0.6346 0.14907 0.93582 0.0
O382 O 0.61722 0.08385 0.99011 0.0
O383 O 0.68651 0.08302 1.00341 0.0
O384 O 0.73252 0.1133 0.92367 0.0
O385 O 0.77787 0.08275 0.96976 0.0
O386 O 0.74501 0.98756 1.01567 0.0
O387 O 0.81041 0.99099 0.98536 0.0
O388 O 0.79843 0.02456 0.9237 0.0
O389 O 0.72877 0.03293 0.9052 0.0
O390 O 0.67875 0.99918 0.96245 0.0
O391 O 0.62991 0.04232 0.92555 0.0
H392 H 0.67069 0.14252 0.83492 0.0
H393 H 0.66103 0.19325 0.78703 0.0
H394 H 0.54742 0.26988 0.86083 0.0
H395 H 0.55685 0.21936 0.90854 0.0
H396 H 0.7577 0.92262 0.05529 0.0
H397 H 0.78994 0.85377 0.0608 0.0
H398 H 0.90065 0.8524 0.971 0.0
H399 H 0.86784 0.92151 0.96586 0.0
Nd400 Nd 0.79915 0.92551 0.414 0.0
Nd401 Nd 0.7277 0.97609 0.45893 0.0
C402 C 0.85065 0.87272 0.35883 0.0
C403 C 0.85434 0.84521 0.32378 0.0
C404 C 0.84568 0.85879 0.2864 0.0
C405 C 0.85459 0.83304 0.25367 0.0
C406 C 0.87326 0.79224 0.25631 0.0
C407 C 0.88147 0.77871 0.29372 0.0
C408 C 0.87235 0.80441 0.32643 0.0
C409 C 0.83159 0.92722 0.49218 0.0
C410 C 0.69952 0.89584 0.43556 0.0
C411 C 0.67064 0.034 0.50419 0.0
C412 C 0.66788 0.07148 0.52386 0.0
C413 C 0.70686 0.08771 0.52131 0.0
C414 C 0.70002 0.12655 0.53324 0.0
C415 C 0.65399 0.14997 0.5475 0.0
C416 C 0.61567 0.13322 0.5513 0.0
C417 C 0.62257 0.09448 0.53967 0.0
C418 C 0.69221 0.97929 0.38606 0.0
C419 C 0.82638 1.00577 0.43087 0.0
O420 O 0.83787 0.91036 0.35529 0.0
O421 O 0.83778 0.86371 0.39326 0.0
O422 O 0.85731 0.9234 0.45952 0.0
O423 O 0.78879 0.92731 0.48292 0.0
O424 O 0.7386 0.89263 0.4121 0.0
O425 O 0.68958 0.92463 0.46206 0.0
O426 O 0.69562 1.00108 0.51738 0.0
O427 O 0.6752 0.03415 0.46715 0.0
O428 O 0.66965 0.97559 0.41825 0.0
O429 O 0.73666 0.97751 0.39255 0.0
O430 O 0.78724 1.01064 0.45492 0.0
O431 O 0.83734 0.97523 0.40689 0.0
H432 H 0.8326 0.88966 0.28219 0.0
H433 H 0.84735 0.84524 0.22592 0.0
H434 H 0.89575 0.74788 0.29771 0.0
H435 H 0.88055 0.79214 0.35402 0.0
H436 H 0.74198 0.07092 0.50867 0.0
H437 H 0.73015 0.13879 0.52993 0.0
H438 H 0.5799 0.15059 0.5621 0.0
H439 H 0.59172 0.08299 0.54133 0.0
Nd440 Nd 0.34063 0.68998 0.64459 0.0
Nd441 Nd 0.29908 0.66622 0.58557 0.0
C442 C 0.37177 0.72048 0.70254 0.0
C443 C 0.38353 0.71076 0.74147 0.0
C444 C 0.40459 0.67226 0.75165 0.0
C445 C 0.41118 0.66367 0.78993 0.0
C446 C 0.39578 0.69348 0.81794 0.0
C447 C 0.3765 0.73197 0.80736 0.0
C448 C 0.37058 0.74056 0.76933 0.0
C449 C 0.37232 0.71273 0.57458 0.0
C450 C 0.23547 0.74397 0.629 0.0
C451 C 0.281 0.64461 0.51717 0.0
C452 C 0.28022 0.60923 0.49712 0.0
C453 C 0.29908 0.57321 0.51335 0.0
C454 C 0.29165 0.54016 0.49724 0.0
C455 C 0.26546 0.54288 0.4648 0.0
C456 C 0.24915 0.57847 0.44714 0.0
C457 C 0.25638 0.61169 0.46345 0.0
C458 C 0.25869 0.64305 0.6511 0.0
C459 C 0.39171 0.60279 0.62367 0.0
O460 O 0.40051 0.69919 0.67534 0.0
O461 O 0.32605 0.72821 0.69642 0.0
O462 O 0.4009 0.6928 0.59817 0.0
O463 O 0.32921 0.71669 0.58624 0.0
O464 O 0.26336 0.72991 0.65633 0.0
O465 O 0.24652 0.72792 0.59447 0.0
O466 O 0.32331 0.64693 0.5255 0.0
O467 O 0.24795 0.65634 0.54543 0.0
O468 O 0.2351 0.65828 0.62245 0.0
O469 O 0.30312 0.64147 0.64547 0.0
O470 O 0.36864 0.61246 0.5921 0.0
O471 O 0.38069 0.6271 0.65303 0.0
H472 H 0.41464 0.64887 0.73027 0.0
H473 H 0.42628 0.6339 0.79783 0.0
H474 H 0.36439 0.75527 0.82882 0.0
H475 H 0.35432 0.77033 0.76181 0.0
H476 H 0.31772 0.57095 0.53929 0.0
H477 H 0.30445 0.5127 0.51103 0.0
H478 H 0.22894 0.58076 0.42205 0.0
H479 H 0.24169 0.63946 0.45073 0.0
C480 C 0.28275 0.44058 0.43298 0.0
C481 C 0.24384 0.43306 0.45565 0.0
C482 C 0.20863 0.50244 0.46988 0.0
C483 C 0.25145 0.50868 0.45252 0.0
N484 N 0.32408 0.48644 0.41056 0.0
N485 N 0.16185 0.45713 0.48322 0.0
C486 C 0.28614 0.47877 0.43114 0.0
C487 C 0.20383 0.46434 0.46961 0.0
N488 N 0.31816 0.41208 0.41374 0.0
N489 N 0.17459 0.53234 0.48915 0.0
H490 H 0.15803 0.42918 0.48373 0.0
H491 H 0.12983 0.47868 0.49097 0.0
H492 H 0.1764 0.56084 0.48877 0.0
H493 H 0.14556 0.52891 0.50662 0.0
H494 H 0.31896 0.383 0.41273 0.0
H495 H 0.31896 0.383 0.41273 0.0
H496 H 0.35117 0.46493 0.39513 0.0
H497 H 0.32735 0.51448 0.40823 0.0
C498 C 0.7854 0.99927 0.8232 0.0
C499 C 0.8032 1.01323 0.85566 0.0
C500 C 0.88649 0.98057 0.82811 0.0
C501 C 0.86994 0.96934 0.79388 0.0
N502 N 0.80113 0.97851 0.75601 0.0
N503 N 0.87279 0.03165 0.8756 0.0
C504 C 0.81855 0.98174 0.79061 0.0
C505 C 0.85421 1.00876 0.8536 0.0
N506 N 0.73729 1.00259 0.82286 0.0
N507 N 0.93188 0.96276 0.83866 0.0
H508 H 0.85141 0.05472 0.89285 0.0
H509 H 0.90927 0.03075 0.87262 0.0
H510 H 0.9548 0.93774 0.82521 0.0
H511 H 0.94347 0.96911 0.86476 0.0
H512 H 0.72335 0.98855 0.8024 0.0
H513 H 0.71155 1.01816 0.84375 0.0
H514 H 0.76483 0.99004 0.75095 0.0
H515 H 0.8236 0.96833 0.7313 0.0
C516 C 0.2123 0.5692 0.09142 0.0
C517 C 0.23288 0.59865 0.10422 0.0
C518 C 0.26859 0.55277 0.15491 0.0
C519 C 0.2472 0.52377 0.14251 0.0
N520 N 0.21763 0.50018 0.08833 0.0
N521 N 0.29409 0.61068 0.14146 0.0
C522 C 0.22475 0.5308 0.10752 0.0
C523 C 0.26488 0.58804 0.1341 0.0
N524 N 0.1786 0.57816 0.06517 0.0
N525 N 0.29333 0.54643 0.18698 0.0
H526 H 0.29448 0.63514 0.12594 0.0
H527 H 0.32161 0.6031 0.15995 0.0
H528 H 0.30273 0.51945 0.19953 0.0
H529 H 0.30333 0.56793 0.20149 0.0
H530 H 0.15905 0.55939 0.05751 0.0
H531 H 0.1668 0.60567 0.054 0.0
H532 H 0.20515 0.5021 0.06111 0.0
H533 H 0.23002 0.47206 0.09818 0.0
C534 C 0.57623 1.01617 0.32866 0.0
C535 C 0.58879 0.03948 0.29924 0.0
C536 C 0.67267 0.02126 0.32349 0.0
C537 C 0.66052 0.99709 0.35218 0.0
N538 N 0.60536 0.95919 0.36638 0.0
N539 N 0.65888 0.0446 0.25953 0.0
C540 C 0.61343 0.99124 0.35029 0.0
C541 C 0.63993 0.03631 0.29407 0.0
N542 N 0.52921 1.01643 0.33588 0.0
N543 N 0.71527 0.03037 0.32353 0.0
H544 H 0.63913 0.04944 0.23547 0.0
H545 H 0.69586 0.0403 0.25326 0.0
H546 H 0.74092 0.01953 0.34293 0.0
H547 H 0.72326 0.05112 0.30576 0.0
H548 H 0.51746 1.00363 0.35978 0.0
H549 H 0.50177 0.03066 0.3191 0.0
H550 H 0.57387 0.95115 0.36357 0.0
H551 H 0.63335 0.9377 0.37702 0.0
C552 C 0.61553 0.26043 0.53617 0.0
C553 C 0.61625 0.27397 0.57436 0.0
C554 C 0.64765 0.20625 0.59373 0.0
C555 C 0.64464 0.19266 0.55616 0.0
N556 N 0.63524 0.20635 0.48975 0.0
N557 N 0.6542 0.25939 0.63373 0.0
C558 C 0.63168 0.21971 0.52676 0.0
C559 C 0.63871 0.24684 0.60152 0.0
N560 N 0.59934 0.28679 0.50886 0.0
N561 N 0.65818 0.18041 0.62231 0.0
H562 H 0.65495 0.28783 0.63788 0.0
H563 H 0.6733 0.24075 0.65338 0.0
H564 H 0.66685 0.15049 0.61749 0.0
H565 H 0.65485 0.18881 0.65109 0.0
H566 H 0.59113 0.27964 0.4819 0.0
H567 H 0.59375 0.31647 0.51343 0.0
H568 H 0.63089 0.22402 0.46625 0.0
H569 H 0.64564 0.17691 0.48204 0.0
C570 C 0.20335 0.56088 0.6727 0.0
C571 C 0.19849 0.56236 0.71323 0.0
C572 C 0.23623 0.61574 0.71379 0.0
C573 C 0.24209 0.61338 0.67323 0.0
N574 N 0.24329 0.57674 0.6149 0.0
N575 N 0.21497 0.58729 0.77295 0.0
C576 C 0.22907 0.58395 0.65295 0.0
C577 C 0.21651 0.58862 0.73401 0.0
N578 N 0.18218 0.53806 0.65285 0.0
N579 N 0.24845 0.64448 0.73274 0.0
H580 H 0.1997 0.56846 0.78828 0.0
H581 H 0.231 0.60304 0.79006 0.0
H582 H 0.26354 0.66416 0.71869 0.0
H583 H 0.2423 0.64989 0.76207 0.0
H584 H 0.17891 0.53965 0.62353 0.0
H585 H 0.16434 0.51957 0.66587 0.0
H586 H 0.23965 0.55299 0.59954 0.0
H587 H 0.26402 0.59168 0.59948 0.0
C588 C 0.85838 0.78316 0.05784 0.0
C589 C 0.87734 0.8024 1.02812 0.0
C590 C 0.92137 0.73769 0.99945 0.0
C591 C 0.89287 0.71989 1.02373 0.0
N592 N 0.828 0.72918 0.07369 0.0
N593 N 0.95484 0.79176 0.99273 0.0
C594 C 0.86013 0.74352 0.05258 0.0
C595 C 0.91711 0.77811 1.00475 0.0
N596 N 0.84436 0.80102 0.09291 0.0
N597 N 0.95004 0.71702 0.96941 0.0
H598 H 0.95773 0.8181 1.00337 0.0
H599 H 0.98636 0.77446 0.978 0.0
H600 H 0.95533 0.68739 0.96486 0.0
H601 H 0.96601 0.73016 0.94792 0.0
H602 H 0.83391 0.78703 0.11646 0.0
H603 H 0.85014 0.82764 0.09934 0.0
H604 H 0.80062 0.7466 0.0925 0.0
H605 H 0.8263 0.70088 0.07016 0.0
C606 C 0.40839 0.66802 0.30887 0.0
C607 C 0.44959 0.659 0.33103 0.0
C608 C 0.44391 0.59074 0.33238 0.0
C609 C 0.39878 0.60161 0.3151 0.0
N610 N 0.33656 0.65261 0.28968 0.0
N611 N 0.50936 0.60957 0.36051 0.0
C612 C 0.38074 0.64086 0.30431 0.0
C613 C 0.46831 0.61954 0.34149 0.0
N614 N 0.39778 0.70162 0.28924 0.0
N615 N 0.46359 0.55255 0.33997 0.0
H616 H 0.5295 0.62876 0.36506 0.0
H617 H 0.52335 0.58278 0.37245 0.0
H618 H 0.44601 0.53153 0.33532 0.0
H619 H 0.49797 0.54101 0.34922 0.0
H620 H 0.37141 0.70854 0.26971 0.0
H621 H 0.41974 0.72011 0.28832 0.0
H622 H 0.31839 0.6816 0.28572 0.0
H623 H 0.31629 0.63368 0.28419 0.0
C624 C 0.38446 0.2937 0.42354 0.0
C625 C 0.41338 0.3117 0.4002 0.0
C626 C 0.4095 0.35925 0.45093 0.0
C627 C 0.38761 0.33752 0.47634 0.0
N628 N 0.35579 0.2832 0.48771 0.0
N629 N 0.44384 0.36628 0.3879 0.0
C630 C 0.37417 0.30517 0.4626 0.0
C631 C 0.422 0.34628 0.41263 0.0
N632 N 0.36778 0.2651 0.40884 0.0
N633 N 0.42204 0.39097 0.46268 0.0
H634 H 0.45233 0.35795 0.35907 0.0
H635 H 0.45155 0.39171 0.39601 0.0
H636 H 0.41594 0.40253 0.49054 0.0
H637 H 0.41594 0.40253 0.49054 0.0
H638 H 0.34199 0.25429 0.4234 0.0
H639 H 0.37593 0.25431 0.38086 0.0
H640 H 0.35262 0.2559 0.48084 0.0
H641 H 0.34558 0.2915 0.51634 0.0
C642 C 0.08617 0.32412 0.61001 0.0
C643 C 0.07879 0.28711 0.60132 0.0
C644 C 0.04949 0.28913 0.67307 0.0
C645 C 0.0613 0.3241 0.68232 0.0
N646 N 0.10402 0.36803 0.65689 0.0
N647 N 0.05714 0.23316 0.63009 0.0
C648 C 0.08292 0.33954 0.64975 0.0
C649 C 0.06166 0.26964 0.63471 0.0
N650 N 0.09554 0.34577 0.58043 0.0
N651 N 0.02459 0.27471 0.70083 0.0
H652 H 0.06181 0.2188 0.60354 0.0
H653 H 0.05194 0.21606 0.65282 0.0
H654 H 0.01673 0.28694 0.72845 0.0
H655 H 1.00884 0.25266 0.69587 0.0
H656 H 0.0961 0.3744 0.5839 0.0
H657 H 0.0972 0.33685 0.55201 0.0
H658 H 0.12478 0.37809 0.63622 0.0
H659 H 0.10647 0.37786 0.68448 0.0
C660 C 0.0896 0.6405 0.80812 0.0
C661 C 0.10277 0.67384 0.79656 0.0
C662 C 0.16054 0.66465 0.84519 0.0
C663 C 0.13939 0.63714 0.86159 0.0
N664 N 0.10425 0.58563 0.84976 0.0
N665 N 0.1623 0.70854 0.79315 0.0
C666 C 0.11148 0.62007 0.83951 0.0
C667 C 0.14334 0.68206 0.81092 0.0
N668 N 0.05307 0.63091 0.79169 0.0
N669 N 0.19316 0.67647 0.86475 0.0
H670 H 0.14905 0.7213 0.76807 0.0
H671 H 0.1928 0.71547 0.80128 0.0
H672 H 0.20572 0.66312 0.8898 0.0
H673 H 0.20702 0.69915 0.85675 0.0
H674 H 0.03758 0.60984 0.80204 0.0
H675 H 0.03751 0.64492 0.76792 0.0
H676 H 0.08715 0.57027 0.83311 0.0
H677 H 0.12006 0.57059 0.87293 0.0
C678 C 0.39121 0.83205 0.11344 0.0
C679 C 0.39518 0.80051 0.13832 0.0
C680 C 0.37497 0.76365 0.0851 0.0
C681 C 0.36195 0.79756 0.06283 0.0
N682 N 0.37366 0.86111 0.05317 0.0
N683 N 0.38727 0.73645 0.14794 0.0
C684 C 0.37464 0.8307 0.0761 0.0
C685 C 0.38622 0.76633 0.12404 0.0
N686 N 0.40342 0.86396 0.12519 0.0
N687 N 0.38066 0.72816 0.06816 0.0
H688 H 0.39617 0.73687 0.17617 0.0
H689 H 0.37546 0.71274 0.14068 0.0
H690 H 0.37982 0.72439 0.03877 0.0
H691 H 0.39358 0.70215 0.08191 0.0
H692 H 0.40174 0.88739 0.10762 0.0
H693 H 0.41568 0.86662 0.15202 0.0
H694 H 0.36642 0.86161 1.02448 0.0
H695 H 0.36642 0.86161 1.02448 0.0
C696 C 0.14859 0.36536 0.38097 0.0
C697 C 0.14593 0.32609 0.37915 0.0
C698 C 0.18254 0.32392 0.31157 0.0
C699 C 0.17856 0.36478 0.3108 0.0
N700 N 0.15133 0.42473 0.34862 0.0
N701 N 0.1484 0.27348 0.33536 0.0
C702 C 0.15964 0.3855 0.34667 0.0
C703 C 0.15866 0.30748 0.34212 0.0
N704 N 0.1405 0.38399 0.41585 0.0
N705 N 0.21275 0.29918 0.28475 0.0
H706 H 0.12884 0.26161 0.3553 0.0
H707 H 0.1535 0.26015 0.30826 0.0
H708 H 0.23735 0.30751 0.2661 0.0
H709 H 0.21945 0.26918 0.28542 0.0
H710 H 0.14749 0.41036 0.42061 0.0
H711 H 0.12969 0.37177 0.44052 0.0
H712 H 0.13207 0.44213 0.37168 0.0
H713 H 0.16068 0.44054 0.32631 0.0
C714 C 0.92418 0.89252 0.57571 0.0
C715 C 0.90629 0.92 0.60737 0.0
C716 C 0.8379 0.95184 0.56472 0.0
C717 C 0.85463 0.92327 0.53369 0.0
N718 N 0.91193 0.86183 0.5158 0.0
N719 N 0.83989 0.97368 0.63132 0.0
C720 C 0.89748 0.89265 0.54119 0.0
C721 C 0.86144 0.94898 0.60128 0.0
N722 N 0.9686 0.86643 0.5778 0.0
N723 N 0.79999 0.98331 0.55877 0.0
H724 H 0.85581 0.97317 0.65711 0.0
H725 H 0.80508 0.99257 0.63187 0.0
H726 H 0.78245 0.98619 0.53364 0.0
H727 H 0.78855 1.00778 0.57688 0.0
H728 H 0.98765 0.84865 0.55493 0.0
H729 H 0.98848 0.86494 0.60167 0.0
H730 H 0.93862 0.83633 0.5205 0.0
H731 H 0.89366 0.86009 0.49163 0.0
C732 C 0.35255 0.67931 0.87637 0.0
C733 C 0.39503 0.68597 0.85901 0.0
C734 C 0.40317 0.72223 0.91557 0.0
C735 C 0.35364 0.72658 0.92568 0.0
N736 N 0.2955 0.69048 0.93251 0.0
N737 N 0.46874 0.70233 0.86546 0.0
C738 C 0.33276 0.6987 0.91168 0.0
C739 C 0.42395 0.70242 0.88063 0.0
N740 N 0.3293 0.65765 0.85738 0.0
N741 N 0.42943 0.73673 0.9394 0.0
H742 H 0.48367 0.68724 0.83982 0.0
H743 H 0.49025 0.71726 0.87759 0.0
H744 H 0.41473 0.74864 0.96636 0.0
H745 H 0.4663 0.73345 0.93433 0.0
H746 H 0.29533 0.65513 0.86648 0.0
H747 H 0.34438 0.64239 0.83194 0.0
H748 H 0.27996 0.66908 0.92468 0.0
H749 H 0.28465 0.70197 0.96016 0.0
C750 C 0.59649 0.06981 0.1233 0.0
C751 C 0.5673 0.10793 0.13512 0.0
C752 C 0.59312 0.13095 0.07185 0.0
C753 C 0.62245 0.09281 0.06006 0.0
N754 N 0.65489 0.02668 0.07708 0.0
N755 N 0.54242 0.17577 0.12135 0.0
C756 C 0.62479 0.06264 0.08673 0.0
C757 C 0.56738 0.13872 0.10959 0.0
N758 N 0.59689 0.03995 0.14717 0.0
N759 N 0.58856 0.15982 0.04619 0.0
H760 H 0.52064 0.18236 0.14688 0.0
H761 H 0.54488 0.20032 0.10697 0.0
H762 H 0.6086 0.15587 1.01978 0.0
H763 H 0.56374 0.18714 0.05 0.0
H764 H 0.61139 1.01078 0.13934 0.0
H765 H 0.58112 0.04418 0.17512 0.0
H766 H 0.6638 1.00378 0.09554 0.0
H767 H 0.67306 0.0204 0.05024 0.0
C768 C 0.56492 0.28547 0.72722 0.0
C769 C 0.57622 0.32117 0.73184 0.0
C770 C 0.60963 0.29921 0.79311 0.0
C771 C 0.59436 0.26517 0.7899 0.0
N772 N 0.54913 0.22958 0.75729 0.0
N773 N 0.60382 0.36424 0.77126 0.0
C774 C 0.56957 0.25942 0.75793 0.0
C775 C 0.59715 0.32862 0.7654 0.0
N776 N 0.55222 0.27524 0.69273 0.0
N777 N 0.63733 0.30288 0.82205 0.0
H778 H 0.59507 0.38622 0.75159 0.0
H779 H 0.61424 0.37314 0.79675 0.0
H780 H 0.64684 0.28211 0.84281 0.0
H781 H 0.65398 0.32484 0.82389 0.0
H782 H 0.54959 0.24766 0.68629 0.0
H783 H 0.54888 0.29283 0.66914 0.0
H784 H 0.52584 0.22658 0.73695 0.0
H785 H 0.5518 0.2097 0.77902 0.0
C786 C 0.13398 0.40386 0.94505 0.0
C787 C 0.14043 0.37304 0.97086 0.0
C788 C 0.1359 0.32929 0.91695 0.0
C789 C 0.12873 0.36067 0.89136 0.0
N790 N 0.14794 0.42096 0.87983 0.0
N791 N 0.15874 0.3042 0.97933 0.0
C792 C 0.13578 0.39598 0.90497 0.0
C793 C 0.14448 0.33506 0.9562 0.0
N794 N 0.12498 0.4411 0.95869 0.0
N795 N 0.13614 0.29356 0.9035 0.0
H796 H 0.16589 0.3072 1.00769 0.0
H797 H 0.16712 0.2754 0.96991 0.0
H798 H 0.13994 0.28635 0.87438 0.0
H799 H 0.13325 0.27104 0.921 0.0
H800 H 0.11504 0.46498 0.94134 0.0
H801 H 0.12265 0.44827 0.98777 0.0
H802 H 0.15602 0.446 0.88852 0.0
H803 H 0.15798 0.41343 0.85106 0.0
C804 C 0.86087 0.7342 0.21724 0.0
C805 C 0.88424 0.76394 0.22055 0.0
C806 C 0.92488 0.74202 0.15523 0.0
C807 C 0.90693 0.70874 0.15418 0.0
N808 N 0.86396 0.67076 0.19142 0.0
N809 N 0.94662 0.79031 0.19366 0.0
C810 C 0.87643 0.70438 0.18713 0.0
C811 C 0.91846 0.76609 0.18973 0.0
N812 N 0.82222 0.73489 0.24229 0.0
N813 N 0.94596 0.75245 0.12259 0.0
H814 H 0.94404 0.80762 0.21814 0.0
H815 H 0.97578 0.79021 0.17436 0.0
H816 H 0.94856 0.73808 0.09631 0.0
H817 H 0.95509 0.77836 0.12045 0.0
H818 H 0.80013 0.7169 0.23914 0.0
H819 H 0.8091 0.75618 0.26389 0.0
H820 H 0.84655 0.66431 0.21643 0.0
H821 H 0.87569 0.64726 0.17225 0.0
C822 C 0.38639 0.76477 0.53075 0.0
C823 C 0.38801 0.72538 0.53686 0.0
C824 C 0.40845 0.71134 0.46898 0.0
C825 C 0.41814 0.74755 0.46395 0.0
N826 N 0.41701 0.80939 0.49176 0.0
N827 N 0.41355 0.65923 0.51221 0.0
C828 C 0.40658 0.7749 0.49517 0.0
C829 C 0.4028 0.69805 0.50614 0.0
N830 N 0.36649 0.79221 0.55898 0.0
N831 N 0.40504 0.6894 0.43803 0.0
H832 H 0.41171 0.64801 0.53933 0.0
H833 H 0.42861 0.63834 0.49054 0.0
H834 H 0.40557 0.69986 0.41053 0.0
H835 H 0.39553 0.66362 0.44037 0.0
H836 H 0.3602 0.82181 0.55495 0.0
H837 H 0.35309 0.78544 0.58559 0.0
H838 H 0.41474 0.82835 0.51487 0.0
H839 H 0.43005 0.81825 0.46606 0.0
C840 C 0.28698 0.14964 0.39278 0.0
C841 C 0.25928 0.18967 0.39462 0.0
C842 C 0.31871 0.19981 0.34215 0.0
C843 C 0.34851 0.16046 0.34221 0.0
N844 N 0.36341 0.10006 0.3746 0.0
N845 N 0.25936 0.25369 0.37577 0.0
C846 C 0.33302 0.13608 0.3695 0.0
C847 C 0.27829 0.2147 0.37046 0.0
N848 N 0.2685 0.12383 0.41226 0.0
N849 N 0.32716 0.22333 0.31382 0.0
H850 H 0.23186 0.26541 0.39654 0.0
H851 H 0.27461 0.27396 0.36317 0.0
H852 H 0.35494 0.21458 0.29235 0.0
H853 H 0.30374 0.25055 0.30932 0.0
H854 H 0.28317 0.09389 0.40909 0.0
H855 H 0.23593 0.13236 0.42922 0.0
H856 H 0.35751 0.08217 0.3964 0.0
H857 H 0.39713 0.08959 0.35945 0.0
C858 C 0.16053 0.15217 0.59951 0.0
C859 C 0.16752 0.14604 0.55926 0.0
C860 C 0.13852 0.08821 0.5646 0.0
C861 C 0.12941 0.09509 0.6047 0.0
N862 N 0.14275 0.12736 0.66148 0.0
N863 N 0.17852 0.10199 0.50545 0.0
C864 C 0.14422 0.12505 0.62254 0.0
C865 C 0.16184 0.1117 0.54266 0.0
N866 N 0.16698 0.18489 0.61546 0.0
N867 N 0.12217 0.06087 0.54704 0.0
H868 H 0.19615 0.11873 0.48919 0.0
H869 H 0.17941 0.0758 0.49215 0.0
H870 H 0.10485 0.04307 0.56192 0.0
H871 H 0.12244 0.05777 0.51751 0.0
H872 H 0.15719 0.1937 0.64394 0.0
H873 H 0.18071 0.20423 0.59962 0.0
H874 H 0.15672 0.14622 0.67647 0.0
H875 H 0.13099 0.108 0.67889 0.0
C876 C 0.08883 0.85787 0.85471 0.0
C877 C 0.09321 0.88296 0.82324 0.0
C878 C 0.16407 0.89288 0.85825 0.0
C879 C 0.16363 0.86429 0.88682 0.0
N880 N 0.12524 0.81605 0.90644 0.0
N881 N 0.14747 0.91623 0.79402 0.0
C882 C 0.12567 0.84605 0.88318 0.0
C883 C 0.13419 0.89821 0.82518 0.0
N884 N 0.04785 0.84627 0.85897 0.0
N885 N 0.19215 0.91695 0.86325 0.0
H886 H 0.13005 0.91881 0.76885 0.0
H887 H 0.17944 0.9242 0.79136 0.0
H888 H 0.21194 0.91596 0.88708 0.0
H889 H 0.19088 0.94092 0.84654 0.0
H890 H 0.03923 0.83157 0.88258 0.0
H891 H 0.01987 0.85498 0.841 0.0
H892 H 0.10354 0.79782 0.90295 0.0
H893 H 0.14951 0.80775 0.92752 0.0
C894 C 0.27256 0.98154 0.08333 0.0
C895 C 0.29323 0.96714 0.11778 0.0
C896 C 0.26673 0.9078 0.10753 0.0
C897 C 0.24652 0.92224 0.07268 0.0
N898 N 0.21713 0.97831 1.03527 0.0
N899 N 0.29912 0.92056 0.16709 0.0
C900 C 0.24526 0.96095 0.06339 0.0
C901 C 0.28683 0.93149 0.13118 0.0
N902 N 0.28106 1.01405 0.06831 0.0
N903 N 0.26888 0.87084 0.11751 0.0
H904 H 0.31431 0.93664 0.1847 0.0
H905 H 0.29046 0.89764 0.18074 0.0
H906 H 0.25283 0.85325 0.10283 0.0
H907 H 0.28824 0.8568 0.13965 0.0
H908 H 0.27196 0.02357 0.0412 0.0
H909 H 0.30107 0.02971 0.08148 0.0
H910 H 0.21059 1.0075 1.02912 0.0
H911 H 0.19602 0.96435 1.02102 0.0
C912 C 0.89047 0.45905 0.72166 0.0
C913 C 0.89211 0.44267 0.75826 0.0
C914 C 0.80872 0.44008 0.75679 0.0
C915 C 0.80945 0.45183 0.71841 0.0
N916 N 0.84602 0.48164 0.66768 0.0
N917 N 0.8488 0.43133 0.81591 0.0
C918 C 0.84795 0.46513 0.70246 0.0
C919 C 0.84958 0.43796 0.77765 0.0
N920 N 0.92997 0.46708 0.70394 0.0
N921 N 0.77072 0.42824 0.77218 0.0
H922 H 0.87838 0.4304 0.83165 0.0
H923 H 0.81789 0.43048 0.83261 0.0
H924 H 0.73965 0.43052 0.75797 0.0
H925 H 0.77067 0.41476 0.79826 0.0
H926 H 0.92973 0.47821 0.67658 0.0
H927 H 0.96261 0.46298 0.71627 0.0
H928 H 0.81571 0.4874 0.65182 0.0
H929 H 0.81571 0.4874 0.65182 0.0
C930 C 0.015 0.48856 0.89532 0.0
C931 C 0.99434 0.45686 0.9008 0.0
C932 C 0.96876 0.48433 0.96831 0.0
C933 C 0.98509 0.51796 0.96186 0.0
N934 N 0.0188 0.55315 0.91506 0.0
N935 N 0.94082 0.43217 0.94242 0.0
C936 C 1.00707 0.52006 0.92419 0.0
C937 C 0.96858 0.45695 0.93741 0.0
N938 N 0.044 0.48818 0.86281 0.0
N939 N 0.95478 0.47732 1.00487 0.0
H940 H 0.93657 0.41389 0.9206 0.0
H941 H 0.91721 0.4332 0.96652 0.0
H942 H 0.9555 0.49541 1.02806 0.0
H943 H 0.9478 0.45151 1.01273 0.0
H944 H 0.06517 0.50703 0.85859 0.0
H945 H 0.04976 0.46699 0.84117 0.0
H946 H 0.02879 0.55935 0.88732 0.0
H947 H 0.0147 0.57588 0.93483 0.0
C948 C 0.65303 0.6365 0.22244 0.0
C949 C 0.68616 0.65544 0.20654 0.0
C950 C 0.65788 0.70784 0.25477 0.0
C951 C 0.62255 0.69014 0.26907 0.0
N952 N 0.5782 0.64339 0.26078 0.0
N953 N 0.71423 0.7124 0.20184 0.0
C954 C 0.61764 0.65611 0.25124 0.0
C955 C 0.68678 0.69221 0.22092 0.0
N956 N 0.65633 0.59939 0.21088 0.0
N957 N 0.66549 0.73826 0.27444 0.0
H958 H 0.73621 0.70172 0.17696 0.0
H959 H 0.71213 0.74105 0.20881 0.0
H960 H 0.6452 0.7505 0.29957 0.0
H961 H 0.69451 0.74933 0.26758 0.0
H962 H 0.63652 0.5827 0.22464 0.0
H963 H 0.68186 0.58402 0.1896 0.0
H964 H 0.57054 0.62086 0.24609 0.0
H965 H 0.5503 0.65798 0.28067 0.0
C966 C 0.50701 0.48364 0.529 0.0
C967 C 0.54286 0.44709 0.52246 0.0
C968 C 0.58842 0.47922 0.47794 0.0
C969 C 0.5586 0.51619 0.49202 0.0
N970 N 0.48784 0.55311 0.53135 0.0
N971 N 0.61381 0.40925 0.48493 0.0
C972 C 0.51755 0.51815 0.51757 0.0
C973 C 0.58226 0.44472 0.49488 0.0
N974 N 0.46189 0.48711 0.54558 0.0
N975 N 0.62112 0.47707 0.44727 0.0
H976 H 0.6067 0.38349 0.49308 0.0
H977 H 0.64693 0.40531 0.46932 0.0
H978 H 0.62534 0.50152 0.43344 0.0
H979 H 0.641 0.45122 0.43328 0.0
H980 H 0.44765 0.46398 0.55082 0.0
H981 H 0.44765 0.46398 0.55082 0.0
H982 H 0.45621 0.55557 0.54871 0.0
H983 H 0.49583 0.57928 0.52715 0.0
C984 C 0.38069 0.29978 0.22455 0.0
C985 C 0.33514 0.31253 0.20835 0.0
C986 C 0.34112 0.24292 0.1955 0.0
C987 C 0.38628 0.23 0.21183 0.0
N988 N 0.45805 0.24981 0.21966 0.0
N989 N 0.29483 0.29275 0.1569 0.0
C990 C 0.40901 0.25944 0.21987 0.0
C991 C 0.32164 0.28309 0.18767 0.0
N992 N 0.39802 0.32536 0.24371 0.0
N993 N 0.31789 0.21702 0.18443 0.0
H994 H 0.28858 0.31993 0.14492 0.0
H995 H 0.28659 0.27226 0.1395 0.0
H996 H 0.33336 0.18711 0.18378 0.0
H997 H 0.28242 0.22589 0.17644 0.0
H998 H 0.42926 0.31653 0.25833 0.0
H999 H 0.38008 0.35481 0.24664 0.0
H1000 H 0.47676 0.27035 0.22266 0.0
H1001 H 0.47969 0.2222 0.21113 0.0
C1002 C 0.85543 0.17901 0.94467 0.0
C1003 C 0.85733 0.19054 0.90582 0.0
C1004 C 0.81113 0.14396 0.89124 0.0
C1005 C 0.80434 0.13523 0.93089 0.0
N1006 N 0.81543 0.15108 0.9958 0.0
N1007 N 0.82752 0.18855 0.84399 0.0
C1008 C 0.82565 0.1544 0.95765 0.0
C1009 C 0.83245 0.17422 0.87984 0.0
N1010 N 0.88293 0.19106 0.96936 0.0
N1011 N 0.79938 0.12208 0.86353 0.0
H1012 H 0.84267 0.21009 0.83425 0.0
H1013 H 0.8045 0.18187 0.82526 0.0
H1014 H 0.78579 0.09877 0.86914 0.0
H1015 H 0.80868 0.12391 0.83454 0.0
H1016 H 0.88792 0.18059 0.99675 0.0
H1017 H 0.904 0.20926 0.96123 0.0
H1018 H 0.82497 0.16749 1.01681 0.0
H1019 H 0.79363 0.13442 1.00646 0.0
C1020 C 0.0986 0.50314 0.14693 0.0
C1021 C 0.09478 0.51547 0.18618 0.0
C1022 C 0.02018 0.56657 0.17385 0.0
C1023 C 0.02181 0.55106 0.13579 0.0
N1024 N 0.06147 0.50198 0.0875 0.0
N1025 N 0.05016 0.55779 0.23755 0.0
C1026 C 0.06053 0.5185 0.12296 0.0
C1027 C 0.05529 0.54726 0.19968 0.0
N1028 N 0.14016 0.47732 0.13179 0.0
N1029 N 0.98457 0.59939 0.18565 0.0
H1030 H 0.07609 0.54491 0.2563 0.0
H1031 H 0.01961 0.57769 0.25079 0.0
H1032 H 0.95591 0.61209 0.16941 0.0
H1033 H 0.98429 0.61494 0.21084 0.0
H1034 H 0.14729 0.46958 0.10292 0.0
H1035 H 0.16956 0.46591 0.14756 0.0
H1036 H 0.08323 0.47428 0.07922 0.0
H1037 H 0.03867 0.51466 0.06667 0.0
C1038 C 0.68978 0.8256 0.42595 0.0
C1039 C 0.66775 0.8667 0.43005 0.0
C1040 C 0.59132 0.85239 0.41032 0.0
C1041 C 0.6131 0.81113 0.40775 0.0
N1042 N 0.67912 0.76125 0.4312 0.0
N1043 N 0.59038 0.91556 0.43737 0.0
C1044 C 0.66134 0.79867 0.42042 0.0
C1045 C 0.61635 0.87881 0.42583 0.0
N1046 N 0.73844 0.81127 0.42879 0.0
N1047 N 0.54703 0.86714 0.39667 0.0
H1048 H 0.60629 0.93548 0.44832 0.0
H1049 H 0.5527 0.92509 0.439 0.0
H1050 H 0.52794 0.84961 0.38542 0.0
H1051 H 0.53131 0.89672 0.39358 0.0
H1052 H 0.75774 0.78281 0.42069 0.0
H1053 H 0.75985 0.82808 0.43766 0.0
H1054 H 0.71193 0.751 0.44349 0.0
H1055 H 0.65796 0.74226 0.43399 0.0
C1056 C 0.50959 0.52261 0.63547 0.0
C1057 C 0.49141 0.49279 0.65144 0.0
C1058 C 0.4084 0.53274 0.6418 0.0
C1059 C 0.42633 0.56364 0.62894 0.0
N1060 N 0.49358 0.59036 0.61962 0.0
N1061 N 0.42301 0.47209 0.67516 0.0
C1062 C 0.47679 0.55929 0.62787 0.0
C1063 C 0.44057 0.49878 0.65616 0.0
N1064 N 0.55788 0.51537 0.62521 0.0
N1065 N 0.36053 0.53568 0.63979 0.0
H1066 H 0.4456 0.44733 0.68643 0.0
H1067 H 0.38644 0.47603 0.6828 0.0
H1068 H 0.33639 0.56017 0.62968 0.0
H1069 H 0.34562 0.51292 0.64492 0.0
H1070 H 0.57216 0.53404 0.60882 0.0
H1071 H 0.58351 0.48947 0.63038 0.0
H1072 H 0.52902 0.59049 0.62302 0.0
H1073 H 0.47128 0.6169 0.61157 0.0
C1074 C 0.18314 0.8128 0.62143 0.0
C1075 C 0.19025 0.77614 0.63845 0.0
C1076 C 0.11759 0.80293 0.68203 0.0
C1077 C 0.10974 0.83938 0.66474 0.0
N1078 N 0.12872 0.87709 0.61293 0.0
N1079 N 0.15835 0.73428 0.67924 0.0
C1080 C 0.14064 0.84369 0.6328 0.0
C1081 C 0.15572 0.77068 0.66705 0.0
N1082 N 0.21818 0.81877 0.59599 0.0
N1083 N 0.09006 0.79943 0.71419 0.0
H1084 H 0.18568 0.70982 0.66938 0.0
H1085 H 0.13111 0.72778 0.69652 0.0
H1086 H 0.05889 0.82085 0.72369 0.0
H1087 H 0.09964 0.77627 0.73237 0.0
H1088 H 0.21791 0.84589 0.58583 0.0
H1089 H 0.24964 0.797 0.58702 0.0
H1090 H 0.14695 0.88088 0.58726 0.0
H1091 H 0.09762 0.89986 0.62035 0.0
C1092 C 0.55247 0.95289 0.90853 0.0
C1093 C 0.52093 0.95396 0.94198 0.0
C1094 C 0.57308 0.98416 0.97771 0.0
C1095 C 0.602 0.98641 0.94348 0.0
N1096 N 0.61669 0.97477 0.8755 0.0
N1097 N 0.49881 0.97443 1.0078 0.0
C1098 C 0.59081 0.97124 0.90872 0.0
C1099 C 0.53102 0.9703 0.97646 0.0
N1100 N 0.54675 0.93306 0.87667 0.0
N1101 N 0.58553 0.99568 1.01169 0.0
H1102 H 0.46822 0.96455 1.00816 0.0
H1103 H 0.50012 0.99008 1.03256 0.0
H1104 H 0.61371 1.008 1.01359 0.0
H1105 H 0.57027 0.99074 0.03822 0.0
H1106 H 0.57109 0.92726 0.85255 0.0
H1107 H 0.51943 0.91953 0.87542 0.0
H1108 H 0.60701 0.96925 0.84851 0.0
H1109 H 0.64695 0.98509 0.8748 0.0
C1110 C 0.87618 0.05053 0.39976 0.0
C1111 C 0.85949 0.03371 0.43296 0.0
C1112 C 0.89991 0.07335 0.4715 0.0
C1113 C 0.92047 0.0872 0.43822 0.0
N1114 N 0.93333 0.08213 0.36967 0.0
N1115 N 0.86727 0.02395 0.50021 0.0
C1116 C 0.9098 0.07384 0.40215 0.0
C1117 C 0.87452 0.04401 0.4687 0.0
N1118 N 0.8583 0.04577 0.36571 0.0
N1119 N 0.90306 0.08918 0.50635 0.0
H1120 H 0.85219 1.00104 0.49902 0.0
H1121 H 0.8814 0.02678 0.52618 0.0
H1122 H 0.92048 0.11053 0.50978 0.0
H1123 H 0.88435 0.08399 0.53126 0.0
H1124 H 0.86428 0.06045 0.3413 0.0
H1125 H 0.83357 0.02999 0.36278 0.0
H1126 H 0.93197 0.06996 0.34291 0.0
H1127 H 0.95793 0.09837 0.37002 0.0
loop_
_geom_bond_atom_site_label_1
_geom_bond_atom_site_label_2
_geom_bond_distance
_geom_bond_site_symmetry_2
_ccdc_geom_bond_type
Nd0 C2 2.836 1_455 S
Nd0 O20 2.500 1_455 S
Nd0 O21 2.492 . S
Nd0 O22 2.487 . S
Nd0 O23 2.682 . S
Nd0 O24 2.410 . S
Nd0 O29 2.414 . S
Nd0 O31 2.424 . S
Nd1 C11 2.836 . S
Nd1 O23 2.414 . S
Nd1 O25 2.424 . S
Nd1 O26 2.500 . S
Nd1 O27 2.492 . S
Nd1 O28 2.487 . S
Nd1 O29 2.682 . S
Nd1 O30 2.410 . S
C2 Nd0 2.836 1_655 S
C2 C3 1.498 . S
C2 O20 1.258 . S
C2 O21 1.239 1_655 S
C3 C2 1.498 . S
C3 C4 1.366 . S
C3 C8 1.407 . S
C4 C3 1.366 . S
C4 C5 1.392 . S
C4 H32 0.930 . S
C5 C4 1.392 . S
C5 C6 1.398 . S
C5 H33 0.929 . S
C6 C5 1.398 . S
C6 C7 1.352 . S
C7 C6 1.352 . S
C7 C8 1.384 . S
C7 H34 0.930 . S
C8 C3 1.407 . S
C8 C7 1.384 . S
C8 H35 0.929 . S
C9 O22 1.241 . S
C9 O23 1.273 . S
C10 O24 1.251 . S
C10 O25 1.268 . S
C11 Nd1 2.836 . S
C11 C12 1.498 . S
C11 O26 1.258 . S
C11 O27 1.239 . S
C12 C11 1.498 . S
C12 C13 1.366 . S
C12 C17 1.407 . S
C13 C12 1.366 . S
C13 C14 1.392 . S
C13 H36 0.930 . S
C14 C13 1.392 . S
C14 C15 1.398 . S
C14 H37 0.929 . S
C15 C14 1.398 . S
C15 C16 1.352 . S
C16 C15 1.352 . S
C16 C17 1.384 . S
C16 H38 0.930 . S
C17 C12 1.407 . S
C17 C16 1.384 . S
C17 H39 0.929 . S
C18 O28 1.241 . S
C18 O29 1.273 . S
C19 O30 1.251 . S
C19 O31 1.268 . S
O20 Nd0 2.500 1_655 S
O20 C2 1.258 . S
O21 Nd0 2.492 . S
O21 C2 1.239 1_455 S
O22 Nd0 2.487 . S
O22 C9 1.241 . S
O23 Nd0 2.682 . S
O23 Nd1 2.414 . S
O23 C9 1.273 . S
O24 Nd0 2.410 . S
O24 C10 1.251 . S
O25 Nd1 2.424 . S
O25 C10 1.268 . S
O26 Nd1 2.500 . S
O26 C11 1.258 . S
O27 Nd1 2.492 . S
O27 C11 1.239 . S
O28 Nd1 2.487 . S
O28 C18 1.241 . S
O29 Nd0 2.414 . S
O29 Nd1 2.682 . S
O29 C18 1.273 . S
O30 Nd1 2.410 . S
O30 C19 1.251 . S
O31 Nd0 2.424 . S
O31 C19 1.268 . S
H32 C4 0.930 . S
H33 C5 0.929 . S
H34 C7 0.930 . S
H35 C8 0.929 . S
H36 C13 0.930 . S
H37 C14 0.929 . S
H38 C16 0.930 . S
H39 C17 0.929 . S
Nd40 C42 2.836 . S
Nd40 O60 2.500 . S
Nd40 O61 2.492 . S
Nd40 O62 2.487 . S
Nd40 O63 2.682 . S
Nd40 O64 2.410 . S
Nd40 O69 2.414 . S
Nd40 O71 2.424 . S
Nd41 C51 2.836 . S
Nd41 O63 2.414 . S
Nd41 O65 2.424 . S
Nd41 O66 2.500 . S
Nd41 O67 2.492 . S
Nd41 O68 2.487 1_455 S
Nd41 O69 2.682 . S
Nd41 O70 2.410 . S
C42 Nd40 2.836 . S
C42 C43 1.498 . S
C42 O60 1.258 . S
C42 O61 1.239 . S
C43 C42 1.498 . S
C43 C44 1.366 . S
C43 C48 1.407 . S
C44 C43 1.366 . S
C44 C45 1.392 1_565 S
C44 H72 0.930 . S
C45 C44 1.392 1_545 S
C45 C46 1.398 . S
C45 H73 0.929 . S
C46 C45 1.398 . S
C46 C47 1.352 1_545 S
C47 C46 1.352 1_565 S
C47 C48 1.384 . S
C47 H74 0.930 . S
C48 C43 1.407 . S
C48 C47 1.384 . S
C48 H75 0.929 . S
C49 O62 1.241 . S
C49 O63 1.273 . S
C50 O64 1.251 . S
C50 O65 1.268 . S
C51 Nd41 2.836 . S
C51 C52 1.498 . S
C51 O66 1.258 . S
C51 O67 1.239 . S
C52 C51 1.498 . S
C52 C53 1.366 . S
C52 C57 1.407 . S
C53 C52 1.366 . S
C53 C54 1.392 . S
C53 H76 0.930 . S
C54 C53 1.392 . S
C54 C55 1.398 . S
C54 H77 0.929 . S
C55 C54 1.398 . S
C55 C56 1.352 . S
C56 C55 1.352 . S
C56 C57 1.384 . S
C56 H78 0.930 1_455 S
C57 C52 1.407 . S
C57 C56 1.384 . S
C57 H79 0.929 1_455 S
C58 O68 1.241 . S
C58 O69 1.273 1_655 S
C59 O70 1.251 . S
C59 O71 1.268 . S
O60 Nd40 2.500 . S
O60 C42 1.258 . S
O61 Nd40 2.492 . S
O61 C42 1.239 . S
O62 Nd40 2.487 . S
O62 C49 1.241 . S
O63 Nd40 2.682 . S
O63 Nd41 2.414 . S
O63 C49 1.273 . S
O64 Nd40 2.410 . S
O64 C50 1.251 . S
O65 Nd41 2.424 . S
O65 C50 1.268 . S
O66 Nd41 2.500 . S
O66 C51 1.258 . S
O67 Nd41 2.492 . S
O67 C51 1.239 . S
O68 Nd41 2.487 1_655 S
O68 C58 1.241 . S
O69 Nd40 2.414 . S
O69 Nd41 2.682 . S
O69 C58 1.273 1_455 S
O70 Nd41 2.410 . S
O70 C59 1.251 . S
O71 Nd40 2.424 . S
O71 C59 1.268 . S
H72 C44 0.930 . S
H73 C45 0.929 . S
H74 C47 0.930 . S
H75 C48 0.929 . S
H76 C53 0.930 . S
H77 C54 0.929 . S
H78 C56 0.930 1_655 S
H79 C57 0.929 1_655 S
Nd80 C82 2.836 . S
Nd80 O100 2.500 . S
Nd80 O101 2.492 . S
Nd80 O102 2.487 . S
Nd80 O103 2.682 . S
Nd80 O104 2.410 . S
Nd80 O109 2.414 . S
Nd80 O111 2.424 . S
Nd81 C91 2.836 . S
Nd81 O103 2.414 . S
Nd81 O105 2.424 . S
Nd81 O106 2.500 . S
Nd81 O107 2.492 . S
Nd81 O108 2.487 1_556 S
Nd81 O109 2.682 . S
Nd81 O110 2.410 . S
C82 Nd80 2.836 . S
C82 C83 1.498 . S
C82 O100 1.258 . S
C82 O101 1.239 . S
C83 C82 1.498 . S
C83 C84 1.366 . S
C83 C88 1.407 . S
C84 C83 1.366 . S
C84 C85 1.392 . S
C84 H112 0.930 . S
C85 C84 1.392 . S
C85 C86 1.398 . S
C85 H113 0.929 . S
C86 C85 1.398 . S
C86 C87 1.352 . S
C87 C86 1.352 . S
C87 C88 1.384 . S
C87 H114 0.930 . S
C88 C83 1.407 . S
C88 C87 1.384 . S
C88 H115 0.929 . S
C89 O102 1.241 . S
C89 O103 1.273 . S
C90 O104 1.251 . S
C90 O105 1.268 . S
C91 Nd81 2.836 . S
C91 C92 1.498 . S
C91 O106 1.258 . S
C91 O107 1.239 . S
C92 C91 1.498 . S
C92 C93 1.366 . S
C92 C97 1.409 1_556 S
C93 C92 1.366 . S
C93 C94 1.392 . S
C93 H116 0.930 . S
C94 C93 1.392 . S
C94 C95 1.398 . S
C94 H117 0.929 . S
C95 C94 1.398 . S
C95 C96 1.352 1_556 S
C96 C95 1.352 1_554 S
C96 C97 1.385 . S
C96 H118 0.930 . S
C97 C92 1.409 1_554 S
C97 C96 1.385 . S
C97 H119 0.927 . S
C98 O108 1.241 1_556 S
C98 O109 1.273 . S
C99 O110 1.251 . S
C99 O111 1.268 . S
O100 Nd80 2.500 . S
O100 C82 1.258 . S
O101 Nd80 2.492 . S
O101 C82 1.239 . S
O102 Nd80 2.487 . S
O102 C89 1.241 . S
O103 Nd80 2.682 . S
O103 Nd81 2.414 . S
O103 C89 1.273 . S
O104 Nd80 2.410 . S
O104 C90 1.251 . S
O105 Nd81 2.424 . S
O105 C90 1.268 . S
O106 Nd81 2.500 . S
O106 C91 1.258 . S
O107 Nd81 2.492 . S
O107 C91 1.239 . S
O108 Nd81 2.487 1_554 S
O108 C98 1.241 1_554 S
O109 Nd80 2.414 . S
O109 Nd81 2.682 . S
O109 C98 1.273 . S
O110 Nd81 2.410 . S
O110 C99 1.251 . S
O111 Nd80 2.424 . S
O111 C99 1.268 . S
H112 C84 0.930 . S
H113 C85 0.929 . S
H114 C87 0.930 . S
H115 C88 0.929 . S
H116 C93 0.930 . S
H117 C94 0.929 . S
H118 C96 0.930 . S
H119 C97 0.927 . S
Nd120 C122 2.836 . S
Nd120 O140 2.500 . S
Nd120 O141 2.492 . S
Nd120 O142 2.487 . S
Nd120 O143 2.682 . S
Nd120 O144 2.410 . S
Nd120 O149 2.414 . S
Nd120 O151 2.424 . S
Nd121 C131 2.836 . S
Nd121 O143 2.414 . S
Nd121 O145 2.424 . S
Nd121 O146 2.500 . S
Nd121 O147 2.492 . S
Nd121 O148 2.487 . S
Nd121 O149 2.682 . S
Nd121 O150 2.410 . S
C122 Nd120 2.836 . S
C122 C123 1.498 . S
C122 O140 1.258 . S
C122 O141 1.239 . S
C123 C122 1.498 . S
C123 C124 1.366 . S
C123 C128 1.407 . S
C124 C123 1.366 . S
C124 C125 1.392 . S
C124 H152 0.930 . S
C125 C124 1.392 . S
C125 C126 1.398 1_554 S
C125 H153 0.929 1_545 S
C126 C125 1.398 1_556 S
C126 C127 1.352 1_556 S
C127 C126 1.352 1_554 S
C127 C128 1.384 . S
C127 H154 0.930 1_554 S
C128 C123 1.407 . S
C128 C127 1.384 . S
C128 H155 0.929 . S
C129 O142 1.241 . S
C129 O143 1.273 . S
C130 O144 1.251 . S
C130 O145 1.268 . S
C131 Nd121 2.836 . S
C131 C132 1.498 . S
C131 O146 1.258 . S
C131 O147 1.239 . S
C132 C131 1.498 . S
C132 C133 1.366 . S
C132 C137 1.407 . S
C133 C132 1.366 . S
C133 C134 1.392 . S
C133 H156 0.930 . S
C134 C133 1.392 . S
C134 C135 1.398 . S
C134 H157 0.929 . S
C135 C134 1.398 . S
C135 C136 1.352 . S
C136 C135 1.352 . S
C136 C137 1.384 . S
C136 H158 0.930 . S
C137 C132 1.407 . S
C137 C136 1.384 . S
C137 H159 0.929 . S
C138 O148 1.241 . S
C138 O149 1.273 . S
C139 O150 1.251 . S
C139 O151 1.268 . S
O140 Nd120 2.500 . S
O140 C122 1.258 . S
O141 Nd120 2.492 . S
O141 C122 1.239 . S
O142 Nd120 2.487 . S
O142 C129 1.241 . S
O143 Nd120 2.682 . S
O143 Nd121 2.414 . S
O143 C129 1.273 . S
O144 Nd120 2.410 . S
O144 C130 1.251 . S
O145 Nd121 2.424 . S
O145 C130 1.268 . S
O146 Nd121 2.500 . S
O146 C131 1.258 . S
O147 Nd121 2.492 . S
O147 C131 1.239 . S
O148 Nd121 2.487 . S
O148 C138 1.241 . S
O149 Nd120 2.414 . S
O149 Nd121 2.682 . S
O149 C138 1.273 . S
O150 Nd121 2.410 . S
O150 C139 1.251 . S
O151 Nd120 2.424 . S
O151 C139 1.268 . S
H152 C124 0.930 . S
H153 C125 0.929 1_565 S
H154 C127 0.930 1_556 S
H155 C128 0.929 . S
H156 C133 0.930 . S
H157 C134 0.929 . S
H158 C136 0.930 . S
H159 C137 0.929 . S
Nd160 C162 2.836 . S
Nd160 O180 2.500 . S
Nd160 O181 2.492 . S
Nd160 O182 2.487 . S
Nd160 O183 2.682 . S
Nd160 O184 2.410 . S
Nd160 O189 2.414 . S
Nd160 O191 2.424 . S
Nd161 C171 2.836 . S
Nd161 O183 2.414 . S
Nd161 O185 2.424 . S
Nd161 O186 2.500 . S
Nd161 O187 2.492 . S
Nd161 O188 2.487 . S
Nd161 O189 2.682 . S
Nd161 O190 2.410 . S
C162 Nd160 2.836 . S
C162 C163 1.498 . S
C162 O180 1.258 . S
C162 O181 1.239 . S
C163 C162 1.498 . S
C163 C164 1.366 . S
C163 C168 1.407 . S
C164 C163 1.366 . S
C164 C165 1.392 . S
C164 H192 0.930 . S
C165 C164 1.392 . S
C165 C166 1.398 . S
C165 H193 0.929 . S
C166 C165 1.398 . S
C166 C167 1.352 . S
C167 C166 1.352 . S
C167 C168 1.384 . S
C167 H194 0.930 . S
C168 C163 1.407 . S
C168 C167 1.384 . S
C168 H195 0.929 . S
C169 O182 1.241 . S
C169 O183 1.273 . S
C170 O184 1.251 . S
C170 O185 1.268 . S
C171 Nd161 2.836 . S
C171 C172 1.498 . S
C171 O186 1.258 . S
C171 O187 1.239 . S
C172 C171 1.498 . S
C172 C173 1.366 . S
C172 C177 1.407 . S
C173 C172 1.366 . S
C173 C174 1.392 . S
C173 H196 0.930 . S
C174 C173 1.392 . S
C174 C175 1.398 . S
C174 H197 0.929 . S
C175 C174 1.398 . S
C175 C176 1.352 . S
C176 C175 1.352 . S
C176 C177 1.384 . S
C176 H198 0.930 . S
C177 C172 1.407 . S
C177 C176 1.384 . S
C177 H199 0.929 . S
C178 O188 1.241 . S
C178 O189 1.273 . S
C179 O190 1.251 . S
C179 O191 1.268 . S
O180 Nd160 2.500 . S
O180 C162 1.258 . S
O181 Nd160 2.492 . S
O181 C162 1.239 . S
O182 Nd160 2.487 . S
O182 C169 1.241 . S
O183 Nd160 2.682 . S
O183 Nd161 2.414 . S
O183 C169 1.273 . S
O184 Nd160 2.410 . S
O184 C170 1.251 . S
O185 Nd161 2.424 . S
O185 C170 1.268 . S
O186 Nd161 2.500 . S
O186 C171 1.258 . S
O187 Nd161 2.492 . S
O187 C171 1.239 . S
O188 Nd161 2.487 . S
O188 C178 1.241 . S
O189 Nd160 2.414 . S
O189 Nd161 2.682 . S
O189 C178 1.273 . S
O190 Nd161 2.410 . S
O190 C179 1.251 . S
O191 Nd160 2.424 . S
O191 C179 1.268 . S
H192 C164 0.930 . S
H193 C165 0.929 . S
H194 C167 0.930 . S
H195 C168 0.929 . S
H196 C173 0.930 . S
H197 C174 0.929 . S
H198 C176 0.930 . S
H199 C177 0.929 . S
Nd200 C202 2.836 . S
Nd200 O220 2.500 . S
Nd200 O221 2.492 . S
Nd200 O222 2.487 . S
Nd200 O223 2.682 . S
Nd200 O224 2.410 . S
Nd200 O229 2.419 . S
Nd200 O231 2.424 1_655 S
Nd201 C211 2.836 1_655 S
Nd201 O223 2.414 . S
Nd201 O225 2.424 . S
Nd201 O226 2.500 1_655 S
Nd201 O227 2.492 1_655 S
Nd201 O228 2.487 1_655 S
Nd201 O229 2.678 . S
Nd201 O230 2.410 1_655 S
C202 Nd200 2.836 . S
C202 C203 1.498 . S
C202 O220 1.258 . S
C202 O221 1.239 . S
C203 C202 1.498 . S
C203 C204 1.366 . S
C203 C208 1.407 . S
C204 C203 1.366 . S
C204 C205 1.392 . S
C204 H232 0.930 . S
C205 C204 1.392 . S
C205 C206 1.398 . S
C205 H233 0.929 . S
C206 C205 1.398 . S
C206 C207 1.352 . S
C207 C206 1.352 . S
C207 C208 1.384 . S
C207 H234 0.930 . S
C208 C203 1.407 . S
C208 C207 1.384 . S
C208 H235 0.929 . S
C209 O222 1.241 . S
C209 O223 1.273 . S
C210 O224 1.251 . S
C210 O225 1.268 . S
C211 Nd201 2.836 1_455 S
C211 C212 1.498 . S
C211 O226 1.258 . S
C211 O227 1.239 . S
C212 C211 1.498 . S
C212 C213 1.366 . S
C212 C217 1.407 . S
C213 C212 1.366 . S
C213 C214 1.392 . S
C213 H236 0.930 . S
C214 C213 1.392 . S
C214 C215 1.398 . S
C214 H237 0.929 . S
C215 C214 1.398 . S
C215 C216 1.352 . S
C216 C215 1.352 . S
C216 C217 1.384 . S
C216 H238 0.930 . S
C217 C212 1.407 . S
C217 C216 1.384 . S
C217 H239 0.929 . S
C218 O228 1.241 . S
C218 O229 1.266 1_455 S
C219 O230 1.251 . S
C219 O231 1.268 . S
O220 Nd200 2.500 . S
O220 C202 1.258 . S
O221 Nd200 2.492 . S
O221 C202 1.239 . S
O222 Nd200 2.487 . S
O222 C209 1.241 . S
O223 Nd200 2.682 . S
O223 Nd201 2.414 . S
O223 C209 1.273 . S
O224 Nd200 2.410 . S
O224 C210 1.251 . S
O225 Nd201 2.424 . S
O225 C210 1.268 . S
O226 Nd201 2.500 1_455 S
O226 C211 1.258 . S
O227 Nd201 2.492 1_455 S
O227 C211 1.239 . S
O228 Nd201 2.487 1_455 S
O228 C218 1.241 . S
O229 Nd200 2.419 . S
O229 Nd201 2.678 . S
O229 C218 1.266 1_655 S
O230 Nd201 2.410 1_455 S
O230 C219 1.251 . S
O231 Nd200 2.424 1_455 S
O231 C219 1.268 . S
H232 C204 0.930 . S
H233 C205 0.929 . S
H234 C207 0.930 . S
H235 C208 0.929 . S
H236 C213 0.930 . S
H237 C214 0.929 . S
H238 C216 0.930 . S
H239 C217 0.929 . S
Nd240 C242 2.836 . S
Nd240 O260 2.500 . S
Nd240 O261 2.492 . S
Nd240 O262 2.487 . S
Nd240 O263 2.682 . S
Nd240 O264 2.410 . S
Nd240 O269 2.414 . S
Nd240 O271 2.424 . S
Nd241 C251 2.836 1_554 S
Nd241 O263 2.414 . S
Nd241 O265 2.424 . S
Nd241 O266 2.500 1_554 S
Nd241 O267 2.492 1_554 S
Nd241 O268 2.487 . S
Nd241 O269 2.682 . S
Nd241 O270 2.410 1_554 S
C242 Nd240 2.836 . S
C242 C243 1.498 . S
C242 O260 1.258 . S
C242 O261 1.239 . S
C243 C242 1.498 . S
C243 C244 1.366 . S
C243 C248 1.407 . S
C244 C243 1.366 . S
C244 C245 1.392 . S
C244 H272 0.930 . S
C245 C244 1.392 . S
C245 C246 1.398 . S
C245 H273 0.929 . S
C246 C245 1.398 . S
C246 C247 1.352 . S
C247 C246 1.352 . S
C247 C248 1.384 . S
C247 H274 0.930 . S
C248 C243 1.407 . S
C248 C247 1.384 . S
C248 H275 0.929 . S
C249 O262 1.241 . S
C249 O263 1.273 . S
C250 O264 1.251 . S
C250 O265 1.268 . S
C251 Nd241 2.836 1_556 S
C251 C252 1.498 1_655 S
C251 O266 1.258 . S
C251 O267 1.239 . S
C252 C251 1.498 1_455 S
C252 C253 1.366 . S
C252 C257 1.407 . S
C253 C252 1.366 . S
C253 C254 1.392 . S
C253 H276 0.930 . S
C254 C253 1.392 . S
C254 C255 1.398 . S
C254 H277 0.929 . S
C255 C254 1.398 . S
C255 C256 1.352 . S
C256 C255 1.352 . S
C256 C257 1.384 . S
C256 H278 0.930 . S
C257 C252 1.407 . S
C257 C256 1.384 . S
C257 H279 0.929 1_455 S
C258 O268 1.241 . S
C258 O269 1.273 . S
C259 O270 1.251 . S
C259 O271 1.268 1_556 S
O260 Nd240 2.500 . S
O260 C242 1.258 . S
O261 Nd240 2.492 . S
O261 C242 1.239 . S
O262 Nd240 2.487 . S
O262 C249 1.241 . S
O263 Nd240 2.682 . S
O263 Nd241 2.414 . S
O263 C249 1.273 . S
O264 Nd240 2.410 . S
O264 C250 1.251 . S
O265 Nd241 2.424 . S
O265 C250 1.268 . S
O266 Nd241 2.500 1_556 S
O266 C251 1.258 . S
O267 Nd241 2.492 1_556 S
O267 C251 1.239 . S
O268 Nd241 2.487 . S
O268 C258 1.241 . S
O269 Nd240 2.414 . S
O269 Nd241 2.682 . S
O269 C258 1.273 . S
O270 Nd241 2.410 1_556 S
O270 C259 1.251 . S
O271 Nd240 2.424 . S
O271 C259 1.268 1_554 S
H272 C244 0.930 . S
H273 C245 0.929 . S
H274 C247 0.930 . S
H275 C248 0.929 . S
H276 C253 0.930 . S
H277 C254 0.929 . S
H278 C256 0.930 . S
H279 C257 0.929 1_655 S
Nd280 C282 2.836 . S
Nd280 O300 2.500 . S
Nd280 O301 2.492 . S
Nd280 O302 2.487 . S
Nd280 O303 2.682 . S
Nd280 O304 2.410 . S
Nd280 O309 2.414 . S
Nd280 O311 2.424 . S
Nd281 C291 2.836 . S
Nd281 O303 2.414 . S
Nd281 O305 2.424 . S
Nd281 O306 2.500 . S
Nd281 O307 2.492 . S
Nd281 O308 2.487 . S
Nd281 O309 2.682 . S
Nd281 O310 2.410 . S
C282 Nd280 2.836 . S
C282 C283 1.498 . S
C282 O300 1.258 . S
C282 O301 1.239 . S
C283 C282 1.498 . S
C283 C284 1.366 . S
C283 C288 1.407 . S
C284 C283 1.366 . S
C284 C285 1.392 . S
C284 H312 0.930 . S
C285 C284 1.392 . S
C285 C286 1.398 . S
C285 H313 0.929 . S
C286 C285 1.398 . S
C286 C287 1.352 . S
C287 C286 1.352 . S
C287 C288 1.384 . S
C287 H314 0.930 . S
C288 C283 1.407 . S
C288 C287 1.384 . S
C288 H315 0.929 . S
C289 O302 1.241 . S
C289 O303 1.273 . S
C290 O304 1.251 . S
C290 O305 1.268 . S
C291 Nd281 2.836 . S
C291 C292 1.498 . S
C291 O306 1.258 . S
C291 O307 1.239 . S
C292 C291 1.498 . S
C292 C293 1.366 . S
C292 C297 1.407 . S
C293 C292 1.366 . S
C293 C294 1.392 . S
C293 H316 0.930 . S
C294 C293 1.392 . S
C294 C295 1.398 . S
C294 H317 0.929 . S
C295 C294 1.398 . S
C295 C296 1.352 . S
C296 C295 1.352 . S
C296 C297 1.384 . S
C296 H318 0.930 . S
C297 C292 1.407 . S
C297 C296 1.384 . S
C297 H319 0.929 . S
C298 O308 1.241 . S
C298 O309 1.273 . S
C299 O310 1.251 . S
C299 O311 1.268 . S
O300 Nd280 2.500 . S
O300 C282 1.258 . S
O301 Nd280 2.492 . S
O301 C282 1.239 . S
O302 Nd280 2.487 . S
O302 C289 1.241 . S
O303 Nd280 2.682 . S
O303 Nd281 2.414 . S
O303 C289 1.273 . S
O304 Nd280 2.410 . S
O304 C290 1.251 . S
O305 Nd281 2.424 . S
O305 C290 1.268 . S
O306 Nd281 2.500 . S
O306 C291 1.258 . S
O307 Nd281 2.492 . S
O307 C291 1.239 . S
O308 Nd281 2.487 . S
O308 C298 1.241 . S
O309 Nd280 2.414 . S
O309 Nd281 2.682 . S
O309 C298 1.273 . S
O310 Nd281 2.410 . S
O310 C299 1.251 . S
O311 Nd280 2.424 . S
O311 C299 1.268 . S
H312 C284 0.930 . S
H313 C285 0.929 . S
H314 C287 0.930 . S
H315 C288 0.929 . S
H316 C293 0.930 . S
H317 C294 0.929 . S
H318 C296 0.930 . S
H319 C297 0.929 . S
Nd320 C322 2.836 . S
Nd320 O340 2.500 . S
Nd320 O341 2.492 . S
Nd320 O342 2.487 . S
Nd320 O343 2.682 . S
Nd320 O344 2.410 . S
Nd320 O349 2.414 . S
Nd320 O351 2.424 . S
Nd321 C331 2.836 . S
Nd321 O343 2.414 . S
Nd321 O345 2.424 . S
Nd321 O346 2.500 . S
Nd321 O347 2.492 . S
Nd321 O348 2.487 . S
Nd321 O349 2.682 . S
Nd321 O350 2.410 . S
C322 Nd320 2.836 . S
C322 C323 1.498 . S
C322 O340 1.258 . S
C322 O341 1.239 . S
C323 C322 1.498 . S
C323 C324 1.366 1_554 S
C323 C328 1.407 . S
C324 C323 1.366 1_556 S
C324 C325 1.392 . S
C324 H352 0.930 . S
C325 C324 1.392 . S
C325 C326 1.398 . S
C325 H353 0.929 . S
C326 C325 1.398 . S
C326 C327 1.352 . S
C327 C326 1.352 . S
C327 C328 1.384 1_556 S
C327 H354 0.930 . S
C328 C323 1.407 . S
C328 C327 1.384 1_554 S
C328 H355 0.929 . S
C329 O342 1.241 . S
C329 O343 1.273 . S
C330 O344 1.251 . S
C330 O345 1.268 . S
C331 Nd321 2.836 . S
C331 C332 1.498 . S
C331 O346 1.258 . S
C331 O347 1.239 . S
C332 C331 1.498 . S
C332 C333 1.366 . S
C332 C337 1.407 . S
C333 C332 1.366 . S
C333 C334 1.392 . S
C333 H356 0.930 . S
C334 C333 1.392 . S
C334 C335 1.398 . S
C334 H357 0.929 . S
C335 C334 1.398 . S
C335 C336 1.352 . S
C336 C335 1.352 . S
C336 C337 1.384 . S
C336 H358 0.930 . S
C337 C332 1.407 . S
C337 C336 1.384 . S
C337 H359 0.929 . S
C338 O348 1.241 . S
C338 O349 1.273 . S
C339 O350 1.251 . S
C339 O351 1.268 . S
O340 Nd320 2.500 . S
O340 C322 1.258 . S
O341 Nd320 2.492 . S
O341 C322 1.239 . S
O342 Nd320 2.487 . S
O342 C329 1.241 . S
O343 Nd320 2.682 . S
O343 Nd321 2.414 . S
O343 C329 1.273 . S
O344 Nd320 2.410 . S
O344 C330 1.251 . S
O345 Nd321 2.424 . S
O345 C330 1.268 . S
O346 Nd321 2.500 . S
O346 C331 1.258 . S
O347 Nd321 2.492 . S
O347 C331 1.239 . S
O348 Nd321 2.487 . S
O348 C338 1.241 . S
O349 Nd320 2.414 . S
O349 Nd321 2.682 . S
O349 C338 1.273 . S
O350 Nd321 2.410 . S
O350 C339 1.251 . S
O351 Nd320 2.424 . S
O351 C339 1.268 . S
H352 C324 0.930 . S
H353 C325 0.929 . S
H354 C327 0.930 . S
H355 C328 0.929 . S
H356 C333 0.930 . S
H357 C334 0.929 . S
H358 C336 0.930 . S
H359 C337 0.929 . S
Nd360 C362 2.836 . S
Nd360 O380 2.500 . S
Nd360 O381 2.492 . S
Nd360 O382 2.487 . S
Nd360 O383 2.682 . S
Nd360 O384 2.410 . S
Nd360 O389 2.414 . S
Nd360 O391 2.424 . S
Nd361 C371 2.836 1_545 S
Nd361 O383 2.414 . S
Nd361 O385 2.424 . S
Nd361 O386 2.500 1_545 S
Nd361 O387 2.492 1_545 S
Nd361 O388 2.487 1_545 S
Nd361 O389 2.682 . S
Nd361 O390 2.410 1_545 S
C362 Nd360 2.836 . S
C362 C363 1.498 . S
C362 O380 1.258 . S
C362 O381 1.239 . S
C363 C362 1.498 . S
C363 C364 1.366 . S
C363 C368 1.407 . S
C364 C363 1.366 . S
C364 C365 1.392 . S
C364 H392 0.930 . S
C365 C364 1.392 . S
C365 C366 1.398 . S
C365 H393 0.929 . S
C366 C365 1.398 . S
C366 C367 1.352 . S
C367 C366 1.352 . S
C367 C368 1.384 . S
C367 H394 0.930 . S
C368 C363 1.407 . S
C368 C367 1.384 . S
C368 H395 0.929 . S
C369 O382 1.241 . S
C369 O383 1.273 . S
C370 O384 1.251 . S
C370 O385 1.268 . S
C371 Nd361 2.836 1_565 S
C371 C372 1.498 . S
C371 O386 1.258 . S
C371 O387 1.239 . S
C372 C371 1.498 . S
C372 C373 1.366 1_556 S
C372 C377 1.407 . S
C373 C372 1.366 1_554 S
C373 C374 1.392 . S
C373 H396 0.930 . S
C374 C373 1.392 . S
C374 C375 1.398 . S
C374 H397 0.929 . S
C375 C374 1.398 . S
C375 C376 1.352 . S
C376 C375 1.352 . S
C376 C377 1.384 1_554 S
C376 H398 0.930 . S
C377 C372 1.407 . S
C377 C376 1.384 1_556 S
C377 H399 0.929 . S
C378 O388 1.241 1_545 S
C378 O389 1.273 . S
C379 O390 1.251 . S
C379 O391 1.268 1_565 S
O380 Nd360 2.500 . S
O380 C362 1.258 . S
O381 Nd360 2.492 . S
O381 C362 1.239 . S
O382 Nd360 2.487 . S
O382 C369 1.241 . S
O383 Nd360 2.682 . S
O383 Nd361 2.414 . S
O383 C369 1.273 . S
O384 Nd360 2.410 . S
O384 C370 1.251 . S
O385 Nd361 2.424 . S
O385 C370 1.268 . S
O386 Nd361 2.500 1_565 S
O386 C371 1.258 . S
O387 Nd361 2.492 1_565 S
O387 C371 1.239 . S
O388 Nd361 2.487 1_565 S
O388 C378 1.241 1_565 S
O389 Nd360 2.414 . S
O389 Nd361 2.682 . S
O389 C378 1.273 . S
O390 Nd361 2.410 1_565 S
O390 C379 1.251 . S
O391 Nd360 2.424 . S
O391 C379 1.268 1_545 S
H392 C364 0.930 . S
H393 C365 0.929 . S
H394 C367 0.930 . S
H395 C368 0.929 . S
H396 C373 0.930 . S
H397 C374 0.929 . S
H398 C376 0.930 . S
H399 C377 0.929 . S
Nd400 C402 2.836 . S
Nd400 O420 2.500 . S
Nd400 O421 2.492 . S
Nd400 O422 2.487 . S
Nd400 O423 2.682 . S
Nd400 O424 2.410 . S
Nd400 O429 2.414 . S
Nd400 O431 2.424 . S
Nd401 C411 2.836 1_565 S
Nd401 O423 2.414 . S
Nd401 O425 2.424 . S
Nd401 O426 2.500 . S
Nd401 O427 2.492 1_565 S
Nd401 O428 2.487 . S
Nd401 O429 2.682 . S
Nd401 O430 2.410 . S
C402 Nd400 2.836 . S
C402 C403 1.498 . S
C402 O420 1.258 . S
C402 O421 1.239 . S
C403 C402 1.498 . S
C403 C404 1.366 . S
C403 C408 1.407 . S
C404 C403 1.366 . S
C404 C405 1.392 . S
C404 H432 0.930 . S
C405 C404 1.392 . S
C405 C406 1.398 . S
C405 H433 0.929 . S
C406 C405 1.398 . S
C406 C407 1.352 . S
C407 C406 1.352 . S
C407 C408 1.384 . S
C407 H434 0.930 . S
C408 C403 1.407 . S
C408 C407 1.384 . S
C408 H435 0.929 . S
C409 O422 1.241 . S
C409 O423 1.273 . S
C410 O424 1.251 . S
C410 O425 1.268 . S
C411 Nd401 2.836 1_545 S
C411 C412 1.498 . S
C411 O426 1.258 1_545 S
C411 O427 1.239 . S
C412 C411 1.498 . S
C412 C413 1.366 . S
C412 C417 1.407 . S
C413 C412 1.366 . S
C413 C414 1.392 . S
C413 H436 0.930 . S
C414 C413 1.392 . S
C414 C415 1.398 . S
C414 H437 0.929 . S
C415 C414 1.398 . S
C415 C416 1.352 . S
C416 C415 1.352 . S
C416 C417 1.384 . S
C416 H438 0.930 . S
C417 C412 1.407 . S
C417 C416 1.384 . S
C417 H439 0.929 . S
C418 O428 1.241 . S
C418 O429 1.273 . S
C419 O430 1.251 . S
C419 O431 1.268 . S
O420 Nd400 2.500 . S
O420 C402 1.258 . S
O421 Nd400 2.492 . S
O421 C402 1.239 . S
O422 Nd400 2.487 . S
O422 C409 1.241 . S
O423 Nd400 2.682 . S
O423 Nd401 2.414 . S
O423 C409 1.273 . S
O424 Nd400 2.410 . S
O424 C410 1.251 . S
O425 Nd401 2.424 . S
O425 C410 1.268 . S
O426 Nd401 2.500 . S
O426 C411 1.258 1_565 S
O427 Nd401 2.492 1_545 S
O427 C411 1.239 . S
O428 Nd401 2.487 . S
O428 C418 1.241 . S
O429 Nd400 2.414 . S
O429 Nd401 2.682 . S
O429 C418 1.273 . S
O430 Nd401 2.410 . S
O430 C419 1.251 . S
O431 Nd400 2.424 . S
O431 C419 1.268 . S
H432 C404 0.930 . S
H433 C405 0.929 . S
H434 C407 0.930 . S
H435 C408 0.929 . S
H436 C413 0.930 . S
H437 C414 0.929 . S
H438 C416 0.930 . S
H439 C417 0.929 . S
Nd440 C442 2.836 . S
Nd440 O460 2.500 . S
Nd440 O461 2.492 . S
Nd440 O462 2.487 . S
Nd440 O463 2.682 . S
Nd440 O464 2.410 . S
Nd440 O469 2.414 . S
Nd440 O471 2.424 . S
Nd441 C451 2.836 . S
Nd441 O463 2.414 . S
Nd441 O465 2.424 . S
Nd441 O466 2.500 . S
Nd441 O467 2.492 . S
Nd441 O468 2.487 . S
Nd441 O469 2.682 . S
Nd441 O470 2.410 . S
C442 Nd440 2.836 . S
C442 C443 1.498 . S
C442 O460 1.258 . S
C442 O461 1.239 . S
C443 C442 1.498 . S
C443 C444 1.366 . S
C443 C448 1.407 . S
C444 C443 1.366 . S
C444 C445 1.392 . S
C444 H472 0.930 . S
C445 C444 1.392 . S
C445 C446 1.398 . S
C445 H473 0.929 . S
C446 C445 1.398 . S
C446 C447 1.352 . S
C447 C446 1.352 . S
C447 C448 1.384 . S
C447 H474 0.930 . S
C448 C443 1.407 . S
C448 C447 1.384 . S
C448 H475 0.929 . S
C449 O462 1.241 . S
C449 O463 1.273 . S
C450 O464 1.251 . S
C450 O465 1.268 . S
C451 Nd441 2.836 . S
C451 C452 1.498 . S
C451 O466 1.258 . S
C451 O467 1.239 . S
C452 C451 1.498 . S
C452 C453 1.366 . S
C452 C457 1.407 . S
C453 C452 1.366 . S
C453 C454 1.392 . S
C453 H476 0.930 . S
C454 C453 1.392 . S
C454 C455 1.398 . S
C454 H477 0.929 . S
C455 C454 1.398 . S
C455 C456 1.352 . S
C456 C455 1.352 . S
C456 C457 1.384 . S
C456 H478 0.930 . S
C457 C452 1.407 . S
C457 C456 1.384 . S
C457 H479 0.929 . S
C458 O468 1.241 . S
C458 O469 1.273 . S
C459 O470 1.251 . S
C459 O471 1.268 . S
O460 Nd440 2.500 . S
O460 C442 1.258 . S
O461 Nd440 2.492 . S
O461 C442 1.239 . S
O462 Nd440 2.487 . S
O462 C449 1.241 . S
O463 Nd440 2.682 . S
O463 Nd441 2.414 . S
O463 C449 1.273 . S
O464 Nd440 2.410 . S
O464 C450 1.251 . S
O465 Nd441 2.424 . S
O465 C450 1.268 . S
O466 Nd441 2.500 . S
O466 C451 1.258 . S
O467 Nd441 2.492 . S
O467 C451 1.239 . S
O468 Nd441 2.487 . S
O468 C458 1.241 . S
O469 Nd440 2.414 . S
O469 Nd441 2.682 . S
O469 C458 1.273 . S
O470 Nd441 2.410 . S
O470 C459 1.251 . S
O471 Nd440 2.424 . S
O471 C459 1.268 . S
H472 C444 0.930 . S
H473 C445 0.929 . S
H474 C447 0.930 . S
H475 C448 0.929 . S
H476 C453 0.930 . S
H477 C454 0.929 . S
H478 C456 0.930 . S
H479 C457 0.929 . S
C480 C481 1.363 . S
C480 C486 1.379 . S
C480 N488 1.356 . S
C481 C480 1.363 . S
C481 C487 1.363 . S
C482 C483 1.363 . S
C482 C487 1.379 . S
C482 N489 1.356 . S
C483 C482 1.363 . S
C483 C486 1.363 . S
N484 C486 1.356 . S
N484 H496 0.984 . S
N484 H497 0.985 . S
N485 C487 1.356 . S
N485 H490 0.984 . S
N485 H491 0.985 . S
C486 C480 1.379 . S
C486 C483 1.363 . S
C486 N484 1.356 . S
C487 C481 1.363 . S
C487 C482 1.379 . S
C487 N485 1.356 . S
N488 C480 1.356 . S
N488 H494 0.984 . S
N488 H495 0.984 . S
N489 C482 1.356 . S
N489 H492 0.984 . S
N489 H493 0.985 . S
H490 N485 0.984 . S
H491 N485 0.985 . S
H492 N489 0.984 . S
H493 N489 0.985 . S
H494 N488 0.984 . S
H495 N488 0.984 . S
H496 N484 0.984 . S
H497 N484 0.985 . S
C498 C499 1.363 . S
C498 C504 1.379 . S
C498 N506 1.356 . S
C499 C498 1.363 . S
C499 C505 1.363 . S
C500 C501 1.363 . S
C500 C505 1.379 . S
C500 N507 1.356 . S
C501 C500 1.363 . S
C501 C504 1.363 . S
N502 C504 1.356 . S
N502 H514 0.984 . S
N502 H515 0.985 . S
N503 C505 1.356 . S
N503 H508 0.984 . S
N503 H509 0.985 . S
C504 C498 1.379 . S
C504 C501 1.363 . S
C504 N502 1.356 . S
C505 C499 1.363 . S
C505 C500 1.379 . S
C505 N503 1.356 . S
N506 C498 1.356 . S
N506 H512 0.984 . S
N506 H513 0.984 . S
N507 C500 1.356 . S
N507 H510 0.984 . S
N507 H511 0.985 . S
H508 N503 0.984 . S
H509 N503 0.985 . S
H510 N507 0.984 . S
H511 N507 0.985 . S
H512 N506 0.984 . S
H513 N506 0.984 . S
H514 N502 0.984 . S
H515 N502 0.985 . S
C516 C517 1.359 1_556 S
C516 C522 1.379 1_556 S
C516 N524 1.356 . S
C517 C516 1.359 1_554 S
C517 C523 1.386 . S
C518 C519 1.363 . S
C518 C523 1.379 . S
C518 N525 1.356 . S
C519 C518 1.363 . S
C519 C522 1.363 . S
N520 C522 1.356 . S
N520 H532 0.984 . S
N520 H533 0.985 . S
N521 C523 1.356 . S
N521 H526 0.984 . S
N521 H527 0.985 . S
C522 C516 1.379 1_554 S
C522 C519 1.363 . S
C522 N520 1.356 . S
C523 C517 1.386 . S
C523 C518 1.379 . S
C523 N521 1.356 . S
N524 C516 1.356 . S
N524 H530 0.984 . S
N524 H531 0.984 . S
N525 C518 1.356 . S
N525 H528 0.984 . S
N525 H529 0.985 . S
H526 N521 0.984 . S
H527 N521 0.985 . S
H528 N525 0.984 . S
H529 N525 0.985 . S
H530 N524 0.984 . S
H531 N524 0.984 . S
H532 N520 0.984 . S
H533 N520 0.985 . S
C534 C535 1.363 . S
C534 C540 1.379 . S
C534 N542 1.356 . S
C535 C534 1.363 . S
C535 C541 1.363 . S
C536 C537 1.363 . S
C536 C541 1.379 . S
C536 N543 1.356 . S
C537 C536 1.363 . S
C537 C540 1.363 . S
N538 C540 1.356 1_565 S
N538 H550 0.984 . S
N538 H551 0.985 . S
N539 C541 1.356 . S
N539 H544 0.984 . S
N539 H545 0.985 . S
C540 C534 1.379 . S
C540 C537 1.363 . S
C540 N538 1.356 1_545 S
C541 C535 1.363 . S
C541 C536 1.379 . S
C541 N539 1.356 . S
N542 C534 1.356 . S
N542 H548 0.984 1_545 S
N542 H549 0.984 . S
N543 C536 1.356 . S
N543 H546 0.984 . S
N543 H547 0.985 . S
H544 N539 0.984 . S
H545 N539 0.985 . S
H546 N543 0.984 . S
H547 N543 0.985 . S
H548 N542 0.984 1_565 S
H549 N542 0.984 . S
H550 N538 0.984 . S
H551 N538 0.985 . S
C552 C553 1.363 . S
C552 C558 1.379 . S
C552 N560 1.356 . S
C553 C552 1.363 . S
C553 C559 1.363 . S
C554 C555 1.363 . S
C554 C559 1.379 . S
C554 N561 1.356 . S
C555 C554 1.363 . S
C555 C558 1.363 . S
N556 C558 1.356 . S
N556 H568 0.984 . S
N556 H569 0.985 . S
N557 C559 1.356 . S
N557 H562 0.984 . S
N557 H563 0.985 . S
C558 C552 1.379 . S
C558 C555 1.363 . S
C558 N556 1.356 . S
C559 C553 1.363 . S
C559 C554 1.379 . S
C559 N557 1.356 . S
N560 C552 1.356 . S
N560 H566 0.984 . S
N560 H567 0.984 . S
N561 C554 1.356 . S
N561 H564 0.984 . S
N561 H565 0.985 . S
H562 N557 0.984 . S
H563 N557 0.985 . S
H564 N561 0.984 . S
H565 N561 0.985 . S
H566 N560 0.984 . S
H567 N560 0.984 . S
H568 N556 0.984 . S
H569 N556 0.985 . S
C570 C571 1.363 . S
C570 C576 1.379 . S
C570 N578 1.356 . S
C571 C570 1.363 . S
C571 C577 1.363 . S
C572 C573 1.363 . S
C572 C577 1.379 . S
C572 N579 1.356 . S
C573 C572 1.363 . S
C573 C576 1.363 . S
N574 C576 1.356 . S
N574 H586 0.984 . S
N574 H587 0.985 . S
N575 C577 1.356 . S
N575 H580 0.984 . S
N575 H581 0.985 . S
C576 C570 1.379 . S
C576 C573 1.363 . S
C576 N574 1.356 . S
C577 C571 1.363 . S
C577 C572 1.379 . S
C577 N575 1.356 . S
N578 C570 1.356 . S
N578 H584 0.984 . S
N578 H585 0.984 . S
N579 C572 1.356 . S
N579 H582 0.984 . S
N579 H583 0.985 . S
H580 N575 0.984 . S
H581 N575 0.985 . S
H582 N579 0.984 . S
H583 N579 0.985 . S
H584 N578 0.984 . S
H585 N578 0.984 . S
H586 N574 0.984 . S
H587 N574 0.985 . S
C588 C589 1.363 . S
C588 C594 1.379 . S
C588 N596 1.356 . S
C589 C588 1.363 . S
C589 C595 1.363 . S
C590 C591 1.363 . S
C590 C595 1.379 . S
C590 N597 1.356 1_554 S
C591 C590 1.363 . S
C591 C594 1.363 . S
N592 C594 1.356 . S
N592 H604 0.984 . S
N592 H605 0.985 . S
N593 C595 1.356 . S
N593 H598 0.984 . S
N593 H599 0.985 1_554 S
C594 C588 1.379 . S
C594 C591 1.363 . S
C594 N592 1.356 . S
C595 C589 1.363 . S
C595 C590 1.379 . S
C595 N593 1.356 . S
N596 C588 1.356 . S
N596 H602 0.984 . S
N596 H603 0.984 . S
N597 C590 1.356 1_556 S
N597 H600 0.984 . S
N597 H601 0.985 . S
H598 N593 0.984 . S
H599 N593 0.985 1_556 S
H600 N597 0.984 . S
H601 N597 0.985 . S
H602 N596 0.984 . S
H603 N596 0.984 . S
H604 N592 0.984 . S
H605 N592 0.985 . S
C606 C607 1.363 . S
C606 C612 1.379 . S
C606 N614 1.356 . S
C607 C606 1.363 . S
C607 C613 1.363 . S
C608 C609 1.363 . S
C608 C613 1.379 . S
C608 N615 1.356 . S
C609 C608 1.363 . S
C609 C612 1.363 . S
N610 C612 1.356 . S
N610 H622 0.984 . S
N610 H623 0.985 . S
N611 C613 1.356 . S
N611 H616 0.984 . S
N611 H617 0.985 . S
C612 C606 1.379 . S
C612 C609 1.363 . S
C612 N610 1.356 . S
C613 C607 1.363 . S
C613 C608 1.379 . S
C613 N611 1.356 . S
N614 C606 1.356 . S
N614 H620 0.984 . S
N614 H621 0.984 . S
N615 C608 1.356 . S
N615 H618 0.984 . S
N615 H619 0.985 . S
H616 N611 0.984 . S
H617 N611 0.985 . S
H618 N615 0.984 . S
H619 N615 0.985 . S
H620 N614 0.984 . S
H621 N614 0.984 . S
H622 N610 0.984 . S
H623 N610 0.985 . S
C624 C625 1.363 . S
C624 C630 1.379 . S
C624 N632 1.356 . S
C625 C624 1.363 . S
C625 C631 1.363 . S
C626 C627 1.363 . S
C626 C631 1.379 . S
C626 N633 1.356 . S
C627 C626 1.363 . S
C627 C630 1.363 . S
N628 C630 1.356 . S
N628 H640 0.984 . S
N628 H641 0.985 . S
N629 C631 1.356 . S
N629 H634 0.984 . S
N629 H635 0.985 . S
C630 C624 1.379 . S
C630 C627 1.363 . S
C630 N628 1.356 . S
C631 C625 1.363 . S
C631 C626 1.379 . S
C631 N629 1.356 . S
N632 C624 1.356 . S
N632 H638 0.984 . S
N632 H639 0.984 . S
N633 C626 1.356 . S
N633 H636 0.984 . S
N633 H637 0.985 . S
H634 N629 0.984 . S
H635 N629 0.985 . S
H636 N633 0.984 . S
H637 N633 0.985 . S
H638 N632 0.984 . S
H639 N632 0.984 . S
H640 N628 0.984 . S
H641 N628 0.985 . S
C642 C643 1.363 . S
C642 C648 1.379 . S
C642 N650 1.356 . S
C643 C642 1.363 . S
C643 C649 1.363 . S
C644 C645 1.363 . S
C644 C649 1.379 . S
C644 N651 1.356 1_455 S
C645 C644 1.363 . S
C645 C648 1.363 . S
N646 C648 1.356 . S
N646 H658 0.984 . S
N646 H659 0.985 . S
N647 C649 1.356 1_655 S
N647 H652 0.984 . S
N647 H653 0.985 . S
C648 C642 1.379 . S
C648 C645 1.363 . S
C648 N646 1.356 . S
C649 C643 1.363 . S
C649 C644 1.379 . S
C649 N647 1.356 1_455 S
N650 C642 1.356 . S
N650 H656 0.984 . S
N650 H657 0.984 . S
N651 C644 1.356 1_655 S
N651 H654 0.984 . S
N651 H655 0.985 . S
H652 N647 0.984 . S
H653 N647 0.985 . S
H654 N651 0.984 . S
H655 N651 0.985 . S
H656 N650 0.984 . S
H657 N650 0.984 . S
H658 N646 0.984 . S
H659 N646 0.985 . S
C660 C661 1.363 . S
C660 C666 1.379 . S
C660 N668 1.356 . S
C661 C660 1.363 . S
C661 C667 1.363 . S
C662 C663 1.363 . S
C662 C667 1.379 . S
C662 N669 1.356 . S
C663 C662 1.363 . S
C663 C666 1.363 . S
N664 C666 1.356 . S
N664 H676 0.984 . S
N664 H677 0.985 . S
N665 C667 1.356 . S
N665 H670 0.984 . S
N665 H671 0.985 . S
C666 C660 1.379 . S
C666 C663 1.363 . S
C666 N664 1.356 . S
C667 C661 1.363 . S
C667 C662 1.379 . S
C667 N665 1.356 . S
N668 C660 1.356 . S
N668 H674 0.984 . S
N668 H675 0.984 . S
N669 C662 1.356 . S
N669 H672 0.984 . S
N669 H673 0.985 . S
H670 N665 0.984 . S
H671 N665 0.985 . S
H672 N669 0.984 . S
H673 N669 0.985 . S
H674 N668 0.984 . S
H675 N668 0.984 . S
H676 N664 0.984 . S
H677 N664 0.985 . S
C678 C679 1.363 . S
C678 C684 1.379 . S
C678 N686 1.356 . S
C679 C678 1.363 . S
C679 C685 1.363 . S
C680 C681 1.363 . S
C680 C685 1.379 . S
C680 N687 1.356 . S
C681 C680 1.363 . S
C681 C684 1.363 . S
N682 C684 1.356 . S
N682 H694 0.984 . S
N682 H695 0.960 1_554 S
N683 C685 1.356 . S
N683 H688 0.984 . S
N683 H689 0.985 . S
C684 C678 1.379 . S
C684 C681 1.363 . S
C684 N682 1.356 . S
C685 C679 1.363 . S
C685 C680 1.379 . S
C685 N683 1.356 . S
N686 C678 1.356 . S
N686 H692 0.984 . S
N686 H693 0.984 . S
N687 C680 1.356 . S
N687 H690 0.984 . S
N687 H691 0.985 . S
H688 N683 0.984 . S
H689 N683 0.985 . S
H690 N687 0.984 . S
H691 N687 0.985 . S
H692 N686 0.984 . S
H693 N686 0.984 . S
H694 N682 0.984 . S
H695 N682 0.960 1_556 S
C696 C697 1.363 . S
C696 C702 1.379 . S
C696 N704 1.356 . S
C697 C696 1.363 . S
C697 C703 1.363 . S
C698 C699 1.363 . S
C698 C703 1.379 . S
C698 N705 1.356 . S
C699 C698 1.363 . S
C699 C702 1.363 . S
N700 C702 1.356 . S
N700 H712 0.984 . S
N700 H713 0.985 . S
N701 C703 1.356 . S
N701 H706 0.984 . S
N701 H707 0.985 . S
C702 C696 1.379 . S
C702 C699 1.363 . S
C702 N700 1.356 . S
C703 C697 1.363 . S
C703 C698 1.379 . S
C703 N701 1.356 . S
N704 C696 1.356 . S
N704 H710 0.984 . S
N704 H711 0.984 . S
N705 C698 1.356 . S
N705 H708 0.984 . S
N705 H709 0.985 . S
H706 N701 0.984 . S
H707 N701 0.985 . S
H708 N705 0.984 . S
H709 N705 0.985 . S
H710 N704 0.984 . S
H711 N704 0.984 . S
H712 N700 0.984 . S
H713 N700 0.985 . S
C714 C715 1.363 . S
C714 C720 1.379 . S
C714 N722 1.356 . S
C715 C714 1.363 . S
C715 C721 1.363 . S
C716 C717 1.363 . S
C716 C721 1.379 . S
C716 N723 1.356 . S
C717 C716 1.363 . S
C717 C720 1.363 . S
N718 C720 1.356 . S
N718 H730 0.984 . S
N718 H731 0.985 . S
N719 C721 1.356 . S
N719 H724 0.984 . S
N719 H725 0.985 . S
C720 C714 1.379 . S
C720 C717 1.363 . S
C720 N718 1.356 . S
C721 C715 1.363 . S
C721 C716 1.379 . S
C721 N719 1.356 . S
N722 C714 1.356 . S
N722 H728 0.984 . S
N722 H729 0.984 1_655 S
N723 C716 1.356 . S
N723 H726 0.984 . S
N723 H727 0.985 . S
H724 N719 0.984 . S
H725 N719 0.985 . S
H726 N723 0.984 . S
H727 N723 0.985 . S
H728 N722 0.984 . S
H729 N722 0.984 1_455 S
H730 N718 0.984 . S
H731 N718 0.985 . S
C732 C733 1.363 . S
C732 C738 1.379 . S
C732 N740 1.356 . S
C733 C732 1.363 . S
C733 C739 1.363 . S
C734 C735 1.363 . S
C734 C739 1.379 . S
C734 N741 1.356 . S
C735 C734 1.363 . S
C735 C738 1.363 . S
N736 C738 1.356 . S
N736 H748 0.984 . S
N736 H749 0.985 . S
N737 C739 1.356 . S
N737 H742 0.984 . S
N737 H743 0.985 . S
C738 C732 1.379 . S
C738 C735 1.363 . S
C738 N736 1.356 . S
C739 C733 1.363 . S
C739 C734 1.379 . S
C739 N737 1.356 . S
N740 C732 1.356 . S
N740 H746 0.984 . S
N740 H747 0.984 . S
N741 C734 1.356 . S
N741 H744 0.984 . S
N741 H745 0.985 . S
H742 N737 0.984 . S
H743 N737 0.985 . S
H744 N741 0.984 . S
H745 N741 0.985 . S
H746 N740 0.984 . S
H747 N740 0.984 . S
H748 N736 0.984 . S
H749 N736 0.985 . S
C750 C751 1.363 . S
C750 C756 1.379 . S
C750 N758 1.356 . S
C751 C750 1.363 . S
C751 C757 1.363 . S
C752 C753 1.364 . S
C752 C757 1.379 . S
C752 N759 1.356 1_554 S
C753 C752 1.364 . S
C753 C756 1.370 . S
N754 C756 1.356 . S
N754 H766 0.984 . S
N754 H767 0.985 1_554 S
N755 C757 1.356 . S
N755 H760 0.984 . S
N755 H761 0.985 . S
C756 C750 1.379 . S
C756 C753 1.370 . S
C756 N754 1.356 . S
C757 C751 1.363 . S
C757 C752 1.379 . S
C757 N755 1.356 . S
N758 C750 1.356 . S
N758 H764 0.984 . S
N758 H765 0.984 . S
N759 C752 1.356 1_556 S
N759 H762 0.984 . S
N759 H763 0.985 . S
H760 N755 0.984 . S
H761 N755 0.985 . S
H762 N759 0.984 . S
H763 N759 0.985 . S
H764 N758 0.984 . S
H765 N758 0.984 . S
H766 N754 0.984 . S
H767 N754 0.985 1_556 S
C768 C769 1.363 . S
C768 C774 1.379 . S
C768 N776 1.356 . S
C769 C768 1.363 . S
C769 C775 1.363 . S
C770 C771 1.363 . S
C770 C775 1.379 . S
C770 N777 1.356 . S
C771 C770 1.363 . S
C771 C774 1.363 . S
N772 C774 1.356 . S
N772 H784 0.984 . S
N772 H785 0.985 . S
N773 C775 1.356 . S
N773 H778 0.984 . S
N773 H779 0.985 . S
C774 C768 1.379 . S
C774 C771 1.363 . S
C774 N772 1.356 . S
C775 C769 1.363 . S
C775 C770 1.379 . S
C775 N773 1.356 . S
N776 C768 1.356 . S
N776 H782 0.984 . S
N776 H783 0.984 . S
N777 C770 1.356 . S
N777 H780 0.984 . S
N777 H781 0.985 . S
H778 N773 0.984 . S
H779 N773 0.985 . S
H780 N777 0.984 . S
H781 N777 0.985 . S
H782 N776 0.984 . S
H783 N776 0.984 . S
H784 N772 0.984 . S
H785 N772 0.985 . S
C786 C787 1.363 . S
C786 C792 1.379 . S
C786 N794 1.356 1_455 S
C787 C786 1.363 . S
C787 C793 1.363 . S
C788 C789 1.363 . S
C788 C793 1.379 . S
C788 N795 1.356 . S
C789 C788 1.363 . S
C789 C792 1.363 . S
N790 C792 1.356 . S
N790 H802 0.984 1_455 S
N790 H803 0.985 . S
N791 C793 1.356 . S
N791 H796 0.984 . S
N791 H797 0.985 . S
C792 C786 1.379 . S
C792 C789 1.363 . S
C792 N790 1.356 . S
C793 C787 1.363 . S
C793 C788 1.379 . S
C793 N791 1.356 . S
N794 C786 1.356 1_655 S
N794 H800 0.984 . S
N794 H801 0.986 . S
N795 C788 1.356 . S
N795 H798 0.984 . S
N795 H799 0.985 . S
H796 N791 0.984 . S
H797 N791 0.985 . S
H798 N795 0.984 . S
H799 N795 0.985 . S
H800 N794 0.984 . S
H801 N794 0.986 . S
H802 N790 0.984 1_655 S
H803 N790 0.985 . S
C804 C805 1.363 . S
C804 C810 1.379 . S
C804 N812 1.356 . S
C805 C804 1.363 . S
C805 C811 1.363 . S
C806 C807 1.363 . S
C806 C811 1.379 . S
C806 N813 1.356 . S
C807 C806 1.363 . S
C807 C810 1.363 . S
N808 C810 1.356 . S
N808 H820 0.984 . S
N808 H821 0.985 . S
N809 C811 1.356 . S
N809 H814 0.984 . S
N809 H815 0.985 . S
C810 C804 1.379 . S
C810 C807 1.363 . S
C810 N808 1.356 . S
C811 C805 1.363 . S
C811 C806 1.379 . S
C811 N809 1.356 . S
N812 C804 1.356 . S
N812 H818 0.984 . S
N812 H819 0.984 . S
N813 C806 1.356 . S
N813 H816 0.984 . S
N813 H817 0.985 . S
H814 N809 0.984 . S
H815 N809 0.985 . S
H816 N813 0.984 . S
H817 N813 0.985 . S
H818 N812 0.984 . S
H819 N812 0.984 . S
H820 N808 0.984 . S
H821 N808 0.985 . S
C822 C823 1.363 . S
C822 C828 1.379 . S
C822 N830 1.356 . S
C823 C822 1.363 . S
C823 C829 1.363 . S
C824 C825 1.363 . S
C824 C829 1.379 . S
C824 N831 1.356 . S
C825 C824 1.363 . S
C825 C828 1.363 . S
N826 C828 1.356 . S
N826 H838 0.984 . S
N826 H839 0.985 . S
N827 C829 1.356 . S
N827 H832 0.984 . S
N827 H833 0.985 . S
C828 C822 1.379 . S
C828 C825 1.363 . S
C828 N826 1.356 . S
C829 C823 1.363 . S
C829 C824 1.379 . S
C829 N827 1.356 . S
N830 C822 1.356 . S
N830 H836 0.984 . S
N830 H837 0.984 . S
N831 C824 1.356 . S
N831 H834 0.984 . S
N831 H835 0.985 . S
H832 N827 0.984 . S
H833 N827 0.985 . S
H834 N831 0.984 . S
H835 N831 0.985 . S
H836 N830 0.984 . S
H837 N830 0.984 . S
H838 N826 0.984 . S
H839 N826 0.985 . S
C840 C841 1.363 . S
C840 C846 1.379 . S
C840 N848 1.356 . S
C841 C840 1.363 . S
C841 C847 1.363 . S
C842 C843 1.363 . S
C842 C847 1.379 . S
C842 N849 1.356 . S
C843 C842 1.363 . S
C843 C846 1.363 . S
N844 C846 1.356 . S
N844 H856 0.984 . S
N844 H857 0.985 . S
N845 C847 1.356 . S
N845 H850 0.984 . S
N845 H851 0.985 . S
C846 C840 1.379 . S
C846 C843 1.363 . S
C846 N844 1.356 . S
C847 C841 1.363 . S
C847 C842 1.379 . S
C847 N845 1.356 . S
N848 C840 1.356 . S
N848 H854 0.984 . S
N848 H855 0.984 . S
N849 C842 1.356 . S
N849 H852 0.984 . S
N849 H853 0.985 . S
H850 N845 0.984 . S
H851 N845 0.985 . S
H852 N849 0.984 . S
H853 N849 0.985 . S
H854 N848 0.984 . S
H855 N848 0.984 . S
H856 N844 0.984 . S
H857 N844 0.985 . S
C858 C859 1.363 . S
C858 C864 1.379 . S
C858 N866 1.356 . S
C859 C858 1.363 . S
C859 C865 1.363 . S
C860 C861 1.363 . S
C860 C865 1.379 . S
C860 N867 1.356 . S
C861 C860 1.363 . S
C861 C864 1.363 . S
N862 C864 1.356 . S
N862 H874 0.984 . S
N862 H875 0.985 . S
N863 C865 1.356 . S
N863 H868 0.984 . S
N863 H869 0.985 . S
C864 C858 1.379 . S
C864 C861 1.363 . S
C864 N862 1.356 . S
C865 C859 1.363 . S
C865 C860 1.379 . S
C865 N863 1.356 . S
N866 C858 1.356 . S
N866 H872 0.984 . S
N866 H873 0.984 . S
N867 C860 1.356 . S
N867 H870 0.984 . S
N867 H871 0.985 . S
H868 N863 0.984 . S
H869 N863 0.985 . S
H870 N867 0.984 . S
H871 N867 0.985 . S
H872 N866 0.984 . S
H873 N866 0.984 . S
H874 N862 0.984 . S
H875 N862 0.985 . S
C876 C877 1.363 . S
C876 C882 1.379 . S
C876 N884 1.356 . S
C877 C876 1.363 . S
C877 C883 1.363 . S
C878 C879 1.363 . S
C878 C883 1.379 . S
C878 N885 1.356 . S
C879 C878 1.363 . S
C879 C882 1.363 . S
N880 C882 1.356 . S
N880 H892 0.984 . S
N880 H893 0.985 . S
N881 C883 1.356 . S
N881 H886 0.984 . S
N881 H887 0.985 . S
C882 C876 1.379 . S
C882 C879 1.363 . S
C882 N880 1.356 . S
C883 C877 1.363 . S
C883 C878 1.379 . S
C883 N881 1.356 . S
N884 C876 1.356 . S
N884 H890 0.984 . S
N884 H891 0.984 . S
N885 C878 1.356 . S
N885 H888 0.984 . S
N885 H889 0.985 . S
H886 N881 0.984 . S
H887 N881 0.985 . S
H888 N885 0.984 . S
H889 N885 0.985 . S
H890 N884 0.984 . S
H891 N884 0.984 . S
H892 N880 0.984 . S
H893 N880 0.985 . S
C894 C895 1.363 . S
C894 C900 1.379 . S
C894 N902 1.356 1_565 S
C895 C894 1.363 . S
C895 C901 1.363 1_556 S
C896 C897 1.363 1_554 S
C896 C901 1.379 . S
C896 N903 1.356 . S
C897 C896 1.363 1_556 S
C897 C900 1.363 . S
N898 C900 1.356 . S
N898 H910 0.984 . S
N898 H911 0.985 . S
N899 C901 1.356 . S
N899 H904 0.984 . S
N899 H905 0.985 . S
C900 C894 1.379 . S
C900 C897 1.363 . S
C900 N898 1.356 . S
C901 C895 1.363 1_554 S
C901 C896 1.379 . S
C901 N899 1.356 . S
N902 C894 1.356 1_545 S
N902 H908 0.984 . S
N902 H909 0.984 . S
N903 C896 1.356 . S
N903 H906 0.984 . S
N903 H907 0.985 . S
H904 N899 0.984 . S
H905 N899 0.985 . S
H906 N903 0.984 . S
H907 N903 0.985 . S
H908 N902 0.984 . S
H909 N902 0.984 . S
H910 N898 0.984 . S
H911 N898 0.985 . S
C912 C913 1.363 . S
C912 C918 1.379 . S
C912 N920 1.356 . S
C913 C912 1.363 . S
C913 C919 1.363 . S
C914 C915 1.363 . S
C914 C919 1.379 . S
C914 N921 1.356 . S
C915 C914 1.363 . S
C915 C918 1.363 . S
N916 C918 1.356 . S
N916 H928 0.984 . S
N916 H929 0.985 . S
N917 C919 1.356 . S
N917 H922 0.984 . S
N917 H923 0.985 . S
C918 C912 1.379 . S
C918 C915 1.363 . S
C918 N916 1.356 . S
C919 C913 1.363 . S
C919 C914 1.379 . S
C919 N917 1.356 . S
N920 C912 1.356 . S
N920 H926 0.984 . S
N920 H927 0.984 . S
N921 C914 1.356 . S
N921 H924 0.984 . S
N921 H925 0.985 . S
H922 N917 0.984 . S
H923 N917 0.985 . S
H924 N921 0.984 . S
H925 N921 0.985 . S
H926 N920 0.984 . S
H927 N920 0.984 . S
H928 N916 0.984 . S
H929 N916 0.985 . S
C930 C931 1.363 . S
C930 C936 1.379 . S
C930 N938 1.356 . S
C931 C930 1.363 . S
C931 C937 1.363 . S
C932 C933 1.363 . S
C932 C937 1.379 . S
C932 N939 1.356 . S
C933 C932 1.363 . S
C933 C936 1.363 . S
N934 C936 1.356 . S
N934 H946 0.984 . S
N934 H947 0.985 . S
N935 C937 1.356 . S
N935 H940 0.984 . S
N935 H941 0.985 . S
C936 C930 1.379 . S
C936 C933 1.363 . S
C936 N934 1.356 . S
C937 C931 1.363 . S
C937 C932 1.379 . S
C937 N935 1.356 . S
N938 C930 1.356 . S
N938 H944 0.984 . S
N938 H945 0.984 . S
N939 C932 1.356 . S
N939 H942 0.984 . S
N939 H943 0.985 . S
H940 N935 0.984 . S
H941 N935 0.985 . S
H942 N939 0.984 . S
H943 N939 0.985 . S
H944 N938 0.984 . S
H945 N938 0.984 . S
H946 N934 0.984 . S
H947 N934 0.985 . S
C948 C949 1.363 . S
C948 C954 1.379 . S
C948 N956 1.356 . S
C949 C948 1.363 . S
C949 C955 1.363 . S
C950 C951 1.363 . S
C950 C955 1.379 . S
C950 N957 1.356 . S
C951 C950 1.363 . S
C951 C954 1.363 . S
N952 C954 1.356 . S
N952 H964 0.984 . S
N952 H965 0.985 . S
N953 C955 1.356 . S
N953 H958 0.984 . S
N953 H959 0.985 . S
C954 C948 1.379 . S
C954 C951 1.363 . S
C954 N952 1.356 . S
C955 C949 1.363 . S
C955 C950 1.379 . S
C955 N953 1.356 . S
N956 C948 1.356 . S
N956 H962 0.984 . S
N956 H963 0.984 . S
N957 C950 1.356 . S
N957 H960 0.984 . S
N957 H961 0.985 . S
H958 N953 0.984 . S
H959 N953 0.985 . S
H960 N957 0.984 . S
H961 N957 0.985 . S
H962 N956 0.984 . S
H963 N956 0.984 . S
H964 N952 0.984 . S
H965 N952 0.985 . S
C966 C967 1.363 . S
C966 C972 1.379 . S
C966 N974 1.356 . S
C967 C966 1.363 . S
C967 C973 1.363 . S
C968 C969 1.363 . S
C968 C973 1.379 . S
C968 N975 1.356 . S
C969 C968 1.363 . S
C969 C972 1.363 . S
N970 C972 1.356 . S
N970 H982 0.984 . S
N970 H983 0.985 . S
N971 C973 1.356 . S
N971 H976 0.984 . S
N971 H977 0.985 . S
C972 C966 1.379 . S
C972 C969 1.363 . S
C972 N970 1.356 . S
C973 C967 1.363 . S
C973 C968 1.379 . S
C973 N971 1.356 . S
N974 C966 1.356 . S
N974 H980 0.984 . S
N974 H981 0.984 . S
N975 C968 1.356 . S
N975 H978 0.984 . S
N975 H979 0.985 . S
H976 N971 0.984 . S
H977 N971 0.985 . S
H978 N975 0.984 . S
H979 N975 0.985 . S
H980 N974 0.984 . S
H981 N974 0.984 . S
H982 N970 0.984 . S
H983 N970 0.985 . S
C984 C985 1.363 . S
C984 C990 1.379 . S
C984 N992 1.356 . S
C985 C984 1.363 . S
C985 C991 1.363 . S
C986 C987 1.363 . S
C986 C991 1.379 . S
C986 N993 1.356 . S
C987 C986 1.363 . S
C987 C990 1.363 . S
N988 C990 1.356 . S
N988 H1000 0.984 . S
N988 H1001 0.985 . S
N989 C991 1.356 . S
N989 H994 0.984 . S
N989 H995 0.985 . S
C990 C984 1.379 . S
C990 C987 1.363 . S
C990 N988 1.356 . S
C991 C985 1.363 . S
C991 C986 1.379 . S
C991 N989 1.356 . S
N992 C984 1.356 . S
N992 H998 0.984 . S
N992 H999 0.984 . S
N993 C986 1.356 . S
N993 H996 0.984 . S
N993 H997 0.985 . S
H994 N989 0.984 . S
H995 N989 0.985 . S
H996 N993 0.984 . S
H997 N993 0.985 . S
H998 N992 0.984 . S
H999 N992 0.984 . S
H1000 N988 0.984 . S
H1001 N988 0.985 . S
C1002 C1003 1.363 . S
C1002 C1008 1.379 . S
C1002 N1010 1.356 . S
C1003 C1002 1.363 . S
C1003 C1009 1.363 . S
C1004 C1005 1.363 . S
C1004 C1009 1.379 . S
C1004 N1011 1.356 . S
C1005 C1004 1.363 . S
C1005 C1008 1.363 . S
N1006 C1008 1.356 . S
N1006 H1018 0.984 . S
N1006 H1019 0.985 . S
N1007 C1009 1.356 . S
N1007 H1012 0.984 . S
N1007 H1013 0.985 . S
C1008 C1002 1.379 . S
C1008 C1005 1.363 . S
C1008 N1006 1.356 . S
C1009 C1003 1.363 . S
C1009 C1004 1.379 . S
C1009 N1007 1.356 . S
N1010 C1002 1.356 . S
N1010 H1016 0.984 . S
N1010 H1017 0.984 . S
N1011 C1004 1.356 . S
N1011 H1014 0.984 . S
N1011 H1015 0.985 . S
H1012 N1007 0.984 . S
H1013 N1007 0.985 . S
H1014 N1011 0.984 . S
H1015 N1011 0.985 . S
H1016 N1010 0.984 . S
H1017 N1010 0.984 . S
H1018 N1006 0.984 . S
H1019 N1006 0.985 . S
C1020 C1021 1.363 . S
C1020 C1026 1.379 . S
C1020 N1028 1.356 . S
C1021 C1020 1.363 . S
C1021 C1027 1.363 . S
C1022 C1023 1.373 . S
C1022 C1027 1.356 1_655 S
C1022 N1029 1.374 . S
C1023 C1022 1.373 . S
C1023 C1026 1.363 1_655 S
N1024 C1026 1.356 . S
N1024 H1036 0.984 . S
N1024 H1037 0.985 1_455 S
N1025 C1027 1.356 . S
N1025 H1030 0.984 . S
N1025 H1031 0.985 . S
C1026 C1020 1.379 . S
C1026 C1023 1.363 1_455 S
C1026 N1024 1.356 . S
C1027 C1021 1.363 . S
C1027 C1022 1.356 1_455 S
C1027 N1025 1.356 . S
N1028 C1020 1.356 . S
N1028 H1034 0.984 . S
N1028 H1035 0.984 . S
N1029 C1022 1.374 . S
N1029 H1032 0.984 . S
N1029 H1033 0.985 . S
H1030 N1025 0.984 . S
H1031 N1025 0.985 . S
H1032 N1029 0.984 . S
H1033 N1029 0.985 . S
H1034 N1028 0.984 . S
H1035 N1028 0.984 . S
H1036 N1024 0.984 . S
H1037 N1024 0.985 1_655 S
C1038 C1039 1.363 . S
C1038 C1044 1.379 . S
C1038 N1046 1.356 . S
C1039 C1038 1.363 . S
C1039 C1045 1.363 . S
C1040 C1041 1.363 . S
C1040 C1045 1.379 . S
C1040 N1047 1.356 . S
C1041 C1040 1.363 . S
C1041 C1044 1.363 . S
N1042 C1044 1.356 . S
N1042 H1054 0.984 . S
N1042 H1055 0.985 . S
N1043 C1045 1.356 . S
N1043 H1048 0.984 . S
N1043 H1049 0.985 . S
C1044 C1038 1.379 . S
C1044 C1041 1.363 . S
C1044 N1042 1.356 . S
C1045 C1039 1.363 . S
C1045 C1040 1.379 . S
C1045 N1043 1.356 . S
N1046 C1038 1.356 . S
N1046 H1052 0.984 . S
N1046 H1053 0.984 . S
N1047 C1040 1.356 . S
N1047 H1050 0.984 . S
N1047 H1051 0.985 . S
H1048 N1043 0.984 . S
H1049 N1043 0.985 . S
H1050 N1047 0.984 . S
H1051 N1047 0.985 . S
H1052 N1046 0.984 . S
H1053 N1046 0.984 . S
H1054 N1042 0.984 . S
H1055 N1042 0.985 . S
C1056 C1057 1.363 . S
C1056 C1062 1.379 . S
C1056 N1064 1.356 . S
C1057 C1056 1.363 . S
C1057 C1063 1.363 . S
C1058 C1059 1.363 . S
C1058 C1063 1.379 . S
C1058 N1065 1.356 . S
C1059 C1058 1.363 . S
C1059 C1062 1.363 . S
N1060 C1062 1.356 . S
N1060 H1072 0.984 . S
N1060 H1073 0.985 . S
N1061 C1063 1.356 . S
N1061 H1066 0.984 . S
N1061 H1067 0.985 . S
C1062 C1056 1.379 . S
C1062 C1059 1.363 . S
C1062 N1060 1.356 . S
C1063 C1057 1.363 . S
C1063 C1058 1.379 . S
C1063 N1061 1.356 . S
N1064 C1056 1.356 . S
N1064 H1070 0.984 . S
N1064 H1071 0.984 . S
N1065 C1058 1.356 . S
N1065 H1068 0.984 . S
N1065 H1069 0.985 . S
H1066 N1061 0.984 . S
H1067 N1061 0.985 . S
H1068 N1065 0.984 . S
H1069 N1065 0.985 . S
H1070 N1064 0.984 . S
H1071 N1064 0.984 . S
H1072 N1060 0.984 . S
H1073 N1060 0.985 . S
C1074 C1075 1.363 . S
C1074 C1080 1.379 . S
C1074 N1082 1.356 . S
C1075 C1074 1.363 . S
C1075 C1081 1.363 . S
C1076 C1077 1.363 . S
C1076 C1081 1.379 . S
C1076 N1083 1.356 . S
C1077 C1076 1.363 . S
C1077 C1080 1.363 . S
N1078 C1080 1.356 . S
N1078 H1090 0.984 . S
N1078 H1091 0.985 . S
N1079 C1081 1.356 . S
N1079 H1084 0.984 . S
N1079 H1085 0.985 . S
C1080 C1074 1.379 . S
C1080 C1077 1.363 . S
C1080 N1078 1.356 . S
C1081 C1075 1.363 . S
C1081 C1076 1.379 . S
C1081 N1079 1.356 . S
N1082 C1074 1.356 . S
N1082 H1088 0.984 . S
N1082 H1089 0.984 . S
N1083 C1076 1.356 . S
N1083 H1086 0.984 . S
N1083 H1087 0.985 . S
H1084 N1079 0.984 . S
H1085 N1079 0.985 . S
H1086 N1083 0.984 . S
H1087 N1083 0.985 . S
H1088 N1082 0.984 . S
H1089 N1082 0.984 . S
H1090 N1078 0.984 . S
H1091 N1078 0.985 . S
C1092 C1093 1.363 . S
C1092 C1098 1.379 . S
C1092 N1100 1.356 . S
C1093 C1092 1.363 . S
C1093 C1099 1.363 . S
C1094 C1095 1.363 . S
C1094 C1099 1.379 . S
C1094 N1101 1.356 . S
C1095 C1094 1.363 . S
C1095 C1098 1.363 . S
N1096 C1098 1.356 . S
N1096 H1108 0.984 . S
N1096 H1109 0.985 . S
N1097 C1099 1.356 . S
N1097 H1102 0.984 . S
N1097 H1103 0.985 . S
C1098 C1092 1.379 . S
C1098 C1095 1.363 . S
C1098 N1096 1.356 . S
C1099 C1093 1.363 . S
C1099 C1094 1.379 . S
C1099 N1097 1.356 . S
N1100 C1092 1.356 . S
N1100 H1106 0.984 . S
N1100 H1107 0.984 . S
N1101 C1094 1.356 . S
N1101 H1104 0.984 . S
N1101 H1105 0.985 . S
H1102 N1097 0.984 . S
H1103 N1097 0.985 . S
H1104 N1101 0.984 . S
H1105 N1101 0.985 . S
H1106 N1100 0.984 . S
H1107 N1100 0.984 . S
H1108 N1096 0.984 . S
H1109 N1096 0.985 . S
C1110 C1111 1.363 . S
C1110 C1116 1.379 . S
C1110 N1118 1.356 1_545 S
C1111 C1110 1.363 . S
C1111 C1117 1.363 . S
C1112 C1113 1.363 . S
C1112 C1117 1.379 . S
C1112 N1119 1.356 . S
C1113 C1112 1.363 . S
C1113 C1116 1.363 . S
N1114 C1116 1.356 . S
N1114 H1126 0.984 . S
N1114 H1127 0.985 . S
N1115 C1117 1.356 . S
N1115 H1120 0.984 . S
N1115 H1121 0.985 . S
C1116 C1110 1.379 . S
C1116 C1113 1.363 . S
C1116 N1114 1.356 . S
C1117 C1111 1.363 . S
C1117 C1112 1.379 . S
C1117 N1115 1.356 . S
N1118 C1110 1.356 1_565 S
N1118 H1124 0.984 . S
N1118 H1125 0.984 . S
N1119 C1112 1.356 . S
N1119 H1122 0.984 . S
N1119 H1123 0.985 . S
H1120 N1115 0.984 . S
H1121 N1115 0.985 . S
H1122 N1119 0.984 . S
H1123 N1119 0.985 . S
H1124 N1118 0.984 . S
H1125 N1118 0.984 . S
H1126 N1114 0.984 . S
H1127 N1114 0.985 . S
C481 C15 0.566 . S
C483 C455 0.603 . S
C499 C378 3.055 1_565 S
C501 C58 2.885 . S
C517 C95 2.623 1_554 S
C519 C338 2.779 . S
C535 C138 3.159 . S
C537 C418 3.314 1_545 S
C553 C178 1.612 . S
C555 C415 1.781 . S
C571 C215 1.568 . S
C573 C458 1.479 . S
C589 C375 2.002 . S
C591 C258 1.708 . S
C607 C298 2.212 . S
C609 C335 1.908 . S
C625 C135 1.808 . S
C627 C175 1.544 . S
C643 C18 3.603 . S
C645 C218 3.747 . S
C661 C55 0.820 . S
C663 C255 0.772 . S
C679 C295 2.133 . S
C681 C98 2.117 1_554 S
C697 C19 3.208 . S
C699 C329 3.285 . S
C715 C50 3.104 1_655 S
C717 C409 3.040 . S
C733 C446 1.202 . S
C735 C99 1.145 . S
C751 C130 2.139 . S
C753 C369 2.078 1_554 S
C769 C170 1.161 . S
C771 C366 1.113 . S
C787 C326 1.456 . S
C789 C219 1.346 . S
C805 C406 1.726 . S
C807 C250 1.755 . S
C823 C449 2.117 . S
C825 C290 2.047 . S
C841 C9 2.382 . S
C843 C139 2.311 . S
C859 C10 1.718 . S
C861 C46 1.653 . S
C877 C59 3.168 . S
C879 C89 3.145 . S
C895 C126 1.961 1_565 S
C897 C90 2.071 . S
C913 C210 1.465 . S
C915 C166 1.316 . S
C931 C209 2.315 . S
C933 C259 2.324 . S
C949 C246 0.745 . S
C951 C299 0.746 . S
C967 C179 1.302 . S
C969 C286 1.325 . S
C985 C339 1.502 . S
C987 C129 1.751 . S
C1003 C206 1.736 . S
C1005 C370 1.775 . S
C1021 C330 1.817 . S
C1023 C249 1.830 . S
C1039 C410 3.331 . S
C1041 C289 3.269 . S
C1057 C169 0.837 . S
C1059 C459 0.842 . S
C1075 C450 1.571 . S
C1077 C49 1.592 . S
C1093 C86 1.277 . S
C1095 C379 1.256 . S
C1111 C419 1.968 1_545 S
C1113 C6 1.994 . S
