# Generated by pormake.
# Topology snk, (6)-cn, num edge types: 1
# Building blocks:
#     Node 0, Type 0, BuildingBlock: KUMJIN_clean_sbu_1, # of connection points: 6
#     Node 1, Type 0, BuildingBlock: KUMJIN_clean_sbu_1, # of connection points: 6
#     Node 2, Type 0, BuildingBlock: KUMJIN_clean_sbu_1, # of connection points: 6
#     Node 3, Type 0, BuildingBlock: KUMJIN_clean_sbu_1, # of connection points: 6
#     Node 4, Type 0, BuildingBlock: KUMJIN_clean_sbu_1, # of connection points: 6
#     Node 5, Type 0, BuildingBlock: KUMJIN_clean_sbu_1, # of connection points: 6
#     Node 6, Type 0, BuildingBlock: KUMJIN_clean_sbu_1, # of connection points: 6
#     Node 7, Type 0, BuildingBlock: KUMJIN_clean_sbu_1, # of connection points: 6
#     Edge 8, Type (0, 0), BuildingBlock: UVAHIK_clean_linker_0, # of connection points: 2
#     Edge 9, Type (0, 0), BuildingBlock: UVAHIK_clean_linker_0, # of connection points: 2
#     Edge 10, Type (0, 0), BuildingBlock: UVAHIK_clean_linker_0, # of connection points: 2
#     Edge 11, Type (0, 0), BuildingBlock: UVAHIK_clean_linker_0, # of connection points: 2
#     Edge 12, Type (0, 0), BuildingBlock: UVAHIK_clean_linker_0, # of connection points: 2
#     Edge 13, Type (0, 0), BuildingBlock: UVAHIK_clean_linker_0, # of connection points: 2
#     Edge 14, Type (0, 0), BuildingBlock: UVAHIK_clean_linker_0, # of connection points: 2
#     Edge 15, Type (0, 0), BuildingBlock: UVAHIK_clean_linker_0, # of connection points: 2
#     Edge 16, Type (0, 0), BuildingBlock: UVAHIK_clean_linker_0, # of connection points: 2
#     Edge 17, Type (0, 0), BuildingBlock: UVAHIK_clean_linker_0, # of connection points: 2
#     Edge 18, Type (0, 0), BuildingBlock: UVAHIK_clean_linker_0, # of connection points: 2
#     Edge 19, Type (0, 0), BuildingBlock: UVAHIK_clean_linker_0, # of connection points: 2
#     Edge 20, Type (0, 0), BuildingBlock: UVAHIK_clean_linker_0, # of connection points: 2
#     Edge 21, Type (0, 0), BuildingBlock: UVAHIK_clean_linker_0, # of connection points: 2
#     Edge 22, Type (0, 0), BuildingBlock: UVAHIK_clean_linker_0, # of connection points: 2
#     Edge 23, Type (0, 0), BuildingBlock: UVAHIK_clean_linker_0, # of connection points: 2
#     Edge 24, Type (0, 0), BuildingBlock: UVAHIK_clean_linker_0, # of connection points: 2
#     Edge 25, Type (0, 0), BuildingBlock: UVAHIK_clean_linker_0, # of connection points: 2
#     Edge 26, Type (0, 0), BuildingBlock: UVAHIK_clean_linker_0, # of connection points: 2
#     Edge 27, Type (0, 0), BuildingBlock: UVAHIK_clean_linker_0, # of connection points: 2
#     Edge 28, Type (0, 0), BuildingBlock: UVAHIK_clean_linker_0, # of connection points: 2
#     Edge 29, Type (0, 0), BuildingBlock: UVAHIK_clean_linker_0, # of connection points: 2
#     Edge 30, Type (0, 0), BuildingBlock: UVAHIK_clean_linker_0, # of connection points: 2
#     Edge 31, Type (0, 0), BuildingBlock: UVAHIK_clean_linker_0, # of connection points: 2
# Relax obj value: 0.010
# Max RMSD: 0.073
# Mean RMSD: 0.072
data_MOF--net-snk--node1-KUMJIN_clean_sbu_1--edge1-UVAHIK_clean_linker_0
_symmetry_space_group_name_H-M    P1
_symmetry_Int_Tables_number       1
_symmetry_cell_setting            triclinic
loop_
_symmetry_equiv_pos_as_xyz
'x, y, z'
_cell_length_a     50.848676
_cell_length_b     50.782753
_cell_length_c     29.522513
_cell_angle_alpha  90.311372
_cell_angle_beta   89.89766
_cell_angle_gamma 89.926261
loop_
_atom_site_label
_atom_site_type_symbol
_atom_site_fract_x
_atom_site_fract_y
_atom_site_fract_z
_atom_type_partial_charge
Eu0 Eu 0.00033 0.01609 0.57252 0.0
C1 C 0.95444 0.93399 0.44298 0.0
N2 N 0.98034 0.93779 0.45195 0.0
C3 C 0.98626 0.8916 0.46444 0.0
C4 C 0.94311 0.90877 0.44647 0.0
C5 C 0.99656 0.91704 0.4609 0.0
C6 C 0.95934 0.8875 0.45782 0.0
C7 C 0.91261 0.95202 0.41909 0.0
C8 C 0.93944 0.9554 0.42969 0.0
C9 C 0.90092 0.92716 0.42434 0.0
C10 C 0.91614 0.90558 0.43798 0.0
Eu11 Eu 0.996 0.98136 0.44787 0.0
N12 N 0.95139 0.97915 0.4247 0.0
C13 C 0.89857 0.97354 0.40217 0.0
C14 C 0.93835 -0.00053 0.40456 0.0
C15 C 0.91164 0.99722 0.39406 0.0
H16 H 0.01733 0.92032 0.4663 0.0
H17 H 0.90124 0.01364 0.37917 0.0
H18 H 0.9545 0.06491 0.56941 0.0
H19 H 0.1043 0.02543 0.6138 0.0
H20 H 0.94851 0.01741 0.39598 0.0
H21 H 0.87793 0.97177 0.39363 0.0
H22 H 0.06154 0.00244 0.60501 0.0
H23 H -0.00097 0.87523 0.47251 0.0
H24 H 0.88026 0.92427 0.41685 0.0
H25 H 0.90697 0.88642 0.44101 0.0
H26 H 0.95313 0.11275 0.55638 0.0
H27 H 0.95138 0.86781 0.46083 0.0
H28 H 0.10754 0.07305 0.5971 0.0
N29 N 0.99629 0.06251 0.56614 0.0
C30 C 0.01917 0.07633 0.56687 0.0
C31 C 0.97187 0.10271 0.55855 0.0
C32 C 0.01932 0.10389 0.56111 0.0
C33 C 0.97275 0.07547 0.56506 0.0
C34 C 0.99529 0.11693 0.55562 0.0
N35 N 0.04142 0.03672 0.58309 0.0
C36 C 0.06295 0.02328 0.59811 0.0
C37 C 0.06623 0.07699 0.58063 0.0
C38 C 0.04235 0.06313 0.57651 0.0
C39 C 0.08881 0.06311 0.59353 0.0
C40 C 0.08707 0.03621 0.603 0.0
H41 H 0.99455 0.13807 0.55105 0.0
H42 H 0.04381 0.13875 0.55778 0.0
H43 H 0.08491 0.11516 0.57485 0.0
O44 O 0.00362 0.99348 0.63518 0.0
O45 O 0.03389 0.01865 0.52104 0.0
O46 O 0.01249 0.02258 0.45368 0.0
O47 O 0.98885 0.03312 0.6379 0.0
O48 O 0.01886 0.97555 0.56597 0.0
O49 O 0.03152 0.96962 0.49048 0.0
O50 O 0.99362 0.97835 0.3733 0.0
O51 O 0.98095 0.96073 0.51138 0.0
O52 O 0.96312 0.9941 0.55375 0.0
O53 O 0.03054 0.97011 0.40818 0.0
O54 O 0.98009 0.02297 0.4568 0.0
O55 O 0.96377 0.02423 0.52982 0.0
C56 C 0.03184 0.02912 0.48068 0.0
C57 C 0.97355 0.00365 0.69367 0.0
C58 C 0.9608 0.99394 0.77204 0.0
C59 C 0.93515 0.98847 0.75657 0.0
C60 C 0.94797 0.99785 0.67923 0.0
C61 C 0.92891 0.99028 0.71059 0.0
C62 C 0.97995 0.00156 0.73992 0.0
C63 C 0.03334 0.96426 0.53415 0.0
C64 C 0.99373 0.01188 0.66082 0.0
C65 C 0.04328 0.11762 0.56271 0.0
C66 C 0.06668 0.10421 0.57254 0.0
C67 C 0.96292 0.96958 0.53952 0.0
C68 C 0.03151 0.96619 0.32579 0.0
C69 C 0.03322 0.96806 0.24283 0.0
C70 C 0.05913 0.95847 0.24421 0.0
C71 C 0.0574 0.95644 0.32593 0.0
C72 C 0.01928 0.97162 0.28385 0.0
C73 C 0.07101 0.95254 0.28542 0.0
C74 C 0.96336 0.03196 0.48728 0.0
C75 C 0.01828 0.97182 0.36961 0.0
H76 H 0.91969 0.98312 0.78002 0.0
H77 H 0.94275 -0.00071 0.64378 0.0
H78 H 0.90914 0.98596 0.69926 0.0
H79 H -7e-05 0.00559 0.7506 0.0
H80 H 0.07018 0.95539 0.21319 0.0
H81 H 0.0673 0.95204 0.35746 0.0
H82 H -0.0006 0.97932 0.28311 0.0
H83 H 0.09096 0.94509 0.286 0.0
Eu84 Eu 0.2282 0.75089 0.8178 0.0
C85 C 0.33119 0.7355 0.69515 0.0
N86 N 0.31522 0.75694 0.69824 0.0
C87 C 0.35268 0.7855 0.69947 0.0
C88 C 0.35876 0.73832 0.69454 0.0
C89 C 0.32544 0.78174 0.69965 0.0
C90 C 0.36942 0.7637 0.69706 0.0
C91 C 0.33591 0.688 0.68906 0.0
C92 C 0.3199 0.7106 0.69246 0.0
C93 C 0.36339 0.69075 0.68859 0.0
C94 C 0.37478 0.71582 0.69137 0.0
Eu95 Eu 0.26963 0.74857 0.69927 0.0
N96 N 0.29322 0.70851 0.6942 0.0
C97 C 0.32382 0.6633 0.68647 0.0
C98 C 0.28131 0.68456 0.69043 0.0
C99 C 0.2964 0.6616 0.68691 0.0
H100 H 0.31257 0.79866 0.70031 0.0
H101 H 0.28688 0.6426 0.68439 0.0
H102 H 0.17039 0.7217 0.80065 0.0
H103 H 0.24878 0.85367 0.8645 0.0
H104 H 0.26022 0.68301 0.69008 0.0
H105 H 0.33544 0.64545 0.68386 0.0
H106 H 0.25807 0.80639 0.85848 0.0
H107 H 0.36073 0.8052 0.7009 0.0
H108 H 0.37602 0.67359 0.68613 0.0
H109 H 0.39601 0.71761 0.69094 0.0
H110 H 0.12349 0.73401 0.79266 0.0
H111 H 0.39052 0.76669 0.69678 0.0
H112 H 0.20451 0.87057 0.84586 0.0
N113 N 0.18324 0.76106 0.80974 0.0
C114 C 0.1764 0.78686 0.81385 0.0
C115 C 0.13818 0.74906 0.79845 0.0
C116 C 0.14995 0.79481 0.80933 0.0
C117 C 0.16467 0.74212 0.80283 0.0
C118 C 0.13079 0.77553 0.80144 0.0
N119 N 0.22119 0.79683 0.82849 0.0
C120 C 0.23945 0.81359 0.84641 0.0
C121 C 0.18926 0.83209 0.8281 0.0
C122 C 0.19597 0.80527 0.82265 0.0
C123 C 0.20886 0.84983 0.84126 0.0
C124 C 0.23391 0.84041 0.85151 0.0
H125 H 0.11027 0.78085 0.7978 0.0
H126 H 0.12331 0.82814 0.80888 0.0
H127 H 0.15767 0.86076 0.82568 0.0
O128 O 0.23908 0.75473 0.88929 0.0
O129 O 0.20835 0.76279 0.75171 0.0
O130 O 0.24257 0.78252 0.71575 0.0
O131 O 0.20654 0.72997 0.87062 0.0
O132 O 0.26964 0.76792 0.81426 0.0
O133 O 0.27111 0.78525 0.74268 0.0
O134 O 0.25253 0.73865 0.63323 0.0
O135 O 0.28822 0.72878 0.76055 0.0
O136 O 0.25434 0.71525 0.80726 0.0
O137 O 0.2827 0.76833 0.63767 0.0
O138 O 0.2327 0.72329 0.70299 0.0
O139 O 0.22155 0.71326 0.77786 0.0
C140 C 0.21728 0.77939 0.7215 0.0
C141 C 0.20428 0.75162 0.94191 0.0
C142 C 0.19981 0.76065 0.02314 0.0
C143 C 0.17583 0.77353 0.01447 0.0
C144 C 0.18029 0.76452 0.93426 0.0
C145 C 0.16621 0.77541 0.97036 0.0
C146 C 0.21395 0.74969 0.98642 0.0
C147 C 0.27967 0.78432 0.78453 0.0
C148 C 0.21963 0.7405 0.90387 0.0
C149 C 0.14348 0.82162 0.81275 0.0
C150 C 0.16308 0.84021 0.82207 0.0
C151 C 0.27896 0.71432 0.79384 0.0
C152 C 0.2813 0.74284 0.57054 0.0
C153 C 0.28253 0.73427 0.48884 0.0
C154 C 0.30678 0.72132 0.49446 0.0
C155 C 0.30553 0.72991 0.57498 0.0
C156 C 0.26985 0.74507 0.52732 0.0
C157 C 0.31813 0.71919 0.53722 0.0
C158 C 0.22017 0.70912 0.73366 0.0
C159 C 0.2681 0.75422 0.61072 0.0
H160 H 0.16426 0.78181 0.0419 0.0
H161 H 0.17233 0.76612 0.90051 0.0
H162 H 0.14768 0.78526 0.96415 0.0
H163 H 0.2326 0.73995 0.99231 0.0
H164 H 0.31728 0.71323 0.46561 0.0
H165 H 0.31488 0.7283 0.6075 0.0
H166 H 0.25109 0.755 0.52376 0.0
H167 H 0.33689 0.70935 0.54107 0.0
Eu168 Eu 0.5001 0.97799 0.06799 0.0
C169 C 0.52331 0.0782 0.9541 0.0
N170 N 0.49939 0.06642 0.95769 0.0
C171 C 0.47846 0.10837 0.96685 0.0
C172 C 0.52569 0.10579 0.95763 0.0
C173 C 0.47707 0.08094 0.9635 0.0
C174 C 0.50288 0.12086 0.96403 0.0
C175 C 0.57071 0.07423 0.94617 0.0
C176 C 0.54562 0.06249 0.94864 0.0
C177 C 0.57311 0.10172 0.94972 0.0
C178 C 0.55068 0.11744 0.9554 0.0
Eu179 Eu 0.49903 0.02026 0.95153 0.0
N180 N 0.54285 0.0358 0.94658 0.0
C181 C 0.5927 0.058 0.94006 0.0
C182 C 0.56405 0.02012 0.93776 0.0
C183 C 0.5893 0.03087 0.93524 0.0
H184 H 0.45816 0.07138 0.96497 0.0
H185 H 0.6061 0.01825 0.9289 0.0
H186 H 0.55093 0.93575 0.06688 0.0
H187 H 0.39469 0.95942 0.08388 0.0
H188 H 0.5617 -0.00054 0.93124 0.0
H189 H 0.6123 0.06627 0.93802 0.0
H190 H 0.43471 0.98664 0.07848 0.0
H191 H 0.46072 0.11987 0.97153 0.0
H192 H 0.59225 0.11102 0.94808 0.0
H193 H 0.55289 0.1386 0.95821 0.0
H194 H 0.55824 0.8876 0.0665 0.0
H195 H 0.5039 0.14211 0.96689 0.0
H196 H 0.39832 0.91083 0.08396 0.0
N197 N 0.50932 0.93252 0.06941 0.0
C198 C 0.48818 0.91628 0.07294 0.0
C199 C 0.53844 0.89541 0.06808 0.0
C200 C 0.49144 0.88871 0.07348 0.0
C201 C 0.53424 0.92262 0.06777 0.0
C202 C 0.51695 0.87836 0.07075 0.0
N203 N 0.46055 0.9539 0.07355 0.0
C204 C 0.43649 0.96553 0.07777 0.0
C205 C 0.44083 0.91091 0.07896 0.0
C206 C 0.46313 0.92725 0.07568 0.0
C207 C 0.41595 0.9227 0.08146 0.0
C208 C 0.41381 0.95013 0.08123 0.0
H209 H 0.52027 0.85728 0.07102 0.0
H210 H 0.47137 0.85114 0.07696 0.0
H211 H 0.42709 0.87057 0.08172 0.0
O212 O 0.48864 0.99454 0.13364 0.0
O213 O 0.47901 0.95973 1.00752 0.0
O214 O 0.46405 0.99324 0.96114 0.0
O215 O 0.51849 0.96436 0.13057 0.0
O216 O 0.47685 0.0162 0.06551 0.0
O217 O 0.46155 0.02388 0.99265 0.0
O218 O 0.50963 0.01034 0.88167 0.0
O219 O 0.51446 0.03853 0.01708 0.0
O220 O 0.53487 0.0042 0.05264 0.0
O221 O 0.47837 0.03812 0.8944 0.0
O222 O 0.51733 0.97946 0.95181 0.0
O223 O 0.53579 0.97549 0.02261 0.0
C224 C 0.46338 0.96882 0.97572 0.0
C225 C 0.52104 0.9952 0.19062 0.0
C226 C 0.52822 0.0086 0.26943 0.0
C227 C 0.55002 0.02354 0.25521 0.0
C228 C 0.54284 0.01012 0.17745 0.0
C229 C 0.55721 0.02426 0.20956 0.0
C230 C 0.51377 0.99442 0.2366 0.0
C231 C 0.45951 0.02605 0.03709 0.0
C232 C 0.50561 0.98071 0.15651 0.0
C233 C 0.46924 0.87237 0.07661 0.0
C234 C 0.44402 0.88344 0.07936 0.0
C235 C 0.53293 0.0294 0.04379 0.0
C236 C 0.47534 0.01163 0.82835 0.0
C237 C 0.46885 -0.0008 0.74887 0.0
C238 C 0.44621 0.98511 0.76165 0.0
C239 C 0.4527 0.99752 0.84005 0.0
C240 C 0.48335 0.01251 0.7827 0.0
C241 C 0.43825 0.98432 0.8069 0.0
C242 C 0.53391 0.96828 0.97994 0.0
C243 C 0.49114 0.02464 0.86378 0.0
H244 H 0.5618 0.03436 0.27949 0.0
H245 H 0.54869 0.01068 0.14234 0.0
H246 H 0.57407 0.03573 0.19906 0.0
H247 H 0.49672 0.98305 0.24663 0.0
H248 H 0.43441 0.97497 0.73654 0.0
H249 H 0.44629 0.99676 0.87486 0.0
H250 H 0.50105 0.02316 0.77373 0.0
H251 H 0.42077 0.97348 0.81629 0.0
Eu252 Eu 0.22871 0.24991 0.2021 0.0
C253 C 0.32673 0.27982 0.30759 0.0
N254 N 0.31754 0.25471 0.30519 0.0
C255 C 0.36074 0.23856 0.28846 0.0
C256 C 0.35348 0.28529 0.29924 0.0
C257 C 0.33402 0.2341 0.2965 0.0
C258 C 0.37051 0.26427 0.28962 0.0
C259 C 0.31808 0.32647 0.31826 0.0
C260 C 0.30907 0.3002 0.31661 0.0
C261 C 0.34465 0.33199 0.30938 0.0
C262 C 0.36229 0.31147 0.29996 0.0
Eu263 Eu 0.27232 0.24905 0.31855 0.0
N264 N 0.28323 0.29439 0.32396 0.0
C265 C 0.30018 0.34641 0.32946 0.0
C266 C 0.26641 0.3135 0.33897 0.0
C267 C 0.27436 0.33982 0.34074 0.0
H268 H 0.32649 0.21426 0.2958 0.0
H269 H 0.26072 0.35494 0.35173 0.0
H270 H 0.19231 0.305 0.20106 0.0
H271 H 0.19921 0.14718 0.18201 0.0
H272 H 0.24717 0.30857 0.35136 0.0
H273 H 0.30632 0.36682 0.33109 0.0
H274 H 0.23049 0.18416 0.18948 0.0
H275 H 0.37378 0.2222 0.28128 0.0
H276 H 0.35181 0.35208 0.3101 0.0
H277 H 0.38273 0.31608 0.29322 0.0
H278 H 0.14526 0.3175 0.20081 0.0
H279 H 0.39118 0.26768 0.28299 0.0
H280 H 0.15131 0.15588 0.18189 0.0
N281 N 0.18457 0.26394 0.19941 0.0
C282 C 0.16616 0.24466 0.19583 0.0
C283 C 0.15087 0.29694 0.19965 0.0
C284 C 0.13914 0.25086 0.19475 0.0
C285 C 0.17745 0.28983 0.2003 0.0
C286 C 0.13162 0.27738 0.19713 0.0
N287 N 0.20055 0.21323 0.19473 0.0
C288 C 0.20965 0.18809 0.18955 0.0
C289 C 0.15582 0.19814 0.1885 0.0
C290 C 0.17437 0.2186 0.19271 0.0
C291 C 0.16495 0.17216 0.18507 0.0
C292 C 0.19198 0.16715 0.18523 0.0
H293 H 0.11105 0.28296 0.19647 0.0
H294 H 0.0997 0.23489 0.19033 0.0
H295 H 0.11431 0.18876 0.18491 0.0
O296 O 0.2493 0.23971 0.1393 0.0
O297 O 0.21126 0.22593 0.25969 0.0
O298 O 0.24211 0.21625 0.31583 0.0
O299 O 0.21599 0.26601 0.13707 0.0
O300 O 0.26326 0.22172 0.20597 0.0
O301 O 0.27582 0.21068 0.2797 0.0
O302 O 0.26804 0.25922 0.39039 0.0
O303 O 0.28938 0.26045 0.24951 0.0
O304 O 0.2557 0.28376 0.21881 0.0
O305 O 0.293 0.22684 0.37098 0.0
O306 O 0.23101 0.26606 0.31971 0.0
O307 O 0.22825 0.28483 0.2495 0.0
C308 C 0.21917 0.21299 0.2958 0.0
C309 C 0.24851 0.27095 0.0803 0.0
C310 C 0.26169 0.2791 1.00164 0.0
C311 C 0.27556 0.30152 0.01656 0.0
C312 C 0.26234 0.29342 0.09411 0.0
C313 C 0.27585 0.30855 0.06239 0.0
C314 C 0.24814 0.26386 0.03408 0.0
C315 C 0.27493 0.20622 0.23559 0.0
C316 C 0.23465 0.25463 0.11386 0.0
C317 C 0.12056 0.23051 0.19106 0.0
C318 C 0.12888 0.20422 0.18792 0.0
C319 C 0.28093 0.28008 0.22469 0.0
C320 C 0.27027 0.22364 0.44112 0.0
C321 C 0.2579 0.21815 0.52093 0.0
C322 C 0.24551 0.19428 0.50928 0.0
C323 C 0.25784 0.19974 0.43072 0.0
C324 C 0.27038 0.23276 0.48638 0.0
C325 C 0.24553 0.1852 0.46458 0.0
C326 C 0.21979 0.28237 0.29123 0.0
C327 C 0.28214 0.23956 0.4046 0.0
H328 H 0.28587 0.31393 0.9927 0.0
H329 H 0.26258 0.29926 0.12936 0.0
H330 H 0.2865 0.3259 0.07335 0.0
H331 H 0.2376 0.24633 0.02358 0.0
H332 H 0.23608 0.18236 0.53491 0.0
H333 H 0.25766 0.19235 0.39633 0.0
H334 H 0.27973 0.25136 0.49447 0.0
H335 H 0.23598 0.16678 0.45614 0.0
Eu336 Eu 0.7277 0.24855 0.31979 0.0
C337 C 0.82847 0.22736 0.2013 0.0
N338 N 0.81584 0.2508 0.20673 0.0
C339 C 0.85702 0.27305 0.21553 0.0
C340 C 0.85613 0.2259 0.20331 0.0
C341 C 0.82956 0.27354 0.21329 0.0
C342 C 0.87037 0.24913 0.21061 0.0
C343 C 0.82618 0.18007 0.18925 0.0
C344 C 0.81358 0.20466 0.19452 0.0
C345 C 0.85373 0.17856 0.19142 0.0
C346 C 0.86865 0.20139 0.19841 0.0
Eu347 Eu 0.76966 0.24971 0.20237 0.0
N348 N 0.78683 0.2066 0.1936 0.0
C349 C 0.81072 0.15772 0.18169 0.0
C350 C 0.77183 0.18508 0.18379 0.0
C351 C 0.78346 0.1603 0.17843 0.0
H352 H 0.81934 0.29212 0.2162 0.0
H353 H 0.7714 0.14324 0.17119 0.0
H354 H 0.67881 0.20508 0.30697 0.0
H355 H 0.72406 0.3551 0.34913 0.0
H356 H 0.75099 0.18686 0.17879 0.0
H357 H 0.81965 0.13848 0.17742 0.0
H358 H 0.74534 0.3119 0.34116 0.0
H359 H 0.86787 0.29111 0.22087 0.0
H360 H 0.86371 0.15981 0.1876 0.0
H361 H 0.88989 0.19988 0.20001 0.0
H362 H 0.63024 0.2051 0.30317 0.0
H363 H 0.89165 0.24881 0.21242 0.0
H364 H 0.67565 0.3588 0.34462 0.0
N365 N 0.68154 0.24648 0.31609 0.0
C366 C 0.66848 0.26967 0.32165 0.0
C367 C 0.64076 0.2234 0.3082 0.0
C368 C 0.64078 0.27056 0.32022 0.0
C369 C 0.66824 0.22346 0.30992 0.0
C370 C 0.62697 0.24705 0.31329 0.0
N371 N 0.70972 0.29131 0.32831 0.0
C372 C 0.72439 0.3132 0.33715 0.0
C373 C 0.66988 0.31703 0.33345 0.0
C374 C 0.68294 0.29269 0.32808 0.0
C375 C 0.68495 0.33973 0.34031 0.0
C376 C 0.71229 0.33775 0.34261 0.0
H377 H 0.60568 0.24692 0.31192 0.0
H378 H 0.60652 0.29589 0.32424 0.0
H379 H 0.63195 0.33651 0.33588 0.0
O380 O 0.74117 0.25564 0.3893 0.0
O381 O 0.70851 0.26671 0.25733 0.0
O382 O 0.74327 0.28434 0.21844 0.0
O383 O 0.7115 0.22626 0.37645 0.0
O384 O 0.76727 0.26961 0.3192 0.0
O385 O 0.77236 0.28609 0.24673 0.0
O386 O 0.75647 0.24305 0.1326 0.0
O387 O 0.78886 0.23206 0.26518 0.0
O388 O 0.75421 0.21398 0.30366 0.0
O389 O 0.78636 0.27208 0.14622 0.0
O390 O 0.72992 0.22897 0.20297 0.0
O391 O 0.72526 0.21225 0.27528 0.0
C392 C 0.718 0.28288 0.22676 0.0
C393 C 0.70945 0.24886 0.44685 0.0
C394 C 0.70649 0.25765 0.52839 0.0
C395 C 0.68089 0.26749 0.52196 0.0
C396 C 0.68381 0.25859 0.44161 0.0
C397 C 0.6697 0.26792 0.47889 0.0
C398 C 0.72072 0.24834 0.4904 0.0
C399 C 0.7784 0.28574 0.29006 0.0
C400 C 0.72453 0.23921 0.40725 0.0
C401 C 0.62779 0.29482 0.32536 0.0
C402 C 0.64229 0.31796 0.33194 0.0
C403 C 0.77947 0.21562 0.29535 0.0
C404 C 0.78855 0.24968 0.07565 0.0
C405 C 0.79173 0.24088 0.99413 0.0
C406 C 0.81726 0.23093 1.0008 0.0
C407 C 0.81413 0.23981 0.08114 0.0
C408 C 0.77743 0.25026 0.03199 0.0
C409 C 0.82831 0.23042 0.04398 0.0
C410 C 0.71895 0.21273 0.2321 0.0
C411 C 0.77337 0.25937 0.11509 0.0
H412 H 0.66925 0.27439 0.55041 0.0
H413 H 0.67452 0.25878 0.40886 0.0
H414 H 0.6499 0.27531 0.47444 0.0
H415 H 0.74054 0.24088 0.4946 0.0
H416 H 0.82895 0.22397 0.97246 0.0
H417 H 0.82329 0.23953 0.11401 0.0
H418 H 0.75765 0.25781 0.02762 0.0
H419 H 0.84805 0.22292 0.04862 0.0
Eu420 Eu 0.73001 0.74828 0.69724 0.0
C421 C 0.81576 0.79164 0.82243 0.0
N422 N 0.81111 0.76585 0.81319 0.0
C423 C 0.85681 0.7587 0.79765 0.0
C424 C 0.84118 0.80229 0.81767 0.0
C425 C 0.83119 0.74908 0.80248 0.0
C426 C 0.86177 0.78549 0.80471 0.0
C427 C 0.79927 0.834 0.84781 0.0
C428 C 0.795 0.80725 0.83708 0.0
C429 C 0.82434 0.84501 0.84143 0.0
C430 C 0.84526 0.82918 0.82643 0.0
Eu431 Eu 0.76732 0.75132 0.81993 0.0
N432 N 0.771 0.79598 0.84309 0.0
C433 C 0.77841 0.84869 0.86593 0.0
C434 C 0.75134 0.80963 0.86431 0.0
C435 C 0.75449 0.8363 0.875 0.0
H436 H 0.82724 0.72841 0.7968 0.0
H437 H 0.73859 0.84717 0.89081 0.0
H438 H 0.68242 0.79512 0.70391 0.0
H439 H 0.71786 0.64443 0.6549 0.0
H440 H 0.73327 0.79998 0.87373 0.0
H441 H 0.78087 0.86929 0.87461 0.0
H442 H 0.74181 0.68678 0.66276 0.0
H443 H 0.87266 0.7455 0.78828 0.0
H444 H 0.82791 0.86559 0.84904 0.0
H445 H 0.86459 0.83782 0.82248 0.0
H446 H 0.63486 0.79754 0.71979 0.0
H447 H 0.8816 0.79291 0.80069 0.0
H448 H 0.67056 0.64213 0.67464 0.0
N449 N 0.68389 0.75325 0.70632 0.0
C450 C 0.6696 0.73065 0.70613 0.0
C451 C 0.64444 0.77856 0.7167 0.0
C452 C 0.64219 0.73108 0.71353 0.0
C453 C 0.67151 0.7771 0.70855 0.0
C454 C 0.62978 0.75542 0.72012 0.0
N455 N 0.70839 0.70758 0.68721 0.0
C456 C 0.7211 0.68577 0.67097 0.0
C457 C 0.66774 0.68357 0.69185 0.0
C458 C 0.68213 0.70718 0.69541 0.0
C459 C 0.68092 0.66068 0.67781 0.0
C460 C 0.70763 0.66189 0.66663 0.0
H461 H 0.60877 0.75661 0.72598 0.0
H462 H 0.60694 0.70729 0.71862 0.0
H463 H 0.62935 0.66566 0.69968 0.0
O464 O 0.75128 0.74378 0.63313 0.0
O465 O 0.72761 0.71446 0.74799 0.0
O466 O 0.72583 0.73532 0.81655 0.0
O467 O 0.71272 0.76111 0.63312 0.0
O468 O 0.77029 0.72957 0.70126 0.0
O469 O 0.7773 0.71572 0.77552 0.0
O470 O 0.77105 0.75388 0.8943 0.0
O471 O 0.78687 0.76647 0.75546 0.0
O472 O 0.75309 0.78504 0.71555 0.0
O473 O 0.7791 0.71681 0.85903 0.0
O474 O 0.72594 0.76779 0.81408 0.0
O475 O 0.72342 0.78461 0.74166 0.0
C476 C 0.71819 0.71641 0.78926 0.0
C477 C 0.74218 0.77446 0.57552 0.0
C478 C 0.7526 0.78609 0.49686 0.0
C479 C 0.75929 0.81159 0.512 0.0
C480 C 0.74924 0.79986 0.58959 0.0
C481 C 0.75773 0.8183 0.55792 0.0
C482 C 0.74399 0.76758 0.52929 0.0
C483 C 0.78133 0.71396 0.73132 0.0
C484 C 0.73316 0.75488 0.60878 0.0
C485 C 0.62795 0.70738 0.71245 0.0
C486 C 0.6407 0.68367 0.70155 0.0
C487 C 0.77779 0.78485 0.7285 0.0
C488 C 0.78372 0.71626 0.94139 0.0
C489 C 0.78158 0.71448 0.02434 0.0
C490 C 0.79219 0.68895 0.02269 0.0
C491 C 0.79452 0.69077 0.94097 0.0
C492 C 0.77763 0.72829 0.9835 0.0
C493 C 0.7988 0.67732 0.98134 0.0
C494 C 0.71646 0.78469 0.78466 0.0
C495 C 0.77766 0.72923 0.8977 0.0
H496 H 0.76544 0.82659 0.48832 0.0
H497 H 0.74808 0.80543 0.62501 0.0
H498 H 0.76302 0.83795 0.56897 0.0
H499 H 0.73902 0.74772 0.51887 0.0
H500 H 0.79547 0.67802 0.05359 0.0
H501 H 0.79945 0.68105 0.90932 0.0
H502 H 0.7691 0.74785 0.98451 0.0
H503 H 0.80704 0.65766 0.98053 0.0
Eu504 Eu 0.4993 0.51845 0.06807 0.0
C505 C 0.47424 0.42063 0.94932 0.0
N506 N 0.49813 0.43256 0.95213 0.0
C507 C 0.51946 0.39067 0.95838 0.0
C508 C 0.47208 0.393 0.95197 0.0
C509 C 0.52063 0.41813 0.956 0.0
C510 C 0.49508 0.37805 0.95652 0.0
C511 C 0.42671 0.42435 0.94414 0.0
C512 C 0.45177 0.43622 0.94572 0.0
C513 C 0.42452 0.39684 0.94681 0.0
C514 C 0.44713 0.38122 0.9507 0.0
Eu515 Eu 0.49812 0.47888 0.9492 0.0
N516 N 0.45437 0.46294 0.94479 0.0
C517 C 0.40455 0.4405 0.93984 0.0
C518 C 0.43296 0.47857 0.93765 0.0
C519 C 0.40774 0.46768 0.93593 0.0
H520 H 0.53953 0.4278 0.95686 0.0
H521 H 0.39079 0.48025 0.93098 0.0
H522 H 0.45238 0.56492 0.06789 0.0
H523 H 0.60625 0.52796 0.08079 0.0
H524 H 0.4351 0.49931 0.93196 0.0
H525 H 0.38497 0.43214 0.93852 0.0
H526 H 0.56421 0.50421 0.07645 0.0
H527 H 0.53734 0.37927 0.96165 0.0
H528 H 0.40542 0.38743 0.94589 0.0
H529 H 0.44508 0.36003 0.95287 0.0
H530 H 0.44925 0.61349 0.06941 0.0
H531 H 0.49423 0.35677 0.95867 0.0
H532 H 0.60668 0.57665 0.0826 0.0
N533 N 0.4941 0.5645 0.07089 0.0
C534 C 0.51657 0.57883 0.07486 0.0
C535 C 0.4683 0.604 0.07075 0.0
C536 C 0.51569 0.60658 0.0762 0.0
C537 C 0.47013 0.57653 0.06941 0.0
C538 C 0.49117 0.6191 0.07402 0.0
N539 N 0.54095 0.53893 0.07325 0.0
C540 C 0.56404 0.52536 0.07608 0.0
C541 C 0.56427 0.58011 0.07936 0.0
C542 C 0.54063 0.56571 0.07642 0.0
C543 C 0.5881 0.5663 0.08042 0.0
C544 C 0.58795 0.53881 0.07915 0.0
H545 H 0.48968 0.64038 0.07493 0.0
H546 H 0.53893 0.64226 0.08018 0.0
H547 H 0.5814 0.61912 0.0829 0.0
O548 O 0.51035 0.50249 0.13395 0.0
O549 O 0.51753 0.53843 1.00644 0.0
O550 O 0.53356 0.50521 0.96051 0.0
O551 O 0.48066 0.53278 0.13031 0.0
O552 O 0.52127 0.47947 0.06289 0.0
O553 O 0.53592 0.47441 0.98889 0.0
O554 O 0.48733 0.49078 0.88065 0.0
O555 O 0.48317 0.45895 0.01343 0.0
O556 O 0.46401 0.49251 0.05364 0.0
O557 O 0.51791 0.46191 0.88997 0.0
O558 O 0.47867 0.51933 0.95358 0.0
O559 O 0.46231 0.52206 0.02636 0.0
C560 C 0.53375 0.52973 0.97499 0.0
C561 C 0.47722 0.50206 0.18975 0.0
C562 C 0.46909 0.48898 0.26817 0.0
C563 C 0.44754 0.47388 0.25324 0.0
C564 C 0.45564 0.48697 0.17575 0.0
C565 C 0.44092 0.47292 0.20735 0.0
C566 C 0.4839 0.50305 0.23591 0.0
C567 C 0.53702 0.46878 0.03235 0.0
C568 C 0.49316 0.51644 0.15642 0.0
C569 C 0.53922 0.62093 0.07922 0.0
C570 C 0.56343 0.60775 0.08078 0.0
C571 C 0.46551 0.46754 0.04239 0.0
C572 C 0.5211 0.48966 0.82617 0.0
C573 C 0.52821 0.50174 0.74696 0.0
C574 C 0.55038 0.51642 0.76032 0.0
C575 C 0.54324 0.50438 0.83855 0.0
C576 C 0.51364 0.48833 0.78037 0.0
C577 C 0.55779 0.5177 0.8058 0.0
C578 C 0.46256 0.52965 0.98388 0.0
C579 C 0.50525 0.47637 0.86097 0.0
H580 H 0.43551 0.46311 0.2771 0.0
H581 H 0.45021 0.48615 0.14044 0.0
H582 H 0.42426 0.46132 0.19626 0.0
H583 H 0.5008 0.51449 0.24652 0.0
H584 H 0.56223 0.52666 0.73552 0.0
H585 H 0.54918 0.50552 0.87355 0.0
H586 H 0.49627 0.47723 0.77095 0.0
H587 H 0.5749 0.52901 0.81569 0.0
Eu588 Eu 0.99712 0.47767 0.57303 0.0
C589 C 0.01652 0.57782 0.46024 0.0
N590 N 0.99448 0.5627 0.46091 0.0
C591 C 0.96785 0.60138 0.4707 0.0
C592 C 0.01511 0.60533 0.46674 0.0
C593 C 0.97024 0.57427 0.46314 0.0
C594 C 0.99041 0.61693 0.47338 0.0
C595 C 0.06324 0.58134 0.44435 0.0
C596 C 0.04032 0.56605 0.44944 0.0
C597 C 0.06219 0.60852 0.45313 0.0
C598 C 0.03818 0.62049 0.46447 0.0
Eu599 Eu 0.00103 0.51668 0.4516 0.0
N600 N 0.0408 0.53969 0.44178 0.0
C601 C 0.08631 0.56893 0.4293 0.0
C602 C 0.06276 0.52767 0.42479 0.0
C603 C 0.08594 0.54205 0.41873 0.0
H604 H 0.95261 0.56273 0.45874 0.0
H605 H 0.10352 0.5324 0.4062 0.0
H606 H 0.02355 0.41919 0.54977 0.0
H607 H 0.89806 0.50154 0.63468 0.0
H608 H 0.06239 0.50684 0.41691 0.0
H609 H 0.10431 0.58002 0.42479 0.0
H610 H 0.94521 0.50935 0.62179 0.0
H611 H 0.94858 0.61031 0.47372 0.0
H612 H 0.07966 0.62057 0.45004 0.0
H613 H 0.03751 0.6416 0.46984 0.0
H614 H 0.00928 0.37279 0.54067 0.0
H615 H 0.98849 0.63798 0.47858 0.0
H616 H 0.87885 0.45791 0.61734 0.0
N617 N 0.98508 0.43322 0.56415 0.0
C618 C 0.95948 0.42713 0.57199 0.0
C619 C 0.99506 0.38791 0.54922 0.0
C620 C 0.95041 0.40108 0.56685 0.0
C621 C 0.00308 0.4141 0.55426 0.0
C622 C 0.96856 0.3814 0.55507 0.0
N623 N 0.9521 0.4718 0.59164 0.0
C624 C 0.93684 0.49079 0.61146 0.0
C625 C 0.91573 0.44137 0.59382 0.0
C626 C 0.9424 0.4471 0.58517 0.0
C627 C 0.89945 0.4615 0.6103 0.0
C628 C 0.91019 0.48618 0.61996 0.0
H629 H 0.96237 0.36113 0.55083 0.0
H630 H 0.91623 0.37568 0.56937 0.0
H631 H 0.88587 0.41093 0.59311 0.0
O632 O 0.99226 0.47371 0.64651 0.0
O633 O 0.98301 0.45852 0.50741 0.0
O634 O 0.96474 0.49275 0.4682 0.0
O635 O 0.02982 0.46525 0.61587 0.0
O636 O 0.98024 0.51897 0.5683 0.0
O637 O 0.96428 0.52206 0.49527 0.0
O638 O 0.00802 0.49623 0.38735 0.0
O639 O 0.03449 0.52026 0.50301 0.0
O640 O 0.01251 0.51931 0.5706 0.0
O641 O 0.98708 0.53298 0.38725 0.0
O642 O 0.0204 0.47667 0.45612 0.0
O643 O 0.03376 0.46956 0.53064 0.0
C644 C 0.96513 0.46782 0.47968 0.0
C645 C 0.02992 0.48421 0.68989 0.0
C646 C 0.03291 0.49793 0.76972 0.0
C647 C 0.05419 0.51432 0.7581 0.0
C648 C 0.05109 0.50089 0.67954 0.0
C649 C 0.06308 0.51579 0.71346 0.0
C650 C 0.02093 0.48277 0.73513 0.0
C651 C 0.96371 0.52869 0.53846 0.0
C652 C 0.01694 0.4686 0.65372 0.0
C653 C 0.92366 0.39552 0.57372 0.0
C654 C 0.90635 0.41562 0.58708 0.0
C655 C 0.03251 0.52694 0.54597 0.0
C656 C 0.97781 0.5026 0.32809 0.0
C657 C 0.96883 0.49133 0.24874 0.0
C658 C 0.94512 0.47951 0.26255 0.0
C659 C 0.95403 0.49088 0.34083 0.0
C660 C 0.9851 0.50296 0.282 0.0
C661 C 0.9378 0.47938 0.30821 0.0
C662 C 0.03584 0.46562 0.48647 0.0
C663 C 0.99567 0.5134 0.36277 0.0
H664 H 0.06428 0.52583 0.78367 0.0
H665 H 0.05841 0.50245 0.6452 0.0
H666 H 0.07944 0.52851 0.70511 0.0
H667 H 0.00439 0.47018 0.74312 0.0
H668 H 0.93203 0.47064 0.23793 0.0
H669 H 0.94818 0.49055 0.37603 0.0
H670 H 0.00364 0.51179 0.27223 0.0
H671 H 0.91948 0.47029 0.31836 0.0
C672 C 0.07788 0.04672 0.47874 0.0
C673 C 0.05153 0.04839 0.46488 0.0
C674 C 0.0965 0.06475 0.46281 0.0
C675 C 0.10312 0.13071 0.41203 0.0
H676 H 0.16976 0.10436 0.36648 0.0
C677 C 0.17333 0.19657 0.30899 0.0
C678 C 0.20055 0.19375 0.31567 0.0
C679 C 0.15562 0.17881 0.32829 0.0
C680 C 0.15144 0.11216 0.37965 0.0
H681 H 0.02388 0.07028 0.42394 0.0
H682 H 0.0563 0.10179 0.39615 0.0
H683 H 0.13822 0.0739 0.39981 0.0
H684 H 0.23048 0.16949 0.34674 0.0
H685 H 0.19964 0.1392 0.38225 0.0
H686 H 0.11628 0.16897 0.39234 0.0
C687 C 0.06261 0.08667 0.41949 0.0
C688 C 0.13333 0.09465 0.39872 0.0
C689 C 0.04409 0.06851 0.43508 0.0
C690 C 0.20964 0.1726 0.34184 0.0
C691 C 0.19191 0.15494 0.36156 0.0
C692 C 0.12128 0.14824 0.39329 0.0
C693 C 0.08908 0.0849 0.4329 0.0
C694 C 0.10887 0.10369 0.41475 0.0
C695 C 0.16462 0.15786 0.35519 0.0
C696 C 0.14561 0.1392 0.37642 0.0
H697 H 0.08416 0.03121 0.50132 0.0
H698 H 0.11669 0.06298 0.47403 0.0
H699 H 0.0846 0.13834 0.42469 0.0
H700 H 0.1656 0.21276 0.28934 0.0
H701 H 0.13483 0.18147 0.32186 0.0
C702 C 0.07657 0.9408 0.52783 0.0
C703 C 0.05196 0.94374 0.54875 0.0
C704 C 0.0947 0.92237 0.54419 0.0
C705 C 0.10803 0.88142 0.64675 0.0
H706 H 0.15842 0.84687 0.56752 0.0
C707 C 0.17141 0.79234 0.70001 0.0
C708 C 0.19864 0.79672 0.69722 0.0
C709 C 0.15372 0.80984 0.68013 0.0
C710 C 0.14445 0.85648 0.58992 0.0
H711 H 0.02627 0.92893 0.60133 0.0
H712 H 0.05701 0.89593 0.62822 0.0
H713 H 0.12654 0.87769 0.5357 0.0
H714 H 0.22871 0.82199 0.66854 0.0
H715 H 0.19764 0.85197 0.63206 0.0
H716 H 0.12545 0.85926 0.70056 0.0
C717 C 0.06313 0.90855 0.60073 0.0
C718 C 0.12628 0.87429 0.57186 0.0
C719 C 0.04534 0.92734 0.5851 0.0
C720 C 0.20784 0.81817 0.67175 0.0
C721 C 0.19013 0.83532 0.65084 0.0
C722 C 0.12578 0.86322 0.66453 0.0
C723 C 0.0883 0.90611 0.58119 0.0
C724 C 0.10778 0.88704 0.60004 0.0
C725 C 0.16294 0.83155 0.65562 0.0
C726 C 0.14414 0.85065 0.63631 0.0
H727 H 0.08214 0.95334 0.49984 0.0
H728 H 0.11393 0.92141 0.5285 0.0
H729 H 0.09472 0.89128 0.66994 0.0
H730 H 0.16371 0.77548 0.71785 0.0
H731 H 0.1328 0.80638 0.68375 0.0
C732 C 0.30015 0.82902 0.78283 0.0
C733 C 0.29971 0.80327 0.7999 0.0
C734 C 0.31804 0.84744 0.79989 0.0
C735 C 0.38154 0.85412 0.85509 0.0
H736 H 0.35447 0.91958 0.9049 0.0
C737 C 0.44771 0.92309 0.95948 0.0
C738 C 0.444 0.95041 0.95581 0.0
C739 C 0.42986 0.90557 0.93993 0.0
C740 C 0.36251 0.90166 0.89045 0.0
H741 H 0.31785 0.77624 0.84699 0.0
H742 H 0.34972 0.80827 0.87589 0.0
H743 H 0.32443 0.8884 0.86908 0.0
H744 H 0.41795 0.98073 0.93045 0.0
H745 H 0.38781 0.95029 0.8935 0.0
H746 H 0.41965 0.86739 0.87501 0.0
C747 C 0.33606 0.81425 0.84975 0.0
C748 C 0.34523 0.88377 0.87011 0.0
C749 C 0.31782 0.79602 0.8334 0.0
C750 C 0.42179 0.95981 0.93275 0.0
C751 C 0.40421 0.94228 0.91229 0.0
C752 C 0.3989 0.87217 0.87466 0.0
C753 C 0.33611 0.84019 0.83355 0.0
C754 C 0.35458 0.85975 0.85272 0.0
C755 C 0.40807 0.91488 0.91541 0.0
C756 C 0.38959 0.89607 0.89315 0.0
H757 H 0.2862 0.83509 0.75722 0.0
H758 H 0.3178 0.86732 0.78681 0.0
H759 H 0.38922 0.8358 0.84148 0.0
H760 H 0.46459 0.91515 0.97706 0.0
H761 H 0.4332 0.88467 0.94421 0.0
C762 C 0.43671 0.04649 0.10363 0.0
C763 C 0.43773 0.04184 0.05661 0.0
C764 C 0.41672 0.06183 0.1225 0.0
C765 C 0.37111 0.11466 0.09445 0.0
H766 H 0.33702 0.09546 0.20723 0.0
C767 C 0.28907 0.17848 0.16975 0.0
C768 C 0.28998 0.18369 0.2166 0.0
C769 C 0.30489 0.15904 0.15045 0.0
C770 C 0.34653 0.10119 0.17596 0.0
H771 H 0.41789 0.04899 0.99282 0.0
H772 H 0.38311 0.07624 0.02593 0.0
H773 H 0.36862 0.06529 0.17216 0.0
H774 H 0.3072 0.17125 0.28019 0.0
H775 H 0.33554 0.13772 0.24612 0.0
H776 H 0.34969 0.15077 0.09858 0.0
C777 C 0.39802 0.06809 0.04796 0.0
C778 C 0.36454 0.0839 0.15582 0.0
C779 C 0.41795 0.05252 0.02903 0.0
C780 C 0.30628 0.16807 0.24394 0.0
C781 C 0.32237 0.14868 0.22445 0.0
C782 C 0.35325 0.13198 0.11465 0.0
C783 C 0.39732 0.07299 0.09487 0.0
C784 C 0.37709 0.09053 0.11497 0.0
C785 C 0.32222 0.14436 0.17731 0.0
C786 C 0.34078 0.1255 0.1557 0.0
H787 H 0.45152 0.03855 0.12606 0.0
H788 H 0.41687 0.06552 0.15868 0.0
H789 H 0.38083 0.1205 0.06341 0.0
H790 H 0.27645 0.18971 0.14753 0.0
H791 H 0.30377 0.15574 0.11422 0.0
C792 C 0.91875 0.9601 0.5734 0.0
C793 C 0.94344 0.95109 0.55862 0.0
C794 C 0.90026 0.94249 0.59105 0.0
C795 C 0.88497 0.87057 0.59741 0.0
H796 H 0.83876 0.89276 0.69509 0.0
C797 C 0.82288 0.79779 0.70301 0.0
C798 C 0.79622 0.80424 0.70896 0.0
C799 C 0.84036 0.81599 0.68431 0.0
C800 C 0.85142 0.88637 0.66759 0.0
H801 H 0.96851 0.91679 0.55209 0.0
H802 H 0.9367 0.88616 0.58358 0.0
H803 H 0.87037 0.92388 0.66365 0.0
H804 H 0.76692 0.83479 0.70021 0.0
H805 H 0.79763 0.86682 0.66789 0.0
H806 H 0.86645 0.83279 0.60257 0.0
C807 C 0.93108 0.90663 0.58036 0.0
C808 C 0.86949 0.90422 0.64935 0.0
C809 C 0.94943 0.92421 0.56236 0.0
C810 C 0.78738 0.8293 0.69594 0.0
C811 C 0.80495 0.84765 0.67774 0.0
C812 C 0.86718 0.85264 0.61612 0.0
C813 C 0.90616 0.91547 0.59484 0.0
C814 C 0.88657 0.89658 0.61399 0.0
C815 C 0.8316 0.84113 0.67152 0.0
C816 C 0.85024 0.86034 0.65141 0.0
H817 H 0.91357 0.98074 0.57069 0.0
H818 H 0.88121 0.95006 0.60112 0.0
H819 H 0.89729 0.86402 0.5696 0.0
H820 H 0.83018 0.77852 0.71225 0.0
H821 H 0.86081 0.81047 0.68019 0.0
C822 C 0.9516 0.07038 0.43961 0.0
C823 C 0.94434 0.05218 0.47291 0.0
C824 C 0.9334 0.0885 0.42318 0.0
C825 C 0.8677 0.1185 0.44555 0.0
H826 H 0.87221 0.13484 0.31755 0.0
C827 C 0.78816 0.17686 0.34572 0.0
C828 C 0.79776 0.19726 0.3182 0.0
C829 C 0.8055 0.15926 0.3665 0.0
C830 C 0.87082 0.13057 0.3534 0.0
H831 H 0.91261 0.03882 0.51593 0.0
H832 H 0.88028 0.07001 0.48616 0.0
H833 H 0.90313 0.10378 0.35042 0.0
H834 H 0.83325 0.21587 0.2931 0.0
H835 H 0.86332 0.18454 0.32759 0.0
H836 H 0.83475 0.14496 0.44772 0.0
C837 C 0.90023 0.07071 0.47335 0.0
C838 C 0.88863 0.11287 0.3724 0.0
C839 C 0.91866 0.05279 0.49035 0.0
C840 C 0.82509 0.19992 0.31271 0.0
C841 C 0.84236 0.18208 0.33277 0.0
C842 C 0.84961 0.13597 0.42631 0.0
C843 C 0.90729 0.08858 0.43904 0.0
C844 C 0.88757 0.10683 0.41887 0.0
C845 C 0.83275 0.16153 0.35974 0.0
C846 C 0.85121 0.14237 0.38015 0.0
H847 H 0.97142 0.07054 0.42607 0.0
H848 H 0.93985 0.10241 0.39782 0.0
H849 H 0.86642 0.11459 0.4815 0.0
H850 H 0.76723 0.17432 0.35095 0.0
H851 H 0.79759 0.14353 0.38706 0.0
C852 C 0.69827 0.16809 0.23257 0.0
C853 C 0.6996 0.19364 0.21479 0.0
C854 C 0.68041 0.14984 0.21486 0.0
C855 C 0.61729 0.14299 0.16308 0.0
H856 H 0.64339 0.08031 0.10232 0.0
C857 C 0.5472 0.07508 0.06408 0.0
C858 C 0.55242 0.04794 0.06296 0.0
C859 C 0.56551 0.09265 0.0822 0.0
C860 C 0.63563 0.0974 0.11988 0.0
H861 H 0.68302 0.22052 0.16573 0.0
H862 H 0.65105 0.18881 0.13589 0.0
H863 H 0.67431 0.11092 0.13737 0.0
H864 H 0.58113 0.01794 0.07953 0.0
H865 H 0.61223 0.04822 0.11419 0.0
H866 H 0.57866 0.12933 0.14767 0.0
C867 C 0.66416 0.18284 0.16286 0.0
C868 C 0.65342 0.11497 0.13967 0.0
C869 C 0.68245 0.20086 0.17975 0.0
C870 C 0.57641 0.03874 0.0803 0.0
C871 C 0.59444 0.05623 0.09961 0.0
C872 C 0.59944 0.12515 0.14426 0.0
C873 C 0.66319 0.15715 0.17999 0.0
C874 C 0.64437 0.13799 0.161 0.0
C875 C 0.58926 0.08347 0.10089 0.0
C876 C 0.60834 0.1022 0.12192 0.0
H877 H 0.7114 0.16209 0.25949 0.0
H878 H 0.67987 0.1301 0.22854 0.0
H879 H 0.60994 0.1606 0.17971 0.0
H880 H 0.52884 0.08281 0.05122 0.0
H881 H 0.56097 0.11347 0.08135 0.0
C882 C 0.67938 0.79597 0.83598 0.0
C883 C 0.69636 0.80338 0.80078 0.0
C884 C 0.66108 0.81377 0.85337 0.0
C885 C 0.61477 0.85098 0.86511 0.0
H886 H 0.6388 0.92066 0.89998 0.0
C887 C 0.54457 0.93368 0.92292 0.0
C888 C 0.55202 0.94834 0.96125 0.0
C889 C 0.56195 0.91571 0.90325 0.0
C890 C 0.6319 0.90122 0.89059 0.0
H891 H 0.70757 0.83496 0.75574 0.0
H892 H 0.67549 0.86649 0.78669 0.0
H893 H 0.66936 0.88995 0.86322 0.0
H894 H 0.58341 0.95585 1.00914 0.0
H895 H 0.61399 0.92423 0.97459 0.0
H896 H 0.5774 0.86211 0.89268 0.0
C897 C 0.6764 0.84683 0.80065 0.0
C898 C 0.64925 0.88381 0.86912 0.0
C899 C 0.69456 0.82883 0.78279 0.0
C900 C 0.57713 0.94458 0.97984 0.0
C901 C 0.59466 0.92673 0.95985 0.0
C902 C 0.59738 0.86845 0.88616 0.0
C903 C 0.65958 0.83944 0.83623 0.0
C904 C 0.64087 0.85848 0.85647 0.0
C905 C 0.58723 0.91222 0.92126 0.0
C906 C 0.60581 0.89368 0.89931 0.0
H907 H 0.68034 0.7764 0.85031 0.0
H908 H 0.64851 0.80764 0.88104 0.0
H909 H 0.6078 0.83159 0.8555 0.0
H910 H 0.52529 0.93618 0.90796 0.0
H911 H 0.5558 0.90494 0.87333 0.0
C912 C 0.57584 0.53921 0.93323 0.0
C913 C 0.55328 0.54839 0.95601 0.0
C914 C 0.59381 0.55695 0.9144 0.0
C915 C 0.6183 0.62449 0.9249 0.0
H916 H 0.64062 0.61622 0.79996 0.0
C917 C 0.67938 0.7048 0.83687 0.0
C918 C 0.6989 0.69699 0.80594 0.0
C919 C 0.66141 0.68651 0.85381 0.0
C920 C 0.63496 0.61865 0.8351 0.0
H921 H 0.53231 0.58351 0.97774 0.0
H922 H 0.56417 0.61435 0.9465 0.0
H923 H 0.61054 0.58421 0.83327 0.0
H924 H 0.71513 0.664 0.76858 0.0
H925 H 0.68423 0.63176 0.79892 0.0
H926 H 0.64308 0.65839 0.92756 0.0
C927 C 0.56774 0.59342 0.94265 0.0
C928 C 0.61763 0.60032 0.8541 0.0
C929 C 0.54952 0.57571 0.96064 0.0
C930 C 0.70005 0.67056 0.79202 0.0
C931 C 0.68225 0.65213 0.80937 0.0
C932 C 0.63589 0.64259 0.90618 0.0
C933 C 0.58995 0.58425 0.91895 0.0
C934 C 0.60897 0.60317 0.89909 0.0
C935 C 0.66278 0.6598 0.84085 0.0
C936 C 0.64432 0.6401 0.86086 0.0
H937 H 0.57972 0.51831 0.93013 0.0
H938 H 0.61095 0.54932 0.89687 0.0
H939 H 0.61224 0.62698 0.95987 0.0
H940 H 0.67787 0.72515 0.84775 0.0
H941 H 0.64636 0.69341 0.877 0.0
C942 C 0.70966 0.32063 0.17404 0.0
C943 C 0.69988 0.30132 0.20364 0.0
C944 C 0.69257 0.33836 0.15298 0.0
C945 C 0.62972 0.37089 0.16875 0.0
H946 H 0.62958 0.38151 0.03876 0.0
C947 C 0.54935 0.43307 0.08549 0.0
C948 C 0.5559 0.44878 0.04822 0.0
C949 C 0.56718 0.41467 0.10222 0.0
C950 C 0.62962 0.37915 0.07518 0.0
H951 H 0.66425 0.28473 0.2321 0.0
H952 H 0.6347 0.31648 0.19733 0.0
H953 H 0.66074 0.35055 0.07233 0.0
H954 H 0.58603 0.45743 0.99864 0.0
H955 H 0.61786 0.42596 0.029 0.0
H956 H 0.59946 0.39992 0.17241 0.0
C957 C 0.6556 0.31789 0.19064 0.0
C958 C 0.64739 0.3613 0.0943 0.0
C959 C 0.6726 0.29985 0.21088 0.0
C960 C 0.58052 0.44547 0.02741 0.0
C961 C 0.59866 0.42734 0.04474 0.0
C962 C 0.61233 0.38902 0.14984 0.0
C963 C 0.66544 0.33735 0.16162 0.0
C964 C 0.64736 0.35682 0.14119 0.0
C965 C 0.59231 0.41187 0.08273 0.0
C966 C 0.61173 0.39318 0.1027 0.0
H967 H 0.73055 0.32221 0.16731 0.0
H968 H 0.70061 0.35323 0.13076 0.0
H969 H 0.6296 0.36806 0.2051 0.0
H970 H 0.53027 0.43486 0.10166 0.0
H971 H 0.56113 0.40261 0.1305 0.0
C972 C 0.95071 0.42241 0.45806 0.0
C973 C 0.94581 0.44963 0.45918 0.0
C974 C 0.93225 0.40511 0.43963 0.0
C975 C 0.88264 0.39811 0.35516 0.0
H976 H 0.85118 0.3449 0.43168 0.0
C977 C 0.79949 0.33018 0.28984 0.0
C978 C 0.79787 0.30466 0.3075 0.0
C979 C 0.81738 0.34831 0.30789 0.0
C980 C 0.86008 0.35925 0.40945 0.0
H981 H 0.91792 0.48015 0.44102 0.0
H982 H 0.88623 0.44984 0.4064 0.0
H983 H 0.8832 0.37543 0.46355 0.0
H984 H 0.81419 0.27754 0.35628 0.0
H985 H 0.84635 0.30845 0.38613 0.0
H986 H 0.8607 0.38142 0.30047 0.0
C987 C 0.90418 0.44201 0.42078 0.0
C988 C 0.87823 0.37686 0.42796 0.0
C989 C 0.92233 0.45928 0.44041 0.0
C990 C 0.81483 0.29729 0.34259 0.0
C991 C 0.83313 0.31514 0.35989 0.0
C992 C 0.86492 0.3801 0.3363 0.0
C993 C 0.90894 0.4148 0.42065 0.0
C994 C 0.88958 0.39643 0.40099 0.0
C995 C 0.83445 0.34106 0.3433 0.0
C996 C 0.85335 0.36039 0.3632 0.0
H997 H 0.9689 0.41446 0.47112 0.0
H998 H 0.93637 0.38416 0.43951 0.0
H999 H 0.89138 0.413 0.33374 0.0
H1000 H 0.78645 0.33633 0.2629 0.0
H1001 H 0.81739 0.36812 0.2946 0.0
C1002 C 0.81132 0.69758 0.67081 0.0
C1003 C 0.79983 0.69402 0.71364 0.0
C1004 C 0.82782 0.67845 0.65233 0.0
C1005 C 0.86867 0.62101 0.68202 0.0
H1006 H 0.86683 0.60945 0.55203 0.0
C1007 C 0.91864 0.54845 0.53738 0.0
C1008 C 0.94423 0.54789 0.55495 0.0
C1009 C 0.8997 0.56511 0.55662 0.0
C1010 C 0.86739 0.61214 0.58843 0.0
H1011 H 0.79676 0.66774 0.77097 0.0
H1012 H 0.82531 0.6338 0.73815 0.0
H1013 H 0.83547 0.63949 0.58704 0.0
H1014 H 0.97062 0.56487 0.60464 0.0
H1015 H 0.93804 0.59457 0.63704 0.0
H1016 H 0.90007 0.59306 0.68358 0.0
C1017 C 0.82184 0.65165 0.71918 0.0
C1018 C 0.84964 0.62967 0.60847 0.0
C1019 C 0.80548 0.67104 0.73798 0.0
C1020 C 0.95088 0.56477 0.59087 0.0
C1021 C 0.93214 0.58159 0.60968 0.0
C1022 C 0.88624 0.60327 0.66203 0.0
C1023 C 0.83304 0.65508 0.67593 0.0
C1024 C 0.85042 0.63473 0.65538 0.0
C1025 C 0.90618 0.58165 0.59339 0.0
C1026 C 0.88617 0.59902 0.61488 0.0
H1027 H 0.80767 0.71527 0.65144 0.0
H1028 H 0.83667 0.68213 0.61958 0.0
H1029 H 0.86993 0.62449 0.71816 0.0
H1030 H 0.91307 0.53539 0.5099 0.0
H1031 H 0.87985 0.56452 0.54346 0.0
C1032 C 0.32572 0.29175 0.19569 0.0
C1033 C 0.29984 0.29931 0.20607 0.0
C1034 C 0.34361 0.31008 0.17845 0.0
C1035 C 0.34665 0.37498 0.12108 0.0
H1036 H 0.41966 0.37318 0.15863 0.0
C1037 C 0.42142 0.45694 0.07587 0.0
C1038 C 0.44639 0.44857 0.06127 0.0
C1039 C 0.40339 0.43885 0.09345 0.0
C1040 C 0.39938 0.37379 0.14753 0.0
H1041 H 0.2724 0.33197 0.20716 0.0
H1042 H 0.30358 0.36402 0.17751 0.0
H1043 H 0.38859 0.34159 0.1902 0.0
H1044 H 0.47201 0.4147 0.05329 0.0
H1045 H 0.44053 0.38313 0.08384 0.0
H1046 H 0.35747 0.40744 0.07887 0.0
C1047 C 0.31004 0.34387 0.18184 0.0
C1048 C 0.38156 0.35563 0.16554 0.0
C1049 C 0.29217 0.32553 0.19896 0.0
C1050 C 0.45291 0.42174 0.06432 0.0
C1051 C 0.43496 0.40369 0.08212 0.0
C1052 C 0.36444 0.39325 0.10335 0.0
C1053 C 0.336 0.33639 0.17122 0.0
C1054 C 0.35497 0.35592 0.15244 0.0
C1055 C 0.41001 0.41204 0.097 0.0
C1056 C 0.39102 0.39281 0.11624 0.0
H1057 H 0.3321 0.27161 0.20061 0.0
H1058 H 0.36331 0.30349 0.17018 0.0
H1059 H 0.32645 0.37554 0.10959 0.0
H1060 H 0.41578 0.47747 0.07353 0.0
H1061 H 0.38439 0.44591 0.10487 0.0
C1062 C 0.44951 0.5659 0.93183 0.0
C1063 C 0.44344 0.54963 0.96869 0.0
C1064 C 0.43139 0.58453 0.91663 0.0
C1065 C 0.3614 0.59812 0.91003 0.0
H1066 H 0.38296 0.67009 0.8877 0.0
C1067 C 0.28784 0.67712 0.8476 0.0
C1068 C 0.2972 0.69579 0.81652 0.0
C1069 C 0.30521 0.65979 0.86899 0.0
C1070 C 0.37664 0.65 0.89308 0.0
H1071 H 0.41366 0.53987 0.01842 0.0
H1072 H 0.38162 0.57221 0.9911 0.0
H1073 H 0.41427 0.63893 0.91956 0.0
H1074 H 0.33243 0.71139 0.785 0.0
H1075 H 0.36228 0.68035 0.81966 0.0
H1076 H 0.32413 0.60871 0.882 0.0
C1077 C 0.40053 0.57064 0.97434 0.0
C1078 C 0.39458 0.63222 0.91163 0.0
C1079 C 0.41887 0.55229 0.99008 0.0
C1080 C 0.32435 0.69686 0.80772 0.0
C1081 C 0.34163 0.67931 0.82845 0.0
C1082 C 0.34354 0.6158 0.89082 0.0
C1083 C 0.40665 0.58694 0.93749 0.0
C1084 C 0.38718 0.60608 0.92001 0.0
C1085 C 0.33236 0.66057 0.85955 0.0
C1086 C 0.35098 0.64195 0.88173 0.0
H1087 H 0.46836 0.56431 0.91484 0.0
H1088 H 0.43651 0.59671 0.88794 0.0
H1089 H 0.35529 0.57798 0.91579 0.0
H1090 H 0.26708 0.67589 0.85555 0.0
H1091 H 0.29734 0.64599 0.8933 0.0
C1092 C 0.20228 0.68111 0.67058 0.0
C1093 C 0.20273 0.68776 0.71694 0.0
C1094 C 0.18497 0.66198 0.65424 0.0
C1095 C 0.12102 0.63445 0.67339 0.0
H1096 H 0.14473 0.57455 0.60228 0.0
C1097 C 0.04777 0.55614 0.60924 0.0
C1098 C 0.05262 0.54411 0.56705 0.0
C1099 C 0.06663 0.57241 0.62931 0.0
C1100 C 0.13764 0.59137 0.62138 0.0
H1101 H 0.1858 0.67861 0.78259 0.0
H1102 H 0.15473 0.64603 0.75343 0.0
H1103 H 0.17685 0.60527 0.6335 0.0
H1104 H 0.08154 0.53892 0.51399 0.0
H1105 H 0.1135 0.56893 0.54664 0.0
H1106 H 0.08185 0.62169 0.65968 0.0
C1107 C 0.16799 0.65568 0.73005 0.0
C1108 C 0.15612 0.60881 0.63956 0.0
C1109 C 0.18574 0.67439 0.74663 0.0
C1110 C 0.07684 0.54854 0.54567 0.0
C1111 C 0.09546 0.56535 0.5651 0.0
C1112 C 0.10248 0.61737 0.65442 0.0
C1113 C 0.1674 0.64942 0.68371 0.0
C1114 C 0.14795 0.63046 0.66573 0.0
C1115 C 0.09066 0.57752 0.60731 0.0
C1116 C 0.1105 0.59555 0.62809 0.0
H1117 H 0.21515 0.69082 0.64666 0.0
H1118 H 0.18479 0.6575 0.61831 0.0
H1119 H 0.11427 0.65124 0.69304 0.0
H1120 H 0.0294 0.55293 0.627 0.0
H1121 H 0.06235 0.58076 0.66232 0.0
C1122 C 0.19906 0.32695 0.29288 0.0
C1123 C 0.20042 0.30117 0.30952 0.0
C1124 C 0.18214 0.3453 0.31292 0.0
C1125 C 0.14417 0.35767 0.41857 0.0
H1126 H 0.10745 0.4081 0.34357 0.0
C1127 C 0.05094 0.43416 0.4272 0.0
C1128 C 0.05521 0.4464 0.46931 0.0
C1129 C 0.0694 0.41678 0.40923 0.0
C1130 C 0.11737 0.39401 0.36503 0.0
H1131 H 0.185 0.27404 0.35924 0.0
H1132 H 0.15474 0.30574 0.3933 0.0
H1133 H 0.1372 0.37661 0.30851 0.0
H1134 H 0.08194 0.44975 0.52609 0.0
H1135 H 0.11484 0.41967 0.49399 0.0
H1136 H 0.12333 0.37437 0.47486 0.0
C1137 C 0.1672 0.31211 0.36568 0.0
C1138 C 0.13475 0.37617 0.34495 0.0
C1139 C 0.18433 0.29388 0.34596 0.0
C1140 C 0.07817 0.44052 0.49358 0.0
C1141 C 0.09692 0.42327 0.47524 0.0
C1142 C 0.12654 0.37537 0.43864 0.0
C1143 C 0.1661 0.33813 0.34974 0.0
C1144 C 0.14822 0.35764 0.3714 0.0
C1145 C 0.09283 0.41142 0.43258 0.0
C1146 C 0.11272 0.39355 0.41201 0.0
H1147 H 0.21168 0.33317 0.26534 0.0
H1148 H 0.1821 0.36526 0.30021 0.0
H1149 H 0.15459 0.34398 0.44009 0.0
H1150 H 0.03319 0.43791 0.40802 0.0
H1151 H 0.06521 0.40744 0.37698 0.0
C1152 C 0.98506 0.00936 0.8422 0.0
C1153 C 0.96729 0.99183 0.82144 0.0
C1154 C 0.9906 0.00766 0.88861 0.0
C1155 C 0.98456 0.96231 0.98782 0.0
H1156 H -0.00086 0.02592 0.05646 0.0
C1157 C 0.99847 0.96189 0.18311 0.0
C1158 C 0.02147 0.97446 0.19814 0.0
C1159 C 0.98974 0.96517 0.13839 0.0
C1160 C 0.99513 0.00797 0.03772 0.0
H1161 H 0.94191 0.95828 0.83398 0.0
H1162 H 0.95056 0.95612 0.91463 0.0
H1163 H 0.98849 0.02895 0.97613 0.0
H1164 H 0.05267 0.00119 0.17907 0.0
H1165 H 0.03713 0.00745 0.10157 0.0
H1166 H 0.99088 0.94147 0.04986 0.0
C1167 C 0.96068 0.97095 0.89502 0.0
C1168 C 0.9892 0.00966 0.99147 0.0
C1169 C 0.95536 0.97247 0.84858 0.0
C1170 C 0.03486 0.99129 0.16833 0.0
C1171 C 0.02592 0.99492 0.12401 0.0
C1172 C 0.99015 0.96069 0.03419 0.0
C1173 C 0.97837 0.98852 0.91586 0.0
C1174 C 0.98407 0.98682 0.96563 0.0
C1175 C 0.00358 0.98147 0.10815 0.0
C1176 C 0.99575 0.98347 0.05961 0.0
H1177 H 0.99446 0.02474 0.82279 0.0
H1178 H 0.00467 0.02131 0.90298 0.0
H1179 H 0.98123 0.94419 0.96923 0.0
H1180 H 0.98791 0.94867 0.20532 0.0
H1181 H 0.97235 0.9547 0.12726 0.0
C1182 C 0.2603 0.76067 0.42776 0.0
C1183 C 0.27109 0.73673 0.44262 0.0
C1184 C 0.25173 0.76345 0.38294 0.0
C1185 C 0.23285 0.72507 0.28037 0.0
H1186 H 0.25077 0.78924 0.21689 0.0
C1187 C 0.22038 0.73476 0.08648 0.0
C1188 C 0.20964 0.75848 0.07052 0.0
C1189 C 0.22808 0.73234 0.1318 0.0
C1190 C 0.24538 0.7713 0.23422 0.0
H1191 H 0.28023 0.69661 0.42248 0.0
H1192 H 0.26573 0.70155 0.34451 0.0
H1193 H 0.26231 0.78463 0.29661 0.0
H1194 H 0.1995 0.79857 0.08943 0.0
H1195 H 0.21258 0.79425 0.1684 0.0
H1196 H 0.21603 0.71168 0.21794 0.0
C1197 C 0.26374 0.71819 0.36736 0.0
C1198 C 0.25193 0.76868 0.28001 0.0
C1199 C 0.27232 0.71543 0.41202 0.0
C1200 C 0.20739 0.7799 0.10071 0.0
C1201 C 0.21515 0.77751 0.14593 0.0
C1202 C 0.22633 0.72767 0.23459 0.0
C1203 C 0.25363 0.74232 0.35202 0.0
C1204 C 0.24582 0.7455 0.30367 0.0
C1205 C 0.22534 0.75362 0.16221 0.0
C1206 C 0.23255 0.7508 0.21088 0.0
H1207 H 0.25921 0.77751 0.45035 0.0
H1208 H 0.24372 0.78222 0.37245 0.0
H1209 H 0.22748 0.7071 0.29764 0.0
H1210 H 0.22224 0.71783 0.06425 0.0
H1211 H 0.23618 0.71376 0.14303 0.0
C1212 C 0.47543 0.97723 0.67307 0.0
C1213 C 0.47696 -0.0 0.70032 0.0
C1214 C 0.48155 0.97817 0.6269 0.0
C1215 C 0.48608 0.02454 0.53108 0.0
H1216 H 0.52392 0.96739 0.47251 0.0
C1217 C 0.52233 0.03062 0.34542 0.0
C1218 C 0.52093 0.00775 0.3184 0.0
C1219 C 0.51672 0.02969 0.3918 0.0
C1220 C 0.51303 0.98336 0.48818 0.0
H1221 H 0.48655 0.04157 0.70024 0.0
H1222 H 0.49759 0.04316 0.61969 0.0
H1223 H 0.51568 0.96584 0.55385 0.0
H1224 H 0.51222 0.96597 0.31922 0.0
H1225 H 0.50193 0.96444 0.39997 0.0
H1226 H 0.48334 0.04203 0.46542 0.0
C1227 C 0.49134 0.02461 0.63404 0.0
C1228 C 0.50835 0.9825 0.5349 0.0
C1229 C 0.48531 0.02364 0.68034 0.0
C1230 C 0.51332 0.984 0.33889 0.0
C1231 C 0.50773 0.98306 0.38534 0.0
C1232 C 0.49074 0.02539 0.48435 0.0
C1233 C 0.48934 0.00192 0.60663 0.0
C1234 C 0.4948 0.00307 0.55699 0.0
C1235 C 0.50952 0.00587 0.41249 0.0
C1236 C 0.50427 0.00481 0.46224 0.0
H1237 H 0.46938 0.95861 0.68744 0.0
H1238 H 0.47959 0.96036 0.60685 0.0
H1239 H 0.47519 0.04051 0.54677 0.0
H1240 H 0.5278 0.04932 0.33073 0.0
H1241 H 0.51853 0.0476 0.4116 0.0
C1242 C 0.28406 0.27486 0.92558 0.0
C1243 C 0.26132 0.272 0.95238 0.0
C1244 C 0.28353 0.26944 0.87902 0.0
C1245 C 0.24544 0.23432 0.79002 0.0
H1246 H 0.28329 0.28044 0.70849 0.0
C1247 C 0.23491 0.22465 0.59579 0.0
C1248 C 0.25773 0.22728 0.56915 0.0
C1249 C 0.23512 0.23106 0.64196 0.0
C1250 C 0.27284 0.26717 0.73074 0.0
H1251 H 0.22015 0.26098 0.95071 0.0
H1252 H 0.21923 0.25148 0.86956 0.0
H1253 H 0.28413 0.28904 0.78983 0.0
H1254 H 0.29857 0.23934 0.57035 0.0
H1255 H 0.29904 0.25045 0.65102 0.0
H1256 H 0.23423 0.21237 0.73105 0.0
C1257 C 0.2376 0.25767 0.88471 0.0
C1258 C 0.27332 0.2721 0.77751 0.0
C1259 C 0.23813 0.2631 0.93135 0.0
C1260 C 0.28059 0.23729 0.58971 0.0
C1261 C 0.28083 0.24365 0.63605 0.0
C1262 C 0.24498 0.22937 0.74328 0.0
C1263 C 0.26026 0.26096 0.8578 0.0
C1264 C 0.25964 0.25574 0.80785 0.0
C1265 C 0.25818 0.24026 0.66299 0.0
C1266 C 0.25865 0.24572 0.7129 0.0
H1267 H 0.30241 0.28118 0.94065 0.0
H1268 H 0.30151 0.27169 0.85971 0.0
H1269 H 0.23501 0.22103 0.81227 0.0
H1270 H 0.2168 0.21749 0.58094 0.0
H1271 H 0.21712 0.22879 0.66119 0.0
C1272 C 0.78462 0.22076 0.91714 0.0
C1273 C 0.7806 0.24185 0.94749 0.0
C1274 C 0.77621 0.22239 0.87218 0.0
C1275 C 0.7596 0.27106 0.78409 0.0
H1276 H 0.73041 0.21051 0.72149 0.0
C1277 C 0.71373 0.2778 0.60532 0.0
C1278 C 0.71773 0.25673 0.57495 0.0
C1279 C 0.72219 0.27618 0.65025 0.0
C1280 C 0.73886 0.22751 0.73827 0.0
H1281 H 0.76396 0.28098 0.95444 0.0
H1282 H 0.74884 0.28367 0.87606 0.0
H1283 H 0.74199 0.20715 0.80136 0.0
H1284 H 0.73441 0.21762 0.56791 0.0
H1285 H 0.74962 0.21493 0.64626 0.0
H1286 H 0.75647 0.29143 0.721 0.0
C1287 C 0.75887 0.26599 0.88696 0.0
C1288 C 0.74544 0.22561 0.78415 0.0
C1289 C 0.76724 0.26433 0.93206 0.0
C1290 C 0.73114 0.23427 0.59032 0.0
C1291 C 0.73957 0.2326 0.63539 0.0
C1292 C 0.75302 0.27297 0.73821 0.0
C1293 C 0.76354 0.24516 0.8563 0.0
C1294 C 0.7559 0.24736 0.80769 0.0
C1295 C 0.7349 0.25342 0.66608 0.0
C1296 C 0.74256 0.25122 0.71468 0.0
H1297 H 0.79456 0.20302 0.92803 0.0
H1298 H 0.78032 0.20604 0.84954 0.0
H1299 H 0.76805 0.28807 0.80087 0.0
H1300 H 0.70374 0.29553 0.59446 0.0
H1301 H 0.71808 0.29252 0.67291 0.0
C1302 C 0.73624 0.762 0.42695 0.0
C1303 C 0.75454 0.77909 0.44749 0.0
C1304 C 0.73783 0.756 0.38058 0.0
C1305 C 0.76405 0.78071 0.2719 0.0
H1306 H 0.75728 0.70826 0.23196 0.0
C1307 C 0.78772 0.74766 0.08698 0.0
C1308 C 0.77433 0.7258 0.06918 0.0
C1309 C 0.78377 0.75549 0.13221 0.0
C1310 C 0.75872 0.72871 0.24215 0.0
H1311 H 0.78939 0.80262 0.43461 0.0
H1312 H 0.79168 0.79263 0.35393 0.0
H1313 H 0.75326 0.71892 0.31209 0.0
H1314 H 0.74541 0.6958 0.08366 0.0
H1315 H 0.73744 0.71009 0.16143 0.0
H1316 H 0.7691 0.79065 0.20201 0.0
C1317 C 0.77593 0.7841 0.37374 0.0
C1318 C 0.75653 0.73477 0.28835 0.0
C1319 C 0.77453 0.78987 0.42014 0.0
C1320 C 0.75603 0.7127 0.09666 0.0
C1321 C 0.75176 0.72074 0.14149 0.0
C1322 C 0.76592 0.7747 0.22555 0.0
C1323 C 0.75761 0.7671 0.35332 0.0
C1324 C 0.75931 0.76082 0.30389 0.0
C1325 C 0.7661 0.74179 0.16049 0.0
C1326 C 0.76339 0.74856 0.20989 0.0
H1327 H 0.7203 0.75361 0.44645 0.0
H1328 H 0.72325 0.74301 0.36585 0.0
H1329 H 0.76599 0.80103 0.28267 0.0
H1330 H 0.80218 0.75787 0.06662 0.0
H1331 H 0.79543 0.77161 0.1454 0.0
C1332 C 0.51256 0.47655 0.67838 0.0
C1333 C 0.52054 0.50045 0.69829 0.0
C1334 C 0.50651 0.47519 0.63217 0.0
C1335 C 0.4885 0.51648 0.53362 0.0
H1336 H 0.5138 0.45683 0.46346 0.0
C1337 C 0.48329 0.51399 0.33787 0.0
C1338 C 0.47587 0.49011 0.31727 0.0
C1339 C 0.48878 0.51517 0.38429 0.0
C1340 C 0.50633 0.47349 0.48261 0.0
H1341 H 0.52762 0.54184 0.68534 0.0
H1342 H 0.51745 0.53941 0.60482 0.0
H1343 H 0.52244 0.45894 0.54461 0.0
H1344 H 0.46906 0.44857 0.32936 0.0
H1345 H 0.47818 0.45071 0.41028 0.0
H1346 H 0.47239 0.53104 0.47164 0.0
C1347 C 0.51574 0.52171 0.6249 0.0
C1348 C 0.51126 0.47469 0.5292 0.0
C1349 C 0.52186 0.52304 0.67102 0.0
C1350 C 0.47441 0.46737 0.34417 0.0
C1351 C 0.47994 0.46854 0.39054 0.0
C1352 C 0.48355 0.51528 0.48705 0.0
C1353 C 0.50817 0.49773 0.60478 0.0
C1354 C 0.50245 0.49622 0.55531 0.0
C1355 C 0.48706 0.49248 0.41128 0.0
C1356 C 0.49243 0.49379 0.4609 0.0
H1357 H 0.51152 0.45873 0.6983 0.0
H1358 H 0.50045 0.45647 0.61791 0.0
H1359 H 0.48108 0.53317 0.55277 0.0
H1360 H 0.48439 0.53193 0.3183 0.0
H1361 H 0.49452 0.53388 0.399 0.0
C1362 C 0.01615 0.47293 0.83795 0.0
C1363 C 0.02368 0.49685 0.8179 0.0
C1364 C 0.00926 0.47189 0.884 0.0
C1365 C 0.9903 0.51465 0.98272 0.0
H1366 H 0.01287 0.45462 0.05336 0.0
C1367 C 0.9861 0.5143 0.17917 0.0
C1368 C 0.97631 0.4914 0.19977 0.0
C1369 C 0.99172 0.51466 0.13263 0.0
C1370 C 0.00623 0.47144 0.03407 0.0
H1371 H 0.02867 0.53867 0.83069 0.0
H1372 H 0.01758 0.53675 0.91057 0.0
H1373 H 0.02191 0.45569 0.97222 0.0
H1374 H 0.96561 0.45066 0.18764 0.0
H1375 H 0.97547 0.45127 0.10668 0.0
H1376 H 0.97503 0.53054 0.04484 0.0
C1377 C 0.01669 0.51873 0.89087 0.0
C1378 C 0.01132 0.47202 0.98737 0.0
C1379 C 0.02344 0.51977 0.84494 0.0
C1380 C 0.97287 0.46871 0.17282 0.0
C1381 C 0.97873 0.469 0.12644 0.0
C1382 C 0.98541 0.51414 0.02944 0.0
C1383 C 0.00971 0.49476 0.9113 0.0
C1384 C 0.0035 0.49368 0.96095 0.0
C1385 C 0.98799 0.49204 0.10559 0.0
C1386 C 0.99335 0.49257 0.05579 0.0
H1387 H 0.01621 0.45483 0.81838 0.0
H1388 H 0.00362 0.45311 0.89818 0.0
H1389 H 0.98348 0.53145 0.96361 0.0
H1390 H 0.98884 0.53215 0.19882 0.0
H1391 H -0.00091 0.53268 0.11781 0.0
loop_
_geom_bond_atom_site_label_1
_geom_bond_atom_site_label_2
_geom_bond_distance
_geom_bond_site_symmetry_2
_ccdc_geom_bond_type
Eu0 N29 2.601 . S
Eu0 N35 2.547 1_655 S
Eu0 O44 2.459 1_655 S
Eu0 O45 2.364 1_655 S
Eu0 O47 2.441 . S
Eu0 O48 2.280 1_645 S
Eu0 O52 2.346 1_545 S
Eu0 O55 2.385 . S
Eu0 C64 2.790 . S
C1 N2 1.365 1_655 S
C1 C4 1.405 . S
C1 C8 1.448 . S
N2 C1 1.365 1_455 S
N2 C5 1.319 . S
N2 Eu11 2.601 . S
C3 C5 1.397 . S
C3 C6 1.367 . S
C3 H23 0.931 . S
C4 C1 1.405 . S
C4 C6 1.403 1_655 S
C4 C10 1.439 . S
C5 N2 1.319 . S
C5 C3 1.397 . S
C5 H16 0.930 . S
C6 C3 1.367 . S
C6 C4 1.403 1_455 S
C6 H27 0.929 . S
C7 C8 1.430 . S
C7 C9 1.387 . S
C7 C13 1.404 . S
C8 C1 1.448 . S
C8 C7 1.430 . S
C8 N12 1.351 . S
C9 C7 1.387 . S
C9 C10 1.374 . S
C9 H24 0.931 . S
C10 C4 1.439 . S
C10 C9 1.374 . S
C10 H25 0.931 . S
Eu11 N2 2.601 . S
Eu11 N12 2.539 1_455 S
Eu11 O46 2.352 1_565 S
Eu11 O49 2.393 . S
Eu11 O50 2.457 1_455 S
Eu11 O51 2.359 1_455 S
Eu11 O53 2.446 . S
Eu11 O54 2.274 1_465 S
Eu11 C75 2.792 . S
N12 C8 1.351 . S
N12 Eu11 2.539 1_655 S
N12 C14 1.325 . S
C13 C7 1.404 . S
C13 C15 1.366 . S
C13 H21 0.930 . S
C14 N12 1.325 . S
C14 C15 1.416 . S
C14 H20 0.929 . S
C15 C13 1.366 . S
C15 C14 1.416 . S
C15 H17 0.930 . S
H16 C5 0.930 . S
H17 C15 0.930 . S
H18 C33 0.930 . S
H19 C40 0.930 . S
H20 C14 0.929 . S
H21 C13 0.930 . S
H22 C36 0.929 . S
H23 C3 0.931 . S
H24 C9 0.931 . S
H25 C10 0.931 . S
H26 C31 0.931 . S
H27 C6 0.929 . S
H28 C39 0.930 . S
N29 Eu0 2.601 . S
N29 C30 1.365 1_655 S
N29 C33 1.319 . S
C30 N29 1.365 1_455 S
C30 C32 1.405 . S
C30 C38 1.448 . S
C31 H26 0.931 . S
C31 C33 1.397 . S
C31 C34 1.367 . S
C32 C30 1.405 . S
C32 C34 1.403 1_455 S
C32 C65 1.439 . S
C33 H18 0.930 . S
C33 N29 1.319 . S
C33 C31 1.397 . S
C34 C31 1.367 . S
C34 C32 1.403 1_655 S
C34 H41 0.929 . S
N35 Eu0 2.547 1_455 S
N35 C36 1.325 . S
N35 C38 1.351 . S
C36 H22 0.929 . S
C36 N35 1.325 . S
C36 C40 1.416 . S
C37 C38 1.430 . S
C37 C39 1.404 . S
C37 C66 1.387 . S
C38 C30 1.448 . S
C38 N35 1.351 . S
C38 C37 1.430 . S
C39 H28 0.930 . S
C39 C37 1.404 . S
C39 C40 1.366 . S
C40 H19 0.930 . S
C40 C36 1.416 . S
C40 C39 1.366 . S
H41 C34 0.929 . S
H42 C65 0.931 . S
H43 C66 0.931 . S
O44 Eu0 2.459 1_455 S
O44 C64 1.252 1_455 S
O45 Eu0 2.364 1_455 S
O45 C56 1.249 . S
O46 Eu11 2.352 1_545 S
O46 C56 1.264 . S
O47 Eu0 2.441 . S
O47 C64 1.268 . S
O48 Eu0 2.280 1_465 S
O48 C63 1.255 . S
O49 Eu11 2.393 . S
O49 C63 1.257 . S
O50 Eu11 2.457 1_655 S
O50 C75 1.252 1_655 S
O51 Eu11 2.359 1_655 S
O51 C67 1.249 . S
O52 Eu0 2.346 1_565 S
O52 C67 1.264 . S
O53 Eu11 2.446 . S
O53 C75 1.268 . S
O54 Eu11 2.274 1_645 S
O54 C74 1.255 . S
O55 Eu0 2.385 . S
O55 C74 1.257 . S
C56 O45 1.249 . S
C56 O46 1.264 . S
C57 C60 1.382 . S
C57 C62 1.388 . S
C57 C64 1.506 . S
C58 C59 1.387 1_565 S
C58 C62 1.391 1_565 S
C59 C58 1.387 1_545 S
C59 C61 1.372 . S
C59 H76 0.931 . S
C60 C57 1.382 . S
C60 C61 1.390 . S
C60 H77 0.931 . S
C61 C59 1.372 . S
C61 C60 1.390 . S
C61 H78 0.929 . S
C62 C57 1.388 . S
C62 C58 1.391 1_545 S
C62 H79 0.932 1_645 S
C63 O48 1.255 . S
C63 O49 1.257 . S
C64 Eu0 2.790 . S
C64 O44 1.252 1_655 S
C64 O47 1.268 . S
C64 C57 1.506 . S
C65 C32 1.439 . S
C65 H42 0.931 . S
C65 C66 1.374 . S
C66 C37 1.387 . S
C66 H43 0.931 . S
C66 C65 1.374 . S
C67 O51 1.249 . S
C67 O52 1.264 . S
C68 C71 1.382 . S
C68 C72 1.388 1_565 S
C68 C75 1.506 . S
C69 C70 1.381 1_545 S
C69 C72 1.391 . S
C70 C69 1.381 1_565 S
C70 C73 1.372 . S
C70 H80 0.931 . S
C71 C68 1.382 . S
C71 C73 1.390 . S
C71 H81 0.931 . S
C72 C68 1.388 1_545 S
C72 C69 1.391 . S
C72 H82 0.932 1_455 S
C73 C70 1.372 . S
C73 C71 1.390 . S
C73 H83 0.929 . S
C74 O54 1.255 . S
C74 O55 1.257 . S
C75 Eu11 2.792 . S
C75 O50 1.252 1_455 S
C75 O53 1.268 . S
C75 C68 1.506 . S
H76 C59 0.931 . S
H77 C60 0.931 . S
H78 C61 0.929 . S
H79 C62 0.932 1_465 S
H80 C70 0.931 . S
H81 C71 0.931 . S
H82 C72 0.932 1_655 S
H83 C73 0.929 . S
Eu84 N113 2.600 . S
Eu84 N119 2.562 . S
Eu84 O128 2.462 . S
Eu84 O129 2.373 . S
Eu84 O131 2.432 . S
Eu84 O132 2.291 . S
Eu84 O136 2.335 . S
Eu84 O139 2.372 . S
Eu84 C148 2.787 . S
C85 N86 1.365 . S
C85 C88 1.405 . S
C85 C92 1.448 . S
N86 C85 1.365 . S
N86 C89 1.319 . S
N86 Eu95 2.600 . S
C87 C89 1.397 . S
C87 C90 1.367 . S
C87 H107 0.931 . S
C88 C85 1.405 . S
C88 C90 1.403 . S
C88 C94 1.439 . S
C89 N86 1.319 . S
C89 C87 1.397 . S
C89 H100 0.930 . S
C90 C87 1.367 . S
C90 C88 1.403 . S
C90 H111 0.929 . S
C91 C92 1.430 . S
C91 C93 1.387 . S
C91 C97 1.404 . S
C92 C85 1.448 . S
C92 C91 1.430 . S
C92 N96 1.351 . S
C93 C91 1.387 . S
C93 C94 1.374 . S
C93 H108 0.931 . S
C94 C88 1.439 . S
C94 C93 1.374 . S
C94 H109 0.931 . S
Eu95 N86 2.600 . S
Eu95 N96 2.562 . S
Eu95 O130 2.335 . S
Eu95 O133 2.372 . S
Eu95 O134 2.462 . S
Eu95 O135 2.373 . S
Eu95 O137 2.432 . S
Eu95 O138 2.291 . S
Eu95 C159 2.787 . S
N96 C92 1.351 . S
N96 Eu95 2.562 . S
N96 C98 1.325 . S
C97 C91 1.404 . S
C97 C99 1.366 . S
C97 H105 0.930 . S
C98 N96 1.325 . S
C98 C99 1.416 . S
C98 H104 0.929 . S
C99 C97 1.366 . S
C99 C98 1.416 . S
C99 H101 0.930 . S
H100 C89 0.930 . S
H101 C99 0.930 . S
H102 C117 0.930 . S
H103 C124 0.930 . S
H104 C98 0.929 . S
H105 C97 0.930 . S
H106 C120 0.929 . S
H107 C87 0.931 . S
H108 C93 0.931 . S
H109 C94 0.931 . S
H110 C115 0.931 . S
H111 C90 0.929 . S
H112 C123 0.930 . S
N113 Eu84 2.600 . S
N113 C114 1.365 . S
N113 C117 1.319 . S
C114 N113 1.365 . S
C114 C116 1.405 . S
C114 C122 1.448 . S
C115 H110 0.931 . S
C115 C117 1.397 . S
C115 C118 1.367 . S
C116 C114 1.405 . S
C116 C118 1.403 . S
C116 C149 1.439 . S
C117 H102 0.930 . S
C117 N113 1.319 . S
C117 C115 1.397 . S
C118 C115 1.367 . S
C118 C116 1.403 . S
C118 H125 0.929 . S
N119 Eu84 2.562 . S
N119 C120 1.325 . S
N119 C122 1.351 . S
C120 H106 0.929 . S
C120 N119 1.325 . S
C120 C124 1.416 . S
C121 C122 1.430 . S
C121 C123 1.404 . S
C121 C150 1.387 . S
C122 C114 1.448 . S
C122 N119 1.351 . S
C122 C121 1.430 . S
C123 H112 0.930 . S
C123 C121 1.404 . S
C123 C124 1.366 . S
C124 H103 0.930 . S
C124 C120 1.416 . S
C124 C123 1.366 . S
H125 C118 0.929 . S
H126 C149 0.931 . S
H127 C150 0.931 . S
O128 Eu84 2.462 . S
O128 C148 1.252 . S
O129 Eu84 2.373 . S
O129 C140 1.249 . S
O130 Eu95 2.335 . S
O130 C140 1.264 . S
O131 Eu84 2.432 . S
O131 C148 1.268 . S
O132 Eu84 2.291 . S
O132 C147 1.255 . S
O133 Eu95 2.372 . S
O133 C147 1.257 . S
O134 Eu95 2.462 . S
O134 C159 1.252 . S
O135 Eu95 2.373 . S
O135 C151 1.249 . S
O136 Eu84 2.335 . S
O136 C151 1.264 . S
O137 Eu95 2.432 . S
O137 C159 1.268 . S
O138 Eu95 2.291 . S
O138 C158 1.255 . S
O139 Eu84 2.372 . S
O139 C158 1.257 . S
C140 O129 1.249 . S
C140 O130 1.264 . S
C141 C144 1.382 . S
C141 C146 1.390 . S
C141 C148 1.506 . S
C142 C143 1.398 . S
C142 C146 1.392 1_554 S
C143 C142 1.398 . S
C143 C145 1.372 . S
C143 H160 0.931 . S
C144 C141 1.382 . S
C144 C145 1.390 1_556 S
C144 H161 0.931 . S
C145 C143 1.372 . S
C145 C144 1.390 1_554 S
C145 H162 0.929 . S
C146 C141 1.390 . S
C146 C142 1.392 1_556 S
C146 H163 0.930 . S
C147 O132 1.255 . S
C147 O133 1.257 . S
C148 Eu84 2.787 . S
C148 O128 1.252 . S
C148 O131 1.268 . S
C148 C141 1.506 . S
C149 C116 1.439 . S
C149 H126 0.931 . S
C149 C150 1.374 . S
C150 C121 1.387 . S
C150 H127 0.931 . S
C150 C149 1.374 . S
C151 O135 1.249 . S
C151 O136 1.264 . S
C152 C155 1.382 . S
C152 C156 1.390 . S
C152 C159 1.506 . S
C153 C154 1.398 . S
C153 C156 1.392 . S
C154 C153 1.398 . S
C154 C157 1.372 . S
C154 H164 0.931 . S
C155 C152 1.382 . S
C155 C157 1.390 . S
C155 H165 0.931 . S
C156 C152 1.390 . S
C156 C153 1.392 . S
C156 H166 0.930 . S
C157 C154 1.372 . S
C157 C155 1.390 . S
C157 H167 0.929 . S
C158 O138 1.255 . S
C158 O139 1.257 . S
C159 Eu95 2.787 . S
C159 O134 1.252 . S
C159 O137 1.268 . S
C159 C152 1.506 . S
H160 C143 0.931 . S
H161 C144 0.931 . S
H162 C145 0.929 . S
H163 C146 0.930 . S
H164 C154 0.931 . S
H165 C155 0.931 . S
H166 C156 0.930 . S
H167 C157 0.929 . S
Eu168 N197 2.600 . S
Eu168 N203 2.562 . S
Eu168 O212 2.462 . S
Eu168 O213 2.373 1_554 S
Eu168 O215 2.432 . S
Eu168 O216 2.291 1_565 S
Eu168 O220 2.335 1_565 S
Eu168 O223 2.372 . S
Eu168 C232 2.787 . S
C169 N170 1.365 . S
C169 C172 1.405 . S
C169 C176 1.448 . S
N170 C169 1.365 . S
N170 C173 1.319 . S
N170 Eu179 2.600 . S
C171 C173 1.397 . S
C171 C174 1.367 . S
C171 H191 0.931 . S
C172 C169 1.405 . S
C172 C174 1.403 . S
C172 C178 1.439 . S
C173 N170 1.319 . S
C173 C171 1.397 . S
C173 H184 0.930 . S
C174 C171 1.367 . S
C174 C172 1.403 . S
C174 H195 0.929 . S
C175 C176 1.430 . S
C175 C177 1.387 . S
C175 C181 1.404 . S
C176 C169 1.448 . S
C176 C175 1.430 . S
C176 N180 1.351 . S
C177 C175 1.387 . S
C177 C178 1.374 . S
C177 H192 0.931 . S
C178 C172 1.439 . S
C178 C177 1.374 . S
C178 H193 0.931 . S
Eu179 N170 2.600 . S
Eu179 N180 2.562 . S
Eu179 O214 2.335 1_545 S
Eu179 O217 2.372 . S
Eu179 O218 2.462 . S
Eu179 O219 2.373 1_556 S
Eu179 O221 2.432 . S
Eu179 O222 2.291 1_545 S
Eu179 C243 2.787 . S
N180 C176 1.351 . S
N180 Eu179 2.562 . S
N180 C182 1.325 . S
C181 C175 1.404 . S
C181 C183 1.366 . S
C181 H189 0.930 . S
C182 N180 1.325 . S
C182 C183 1.416 . S
C182 H188 0.929 . S
C183 C181 1.366 . S
C183 C182 1.416 . S
C183 H185 0.930 . S
H184 C173 0.930 . S
H185 C183 0.930 . S
H186 C201 0.930 . S
H187 C208 0.930 . S
H188 C182 0.929 . S
H189 C181 0.930 . S
H190 C204 0.929 . S
H191 C171 0.931 . S
H192 C177 0.931 . S
H193 C178 0.931 . S
H194 C199 0.931 . S
H195 C174 0.929 . S
H196 C207 0.930 . S
N197 Eu168 2.600 . S
N197 C198 1.365 . S
N197 C201 1.319 . S
C198 N197 1.365 . S
C198 C200 1.405 . S
C198 C206 1.448 . S
C199 H194 0.931 . S
C199 C201 1.397 . S
C199 C202 1.367 . S
C200 C198 1.405 . S
C200 C202 1.403 . S
C200 C233 1.439 . S
C201 H186 0.930 . S
C201 N197 1.319 . S
C201 C199 1.397 . S
C202 C199 1.367 . S
C202 C200 1.403 . S
C202 H209 0.929 . S
N203 Eu168 2.562 . S
N203 C204 1.325 . S
N203 C206 1.351 . S
C204 H190 0.929 . S
C204 N203 1.325 . S
C204 C208 1.416 . S
C205 C206 1.430 . S
C205 C207 1.404 . S
C205 C234 1.387 . S
C206 C198 1.448 . S
C206 N203 1.351 . S
C206 C205 1.430 . S
C207 H196 0.930 . S
C207 C205 1.404 . S
C207 C208 1.366 . S
C208 H187 0.930 . S
C208 C204 1.416 . S
C208 C207 1.366 . S
H209 C202 0.929 . S
H210 C233 0.931 . S
H211 C234 0.931 . S
O212 Eu168 2.462 . S
O212 C232 1.252 . S
O213 Eu168 2.373 1_556 S
O213 C224 1.249 . S
O214 Eu179 2.335 1_565 S
O214 C224 1.264 . S
O215 Eu168 2.432 . S
O215 C232 1.268 . S
O216 Eu168 2.291 1_545 S
O216 C231 1.255 . S
O217 Eu179 2.372 . S
O217 C231 1.257 1_556 S
O218 Eu179 2.462 . S
O218 C243 1.252 . S
O219 Eu179 2.373 1_554 S
O219 C235 1.249 . S
O220 Eu168 2.335 1_545 S
O220 C235 1.264 . S
O221 Eu179 2.432 . S
O221 C243 1.268 . S
O222 Eu179 2.291 1_565 S
O222 C242 1.255 . S
O223 Eu168 2.372 . S
O223 C242 1.257 1_554 S
C224 O213 1.249 . S
C224 O214 1.264 . S
C225 C228 1.382 . S
C225 C230 1.390 1_565 S
C225 C232 1.506 . S
C226 C227 1.398 1_545 S
C226 C230 1.392 . S
C227 C226 1.398 1_565 S
C227 C229 1.372 . S
C227 H244 0.931 . S
C228 C225 1.382 . S
C228 C229 1.390 . S
C228 H245 0.931 . S
C229 C227 1.372 . S
C229 C228 1.390 . S
C229 H246 0.929 . S
C230 C225 1.390 1_545 S
C230 C226 1.392 . S
C230 H247 0.930 . S
C231 O216 1.255 . S
C231 O217 1.257 1_554 S
C232 Eu168 2.787 . S
C232 O212 1.252 . S
C232 O215 1.268 . S
C232 C225 1.506 . S
C233 C200 1.439 . S
C233 H210 0.931 . S
C233 C234 1.374 . S
C234 C205 1.387 . S
C234 H211 0.931 . S
C234 C233 1.374 . S
C235 O219 1.249 . S
C235 O220 1.264 . S
C236 C239 1.382 . S
C236 C240 1.363 1_545 S
C236 C243 1.506 . S
C237 C238 1.398 1_565 S
C237 C240 1.393 . S
C238 C237 1.398 1_545 S
C238 C241 1.372 . S
C238 H248 0.931 . S
C239 C236 1.382 . S
C239 C241 1.390 . S
C239 H249 0.931 . S
C240 C236 1.363 1_565 S
C240 C237 1.393 . S
C240 H250 0.957 . S
C241 C238 1.372 . S
C241 C239 1.390 . S
C241 H251 0.929 . S
C242 O222 1.255 . S
C242 O223 1.257 1_556 S
C243 Eu179 2.787 . S
C243 O218 1.252 . S
C243 O221 1.268 . S
C243 C236 1.506 . S
H244 C227 0.931 . S
H245 C228 0.931 . S
H246 C229 0.929 . S
H247 C230 0.930 . S
H248 C238 0.931 . S
H249 C239 0.931 . S
H250 C240 0.957 . S
H251 C241 0.929 . S
Eu252 N281 2.600 . S
Eu252 N287 2.562 . S
Eu252 O296 2.462 . S
Eu252 O297 2.373 . S
Eu252 O299 2.432 . S
Eu252 O300 2.291 . S
Eu252 O304 2.335 . S
Eu252 O307 2.372 . S
Eu252 C316 2.787 . S
C253 N254 1.365 . S
C253 C256 1.405 . S
C253 C260 1.448 . S
N254 C253 1.365 . S
N254 C257 1.319 . S
N254 Eu263 2.600 . S
C255 C257 1.397 . S
C255 C258 1.367 . S
C255 H275 0.931 . S
C256 C253 1.405 . S
C256 C258 1.403 . S
C256 C262 1.439 . S
C257 N254 1.319 . S
C257 C255 1.397 . S
C257 H268 0.930 . S
C258 C255 1.367 . S
C258 C256 1.403 . S
C258 H279 0.929 . S
C259 C260 1.430 . S
C259 C261 1.387 . S
C259 C265 1.404 . S
C260 C253 1.448 . S
C260 C259 1.430 . S
C260 N264 1.351 . S
C261 C259 1.387 . S
C261 C262 1.374 . S
C261 H276 0.931 . S
C262 C256 1.439 . S
C262 C261 1.374 . S
C262 H277 0.931 . S
Eu263 N254 2.600 . S
Eu263 N264 2.562 . S
Eu263 O298 2.335 . S
Eu263 O301 2.372 . S
Eu263 O302 2.462 . S
Eu263 O303 2.373 . S
Eu263 O305 2.432 . S
Eu263 O306 2.291 . S
Eu263 C327 2.787 . S
N264 C260 1.351 . S
N264 Eu263 2.562 . S
N264 C266 1.325 . S
C265 C259 1.404 . S
C265 C267 1.366 . S
C265 H273 0.930 . S
C266 N264 1.325 . S
C266 C267 1.416 . S
C266 H272 0.929 . S
C267 C265 1.366 . S
C267 C266 1.416 . S
C267 H269 0.930 . S
H268 C257 0.930 . S
H269 C267 0.930 . S
H270 C285 0.930 . S
H271 C292 0.930 . S
H272 C266 0.929 . S
H273 C265 0.930 . S
H274 C288 0.929 . S
H275 C255 0.931 . S
H276 C261 0.931 . S
H277 C262 0.931 . S
H278 C283 0.931 . S
H279 C258 0.929 . S
H280 C291 0.930 . S
N281 Eu252 2.600 . S
N281 C282 1.365 . S
N281 C285 1.319 . S
C282 N281 1.365 . S
C282 C284 1.405 . S
C282 C290 1.448 . S
C283 H278 0.931 . S
C283 C285 1.397 . S
C283 C286 1.367 . S
C284 C282 1.405 . S
C284 C286 1.403 . S
C284 C317 1.439 . S
C285 H270 0.930 . S
C285 N281 1.319 . S
C285 C283 1.397 . S
C286 C283 1.367 . S
C286 C284 1.403 . S
C286 H293 0.929 . S
N287 Eu252 2.562 . S
N287 C288 1.325 . S
N287 C290 1.351 . S
C288 H274 0.929 . S
C288 N287 1.325 . S
C288 C292 1.416 . S
C289 C290 1.430 . S
C289 C291 1.404 . S
C289 C318 1.387 . S
C290 C282 1.448 . S
C290 N287 1.351 . S
C290 C289 1.430 . S
C291 H280 0.930 . S
C291 C289 1.404 . S
C291 C292 1.366 . S
C292 H271 0.930 . S
C292 C288 1.416 . S
C292 C291 1.366 . S
H293 C286 0.929 . S
H294 C317 0.931 . S
H295 C318 0.931 . S
O296 Eu252 2.462 . S
O296 C316 1.252 . S
O297 Eu252 2.373 . S
O297 C308 1.249 . S
O298 Eu263 2.335 . S
O298 C308 1.264 . S
O299 Eu252 2.432 . S
O299 C316 1.268 . S
O300 Eu252 2.291 . S
O300 C315 1.255 . S
O301 Eu263 2.372 . S
O301 C315 1.257 . S
O302 Eu263 2.462 . S
O302 C327 1.252 . S
O303 Eu263 2.373 . S
O303 C319 1.249 . S
O304 Eu252 2.335 . S
O304 C319 1.264 . S
O305 Eu263 2.432 . S
O305 C327 1.268 . S
O306 Eu263 2.291 . S
O306 C326 1.255 . S
O307 Eu252 2.372 . S
O307 C326 1.257 . S
C308 O297 1.249 . S
C308 O298 1.264 . S
C309 C312 1.382 . S
C309 C314 1.390 . S
C309 C316 1.506 . S
C310 C311 1.398 . S
C310 C314 1.392 1_556 S
C311 C310 1.398 . S
C311 C313 1.372 . S
C311 H328 0.931 . S
C312 C309 1.382 . S
C312 C313 1.390 1_554 S
C312 H329 0.931 . S
C313 C311 1.372 . S
C313 C312 1.390 1_556 S
C313 H330 0.929 . S
C314 C309 1.390 . S
C314 C310 1.392 1_554 S
C314 H331 0.930 . S
C315 O300 1.255 . S
C315 O301 1.257 . S
C316 Eu252 2.787 . S
C316 O296 1.252 . S
C316 O299 1.268 . S
C316 C309 1.506 . S
C317 C284 1.439 . S
C317 H294 0.931 . S
C317 C318 1.374 . S
C318 C289 1.387 . S
C318 H295 0.931 . S
C318 C317 1.374 . S
C319 O303 1.249 . S
C319 O304 1.264 . S
C320 C323 1.382 . S
C320 C324 1.390 . S
C320 C327 1.506 . S
C321 C322 1.398 . S
C321 C324 1.392 . S
C322 C321 1.398 . S
C322 C325 1.372 . S
C322 H332 0.931 . S
C323 C320 1.382 . S
C323 C325 1.390 . S
C323 H333 0.931 . S
C324 C320 1.390 . S
C324 C321 1.392 . S
C324 H334 0.930 . S
C325 C322 1.372 . S
C325 C323 1.390 . S
C325 H335 0.929 . S
C326 O306 1.255 . S
C326 O307 1.257 . S
C327 Eu263 2.787 . S
C327 O302 1.252 . S
C327 O305 1.268 . S
C327 C320 1.506 . S
H328 C311 0.931 . S
H329 C312 0.931 . S
H330 C313 0.929 . S
H331 C314 0.930 . S
H332 C322 0.931 . S
H333 C323 0.931 . S
H334 C324 0.930 . S
H335 C325 0.929 . S
Eu336 N365 2.600 . S
Eu336 N371 2.562 . S
Eu336 O380 2.462 . S
Eu336 O381 2.373 . S
Eu336 O383 2.432 . S
Eu336 O384 2.291 . S
Eu336 O388 2.335 . S
Eu336 O391 2.372 . S
Eu336 C400 2.787 . S
C337 N338 1.365 . S
C337 C340 1.405 . S
C337 C344 1.448 . S
N338 C337 1.365 . S
N338 C341 1.319 . S
N338 Eu347 2.600 . S
C339 C341 1.397 . S
C339 C342 1.367 . S
C339 H359 0.931 . S
C340 C337 1.405 . S
C340 C342 1.403 . S
C340 C346 1.439 . S
C341 N338 1.319 . S
C341 C339 1.397 . S
C341 H352 0.930 . S
C342 C339 1.367 . S
C342 C340 1.403 . S
C342 H363 0.929 . S
C343 C344 1.430 . S
C343 C345 1.387 . S
C343 C349 1.404 . S
C344 C337 1.448 . S
C344 C343 1.430 . S
C344 N348 1.351 . S
C345 C343 1.387 . S
C345 C346 1.374 . S
C345 H360 0.931 . S
C346 C340 1.439 . S
C346 C345 1.374 . S
C346 H361 0.931 . S
Eu347 N338 2.600 . S
Eu347 N348 2.562 . S
Eu347 O382 2.335 . S
Eu347 O385 2.372 . S
Eu347 O386 2.462 . S
Eu347 O387 2.373 . S
Eu347 O389 2.432 . S
Eu347 O390 2.291 . S
Eu347 C411 2.787 . S
N348 C344 1.351 . S
N348 Eu347 2.562 . S
N348 C350 1.325 . S
C349 C343 1.404 . S
C349 C351 1.366 . S
C349 H357 0.930 . S
C350 N348 1.325 . S
C350 C351 1.416 . S
C350 H356 0.929 . S
C351 C349 1.366 . S
C351 C350 1.416 . S
C351 H353 0.930 . S
H352 C341 0.930 . S
H353 C351 0.930 . S
H354 C369 0.930 . S
H355 C376 0.930 . S
H356 C350 0.929 . S
H357 C349 0.930 . S
H358 C372 0.929 . S
H359 C339 0.931 . S
H360 C345 0.931 . S
H361 C346 0.931 . S
H362 C367 0.931 . S
H363 C342 0.929 . S
H364 C375 0.930 . S
N365 Eu336 2.600 . S
N365 C366 1.365 . S
N365 C369 1.319 . S
C366 N365 1.365 . S
C366 C368 1.405 . S
C366 C374 1.448 . S
C367 H362 0.931 . S
C367 C369 1.397 . S
C367 C370 1.367 . S
C368 C366 1.405 . S
C368 C370 1.403 . S
C368 C401 1.439 . S
C369 H354 0.930 . S
C369 N365 1.319 . S
C369 C367 1.397 . S
C370 C367 1.367 . S
C370 C368 1.403 . S
C370 H377 0.929 . S
N371 Eu336 2.562 . S
N371 C372 1.325 . S
N371 C374 1.351 . S
C372 H358 0.929 . S
C372 N371 1.325 . S
C372 C376 1.416 . S
C373 C374 1.430 . S
C373 C375 1.404 . S
C373 C402 1.387 . S
C374 C366 1.448 . S
C374 N371 1.351 . S
C374 C373 1.430 . S
C375 H364 0.930 . S
C375 C373 1.404 . S
C375 C376 1.366 . S
C376 H355 0.930 . S
C376 C372 1.416 . S
C376 C375 1.366 . S
H377 C370 0.929 . S
H378 C401 0.931 . S
H379 C402 0.931 . S
O380 Eu336 2.462 . S
O380 C400 1.252 . S
O381 Eu336 2.373 . S
O381 C392 1.249 . S
O382 Eu347 2.335 . S
O382 C392 1.264 . S
O383 Eu336 2.432 . S
O383 C400 1.268 . S
O384 Eu336 2.291 . S
O384 C399 1.255 . S
O385 Eu347 2.372 . S
O385 C399 1.257 . S
O386 Eu347 2.462 . S
O386 C411 1.252 . S
O387 Eu347 2.373 . S
O387 C403 1.249 . S
O388 Eu336 2.335 . S
O388 C403 1.264 . S
O389 Eu347 2.432 . S
O389 C411 1.268 . S
O390 Eu347 2.291 . S
O390 C410 1.255 . S
O391 Eu336 2.372 . S
O391 C410 1.257 . S
C392 O381 1.249 . S
C392 O382 1.264 . S
C393 C396 1.382 . S
C393 C398 1.390 . S
C393 C400 1.506 . S
C394 C395 1.398 . S
C394 C398 1.392 . S
C395 C394 1.398 . S
C395 C397 1.372 . S
C395 H412 0.931 . S
C396 C393 1.382 . S
C396 C397 1.390 . S
C396 H413 0.931 . S
C397 C395 1.372 . S
C397 C396 1.390 . S
C397 H414 0.929 . S
C398 C393 1.390 . S
C398 C394 1.392 . S
C398 H415 0.930 . S
C399 O384 1.255 . S
C399 O385 1.257 . S
C400 Eu336 2.787 . S
C400 O380 1.252 . S
C400 O383 1.268 . S
C400 C393 1.506 . S
C401 C368 1.439 . S
C401 H378 0.931 . S
C401 C402 1.374 . S
C402 C373 1.387 . S
C402 H379 0.931 . S
C402 C401 1.374 . S
C403 O387 1.249 . S
C403 O388 1.264 . S
C404 C407 1.382 . S
C404 C408 1.390 . S
C404 C411 1.506 . S
C405 C406 1.398 . S
C405 C408 1.392 1_556 S
C406 C405 1.398 . S
C406 C409 1.372 . S
C406 H416 0.931 . S
C407 C404 1.382 . S
C407 C409 1.390 1_554 S
C407 H417 0.931 . S
C408 C404 1.390 . S
C408 C405 1.392 1_554 S
C408 H418 0.930 . S
C409 C406 1.372 . S
C409 C407 1.390 1_556 S
C409 H419 0.929 . S
C410 O390 1.255 . S
C410 O391 1.257 . S
C411 Eu347 2.787 . S
C411 O386 1.252 . S
C411 O389 1.268 . S
C411 C404 1.506 . S
H412 C395 0.931 . S
H413 C396 0.931 . S
H414 C397 0.929 . S
H415 C398 0.930 . S
H416 C406 0.931 . S
H417 C407 0.931 . S
H418 C408 0.930 . S
H419 C409 0.929 . S
Eu420 N449 2.600 . S
Eu420 N455 2.562 . S
Eu420 O464 2.462 . S
Eu420 O465 2.373 . S
Eu420 O467 2.432 . S
Eu420 O468 2.291 . S
Eu420 O472 2.335 . S
Eu420 O475 2.372 . S
Eu420 C484 2.787 . S
C421 N422 1.365 . S
C421 C424 1.405 . S
C421 C428 1.448 . S
N422 C421 1.365 . S
N422 C425 1.319 . S
N422 Eu431 2.600 . S
C423 C425 1.397 . S
C423 C426 1.367 . S
C423 H443 0.931 . S
C424 C421 1.405 . S
C424 C426 1.403 . S
C424 C430 1.439 . S
C425 N422 1.319 . S
C425 C423 1.397 . S
C425 H436 0.930 . S
C426 C423 1.367 . S
C426 C424 1.403 . S
C426 H447 0.929 . S
C427 C428 1.430 . S
C427 C429 1.387 . S
C427 C433 1.404 . S
C428 C421 1.448 . S
C428 C427 1.430 . S
C428 N432 1.351 . S
C429 C427 1.387 . S
C429 C430 1.374 . S
C429 H444 0.931 . S
C430 C424 1.439 . S
C430 C429 1.374 . S
C430 H445 0.931 . S
Eu431 N422 2.600 . S
Eu431 N432 2.562 . S
Eu431 O466 2.335 . S
Eu431 O469 2.372 . S
Eu431 O470 2.462 . S
Eu431 O471 2.373 . S
Eu431 O473 2.432 . S
Eu431 O474 2.291 . S
Eu431 C495 2.787 . S
N432 C428 1.351 . S
N432 Eu431 2.562 . S
N432 C434 1.325 . S
C433 C427 1.404 . S
C433 C435 1.366 . S
C433 H441 0.930 . S
C434 N432 1.325 . S
C434 C435 1.416 . S
C434 H440 0.929 . S
C435 C433 1.366 . S
C435 C434 1.416 . S
C435 H437 0.930 . S
H436 C425 0.930 . S
H437 C435 0.930 . S
H438 C453 0.930 . S
H439 C460 0.930 . S
H440 C434 0.929 . S
H441 C433 0.930 . S
H442 C456 0.929 . S
H443 C423 0.931 . S
H444 C429 0.931 . S
H445 C430 0.931 . S
H446 C451 0.931 . S
H447 C426 0.929 . S
H448 C459 0.930 . S
N449 Eu420 2.600 . S
N449 C450 1.365 . S
N449 C453 1.319 . S
C450 N449 1.365 . S
C450 C452 1.405 . S
C450 C458 1.448 . S
C451 H446 0.931 . S
C451 C453 1.397 . S
C451 C454 1.367 . S
C452 C450 1.405 . S
C452 C454 1.403 . S
C452 C485 1.439 . S
C453 H438 0.930 . S
C453 N449 1.319 . S
C453 C451 1.397 . S
C454 C451 1.367 . S
C454 C452 1.403 . S
C454 H461 0.929 . S
N455 Eu420 2.562 . S
N455 C456 1.325 . S
N455 C458 1.351 . S
C456 H442 0.929 . S
C456 N455 1.325 . S
C456 C460 1.416 . S
C457 C458 1.430 . S
C457 C459 1.404 . S
C457 C486 1.387 . S
C458 C450 1.448 . S
C458 N455 1.351 . S
C458 C457 1.430 . S
C459 H448 0.930 . S
C459 C457 1.404 . S
C459 C460 1.366 . S
C460 H439 0.930 . S
C460 C456 1.416 . S
C460 C459 1.366 . S
H461 C454 0.929 . S
H462 C485 0.931 . S
H463 C486 0.931 . S
O464 Eu420 2.462 . S
O464 C484 1.252 . S
O465 Eu420 2.373 . S
O465 C476 1.249 . S
O466 Eu431 2.335 . S
O466 C476 1.264 . S
O467 Eu420 2.432 . S
O467 C484 1.268 . S
O468 Eu420 2.291 . S
O468 C483 1.255 . S
O469 Eu431 2.372 . S
O469 C483 1.257 . S
O470 Eu431 2.462 . S
O470 C495 1.252 . S
O471 Eu431 2.373 . S
O471 C487 1.249 . S
O472 Eu420 2.335 . S
O472 C487 1.264 . S
O473 Eu431 2.432 . S
O473 C495 1.268 . S
O474 Eu431 2.291 . S
O474 C494 1.255 . S
O475 Eu420 2.372 . S
O475 C494 1.257 . S
C476 O465 1.249 . S
C476 O466 1.264 . S
C477 C480 1.382 . S
C477 C482 1.390 . S
C477 C484 1.506 . S
C478 C479 1.398 . S
C478 C482 1.392 . S
C479 C478 1.398 . S
C479 C481 1.372 . S
C479 H496 0.931 . S
C480 C477 1.382 . S
C480 C481 1.390 . S
C480 H497 0.931 . S
C481 C479 1.372 . S
C481 C480 1.390 . S
C481 H498 0.929 . S
C482 C477 1.390 . S
C482 C478 1.392 . S
C482 H499 0.930 . S
C483 O468 1.255 . S
C483 O469 1.257 . S
C484 Eu420 2.787 . S
C484 O464 1.252 . S
C484 O467 1.268 . S
C484 C477 1.506 . S
C485 C452 1.439 . S
C485 H462 0.931 . S
C485 C486 1.374 . S
C486 C457 1.387 . S
C486 H463 0.931 . S
C486 C485 1.374 . S
C487 O471 1.249 . S
C487 O472 1.264 . S
C488 C491 1.382 . S
C488 C492 1.390 . S
C488 C495 1.506 . S
C489 C490 1.398 . S
C489 C492 1.392 1_554 S
C490 C489 1.398 . S
C490 C493 1.372 . S
C490 H500 0.931 . S
C491 C488 1.382 . S
C491 C493 1.390 1_556 S
C491 H501 0.931 . S
C492 C488 1.390 . S
C492 C489 1.392 1_556 S
C492 H502 0.930 . S
C493 C490 1.372 . S
C493 C491 1.390 1_554 S
C493 H503 0.929 . S
C494 O474 1.255 . S
C494 O475 1.257 . S
C495 Eu431 2.787 . S
C495 O470 1.252 . S
C495 O473 1.268 . S
C495 C488 1.506 . S
H496 C479 0.931 . S
H497 C480 0.931 . S
H498 C481 0.929 . S
H499 C482 0.930 . S
H500 C490 0.931 . S
H501 C491 0.931 . S
H502 C492 0.930 . S
H503 C493 0.929 . S
Eu504 N533 2.600 . S
Eu504 N539 2.562 . S
Eu504 O548 2.462 . S
Eu504 O549 2.373 1_554 S
Eu504 O551 2.432 . S
Eu504 O552 2.291 . S
Eu504 O556 2.335 . S
Eu504 O559 2.372 . S
Eu504 C568 2.787 . S
C505 N506 1.365 . S
C505 C508 1.405 . S
C505 C512 1.448 . S
N506 C505 1.365 . S
N506 C509 1.319 . S
N506 Eu515 2.600 . S
C507 C509 1.397 . S
C507 C510 1.367 . S
C507 H527 0.931 . S
C508 C505 1.405 . S
C508 C510 1.403 . S
C508 C514 1.439 . S
C509 N506 1.319 . S
C509 C507 1.397 . S
C509 H520 0.930 . S
C510 C507 1.367 . S
C510 C508 1.403 . S
C510 H531 0.929 . S
C511 C512 1.430 . S
C511 C513 1.387 . S
C511 C517 1.404 . S
C512 C505 1.448 . S
C512 C511 1.430 . S
C512 N516 1.351 . S
C513 C511 1.387 . S
C513 C514 1.374 . S
C513 H528 0.931 . S
C514 C508 1.439 . S
C514 C513 1.374 . S
C514 H529 0.931 . S
Eu515 N506 2.600 . S
Eu515 N516 2.562 . S
Eu515 O550 2.335 . S
Eu515 O553 2.372 . S
Eu515 O554 2.462 . S
Eu515 O555 2.373 1_556 S
Eu515 O557 2.432 . S
Eu515 O558 2.291 . S
Eu515 C579 2.787 . S
N516 C512 1.351 . S
N516 Eu515 2.562 . S
N516 C518 1.325 . S
C517 C511 1.404 . S
C517 C519 1.366 . S
C517 H525 0.930 . S
C518 N516 1.325 . S
C518 C519 1.416 . S
C518 H524 0.929 . S
C519 C517 1.366 . S
C519 C518 1.416 . S
C519 H521 0.930 . S
H520 C509 0.930 . S
H521 C519 0.930 . S
H522 C537 0.930 . S
H523 C544 0.930 . S
H524 C518 0.929 . S
H525 C517 0.930 . S
H526 C540 0.929 . S
H527 C507 0.931 . S
H528 C513 0.931 . S
H529 C514 0.931 . S
H530 C535 0.931 . S
H531 C510 0.929 . S
H532 C543 0.930 . S
N533 Eu504 2.600 . S
N533 C534 1.365 . S
N533 C537 1.319 . S
C534 N533 1.365 . S
C534 C536 1.405 . S
C534 C542 1.448 . S
C535 H530 0.931 . S
C535 C537 1.397 . S
C535 C538 1.367 . S
C536 C534 1.405 . S
C536 C538 1.403 . S
C536 C569 1.439 . S
C537 H522 0.930 . S
C537 N533 1.319 . S
C537 C535 1.397 . S
C538 C535 1.367 . S
C538 C536 1.403 . S
C538 H545 0.929 . S
N539 Eu504 2.562 . S
N539 C540 1.325 . S
N539 C542 1.351 . S
C540 H526 0.929 . S
C540 N539 1.325 . S
C540 C544 1.416 . S
C541 C542 1.430 . S
C541 C543 1.404 . S
C541 C570 1.387 . S
C542 C534 1.448 . S
C542 N539 1.351 . S
C542 C541 1.430 . S
C543 H532 0.930 . S
C543 C541 1.404 . S
C543 C544 1.366 . S
C544 H523 0.930 . S
C544 C540 1.416 . S
C544 C543 1.366 . S
H545 C538 0.929 . S
H546 C569 0.931 . S
H547 C570 0.931 . S
O548 Eu504 2.462 . S
O548 C568 1.252 . S
O549 Eu504 2.373 1_556 S
O549 C560 1.249 . S
O550 Eu515 2.335 . S
O550 C560 1.264 . S
O551 Eu504 2.432 . S
O551 C568 1.268 . S
O552 Eu504 2.291 . S
O552 C567 1.255 . S
O553 Eu515 2.372 . S
O553 C567 1.257 1_556 S
O554 Eu515 2.462 . S
O554 C579 1.252 . S
O555 Eu515 2.373 1_554 S
O555 C571 1.249 . S
O556 Eu504 2.335 . S
O556 C571 1.264 . S
O557 Eu515 2.432 . S
O557 C579 1.268 . S
O558 Eu515 2.291 . S
O558 C578 1.255 . S
O559 Eu504 2.372 . S
O559 C578 1.257 1_554 S
C560 O549 1.249 . S
C560 O550 1.264 . S
C561 C564 1.382 . S
C561 C566 1.390 . S
C561 C568 1.506 . S
C562 C563 1.398 . S
C562 C566 1.392 . S
C563 C562 1.398 . S
C563 C565 1.372 . S
C563 H580 0.931 . S
C564 C561 1.382 . S
C564 C565 1.390 . S
C564 H581 0.931 . S
C565 C563 1.372 . S
C565 C564 1.390 . S
C565 H582 0.929 . S
C566 C561 1.390 . S
C566 C562 1.392 . S
C566 H583 0.930 . S
C567 O552 1.255 . S
C567 O553 1.257 1_554 S
C568 Eu504 2.787 . S
C568 O548 1.252 . S
C568 O551 1.268 . S
C568 C561 1.506 . S
C569 C536 1.439 . S
C569 H546 0.931 . S
C569 C570 1.374 . S
C570 C541 1.387 . S
C570 H547 0.931 . S
C570 C569 1.374 . S
C571 O555 1.249 . S
C571 O556 1.264 . S
C572 C575 1.382 . S
C572 C576 1.390 . S
C572 C579 1.506 . S
C573 C574 1.398 . S
C573 C576 1.392 . S
C574 C573 1.398 . S
C574 C577 1.372 . S
C574 H584 0.931 . S
C575 C572 1.382 . S
C575 C577 1.390 . S
C575 H585 0.931 . S
C576 C572 1.390 . S
C576 C573 1.392 . S
C576 H586 0.930 . S
C577 C574 1.372 . S
C577 C575 1.390 . S
C577 H587 0.929 . S
C578 O558 1.255 . S
C578 O559 1.257 1_556 S
C579 Eu515 2.787 . S
C579 O554 1.252 . S
C579 O557 1.268 . S
C579 C572 1.506 . S
H580 C563 0.931 . S
H581 C564 0.931 . S
H582 C565 0.929 . S
H583 C566 0.930 . S
H584 C574 0.931 . S
H585 C575 0.931 . S
H586 C576 0.930 . S
H587 C577 0.929 . S
Eu588 N617 2.601 . S
Eu588 N623 2.539 1_455 S
Eu588 O632 2.457 1_455 S
Eu588 O633 2.359 1_455 S
Eu588 O635 2.446 . S
Eu588 O636 2.274 1_455 S
Eu588 O640 2.352 . S
Eu588 O643 2.392 . S
Eu588 C652 2.792 . S
C589 N590 1.365 1_455 S
C589 C592 1.405 . S
C589 C596 1.448 . S
N590 C589 1.365 1_655 S
N590 C593 1.319 . S
N590 Eu599 2.601 . S
C591 C593 1.397 . S
C591 C594 1.367 . S
C591 H611 0.931 . S
C592 C589 1.405 . S
C592 C594 1.403 1_455 S
C592 C598 1.439 . S
C593 N590 1.319 . S
C593 C591 1.397 . S
C593 H604 0.930 . S
C594 C591 1.367 . S
C594 C592 1.403 1_655 S
C594 H615 0.929 . S
C595 C596 1.430 . S
C595 C597 1.387 . S
C595 C601 1.404 . S
C596 C589 1.448 . S
C596 C595 1.430 . S
C596 N600 1.351 . S
C597 C595 1.387 . S
C597 C598 1.374 . S
C597 H612 0.931 . S
C598 C592 1.439 . S
C598 C597 1.374 . S
C598 H613 0.931 . S
Eu599 N590 2.601 . S
Eu599 N600 2.548 1_655 S
Eu599 O634 2.346 . S
Eu599 O637 2.385 . S
Eu599 O638 2.459 1_655 S
Eu599 O639 2.364 1_655 S
Eu599 O641 2.441 . S
Eu599 O642 2.280 1_655 S
Eu599 C663 2.790 . S
N600 C596 1.351 . S
N600 Eu599 2.548 1_455 S
N600 C602 1.325 . S
C601 C595 1.404 . S
C601 C603 1.366 . S
C601 H609 0.930 . S
C602 N600 1.325 . S
C602 C603 1.416 . S
C602 H608 0.929 . S
C603 C601 1.366 . S
C603 C602 1.416 . S
C603 H605 0.930 . S
H604 C593 0.930 . S
H605 C603 0.930 . S
H606 C621 0.930 . S
H607 C628 0.930 . S
H608 C602 0.929 . S
H609 C601 0.930 . S
H610 C624 0.929 . S
H611 C591 0.931 . S
H612 C597 0.931 . S
H613 C598 0.931 . S
H614 C619 0.931 . S
H615 C594 0.929 . S
H616 C627 0.930 . S
N617 Eu588 2.601 . S
N617 C618 1.365 1_455 S
N617 C621 1.319 . S
C618 N617 1.365 1_655 S
C618 C620 1.405 . S
C618 C626 1.448 . S
C619 H614 0.931 . S
C619 C621 1.397 . S
C619 C622 1.367 . S
C620 C618 1.405 . S
C620 C622 1.403 1_655 S
C620 C653 1.439 . S
C621 H606 0.930 . S
C621 N617 1.319 . S
C621 C619 1.397 . S
C622 C619 1.367 . S
C622 C620 1.403 1_455 S
C622 H629 0.929 . S
N623 Eu588 2.539 1_655 S
N623 C624 1.325 . S
N623 C626 1.351 . S
C624 H610 0.929 . S
C624 N623 1.325 . S
C624 C628 1.416 . S
C625 C626 1.430 . S
C625 C627 1.404 . S
C625 C654 1.387 . S
C626 C618 1.448 . S
C626 N623 1.351 . S
C626 C625 1.430 . S
C627 H616 0.930 . S
C627 C625 1.404 . S
C627 C628 1.366 . S
C628 H607 0.930 . S
C628 C624 1.416 . S
C628 C627 1.366 . S
H629 C622 0.929 . S
H630 C653 0.931 . S
H631 C654 0.931 . S
O632 Eu588 2.457 1_655 S
O632 C652 1.252 1_655 S
O633 Eu588 2.359 1_655 S
O633 C644 1.249 . S
O634 Eu599 2.346 . S
O634 C644 1.264 . S
O635 Eu588 2.446 . S
O635 C652 1.268 . S
O636 Eu588 2.274 1_655 S
O636 C651 1.255 . S
O637 Eu599 2.385 . S
O637 C651 1.257 . S
O638 Eu599 2.459 1_455 S
O638 C663 1.252 1_455 S
O639 Eu599 2.364 1_455 S
O639 C655 1.249 . S
O640 Eu588 2.352 . S
O640 C655 1.264 . S
O641 Eu599 2.441 . S
O641 C663 1.268 . S
O642 Eu599 2.280 1_455 S
O642 C662 1.255 . S
O643 Eu588 2.392 . S
O643 C662 1.257 . S
C644 O633 1.249 . S
C644 O634 1.264 . S
C645 C648 1.382 . S
C645 C650 1.390 . S
C645 C652 1.506 . S
C646 C647 1.398 . S
C646 C650 1.392 . S
C647 C646 1.398 . S
C647 C649 1.372 . S
C647 H664 0.931 . S
C648 C645 1.382 . S
C648 C649 1.390 . S
C648 H665 0.931 . S
C649 C647 1.372 . S
C649 C648 1.390 . S
C649 H666 0.929 . S
C650 C645 1.390 . S
C650 C646 1.392 . S
C650 H667 0.930 1_455 S
C651 O636 1.255 . S
C651 O637 1.257 . S
C652 Eu588 2.792 . S
C652 O632 1.252 1_455 S
C652 O635 1.268 . S
C652 C645 1.506 . S
C653 C620 1.439 . S
C653 H630 0.931 . S
C653 C654 1.374 . S
C654 C625 1.387 . S
C654 H631 0.931 . S
C654 C653 1.374 . S
C655 O639 1.249 . S
C655 O640 1.264 . S
C656 C659 1.382 . S
C656 C660 1.390 . S
C656 C663 1.506 . S
C657 C658 1.398 . S
C657 C660 1.392 . S
C658 C657 1.398 . S
C658 C661 1.372 . S
C658 H668 0.931 . S
C659 C656 1.382 . S
C659 C661 1.390 . S
C659 H669 0.931 . S
C660 C656 1.390 . S
C660 C657 1.392 . S
C660 H670 0.930 1_655 S
C661 C658 1.372 . S
C661 C659 1.390 . S
C661 H671 0.929 . S
C662 O642 1.255 . S
C662 O643 1.257 . S
C663 Eu599 2.790 . S
C663 O638 1.252 1_655 S
C663 O641 1.268 . S
C663 C656 1.506 . S
H664 C647 0.931 . S
H665 C648 0.931 . S
H666 C649 0.929 . S
H667 C650 0.930 1_655 S
H668 C658 0.931 . S
H669 C659 0.931 . S
H670 C660 0.930 1_455 S
H671 C661 0.929 . S
C672 C673 1.349 . S
C672 C674 1.327 . S
C672 H697 0.950 . S
C673 C672 1.349 . S
C673 C689 1.349 . S
C674 C672 1.327 . S
C674 C693 1.429 . S
C674 H698 0.950 . S
C675 C692 1.574 . S
C675 C694 1.368 . S
C675 H699 0.949 . S
H676 C680 0.949 . S
C677 C678 1.349 . S
C677 C679 1.327 . S
C677 H700 0.950 . S
C678 C677 1.349 . S
C678 C690 1.349 . S
C679 C677 1.327 . S
C679 C695 1.429 . S
C679 H701 0.950 . S
C680 H676 0.949 . S
C680 C688 1.574 . S
C680 C696 1.368 . S
H681 C689 0.950 . S
H682 C687 0.950 . S
H683 C688 0.949 . S
H684 C690 0.950 . S
H685 C691 0.950 . S
H686 C692 0.949 . S
C687 H682 0.950 . S
C687 C689 1.327 . S
C687 C693 1.429 . S
C688 C680 1.574 . S
C688 H683 0.949 . S
C688 C694 1.368 . S
C689 C673 1.349 . S
C689 H681 0.950 . S
C689 C687 1.327 . S
C690 C678 1.349 . S
C690 H684 0.950 . S
C690 C691 1.327 . S
C691 H685 0.950 . S
C691 C690 1.327 . S
C691 C695 1.429 . S
C692 C675 1.574 . S
C692 H686 0.949 . S
C692 C696 1.368 . S
C693 C674 1.429 . S
C693 C687 1.429 . S
C693 C694 1.523 . S
C694 C675 1.368 . S
C694 C688 1.368 . S
C694 C693 1.523 . S
C695 C679 1.429 . S
C695 C691 1.429 . S
C695 C696 1.523 . S
C696 C680 1.368 . S
C696 C692 1.368 . S
C696 C695 1.523 . S
H697 C672 0.950 . S
H698 C674 0.950 . S
H699 C675 0.949 . S
H700 C677 0.950 . S
H701 C679 0.950 . S
C702 C703 1.349 . S
C702 C704 1.327 . S
C702 H727 0.950 . S
C703 C702 1.349 . S
C703 C719 1.349 . S
C704 C702 1.327 . S
C704 C723 1.429 . S
C704 H728 0.950 . S
C705 C722 1.574 . S
C705 C724 1.368 . S
C705 H729 0.949 . S
H706 C710 0.949 . S
C707 C708 1.349 . S
C707 C709 1.327 . S
C707 H730 0.950 . S
C708 C707 1.349 . S
C708 C720 1.349 . S
C709 C707 1.327 . S
C709 C725 1.429 . S
C709 H731 0.950 . S
C710 H706 0.949 . S
C710 C718 1.574 . S
C710 C726 1.368 . S
H711 C719 0.950 . S
H712 C717 0.950 . S
H713 C718 0.949 . S
H714 C720 0.950 . S
H715 C721 0.950 . S
H716 C722 0.949 . S
C717 H712 0.950 . S
C717 C719 1.327 . S
C717 C723 1.429 . S
C718 C710 1.574 . S
C718 H713 0.949 . S
C718 C724 1.368 . S
C719 C703 1.349 . S
C719 H711 0.950 . S
C719 C717 1.327 . S
C720 C708 1.349 . S
C720 H714 0.950 . S
C720 C721 1.327 . S
C721 H715 0.950 . S
C721 C720 1.327 . S
C721 C725 1.429 . S
C722 C705 1.574 . S
C722 H716 0.949 . S
C722 C726 1.368 . S
C723 C704 1.429 . S
C723 C717 1.429 . S
C723 C724 1.523 . S
C724 C705 1.368 . S
C724 C718 1.368 . S
C724 C723 1.523 . S
C725 C709 1.429 . S
C725 C721 1.429 . S
C725 C726 1.523 . S
C726 C710 1.368 . S
C726 C722 1.368 . S
C726 C725 1.523 . S
H727 C702 0.950 . S
H728 C704 0.950 . S
H729 C705 0.949 . S
H730 C707 0.950 . S
H731 C709 0.950 . S
C732 C733 1.349 . S
C732 C734 1.327 . S
C732 H757 0.950 . S
C733 C732 1.349 . S
C733 C749 1.349 . S
C734 C732 1.327 . S
C734 C753 1.429 . S
C734 H758 0.950 . S
C735 C752 1.574 . S
C735 C754 1.368 . S
C735 H759 0.949 . S
H736 C740 0.949 . S
C737 C738 1.349 . S
C737 C739 1.327 . S
C737 H760 0.950 . S
C738 C737 1.349 . S
C738 C750 1.349 . S
C739 C737 1.327 . S
C739 C755 1.429 . S
C739 H761 0.950 . S
C740 H736 0.949 . S
C740 C748 1.574 . S
C740 C756 1.368 . S
H741 C749 0.950 . S
H742 C747 0.950 . S
H743 C748 0.949 . S
H744 C750 0.950 . S
H745 C751 0.950 . S
H746 C752 0.949 . S
C747 H742 0.950 . S
C747 C749 1.327 . S
C747 C753 1.429 . S
C748 C740 1.574 . S
C748 H743 0.949 . S
C748 C754 1.368 . S
C749 C733 1.349 . S
C749 H741 0.950 . S
C749 C747 1.327 . S
C750 C738 1.349 . S
C750 H744 0.950 . S
C750 C751 1.327 . S
C751 H745 0.950 . S
C751 C750 1.327 . S
C751 C755 1.429 . S
C752 C735 1.574 . S
C752 H746 0.949 . S
C752 C756 1.368 . S
C753 C734 1.429 . S
C753 C747 1.429 . S
C753 C754 1.523 . S
C754 C735 1.368 . S
C754 C748 1.368 . S
C754 C753 1.523 . S
C755 C739 1.429 . S
C755 C751 1.429 . S
C755 C756 1.523 . S
C756 C740 1.368 . S
C756 C752 1.368 . S
C756 C755 1.523 . S
H757 C732 0.950 . S
H758 C734 0.950 . S
H759 C735 0.949 . S
H760 C737 0.950 . S
H761 C739 0.950 . S
C762 C763 1.349 . S
C762 C764 1.327 . S
C762 H787 0.950 . S
C763 C762 1.349 . S
C763 C779 1.349 . S
C764 C762 1.327 . S
C764 C783 1.429 . S
C764 H788 0.950 . S
C765 C782 1.574 . S
C765 C784 1.368 . S
C765 H789 0.949 . S
H766 C770 0.949 . S
C767 C768 1.349 . S
C767 C769 1.327 . S
C767 H790 0.950 . S
C768 C767 1.349 . S
C768 C780 1.349 . S
C769 C767 1.327 . S
C769 C785 1.429 . S
C769 H791 0.950 . S
C770 H766 0.949 . S
C770 C778 1.574 . S
C770 C786 1.368 . S
H771 C779 0.950 1_556 S
H772 C777 0.950 . S
H773 C778 0.949 . S
H774 C780 0.950 . S
H775 C781 0.950 . S
H776 C782 0.949 . S
C777 H772 0.950 . S
C777 C779 1.327 . S
C777 C783 1.429 . S
C778 C770 1.574 . S
C778 H773 0.949 . S
C778 C784 1.368 . S
C779 C763 1.349 . S
C779 H771 0.950 1_554 S
C779 C777 1.327 . S
C780 C768 1.349 . S
C780 H774 0.950 . S
C780 C781 1.327 . S
C781 H775 0.950 . S
C781 C780 1.327 . S
C781 C785 1.429 . S
C782 C765 1.574 . S
C782 H776 0.949 . S
C782 C786 1.368 . S
C783 C764 1.429 . S
C783 C777 1.429 . S
C783 C784 1.523 . S
C784 C765 1.368 . S
C784 C778 1.368 . S
C784 C783 1.523 . S
C785 C769 1.429 . S
C785 C781 1.429 . S
C785 C786 1.523 . S
C786 C770 1.368 . S
C786 C782 1.368 . S
C786 C785 1.523 . S
H787 C762 0.950 . S
H788 C764 0.950 . S
H789 C765 0.949 . S
H790 C767 0.950 . S
H791 C769 0.950 . S
C792 C793 1.349 . S
C792 C794 1.327 . S
C792 H817 0.950 . S
C793 C792 1.349 . S
C793 C809 1.349 . S
C794 C792 1.327 . S
C794 C813 1.429 . S
C794 H818 0.950 . S
C795 C812 1.574 . S
C795 C814 1.368 . S
C795 H819 0.949 . S
H796 C800 0.949 . S
C797 C798 1.349 . S
C797 C799 1.327 . S
C797 H820 0.950 . S
C798 C797 1.349 . S
C798 C810 1.349 . S
C799 C797 1.327 . S
C799 C815 1.429 . S
C799 H821 0.950 . S
C800 H796 0.949 . S
C800 C808 1.574 . S
C800 C816 1.368 . S
H801 C809 0.950 . S
H802 C807 0.950 . S
H803 C808 0.949 . S
H804 C810 0.950 . S
H805 C811 0.950 . S
H806 C812 0.949 . S
C807 H802 0.950 . S
C807 C809 1.327 . S
C807 C813 1.429 . S
C808 C800 1.574 . S
C808 H803 0.949 . S
C808 C814 1.368 . S
C809 C793 1.349 . S
C809 H801 0.950 . S
C809 C807 1.327 . S
C810 C798 1.349 . S
C810 H804 0.950 . S
C810 C811 1.327 . S
C811 H805 0.950 . S
C811 C810 1.327 . S
C811 C815 1.429 . S
C812 C795 1.574 . S
C812 H806 0.949 . S
C812 C816 1.368 . S
C813 C794 1.429 . S
C813 C807 1.429 . S
C813 C814 1.523 . S
C814 C795 1.368 . S
C814 C808 1.368 . S
C814 C813 1.523 . S
C815 C799 1.429 . S
C815 C811 1.429 . S
C815 C816 1.523 . S
C816 C800 1.368 . S
C816 C812 1.368 . S
C816 C815 1.523 . S
H817 C792 0.950 . S
H818 C794 0.950 . S
H819 C795 0.949 . S
H820 C797 0.950 . S
H821 C799 0.950 . S
C822 C823 1.349 . S
C822 C824 1.327 . S
C822 H847 0.950 . S
C823 C822 1.349 . S
C823 C839 1.349 . S
C824 C822 1.327 . S
C824 C843 1.429 . S
C824 H848 0.950 . S
C825 C842 1.574 . S
C825 C844 1.368 . S
C825 H849 0.949 . S
H826 C830 0.949 . S
C827 C828 1.349 . S
C827 C829 1.327 . S
C827 H850 0.950 . S
C828 C827 1.349 . S
C828 C840 1.349 . S
C829 C827 1.327 . S
C829 C845 1.429 . S
C829 H851 0.950 . S
C830 H826 0.949 . S
C830 C838 1.574 . S
C830 C846 1.368 . S
H831 C839 0.950 . S
H832 C837 0.950 . S
H833 C838 0.949 . S
H834 C840 0.950 . S
H835 C841 0.950 . S
H836 C842 0.949 . S
C837 H832 0.950 . S
C837 C839 1.327 . S
C837 C843 1.429 . S
C838 C830 1.574 . S
C838 H833 0.949 . S
C838 C844 1.368 . S
C839 C823 1.349 . S
C839 H831 0.950 . S
C839 C837 1.327 . S
C840 C828 1.349 . S
C840 H834 0.950 . S
C840 C841 1.327 . S
C841 H835 0.950 . S
C841 C840 1.327 . S
C841 C845 1.429 . S
C842 C825 1.574 . S
C842 H836 0.949 . S
C842 C846 1.368 . S
C843 C824 1.429 . S
C843 C837 1.429 . S
C843 C844 1.523 . S
C844 C825 1.368 . S
C844 C838 1.368 . S
C844 C843 1.523 . S
C845 C829 1.429 . S
C845 C841 1.429 . S
C845 C846 1.523 . S
C846 C830 1.368 . S
C846 C842 1.368 . S
C846 C845 1.523 . S
H847 C822 0.950 . S
H848 C824 0.950 . S
H849 C825 0.949 . S
H850 C827 0.950 . S
H851 C829 0.950 . S
C852 C853 1.349 . S
C852 C854 1.327 . S
C852 H877 0.950 . S
C853 C852 1.349 . S
C853 C869 1.349 . S
C854 C852 1.327 . S
C854 C873 1.429 . S
C854 H878 0.950 . S
C855 C872 1.574 . S
C855 C874 1.368 . S
C855 H879 0.949 . S
H856 C860 0.949 . S
C857 C858 1.349 . S
C857 C859 1.327 . S
C857 H880 0.950 . S
C858 C857 1.349 . S
C858 C870 1.349 . S
C859 C857 1.327 . S
C859 C875 1.429 . S
C859 H881 0.950 . S
C860 H856 0.949 . S
C860 C868 1.574 . S
C860 C876 1.368 . S
H861 C869 0.950 . S
H862 C867 0.950 . S
H863 C868 0.949 . S
H864 C870 0.950 . S
H865 C871 0.950 . S
H866 C872 0.949 . S
C867 H862 0.950 . S
C867 C869 1.327 . S
C867 C873 1.429 . S
C868 C860 1.574 . S
C868 H863 0.949 . S
C868 C874 1.368 . S
C869 C853 1.349 . S
C869 H861 0.950 . S
C869 C867 1.327 . S
C870 C858 1.349 . S
C870 H864 0.950 . S
C870 C871 1.327 . S
C871 H865 0.950 . S
C871 C870 1.327 . S
C871 C875 1.429 . S
C872 C855 1.574 . S
C872 H866 0.949 . S
C872 C876 1.368 . S
C873 C854 1.429 . S
C873 C867 1.429 . S
C873 C874 1.523 . S
C874 C855 1.368 . S
C874 C868 1.368 . S
C874 C873 1.523 . S
C875 C859 1.429 . S
C875 C871 1.429 . S
C875 C876 1.523 . S
C876 C860 1.368 . S
C876 C872 1.368 . S
C876 C875 1.523 . S
H877 C852 0.950 . S
H878 C854 0.950 . S
H879 C855 0.949 . S
H880 C857 0.950 . S
H881 C859 0.950 . S
C882 C883 1.349 . S
C882 C884 1.327 . S
C882 H907 0.950 . S
C883 C882 1.349 . S
C883 C899 1.349 . S
C884 C882 1.327 . S
C884 C903 1.429 . S
C884 H908 0.950 . S
C885 C902 1.574 . S
C885 C904 1.368 . S
C885 H909 0.949 . S
H886 C890 0.949 . S
C887 C888 1.349 . S
C887 C889 1.327 . S
C887 H910 0.950 . S
C888 C887 1.349 . S
C888 C900 1.349 . S
C889 C887 1.327 . S
C889 C905 1.429 . S
C889 H911 0.950 . S
C890 H886 0.949 . S
C890 C898 1.574 . S
C890 C906 1.368 . S
H891 C899 0.950 . S
H892 C897 0.950 . S
H893 C898 0.949 . S
H894 C900 0.950 1_554 S
H895 C901 0.950 . S
H896 C902 0.949 . S
C897 H892 0.950 . S
C897 C899 1.327 . S
C897 C903 1.429 . S
C898 C890 1.574 . S
C898 H893 0.949 . S
C898 C904 1.368 . S
C899 C883 1.349 . S
C899 H891 0.950 . S
C899 C897 1.327 . S
C900 C888 1.349 . S
C900 H894 0.950 1_556 S
C900 C901 1.327 . S
C901 H895 0.950 . S
C901 C900 1.327 . S
C901 C905 1.429 . S
C902 C885 1.574 . S
C902 H896 0.949 . S
C902 C906 1.368 . S
C903 C884 1.429 . S
C903 C897 1.429 . S
C903 C904 1.523 . S
C904 C885 1.368 . S
C904 C898 1.368 . S
C904 C903 1.523 . S
C905 C889 1.429 . S
C905 C901 1.429 . S
C905 C906 1.523 . S
C906 C890 1.368 . S
C906 C902 1.368 . S
C906 C905 1.523 . S
H907 C882 0.950 . S
H908 C884 0.950 . S
H909 C885 0.949 . S
H910 C887 0.950 . S
H911 C889 0.950 . S
C912 C913 1.349 . S
C912 C914 1.327 . S
C912 H937 0.950 . S
C913 C912 1.349 . S
C913 C929 1.349 . S
C914 C912 1.327 . S
C914 C933 1.429 . S
C914 H938 0.950 . S
C915 C932 1.574 . S
C915 C934 1.368 . S
C915 H939 0.949 . S
H916 C920 0.949 . S
C917 C918 1.349 . S
C917 C919 1.327 . S
C917 H940 0.950 . S
C918 C917 1.349 . S
C918 C930 1.349 . S
C919 C917 1.327 . S
C919 C935 1.429 . S
C919 H941 0.950 . S
C920 H916 0.949 . S
C920 C928 1.574 . S
C920 C936 1.368 . S
H921 C929 0.950 . S
H922 C927 0.950 . S
H923 C928 0.949 . S
H924 C930 0.950 . S
H925 C931 0.950 . S
H926 C932 0.949 . S
C927 H922 0.950 . S
C927 C929 1.327 . S
C927 C933 1.429 . S
C928 C920 1.574 . S
C928 H923 0.949 . S
C928 C934 1.368 . S
C929 C913 1.349 . S
C929 H921 0.950 . S
C929 C927 1.327 . S
C930 C918 1.349 . S
C930 H924 0.950 . S
C930 C931 1.327 . S
C931 H925 0.950 . S
C931 C930 1.327 . S
C931 C935 1.429 . S
C932 C915 1.574 . S
C932 H926 0.949 . S
C932 C936 1.368 . S
C933 C914 1.429 . S
C933 C927 1.429 . S
C933 C934 1.523 . S
C934 C915 1.368 . S
C934 C928 1.368 . S
C934 C933 1.523 . S
C935 C919 1.429 . S
C935 C931 1.429 . S
C935 C936 1.523 . S
C936 C920 1.368 . S
C936 C932 1.368 . S
C936 C935 1.523 . S
H937 C912 0.950 . S
H938 C914 0.950 . S
H939 C915 0.949 . S
H940 C917 0.950 . S
H941 C919 0.950 . S
C942 C943 1.349 . S
C942 C944 1.327 . S
C942 H967 0.950 . S
C943 C942 1.349 . S
C943 C959 1.349 . S
C944 C942 1.327 . S
C944 C963 1.429 . S
C944 H968 0.950 . S
C945 C962 1.574 . S
C945 C964 1.368 . S
C945 H969 0.949 . S
H946 C950 0.949 . S
C947 C948 1.349 . S
C947 C949 1.327 . S
C947 H970 0.950 . S
C948 C947 1.349 . S
C948 C960 1.349 . S
C949 C947 1.327 . S
C949 C965 1.429 . S
C949 H971 0.950 . S
C950 H946 0.949 . S
C950 C958 1.574 . S
C950 C966 1.368 . S
H951 C959 0.950 . S
H952 C957 0.950 . S
H953 C958 0.949 . S
H954 C960 0.950 1_556 S
H955 C961 0.950 . S
H956 C962 0.949 . S
C957 H952 0.950 . S
C957 C959 1.327 . S
C957 C963 1.429 . S
C958 C950 1.574 . S
C958 H953 0.949 . S
C958 C964 1.368 . S
C959 C943 1.349 . S
C959 H951 0.950 . S
C959 C957 1.327 . S
C960 C948 1.349 . S
C960 H954 0.950 1_554 S
C960 C961 1.327 . S
C961 H955 0.950 . S
C961 C960 1.327 . S
C961 C965 1.429 . S
C962 C945 1.574 . S
C962 H956 0.949 . S
C962 C966 1.368 . S
C963 C944 1.429 . S
C963 C957 1.429 . S
C963 C964 1.523 . S
C964 C945 1.368 . S
C964 C958 1.368 . S
C964 C963 1.523 . S
C965 C949 1.429 . S
C965 C961 1.429 . S
C965 C966 1.523 . S
C966 C950 1.368 . S
C966 C962 1.368 . S
C966 C965 1.523 . S
H967 C942 0.950 . S
H968 C944 0.950 . S
H969 C945 0.949 . S
H970 C947 0.950 . S
H971 C949 0.950 . S
C972 C973 1.349 . S
C972 C974 1.327 . S
C972 H997 0.950 . S
C973 C972 1.349 . S
C973 C989 1.349 . S
C974 C972 1.327 . S
C974 C993 1.429 . S
C974 H998 0.950 . S
C975 C992 1.574 . S
C975 C994 1.368 . S
C975 H999 0.949 . S
H976 C980 0.949 . S
C977 C978 1.349 . S
C977 C979 1.327 . S
C977 H1000 0.950 . S
C978 C977 1.349 . S
C978 C990 1.349 . S
C979 C977 1.327 . S
C979 C995 1.429 . S
C979 H1001 0.950 . S
C980 H976 0.949 . S
C980 C988 1.574 . S
C980 C996 1.368 . S
H981 C989 0.950 . S
H982 C987 0.950 . S
H983 C988 0.949 . S
H984 C990 0.950 . S
H985 C991 0.950 . S
H986 C992 0.949 . S
C987 H982 0.950 . S
C987 C989 1.327 . S
C987 C993 1.429 . S
C988 C980 1.574 . S
C988 H983 0.949 . S
C988 C994 1.368 . S
C989 C973 1.349 . S
C989 H981 0.950 . S
C989 C987 1.327 . S
C990 C978 1.349 . S
C990 H984 0.950 . S
C990 C991 1.327 . S
C991 H985 0.950 . S
C991 C990 1.327 . S
C991 C995 1.429 . S
C992 C975 1.574 . S
C992 H986 0.949 . S
C992 C996 1.368 . S
C993 C974 1.429 . S
C993 C987 1.429 . S
C993 C994 1.523 . S
C994 C975 1.368 . S
C994 C988 1.368 . S
C994 C993 1.523 . S
C995 C979 1.429 . S
C995 C991 1.429 . S
C995 C996 1.523 . S
C996 C980 1.368 . S
C996 C992 1.368 . S
C996 C995 1.523 . S
H997 C972 0.950 . S
H998 C974 0.950 . S
H999 C975 0.949 . S
H1000 C977 0.950 . S
H1001 C979 0.950 . S
C1002 C1003 1.349 . S
C1002 C1004 1.327 . S
C1002 H1027 0.950 . S
C1003 C1002 1.349 . S
C1003 C1019 1.349 . S
C1004 C1002 1.327 . S
C1004 C1023 1.429 . S
C1004 H1028 0.950 . S
C1005 C1022 1.574 . S
C1005 C1024 1.368 . S
C1005 H1029 0.949 . S
H1006 C1010 0.949 . S
C1007 C1008 1.349 . S
C1007 C1009 1.327 . S
C1007 H1030 0.950 . S
C1008 C1007 1.349 . S
C1008 C1020 1.349 . S
C1009 C1007 1.327 . S
C1009 C1025 1.429 . S
C1009 H1031 0.950 . S
C1010 H1006 0.949 . S
C1010 C1018 1.574 . S
C1010 C1026 1.368 . S
H1011 C1019 0.950 . S
H1012 C1017 0.950 . S
H1013 C1018 0.949 . S
H1014 C1020 0.950 . S
H1015 C1021 0.950 . S
H1016 C1022 0.949 . S
C1017 H1012 0.950 . S
C1017 C1019 1.327 . S
C1017 C1023 1.429 . S
C1018 C1010 1.574 . S
C1018 H1013 0.949 . S
C1018 C1024 1.368 . S
C1019 C1003 1.349 . S
C1019 H1011 0.950 . S
C1019 C1017 1.327 . S
C1020 C1008 1.349 . S
C1020 H1014 0.950 . S
C1020 C1021 1.327 . S
C1021 H1015 0.950 . S
C1021 C1020 1.327 . S
C1021 C1025 1.429 . S
C1022 C1005 1.574 . S
C1022 H1016 0.949 . S
C1022 C1026 1.368 . S
C1023 C1004 1.429 . S
C1023 C1017 1.429 . S
C1023 C1024 1.523 . S
C1024 C1005 1.368 . S
C1024 C1018 1.368 . S
C1024 C1023 1.523 . S
C1025 C1009 1.429 . S
C1025 C1021 1.429 . S
C1025 C1026 1.523 . S
C1026 C1010 1.368 . S
C1026 C1022 1.368 . S
C1026 C1025 1.523 . S
H1027 C1002 0.950 . S
H1028 C1004 0.950 . S
H1029 C1005 0.949 . S
H1030 C1007 0.950 . S
H1031 C1009 0.950 . S
C1032 C1033 1.349 . S
C1032 C1034 1.327 . S
C1032 H1057 0.950 . S
C1033 C1032 1.349 . S
C1033 C1049 1.349 . S
C1034 C1032 1.327 . S
C1034 C1053 1.429 . S
C1034 H1058 0.950 . S
C1035 C1052 1.574 . S
C1035 C1054 1.368 . S
C1035 H1059 0.949 . S
H1036 C1040 0.949 . S
C1037 C1038 1.349 . S
C1037 C1039 1.327 . S
C1037 H1060 0.950 1_554 S
C1038 C1037 1.349 . S
C1038 C1050 1.349 . S
C1039 C1037 1.327 . S
C1039 C1055 1.429 . S
C1039 H1061 0.950 . S
C1040 H1036 0.949 . S
C1040 C1048 1.574 . S
C1040 C1056 1.368 . S
H1041 C1049 0.950 . S
H1042 C1047 0.950 . S
H1043 C1048 0.949 . S
H1044 C1050 0.950 . S
H1045 C1051 0.950 . S
H1046 C1052 0.949 . S
C1047 H1042 0.950 . S
C1047 C1049 1.327 . S
C1047 C1053 1.429 . S
C1048 C1040 1.574 . S
C1048 H1043 0.949 . S
C1048 C1054 1.368 . S
C1049 C1033 1.349 . S
C1049 H1041 0.950 . S
C1049 C1047 1.327 . S
C1050 C1038 1.349 . S
C1050 H1044 0.950 . S
C1050 C1051 1.327 . S
C1051 H1045 0.950 . S
C1051 C1050 1.327 . S
C1051 C1055 1.429 . S
C1052 C1035 1.574 . S
C1052 H1046 0.949 . S
C1052 C1056 1.368 . S
C1053 C1034 1.429 . S
C1053 C1047 1.429 . S
C1053 C1054 1.523 . S
C1054 C1035 1.368 . S
C1054 C1048 1.368 . S
C1054 C1053 1.523 . S
C1055 C1039 1.429 . S
C1055 C1051 1.429 . S
C1055 C1056 1.523 . S
C1056 C1040 1.368 . S
C1056 C1052 1.368 . S
C1056 C1055 1.523 . S
H1057 C1032 0.950 . S
H1058 C1034 0.950 . S
H1059 C1035 0.949 . S
H1060 C1037 0.950 1_556 S
H1061 C1039 0.950 . S
C1062 C1063 1.349 . S
C1062 C1064 1.327 . S
C1062 H1087 0.950 . S
C1063 C1062 1.349 . S
C1063 C1079 1.349 . S
C1064 C1062 1.327 . S
C1064 C1083 1.429 . S
C1064 H1088 0.950 . S
C1065 C1082 1.574 . S
C1065 C1084 1.368 . S
C1065 H1089 0.949 . S
H1066 C1070 0.949 . S
C1067 C1068 1.349 . S
C1067 C1069 1.327 . S
C1067 H1090 0.950 . S
C1068 C1067 1.349 . S
C1068 C1080 1.349 . S
C1069 C1067 1.327 . S
C1069 C1085 1.429 . S
C1069 H1091 0.950 . S
C1070 H1066 0.949 . S
C1070 C1078 1.574 . S
C1070 C1086 1.368 . S
H1071 C1079 0.950 . S
H1072 C1077 0.950 . S
H1073 C1078 0.949 . S
H1074 C1080 0.950 . S
H1075 C1081 0.950 . S
H1076 C1082 0.949 . S
C1077 H1072 0.950 . S
C1077 C1079 1.327 . S
C1077 C1083 1.429 . S
C1078 C1070 1.574 . S
C1078 H1073 0.949 . S
C1078 C1084 1.368 . S
C1079 C1063 1.349 . S
C1079 H1071 0.950 . S
C1079 C1077 1.327 . S
C1080 C1068 1.349 . S
C1080 H1074 0.950 . S
C1080 C1081 1.327 . S
C1081 H1075 0.950 . S
C1081 C1080 1.327 . S
C1081 C1085 1.429 . S
C1082 C1065 1.574 . S
C1082 H1076 0.949 . S
C1082 C1086 1.368 . S
C1083 C1064 1.429 . S
C1083 C1077 1.429 . S
C1083 C1084 1.523 . S
C1084 C1065 1.368 . S
C1084 C1078 1.368 . S
C1084 C1083 1.523 . S
C1085 C1069 1.429 . S
C1085 C1081 1.429 . S
C1085 C1086 1.523 . S
C1086 C1070 1.368 . S
C1086 C1082 1.368 . S
C1086 C1085 1.523 . S
H1087 C1062 0.950 . S
H1088 C1064 0.950 . S
H1089 C1065 0.949 . S
H1090 C1067 0.950 . S
H1091 C1069 0.950 . S
C1092 C1093 1.349 . S
C1092 C1094 1.327 . S
C1092 H1117 0.950 . S
C1093 C1092 1.349 . S
C1093 C1109 1.349 . S
C1094 C1092 1.327 . S
C1094 C1113 1.429 . S
C1094 H1118 0.950 . S
C1095 C1112 1.574 . S
C1095 C1114 1.368 . S
C1095 H1119 0.949 . S
H1096 C1100 0.949 . S
C1097 C1098 1.349 . S
C1097 C1099 1.327 . S
C1097 H1120 0.950 . S
C1098 C1097 1.349 . S
C1098 C1110 1.349 . S
C1099 C1097 1.327 . S
C1099 C1115 1.429 . S
C1099 H1121 0.950 . S
C1100 H1096 0.949 . S
C1100 C1108 1.574 . S
C1100 C1116 1.368 . S
H1101 C1109 0.950 . S
H1102 C1107 0.950 . S
H1103 C1108 0.949 . S
H1104 C1110 0.950 . S
H1105 C1111 0.950 . S
H1106 C1112 0.949 . S
C1107 H1102 0.950 . S
C1107 C1109 1.327 . S
C1107 C1113 1.429 . S
C1108 C1100 1.574 . S
C1108 H1103 0.949 . S
C1108 C1114 1.368 . S
C1109 C1093 1.349 . S
C1109 H1101 0.950 . S
C1109 C1107 1.327 . S
C1110 C1098 1.349 . S
C1110 H1104 0.950 . S
C1110 C1111 1.327 . S
C1111 H1105 0.950 . S
C1111 C1110 1.327 . S
C1111 C1115 1.429 . S
C1112 C1095 1.574 . S
C1112 H1106 0.949 . S
C1112 C1116 1.368 . S
C1113 C1094 1.429 . S
C1113 C1107 1.429 . S
C1113 C1114 1.523 . S
C1114 C1095 1.368 . S
C1114 C1108 1.368 . S
C1114 C1113 1.523 . S
C1115 C1099 1.429 . S
C1115 C1111 1.429 . S
C1115 C1116 1.523 . S
C1116 C1100 1.368 . S
C1116 C1112 1.368 . S
C1116 C1115 1.523 . S
H1117 C1092 0.950 . S
H1118 C1094 0.950 . S
H1119 C1095 0.949 . S
H1120 C1097 0.950 . S
H1121 C1099 0.950 . S
C1122 C1123 1.349 . S
C1122 C1124 1.327 . S
C1122 H1147 0.950 . S
C1123 C1122 1.349 . S
C1123 C1139 1.349 . S
C1124 C1122 1.327 . S
C1124 C1143 1.429 . S
C1124 H1148 0.950 . S
C1125 C1142 1.574 . S
C1125 C1144 1.368 . S
C1125 H1149 0.949 . S
H1126 C1130 0.949 . S
C1127 C1128 1.349 . S
C1127 C1129 1.327 . S
C1127 H1150 0.950 . S
C1128 C1127 1.349 . S
C1128 C1140 1.349 . S
C1129 C1127 1.327 . S
C1129 C1145 1.429 . S
C1129 H1151 0.950 . S
C1130 H1126 0.949 . S
C1130 C1138 1.574 . S
C1130 C1146 1.368 . S
H1131 C1139 0.950 . S
H1132 C1137 0.950 . S
H1133 C1138 0.949 . S
H1134 C1140 0.950 . S
H1135 C1141 0.950 . S
H1136 C1142 0.949 . S
C1137 H1132 0.950 . S
C1137 C1139 1.327 . S
C1137 C1143 1.429 . S
C1138 C1130 1.574 . S
C1138 H1133 0.949 . S
C1138 C1144 1.368 . S
C1139 C1123 1.349 . S
C1139 H1131 0.950 . S
C1139 C1137 1.327 . S
C1140 C1128 1.349 . S
C1140 H1134 0.950 . S
C1140 C1141 1.327 . S
C1141 H1135 0.950 . S
C1141 C1140 1.327 . S
C1141 C1145 1.429 . S
C1142 C1125 1.574 . S
C1142 H1136 0.949 . S
C1142 C1146 1.368 . S
C1143 C1124 1.429 . S
C1143 C1137 1.429 . S
C1143 C1144 1.523 . S
C1144 C1125 1.368 . S
C1144 C1138 1.368 . S
C1144 C1143 1.523 . S
C1145 C1129 1.429 . S
C1145 C1141 1.429 . S
C1145 C1146 1.523 . S
C1146 C1130 1.368 . S
C1146 C1142 1.368 . S
C1146 C1145 1.523 . S
H1147 C1122 0.950 . S
H1148 C1124 0.950 . S
H1149 C1125 0.949 . S
H1150 C1127 0.950 . S
H1151 C1129 0.950 . S
C1152 C1153 1.349 1_545 S
C1152 C1154 1.327 . S
C1152 H1177 0.950 . S
C1153 C1152 1.349 1_565 S
C1153 C1169 1.349 1_655 S
C1154 C1152 1.327 . S
C1154 C1173 1.438 1_545 S
C1154 H1178 0.950 . S
C1155 C1172 1.574 1_556 S
C1155 C1174 1.366 1_455 S
C1155 H1179 0.949 . S
H1156 C1160 0.949 . S
C1157 C1158 1.349 1_565 S
C1157 C1159 1.327 . S
C1157 H1180 0.950 . S
C1158 C1157 1.349 1_545 S
C1158 C1170 1.349 1_455 S
C1159 C1157 1.327 . S
C1159 C1175 1.442 1_565 S
C1159 H1181 0.950 . S
C1160 H1156 0.949 . S
C1160 C1168 1.574 1_554 S
C1160 C1176 1.362 1_655 S
H1161 C1169 0.950 . S
H1162 C1167 0.950 . S
H1163 C1168 0.949 . S
H1164 C1170 0.950 . S
H1165 C1171 0.950 . S
H1166 C1172 0.949 . S
C1167 H1162 0.950 . S
C1167 C1169 1.327 . S
C1167 C1173 1.420 1_455 S
C1168 C1160 1.574 1_556 S
C1168 H1163 0.949 . S
C1168 C1174 1.370 1_545 S
C1169 C1153 1.349 1_455 S
C1169 H1161 0.950 . S
C1169 C1167 1.327 . S
C1170 C1158 1.349 1_655 S
C1170 H1164 0.950 . S
C1170 C1171 1.327 . S
C1171 H1165 0.950 . S
C1171 C1170 1.327 . S
C1171 C1175 1.416 1_655 S
C1172 C1155 1.574 1_554 S
C1172 H1166 0.949 . S
C1172 C1176 1.375 1_565 S
C1173 C1154 1.438 1_565 S
C1173 C1167 1.420 1_655 S
C1173 C1174 1.523 . S
C1174 C1155 1.366 1_655 S
C1174 C1168 1.370 1_565 S
C1174 C1173 1.523 . S
C1175 C1159 1.442 1_545 S
C1175 C1171 1.416 1_455 S
C1175 C1176 1.523 . S
C1176 C1160 1.362 1_455 S
C1176 C1172 1.375 1_545 S
C1176 C1175 1.523 . S
H1177 C1152 0.950 . S
H1178 C1154 0.950 . S
H1179 C1155 0.949 . S
H1180 C1157 0.950 . S
H1181 C1159 0.950 . S
C1182 C1183 1.349 . S
C1182 C1184 1.327 . S
C1182 H1207 0.950 . S
C1183 C1182 1.349 . S
C1183 C1199 1.349 . S
C1184 C1182 1.327 . S
C1184 C1203 1.429 . S
C1184 H1208 0.950 . S
C1185 C1202 1.574 . S
C1185 C1204 1.368 . S
C1185 H1209 0.949 . S
H1186 C1190 0.949 . S
C1187 C1188 1.349 . S
C1187 C1189 1.327 . S
C1187 H1210 0.950 . S
C1188 C1187 1.349 . S
C1188 C1200 1.349 . S
C1189 C1187 1.327 . S
C1189 C1205 1.429 . S
C1189 H1211 0.950 . S
C1190 H1186 0.949 . S
C1190 C1198 1.574 . S
C1190 C1206 1.368 . S
H1191 C1199 0.950 . S
H1192 C1197 0.950 . S
H1193 C1198 0.949 . S
H1194 C1200 0.950 . S
H1195 C1201 0.950 . S
H1196 C1202 0.949 . S
C1197 H1192 0.950 . S
C1197 C1199 1.327 . S
C1197 C1203 1.429 . S
C1198 C1190 1.574 . S
C1198 H1193 0.949 . S
C1198 C1204 1.368 . S
C1199 C1183 1.349 . S
C1199 H1191 0.950 . S
C1199 C1197 1.327 . S
C1200 C1188 1.349 . S
C1200 H1194 0.950 . S
C1200 C1201 1.327 . S
C1201 H1195 0.950 . S
C1201 C1200 1.327 . S
C1201 C1205 1.429 . S
C1202 C1185 1.574 . S
C1202 H1196 0.949 . S
C1202 C1206 1.368 . S
C1203 C1184 1.429 . S
C1203 C1197 1.429 . S
C1203 C1204 1.523 . S
C1204 C1185 1.368 . S
C1204 C1198 1.368 . S
C1204 C1203 1.523 . S
C1205 C1189 1.429 . S
C1205 C1201 1.429 . S
C1205 C1206 1.523 . S
C1206 C1190 1.368 . S
C1206 C1202 1.368 . S
C1206 C1205 1.523 . S
H1207 C1182 0.950 . S
H1208 C1184 0.950 . S
H1209 C1185 0.949 . S
H1210 C1187 0.950 . S
H1211 C1189 0.950 . S
C1212 C1213 1.349 . S
C1212 C1214 1.327 . S
C1212 H1237 0.950 . S
C1213 C1212 1.349 . S
C1213 C1229 1.349 1_565 S
C1214 C1212 1.327 . S
C1214 C1233 1.429 . S
C1214 H1238 0.950 . S
C1215 C1232 1.574 . S
C1215 C1234 1.368 1_545 S
C1215 H1239 0.949 . S
H1216 C1220 0.949 . S
C1217 C1218 1.349 . S
C1217 C1219 1.327 . S
C1217 H1240 0.950 . S
C1218 C1217 1.349 . S
C1218 C1230 1.349 1_545 S
C1219 C1217 1.327 . S
C1219 C1235 1.429 . S
C1219 H1241 0.950 . S
C1220 H1216 0.949 . S
C1220 C1228 1.574 . S
C1220 C1236 1.368 1_565 S
H1221 C1229 0.950 . S
H1222 C1227 0.950 . S
H1223 C1228 0.949 . S
H1224 C1230 0.950 . S
H1225 C1231 0.950 . S
H1226 C1232 0.949 . S
C1227 H1222 0.950 . S
C1227 C1229 1.327 . S
C1227 C1233 1.429 1_545 S
C1228 C1220 1.574 . S
C1228 H1223 0.949 . S
C1228 C1234 1.368 . S
C1229 C1213 1.349 1_545 S
C1229 H1221 0.950 . S
C1229 C1227 1.327 . S
C1230 C1218 1.349 1_565 S
C1230 H1224 0.950 . S
C1230 C1231 1.327 . S
C1231 H1225 0.950 . S
C1231 C1230 1.327 . S
C1231 C1235 1.429 1_565 S
C1232 C1215 1.574 . S
C1232 H1226 0.949 . S
C1232 C1236 1.368 . S
C1233 C1214 1.429 . S
C1233 C1227 1.429 1_565 S
C1233 C1234 1.523 . S
C1234 C1215 1.368 1_565 S
C1234 C1228 1.368 . S
C1234 C1233 1.523 . S
C1235 C1219 1.429 . S
C1235 C1231 1.429 1_545 S
C1235 C1236 1.523 . S
C1236 C1220 1.368 1_545 S
C1236 C1232 1.368 . S
C1236 C1235 1.523 . S
H1237 C1212 0.950 . S
H1238 C1214 0.950 . S
H1239 C1215 0.949 . S
H1240 C1217 0.950 . S
H1241 C1219 0.950 . S
C1242 C1243 1.349 . S
C1242 C1244 1.327 . S
C1242 H1267 0.950 . S
C1243 C1242 1.349 . S
C1243 C1259 1.349 . S
C1244 C1242 1.327 . S
C1244 C1263 1.429 . S
C1244 H1268 0.950 . S
C1245 C1262 1.574 . S
C1245 C1264 1.368 . S
C1245 H1269 0.949 . S
H1246 C1250 0.949 . S
C1247 C1248 1.349 . S
C1247 C1249 1.327 . S
C1247 H1270 0.950 . S
C1248 C1247 1.349 . S
C1248 C1260 1.349 . S
C1249 C1247 1.327 . S
C1249 C1265 1.429 . S
C1249 H1271 0.950 . S
C1250 H1246 0.949 . S
C1250 C1258 1.574 . S
C1250 C1266 1.368 . S
H1251 C1259 0.950 . S
H1252 C1257 0.950 . S
H1253 C1258 0.949 . S
H1254 C1260 0.950 . S
H1255 C1261 0.950 . S
H1256 C1262 0.949 . S
C1257 H1252 0.950 . S
C1257 C1259 1.327 . S
C1257 C1263 1.429 . S
C1258 C1250 1.574 . S
C1258 H1253 0.949 . S
C1258 C1264 1.368 . S
C1259 C1243 1.349 . S
C1259 H1251 0.950 . S
C1259 C1257 1.327 . S
C1260 C1248 1.349 . S
C1260 H1254 0.950 . S
C1260 C1261 1.327 . S
C1261 H1255 0.950 . S
C1261 C1260 1.327 . S
C1261 C1265 1.429 . S
C1262 C1245 1.574 . S
C1262 H1256 0.949 . S
C1262 C1266 1.368 . S
C1263 C1244 1.429 . S
C1263 C1257 1.429 . S
C1263 C1264 1.523 . S
C1264 C1245 1.368 . S
C1264 C1258 1.368 . S
C1264 C1263 1.523 . S
C1265 C1249 1.429 . S
C1265 C1261 1.429 . S
C1265 C1266 1.523 . S
C1266 C1250 1.368 . S
C1266 C1262 1.368 . S
C1266 C1265 1.523 . S
H1267 C1242 0.950 . S
H1268 C1244 0.950 . S
H1269 C1245 0.949 . S
H1270 C1247 0.950 . S
H1271 C1249 0.950 . S
C1272 C1273 1.349 . S
C1272 C1274 1.327 . S
C1272 H1297 0.950 . S
C1273 C1272 1.349 . S
C1273 C1289 1.349 . S
C1274 C1272 1.327 . S
C1274 C1293 1.429 . S
C1274 H1298 0.950 . S
C1275 C1292 1.574 . S
C1275 C1294 1.368 . S
C1275 H1299 0.949 . S
H1276 C1280 0.949 . S
C1277 C1278 1.349 . S
C1277 C1279 1.327 . S
C1277 H1300 0.950 . S
C1278 C1277 1.349 . S
C1278 C1290 1.349 . S
C1279 C1277 1.327 . S
C1279 C1295 1.429 . S
C1279 H1301 0.950 . S
C1280 H1276 0.949 . S
C1280 C1288 1.574 . S
C1280 C1296 1.368 . S
H1281 C1289 0.950 . S
H1282 C1287 0.950 . S
H1283 C1288 0.949 . S
H1284 C1290 0.950 . S
H1285 C1291 0.950 . S
H1286 C1292 0.949 . S
C1287 H1282 0.950 . S
C1287 C1289 1.327 . S
C1287 C1293 1.429 . S
C1288 C1280 1.574 . S
C1288 H1283 0.949 . S
C1288 C1294 1.368 . S
C1289 C1273 1.349 . S
C1289 H1281 0.950 . S
C1289 C1287 1.327 . S
C1290 C1278 1.349 . S
C1290 H1284 0.950 . S
C1290 C1291 1.327 . S
C1291 H1285 0.950 . S
C1291 C1290 1.327 . S
C1291 C1295 1.429 . S
C1292 C1275 1.574 . S
C1292 H1286 0.949 . S
C1292 C1296 1.368 . S
C1293 C1274 1.429 . S
C1293 C1287 1.429 . S
C1293 C1294 1.523 . S
C1294 C1275 1.368 . S
C1294 C1288 1.368 . S
C1294 C1293 1.523 . S
C1295 C1279 1.429 . S
C1295 C1291 1.429 . S
C1295 C1296 1.523 . S
C1296 C1280 1.368 . S
C1296 C1292 1.368 . S
C1296 C1295 1.523 . S
H1297 C1272 0.950 . S
H1298 C1274 0.950 . S
H1299 C1275 0.949 . S
H1300 C1277 0.950 . S
H1301 C1279 0.950 . S
C1302 C1303 1.349 . S
C1302 C1304 1.327 . S
C1302 H1327 0.950 . S
C1303 C1302 1.349 . S
C1303 C1319 1.349 . S
C1304 C1302 1.327 . S
C1304 C1323 1.429 . S
C1304 H1328 0.950 . S
C1305 C1322 1.574 . S
C1305 C1324 1.368 . S
C1305 H1329 0.949 . S
H1306 C1310 0.949 . S
C1307 C1308 1.349 . S
C1307 C1309 1.327 . S
C1307 H1330 0.950 . S
C1308 C1307 1.349 . S
C1308 C1320 1.349 . S
C1309 C1307 1.327 . S
C1309 C1325 1.429 . S
C1309 H1331 0.950 . S
C1310 H1306 0.949 . S
C1310 C1318 1.574 . S
C1310 C1326 1.368 . S
H1311 C1319 0.950 . S
H1312 C1317 0.950 . S
H1313 C1318 0.949 . S
H1314 C1320 0.950 . S
H1315 C1321 0.950 . S
H1316 C1322 0.949 . S
C1317 H1312 0.950 . S
C1317 C1319 1.327 . S
C1317 C1323 1.429 . S
C1318 C1310 1.574 . S
C1318 H1313 0.949 . S
C1318 C1324 1.368 . S
C1319 C1303 1.349 . S
C1319 H1311 0.950 . S
C1319 C1317 1.327 . S
C1320 C1308 1.349 . S
C1320 H1314 0.950 . S
C1320 C1321 1.327 . S
C1321 H1315 0.950 . S
C1321 C1320 1.327 . S
C1321 C1325 1.429 . S
C1322 C1305 1.574 . S
C1322 H1316 0.949 . S
C1322 C1326 1.368 . S
C1323 C1304 1.429 . S
C1323 C1317 1.429 . S
C1323 C1324 1.523 . S
C1324 C1305 1.368 . S
C1324 C1318 1.368 . S
C1324 C1323 1.523 . S
C1325 C1309 1.429 . S
C1325 C1321 1.429 . S
C1325 C1326 1.523 . S
C1326 C1310 1.368 . S
C1326 C1322 1.368 . S
C1326 C1325 1.523 . S
H1327 C1302 0.950 . S
H1328 C1304 0.950 . S
H1329 C1305 0.949 . S
H1330 C1307 0.950 . S
H1331 C1309 0.950 . S
C1332 C1333 1.349 . S
C1332 C1334 1.327 . S
C1332 H1357 0.950 . S
C1333 C1332 1.349 . S
C1333 C1349 1.349 . S
C1334 C1332 1.327 . S
C1334 C1353 1.429 . S
C1334 H1358 0.950 . S
C1335 C1352 1.574 . S
C1335 C1354 1.368 . S
C1335 H1359 0.949 . S
H1336 C1340 0.949 . S
C1337 C1338 1.349 . S
C1337 C1339 1.327 . S
C1337 H1360 0.950 . S
C1338 C1337 1.349 . S
C1338 C1350 1.349 . S
C1339 C1337 1.327 . S
C1339 C1355 1.429 . S
C1339 H1361 0.950 . S
C1340 H1336 0.949 . S
C1340 C1348 1.574 . S
C1340 C1356 1.368 . S
H1341 C1349 0.950 . S
H1342 C1347 0.950 . S
H1343 C1348 0.949 . S
H1344 C1350 0.950 . S
H1345 C1351 0.950 . S
H1346 C1352 0.949 . S
C1347 H1342 0.950 . S
C1347 C1349 1.327 . S
C1347 C1353 1.429 . S
C1348 C1340 1.574 . S
C1348 H1343 0.949 . S
C1348 C1354 1.368 . S
C1349 C1333 1.349 . S
C1349 H1341 0.950 . S
C1349 C1347 1.327 . S
C1350 C1338 1.349 . S
C1350 H1344 0.950 . S
C1350 C1351 1.327 . S
C1351 H1345 0.950 . S
C1351 C1350 1.327 . S
C1351 C1355 1.429 . S
C1352 C1335 1.574 . S
C1352 H1346 0.949 . S
C1352 C1356 1.368 . S
C1353 C1334 1.429 . S
C1353 C1347 1.429 . S
C1353 C1354 1.523 . S
C1354 C1335 1.368 . S
C1354 C1348 1.368 . S
C1354 C1353 1.523 . S
C1355 C1339 1.429 . S
C1355 C1351 1.429 . S
C1355 C1356 1.523 . S
C1356 C1340 1.368 . S
C1356 C1352 1.368 . S
C1356 C1355 1.523 . S
H1357 C1332 0.950 . S
H1358 C1334 0.950 . S
H1359 C1335 0.949 . S
H1360 C1337 0.950 . S
H1361 C1339 0.950 . S
C1362 C1363 1.349 . S
C1362 C1364 1.327 . S
C1362 H1387 0.950 . S
C1363 C1362 1.349 . S
C1363 C1379 1.349 1_455 S
C1364 C1362 1.327 . S
C1364 C1383 1.444 . S
C1364 H1388 0.950 . S
C1365 C1382 1.574 1_556 S
C1365 C1384 1.360 1_655 S
C1365 H1389 0.949 . S
H1366 C1370 0.949 . S
C1367 C1368 1.349 . S
C1367 C1369 1.327 . S
C1367 H1390 0.950 . S
C1368 C1367 1.349 . S
C1368 C1380 1.349 1_655 S
C1369 C1367 1.327 . S
C1369 C1385 1.439 . S
C1369 H1391 0.950 . S
C1370 H1366 0.949 . S
C1370 C1378 1.574 1_554 S
C1370 C1386 1.366 1_455 S
H1371 C1379 0.950 . S
H1372 C1377 0.950 . S
H1373 C1378 0.949 . S
H1374 C1380 0.950 . S
H1375 C1381 0.950 . S
H1376 C1382 0.949 . S
C1377 H1372 0.950 . S
C1377 C1379 1.327 . S
C1377 C1383 1.414 1_655 S
C1378 C1370 1.574 1_556 S
C1378 H1373 0.949 . S
C1378 C1384 1.376 . S
C1379 C1363 1.349 1_655 S
C1379 H1371 0.950 . S
C1379 C1377 1.327 . S
C1380 C1368 1.349 1_455 S
C1380 H1374 0.950 . S
C1380 C1381 1.327 . S
C1381 H1375 0.950 . S
C1381 C1380 1.327 . S
C1381 C1385 1.418 1_455 S
C1382 C1365 1.574 1_554 S
C1382 H1376 0.949 . S
C1382 C1386 1.371 . S
C1383 C1364 1.444 . S
C1383 C1377 1.414 1_455 S
C1383 C1384 1.523 . S
C1384 C1365 1.360 1_455 S
C1384 C1378 1.376 . S
C1384 C1383 1.523 . S
C1385 C1369 1.439 . S
C1385 C1381 1.418 1_655 S
C1385 C1386 1.523 . S
C1386 C1370 1.366 1_655 S
C1386 C1382 1.371 . S
C1386 C1385 1.523 . S
H1387 C1362 0.950 . S
H1388 C1364 0.950 . S
H1389 C1365 0.949 . S
H1390 C1367 0.950 . S
H1391 C1369 0.950 . S
C673 C56 1.498 . S
C678 C308 1.491 . S
C703 C63 1.489 . S
C708 C140 1.497 . S
C733 C147 1.494 . S
C738 C224 1.507 . S
C763 C231 1.494 . S
C768 C315 1.489 . S
C793 C67 1.498 . S
C798 C487 1.504 . S
C823 C74 1.489 . S
C828 C403 1.496 . S
C853 C410 1.494 . S
C858 C235 1.499 . S
C883 C494 1.494 . S
C888 C242 1.498 . S
C913 C560 1.498 . S
C918 C476 1.499 . S
C943 C392 1.496 . S
C948 C567 1.488 . S
C973 C644 1.503 . S
C978 C399 1.498 . S
C1003 C483 1.494 . S
C1008 C651 1.497 . S
C1033 C319 1.498 . S
C1038 C571 1.497 . S
C1063 C578 1.489 . S
C1068 C151 1.498 . S
C1093 C158 1.494 . S
C1098 C655 1.499 . S
C1123 C326 1.494 . S
C1128 C662 1.491 . S
C1153 C58 1.461 . S
C1158 C69 1.464 . S
C1183 C153 1.453 . S
C1188 C142 1.453 . S
C1213 C237 1.458 . S
C1218 C226 1.458 . S
C1243 C310 1.454 . S
C1248 C321 1.454 . S
C1273 C405 1.453 . S
C1278 C394 1.453 . S
C1303 C478 1.454 . S
C1308 C489 1.454 . S
C1333 C573 1.455 . S
C1338 C562 1.455 . S
C1363 C646 1.458 . S
C1368 C657 1.458 . S
