# Generated by pormake.
# Topology cab, (5)-cn, num edge types: 1
# Building blocks:
#     Node 0, Type 0, BuildingBlock: XOMCOT_clean_sbu_0, # of connection points: 5
#     Node 1, Type 0, BuildingBlock: XOMCOT_clean_sbu_0, # of connection points: 5
#     Node 2, Type 0, BuildingBlock: XOMCOT_clean_sbu_0, # of connection points: 5
#     Node 3, Type 0, BuildingBlock: XOMCOT_clean_sbu_0, # of connection points: 5
#     Node 4, Type 0, BuildingBlock: XOMCOT_clean_sbu_0, # of connection points: 5
#     Node 5, Type 0, BuildingBlock: XOMCOT_clean_sbu_0, # of connection points: 5
#     Edge 6, Type (0, 0), BuildingBlock: OJICUG_clean_linker_0, # of connection points: 2
#     Edge 7, Type (0, 0), BuildingBlock: OJICUG_clean_linker_0, # of connection points: 2
#     Edge 8, Type (0, 0), BuildingBlock: OJICUG_clean_linker_0, # of connection points: 2
#     Edge 9, Type (0, 0), BuildingBlock: OJICUG_clean_linker_0, # of connection points: 2
#     Edge 10, Type (0, 0), BuildingBlock: OJICUG_clean_linker_0, # of connection points: 2
#     Edge 11, Type (0, 0), BuildingBlock: OJICUG_clean_linker_0, # of connection points: 2
#     Edge 12, Type (0, 0), BuildingBlock: OJICUG_clean_linker_0, # of connection points: 2
#     Edge 13, Type (0, 0), BuildingBlock: OJICUG_clean_linker_0, # of connection points: 2
#     Edge 14, Type (0, 0), BuildingBlock: OJICUG_clean_linker_0, # of connection points: 2
#     Edge 15, Type (0, 0), BuildingBlock: OJICUG_clean_linker_0, # of connection points: 2
#     Edge 16, Type (0, 0), BuildingBlock: OJICUG_clean_linker_0, # of connection points: 2
#     Edge 17, Type (0, 0), BuildingBlock: OJICUG_clean_linker_0, # of connection points: 2
#     Edge 18, Type (0, 0), BuildingBlock: OJICUG_clean_linker_0, # of connection points: 2
#     Edge 19, Type (0, 0), BuildingBlock: OJICUG_clean_linker_0, # of connection points: 2
#     Edge 20, Type (0, 0), BuildingBlock: OJICUG_clean_linker_0, # of connection points: 2
# Relax obj value: 0.854
# Max RMSD: 0.232
# Mean RMSD: 0.230
data_MOF--net-cab--node1-XOMCOT_clean_sbu_0--edge1-OJICUG_clean_linker_0
_symmetry_space_group_name_H-M    P1
_symmetry_Int_Tables_number       1
_symmetry_cell_setting            triclinic
loop_
_symmetry_equiv_pos_as_xyz
'x, y, z'
_cell_length_a     27.895323
_cell_length_b     28.309968
_cell_length_c     28.056857
_cell_angle_alpha  76.543308
_cell_angle_beta   76.179865
_cell_angle_gamma 77.580858
loop_
_atom_site_label
_atom_site_type_symbol
_atom_site_fract_x
_atom_site_fract_y
_atom_site_fract_z
_atom_type_partial_charge
Co0 Co 0.01983 0.00264 0.35551 0.0
C1 C 0.04986 0.89496 0.36345 0.0
C2 C 0.98774 0.91183 0.42176 0.0
C3 C 0.99521 0.86194 0.42228 0.0
N4 N 0.0217 0.93277 0.38422 0.0
N5 N 0.03468 0.85177 0.3859 0.0
H6 H 0.078 0.89891 0.32948 0.0
H7 H 0.95774 0.93148 0.44556 0.0
C8 C 0.90675 0.00569 0.37122 0.0
O9 O 0.89709 0.00439 0.41955 0.0
N10 N 0.01684 0.07163 0.32545 0.0
C11 C 0.03802 0.10493 0.33693 0.0
C12 C 0.02808 0.14926 0.30512 0.0
C13 C 0.99532 0.09562 0.28631 0.0
N14 N 0.00132 0.14329 0.27332 0.0
C15 C 0.02488 -0.00587 0.45634 0.0
C16 C 0.95929 0.08001 0.47217 0.0
C17 C 0.98896 0.05554 0.50724 0.0
C18 C 0.02043 0.01107 0.50004 0.0
C19 C 0.96386 0.06095 0.42937 0.0
N20 N 0.99747 0.01925 0.42129 0.0
H21 H 0.05322 0.96264 0.44892 0.0
H22 H 0.94302 0.08161 0.40105 0.0
H23 H 0.05952 0.09731 0.36605 0.0
H24 H 0.97622 0.07835 0.26741 0.0
O25 O 0.09104 -0.00306 0.35106 0.0
O26 O 0.05592 0.98777 0.2914 0.0
O27 O 0.95081 0.00606 0.3448 0.0
C28 C 0.09646 0.98986 0.30571 0.0
H29 H 0.97161 0.83595 0.44508 0.0
H30 H 0.04118 0.18284 0.30423 0.0
H31 H 0.93506 0.11485 0.47644 0.0
H32 H 0.04491 -0.00813 0.52572 0.0
Co33 Co 0.13019 0.165 0.76624 0.0
C34 C 0.04275 0.18332 0.84862 0.0
C35 C 0.02137 0.15786 0.7918 0.0
C36 C 0.98011 0.16493 0.82914 0.0
N37 N 0.06082 0.1704 0.8032 0.0
N38 N 0.99358 0.18091 0.86481 0.0
H39 H 0.06497 0.19341 0.87019 0.0
H40 H 0.02212 0.14236 0.75994 0.0
C41 C 0.16501 0.07356 0.83344 0.0
O42 O 0.18715 0.1001 0.85131 0.0
N43 N 0.19994 0.15881 0.73126 0.0
C44 C 0.22177 0.1462 0.68649 0.0
C45 C 0.27313 0.13551 0.68311 0.0
C46 C 0.23845 0.15759 0.75299 0.0
N47 N 0.28332 0.14277 0.72523 0.0
C48 C 0.08301 0.18654 0.68213 0.0
C49 C 0.09537 0.0903 0.66988 0.0
C50 C 0.06344 0.12691 0.64382 0.0
C51 C 0.05885 0.17586 0.64874 0.0
C52 C 0.11855 0.10241 0.70304 0.0
N53 N 0.11027 0.14969 0.71063 0.0
H54 H 0.07651 0.22398 0.68779 0.0
H55 H 0.14263 0.07337 0.72276 0.0
H56 H 0.2023 0.14188 0.65924 0.0
H57 H 0.23394 0.16257 0.79088 0.0
O58 O 0.12237 0.23591 0.74581 0.0
O59 O 0.1469 0.19272 0.81507 0.0
O60 O 0.14046 0.09368 0.79897 0.0
C61 C 0.13588 0.23544 0.7871 0.0
H62 H 0.94356 0.15642 0.83115 0.0
H63 H 0.30038 0.12017 0.65372 0.0
H64 H 0.10192 0.05236 0.66524 0.0
H65 H 0.03494 0.20532 0.62889 0.0
Co66 Co 0.35877 0.00288 0.0207 0.0
C67 C 0.38776 0.03805 0.91043 0.0
C68 C 0.36704 0.96672 0.92884 0.0
C69 C 0.37263 0.98254 0.87824 0.0
N70 N 0.37791 0.00066 0.94948 0.0
N71 N 0.38502 0.02789 0.86632 0.0
H72 H 0.39146 0.0739 0.91482 0.0
H73 H 0.34949 0.93558 0.94917 0.0
C74 C 0.39317 0.89461 0.02507 0.0
O75 O 0.43504 0.90327 0.99388 0.0
N76 N 0.33641 0.00459 0.09099 0.0
C77 C 0.3481 0.03279 0.11769 0.0
C78 C 0.31508 0.02994 0.16321 0.0
C79 C 0.29671 0.98531 0.12013 0.0
N80 N 0.28244 0.00042 0.16441 0.0
C81 C 0.45643 0.02701 -0.00126 0.0
C82 C 0.48951 0.96253 0.07931 0.0
C83 C 0.51821 -0.00171 0.05103 0.0
C84 C 0.50171 0.02985 0.00948 0.0
C85 C 0.44411 0.96109 0.06733 0.0
N86 N 0.42779 -0.00643 0.02779 0.0
H87 H 0.44272 0.05447 0.96938 0.0
H88 H 0.4206 0.93592 0.09182 0.0
H89 H 0.37646 0.05609 0.10388 0.0
H90 H 0.27704 0.96288 0.10771 0.0
O91 O 0.34668 0.07342 0.00616 0.0
O92 O 0.28989 0.02702 0.01257 0.0
O93 O 0.35889 0.92996 0.03773 0.0
C94 C 0.30073 0.07099 0.00626 0.0
H95 H 0.36134 0.96476 0.85347 0.0
H96 H 0.31311 0.05081 0.19161 0.0
H97 H 0.50084 0.93735 0.11169 0.0
H98 H 0.52166 0.05906 0.98736 0.0
Co99 Co 0.02164 0.33769 0.02873 0.0
C100 C 0.9144 0.38166 0.05086 0.0
C101 C 0.94072 0.3899 0.97209 0.0
C102 C 0.88962 0.40389 0.9813 0.0
N103 N 0.95681 0.37573 0.01586 0.0
N104 N 0.87264 0.39728 0.03111 0.0
H105 H 0.91322 0.3689 0.09042 0.0
H106 H 0.96232 0.3851 0.93588 0.0
C107 C 0.05695 0.36368 0.91686 0.0
O108 O 0.04469 0.41137 0.91555 0.0
N109 N 0.08459 0.29853 0.04156 0.0
C110 C 0.1118 0.30371 0.07319 0.0
C111 C 0.15388 0.26784 0.07101 0.0
C112 C 0.10939 0.25893 0.02177 0.0
N113 N 0.1521 0.23984 0.03877 0.0
C114 C 0.02388 0.43304 0.04385 0.0
C115 C 0.12128 0.43778 0.992 0.0
C116 C 0.09575 0.47403 0.01931 0.0
C117 C 0.04639 0.47206 0.04496 0.0
C118 C 0.09781 0.39895 0.99266 0.0
N119 N 0.04965 0.39698 0.01822 0.0
H120 H 0.98671 0.43034 0.06573 0.0
H121 H 0.11922 0.36937 0.97416 0.0
H122 H 0.10188 0.33183 0.09582 0.0
H123 H 0.0968 0.2448 0.99503 0.0
O124 O 0.99774 0.33027 0.09969 0.0
O125 O 0.99228 0.27823 0.05377 0.0
O126 O 0.04596 0.33215 0.95676 0.0
C127 C 0.98618 0.28861 0.09804 0.0
H128 H 0.86654 0.41241 0.95342 0.0
H129 H 0.18331 0.26238 0.09185 0.0
H130 H 0.15982 0.43809 0.9726 0.0
H131 H 0.02609 0.49957 0.06694 0.0
Co132 Co 0.81245 0.12441 0.11831 0.0
C133 C 0.7656 0.22943 0.11142 0.0
C134 C 0.77152 0.19638 0.18665 0.0
C135 C 0.75656 0.24621 0.18382 0.0
N136 N 0.7769 0.18529 0.14118 0.0
N137 N 0.75436 0.26759 0.13597 0.0
H138 H 0.77159 0.23423 0.07127 0.0
H139 H 0.78349 0.17202 0.21879 0.0
C140 C 0.78742 0.08008 0.22814 0.0
O141 O 0.73943 0.09772 0.23116 0.0
N142 N 0.8494 0.06505 0.09596 0.0
C143 C 0.84143 0.044 0.06077 0.0
C144 C 0.87786 0.00303 0.05572 0.0
C145 C 0.89097 0.03768 0.11089 0.0
N146 N 0.90891 -0.00064 0.08715 0.0
C147 C 0.71554 0.13079 0.09942 0.0
C148 C 0.70626 0.03336 0.13993 0.0
C149 C 0.67217 0.06262 0.11137 0.0
C150 C 0.6762 0.1121 0.09198 0.0
C151 C 0.74565 0.05324 0.14571 0.0
N152 N 0.75025 0.10127 0.12504 0.0
H153 H 0.72011 0.16806 0.08148 0.0
H154 H 0.77435 0.02898 0.16387 0.0
H155 H 0.81139 0.05758 0.04026 0.0
H156 H 0.9076 0.04558 0.13869 0.0
O157 O 0.81868 0.15731 0.04972 0.0
O158 O 0.8742 0.15169 0.09657 0.0
O159 O 0.81941 0.09043 0.18795 0.0
C160 C 0.8617 0.16578 0.05281 0.0
H161 H 0.75371 0.26533 0.21382 0.0
H162 H 0.88179 0.97833 0.03029 0.0
H163 H 0.70444 -0.00528 0.15469 0.0
H164 H 0.65043 0.1355 0.06941 0.0
Co165 Co 0.1536 0.79567 0.08029 0.0
C166 C 0.12 0.7631 0.19034 0.0
C167 C 0.1935 0.78123 0.17148 0.0
C168 C 0.17936 0.77156 0.22239 0.0
N169 N 0.15718 0.77433 0.15083 0.0
N170 N 0.13278 0.76061 0.23457 0.0
H171 H 0.08268 0.76152 0.1868 0.0
H172 H 0.22544 0.79822 0.15162 0.0
C173 C 0.26471 0.76288 0.07087 0.0
O174 O 0.25794 0.72021 0.0999 0.0
N175 N 0.151 0.81984 0.01076 0.0
C176 C 0.1224 0.81003 0.98304 0.0
C177 C 0.12507 0.84459 0.93902 0.0
C178 C 0.17041 0.85962 0.98377 0.0
N179 N 0.15509 0.87599 0.93983 0.0
C180 C 0.13138 0.69919 0.10163 0.0
C181 C 0.19719 0.66629 0.02077 0.0
C182 C 0.1645 0.63585 0.05264 0.0
C183 C 0.13178 0.65266 0.09372 0.0
C184 C 0.19592 0.71284 0.03048 0.0
N185 N 0.1634 0.72852 0.07082 0.0
H186 H 0.10302 0.71258 0.13093 0.0
H187 H 0.21967 0.737 0.00457 0.0
H188 H 0.09897 0.78186 0.99521 0.0
H189 H 0.19155 0.87879 -0.00153 0.0
O190 O 0.08182 0.80694 0.0964 0.0
O191 O 0.12872 0.86258 0.09169 0.0
O192 O 0.22756 0.79649 0.0618 0.0
C193 C 0.0841 0.85177 0.09827 0.0
H194 H 0.19924 0.77883 0.24796 0.0
H195 H 0.10442 0.84769 0.91003 0.0
H196 H 0.22236 0.65483 0.98807 0.0
H197 H 0.10431 0.6313 0.11798 0.0
C198 C 0.97149 0.26539 0.19079 0.0
C199 C 0.97679 0.25166 0.14455 0.0
H200 H 0.97488 0.24137 0.26823 0.0
C201 C 0.98256 0.20143 0.14303 0.0
H202 H 0.96647 0.30381 0.19334 0.0
C203 C 0.98754 0.16554 0.1862 0.0
C204 C 0.98703 0.1794 0.23138 0.0
H205 H 0.98688 0.18971 0.10792 0.0
H206 H 0.99525 0.12705 0.18334 0.0
C207 C 0.97674 0.22966 0.23366 0.0
C208 C 0.84681 0.01222 0.26476 0.0
C209 C 0.80685 0.05108 0.27193 0.0
H210 H 0.9093 0.96604 0.29242 0.0
C211 C 0.79294 0.06699 0.31786 0.0
H212 H 0.85766 -0.00091 0.22972 0.0
C213 C 0.82274 0.04803 0.35397 0.0
C214 C 0.86622 0.01323 0.34394 0.0
H215 H 0.76223 0.09713 0.32382 0.0
H216 H 0.81463 0.064 0.38716 0.0
C217 C 0.8762 -0.00669 0.30058 0.0
C218 C 0.09435 0.77999 0.36486 0.0
C219 C 0.04776 0.80994 0.36246 0.0
H220 H 0.15783 0.73755 0.32563 0.0
C221 C 0.02358 0.81013 0.32401 0.0
H222 H 0.11348 0.77969 0.39431 0.0
C223 C 0.0494 0.78774 0.28373 0.0
C224 C 0.09961 0.76465 0.28199 0.0
H225 H 0.98767 0.83356 0.3216 0.0
H226 H 0.03208 0.79419 0.25168 0.0
C227 C 0.11985 0.75666 0.32517 0.0
C228 C 0.23307 -0.00156 0.25077 0.0
C229 C 0.23715 -0.00658 0.20119 0.0
H230 H 0.18565 0.00067 0.32288 0.0
C231 C 0.19528 0.98382 0.18751 0.0
H232 H 0.26467 0.00523 0.26274 0.0
C233 C 0.15015 0.98093 0.222 0.0
C234 C 0.1457 0.98753 0.27102 0.0
H235 H 0.19653 0.98036 0.14964 0.0
H236 H 0.11833 0.97488 0.20974 0.0
C237 C 0.18787 -0.00453 0.28532 0.0
C238 C 0.20074 0.94651 0.90813 0.0
C239 C 0.16159 0.92278 0.90707 0.0
H240 H 0.23226 0.01276 0.88613 0.0
C241 C 0.12645 0.94774 0.87723 0.0
H242 H 0.22939 0.92807 0.92939 0.0
C243 C 0.12878 -0.00386 0.85154 0.0
C244 C 0.16591 0.02075 0.85563 0.0
H245 H 0.09574 0.93095 0.87545 0.0
H246 H 0.10013 0.01501 0.83032 0.0
C247 C 0.20256 -0.00493 0.88317 0.0
C248 C 0.3601 0.11282 0.82157 0.0
C249 C 0.3777 0.06253 0.82079 0.0
H250 H 0.31734 0.17942 0.78885 0.0
C251 C 0.37795 0.04514 0.77754 0.0
H252 H 0.36022 0.12835 0.85326 0.0
C253 C 0.35237 0.07449 0.74091 0.0
C254 C 0.32703 0.12194 0.74665 0.0
H255 H 0.39329 0.0072 0.77453 0.0
H256 H 0.34741 0.05791 0.71172 0.0
C257 C 0.33541 0.14236 0.78446 0.0
C258 C 0.15163 0.2783 0.84715 0.0
C259 C 0.12865 0.28013 0.80735 0.0
H260 H 0.14622 0.30523 0.91353 0.0
C261 C 0.08952 0.31896 0.79664 0.0
H262 H 0.18217 0.24893 0.85573 0.0
C263 C 0.0688 0.3512 0.82996 0.0
C264 C 0.08759 0.34455 0.87349 0.0
H265 H 0.07122 0.32089 0.76609 0.0
H266 H 0.03513 0.37748 0.82454 0.0
C267 C 0.13103 0.31032 0.8802 0.0
C268 C 0.87861 0.2026 0.96241 0.0
C269 C 0.89704 0.18233 0.00653 0.0
H270 H 0.8954 0.21842 0.88245 0.0
C271 C 0.94909 0.16946 0.00352 0.0
H272 H 0.83871 0.21343 0.96359 0.0
C273 C 0.98167 0.17229 0.9567 0.0
C274 C 0.96248 0.18784 0.91248 0.0
H275 H 0.96431 0.15352 0.03693 0.0
H276 H 0.02128 0.1588 0.95511 0.0
C277 C 0.91097 0.20519 0.91593 0.0
C278 C 0.27614 0.16014 0.00899 0.0
C279 C 0.26223 0.11587 0.00693 0.0
H280 H 0.25164 0.23409 0.02121 0.0
C281 C 0.2113 0.11431 0.01134 0.0
H282 H 0.31503 0.16278 0.00556 0.0
C283 C 0.17492 0.15581 0.01981 0.0
C284 C 0.18903 0.1989 0.02488 0.0
H285 H 0.19949 0.08069 0.01 0.0
H286 H 0.13573 0.15355 0.02471 0.0
C287 C 0.23993 0.20097 0.01831 0.0
C288 C 0.36735 0.82935 -0.00272 0.0
C289 C 0.37896 0.84597 0.03581 0.0
H290 H 0.32003 0.78866 0.9789 0.0
C291 C 0.36311 0.82377 0.08569 0.0
H292 H 0.37903 0.8464 0.95856 0.0
C293 C 0.33129 0.7891 0.09717 0.0
C294 C 0.31359 0.77823 0.05888 0.0
H295 H 0.37139 0.83665 0.11583 0.0
H296 H 0.31576 0.77571 0.13605 0.0
C297 C 0.33386 0.79627 0.00883 0.0
C298 C 0.78126 0.34515 0.13713 0.0
C299 C 0.76241 0.31724 0.11245 0.0
H300 H 0.83071 0.39579 0.12927 0.0
C301 C 0.76433 0.33317 0.06077 0.0
H302 H 0.77822 0.33666 0.1772 0.0
C303 C 0.7955 0.36667 0.03313 0.0
C304 C 0.82414 0.38543 0.05718 0.0
H305 H 0.74712 0.31519 0.04077 0.0
H306 H 0.80177 0.37234 0.99283 0.0
C307 C 0.81167 0.37933 0.10954 0.0
C308 C 0.9936 0.87732 0.09558 0.0
C309 C 0.03816 0.88933 0.10095 0.0
H310 H 0.91777 0.90319 0.08658 0.0
C311 C 0.03878 0.93791 0.10442 0.0
H312 H 0.99178 0.84027 0.0927 0.0
C313 C 0.99582 0.97396 0.10136 0.0
C314 C 0.95206 0.96209 0.09383 0.0
H315 H 0.07261 0.94824 0.10842 0.0
H316 H 0.99731 0.01142 0.10304 0.0
C317 C 0.95124 0.91335 0.09164 0.0
C318 C 0.03124 0.14231 0.56454 0.0
C319 C 0.03528 0.11348 0.61192 0.0
H320 H 0.01195 0.14648 0.49412 0.0
C321 C 0.01492 0.06976 0.62755 0.0
H322 H 0.04657 0.17615 0.55149 0.0
C323 C 0.99524 0.05283 0.59474 0.0
C324 C 0.99506 0.07964 0.54602 0.0
H325 H 0.01615 0.04754 0.66445 0.0
H326 H 0.98289 0.01739 0.60637 0.0
C327 C 0.01111 0.12553 0.53184 0.0
C328 C 0.63893 0.04056 0.04661 0.0
C329 C 0.63577 0.04067 0.09718 0.0
H330 H 0.60554 0.02453 0.99251 0.0
C331 C 0.59712 0.02138 0.13328 0.0
H332 H 0.66917 0.05455 0.01836 0.0
C333 C 0.56005 0.00504 0.11854 0.0
C334 C 0.56169 0.00713 0.06752 0.0
H335 H 0.59439 0.02106 0.17252 0.0
H336 H 0.52886 -0.00674 0.14691 0.0
C337 C 0.60253 0.02346 0.03194 0.0
C338 C 0.15013 0.54909 0.07979 0.0
C339 C 0.15891 0.58949 0.04081 0.0
H340 H 0.12207 0.48095 0.10321 0.0
C341 C 0.15315 0.58833 0.99269 0.0
H342 H 0.15501 0.54882 0.11703 0.0
C343 C 0.13483 0.54919 0.98479 0.0
C344 C 0.12182 0.51136 0.02503 0.0
H345 H 0.15927 0.61919 0.96212 0.0
H346 H 0.12807 0.54987 0.94817 0.0
C347 C 0.13119 0.51053 0.07205 0.0
loop_
_geom_bond_atom_site_label_1
_geom_bond_atom_site_label_2
_geom_bond_distance
_geom_bond_site_symmetry_2
_ccdc_geom_bond_type
Co0 N4 2.148 1_545 S
Co0 N10 2.128 . S
Co0 N20 2.194 . S
Co0 O25 2.351 1_545 S
Co0 O26 2.155 . S
Co0 O27 2.096 1_455 S
C1 N4 1.301 . S
C1 N5 1.328 . S
C1 H6 0.930 . S
C2 C3 1.333 . S
C2 N4 1.317 1_655 S
C2 H7 0.930 . S
C3 C2 1.333 . S
C3 N5 1.350 1_655 S
C3 H29 0.931 . S
N4 Co0 2.148 1_565 S
N4 C1 1.301 . S
N4 C2 1.317 1_455 S
N5 C1 1.328 . S
N5 C3 1.350 1_455 S
H6 C1 0.930 . S
H7 C2 0.930 . S
C8 O9 1.224 . S
C8 O27 1.247 . S
O9 C8 1.224 . S
N10 Co0 2.128 . S
N10 C11 1.355 . S
N10 C13 1.311 1_455 S
C11 N10 1.355 . S
C11 C12 1.363 . S
C11 H23 0.929 . S
C12 C11 1.363 . S
C12 N14 1.375 . S
C12 H30 0.931 . S
C13 N10 1.311 1_655 S
C13 N14 1.347 1_655 S
C13 H24 0.929 . S
N14 C12 1.375 . S
N14 C13 1.347 1_455 S
C15 C18 1.371 . S
C15 N20 1.328 . S
C15 H21 0.924 1_545 S
C16 C17 1.362 1_655 S
C16 C19 1.378 . S
C16 H31 0.929 . S
C17 C16 1.362 1_455 S
C17 C18 1.366 . S
C18 C15 1.371 . S
C18 C17 1.366 . S
C18 H32 0.930 1_545 S
C19 C16 1.378 . S
C19 N20 1.315 1_655 S
C19 H22 0.930 . S
N20 Co0 2.194 . S
N20 C15 1.328 . S
N20 C19 1.315 1_455 S
H21 C15 0.924 1_565 S
H22 C19 0.930 . S
H23 C11 0.929 . S
H24 C13 0.929 . S
O25 Co0 2.351 1_565 S
O25 C28 1.249 . S
O26 Co0 2.155 . S
O26 C28 1.240 1_545 S
O27 Co0 2.096 1_655 S
O27 C8 1.247 . S
C28 O25 1.249 . S
C28 O26 1.240 1_565 S
H29 C3 0.931 . S
H30 C12 0.931 . S
H31 C16 0.929 . S
H32 C18 0.930 1_565 S
Co33 N37 2.148 . S
Co33 N43 2.128 . S
Co33 N53 2.194 . S
Co33 O58 2.351 . S
Co33 O59 2.155 . S
Co33 O60 2.096 . S
C34 N37 1.301 . S
C34 N38 1.328 1_455 S
C34 H39 0.930 . S
C35 C36 1.333 . S
C35 N37 1.317 . S
C35 H40 0.930 . S
C36 C35 1.333 . S
C36 N38 1.350 1_455 S
C36 H62 0.931 1_455 S
N37 Co33 2.148 . S
N37 C34 1.301 . S
N37 C35 1.317 . S
N38 C34 1.328 1_655 S
N38 C36 1.350 1_655 S
H39 C34 0.930 . S
H40 C35 0.930 . S
C41 O42 1.224 . S
C41 O60 1.247 . S
O42 C41 1.224 . S
N43 Co33 2.128 . S
N43 C44 1.355 . S
N43 C46 1.311 . S
C44 N43 1.355 . S
C44 C45 1.363 . S
C44 H56 0.929 . S
C45 C44 1.363 . S
C45 N47 1.375 . S
C45 H63 0.931 . S
C46 N43 1.311 . S
C46 N47 1.347 . S
C46 H57 0.929 . S
N47 C45 1.375 . S
N47 C46 1.347 . S
C48 C51 1.365 . S
C48 N53 1.328 . S
C48 H54 0.929 . S
C49 C50 1.362 . S
C49 C52 1.378 . S
C49 H64 0.929 . S
C50 C49 1.362 . S
C50 C51 1.366 . S
C51 C48 1.365 . S
C51 C50 1.366 . S
C51 H65 0.930 . S
C52 C49 1.378 . S
C52 N53 1.315 . S
C52 H55 0.930 . S
N53 Co33 2.194 . S
N53 C48 1.328 . S
N53 C52 1.315 . S
H54 C48 0.929 . S
H55 C52 0.930 . S
H56 C44 0.929 . S
H57 C46 0.929 . S
O58 Co33 2.351 . S
O58 C61 1.244 . S
O59 Co33 2.155 . S
O59 C61 1.240 . S
O60 Co33 2.096 . S
O60 C41 1.247 . S
C61 O58 1.244 . S
C61 O59 1.240 . S
H62 C36 0.931 1_655 S
H63 C45 0.931 . S
H64 C49 0.929 . S
H65 C51 0.930 . S
Co66 N70 2.148 1_554 S
Co66 N76 2.128 . S
Co66 N86 2.194 . S
Co66 O91 2.351 1_554 S
Co66 O92 2.155 . S
Co66 O93 2.096 1_545 S
C67 N70 1.301 . S
C67 N71 1.328 . S
C67 H72 0.930 . S
C68 C69 1.333 1_565 S
C68 N70 1.317 1_565 S
C68 H73 0.930 . S
C69 C68 1.333 1_545 S
C69 N71 1.350 . S
C69 H95 0.931 1_545 S
N70 Co66 2.148 1_556 S
N70 C67 1.301 . S
N70 C68 1.317 1_545 S
N71 C67 1.328 . S
N71 C69 1.350 . S
H72 C67 0.930 . S
H73 C68 0.930 . S
C74 O75 1.224 . S
C74 O93 1.247 . S
O75 C74 1.224 . S
N76 Co66 2.128 . S
N76 C77 1.355 . S
N76 C79 1.311 1_545 S
C77 N76 1.355 . S
C77 C78 1.363 . S
C77 H89 0.929 . S
C78 C77 1.363 . S
C78 N80 1.391 . S
C78 H96 0.931 . S
C79 N76 1.311 1_565 S
C79 N80 1.341 1_565 S
C79 H90 0.929 . S
N80 C78 1.391 . S
N80 C79 1.341 1_545 S
C81 C84 1.359 1_556 S
C81 N86 1.328 1_556 S
C81 H87 0.929 . S
C82 C83 1.362 1_565 S
C82 C85 1.378 . S
C82 H97 0.929 . S
C83 C82 1.362 1_545 S
C83 C84 1.372 . S
C84 C81 1.359 1_554 S
C84 C83 1.372 . S
C84 H98 0.932 1_554 S
C85 C82 1.378 . S
C85 N86 1.315 1_565 S
C85 H88 0.930 . S
N86 Co66 2.194 . S
N86 C81 1.328 1_554 S
N86 C85 1.315 1_545 S
H87 C81 0.929 . S
H88 C85 0.930 . S
H89 C77 0.929 . S
H90 C79 0.929 . S
O91 Co66 2.351 1_556 S
O91 C94 1.244 . S
O92 Co66 2.155 . S
O92 C94 1.240 1_554 S
O93 Co66 2.096 1_565 S
O93 C74 1.247 . S
C94 O91 1.244 . S
C94 O92 1.240 1_556 S
H95 C69 0.931 1_565 S
H96 C78 0.931 . S
H97 C82 0.929 . S
H98 C84 0.932 1_556 S
Co99 N103 2.148 1_455 S
Co99 N109 2.128 . S
Co99 N119 2.194 . S
Co99 O124 2.351 . S
Co99 O125 2.155 . S
Co99 O126 2.096 1_554 S
C100 N103 1.301 . S
C100 N104 1.328 . S
C100 H105 0.930 . S
C101 C102 1.333 . S
C101 N103 1.317 1_556 S
C101 H106 0.930 . S
C102 C101 1.333 . S
C102 N104 1.350 1_556 S
C102 H128 0.931 . S
N103 Co99 2.148 1_655 S
N103 C100 1.301 . S
N103 C101 1.317 1_554 S
N104 C100 1.328 . S
N104 C102 1.350 1_554 S
H105 C100 0.930 . S
H106 C101 0.930 . S
C107 O108 1.224 . S
C107 O126 1.247 . S
O108 C107 1.224 . S
N109 Co99 2.128 . S
N109 C110 1.355 . S
N109 C112 1.311 1_554 S
C110 N109 1.355 . S
C110 C111 1.363 . S
C110 H122 0.929 . S
C111 C110 1.363 . S
C111 N113 1.375 1_554 S
C111 H129 0.931 . S
C112 N109 1.311 1_556 S
C112 N113 1.347 . S
C112 H123 0.929 . S
N113 C111 1.375 1_556 S
N113 C112 1.347 . S
C114 C117 1.365 . S
C114 N119 1.328 . S
C114 H120 0.929 1_455 S
C115 C116 1.362 1_556 S
C115 C118 1.378 . S
C115 H130 0.929 . S
C116 C115 1.362 1_554 S
C116 C117 1.366 . S
C117 C114 1.365 . S
C117 C116 1.366 . S
C117 H131 0.930 . S
C118 C115 1.378 . S
C118 N119 1.315 1_556 S
C118 H121 0.930 . S
N119 Co99 2.194 . S
N119 C114 1.328 . S
N119 C118 1.315 1_554 S
H120 C114 0.929 1_655 S
H121 C118 0.930 . S
H122 C110 0.929 . S
H123 C112 0.929 . S
O124 Co99 2.351 . S
O124 C127 1.244 . S
O125 Co99 2.155 . S
O125 C127 1.240 . S
O126 Co99 2.096 1_556 S
O126 C107 1.247 . S
C127 O124 1.244 . S
C127 O125 1.240 . S
H128 C102 0.931 . S
H129 C111 0.931 . S
H130 C115 0.929 . S
H131 C117 0.930 . S
Co132 N136 2.148 . S
Co132 N142 2.128 . S
Co132 N152 2.194 . S
Co132 O157 2.351 . S
Co132 O158 2.155 . S
Co132 O159 2.096 . S
C133 N136 1.301 . S
C133 N137 1.328 . S
C133 H138 0.930 . S
C134 C135 1.333 . S
C134 N136 1.317 . S
C134 H139 0.930 . S
C135 C134 1.333 . S
C135 N137 1.350 . S
C135 H161 0.931 . S
N136 Co132 2.148 . S
N136 C133 1.301 . S
N136 C134 1.317 . S
N137 C133 1.328 . S
N137 C135 1.350 . S
H138 C133 0.930 . S
H139 C134 0.930 . S
C140 O141 1.224 . S
C140 O159 1.247 . S
O141 C140 1.224 . S
N142 Co132 2.128 . S
N142 C143 1.355 . S
N142 C145 1.311 . S
C143 N142 1.355 . S
C143 C144 1.363 1_545 S
C143 H155 0.929 . S
C144 C143 1.363 1_565 S
C144 N146 1.375 . S
C144 H162 0.931 . S
C145 N142 1.311 . S
C145 N146 1.347 1_545 S
C145 H156 0.929 . S
N146 C144 1.375 . S
N146 C145 1.347 1_565 S
C147 C150 1.365 . S
C147 N152 1.328 . S
C147 H153 0.929 . S
C148 C149 1.362 . S
C148 C151 1.378 . S
C148 H163 0.929 . S
C149 C148 1.362 . S
C149 C150 1.366 . S
C150 C147 1.365 . S
C150 C149 1.366 . S
C150 H164 0.930 . S
C151 C148 1.378 . S
C151 N152 1.315 . S
C151 H154 0.930 . S
N152 Co132 2.194 . S
N152 C147 1.328 . S
N152 C151 1.315 . S
H153 C147 0.929 . S
H154 C151 0.930 . S
H155 C143 0.929 . S
H156 C145 0.929 . S
O157 Co132 2.351 . S
O157 C160 1.244 . S
O158 Co132 2.155 . S
O158 C160 1.240 . S
O159 Co132 2.096 . S
O159 C140 1.247 . S
C160 O157 1.244 . S
C160 O158 1.240 . S
H161 C135 0.931 . S
H162 C144 0.931 . S
H163 C148 0.929 . S
H164 C150 0.930 . S
Co165 N169 2.148 . S
Co165 N175 2.128 . S
Co165 N185 2.194 . S
Co165 O190 2.351 . S
Co165 O191 2.155 . S
Co165 O192 2.096 . S
C166 N169 1.301 . S
C166 N170 1.328 . S
C166 H171 0.930 . S
C167 C168 1.333 . S
C167 N169 1.317 . S
C167 H172 0.930 . S
C168 C167 1.333 . S
C168 N170 1.350 . S
C168 H194 0.931 . S
N169 Co165 2.148 . S
N169 C166 1.301 . S
N169 C167 1.317 . S
N170 C166 1.328 . S
N170 C168 1.350 . S
H171 C166 0.930 . S
H172 C167 0.930 . S
C173 O174 1.224 . S
C173 O192 1.247 . S
O174 C173 1.224 . S
N175 Co165 2.128 . S
N175 C176 1.355 . S
N175 C178 1.311 . S
C176 N175 1.355 . S
C176 C177 1.363 1_554 S
C176 H188 0.929 . S
C177 C176 1.363 1_556 S
C177 N179 1.375 . S
C177 H195 0.931 . S
C178 N175 1.311 . S
C178 N179 1.347 1_554 S
C178 H189 0.929 . S
N179 C177 1.375 . S
N179 C178 1.347 1_556 S
C180 C183 1.365 . S
C180 N185 1.328 . S
C180 H186 0.929 . S
C181 C182 1.362 . S
C181 C184 1.378 . S
C181 H196 0.929 . S
C182 C181 1.362 . S
C182 C183 1.366 . S
C183 C180 1.365 . S
C183 C182 1.366 . S
C183 H197 0.930 . S
C184 C181 1.378 . S
C184 N185 1.315 . S
C184 H187 0.930 . S
N185 Co165 2.194 . S
N185 C180 1.328 . S
N185 C184 1.315 . S
H186 C180 0.929 . S
H187 C184 0.930 . S
H188 C176 0.929 . S
H189 C178 0.929 . S
O190 Co165 2.351 . S
O190 C193 1.244 . S
O191 Co165 2.155 . S
O191 C193 1.240 . S
O192 Co165 2.096 . S
O192 C173 1.247 . S
C193 O190 1.244 . S
C193 O191 1.240 . S
H194 C168 0.931 . S
H195 C177 0.931 . S
H196 C181 0.929 . S
H197 C183 0.930 . S
C198 C199 1.387 1_455 S
C198 H202 0.950 . S
C198 C207 1.390 . S
C199 C198 1.387 1_655 S
C199 C201 1.387 . S
H200 C207 0.950 . S
C201 C199 1.387 . S
C201 C203 1.390 . S
C201 H205 0.950 . S
H202 C198 0.950 . S
C203 C201 1.390 . S
C203 C204 1.387 . S
C203 H206 0.950 . S
C204 C203 1.387 . S
C204 C207 1.387 1_655 S
H205 C201 0.950 . S
H206 C203 0.950 . S
C207 C198 1.390 . S
C207 H200 0.950 . S
C207 C204 1.387 1_455 S
C208 C209 1.387 . S
C208 H212 0.950 . S
C208 C217 1.390 . S
C209 C208 1.387 . S
C209 C211 1.387 . S
H210 C217 0.950 1_565 S
C211 C209 1.387 . S
C211 C213 1.390 . S
C211 H215 0.950 . S
H212 C208 0.950 . S
C213 C211 1.390 . S
C213 C214 1.387 . S
C213 H216 0.950 . S
C214 C213 1.387 . S
C214 C217 1.387 . S
H215 C211 0.950 . S
H216 C213 0.950 . S
C217 C208 1.390 . S
C217 H210 0.950 1_545 S
C217 C214 1.387 . S
C218 C219 1.387 . S
C218 H222 0.950 . S
C218 C227 1.390 . S
C219 C218 1.387 . S
C219 C221 1.387 . S
H220 C227 0.950 . S
C221 C219 1.387 . S
C221 C223 1.390 . S
C221 H225 0.950 . S
H222 C218 0.950 . S
C223 C221 1.390 . S
C223 C224 1.387 . S
C223 H226 0.950 . S
C224 C223 1.387 . S
C224 C227 1.387 . S
H225 C221 0.950 . S
H226 C223 0.950 . S
C227 C218 1.390 . S
C227 H220 0.950 . S
C227 C224 1.387 . S
C228 C229 1.387 1_545 S
C228 H232 0.950 . S
C228 C237 1.390 . S
C229 C228 1.387 1_565 S
C229 C231 1.387 . S
H230 C237 0.950 . S
C231 C229 1.387 . S
C231 C233 1.390 . S
C231 H235 0.950 . S
H232 C228 0.950 . S
C233 C231 1.390 . S
C233 C234 1.387 . S
C233 H236 0.950 . S
C234 C233 1.387 . S
C234 C237 1.387 1_565 S
H235 C231 0.950 . S
H236 C233 0.950 . S
C237 C228 1.390 . S
C237 H230 0.950 . S
C237 C234 1.387 1_545 S
C238 C239 1.387 . S
C238 H242 0.950 . S
C238 C247 1.390 . S
C239 C238 1.387 . S
C239 C241 1.387 . S
H240 C247 0.950 . S
C241 C239 1.387 . S
C241 C243 1.390 . S
C241 H245 0.950 . S
H242 C238 0.950 . S
C243 C241 1.390 . S
C243 C244 1.387 . S
C243 H246 0.950 . S
C244 C243 1.387 . S
C244 C247 1.387 . S
H245 C241 0.950 . S
H246 C243 0.950 . S
C247 C238 1.390 . S
C247 H240 0.950 . S
C247 C244 1.387 . S
C248 C249 1.387 . S
C248 H252 0.950 . S
C248 C257 1.390 . S
C249 C248 1.387 . S
C249 C251 1.387 . S
H250 C257 0.950 . S
C251 C249 1.387 . S
C251 C253 1.390 . S
C251 H255 0.950 1_545 S
H252 C248 0.950 . S
C253 C251 1.390 . S
C253 C254 1.387 . S
C253 H256 0.950 . S
C254 C253 1.387 . S
C254 C257 1.387 . S
H255 C251 0.950 1_565 S
H256 C253 0.950 . S
C257 C248 1.390 . S
C257 H250 0.950 . S
C257 C254 1.387 . S
C258 C259 1.387 . S
C258 H262 0.950 . S
C258 C267 1.390 . S
C259 C258 1.387 . S
C259 C261 1.387 . S
H260 C267 0.950 . S
C261 C259 1.387 . S
C261 C263 1.390 . S
C261 H265 0.950 . S
H262 C258 0.950 . S
C263 C261 1.390 . S
C263 C264 1.387 . S
C263 H266 0.950 . S
C264 C263 1.387 . S
C264 C267 1.387 . S
H265 C261 0.950 . S
H266 C263 0.950 . S
C267 C258 1.390 . S
C267 H260 0.950 . S
C267 C264 1.387 . S
C268 C269 1.387 . S
C268 H272 0.950 . S
C268 C277 1.390 . S
C269 C268 1.387 . S
C269 C271 1.387 . S
H270 C277 0.950 . S
C271 C269 1.387 . S
C271 C273 1.390 . S
C271 H275 0.950 . S
H272 C268 0.950 . S
C273 C271 1.390 . S
C273 C274 1.387 . S
C273 H276 0.950 . S
C274 C273 1.387 . S
C274 C277 1.387 . S
H275 C271 0.950 . S
H276 C273 0.950 . S
C277 C268 1.390 . S
C277 H270 0.950 . S
C277 C274 1.387 . S
C278 C279 1.387 1_554 S
C278 H282 0.950 . S
C278 C287 1.390 . S
C279 C278 1.387 1_556 S
C279 C281 1.387 . S
H280 C287 0.950 . S
C281 C279 1.387 . S
C281 C283 1.390 . S
C281 H285 0.950 . S
H282 C278 0.950 . S
C283 C281 1.390 . S
C283 C284 1.387 . S
C283 H286 0.950 . S
C284 C283 1.387 . S
C284 C287 1.387 1_556 S
H285 C281 0.950 . S
H286 C283 0.950 . S
C287 C278 1.390 . S
C287 H280 0.950 . S
C287 C284 1.387 1_554 S
C288 C289 1.387 . S
C288 H292 0.950 1_554 S
C288 C297 1.390 . S
C289 C288 1.387 . S
C289 C291 1.387 . S
H290 C297 0.950 . S
C291 C289 1.387 . S
C291 C293 1.390 . S
C291 H295 0.950 . S
H292 C288 0.950 1_556 S
C293 C291 1.390 . S
C293 C294 1.387 . S
C293 H296 0.950 . S
C294 C293 1.387 . S
C294 C297 1.387 . S
H295 C291 0.950 . S
H296 C293 0.950 . S
C297 C288 1.390 . S
C297 H290 0.950 . S
C297 C294 1.387 . S
C298 C299 1.387 . S
C298 H302 0.950 . S
C298 C307 1.390 . S
C299 C298 1.387 . S
C299 C301 1.387 . S
H300 C307 0.950 . S
C301 C299 1.387 . S
C301 C303 1.390 . S
C301 H305 0.950 . S
H302 C298 0.950 . S
C303 C301 1.390 . S
C303 C304 1.387 . S
C303 H306 0.950 1_554 S
C304 C303 1.387 . S
C304 C307 1.387 . S
H305 C301 0.950 . S
H306 C303 0.950 1_556 S
C307 C298 1.390 . S
C307 H300 0.950 . S
C307 C304 1.387 . S
C308 C309 1.387 . S
C308 H312 0.950 . S
C308 C317 1.390 . S
C309 C308 1.387 . S
C309 C311 1.387 . S
H310 C317 0.950 . S
C311 C309 1.387 . S
C311 C313 1.390 . S
C311 H315 0.950 . S
H312 C308 0.950 . S
C313 C311 1.390 . S
C313 C314 1.387 . S
C313 H316 0.950 . S
C314 C313 1.387 . S
C314 C317 1.387 . S
H315 C311 0.950 . S
H316 C313 0.950 . S
C317 C308 1.390 . S
C317 H310 0.950 . S
C317 C314 1.387 . S
C318 C319 1.387 . S
C318 H322 0.950 . S
C318 C327 1.390 . S
C319 C318 1.387 . S
C319 C321 1.387 . S
H320 C327 0.950 . S
C321 C319 1.387 . S
C321 C323 1.390 . S
C321 H325 0.950 . S
H322 C318 0.950 . S
C323 C321 1.390 . S
C323 C324 1.387 . S
C323 H326 0.950 1_545 S
C324 C323 1.387 . S
C324 C327 1.387 . S
H325 C321 0.950 . S
H326 C323 0.950 1_565 S
C327 C318 1.390 . S
C327 H320 0.950 . S
C327 C324 1.387 . S
C328 C329 1.387 . S
C328 H332 0.950 . S
C328 C337 1.390 . S
C329 C328 1.387 . S
C329 C331 1.387 . S
H330 C337 0.950 . S
C331 C329 1.387 . S
C331 C333 1.390 . S
C331 H335 0.950 . S
H332 C328 0.950 . S
C333 C331 1.390 . S
C333 C334 1.387 . S
C333 H336 0.950 . S
C334 C333 1.387 . S
C334 C337 1.387 . S
H335 C331 0.950 . S
H336 C333 0.950 . S
C337 C328 1.390 . S
C337 H330 0.950 . S
C337 C334 1.387 . S
C338 C339 1.387 . S
C338 H342 0.950 . S
C338 C347 1.390 . S
C339 C338 1.387 . S
C339 C341 1.387 . S
H340 C347 0.950 . S
C341 C339 1.387 . S
C341 C343 1.390 . S
C341 H345 0.950 . S
H342 C338 0.950 . S
C343 C341 1.390 . S
C343 C344 1.387 . S
C343 H346 0.950 1_554 S
C344 C343 1.387 . S
C344 C347 1.387 . S
H345 C341 0.950 . S
H346 C343 0.950 1_556 S
C347 C338 1.390 . S
C347 H340 0.950 . S
C347 C344 1.387 . S
C199 C127 1.747 1_655 S
C204 N14 1.566 1_655 S
C209 C140 1.115 . S
C214 C8 1.098 . S
C219 N5 0.849 . S
C224 N170 0.863 . S
C229 N80 1.578 1_565 S
C234 C28 1.766 . S
C239 N179 1.607 . S
C244 C41 1.773 1_565 S
C249 N71 0.837 . S
C254 N47 0.880 . S
C259 C61 1.107 . S
C264 C107 1.117 . S
C269 C160 1.749 1_556 S
C274 N38 1.400 . S
C279 C94 1.736 . S
C284 N113 1.561 . S
C289 C74 1.010 . S
C294 C173 1.009 . S
C299 N137 0.821 . S
C304 N104 0.812 . S
C309 C193 1.768 1_655 S
C314 N146 1.591 . S
C319 C50 1.521 . S
C324 C17 1.559 . S
C329 C149 1.426 . S
C334 C83 1.424 . S
C339 C182 1.443 . S
C344 C116 1.446 . S
