# Generated by pormake.
# Topology gsi, (4)-cn, num edge types: 1
# Building blocks:
#     Node 0, Type 0, BuildingBlock: AZAVOO_clean_sbu_0, # of connection points: 4
#     Node 1, Type 0, BuildingBlock: AZAVOO_clean_sbu_0, # of connection points: 4
#     Node 2, Type 0, BuildingBlock: AZAVOO_clean_sbu_0, # of connection points: 4
#     Node 3, Type 0, BuildingBlock: AZAVOO_clean_sbu_0, # of connection points: 4
#     Node 4, Type 0, BuildingBlock: AZAVOO_clean_sbu_0, # of connection points: 4
#     Node 5, Type 0, BuildingBlock: AZAVOO_clean_sbu_0, # of connection points: 4
#     Node 6, Type 0, BuildingBlock: AZAVOO_clean_sbu_0, # of connection points: 4
#     Node 7, Type 0, BuildingBlock: AZAVOO_clean_sbu_0, # of connection points: 4
#     Node 8, Type 0, BuildingBlock: AZAVOO_clean_sbu_0, # of connection points: 4
#     Node 9, Type 0, BuildingBlock: AZAVOO_clean_sbu_0, # of connection points: 4
#     Node 10, Type 0, BuildingBlock: AZAVOO_clean_sbu_0, # of connection points: 4
#     Node 11, Type 0, BuildingBlock: AZAVOO_clean_sbu_0, # of connection points: 4
#     Node 12, Type 0, BuildingBlock: AZAVOO_clean_sbu_0, # of connection points: 4
#     Node 13, Type 0, BuildingBlock: AZAVOO_clean_sbu_0, # of connection points: 4
#     Node 14, Type 0, BuildingBlock: AZAVOO_clean_sbu_0, # of connection points: 4
#     Node 15, Type 0, BuildingBlock: AZAVOO_clean_sbu_0, # of connection points: 4
#     Edge 16, Type (0, 0), BuildingBlock: CIFDUS_clean_linker_0, # of connection points: 2
#     Edge 17, Type (0, 0), BuildingBlock: CIFDUS_clean_linker_0, # of connection points: 2
#     Edge 18, Type (0, 0), BuildingBlock: CIFDUS_clean_linker_0, # of connection points: 2
#     Edge 19, Type (0, 0), BuildingBlock: CIFDUS_clean_linker_0, # of connection points: 2
#     Edge 20, Type (0, 0), BuildingBlock: CIFDUS_clean_linker_0, # of connection points: 2
#     Edge 21, Type (0, 0), BuildingBlock: CIFDUS_clean_linker_0, # of connection points: 2
#     Edge 22, Type (0, 0), BuildingBlock: CIFDUS_clean_linker_0, # of connection points: 2
#     Edge 23, Type (0, 0), BuildingBlock: CIFDUS_clean_linker_0, # of connection points: 2
#     Edge 24, Type (0, 0), BuildingBlock: CIFDUS_clean_linker_0, # of connection points: 2
#     Edge 25, Type (0, 0), BuildingBlock: CIFDUS_clean_linker_0, # of connection points: 2
#     Edge 26, Type (0, 0), BuildingBlock: CIFDUS_clean_linker_0, # of connection points: 2
#     Edge 27, Type (0, 0), BuildingBlock: CIFDUS_clean_linker_0, # of connection points: 2
#     Edge 28, Type (0, 0), BuildingBlock: CIFDUS_clean_linker_0, # of connection points: 2
#     Edge 29, Type (0, 0), BuildingBlock: CIFDUS_clean_linker_0, # of connection points: 2
#     Edge 30, Type (0, 0), BuildingBlock: CIFDUS_clean_linker_0, # of connection points: 2
#     Edge 31, Type (0, 0), BuildingBlock: CIFDUS_clean_linker_0, # of connection points: 2
#     Edge 32, Type (0, 0), BuildingBlock: CIFDUS_clean_linker_0, # of connection points: 2
#     Edge 33, Type (0, 0), BuildingBlock: CIFDUS_clean_linker_0, # of connection points: 2
#     Edge 34, Type (0, 0), BuildingBlock: CIFDUS_clean_linker_0, # of connection points: 2
#     Edge 35, Type (0, 0), BuildingBlock: CIFDUS_clean_linker_0, # of connection points: 2
#     Edge 36, Type (0, 0), BuildingBlock: CIFDUS_clean_linker_0, # of connection points: 2
#     Edge 37, Type (0, 0), BuildingBlock: CIFDUS_clean_linker_0, # of connection points: 2
#     Edge 38, Type (0, 0), BuildingBlock: CIFDUS_clean_linker_0, # of connection points: 2
#     Edge 39, Type (0, 0), BuildingBlock: CIFDUS_clean_linker_0, # of connection points: 2
#     Edge 40, Type (0, 0), BuildingBlock: CIFDUS_clean_linker_0, # of connection points: 2
#     Edge 41, Type (0, 0), BuildingBlock: CIFDUS_clean_linker_0, # of connection points: 2
#     Edge 42, Type (0, 0), BuildingBlock: CIFDUS_clean_linker_0, # of connection points: 2
#     Edge 43, Type (0, 0), BuildingBlock: CIFDUS_clean_linker_0, # of connection points: 2
#     Edge 44, Type (0, 0), BuildingBlock: CIFDUS_clean_linker_0, # of connection points: 2
#     Edge 45, Type (0, 0), BuildingBlock: CIFDUS_clean_linker_0, # of connection points: 2
#     Edge 46, Type (0, 0), BuildingBlock: CIFDUS_clean_linker_0, # of connection points: 2
#     Edge 47, Type (0, 0), BuildingBlock: CIFDUS_clean_linker_0, # of connection points: 2
# Relax obj value: 0.016
# Max RMSD: 0.028
# Mean RMSD: 0.025
data_MOF--net-gsi--node1-AZAVOO_clean_sbu_0--edge1-CIFDUS_clean_linker_0
_symmetry_space_group_name_H-M    P1
_symmetry_Int_Tables_number       1
_symmetry_cell_setting            triclinic
loop_
_symmetry_equiv_pos_as_xyz
'x, y, z'
_cell_length_a     38.064483
_cell_length_b     37.66478
_cell_length_c     37.479512
_cell_angle_alpha  89.903846
_cell_angle_beta   89.795391
_cell_angle_gamma 89.800517
loop_
_atom_site_label
_atom_site_type_symbol
_atom_site_fract_x
_atom_site_fract_y
_atom_site_fract_z
_atom_type_partial_charge
Mg0 Mg 0.15705 0.13664 0.13636 0.0
O1 O 0.19271 0.16734 0.1757 0.0
O2 O 0.23951 0.13278 0.1862 0.0
Mg3 Mg 0.23465 0.08134 0.15499 0.0
C4 C 0.22232 0.16158 0.19085 0.0
C5 C 0.08977 0.17912 0.12513 0.0
O6 O 0.07916 0.14608 0.1281 0.0
O7 O 0.19497 0.15006 0.09089 0.0
O8 O 0.2405 0.11451 0.10393 0.0
O9 O 0.1292 0.10885 0.18085 0.0
O10 O 0.17769 0.089 0.15502 0.0
C11 C 0.22563 0.13776 0.08417 0.0
C12 C 0.15409 0.08543 0.1794 0.0
O13 O 0.12257 0.18546 0.12654 0.0
Mg14 Mg 0.8627 0.35901 0.13786 0.0
O15 O 0.82534 0.33242 0.17909 0.0
O16 O 0.78086 0.37047 0.18786 0.0
Mg17 Mg 0.78912 0.42006 0.15437 0.0
C18 C 0.79614 0.34088 0.194 0.0
C19 C 0.92683 0.31358 0.12481 0.0
O20 O 0.93777 0.34661 0.12346 0.0
O21 O 0.82412 0.34651 0.09301 0.0
O22 O 0.78108 0.38556 0.10473 0.0
O23 O 0.89243 0.38615 0.18082 0.0
O24 O 0.84581 0.40911 0.15444 0.0
C25 C 0.79439 0.36065 0.08591 0.0
C26 C 0.86983 0.41177 0.17843 0.0
O27 O 0.89422 0.3079 0.12979 0.0
Mg28 Mg 0.13869 0.86182 0.34334 0.0
O29 O 0.17349 0.8357 0.29994 0.0
O30 O 0.21821 0.87276 0.28988 0.0
Mg31 Mg 0.21278 0.92118 0.32558 0.0
C32 C 0.20198 0.84383 0.2837 0.0
C33 C 0.07614 0.81451 0.35981 0.0
O34 O 0.06407 0.84681 0.36507 0.0
O35 O 0.17884 0.84658 0.3857 0.0
O36 O 0.22236 0.88459 0.37362 0.0
O37 O 0.1077 0.89112 0.30241 0.0
O38 O 0.15584 0.91196 0.32746 0.0
C39 C 0.20919 0.85936 0.39207 0.0
C40 C 0.13112 0.91587 0.30437 0.0
O41 O 0.10818 0.81055 0.35097 0.0
Mg42 Mg 0.85012 0.63483 0.3431 0.0
O43 O 0.82355 0.6705 0.30114 0.0
O44 O 0.77336 0.64421 0.28547 0.0
Mg45 Mg 0.76887 0.59122 0.31457 0.0
C46 C 0.79499 0.66997 0.28334 0.0
C47 C 0.91981 0.67415 0.35688 0.0
O48 O 0.93113 0.64209 0.34906 0.0
O49 O 0.80937 0.65199 0.38423 0.0
O50 O 0.76154 0.62237 0.36676 0.0
O51 O 0.87911 0.60448 0.30122 0.0
O52 O 0.82615 0.59058 0.32118 0.0
C53 C 0.77722 0.6432 0.38834 0.0
C54 C 0.85166 0.58439 0.29943 0.0
O55 O 0.8869 0.68001 0.35763 0.0
Mg56 Mg 0.3587 0.86741 0.62822 0.0
O57 O 0.33444 0.83208 0.67214 0.0
O58 O 0.28394 0.8578 0.68856 0.0
Mg59 Mg 0.27584 0.90874 0.65682 0.0
C60 C 0.30651 0.83279 0.69118 0.0
C61 C 0.42976 0.83418 0.60965 0.0
O62 O 0.43658 0.86835 0.61041 0.0
O63 O 0.31867 0.84716 0.58817 0.0
O64 O 0.26973 0.87525 0.60598 0.0
O65 O 0.38656 0.90026 0.66838 0.0
O66 O 0.33287 0.91161 0.649 0.0
C67 C 0.28607 0.8545 0.58462 0.0
C68 C 0.35832 0.91943 0.67005 0.0
O69 O 0.39833 0.82402 0.61483 0.0
Mg70 Mg 0.85244 0.85602 0.85623 0.0
O71 O 0.81463 0.8253 0.82153 0.0
O72 O 0.76242 0.85203 0.81798 0.0
Mg73 Mg 0.76699 0.90163 0.85374 0.0
C74 C 0.78327 0.82664 0.80982 0.0
C75 C 0.92757 0.8246 0.82839 0.0
O76 O 0.94043 0.85682 0.83098 0.0
O77 O 0.85966 0.89736 0.81185 0.0
O78 O 0.80844 0.92662 0.81684 0.0
O79 O 0.83358 0.82676 0.90433 0.0
O80 O 0.80952 0.8765 0.88437 0.0
C81 C 0.83922 0.92307 0.80358 0.0
C82 C 0.80879 0.85023 0.90635 0.0
O83 O 0.89546 0.81919 0.83574 0.0
Mg84 Mg 0.15154 0.64443 0.84813 0.0
O85 O 0.19237 0.68052 0.82308 0.0
O86 O 0.24649 0.65808 0.82595 0.0
Mg87 Mg 0.23912 0.60403 0.85363 0.0
C88 C 0.2252 0.68271 0.81693 0.0
C89 C 0.07763 0.67741 0.82573 0.0
O90 O 0.06504 0.64743 0.83829 0.0
O91 O 0.15302 0.60786 0.79927 0.0
O92 O 0.20712 0.58491 0.80572 0.0
O93 O 0.1629 0.66881 0.90096 0.0
O94 O 0.18987 0.62095 0.88006 0.0
C95 C 0.17797 0.5874 0.7891 0.0
C96 C 0.18675 0.64451 0.90468 0.0
O97 O 0.11064 0.68191 0.82473 0.0
Mg98 Mg 0.85063 0.16064 0.63165 0.0
O99 O 0.80736 0.18841 0.66397 0.0
O100 O 0.75919 0.15464 0.66275 0.0
Mg101 Mg 0.77109 0.10604 0.62751 0.0
C102 C 0.77547 0.18247 0.67285 0.0
C103 C 0.92383 0.18633 0.65491 0.0
O104 O 0.92942 0.15261 0.64783 0.0
O105 O 0.85843 0.11983 0.67671 0.0
O106 O 0.81108 0.08555 0.66816 0.0
O107 O 0.8314 0.18753 0.58167 0.0
O108 O 0.81321 0.13533 0.60099 0.0
C109 C 0.84005 0.09231 0.68377 0.0
C110 C 0.8109 0.16045 0.57793 0.0
O111 O 0.89261 0.19827 0.65306 0.0
Mg112 Mg 0.15177 0.35065 0.61657 0.0
O113 O 0.18853 0.31871 0.653 0.0
O114 O 0.24257 0.34151 0.6513 0.0
Mg115 Mg 0.24081 0.38869 0.61245 0.0
C116 C 0.22064 0.31854 0.66276 0.0
C117 C 0.10611 0.28791 0.64024 0.0
O118 O 0.13534 0.27297 0.62898 0.0
O119 O 0.14945 0.39596 0.6576 0.0
O120 O 0.20297 0.41902 0.64912 0.0
O121 O 0.167 0.3171 0.56936 0.0
O122 O 0.19524 0.36537 0.58613 0.0
C123 C 0.1725 0.41988 0.66355 0.0
C124 C 0.19326 0.33843 0.56534 0.0
O125 O 0.10385 0.32164 0.63984 0.0
Mg126 Mg 0.64768 0.15797 0.35605 0.0
O127 O 0.69103 0.18914 0.32614 0.0
O128 O 0.74288 0.16502 0.34072 0.0
Mg129 Mg 0.73307 0.11801 0.37791 0.0
C130 C 0.7246 0.18801 0.32384 0.0
C131 C 0.57501 0.16842 0.32265 0.0
O132 O 0.57448 0.13523 0.3335 0.0
O133 O 0.65287 0.1127 0.31521 0.0
O134 O 0.70552 0.09122 0.33118 0.0
O135 O 0.65529 0.19266 0.4042 0.0
O136 O 0.68354 0.1423 0.39433 0.0
C137 C 0.67833 0.09077 0.31134 0.0
C138 C 0.67899 0.16992 0.41386 0.0
O139 O 0.60352 0.1857 0.3254 0.0
Mg140 Mg 0.63632 0.63959 0.634 0.0
O141 O 0.66413 0.67711 0.67357 0.0
O142 O 0.71526 0.65101 0.68712 0.0
Mg143 Mg 0.72011 0.59789 0.6588 0.0
C144 C 0.69356 0.6768 0.68996 0.0
C145 C 0.56499 0.67211 0.61616 0.0
O146 O 0.55827 0.63802 0.61899 0.0
O147 O 0.67407 0.65666 0.5899 0.0
O148 O 0.72348 0.62851 0.60595 0.0
O149 O 0.61065 0.60962 0.67834 0.0
O150 O 0.66278 0.59643 0.65573 0.0
C151 C 0.70627 0.64848 0.58461 0.0
C152 C 0.63877 0.59024 0.67913 0.0
O153 O 0.59646 0.68258 0.62012 0.0
Mg154 Mg 0.64177 0.3691 0.84761 0.0
O155 O 0.67492 0.33944 0.80471 0.0
O156 O 0.71906 0.37616 0.79108 0.0
Mg157 Mg 0.7149 0.42714 0.82317 0.0
C158 C 0.70298 0.34673 0.78722 0.0
C159 C 0.57831 0.32959 0.87025 0.0
O160 O 0.57149 0.36364 0.87369 0.0
O161 O 0.68342 0.35638 0.88921 0.0
O162 O 0.72631 0.39388 0.87349 0.0
O163 O 0.60912 0.39547 0.80644 0.0
O164 O 0.65821 0.41805 0.82771 0.0
C165 C 0.71385 0.36974 0.8939 0.0
C166 C 0.63222 0.42057 0.80587 0.0
O167 O 0.60904 0.32028 0.86046 0.0
Mg168 Mg 0.37277 0.13693 0.84163 0.0
O169 O 0.34361 0.17357 0.80179 0.0
O170 O 0.29509 0.14446 0.7857 0.0
Mg171 Mg 0.29371 0.09025 0.81259 0.0
C172 C 0.31483 0.17176 0.78433 0.0
C173 C 0.44135 0.17016 0.86158 0.0
O174 O 0.4477 0.13604 0.85788 0.0
O175 O 0.33231 0.15016 0.88462 0.0
O176 O 0.2858 0.11901 0.86617 0.0
O177 O 0.4024 0.11088 0.79788 0.0
O178 O 0.35113 0.09204 0.81798 0.0
C179 C 0.30067 0.13957 0.88858 0.0
C180 C 0.37676 0.08853 0.79568 0.0
O181 O 0.40995 0.18123 0.85785 0.0
Mg182 Mg 0.35931 0.3577 0.34542 0.0
O183 O 0.31976 0.32627 0.31149 0.0
O184 O 0.26813 0.35482 0.31501 0.0
Mg185 Mg 0.27352 0.40213 0.35297 0.0
C186 C 0.28729 0.32946 0.30321 0.0
C187 C 0.40807 0.29519 0.31937 0.0
O188 O 0.38027 0.2768 0.32882 0.0
O189 O 0.3609 0.40102 0.30257 0.0
O190 O 0.31019 0.42976 0.31292 0.0
O191 O 0.3455 0.32527 0.39371 0.0
O192 O 0.31776 0.37424 0.37726 0.0
C193 C 0.33961 0.42664 0.29673 0.0
C194 C 0.31962 0.3472 0.39814 0.0
O195 O 0.40683 0.32889 0.32127 0.0
Mg196 Mg 0.3516 0.66548 0.12481 0.0
O197 O 0.30642 0.69115 0.15526 0.0
O198 O 0.25779 0.65889 0.14839 0.0
Mg199 Mg 0.27235 0.61259 0.11093 0.0
C200 C 0.27392 0.68558 0.1614 0.0
C201 C 0.42155 0.69047 0.15844 0.0
O202 O 0.42903 0.65708 0.15157 0.0
O203 O 0.35555 0.62205 0.1675 0.0
O204 O 0.3089 0.58874 0.15339 0.0
O205 O 0.33664 0.69675 0.07652 0.0
O206 O 0.31646 0.64317 0.08919 0.0
C207 C 0.33662 0.59437 0.17162 0.0
C208 C 0.31591 0.67071 0.06886 0.0
O209 O 0.39057 0.70162 0.15267 0.0
Mg210 Mg 0.64124 0.8641 0.12525 0.0
O211 O 0.67806 0.82916 0.15835 0.0
O212 O 0.73346 0.848 0.15557 0.0
Mg213 Mg 0.73201 0.89763 0.12 0.0
C214 C 0.71036 0.82609 0.1667 0.0
C215 C 0.59724 0.8009 0.14762 0.0
O216 O 0.62571 0.7873 0.13314 0.0
O217 O 0.64225 0.90686 0.16888 0.0
O218 O 0.69712 0.92632 0.16071 0.0
O219 O 0.65331 0.83232 0.07617 0.0
O220 O 0.68421 0.87864 0.09389 0.0
C221 C 0.66723 0.92825 0.17626 0.0
C222 C 0.68039 0.85257 0.07222 0.0
O223 O 0.59424 0.83454 0.14932 0.0
H224 H 0.196 0.22741 0.20719 0.0
H225 H 0.28534 0.15868 0.22527 0.0
H226 H 0.3135 0.20463 0.26036 0.0
H227 H 0.31324 0.26427 0.28603 0.0
H228 H 0.22377 0.333 0.26938 0.0
H229 H 0.19551 0.28723 0.23361 0.0
C230 C 0.22156 0.22241 0.21889 0.0
C231 C 0.23838 0.1895 0.21344 0.0
C232 C 0.23781 0.24905 0.23923 0.0
C233 C 0.27159 0.18364 0.2289 0.0
C234 C 0.28787 0.20998 0.24898 0.0
C235 C 0.28766 0.26938 0.27442 0.0
C236 C 0.27079 0.30212 0.28035 0.0
C237 C 0.27131 0.24281 0.25423 0.0
C238 C 0.23743 0.30805 0.26533 0.0
C239 C 0.22118 0.28186 0.24485 0.0
H240 H 0.82321 0.28054 0.22438 0.0
H241 H 0.72874 0.34414 0.21858 0.0
H242 H 0.69847 0.30275 0.2578 0.0
H243 H 0.69827 0.24832 0.29363 0.0
H244 H 0.79288 0.18522 0.30101 0.0
H245 H 0.82336 0.22651 0.26152 0.0
C246 C 0.79601 0.28534 0.23168 0.0
C247 C 0.77841 0.31547 0.21841 0.0
C248 C 0.77863 0.26148 0.25462 0.0
C249 C 0.74315 0.3213 0.22841 0.0
C250 C 0.72567 0.29757 0.25084 0.0
C251 C 0.72554 0.24354 0.2866 0.0
C252 C 0.74312 0.21362 0.30028 0.0
C253 C 0.7431 0.26755 0.26407 0.0
C254 C 0.77861 0.20808 0.29102 0.0
C255 C 0.79612 0.23166 0.26833 0.0
H256 H 0.29449 0.75189 0.17901 0.0
H257 H 0.20967 0.67758 0.19417 0.0
H258 H 0.17915 0.72033 0.2326 0.0
H259 H 0.1776 0.77843 0.26327 0.0
H260 H 0.26291 0.85212 0.24635 0.0
H261 H 0.29195 0.80993 0.20716 0.0
C262 C 0.26934 0.7449 0.19071 0.0
C263 C 0.25457 0.71143 0.18394 0.0
C264 C 0.25194 0.76955 0.21249 0.0
C265 C 0.22169 0.70314 0.19897 0.0
C266 C 0.20424 0.72757 0.22099 0.0
C267 C 0.20243 0.78534 0.25086 0.0
C268 C 0.21801 0.81845 0.25806 0.0
C269 C 0.21924 0.76082 0.22812 0.0
C270 C 0.25021 0.8269 0.24155 0.0
C271 C 0.26697 0.80274 0.21909 0.0
H272 H 0.73093 0.68593 0.25641 0.0
H273 H 0.83765 0.72406 0.26033 0.0
H274 H 0.82101 0.77589 0.22464 0.0
H275 H 0.77587 0.81045 0.19254 0.0
H276 H 0.66894 0.7722 0.19099 0.0
H277 H 0.68611 0.72047 0.2256 0.0
C278 C 0.75069 0.7054 0.24931 0.0
C279 C 0.78554 0.70095 0.26087 0.0
C280 C 0.74088 0.73527 0.22931 0.0
C281 C 0.81063 0.72678 0.25176 0.0
C282 C 0.80113 0.75645 0.23137 0.0
C283 C 0.7563 0.79085 0.19981 0.0
C284 C 0.72116 0.79533 0.18893 0.0
C285 C 0.76627 0.76102 0.22008 0.0
C286 C 0.69619 0.76961 0.19879 0.0
C287 C 0.70596 0.73988 0.21862 0.0
H288 H 0.25039 0.82633 0.73536 0.0
H289 H 0.34535 0.77209 0.7029 0.0
H290 H 0.32987 0.72156 0.74088 0.0
H291 H 0.28733 0.69136 0.78074 0.0
H292 H 0.19186 0.74619 0.81076 0.0
H293 H 0.20978 0.79784 0.77638 0.0
C294 C 0.26793 0.80361 0.73662 0.0
C295 C 0.29889 0.80304 0.71603 0.0
C296 C 0.25869 0.77458 0.75805 0.0
C297 C 0.32127 0.7733 0.71833 0.0
C298 C 0.3124 0.74432 0.74002 0.0
C299 C 0.27067 0.71477 0.78002 0.0
C300 C 0.23819 0.71473 0.79814 0.0
C301 C 0.28089 0.74446 0.75963 0.0
C302 C 0.21683 0.74527 0.79683 0.0
C303 C 0.22705 0.77491 0.77718 0.0
H304 H 0.75734 0.68907 0.71881 0.0
H305 H 0.65331 0.73428 0.71049 0.0
H306 H 0.67176 0.7851 0.74654 0.0
H307 H 0.71781 0.81645 0.78077 0.0
H308 H 0.82162 0.7699 0.7872 0.0
H309 H 0.80267 0.72001 0.75144 0.0
C310 C 0.7385 0.70989 0.7249 0.0
C311 C 0.70391 0.70767 0.71206 0.0
C312 C 0.74928 0.73896 0.74527 0.0
C313 C 0.68011 0.73522 0.72005 0.0
C314 C 0.69065 0.76431 0.74066 0.0
C315 C 0.73629 0.79545 0.77425 0.0
C316 C 0.7711 0.7971 0.78687 0.0
C317 C 0.72524 0.76647 0.75343 0.0
C318 C 0.79465 0.76954 0.77806 0.0
C319 C 0.78388 0.74084 0.75757 0.0
H320 H 0.68052 0.27887 0.77301 0.0
H321 H 0.76184 0.35437 0.74644 0.0
H322 H 0.79098 0.31049 0.70933 0.0
H323 H 0.79473 0.25056 0.68528 0.0
H324 H 0.71365 0.1745 0.70996 0.0
H325 H 0.68329 0.21866 0.74677 0.0
C326 C 0.70449 0.28579 0.75894 0.0
C327 C 0.71889 0.31998 0.76284 0.0
C328 C 0.7214 0.26026 0.73736 0.0
C329 C 0.75002 0.32836 0.74424 0.0
C330 C 0.76687 0.30321 0.72294 0.0
C331 C 0.77046 0.24351 0.69876 0.0
C332 C 0.75669 0.20914 0.69502 0.0
C333 C 0.75302 0.26904 0.71956 0.0
C334 C 0.72492 0.20074 0.71236 0.0
C335 C 0.70753 0.226 0.73345 0.0
H336 H 0.28614 0.30949 0.69159 0.0
H337 H 0.18276 0.26252 0.68826 0.0
H338 H 0.20299 0.21348 0.72518 0.0
H339 H 0.2498 0.18315 0.75741 0.0
H340 H 0.35314 0.22967 0.76247 0.0
H341 H 0.33302 0.27965 0.7259 0.0
C342 C 0.26798 0.28861 0.69902 0.0
C343 C 0.23296 0.28979 0.68688 0.0
C344 C 0.27976 0.26029 0.72048 0.0
C345 C 0.20984 0.26247 0.69702 0.0
C346 C 0.22138 0.23427 0.71815 0.0
C347 C 0.26807 0.20411 0.75048 0.0
C348 C 0.30305 0.20244 0.76247 0.0
C349 C 0.2563 0.23279 0.72978 0.0
C350 C 0.3261 0.2302 0.75357 0.0
C351 C 0.31461 0.25878 0.73264 0.0
H352 H 0.18514 0.95853 0.28385 0.0
H353 H 0.0737 0.94316 0.27103 0.0
H354 H 0.07053 0.99578 0.23285 0.0
H355 H 0.09973 0.04591 0.20267 0.0
H356 H 0.21174 0.05856 0.2127 0.0
H357 H 0.2145 0.00736 0.25279 0.0
C358 C 0.16015 0.9667 0.27293 0.0
C359 C 0.1297 0.94708 0.28049 0.0
C360 C 0.15867 0.99654 0.25056 0.0
C361 C 0.09757 0.95778 0.2655 0.0
C362 C 0.0957 0.98793 0.2438 0.0
C363 C 0.12464 0.0375 0.21392 0.0
C364 C 0.1555 0.05577 0.2049 0.0
C365 C 0.1261 0.00751 0.23617 0.0
C366 C 0.18775 0.04455 0.21906 0.0
C367 C 0.18929 0.01539 0.24204 0.0
H368 H 0.81876 0.46083 0.1922 0.0
H369 H 0.92561 0.43267 0.21826 0.0
H370 H 0.93018 0.4851 0.25617 0.0
H371 H 0.90353 0.53867 0.28246 0.0
H372 H 0.79546 0.56422 0.25973 0.0
H373 H 0.79157 0.51315 0.21969 0.0
C374 C 0.843 0.46603 0.20616 0.0
C375 C 0.87176 0.44283 0.20236 0.0
C376 C 0.84524 0.49586 0.22838 0.0
C377 C 0.90298 0.45 0.22088 0.0
C378 C 0.90569 0.48006 0.24245 0.0
C379 C 0.87928 0.53311 0.26843 0.0
C380 C 0.84984 0.55501 0.27379 0.0
C381 C 0.87699 0.50316 0.24637 0.0
C382 C 0.81833 0.54745 0.2561 0.0
C383 C 0.81615 0.51834 0.23321 0.0
H384 H 0.32797 0.15234 0.95396 0.0
H385 H 0.22984 0.1458 0.89721 0.0
H386 H 0.19733 0.15075 0.95334 0.0
H387 H 0.19709 0.14875 0.01897 0.0
H388 H 0.29549 0.1487 0.07553 0.0
H389 H 0.3276 0.15509 0.01931 0.0
C390 C 0.29947 0.15281 0.95386 0.0
C391 C 0.28132 0.14853 0.9216 0.0
C392 C 0.28101 0.15418 0.98632 0.0
C393 C 0.24438 0.14878 0.92182 0.0
C394 C 0.22578 0.15155 0.95389 0.0
C395 C 0.22549 0.15105 0.01892 0.0
C396 C 0.24398 0.14824 0.05115 0.0
C397 C 0.24383 0.15308 0.98639 0.0
C398 C 0.2808 0.15067 0.05089 0.0
C399 C 0.29915 0.15421 0.01879 0.0
H400 H 0.82154 0.3552 0.01954 0.0
H401 H 0.72508 0.3462 0.07928 0.0
H402 H 0.69159 0.34227 0.02382 0.0
H403 H 0.68914 0.35021 0.95886 0.0
H404 H 0.78503 0.36684 0.89965 0.0
H405 H 0.81943 0.35869 0.95403 0.0
C406 C 0.79331 0.35135 0.02024 0.0
C407 C 0.77568 0.35075 0.05317 0.0
C408 C 0.77413 0.35107 0.98829 0.0
C409 C 0.73905 0.34659 0.05404 0.0
C410 C 0.71994 0.34455 0.02239 0.0
C411 C 0.7176 0.35125 0.95779 0.0
C412 C 0.73457 0.35925 0.92544 0.0
C413 C 0.73707 0.34809 -0.0106 0.0
C414 C 0.77143 0.36097 0.9244 0.0
C415 C 0.79109 0.35635 0.95545 0.0
H416 H 0.31394 0.84433 0.51899 0.0
H417 H 0.21631 0.84035 0.57755 0.0
H418 H 0.1837 0.83463 0.52178 0.0
H419 H 0.1825 0.84093 0.45649 0.0
H420 H 0.27986 0.85229 0.39853 0.0
H421 H 0.31309 0.84441 0.45365 0.0
C422 C 0.28562 0.84118 0.51955 0.0
C423 C 0.26749 0.84294 0.5522 0.0
C424 C 0.26698 0.83972 0.48736 0.0
C425 C 0.23076 0.83928 0.55261 0.0
C426 C 0.21212 0.83616 0.52075 0.0
C427 C 0.211 0.84069 0.4559 0.0
C428 C 0.22879 0.84734 0.42371 0.0
C429 C 0.22984 0.83788 0.48794 0.0
C430 C 0.26569 0.84745 0.42318 0.0
C431 C 0.28466 0.84305 0.45466 0.0
H432 H 0.6761 0.65672 0.51979 0.0
H433 H 0.77555 0.66238 0.57422 0.0
H434 H 0.80628 0.66746 0.51711 0.0
H435 H 0.80545 0.66096 0.45212 0.0
H436 H 0.70641 0.64917 0.39785 0.0
H437 H 0.67491 0.6563 0.45429 0.0
C438 C 0.7044 0.66002 0.51911 0.0
C439 C 0.72361 0.65896 0.55101 0.0
C440 C 0.722 0.66133 0.48615 0.0
C441 C 0.76029 0.66286 0.54987 0.0
C442 C 0.77787 0.66565 0.51726 0.0
C443 C 0.77695 0.6608 0.45253 0.0
C444 C 0.75829 0.6542 0.42098 0.0
C445 C 0.7591 0.66349 0.48523 0.0
C446 C 0.72137 0.65383 0.42193 0.0
C447 C 0.70334 0.65785 0.45418 0.0
H448 H 0.99769 0.31869 0.11815 0.0
H449 H 0.91405 0.24201 0.12704 0.0
H450 H 0.95715 0.19371 0.12656 0.0
H451 H 0.01856 0.17347 0.12572 0.0
H452 H 0.10214 0.25036 0.11803 0.0
H453 H 0.05892 0.29842 0.11583 0.0
C454 C 0.98878 0.29142 0.11981 0.0
C455 C 0.95261 0.28403 0.12272 0.0
C456 C 0.0137 0.26384 0.11983 0.0
C457 C 0.94167 0.24849 0.12483 0.0
C458 C 0.96632 0.22086 0.12459 0.0
C459 C 0.02739 0.20072 0.12339 0.0
C460 C 0.06362 0.20826 0.12214 0.0
C461 C 1.0024 0.22825 0.12243 0.0
C462 C 0.07448 0.24376 0.11911 0.0
C463 C 0.04977 0.27128 0.11788 0.0
H464 H 0.99099 0.6714 0.3508 0.0
H465 H 0.90526 0.74298 0.37473 0.0
H466 H 0.94644 0.79223 0.37964 0.0
H467 H 0.00622 0.81551 0.37421 0.0
H468 H 0.0919 0.74436 0.34893 0.0
H469 H 0.05123 0.69435 0.34769 0.0
C470 C 0.9813 0.69771 0.35734 0.0
C471 C 0.94504 0.70348 0.36221 0.0
C472 C 0.00508 0.72602 0.35976 0.0
C473 C 0.93299 0.73778 0.3707 0.0
C474 C 0.95653 0.76599 0.37349 0.0
C475 C 0.0161 0.78905 0.36866 0.0
C476 C 0.05206 0.78376 0.3615 0.0
C477 C 0.99255 0.76049 0.36761 0.0
C478 C 0.06435 0.74923 0.35444 0.0
C479 C 0.0411 0.72061 0.35367 0.0
H480 H 0.5696 0.74388 0.6082 0.0
H481 H 0.49482 0.65807 0.61309 0.0
H482 H 0.44639 0.70044 0.60949 0.0
H483 H 0.42511 0.76201 0.6084 0.0
H484 H 0.49987 0.84785 0.60361 0.0
H485 H 0.5483 0.80531 0.60346 0.0
C486 C 0.54273 0.73442 0.60824 0.0
C487 C 0.53592 0.69786 0.61121 0.0
C488 C 0.51491 0.75895 0.60629 0.0
C489 C 0.50089 0.68607 0.61098 0.0
C490 C 0.47311 0.71029 0.60897 0.0
C491 C 0.45198 0.77143 0.60703 0.0
C492 C 0.45879 0.8081 0.6063 0.0
C493 C 0.47979 0.74682 0.60714 0.0
C494 C 0.4938 0.81979 0.60434 0.0
C495 C 0.52158 0.79547 0.60433 0.0
H496 H 0.85982 0.02462 0.67331 0.0
H497 H 0.84319 0.10305 0.75516 0.0
H498 H 0.84546 0.05665 0.80109 0.0
H499 H 0.84283 0.99301 0.81632 0.0
H500 H 0.86086 0.9145 0.7348 0.0
H501 H 0.86797 0.96163 0.69005 0.0
C502 C 0.85791 0.03151 0.70135 0.0
C503 C 0.85145 0.06693 0.71115 0.0
C504 C 0.859 0.00469 0.72737 0.0
C505 C 0.84862 0.07591 0.74731 0.0
C506 C 0.84954 0.04936 0.77342 0.0
C507 C 0.84918 0.98641 0.78887 0.0
C508 C 0.85103 0.95062 0.77851 0.0
C509 C 0.85331 0.01357 0.76357 0.0
C510 C 0.85943 0.942 0.74313 0.0
C511 C 0.86325 0.9689 0.71762 0.0
H512 H 0.13153 0.53358 0.78079 0.0
H513 H 0.21693 0.58855 0.72929 0.0
H514 H 0.22065 0.54227 0.68384 0.0
H515 H 0.20456 0.48348 0.66325 0.0
H516 H 0.12122 0.42569 0.71542 0.0
H517 H 0.11156 0.47576 0.7562 0.0
C518 C 0.15012 0.53577 0.75889 0.0
C519 C 0.17368 0.56443 0.75786 0.0
C520 C 0.15298 0.50826 0.73363 0.0
C521 C 0.19834 0.56682 0.73012 0.0
C522 C 0.20067 0.54025 0.70442 0.0
C523 C 0.18416 0.48173 0.68346 0.0
C524 C 0.1641 0.45059 0.68677 0.0
C525 C 0.17899 0.51032 0.70669 0.0
C526 C 0.13724 0.44923 0.71255 0.0
C527 C 0.13174 0.47785 0.73584 0.0
H528 H 0.67201 0.85282 0.00105 0.0
H529 H 0.74883 0.83706 0.08367 0.0
H530 H 0.79541 0.83108 0.0388 0.0
H531 H 0.81475 0.83515 0.97621 0.0
H532 H 0.73878 0.85728 0.89414 0.0
H533 H 0.69127 0.85591 0.93826 0.0
C534 C 0.69892 0.84752 0.00896 0.0
C535 C 0.70729 0.84513 0.04525 0.0
C536 C 0.72562 0.84564 0.98311 0.0
C537 C 0.74211 0.83894 0.05568 0.0
C538 C 0.76864 0.83558 0.0301 0.0
C539 C 0.78769 0.83925 0.9681 0.0
C540 C 0.78006 0.84655 0.93227 0.0
C541 C 0.7608 0.8396 -0.00622 0.0
C542 C 0.74514 0.8522 0.9218 0.0
C543 C 0.71802 0.85124 0.94695 0.0
H544 H 0.20986 0.70105 0.94312 0.0
H545 H 0.21785 0.58712 0.93422 0.0
H546 H 0.25766 0.58523 0.98506 0.0
H547 H 0.29033 0.61575 0.03172 0.0
H548 H 0.28697 0.72996 0.03833 0.0
H549 H 0.24526 0.73214 -0.01138 0.0
C550 C 0.22029 0.67589 0.9525 0.0
C551 C 0.21084 0.64424 0.93527 0.0
C552 C 0.24398 0.6751 0.98117 0.0
C553 C 0.22486 0.6118 0.94714 0.0
C554 C 0.24754 0.61069 0.9762 0.0
C555 C 0.28036 0.6411 0.02232 0.0
C556 C 0.29134 0.67261 0.03868 0.0
C557 C 0.25727 0.64213 -0.00664 0.0
C558 C 0.27879 0.70536 0.02599 0.0
C559 C 0.25494 0.70659 -0.00231 0.0
H560 H 0.7089 0.11926 0.45361 0.0
H561 H 0.69948 0.23293 0.44411 0.0
H562 H 0.74031 0.24058 0.49416 0.0
H563 H 0.77994 0.21417 0.5398 0.0
H564 H 0.78508 0.10009 0.55015 0.0
H565 H 0.74469 0.09333 0.50052 0.0
C566 C 0.71575 0.14574 0.46252 0.0
C567 C 0.7016 0.17548 0.44515 0.0
C568 C 0.73853 0.14979 0.49139 0.0
C569 C 0.71014 0.20964 0.45723 0.0
C570 C 0.73354 0.21398 0.48569 0.0
C571 C 0.77211 0.18793 0.53109 0.0
C572 C 0.78559 0.15767 0.54841 0.0
C573 C 0.74813 0.18417 0.50283 0.0
C574 C 0.77499 0.12378 0.53728 0.0
C575 C 0.75195 0.11985 0.50886 0.0
H576 H 0.18437 0.33634 0.49435 0.0
H577 H 0.26292 0.32881 0.57639 0.0
H578 H 0.3095 0.32672 0.53107 0.0
H579 H 0.32791 0.33244 0.46812 0.0
H580 H 0.24937 0.34739 0.38695 0.0
H581 H 0.20267 0.34108 0.43148 0.0
C582 C 0.21169 0.33353 0.50206 0.0
C583 C 0.2205 0.3323 0.5383 0.0
C584 C 0.23823 0.33411 0.47597 0.0
C585 C 0.25583 0.32957 0.54843 0.0
C586 C 0.28236 0.32851 0.52259 0.0
C587 C 0.30051 0.33383 0.46032 0.0
C588 C 0.29185 0.34043 0.42457 0.0
C589 C 0.27391 0.33156 0.4863 0.0
C590 C 0.25645 0.34268 0.41451 0.0
C591 C 0.22981 0.33898 0.4399 0.0
H592 H 0.00618 0.6774 0.82267 0.0
H593 H 0.09608 0.74633 0.81278 0.0
H594 H 0.05748 0.79802 0.8098 0.0
H595 H 0.99842 0.8242 0.81595 0.0
H596 H 0.90869 0.75491 0.82547 0.0
H597 H 0.94694 0.70314 0.82228 0.0
C598 C 0.01733 0.70368 0.81941 0.0
C599 C 0.05398 0.70791 0.81848 0.0
C600 C 0.995 0.73342 0.81792 0.0
C601 C 0.06795 0.74219 0.8138 0.0
C602 C 0.04589 0.77188 0.81222 0.0
C603 C 0.9872 0.79779 0.81689 0.0
C604 C 0.95077 0.79361 0.82155 0.0
C605 C 0.0094 0.7679 0.8152 0.0
C606 C 0.93667 0.75908 0.82232 0.0
C607 C 0.95853 0.72933 0.82054 0.0
H608 H 0.03751 0.30798 0.65066 0.0
H609 H 0.10632 0.21658 0.65083 0.0
H610 H 0.05616 0.17747 0.65893 0.0
H611 H 0.99268 0.16853 0.66041 0.0
H612 H 0.92298 0.25912 0.65889 0.0
H613 H 0.97348 0.29908 0.65743 0.0
C614 C 0.04154 0.27956 0.65297 0.0
C615 C 0.07565 0.26527 0.64968 0.0
C616 C 0.01238 0.25697 0.65719 0.0
C617 C 0.08038 0.22835 0.65284 0.0
C618 C 0.05168 0.20587 0.65748 0.0
C619 C 0.98845 0.19703 0.66019 0.0
C620 C 0.95404 0.21072 0.65935 0.0
C621 C 0.01753 0.2198 0.6588 0.0
C622 C 0.94916 0.24777 0.6594 0.0
C623 C 0.97805 0.27068 0.65841 0.0
H624 H 0.56413 0.23931 0.31096 0.0
H625 H 0.51031 0.13866 0.31507 0.0
H626 H 0.45383 0.16899 0.31084 0.0
H627 H 0.41948 0.22415 0.31267 0.0
H628 H 0.47294 0.325 0.30964 0.0
H629 H 0.52957 0.29452 0.30633 0.0
C630 C 0.54009 0.22396 0.31031 0.0
C631 C 0.54155 0.18675 0.31382 0.0
C632 C 0.5075 0.24163 0.30841 0.0
C633 C 0.51006 0.16733 0.31275 0.0
C634 C 0.47766 0.18466 0.31043 0.0
C635 C 0.44347 0.23952 0.31082 0.0
C636 C 0.44189 0.27683 0.31192 0.0
C637 C 0.47602 0.22183 0.30934 0.0
C638 C 0.4733 0.29625 0.3091 0.0
C639 C 0.50577 0.27883 0.30732 0.0
H640 H 0.58919 0.54441 0.70113 0.0
H641 H 0.698 0.57192 0.71551 0.0
H642 H 0.7057 0.52191 0.75652 0.0
H643 H 0.68154 0.46974 0.78731 0.0
H644 H 0.5736 0.44003 0.76957 0.0
H645 H 0.56549 0.49139 0.73073 0.0
C646 C 0.61446 0.53953 0.71355 0.0
C647 C 0.64299 0.56164 0.7055 0.0
C648 C 0.61888 0.51021 0.73623 0.0
C649 C 0.67579 0.55495 0.72116 0.0
C650 C 0.68016 0.52644 0.74463 0.0
C651 C 0.6563 0.47441 0.77491 0.0
C652 C 0.62828 0.45103 0.78132 0.0
C653 C 0.65195 0.5037 0.75211 0.0
C654 C 0.59572 0.45749 0.7649 0.0
C655 C 0.59097 0.48694 0.7428 0.0
H656 H 0.32412 0.0429 0.77801 0.0
H657 H 0.43238 0.06814 0.75484 0.0
H658 H 0.43649 0.01719 0.71502 0.0
H659 H 0.40974 0.9648 0.68755 0.0
H660 H 0.30077 0.94129 0.70785 0.0
H661 H 0.29645 0.99218 0.74813 0.0
C662 C 0.3485 0.03747 0.76406 0.0
C663 C 0.37787 0.05931 0.76946 0.0
C664 C 0.35061 0.00829 0.74088 0.0
C665 C 0.4093 0.05185 0.75108 0.0
C666 C 0.41176 0.02261 0.72842 0.0
C667 C 0.38513 0.97081 0.70098 0.0
C668 C 0.35566 0.94943 0.69498 0.0
C669 C 0.38269 1.0005 0.72336 0.0
C670 C 0.32372 0.95762 0.71193 0.0
C671 C 0.32129 0.98663 0.73501 0.0
H672 H 0.43799 0.24121 0.87504 0.0
H673 H 0.51135 0.15495 0.85916 0.0
H674 H 0.5604 0.19621 0.86227 0.0
H675 H 0.58249 0.25734 0.86592 0.0
H676 H 0.50908 0.34342 0.88261 0.0
H677 H 0.46036 0.30172 0.88303 0.0
C678 C 0.46472 0.23141 0.87251 0.0
C679 C 0.47089 0.1951 0.86656 0.0
C680 C 0.49293 0.25528 0.87435 0.0
C681 C 0.50574 0.1828 0.86365 0.0
C682 C 0.5339 0.20639 0.86535 0.0
C683 C 0.55587 0.26692 0.86995 0.0
C684 C 0.54951 0.30348 0.8739 0.0
C685 C 0.5278 0.24277 0.87015 0.0
C686 C 0.51483 0.31543 0.87935 0.0
C687 C 0.48684 0.2916 0.87952 0.0
H688 H 0.34296 0.52401 0.16159 0.0
H689 H 0.35072 0.60527 0.2419 0.0
H690 H 0.35553 0.55966 0.2885 0.0
H691 H 0.35026 0.49664 0.30645 0.0
H692 H 0.34588 0.41555 0.22571 0.0
H693 H 0.34744 0.46102 0.17884 0.0
C694 C 0.3464 0.53159 0.18927 0.0
C695 C 0.34613 0.56768 0.19861 0.0
C696 C 0.34954 0.50531 0.21563 0.0
C697 C 0.35093 0.57752 0.23432 0.0
C698 C 0.35344 0.55149 0.26088 0.0
C699 C 0.35051 0.48909 0.27852 0.0
C700 C 0.34787 0.4531 0.26921 0.0
C701 C 0.35175 0.51534 0.2519 0.0
C702 C 0.34817 0.44322 0.23319 0.0
C703 C 0.3488 0.46918 0.20652 0.0
H704 H 0.62586 0.04541 0.29103 0.0
H705 H 0.73182 0.07799 0.26665 0.0
H706 H 0.7372 0.03099 0.22247 0.0
H707 H 0.71365 0.97932 0.19337 0.0
H708 H 0.60856 0.94348 0.21735 0.0
H709 H 0.60107 0.99286 0.2594 0.0
C710 C 0.64979 0.04239 0.27552 0.0
C711 C 0.67842 0.06502 0.28187 0.0
C712 C 0.65309 0.01449 0.25065 0.0
C713 C 0.70954 0.06074 0.26214 0.0
C714 C 0.71268 0.03384 0.23701 0.0
C715 C 0.68898 0.98205 0.20769 0.0
C716 C 0.66181 0.95745 0.2023 0.0
C717 C 0.68493 0.01022 0.23156 0.0
C718 C 0.63004 0.96187 0.2211 0.0
C719 C 0.6257 0.99018 0.24507 0.0
H720 H 0.52818 0.81761 0.15948 0.0
H721 H 0.60166 0.73004 0.1595 0.0
H722 H 0.55368 0.68823 0.16774 0.0
H723 H 0.49077 0.67589 0.1675 0.0
H724 H 0.41656 0.76276 0.16531 0.0
H725 H 0.46481 0.80533 0.16607 0.0
C726 C 0.53369 0.78944 0.16193 0.0
C727 C 0.56836 0.77693 0.15828 0.0
C728 C 0.50581 0.76531 0.16602 0.0
C729 C 0.57513 0.74035 0.16164 0.0
C730 C 0.54771 0.71636 0.16637 0.0
C731 C 0.48507 0.70412 0.16776 0.0
C732 C 0.45011 0.71604 0.16575 0.0
C733 C 0.51289 0.72844 0.16741 0.0
C734 C 0.44325 0.75278 0.16652 0.0
C735 C 0.47085 0.7772 0.1668 0.0
loop_
_geom_bond_atom_site_label_1
_geom_bond_atom_site_label_2
_geom_bond_distance
_geom_bond_site_symmetry_2
_ccdc_geom_bond_type
Mg0 O1 2.028 . S
Mg0 O7 1.986 . S
Mg0 O9 2.114 . S
Mg0 O10 2.251 . S
Mg0 O13 2.010 . S
O1 Mg0 2.028 . S
O1 C4 1.250 . S
O2 Mg3 2.028 . S
O2 C4 1.248 . S
Mg3 O2 2.028 . S
Mg3 O8 2.032 . S
Mg3 O10 2.079 . S
C4 O1 1.250 . S
C4 O2 1.248 . S
C5 O6 1.264 . S
C5 O13 1.249 . S
O6 C5 1.264 . S
O7 Mg0 1.986 . S
O7 C11 1.246 . S
O8 Mg3 2.032 . S
O8 C11 1.259 . S
O9 Mg0 2.114 . S
O9 C12 1.252 . S
O10 Mg0 2.251 . S
O10 Mg3 2.079 . S
O10 C12 1.273 . S
C11 O7 1.246 . S
C11 O8 1.259 . S
C12 O9 1.252 . S
C12 O10 1.273 . S
O13 Mg0 2.010 . S
O13 C5 1.249 . S
Mg14 O15 2.028 . S
Mg14 O21 1.986 . S
Mg14 O23 2.114 . S
Mg14 O24 2.251 . S
Mg14 O27 2.010 . S
O15 Mg14 2.028 . S
O15 C18 1.250 . S
O16 Mg17 2.028 . S
O16 C18 1.248 . S
Mg17 O16 2.028 . S
Mg17 O22 2.032 . S
Mg17 O24 2.079 . S
C18 O15 1.250 . S
C18 O16 1.248 . S
C19 O20 1.264 . S
C19 O27 1.249 . S
O20 C19 1.264 . S
O21 Mg14 1.986 . S
O21 C25 1.246 . S
O22 Mg17 2.032 . S
O22 C25 1.259 . S
O23 Mg14 2.114 . S
O23 C26 1.252 . S
O24 Mg14 2.251 . S
O24 Mg17 2.079 . S
O24 C26 1.273 . S
C25 O21 1.246 . S
C25 O22 1.259 . S
C26 O23 1.252 . S
C26 O24 1.273 . S
O27 Mg14 2.010 . S
O27 C19 1.249 . S
Mg28 O29 2.028 . S
Mg28 O35 1.986 . S
Mg28 O37 2.114 . S
Mg28 O38 2.251 . S
Mg28 O41 2.010 . S
O29 Mg28 2.028 . S
O29 C32 1.250 . S
O30 Mg31 2.028 . S
O30 C32 1.248 . S
Mg31 O30 2.028 . S
Mg31 O36 2.032 . S
Mg31 O38 2.079 . S
C32 O29 1.250 . S
C32 O30 1.248 . S
C33 O34 1.264 . S
C33 O41 1.249 . S
O34 C33 1.264 . S
O35 Mg28 1.986 . S
O35 C39 1.246 . S
O36 Mg31 2.032 . S
O36 C39 1.259 . S
O37 Mg28 2.114 . S
O37 C40 1.252 . S
O38 Mg28 2.251 . S
O38 Mg31 2.079 . S
O38 C40 1.273 . S
C39 O35 1.246 . S
C39 O36 1.259 . S
C40 O37 1.252 . S
C40 O38 1.273 . S
O41 Mg28 2.010 . S
O41 C33 1.249 . S
Mg42 O43 2.028 . S
Mg42 O49 1.986 . S
Mg42 O51 2.114 . S
Mg42 O52 2.251 . S
Mg42 O55 2.010 . S
O43 Mg42 2.028 . S
O43 C46 1.250 . S
O44 Mg45 2.028 . S
O44 C46 1.248 . S
Mg45 O44 2.028 . S
Mg45 O50 2.032 . S
Mg45 O52 2.079 . S
C46 O43 1.250 . S
C46 O44 1.248 . S
C47 O48 1.264 . S
C47 O55 1.249 . S
O48 C47 1.264 . S
O49 Mg42 1.986 . S
O49 C53 1.246 . S
O50 Mg45 2.032 . S
O50 C53 1.259 . S
O51 Mg42 2.114 . S
O51 C54 1.252 . S
O52 Mg42 2.251 . S
O52 Mg45 2.079 . S
O52 C54 1.273 . S
C53 O49 1.246 . S
C53 O50 1.259 . S
C54 O51 1.252 . S
C54 O52 1.273 . S
O55 Mg42 2.010 . S
O55 C47 1.249 . S
Mg56 O57 2.028 . S
Mg56 O63 1.986 . S
Mg56 O65 2.114 . S
Mg56 O66 2.251 . S
Mg56 O69 2.010 . S
O57 Mg56 2.028 . S
O57 C60 1.250 . S
O58 Mg59 2.028 . S
O58 C60 1.248 . S
Mg59 O58 2.028 . S
Mg59 O64 2.032 . S
Mg59 O66 2.079 . S
C60 O57 1.250 . S
C60 O58 1.248 . S
C61 O62 1.264 . S
C61 O69 1.249 . S
O62 C61 1.264 . S
O63 Mg56 1.986 . S
O63 C67 1.246 . S
O64 Mg59 2.032 . S
O64 C67 1.259 . S
O65 Mg56 2.114 . S
O65 C68 1.252 . S
O66 Mg56 2.251 . S
O66 Mg59 2.079 . S
O66 C68 1.273 . S
C67 O63 1.246 . S
C67 O64 1.259 . S
C68 O65 1.252 . S
C68 O66 1.273 . S
O69 Mg56 2.010 . S
O69 C61 1.249 . S
Mg70 O71 2.028 . S
Mg70 O77 1.986 . S
Mg70 O79 2.114 . S
Mg70 O80 2.251 . S
Mg70 O83 2.010 . S
O71 Mg70 2.028 . S
O71 C74 1.250 . S
O72 Mg73 2.028 . S
O72 C74 1.248 . S
Mg73 O72 2.028 . S
Mg73 O78 2.032 . S
Mg73 O80 2.079 . S
C74 O71 1.250 . S
C74 O72 1.248 . S
C75 O76 1.264 . S
C75 O83 1.249 . S
O76 C75 1.264 . S
O77 Mg70 1.986 . S
O77 C81 1.246 . S
O78 Mg73 2.032 . S
O78 C81 1.259 . S
O79 Mg70 2.114 . S
O79 C82 1.252 . S
O80 Mg70 2.251 . S
O80 Mg73 2.079 . S
O80 C82 1.273 . S
C81 O77 1.246 . S
C81 O78 1.259 . S
C82 O79 1.252 . S
C82 O80 1.273 . S
O83 Mg70 2.010 . S
O83 C75 1.249 . S
Mg84 O85 2.028 . S
Mg84 O91 1.986 . S
Mg84 O93 2.114 . S
Mg84 O94 2.251 . S
Mg84 O97 2.010 . S
O85 Mg84 2.028 . S
O85 C88 1.250 . S
O86 Mg87 2.028 . S
O86 C88 1.248 . S
Mg87 O86 2.028 . S
Mg87 O92 2.032 . S
Mg87 O94 2.079 . S
C88 O85 1.250 . S
C88 O86 1.248 . S
C89 O90 1.264 . S
C89 O97 1.249 . S
O90 C89 1.264 . S
O91 Mg84 1.986 . S
O91 C95 1.246 . S
O92 Mg87 2.032 . S
O92 C95 1.259 . S
O93 Mg84 2.114 . S
O93 C96 1.252 . S
O94 Mg84 2.251 . S
O94 Mg87 2.079 . S
O94 C96 1.273 . S
C95 O91 1.246 . S
C95 O92 1.259 . S
C96 O93 1.252 . S
C96 O94 1.273 . S
O97 Mg84 2.010 . S
O97 C89 1.249 . S
Mg98 O99 2.028 . S
Mg98 O105 1.986 . S
Mg98 O107 2.114 . S
Mg98 O108 2.251 . S
Mg98 O111 2.010 . S
O99 Mg98 2.028 . S
O99 C102 1.250 . S
O100 Mg101 2.028 . S
O100 C102 1.248 . S
Mg101 O100 2.028 . S
Mg101 O106 2.032 . S
Mg101 O108 2.079 . S
C102 O99 1.250 . S
C102 O100 1.248 . S
C103 O104 1.264 . S
C103 O111 1.249 . S
O104 C103 1.264 . S
O105 Mg98 1.986 . S
O105 C109 1.246 . S
O106 Mg101 2.032 . S
O106 C109 1.259 . S
O107 Mg98 2.114 . S
O107 C110 1.252 . S
O108 Mg98 2.251 . S
O108 Mg101 2.079 . S
O108 C110 1.273 . S
C109 O105 1.246 . S
C109 O106 1.259 . S
C110 O107 1.252 . S
C110 O108 1.273 . S
O111 Mg98 2.010 . S
O111 C103 1.249 . S
Mg112 O113 2.028 . S
Mg112 O119 1.986 . S
Mg112 O121 2.114 . S
Mg112 O122 2.251 . S
Mg112 O125 2.010 . S
O113 Mg112 2.028 . S
O113 C116 1.250 . S
O114 Mg115 2.028 . S
O114 C116 1.248 . S
Mg115 O114 2.028 . S
Mg115 O120 2.032 . S
Mg115 O122 2.079 . S
C116 O113 1.250 . S
C116 O114 1.248 . S
C117 O118 1.264 . S
C117 O125 1.249 . S
O118 C117 1.264 . S
O119 Mg112 1.986 . S
O119 C123 1.246 . S
O120 Mg115 2.032 . S
O120 C123 1.259 . S
O121 Mg112 2.114 . S
O121 C124 1.252 . S
O122 Mg112 2.251 . S
O122 Mg115 2.079 . S
O122 C124 1.273 . S
C123 O119 1.246 . S
C123 O120 1.259 . S
C124 O121 1.252 . S
C124 O122 1.273 . S
O125 Mg112 2.010 . S
O125 C117 1.249 . S
Mg126 O127 2.028 . S
Mg126 O133 1.986 . S
Mg126 O135 2.114 . S
Mg126 O136 2.251 . S
Mg126 O139 2.010 . S
O127 Mg126 2.028 . S
O127 C130 1.250 . S
O128 Mg129 2.028 . S
O128 C130 1.248 . S
Mg129 O128 2.028 . S
Mg129 O134 2.032 . S
Mg129 O136 2.079 . S
C130 O127 1.250 . S
C130 O128 1.248 . S
C131 O132 1.264 . S
C131 O139 1.249 . S
O132 C131 1.264 . S
O133 Mg126 1.986 . S
O133 C137 1.246 . S
O134 Mg129 2.032 . S
O134 C137 1.259 . S
O135 Mg126 2.114 . S
O135 C138 1.252 . S
O136 Mg126 2.251 . S
O136 Mg129 2.079 . S
O136 C138 1.273 . S
C137 O133 1.246 . S
C137 O134 1.259 . S
C138 O135 1.252 . S
C138 O136 1.273 . S
O139 Mg126 2.010 . S
O139 C131 1.249 . S
Mg140 O141 2.028 . S
Mg140 O147 1.986 . S
Mg140 O149 2.114 . S
Mg140 O150 2.251 . S
Mg140 O153 2.010 . S
O141 Mg140 2.028 . S
O141 C144 1.250 . S
O142 Mg143 2.028 . S
O142 C144 1.248 . S
Mg143 O142 2.028 . S
Mg143 O148 2.032 . S
Mg143 O150 2.079 . S
C144 O141 1.250 . S
C144 O142 1.248 . S
C145 O146 1.264 . S
C145 O153 1.249 . S
O146 C145 1.264 . S
O147 Mg140 1.986 . S
O147 C151 1.246 . S
O148 Mg143 2.032 . S
O148 C151 1.259 . S
O149 Mg140 2.114 . S
O149 C152 1.252 . S
O150 Mg140 2.251 . S
O150 Mg143 2.079 . S
O150 C152 1.273 . S
C151 O147 1.246 . S
C151 O148 1.259 . S
C152 O149 1.252 . S
C152 O150 1.273 . S
O153 Mg140 2.010 . S
O153 C145 1.249 . S
Mg154 O155 2.028 . S
Mg154 O161 1.986 . S
Mg154 O163 2.114 . S
Mg154 O164 2.251 . S
Mg154 O167 2.010 . S
O155 Mg154 2.028 . S
O155 C158 1.250 . S
O156 Mg157 2.028 . S
O156 C158 1.248 . S
Mg157 O156 2.028 . S
Mg157 O162 2.032 . S
Mg157 O164 2.079 . S
C158 O155 1.250 . S
C158 O156 1.248 . S
C159 O160 1.264 . S
C159 O167 1.249 . S
O160 C159 1.264 . S
O161 Mg154 1.986 . S
O161 C165 1.246 . S
O162 Mg157 2.032 . S
O162 C165 1.259 . S
O163 Mg154 2.114 . S
O163 C166 1.252 . S
O164 Mg154 2.251 . S
O164 Mg157 2.079 . S
O164 C166 1.273 . S
C165 O161 1.246 . S
C165 O162 1.259 . S
C166 O163 1.252 . S
C166 O164 1.273 . S
O167 Mg154 2.010 . S
O167 C159 1.249 . S
Mg168 O169 2.028 . S
Mg168 O175 1.986 . S
Mg168 O177 2.114 . S
Mg168 O178 2.251 . S
Mg168 O181 2.010 . S
O169 Mg168 2.028 . S
O169 C172 1.250 . S
O170 Mg171 2.028 . S
O170 C172 1.248 . S
Mg171 O170 2.028 . S
Mg171 O176 2.032 . S
Mg171 O178 2.079 . S
C172 O169 1.250 . S
C172 O170 1.248 . S
C173 O174 1.264 . S
C173 O181 1.249 . S
O174 C173 1.264 . S
O175 Mg168 1.986 . S
O175 C179 1.246 . S
O176 Mg171 2.032 . S
O176 C179 1.259 . S
O177 Mg168 2.114 . S
O177 C180 1.252 . S
O178 Mg168 2.251 . S
O178 Mg171 2.079 . S
O178 C180 1.273 . S
C179 O175 1.246 . S
C179 O176 1.259 . S
C180 O177 1.252 . S
C180 O178 1.273 . S
O181 Mg168 2.010 . S
O181 C173 1.249 . S
Mg182 O183 2.028 . S
Mg182 O189 1.986 . S
Mg182 O191 2.114 . S
Mg182 O192 2.251 . S
Mg182 O195 2.010 . S
O183 Mg182 2.028 . S
O183 C186 1.250 . S
O184 Mg185 2.028 . S
O184 C186 1.248 . S
Mg185 O184 2.028 . S
Mg185 O190 2.032 . S
Mg185 O192 2.079 . S
C186 O183 1.250 . S
C186 O184 1.248 . S
C187 O188 1.264 . S
C187 O195 1.249 . S
O188 C187 1.264 . S
O189 Mg182 1.986 . S
O189 C193 1.246 . S
O190 Mg185 2.032 . S
O190 C193 1.259 . S
O191 Mg182 2.114 . S
O191 C194 1.252 . S
O192 Mg182 2.251 . S
O192 Mg185 2.079 . S
O192 C194 1.273 . S
C193 O189 1.246 . S
C193 O190 1.259 . S
C194 O191 1.252 . S
C194 O192 1.273 . S
O195 Mg182 2.010 . S
O195 C187 1.249 . S
Mg196 O197 2.028 . S
Mg196 O203 1.986 . S
Mg196 O205 2.114 . S
Mg196 O206 2.251 . S
Mg196 O209 2.010 . S
O197 Mg196 2.028 . S
O197 C200 1.250 . S
O198 Mg199 2.028 . S
O198 C200 1.248 . S
Mg199 O198 2.028 . S
Mg199 O204 2.032 . S
Mg199 O206 2.079 . S
C200 O197 1.250 . S
C200 O198 1.248 . S
C201 O202 1.264 . S
C201 O209 1.249 . S
O202 C201 1.264 . S
O203 Mg196 1.986 . S
O203 C207 1.246 . S
O204 Mg199 2.032 . S
O204 C207 1.259 . S
O205 Mg196 2.114 . S
O205 C208 1.252 . S
O206 Mg196 2.251 . S
O206 Mg199 2.079 . S
O206 C208 1.273 . S
C207 O203 1.246 . S
C207 O204 1.259 . S
C208 O205 1.252 . S
C208 O206 1.273 . S
O209 Mg196 2.010 . S
O209 C201 1.249 . S
Mg210 O211 2.028 . S
Mg210 O217 1.986 . S
Mg210 O219 2.114 . S
Mg210 O220 2.251 . S
Mg210 O223 2.010 . S
O211 Mg210 2.028 . S
O211 C214 1.250 . S
O212 Mg213 2.028 . S
O212 C214 1.248 . S
Mg213 O212 2.028 . S
Mg213 O218 2.032 . S
Mg213 O220 2.079 . S
C214 O211 1.250 . S
C214 O212 1.248 . S
C215 O216 1.264 . S
C215 O223 1.249 . S
O216 C215 1.264 . S
O217 Mg210 1.986 . S
O217 C221 1.246 . S
O218 Mg213 2.032 . S
O218 C221 1.259 . S
O219 Mg210 2.114 . S
O219 C222 1.252 . S
O220 Mg210 2.251 . S
O220 Mg213 2.079 . S
O220 C222 1.273 . S
C221 O217 1.246 . S
C221 O218 1.259 . S
C222 O219 1.252 . S
C222 O220 1.273 . S
O223 Mg210 2.010 . S
O223 C215 1.249 . S
H224 C230 0.930 . S
H225 C233 0.930 . S
H226 C234 0.930 . S
H227 C235 0.930 . S
H228 C238 0.930 . S
H229 C239 0.930 . S
C230 H224 0.930 . S
C230 C231 1.355 . S
C230 C232 1.415 . S
C231 C230 1.355 . S
C231 C233 1.419 . S
C232 C230 1.415 . S
C232 C237 1.425 . S
C232 C239 1.409 . S
C233 H225 0.930 . S
C233 C231 1.419 . S
C233 C234 1.362 . S
C234 H226 0.930 . S
C234 C233 1.362 . S
C234 C237 1.409 . S
C235 H227 0.930 . S
C235 C236 1.355 . S
C235 C237 1.415 . S
C236 C235 1.355 . S
C236 C238 1.419 . S
C237 C232 1.425 . S
C237 C234 1.409 . S
C237 C235 1.415 . S
C238 H228 0.930 . S
C238 C236 1.419 . S
C238 C239 1.362 . S
C239 H229 0.930 . S
C239 C232 1.409 . S
C239 C238 1.362 . S
H240 C246 0.930 . S
H241 C249 0.930 . S
H242 C250 0.930 . S
H243 C251 0.930 . S
H244 C254 0.930 . S
H245 C255 0.930 . S
C246 H240 0.930 . S
C246 C247 1.355 . S
C246 C248 1.415 . S
C247 C246 1.355 . S
C247 C249 1.419 . S
C248 C246 1.415 . S
C248 C253 1.425 . S
C248 C255 1.409 . S
C249 H241 0.930 . S
C249 C247 1.419 . S
C249 C250 1.362 . S
C250 H242 0.930 . S
C250 C249 1.362 . S
C250 C253 1.409 . S
C251 H243 0.930 . S
C251 C252 1.355 . S
C251 C253 1.415 . S
C252 C251 1.355 . S
C252 C254 1.419 . S
C253 C248 1.425 . S
C253 C250 1.409 . S
C253 C251 1.415 . S
C254 H244 0.930 . S
C254 C252 1.419 . S
C254 C255 1.362 . S
C255 H245 0.930 . S
C255 C248 1.409 . S
C255 C254 1.362 . S
H256 C262 0.930 . S
H257 C265 0.930 . S
H258 C266 0.930 . S
H259 C267 0.930 . S
H260 C270 0.930 . S
H261 C271 0.930 . S
C262 H256 0.930 . S
C262 C263 1.355 . S
C262 C264 1.415 . S
C263 C262 1.355 . S
C263 C265 1.419 . S
C264 C262 1.415 . S
C264 C269 1.425 . S
C264 C271 1.409 . S
C265 H257 0.930 . S
C265 C263 1.419 . S
C265 C266 1.362 . S
C266 H258 0.930 . S
C266 C265 1.362 . S
C266 C269 1.409 . S
C267 H259 0.930 . S
C267 C268 1.355 . S
C267 C269 1.415 . S
C268 C267 1.355 . S
C268 C270 1.419 . S
C269 C264 1.425 . S
C269 C266 1.409 . S
C269 C267 1.415 . S
C270 H260 0.930 . S
C270 C268 1.419 . S
C270 C271 1.362 . S
C271 H261 0.930 . S
C271 C264 1.409 . S
C271 C270 1.362 . S
H272 C278 0.930 . S
H273 C281 0.930 . S
H274 C282 0.930 . S
H275 C283 0.930 . S
H276 C286 0.930 . S
H277 C287 0.930 . S
C278 H272 0.930 . S
C278 C279 1.355 . S
C278 C280 1.415 . S
C279 C278 1.355 . S
C279 C281 1.419 . S
C280 C278 1.415 . S
C280 C285 1.425 . S
C280 C287 1.409 . S
C281 H273 0.930 . S
C281 C279 1.419 . S
C281 C282 1.362 . S
C282 H274 0.930 . S
C282 C281 1.362 . S
C282 C285 1.409 . S
C283 H275 0.930 . S
C283 C284 1.355 . S
C283 C285 1.415 . S
C284 C283 1.355 . S
C284 C286 1.419 . S
C285 C280 1.425 . S
C285 C282 1.409 . S
C285 C283 1.415 . S
C286 H276 0.930 . S
C286 C284 1.419 . S
C286 C287 1.362 . S
C287 H277 0.930 . S
C287 C280 1.409 . S
C287 C286 1.362 . S
H288 C294 0.930 . S
H289 C297 0.930 . S
H290 C298 0.930 . S
H291 C299 0.930 . S
H292 C302 0.930 . S
H293 C303 0.930 . S
C294 H288 0.930 . S
C294 C295 1.355 . S
C294 C296 1.415 . S
C295 C294 1.355 . S
C295 C297 1.419 . S
C296 C294 1.415 . S
C296 C301 1.425 . S
C296 C303 1.409 . S
C297 H289 0.930 . S
C297 C295 1.419 . S
C297 C298 1.362 . S
C298 H290 0.930 . S
C298 C297 1.362 . S
C298 C301 1.409 . S
C299 H291 0.930 . S
C299 C300 1.355 . S
C299 C301 1.415 . S
C300 C299 1.355 . S
C300 C302 1.419 . S
C301 C296 1.425 . S
C301 C298 1.409 . S
C301 C299 1.415 . S
C302 H292 0.930 . S
C302 C300 1.419 . S
C302 C303 1.362 . S
C303 H293 0.930 . S
C303 C296 1.409 . S
C303 C302 1.362 . S
H304 C310 0.930 . S
H305 C313 0.930 . S
H306 C314 0.930 . S
H307 C315 0.930 . S
H308 C318 0.930 . S
H309 C319 0.930 . S
C310 H304 0.930 . S
C310 C311 1.355 . S
C310 C312 1.415 . S
C311 C310 1.355 . S
C311 C313 1.419 . S
C312 C310 1.415 . S
C312 C317 1.425 . S
C312 C319 1.409 . S
C313 H305 0.930 . S
C313 C311 1.419 . S
C313 C314 1.362 . S
C314 H306 0.930 . S
C314 C313 1.362 . S
C314 C317 1.409 . S
C315 H307 0.930 . S
C315 C316 1.355 . S
C315 C317 1.415 . S
C316 C315 1.355 . S
C316 C318 1.419 . S
C317 C312 1.425 . S
C317 C314 1.409 . S
C317 C315 1.415 . S
C318 H308 0.930 . S
C318 C316 1.419 . S
C318 C319 1.362 . S
C319 H309 0.930 . S
C319 C312 1.409 . S
C319 C318 1.362 . S
H320 C326 0.930 . S
H321 C329 0.930 . S
H322 C330 0.930 . S
H323 C331 0.930 . S
H324 C334 0.930 . S
H325 C335 0.930 . S
C326 H320 0.930 . S
C326 C327 1.355 . S
C326 C328 1.415 . S
C327 C326 1.355 . S
C327 C329 1.419 . S
C328 C326 1.415 . S
C328 C333 1.425 . S
C328 C335 1.409 . S
C329 H321 0.930 . S
C329 C327 1.419 . S
C329 C330 1.362 . S
C330 H322 0.930 . S
C330 C329 1.362 . S
C330 C333 1.409 . S
C331 H323 0.930 . S
C331 C332 1.355 . S
C331 C333 1.415 . S
C332 C331 1.355 . S
C332 C334 1.419 . S
C333 C328 1.425 . S
C333 C330 1.409 . S
C333 C331 1.415 . S
C334 H324 0.930 . S
C334 C332 1.419 . S
C334 C335 1.362 . S
C335 H325 0.930 . S
C335 C328 1.409 . S
C335 C334 1.362 . S
H336 C342 0.930 . S
H337 C345 0.930 . S
H338 C346 0.930 . S
H339 C347 0.930 . S
H340 C350 0.930 . S
H341 C351 0.930 . S
C342 H336 0.930 . S
C342 C343 1.355 . S
C342 C344 1.415 . S
C343 C342 1.355 . S
C343 C345 1.419 . S
C344 C342 1.415 . S
C344 C349 1.425 . S
C344 C351 1.409 . S
C345 H337 0.930 . S
C345 C343 1.419 . S
C345 C346 1.362 . S
C346 H338 0.930 . S
C346 C345 1.362 . S
C346 C349 1.409 . S
C347 H339 0.930 . S
C347 C348 1.355 . S
C347 C349 1.415 . S
C348 C347 1.355 . S
C348 C350 1.419 . S
C349 C344 1.425 . S
C349 C346 1.409 . S
C349 C347 1.415 . S
C350 H340 0.930 . S
C350 C348 1.419 . S
C350 C351 1.362 . S
C351 H341 0.930 . S
C351 C344 1.409 . S
C351 C350 1.362 . S
H352 C358 0.930 . S
H353 C361 0.930 . S
H354 C362 0.930 . S
H355 C363 0.930 . S
H356 C366 0.930 . S
H357 C367 0.930 . S
C358 H352 0.930 . S
C358 C359 1.355 . S
C358 C360 1.415 . S
C359 C358 1.355 . S
C359 C361 1.419 . S
C360 C358 1.415 . S
C360 C365 1.425 1_565 S
C360 C367 1.409 1_565 S
C361 H353 0.930 . S
C361 C359 1.419 . S
C361 C362 1.362 . S
C362 H354 0.930 . S
C362 C361 1.362 . S
C362 C365 1.409 1_565 S
C363 H355 0.930 . S
C363 C364 1.355 . S
C363 C365 1.415 . S
C364 C363 1.355 . S
C364 C366 1.419 . S
C365 C360 1.425 1_545 S
C365 C362 1.409 1_545 S
C365 C363 1.415 . S
C366 H356 0.930 . S
C366 C364 1.419 . S
C366 C367 1.362 . S
C367 H357 0.930 . S
C367 C360 1.409 1_545 S
C367 C366 1.362 . S
H368 C374 0.930 . S
H369 C377 0.930 . S
H370 C378 0.930 . S
H371 C379 0.930 . S
H372 C382 0.930 . S
H373 C383 0.930 . S
C374 H368 0.930 . S
C374 C375 1.355 . S
C374 C376 1.415 . S
C375 C374 1.355 . S
C375 C377 1.419 . S
C376 C374 1.415 . S
C376 C381 1.425 . S
C376 C383 1.409 . S
C377 H369 0.930 . S
C377 C375 1.419 . S
C377 C378 1.362 . S
C378 H370 0.930 . S
C378 C377 1.362 . S
C378 C381 1.409 . S
C379 H371 0.930 . S
C379 C380 1.355 . S
C379 C381 1.415 . S
C380 C379 1.355 . S
C380 C382 1.419 . S
C381 C376 1.425 . S
C381 C378 1.409 . S
C381 C379 1.415 . S
C382 H372 0.930 . S
C382 C380 1.419 . S
C382 C383 1.362 . S
C383 H373 0.930 . S
C383 C376 1.409 . S
C383 C382 1.362 . S
H384 C390 0.930 . S
H385 C393 0.930 . S
H386 C394 0.930 . S
H387 C395 0.930 . S
H388 C398 0.930 . S
H389 C399 0.930 . S
C390 H384 0.930 . S
C390 C391 1.355 . S
C390 C392 1.415 1_556 S
C391 C390 1.355 . S
C391 C393 1.419 . S
C392 C390 1.415 1_554 S
C392 C397 1.425 1_554 S
C392 C399 1.409 . S
C393 H385 0.930 . S
C393 C391 1.419 . S
C393 C394 1.362 . S
C394 H386 0.930 . S
C394 C393 1.362 . S
C394 C397 1.409 . S
C395 H387 0.930 . S
C395 C396 1.355 . S
C395 C397 1.415 1_554 S
C396 C395 1.355 . S
C396 C398 1.419 . S
C397 C392 1.425 1_556 S
C397 C394 1.409 . S
C397 C395 1.415 1_556 S
C398 H388 0.930 . S
C398 C396 1.419 . S
C398 C399 1.362 . S
C399 H389 0.930 . S
C399 C392 1.409 . S
C399 C398 1.362 . S
H400 C406 0.930 . S
H401 C409 0.930 . S
H402 C410 0.930 . S
H403 C411 0.930 . S
H404 C414 0.930 . S
H405 C415 0.930 . S
C406 H400 0.930 . S
C406 C407 1.355 . S
C406 C408 1.395 1_554 S
C407 C406 1.355 . S
C407 C409 1.419 . S
C408 C406 1.395 1_556 S
C408 C413 1.424 1_556 S
C408 C415 1.430 . S
C409 H401 0.930 . S
C409 C407 1.419 . S
C409 C410 1.362 . S
C410 H402 0.930 . S
C410 C409 1.362 . S
C410 C413 1.430 . S
C411 H403 0.930 . S
C411 C412 1.355 . S
C411 C413 1.395 1_556 S
C412 C411 1.355 . S
C412 C414 1.419 . S
C413 C408 1.424 1_554 S
C413 C410 1.430 . S
C413 C411 1.395 1_554 S
C414 H404 0.930 . S
C414 C412 1.419 . S
C414 C415 1.362 . S
C415 H405 0.930 . S
C415 C408 1.430 . S
C415 C414 1.362 . S
H416 C422 0.930 . S
H417 C425 0.930 . S
H418 C426 0.930 . S
H419 C427 0.930 . S
H420 C430 0.930 . S
H421 C431 0.930 . S
C422 H416 0.930 . S
C422 C423 1.355 . S
C422 C424 1.415 . S
C423 C422 1.355 . S
C423 C425 1.419 . S
C424 C422 1.415 . S
C424 C429 1.425 . S
C424 C431 1.409 . S
C425 H417 0.930 . S
C425 C423 1.419 . S
C425 C426 1.362 . S
C426 H418 0.930 . S
C426 C425 1.362 . S
C426 C429 1.409 . S
C427 H419 0.930 . S
C427 C428 1.355 . S
C427 C429 1.415 . S
C428 C427 1.355 . S
C428 C430 1.419 . S
C429 C424 1.425 . S
C429 C426 1.409 . S
C429 C427 1.415 . S
C430 H420 0.930 . S
C430 C428 1.419 . S
C430 C431 1.362 . S
C431 H421 0.930 . S
C431 C424 1.409 . S
C431 C430 1.362 . S
H432 C438 0.930 . S
H433 C441 0.930 . S
H434 C442 0.930 . S
H435 C443 0.930 . S
H436 C446 0.930 . S
H437 C447 0.930 . S
C438 H432 0.930 . S
C438 C439 1.355 . S
C438 C440 1.415 . S
C439 C438 1.355 . S
C439 C441 1.419 . S
C440 C438 1.415 . S
C440 C445 1.425 . S
C440 C447 1.409 . S
C441 H433 0.930 . S
C441 C439 1.419 . S
C441 C442 1.362 . S
C442 H434 0.930 . S
C442 C441 1.362 . S
C442 C445 1.409 . S
C443 H435 0.930 . S
C443 C444 1.355 . S
C443 C445 1.415 . S
C444 C443 1.355 . S
C444 C446 1.419 . S
C445 C440 1.425 . S
C445 C442 1.409 . S
C445 C443 1.415 . S
C446 H436 0.930 . S
C446 C444 1.419 . S
C446 C447 1.362 . S
C447 H437 0.930 . S
C447 C440 1.409 . S
C447 C446 1.362 . S
H448 C454 0.930 . S
H449 C457 0.930 . S
H450 C458 0.930 . S
H451 C459 0.930 . S
H452 C462 0.930 . S
H453 C463 0.930 . S
C454 H448 0.930 . S
C454 C455 1.355 . S
C454 C456 1.415 . S
C455 C454 1.355 . S
C455 C457 1.419 . S
C456 C454 1.415 . S
C456 C461 1.425 1_655 S
C456 C463 1.409 1_655 S
C457 H449 0.930 . S
C457 C455 1.419 . S
C457 C458 1.362 . S
C458 H450 0.930 . S
C458 C457 1.362 . S
C458 C461 1.409 1_655 S
C459 H451 0.930 . S
C459 C460 1.355 . S
C459 C461 1.415 . S
C460 C459 1.355 . S
C460 C462 1.419 . S
C461 C456 1.425 1_455 S
C461 C458 1.409 1_455 S
C461 C459 1.415 . S
C462 H452 0.930 . S
C462 C460 1.419 . S
C462 C463 1.362 . S
C463 H453 0.930 . S
C463 C456 1.409 1_455 S
C463 C462 1.362 . S
H464 C470 0.930 . S
H465 C473 0.930 . S
H466 C474 0.944 . S
H467 C475 0.930 . S
H468 C478 0.930 . S
H469 C479 0.944 . S
C470 H464 0.930 . S
C470 C471 1.355 . S
C470 C472 1.415 . S
C471 C470 1.355 . S
C471 C473 1.419 . S
C472 C470 1.415 . S
C472 C477 1.425 1_655 S
C472 C479 1.416 . S
C473 H465 0.930 . S
C473 C471 1.419 . S
C473 C474 1.342 1_655 S
C474 H466 0.944 . S
C474 C473 1.342 1_455 S
C474 C477 1.416 . S
C475 H467 0.930 . S
C475 C476 1.355 . S
C475 C477 1.415 . S
C476 C475 1.355 . S
C476 C478 1.419 . S
C477 C472 1.425 1_455 S
C477 C474 1.416 . S
C477 C475 1.415 . S
C478 H468 0.930 . S
C478 C476 1.419 . S
C478 C479 1.342 1_455 S
C479 H469 0.944 . S
C479 C472 1.416 . S
C479 C478 1.342 1_655 S
H480 C486 0.930 . S
H481 C489 0.930 . S
H482 C490 0.930 . S
H483 C491 0.930 . S
H484 C494 0.930 . S
H485 C495 0.930 . S
C486 H480 0.930 . S
C486 C487 1.355 . S
C486 C488 1.415 . S
C487 C486 1.355 . S
C487 C489 1.419 . S
C488 C486 1.415 . S
C488 C493 1.425 . S
C488 C495 1.409 . S
C489 H481 0.930 . S
C489 C487 1.419 . S
C489 C490 1.362 . S
C490 H482 0.930 . S
C490 C489 1.362 . S
C490 C493 1.409 . S
C491 H483 0.930 . S
C491 C492 1.355 . S
C491 C493 1.415 . S
C492 C491 1.355 . S
C492 C494 1.419 . S
C493 C488 1.425 . S
C493 C490 1.409 . S
C493 C491 1.415 . S
C494 H484 0.930 . S
C494 C492 1.419 . S
C494 C495 1.362 . S
C495 H485 0.930 . S
C495 C488 1.409 . S
C495 C494 1.362 . S
H496 C502 0.930 . S
H497 C505 0.930 . S
H498 C506 0.930 . S
H499 C507 0.930 . S
H500 C510 0.930 . S
H501 C511 0.930 . S
C502 H496 0.930 . S
C502 C503 1.355 . S
C502 C504 1.415 1_545 S
C503 C502 1.355 . S
C503 C505 1.419 . S
C504 C502 1.415 1_565 S
C504 C509 1.425 1_565 S
C504 C511 1.409 . S
C505 H497 0.930 . S
C505 C503 1.419 . S
C505 C506 1.362 . S
C506 H498 0.930 . S
C506 C505 1.362 . S
C506 C509 1.409 . S
C507 H499 0.930 . S
C507 C508 1.355 . S
C507 C509 1.415 1_565 S
C508 C507 1.355 . S
C508 C510 1.419 . S
C509 C504 1.425 1_545 S
C509 C506 1.409 . S
C509 C507 1.415 1_545 S
C510 H500 0.930 . S
C510 C508 1.419 . S
C510 C511 1.362 . S
C511 H501 0.930 . S
C511 C504 1.409 . S
C511 C510 1.362 . S
H512 C518 0.930 . S
H513 C521 0.930 . S
H514 C522 0.930 . S
H515 C523 0.930 . S
H516 C526 0.930 . S
H517 C527 0.930 . S
C518 H512 0.930 . S
C518 C519 1.355 . S
C518 C520 1.415 . S
C519 C518 1.355 . S
C519 C521 1.419 . S
C520 C518 1.415 . S
C520 C525 1.425 . S
C520 C527 1.409 . S
C521 H513 0.930 . S
C521 C519 1.419 . S
C521 C522 1.362 . S
C522 H514 0.930 . S
C522 C521 1.362 . S
C522 C525 1.409 . S
C523 H515 0.930 . S
C523 C524 1.355 . S
C523 C525 1.415 . S
C524 C523 1.355 . S
C524 C526 1.419 . S
C525 C520 1.425 . S
C525 C522 1.409 . S
C525 C523 1.415 . S
C526 H516 0.930 . S
C526 C524 1.419 . S
C526 C527 1.362 . S
C527 H517 0.930 . S
C527 C520 1.409 . S
C527 C526 1.362 . S
H528 C534 0.930 . S
H529 C537 0.930 . S
H530 C538 0.930 . S
H531 C539 0.930 . S
H532 C542 0.930 . S
H533 C543 0.930 . S
C534 H528 0.930 . S
C534 C535 1.355 . S
C534 C536 1.415 1_554 S
C535 C534 1.355 . S
C535 C537 1.419 . S
C536 C534 1.415 1_556 S
C536 C541 1.425 1_556 S
C536 C543 1.409 . S
C537 H529 0.930 . S
C537 C535 1.419 . S
C537 C538 1.362 . S
C538 H530 0.930 . S
C538 C537 1.362 . S
C538 C541 1.409 . S
C539 H531 0.930 . S
C539 C540 1.355 . S
C539 C541 1.415 1_556 S
C540 C539 1.355 . S
C540 C542 1.419 . S
C541 C536 1.425 1_554 S
C541 C538 1.409 . S
C541 C539 1.415 1_554 S
C542 H532 0.930 . S
C542 C540 1.419 . S
C542 C543 1.362 . S
C543 H533 0.930 . S
C543 C536 1.409 . S
C543 C542 1.362 . S
H544 C550 0.930 . S
H545 C553 0.930 . S
H546 C554 0.930 . S
H547 C555 0.930 . S
H548 C558 0.930 . S
H549 C559 0.930 . S
C550 H544 0.930 . S
C550 C551 1.355 . S
C550 C552 1.415 1_556 S
C551 C550 1.355 . S
C551 C553 1.419 . S
C552 C550 1.415 1_554 S
C552 C557 1.425 1_554 S
C552 C559 1.409 . S
C553 H545 0.930 . S
C553 C551 1.419 . S
C553 C554 1.362 . S
C554 H546 0.930 . S
C554 C553 1.362 . S
C554 C557 1.409 . S
C555 H547 0.930 . S
C555 C556 1.355 . S
C555 C557 1.415 1_554 S
C556 C555 1.355 . S
C556 C558 1.419 . S
C557 C552 1.425 1_556 S
C557 C554 1.409 . S
C557 C555 1.415 1_556 S
C558 H548 0.930 . S
C558 C556 1.419 . S
C558 C559 1.362 . S
C559 H549 0.930 . S
C559 C552 1.409 . S
C559 C558 1.362 . S
H560 C566 0.930 . S
H561 C569 0.930 . S
H562 C570 0.930 . S
H563 C571 0.930 . S
H564 C574 0.930 . S
H565 C575 0.930 . S
C566 H560 0.930 . S
C566 C567 1.355 . S
C566 C568 1.415 . S
C567 C566 1.355 . S
C567 C569 1.419 . S
C568 C566 1.415 . S
C568 C573 1.425 . S
C568 C575 1.409 . S
C569 H561 0.930 . S
C569 C567 1.419 . S
C569 C570 1.362 . S
C570 H562 0.930 . S
C570 C569 1.362 . S
C570 C573 1.409 . S
C571 H563 0.930 . S
C571 C572 1.355 . S
C571 C573 1.415 . S
C572 C571 1.355 . S
C572 C574 1.419 . S
C573 C568 1.425 . S
C573 C570 1.409 . S
C573 C571 1.415 . S
C574 H564 0.930 . S
C574 C572 1.419 . S
C574 C575 1.362 . S
C575 H565 0.930 . S
C575 C568 1.409 . S
C575 C574 1.362 . S
H576 C582 0.930 . S
H577 C585 0.930 . S
H578 C586 0.930 . S
H579 C587 0.930 . S
H580 C590 0.930 . S
H581 C591 0.930 . S
C582 H576 0.930 . S
C582 C583 1.355 . S
C582 C584 1.415 . S
C583 C582 1.355 . S
C583 C585 1.419 . S
C584 C582 1.415 . S
C584 C589 1.425 . S
C584 C591 1.409 . S
C585 H577 0.930 . S
C585 C583 1.419 . S
C585 C586 1.362 . S
C586 H578 0.930 . S
C586 C585 1.362 . S
C586 C589 1.409 . S
C587 H579 0.930 . S
C587 C588 1.355 . S
C587 C589 1.415 . S
C588 C587 1.355 . S
C588 C590 1.419 . S
C589 C584 1.425 . S
C589 C586 1.409 . S
C589 C587 1.415 . S
C590 H580 0.930 . S
C590 C588 1.419 . S
C590 C591 1.362 . S
C591 H581 0.930 . S
C591 C584 1.409 . S
C591 C590 1.362 . S
H592 C598 0.930 . S
H593 C601 0.930 . S
H594 C602 0.930 . S
H595 C603 0.930 . S
H596 C606 0.930 . S
H597 C607 0.930 . S
C598 H592 0.930 . S
C598 C599 1.355 . S
C598 C600 1.415 1_455 S
C599 C598 1.355 . S
C599 C601 1.419 . S
C600 C598 1.415 1_655 S
C600 C605 1.425 1_655 S
C600 C607 1.409 . S
C601 H593 0.930 . S
C601 C599 1.419 . S
C601 C602 1.362 . S
C602 H594 0.930 . S
C602 C601 1.362 . S
C602 C605 1.409 . S
C603 H595 0.930 . S
C603 C604 1.355 . S
C603 C605 1.415 1_655 S
C604 C603 1.355 . S
C604 C606 1.419 . S
C605 C600 1.425 1_455 S
C605 C602 1.409 . S
C605 C603 1.415 1_455 S
C606 H596 0.930 . S
C606 C604 1.419 . S
C606 C607 1.362 . S
C607 H597 0.930 . S
C607 C600 1.409 . S
C607 C606 1.362 . S
H608 C614 0.930 . S
H609 C617 0.930 . S
H610 C618 0.930 . S
H611 C619 0.930 . S
H612 C622 0.930 . S
H613 C623 0.930 . S
C614 H608 0.930 . S
C614 C615 1.355 . S
C614 C616 1.415 1_455 S
C615 C614 1.355 . S
C615 C617 1.419 . S
C616 C614 1.415 1_655 S
C616 C621 1.425 1_655 S
C616 C623 1.409 . S
C617 H609 0.930 . S
C617 C615 1.419 . S
C617 C618 1.362 . S
C618 H610 0.930 . S
C618 C617 1.362 . S
C618 C621 1.409 . S
C619 H611 0.930 . S
C619 C620 1.355 . S
C619 C621 1.415 1_655 S
C620 C619 1.355 . S
C620 C622 1.419 . S
C621 C616 1.425 1_455 S
C621 C618 1.409 . S
C621 C619 1.415 1_455 S
C622 H612 0.930 . S
C622 C620 1.419 . S
C622 C623 1.362 . S
C623 H613 0.930 . S
C623 C616 1.409 . S
C623 C622 1.362 . S
H624 C630 0.930 . S
H625 C633 0.930 . S
H626 C634 0.930 . S
H627 C635 0.930 . S
H628 C638 0.930 . S
H629 C639 0.930 . S
C630 H624 0.930 . S
C630 C631 1.355 . S
C630 C632 1.415 . S
C631 C630 1.355 . S
C631 C633 1.419 . S
C632 C630 1.415 . S
C632 C637 1.425 . S
C632 C639 1.409 . S
C633 H625 0.930 . S
C633 C631 1.419 . S
C633 C634 1.362 . S
C634 H626 0.930 . S
C634 C633 1.362 . S
C634 C637 1.409 . S
C635 H627 0.930 . S
C635 C636 1.355 . S
C635 C637 1.415 . S
C636 C635 1.355 . S
C636 C638 1.419 . S
C637 C632 1.425 . S
C637 C634 1.409 . S
C637 C635 1.415 . S
C638 H628 0.930 . S
C638 C636 1.419 . S
C638 C639 1.362 . S
C639 H629 0.930 . S
C639 C632 1.409 . S
C639 C638 1.362 . S
H640 C646 0.930 . S
H641 C649 0.930 . S
H642 C650 0.930 . S
H643 C651 0.930 . S
H644 C654 0.930 . S
H645 C655 0.930 . S
C646 H640 0.930 . S
C646 C647 1.355 . S
C646 C648 1.415 . S
C647 C646 1.355 . S
C647 C649 1.419 . S
C648 C646 1.415 . S
C648 C653 1.425 . S
C648 C655 1.409 . S
C649 H641 0.930 . S
C649 C647 1.419 . S
C649 C650 1.362 . S
C650 H642 0.930 . S
C650 C649 1.362 . S
C650 C653 1.409 . S
C651 H643 0.930 . S
C651 C652 1.355 . S
C651 C653 1.415 . S
C652 C651 1.355 . S
C652 C654 1.419 . S
C653 C648 1.425 . S
C653 C650 1.409 . S
C653 C651 1.415 . S
C654 H644 0.930 . S
C654 C652 1.419 . S
C654 C655 1.362 . S
C655 H645 0.930 . S
C655 C648 1.409 . S
C655 C654 1.362 . S
H656 C662 0.930 . S
H657 C665 0.930 . S
H658 C666 0.930 . S
H659 C667 0.930 . S
H660 C670 0.930 . S
H661 C671 0.930 . S
C662 H656 0.930 . S
C662 C663 1.355 . S
C662 C664 1.415 . S
C663 C662 1.355 . S
C663 C665 1.419 . S
C664 C662 1.415 . S
C664 C669 1.425 1_545 S
C664 C671 1.409 1_545 S
C665 H657 0.930 . S
C665 C663 1.419 . S
C665 C666 1.362 . S
C666 H658 0.930 . S
C666 C665 1.362 . S
C666 C669 1.409 1_545 S
C667 H659 0.930 . S
C667 C668 1.355 . S
C667 C669 1.415 . S
C668 C667 1.355 . S
C668 C670 1.419 . S
C669 C664 1.425 1_565 S
C669 C666 1.409 1_565 S
C669 C667 1.415 . S
C670 H660 0.930 . S
C670 C668 1.419 . S
C670 C671 1.362 . S
C671 H661 0.930 . S
C671 C664 1.409 1_565 S
C671 C670 1.362 . S
H672 C678 0.930 . S
H673 C681 0.930 . S
H674 C682 0.930 . S
H675 C683 0.930 . S
H676 C686 0.930 . S
H677 C687 0.930 . S
C678 H672 0.930 . S
C678 C679 1.355 . S
C678 C680 1.415 . S
C679 C678 1.355 . S
C679 C681 1.419 . S
C680 C678 1.415 . S
C680 C685 1.425 . S
C680 C687 1.409 . S
C681 H673 0.930 . S
C681 C679 1.419 . S
C681 C682 1.362 . S
C682 H674 0.930 . S
C682 C681 1.362 . S
C682 C685 1.409 . S
C683 H675 0.930 . S
C683 C684 1.355 . S
C683 C685 1.415 . S
C684 C683 1.355 . S
C684 C686 1.419 . S
C685 C680 1.425 . S
C685 C682 1.409 . S
C685 C683 1.415 . S
C686 H676 0.930 . S
C686 C684 1.419 . S
C686 C687 1.362 . S
C687 H677 0.930 . S
C687 C680 1.409 . S
C687 C686 1.362 . S
H688 C694 0.930 . S
H689 C697 0.930 . S
H690 C698 0.930 . S
H691 C699 0.930 . S
H692 C702 0.930 . S
H693 C703 0.930 . S
C694 H688 0.930 . S
C694 C695 1.355 . S
C694 C696 1.415 . S
C695 C694 1.355 . S
C695 C697 1.419 . S
C696 C694 1.415 . S
C696 C701 1.425 . S
C696 C703 1.409 . S
C697 H689 0.930 . S
C697 C695 1.419 . S
C697 C698 1.362 . S
C698 H690 0.930 . S
C698 C697 1.362 . S
C698 C701 1.409 . S
C699 H691 0.930 . S
C699 C700 1.355 . S
C699 C701 1.415 . S
C700 C699 1.355 . S
C700 C702 1.419 . S
C701 C696 1.425 . S
C701 C698 1.409 . S
C701 C699 1.415 . S
C702 H692 0.930 . S
C702 C700 1.419 . S
C702 C703 1.362 . S
C703 H693 0.930 . S
C703 C696 1.409 . S
C703 C702 1.362 . S
H704 C710 0.930 . S
H705 C713 0.930 . S
H706 C714 0.930 . S
H707 C715 0.930 . S
H708 C718 0.930 . S
H709 C719 0.930 . S
C710 H704 0.930 . S
C710 C711 1.355 . S
C710 C712 1.415 . S
C711 C710 1.355 . S
C711 C713 1.419 . S
C712 C710 1.415 . S
C712 C717 1.425 1_545 S
C712 C719 1.409 1_545 S
C713 H705 0.930 . S
C713 C711 1.419 . S
C713 C714 1.362 . S
C714 H706 0.930 . S
C714 C713 1.362 . S
C714 C717 1.409 1_545 S
C715 H707 0.930 . S
C715 C716 1.355 . S
C715 C717 1.415 . S
C716 C715 1.355 . S
C716 C718 1.419 . S
C717 C712 1.425 1_565 S
C717 C714 1.409 1_565 S
C717 C715 1.415 . S
C718 H708 0.930 . S
C718 C716 1.419 . S
C718 C719 1.362 . S
C719 H709 0.930 . S
C719 C712 1.409 1_565 S
C719 C718 1.362 . S
H720 C726 0.930 . S
H721 C729 0.930 . S
H722 C730 0.930 . S
H723 C731 0.930 . S
H724 C734 0.930 . S
H725 C735 0.930 . S
C726 H720 0.930 . S
C726 C727 1.355 . S
C726 C728 1.415 . S
C727 C726 1.355 . S
C727 C729 1.419 . S
C728 C726 1.415 . S
C728 C733 1.425 . S
C728 C735 1.409 . S
C729 H721 0.930 . S
C729 C727 1.419 . S
C729 C730 1.362 . S
C730 H722 0.930 . S
C730 C729 1.362 . S
C730 C733 1.409 . S
C731 H723 0.930 . S
C731 C732 1.355 . S
C731 C733 1.415 . S
C732 C731 1.355 . S
C732 C734 1.419 . S
C733 C728 1.425 . S
C733 C730 1.409 . S
C733 C731 1.415 . S
C734 H724 0.930 . S
C734 C732 1.419 . S
C734 C735 1.362 . S
C735 H725 0.930 . S
C735 C728 1.409 . S
C735 C734 1.362 . S
C231 C4 1.221 . S
C236 C186 1.220 . S
C247 C18 1.238 . S
C252 C130 1.237 . S
C263 C200 1.221 . S
C268 C32 1.223 . S
C279 C46 1.285 . S
C284 C214 1.285 . S
C295 C60 1.260 . S
C300 C88 1.260 . S
C311 C144 1.286 . S
C316 C74 1.285 . S
C327 C158 1.240 . S
C332 C102 1.238 . S
C343 C116 1.256 . S
C348 C172 1.256 . S
C359 C40 1.517 . S
C364 C12 1.519 . S
C375 C26 1.516 . S
C380 C54 1.517 . S
C391 C179 1.436 . S
C396 C11 1.443 . S
C407 C25 1.438 . S
C412 C165 1.432 . S
C423 C67 1.431 . S
C428 C39 1.436 . S
C439 C151 1.430 . S
C444 C53 1.432 . S
C455 C19 1.326 . S
C460 C5 1.400 . S
C471 C47 1.295 . S
C476 C33 1.337 . S
C487 C145 1.340 . S
C492 C61 1.295 . S
C503 C109 1.497 . S
C508 C81 1.522 . S
C519 C95 1.491 . S
C524 C123 1.540 . S
C535 C222 1.498 . S
C540 C82 1.504 . S
C551 C96 1.501 . S
C556 C208 1.499 . S
C567 C138 1.501 . S
C572 C110 1.510 . S
C583 C124 1.498 . S
C588 C194 1.502 . S
C599 C89 1.382 . S
C604 C75 1.347 . S
C615 C117 1.362 . S
C620 C103 1.375 . S
C631 C131 1.289 . S
C636 C187 1.370 . S
C647 C152 1.516 . S
C652 C166 1.514 . S
C663 C180 1.518 . S
C668 C68 1.519 . S
C679 C173 1.308 . S
C684 C159 1.308 . S
C695 C207 1.522 . S
C700 C193 1.497 . S
C711 C137 1.492 . S
C716 C221 1.541 . S
C727 C215 1.368 . S
C732 C201 1.370 . S
