# Generated by pormake.
# Topology tfs, (6)-cn, num edge types: 1
# Building blocks:
#     Node 0, Type 0, BuildingBlock: JUFBIX_clean_sbu_0, # of connection points: 6
#     Node 1, Type 0, BuildingBlock: JUFBIX_clean_sbu_0, # of connection points: 6
#     Node 2, Type 0, BuildingBlock: JUFBIX_clean_sbu_0, # of connection points: 6
#     Node 3, Type 0, BuildingBlock: JUFBIX_clean_sbu_0, # of connection points: 6
#     Node 4, Type 0, BuildingBlock: JUFBIX_clean_sbu_0, # of connection points: 6
#     Node 5, Type 0, BuildingBlock: JUFBIX_clean_sbu_0, # of connection points: 6
#     Edge 6, Type (0, 0), BuildingBlock: XIVTED_clean_linker_0, # of connection points: 2
#     Edge 7, Type (0, 0), BuildingBlock: XIVTED_clean_linker_0, # of connection points: 2
#     Edge 8, Type (0, 0), BuildingBlock: XIVTED_clean_linker_0, # of connection points: 2
#     Edge 9, Type (0, 0), BuildingBlock: XIVTED_clean_linker_0, # of connection points: 2
#     Edge 10, Type (0, 0), BuildingBlock: XIVTED_clean_linker_0, # of connection points: 2
#     Edge 11, Type (0, 0), BuildingBlock: XIVTED_clean_linker_0, # of connection points: 2
#     Edge 12, Type (0, 0), BuildingBlock: XIVTED_clean_linker_0, # of connection points: 2
#     Edge 13, Type (0, 0), BuildingBlock: XIVTED_clean_linker_0, # of connection points: 2
#     Edge 14, Type (0, 0), BuildingBlock: XIVTED_clean_linker_0, # of connection points: 2
#     Edge 15, Type (0, 0), BuildingBlock: XIVTED_clean_linker_0, # of connection points: 2
#     Edge 16, Type (0, 0), BuildingBlock: XIVTED_clean_linker_0, # of connection points: 2
#     Edge 17, Type (0, 0), BuildingBlock: XIVTED_clean_linker_0, # of connection points: 2
#     Edge 18, Type (0, 0), BuildingBlock: XIVTED_clean_linker_0, # of connection points: 2
#     Edge 19, Type (0, 0), BuildingBlock: XIVTED_clean_linker_0, # of connection points: 2
#     Edge 20, Type (0, 0), BuildingBlock: XIVTED_clean_linker_0, # of connection points: 2
#     Edge 21, Type (0, 0), BuildingBlock: XIVTED_clean_linker_0, # of connection points: 2
#     Edge 22, Type (0, 0), BuildingBlock: XIVTED_clean_linker_0, # of connection points: 2
#     Edge 23, Type (0, 0), BuildingBlock: XIVTED_clean_linker_0, # of connection points: 2
# Relax obj value: 0.289
# Max RMSD: 0.225
# Mean RMSD: 0.177
data_MOF--net-tfs--node1-JUFBIX_clean_sbu_0--edge1-XIVTED_clean_linker_0
_symmetry_space_group_name_H-M    P1
_symmetry_Int_Tables_number       1
_symmetry_cell_setting            triclinic
loop_
_symmetry_equiv_pos_as_xyz
'x, y, z'
_cell_length_a     43.534312
_cell_length_b     47.139275
_cell_length_c     15.120276
_cell_angle_alpha  90.165867
_cell_angle_beta   92.593096
_cell_angle_gamma 112.52105
loop_
_atom_site_label
_atom_site_type_symbol
_atom_site_fract_x
_atom_site_fract_y
_atom_site_fract_z
_atom_type_partial_charge
Co0 Co 0.26145 0.40239 0.00781 0.0
C1 C 0.23225 0.38674 0.17281 0.0
Co2 Co 0.20757 0.37334 0.00252 0.0
C3 C 0.3211 0.45716 0.99437 0.0
C4 C 0.3289 0.42367 0.07778 0.0
N5 N 0.306 0.42815 0.02265 0.0
N6 N 0.35218 0.47114 0.03129 0.0
C7 C 0.35725 0.45006 0.08342 0.0
H8 H 0.3088 0.46847 0.95201 0.0
H9 H 0.32459 0.40311 0.11532 0.0
C10 C 0.23679 0.38907 0.83749 0.0
N11 N 0.16289 0.34668 0.98782 0.0
C12 C 0.13461 0.34638 0.0226 0.0
C13 C 0.15277 0.32139 0.93469 0.0
N14 N 0.10748 0.32164 0.99361 0.0
C15 C 0.11904 0.30606 0.9382 0.0
C16 C 0.22006 0.43565 0.00179 0.0
O17 O 0.26344 0.40423 0.88284 0.0
O18 O 0.21047 0.37413 0.87721 0.0
O19 O 0.19598 0.4094 0.99777 0.0
O20 O 0.24965 0.43679 0.00856 0.0
O21 O 0.2052 0.37293 0.12742 0.0
H22 H 0.16898 0.31455 0.8952 0.0
H23 H 0.13401 0.36373 0.06876 0.0
O24 O 0.25895 0.40033 0.13313 0.0
O25 O 0.27318 0.36784 0.00574 0.0
O26 O 0.22033 0.33794 0.00783 0.0
C27 C 0.2507 0.34107 0.0068 0.0
H28 H 0.37947 0.45376 0.12471 0.0
H29 H 0.10405 0.28531 0.9011 0.0
Co30 Co 0.79483 0.23449 0.02698 0.0
C31 C 0.80301 0.2623 0.19681 0.0
Co32 Co 0.80744 0.28486 0.03027 0.0
C33 C 0.75611 0.16811 0.0001 0.0
C34 C 0.79924 0.17898 0.08808 0.0
N35 N 0.78298 0.19203 0.03448 0.0
N36 N 0.75504 0.14089 0.03133 0.0
C37 C 0.78209 0.14772 0.08666 0.0
H38 H 0.73683 0.1707 0.95707 0.0
H39 H 0.82143 0.19154 0.12886 0.0
C40 C 0.79909 0.25695 0.8604 0.0
N41 N 0.82102 0.32746 0.02168 0.0
C42 C 0.81159 0.34866 0.06015 0.0
C43 C 0.84575 0.3439 0.9695 0.0
N44 N 0.82995 0.37755 0.03443 0.0
C45 C 0.8513 0.3744 0.9773 0.0
C46 C 0.86289 0.26828 0.03371 0.0
O47 O 0.79279 0.23196 0.90133 0.0
O48 O 0.80587 0.28177 0.90456 0.0
O49 O 0.85277 0.29013 0.03556 0.0
O50 O 0.84147 0.24081 0.02878 0.0
O51 O 0.80868 0.28724 0.15589 0.0
H52 H 0.85901 0.33426 0.92777 0.0
H53 H 0.79198 0.34307 0.10648 0.0
O54 O 0.79692 0.23756 0.1527 0.0
O55 O 0.74877 0.22916 0.02553 0.0
O56 O 0.76188 0.27912 0.0262 0.0
C57 C 0.73978 0.25193 0.02585 0.0
H58 H 0.78841 0.13126 0.12543 0.0
H59 H 0.86922 0.39282 0.94183 0.0
Co60 Co 0.57103 0.77478 0.99569 0.0
C61 C 0.5831 0.80503 0.83108 0.0
Co62 Co 0.59399 0.82577 0.00168 0.0
C63 C 0.52383 0.71074 0.00614 0.0
C64 C 0.56288 0.71755 0.91727 0.0
N65 N 0.55179 0.73249 0.9764 0.0
N66 N 0.51704 0.68311 0.96643 0.0
C67 C 0.54158 0.68736 0.91081 0.0
H68 H 0.50806 0.71532 0.05281 0.0
H69 H 0.5846 0.72821 0.87893 0.0
C70 C 0.58179 0.79539 0.16634 0.0
N71 N 0.61536 0.86838 0.02103 0.0
C72 C 0.61227 0.89353 0.98452 0.0
C73 C 0.63973 0.87993 0.08523 0.0
N74 N 0.63352 0.91988 0.02513 0.0
C75 C 0.65064 0.91125 0.08826 0.0
C76 C 0.52457 0.80192 0.99725 0.0
O77 O 0.57018 0.77039 0.12104 0.0
O78 O 0.5929 0.82072 0.1264 0.0
O79 O 0.54984 0.82744 0.00112 0.0
O80 O 0.52919 0.77693 0.99369 0.0
O81 O 0.59459 0.83007 0.87628 0.0
H82 H 0.64897 0.86632 0.1281 0.0
H83 H 0.59451 0.89253 0.93095 0.0
O84 O 0.57202 0.77971 0.87108 0.0
O85 O 0.61295 0.77268 0.99771 0.0
O86 O 0.63749 0.82286 0.00203 0.0
C87 C 0.63934 0.79658 -3e-05 0.0
H88 H 0.54372 0.66987 0.86781 0.0
H89 H 0.6698 0.92669 0.13349 0.0
Co90 Co 0.81283 0.639 0.05383 0.0
C91 C 0.78267 0.62507 0.21743 0.0
Co92 Co 0.75907 0.6095 0.04606 0.0
C93 C 0.88555 0.66445 0.03581 0.0
C94 C 0.86802 0.69091 0.12039 0.0
N95 N 0.85748 0.66521 0.06895 0.0
N96 N 0.913 0.68894 0.06414 0.0
C97 C 0.90187 0.70548 0.11744 0.0
H98 H 0.88578 0.64652 0.9913 0.0
H99 H 0.85203 0.69854 0.15836 0.0
C100 C 0.78923 0.62333 0.88248 0.0
N101 N 0.71439 0.58409 0.0302 0.0
C102 C 0.69796 0.5556 0.06083 0.0
C103 C 0.69256 0.58876 0.9716 0.0
N104 N 0.66707 0.54223 0.0222 0.0
C105 C 0.66355 0.56309 0.96639 0.0
C106 C 0.77028 0.67099 0.03744 0.0
O107 O 0.81569 0.63875 0.9284 0.0
O108 O 0.76264 0.60891 0.9216 0.0
O109 O 0.74788 0.64416 0.0365 0.0
O110 O 0.8007 0.67443 0.04592 0.0
O111 O 0.75601 0.61027 0.17139 0.0
H112 H 0.69802 0.60892 0.93153 0.0
H113 H 0.70911 0.54414 0.10622 0.0
O114 O 0.80945 0.63891 0.17843 0.0
O115 O 0.82403 0.60301 0.06156 0.0
O116 O 0.77041 0.57504 0.05526 0.0
C117 C 0.80019 0.57667 0.06192 0.0
H118 H 0.91722 0.72636 0.15345 0.0
H119 H 0.6419 0.55965 0.92295 0.0
Co120 Co 0.21493 0.73055 0.03403 0.0
C121 C 0.22231 0.75937 0.20253 0.0
Co122 Co 0.2255 0.78075 0.03461 0.0
C123 C 0.21311 0.6667 0.00635 0.0
C124 C 0.18031 0.67166 0.10089 0.0
N125 N 0.20386 0.688 0.04539 0.0
N126 N 0.19569 0.6379 0.03498 0.0
C127 C 0.17526 0.64126 0.09457 0.0
H128 H 0.23163 0.67206 0.95694 0.0
H129 H 0.16722 0.68126 0.14331 0.0
C130 C 0.21832 0.75208 0.86621 0.0
N131 N 0.23378 0.82267 0.02511 0.0
C132 C 0.25734 0.84816 0.06411 0.0
C133 C 0.21485 0.83343 0.97307 0.0
N134 N 0.25338 0.87422 0.03891 0.0
C135 C 0.22666 0.86483 0.98155 0.0
C136 C 0.28247 0.76687 0.0376 0.0
O137 O 0.21366 0.72753 0.90845 0.0
O138 O 0.22348 0.77692 0.909 0.0
O139 O 0.27215 0.78883 0.03651 0.0
O140 O 0.26138 0.73915 0.03813 0.0
O141 O 0.22745 0.78394 0.16024 0.0
H142 H 0.19376 0.81929 0.93089 0.0
H143 H 0.27676 0.84759 0.11049 0.0
O144 O 0.2166 0.73449 0.15968 0.0
O145 O 0.16871 0.72271 0.02875 0.0
O146 O 0.17855 0.77176 0.03268 0.0
C147 C 0.15781 0.74407 0.02923 0.0
H148 H 0.15807 0.62297 0.13209 0.0
H149 H 0.21675 0.87967 0.94636 0.0
Co150 Co 0.4285 0.19037 0.05837 0.0
C151 C 0.43952 0.21934 0.89328 0.0
Co152 Co 0.44795 0.24135 0.06363 0.0
C153 C 0.39203 0.12303 0.08084 0.0
C154 C 0.43182 0.13549 0.9921 0.0
N155 N 0.41558 0.1477 0.04465 0.0
N156 N 0.3936 0.09618 0.05348 0.0
C157 C 0.41857 0.10415 0.99756 0.0
H158 H 0.37463 0.12475 0.12744 0.0
H159 H 0.45233 0.14864 0.95231 0.0
C160 C 0.43684 0.21244 0.22866 0.0
N161 N 0.46176 0.28361 0.07785 0.0
C162 C 0.48942 0.30639 0.05083 0.0
C163 C 0.4474 0.29773 0.13026 0.0
N164 N 0.49303 0.33397 0.08572 0.0
C165 C 0.46658 0.3286 0.1354 0.0
C166 C 0.37842 0.21262 0.05132 0.0
O167 O 0.4273 0.18738 0.18383 0.0
O168 O 0.44659 0.23777 0.18847 0.0
O169 O 0.40352 0.23777 0.0565 0.0
O170 O 0.38258 0.18722 0.05099 0.0
O171 O 0.44914 0.24439 0.93817 0.0
H172 H 0.42511 0.2861 0.16571 0.0
H173 H 0.50748 0.30262 0.01044 0.0
O174 O 0.42981 0.19399 0.93342 0.0
O175 O 0.47484 0.19475 0.06509 0.0
O176 O 0.4924 0.2449 0.06991 0.0
C177 C 0.49888 0.22089 0.06854 0.0
H178 H 0.42645 0.08834 0.962 0.0
H179 H 0.46184 0.34571 0.17417 0.0
H180 H 0.3356 0.21369 0.17648 0.0
H181 H 0.29327 0.33228 0.89578 0.0
H182 H 0.35047 0.22128 0.89675 0.0
H183 H 0.23108 0.28971 0.11041 0.0
H184 H 0.31458 0.29126 0.89793 0.0
H185 H 0.29564 0.23891 0.15817 0.0
C186 C 0.3291 0.21921 0.11056 0.0
C187 C 0.34569 0.21478 0.0376 0.0
C188 C 0.29589 0.29052 0.94378 0.0
C189 C 0.30178 0.24519 0.017 0.0
C190 C 0.28385 0.31401 0.94279 0.0
C191 C 0.26041 0.31428 0.00289 0.0
C192 C 0.28528 0.26754 0.00734 0.0
C193 C 0.24903 0.29012 0.06264 0.0
C194 C 0.30665 0.23396 0.10028 0.0
C195 C 0.3376 0.22366 0.95423 0.0
N196 N 0.2621 0.26798 0.06468 0.0
N197 N 0.31681 0.23902 0.94647 0.0
H198 H 0.05954 0.26429 0.99636 0.0
H199 H 0.91312 0.32482 0.05303 0.0
H200 H 0.07625 0.35983 0.0351 0.0
H201 H 0.89599 0.22882 0.02135 0.0
H202 H 0.97284 0.3376 0.05363 0.0
H203 H 1.00013 0.25062 0.0132 0.0
C204 C 0.05072 0.28244 0.00857 0.0
C205 C 0.07296 0.31335 0.01319 0.0
C206 C 0.95613 0.31372 0.04688 0.0
C207 C 1.00464 0.29774 0.03297 0.0
C208 C 0.92188 0.30632 0.04638 0.0
C209 C 0.89931 0.27561 0.03669 0.0
C210 C 0.96823 0.29032 0.03729 0.0
C211 C 0.91237 0.25278 0.02874 0.0
C212 C 0.01674 0.27457 0.01853 0.0
C213 C 0.0601 0.33575 0.03122 0.0
N214 N 0.94596 0.26061 0.02881 0.0
N215 N 0.02677 0.32753 0.03966 0.0
H216 H 0.72953 0.10905 0.87713 0.0
H217 H 0.62515 0.95836 0.14292 0.0
H218 H 0.72188 0.10436 0.15982 0.0
H219 H 0.65441 0.95315 0.87749 0.0
H220 H 0.64754 0.01439 0.13577 0.0
H221 H 0.69081 0.05458 0.86335 0.0
C222 C 0.71906 0.09668 0.93586 0.0
C223 C 0.72881 0.11094 0.01975 0.0
C224 C 0.64854 1.00113 0.07814 0.0
C225 C 0.68478 0.04924 0.00494 0.0
C226 C 0.63542 0.96918 0.08201 0.0
C227 C 0.63782 0.95129 0.0106 0.0
C228 C 0.66474 0.01551 0.00257 0.0
C229 C 0.65179 0.96627 0.93344 0.0
C230 C 0.69722 0.06569 0.92816 0.0
C231 C 0.715 0.09403 0.09415 0.0
N232 N 0.66525 0.99764 0.9318 0.0
N233 N 0.69383 0.06417 0.08505 0.0
H234 H 0.79284 0.72698 0.12625 0.0
H235 H 0.65943 0.7763 0.85656 0.0
H236 H 0.72461 0.67412 0.9159 0.0
H237 H 0.6883 0.80425 0.12917 0.0
H238 H 0.70026 0.75234 0.85645 0.0
H239 H 0.76954 0.76712 0.10893 0.0
C240 C 0.77346 0.72417 0.07548 0.0
C241 C 0.76031 0.69724 0.02282 0.0
C242 C 0.6984 0.76446 0.91566 0.0
C243 C 0.73439 0.74282 0.00156 0.0
C244 C 0.67543 0.77843 0.91536 0.0
C245 C 0.6709 0.79246 0.99265 0.0
C246 C 0.71665 0.76409 0.99431 0.0
C247 C 0.69156 0.794 0.06796 0.0
C248 C 0.76018 0.74691 0.06587 0.0
C249 C 0.73515 0.69445 0.95832 0.0
N250 N 0.71331 0.77948 0.06749 0.0
N251 N 0.72306 0.71691 0.9495 0.0
H252 H 0.12499 0.78356 0.03135 0.0
H253 H 0.94283 0.64911 0.02891 0.0
H254 H 0.10753 0.68705 0.02003 0.0
H255 H 0.96188 0.74552 0.05705 0.0
H256 H 1.00255 0.66243 0.01214 0.0
H257 H 0.06481 0.77 0.02962 0.0
C258 C 0.10853 0.75953 0.02832 0.0
C259 C 0.1214 0.73644 0.02629 0.0
C260 C 0.9936 0.68066 0.02158 0.0
C261 C 0.05235 0.72069 0.02407 0.0
C262 C 0.95949 0.67305 0.03051 0.0
C263 C 0.94738 0.6962 0.04543 0.0
C264 C 0.0157 0.71165 0.02713 0.0
C265 C 0.97017 0.72689 0.04749 0.0
C266 C 0.07413 0.75178 0.02726 0.0
C267 C 0.09878 0.70566 0.02203 0.0
N268 N 1.00314 0.73368 0.0389 0.0
N269 N 0.06543 0.6987 0.0213 0.0
H270 H 0.31996 0.8991 0.08196 0.0
H271 H 0.32717 0.07218 0.08089 0.0
H272 H 0.23319 0.92182 0.05024 0.0
H273 H 0.41352 0.0488 0.07439 0.0
H274 H 0.29222 0.01737 0.09518 0.0
H275 H 0.3545 0.95391 0.10462 0.0
C276 C 0.30812 0.91554 0.08105 0.0
C277 C 0.27368 0.90584 0.06295 0.0
C278 C 0.31888 0.0243 0.09157 0.0
C279 C 0.31302 0.96869 0.08822 0.0
C280 C 0.3388 0.05559 0.0841 0.0
C281 C 0.3732 0.06499 0.07534 0.0
C282 C 0.33356 1.00234 0.09097 0.0
C283 C 0.38701 0.04248 0.07933 0.0
C284 C 0.32784 0.94687 0.09342 0.0
C285 C 0.25971 0.92828 0.06211 0.0
N286 N 0.3672 0.01229 0.08623 0.0
N287 N 0.27938 0.95856 0.0739 0.0
H288 H 0.14523 0.58205 0.02296 0.0
H289 H 0.26794 0.4931 0.99068 0.0
H290 H 0.25093 0.62743 0.99522 0.0
H291 H 0.16141 0.44619 0.00129 0.0
H292 H 0.26145 0.54193 0.98539 0.0
H293 H 0.14992 0.53232 0.00634 0.0
C294 C 0.16946 0.58153 0.01268 0.0
C295 C 0.19784 0.60899 0.01151 0.0
C296 C 0.2394 0.52106 0.98852 0.0
C297 C 0.2034 0.55186 0.99266 0.0
C298 C 0.24303 0.49295 0.99184 0.0
C299 C 0.21514 0.46522 0.99698 0.0
C300 C 0.20761 0.52186 0.99086 0.0
C301 C 0.18362 0.46687 0.99766 0.0
C302 C 0.17209 0.55308 0.00307 0.0
C303 C 0.22845 0.60691 0.99635 0.0
N304 N 0.18074 0.49473 0.99517 0.0
N305 N 0.23047 0.57884 0.98853 0.0
H306 H 0.52358 0.1752 0.0548 0.0
H307 H 0.71259 0.2954 0.03357 0.0
H308 H 0.55458 0.27371 0.07609 0.0
H309 H 0.68544 0.19718 0.02774 0.0
H310 H 0.6542 0.28719 0.04584 0.0
H311 H 0.58211 0.182 0.0435 0.0
C312 C 0.54263 0.19821 0.05765 0.0
C313 C 0.53407 0.2239 0.06647 0.0
C314 C 0.66091 0.26737 0.04179 0.0
C315 C 0.60098 0.23185 0.05284 0.0
C316 C 0.69434 0.27206 0.0345 0.0
C317 C 0.70405 0.24696 0.02957 0.0
C318 C 0.63675 0.23732 0.04414 0.0
C319 C 0.67913 0.21724 0.03132 0.0
C320 C 0.57602 0.20208 0.05095 0.0
C321 C 0.55986 0.25318 0.06937 0.0
N322 N 0.64665 0.21324 0.03851 0.0
N323 N 0.59197 0.25631 0.06237 0.0
H324 H 0.48101 0.64409 0.83575 0.0
H325 H 0.39425 0.5079 0.15962 0.0
H326 H 0.48969 0.65768 0.11898 0.0
H327 H 0.35904 0.50704 0.8881 0.0
H328 H 0.43136 0.5618 0.14614 0.0
H329 H 0.43764 0.5931 0.85287 0.0
C330 C 0.47347 0.6363 0.90158 0.0
C331 C 0.48891 0.65486 0.97618 0.0
C332 C 0.41537 0.54987 0.0897 0.0
C333 C 0.43975 0.5965 0.99655 0.0
C334 C 0.39447 0.51905 0.09704 0.0
C335 C 0.37381 0.50294 0.02449 0.0
C336 C 0.416 0.56455 0.00881 0.0
C337 C 0.37455 0.51866 0.94552 0.0
C338 C 0.4487 0.6073 0.91135 0.0
C339 C 0.47818 0.64397 0.06004 0.0
N340 N 0.39557 0.54851 0.93946 0.0
N341 N 0.45453 0.61523 0.06818 0.0
H342 H 0.75372 0.51929 0.08514 0.0
H343 H 0.87957 0.43396 0.04583 0.0
H344 H 0.85934 0.56761 0.05831 0.0
H345 H 0.77406 0.38677 0.07406 0.0
H346 H 0.87363 0.48308 0.06305 0.0
H347 H 0.7617 0.47112 0.09276 0.0
C348 C 0.77872 0.51985 0.08098 0.0
C349 C 0.80592 0.54769 0.07026 0.0
C350 C 0.85179 0.46204 0.06622 0.0
C351 C 0.81517 0.49204 0.07906 0.0
C352 C 0.85513 0.43394 0.05616 0.0
C353 C 0.82715 0.40618 0.05722 0.0
C354 C 0.82018 0.46253 0.07718 0.0
C355 C 0.79625 0.40756 0.07286 0.0
C356 C 0.78322 0.49219 0.0856 0.0
C357 C 0.83765 0.54676 0.0662 0.0
N358 N 0.79354 0.43527 0.08126 0.0
N359 N 0.84138 0.51933 0.07 0.0
H360 H 0.31202 0.72532 0.02987 0.0
H361 H 0.5005 0.84808 0.02451 0.0
H362 H 0.33541 0.82298 0.03817 0.0
H363 H 0.46851 0.75043 0.97538 0.0
H364 H 0.44156 0.84101 0.03586 0.0
H365 H 0.37078 0.73551 0.01909 0.0
C366 C 0.32953 0.74898 0.02974 0.0
C367 C 0.3186 0.77329 0.03478 0.0
C368 C 0.44767 0.82127 0.02232 0.0
C369 C 0.38657 0.78529 0.02191 0.0
C370 C 0.48124 0.82531 0.01562 0.0
C371 C 0.48964 0.79985 -0.00062 0.0
C372 C 0.42255 0.79159 0.01302 0.0
C373 C 0.46357 0.77084 0.98857 0.0
C374 C 0.36323 0.75484 0.02325 0.0
C375 C 0.3427 0.8035 0.03428 0.0
N376 N 0.43152 0.76758 0.99591 0.0
N377 N 0.37558 0.80867 0.02791 0.0
H378 H 0.62827 0.5045 0.89146 0.0
H379 H 0.52125 0.37693 0.21513 0.0
H380 H 0.65366 0.50889 0.17135 0.0
H381 H 0.5276 0.35663 0.9401 0.0
H382 H 0.56641 0.42715 0.20037 0.0
H383 H 0.58775 0.45196 0.90703 0.0
C384 C 0.62518 0.49436 0.95626 0.0
C385 C 0.64404 0.51103 0.03049 0.0
C386 C 0.55809 0.41164 0.1434 0.0
C387 C 0.5978 0.45112 0.04879 0.0
C388 C 0.53221 0.38314 0.1516 0.0
C389 C 0.52063 0.36283 0.07845 0.0
C390 C 0.57204 0.42013 0.06099 0.0
C391 C 0.53595 0.37169 0.99794 0.0
C392 C 0.60231 0.46435 0.96495 0.0
C393 C 0.63957 0.49671 0.11269 0.0
N394 N 0.56065 0.39991 0.99097 0.0
N395 N 0.61658 0.46765 0.11993 0.0
H396 H 0.1835 0.35927 0.72315 0.0
H397 H 0.28595 0.41504 0.28722 0.0
H398 H 0.28796 0.41775 0.72843 0.0
H399 H 0.18061 0.35961 0.28181 0.0
H400 H 0.28725 0.41576 0.44861 0.0
H401 H 0.18216 0.35865 0.56175 0.0
C402 C 0.20621 0.37201 0.6904 0.0
C403 C 0.23593 0.38861 0.73955 0.0
C404 C 0.26384 0.40345 0.41224 0.0
C405 C 0.2345 0.38794 0.55425 0.0
C406 C 0.26304 0.403 0.31994 0.0
C407 C 0.23309 0.38722 0.27076 0.0
C408 C 0.23448 0.38797 0.45605 0.0
C409 C 0.20425 0.37206 0.31696 0.0
C410 C 0.20538 0.37163 0.5981 0.0
C411 C 0.26451 0.40464 0.69331 0.0
N412 N 0.20568 0.3728 0.40702 0.0
N413 N 0.26308 0.40389 0.60325 0.0
H414 H 0.81144 0.30685 0.75567 0.0
H415 H 0.79168 0.21254 0.30165 0.0
H416 H 0.78716 0.20908 0.74194 0.0
H417 H 0.81367 0.30994 0.31513 0.0
H418 H 0.79038 0.21095 0.46257 0.0
H419 H 0.81255 0.30839 0.59473 0.0
C420 C 0.80627 0.28564 0.71883 0.0
C421 C 0.79919 0.25775 0.76255 0.0
C422 C 0.79551 0.23268 0.43047 0.0
C423 C 0.80052 0.25944 0.57763 0.0
C424 C 0.7963 0.23365 0.33842 0.0
C425 C 0.80281 0.26146 0.29464 0.0
C426 C 0.80129 0.25971 0.47953 0.0
C427 C 0.80858 0.28801 0.346 0.0
C428 C 0.80694 0.28658 0.62677 0.0
C429 C 0.79273 0.23107 0.71111 0.0
N430 N 0.80767 0.28647 0.43573 0.0
N431 N 0.79359 0.23259 0.62136 0.0
H432 H 0.60616 0.85381 0.71855 0.0
H433 H 0.55825 0.74659 0.27867 0.0
H434 H 0.55965 0.75481 0.71987 0.0
H435 H 0.60617 0.84551 0.2778 0.0
H436 H 0.5585 0.74904 0.44071 0.0
H437 H 0.60611 0.85131 0.55657 0.0
C438 C 0.59588 0.8316 0.6849 0.0
C439 C 0.58288 0.80453 0.73301 0.0
C440 C 0.56899 0.7702 0.40493 0.0
C441 C 0.5828 0.80142 0.54779 0.0
C442 C 0.56888 0.76878 0.31243 0.0
C443 C 0.58216 0.79584 0.26443 0.0
C444 C 0.58247 0.79889 0.44969 0.0
C445 C 0.59559 0.824 0.31183 0.0
C446 C 0.59589 0.83014 0.59244 0.0
C447 C 0.56994 0.77633 0.68575 0.0
N448 N 0.59536 0.82477 0.40156 0.0
N449 N 0.57024 0.77553 0.59602 0.0
H450 H 0.73639 0.59235 0.76829 0.0
H451 H 0.83544 0.65618 0.33166 0.0
H452 H 0.84004 0.65315 0.77294 0.0
H453 H 0.73189 0.59508 0.32692 0.0
H454 H 0.83743 0.65553 0.4929 0.0
H455 H 0.73441 0.59293 0.60704 0.0
C456 C 0.75883 0.60577 0.73544 0.0
C457 C 0.78848 0.62276 0.78445 0.0
C458 C 0.81425 0.6423 0.45676 0.0
C459 C 0.78624 0.62359 0.59907 0.0
C460 C 0.81303 0.64267 0.36449 0.0
C461 C 0.7834 0.62562 0.31546 0.0
C462 C 0.78565 0.62474 0.50083 0.0
C463 C 0.75523 0.6086 0.36192 0.0
C464 C 0.75762 0.60611 0.64316 0.0
C465 C 0.81667 0.6397 0.73797 0.0
N466 N 0.75707 0.60855 0.45201 0.0
N467 N 0.81484 0.63972 0.64788 0.0
H468 H 0.23252 0.80757 0.31846 0.0
H469 H 0.20944 0.70417 0.75041 0.0
H470 H 0.21201 0.7104 0.30993 0.0
H471 H 0.22756 0.80087 0.75866 0.0
H472 H 0.21069 0.70605 0.58878 0.0
H473 H 0.23145 0.80575 0.48015 0.0
C474 C 0.22785 0.78588 0.35051 0.0
C475 C 0.22235 0.75912 0.30047 0.0
C476 C 0.21436 0.72684 0.62602 0.0
C477 C 0.22103 0.75683 0.48544 0.0
C478 C 0.21362 0.72576 0.71832 0.0
C479 C 0.21839 0.75238 0.76827 0.0
C480 C 0.21994 0.75474 0.58334 0.0
C481 C 0.22375 0.77975 0.723 0.0
C482 C 0.2272 0.78484 0.44283 0.0
C483 C 0.2164 0.73164 0.34567 0.0
N484 N 0.22441 0.78021 0.63329 0.0
N485 N 0.21589 0.73122 0.4354 0.0
H486 H 0.45779 0.26852 0.78201 0.0
H487 H 0.41823 0.16328 0.33998 0.0
H488 H 0.42081 0.16943 0.78118 0.0
H489 H 0.45538 0.26238 0.34064 0.0
H490 H 0.4188 0.16503 0.50194 0.0
H491 H 0.45698 0.2668 0.61999 0.0
C492 C 0.44951 0.24643 0.74786 0.0
C493 C 0.43936 0.21911 0.79534 0.0
C494 C 0.42683 0.18638 0.46656 0.0
C495 C 0.43835 0.21693 0.61003 0.0
C496 C 0.4265 0.18538 0.37409 0.0
C497 C 0.4368 0.2127 0.32658 0.0
C498 C 0.43754 0.21491 0.51185 0.0
C499 C 0.44725 0.2407 0.37438 0.0
C500 C 0.44904 0.24544 0.65536 0.0
C501 C 0.42886 0.19111 0.74748 0.0
N502 N 0.44736 0.24107 0.4642 0.0
N503 N 0.42863 0.19076 0.65765 0.0
loop_
_geom_bond_atom_site_label_1
_geom_bond_atom_site_label_2
_geom_bond_distance
_geom_bond_site_symmetry_2
_ccdc_geom_bond_type
Co0 N5 2.057 . S
Co0 O17 2.021 1_554 S
Co0 O20 2.062 . S
Co0 O24 2.117 . S
Co0 O25 2.020 . S
C1 O21 1.259 . S
C1 O24 1.258 . S
Co2 N11 2.057 1_554 S
Co2 O18 2.117 1_554 S
Co2 O19 2.020 . S
Co2 O21 2.021 . S
Co2 O26 2.062 . S
C3 N5 1.316 1_556 S
C3 N6 1.347 1_556 S
C3 H8 0.931 . S
C4 N5 1.375 . S
C4 C7 1.350 . S
C4 H9 0.930 . S
N5 Co0 2.057 . S
N5 C3 1.316 1_554 S
N5 C4 1.375 . S
N6 C3 1.347 1_554 S
N6 C7 1.373 . S
C7 C4 1.350 . S
C7 N6 1.373 . S
C7 H28 0.931 . S
H8 C3 0.931 . S
H9 C4 0.930 . S
C10 O17 1.259 . S
C10 O18 1.258 . S
N11 Co2 2.057 1_556 S
N11 C12 1.316 1_556 S
N11 C13 1.375 . S
C12 N11 1.316 1_554 S
C12 N14 1.347 . S
C12 H23 0.931 . S
C13 N11 1.375 . S
C13 C15 1.350 . S
C13 H22 0.930 . S
N14 C12 1.347 . S
N14 C15 1.373 1_554 S
C15 C13 1.350 . S
C15 N14 1.373 1_556 S
C15 H29 0.931 . S
C16 O19 1.256 . S
C16 O20 1.255 . S
O17 Co0 2.021 1_556 S
O17 C10 1.259 . S
O18 Co2 2.117 1_556 S
O18 C10 1.258 . S
O19 Co2 2.020 . S
O19 C16 1.256 . S
O20 Co0 2.062 . S
O20 C16 1.255 . S
O21 C1 1.259 . S
O21 Co2 2.021 . S
H22 C13 0.930 . S
H23 C12 0.931 . S
O24 Co0 2.117 . S
O24 C1 1.258 . S
O25 Co0 2.020 . S
O25 C27 1.256 . S
O26 Co2 2.062 . S
O26 C27 1.255 . S
C27 O25 1.256 . S
C27 O26 1.255 . S
H28 C7 0.931 . S
H29 C15 0.931 . S
Co30 N35 2.057 . S
Co30 O47 2.021 1_554 S
Co30 O50 2.062 . S
Co30 O54 2.117 . S
Co30 O55 2.020 . S
C31 O51 1.259 . S
C31 O54 1.258 . S
Co32 N41 2.057 . S
Co32 O48 2.117 1_554 S
Co32 O49 2.020 . S
Co32 O51 2.021 . S
Co32 O56 2.062 . S
C33 N35 1.316 . S
C33 N36 1.347 . S
C33 H38 0.931 1_554 S
C34 N35 1.375 . S
C34 C37 1.350 . S
C34 H39 0.930 . S
N35 Co30 2.057 . S
N35 C33 1.316 . S
N35 C34 1.375 . S
N36 C33 1.347 . S
N36 C37 1.373 . S
C37 C34 1.350 . S
C37 N36 1.373 . S
C37 H58 0.931 . S
H38 C33 0.931 1_556 S
H39 C34 0.930 . S
C40 O47 1.259 . S
C40 O48 1.258 . S
N41 Co32 2.057 . S
N41 C42 1.316 . S
N41 C43 1.375 1_554 S
C42 N41 1.316 . S
C42 N44 1.347 . S
C42 H53 0.931 . S
C43 N41 1.375 1_556 S
C43 C45 1.350 . S
C43 H52 0.930 . S
N44 C42 1.347 . S
N44 C45 1.373 1_554 S
C45 C43 1.350 . S
C45 N44 1.373 1_556 S
C45 H59 0.931 . S
C46 O49 1.256 . S
C46 O50 1.255 . S
O47 Co30 2.021 1_556 S
O47 C40 1.259 . S
O48 Co32 2.117 1_556 S
O48 C40 1.258 . S
O49 Co32 2.020 . S
O49 C46 1.256 . S
O50 Co30 2.062 . S
O50 C46 1.255 . S
O51 C31 1.259 . S
O51 Co32 2.021 . S
H52 C43 0.930 . S
H53 C42 0.931 . S
O54 Co30 2.117 . S
O54 C31 1.258 . S
O55 Co30 2.020 . S
O55 C57 1.256 . S
O56 Co32 2.062 . S
O56 C57 1.255 . S
C57 O55 1.256 . S
C57 O56 1.255 . S
H58 C37 0.931 . S
H59 C45 0.931 . S
Co60 N65 2.057 1_554 S
Co60 O77 2.021 . S
Co60 O80 2.062 . S
Co60 O84 2.117 1_554 S
Co60 O85 2.020 . S
C61 O81 1.259 . S
C61 O84 1.258 . S
Co62 N71 2.057 1_556 S
Co62 O78 2.117 1_556 S
Co62 O79 2.020 . S
Co62 O81 2.021 . S
Co62 O86 2.062 . S
C63 N65 1.316 1_554 S
C63 N66 1.347 1_554 S
C63 H68 0.931 . S
C64 N65 1.375 . S
C64 C67 1.350 . S
C64 H69 0.930 . S
N65 Co60 2.057 1_556 S
N65 C63 1.316 1_556 S
N65 C64 1.375 . S
N66 C63 1.347 1_556 S
N66 C67 1.373 . S
C67 C64 1.350 . S
C67 N66 1.373 . S
C67 H88 0.931 . S
H68 C63 0.931 . S
H69 C64 0.930 . S
C70 O77 1.259 . S
C70 O78 1.258 . S
N71 Co62 2.057 1_554 S
N71 C72 1.316 1_554 S
N71 C73 1.375 . S
C72 N71 1.316 1_556 S
C72 N74 1.347 1_556 S
C72 H83 0.931 . S
C73 N71 1.375 . S
C73 C75 1.350 . S
C73 H82 0.930 . S
N74 C72 1.347 1_554 S
N74 C75 1.373 . S
C75 C73 1.350 . S
C75 N74 1.373 . S
C75 H89 0.931 . S
C76 O79 1.256 1_554 S
C76 O80 1.255 . S
O77 Co60 2.021 . S
O77 C70 1.259 . S
O78 Co62 2.117 1_554 S
O78 C70 1.258 . S
O79 Co62 2.020 . S
O79 C76 1.256 1_556 S
O80 Co60 2.062 . S
O80 C76 1.255 . S
O81 C61 1.259 . S
O81 Co62 2.021 . S
H82 C73 0.930 . S
H83 C72 0.931 . S
O84 Co60 2.117 1_556 S
O84 C61 1.258 . S
O85 Co60 2.020 . S
O85 C87 1.256 . S
O86 Co62 2.062 . S
O86 C87 1.255 1_556 S
C87 O85 1.256 . S
C87 O86 1.255 1_554 S
H88 C67 0.931 . S
H89 C75 0.931 . S
Co90 N95 2.057 . S
Co90 O107 2.021 1_554 S
Co90 O110 2.062 . S
Co90 O114 2.117 . S
Co90 O115 2.020 . S
C91 O111 1.259 . S
C91 O114 1.258 . S
Co92 N101 2.057 . S
Co92 O108 2.117 1_554 S
Co92 O109 2.020 . S
Co92 O111 2.021 . S
Co92 O116 2.062 . S
C93 N95 1.316 . S
C93 N96 1.347 . S
C93 H98 0.931 1_554 S
C94 N95 1.375 . S
C94 C97 1.350 . S
C94 H99 0.930 . S
N95 Co90 2.057 . S
N95 C93 1.316 . S
N95 C94 1.375 . S
N96 C93 1.347 . S
N96 C97 1.373 . S
C97 C94 1.350 . S
C97 N96 1.373 . S
C97 H118 0.931 . S
H98 C93 0.931 1_556 S
H99 C94 0.930 . S
C100 O107 1.259 . S
C100 O108 1.258 . S
N101 Co92 2.057 . S
N101 C102 1.316 . S
N101 C103 1.375 1_554 S
C102 N101 1.316 . S
C102 N104 1.347 . S
C102 H113 0.931 . S
C103 N101 1.375 1_556 S
C103 C105 1.350 . S
C103 H112 0.930 . S
N104 C102 1.347 . S
N104 C105 1.373 1_554 S
C105 C103 1.350 . S
C105 N104 1.373 1_556 S
C105 H119 0.931 . S
C106 O109 1.256 . S
C106 O110 1.255 . S
O107 Co90 2.021 1_556 S
O107 C100 1.259 . S
O108 Co92 2.117 1_556 S
O108 C100 1.258 . S
O109 Co92 2.020 . S
O109 C106 1.256 . S
O110 Co90 2.062 . S
O110 C106 1.255 . S
O111 C91 1.259 . S
O111 Co92 2.021 . S
H112 C103 0.930 . S
H113 C102 0.931 . S
O114 Co90 2.117 . S
O114 C91 1.258 . S
O115 Co90 2.020 . S
O115 C117 1.256 . S
O116 Co92 2.062 . S
O116 C117 1.255 . S
C117 O115 1.256 . S
C117 O116 1.255 . S
H118 C97 0.931 . S
H119 C105 0.931 . S
Co120 N125 2.057 . S
Co120 O137 2.021 1_554 S
Co120 O140 2.062 . S
Co120 O144 2.117 . S
Co120 O145 2.020 . S
C121 O141 1.259 . S
C121 O144 1.258 . S
Co122 N131 2.057 1_554 S
Co122 O138 2.117 1_554 S
Co122 O139 2.020 . S
Co122 O141 2.021 . S
Co122 O146 2.062 . S
C123 N125 1.316 1_556 S
C123 N126 1.347 1_556 S
C123 H128 0.931 . S
C124 N125 1.375 . S
C124 C127 1.350 . S
C124 H129 0.930 . S
N125 Co120 2.057 . S
N125 C123 1.316 1_554 S
N125 C124 1.375 . S
N126 C123 1.347 1_554 S
N126 C127 1.373 . S
C127 C124 1.350 . S
C127 N126 1.373 . S
C127 H148 0.931 . S
H128 C123 0.931 . S
H129 C124 0.930 . S
C130 O137 1.259 . S
C130 O138 1.258 . S
N131 Co122 2.057 1_556 S
N131 C132 1.316 1_556 S
N131 C133 1.375 . S
C132 N131 1.316 1_554 S
C132 N134 1.347 . S
C132 H143 0.931 . S
C133 N131 1.375 . S
C133 C135 1.350 . S
C133 H142 0.930 . S
N134 C132 1.347 . S
N134 C135 1.373 1_554 S
C135 C133 1.350 . S
C135 N134 1.373 1_556 S
C135 H149 0.931 . S
C136 O139 1.256 . S
C136 O140 1.255 . S
O137 Co120 2.021 1_556 S
O137 C130 1.259 . S
O138 Co122 2.117 1_556 S
O138 C130 1.258 . S
O139 Co122 2.020 . S
O139 C136 1.256 . S
O140 Co120 2.062 . S
O140 C136 1.255 . S
O141 C121 1.259 . S
O141 Co122 2.021 . S
H142 C133 0.930 . S
H143 C132 0.931 . S
O144 Co120 2.117 . S
O144 C121 1.258 . S
O145 Co120 2.020 . S
O145 C147 1.256 . S
O146 Co122 2.062 . S
O146 C147 1.255 . S
C147 O145 1.256 . S
C147 O146 1.255 . S
H148 C127 0.931 . S
H149 C135 0.931 . S
Co150 N155 2.057 . S
Co150 O167 2.021 . S
Co150 O170 2.062 . S
Co150 O174 2.117 1_554 S
Co150 O175 2.020 . S
C151 O171 1.259 . S
C151 O174 1.258 . S
Co152 N161 2.057 . S
Co152 O168 2.117 . S
Co152 O169 2.020 . S
Co152 O171 2.021 1_554 S
Co152 O176 2.062 . S
C153 N155 1.316 . S
C153 N156 1.347 . S
C153 H158 0.931 . S
C154 N155 1.375 1_556 S
C154 C157 1.350 . S
C154 H159 0.930 . S
N155 Co150 2.057 . S
N155 C153 1.316 . S
N155 C154 1.375 1_554 S
N156 C153 1.347 . S
N156 C157 1.373 1_554 S
C157 C154 1.350 . S
C157 N156 1.373 1_556 S
C157 H178 0.931 . S
H158 C153 0.931 . S
H159 C154 0.930 . S
C160 O167 1.259 . S
C160 O168 1.258 . S
N161 Co152 2.057 . S
N161 C162 1.316 . S
N161 C163 1.375 . S
C162 N161 1.316 . S
C162 N164 1.347 . S
C162 H173 0.931 1_554 S
C163 N161 1.375 . S
C163 C165 1.350 . S
C163 H172 0.930 . S
N164 C162 1.347 . S
N164 C165 1.373 . S
C165 C163 1.350 . S
C165 N164 1.373 . S
C165 H179 0.931 . S
C166 O169 1.256 . S
C166 O170 1.255 . S
O167 Co150 2.021 . S
O167 C160 1.259 . S
O168 Co152 2.117 . S
O168 C160 1.258 . S
O169 Co152 2.020 . S
O169 C166 1.256 . S
O170 Co150 2.062 . S
O170 C166 1.255 . S
O171 C151 1.259 . S
O171 Co152 2.021 1_556 S
H172 C163 0.930 . S
H173 C162 0.931 1_556 S
O174 Co150 2.117 1_556 S
O174 C151 1.258 . S
O175 Co150 2.020 . S
O175 C177 1.256 . S
O176 Co152 2.062 . S
O176 C177 1.255 . S
C177 O175 1.256 . S
C177 O176 1.255 . S
H178 C157 0.931 . S
H179 C165 0.931 . S
H180 C186 0.930 . S
H181 C190 0.930 . S
H182 C195 0.929 . S
H183 C193 0.929 . S
H184 C188 0.929 . S
H185 C194 0.929 . S
C186 H180 0.930 . S
C186 C187 1.367 . S
C186 C194 1.378 . S
C187 C186 1.367 . S
C187 C195 1.433 1_554 S
C188 H184 0.929 . S
C188 C190 1.378 . S
C188 C192 1.350 1_556 S
C189 C192 1.463 . S
C189 C194 1.350 . S
C189 N197 1.427 1_554 S
C190 H181 0.930 . S
C190 C188 1.378 . S
C190 C191 1.367 1_556 S
C191 C190 1.367 1_554 S
C191 C193 1.433 . S
C192 C188 1.350 1_554 S
C192 C189 1.463 . S
C192 N196 1.427 . S
C193 H183 0.929 . S
C193 C191 1.433 . S
C193 N196 1.384 . S
C194 H185 0.929 . S
C194 C186 1.378 . S
C194 C189 1.350 . S
C195 H182 0.929 . S
C195 C187 1.433 1_556 S
C195 N197 1.384 . S
N196 C192 1.427 . S
N196 C193 1.384 . S
N197 C189 1.427 1_556 S
N197 C195 1.384 . S
H198 C204 0.930 . S
H199 C208 0.930 . S
H200 C213 0.929 . S
H201 C211 0.929 . S
H202 C206 0.929 . S
H203 C212 0.929 . S
C204 H198 0.930 . S
C204 C205 1.367 1_556 S
C204 C212 1.378 1_455 S
C205 C204 1.367 1_554 S
C205 C213 1.433 . S
C206 H202 0.929 . S
C206 C208 1.378 . S
C206 C210 1.350 . S
C207 C210 1.463 . S
C207 C212 1.350 1_554 S
C207 N215 1.427 . S
C208 H199 0.930 . S
C208 C206 1.378 . S
C208 C209 1.367 . S
C209 C208 1.367 . S
C209 C211 1.433 1_554 S
C210 C206 1.350 . S
C210 C207 1.463 . S
C210 N214 1.427 1_554 S
C211 H201 0.929 . S
C211 C209 1.433 1_556 S
C211 N214 1.384 . S
C212 H203 0.929 . S
C212 C204 1.378 1_655 S
C212 C207 1.350 1_556 S
C213 H200 0.929 . S
C213 C205 1.433 . S
C213 N215 1.384 1_455 S
N214 C210 1.427 1_556 S
N214 C211 1.384 . S
N215 C207 1.427 . S
N215 C213 1.384 1_655 S
H216 C222 0.930 . S
H217 C226 0.930 . S
H218 C231 0.929 . S
H219 C229 0.929 . S
H220 C224 0.929 . S
H221 C230 0.929 . S
C222 H216 0.930 . S
C222 C223 1.367 1_556 S
C222 C230 1.378 . S
C223 C222 1.367 1_554 S
C223 C231 1.433 . S
C224 H220 0.929 . S
C224 C226 1.378 . S
C224 C228 1.350 . S
C225 C228 1.463 1_545 S
C225 C230 1.350 1_554 S
C225 N233 1.427 . S
C226 H217 0.930 . S
C226 C224 1.378 . S
C226 C227 1.367 . S
C227 C226 1.367 . S
C227 C229 1.433 1_554 S
C228 C224 1.350 . S
C228 C225 1.463 1_565 S
C228 N232 1.427 1_554 S
C229 H219 0.929 . S
C229 C227 1.433 1_556 S
C229 N232 1.384 . S
C230 H221 0.929 . S
C230 C222 1.378 . S
C230 C225 1.350 1_556 S
C231 H218 0.929 . S
C231 C223 1.433 . S
C231 N233 1.384 . S
N232 C228 1.427 1_556 S
N232 C229 1.384 . S
N233 C225 1.427 . S
N233 C231 1.384 . S
H234 C240 0.930 . S
H235 C244 0.930 . S
H236 C249 0.929 . S
H237 C247 0.929 . S
H238 C242 0.929 . S
H239 C248 0.929 . S
C240 H234 0.930 . S
C240 C241 1.367 . S
C240 C248 1.378 . S
C241 C240 1.367 . S
C241 C249 1.433 1_554 S
C242 H238 0.929 . S
C242 C244 1.378 . S
C242 C246 1.350 1_556 S
C243 C246 1.463 . S
C243 C248 1.350 . S
C243 N251 1.427 1_554 S
C244 H235 0.930 . S
C244 C242 1.378 . S
C244 C245 1.367 1_556 S
C245 C244 1.367 1_554 S
C245 C247 1.433 . S
C246 C242 1.350 1_554 S
C246 C243 1.463 . S
C246 N250 1.427 . S
C247 H237 0.929 . S
C247 C245 1.433 . S
C247 N250 1.384 . S
C248 H239 0.929 . S
C248 C240 1.378 . S
C248 C243 1.350 . S
C249 H236 0.929 . S
C249 C241 1.433 1_556 S
C249 N251 1.384 . S
N250 C246 1.427 . S
N250 C247 1.384 . S
N251 C243 1.427 1_556 S
N251 C249 1.384 . S
H252 C258 0.930 . S
H253 C262 0.930 . S
H254 C267 0.929 . S
H255 C265 0.929 . S
H256 C260 0.929 . S
H257 C266 0.929 . S
C258 H252 0.930 . S
C258 C259 1.367 . S
C258 C266 1.378 . S
C259 C258 1.367 . S
C259 C267 1.433 1_554 S
C260 H256 0.929 . S
C260 C262 1.378 1_455 S
C260 C264 1.350 1_556 S
C261 C264 1.463 . S
C261 C266 1.350 . S
C261 N269 1.427 1_554 S
C262 H253 0.930 . S
C262 C260 1.378 1_655 S
C262 C263 1.367 1_556 S
C263 C262 1.367 1_554 S
C263 C265 1.433 . S
C264 C260 1.350 1_554 S
C264 C261 1.463 . S
C264 N268 1.427 . S
C265 H255 0.929 . S
C265 C263 1.433 . S
C265 N268 1.384 1_655 S
C266 H257 0.929 . S
C266 C258 1.378 . S
C266 C261 1.350 . S
C267 H254 0.929 . S
C267 C259 1.433 1_556 S
C267 N269 1.384 . S
N268 C264 1.427 . S
N268 C265 1.384 1_455 S
N269 C261 1.427 1_556 S
N269 C267 1.384 . S
H270 C276 0.930 . S
H271 C280 0.930 . S
H272 C285 0.929 . S
H273 C283 0.929 . S
H274 C278 0.929 . S
H275 C284 0.929 . S
C276 H270 0.930 . S
C276 C277 1.367 . S
C276 C284 1.378 . S
C277 C276 1.367 . S
C277 C285 1.433 1_554 S
C278 H274 0.929 . S
C278 C280 1.378 . S
C278 C282 1.350 1_556 S
C279 C282 1.463 1_565 S
C279 C284 1.350 . S
C279 N287 1.427 1_554 S
C280 H271 0.930 . S
C280 C278 1.378 . S
C280 C281 1.367 1_556 S
C281 C280 1.367 1_554 S
C281 C283 1.433 . S
C282 C278 1.350 1_554 S
C282 C279 1.463 1_545 S
C282 N286 1.427 . S
C283 H273 0.929 . S
C283 C281 1.433 . S
C283 N286 1.384 . S
C284 H275 0.929 . S
C284 C276 1.378 . S
C284 C279 1.350 . S
C285 H272 0.929 . S
C285 C277 1.433 1_556 S
C285 N287 1.384 . S
N286 C282 1.427 . S
N286 C283 1.384 . S
N287 C279 1.427 1_556 S
N287 C285 1.384 . S
H288 C294 0.930 . S
H289 C298 0.930 . S
H290 C303 0.929 . S
H291 C301 0.929 . S
H292 C296 0.929 . S
H293 C302 0.929 . S
C294 H288 0.930 . S
C294 C295 1.367 . S
C294 C302 1.378 . S
C295 C294 1.367 . S
C295 C303 1.432 1_556 S
C296 H292 0.929 . S
C296 C298 1.378 . S
C296 C300 1.350 . S
C297 C300 1.463 . S
C297 C302 1.350 1_554 S
C297 N305 1.427 . S
C298 H289 0.930 . S
C298 C296 1.378 . S
C298 C299 1.367 . S
C299 C298 1.367 . S
C299 C301 1.433 1_554 S
C300 C296 1.350 . S
C300 C297 1.463 . S
C300 N304 1.427 1_554 S
C301 H291 0.929 . S
C301 C299 1.433 1_556 S
C301 N304 1.384 . S
C302 H293 0.929 . S
C302 C294 1.378 . S
C302 C297 1.350 1_556 S
C303 H290 0.929 . S
C303 C295 1.432 1_554 S
C303 N305 1.384 . S
N304 C300 1.427 1_556 S
N304 C301 1.384 . S
N305 C297 1.427 . S
N305 C303 1.384 . S
H306 C312 0.930 . S
H307 C316 0.930 . S
H308 C321 0.929 . S
H309 C319 0.929 . S
H310 C314 0.929 . S
H311 C320 0.929 . S
C312 H306 0.930 . S
C312 C313 1.367 1_556 S
C312 C320 1.378 . S
C313 C312 1.367 1_554 S
C313 C321 1.433 . S
C314 H310 0.929 . S
C314 C316 1.378 . S
C314 C318 1.350 . S
C315 C318 1.463 . S
C315 C320 1.350 1_554 S
C315 N323 1.427 . S
C316 H307 0.930 . S
C316 C314 1.378 . S
C316 C317 1.367 . S
C317 C316 1.367 . S
C317 C319 1.433 1_554 S
C318 C314 1.350 . S
C318 C315 1.463 . S
C318 N322 1.427 1_554 S
C319 H309 0.929 . S
C319 C317 1.433 1_556 S
C319 N322 1.384 . S
C320 H311 0.929 . S
C320 C312 1.378 . S
C320 C315 1.350 1_556 S
C321 H308 0.929 . S
C321 C313 1.433 . S
C321 N323 1.384 . S
N322 C318 1.427 1_556 S
N322 C319 1.384 . S
N323 C315 1.427 . S
N323 C321 1.384 . S
H324 C330 0.930 . S
H325 C334 0.930 . S
H326 C339 0.929 . S
H327 C337 0.929 . S
H328 C332 0.929 . S
H329 C338 0.929 . S
C330 H324 0.930 . S
C330 C331 1.367 1_556 S
C330 C338 1.378 . S
C331 C330 1.367 1_554 S
C331 C339 1.433 . S
C332 H328 0.929 . S
C332 C334 1.378 . S
C332 C336 1.350 . S
C333 C336 1.463 . S
C333 C338 1.350 1_554 S
C333 N341 1.427 . S
C334 H325 0.930 . S
C334 C332 1.378 . S
C334 C335 1.367 . S
C335 C334 1.367 . S
C335 C337 1.433 1_554 S
C336 C332 1.350 . S
C336 C333 1.463 . S
C336 N340 1.427 1_554 S
C337 H327 0.929 . S
C337 C335 1.433 1_556 S
C337 N340 1.384 . S
C338 H329 0.929 . S
C338 C330 1.378 . S
C338 C333 1.350 1_556 S
C339 H326 0.929 . S
C339 C331 1.433 . S
C339 N341 1.384 . S
N340 C336 1.427 1_556 S
N340 C337 1.384 . S
N341 C333 1.427 . S
N341 C339 1.384 . S
H342 C348 0.930 . S
H343 C352 0.930 . S
H344 C357 0.929 . S
H345 C355 0.929 . S
H346 C350 0.929 . S
H347 C356 0.929 . S
C348 H342 0.930 . S
C348 C349 1.367 . S
C348 C356 1.378 . S
C349 C348 1.367 . S
C349 C357 1.433 1_554 S
C350 H346 0.929 . S
C350 C352 1.378 . S
C350 C354 1.350 1_556 S
C351 C354 1.463 . S
C351 C356 1.350 . S
C351 N359 1.427 1_554 S
C352 H343 0.930 . S
C352 C350 1.378 . S
C352 C353 1.367 1_556 S
C353 C352 1.367 1_554 S
C353 C355 1.433 . S
C354 C350 1.350 1_554 S
C354 C351 1.463 . S
C354 N358 1.427 . S
C355 H345 0.929 . S
C355 C353 1.433 . S
C355 N358 1.384 . S
C356 H347 0.929 . S
C356 C348 1.378 . S
C356 C351 1.350 . S
C357 H344 0.929 . S
C357 C349 1.433 1_556 S
C357 N359 1.384 . S
N358 C354 1.427 . S
N358 C355 1.384 . S
N359 C351 1.427 1_556 S
N359 C357 1.384 . S
H360 C366 0.930 . S
H361 C370 0.930 . S
H362 C375 0.929 . S
H363 C373 0.929 . S
H364 C368 0.929 . S
H365 C374 0.929 . S
C366 H360 0.930 . S
C366 C367 1.367 . S
C366 C374 1.378 . S
C367 C366 1.367 . S
C367 C375 1.433 1_554 S
C368 H364 0.929 . S
C368 C370 1.378 . S
C368 C372 1.350 1_556 S
C369 C372 1.463 . S
C369 C374 1.350 . S
C369 N377 1.427 1_554 S
C370 H361 0.930 . S
C370 C368 1.378 . S
C370 C371 1.367 1_556 S
C371 C370 1.367 1_554 S
C371 C373 1.433 . S
C372 C368 1.350 1_554 S
C372 C369 1.463 . S
C372 N376 1.427 . S
C373 H363 0.929 . S
C373 C371 1.433 . S
C373 N376 1.384 . S
C374 H365 0.929 . S
C374 C366 1.378 . S
C374 C369 1.350 . S
C375 H362 0.929 . S
C375 C367 1.433 1_556 S
C375 N377 1.384 . S
N376 C372 1.427 . S
N376 C373 1.384 . S
N377 C369 1.427 1_556 S
N377 C375 1.384 . S
H378 C384 0.930 . S
H379 C388 0.930 . S
H380 C393 0.929 . S
H381 C391 0.929 . S
H382 C386 0.929 . S
H383 C392 0.929 . S
C384 H378 0.930 . S
C384 C385 1.367 1_556 S
C384 C392 1.378 . S
C385 C384 1.367 1_554 S
C385 C393 1.433 . S
C386 H382 0.929 . S
C386 C388 1.378 . S
C386 C390 1.350 . S
C387 C390 1.463 . S
C387 C392 1.350 1_554 S
C387 N395 1.427 . S
C388 H379 0.930 . S
C388 C386 1.378 . S
C388 C389 1.367 . S
C389 C388 1.367 . S
C389 C391 1.433 1_554 S
C390 C386 1.350 . S
C390 C387 1.463 . S
C390 N394 1.427 1_554 S
C391 H381 0.929 . S
C391 C389 1.433 1_556 S
C391 N394 1.384 . S
C392 H383 0.929 . S
C392 C384 1.378 . S
C392 C387 1.350 1_556 S
C393 H380 0.929 . S
C393 C385 1.433 . S
C393 N395 1.384 . S
N394 C390 1.427 1_556 S
N394 C391 1.384 . S
N395 C387 1.427 . S
N395 C393 1.384 . S
H396 C402 0.930 . S
H397 C406 0.930 . S
H398 C411 0.929 . S
H399 C409 0.929 . S
H400 C404 0.929 . S
H401 C410 0.929 . S
C402 H396 0.930 . S
C402 C403 1.367 . S
C402 C410 1.378 . S
C403 C402 1.367 . S
C403 C411 1.433 . S
C404 H400 0.929 . S
C404 C406 1.378 . S
C404 C408 1.350 . S
C405 C408 1.463 . S
C405 C410 1.350 . S
C405 N413 1.427 . S
C406 H397 0.930 . S
C406 C404 1.378 . S
C406 C407 1.367 . S
C407 C406 1.367 . S
C407 C409 1.433 . S
C408 C404 1.350 . S
C408 C405 1.463 . S
C408 N412 1.427 . S
C409 H399 0.929 . S
C409 C407 1.433 . S
C409 N412 1.384 . S
C410 H401 0.929 . S
C410 C402 1.378 . S
C410 C405 1.350 . S
C411 H398 0.929 . S
C411 C403 1.433 . S
C411 N413 1.384 . S
N412 C408 1.427 . S
N412 C409 1.384 . S
N413 C405 1.427 . S
N413 C411 1.384 . S
H414 C420 0.930 . S
H415 C424 0.930 . S
H416 C429 0.929 . S
H417 C427 0.929 . S
H418 C422 0.929 . S
H419 C428 0.929 . S
C420 H414 0.930 . S
C420 C421 1.367 . S
C420 C428 1.378 . S
C421 C420 1.367 . S
C421 C429 1.433 . S
C422 H418 0.929 . S
C422 C424 1.378 . S
C422 C426 1.350 . S
C423 C426 1.463 . S
C423 C428 1.350 . S
C423 N431 1.427 . S
C424 H415 0.930 . S
C424 C422 1.378 . S
C424 C425 1.367 . S
C425 C424 1.367 . S
C425 C427 1.433 . S
C426 C422 1.350 . S
C426 C423 1.463 . S
C426 N430 1.427 . S
C427 H417 0.929 . S
C427 C425 1.433 . S
C427 N430 1.384 . S
C428 H419 0.929 . S
C428 C420 1.378 . S
C428 C423 1.350 . S
C429 H416 0.929 . S
C429 C421 1.433 . S
C429 N431 1.384 . S
N430 C426 1.427 . S
N430 C427 1.384 . S
N431 C423 1.427 . S
N431 C429 1.384 . S
H432 C438 0.930 . S
H433 C442 0.930 . S
H434 C447 0.929 . S
H435 C445 0.929 . S
H436 C440 0.929 . S
H437 C446 0.929 . S
C438 H432 0.930 . S
C438 C439 1.367 . S
C438 C446 1.378 . S
C439 C438 1.367 . S
C439 C447 1.433 . S
C440 H436 0.929 . S
C440 C442 1.378 . S
C440 C444 1.350 . S
C441 C444 1.463 . S
C441 C446 1.350 . S
C441 N449 1.427 . S
C442 H433 0.930 . S
C442 C440 1.378 . S
C442 C443 1.367 . S
C443 C442 1.367 . S
C443 C445 1.433 . S
C444 C440 1.350 . S
C444 C441 1.463 . S
C444 N448 1.427 . S
C445 H435 0.929 . S
C445 C443 1.433 . S
C445 N448 1.384 . S
C446 H437 0.929 . S
C446 C438 1.378 . S
C446 C441 1.350 . S
C447 H434 0.929 . S
C447 C439 1.433 . S
C447 N449 1.384 . S
N448 C444 1.427 . S
N448 C445 1.384 . S
N449 C441 1.427 . S
N449 C447 1.384 . S
H450 C456 0.930 . S
H451 C460 0.930 . S
H452 C465 0.929 . S
H453 C463 0.929 . S
H454 C458 0.929 . S
H455 C464 0.929 . S
C456 H450 0.930 . S
C456 C457 1.367 . S
C456 C464 1.378 . S
C457 C456 1.367 . S
C457 C465 1.433 . S
C458 H454 0.929 . S
C458 C460 1.378 . S
C458 C462 1.350 . S
C459 C462 1.463 . S
C459 C464 1.350 . S
C459 N467 1.427 . S
C460 H451 0.930 . S
C460 C458 1.378 . S
C460 C461 1.367 . S
C461 C460 1.367 . S
C461 C463 1.433 . S
C462 C458 1.350 . S
C462 C459 1.463 . S
C462 N466 1.427 . S
C463 H453 0.929 . S
C463 C461 1.433 . S
C463 N466 1.384 . S
C464 H455 0.929 . S
C464 C456 1.378 . S
C464 C459 1.350 . S
C465 H452 0.929 . S
C465 C457 1.433 . S
C465 N467 1.384 . S
N466 C462 1.427 . S
N466 C463 1.384 . S
N467 C459 1.427 . S
N467 C465 1.384 . S
H468 C474 0.930 . S
H469 C478 0.930 . S
H470 C483 0.929 . S
H471 C481 0.929 . S
H472 C476 0.929 . S
H473 C482 0.929 . S
C474 H468 0.930 . S
C474 C475 1.367 . S
C474 C482 1.378 . S
C475 C474 1.367 . S
C475 C483 1.433 . S
C476 H472 0.929 . S
C476 C478 1.378 . S
C476 C480 1.350 . S
C477 C480 1.463 . S
C477 C482 1.350 . S
C477 N485 1.427 . S
C478 H469 0.930 . S
C478 C476 1.378 . S
C478 C479 1.367 . S
C479 C478 1.367 . S
C479 C481 1.433 . S
C480 C476 1.350 . S
C480 C477 1.463 . S
C480 N484 1.427 . S
C481 H471 0.929 . S
C481 C479 1.433 . S
C481 N484 1.384 . S
C482 H473 0.929 . S
C482 C474 1.378 . S
C482 C477 1.350 . S
C483 H470 0.929 . S
C483 C475 1.433 . S
C483 N485 1.384 . S
N484 C480 1.427 . S
N484 C481 1.384 . S
N485 C477 1.427 . S
N485 C483 1.384 . S
H486 C492 0.930 . S
H487 C496 0.930 . S
H488 C501 0.929 . S
H489 C499 0.929 . S
H490 C494 0.929 . S
H491 C500 0.929 . S
C492 H486 0.930 . S
C492 C493 1.367 . S
C492 C500 1.378 . S
C493 C492 1.367 . S
C493 C501 1.433 . S
C494 H490 0.929 . S
C494 C496 1.378 . S
C494 C498 1.350 . S
C495 C498 1.463 . S
C495 C500 1.350 . S
C495 N503 1.427 . S
C496 H487 0.930 . S
C496 C494 1.378 . S
C496 C497 1.367 . S
C497 C496 1.367 . S
C497 C499 1.433 . S
C498 C494 1.350 . S
C498 C495 1.463 . S
C498 N502 1.427 . S
C499 H489 0.929 . S
C499 C497 1.433 . S
C499 N502 1.384 . S
C500 H491 0.929 . S
C500 C492 1.378 . S
C500 C495 1.350 . S
C501 H488 0.929 . S
C501 C493 1.433 . S
C501 N503 1.384 . S
N502 C498 1.427 . S
N502 C499 1.384 . S
N503 C495 1.427 . S
N503 C501 1.384 . S
C187 C166 0.971 . S
C191 C27 0.953 . S
C205 N14 1.530 . S
C209 C46 1.693 . S
C223 N36 1.649 . S
C227 N74 1.579 . S
C241 C106 0.965 . S
C245 C87 0.962 . S
C259 C147 1.692 . S
C263 N96 1.526 . S
C277 N134 1.646 . S
C281 N156 1.584 . S
C295 N126 1.481 1_556 S
C299 C16 1.502 . S
C313 C177 1.913 . S
C317 C57 1.924 . S
C331 N66 1.250 1_554 S
C335 N6 1.247 . S
C349 C117 1.503 . S
C353 N44 1.477 . S
C367 C136 1.925 . S
C371 C76 1.916 . S
C385 N104 1.247 . S
C389 N164 1.250 . S
C403 C10 1.495 . S
C407 C1 1.495 . S
C421 C40 1.497 . S
C425 C31 1.497 . S
C439 C61 1.493 . S
C443 C70 1.493 . S
C457 C100 1.494 . S
C461 C91 1.494 . S
C475 C121 1.496 . S
C479 C130 1.496 . S
C493 C151 1.493 . S
C497 C160 1.493 . S
