# Generated by pormake.
# Topology wiu, (6)-cn, num edge types: 1
# Building blocks:
#     Node 0, Type 0, BuildingBlock: BETFAJ_clean_sbu_0, # of connection points: 6
#     Node 1, Type 0, BuildingBlock: BETFAJ_clean_sbu_0, # of connection points: 6
#     Node 2, Type 0, BuildingBlock: BETFAJ_clean_sbu_0, # of connection points: 6
#     Node 3, Type 0, BuildingBlock: BETFAJ_clean_sbu_0, # of connection points: 6
#     Node 4, Type 0, BuildingBlock: BETFAJ_clean_sbu_0, # of connection points: 6
#     Node 5, Type 0, BuildingBlock: BETFAJ_clean_sbu_0, # of connection points: 6
#     Node 6, Type 0, BuildingBlock: BETFAJ_clean_sbu_0, # of connection points: 6
#     Node 7, Type 0, BuildingBlock: BETFAJ_clean_sbu_0, # of connection points: 6
#     Node 8, Type 0, BuildingBlock: BETFAJ_clean_sbu_0, # of connection points: 6
#     Node 9, Type 0, BuildingBlock: BETFAJ_clean_sbu_0, # of connection points: 6
#     Node 10, Type 0, BuildingBlock: BETFAJ_clean_sbu_0, # of connection points: 6
#     Node 11, Type 0, BuildingBlock: BETFAJ_clean_sbu_0, # of connection points: 6
#     Node 12, Type 0, BuildingBlock: BETFAJ_clean_sbu_0, # of connection points: 6
#     Node 13, Type 0, BuildingBlock: BETFAJ_clean_sbu_0, # of connection points: 6
#     Node 14, Type 0, BuildingBlock: BETFAJ_clean_sbu_0, # of connection points: 6
#     Node 15, Type 0, BuildingBlock: BETFAJ_clean_sbu_0, # of connection points: 6
#     Edge 16, Type (0, 0), BuildingBlock: ZUJKAS_clean_linker_0, # of connection points: 2
#     Edge 17, Type (0, 0), BuildingBlock: ZUJKAS_clean_linker_0, # of connection points: 2
#     Edge 18, Type (0, 0), BuildingBlock: ZUJKAS_clean_linker_0, # of connection points: 2
#     Edge 19, Type (0, 0), BuildingBlock: ZUJKAS_clean_linker_0, # of connection points: 2
#     Edge 20, Type (0, 0), BuildingBlock: ZUJKAS_clean_linker_0, # of connection points: 2
#     Edge 21, Type (0, 0), BuildingBlock: ZUJKAS_clean_linker_0, # of connection points: 2
#     Edge 22, Type (0, 0), BuildingBlock: ZUJKAS_clean_linker_0, # of connection points: 2
#     Edge 23, Type (0, 0), BuildingBlock: ZUJKAS_clean_linker_0, # of connection points: 2
#     Edge 24, Type (0, 0), BuildingBlock: ZUJKAS_clean_linker_0, # of connection points: 2
#     Edge 25, Type (0, 0), BuildingBlock: ZUJKAS_clean_linker_0, # of connection points: 2
#     Edge 26, Type (0, 0), BuildingBlock: ZUJKAS_clean_linker_0, # of connection points: 2
#     Edge 27, Type (0, 0), BuildingBlock: ZUJKAS_clean_linker_0, # of connection points: 2
#     Edge 28, Type (0, 0), BuildingBlock: ZUJKAS_clean_linker_0, # of connection points: 2
#     Edge 29, Type (0, 0), BuildingBlock: ZUJKAS_clean_linker_0, # of connection points: 2
#     Edge 30, Type (0, 0), BuildingBlock: ZUJKAS_clean_linker_0, # of connection points: 2
#     Edge 31, Type (0, 0), BuildingBlock: ZUJKAS_clean_linker_0, # of connection points: 2
#     Edge 32, Type (0, 0), BuildingBlock: ZUJKAS_clean_linker_0, # of connection points: 2
#     Edge 33, Type (0, 0), BuildingBlock: ZUJKAS_clean_linker_0, # of connection points: 2
#     Edge 34, Type (0, 0), BuildingBlock: ZUJKAS_clean_linker_0, # of connection points: 2
#     Edge 35, Type (0, 0), BuildingBlock: ZUJKAS_clean_linker_0, # of connection points: 2
#     Edge 36, Type (0, 0), BuildingBlock: ZUJKAS_clean_linker_0, # of connection points: 2
#     Edge 37, Type (0, 0), BuildingBlock: ZUJKAS_clean_linker_0, # of connection points: 2
#     Edge 38, Type (0, 0), BuildingBlock: ZUJKAS_clean_linker_0, # of connection points: 2
#     Edge 39, Type (0, 0), BuildingBlock: ZUJKAS_clean_linker_0, # of connection points: 2
#     Edge 40, Type (0, 0), BuildingBlock: ZUJKAS_clean_linker_0, # of connection points: 2
#     Edge 41, Type (0, 0), BuildingBlock: ZUJKAS_clean_linker_0, # of connection points: 2
#     Edge 42, Type (0, 0), BuildingBlock: ZUJKAS_clean_linker_0, # of connection points: 2
#     Edge 43, Type (0, 0), BuildingBlock: ZUJKAS_clean_linker_0, # of connection points: 2
#     Edge 44, Type (0, 0), BuildingBlock: ZUJKAS_clean_linker_0, # of connection points: 2
#     Edge 45, Type (0, 0), BuildingBlock: ZUJKAS_clean_linker_0, # of connection points: 2
#     Edge 46, Type (0, 0), BuildingBlock: ZUJKAS_clean_linker_0, # of connection points: 2
#     Edge 47, Type (0, 0), BuildingBlock: ZUJKAS_clean_linker_0, # of connection points: 2
#     Edge 48, Type (0, 0), BuildingBlock: ZUJKAS_clean_linker_0, # of connection points: 2
#     Edge 49, Type (0, 0), BuildingBlock: ZUJKAS_clean_linker_0, # of connection points: 2
#     Edge 50, Type (0, 0), BuildingBlock: ZUJKAS_clean_linker_0, # of connection points: 2
#     Edge 51, Type (0, 0), BuildingBlock: ZUJKAS_clean_linker_0, # of connection points: 2
#     Edge 52, Type (0, 0), BuildingBlock: ZUJKAS_clean_linker_0, # of connection points: 2
#     Edge 53, Type (0, 0), BuildingBlock: ZUJKAS_clean_linker_0, # of connection points: 2
#     Edge 54, Type (0, 0), BuildingBlock: ZUJKAS_clean_linker_0, # of connection points: 2
#     Edge 55, Type (0, 0), BuildingBlock: ZUJKAS_clean_linker_0, # of connection points: 2
#     Edge 56, Type (0, 0), BuildingBlock: ZUJKAS_clean_linker_0, # of connection points: 2
#     Edge 57, Type (0, 0), BuildingBlock: ZUJKAS_clean_linker_0, # of connection points: 2
#     Edge 58, Type (0, 0), BuildingBlock: ZUJKAS_clean_linker_0, # of connection points: 2
#     Edge 59, Type (0, 0), BuildingBlock: ZUJKAS_clean_linker_0, # of connection points: 2
#     Edge 60, Type (0, 0), BuildingBlock: ZUJKAS_clean_linker_0, # of connection points: 2
#     Edge 61, Type (0, 0), BuildingBlock: ZUJKAS_clean_linker_0, # of connection points: 2
#     Edge 62, Type (0, 0), BuildingBlock: ZUJKAS_clean_linker_0, # of connection points: 2
#     Edge 63, Type (0, 0), BuildingBlock: ZUJKAS_clean_linker_0, # of connection points: 2
# Relax obj value: 0.468
# Max RMSD: 0.312
# Mean RMSD: 0.312
data_MOF--net-wiu--node1-BETFAJ_clean_sbu_0--edge1-ZUJKAS_clean_linker_0
_symmetry_space_group_name_H-M    P1
_symmetry_Int_Tables_number       1
_symmetry_cell_setting            triclinic
loop_
_symmetry_equiv_pos_as_xyz
'x, y, z'
_cell_length_a     46.81945
_cell_length_b     46.771957
_cell_length_c     72.49376
_cell_angle_alpha  90.016518
_cell_angle_beta   90.341496
_cell_angle_gamma 89.998917
loop_
_atom_site_label
_atom_site_type_symbol
_atom_site_fract_x
_atom_site_fract_y
_atom_site_fract_z
_atom_type_partial_charge
Sm0 Sm 0.32229 0.15223 0.27812 0.0
Sm1 Sm 0.3568 0.10513 0.26652 0.0
C2 C 0.28946 0.19373 0.2912 0.0
C3 C 0.28337 0.22328 0.28514 0.0
C4 C 0.25536 0.23382 0.28583 0.0
C5 C 0.24898 0.26118 0.27912 0.0
C6 C 0.27056 0.27857 0.27166 0.0
C7 C 0.29868 0.26803 0.27117 0.0
C8 C 0.305 0.24062 0.27776 0.0
C9 C 0.37646 0.1702 0.26739 0.0
C10 C 0.34911 0.1082 0.30998 0.0
C11 C 0.39663 0.07256 0.25169 0.0
C12 C 0.40262 0.05714 0.23459 0.0
C13 C 0.39448 0.06831 0.2174 0.0
C14 C 0.40316 0.05482 0.20122 0.0
C15 C 0.41994 0.0299 0.20203 0.0
C16 C 0.42658 0.01794 0.21932 0.0
C17 C 0.41804 0.03155 0.23548 0.0
C18 C 0.30176 0.08783 0.27478 0.0
C19 C 0.31548 0.13471 0.23421 0.0
O20 O 0.31523 0.18854 0.29735 0.0
O21 O 0.27988 0.17348 0.28044 0.0
O22 O 0.37125 0.1487 0.27753 0.0
O23 O 0.35268 0.18135 0.26174 0.0
O24 O 0.32694 0.12467 0.30552 0.0
O25 O 0.36794 0.10203 0.29722 0.0
O26 O 0.39679 0.10052 0.25077 0.0
O27 O 0.37619 0.06238 0.26195 0.0
O28 O 0.30876 0.11023 0.26641 0.0
O29 O 0.32426 0.07257 0.27845 0.0
O30 O 0.33773 0.11789 0.23759 0.0
O31 O 0.30433 0.14969 0.24794 0.0
H32 H 0.23834 0.22076 0.29137 0.0
H33 H 0.22717 0.26877 0.27986 0.0
H34 H 0.31571 0.28072 0.26531 0.0
H35 H 0.32675 0.23287 0.27683 0.0
H36 H 0.38233 0.08798 0.21646 0.0
H37 H 0.39791 0.06471 0.18812 0.0
H38 H 0.43906 0.99851 0.22036 0.0
H39 H 0.42422 0.02254 0.24869 0.0
Sm40 Sm 0.614 0.57769 0.52489 0.0
Sm41 Sm 0.66131 0.61217 0.51322 0.0
C42 C 0.57219 0.54518 0.53793 0.0
C43 C 0.54354 0.53718 0.53097 0.0
C44 C 0.53833 0.53397 0.51197 0.0
C45 C 0.51093 0.52726 0.50546 0.0
C46 C 0.48801 0.52387 0.51777 0.0
C47 C 0.49339 0.5272 0.5368 0.0
C48 C 0.52086 0.53375 0.54331 0.0
C49 C 0.59658 0.63221 0.51415 0.0
C50 C 0.65812 0.60433 0.55673 0.0
C51 C 0.6939 0.65157 0.49777 0.0
C52 C 0.71175 0.65572 0.48143 0.0
C53 C 0.70431 0.64375 0.46431 0.0
C54 C 0.72093 0.64932 0.44877 0.0
C55 C 0.74527 0.66686 0.45014 0.0
C56 C 0.75313 0.67792 0.46748 0.0
C57 C 0.73646 0.67243 0.48297 0.0
C58 C 0.67847 0.55697 0.52153 0.0
C59 C 0.63113 0.5705 0.48115 0.0
O60 O 0.57558 0.57194 0.54254 0.0
O61 O 0.59404 0.53504 0.52893 0.0
O62 O 0.61806 0.62669 0.52434 0.0
O63 O 0.58539 0.60857 0.50827 0.0
O64 O 0.64175 0.58212 0.55222 0.0
O65 O 0.66414 0.62339 0.54399 0.0
O66 O 0.66626 0.64993 0.49508 0.0
O67 O 0.7034 0.63345 0.51006 0.0
O68 O 0.65593 0.56409 0.51324 0.0
O69 O 0.694 0.5794 0.52488 0.0
O70 O 0.6484 0.59244 0.48449 0.0
O71 O 0.61589 0.5597 0.49484 0.0
H72 H 0.55544 0.53673 0.50213 0.0
H73 H 0.50781 0.5245 0.49076 0.0
H74 H 0.47627 0.52523 0.5467 0.0
H75 H 0.52434 0.53643 0.558 0.0
H76 H 0.68537 0.63062 0.46287 0.0
H77 H 0.71414 0.6407 0.43558 0.0
H78 H 0.772 0.69112 0.46904 0.0
H79 H 0.74264 0.6816 0.49613 0.0
Sm80 Sm 0.18746 0.86823 0.77631 0.0
Sm81 Sm 0.15249 0.91502 0.76301 0.0
C82 C 0.22014 0.82662 0.78981 0.0
C83 C 0.22697 0.79743 0.7834 0.0
C84 C 0.25194 0.78372 0.78946 0.0
C85 C 0.259 0.75645 0.78285 0.0
C86 C 0.24122 0.74241 0.76996 0.0
C87 C 0.2161 0.75625 0.76404 0.0
C88 C 0.20909 0.78344 0.77066 0.0
C89 C 0.13429 0.84964 0.76353 0.0
C90 C 0.16168 0.91529 0.80712 0.0
C91 C 0.11178 0.94544 0.74677 0.0
C92 C 0.09451 0.94287 0.72996 0.0
C93 C 0.09316 0.91688 0.72031 0.0
C94 C 0.07603 0.91444 0.70455 0.0
C95 C 0.06007 0.93797 0.6982 0.0
C96 C 0.06175 0.964 0.7079 0.0
C97 C 0.07882 0.96639 0.72367 0.0
C98 C 0.20688 0.93311 0.77268 0.0
C99 C 0.19425 0.88353 0.73244 0.0
O100 O 0.19386 0.83107 0.79503 0.0
O101 O 0.23 0.84746 0.77972 0.0
O102 O 0.13866 0.87124 0.77373 0.0
O103 O 0.15852 0.83869 0.75884 0.0
O104 O 0.18173 0.89583 0.8036 0.0
O105 O 0.14479 0.92416 0.7937 0.0
O106 O 0.10688 0.92619 0.75941 0.0
O107 O 0.13896 0.9505 0.74449 0.0
O108 O 0.20037 0.91032 0.76452 0.0
O109 O 0.18408 0.94845 0.77535 0.0
O110 O 0.16974 0.89729 0.73483 0.0
O111 O 0.20708 0.87184 0.74692 0.0
H112 H 0.26614 0.79422 0.79918 0.0
H113 H 0.27867 0.74663 0.78756 0.0
H114 H 0.20168 0.74598 0.75436 0.0
H115 H 0.18971 0.79356 0.76576 0.0
H116 H 0.10519 0.89848 0.72506 0.0
H117 H 0.07503 0.89406 0.69747 0.0
H118 H 0.05018 0.98269 0.70316 0.0
H119 H 0.07975 0.9866 0.73096 0.0
Sm120 Sm 0.89879 0.44234 1.02719 0.0
Sm121 Sm 0.85145 0.40808 1.01414 0.0
C122 C 0.9404 0.47488 1.04083 0.0
C123 C 0.9692 0.48215 1.03424 0.0
C124 C 0.98721 0.49969 1.04481 0.0
C125 C 0.01459 0.50659 1.0385 0.0
C126 C 0.02447 0.49596 1.0215 0.0
C127 C 1.00625 0.47833 1.01098 0.0
C128 C 0.97889 0.47156 1.01728 0.0
C129 C 0.91659 0.38871 1.01503 0.0
C130 C 0.85285 0.41599 1.05821 0.0
C131 C 0.81859 0.36843 0.99883 0.0
C132 C 0.81502 0.35406 0.9811 0.0
C133 C 0.83292 0.36046 0.96622 0.0
C134 C 0.83045 0.34511 0.94977 0.0
C135 C 0.81015 0.3231 0.94808 0.0
C136 C 0.79191 0.31725 0.96295 0.0
C137 C 0.79436 0.33264 0.97934 0.0
C138 C 0.83466 0.46275 1.02387 0.0
C139 C 0.883 0.4493 0.98317 0.0
O140 O 0.9365 0.44827 1.04563 0.0
O141 O 0.91918 0.4849 1.03103 0.0
O142 O 0.89501 0.39351 1.02509 0.0
O143 O 0.92794 0.41275 1.01017 0.0
O144 O 0.87159 0.43663 1.05453 0.0
O145 O 0.84431 0.39888 1.04486 0.0
O146 O 0.84231 0.36275 1.00765 0.0
O147 O 0.81165 0.39544 0.99943 0.0
O148 O 0.85692 0.45593 1.01537 0.0
O149 O 0.81928 0.44015 1.02707 0.0
O150 O 0.86838 0.42531 0.98571 0.0
O151 O 0.89545 0.46171 0.99756 0.0
H152 H 0.98011 0.50802 1.05796 0.0
H153 H 0.02815 0.51996 1.04704 0.0
H154 H 0.01298 0.4701 0.99774 0.0
H155 H 0.96522 0.45812 1.00885 0.0
H156 H 0.84911 0.3769 0.96747 0.0
H157 H 0.84488 0.34992 0.93857 0.0
H158 H 0.77577 0.30072 0.96191 0.0
H159 H 0.78041 0.32753 0.99075 0.0
Sm160 Sm 0.65309 0.91434 0.97294 0.0
Sm161 Sm 0.68829 0.86733 0.96099 0.0
C162 C 0.61217 0.94636 0.98711 0.0
C163 C 0.60175 0.95702 1.00475 0.0
C164 C 0.60793 0.94262 1.02126 0.0
C165 C 0.59486 0.95113 1.03761 0.0
C166 C 0.57552 0.97414 1.03762 0.0
C167 C 0.57063 0.98937 1.02119 0.0
C168 C 0.58363 0.9808 1.00486 0.0
C169 C 0.70778 0.93195 0.96433 0.0
C170 C 0.69424 0.8842 1.00504 0.0
C171 C 0.72169 0.82613 0.94802 0.0
C172 C 0.7292 0.79751 0.95497 0.0
C173 C 0.74695 0.77949 0.9447 0.0
C174 C 0.75396 0.75223 0.95133 0.0
C175 C 0.74325 0.74251 0.96834 0.0
C176 C 0.72542 0.76075 0.97855 0.0
C177 C 0.71852 0.78799 0.97194 0.0
C178 C 0.63421 0.84929 0.97174 0.0
C179 C 0.66175 0.91206 0.92924 0.0
O180 O 0.60971 0.91884 0.98437 0.0
O181 O 0.63626 0.95688 0.98121 0.0
O182 O 0.70112 0.90949 0.97278 0.0
O183 O 0.68513 0.94703 0.9607 0.0
O184 O 0.67126 0.90014 1.00186 0.0
O185 O 0.70617 0.87025 0.99114 0.0
O186 O 0.69515 0.82956 0.94289 0.0
O187 O 0.7312 0.84761 0.95777 0.0
O188 O 0.63943 0.87079 0.96159 0.0
O189 O 0.65799 0.83819 0.97744 0.0
O190 O 0.68322 0.89454 0.93349 0.0
O191 O 0.64342 0.91923 0.94211 0.0
H192 H 0.62199 0.92422 1.02136 0.0
H193 H 0.59888 0.93887 1.05003 0.0
H194 H 0.55621 0.00747 1.02088 0.0
H195 H 0.57883 0.99218 0.9922 0.0
H196 H 0.75532 0.78646 0.93155 0.0
H197 H 0.76748 0.73862 0.94302 0.0
H198 H 0.71712 0.75414 0.99179 0.0
H199 H 0.70488 0.80169 0.98011 0.0
Sm200 Sm 0.3522 0.4082 0.72168 0.0
Sm201 Sm 0.39922 0.44356 0.71069 0.0
C202 C 0.32 0.36715 0.73546 0.0
C203 C 0.30278 0.35937 0.75148 0.0
C204 C 0.31189 0.36563 0.7695 0.0
C205 C 0.297 0.35461 0.78452 0.0
C206 C 0.27277 0.33731 0.78171 0.0
C207 C 0.26281 0.33262 0.76364 0.0
C208 C 0.27778 0.34351 0.74864 0.0
C209 C 0.33451 0.46346 0.71378 0.0
C210 C 0.38113 0.44928 0.75442 0.0
C211 C 0.44067 0.47687 0.69799 0.0
C212 C 0.47005 0.48291 0.70432 0.0
C213 C 0.48343 0.50861 0.69945 0.0
C214 C 0.51089 0.51494 0.70608 0.0
C215 C 0.52544 0.49568 0.71775 0.0
C216 C 0.51192 0.46985 0.72248 0.0
C217 C 0.48452 0.46357 0.71586 0.0
C218 C 0.41708 0.38907 0.72118 0.0
C219 C 0.35614 0.41702 0.67839 0.0
O220 O 0.34772 0.36847 0.73789 0.0
O221 O 0.30994 0.38716 0.72467 0.0
O222 O 0.35696 0.45631 0.72212 0.0
O223 O 0.31932 0.44095 0.71 0.0
O224 O 0.36446 0.42695 0.75082 0.0
O225 O 0.39621 0.46078 0.74089 0.0
O226 O 0.4358 0.45105 0.69187 0.0
O227 O 0.42033 0.48611 0.70867 0.0
O228 O 0.39585 0.39458 0.71079 0.0
O229 O 0.42799 0.41271 0.72723 0.0
O230 O 0.37155 0.43972 0.68326 0.0
O231 O 0.35068 0.39746 0.69088 0.0
H232 H 0.33108 0.37805 0.77195 0.0
H233 H 0.30535 0.35842 0.79827 0.0
H234 H 0.24395 0.31978 0.76108 0.0
H235 H 0.27038 0.33868 0.73479 0.0
H236 H 0.47251 0.52392 0.69069 0.0
H237 H 0.52047 0.53518 0.70234 0.0
H238 H 0.52259 0.45434 0.73121 0.0
H239 H 0.4746 0.44362 0.71983 0.0
Sm240 Sm 0.85993 0.10329 0.4748 0.0
Sm241 Sm 0.82571 0.15049 0.46219 0.0
C242 C 0.89862 0.07036 0.49096 0.0
C243 C 0.90231 0.05101 0.50686 0.0
C244 C 0.90274 0.06138 0.52504 0.0
C245 C 0.90887 0.04299 0.53972 0.0
C246 C 0.91461 0.01387 0.53651 0.0
C247 C 0.91307 1.00339 0.51836 0.0
C248 C 0.90713 0.0218 0.50369 0.0
C249 C 0.80503 0.08586 0.4658 0.0
C250 C 0.8173 0.13358 0.50593 0.0
C251 C 0.79357 0.19233 0.44851 0.0
C252 C 0.78486 0.22079 0.45537 0.0
C253 C 0.77963 0.22542 0.4742 0.0
C254 C 0.7723 0.25266 0.48064 0.0
C255 C 0.7703 0.27601 0.46843 0.0
C256 C 0.77563 0.27121 0.44956 0.0
C257 C 0.7828 0.2439 0.44312 0.0
C258 C 0.87965 0.168 0.47401 0.0
C259 C 0.85325 0.10607 0.43109 0.0
O260 O 0.89636 0.09783 0.4942 0.0
O261 O 0.88183 0.0615 0.47769 0.0
O262 O 0.8119 0.10858 0.47389 0.0
O263 O 0.82752 0.07023 0.46312 0.0
O264 O 0.83965 0.11666 0.50319 0.0
O265 O 0.8066 0.14828 0.49186 0.0
O266 O 0.82057 0.1893 0.44462 0.0
O267 O 0.78315 0.17015 0.45711 0.0
O268 O 0.87462 0.14657 0.4637 0.0
O269 O 0.85577 0.17904 0.47943 0.0
O270 O 0.83111 0.12275 0.43505 0.0
O271 O 0.87185 0.10007 0.44421 0.0
H272 H 0.89913 0.08381 0.52793 0.0
H273 H 0.91028 0.05188 0.55348 0.0
H274 H 0.917 0.98102 0.51544 0.0
H275 H 0.90692 0.01329 0.48979 0.0
H276 H 0.78131 0.20798 0.48399 0.0
H277 H 0.76799 0.25533 0.49519 0.0
H278 H 0.77477 0.28867 0.43977 0.0
H279 H 0.78704 0.24089 0.42857 0.0
Sm280 Sm 0.15976 0.61121 0.22165 0.0
Sm281 Sm 0.11297 0.57558 0.20945 0.0
C282 C 0.19096 0.65242 0.23655 0.0
C283 C 0.20425 0.66038 0.25406 0.0
C284 C 0.1979 0.64559 0.27033 0.0
C285 C 0.20849 0.65544 0.28722 0.0
C286 C 0.22557 0.68016 0.28796 0.0
C287 C 0.23279 0.69412 0.27146 0.0
C288 C 0.22217 0.68428 0.25463 0.0
C289 C 0.17763 0.55623 0.21363 0.0
C290 C 0.13002 0.56942 0.25353 0.0
C291 C 0.07159 0.54221 0.19651 0.0
C292 C 0.04351 0.5334 0.20379 0.0
C293 C 0.03962 0.52861 0.22275 0.0
C294 C 0.01264 0.52159 0.22962 0.0
C295 C 0.98882 0.51948 0.21773 0.0
C296 C 0.99289 0.52428 0.19874 0.0
C297 C 0.01994 0.53113 0.19186 0.0
C298 C 0.09486 0.62948 0.2206 0.0
C299 C 0.15741 0.60262 0.17794 0.0
O300 O 0.16303 0.65266 0.23618 0.0
O301 O 0.20201 0.63061 0.2279 0.0
O302 O 0.155 0.56321 0.22167 0.0
O303 O 0.19281 0.57882 0.21013 0.0
O304 O 0.14633 0.59214 0.25042 0.0
O305 O 0.11573 0.55773 0.23957 0.0
O306 O 0.07404 0.56915 0.19211 0.0
O307 O 0.09417 0.53243 0.20511 0.0
O308 O 0.11616 0.62451 0.21029 0.0
O309 O 0.08403 0.60559 0.22621 0.0
O310 O 0.14022 0.58089 0.18207 0.0
O311 O 0.16408 0.62124 0.19087 0.0
H312 H 0.18415 0.62699 0.27002 0.0
H313 H 0.20282 0.64414 0.29971 0.0
H314 H 0.24556 0.71343 0.27161 0.0
H315 H 0.22716 0.6959 0.24213 0.0
H316 H 0.05741 0.53048 0.2323 0.0
H317 H 0.01052 0.51767 0.24427 0.0
H318 H 0.97506 0.52332 0.18918 0.0
H319 H 0.02238 0.53506 0.17722 0.0
Sm320 Sm 0.82604 0.64939 0.77511 0.0
Sm321 Sm 0.86076 0.60202 0.76354 0.0
C322 C 0.79327 0.69113 0.78812 0.0
C323 C 0.78608 0.72019 0.78163 0.0
C324 C 0.76092 0.73351 0.78752 0.0
C325 C 0.75354 0.76074 0.78097 0.0
C326 C 0.77121 0.77519 0.76836 0.0
C327 C 0.79649 0.76169 0.76255 0.0
C328 C 0.8038 0.73448 0.76909 0.0
C329 C 0.88003 0.66708 0.76389 0.0
C330 C 0.85316 0.60571 0.80709 0.0
C331 C 0.90028 0.56917 0.74846 0.0
C332 C 0.90551 0.55032 0.73256 0.0
C333 C 0.9048 0.56071 0.71439 0.0
C334 C 0.91269 0.54304 0.69975 0.0
C335 C 0.92131 0.51464 0.70298 0.0
C336 C 0.92081 0.50401 0.72111 0.0
C337 C 0.91311 0.52173 0.73575 0.0
C338 C 0.80591 0.58474 0.77212 0.0
C339 C 0.81865 0.63142 0.73137 0.0
O340 O 0.81964 0.68696 0.79343 0.0
O341 O 0.78346 0.67009 0.77809 0.0
O342 O 0.87504 0.6458 0.77428 0.0
O343 O 0.85616 0.67792 0.75818 0.0
O344 O 0.83096 0.62211 0.80259 0.0
O345 O 0.87207 0.59956 0.79434 0.0
O346 O 0.8984 0.59673 0.74545 0.0
O347 O 0.8823 0.55998 0.76082 0.0
O348 O 0.81276 0.60711 0.76368 0.0
O349 O 0.8284 0.56931 0.77543 0.0
O350 O 0.84064 0.61422 0.73474 0.0
O351 O 0.80788 0.64679 0.74504 0.0
H352 H 0.74683 0.72274 0.79707 0.0
H353 H 0.73372 0.77023 0.78555 0.0
H354 H 0.81083 0.77225 0.75307 0.0
H355 H 0.8233 0.72459 0.7643 0.0
H356 H 0.89896 0.58268 0.71151 0.0
H357 H 0.91317 0.55204 0.68599 0.0
H358 H 0.9269 0.48213 0.72404 0.0
H359 H 0.91375 0.51326 0.74966 0.0
Sm360 Sm 0.11297 0.07699 1.02677 0.0
Sm361 Sm 0.16001 0.11231 1.01512 0.0
C362 C 0.07168 0.04367 1.03957 0.0
C363 C 0.04336 0.0351 1.03235 0.0
C364 C 0.03893 0.03057 1.01338 0.0
C365 C 0.01174 0.02373 1.00657 0.0
C366 C 0.98826 0.02154 1.01854 0.0
C367 C 0.99286 0.0261 1.03755 0.0
C368 C 0.02012 0.03277 1.04436 0.0
C369 C 0.0949 0.13103 1.01568 0.0
C370 C 0.1575 0.10375 1.05879 0.0
C371 C 0.19164 0.15282 1.00002 0.0
C372 C 0.20039 0.16182 0.9816 0.0
C373 C 0.18469 0.15347 0.96597 0.0
C374 C 0.19158 0.16445 0.94867 0.0
C375 C 0.21426 0.1839 0.9468 0.0
C376 C 0.23065 0.19122 0.96242 0.0
C377 C 0.2237 0.18026 0.97972 0.0
C378 C 0.17729 0.0574 1.02379 0.0
C379 C 0.12973 0.07121 0.98288 0.0
O380 O 0.0744 0.07053 1.04414 0.0
O381 O 0.09396 0.03391 1.03081 0.0
O382 O 0.11633 0.1259 1.02599 0.0
O383 O 0.08388 0.1072 1.01 0.0
O384 O 0.14014 0.08218 1.05441 0.0
O385 O 0.16486 0.12213 1.04594 0.0
O386 O 0.1645 0.15586 1.00368 0.0
O387 O 0.20224 0.12875 1.00606 0.0
O388 O 0.15506 0.06436 1.01512 0.0
O389 O 0.19239 0.07996 1.02772 0.0
O390 O 0.14581 0.09403 0.98624 0.0
O391 O 0.11553 0.05924 0.99664 0.0
H392 H 0.05647 0.0325 1.00377 0.0
H393 H 0.00921 0.01998 0.99192 0.0
H394 H 0.97529 0.02508 1.04717 0.0
H395 H 0.02298 0.0365 1.059 0.0
H396 H 0.16657 0.13924 0.96722 0.0
H397 H 0.1784 0.15862 0.93693 0.0
H398 H 0.24852 0.20581 0.96133 0.0
H399 H 0.23608 0.18675 0.99168 0.0
Sm400 Sm 0.68998 0.36464 0.27667 0.0
Sm401 Sm 0.65509 0.41158 0.26489 0.0
C402 C 0.72307 0.32329 0.28994 0.0
C403 C 0.73121 0.29488 0.28286 0.0
C404 C 0.73186 0.28955 0.2638 0.0
C405 C 0.73851 0.26229 0.25715 0.0
C406 C 0.74439 0.23967 0.2694 0.0
C407 C 0.74366 0.24517 0.28851 0.0
C408 C 0.73715 0.27252 0.29515 0.0
C409 C 0.63565 0.34665 0.26592 0.0
C410 C 0.66287 0.40848 0.30838 0.0
C411 C 0.6154 0.44373 0.24927 0.0
C412 C 0.6101 0.45775 0.23154 0.0
C413 C 0.61801 0.44468 0.21492 0.0
C414 C 0.61032 0.45705 0.19812 0.0
C415 C 0.59476 0.48277 0.19771 0.0
C416 C 0.58834 0.49656 0.21442 0.0
C417 C 0.59588 0.48406 0.23122 0.0
C418 C 0.71002 0.4291 0.27341 0.0
C419 C 0.69624 0.38173 0.23279 0.0
O420 O 0.69631 0.3263 0.29446 0.0
O421 O 0.73288 0.34533 0.28092 0.0
O422 O 0.64104 0.36814 0.27608 0.0
O423 O 0.65932 0.33563 0.26011 0.0
O424 O 0.68513 0.39218 0.30402 0.0
O425 O 0.64395 0.41468 0.29552 0.0
O426 O 0.61464 0.41575 0.24928 0.0
O427 O 0.63604 0.45427 0.25938 0.0
O428 O 0.70312 0.40668 0.26494 0.0
O429 O 0.68747 0.44422 0.27705 0.0
O430 O 0.67395 0.39844 0.23611 0.0
O431 O 0.70764 0.36683 0.24655 0.0
H432 H 0.7271 0.30645 0.25403 0.0
H433 H 0.73924 0.25903 0.24237 0.0
H434 H 0.74762 0.22823 0.29838 0.0
H435 H 0.73643 0.27612 0.30991 0.0
H436 H 0.62925 0.42443 0.2149 0.0
H437 H 0.61535 0.44575 0.18551 0.0
H438 H 0.57681 0.51664 0.21452 0.0
H439 H 0.58993 0.49455 0.24396 0.0
Sm440 Sm 0.40065 0.94472 0.52901 0.0
Sm441 Sm 0.35406 0.90929 0.51678 0.0
C442 C 0.44184 0.97805 0.54222 0.0
C443 C 0.47008 0.98652 0.53507 0.0
C444 C 0.47439 0.99033 0.51607 0.0
C445 C 0.50151 0.99696 0.5093 0.0
C446 C 0.52506 0.99964 0.52136 0.0
C447 C 0.52058 0.99585 0.54041 0.0
C448 C 0.49337 0.98938 0.54718 0.0
C449 C 0.41911 0.89072 0.51811 0.0
C450 C 0.35659 0.91745 0.56037 0.0
C451 C 0.32256 0.86838 0.50181 0.0
C452 C 0.30879 0.86087 0.48437 0.0
C453 C 0.31493 0.87588 0.46814 0.0
C454 C 0.30409 0.86628 0.45126 0.0
C455 C 0.28697 0.84159 0.45048 0.0
C456 C 0.27989 0.82746 0.46695 0.0
C457 C 0.29077 0.83705 0.48377 0.0
C458 C 0.33624 0.96434 0.52477 0.0
C459 C 0.38401 0.95094 0.48496 0.0
O460 O 0.43911 0.95121 0.54678 0.0
O461 O 0.41953 0.98782 0.53334 0.0
O462 O 0.39759 0.89571 0.52822 0.0
O463 O 0.42994 0.91463 0.51251 0.0
O464 O 0.37285 0.93979 0.55611 0.0
O465 O 0.35065 0.89848 0.54752 0.0
O466 O 0.3505 0.86826 0.50181 0.0
O467 O 0.31169 0.88987 0.51087 0.0
O468 O 0.35879 0.95733 0.51667 0.0
O469 O 0.32108 0.94177 0.52837 0.0
O470 O 0.3678 0.92813 0.488 0.0
O471 O 0.3981 0.96267 0.49897 0.0
H472 H 0.45681 0.98798 0.5064 0.0
H473 H 0.50396 1.00012 0.4946 0.0
H474 H 0.53821 0.99729 0.5501 0.0
H475 H 0.49059 0.9862 0.56186 0.0
H476 H 0.32875 0.89443 0.46847 0.0
H477 H 0.30964 0.87771 0.4388 0.0
H478 H 0.26709 0.80817 0.46676 0.0
H479 H 0.28595 0.82526 0.49623 0.0
Sm480 Sm 0.15281 0.41485 0.47418 0.0
Sm481 Sm 0.188 0.36814 0.46084 0.0
C482 C 0.11199 0.44465 0.49047 0.0
C483 C 0.09611 0.44244 0.50773 0.0
C484 C 0.09949 0.41851 0.51921 0.0
C485 C 0.08381 0.41629 0.53548 0.0
C486 C 0.06449 0.43793 0.54045 0.0
C487 C 0.06129 0.46187 0.52886 0.0
C488 C 0.07699 0.46408 0.51262 0.0
C489 C 0.20683 0.43335 0.46466 0.0
C490 C 0.19495 0.38328 0.50481 0.0
C491 C 0.221 0.32685 0.44754 0.0
C492 C 0.22886 0.29838 0.45468 0.0
C493 C 0.24672 0.28029 0.44452 0.0
C494 C 0.25406 0.25322 0.45136 0.0
C495 C 0.24354 0.24371 0.46847 0.0
C496 C 0.22564 0.26202 0.47858 0.0
C497 C 0.21845 0.28908 0.47178 0.0
C498 C 0.13496 0.3495 0.47334 0.0
C499 C 0.16165 0.41533 0.43005 0.0
O500 O 0.10701 0.42439 0.47848 0.0
O501 O 0.13909 0.45092 0.49202 0.0
O502 O 0.20079 0.41034 0.47272 0.0
O503 O 0.18388 0.44857 0.4621 0.0
O504 O 0.17054 0.39719 0.50231 0.0
O505 O 0.20767 0.37153 0.4904 0.0
O506 O 0.19425 0.33015 0.44282 0.0
O507 O 0.23086 0.34861 0.45689 0.0
O508 O 0.13924 0.37113 0.46316 0.0
O509 O 0.15923 0.33845 0.47808 0.0
O510 O 0.18134 0.3954 0.43348 0.0
O511 O 0.14517 0.42449 0.4435 0.0
H512 H 0.1141 0.40151 0.51552 0.0
H513 H 0.08657 0.39751 0.54404 0.0
H514 H 0.04695 0.47913 0.53248 0.0
H515 H 0.0742 0.48267 0.50388 0.0
H516 H 0.25494 0.28708 0.43128 0.0
H517 H 0.26768 0.23957 0.44314 0.0
H518 H 0.2175 0.2556 0.4919 0.0
H519 H 0.20482 0.30282 0.47991 0.0
Sm520 Sm 0.85055 0.90428 0.22615 0.0
Sm521 Sm 0.89711 0.9396 0.21258 0.0
C522 C 0.82018 0.86296 0.24156 0.0
C523 C 0.82186 0.84408 0.25762 0.0
C524 C 0.84241 0.84848 0.27149 0.0
C525 C 0.84425 0.82962 0.28641 0.0
C526 C 0.82569 0.80604 0.28755 0.0
C527 C 0.80523 0.80178 0.27354 0.0
C528 C 0.80336 0.82067 0.25869 0.0
C529 C 0.83193 0.9583 0.21636 0.0
C530 C 0.88246 0.9464 0.25659 0.0
C531 C 0.93828 0.97255 0.19911 0.0
C532 C 0.96758 0.97942 0.20536 0.0
C533 C 0.98017 1.00553 0.20049 0.0
C534 C 0.00748 0.0127 0.20706 0.0
C535 C 0.02269 0.9939 0.2187 0.0
C536 C 0.00998 0.96765 0.22343 0.0
C537 C 0.98274 0.96052 0.21685 0.0
C538 C 0.9158 0.88628 0.22496 0.0
C539 C 0.8493 0.91404 0.18194 0.0
O540 O 0.83936 0.85847 0.22889 0.0
O541 O 0.81583 0.89009 0.24479 0.0
O542 O 0.85503 0.95227 0.22438 0.0
O543 O 0.81657 0.93537 0.21414 0.0
O544 O 0.86884 0.92174 0.25429 0.0
O545 O 0.89366 0.95926 0.24204 0.0
O546 O 0.93374 0.9463 0.19366 0.0
O547 O 0.91769 0.98226 0.20943 0.0
O548 O 0.89397 0.8908 0.21494 0.0
O549 O 0.92706 0.91047 0.22964 0.0
O550 O 0.86933 0.93364 0.18532 0.0
O551 O 0.84037 0.89742 0.19541 0.0
H552 H 0.85707 0.86635 0.27071 0.0
H553 H 0.86033 0.83332 0.29694 0.0
H554 H 0.79034 0.78409 0.27419 0.0
H555 H 0.78748 0.81697 0.24802 0.0
H556 H 0.96875 0.02052 0.19177 0.0
H557 H 0.01641 0.03323 0.20331 0.0
H558 H 0.02116 0.95247 0.23213 0.0
H559 H 0.97348 0.94026 0.22084 0.0
Sm560 Sm 0.35746 0.6063 0.97167 0.0
Sm561 Sm 0.32184 0.65316 0.95984 0.0
C562 C 0.39905 0.57484 0.98579 0.0
C563 C 0.4088 0.56083 1.0027 0.0
C564 C 0.4039 0.57308 1.02005 0.0
C565 C 0.41727 0.5618 1.03568 0.0
C566 C 0.43558 0.53808 1.03415 0.0
C567 C 0.43885 0.52481 1.01689 0.0
C568 C 0.4256 0.53619 1.00128 0.0
C569 C 0.30242 0.58837 0.96356 0.0
C570 C 0.31584 0.63544 1.00375 0.0
C571 C 0.28844 0.69456 0.9469 0.0
C572 C 0.28204 0.72376 0.95338 0.0
C573 C 0.2561 0.73685 0.94862 0.0
C574 C 0.24937 0.76403 0.95548 0.0
C575 C 0.26846 0.77858 0.96729 0.0
C576 C 0.29456 0.76538 0.97188 0.0
C577 C 0.30124 0.73826 0.96503 0.0
C578 C 0.3761 0.67132 0.97064 0.0
C579 C 0.3481 0.60901 0.92811 0.0
O580 O 0.39921 0.60283 0.98577 0.0
O581 O 0.37697 0.56379 0.97732 0.0
O582 O 0.30951 0.61101 0.97166 0.0
O583 O 0.32496 0.57312 0.96006 0.0
O584 O 0.33872 0.61936 1.00062 0.0
O585 O 0.30412 0.64982 0.98986 0.0
O586 O 0.3144 0.69004 0.94107 0.0
O587 O 0.27915 0.67385 0.95732 0.0
O588 O 0.37075 0.64993 0.96039 0.0
O589 O 0.35239 0.6822 0.97644 0.0
O590 O 0.3259 0.62531 0.93259 0.0
O591 O 0.36732 0.60299 0.94083 0.0
H592 H 0.39083 0.59208 1.02139 0.0
H593 H 0.41448 0.57263 1.04875 0.0
H594 H 0.45242 0.50621 1.01537 0.0
H595 H 0.42941 0.52642 0.98796 0.0
H596 H 0.24089 0.7259 0.93978 0.0
H597 H 0.22894 0.77336 0.95184 0.0
H598 H 0.30995 0.77607 0.9807 0.0
H599 H 0.32137 0.72857 0.96893 0.0
Sm600 Sm 0.65851 0.11058 0.72209 0.0
Sm601 Sm 0.61155 0.07571 0.71009 0.0
C602 C 0.69103 0.15083 0.73684 0.0
C603 C 0.70909 0.15669 0.75296 0.0
C604 C 0.70084 0.14847 0.77076 0.0
C605 C 0.71725 0.15664 0.78601 0.0
C606 C 0.7422 0.17299 0.78366 0.0
C607 C 0.75103 0.17993 0.76572 0.0
C608 C 0.73454 0.1719 0.75051 0.0
C609 C 0.67618 0.05535 0.71406 0.0
C610 C 0.62904 0.06904 0.75404 0.0
C611 C 0.56994 0.04287 0.69687 0.0
C612 C 0.54037 0.03685 0.70278 0.0
C613 C 0.53007 0.00869 0.70249 0.0
C614 C 0.50269 1.00241 0.70902 0.0
C615 C 0.48497 0.02421 0.7159 0.0
C616 C 0.49526 0.05248 0.71599 0.0
C617 C 0.52271 0.05871 0.7096 0.0
C618 C 0.59365 0.13 0.72086 0.0
C619 C 0.65556 0.10228 0.67862 0.0
O620 O 0.66343 0.14914 0.73952 0.0
O621 O 0.7006 0.13196 0.72512 0.0
O622 O 0.65356 0.06244 0.72205 0.0
O623 O 0.69154 0.07787 0.7108 0.0
O624 O 0.64566 0.0915 0.75092 0.0
O625 O 0.61438 0.05771 0.74014 0.0
O626 O 0.57523 0.06857 0.69073 0.0
O627 O 0.59015 0.03331 0.7077 0.0
O628 O 0.61508 0.12471 0.71075 0.0
O629 O 0.58254 0.10624 0.72646 0.0
O630 O 0.63941 0.07992 0.68299 0.0
O631 O 0.66111 0.12152 0.69137 0.0
H632 H 0.68134 0.1365 0.77292 0.0
H633 H 0.7097 0.1512 0.79966 0.0
H634 H 0.77038 0.19212 0.76346 0.0
H635 H 0.74131 0.17818 0.73682 0.0
H636 H 0.54336 0.99149 0.69739 0.0
H637 H 0.49531 0.98047 0.70857 0.0
H638 H 0.48231 0.06971 0.7214 0.0
H639 H 0.53024 0.0806 0.71022 0.0
H640 H 0.42886 0.15779 0.28394 0.0
H641 H 0.47257 0.18711 0.28389 0.0
H642 H 0.43 0.25005 0.25013 0.0
H643 H 0.38688 0.22072 0.24981 0.0
H644 H 0.48205 0.24313 0.23777 0.0
H645 H 0.49075 0.25743 0.3134 0.0
H646 H 0.4911 0.22061 0.30643 0.0
H647 H 0.45962 0.24192 0.30256 0.0
C648 C 0.42887 0.17783 0.27646 0.0
C649 C 0.4041 0.18677 0.26693 0.0
C650 C 0.45389 0.19485 0.27659 0.0
C651 C 0.45483 0.22142 0.26731 0.0
C652 C 0.43022 0.22991 0.25751 0.0
H653 H 0.58418 0.35837 0.28339 0.0
H654 H 0.54047 0.32897 0.28356 0.0
C655 C 0.40537 0.21297 0.25734 0.0
C656 C 0.48124 0.24029 0.2674 0.0
H657 H 0.52948 0.27482 0.29557 0.0
C658 C 0.49231 0.24998 0.25048 0.0
C659 C 0.49475 0.25002 0.28386 0.0
C660 C 0.48333 0.24223 0.3026 0.0
C661 C 0.51627 0.2684 0.24953 0.0
C662 C 0.53041 0.2773 0.26595 0.0
C663 C 0.5191 0.26802 0.2829 0.0
C664 C 0.55706 0.29577 0.26576 0.0
C665 C 0.5257 0.27871 0.23081 0.0
C666 C 0.5814 0.28725 0.25586 0.0
C667 C 0.60629 0.30412 0.25567 0.0
C668 C 0.608 0.33009 0.26552 0.0
C669 C 0.58372 0.33869 0.27552 0.0
C670 C 0.55868 0.32172 0.27569 0.0
H671 H 0.50797 0.27776 0.22057 0.0
H672 H 0.53377 0.30101 0.23145 0.0
H673 H 0.54313 0.26473 0.22575 0.0
H674 H 0.58139 0.26717 0.24843 0.0
H675 H 0.6245 0.2965 0.24794 0.0
H676 H 0.54637 0.64348 0.49623 0.0
H677 H 0.51689 0.68647 0.49715 0.0
H678 H 0.57875 0.72719 0.5327 0.0
H679 H 0.6083 0.68356 0.53211 0.0
H680 H 0.52482 0.73785 0.54482 0.0
H681 H 0.52674 0.76031 0.47002 0.0
H682 H 0.5139 0.72501 0.47485 0.0
H683 H 0.55018 0.73442 0.48061 0.0
C684 C 0.55398 0.66161 0.50414 0.0
C685 C 0.58001 0.65987 0.51398 0.0
C686 C 0.53702 0.68645 0.50458 0.0
C687 C 0.54551 0.7107 0.51472 0.0
C688 C 0.57153 0.70905 0.52464 0.0
H689 H 0.46928 0.88067 0.50025 0.0
H690 H 0.49882 0.83768 0.50018 0.0
C691 C 0.58858 0.68406 0.52423 0.0
C692 C 0.52693 0.73727 0.51518 0.0
H693 H 0.49211 0.78576 0.48749 0.0
C694 C 0.51781 0.74834 0.53225 0.0
C695 C 0.51774 0.75156 0.4989 0.0
C696 C 0.52787 0.74242 0.48008 0.0
C697 C 0.49968 0.77259 0.53345 0.0
C698 C 0.48966 0.78623 0.51712 0.0
C699 C 0.49918 0.7754 0.50009 0.0
C700 C 0.47066 0.81255 0.5173 0.0
C701 C 0.4921 0.78377 0.55231 0.0
C702 C 0.44427 0.81328 0.52667 0.0
C703 C 0.42714 0.83824 0.52678 0.0
C704 C 0.43577 0.86315 0.5174 0.0
C705 C 0.46178 0.86208 0.50769 0.0
C706 C 0.47884 0.8373 0.50763 0.0
H707 H 0.50749 0.77633 0.563 0.0
H708 H 0.49162 0.8075 0.55247 0.0
H709 H 0.47062 0.77579 0.55613 0.0
H710 H 0.43676 0.79449 0.53387 0.0
H711 H 0.40725 0.83809 0.53434 0.0
H712 H 0.12547 0.79855 0.74619 0.0
H713 H 0.08312 0.76811 0.74631 0.0
H714 H 0.03863 0.83052 0.77911 0.0
H715 H 0.08155 0.86106 0.77932 0.0
H716 H 0.02897 0.77663 0.79217 0.0
H717 H 0.01073 0.77526 0.71679 0.0
H718 H 0.04604 0.76365 0.7229 0.0
H719 H 0.03527 0.79986 0.72765 0.0
C720 C 0.10662 0.80607 0.75331 0.0
C721 C 0.10707 0.83252 0.76265 0.0
C722 C 0.08219 0.78856 0.75328 0.0
C723 C 0.05713 0.79692 0.76245 0.0
C724 C 0.05746 0.8234 0.77182 0.0
H725 H 0.88994 0.71677 0.74535 0.0
H726 H 0.93235 0.74708 0.74568 0.0
C727 C 0.08203 0.84101 0.77186 0.0
C728 C 0.03109 0.7777 0.76255 0.0
H729 H 0.98506 0.74074 0.73425 0.0
C730 C 0.01935 0.76891 0.77948 0.0
C731 C 0.01798 0.76759 0.74607 0.0
C732 C 0.02794 0.77729 0.72733 0.0
C733 C 0.99553 0.75023 0.78037 0.0
C734 C 0.98307 0.73933 0.76389 0.0
C735 C 0.99457 0.74851 0.74697 0.0
C736 C 0.95722 0.71979 0.76373 0.0
C737 C 0.98352 0.743 0.79905 0.0
C738 C 0.95662 0.69362 0.77347 0.0
C739 C 0.93202 0.67603 0.77334 0.0
C740 C 0.90738 0.68402 0.76334 0.0
C741 C 0.90836 0.70978 0.75326 0.0
C742 C 0.93278 0.72728 0.75343 0.0
H743 H 0.9901 0.75885 0.80968 0.0
H744 H 0.95983 0.74208 0.79861 0.0
H745 H 0.99165 0.72176 0.80343 0.0
H746 H 0.97523 0.68667 0.78118 0.0
H747 H 0.93219 0.65637 0.78122 0.0
H748 H 0.04522 0.14169 0.99705 0.0
H749 H 0.01573 0.18469 0.99707 0.0
H750 H 0.07662 0.22653 1.03277 0.0
H751 H 0.10621 0.18291 1.03307 0.0
H752 H 0.02208 0.23718 1.04416 0.0
H753 H 0.02658 0.2579 0.96919 0.0
H754 H 0.01378 0.22265 0.97422 0.0
H755 H 0.04979 0.23241 0.98041 0.0
C756 C 0.05261 0.16007 1.00481 0.0
C757 C 0.07836 0.15866 1.01497 0.0
C758 C 0.03566 0.1849 1.00473 0.0
C759 C 0.04388 0.20945 1.01465 0.0
C760 C 0.06963 0.20814 1.02488 0.0
H761 H 0.96739 0.37884 0.99783 0.0
H762 H 0.9972 0.33602 0.99839 0.0
C763 C 0.08669 0.18316 1.02497 0.0
C764 C 0.02526 0.23597 1.01458 0.0
H765 H 0.99126 0.28366 0.9859 0.0
C766 C 0.01548 0.24737 1.03139 0.0
C767 C 0.01661 0.24983 0.99802 0.0
C768 C 0.02746 0.24028 0.97946 0.0
C769 C 0.9972 0.27153 1.03209 0.0
C770 C 0.98771 0.28474 1.01548 0.0
C771 C 0.99792 0.2736 0.9987 0.0
C772 C 0.96851 0.31087 1.01513 0.0
C773 C 0.98885 0.28309 1.05071 0.0
C774 C 0.94173 0.31147 1.02402 0.0
C775 C 0.92444 0.3363 1.02375 0.0
C776 C 0.93332 0.36119 1.01445 0.0
C777 C 0.9597 0.36024 1.00518 0.0
C778 C 0.97692 0.33558 1.00549 0.0
H779 H 1.00388 0.27599 1.06171 0.0
H780 H 0.98824 0.30682 1.05064 0.0
H781 H 0.96727 0.27509 1.05427 0.0
H782 H 0.93407 0.29269 1.03117 0.0
H783 H 0.90428 0.33608 1.03099 0.0
H784 H 0.58228 0.86096 0.95439 0.0
H785 H 0.53865 0.8314 0.95426 0.0
H786 H 0.58063 0.76963 0.98919 0.0
H787 H 0.62362 0.7991 0.98964 0.0
H788 H 0.52758 0.77718 0.9422 0.0
H789 H 0.50787 0.7799 1.01724 0.0
H790 H 0.5333 0.80328 1.00633 0.0
H791 H 0.54297 0.76704 1.01199 0.0
C792 C 0.58207 0.84125 0.96222 0.0
C793 C 0.6066 0.8327 0.97215 0.0
C794 C 0.55707 0.82419 0.96208 0.0
C795 C 0.55578 0.7982 0.97197 0.0
C796 C 0.58039 0.78973 0.98179 0.0
H797 H 0.42815 0.65941 0.9539 0.0
H798 H 0.47162 0.68907 0.95388 0.0
C799 C 0.60522 0.80669 0.98196 0.0
C800 C 0.52922 0.77962 0.97182 0.0
H801 H 0.48181 0.74505 1.00008 0.0
C802 C 0.51755 0.7703 0.95489 0.0
C803 C 0.51554 0.77059 0.98827 0.0
C804 C 0.52536 0.78094 1.00697 0.0
C805 C 0.49331 0.75211 0.95397 0.0
C806 C 0.48029 0.74225 0.97046 0.0
C807 C 0.49171 0.75199 0.98736 0.0
C808 C 0.45404 0.72316 0.97059 0.0
C809 C 0.48148 0.74429 0.93525 0.0
C810 C 0.42963 0.7314 0.98051 0.0
C811 C 0.40493 0.71425 0.98073 0.0
C812 C 0.40362 0.68809 0.97108 0.0
C813 C 0.4282 0.6794 0.96144 0.0
C814 C 0.45307 0.69662 0.96126 0.0
H815 H 0.48849 0.75959 0.92446 0.0
H816 H 0.48935 0.72276 0.93135 0.0
H817 H 0.45778 0.74376 0.93536 0.0
H818 H 0.42945 0.7515 0.98794 0.0
H819 H 0.38658 0.72181 0.98834 0.0
H820 H 0.5431 0.14051 0.73817 0.0
H821 H 0.51368 0.18359 0.73761 0.0
H822 H 0.57659 0.2259 0.70411 0.0
H823 H 0.60599 0.18223 0.7043 0.0
H824 H 0.52044 0.23585 0.7499 0.0
H825 H 0.50641 0.24345 0.67419 0.0
H826 H 0.52195 0.21248 0.68517 0.0
H827 H 0.54316 0.244 0.68134 0.0
C828 C 0.55082 0.15894 0.73065 0.0
C829 C 0.57704 0.15762 0.7212 0.0
C830 C 0.53383 0.18375 0.73034 0.0
C831 C 0.54229 0.20827 0.72053 0.0
C832 C 0.56888 0.20728 0.71141 0.0
H833 H 0.46719 0.37816 0.73928 0.0
H834 H 0.49649 0.33502 0.73893 0.0
C835 C 0.58594 0.18229 0.71168 0.0
C836 C 0.52339 0.23464 0.7203 0.0
H837 H 0.48894 0.28248 0.69185 0.0
C838 C 0.51363 0.24593 0.73715 0.0
C839 C 0.51371 0.24791 0.70376 0.0
C840 C 0.52157 0.23622 0.68508 0.0
C841 C 0.49518 0.26988 0.73796 0.0
C842 C 0.48635 0.2838 0.72146 0.0
C843 C 0.49569 0.27226 0.70458 0.0
C844 C 0.46792 0.31047 0.72152 0.0
C845 C 0.48479 0.27957 0.7566 0.0
C846 C 0.44201 0.31197 0.71146 0.0
C847 C 0.42506 0.33704 0.71155 0.0
C848 C 0.43364 0.36143 0.72158 0.0
C849 C 0.45958 0.35985 0.73153 0.0
C850 C 0.47644 0.33495 0.73142 0.0
H851 H 0.48569 0.26195 0.76687 0.0
H852 H 0.49873 0.29707 0.76172 0.0
H853 H 0.46251 0.28764 0.75583 0.0
H854 H 0.43479 0.29365 0.70359 0.0
H855 H 0.4054 0.33742 0.7036 0.0
H856 H 0.08198 0.36093 0.45741 0.0
H857 H 0.03886 0.33069 0.45785 0.0
H858 H 0.08351 0.26864 0.49115 0.0
H859 H 0.12606 0.29878 0.49104 0.0
H860 H 0.02846 0.27668 0.44522 0.0
H861 H 0.01174 0.27666 0.52061 0.0
H862 H 0.03625 0.3009 0.50958 0.0
H863 H 0.04684 0.26468 0.51457 0.0
C864 C 0.08247 0.34102 0.46503 0.0
C865 C 0.10762 0.33255 0.47431 0.0
C866 C 0.05777 0.32358 0.4652 0.0
C867 C 0.05741 0.29728 0.47478 0.0
C868 C 0.08259 0.28895 0.48402 0.0
H869 H 0.93154 0.157 0.45683 0.0
H870 H 0.97463 0.1872 0.45676 0.0
C871 C 0.10715 0.30629 0.48386 0.0
C872 C 0.03121 0.27822 0.47483 0.0
H873 H 0.98554 0.24196 0.5034 0.0
C874 C 0.01906 0.26922 0.45797 0.0
C875 C 0.01836 0.26845 0.49138 0.0
C876 C 0.02876 0.27838 0.51005 0.0
C877 C 0.99512 0.25066 0.45721 0.0
C878 C 0.98293 0.24006 0.47378 0.0
C879 C 0.99482 0.24947 0.49062 0.0
C880 C 0.95703 0.22056 0.47406 0.0
C881 C 0.98269 0.2432 0.43858 0.0
C882 C 0.93279 0.22818 0.48435 0.0
C883 C 0.90831 0.21073 0.48459 0.0
C884 C 0.90708 0.18487 0.4746 0.0
C885 C 0.93154 0.17674 0.46465 0.0
C886 C 0.95619 0.19428 0.46444 0.0
H887 H 0.98907 0.25891 0.42788 0.0
H888 H 0.9907 0.2219 0.43431 0.0
H889 H 0.95901 0.24233 0.43906 0.0
H890 H 0.93255 0.24806 0.49202 0.0
H891 H 0.89005 0.21784 0.49246 0.0
H892 H 0.04584 0.63982 0.23959 0.0
H893 H 0.01625 0.68278 0.23998 0.0
H894 H 0.0763 0.72535 0.2045 0.0
H895 H 0.10589 0.6818 0.20376 0.0
H896 H 0.02398 0.73544 0.25195 0.0
H897 H 1.00346 0.74161 0.17674 0.0
H898 H 0.01998 0.71087 0.1874 0.0
H899 H 0.04072 0.74239 0.18268 0.0
C900 C 0.05289 0.65828 0.23184 0.0
C901 C 0.07833 0.65707 0.22155 0.0
C902 C 0.03582 0.68302 0.23209 0.0
C903 C 0.04342 0.70754 0.222 0.0
C904 C 0.06927 0.7067 0.21205 0.0
H905 H 0.96744 0.87693 0.24164 0.0
H906 H 0.99745 0.83425 0.2409 0.0
C907 C 0.08644 0.68179 0.21178 0.0
C908 C 0.02432 0.73372 0.22228 0.0
H909 H 0.98677 0.78048 0.19477 0.0
C910 C 0.01593 0.74521 0.23939 0.0
C911 C 0.01306 0.74654 0.20602 0.0
C912 C 0.01949 0.7346 0.18716 0.0
C913 C 0.99726 0.76892 0.24069 0.0
C914 C 0.98676 0.78233 0.22442 0.0
C915 C 0.99479 0.77063 0.20731 0.0
C916 C 0.96784 0.8086 0.22493 0.0
C917 C 0.98841 0.77889 0.25961 0.0
C918 C 0.94106 0.80923 0.21588 0.0
C919 C 0.9237 0.83397 0.21621 0.0
C920 C 0.93274 0.85891 0.22547 0.0
C921 C 0.9595 0.85818 0.2345 0.0
C922 C 0.97676 0.83356 0.23416 0.0
H923 H 0.99067 0.76159 0.27002 0.0
H924 H 1.00238 0.79685 0.26397 0.0
H925 H 0.96593 0.78644 0.25961 0.0
H926 H 0.93349 0.79049 0.20855 0.0
H927 H 0.90339 0.8337 0.20898 0.0
H928 H 0.39505 0.02342 0.16794 0.0
H929 H 0.41893 0.0102 0.13917 0.0
H930 H 0.49784 0.9975 0.16906 0.0
H931 H 0.47446 0.01101 0.19767 0.0
H932 H 0.46631 0.04095 0.12551 0.0
H933 H 0.4925 0.92636 0.1359 0.0
H934 H 0.46553 0.94466 0.14917 0.0
H935 H 0.50271 0.9489 0.15489 0.0
C936 C 0.4174 0.01748 0.16838 0.0
C937 C 0.43287 0.01821 0.18506 0.0
C938 C 0.43093 0.00983 0.152 0.0
C939 C 0.45999 1.00258 0.15211 0.0
C940 C 0.47522 1.00239 0.16879 0.0
H941 H 0.59439 0.9765 1.07341 0.0
H942 H 0.56551 0.98426 1.10105 0.0
C943 C 0.46178 0.01008 0.18514 0.0
C944 C 0.47526 0.99805 0.13467 0.0
H945 H 0.51727 0.95047 1.11175 0.0
C946 C 0.47717 0.02107 0.12234 0.0
C947 C 0.48954 0.97216 0.13078 0.0
C948 C 0.48731 0.9465 0.1433 0.0
C949 C 0.49376 0.01916 1.10639 0.0
C950 C 0.50836 0.9934 1.10264 0.0
C951 C 0.50613 0.97023 1.11482 0.0
C952 C 0.52587 0.98993 1.086 0.0
C953 C 0.49623 0.04493 1.09397 0.0
C954 C 0.51298 0.99056 1.06852 0.0
C955 C 0.52932 0.98609 1.05279 0.0
C956 C 0.5588 0.98079 1.05431 0.0
C957 C 0.57169 0.98038 1.07186 0.0
C958 C 0.5553 0.98486 1.08761 0.0
H959 H 0.48933 0.06486 1.101 0.0
H960 H 0.51854 0.04772 1.08918 0.0
H961 H 0.48239 0.04181 1.08165 0.0
H962 H 0.49018 0.99388 1.06709 0.0
H963 H 0.51868 0.9859 1.03949 0.0
H964 H 0.76609 0.7196 0.44156 0.0
H965 H 0.78881 0.73461 0.41299 0.0
H966 H 0.78291 0.64856 0.39194 0.0
H967 H 0.76029 0.63315 0.42071 0.0
H968 H 0.83888 0.71474 0.39386 0.0
H969 H 0.7376 0.69801 0.35447 0.0
H970 H 0.7386 0.69876 0.37935 0.0
H971 H 0.75145 0.66798 0.36715 0.0
C972 C 0.77014 0.70367 0.43104 0.0
C973 C 0.76126 0.67519 0.43337 0.0
C974 C 0.78306 0.71233 0.4147 0.0
C975 C 0.78725 0.69274 0.40034 0.0
C976 C 0.77947 0.66404 0.40282 0.0
H977 H 0.82233 0.74765 0.28741 0.0
H978 H 0.8185 0.71592 0.31414 0.0
C979 C 0.7665 0.65532 0.4192 0.0
C980 C 0.7979 0.70319 0.38244 0.0
H981 H 0.77551 0.71951 0.33887 0.0
C982 C 0.82524 0.71543 0.38172 0.0
C983 C 0.78003 0.70393 0.36666 0.0
C984 C 0.7502 0.69166 0.36684 0.0
C985 C 0.83484 0.72931 0.36576 0.0
C986 C 0.81636 0.7314 0.35032 0.0
C987 C 0.78961 0.71787 0.35074 0.0
C988 C 0.82291 0.74978 0.33429 0.0
C989 C 0.86446 0.74198 0.36568 0.0
C990 C 0.8269 0.77928 0.3368 0.0
C991 C 0.82898 0.79743 0.32159 0.0
C992 C 0.82678 0.78643 0.3036 0.0
C993 C 0.82374 0.75676 0.30112 0.0
C994 C 0.82174 0.7386 0.31635 0.0
H995 H 0.87885 0.7305 0.37541 0.0
H996 H 0.87393 0.74131 0.35168 0.0
H997 H 0.86332 0.76463 0.37019 0.0
H998 H 0.82707 0.78847 0.35051 0.0
H999 H 0.83092 0.82023 0.32393 0.0
H1000 H 0.07294 0.91076 0.66582 0.0
H1001 H 0.04533 0.91126 0.63706 0.0
H1002 H 0.97989 0.96145 0.66335 0.0
H1003 H 0.00674 0.96011 0.69234 0.0
H1004 H 0.95844 0.91889 0.63871 0.0
H1005 H 0.04358 0.98615 0.60747 0.0
H1006 H 0.05487 0.95213 0.6164 0.0
H1007 H 0.04208 0.97917 0.63191 0.0
C1008 C 0.05238 0.92136 0.6656 0.0
C1009 C 0.04222 0.93578 0.68128 0.0
C1010 C 0.03675 0.92179 0.64913 0.0
C1011 C 0.01086 0.93681 0.64805 0.0
C1012 C 0.99992 0.94987 0.66391 0.0
H1013 H 0.89523 0.01224 0.57214 0.0
H1014 H 0.9171 0.98732 0.59823 0.0
C1015 C 0.01544 0.94936 0.68039 0.0
C1016 C 0.99633 0.94124 0.63014 0.0
H1017 H 1.00313 0.97683 0.58939 0.0
C1018 C 0.96826 0.93127 0.6278 0.0
C1019 C 0.00926 0.95743 0.61599 0.0
C1020 C 0.03901 0.96957 0.61802 0.0
C1021 C 0.95254 0.93755 0.61175 0.0
C1022 C 0.96516 0.95459 0.59791 0.0
C1023 C 0.99356 0.96365 0.6 0.0
C1024 C 0.9489 0.96552 0.58184 0.0
C1025 C 0.92257 0.92608 0.60982 0.0
C1026 C 0.95945 0.9615 0.56396 0.0
C1027 C 0.94738 0.97618 0.54909 0.0
C1028 C 0.92452 0.99521 0.55182 0.0
C1029 C 0.91303 0.99802 0.56961 0.0
C1030 C 0.92523 0.98343 0.5845 0.0
H1031 H 0.91962 0.90636 0.61814 0.0
H1032 H 0.90727 0.94234 0.61493 0.0
H1033 H 0.91724 0.92129 0.5952 0.0
H1034 H 0.97788 0.94798 0.56165 0.0
H1035 H 0.95703 0.97377 0.53564 0.0
H1036 H 0.81111 0.34195 0.91239 0.0
H1037 H 0.80559 0.31316 0.88432 0.0
H1038 H 0.79962 0.23672 0.91734 0.0
H1039 H 0.80519 0.26524 0.94539 0.0
H1040 H 0.83795 0.26503 0.87099 0.0
H1041 H 0.725 0.23794 0.88662 0.0
H1042 H 0.74393 0.26643 0.89821 0.0
H1043 H 0.75011 0.22987 0.90471 0.0
C1044 C 0.80891 0.31897 0.91362 0.0
C1045 C 0.80822 0.30583 0.93104 0.0
C1046 C 0.80573 0.30261 0.89763 0.0
C1047 C 0.80181 0.27296 0.89887 0.0
C1048 C 0.80211 0.25967 0.91619 0.0
H1049 H 0.75434 0.14643 0.81649 0.0
H1050 H 0.77335 0.16866 0.84459 0.0
C1051 C 0.80519 0.27598 0.93216 0.0
C1052 C 0.79636 0.25598 0.88209 0.0
H1053 H 0.74538 0.21574 0.86064 0.0
C1054 C 0.81777 0.25418 0.86869 0.0
C1055 C 0.76997 0.24194 0.87924 0.0
C1056 C 0.7458 0.24426 0.89286 0.0
C1057 C 0.81346 0.23849 0.85242 0.0
C1058 C 0.787 0.22463 0.84953 0.0
C1059 C 0.76576 0.22618 0.86304 0.0
C1060 C 0.77984 0.21011 0.83206 0.0
C1061 C 0.83721 0.23677 0.83849 0.0
C1062 C 0.77755 0.22606 0.81577 0.0
C1063 C 0.7665 0.21356 0.79981 0.0
C1064 C 0.75743 0.18489 0.7999 0.0
C1065 C 0.76085 0.16864 0.81607 0.0
C1066 C 0.77186 0.18121 0.83206 0.0
H1067 H 0.85831 0.24161 0.84485 0.0
H1068 H 0.83809 0.21524 0.83206 0.0
H1069 H 0.83324 0.25268 0.82741 0.0
H1070 H 0.78296 0.24859 0.81564 0.0
H1071 H 0.76366 0.22682 0.78769 0.0
H1072 H 0.25537 0.28177 0.78258 0.0
H1073 H 0.2395 0.2545 0.8093 0.0
H1074 H 0.24684 0.32992 0.84326 0.0
H1075 H 0.26181 0.3577 0.8164 0.0
H1076 H 0.2739 0.24735 0.84017 0.0
H1077 H 0.17003 0.29605 0.85897 0.0
H1078 H 0.18606 0.30086 0.83658 0.0
H1079 H 0.19827 0.32158 0.85598 0.0
C1080 C 0.25274 0.29281 0.79559 0.0
C1081 C 0.25979 0.32192 0.7974 0.0
C1082 C 0.24388 0.27713 0.81085 0.0
C1083 C 0.2418 0.29028 0.82815 0.0
C1084 C 0.24786 0.31953 0.82992 0.0
H1085 H 0.22566 0.24019 0.94079 0.0
H1086 H 0.2323 0.26419 0.91123 0.0
C1087 C 0.25669 0.33528 0.81463 0.0
C1088 C 0.23623 0.27281 0.84466 0.0
H1089 H 0.19219 0.26622 0.88167 0.0
C1090 C 0.25585 0.25119 0.84915 0.0
C1091 C 0.2127 0.27803 0.85628 0.0
C1092 C 0.19039 0.30021 0.85165 0.0
C1093 C 0.25313 0.23523 0.86538 0.0
C1094 C 0.22994 0.24088 0.8772 0.0
C1095 C 0.20997 0.26208 0.87253 0.0
C1096 C 0.22668 0.22585 0.89491 0.0
C1097 C 0.27561 0.21323 0.87009 0.0
C1098 C 0.22143 0.19635 0.89542 0.0
C1099 C 0.21793 0.18249 0.9123 0.0
C1100 C 0.21953 0.19801 0.92889 0.0
C1101 C 0.22487 0.22757 0.92827 0.0
C1102 C 0.22837 0.24136 0.91141 0.0
H1103 H 0.29505 0.21571 0.86152 0.0
H1104 H 0.28185 0.21474 0.88486 0.0
H1105 H 0.2668 0.19153 0.86763 0.0
H1106 H 0.21972 0.18415 0.88276 0.0
H1107 H 0.21394 0.15968 0.91238 0.0
H1108 H 0.23534 0.81872 0.44058 0.0
H1109 H 0.22444 0.79128 0.41263 0.0
H1110 H 0.30917 0.80788 0.39222 0.0
H1111 H 0.32035 0.83509 0.42012 0.0
H1112 H 0.26406 0.81312 0.36544 0.0
H1113 H 0.26034 0.71103 0.40469 0.0
H1114 H 0.23749 0.73894 0.41312 0.0
H1115 H 0.27557 0.74337 0.41414 0.0
C1116 C 0.25155 0.81668 0.43006 0.0
C1117 C 0.27876 0.82883 0.43257 0.0
C1118 C 0.24532 0.80101 0.41417 0.0
C1119 C 0.26623 0.79719 0.40064 0.0
C1120 C 0.29285 0.81055 0.40262 0.0
H1121 H 0.27715 0.70308 0.29789 0.0
H1122 H 0.288 0.73058 0.32582 0.0
C1123 C 0.29911 0.82623 0.41849 0.0
C1124 C 0.26082 0.77834 0.38473 0.0
H1125 H 0.24834 0.70881 0.37296 0.0
C1126 C 0.26068 0.79031 0.36702 0.0
C1127 C 0.25657 0.74862 0.38699 0.0
C1128 C 0.25771 0.73458 0.40573 0.0
C1129 C 0.25583 0.77332 0.35141 0.0
C1130 C 0.25157 0.7436 0.35367 0.0
C1131 C 0.25172 0.73162 0.37138 0.0
C1132 C 0.24616 0.72474 0.33776 0.0
C1133 C 0.25472 0.78734 0.33267 0.0
C1134 C 0.21953 0.71142 0.33576 0.0
C1135 C 0.2133 0.69572 0.3199 0.0
C1136 C 0.23369 0.69305 0.30585 0.0
C1137 C 0.26091 0.70518 0.30838 0.0
C1138 C 0.26711 0.72088 0.32426 0.0
H1139 H 0.25213 0.8109 0.33371 0.0
H1140 H 0.27494 0.78294 0.32528 0.0
H1141 H 0.23685 0.77857 0.32426 0.0
H1142 H 0.20319 0.71413 0.34614 0.0
H1143 H 0.19206 0.68687 0.31825 0.0
H1144 H 0.0839 0.4208 0.57435 0.0
H1145 H 0.05809 0.42209 0.60359 0.0
H1146 H 0.98304 0.45328 0.57527 0.0
H1147 H 0.00834 0.45116 0.54595 0.0
H1148 H 0.03751 0.47189 0.61791 0.0
H1149 H 0.94915 0.39416 0.61 0.0
H1150 H 0.98014 0.394 0.59526 0.0
H1151 H 0.95131 0.41862 0.59099 0.0
C1152 C 0.06166 0.42719 0.57428 0.0
C1153 C 0.04818 0.43604 0.55787 0.0
C1154 C 0.04699 0.42798 0.59099 0.0
C1155 C 0.01856 0.43742 0.59155 0.0
C1156 C 1.00476 0.44533 0.5751 0.0
H1157 H 0.90205 0.51109 0.66723 0.0
H1158 H 0.92585 0.48777 0.64131 0.0
C1159 C 0.01939 0.44454 0.5584 0.0
C1160 C 1.0045 0.44257 0.60945 0.0
H1161 H 0.9433 0.4301 0.63352 0.0
C1162 C 0.01718 0.46234 0.62151 0.0
C1163 C 0.97791 0.43018 0.61401 0.0
C1164 C 0.96396 0.40784 0.60196 0.0
C1165 C 1.00335 0.47118 0.63761 0.0
C1166 C 0.97634 0.45947 0.6419 0.0
C1167 C 0.96401 0.439 0.63015 0.0
C1168 C 0.95994 0.4698 0.65791 0.0
C1169 C 0.01714 0.49402 0.64939 0.0
C1170 C 0.97075 0.46654 0.67585 0.0
C1171 C 0.95749 0.48017 0.69063 0.0
C1172 C 0.93299 0.49706 0.68773 0.0
C1173 C 0.92119 0.49871 0.66987 0.0
C1174 C 0.93459 0.48519 0.65508 0.0
H1175 H 0.0349 0.50495 0.64213 0.0
H1176 H 1.00123 0.51036 0.65357 0.0
H1177 H 0.02601 0.4841 0.66209 0.0
H1178 H 0.99011 0.45441 0.67831 0.0
H1179 H 0.96729 0.47858 0.70416 0.0
H1180 H 0.62055 0.4847 0.16382 0.0
H1181 H 0.59793 0.49663 0.13422 0.0
H1182 H 0.51937 0.51623 0.1623 0.0
H1183 H 0.54143 0.504 0.19171 0.0
H1184 H 0.54934 0.46801 0.12035 0.0
H1185 H 0.52941 0.58427 0.12731 0.0
H1186 H 0.55499 0.56539 0.14154 0.0
H1187 H 0.51754 0.56414 0.1469 0.0
C1188 C 0.59855 0.49186 0.16367 0.0
C1189 C 0.58279 0.49349 0.1801 0.0
C1190 C 0.58575 0.49876 0.1468 0.0
C1191 C 0.55716 0.50764 0.14618 0.0
C1192 C 0.54168 0.51008 0.16258 0.0
H1193 H 0.41966 0.53321 1.0703 0.0
H1194 H 0.45093 0.52422 1.09687 0.0
C1195 C 0.55437 0.50313 0.17939 0.0
C1196 C 0.54242 0.51181 0.12839 0.0
H1197 H 0.50145 0.55948 1.10452 0.0
C1198 C 0.53924 0.48811 1.11668 0.0
C1199 C 0.52928 0.53805 0.12379 0.0
C1200 C 0.53318 0.56449 0.13546 0.0
C1201 C 0.52207 0.48964 1.10082 0.0
C1202 C 0.50808 0.51559 1.09662 0.0
C1203 C 0.51201 0.53953 1.108 0.0
C1204 C 0.48901 0.51842 1.08054 0.0
C1205 C 0.51811 0.46332 1.08904 0.0
C1206 C 0.50021 0.51779 1.06269 0.0
C1207 C 0.48252 0.52307 1.04754 0.0
C1208 C 0.45336 0.52912 1.05005 0.0
C1209 C 0.44207 0.52887 1.06797 0.0
C1210 C 0.45983 0.52367 1.08311 0.0
H1211 H 0.5262 0.44373 1.09599 0.0
H1212 H 0.49519 0.46024 1.08554 0.0
H1213 H 0.52994 0.46606 1.07594 0.0
H1214 H 0.52281 0.51422 1.06052 0.0
H1215 H 0.49198 0.52366 1.03395 0.0
H1216 H 0.22512 0.29406 0.2499 0.0
H1217 H 0.21363 0.34163 0.23787 0.0
H1218 H 0.28898 0.37589 0.26423 0.0
H1219 H 0.30046 0.32841 0.27652 0.0
H1220 H 0.23737 0.40737 0.27063 0.0
H1221 H 0.25483 0.38635 0.19615 0.0
H1222 H 0.23232 0.36082 0.20756 0.0
H1223 H 0.26927 0.36368 0.2141 0.0
C1224 C 0.23922 0.31172 0.25318 0.0
C1225 C 0.26371 0.30744 0.26418 0.0
C1226 C 0.23279 0.33883 0.24613 0.0
C1227 C 0.25068 0.3622 0.24993 0.0
C1228 C 0.27505 0.35808 0.26098 0.0
H1229 H 0.23258 0.53779 0.20721 0.0
H1230 H 0.25268 0.49063 0.21508 0.0
C1231 C 0.28161 0.33093 0.26794 0.0
C1232 C 0.24316 0.39117 0.2431 0.0
H1233 H 0.23107 0.42988 0.20381 0.0
C1234 C 0.23627 0.41237 0.25603 0.0
C1235 C 0.24196 0.39772 0.22405 0.0
C1236 C 0.25022 0.37606 0.20962 0.0
C1237 C 0.22718 0.43963 0.25039 0.0
C1238 C 0.2249 0.4458 0.23134 0.0
C1239 C 0.23276 0.42499 0.2184 0.0
C1240 C 0.2127 0.47323 0.22479 0.0
C1241 C 0.21961 0.46158 0.26483 0.0
C1242 C 0.1835 0.47857 0.2271 0.0
C1243 C 0.17203 0.50518 0.22254 0.0
C1244 C 0.18955 0.52709 0.21563 0.0
C1245 C 0.21859 0.52132 0.2125 0.0
C1246 C 0.23009 0.49448 0.21703 0.0
H1247 H 0.22788 0.45559 0.2787 0.0
H1248 H 0.22825 0.48289 0.26106 0.0
H1249 H 0.19602 0.46347 0.26566 0.0
H1250 H 0.1697 0.46233 0.23291 0.0
H1251 H 0.14953 0.50889 0.22503 0.0
H1252 H 0.46135 0.54366 0.48632 0.0
H1253 H 0.41356 0.53185 0.4748 0.0
H1254 H 0.4 0.47731 0.52183 0.0
H1255 H 0.44796 0.48835 0.53326 0.0
H1256 H 0.39067 0.47647 0.46617 0.0
H1257 H 0.32943 0.53108 0.52122 0.0
H1258 H 0.36669 0.53845 0.51695 0.0
H1259 H 0.3565 0.50697 0.5295 0.0
C1260 C 0.44837 0.52894 0.49417 0.0
C1261 C 0.45866 0.51702 0.51079 0.0
C1262 C 0.42094 0.52237 0.4876 0.0
C1263 C 0.40306 0.50401 0.49757 0.0
C1264 C 0.41322 0.49198 0.51409 0.0
H1265 H 0.25616 0.40405 0.46979 0.0
H1266 H 0.30386 0.42339 0.47551 0.0
C1267 C 0.44068 0.4984 0.52063 0.0
C1268 C 0.37406 0.4968 0.4905 0.0
H1269 H 0.30321 0.49987 0.50142 0.0
C1270 C 0.37153 0.4818 0.47379 0.0
C1271 C 0.34906 0.50409 0.50032 0.0
C1272 C 0.3504 0.52126 0.51792 0.0
C1273 C 0.34474 0.47293 0.46701 0.0
C1274 C 0.31986 0.4791 0.47726 0.0
C1275 C 0.3223 0.49505 0.49361 0.0
C1276 C 0.29137 0.46759 0.47195 0.0
C1277 C 0.34327 0.45685 0.449 0.0
C1278 C 0.26841 0.48599 0.46797 0.0
C1279 C 0.24101 0.47493 0.46457 0.0
C1280 C 0.2361 0.44531 0.46542 0.0
C1281 C 0.2593 0.42697 0.46895 0.0
C1282 C 0.28661 0.43798 0.47218 0.0
H1283 H 0.36257 0.4606 0.44049 0.0
H1284 H 0.34186 0.43359 0.45188 0.0
H1285 H 0.32407 0.46314 0.4409 0.0
H1286 H 0.2716 0.50893 0.46783 0.0
H1287 H 0.22352 0.48959 0.46202 0.0
H1288 H 0.23556 0.72265 0.73447 0.0
H1289 H 0.2475 0.67527 0.72249 0.0
H1290 H 0.27726 0.64983 0.77643 0.0
H1291 H 0.26449 0.69683 0.78868 0.0
H1292 H 0.29928 0.64836 0.72112 0.0
H1293 H 0.22382 0.58445 0.7628 0.0
H1294 H 0.22128 0.62285 0.76087 0.0
H1295 H 0.24656 0.60691 0.77657 0.0
C1296 C 0.24425 0.70686 0.74387 0.0
C1297 C 0.24885 0.71358 0.7626 0.0
C1298 C 0.25124 0.67982 0.73696 0.0
C1299 C 0.26284 0.65878 0.7486 0.0
C1300 C 0.26777 0.66548 0.76724 0.0
H1301 H 0.36342 0.51099 0.72418 0.0
H1302 H 0.34434 0.55845 0.73049 0.0
C1303 C 0.2608 0.69253 0.77418 0.0
C1304 C 0.27069 0.6302 0.74112 0.0
H1305 H 0.26048 0.55845 0.74723 0.0
C1306 C 0.29058 0.62872 0.72672 0.0
C1307 C 0.259 0.60453 0.74816 0.0
C1308 C 0.23626 0.60468 0.76282 0.0
C1309 C 0.29993 0.60232 0.71971 0.0
C1310 C 0.28943 0.57663 0.72747 0.0
C1311 C 0.2687 0.57811 0.74136 0.0
C1312 C 0.30105 0.54814 0.72226 0.0
C1313 C 0.32101 0.60221 0.70405 0.0
C1314 C 0.28304 0.52629 0.71565 0.0
C1315 C 0.29396 0.49888 0.71206 0.0
C1316 C 0.32299 0.49287 0.71524 0.0
C1317 C 0.34098 0.51496 0.72149 0.0
C1318 C 0.33013 0.54221 0.72503 0.0
H1319 H 0.31984 0.62233 0.69594 0.0
H1320 H 0.34297 0.6004 0.70977 0.0
H1321 H 0.31724 0.58386 0.69462 0.0
H1322 H 0.26049 0.53033 0.71351 0.0
H1323 H 0.27956 0.48225 0.70736 0.0
H1324 H 0.05153 0.5479 1.02293 0.0
H1325 H 0.09901 0.56011 1.01144 0.0
H1326 H 0.11085 0.47314 0.99329 0.0
H1327 H 0.06334 0.46076 1.0047 0.0
H1328 H 0.15141 0.53857 1.02136 0.0
H1329 H 0.13057 0.51787 0.94703 0.0
H1330 H 0.10225 0.52036 0.96374 0.0
H1331 H 0.12306 0.48818 0.96193 0.0
C1332 C 0.06427 0.53131 1.01657 0.0
C1333 C 0.05353 0.50336 1.01468 0.0
C1334 C 0.09137 0.53836 1.00993 0.0
C1335 C 0.10835 0.51767 1.00121 0.0
C1336 C 0.09789 0.48965 0.99952 0.0
H1337 H 0.28419 0.53263 0.95937 0.0
H1338 H 0.23707 0.51336 0.96784 0.0
C1339 C 0.07072 0.4826 1.0061 0.0
C1340 C 0.13723 0.52542 0.99435 0.0
H1341 H 0.17811 0.52958 0.95546 0.0
C1342 C 0.15722 0.53656 1.00696 0.0
C1343 C 0.1449 0.52267 0.97555 0.0
C1344 C 0.12403 0.51186 0.96122 0.0
C1345 C 0.18452 0.5452 1.00128 0.0
C1346 C 0.19197 0.54294 0.98245 0.0
C1347 C 0.17232 0.5312 0.96989 0.0
C1348 C 0.21944 0.55441 0.97552 0.0
C1349 C 0.20521 0.55677 1.0155 0.0
C1350 C 0.22464 0.58389 0.97636 0.0
C1351 C 0.25124 0.59486 0.97147 0.0
C1352 C 0.27327 0.57659 0.96562 0.0
C1353 C 0.26762 0.5472 0.96382 0.0
C1354 C 0.2408 0.53618 0.96871 0.0
H1355 H 0.19909 0.55054 1.02973 0.0
H1356 H 0.22723 0.54907 1.01282 0.0
H1357 H 0.20537 0.58047 1.01476 0.0
H1358 H 0.2083 0.59837 0.98127 0.0
H1359 H 0.25487 0.61763 0.9729 0.0
H1360 H 0.77922 0.48112 1.02853 0.0
H1361 H 0.76029 0.52893 1.02113 0.0
H1362 H 0.84543 0.55807 1.00885 0.0
H1363 H 0.86435 0.51077 1.01612 0.0
H1364 H 0.77699 0.5878 1.0345 0.0
H1365 H 0.79749 0.56865 0.96012 0.0
H1366 H 0.79572 0.54002 0.97679 0.0
H1367 H 0.82731 0.56165 0.97518 0.0
C1368 C 0.79389 0.49792 1.0246 0.0
C1369 C 0.82321 0.49217 1.02273 0.0
C1370 C 0.78307 0.52514 1.02034 0.0
C1371 C 0.80144 0.54681 1.01412 0.0
C1372 C 0.83087 0.54151 1.01334 0.0
H1373 H 0.79528 0.71573 0.96754 0.0
H1374 H 0.8075 0.6682 0.97921 0.0
C1375 C 0.84164 0.51448 1.01758 0.0
C1376 C 0.79011 0.57457 1.00743 0.0
H1377 H 0.78561 0.61609 0.96879 0.0
C1378 C 0.77854 0.59396 1.02012 0.0
C1379 C 0.79225 0.58247 0.98866 0.0
C1380 C 0.80363 0.56206 0.97433 0.0
C1381 C 0.77005 0.62156 1.01462 0.0
C1382 C 0.77272 0.62967 0.99587 0.0
C1383 C 0.78369 0.60994 0.98315 0.0
C1384 C 0.76505 0.65872 0.98916 0.0
C1385 C 0.75935 0.64214 1.02904 0.0
C1386 C 0.73704 0.66912 0.99067 0.0
C1387 C 0.72997 0.69631 0.98397 0.0
C1388 C 0.75072 0.71355 0.97545 0.0
C1389 C 0.7787 0.70293 0.97383 0.0
C1390 C 0.78576 0.67581 0.98058 0.0
H1391 H 0.76529 0.63521 1.04321 0.0
H1392 H 0.76796 0.66395 1.0267 0.0
H1393 H 0.7357 0.64327 1.02821 0.0
H1394 H 0.72052 0.65607 0.9968 0.0
H1395 H 0.70811 0.70362 0.98517 0.0
H1396 H 0.57011 0.52107 0.69967 0.0
H1397 H 0.61747 0.53267 0.71194 0.0
H1398 H 0.59424 0.49693 0.76458 0.0
H1399 H 0.54648 0.4861 0.75261 0.0
H1400 H 0.62099 0.54912 0.76789 0.0
H1401 H 0.68319 0.47761 0.72231 0.0
H1402 H 0.66005 0.50143 0.70983 0.0
H1403 H 0.64494 0.47472 0.72472 0.0
C1404 C 0.57498 0.5158 0.71389 0.0
C1405 C 0.55446 0.50253 0.72511 0.0
C1406 C 0.60222 0.52213 0.72082 0.0
C1407 C 0.60961 0.51518 0.73908 0.0
C1408 C 0.58912 0.50222 0.75039 0.0
H1409 H 0.78752 0.52966 0.77804 0.0
H1410 H 0.73916 0.5108 0.77257 0.0
C1411 C 0.56187 0.49587 0.74347 0.0
C1412 C 0.63837 0.52235 0.74654 0.0
H1413 H 0.70972 0.51306 0.73893 0.0
C1414 C 0.64039 0.541 0.76168 0.0
C1415 C 0.6637 0.51137 0.73866 0.0
C1416 C 0.66295 0.48994 0.7231 0.0
C1417 C 0.66703 0.54993 0.76861 0.0
C1418 C 0.69232 0.54025 0.76004 0.0
C1419 C 0.69033 0.52064 0.74542 0.0
C1420 C 0.72089 0.55174 0.76511 0.0
C1421 C 0.66784 0.56981 0.785 0.0
C1422 C 0.72659 0.58097 0.76286 0.0
C1423 C 0.75402 0.5917 0.76596 0.0
C1424 C 0.77643 0.57341 0.77128 0.0
C1425 C 0.77062 0.54426 0.77405 0.0
C1426 C 0.74307 0.53347 0.77086 0.0
H1427 H 0.64806 0.56808 0.79332 0.0
H1428 H 0.68653 0.56526 0.79403 0.0
H1429 H 0.66954 0.59219 0.78005 0.0
H1430 H 0.71002 0.59538 0.75807 0.0
H1431 H 0.75786 0.61425 0.76362 0.0
H1432 H 0.73671 0.31677 0.45164 0.0
H1433 H 0.72477 0.36451 0.46293 0.0
H1434 H 0.77401 0.34916 0.51235 0.0
H1435 H 0.78674 0.3016 0.501 0.0
H1436 H 0.71799 0.3723 0.51843 0.0
H1437 H 0.77894 0.43464 0.46675 0.0
H1438 H 0.75554 0.408 0.45713 0.0
H1439 H 0.78551 0.39716 0.47106 0.0
C1440 C 0.74541 0.32361 0.46479 0.0
C1441 C 0.76283 0.30519 0.47534 0.0
C1442 C 0.73848 0.35095 0.47124 0.0
C1443 C 0.74876 0.36054 0.48839 0.0
C1444 C 0.76588 0.34221 0.49906 0.0
H1445 H 0.73394 0.53875 0.52597 0.0
H1446 H 0.75271 0.49054 0.51993 0.0
C1447 C 0.77297 0.31492 0.49258 0.0
C1448 C 0.74106 0.38943 0.49533 0.0
H1449 H 0.74628 0.46066 0.48538 0.0
C1450 C 0.72436 0.39164 0.5113 0.0
C1451 C 0.74968 0.41467 0.48615 0.0
C1452 C 0.76863 0.41366 0.46941 0.0
C1453 C 0.71519 0.41835 0.51793 0.0
C1454 C 0.72282 0.4435 0.5083 0.0
C1455 C 0.74036 0.44137 0.49272 0.0
C1456 C 0.71146 0.47206 0.5135 0.0
C1457 C 0.69728 0.41947 0.53514 0.0
C1458 C 0.68209 0.47759 0.51201 0.0
C1459 C 0.67141 0.50498 0.51537 0.0
C1460 C 0.68986 0.52749 0.52029 0.0
C1461 C 0.7192 0.5218 0.52231 0.0
C1462 C 0.72994 0.49433 0.5188 0.0
H1463 H 0.69963 0.39969 0.5435 0.0
H1464 H 0.70318 0.43816 0.54381 0.0
H1465 H 0.67446 0.42164 0.53117 0.0
H1466 H 0.66749 0.46089 0.50766 0.0
H1467 H 0.64872 0.50873 0.51361 0.0
H1468 H 0.75848 0.39976 0.26602 0.0
H1469 H 0.80604 0.41897 0.26008 0.0
H1470 H 0.77559 0.50407 0.27164 0.0
H1471 H 0.72763 0.48484 0.27768 0.0
H1472 H 0.80493 0.49765 0.23717 0.0
H1473 H 0.86745 0.45211 0.29534 0.0
H1474 H 0.8456 0.42644 0.28338 0.0
H1475 H 0.82898 0.45522 0.29577 0.0
C1476 C 0.762 0.42251 0.26765 0.0
C1477 C 0.73934 0.4408 0.27235 0.0
C1478 C 0.78924 0.43345 0.2643 0.0
C1479 C 0.79446 0.46292 0.26557 0.0
C1480 C 0.77204 0.48123 0.27069 0.0
H1481 H 0.96477 0.53722 0.25035 0.0
H1482 H 0.91759 0.52539 0.26249 0.0
C1483 C 0.74472 0.47023 0.27421 0.0
C1484 C 0.82276 0.4745 0.26017 0.0
H1485 H 0.89418 0.46964 0.2697 0.0
C1486 C 0.82442 0.49183 0.24441 0.0
C1487 C 0.84816 0.46701 0.26967 0.0
C1488 C 0.84756 0.44939 0.28709 0.0
C1489 C 0.85089 0.50096 0.23749 0.0
C1490 C 0.87637 0.49235 0.2465 0.0
C1491 C 0.87465 0.47598 0.26269 0.0
C1492 C 0.905 0.49955 0.23908 0.0
C1493 C 0.85142 0.51963 0.22053 0.0
C1494 C 0.91377 0.48863 0.22199 0.0
C1495 C 0.94089 0.49504 0.21509 0.0
C1496 C 0.95989 0.51255 0.22513 0.0
C1497 C 0.95098 0.52335 0.24232 0.0
C1498 C 0.92391 0.51678 0.24925 0.0
H1499 H 0.83045 0.53008 0.21801 0.0
H1500 H 0.86809 0.53641 0.2218 0.0
H1501 H 0.8565 0.50627 0.20833 0.0
H1502 H 0.89974 0.47483 0.21407 0.0
H1503 H 0.94711 0.48586 0.202 0.0
H1504 H 0.74705 0.81991 0.78725 0.0
H1505 H 0.73318 0.86682 0.77531 0.0
H1506 H 0.76449 0.84353 0.72156 0.0
H1507 H 0.77744 0.79618 0.73319 0.0
H1508 H 0.76591 0.90936 0.75963 0.0
H1509 H 0.68382 0.8709 0.70991 0.0
H1510 H 0.69877 0.84827 0.72766 0.0
H1511 H 0.71852 0.85526 0.70696 0.0
C1512 C 0.75067 0.82457 0.77283 0.0
C1513 C 0.76322 0.80408 0.76118 0.0
C1514 C 0.74293 0.85153 0.76605 0.0
C1515 C 0.74742 0.85862 0.74747 0.0
C1516 C 0.76033 0.83842 0.73586 0.0
H1517 H 0.73101 0.03653 0.70767 0.0
H1518 H 0.75025 0.98856 0.714 0.0
C1519 C 0.76804 0.81143 0.74261 0.0
C1520 C 0.73867 0.8872 0.74035 0.0
H1521 H 0.69424 0.92034 0.70947 0.0
C1522 C 0.75034 0.91178 0.7486 0.0
C1523 C 0.71816 0.89035 0.72607 0.0
C1524 C 0.70385 0.86484 0.71722 0.0
C1525 C 0.74189 0.93936 0.74309 0.0
C1526 C 0.72156 0.94251 0.72869 0.0
C1527 C 0.71008 0.91793 0.72034 0.0
C1528 C 0.71002 0.97098 0.72326 0.0
C1529 C 0.75399 0.96487 0.75322 0.0
C1530 C 0.68086 0.97671 0.72561 0.0
C1531 C 0.66986 1.00385 0.72186 0.0
C1532 C 0.68775 0.02595 0.71564 0.0
C1533 C 0.71674 0.01996 0.71251 0.0
C1534 C 0.72778 0.99264 0.71627 0.0
H1535 H 0.76461 0.95864 0.76636 0.0
H1536 H 0.7701 0.97552 0.7444 0.0
H1537 H 0.73694 0.98064 0.75631 0.0
H1538 H 0.6667 0.96036 0.73089 0.0
H1539 H 0.6474 0.00775 0.72436 0.0
H1540 H 0.7253 0.98761 0.95977 0.0
H1541 H 0.77348 0.00683 0.96545 0.0
H1542 H 0.8042 0.92179 0.97711 0.0
H1543 H 0.75642 0.90258 0.97154 0.0
H1544 H 0.80387 1.0005 0.99984 0.0
H1545 H 0.86449 0.9547 0.94137 0.0
H1546 H 0.82602 0.95792 0.94114 0.0
H1547 H 0.84294 0.92912 0.95345 0.0
C1548 C 0.74249 0.97301 0.96319 0.0
C1549 C 0.73714 0.9436 0.96519 0.0
C1550 C 0.76994 0.984 0.9665 0.0
C1551 C 0.79248 0.96569 0.97154 0.0
C1552 C 0.78728 0.93625 0.97295 0.0
H1553 H 0.94697 0.98778 1.03427 0.0
H1554 H 0.89923 0.97702 1.02235 0.0
C1555 C 0.75992 0.92532 0.96981 0.0
C1556 C 0.82095 0.97727 0.97676 0.0
H1557 H 0.89205 0.97222 0.96687 0.0
C1558 C 0.82312 0.99463 0.9925 0.0
C1559 C 0.84603 0.96971 0.96712 0.0
C1560 C 0.84485 0.95205 0.94973 0.0
C1561 C 0.84982 1.00369 0.99928 0.0
C1562 C 0.87498 0.99499 0.99015 0.0
C1563 C 0.87274 0.97862 0.97397 0.0
C1564 C 0.90384 1.00204 0.99747 0.0
C1565 C 0.85092 0.02234 1.01625 0.0
C1566 C 0.92246 0.01936 0.9873 0.0
C1567 C 0.94975 0.02579 0.99415 0.0
C1568 C 0.95912 0.01475 1.01123 0.0
C1569 C 0.94039 0.99714 1.02126 0.0
C1570 C 0.91307 0.99088 1.01445 0.0
H1571 H 0.83005 0.03281 1.01892 0.0
H1572 H 0.85641 0.00897 1.02841 0.0
H1573 H 0.86757 0.03911 1.01489 0.0
H1574 H 0.91577 0.02814 0.97414 0.0
H1575 H 0.96333 0.03973 0.98614 0.0
H1576 H 0.86152 0.00757 0.22081 0.0
H1577 H 0.84246 0.05531 0.22674 0.0
H1578 H 0.75672 0.02323 0.2199 0.0
H1579 H 0.77575 0.97512 0.21388 0.0
H1580 H 0.80352 0.09189 0.20553 0.0
H1581 H 0.76116 0.05734 0.27361 0.0
H1582 H 0.78742 0.03678 0.26119 0.0
H1583 H 0.7508 0.03656 0.25377 0.0
C1584 C 0.8386 0.01075 0.22026 0.0
C1585 C 0.8201 0.9876 0.21699 0.0
C1586 C 0.82776 0.03804 0.22365 0.0
C1587 C 0.7982 0.04272 0.224 0.0
C1588 C 0.77962 0.01996 0.21988 0.0
H1589 H 0.72048 0.2118 0.23969 0.0
H1590 H 0.73216 0.16427 0.22783 0.0
C1591 C 0.7905 0.99257 0.21634 0.0
C1592 C 0.78717 0.07108 0.22973 0.0
H1593 H 0.75555 0.1058 0.26573 0.0
C1594 C 0.79272 0.09495 0.21858 0.0
C1595 C 0.77352 0.07499 0.24691 0.0
C1596 C 0.76796 0.05018 0.2597 0.0
C1597 C 0.78515 0.12269 0.22422 0.0
C1598 C 0.77159 0.12659 0.24143 0.0
C1599 C 0.76582 0.10269 0.2525 0.0
C1600 C 0.76437 0.15544 0.24856 0.0
C1601 C 0.79256 0.14773 0.21205 0.0
C1602 C 0.77832 0.1661 0.2643 0.0
C1603 C 0.77189 0.19336 0.27105 0.0
C1604 C 0.75114 0.21049 0.26228 0.0
C1605 C 0.73696 0.19951 0.2466 0.0
C1606 C 0.74352 0.17228 0.23982 0.0
H1607 H 0.80758 0.14165 0.2009 0.0
H1608 H 0.77276 0.15615 0.20555 0.0
H1609 H 0.80228 0.16523 0.22032 0.0
H1610 H 0.7945 0.15342 0.27124 0.0
H1611 H 0.78352 0.20117 0.28298 0.0
H1612 H 0.78713 0.03008 0.4626 0.0
H1613 H 0.73896 0.0115 0.4687 0.0
H1614 H 0.70883 0.09738 0.47804 0.0
H1615 H 0.75662 0.11596 0.47202 0.0
H1616 H 0.70927 0.02007 0.5028 0.0
H1617 H 0.64774 0.06258 0.44323 0.0
H1618 H 0.68619 0.05926 0.4431 0.0
H1619 H 0.66954 0.08879 0.45472 0.0
C1620 C 0.77007 0.04498 0.46558 0.0
C1621 C 0.7756 0.07446 0.46681 0.0
C1622 C 0.74263 0.03436 0.46913 0.0
C1623 C 0.72026 0.05309 0.47366 0.0
C1624 C 0.72561 0.08258 0.47428 0.0
H1625 H 0.56646 0.03411 0.53664 0.0
H1626 H 0.61407 0.04444 0.52469 0.0
C1627 C 0.75298 0.09315 0.47089 0.0
C1628 C 0.69184 0.04197 0.47916 0.0
H1629 H 0.62059 0.04651 0.46908 0.0
C1630 C 0.6899 0.02554 0.49531 0.0
C1631 C 0.66661 0.04902 0.46934 0.0
C1632 C 0.66753 0.06566 0.45153 0.0
C1633 C 0.66331 0.01687 0.50226 0.0
C1634 C 0.63801 0.02504 0.49289 0.0
C1635 C 0.64 0.04051 0.47635 0.0
C1636 C 0.60926 0.01827 0.50026 0.0
C1637 C 0.66247 0.99917 0.51964 0.0
C1638 C 0.59058 1.00044 0.49037 0.0
C1639 C 0.56338 0.99428 0.49724 0.0
C1640 C 0.55414 1.00609 0.51407 0.0
C1641 C 0.57294 0.02418 0.52384 0.0
C1642 C 0.60018 0.03019 0.517 0.0
H1643 H 0.6834 0.98888 0.52257 0.0
H1644 H 0.65714 0.01319 0.53148 0.0
H1645 H 0.64583 0.98231 0.51862 0.0
H1646 H 0.59715 0.99107 0.47741 0.0
H1647 H 0.54974 0.97994 0.48944 0.0
H1648 H 0.20876 0.2048 0.48559 0.0
H1649 H 0.22181 0.15797 0.49822 0.0
H1650 H 0.30858 0.17032 0.48035 0.0
H1651 H 0.29587 0.21736 0.46799 0.0
H1652 H 0.24596 0.11023 0.47931 0.0
H1653 H 0.31693 0.14914 0.53549 0.0
H1654 H 0.2917 0.17209 0.52373 0.0
H1655 H 0.32515 0.16328 0.5131 0.0
C1656 C 0.23069 0.19768 0.4845 0.0
C1657 C 0.2513 0.21494 0.47584 0.0
C1658 C 0.23807 0.17084 0.49165 0.0
C1659 C 0.26625 0.16082 0.49048 0.0
C1660 C 0.2868 0.17782 0.48168 0.0
H1661 H 0.36479 0.01182 0.5141 0.0
H1662 H 0.34541 0.0591 0.50748 0.0
C1663 C 0.27943 0.20459 0.47444 0.0
C1664 C 0.27411 0.13232 0.49805 0.0
H1665 H 0.31859 0.0993 0.52891 0.0
C1666 C 0.26159 0.10779 0.4903 0.0
C1667 C 0.29444 0.12922 0.51242 0.0
C1668 C 0.30769 0.15481 0.52182 0.0
C1669 C 0.26982 0.0802 0.49596 0.0
C1670 C 0.29068 0.07707 0.51005 0.0
C1671 C 0.30258 0.10167 0.51814 0.0
C1672 C 0.30222 0.0486 0.51549 0.0
C1673 C 0.25709 0.05466 0.48619 0.0
C1674 C 0.28458 0.02703 0.52272 0.0
C1675 C 0.29567 0.99974 0.52652 0.0
C1676 C 0.3246 0.9937 0.52319 0.0
C1677 C 0.34238 0.01573 0.51674 0.0
C1678 C 0.33133 0.04283 0.51295 0.0
H1679 H 0.2461 0.06079 0.47315 0.0
H1680 H 0.27384 0.03864 0.48297 0.0
H1681 H 0.24116 0.04436 0.4953 0.0
H1682 H 0.26216 0.03117 0.52518 0.0
H1683 H 0.28149 0.98322 0.53154 0.0
H1684 H 0.06654 0.02074 0.20059 0.0
H1685 H 0.11362 0.0337 0.21279 0.0
H1686 H 0.09168 0.9972 0.26543 0.0
H1687 H 0.04422 0.98492 0.25353 0.0
H1688 H 0.11712 0.05038 0.26864 0.0
H1689 H 0.18087 0.9802 0.22305 0.0
H1690 H 0.15697 1.00343 0.2107 0.0
H1691 H 0.14273 0.97628 0.22562 0.0
C1692 C 0.07163 0.01559 0.2148 0.0
C1693 C 0.05155 1.00165 0.22603 0.0
C1694 C 0.09872 0.02272 0.22169 0.0
C1695 C 0.1064 0.01597 0.23993 0.0
C1696 C 0.08634 1.00237 0.25125 0.0
H1697 H 0.28347 0.03255 0.28025 0.0
H1698 H 0.23541 0.01341 0.27404 0.0
C1699 C 0.05926 0.9952 0.24437 0.0
C1700 C 0.13505 0.02387 0.24735 0.0
H1701 H 0.20664 0.01574 0.23998 0.0
C1702 C 0.13669 0.0426 0.26248 0.0
C1703 C 0.16062 0.01338 0.23952 0.0
C1704 C 0.16032 0.99198 0.22394 0.0
C1705 C 0.16315 0.05196 0.2695 0.0
C1706 C 0.18868 0.04262 0.26105 0.0
C1707 C 0.18708 0.02304 0.24639 0.0
C1708 C 0.21711 0.05427 0.26641 0.0
C1709 C 0.16352 0.07186 0.28588 0.0
C1710 C 0.22273 0.08354 0.2643 0.0
C1711 C 0.25 0.09443 0.26782 0.0
C1712 C 0.27236 0.07628 0.27345 0.0
C1713 C 0.26662 0.04707 0.27604 0.0
C1714 C 0.23923 0.03611 0.27243 0.0
H1715 H 0.14358 0.07007 0.29403 0.0
H1716 H 0.18204 0.06738 0.29507 0.0
H1717 H 0.16526 0.09424 0.28093 0.0
H1718 H 0.20623 0.09788 0.25934 0.0
H1719 H 0.25378 0.11702 0.26561 0.0
H1720 H 0.2322 0.03885 1.03059 0.0
H1721 H 0.25144 0.99084 1.02445 0.0
H1722 H 0.16758 0.96217 1.00787 0.0
H1723 H 0.14831 0.00959 1.01416 0.0
H1724 H 0.19657 0.92232 1.02938 0.0
H1725 H 0.26348 0.96164 0.97152 0.0
H1726 H 0.26955 0.97848 0.99349 0.0
H1727 H 0.2359 0.98319 0.98186 0.0
C1728 C 0.21786 0.02214 1.02591 0.0
C1729 C 0.18881 0.028 1.02272 0.0
C1730 C 0.22891 0.99482 1.02226 0.0
C1731 C 0.21103 0.97307 1.01538 0.0
C1732 C 0.1818 0.97862 1.01309 0.0
H1733 H 0.24213 0.82341 0.94966 0.0
H1734 H 0.22948 0.8701 0.96246 0.0
C1735 C 0.17082 1.00577 1.01668 0.0
C1736 C 0.22254 0.94479 1.00974 0.0
H1737 H 0.26461 0.91223 0.9776 0.0
C1738 C 0.21168 0.92009 1.01819 0.0
C1739 C 0.24188 0.94193 0.99492 0.0
C1740 C 0.25328 0.96764 0.98477 0.0
C1741 C 0.21933 0.89263 1.01207 0.0
C1742 C 0.23872 0.88977 0.99728 0.0
C1743 C 0.24988 0.91447 0.989 0.0
C1744 C 0.24671 0.86139 0.98965 0.0
C1745 C 0.20572 0.86693 1.02103 0.0
C1746 C 0.26083 0.84104 1.00062 0.0
C1747 C 0.26787 0.81422 0.99338 0.0
C1748 C 0.26111 0.80723 0.97496 0.0
C1749 C 0.24727 0.82786 0.96396 0.0
C1750 C 0.24023 0.85466 0.97121 0.0
H1751 H 0.18648 0.87286 1.02908 0.0
H1752 H 0.1995 0.85077 1.01053 0.0
H1753 H 0.2213 0.85689 1.03063 0.0
H1754 H 0.26644 0.8459 1.01479 0.0
H1755 H 0.2783 0.79882 1.00231 0.0
H1756 H 0.4695 0.97977 0.73831 0.0
H1757 H 0.42175 0.96822 0.7498 0.0
H1758 H 0.38732 0.04187 0.72173 0.0
H1759 H 0.43496 0.05347 0.71001 0.0
H1760 H 0.38203 0.00627 0.7713 0.0
H1761 H 0.33994 0.97011 0.70314 0.0
H1762 H 0.37774 0.97162 0.7082 0.0
H1763 H 0.3582 1.00396 0.70392 0.0
C1764 C 0.45174 0.99343 0.73449 0.0
C1765 C 0.45602 0.01745 0.72314 0.0
C1766 C 0.42454 0.98692 0.74119 0.0
C1767 C 0.40102 1.00411 0.73654 0.0
C1768 C 0.40519 0.02826 0.7254 0.0
H1769 H 0.2248 0.98877 0.77771 0.0
H1770 H 0.27227 0.00831 0.77041 0.0
C1771 C 0.43244 0.03492 0.7188 0.0
C1772 C 0.37204 0.99626 0.743 0.0
H1773 H 0.30835 0.96871 0.7282 0.0
C1774 C 0.3658 0.99828 0.76189 0.0
C1775 C 0.35103 0.98568 0.73069 0.0
C1776 C 0.35692 0.98247 0.71035 0.0
C1777 C 0.33907 0.98978 0.76879 0.0
C1778 C 0.31819 0.97898 0.75647 0.0
C1779 C 0.32438 0.97721 0.73758 0.0
C1780 C 0.2905 0.96742 0.76296 0.0
C1781 C 0.33353 0.99152 0.78922 0.0
C1782 C 0.28528 0.93801 0.76151 0.0
C1783 C 0.25846 0.92688 0.76574 0.0
C1784 C 0.23612 0.94496 0.77133 0.0
C1785 C 0.24164 0.97433 0.77352 0.0
C1786 C 0.26869 0.98549 0.76933 0.0
H1787 H 0.353 0.99743 0.79717 0.0
H1788 H 0.31681 0.00782 0.79185 0.0
H1789 H 0.32544 0.97069 0.79438 0.0
H1790 H 0.30181 0.92371 0.75664 0.0
H1791 H 0.25494 0.90415 0.76396 0.0
H1792 H 0.26663 0.16312 0.22267 0.0
H1793 H 0.23971 0.15742 0.19382 0.0
H1794 H 0.30142 0.09587 0.17492 0.0
H1795 H 0.32876 0.10195 0.20359 0.0
H1796 H 0.28682 0.12877 0.14689 0.0
H1797 H 0.18596 0.09488 0.17945 0.0
H1798 H 0.19749 0.12931 0.18742 0.0
H1799 H 0.21886 0.09818 0.19233 0.0
C1800 C 0.2747 0.14848 0.21236 0.0
C1801 C 0.30015 0.13308 0.21573 0.0
C1802 C 0.25893 0.14492 0.19581 0.0
C1803 C 0.26779 0.12559 0.18202 0.0
C1804 C 0.29364 0.11079 0.18516 0.0
H1805 H 0.15793 0.06562 1.08851 0.0
H1806 H 0.18419 0.06997 1.11796 0.0
C1807 C 0.30945 0.11437 0.20169 0.0
C1808 C 0.25058 0.12114 0.16432 0.0
H1809 H 0.18345 0.10583 0.14733 0.0
C1810 C 0.26423 0.12369 0.14711 0.0
C1811 C 0.22104 0.11386 0.16415 0.0
C1812 C 0.20502 0.10858 0.18181 0.0
C1813 C 0.24942 0.11998 0.13014 0.0
C1814 C 0.21959 0.11406 0.12995 0.0
C1815 C 0.20607 0.11074 0.14715 0.0
C1816 C 0.20226 0.1116 1.11215 0.0
C1817 C 0.26627 0.12184 1.11251 0.0
C1818 C 0.20253 0.13369 1.09895 0.0
C1819 C 0.18755 0.1312 1.0821 0.0
C1820 C 0.17127 0.10665 1.07773 0.0
C1821 C 0.17007 0.08489 1.0912 0.0
C1822 C 0.18525 0.08737 1.10814 0.0
H1823 H 0.28925 0.11709 1.11492 0.0
H1824 H 0.25794 0.10677 1.10193 0.0
H1825 H 0.26475 0.14389 1.10695 0.0
H1826 H 0.21449 0.15308 1.10163 0.0
H1827 H 0.18901 0.14868 1.07236 0.0
H1828 H 0.61728 0.439 0.3216 0.0
H1829 H 0.61273 0.46524 0.35049 0.0
H1830 H 0.69682 0.43761 0.36699 0.0
H1831 H 0.70139 0.41066 0.33792 0.0
H1832 H 0.6607 0.43655 0.39647 0.0
H1833 H 0.64794 0.54135 0.36228 0.0
H1834 H 0.62169 0.51602 0.35462 0.0
H1835 H 0.6589 0.50979 0.34989 0.0
C1836 C 0.63492 0.43827 0.33131 0.0
C1837 C 0.65983 0.42256 0.32712 0.0
C1838 C 0.63234 0.45367 0.34793 0.0
C1839 C 0.65465 0.45435 0.36103 0.0
C1840 C 0.67924 0.43789 0.35721 0.0
H1841 H 0.66416 0.58299 0.45063 0.0
H1842 H 0.67027 0.55497 0.42236 0.0
C1843 C 0.68184 0.42233 0.34051 0.0
C1844 C 0.65207 0.47216 0.37852 0.0
H1845 H 0.63677 0.53978 0.3943 0.0
C1846 C 0.65557 0.45914 0.39592 0.0
C1847 C 0.64584 0.50193 0.37818 0.0
C1848 C 0.64367 0.51819 0.36025 0.0
C1849 C 0.65232 0.47459 0.41266 0.0
C1850 C 0.64479 0.50407 0.4123 0.0
C1851 C 0.64206 0.51722 0.39489 0.0
C1852 C 0.64025 0.52173 0.42968 0.0
C1853 C 0.65769 0.45914 0.43061 0.0
C1854 C 0.62072 0.5133 0.4434 0.0
C1855 C 0.6171 0.52947 0.4597 0.0
C1856 C 0.63269 0.55488 0.46286 0.0
C1857 C 0.6516 0.56374 0.44887 0.0
C1858 C 0.6552 0.54755 0.43258 0.0
H1859 H 0.67137 0.43999 0.42861 0.0
H1860 H 0.66813 0.47336 0.44089 0.0
H1861 H 0.63701 0.45183 0.43632 0.0
H1862 H 0.60815 0.49408 0.44155 0.0
H1863 H 0.60232 0.52174 0.46999 0.0
H1864 H 0.24598 0.85949 0.72286 0.0
H1865 H 0.27336 0.86581 0.69451 0.0
H1866 H 0.20645 0.91898 0.6722 0.0
H1867 H 0.17861 0.91216 0.70043 0.0
H1868 H 0.22583 0.8861 0.64562 0.0
H1869 H 0.32107 0.93237 0.6796 0.0
H1870 H 0.31266 0.89764 0.68848 0.0
H1871 H 0.28802 0.92676 0.69173 0.0
C1872 C 0.23686 0.87238 0.71191 0.0
C1873 C 0.2098 0.88523 0.71418 0.0
C1874 C 0.25287 0.87634 0.69565 0.0
C1875 C 0.24268 0.8936 0.68106 0.0
C1876 C 0.21527 0.90575 0.68309 0.0
H1877 H 0.35178 0.95689 0.58911 0.0
H1878 H 0.32447 0.95207 0.61789 0.0
C1879 C 0.19917 0.90173 0.69935 0.0
C1880 C 0.26022 0.89856 0.66371 0.0
H1881 H 0.32643 0.91902 0.64806 0.0
C1882 C 0.24779 0.89338 0.64627 0.0
C1883 C 0.28889 0.90871 0.66409 0.0
C1884 C 0.30337 0.917 0.68196 0.0
C1885 C 0.26306 0.89724 0.6296 0.0
C1886 C 0.29219 0.90596 0.63002 0.0
C1887 C 0.3044 0.91192 0.64743 0.0
C1888 C 0.31017 0.90877 0.61266 0.0
C1889 C 0.24736 0.89252 0.61162 0.0
C1890 C 0.3124 0.88598 0.60004 0.0
C1891 C 0.32794 0.88876 0.58354 0.0
C1892 C 0.34237 0.91432 0.57902 0.0
C1893 C 0.34114 0.93684 0.59196 0.0
C1894 C 0.32536 0.93408 0.60851 0.0
H1895 H 0.22395 0.8954 0.61327 0.0
H1896 H 0.25488 0.90743 0.60077 0.0
H1897 H 0.25105 0.87028 0.60687 0.0
H1898 H 0.30197 0.86582 0.60289 0.0
H1899 H 0.32839 0.87071 0.57418 0.0
H1900 H 0.89347 0.56673 0.81859 0.0
H1901 H 0.89748 0.5413 0.84782 0.0
H1902 H 0.82428 0.5869 0.86834 0.0
H1903 H 0.81955 0.61185 0.83862 0.0
H1904 H 0.90881 0.55437 0.88127 0.0
H1905 H 0.79974 0.50927 0.88298 0.0
H1906 H 0.81345 0.52737 0.86295 0.0
H1907 H 0.79965 0.54757 0.8821 0.0
C1908 C 0.87807 0.57151 0.82924 0.0
C1909 C 0.85606 0.59158 0.82591 0.0
C1910 C 0.88044 0.55677 0.84616 0.0
C1911 C 0.86095 0.56134 0.86061 0.0
C1912 C 0.83927 0.58193 0.85751 0.0
H1913 H 0.90154 0.50375 0.97476 0.0
H1914 H 0.89606 0.53051 0.94602 0.0
C1915 C 0.83673 0.5966 0.84043 0.0
C1916 C 0.86398 0.54488 0.87874 0.0
H1917 H 0.82785 0.50327 0.91008 0.0
C1918 C 0.89097 0.54323 0.88746 0.0
C1919 C 0.84114 0.52958 0.88708 0.0
C1920 C 0.81195 0.52823 0.87822 0.0
C1921 C 0.89567 0.52736 0.9039 0.0
C1922 C 0.87263 0.51295 0.91261 0.0
C1923 C 0.84568 0.51433 0.90382 0.0
C1924 C 0.87606 0.4962 0.93059 0.0
C1925 C 0.92577 0.52552 0.91136 0.0
C1926 C 0.86598 0.46785 0.93228 0.0
C1927 C 0.86882 0.45241 0.94901 0.0
C1928 C 0.88189 0.46471 0.96473 0.0
C1929 C 0.89189 0.49308 0.96302 0.0
C1930 C 0.88884 0.50854 0.94638 0.0
H1931 H 0.94177 0.52922 0.90036 0.0
H1932 H 0.92891 0.54228 0.92201 0.0
H1933 H 0.93005 0.50434 0.91771 0.0
H1934 H 0.85587 0.45749 0.92059 0.0
H1935 H 0.86047 0.43084 0.94965 0.0
H1936 H 0.80469 0.87889 0.1721 0.0
H1937 H 0.77984 0.87437 0.14267 0.0
H1938 H 0.83532 0.9378 0.119 0.0
H1939 H 0.86008 0.94304 0.14892 0.0
H1940 H 0.78215 0.94672 1.10676 0.0
H1941 H 0.80251 0.8314 1.09787 0.0
H1942 H 0.7845 0.83839 0.11913 0.0
H1943 H 0.82003 0.85211 1.1156 0.0
C1944 C 0.81197 0.89186 0.1607 0.0
C1945 C 0.8349 0.91119 0.16317 0.0
C1946 C 0.79766 0.88905 0.14362 0.0
C1947 C 0.8058 0.90512 0.12808 0.0
C1948 C 0.82846 0.9248 0.13051 0.0
H1949 H 0.7463 0.86094 1.01523 0.0
H1950 H 0.77286 0.86678 1.04418 0.0
C1951 C 0.8428 0.92775 0.14773 0.0
C1952 C 0.79025 0.90167 1.10964 0.0
H1953 H 0.76653 0.85155 1.07834 0.0
C1954 C 0.77893 0.92585 1.10057 0.0
C1955 C 0.78608 0.87463 1.101 0.0
C1956 C 0.79918 0.84771 1.10879 0.0
C1957 C 0.76332 0.92375 1.08373 0.0
C1958 C 0.75796 0.89655 1.07558 0.0
C1959 C 0.7699 0.87246 1.08443 0.0
C1960 C 0.74086 0.89259 1.05775 0.0
C1961 C 0.75342 0.95102 1.07462 0.0
C1962 C 0.7133 0.90438 1.05533 0.0
C1963 C 0.69794 0.9011 1.03858 0.0
C1964 C 0.70933 0.88552 1.02363 0.0
C1965 C 0.7365 0.87299 1.02627 0.0
C1966 C 0.75189 0.87641 1.04297 0.0
H1967 H 0.76652 0.96961 1.07909 0.0
H1968 H 0.75442 0.9494 1.05936 0.0
H1969 H 0.73099 0.95534 1.07862 0.0
H1970 H 0.70348 0.9162 1.06645 0.0
H1971 H 0.67716 0.9111 1.0373 0.0
H1972 H 0.30926 0.6067 0.8987 0.0
H1973 H 0.31371 0.57992 0.86956 0.0
H1974 H 0.39804 0.55256 0.88572 0.0
H1975 H 0.39361 0.57861 0.91467 0.0
H1976 H 0.34942 0.58139 0.83997 0.0
H1977 H 0.36346 0.47637 0.87363 0.0
H1978 H 0.35242 0.50769 0.88622 0.0
H1979 H 0.38962 0.50178 0.88131 0.0
C1980 C 0.32882 0.5951 0.89603 0.0
C1981 C 0.35094 0.59491 0.90935 0.0
C1982 C 0.33136 0.57964 0.87928 0.0
C1983 C 0.356 0.56331 0.87533 0.0
C1984 C 0.37839 0.564 0.88837 0.0
H1985 H 0.40891 0.49833 0.76602 0.0
H1986 H 0.40253 0.52534 0.79463 0.0
C1987 C 0.37587 0.5793 0.90503 0.0
C1988 C 0.35858 0.54569 0.85775 0.0
H1989 H 0.37458 0.47844 0.84158 0.0
C1990 C 0.35481 0.55885 0.84041 0.0
C1991 C 0.36514 0.51598 0.85792 0.0
C1992 C 0.3676 0.49953 0.87575 0.0
C1993 C 0.35814 0.54364 0.82359 0.0
C1994 C 0.36605 0.51425 0.82378 0.0
C1995 C 0.36901 0.50093 0.84112 0.0
C1996 C 0.37091 0.49691 0.80628 0.0
C1997 C 0.35248 0.55925 0.80573 0.0
C1998 C 0.35644 0.47086 0.80317 0.0
C1999 C 0.36037 0.45502 0.78675 0.0
C2000 C 0.37914 0.46449 0.77285 0.0
C2001 C 0.39425 0.49012 0.77623 0.0
C2002 C 0.39031 0.50593 0.79264 0.0
H2003 H 0.33845 0.57811 0.80785 0.0
H2004 H 0.37302 0.56705 0.80007 0.0
H2005 H 0.34231 0.54499 0.79536 0.0
H2006 H 0.3415 0.46298 0.81332 0.0
H2007 H 0.34819 0.43556 0.78482 0.0
H2008 H 0.64913 0.06952 0.64658 0.0
H2009 H 0.67472 0.07448 0.61721 0.0
H2010 H 0.72201 0.1457 0.63954 0.0
H2011 H 0.6959 0.14161 0.66833 0.0
H2012 H 0.71008 0.15867 0.60649 0.0
H2013 H 0.75149 0.04814 0.60279 0.0
H2014 H 0.71323 0.04929 0.60316 0.0
H2015 H 0.73339 0.06153 0.62289 0.0
C2016 C 0.6649 0.0863 0.64522 0.0
C2017 C 0.67017 0.10511 0.66008 0.0
C2018 C 0.67992 0.08897 0.62836 0.0
C2019 C 0.70114 0.11017 0.6259 0.0
C2020 C 0.70603 0.12907 0.64071 0.0
H2021 H 0.83343 0.10823 0.53897 0.0
H2022 H 0.80572 0.10342 0.56743 0.0
C2023 C 0.69089 0.12664 0.65738 0.0
C2024 C 0.71799 0.11339 0.60805 0.0
H2025 H 0.75903 0.07728 0.57646 0.0
C2026 C 0.72076 0.14073 0.60003 0.0
C2027 C 0.73267 0.09041 0.5994 0.0
C2028 C 0.73285 0.06076 0.60759 0.0
C2029 C 0.73727 0.14568 0.584 0.0
C2030 C 0.75106 0.12253 0.57494 0.0
C2031 C 0.74847 0.0952 0.58301 0.0
C2032 C 0.76849 0.12622 0.55739 0.0
C2033 C 0.74052 0.1761 0.5774 0.0
C2034 C 0.75735 0.14059 0.54181 0.0
C2035 C 0.77349 0.14383 0.52554 0.0
C2036 C 0.80127 0.13235 0.52402 0.0
C2037 C 0.81234 0.1177 0.53951 0.0
C2038 C 0.79629 0.11475 0.55588 0.0
H2039 H 0.73722 0.19162 0.5888 0.0
H2040 H 0.76198 0.17988 0.57144 0.0
H2041 H 0.72414 0.18055 0.56665 0.0
H2042 H 0.7358 0.14891 0.54202 0.0
H2043 H 0.76377 0.15474 0.51392 0.0
H2044 H 0.1271 0.46041 0.42028 0.0
H2045 H 0.1223 0.4848 0.39079 0.0
H2046 H 0.184 0.42763 0.36691 0.0
H2047 H 0.18959 0.40337 0.39689 0.0
H2048 H 0.19358 0.48003 0.35422 0.0
H2049 H 0.07769 0.46235 0.3465 0.0
H2050 H 0.08562 0.48072 0.36761 0.0
H2051 H 0.09844 0.44477 0.36418 0.0
C2052 C 0.13962 0.45266 0.40881 0.0
C2053 C 0.15858 0.42942 0.41124 0.0
C2054 C 0.13664 0.4667 0.3917 0.0
C2055 C 0.15212 0.45794 0.37609 0.0
C2056 C 0.17145 0.43496 0.37848 0.0
H2057 H 0.10625 0.51756 0.26349 0.0
H2058 H 0.11236 0.49073 0.29226 0.0
C2059 C 0.1746 0.42092 0.39573 0.0
C2060 C 0.14847 0.47321 0.35762 0.0
H2061 H 0.09799 0.49779 0.32677 0.0
C2062 C 0.17262 0.48372 0.34825 0.0
C2063 C 0.12129 0.47791 0.34923 0.0
C2064 C 0.09434 0.46557 0.35729 0.0
C2065 C 0.17035 0.49912 0.33139 0.0
C2066 C 0.14305 0.50514 0.32355 0.0
C2067 C 0.11899 0.49394 0.33266 0.0
C2068 C 0.13895 0.5223 0.30583 0.0
C2069 C 0.1975 0.50811 0.32192 0.0
C2070 C 0.15112 0.54969 0.30352 0.0
C2071 C 0.14765 0.56521 0.2869 0.0
C2072 C 0.13155 0.55414 0.27199 0.0
C2073 C 0.11869 0.52711 0.27452 0.0
C2074 C 0.12227 0.51157 0.2911 0.0
H2075 H 0.21588 0.49459 0.32623 0.0
H2076 H 0.19527 0.50683 0.30668 0.0
H2077 H 0.20255 0.53052 0.32574 0.0
H2078 H 0.16337 0.55926 0.31462 0.0
H2079 H 0.15789 0.58587 0.28571 0.0
H2080 H 0.68995 0.64916 0.57028 0.0
H2081 H 0.71606 0.65305 0.59939 0.0
H2082 H 0.68612 0.56964 0.61535 0.0
H2083 H 0.65931 0.56578 0.58611 0.0
H2084 H 0.68561 0.60518 0.64492 0.0
H2085 H 0.79106 0.61659 0.61198 0.0
H2086 H 0.76641 0.6435 0.60436 0.0
H2087 H 0.75955 0.60647 0.59913 0.0
C2088 C 0.6887 0.63154 0.57992 0.0
C2089 C 0.67234 0.60704 0.57553 0.0
C2090 C 0.70404 0.63372 0.59666 0.0
C2091 C 0.70401 0.6114 0.60971 0.0
C2092 C 0.68697 0.58722 0.60566 0.0
H2093 H 0.83112 0.59849 0.70065 0.0
H2094 H 0.8035 0.59319 0.67199 0.0
C2095 C 0.67148 0.58503 0.58884 0.0
C2096 C 0.72159 0.6135 0.62742 0.0
H2097 H 0.78917 0.62725 0.6441 0.0
C2098 C 0.70827 0.60992 0.64465 0.0
C2099 C 0.75146 0.61919 0.62747 0.0
C2100 C 0.76805 0.62136 0.60975 0.0
C2101 C 0.72349 0.61255 0.66159 0.0
C2102 C 0.75308 0.61954 0.66164 0.0
C2103 C 0.76654 0.62236 0.6444 0.0
C2104 C 0.77051 0.62349 0.67929 0.0
C2105 C 0.70765 0.6071 0.6793 0.0
C2106 C 0.76208 0.64286 0.69317 0.0
C2107 C 0.778 0.64598 0.70968 0.0
C2108 C 0.80316 0.63006 0.71294 0.0
C2109 C 0.81203 0.61128 0.69883 0.0
C2110 C 0.79608 0.60815 0.68231 0.0
H2111 H 0.68837 0.59371 0.67693 0.0
H2112 H 0.72151 0.59628 0.68964 0.0
H2113 H 0.70051 0.6278 0.68515 0.0
H2114 H 0.74308 0.65572 0.69126 0.0
H2115 H 0.77027 0.66072 0.72004 0.0
H2116 H 0.19766 0.9126 0.838 0.0
H2117 H 0.19307 0.93823 0.86746 0.0
H2118 H 0.11392 0.97539 0.84861 0.0
H2119 H 0.1188 0.95064 0.81921 0.0
H2120 H 0.14244 0.01534 0.86482 0.0
H2121 H 0.14709 0.92287 0.91223 0.0
H2122 H 0.17822 0.92565 0.89806 0.0
H2123 H 0.14396 0.91857 0.88759 0.0
C2124 C 0.17911 0.92598 0.84017 0.0
C2125 C 0.1586 0.92917 0.82597 0.0
C2126 C 0.17637 0.94065 0.85722 0.0
C2127 C 0.15282 0.95878 0.86079 0.0
C2128 C 0.13235 0.96177 0.84658 0.0
H2129 H 0.10102 0.02284 0.97073 0.0
H2130 H 0.10646 0.99685 0.94157 0.0
C2131 C 0.13516 0.94734 0.8296 0.0
C2132 C 0.14961 0.97538 0.87882 0.0
H2133 H 0.14871 0.96886 0.9261 0.0
C2134 C 0.14382 1.00498 0.87818 0.0
C2135 C 0.15085 0.96237 0.89655 0.0
C2136 C 0.15507 0.93059 0.89872 0.0
C2137 C 0.13954 0.02161 0.89432 0.0
C2138 C 0.14171 0.00881 0.91208 0.0
C2139 C 0.14724 0.97915 0.91274 0.0
C2140 C 0.13788 0.02554 0.92999 0.0
C2141 C 0.13175 0.05271 0.89202 0.0
C2142 C 0.15357 0.05069 0.93374 0.0
C2143 C 0.15019 0.0659 0.95045 0.0
C2144 C 0.13124 0.05642 0.96425 0.0
C2145 C 0.11561 0.03121 0.96054 0.0
C2146 C 0.11889 0.01609 0.94377 0.0
H2147 H 0.12204 0.05689 0.87826 0.0
H2148 H 0.11651 0.05978 0.90277 0.0
H2149 H 0.15138 0.06591 0.89314 0.0
H2150 H 0.16903 0.05839 0.92388 0.0
H2151 H 0.16307 0.08483 0.95272 0.0
H2152 H 0.85455 0.45232 1.08883 0.0
H2153 H 0.82896 0.4473 1.1182 0.0
H2154 H 0.79427 0.36681 1.09978 0.0
H2155 H 0.81901 0.37206 1.0705 0.0
H2156 H 0.75333 0.39489 1.1153 0.0
H2157 H 0.84507 0.40191 0.1635 0.0
H2158 H 0.84174 0.4328 0.149 0.0
H2159 H 0.8497 0.39855 0.13892 0.0
C2160 C 0.84176 0.43338 1.0911 0.0
C2161 C 0.83922 0.4126 1.07705 0.0
C2162 C 0.82709 0.43039 1.10807 0.0
C2163 C 0.80963 0.40636 1.11171 0.0
C2164 C 0.80736 0.38561 1.09769 0.0
H2165 H 0.74477 0.35317 0.22109 0.0
H2166 H 0.77111 0.35901 0.19217 0.0
C2167 C 0.82178 0.38865 1.08078 0.0
C2168 C 0.79293 0.40294 0.12961 0.0
H2169 H 0.79893 0.40238 0.17695 0.0
C2170 C 0.76349 0.39655 0.12873 0.0
C2171 C 0.8057 0.40456 0.14744 0.0
C2172 C 0.83732 0.40954 0.14984 0.0
C2173 C 0.74678 0.39203 0.14475 0.0
C2174 C 0.75934 0.39452 0.1626 0.0
C2175 C 0.78884 0.40064 0.1635 0.0
C2176 C 0.74247 0.39047 0.18035 0.0
C2177 C 0.71587 0.3837 0.14225 0.0
C2178 C 0.71726 0.40606 0.18386 0.0
C2179 C 0.70189 0.40251 0.20044 0.0
C2180 C 0.71124 0.38341 0.21431 0.0
C2181 C 0.7365 0.36785 0.21082 0.0
C2182 C 0.75182 0.37136 0.1942 0.0
H2183 H 0.71195 0.37399 0.12847 0.0
H2184 H 0.70903 0.36827 0.15298 0.0
H2185 H 0.70234 0.4031 0.14328 0.0
H2186 H 0.70964 0.42157 0.17392 0.0
H2187 H 0.68293 0.41533 0.20253 0.0
H2188 H 0.359 0.93332 0.45204 0.0
H2189 H 0.35345 0.96023 0.42318 0.0
H2190 H 0.39758 0.03176 0.44766 0.0
H2191 H 0.40404 1.00466 0.47618 0.0
H2192 H 0.32628 0.00657 0.41353 0.0
H2193 H 0.44011 0.0296 0.4009 0.0
H2194 H 0.42885 1.00503 0.41855 0.0
H2195 H 0.42904 0.043 0.42287 0.0
C2196 C 0.368 0.9546 0.45122 0.0
C2197 C 0.38244 0.96639 0.46659 0.0
C2198 C 0.36463 0.97019 0.43462 0.0
C2199 C 0.37551 0.9982 0.43272 0.0
C2200 C 0.38969 0.01003 0.44817 0.0
H2201 H 0.31673 0.11517 0.34201 0.0
H2202 H 0.32221 0.09022 0.37171 0.0
C2203 C 0.39331 0.99438 0.46468 0.0
C2204 C 0.3714 0.01514 0.41492 0.0
H2205 H 0.40666 0.05584 0.38281 0.0
C2206 C 0.34398 0.01722 0.40683 0.0
C2207 C 0.39426 0.02902 0.40568 0.0
C2208 C 0.42474 0.02633 0.41233 0.0
C2209 C 0.33882 0.03262 0.39024 0.0
C2210 C 0.36151 0.04738 0.38138 0.0
C2211 C 0.38894 0.0451 0.38942 0.0
C2212 C 0.3579 0.06378 0.36331 0.0
C2213 C 0.30911 0.03198 0.38209 0.0
C2214 C 0.37658 0.05865 0.34852 0.0
C2215 C 0.37383 0.07338 0.33166 0.0
C2216 C 0.35219 0.09398 0.32871 0.0
C2217 C 0.33359 0.0995 0.34354 0.0
C2218 C 0.33656 0.08485 0.36059 0.0
H2219 H 0.29672 0.01335 0.38718 0.0
H2220 H 0.29754 0.05164 0.38623 0.0
H2221 H 0.30972 0.03104 0.3668 0.0
H2222 H 0.39331 0.04277 0.34988 0.0
H2223 H 0.38866 0.06819 0.32075 0.0
H2224 H 0.3289 0.37014 0.66387 0.0
H2225 H 0.30308 0.36527 0.63473 0.0
H2226 H 0.32406 0.45232 0.62088 0.0
H2227 H 0.35069 0.45711 0.65007 0.0
H2228 H 0.25706 0.38969 0.62189 0.0
H2229 H 0.34336 0.41559 0.57283 0.0
H2230 H 0.35024 0.40949 0.59701 0.0
H2231 H 0.337 0.44358 0.58922 0.0
C2232 C 0.32845 0.38828 0.65459 0.0
C2233 C 0.34232 0.41402 0.65952 0.0
C2234 C 0.31341 0.38545 0.6378 0.0
C2235 C 0.31152 0.40821 0.62513 0.0
C2236 C 0.32549 0.434 0.62994 0.0
H2237 H 0.17879 0.41118 0.53678 0.0
H2238 H 0.20609 0.41757 0.56541 0.0
C2239 C 0.34076 0.43681 0.6468 0.0
C2240 C 0.29411 0.40486 0.60744 0.0
H2241 H 0.29666 0.41116 0.5602 0.0
C2242 C 0.26588 0.39443 0.60844 0.0
C2243 C 0.30524 0.41053 0.58959 0.0
C2244 C 0.33569 0.42014 0.58701 0.0
C2245 C 0.24877 0.38974 0.59251 0.0
C2246 C 0.2596 0.39615 0.5747 0.0
C2247 C 0.2879 0.40638 0.57366 0.0
C2248 C 0.24228 0.39188 0.55707 0.0
C2249 C 0.21943 0.37703 0.595 0.0
C2250 C 0.2532 0.37573 0.54227 0.0
C2251 C 0.23754 0.37215 0.5257 0.0
C2252 C 0.21034 0.38468 0.52323 0.0
C2253 C 0.19935 0.40074 0.53808 0.0
C2254 C 0.21506 0.40437 0.55463 0.0
H2255 H 0.2177 0.36538 0.6083 0.0
H2256 H 0.20337 0.39447 0.59507 0.0
H2257 H 0.21403 0.36203 0.58362 0.0
H2258 H 0.27403 0.36582 0.54349 0.0
H2259 H 0.24708 0.35988 0.51466 0.0
H2260 H 0.81979 0.11131 0.39924 0.0
H2261 H 0.82463 0.08553 0.36986 0.0
H2262 H 0.89799 0.04081 0.39146 0.0
H2263 H 0.89385 0.06702 0.42039 0.0
H2264 H 0.90909 0.05329 0.35779 0.0
H2265 H 0.80046 0.00702 0.35633 0.0
H2266 H 0.80001 0.04534 0.35681 0.0
H2267 H 0.81427 0.02578 0.37619 0.0
C2268 C 0.83705 0.09608 0.39773 0.0
C2269 C 0.85637 0.09152 0.41247 0.0
C2270 C 0.83964 0.08094 0.38086 0.0
C2271 C 0.86138 0.06035 0.37819 0.0
C2272 C 0.8809 0.05626 0.39283 0.0
H2273 H 0.8612 0.92791 0.29028 0.0
H2274 H 0.8569 0.95487 0.31923 0.0
C2275 C 0.87846 0.07145 0.40956 0.0
C2276 C 0.86439 0.04339 0.3603 0.0
H2277 H 0.82828 1.00061 0.32934 0.0
C2278 C 0.89129 0.04181 0.35167 0.0
C2279 C 0.84161 0.02763 0.35209 0.0
C2280 C 0.81255 0.02622 0.36091 0.0
C2281 C 0.89593 0.02559 0.3354 0.0
C2282 C 0.87291 0.01074 0.3268 0.0
C2283 C 0.84607 0.012 0.33553 0.0
C2284 C 0.87623 0.99375 0.30896 0.0
C2285 C 0.92593 0.02391 0.32799 0.0
C2286 C 0.88843 1.00608 0.29309 0.0
C2287 C 0.89126 0.99047 0.27651 0.0
C2288 C 0.88164 0.96194 0.27498 0.0
C2289 C 0.86922 0.94961 0.2908 0.0
C2290 C 0.86657 0.96522 0.30745 0.0
H2291 H 0.94206 0.02799 0.33899 0.0
H2292 H 0.93033 1.00265 0.32181 0.0
H2293 H 0.92874 0.0405 0.31722 0.0
H2294 H 0.89533 0.02816 0.29332 0.0
H2295 H 0.90045 1.00115 0.2647 0.0
H2296 H 0.19929 0.64048 0.16788 0.0
H2297 H 0.22455 0.64502 0.13884 0.0
H2298 H 0.17426 0.57654 1.11576 0.0
H2299 H 0.14931 0.57112 0.14542 0.0
H2300 H 0.22702 0.57059 1.10404 0.0
H2301 H 0.20136 0.68429 1.09308 0.0
H2302 H 0.21946 0.67952 1.11469 0.0
H2303 H 0.18477 0.66362 1.11105 0.0
C2304 C 0.19319 0.6264 0.15667 0.0
C2305 C 0.17169 0.60559 0.15925 0.0
C2306 C 0.20773 0.62923 0.1398 0.0
C2307 C 0.20115 0.61178 0.12452 0.0
C2308 C 0.17989 0.59064 0.12706 0.0
H2309 H 0.26275 0.6568 1.01279 0.0
H2310 H 0.23535 0.64997 1.04106 0.0
C2311 C 0.16541 0.5876 0.14411 0.0
C2312 C 0.21694 0.61534 1.10628 0.0
H2313 H 0.23955 0.6656 1.07493 0.0
C2314 C 0.22953 0.59142 1.09769 0.0
C2315 C 0.22015 0.64228 1.09737 0.0
C2316 C 0.20544 0.66879 1.10441 0.0
C2317 C 0.24551 0.59373 1.08113 0.0
C2318 C 0.2501 0.62094 1.07284 0.0
C2319 C 0.23685 0.6447 1.08117 0.0
C2320 C 0.26766 0.62523 1.05536 0.0
C2321 C 0.25658 0.56665 1.07242 0.0
C2322 C 0.29565 0.61429 1.05355 0.0
C2323 C 0.31151 0.61809 1.03716 0.0
C2324 C 0.30021 0.63344 1.02201 0.0
C2325 C 0.27255 0.64504 1.02403 0.0
C2326 C 0.25665 0.64104 1.04034 0.0
H2327 H 0.24395 0.54772 1.07676 0.0
H2328 H 0.25598 0.56797 1.05713 0.0
H2329 H 0.279 0.56313 1.07691 0.0
H2330 H 0.30546 0.60279 1.06489 0.0
H2331 H 0.33263 0.60876 1.03632 0.0
H2332 H 0.69324 0.90351 0.897 0.0
H2333 H 0.68816 0.92836 0.86723 0.0
H2334 H 0.61938 0.97876 0.8894 0.0
H2335 H 0.62362 0.95352 0.91861 0.0
H2336 H 0.60489 0.96562 0.85661 0.0
H2337 H 0.71618 1.0042 0.85127 0.0
H2338 H 0.71398 0.96597 0.85243 0.0
H2339 H 0.70289 0.98725 0.87183 0.0
C2340 C 0.67698 0.91982 0.89553 0.0
C2341 C 0.6589 0.92623 0.91048 0.0
C2342 C 0.67425 0.9344 0.87844 0.0
C2343 C 0.65368 0.95623 0.8758 0.0
C2344 C 0.63551 0.96227 0.89071 0.0
H2345 H 0.6553 0.08596 0.78669 0.0
H2346 H 0.66051 0.05904 0.81558 0.0
C2347 C 0.63802 0.94763 0.90762 0.0
C2348 C 0.65033 0.97254 0.85768 0.0
H2349 H 0.68637 0.01182 0.82513 0.0
C2350 C 0.62285 0.97568 0.84982 0.0
C2351 C 0.67336 0.98642 0.8486 0.0
C2352 C 0.7032 0.9861 0.85654 0.0
C2353 C 0.61781 0.99178 0.83354 0.0
C2354 C 0.64097 1.00479 0.82409 0.0
C2355 C 0.66844 1.00185 0.83199 0.0
C2356 C 0.63714 0.02172 0.80627 0.0
C2357 C 0.58734 0.99543 0.82708 0.0
C2358 C 0.62235 0.01023 0.79095 0.0
C2359 C 0.61892 0.0259 0.77443 0.0
C2360 C 0.63058 0.05355 0.77239 0.0
C2361 C 0.64566 0.06497 0.78763 0.0
C2362 C 0.64884 0.04937 0.80424 0.0
H2363 H 0.57205 0.99274 0.83862 0.0
H2364 H 0.58383 0.01682 0.82083 0.0
H2365 H 0.58233 0.97886 0.8166 0.0
H2366 H 0.61381 0.98876 0.79157 0.0
H2367 H 0.60768 0.0159 0.76304 0.0
loop_
_geom_bond_atom_site_label_1
_geom_bond_atom_site_label_2
_geom_bond_distance
_geom_bond_site_symmetry_2
_ccdc_geom_bond_type
Sm0 C2 2.846 . S
Sm0 O20 2.543 . S
Sm0 O21 2.450 . S
Sm0 O22 2.681 . S
Sm0 O23 2.464 . S
Sm0 O24 2.396 . S
Sm0 O28 2.386 . S
Sm0 O31 2.408 . S
Sm1 C11 2.846 . S
Sm1 O22 2.386 . S
Sm1 O25 2.408 . S
Sm1 O26 2.543 . S
Sm1 O27 2.450 . S
Sm1 O28 2.681 . S
Sm1 O29 2.464 . S
Sm1 O30 2.396 . S
C2 Sm0 2.846 . S
C2 C3 1.506 . S
C2 O20 1.261 . S
C2 O21 1.242 . S
C3 C2 1.506 . S
C3 C4 1.358 . S
C3 C8 1.382 . S
C4 C3 1.358 . S
C4 C5 1.385 . S
C4 H32 0.930 . S
C5 C4 1.385 . S
C5 C6 1.395 . S
C5 H33 0.929 . S
C6 C5 1.395 . S
C6 C7 1.335 . S
C7 C6 1.335 . S
C7 C8 1.398 . S
C7 H34 0.930 . S
C8 C3 1.382 . S
C8 C7 1.398 . S
C8 H35 0.929 . S
C9 O22 1.271 . S
C9 O23 1.251 . S
C10 O24 1.252 . S
C10 O25 1.272 . S
C11 Sm1 2.846 . S
C11 C12 1.506 . S
C11 O26 1.261 . S
C11 O27 1.242 . S
C12 C11 1.506 . S
C12 C13 1.358 . S
C12 C17 1.382 . S
C13 C12 1.358 . S
C13 C14 1.385 . S
C13 H36 0.930 . S
C14 C13 1.385 . S
C14 C15 1.395 . S
C14 H37 0.929 . S
C15 C14 1.395 . S
C15 C16 1.335 . S
C16 C15 1.335 . S
C16 C17 1.398 . S
C16 H38 0.930 1_545 S
C17 C12 1.382 . S
C17 C16 1.398 . S
C17 H39 0.929 . S
C18 O28 1.271 . S
C18 O29 1.251 . S
C19 O30 1.252 . S
C19 O31 1.272 . S
O20 Sm0 2.543 . S
O20 C2 1.261 . S
O21 Sm0 2.450 . S
O21 C2 1.242 . S
O22 Sm0 2.681 . S
O22 Sm1 2.386 . S
O22 C9 1.271 . S
O23 Sm0 2.464 . S
O23 C9 1.251 . S
O24 Sm0 2.396 . S
O24 C10 1.252 . S
O25 Sm1 2.408 . S
O25 C10 1.272 . S
O26 Sm1 2.543 . S
O26 C11 1.261 . S
O27 Sm1 2.450 . S
O27 C11 1.242 . S
O28 Sm0 2.386 . S
O28 Sm1 2.681 . S
O28 C18 1.271 . S
O29 Sm1 2.464 . S
O29 C18 1.251 . S
O30 Sm1 2.396 . S
O30 C19 1.252 . S
O31 Sm0 2.408 . S
O31 C19 1.272 . S
H32 C4 0.930 . S
H33 C5 0.929 . S
H34 C7 0.930 . S
H35 C8 0.929 . S
H36 C13 0.930 . S
H37 C14 0.929 . S
H38 C16 0.930 1_565 S
H39 C17 0.929 . S
Sm40 C42 2.846 . S
Sm40 O60 2.543 . S
Sm40 O61 2.450 . S
Sm40 O62 2.681 . S
Sm40 O63 2.464 . S
Sm40 O64 2.396 . S
Sm40 O68 2.386 . S
Sm40 O71 2.408 . S
Sm41 C51 2.846 . S
Sm41 O62 2.386 . S
Sm41 O65 2.408 . S
Sm41 O66 2.543 . S
Sm41 O67 2.450 . S
Sm41 O68 2.681 . S
Sm41 O69 2.464 . S
Sm41 O70 2.396 . S
C42 Sm40 2.846 . S
C42 C43 1.506 . S
C42 O60 1.261 . S
C42 O61 1.242 . S
C43 C42 1.506 . S
C43 C44 1.358 . S
C43 C48 1.382 . S
C44 C43 1.358 . S
C44 C45 1.385 . S
C44 H72 0.930 . S
C45 C44 1.385 . S
C45 C46 1.395 . S
C45 H73 0.929 . S
C46 C45 1.395 . S
C46 C47 1.335 . S
C47 C46 1.335 . S
C47 C48 1.398 . S
C47 H74 0.930 . S
C48 C43 1.382 . S
C48 C47 1.398 . S
C48 H75 0.929 . S
C49 O62 1.271 . S
C49 O63 1.251 . S
C50 O64 1.252 . S
C50 O65 1.272 . S
C51 Sm41 2.846 . S
C51 C52 1.506 . S
C51 O66 1.261 . S
C51 O67 1.242 . S
C52 C51 1.506 . S
C52 C53 1.358 . S
C52 C57 1.382 . S
C53 C52 1.358 . S
C53 C54 1.385 . S
C53 H76 0.930 . S
C54 C53 1.385 . S
C54 C55 1.395 . S
C54 H77 0.929 . S
C55 C54 1.395 . S
C55 C56 1.335 . S
C56 C55 1.335 . S
C56 C57 1.398 . S
C56 H78 0.930 . S
C57 C52 1.382 . S
C57 C56 1.398 . S
C57 H79 0.929 . S
C58 O68 1.271 . S
C58 O69 1.251 . S
C59 O70 1.252 . S
C59 O71 1.272 . S
O60 Sm40 2.543 . S
O60 C42 1.261 . S
O61 Sm40 2.450 . S
O61 C42 1.242 . S
O62 Sm40 2.681 . S
O62 Sm41 2.386 . S
O62 C49 1.271 . S
O63 Sm40 2.464 . S
O63 C49 1.251 . S
O64 Sm40 2.396 . S
O64 C50 1.252 . S
O65 Sm41 2.408 . S
O65 C50 1.272 . S
O66 Sm41 2.543 . S
O66 C51 1.261 . S
O67 Sm41 2.450 . S
O67 C51 1.242 . S
O68 Sm40 2.386 . S
O68 Sm41 2.681 . S
O68 C58 1.271 . S
O69 Sm41 2.464 . S
O69 C58 1.251 . S
O70 Sm41 2.396 . S
O70 C59 1.252 . S
O71 Sm40 2.408 . S
O71 C59 1.272 . S
H72 C44 0.930 . S
H73 C45 0.929 . S
H74 C47 0.930 . S
H75 C48 0.929 . S
H76 C53 0.930 . S
H77 C54 0.929 . S
H78 C56 0.930 . S
H79 C57 0.929 . S
Sm80 C82 2.846 . S
Sm80 O100 2.543 . S
Sm80 O101 2.450 . S
Sm80 O102 2.681 . S
Sm80 O103 2.464 . S
Sm80 O104 2.396 . S
Sm80 O108 2.386 . S
Sm80 O111 2.408 . S
Sm81 C91 2.846 . S
Sm81 O102 2.386 . S
Sm81 O105 2.408 . S
Sm81 O106 2.543 . S
Sm81 O107 2.450 . S
Sm81 O108 2.681 . S
Sm81 O109 2.464 . S
Sm81 O110 2.396 . S
C82 Sm80 2.846 . S
C82 C83 1.506 . S
C82 O100 1.261 . S
C82 O101 1.242 . S
C83 C82 1.506 . S
C83 C84 1.358 . S
C83 C88 1.382 . S
C84 C83 1.358 . S
C84 C85 1.385 . S
C84 H112 0.930 . S
C85 C84 1.385 . S
C85 C86 1.395 . S
C85 H113 0.929 . S
C86 C85 1.395 . S
C86 C87 1.335 . S
C87 C86 1.335 . S
C87 C88 1.398 . S
C87 H114 0.930 . S
C88 C83 1.382 . S
C88 C87 1.398 . S
C88 H115 0.929 . S
C89 O102 1.271 . S
C89 O103 1.251 . S
C90 O104 1.252 . S
C90 O105 1.272 . S
C91 Sm81 2.846 . S
C91 C92 1.506 . S
C91 O106 1.261 . S
C91 O107 1.242 . S
C92 C91 1.506 . S
C92 C93 1.358 . S
C92 C97 1.382 . S
C93 C92 1.358 . S
C93 C94 1.385 . S
C93 H116 0.930 . S
C94 C93 1.385 . S
C94 C95 1.395 . S
C94 H117 0.929 . S
C95 C94 1.395 . S
C95 C96 1.335 . S
C96 C95 1.335 . S
C96 C97 1.398 . S
C96 H118 0.930 1_565 S
C97 C92 1.382 . S
C97 C96 1.398 . S
C97 H119 0.929 . S
C98 O108 1.271 . S
C98 O109 1.251 . S
C99 O110 1.252 . S
C99 O111 1.272 . S
O100 Sm80 2.543 . S
O100 C82 1.261 . S
O101 Sm80 2.450 . S
O101 C82 1.242 . S
O102 Sm80 2.681 . S
O102 Sm81 2.386 . S
O102 C89 1.271 . S
O103 Sm80 2.464 . S
O103 C89 1.251 . S
O104 Sm80 2.396 . S
O104 C90 1.252 . S
O105 Sm81 2.408 . S
O105 C90 1.272 . S
O106 Sm81 2.543 . S
O106 C91 1.261 . S
O107 Sm81 2.450 . S
O107 C91 1.242 . S
O108 Sm80 2.386 . S
O108 Sm81 2.681 . S
O108 C98 1.271 . S
O109 Sm81 2.464 . S
O109 C98 1.251 . S
O110 Sm81 2.396 . S
O110 C99 1.252 . S
O111 Sm80 2.408 . S
O111 C99 1.272 . S
H112 C84 0.930 . S
H113 C85 0.929 . S
H114 C87 0.930 . S
H115 C88 0.929 . S
H116 C93 0.930 . S
H117 C94 0.929 . S
H118 C96 0.930 1_545 S
H119 C97 0.929 . S
Sm120 C122 2.846 . S
Sm120 O140 2.543 . S
Sm120 O141 2.450 . S
Sm120 O142 2.681 . S
Sm120 O143 2.464 . S
Sm120 O144 2.396 . S
Sm120 O148 2.386 . S
Sm120 O151 2.408 . S
Sm121 C131 2.846 . S
Sm121 O142 2.386 . S
Sm121 O145 2.408 . S
Sm121 O146 2.543 . S
Sm121 O147 2.450 . S
Sm121 O148 2.681 . S
Sm121 O149 2.464 . S
Sm121 O150 2.396 . S
C122 Sm120 2.846 . S
C122 C123 1.506 . S
C122 O140 1.261 . S
C122 O141 1.242 . S
C123 C122 1.506 . S
C123 C124 1.358 . S
C123 C128 1.382 1_655 S
C124 C123 1.358 . S
C124 C125 1.385 . S
C124 H152 0.930 . S
C125 C124 1.385 . S
C125 C126 1.395 1_655 S
C125 H153 0.929 . S
C126 C125 1.395 1_455 S
C126 C127 1.335 . S
C127 C126 1.335 . S
C127 C128 1.398 . S
C127 H154 0.930 . S
C128 C123 1.382 1_455 S
C128 C127 1.398 . S
C128 H155 0.929 . S
C129 O142 1.271 . S
C129 O143 1.251 . S
C130 O144 1.252 . S
C130 O145 1.272 . S
C131 Sm121 2.846 . S
C131 C132 1.506 . S
C131 O146 1.261 . S
C131 O147 1.242 . S
C132 C131 1.506 . S
C132 C133 1.358 . S
C132 C137 1.382 . S
C133 C132 1.358 . S
C133 C134 1.385 . S
C133 H156 0.930 . S
C134 C133 1.385 . S
C134 C135 1.395 . S
C134 H157 0.929 . S
C135 C134 1.395 . S
C135 C136 1.335 . S
C136 C135 1.335 . S
C136 C137 1.398 . S
C136 H158 0.930 . S
C137 C132 1.382 . S
C137 C136 1.398 . S
C137 H159 0.929 . S
C138 O148 1.271 . S
C138 O149 1.251 . S
C139 O150 1.252 . S
C139 O151 1.272 . S
O140 Sm120 2.543 . S
O140 C122 1.261 . S
O141 Sm120 2.450 . S
O141 C122 1.242 . S
O142 Sm120 2.681 . S
O142 Sm121 2.386 . S
O142 C129 1.271 . S
O143 Sm120 2.464 . S
O143 C129 1.251 . S
O144 Sm120 2.396 . S
O144 C130 1.252 . S
O145 Sm121 2.408 . S
O145 C130 1.272 . S
O146 Sm121 2.543 . S
O146 C131 1.261 . S
O147 Sm121 2.450 . S
O147 C131 1.242 . S
O148 Sm120 2.386 . S
O148 Sm121 2.681 . S
O148 C138 1.271 . S
O149 Sm121 2.464 . S
O149 C138 1.251 . S
O150 Sm121 2.396 . S
O150 C139 1.252 . S
O151 Sm120 2.408 . S
O151 C139 1.272 . S
H152 C124 0.930 . S
H153 C125 0.929 . S
H154 C127 0.930 . S
H155 C128 0.929 . S
H156 C133 0.930 . S
H157 C134 0.929 . S
H158 C136 0.930 . S
H159 C137 0.929 . S
Sm160 C162 2.846 . S
Sm160 O180 2.543 . S
Sm160 O181 2.450 . S
Sm160 O182 2.681 . S
Sm160 O183 2.464 . S
Sm160 O184 2.396 . S
Sm160 O188 2.386 . S
Sm160 O191 2.408 . S
Sm161 C171 2.846 . S
Sm161 O182 2.386 . S
Sm161 O185 2.408 . S
Sm161 O186 2.543 . S
Sm161 O187 2.450 . S
Sm161 O188 2.681 . S
Sm161 O189 2.464 . S
Sm161 O190 2.396 . S
C162 Sm160 2.846 . S
C162 C163 1.506 . S
C162 O180 1.261 . S
C162 O181 1.242 . S
C163 C162 1.506 . S
C163 C164 1.358 . S
C163 C168 1.382 . S
C164 C163 1.358 . S
C164 C165 1.385 . S
C164 H192 0.930 . S
C165 C164 1.385 . S
C165 C166 1.395 . S
C165 H193 0.929 . S
C166 C165 1.395 . S
C166 C167 1.335 . S
C167 C166 1.335 . S
C167 C168 1.398 . S
C167 H194 0.930 1_565 S
C168 C163 1.382 . S
C168 C167 1.398 . S
C168 H195 0.929 . S
C169 O182 1.271 . S
C169 O183 1.251 . S
C170 O184 1.252 . S
C170 O185 1.272 . S
C171 Sm161 2.846 . S
C171 C172 1.506 . S
C171 O186 1.261 . S
C171 O187 1.242 . S
C172 C171 1.506 . S
C172 C173 1.358 . S
C172 C177 1.382 . S
C173 C172 1.358 . S
C173 C174 1.385 . S
C173 H196 0.930 . S
C174 C173 1.385 . S
C174 C175 1.395 . S
C174 H197 0.929 . S
C175 C174 1.395 . S
C175 C176 1.335 . S
C176 C175 1.335 . S
C176 C177 1.398 . S
C176 H198 0.930 . S
C177 C172 1.382 . S
C177 C176 1.398 . S
C177 H199 0.929 . S
C178 O188 1.271 . S
C178 O189 1.251 . S
C179 O190 1.252 . S
C179 O191 1.272 . S
O180 Sm160 2.543 . S
O180 C162 1.261 . S
O181 Sm160 2.450 . S
O181 C162 1.242 . S
O182 Sm160 2.681 . S
O182 Sm161 2.386 . S
O182 C169 1.271 . S
O183 Sm160 2.464 . S
O183 C169 1.251 . S
O184 Sm160 2.396 . S
O184 C170 1.252 . S
O185 Sm161 2.408 . S
O185 C170 1.272 . S
O186 Sm161 2.543 . S
O186 C171 1.261 . S
O187 Sm161 2.450 . S
O187 C171 1.242 . S
O188 Sm160 2.386 . S
O188 Sm161 2.681 . S
O188 C178 1.271 . S
O189 Sm161 2.464 . S
O189 C178 1.251 . S
O190 Sm161 2.396 . S
O190 C179 1.252 . S
O191 Sm160 2.408 . S
O191 C179 1.272 . S
H192 C164 0.930 . S
H193 C165 0.929 . S
H194 C167 0.930 1_545 S
H195 C168 0.929 . S
H196 C173 0.930 . S
H197 C174 0.929 . S
H198 C176 0.930 . S
H199 C177 0.929 . S
Sm200 C202 2.846 . S
Sm200 O220 2.543 . S
Sm200 O221 2.450 . S
Sm200 O222 2.681 . S
Sm200 O223 2.464 . S
Sm200 O224 2.396 . S
Sm200 O228 2.386 . S
Sm200 O231 2.408 . S
Sm201 C211 2.846 . S
Sm201 O222 2.386 . S
Sm201 O225 2.408 . S
Sm201 O226 2.543 . S
Sm201 O227 2.450 . S
Sm201 O228 2.681 . S
Sm201 O229 2.464 . S
Sm201 O230 2.396 . S
C202 Sm200 2.846 . S
C202 C203 1.506 . S
C202 O220 1.261 . S
C202 O221 1.242 . S
C203 C202 1.506 . S
C203 C204 1.358 . S
C203 C208 1.382 . S
C204 C203 1.358 . S
C204 C205 1.385 . S
C204 H232 0.930 . S
C205 C204 1.385 . S
C205 C206 1.395 . S
C205 H233 0.929 . S
C206 C205 1.395 . S
C206 C207 1.335 . S
C207 C206 1.335 . S
C207 C208 1.398 . S
C207 H234 0.930 . S
C208 C203 1.382 . S
C208 C207 1.398 . S
C208 H235 0.929 . S
C209 O222 1.271 . S
C209 O223 1.251 . S
C210 O224 1.252 . S
C210 O225 1.272 . S
C211 Sm201 2.846 . S
C211 C212 1.506 . S
C211 O226 1.261 . S
C211 O227 1.242 . S
C212 C211 1.506 . S
C212 C213 1.358 . S
C212 C217 1.382 . S
C213 C212 1.358 . S
C213 C214 1.385 . S
C213 H236 0.930 . S
C214 C213 1.385 . S
C214 C215 1.395 . S
C214 H237 0.929 . S
C215 C214 1.395 . S
C215 C216 1.335 . S
C216 C215 1.335 . S
C216 C217 1.398 . S
C216 H238 0.930 . S
C217 C212 1.382 . S
C217 C216 1.398 . S
C217 H239 0.929 . S
C218 O228 1.271 . S
C218 O229 1.251 . S
C219 O230 1.252 . S
C219 O231 1.272 . S
O220 Sm200 2.543 . S
O220 C202 1.261 . S
O221 Sm200 2.450 . S
O221 C202 1.242 . S
O222 Sm200 2.681 . S
O222 Sm201 2.386 . S
O222 C209 1.271 . S
O223 Sm200 2.464 . S
O223 C209 1.251 . S
O224 Sm200 2.396 . S
O224 C210 1.252 . S
O225 Sm201 2.408 . S
O225 C210 1.272 . S
O226 Sm201 2.543 . S
O226 C211 1.261 . S
O227 Sm201 2.450 . S
O227 C211 1.242 . S
O228 Sm200 2.386 . S
O228 Sm201 2.681 . S
O228 C218 1.271 . S
O229 Sm201 2.464 . S
O229 C218 1.251 . S
O230 Sm201 2.396 . S
O230 C219 1.252 . S
O231 Sm200 2.408 . S
O231 C219 1.272 . S
H232 C204 0.930 . S
H233 C205 0.929 . S
H234 C207 0.930 . S
H235 C208 0.929 . S
H236 C213 0.930 . S
H237 C214 0.929 . S
H238 C216 0.930 . S
H239 C217 0.929 . S
Sm240 C242 2.846 . S
Sm240 O260 2.543 . S
Sm240 O261 2.450 . S
Sm240 O262 2.681 . S
Sm240 O263 2.464 . S
Sm240 O264 2.396 . S
Sm240 O268 2.386 . S
Sm240 O271 2.408 . S
Sm241 C251 2.846 . S
Sm241 O262 2.386 . S
Sm241 O265 2.408 . S
Sm241 O266 2.543 . S
Sm241 O267 2.450 . S
Sm241 O268 2.681 . S
Sm241 O269 2.464 . S
Sm241 O270 2.396 . S
C242 Sm240 2.846 . S
C242 C243 1.506 . S
C242 O260 1.261 . S
C242 O261 1.242 . S
C243 C242 1.506 . S
C243 C244 1.358 . S
C243 C248 1.382 . S
C244 C243 1.358 . S
C244 C245 1.385 . S
C244 H272 0.930 . S
C245 C244 1.385 . S
C245 C246 1.395 . S
C245 H273 0.929 . S
C246 C245 1.395 . S
C246 C247 1.335 . S
C247 C246 1.335 . S
C247 C248 1.398 . S
C247 H274 0.930 1_545 S
C248 C243 1.382 . S
C248 C247 1.398 . S
C248 H275 0.929 . S
C249 O262 1.271 . S
C249 O263 1.251 . S
C250 O264 1.252 . S
C250 O265 1.272 . S
C251 Sm241 2.846 . S
C251 C252 1.506 . S
C251 O266 1.261 . S
C251 O267 1.242 . S
C252 C251 1.506 . S
C252 C253 1.358 . S
C252 C257 1.382 . S
C253 C252 1.358 . S
C253 C254 1.385 . S
C253 H276 0.930 . S
C254 C253 1.385 . S
C254 C255 1.395 . S
C254 H277 0.929 . S
C255 C254 1.395 . S
C255 C256 1.335 . S
C256 C255 1.335 . S
C256 C257 1.398 . S
C256 H278 0.930 . S
C257 C252 1.382 . S
C257 C256 1.398 . S
C257 H279 0.929 . S
C258 O268 1.271 . S
C258 O269 1.251 . S
C259 O270 1.252 . S
C259 O271 1.272 . S
O260 Sm240 2.543 . S
O260 C242 1.261 . S
O261 Sm240 2.450 . S
O261 C242 1.242 . S
O262 Sm240 2.681 . S
O262 Sm241 2.386 . S
O262 C249 1.271 . S
O263 Sm240 2.464 . S
O263 C249 1.251 . S
O264 Sm240 2.396 . S
O264 C250 1.252 . S
O265 Sm241 2.408 . S
O265 C250 1.272 . S
O266 Sm241 2.543 . S
O266 C251 1.261 . S
O267 Sm241 2.450 . S
O267 C251 1.242 . S
O268 Sm240 2.386 . S
O268 Sm241 2.681 . S
O268 C258 1.271 . S
O269 Sm241 2.464 . S
O269 C258 1.251 . S
O270 Sm241 2.396 . S
O270 C259 1.252 . S
O271 Sm240 2.408 . S
O271 C259 1.272 . S
H272 C244 0.930 . S
H273 C245 0.929 . S
H274 C247 0.930 1_565 S
H275 C248 0.929 . S
H276 C253 0.930 . S
H277 C254 0.929 . S
H278 C256 0.930 . S
H279 C257 0.929 . S
Sm280 C282 2.846 . S
Sm280 O300 2.543 . S
Sm280 O301 2.450 . S
Sm280 O302 2.681 . S
Sm280 O303 2.464 . S
Sm280 O304 2.396 . S
Sm280 O308 2.386 . S
Sm280 O311 2.408 . S
Sm281 C291 2.846 . S
Sm281 O302 2.386 . S
Sm281 O305 2.408 . S
Sm281 O306 2.543 . S
Sm281 O307 2.450 . S
Sm281 O308 2.681 . S
Sm281 O309 2.464 . S
Sm281 O310 2.396 . S
C282 Sm280 2.846 . S
C282 C283 1.506 . S
C282 O300 1.261 . S
C282 O301 1.242 . S
C283 C282 1.506 . S
C283 C284 1.358 . S
C283 C288 1.382 . S
C284 C283 1.358 . S
C284 C285 1.385 . S
C284 H312 0.930 . S
C285 C284 1.385 . S
C285 C286 1.395 . S
C285 H313 0.929 . S
C286 C285 1.395 . S
C286 C287 1.335 . S
C287 C286 1.335 . S
C287 C288 1.398 . S
C287 H314 0.930 . S
C288 C283 1.382 . S
C288 C287 1.398 . S
C288 H315 0.929 . S
C289 O302 1.271 . S
C289 O303 1.251 . S
C290 O304 1.252 . S
C290 O305 1.272 . S
C291 Sm281 2.846 . S
C291 C292 1.506 . S
C291 O306 1.261 . S
C291 O307 1.242 . S
C292 C291 1.506 . S
C292 C293 1.358 . S
C292 C297 1.382 1_455 S
C293 C292 1.358 . S
C293 C294 1.385 . S
C293 H316 0.930 . S
C294 C293 1.385 . S
C294 C295 1.395 1_455 S
C294 H317 0.929 . S
C295 C294 1.395 1_655 S
C295 C296 1.335 . S
C296 C295 1.335 . S
C296 C297 1.398 . S
C296 H318 0.930 . S
C297 C292 1.382 1_655 S
C297 C296 1.398 . S
C297 H319 0.929 . S
C298 O308 1.271 . S
C298 O309 1.251 . S
C299 O310 1.252 . S
C299 O311 1.272 . S
O300 Sm280 2.543 . S
O300 C282 1.261 . S
O301 Sm280 2.450 . S
O301 C282 1.242 . S
O302 Sm280 2.681 . S
O302 Sm281 2.386 . S
O302 C289 1.271 . S
O303 Sm280 2.464 . S
O303 C289 1.251 . S
O304 Sm280 2.396 . S
O304 C290 1.252 . S
O305 Sm281 2.408 . S
O305 C290 1.272 . S
O306 Sm281 2.543 . S
O306 C291 1.261 . S
O307 Sm281 2.450 . S
O307 C291 1.242 . S
O308 Sm280 2.386 . S
O308 Sm281 2.681 . S
O308 C298 1.271 . S
O309 Sm281 2.464 . S
O309 C298 1.251 . S
O310 Sm281 2.396 . S
O310 C299 1.252 . S
O311 Sm280 2.408 . S
O311 C299 1.272 . S
H312 C284 0.930 . S
H313 C285 0.929 . S
H314 C287 0.930 . S
H315 C288 0.929 . S
H316 C293 0.930 . S
H317 C294 0.929 . S
H318 C296 0.930 . S
H319 C297 0.929 . S
Sm320 C322 2.846 . S
Sm320 O340 2.543 . S
Sm320 O341 2.450 . S
Sm320 O342 2.681 . S
Sm320 O343 2.464 . S
Sm320 O344 2.396 . S
Sm320 O348 2.386 . S
Sm320 O351 2.408 . S
Sm321 C331 2.846 . S
Sm321 O342 2.386 . S
Sm321 O345 2.408 . S
Sm321 O346 2.543 . S
Sm321 O347 2.450 . S
Sm321 O348 2.681 . S
Sm321 O349 2.464 . S
Sm321 O350 2.396 . S
C322 Sm320 2.846 . S
C322 C323 1.506 . S
C322 O340 1.261 . S
C322 O341 1.242 . S
C323 C322 1.506 . S
C323 C324 1.358 . S
C323 C328 1.382 . S
C324 C323 1.358 . S
C324 C325 1.385 . S
C324 H352 0.930 . S
C325 C324 1.385 . S
C325 C326 1.395 . S
C325 H353 0.929 . S
C326 C325 1.395 . S
C326 C327 1.335 . S
C327 C326 1.335 . S
C327 C328 1.398 . S
C327 H354 0.930 . S
C328 C323 1.382 . S
C328 C327 1.398 . S
C328 H355 0.929 . S
C329 O342 1.271 . S
C329 O343 1.251 . S
C330 O344 1.252 . S
C330 O345 1.272 . S
C331 Sm321 2.846 . S
C331 C332 1.506 . S
C331 O346 1.261 . S
C331 O347 1.242 . S
C332 C331 1.506 . S
C332 C333 1.358 . S
C332 C337 1.382 . S
C333 C332 1.358 . S
C333 C334 1.385 . S
C333 H356 0.930 . S
C334 C333 1.385 . S
C334 C335 1.395 . S
C334 H357 0.929 . S
C335 C334 1.395 . S
C335 C336 1.335 . S
C336 C335 1.335 . S
C336 C337 1.398 . S
C336 H358 0.930 . S
C337 C332 1.382 . S
C337 C336 1.398 . S
C337 H359 0.929 . S
C338 O348 1.271 . S
C338 O349 1.251 . S
C339 O350 1.252 . S
C339 O351 1.272 . S
O340 Sm320 2.543 . S
O340 C322 1.261 . S
O341 Sm320 2.450 . S
O341 C322 1.242 . S
O342 Sm320 2.681 . S
O342 Sm321 2.386 . S
O342 C329 1.271 . S
O343 Sm320 2.464 . S
O343 C329 1.251 . S
O344 Sm320 2.396 . S
O344 C330 1.252 . S
O345 Sm321 2.408 . S
O345 C330 1.272 . S
O346 Sm321 2.543 . S
O346 C331 1.261 . S
O347 Sm321 2.450 . S
O347 C331 1.242 . S
O348 Sm320 2.386 . S
O348 Sm321 2.681 . S
O348 C338 1.271 . S
O349 Sm321 2.464 . S
O349 C338 1.251 . S
O350 Sm321 2.396 . S
O350 C339 1.252 . S
O351 Sm320 2.408 . S
O351 C339 1.272 . S
H352 C324 0.930 . S
H353 C325 0.929 . S
H354 C327 0.930 . S
H355 C328 0.929 . S
H356 C333 0.930 . S
H357 C334 0.929 . S
H358 C336 0.930 . S
H359 C337 0.929 . S
Sm360 C362 2.846 . S
Sm360 O380 2.543 . S
Sm360 O381 2.450 . S
Sm360 O382 2.681 . S
Sm360 O383 2.464 . S
Sm360 O384 2.396 . S
Sm360 O388 2.386 . S
Sm360 O391 2.408 . S
Sm361 C371 2.846 . S
Sm361 O382 2.386 . S
Sm361 O385 2.408 . S
Sm361 O386 2.543 . S
Sm361 O387 2.450 . S
Sm361 O388 2.681 . S
Sm361 O389 2.464 . S
Sm361 O390 2.396 . S
C362 Sm360 2.846 . S
C362 C363 1.506 . S
C362 O380 1.261 . S
C362 O381 1.242 . S
C363 C362 1.506 . S
C363 C364 1.358 1_545 S
C363 C368 1.382 1_455 S
C364 C363 1.358 1_565 S
C364 C365 1.385 . S
C364 H392 0.930 . S
C365 C364 1.385 . S
C365 C366 1.395 1_455 S
C365 H393 0.929 . S
C366 C365 1.395 1_655 S
C366 C367 1.335 1_565 S
C367 C366 1.335 1_545 S
C367 C368 1.398 . S
C367 H394 0.930 . S
C368 C363 1.382 1_655 S
C368 C367 1.398 . S
C368 H395 0.929 . S
C369 O382 1.271 . S
C369 O383 1.251 . S
C370 O384 1.252 . S
C370 O385 1.272 . S
C371 Sm361 2.846 . S
C371 C372 1.506 . S
C371 O386 1.261 . S
C371 O387 1.242 . S
C372 C371 1.506 . S
C372 C373 1.358 . S
C372 C377 1.382 . S
C373 C372 1.358 . S
C373 C374 1.385 . S
C373 H396 0.930 . S
C374 C373 1.385 . S
C374 C375 1.395 . S
C374 H397 0.929 . S
C375 C374 1.395 . S
C375 C376 1.335 . S
C376 C375 1.335 . S
C376 C377 1.398 . S
C376 H398 0.930 . S
C377 C372 1.382 . S
C377 C376 1.398 . S
C377 H399 0.929 . S
C378 O388 1.271 . S
C378 O389 1.251 . S
C379 O390 1.252 . S
C379 O391 1.272 . S
O380 Sm360 2.543 . S
O380 C362 1.261 . S
O381 Sm360 2.450 . S
O381 C362 1.242 . S
O382 Sm360 2.681 . S
O382 Sm361 2.386 . S
O382 C369 1.271 . S
O383 Sm360 2.464 . S
O383 C369 1.251 . S
O384 Sm360 2.396 . S
O384 C370 1.252 . S
O385 Sm361 2.408 . S
O385 C370 1.272 . S
O386 Sm361 2.543 . S
O386 C371 1.261 . S
O387 Sm361 2.450 . S
O387 C371 1.242 . S
O388 Sm360 2.386 . S
O388 Sm361 2.681 . S
O388 C378 1.271 . S
O389 Sm361 2.464 . S
O389 C378 1.251 . S
O390 Sm361 2.396 . S
O390 C379 1.252 . S
O391 Sm360 2.408 . S
O391 C379 1.272 . S
H392 C364 0.930 . S
H393 C365 0.929 . S
H394 C367 0.930 . S
H395 C368 0.929 . S
H396 C373 0.930 . S
H397 C374 0.929 . S
H398 C376 0.930 . S
H399 C377 0.929 . S
Sm400 C402 2.846 . S
Sm400 O420 2.543 . S
Sm400 O421 2.450 . S
Sm400 O422 2.681 . S
Sm400 O423 2.464 . S
Sm400 O424 2.396 . S
Sm400 O428 2.386 . S
Sm400 O431 2.408 . S
Sm401 C411 2.846 . S
Sm401 O422 2.386 . S
Sm401 O425 2.408 . S
Sm401 O426 2.543 . S
Sm401 O427 2.450 . S
Sm401 O428 2.681 . S
Sm401 O429 2.464 . S
Sm401 O430 2.396 . S
C402 Sm400 2.846 . S
C402 C403 1.506 . S
C402 O420 1.261 . S
C402 O421 1.242 . S
C403 C402 1.506 . S
C403 C404 1.358 . S
C403 C408 1.382 . S
C404 C403 1.358 . S
C404 C405 1.385 . S
C404 H432 0.930 . S
C405 C404 1.385 . S
C405 C406 1.395 . S
C405 H433 0.929 . S
C406 C405 1.395 . S
C406 C407 1.335 . S
C407 C406 1.335 . S
C407 C408 1.398 . S
C407 H434 0.930 . S
C408 C403 1.382 . S
C408 C407 1.398 . S
C408 H435 0.929 . S
C409 O422 1.271 . S
C409 O423 1.251 . S
C410 O424 1.252 . S
C410 O425 1.272 . S
C411 Sm401 2.846 . S
C411 C412 1.506 . S
C411 O426 1.261 . S
C411 O427 1.242 . S
C412 C411 1.506 . S
C412 C413 1.358 . S
C412 C417 1.382 . S
C413 C412 1.358 . S
C413 C414 1.385 . S
C413 H436 0.930 . S
C414 C413 1.385 . S
C414 C415 1.395 . S
C414 H437 0.929 . S
C415 C414 1.395 . S
C415 C416 1.335 . S
C416 C415 1.335 . S
C416 C417 1.398 . S
C416 H438 0.930 . S
C417 C412 1.382 . S
C417 C416 1.398 . S
C417 H439 0.929 . S
C418 O428 1.271 . S
C418 O429 1.251 . S
C419 O430 1.252 . S
C419 O431 1.272 . S
O420 Sm400 2.543 . S
O420 C402 1.261 . S
O421 Sm400 2.450 . S
O421 C402 1.242 . S
O422 Sm400 2.681 . S
O422 Sm401 2.386 . S
O422 C409 1.271 . S
O423 Sm400 2.464 . S
O423 C409 1.251 . S
O424 Sm400 2.396 . S
O424 C410 1.252 . S
O425 Sm401 2.408 . S
O425 C410 1.272 . S
O426 Sm401 2.543 . S
O426 C411 1.261 . S
O427 Sm401 2.450 . S
O427 C411 1.242 . S
O428 Sm400 2.386 . S
O428 Sm401 2.681 . S
O428 C418 1.271 . S
O429 Sm401 2.464 . S
O429 C418 1.251 . S
O430 Sm401 2.396 . S
O430 C419 1.252 . S
O431 Sm400 2.408 . S
O431 C419 1.272 . S
H432 C404 0.930 . S
H433 C405 0.929 . S
H434 C407 0.930 . S
H435 C408 0.929 . S
H436 C413 0.930 . S
H437 C414 0.929 . S
H438 C416 0.930 . S
H439 C417 0.929 . S
Sm440 C442 2.846 . S
Sm440 O460 2.543 . S
Sm440 O461 2.450 . S
Sm440 O462 2.681 . S
Sm440 O463 2.464 . S
Sm440 O464 2.396 . S
Sm440 O468 2.386 . S
Sm440 O471 2.408 . S
Sm441 C451 2.846 . S
Sm441 O462 2.386 . S
Sm441 O465 2.408 . S
Sm441 O466 2.543 . S
Sm441 O467 2.450 . S
Sm441 O468 2.681 . S
Sm441 O469 2.464 . S
Sm441 O470 2.396 . S
C442 Sm440 2.846 . S
C442 C443 1.506 . S
C442 O460 1.261 . S
C442 O461 1.242 . S
C443 C442 1.506 . S
C443 C444 1.358 1_565 S
C443 C448 1.382 . S
C444 C443 1.358 1_545 S
C444 C445 1.385 . S
C444 H472 0.930 . S
C445 C444 1.385 . S
C445 C446 1.395 . S
C445 H473 0.929 . S
C446 C445 1.395 . S
C446 C447 1.335 1_545 S
C447 C446 1.335 1_565 S
C447 C448 1.398 . S
C447 H474 0.930 . S
C448 C443 1.382 . S
C448 C447 1.398 . S
C448 H475 0.929 . S
C449 O462 1.271 . S
C449 O463 1.251 . S
C450 O464 1.252 . S
C450 O465 1.272 . S
C451 Sm441 2.846 . S
C451 C452 1.506 . S
C451 O466 1.261 . S
C451 O467 1.242 . S
C452 C451 1.506 . S
C452 C453 1.358 . S
C452 C457 1.382 . S
C453 C452 1.358 . S
C453 C454 1.385 . S
C453 H476 0.930 . S
C454 C453 1.385 . S
C454 C455 1.395 . S
C454 H477 0.929 . S
C455 C454 1.395 . S
C455 C456 1.335 . S
C456 C455 1.335 . S
C456 C457 1.398 . S
C456 H478 0.930 . S
C457 C452 1.382 . S
C457 C456 1.398 . S
C457 H479 0.929 . S
C458 O468 1.271 . S
C458 O469 1.251 . S
C459 O470 1.252 . S
C459 O471 1.272 . S
O460 Sm440 2.543 . S
O460 C442 1.261 . S
O461 Sm440 2.450 . S
O461 C442 1.242 . S
O462 Sm440 2.681 . S
O462 Sm441 2.386 . S
O462 C449 1.271 . S
O463 Sm440 2.464 . S
O463 C449 1.251 . S
O464 Sm440 2.396 . S
O464 C450 1.252 . S
O465 Sm441 2.408 . S
O465 C450 1.272 . S
O466 Sm441 2.543 . S
O466 C451 1.261 . S
O467 Sm441 2.450 . S
O467 C451 1.242 . S
O468 Sm440 2.386 . S
O468 Sm441 2.681 . S
O468 C458 1.271 . S
O469 Sm441 2.464 . S
O469 C458 1.251 . S
O470 Sm441 2.396 . S
O470 C459 1.252 . S
O471 Sm440 2.408 . S
O471 C459 1.272 . S
H472 C444 0.930 . S
H473 C445 0.929 . S
H474 C447 0.930 . S
H475 C448 0.929 . S
H476 C453 0.930 . S
H477 C454 0.929 . S
H478 C456 0.930 . S
H479 C457 0.929 . S
Sm480 C482 2.846 . S
Sm480 O500 2.543 . S
Sm480 O501 2.450 . S
Sm480 O502 2.681 . S
Sm480 O503 2.464 . S
Sm480 O504 2.396 . S
Sm480 O508 2.386 . S
Sm480 O511 2.408 . S
Sm481 C491 2.846 . S
Sm481 O502 2.386 . S
Sm481 O505 2.408 . S
Sm481 O506 2.543 . S
Sm481 O507 2.450 . S
Sm481 O508 2.681 . S
Sm481 O509 2.464 . S
Sm481 O510 2.396 . S
C482 Sm480 2.846 . S
C482 C483 1.506 . S
C482 O500 1.261 . S
C482 O501 1.242 . S
C483 C482 1.506 . S
C483 C484 1.358 . S
C483 C488 1.382 . S
C484 C483 1.358 . S
C484 C485 1.385 . S
C484 H512 0.930 . S
C485 C484 1.385 . S
C485 C486 1.395 . S
C485 H513 0.929 . S
C486 C485 1.395 . S
C486 C487 1.335 . S
C487 C486 1.335 . S
C487 C488 1.398 . S
C487 H514 0.930 . S
C488 C483 1.382 . S
C488 C487 1.398 . S
C488 H515 0.929 . S
C489 O502 1.271 . S
C489 O503 1.251 . S
C490 O504 1.252 . S
C490 O505 1.272 . S
C491 Sm481 2.846 . S
C491 C492 1.506 . S
C491 O506 1.261 . S
C491 O507 1.242 . S
C492 C491 1.506 . S
C492 C493 1.358 . S
C492 C497 1.382 . S
C493 C492 1.358 . S
C493 C494 1.385 . S
C493 H516 0.930 . S
C494 C493 1.385 . S
C494 C495 1.395 . S
C494 H517 0.929 . S
C495 C494 1.395 . S
C495 C496 1.335 . S
C496 C495 1.335 . S
C496 C497 1.398 . S
C496 H518 0.930 . S
C497 C492 1.382 . S
C497 C496 1.398 . S
C497 H519 0.929 . S
C498 O508 1.271 . S
C498 O509 1.251 . S
C499 O510 1.252 . S
C499 O511 1.272 . S
O500 Sm480 2.543 . S
O500 C482 1.261 . S
O501 Sm480 2.450 . S
O501 C482 1.242 . S
O502 Sm480 2.681 . S
O502 Sm481 2.386 . S
O502 C489 1.271 . S
O503 Sm480 2.464 . S
O503 C489 1.251 . S
O504 Sm480 2.396 . S
O504 C490 1.252 . S
O505 Sm481 2.408 . S
O505 C490 1.272 . S
O506 Sm481 2.543 . S
O506 C491 1.261 . S
O507 Sm481 2.450 . S
O507 C491 1.242 . S
O508 Sm480 2.386 . S
O508 Sm481 2.681 . S
O508 C498 1.271 . S
O509 Sm481 2.464 . S
O509 C498 1.251 . S
O510 Sm481 2.396 . S
O510 C499 1.252 . S
O511 Sm480 2.408 . S
O511 C499 1.272 . S
H512 C484 0.930 . S
H513 C485 0.929 . S
H514 C487 0.930 . S
H515 C488 0.929 . S
H516 C493 0.930 . S
H517 C494 0.929 . S
H518 C496 0.930 . S
H519 C497 0.929 . S
Sm520 C522 2.846 . S
Sm520 O540 2.543 . S
Sm520 O541 2.450 . S
Sm520 O542 2.681 . S
Sm520 O543 2.464 . S
Sm520 O544 2.396 . S
Sm520 O548 2.386 . S
Sm520 O551 2.408 . S
Sm521 C531 2.846 . S
Sm521 O542 2.386 . S
Sm521 O545 2.408 . S
Sm521 O546 2.543 . S
Sm521 O547 2.450 . S
Sm521 O548 2.681 . S
Sm521 O549 2.464 . S
Sm521 O550 2.396 . S
C522 Sm520 2.846 . S
C522 C523 1.506 . S
C522 O540 1.261 . S
C522 O541 1.242 . S
C523 C522 1.506 . S
C523 C524 1.358 . S
C523 C528 1.382 . S
C524 C523 1.358 . S
C524 C525 1.385 . S
C524 H552 0.930 . S
C525 C524 1.385 . S
C525 C526 1.395 . S
C525 H553 0.929 . S
C526 C525 1.395 . S
C526 C527 1.335 . S
C527 C526 1.335 . S
C527 C528 1.398 . S
C527 H554 0.930 . S
C528 C523 1.382 . S
C528 C527 1.398 . S
C528 H555 0.929 . S
C529 O542 1.271 . S
C529 O543 1.251 . S
C530 O544 1.252 . S
C530 O545 1.272 . S
C531 Sm521 2.846 . S
C531 C532 1.506 . S
C531 O546 1.261 . S
C531 O547 1.242 . S
C532 C531 1.506 . S
C532 C533 1.358 1_565 S
C532 C537 1.382 1_655 S
C533 C532 1.358 1_545 S
C533 C534 1.385 . S
C533 H556 0.930 . S
C534 C533 1.385 . S
C534 C535 1.395 1_655 S
C534 H557 0.929 . S
C535 C534 1.395 1_455 S
C535 C536 1.335 1_545 S
C536 C535 1.335 1_565 S
C536 C537 1.398 . S
C536 H558 0.930 . S
C537 C532 1.382 1_455 S
C537 C536 1.398 . S
C537 H559 0.929 . S
C538 O548 1.271 . S
C538 O549 1.251 . S
C539 O550 1.252 . S
C539 O551 1.272 . S
O540 Sm520 2.543 . S
O540 C522 1.261 . S
O541 Sm520 2.450 . S
O541 C522 1.242 . S
O542 Sm520 2.681 . S
O542 Sm521 2.386 . S
O542 C529 1.271 . S
O543 Sm520 2.464 . S
O543 C529 1.251 . S
O544 Sm520 2.396 . S
O544 C530 1.252 . S
O545 Sm521 2.408 . S
O545 C530 1.272 . S
O546 Sm521 2.543 . S
O546 C531 1.261 . S
O547 Sm521 2.450 . S
O547 C531 1.242 . S
O548 Sm520 2.386 . S
O548 Sm521 2.681 . S
O548 C538 1.271 . S
O549 Sm521 2.464 . S
O549 C538 1.251 . S
O550 Sm521 2.396 . S
O550 C539 1.252 . S
O551 Sm520 2.408 . S
O551 C539 1.272 . S
H552 C524 0.930 . S
H553 C525 0.929 . S
H554 C527 0.930 . S
H555 C528 0.929 . S
H556 C533 0.930 . S
H557 C534 0.929 . S
H558 C536 0.930 . S
H559 C537 0.929 . S
Sm560 C562 2.846 . S
Sm560 O580 2.543 . S
Sm560 O581 2.450 . S
Sm560 O582 2.681 . S
Sm560 O583 2.464 . S
Sm560 O584 2.396 . S
Sm560 O588 2.386 . S
Sm560 O591 2.408 . S
Sm561 C571 2.846 . S
Sm561 O582 2.386 . S
Sm561 O585 2.408 . S
Sm561 O586 2.543 . S
Sm561 O587 2.450 . S
Sm561 O588 2.681 . S
Sm561 O589 2.464 . S
Sm561 O590 2.396 . S
C562 Sm560 2.846 . S
C562 C563 1.506 . S
C562 O580 1.261 . S
C562 O581 1.242 . S
C563 C562 1.506 . S
C563 C564 1.358 . S
C563 C568 1.382 . S
C564 C563 1.358 . S
C564 C565 1.385 . S
C564 H592 0.930 . S
C565 C564 1.385 . S
C565 C566 1.395 . S
C565 H593 0.929 . S
C566 C565 1.395 . S
C566 C567 1.335 . S
C567 C566 1.335 . S
C567 C568 1.398 . S
C567 H594 0.930 . S
C568 C563 1.382 . S
C568 C567 1.398 . S
C568 H595 0.929 . S
C569 O582 1.271 . S
C569 O583 1.251 . S
C570 O584 1.252 . S
C570 O585 1.272 . S
C571 Sm561 2.846 . S
C571 C572 1.506 . S
C571 O586 1.261 . S
C571 O587 1.242 . S
C572 C571 1.506 . S
C572 C573 1.358 . S
C572 C577 1.382 . S
C573 C572 1.358 . S
C573 C574 1.385 . S
C573 H596 0.930 . S
C574 C573 1.385 . S
C574 C575 1.395 . S
C574 H597 0.929 . S
C575 C574 1.395 . S
C575 C576 1.335 . S
C576 C575 1.335 . S
C576 C577 1.398 . S
C576 H598 0.930 . S
C577 C572 1.382 . S
C577 C576 1.398 . S
C577 H599 0.929 . S
C578 O588 1.271 . S
C578 O589 1.251 . S
C579 O590 1.252 . S
C579 O591 1.272 . S
O580 Sm560 2.543 . S
O580 C562 1.261 . S
O581 Sm560 2.450 . S
O581 C562 1.242 . S
O582 Sm560 2.681 . S
O582 Sm561 2.386 . S
O582 C569 1.271 . S
O583 Sm560 2.464 . S
O583 C569 1.251 . S
O584 Sm560 2.396 . S
O584 C570 1.252 . S
O585 Sm561 2.408 . S
O585 C570 1.272 . S
O586 Sm561 2.543 . S
O586 C571 1.261 . S
O587 Sm561 2.450 . S
O587 C571 1.242 . S
O588 Sm560 2.386 . S
O588 Sm561 2.681 . S
O588 C578 1.271 . S
O589 Sm561 2.464 . S
O589 C578 1.251 . S
O590 Sm561 2.396 . S
O590 C579 1.252 . S
O591 Sm560 2.408 . S
O591 C579 1.272 . S
H592 C564 0.930 . S
H593 C565 0.929 . S
H594 C567 0.930 . S
H595 C568 0.929 . S
H596 C573 0.930 . S
H597 C574 0.929 . S
H598 C576 0.930 . S
H599 C577 0.929 . S
Sm600 C602 2.846 . S
Sm600 O620 2.543 . S
Sm600 O621 2.450 . S
Sm600 O622 2.681 . S
Sm600 O623 2.464 . S
Sm600 O624 2.396 . S
Sm600 O628 2.386 . S
Sm600 O631 2.408 . S
Sm601 C611 2.846 . S
Sm601 O622 2.386 . S
Sm601 O625 2.408 . S
Sm601 O626 2.543 . S
Sm601 O627 2.450 . S
Sm601 O628 2.681 . S
Sm601 O629 2.464 . S
Sm601 O630 2.396 . S
C602 Sm600 2.846 . S
C602 C603 1.506 . S
C602 O620 1.261 . S
C602 O621 1.242 . S
C603 C602 1.506 . S
C603 C604 1.358 . S
C603 C608 1.382 . S
C604 C603 1.358 . S
C604 C605 1.385 . S
C604 H632 0.930 . S
C605 C604 1.385 . S
C605 C606 1.395 . S
C605 H633 0.929 . S
C606 C605 1.395 . S
C606 C607 1.335 . S
C607 C606 1.335 . S
C607 C608 1.398 . S
C607 H634 0.930 . S
C608 C603 1.382 . S
C608 C607 1.398 . S
C608 H635 0.929 . S
C609 O622 1.271 . S
C609 O623 1.251 . S
C610 O624 1.252 . S
C610 O625 1.272 . S
C611 Sm601 2.846 . S
C611 C612 1.506 . S
C611 O626 1.261 . S
C611 O627 1.242 . S
C612 C611 1.506 . S
C612 C613 1.358 1_545 S
C612 C617 1.382 . S
C613 C612 1.358 1_565 S
C613 C614 1.385 . S
C613 H636 0.930 . S
C614 C613 1.385 . S
C614 C615 1.395 . S
C614 H637 0.929 . S
C615 C614 1.395 . S
C615 C616 1.335 1_565 S
C616 C615 1.335 1_545 S
C616 C617 1.398 . S
C616 H638 0.930 . S
C617 C612 1.382 . S
C617 C616 1.398 . S
C617 H639 0.929 . S
C618 O628 1.271 . S
C618 O629 1.251 . S
C619 O630 1.252 . S
C619 O631 1.272 . S
O620 Sm600 2.543 . S
O620 C602 1.261 . S
O621 Sm600 2.450 . S
O621 C602 1.242 . S
O622 Sm600 2.681 . S
O622 Sm601 2.386 . S
O622 C609 1.271 . S
O623 Sm600 2.464 . S
O623 C609 1.251 . S
O624 Sm600 2.396 . S
O624 C610 1.252 . S
O625 Sm601 2.408 . S
O625 C610 1.272 . S
O626 Sm601 2.543 . S
O626 C611 1.261 . S
O627 Sm601 2.450 . S
O627 C611 1.242 . S
O628 Sm600 2.386 . S
O628 Sm601 2.681 . S
O628 C618 1.271 . S
O629 Sm601 2.464 . S
O629 C618 1.251 . S
O630 Sm601 2.396 . S
O630 C619 1.252 . S
O631 Sm600 2.408 . S
O631 C619 1.272 . S
H632 C604 0.930 . S
H633 C605 0.929 . S
H634 C607 0.930 . S
H635 C608 0.929 . S
H636 C613 0.930 . S
H637 C614 0.929 . S
H638 C616 0.930 . S
H639 C617 0.929 . S
H640 C648 0.929 . S
H641 C650 0.930 . S
H642 C652 0.930 . S
H643 C655 0.929 . S
H644 C658 0.930 . S
H645 C660 0.960 . S
H646 C660 0.960 . S
H647 C660 0.960 . S
C648 H640 0.929 . S
C648 C649 1.377 . S
C648 C650 1.384 . S
C649 C648 1.377 . S
C649 C655 1.390 . S
C650 H641 0.930 . S
C650 C648 1.384 . S
C650 C651 1.372 . S
C651 C650 1.372 . S
C651 C652 1.400 . S
C651 C656 1.490 . S
C652 H642 0.930 . S
C652 C651 1.400 . S
C652 C655 1.386 . S
H653 C669 0.930 . S
H654 C670 0.931 . S
C655 H643 0.929 . S
C655 C649 1.390 . S
C655 C652 1.386 . S
C656 C651 1.490 . S
C656 C658 1.395 . S
C656 C659 1.403 . S
H657 C663 0.930 . S
C658 H644 0.930 . S
C658 C656 1.395 . S
C658 C661 1.403 . S
C659 C656 1.403 . S
C659 C660 1.524 . S
C659 C663 1.400 . S
C660 H645 0.960 . S
C660 H646 0.960 . S
C660 H647 0.960 . S
C660 C659 1.524 . S
C661 C658 1.403 . S
C661 C662 1.392 . S
C661 C665 1.495 . S
C662 C661 1.392 . S
C662 C663 1.385 . S
C662 C664 1.478 . S
C663 H657 0.930 . S
C663 C659 1.400 . S
C663 C662 1.385 . S
C664 C662 1.478 . S
C664 C666 1.381 . S
C664 C670 1.383 . S
C665 C661 1.495 . S
C665 H671 0.959 . S
C665 H672 0.961 . S
C665 H673 0.960 . S
C666 C664 1.381 . S
C666 C667 1.394 . S
C666 H674 0.930 . S
C667 C666 1.394 . S
C667 C668 1.383 . S
C667 H675 0.929 . S
C668 C667 1.383 . S
C668 C669 1.377 . S
C669 H653 0.930 . S
C669 C668 1.377 . S
C669 C670 1.379 . S
C670 H654 0.931 . S
C670 C664 1.383 . S
C670 C669 1.379 . S
H671 C665 0.959 . S
H672 C665 0.961 . S
H673 C665 0.960 . S
H674 C666 0.930 . S
H675 C667 0.929 . S
H676 C684 0.929 . S
H677 C686 0.930 . S
H678 C688 0.930 . S
H679 C691 0.929 . S
H680 C694 0.930 . S
H681 C696 0.960 . S
H682 C696 0.960 . S
H683 C696 0.960 . S
C684 H676 0.929 . S
C684 C685 1.377 . S
C684 C686 1.384 . S
C685 C684 1.377 . S
C685 C691 1.390 . S
C686 H677 0.930 . S
C686 C684 1.384 . S
C686 C687 1.372 . S
C687 C686 1.372 . S
C687 C688 1.400 . S
C687 C692 1.490 . S
C688 H678 0.930 . S
C688 C687 1.400 . S
C688 C691 1.386 . S
H689 C705 0.930 . S
H690 C706 0.931 . S
C691 H679 0.929 . S
C691 C685 1.390 . S
C691 C688 1.386 . S
C692 C687 1.490 . S
C692 C694 1.395 . S
C692 C695 1.403 . S
H693 C699 0.930 . S
C694 H680 0.930 . S
C694 C692 1.395 . S
C694 C697 1.403 . S
C695 C692 1.403 . S
C695 C696 1.524 . S
C695 C699 1.400 . S
C696 H681 0.960 . S
C696 H682 0.960 . S
C696 H683 0.960 . S
C696 C695 1.524 . S
C697 C694 1.403 . S
C697 C698 1.392 . S
C697 C701 1.495 . S
C698 C697 1.392 . S
C698 C699 1.385 . S
C698 C700 1.478 . S
C699 H693 0.930 . S
C699 C695 1.400 . S
C699 C698 1.385 . S
C700 C698 1.478 . S
C700 C702 1.381 . S
C700 C706 1.383 . S
C701 C697 1.495 . S
C701 H707 0.959 . S
C701 H708 0.961 . S
C701 H709 0.960 . S
C702 C700 1.381 . S
C702 C703 1.394 . S
C702 H710 0.930 . S
C703 C702 1.394 . S
C703 C704 1.383 . S
C703 H711 0.929 . S
C704 C703 1.383 . S
C704 C705 1.377 . S
C705 H689 0.930 . S
C705 C704 1.377 . S
C705 C706 1.379 . S
C706 H690 0.931 . S
C706 C700 1.383 . S
C706 C705 1.379 . S
H707 C701 0.959 . S
H708 C701 0.961 . S
H709 C701 0.960 . S
H710 C702 0.930 . S
H711 C703 0.929 . S
H712 C720 0.929 . S
H713 C722 0.930 . S
H714 C724 0.930 . S
H715 C727 0.929 . S
H716 C730 0.930 . S
H717 C732 0.960 . S
H718 C732 0.960 . S
H719 C732 0.960 . S
C720 H712 0.929 . S
C720 C721 1.377 . S
C720 C722 1.384 . S
C721 C720 1.377 . S
C721 C727 1.390 . S
C722 H713 0.930 . S
C722 C720 1.384 . S
C722 C723 1.372 . S
C723 C722 1.372 . S
C723 C724 1.400 . S
C723 C728 1.490 . S
C724 H714 0.930 . S
C724 C723 1.400 . S
C724 C727 1.386 . S
H725 C741 0.930 . S
H726 C742 0.931 . S
C727 H715 0.929 . S
C727 C721 1.390 . S
C727 C724 1.386 . S
C728 C723 1.490 . S
C728 C730 1.395 . S
C728 C731 1.403 . S
H729 C735 0.930 . S
C730 H716 0.930 . S
C730 C728 1.395 . S
C730 C733 1.403 1_455 S
C731 C728 1.403 . S
C731 C732 1.524 . S
C731 C735 1.400 1_455 S
C732 H717 0.960 . S
C732 H718 0.960 . S
C732 H719 0.960 . S
C732 C731 1.524 . S
C733 C730 1.403 1_655 S
C733 C734 1.392 . S
C733 C737 1.495 . S
C734 C733 1.392 . S
C734 C735 1.385 . S
C734 C736 1.478 . S
C735 H729 0.930 . S
C735 C731 1.400 1_655 S
C735 C734 1.385 . S
C736 C734 1.478 . S
C736 C738 1.381 . S
C736 C742 1.383 . S
C737 C733 1.495 . S
C737 H743 0.959 . S
C737 H744 0.961 . S
C737 H745 0.960 . S
C738 C736 1.381 . S
C738 C739 1.394 . S
C738 H746 0.930 . S
C739 C738 1.394 . S
C739 C740 1.383 . S
C739 H747 0.929 . S
C740 C739 1.383 . S
C740 C741 1.377 . S
C741 H725 0.930 . S
C741 C740 1.377 . S
C741 C742 1.379 . S
C742 H726 0.931 . S
C742 C736 1.383 . S
C742 C741 1.379 . S
H743 C737 0.959 . S
H744 C737 0.961 . S
H745 C737 0.960 . S
H746 C738 0.930 . S
H747 C739 0.929 . S
H748 C756 0.929 . S
H749 C758 0.930 . S
H750 C760 0.930 . S
H751 C763 0.929 . S
H752 C766 0.930 . S
H753 C768 0.960 . S
H754 C768 0.960 . S
H755 C768 0.960 . S
C756 H748 0.929 . S
C756 C757 1.377 . S
C756 C758 1.384 . S
C757 C756 1.377 . S
C757 C763 1.390 . S
C758 H749 0.930 . S
C758 C756 1.384 . S
C758 C759 1.372 . S
C759 C758 1.372 . S
C759 C760 1.400 . S
C759 C764 1.490 . S
C760 H750 0.930 . S
C760 C759 1.400 . S
C760 C763 1.386 . S
H761 C777 0.930 . S
H762 C778 0.931 . S
C763 H751 0.929 . S
C763 C757 1.390 . S
C763 C760 1.386 . S
C764 C759 1.490 . S
C764 C766 1.395 1_455 S
C764 C767 1.403 . S
H765 C771 0.930 . S
C766 H752 0.930 . S
C766 C764 1.395 1_655 S
C766 C769 1.403 . S
C767 C764 1.403 . S
C767 C768 1.524 . S
C767 C771 1.400 . S
C768 H753 0.960 . S
C768 H754 0.960 . S
C768 H755 0.960 . S
C768 C767 1.524 . S
C769 C766 1.403 . S
C769 C770 1.392 . S
C769 C773 1.495 . S
C770 C769 1.392 . S
C770 C771 1.385 1_655 S
C770 C772 1.478 . S
C771 H765 0.930 . S
C771 C767 1.400 . S
C771 C770 1.385 1_455 S
C772 C770 1.478 . S
C772 C774 1.381 . S
C772 C778 1.383 . S
C773 C769 1.495 . S
C773 H779 0.959 . S
C773 H780 0.961 . S
C773 H781 0.960 . S
C774 C772 1.381 . S
C774 C775 1.394 . S
C774 H782 0.930 . S
C775 C774 1.394 . S
C775 C776 1.383 . S
C775 H783 0.929 . S
C776 C775 1.383 . S
C776 C777 1.377 . S
C777 H761 0.930 . S
C777 C776 1.377 . S
C777 C778 1.379 . S
C778 H762 0.931 . S
C778 C772 1.383 . S
C778 C777 1.379 . S
H779 C773 0.959 . S
H780 C773 0.961 . S
H781 C773 0.960 . S
H782 C774 0.930 . S
H783 C775 0.929 . S
H784 C792 0.929 . S
H785 C794 0.930 . S
H786 C796 0.930 . S
H787 C799 0.929 . S
H788 C802 0.930 . S
H789 C804 0.960 . S
H790 C804 0.960 . S
H791 C804 0.960 . S
C792 H784 0.929 . S
C792 C793 1.377 . S
C792 C794 1.384 . S
C793 C792 1.377 . S
C793 C799 1.390 . S
C794 H785 0.930 . S
C794 C792 1.384 . S
C794 C795 1.372 . S
C795 C794 1.372 . S
C795 C796 1.400 . S
C795 C800 1.490 . S
C796 H786 0.930 . S
C796 C795 1.400 . S
C796 C799 1.386 . S
H797 C813 0.930 . S
H798 C814 0.931 . S
C799 H787 0.929 . S
C799 C793 1.390 . S
C799 C796 1.386 . S
C800 C795 1.490 . S
C800 C802 1.395 . S
C800 C803 1.403 . S
H801 C807 0.930 . S
C802 H788 0.930 . S
C802 C800 1.395 . S
C802 C805 1.403 . S
C803 C800 1.403 . S
C803 C804 1.524 . S
C803 C807 1.400 . S
C804 H789 0.960 . S
C804 H790 0.960 . S
C804 H791 0.960 . S
C804 C803 1.524 . S
C805 C802 1.403 . S
C805 C806 1.392 . S
C805 C809 1.495 . S
C806 C805 1.392 . S
C806 C807 1.385 . S
C806 C808 1.478 . S
C807 H801 0.930 . S
C807 C803 1.400 . S
C807 C806 1.385 . S
C808 C806 1.478 . S
C808 C810 1.381 . S
C808 C814 1.383 . S
C809 C805 1.495 . S
C809 H815 0.959 . S
C809 H816 0.961 . S
C809 H817 0.960 . S
C810 C808 1.381 . S
C810 C811 1.394 . S
C810 H818 0.930 . S
C811 C810 1.394 . S
C811 C812 1.383 . S
C811 H819 0.929 . S
C812 C811 1.383 . S
C812 C813 1.377 . S
C813 H797 0.930 . S
C813 C812 1.377 . S
C813 C814 1.379 . S
C814 H798 0.931 . S
C814 C808 1.383 . S
C814 C813 1.379 . S
H815 C809 0.959 . S
H816 C809 0.961 . S
H817 C809 0.960 . S
H818 C810 0.930 . S
H819 C811 0.929 . S
H820 C828 0.929 . S
H821 C830 0.930 . S
H822 C832 0.930 . S
H823 C835 0.929 . S
H824 C838 0.930 . S
H825 C840 0.960 . S
H826 C840 0.960 . S
H827 C840 0.960 . S
C828 H820 0.929 . S
C828 C829 1.377 . S
C828 C830 1.384 . S
C829 C828 1.377 . S
C829 C835 1.390 . S
C830 H821 0.930 . S
C830 C828 1.384 . S
C830 C831 1.372 . S
C831 C830 1.372 . S
C831 C832 1.400 . S
C831 C836 1.490 . S
C832 H822 0.930 . S
C832 C831 1.400 . S
C832 C835 1.386 . S
H833 C849 0.930 . S
H834 C850 0.931 . S
C835 H823 0.929 . S
C835 C829 1.390 . S
C835 C832 1.386 . S
C836 C831 1.490 . S
C836 C838 1.395 . S
C836 C839 1.403 . S
H837 C843 0.930 . S
C838 H824 0.930 . S
C838 C836 1.395 . S
C838 C841 1.403 . S
C839 C836 1.403 . S
C839 C840 1.524 . S
C839 C843 1.400 . S
C840 H825 0.960 . S
C840 H826 0.960 . S
C840 H827 0.960 . S
C840 C839 1.524 . S
C841 C838 1.403 . S
C841 C842 1.392 . S
C841 C845 1.495 . S
C842 C841 1.392 . S
C842 C843 1.385 . S
C842 C844 1.478 . S
C843 H837 0.930 . S
C843 C839 1.400 . S
C843 C842 1.385 . S
C844 C842 1.478 . S
C844 C846 1.381 . S
C844 C850 1.383 . S
C845 C841 1.495 . S
C845 H851 0.959 . S
C845 H852 0.961 . S
C845 H853 0.960 . S
C846 C844 1.381 . S
C846 C847 1.394 . S
C846 H854 0.930 . S
C847 C846 1.394 . S
C847 C848 1.383 . S
C847 H855 0.929 . S
C848 C847 1.383 . S
C848 C849 1.377 . S
C849 H833 0.930 . S
C849 C848 1.377 . S
C849 C850 1.379 . S
C850 H834 0.931 . S
C850 C844 1.383 . S
C850 C849 1.379 . S
H851 C845 0.959 . S
H852 C845 0.961 . S
H853 C845 0.960 . S
H854 C846 0.930 . S
H855 C847 0.929 . S
H856 C864 0.929 . S
H857 C866 0.930 . S
H858 C868 0.930 . S
H859 C871 0.929 . S
H860 C874 0.932 . S
H861 C876 0.960 . S
H862 C876 0.960 . S
H863 C876 0.960 . S
C864 H856 0.929 . S
C864 C865 1.377 . S
C864 C866 1.384 . S
C865 C864 1.377 . S
C865 C871 1.390 . S
C866 H857 0.930 . S
C866 C864 1.384 . S
C866 C867 1.372 . S
C867 C866 1.372 . S
C867 C868 1.400 . S
C867 C872 1.490 . S
C868 H858 0.930 . S
C868 C867 1.400 . S
C868 C871 1.386 . S
H869 C885 0.930 . S
H870 C886 0.931 . S
C871 H859 0.929 . S
C871 C865 1.390 . S
C871 C868 1.386 . S
C872 C867 1.490 . S
C872 C874 1.411 . S
C872 C875 1.403 . S
H873 C879 0.930 . S
C874 H860 0.932 . S
C874 C872 1.411 . S
C874 C877 1.385 1_455 S
C875 C872 1.403 . S
C875 C876 1.524 . S
C875 C879 1.400 1_455 S
C876 H861 0.960 . S
C876 H862 0.960 . S
C876 H863 0.960 . S
C876 C875 1.524 . S
C877 C874 1.385 1_655 S
C877 C878 1.392 . S
C877 C881 1.495 . S
C878 C877 1.392 . S
C878 C879 1.385 . S
C878 C880 1.478 . S
C879 H873 0.930 . S
C879 C875 1.400 1_655 S
C879 C878 1.385 . S
C880 C878 1.478 . S
C880 C882 1.381 . S
C880 C886 1.383 . S
C881 C877 1.495 . S
C881 H887 0.959 . S
C881 H888 0.961 . S
C881 H889 0.960 . S
C882 C880 1.381 . S
C882 C883 1.394 . S
C882 H890 0.930 . S
C883 C882 1.394 . S
C883 C884 1.383 . S
C883 H891 0.929 . S
C884 C883 1.383 . S
C884 C885 1.377 . S
C885 H869 0.930 . S
C885 C884 1.377 . S
C885 C886 1.379 . S
C886 H870 0.931 . S
C886 C880 1.383 . S
C886 C885 1.379 . S
H887 C881 0.959 . S
H888 C881 0.961 . S
H889 C881 0.960 . S
H890 C882 0.930 . S
H891 C883 0.929 . S
H892 C900 0.929 . S
H893 C902 0.930 1_655 S
H894 C904 0.930 . S
H895 C907 0.929 . S
H896 C910 0.930 . S
H897 C912 0.960 . S
H898 C912 0.960 . S
H899 C912 0.960 . S
C900 H892 0.929 . S
C900 C901 1.377 . S
C900 C902 1.384 . S
C901 C900 1.377 . S
C901 C907 1.390 . S
C902 H893 0.930 1_455 S
C902 C900 1.384 . S
C902 C903 1.372 . S
C903 C902 1.372 . S
C903 C904 1.400 . S
C903 C908 1.490 . S
C904 H894 0.930 . S
C904 C903 1.400 . S
C904 C907 1.386 . S
H905 C921 0.930 . S
H906 C922 0.931 1_455 S
C907 H895 0.929 . S
C907 C901 1.390 . S
C907 C904 1.386 . S
C908 C903 1.490 . S
C908 C910 1.395 . S
C908 C911 1.403 . S
H909 C915 0.930 . S
C910 H896 0.930 . S
C910 C908 1.395 . S
C910 C913 1.403 1_455 S
C911 C908 1.403 . S
C911 C912 1.524 . S
C911 C915 1.400 1_455 S
C912 H897 0.960 . S
C912 H898 0.960 . S
C912 H899 0.960 . S
C912 C911 1.524 . S
C913 C910 1.403 1_655 S
C913 C914 1.392 . S
C913 C917 1.495 . S
C914 C913 1.392 . S
C914 C915 1.385 . S
C914 C916 1.478 . S
C915 H909 0.930 . S
C915 C911 1.400 1_655 S
C915 C914 1.385 . S
C916 C914 1.478 . S
C916 C918 1.381 . S
C916 C922 1.383 . S
C917 C913 1.495 . S
C917 H923 0.959 . S
C917 H924 0.961 . S
C917 H925 0.960 . S
C918 C916 1.381 . S
C918 C919 1.394 . S
C918 H926 0.930 . S
C919 C918 1.394 . S
C919 C920 1.383 . S
C919 H927 0.929 . S
C920 C919 1.383 . S
C920 C921 1.377 . S
C921 H905 0.930 . S
C921 C920 1.377 . S
C921 C922 1.379 . S
C922 H906 0.931 1_655 S
C922 C916 1.383 . S
C922 C921 1.379 . S
H923 C917 0.959 . S
H924 C917 0.961 . S
H925 C917 0.960 . S
H926 C918 0.930 . S
H927 C919 0.929 . S
H928 C936 0.929 . S
H929 C938 0.905 1_556 S
H930 C940 0.930 . S
H931 C943 0.929 . S
H932 C946 0.930 . S
H933 C948 0.960 . S
H934 C948 0.960 . S
H935 C948 0.960 1_545 S
C936 H928 0.929 . S
C936 C937 1.377 1_565 S
C936 C938 1.384 . S
C937 C936 1.377 1_545 S
C937 C943 1.390 . S
C938 H929 0.905 1_554 S
C938 C936 1.384 . S
C938 C939 1.372 1_565 S
C939 C938 1.372 1_545 S
C939 C940 1.400 . S
C939 C944 1.493 . S
C940 H930 0.930 . S
C940 C939 1.400 . S
C940 C943 1.386 . S
H941 C957 0.930 . S
H942 C958 0.931 . S
C943 H931 0.929 . S
C943 C937 1.390 . S
C943 C940 1.386 . S
C944 C939 1.493 . S
C944 C946 1.401 1_554 S
C944 C947 1.395 1_545 S
H945 C951 0.930 . S
C946 H932 0.930 . S
C946 C944 1.401 1_556 S
C946 C949 1.403 . S
C947 C944 1.395 1_565 S
C947 C948 1.524 . S
C947 C951 1.400 . S
C948 H933 0.960 . S
C948 H934 0.960 . S
C948 H935 0.960 1_565 S
C948 C947 1.524 . S
C949 C946 1.403 . S
C949 C950 1.392 1_545 S
C949 C953 1.495 . S
C950 C949 1.392 1_565 S
C950 C951 1.385 1_556 S
C950 C952 1.478 . S
C951 H945 0.930 . S
C951 C947 1.400 . S
C951 C950 1.385 1_554 S
C952 C950 1.478 . S
C952 C954 1.381 . S
C952 C958 1.383 1_565 S
C953 C949 1.495 . S
C953 H959 0.959 . S
C953 H960 0.961 . S
C953 H961 0.960 1_545 S
C954 C952 1.381 . S
C954 C955 1.394 . S
C954 H962 0.930 . S
C955 C954 1.394 . S
C955 C956 1.383 . S
C955 H963 0.929 . S
C956 C955 1.383 . S
C956 C957 1.377 1_565 S
C957 H941 0.930 . S
C957 C956 1.377 1_545 S
C957 C958 1.379 . S
C958 H942 0.931 . S
C958 C952 1.383 1_545 S
C958 C957 1.379 . S
H959 C953 0.959 . S
H960 C953 0.961 . S
H961 C953 0.960 1_565 S
H962 C954 0.930 . S
H963 C955 0.929 . S
H964 C972 0.929 . S
H965 C974 0.930 . S
H966 C976 0.930 . S
H967 C979 0.929 . S
H968 C982 0.930 . S
H969 C984 0.960 . S
H970 C984 0.960 . S
H971 C984 0.960 . S
C972 H964 0.929 . S
C972 C973 1.377 . S
C972 C974 1.384 . S
C973 C972 1.377 . S
C973 C979 1.390 . S
C974 H965 0.930 . S
C974 C972 1.384 . S
C974 C975 1.372 . S
C975 C974 1.372 . S
C975 C976 1.400 . S
C975 C980 1.490 . S
C976 H966 0.930 . S
C976 C975 1.400 . S
C976 C979 1.386 . S
H977 C993 0.930 . S
H978 C994 0.931 . S
C979 H967 0.929 . S
C979 C973 1.390 . S
C979 C976 1.386 . S
C980 C975 1.490 . S
C980 C982 1.395 . S
C980 C983 1.403 . S
H981 C987 0.930 . S
C982 H968 0.930 . S
C982 C980 1.395 . S
C982 C985 1.403 . S
C983 C980 1.403 . S
C983 C984 1.524 . S
C983 C987 1.400 . S
C984 H969 0.960 . S
C984 H970 0.960 . S
C984 H971 0.960 . S
C984 C983 1.524 . S
C985 C982 1.403 . S
C985 C986 1.392 . S
C985 C989 1.495 . S
C986 C985 1.392 . S
C986 C987 1.385 . S
C986 C988 1.478 . S
C987 H981 0.930 . S
C987 C983 1.400 . S
C987 C986 1.385 . S
C988 C986 1.478 . S
C988 C990 1.381 . S
C988 C994 1.383 . S
C989 C985 1.495 . S
C989 H995 0.959 . S
C989 H996 0.961 . S
C989 H997 0.960 . S
C990 C988 1.381 . S
C990 C991 1.394 . S
C990 H998 0.930 . S
C991 C990 1.394 . S
C991 C992 1.383 . S
C991 H999 0.929 . S
C992 C991 1.383 . S
C992 C993 1.377 . S
C993 H977 0.930 . S
C993 C992 1.377 . S
C993 C994 1.379 . S
C994 H978 0.931 . S
C994 C988 1.383 . S
C994 C993 1.379 . S
H995 C989 0.959 . S
H996 C989 0.961 . S
H997 C989 0.960 . S
H998 C990 0.930 . S
H999 C991 0.929 . S
H1000 C1008 0.929 . S
H1001 C1010 0.930 . S
H1002 C1012 0.930 . S
H1003 C1015 0.929 . S
H1004 C1018 0.930 . S
H1005 C1020 0.960 . S
H1006 C1020 0.960 1_565 S
H1007 C1020 0.960 . S
C1008 H1000 0.929 . S
C1008 C1009 1.377 . S
C1008 C1010 1.384 . S
C1009 C1008 1.377 . S
C1009 C1015 1.390 1_565 S
C1010 H1001 0.930 . S
C1010 C1008 1.384 . S
C1010 C1011 1.372 . S
C1011 C1010 1.372 . S
C1011 C1012 1.400 1_565 S
C1011 C1016 1.490 . S
C1012 H1002 0.930 . S
C1012 C1011 1.400 1_545 S
C1012 C1015 1.386 . S
H1013 C1029 0.930 . S
H1014 C1030 0.931 . S
C1015 H1003 0.929 . S
C1015 C1009 1.390 1_545 S
C1015 C1012 1.386 . S
C1016 C1011 1.490 . S
C1016 C1018 1.395 . S
C1016 C1019 1.403 1_565 S
H1017 C1023 0.930 . S
C1018 H1004 0.930 . S
C1018 C1016 1.395 . S
C1018 C1021 1.403 1_455 S
C1019 C1016 1.403 1_545 S
C1019 C1020 1.524 . S
C1019 C1023 1.400 1_455 S
C1020 H1005 0.960 . S
C1020 H1006 0.960 1_545 S
C1020 H1007 0.960 . S
C1020 C1019 1.524 . S
C1021 C1018 1.403 1_655 S
C1021 C1022 1.397 . S
C1021 C1025 1.495 . S
C1022 C1021 1.397 . S
C1022 C1023 1.382 1_565 S
C1022 C1024 1.476 1_565 S
C1023 H1017 0.930 . S
C1023 C1019 1.400 1_655 S
C1023 C1022 1.382 1_545 S
C1024 C1022 1.476 1_545 S
C1024 C1026 1.381 1_545 S
C1024 C1030 1.383 . S
C1025 C1021 1.495 . S
C1025 H1031 0.959 . S
C1025 H1032 0.976 . S
C1025 H1033 0.960 . S
C1026 C1024 1.381 1_565 S
C1026 C1027 1.394 . S
C1026 H1034 0.930 . S
C1027 C1026 1.394 . S
C1027 C1028 1.383 1_565 S
C1027 H1035 0.929 . S
C1028 C1027 1.383 1_545 S
C1028 C1029 1.377 . S
C1029 H1013 0.930 . S
C1029 C1028 1.377 . S
C1029 C1030 1.379 . S
C1030 H1014 0.931 . S
C1030 C1024 1.383 . S
C1030 C1029 1.379 . S
H1031 C1025 0.959 . S
H1032 C1025 0.976 . S
H1033 C1025 0.960 . S
H1034 C1026 0.930 . S
H1035 C1027 0.929 . S
H1036 C1044 0.929 . S
H1037 C1046 0.930 . S
H1038 C1048 0.930 . S
H1039 C1051 0.929 . S
H1040 C1054 0.930 . S
H1041 C1056 0.960 . S
H1042 C1056 0.960 . S
H1043 C1056 0.960 . S
C1044 H1036 0.929 . S
C1044 C1045 1.377 . S
C1044 C1046 1.384 . S
C1045 C1044 1.377 . S
C1045 C1051 1.390 . S
C1046 H1037 0.930 . S
C1046 C1044 1.384 . S
C1046 C1047 1.372 . S
C1047 C1046 1.372 . S
C1047 C1048 1.400 . S
C1047 C1052 1.490 . S
C1048 H1038 0.930 . S
C1048 C1047 1.400 . S
C1048 C1051 1.386 . S
H1049 C1065 0.930 . S
H1050 C1066 0.931 . S
C1051 H1039 0.929 . S
C1051 C1045 1.390 . S
C1051 C1048 1.386 . S
C1052 C1047 1.490 . S
C1052 C1054 1.395 . S
C1052 C1055 1.403 . S
H1053 C1059 0.930 . S
C1054 H1040 0.930 . S
C1054 C1052 1.395 . S
C1054 C1057 1.403 . S
C1055 C1052 1.403 . S
C1055 C1056 1.524 . S
C1055 C1059 1.400 . S
C1056 H1041 0.960 . S
C1056 H1042 0.960 . S
C1056 H1043 0.960 . S
C1056 C1055 1.524 . S
C1057 C1054 1.403 . S
C1057 C1058 1.392 . S
C1057 C1061 1.495 . S
C1058 C1057 1.392 . S
C1058 C1059 1.385 . S
C1058 C1060 1.478 . S
C1059 H1053 0.930 . S
C1059 C1055 1.400 . S
C1059 C1058 1.385 . S
C1060 C1058 1.478 . S
C1060 C1062 1.381 . S
C1060 C1066 1.383 . S
C1061 C1057 1.495 . S
C1061 H1067 0.959 . S
C1061 H1068 0.961 . S
C1061 H1069 0.960 . S
C1062 C1060 1.381 . S
C1062 C1063 1.394 . S
C1062 H1070 0.930 . S
C1063 C1062 1.394 . S
C1063 C1064 1.383 . S
C1063 H1071 0.929 . S
C1064 C1063 1.383 . S
C1064 C1065 1.377 . S
C1065 H1049 0.930 . S
C1065 C1064 1.377 . S
C1065 C1066 1.379 . S
C1066 H1050 0.931 . S
C1066 C1060 1.383 . S
C1066 C1065 1.379 . S
H1067 C1061 0.959 . S
H1068 C1061 0.961 . S
H1069 C1061 0.960 . S
H1070 C1062 0.930 . S
H1071 C1063 0.929 . S
H1072 C1080 0.929 . S
H1073 C1082 0.930 . S
H1074 C1084 0.930 . S
H1075 C1087 0.929 . S
H1076 C1090 0.930 . S
H1077 C1092 0.960 . S
H1078 C1092 0.960 . S
H1079 C1092 0.960 . S
C1080 H1072 0.929 . S
C1080 C1081 1.377 . S
C1080 C1082 1.384 . S
C1081 C1080 1.377 . S
C1081 C1087 1.390 . S
C1082 H1073 0.930 . S
C1082 C1080 1.384 . S
C1082 C1083 1.372 . S
C1083 C1082 1.372 . S
C1083 C1084 1.400 . S
C1083 C1088 1.490 . S
C1084 H1074 0.930 . S
C1084 C1083 1.400 . S
C1084 C1087 1.386 . S
H1085 C1101 0.930 . S
H1086 C1102 0.931 . S
C1087 H1075 0.929 . S
C1087 C1081 1.390 . S
C1087 C1084 1.386 . S
C1088 C1083 1.490 . S
C1088 C1090 1.395 . S
C1088 C1091 1.403 . S
H1089 C1095 0.930 . S
C1090 H1076 0.930 . S
C1090 C1088 1.395 . S
C1090 C1093 1.403 . S
C1091 C1088 1.403 . S
C1091 C1092 1.524 . S
C1091 C1095 1.400 . S
C1092 H1077 0.960 . S
C1092 H1078 0.960 . S
C1092 H1079 0.960 . S
C1092 C1091 1.524 . S
C1093 C1090 1.403 . S
C1093 C1094 1.392 . S
C1093 C1097 1.495 . S
C1094 C1093 1.392 . S
C1094 C1095 1.385 . S
C1094 C1096 1.478 . S
C1095 H1089 0.930 . S
C1095 C1091 1.400 . S
C1095 C1094 1.385 . S
C1096 C1094 1.478 . S
C1096 C1098 1.381 . S
C1096 C1102 1.383 . S
C1097 C1093 1.495 . S
C1097 H1103 0.959 . S
C1097 H1104 0.961 . S
C1097 H1105 0.960 . S
C1098 C1096 1.381 . S
C1098 C1099 1.394 . S
C1098 H1106 0.930 . S
C1099 C1098 1.394 . S
C1099 C1100 1.383 . S
C1099 H1107 0.929 . S
C1100 C1099 1.383 . S
C1100 C1101 1.377 . S
C1101 H1085 0.930 . S
C1101 C1100 1.377 . S
C1101 C1102 1.379 . S
C1102 H1086 0.931 . S
C1102 C1096 1.383 . S
C1102 C1101 1.379 . S
H1103 C1097 0.959 . S
H1104 C1097 0.961 . S
H1105 C1097 0.960 . S
H1106 C1098 0.930 . S
H1107 C1099 0.929 . S
H1108 C1116 0.929 . S
H1109 C1118 0.930 . S
H1110 C1120 0.930 . S
H1111 C1123 0.929 . S
H1112 C1126 0.930 . S
H1113 C1128 0.960 . S
H1114 C1128 0.960 . S
H1115 C1128 0.960 . S
C1116 H1108 0.929 . S
C1116 C1117 1.377 . S
C1116 C1118 1.384 . S
C1117 C1116 1.377 . S
C1117 C1123 1.390 . S
C1118 H1109 0.930 . S
C1118 C1116 1.384 . S
C1118 C1119 1.372 . S
C1119 C1118 1.372 . S
C1119 C1120 1.400 . S
C1119 C1124 1.490 . S
C1120 H1110 0.930 . S
C1120 C1119 1.400 . S
C1120 C1123 1.386 . S
H1121 C1137 0.930 . S
H1122 C1138 0.931 . S
C1123 H1111 0.929 . S
C1123 C1117 1.390 . S
C1123 C1120 1.386 . S
C1124 C1119 1.490 . S
C1124 C1126 1.395 . S
C1124 C1127 1.403 . S
H1125 C1131 0.930 . S
C1126 H1112 0.930 . S
C1126 C1124 1.395 . S
C1126 C1129 1.403 . S
C1127 C1124 1.403 . S
C1127 C1128 1.524 . S
C1127 C1131 1.400 . S
C1128 H1113 0.960 . S
C1128 H1114 0.960 . S
C1128 H1115 0.960 . S
C1128 C1127 1.524 . S
C1129 C1126 1.403 . S
C1129 C1130 1.392 . S
C1129 C1133 1.495 . S
C1130 C1129 1.392 . S
C1130 C1131 1.385 . S
C1130 C1132 1.478 . S
C1131 H1125 0.930 . S
C1131 C1127 1.400 . S
C1131 C1130 1.385 . S
C1132 C1130 1.478 . S
C1132 C1134 1.381 . S
C1132 C1138 1.383 . S
C1133 C1129 1.495 . S
C1133 H1139 0.959 . S
C1133 H1140 0.961 . S
C1133 H1141 0.960 . S
C1134 C1132 1.381 . S
C1134 C1135 1.394 . S
C1134 H1142 0.930 . S
C1135 C1134 1.394 . S
C1135 C1136 1.383 . S
C1135 H1143 0.929 . S
C1136 C1135 1.383 . S
C1136 C1137 1.377 . S
C1137 H1121 0.930 . S
C1137 C1136 1.377 . S
C1137 C1138 1.379 . S
C1138 H1122 0.931 . S
C1138 C1132 1.383 . S
C1138 C1137 1.379 . S
H1139 C1133 0.959 . S
H1140 C1133 0.961 . S
H1141 C1133 0.960 . S
H1142 C1134 0.930 . S
H1143 C1135 0.929 . S
H1144 C1152 0.929 . S
H1145 C1154 0.930 . S
H1146 C1156 0.930 . S
H1147 C1159 0.929 . S
H1148 C1162 0.930 . S
H1149 C1164 0.960 1_655 S
H1150 C1164 0.960 . S
H1151 C1164 0.960 . S
C1152 H1144 0.929 . S
C1152 C1153 1.377 . S
C1152 C1154 1.384 . S
C1153 C1152 1.377 . S
C1153 C1159 1.390 . S
C1154 H1145 0.930 . S
C1154 C1152 1.384 . S
C1154 C1155 1.372 . S
C1155 C1154 1.372 . S
C1155 C1156 1.400 . S
C1155 C1160 1.490 . S
C1156 H1146 0.930 . S
C1156 C1155 1.400 . S
C1156 C1159 1.386 . S
H1157 C1173 0.930 . S
H1158 C1174 0.931 . S
C1159 H1147 0.929 . S
C1159 C1153 1.390 . S
C1159 C1156 1.386 . S
C1160 C1155 1.490 . S
C1160 C1162 1.395 . S
C1160 C1163 1.403 . S
H1161 C1167 0.930 . S
C1162 H1148 0.930 . S
C1162 C1160 1.395 . S
C1162 C1165 1.403 1_455 S
C1163 C1160 1.403 . S
C1163 C1164 1.524 . S
C1163 C1167 1.400 1_455 S
C1164 H1149 0.960 1_455 S
C1164 H1150 0.960 . S
C1164 H1151 0.960 . S
C1164 C1163 1.524 . S
C1165 C1162 1.403 1_655 S
C1165 C1166 1.392 . S
C1165 C1169 1.495 . S
C1166 C1165 1.392 . S
C1166 C1167 1.385 . S
C1166 C1168 1.478 . S
C1167 H1161 0.930 . S
C1167 C1163 1.400 1_655 S
C1167 C1166 1.385 . S
C1168 C1166 1.478 . S
C1168 C1170 1.381 . S
C1168 C1174 1.383 . S
C1169 C1165 1.495 . S
C1169 H1175 0.959 1_655 S
C1169 H1176 0.961 . S
C1169 H1177 0.960 . S
C1170 C1168 1.381 . S
C1170 C1171 1.394 . S
C1170 H1178 0.930 . S
C1171 C1170 1.394 . S
C1171 C1172 1.383 . S
C1171 H1179 0.929 . S
C1172 C1171 1.383 . S
C1172 C1173 1.377 . S
C1173 H1157 0.930 . S
C1173 C1172 1.377 . S
C1173 C1174 1.379 . S
C1174 H1158 0.931 . S
C1174 C1168 1.383 . S
C1174 C1173 1.379 . S
H1175 C1169 0.959 1_455 S
H1176 C1169 0.961 . S
H1177 C1169 0.960 . S
H1178 C1170 0.930 . S
H1179 C1171 0.929 . S
H1180 C1188 0.929 . S
H1181 C1190 0.947 . S
H1182 C1192 0.930 . S
H1183 C1195 0.929 . S
H1184 C1198 0.930 . S
H1185 C1200 0.960 . S
H1186 C1200 0.960 . S
H1187 C1200 0.960 . S
C1188 H1180 0.929 . S
C1188 C1189 1.377 . S
C1188 C1190 1.384 . S
C1189 C1188 1.377 . S
C1189 C1195 1.390 . S
C1190 H1181 0.947 . S
C1190 C1188 1.384 . S
C1190 C1191 1.372 . S
C1191 C1190 1.372 . S
C1191 C1192 1.400 . S
C1191 C1196 1.490 . S
C1192 H1182 0.930 . S
C1192 C1191 1.400 . S
C1192 C1195 1.386 . S
H1193 C1209 0.930 . S
H1194 C1210 0.931 . S
C1195 H1183 0.929 . S
C1195 C1189 1.390 . S
C1195 C1192 1.386 . S
C1196 C1191 1.490 . S
C1196 C1198 1.395 1_554 S
C1196 C1199 1.403 . S
H1197 C1203 0.930 . S
C1198 H1184 0.930 . S
C1198 C1196 1.395 1_556 S
C1198 C1201 1.403 . S
C1199 C1196 1.403 . S
C1199 C1200 1.524 . S
C1199 C1203 1.400 . S
C1200 H1185 0.960 . S
C1200 H1186 0.960 . S
C1200 H1187 0.960 . S
C1200 C1199 1.524 . S
C1201 C1198 1.403 . S
C1201 C1202 1.392 . S
C1201 C1205 1.495 . S
C1202 C1201 1.392 . S
C1202 C1203 1.385 1_556 S
C1202 C1204 1.478 . S
C1203 H1197 0.930 . S
C1203 C1199 1.400 . S
C1203 C1202 1.385 1_554 S
C1204 C1202 1.478 . S
C1204 C1206 1.381 . S
C1204 C1210 1.383 . S
C1205 C1201 1.495 . S
C1205 H1211 0.959 . S
C1205 H1212 0.961 . S
C1205 H1213 0.960 . S
C1206 C1204 1.381 . S
C1206 C1207 1.394 . S
C1206 H1214 0.930 . S
C1207 C1206 1.394 . S
C1207 C1208 1.383 . S
C1207 H1215 0.929 . S
C1208 C1207 1.383 . S
C1208 C1209 1.377 . S
C1209 H1193 0.930 . S
C1209 C1208 1.377 . S
C1209 C1210 1.379 . S
C1210 H1194 0.931 . S
C1210 C1204 1.383 . S
C1210 C1209 1.379 . S
H1211 C1205 0.959 . S
H1212 C1205 0.961 . S
H1213 C1205 0.960 . S
H1214 C1206 0.930 . S
H1215 C1207 0.929 . S
H1216 C1224 0.929 . S
H1217 C1226 0.930 . S
H1218 C1228 0.930 . S
H1219 C1231 0.929 . S
H1220 C1234 0.930 . S
H1221 C1236 0.960 . S
H1222 C1236 0.960 . S
H1223 C1236 0.960 . S
C1224 H1216 0.929 . S
C1224 C1225 1.377 . S
C1224 C1226 1.384 . S
C1225 C1224 1.377 . S
C1225 C1231 1.390 . S
C1226 H1217 0.930 . S
C1226 C1224 1.384 . S
C1226 C1227 1.372 . S
C1227 C1226 1.372 . S
C1227 C1228 1.400 . S
C1227 C1232 1.490 . S
C1228 H1218 0.930 . S
C1228 C1227 1.400 . S
C1228 C1231 1.386 . S
H1229 C1245 0.930 . S
H1230 C1246 0.931 . S
C1231 H1219 0.929 . S
C1231 C1225 1.390 . S
C1231 C1228 1.386 . S
C1232 C1227 1.490 . S
C1232 C1234 1.395 . S
C1232 C1235 1.403 . S
H1233 C1239 0.930 . S
C1234 H1220 0.930 . S
C1234 C1232 1.395 . S
C1234 C1237 1.403 . S
C1235 C1232 1.403 . S
C1235 C1236 1.524 . S
C1235 C1239 1.400 . S
C1236 H1221 0.960 . S
C1236 H1222 0.960 . S
C1236 H1223 0.960 . S
C1236 C1235 1.524 . S
C1237 C1234 1.403 . S
C1237 C1238 1.392 . S
C1237 C1241 1.495 . S
C1238 C1237 1.392 . S
C1238 C1239 1.385 . S
C1238 C1240 1.478 . S
C1239 H1233 0.930 . S
C1239 C1235 1.400 . S
C1239 C1238 1.385 . S
C1240 C1238 1.478 . S
C1240 C1242 1.381 . S
C1240 C1246 1.383 . S
C1241 C1237 1.495 . S
C1241 H1247 0.959 . S
C1241 H1248 0.961 . S
C1241 H1249 0.960 . S
C1242 C1240 1.381 . S
C1242 C1243 1.394 . S
C1242 H1250 0.930 . S
C1243 C1242 1.394 . S
C1243 C1244 1.383 . S
C1243 H1251 0.929 . S
C1244 C1243 1.383 . S
C1244 C1245 1.377 . S
C1245 H1229 0.930 . S
C1245 C1244 1.377 . S
C1245 C1246 1.379 . S
C1246 H1230 0.931 . S
C1246 C1240 1.383 . S
C1246 C1245 1.379 . S
H1247 C1241 0.959 . S
H1248 C1241 0.961 . S
H1249 C1241 0.960 . S
H1250 C1242 0.930 . S
H1251 C1243 0.929 . S
H1252 C1260 0.929 . S
H1253 C1262 0.930 . S
H1254 C1264 0.930 . S
H1255 C1267 0.929 . S
H1256 C1270 0.930 . S
H1257 C1272 0.960 . S
H1258 C1272 0.960 . S
H1259 C1272 0.960 . S
C1260 H1252 0.929 . S
C1260 C1261 1.377 . S
C1260 C1262 1.384 . S
C1261 C1260 1.377 . S
C1261 C1267 1.390 . S
C1262 H1253 0.930 . S
C1262 C1260 1.384 . S
C1262 C1263 1.372 . S
C1263 C1262 1.372 . S
C1263 C1264 1.400 . S
C1263 C1268 1.490 . S
C1264 H1254 0.930 . S
C1264 C1263 1.400 . S
C1264 C1267 1.386 . S
H1265 C1281 0.930 . S
H1266 C1282 0.931 . S
C1267 H1255 0.929 . S
C1267 C1261 1.390 . S
C1267 C1264 1.386 . S
C1268 C1263 1.490 . S
C1268 C1270 1.395 . S
C1268 C1271 1.403 . S
H1269 C1275 0.930 . S
C1270 H1256 0.930 . S
C1270 C1268 1.395 . S
C1270 C1273 1.403 . S
C1271 C1268 1.403 . S
C1271 C1272 1.524 . S
C1271 C1275 1.400 . S
C1272 H1257 0.960 . S
C1272 H1258 0.960 . S
C1272 H1259 0.960 . S
C1272 C1271 1.524 . S
C1273 C1270 1.403 . S
C1273 C1274 1.392 . S
C1273 C1277 1.495 . S
C1274 C1273 1.392 . S
C1274 C1275 1.385 . S
C1274 C1276 1.478 . S
C1275 H1269 0.930 . S
C1275 C1271 1.400 . S
C1275 C1274 1.385 . S
C1276 C1274 1.478 . S
C1276 C1278 1.381 . S
C1276 C1282 1.383 . S
C1277 C1273 1.495 . S
C1277 H1283 0.959 . S
C1277 H1284 0.961 . S
C1277 H1285 0.960 . S
C1278 C1276 1.381 . S
C1278 C1279 1.394 . S
C1278 H1286 0.930 . S
C1279 C1278 1.394 . S
C1279 C1280 1.383 . S
C1279 H1287 0.929 . S
C1280 C1279 1.383 . S
C1280 C1281 1.377 . S
C1281 H1265 0.930 . S
C1281 C1280 1.377 . S
C1281 C1282 1.379 . S
C1282 H1266 0.931 . S
C1282 C1276 1.383 . S
C1282 C1281 1.379 . S
H1283 C1277 0.959 . S
H1284 C1277 0.961 . S
H1285 C1277 0.960 . S
H1286 C1278 0.930 . S
H1287 C1279 0.929 . S
H1288 C1296 0.929 . S
H1289 C1298 0.930 . S
H1290 C1300 0.930 . S
H1291 C1303 0.929 . S
H1292 C1306 0.930 . S
H1293 C1308 0.960 . S
H1294 C1308 0.960 . S
H1295 C1308 0.960 . S
C1296 H1288 0.929 . S
C1296 C1297 1.377 . S
C1296 C1298 1.384 . S
C1297 C1296 1.377 . S
C1297 C1303 1.390 . S
C1298 H1289 0.930 . S
C1298 C1296 1.384 . S
C1298 C1299 1.372 . S
C1299 C1298 1.372 . S
C1299 C1300 1.400 . S
C1299 C1304 1.490 . S
C1300 H1290 0.930 . S
C1300 C1299 1.400 . S
C1300 C1303 1.386 . S
H1301 C1317 0.930 . S
H1302 C1318 0.931 . S
C1303 H1291 0.929 . S
C1303 C1297 1.390 . S
C1303 C1300 1.386 . S
C1304 C1299 1.490 . S
C1304 C1306 1.395 . S
C1304 C1307 1.403 . S
H1305 C1311 0.930 . S
C1306 H1292 0.930 . S
C1306 C1304 1.395 . S
C1306 C1309 1.403 . S
C1307 C1304 1.403 . S
C1307 C1308 1.524 . S
C1307 C1311 1.400 . S
C1308 H1293 0.960 . S
C1308 H1294 0.960 . S
C1308 H1295 0.960 . S
C1308 C1307 1.524 . S
C1309 C1306 1.403 . S
C1309 C1310 1.392 . S
C1309 C1313 1.495 . S
C1310 C1309 1.392 . S
C1310 C1311 1.385 . S
C1310 C1312 1.478 . S
C1311 H1305 0.930 . S
C1311 C1307 1.400 . S
C1311 C1310 1.385 . S
C1312 C1310 1.478 . S
C1312 C1314 1.381 . S
C1312 C1318 1.383 . S
C1313 C1309 1.495 . S
C1313 H1319 0.959 . S
C1313 H1320 0.961 . S
C1313 H1321 0.960 . S
C1314 C1312 1.381 . S
C1314 C1315 1.394 . S
C1314 H1322 0.930 . S
C1315 C1314 1.394 . S
C1315 C1316 1.383 . S
C1315 H1323 0.929 . S
C1316 C1315 1.383 . S
C1316 C1317 1.377 . S
C1317 H1301 0.930 . S
C1317 C1316 1.377 . S
C1317 C1318 1.379 . S
C1318 H1302 0.931 . S
C1318 C1312 1.383 . S
C1318 C1317 1.379 . S
H1319 C1313 0.959 . S
H1320 C1313 0.961 . S
H1321 C1313 0.960 . S
H1322 C1314 0.930 . S
H1323 C1315 0.929 . S
H1324 C1332 0.929 . S
H1325 C1334 0.930 . S
H1326 C1336 0.930 . S
H1327 C1339 0.929 . S
H1328 C1342 0.930 . S
H1329 C1344 0.960 . S
H1330 C1344 0.960 . S
H1331 C1344 0.960 . S
C1332 H1324 0.929 . S
C1332 C1333 1.377 . S
C1332 C1334 1.384 . S
C1333 C1332 1.377 . S
C1333 C1339 1.390 . S
C1334 H1325 0.930 . S
C1334 C1332 1.384 . S
C1334 C1335 1.372 . S
C1335 C1334 1.372 . S
C1335 C1336 1.400 . S
C1335 C1340 1.490 . S
C1336 H1326 0.930 . S
C1336 C1335 1.400 . S
C1336 C1339 1.386 . S
H1337 C1353 0.930 . S
H1338 C1354 0.931 . S
C1339 H1327 0.929 . S
C1339 C1333 1.390 . S
C1339 C1336 1.386 . S
C1340 C1335 1.490 . S
C1340 C1342 1.395 . S
C1340 C1343 1.403 . S
H1341 C1347 0.930 . S
C1342 H1328 0.930 . S
C1342 C1340 1.395 . S
C1342 C1345 1.403 . S
C1343 C1340 1.403 . S
C1343 C1344 1.524 . S
C1343 C1347 1.400 . S
C1344 H1329 0.960 . S
C1344 H1330 0.960 . S
C1344 H1331 0.960 . S
C1344 C1343 1.524 . S
C1345 C1342 1.403 . S
C1345 C1346 1.392 . S
C1345 C1349 1.495 . S
C1346 C1345 1.392 . S
C1346 C1347 1.385 . S
C1346 C1348 1.478 . S
C1347 H1341 0.930 . S
C1347 C1343 1.400 . S
C1347 C1346 1.385 . S
C1348 C1346 1.478 . S
C1348 C1350 1.381 . S
C1348 C1354 1.383 . S
C1349 C1345 1.495 . S
C1349 H1355 0.959 . S
C1349 H1356 0.961 . S
C1349 H1357 0.960 . S
C1350 C1348 1.381 . S
C1350 C1351 1.394 . S
C1350 H1358 0.930 . S
C1351 C1350 1.394 . S
C1351 C1352 1.383 . S
C1351 H1359 0.929 . S
C1352 C1351 1.383 . S
C1352 C1353 1.377 . S
C1353 H1337 0.930 . S
C1353 C1352 1.377 . S
C1353 C1354 1.379 . S
C1354 H1338 0.931 . S
C1354 C1348 1.383 . S
C1354 C1353 1.379 . S
H1355 C1349 0.959 . S
H1356 C1349 0.961 . S
H1357 C1349 0.960 . S
H1358 C1350 0.930 . S
H1359 C1351 0.929 . S
H1360 C1368 0.929 . S
H1361 C1370 0.930 . S
H1362 C1372 0.930 . S
H1363 C1375 0.929 . S
H1364 C1378 0.930 . S
H1365 C1380 0.960 . S
H1366 C1380 0.960 . S
H1367 C1380 0.960 . S
C1368 H1360 0.929 . S
C1368 C1369 1.377 . S
C1368 C1370 1.384 . S
C1369 C1368 1.377 . S
C1369 C1375 1.390 . S
C1370 H1361 0.930 . S
C1370 C1368 1.384 . S
C1370 C1371 1.372 . S
C1371 C1370 1.372 . S
C1371 C1372 1.400 . S
C1371 C1376 1.490 . S
C1372 H1362 0.930 . S
C1372 C1371 1.400 . S
C1372 C1375 1.386 . S
H1373 C1389 0.930 . S
H1374 C1390 0.931 . S
C1375 H1363 0.929 . S
C1375 C1369 1.390 . S
C1375 C1372 1.386 . S
C1376 C1371 1.490 . S
C1376 C1378 1.395 . S
C1376 C1379 1.403 . S
H1377 C1383 0.930 . S
C1378 H1364 0.930 . S
C1378 C1376 1.395 . S
C1378 C1381 1.403 . S
C1379 C1376 1.403 . S
C1379 C1380 1.524 . S
C1379 C1383 1.400 . S
C1380 H1365 0.960 . S
C1380 H1366 0.960 . S
C1380 H1367 0.960 . S
C1380 C1379 1.524 . S
C1381 C1378 1.403 . S
C1381 C1382 1.392 . S
C1381 C1385 1.495 . S
C1382 C1381 1.392 . S
C1382 C1383 1.385 . S
C1382 C1384 1.478 . S
C1383 H1377 0.930 . S
C1383 C1379 1.400 . S
C1383 C1382 1.385 . S
C1384 C1382 1.478 . S
C1384 C1386 1.381 . S
C1384 C1390 1.383 . S
C1385 C1381 1.495 . S
C1385 H1391 0.959 . S
C1385 H1392 0.961 . S
C1385 H1393 0.960 . S
C1386 C1384 1.381 . S
C1386 C1387 1.394 . S
C1386 H1394 0.930 . S
C1387 C1386 1.394 . S
C1387 C1388 1.383 . S
C1387 H1395 0.929 . S
C1388 C1387 1.383 . S
C1388 C1389 1.377 . S
C1389 H1373 0.930 . S
C1389 C1388 1.377 . S
C1389 C1390 1.379 . S
C1390 H1374 0.931 . S
C1390 C1384 1.383 . S
C1390 C1389 1.379 . S
H1391 C1385 0.959 . S
H1392 C1385 0.961 . S
H1393 C1385 0.960 . S
H1394 C1386 0.930 . S
H1395 C1387 0.929 . S
H1396 C1404 0.929 . S
H1397 C1406 0.930 . S
H1398 C1408 0.930 . S
H1399 C1411 0.929 . S
H1400 C1414 0.930 . S
H1401 C1416 0.960 . S
H1402 C1416 0.960 . S
H1403 C1416 0.960 . S
C1404 H1396 0.929 . S
C1404 C1405 1.377 . S
C1404 C1406 1.384 . S
C1405 C1404 1.377 . S
C1405 C1411 1.390 . S
C1406 H1397 0.930 . S
C1406 C1404 1.384 . S
C1406 C1407 1.372 . S
C1407 C1406 1.372 . S
C1407 C1408 1.400 . S
C1407 C1412 1.490 . S
C1408 H1398 0.930 . S
C1408 C1407 1.400 . S
C1408 C1411 1.386 . S
H1409 C1425 0.930 . S
H1410 C1426 0.931 . S
C1411 H1399 0.929 . S
C1411 C1405 1.390 . S
C1411 C1408 1.386 . S
C1412 C1407 1.490 . S
C1412 C1414 1.395 . S
C1412 C1415 1.403 . S
H1413 C1419 0.930 . S
C1414 H1400 0.930 . S
C1414 C1412 1.395 . S
C1414 C1417 1.403 . S
C1415 C1412 1.403 . S
C1415 C1416 1.524 . S
C1415 C1419 1.400 . S
C1416 H1401 0.960 . S
C1416 H1402 0.960 . S
C1416 H1403 0.960 . S
C1416 C1415 1.524 . S
C1417 C1414 1.403 . S
C1417 C1418 1.392 . S
C1417 C1421 1.495 . S
C1418 C1417 1.392 . S
C1418 C1419 1.385 . S
C1418 C1420 1.478 . S
C1419 H1413 0.930 . S
C1419 C1415 1.400 . S
C1419 C1418 1.385 . S
C1420 C1418 1.478 . S
C1420 C1422 1.381 . S
C1420 C1426 1.383 . S
C1421 C1417 1.495 . S
C1421 H1427 0.959 . S
C1421 H1428 0.961 . S
C1421 H1429 0.960 . S
C1422 C1420 1.381 . S
C1422 C1423 1.394 . S
C1422 H1430 0.930 . S
C1423 C1422 1.394 . S
C1423 C1424 1.383 . S
C1423 H1431 0.929 . S
C1424 C1423 1.383 . S
C1424 C1425 1.377 . S
C1425 H1409 0.930 . S
C1425 C1424 1.377 . S
C1425 C1426 1.379 . S
C1426 H1410 0.931 . S
C1426 C1420 1.383 . S
C1426 C1425 1.379 . S
H1427 C1421 0.959 . S
H1428 C1421 0.961 . S
H1429 C1421 0.960 . S
H1430 C1422 0.930 . S
H1431 C1423 0.929 . S
H1432 C1440 0.929 . S
H1433 C1442 0.930 . S
H1434 C1444 0.930 . S
H1435 C1447 0.929 . S
H1436 C1450 0.930 . S
H1437 C1452 0.960 . S
H1438 C1452 0.960 . S
H1439 C1452 0.960 . S
C1440 H1432 0.929 . S
C1440 C1441 1.377 . S
C1440 C1442 1.384 . S
C1441 C1440 1.377 . S
C1441 C1447 1.390 . S
C1442 H1433 0.930 . S
C1442 C1440 1.384 . S
C1442 C1443 1.372 . S
C1443 C1442 1.372 . S
C1443 C1444 1.400 . S
C1443 C1448 1.490 . S
C1444 H1434 0.930 . S
C1444 C1443 1.400 . S
C1444 C1447 1.386 . S
H1445 C1461 0.930 . S
H1446 C1462 0.931 . S
C1447 H1435 0.929 . S
C1447 C1441 1.390 . S
C1447 C1444 1.386 . S
C1448 C1443 1.490 . S
C1448 C1450 1.395 . S
C1448 C1451 1.403 . S
H1449 C1455 0.930 . S
C1450 H1436 0.930 . S
C1450 C1448 1.395 . S
C1450 C1453 1.403 . S
C1451 C1448 1.403 . S
C1451 C1452 1.524 . S
C1451 C1455 1.400 . S
C1452 H1437 0.960 . S
C1452 H1438 0.960 . S
C1452 H1439 0.960 . S
C1452 C1451 1.524 . S
C1453 C1450 1.403 . S
C1453 C1454 1.392 . S
C1453 C1457 1.495 . S
C1454 C1453 1.392 . S
C1454 C1455 1.385 . S
C1454 C1456 1.478 . S
C1455 H1449 0.930 . S
C1455 C1451 1.400 . S
C1455 C1454 1.385 . S
C1456 C1454 1.478 . S
C1456 C1458 1.381 . S
C1456 C1462 1.383 . S
C1457 C1453 1.495 . S
C1457 H1463 0.959 . S
C1457 H1464 0.961 . S
C1457 H1465 0.960 . S
C1458 C1456 1.381 . S
C1458 C1459 1.394 . S
C1458 H1466 0.930 . S
C1459 C1458 1.394 . S
C1459 C1460 1.383 . S
C1459 H1467 0.929 . S
C1460 C1459 1.383 . S
C1460 C1461 1.377 . S
C1461 H1445 0.930 . S
C1461 C1460 1.377 . S
C1461 C1462 1.379 . S
C1462 H1446 0.931 . S
C1462 C1456 1.383 . S
C1462 C1461 1.379 . S
H1463 C1457 0.959 . S
H1464 C1457 0.961 . S
H1465 C1457 0.960 . S
H1466 C1458 0.930 . S
H1467 C1459 0.929 . S
H1468 C1476 0.929 . S
H1469 C1478 0.930 . S
H1470 C1480 0.930 . S
H1471 C1483 0.929 . S
H1472 C1486 0.930 . S
H1473 C1488 0.960 . S
H1474 C1488 0.960 . S
H1475 C1488 0.960 . S
C1476 H1468 0.929 . S
C1476 C1477 1.377 . S
C1476 C1478 1.384 . S
C1477 C1476 1.377 . S
C1477 C1483 1.390 . S
C1478 H1469 0.930 . S
C1478 C1476 1.384 . S
C1478 C1479 1.372 . S
C1479 C1478 1.372 . S
C1479 C1480 1.400 . S
C1479 C1484 1.490 . S
C1480 H1470 0.930 . S
C1480 C1479 1.400 . S
C1480 C1483 1.386 . S
H1481 C1497 0.930 . S
H1482 C1498 0.931 . S
C1483 H1471 0.929 . S
C1483 C1477 1.390 . S
C1483 C1480 1.386 . S
C1484 C1479 1.490 . S
C1484 C1486 1.395 . S
C1484 C1487 1.403 . S
H1485 C1491 0.930 . S
C1486 H1472 0.930 . S
C1486 C1484 1.395 . S
C1486 C1489 1.403 . S
C1487 C1484 1.403 . S
C1487 C1488 1.524 . S
C1487 C1491 1.400 . S
C1488 H1473 0.960 . S
C1488 H1474 0.960 . S
C1488 H1475 0.960 . S
C1488 C1487 1.524 . S
C1489 C1486 1.403 . S
C1489 C1490 1.392 . S
C1489 C1493 1.495 . S
C1490 C1489 1.392 . S
C1490 C1491 1.385 . S
C1490 C1492 1.478 . S
C1491 H1485 0.930 . S
C1491 C1487 1.400 . S
C1491 C1490 1.385 . S
C1492 C1490 1.478 . S
C1492 C1494 1.381 . S
C1492 C1498 1.383 . S
C1493 C1489 1.495 . S
C1493 H1499 0.959 . S
C1493 H1500 0.961 . S
C1493 H1501 0.960 . S
C1494 C1492 1.381 . S
C1494 C1495 1.394 . S
C1494 H1502 0.930 . S
C1495 C1494 1.394 . S
C1495 C1496 1.383 . S
C1495 H1503 0.929 . S
C1496 C1495 1.383 . S
C1496 C1497 1.377 . S
C1497 H1481 0.930 . S
C1497 C1496 1.377 . S
C1497 C1498 1.379 . S
C1498 H1482 0.931 . S
C1498 C1492 1.383 . S
C1498 C1497 1.379 . S
H1499 C1493 0.959 . S
H1500 C1493 0.961 . S
H1501 C1493 0.960 . S
H1502 C1494 0.930 . S
H1503 C1495 0.929 . S
H1504 C1512 0.929 . S
H1505 C1514 0.930 . S
H1506 C1516 0.930 . S
H1507 C1519 0.929 . S
H1508 C1522 0.930 . S
H1509 C1524 0.960 . S
H1510 C1524 0.960 . S
H1511 C1524 0.960 . S
C1512 H1504 0.929 . S
C1512 C1513 1.377 . S
C1512 C1514 1.384 . S
C1513 C1512 1.377 . S
C1513 C1519 1.390 . S
C1514 H1505 0.930 . S
C1514 C1512 1.384 . S
C1514 C1515 1.372 . S
C1515 C1514 1.372 . S
C1515 C1516 1.400 . S
C1515 C1520 1.490 . S
C1516 H1506 0.930 . S
C1516 C1515 1.400 . S
C1516 C1519 1.386 . S
H1517 C1533 0.930 1_545 S
H1518 C1534 0.931 . S
C1519 H1507 0.929 . S
C1519 C1513 1.390 . S
C1519 C1516 1.386 . S
C1520 C1515 1.490 . S
C1520 C1522 1.395 . S
C1520 C1523 1.403 . S
H1521 C1527 0.930 . S
C1522 H1508 0.930 . S
C1522 C1520 1.395 . S
C1522 C1525 1.403 . S
C1523 C1520 1.403 . S
C1523 C1524 1.524 . S
C1523 C1527 1.400 . S
C1524 H1509 0.960 . S
C1524 H1510 0.960 . S
C1524 H1511 0.960 . S
C1524 C1523 1.524 . S
C1525 C1522 1.403 . S
C1525 C1526 1.392 . S
C1525 C1529 1.495 . S
C1526 C1525 1.392 . S
C1526 C1527 1.385 . S
C1526 C1528 1.478 . S
C1527 H1521 0.930 . S
C1527 C1523 1.400 . S
C1527 C1526 1.385 . S
C1528 C1526 1.478 . S
C1528 C1530 1.381 . S
C1528 C1534 1.383 . S
C1529 C1525 1.495 . S
C1529 H1535 0.959 . S
C1529 H1536 0.961 . S
C1529 H1537 0.960 . S
C1530 C1528 1.381 . S
C1530 C1531 1.394 . S
C1530 H1538 0.930 . S
C1531 C1530 1.394 . S
C1531 C1532 1.376 1_565 S
C1531 H1539 0.929 . S
C1532 C1531 1.376 1_545 S
C1532 C1533 1.373 1_545 S
C1533 H1517 0.930 1_565 S
C1533 C1532 1.373 1_565 S
C1533 C1534 1.379 . S
C1534 H1518 0.931 . S
C1534 C1528 1.383 . S
C1534 C1533 1.379 . S
H1535 C1529 0.959 . S
H1536 C1529 0.961 . S
H1537 C1529 0.960 . S
H1538 C1530 0.930 . S
H1539 C1531 0.929 . S
H1540 C1548 0.929 . S
H1541 C1550 0.930 . S
H1542 C1552 0.930 . S
H1543 C1555 0.929 . S
H1544 C1558 0.930 . S
H1545 C1560 0.960 . S
H1546 C1560 0.960 . S
H1547 C1560 0.960 . S
C1548 H1540 0.929 . S
C1548 C1549 1.377 . S
C1548 C1550 1.384 . S
C1549 C1548 1.377 . S
C1549 C1555 1.390 . S
C1550 H1541 0.930 . S
C1550 C1548 1.384 . S
C1550 C1551 1.372 . S
C1551 C1550 1.372 . S
C1551 C1552 1.400 . S
C1551 C1556 1.490 . S
C1552 H1542 0.930 . S
C1552 C1551 1.400 . S
C1552 C1555 1.386 . S
H1553 C1569 0.930 . S
H1554 C1570 0.931 . S
C1555 H1543 0.929 . S
C1555 C1549 1.390 . S
C1555 C1552 1.386 . S
C1556 C1551 1.490 . S
C1556 C1558 1.395 . S
C1556 C1559 1.403 . S
H1557 C1563 0.930 . S
C1558 H1544 0.930 . S
C1558 C1556 1.395 . S
C1558 C1561 1.403 . S
C1559 C1556 1.403 . S
C1559 C1560 1.524 . S
C1559 C1563 1.400 . S
C1560 H1545 0.960 . S
C1560 H1546 0.960 . S
C1560 H1547 0.960 . S
C1560 C1559 1.524 . S
C1561 C1558 1.403 . S
C1561 C1562 1.392 . S
C1561 C1565 1.495 . S
C1562 C1561 1.392 . S
C1562 C1563 1.385 . S
C1562 C1564 1.478 . S
C1563 H1557 0.930 . S
C1563 C1559 1.400 . S
C1563 C1562 1.385 . S
C1564 C1562 1.478 . S
C1564 C1566 1.381 . S
C1564 C1570 1.383 . S
C1565 C1561 1.495 . S
C1565 H1571 0.959 . S
C1565 H1572 0.961 1_565 S
C1565 H1573 0.960 . S
C1566 C1564 1.381 . S
C1566 C1567 1.394 . S
C1566 H1574 0.930 . S
C1567 C1566 1.394 . S
C1567 C1568 1.383 . S
C1567 H1575 0.929 . S
C1568 C1567 1.383 . S
C1568 C1569 1.377 . S
C1569 H1553 0.930 . S
C1569 C1568 1.377 . S
C1569 C1570 1.379 . S
C1570 H1554 0.931 . S
C1570 C1564 1.383 . S
C1570 C1569 1.379 . S
H1571 C1565 0.959 . S
H1572 C1565 0.961 1_545 S
H1573 C1565 0.960 . S
H1574 C1566 0.930 . S
H1575 C1567 0.929 . S
H1576 C1584 0.929 . S
H1577 C1586 0.930 . S
H1578 C1588 0.930 . S
H1579 C1591 0.929 . S
H1580 C1594 0.930 . S
H1581 C1596 0.960 . S
H1582 C1596 0.960 . S
H1583 C1596 0.960 . S
C1584 H1576 0.929 . S
C1584 C1585 1.377 . S
C1584 C1586 1.384 . S
C1585 C1584 1.377 . S
C1585 C1591 1.389 . S
C1586 H1577 0.930 . S
C1586 C1584 1.384 . S
C1586 C1587 1.372 . S
C1587 C1586 1.372 . S
C1587 C1588 1.400 . S
C1587 C1592 1.490 . S
C1588 H1578 0.930 . S
C1588 C1587 1.400 . S
C1588 C1591 1.386 . S
H1589 C1605 0.930 . S
H1590 C1606 0.931 . S
C1591 H1579 0.929 . S
C1591 C1585 1.389 . S
C1591 C1588 1.386 . S
C1592 C1587 1.490 . S
C1592 C1594 1.395 . S
C1592 C1595 1.403 . S
H1593 C1599 0.930 . S
C1594 H1580 0.930 . S
C1594 C1592 1.395 . S
C1594 C1597 1.403 . S
C1595 C1592 1.403 . S
C1595 C1596 1.524 . S
C1595 C1599 1.400 . S
C1596 H1581 0.960 . S
C1596 H1582 0.960 . S
C1596 H1583 0.960 . S
C1596 C1595 1.524 . S
C1597 C1594 1.403 . S
C1597 C1598 1.392 . S
C1597 C1601 1.495 . S
C1598 C1597 1.392 . S
C1598 C1599 1.385 . S
C1598 C1600 1.478 . S
C1599 H1593 0.930 . S
C1599 C1595 1.400 . S
C1599 C1598 1.385 . S
C1600 C1598 1.478 . S
C1600 C1602 1.381 . S
C1600 C1606 1.383 . S
C1601 C1597 1.495 . S
C1601 H1607 0.959 . S
C1601 H1608 0.961 . S
C1601 H1609 0.960 . S
C1602 C1600 1.381 . S
C1602 C1603 1.394 . S
C1602 H1610 0.930 . S
C1603 C1602 1.394 . S
C1603 C1604 1.383 . S
C1603 H1611 0.929 . S
C1604 C1603 1.383 . S
C1604 C1605 1.377 . S
C1605 H1589 0.930 . S
C1605 C1604 1.377 . S
C1605 C1606 1.379 . S
C1606 H1590 0.931 . S
C1606 C1600 1.383 . S
C1606 C1605 1.379 . S
H1607 C1601 0.959 . S
H1608 C1601 0.961 . S
H1609 C1601 0.960 . S
H1610 C1602 0.930 . S
H1611 C1603 0.929 . S
H1612 C1620 0.929 . S
H1613 C1622 0.930 . S
H1614 C1624 0.930 . S
H1615 C1627 0.929 . S
H1616 C1630 0.930 . S
H1617 C1632 0.960 . S
H1618 C1632 0.960 . S
H1619 C1632 0.960 . S
C1620 H1612 0.929 . S
C1620 C1621 1.377 . S
C1620 C1622 1.384 . S
C1621 C1620 1.377 . S
C1621 C1627 1.390 . S
C1622 H1613 0.930 . S
C1622 C1620 1.384 . S
C1622 C1623 1.372 . S
C1623 C1622 1.372 . S
C1623 C1624 1.400 . S
C1623 C1628 1.490 . S
C1624 H1614 0.930 . S
C1624 C1623 1.400 . S
C1624 C1627 1.386 . S
H1625 C1641 0.930 . S
H1626 C1642 0.931 . S
C1627 H1615 0.929 . S
C1627 C1621 1.390 . S
C1627 C1624 1.386 . S
C1628 C1623 1.490 . S
C1628 C1630 1.395 . S
C1628 C1631 1.403 . S
H1629 C1635 0.930 . S
C1630 H1616 0.930 . S
C1630 C1628 1.395 . S
C1630 C1633 1.403 . S
C1631 C1628 1.403 . S
C1631 C1632 1.524 . S
C1631 C1635 1.400 . S
C1632 H1617 0.960 . S
C1632 H1618 0.960 . S
C1632 H1619 0.960 . S
C1632 C1631 1.524 . S
C1633 C1630 1.403 . S
C1633 C1634 1.392 . S
C1633 C1637 1.495 . S
C1634 C1633 1.392 . S
C1634 C1635 1.385 . S
C1634 C1636 1.478 . S
C1635 H1629 0.930 . S
C1635 C1631 1.400 . S
C1635 C1634 1.385 . S
C1636 C1634 1.478 . S
C1636 C1638 1.381 . S
C1636 C1642 1.383 . S
C1637 C1633 1.495 . S
C1637 H1643 0.959 1_545 S
C1637 H1644 0.961 1_545 S
C1637 H1645 0.958 1_545 S
C1638 C1636 1.381 . S
C1638 C1639 1.394 . S
C1638 H1646 0.930 . S
C1639 C1638 1.394 . S
C1639 C1640 1.383 . S
C1639 H1647 0.929 . S
C1640 C1639 1.383 . S
C1640 C1641 1.377 . S
C1641 H1625 0.930 . S
C1641 C1640 1.377 . S
C1641 C1642 1.379 . S
C1642 H1626 0.931 . S
C1642 C1636 1.383 . S
C1642 C1641 1.379 . S
H1643 C1637 0.959 1_565 S
H1644 C1637 0.961 1_565 S
H1645 C1637 0.958 1_565 S
H1646 C1638 0.930 . S
H1647 C1639 0.929 . S
H1648 C1656 0.929 . S
H1649 C1658 0.930 . S
H1650 C1660 0.930 . S
H1651 C1663 0.929 . S
H1652 C1666 0.930 . S
H1653 C1668 0.960 . S
H1654 C1668 0.960 . S
H1655 C1668 0.960 . S
C1656 H1648 0.929 . S
C1656 C1657 1.377 . S
C1656 C1658 1.384 . S
C1657 C1656 1.377 . S
C1657 C1663 1.390 . S
C1658 H1649 0.930 . S
C1658 C1656 1.384 . S
C1658 C1659 1.372 . S
C1659 C1658 1.372 . S
C1659 C1660 1.400 . S
C1659 C1664 1.490 . S
C1660 H1650 0.930 . S
C1660 C1659 1.400 . S
C1660 C1663 1.386 . S
H1661 C1677 0.930 . S
H1662 C1678 0.931 . S
C1663 H1651 0.929 . S
C1663 C1657 1.390 . S
C1663 C1660 1.386 . S
C1664 C1659 1.490 . S
C1664 C1666 1.395 . S
C1664 C1667 1.403 . S
H1665 C1671 0.930 . S
C1666 H1652 0.930 . S
C1666 C1664 1.395 . S
C1666 C1669 1.403 . S
C1667 C1664 1.403 . S
C1667 C1668 1.524 . S
C1667 C1671 1.400 . S
C1668 H1653 0.960 . S
C1668 H1654 0.960 . S
C1668 H1655 0.960 . S
C1668 C1667 1.524 . S
C1669 C1666 1.403 . S
C1669 C1670 1.392 . S
C1669 C1673 1.495 . S
C1670 C1669 1.392 . S
C1670 C1671 1.385 . S
C1670 C1672 1.478 . S
C1671 H1665 0.930 . S
C1671 C1667 1.400 . S
C1671 C1670 1.385 . S
C1672 C1670 1.478 . S
C1672 C1674 1.381 . S
C1672 C1678 1.383 . S
C1673 C1669 1.495 . S
C1673 H1679 0.959 . S
C1673 H1680 0.961 . S
C1673 H1681 0.960 . S
C1674 C1672 1.381 . S
C1674 C1675 1.394 . S
C1674 H1682 0.930 . S
C1675 C1674 1.394 . S
C1675 C1676 1.379 1_545 S
C1675 H1683 0.929 1_545 S
C1676 C1675 1.379 1_565 S
C1676 C1677 1.361 1_565 S
C1677 H1661 0.930 . S
C1677 C1676 1.361 1_545 S
C1677 C1678 1.379 . S
C1678 H1662 0.931 . S
C1678 C1672 1.383 . S
C1678 C1677 1.379 . S
H1679 C1673 0.959 . S
H1680 C1673 0.961 . S
H1681 C1673 0.960 . S
H1682 C1674 0.930 . S
H1683 C1675 0.929 1_565 S
H1684 C1692 0.929 . S
H1685 C1694 0.930 . S
H1686 C1696 0.930 . S
H1687 C1699 0.929 1_565 S
H1688 C1702 0.930 . S
H1689 C1704 0.958 1_565 S
H1690 C1704 0.960 . S
H1691 C1704 0.960 1_565 S
C1692 H1684 0.929 . S
C1692 C1693 1.377 . S
C1692 C1694 1.384 . S
C1693 C1692 1.377 . S
C1693 C1699 1.390 . S
C1694 H1685 0.930 . S
C1694 C1692 1.384 . S
C1694 C1695 1.372 . S
C1695 C1694 1.372 . S
C1695 C1696 1.400 . S
C1695 C1700 1.490 . S
C1696 H1686 0.930 . S
C1696 C1695 1.400 . S
C1696 C1699 1.386 . S
H1697 C1713 0.930 . S
H1698 C1714 0.931 . S
C1699 H1687 0.929 1_545 S
C1699 C1693 1.390 . S
C1699 C1696 1.386 . S
C1700 C1695 1.490 . S
C1700 C1702 1.395 . S
C1700 C1703 1.403 . S
H1701 C1707 0.930 . S
C1702 H1688 0.930 . S
C1702 C1700 1.395 . S
C1702 C1705 1.403 . S
C1703 C1700 1.403 . S
C1703 C1704 1.524 . S
C1703 C1707 1.400 . S
C1704 H1689 0.958 1_545 S
C1704 H1690 0.960 . S
C1704 H1691 0.960 1_545 S
C1704 C1703 1.524 . S
C1705 C1702 1.403 . S
C1705 C1706 1.392 . S
C1705 C1709 1.495 . S
C1706 C1705 1.392 . S
C1706 C1707 1.385 . S
C1706 C1708 1.478 . S
C1707 H1701 0.930 . S
C1707 C1703 1.400 . S
C1707 C1706 1.385 . S
C1708 C1706 1.478 . S
C1708 C1710 1.381 . S
C1708 C1714 1.383 . S
C1709 C1705 1.495 . S
C1709 H1715 0.959 . S
C1709 H1716 0.961 . S
C1709 H1717 0.960 . S
C1710 C1708 1.381 . S
C1710 C1711 1.394 . S
C1710 H1718 0.930 . S
C1711 C1710 1.394 . S
C1711 C1712 1.383 . S
C1711 H1719 0.929 . S
C1712 C1711 1.383 . S
C1712 C1713 1.377 . S
C1713 H1697 0.930 . S
C1713 C1712 1.377 . S
C1713 C1714 1.379 . S
C1714 H1698 0.931 . S
C1714 C1708 1.383 . S
C1714 C1713 1.379 . S
H1715 C1709 0.959 . S
H1716 C1709 0.961 . S
H1717 C1709 0.960 . S
H1718 C1710 0.930 . S
H1719 C1711 0.929 . S
H1720 C1728 0.929 . S
H1721 C1730 0.930 . S
H1722 C1732 0.930 . S
H1723 C1735 0.929 . S
H1724 C1738 0.930 . S
H1725 C1740 0.960 . S
H1726 C1740 0.960 . S
H1727 C1740 0.960 . S
C1728 H1720 0.929 . S
C1728 C1729 1.376 . S
C1728 C1730 1.384 . S
C1729 C1728 1.376 . S
C1729 C1735 1.389 . S
C1730 H1721 0.930 . S
C1730 C1728 1.384 . S
C1730 C1731 1.372 . S
C1731 C1730 1.372 . S
C1731 C1732 1.400 . S
C1731 C1736 1.490 . S
C1732 H1722 0.930 . S
C1732 C1731 1.400 . S
C1732 C1735 1.386 . S
H1733 C1749 0.930 . S
H1734 C1750 0.931 . S
C1735 H1723 0.929 . S
C1735 C1729 1.389 . S
C1735 C1732 1.386 . S
C1736 C1731 1.490 . S
C1736 C1738 1.395 . S
C1736 C1739 1.403 . S
H1737 C1743 0.930 . S
C1738 H1724 0.930 . S
C1738 C1736 1.395 . S
C1738 C1741 1.403 . S
C1739 C1736 1.403 . S
C1739 C1740 1.524 . S
C1739 C1743 1.400 . S
C1740 H1725 0.960 . S
C1740 H1726 0.960 . S
C1740 H1727 0.960 . S
C1740 C1739 1.524 . S
C1741 C1738 1.403 . S
C1741 C1742 1.392 . S
C1741 C1745 1.495 . S
C1742 C1741 1.392 . S
C1742 C1743 1.385 . S
C1742 C1744 1.478 . S
C1743 H1737 0.930 . S
C1743 C1739 1.400 . S
C1743 C1742 1.385 . S
C1744 C1742 1.478 . S
C1744 C1746 1.381 . S
C1744 C1750 1.383 . S
C1745 C1741 1.495 . S
C1745 H1751 0.959 . S
C1745 H1752 0.961 . S
C1745 H1753 0.960 . S
C1746 C1744 1.381 . S
C1746 C1747 1.394 . S
C1746 H1754 0.930 . S
C1747 C1746 1.394 . S
C1747 C1748 1.383 . S
C1747 H1755 0.929 . S
C1748 C1747 1.383 . S
C1748 C1749 1.377 . S
C1749 H1733 0.930 . S
C1749 C1748 1.377 . S
C1749 C1750 1.379 . S
C1750 H1734 0.931 . S
C1750 C1744 1.383 . S
C1750 C1749 1.379 . S
H1751 C1745 0.959 . S
H1752 C1745 0.961 . S
H1753 C1745 0.960 . S
H1754 C1746 0.930 . S
H1755 C1747 0.929 . S
H1756 C1764 0.929 . S
H1757 C1766 0.930 . S
H1758 C1768 0.930 . S
H1759 C1771 0.929 1_545 S
H1760 C1774 0.930 . S
H1761 C1776 0.960 . S
H1762 C1776 0.960 . S
H1763 C1776 0.960 . S
C1764 H1756 0.929 . S
C1764 C1765 1.377 . S
C1764 C1766 1.384 . S
C1765 C1764 1.377 . S
C1765 C1771 1.390 . S
C1766 H1757 0.930 . S
C1766 C1764 1.384 . S
C1766 C1767 1.372 . S
C1767 C1766 1.372 . S
C1767 C1768 1.400 . S
C1767 C1772 1.490 . S
C1768 H1758 0.930 . S
C1768 C1767 1.400 . S
C1768 C1771 1.386 . S
H1769 C1785 0.930 . S
H1770 C1786 0.931 . S
C1771 H1759 0.929 1_565 S
C1771 C1765 1.390 . S
C1771 C1768 1.386 . S
C1772 C1767 1.490 . S
C1772 C1774 1.395 . S
C1772 C1775 1.403 . S
H1773 C1779 0.930 . S
C1774 H1760 0.930 . S
C1774 C1772 1.395 . S
C1774 C1777 1.403 . S
C1775 C1772 1.403 . S
C1775 C1776 1.524 . S
C1775 C1779 1.400 . S
C1776 H1761 0.960 . S
C1776 H1762 0.960 . S
C1776 H1763 0.960 . S
C1776 C1775 1.524 . S
C1777 C1774 1.403 . S
C1777 C1778 1.392 . S
C1777 C1781 1.495 . S
C1778 C1777 1.392 . S
C1778 C1779 1.385 . S
C1778 C1780 1.478 . S
C1779 H1773 0.930 . S
C1779 C1775 1.400 . S
C1779 C1778 1.385 . S
C1780 C1778 1.478 . S
C1780 C1782 1.381 . S
C1780 C1786 1.383 . S
C1781 C1777 1.495 . S
C1781 H1787 0.959 . S
C1781 H1788 0.961 . S
C1781 H1789 0.960 . S
C1782 C1780 1.381 . S
C1782 C1783 1.394 . S
C1782 H1790 0.930 . S
C1783 C1782 1.394 . S
C1783 C1784 1.383 . S
C1783 H1791 0.929 . S
C1784 C1783 1.383 . S
C1784 C1785 1.377 . S
C1785 H1769 0.930 . S
C1785 C1784 1.377 . S
C1785 C1786 1.379 . S
C1786 H1770 0.931 . S
C1786 C1780 1.383 . S
C1786 C1785 1.379 . S
H1787 C1781 0.959 . S
H1788 C1781 0.961 . S
H1789 C1781 0.960 . S
H1790 C1782 0.930 . S
H1791 C1783 0.929 . S
H1792 C1800 0.929 . S
H1793 C1802 0.930 . S
H1794 C1804 0.936 . S
H1795 C1807 0.929 . S
H1796 C1810 0.930 . S
H1797 C1812 0.960 . S
H1798 C1812 0.960 . S
H1799 C1812 0.960 . S
C1800 H1792 0.929 . S
C1800 C1801 1.377 . S
C1800 C1802 1.384 1_554 S
C1801 C1800 1.377 . S
C1801 C1807 1.390 . S
C1802 H1793 0.930 . S
C1802 C1800 1.384 1_556 S
C1802 C1803 1.372 . S
C1803 C1802 1.372 . S
C1803 C1804 1.412 . S
C1803 C1808 1.490 . S
C1804 H1794 0.936 . S
C1804 C1803 1.412 . S
C1804 C1807 1.368 1_556 S
H1805 C1821 0.930 . S
H1806 C1822 0.931 . S
C1807 H1795 0.929 . S
C1807 C1801 1.390 . S
C1807 C1804 1.368 1_554 S
C1808 C1803 1.490 . S
C1808 C1810 1.395 . S
C1808 C1811 1.403 . S
H1809 C1815 0.930 . S
C1810 H1796 0.930 . S
C1810 C1808 1.395 . S
C1810 C1813 1.403 . S
C1811 C1808 1.403 . S
C1811 C1812 1.524 . S
C1811 C1815 1.400 . S
C1812 H1797 0.960 . S
C1812 H1798 0.960 . S
C1812 H1799 0.960 . S
C1812 C1811 1.524 . S
C1813 C1810 1.403 . S
C1813 C1814 1.392 . S
C1813 C1817 1.495 . S
C1814 C1813 1.392 . S
C1814 C1815 1.385 . S
C1814 C1816 1.478 . S
C1815 H1809 0.930 . S
C1815 C1811 1.400 . S
C1815 C1814 1.385 . S
C1816 C1814 1.478 . S
C1816 C1818 1.381 . S
C1816 C1822 1.383 . S
C1817 C1813 1.495 . S
C1817 H1823 0.959 . S
C1817 H1824 0.961 . S
C1817 H1825 0.960 . S
C1818 C1816 1.381 . S
C1818 C1819 1.394 . S
C1818 H1826 0.930 . S
C1819 C1818 1.394 . S
C1819 C1820 1.383 . S
C1819 H1827 0.929 . S
C1820 C1819 1.383 . S
C1820 C1821 1.377 . S
C1821 H1805 0.930 . S
C1821 C1820 1.377 . S
C1821 C1822 1.379 . S
C1822 H1806 0.931 . S
C1822 C1816 1.383 . S
C1822 C1821 1.379 . S
H1823 C1817 0.959 . S
H1824 C1817 0.961 . S
H1825 C1817 0.960 . S
H1826 C1818 0.930 . S
H1827 C1819 0.929 . S
H1828 C1836 0.929 . S
H1829 C1838 0.930 . S
H1830 C1840 0.930 . S
H1831 C1843 0.929 . S
H1832 C1846 0.930 . S
H1833 C1848 0.960 . S
H1834 C1848 0.960 . S
H1835 C1848 0.960 . S
C1836 H1828 0.929 . S
C1836 C1837 1.377 . S
C1836 C1838 1.384 . S
C1837 C1836 1.377 . S
C1837 C1843 1.390 . S
C1838 H1829 0.930 . S
C1838 C1836 1.384 . S
C1838 C1839 1.372 . S
C1839 C1838 1.372 . S
C1839 C1840 1.400 . S
C1839 C1844 1.490 . S
C1840 H1830 0.930 . S
C1840 C1839 1.400 . S
C1840 C1843 1.386 . S
H1841 C1857 0.930 . S
H1842 C1858 0.931 . S
C1843 H1831 0.929 . S
C1843 C1837 1.390 . S
C1843 C1840 1.386 . S
C1844 C1839 1.490 . S
C1844 C1846 1.395 . S
C1844 C1847 1.403 . S
H1845 C1851 0.930 . S
C1846 H1832 0.930 . S
C1846 C1844 1.395 . S
C1846 C1849 1.403 . S
C1847 C1844 1.403 . S
C1847 C1848 1.524 . S
C1847 C1851 1.400 . S
C1848 H1833 0.960 . S
C1848 H1834 0.960 . S
C1848 H1835 0.960 . S
C1848 C1847 1.524 . S
C1849 C1846 1.403 . S
C1849 C1850 1.392 . S
C1849 C1853 1.495 . S
C1850 C1849 1.392 . S
C1850 C1851 1.385 . S
C1850 C1852 1.478 . S
C1851 H1845 0.930 . S
C1851 C1847 1.400 . S
C1851 C1850 1.385 . S
C1852 C1850 1.478 . S
C1852 C1854 1.381 . S
C1852 C1858 1.383 . S
C1853 C1849 1.495 . S
C1853 H1859 0.959 . S
C1853 H1860 0.961 . S
C1853 H1861 0.960 . S
C1854 C1852 1.381 . S
C1854 C1855 1.394 . S
C1854 H1862 0.930 . S
C1855 C1854 1.394 . S
C1855 C1856 1.383 . S
C1855 H1863 0.929 . S
C1856 C1855 1.383 . S
C1856 C1857 1.377 . S
C1857 H1841 0.930 . S
C1857 C1856 1.377 . S
C1857 C1858 1.379 . S
C1858 H1842 0.931 . S
C1858 C1852 1.383 . S
C1858 C1857 1.379 . S
H1859 C1853 0.959 . S
H1860 C1853 0.961 . S
H1861 C1853 0.960 . S
H1862 C1854 0.930 . S
H1863 C1855 0.929 . S
H1864 C1872 0.929 . S
H1865 C1874 0.930 . S
H1866 C1876 0.930 . S
H1867 C1879 0.929 . S
H1868 C1882 0.930 . S
H1869 C1884 0.960 . S
H1870 C1884 0.960 . S
H1871 C1884 0.960 . S
C1872 H1864 0.929 . S
C1872 C1873 1.377 . S
C1872 C1874 1.384 . S
C1873 C1872 1.377 . S
C1873 C1879 1.390 . S
C1874 H1865 0.930 . S
C1874 C1872 1.384 . S
C1874 C1875 1.372 . S
C1875 C1874 1.372 . S
C1875 C1876 1.400 . S
C1875 C1880 1.490 . S
C1876 H1866 0.930 . S
C1876 C1875 1.400 . S
C1876 C1879 1.386 . S
H1877 C1893 0.930 . S
H1878 C1894 0.931 . S
C1879 H1867 0.929 . S
C1879 C1873 1.390 . S
C1879 C1876 1.386 . S
C1880 C1875 1.490 . S
C1880 C1882 1.395 . S
C1880 C1883 1.403 . S
H1881 C1887 0.930 . S
C1882 H1868 0.930 . S
C1882 C1880 1.395 . S
C1882 C1885 1.403 . S
C1883 C1880 1.403 . S
C1883 C1884 1.524 . S
C1883 C1887 1.400 . S
C1884 H1869 0.960 . S
C1884 H1870 0.960 . S
C1884 H1871 0.960 . S
C1884 C1883 1.524 . S
C1885 C1882 1.403 . S
C1885 C1886 1.392 . S
C1885 C1889 1.495 . S
C1886 C1885 1.392 . S
C1886 C1887 1.385 . S
C1886 C1888 1.478 . S
C1887 H1881 0.930 . S
C1887 C1883 1.400 . S
C1887 C1886 1.385 . S
C1888 C1886 1.478 . S
C1888 C1890 1.381 . S
C1888 C1894 1.383 . S
C1889 C1885 1.495 . S
C1889 H1895 0.959 . S
C1889 H1896 0.961 . S
C1889 H1897 0.960 . S
C1890 C1888 1.381 . S
C1890 C1891 1.394 . S
C1890 H1898 0.930 . S
C1891 C1890 1.394 . S
C1891 C1892 1.383 . S
C1891 H1899 0.929 . S
C1892 C1891 1.383 . S
C1892 C1893 1.377 . S
C1893 H1877 0.930 . S
C1893 C1892 1.377 . S
C1893 C1894 1.379 . S
C1894 H1878 0.931 . S
C1894 C1888 1.383 . S
C1894 C1893 1.379 . S
H1895 C1889 0.959 . S
H1896 C1889 0.961 . S
H1897 C1889 0.960 . S
H1898 C1890 0.930 . S
H1899 C1891 0.929 . S
H1900 C1908 0.929 . S
H1901 C1910 0.930 . S
H1902 C1912 0.930 . S
H1903 C1915 0.929 . S
H1904 C1918 0.930 . S
H1905 C1920 0.960 . S
H1906 C1920 0.960 . S
H1907 C1920 0.960 . S
C1908 H1900 0.929 . S
C1908 C1909 1.377 . S
C1908 C1910 1.384 . S
C1909 C1908 1.377 . S
C1909 C1915 1.390 . S
C1910 H1901 0.930 . S
C1910 C1908 1.384 . S
C1910 C1911 1.372 . S
C1911 C1910 1.372 . S
C1911 C1912 1.400 . S
C1911 C1916 1.490 . S
C1912 H1902 0.930 . S
C1912 C1911 1.400 . S
C1912 C1915 1.386 . S
H1913 C1929 0.930 . S
H1914 C1930 0.931 . S
C1915 H1903 0.929 . S
C1915 C1909 1.390 . S
C1915 C1912 1.386 . S
C1916 C1911 1.490 . S
C1916 C1918 1.395 . S
C1916 C1919 1.403 . S
H1917 C1923 0.930 . S
C1918 H1904 0.930 . S
C1918 C1916 1.395 . S
C1918 C1921 1.403 . S
C1919 C1916 1.403 . S
C1919 C1920 1.524 . S
C1919 C1923 1.400 . S
C1920 H1905 0.960 . S
C1920 H1906 0.960 . S
C1920 H1907 0.960 . S
C1920 C1919 1.524 . S
C1921 C1918 1.403 . S
C1921 C1922 1.392 . S
C1921 C1925 1.495 . S
C1922 C1921 1.392 . S
C1922 C1923 1.385 . S
C1922 C1924 1.478 . S
C1923 H1917 0.930 . S
C1923 C1919 1.400 . S
C1923 C1922 1.385 . S
C1924 C1922 1.478 . S
C1924 C1926 1.381 . S
C1924 C1930 1.383 . S
C1925 C1921 1.495 . S
C1925 H1931 0.959 . S
C1925 H1932 0.961 . S
C1925 H1933 0.960 . S
C1926 C1924 1.381 . S
C1926 C1927 1.394 . S
C1926 H1934 0.930 . S
C1927 C1926 1.394 . S
C1927 C1928 1.383 . S
C1927 H1935 0.929 . S
C1928 C1927 1.383 . S
C1928 C1929 1.377 . S
C1929 H1913 0.930 . S
C1929 C1928 1.377 . S
C1929 C1930 1.379 . S
C1930 H1914 0.931 . S
C1930 C1924 1.383 . S
C1930 C1929 1.379 . S
H1931 C1925 0.959 . S
H1932 C1925 0.961 . S
H1933 C1925 0.960 . S
H1934 C1926 0.930 . S
H1935 C1927 0.929 . S
H1936 C1944 0.929 . S
H1937 C1946 0.930 . S
H1938 C1948 0.930 . S
H1939 C1951 0.929 . S
H1940 C1954 0.930 . S
H1941 C1956 0.960 . S
H1942 C1956 0.960 . S
H1943 C1956 0.960 . S
C1944 H1936 0.929 . S
C1944 C1945 1.377 . S
C1944 C1946 1.384 . S
C1945 C1944 1.377 . S
C1945 C1951 1.390 . S
C1946 H1937 0.930 . S
C1946 C1944 1.384 . S
C1946 C1947 1.372 . S
C1947 C1946 1.372 . S
C1947 C1948 1.400 . S
C1947 C1952 1.490 . S
C1948 H1938 0.930 . S
C1948 C1947 1.400 . S
C1948 C1951 1.386 . S
H1949 C1965 0.930 . S
H1950 C1966 0.931 . S
C1951 H1939 0.929 . S
C1951 C1945 1.390 . S
C1951 C1948 1.386 . S
C1952 C1947 1.490 . S
C1952 C1954 1.395 . S
C1952 C1955 1.403 . S
H1953 C1959 0.930 . S
C1954 H1940 0.930 . S
C1954 C1952 1.395 . S
C1954 C1957 1.403 . S
C1955 C1952 1.403 . S
C1955 C1956 1.524 . S
C1955 C1959 1.400 . S
C1956 H1941 0.960 . S
C1956 H1942 0.960 . S
C1956 H1943 0.960 . S
C1956 C1955 1.524 . S
C1957 C1954 1.403 . S
C1957 C1958 1.392 . S
C1957 C1961 1.495 . S
C1958 C1957 1.392 . S
C1958 C1959 1.385 . S
C1958 C1960 1.478 . S
C1959 H1953 0.930 . S
C1959 C1955 1.400 . S
C1959 C1958 1.385 . S
C1960 C1958 1.478 . S
C1960 C1962 1.381 . S
C1960 C1966 1.383 1_554 S
C1961 C1957 1.495 . S
C1961 H1967 0.959 . S
C1961 H1968 0.961 . S
C1961 H1969 0.960 . S
C1962 C1960 1.381 . S
C1962 C1963 1.394 1_554 S
C1962 H1970 0.930 . S
C1963 C1962 1.394 1_556 S
C1963 C1964 1.383 . S
C1963 H1971 0.929 . S
C1964 C1963 1.383 . S
C1964 C1965 1.377 . S
C1965 H1949 0.930 . S
C1965 C1964 1.377 . S
C1965 C1966 1.379 . S
C1966 H1950 0.931 . S
C1966 C1960 1.383 1_556 S
C1966 C1965 1.379 . S
H1967 C1961 0.959 . S
H1968 C1961 0.961 . S
H1969 C1961 0.960 . S
H1970 C1962 0.930 . S
H1971 C1963 0.929 . S
H1972 C1980 0.929 . S
H1973 C1982 0.930 . S
H1974 C1984 0.930 . S
H1975 C1987 0.929 . S
H1976 C1990 0.930 . S
H1977 C1992 0.960 . S
H1978 C1992 0.960 . S
H1979 C1992 0.960 . S
C1980 H1972 0.929 . S
C1980 C1981 1.377 . S
C1980 C1982 1.384 . S
C1981 C1980 1.377 . S
C1981 C1987 1.390 . S
C1982 H1973 0.930 . S
C1982 C1980 1.384 . S
C1982 C1983 1.372 . S
C1983 C1982 1.372 . S
C1983 C1984 1.400 . S
C1983 C1988 1.490 . S
C1984 H1974 0.930 . S
C1984 C1983 1.400 . S
C1984 C1987 1.386 . S
H1985 C2001 0.930 . S
H1986 C2002 0.931 . S
C1987 H1975 0.929 . S
C1987 C1981 1.390 . S
C1987 C1984 1.386 . S
C1988 C1983 1.490 . S
C1988 C1990 1.395 . S
C1988 C1991 1.403 . S
H1989 C1995 0.930 . S
C1990 H1976 0.930 . S
C1990 C1988 1.395 . S
C1990 C1993 1.403 . S
C1991 C1988 1.403 . S
C1991 C1992 1.524 . S
C1991 C1995 1.400 . S
C1992 H1977 0.960 . S
C1992 H1978 0.960 . S
C1992 H1979 0.960 . S
C1992 C1991 1.524 . S
C1993 C1990 1.403 . S
C1993 C1994 1.392 . S
C1993 C1997 1.495 . S
C1994 C1993 1.392 . S
C1994 C1995 1.385 . S
C1994 C1996 1.478 . S
C1995 H1989 0.930 . S
C1995 C1991 1.400 . S
C1995 C1994 1.385 . S
C1996 C1994 1.478 . S
C1996 C1998 1.381 . S
C1996 C2002 1.383 . S
C1997 C1993 1.495 . S
C1997 H2003 0.959 . S
C1997 H2004 0.961 . S
C1997 H2005 0.960 . S
C1998 C1996 1.381 . S
C1998 C1999 1.394 . S
C1998 H2006 0.930 . S
C1999 C1998 1.394 . S
C1999 C2000 1.383 . S
C1999 H2007 0.929 . S
C2000 C1999 1.383 . S
C2000 C2001 1.377 . S
C2001 H1985 0.930 . S
C2001 C2000 1.377 . S
C2001 C2002 1.379 . S
C2002 H1986 0.931 . S
C2002 C1996 1.383 . S
C2002 C2001 1.379 . S
H2003 C1997 0.959 . S
H2004 C1997 0.961 . S
H2005 C1997 0.960 . S
H2006 C1998 0.930 . S
H2007 C1999 0.929 . S
H2008 C2016 0.929 . S
H2009 C2018 0.930 . S
H2010 C2020 0.930 . S
H2011 C2023 0.929 . S
H2012 C2026 0.930 . S
H2013 C2028 0.960 . S
H2014 C2028 0.960 . S
H2015 C2028 0.960 . S
C2016 H2008 0.929 . S
C2016 C2017 1.377 . S
C2016 C2018 1.384 . S
C2017 C2016 1.377 . S
C2017 C2023 1.390 . S
C2018 H2009 0.930 . S
C2018 C2016 1.384 . S
C2018 C2019 1.372 . S
C2019 C2018 1.372 . S
C2019 C2020 1.400 . S
C2019 C2024 1.490 . S
C2020 H2010 0.930 . S
C2020 C2019 1.400 . S
C2020 C2023 1.386 . S
H2021 C2037 0.930 . S
H2022 C2038 0.931 . S
C2023 H2011 0.929 . S
C2023 C2017 1.390 . S
C2023 C2020 1.386 . S
C2024 C2019 1.490 . S
C2024 C2026 1.395 . S
C2024 C2027 1.403 . S
H2025 C2031 0.930 . S
C2026 H2012 0.930 . S
C2026 C2024 1.395 . S
C2026 C2029 1.403 . S
C2027 C2024 1.403 . S
C2027 C2028 1.524 . S
C2027 C2031 1.400 . S
C2028 H2013 0.960 . S
C2028 H2014 0.960 . S
C2028 H2015 0.960 . S
C2028 C2027 1.524 . S
C2029 C2026 1.403 . S
C2029 C2030 1.392 . S
C2029 C2033 1.495 . S
C2030 C2029 1.392 . S
C2030 C2031 1.385 . S
C2030 C2032 1.478 . S
C2031 H2025 0.930 . S
C2031 C2027 1.400 . S
C2031 C2030 1.385 . S
C2032 C2030 1.478 . S
C2032 C2034 1.381 . S
C2032 C2038 1.383 . S
C2033 C2029 1.495 . S
C2033 H2039 0.959 . S
C2033 H2040 0.961 . S
C2033 H2041 0.960 . S
C2034 C2032 1.381 . S
C2034 C2035 1.394 . S
C2034 H2042 0.930 . S
C2035 C2034 1.394 . S
C2035 C2036 1.383 . S
C2035 H2043 0.929 . S
C2036 C2035 1.383 . S
C2036 C2037 1.377 . S
C2037 H2021 0.930 . S
C2037 C2036 1.377 . S
C2037 C2038 1.379 . S
C2038 H2022 0.931 . S
C2038 C2032 1.383 . S
C2038 C2037 1.379 . S
H2039 C2033 0.959 . S
H2040 C2033 0.961 . S
H2041 C2033 0.960 . S
H2042 C2034 0.930 . S
H2043 C2035 0.929 . S
H2044 C2052 0.929 . S
H2045 C2054 0.930 . S
H2046 C2056 0.930 . S
H2047 C2059 0.929 . S
H2048 C2062 0.930 . S
H2049 C2064 0.960 . S
H2050 C2064 0.960 . S
H2051 C2064 0.960 . S
C2052 H2044 0.929 . S
C2052 C2053 1.377 . S
C2052 C2054 1.384 . S
C2053 C2052 1.377 . S
C2053 C2059 1.390 . S
C2054 H2045 0.930 . S
C2054 C2052 1.384 . S
C2054 C2055 1.372 . S
C2055 C2054 1.372 . S
C2055 C2056 1.400 . S
C2055 C2060 1.490 . S
C2056 H2046 0.930 . S
C2056 C2055 1.400 . S
C2056 C2059 1.386 . S
H2057 C2073 0.930 . S
H2058 C2074 0.931 . S
C2059 H2047 0.929 . S
C2059 C2053 1.390 . S
C2059 C2056 1.386 . S
C2060 C2055 1.490 . S
C2060 C2062 1.395 . S
C2060 C2063 1.403 . S
H2061 C2067 0.930 . S
C2062 H2048 0.930 . S
C2062 C2060 1.395 . S
C2062 C2065 1.403 . S
C2063 C2060 1.403 . S
C2063 C2064 1.524 . S
C2063 C2067 1.400 . S
C2064 H2049 0.960 . S
C2064 H2050 0.960 . S
C2064 H2051 0.960 . S
C2064 C2063 1.524 . S
C2065 C2062 1.403 . S
C2065 C2066 1.392 . S
C2065 C2069 1.495 . S
C2066 C2065 1.392 . S
C2066 C2067 1.385 . S
C2066 C2068 1.478 . S
C2067 H2061 0.930 . S
C2067 C2063 1.400 . S
C2067 C2066 1.385 . S
C2068 C2066 1.478 . S
C2068 C2070 1.381 . S
C2068 C2074 1.383 . S
C2069 C2065 1.495 . S
C2069 H2075 0.959 . S
C2069 H2076 0.961 . S
C2069 H2077 0.960 . S
C2070 C2068 1.381 . S
C2070 C2071 1.394 . S
C2070 H2078 0.930 . S
C2071 C2070 1.394 . S
C2071 C2072 1.383 . S
C2071 H2079 0.929 . S
C2072 C2071 1.383 . S
C2072 C2073 1.377 . S
C2073 H2057 0.930 . S
C2073 C2072 1.377 . S
C2073 C2074 1.379 . S
C2074 H2058 0.931 . S
C2074 C2068 1.383 . S
C2074 C2073 1.379 . S
H2075 C2069 0.959 . S
H2076 C2069 0.961 . S
H2077 C2069 0.960 . S
H2078 C2070 0.930 . S
H2079 C2071 0.929 . S
H2080 C2088 0.929 . S
H2081 C2090 0.930 . S
H2082 C2092 0.930 . S
H2083 C2095 0.929 . S
H2084 C2098 0.930 . S
H2085 C2100 0.960 . S
H2086 C2100 0.960 . S
H2087 C2100 0.960 . S
C2088 H2080 0.929 . S
C2088 C2089 1.377 . S
C2088 C2090 1.384 . S
C2089 C2088 1.377 . S
C2089 C2095 1.390 . S
C2090 H2081 0.930 . S
C2090 C2088 1.384 . S
C2090 C2091 1.372 . S
C2091 C2090 1.372 . S
C2091 C2092 1.400 . S
C2091 C2096 1.490 . S
C2092 H2082 0.930 . S
C2092 C2091 1.400 . S
C2092 C2095 1.386 . S
H2093 C2109 0.930 . S
H2094 C2110 0.931 . S
C2095 H2083 0.929 . S
C2095 C2089 1.390 . S
C2095 C2092 1.386 . S
C2096 C2091 1.490 . S
C2096 C2098 1.395 . S
C2096 C2099 1.403 . S
H2097 C2103 0.930 . S
C2098 H2084 0.930 . S
C2098 C2096 1.395 . S
C2098 C2101 1.403 . S
C2099 C2096 1.403 . S
C2099 C2100 1.524 . S
C2099 C2103 1.400 . S
C2100 H2085 0.960 . S
C2100 H2086 0.960 . S
C2100 H2087 0.960 . S
C2100 C2099 1.524 . S
C2101 C2098 1.403 . S
C2101 C2102 1.392 . S
C2101 C2105 1.495 . S
C2102 C2101 1.392 . S
C2102 C2103 1.385 . S
C2102 C2104 1.478 . S
C2103 H2097 0.930 . S
C2103 C2099 1.400 . S
C2103 C2102 1.385 . S
C2104 C2102 1.478 . S
C2104 C2106 1.381 . S
C2104 C2110 1.383 . S
C2105 C2101 1.495 . S
C2105 H2111 0.959 . S
C2105 H2112 0.961 . S
C2105 H2113 0.960 . S
C2106 C2104 1.381 . S
C2106 C2107 1.394 . S
C2106 H2114 0.930 . S
C2107 C2106 1.394 . S
C2107 C2108 1.383 . S
C2107 H2115 0.929 . S
C2108 C2107 1.383 . S
C2108 C2109 1.377 . S
C2109 H2093 0.930 . S
C2109 C2108 1.377 . S
C2109 C2110 1.379 . S
C2110 H2094 0.931 . S
C2110 C2104 1.383 . S
C2110 C2109 1.379 . S
H2111 C2105 0.959 . S
H2112 C2105 0.961 . S
H2113 C2105 0.960 . S
H2114 C2106 0.930 . S
H2115 C2107 0.929 . S
H2116 C2124 0.929 . S
H2117 C2126 0.930 . S
H2118 C2128 0.930 . S
H2119 C2131 0.929 . S
H2120 C2134 0.930 . S
H2121 C2136 0.960 . S
H2122 C2136 0.960 . S
H2123 C2136 0.960 . S
C2124 H2116 0.929 . S
C2124 C2125 1.377 . S
C2124 C2126 1.384 . S
C2125 C2124 1.377 . S
C2125 C2131 1.390 . S
C2126 H2117 0.930 . S
C2126 C2124 1.384 . S
C2126 C2127 1.372 . S
C2127 C2126 1.372 . S
C2127 C2128 1.400 . S
C2127 C2132 1.490 . S
C2128 H2118 0.930 . S
C2128 C2127 1.400 . S
C2128 C2131 1.386 . S
H2129 C2145 0.930 . S
H2130 C2146 0.931 . S
C2131 H2119 0.929 . S
C2131 C2125 1.390 . S
C2131 C2128 1.386 . S
C2132 C2127 1.490 . S
C2132 C2134 1.395 . S
C2132 C2135 1.403 . S
H2133 C2139 0.930 . S
C2134 H2120 0.930 . S
C2134 C2132 1.395 . S
C2134 C2137 1.403 . S
C2135 C2132 1.403 . S
C2135 C2136 1.524 . S
C2135 C2139 1.400 . S
C2136 H2121 0.960 . S
C2136 H2122 0.960 . S
C2136 H2123 0.960 . S
C2136 C2135 1.524 . S
C2137 C2134 1.403 . S
C2137 C2138 1.392 . S
C2137 C2141 1.495 . S
C2138 C2137 1.392 . S
C2138 C2139 1.385 . S
C2138 C2140 1.478 . S
C2139 H2133 0.930 . S
C2139 C2135 1.400 . S
C2139 C2138 1.385 . S
C2140 C2138 1.478 . S
C2140 C2142 1.381 . S
C2140 C2146 1.383 1_565 S
C2141 C2137 1.495 . S
C2141 H2147 0.959 . S
C2141 H2148 0.961 1_565 S
C2141 H2149 0.960 . S
C2142 C2140 1.381 . S
C2142 C2143 1.394 . S
C2142 H2150 0.930 . S
C2143 C2142 1.394 . S
C2143 C2144 1.383 1_565 S
C2143 H2151 0.929 . S
C2144 C2143 1.383 1_545 S
C2144 C2145 1.377 . S
C2145 H2129 0.930 . S
C2145 C2144 1.377 . S
C2145 C2146 1.379 . S
C2146 H2130 0.931 . S
C2146 C2140 1.383 1_545 S
C2146 C2145 1.379 . S
H2147 C2141 0.959 . S
H2148 C2141 0.961 1_545 S
H2149 C2141 0.960 . S
H2150 C2142 0.930 . S
H2151 C2143 0.929 . S
H2152 C2160 0.929 . S
H2153 C2162 0.930 . S
H2154 C2164 0.930 . S
H2155 C2167 0.929 . S
H2156 C2170 0.930 . S
H2157 C2172 0.960 . S
H2158 C2172 0.960 . S
H2159 C2172 0.960 . S
C2160 H2152 0.929 . S
C2160 C2161 1.377 . S
C2160 C2162 1.384 . S
C2161 C2160 1.377 . S
C2161 C2167 1.390 . S
C2162 H2153 0.930 . S
C2162 C2160 1.384 . S
C2162 C2163 1.372 . S
C2163 C2162 1.372 . S
C2163 C2164 1.400 . S
C2163 C2168 1.490 . S
C2164 H2154 0.930 . S
C2164 C2163 1.400 . S
C2164 C2167 1.386 . S
H2165 C2181 0.930 . S
H2166 C2182 0.931 . S
C2167 H2155 0.929 . S
C2167 C2161 1.390 . S
C2167 C2164 1.386 . S
C2168 C2163 1.490 . S
C2168 C2170 1.395 . S
C2168 C2171 1.403 . S
H2169 C2175 0.930 . S
C2170 H2156 0.930 . S
C2170 C2168 1.395 . S
C2170 C2173 1.403 . S
C2171 C2168 1.403 . S
C2171 C2172 1.524 . S
C2171 C2175 1.400 . S
C2172 H2157 0.960 . S
C2172 H2158 0.960 . S
C2172 H2159 0.960 . S
C2172 C2171 1.524 . S
C2173 C2170 1.403 . S
C2173 C2174 1.392 . S
C2173 C2177 1.495 . S
C2174 C2173 1.392 . S
C2174 C2175 1.385 . S
C2174 C2176 1.478 . S
C2175 H2169 0.930 . S
C2175 C2171 1.400 . S
C2175 C2174 1.385 . S
C2176 C2174 1.478 . S
C2176 C2178 1.381 1_556 S
C2176 C2182 1.383 . S
C2177 C2173 1.495 . S
C2177 H2183 0.959 . S
C2177 H2184 0.961 . S
C2177 H2185 0.960 . S
C2178 C2176 1.381 1_554 S
C2178 C2179 1.394 . S
C2178 H2186 0.935 . S
C2179 C2178 1.394 . S
C2179 C2180 1.383 . S
C2179 H2187 0.929 . S
C2180 C2179 1.383 . S
C2180 C2181 1.377 . S
C2181 H2165 0.930 . S
C2181 C2180 1.377 . S
C2181 C2182 1.379 1_554 S
C2182 H2166 0.931 . S
C2182 C2176 1.383 . S
C2182 C2181 1.379 1_556 S
H2183 C2177 0.959 . S
H2184 C2177 0.961 . S
H2185 C2177 0.960 . S
H2186 C2178 0.935 . S
H2187 C2179 0.929 . S
H2188 C2196 0.929 . S
H2189 C2198 0.930 . S
H2190 C2200 0.930 . S
H2191 C2203 0.929 . S
H2192 C2206 0.930 1_565 S
H2193 C2208 0.960 . S
H2194 C2208 0.960 . S
H2195 C2208 0.960 . S
C2196 H2188 0.929 . S
C2196 C2197 1.377 . S
C2196 C2198 1.384 . S
C2197 C2196 1.377 . S
C2197 C2203 1.390 1_565 S
C2198 H2189 0.930 . S
C2198 C2196 1.384 . S
C2198 C2199 1.372 1_565 S
C2199 C2198 1.372 1_545 S
C2199 C2200 1.400 . S
C2199 C2204 1.490 . S
C2200 H2190 0.930 . S
C2200 C2199 1.400 . S
C2200 C2203 1.386 . S
H2201 C2217 0.930 . S
H2202 C2218 0.931 . S
C2203 H2191 0.929 . S
C2203 C2197 1.390 1_545 S
C2203 C2200 1.386 . S
C2204 C2199 1.490 . S
C2204 C2206 1.395 . S
C2204 C2207 1.403 . S
H2205 C2211 0.930 . S
C2206 H2192 0.930 1_545 S
C2206 C2204 1.395 . S
C2206 C2209 1.403 . S
C2207 C2204 1.403 . S
C2207 C2208 1.524 . S
C2207 C2211 1.400 . S
C2208 H2193 0.960 . S
C2208 H2194 0.960 . S
C2208 H2195 0.960 . S
C2208 C2207 1.524 . S
C2209 C2206 1.403 . S
C2209 C2210 1.392 . S
C2209 C2213 1.495 . S
C2210 C2209 1.392 . S
C2210 C2211 1.385 . S
C2210 C2212 1.478 . S
C2211 H2205 0.930 . S
C2211 C2207 1.400 . S
C2211 C2210 1.385 . S
C2212 C2210 1.478 . S
C2212 C2214 1.381 . S
C2212 C2218 1.383 . S
C2213 C2209 1.495 . S
C2213 H2219 0.959 1_545 S
C2213 H2220 0.961 . S
C2213 H2221 0.960 . S
C2214 C2212 1.381 . S
C2214 C2215 1.394 . S
C2214 H2222 0.930 . S
C2215 C2214 1.394 . S
C2215 C2216 1.383 . S
C2215 H2223 0.929 . S
C2216 C2215 1.383 . S
C2216 C2217 1.377 . S
C2217 H2201 0.930 . S
C2217 C2216 1.377 . S
C2217 C2218 1.379 . S
C2218 H2202 0.931 . S
C2218 C2212 1.383 . S
C2218 C2217 1.379 . S
H2219 C2213 0.959 1_565 S
H2220 C2213 0.961 . S
H2221 C2213 0.960 . S
H2222 C2214 0.930 . S
H2223 C2215 0.929 . S
H2224 C2232 0.929 . S
H2225 C2234 0.930 . S
H2226 C2236 0.930 . S
H2227 C2239 0.929 . S
H2228 C2242 0.930 . S
H2229 C2244 0.960 . S
H2230 C2244 0.960 . S
H2231 C2244 0.960 . S
C2232 H2224 0.929 . S
C2232 C2233 1.377 . S
C2232 C2234 1.384 . S
C2233 C2232 1.377 . S
C2233 C2239 1.390 . S
C2234 H2225 0.930 . S
C2234 C2232 1.384 . S
C2234 C2235 1.372 . S
C2235 C2234 1.372 . S
C2235 C2236 1.400 . S
C2235 C2240 1.490 . S
C2236 H2226 0.930 . S
C2236 C2235 1.400 . S
C2236 C2239 1.386 . S
H2237 C2253 0.930 . S
H2238 C2254 0.931 . S
C2239 H2227 0.929 . S
C2239 C2233 1.390 . S
C2239 C2236 1.386 . S
C2240 C2235 1.490 . S
C2240 C2242 1.395 . S
C2240 C2243 1.403 . S
H2241 C2247 0.930 . S
C2242 H2228 0.930 . S
C2242 C2240 1.395 . S
C2242 C2245 1.403 . S
C2243 C2240 1.403 . S
C2243 C2244 1.524 . S
C2243 C2247 1.400 . S
C2244 H2229 0.960 . S
C2244 H2230 0.960 . S
C2244 H2231 0.960 . S
C2244 C2243 1.524 . S
C2245 C2242 1.403 . S
C2245 C2246 1.392 . S
C2245 C2249 1.495 . S
C2246 C2245 1.392 . S
C2246 C2247 1.385 . S
C2246 C2248 1.478 . S
C2247 H2241 0.930 . S
C2247 C2243 1.400 . S
C2247 C2246 1.385 . S
C2248 C2246 1.478 . S
C2248 C2250 1.381 . S
C2248 C2254 1.383 . S
C2249 C2245 1.495 . S
C2249 H2255 0.959 . S
C2249 H2256 0.961 . S
C2249 H2257 0.960 . S
C2250 C2248 1.381 . S
C2250 C2251 1.394 . S
C2250 H2258 0.930 . S
C2251 C2250 1.394 . S
C2251 C2252 1.383 . S
C2251 H2259 0.929 . S
C2252 C2251 1.383 . S
C2252 C2253 1.377 . S
C2253 H2237 0.930 . S
C2253 C2252 1.377 . S
C2253 C2254 1.379 . S
C2254 H2238 0.931 . S
C2254 C2248 1.383 . S
C2254 C2253 1.379 . S
H2255 C2249 0.959 . S
H2256 C2249 0.961 . S
H2257 C2249 0.960 . S
H2258 C2250 0.930 . S
H2259 C2251 0.929 . S
H2260 C2268 0.929 . S
H2261 C2270 0.930 . S
H2262 C2272 0.930 . S
H2263 C2275 0.929 . S
H2264 C2278 0.930 . S
H2265 C2280 0.960 1_565 S
H2266 C2280 0.960 . S
H2267 C2280 0.960 . S
C2268 H2260 0.929 . S
C2268 C2269 1.377 . S
C2268 C2270 1.384 . S
C2269 C2268 1.377 . S
C2269 C2275 1.390 . S
C2270 H2261 0.930 . S
C2270 C2268 1.384 . S
C2270 C2271 1.372 . S
C2271 C2270 1.372 . S
C2271 C2272 1.400 . S
C2271 C2276 1.490 . S
C2272 H2262 0.930 . S
C2272 C2271 1.400 . S
C2272 C2275 1.386 . S
H2273 C2289 0.930 . S
H2274 C2290 0.931 . S
C2275 H2263 0.929 . S
C2275 C2269 1.390 . S
C2275 C2272 1.386 . S
C2276 C2271 1.490 . S
C2276 C2278 1.395 . S
C2276 C2279 1.403 . S
H2277 C2283 0.930 . S
C2278 H2264 0.930 . S
C2278 C2276 1.395 . S
C2278 C2281 1.403 . S
C2279 C2276 1.403 . S
C2279 C2280 1.524 . S
C2279 C2283 1.400 . S
C2280 H2265 0.960 1_545 S
C2280 H2266 0.960 . S
C2280 H2267 0.960 . S
C2280 C2279 1.524 . S
C2281 C2278 1.403 . S
C2281 C2282 1.392 . S
C2281 C2285 1.495 . S
C2282 C2281 1.392 . S
C2282 C2283 1.385 . S
C2282 C2284 1.478 . S
C2283 H2277 0.930 . S
C2283 C2279 1.400 . S
C2283 C2282 1.385 . S
C2284 C2282 1.478 . S
C2284 C2286 1.381 . S
C2284 C2290 1.383 1_545 S
C2285 C2281 1.495 . S
C2285 H2291 0.959 . S
C2285 H2292 0.961 . S
C2285 H2293 0.960 . S
C2286 C2284 1.381 . S
C2286 C2287 1.394 . S
C2286 H2294 0.930 . S
C2287 C2286 1.394 . S
C2287 C2288 1.383 1_545 S
C2287 H2295 0.929 . S
C2288 C2287 1.383 1_565 S
C2288 C2289 1.377 . S
C2289 H2273 0.930 . S
C2289 C2288 1.377 . S
C2289 C2290 1.379 . S
C2290 H2274 0.931 . S
C2290 C2284 1.383 1_565 S
C2290 C2289 1.379 . S
H2291 C2285 0.959 . S
H2292 C2285 0.961 . S
H2293 C2285 0.960 . S
H2294 C2286 0.930 . S
H2295 C2287 0.929 . S
H2296 C2304 0.929 . S
H2297 C2306 0.930 . S
H2298 C2308 0.930 . S
H2299 C2311 0.929 . S
H2300 C2314 0.930 . S
H2301 C2316 0.960 . S
H2302 C2316 0.960 . S
H2303 C2316 0.960 . S
C2304 H2296 0.929 . S
C2304 C2305 1.377 . S
C2304 C2306 1.384 . S
C2305 C2304 1.377 . S
C2305 C2311 1.390 . S
C2306 H2297 0.930 . S
C2306 C2304 1.384 . S
C2306 C2307 1.372 . S
C2307 C2306 1.372 . S
C2307 C2308 1.400 . S
C2307 C2312 1.490 . S
C2308 H2298 0.930 . S
C2308 C2307 1.400 . S
C2308 C2311 1.386 . S
H2309 C2325 0.930 . S
H2310 C2326 0.931 . S
C2311 H2299 0.929 . S
C2311 C2305 1.390 . S
C2311 C2308 1.386 . S
C2312 C2307 1.490 . S
C2312 C2314 1.395 . S
C2312 C2315 1.403 . S
H2313 C2319 0.930 . S
C2314 H2300 0.930 . S
C2314 C2312 1.395 . S
C2314 C2317 1.403 . S
C2315 C2312 1.403 . S
C2315 C2316 1.524 . S
C2315 C2319 1.400 . S
C2316 H2301 0.960 . S
C2316 H2302 0.960 . S
C2316 H2303 0.960 . S
C2316 C2315 1.524 . S
C2317 C2314 1.403 . S
C2317 C2318 1.392 . S
C2317 C2321 1.495 . S
C2318 C2317 1.392 . S
C2318 C2319 1.385 . S
C2318 C2320 1.478 . S
C2319 H2313 0.930 . S
C2319 C2315 1.400 . S
C2319 C2318 1.385 . S
C2320 C2318 1.478 . S
C2320 C2322 1.381 . S
C2320 C2326 1.383 1_554 S
C2321 C2317 1.495 . S
C2321 H2327 0.959 . S
C2321 H2328 0.961 . S
C2321 H2329 0.960 . S
C2322 C2320 1.381 . S
C2322 C2323 1.394 1_554 S
C2322 H2330 0.930 . S
C2323 C2322 1.394 1_556 S
C2323 C2324 1.383 . S
C2323 H2331 0.929 . S
C2324 C2323 1.383 . S
C2324 C2325 1.377 . S
C2325 H2309 0.930 . S
C2325 C2324 1.377 . S
C2325 C2326 1.379 . S
C2326 H2310 0.931 . S
C2326 C2320 1.383 1_556 S
C2326 C2325 1.379 . S
H2327 C2321 0.959 . S
H2328 C2321 0.961 . S
H2329 C2321 0.960 . S
H2330 C2322 0.930 . S
H2331 C2323 0.929 . S
H2332 C2340 0.929 . S
H2333 C2342 0.930 . S
H2334 C2344 0.930 . S
H2335 C2347 0.929 . S
H2336 C2350 0.930 . S
H2337 C2352 0.960 . S
H2338 C2352 0.960 . S
H2339 C2352 0.960 . S
C2340 H2332 0.929 . S
C2340 C2341 1.377 . S
C2340 C2342 1.384 . S
C2341 C2340 1.377 . S
C2341 C2347 1.390 . S
C2342 H2333 0.930 . S
C2342 C2340 1.384 . S
C2342 C2343 1.372 . S
C2343 C2342 1.372 . S
C2343 C2344 1.400 . S
C2343 C2348 1.490 . S
C2344 H2334 0.930 . S
C2344 C2343 1.400 . S
C2344 C2347 1.386 . S
H2345 C2361 0.930 . S
H2346 C2362 0.931 . S
C2347 H2335 0.929 . S
C2347 C2341 1.390 . S
C2347 C2344 1.386 . S
C2348 C2343 1.490 . S
C2348 C2350 1.395 . S
C2348 C2351 1.403 . S
H2349 C2355 0.930 . S
C2350 H2336 0.930 . S
C2350 C2348 1.395 . S
C2350 C2353 1.403 . S
C2351 C2348 1.403 . S
C2351 C2352 1.524 . S
C2351 C2355 1.400 . S
C2352 H2337 0.960 . S
C2352 H2338 0.960 . S
C2352 H2339 0.960 . S
C2352 C2351 1.524 . S
C2353 C2350 1.403 . S
C2353 C2354 1.392 . S
C2353 C2357 1.495 . S
C2354 C2353 1.392 . S
C2354 C2355 1.385 . S
C2354 C2356 1.478 . S
C2355 H2349 0.930 . S
C2355 C2351 1.400 . S
C2355 C2354 1.385 . S
C2356 C2354 1.478 . S
C2356 C2358 1.381 . S
C2356 C2362 1.383 1_565 S
C2357 C2353 1.495 . S
C2357 H2363 0.959 . S
C2357 H2364 0.961 . S
C2357 H2365 0.960 . S
C2358 C2356 1.381 . S
C2358 C2359 1.394 . S
C2358 H2366 0.930 . S
C2359 C2358 1.394 . S
C2359 C2360 1.383 1_565 S
C2359 H2367 0.929 . S
C2360 C2359 1.383 1_545 S
C2360 C2361 1.377 . S
C2361 H2345 0.930 . S
C2361 C2360 1.377 . S
C2361 C2362 1.379 . S
C2362 H2346 0.931 . S
C2362 C2356 1.383 1_545 S
C2362 C2361 1.379 . S
H2363 C2357 0.959 . S
H2364 C2357 0.961 . S
H2365 C2357 0.960 . S
H2366 C2358 0.930 . S
H2367 C2359 0.929 . S
C649 C9 2.254 . S
C668 C409 2.238 . S
C685 C49 2.253 . S
C704 C449 2.241 . S
C721 C89 2.253 . S
C740 C329 2.238 . S
C757 C369 2.259 . S
C776 C129 2.267 . S
C793 C178 2.256 . S
C812 C578 2.237 . S
C829 C618 2.255 . S
C848 C218 2.267 . S
C865 C498 2.256 . S
C884 C258 2.237 . S
C901 C298 2.253 . S
C920 C538 2.258 . S
C937 C15 0.745 . S
C956 C166 0.707 . S
C973 C55 0.730 . S
C992 C526 0.658 . S
C1009 C95 0.732 . S
C1028 C246 0.795 . S
C1045 C135 0.750 . S
C1064 C606 0.787 . S
C1081 C206 0.750 . S
C1100 C375 0.790 . S
C1117 C455 0.742 . S
C1136 C286 0.691 . S
C1153 C486 0.719 . S
C1172 C335 0.714 . S
C1189 C415 0.744 . S
C1208 C566 0.703 . S
C1225 C6 0.788 . S
C1244 C289 0.797 . S
C1261 C46 0.780 . S
C1280 C489 0.831 . S
C1297 C86 0.782 . S
C1316 C209 0.835 . S
C1333 C126 0.781 . S
C1352 C569 0.821 . S
C1369 C138 0.800 . S
C1388 C175 0.727 . S
C1405 C215 0.806 . S
C1424 C338 0.835 . S
C1441 C255 0.800 . S
C1460 C58 0.825 . S
C1477 C418 0.805 . S
C1496 C295 0.775 . S
C1513 C326 0.799 . S
C1532 C609 0.789 . S
C1549 C169 0.812 . S
C1568 C366 0.747 . S
C1585 C529 0.801 1_545 S
C1604 C406 0.839 . S
C1621 C249 0.812 . S
C1640 C446 0.767 . S
C1657 C495 0.780 . S
C1676 C458 0.796 . S
C1693 C535 0.806 . S
C1712 C18 0.836 . S
C1729 C378 0.805 1_565 S
C1748 C575 0.780 . S
C1765 C615 0.801 . S
C1784 C98 0.815 . S
C1801 C19 4.097 . S
C1820 C370 4.118 . S
C1837 C410 4.132 . S
C1856 C59 4.089 . S
C1873 C99 4.098 . S
C1892 C450 4.120 . S
C1909 C330 4.135 . S
C1928 C139 4.104 . S
C1945 C539 4.132 . S
C1964 C170 4.089 . S
C1981 C579 4.134 . S
C2000 C210 4.082 . S
C2017 C619 4.136 . S
C2036 C250 4.088 . S
C2053 C499 4.133 . S
C2072 C290 4.102 . S
C2089 C50 4.132 . S
C2108 C339 4.082 . S
C2125 C90 4.136 . S
C2144 C379 4.096 . S
C2161 C130 4.136 . S
C2180 C419 4.100 . S
C2197 C459 4.099 . S
C2216 C10 4.123 . S
C2233 C219 4.135 . S
C2252 C490 4.104 . S
C2269 C259 4.135 . S
C2288 C530 4.085 . S
C2305 C299 4.132 . S
C2324 C570 4.093 . S
C2341 C179 4.135 . S
C2360 C610 4.087 . S
