# Generated by pormake.
# Topology whd, (6)-cn, num edge types: 1
# Building blocks:
#     Node 0, Type 0, BuildingBlock: OJICUG_clean_sbu_0, # of connection points: 6
#     Node 1, Type 0, BuildingBlock: OJICUG_clean_sbu_0, # of connection points: 6
#     Node 2, Type 0, BuildingBlock: OJICUG_clean_sbu_0, # of connection points: 6
#     Node 3, Type 0, BuildingBlock: OJICUG_clean_sbu_0, # of connection points: 6
#     Node 4, Type 0, BuildingBlock: OJICUG_clean_sbu_0, # of connection points: 6
#     Node 5, Type 0, BuildingBlock: OJICUG_clean_sbu_0, # of connection points: 6
#     Node 6, Type 0, BuildingBlock: OJICUG_clean_sbu_0, # of connection points: 6
#     Node 7, Type 0, BuildingBlock: OJICUG_clean_sbu_0, # of connection points: 6
#     Node 8, Type 0, BuildingBlock: OJICUG_clean_sbu_0, # of connection points: 6
#     Node 9, Type 0, BuildingBlock: OJICUG_clean_sbu_0, # of connection points: 6
#     Node 10, Type 0, BuildingBlock: OJICUG_clean_sbu_0, # of connection points: 6
#     Node 11, Type 0, BuildingBlock: OJICUG_clean_sbu_0, # of connection points: 6
#     Node 12, Type 0, BuildingBlock: OJICUG_clean_sbu_0, # of connection points: 6
#     Node 13, Type 0, BuildingBlock: OJICUG_clean_sbu_0, # of connection points: 6
#     Node 14, Type 0, BuildingBlock: OJICUG_clean_sbu_0, # of connection points: 6
#     Node 15, Type 0, BuildingBlock: OJICUG_clean_sbu_0, # of connection points: 6
#     Edge 16, Type (0, 0), BuildingBlock: AJUNOK_clean_linker_0, # of connection points: 2
#     Edge 17, Type (0, 0), BuildingBlock: AJUNOK_clean_linker_0, # of connection points: 2
#     Edge 18, Type (0, 0), BuildingBlock: AJUNOK_clean_linker_0, # of connection points: 2
#     Edge 19, Type (0, 0), BuildingBlock: AJUNOK_clean_linker_0, # of connection points: 2
#     Edge 20, Type (0, 0), BuildingBlock: AJUNOK_clean_linker_0, # of connection points: 2
#     Edge 21, Type (0, 0), BuildingBlock: AJUNOK_clean_linker_0, # of connection points: 2
#     Edge 22, Type (0, 0), BuildingBlock: AJUNOK_clean_linker_0, # of connection points: 2
#     Edge 23, Type (0, 0), BuildingBlock: AJUNOK_clean_linker_0, # of connection points: 2
#     Edge 24, Type (0, 0), BuildingBlock: AJUNOK_clean_linker_0, # of connection points: 2
#     Edge 25, Type (0, 0), BuildingBlock: AJUNOK_clean_linker_0, # of connection points: 2
#     Edge 26, Type (0, 0), BuildingBlock: AJUNOK_clean_linker_0, # of connection points: 2
#     Edge 27, Type (0, 0), BuildingBlock: AJUNOK_clean_linker_0, # of connection points: 2
#     Edge 28, Type (0, 0), BuildingBlock: AJUNOK_clean_linker_0, # of connection points: 2
#     Edge 29, Type (0, 0), BuildingBlock: AJUNOK_clean_linker_0, # of connection points: 2
#     Edge 30, Type (0, 0), BuildingBlock: AJUNOK_clean_linker_0, # of connection points: 2
#     Edge 31, Type (0, 0), BuildingBlock: AJUNOK_clean_linker_0, # of connection points: 2
#     Edge 32, Type (0, 0), BuildingBlock: AJUNOK_clean_linker_0, # of connection points: 2
#     Edge 33, Type (0, 0), BuildingBlock: AJUNOK_clean_linker_0, # of connection points: 2
#     Edge 34, Type (0, 0), BuildingBlock: AJUNOK_clean_linker_0, # of connection points: 2
#     Edge 35, Type (0, 0), BuildingBlock: AJUNOK_clean_linker_0, # of connection points: 2
#     Edge 36, Type (0, 0), BuildingBlock: AJUNOK_clean_linker_0, # of connection points: 2
#     Edge 37, Type (0, 0), BuildingBlock: AJUNOK_clean_linker_0, # of connection points: 2
#     Edge 38, Type (0, 0), BuildingBlock: AJUNOK_clean_linker_0, # of connection points: 2
#     Edge 39, Type (0, 0), BuildingBlock: AJUNOK_clean_linker_0, # of connection points: 2
#     Edge 40, Type (0, 0), BuildingBlock: AJUNOK_clean_linker_0, # of connection points: 2
#     Edge 41, Type (0, 0), BuildingBlock: AJUNOK_clean_linker_0, # of connection points: 2
#     Edge 42, Type (0, 0), BuildingBlock: AJUNOK_clean_linker_0, # of connection points: 2
#     Edge 43, Type (0, 0), BuildingBlock: AJUNOK_clean_linker_0, # of connection points: 2
#     Edge 44, Type (0, 0), BuildingBlock: AJUNOK_clean_linker_0, # of connection points: 2
#     Edge 45, Type (0, 0), BuildingBlock: AJUNOK_clean_linker_0, # of connection points: 2
#     Edge 46, Type (0, 0), BuildingBlock: AJUNOK_clean_linker_0, # of connection points: 2
#     Edge 47, Type (0, 0), BuildingBlock: AJUNOK_clean_linker_0, # of connection points: 2
#     Edge 48, Type (0, 0), BuildingBlock: AJUNOK_clean_linker_0, # of connection points: 2
#     Edge 49, Type (0, 0), BuildingBlock: AJUNOK_clean_linker_0, # of connection points: 2
#     Edge 50, Type (0, 0), BuildingBlock: AJUNOK_clean_linker_0, # of connection points: 2
#     Edge 51, Type (0, 0), BuildingBlock: AJUNOK_clean_linker_0, # of connection points: 2
#     Edge 52, Type (0, 0), BuildingBlock: AJUNOK_clean_linker_0, # of connection points: 2
#     Edge 53, Type (0, 0), BuildingBlock: AJUNOK_clean_linker_0, # of connection points: 2
#     Edge 54, Type (0, 0), BuildingBlock: AJUNOK_clean_linker_0, # of connection points: 2
#     Edge 55, Type (0, 0), BuildingBlock: AJUNOK_clean_linker_0, # of connection points: 2
#     Edge 56, Type (0, 0), BuildingBlock: AJUNOK_clean_linker_0, # of connection points: 2
#     Edge 57, Type (0, 0), BuildingBlock: AJUNOK_clean_linker_0, # of connection points: 2
#     Edge 58, Type (0, 0), BuildingBlock: AJUNOK_clean_linker_0, # of connection points: 2
#     Edge 59, Type (0, 0), BuildingBlock: AJUNOK_clean_linker_0, # of connection points: 2
#     Edge 60, Type (0, 0), BuildingBlock: AJUNOK_clean_linker_0, # of connection points: 2
#     Edge 61, Type (0, 0), BuildingBlock: AJUNOK_clean_linker_0, # of connection points: 2
#     Edge 62, Type (0, 0), BuildingBlock: AJUNOK_clean_linker_0, # of connection points: 2
#     Edge 63, Type (0, 0), BuildingBlock: AJUNOK_clean_linker_0, # of connection points: 2
# Relax obj value: 0.256
# Max RMSD: 0.229
# Mean RMSD: 0.229
data_MOF--net-whd--node1-OJICUG_clean_sbu_0--edge1-AJUNOK_clean_linker_0
_symmetry_space_group_name_H-M    P1
_symmetry_Int_Tables_number       1
_symmetry_cell_setting            triclinic
loop_
_symmetry_equiv_pos_as_xyz
'x, y, z'
_cell_length_a     40.284041
_cell_length_b     40.220355
_cell_length_c     23.140954
_cell_angle_alpha  89.991838
_cell_angle_beta   89.852737
_cell_angle_gamma 90.021904
loop_
_atom_site_label
_atom_site_type_symbol
_atom_site_fract_x
_atom_site_fract_y
_atom_site_fract_z
_atom_type_partial_charge
Sc0 Sc 0.14974 0.32554 0.34098 0.0
Sc1 Sc 0.19645 0.39624 0.29975 0.0
Sc2 Sc 0.12558 0.40477 0.38811 0.0
O3 O 0.15738 0.37552 0.34311 0.0
C4 C 0.07545 0.35255 0.33446 0.0
C5 C 0.16692 0.34397 0.20983 0.0
C6 C 0.13952 0.45009 0.27852 0.0
C7 C 0.22859 0.32931 0.3459 0.0
C8 C 0.13469 0.3424 0.47266 0.0
C9 C 0.19686 0.43622 0.41703 0.0
O10 O 0.0973 0.33007 0.32912 0.0
O11 O 0.18315 0.37009 0.22246 0.0
O12 O 0.12118 0.4407 0.32004 0.0
O13 O 0.20102 0.31472 0.35314 0.0
O14 O 0.12648 0.37222 0.46159 0.0
O15 O 0.21222 0.42524 0.37301 0.0
O16 O 0.14401 0.32205 0.43376 0.0
O17 O 0.23114 0.35844 0.32545 0.0
O18 O 0.16614 0.43131 0.4266 0.0
O19 O 0.15423 0.32472 0.24764 0.0
O20 O 0.08185 0.38143 0.3535 0.0
O21 O 0.16747 0.43694 0.26767 0.0
Sc22 Sc 0.32437 0.81839 0.66319 0.0
Sc23 Sc 0.39456 0.76944 0.69512 0.0
Sc24 Sc 0.4026 0.84187 0.60966 0.0
O25 O 0.37388 0.80979 0.65577 0.0
C26 C 0.33768 0.83593 0.53125 0.0
C27 C 0.32582 0.73957 0.65276 0.0
C28 C 0.43173 0.77068 0.57428 0.0
C29 C 0.34499 0.79767 0.79149 0.0
C30 C 0.35386 0.89158 0.67298 0.0
C31 C 0.45024 0.82466 0.71524 0.0
O32 O 0.31857 0.82607 0.5715 0.0
O33 O 0.35555 0.7361 0.66962 0.0
O34 O 0.42678 0.80154 0.56644 0.0
O35 O 0.32566 0.81171 0.75561 0.0
O36 O 0.38139 0.88543 0.64862 0.0
O37 O 0.43604 0.79723 0.72599 0.0
O38 O 0.33112 0.8702 0.67999 0.0
O39 O 0.37043 0.78113 0.77597 0.0
O40 O 0.44074 0.84394 0.67502 0.0
O41 O 0.31179 0.76764 0.64842 0.0
O42 O 0.36802 0.84334 0.5388 0.0
O43 O 0.42193 0.75483 0.61872 0.0
Sc44 Sc 0.81242 0.63977 0.33541 0.0
Sc45 Sc 0.76556 0.56872 0.2993 0.0
Sc46 Sc 0.8373 0.56187 0.38617 0.0
O47 O 0.80498 0.59003 0.34028 0.0
C48 C 0.88663 0.61174 0.32658 0.0
C49 C 0.79373 0.62036 0.20552 0.0
C50 C 0.82064 0.51318 0.2807 0.0
C51 C 0.73354 0.63594 0.34322 0.0
C52 C 0.83026 0.62677 0.46614 0.0
C53 C 0.76679 0.53192 0.42119 0.0
O54 O 0.86518 0.63485 0.32495 0.0
O55 O 0.77652 0.59506 0.2199 0.0
O56 O 0.83829 0.52204 0.32346 0.0
O57 O 0.76109 0.651 0.34605 0.0
O58 O 0.84099 0.5976 0.456 0.0
O59 O 0.75199 0.53952 0.37444 0.0
O60 O 0.81683 0.64488 0.42782 0.0
O61 O 0.73075 0.60598 0.32702 0.0
O62 O 0.79694 0.5391 0.43167 0.0
O63 O 0.80838 0.63877 0.24231 0.0
O64 O 0.88 0.58246 0.34355 0.0
O65 O 0.79454 0.52854 0.26609 0.0
Sc66 Sc 0.63883 0.15291 0.66419 0.0
Sc67 Sc 0.56789 0.20052 0.69859 0.0
Sc68 Sc 0.56068 0.12863 0.6126 0.0
O69 O 0.58916 0.16081 0.65822 0.0
C70 C 0.62441 0.13569 0.53167 0.0
C71 C 0.6366 0.2314 0.65554 0.0
C72 C 0.53047 0.20001 0.5795 0.0
C73 C 0.61789 0.17291 0.79316 0.0
C74 C 0.6108 0.07946 0.67481 0.0
C75 C 0.51324 0.14384 0.71854 0.0
O76 O 0.6443 0.1431 0.57238 0.0
O77 O 0.60765 0.23419 0.67677 0.0
O78 O 0.53415 0.16883 0.57318 0.0
O79 O 0.63862 0.16144 0.75663 0.0
O80 O 0.58409 0.08487 0.64747 0.0
O81 O 0.5254 0.17256 0.72683 0.0
O82 O 0.63248 0.10155 0.68448 0.0
O83 O 0.59091 0.187 0.77875 0.0
O84 O 0.5244 0.12405 0.68043 0.0
O85 O 0.65029 0.20355 0.64601 0.0
O86 O 0.59372 0.13021 0.53994 0.0
O87 O 0.54206 0.21639 0.62185 0.0
Sc88 Sc 0.12552 0.55963 0.61485 0.0
Sc89 Sc 0.19684 0.57074 0.70118 0.0
Sc90 Sc 0.14656 0.6393 0.66305 0.0
O91 O 0.15646 0.58983 0.65956 0.0
C92 C 0.13033 0.62378 0.53242 0.0
C93 C 0.19739 0.53196 0.58182 0.0
C94 C 0.22562 0.63925 0.65559 0.0
C95 C 0.14355 0.51347 0.72234 0.0
C96 C 0.07392 0.60818 0.67374 0.0
C97 C 0.16604 0.62159 0.79283 0.0
O98 O 0.123 0.59355 0.54256 0.0
O99 O 0.21237 0.54192 0.62695 0.0
O100 O 0.19737 0.65285 0.65081 0.0
O101 O 0.1248 0.52169 0.68065 0.0
O102 O 0.09443 0.63208 0.67595 0.0
O103 O 0.18439 0.59689 0.77991 0.0
O104 O 0.08149 0.57962 0.65451 0.0
O105 O 0.16986 0.52918 0.73472 0.0
O106 O 0.15114 0.63913 0.7553 0.0
O107 O 0.16671 0.53673 0.57236 0.0
O108 O 0.14038 0.64363 0.57125 0.0
O109 O 0.22949 0.60965 0.67302 0.0
Sc110 Sc 0.56248 0.83976 0.38025 0.0
Sc111 Sc 0.569 0.76833 0.29132 0.0
Sc112 Sc 0.64025 0.81484 0.32786 0.0
O113 O 0.59052 0.80753 0.33334 0.0
C114 C 0.61287 0.88891 0.3185 0.0
C115 C 0.5159 0.82588 0.27142 0.0
C116 C 0.62148 0.79458 0.19838 0.0
C117 C 0.52981 0.7695 0.41063 0.0
C118 C 0.62665 0.83252 0.45974 0.0
C119 C 0.63531 0.73607 0.33906 0.0
O120 O 0.58533 0.88321 0.34333 0.0
O121 O 0.52953 0.79845 0.25843 0.0
O122 O 0.64011 0.80828 0.23568 0.0
O123 O 0.53667 0.79969 0.42147 0.0
O124 O 0.64581 0.82271 0.41959 0.0
O125 O 0.60604 0.73339 0.31942 0.0
O126 O 0.5964 0.84007 0.45191 0.0
O127 O 0.53906 0.75443 0.36508 0.0
O128 O 0.65041 0.76362 0.34369 0.0
O129 O 0.52506 0.84338 0.31426 0.0
O130 O 0.63497 0.86692 0.31049 0.0
O131 O 0.59534 0.77864 0.21191 0.0
Sc132 Sc 0.83914 0.40504 0.61179 0.0
Sc133 Sc 0.77087 0.3969 0.70571 0.0
Sc134 Sc 0.81763 0.32632 0.66419 0.0
O135 O 0.80907 0.37609 0.66057 0.0
C136 C 0.83147 0.34051 0.53203 0.0
C137 C 0.7679 0.4347 0.58472 0.0
C138 C 0.73847 0.32968 0.66191 0.0
C139 C 0.82583 0.45223 0.71989 0.0
C140 C 0.89095 0.3565 0.66922 0.0
C141 C 0.80138 0.34479 0.79519 0.0
O142 O 0.84111 0.36994 0.54223 0.0
O143 O 0.75532 0.42757 0.63369 0.0
O144 O 0.76606 0.31474 0.6569 0.0
O145 O 0.84069 0.4449 0.67328 0.0
O146 O 0.87043 0.33252 0.67175 0.0
O147 O 0.78364 0.36986 0.78257 0.0
O148 O 0.88318 0.38532 0.65133 0.0
O149 O 0.80107 0.43627 0.73919 0.0
O150 O 0.81546 0.32653 0.75751 0.0
O151 O 0.79726 0.42691 0.56975 0.0
O152 O 0.82073 0.32123 0.57137 0.0
O153 O 0.73592 0.35969 0.67831 0.0
Sc154 Sc 0.40408 0.12868 0.38369 0.0
Sc155 Sc 0.3957 0.19957 0.29465 0.0
Sc156 Sc 0.3254 0.1518 0.33477 0.0
O157 O 0.37512 0.16015 0.33774 0.0
C158 C 0.35392 0.07813 0.32501 0.0
C159 C 0.45008 0.14315 0.2742 0.0
C160 C 0.34276 0.17153 0.20472 0.0
C161 C 0.43521 0.19963 0.4132 0.0
C162 C 0.34046 0.13564 0.46583 0.0
C163 C 0.32892 0.2308 0.34323 0.0
O164 O 0.38219 0.08492 0.34612 0.0
O165 O 0.43586 0.17022 0.26063 0.0
O166 O 0.32498 0.15726 0.24274 0.0
O167 O 0.42898 0.16934 0.42437 0.0
O168 O 0.32076 0.14506 0.42643 0.0
O169 O 0.35815 0.23393 0.32337 0.0
O170 O 0.37064 0.12829 0.45631 0.0
O171 O 0.42575 0.21437 0.36752 0.0
O172 O 0.31438 0.20301 0.34857 0.0
O173 O 0.4413 0.12579 0.31742 0.0
O174 O 0.33084 0.09943 0.32059 0.0
O175 O 0.36858 0.18834 0.21677 0.0
Sc176 Sc 0.6488 0.82697 0.82655 0.0
Sc177 Sc 0.69525 0.89924 0.79343 0.0
Sc178 Sc 0.62627 0.90355 0.8871 0.0
O179 O 0.65687 0.87662 0.83572 0.0
C180 C 0.57505 0.85569 0.82553 0.0
C181 C 0.66643 0.84963 0.69787 0.0
C182 C 0.63917 0.95398 0.78311 0.0
C183 C 0.72785 0.8312 0.83224 0.0
C184 C 0.63439 0.8364 0.96007 0.0
C185 C 0.6967 0.93447 0.91692 0.0
O186 O 0.59622 0.83271 0.81819 0.0
O187 O 0.68399 0.87427 0.71357 0.0
O188 O 0.62367 0.94462 0.82806 0.0
O189 O 0.70034 0.81592 0.83476 0.0
O190 O 0.62598 0.86661 0.95409 0.0
O191 O 0.70988 0.92818 0.8681 0.0
O192 O 0.6443 0.81839 0.91837 0.0
O193 O 0.73048 0.86166 0.81854 0.0
O194 O 0.66741 0.92578 0.93064 0.0
O195 O 0.65205 0.83027 0.73353 0.0
O196 O 0.58214 0.88383 0.84716 0.0
O197 O 0.66456 0.9392 0.76326 0.0
Sc198 Sc 0.82569 0.31343 0.16214 0.0
Sc199 Sc 0.89468 0.26573 0.20531 0.0
Sc200 Sc 0.9047 0.33718 0.11784 0.0
O201 O 0.87517 0.30522 0.16171 0.0
C202 C 0.84227 0.32937 0.03305 0.0
C203 C 0.82838 0.23422 0.15819 0.0
C204 C 0.93471 0.26624 0.0862 0.0
C205 C 0.84205 0.29709 0.29341 0.0
C206 C 0.85412 0.38748 0.17204 0.0
C207 C 0.95018 0.32024 0.22691 0.0
O208 O 0.82335 0.31549 0.06969 0.0
O209 O 0.85812 0.23106 0.1749 0.0
O210 O 0.92787 0.29635 0.07425 0.0
O211 O 0.82533 0.31189 0.2546 0.0
O212 O 0.88393 0.3801 0.1597 0.0
O213 O 0.93401 0.29454 0.24148 0.0
O214 O 0.83053 0.36659 0.16926 0.0
O215 O 0.8661 0.27749 0.28229 0.0
O216 O 0.94289 0.33759 0.18289 0.0
O217 O 0.8138 0.26202 0.15482 0.0
O218 O 0.87061 0.34126 0.04581 0.0
O219 O 0.926 0.25178 0.13286 0.0
Sc220 Sc 0.31524 0.14219 0.83483 0.0
Sc221 Sc 0.26944 0.07082 0.79473 0.0
Sc222 Sc 0.3366 0.06468 0.89118 0.0
O223 O 0.30695 0.09254 0.84028 0.0
C224 C 0.3888 0.1128 0.83244 0.0
C225 C 0.29921 0.12308 0.70465 0.0
C226 C 0.3251 0.01624 0.78374 0.0
C227 C 0.23606 0.1372 0.83854 0.0
C228 C 0.32834 0.13063 0.96715 0.0
C229 C 0.26619 0.03318 0.91621 0.0
O230 O 0.36807 0.13647 0.82807 0.0
O231 O 0.28053 0.09864 0.71731 0.0
O232 O 0.33884 0.02414 0.83105 0.0
O233 O 0.26339 0.15284 0.84144 0.0
O234 O 0.33742 0.10075 0.95944 0.0
O235 O 0.25464 0.0392 0.86615 0.0
O236 O 0.31794 0.14909 0.92667 0.0
O237 O 0.2337 0.10702 0.82304 0.0
O238 O 0.29454 0.04295 0.93314 0.0
O239 O 0.3141 0.14041 0.74238 0.0
O240 O 0.38107 0.08427 0.85192 0.0
O241 O 0.30122 0.03242 0.76175 0.0
Sc242 Sc 0.1382 0.64764 0.16329 0.0
Sc243 Sc 0.06936 0.69772 0.20077 0.0
Sc244 Sc 0.05929 0.62725 0.11148 0.0
O245 O 0.08889 0.65771 0.1583 0.0
C246 C 0.12417 0.63396 0.03141 0.0
C247 C 0.13824 0.72705 0.15922 0.0
C248 C 0.03074 0.69918 0.08111 0.0
C249 C 0.11887 0.66545 0.29311 0.0
C250 C 0.10764 0.57457 0.16749 0.0
C251 C 0.01262 0.64356 0.21919 0.0
O252 O 0.14363 0.64343 0.07125 0.0
O253 O 0.10818 0.73096 0.17397 0.0
O254 O 0.03612 0.6687 0.07034 0.0
O255 O 0.13639 0.65016 0.25585 0.0
O256 O 0.07918 0.58256 0.14876 0.0
O257 O 0.02809 0.66984 0.23286 0.0
O258 O 0.13134 0.59514 0.17184 0.0
O259 O 0.09511 0.68485 0.2797 0.0
O260 O 0.02104 0.62539 0.1767 0.0
O261 O 0.15189 0.69874 0.15536 0.0
O262 O 0.09394 0.62626 0.04028 0.0
O263 O 0.04041 0.71374 0.12691 0.0
Sc264 Sc 0.62699 0.06432 0.10556 0.0
Sc265 Sc 0.69403 0.07047 0.20077 0.0
Sc266 Sc 0.64861 0.14118 0.16066 0.0
O267 O 0.65672 0.09202 0.15583 0.0
C268 C 0.63406 0.13031 0.03012 0.0
C269 C 0.69655 0.03461 0.07707 0.0
C270 C 0.72779 0.13625 0.15813 0.0
C271 C 0.64007 0.01563 0.2122 0.0
C272 C 0.5753 0.11072 0.16455 0.0
C273 C 0.6641 0.12288 0.29093 0.0
O274 O 0.62076 0.10227 0.04031 0.0
O275 O 0.7067 0.03757 0.12903 0.0
O276 O 0.70057 0.15219 0.15889 0.0
O277 O 0.62872 0.02159 0.16208 0.0
O278 O 0.59523 0.13532 0.16242 0.0
O279 O 0.68455 0.09994 0.27762 0.0
O280 O 0.58378 0.08131 0.15094 0.0
O281 O 0.66133 0.03397 0.23683 0.0
O282 O 0.64749 0.13885 0.25339 0.0
O283 O 0.66933 0.04678 0.05916 0.0
O284 O 0.64942 0.14685 0.06826 0.0
O285 O 0.73006 0.10545 0.16933 0.0
Sc286 Sc 0.06148 0.33869 0.89019 0.0
Sc287 Sc 0.06923 0.26808 0.79999 0.0
Sc288 Sc 0.13959 0.31414 0.84255 0.0
O289 O 0.08997 0.30675 0.84426 0.0
C290 C 0.11228 0.38867 0.83545 0.0
C291 C 0.01496 0.32432 0.7814 0.0
C292 C 0.12167 0.29931 0.71127 0.0
C293 C 0.03108 0.26772 0.92091 0.0
C294 C 0.12452 0.32904 0.9727 0.0
C295 C 0.1355 0.23499 0.84414 0.0
O296 O 0.08263 0.38171 0.8495 0.0
O297 O 0.02992 0.29801 0.76615 0.0
O298 O 0.13914 0.31324 0.75003 0.0
O299 O 0.03818 0.29774 0.93303 0.0
O300 O 0.143 0.31554 0.93499 0.0
O301 O 0.10567 0.23248 0.82754 0.0
O302 O 0.09616 0.34124 0.96133 0.0
O303 O 0.03884 0.2536 0.87345 0.0
O304 O 0.15053 0.2625 0.84862 0.0
O305 O 0.02297 0.34082 0.82598 0.0
O306 O 0.13552 0.36735 0.8363 0.0
O307 O 0.09709 0.28035 0.72243 0.0
Sc308 Sc 0.33862 0.90517 0.10621 0.0
Sc309 Sc 0.26837 0.89697 0.19653 0.0
Sc310 Sc 0.31793 0.82709 0.16263 0.0
O311 O 0.30819 0.87645 0.15504 0.0
C312 C 0.33246 0.83891 0.03004 0.0
C313 C 0.26688 0.93301 0.07422 0.0
C314 C 0.23872 0.82759 0.15806 0.0
C315 C 0.32268 0.95354 0.21219 0.0
C316 C 0.39088 0.85804 0.16503 0.0
C317 C 0.29931 0.84803 0.29157 0.0
O318 O 0.34111 0.86903 0.03723 0.0
O319 O 0.25286 0.92508 0.12157 0.0
O320 O 0.26688 0.8136 0.15546 0.0
O321 O 0.33998 0.9448 0.16882 0.0
O322 O 0.37062 0.83405 0.17014 0.0
O323 O 0.28079 0.8721 0.27626 0.0
O324 O 0.38282 0.88645 0.14606 0.0
O325 O 0.29645 0.93844 0.22751 0.0
O326 O 0.31483 0.82971 0.25566 0.0
O327 O 0.29712 0.92684 0.06272 0.0
O328 O 0.32174 0.82046 0.07052 0.0
O329 O 0.23497 0.85799 0.17102 0.0
Sc330 Sc 0.90011 0.62809 0.8916 0.0
Sc331 Sc 0.89559 0.69809 0.7997 0.0
Sc332 Sc 0.82344 0.65225 0.83289 0.0
O333 O 0.87306 0.65962 0.84176 0.0
C334 C 0.85097 0.57829 0.82842 0.0
C335 C 0.94962 0.64049 0.78667 0.0
C336 C 0.84634 0.66986 0.70381 0.0
C337 C 0.93173 0.69938 0.92091 0.0
C338 C 0.83433 0.63648 0.96696 0.0
C339 C 0.82721 0.73094 0.83875 0.0
O340 O 0.8772 0.584 0.85701 0.0
O341 O 0.93714 0.66852 0.77421 0.0
O342 O 0.82519 0.65888 0.74003 0.0
O343 O 0.92619 0.66877 0.93076 0.0
O344 O 0.81581 0.64419 0.92461 0.0
O345 O 0.85666 0.73302 0.81945 0.0
O346 O 0.86512 0.63039 0.9619 0.0
O347 O 0.92183 0.71451 0.87588 0.0
O348 O 0.81258 0.70345 0.84751 0.0
O349 O 0.93838 0.62219 0.82699 0.0
O350 O 0.82971 0.60042 0.81621 0.0
O351 O 0.87313 0.68412 0.71884 0.0
C352 C 0.15375 0.49767 0.21431 0.0
C353 C 0.12938 0.47934 0.24412 0.0
C354 C 0.14603 0.52773 0.18741 0.0
C355 C 0.11356 0.54049 0.18853 0.0
H356 H 0.17939 0.48957 0.21376 0.0
H357 H 0.16592 0.54155 0.16688 0.0
S358 S 0.03981 0.50038 0.25492 0.0
N359 N 0.07075 0.47472 0.26896 0.0
N360 N 0.05624 0.53141 0.21789 0.0
C361 C 0.08847 0.52154 0.2151 0.0
C362 C 0.0964 0.49096 0.24313 0.0
C363 C 0.49442 0.8654 0.74426 0.0
C364 C 0.48013 0.83352 0.74935 0.0
C365 C 0.52433 0.87324 0.77201 0.0
C366 C 0.54112 0.84933 0.80509 0.0
H367 H 0.48288 0.88424 0.71757 0.0
H368 H 0.53517 0.89759 0.7652 0.0
S369 S 0.51303 0.76364 0.83781 0.0
N370 N 0.48415 0.77886 0.79487 0.0
N371 N 0.54043 0.79376 0.84584 0.0
C372 C 0.5265 0.81802 0.81288 0.0
C373 C 0.49597 0.81007 0.78536 0.0
C374 C 0.86966 0.43811 0.22847 0.0
C375 C 0.84649 0.42107 0.19408 0.0
C376 C 0.86137 0.46822 0.25542 0.0
C377 C 0.82977 0.48263 0.24831 0.0
H378 H 0.89392 0.42749 0.23647 0.0
H379 H 0.87975 0.47999 0.28273 0.0
S380 S 0.76123 0.44886 0.15821 0.0
N381 N 0.79147 0.42149 0.15141 0.0
N382 N 0.7758 0.47804 0.20136 0.0
C383 C 0.80686 0.46635 0.21198 0.0
C384 C 0.81524 0.43559 0.18512 0.0
C385 C 0.43493 0.15148 0.80823 0.0
C386 C 0.42267 0.11878 0.81007 0.0
C387 C 0.4648 0.159 0.7804 0.0
C388 C 0.48355 0.13414 0.75257 0.0
H389 H 0.42092 0.17172 0.82734 0.0
H390 H 0.47254 0.18476 0.77901 0.0
S391 S 0.46367 0.04398 0.7489 0.0
N392 N 0.43251 0.06088 0.78492 0.0
N393 N 0.48883 0.07496 0.73222 0.0
C394 C 0.47231 0.10104 0.75615 0.0
C395 C 0.44189 0.09333 0.78509 0.0
C396 C 0.10293 0.4703 0.75551 0.0
C397 C 0.1354 0.48323 0.75604 0.0
C398 C 0.09525 0.44041 0.78367 0.0
C399 C 0.11988 0.42215 0.81274 0.0
H400 H 0.08333 0.48309 0.73248 0.0
H401 H 0.07013 0.43095 0.78068 0.0
S402 S 0.20831 0.44595 0.82987 0.0
N403 N 0.19207 0.47601 0.79054 0.0
N404 N 0.17756 0.41993 0.84317 0.0
C405 C 0.15218 0.43527 0.81514 0.0
C406 C 0.15996 0.46578 0.78694 0.0
C407 C 0.46756 0.8641 0.2568 0.0
C408 C 0.48645 0.83662 0.23791 0.0
C409 C 0.4373 0.87213 0.23067 0.0
C410 C 0.42484 0.85279 0.18525 0.0
H411 H 0.47547 0.87883 0.29345 0.0
H412 H 0.42281 0.89255 0.24796 0.0
S413 S 0.46628 0.78192 0.11318 0.0
N414 N 0.49191 0.79279 0.16545 0.0
N415 N 0.43443 0.80761 0.11805 0.0
C416 C 0.44402 0.82658 0.16367 0.0
C417 C 0.47505 0.81861 0.1895 0.0
C418 C 0.83878 0.54356 0.74326 0.0
C419 C 0.8464 0.54544 0.80238 0.0
C420 C 0.83347 0.51294 0.71656 0.0
C421 C 0.83478 0.48334 0.74851 0.0
H422 H 0.83697 0.56598 0.71743 0.0
H423 H 0.82724 0.51247 0.67102 0.0
S424 S 0.85432 0.47479 0.90405 0.0
N425 N 0.85615 0.51525 0.89173 0.0
N426 N 0.84467 0.45735 0.84163 0.0
C427 C 0.84256 0.48474 0.8075 0.0
C428 C 0.84886 0.51595 0.83446 0.0
C429 C 0.52735 0.14862 0.18124 0.0
C430 C 0.54147 0.11684 0.18681 0.0
C431 C 0.49702 0.15639 0.20744 0.0
C432 C 0.47982 0.13278 0.241 0.0
H433 H 0.54017 0.16797 0.15734 0.0
H434 H 0.48774 0.18152 0.20315 0.0
S435 S 0.5054 0.04522 0.26624 0.0
N436 N 0.53532 0.06102 0.22584 0.0
N437 N 0.47832 0.07556 0.27554 0.0
C438 C 0.49309 0.10046 0.24514 0.0
C439 C 0.52387 0.09247 0.21789 0.0
C440 C 0.6257 -0.01244 0.6957 0.0
C441 C 0.62927 -0.01464 0.75602 0.0
C442 C 0.61839 0.01805 0.66921 0.0
C443 C 0.61554 0.04712 0.70239 0.0
H444 H 0.6287 0.96564 0.669 0.0
H445 H 0.61604 0.01911 0.62262 0.0
S446 S 0.62292 0.0545 0.86145 0.0
N447 N 0.6289 0.0146 0.84802 0.0
N448 N 0.61635 0.07206 0.79798 0.0
C449 C 0.61888 0.04518 0.7626 0.0
C450 C 0.62546 0.01417 0.78957 0.0
C451 C 0.02283 0.36956 0.28605 0.0
C452 C 0.04167 0.34498 0.31407 0.0
C453 C -0.00727 0.36159 0.25915 0.0
C454 C 0.98021 0.32891 0.26028 0.0
H455 H 0.0321 0.39478 0.28261 0.0
H456 H 0.9795 0.38103 0.23642 0.0
S457 S 0.019 0.25624 0.33272 0.0
N458 N 0.04487 0.28728 0.34471 0.0
N459 N -0.01172 0.27223 0.29477 0.0
C460 C -0.00186 0.30449 0.29067 0.0
C461 C 0.02889 0.31254 0.31736 0.0
C462 C 0.34485 0.95271 0.66814 0.0
C463 C 0.34931 0.92375 0.70098 0.0
C464 C 0.33746 0.98299 0.69528 0.0
C465 C 0.33526 -0.01492 0.75587 0.0
H466 H 0.34603 0.95169 0.62139 0.0
H467 H 0.33324 0.0048 0.66883 0.0
S468 S 0.34592 0.91587 0.86031 0.0
N469 N 0.35142 0.89862 0.79626 0.0
N470 N 0.33861 0.95563 0.84764 0.0
C471 C 0.34068 0.9563 0.78898 0.0
C472 C 0.34742 0.92552 0.76134 0.0
C473 C 0.96902 0.60261 0.24924 0.0
C474 C 0.98218 0.63501 0.25194 0.0
C475 C 0.9387 0.59479 0.27578 0.0
C476 C 0.92029 0.61923 0.30515 0.0
H477 H 0.98194 0.58325 0.22567 0.0
H478 H 0.92903 0.56979 0.27128 0.0
S479 S 0.94476 0.70708 0.32879 0.0
N480 N 0.97516 0.6912 0.28969 0.0
N481 N 0.91823 0.67638 0.33904 0.0
C482 C 0.93368 0.65134 0.31004 0.0
C483 C 0.96463 0.65926 0.28364 0.0
C484 C 0.63234 0.95464 0.20775 0.0
C485 C 0.63102 -0.01586 0.24012 0.0
C486 C 0.62658 0.92385 0.23392 0.0
C487 C 0.61845 0.92173 0.29285 0.0
H488 H 0.63886 0.95526 0.16229 0.0
H489 H 0.62834 0.90154 0.20783 0.0
S490 S 0.61063 -0.00823 0.39581 0.0
N491 N 0.6208 0.00954 0.33382 0.0
N492 N 0.60851 0.95143 0.38262 0.0
C493 C 0.61616 0.95104 0.32541 0.0
C494 C 0.6229 0.98238 0.2991 0.0
C495 C 0.93812 0.31835 0.68857 0.0
C496 C 0.92467 0.35053 0.69164 0.0
C497 C 0.96803 0.31058 0.71579 0.0
C498 C -0.01455 0.33457 0.74797 0.0
H499 H 0.92504 0.29873 0.66598 0.0
H500 H 0.97682 0.28516 0.71339 0.0
S501 S 0.96196 0.42324 0.76589 0.0
N502 N 0.93189 0.40717 0.72636 0.0
N503 N -0.01181 0.39249 0.77815 0.0
C504 C 0.97295 0.36724 0.74959 0.0
C505 C 0.94258 0.37526 0.72115 0.0
C506 C 0.31506 0.03221 0.30064 0.0
C507 C 0.34768 0.04461 0.30146 0.0
C508 C 0.30752 0.00222 0.27321 0.0
C509 C 0.33221 -0.01631 0.24464 0.0
H510 H 0.29503 0.04606 0.32063 0.0
H511 H 0.28187 -0.0059 0.27281 0.0
S512 S 0.42186 0.00441 0.23668 0.0
N513 N 0.40523 0.03538 0.27358 0.0
N514 N 0.39094 0.97898 0.2213 0.0
C515 C 0.36513 -0.0047 0.24641 0.0
C516 C 0.37291 0.02572 0.27513 0.0
C517 C 0.02757 0.64661 0.69612 0.0
C518 C 0.0404 0.61417 0.69727 0.0
C519 C -0.00219 0.65441 0.7238 0.0
C520 C 0.97969 0.63017 0.75444 0.0
H521 H 0.04097 0.66641 0.67447 0.0
H522 H -0.01043 0.68003 0.72249 0.0
S523 S 0.00174 0.54086 0.76785 0.0
N524 N 0.0322 0.5571 0.72915 0.0
N525 N 0.97597 0.57179 0.78175 0.0
C526 C -0.00831 0.59728 0.75451 0.0
C527 C 0.02205 0.58926 0.72565 0.0
C528 C 0.21299 0.5183 0.48194 0.0
C529 C 0.21423 0.50997 0.54086 0.0
C530 C 0.21282 0.49348 0.43962 0.0
C531 C 0.21335 0.4598 0.45543 0.0
H532 H 0.20818 0.54374 0.46895 0.0
H533 H 0.20797 0.50053 0.39522 0.0
S534 S 0.22373 0.4257 0.60272 0.0
N535 N 0.22207 0.4664 0.61213 0.0
N536 N 0.22069 0.4195 0.53233 0.0
C537 C 0.21886 0.45142 0.51338 0.0
C538 C 0.21969 0.47672 0.55638 0.0
C539 C 0.48717 0.74968 0.54891 0.0
C540 C 0.45396 0.75463 0.53267 0.0
C541 C 0.5125 0.7499 0.50726 0.0
C542 C 0.50503 0.75414 0.44847 0.0
H543 H 0.494 0.74994 0.59418 0.0
H544 H 0.53809 0.75023 0.52157 0.0
S545 S 0.42152 0.76231 0.38381 0.0
N546 N 0.41457 0.75976 0.45408 0.0
N547 N 0.46212 0.75879 0.37552 0.0
C548 C 0.47167 0.75471 0.43138 0.0
C549 C 0.44602 0.75529 0.47374 0.0
C550 C 0.75205 0.49219 0.56352 0.0
C551 C 0.75112 0.45859 0.54714 0.0
C552 C 0.75231 0.51728 0.52161 0.0
C553 C 0.75084 0.50936 0.46253 0.0
H554 H 0.75706 0.49892 0.60802 0.0
H555 H 0.75735 0.54259 0.53508 0.0
S556 S 0.73999 0.42558 0.39923 0.0
N557 N 0.7431 0.41891 0.46948 0.0
N558 N 0.7422 0.4663 0.39056 0.0
C559 C 0.74488 0.47627 0.44646 0.0
C560 C 0.74542 0.45068 0.489 0.0
C561 C 0.45026 0.21916 0.51058 0.0
C562 C 0.45876 0.21593 0.45194 0.0
C563 C 0.47489 0.21966 0.55316 0.0
C564 C 0.50848 0.2162 0.538 0.0
H565 H 0.42449 0.21761 0.52391 0.0
H566 H 0.46739 0.21842 0.59813 0.0
S567 S 0.54348 0.21203 0.3902 0.0
N568 N 0.50291 0.21403 0.38047 0.0
N569 N 0.54925 0.21383 0.4608 0.0
C570 C 0.51736 0.21677 0.4794 0.0
C571 C 0.49236 0.21694 0.43608 0.0
C572 C 0.71365 0.97703 0.05626 0.0
C573 C 0.7124 0.0104 0.03842 0.0
C574 C 0.71327 0.95131 0.01544 0.0
C575 C 0.71258 0.95837 0.95595 0.0
H576 H 0.71047 0.97071 0.10147 0.0
H577 H 0.70992 0.92599 0.03045 0.0
S578 S 0.71648 0.04165 0.88808 0.0
N579 N 0.71574 0.04918 0.95825 0.0
N580 N 0.71627 0.00075 0.88144 0.0
C581 C 0.71623 -0.00852 0.93793 0.0
C582 C 0.71583 0.01764 0.97938 0.0
C583 C 0.95046 0.24723 0.98856 0.0
C584 C 0.95854 0.25016 0.04739 0.0
C585 C 0.97538 0.24722 0.94619 0.0
C586 C 0.00884 0.25101 0.96179 0.0
H587 H 0.92477 0.24867 0.97498 0.0
H588 H 0.96814 0.24872 0.90119 0.0
S589 S 0.04286 0.25403 0.11014 0.0
N590 N 0.00224 0.25169 0.11937 0.0
N591 N 0.04908 0.25288 0.03956 0.0
C592 C 0.01732 0.24992 0.02052 0.0
C593 C -0.00796 0.24919 0.06358 0.0
C594 C 0.24638 0.01489 0.01218 0.0
C595 C 0.24997 0.00825 0.95288 0.0
C596 C 0.24602 -0.01106 0.05253 0.0
C597 C 0.25021 0.95586 0.0345 0.0
H598 H 0.24753 0.04027 0.02781 0.0
H599 H 0.24703 -0.00486 0.09808 0.0
S600 S 0.25408 0.92535 0.88379 0.0
N601 N 0.25185 0.96621 0.87761 0.0
N602 N 0.25268 0.91744 0.95382 0.0
C603 C 0.24963 0.94876 0.97519 0.0
C604 C 0.24911 0.97509 0.9341 0.0
C605 C 0.94873 0.71788 0.01833 0.0
C606 C 0.95592 0.71539 0.95905 0.0
C607 C 0.97435 0.71859 0.05923 0.0
C608 C 0.00768 0.71585 0.04175 0.0
H609 H 0.92332 0.71573 0.03338 0.0
H610 H 0.96788 0.71679 0.10462 0.0
S611 S 0.03927 0.71343 0.89152 0.0
N612 N -0.00152 0.71487 0.88466 0.0
N613 N 0.04662 0.71478 0.96169 0.0
C614 C 0.01514 0.71707 0.98257 0.0
C615 C -0.01086 0.71716 0.94101 0.0
C616 C 0.15122 0.36683 0.11408 0.0
C617 C 0.15847 0.33884 0.14842 0.0
C618 C 0.14019 0.36334 0.05716 0.0
C619 C 0.13688 0.33181 0.03209 0.0
H620 H 0.15302 0.39168 0.13191 0.0
H621 H 0.13423 0.38546 0.03255 0.0
S622 S 0.15336 0.25072 0.10224 0.0
N623 N 0.16156 0.27851 0.15289 0.0
N624 N 0.14202 0.27209 0.04457 0.0
C625 C 0.14471 0.30362 0.06511 0.0
C626 C 0.15516 0.30709 0.12372 0.0
C627 C 0.36465 0.81385 0.94934 0.0
C628 C 0.33426 0.8252 0.97136 0.0
C629 C 0.36743 0.80328 0.89178 0.0
C630 C 0.33998 0.80424 0.85406 0.0
H631 H 0.38655 0.8138 0.97645 0.0
H632 H 0.39165 0.79567 0.8762 0.0
S633 S 0.25441 0.83041 0.8932 0.0
N634 N 0.27593 0.83545 0.95324 0.0
N635 N 0.28094 0.81611 0.84465 0.0
C636 C 0.30919 0.81479 0.87652 0.0
C637 C 0.30639 0.82518 0.93531 0.0
C638 C 0.80769 0.6037 0.04556 0.0
C639 C 0.81973 0.63426 0.02515 0.0
C640 C 0.79769 0.59993 0.10335 0.0
C641 C 0.79981 0.62653 0.14295 0.0
H642 H 0.80702 0.5823 0.01715 0.0
H643 H 0.78969 0.57555 0.11759 0.0
S644 S 0.82734 0.71245 0.10837 0.0
N645 N 0.83145 0.69201 0.04685 0.0
N646 N 0.81285 0.68523 0.15563 0.0
C647 C 0.8107 0.65761 0.12203 0.0
C648 C 0.82066 0.66139 0.06308 0.0
C649 C 0.59919 0.14603 0.9463 0.0
C650 C 0.63074 0.14413 0.9716 0.0
C651 C 0.59532 0.15697 0.88933 0.0
C652 C 0.62299 0.16551 0.85507 0.0
H653 H 0.57734 0.13873 0.97062 0.0
H654 H 0.57053 0.15741 0.87127 0.0
S655 S 0.711 0.16458 0.90166 0.0
N656 N 0.69007 0.15214 0.95925 0.0
N657 N 0.68301 0.17164 0.85102 0.0
C658 C 0.65471 0.1639 0.88011 0.0
C659 C 0.65854 0.15352 0.93874 0.0
C660 C 0.12588 0.63923 0.86853 0.0
C661 C 0.1578 0.62752 0.85423 0.0
C662 C 0.11542 0.6414 0.92601 0.0
C663 C 0.13669 0.63263 0.97153 0.0
H664 H 0.10826 0.64558 0.83499 0.0
H665 H 0.09039 0.64988 0.93485 0.0
S666 S 0.22331 0.60241 0.95771 0.0
N667 N 0.21098 0.60806 0.89039 0.0
N668 N 0.19153 0.61305 -0.00101 0.0
C669 C 0.16907 0.62205 0.95817 0.0
C670 C 0.17956 0.6192 0.89938 0.0
C671 C 0.64464 0.83143 0.12174 0.0
C672 C 0.62812 0.80173 0.13652 0.0
C673 C 0.64715 0.84187 0.0643 0.0
C674 C 0.63398 0.82271 0.01913 0.0
H675 H 0.65442 0.84766 0.15497 0.0
H676 H 0.65905 0.86549 0.05521 0.0
S677 S 0.59059 0.74191 0.03342 0.0
N678 N 0.59965 0.75253 0.10054 0.0
N679 N 0.60539 0.77194 0.99197 0.0
C680 C 0.61886 0.79223 0.03258 0.0
C681 C 0.61562 0.78182 0.09144 0.0
C682 C 0.8201 0.36748 0.88921 0.0
C683 C 0.80982 0.33987 0.85648 0.0
C684 C 0.83082 0.36379 0.94632 0.0
C685 C 0.83065 0.33251 0.97314 0.0
H686 H 0.82074 0.39203 0.86998 0.0
H687 H 0.83909 0.38558 0.96979 0.0
S688 S 0.80517 0.25259 0.90696 0.0
N689 N 0.80013 0.28027 0.8549 0.0
N690 N 0.81887 0.27351 0.96357 0.0
C691 C 0.81974 0.30479 0.94148 0.0
C692 C 0.80973 0.30841 0.88268 0.0
C693 C 0.31967 0.12248 0.07208 0.0
C694 C 0.32907 0.14357 0.02654 0.0
C695 C 0.32255 0.13265 0.12949 0.0
C696 C 0.33562 0.16406 0.14359 0.0
H697 H 0.31045 0.09768 0.0633 0.0
H698 H 0.31588 0.11508 0.16308 0.0
S699 S 0.36203 0.22924 0.03984 0.0
N700 N 0.35007 0.19792 0.99865 0.0
N701 N 0.35647 0.21686 0.10727 0.0
C702 C 0.34421 0.18581 0.09839 0.0
C703 C 0.34061 0.17564 0.03964 0.0
C704 C 0.6438 0.80914 0.5548 0.0
C705 C 0.64021 0.83668 0.51809 0.0
C706 C 0.6532 0.81334 0.61276 0.0
C707 C 0.65986 0.84518 0.63536 0.0
H708 H 0.63827 0.78436 0.53913 0.0
H709 H 0.65482 0.7916 0.64024 0.0
S710 S 0.65439 0.92504 0.5551 0.0
N711 N 0.64412 0.89646 0.50712 0.0
N712 N 0.66253 0.90464 0.61537 0.0
C713 C 0.65725 0.87278 0.59806 0.0
C714 C 0.64717 0.86845 0.53955 0.0
C715 C 0.83671 0.29524 0.45755 0.0
C716 C 0.83209 0.32906 0.47118 0.0
C717 C 0.8394 0.28465 0.3998 0.0
C718 C 0.83658 0.30742 0.35394 0.0
H719 H 0.83925 0.277 0.4917 0.0
H720 H 0.84388 0.25858 0.39098 0.0
S721 S 0.82403 0.39861 0.36627 0.0
N722 N 0.82444 0.38515 0.43363 0.0
N723 N 0.82908 0.36521 0.32587 0.0
C724 C 0.83121 0.34113 0.36702 0.0
C725 C 0.82906 0.35196 0.42543 0.0
C726 C 0.33982 0.13945 0.62891 0.0
C727 C 0.30753 0.12896 0.64335 0.0
C728 C 0.35009 0.14164 0.57133 0.0
C729 C 0.32827 0.13405 0.52592 0.0
H730 H 0.35779 0.14487 0.66239 0.0
H731 H 0.37539 0.14926 0.56234 0.0
S732 S 0.2405 0.10734 0.54045 0.0
N733 N 0.25341 0.11196 0.60767 0.0
N734 N 0.27251 0.11693 0.4989 0.0
C735 C 0.29554 0.12466 0.53954 0.0
C736 C 0.28524 0.12183 0.5984 0.0
C737 C 0.1358 0.61397 0.42663 0.0
C738 C 0.12824 0.6358 0.47219 0.0
C739 C 0.13394 0.62435 0.36905 0.0
C740 C 0.1238 0.65681 0.35465 0.0
H741 H 0.14335 0.58862 0.43549 0.0
H742 H 0.13951 0.60639 0.3355 0.0
S743 S 0.1017 0.72374 0.458 0.0
N744 N 0.11103 0.69162 0.49937 0.0
N745 N 0.10665 0.71093 0.39071 0.0
C746 C 0.11638 0.67901 0.39977 0.0
C747 C 0.1189 0.66859 0.45863 0.0
C748 C 0.61492 0.14283 0.42616 0.0
C749 C 0.63667 0.13437 0.47129 0.0
C750 C 0.62465 0.14039 0.36829 0.0
C751 C 0.65641 0.12878 0.35286 0.0
H752 H 0.58992 0.1512 0.43557 0.0
H753 H 0.60658 0.14656 0.33538 0.0
S754 S 0.72331 0.10464 0.45463 0.0
N755 N 0.69195 0.11525 0.4969 0.0
N756 N 0.71015 0.1099 0.38769 0.0
C757 C 0.67874 0.12085 0.39754 0.0
C758 C 0.66894 0.12391 0.4568 0.0
C759 C 0.12506 0.28691 0.60505 0.0
C760 C 0.12728 0.30972 0.65087 0.0
C761 C 0.12846 0.29745 0.54741 0.0
C762 C 0.13325 0.33127 0.53373 0.0
H763 H 0.12061 0.26083 0.61382 0.0
H764 H 0.12641 0.2791 0.51334 0.0
S765 S 0.13957 0.40094 0.6388 0.0
N766 N 0.13417 0.36754 0.6791 0.0
N767 N 0.14007 0.38745 0.57144 0.0
C768 C 0.13553 0.35425 0.57951 0.0
C769 C 0.13266 0.34345 0.6379 0.0
C770 C 0.31518 0.86856 0.44904 0.0
C771 C 0.32461 0.8378 0.47223 0.0
C772 C 0.30555 0.87129 0.39105 0.0
C773 C 0.30569 0.84341 0.35409 0.0
H774 H 0.31591 0.89074 0.47559 0.0
H775 H 0.29927 0.89569 0.37454 0.0
S776 S 0.32676 0.75691 0.39605 0.0
N777 N 0.33204 0.77872 0.45582 0.0
N778 N 0.31466 0.78373 0.34628 0.0
C779 C 0.31441 0.81233 0.37752 0.0
C780 C 0.3237 0.80955 0.43679 0.0
C781 C 0.8691 0.65162 0.60861 0.0
C782 C 0.84163 0.66201 0.6418 0.0
C783 C 0.86519 0.64039 0.55164 0.0
C784 C 0.83384 0.64007 0.52524 0.0
H785 H 0.89367 0.65094 0.6275 0.0
H786 H 0.88683 0.63179 0.52811 0.0
S787 S 0.75425 0.6658 0.59221 0.0
N788 N 0.78206 0.67156 0.64363 0.0
N789 N 0.775 0.6517 0.5356 0.0
C790 C 0.80634 0.65131 0.55712 0.0
C791 C 0.81015 0.66192 0.61569 0.0
C792 C 0.31086 0.28812 0.31787 0.0
C793 C 0.30909 0.26064 0.3553 0.0
C794 C 0.28596 0.31243 0.31843 0.0
C795 C 0.25878 0.30976 0.35641 0.0
H796 H 0.3299 0.28939 0.2848 0.0
H797 H 0.2866 0.33175 0.28582 0.0
S798 S 0.24765 0.24719 0.47254 0.0
N799 N 0.28174 0.23555 0.43834 0.0
N800 N 0.23496 0.28124 0.43943 0.0
C801 C 0.25893 0.28452 0.39832 0.0
C802 C 0.28415 0.2599 0.39776 0.0
C803 C 0.25157 0.68882 0.61052 0.0
C804 C 0.25502 0.6602 0.64483 0.0
C805 C 0.27613 0.71321 0.60956 0.0
C806 C 0.30504 0.70996 0.64298 0.0
H807 H 0.22894 0.69329 0.58653 0.0
H808 H 0.27154 0.73566 0.58493 0.0
S809 S 0.32854 0.63716 0.73247 0.0
N810 N 0.29144 0.62782 0.70701 0.0
N811 N 0.3378 0.67398 0.70531 0.0
C812 C 0.31033 0.68002 0.67299 0.0
C813 C 0.28521 0.65503 0.67392 0.0
C814 C 0.65197 0.67805 0.31546 0.0
C815 C 0.65442 0.70591 0.3519 0.0
C816 C 0.67631 0.65318 0.31655 0.0
C817 C 0.70358 0.65572 0.35406 0.0
H818 H 0.63287 0.67686 0.28264 0.0
H819 H 0.67529 0.63355 0.28454 0.0
S820 S 0.71634 0.71929 0.46778 0.0
N821 N 0.6824 0.73126 0.43381 0.0
N822 N 0.72825 0.68464 0.43558 0.0
C823 C 0.70406 0.68139 0.3951 0.0
C824 C 0.67938 0.70653 0.39409 0.0
C825 C 0.71012 0.28313 0.61249 0.0
C826 C 0.7083 0.31 0.65113 0.0
C827 C 0.68505 0.25927 0.61049 0.0
C828 C 0.65731 0.26129 0.6473 0.0
H829 H 0.73194 0.2795 0.58573 0.0
H830 H 0.68847 0.23801 0.58233 0.0
S831 S 0.63831 0.3298 0.7496 0.0
N832 N 0.67472 0.33979 0.7216 0.0
N833 N 0.62736 0.29462 0.71816 0.0
C834 C 0.65359 0.28977 0.68208 0.0
C835 C 0.67922 0.31424 0.68395 0.0
C836 C 0.75567 0.78491 0.88275 0.0
C837 C 0.7578 0.81138 0.84332 0.0
C838 C 0.78005 0.76039 0.88449 0.0
C839 C 0.80738 0.76137 0.84666 0.0
H840 H 0.734 0.78207 0.91018 0.0
H841 H 0.77639 0.73944 0.91328 0.0
S842 S 0.82702 0.8284 0.74179 0.0
N843 N 0.79125 0.83966 0.77084 0.0
N844 N 0.8374 0.79322 0.77383 0.0
C845 C 0.81152 0.78945 0.81104 0.0
C846 C 0.78657 0.8146 0.80941 0.0
C847 C 0.78556 0.15244 0.18343 0.0
C848 C 0.75795 0.15554 0.14685 0.0
C849 C 0.81054 0.17672 0.18337 0.0
C850 C 0.80833 0.20451 0.14669 0.0
H851 H 0.78646 0.13281 0.21546 0.0
H852 H 0.83003 0.17517 0.21541 0.0
S853 S 0.74516 0.21918 0.0333 0.0
N854 N 0.73286 0.18488 0.06622 0.0
N855 N 0.77984 0.23041 0.06583 0.0
C856 C 0.7828 0.20568 0.10557 0.0
C857 C 0.75751 0.18116 0.10574 0.0
C858 C 0.15345 0.17828 0.81467 0.0
C859 C 0.15522 0.20489 0.85393 0.0
C860 C 0.17852 0.15414 0.81305 0.0
C861 C 0.20581 0.15622 0.85061 0.0
H862 H 0.13428 0.1777 0.78192 0.0
H863 H 0.17796 0.13552 0.77922 0.0
S864 S 0.21718 0.21627 0.97039 0.0
N865 N 0.1828 0.22837 0.93789 0.0
N866 N 0.22996 0.18307 0.93471 0.0
C867 C 0.20574 0.18051 0.89411 0.0
C868 C 0.18034 0.20488 0.89583 0.0
C869 C 0.18842 0.75281 0.11621 0.0
C870 C 0.15954 0.75637 0.14982 0.0
C871 C 0.21288 0.77731 0.11589 0.0
C872 C 0.2094 0.80634 0.14915 0.0
H873 H 0.19297 0.73017 0.09207 0.0
H874 H 0.23543 0.77271 0.09152 0.0
S875 S 0.13636 0.82983 0.2381 0.0
N876 N 0.12703 0.79276 0.21212 0.0
N877 N 0.1733 0.83909 0.21148 0.0
C878 C 0.1794 0.81162 0.17894 0.0
C879 C 0.15435 0.78653 0.17929 0.0
loop_
_geom_bond_atom_site_label_1
_geom_bond_atom_site_label_2
_geom_bond_distance
_geom_bond_site_symmetry_2
_ccdc_geom_bond_type
Sc0 O3 2.025 . S
Sc0 O10 2.105 . S
Sc0 O13 2.105 . S
Sc0 O16 2.105 . S
Sc0 O19 2.105 . S
Sc1 O3 2.025 . S
Sc1 O11 2.105 . S
Sc1 O15 2.105 . S
Sc1 O17 2.105 . S
Sc1 O21 2.105 . S
Sc2 O3 2.025 . S
Sc2 O12 2.105 . S
Sc2 O14 2.105 . S
Sc2 O18 2.105 . S
Sc2 O20 2.105 . S
O3 Sc0 2.025 . S
O3 Sc1 2.025 . S
O3 Sc2 2.025 . S
C4 O10 1.268 . S
C4 O20 1.268 . S
C5 O11 1.268 . S
C5 O19 1.268 . S
C6 O12 1.268 . S
C6 O21 1.268 . S
C7 O13 1.268 . S
C7 O17 1.268 . S
C8 O14 1.268 . S
C8 O16 1.268 . S
C9 O15 1.268 . S
C9 O18 1.268 . S
O10 Sc0 2.105 . S
O10 C4 1.268 . S
O11 Sc1 2.105 . S
O11 C5 1.268 . S
O12 Sc2 2.105 . S
O12 C6 1.268 . S
O13 Sc0 2.105 . S
O13 C7 1.268 . S
O14 Sc2 2.105 . S
O14 C8 1.268 . S
O15 Sc1 2.105 . S
O15 C9 1.268 . S
O16 Sc0 2.105 . S
O16 C8 1.268 . S
O17 Sc1 2.105 . S
O17 C7 1.268 . S
O18 Sc2 2.105 . S
O18 C9 1.268 . S
O19 Sc0 2.105 . S
O19 C5 1.268 . S
O20 Sc2 2.105 . S
O20 C4 1.268 . S
O21 Sc1 2.105 . S
O21 C6 1.268 . S
Sc22 O25 2.025 . S
Sc22 O32 2.105 . S
Sc22 O35 2.105 . S
Sc22 O38 2.105 . S
Sc22 O41 2.105 . S
Sc23 O25 2.025 . S
Sc23 O33 2.105 . S
Sc23 O37 2.105 . S
Sc23 O39 2.105 . S
Sc23 O43 2.105 . S
Sc24 O25 2.025 . S
Sc24 O34 2.105 . S
Sc24 O36 2.105 . S
Sc24 O40 2.105 . S
Sc24 O42 2.105 . S
O25 Sc22 2.025 . S
O25 Sc23 2.025 . S
O25 Sc24 2.025 . S
C26 O32 1.268 . S
C26 O42 1.268 . S
C27 O33 1.268 . S
C27 O41 1.268 . S
C28 O34 1.268 . S
C28 O43 1.268 . S
C29 O35 1.268 . S
C29 O39 1.268 . S
C30 O36 1.268 . S
C30 O38 1.268 . S
C31 O37 1.268 . S
C31 O40 1.268 . S
O32 Sc22 2.105 . S
O32 C26 1.268 . S
O33 Sc23 2.105 . S
O33 C27 1.268 . S
O34 Sc24 2.105 . S
O34 C28 1.268 . S
O35 Sc22 2.105 . S
O35 C29 1.268 . S
O36 Sc24 2.105 . S
O36 C30 1.268 . S
O37 Sc23 2.105 . S
O37 C31 1.268 . S
O38 Sc22 2.105 . S
O38 C30 1.268 . S
O39 Sc23 2.105 . S
O39 C29 1.268 . S
O40 Sc24 2.105 . S
O40 C31 1.268 . S
O41 Sc22 2.105 . S
O41 C27 1.268 . S
O42 Sc24 2.105 . S
O42 C26 1.268 . S
O43 Sc23 2.105 . S
O43 C28 1.268 . S
Sc44 O47 2.025 . S
Sc44 O54 2.105 . S
Sc44 O57 2.105 . S
Sc44 O60 2.105 . S
Sc44 O63 2.105 . S
Sc45 O47 2.025 . S
Sc45 O55 2.105 . S
Sc45 O59 2.105 . S
Sc45 O61 2.105 . S
Sc45 O65 2.105 . S
Sc46 O47 2.025 . S
Sc46 O56 2.105 . S
Sc46 O58 2.105 . S
Sc46 O62 2.105 . S
Sc46 O64 2.105 . S
O47 Sc44 2.025 . S
O47 Sc45 2.025 . S
O47 Sc46 2.025 . S
C48 O54 1.268 . S
C48 O64 1.268 . S
C49 O55 1.268 . S
C49 O63 1.268 . S
C50 O56 1.268 . S
C50 O65 1.268 . S
C51 O57 1.268 . S
C51 O61 1.268 . S
C52 O58 1.268 . S
C52 O60 1.268 . S
C53 O59 1.268 . S
C53 O62 1.268 . S
O54 Sc44 2.105 . S
O54 C48 1.268 . S
O55 Sc45 2.105 . S
O55 C49 1.268 . S
O56 Sc46 2.105 . S
O56 C50 1.268 . S
O57 Sc44 2.105 . S
O57 C51 1.268 . S
O58 Sc46 2.105 . S
O58 C52 1.268 . S
O59 Sc45 2.105 . S
O59 C53 1.268 . S
O60 Sc44 2.105 . S
O60 C52 1.268 . S
O61 Sc45 2.105 . S
O61 C51 1.268 . S
O62 Sc46 2.105 . S
O62 C53 1.268 . S
O63 Sc44 2.105 . S
O63 C49 1.268 . S
O64 Sc46 2.105 . S
O64 C48 1.268 . S
O65 Sc45 2.105 . S
O65 C50 1.268 . S
Sc66 O69 2.025 . S
Sc66 O76 2.105 . S
Sc66 O79 2.105 . S
Sc66 O82 2.105 . S
Sc66 O85 2.105 . S
Sc67 O69 2.025 . S
Sc67 O77 2.105 . S
Sc67 O81 2.105 . S
Sc67 O83 2.105 . S
Sc67 O87 2.105 . S
Sc68 O69 2.025 . S
Sc68 O78 2.105 . S
Sc68 O80 2.105 . S
Sc68 O84 2.105 . S
Sc68 O86 2.105 . S
O69 Sc66 2.025 . S
O69 Sc67 2.025 . S
O69 Sc68 2.025 . S
C70 O76 1.268 . S
C70 O86 1.268 . S
C71 O77 1.268 . S
C71 O85 1.268 . S
C72 O78 1.268 . S
C72 O87 1.268 . S
C73 O79 1.268 . S
C73 O83 1.268 . S
C74 O80 1.268 . S
C74 O82 1.268 . S
C75 O81 1.268 . S
C75 O84 1.268 . S
O76 Sc66 2.105 . S
O76 C70 1.268 . S
O77 Sc67 2.105 . S
O77 C71 1.268 . S
O78 Sc68 2.105 . S
O78 C72 1.268 . S
O79 Sc66 2.105 . S
O79 C73 1.268 . S
O80 Sc68 2.105 . S
O80 C74 1.268 . S
O81 Sc67 2.105 . S
O81 C75 1.268 . S
O82 Sc66 2.105 . S
O82 C74 1.268 . S
O83 Sc67 2.105 . S
O83 C73 1.268 . S
O84 Sc68 2.105 . S
O84 C75 1.268 . S
O85 Sc66 2.105 . S
O85 C71 1.268 . S
O86 Sc68 2.105 . S
O86 C70 1.268 . S
O87 Sc67 2.105 . S
O87 C72 1.268 . S
Sc88 O91 2.025 . S
Sc88 O98 2.105 . S
Sc88 O101 2.105 . S
Sc88 O104 2.105 . S
Sc88 O107 2.105 . S
Sc89 O91 2.025 . S
Sc89 O99 2.105 . S
Sc89 O103 2.105 . S
Sc89 O105 2.105 . S
Sc89 O109 2.105 . S
Sc90 O91 2.025 . S
Sc90 O100 2.105 . S
Sc90 O102 2.105 . S
Sc90 O106 2.105 . S
Sc90 O108 2.105 . S
O91 Sc88 2.025 . S
O91 Sc89 2.025 . S
O91 Sc90 2.025 . S
C92 O98 1.268 . S
C92 O108 1.268 . S
C93 O99 1.268 . S
C93 O107 1.268 . S
C94 O100 1.268 . S
C94 O109 1.268 . S
C95 O101 1.268 . S
C95 O105 1.268 . S
C96 O102 1.268 . S
C96 O104 1.268 . S
C97 O103 1.268 . S
C97 O106 1.268 . S
O98 Sc88 2.105 . S
O98 C92 1.268 . S
O99 Sc89 2.105 . S
O99 C93 1.268 . S
O100 Sc90 2.105 . S
O100 C94 1.268 . S
O101 Sc88 2.105 . S
O101 C95 1.268 . S
O102 Sc90 2.105 . S
O102 C96 1.268 . S
O103 Sc89 2.105 . S
O103 C97 1.268 . S
O104 Sc88 2.105 . S
O104 C96 1.268 . S
O105 Sc89 2.105 . S
O105 C95 1.268 . S
O106 Sc90 2.105 . S
O106 C97 1.268 . S
O107 Sc88 2.105 . S
O107 C93 1.268 . S
O108 Sc90 2.105 . S
O108 C92 1.268 . S
O109 Sc89 2.105 . S
O109 C94 1.268 . S
Sc110 O113 2.025 . S
Sc110 O120 2.105 . S
Sc110 O123 2.105 . S
Sc110 O126 2.105 . S
Sc110 O129 2.105 . S
Sc111 O113 2.025 . S
Sc111 O121 2.105 . S
Sc111 O125 2.105 . S
Sc111 O127 2.105 . S
Sc111 O131 2.105 . S
Sc112 O113 2.025 . S
Sc112 O122 2.105 . S
Sc112 O124 2.105 . S
Sc112 O128 2.105 . S
Sc112 O130 2.105 . S
O113 Sc110 2.025 . S
O113 Sc111 2.025 . S
O113 Sc112 2.025 . S
C114 O120 1.268 . S
C114 O130 1.268 . S
C115 O121 1.268 . S
C115 O129 1.268 . S
C116 O122 1.268 . S
C116 O131 1.268 . S
C117 O123 1.268 . S
C117 O127 1.268 . S
C118 O124 1.268 . S
C118 O126 1.268 . S
C119 O125 1.268 . S
C119 O128 1.268 . S
O120 Sc110 2.105 . S
O120 C114 1.268 . S
O121 Sc111 2.105 . S
O121 C115 1.268 . S
O122 Sc112 2.105 . S
O122 C116 1.268 . S
O123 Sc110 2.105 . S
O123 C117 1.268 . S
O124 Sc112 2.105 . S
O124 C118 1.268 . S
O125 Sc111 2.105 . S
O125 C119 1.268 . S
O126 Sc110 2.105 . S
O126 C118 1.268 . S
O127 Sc111 2.105 . S
O127 C117 1.268 . S
O128 Sc112 2.105 . S
O128 C119 1.268 . S
O129 Sc110 2.105 . S
O129 C115 1.268 . S
O130 Sc112 2.105 . S
O130 C114 1.268 . S
O131 Sc111 2.105 . S
O131 C116 1.268 . S
Sc132 O135 2.025 . S
Sc132 O142 2.105 . S
Sc132 O145 2.105 . S
Sc132 O148 2.105 . S
Sc132 O151 2.105 . S
Sc133 O135 2.025 . S
Sc133 O143 2.105 . S
Sc133 O147 2.105 . S
Sc133 O149 2.105 . S
Sc133 O153 2.105 . S
Sc134 O135 2.025 . S
Sc134 O144 2.105 . S
Sc134 O146 2.105 . S
Sc134 O150 2.105 . S
Sc134 O152 2.105 . S
O135 Sc132 2.025 . S
O135 Sc133 2.025 . S
O135 Sc134 2.025 . S
C136 O142 1.268 . S
C136 O152 1.268 . S
C137 O143 1.268 . S
C137 O151 1.268 . S
C138 O144 1.268 . S
C138 O153 1.268 . S
C139 O145 1.268 . S
C139 O149 1.268 . S
C140 O146 1.268 . S
C140 O148 1.268 . S
C141 O147 1.268 . S
C141 O150 1.268 . S
O142 Sc132 2.105 . S
O142 C136 1.268 . S
O143 Sc133 2.105 . S
O143 C137 1.268 . S
O144 Sc134 2.105 . S
O144 C138 1.268 . S
O145 Sc132 2.105 . S
O145 C139 1.268 . S
O146 Sc134 2.105 . S
O146 C140 1.268 . S
O147 Sc133 2.105 . S
O147 C141 1.268 . S
O148 Sc132 2.105 . S
O148 C140 1.268 . S
O149 Sc133 2.105 . S
O149 C139 1.268 . S
O150 Sc134 2.105 . S
O150 C141 1.268 . S
O151 Sc132 2.105 . S
O151 C137 1.268 . S
O152 Sc134 2.105 . S
O152 C136 1.268 . S
O153 Sc133 2.105 . S
O153 C138 1.268 . S
Sc154 O157 2.025 . S
Sc154 O164 2.105 . S
Sc154 O167 2.105 . S
Sc154 O170 2.105 . S
Sc154 O173 2.105 . S
Sc155 O157 2.025 . S
Sc155 O165 2.105 . S
Sc155 O169 2.105 . S
Sc155 O171 2.105 . S
Sc155 O175 2.105 . S
Sc156 O157 2.025 . S
Sc156 O166 2.105 . S
Sc156 O168 2.105 . S
Sc156 O172 2.105 . S
Sc156 O174 2.105 . S
O157 Sc154 2.025 . S
O157 Sc155 2.025 . S
O157 Sc156 2.025 . S
C158 O164 1.268 . S
C158 O174 1.268 . S
C159 O165 1.268 . S
C159 O173 1.268 . S
C160 O166 1.268 . S
C160 O175 1.268 . S
C161 O167 1.268 . S
C161 O171 1.268 . S
C162 O168 1.268 . S
C162 O170 1.268 . S
C163 O169 1.268 . S
C163 O172 1.268 . S
O164 Sc154 2.105 . S
O164 C158 1.268 . S
O165 Sc155 2.105 . S
O165 C159 1.268 . S
O166 Sc156 2.105 . S
O166 C160 1.268 . S
O167 Sc154 2.105 . S
O167 C161 1.268 . S
O168 Sc156 2.105 . S
O168 C162 1.268 . S
O169 Sc155 2.105 . S
O169 C163 1.268 . S
O170 Sc154 2.105 . S
O170 C162 1.268 . S
O171 Sc155 2.105 . S
O171 C161 1.268 . S
O172 Sc156 2.105 . S
O172 C163 1.268 . S
O173 Sc154 2.105 . S
O173 C159 1.268 . S
O174 Sc156 2.105 . S
O174 C158 1.268 . S
O175 Sc155 2.105 . S
O175 C160 1.268 . S
Sc176 O179 2.025 . S
Sc176 O186 2.105 . S
Sc176 O189 2.105 . S
Sc176 O192 2.105 . S
Sc176 O195 2.105 . S
Sc177 O179 2.025 . S
Sc177 O187 2.105 . S
Sc177 O191 2.105 . S
Sc177 O193 2.105 . S
Sc177 O197 2.105 . S
Sc178 O179 2.025 . S
Sc178 O188 2.105 . S
Sc178 O190 2.105 . S
Sc178 O194 2.105 . S
Sc178 O196 2.105 . S
O179 Sc176 2.025 . S
O179 Sc177 2.025 . S
O179 Sc178 2.025 . S
C180 O186 1.268 . S
C180 O196 1.268 . S
C181 O187 1.268 . S
C181 O195 1.268 . S
C182 O188 1.268 . S
C182 O197 1.268 . S
C183 O189 1.268 . S
C183 O193 1.268 . S
C184 O190 1.268 . S
C184 O192 1.268 . S
C185 O191 1.268 . S
C185 O194 1.268 . S
O186 Sc176 2.105 . S
O186 C180 1.268 . S
O187 Sc177 2.105 . S
O187 C181 1.268 . S
O188 Sc178 2.105 . S
O188 C182 1.268 . S
O189 Sc176 2.105 . S
O189 C183 1.268 . S
O190 Sc178 2.105 . S
O190 C184 1.268 . S
O191 Sc177 2.105 . S
O191 C185 1.268 . S
O192 Sc176 2.105 . S
O192 C184 1.268 . S
O193 Sc177 2.105 . S
O193 C183 1.268 . S
O194 Sc178 2.105 . S
O194 C185 1.268 . S
O195 Sc176 2.105 . S
O195 C181 1.268 . S
O196 Sc178 2.105 . S
O196 C180 1.268 . S
O197 Sc177 2.105 . S
O197 C182 1.268 . S
Sc198 O201 2.025 . S
Sc198 O208 2.105 . S
Sc198 O211 2.105 . S
Sc198 O214 2.105 . S
Sc198 O217 2.105 . S
Sc199 O201 2.025 . S
Sc199 O209 2.105 . S
Sc199 O213 2.105 . S
Sc199 O215 2.105 . S
Sc199 O219 2.105 . S
Sc200 O201 2.025 . S
Sc200 O210 2.105 . S
Sc200 O212 2.105 . S
Sc200 O216 2.105 . S
Sc200 O218 2.105 . S
O201 Sc198 2.025 . S
O201 Sc199 2.025 . S
O201 Sc200 2.025 . S
C202 O208 1.268 . S
C202 O218 1.268 . S
C203 O209 1.268 . S
C203 O217 1.268 . S
C204 O210 1.268 . S
C204 O219 1.268 . S
C205 O211 1.268 . S
C205 O215 1.268 . S
C206 O212 1.268 . S
C206 O214 1.268 . S
C207 O213 1.268 . S
C207 O216 1.268 . S
O208 Sc198 2.105 . S
O208 C202 1.268 . S
O209 Sc199 2.105 . S
O209 C203 1.268 . S
O210 Sc200 2.105 . S
O210 C204 1.268 . S
O211 Sc198 2.105 . S
O211 C205 1.268 . S
O212 Sc200 2.105 . S
O212 C206 1.268 . S
O213 Sc199 2.105 . S
O213 C207 1.268 . S
O214 Sc198 2.105 . S
O214 C206 1.268 . S
O215 Sc199 2.105 . S
O215 C205 1.268 . S
O216 Sc200 2.105 . S
O216 C207 1.268 . S
O217 Sc198 2.105 . S
O217 C203 1.268 . S
O218 Sc200 2.105 . S
O218 C202 1.268 . S
O219 Sc199 2.105 . S
O219 C204 1.268 . S
Sc220 O223 2.025 . S
Sc220 O230 2.105 . S
Sc220 O233 2.105 . S
Sc220 O236 2.105 . S
Sc220 O239 2.105 . S
Sc221 O223 2.025 . S
Sc221 O231 2.105 . S
Sc221 O235 2.105 . S
Sc221 O237 2.105 . S
Sc221 O241 2.105 . S
Sc222 O223 2.025 . S
Sc222 O232 2.105 . S
Sc222 O234 2.105 . S
Sc222 O238 2.105 . S
Sc222 O240 2.105 . S
O223 Sc220 2.025 . S
O223 Sc221 2.025 . S
O223 Sc222 2.025 . S
C224 O230 1.268 . S
C224 O240 1.268 . S
C225 O231 1.268 . S
C225 O239 1.268 . S
C226 O232 1.268 . S
C226 O241 1.268 . S
C227 O233 1.268 . S
C227 O237 1.268 . S
C228 O234 1.268 . S
C228 O236 1.268 . S
C229 O235 1.268 . S
C229 O238 1.268 . S
O230 Sc220 2.105 . S
O230 C224 1.268 . S
O231 Sc221 2.105 . S
O231 C225 1.268 . S
O232 Sc222 2.105 . S
O232 C226 1.268 . S
O233 Sc220 2.105 . S
O233 C227 1.268 . S
O234 Sc222 2.105 . S
O234 C228 1.268 . S
O235 Sc221 2.105 . S
O235 C229 1.268 . S
O236 Sc220 2.105 . S
O236 C228 1.268 . S
O237 Sc221 2.105 . S
O237 C227 1.268 . S
O238 Sc222 2.105 . S
O238 C229 1.268 . S
O239 Sc220 2.105 . S
O239 C225 1.268 . S
O240 Sc222 2.105 . S
O240 C224 1.268 . S
O241 Sc221 2.105 . S
O241 C226 1.268 . S
Sc242 O245 2.025 . S
Sc242 O252 2.105 . S
Sc242 O255 2.105 . S
Sc242 O258 2.105 . S
Sc242 O261 2.105 . S
Sc243 O245 2.025 . S
Sc243 O253 2.105 . S
Sc243 O257 2.105 . S
Sc243 O259 2.105 . S
Sc243 O263 2.105 . S
Sc244 O245 2.025 . S
Sc244 O254 2.105 . S
Sc244 O256 2.105 . S
Sc244 O260 2.105 . S
Sc244 O262 2.105 . S
O245 Sc242 2.025 . S
O245 Sc243 2.025 . S
O245 Sc244 2.025 . S
C246 O252 1.268 . S
C246 O262 1.268 . S
C247 O253 1.268 . S
C247 O261 1.268 . S
C248 O254 1.268 . S
C248 O263 1.268 . S
C249 O255 1.268 . S
C249 O259 1.268 . S
C250 O256 1.268 . S
C250 O258 1.268 . S
C251 O257 1.268 . S
C251 O260 1.268 . S
O252 Sc242 2.105 . S
O252 C246 1.268 . S
O253 Sc243 2.105 . S
O253 C247 1.268 . S
O254 Sc244 2.105 . S
O254 C248 1.268 . S
O255 Sc242 2.105 . S
O255 C249 1.268 . S
O256 Sc244 2.105 . S
O256 C250 1.268 . S
O257 Sc243 2.105 . S
O257 C251 1.268 . S
O258 Sc242 2.105 . S
O258 C250 1.268 . S
O259 Sc243 2.105 . S
O259 C249 1.268 . S
O260 Sc244 2.105 . S
O260 C251 1.268 . S
O261 Sc242 2.105 . S
O261 C247 1.268 . S
O262 Sc244 2.105 . S
O262 C246 1.268 . S
O263 Sc243 2.105 . S
O263 C248 1.268 . S
Sc264 O267 2.025 . S
Sc264 O274 2.105 . S
Sc264 O277 2.105 . S
Sc264 O280 2.105 . S
Sc264 O283 2.105 . S
Sc265 O267 2.025 . S
Sc265 O275 2.105 . S
Sc265 O279 2.105 . S
Sc265 O281 2.105 . S
Sc265 O285 2.105 . S
Sc266 O267 2.025 . S
Sc266 O276 2.105 . S
Sc266 O278 2.105 . S
Sc266 O282 2.105 . S
Sc266 O284 2.105 . S
O267 Sc264 2.025 . S
O267 Sc265 2.025 . S
O267 Sc266 2.025 . S
C268 O274 1.268 . S
C268 O284 1.268 . S
C269 O275 1.268 . S
C269 O283 1.268 . S
C270 O276 1.268 . S
C270 O285 1.268 . S
C271 O277 1.268 . S
C271 O281 1.268 . S
C272 O278 1.268 . S
C272 O280 1.268 . S
C273 O279 1.268 . S
C273 O282 1.268 . S
O274 Sc264 2.105 . S
O274 C268 1.268 . S
O275 Sc265 2.105 . S
O275 C269 1.268 . S
O276 Sc266 2.105 . S
O276 C270 1.268 . S
O277 Sc264 2.105 . S
O277 C271 1.268 . S
O278 Sc266 2.105 . S
O278 C272 1.268 . S
O279 Sc265 2.105 . S
O279 C273 1.268 . S
O280 Sc264 2.105 . S
O280 C272 1.268 . S
O281 Sc265 2.105 . S
O281 C271 1.268 . S
O282 Sc266 2.105 . S
O282 C273 1.268 . S
O283 Sc264 2.105 . S
O283 C269 1.268 . S
O284 Sc266 2.105 . S
O284 C268 1.268 . S
O285 Sc265 2.105 . S
O285 C270 1.268 . S
Sc286 O289 2.025 . S
Sc286 O296 2.105 . S
Sc286 O299 2.105 . S
Sc286 O302 2.105 . S
Sc286 O305 2.105 . S
Sc287 O289 2.025 . S
Sc287 O297 2.105 . S
Sc287 O301 2.105 . S
Sc287 O303 2.105 . S
Sc287 O307 2.105 . S
Sc288 O289 2.025 . S
Sc288 O298 2.105 . S
Sc288 O300 2.105 . S
Sc288 O304 2.105 . S
Sc288 O306 2.105 . S
O289 Sc286 2.025 . S
O289 Sc287 2.025 . S
O289 Sc288 2.025 . S
C290 O296 1.268 . S
C290 O306 1.268 . S
C291 O297 1.268 . S
C291 O305 1.268 . S
C292 O298 1.268 . S
C292 O307 1.268 . S
C293 O299 1.268 . S
C293 O303 1.268 . S
C294 O300 1.268 . S
C294 O302 1.268 . S
C295 O301 1.268 . S
C295 O304 1.268 . S
O296 Sc286 2.105 . S
O296 C290 1.268 . S
O297 Sc287 2.105 . S
O297 C291 1.268 . S
O298 Sc288 2.105 . S
O298 C292 1.268 . S
O299 Sc286 2.105 . S
O299 C293 1.268 . S
O300 Sc288 2.105 . S
O300 C294 1.268 . S
O301 Sc287 2.105 . S
O301 C295 1.268 . S
O302 Sc286 2.105 . S
O302 C294 1.268 . S
O303 Sc287 2.105 . S
O303 C293 1.268 . S
O304 Sc288 2.105 . S
O304 C295 1.268 . S
O305 Sc286 2.105 . S
O305 C291 1.268 . S
O306 Sc288 2.105 . S
O306 C290 1.268 . S
O307 Sc287 2.105 . S
O307 C292 1.268 . S
Sc308 O311 2.025 . S
Sc308 O318 2.105 . S
Sc308 O321 2.105 . S
Sc308 O324 2.105 . S
Sc308 O327 2.105 . S
Sc309 O311 2.025 . S
Sc309 O319 2.105 . S
Sc309 O323 2.105 . S
Sc309 O325 2.105 . S
Sc309 O329 2.105 . S
Sc310 O311 2.025 . S
Sc310 O320 2.105 . S
Sc310 O322 2.105 . S
Sc310 O326 2.105 . S
Sc310 O328 2.105 . S
O311 Sc308 2.025 . S
O311 Sc309 2.025 . S
O311 Sc310 2.025 . S
C312 O318 1.268 . S
C312 O328 1.268 . S
C313 O319 1.268 . S
C313 O327 1.268 . S
C314 O320 1.268 . S
C314 O329 1.268 . S
C315 O321 1.268 . S
C315 O325 1.268 . S
C316 O322 1.268 . S
C316 O324 1.268 . S
C317 O323 1.268 . S
C317 O326 1.268 . S
O318 Sc308 2.105 . S
O318 C312 1.268 . S
O319 Sc309 2.105 . S
O319 C313 1.268 . S
O320 Sc310 2.105 . S
O320 C314 1.268 . S
O321 Sc308 2.105 . S
O321 C315 1.268 . S
O322 Sc310 2.105 . S
O322 C316 1.268 . S
O323 Sc309 2.105 . S
O323 C317 1.268 . S
O324 Sc308 2.105 . S
O324 C316 1.268 . S
O325 Sc309 2.105 . S
O325 C315 1.268 . S
O326 Sc310 2.105 . S
O326 C317 1.268 . S
O327 Sc308 2.105 . S
O327 C313 1.268 . S
O328 Sc310 2.105 . S
O328 C312 1.268 . S
O329 Sc309 2.105 . S
O329 C314 1.268 . S
Sc330 O333 2.025 . S
Sc330 O340 2.105 . S
Sc330 O343 2.105 . S
Sc330 O346 2.105 . S
Sc330 O349 2.105 . S
Sc331 O333 2.025 . S
Sc331 O341 2.105 . S
Sc331 O345 2.105 . S
Sc331 O347 2.105 . S
Sc331 O351 2.105 . S
Sc332 O333 2.025 . S
Sc332 O342 2.105 . S
Sc332 O344 2.105 . S
Sc332 O348 2.105 . S
Sc332 O350 2.105 . S
O333 Sc330 2.025 . S
O333 Sc331 2.025 . S
O333 Sc332 2.025 . S
C334 O340 1.268 . S
C334 O350 1.268 . S
C335 O341 1.268 . S
C335 O349 1.268 . S
C336 O342 1.268 . S
C336 O351 1.268 . S
C337 O343 1.268 . S
C337 O347 1.268 . S
C338 O344 1.268 . S
C338 O346 1.268 . S
C339 O345 1.268 . S
C339 O348 1.268 . S
O340 Sc330 2.105 . S
O340 C334 1.268 . S
O341 Sc331 2.105 . S
O341 C335 1.268 . S
O342 Sc332 2.105 . S
O342 C336 1.268 . S
O343 Sc330 2.105 . S
O343 C337 1.268 . S
O344 Sc332 2.105 . S
O344 C338 1.268 . S
O345 Sc331 2.105 . S
O345 C339 1.268 . S
O346 Sc330 2.105 . S
O346 C338 1.268 . S
O347 Sc331 2.105 . S
O347 C337 1.268 . S
O348 Sc332 2.105 . S
O348 C339 1.268 . S
O349 Sc330 2.105 . S
O349 C335 1.268 . S
O350 Sc332 2.105 . S
O350 C334 1.268 . S
O351 Sc331 2.105 . S
O351 C336 1.268 . S
C352 C353 1.369 . S
C352 C354 1.419 . S
C352 H356 0.930 . S
C353 C352 1.369 . S
C353 C362 1.429 . S
C354 C352 1.419 . S
C354 C355 1.363 . S
C354 H357 0.929 . S
C355 C354 1.363 . S
C355 C361 1.428 . S
H356 C352 0.930 . S
H357 C354 0.929 . S
S358 N359 1.613 . S
S358 N360 1.610 . S
N359 S358 1.613 . S
N359 C362 1.350 . S
N360 S358 1.610 . S
N360 C361 1.351 . S
C361 C355 1.428 . S
C361 N360 1.351 . S
C361 C362 1.434 . S
C362 C353 1.429 . S
C362 N359 1.350 . S
C362 C361 1.434 . S
C363 C364 1.369 . S
C363 C365 1.419 . S
C363 H367 0.930 . S
C364 C363 1.369 . S
C364 C373 1.429 . S
C365 C363 1.419 . S
C365 C366 1.363 . S
C365 H368 0.929 . S
C366 C365 1.363 . S
C366 C372 1.428 . S
H367 C363 0.930 . S
H368 C365 0.929 . S
S369 N370 1.613 . S
S369 N371 1.610 . S
N370 S369 1.613 . S
N370 C373 1.350 . S
N371 S369 1.610 . S
N371 C372 1.351 . S
C372 C366 1.428 . S
C372 N371 1.351 . S
C372 C373 1.434 . S
C373 C364 1.429 . S
C373 N370 1.350 . S
C373 C372 1.434 . S
C374 C375 1.369 . S
C374 C376 1.419 . S
C374 H378 0.930 . S
C375 C374 1.369 . S
C375 C384 1.429 . S
C376 C374 1.419 . S
C376 C377 1.363 . S
C376 H379 0.929 . S
C377 C376 1.363 . S
C377 C383 1.428 . S
H378 C374 0.930 . S
H379 C376 0.929 . S
S380 N381 1.613 . S
S380 N382 1.610 . S
N381 S380 1.613 . S
N381 C384 1.350 . S
N382 S380 1.610 . S
N382 C383 1.351 . S
C383 C377 1.428 . S
C383 N382 1.351 . S
C383 C384 1.434 . S
C384 C375 1.429 . S
C384 N381 1.350 . S
C384 C383 1.434 . S
C385 C386 1.369 . S
C385 C387 1.419 . S
C385 H389 0.930 . S
C386 C385 1.369 . S
C386 C395 1.429 . S
C387 C385 1.419 . S
C387 C388 1.363 . S
C387 H390 0.929 . S
C388 C387 1.363 . S
C388 C394 1.428 . S
H389 C385 0.930 . S
H390 C387 0.929 . S
S391 N392 1.613 . S
S391 N393 1.610 . S
N392 S391 1.613 . S
N392 C395 1.350 . S
N393 S391 1.610 . S
N393 C394 1.351 . S
C394 C388 1.428 . S
C394 N393 1.351 . S
C394 C395 1.434 . S
C395 C386 1.429 . S
C395 N392 1.350 . S
C395 C394 1.434 . S
C396 C397 1.369 . S
C396 C398 1.419 . S
C396 H400 0.930 . S
C397 C396 1.369 . S
C397 C406 1.429 . S
C398 C396 1.419 . S
C398 C399 1.363 . S
C398 H401 0.929 . S
C399 C398 1.363 . S
C399 C405 1.428 . S
H400 C396 0.930 . S
H401 C398 0.929 . S
S402 N403 1.613 . S
S402 N404 1.610 . S
N403 S402 1.613 . S
N403 C406 1.350 . S
N404 S402 1.610 . S
N404 C405 1.351 . S
C405 C399 1.428 . S
C405 N404 1.351 . S
C405 C406 1.434 . S
C406 C397 1.429 . S
C406 N403 1.350 . S
C406 C405 1.434 . S
C407 C408 1.369 . S
C407 C409 1.419 . S
C407 H411 0.930 . S
C408 C407 1.369 . S
C408 C417 1.429 . S
C409 C407 1.419 . S
C409 C410 1.363 . S
C409 H412 0.929 . S
C410 C409 1.363 . S
C410 C416 1.428 . S
H411 C407 0.930 . S
H412 C409 0.929 . S
S413 N414 1.613 . S
S413 N415 1.610 . S
N414 S413 1.613 . S
N414 C417 1.350 . S
N415 S413 1.610 . S
N415 C416 1.351 . S
C416 C410 1.428 . S
C416 N415 1.351 . S
C416 C417 1.434 . S
C417 C408 1.429 . S
C417 N414 1.350 . S
C417 C416 1.434 . S
C418 C419 1.369 . S
C418 C420 1.419 . S
C418 H422 0.930 . S
C419 C418 1.369 . S
C419 C428 1.429 . S
C420 C418 1.419 . S
C420 C421 1.363 . S
C420 H423 0.929 . S
C421 C420 1.363 . S
C421 C427 1.428 . S
H422 C418 0.930 . S
H423 C420 0.929 . S
S424 N425 1.613 . S
S424 N426 1.610 . S
N425 S424 1.613 . S
N425 C428 1.350 . S
N426 S424 1.610 . S
N426 C427 1.351 . S
C427 C421 1.428 . S
C427 N426 1.351 . S
C427 C428 1.434 . S
C428 C419 1.429 . S
C428 N425 1.350 . S
C428 C427 1.434 . S
C429 C430 1.369 . S
C429 C431 1.419 . S
C429 H433 0.930 . S
C430 C429 1.369 . S
C430 C439 1.429 . S
C431 C429 1.419 . S
C431 C432 1.363 . S
C431 H434 0.929 . S
C432 C431 1.363 . S
C432 C438 1.428 . S
H433 C429 0.930 . S
H434 C431 0.929 . S
S435 N436 1.613 . S
S435 N437 1.610 . S
N436 S435 1.613 . S
N436 C439 1.350 . S
N437 S435 1.610 . S
N437 C438 1.351 . S
C438 C432 1.428 . S
C438 N437 1.351 . S
C438 C439 1.434 . S
C439 C430 1.429 . S
C439 N436 1.350 . S
C439 C438 1.434 . S
C440 C441 1.369 . S
C440 C442 1.419 . S
C440 H444 0.930 1_545 S
C441 C440 1.369 . S
C441 C450 1.429 . S
C442 C440 1.419 . S
C442 C443 1.363 . S
C442 H445 0.929 . S
C443 C442 1.363 . S
C443 C449 1.428 . S
H444 C440 0.930 1_565 S
H445 C442 0.929 . S
S446 N447 1.613 . S
S446 N448 1.610 . S
N447 S446 1.613 . S
N447 C450 1.350 . S
N448 S446 1.610 . S
N448 C449 1.351 . S
C449 C443 1.428 . S
C449 N448 1.351 . S
C449 C450 1.434 . S
C450 C441 1.429 . S
C450 N447 1.350 . S
C450 C449 1.434 . S
C451 C452 1.369 . S
C451 C453 1.419 . S
C451 H455 0.930 . S
C452 C451 1.369 . S
C452 C461 1.429 . S
C453 C451 1.419 . S
C453 C454 1.363 . S
C453 H456 0.929 1_455 S
C454 C453 1.363 . S
C454 C460 1.428 . S
H455 C451 0.930 . S
H456 C453 0.929 1_655 S
S457 N458 1.613 . S
S457 N459 1.610 . S
N458 S457 1.613 . S
N458 C461 1.350 . S
N459 S457 1.610 . S
N459 C460 1.351 . S
C460 C454 1.428 . S
C460 N459 1.351 . S
C460 C461 1.434 . S
C461 C452 1.429 . S
C461 N458 1.350 . S
C461 C460 1.434 . S
C462 C463 1.369 . S
C462 C464 1.419 . S
C462 H466 0.930 . S
C463 C462 1.369 . S
C463 C472 1.429 . S
C464 C462 1.419 . S
C464 C465 1.363 . S
C464 H467 0.920 1_565 S
C465 C464 1.363 . S
C465 C471 1.428 . S
H466 C462 0.930 . S
H467 C464 0.920 1_545 S
S468 N469 1.613 . S
S468 N470 1.610 . S
N469 S468 1.613 . S
N469 C472 1.350 . S
N470 S468 1.610 . S
N470 C471 1.351 . S
C471 C465 1.428 . S
C471 N470 1.351 . S
C471 C472 1.434 . S
C472 C463 1.429 . S
C472 N469 1.350 . S
C472 C471 1.434 . S
C473 C474 1.369 . S
C473 C475 1.419 . S
C473 H477 0.930 1_655 S
C474 C473 1.369 . S
C474 C483 1.429 . S
C475 C473 1.419 . S
C475 C476 1.363 . S
C475 H478 0.929 . S
C476 C475 1.363 . S
C476 C482 1.428 . S
H477 C473 0.930 1_455 S
H478 C475 0.929 . S
S479 N480 1.613 . S
S479 N481 1.610 . S
N480 S479 1.613 . S
N480 C483 1.350 . S
N481 S479 1.610 . S
N481 C482 1.351 . S
C482 C476 1.428 . S
C482 N481 1.351 . S
C482 C483 1.434 . S
C483 C474 1.429 . S
C483 N480 1.350 . S
C483 C482 1.434 . S
C484 C485 1.369 . S
C484 C486 1.419 . S
C484 H488 0.930 . S
C485 C484 1.369 . S
C485 C494 1.429 . S
C486 C484 1.419 . S
C486 C487 1.363 . S
C486 H489 0.929 . S
C487 C486 1.363 . S
C487 C493 1.428 . S
H488 C484 0.930 . S
H489 C486 0.929 . S
S490 N491 1.619 . S
S490 N492 1.598 1_545 S
N491 S490 1.619 . S
N491 C494 1.350 1_545 S
N492 S490 1.598 1_565 S
N492 C493 1.351 . S
C493 C487 1.428 . S
C493 N492 1.351 . S
C493 C494 1.434 . S
C494 C485 1.429 . S
C494 N491 1.350 1_565 S
C494 C493 1.434 . S
C495 C496 1.369 . S
C495 C497 1.419 . S
C495 H499 0.930 . S
C496 C495 1.369 . S
C496 C505 1.429 . S
C497 C495 1.419 . S
C497 C498 1.363 . S
C497 H500 0.929 1_655 S
C498 C497 1.363 . S
C498 C504 1.428 . S
H499 C495 0.930 . S
H500 C497 0.929 1_455 S
S501 N502 1.613 . S
S501 N503 1.610 . S
N502 S501 1.613 . S
N502 C505 1.350 . S
N503 S501 1.610 . S
N503 C504 1.351 . S
C504 C498 1.428 . S
C504 N503 1.351 . S
C504 C505 1.434 . S
C505 C496 1.429 . S
C505 N502 1.350 . S
C505 C504 1.434 . S
C506 C507 1.369 . S
C506 C508 1.419 . S
C506 H510 0.930 . S
C507 C506 1.369 . S
C507 C516 1.429 . S
C508 C506 1.419 . S
C508 C509 1.363 . S
C508 H511 0.929 . S
C509 C508 1.363 . S
C509 C515 1.428 . S
H510 C506 0.930 . S
H511 C508 0.929 . S
S512 N513 1.613 . S
S512 N514 1.610 . S
N513 S512 1.613 . S
N513 C516 1.350 . S
N514 S512 1.610 . S
N514 C515 1.351 . S
C515 C509 1.428 . S
C515 N514 1.351 . S
C515 C516 1.434 . S
C516 C507 1.429 . S
C516 N513 1.350 . S
C516 C515 1.434 . S
C517 C518 1.369 . S
C517 C519 1.419 . S
C517 H521 0.930 . S
C518 C517 1.369 . S
C518 C527 1.429 . S
C519 C517 1.419 . S
C519 C520 1.363 . S
C519 H522 0.929 . S
C520 C519 1.363 . S
C520 C526 1.428 . S
H521 C517 0.930 . S
H522 C519 0.929 . S
S523 N524 1.635 . S
S523 N525 1.600 1_455 S
N524 S523 1.635 . S
N524 C527 1.350 . S
N525 S523 1.600 1_655 S
N525 C526 1.351 1_655 S
C526 C520 1.428 . S
C526 N525 1.351 1_455 S
C526 C527 1.434 . S
C527 C518 1.429 . S
C527 N524 1.350 . S
C527 C526 1.434 . S
C528 C529 1.369 . S
C528 C530 1.419 . S
C528 H532 0.930 . S
C529 C528 1.369 . S
C529 C538 1.429 . S
C530 C528 1.419 . S
C530 C531 1.363 . S
C530 H533 0.929 . S
C531 C530 1.363 . S
C531 C537 1.428 . S
H532 C528 0.930 . S
H533 C530 0.929 . S
S534 N535 1.613 . S
S534 N536 1.610 . S
N535 S534 1.613 . S
N535 C538 1.350 . S
N536 S534 1.610 . S
N536 C537 1.351 . S
C537 C531 1.428 . S
C537 N536 1.351 . S
C537 C538 1.434 . S
C538 C529 1.429 . S
C538 N535 1.350 . S
C538 C537 1.434 . S
C539 C540 1.369 . S
C539 C541 1.419 . S
C539 H543 0.930 . S
C540 C539 1.369 . S
C540 C549 1.429 . S
C541 C539 1.419 . S
C541 C542 1.363 . S
C541 H544 0.929 . S
C542 C541 1.363 . S
C542 C548 1.428 . S
H543 C539 0.930 . S
H544 C541 0.929 . S
S545 N546 1.613 . S
S545 N547 1.610 . S
N546 S545 1.613 . S
N546 C549 1.350 . S
N547 S545 1.610 . S
N547 C548 1.351 . S
C548 C542 1.428 . S
C548 N547 1.351 . S
C548 C549 1.434 . S
C549 C540 1.429 . S
C549 N546 1.350 . S
C549 C548 1.434 . S
C550 C551 1.369 . S
C550 C552 1.419 . S
C550 H554 0.930 . S
C551 C550 1.369 . S
C551 C560 1.429 . S
C552 C550 1.419 . S
C552 C553 1.363 . S
C552 H555 0.929 . S
C553 C552 1.363 . S
C553 C559 1.428 . S
H554 C550 0.930 . S
H555 C552 0.929 . S
S556 N557 1.613 . S
S556 N558 1.610 . S
N557 S556 1.613 . S
N557 C560 1.350 . S
N558 S556 1.610 . S
N558 C559 1.351 . S
C559 C553 1.428 . S
C559 N558 1.351 . S
C559 C560 1.434 . S
C560 C551 1.429 . S
C560 N557 1.350 . S
C560 C559 1.434 . S
C561 C562 1.369 . S
C561 C563 1.419 . S
C561 H565 0.930 . S
C562 C561 1.369 . S
C562 C571 1.429 . S
C563 C561 1.419 . S
C563 C564 1.363 . S
C563 H566 0.929 . S
C564 C563 1.363 . S
C564 C570 1.428 . S
H565 C561 0.930 . S
H566 C563 0.929 . S
S567 N568 1.613 . S
S567 N569 1.610 . S
N568 S567 1.613 . S
N568 C571 1.350 . S
N569 S567 1.610 . S
N569 C570 1.351 . S
C570 C564 1.428 . S
C570 N569 1.351 . S
C570 C571 1.434 . S
C571 C562 1.429 . S
C571 N568 1.350 . S
C571 C570 1.434 . S
C572 C573 1.369 1_565 S
C572 C574 1.419 . S
C572 H576 0.930 . S
C573 C572 1.369 1_545 S
C573 C582 1.429 1_554 S
C574 C572 1.419 . S
C574 C575 1.363 1_554 S
C574 H577 0.929 . S
C575 C574 1.363 1_556 S
C575 C581 1.428 1_565 S
H576 C572 0.930 . S
H577 C574 0.929 . S
S578 N579 1.613 . S
S578 N580 1.610 . S
N579 S578 1.613 . S
N579 C582 1.350 . S
N580 S578 1.610 . S
N580 C581 1.351 . S
C581 C575 1.428 1_545 S
C581 N580 1.351 . S
C581 C582 1.434 . S
C582 C573 1.429 1_556 S
C582 N579 1.350 . S
C582 C581 1.434 . S
C583 C584 1.369 1_556 S
C583 C585 1.419 . S
C583 H587 0.930 . S
C584 C583 1.369 1_554 S
C584 C593 1.429 1_655 S
C585 C583 1.419 . S
C585 C586 1.363 1_655 S
C585 H588 0.929 . S
C586 C585 1.363 1_455 S
C586 C592 1.428 1_556 S
H587 C583 0.930 . S
H588 C585 0.929 . S
S589 N590 1.613 . S
S589 N591 1.610 . S
N590 S589 1.613 . S
N590 C593 1.350 . S
N591 S589 1.610 . S
N591 C592 1.351 . S
C592 C586 1.428 1_554 S
C592 N591 1.351 . S
C592 C593 1.434 . S
C593 C584 1.429 1_455 S
C593 N590 1.350 . S
C593 C592 1.434 . S
C594 C595 1.369 1_554 S
C594 C596 1.429 . S
C594 H598 0.930 . S
C595 C594 1.369 1_556 S
C595 C604 1.429 1_545 S
C596 C594 1.429 . S
C596 C597 1.352 1_545 S
C596 H599 0.930 . S
C597 C596 1.352 1_565 S
C597 C603 1.428 1_554 S
H598 C594 0.930 . S
H599 C596 0.930 . S
S600 N601 1.613 . S
S600 N602 1.610 . S
N601 S600 1.613 . S
N601 C604 1.350 . S
N602 S600 1.610 . S
N602 C603 1.351 . S
C603 C597 1.428 1_556 S
C603 N602 1.351 . S
C603 C604 1.434 . S
C604 C595 1.429 1_565 S
C604 N601 1.350 . S
C604 C603 1.434 . S
C605 C606 1.369 . S
C605 C607 1.419 1_656 S
C605 H609 0.930 . S
C606 C605 1.369 . S
C606 C615 1.429 . S
C607 C605 1.419 1_454 S
C607 C608 1.363 . S
C607 H610 0.929 . S
C608 C607 1.363 . S
C608 C614 1.428 . S
H609 C605 0.930 . S
H610 C607 0.929 . S
S611 N612 1.613 1_455 S
S611 N613 1.610 1_556 S
N612 S611 1.613 1_655 S
N612 C615 1.350 . S
N613 S611 1.610 1_554 S
N613 C614 1.351 . S
C614 C608 1.428 . S
C614 N613 1.351 . S
C614 C615 1.434 1_454 S
C615 C606 1.429 . S
C615 N612 1.350 . S
C615 C614 1.434 1_656 S
C616 C617 1.369 . S
C616 C618 1.419 . S
C616 H620 0.930 . S
C617 C616 1.369 . S
C617 C626 1.429 . S
C618 C616 1.419 . S
C618 C619 1.363 . S
C618 H621 0.929 . S
C619 C618 1.363 . S
C619 C625 1.428 . S
H620 C616 0.930 . S
H621 C618 0.929 . S
S622 N623 1.613 . S
S622 N624 1.610 . S
N623 S622 1.613 . S
N623 C626 1.350 . S
N624 S622 1.610 . S
N624 C625 1.351 . S
C625 C619 1.428 . S
C625 N624 1.351 . S
C625 C626 1.434 . S
C626 C617 1.429 . S
C626 N623 1.350 . S
C626 C625 1.434 . S
C627 C628 1.369 . S
C627 C629 1.419 . S
C627 H631 0.938 . S
C628 C627 1.369 . S
C628 C637 1.429 . S
C629 C627 1.419 . S
C629 C630 1.363 . S
C629 H632 0.929 . S
C630 C629 1.363 . S
C630 C636 1.428 . S
H631 C627 0.938 . S
H632 C629 0.929 . S
S633 N634 1.613 . S
S633 N635 1.610 . S
N634 S633 1.613 . S
N634 C637 1.350 . S
N635 S633 1.610 . S
N635 C636 1.351 . S
C636 C630 1.428 . S
C636 N635 1.351 . S
C636 C637 1.434 . S
C637 C628 1.429 . S
C637 N634 1.350 . S
C637 C636 1.434 . S
C638 C639 1.369 . S
C638 C640 1.419 . S
C638 H642 0.930 . S
C639 C638 1.369 . S
C639 C648 1.429 . S
C640 C638 1.419 . S
C640 C641 1.363 . S
C640 H643 0.929 . S
C641 C640 1.363 . S
C641 C647 1.428 . S
H642 C638 0.930 . S
H643 C640 0.929 . S
S644 N645 1.613 . S
S644 N646 1.610 . S
N645 S644 1.613 . S
N645 C648 1.350 . S
N646 S644 1.610 . S
N646 C647 1.351 . S
C647 C641 1.428 . S
C647 N646 1.351 . S
C647 C648 1.434 . S
C648 C639 1.429 . S
C648 N645 1.350 . S
C648 C647 1.434 . S
C649 C650 1.369 . S
C649 C651 1.419 . S
C649 H653 0.930 . S
C650 C649 1.369 . S
C650 C659 1.429 . S
C651 C649 1.419 . S
C651 C652 1.363 . S
C651 H654 0.929 . S
C652 C651 1.363 . S
C652 C658 1.428 . S
H653 C649 0.930 . S
H654 C651 0.929 . S
S655 N656 1.613 . S
S655 N657 1.610 . S
N656 S655 1.613 . S
N656 C659 1.350 . S
N657 S655 1.610 . S
N657 C658 1.351 . S
C658 C652 1.428 . S
C658 N657 1.351 . S
C658 C659 1.434 . S
C659 C650 1.429 . S
C659 N656 1.350 . S
C659 C658 1.434 . S
C660 C661 1.369 . S
C660 C662 1.419 . S
C660 H664 0.930 . S
C661 C660 1.369 . S
C661 C670 1.429 . S
C662 C660 1.419 . S
C662 C663 1.363 . S
C662 H665 0.929 . S
C663 C662 1.363 . S
C663 C669 1.428 . S
H664 C660 0.930 . S
H665 C662 0.929 . S
S666 N667 1.613 . S
S666 N668 1.610 1_556 S
N667 S666 1.613 . S
N667 C670 1.350 . S
N668 S666 1.610 1_554 S
N668 C669 1.351 1_554 S
C669 C663 1.428 . S
C669 N668 1.351 1_556 S
C669 C670 1.434 . S
C670 C661 1.429 . S
C670 N667 1.350 . S
C670 C669 1.434 . S
C671 C672 1.369 . S
C671 C673 1.419 . S
C671 H675 0.930 . S
C672 C671 1.369 . S
C672 C681 1.429 . S
C673 C671 1.419 . S
C673 C674 1.363 . S
C673 H676 0.929 . S
C674 C673 1.363 . S
C674 C680 1.428 . S
H675 C671 0.930 . S
H676 C673 0.929 . S
S677 N678 1.613 . S
S677 N679 1.610 1_554 S
N678 S677 1.613 . S
N678 C681 1.350 . S
N679 S677 1.610 1_556 S
N679 C680 1.351 1_556 S
C680 C674 1.428 . S
C680 N679 1.351 1_554 S
C680 C681 1.434 . S
C681 C672 1.429 . S
C681 N678 1.350 . S
C681 C680 1.434 . S
C682 C683 1.369 . S
C682 C684 1.419 . S
C682 H686 0.930 . S
C683 C682 1.369 . S
C683 C692 1.429 . S
C684 C682 1.419 . S
C684 C685 1.363 . S
C684 H687 0.929 . S
C685 C684 1.363 . S
C685 C691 1.428 . S
H686 C682 0.930 . S
H687 C684 0.929 . S
S688 N689 1.613 . S
S688 N690 1.610 . S
N689 S688 1.613 . S
N689 C692 1.350 . S
N690 S688 1.610 . S
N690 C691 1.351 . S
C691 C685 1.428 . S
C691 N690 1.351 . S
C691 C692 1.434 . S
C692 C683 1.429 . S
C692 N689 1.350 . S
C692 C691 1.434 . S
C693 C694 1.369 . S
C693 C695 1.419 . S
C693 H697 0.930 . S
C694 C693 1.369 . S
C694 C703 1.429 . S
C695 C693 1.419 . S
C695 C696 1.363 . S
C695 H698 0.929 . S
C696 C695 1.363 . S
C696 C702 1.428 . S
H697 C693 0.930 . S
H698 C695 0.929 . S
S699 N700 1.613 1_554 S
S699 N701 1.610 . S
N700 S699 1.613 1_556 S
N700 C703 1.350 1_556 S
N701 S699 1.610 . S
N701 C702 1.351 . S
C702 C696 1.428 . S
C702 N701 1.351 . S
C702 C703 1.434 . S
C703 C694 1.429 . S
C703 N700 1.350 1_554 S
C703 C702 1.434 . S
C704 C705 1.369 . S
C704 C706 1.419 . S
C704 H708 0.930 . S
C705 C704 1.369 . S
C705 C714 1.429 . S
C706 C704 1.419 . S
C706 C707 1.363 . S
C706 H709 0.929 . S
C707 C706 1.363 . S
C707 C713 1.428 . S
H708 C704 0.930 . S
H709 C706 0.929 . S
S710 N711 1.613 . S
S710 N712 1.610 . S
N711 S710 1.613 . S
N711 C714 1.350 . S
N712 S710 1.610 . S
N712 C713 1.351 . S
C713 C707 1.428 . S
C713 N712 1.351 . S
C713 C714 1.434 . S
C714 C705 1.429 . S
C714 N711 1.350 . S
C714 C713 1.434 . S
C715 C716 1.369 . S
C715 C717 1.419 . S
C715 H719 0.930 . S
C716 C715 1.369 . S
C716 C725 1.429 . S
C717 C715 1.419 . S
C717 C718 1.363 . S
C717 H720 0.929 . S
C718 C717 1.363 . S
C718 C724 1.428 . S
H719 C715 0.930 . S
H720 C717 0.929 . S
S721 N722 1.613 . S
S721 N723 1.610 . S
N722 S721 1.613 . S
N722 C725 1.350 . S
N723 S721 1.610 . S
N723 C724 1.351 . S
C724 C718 1.428 . S
C724 N723 1.351 . S
C724 C725 1.434 . S
C725 C716 1.429 . S
C725 N722 1.350 . S
C725 C724 1.434 . S
C726 C727 1.369 . S
C726 C728 1.419 . S
C726 H730 0.930 . S
C727 C726 1.369 . S
C727 C736 1.429 . S
C728 C726 1.419 . S
C728 C729 1.363 . S
C728 H731 0.929 . S
C729 C728 1.363 . S
C729 C735 1.428 . S
H730 C726 0.930 . S
H731 C728 0.929 . S
S732 N733 1.613 . S
S732 N734 1.610 . S
N733 S732 1.613 . S
N733 C736 1.350 . S
N734 S732 1.610 . S
N734 C735 1.351 . S
C735 C729 1.428 . S
C735 N734 1.351 . S
C735 C736 1.434 . S
C736 C727 1.429 . S
C736 N733 1.350 . S
C736 C735 1.434 . S
C737 C738 1.369 . S
C737 C739 1.419 . S
C737 H741 0.930 . S
C738 C737 1.369 . S
C738 C747 1.429 . S
C739 C737 1.419 . S
C739 C740 1.363 . S
C739 H742 0.929 . S
C740 C739 1.363 . S
C740 C746 1.428 . S
H741 C737 0.930 . S
H742 C739 0.929 . S
S743 N744 1.613 . S
S743 N745 1.610 . S
N744 S743 1.613 . S
N744 C747 1.350 . S
N745 S743 1.610 . S
N745 C746 1.351 . S
C746 C740 1.428 . S
C746 N745 1.351 . S
C746 C747 1.434 . S
C747 C738 1.429 . S
C747 N744 1.350 . S
C747 C746 1.434 . S
C748 C749 1.369 . S
C748 C750 1.419 . S
C748 H752 0.930 . S
C749 C748 1.369 . S
C749 C758 1.429 . S
C750 C748 1.419 . S
C750 C751 1.363 . S
C750 H753 0.929 . S
C751 C750 1.363 . S
C751 C757 1.428 . S
H752 C748 0.930 . S
H753 C750 0.929 . S
S754 N755 1.613 . S
S754 N756 1.610 . S
N755 S754 1.613 . S
N755 C758 1.350 . S
N756 S754 1.610 . S
N756 C757 1.351 . S
C757 C751 1.428 . S
C757 N756 1.351 . S
C757 C758 1.434 . S
C758 C749 1.429 . S
C758 N755 1.350 . S
C758 C757 1.434 . S
C759 C760 1.369 . S
C759 C761 1.419 . S
C759 H763 0.930 . S
C760 C759 1.369 . S
C760 C769 1.429 . S
C761 C759 1.419 . S
C761 C762 1.363 . S
C761 H764 0.929 . S
C762 C761 1.363 . S
C762 C768 1.428 . S
H763 C759 0.930 . S
H764 C761 0.929 . S
S765 N766 1.613 . S
S765 N767 1.610 . S
N766 S765 1.613 . S
N766 C769 1.350 . S
N767 S765 1.610 . S
N767 C768 1.351 . S
C768 C762 1.428 . S
C768 N767 1.351 . S
C768 C769 1.434 . S
C769 C760 1.429 . S
C769 N766 1.350 . S
C769 C768 1.434 . S
C770 C771 1.369 . S
C770 C772 1.419 . S
C770 H774 0.930 . S
C771 C770 1.369 . S
C771 C780 1.429 . S
C772 C770 1.419 . S
C772 C773 1.363 . S
C772 H775 0.929 . S
C773 C772 1.363 . S
C773 C779 1.428 . S
H774 C770 0.930 . S
H775 C772 0.929 . S
S776 N777 1.613 . S
S776 N778 1.610 . S
N777 S776 1.613 . S
N777 C780 1.350 . S
N778 S776 1.610 . S
N778 C779 1.351 . S
C779 C773 1.428 . S
C779 N778 1.351 . S
C779 C780 1.434 . S
C780 C771 1.429 . S
C780 N777 1.350 . S
C780 C779 1.434 . S
C781 C782 1.369 . S
C781 C783 1.419 . S
C781 H785 0.930 . S
C782 C781 1.369 . S
C782 C791 1.429 . S
C783 C781 1.419 . S
C783 C784 1.363 . S
C783 H786 0.929 . S
C784 C783 1.363 . S
C784 C790 1.428 . S
H785 C781 0.930 . S
H786 C783 0.929 . S
S787 N788 1.613 . S
S787 N789 1.610 . S
N788 S787 1.613 . S
N788 C791 1.350 . S
N789 S787 1.610 . S
N789 C790 1.351 . S
C790 C784 1.428 . S
C790 N789 1.351 . S
C790 C791 1.434 . S
C791 C782 1.429 . S
C791 N788 1.350 . S
C791 C790 1.434 . S
C792 C793 1.369 . S
C792 C794 1.419 . S
C792 H796 0.930 . S
C793 C792 1.369 . S
C793 C802 1.429 . S
C794 C792 1.419 . S
C794 C795 1.363 . S
C794 H797 0.929 . S
C795 C794 1.363 . S
C795 C801 1.428 . S
H796 C792 0.930 . S
H797 C794 0.929 . S
S798 N799 1.613 . S
S798 N800 1.610 . S
N799 S798 1.613 . S
N799 C802 1.350 . S
N800 S798 1.610 . S
N800 C801 1.351 . S
C801 C795 1.428 . S
C801 N800 1.351 . S
C801 C802 1.434 . S
C802 C793 1.429 . S
C802 N799 1.350 . S
C802 C801 1.434 . S
C803 C804 1.369 . S
C803 C805 1.419 . S
C803 H807 0.930 . S
C804 C803 1.369 . S
C804 C813 1.429 . S
C805 C803 1.419 . S
C805 C806 1.363 . S
C805 H808 0.929 . S
C806 C805 1.363 . S
C806 C812 1.428 . S
H807 C803 0.930 . S
H808 C805 0.929 . S
S809 N810 1.613 . S
S809 N811 1.610 . S
N810 S809 1.613 . S
N810 C813 1.350 . S
N811 S809 1.610 . S
N811 C812 1.351 . S
C812 C806 1.428 . S
C812 N811 1.351 . S
C812 C813 1.434 . S
C813 C804 1.429 . S
C813 N810 1.350 . S
C813 C812 1.434 . S
C814 C815 1.369 . S
C814 C816 1.419 . S
C814 H818 0.930 . S
C815 C814 1.369 . S
C815 C824 1.429 . S
C816 C814 1.419 . S
C816 C817 1.363 . S
C816 H819 0.929 . S
C817 C816 1.363 . S
C817 C823 1.428 . S
H818 C814 0.930 . S
H819 C816 0.929 . S
S820 N821 1.613 . S
S820 N822 1.610 . S
N821 S820 1.613 . S
N821 C824 1.350 . S
N822 S820 1.610 . S
N822 C823 1.351 . S
C823 C817 1.428 . S
C823 N822 1.351 . S
C823 C824 1.434 . S
C824 C815 1.429 . S
C824 N821 1.350 . S
C824 C823 1.434 . S
C825 C826 1.369 . S
C825 C827 1.419 . S
C825 H829 0.930 . S
C826 C825 1.369 . S
C826 C835 1.429 . S
C827 C825 1.419 . S
C827 C828 1.363 . S
C827 H830 0.929 . S
C828 C827 1.363 . S
C828 C834 1.428 . S
H829 C825 0.930 . S
H830 C827 0.929 . S
S831 N832 1.613 . S
S831 N833 1.610 . S
N832 S831 1.613 . S
N832 C835 1.350 . S
N833 S831 1.610 . S
N833 C834 1.351 . S
C834 C828 1.428 . S
C834 N833 1.351 . S
C834 C835 1.434 . S
C835 C826 1.429 . S
C835 N832 1.350 . S
C835 C834 1.434 . S
C836 C837 1.369 . S
C836 C838 1.419 . S
C836 H840 0.930 . S
C837 C836 1.369 . S
C837 C846 1.429 . S
C838 C836 1.419 . S
C838 C839 1.363 . S
C838 H841 0.929 . S
C839 C838 1.363 . S
C839 C845 1.428 . S
H840 C836 0.930 . S
H841 C838 0.929 . S
S842 N843 1.613 . S
S842 N844 1.610 . S
N843 S842 1.613 . S
N843 C846 1.350 . S
N844 S842 1.610 . S
N844 C845 1.351 . S
C845 C839 1.428 . S
C845 N844 1.351 . S
C845 C846 1.434 . S
C846 C837 1.429 . S
C846 N843 1.350 . S
C846 C845 1.434 . S
C847 C848 1.369 . S
C847 C849 1.419 . S
C847 H851 0.930 . S
C848 C847 1.369 . S
C848 C857 1.429 . S
C849 C847 1.419 . S
C849 C850 1.363 . S
C849 H852 0.929 . S
C850 C849 1.363 . S
C850 C856 1.428 . S
H851 C847 0.930 . S
H852 C849 0.929 . S
S853 N854 1.613 . S
S853 N855 1.610 . S
N854 S853 1.613 . S
N854 C857 1.350 . S
N855 S853 1.610 . S
N855 C856 1.351 . S
C856 C850 1.428 . S
C856 N855 1.351 . S
C856 C857 1.434 . S
C857 C848 1.429 . S
C857 N854 1.350 . S
C857 C856 1.434 . S
C858 C859 1.369 . S
C858 C860 1.419 . S
C858 H862 0.930 . S
C859 C858 1.369 . S
C859 C868 1.429 . S
C860 C858 1.419 . S
C860 C861 1.363 . S
C860 H863 0.929 . S
C861 C860 1.363 . S
C861 C867 1.428 . S
H862 C858 0.930 . S
H863 C860 0.929 . S
S864 N865 1.613 . S
S864 N866 1.610 . S
N865 S864 1.613 . S
N865 C868 1.350 . S
N866 S864 1.610 . S
N866 C867 1.351 . S
C867 C861 1.428 . S
C867 N866 1.351 . S
C867 C868 1.434 . S
C868 C859 1.429 . S
C868 N865 1.350 . S
C868 C867 1.434 . S
C869 C870 1.369 . S
C869 C871 1.419 . S
C869 H873 0.930 . S
C870 C869 1.369 . S
C870 C879 1.429 . S
C871 C869 1.419 . S
C871 C872 1.363 . S
C871 H874 0.929 . S
C872 C871 1.363 . S
C872 C878 1.428 . S
H873 C869 0.930 . S
H874 C871 0.929 . S
S875 N876 1.613 . S
S875 N877 1.610 . S
N876 S875 1.613 . S
N876 C879 1.350 . S
N877 S875 1.610 . S
N877 C878 1.351 . S
C878 C872 1.428 . S
C878 N877 1.351 . S
C878 C879 1.434 . S
C879 C870 1.429 . S
C879 N876 1.350 . S
C879 C878 1.434 . S
C353 C6 1.358 . S
C355 C250 1.371 . S
C364 C31 1.357 . S
C366 C180 1.368 . S
C375 C206 1.368 . S
C377 C50 1.356 . S
C386 C224 1.371 . S
C388 C75 1.357 . S
C397 C95 1.357 . S
C399 C290 1.368 . S
C408 C115 1.358 . S
C410 C316 1.369 . S
C419 C334 1.370 . S
C421 C139 1.357 . S
C430 C272 1.371 . S
C432 C159 1.357 . S
C441 C182 1.352 1_545 S
C443 C74 1.372 . S
C452 C4 1.369 . S
C454 C207 1.352 1_455 S
C463 C30 1.372 . S
C465 C226 1.351 1_565 S
C474 C251 1.353 1_655 S
C476 C48 1.369 . S
C485 C271 1.358 1_565 S
C487 C114 1.369 . S
C496 C140 1.372 . S
C498 C291 1.351 1_655 S
C507 C158 1.373 . S
C509 C315 1.353 1_545 S
C518 C96 1.371 . S
C520 C335 1.357 1_455 S
C529 C93 1.140 . S
C531 C9 1.144 . S
C540 C28 1.141 . S
C542 C117 1.134 . S
C551 C137 1.145 . S
C553 C53 1.139 . S
C562 C161 1.131 . S
C564 C72 1.139 . S
C573 C269 1.139 . S
C575 C185 1.134 . S
C584 C204 1.132 . S
C586 C293 1.140 . S
C595 C229 1.143 . S
C597 C313 1.144 . S
C606 C337 1.141 . S
C608 C248 1.144 . S
C617 C5 1.679 . S
C619 C294 1.670 1_554 S
C628 C312 1.672 1_556 S
C630 C29 1.677 . S
C639 C338 1.672 1_554 S
C641 C49 1.678 . S
C650 C268 1.672 1_556 S
C652 C73 1.677 . S
C661 C97 1.681 . S
C663 C246 1.668 1_556 S
C672 C116 1.680 . S
C674 C184 1.667 1_554 S
C683 C141 1.678 . S
C685 C202 1.671 1_556 S
C694 C228 1.667 1_554 S
C696 C160 1.680 . S
C705 C118 1.667 . S
C707 C181 1.680 . S
C716 C136 1.671 . S
C718 C205 1.677 . S
C727 C225 1.680 . S
C729 C162 1.667 . S
C738 C92 1.670 . S
C740 C249 1.679 . S
C749 C70 1.667 . S
C751 C273 1.680 . S
C760 C292 1.676 . S
C762 C8 1.670 . S
C771 C26 1.670 . S
C773 C317 1.677 . S
C782 C336 1.677 . S
C784 C52 1.672 . S
C793 C163 1.314 . S
C795 C7 1.313 . S
C804 C94 1.306 . S
C806 C27 1.306 . S
C815 C119 1.315 . S
C817 C51 1.314 . S
C826 C138 1.310 . S
C828 C71 1.310 . S
C837 C183 1.306 . S
C839 C339 1.307 . S
C848 C270 1.309 . S
C850 C203 1.309 . S
C859 C295 1.314 . S
C861 C227 1.313 . S
C870 C247 1.305 . S
C872 C314 1.306 . S
