# Generated by pormake.
# Topology sxc, (6)-cn, num edge types: 1
# Building blocks:
#     Node 0, Type 0, BuildingBlock: KUMBOL_clean_sbu_1, # of connection points: 6
#     Node 1, Type 0, BuildingBlock: KUMBOL_clean_sbu_1, # of connection points: 6
#     Node 2, Type 0, BuildingBlock: KUMBOL_clean_sbu_1, # of connection points: 6
#     Edge 3, Type (0, 0), BuildingBlock: UVAHIK_clean_linker_0, # of connection points: 2
#     Edge 4, Type (0, 0), BuildingBlock: UVAHIK_clean_linker_0, # of connection points: 2
#     Edge 5, Type (0, 0), BuildingBlock: UVAHIK_clean_linker_0, # of connection points: 2
#     Edge 6, Type (0, 0), BuildingBlock: UVAHIK_clean_linker_0, # of connection points: 2
#     Edge 7, Type (0, 0), BuildingBlock: UVAHIK_clean_linker_0, # of connection points: 2
#     Edge 8, Type (0, 0), BuildingBlock: UVAHIK_clean_linker_0, # of connection points: 2
#     Edge 9, Type (0, 0), BuildingBlock: UVAHIK_clean_linker_0, # of connection points: 2
#     Edge 10, Type (0, 0), BuildingBlock: UVAHIK_clean_linker_0, # of connection points: 2
#     Edge 11, Type (0, 0), BuildingBlock: UVAHIK_clean_linker_0, # of connection points: 2
# Relax obj value: 0.178
# Max RMSD: 0.145
# Mean RMSD: 0.104
data_MOF--net-sxc--node1-KUMBOL_clean_sbu_1--edge1-UVAHIK_clean_linker_0
_symmetry_space_group_name_H-M    P1
_symmetry_Int_Tables_number       1
_symmetry_cell_setting            triclinic
loop_
_symmetry_equiv_pos_as_xyz
'x, y, z'
_cell_length_a     20.051892
_cell_length_b     21.379814
_cell_length_c     57.930919
_cell_angle_alpha  108.93165
_cell_angle_beta   98.304989
_cell_angle_gamma 101.27008
loop_
_atom_site_label
_atom_site_type_symbol
_atom_site_fract_x
_atom_site_fract_y
_atom_site_fract_z
_atom_type_partial_charge
C0 C 0.2584 0.11205 0.02767 0.0
C1 C 0.32297 0.1017 0.99485 0.0
C2 C 0.27292 0.12783 0.00712 0.0
C3 C 0.35681 1.05867 0.00315 0.0
C4 C 0.29363 0.07036 0.03645 0.0
C5 C 0.34233 1.0432 0.02391 0.0
N6 N 0.20954 0.13738 0.03907 0.0
C7 C 0.19739 0.12767 0.06041 0.0
C8 C 0.27886 1.05727 0.0576 0.0
C9 C 0.23096 0.08652 0.06975 0.0
Gd10 Gd 0.96232 0.14362 -0.00271 0.0
Gd11 Gd 0.16021 0.20967 0.02319 0.0
N12 N 0.24019 0.17055 -0.00028 0.0
C13 C 0.33875 0.12079 0.97494 0.0
C14 C 0.25843 0.1923 0.98122 0.0
C15 C 0.30685 0.1668 0.96827 0.0
H16 H 0.23717 0.23053 0.97664 0.0
H17 H 0.32039 0.18356 0.95342 0.0
H18 H 0.88145 0.1211 0.04267 0.0
H19 H 0.16124 0.15113 0.07 0.0
H20 H 0.79629 0.16715 0.06509 0.0
H21 H 0.37681 0.10174 0.96503 0.0
H22 H 0.39515 1.03795 0.99386 0.0
H23 H 0.96536 0.20364 0.95087 0.0
H24 H 0.30474 1.02536 0.06488 0.0
H25 H 0.22018 0.07769 0.08636 0.0
H26 H 0.72523 0.31397 0.02452 0.0
H27 H 0.36951 1.01062 0.03026 0.0
H28 H 0.82176 0.32911 0.95492 0.0
H29 H 0.90801 0.27758 0.93426 0.0
N30 N 0.91462 0.21639 0.98117 0.0
C31 C 0.86475 0.24121 0.99207 0.0
C32 C 0.92852 0.22678 0.96012 0.0
C33 C 0.84695 0.29698 0.9623 0.0
C34 C 0.89581 0.26819 0.95063 0.0
C35 C 0.83034 0.28315 0.98313 0.0
H36 H 0.75403 0.34256 0.98869 0.0
N37 N 0.88047 0.18186 0.01989 0.0
C38 C 0.84844 0.22475 0.01231 0.0
C39 C 0.77988 0.23061 0.04367 0.0
C40 C 0.79738 0.25038 0.02408 0.0
C41 C 0.86067 0.15951 0.03806 0.0
C42 C 0.81115 0.18445 0.0505 0.0
O43 O 0.11748 0.08793 0.01248 0.0
O44 O 0.99851 1.05929 0.00952 0.0
O45 O 0.85989 0.07222 0.98573 0.0
O46 O 0.92268 0.07573 0.95854 0.0
O47 O 0.12414 0.21344 0.98517 0.0
O48 O 1.03888 0.11685 0.97313 0.0
O49 O 1.00496 0.26562 0.00855 0.0
O50 O 0.1237 0.29415 0.01117 0.0
O51 O 0.2627 0.28089 0.03418 0.0
O52 O 0.20122 0.27822 0.06178 0.0
O53 O 0.99658 0.14002 0.03548 0.0
O54 O 0.0842 0.23515 0.04772 0.0
C55 C 0.05876 1.04138 0.01057 0.0
C56 C 0.08003 0.16159 0.96726 0.0
C57 C 0.85816 0.9665 0.95519 0.0
C58 C 0.80314 0.85747 0.958 0.0
C59 C 0.89163 0.86315 0.93368 0.0
C60 C 0.89846 0.93319 0.93974 0.0
C61 C 0.84461 0.82544 0.94286 0.0
C62 C 0.81 0.92794 0.96395 0.0
C63 C 0.86847 1.04156 0.96334 0.0
C64 C 0.76432 0.29362 0.01562 0.0
C65 C 0.78061 0.30981 -0.00483 0.0
H66 H 0.74098 0.24925 0.05319 0.0
C67 C 0.06355 0.31221 0.01038 0.0
C68 C 1.0426 0.19027 0.05344 0.0
C69 C 0.26513 0.3871 0.06455 0.0
C70 C 0.32176 0.49593 0.06195 0.0
C71 C 0.23021 0.49041 0.08503 0.0
C72 C 0.22318 0.42043 0.07918 0.0
C73 C 0.27889 0.52802 0.07638 0.0
C74 C 0.31485 0.42554 0.05628 0.0
C75 C 0.25491 0.31209 0.05664 0.0
H76 H 0.92317 0.83807 0.92192 0.0
H77 H 0.9359 0.96122 0.93257 0.0
H78 H 0.84008 0.77114 0.93788 0.0
H79 H 0.77915 0.95322 0.97604 0.0
H80 H 0.19746 0.51551 0.09618 0.0
H81 H 0.18427 0.39251 0.08586 0.0
H82 H 0.28345 0.58226 0.08116 0.0
H83 H 0.34677 0.40013 0.04474 0.0
C84 C 0.25963 0.37113 0.3855 0.0
C85 C 0.28275 0.43397 0.35818 0.0
C86 C 0.23669 0.38763 0.36498 0.0
C87 C 0.35261 0.4607 0.37154 0.0
C88 C 0.32851 0.40108 0.39989 0.0
C89 C 0.37538 0.44449 0.3924 0.0
N90 N 0.21346 0.32833 0.39215 0.0
C91 C 0.23015 0.31885 0.41427 0.0
C92 C 0.3475 0.38818 0.42183 0.0
C93 C 0.29774 0.34776 0.42925 0.0
Gd94 Gd 0.0536 0.08947 0.32545 0.0
Gd95 Gd 0.10064 0.28474 0.36679 0.0
N96 N 0.16826 0.36254 0.35291 0.0
C97 C 0.25655 0.45432 0.33882 0.0
C98 C 0.14151 0.3865 0.33538 0.0
C99 C 0.1854 0.43137 0.32768 0.0
H100 H 0.08613 0.37201 0.32745 0.0
H101 H 0.1641 0.44909 0.31343 0.0
H102 H 0.98821 1.01911 0.36337 0.0
H103 H 0.1914 0.28796 0.42001 0.0
H104 H 0.87537 0.94961 0.36469 0.0
H105 H 0.29023 0.48985 0.33305 0.0
H106 H 0.38885 0.49583 0.36641 0.0
H107 H 1.03332 0.09067 0.26641 0.0
H108 H 0.39984 0.41046 0.43344 0.0
H109 H 0.31141 0.33889 0.44648 0.0
H110 H 0.72069 0.92078 0.28831 0.0
H111 H 0.4288 0.46726 0.40301 0.0
H112 H 0.81726 1.00868 0.23066 0.0
H113 H 0.93741 1.06387 0.23028 0.0
N114 N 0.96733 1.06129 0.28882 0.0
C115 C 0.90263 1.02652 0.2887 0.0
C116 C 0.98071 0.07142 0.26767 0.0
C117 C 0.85893 1.02283 0.24702 0.0
C118 C 0.92658 1.05424 0.24677 0.0
C119 C 0.84658 1.0068 0.26786 0.0
H120 H 0.73698 0.95472 0.25236 0.0
N121 N 0.94822 1.02687 0.32871 0.0
C122 C 0.89321 1.00726 0.30894 0.0
C123 C 0.82155 0.94757 0.32933 0.0
C124 C 0.82793 0.96801 0.30891 0.0
C125 C 0.94318 1.00537 0.34828 0.0
C126 C 0.87959 0.96589 0.349 0.0
O127 O 0.19068 0.23072 0.36593 0.0
O128 O 0.16141 0.15061 0.32637 0.0
O129 O 0.09815 1.01231 0.33353 0.0
O130 O 0.05855 0.99992 0.29507 0.0
O131 O 0.05417 0.25651 0.32537 0.0
O132 O 0.09734 0.16475 0.30816 0.0
O133 O 0.96748 0.13393 0.34258 0.0
O134 O 0.99065 0.24249 0.34218 0.0
O135 O 0.0911 0.38809 0.38398 0.0
O136 O 0.05585 0.31144 0.39945 0.0
O137 O 0.10093 0.11429 0.36656 0.0
O138 O 0.06068 0.20774 0.3835 0.0
C139 C 0.20946 0.19166 0.34643 0.0
C140 C 0.07595 0.21794 0.30683 0.0
C141 C 0.16027 0.96365 0.30411 0.0
C142 C 0.25349 0.91012 0.31139 0.0
C143 C 0.25938 0.97669 0.28468 0.0
C144 C 0.19545 0.99031 0.28866 0.0
C145 C 0.28852 0.93641 0.29599 0.0
C146 C 0.18964 0.92374 0.31527 0.0
C147 C 0.09481 0.97862 0.31002 0.0
C148 C 0.77148 0.9503 0.28856 0.0
C149 C 0.78072 0.96984 0.26813 0.0
H150 H 0.77229 0.91726 0.32999 0.0
C151 C 0.94574 0.18819 0.34197 0.0
C152 C 0.08706 0.15836 0.3859 0.0
C153 C 0.9947 0.39718 0.40264 0.0
C154 C 0.93954 0.49025 0.40557 0.0
C155 C 0.87015 0.37875 0.4009 0.0
C156 C 0.92982 0.35374 0.40057 0.0
C157 C 0.87457 0.44656 0.40282 0.0
C158 C 0.99919 0.46549 0.40598 0.0
C159 C 0.05822 0.37316 0.40009 0.0
H160 H 0.28641 0.99753 0.27287 0.0
H161 H 0.17411 1.02206 0.27994 0.0
H162 H 0.33767 0.92576 0.29272 0.0
H163 H 0.16253 0.90291 0.32716 0.0
H164 H 0.82006 0.34486 0.39881 0.0
H165 H 0.92481 0.30048 0.39811 0.0
H166 H 0.82766 0.46438 0.40167 0.0
H167 H 1.04906 0.49872 0.40717 0.0
C168 C 0.21066 0.92856 0.64242 0.0
C169 C 0.23151 0.8808 0.67457 0.0
C170 C 0.19461 0.91749 0.66348 0.0
C171 C 0.28696 0.85899 0.66498 0.0
C172 C 0.26337 0.90315 0.63179 0.0
C173 C 0.30273 0.86996 0.64359 0.0
N174 N 0.17268 0.96201 0.63171 0.0
C175 C 0.17943 0.96563 0.609 0.0
C176 C 0.27355 0.9102 0.60924 0.0
C177 C 0.23047 0.94043 0.59756 0.0
Gd178 Gd 0.15398 0.2 0.69396 0.0
Gd179 Gd 0.08824 1.00297 0.65195 0.0
N180 N 0.13966 0.93797 0.67194 0.0
C181 C 0.20973 0.86461 0.69428 0.0
C182 C 0.11439 0.91649 0.68955 0.0
C183 C 0.15004 0.88131 0.70144 0.0
H184 H 0.06629 0.92559 0.69445 0.0
H185 H 0.13077 0.86613 0.71585 0.0
H186 H 0.08742 0.26584 0.65404 0.0
H187 H 0.14657 0.98977 0.60018 0.0
H188 H 1.0078 0.34022 0.65226 0.0
H189 H 0.23671 0.83657 0.70331 0.0
H190 H 0.31639 0.83148 0.67345 0.0
H191 H 0.18741 0.20875 0.75387 0.0
H192 H 0.31338 0.89116 0.60044 0.0
H193 H 0.23696 0.94487 0.57988 0.0
H194 H 0.93993 0.39085 0.73118 0.0
H195 H 0.34418 0.85095 0.63593 0.0
H196 H 1.04684 0.30883 0.79103 0.0
H197 H 0.13948 0.24765 0.79139 0.0
N198 N 0.1157 0.23839 0.73135 0.0
C199 C 0.06811 0.27578 0.73124 0.0
C200 C 0.14394 0.23137 0.75298 0.0
C201 C 0.06598 0.28964 0.77422 0.0
C202 C 0.11815 0.25501 0.77449 0.0
C203 C 1.04178 0.30225 0.75268 0.0
H204 H 0.97316 0.36281 0.76848 0.0
N205 N 0.07574 0.26574 0.68988 0.0
C206 C 1.04901 0.29143 0.71017 0.0
C207 C 0.98825 0.35118 0.68882 0.0
C208 C 1.00368 0.33417 0.71005 0.0
C209 C 0.06324 0.2842 0.66954 0.0
C210 C 1.01858 0.32647 0.66857 0.0
O211 O 0.20012 1.06339 0.65495 0.0
O212 O 0.23119 0.13505 0.69559 0.0
O213 O 0.23381 0.26671 0.68481 0.0
O214 O 0.21997 0.29325 0.72285 0.0
O215 O 0.07038 1.034 0.69157 0.0
O216 O 0.16765 0.1223 0.71181 0.0
O217 O 1.03449 0.15904 0.67637 0.0
O218 O 1.00541 1.04428 0.67082 0.0
O219 O 1.02046 0.89947 0.63693 0.0
O220 O 1.02349 0.96263 0.61449 0.0
O221 O 0.15912 0.17418 0.6531 0.0
O222 O 0.06713 0.0796 0.63479 0.0
C223 C 0.24906 0.0986 0.6755 0.0
C224 C 0.11599 0.07486 0.71222 0.0
C225 C 0.33449 0.31796 0.71725 0.0
C226 C 0.45328 0.374 0.71831 0.0
C227 C 0.43235 0.29087 0.73843 0.0
C228 C 0.36043 0.28156 0.7312 0.0
C229 C 0.47877 0.33651 0.73186 0.0
C230 C 0.381 0.36419 0.711 0.0
C231 C 0.25931 0.30639 0.70817 0.0
C232 C 0.9755 0.35862 0.73103 0.0
C233 C 0.99426 0.34245 0.75225 0.0
H234 H 0.95364 0.38386 0.688 0.0
C235 C 0.98739 0.10201 0.67328 0.0
C236 C 0.11431 0.12855 0.63305 0.0
C237 C 0.91384 0.89132 0.6109 0.0
C238 C 0.80217 0.8272 0.61343 0.0
C239 C 0.80595 0.91557 0.59554 0.0
C240 C 0.87853 0.92862 0.59968 0.0
C241 C 0.76782 0.86545 0.60252 0.0
C242 C 0.87506 0.84011 0.61737 0.0
C243 C 0.99082 0.90702 0.61681 0.0
H244 H 0.45211 0.26232 0.749 0.0
H245 H 0.32518 0.24546 0.73624 0.0
H246 H 0.53436 0.34316 0.73758 0.0
H247 H 0.36078 0.39162 0.69998 0.0
H248 H 0.77925 0.94482 0.58708 0.0
H249 H 0.90683 0.9684 0.59435 0.0
H250 H 0.71161 0.85638 0.59933 0.0
H251 H 0.90195 0.81175 0.62629 0.0
C252 C 0.12247 0.43559 0.01048 0.0
C253 C 0.06232 0.38723 0.01062 0.0
C254 C 0.12222 0.50348 0.01054 0.0
C255 C 0.99957 0.62891 0.00773 0.0
H256 H 0.17258 0.7592 0.01589 0.0
C257 C 0.99971 0.91801 0.01049 0.0
C258 C 0.05993 0.96642 0.01043 0.0
C259 C 0.99993 0.85014 0.01047 0.0
C260 C 0.12261 0.72479 0.0134 0.0
H261 H 0.95423 0.38155 0.01193 0.0
H262 H 0.95289 0.49548 0.01162 0.0
H263 H 0.17307 0.64571 0.01607 0.0
H264 H 0.16815 0.97224 0.00933 0.0
H265 H 0.16945 0.85836 0.00968 0.0
H266 H 0.94911 0.70799 0.00506 0.0
C267 C 1.00166 0.48131 0.01111 0.0
C268 C 0.12289 0.65698 0.0135 0.0
C269 C 1.0021 0.41348 0.01117 0.0
C270 C 0.12021 0.94026 0.01002 0.0
C271 C 0.12062 0.87245 0.01009 0.0
C272 C 0.99928 0.69671 0.00762 0.0
C273 C 0.06171 0.52985 0.01074 0.0
C274 C 0.06139 0.60543 0.01067 0.0
C275 C 0.06049 0.82384 0.01037 0.0
C276 C 0.0608 0.74826 0.01045 0.0
H277 H 0.17118 0.42097 0.01029 0.0
H278 H 0.17091 0.53519 0.01023 0.0
H279 H 0.94961 0.59448 0.00524 0.0
H280 H 0.95095 0.93257 0.01059 0.0
H281 H 0.95119 0.81839 0.01071 0.0
C282 C 0.30649 0.15959 0.32446 0.0
C283 C 0.28596 0.19344 0.34655 0.0
C284 C 0.37697 0.1594 0.32429 0.0
C285 C 0.56226 0.2535 0.35882 0.0
H286 H 0.60655 0.08666 0.32117 0.0
C287 C 0.84448 0.24529 0.34066 0.0
C288 C 0.87029 0.1898 0.34264 0.0
C289 C 0.7745 0.24693 0.34159 0.0
C290 C 0.59559 0.1339 0.33186 0.0
H291 H 0.32666 0.25314 0.38594 0.0
H292 H 0.4493 0.25602 0.38551 0.0
H293 H 0.48493 0.08735 0.32201 0.0
H294 H 0.84049 0.09401 0.34829 0.0
H295 H 0.71892 0.09475 0.34848 0.0
H296 H 0.67303 0.30024 0.36836 0.0
C297 C 0.41042 0.22905 0.36816 0.0
C298 C 0.52519 0.13444 0.3322 0.0
C299 C 0.33952 0.22785 0.36842 0.0
C300 C 0.82301 0.13641 0.34573 0.0
C301 C 0.75273 0.13722 0.34608 0.0
C302 C 0.63264 0.25332 0.35806 0.0
C303 C 0.43072 0.19437 0.34611 0.0
C304 C 0.50685 0.19415 0.34577 0.0
C305 C 0.72682 0.19259 0.34409 0.0
C306 C 0.65094 0.1934 0.34466 0.0
H307 H 0.26789 0.13328 0.30704 0.0
H308 H 0.38948 0.13259 0.30678 0.0
H309 H 0.55119 0.3008 0.3694 0.0
H310 H 0.87857 0.28804 0.33851 0.0
H311 H 0.75746 0.29066 0.33996 0.0
C312 C 0.71387 0.79262 0.6363 0.0
C313 C 0.76326 0.7762 0.62205 0.0
C314 C 0.6832 0.74763 0.64693 0.0
C315 C 0.65012 0.56893 0.64361 0.0
H316 H 0.63738 0.64889 0.71274 0.0
C317 C 0.55339 0.40291 0.69911 0.0
C318 C 0.50104 0.42279 0.71125 0.0
C319 C 0.59253 0.44659 0.68971 0.0
C320 C 0.64048 0.62591 0.69342 0.0
H321 H 0.81683 0.69879 0.60665 0.0
H322 H 0.7638 0.62047 0.62548 0.0
H323 H 0.68704 0.72277 0.69177 0.0
H324 H 0.45088 0.5046 0.72437 0.0
H325 H 0.51884 0.58069 0.70792 0.0
H326 H 0.60284 0.47208 0.64522 0.0
C327 C 0.74866 0.66791 0.62839 0.0
C328 C 0.6685 0.66816 0.68138 0.0
C329 C 0.77935 0.71289 0.61778 0.0
C330 C 0.49066 0.48803 0.71489 0.0
C331 C 0.52991 0.53171 0.70566 0.0
C332 C 0.62209 0.52662 0.65567 0.0
C333 C 0.70133 0.68546 0.64347 0.0
C334 C 0.67279 0.64018 0.65627 0.0
C335 C 0.58023 0.51091 0.69254 0.0
C336 C 0.61622 0.55485 0.68059 0.0
H337 H 0.70094 0.84132 0.64002 0.0
H338 H 0.64597 0.76193 0.65815 0.0
H339 H 0.6524 0.54604 0.62419 0.0
H340 H 0.56202 0.35263 0.696 0.0
H341 H 0.63151 0.42965 0.67985 0.0
C342 C 0.88734 0.16143 0.67639 0.0
C343 C 0.91102 0.10177 0.67291 0.0
C344 C 0.81691 0.16127 0.67695 0.0
C345 C 0.63427 1.04637 0.65683 0.0
H346 H 0.59081 0.19681 0.70573 0.0
C347 C 0.34812 0.07953 0.65294 0.0
C348 C 0.32517 0.09956 0.67551 0.0
C349 C 0.41849 0.07903 0.65271 0.0
C350 C 0.6016 0.15409 0.69194 0.0
H351 H 0.87484 0.99335 0.6659 0.0
H352 H 0.7528 0.9925 0.66605 0.0
H353 H 0.71276 0.19713 0.70489 0.0
H354 H 0.36112 0.13533 0.71575 0.0
H355 H 0.48387 0.13764 0.7155 0.0
H356 H 0.52312 1.00377 0.64367 0.0
C357 C 0.78931 1.04042 0.66898 0.0
C358 C 0.6721 0.15455 0.69131 0.0
C359 C 0.86012 1.04103 0.669 0.0
C360 C 0.37612 0.12039 0.69793 0.0
C361 C 0.44698 0.12142 0.69776 0.0
C362 C 0.56378 1.04655 0.65715 0.0
C363 C 0.7662 0.10075 0.67328 0.0
C364 C 0.6901 0.10055 0.67381 0.0
C365 C 0.46968 0.10024 0.67512 0.0
C366 C 0.54579 0.10026 0.67478 0.0
H367 H 0.92311 0.20854 0.6785 0.0
H368 H 0.80193 0.20874 0.67981 0.0
H369 H 0.64496 1.0039 0.64289 0.0
H370 H 0.3117 0.065 0.63526 0.0
H371 H 0.43307 1.06326 0.63482 0.0
C372 C 0.68626 0.8281 0.96789 0.0
C373 C 0.75347 0.81809 0.96801 0.0
C374 C 0.64016 0.79306 0.97815 0.0
C375 C 0.60509 0.64171 -0.0038 0.0
H376 H 0.49449 0.74059 0.03687 0.0
C377 C 0.43995 0.52515 0.05291 0.0
C378 C 0.37262 0.53519 0.05228 0.0
C379 C 0.48716 0.56031 0.04302 0.0
C380 C 0.5245 0.71213 0.02535 0.0
H381 H 0.82521 0.76357 0.97896 0.0
H382 H 0.74457 0.70225 -0.00305 0.0
H383 H 0.57561 0.79999 0.01859 0.0
H384 H 0.3018 0.5897 0.04071 0.0
H385 H 0.38438 0.6513 0.02345 0.0
H386 H 0.55391 0.55383 0.00297 0.0
C387 C 0.72726 0.73659 0.98863 0.0
C388 C 0.57094 0.74611 0.01487 0.0
C389 C 0.7734 0.77164 0.97833 0.0
C390 C 0.35369 0.58168 0.04178 0.0
C391 C 0.40094 0.61688 0.03189 0.0
C392 C 0.55867 0.60773 0.00669 0.0
C393 C 0.66028 0.74727 0.98878 0.0
C394 C 0.61159 0.71122 0.00012 0.0
C395 C 0.46806 0.60628 0.03229 0.0
C396 C 0.51779 0.64256 0.02134 0.0
H397 H 0.66914 0.86283 0.95973 0.0
H398 H 0.58849 0.80143 0.97756 0.0
H399 H 0.63498 0.6132 0.98464 0.0
H400 H 0.45632 0.49037 0.0612 0.0
H401 H 0.53888 0.55191 0.04397 0.0
C402 C 0.99548 0.61402 0.42181 0.0
C403 C 0.94714 0.55723 0.40303 0.0
C404 C 1.03726 0.66313 0.41531 0.0
C405 C 0.12236 0.64933 0.36553 0.0
H406 H 0.17987 0.84701 0.38785 0.0
C407 C 0.24883 0.79483 0.31089 0.0
C408 C 0.27852 0.86528 0.32313 0.0
C409 C 0.23032 0.7544 0.32477 0.0
C410 C 0.16613 0.79176 0.38199 0.0
H411 H 0.89535 0.51327 0.36381 0.0
H412 H 0.9678 0.59943 0.35247 0.0
H413 H 0.08791 0.79253 0.40374 0.0
H414 H 0.32575 0.94636 0.35898 0.0
H415 H 0.2972 0.87505 0.3834 0.0
H416 H 0.20032 0.64776 0.34393 0.0
C417 C 0.97435 0.60535 0.37203 0.0
C418 C 0.11259 0.76084 0.39081 0.0
C419 C 0.93209 0.55683 0.37858 0.0
C420 C 0.30266 0.89194 0.34923 0.0
C421 C 0.28486 0.85139 0.36317 0.0
C422 C 0.1766 0.68011 0.35704 0.0
C423 C 1.0305 0.65548 0.39006 0.0
C424 C 0.08883 0.68948 0.38194 0.0
C425 C 0.24239 0.78417 0.35103 0.0
C426 C 0.19764 0.75169 0.3645 0.0
H427 H 1.0081 0.61484 0.44075 0.0
H428 H 0.08002 0.70186 0.42951 0.0
H429 H 0.10602 0.59395 0.35906 0.0
H430 H 0.22957 0.77346 0.29074 0.0
H431 H 0.19835 0.70264 0.31468 0.0
C432 C 0.12624 0.21473 0.26964 0.0
C433 C 0.07616 0.23241 0.28345 0.0
C434 C 0.12231 0.21895 0.24593 0.0
C435 C 0.99637 0.21236 0.19179 0.0
H436 H 0.16299 0.27186 0.16975 0.0
C437 C 1.00285 0.14953 0.08669 0.0
C438 C 1.04257 0.20046 0.08015 0.0
C439 C 1.00467 0.15858 0.1119 0.0
C440 C 0.11575 0.25559 0.17558 0.0
H441 H 0.98366 0.27026 0.28351 0.0
H442 H 0.97642 0.27756 0.24176 0.0
H443 H 0.17152 0.28283 0.21337 0.0
H444 H 0.11483 0.30122 0.09522 0.0
H445 H 0.11823 0.31689 0.13896 0.0
H446 H 0.94069 0.18468 0.1539 0.0
C447 C 1.01872 0.26018 0.24936 0.0
C448 C 0.12076 0.26138 0.2006 0.0
C449 C 1.02322 0.25676 0.27336 0.0
C450 C 0.08386 0.26072 0.09947 0.0
C451 C 0.08597 0.26964 0.12464 0.0
C452 C 0.99141 0.20611 0.16668 0.0
C453 C 0.0678 0.24046 0.23522 0.0
C454 C 0.06129 0.23929 0.20902 0.0
C455 C 1.04669 0.2186 0.13125 0.0
C456 C 1.05115 0.2272 0.15818 0.0
H457 H 0.16766 0.19574 0.27693 0.0
H458 H 0.16063 0.20274 0.23557 0.0
H459 H 0.94959 0.19422 0.19754 0.0
H460 H 0.97116 0.10204 0.07236 0.0
H461 H 0.97446 0.11773 0.11624 0.0
C462 C 0.07173 0.19411 0.43005 0.0
C463 C 0.09429 0.14992 0.41066 0.0
C464 C 0.07986 0.18971 0.45375 0.0
C465 C 0.10366 0.07529 0.48831 0.0
H466 H 0.15619 0.24539 0.5458 0.0
C467 C 0.17014 0.17906 0.6045 0.0
C468 C 0.11632 0.132 0.60786 0.0
C469 C 0.17307 0.1798 0.58051 0.0
C470 C 0.14222 0.19731 0.53005 0.0
H471 H 0.14208 0.06507 0.40119 0.0
H472 H 0.1561 1.05705 0.44294 0.0
H473 H 0.15324 0.24824 0.504 0.0
H474 H 1.02284 1.04926 0.58838 0.0
H475 H 1.02765 1.05103 0.54692 0.0
H476 H 0.09271 1.02441 0.51448 0.0
C477 C 0.13209 0.09536 0.43955 0.0
C478 C 0.13979 0.19893 0.50598 0.0
C479 C 0.1242 0.10001 0.41564 0.0
C480 C 0.06538 0.08604 0.58662 0.0
C481 C 0.06841 0.08666 0.5627 0.0
C482 C 0.10588 0.07366 0.51245 0.0
C483 C 0.11068 0.14083 0.459 0.0
C484 C 0.11936 0.13805 0.48472 0.0
C485 C 0.12233 0.1334 0.55924 0.0
C486 C 0.12426 0.13472 0.53364 0.0
H487 H 1.0476 0.23274 0.42707 0.0
H488 H 0.06116 0.22449 0.46797 0.0
H489 H 0.08749 1.02743 0.47242 0.0
H490 H 0.21054 0.21491 0.62035 0.0
H491 H 0.21574 0.21619 0.5786 0.0
C492 C 0.16614 0.07505 0.75439 0.0
C493 C 0.10771 0.06993 0.73662 0.0
C494 C 0.1604 0.07947 0.77866 0.0
C495 C 0.06281 0.14205 0.82564 0.0
H496 H 0.13684 1.03011 0.85838 0.0
C497 C 0.10912 0.2039 0.93325 0.0
C498 C 0.08276 0.14931 0.94068 0.0
C499 C 0.11004 0.19249 0.90805 0.0
C500 C 0.1158 1.06165 0.84947 0.0
H501 H 0.99736 0.06448 0.73005 0.0
H502 H 0.98754 0.07389 0.77278 0.0
H503 H 0.14128 1.01081 0.81459 0.0
H504 H 1.03773 1.03981 0.9275 0.0
H505 H 1.041 1.01969 0.88366 0.0
H506 H 1.03893 0.19405 0.8607 0.0
C507 C 1.03757 0.07368 0.76783 0.0
C508 C 0.1186 1.05078 0.82445 0.0
C509 C 1.04298 0.0676 0.74335 0.0
C510 C 0.05809 0.08298 0.92239 0.0
C511 C 0.06029 0.07139 0.89729 0.0
C512 C 0.0613 0.15385 0.85081 0.0
C513 C 0.0964 0.08033 0.78582 0.0
C514 C 0.09192 0.09069 0.81222 0.0
C515 C 0.08591 0.12604 0.88978 0.0
C516 C 0.08763 0.11368 0.86302 0.0
H517 H 0.21667 0.07728 0.74965 0.0
H518 H 0.20666 0.08485 0.79212 0.0
H519 H 1.04245 0.17404 0.81678 0.0
H520 H 0.12815 0.25564 0.94687 0.0
H521 H 0.13048 0.23559 0.90288 0.0
loop_
_geom_bond_atom_site_label_1
_geom_bond_atom_site_label_2
_geom_bond_distance
_geom_bond_site_symmetry_2
_ccdc_geom_bond_type
C0 C2 1.422 . S
C0 C4 1.415 . S
C0 N6 1.369 . S
C1 C2 1.421 . S
C1 C3 1.417 . S
C1 C13 1.422 1_554 S
C2 C0 1.422 . S
C2 C1 1.421 . S
C2 N12 1.359 . S
C3 C1 1.417 . S
C3 C5 1.329 . S
C3 H22 0.930 . S
C4 C0 1.415 . S
C4 C5 1.437 . S
C4 C8 1.413 . S
C5 C3 1.329 . S
C5 C4 1.437 . S
C5 H27 0.929 . S
N6 C0 1.369 . S
N6 C7 1.338 . S
N6 Gd11 2.622 . S
C7 N6 1.338 . S
C7 C9 1.378 . S
C7 H19 0.929 . S
C8 C4 1.413 . S
C8 C9 1.348 . S
C8 H24 0.931 . S
C9 C7 1.378 . S
C9 C8 1.348 . S
C9 H25 0.930 . S
Gd10 N30 2.622 1_554 S
Gd10 N37 2.570 . S
Gd10 O44 2.353 . S
Gd10 O45 2.468 . S
Gd10 O46 2.427 1_544 S
Gd10 O48 2.388 1_554 S
Gd10 O49 2.386 . S
Gd10 O53 2.307 . S
Gd10 C63 2.821 1_544 S
Gd11 N6 2.622 . S
Gd11 N12 2.570 . S
Gd11 O43 2.386 . S
Gd11 O47 2.307 1_554 S
Gd11 O50 2.353 . S
Gd11 O51 2.468 . S
Gd11 O52 2.427 . S
Gd11 O54 2.388 . S
Gd11 C75 2.805 . S
N12 C2 1.359 . S
N12 Gd11 2.570 . S
N12 C14 1.343 1_554 S
C13 C1 1.422 1_556 S
C13 C15 1.321 . S
C13 H21 0.931 . S
C14 N12 1.343 1_556 S
C14 C15 1.390 . S
C14 H16 0.931 . S
C15 C13 1.321 . S
C15 C14 1.390 . S
C15 H17 0.930 . S
H16 C14 0.931 . S
H17 C15 0.930 . S
H18 C41 0.931 . S
H19 C7 0.929 . S
H20 C42 0.930 . S
H21 C13 0.931 . S
H22 C3 0.930 . S
H23 C32 0.929 . S
H24 C8 0.931 . S
H25 C9 0.930 . S
H26 C64 0.940 . S
H27 C5 0.929 . S
H28 C33 0.931 . S
H29 C34 0.930 . S
N30 Gd10 2.622 1_556 S
N30 C31 1.369 . S
N30 C32 1.338 . S
C31 N30 1.369 . S
C31 C35 1.415 . S
C31 C38 1.422 1_556 S
C32 H23 0.929 . S
C32 N30 1.338 . S
C32 C34 1.378 . S
C33 H28 0.931 . S
C33 C34 1.348 . S
C33 C35 1.413 . S
C34 H29 0.930 . S
C34 C32 1.378 . S
C34 C33 1.348 . S
C35 C31 1.415 . S
C35 C33 1.413 . S
C35 C65 1.437 . S
H36 C65 0.929 . S
N37 Gd10 2.570 . S
N37 C38 1.359 . S
N37 C41 1.343 . S
C38 C31 1.422 1_554 S
C38 N37 1.359 . S
C38 C40 1.421 . S
C39 C40 1.422 . S
C39 C42 1.321 . S
C39 H66 0.931 . S
C40 C38 1.421 . S
C40 C39 1.422 . S
C40 C64 1.417 1_554 S
C41 H18 0.931 . S
C41 N37 1.343 . S
C41 C42 1.390 . S
C42 H20 0.930 . S
C42 C39 1.321 . S
C42 C41 1.390 . S
O43 Gd11 2.386 . S
O43 C55 1.265 . S
O44 Gd10 2.353 . S
O44 C55 1.242 1_655 S
O45 Gd10 2.468 . S
O45 C63 1.235 1_544 S
O46 Gd10 2.427 1_566 S
O46 C63 1.295 . S
O47 Gd11 2.307 1_556 S
O47 C56 1.261 . S
O48 Gd10 2.388 1_556 S
O48 C56 1.252 1_655 S
O49 Gd10 2.386 . S
O49 C67 1.265 . S
O50 Gd11 2.353 . S
O50 C67 1.242 1_455 S
O51 Gd11 2.468 . S
O51 C75 1.263 . S
O52 Gd11 2.427 . S
O52 C75 1.252 . S
O53 Gd10 2.307 . S
O53 C68 1.261 1_655 S
O54 Gd11 2.388 . S
O54 C68 1.252 . S
C55 O43 1.265 . S
C55 O44 1.242 1_455 S
C56 O47 1.261 . S
C56 O48 1.252 1_455 S
C57 C60 1.394 . S
C57 C62 1.370 1_556 S
C57 C63 1.486 . S
C58 C61 1.383 1_554 S
C58 C62 1.395 . S
C59 C60 1.396 . S
C59 C61 1.365 . S
C59 H76 0.929 . S
C60 C57 1.394 . S
C60 C59 1.396 . S
C60 H77 0.930 . S
C61 C58 1.383 1_556 S
C61 C59 1.365 . S
C61 H78 0.931 . S
C62 C57 1.370 1_554 S
C62 C58 1.395 . S
C62 H79 0.930 . S
C63 Gd10 2.821 1_566 S
C63 O45 1.235 1_566 S
C63 O46 1.295 . S
C63 C57 1.486 . S
C64 H26 0.940 . S
C64 C40 1.417 1_556 S
C64 C65 1.329 . S
C65 C35 1.437 . S
C65 H36 0.929 . S
C65 C64 1.329 . S
H66 C39 0.931 . S
C67 O49 1.265 . S
C67 O50 1.242 1_655 S
C68 O53 1.261 1_455 S
C68 O54 1.252 . S
C69 C72 1.394 . S
C69 C74 1.370 . S
C69 C75 1.500 . S
C70 C73 1.383 . S
C70 C74 1.395 . S
C71 C72 1.396 . S
C71 C73 1.365 . S
C71 H80 0.929 . S
C72 C69 1.394 . S
C72 C71 1.396 . S
C72 H81 0.930 . S
C73 C70 1.383 . S
C73 C71 1.365 . S
C73 H82 0.931 . S
C74 C69 1.370 . S
C74 C70 1.395 . S
C74 H83 0.904 1_554 S
C75 Gd11 2.805 . S
C75 O51 1.263 . S
C75 O52 1.252 . S
C75 C69 1.500 . S
H76 C59 0.929 . S
H77 C60 0.930 . S
H78 C61 0.931 . S
H79 C62 0.930 . S
H80 C71 0.929 . S
H81 C72 0.930 . S
H82 C73 0.931 . S
H83 C74 0.904 1_556 S
C84 C86 1.422 . S
C84 C88 1.415 . S
C84 N90 1.369 . S
C85 C86 1.421 . S
C85 C87 1.417 . S
C85 C97 1.422 . S
C86 C84 1.422 . S
C86 C85 1.421 . S
C86 N96 1.359 . S
C87 C85 1.417 . S
C87 C89 1.329 . S
C87 H106 0.930 . S
C88 C84 1.415 . S
C88 C89 1.437 . S
C88 C92 1.413 . S
C89 C87 1.329 . S
C89 C88 1.437 . S
C89 H111 0.929 . S
N90 C84 1.369 . S
N90 C91 1.338 . S
N90 Gd95 2.622 . S
C91 N90 1.338 . S
C91 C93 1.378 . S
C91 H103 0.929 . S
C92 C88 1.413 . S
C92 C93 1.348 . S
C92 H108 0.931 . S
C93 C91 1.378 . S
C93 C92 1.348 . S
C93 H109 0.930 . S
Gd94 N114 2.622 1_545 S
Gd94 N121 2.570 1_545 S
Gd94 O128 2.353 1_655 S
Gd94 O129 2.468 1_645 S
Gd94 O130 2.427 1_645 S
Gd94 O132 2.388 1_655 S
Gd94 O133 2.386 . S
Gd94 O137 2.307 1_655 S
Gd94 C147 2.805 1_645 S
Gd95 N90 2.622 . S
Gd95 N96 2.570 . S
Gd95 O127 2.386 . S
Gd95 O131 2.307 . S
Gd95 O134 2.353 1_455 S
Gd95 O135 2.468 . S
Gd95 O136 2.427 . S
Gd95 O138 2.388 . S
Gd95 C159 2.805 . S
N96 C86 1.359 . S
N96 Gd95 2.570 . S
N96 C98 1.343 . S
C97 C85 1.422 . S
C97 C99 1.321 . S
C97 H105 0.931 . S
C98 N96 1.343 . S
C98 C99 1.390 . S
C98 H100 0.931 . S
C99 C97 1.321 . S
C99 C98 1.390 . S
C99 H101 0.930 . S
H100 C98 0.931 . S
H101 C99 0.930 . S
H102 C125 0.931 1_545 S
H103 C91 0.929 . S
H104 C126 0.930 . S
H105 C97 0.931 . S
H106 C87 0.930 . S
H107 C116 0.929 . S
H108 C92 0.931 . S
H109 C93 0.930 . S
H110 C148 0.930 . S
H111 C89 0.929 . S
H112 C117 0.931 . S
H113 C118 0.930 . S
N114 Gd94 2.622 1_565 S
N114 C115 1.369 . S
N114 C116 1.338 . S
C115 N114 1.369 . S
C115 C119 1.415 . S
C115 C122 1.422 . S
C116 H107 0.929 . S
C116 N114 1.338 . S
C116 C118 1.378 . S
C117 H112 0.931 . S
C117 C118 1.348 . S
C117 C119 1.413 . S
C118 H113 0.930 . S
C118 C116 1.378 . S
C118 C117 1.348 . S
C119 C115 1.415 . S
C119 C117 1.413 . S
C119 C149 1.437 . S
H120 C149 0.929 . S
N121 Gd94 2.570 1_565 S
N121 C122 1.359 . S
N121 C125 1.343 . S
C122 C115 1.422 . S
C122 N121 1.359 . S
C122 C124 1.421 . S
C123 C124 1.422 . S
C123 C126 1.321 . S
C123 H150 0.931 . S
C124 C122 1.421 . S
C124 C123 1.422 . S
C124 C148 1.417 . S
C125 H102 0.931 1_565 S
C125 N121 1.343 . S
C125 C126 1.390 . S
C126 H104 0.930 . S
C126 C123 1.321 . S
C126 C125 1.390 . S
O127 Gd95 2.386 . S
O127 C139 1.265 . S
O128 Gd94 2.353 1_455 S
O128 C139 1.242 . S
O129 Gd94 2.468 1_465 S
O129 C147 1.263 . S
O130 Gd94 2.427 1_465 S
O130 C147 1.252 . S
O131 Gd95 2.307 . S
O131 C140 1.261 . S
O132 Gd94 2.388 1_455 S
O132 C140 1.252 . S
O133 Gd94 2.386 . S
O133 C151 1.265 . S
O134 Gd95 2.353 1_655 S
O134 C151 1.242 . S
O135 Gd95 2.468 . S
O135 C159 1.263 . S
O136 Gd95 2.427 . S
O136 C159 1.252 . S
O137 Gd94 2.307 1_455 S
O137 C152 1.261 . S
O138 Gd95 2.388 . S
O138 C152 1.252 . S
C139 O127 1.265 . S
C139 O128 1.242 . S
C140 O131 1.261 . S
C140 O132 1.252 . S
C141 C144 1.394 . S
C141 C146 1.370 . S
C141 C147 1.500 . S
C142 C145 1.383 . S
C142 C146 1.395 . S
C143 C144 1.396 . S
C143 C145 1.365 . S
C143 H160 0.929 . S
C144 C141 1.394 . S
C144 C143 1.396 . S
C144 H161 0.930 . S
C145 C142 1.383 . S
C145 C143 1.365 . S
C145 H162 0.931 . S
C146 C141 1.370 . S
C146 C142 1.395 . S
C146 H163 0.930 . S
C147 Gd94 2.805 1_465 S
C147 O129 1.263 . S
C147 O130 1.252 . S
C147 C141 1.500 . S
C148 H110 0.930 . S
C148 C124 1.417 . S
C148 C149 1.329 . S
C149 C119 1.437 . S
C149 H120 0.929 . S
C149 C148 1.329 . S
H150 C123 0.931 . S
C151 O133 1.265 . S
C151 O134 1.242 . S
C152 O137 1.261 . S
C152 O138 1.252 . S
C153 C156 1.394 . S
C153 C158 1.370 . S
C153 C159 1.500 . S
C154 C157 1.383 . S
C154 C158 1.395 . S
C155 C156 1.396 . S
C155 C157 1.365 . S
C155 H164 0.929 . S
C156 C153 1.394 . S
C156 C155 1.396 . S
C156 H165 0.930 . S
C157 C154 1.383 . S
C157 C155 1.365 . S
C157 H166 0.931 . S
C158 C153 1.370 . S
C158 C154 1.395 . S
C158 H167 0.930 . S
C159 Gd95 2.805 . S
C159 O135 1.263 . S
C159 O136 1.252 . S
C159 C153 1.500 . S
H160 C143 0.929 . S
H161 C144 0.930 . S
H162 C145 0.931 . S
H163 C146 0.930 . S
H164 C155 0.929 . S
H165 C156 0.930 . S
H166 C157 0.931 . S
H167 C158 0.930 . S
C168 C170 1.422 . S
C168 C172 1.415 . S
C168 N174 1.369 . S
C169 C170 1.421 . S
C169 C171 1.417 . S
C169 C181 1.422 . S
C170 C168 1.422 . S
C170 C169 1.421 . S
C170 N180 1.359 . S
C171 C169 1.417 . S
C171 C173 1.329 . S
C171 H190 0.930 . S
C172 C168 1.415 . S
C172 C173 1.437 . S
C172 C176 1.413 . S
C173 C171 1.329 . S
C173 C172 1.437 . S
C173 H195 0.929 . S
N174 C168 1.369 . S
N174 C175 1.338 . S
N174 Gd179 2.622 . S
C175 N174 1.338 . S
C175 C177 1.378 . S
C175 H187 0.929 . S
C176 C172 1.413 . S
C176 C177 1.348 . S
C176 H192 0.931 . S
C177 C175 1.378 . S
C177 C176 1.348 . S
C177 H193 0.930 . S
Gd178 N198 2.622 . S
Gd178 N205 2.570 . S
Gd178 O212 2.353 . S
Gd178 O213 2.468 . S
Gd178 O214 2.427 . S
Gd178 O216 2.388 . S
Gd178 O217 2.386 . S
Gd178 O221 2.307 . S
Gd178 C231 2.805 . S
Gd179 N174 2.622 . S
Gd179 N180 2.570 . S
Gd179 O211 2.386 . S
Gd179 O215 2.307 . S
Gd179 O218 2.353 1_455 S
Gd179 O219 2.468 1_455 S
Gd179 O220 2.427 1_455 S
Gd179 O222 2.388 . S
Gd179 C243 2.805 1_455 S
N180 C170 1.359 . S
N180 Gd179 2.570 . S
N180 C182 1.343 . S
C181 C169 1.422 . S
C181 C183 1.321 . S
C181 H189 0.931 . S
C182 N180 1.343 . S
C182 C183 1.390 . S
C182 H184 0.931 . S
C183 C181 1.321 . S
C183 C182 1.390 . S
C183 H185 0.930 . S
H184 C182 0.931 . S
H185 C183 0.930 . S
H186 C209 0.931 . S
H187 C175 0.929 . S
H188 C210 0.930 1_655 S
H189 C181 0.931 . S
H190 C171 0.930 . S
H191 C200 0.929 . S
H192 C176 0.931 . S
H193 C177 0.930 . S
H194 C232 0.930 . S
H195 C173 0.929 . S
H196 C201 0.931 . S
H197 C202 0.930 . S
N198 Gd178 2.622 . S
N198 C199 1.369 . S
N198 C200 1.338 . S
C199 N198 1.369 . S
C199 C203 1.415 . S
C199 C206 1.422 . S
C200 H191 0.929 . S
C200 N198 1.338 . S
C200 C202 1.378 . S
C201 H196 0.931 . S
C201 C202 1.348 . S
C201 C203 1.413 . S
C202 H197 0.930 . S
C202 C200 1.378 . S
C202 C201 1.348 . S
C203 C199 1.415 . S
C203 C201 1.413 . S
C203 C233 1.437 1_455 S
H204 C233 0.929 . S
N205 Gd178 2.570 . S
N205 C206 1.359 . S
N205 C209 1.343 . S
C206 C199 1.422 . S
C206 N205 1.359 . S
C206 C208 1.408 1_455 S
C207 C208 1.424 . S
C207 C210 1.321 1_655 S
C207 H234 0.931 . S
C208 C206 1.408 1_655 S
C208 C207 1.424 . S
C208 C232 1.428 . S
C209 H186 0.931 . S
C209 N205 1.343 . S
C209 C210 1.390 . S
C210 H188 0.930 1_455 S
C210 C207 1.321 1_455 S
C210 C209 1.390 . S
O211 Gd179 2.386 . S
O211 C223 1.265 1_565 S
O212 Gd178 2.353 . S
O212 C223 1.242 . S
O213 Gd178 2.468 . S
O213 C231 1.263 . S
O214 Gd178 2.427 . S
O214 C231 1.252 . S
O215 Gd179 2.307 . S
O215 C224 1.261 1_565 S
O216 Gd178 2.388 . S
O216 C224 1.252 . S
O217 Gd178 2.386 . S
O217 C235 1.265 1_455 S
O218 Gd179 2.353 1_655 S
O218 C235 1.242 1_565 S
O219 Gd179 2.468 1_655 S
O219 C243 1.263 . S
O220 Gd179 2.427 1_655 S
O220 C243 1.252 . S
O221 Gd178 2.307 . S
O221 C236 1.261 . S
O222 Gd179 2.388 . S
O222 C236 1.252 1_565 S
C223 O211 1.265 1_545 S
C223 O212 1.242 . S
C224 O215 1.261 1_545 S
C224 O216 1.252 . S
C225 C228 1.394 . S
C225 C230 1.370 . S
C225 C231 1.500 . S
C226 C229 1.383 . S
C226 C230 1.395 . S
C227 C228 1.396 . S
C227 C229 1.365 . S
C227 H244 0.929 . S
C228 C225 1.394 . S
C228 C227 1.396 . S
C228 H245 0.930 . S
C229 C226 1.383 . S
C229 C227 1.365 . S
C229 H246 0.931 . S
C230 C225 1.370 . S
C230 C226 1.395 . S
C230 H247 0.930 . S
C231 Gd178 2.805 . S
C231 O213 1.263 . S
C231 O214 1.252 . S
C231 C225 1.500 . S
C232 H194 0.930 . S
C232 C208 1.428 . S
C232 C233 1.329 . S
C233 C203 1.437 1_655 S
C233 H204 0.929 . S
C233 C232 1.329 . S
H234 C207 0.931 . S
C235 O217 1.265 1_655 S
C235 O218 1.242 1_545 S
C236 O221 1.261 . S
C236 O222 1.252 1_545 S
C237 C240 1.394 . S
C237 C242 1.370 . S
C237 C243 1.500 . S
C238 C241 1.383 . S
C238 C242 1.395 . S
C239 C240 1.396 . S
C239 C241 1.365 . S
C239 H248 0.929 . S
C240 C237 1.394 . S
C240 C239 1.396 . S
C240 H249 0.930 . S
C241 C238 1.383 . S
C241 C239 1.365 . S
C241 H250 0.931 . S
C242 C237 1.370 . S
C242 C238 1.395 . S
C242 H251 0.930 . S
C243 Gd179 2.805 1_655 S
C243 O219 1.263 . S
C243 O220 1.252 . S
C243 C237 1.500 . S
H244 C227 0.929 . S
H245 C228 0.930 . S
H246 C229 0.931 . S
H247 C230 0.930 . S
H248 C239 0.929 . S
H249 C240 0.930 . S
H250 C241 0.931 . S
H251 C242 0.930 . S
C252 C253 1.349 1_455 S
C252 C254 1.327 . S
C252 H277 0.950 . S
C253 C252 1.349 1_655 S
C253 C269 1.349 . S
C254 C252 1.327 . S
C254 C273 1.434 . S
C254 H278 0.950 . S
C255 C272 1.582 . S
C255 C274 1.355 1_656 S
C255 H279 0.954 . S
H256 C260 0.949 . S
C257 C258 1.349 1_656 S
C257 C259 1.327 . S
C257 H280 0.950 . S
C258 C257 1.349 1_454 S
C258 C270 1.349 . S
C259 C257 1.327 . S
C259 C275 1.429 1_656 S
C259 H281 0.950 . S
C260 H256 0.949 . S
C260 C268 1.574 . S
C260 C276 1.368 . S
H261 C269 0.950 1_556 S
H262 C267 0.950 1_556 S
H263 C268 0.949 . S
H264 C270 0.950 . S
H265 C271 0.950 . S
H266 C272 0.949 . S
C267 H262 0.950 1_554 S
C267 C269 1.327 . S
C267 C273 1.425 1_655 S
C268 C260 1.574 . S
C268 H263 0.949 . S
C268 C274 1.368 . S
C269 C253 1.349 . S
C269 H261 0.950 1_554 S
C269 C267 1.327 . S
C270 C258 1.349 . S
C270 H264 0.950 . S
C270 C271 1.327 . S
C271 H265 0.950 . S
C271 C270 1.327 . S
C271 C275 1.429 . S
C272 C255 1.582 . S
C272 H266 0.949 . S
C272 C276 1.368 1_656 S
C273 C254 1.434 . S
C273 C267 1.425 1_455 S
C273 C274 1.521 . S
C274 C255 1.355 1_454 S
C274 C268 1.368 . S
C274 C273 1.521 . S
C275 C259 1.429 1_454 S
C275 C271 1.429 . S
C275 C276 1.523 . S
C276 C260 1.368 . S
C276 C272 1.368 1_454 S
C276 C275 1.523 . S
H277 C252 0.950 . S
H278 C254 0.950 . S
H279 C255 0.954 . S
H280 C257 0.950 . S
H281 C259 0.950 . S
C282 C283 1.349 . S
C282 C284 1.327 . S
C282 H307 0.950 . S
C283 C282 1.349 . S
C283 C299 1.349 . S
C284 C282 1.327 . S
C284 C303 1.429 . S
C284 H308 0.950 . S
C285 C302 1.574 . S
C285 C304 1.368 . S
C285 H309 0.949 . S
H286 C290 0.949 . S
C287 C288 1.349 . S
C287 C289 1.327 . S
C287 H310 0.950 . S
C288 C287 1.349 . S
C288 C300 1.349 . S
C289 C287 1.327 . S
C289 C305 1.429 . S
C289 H311 0.950 . S
C290 H286 0.949 . S
C290 C298 1.574 . S
C290 C306 1.368 . S
H291 C299 0.950 . S
H292 C297 0.950 . S
H293 C298 0.949 . S
H294 C300 0.950 . S
H295 C301 0.950 . S
H296 C302 0.949 . S
C297 H292 0.950 . S
C297 C299 1.327 . S
C297 C303 1.429 . S
C298 C290 1.574 . S
C298 H293 0.949 . S
C298 C304 1.368 . S
C299 C283 1.349 . S
C299 H291 0.950 . S
C299 C297 1.327 . S
C300 C288 1.349 . S
C300 H294 0.950 . S
C300 C301 1.327 . S
C301 H295 0.950 . S
C301 C300 1.327 . S
C301 C305 1.429 . S
C302 C285 1.574 . S
C302 H296 0.949 . S
C302 C306 1.368 . S
C303 C284 1.429 . S
C303 C297 1.429 . S
C303 C304 1.523 . S
C304 C285 1.368 . S
C304 C298 1.368 . S
C304 C303 1.523 . S
C305 C289 1.429 . S
C305 C301 1.429 . S
C305 C306 1.523 . S
C306 C290 1.368 . S
C306 C302 1.368 . S
C306 C305 1.523 . S
H307 C282 0.950 . S
H308 C284 0.950 . S
H309 C285 0.949 . S
H310 C287 0.950 . S
H311 C289 0.950 . S
C312 C313 1.349 . S
C312 C314 1.327 . S
C312 H337 0.950 . S
C313 C312 1.349 . S
C313 C329 1.349 . S
C314 C312 1.327 . S
C314 C333 1.429 . S
C314 H338 0.950 . S
C315 C332 1.574 . S
C315 C334 1.368 . S
C315 H339 0.949 . S
H316 C320 0.949 . S
C317 C318 1.349 . S
C317 C319 1.327 . S
C317 H340 0.950 . S
C318 C317 1.349 . S
C318 C330 1.349 . S
C319 C317 1.327 . S
C319 C335 1.429 . S
C319 H341 0.950 . S
C320 H316 0.949 . S
C320 C328 1.574 . S
C320 C336 1.368 . S
H321 C329 0.950 . S
H322 C327 0.950 . S
H323 C328 0.949 . S
H324 C330 0.950 . S
H325 C331 0.950 . S
H326 C332 0.949 . S
C327 H322 0.950 . S
C327 C329 1.327 . S
C327 C333 1.429 . S
C328 C320 1.574 . S
C328 H323 0.949 . S
C328 C334 1.368 . S
C329 C313 1.349 . S
C329 H321 0.950 . S
C329 C327 1.327 . S
C330 C318 1.349 . S
C330 H324 0.950 . S
C330 C331 1.327 . S
C331 H325 0.950 . S
C331 C330 1.327 . S
C331 C335 1.429 . S
C332 C315 1.574 . S
C332 H326 0.949 . S
C332 C336 1.368 . S
C333 C314 1.429 . S
C333 C327 1.429 . S
C333 C334 1.523 . S
C334 C315 1.368 . S
C334 C328 1.368 . S
C334 C333 1.523 . S
C335 C319 1.429 . S
C335 C331 1.429 . S
C335 C336 1.523 . S
C336 C320 1.368 . S
C336 C332 1.368 . S
C336 C335 1.523 . S
H337 C312 0.950 . S
H338 C314 0.950 . S
H339 C315 0.949 . S
H340 C317 0.950 . S
H341 C319 0.950 . S
C342 C343 1.349 . S
C342 C344 1.327 . S
C342 H367 0.950 . S
C343 C342 1.349 . S
C343 C359 1.349 1_545 S
C344 C342 1.327 . S
C344 C363 1.429 . S
C344 H368 0.950 . S
C345 C362 1.574 . S
C345 C364 1.368 1_565 S
C345 H369 0.949 . S
H346 C350 0.949 . S
C347 C348 1.349 1_565 S
C347 C349 1.327 . S
C347 H370 0.950 . S
C348 C347 1.349 1_545 S
C348 C360 1.349 . S
C349 C347 1.327 . S
C349 C365 1.429 1_565 S
C349 H371 0.950 . S
C350 H346 0.949 . S
C350 C358 1.574 . S
C350 C366 1.368 . S
H351 C359 0.950 . S
H352 C357 0.950 . S
H353 C358 0.949 . S
H354 C360 0.950 . S
H355 C361 0.950 . S
H356 C362 0.949 . S
C357 H352 0.950 . S
C357 C359 1.327 . S
C357 C363 1.429 1_565 S
C358 C350 1.574 . S
C358 H353 0.949 . S
C358 C364 1.368 . S
C359 C343 1.349 1_565 S
C359 H351 0.950 . S
C359 C357 1.327 . S
C360 C348 1.349 . S
C360 H354 0.950 . S
C360 C361 1.327 . S
C361 H355 0.950 . S
C361 C360 1.327 . S
C361 C365 1.429 . S
C362 C345 1.574 . S
C362 H356 0.949 . S
C362 C366 1.368 1_565 S
C363 C344 1.429 . S
C363 C357 1.429 1_545 S
C363 C364 1.523 . S
C364 C345 1.368 1_545 S
C364 C358 1.368 . S
C364 C363 1.523 . S
C365 C349 1.429 1_545 S
C365 C361 1.429 . S
C365 C366 1.523 . S
C366 C350 1.368 . S
C366 C362 1.368 1_545 S
C366 C365 1.523 . S
H367 C342 0.950 . S
H368 C344 0.950 . S
H369 C345 0.949 . S
H370 C347 0.950 . S
H371 C349 0.950 . S
C372 C373 1.349 . S
C372 C374 1.327 . S
C372 H397 0.950 . S
C373 C372 1.349 . S
C373 C389 1.349 . S
C374 C372 1.327 . S
C374 C393 1.429 . S
C374 H398 0.950 . S
C375 C392 1.574 1_554 S
C375 C394 1.368 . S
C375 H399 0.949 1_554 S
H376 C380 0.949 . S
C377 C378 1.349 1_556 S
C377 C379 1.327 . S
C377 H400 0.950 . S
C378 C377 1.349 1_554 S
C378 C390 1.349 . S
C379 C377 1.327 . S
C379 C395 1.429 1_556 S
C379 H401 0.950 . S
C380 H376 0.949 . S
C380 C388 1.574 . S
C380 C396 1.368 . S
H381 C389 0.950 . S
H382 C387 0.950 1_556 S
H383 C388 0.949 . S
H384 C390 0.950 . S
H385 C391 0.950 . S
H386 C392 0.949 . S
C387 H382 0.950 1_554 S
C387 C389 1.327 . S
C387 C393 1.429 . S
C388 C380 1.574 . S
C388 H383 0.949 . S
C388 C394 1.368 . S
C389 C373 1.349 . S
C389 H381 0.950 . S
C389 C387 1.327 . S
C390 C378 1.349 . S
C390 H384 0.950 . S
C390 C391 1.327 . S
C391 H385 0.950 . S
C391 C390 1.327 . S
C391 C395 1.429 . S
C392 C375 1.574 1_556 S
C392 H386 0.949 . S
C392 C396 1.368 1_556 S
C393 C374 1.429 . S
C393 C387 1.429 . S
C393 C394 1.523 . S
C394 C375 1.368 . S
C394 C388 1.368 . S
C394 C393 1.523 . S
C395 C379 1.429 1_554 S
C395 C391 1.429 . S
C395 C396 1.523 . S
C396 C380 1.368 . S
C396 C392 1.368 1_554 S
C396 C395 1.523 . S
H397 C372 0.950 . S
H398 C374 0.950 . S
H399 C375 0.949 1_556 S
H400 C377 0.950 . S
H401 C379 0.950 . S
C402 C403 1.349 . S
C402 C404 1.327 . S
C402 H427 0.950 . S
C403 C402 1.349 . S
C403 C419 1.349 1_655 S
C404 C402 1.327 . S
C404 C423 1.429 1_655 S
C404 H428 0.950 . S
C405 C422 1.574 . S
C405 C424 1.368 . S
C405 H429 0.949 . S
H406 C410 0.949 1_655 S
C407 C408 1.349 . S
C407 C409 1.327 . S
C407 H430 0.950 . S
C408 C407 1.349 . S
C408 C420 1.349 . S
C409 C407 1.327 . S
C409 C425 1.429 . S
C409 H431 0.950 . S
C410 H406 0.949 1_455 S
C410 C418 1.574 1_455 S
C410 C426 1.368 . S
H411 C419 0.950 . S
H412 C417 0.950 . S
H413 C418 0.949 . S
H414 C420 0.950 . S
H415 C421 0.953 . S
H416 C422 0.949 . S
C417 H412 0.950 . S
C417 C419 1.327 . S
C417 C423 1.429 . S
C418 C410 1.574 1_655 S
C418 H413 0.949 . S
C418 C424 1.368 1_655 S
C419 C403 1.349 1_455 S
C419 H411 0.950 . S
C419 C417 1.327 . S
C420 C408 1.349 . S
C420 H414 0.950 . S
C420 C421 1.327 . S
C421 H415 0.953 . S
C421 C420 1.327 . S
C421 C425 1.429 . S
C422 C405 1.574 . S
C422 H416 0.949 . S
C422 C426 1.368 . S
C423 C404 1.429 1_455 S
C423 C417 1.429 . S
C423 C424 1.523 . S
C424 C405 1.368 . S
C424 C418 1.368 1_455 S
C424 C423 1.523 . S
C425 C409 1.429 . S
C425 C421 1.429 . S
C425 C426 1.523 . S
C426 C410 1.368 . S
C426 C422 1.368 . S
C426 C425 1.523 . S
H427 C402 0.950 . S
H428 C404 0.950 . S
H429 C405 0.949 . S
H430 C407 0.950 . S
H431 C409 0.950 . S
C432 C433 1.349 . S
C432 C434 1.327 . S
C432 H457 0.950 . S
C433 C432 1.349 . S
C433 C449 1.349 1_455 S
C434 C432 1.327 . S
C434 C453 1.429 . S
C434 H458 0.950 . S
C435 C452 1.574 . S
C435 C454 1.368 1_655 S
C435 H459 0.949 . S
H436 C440 0.949 . S
C437 C438 1.349 . S
C437 C439 1.327 . S
C437 H460 0.950 . S
C438 C437 1.349 . S
C438 C450 1.349 1_655 S
C439 C437 1.327 . S
C439 C455 1.429 1_655 S
C439 H461 0.950 . S
C440 H436 0.949 . S
C440 C448 1.574 . S
C440 C456 1.368 . S
H441 C449 0.950 . S
H442 C447 0.950 . S
H443 C448 0.949 . S
H444 C450 0.950 . S
H445 C451 0.950 . S
H446 C452 0.949 . S
C447 H442 0.950 . S
C447 C449 1.327 . S
C447 C453 1.429 1_655 S
C448 C440 1.574 . S
C448 H443 0.949 . S
C448 C454 1.368 . S
C449 C433 1.349 1_655 S
C449 H441 0.950 . S
C449 C447 1.327 . S
C450 C438 1.349 1_455 S
C450 H444 0.950 . S
C450 C451 1.327 . S
C451 H445 0.950 . S
C451 C450 1.327 . S
C451 C455 1.429 . S
C452 C435 1.574 . S
C452 H446 0.949 . S
C452 C456 1.368 1_655 S
C453 C434 1.429 . S
C453 C447 1.429 1_455 S
C453 C454 1.523 . S
C454 C435 1.368 1_455 S
C454 C448 1.368 . S
C454 C453 1.523 . S
C455 C439 1.429 1_455 S
C455 C451 1.429 . S
C455 C456 1.523 . S
C456 C440 1.368 . S
C456 C452 1.368 1_455 S
C456 C455 1.523 . S
H457 C432 0.950 . S
H458 C434 0.950 . S
H459 C435 0.949 . S
H460 C437 0.950 . S
H461 C439 0.950 . S
C462 C463 1.349 . S
C462 C464 1.327 . S
C462 H487 0.950 . S
C463 C462 1.349 . S
C463 C479 1.349 . S
C464 C462 1.327 . S
C464 C483 1.429 . S
C464 H488 0.950 . S
C465 C482 1.574 . S
C465 C484 1.368 . S
C465 H489 0.949 . S
H466 C470 0.949 . S
C467 C468 1.349 1_565 S
C467 C469 1.327 1_565 S
C467 H490 0.950 . S
C468 C467 1.349 1_545 S
C468 C480 1.349 . S
C469 C467 1.327 1_545 S
C469 C485 1.429 . S
C469 H491 0.950 1_545 S
C470 H466 0.949 . S
C470 C478 1.574 . S
C470 C486 1.368 . S
H471 C479 0.950 . S
H472 C477 0.950 . S
H473 C478 0.949 . S
H474 C480 0.950 . S
H475 C481 0.950 . S
H476 C482 0.949 1_565 S
C477 H472 0.950 . S
C477 C479 1.327 . S
C477 C483 1.429 . S
C478 C470 1.574 . S
C478 H473 0.949 . S
C478 C484 1.368 . S
C479 C463 1.349 . S
C479 H471 0.950 . S
C479 C477 1.327 . S
C480 C468 1.349 . S
C480 H474 0.950 . S
C480 C481 1.327 . S
C481 H475 0.950 . S
C481 C480 1.327 . S
C481 C485 1.429 . S
C482 C465 1.574 . S
C482 H476 0.949 1_545 S
C482 C486 1.368 . S
C483 C464 1.429 . S
C483 C477 1.429 . S
C483 C484 1.523 . S
C484 C465 1.368 . S
C484 C478 1.368 . S
C484 C483 1.523 . S
C485 C469 1.429 . S
C485 C481 1.429 . S
C485 C486 1.523 . S
C486 C470 1.368 . S
C486 C482 1.368 . S
C486 C485 1.523 . S
H487 C462 0.950 . S
H488 C464 0.950 . S
H489 C465 0.949 . S
H490 C467 0.950 . S
H491 C469 0.950 1_565 S
C492 C493 1.349 1_565 S
C492 C494 1.327 . S
C492 H517 0.950 . S
C493 C492 1.349 1_545 S
C493 C509 1.349 . S
C494 C492 1.327 . S
C494 C513 1.429 1_565 S
C494 H518 0.950 . S
C495 C512 1.574 . S
C495 C514 1.368 . S
C495 H519 0.949 . S
H496 C500 0.949 1_565 S
C497 C498 1.349 . S
C497 C499 1.327 . S
C497 H520 0.950 . S
C498 C497 1.349 . S
C498 C510 1.349 . S
C499 C497 1.327 . S
C499 C515 1.429 . S
C499 H521 0.950 . S
C500 H496 0.949 1_545 S
C500 C508 1.574 . S
C500 C516 1.368 . S
H501 C509 0.950 . S
H502 C507 0.950 . S
H503 C508 0.949 1_565 S
H504 C510 0.950 . S
H505 C511 0.950 1_565 S
H506 C512 0.949 . S
C507 H502 0.950 . S
C507 C509 1.327 . S
C507 C513 1.429 . S
C508 C500 1.574 . S
C508 H503 0.949 1_545 S
C508 C514 1.368 . S
C509 C493 1.349 . S
C509 H501 0.950 . S
C509 C507 1.327 . S
C510 C498 1.349 . S
C510 H504 0.950 . S
C510 C511 1.327 . S
C511 H505 0.950 1_545 S
C511 C510 1.327 . S
C511 C515 1.429 . S
C512 C495 1.574 . S
C512 H506 0.949 . S
C512 C516 1.368 . S
C513 C494 1.429 1_545 S
C513 C507 1.429 . S
C513 C514 1.523 . S
C514 C495 1.368 . S
C514 C508 1.368 . S
C514 C513 1.523 . S
C515 C499 1.429 . S
C515 C511 1.429 . S
C515 C516 1.523 . S
C516 C500 1.368 . S
C516 C512 1.368 . S
C516 C515 1.523 . S
H517 C492 0.950 . S
H518 C494 0.950 . S
H519 C495 0.949 . S
H520 C497 0.950 . S
H521 C499 0.950 . S
C253 C67 4.228 . S
C258 C55 4.228 1_565 S
C283 C139 2.562 . S
C288 C151 2.562 . S
C313 C238 0.626 . S
C318 C226 0.626 . S
C343 C235 2.539 . S
C348 C223 2.539 . S
C373 C58 0.708 . S
C378 C70 0.708 . S
C403 C154 1.343 1_655 S
C408 C142 1.343 . S
C433 C140 1.519 . S
C438 C68 1.533 1_655 S
C463 C152 1.594 . S
C468 C236 1.578 . S
C493 C224 1.567 . S
C498 C56 1.574 . S
