# Generated by pormake.
# Topology uoz, (4)-cn, num edge types: 1
# Building blocks:
#     Node 0, Type 0, BuildingBlock: GALJAG_clean_sbu_0, # of connection points: 4
#     Node 1, Type 0, BuildingBlock: GALJAG_clean_sbu_0, # of connection points: 4
#     Node 2, Type 0, BuildingBlock: GALJAG_clean_sbu_0, # of connection points: 4
#     Node 3, Type 0, BuildingBlock: GALJAG_clean_sbu_0, # of connection points: 4
#     Node 4, Type 0, BuildingBlock: GALJAG_clean_sbu_0, # of connection points: 4
#     Node 5, Type 0, BuildingBlock: GALJAG_clean_sbu_0, # of connection points: 4
#     Node 6, Type 0, BuildingBlock: GALJAG_clean_sbu_0, # of connection points: 4
#     Node 7, Type 0, BuildingBlock: GALJAG_clean_sbu_0, # of connection points: 4
#     Node 8, Type 0, BuildingBlock: GALJAG_clean_sbu_0, # of connection points: 4
#     Node 9, Type 0, BuildingBlock: GALJAG_clean_sbu_0, # of connection points: 4
#     Node 10, Type 0, BuildingBlock: GALJAG_clean_sbu_0, # of connection points: 4
#     Node 11, Type 0, BuildingBlock: GALJAG_clean_sbu_0, # of connection points: 4
#     Node 12, Type 0, BuildingBlock: GALJAG_clean_sbu_0, # of connection points: 4
#     Node 13, Type 0, BuildingBlock: GALJAG_clean_sbu_0, # of connection points: 4
#     Node 14, Type 0, BuildingBlock: GALJAG_clean_sbu_0, # of connection points: 4
#     Node 15, Type 0, BuildingBlock: GALJAG_clean_sbu_0, # of connection points: 4
#     Edge 16, Type (0, 0), BuildingBlock: CIFDUS_clean_linker_0, # of connection points: 2
#     Edge 17, Type (0, 0), BuildingBlock: CIFDUS_clean_linker_0, # of connection points: 2
#     Edge 18, Type (0, 0), BuildingBlock: CIFDUS_clean_linker_0, # of connection points: 2
#     Edge 19, Type (0, 0), BuildingBlock: CIFDUS_clean_linker_0, # of connection points: 2
#     Edge 20, Type (0, 0), BuildingBlock: CIFDUS_clean_linker_0, # of connection points: 2
#     Edge 21, Type (0, 0), BuildingBlock: CIFDUS_clean_linker_0, # of connection points: 2
#     Edge 22, Type (0, 0), BuildingBlock: CIFDUS_clean_linker_0, # of connection points: 2
#     Edge 23, Type (0, 0), BuildingBlock: CIFDUS_clean_linker_0, # of connection points: 2
#     Edge 24, Type (0, 0), BuildingBlock: CIFDUS_clean_linker_0, # of connection points: 2
#     Edge 25, Type (0, 0), BuildingBlock: CIFDUS_clean_linker_0, # of connection points: 2
#     Edge 26, Type (0, 0), BuildingBlock: CIFDUS_clean_linker_0, # of connection points: 2
#     Edge 27, Type (0, 0), BuildingBlock: CIFDUS_clean_linker_0, # of connection points: 2
#     Edge 28, Type (0, 0), BuildingBlock: CIFDUS_clean_linker_0, # of connection points: 2
#     Edge 29, Type (0, 0), BuildingBlock: CIFDUS_clean_linker_0, # of connection points: 2
#     Edge 30, Type (0, 0), BuildingBlock: CIFDUS_clean_linker_0, # of connection points: 2
#     Edge 31, Type (0, 0), BuildingBlock: CIFDUS_clean_linker_0, # of connection points: 2
#     Edge 32, Type (0, 0), BuildingBlock: CIFDUS_clean_linker_0, # of connection points: 2
#     Edge 33, Type (0, 0), BuildingBlock: CIFDUS_clean_linker_0, # of connection points: 2
#     Edge 34, Type (0, 0), BuildingBlock: CIFDUS_clean_linker_0, # of connection points: 2
#     Edge 35, Type (0, 0), BuildingBlock: CIFDUS_clean_linker_0, # of connection points: 2
#     Edge 36, Type (0, 0), BuildingBlock: CIFDUS_clean_linker_0, # of connection points: 2
#     Edge 37, Type (0, 0), BuildingBlock: CIFDUS_clean_linker_0, # of connection points: 2
#     Edge 38, Type (0, 0), BuildingBlock: CIFDUS_clean_linker_0, # of connection points: 2
#     Edge 39, Type (0, 0), BuildingBlock: CIFDUS_clean_linker_0, # of connection points: 2
#     Edge 40, Type (0, 0), BuildingBlock: CIFDUS_clean_linker_0, # of connection points: 2
#     Edge 41, Type (0, 0), BuildingBlock: CIFDUS_clean_linker_0, # of connection points: 2
#     Edge 42, Type (0, 0), BuildingBlock: CIFDUS_clean_linker_0, # of connection points: 2
#     Edge 43, Type (0, 0), BuildingBlock: CIFDUS_clean_linker_0, # of connection points: 2
#     Edge 44, Type (0, 0), BuildingBlock: CIFDUS_clean_linker_0, # of connection points: 2
#     Edge 45, Type (0, 0), BuildingBlock: CIFDUS_clean_linker_0, # of connection points: 2
#     Edge 46, Type (0, 0), BuildingBlock: CIFDUS_clean_linker_0, # of connection points: 2
#     Edge 47, Type (0, 0), BuildingBlock: CIFDUS_clean_linker_0, # of connection points: 2
# Relax obj value: 0.135
# Max RMSD: 0.159
# Mean RMSD: 0.159
data_MOF--net-uoz--node1-GALJAG_clean_sbu_0--edge1-CIFDUS_clean_linker_0
_symmetry_space_group_name_H-M    P1
_symmetry_Int_Tables_number       1
_symmetry_cell_setting            triclinic
loop_
_symmetry_equiv_pos_as_xyz
'x, y, z'
_cell_length_a     55.948132
_cell_length_b     55.914751
_cell_length_c     16.674119
_cell_angle_alpha  90.00128
_cell_angle_beta   90.056526
_cell_angle_gamma 89.989268
loop_
_atom_site_label
_atom_site_type_symbol
_atom_site_fract_x
_atom_site_fract_y
_atom_site_fract_z
_atom_type_partial_charge
In0 In 0.99829 0.59406 0.29039 0.0
O1 O 0.97679 0.56581 0.22612 0.0
O2 O 0.01404 0.56826 0.20085 0.0
C3 C 0.96328 0.62324 0.2374 0.0
C4 C 1.00159 0.56577 0.42314 0.0
C5 C 0.03425 0.62515 0.26466 0.0
O6 O 0.97753 0.61212 0.1925 0.0
O7 O 0.96629 0.61964 0.31192 0.0
O8 O 0.01798 0.62928 0.31575 0.0
O9 O 0.03315 0.60482 0.23197 0.0
C10 C 0.99444 0.55781 0.18774 0.0
O11 O 0.01934 0.5764 0.39319 0.0
O12 O 0.98186 0.57175 0.39251 0.0
In13 In 0.66002 0.75188 0.53268 0.0
O14 O 0.68466 0.7515 0.42619 0.0
O15 O 0.68962 0.77883 0.5151 0.0
C16 C 0.63132 0.71432 0.50062 0.0
C17 C 0.6876 0.74207 0.66222 0.0
C18 C 0.62999 0.78655 0.48278 0.0
O19 O 0.6512 0.71726 0.46611 0.0
O20 O 0.62702 0.72911 0.5561 0.0
O21 O 0.63385 0.78315 0.55702 0.0
O22 O 0.64134 0.77285 0.43666 0.0
C23 C 0.6963 0.76959 0.44976 0.0
O24 O 0.66958 0.7558 0.667 0.0
O25 O 0.69022 0.73207 0.59497 0.0
In26 In 0.51241 0.41593 0.7513 0.0
O27 O 0.52641 0.43085 0.6332 0.0
O28 O 0.50337 0.45252 0.70391 0.0
C29 C 0.54894 0.38458 0.74401 0.0
C30 C 0.51154 0.44362 0.88554 0.0
C31 C 0.47489 0.38992 0.69827 0.0
O32 O 0.55182 0.40679 0.73488 0.0
O33 O 0.52803 0.37835 0.76345 0.0
O34 O 0.48024 0.39083 0.77212 0.0
O35 O 0.48784 0.40259 0.6535 0.0
C36 C 0.51569 0.45051 0.6413 0.0
O37 O 0.49295 0.43837 0.8464 0.0
O38 O 0.53004 0.43261 0.86274 0.0
In39 In 0.84405 0.25031 0.02864 0.0
O40 O 0.8168 0.27268 0.96121 0.0
O41 O 0.81501 0.23468 0.95191 0.0
C42 C 0.87518 0.28604 0.99813 0.0
C43 C 0.81573 0.2496 0.16142 0.0
C44 C 0.87211 0.21332 0.98243 0.0
O45 O 0.86052 0.27812 0.94726 0.0
O46 O 0.87397 0.27626 0.06657 0.0
O47 O 0.87255 0.22101 0.05397 0.0
O48 O 0.85737 0.22378 0.93761 0.0
C49 C 0.80622 0.25464 0.93273 0.0
O50 O 0.81987 0.23122 0.11988 0.0
O51 O 0.82797 0.26761 0.14153 0.0
In52 In 0.00255 0.41174 0.7887 0.0
O53 O 0.01898 0.43334 0.68452 0.0
O54 O 0.98124 0.43112 0.69108 0.0
C55 C 0.03769 0.38263 0.84205 0.0
C56 C 0.00556 0.44918 0.88616 0.0
C57 C 0.96634 0.3809 0.81299 0.0
O58 O 0.03291 0.38404 0.76773 0.0
O59 O 0.02525 0.39597 0.88603 0.0
O60 O 0.97152 0.39757 0.86089 0.0
O61 O 0.97884 0.38025 0.74963 0.0
C62 C 0.99911 0.44063 0.65788 0.0
O63 O 0.98611 0.43825 0.87441 0.0
O64 O 0.02342 0.44102 0.8491 0.0
In65 In 0.83464 0.75177 0.06321 0.0
O66 O 0.81332 0.75564 0.17637 0.0
O67 O 0.80658 0.78054 0.0815 0.0
C68 C 0.85806 0.71126 0.10411 0.0
C69 C 0.80441 0.74168 0.94015 0.0
C70 C 0.86893 0.78496 0.09011 0.0
O71 O 0.84025 0.71903 0.14228 0.0
O72 O 0.86308 0.72299 0.04156 0.0
O73 O 0.8621 0.77993 0.01956 0.0
O74 O 0.85845 0.77346 0.14444 0.0
C75 C 0.80148 0.77336 0.15122 0.0
O76 O 0.82416 0.75227 0.9288 0.0
O77 O 0.80096 0.73495 0.01134 0.0
In78 In 0.50499 0.59761 0.25114 0.0
O79 O 0.51236 0.5867 0.38044 0.0
O80 O 0.49759 0.56088 0.30084 0.0
C81 C 0.54389 0.62632 0.26498 0.0
C82 C 0.50403 0.56864 0.11973 0.0
C83 C 0.46619 0.62455 0.28556 0.0
O84 O 0.54519 0.60388 0.26795 0.0
O85 O 0.52337 0.63428 0.24876 0.0
O86 O 0.47645 0.62565 0.21785 0.0
O87 O 0.47489 0.60931 0.33306 0.0
C88 C 0.50538 0.56553 0.36985 0.0
O89 O 0.48584 0.57996 0.14367 0.0
O90 O 0.52301 0.57408 0.15621 0.0
In91 In 0.66125 0.24682 0.53053 0.0
O92 O 0.67868 0.22868 0.42074 0.0
O93 O 0.68787 0.26462 0.44409 0.0
C94 C 0.62991 0.21249 0.57443 0.0
C95 C 0.69507 0.2421 0.64208 0.0
C96 C 0.63156 0.28475 0.54609 0.0
O97 O 0.63391 0.21737 0.50146 0.0
O98 O 0.64182 0.22468 0.6239 0.0
O99 O 0.65083 0.28256 0.5843 0.0
O100 O 0.62781 0.2685 0.4948 0.0
C101 C 0.69189 0.24617 0.403 0.0
O102 O 0.6853 0.26185 0.62618 0.0
O103 O 0.68744 0.22445 0.60244 0.0
In104 In 0.34363 0.25965 0.54061 0.0
O105 O 0.32734 0.27622 0.42588 0.0
O106 O 0.31769 0.2407 0.45535 0.0
C107 C 0.37238 0.29629 0.584 0.0
C108 C 0.30689 0.26181 0.64061 0.0
C109 C 0.37389 0.22327 0.57469 0.0
O110 O 0.37359 0.28716 0.51449 0.0
O111 O 0.35645 0.28748 0.6282 0.0
O112 O 0.3594 0.23207 0.62411 0.0
O113 O 0.37286 0.23233 0.5051 0.0
C114 C 0.31401 0.25852 0.41079 0.0
O115 O 0.31526 0.28024 0.60714 0.0
O116 O 0.31725 0.24239 0.62385 0.0
In117 In 0.16276 0.74536 0.05347 0.0
O118 O 0.18801 0.72939 0.9594 0.0
O119 O 0.17852 0.76566 0.94436 0.0
C120 C 0.1308 0.70894 0.05386 0.0
C121 C 0.19691 0.74301 0.16514 0.0
C122 C 0.13586 0.78099 0.11558 0.0
O123 O 0.12485 0.73021 0.0386 0.0
O124 O 0.15296 0.70574 0.06142 0.0
O125 O 0.14818 0.76686 0.15769 0.0
O126 O 0.13746 0.77765 0.0405 0.0
C127 C 0.19156 0.74853 0.9215 0.0
O128 O 0.1952 0.76021 0.11658 0.0
O129 O 0.18083 0.72733 0.1592 0.0
In130 In 0.16152 0.24938 0.03817 0.0
O131 O 0.18604 0.26942 0.12586 0.0
O132 O 0.17678 0.23396 0.15621 0.0
C133 C 0.13406 0.28497 0.97865 0.0
C134 C 0.19772 0.24571 0.93614 0.0
C135 C 0.12934 0.21423 0.01384 0.0
O136 O 0.13485 0.28062 0.0533 0.0
O137 O 0.1473 0.27185 0.93641 0.0
O138 O 0.14994 0.21422 0.98334 0.0
O139 O 0.12543 0.23116 0.06256 0.0
C140 C 0.18962 0.25194 0.17186 0.0
O141 O 0.18813 0.22746 0.96687 0.0
O142 O 0.18883 0.26551 0.95663 0.0
In143 In 0.34614 0.74991 0.54975 0.0
O144 O 0.32889 0.73171 0.6597 0.0
O145 O 0.31866 0.76727 0.63488 0.0
C146 C 0.37469 0.71345 0.50158 0.0
C147 C 0.3137 0.74933 0.43242 0.0
C148 C 0.37751 0.78684 0.54612 0.0
O149 O 0.37172 0.71853 0.57491 0.0
O150 O 0.36308 0.72645 0.45366 0.0
O151 O 0.35651 0.78823 0.51945 0.0
O152 O 0.38215 0.76746 0.5818 0.0
C153 C 0.31512 0.74885 0.67665 0.0
O154 O 0.32907 0.76569 0.43893 0.0
O155 O 0.31521 0.73282 0.48378 0.0
In156 In 0.49736 0.09737 0.81472 0.0
O157 O 0.51755 0.07853 0.91725 0.0
O158 O 0.48034 0.07245 0.90855 0.0
C159 C 0.53534 0.12545 0.78286 0.0
C160 C 0.49254 0.06182 0.71014 0.0
C161 C 0.463 0.1298 0.78009 0.0
O162 O 0.52405 0.12703 0.84854 0.0
O163 O 0.52801 0.10926 0.73632 0.0
O164 O 0.47372 0.1174 0.72857 0.0
O165 O 0.46926 0.12575 0.85196 0.0
C166 C 0.49976 0.06677 0.94189 0.0
O167 O 0.4748 0.07152 0.7435 0.0
O168 O 0.51268 0.07032 0.72898 0.0
In169 In 0.00219 0.90608 0.29747 0.0
O170 O 0.98479 0.93122 0.3894 0.0
O171 O 0.02105 0.92209 0.40828 0.0
C172 C 0.96684 0.87403 0.2709 0.0
C173 C 0.99786 0.94318 0.19901 0.0
C174 C 0.03995 0.8796 0.24772 0.0
O175 O 0.97585 0.87677 0.34009 0.0
O176 O 0.97543 0.88749 0.21791 0.0
O177 O 0.03061 0.8961 0.20702 0.0
O178 O 0.03082 0.87672 0.31655 0.0
C179 C 0.00357 0.93497 0.42919 0.0
O180 O 0.0177 0.93704 0.22875 0.0
O181 O 0.98025 0.9303 0.2181 0.0
In182 In 0.49765 0.91484 0.31378 0.0
O183 O 0.51584 0.93724 0.21553 0.0
O184 O 0.4791 0.93004 0.20097 0.0
C185 C 0.53217 0.885 0.36605 0.0
C186 C 0.5016 0.95113 0.41639 0.0
C187 C 0.46009 0.886 0.34394 0.0
O188 O 0.52688 0.88644 0.29209 0.0
O189 O 0.52026 0.89856 0.41123 0.0
O190 O 0.46001 0.90805 0.36009 0.0
O191 O 0.47851 0.87865 0.30752 0.0
C192 C 0.49702 0.94164 0.17682 0.0
O193 O 0.48188 0.94098 0.40273 0.0
O194 O 0.51925 0.9427 0.37911 0.0
In195 In 0.00673 0.08903 0.80131 0.0
O196 O 0.02474 0.07129 0.90737 0.0
O197 O 0.99038 0.05876 0.87188 0.0
C198 C 0.04375 0.12015 0.79946 0.0
C199 C 0.00342 0.05878 0.67289 0.0
C200 C 0.97169 0.11723 0.86012 0.0
O201 O 0.04643 0.098 0.80903 0.0
O202 O 0.02266 0.1265 0.78334 0.0
O203 O 0.97503 0.11488 0.78523 0.0
O204 O 0.98563 0.10514 0.90364 0.0
C205 C 0.00795 0.05667 0.91877 0.0
O206 O 0.98648 0.07241 0.6933 0.0
O207 O 0.02241 0.06227 0.71154 0.0
H208 H 0.091 0.7157 0.14211 0.0
H209 H 0.13298 0.66097 0.02716 0.0
H210 H 0.10708 0.62999 0.08438 0.0
H211 H 0.07307 0.61858 0.16967 0.0
H212 H 0.03298 0.67325 0.29309 0.0
H213 H 0.05791 0.70418 0.23167 0.0
C214 C 0.09414 0.69699 0.12843 0.0
C215 C 0.11344 0.69055 0.07893 0.0
C216 C 0.07987 0.67932 0.16459 0.0
C217 C 0.11793 0.66627 0.06392 0.0
C218 C 0.10328 0.64861 0.0972 0.0
C219 C 0.06993 0.63726 0.18373 0.0
C220 C 0.05123 0.6436 0.23609 0.0
C221 C 0.08436 0.65492 0.14835 0.0
C222 C 0.0474 0.66787 0.25368 0.0
C223 C 0.0615 0.68558 0.21794 0.0
H224 H 0.56113 0.85402 0.28498 0.0
H225 H 0.54376 0.87878 0.52296 0.0
H226 H 0.57256 0.85098 0.58083 0.0
H227 H 0.60238 0.81887 0.56449 0.0
H228 H 0.61981 0.79446 0.32605 0.0
H229 H 0.59155 0.82271 0.26843 0.0
C230 C 0.56372 0.85336 0.34942 0.0
C231 C 0.55028 0.86842 0.39936 0.0
C232 C 0.58038 0.8373 0.3826 0.0
C233 C 0.55387 0.86736 0.4829 0.0
C234 C 0.57034 0.85144 0.51626 0.0
C235 C 0.60002 0.81983 0.50001 0.0
C236 C 0.61317 0.80453 0.44993 0.0
C237 C 0.58365 0.83622 0.46679 0.0
C238 C 0.60992 0.806 0.36629 0.0
C239 C 0.59371 0.82216 0.33302 0.0
H240 H 0.43905 0.36687 0.77776 0.0
H241 H 0.4691 0.37731 0.54224 0.0
H242 H 0.44002 0.34966 0.48497 0.0
H243 H 0.40657 0.3214 0.5021 0.0
H244 H 0.37564 0.31228 0.73711 0.0
H245 H 0.40424 0.34043 0.79357 0.0
C246 C 0.43913 0.36315 0.71392 0.0
C247 C 0.45624 0.37406 0.66454 0.0
C248 C 0.42214 0.34739 0.68098 0.0
C249 C 0.45605 0.36919 0.58171 0.0
C250 C 0.43945 0.35332 0.54878 0.0
C251 C 0.40603 0.32571 0.56549 0.0
C252 C 0.38906 0.31465 0.61516 0.0
C253 C 0.42249 0.34216 0.59786 0.0
C254 C 0.38852 0.32051 0.69729 0.0
C255 C 0.40493 0.3366 0.72989 0.0
H256 H 0.90572 0.18665 0.0625 0.0
H257 H 0.87486 0.19819 0.82833 0.0
H258 H 0.90248 0.16952 0.76978 0.0
H259 H 0.93634 0.14186 0.78336 0.0
H260 H 0.96684 0.12937 0.01732 0.0
H261 H 0.9386 0.15744 0.07705 0.0
C262 C 0.90498 0.18275 0.99884 0.0
C263 C 0.88828 0.19465 0.95008 0.0
C264 C 0.92097 0.16606 0.96509 0.0
C265 C 0.88753 0.18934 0.86753 0.0
C266 C 0.90337 0.17294 0.8337 0.0
C267 C 0.93673 0.14523 0.84741 0.0
C268 C 0.95373 0.1336 0.89557 0.0
C269 C 0.92031 0.16132 0.88166 0.0
C270 C 0.95392 0.13808 0.97867 0.0
C271 C 0.93779 0.15418 0.01303 0.0
H272 H 0.0693 0.35275 0.7657 0.0
H273 H 0.04609 0.37565 0.00026 0.0
H274 H 0.07391 0.34808 0.06345 0.0
H275 H 0.1043 0.31657 0.05328 0.0
H276 H 0.12822 0.29388 0.81949 0.0
H277 H 0.10097 0.3221 0.75561 0.0
C278 C 0.07043 0.35173 0.83053 0.0
C279 C 0.05556 0.36621 0.87788 0.0
C280 C 0.08665 0.33579 0.86708 0.0
C281 C 0.0573 0.36473 0.96204 0.0
C282 C 0.07322 0.34892 0.99854 0.0
C283 C 0.10361 0.3179 0.98843 0.0
C284 C 0.11822 0.30309 0.94145 0.0
C285 C 0.0879 0.33424 0.9518 0.0
C286 C 0.11715 0.30507 0.85731 0.0
C287 C 0.10153 0.3212 0.82052 0.0
H288 H 0.94886 0.8641 0.12384 0.0
H289 H 0.9427 0.84416 0.37303 0.0
H290 H 0.91177 0.81491 0.33821 0.0
H291 H 0.88671 0.79513 0.23714 0.0
H292 H 0.89325 0.81464 0.98768 0.0
H293 H 0.924 0.84408 0.02256 0.0
C294 C 0.94074 0.85339 0.1707 0.0
C295 C 0.94803 0.85634 0.25111 0.0
C296 C 0.92313 0.83658 0.15011 0.0
C297 C 0.9374 0.84225 0.31087 0.0
C298 C 0.91974 0.82554 0.29091 0.0
C299 C 0.89484 0.80582 0.19024 0.0
C300 C 0.88767 0.80273 0.10978 0.0
C301 C 0.9125 0.82257 0.21077 0.0
C302 C 0.89844 0.81667 0.0499 0.0
C303 C 0.916 0.83349 0.0699 0.0
H304 H 0.3885 0.70457 0.34816 0.0
H305 H 0.39787 0.67972 0.59117 0.0
H306 H 0.42586 0.64913 0.54456 0.0
H307 H 0.44868 0.6304 0.43571 0.0
H308 H 0.44092 0.65634 0.1934 0.0
H309 H 0.41112 0.68548 0.23869 0.0
C310 C 0.39657 0.69237 0.3909 0.0
C311 C 0.39108 0.69441 0.47313 0.0
C312 C 0.41292 0.67505 0.36375 0.0
C313 C 0.4018 0.67856 0.5277 0.0
C314 C 0.4178 0.66106 0.50103 0.0
C315 C 0.44032 0.64228 0.39256 0.0
C316 C 0.44695 0.64113 0.31112 0.0
C317 C 0.42361 0.65926 0.41933 0.0
C318 C 0.4361 0.65681 0.25629 0.0
C319 C 0.41911 0.67351 0.28224 0.0
H320 H 0.61388 0.20482 0.72577 0.0
H321 H 0.60664 0.17934 0.48266 0.0
H322 H 0.57759 0.14943 0.52701 0.0
H323 H 0.55377 0.13112 0.63415 0.0
H324 H 0.55945 0.15776 0.87625 0.0
H325 H 0.58978 0.18661 0.83307 0.0
C326 C 0.606 0.19266 0.68249 0.0
C327 C 0.61244 0.19425 0.60098 0.0
C328 C 0.5891 0.17575 0.7083 0.0
C329 C 0.60196 0.1785 0.54563 0.0
C330 C 0.58539 0.16138 0.571 0.0
C331 C 0.56176 0.14312 0.67768 0.0
C332 C 0.55448 0.14222 0.75847 0.0
C333 C 0.57878 0.15991 0.65209 0.0
C334 C 0.5648 0.15807 0.81385 0.0
C335 C 0.5821 0.17457 0.78912 0.0
H336 H 0.95035 0.36952 0.96097 0.0
H337 H 0.94216 0.35109 0.71127 0.0
H338 H 0.91265 0.32049 0.74697 0.0
H339 H 0.88961 0.29882 0.84943 0.0
H340 H 0.9 0.31532 0.09976 0.0
H341 H 0.92838 0.3469 0.06368 0.0
C342 C 0.94198 0.3589 0.9143 0.0
C343 C 0.94819 0.36269 0.83346 0.0
C344 C 0.92557 0.34099 0.93552 0.0
C345 C 0.93757 0.34853 0.77379 0.0
C346 C 0.92074 0.33106 0.79423 0.0
C347 C 0.89805 0.30938 0.89609 0.0
C348 C 0.89262 0.30489 0.97718 0.0
C349 C 0.91466 0.32711 0.87491 0.0
C350 C 0.90391 0.31846 0.03702 0.0
C351 C 0.92008 0.33652 0.01636 0.0
H352 H 0.45256 0.14395 0.62902 0.0
H353 H 0.43306 0.15613 0.87602 0.0
H354 H 0.40331 0.18571 0.83325 0.0
H355 H 0.38321 0.20815 0.72577 0.0
H356 H 0.40374 0.19687 0.47923 0.0
H357 H 0.43284 0.16667 0.52187 0.0
C358 C 0.44178 0.15302 0.67367 0.0
C359 C 0.44495 0.14779 0.75573 0.0
C360 C 0.42495 0.17009 0.64864 0.0
C361 C 0.43095 0.15983 0.81265 0.0
C362 C 0.41395 0.17671 0.78814 0.0
C363 C 0.39397 0.19902 0.68121 0.0
C364 C 0.39125 0.20465 0.59925 0.0
C365 C 0.41083 0.18197 0.70633 0.0
C366 C 0.40548 0.19283 0.5425 0.0
C367 C 0.4221 0.17559 0.56693 0.0
H368 H 0.53923 0.66253 0.36931 0.0
H369 H 0.59177 0.62304 0.235 0.0
H370 H 0.62394 0.64633 0.29811 0.0
H371 H 0.63689 0.678 0.39254 0.0
H372 H 0.58393 0.71443 0.53556 0.0
H373 H 0.55219 0.69192 0.46958 0.0
C374 C 0.55773 0.65933 0.35303 0.0
C375 C 0.56322 0.64166 0.29609 0.0
C376 C 0.57603 0.6719 0.3924 0.0
C377 C 0.58722 0.63694 0.27759 0.0
C378 C 0.60556 0.6501 0.31412 0.0
C379 C 0.61842 0.68076 0.40991 0.0
C380 C 0.61281 0.69788 0.46894 0.0
C381 C 0.60018 0.66755 0.37206 0.0
C382 C 0.58879 0.70124 0.49085 0.0
C383 C 0.57058 0.68854 0.45258 0.0
H384 H 0.11201 0.81765 0.04262 0.0
H385 H 0.12343 0.78431 0.27277 0.0
H386 H 0.09529 0.81199 0.33499 0.0
H387 H 0.0662 0.84498 0.32354 0.0
H388 H 0.0559 0.87912 0.09402 0.0
H389 H 0.08473 0.85208 0.03273 0.0
C390 C 0.10841 0.81654 0.10641 0.0
C391 C 0.11973 0.79887 0.15275 0.0
C392 C 0.09232 0.8327 0.1422 0.0
C393 C 0.11498 0.79776 0.23555 0.0
C394 C 0.09883 0.81356 0.27131 0.0
C395 C 0.0704 0.84657 0.26029 0.0
C396 C 0.05881 0.86399 0.21356 0.0
C397 C 0.08722 0.831 0.22517 0.0
C398 C 0.06455 0.86589 0.13161 0.0
C399 C 0.08102 0.85037 0.09626 0.0
H400 H 0.92164 0.63943 0.30545 0.0
H401 H 0.96423 0.64324 0.09022 0.0
H402 H 0.9349 0.66949 0.02806 0.0
H403 H 0.89768 0.6923 0.03513 0.0
H404 H 0.85409 0.68819 0.24786 0.0
H405 H 0.88289 0.66095 0.30974 0.0
C406 C 0.92445 0.6461 0.24512 0.0
C407 C 0.94514 0.63951 0.2028 0.0
C408 C 0.9072 0.66099 0.20876 0.0
C409 C 0.94845 0.64803 0.1242 0.0
C410 C 0.93167 0.66305 0.08839 0.0
C411 C 0.89432 0.68521 0.09462 0.0
C412 C 0.87378 0.69228 0.13669 0.0
C413 C 0.91101 0.66968 0.13004 0.0
C414 C 0.86973 0.68295 0.21389 0.0
C415 C 0.88628 0.66748 0.24963 0.0
H416 H 0.03769 0.16041 0.88602 0.0
H417 H 0.09162 0.11671 0.77415 0.0
H418 H 0.12308 0.14165 0.83317 0.0
H419 H 0.1351 0.17514 0.91969 0.0
H420 H 0.08119 0.21714 0.03958 0.0
H421 H 0.04979 0.19323 0.97611 0.0
C422 C 0.05634 0.15673 0.87329 0.0
C423 C 0.06244 0.13719 0.82426 0.0
C424 C 0.07425 0.17043 0.91053 0.0
C425 C 0.08661 0.13196 0.8105 0.0
C426 C 0.10454 0.14606 0.84486 0.0
C427 C 0.11647 0.17892 0.93257 0.0
C428 C 0.11048 0.19784 0.98455 0.0
C429 C 0.09856 0.16513 0.89584 0.0
C430 C 0.08628 0.20252 0.00051 0.0
C431 C 0.06832 0.18901 0.96358 0.0
H432 H 0.63868 0.3247 0.63498 0.0
H433 H 0.58378 0.28464 0.51257 0.0
H434 H 0.55314 0.31094 0.56909 0.0
H435 H 0.54191 0.34478 0.65611 0.0
H436 H 0.59695 0.38673 0.76968 0.0
H437 H 0.62766 0.35995 0.71533 0.0
C438 C 0.62002 0.32191 0.6199 0.0
C439 C 0.61349 0.30276 0.56958 0.0
C440 C 0.60255 0.33713 0.65244 0.0
C441 C 0.58928 0.29938 0.55047 0.0
C442 C 0.57174 0.31426 0.58346 0.0
C443 C 0.56063 0.34777 0.66985 0.0
C444 C 0.56725 0.36724 0.71841 0.0
C445 C 0.57815 0.33297 0.63539 0.0
C446 C 0.59153 0.37156 0.73358 0.0
C447 C 0.60904 0.35638 0.70202 0.0
H448 H 0.37078 0.83107 0.48273 0.0
H449 H 0.42594 0.7814 0.55321 0.0
H450 H 0.45625 0.80699 0.49164 0.0
H451 H 0.46691 0.84277 0.41263 0.0
H452 H 0.4122 0.89377 0.35065 0.0
H453 H 0.38176 0.8682 0.4125 0.0
C454 C 0.38948 0.82603 0.48571 0.0
C455 C 0.39609 0.80436 0.52257 0.0
C456 C 0.4068 0.84082 0.45007 0.0
C457 C 0.42039 0.79808 0.52592 0.0
C458 C 0.43771 0.81258 0.48991 0.0
C459 C 0.44825 0.84806 0.41192 0.0
C460 C 0.4416 0.86975 0.37555 0.0
C461 C 0.43107 0.83376 0.45053 0.0
C462 C 0.41757 0.87692 0.37724 0.0
C463 C 0.40024 0.86241 0.41304 0.0
H464 H 0.0299 0.53765 0.10213 0.0
H465 H 0.95424 0.53284 0.15028 0.0
H466 H 0.951 0.49859 0.06008 0.0
H467 H 0.96981 0.46993 0.96914 0.0
H468 H 0.0455 0.47474 0.9215 0.0
H469 H 0.04862 0.50925 0.01045 0.0
C470 C 0.01271 0.52912 0.09271 0.0
C471 C 0.99236 0.5376 0.13248 0.0
C472 C 0.011 0.50951 0.04125 0.0
C473 C 0.97016 0.5265 0.12005 0.0
C474 C 0.96829 0.50696 0.06867 0.0
C475 C 0.98696 0.47856 0.97828 0.0
C476 C 0.00738 0.46991 0.93929 0.0
C477 C 0.98862 0.4983 0.02926 0.0
C478 C 0.02953 0.48117 0.95122 0.0
C479 C 0.03134 0.50086 0.00191 0.0
H480 H 0.79827 0.78061 0.30986 0.0
H481 H 0.75815 0.78407 0.08942 0.0
H482 H 0.72073 0.78614 0.16492 0.0
H483 H 0.69978 0.77942 0.29277 0.0
H484 H 0.73986 0.77762 0.51342 0.0
H485 H 0.77724 0.78274 0.43905 0.0
C486 C 0.78132 0.78263 0.27884 0.0
C487 C 0.78063 0.78191 0.19498 0.0
C488 C 0.76005 0.78372 0.32251 0.0
C489 C 0.75885 0.78469 0.15435 0.0
C490 C 0.73752 0.7856 0.19736 0.0
C491 C 0.71672 0.78077 0.3242 0.0
C492 C 0.71749 0.77781 0.40745 0.0
C493 C 0.73792 0.78395 0.28125 0.0
C494 C 0.73919 0.77985 0.44888 0.0
C495 C 0.76046 0.78264 0.4065 0.0
H496 H 0.51418 0.51918 0.34496 0.0
H497 H 0.50159 0.57116 0.53124 0.0
H498 H 0.50415 0.53966 0.63321 0.0
H499 H 0.5089 0.4973 0.66758 0.0
H500 H 0.52429 0.44587 0.48179 0.0
H501 H 0.52201 0.47741 0.38026 0.0
C502 C 0.51196 0.52351 0.40798 0.0
C503 C 0.50737 0.54713 0.43134 0.0
C504 C 0.51409 0.50556 0.46563 0.0
C505 C 0.50503 0.55291 0.5127 0.0
C506 C 0.50648 0.53499 0.57061 0.0
C507 C 0.51186 0.4931 0.60481 0.0
C508 C 0.51652 0.46949 0.58138 0.0
C509 C 0.51086 0.51127 0.54754 0.0
C510 C 0.5207 0.46407 0.50055 0.0
C511 C 0.51928 0.482 0.44275 0.0
H512 H 0.78197 0.21821 0.86561 0.0
H513 H 0.78309 0.29519 0.88575 0.0
H514 H 0.74776 0.29791 0.79984 0.0
H515 H 0.71739 0.27841 0.71715 0.0
H516 H 0.71689 0.20148 0.69464 0.0
H517 H 0.75129 0.19869 0.78459 0.0
C518 C 0.77447 0.23559 0.85125 0.0
C519 C 0.78504 0.25648 0.88145 0.0
C520 C 0.75435 0.23699 0.80192 0.0
C521 C 0.7752 0.27888 0.86273 0.0
C522 C 0.75504 0.28044 0.81386 0.0
C523 C 0.72472 0.26102 0.7324 0.0
C524 C 0.71476 0.24017 0.69962 0.0
C525 C 0.74457 0.25961 0.78296 0.0
C526 C 0.72438 0.21776 0.71934 0.0
C527 C 0.74401 0.21616 0.7705 0.0
H528 H 0.22004 0.28269 0.86623 0.0
H529 H 0.22057 0.20564 0.88311 0.0
H530 H 0.25485 0.2039 0.79233 0.0
H531 H 0.28451 0.22443 0.7094 0.0
H532 H 0.28364 0.30151 0.69287 0.0
H533 H 0.24939 0.30312 0.78323 0.0
C534 C 0.22764 0.2655 0.84997 0.0
C535 C 0.21795 0.24432 0.88096 0.0
C536 C 0.24717 0.26468 0.79831 0.0
C537 C 0.22786 0.22216 0.85967 0.0
C538 C 0.24739 0.22117 0.80801 0.0
C539 C 0.27681 0.24156 0.72571 0.0
C540 C 0.28645 0.26282 0.69498 0.0
C541 C 0.25719 0.24234 0.77721 0.0
C542 C 0.2764 0.28493 0.71605 0.0
C543 C 0.25688 0.28586 0.76754 0.0
H544 H 0.27591 0.71957 0.4209 0.0
H545 H 0.30826 0.78173 0.31231 0.0
H546 H 0.27449 0.78541 0.22036 0.0
H547 H 0.23555 0.77154 0.17348 0.0
H548 H 0.20299 0.70949 0.28193 0.0
H549 H 0.23714 0.70529 0.37241 0.0
C550 C 0.27563 0.73379 0.37663 0.0
C551 C 0.29443 0.75035 0.37306 0.0
C552 C 0.25611 0.73596 0.32483 0.0
C553 C 0.29391 0.76877 0.3159 0.0
C554 C 0.27461 0.77094 0.26361 0.0
C555 C 0.23589 0.75716 0.21718 0.0
C556 C 0.21686 0.74092 0.22164 0.0
C557 C 0.25554 0.75477 0.26818 0.0
C558 C 0.2175 0.72225 0.27787 0.0
C559 C 0.237 0.7198 0.32931 0.0
H560 H 0.46588 0.97461 0.49103 0.0
H561 H 0.54255 0.97341 0.46179 0.0
H562 H 0.54641 0.00806 0.54976 0.0
H563 H 0.52802 0.03846 0.63451 0.0
H564 H 0.45136 0.03993 0.66359 0.0
H565 H 0.44743 0.0053 0.57526 0.0
C566 C 0.48342 0.98192 0.50418 0.0
C567 C 0.50389 0.97158 0.47049 0.0
C568 C 0.48548 1.00184 0.5542 0.0
C569 C 0.52653 0.98117 0.48737 0.0
C570 C 0.52876 1.00095 0.53745 0.0
C571 C 0.51045 0.03123 0.62131 0.0
C572 C 0.49002 0.04159 0.65518 0.0
C573 C 0.50835 0.01141 0.57101 0.0
C574 C 0.46735 0.03215 0.63787 0.0
C575 C 0.46508 0.01238 0.58764 0.0
H576 H 0.97334 0.02518 0.95629 0.0
H577 H 0.04538 0.04619 0.01693 0.0
H578 H 0.0484 0.01282 0.11087 0.0
H579 H 0.03113 0.97688 0.17084 0.0
H580 H 0.95904 0.95597 0.11062 0.0
H581 H 0.95544 0.99028 0.02071 0.0
C582 C 0.98963 0.02252 0.99047 0.0
C583 C 0.00915 0.03789 0.97969 0.0
C584 C 0.99127 0.00333 0.04371 0.0
C585 C 0.03014 0.03445 0.02442 0.0
C586 C 0.0319 0.01539 0.07781 0.0
C587 C 0.01465 0.97987 0.13798 0.0
C588 C 0.99546 0.96396 0.14641 0.0
C589 C 0.01269 0.99957 0.08702 0.0
C590 C 0.97407 0.96804 0.10454 0.0
C591 C 0.972 0.9876 0.0533 0.0
H592 H 0.03256 0.47482 0.62495 0.0
H593 H 0.95957 0.45491 0.57516 0.0
H594 H 0.95335 0.49255 0.50351 0.0
H595 H 0.9684 0.5315 0.4563 0.0
H596 H 0.04133 0.55159 0.50602 0.0
H597 H 0.04763 0.51391 0.57769 0.0
C598 C 0.01542 0.47854 0.59719 0.0
C599 C 0.99665 0.46184 0.60454 0.0
C600 C 0.01178 0.50056 0.55755 0.0
C601 C 0.9744 0.46726 0.56971 0.0
C602 C 0.97076 0.48891 0.52927 0.0
C603 C 0.98556 0.52783 0.48394 0.0
C604 C 0.00428 0.54457 0.47655 0.0
C605 C 0.98922 0.50584 0.52359 0.0
C606 C 0.02653 0.53921 0.51147 0.0
C607 C 0.03021 0.51753 0.5519 0.0
H608 H 0.75653 0.74207 0.96402 0.0
H609 H 0.80962 0.73774 0.77737 0.0
H610 H 0.77792 0.73571 0.67574 0.0
H611 H 0.73512 0.73636 0.63993 0.0
H612 H 0.68222 0.74523 0.82531 0.0
H613 H 0.71376 0.74423 0.92778 0.0
C614 C 0.76115 0.74043 0.90107 0.0
C615 C 0.78541 0.73969 0.87819 0.0
C616 C 0.74283 0.74014 0.84299 0.0
C617 C 0.79112 0.73819 0.79642 0.0
C618 C 0.77299 0.73704 0.73842 0.0
C619 C 0.73048 0.73779 0.70291 0.0
C620 C 0.70631 0.74045 0.72526 0.0
C621 C 0.74879 0.73811 0.76098 0.0
C622 C 0.70063 0.74296 0.80678 0.0
C623 C 0.71868 0.74242 0.86523 0.0
H624 H 0.53714 0.53348 0.09961 0.0
H625 H 0.46667 0.55513 0.02375 0.0
H626 H 0.46204 0.5176 0.94962 0.0
H627 H 0.47793 0.47841 0.90699 0.0
H628 H 0.54834 0.4568 0.98382 0.0
H629 H 0.55282 0.49421 0.05836 0.0
C630 C 0.52089 0.53017 0.06589 0.0
C631 C 0.5024 0.54733 0.0664 0.0
C632 C 0.51813 0.50828 0.02494 0.0
C633 C 0.48129 0.54243 0.02367 0.0
C634 C 0.47856 0.52085 0.98179 0.0
C635 C 0.4941 0.48169 0.94115 0.0
C636 C 0.51268 0.46461 0.94043 0.0
C637 C 0.49677 0.50353 0.98261 0.0
C638 C 0.53367 0.46945 0.98391 0.0
C639 C 0.53633 0.49096 0.02601 0.0
H640 H 0.77901 0.21798 0.17949 0.0
H641 H 0.80539 0.2857 0.26616 0.0
H642 H 0.7689 0.29125 0.34471 0.0
H643 H 0.72907 0.27727 0.38692 0.0
H644 H 0.7026 0.20959 0.30024 0.0
H645 H 0.73924 0.20386 0.22252 0.0
C646 C 0.77695 0.23378 0.21657 0.0
C647 C 0.79511 0.25128 0.21753 0.0
C648 C 0.75564 0.23709 0.26037 0.0
C649 C 0.79187 0.27184 0.26484 0.0
C650 C 0.7709 0.27511 0.30931 0.0
C651 C 0.73117 0.26139 0.35022 0.0
C652 C 0.71292 0.244 0.34879 0.0
C653 C 0.75253 0.258 0.30681 0.0
C654 C 0.7162 0.22337 0.30191 0.0
C655 C 0.73725 0.22 0.25788 0.0
H656 H 0.27669 0.22739 0.40041 0.0
H657 H 0.30327 0.29352 0.30162 0.0
H658 H 0.26647 0.29816 0.22357 0.0
H659 H 0.22655 0.28355 0.18385 0.0
H660 H 0.20003 0.21742 0.28281 0.0
H661 H 0.23669 0.21295 0.36154 0.0
C662 C 0.2746 0.24268 0.36098 0.0
C663 C 0.29294 0.25994 0.35622 0.0
C664 C 0.25314 0.24547 0.31747 0.0
C665 C 0.28963 0.27983 0.30586 0.0
C666 C 0.26848 0.28258 0.26166 0.0
C667 C 0.22861 0.26833 0.22358 0.0
C668 C 0.21035 0.25096 0.22795 0.0
C669 C 0.25001 0.26563 0.26748 0.0
C670 C 0.2136 0.23117 0.27878 0.0
C671 C 0.23469 0.22851 0.32336 0.0
H672 H 0.27779 0.77986 0.69784 0.0
H673 H 0.30475 0.71137 0.77553 0.0
H674 H 0.26837 0.70465 0.85336 0.0
H675 H 0.22868 0.71789 0.8985 0.0
H676 H 0.20169 0.78658 0.82336 0.0
H677 H 0.238 0.79334 0.74441 0.0
C678 C 0.27585 0.76359 0.73262 0.0
C679 C 0.29418 0.74622 0.73121 0.0
C680 C 0.25464 0.75968 0.77661 0.0
C681 C 0.29111 0.72512 0.77588 0.0
C682 C 0.2702 0.72119 0.82003 0.0
C683 C 0.23056 0.73423 0.86401 0.0
C684 C 0.21225 0.75158 0.86616 0.0
C685 C 0.25174 0.73822 0.82027 0.0
C686 C 0.2153 0.77281 0.82219 0.0
C687 C 0.23618 0.77675 0.77747 0.0
H688 H 0.52959 0.97708 0.15144 0.0
H689 H 0.45918 0.95369 0.08096 0.0
H690 H 0.45325 0.99088 0.00615 0.0
H691 H 0.46765 0.03064 0.96345 0.0
H692 H 0.53807 0.05395 0.03403 0.0
H693 H 0.54419 0.01653 0.1073 0.0
C694 C 0.5131 0.97992 0.11858 0.0
C695 C 0.49495 0.96241 0.12123 0.0
C696 C 0.50959 1.00163 0.07713 0.0
C697 C 0.47354 0.96667 0.07937 0.0
C698 C 0.47006 0.98807 0.03713 0.0
C699 C 0.48421 0.02768 0.99582 0.0
C700 C 0.50226 0.0453 0.9941 0.0
C701 C 0.48781 0.00584 0.03653 0.0
C702 C 0.52379 0.04088 0.03503 0.0
C703 C 0.52737 0.01937 0.07646 0.0
H704 H 0.03422 0.02171 0.65059 0.0
H705 H 0.96517 0.04801 0.57641 0.0
H706 H 0.95848 0.01141 0.49878 0.0
H707 H 0.97219 0.97172 0.45252 0.0
H708 H 0.04122 0.94555 0.52756 0.0
H709 H 0.04773 0.98203 0.60549 0.0
C710 C 0.0178 0.0196 0.61668 0.0
C711 C 1.00032 0.03779 0.61871 0.0
C712 C 0.01389 0.99828 0.57346 0.0
C713 C 0.97902 0.03447 0.57537 0.0
C714 C 0.97512 0.01344 0.5314 0.0
C715 C 0.98852 0.97382 0.48688 0.0
C716 C 0.0061 0.95571 0.48472 0.0
C717 C 0.99234 0.99512 0.53051 0.0
C718 C 0.0273 0.95901 0.52862 0.0
C719 C 0.03111 0.97999 0.57277 0.0
loop_
_geom_bond_atom_site_label_1
_geom_bond_atom_site_label_2
_geom_bond_distance
_geom_bond_site_symmetry_2
_ccdc_geom_bond_type
In0 O1 2.294 1_455 S
In0 O2 2.326 . S
In0 O6 2.266 1_455 S
In0 O7 2.326 1_455 S
In0 O8 2.266 . S
In0 O9 2.326 . S
In0 O11 2.294 . S
In0 O12 2.326 1_455 S
O1 In0 2.294 1_655 S
O1 C10 1.240 1_655 S
O2 In0 2.326 . S
O2 C10 1.252 . S
C3 O6 1.252 . S
C3 O7 1.260 . S
C4 O11 1.240 1_655 S
C4 O12 1.252 . S
C5 O8 1.252 . S
C5 O9 1.260 . S
O6 In0 2.266 1_655 S
O6 C3 1.252 . S
O7 In0 2.326 1_655 S
O7 C3 1.260 . S
O8 In0 2.266 . S
O8 C5 1.252 . S
O9 In0 2.326 . S
O9 C5 1.260 . S
C10 O1 1.240 1_455 S
C10 O2 1.252 . S
O11 In0 2.294 . S
O11 C4 1.240 1_455 S
O12 In0 2.326 1_655 S
O12 C4 1.252 . S
In13 O14 2.294 . S
In13 O15 2.326 . S
In13 O19 2.266 . S
In13 O20 2.326 . S
In13 O21 2.266 . S
In13 O22 2.326 . S
In13 O24 2.294 . S
In13 O25 2.326 . S
O14 In13 2.294 . S
O14 C23 1.240 . S
O15 In13 2.326 . S
O15 C23 1.252 . S
C16 O19 1.252 . S
C16 O20 1.260 . S
C17 O24 1.240 . S
C17 O25 1.252 . S
C18 O21 1.252 . S
C18 O22 1.260 . S
O19 In13 2.266 . S
O19 C16 1.252 . S
O20 In13 2.326 . S
O20 C16 1.260 . S
O21 In13 2.266 . S
O21 C18 1.252 . S
O22 In13 2.326 . S
O22 C18 1.260 . S
C23 O14 1.240 . S
C23 O15 1.252 . S
O24 In13 2.294 . S
O24 C17 1.240 . S
O25 In13 2.326 . S
O25 C17 1.252 . S
In26 O27 2.294 . S
In26 O28 2.326 . S
In26 O32 2.266 . S
In26 O33 2.326 . S
In26 O34 2.266 . S
In26 O35 2.326 . S
In26 O37 2.294 . S
In26 O38 2.326 . S
O27 In26 2.294 . S
O27 C36 1.240 . S
O28 In26 2.326 . S
O28 C36 1.252 . S
C29 O32 1.252 . S
C29 O33 1.260 . S
C30 O37 1.240 . S
C30 O38 1.252 . S
C31 O34 1.252 . S
C31 O35 1.260 . S
O32 In26 2.266 . S
O32 C29 1.252 . S
O33 In26 2.326 . S
O33 C29 1.260 . S
O34 In26 2.266 . S
O34 C31 1.252 . S
O35 In26 2.326 . S
O35 C31 1.260 . S
C36 O27 1.240 . S
C36 O28 1.252 . S
O37 In26 2.294 . S
O37 C30 1.240 . S
O38 In26 2.326 . S
O38 C30 1.252 . S
In39 O40 2.293 1_554 S
In39 O41 2.326 1_554 S
In39 O45 2.266 1_554 S
In39 O46 2.326 . S
In39 O47 2.266 . S
In39 O48 2.325 1_554 S
In39 O50 2.295 . S
In39 O51 2.327 . S
O40 In39 2.293 1_556 S
O40 C49 1.240 . S
O41 In39 2.326 1_556 S
O41 C49 1.252 . S
C42 O45 1.252 1_554 S
C42 O46 1.260 . S
C43 O50 1.240 . S
C43 O51 1.252 . S
C44 O47 1.252 1_556 S
C44 O48 1.260 . S
O45 In39 2.266 1_556 S
O45 C42 1.252 1_556 S
O46 In39 2.326 . S
O46 C42 1.260 . S
O47 In39 2.266 . S
O47 C44 1.252 1_554 S
O48 In39 2.325 1_556 S
O48 C44 1.260 . S
C49 O40 1.240 . S
C49 O41 1.252 . S
O50 In39 2.295 . S
O50 C43 1.240 . S
O51 In39 2.327 . S
O51 C43 1.252 . S
In52 O53 2.294 . S
In52 O54 2.326 1_455 S
In52 O58 2.266 . S
In52 O59 2.326 . S
In52 O60 2.266 1_455 S
In52 O61 2.326 1_455 S
In52 O63 2.294 1_455 S
In52 O64 2.326 . S
O53 In52 2.294 . S
O53 C62 1.240 1_455 S
O54 In52 2.326 1_655 S
O54 C62 1.252 . S
C55 O58 1.252 . S
C55 O59 1.260 . S
C56 O63 1.240 1_455 S
C56 O64 1.252 . S
C57 O60 1.252 . S
C57 O61 1.260 . S
O58 In52 2.266 . S
O58 C55 1.252 . S
O59 In52 2.326 . S
O59 C55 1.260 . S
O60 In52 2.266 1_655 S
O60 C57 1.252 . S
O61 In52 2.326 1_655 S
O61 C57 1.260 . S
C62 O53 1.240 1_655 S
C62 O54 1.252 . S
O63 In52 2.294 1_655 S
O63 C56 1.240 1_655 S
O64 In52 2.326 . S
O64 C56 1.252 . S
In65 O66 2.294 . S
In65 O67 2.326 . S
In65 O71 2.266 . S
In65 O72 2.326 . S
In65 O73 2.266 . S
In65 O74 2.326 . S
In65 O76 2.294 1_554 S
In65 O77 2.326 . S
O66 In65 2.294 . S
O66 C75 1.240 . S
O67 In65 2.326 . S
O67 C75 1.252 . S
C68 O71 1.252 . S
C68 O72 1.260 . S
C69 O76 1.240 . S
C69 O77 1.252 1_556 S
C70 O73 1.252 . S
C70 O74 1.260 . S
O71 In65 2.266 . S
O71 C68 1.252 . S
O72 In65 2.326 . S
O72 C68 1.260 . S
O73 In65 2.266 . S
O73 C70 1.252 . S
O74 In65 2.326 . S
O74 C70 1.260 . S
C75 O66 1.240 . S
C75 O67 1.252 . S
O76 In65 2.294 1_556 S
O76 C69 1.240 . S
O77 In65 2.326 . S
O77 C69 1.252 1_554 S
In78 O79 2.294 . S
In78 O80 2.326 . S
In78 O84 2.266 . S
In78 O85 2.326 . S
In78 O86 2.266 . S
In78 O87 2.326 . S
In78 O89 2.294 . S
In78 O90 2.326 . S
O79 In78 2.294 . S
O79 C88 1.240 . S
O80 In78 2.326 . S
O80 C88 1.252 . S
C81 O84 1.252 . S
C81 O85 1.260 . S
C82 O89 1.240 . S
C82 O90 1.252 . S
C83 O86 1.252 . S
C83 O87 1.260 . S
O84 In78 2.266 . S
O84 C81 1.252 . S
O85 In78 2.326 . S
O85 C81 1.260 . S
O86 In78 2.266 . S
O86 C83 1.252 . S
O87 In78 2.326 . S
O87 C83 1.260 . S
C88 O79 1.240 . S
C88 O80 1.252 . S
O89 In78 2.294 . S
O89 C82 1.240 . S
O90 In78 2.326 . S
O90 C82 1.252 . S
In91 O92 2.294 . S
In91 O93 2.326 . S
In91 O97 2.266 . S
In91 O98 2.326 . S
In91 O99 2.266 . S
In91 O100 2.326 . S
In91 O102 2.294 . S
In91 O103 2.326 . S
O92 In91 2.294 . S
O92 C101 1.240 . S
O93 In91 2.326 . S
O93 C101 1.252 . S
C94 O97 1.252 . S
C94 O98 1.260 . S
C95 O102 1.240 . S
C95 O103 1.252 . S
C96 O99 1.252 . S
C96 O100 1.260 . S
O97 In91 2.266 . S
O97 C94 1.252 . S
O98 In91 2.326 . S
O98 C94 1.260 . S
O99 In91 2.266 . S
O99 C96 1.252 . S
O100 In91 2.326 . S
O100 C96 1.260 . S
C101 O92 1.240 . S
C101 O93 1.252 . S
O102 In91 2.294 . S
O102 C95 1.240 . S
O103 In91 2.326 . S
O103 C95 1.252 . S
In104 O105 2.294 . S
In104 O106 2.326 . S
In104 O110 2.266 . S
In104 O111 2.326 . S
In104 O112 2.266 . S
In104 O113 2.326 . S
In104 O115 2.294 . S
In104 O116 2.326 . S
O105 In104 2.294 . S
O105 C114 1.240 . S
O106 In104 2.326 . S
O106 C114 1.252 . S
C107 O110 1.252 . S
C107 O111 1.260 . S
C108 O115 1.240 . S
C108 O116 1.252 . S
C109 O112 1.252 . S
C109 O113 1.260 . S
O110 In104 2.266 . S
O110 C107 1.252 . S
O111 In104 2.326 . S
O111 C107 1.260 . S
O112 In104 2.266 . S
O112 C109 1.252 . S
O113 In104 2.326 . S
O113 C109 1.260 . S
C114 O105 1.240 . S
C114 O106 1.252 . S
O115 In104 2.294 . S
O115 C108 1.240 . S
O116 In104 2.326 . S
O116 C108 1.252 . S
In117 O118 2.294 1_554 S
In117 O119 2.326 . S
In117 O123 2.266 . S
In117 O124 2.326 . S
In117 O125 2.266 . S
In117 O126 2.326 . S
In117 O128 2.294 . S
In117 O129 2.326 . S
O118 In117 2.294 1_556 S
O118 C127 1.240 . S
O119 In117 2.326 . S
O119 C127 1.252 1_554 S
C120 O123 1.252 . S
C120 O124 1.260 . S
C121 O128 1.240 . S
C121 O129 1.252 . S
C122 O125 1.252 . S
C122 O126 1.260 . S
O123 In117 2.266 . S
O123 C120 1.252 . S
O124 In117 2.326 . S
O124 C120 1.260 . S
O125 In117 2.266 . S
O125 C122 1.252 . S
O126 In117 2.326 . S
O126 C122 1.260 . S
C127 O118 1.240 . S
C127 O119 1.252 1_556 S
O128 In117 2.294 . S
O128 C121 1.240 . S
O129 In117 2.326 . S
O129 C121 1.252 . S
In130 O131 2.295 . S
In130 O132 2.327 . S
In130 O136 2.266 . S
In130 O137 2.325 1_554 S
In130 O138 2.266 1_554 S
In130 O139 2.326 . S
In130 O141 2.293 1_554 S
In130 O142 2.326 1_554 S
O131 In130 2.295 . S
O131 C140 1.240 . S
O132 In130 2.327 . S
O132 C140 1.252 . S
C133 O136 1.252 1_556 S
C133 O137 1.260 . S
C134 O141 1.240 . S
C134 O142 1.252 . S
C135 O138 1.252 1_554 S
C135 O139 1.260 . S
O136 In130 2.266 . S
O136 C133 1.252 1_554 S
O137 In130 2.325 1_556 S
O137 C133 1.260 . S
O138 In130 2.266 1_556 S
O138 C135 1.252 1_556 S
O139 In130 2.326 . S
O139 C135 1.260 . S
C140 O131 1.240 . S
C140 O132 1.252 . S
O141 In130 2.293 1_556 S
O141 C134 1.240 . S
O142 In130 2.326 1_556 S
O142 C134 1.252 . S
In143 O144 2.294 . S
In143 O145 2.326 . S
In143 O149 2.266 . S
In143 O150 2.326 . S
In143 O151 2.266 . S
In143 O152 2.326 . S
In143 O154 2.294 . S
In143 O155 2.326 . S
O144 In143 2.294 . S
O144 C153 1.240 . S
O145 In143 2.326 . S
O145 C153 1.252 . S
C146 O149 1.252 . S
C146 O150 1.260 . S
C147 O154 1.240 . S
C147 O155 1.252 . S
C148 O151 1.252 . S
C148 O152 1.260 . S
O149 In143 2.266 . S
O149 C146 1.252 . S
O150 In143 2.326 . S
O150 C146 1.260 . S
O151 In143 2.266 . S
O151 C148 1.252 . S
O152 In143 2.326 . S
O152 C148 1.260 . S
C153 O144 1.240 . S
C153 O145 1.252 . S
O154 In143 2.294 . S
O154 C147 1.240 . S
O155 In143 2.326 . S
O155 C147 1.252 . S
In156 O157 2.294 . S
In156 O158 2.326 . S
In156 O162 2.266 . S
In156 O163 2.326 . S
In156 O164 2.266 . S
In156 O165 2.326 . S
In156 O167 2.294 . S
In156 O168 2.326 . S
O157 In156 2.294 . S
O157 C166 1.240 . S
O158 In156 2.326 . S
O158 C166 1.252 . S
C159 O162 1.252 . S
C159 O163 1.260 . S
C160 O167 1.240 . S
C160 O168 1.252 . S
C161 O164 1.252 . S
C161 O165 1.260 . S
O162 In156 2.266 . S
O162 C159 1.252 . S
O163 In156 2.326 . S
O163 C159 1.260 . S
O164 In156 2.266 . S
O164 C161 1.252 . S
O165 In156 2.326 . S
O165 C161 1.260 . S
C166 O157 1.240 . S
C166 O158 1.252 . S
O167 In156 2.294 . S
O167 C160 1.240 . S
O168 In156 2.326 . S
O168 C160 1.252 . S
In169 O170 2.294 1_455 S
In169 O171 2.326 . S
In169 O175 2.266 1_455 S
In169 O176 2.326 1_455 S
In169 O177 2.266 . S
In169 O178 2.326 . S
In169 O180 2.294 . S
In169 O181 2.326 1_455 S
O170 In169 2.294 1_655 S
O170 C179 1.240 1_655 S
O171 In169 2.326 . S
O171 C179 1.252 . S
C172 O175 1.252 . S
C172 O176 1.260 . S
C173 O180 1.240 1_655 S
C173 O181 1.252 . S
C174 O177 1.252 . S
C174 O178 1.260 . S
O175 In169 2.266 1_655 S
O175 C172 1.252 . S
O176 In169 2.326 1_655 S
O176 C172 1.260 . S
O177 In169 2.266 . S
O177 C174 1.252 . S
O178 In169 2.326 . S
O178 C174 1.260 . S
C179 O170 1.240 1_455 S
C179 O171 1.252 . S
O180 In169 2.294 . S
O180 C173 1.240 1_455 S
O181 In169 2.326 1_655 S
O181 C173 1.252 . S
In182 O183 2.294 . S
In182 O184 2.326 . S
In182 O188 2.266 . S
In182 O189 2.326 . S
In182 O190 2.266 . S
In182 O191 2.326 . S
In182 O193 2.294 . S
In182 O194 2.326 . S
O183 In182 2.294 . S
O183 C192 1.240 . S
O184 In182 2.326 . S
O184 C192 1.252 . S
C185 O188 1.252 . S
C185 O189 1.260 . S
C186 O193 1.240 . S
C186 O194 1.252 . S
C187 O190 1.252 . S
C187 O191 1.260 . S
O188 In182 2.266 . S
O188 C185 1.252 . S
O189 In182 2.326 . S
O189 C185 1.260 . S
O190 In182 2.266 . S
O190 C187 1.252 . S
O191 In182 2.326 . S
O191 C187 1.260 . S
C192 O183 1.240 . S
C192 O184 1.252 . S
O193 In182 2.294 . S
O193 C186 1.240 . S
O194 In182 2.326 . S
O194 C186 1.252 . S
In195 O196 2.294 . S
In195 O197 2.326 1_455 S
In195 O201 2.266 . S
In195 O202 2.326 . S
In195 O203 2.266 1_455 S
In195 O204 2.326 1_455 S
In195 O206 2.294 1_455 S
In195 O207 2.326 . S
O196 In195 2.294 . S
O196 C205 1.240 1_455 S
O197 In195 2.326 1_655 S
O197 C205 1.252 . S
C198 O201 1.252 . S
C198 O202 1.260 . S
C199 O206 1.240 1_455 S
C199 O207 1.252 . S
C200 O203 1.252 . S
C200 O204 1.260 . S
O201 In195 2.266 . S
O201 C198 1.252 . S
O202 In195 2.326 . S
O202 C198 1.260 . S
O203 In195 2.266 1_655 S
O203 C200 1.252 . S
O204 In195 2.326 1_655 S
O204 C200 1.260 . S
C205 O196 1.240 1_655 S
C205 O197 1.252 . S
O206 In195 2.294 1_655 S
O206 C199 1.240 1_655 S
O207 In195 2.326 . S
O207 C199 1.252 . S
H208 C214 0.930 . S
H209 C217 0.930 . S
H210 C218 0.930 . S
H211 C219 0.930 . S
H212 C222 0.930 . S
H213 C223 0.930 . S
C214 H208 0.930 . S
C214 C215 1.355 . S
C214 C216 1.415 . S
C215 C214 1.355 . S
C215 C217 1.419 . S
C216 C214 1.415 . S
C216 C221 1.425 . S
C216 C223 1.409 . S
C217 H209 0.930 . S
C217 C215 1.419 . S
C217 C218 1.362 . S
C218 H210 0.930 . S
C218 C217 1.362 . S
C218 C221 1.409 . S
C219 H211 0.930 . S
C219 C220 1.355 . S
C219 C221 1.415 . S
C220 C219 1.355 . S
C220 C222 1.419 . S
C221 C216 1.425 . S
C221 C218 1.409 . S
C221 C219 1.415 . S
C222 H212 0.930 . S
C222 C220 1.419 . S
C222 C223 1.362 . S
C223 H213 0.930 . S
C223 C216 1.409 . S
C223 C222 1.362 . S
H224 C230 0.930 . S
H225 C233 0.930 . S
H226 C234 0.930 . S
H227 C235 0.930 . S
H228 C238 0.930 . S
H229 C239 0.930 . S
C230 H224 0.930 . S
C230 C231 1.355 . S
C230 C232 1.415 . S
C231 C230 1.355 . S
C231 C233 1.419 . S
C232 C230 1.415 . S
C232 C237 1.425 . S
C232 C239 1.409 . S
C233 H225 0.930 . S
C233 C231 1.419 . S
C233 C234 1.362 . S
C234 H226 0.930 . S
C234 C233 1.362 . S
C234 C237 1.409 . S
C235 H227 0.930 . S
C235 C236 1.355 . S
C235 C237 1.415 . S
C236 C235 1.355 . S
C236 C238 1.419 . S
C237 C232 1.425 . S
C237 C234 1.409 . S
C237 C235 1.415 . S
C238 H228 0.930 . S
C238 C236 1.419 . S
C238 C239 1.362 . S
C239 H229 0.930 . S
C239 C232 1.409 . S
C239 C238 1.362 . S
H240 C246 0.930 . S
H241 C249 0.930 . S
H242 C250 0.930 . S
H243 C251 0.930 . S
H244 C254 0.930 . S
H245 C255 0.930 . S
C246 H240 0.930 . S
C246 C247 1.355 . S
C246 C248 1.415 . S
C247 C246 1.355 . S
C247 C249 1.419 . S
C248 C246 1.415 . S
C248 C253 1.425 . S
C248 C255 1.409 . S
C249 H241 0.930 . S
C249 C247 1.419 . S
C249 C250 1.362 . S
C250 H242 0.930 . S
C250 C249 1.362 . S
C250 C253 1.409 . S
C251 H243 0.930 . S
C251 C252 1.355 . S
C251 C253 1.415 . S
C252 C251 1.355 . S
C252 C254 1.419 . S
C253 C248 1.425 . S
C253 C250 1.409 . S
C253 C251 1.415 . S
C254 H244 0.930 . S
C254 C252 1.419 . S
C254 C255 1.362 . S
C255 H245 0.930 . S
C255 C248 1.409 . S
C255 C254 1.362 . S
H256 C262 0.930 1_554 S
H257 C265 0.930 . S
H258 C266 0.930 . S
H259 C267 0.930 . S
H260 C270 0.930 1_554 S
H261 C271 0.930 . S
C262 H256 0.930 1_556 S
C262 C263 1.355 . S
C262 C264 1.415 . S
C263 C262 1.355 . S
C263 C265 1.419 . S
C264 C262 1.415 . S
C264 C269 1.425 . S
C264 C271 1.409 1_556 S
C265 H257 0.930 . S
C265 C263 1.419 . S
C265 C266 1.362 . S
C266 H258 0.930 . S
C266 C265 1.362 . S
C266 C269 1.409 . S
C267 H259 0.930 . S
C267 C268 1.355 . S
C267 C269 1.415 . S
C268 C267 1.355 . S
C268 C270 1.419 . S
C269 C264 1.425 . S
C269 C266 1.409 . S
C269 C267 1.415 . S
C270 H260 0.930 1_556 S
C270 C268 1.419 . S
C270 C271 1.362 1_556 S
C271 H261 0.930 . S
C271 C264 1.409 1_554 S
C271 C270 1.362 1_554 S
H272 C278 0.930 . S
H273 C281 0.930 . S
H274 C282 0.930 1_554 S
H275 C283 0.930 1_554 S
H276 C286 0.930 . S
H277 C287 0.930 . S
C278 H272 0.930 . S
C278 C279 1.355 . S
C278 C280 1.415 . S
C279 C278 1.355 . S
C279 C281 1.419 . S
C280 C278 1.415 . S
C280 C285 1.425 . S
C280 C287 1.409 . S
C281 H273 0.930 . S
C281 C279 1.419 . S
C281 C282 1.362 . S
C282 H274 0.930 1_556 S
C282 C281 1.362 . S
C282 C285 1.409 . S
C283 H275 0.930 1_556 S
C283 C284 1.355 . S
C283 C285 1.415 . S
C284 C283 1.355 . S
C284 C286 1.419 . S
C285 C280 1.425 . S
C285 C282 1.409 . S
C285 C283 1.415 . S
C286 H276 0.930 . S
C286 C284 1.419 . S
C286 C287 1.362 . S
C287 H277 0.930 . S
C287 C280 1.409 . S
C287 C286 1.362 . S
H288 C294 0.930 . S
H289 C297 0.930 . S
H290 C298 0.930 . S
H291 C299 0.930 . S
H292 C302 0.930 . S
H293 C303 0.930 . S
C294 H288 0.930 . S
C294 C295 1.355 . S
C294 C296 1.415 . S
C295 C294 1.355 . S
C295 C297 1.419 . S
C296 C294 1.415 . S
C296 C301 1.425 . S
C296 C303 1.409 . S
C297 H289 0.930 . S
C297 C295 1.419 . S
C297 C298 1.362 . S
C298 H290 0.930 . S
C298 C297 1.362 . S
C298 C301 1.409 . S
C299 H291 0.930 . S
C299 C300 1.355 . S
C299 C301 1.415 . S
C300 C299 1.355 . S
C300 C302 1.419 . S
C301 C296 1.425 . S
C301 C298 1.409 . S
C301 C299 1.415 . S
C302 H292 0.930 . S
C302 C300 1.419 . S
C302 C303 1.362 . S
C303 H293 0.930 . S
C303 C296 1.409 . S
C303 C302 1.362 . S
H304 C310 0.930 . S
H305 C313 0.930 . S
H306 C314 0.930 . S
H307 C315 0.930 . S
H308 C318 0.930 . S
H309 C319 0.930 . S
C310 H304 0.930 . S
C310 C311 1.355 . S
C310 C312 1.415 . S
C311 C310 1.355 . S
C311 C313 1.419 . S
C312 C310 1.415 . S
C312 C317 1.425 . S
C312 C319 1.409 . S
C313 H305 0.930 . S
C313 C311 1.419 . S
C313 C314 1.362 . S
C314 H306 0.930 . S
C314 C313 1.362 . S
C314 C317 1.409 . S
C315 H307 0.930 . S
C315 C316 1.355 . S
C315 C317 1.415 . S
C316 C315 1.355 . S
C316 C318 1.419 . S
C317 C312 1.425 . S
C317 C314 1.409 . S
C317 C315 1.415 . S
C318 H308 0.930 . S
C318 C316 1.419 . S
C318 C319 1.362 . S
C319 H309 0.930 . S
C319 C312 1.409 . S
C319 C318 1.362 . S
H320 C326 0.930 . S
H321 C329 0.930 . S
H322 C330 0.930 . S
H323 C331 0.930 . S
H324 C334 0.930 . S
H325 C335 0.930 . S
C326 H320 0.930 . S
C326 C327 1.355 . S
C326 C328 1.415 . S
C327 C326 1.355 . S
C327 C329 1.419 . S
C328 C326 1.415 . S
C328 C333 1.425 . S
C328 C335 1.409 . S
C329 H321 0.930 . S
C329 C327 1.419 . S
C329 C330 1.362 . S
C330 H322 0.930 . S
C330 C329 1.362 . S
C330 C333 1.409 . S
C331 H323 0.930 . S
C331 C332 1.355 . S
C331 C333 1.415 . S
C332 C331 1.355 . S
C332 C334 1.419 . S
C333 C328 1.425 . S
C333 C330 1.409 . S
C333 C331 1.415 . S
C334 H324 0.930 . S
C334 C332 1.419 . S
C334 C335 1.362 . S
C335 H325 0.930 . S
C335 C328 1.409 . S
C335 C334 1.362 . S
H336 C342 0.930 . S
H337 C345 0.930 . S
H338 C346 0.930 . S
H339 C347 0.930 . S
H340 C350 0.930 . S
H341 C351 0.930 . S
C342 H336 0.930 . S
C342 C343 1.355 . S
C342 C344 1.415 . S
C343 C342 1.355 . S
C343 C345 1.419 . S
C344 C342 1.415 . S
C344 C349 1.425 . S
C344 C351 1.409 1_556 S
C345 H337 0.930 . S
C345 C343 1.419 . S
C345 C346 1.362 . S
C346 H338 0.930 . S
C346 C345 1.362 . S
C346 C349 1.409 . S
C347 H339 0.930 . S
C347 C348 1.355 . S
C347 C349 1.415 . S
C348 C347 1.355 . S
C348 C350 1.419 1_556 S
C349 C344 1.425 . S
C349 C346 1.409 . S
C349 C347 1.415 . S
C350 H340 0.930 . S
C350 C348 1.419 1_554 S
C350 C351 1.362 . S
C351 H341 0.930 . S
C351 C344 1.409 1_554 S
C351 C350 1.362 . S
H352 C358 0.930 . S
H353 C361 0.930 . S
H354 C362 0.930 . S
H355 C363 0.930 . S
H356 C366 0.930 . S
H357 C367 0.930 . S
C358 H352 0.930 . S
C358 C359 1.355 . S
C358 C360 1.415 . S
C359 C358 1.355 . S
C359 C361 1.419 . S
C360 C358 1.415 . S
C360 C365 1.425 . S
C360 C367 1.409 . S
C361 H353 0.930 . S
C361 C359 1.419 . S
C361 C362 1.362 . S
C362 H354 0.930 . S
C362 C361 1.362 . S
C362 C365 1.409 . S
C363 H355 0.930 . S
C363 C364 1.355 . S
C363 C365 1.415 . S
C364 C363 1.355 . S
C364 C366 1.419 . S
C365 C360 1.425 . S
C365 C362 1.409 . S
C365 C363 1.415 . S
C366 H356 0.930 . S
C366 C364 1.419 . S
C366 C367 1.362 . S
C367 H357 0.930 . S
C367 C360 1.409 . S
C367 C366 1.362 . S
H368 C374 0.930 . S
H369 C377 0.930 . S
H370 C378 0.930 . S
H371 C379 0.930 . S
H372 C382 0.930 . S
H373 C383 0.930 . S
C374 H368 0.930 . S
C374 C375 1.355 . S
C374 C376 1.415 . S
C375 C374 1.355 . S
C375 C377 1.419 . S
C376 C374 1.415 . S
C376 C381 1.425 . S
C376 C383 1.409 . S
C377 H369 0.930 . S
C377 C375 1.419 . S
C377 C378 1.362 . S
C378 H370 0.930 . S
C378 C377 1.362 . S
C378 C381 1.409 . S
C379 H371 0.930 . S
C379 C380 1.355 . S
C379 C381 1.415 . S
C380 C379 1.355 . S
C380 C382 1.419 . S
C381 C376 1.425 . S
C381 C378 1.409 . S
C381 C379 1.415 . S
C382 H372 0.930 . S
C382 C380 1.419 . S
C382 C383 1.362 . S
C383 H373 0.930 . S
C383 C376 1.409 . S
C383 C382 1.362 . S
H384 C390 0.930 . S
H385 C393 0.930 . S
H386 C394 0.930 . S
H387 C395 0.930 . S
H388 C398 0.930 . S
H389 C399 0.930 . S
C390 H384 0.930 . S
C390 C391 1.355 . S
C390 C392 1.415 . S
C391 C390 1.355 . S
C391 C393 1.419 . S
C392 C390 1.415 . S
C392 C397 1.425 . S
C392 C399 1.409 . S
C393 H385 0.930 . S
C393 C391 1.419 . S
C393 C394 1.362 . S
C394 H386 0.930 . S
C394 C393 1.362 . S
C394 C397 1.409 . S
C395 H387 0.930 . S
C395 C396 1.355 . S
C395 C397 1.415 . S
C396 C395 1.355 . S
C396 C398 1.419 . S
C397 C392 1.425 . S
C397 C394 1.409 . S
C397 C395 1.415 . S
C398 H388 0.930 . S
C398 C396 1.419 . S
C398 C399 1.362 . S
C399 H389 0.930 . S
C399 C392 1.409 . S
C399 C398 1.362 . S
H400 C406 0.930 . S
H401 C409 0.930 . S
H402 C410 0.930 . S
H403 C411 0.930 . S
H404 C414 0.930 . S
H405 C415 0.930 . S
C406 H400 0.930 . S
C406 C407 1.355 . S
C406 C408 1.415 . S
C407 C406 1.355 . S
C407 C409 1.419 . S
C408 C406 1.415 . S
C408 C413 1.425 . S
C408 C415 1.409 . S
C409 H401 0.930 . S
C409 C407 1.419 . S
C409 C410 1.362 . S
C410 H402 0.930 . S
C410 C409 1.362 . S
C410 C413 1.409 . S
C411 H403 0.930 . S
C411 C412 1.355 . S
C411 C413 1.415 . S
C412 C411 1.355 . S
C412 C414 1.419 . S
C413 C408 1.425 . S
C413 C410 1.409 . S
C413 C411 1.415 . S
C414 H404 0.930 . S
C414 C412 1.419 . S
C414 C415 1.362 . S
C415 H405 0.930 . S
C415 C408 1.409 . S
C415 C414 1.362 . S
H416 C422 0.930 . S
H417 C425 0.930 . S
H418 C426 0.930 . S
H419 C427 0.930 1_554 S
H420 C430 0.930 . S
H421 C431 0.930 . S
C422 H416 0.930 . S
C422 C423 1.355 . S
C422 C424 1.415 . S
C423 C422 1.355 . S
C423 C425 1.419 . S
C424 C422 1.415 . S
C424 C429 1.425 . S
C424 C431 1.409 . S
C425 H417 0.930 . S
C425 C423 1.419 . S
C425 C426 1.362 . S
C426 H418 0.930 . S
C426 C425 1.362 . S
C426 C429 1.409 . S
C427 H419 0.930 1_556 S
C427 C428 1.355 . S
C427 C429 1.415 . S
C428 C427 1.355 . S
C428 C430 1.419 . S
C429 C424 1.425 . S
C429 C426 1.409 . S
C429 C427 1.415 . S
C430 H420 0.930 . S
C430 C428 1.419 . S
C430 C431 1.362 . S
C431 H421 0.930 . S
C431 C424 1.409 . S
C431 C430 1.362 . S
H432 C438 0.930 . S
H433 C441 0.930 . S
H434 C442 0.930 . S
H435 C443 0.930 . S
H436 C446 0.930 . S
H437 C447 0.930 . S
C438 H432 0.930 . S
C438 C439 1.355 . S
C438 C440 1.415 . S
C439 C438 1.355 . S
C439 C441 1.419 . S
C440 C438 1.415 . S
C440 C445 1.425 . S
C440 C447 1.409 . S
C441 H433 0.930 . S
C441 C439 1.419 . S
C441 C442 1.362 . S
C442 H434 0.930 . S
C442 C441 1.362 . S
C442 C445 1.409 . S
C443 H435 0.930 . S
C443 C444 1.355 . S
C443 C445 1.415 . S
C444 C443 1.355 . S
C444 C446 1.419 . S
C445 C440 1.425 . S
C445 C442 1.409 . S
C445 C443 1.415 . S
C446 H436 0.930 . S
C446 C444 1.419 . S
C446 C447 1.362 . S
C447 H437 0.930 . S
C447 C440 1.409 . S
C447 C446 1.362 . S
H448 C454 0.930 . S
H449 C457 0.930 . S
H450 C458 0.930 . S
H451 C459 0.930 . S
H452 C462 0.930 . S
H453 C463 0.930 . S
C454 H448 0.930 . S
C454 C455 1.355 . S
C454 C456 1.415 . S
C455 C454 1.355 . S
C455 C457 1.419 . S
C456 C454 1.415 . S
C456 C461 1.425 . S
C456 C463 1.409 . S
C457 H449 0.930 . S
C457 C455 1.419 . S
C457 C458 1.362 . S
C458 H450 0.930 . S
C458 C457 1.362 . S
C458 C461 1.409 . S
C459 H451 0.930 . S
C459 C460 1.355 . S
C459 C461 1.415 . S
C460 C459 1.355 . S
C460 C462 1.419 . S
C461 C456 1.425 . S
C461 C458 1.409 . S
C461 C459 1.415 . S
C462 H452 0.930 . S
C462 C460 1.419 . S
C462 C463 1.362 . S
C463 H453 0.930 . S
C463 C456 1.409 . S
C463 C462 1.362 . S
H464 C470 0.930 . S
H465 C473 0.930 . S
H466 C474 0.930 . S
H467 C475 0.960 . S
H468 C478 0.930 . S
H469 C479 0.930 . S
C470 H464 0.930 . S
C470 C471 1.355 . S
C470 C472 1.415 . S
C471 C470 1.355 . S
C471 C473 1.419 1_455 S
C472 C470 1.415 . S
C472 C477 1.425 . S
C472 C479 1.409 1_554 S
C473 H465 0.930 . S
C473 C471 1.419 1_655 S
C473 C474 1.362 . S
C474 H466 0.930 . S
C474 C473 1.362 . S
C474 C477 1.409 1_655 S
C475 H467 0.960 . S
C475 C476 1.330 1_654 S
C475 C477 1.411 1_655 S
C476 C475 1.330 1_456 S
C476 C478 1.419 . S
C477 C472 1.425 . S
C477 C474 1.409 1_455 S
C477 C475 1.411 1_455 S
C478 H468 0.930 . S
C478 C476 1.419 . S
C478 C479 1.362 . S
C479 H469 0.930 . S
C479 C472 1.409 1_556 S
C479 C478 1.362 . S
H480 C486 0.930 . S
H481 C489 0.930 . S
H482 C490 0.930 . S
H483 C491 0.930 . S
H484 C494 0.930 . S
H485 C495 0.930 . S
C486 H480 0.930 . S
C486 C487 1.355 . S
C486 C488 1.415 . S
C487 C486 1.355 . S
C487 C489 1.419 . S
C488 C486 1.415 . S
C488 C493 1.425 . S
C488 C495 1.409 . S
C489 H481 0.930 . S
C489 C487 1.419 . S
C489 C490 1.362 . S
C490 H482 0.930 . S
C490 C489 1.362 . S
C490 C493 1.409 . S
C491 H483 0.930 . S
C491 C492 1.355 . S
C491 C493 1.415 . S
C492 C491 1.355 . S
C492 C494 1.419 . S
C493 C488 1.425 . S
C493 C490 1.409 . S
C493 C491 1.415 . S
C494 H484 0.930 . S
C494 C492 1.419 . S
C494 C495 1.362 . S
C495 H485 0.930 . S
C495 C488 1.409 . S
C495 C494 1.362 . S
H496 C502 0.930 . S
H497 C505 0.930 . S
H498 C506 0.930 . S
H499 C507 0.930 . S
H500 C510 0.930 . S
H501 C511 0.930 . S
C502 H496 0.930 . S
C502 C503 1.355 . S
C502 C504 1.415 . S
C503 C502 1.355 . S
C503 C505 1.419 . S
C504 C502 1.415 . S
C504 C509 1.425 . S
C504 C511 1.409 . S
C505 H497 0.930 . S
C505 C503 1.419 . S
C505 C506 1.362 . S
C506 H498 0.930 . S
C506 C505 1.362 . S
C506 C509 1.409 . S
C507 H499 0.930 . S
C507 C508 1.355 . S
C507 C509 1.415 . S
C508 C507 1.355 . S
C508 C510 1.419 . S
C509 C504 1.425 . S
C509 C506 1.409 . S
C509 C507 1.415 . S
C510 H500 0.930 . S
C510 C508 1.419 . S
C510 C511 1.362 . S
C511 H501 0.930 . S
C511 C504 1.409 . S
C511 C510 1.362 . S
H512 C518 0.930 . S
H513 C521 0.930 . S
H514 C522 0.930 . S
H515 C523 0.930 . S
H516 C526 0.930 . S
H517 C527 0.930 . S
C518 H512 0.930 . S
C518 C519 1.355 . S
C518 C520 1.415 . S
C519 C518 1.355 . S
C519 C521 1.419 . S
C520 C518 1.415 . S
C520 C525 1.425 . S
C520 C527 1.409 . S
C521 H513 0.930 . S
C521 C519 1.419 . S
C521 C522 1.362 . S
C522 H514 0.930 . S
C522 C521 1.362 . S
C522 C525 1.409 . S
C523 H515 0.930 . S
C523 C524 1.355 . S
C523 C525 1.415 . S
C524 C523 1.355 . S
C524 C526 1.419 . S
C525 C520 1.425 . S
C525 C522 1.409 . S
C525 C523 1.415 . S
C526 H516 0.930 . S
C526 C524 1.419 . S
C526 C527 1.362 . S
C527 H517 0.930 . S
C527 C520 1.409 . S
C527 C526 1.362 . S
H528 C534 0.930 . S
H529 C537 0.930 . S
H530 C538 0.930 . S
H531 C539 0.930 . S
H532 C542 0.930 . S
H533 C543 0.930 . S
C534 H528 0.930 . S
C534 C535 1.355 . S
C534 C536 1.415 . S
C535 C534 1.355 . S
C535 C537 1.419 . S
C536 C534 1.415 . S
C536 C541 1.425 . S
C536 C543 1.409 . S
C537 H529 0.930 . S
C537 C535 1.419 . S
C537 C538 1.362 . S
C538 H530 0.930 . S
C538 C537 1.362 . S
C538 C541 1.409 . S
C539 H531 0.930 . S
C539 C540 1.355 . S
C539 C541 1.415 . S
C540 C539 1.355 . S
C540 C542 1.419 . S
C541 C536 1.425 . S
C541 C538 1.409 . S
C541 C539 1.415 . S
C542 H532 0.930 . S
C542 C540 1.419 . S
C542 C543 1.362 . S
C543 H533 0.930 . S
C543 C536 1.409 . S
C543 C542 1.362 . S
H544 C550 0.930 . S
H545 C553 0.930 . S
H546 C554 0.930 . S
H547 C555 0.930 . S
H548 C558 0.930 . S
H549 C559 0.930 . S
C550 H544 0.930 . S
C550 C551 1.355 . S
C550 C552 1.415 . S
C551 C550 1.355 . S
C551 C553 1.419 . S
C552 C550 1.415 . S
C552 C557 1.425 . S
C552 C559 1.409 . S
C553 H545 0.930 . S
C553 C551 1.419 . S
C553 C554 1.362 . S
C554 H546 0.930 . S
C554 C553 1.362 . S
C554 C557 1.409 . S
C555 H547 0.930 . S
C555 C556 1.355 . S
C555 C557 1.415 . S
C556 C555 1.355 . S
C556 C558 1.419 . S
C557 C552 1.425 . S
C557 C554 1.409 . S
C557 C555 1.415 . S
C558 H548 0.930 . S
C558 C556 1.419 . S
C558 C559 1.362 . S
C559 H549 0.930 . S
C559 C552 1.409 . S
C559 C558 1.362 . S
H560 C566 0.930 . S
H561 C569 0.930 . S
H562 C570 0.930 . S
H563 C571 0.930 . S
H564 C574 0.930 . S
H565 C575 0.930 . S
C566 H560 0.930 . S
C566 C567 1.355 . S
C566 C568 1.415 . S
C567 C566 1.355 . S
C567 C569 1.419 . S
C568 C566 1.415 . S
C568 C573 1.425 1_565 S
C568 C575 1.409 . S
C569 H561 0.930 . S
C569 C567 1.419 . S
C569 C570 1.362 1_565 S
C570 H562 0.930 . S
C570 C569 1.362 1_545 S
C570 C573 1.409 . S
C571 H563 0.930 . S
C571 C572 1.355 . S
C571 C573 1.415 . S
C572 C571 1.355 . S
C572 C574 1.419 . S
C573 C568 1.425 1_545 S
C573 C570 1.409 . S
C573 C571 1.415 . S
C574 H564 0.930 . S
C574 C572 1.419 . S
C574 C575 1.362 1_545 S
C575 H565 0.930 . S
C575 C568 1.409 . S
C575 C574 1.362 1_565 S
H576 C582 0.930 . S
H577 C585 0.930 . S
H578 C586 0.930 . S
H579 C587 0.930 . S
H580 C590 0.930 . S
H581 C591 0.930 . S
C582 H576 0.930 . S
C582 C583 1.355 . S
C582 C584 1.415 1_556 S
C583 C582 1.355 . S
C583 C585 1.419 1_655 S
C584 C582 1.415 1_554 S
C584 C589 1.425 1_645 S
C584 C591 1.409 1_545 S
C585 H577 0.930 . S
C585 C583 1.419 1_455 S
C585 C586 1.362 1_556 S
C586 H578 0.930 . S
C586 C585 1.362 1_554 S
C586 C589 1.409 1_545 S
C587 H579 0.930 . S
C587 C588 1.355 1_455 S
C587 C589 1.415 . S
C588 C587 1.355 1_655 S
C588 C590 1.419 . S
C589 C584 1.425 1_465 S
C589 C586 1.409 1_565 S
C589 C587 1.415 . S
C590 H580 0.930 . S
C590 C588 1.419 . S
C590 C591 1.362 . S
C591 H581 0.930 . S
C591 C584 1.409 1_565 S
C591 C590 1.362 . S
H592 C598 0.930 . S
H593 C601 0.930 . S
H594 C602 0.930 . S
H595 C603 0.930 . S
H596 C606 0.930 . S
H597 C607 0.930 . S
C598 H592 0.930 . S
C598 C599 1.355 1_455 S
C598 C600 1.418 . S
C599 C598 1.355 1_655 S
C599 C601 1.419 . S
C600 C598 1.418 . S
C600 C605 1.411 1_455 S
C600 C607 1.420 . S
C601 H593 0.930 . S
C601 C599 1.419 . S
C601 C602 1.362 . S
C602 H594 0.930 . S
C602 C601 1.362 . S
C602 C605 1.409 . S
C603 H595 0.930 . S
C603 C604 1.355 . S
C603 C605 1.415 . S
C604 C603 1.355 . S
C604 C606 1.419 1_655 S
C605 C600 1.411 1_655 S
C605 C602 1.409 . S
C605 C603 1.415 . S
C606 H596 0.930 . S
C606 C604 1.419 1_455 S
C606 C607 1.362 . S
C607 H597 0.930 . S
C607 C600 1.420 . S
C607 C606 1.362 . S
H608 C614 0.930 . S
H609 C617 0.930 . S
H610 C618 0.930 . S
H611 C619 0.930 . S
H612 C622 0.930 . S
H613 C623 0.930 . S
C614 H608 0.930 . S
C614 C615 1.355 . S
C614 C616 1.415 . S
C615 C614 1.355 . S
C615 C617 1.419 . S
C616 C614 1.415 . S
C616 C621 1.425 . S
C616 C623 1.409 . S
C617 H609 0.930 . S
C617 C615 1.419 . S
C617 C618 1.362 . S
C618 H610 0.930 . S
C618 C617 1.362 . S
C618 C621 1.409 . S
C619 H611 0.930 . S
C619 C620 1.355 . S
C619 C621 1.415 . S
C620 C619 1.355 . S
C620 C622 1.419 . S
C621 C616 1.425 . S
C621 C618 1.409 . S
C621 C619 1.415 . S
C622 H612 0.930 . S
C622 C620 1.419 . S
C622 C623 1.362 . S
C623 H613 0.930 . S
C623 C616 1.409 . S
C623 C622 1.362 . S
H624 C630 0.930 . S
H625 C633 0.930 . S
H626 C634 0.930 . S
H627 C635 0.930 . S
H628 C638 0.930 . S
H629 C639 0.930 . S
C630 H624 0.930 . S
C630 C631 1.355 . S
C630 C632 1.415 . S
C631 C630 1.355 . S
C631 C633 1.419 . S
C632 C630 1.415 . S
C632 C637 1.425 . S
C632 C639 1.409 . S
C633 H625 0.930 . S
C633 C631 1.419 . S
C633 C634 1.362 . S
C634 H626 0.930 . S
C634 C633 1.362 . S
C634 C637 1.409 . S
C635 H627 0.930 . S
C635 C636 1.355 . S
C635 C637 1.415 1_556 S
C636 C635 1.355 . S
C636 C638 1.419 . S
C637 C632 1.425 . S
C637 C634 1.409 . S
C637 C635 1.415 1_554 S
C638 H628 0.930 . S
C638 C636 1.419 . S
C638 C639 1.362 1_556 S
C639 H629 0.930 . S
C639 C632 1.409 . S
C639 C638 1.362 1_554 S
H640 C646 0.930 . S
H641 C649 0.930 . S
H642 C650 0.930 . S
H643 C651 0.930 . S
H644 C654 0.930 . S
H645 C655 0.930 . S
C646 H640 0.930 . S
C646 C647 1.355 . S
C646 C648 1.415 . S
C647 C646 1.355 . S
C647 C649 1.419 . S
C648 C646 1.415 . S
C648 C653 1.425 . S
C648 C655 1.409 . S
C649 H641 0.930 . S
C649 C647 1.419 . S
C649 C650 1.362 . S
C650 H642 0.930 . S
C650 C649 1.362 . S
C650 C653 1.409 . S
C651 H643 0.930 . S
C651 C652 1.355 . S
C651 C653 1.415 . S
C652 C651 1.355 . S
C652 C654 1.419 . S
C653 C648 1.425 . S
C653 C650 1.409 . S
C653 C651 1.415 . S
C654 H644 0.930 . S
C654 C652 1.419 . S
C654 C655 1.362 . S
C655 H645 0.930 . S
C655 C648 1.409 . S
C655 C654 1.362 . S
H656 C662 0.930 . S
H657 C665 0.930 . S
H658 C666 0.930 . S
H659 C667 0.930 . S
H660 C670 0.930 . S
H661 C671 0.930 . S
C662 H656 0.930 . S
C662 C663 1.355 . S
C662 C664 1.415 . S
C663 C662 1.355 . S
C663 C665 1.419 . S
C664 C662 1.415 . S
C664 C669 1.425 . S
C664 C671 1.409 . S
C665 H657 0.930 . S
C665 C663 1.419 . S
C665 C666 1.362 . S
C666 H658 0.930 . S
C666 C665 1.362 . S
C666 C669 1.409 . S
C667 H659 0.930 . S
C667 C668 1.355 . S
C667 C669 1.415 . S
C668 C667 1.355 . S
C668 C670 1.419 . S
C669 C664 1.425 . S
C669 C666 1.409 . S
C669 C667 1.415 . S
C670 H660 0.930 . S
C670 C668 1.419 . S
C670 C671 1.362 . S
C671 H661 0.930 . S
C671 C664 1.409 . S
C671 C670 1.362 . S
H672 C678 0.930 . S
H673 C681 0.930 . S
H674 C682 0.930 . S
H675 C683 0.930 . S
H676 C686 0.930 . S
H677 C687 0.930 . S
C678 H672 0.930 . S
C678 C679 1.355 . S
C678 C680 1.415 . S
C679 C678 1.355 . S
C679 C681 1.419 . S
C680 C678 1.415 . S
C680 C685 1.425 . S
C680 C687 1.409 . S
C681 H673 0.930 . S
C681 C679 1.419 . S
C681 C682 1.362 . S
C682 H674 0.930 . S
C682 C681 1.362 . S
C682 C685 1.409 . S
C683 H675 0.930 . S
C683 C684 1.355 . S
C683 C685 1.415 . S
C684 C683 1.355 . S
C684 C686 1.419 . S
C685 C680 1.425 . S
C685 C682 1.409 . S
C685 C683 1.415 . S
C686 H676 0.930 . S
C686 C684 1.419 . S
C686 C687 1.362 . S
C687 H677 0.930 . S
C687 C680 1.409 . S
C687 C686 1.362 . S
H688 C694 0.930 . S
H689 C697 0.930 . S
H690 C698 0.930 . S
H691 C699 0.930 . S
H692 C702 0.930 . S
H693 C703 0.930 . S
C694 H688 0.930 . S
C694 C695 1.355 . S
C694 C696 1.415 . S
C695 C694 1.355 . S
C695 C697 1.419 . S
C696 C694 1.415 . S
C696 C701 1.425 1_565 S
C696 C703 1.409 1_565 S
C697 H689 0.930 . S
C697 C695 1.419 . S
C697 C698 1.362 . S
C698 H690 0.930 . S
C698 C697 1.362 . S
C698 C701 1.409 1_565 S
C699 H691 0.930 . S
C699 C700 1.355 . S
C699 C701 1.415 1_556 S
C700 C699 1.355 . S
C700 C702 1.419 . S
C701 C696 1.425 1_545 S
C701 C698 1.409 1_545 S
C701 C699 1.415 1_554 S
C702 H692 0.930 . S
C702 C700 1.419 . S
C702 C703 1.362 1_556 S
C703 H693 0.930 . S
C703 C696 1.409 1_545 S
C703 C702 1.362 1_554 S
H704 C710 0.930 . S
H705 C713 0.930 . S
H706 C714 0.930 . S
H707 C715 0.930 . S
H708 C718 0.930 . S
H709 C719 0.930 . S
C710 H704 0.930 . S
C710 C711 1.355 . S
C710 C712 1.415 . S
C711 C710 1.355 . S
C711 C713 1.419 1_455 S
C712 C710 1.415 . S
C712 C717 1.444 1_545 S
C712 C719 1.409 . S
C713 H705 0.930 . S
C713 C711 1.419 1_655 S
C713 C714 1.362 1_545 S
C714 H706 0.930 . S
C714 C713 1.362 1_565 S
C714 C717 1.394 1_655 S
C715 H707 0.930 . S
C715 C716 1.355 1_655 S
C715 C717 1.412 1_655 S
C716 C715 1.355 1_455 S
C716 C718 1.419 . S
C717 C712 1.444 1_565 S
C717 C714 1.394 1_455 S
C717 C715 1.412 1_455 S
C718 H708 0.930 . S
C718 C716 1.419 . S
C718 C719 1.362 1_565 S
C719 H709 0.930 . S
C719 C712 1.409 . S
C719 C718 1.362 1_545 S
C215 C120 1.493 . S
C220 C5 1.487 . S
C231 C185 1.489 . S
C236 C18 1.492 . S
C247 C31 1.488 . S
C252 C107 1.491 . S
C263 C44 1.493 . S
C268 C200 1.498 . S
C279 C55 1.489 . S
C284 C133 1.489 . S
C295 C172 1.484 . S
C300 C70 1.489 . S
C311 C146 1.488 . S
C316 C83 1.486 . S
C327 C94 1.487 . S
C332 C159 1.485 . S
C343 C57 1.662 . S
C348 C42 1.666 1_556 S
C359 C161 1.663 . S
C364 C109 1.663 . S
C375 C81 1.649 . S
C380 C16 1.650 . S
C391 C122 1.610 . S
C396 C174 1.606 . S
C407 C3 1.609 . S
C412 C68 1.613 . S
C423 C198 1.629 . S
C428 C135 1.625 1_556 S
C439 C96 1.644 . S
C444 C29 1.643 . S
C455 C148 1.629 . S
C460 C187 1.629 . S
C471 C10 0.827 . S
C476 C56 0.863 . S
C487 C75 0.838 . S
C492 C23 0.850 . S
C503 C88 0.859 . S
C508 C36 0.838 . S
C519 C49 0.836 . S
C524 C95 0.860 . S
C535 C134 0.859 . S
C540 C108 0.837 . S
C551 C147 0.826 . S
C556 C121 0.865 . S
C567 C186 0.840 . S
C572 C160 0.849 . S
C583 C205 0.829 . S
C588 C173 0.865 . S
C599 C62 1.752 . S
C604 C4 1.741 . S
C615 C69 1.778 . S
C620 C17 1.779 . S
C631 C82 1.760 . S
C636 C30 1.777 . S
C647 C43 1.753 . S
C652 C101 1.741 . S
C663 C114 1.741 . S
C668 C140 1.749 . S
C679 C153 1.747 . S
C684 C127 1.766 . S
C695 C192 1.767 . S
C700 C166 1.748 . S
C711 C199 1.745 . S
C716 C179 1.763 . S
