# Generated by pormake.
# Topology uov, (4)-cn, num edge types: 1
# Building blocks:
#     Node 0, Type 0, BuildingBlock: QUQFOY_clean_sbu_3, # of connection points: 4
#     Node 1, Type 0, BuildingBlock: QUQFOY_clean_sbu_3, # of connection points: 4
#     Node 2, Type 0, BuildingBlock: QUQFOY_clean_sbu_3, # of connection points: 4
#     Node 3, Type 0, BuildingBlock: QUQFOY_clean_sbu_3, # of connection points: 4
#     Node 4, Type 0, BuildingBlock: QUQFOY_clean_sbu_3, # of connection points: 4
#     Node 5, Type 0, BuildingBlock: QUQFOY_clean_sbu_3, # of connection points: 4
#     Node 6, Type 0, BuildingBlock: QUQFOY_clean_sbu_3, # of connection points: 4
#     Node 7, Type 0, BuildingBlock: QUQFOY_clean_sbu_3, # of connection points: 4
#     Edge 8, Type (0, 0), BuildingBlock: TEMPAE_clean_linker_10, # of connection points: 2
#     Edge 9, Type (0, 0), BuildingBlock: TEMPAE_clean_linker_10, # of connection points: 2
#     Edge 10, Type (0, 0), BuildingBlock: TEMPAE_clean_linker_10, # of connection points: 2
#     Edge 11, Type (0, 0), BuildingBlock: TEMPAE_clean_linker_10, # of connection points: 2
#     Edge 12, Type (0, 0), BuildingBlock: TEMPAE_clean_linker_10, # of connection points: 2
#     Edge 13, Type (0, 0), BuildingBlock: TEMPAE_clean_linker_10, # of connection points: 2
#     Edge 14, Type (0, 0), BuildingBlock: TEMPAE_clean_linker_10, # of connection points: 2
#     Edge 15, Type (0, 0), BuildingBlock: TEMPAE_clean_linker_10, # of connection points: 2
#     Edge 16, Type (0, 0), BuildingBlock: TEMPAE_clean_linker_10, # of connection points: 2
#     Edge 17, Type (0, 0), BuildingBlock: TEMPAE_clean_linker_10, # of connection points: 2
#     Edge 18, Type (0, 0), BuildingBlock: TEMPAE_clean_linker_10, # of connection points: 2
#     Edge 19, Type (0, 0), BuildingBlock: TEMPAE_clean_linker_10, # of connection points: 2
#     Edge 20, Type (0, 0), BuildingBlock: TEMPAE_clean_linker_10, # of connection points: 2
#     Edge 21, Type (0, 0), BuildingBlock: TEMPAE_clean_linker_10, # of connection points: 2
#     Edge 22, Type (0, 0), BuildingBlock: TEMPAE_clean_linker_10, # of connection points: 2
#     Edge 23, Type (0, 0), BuildingBlock: TEMPAE_clean_linker_10, # of connection points: 2
# Relax obj value: 0.139
# Max RMSD: 0.153
# Mean RMSD: 0.146
data_MOF--net-uov--node1-QUQFOY_clean_sbu_3--edge1-TEMPAE_clean_linker_10
_symmetry_space_group_name_H-M    P1
_symmetry_Int_Tables_number       1
_symmetry_cell_setting            triclinic
loop_
_symmetry_equiv_pos_as_xyz
'x, y, z'
_cell_length_a     32.330515
_cell_length_b     32.266083
_cell_length_c     44.203759
_cell_angle_alpha  90.036714
_cell_angle_beta   89.963156
_cell_angle_gamma 87.889594
loop_
_atom_site_label
_atom_site_type_symbol
_atom_site_fract_x
_atom_site_fract_y
_atom_site_fract_z
_atom_type_partial_charge
C0 C 0.94491 0.17868 0.59126 0.0
O1 O 0.9602 0.14986 0.60782 0.0
Cd2 Cd 0.03132 0.15021 0.62371 0.0
O3 O 0.96648 0.2093 0.58394 0.0
Cd4 Cd 0.03431 0.23959 0.59209 0.0
C5 C 0.07881 0.15973 0.55392 0.0
O6 O 0.04441 0.21745 0.64377 0.0
O7 O 0.0976 0.24306 0.62204 0.0
O8 O -0.00568 0.3027 0.59937 0.0
C9 C 0.08185 0.22768 0.64562 0.0
O10 O 0.07028 0.13773 0.57688 0.0
C11 C 0.01296 0.32351 0.57958 0.0
O12 O 0.06801 0.19802 0.55279 0.0
O13 O 0.04294 0.30531 0.56571 0.0
C14 C 0.19869 0.88205 0.31376 0.0
O15 O 0.17069 0.90959 0.31942 0.0
Cd16 Cd 0.16323 0.94507 0.36669 0.0
O17 O 0.22901 0.87576 0.33174 0.0
Cd18 Cd 0.25705 0.9101 0.37708 0.0
C19 C 0.18456 0.86277 0.4164 0.0
O20 O 0.22461 -0.02017 0.37628 0.0
O21 O 0.25315 0.95903 0.41809 0.0
O22 O 0.3148 0.92859 0.34699 0.0
C23 C 0.23404 -0.01237 0.40355 0.0
O24 O 0.16052 0.88979 0.40381 0.0
C25 C 0.34248 0.91472 0.36503 0.0
O26 O 0.22328 0.86093 0.41063 0.0
O27 O 0.33037 0.89505 0.38819 0.0
C28 C 0.00427 0.77223 0.57913 0.0
O29 O -0.0089 0.80046 0.59711 0.0
Cd30 Cd 0.92213 0.79994 0.61772 0.0
O31 O -0.01777 0.74137 0.57333 0.0
Cd32 Cd 0.91652 0.71016 0.58656 0.0
C33 C 0.8691 0.78931 0.55006 0.0
O34 O 0.91017 0.73305 0.63843 0.0
O35 O 0.85517 0.7085 0.61847 0.0
O36 O 0.95653 0.64754 0.59489 0.0
C37 C 0.87268 0.72341 0.64152 0.0
O38 O 0.87899 0.81104 0.57286 0.0
C39 C 0.93726 0.62568 0.57608 0.0
O40 O 0.88027 0.75114 0.54823 0.0
O41 O 0.90718 0.64324 0.56194 0.0
C42 C 0.76923 0.09364 0.32563 0.0
O43 O 0.79968 0.07049 0.33408 0.0
Cd44 Cd 0.80231 0.0238 0.37584 0.0
O45 O 0.73411 0.09186 0.33852 0.0
Cd46 Cd 0.70432 0.0515 0.38035 0.0
C47 C 0.76843 0.09664 0.42903 0.0
O48 O 0.7421 -0.01529 0.37572 0.0
O49 O 0.70666 -0.00379 0.4166 0.0
O50 O 0.64997 0.02986 0.34806 0.0
C51 C 0.72893 0.97134 0.40084 0.0
O52 O 0.79552 0.07233 0.41688 0.0
C53 C 0.62053 0.04128 0.36549 0.0
O54 O 0.73085 0.09771 0.4201 0.0
O55 O 0.62976 0.06202 0.3889 0.0
C56 C 0.86403 0.19889 0.13219 0.0
O57 O 0.88827 0.16934 0.12359 0.0
Cd58 Cd 0.93168 0.1652 0.08036 0.0
O59 O 0.86176 0.23312 0.1178 0.0
Cd60 Cd 0.89591 0.25939 0.07154 0.0
C61 C 0.85311 0.18653 0.02891 0.0
O62 O 0.96602 0.22819 0.07684 0.0
O63 O 0.94926 0.25462 0.03358 0.0
O64 O 0.90996 0.32349 0.09663 0.0
C65 C 0.97699 0.2382 0.05036 0.0
O66 O 0.88082 0.1626 0.0407 0.0
C67 C 0.89885 0.34638 0.07456 0.0
O68 O 0.84916 0.22456 0.03662 0.0
O69 O 0.88147 0.32904 0.05238 0.0
C70 C 0.18477 0.95801 0.8775 0.0
O71 O 0.15699 0.97007 0.85888 0.0
Cd72 Cd 0.15726 0.0401 0.84032 0.0
O73 O 0.21432 -0.01866 0.88401 0.0
Cd74 Cd 0.24617 0.0471 0.8722 0.0
C75 C 0.1663 0.09102 0.90942 0.0
O76 O 0.22426 0.05361 0.82029 0.0
O77 O 0.24829 0.10885 0.84029 0.0
O78 O 0.30544 0.00199 0.86577 0.0
C79 C 0.23329 0.09132 0.81727 0.0
O80 O 0.14508 0.08045 0.88655 0.0
C81 C 0.32909 0.02139 0.88322 0.0
O82 O 0.20489 0.08196 0.91103 0.0
O83 O 0.31446 0.05463 0.89529 0.0
C84 C 0.08421 0.74183 0.14051 0.0
O85 O 0.05557 0.76927 0.13681 0.0
Cd86 Cd 0.02057 0.78182 0.09018 0.0
O87 O 0.0922 0.7145 0.12037 0.0
Cd88 Cd 0.05662 0.69315 0.07328 0.0
C89 C 0.10152 0.77021 0.03839 0.0
O90 O -0.01518 0.72189 0.07743 0.0
O91 O 0.00778 0.70469 0.03314 0.0
O92 O 0.04564 0.6266 0.0961 0.0
C93 C 0.97761 0.71716 0.04942 0.0
O94 O 0.07402 0.79221 0.05231 0.0
C95 C 0.05541 0.6059 0.07258 0.0
O96 O 0.10476 0.73113 0.04239 0.0
O97 O 0.0699 0.62558 0.05031 0.0
C98 C 0.76712 0.00226 0.87104 0.0
O99 O 0.79646 -0.01111 0.85416 0.0
Cd100 Cd 0.8013 0.91745 0.83925 0.0
O101 O 0.73801 -0.0213 0.8783 0.0
Cd102 Cd 0.71145 0.90931 0.86901 0.0
C103 C 0.79105 0.87058 0.90958 0.0
O104 O 0.73617 0.89984 0.81805 0.0
O105 O 0.71467 0.84478 0.83985 0.0
O106 O 0.64685 0.94353 0.85678 0.0
C107 C 0.729 0.86154 0.81632 0.0
O108 O 0.81334 0.88097 0.88722 0.0
C109 C 0.62601 0.92688 0.8775 0.0
O110 O 0.7521 0.87779 0.9096 0.0
O111 O 0.64491 0.90047 0.89435 0.0
C112 C -0.02032 0.56305 0.59019 0.0
C113 C 0.9493 0.58165 0.57154 0.0
C114 C -0.00961 0.52087 0.5876 0.0
C115 C 0.97045 0.49679 0.56563 0.0
C116 C 0.94089 0.51562 0.54589 0.0
C117 C 0.93043 0.55798 0.5492 0.0
C118 C 0.02186 0.50178 0.60924 0.0
C119 C 0.91946 0.49079 0.52199 0.0
C120 C 0.02254 0.39119 0.55334 0.0
C121 C 0.0002 0.367 0.57348 0.0
C122 C 0.01177 0.43331 0.54912 0.0
C123 C -0.02192 0.45133 0.56553 0.0
C124 C 0.95431 0.42655 0.58478 0.0
C125 C 0.96567 0.38467 0.58851 0.0
C126 C 0.03752 0.4589 0.52821 0.0
C127 C 0.91817 0.44472 0.60271 0.0
H128 H -0.00549 0.58124 0.60742 0.0
H129 H 0.90719 0.57239 0.53456 0.0
H130 H 0.00676 0.47894 0.62396 0.0
H131 H 0.04679 0.48485 0.59655 0.0
H132 H 0.03613 0.52531 0.62389 0.0
H133 H 0.90057 0.51084 0.50646 0.0
H134 H 0.94252 0.47241 0.50847 0.0
H135 H 0.89886 0.46853 0.53298 0.0
H136 H 0.04902 0.37751 0.54145 0.0
H137 H 0.94796 0.366 0.60383 0.0
H138 H 0.05588 0.4806 0.54174 0.0
H139 H 0.0173 0.4779 0.51293 0.0
H140 H 0.05917 0.43932 0.51429 0.0
H141 H 0.92956 0.46687 0.61974 0.0
H142 H 0.90087 0.42055 0.6147 0.0
H143 H 0.89643 0.46225 0.58763 0.0
C144 C 0.54476 0.04159 0.37701 0.0
C145 C 0.57903 0.02477 0.36129 0.0
C146 C 0.50659 0.02224 0.37608 0.0
C147 C 0.50321 -0.0153 0.35974 0.0
C148 C 0.53759 0.96793 0.34354 0.0
C149 C 0.57492 -0.01149 0.34416 0.0
C150 C 0.47012 0.04151 0.39299 0.0
C151 C 0.53538 0.92751 0.32643 0.0
C152 C 0.41558 0.91666 0.38335 0.0
C153 C 0.3858 0.92672 0.36128 0.0
C154 C 0.45459 0.93435 0.38263 0.0
C155 C 0.4636 0.96301 0.35949 0.0
C156 C 0.43435 0.97177 0.33642 0.0
C157 C 0.39593 0.95324 0.33745 0.0
C158 C 0.48554 0.92359 0.40722 0.0
C159 C 0.44282 0.00227 0.31144 0.0
H160 H 0.54795 0.06949 0.39034 0.0
H161 H 0.60152 0.97499 0.33232 0.0
H162 H 0.44342 0.04626 0.37745 0.0
H163 H 0.4604 0.02028 0.41117 0.0
H164 H 0.47734 0.07179 0.40332 0.0
H165 H 0.5649 0.91889 0.31476 0.0
H166 H 0.52785 0.90222 0.34229 0.0
H167 H 0.5103 0.9296 0.30934 0.0
H168 H 0.40792 0.89619 0.4018 0.0
H169 H 0.37309 0.96115 0.32026 0.0
H170 H 0.49055 0.95134 0.4214 0.0
H171 H 0.51585 0.91402 0.39714 0.0
H172 H 0.47509 0.89825 0.42207 0.0
H173 H 0.4469 0.0335 0.32129 0.0
H174 H 0.41737 0.00445 0.29458 0.0
H175 H 0.47197 -0.00677 0.29953 0.0
C176 C 0.90396 0.42304 0.0803 0.0
C177 C 0.92011 0.38496 0.06989 0.0
C178 C 0.92768 0.45858 0.07836 0.0
C179 C 0.96847 0.45516 0.06646 0.0
C180 C -0.01569 0.41664 0.05544 0.0
C181 C 0.95971 0.38203 0.05712 0.0
C182 C 0.90958 0.4995 0.08969 0.0
C183 C 0.02781 0.41155 0.04312 0.0
C184 C 0.02062 0.55302 0.04245 0.0
C185 C 0.04118 0.56354 0.06911 0.0
C186 C -0.003 0.51754 0.04112 0.0
C187 C -0.00471 0.49139 0.06673 0.0
C188 C 0.01854 0.50035 0.09293 0.0
C189 C 0.04056 0.53692 0.09404 0.0
C190 C 0.97183 0.50953 0.01308 0.0
C191 C 0.01882 0.47218 0.1202 0.0
H192 H 0.87335 0.42481 0.09035 0.0
H193 H 0.97202 0.3521 0.04941 0.0
H194 H 0.92695 0.50952 0.10989 0.0
H195 H 0.91264 0.52378 0.07214 0.0
H196 H 0.8764 0.49761 0.0959 0.0
H197 H 0.03474 0.37972 0.03445 0.0
H198 H 0.03265 0.43395 0.02455 0.0
H199 H 0.05038 0.41831 0.06121 0.0
H200 H 0.0204 0.57419 0.0234 0.0
H201 H 0.05627 0.54539 0.11468 0.0
H202 H 0.93837 0.51232 0.01869 0.0
H203 H -0.02184 0.47752 0.0047 0.0
H204 H -0.02169 0.53165 -0.00543 0.0
H205 H -0.01237 0.47285 0.13071 0.0
H206 H 0.04157 0.48149 0.13752 0.0
H207 H 0.02629 0.43968 0.11331 0.0
C208 C 0.38372 0.96577 0.87848 0.0
C209 C 0.37176 0.00562 0.8886 0.0
C210 C 0.42478 0.95108 0.88076 0.0
C211 C 0.45458 0.97699 0.89337 0.0
C212 C 0.44234 0.01635 0.9052 0.0
C213 C 0.40085 0.03026 0.90271 0.0
C214 C 0.43665 0.90885 0.86797 0.0
C215 C 0.47342 0.04465 0.91892 0.0
C216 C 0.56102 0.92793 0.9083 0.0
C217 C 0.58209 0.93898 0.88195 0.0
C218 C 0.51957 0.94093 0.91283 0.0
C219 C 0.49898 0.96504 0.89031 0.0
C220 C 0.52018 0.97619 0.86371 0.0
C221 C 0.56152 0.96314 0.85992 0.0
C222 C 0.49777 0.92878 0.94152 0.0
C223 C 0.49905 0.00145 0.83899 0.0
H224 H 0.36116 0.9463 0.868 0.0
H225 H 0.39158 0.06094 0.91079 0.0
H226 H 0.45552 0.91257 0.84723 0.0
H227 H 0.45583 0.89065 0.88437 0.0
H228 H 0.40916 0.89084 0.86205 0.0
H229 H 0.45824 0.07165 0.9306 0.0
H230 H 0.49352 0.02743 0.93532 0.0
H231 H 0.49374 0.05639 0.90085 0.0
H232 H 0.57701 0.90952 0.92547 0.0
H233 H 0.57768 0.97173 0.8395 0.0
H234 H 0.47119 0.90936 0.93598 0.0
H235 H 0.48513 0.95688 0.95328 0.0
H236 H 0.51864 0.91123 0.95728 0.0
H237 H 0.47257 -0.01553 0.82983 0.0
H238 H 0.52031 0.00825 0.82003 0.0
H239 H 0.48648 0.03126 0.8483 0.0
C240 C 0.17909 0.04319 0.41034 0.0
C241 C 0.21633 0.02387 0.41989 0.0
C242 C 0.15744 0.07137 0.42929 0.0
C243 C 0.17388 0.0806 0.4581 0.0
C244 C 0.21337 0.06411 0.46651 0.0
C245 C 0.23398 0.03564 0.44737 0.0
C246 C 0.1154 0.08833 0.41956 0.0
C247 C 0.23236 0.07382 0.49679 0.0
C248 C 0.12428 0.16422 0.50824 0.0
C249 C 0.10159 0.14025 0.52835 0.0
C250 C 0.14758 0.14544 0.4848 0.0
C251 C 0.14748 0.10186 0.48123 0.0
C252 C 0.1236 0.07773 0.50093 0.0
C253 C 0.10125 0.09719 0.5244 0.0
C254 C 0.17325 0.17197 0.4645 0.0
C255 C 0.12227 0.03117 0.49762 0.0
H256 H 0.16541 0.03411 0.38906 0.0
H257 H 0.26311 0.02109 0.45457 0.0
H258 H 0.0911 0.07229 0.43229 0.0
H259 H 0.1118 0.12189 0.42476 0.0
H260 H 0.11002 0.08367 0.39499 0.0
H261 H 0.26557 0.06381 0.49788 0.0
H262 H 0.22949 0.10755 0.50161 0.0
H263 H 0.21559 0.05756 0.51491 0.0
H264 H 0.12474 0.19754 0.51132 0.0
H265 H 0.08341 0.07859 0.53969 0.0
H266 H 0.16647 0.16553 0.4404 0.0
H267 H 0.20659 0.16421 0.46816 0.0
H268 H 0.16761 0.20562 0.46885 0.0
H269 H 0.11314 0.02296 0.47424 0.0
H270 H 0.10023 0.01731 0.51367 0.0
H271 H 0.1535 0.01689 0.50171 0.0
C272 C 0.18995 0.8218 0.46456 0.0
C273 C 0.16659 0.83602 0.43969 0.0
C274 C 0.17047 0.80433 0.48976 0.0
C275 C 0.12688 0.80125 0.48983 0.0
C276 C 0.10382 0.81233 0.46366 0.0
C277 C 0.12399 0.8295 0.43895 0.0
C278 C 0.19614 0.79189 0.51698 0.0
C279 C 0.05732 0.80903 0.46254 0.0
C280 C 0.05998 0.74428 0.54471 0.0
C281 C 0.04275 0.77747 0.56165 0.0
C282 C 0.09083 0.75072 0.52306 0.0
C283 C 0.10416 0.79137 0.51797 0.0
C284 C 0.08952 0.82427 0.53685 0.0
C285 C 0.05916 0.81684 0.55865 0.0
C286 C 0.10642 0.71464 0.50396 0.0
C287 C 0.10293 0.86815 0.53214 0.0
H288 H 0.22294 0.82667 0.46518 0.0
H289 H 0.10593 0.83978 0.4195 0.0
H290 H 0.19246 0.81615 0.53467 0.0
H291 H 0.18561 0.76243 0.52677 0.0
H292 H 0.22954 0.78821 0.51126 0.0
H293 H 0.04453 0.81606 0.43971 0.0
H294 H 0.04839 0.77742 0.46907 0.0
H295 H 0.04267 0.83111 0.47895 0.0
H296 H 0.04792 0.71356 0.54727 0.0
H297 H 0.0462 0.84258 0.57176 0.0
H298 H 0.14007 0.71649 0.49947 0.0
H299 H 0.09027 0.71545 0.48182 0.0
H300 H 0.10058 0.68444 0.51495 0.0
H301 H 0.13709 0.8689 0.53015 0.0
H302 H 0.09268 0.88907 0.55088 0.0
H303 H 0.08952 0.88046 0.5107 0.0
C304 C 0.72143 0.91253 0.43605 0.0
C305 C 0.74518 0.93256 0.4144 0.0
C306 C 0.73921 0.88146 0.45447 0.0
C307 C 0.78193 0.87117 0.45154 0.0
C308 C 0.80505 0.88859 0.42779 0.0
C309 C 0.78617 0.919 0.40921 0.0
C310 C 0.71323 0.86282 0.47899 0.0
C311 C 0.85072 0.87853 0.42403 0.0
C312 C 0.83837 0.85252 0.52532 0.0
C313 C 0.84575 0.80945 0.52498 0.0
C314 C 0.81776 0.87274 0.50145 0.0
C315 C 0.80378 0.84928 0.47665 0.0
C316 C 0.81047 0.80572 0.47624 0.0
C317 C 0.83163 0.78626 0.5004 0.0
C318 C 0.81118 0.91936 0.50276 0.0
C319 C 0.79542 0.77983 0.4503 0.0
H320 H 0.68947 0.92273 0.4397 0.0
H321 H 0.80447 0.93454 0.39239 0.0
H322 H 0.72052 0.82912 0.48135 0.0
H323 H 0.72017 0.87773 0.50095 0.0
H324 H 0.67959 0.86752 0.47442 0.0
H325 H 0.86239 0.88886 0.40173 0.0
H326 H 0.86805 0.89444 0.44203 0.0
H327 H 0.85748 0.84475 0.42642 0.0
H328 H 0.84918 0.87073 0.54415 0.0
H329 H 0.83712 0.75292 0.50002 0.0
H330 H 0.77758 0.92769 0.50239 0.0
H331 H 0.82528 0.93378 0.48263 0.0
H332 H 0.8248 0.93302 0.52339 0.0
H333 H 0.7617 0.78566 0.44692 0.0
H334 H 0.80142 0.74611 0.45409 0.0
H335 H 0.81102 0.78881 0.42906 0.0
C336 C 0.75725 0.13182 0.47931 0.0
C337 C 0.78237 0.12278 0.45414 0.0
C338 C 0.77439 0.14838 0.5058 0.0
C339 C 0.8174 0.15539 0.50686 0.0
C340 C 0.84179 0.14975 0.48047 0.0
C341 C 0.82386 0.1338 0.45446 0.0
C342 C 0.74707 0.15556 0.53309 0.0
C343 C 0.88771 0.15723 0.48029 0.0
C344 C 0.8838 0.20876 0.56329 0.0
C345 C 0.90411 0.17432 0.57681 0.0
C346 C 0.85086 0.20363 0.54316 0.0
C347 C 0.83893 0.1631 0.53587 0.0
C348 C 0.85619 0.12876 0.55209 0.0
C349 C 0.88841 0.13486 0.57262 0.0
C350 C 0.8319 0.2412 0.52742 0.0
C351 C 0.84427 0.08496 0.5451 0.0
H352 H 0.72505 0.12358 0.47902 0.0
H353 H 0.8431 0.1277 0.43472 0.0
H354 H 0.74932 0.12791 0.54797 0.0
H355 H 0.75683 0.18267 0.54642 0.0
H356 H 0.71413 0.16056 0.52644 0.0
H357 H 0.90165 0.15307 0.45746 0.0
H358 H 0.89357 0.1891 0.48816 0.0
H359 H 0.90387 0.1353 0.49605 0.0
H360 H 0.8952 0.23954 0.56703 0.0
H361 H 0.90368 0.10817 0.58325 0.0
H362 H 0.79841 0.23745 0.52323 0.0
H363 H 0.84724 0.24519 0.50521 0.0
H364 H 0.83595 0.26986 0.54088 0.0
H365 H 0.81017 0.08301 0.54375 0.0
H366 H 0.85613 0.06254 0.56238 0.0
H367 H 0.85727 0.07554 0.52278 0.0
C368 C 0.73581 0.05945 0.90274 0.0
C369 C 0.76949 0.04317 0.88591 0.0
C370 C 0.74079 0.09233 0.92303 0.0
C371 C 0.78048 0.10854 0.92686 0.0
C372 C 0.81323 0.09552 0.90736 0.0
C373 C 0.80724 0.06309 0.88692 0.0
C374 C 0.70468 0.10656 0.94254 0.0
C375 C 0.85602 0.11225 0.91054 0.0
C376 C 0.81045 0.19315 -0.01845 0.0
C377 C 0.82665 0.16892 0.00537 0.0
C378 C 0.79224 0.1743 0.95638 0.0
C379 C 0.79062 0.1305 0.95525 0.0
C380 C 0.80381 0.10646 -0.01953 0.0
C381 C 0.8215 0.12601 0.00519 0.0
C382 C 0.77733 0.20103 0.93032 0.0
C383 C 0.80215 0.05967 -0.01945 0.0
H384 H 0.70617 0.04486 0.90151 0.0
H385 H 0.83325 0.05114 0.87365 0.0
H386 H 0.70654 0.0903 0.96464 0.0
H387 H 0.70526 0.14037 0.94702 0.0
H388 H 0.67467 0.09945 0.93184 0.0
H389 H 0.87622 0.10356 0.89103 0.0
H390 H 0.85439 0.14651 0.9126 0.0
H391 H 0.87067 0.09958 0.93146 0.0
H392 H 0.81411 0.22641 -0.01825 0.0
H393 H 0.83314 0.1073 0.02393 0.0
H394 H 0.74935 0.18845 0.91969 0.0
H395 H 0.80188 0.20169 0.91281 0.0
H396 H 0.77021 0.23343 0.9377 0.0
H397 H 0.7704 0.04998 0.97529 0.0
H398 H 0.81155 0.04595 0.00265 0.0
H399 H 0.8231 0.0465 0.96281 0.0
C400 C 0.1022 0.11135 0.93755 0.0
C401 C 0.1452 0.11336 0.93452 0.0
C402 C 0.08099 0.13313 0.96047 0.0
C403 C 0.10327 0.15806 -0.01935 0.0
C404 C 0.14682 0.15964 -0.02182 0.0
C405 C 0.1674 0.13698 0.95517 0.0
C406 C 0.0345 0.13019 0.96257 0.0
C407 C 0.17141 0.18625 -0.00086 0.0
C408 C 0.03053 0.24176 0.01046 0.0
C409 C 0.01642 0.22321 0.03698 0.0
C410 C 0.06232 0.22283 -0.00668 0.0
C411 C 0.07989 0.1842 0.00284 0.0
C412 C 0.06859 0.16746 0.03115 0.0
C413 C 0.03695 0.18739 0.04806 0.0
C414 C 0.07404 0.24213 0.96355 0.0
C415 C 0.08683 0.12646 0.04213 0.0
H416 H 0.08495 0.0927 0.92192 0.0
H417 H 0.20068 0.13861 0.95286 0.0
H418 H 0.02547 0.12086 -0.01427 0.0
H419 H 0.01941 0.16099 0.958 0.0
H420 H 0.02225 0.10752 0.94623 0.0
H421 H 0.2053 0.18053 -0.00358 0.0
H422 H 0.16398 0.21946 -0.0056 0.0
H423 H 0.16292 0.18049 0.02305 0.0
H424 H 0.0151 0.26995 0.0022 0.0
H425 H 0.02619 0.17315 0.0687 0.0
H426 H 0.0599 0.2248 0.94474 0.0
H427 H 0.10807 0.24032 0.96027 0.0
H428 H 0.06312 0.27511 0.96202 0.0
H429 H 0.07248 0.10093 0.02954 0.0
H430 H 0.08113 0.12185 0.06666 0.0
H431 H 0.12064 0.12409 0.03786 0.0
C432 C 0.13019 0.83366 0.01619 0.0
C433 C 0.12668 0.79054 0.01523 0.0
C434 C 0.14633 0.85514 -0.00831 0.0
C435 C 0.15927 0.83293 0.96552 0.0
C436 C 0.15896 0.78907 0.96531 0.0
C437 C 0.14261 0.76826 -0.00971 0.0
C438 C 0.14681 0.90194 -0.00691 0.0
C439 C 0.17326 0.76433 0.93802 0.0
C440 C 0.14227 0.90073 0.89694 0.0
C441 C 0.18075 0.91904 0.89461 0.0
C442 C 0.13576 0.86969 0.91842 0.0
C443 C 0.16868 0.85647 0.93769 0.0
C444 C 0.20864 0.87176 0.93324 0.0
C445 C 0.21417 0.90311 0.91184 0.0
C446 C 0.09268 0.85396 0.92237 0.0
C447 C 0.24475 0.85773 0.9528 0.0
H448 H 0.11854 0.85093 0.03565 0.0
H449 H 0.14005 0.73487 -0.01052 0.0
H450 H 0.17786 0.9128 -0.01303 0.0
H451 H 0.12438 0.91545 0.97649 0.0
H452 H 0.13854 0.91416 0.01589 0.0
H453 H 0.17878 0.731 0.94355 0.0
H454 H 0.14921 0.7668 0.92016 0.0
H455 H 0.20209 0.77668 0.92853 0.0
H456 H 0.11641 0.91267 0.88355 0.0
H457 H 0.24425 0.91663 0.90975 0.0
H458 H 0.07904 0.8667 0.94364 0.0
H459 H 0.09365 0.81967 0.92428 0.0
H460 H 0.07196 0.86322 0.90331 0.0
H461 H 0.24229 0.87344 0.9751 0.0
H462 H 0.27482 0.86543 0.94243 0.0
H463 H 0.2446 0.82381 0.9569 0.0
C464 C 0.8524 0.85696 0.94232 0.0
C465 C 0.81108 0.8494 0.93554 0.0
C466 C 0.87336 0.8348 0.96517 0.0
C467 C 0.8527 0.80367 -0.01882 0.0
C468 C 0.81042 0.79702 0.97531 0.0
C469 C 0.78991 0.82034 0.95264 0.0
C470 C 0.91827 0.84337 0.97113 0.0
C471 C 0.78757 0.76382 -0.0083 0.0
C472 C 0.93033 0.7206 0.00539 0.0
C473 C 0.93927 0.73319 0.03493 0.0
C474 C 0.89943 0.7412 -0.01155 0.0
C475 C 0.87715 0.7754 0.00135 0.0
C476 C 0.88351 0.78591 0.03207 0.0
C477 C 0.91459 0.76449 0.04863 0.0
C478 C 0.89321 0.72858 0.95589 0.0
C479 C 0.86008 0.82196 0.04666 0.0
H480 H 0.8686 0.87989 0.92942 0.0
H481 H 0.7579 0.81447 0.94738 0.0
H482 H 0.9235 0.84802 -0.00432 0.0
H483 H 0.93805 0.81631 0.96391 0.0
H484 H 0.9285 0.8712 0.95882 0.0
H485 H 0.75363 0.76673 -0.01211 0.0
H486 H 0.79878 0.73287 -0.01646 0.0
H487 H 0.79369 0.76505 0.01637 0.0
H488 H 0.94899 0.6959 -0.00507 0.0
H489 H 0.92136 0.77416 0.07154 0.0
H490 H 0.9062 0.75222 0.94073 0.0
H491 H 0.85977 0.72689 0.95065 0.0
H492 H 0.90867 0.69808 0.95066 0.0
H493 H 0.87277 0.8514 0.03844 0.0
H494 H 0.86276 0.82118 0.07171 0.0
H495 H 0.82685 0.82218 0.0404 0.0
C496 C 0.08896 0.20001 0.69802 0.0
C497 C 0.10759 0.21534 0.6719 0.0
C498 C 0.11293 0.18376 0.72188 0.0
C499 C 0.15663 0.18248 0.7194 0.0
C500 C 0.1757 0.19955 0.69369 0.0
C501 C 0.15093 0.216 0.67022 0.0
C502 C 0.09145 0.16634 0.74917 0.0
C503 C 0.2222 0.19863 0.69026 0.0
C504 C 0.21455 0.15877 0.79222 0.0
C505 C 0.21926 0.11544 0.79062 0.0
C506 C 0.19568 0.18145 0.76858 0.0
C507 C 0.18183 0.16022 0.74269 0.0
C508 C 0.18885 0.11678 0.74021 0.0
C509 C 0.20723 0.09486 0.76434 0.0
C510 C 0.18849 0.22771 0.77206 0.0
C511 C 0.17513 0.09316 0.71269 0.0
H512 H 0.05542 0.19977 0.69952 0.0
H513 H 0.16543 0.2278 0.65018 0.0
H514 H 0.09722 0.13224 0.7501 0.0
H515 H 0.1041 0.17956 0.77027 0.0
H516 H 0.05747 0.17283 0.7487 0.0
H517 H 0.23221 0.21687 0.67043 0.0
H518 H 0.23691 0.21097 0.7109 0.0
H519 H 0.23386 0.16608 0.68742 0.0
H520 H 0.2238 0.17482 0.81254 0.0
H521 H 0.2112 0.0614 0.76293 0.0
H522 H 0.15488 0.23492 0.77489 0.0
H523 H 0.19867 0.24413 0.75148 0.0
H524 H 0.20503 0.2401 0.79194 0.0
H525 H 0.14083 0.09406 0.71157 0.0
H526 H 0.18635 0.0602 0.71308 0.0
H527 H 0.18656 0.10785 0.69176 0.0
C528 C 0.15282 0.75135 0.16405 0.0
C529 C 0.11047 0.74491 0.16736 0.0
C530 C 0.17581 0.76671 0.18828 0.0
C531 C 0.15581 0.77488 0.21629 0.0
C532 C 0.11434 0.76344 0.22053 0.0
C533 C 0.09188 0.74931 0.19578 0.0
C534 C 0.21995 0.77839 0.18286 0.0
C535 C 0.09228 0.77026 0.25034 0.0
C536 C 0.2076 0.81379 0.28731 0.0
C537 C 0.19439 0.85569 0.28681 0.0
C538 C 0.19749 0.78703 0.26355 0.0
C539 C 0.17432 0.80296 0.23872 0.0
C540 C 0.16393 0.84595 0.23713 0.0
C541 C 0.17366 0.87167 0.26138 0.0
C542 C 0.20899 0.74143 0.26616 0.0
C543 C 0.14018 0.86446 0.21066 0.0
H544 H 0.16699 0.74806 0.14189 0.0
H545 H 0.05911 0.74401 0.19819 0.0
H546 H 0.22068 0.81224 0.17858 0.0
H547 H 0.23954 0.77145 0.20294 0.0
H548 H 0.23357 0.76192 0.16292 0.0
H549 H 0.06303 0.7533 0.25146 0.0
H550 H 0.11241 0.76012 0.26946 0.0
H551 H 0.08469 0.80384 0.25332 0.0
H552 H 0.22366 0.80139 0.30704 0.0
H553 H 0.16401 0.90421 0.2608 0.0
H554 H 0.21862 0.72823 0.24396 0.0
H555 H 0.18156 0.72462 0.27386 0.0
H556 H 0.23434 0.73562 0.28275 0.0
H557 H 0.15458 0.85423 0.18899 0.0
H558 H 0.13883 0.89891 0.21127 0.0
H559 H 0.10803 0.85356 0.21093 0.0
C560 C 0.86908 0.75131 0.69406 0.0
C561 C 0.84876 0.73572 0.66874 0.0
C562 C 0.84663 0.76754 0.71875 0.0
C563 C 0.80284 0.76844 0.71794 0.0
C564 C 0.78215 0.75098 0.69307 0.0
C565 C 0.80541 0.73463 0.66876 0.0
C566 C 0.8698 0.78547 0.74507 0.0
C567 C 0.73548 0.7515 0.69143 0.0
C568 C 0.74868 0.79358 0.7922 0.0
C569 C 0.74308 0.83677 0.78998 0.0
C570 C 0.76681 0.77046 0.76843 0.0
C571 C 0.77906 0.79112 0.74184 0.0
C572 C 0.77139 0.8344 0.73892 0.0
C573 C 0.7537 0.85676 0.76312 0.0
C574 C 0.77468 0.72437 0.77235 0.0
C575 C 0.78346 0.85745 0.7107 0.0
H576 H 0.90258 0.75188 0.69427 0.0
H577 H 0.78953 0.72249 0.64926 0.0
H578 H 0.86403 0.81957 0.74585 0.0
H579 H 0.85856 0.77263 0.76672 0.0
H580 H 0.90373 0.77903 0.74343 0.0
H581 H 0.72426 0.73283 0.67218 0.0
H582 H 0.72233 0.73941 0.71271 0.0
H583 H 0.72339 0.78391 0.68873 0.0
H584 H 0.74047 0.77798 0.81301 0.0
H585 H 0.74902 0.89002 0.76124 0.0
H586 H 0.80849 0.71749 0.77389 0.0
H587 H 0.76314 0.70731 0.75246 0.0
H588 H 0.75972 0.71242 0.79307 0.0
H589 H 0.81766 0.8564 0.70839 0.0
H590 H 0.77237 0.89043 0.71109 0.0
H591 H 0.77069 0.84237 0.69035 0.0
C592 C 0.74172 0.13554 0.28184 0.0
C593 C 0.77507 0.12231 0.30014 0.0
C594 C 0.74858 0.15736 0.25491 0.0
C595 C 0.7896 0.16606 0.24645 0.0
C596 C 0.82269 0.1565 0.2665 0.0
C597 C 0.81504 0.13449 0.29301 0.0
C598 C 0.71243 0.16788 0.2344 0.0
C599 C 0.86684 0.16601 0.25868 0.0
C600 C 0.82882 0.15183 0.16712 0.0
C601 C 0.83826 0.1924 0.15915 0.0
C602 C 0.80948 0.14342 0.19454 0.0
C603 C 0.79961 0.17642 0.21469 0.0
C604 C 0.80592 0.21787 0.20576 0.0
C605 C 0.82523 0.22545 0.17788 0.0
C606 C 0.80267 0.09874 0.2029 0.0
C607 C 0.7951 0.25391 0.22639 0.0
H608 H 0.71064 0.12671 0.28755 0.0
H609 H 0.84075 0.12534 0.30758 0.0
H610 H 0.71604 0.1984 0.22336 0.0
H611 H 0.71101 0.14415 0.2163 0.0
H612 H 0.68263 0.16841 0.24695 0.0
H613 H 0.88795 0.16177 0.27835 0.0
H614 H 0.87801 0.14504 0.24025 0.0
H615 H 0.86875 0.19832 0.25041 0.0
H616 H 0.83789 0.12629 0.15229 0.0
H617 H 0.83209 0.25693 0.17157 0.0
H618 H 0.77067 0.09514 0.21126 0.0
H619 H 0.82417 0.08917 0.22139 0.0
H620 H 0.80805 0.07733 0.18348 0.0
H621 H 0.76619 0.24869 0.23914 0.0
H622 H 0.79141 0.2834 0.21355 0.0
H623 H 0.82035 0.25737 0.24309 0.0
loop_
_geom_bond_atom_site_label_1
_geom_bond_atom_site_label_2
_geom_bond_distance
_geom_bond_site_symmetry_2
_ccdc_geom_bond_type
C0 O1 1.306 . S
C0 O3 1.160 . S
O1 C0 1.306 . S
O1 Cd2 2.228 . S
Cd2 O1 2.228 . S
Cd2 O6 2.273 . S
Cd2 O10 2.277 . S
O3 C0 1.160 . S
O3 Cd4 2.203 . S
Cd4 O3 2.203 . S
Cd4 O6 2.411 . S
Cd4 O7 2.333 . S
Cd4 O8 2.352 . S
Cd4 O12 2.277 . S
Cd4 O13 2.356 . S
C5 O10 1.209 . S
C5 O12 1.226 . S
O6 Cd2 2.273 . S
O6 Cd4 2.411 . S
O6 C9 1.320 . S
O7 Cd4 2.333 . S
O7 C9 1.214 . S
O8 Cd4 2.352 . S
O8 C11 1.258 . S
C9 O6 1.320 . S
C9 O7 1.214 . S
O10 Cd2 2.277 . S
O10 C5 1.209 . S
C11 O8 1.258 . S
C11 O13 1.282 . S
O12 Cd4 2.277 . S
O12 C5 1.226 . S
O13 Cd4 2.356 . S
O13 C11 1.282 . S
C14 O15 1.306 . S
C14 O17 1.160 . S
O15 C14 1.306 . S
O15 Cd16 2.228 . S
Cd16 O15 2.228 . S
Cd16 O20 2.273 . S
Cd16 O24 2.277 . S
O17 C14 1.160 . S
O17 Cd18 2.203 . S
Cd18 O17 2.203 . S
Cd18 O20 2.411 . S
Cd18 O21 2.333 . S
Cd18 O22 2.352 . S
Cd18 O26 2.277 . S
Cd18 O27 2.356 . S
C19 O24 1.209 . S
C19 O26 1.226 . S
O20 Cd16 2.273 . S
O20 Cd18 2.411 . S
O20 C23 1.320 . S
O21 Cd18 2.333 . S
O21 C23 1.214 . S
O22 Cd18 2.352 . S
O22 C25 1.258 . S
C23 O20 1.320 . S
C23 O21 1.214 . S
O24 Cd16 2.277 . S
O24 C19 1.209 . S
C25 O22 1.258 . S
C25 O27 1.282 . S
O26 Cd18 2.277 . S
O26 C19 1.226 . S
O27 Cd18 2.356 . S
O27 C25 1.282 . S
C28 O29 1.306 . S
C28 O31 1.160 . S
O29 C28 1.306 . S
O29 Cd30 2.228 . S
Cd30 O29 2.228 . S
Cd30 O34 2.273 . S
Cd30 O38 2.277 . S
O31 C28 1.160 . S
O31 Cd32 2.203 . S
Cd32 O31 2.203 . S
Cd32 O34 2.411 . S
Cd32 O35 2.333 . S
Cd32 O36 2.352 . S
Cd32 O40 2.277 . S
Cd32 O41 2.356 . S
C33 O38 1.209 . S
C33 O40 1.226 . S
O34 Cd30 2.273 . S
O34 Cd32 2.411 . S
O34 C37 1.320 . S
O35 Cd32 2.333 . S
O35 C37 1.214 . S
O36 Cd32 2.352 . S
O36 C39 1.258 . S
C37 O34 1.320 . S
C37 O35 1.214 . S
O38 Cd30 2.277 . S
O38 C33 1.209 . S
C39 O36 1.258 . S
C39 O41 1.282 . S
O40 Cd32 2.277 . S
O40 C33 1.226 . S
O41 Cd32 2.356 . S
O41 C39 1.282 . S
C42 O43 1.306 . S
C42 O45 1.160 . S
O43 C42 1.306 . S
O43 Cd44 2.228 . S
Cd44 O43 2.228 . S
Cd44 O48 2.273 . S
Cd44 O52 2.277 . S
O45 C42 1.160 . S
O45 Cd46 2.203 . S
Cd46 O45 2.203 . S
Cd46 O48 2.411 . S
Cd46 O49 2.333 . S
Cd46 O50 2.352 . S
Cd46 O54 2.277 . S
Cd46 O55 2.356 . S
C47 O52 1.209 . S
C47 O54 1.226 . S
O48 Cd44 2.273 . S
O48 Cd46 2.411 . S
O48 C51 1.320 . S
O49 Cd46 2.333 . S
O49 C51 1.214 . S
O50 Cd46 2.352 . S
O50 C53 1.258 . S
C51 O48 1.320 . S
C51 O49 1.214 . S
O52 Cd44 2.277 . S
O52 C47 1.209 . S
C53 O50 1.258 . S
C53 O55 1.282 . S
O54 Cd46 2.277 . S
O54 C47 1.226 . S
O55 Cd46 2.356 . S
O55 C53 1.282 . S
C56 O57 1.306 . S
C56 O59 1.160 . S
O57 C56 1.306 . S
O57 Cd58 2.228 . S
Cd58 O57 2.228 . S
Cd58 O62 2.273 . S
Cd58 O66 2.277 . S
O59 C56 1.160 . S
O59 Cd60 2.203 . S
Cd60 O59 2.203 . S
Cd60 O62 2.411 . S
Cd60 O63 2.333 . S
Cd60 O64 2.352 . S
Cd60 O68 2.277 . S
Cd60 O69 2.356 . S
C61 O66 1.209 . S
C61 O68 1.226 . S
O62 Cd58 2.273 . S
O62 Cd60 2.411 . S
O62 C65 1.320 . S
O63 Cd60 2.333 . S
O63 C65 1.214 . S
O64 Cd60 2.352 . S
O64 C67 1.258 . S
C65 O62 1.320 . S
C65 O63 1.214 . S
O66 Cd58 2.277 . S
O66 C61 1.209 . S
C67 O64 1.258 . S
C67 O69 1.282 . S
O68 Cd60 2.277 . S
O68 C61 1.226 . S
O69 Cd60 2.356 . S
O69 C67 1.282 . S
C70 O71 1.306 . S
C70 O73 1.160 . S
O71 C70 1.306 . S
O71 Cd72 2.228 . S
Cd72 O71 2.228 . S
Cd72 O76 2.273 . S
Cd72 O80 2.277 . S
O73 C70 1.160 . S
O73 Cd74 2.203 . S
Cd74 O73 2.203 . S
Cd74 O76 2.411 . S
Cd74 O77 2.333 . S
Cd74 O78 2.352 . S
Cd74 O82 2.277 . S
Cd74 O83 2.356 . S
C75 O80 1.209 . S
C75 O82 1.226 . S
O76 Cd72 2.273 . S
O76 Cd74 2.411 . S
O76 C79 1.320 . S
O77 Cd74 2.333 . S
O77 C79 1.214 . S
O78 Cd74 2.352 . S
O78 C81 1.258 . S
C79 O76 1.320 . S
C79 O77 1.214 . S
O80 Cd72 2.277 . S
O80 C75 1.209 . S
C81 O78 1.258 . S
C81 O83 1.282 . S
O82 Cd74 2.277 . S
O82 C75 1.226 . S
O83 Cd74 2.356 . S
O83 C81 1.282 . S
C84 O85 1.306 . S
C84 O87 1.160 . S
O85 C84 1.306 . S
O85 Cd86 2.228 . S
Cd86 O85 2.228 . S
Cd86 O90 2.273 . S
Cd86 O94 2.277 . S
O87 C84 1.160 . S
O87 Cd88 2.203 . S
Cd88 O87 2.203 . S
Cd88 O90 2.411 . S
Cd88 O91 2.333 . S
Cd88 O92 2.352 . S
Cd88 O96 2.277 . S
Cd88 O97 2.356 . S
C89 O94 1.209 . S
C89 O96 1.226 . S
O90 Cd86 2.273 . S
O90 Cd88 2.411 . S
O90 C93 1.320 . S
O91 Cd88 2.333 . S
O91 C93 1.214 . S
O92 Cd88 2.352 . S
O92 C95 1.258 . S
C93 O90 1.320 . S
C93 O91 1.214 . S
O94 Cd86 2.277 . S
O94 C89 1.209 . S
C95 O92 1.258 . S
C95 O97 1.282 . S
O96 Cd88 2.277 . S
O96 C89 1.226 . S
O97 Cd88 2.356 . S
O97 C95 1.282 . S
C98 O99 1.306 . S
C98 O101 1.160 . S
O99 C98 1.306 . S
O99 Cd100 2.228 . S
Cd100 O99 2.228 . S
Cd100 O104 2.273 . S
Cd100 O108 2.277 . S
O101 C98 1.160 . S
O101 Cd102 2.203 . S
Cd102 O101 2.203 . S
Cd102 O104 2.411 . S
Cd102 O105 2.333 . S
Cd102 O106 2.352 . S
Cd102 O110 2.277 . S
Cd102 O111 2.356 . S
C103 O108 1.209 . S
C103 O110 1.226 . S
O104 Cd100 2.273 . S
O104 Cd102 2.411 . S
O104 C107 1.320 . S
O105 Cd102 2.333 . S
O105 C107 1.214 . S
O106 Cd102 2.352 . S
O106 C109 1.258 . S
C107 O104 1.320 . S
C107 O105 1.214 . S
O108 Cd100 2.277 . S
O108 C103 1.209 . S
C109 O106 1.258 . S
C109 O111 1.282 . S
O110 Cd102 2.277 . S
O110 C103 1.226 . S
O111 Cd102 2.356 . S
O111 C109 1.282 . S
C112 C113 1.391 . S
C112 C114 1.394 . S
C112 H128 0.931 . S
C113 C112 1.391 . S
C113 C117 1.376 . S
C114 C112 1.394 . S
C114 C115 1.369 . S
C114 C118 1.531 1_655 S
C115 C114 1.369 . S
C115 C116 1.410 . S
C115 C123 1.503 1_655 S
C116 C115 1.410 . S
C116 C117 1.392 . S
C116 C119 1.511 . S
C117 C113 1.376 . S
C117 C116 1.392 . S
C117 H129 0.929 . S
C118 C114 1.531 1_455 S
C118 H130 0.960 . S
C118 H131 0.962 . S
C118 H132 0.960 . S
C119 C116 1.511 . S
C119 H133 0.961 . S
C119 H134 0.961 . S
C119 H135 0.961 . S
C120 C121 1.370 . S
C120 C122 1.363 . S
C120 H136 0.931 . S
C121 C120 1.370 . S
C121 C125 1.408 . S
C122 C120 1.363 . S
C122 C123 1.370 . S
C122 C126 1.524 . S
C123 C115 1.503 1_455 S
C123 C122 1.370 . S
C123 C124 1.403 1_455 S
C124 C123 1.403 1_655 S
C124 C125 1.404 1_655 S
C124 C127 1.539 . S
C125 C121 1.408 . S
C125 C124 1.404 1_455 S
C125 H137 0.930 . S
C126 C122 1.524 . S
C126 H138 0.956 . S
C126 H139 0.961 . S
C126 H140 0.961 . S
C127 C124 1.539 . S
C127 H141 0.958 . S
C127 H142 0.961 . S
C127 H143 0.960 . S
H128 C112 0.931 . S
H129 C117 0.929 . S
H130 C118 0.960 . S
H131 C118 0.962 . S
H132 C118 0.960 . S
H133 C119 0.961 . S
H134 C119 0.961 . S
H135 C119 0.961 . S
H136 C120 0.931 . S
H137 C125 0.930 . S
H138 C126 0.956 . S
H139 C126 0.961 . S
H140 C126 0.961 . S
H141 C127 0.958 . S
H142 C127 0.961 . S
H143 C127 0.960 . S
C144 C145 1.391 . S
C144 C146 1.394 . S
C144 H160 0.931 . S
C145 C144 1.391 . S
C145 C149 1.376 . S
C146 C144 1.394 . S
C146 C147 1.369 . S
C146 C150 1.531 . S
C147 C146 1.369 . S
C147 C148 1.410 1_545 S
C147 C155 1.503 1_545 S
C148 C147 1.410 1_565 S
C148 C149 1.392 1_565 S
C148 C151 1.511 . S
C149 C145 1.376 . S
C149 C148 1.392 1_545 S
C149 H161 0.929 . S
C150 C146 1.531 . S
C150 H162 0.960 . S
C150 H163 0.962 . S
C150 H164 0.960 . S
C151 C148 1.511 . S
C151 H165 0.961 . S
C151 H166 0.961 . S
C151 H167 0.961 . S
C152 C153 1.370 . S
C152 C154 1.363 . S
C152 H168 0.931 . S
C153 C152 1.370 . S
C153 C157 1.408 . S
C154 C152 1.363 . S
C154 C155 1.370 . S
C154 C158 1.524 . S
C155 C147 1.503 1_565 S
C155 C154 1.370 . S
C155 C156 1.403 . S
C156 C155 1.403 . S
C156 C157 1.404 . S
C156 C159 1.539 . S
C157 C153 1.408 . S
C157 C156 1.404 . S
C157 H169 0.930 . S
C158 C154 1.524 . S
C158 H170 0.956 1_565 S
C158 H171 0.961 . S
C158 H172 0.961 . S
C159 C156 1.539 . S
C159 H173 0.958 1_565 S
C159 H174 0.961 . S
C159 H175 0.960 . S
H160 C144 0.931 . S
H161 C149 0.929 . S
H162 C150 0.960 . S
H163 C150 0.962 . S
H164 C150 0.960 . S
H165 C151 0.961 . S
H166 C151 0.961 . S
H167 C151 0.961 . S
H168 C152 0.931 . S
H169 C157 0.930 . S
H170 C158 0.956 1_545 S
H171 C158 0.961 . S
H172 C158 0.961 . S
H173 C159 0.958 1_545 S
H174 C159 0.961 . S
H175 C159 0.960 . S
C176 C177 1.391 . S
C176 C178 1.394 . S
C176 H192 0.931 . S
C177 C176 1.391 . S
C177 C181 1.376 . S
C178 C176 1.394 . S
C178 C179 1.369 . S
C178 C182 1.531 . S
C179 C178 1.369 . S
C179 C180 1.410 1_655 S
C179 C187 1.503 1_655 S
C180 C179 1.410 1_455 S
C180 C181 1.392 1_455 S
C180 C183 1.511 . S
C181 C177 1.376 . S
C181 C180 1.392 1_655 S
C181 H193 0.929 . S
C182 C178 1.531 . S
C182 H194 0.960 . S
C182 H195 0.962 . S
C182 H196 0.960 . S
C183 C180 1.511 . S
C183 H197 0.961 . S
C183 H198 0.961 . S
C183 H199 0.961 . S
C184 C185 1.370 . S
C184 C186 1.363 . S
C184 H200 0.931 . S
C185 C184 1.370 . S
C185 C189 1.408 . S
C186 C184 1.363 . S
C186 C187 1.370 . S
C186 C190 1.524 1_455 S
C187 C179 1.503 1_455 S
C187 C186 1.370 . S
C187 C188 1.403 . S
C188 C187 1.403 . S
C188 C189 1.404 . S
C188 C191 1.539 . S
C189 C185 1.408 . S
C189 C188 1.404 . S
C189 H201 0.930 . S
C190 C186 1.524 1_655 S
C190 H202 0.956 . S
C190 H203 0.961 . S
C190 H204 0.961 . S
C191 C188 1.539 . S
C191 H205 0.958 . S
C191 H206 0.961 . S
C191 H207 0.960 . S
H192 C176 0.931 . S
H193 C181 0.929 . S
H194 C182 0.960 . S
H195 C182 0.962 . S
H196 C182 0.960 . S
H197 C183 0.961 . S
H198 C183 0.961 . S
H199 C183 0.961 . S
H200 C184 0.931 . S
H201 C189 0.930 . S
H202 C190 0.956 . S
H203 C190 0.961 . S
H204 C190 0.961 . S
H205 C191 0.958 . S
H206 C191 0.961 . S
H207 C191 0.960 . S
C208 C209 1.391 . S
C208 C210 1.394 1_545 S
C208 H224 0.931 . S
C209 C208 1.391 . S
C209 C213 1.376 . S
C210 C208 1.394 1_565 S
C210 C211 1.369 1_565 S
C210 C214 1.531 . S
C211 C210 1.369 1_545 S
C211 C212 1.410 . S
C211 C219 1.503 1_545 S
C212 C211 1.410 . S
C212 C213 1.392 . S
C212 C215 1.511 . S
C213 C209 1.376 . S
C213 C212 1.392 . S
C213 H225 0.929 . S
C214 C210 1.531 . S
C214 H226 0.960 . S
C214 H227 0.962 . S
C214 H228 0.960 . S
C215 C212 1.511 . S
C215 H229 0.961 . S
C215 H230 0.961 . S
C215 H231 0.961 . S
C216 C217 1.370 . S
C216 C218 1.363 . S
C216 H232 0.931 . S
C217 C216 1.370 . S
C217 C221 1.408 . S
C218 C216 1.363 . S
C218 C219 1.370 . S
C218 C222 1.524 . S
C219 C211 1.503 1_565 S
C219 C218 1.370 . S
C219 C220 1.403 . S
C220 C219 1.403 . S
C220 C221 1.404 . S
C220 C223 1.539 . S
C221 C217 1.408 . S
C221 C220 1.404 . S
C221 H233 0.930 . S
C222 C218 1.524 . S
C222 H234 0.956 . S
C222 H235 0.961 1_565 S
C222 H236 0.961 . S
C223 C220 1.539 . S
C223 H237 0.958 . S
C223 H238 0.961 . S
C223 H239 0.960 1_565 S
H224 C208 0.931 . S
H225 C213 0.929 . S
H226 C214 0.960 . S
H227 C214 0.962 . S
H228 C214 0.960 . S
H229 C215 0.961 . S
H230 C215 0.961 . S
H231 C215 0.961 . S
H232 C216 0.931 . S
H233 C221 0.930 . S
H234 C222 0.956 . S
H235 C222 0.961 1_545 S
H236 C222 0.961 . S
H237 C223 0.958 . S
H238 C223 0.961 . S
H239 C223 0.960 1_545 S
C240 C241 1.391 . S
C240 C242 1.394 . S
C240 H256 0.931 . S
C241 C240 1.391 . S
C241 C245 1.376 . S
C242 C240 1.394 . S
C242 C243 1.369 . S
C242 C246 1.531 . S
C243 C242 1.369 . S
C243 C244 1.410 . S
C243 C251 1.503 . S
C244 C243 1.410 . S
C244 C245 1.392 . S
C244 C247 1.511 . S
C245 C241 1.376 . S
C245 C244 1.392 . S
C245 H257 0.929 1_545 S
C246 C242 1.531 . S
C246 H258 0.960 . S
C246 H259 0.962 . S
C246 H260 0.960 . S
C247 C244 1.511 . S
C247 H261 0.961 . S
C247 H262 0.961 . S
C247 H263 0.961 . S
C248 C249 1.370 . S
C248 C250 1.363 . S
C248 H264 0.931 . S
C249 C248 1.370 . S
C249 C253 1.408 . S
C250 C248 1.363 . S
C250 C251 1.370 . S
C250 C254 1.524 . S
C251 C243 1.503 . S
C251 C250 1.370 . S
C251 C252 1.403 . S
C252 C251 1.403 . S
C252 C253 1.404 . S
C252 C255 1.539 . S
C253 C249 1.408 . S
C253 C252 1.404 . S
C253 H265 0.930 . S
C254 C250 1.524 . S
C254 H266 0.956 . S
C254 H267 0.961 . S
C254 H268 0.961 . S
C255 C252 1.539 . S
C255 H269 0.958 . S
C255 H270 0.961 . S
C255 H271 0.960 . S
H256 C240 0.931 . S
H257 C245 0.929 1_565 S
H258 C246 0.960 . S
H259 C246 0.962 . S
H260 C246 0.960 . S
H261 C247 0.961 . S
H262 C247 0.961 . S
H263 C247 0.961 . S
H264 C248 0.931 . S
H265 C253 0.930 . S
H266 C254 0.956 . S
H267 C254 0.961 . S
H268 C254 0.961 . S
H269 C255 0.958 . S
H270 C255 0.961 . S
H271 C255 0.960 . S
C272 C273 1.391 . S
C272 C274 1.394 . S
C272 H288 0.931 . S
C273 C272 1.391 . S
C273 C277 1.376 . S
C274 C272 1.394 . S
C274 C275 1.369 . S
C274 C278 1.531 . S
C275 C274 1.369 . S
C275 C276 1.410 . S
C275 C283 1.503 . S
C276 C275 1.410 . S
C276 C277 1.392 . S
C276 C279 1.511 . S
C277 C273 1.376 . S
C277 C276 1.392 . S
C277 H289 0.929 . S
C278 C274 1.531 . S
C278 H290 0.960 . S
C278 H291 0.962 . S
C278 H292 0.960 . S
C279 C276 1.511 . S
C279 H293 0.961 . S
C279 H294 0.961 . S
C279 H295 0.961 . S
C280 C281 1.370 . S
C280 C282 1.363 . S
C280 H296 0.931 . S
C281 C280 1.370 . S
C281 C285 1.408 . S
C282 C280 1.363 . S
C282 C283 1.370 . S
C282 C286 1.524 . S
C283 C275 1.503 . S
C283 C282 1.370 . S
C283 C284 1.403 . S
C284 C283 1.403 . S
C284 C285 1.404 . S
C284 C287 1.539 . S
C285 C281 1.408 . S
C285 C284 1.404 . S
C285 H297 0.930 1_455 S
C286 C282 1.524 . S
C286 H298 0.956 . S
C286 H299 0.961 . S
C286 H300 0.961 . S
C287 C284 1.539 . S
C287 H301 0.958 . S
C287 H302 0.961 . S
C287 H303 0.960 . S
H288 C272 0.931 . S
H289 C277 0.929 . S
H290 C278 0.960 . S
H291 C278 0.962 . S
H292 C278 0.960 . S
H293 C279 0.961 . S
H294 C279 0.961 . S
H295 C279 0.961 . S
H296 C280 0.931 . S
H297 C285 0.930 1_655 S
H298 C286 0.956 . S
H299 C286 0.961 . S
H300 C286 0.961 . S
H301 C287 0.958 . S
H302 C287 0.961 . S
H303 C287 0.960 . S
C304 C305 1.391 . S
C304 C306 1.394 . S
C304 H320 0.931 . S
C305 C304 1.391 . S
C305 C309 1.376 . S
C306 C304 1.394 . S
C306 C307 1.369 . S
C306 C310 1.531 . S
C307 C306 1.369 . S
C307 C308 1.410 . S
C307 C315 1.503 . S
C308 C307 1.410 . S
C308 C309 1.392 . S
C308 C311 1.511 . S
C309 C305 1.376 . S
C309 C308 1.392 . S
C309 H321 0.929 1_565 S
C310 C306 1.531 . S
C310 H322 0.960 . S
C310 H323 0.962 . S
C310 H324 0.960 . S
C311 C308 1.511 . S
C311 H325 0.961 . S
C311 H326 0.961 . S
C311 H327 0.961 . S
C312 C313 1.370 . S
C312 C314 1.363 . S
C312 H328 0.931 . S
C313 C312 1.370 . S
C313 C317 1.408 . S
C314 C312 1.363 . S
C314 C315 1.370 . S
C314 C318 1.524 . S
C315 C307 1.503 . S
C315 C314 1.370 . S
C315 C316 1.403 . S
C316 C315 1.403 . S
C316 C317 1.404 . S
C316 C319 1.539 . S
C317 C313 1.408 . S
C317 C316 1.404 . S
C317 H329 0.930 . S
C318 C314 1.524 . S
C318 H330 0.956 . S
C318 H331 0.961 . S
C318 H332 0.961 . S
C319 C316 1.539 . S
C319 H333 0.958 . S
C319 H334 0.961 . S
C319 H335 0.960 . S
H320 C304 0.931 . S
H321 C309 0.929 1_545 S
H322 C310 0.960 . S
H323 C310 0.962 . S
H324 C310 0.960 . S
H325 C311 0.961 . S
H326 C311 0.961 . S
H327 C311 0.961 . S
H328 C312 0.931 . S
H329 C317 0.930 . S
H330 C318 0.956 . S
H331 C318 0.961 . S
H332 C318 0.961 . S
H333 C319 0.958 . S
H334 C319 0.961 . S
H335 C319 0.960 . S
C336 C337 1.391 . S
C336 C338 1.394 . S
C336 H352 0.931 . S
C337 C336 1.391 . S
C337 C341 1.376 . S
C338 C336 1.394 . S
C338 C339 1.369 . S
C338 C342 1.531 . S
C339 C338 1.369 . S
C339 C340 1.410 . S
C339 C347 1.503 . S
C340 C339 1.410 . S
C340 C341 1.392 . S
C340 C343 1.511 . S
C341 C337 1.376 . S
C341 C340 1.392 . S
C341 H353 0.929 . S
C342 C338 1.531 . S
C342 H354 0.960 . S
C342 H355 0.962 . S
C342 H356 0.960 . S
C343 C340 1.511 . S
C343 H357 0.961 . S
C343 H358 0.961 . S
C343 H359 0.961 . S
C344 C345 1.370 . S
C344 C346 1.363 . S
C344 H360 0.931 . S
C345 C344 1.370 . S
C345 C349 1.408 . S
C346 C344 1.363 . S
C346 C347 1.370 . S
C346 C350 1.524 . S
C347 C339 1.503 . S
C347 C346 1.370 . S
C347 C348 1.403 . S
C348 C347 1.403 . S
C348 C349 1.404 . S
C348 C351 1.539 . S
C349 C345 1.408 . S
C349 C348 1.404 . S
C349 H361 0.930 . S
C350 C346 1.524 . S
C350 H362 0.956 . S
C350 H363 0.961 . S
C350 H364 0.961 . S
C351 C348 1.539 . S
C351 H365 0.958 . S
C351 H366 0.961 . S
C351 H367 0.960 . S
H352 C336 0.931 . S
H353 C341 0.929 . S
H354 C342 0.960 . S
H355 C342 0.962 . S
H356 C342 0.960 . S
H357 C343 0.961 . S
H358 C343 0.961 . S
H359 C343 0.961 . S
H360 C344 0.931 . S
H361 C349 0.930 . S
H362 C350 0.956 . S
H363 C350 0.961 . S
H364 C350 0.961 . S
H365 C351 0.958 . S
H366 C351 0.961 . S
H367 C351 0.960 . S
C368 C369 1.391 . S
C368 C370 1.394 . S
C368 H384 0.931 . S
C369 C368 1.391 . S
C369 C373 1.376 . S
C370 C368 1.394 . S
C370 C371 1.369 . S
C370 C374 1.516 1_556 S
C371 C370 1.369 . S
C371 C372 1.410 . S
C371 C379 1.503 1_556 S
C372 C371 1.410 . S
C372 C373 1.392 . S
C372 C375 1.511 . S
C373 C369 1.376 . S
C373 C372 1.392 . S
C373 H385 0.929 . S
C374 C370 1.516 1_554 S
C374 H386 0.993 . S
C374 H387 0.939 1_554 S
C374 H388 0.967 . S
C375 C372 1.511 . S
C375 H389 0.961 . S
C375 H390 0.961 . S
C375 H391 0.961 1_556 S
C376 C377 1.370 . S
C376 C378 1.363 1_554 S
C376 H392 0.931 1_554 S
C377 C376 1.370 . S
C377 C381 1.408 . S
C378 C376 1.363 1_556 S
C378 C379 1.370 1_556 S
C378 C382 1.524 . S
C379 C371 1.503 1_554 S
C379 C378 1.370 1_554 S
C379 C380 1.403 . S
C380 C379 1.403 . S
C380 C381 1.404 . S
C380 C383 1.539 . S
C381 C377 1.408 . S
C381 C380 1.404 . S
C381 H393 0.930 . S
C382 C378 1.524 . S
C382 H394 0.956 . S
C382 H395 0.961 . S
C382 H396 0.961 . S
C383 C380 1.539 . S
C383 H397 0.958 . S
C383 H398 0.961 . S
C383 H399 0.960 . S
H384 C368 0.931 . S
H385 C373 0.929 . S
H386 C374 0.993 . S
H387 C374 0.939 1_556 S
H388 C374 0.967 . S
H389 C375 0.961 . S
H390 C375 0.961 . S
H391 C375 0.961 1_554 S
H392 C376 0.931 1_556 S
H393 C381 0.930 . S
H394 C382 0.956 . S
H395 C382 0.961 . S
H396 C382 0.961 . S
H397 C383 0.958 . S
H398 C383 0.961 . S
H399 C383 0.960 . S
C400 C401 1.391 . S
C400 C402 1.394 . S
C400 H416 0.931 . S
C401 C400 1.391 . S
C401 C405 1.376 . S
C402 C400 1.394 . S
C402 C403 1.381 . S
C402 C406 1.531 . S
C403 C402 1.381 . S
C403 C404 1.407 1_556 S
C403 C411 1.495 1_556 S
C404 C403 1.407 1_554 S
C404 C405 1.392 1_554 S
C404 C407 1.511 . S
C405 C401 1.376 . S
C405 C404 1.392 1_556 S
C405 H417 0.929 . S
C406 C402 1.531 . S
C406 H418 0.960 . S
C406 H419 0.962 . S
C406 H420 0.960 . S
C407 C404 1.511 . S
C407 H421 0.961 . S
C407 H422 0.961 . S
C407 H423 0.961 . S
C408 C409 1.370 . S
C408 C410 1.363 . S
C408 H424 0.931 1_455 S
C409 C408 1.370 . S
C409 C413 1.408 . S
C410 C408 1.363 . S
C410 C411 1.370 . S
C410 C414 1.524 1_554 S
C411 C403 1.495 1_554 S
C411 C410 1.370 . S
C411 C412 1.403 . S
C412 C411 1.403 . S
C412 C413 1.404 . S
C412 C415 1.539 . S
C413 C409 1.408 . S
C413 C412 1.404 . S
C413 H425 0.930 . S
C414 C410 1.524 1_556 S
C414 H426 0.956 . S
C414 H427 0.961 . S
C414 H428 0.961 . S
C415 C412 1.539 . S
C415 H429 0.958 . S
C415 H430 0.961 . S
C415 H431 0.960 . S
H416 C400 0.931 . S
H417 C405 0.929 . S
H418 C406 0.960 . S
H419 C406 0.962 . S
H420 C406 0.960 . S
H421 C407 0.961 . S
H422 C407 0.961 . S
H423 C407 0.961 . S
H424 C408 0.931 1_655 S
H425 C413 0.930 . S
H426 C414 0.956 . S
H427 C414 0.961 . S
H428 C414 0.961 . S
H429 C415 0.958 . S
H430 C415 0.961 . S
H431 C415 0.960 . S
C432 C433 1.391 . S
C432 C434 1.394 . S
C432 H448 0.931 . S
C433 C432 1.391 . S
C433 C437 1.376 . S
C434 C432 1.394 . S
C434 C435 1.369 . S
C434 C438 1.531 . S
C435 C434 1.369 . S
C435 C436 1.410 1_554 S
C435 C443 1.503 1_554 S
C436 C435 1.410 1_556 S
C436 C437 1.392 1_556 S
C436 C439 1.511 . S
C437 C433 1.376 . S
C437 C436 1.392 1_554 S
C437 H449 0.929 1_554 S
C438 C434 1.531 . S
C438 H450 0.960 . S
C438 H451 0.962 . S
C438 H452 0.960 . S
C439 C436 1.511 . S
C439 H453 0.961 . S
C439 H454 0.961 . S
C439 H455 0.961 . S
C440 C441 1.370 . S
C440 C442 1.363 . S
C440 H456 0.931 1_565 S
C441 C440 1.370 . S
C441 C445 1.408 . S
C442 C440 1.363 . S
C442 C443 1.370 . S
C442 C446 1.516 1_556 S
C443 C435 1.503 1_556 S
C443 C442 1.370 . S
C443 C444 1.403 . S
C444 C443 1.403 . S
C444 C445 1.404 . S
C444 C447 1.539 . S
C445 C441 1.408 . S
C445 C444 1.404 . S
C445 H457 0.930 . S
C446 C442 1.516 1_554 S
C446 H458 0.973 . S
C446 H459 0.956 1_554 S
C446 H460 0.957 1_554 S
C447 C444 1.539 . S
C447 H461 0.958 . S
C447 H462 0.961 . S
C447 H463 0.960 . S
H448 C432 0.931 . S
H449 C437 0.929 1_556 S
H450 C438 0.960 . S
H451 C438 0.962 . S
H452 C438 0.960 . S
H453 C439 0.961 . S
H454 C439 0.961 . S
H455 C439 0.961 . S
H456 C440 0.931 1_545 S
H457 C445 0.930 . S
H458 C446 0.973 . S
H459 C446 0.956 1_556 S
H460 C446 0.957 1_556 S
H461 C447 0.958 . S
H462 C447 0.961 . S
H463 C447 0.960 . S
C464 C465 1.391 . S
C464 C466 1.394 . S
C464 H480 0.931 . S
C465 C464 1.391 . S
C465 C469 1.376 . S
C466 C464 1.394 . S
C466 C467 1.359 1_556 S
C466 C470 1.531 1_556 S
C467 C466 1.359 1_554 S
C467 C468 1.400 1_554 S
C467 C475 1.521 . S
C468 C467 1.400 1_556 S
C468 C469 1.392 . S
C468 C471 1.511 1_556 S
C469 C465 1.376 . S
C469 C468 1.392 . S
C469 H481 0.929 . S
C470 C466 1.531 1_554 S
C470 H482 0.960 . S
C470 H483 0.962 1_554 S
C470 H484 0.960 . S
C471 C468 1.511 1_554 S
C471 H485 0.961 1_554 S
C471 H486 0.961 . S
C471 H487 0.961 . S
C472 C473 1.370 . S
C472 C474 1.363 . S
C472 H488 0.931 1_655 S
C473 C472 1.370 . S
C473 C477 1.408 . S
C474 C472 1.363 . S
C474 C475 1.370 . S
C474 C478 1.524 1_554 S
C475 C467 1.521 . S
C475 C474 1.370 . S
C475 C476 1.403 . S
C476 C475 1.403 . S
C476 C477 1.404 . S
C476 C479 1.539 . S
C477 C473 1.408 . S
C477 C476 1.404 . S
C477 H489 0.930 . S
C478 C474 1.524 1_556 S
C478 H490 0.956 . S
C478 H491 0.961 . S
C478 H492 0.961 . S
C479 C476 1.539 . S
C479 H493 0.958 . S
C479 H494 0.961 . S
C479 H495 0.960 . S
H480 C464 0.931 . S
H481 C469 0.929 . S
H482 C470 0.960 . S
H483 C470 0.962 1_556 S
H484 C470 0.960 . S
H485 C471 0.961 1_556 S
H486 C471 0.961 . S
H487 C471 0.961 . S
H488 C472 0.931 1_455 S
H489 C477 0.930 . S
H490 C478 0.956 . S
H491 C478 0.961 . S
H492 C478 0.961 . S
H493 C479 0.958 . S
H494 C479 0.961 . S
H495 C479 0.960 . S
C496 C497 1.391 . S
C496 C498 1.394 . S
C496 H512 0.931 . S
C497 C496 1.391 . S
C497 C501 1.376 . S
C498 C496 1.394 . S
C498 C499 1.369 . S
C498 C502 1.531 . S
C499 C498 1.369 . S
C499 C500 1.410 . S
C499 C507 1.503 . S
C500 C499 1.410 . S
C500 C501 1.392 . S
C500 C503 1.511 . S
C501 C497 1.376 . S
C501 C500 1.392 . S
C501 H513 0.929 . S
C502 C498 1.531 . S
C502 H514 0.960 . S
C502 H515 0.962 . S
C502 H516 0.960 . S
C503 C500 1.511 . S
C503 H517 0.961 . S
C503 H518 0.961 . S
C503 H519 0.961 . S
C504 C505 1.370 . S
C504 C506 1.363 . S
C504 H520 0.931 . S
C505 C504 1.370 . S
C505 C509 1.408 . S
C506 C504 1.363 . S
C506 C507 1.370 . S
C506 C510 1.524 . S
C507 C499 1.503 . S
C507 C506 1.370 . S
C507 C508 1.403 . S
C508 C507 1.403 . S
C508 C509 1.404 . S
C508 C511 1.539 . S
C509 C505 1.408 . S
C509 C508 1.404 . S
C509 H521 0.930 . S
C510 C506 1.524 . S
C510 H522 0.956 . S
C510 H523 0.961 . S
C510 H524 0.961 . S
C511 C508 1.539 . S
C511 H525 0.958 . S
C511 H526 0.961 . S
C511 H527 0.960 . S
H512 C496 0.931 . S
H513 C501 0.929 . S
H514 C502 0.960 . S
H515 C502 0.962 . S
H516 C502 0.960 . S
H517 C503 0.961 . S
H518 C503 0.961 . S
H519 C503 0.961 . S
H520 C504 0.931 . S
H521 C509 0.930 . S
H522 C510 0.956 . S
H523 C510 0.961 . S
H524 C510 0.961 . S
H525 C511 0.958 . S
H526 C511 0.961 . S
H527 C511 0.960 . S
C528 C529 1.391 . S
C528 C530 1.394 . S
C528 H544 0.931 . S
C529 C528 1.391 . S
C529 C533 1.376 . S
C530 C528 1.394 . S
C530 C531 1.369 . S
C530 C534 1.531 . S
C531 C530 1.369 . S
C531 C532 1.410 . S
C531 C539 1.503 . S
C532 C531 1.410 . S
C532 C533 1.392 . S
C532 C535 1.511 . S
C533 C529 1.376 . S
C533 C532 1.392 . S
C533 H545 0.929 . S
C534 C530 1.531 . S
C534 H546 0.960 . S
C534 H547 0.962 . S
C534 H548 0.960 . S
C535 C532 1.511 . S
C535 H549 0.961 . S
C535 H550 0.961 . S
C535 H551 0.961 . S
C536 C537 1.370 . S
C536 C538 1.363 . S
C536 H552 0.931 . S
C537 C536 1.370 . S
C537 C541 1.408 . S
C538 C536 1.363 . S
C538 C539 1.370 . S
C538 C542 1.524 . S
C539 C531 1.503 . S
C539 C538 1.370 . S
C539 C540 1.403 . S
C540 C539 1.403 . S
C540 C541 1.404 . S
C540 C543 1.539 . S
C541 C537 1.408 . S
C541 C540 1.404 . S
C541 H553 0.930 . S
C542 C538 1.524 . S
C542 H554 0.956 . S
C542 H555 0.961 . S
C542 H556 0.961 . S
C543 C540 1.539 . S
C543 H557 0.958 . S
C543 H558 0.961 . S
C543 H559 0.960 . S
H544 C528 0.931 . S
H545 C533 0.929 . S
H546 C534 0.960 . S
H547 C534 0.962 . S
H548 C534 0.960 . S
H549 C535 0.961 . S
H550 C535 0.961 . S
H551 C535 0.961 . S
H552 C536 0.931 . S
H553 C541 0.930 . S
H554 C542 0.956 . S
H555 C542 0.961 . S
H556 C542 0.961 . S
H557 C543 0.958 . S
H558 C543 0.961 . S
H559 C543 0.960 . S
C560 C561 1.391 . S
C560 C562 1.394 . S
C560 H576 0.931 . S
C561 C560 1.391 . S
C561 C565 1.376 . S
C562 C560 1.394 . S
C562 C563 1.369 . S
C562 C566 1.531 . S
C563 C562 1.369 . S
C563 C564 1.410 . S
C563 C571 1.503 . S
C564 C563 1.410 . S
C564 C565 1.392 . S
C564 C567 1.511 . S
C565 C561 1.376 . S
C565 C564 1.392 . S
C565 H577 0.929 . S
C566 C562 1.531 . S
C566 H578 0.960 . S
C566 H579 0.962 . S
C566 H580 0.960 . S
C567 C564 1.511 . S
C567 H581 0.961 . S
C567 H582 0.961 . S
C567 H583 0.961 . S
C568 C569 1.370 . S
C568 C570 1.363 . S
C568 H584 0.931 . S
C569 C568 1.370 . S
C569 C573 1.408 . S
C570 C568 1.363 . S
C570 C571 1.370 . S
C570 C574 1.524 . S
C571 C563 1.503 . S
C571 C570 1.370 . S
C571 C572 1.403 . S
C572 C571 1.403 . S
C572 C573 1.404 . S
C572 C575 1.539 . S
C573 C569 1.408 . S
C573 C572 1.404 . S
C573 H585 0.930 . S
C574 C570 1.524 . S
C574 H586 0.956 . S
C574 H587 0.961 . S
C574 H588 0.961 . S
C575 C572 1.539 . S
C575 H589 0.958 . S
C575 H590 0.961 . S
C575 H591 0.960 . S
H576 C560 0.931 . S
H577 C565 0.929 . S
H578 C566 0.960 . S
H579 C566 0.962 . S
H580 C566 0.960 . S
H581 C567 0.961 . S
H582 C567 0.961 . S
H583 C567 0.961 . S
H584 C568 0.931 . S
H585 C573 0.930 . S
H586 C574 0.956 . S
H587 C574 0.961 . S
H588 C574 0.961 . S
H589 C575 0.958 . S
H590 C575 0.961 . S
H591 C575 0.960 . S
C592 C593 1.391 . S
C592 C594 1.394 . S
C592 H608 0.931 . S
C593 C592 1.391 . S
C593 C597 1.376 . S
C594 C592 1.394 . S
C594 C595 1.369 . S
C594 C598 1.531 . S
C595 C594 1.369 . S
C595 C596 1.410 . S
C595 C603 1.503 . S
C596 C595 1.410 . S
C596 C597 1.392 . S
C596 C599 1.511 . S
C597 C593 1.376 . S
C597 C596 1.392 . S
C597 H609 0.929 . S
C598 C594 1.531 . S
C598 H610 0.960 . S
C598 H611 0.962 . S
C598 H612 0.960 . S
C599 C596 1.511 . S
C599 H613 0.961 . S
C599 H614 0.961 . S
C599 H615 0.961 . S
C600 C601 1.370 . S
C600 C602 1.363 . S
C600 H616 0.931 . S
C601 C600 1.370 . S
C601 C605 1.408 . S
C602 C600 1.363 . S
C602 C603 1.370 . S
C602 C606 1.524 . S
C603 C595 1.503 . S
C603 C602 1.370 . S
C603 C604 1.403 . S
C604 C603 1.403 . S
C604 C605 1.404 . S
C604 C607 1.539 . S
C605 C601 1.408 . S
C605 C604 1.404 . S
C605 H617 0.930 . S
C606 C602 1.524 . S
C606 H618 0.956 . S
C606 H619 0.961 . S
C606 H620 0.961 . S
C607 C604 1.539 . S
C607 H621 0.958 . S
C607 H622 0.961 . S
C607 H623 0.960 . S
H608 C592 0.931 . S
H609 C597 0.929 . S
H610 C598 0.960 . S
H611 C598 0.962 . S
H612 C598 0.960 . S
H613 C599 0.961 . S
H614 C599 0.961 . S
H615 C599 0.961 . S
H616 C600 0.931 . S
H617 C605 0.930 . S
H618 C606 0.956 . S
H619 C606 0.961 . S
H620 C606 0.961 . S
H621 C607 0.958 . S
H622 C607 0.961 . S
H623 C607 0.960 . S
C113 C39 1.455 . S
C121 C11 1.433 . S
C145 C53 1.518 . S
C153 C25 1.520 . S
C177 C67 1.502 . S
C185 C95 1.524 . S
C209 C81 1.440 . S
C217 C109 1.440 . S
C241 C23 1.087 1_545 S
C249 C5 1.070 . S
C273 C19 1.081 . S
C281 C28 1.147 1_455 S
C305 C51 1.110 1_565 S
C313 C33 1.081 . S
C337 C47 1.085 . S
C345 C0 1.148 1_655 S
C369 C98 1.141 1_545 S
C377 C61 1.115 . S
C401 C75 1.062 . S
C409 C65 1.104 1_455 S
C433 C89 1.158 . S
C441 C70 1.158 1_565 S
C465 C103 1.084 . S
C473 C93 1.102 1_655 S
C497 C9 1.674 . S
C505 C79 1.689 . S
C529 C84 1.647 . S
C537 C14 1.660 . S
C561 C37 1.675 . S
C569 C107 1.689 . S
C593 C42 1.659 . S
C601 C56 1.674 . S
