# Generated by pormake.
# Topology mer, (4)-cn, num edge types: 1
# Building blocks:
#     Node 0, Type 0, BuildingBlock: GALJAG_clean_sbu_0, # of connection points: 4
#     Node 1, Type 0, BuildingBlock: GALJAG_clean_sbu_0, # of connection points: 4
#     Node 2, Type 0, BuildingBlock: GALJAG_clean_sbu_0, # of connection points: 4
#     Node 3, Type 0, BuildingBlock: GALJAG_clean_sbu_0, # of connection points: 4
#     Node 4, Type 0, BuildingBlock: GALJAG_clean_sbu_0, # of connection points: 4
#     Node 5, Type 0, BuildingBlock: GALJAG_clean_sbu_0, # of connection points: 4
#     Node 6, Type 0, BuildingBlock: GALJAG_clean_sbu_0, # of connection points: 4
#     Node 7, Type 0, BuildingBlock: GALJAG_clean_sbu_0, # of connection points: 4
#     Node 8, Type 0, BuildingBlock: GALJAG_clean_sbu_0, # of connection points: 4
#     Node 9, Type 0, BuildingBlock: GALJAG_clean_sbu_0, # of connection points: 4
#     Node 10, Type 0, BuildingBlock: GALJAG_clean_sbu_0, # of connection points: 4
#     Node 11, Type 0, BuildingBlock: GALJAG_clean_sbu_0, # of connection points: 4
#     Node 12, Type 0, BuildingBlock: GALJAG_clean_sbu_0, # of connection points: 4
#     Node 13, Type 0, BuildingBlock: GALJAG_clean_sbu_0, # of connection points: 4
#     Node 14, Type 0, BuildingBlock: GALJAG_clean_sbu_0, # of connection points: 4
#     Node 15, Type 0, BuildingBlock: GALJAG_clean_sbu_0, # of connection points: 4
#     Node 16, Type 0, BuildingBlock: GALJAG_clean_sbu_0, # of connection points: 4
#     Node 17, Type 0, BuildingBlock: GALJAG_clean_sbu_0, # of connection points: 4
#     Node 18, Type 0, BuildingBlock: GALJAG_clean_sbu_0, # of connection points: 4
#     Node 19, Type 0, BuildingBlock: GALJAG_clean_sbu_0, # of connection points: 4
#     Node 20, Type 0, BuildingBlock: GALJAG_clean_sbu_0, # of connection points: 4
#     Node 21, Type 0, BuildingBlock: GALJAG_clean_sbu_0, # of connection points: 4
#     Node 22, Type 0, BuildingBlock: GALJAG_clean_sbu_0, # of connection points: 4
#     Node 23, Type 0, BuildingBlock: GALJAG_clean_sbu_0, # of connection points: 4
#     Node 24, Type 0, BuildingBlock: GALJAG_clean_sbu_0, # of connection points: 4
#     Node 25, Type 0, BuildingBlock: GALJAG_clean_sbu_0, # of connection points: 4
#     Node 26, Type 0, BuildingBlock: GALJAG_clean_sbu_0, # of connection points: 4
#     Node 27, Type 0, BuildingBlock: GALJAG_clean_sbu_0, # of connection points: 4
#     Node 28, Type 0, BuildingBlock: GALJAG_clean_sbu_0, # of connection points: 4
#     Node 29, Type 0, BuildingBlock: GALJAG_clean_sbu_0, # of connection points: 4
#     Node 30, Type 0, BuildingBlock: GALJAG_clean_sbu_0, # of connection points: 4
#     Node 31, Type 0, BuildingBlock: GALJAG_clean_sbu_0, # of connection points: 4
#     Edge 32, Type (0, 0), BuildingBlock: KIFKEQ_clean_linker_1, # of connection points: 2
#     Edge 33, Type (0, 0), BuildingBlock: KIFKEQ_clean_linker_1, # of connection points: 2
#     Edge 34, Type (0, 0), BuildingBlock: KIFKEQ_clean_linker_1, # of connection points: 2
#     Edge 35, Type (0, 0), BuildingBlock: KIFKEQ_clean_linker_1, # of connection points: 2
#     Edge 36, Type (0, 0), BuildingBlock: KIFKEQ_clean_linker_1, # of connection points: 2
#     Edge 37, Type (0, 0), BuildingBlock: KIFKEQ_clean_linker_1, # of connection points: 2
#     Edge 38, Type (0, 0), BuildingBlock: KIFKEQ_clean_linker_1, # of connection points: 2
#     Edge 39, Type (0, 0), BuildingBlock: KIFKEQ_clean_linker_1, # of connection points: 2
#     Edge 40, Type (0, 0), BuildingBlock: KIFKEQ_clean_linker_1, # of connection points: 2
#     Edge 41, Type (0, 0), BuildingBlock: KIFKEQ_clean_linker_1, # of connection points: 2
#     Edge 42, Type (0, 0), BuildingBlock: KIFKEQ_clean_linker_1, # of connection points: 2
#     Edge 43, Type (0, 0), BuildingBlock: KIFKEQ_clean_linker_1, # of connection points: 2
#     Edge 44, Type (0, 0), BuildingBlock: KIFKEQ_clean_linker_1, # of connection points: 2
#     Edge 45, Type (0, 0), BuildingBlock: KIFKEQ_clean_linker_1, # of connection points: 2
#     Edge 46, Type (0, 0), BuildingBlock: KIFKEQ_clean_linker_1, # of connection points: 2
#     Edge 47, Type (0, 0), BuildingBlock: KIFKEQ_clean_linker_1, # of connection points: 2
#     Edge 48, Type (0, 0), BuildingBlock: KIFKEQ_clean_linker_1, # of connection points: 2
#     Edge 49, Type (0, 0), BuildingBlock: KIFKEQ_clean_linker_1, # of connection points: 2
#     Edge 50, Type (0, 0), BuildingBlock: KIFKEQ_clean_linker_1, # of connection points: 2
#     Edge 51, Type (0, 0), BuildingBlock: KIFKEQ_clean_linker_1, # of connection points: 2
#     Edge 52, Type (0, 0), BuildingBlock: KIFKEQ_clean_linker_1, # of connection points: 2
#     Edge 53, Type (0, 0), BuildingBlock: KIFKEQ_clean_linker_1, # of connection points: 2
#     Edge 54, Type (0, 0), BuildingBlock: KIFKEQ_clean_linker_1, # of connection points: 2
#     Edge 55, Type (0, 0), BuildingBlock: KIFKEQ_clean_linker_1, # of connection points: 2
#     Edge 56, Type (0, 0), BuildingBlock: KIFKEQ_clean_linker_1, # of connection points: 2
#     Edge 57, Type (0, 0), BuildingBlock: KIFKEQ_clean_linker_1, # of connection points: 2
#     Edge 58, Type (0, 0), BuildingBlock: KIFKEQ_clean_linker_1, # of connection points: 2
#     Edge 59, Type (0, 0), BuildingBlock: KIFKEQ_clean_linker_1, # of connection points: 2
#     Edge 60, Type (0, 0), BuildingBlock: KIFKEQ_clean_linker_1, # of connection points: 2
#     Edge 61, Type (0, 0), BuildingBlock: KIFKEQ_clean_linker_1, # of connection points: 2
#     Edge 62, Type (0, 0), BuildingBlock: KIFKEQ_clean_linker_1, # of connection points: 2
#     Edge 63, Type (0, 0), BuildingBlock: KIFKEQ_clean_linker_1, # of connection points: 2
#     Edge 64, Type (0, 0), BuildingBlock: KIFKEQ_clean_linker_1, # of connection points: 2
#     Edge 65, Type (0, 0), BuildingBlock: KIFKEQ_clean_linker_1, # of connection points: 2
#     Edge 66, Type (0, 0), BuildingBlock: KIFKEQ_clean_linker_1, # of connection points: 2
#     Edge 67, Type (0, 0), BuildingBlock: KIFKEQ_clean_linker_1, # of connection points: 2
#     Edge 68, Type (0, 0), BuildingBlock: KIFKEQ_clean_linker_1, # of connection points: 2
#     Edge 69, Type (0, 0), BuildingBlock: KIFKEQ_clean_linker_1, # of connection points: 2
#     Edge 70, Type (0, 0), BuildingBlock: KIFKEQ_clean_linker_1, # of connection points: 2
#     Edge 71, Type (0, 0), BuildingBlock: KIFKEQ_clean_linker_1, # of connection points: 2
#     Edge 72, Type (0, 0), BuildingBlock: KIFKEQ_clean_linker_1, # of connection points: 2
#     Edge 73, Type (0, 0), BuildingBlock: KIFKEQ_clean_linker_1, # of connection points: 2
#     Edge 74, Type (0, 0), BuildingBlock: KIFKEQ_clean_linker_1, # of connection points: 2
#     Edge 75, Type (0, 0), BuildingBlock: KIFKEQ_clean_linker_1, # of connection points: 2
#     Edge 76, Type (0, 0), BuildingBlock: KIFKEQ_clean_linker_1, # of connection points: 2
#     Edge 77, Type (0, 0), BuildingBlock: KIFKEQ_clean_linker_1, # of connection points: 2
#     Edge 78, Type (0, 0), BuildingBlock: KIFKEQ_clean_linker_1, # of connection points: 2
#     Edge 79, Type (0, 0), BuildingBlock: KIFKEQ_clean_linker_1, # of connection points: 2
#     Edge 80, Type (0, 0), BuildingBlock: KIFKEQ_clean_linker_1, # of connection points: 2
#     Edge 81, Type (0, 0), BuildingBlock: KIFKEQ_clean_linker_1, # of connection points: 2
#     Edge 82, Type (0, 0), BuildingBlock: KIFKEQ_clean_linker_1, # of connection points: 2
#     Edge 83, Type (0, 0), BuildingBlock: KIFKEQ_clean_linker_1, # of connection points: 2
#     Edge 84, Type (0, 0), BuildingBlock: KIFKEQ_clean_linker_1, # of connection points: 2
#     Edge 85, Type (0, 0), BuildingBlock: KIFKEQ_clean_linker_1, # of connection points: 2
#     Edge 86, Type (0, 0), BuildingBlock: KIFKEQ_clean_linker_1, # of connection points: 2
#     Edge 87, Type (0, 0), BuildingBlock: KIFKEQ_clean_linker_1, # of connection points: 2
#     Edge 88, Type (0, 0), BuildingBlock: KIFKEQ_clean_linker_1, # of connection points: 2
#     Edge 89, Type (0, 0), BuildingBlock: KIFKEQ_clean_linker_1, # of connection points: 2
#     Edge 90, Type (0, 0), BuildingBlock: KIFKEQ_clean_linker_1, # of connection points: 2
#     Edge 91, Type (0, 0), BuildingBlock: KIFKEQ_clean_linker_1, # of connection points: 2
#     Edge 92, Type (0, 0), BuildingBlock: KIFKEQ_clean_linker_1, # of connection points: 2
#     Edge 93, Type (0, 0), BuildingBlock: KIFKEQ_clean_linker_1, # of connection points: 2
#     Edge 94, Type (0, 0), BuildingBlock: KIFKEQ_clean_linker_1, # of connection points: 2
#     Edge 95, Type (0, 0), BuildingBlock: KIFKEQ_clean_linker_1, # of connection points: 2
# Relax obj value: 0.054
# Max RMSD: 0.080
# Mean RMSD: 0.080
data_MOF--net-mer--node1-GALJAG_clean_sbu_0--edge1-KIFKEQ_clean_linker_1
_symmetry_space_group_name_H-M    P1
_symmetry_Int_Tables_number       1
_symmetry_cell_setting            triclinic
loop_
_symmetry_equiv_pos_as_xyz
'x, y, z'
_cell_length_a     64.988862
_cell_length_b     64.978058
_cell_length_c     55.486746
_cell_angle_alpha  90.045731
_cell_angle_beta   89.97941
_cell_angle_gamma 90.001859
loop_
_atom_site_label
_atom_site_type_symbol
_atom_site_fract_x
_atom_site_fract_y
_atom_site_fract_z
_atom_type_partial_charge
In0 In 0.1161 0.28096 0.35981 0.0
O1 O 0.12992 0.31011 0.34292 0.0
O2 O 0.11681 0.28747 0.31985 0.0
C3 C 0.11995 0.28608 0.40778 0.0
C4 C 0.14399 0.25096 0.35327 0.0
C5 C 0.07484 0.27974 0.35682 0.0
O6 O 0.12245 0.3009 0.39328 0.0
O7 O 0.11569 0.26909 0.39798 0.0
O8 O 0.08592 0.26443 0.35148 0.0
O9 O 0.0846 0.29552 0.36352 0.0
C10 C 0.1259 0.30453 0.32158 0.0
O11 O 0.1249 0.24782 0.35086 0.0
O12 O 0.14886 0.26915 0.35891 0.0
In13 In 0.71165 0.11281 0.35699 0.0
O14 O 0.74554 0.12168 0.35291 0.0
O15 O 0.72346 0.14559 0.35723 0.0
C16 C 0.71201 0.07201 0.34946 0.0
C17 C 0.68896 0.12388 0.31863 0.0
C18 C 0.70526 0.11367 0.40498 0.0
O19 O 0.72764 0.08313 0.34563 0.0
O20 O 0.6963 0.08155 0.35687 0.0
O21 O 0.69272 0.12194 0.39048 0.0
O22 O 0.72057 0.10519 0.39518 0.0
C23 C 0.74211 0.14078 0.35445 0.0
O24 O 0.68215 0.12547 0.33993 0.0
O25 O 0.7069 0.11663 0.31696 0.0
In26 In 0.88334 0.71321 0.36355 0.0
O27 O 0.87193 0.68347 0.34586 0.0
O28 O 0.87941 0.7089 0.32333 0.0
C29 C 0.88265 0.70474 0.41114 0.0
C30 C 0.8549 0.74335 0.36198 0.0
C31 C 0.92415 0.71562 0.35642 0.0
O32 O 0.87384 0.69317 0.39599 0.0
O33 O 0.89159 0.72013 0.40218 0.0
O34 O 0.91256 0.73118 0.35492 0.0
O35 O 0.91507 0.69892 0.3612 0.0
C36 C 0.87305 0.6906 0.32469 0.0
O37 O 0.87387 0.74692 0.35937 0.0
O38 O 0.85041 0.72469 0.36527 0.0
In39 In 0.28146 0.88129 0.36117 0.0
O40 O 0.31023 0.871 0.34066 0.0
O41 O 0.28228 0.87388 0.32111 0.0
C42 C 0.29622 0.87924 0.4066 0.0
C43 C 0.24914 0.85532 0.36428 0.0
C44 C 0.27922 0.92219 0.35487 0.0
O45 O 0.30137 0.86646 0.39055 0.0
O46 O 0.28398 0.89305 0.39965 0.0
O47 O 0.26347 0.91139 0.35931 0.0
O48 O 0.29587 0.91226 0.35334 0.0
C49 C 0.30116 0.86949 0.32061 0.0
O50 O 0.24714 0.8735 0.35658 0.0
O51 O 0.26719 0.85054 0.37034 0.0
In52 In 0.1152 0.70912 0.6345 0.0
O53 O 0.12383 0.74333 0.63551 0.0
O54 O 0.14789 0.72122 0.63363 0.0
C55 C 0.07453 0.71107 0.64264 0.0
C56 C 0.12577 0.68883 0.67487 0.0
C57 C 0.1163 0.697 0.58789 0.0
O58 O 0.08549 0.72705 0.64053 0.0
O59 O 0.08416 0.69426 0.64082 0.0
O60 O 0.12681 0.68809 0.60393 0.0
O61 O 0.10547 0.71173 0.59543 0.0
C62 C 0.14295 0.73995 0.63477 0.0
O63 O 0.12606 0.6803 0.65437 0.0
O64 O 0.12007 0.7074 0.67485 0.0
In65 In 0.28022 0.11377 0.6376 0.0
O66 O 0.30913 0.12681 0.65537 0.0
O67 O 0.28493 0.11596 0.67795 0.0
C68 C 0.28737 0.1177 0.5899 0.0
C69 C 0.24995 0.14165 0.64265 0.0
C70 C 0.279 0.07256 0.64167 0.0
O71 O 0.30092 0.1223 0.60534 0.0
O72 O 0.27073 0.11116 0.59864 0.0
O73 O 0.26301 0.08354 0.64308 0.0
O74 O 0.29552 0.0824 0.6385 0.0
C75 C 0.30251 0.12414 0.67658 0.0
O76 O 0.24657 0.12253 0.64382 0.0
O77 O 0.26848 0.14655 0.63908 0.0
In78 In 0.87874 0.28727 0.63902 0.0
O79 O 0.87011 0.25323 0.64218 0.0
O80 O 0.84617 0.27494 0.6363 0.0
C81 C 0.91905 0.28534 0.64895 0.0
C82 C 0.86696 0.30889 0.67798 0.0
C83 C 0.88019 0.29689 0.59167 0.0
O84 O 0.90805 0.26939 0.64683 0.0
O85 O 0.90961 0.3022 0.64639 0.0
O86 O 0.86847 0.30642 0.60604 0.0
O87 O 0.89083 0.28295 0.60125 0.0
C88 C 0.85109 0.25638 0.63947 0.0
O89 O 0.86712 0.31677 0.65712 0.0
O90 O 0.87278 0.29039 0.67893 0.0
In91 In 0.71294 0.8798 0.63471 0.0
O92 O 0.68402 0.86593 0.6519 0.0
O93 O 0.708 0.87666 0.67485 0.0
C94 C 0.7053 0.87921 0.58695 0.0
C95 C 0.74286 0.85136 0.63829 0.0
C96 C 0.71485 0.92079 0.64068 0.0
O97 O 0.6919 0.8735 0.60209 0.0
O98 O 0.7221 0.88503 0.59602 0.0
O99 O 0.73081 0.90974 0.63942 0.0
O100 O 0.69806 0.91112 0.63908 0.0
C101 C 0.69049 0.86842 0.67322 0.0
O102 O 0.74548 0.86979 0.64488 0.0
O103 O 0.72525 0.84742 0.62992 0.0
In104 In 0.87857 0.71011 0.63972 0.0
O105 O 0.87005 0.74382 0.64521 0.0
O106 O 0.84581 0.72184 0.64238 0.0
C107 C 0.9198 0.71113 0.64361 0.0
C108 C 0.8686 0.68703 0.67822 0.0
C109 C 0.87469 0.70475 0.59179 0.0
O110 O 0.90865 0.72623 0.64952 0.0
O111 O 0.91012 0.69564 0.6359 0.0
O112 O 0.87194 0.69 0.60633 0.0
O113 O 0.87921 0.72168 0.60154 0.0
C114 C 0.85089 0.74047 0.645 0.0
O115 O 0.865 0.68102 0.65693 0.0
O116 O 0.87731 0.70432 0.67977 0.0
In117 In 0.28407 0.87654 0.6312 0.0
O118 O 0.25029 0.86796 0.63678 0.0
O119 O 0.27197 0.8439 0.63063 0.0
C120 C 0.28043 0.9178 0.63295 0.0
C121 C 0.30617 0.86654 0.67071 0.0
C122 C 0.2944 0.87196 0.58448 0.0
O123 O 0.26579 0.90601 0.63872 0.0
O124 O 0.29662 0.90876 0.62629 0.0
O125 O 0.30782 0.87449 0.6007 0.0
O126 O 0.27605 0.87177 0.59185 0.0
C127 C 0.25346 0.84887 0.63434 0.0
O128 O 0.31149 0.86108 0.64978 0.0
O129 O 0.28997 0.87714 0.67156 0.0
In130 In 0.11419 0.28327 0.63693 0.0
O131 O 0.12283 0.24989 0.64522 0.0
O132 O 0.14614 0.27 0.63215 0.0
C133 C 0.0734 0.28354 0.64432 0.0
C134 C 0.12633 0.30607 0.67489 0.0
C135 C 0.11424 0.28936 0.58895 0.0
O136 O 0.08418 0.26754 0.64729 0.0
O137 O 0.08326 0.29931 0.63768 0.0
O138 O 0.12273 0.30198 0.60322 0.0
O139 O 0.10584 0.27411 0.59898 0.0
C140 C 0.14144 0.25216 0.63921 0.0
O141 O 0.12853 0.31235 0.65346 0.0
O142 O 0.11808 0.28862 0.67686 0.0
In143 In 0.71306 0.11681 0.63415 0.0
O144 O 0.68379 0.13027 0.65111 0.0
O145 O 0.70708 0.1185 0.67424 0.0
C146 C 0.70769 0.11937 0.58616 0.0
C147 C 0.74257 0.14553 0.63826 0.0
C148 C 0.71476 0.07562 0.63797 0.0
O149 O 0.69297 0.12252 0.60067 0.0
O150 O 0.72463 0.11493 0.59596 0.0
O151 O 0.73003 0.08693 0.64282 0.0
O152 O 0.69881 0.08514 0.63136 0.0
C153 C 0.68969 0.12695 0.67249 0.0
O154 O 0.74588 0.1268 0.64309 0.0
O155 O 0.72442 0.14964 0.63174 0.0
In156 In 0.87899 0.28143 0.3636 0.0
O157 O 0.86944 0.24874 0.35331 0.0
O158 O 0.84691 0.26845 0.36888 0.0
C159 C 0.91998 0.27979 0.35735 0.0
C160 C 0.8671 0.3041 0.3255 0.0
C161 C 0.87837 0.28936 0.4113 0.0
O162 O 0.90904 0.26377 0.35872 0.0
O163 O 0.91022 0.29651 0.35901 0.0
O164 O 0.87247 0.30257 0.39606 0.0
O165 O 0.88445 0.27259 0.40236 0.0
C166 C 0.85109 0.25094 0.36035 0.0
O167 O 0.86484 0.31038 0.34692 0.0
O168 O 0.8753 0.28659 0.32354 0.0
In169 In 0.71132 0.87733 0.35975 0.0
O170 O 0.68226 0.86426 0.34181 0.0
O171 O 0.70909 0.86852 0.32042 0.0
C172 C 0.70017 0.88013 0.40651 0.0
C173 C 0.74341 0.85113 0.36233 0.0
C174 C 0.71293 0.91758 0.34907 0.0
O175 O 0.69162 0.8675 0.39236 0.0
O176 O 0.71388 0.89115 0.39697 0.0
O177 O 0.72888 0.90714 0.35356 0.0
O178 O 0.69624 0.90762 0.34973 0.0
C179 C 0.69057 0.86281 0.32126 0.0
O180 O 0.74488 0.86863 0.35262 0.0
O181 O 0.72588 0.84699 0.37077 0.0
In182 In 0.11869 0.70911 0.36431 0.0
O183 O 0.12424 0.74397 0.3677 0.0
O184 O 0.14918 0.72473 0.3574 0.0
C185 C 0.07845 0.71596 0.35619 0.0
C186 C 0.13039 0.68682 0.32573 0.0
C187 C 0.12197 0.69261 0.40922 0.0
O188 O 0.08945 0.72865 0.36773 0.0
O189 O 0.08784 0.70021 0.34876 0.0
O190 O 0.10617 0.69066 0.39634 0.0
O191 O 0.13641 0.70223 0.39919 0.0
C192 C 0.14301 0.7427 0.36192 0.0
O193 O 0.13181 0.67986 0.34695 0.0
O194 O 0.12313 0.70476 0.32423 0.0
In195 In 0.28589 0.11812 0.36238 0.0
O196 O 0.31252 0.13674 0.34659 0.0
O197 O 0.29943 0.11303 0.32508 0.0
C198 C 0.29205 0.1261 0.4097 0.0
C199 C 0.25413 0.14287 0.35102 0.0
C200 C 0.28224 0.07687 0.36093 0.0
O201 O 0.30673 0.12152 0.39579 0.0
O202 O 0.2747 0.12685 0.39966 0.0
O203 O 0.26893 0.08868 0.3518 0.0
O204 O 0.29721 0.0859 0.37081 0.0
C205 C 0.31246 0.12733 0.32666 0.0
O206 O 0.25152 0.1245 0.35785 0.0
O207 O 0.27266 0.14852 0.34965 0.0
In208 In 0.61469 0.78358 0.85959 0.0
O209 O 0.62699 0.81295 0.84167 0.0
O210 O 0.62193 0.78646 0.81992 0.0
C211 C 0.61227 0.79296 0.90684 0.0
C212 C 0.64211 0.75253 0.86133 0.0
C213 C 0.57439 0.78239 0.84932 0.0
O214 O 0.62391 0.80287 0.89273 0.0
O215 O 0.60215 0.77868 0.89707 0.0
O216 O 0.58543 0.76636 0.84937 0.0
O217 O 0.58378 0.7989 0.85423 0.0
C218 C 0.62765 0.80497 0.82088 0.0
O219 O 0.62369 0.74978 0.85479 0.0
O220 O 0.64649 0.7708 0.86705 0.0
In221 In 0.21193 0.61768 0.86243 0.0
O222 O 0.18321 0.63198 0.84535 0.0
O223 O 0.20669 0.62034 0.82229 0.0
C224 C 0.20504 0.61895 0.91028 0.0
C225 C 0.24273 0.64523 0.85996 0.0
C226 C 0.21273 0.57669 0.85609 0.0
O227 O 0.19133 0.6243 0.89536 0.0
O228 O 0.22175 0.6132 0.90094 0.0
O229 O 0.2283 0.58786 0.85228 0.0
O230 O 0.19684 0.58625 0.86286 0.0
C231 C 0.18938 0.629 0.824 0.0
O232 O 0.24576 0.62612 0.85768 0.0
O233 O 0.2242 0.65034 0.86318 0.0
In234 In 0.3771 0.21394 0.86059 0.0
O235 O 0.36321 0.18495 0.84378 0.0
O236 O 0.37141 0.20978 0.82065 0.0
C237 C 0.37719 0.2061 0.90837 0.0
C238 C 0.34983 0.24508 0.8592 0.0
C239 C 0.4178 0.21451 0.85178 0.0
O240 O 0.3702 0.19321 0.89337 0.0
O241 O 0.38404 0.22242 0.89915 0.0
O242 O 0.40721 0.23077 0.85294 0.0
O243 O 0.40784 0.19807 0.85495 0.0
C244 C 0.36409 0.19187 0.8225 0.0
O245 O 0.3687 0.24769 0.85468 0.0
O246 O 0.34479 0.2268 0.86412 0.0
In247 In 0.77979 0.3805 0.86449 0.0
O248 O 0.80872 0.36727 0.84692 0.0
O249 O 0.78494 0.37876 0.82418 0.0
C250 C 0.78731 0.37808 0.91224 0.0
C251 C 0.7497 0.35232 0.86003 0.0
C252 C 0.77827 0.42166 0.85984 0.0
O253 O 0.80089 0.37339 0.89686 0.0
O254 O 0.77036 0.38367 0.90341 0.0
O255 O 0.76237 0.41055 0.85821 0.0
O256 O 0.79479 0.41196 0.86351 0.0
C257 C 0.80245 0.37046 0.82566 0.0
O258 O 0.74626 0.3714 0.85837 0.0
O259 O 0.76825 0.34757 0.86379 0.0
In260 In 0.61527 0.21427 0.13522 0.0
O261 O 0.62896 0.1849 0.15161 0.0
O262 O 0.61912 0.20877 0.1752 0.0
C263 C 0.61599 0.20831 0.08723 0.0
C264 C 0.64336 0.24457 0.13751 0.0
C265 C 0.57426 0.21494 0.14136 0.0
O266 O 0.62151 0.19435 0.10177 0.0
O267 O 0.61021 0.22486 0.09702 0.0
O268 O 0.58532 0.23058 0.14529 0.0
O269 O 0.58393 0.19915 0.13451 0.0
C270 C 0.62692 0.19111 0.17309 0.0
O271 O 0.62482 0.24736 0.1436 0.0
O272 O 0.64762 0.22655 0.13061 0.0
In273 In 0.78849 0.61713 0.13782 0.0
O274 O 0.75375 0.62352 0.13548 0.0
O275 O 0.77403 0.64874 0.14075 0.0
C276 C 0.78647 0.57647 0.14572 0.0
C277 C 0.81069 0.62702 0.17719 0.0
C278 C 0.80047 0.62065 0.0913 0.0
O279 O 0.77091 0.58803 0.14788 0.0
O280 O 0.8029 0.58551 0.13973 0.0
O281 O 0.80565 0.63361 0.10712 0.0
O282 O 0.78957 0.60605 0.09897 0.0
C283 C 0.75574 0.6427 0.13829 0.0
O284 O 0.81829 0.62754 0.15623 0.0
O285 O 0.79213 0.62145 0.17812 0.0
In286 In 0.3776 0.7852 0.13401 0.0
O287 O 0.362 0.8136 0.15063 0.0
O288 O 0.37381 0.7906 0.17404 0.0
C289 C 0.3786 0.79305 0.08637 0.0
C290 C 0.35018 0.75413 0.1347 0.0
C291 C 0.41845 0.7837 0.14141 0.0
O292 O 0.37197 0.8062 0.10132 0.0
O293 O 0.38451 0.77632 0.09556 0.0
O294 O 0.40703 0.76812 0.14393 0.0
O295 O 0.40922 0.8 0.13541 0.0
C296 C 0.36463 0.80758 0.17207 0.0
O297 O 0.36847 0.75194 0.14193 0.0
O298 O 0.34579 0.77194 0.1273 0.0
In299 In 0.20952 0.37735 0.13336 0.0
O300 O 0.18137 0.3631 0.15189 0.0
O301 O 0.20472 0.37616 0.17386 0.0
C302 C 0.19925 0.3734 0.08648 0.0
C303 C 0.2398 0.34935 0.13646 0.0
C304 C 0.21334 0.41856 0.13648 0.0
O305 O 0.18581 0.37517 0.10281 0.0
O306 O 0.2176 0.37365 0.09381 0.0
O307 O 0.22834 0.40661 0.14011 0.0
O308 O 0.19671 0.40971 0.13116 0.0
C309 C 0.18765 0.36703 0.17294 0.0
O310 O 0.24303 0.36837 0.13945 0.0
O311 O 0.22134 0.34456 0.13206 0.0
In312 In 0.37918 0.21069 0.13618 0.0
O313 O 0.36629 0.18179 0.1543 0.0
O314 O 0.37808 0.20587 0.17649 0.0
C315 C 0.37989 0.20095 0.08882 0.0
C316 C 0.35088 0.24105 0.1384 0.0
C317 C 0.41973 0.21293 0.14431 0.0
O318 O 0.36919 0.19078 0.10363 0.0
O319 O 0.38981 0.21565 0.09791 0.0
O320 O 0.40845 0.2288 0.1436 0.0
O321 O 0.41047 0.19604 0.14107 0.0
C322 C 0.36994 0.18827 0.17539 0.0
O323 O 0.36995 0.24466 0.13903 0.0
O324 O 0.34622 0.2223 0.1366 0.0
In325 In 0.78415 0.38174 0.13951 0.0
O326 O 0.81336 0.37011 0.15802 0.0
O327 O 0.78663 0.37537 0.17942 0.0
C328 C 0.79452 0.38281 0.09236 0.0
C329 C 0.75322 0.35412 0.13928 0.0
C330 C 0.78256 0.42212 0.14944 0.0
O331 O 0.8038 0.37121 0.10705 0.0
O332 O 0.78048 0.3936 0.10154 0.0
O333 O 0.76649 0.41144 0.14648 0.0
O334 O 0.7993 0.41234 0.14764 0.0
C335 C 0.80518 0.36968 0.17872 0.0
O336 O 0.75006 0.3731 0.14253 0.0
O337 O 0.77179 0.34927 0.13599 0.0
In338 In 0.61373 0.77822 0.13485 0.0
O339 O 0.62838 0.80651 0.15249 0.0
O340 O 0.61883 0.7817 0.17496 0.0
C341 C 0.61289 0.78665 0.08731 0.0
C342 C 0.64184 0.74783 0.13521 0.0
C343 C 0.57298 0.77777 0.14301 0.0
O344 O 0.61977 0.79952 0.10243 0.0
O345 O 0.60651 0.77003 0.09633 0.0
O346 O 0.58335 0.7614 0.14105 0.0
O347 O 0.58321 0.79419 0.14102 0.0
C348 C 0.62689 0.79933 0.17362 0.0
O349 O 0.62355 0.74497 0.14222 0.0
O350 O 0.64577 0.76589 0.12825 0.0
In351 In 0.21286 0.61351 0.13722 0.0
O352 O 0.18364 0.62415 0.15645 0.0
O353 O 0.21059 0.61879 0.17741 0.0
C354 C 0.20171 0.61282 0.09037 0.0
C355 C 0.24299 0.64199 0.13682 0.0
C356 C 0.21563 0.57294 0.14547 0.0
O357 O 0.19232 0.6239 0.10554 0.0
O358 O 0.2163 0.60241 0.09892 0.0
O359 O 0.2314 0.58413 0.14282 0.0
O360 O 0.19864 0.58234 0.14433 0.0
C361 C 0.19193 0.62417 0.17708 0.0
O362 O 0.24668 0.62312 0.14011 0.0
O363 O 0.22428 0.64631 0.13365 0.0
In364 In 0.38032 0.78495 0.86021 0.0
O365 O 0.3713 0.7514 0.85361 0.0
O366 O 0.3501 0.77067 0.8721 0.0
C367 C 0.42036 0.78169 0.84892 0.0
C368 C 0.36596 0.80518 0.82133 0.0
C369 C 0.38294 0.79788 0.90637 0.0
O370 O 0.40981 0.76644 0.85579 0.0
O371 O 0.41065 0.79849 0.84763 0.0
O372 O 0.36964 0.80509 0.89205 0.0
O373 O 0.3948 0.78468 0.89724 0.0
C374 C 0.35395 0.75308 0.86363 0.0
O375 O 0.36899 0.81424 0.8412 0.0
O376 O 0.36999 0.78621 0.8214 0.0
In377 In 0.20923 0.38142 0.86298 0.0
O378 O 0.18006 0.37088 0.84323 0.0
O379 O 0.20808 0.37218 0.82359 0.0
C380 C 0.19402 0.37974 0.90826 0.0
C381 C 0.24238 0.35648 0.86585 0.0
C382 C 0.21242 0.42211 0.85547 0.0
O383 O 0.19032 0.36596 0.8928 0.0
O384 O 0.20488 0.39446 0.90071 0.0
O385 O 0.22742 0.4114 0.86277 0.0
O386 O 0.19595 0.41223 0.85198 0.0
C387 C 0.18909 0.36833 0.82329 0.0
O388 O 0.24297 0.37348 0.85488 0.0
O389 O 0.22532 0.35236 0.87548 0.0
In390 In 0.61301 0.2112 0.85852 0.0
O391 O 0.62564 0.18172 0.84098 0.0
O392 O 0.6191 0.20751 0.8187 0.0
C393 C 0.61196 0.20365 0.90619 0.0
C394 C 0.64045 0.24223 0.85875 0.0
C395 C 0.57232 0.21173 0.85044 0.0
O396 O 0.62215 0.19234 0.89193 0.0
O397 O 0.60254 0.21837 0.89631 0.0
O398 O 0.58332 0.22768 0.84834 0.0
O399 O 0.58193 0.1956 0.8563 0.0
C400 C 0.62545 0.18924 0.81996 0.0
O401 O 0.62214 0.24468 0.85164 0.0
O402 O 0.64476 0.22425 0.86565 0.0
In403 In 0.78442 0.61769 0.86718 0.0
O404 O 0.81261 0.63153 0.84842 0.0
O405 O 0.79058 0.61587 0.82691 0.0
C406 C 0.79596 0.6257 0.91302 0.0
C407 C 0.75304 0.64429 0.86215 0.0
C408 C 0.77976 0.57641 0.86691 0.0
O409 O 0.8087 0.62017 0.89709 0.0
O410 O 0.77768 0.62737 0.90576 0.0
O411 O 0.76644 0.58832 0.85802 0.0
O412 O 0.7951 0.58534 0.87599 0.0
C413 C 0.80722 0.6258 0.82761 0.0
O414 O 0.75021 0.62556 0.86738 0.0
O415 O 0.77163 0.64945 0.85941 0.0
H416 H 0.25608 0.18088 0.33078 0.0
H417 H 0.21356 0.1375 0.36234 0.0
H418 H 0.22873 0.20638 0.32816 0.0
H419 H 0.18626 0.16327 0.36049 0.0
H420 H 0.1379 0.21097 0.33946 0.0
H421 H 0.1639 0.18396 0.33535 0.0
H422 H 0.21097 0.2272 0.35699 0.0
H423 H 0.18521 0.25411 0.3604 0.0
C424 C 0.24083 0.17677 0.33702 0.0
C425 C 0.23697 0.15729 0.34696 0.0
C426 C 0.22519 0.19142 0.33567 0.0
C427 C 0.20538 0.18699 0.34446 0.0
C428 C 0.2013 0.16715 0.3534 0.0
C429 C 0.21695 0.1524 0.35457 0.0
C430 C 0.15384 0.21466 0.34317 0.0
C431 C 0.15955 0.23463 0.35024 0.0
C432 C 0.1687 0.1992 0.34092 0.0
C433 C 0.18953 0.20343 0.34574 0.0
C434 C 0.19515 0.22347 0.35267 0.0
C435 C 0.18035 0.23889 0.35481 0.0
H436 H 0.78372 0.13479 0.35699 0.0
H437 H 0.73744 0.1821 0.34996 0.0
H438 H 0.81052 0.16117 0.358 0.0
H439 H 0.7641 0.20834 0.35004 0.0
H440 H 0.8128 0.25083 0.37996 0.0
H441 H 0.78705 0.22377 0.37789 0.0
H442 H 0.82832 0.18679 0.3347 0.0
H443 H 0.85445 0.21374 0.33757 0.0
C444 C 0.77932 0.15081 0.35539 0.0
C445 C 0.75852 0.15643 0.3536 0.0
C446 C 0.79466 0.16592 0.35584 0.0
C447 C 0.78946 0.18691 0.35432 0.0
C448 C 0.76864 0.19238 0.35182 0.0
C449 C 0.75335 0.17733 0.35161 0.0
C450 C 0.81638 0.23692 0.37002 0.0
C451 C 0.8356 0.2344 0.35888 0.0
C452 C 0.80156 0.22144 0.36869 0.0
C453 C 0.80552 0.20314 0.35594 0.0
C454 C 0.82484 0.20059 0.34486 0.0
C455 C 0.83976 0.21606 0.34638 0.0
H456 H 0.81341 0.73836 0.36146 0.0
H457 H 0.86072 0.78503 0.36161 0.0
H458 H 0.78708 0.76493 0.36148 0.0
H459 H 0.83431 0.81179 0.36249 0.0
H460 H 0.78043 0.85346 0.33908 0.0
H461 H 0.80781 0.8277 0.33867 0.0
H462 H 0.77255 0.78992 0.38774 0.0
H463 H 0.74502 0.81527 0.38741 0.0
C464 C 0.81817 0.75434 0.36163 0.0
C465 C 0.8391 0.75964 0.36159 0.0
C466 C 0.80307 0.76959 0.36182 0.0
C467 C 0.80855 0.79053 0.36222 0.0
C468 C 0.82954 0.79583 0.36195 0.0
C469 C 0.84468 0.78052 0.36156 0.0
C470 C 0.77862 0.83966 0.34982 0.0
C471 C 0.76056 0.83628 0.36315 0.0
C472 C 0.79434 0.82495 0.34969 0.0
C473 C 0.79233 0.80665 0.36302 0.0
C474 C 0.77444 0.80361 0.37684 0.0
C475 C 0.7587 0.8182 0.37679 0.0
H476 H 0.13501 0.78295 0.37405 0.0
H477 H 0.18299 0.74255 0.34814 0.0
H478 H 0.1597 0.81154 0.37516 0.0
H479 H 0.20731 0.77089 0.34896 0.0
H480 H 0.25072 0.81651 0.38197 0.0
H481 H 0.22387 0.79052 0.38147 0.0
H482 H 0.18217 0.83375 0.34819 0.0
H483 H 0.20921 0.86012 0.34898 0.0
C484 C 0.15074 0.78024 0.36842 0.0
C485 C 0.15713 0.76049 0.36123 0.0
C486 C 0.16482 0.79658 0.36898 0.0
C487 C 0.18549 0.79337 0.36246 0.0
C488 C 0.1916 0.77375 0.35458 0.0
C489 C 0.17762 0.75753 0.35399 0.0
C490 C 0.23581 0.82057 0.37465 0.0
C491 C 0.23212 0.84029 0.3653 0.0
C492 C 0.22045 0.80563 0.37426 0.0
C493 C 0.20101 0.81001 0.36446 0.0
C494 C 0.19701 0.82997 0.35588 0.0
C495 C 0.21248 0.84501 0.35625 0.0
H496 H 0.1374 0.78121 0.62726 0.0
H497 H 0.18364 0.73579 0.64426 0.0
H498 H 0.16379 0.80803 0.6272 0.0
H499 H 0.20975 0.76248 0.6454 0.0
H500 H 0.25553 0.80922 0.61929 0.0
H501 H 0.22836 0.78361 0.61924 0.0
H502 H 0.18671 0.82774 0.65137 0.0
H503 H 0.21388 0.85375 0.65028 0.0
C504 C 0.15317 0.77703 0.63121 0.0
C505 C 0.15853 0.75643 0.63554 0.0
C506 C 0.16828 0.79239 0.63134 0.0
C507 C 0.18898 0.78744 0.63611 0.0
C508 C 0.19411 0.76684 0.64104 0.0
C509 C 0.17911 0.75151 0.64055 0.0
C510 C 0.24058 0.81345 0.62637 0.0
C511 C 0.23683 0.83343 0.63489 0.0
C512 C 0.22499 0.79872 0.62649 0.0
C513 C 0.20533 0.80349 0.63553 0.0
C514 C 0.20158 0.82357 0.64402 0.0
C515 C 0.21716 0.83844 0.64357 0.0
H516 H 0.25461 0.18276 0.64925 0.0
H517 H 0.20837 0.13569 0.64 0.0
H518 H 0.22796 0.209 0.64996 0.0
H519 H 0.18158 0.16209 0.6397 0.0
H520 H 0.13736 0.21437 0.66042 0.0
H521 H 0.16335 0.18725 0.6631 0.0
H522 H 0.20554 0.22503 0.6222 0.0
H523 H 0.17997 0.25222 0.6204 0.0
C524 C 0.2387 0.17805 0.64731 0.0
C525 C 0.23354 0.15723 0.64442 0.0
C526 C 0.22342 0.1931 0.64755 0.0
C527 C 0.20262 0.18771 0.64455 0.0
C528 C 0.19742 0.16677 0.64226 0.0
C529 C 0.21275 0.15166 0.64231 0.0
C530 C 0.15222 0.2168 0.65206 0.0
C531 C 0.15671 0.23541 0.64033 0.0
C532 C 0.16707 0.20126 0.65348 0.0
C533 C 0.18661 0.204 0.64303 0.0
C534 C 0.19086 0.22255 0.63096 0.0
C535 C 0.17614 0.2381 0.62976 0.0
H536 H 0.74082 0.18411 0.61976 0.0
H537 H 0.78079 0.14276 0.65871 0.0
H538 H 0.76743 0.21031 0.62016 0.0
H539 H 0.80729 0.16942 0.66017 0.0
H540 H 0.8098 0.26058 0.64468 0.0
H541 H 0.78395 0.2336 0.64589 0.0
H542 H 0.83148 0.18773 0.63625 0.0
H543 H 0.85749 0.21488 0.63623 0.0
C544 C 0.75526 0.18073 0.62868 0.0
C545 C 0.75873 0.16143 0.63926 0.0
C546 C 0.7705 0.19581 0.62906 0.0
C547 C 0.78951 0.1921 0.64037 0.0
C548 C 0.79295 0.17275 0.65104 0.0
C549 C 0.77774 0.15752 0.65036 0.0
C550 C 0.81472 0.24472 0.64286 0.0
C551 C 0.83562 0.2398 0.64024 0.0
C552 C 0.79988 0.22923 0.64341 0.0
C553 C 0.80555 0.20844 0.64093 0.0
C554 C 0.82656 0.20353 0.63851 0.0
C555 C 0.84146 0.21907 0.63832 0.0
H556 H 0.80959 0.73642 0.65116 0.0
H557 H 0.85742 0.78191 0.64207 0.0
H558 H 0.78374 0.76351 0.65122 0.0
H559 H 0.83148 0.80907 0.64122 0.0
H560 H 0.78016 0.85439 0.66081 0.0
H561 H 0.80647 0.82771 0.66447 0.0
H562 H 0.7684 0.78623 0.6229 0.0
H563 H 0.74198 0.81257 0.62004 0.0
C564 C 0.81456 0.75225 0.64917 0.0
C565 C 0.83548 0.75707 0.6465 0.0
C566 C 0.79974 0.76777 0.64903 0.0
C567 C 0.80549 0.78847 0.64594 0.0
C568 C 0.82651 0.79333 0.64386 0.0
C569 C 0.84138 0.77777 0.64423 0.0
C570 C 0.77746 0.83954 0.65252 0.0
C571 C 0.75902 0.83552 0.64021 0.0
C572 C 0.79256 0.82429 0.65451 0.0
C573 C 0.78952 0.80477 0.64409 0.0
C574 C 0.77109 0.80091 0.63159 0.0
C575 C 0.75599 0.81607 0.62978 0.0
H576 H 0.63767 0.71262 0.84634 0.0
H577 H 0.68156 0.75505 0.8772 0.0
H578 H 0.66409 0.6858 0.84548 0.0
H579 H 0.70769 0.72827 0.87688 0.0
H580 H 0.75562 0.68439 0.84859 0.0
H581 H 0.72822 0.70989 0.84778 0.0
H582 H 0.6848 0.6639 0.87184 0.0
H583 H 0.71226 0.63817 0.87206 0.0
C584 C 0.6529 0.71615 0.85309 0.0
C585 C 0.6576 0.73593 0.86171 0.0
C586 C 0.668 0.70079 0.85269 0.0
C587 C 0.68804 0.70496 0.86092 0.0
C588 C 0.69254 0.72467 0.86995 0.0
C589 C 0.67751 0.73998 0.87028 0.0
C590 C 0.74021 0.67969 0.85357 0.0
C591 C 0.73609 0.65933 0.8605 0.0
C592 C 0.72452 0.69433 0.85327 0.0
C593 C 0.70436 0.68898 0.86001 0.0
C594 C 0.70013 0.66847 0.86639 0.0
C595 C 0.71586 0.65377 0.86662 0.0
H596 H 0.28415 0.63791 0.85982 0.0
H597 H 0.23923 0.6869 0.85983 0.0
H598 H 0.31182 0.66331 0.86171 0.0
H599 H 0.26675 0.71225 0.8609 0.0
H600 H 0.31811 0.75198 0.88884 0.0
H601 H 0.29191 0.72523 0.88827 0.0
H602 H 0.32893 0.68968 0.83865 0.0
H603 H 0.3555 0.71624 0.83991 0.0
C604 C 0.28022 0.65411 0.85999 0.0
C605 C 0.25956 0.66045 0.85978 0.0
C606 C 0.29605 0.66866 0.86097 0.0
C607 C 0.29151 0.68982 0.86165 0.0
C608 C 0.2708 0.69608 0.86095 0.0
C609 C 0.25502 0.68156 0.86013 0.0
C610 C 0.32071 0.73838 0.87795 0.0
C611 C 0.33878 0.73621 0.86434 0.0
C612 C 0.30563 0.72311 0.87747 0.0
C613 C 0.30819 0.70541 0.86317 0.0
C614 C 0.32653 0.70303 0.85 0.0
C615 C 0.34172 0.71827 0.85064 0.0
H616 H 0.35741 0.28637 0.85534 0.0
H617 H 0.30832 0.24215 0.86376 0.0
H618 H 0.33244 0.31443 0.85796 0.0
H619 H 0.28338 0.26998 0.8656 0.0
H620 H 0.2461 0.32254 0.89393 0.0
H621 H 0.27296 0.29653 0.89266 0.0
H622 H 0.30424 0.33072 0.83677 0.0
H623 H 0.27754 0.35721 0.83869 0.0
C624 C 0.34127 0.28266 0.85753 0.0
C625 C 0.3348 0.2621 0.85948 0.0
C626 C 0.32696 0.29872 0.85894 0.0
C627 C 0.30592 0.29447 0.86223 0.0
C628 C 0.29951 0.27384 0.86363 0.0
C629 C 0.31378 0.25785 0.86239 0.0
C630 C 0.25881 0.3246 0.88152 0.0
C631 C 0.25968 0.34181 0.8663 0.0
C632 C 0.27413 0.30961 0.88065 0.0
C633 C 0.29059 0.31135 0.86433 0.0
C634 C 0.29183 0.32896 0.84963 0.0
C635 C 0.27653 0.34409 0.85067 0.0
H636 H 0.67799 0.2419 0.88018 0.0
H637 H 0.63763 0.28013 0.83761 0.0
H638 H 0.70382 0.26894 0.88013 0.0
H639 H 0.66388 0.30705 0.83666 0.0
H640 H 0.7081 0.35837 0.86107 0.0
H641 H 0.68121 0.33211 0.86078 0.0
H642 H 0.72768 0.28482 0.85401 0.0
H643 H 0.75442 0.31097 0.85532 0.0
C644 C 0.67471 0.25608 0.87066 0.0
C645 C 0.65584 0.25891 0.85885 0.0
C646 C 0.68958 0.27154 0.87047 0.0
C647 C 0.68605 0.29014 0.85818 0.0
C648 C 0.66704 0.29303 0.84651 0.0
C649 C 0.65204 0.27759 0.84693 0.0
C650 C 0.71249 0.34234 0.85945 0.0
C651 C 0.73332 0.33667 0.85839 0.0
C652 C 0.6971 0.3273 0.85916 0.0
C653 C 0.70225 0.3063 0.85756 0.0
C654 C 0.72313 0.30078 0.85583 0.0
C655 C 0.73848 0.31577 0.8564 0.0
H656 H 0.68112 0.244 0.11668 0.0
H657 H 0.64062 0.28239 0.15898 0.0
H658 H 0.70697 0.27099 0.1168 0.0
H659 H 0.66694 0.30925 0.1601 0.0
H660 H 0.71163 0.36048 0.13718 0.0
H661 H 0.68456 0.33435 0.13653 0.0
H662 H 0.73074 0.28672 0.14273 0.0
H663 H 0.75759 0.3127 0.14226 0.0
C664 C 0.67784 0.25818 0.12622 0.0
C665 C 0.65892 0.26108 0.13791 0.0
C666 C 0.69272 0.27364 0.12643 0.0
C667 C 0.68917 0.29228 0.13867 0.0
C668 C 0.67013 0.2952 0.15027 0.0
C669 C 0.6551 0.27979 0.14979 0.0
C670 C 0.7159 0.3444 0.13836 0.0
C671 C 0.73668 0.33859 0.13958 0.0
C672 C 0.70042 0.32943 0.13815 0.0
C673 C 0.70544 0.30838 0.13942 0.0
C674 C 0.72628 0.30272 0.14114 0.0
C675 C 0.7417 0.31762 0.14103 0.0
H676 H 0.75707 0.68355 0.14815 0.0
H677 H 0.71504 0.63466 0.12915 0.0
H678 H 0.72888 0.70807 0.14773 0.0
H679 H 0.68667 0.65948 0.12812 0.0
H680 H 0.6387 0.70849 0.15267 0.0
H681 H 0.66572 0.68223 0.15378 0.0
H682 H 0.70732 0.72419 0.11805 0.0
H683 H 0.68067 0.75039 0.11751 0.0
C684 C 0.74178 0.67805 0.14379 0.0
C685 C 0.73827 0.65721 0.13854 0.0
C686 C 0.72563 0.69214 0.14342 0.0
C687 C 0.70556 0.68578 0.13761 0.0
C688 C 0.70194 0.66483 0.13279 0.0
C689 C 0.71817 0.65065 0.13326 0.0
C690 C 0.65363 0.71202 0.14505 0.0
C691 C 0.65765 0.73152 0.13519 0.0
C692 C 0.66906 0.69697 0.14556 0.0
C693 C 0.68873 0.70119 0.13621 0.0
C694 C 0.69249 0.72058 0.12587 0.0
C695 C 0.67716 0.73557 0.12545 0.0
H696 H 0.23756 0.68337 0.13847 0.0
H697 H 0.28472 0.63664 0.13528 0.0
H698 H 0.26377 0.71002 0.13845 0.0
H699 H 0.31114 0.6634 0.13421 0.0
H700 H 0.35333 0.71672 0.15684 0.0
H701 H 0.32765 0.68929 0.15777 0.0
H702 H 0.28768 0.72584 0.11253 0.0
H703 H 0.31293 0.75344 0.11253 0.0
C704 C 0.25357 0.67882 0.13756 0.0
C705 C 0.25912 0.65795 0.13681 0.0
C706 C 0.26863 0.6941 0.13738 0.0
C707 C 0.28961 0.68891 0.13611 0.0
C708 C 0.29515 0.66797 0.13548 0.0
C709 C 0.28004 0.65263 0.13595 0.0
C710 C 0.33902 0.71883 0.14714 0.0
C711 C 0.33504 0.73724 0.13476 0.0
C712 C 0.32436 0.70307 0.14753 0.0
C713 C 0.30551 0.70536 0.13533 0.0
C714 C 0.3018 0.72369 0.12258 0.0
C715 C 0.31633 0.73949 0.12244 0.0
H716 H 0.23795 0.3096 0.12147 0.0
H717 H 0.27898 0.35417 0.15346 0.0
H718 H 0.26516 0.28398 0.1222 0.0
H719 H 0.30611 0.32822 0.1553 0.0
H720 H 0.35606 0.2824 0.13168 0.0
H721 H 0.32942 0.30891 0.13143 0.0
H722 H 0.28369 0.26278 0.14851 0.0
H723 H 0.31013 0.23635 0.14757 0.0
C724 C 0.25276 0.31383 0.12892 0.0
C725 C 0.25635 0.33384 0.13745 0.0
C726 C 0.26836 0.2991 0.1295 0.0
C727 C 0.28786 0.30392 0.13898 0.0
C728 C 0.2914 0.324 0.14758 0.0
C729 C 0.27583 0.33885 0.14669 0.0
C730 C 0.34029 0.27801 0.1354 0.0
C731 C 0.33511 0.25733 0.13946 0.0
C732 C 0.32503 0.2932 0.13541 0.0
C733 C 0.30432 0.28801 0.13978 0.0
C734 C 0.29935 0.26732 0.14448 0.0
C735 C 0.31453 0.25216 0.14412 0.0
H736 H 0.94555 0.31169 0.34707 0.0
H737 H 0.94528 0.2465 0.36213 0.0
H738 H 0.98295 0.31126 0.34501 0.0
H739 H 0.98283 0.24614 0.36101 0.0
H740 H 0.05023 0.24969 0.33784 0.0
H741 H 0.01267 0.24941 0.33585 0.0
H742 H 0.011 0.30831 0.37211 0.0
H743 H 0.04837 0.30888 0.37326 0.0
C744 C 0.95353 0.29727 0.34998 0.0
C745 C 0.94255 0.27915 0.35489 0.0
C746 C 0.97497 0.29703 0.34895 0.0
C747 C 0.98594 0.27871 0.35311 0.0
C748 C 0.97488 0.26048 0.35748 0.0
C749 C 0.95338 0.26068 0.35826 0.0
C750 C 0.04177 0.26258 0.34529 0.0
C751 C 0.05218 0.27933 0.35563 0.0
C752 C 0.02027 0.26238 0.34427 0.0
C753 C 0.00879 0.27888 0.35374 0.0
C754 C 0.01932 0.29555 0.36419 0.0
C755 C 0.04076 0.29582 0.36501 0.0
H756 H 0.68165 0.0451 0.3613 0.0
H757 H 0.74275 0.04808 0.33082 0.0
H758 H 0.68235 0.00779 0.35846 0.0
H759 H 0.74323 0.0106 0.32718 0.0
H760 H 0.74555 0.94347 0.35515 0.0
H761 H 0.74544 0.98092 0.35278 0.0
H762 H 0.6816 0.97964 0.33095 0.0
H763 H 0.68156 0.94225 0.33419 0.0
C764 C 0.69514 0.03777 0.35369 0.0
C765 C 0.71217 0.04947 0.34635 0.0
C766 C 0.69549 0.01636 0.35188 0.0
C767 C 0.71283 0.00617 0.34252 0.0
C768 C 0.72974 0.01795 0.33475 0.0
C769 C 0.72943 0.0394 0.33671 0.0
C770 C 0.73157 0.95121 0.34962 0.0
C771 C 0.71351 0.94 0.34507 0.0
C772 C 0.73152 0.97267 0.34812 0.0
C773 C 0.71346 0.98332 0.34187 0.0
C774 C 0.69565 0.97196 0.33631 0.0
C775 C 0.69566 0.95053 0.33801 0.0
H776 H 0.05306 0.7451 0.37598 0.0
H777 H 0.05333 0.69213 0.32887 0.0
H778 H 0.01546 0.74623 0.37378 0.0
H779 H 0.01599 0.69349 0.32631 0.0
H780 H 0.95141 0.68395 0.35739 0.0
H781 H 0.98873 0.68576 0.35507 0.0
H782 H 0.98534 0.75181 0.34702 0.0
H783 H 0.94777 0.75001 0.3497 0.0
C784 C 0.04511 0.73393 0.36486 0.0
C785 C 0.05607 0.71839 0.35283 0.0
C786 C 0.02361 0.73462 0.36352 0.0
C787 C 0.01277 0.71979 0.3501 0.0
C788 C 0.02388 0.70488 0.33718 0.0
C789 C 0.04528 0.70416 0.33856 0.0
C790 C 0.9586 0.69885 0.35497 0.0
C791 C 0.9467 0.71683 0.35373 0.0
C792 C 0.97998 0.69988 0.3535 0.0
C793 C 0.98997 0.71892 0.35076 0.0
C794 C 0.97806 0.73694 0.3493 0.0
C795 C 0.95659 0.73589 0.3507 0.0
H796 H 0.24609 0.94758 0.36136 0.0
H797 H 0.31108 0.94791 0.34494 0.0
H798 H 0.2461 0.98522 0.3622 0.0
H799 H 0.31102 0.98536 0.34537 0.0
H800 H 0.30921 0.04903 0.37925 0.0
H801 H 0.30761 0.01169 0.3765 0.0
H802 H 0.25067 0.01612 0.33666 0.0
H803 H 0.25211 0.05367 0.33977 0.0
C804 C 0.26029 0.9557 0.35764 0.0
C805 C 0.27861 0.94484 0.35326 0.0
C806 C 0.26029 0.97723 0.35804 0.0
C807 C 0.27861 0.98823 0.3541 0.0
C808 C 0.29675 0.97731 0.34893 0.0
C809 C 0.29675 0.95586 0.34854 0.0
C810 C 0.29632 0.04206 0.36994 0.0
C811 C 0.28081 0.05425 0.35966 0.0
C812 C 0.29548 0.02067 0.36822 0.0
C813 C 0.27911 0.01098 0.35617 0.0
C814 C 0.26341 0.02316 0.34617 0.0
C815 C 0.26427 0.04462 0.34787 0.0
H816 H 0.04921 0.74442 0.63831 0.0
H817 H 0.04911 0.67933 0.654 0.0
H818 H 0.01167 0.74476 0.63999 0.0
H819 H 0.01173 0.67975 0.65654 0.0
H820 H 0.94643 0.68201 0.62747 0.0
H821 H 0.98378 0.6826 0.62901 0.0
H822 H 0.98181 0.74141 0.66546 0.0
H823 H 0.94424 0.74107 0.66316 0.0
C824 C 0.04116 0.73027 0.64248 0.0
C825 C 0.05203 0.71181 0.64581 0.0
C826 C 0.01967 0.73047 0.64356 0.0
C827 C 0.00867 0.71224 0.64817 0.0
C828 C 0.01968 0.69397 0.65241 0.0
C829 C 0.04111 0.69374 0.65111 0.0
C830 C 0.95396 0.69504 0.63586 0.0
C831 C 0.94245 0.71149 0.64519 0.0
C832 C 0.97539 0.69533 0.63691 0.0
C833 C 0.98582 0.71199 0.64751 0.0
C834 C 0.97426 0.72844 0.65696 0.0
C835 C 0.95277 0.72821 0.65576 0.0
H836 H 0.25072 0.94118 0.65472 0.0
H837 H 0.30732 0.9454 0.61421 0.0
H838 H 0.24994 0.97867 0.65853 0.0
H839 H 0.30619 0.98267 0.61713 0.0
H840 H 0.31143 0.04655 0.64674 0.0
H841 H 0.31105 0.00913 0.64583 0.0
H842 H 0.245 0.00995 0.63646 0.0
H843 H 0.24538 0.0475 0.63839 0.0
C844 C 0.26286 0.95015 0.64644 0.0
C845 C 0.27914 0.94042 0.6343 0.0
C846 C 0.26239 0.97161 0.64852 0.0
C847 C 0.27811 0.98371 0.63833 0.0
C848 C 0.2941 0.97386 0.62573 0.0
C849 C 0.29467 0.95248 0.62387 0.0
C850 C 0.29682 0.03871 0.64467 0.0
C851 C 0.27845 0.04989 0.64252 0.0
C852 C 0.2966 0.01726 0.64396 0.0
C853 C 0.27802 0.00649 0.64074 0.0
C854 C 0.25955 0.01772 0.63917 0.0
C855 C 0.25977 0.03923 0.64016 0.0
H856 H 0.04682 0.3141 0.63224 0.0
H857 H 0.0493 0.25347 0.66396 0.0
H858 H 0.00957 0.3141 0.636 0.0
H859 H 0.01194 0.25374 0.66868 0.0
H860 H 0.94412 0.252 0.64379 0.0
H861 H 0.9816 0.25147 0.64485 0.0
H862 H 0.98202 0.31606 0.66371 0.0
H863 H 0.94459 0.3167 0.66159 0.0
C864 C 0.03938 0.30087 0.64032 0.0
C865 C 0.05092 0.28376 0.64773 0.0
C866 C 0.01802 0.30092 0.64266 0.0
C867 C 0.00771 0.28394 0.65274 0.0
C868 C 0.01934 0.26695 0.66055 0.0
C869 C 0.04074 0.26682 0.65796 0.0
C870 C 0.95226 0.26601 0.6484 0.0
C871 C 0.94151 0.28443 0.65239 0.0
C872 C 0.97374 0.2657 0.64913 0.0
C873 C 0.98487 0.28378 0.65415 0.0
C874 C 0.97397 0.30197 0.65924 0.0
C875 C 0.95253 0.30233 0.6582 0.0
H876 H 0.74512 0.05146 0.65711 0.0
H877 H 0.6857 0.04874 0.62241 0.0
H878 H 0.74556 0.01392 0.65998 0.0
H879 H 0.68641 0.01142 0.62444 0.0
H880 H 0.68315 0.94657 0.65103 0.0
H881 H 0.68367 0.98399 0.65239 0.0
H882 H 0.74865 0.98351 0.63561 0.0
H883 H 0.74821 0.94593 0.63521 0.0
C884 C 0.73222 0.04282 0.65001 0.0
C885 C 0.71535 0.05299 0.63963 0.0
C886 C 0.73251 0.02133 0.65154 0.0
C887 C 0.71597 0.00963 0.64256 0.0
C888 C 0.6992 0.01992 0.63202 0.0
C889 C 0.69885 0.04133 0.63069 0.0
C890 C 0.69757 0.95447 0.64782 0.0
C891 C 0.71561 0.94338 0.64287 0.0
C892 C 0.69786 0.97592 0.64843 0.0
C893 C 0.71615 0.98679 0.6438 0.0
C894 C 0.73434 0.97564 0.63947 0.0
C895 C 0.73408 0.95412 0.63912 0.0
H896 H 0.54748 0.81416 0.85358 0.0
H897 H 0.55075 0.74945 0.83612 0.0
H898 H 0.51026 0.81304 0.85019 0.0
H899 H 0.51334 0.74842 0.83184 0.0
H900 H 0.44625 0.75018 0.8604 0.0
H901 H 0.48366 0.74984 0.85727 0.0
H902 H 0.48206 0.80972 0.82337 0.0
H903 H 0.44474 0.81035 0.82744 0.0
C904 C 0.54023 0.79975 0.84863 0.0
C905 C 0.55198 0.78186 0.84523 0.0
C906 C 0.51887 0.79913 0.8465 0.0
C907 C 0.50876 0.78064 0.84071 0.0
C908 C 0.52061 0.76285 0.83664 0.0
C909 C 0.54203 0.76345 0.83895 0.0
C910 C 0.45392 0.76315 0.85204 0.0
C911 C 0.44266 0.78039 0.84441 0.0
C912 C 0.47535 0.76292 0.85011 0.0
C913 C 0.48591 0.77985 0.84027 0.0
C914 C 0.47447 0.79663 0.83153 0.0
C915 C 0.45308 0.79695 0.83372 0.0
H916 H 0.24421 0.44761 0.86751 0.0
H917 H 0.18319 0.44736 0.83666 0.0
H918 H 0.24474 0.48515 0.86562 0.0
H919 H 0.18391 0.48476 0.83416 0.0
H920 H 0.18144 0.55001 0.86499 0.0
H921 H 0.18218 0.51265 0.86272 0.0
H922 H 0.24545 0.51485 0.83884 0.0
H923 H 0.24483 0.5524 0.84169 0.0
C924 C 0.23104 0.45558 0.86002 0.0
C925 C 0.21359 0.44461 0.85243 0.0
C926 C 0.23138 0.47706 0.85881 0.0
C927 C 0.21429 0.48795 0.84992 0.0
C928 C 0.19716 0.47686 0.84153 0.0
C929 C 0.19678 0.45543 0.84285 0.0
C930 C 0.19548 0.54254 0.85914 0.0
C931 C 0.21309 0.5541 0.85355 0.0
C932 C 0.19587 0.52112 0.85768 0.0
C933 C 0.21386 0.51077 0.85051 0.0
C934 C 0.23143 0.52237 0.84465 0.0
C935 C 0.23104 0.54385 0.84615 0.0
H936 H 0.44408 0.24699 0.85635 0.0
H937 H 0.44206 0.18226 0.8389 0.0
H938 H 0.48152 0.24635 0.85381 0.0
H939 H 0.47938 0.18174 0.83516 0.0
H940 H 0.54534 0.18161 0.86273 0.0
H941 H 0.50804 0.18269 0.8608 0.0
H942 H 0.51099 0.24337 0.82898 0.0
H943 H 0.54847 0.24257 0.832 0.0
C944 C 0.45166 0.23271 0.85155 0.0
C945 C 0.44024 0.21463 0.84805 0.0
C946 C 0.47312 0.23235 0.84993 0.0
C947 C 0.48355 0.21394 0.84446 0.0
C948 C 0.47193 0.19607 0.83998 0.0
C949 C 0.45053 0.19638 0.84196 0.0
C950 C 0.53802 0.19513 0.85518 0.0
C951 C 0.54977 0.21203 0.84758 0.0
C952 C 0.5166 0.19571 0.8539 0.0
C953 C 0.50642 0.21311 0.84467 0.0
C954 C 0.51827 0.22985 0.83653 0.0
C955 C 0.53974 0.22936 0.8381 0.0
H956 H 0.74439 0.44663 0.86006 0.0
H957 H 0.8108 0.44778 0.85721 0.0
H958 H 0.74381 0.48424 0.86164 0.0
H959 H 0.81026 0.48519 0.858 0.0
H960 H 0.80432 0.54875 0.88951 0.0
H961 H 0.80304 0.51145 0.88695 0.0
H962 H 0.75071 0.51551 0.83912 0.0
H963 H 0.75164 0.55306 0.84234 0.0
C964 C 0.75883 0.45494 0.85945 0.0
C965 C 0.77764 0.44432 0.85873 0.0
C966 C 0.75851 0.47646 0.86026 0.0
C967 C 0.777 0.48771 0.86024 0.0
C968 C 0.79575 0.477 0.85864 0.0
C969 C 0.79607 0.45556 0.85801 0.0
C970 C 0.79248 0.54169 0.87853 0.0
C971 C 0.77813 0.55379 0.86604 0.0
C972 C 0.79184 0.5203 0.8769 0.0
C973 C 0.77695 0.51049 0.86256 0.0
C974 C 0.7623 0.52259 0.85043 0.0
C975 C 0.76286 0.54408 0.8522 0.0
H976 H 0.44556 0.18153 0.15557 0.0
H977 H 0.44453 0.24663 0.14004 0.0
H978 H 0.48295 0.18243 0.15779 0.0
H979 H 0.48206 0.24745 0.14118 0.0
H980 H 0.54999 0.24491 0.16123 0.0
H981 H 0.51251 0.24474 0.16508 0.0
H982 H 0.5104 0.18525 0.13016 0.0
H983 H 0.54765 0.18513 0.12726 0.0
C984 C 0.45338 0.19604 0.15264 0.0
C985 C 0.44221 0.21397 0.14745 0.0
C986 C 0.47481 0.19656 0.15375 0.0
C987 C 0.48557 0.21496 0.14932 0.0
C988 C 0.47429 0.23305 0.14491 0.0
C989 C 0.4528 0.23258 0.14412 0.0
C990 C 0.54145 0.23178 0.15454 0.0
C991 C 0.5517 0.21501 0.144 0.0
C992 C 0.51999 0.23172 0.15662 0.0
C993 C 0.50841 0.21495 0.14803 0.0
C994 C 0.51879 0.19822 0.13748 0.0
C995 C 0.54017 0.19821 0.13562 0.0
H996 H 0.8165 0.54864 0.13602 0.0
H997 H 0.75429 0.55357 0.16281 0.0
H998 H 0.81479 0.51145 0.13956 0.0
H999 H 0.75277 0.51618 0.16729 0.0
H1000 H 0.75031 0.44821 0.14187 0.0
H1001 H 0.75087 0.48573 0.14326 0.0
H1002 H 0.8141 0.48403 0.16744 0.0
H1003 H 0.81372 0.44662 0.165 0.0
C1004 C 0.80253 0.54176 0.14298 0.0
C1005 C 0.78552 0.55398 0.1491 0.0
C1006 C 0.80159 0.52041 0.14521 0.0
C1007 C 0.78367 0.51077 0.15385 0.0
C1008 C 0.76672 0.52307 0.16031 0.0
C1009 C 0.76762 0.54448 0.15787 0.0
C1010 C 0.76423 0.4559 0.14772 0.0
C1011 C 0.78204 0.44457 0.15308 0.0
C1012 C 0.76454 0.4774 0.14864 0.0
C1013 C 0.78261 0.48795 0.1552 0.0
C1014 C 0.80008 0.47645 0.16173 0.0
C1015 C 0.79984 0.45501 0.1605 0.0
H1016 H 0.44627 0.81326 0.12966 0.0
H1017 H 0.44145 0.75207 0.15945 0.0
H1018 H 0.48355 0.81131 0.13215 0.0
H1019 H 0.47887 0.75035 0.16292 0.0
H1020 H 0.5462 0.74585 0.13678 0.0
H1021 H 0.5087 0.74715 0.13833 0.0
H1022 H 0.51168 0.81128 0.15898 0.0
H1023 H 0.54904 0.81011 0.15636 0.0
C1024 C 0.45321 0.79949 0.13707 0.0
C1025 C 0.44099 0.7828 0.14431 0.0
C1026 C 0.4746 0.79841 0.13867 0.0
C1027 C 0.48427 0.78069 0.14782 0.0
C1028 C 0.47196 0.76412 0.15547 0.0
C1029 C 0.45053 0.76514 0.15363 0.0
C1030 C 0.53878 0.76015 0.14182 0.0
C1031 C 0.55047 0.77792 0.14623 0.0
C1032 C 0.5173 0.76089 0.14285 0.0
C1033 C 0.50711 0.77938 0.14857 0.0
C1034 C 0.51895 0.79691 0.15395 0.0
C1035 C 0.54038 0.79622 0.15261 0.0
H1036 H 0.18436 0.44663 0.12408 0.0
H1037 H 0.24553 0.44136 0.15387 0.0
H1038 H 0.18598 0.48379 0.12822 0.0
H1039 H 0.24695 0.47877 0.15881 0.0
H1040 H 0.2487 0.54798 0.13713 0.0
H1041 H 0.24898 0.51039 0.13606 0.0
H1042 H 0.1853 0.50963 0.15862 0.0
H1043 H 0.18488 0.54706 0.15879 0.0
C1044 C 0.19813 0.45344 0.13166 0.0
C1045 C 0.2148 0.44112 0.1387 0.0
C1046 C 0.199 0.47475 0.13424 0.0
C1047 C 0.21649 0.48427 0.14414 0.0
C1048 C 0.2333 0.47193 0.15098 0.0
C1049 C 0.23247 0.45054 0.14823 0.0
C1050 C 0.23487 0.53972 0.14211 0.0
C1051 C 0.21671 0.55039 0.14779 0.0
C1052 C 0.23503 0.5182 0.14158 0.0
C1053 C 0.21708 0.507 0.14691 0.0
C1054 C 0.19925 0.51777 0.1538 0.0
C1055 C 0.19903 0.53922 0.15408 0.0
H1056 H 0.12068 0.25522 0.44047 0.0
H1057 H 0.12173 0.32151 0.4349 0.0
H1058 H 0.11987 0.25779 0.48406 0.0
H1059 H 0.1204 0.32414 0.47903 0.0
H1060 H 0.137 0.31616 0.56134 0.0
H1061 H 0.13945 0.31679 0.51718 0.0
H1062 H 0.09422 0.26818 0.51307 0.0
H1063 H 0.09219 0.26723 0.55671 0.0
C1064 C 0.12074 0.27039 0.4486 0.0
C1065 C 0.12106 0.28817 0.43427 0.0
C1066 C 0.12015 0.27187 0.47362 0.0
C1067 C 0.11967 0.29118 0.48503 0.0
C1068 C 0.12076 0.30904 0.47076 0.0
C1069 C 0.12147 0.30755 0.44554 0.0
C1070 C 0.12751 0.30576 0.55089 0.0
C1071 C 0.11459 0.29148 0.56244 0.0
C1072 C 0.12886 0.30615 0.52566 0.0
C1073 C 0.11729 0.29229 0.51164 0.0
C1074 C 0.10375 0.27869 0.52332 0.0
C1075 C 0.10249 0.27823 0.54836 0.0
H1076 H 0.6723 0.12115 0.55895 0.0
H1077 H 0.73859 0.11991 0.55355 0.0
H1078 H 0.6698 0.11993 0.51478 0.0
H1079 H 0.73616 0.11924 0.50997 0.0
H1080 H 0.72704 0.09159 0.43741 0.0
H1081 H 0.72579 0.09359 0.481 0.0
H1082 H 0.67742 0.13904 0.47657 0.0
H1083 H 0.67835 0.13662 0.43238 0.0
C1084 C 0.68629 0.12084 0.54834 0.0
C1085 C 0.70563 0.12033 0.55967 0.0
C1086 C 0.68487 0.12022 0.52311 0.0
C1087 C 0.70278 0.11912 0.50889 0.0
C1088 C 0.72205 0.11951 0.52037 0.0
C1089 C 0.72345 0.12 0.54539 0.0
C1090 C 0.71603 0.10195 0.44565 0.0
C1091 C 0.70295 0.11412 0.43147 0.0
C1092 C 0.71539 0.10318 0.47068 0.0
C1093 C 0.70179 0.11678 0.48227 0.0
C1094 C 0.68807 0.12842 0.46816 0.0
C1095 C 0.68864 0.12709 0.44291 0.0
H1096 H 0.85815 0.67817 0.43705 0.0
H1097 H 0.90592 0.72394 0.44464 0.0
H1098 H 0.85511 0.67623 0.48117 0.0
H1099 H 0.90319 0.72174 0.48816 0.0
H1100 H 0.87468 0.73571 0.55934 0.0
H1101 H 0.87612 0.73337 0.51579 0.0
H1102 H 0.8741 0.66703 0.52018 0.0
H1103 H 0.87229 0.66941 0.56439 0.0
C1104 C 0.86817 0.68755 0.44813 0.0
C1105 C 0.88205 0.70143 0.43746 0.0
C1106 C 0.86647 0.68641 0.47331 0.0
C1107 C 0.87864 0.69913 0.48808 0.0
C1108 C 0.89323 0.71213 0.47727 0.0
C1109 C 0.89486 0.71332 0.45231 0.0
C1110 C 0.87442 0.72059 0.55111 0.0
C1111 C 0.87363 0.70273 0.5653 0.0
C1112 C 0.87535 0.71925 0.52612 0.0
C1113 C 0.87565 0.70001 0.51458 0.0
C1114 C 0.87393 0.68207 0.52863 0.0
C1115 C 0.87294 0.68342 0.55386 0.0
H1116 H 0.27285 0.85131 0.55045 0.0
H1117 H 0.3269 0.88899 0.56048 0.0
H1118 H 0.27866 0.85133 0.5069 0.0
H1119 H 0.33227 0.88961 0.5166 0.0
H1120 H 0.29906 0.90978 0.43984 0.0
H1121 H 0.30364 0.90597 0.48339 0.0
H1122 H 0.31009 0.84031 0.4746 0.0
H1123 H 0.30621 0.84416 0.43082 0.0
C1124 C 0.28611 0.85937 0.54331 0.0
C1125 C 0.29942 0.87018 0.55869 0.0
C1126 C 0.28949 0.85928 0.51848 0.0
C1127 C 0.30593 0.87041 0.50857 0.0
C1128 C 0.31957 0.88083 0.52395 0.0
C1129 C 0.31651 0.88045 0.54893 0.0
C1130 C 0.302 0.89461 0.44716 0.0
C1131 C 0.30224 0.87725 0.43208 0.0
C1132 C 0.30471 0.89246 0.472 0.0
C1133 C 0.30722 0.87287 0.48217 0.0
C1134 C 0.30828 0.85557 0.46703 0.0
C1135 C 0.3061 0.85779 0.44209 0.0
H1136 H 0.15416 0.69585 0.44065 0.0
H1137 H 0.09069 0.67649 0.43595 0.0
H1138 H 0.15289 0.69217 0.48445 0.0
H1139 H 0.08947 0.67279 0.4797 0.0
H1140 H 0.08849 0.70737 0.55368 0.0
H1141 H 0.09043 0.70113 0.51051 0.0
H1142 H 0.14746 0.66807 0.52033 0.0
H1143 H 0.14542 0.67424 0.56395 0.0
C1144 C 0.1401 0.69035 0.44892 0.0
C1145 C 0.12245 0.6867 0.43492 0.0
C1146 C 0.1394 0.68815 0.47399 0.0
C1147 C 0.12101 0.68241 0.48549 0.0
C1148 C 0.10378 0.67748 0.47132 0.0
C1149 C 0.10451 0.67953 0.44627 0.0
C1150 C 0.10132 0.69854 0.5467 0.0
C1151 C 0.11686 0.69137 0.56213 0.0
C1152 C 0.10235 0.69482 0.52198 0.0
C1153 C 0.11907 0.68406 0.51206 0.0
C1154 C 0.13443 0.67644 0.52753 0.0
C1155 C 0.13322 0.67991 0.55243 0.0
H1156 H 0.32479 0.11552 0.43842 0.0
H1157 H 0.26412 0.14258 0.44032 0.0
H1158 H 0.3255 0.11514 0.48265 0.0
H1159 H 0.26499 0.14262 0.48411 0.0
H1160 H 0.25942 0.10914 0.55522 0.0
H1161 H 0.26273 0.11352 0.51204 0.0
H1162 H 0.3247 0.13619 0.52134 0.0
H1163 H 0.32145 0.13154 0.56516 0.0
C1164 C 0.31184 0.12178 0.44828 0.0
C1165 C 0.29427 0.12878 0.43599 0.0
C1166 C 0.31226 0.12161 0.47355 0.0
C1167 C 0.29513 0.12849 0.48682 0.0
C1168 C 0.27821 0.13676 0.47439 0.0
C1169 C 0.27775 0.13682 0.4493 0.0
C1170 C 0.27379 0.11507 0.54817 0.0
C1171 C 0.29014 0.1201 0.56361 0.0
C1172 C 0.27563 0.11772 0.52338 0.0
C1173 C 0.29386 0.1255 0.5133 0.0
C1174 C 0.31046 0.13018 0.52863 0.0
C1175 C 0.30858 0.12758 0.55365 0.0
H1176 H 0.86655 0.32404 0.43635 0.0
H1177 H 0.8901 0.26239 0.44575 0.0
H1178 H 0.86756 0.32917 0.48024 0.0
H1179 H 0.89078 0.26733 0.489 0.0
H1180 H 0.91086 0.28617 0.56135 0.0
H1181 H 0.9108 0.28727 0.51761 0.0
H1182 H 0.85099 0.31628 0.51857 0.0
H1183 H 0.85134 0.31567 0.56285 0.0
C1184 C 0.87189 0.31162 0.44776 0.0
C1185 C 0.87839 0.29287 0.43762 0.0
C1186 C 0.87239 0.31453 0.47283 0.0
C1187 C 0.87952 0.29876 0.48806 0.0
C1188 C 0.88567 0.27997 0.47778 0.0
C1189 C 0.88515 0.27708 0.45294 0.0
C1190 C 0.8978 0.29305 0.55227 0.0
C1191 C 0.88097 0.30057 0.56545 0.0
C1192 C 0.89773 0.2936 0.5272 0.0
C1193 C 0.88069 0.30143 0.51462 0.0
C1194 C 0.86434 0.31014 0.52778 0.0
C1195 C 0.8645 0.30976 0.55307 0.0
H1196 H 0.73236 0.89151 0.55284 0.0
H1197 H 0.67096 0.8671 0.56145 0.0
H1198 H 0.72783 0.89221 0.50954 0.0
H1199 H 0.66625 0.8681 0.51749 0.0
H1200 H 0.68131 0.85138 0.43534 0.0
H1201 H 0.67995 0.85147 0.47957 0.0
H1202 H 0.70795 0.91177 0.48037 0.0
H1203 H 0.70977 0.91142 0.43663 0.0
C1204 C 0.71781 0.88637 0.54547 0.0
C1205 C 0.70198 0.87934 0.56059 0.0
C1206 C 0.71515 0.88692 0.52059 0.0
C1207 C 0.69656 0.88049 0.51007 0.0
C1208 C 0.68074 0.87315 0.5251 0.0
C1209 C 0.68341 0.87265 0.55021 0.0
C1210 C 0.68682 0.86476 0.44505 0.0
C1211 C 0.69594 0.88125 0.43263 0.0
C1212 C 0.686 0.86484 0.47032 0.0
C1213 C 0.69423 0.88145 0.48345 0.0
C1214 C 0.70197 0.89851 0.47081 0.0
C1215 C 0.70293 0.89835 0.44573 0.0
H1216 H 0.59956 0.76011 0.05317 0.0
H1217 H 0.62529 0.82096 0.06197 0.0
H1218 H 0.59888 0.76474 0.00993 0.0
H1219 H 0.62416 0.82587 0.01807 0.0
H1220 H 0.64058 0.81191 0.93615 0.0
H1221 H 0.64021 0.81293 0.98037 0.0
H1222 H 0.58033 0.784 0.98028 0.0
H1223 H 0.5811 0.78234 0.93655 0.0
C1224 C 0.60493 0.7746 0.04585 0.0
C1225 C 0.6124 0.7902 0.061 0.0
C1226 C 0.60439 0.77732 0.02099 0.0
C1227 C 0.61119 0.7958 0.01051 0.0
C1228 C 0.61884 0.81145 0.02561 0.0
C1229 C 0.61941 0.80868 0.05069 0.0
C1230 C 0.62726 0.80608 0.94568 0.0
C1231 C 0.61103 0.79674 0.93302 0.0
C1232 C 0.627 0.80671 0.97096 0.0
C1233 C 0.61042 0.79816 0.98386 0.0
C1234 C 0.5936 0.79018 0.97095 0.0
C1235 C 0.59399 0.78932 0.94588 0.0
H1236 H 0.23327 0.60857 0.94387 0.0
H1237 H 0.17033 0.62903 0.93636 0.0
H1238 H 0.22908 0.60684 0.98717 0.0
H1239 H 0.16602 0.62702 0.98037 0.0
H1240 H 0.18126 0.6419 0.0635 0.0
H1241 H 0.17944 0.64349 0.01929 0.0
H1242 H 0.20992 0.58454 0.01486 0.0
H1243 H 0.21217 0.58322 0.05852 0.0
C1244 C 0.21847 0.61267 0.95149 0.0
C1245 C 0.20208 0.61879 0.93668 0.0
C1246 C 0.21604 0.61154 0.97634 0.0
C1247 C 0.19711 0.61644 0.98715 0.0
C1248 C 0.18076 0.62311 0.97249 0.0
C1249 C 0.18321 0.6242 0.94738 0.0
C1250 C 0.18721 0.62917 0.05298 0.0
C1251 C 0.19718 0.61261 0.06433 0.0
C1252 C 0.18613 0.63005 0.02774 0.0
C1253 C 0.19493 0.61434 0.01365 0.0
C1254 C 0.20348 0.59713 0.02522 0.0
C1255 C 0.2047 0.59634 0.05023 0.0
H1256 H 0.35096 0.18169 0.06052 0.0
H1257 H 0.4104 0.21127 0.0582 0.0
H1258 H 0.35043 0.18046 0.01626 0.0
H1259 H 0.41028 0.2094 0.0145 0.0
H1260 H 0.38992 0.23313 0.94226 0.0
H1261 H 0.39079 0.22876 0.98554 0.0
H1262 H 0.36615 0.16732 0.97802 0.0
H1263 H 0.36484 0.17195 0.93407 0.0
C1264 C 0.36408 0.18747 0.05056 0.0
C1265 C 0.38056 0.1969 0.06267 0.0
C1266 C 0.36382 0.18673 0.02527 0.0
C1267 C 0.38012 0.19525 0.01187 0.0
C1268 C 0.39721 0.20325 0.02424 0.0
C1269 C 0.39733 0.20424 0.04929 0.0
C1270 C 0.38471 0.21863 0.94973 0.0
C1271 C 0.37743 0.20283 0.93473 0.0
C1272 C 0.38534 0.21606 0.9746 0.0
C1273 C 0.37886 0.19755 0.98525 0.0
C1274 C 0.37125 0.18176 0.97034 0.0
C1275 C 0.37058 0.18437 0.94523 0.0
H1276 H 0.81399 0.35364 0.06455 0.0
H1277 H 0.78362 0.41267 0.06107 0.0
H1278 H 0.81478 0.35225 0.02028 0.0
H1279 H 0.7848 0.41152 0.01733 0.0
H1280 H 0.75971 0.38802 0.94679 0.0
H1281 H 0.76478 0.38934 0.99001 0.0
H1282 H 0.82763 0.36911 0.98111 0.0
H1283 H 0.82246 0.36758 0.93721 0.0
C1284 C 0.80794 0.36649 0.05434 0.0
C1285 C 0.79843 0.3831 0.06616 0.0
C1286 C 0.80842 0.36571 0.02906 0.0
C1287 C 0.79946 0.38159 0.01539 0.0
C1288 C 0.79136 0.39882 0.02738 0.0
C1289 C 0.79075 0.39951 0.05244 0.0
C1290 C 0.77464 0.3838 0.95393 0.0
C1291 C 0.79073 0.37784 0.93857 0.0
C1292 C 0.77758 0.38469 0.97874 0.0
C1293 C 0.79671 0.37966 0.98893 0.0
C1294 C 0.81274 0.37311 0.97371 0.0
C1295 C 0.8098 0.37229 0.94866 0.0
H1296 H 0.60839 0.23779 0.05401 0.0
H1297 H 0.62379 0.17338 0.06064 0.0
H1298 H 0.60735 0.23441 0.01054 0.0
H1299 H 0.62224 0.1698 0.01661 0.0
H1300 H 0.63836 0.18112 0.93449 0.0
H1301 H 0.63952 0.18051 0.97871 0.0
H1302 H 0.58522 0.21883 0.98115 0.0
H1303 H 0.5845 0.21994 0.93743 0.0
C1304 C 0.61146 0.22284 0.04615 0.0
C1305 C 0.61602 0.20582 0.06076 0.0
C1306 C 0.61073 0.22085 0.02119 0.0
C1307 C 0.61438 0.20175 0.01009 0.0
C1308 C 0.61939 0.18473 0.02463 0.0
C1309 C 0.6202 0.18675 0.04979 0.0
C1310 C 0.62659 0.18919 0.94458 0.0
C1311 C 0.61153 0.20082 0.93259 0.0
C1312 C 0.62721 0.1888 0.96986 0.0
C1313 C 0.61269 0.19995 0.98344 0.0
C1314 C 0.59698 0.21056 0.97126 0.0
C1315 C 0.59649 0.2111 0.94618 0.0
H1316 H 0.80811 0.65608 0.0664 0.0
H1317 H 0.80346 0.59018 0.05806 0.0
H1318 H 0.81117 0.6598 0.0225 0.0
H1319 H 0.80712 0.59386 0.01443 0.0
H1320 H 0.82806 0.60838 0.93739 0.0
H1321 H 0.83371 0.60879 0.98113 0.0
H1322 H 0.78182 0.64956 0.98984 0.0
H1323 H 0.77582 0.64872 0.94635 0.0
C1324 C 0.80827 0.6424 0.05524 0.0
C1325 C 0.80544 0.62286 0.06551 0.0
C1326 C 0.80997 0.64453 0.03021 0.0
C1327 C 0.80944 0.6271 0.01521 0.0
C1328 C 0.80779 0.60751 0.02565 0.0
C1329 C 0.80558 0.60542 0.05055 0.0
C1330 C 0.81815 0.61774 0.94864 0.0
C1331 C 0.80144 0.62842 0.9386 0.0
C1332 C 0.82135 0.61793 0.97358 0.0
C1333 C 0.80821 0.62924 0.98873 0.0
C1334 C 0.79227 0.64089 0.9785 0.0
C1335 C 0.78878 0.64031 0.95368 0.0
H1336 H 0.35282 0.81521 0.93452 0.0
H1337 H 0.41471 0.79114 0.93686 0.0
H1338 H 0.35234 0.81694 0.97869 0.0
H1339 H 0.41446 0.79334 0.98061 0.0
H1340 H 0.39417 0.76724 0.05269 0.0
H1341 H 0.39594 0.77211 0.00946 0.0
H1342 H 0.36727 0.83178 0.01681 0.0
H1343 H 0.36524 0.82672 0.06064 0.0
C1344 C 0.36647 0.8108 0.94444 0.0
C1345 C 0.38368 0.80273 0.93235 0.0
C1346 C 0.36622 0.81183 0.96969 0.0
C1347 C 0.38322 0.80488 0.98312 0.0
C1348 C 0.40094 0.79832 0.9708 0.0
C1349 C 0.40112 0.79715 0.94573 0.0
C1350 C 0.38827 0.78146 0.04519 0.0
C1351 C 0.37961 0.79662 0.06009 0.0
C1352 C 0.38944 0.78432 0.02038 0.0
C1353 C 0.38198 0.80246 0.00971 0.0
C1354 C 0.37313 0.81764 0.02453 0.0
C1355 C 0.37203 0.81479 0.04957 0.0
H1356 H 0.18932 0.41056 0.94097 0.0
H1357 H 0.18694 0.34446 0.93343 0.0
H1358 H 0.18599 0.40707 0.98474 0.0
H1359 H 0.18428 0.341 0.97733 0.0
H1360 H 0.22175 0.3546 0.05178 0.0
H1361 H 0.21535 0.3544 0.00836 0.0
H1362 H 0.15963 0.38929 0.01929 0.0
H1363 H 0.16565 0.38888 0.06306 0.0
C1364 C 0.18766 0.39533 0.94866 0.0
C1365 C 0.18843 0.37778 0.9339 0.0
C1366 C 0.18568 0.39336 0.97362 0.0
C1367 C 0.18491 0.37378 0.98425 0.0
C1368 C 0.18478 0.35624 0.96945 0.0
C1369 C 0.18625 0.35824 0.9444 0.0
C1370 C 0.20795 0.36192 0.04494 0.0
C1371 C 0.1942 0.37179 0.06067 0.0
C1372 C 0.20425 0.36169 0.02018 0.0
C1373 C 0.18698 0.37176 0.01064 0.0
C1374 C 0.17299 0.38134 0.02635 0.0
C1375 C 0.17641 0.38108 0.05127 0.0
H1376 H 0.20121 0.36915 0.21923 0.0
H1377 H 0.14903 0.35057 0.17623 0.0
H1378 H 0.18433 0.35621 0.25525 0.0
H1379 H 0.13166 0.33829 0.21249 0.0
H1380 H 0.12184 0.29292 0.27485 0.0
H1381 H 0.13498 0.31014 0.23927 0.0
H1382 H 0.15718 0.36013 0.2837 0.0
H1383 H 0.14459 0.34233 0.31961 0.0
C1384 C 0.18596 0.36258 0.21755 0.0
C1385 C 0.17651 0.36068 0.19489 0.0
C1386 C 0.17619 0.3553 0.23826 0.0
C1387 C 0.15664 0.34611 0.23683 0.0
C1388 C 0.14687 0.34493 0.21422 0.0
C1389 C 0.15676 0.35205 0.19344 0.0
C1390 C 0.12937 0.30767 0.27704 0.0
C1391 C 0.13232 0.31621 0.30004 0.0
C1392 C 0.13678 0.31766 0.25656 0.0
C1393 C 0.14719 0.33654 0.25854 0.0
C1394 C 0.14952 0.34544 0.28154 0.0
C1395 C 0.14221 0.33533 0.30211 0.0
H1396 H 0.6252 0.20279 0.22007 0.0
H1397 H 0.64364 0.15242 0.17403 0.0
H1398 H 0.63808 0.18437 0.25505 0.0
H1399 H 0.6561 0.13361 0.20928 0.0
H1400 H 0.70159 0.12237 0.27199 0.0
H1401 H 0.68455 0.13664 0.23682 0.0
H1402 H 0.63318 0.15524 0.28128 0.0
H1403 H 0.65062 0.14135 0.31678 0.0
C1404 C 0.63179 0.18764 0.21747 0.0
C1405 C 0.63358 0.17911 0.19428 0.0
C1406 C 0.63902 0.17699 0.23758 0.0
C1407 C 0.64814 0.15751 0.235 0.0
C1408 C 0.64939 0.14871 0.21185 0.0
C1409 C 0.6422 0.15943 0.19167 0.0
C1410 C 0.68657 0.12934 0.27426 0.0
C1411 C 0.6775 0.1309 0.29718 0.0
C1412 C 0.67672 0.13738 0.25402 0.0
C1413 C 0.65752 0.14714 0.2562 0.0
C1414 C 0.6481 0.14807 0.27904 0.0
C1415 C 0.65802 0.14004 0.29935 0.0
H1416 H 0.84975 0.64259 0.17998 0.0
H1417 H 0.79729 0.62587 0.2236 0.0
H1418 H 0.86731 0.65552 0.21592 0.0
H1419 H 0.8146 0.63904 0.25929 0.0
H1420 H 0.85617 0.65204 0.32268 0.0
H1421 H 0.84343 0.63403 0.28694 0.0
H1422 H 0.86246 0.68516 0.24245 0.0
H1423 H 0.87543 0.7029 0.27796 0.0
C1424 C 0.84206 0.64153 0.19726 0.0
C1425 C 0.82211 0.63336 0.19897 0.0
C1426 C 0.85205 0.64901 0.2178 0.0
C1427 C 0.84231 0.64838 0.24044 0.0
C1428 C 0.82264 0.63953 0.2422 0.0
C1429 C 0.81265 0.63212 0.2217 0.0
C1430 C 0.85781 0.65929 0.30522 0.0
C1431 C 0.86666 0.67891 0.30312 0.0
C1432 C 0.85045 0.64903 0.28478 0.0
C1433 C 0.85188 0.6582 0.26187 0.0
C1434 C 0.86135 0.67755 0.25976 0.0
C1435 C 0.86864 0.68779 0.28015 0.0
H1436 H 0.37055 0.79772 0.2191 0.0
H1437 H 0.3414 0.8428 0.17322 0.0
H1438 H 0.35629 0.81459 0.25447 0.0
H1439 H 0.32731 0.86 0.20887 0.0
H1440 H 0.28448 0.86527 0.27583 0.0
H1441 H 0.30114 0.85233 0.23948 0.0
H1442 H 0.35826 0.84586 0.27858 0.0
H1443 H 0.34146 0.85848 0.31509 0.0
C1444 C 0.36126 0.81139 0.21659 0.0
C1445 C 0.35701 0.81889 0.19338 0.0
C1446 C 0.3532 0.82116 0.2369 0.0
C1447 C 0.34067 0.83865 0.2345 0.0
C1448 C 0.33675 0.84642 0.21128 0.0
C1449 C 0.34489 0.83666 0.19089 0.0
C1450 C 0.30063 0.8612 0.27663 0.0
C1451 C 0.31164 0.86273 0.29834 0.0
C1452 C 0.31021 0.85393 0.25575 0.0
C1453 C 0.33101 0.84802 0.25615 0.0
C1454 C 0.34214 0.85004 0.27776 0.0
C1455 C 0.33255 0.85734 0.29865 0.0
H1456 H 0.20025 0.62382 0.77711 0.0
H1457 H 0.15249 0.64932 0.82232 0.0
H1458 H 0.18273 0.63672 0.74149 0.0
H1459 H 0.13461 0.66193 0.78646 0.0
H1460 H 0.12704 0.70479 0.7202 0.0
H1461 H 0.14037 0.68864 0.75654 0.0
H1462 H 0.15243 0.63287 0.71645 0.0
H1463 H 0.13947 0.64927 0.67986 0.0
C1464 C 0.18586 0.63199 0.77941 0.0
C1465 C 0.1778 0.63568 0.80251 0.0
C1466 C 0.17572 0.63925 0.75896 0.0
C1467 C 0.15727 0.65036 0.76111 0.0
C1468 C 0.14893 0.65362 0.78422 0.0
C1469 C 0.1591 0.64634 0.80473 0.0
C1470 C 0.13239 0.68902 0.71917 0.0
C1471 C 0.13237 0.67833 0.69715 0.0
C1472 C 0.13989 0.67971 0.74006 0.0
C1473 C 0.14752 0.65948 0.73939 0.0
C1474 C 0.14691 0.64857 0.71748 0.0
C1475 C 0.13941 0.65791 0.69656 0.0
H1476 H 0.29007 0.12146 0.72331 0.0
H1477 H 0.34004 0.1431 0.67867 0.0
H1478 H 0.30658 0.13622 0.75867 0.0
H1479 H 0.35691 0.15748 0.71424 0.0
H1480 H 0.36373 0.20458 0.77584 0.0
H1481 H 0.35065 0.18624 0.74084 0.0
H1482 H 0.33556 0.13417 0.78592 0.0
H1483 H 0.34827 0.15283 0.82118 0.0
C1484 C 0.30476 0.12911 0.72112 0.0
C1485 C 0.31369 0.13127 0.6982 0.0
C1486 C 0.3143 0.13746 0.74143 0.0
C1487 C 0.33302 0.14813 0.73929 0.0
C1488 C 0.34233 0.14963 0.71645 0.0
C1489 C 0.33274 0.14129 0.6961 0.0
C1490 C 0.35771 0.18918 0.77828 0.0
C1491 C 0.35691 0.18018 0.80127 0.0
C1492 C 0.35037 0.17859 0.75816 0.0
C1493 C 0.34209 0.15871 0.76054 0.0
C1494 C 0.34163 0.14955 0.78352 0.0
C1495 C 0.34897 0.16019 0.80369 0.0
H1496 H 0.86607 0.29452 0.72391 0.0
H1497 H 0.85195 0.34821 0.68114 0.0
H1498 H 0.85245 0.31149 0.75953 0.0
H1499 H 0.83862 0.36549 0.71711 0.0
H1500 H 0.79106 0.37484 0.77875 0.0
H1501 H 0.8087 0.36189 0.74312 0.0
H1502 H 0.85807 0.33918 0.78797 0.0
H1503 H 0.84011 0.35176 0.82376 0.0
C1504 C 0.86026 0.31007 0.72218 0.0
C1505 C 0.85995 0.32 0.6997 0.0
C1506 C 0.8526 0.31987 0.74267 0.0
C1507 C 0.84445 0.33986 0.74119 0.0
C1508 C 0.84459 0.35 0.71878 0.0
C1509 C 0.8523 0.34017 0.69822 0.0
C1510 C 0.80577 0.36724 0.78099 0.0
C1511 C 0.81413 0.36414 0.80405 0.0
C1512 C 0.81596 0.35995 0.76054 0.0
C1513 C 0.83475 0.34943 0.7627 0.0
C1514 C 0.84346 0.34697 0.78574 0.0
C1515 C 0.83324 0.35424 0.80622 0.0
H1516 H 0.65347 0.84836 0.67506 0.0
H1517 H 0.70184 0.8729 0.72007 0.0
H1518 H 0.63606 0.83502 0.71088 0.0
H1519 H 0.68476 0.85929 0.75566 0.0
H1520 H 0.64179 0.84461 0.81765 0.0
H1521 H 0.65469 0.86211 0.78164 0.0
H1522 H 0.64273 0.80748 0.73944 0.0
H1523 H 0.62955 0.79026 0.77511 0.0
C1524 C 0.66029 0.85101 0.6926 0.0
C1525 C 0.67906 0.86154 0.69476 0.0
C1526 C 0.6504 0.8433 0.71309 0.0
C1527 C 0.65908 0.84602 0.73612 0.0
C1528 C 0.67752 0.85714 0.73826 0.0
C1529 C 0.68739 0.86481 0.71782 0.0
C1530 C 0.64181 0.83645 0.80062 0.0
C1531 C 0.63477 0.81606 0.79921 0.0
C1532 C 0.64924 0.84642 0.78003 0.0
C1533 C 0.64974 0.83618 0.75767 0.0
C1534 C 0.64228 0.81593 0.75627 0.0
C1535 C 0.63489 0.80599 0.77679 0.0
H1536 H 0.87127 0.69971 0.72469 0.0
H1537 H 0.85137 0.64855 0.68075 0.0
H1538 H 0.85838 0.68257 0.76042 0.0
H1539 H 0.83907 0.63083 0.71687 0.0
H1540 H 0.79471 0.62109 0.78114 0.0
H1541 H 0.81157 0.6337 0.74491 0.0
H1542 H 0.8627 0.65525 0.78793 0.0
H1543 H 0.8453 0.64337 0.82432 0.0
C1544 C 0.86442 0.6846 0.72273 0.0
C1545 C 0.86221 0.67552 0.6999 0.0
C1546 C 0.85717 0.67466 0.7433 0.0
C1547 C 0.84768 0.65527 0.74162 0.0
C1548 C 0.84603 0.64589 0.7188 0.0
C1549 C 0.85317 0.65596 0.69812 0.0
C1550 C 0.80964 0.62836 0.78282 0.0
C1551 C 0.8186 0.63146 0.80557 0.0
C1552 C 0.8194 0.63546 0.762 0.0
C1553 C 0.83845 0.64565 0.76344 0.0
C1554 C 0.84784 0.64786 0.78617 0.0
C1555 C 0.83795 0.64096 0.80703 0.0
H1556 H 0.35937 0.78807 0.7774 0.0
H1557 H 0.35587 0.84589 0.81568 0.0
H1558 H 0.34676 0.80467 0.74109 0.0
H1559 H 0.34348 0.86272 0.77895 0.0
H1560 H 0.29653 0.87586 0.71723 0.0
H1561 H 0.31251 0.86249 0.75373 0.0
H1562 H 0.3568 0.82939 0.71041 0.0
H1563 H 0.34051 0.84246 0.67384 0.0
C1564 C 0.35602 0.80439 0.77801 0.0
C1565 C 0.35855 0.81568 0.79941 0.0
C1566 C 0.34896 0.81395 0.75711 0.0
C1567 C 0.34424 0.83504 0.75708 0.0
C1568 C 0.34686 0.8464 0.77847 0.0
C1569 C 0.35399 0.83681 0.79945 0.0
C1570 C 0.30981 0.86588 0.71551 0.0
C1571 C 0.31717 0.86004 0.69269 0.0
C1572 C 0.31904 0.85833 0.73644 0.0
C1573 C 0.33583 0.84477 0.73497 0.0
C1574 C 0.34367 0.83956 0.71212 0.0
C1575 C 0.33443 0.84712 0.69119 0.0
H1576 H 0.14883 0.34175 0.67618 0.0
H1577 H 0.11998 0.29631 0.72185 0.0
H1578 H 0.16249 0.35912 0.71195 0.0
H1579 H 0.13375 0.31339 0.75734 0.0
H1580 H 0.14866 0.35747 0.81808 0.0
H1581 H 0.13169 0.34488 0.7816 0.0
H1582 H 0.18882 0.35081 0.74236 0.0
H1583 H 0.20564 0.36361 0.77861 0.0
C1584 C 0.14528 0.33559 0.69383 0.0
C1585 C 0.13345 0.31763 0.69623 0.0
C1586 C 0.15316 0.34545 0.71428 0.0
C1587 C 0.14923 0.33759 0.73746 0.0
C1588 C 0.13686 0.31999 0.73979 0.0
C1589 C 0.12909 0.31011 0.71941 0.0
C1590 C 0.15752 0.35619 0.80161 0.0
C1591 C 0.17849 0.36138 0.80121 0.0
C1592 C 0.14784 0.34895 0.78075 0.0
C1593 C 0.15893 0.34685 0.75911 0.0
C1594 C 0.17979 0.35251 0.75865 0.0
C1595 C 0.18946 0.35967 0.77948 0.0
H1596 H 0.65218 0.14609 0.67417 0.0
H1597 H 0.70065 0.12216 0.71942 0.0
H1598 H 0.6342 0.15876 0.70994 0.0
H1599 H 0.68308 0.13522 0.75496 0.0
H1600 H 0.64045 0.14984 0.81705 0.0
H1601 H 0.65348 0.13229 0.7811 0.0
H1602 H 0.63979 0.18618 0.7384 0.0
H1603 H 0.62641 0.20337 0.77396 0.0
C1604 C 0.65891 0.14344 0.69175 0.0
C1605 C 0.67788 0.13329 0.69399 0.0
C1606 C 0.64869 0.15077 0.71223 0.0
C1607 C 0.65727 0.14812 0.73533 0.0
C1608 C 0.67589 0.13732 0.73753 0.0
C1609 C 0.68606 0.12997 0.7171 0.0
C1610 C 0.64008 0.15781 0.79991 0.0
C1611 C 0.63251 0.17799 0.79833 0.0
C1612 C 0.6476 0.14781 0.77935 0.0
C1613 C 0.64769 0.15784 0.75685 0.0
C1614 C 0.63966 0.17786 0.75531 0.0
C1615 C 0.63215 0.1878 0.77578 0.0
H1616 H 0.84465 0.35526 0.18224 0.0
H1617 H 0.79019 0.36789 0.2244 0.0
H1618 H 0.86166 0.34166 0.21817 0.0
H1619 H 0.80695 0.354 0.26003 0.0
H1620 H 0.84747 0.34136 0.32449 0.0
H1621 H 0.83447 0.35957 0.28906 0.0
H1622 H 0.8579 0.31114 0.24321 0.0
H1623 H 0.87116 0.29325 0.27842 0.0
C1624 C 0.83637 0.35522 0.19919 0.0
C1625 C 0.81607 0.36252 0.2005 0.0
C1626 C 0.84606 0.34737 0.21972 0.0
C1627 C 0.83563 0.3467 0.24195 0.0
C1628 C 0.81552 0.35454 0.2433 0.0
C1629 C 0.80585 0.36235 0.22282 0.0
C1630 C 0.84998 0.33474 0.3068 0.0
C1631 C 0.86021 0.31584 0.30422 0.0
C1632 C 0.84248 0.3451 0.28654 0.0
C1633 C 0.84511 0.33676 0.26332 0.0
C1634 C 0.85585 0.31813 0.26078 0.0
C1635 C 0.86331 0.30779 0.28099 0.0
H1636 H 0.62385 0.78692 0.2203 0.0
H1637 H 0.64681 0.8364 0.17582 0.0
H1638 H 0.6378 0.80371 0.25597 0.0
H1639 H 0.66055 0.85343 0.21169 0.0
H1640 H 0.70552 0.86052 0.27562 0.0
H1641 H 0.68862 0.84671 0.24001 0.0
H1642 H 0.6342 0.83395 0.28218 0.0
H1643 H 0.65133 0.84758 0.3181 0.0
C1644 C 0.63172 0.8015 0.21817 0.0
C1645 C 0.63437 0.81029 0.19525 0.0
C1646 C 0.63958 0.81119 0.23866 0.0
C1647 C 0.65031 0.82988 0.23667 0.0
C1648 C 0.65256 0.83891 0.21377 0.0
C1649 C 0.64463 0.82922 0.19325 0.0
C1650 C 0.68991 0.85485 0.27731 0.0
C1651 C 0.67977 0.85503 0.29968 0.0
C1652 C 0.68017 0.84709 0.25683 0.0
C1653 C 0.66005 0.83927 0.25824 0.0
C1654 C 0.64978 0.8397 0.28058 0.0
C1655 C 0.65954 0.84755 0.30111 0.0
H1656 H 0.12673 0.69863 0.27901 0.0
H1657 H 0.14933 0.6492 0.32379 0.0
H1658 H 0.13983 0.68122 0.24337 0.0
H1659 H 0.16223 0.63149 0.28788 0.0
H1660 H 0.15245 0.63832 0.18121 0.0
H1661 H 0.13545 0.65103 0.21761 0.0
H1662 H 0.19012 0.63757 0.25901 0.0
H1663 H 0.2069 0.62459 0.22284 0.0
C1664 C 0.13432 0.68391 0.2812 0.0
C1665 C 0.13715 0.67533 0.30419 0.0
C1666 C 0.14168 0.67385 0.26074 0.0
C1667 C 0.15207 0.65498 0.26279 0.0
C1668 C 0.15445 0.64612 0.28576 0.0
C1669 C 0.14701 0.65619 0.30629 0.0
C1670 C 0.16072 0.63791 0.19815 0.0
C1671 C 0.18103 0.63061 0.19917 0.0
C1672 C 0.15103 0.64524 0.21895 0.0
C1673 C 0.16147 0.64537 0.24117 0.0
C1674 C 0.18156 0.63745 0.24226 0.0
C1675 C 0.19124 0.63017 0.22148 0.0
H1676 H 0.32023 0.10585 0.28546 0.0
H1677 H 0.33223 0.16388 0.32067 0.0
H1678 H 0.3372 0.11831 0.2491 0.0
H1679 H 0.34819 0.17682 0.28409 0.0
H1680 H 0.38602 0.1932 0.22014 0.0
H1681 H 0.37564 0.1761 0.25719 0.0
H1682 H 0.33045 0.14098 0.2173 0.0
H1683 H 0.34178 0.15736 0.18008 0.0
C1684 C 0.32664 0.12124 0.28544 0.0
C1685 C 0.32489 0.13393 0.30583 0.0
C1686 C 0.33619 0.12847 0.26453 0.0
C1687 C 0.34391 0.14869 0.26344 0.0
C1688 C 0.34276 0.16108 0.28425 0.0
C1689 C 0.33351 0.15371 0.30526 0.0
C1690 C 0.37403 0.18164 0.21931 0.0
C1691 C 0.36458 0.17667 0.19732 0.0
C1692 C 0.36796 0.17192 0.24058 0.0
C1693 C 0.352 0.1573 0.24042 0.0
C1694 C 0.34299 0.15192 0.21818 0.0
C1695 C 0.34936 0.16139 0.19682 0.0
loop_
_geom_bond_atom_site_label_1
_geom_bond_atom_site_label_2
_geom_bond_distance
_geom_bond_site_symmetry_2
_ccdc_geom_bond_type
In0 O1 2.294 . S
In0 O2 2.326 . S
In0 O6 2.266 . S
In0 O7 2.326 . S
In0 O8 2.266 . S
In0 O9 2.326 . S
In0 O11 2.294 . S
In0 O12 2.326 . S
O1 In0 2.294 . S
O1 C10 1.240 . S
O2 In0 2.326 . S
O2 C10 1.252 . S
C3 O6 1.252 . S
C3 O7 1.260 . S
C4 O11 1.240 . S
C4 O12 1.252 . S
C5 O8 1.252 . S
C5 O9 1.260 . S
O6 In0 2.266 . S
O6 C3 1.252 . S
O7 In0 2.326 . S
O7 C3 1.260 . S
O8 In0 2.266 . S
O8 C5 1.252 . S
O9 In0 2.326 . S
O9 C5 1.260 . S
C10 O1 1.240 . S
C10 O2 1.252 . S
O11 In0 2.294 . S
O11 C4 1.240 . S
O12 In0 2.326 . S
O12 C4 1.252 . S
In13 O14 2.294 . S
In13 O15 2.326 . S
In13 O19 2.266 . S
In13 O20 2.326 . S
In13 O21 2.266 . S
In13 O22 2.326 . S
In13 O24 2.294 . S
In13 O25 2.326 . S
O14 In13 2.294 . S
O14 C23 1.240 . S
O15 In13 2.326 . S
O15 C23 1.252 . S
C16 O19 1.252 . S
C16 O20 1.260 . S
C17 O24 1.240 . S
C17 O25 1.252 . S
C18 O21 1.252 . S
C18 O22 1.260 . S
O19 In13 2.266 . S
O19 C16 1.252 . S
O20 In13 2.326 . S
O20 C16 1.260 . S
O21 In13 2.266 . S
O21 C18 1.252 . S
O22 In13 2.326 . S
O22 C18 1.260 . S
C23 O14 1.240 . S
C23 O15 1.252 . S
O24 In13 2.294 . S
O24 C17 1.240 . S
O25 In13 2.326 . S
O25 C17 1.252 . S
In26 O27 2.294 . S
In26 O28 2.326 . S
In26 O32 2.266 . S
In26 O33 2.326 . S
In26 O34 2.266 . S
In26 O35 2.326 . S
In26 O37 2.294 . S
In26 O38 2.326 . S
O27 In26 2.294 . S
O27 C36 1.240 . S
O28 In26 2.326 . S
O28 C36 1.252 . S
C29 O32 1.252 . S
C29 O33 1.260 . S
C30 O37 1.240 . S
C30 O38 1.252 . S
C31 O34 1.252 . S
C31 O35 1.260 . S
O32 In26 2.266 . S
O32 C29 1.252 . S
O33 In26 2.326 . S
O33 C29 1.260 . S
O34 In26 2.266 . S
O34 C31 1.252 . S
O35 In26 2.326 . S
O35 C31 1.260 . S
C36 O27 1.240 . S
C36 O28 1.252 . S
O37 In26 2.294 . S
O37 C30 1.240 . S
O38 In26 2.326 . S
O38 C30 1.252 . S
In39 O40 2.294 . S
In39 O41 2.326 . S
In39 O45 2.266 . S
In39 O46 2.326 . S
In39 O47 2.266 . S
In39 O48 2.326 . S
In39 O50 2.294 . S
In39 O51 2.326 . S
O40 In39 2.294 . S
O40 C49 1.240 . S
O41 In39 2.326 . S
O41 C49 1.252 . S
C42 O45 1.252 . S
C42 O46 1.260 . S
C43 O50 1.240 . S
C43 O51 1.252 . S
C44 O47 1.252 . S
C44 O48 1.260 . S
O45 In39 2.266 . S
O45 C42 1.252 . S
O46 In39 2.326 . S
O46 C42 1.260 . S
O47 In39 2.266 . S
O47 C44 1.252 . S
O48 In39 2.326 . S
O48 C44 1.260 . S
C49 O40 1.240 . S
C49 O41 1.252 . S
O50 In39 2.294 . S
O50 C43 1.240 . S
O51 In39 2.326 . S
O51 C43 1.252 . S
In52 O53 2.294 . S
In52 O54 2.326 . S
In52 O58 2.266 . S
In52 O59 2.326 . S
In52 O60 2.266 . S
In52 O61 2.326 . S
In52 O63 2.294 . S
In52 O64 2.326 . S
O53 In52 2.294 . S
O53 C62 1.240 . S
O54 In52 2.326 . S
O54 C62 1.252 . S
C55 O58 1.252 . S
C55 O59 1.260 . S
C56 O63 1.240 . S
C56 O64 1.252 . S
C57 O60 1.252 . S
C57 O61 1.260 . S
O58 In52 2.266 . S
O58 C55 1.252 . S
O59 In52 2.326 . S
O59 C55 1.260 . S
O60 In52 2.266 . S
O60 C57 1.252 . S
O61 In52 2.326 . S
O61 C57 1.260 . S
C62 O53 1.240 . S
C62 O54 1.252 . S
O63 In52 2.294 . S
O63 C56 1.240 . S
O64 In52 2.326 . S
O64 C56 1.252 . S
In65 O66 2.294 . S
In65 O67 2.326 . S
In65 O71 2.266 . S
In65 O72 2.326 . S
In65 O73 2.266 . S
In65 O74 2.326 . S
In65 O76 2.294 . S
In65 O77 2.326 . S
O66 In65 2.294 . S
O66 C75 1.240 . S
O67 In65 2.326 . S
O67 C75 1.252 . S
C68 O71 1.252 . S
C68 O72 1.260 . S
C69 O76 1.240 . S
C69 O77 1.252 . S
C70 O73 1.252 . S
C70 O74 1.260 . S
O71 In65 2.266 . S
O71 C68 1.252 . S
O72 In65 2.326 . S
O72 C68 1.260 . S
O73 In65 2.266 . S
O73 C70 1.252 . S
O74 In65 2.326 . S
O74 C70 1.260 . S
C75 O66 1.240 . S
C75 O67 1.252 . S
O76 In65 2.294 . S
O76 C69 1.240 . S
O77 In65 2.326 . S
O77 C69 1.252 . S
In78 O79 2.294 . S
In78 O80 2.326 . S
In78 O84 2.266 . S
In78 O85 2.326 . S
In78 O86 2.266 . S
In78 O87 2.326 . S
In78 O89 2.294 . S
In78 O90 2.326 . S
O79 In78 2.294 . S
O79 C88 1.240 . S
O80 In78 2.326 . S
O80 C88 1.252 . S
C81 O84 1.252 . S
C81 O85 1.260 . S
C82 O89 1.240 . S
C82 O90 1.252 . S
C83 O86 1.252 . S
C83 O87 1.260 . S
O84 In78 2.266 . S
O84 C81 1.252 . S
O85 In78 2.326 . S
O85 C81 1.260 . S
O86 In78 2.266 . S
O86 C83 1.252 . S
O87 In78 2.326 . S
O87 C83 1.260 . S
C88 O79 1.240 . S
C88 O80 1.252 . S
O89 In78 2.294 . S
O89 C82 1.240 . S
O90 In78 2.326 . S
O90 C82 1.252 . S
In91 O92 2.294 . S
In91 O93 2.326 . S
In91 O97 2.266 . S
In91 O98 2.326 . S
In91 O99 2.266 . S
In91 O100 2.326 . S
In91 O102 2.294 . S
In91 O103 2.326 . S
O92 In91 2.294 . S
O92 C101 1.240 . S
O93 In91 2.326 . S
O93 C101 1.252 . S
C94 O97 1.252 . S
C94 O98 1.260 . S
C95 O102 1.240 . S
C95 O103 1.252 . S
C96 O99 1.252 . S
C96 O100 1.260 . S
O97 In91 2.266 . S
O97 C94 1.252 . S
O98 In91 2.326 . S
O98 C94 1.260 . S
O99 In91 2.266 . S
O99 C96 1.252 . S
O100 In91 2.326 . S
O100 C96 1.260 . S
C101 O92 1.240 . S
C101 O93 1.252 . S
O102 In91 2.294 . S
O102 C95 1.240 . S
O103 In91 2.326 . S
O103 C95 1.252 . S
In104 O105 2.294 . S
In104 O106 2.326 . S
In104 O110 2.266 . S
In104 O111 2.326 . S
In104 O112 2.266 . S
In104 O113 2.326 . S
In104 O115 2.294 . S
In104 O116 2.326 . S
O105 In104 2.294 . S
O105 C114 1.240 . S
O106 In104 2.326 . S
O106 C114 1.252 . S
C107 O110 1.252 . S
C107 O111 1.260 . S
C108 O115 1.240 . S
C108 O116 1.252 . S
C109 O112 1.252 . S
C109 O113 1.260 . S
O110 In104 2.266 . S
O110 C107 1.252 . S
O111 In104 2.326 . S
O111 C107 1.260 . S
O112 In104 2.266 . S
O112 C109 1.252 . S
O113 In104 2.326 . S
O113 C109 1.260 . S
C114 O105 1.240 . S
C114 O106 1.252 . S
O115 In104 2.294 . S
O115 C108 1.240 . S
O116 In104 2.326 . S
O116 C108 1.252 . S
In117 O118 2.294 . S
In117 O119 2.326 . S
In117 O123 2.266 . S
In117 O124 2.326 . S
In117 O125 2.266 . S
In117 O126 2.326 . S
In117 O128 2.294 . S
In117 O129 2.326 . S
O118 In117 2.294 . S
O118 C127 1.240 . S
O119 In117 2.326 . S
O119 C127 1.252 . S
C120 O123 1.252 . S
C120 O124 1.260 . S
C121 O128 1.240 . S
C121 O129 1.252 . S
C122 O125 1.252 . S
C122 O126 1.260 . S
O123 In117 2.266 . S
O123 C120 1.252 . S
O124 In117 2.326 . S
O124 C120 1.260 . S
O125 In117 2.266 . S
O125 C122 1.252 . S
O126 In117 2.326 . S
O126 C122 1.260 . S
C127 O118 1.240 . S
C127 O119 1.252 . S
O128 In117 2.294 . S
O128 C121 1.240 . S
O129 In117 2.326 . S
O129 C121 1.252 . S
In130 O131 2.294 . S
In130 O132 2.326 . S
In130 O136 2.266 . S
In130 O137 2.326 . S
In130 O138 2.266 . S
In130 O139 2.326 . S
In130 O141 2.294 . S
In130 O142 2.326 . S
O131 In130 2.294 . S
O131 C140 1.240 . S
O132 In130 2.326 . S
O132 C140 1.252 . S
C133 O136 1.252 . S
C133 O137 1.260 . S
C134 O141 1.240 . S
C134 O142 1.252 . S
C135 O138 1.252 . S
C135 O139 1.260 . S
O136 In130 2.266 . S
O136 C133 1.252 . S
O137 In130 2.326 . S
O137 C133 1.260 . S
O138 In130 2.266 . S
O138 C135 1.252 . S
O139 In130 2.326 . S
O139 C135 1.260 . S
C140 O131 1.240 . S
C140 O132 1.252 . S
O141 In130 2.294 . S
O141 C134 1.240 . S
O142 In130 2.326 . S
O142 C134 1.252 . S
In143 O144 2.294 . S
In143 O145 2.326 . S
In143 O149 2.266 . S
In143 O150 2.326 . S
In143 O151 2.266 . S
In143 O152 2.326 . S
In143 O154 2.294 . S
In143 O155 2.326 . S
O144 In143 2.294 . S
O144 C153 1.240 . S
O145 In143 2.326 . S
O145 C153 1.252 . S
C146 O149 1.252 . S
C146 O150 1.260 . S
C147 O154 1.240 . S
C147 O155 1.252 . S
C148 O151 1.252 . S
C148 O152 1.260 . S
O149 In143 2.266 . S
O149 C146 1.252 . S
O150 In143 2.326 . S
O150 C146 1.260 . S
O151 In143 2.266 . S
O151 C148 1.252 . S
O152 In143 2.326 . S
O152 C148 1.260 . S
C153 O144 1.240 . S
C153 O145 1.252 . S
O154 In143 2.294 . S
O154 C147 1.240 . S
O155 In143 2.326 . S
O155 C147 1.252 . S
In156 O157 2.294 . S
In156 O158 2.326 . S
In156 O162 2.266 . S
In156 O163 2.326 . S
In156 O164 2.266 . S
In156 O165 2.326 . S
In156 O167 2.294 . S
In156 O168 2.326 . S
O157 In156 2.294 . S
O157 C166 1.240 . S
O158 In156 2.326 . S
O158 C166 1.252 . S
C159 O162 1.252 . S
C159 O163 1.260 . S
C160 O167 1.240 . S
C160 O168 1.252 . S
C161 O164 1.252 . S
C161 O165 1.260 . S
O162 In156 2.266 . S
O162 C159 1.252 . S
O163 In156 2.326 . S
O163 C159 1.260 . S
O164 In156 2.266 . S
O164 C161 1.252 . S
O165 In156 2.326 . S
O165 C161 1.260 . S
C166 O157 1.240 . S
C166 O158 1.252 . S
O167 In156 2.294 . S
O167 C160 1.240 . S
O168 In156 2.326 . S
O168 C160 1.252 . S
In169 O170 2.294 . S
In169 O171 2.326 . S
In169 O175 2.266 . S
In169 O176 2.326 . S
In169 O177 2.266 . S
In169 O178 2.326 . S
In169 O180 2.294 . S
In169 O181 2.326 . S
O170 In169 2.294 . S
O170 C179 1.240 . S
O171 In169 2.326 . S
O171 C179 1.252 . S
C172 O175 1.252 . S
C172 O176 1.260 . S
C173 O180 1.240 . S
C173 O181 1.252 . S
C174 O177 1.252 . S
C174 O178 1.260 . S
O175 In169 2.266 . S
O175 C172 1.252 . S
O176 In169 2.326 . S
O176 C172 1.260 . S
O177 In169 2.266 . S
O177 C174 1.252 . S
O178 In169 2.326 . S
O178 C174 1.260 . S
C179 O170 1.240 . S
C179 O171 1.252 . S
O180 In169 2.294 . S
O180 C173 1.240 . S
O181 In169 2.326 . S
O181 C173 1.252 . S
In182 O183 2.294 . S
In182 O184 2.326 . S
In182 O188 2.266 . S
In182 O189 2.326 . S
In182 O190 2.266 . S
In182 O191 2.326 . S
In182 O193 2.294 . S
In182 O194 2.326 . S
O183 In182 2.294 . S
O183 C192 1.240 . S
O184 In182 2.326 . S
O184 C192 1.252 . S
C185 O188 1.252 . S
C185 O189 1.260 . S
C186 O193 1.240 . S
C186 O194 1.252 . S
C187 O190 1.252 . S
C187 O191 1.260 . S
O188 In182 2.266 . S
O188 C185 1.252 . S
O189 In182 2.326 . S
O189 C185 1.260 . S
O190 In182 2.266 . S
O190 C187 1.252 . S
O191 In182 2.326 . S
O191 C187 1.260 . S
C192 O183 1.240 . S
C192 O184 1.252 . S
O193 In182 2.294 . S
O193 C186 1.240 . S
O194 In182 2.326 . S
O194 C186 1.252 . S
In195 O196 2.294 . S
In195 O197 2.326 . S
In195 O201 2.266 . S
In195 O202 2.326 . S
In195 O203 2.266 . S
In195 O204 2.326 . S
In195 O206 2.294 . S
In195 O207 2.326 . S
O196 In195 2.294 . S
O196 C205 1.240 . S
O197 In195 2.326 . S
O197 C205 1.252 . S
C198 O201 1.252 . S
C198 O202 1.260 . S
C199 O206 1.240 . S
C199 O207 1.252 . S
C200 O203 1.252 . S
C200 O204 1.260 . S
O201 In195 2.266 . S
O201 C198 1.252 . S
O202 In195 2.326 . S
O202 C198 1.260 . S
O203 In195 2.266 . S
O203 C200 1.252 . S
O204 In195 2.326 . S
O204 C200 1.260 . S
C205 O196 1.240 . S
C205 O197 1.252 . S
O206 In195 2.294 . S
O206 C199 1.240 . S
O207 In195 2.326 . S
O207 C199 1.252 . S
In208 O209 2.294 . S
In208 O210 2.326 . S
In208 O214 2.266 . S
In208 O215 2.326 . S
In208 O216 2.266 . S
In208 O217 2.326 . S
In208 O219 2.294 . S
In208 O220 2.326 . S
O209 In208 2.294 . S
O209 C218 1.240 . S
O210 In208 2.326 . S
O210 C218 1.252 . S
C211 O214 1.252 . S
C211 O215 1.260 . S
C212 O219 1.240 . S
C212 O220 1.252 . S
C213 O216 1.252 . S
C213 O217 1.260 . S
O214 In208 2.266 . S
O214 C211 1.252 . S
O215 In208 2.326 . S
O215 C211 1.260 . S
O216 In208 2.266 . S
O216 C213 1.252 . S
O217 In208 2.326 . S
O217 C213 1.260 . S
C218 O209 1.240 . S
C218 O210 1.252 . S
O219 In208 2.294 . S
O219 C212 1.240 . S
O220 In208 2.326 . S
O220 C212 1.252 . S
In221 O222 2.294 . S
In221 O223 2.326 . S
In221 O227 2.266 . S
In221 O228 2.326 . S
In221 O229 2.266 . S
In221 O230 2.326 . S
In221 O232 2.294 . S
In221 O233 2.326 . S
O222 In221 2.294 . S
O222 C231 1.240 . S
O223 In221 2.326 . S
O223 C231 1.252 . S
C224 O227 1.252 . S
C224 O228 1.260 . S
C225 O232 1.240 . S
C225 O233 1.252 . S
C226 O229 1.252 . S
C226 O230 1.260 . S
O227 In221 2.266 . S
O227 C224 1.252 . S
O228 In221 2.326 . S
O228 C224 1.260 . S
O229 In221 2.266 . S
O229 C226 1.252 . S
O230 In221 2.326 . S
O230 C226 1.260 . S
C231 O222 1.240 . S
C231 O223 1.252 . S
O232 In221 2.294 . S
O232 C225 1.240 . S
O233 In221 2.326 . S
O233 C225 1.252 . S
In234 O235 2.294 . S
In234 O236 2.326 . S
In234 O240 2.266 . S
In234 O241 2.326 . S
In234 O242 2.266 . S
In234 O243 2.326 . S
In234 O245 2.294 . S
In234 O246 2.326 . S
O235 In234 2.294 . S
O235 C244 1.240 . S
O236 In234 2.326 . S
O236 C244 1.252 . S
C237 O240 1.252 . S
C237 O241 1.260 . S
C238 O245 1.240 . S
C238 O246 1.252 . S
C239 O242 1.252 . S
C239 O243 1.260 . S
O240 In234 2.266 . S
O240 C237 1.252 . S
O241 In234 2.326 . S
O241 C237 1.260 . S
O242 In234 2.266 . S
O242 C239 1.252 . S
O243 In234 2.326 . S
O243 C239 1.260 . S
C244 O235 1.240 . S
C244 O236 1.252 . S
O245 In234 2.294 . S
O245 C238 1.240 . S
O246 In234 2.326 . S
O246 C238 1.252 . S
In247 O248 2.294 . S
In247 O249 2.326 . S
In247 O253 2.266 . S
In247 O254 2.326 . S
In247 O255 2.266 . S
In247 O256 2.326 . S
In247 O258 2.294 . S
In247 O259 2.326 . S
O248 In247 2.294 . S
O248 C257 1.240 . S
O249 In247 2.326 . S
O249 C257 1.252 . S
C250 O253 1.252 . S
C250 O254 1.260 . S
C251 O258 1.240 . S
C251 O259 1.252 . S
C252 O255 1.252 . S
C252 O256 1.260 . S
O253 In247 2.266 . S
O253 C250 1.252 . S
O254 In247 2.326 . S
O254 C250 1.260 . S
O255 In247 2.266 . S
O255 C252 1.252 . S
O256 In247 2.326 . S
O256 C252 1.260 . S
C257 O248 1.240 . S
C257 O249 1.252 . S
O258 In247 2.294 . S
O258 C251 1.240 . S
O259 In247 2.326 . S
O259 C251 1.252 . S
In260 O261 2.294 . S
In260 O262 2.326 . S
In260 O266 2.266 . S
In260 O267 2.326 . S
In260 O268 2.266 . S
In260 O269 2.326 . S
In260 O271 2.294 . S
In260 O272 2.326 . S
O261 In260 2.294 . S
O261 C270 1.240 . S
O262 In260 2.326 . S
O262 C270 1.252 . S
C263 O266 1.252 . S
C263 O267 1.260 . S
C264 O271 1.240 . S
C264 O272 1.252 . S
C265 O268 1.252 . S
C265 O269 1.260 . S
O266 In260 2.266 . S
O266 C263 1.252 . S
O267 In260 2.326 . S
O267 C263 1.260 . S
O268 In260 2.266 . S
O268 C265 1.252 . S
O269 In260 2.326 . S
O269 C265 1.260 . S
C270 O261 1.240 . S
C270 O262 1.252 . S
O271 In260 2.294 . S
O271 C264 1.240 . S
O272 In260 2.326 . S
O272 C264 1.252 . S
In273 O274 2.294 . S
In273 O275 2.326 . S
In273 O279 2.266 . S
In273 O280 2.326 . S
In273 O281 2.266 . S
In273 O282 2.326 . S
In273 O284 2.294 . S
In273 O285 2.326 . S
O274 In273 2.294 . S
O274 C283 1.240 . S
O275 In273 2.326 . S
O275 C283 1.252 . S
C276 O279 1.252 . S
C276 O280 1.260 . S
C277 O284 1.240 . S
C277 O285 1.252 . S
C278 O281 1.252 . S
C278 O282 1.260 . S
O279 In273 2.266 . S
O279 C276 1.252 . S
O280 In273 2.326 . S
O280 C276 1.260 . S
O281 In273 2.266 . S
O281 C278 1.252 . S
O282 In273 2.326 . S
O282 C278 1.260 . S
C283 O274 1.240 . S
C283 O275 1.252 . S
O284 In273 2.294 . S
O284 C277 1.240 . S
O285 In273 2.326 . S
O285 C277 1.252 . S
In286 O287 2.294 . S
In286 O288 2.326 . S
In286 O292 2.266 . S
In286 O293 2.326 . S
In286 O294 2.266 . S
In286 O295 2.326 . S
In286 O297 2.294 . S
In286 O298 2.326 . S
O287 In286 2.294 . S
O287 C296 1.240 . S
O288 In286 2.326 . S
O288 C296 1.252 . S
C289 O292 1.252 . S
C289 O293 1.260 . S
C290 O297 1.240 . S
C290 O298 1.252 . S
C291 O294 1.252 . S
C291 O295 1.260 . S
O292 In286 2.266 . S
O292 C289 1.252 . S
O293 In286 2.326 . S
O293 C289 1.260 . S
O294 In286 2.266 . S
O294 C291 1.252 . S
O295 In286 2.326 . S
O295 C291 1.260 . S
C296 O287 1.240 . S
C296 O288 1.252 . S
O297 In286 2.294 . S
O297 C290 1.240 . S
O298 In286 2.326 . S
O298 C290 1.252 . S
In299 O300 2.294 . S
In299 O301 2.326 . S
In299 O305 2.266 . S
In299 O306 2.326 . S
In299 O307 2.266 . S
In299 O308 2.326 . S
In299 O310 2.294 . S
In299 O311 2.326 . S
O300 In299 2.294 . S
O300 C309 1.240 . S
O301 In299 2.326 . S
O301 C309 1.252 . S
C302 O305 1.252 . S
C302 O306 1.260 . S
C303 O310 1.240 . S
C303 O311 1.252 . S
C304 O307 1.252 . S
C304 O308 1.260 . S
O305 In299 2.266 . S
O305 C302 1.252 . S
O306 In299 2.326 . S
O306 C302 1.260 . S
O307 In299 2.266 . S
O307 C304 1.252 . S
O308 In299 2.326 . S
O308 C304 1.260 . S
C309 O300 1.240 . S
C309 O301 1.252 . S
O310 In299 2.294 . S
O310 C303 1.240 . S
O311 In299 2.326 . S
O311 C303 1.252 . S
In312 O313 2.294 . S
In312 O314 2.326 . S
In312 O318 2.266 . S
In312 O319 2.326 . S
In312 O320 2.266 . S
In312 O321 2.326 . S
In312 O323 2.294 . S
In312 O324 2.326 . S
O313 In312 2.294 . S
O313 C322 1.240 . S
O314 In312 2.326 . S
O314 C322 1.252 . S
C315 O318 1.252 . S
C315 O319 1.260 . S
C316 O323 1.240 . S
C316 O324 1.252 . S
C317 O320 1.252 . S
C317 O321 1.260 . S
O318 In312 2.266 . S
O318 C315 1.252 . S
O319 In312 2.326 . S
O319 C315 1.260 . S
O320 In312 2.266 . S
O320 C317 1.252 . S
O321 In312 2.326 . S
O321 C317 1.260 . S
C322 O313 1.240 . S
C322 O314 1.252 . S
O323 In312 2.294 . S
O323 C316 1.240 . S
O324 In312 2.326 . S
O324 C316 1.252 . S
In325 O326 2.294 . S
In325 O327 2.326 . S
In325 O331 2.266 . S
In325 O332 2.326 . S
In325 O333 2.266 . S
In325 O334 2.326 . S
In325 O336 2.294 . S
In325 O337 2.326 . S
O326 In325 2.294 . S
O326 C335 1.240 . S
O327 In325 2.326 . S
O327 C335 1.252 . S
C328 O331 1.252 . S
C328 O332 1.260 . S
C329 O336 1.240 . S
C329 O337 1.252 . S
C330 O333 1.252 . S
C330 O334 1.260 . S
O331 In325 2.266 . S
O331 C328 1.252 . S
O332 In325 2.326 . S
O332 C328 1.260 . S
O333 In325 2.266 . S
O333 C330 1.252 . S
O334 In325 2.326 . S
O334 C330 1.260 . S
C335 O326 1.240 . S
C335 O327 1.252 . S
O336 In325 2.294 . S
O336 C329 1.240 . S
O337 In325 2.326 . S
O337 C329 1.252 . S
In338 O339 2.294 . S
In338 O340 2.326 . S
In338 O344 2.266 . S
In338 O345 2.326 . S
In338 O346 2.266 . S
In338 O347 2.326 . S
In338 O349 2.294 . S
In338 O350 2.326 . S
O339 In338 2.294 . S
O339 C348 1.240 . S
O340 In338 2.326 . S
O340 C348 1.252 . S
C341 O344 1.252 . S
C341 O345 1.260 . S
C342 O349 1.240 . S
C342 O350 1.252 . S
C343 O346 1.252 . S
C343 O347 1.260 . S
O344 In338 2.266 . S
O344 C341 1.252 . S
O345 In338 2.326 . S
O345 C341 1.260 . S
O346 In338 2.266 . S
O346 C343 1.252 . S
O347 In338 2.326 . S
O347 C343 1.260 . S
C348 O339 1.240 . S
C348 O340 1.252 . S
O349 In338 2.294 . S
O349 C342 1.240 . S
O350 In338 2.326 . S
O350 C342 1.252 . S
In351 O352 2.294 . S
In351 O353 2.326 . S
In351 O357 2.266 . S
In351 O358 2.326 . S
In351 O359 2.266 . S
In351 O360 2.326 . S
In351 O362 2.294 . S
In351 O363 2.326 . S
O352 In351 2.294 . S
O352 C361 1.240 . S
O353 In351 2.326 . S
O353 C361 1.252 . S
C354 O357 1.252 . S
C354 O358 1.260 . S
C355 O362 1.240 . S
C355 O363 1.252 . S
C356 O359 1.252 . S
C356 O360 1.260 . S
O357 In351 2.266 . S
O357 C354 1.252 . S
O358 In351 2.326 . S
O358 C354 1.260 . S
O359 In351 2.266 . S
O359 C356 1.252 . S
O360 In351 2.326 . S
O360 C356 1.260 . S
C361 O352 1.240 . S
C361 O353 1.252 . S
O362 In351 2.294 . S
O362 C355 1.240 . S
O363 In351 2.326 . S
O363 C355 1.252 . S
In364 O365 2.294 . S
In364 O366 2.326 . S
In364 O370 2.266 . S
In364 O371 2.326 . S
In364 O372 2.266 . S
In364 O373 2.326 . S
In364 O375 2.294 . S
In364 O376 2.326 . S
O365 In364 2.294 . S
O365 C374 1.240 . S
O366 In364 2.326 . S
O366 C374 1.252 . S
C367 O370 1.252 . S
C367 O371 1.260 . S
C368 O375 1.240 . S
C368 O376 1.252 . S
C369 O372 1.252 . S
C369 O373 1.260 . S
O370 In364 2.266 . S
O370 C367 1.252 . S
O371 In364 2.326 . S
O371 C367 1.260 . S
O372 In364 2.266 . S
O372 C369 1.252 . S
O373 In364 2.326 . S
O373 C369 1.260 . S
C374 O365 1.240 . S
C374 O366 1.252 . S
O375 In364 2.294 . S
O375 C368 1.240 . S
O376 In364 2.326 . S
O376 C368 1.252 . S
In377 O378 2.294 . S
In377 O379 2.326 . S
In377 O383 2.266 . S
In377 O384 2.326 . S
In377 O385 2.266 . S
In377 O386 2.326 . S
In377 O388 2.294 . S
In377 O389 2.326 . S
O378 In377 2.294 . S
O378 C387 1.240 . S
O379 In377 2.326 . S
O379 C387 1.252 . S
C380 O383 1.252 . S
C380 O384 1.260 . S
C381 O388 1.240 . S
C381 O389 1.252 . S
C382 O385 1.252 . S
C382 O386 1.260 . S
O383 In377 2.266 . S
O383 C380 1.252 . S
O384 In377 2.326 . S
O384 C380 1.260 . S
O385 In377 2.266 . S
O385 C382 1.252 . S
O386 In377 2.326 . S
O386 C382 1.260 . S
C387 O378 1.240 . S
C387 O379 1.252 . S
O388 In377 2.294 . S
O388 C381 1.240 . S
O389 In377 2.326 . S
O389 C381 1.252 . S
In390 O391 2.294 . S
In390 O392 2.326 . S
In390 O396 2.266 . S
In390 O397 2.326 . S
In390 O398 2.266 . S
In390 O399 2.326 . S
In390 O401 2.294 . S
In390 O402 2.326 . S
O391 In390 2.294 . S
O391 C400 1.240 . S
O392 In390 2.326 . S
O392 C400 1.252 . S
C393 O396 1.252 . S
C393 O397 1.260 . S
C394 O401 1.240 . S
C394 O402 1.252 . S
C395 O398 1.252 . S
C395 O399 1.260 . S
O396 In390 2.266 . S
O396 C393 1.252 . S
O397 In390 2.326 . S
O397 C393 1.260 . S
O398 In390 2.266 . S
O398 C395 1.252 . S
O399 In390 2.326 . S
O399 C395 1.260 . S
C400 O391 1.240 . S
C400 O392 1.252 . S
O401 In390 2.294 . S
O401 C394 1.240 . S
O402 In390 2.326 . S
O402 C394 1.252 . S
In403 O404 2.294 . S
In403 O405 2.326 . S
In403 O409 2.266 . S
In403 O410 2.326 . S
In403 O411 2.266 . S
In403 O412 2.326 . S
In403 O414 2.294 . S
In403 O415 2.326 . S
O404 In403 2.294 . S
O404 C413 1.240 . S
O405 In403 2.326 . S
O405 C413 1.252 . S
C406 O409 1.252 . S
C406 O410 1.260 . S
C407 O414 1.240 . S
C407 O415 1.252 . S
C408 O411 1.252 . S
C408 O412 1.260 . S
O409 In403 2.266 . S
O409 C406 1.252 . S
O410 In403 2.326 . S
O410 C406 1.260 . S
O411 In403 2.266 . S
O411 C408 1.252 . S
O412 In403 2.326 . S
O412 C408 1.260 . S
C413 O404 1.240 . S
C413 O405 1.252 . S
O414 In403 2.294 . S
O414 C407 1.240 . S
O415 In403 2.326 . S
O415 C407 1.252 . S
H416 C424 0.950 . S
H417 C429 0.950 . S
H418 C426 0.950 . S
H419 C428 0.950 . S
H420 C430 0.950 . S
H421 C432 0.950 . S
H422 C434 0.950 . S
H423 C435 0.950 . S
C424 H416 0.950 . S
C424 C425 1.386 . S
C424 C426 1.391 . S
C425 C424 1.386 . S
C425 C429 1.393 . S
C426 H418 0.950 . S
C426 C424 1.391 . S
C426 C427 1.400 . S
C427 C426 1.400 . S
C427 C428 1.398 . S
C427 C433 1.491 . S
C428 H419 0.950 . S
C428 C427 1.398 . S
C428 C429 1.391 . S
C429 H417 0.950 . S
C429 C425 1.393 . S
C429 C428 1.391 . S
C430 H420 0.950 . S
C430 C431 1.386 . S
C430 C432 1.391 . S
C431 C430 1.386 . S
C431 C435 1.393 . S
C432 H421 0.950 . S
C432 C430 1.391 . S
C432 C433 1.400 . S
C433 C427 1.491 . S
C433 C432 1.400 . S
C433 C434 1.398 . S
C434 H422 0.950 . S
C434 C433 1.398 . S
C434 C435 1.391 . S
C435 H423 0.950 . S
C435 C431 1.393 . S
C435 C434 1.391 . S
H436 C444 0.950 . S
H437 C449 0.950 . S
H438 C446 0.950 . S
H439 C448 0.950 . S
H440 C450 0.950 . S
H441 C452 0.950 . S
H442 C454 0.950 . S
H443 C455 0.950 . S
C444 H436 0.950 . S
C444 C445 1.386 . S
C444 C446 1.391 . S
C445 C444 1.386 . S
C445 C449 1.393 . S
C446 H438 0.950 . S
C446 C444 1.391 . S
C446 C447 1.400 . S
C447 C446 1.400 . S
C447 C448 1.398 . S
C447 C453 1.491 . S
C448 H439 0.950 . S
C448 C447 1.398 . S
C448 C449 1.391 . S
C449 H437 0.950 . S
C449 C445 1.393 . S
C449 C448 1.391 . S
C450 H440 0.950 . S
C450 C451 1.386 . S
C450 C452 1.391 . S
C451 C450 1.386 . S
C451 C455 1.393 . S
C452 H441 0.950 . S
C452 C450 1.391 . S
C452 C453 1.400 . S
C453 C447 1.491 . S
C453 C452 1.400 . S
C453 C454 1.398 . S
C454 H442 0.950 . S
C454 C453 1.398 . S
C454 C455 1.391 . S
C455 H443 0.950 . S
C455 C451 1.393 . S
C455 C454 1.391 . S
H456 C464 0.950 . S
H457 C469 0.950 . S
H458 C466 0.950 . S
H459 C468 0.950 . S
H460 C470 0.950 . S
H461 C472 0.950 . S
H462 C474 0.950 . S
H463 C475 0.950 . S
C464 H456 0.950 . S
C464 C465 1.386 . S
C464 C466 1.391 . S
C465 C464 1.386 . S
C465 C469 1.393 . S
C466 H458 0.950 . S
C466 C464 1.391 . S
C466 C467 1.400 . S
C467 C466 1.400 . S
C467 C468 1.398 . S
C467 C473 1.491 . S
C468 H459 0.950 . S
C468 C467 1.398 . S
C468 C469 1.391 . S
C469 H457 0.950 . S
C469 C465 1.393 . S
C469 C468 1.391 . S
C470 H460 0.950 . S
C470 C471 1.386 . S
C470 C472 1.391 . S
C471 C470 1.386 . S
C471 C475 1.393 . S
C472 H461 0.950 . S
C472 C470 1.391 . S
C472 C473 1.400 . S
C473 C467 1.491 . S
C473 C472 1.400 . S
C473 C474 1.398 . S
C474 H462 0.950 . S
C474 C473 1.398 . S
C474 C475 1.391 . S
C475 H463 0.950 . S
C475 C471 1.393 . S
C475 C474 1.391 . S
H476 C484 0.950 . S
H477 C489 0.950 . S
H478 C486 0.950 . S
H479 C488 0.950 . S
H480 C490 0.950 . S
H481 C492 0.950 . S
H482 C494 0.950 . S
H483 C495 0.950 . S
C484 H476 0.950 . S
C484 C485 1.386 . S
C484 C486 1.391 . S
C485 C484 1.386 . S
C485 C489 1.393 . S
C486 H478 0.950 . S
C486 C484 1.391 . S
C486 C487 1.400 . S
C487 C486 1.400 . S
C487 C488 1.398 . S
C487 C493 1.491 . S
C488 H479 0.950 . S
C488 C487 1.398 . S
C488 C489 1.391 . S
C489 H477 0.950 . S
C489 C485 1.393 . S
C489 C488 1.391 . S
C490 H480 0.950 . S
C490 C491 1.386 . S
C490 C492 1.391 . S
C491 C490 1.386 . S
C491 C495 1.393 . S
C492 H481 0.950 . S
C492 C490 1.391 . S
C492 C493 1.400 . S
C493 C487 1.491 . S
C493 C492 1.400 . S
C493 C494 1.398 . S
C494 H482 0.950 . S
C494 C493 1.398 . S
C494 C495 1.391 . S
C495 H483 0.950 . S
C495 C491 1.393 . S
C495 C494 1.391 . S
H496 C504 0.950 . S
H497 C509 0.950 . S
H498 C506 0.950 . S
H499 C508 0.950 . S
H500 C510 0.950 . S
H501 C512 0.950 . S
H502 C514 0.950 . S
H503 C515 0.950 . S
C504 H496 0.950 . S
C504 C505 1.386 . S
C504 C506 1.391 . S
C505 C504 1.386 . S
C505 C509 1.393 . S
C506 H498 0.950 . S
C506 C504 1.391 . S
C506 C507 1.400 . S
C507 C506 1.400 . S
C507 C508 1.398 . S
C507 C513 1.491 . S
C508 H499 0.950 . S
C508 C507 1.398 . S
C508 C509 1.391 . S
C509 H497 0.950 . S
C509 C505 1.393 . S
C509 C508 1.391 . S
C510 H500 0.950 . S
C510 C511 1.386 . S
C510 C512 1.391 . S
C511 C510 1.386 . S
C511 C515 1.393 . S
C512 H501 0.950 . S
C512 C510 1.391 . S
C512 C513 1.400 . S
C513 C507 1.491 . S
C513 C512 1.400 . S
C513 C514 1.398 . S
C514 H502 0.950 . S
C514 C513 1.398 . S
C514 C515 1.391 . S
C515 H503 0.950 . S
C515 C511 1.393 . S
C515 C514 1.391 . S
H516 C524 0.950 . S
H517 C529 0.950 . S
H518 C526 0.950 . S
H519 C528 0.950 . S
H520 C530 0.950 . S
H521 C532 0.950 . S
H522 C534 0.950 . S
H523 C535 0.950 . S
C524 H516 0.950 . S
C524 C525 1.386 . S
C524 C526 1.391 . S
C525 C524 1.386 . S
C525 C529 1.393 . S
C526 H518 0.950 . S
C526 C524 1.391 . S
C526 C527 1.400 . S
C527 C526 1.400 . S
C527 C528 1.398 . S
C527 C533 1.491 . S
C528 H519 0.950 . S
C528 C527 1.398 . S
C528 C529 1.391 . S
C529 H517 0.950 . S
C529 C525 1.393 . S
C529 C528 1.391 . S
C530 H520 0.950 . S
C530 C531 1.386 . S
C530 C532 1.391 . S
C531 C530 1.386 . S
C531 C535 1.393 . S
C532 H521 0.950 . S
C532 C530 1.391 . S
C532 C533 1.400 . S
C533 C527 1.491 . S
C533 C532 1.400 . S
C533 C534 1.398 . S
C534 H522 0.950 . S
C534 C533 1.398 . S
C534 C535 1.391 . S
C535 H523 0.950 . S
C535 C531 1.393 . S
C535 C534 1.391 . S
H536 C544 0.950 . S
H537 C549 0.950 . S
H538 C546 0.950 . S
H539 C548 0.950 . S
H540 C550 0.950 . S
H541 C552 0.950 . S
H542 C554 0.950 . S
H543 C555 0.950 . S
C544 H536 0.950 . S
C544 C545 1.386 . S
C544 C546 1.391 . S
C545 C544 1.386 . S
C545 C549 1.393 . S
C546 H538 0.950 . S
C546 C544 1.391 . S
C546 C547 1.400 . S
C547 C546 1.400 . S
C547 C548 1.398 . S
C547 C553 1.491 . S
C548 H539 0.950 . S
C548 C547 1.398 . S
C548 C549 1.391 . S
C549 H537 0.950 . S
C549 C545 1.393 . S
C549 C548 1.391 . S
C550 H540 0.950 . S
C550 C551 1.386 . S
C550 C552 1.391 . S
C551 C550 1.386 . S
C551 C555 1.393 . S
C552 H541 0.950 . S
C552 C550 1.391 . S
C552 C553 1.400 . S
C553 C547 1.491 . S
C553 C552 1.400 . S
C553 C554 1.398 . S
C554 H542 0.950 . S
C554 C553 1.398 . S
C554 C555 1.391 . S
C555 H543 0.950 . S
C555 C551 1.393 . S
C555 C554 1.391 . S
H556 C564 0.950 . S
H557 C569 0.950 . S
H558 C566 0.950 . S
H559 C568 0.950 . S
H560 C570 0.950 . S
H561 C572 0.950 . S
H562 C574 0.950 . S
H563 C575 0.950 . S
C564 H556 0.950 . S
C564 C565 1.386 . S
C564 C566 1.391 . S
C565 C564 1.386 . S
C565 C569 1.393 . S
C566 H558 0.950 . S
C566 C564 1.391 . S
C566 C567 1.400 . S
C567 C566 1.400 . S
C567 C568 1.398 . S
C567 C573 1.491 . S
C568 H559 0.950 . S
C568 C567 1.398 . S
C568 C569 1.391 . S
C569 H557 0.950 . S
C569 C565 1.393 . S
C569 C568 1.391 . S
C570 H560 0.950 . S
C570 C571 1.386 . S
C570 C572 1.391 . S
C571 C570 1.386 . S
C571 C575 1.393 . S
C572 H561 0.950 . S
C572 C570 1.391 . S
C572 C573 1.400 . S
C573 C567 1.491 . S
C573 C572 1.400 . S
C573 C574 1.398 . S
C574 H562 0.950 . S
C574 C573 1.398 . S
C574 C575 1.391 . S
C575 H563 0.950 . S
C575 C571 1.393 . S
C575 C574 1.391 . S
H576 C584 0.950 . S
H577 C589 0.950 . S
H578 C586 0.950 . S
H579 C588 0.950 . S
H580 C590 0.950 . S
H581 C592 0.950 . S
H582 C594 0.950 . S
H583 C595 0.950 . S
C584 H576 0.950 . S
C584 C585 1.386 . S
C584 C586 1.391 . S
C585 C584 1.386 . S
C585 C589 1.393 . S
C586 H578 0.950 . S
C586 C584 1.391 . S
C586 C587 1.400 . S
C587 C586 1.400 . S
C587 C588 1.398 . S
C587 C593 1.491 . S
C588 H579 0.950 . S
C588 C587 1.398 . S
C588 C589 1.391 . S
C589 H577 0.950 . S
C589 C585 1.393 . S
C589 C588 1.391 . S
C590 H580 0.950 . S
C590 C591 1.386 . S
C590 C592 1.391 . S
C591 C590 1.386 . S
C591 C595 1.393 . S
C592 H581 0.950 . S
C592 C590 1.391 . S
C592 C593 1.400 . S
C593 C587 1.491 . S
C593 C592 1.400 . S
C593 C594 1.398 . S
C594 H582 0.950 . S
C594 C593 1.398 . S
C594 C595 1.391 . S
C595 H583 0.950 . S
C595 C591 1.393 . S
C595 C594 1.391 . S
H596 C604 0.950 . S
H597 C609 0.950 . S
H598 C606 0.950 . S
H599 C608 0.950 . S
H600 C610 0.950 . S
H601 C612 0.950 . S
H602 C614 0.950 . S
H603 C615 0.950 . S
C604 H596 0.950 . S
C604 C605 1.386 . S
C604 C606 1.391 . S
C605 C604 1.386 . S
C605 C609 1.393 . S
C606 H598 0.950 . S
C606 C604 1.391 . S
C606 C607 1.400 . S
C607 C606 1.400 . S
C607 C608 1.398 . S
C607 C613 1.491 . S
C608 H599 0.950 . S
C608 C607 1.398 . S
C608 C609 1.391 . S
C609 H597 0.950 . S
C609 C605 1.393 . S
C609 C608 1.391 . S
C610 H600 0.950 . S
C610 C611 1.386 . S
C610 C612 1.391 . S
C611 C610 1.386 . S
C611 C615 1.393 . S
C612 H601 0.950 . S
C612 C610 1.391 . S
C612 C613 1.400 . S
C613 C607 1.491 . S
C613 C612 1.400 . S
C613 C614 1.398 . S
C614 H602 0.950 . S
C614 C613 1.398 . S
C614 C615 1.391 . S
C615 H603 0.950 . S
C615 C611 1.393 . S
C615 C614 1.391 . S
H616 C624 0.950 . S
H617 C629 0.950 . S
H618 C626 0.950 . S
H619 C628 0.950 . S
H620 C630 0.950 . S
H621 C632 0.950 . S
H622 C634 0.950 . S
H623 C635 0.950 . S
C624 H616 0.950 . S
C624 C625 1.386 . S
C624 C626 1.391 . S
C625 C624 1.386 . S
C625 C629 1.393 . S
C626 H618 0.950 . S
C626 C624 1.391 . S
C626 C627 1.400 . S
C627 C626 1.400 . S
C627 C628 1.398 . S
C627 C633 1.491 . S
C628 H619 0.950 . S
C628 C627 1.398 . S
C628 C629 1.391 . S
C629 H617 0.950 . S
C629 C625 1.393 . S
C629 C628 1.391 . S
C630 H620 0.950 . S
C630 C631 1.386 . S
C630 C632 1.391 . S
C631 C630 1.386 . S
C631 C635 1.393 . S
C632 H621 0.950 . S
C632 C630 1.391 . S
C632 C633 1.400 . S
C633 C627 1.491 . S
C633 C632 1.400 . S
C633 C634 1.398 . S
C634 H622 0.950 . S
C634 C633 1.398 . S
C634 C635 1.391 . S
C635 H623 0.950 . S
C635 C631 1.393 . S
C635 C634 1.391 . S
H636 C644 0.950 . S
H637 C649 0.950 . S
H638 C646 0.950 . S
H639 C648 0.950 . S
H640 C650 0.950 . S
H641 C652 0.950 . S
H642 C654 0.950 . S
H643 C655 0.950 . S
C644 H636 0.950 . S
C644 C645 1.386 . S
C644 C646 1.391 . S
C645 C644 1.386 . S
C645 C649 1.393 . S
C646 H638 0.950 . S
C646 C644 1.391 . S
C646 C647 1.400 . S
C647 C646 1.400 . S
C647 C648 1.398 . S
C647 C653 1.491 . S
C648 H639 0.950 . S
C648 C647 1.398 . S
C648 C649 1.391 . S
C649 H637 0.950 . S
C649 C645 1.393 . S
C649 C648 1.391 . S
C650 H640 0.950 . S
C650 C651 1.386 . S
C650 C652 1.391 . S
C651 C650 1.386 . S
C651 C655 1.393 . S
C652 H641 0.950 . S
C652 C650 1.391 . S
C652 C653 1.400 . S
C653 C647 1.491 . S
C653 C652 1.400 . S
C653 C654 1.398 . S
C654 H642 0.950 . S
C654 C653 1.398 . S
C654 C655 1.391 . S
C655 H643 0.950 . S
C655 C651 1.393 . S
C655 C654 1.391 . S
H656 C664 0.950 . S
H657 C669 0.950 . S
H658 C666 0.950 . S
H659 C668 0.950 . S
H660 C670 0.950 . S
H661 C672 0.950 . S
H662 C674 0.950 . S
H663 C675 0.950 . S
C664 H656 0.950 . S
C664 C665 1.386 . S
C664 C666 1.391 . S
C665 C664 1.386 . S
C665 C669 1.393 . S
C666 H658 0.950 . S
C666 C664 1.391 . S
C666 C667 1.400 . S
C667 C666 1.400 . S
C667 C668 1.398 . S
C667 C673 1.491 . S
C668 H659 0.950 . S
C668 C667 1.398 . S
C668 C669 1.391 . S
C669 H657 0.950 . S
C669 C665 1.393 . S
C669 C668 1.391 . S
C670 H660 0.950 . S
C670 C671 1.386 . S
C670 C672 1.391 . S
C671 C670 1.386 . S
C671 C675 1.393 . S
C672 H661 0.950 . S
C672 C670 1.391 . S
C672 C673 1.400 . S
C673 C667 1.491 . S
C673 C672 1.400 . S
C673 C674 1.398 . S
C674 H662 0.950 . S
C674 C673 1.398 . S
C674 C675 1.391 . S
C675 H663 0.950 . S
C675 C671 1.393 . S
C675 C674 1.391 . S
H676 C684 0.950 . S
H677 C689 0.950 . S
H678 C686 0.950 . S
H679 C688 0.950 . S
H680 C690 0.950 . S
H681 C692 0.950 . S
H682 C694 0.950 . S
H683 C695 0.950 . S
C684 H676 0.950 . S
C684 C685 1.386 . S
C684 C686 1.391 . S
C685 C684 1.386 . S
C685 C689 1.393 . S
C686 H678 0.950 . S
C686 C684 1.391 . S
C686 C687 1.400 . S
C687 C686 1.400 . S
C687 C688 1.398 . S
C687 C693 1.491 . S
C688 H679 0.950 . S
C688 C687 1.398 . S
C688 C689 1.391 . S
C689 H677 0.950 . S
C689 C685 1.393 . S
C689 C688 1.391 . S
C690 H680 0.950 . S
C690 C691 1.386 . S
C690 C692 1.391 . S
C691 C690 1.386 . S
C691 C695 1.393 . S
C692 H681 0.950 . S
C692 C690 1.391 . S
C692 C693 1.400 . S
C693 C687 1.491 . S
C693 C692 1.400 . S
C693 C694 1.398 . S
C694 H682 0.950 . S
C694 C693 1.398 . S
C694 C695 1.391 . S
C695 H683 0.950 . S
C695 C691 1.393 . S
C695 C694 1.391 . S
H696 C704 0.950 . S
H697 C709 0.950 . S
H698 C706 0.950 . S
H699 C708 0.950 . S
H700 C710 0.950 . S
H701 C712 0.950 . S
H702 C714 0.950 . S
H703 C715 0.950 . S
C704 H696 0.950 . S
C704 C705 1.386 . S
C704 C706 1.391 . S
C705 C704 1.386 . S
C705 C709 1.393 . S
C706 H698 0.950 . S
C706 C704 1.391 . S
C706 C707 1.400 . S
C707 C706 1.400 . S
C707 C708 1.398 . S
C707 C713 1.491 . S
C708 H699 0.950 . S
C708 C707 1.398 . S
C708 C709 1.391 . S
C709 H697 0.950 . S
C709 C705 1.393 . S
C709 C708 1.391 . S
C710 H700 0.950 . S
C710 C711 1.386 . S
C710 C712 1.391 . S
C711 C710 1.386 . S
C711 C715 1.393 . S
C712 H701 0.950 . S
C712 C710 1.391 . S
C712 C713 1.400 . S
C713 C707 1.491 . S
C713 C712 1.400 . S
C713 C714 1.398 . S
C714 H702 0.950 . S
C714 C713 1.398 . S
C714 C715 1.391 . S
C715 H703 0.950 . S
C715 C711 1.393 . S
C715 C714 1.391 . S
H716 C724 0.950 . S
H717 C729 0.950 . S
H718 C726 0.950 . S
H719 C728 0.950 . S
H720 C730 0.950 . S
H721 C732 0.950 . S
H722 C734 0.950 . S
H723 C735 0.950 . S
C724 H716 0.950 . S
C724 C725 1.386 . S
C724 C726 1.391 . S
C725 C724 1.386 . S
C725 C729 1.393 . S
C726 H718 0.950 . S
C726 C724 1.391 . S
C726 C727 1.400 . S
C727 C726 1.400 . S
C727 C728 1.398 . S
C727 C733 1.491 . S
C728 H719 0.950 . S
C728 C727 1.398 . S
C728 C729 1.391 . S
C729 H717 0.950 . S
C729 C725 1.393 . S
C729 C728 1.391 . S
C730 H720 0.950 . S
C730 C731 1.386 . S
C730 C732 1.391 . S
C731 C730 1.386 . S
C731 C735 1.393 . S
C732 H721 0.950 . S
C732 C730 1.391 . S
C732 C733 1.400 . S
C733 C727 1.491 . S
C733 C732 1.400 . S
C733 C734 1.398 . S
C734 H722 0.950 . S
C734 C733 1.398 . S
C734 C735 1.391 . S
C735 H723 0.950 . S
C735 C731 1.393 . S
C735 C734 1.391 . S
H736 C744 0.950 . S
H737 C749 0.950 . S
H738 C746 0.950 . S
H739 C748 0.950 . S
H740 C750 0.950 . S
H741 C752 0.950 . S
H742 C754 0.950 . S
H743 C755 0.950 . S
C744 H736 0.950 . S
C744 C745 1.386 . S
C744 C746 1.391 . S
C745 C744 1.386 . S
C745 C749 1.393 . S
C746 H738 0.950 . S
C746 C744 1.391 . S
C746 C747 1.400 . S
C747 C746 1.400 . S
C747 C748 1.398 . S
C747 C753 1.491 1_655 S
C748 H739 0.950 . S
C748 C747 1.398 . S
C748 C749 1.391 . S
C749 H737 0.950 . S
C749 C745 1.393 . S
C749 C748 1.391 . S
C750 H740 0.950 . S
C750 C751 1.386 . S
C750 C752 1.391 . S
C751 C750 1.386 . S
C751 C755 1.393 . S
C752 H741 0.950 . S
C752 C750 1.391 . S
C752 C753 1.400 . S
C753 C747 1.491 1_455 S
C753 C752 1.400 . S
C753 C754 1.398 . S
C754 H742 0.950 . S
C754 C753 1.398 . S
C754 C755 1.391 . S
C755 H743 0.950 . S
C755 C751 1.393 . S
C755 C754 1.391 . S
H756 C764 0.950 . S
H757 C769 0.950 . S
H758 C766 0.950 . S
H759 C768 0.950 . S
H760 C770 0.950 . S
H761 C772 0.950 . S
H762 C774 0.950 . S
H763 C775 0.950 . S
C764 H756 0.950 . S
C764 C765 1.386 . S
C764 C766 1.391 . S
C765 C764 1.386 . S
C765 C769 1.393 . S
C766 H758 0.950 . S
C766 C764 1.391 . S
C766 C767 1.400 . S
C767 C766 1.400 . S
C767 C768 1.398 . S
C767 C773 1.491 1_545 S
C768 H759 0.950 . S
C768 C767 1.398 . S
C768 C769 1.391 . S
C769 H757 0.950 . S
C769 C765 1.393 . S
C769 C768 1.391 . S
C770 H760 0.950 . S
C770 C771 1.386 . S
C770 C772 1.391 . S
C771 C770 1.386 . S
C771 C775 1.393 . S
C772 H761 0.950 . S
C772 C770 1.391 . S
C772 C773 1.400 . S
C773 C767 1.491 1_565 S
C773 C772 1.400 . S
C773 C774 1.398 . S
C774 H762 0.950 . S
C774 C773 1.398 . S
C774 C775 1.391 . S
C775 H763 0.950 . S
C775 C771 1.393 . S
C775 C774 1.391 . S
H776 C784 0.950 . S
H777 C789 0.950 . S
H778 C786 0.950 . S
H779 C788 0.950 . S
H780 C790 0.950 . S
H781 C792 0.950 . S
H782 C794 0.950 . S
H783 C795 0.950 . S
C784 H776 0.950 . S
C784 C785 1.386 . S
C784 C786 1.391 . S
C785 C784 1.386 . S
C785 C789 1.393 . S
C786 H778 0.950 . S
C786 C784 1.391 . S
C786 C787 1.400 . S
C787 C786 1.400 . S
C787 C788 1.398 . S
C787 C793 1.491 1_455 S
C788 H779 0.950 . S
C788 C787 1.398 . S
C788 C789 1.391 . S
C789 H777 0.950 . S
C789 C785 1.393 . S
C789 C788 1.391 . S
C790 H780 0.950 . S
C790 C791 1.386 . S
C790 C792 1.391 . S
C791 C790 1.386 . S
C791 C795 1.393 . S
C792 H781 0.950 . S
C792 C790 1.391 . S
C792 C793 1.400 . S
C793 C787 1.491 1_655 S
C793 C792 1.400 . S
C793 C794 1.398 . S
C794 H782 0.950 . S
C794 C793 1.398 . S
C794 C795 1.391 . S
C795 H783 0.950 . S
C795 C791 1.393 . S
C795 C794 1.391 . S
H796 C804 0.950 . S
H797 C809 0.950 . S
H798 C806 0.950 . S
H799 C808 0.950 . S
H800 C810 0.950 . S
H801 C812 0.950 . S
H802 C814 0.950 . S
H803 C815 0.950 . S
C804 H796 0.950 . S
C804 C805 1.386 . S
C804 C806 1.391 . S
C805 C804 1.386 . S
C805 C809 1.393 . S
C806 H798 0.950 . S
C806 C804 1.391 . S
C806 C807 1.400 . S
C807 C806 1.400 . S
C807 C808 1.398 . S
C807 C813 1.491 1_565 S
C808 H799 0.950 . S
C808 C807 1.398 . S
C808 C809 1.391 . S
C809 H797 0.950 . S
C809 C805 1.393 . S
C809 C808 1.391 . S
C810 H800 0.950 . S
C810 C811 1.386 . S
C810 C812 1.391 . S
C811 C810 1.386 . S
C811 C815 1.393 . S
C812 H801 0.950 . S
C812 C810 1.391 . S
C812 C813 1.400 . S
C813 C807 1.491 1_545 S
C813 C812 1.400 . S
C813 C814 1.398 . S
C814 H802 0.950 . S
C814 C813 1.398 . S
C814 C815 1.391 . S
C815 H803 0.950 . S
C815 C811 1.393 . S
C815 C814 1.391 . S
H816 C824 0.950 . S
H817 C829 0.950 . S
H818 C826 0.950 . S
H819 C828 0.950 . S
H820 C830 0.950 . S
H821 C832 0.950 . S
H822 C834 0.950 . S
H823 C835 0.950 . S
C824 H816 0.950 . S
C824 C825 1.386 . S
C824 C826 1.391 . S
C825 C824 1.386 . S
C825 C829 1.393 . S
C826 H818 0.950 . S
C826 C824 1.391 . S
C826 C827 1.400 . S
C827 C826 1.400 . S
C827 C828 1.398 . S
C827 C833 1.491 1_455 S
C828 H819 0.950 . S
C828 C827 1.398 . S
C828 C829 1.391 . S
C829 H817 0.950 . S
C829 C825 1.393 . S
C829 C828 1.391 . S
C830 H820 0.950 . S
C830 C831 1.386 . S
C830 C832 1.391 . S
C831 C830 1.386 . S
C831 C835 1.393 . S
C832 H821 0.950 . S
C832 C830 1.391 . S
C832 C833 1.400 . S
C833 C827 1.491 1_655 S
C833 C832 1.400 . S
C833 C834 1.398 . S
C834 H822 0.950 . S
C834 C833 1.398 . S
C834 C835 1.391 . S
C835 H823 0.950 . S
C835 C831 1.393 . S
C835 C834 1.391 . S
H836 C844 0.950 . S
H837 C849 0.950 . S
H838 C846 0.950 . S
H839 C848 0.950 . S
H840 C850 0.950 . S
H841 C852 0.950 . S
H842 C854 0.950 . S
H843 C855 0.950 . S
C844 H836 0.950 . S
C844 C845 1.386 . S
C844 C846 1.391 . S
C845 C844 1.386 . S
C845 C849 1.393 . S
C846 H838 0.950 . S
C846 C844 1.391 . S
C846 C847 1.400 . S
C847 C846 1.400 . S
C847 C848 1.398 . S
C847 C853 1.491 1_565 S
C848 H839 0.950 . S
C848 C847 1.398 . S
C848 C849 1.391 . S
C849 H837 0.950 . S
C849 C845 1.393 . S
C849 C848 1.391 . S
C850 H840 0.950 . S
C850 C851 1.386 . S
C850 C852 1.391 . S
C851 C850 1.386 . S
C851 C855 1.393 . S
C852 H841 0.950 . S
C852 C850 1.391 . S
C852 C853 1.400 . S
C853 C847 1.491 1_545 S
C853 C852 1.400 . S
C853 C854 1.398 . S
C854 H842 0.950 . S
C854 C853 1.398 . S
C854 C855 1.391 . S
C855 H843 0.950 . S
C855 C851 1.393 . S
C855 C854 1.391 . S
H856 C864 0.950 . S
H857 C869 0.950 . S
H858 C866 0.950 . S
H859 C868 0.950 . S
H860 C870 0.950 . S
H861 C872 0.950 . S
H862 C874 0.950 . S
H863 C875 0.950 . S
C864 H856 0.950 . S
C864 C865 1.386 . S
C864 C866 1.391 . S
C865 C864 1.386 . S
C865 C869 1.393 . S
C866 H858 0.950 . S
C866 C864 1.391 . S
C866 C867 1.400 . S
C867 C866 1.400 . S
C867 C868 1.398 . S
C867 C873 1.491 1_455 S
C868 H859 0.950 . S
C868 C867 1.398 . S
C868 C869 1.391 . S
C869 H857 0.950 . S
C869 C865 1.393 . S
C869 C868 1.391 . S
C870 H860 0.950 . S
C870 C871 1.386 . S
C870 C872 1.391 . S
C871 C870 1.386 . S
C871 C875 1.393 . S
C872 H861 0.950 . S
C872 C870 1.391 . S
C872 C873 1.400 . S
C873 C867 1.491 1_655 S
C873 C872 1.400 . S
C873 C874 1.398 . S
C874 H862 0.950 . S
C874 C873 1.398 . S
C874 C875 1.391 . S
C875 H863 0.950 . S
C875 C871 1.393 . S
C875 C874 1.391 . S
H876 C884 0.950 . S
H877 C889 0.950 . S
H878 C886 0.950 . S
H879 C888 0.950 . S
H880 C890 0.950 . S
H881 C892 0.950 . S
H882 C894 0.950 . S
H883 C895 0.950 . S
C884 H876 0.950 . S
C884 C885 1.386 . S
C884 C886 1.391 . S
C885 C884 1.386 . S
C885 C889 1.393 . S
C886 H878 0.950 . S
C886 C884 1.391 . S
C886 C887 1.400 . S
C887 C886 1.400 . S
C887 C888 1.398 . S
C887 C893 1.491 1_545 S
C888 H879 0.950 . S
C888 C887 1.398 . S
C888 C889 1.391 . S
C889 H877 0.950 . S
C889 C885 1.393 . S
C889 C888 1.391 . S
C890 H880 0.950 . S
C890 C891 1.386 . S
C890 C892 1.391 . S
C891 C890 1.386 . S
C891 C895 1.393 . S
C892 H881 0.950 . S
C892 C890 1.391 . S
C892 C893 1.400 . S
C893 C887 1.491 1_565 S
C893 C892 1.400 . S
C893 C894 1.398 . S
C894 H882 0.950 . S
C894 C893 1.398 . S
C894 C895 1.391 . S
C895 H883 0.950 . S
C895 C891 1.393 . S
C895 C894 1.391 . S
H896 C904 0.950 . S
H897 C909 0.950 . S
H898 C906 0.950 . S
H899 C908 0.950 . S
H900 C910 0.950 . S
H901 C912 0.950 . S
H902 C914 0.950 . S
H903 C915 0.950 . S
C904 H896 0.950 . S
C904 C905 1.386 . S
C904 C906 1.391 . S
C905 C904 1.386 . S
C905 C909 1.393 . S
C906 H898 0.950 . S
C906 C904 1.391 . S
C906 C907 1.400 . S
C907 C906 1.400 . S
C907 C908 1.398 . S
C907 C913 1.491 . S
C908 H899 0.950 . S
C908 C907 1.398 . S
C908 C909 1.391 . S
C909 H897 0.950 . S
C909 C905 1.393 . S
C909 C908 1.391 . S
C910 H900 0.950 . S
C910 C911 1.386 . S
C910 C912 1.391 . S
C911 C910 1.386 . S
C911 C915 1.393 . S
C912 H901 0.950 . S
C912 C910 1.391 . S
C912 C913 1.400 . S
C913 C907 1.491 . S
C913 C912 1.400 . S
C913 C914 1.398 . S
C914 H902 0.950 . S
C914 C913 1.398 . S
C914 C915 1.391 . S
C915 H903 0.950 . S
C915 C911 1.393 . S
C915 C914 1.391 . S
H916 C924 0.950 . S
H917 C929 0.950 . S
H918 C926 0.950 . S
H919 C928 0.950 . S
H920 C930 0.950 . S
H921 C932 0.950 . S
H922 C934 0.950 . S
H923 C935 0.950 . S
C924 H916 0.950 . S
C924 C925 1.386 . S
C924 C926 1.391 . S
C925 C924 1.386 . S
C925 C929 1.393 . S
C926 H918 0.950 . S
C926 C924 1.391 . S
C926 C927 1.400 . S
C927 C926 1.400 . S
C927 C928 1.398 . S
C927 C933 1.491 . S
C928 H919 0.950 . S
C928 C927 1.398 . S
C928 C929 1.391 . S
C929 H917 0.950 . S
C929 C925 1.393 . S
C929 C928 1.391 . S
C930 H920 0.950 . S
C930 C931 1.386 . S
C930 C932 1.391 . S
C931 C930 1.386 . S
C931 C935 1.393 . S
C932 H921 0.950 . S
C932 C930 1.391 . S
C932 C933 1.400 . S
C933 C927 1.491 . S
C933 C932 1.400 . S
C933 C934 1.398 . S
C934 H922 0.950 . S
C934 C933 1.398 . S
C934 C935 1.391 . S
C935 H923 0.950 . S
C935 C931 1.393 . S
C935 C934 1.391 . S
H936 C944 0.950 . S
H937 C949 0.950 . S
H938 C946 0.950 . S
H939 C948 0.950 . S
H940 C950 0.950 . S
H941 C952 0.950 . S
H942 C954 0.950 . S
H943 C955 0.950 . S
C944 H936 0.950 . S
C944 C945 1.386 . S
C944 C946 1.391 . S
C945 C944 1.386 . S
C945 C949 1.393 . S
C946 H938 0.950 . S
C946 C944 1.391 . S
C946 C947 1.400 . S
C947 C946 1.400 . S
C947 C948 1.398 . S
C947 C953 1.491 . S
C948 H939 0.950 . S
C948 C947 1.398 . S
C948 C949 1.391 . S
C949 H937 0.950 . S
C949 C945 1.393 . S
C949 C948 1.391 . S
C950 H940 0.950 . S
C950 C951 1.386 . S
C950 C952 1.391 . S
C951 C950 1.386 . S
C951 C955 1.393 . S
C952 H941 0.950 . S
C952 C950 1.391 . S
C952 C953 1.400 . S
C953 C947 1.491 . S
C953 C952 1.400 . S
C953 C954 1.398 . S
C954 H942 0.950 . S
C954 C953 1.398 . S
C954 C955 1.391 . S
C955 H943 0.950 . S
C955 C951 1.393 . S
C955 C954 1.391 . S
H956 C964 0.950 . S
H957 C969 0.950 . S
H958 C966 0.950 . S
H959 C968 0.950 . S
H960 C970 0.950 . S
H961 C972 0.950 . S
H962 C974 0.950 . S
H963 C975 0.950 . S
C964 H956 0.950 . S
C964 C965 1.386 . S
C964 C966 1.391 . S
C965 C964 1.386 . S
C965 C969 1.393 . S
C966 H958 0.950 . S
C966 C964 1.391 . S
C966 C967 1.400 . S
C967 C966 1.400 . S
C967 C968 1.398 . S
C967 C973 1.491 . S
C968 H959 0.950 . S
C968 C967 1.398 . S
C968 C969 1.391 . S
C969 H957 0.950 . S
C969 C965 1.393 . S
C969 C968 1.391 . S
C970 H960 0.950 . S
C970 C971 1.386 . S
C970 C972 1.391 . S
C971 C970 1.386 . S
C971 C975 1.393 . S
C972 H961 0.950 . S
C972 C970 1.391 . S
C972 C973 1.400 . S
C973 C967 1.491 . S
C973 C972 1.400 . S
C973 C974 1.398 . S
C974 H962 0.950 . S
C974 C973 1.398 . S
C974 C975 1.391 . S
C975 H963 0.950 . S
C975 C971 1.393 . S
C975 C974 1.391 . S
H976 C984 0.950 . S
H977 C989 0.950 . S
H978 C986 0.950 . S
H979 C988 0.950 . S
H980 C990 0.950 . S
H981 C992 0.950 . S
H982 C994 0.950 . S
H983 C995 0.950 . S
C984 H976 0.950 . S
C984 C985 1.386 . S
C984 C986 1.391 . S
C985 C984 1.386 . S
C985 C989 1.393 . S
C986 H978 0.950 . S
C986 C984 1.391 . S
C986 C987 1.400 . S
C987 C986 1.400 . S
C987 C988 1.398 . S
C987 C993 1.491 . S
C988 H979 0.950 . S
C988 C987 1.398 . S
C988 C989 1.391 . S
C989 H977 0.950 . S
C989 C985 1.393 . S
C989 C988 1.391 . S
C990 H980 0.950 . S
C990 C991 1.386 . S
C990 C992 1.391 . S
C991 C990 1.386 . S
C991 C995 1.393 . S
C992 H981 0.950 . S
C992 C990 1.391 . S
C992 C993 1.400 . S
C993 C987 1.491 . S
C993 C992 1.400 . S
C993 C994 1.398 . S
C994 H982 0.950 . S
C994 C993 1.398 . S
C994 C995 1.391 . S
C995 H983 0.950 . S
C995 C991 1.393 . S
C995 C994 1.391 . S
H996 C1004 0.950 . S
H997 C1009 0.950 . S
H998 C1006 0.950 . S
H999 C1008 0.950 . S
H1000 C1010 0.950 . S
H1001 C1012 0.950 . S
H1002 C1014 0.950 . S
H1003 C1015 0.950 . S
C1004 H996 0.950 . S
C1004 C1005 1.386 . S
C1004 C1006 1.391 . S
C1005 C1004 1.386 . S
C1005 C1009 1.393 . S
C1006 H998 0.950 . S
C1006 C1004 1.391 . S
C1006 C1007 1.400 . S
C1007 C1006 1.400 . S
C1007 C1008 1.398 . S
C1007 C1013 1.491 . S
C1008 H999 0.950 . S
C1008 C1007 1.398 . S
C1008 C1009 1.391 . S
C1009 H997 0.950 . S
C1009 C1005 1.393 . S
C1009 C1008 1.391 . S
C1010 H1000 0.950 . S
C1010 C1011 1.386 . S
C1010 C1012 1.391 . S
C1011 C1010 1.386 . S
C1011 C1015 1.393 . S
C1012 H1001 0.950 . S
C1012 C1010 1.391 . S
C1012 C1013 1.400 . S
C1013 C1007 1.491 . S
C1013 C1012 1.400 . S
C1013 C1014 1.398 . S
C1014 H1002 0.950 . S
C1014 C1013 1.398 . S
C1014 C1015 1.391 . S
C1015 H1003 0.950 . S
C1015 C1011 1.393 . S
C1015 C1014 1.391 . S
H1016 C1024 0.950 . S
H1017 C1029 0.950 . S
H1018 C1026 0.950 . S
H1019 C1028 0.950 . S
H1020 C1030 0.950 . S
H1021 C1032 0.950 . S
H1022 C1034 0.950 . S
H1023 C1035 0.950 . S
C1024 H1016 0.950 . S
C1024 C1025 1.386 . S
C1024 C1026 1.391 . S
C1025 C1024 1.386 . S
C1025 C1029 1.393 . S
C1026 H1018 0.950 . S
C1026 C1024 1.391 . S
C1026 C1027 1.400 . S
C1027 C1026 1.400 . S
C1027 C1028 1.398 . S
C1027 C1033 1.491 . S
C1028 H1019 0.950 . S
C1028 C1027 1.398 . S
C1028 C1029 1.391 . S
C1029 H1017 0.950 . S
C1029 C1025 1.393 . S
C1029 C1028 1.391 . S
C1030 H1020 0.950 . S
C1030 C1031 1.386 . S
C1030 C1032 1.391 . S
C1031 C1030 1.386 . S
C1031 C1035 1.393 . S
C1032 H1021 0.950 . S
C1032 C1030 1.391 . S
C1032 C1033 1.400 . S
C1033 C1027 1.491 . S
C1033 C1032 1.400 . S
C1033 C1034 1.398 . S
C1034 H1022 0.950 . S
C1034 C1033 1.398 . S
C1034 C1035 1.391 . S
C1035 H1023 0.950 . S
C1035 C1031 1.393 . S
C1035 C1034 1.391 . S
H1036 C1044 0.950 . S
H1037 C1049 0.950 . S
H1038 C1046 0.950 . S
H1039 C1048 0.950 . S
H1040 C1050 0.950 . S
H1041 C1052 0.950 . S
H1042 C1054 0.950 . S
H1043 C1055 0.950 . S
C1044 H1036 0.950 . S
C1044 C1045 1.386 . S
C1044 C1046 1.391 . S
C1045 C1044 1.386 . S
C1045 C1049 1.393 . S
C1046 H1038 0.950 . S
C1046 C1044 1.391 . S
C1046 C1047 1.400 . S
C1047 C1046 1.400 . S
C1047 C1048 1.398 . S
C1047 C1053 1.491 . S
C1048 H1039 0.950 . S
C1048 C1047 1.398 . S
C1048 C1049 1.391 . S
C1049 H1037 0.950 . S
C1049 C1045 1.393 . S
C1049 C1048 1.391 . S
C1050 H1040 0.950 . S
C1050 C1051 1.386 . S
C1050 C1052 1.391 . S
C1051 C1050 1.386 . S
C1051 C1055 1.393 . S
C1052 H1041 0.950 . S
C1052 C1050 1.391 . S
C1052 C1053 1.400 . S
C1053 C1047 1.491 . S
C1053 C1052 1.400 . S
C1053 C1054 1.398 . S
C1054 H1042 0.950 . S
C1054 C1053 1.398 . S
C1054 C1055 1.391 . S
C1055 H1043 0.950 . S
C1055 C1051 1.393 . S
C1055 C1054 1.391 . S
H1056 C1064 0.950 . S
H1057 C1069 0.950 . S
H1058 C1066 0.950 . S
H1059 C1068 0.950 . S
H1060 C1070 0.950 . S
H1061 C1072 0.950 . S
H1062 C1074 0.950 . S
H1063 C1075 0.950 . S
C1064 H1056 0.950 . S
C1064 C1065 1.386 . S
C1064 C1066 1.391 . S
C1065 C1064 1.386 . S
C1065 C1069 1.393 . S
C1066 H1058 0.950 . S
C1066 C1064 1.391 . S
C1066 C1067 1.400 . S
C1067 C1066 1.400 . S
C1067 C1068 1.398 . S
C1067 C1073 1.491 . S
C1068 H1059 0.950 . S
C1068 C1067 1.398 . S
C1068 C1069 1.391 . S
C1069 H1057 0.950 . S
C1069 C1065 1.393 . S
C1069 C1068 1.391 . S
C1070 H1060 0.950 . S
C1070 C1071 1.386 . S
C1070 C1072 1.391 . S
C1071 C1070 1.386 . S
C1071 C1075 1.393 . S
C1072 H1061 0.950 . S
C1072 C1070 1.391 . S
C1072 C1073 1.400 . S
C1073 C1067 1.491 . S
C1073 C1072 1.400 . S
C1073 C1074 1.398 . S
C1074 H1062 0.950 . S
C1074 C1073 1.398 . S
C1074 C1075 1.391 . S
C1075 H1063 0.950 . S
C1075 C1071 1.393 . S
C1075 C1074 1.391 . S
H1076 C1084 0.950 . S
H1077 C1089 0.950 . S
H1078 C1086 0.950 . S
H1079 C1088 0.950 . S
H1080 C1090 0.950 . S
H1081 C1092 0.950 . S
H1082 C1094 0.950 . S
H1083 C1095 0.950 . S
C1084 H1076 0.950 . S
C1084 C1085 1.386 . S
C1084 C1086 1.391 . S
C1085 C1084 1.386 . S
C1085 C1089 1.393 . S
C1086 H1078 0.950 . S
C1086 C1084 1.391 . S
C1086 C1087 1.400 . S
C1087 C1086 1.400 . S
C1087 C1088 1.398 . S
C1087 C1093 1.491 . S
C1088 H1079 0.950 . S
C1088 C1087 1.398 . S
C1088 C1089 1.391 . S
C1089 H1077 0.950 . S
C1089 C1085 1.393 . S
C1089 C1088 1.391 . S
C1090 H1080 0.950 . S
C1090 C1091 1.386 . S
C1090 C1092 1.391 . S
C1091 C1090 1.386 . S
C1091 C1095 1.393 . S
C1092 H1081 0.950 . S
C1092 C1090 1.391 . S
C1092 C1093 1.400 . S
C1093 C1087 1.491 . S
C1093 C1092 1.400 . S
C1093 C1094 1.398 . S
C1094 H1082 0.950 . S
C1094 C1093 1.398 . S
C1094 C1095 1.391 . S
C1095 H1083 0.950 . S
C1095 C1091 1.393 . S
C1095 C1094 1.391 . S
H1096 C1104 0.950 . S
H1097 C1109 0.950 . S
H1098 C1106 0.950 . S
H1099 C1108 0.950 . S
H1100 C1110 0.950 . S
H1101 C1112 0.950 . S
H1102 C1114 0.950 . S
H1103 C1115 0.950 . S
C1104 H1096 0.950 . S
C1104 C1105 1.386 . S
C1104 C1106 1.391 . S
C1105 C1104 1.386 . S
C1105 C1109 1.393 . S
C1106 H1098 0.950 . S
C1106 C1104 1.391 . S
C1106 C1107 1.400 . S
C1107 C1106 1.400 . S
C1107 C1108 1.398 . S
C1107 C1113 1.491 . S
C1108 H1099 0.950 . S
C1108 C1107 1.398 . S
C1108 C1109 1.391 . S
C1109 H1097 0.950 . S
C1109 C1105 1.393 . S
C1109 C1108 1.391 . S
C1110 H1100 0.950 . S
C1110 C1111 1.386 . S
C1110 C1112 1.391 . S
C1111 C1110 1.386 . S
C1111 C1115 1.393 . S
C1112 H1101 0.950 . S
C1112 C1110 1.391 . S
C1112 C1113 1.400 . S
C1113 C1107 1.491 . S
C1113 C1112 1.400 . S
C1113 C1114 1.398 . S
C1114 H1102 0.950 . S
C1114 C1113 1.398 . S
C1114 C1115 1.391 . S
C1115 H1103 0.950 . S
C1115 C1111 1.393 . S
C1115 C1114 1.391 . S
H1116 C1124 0.950 . S
H1117 C1129 0.950 . S
H1118 C1126 0.950 . S
H1119 C1128 0.950 . S
H1120 C1130 0.950 . S
H1121 C1132 0.950 . S
H1122 C1134 0.950 . S
H1123 C1135 0.950 . S
C1124 H1116 0.950 . S
C1124 C1125 1.386 . S
C1124 C1126 1.391 . S
C1125 C1124 1.386 . S
C1125 C1129 1.393 . S
C1126 H1118 0.950 . S
C1126 C1124 1.391 . S
C1126 C1127 1.400 . S
C1127 C1126 1.400 . S
C1127 C1128 1.398 . S
C1127 C1133 1.491 . S
C1128 H1119 0.950 . S
C1128 C1127 1.398 . S
C1128 C1129 1.391 . S
C1129 H1117 0.950 . S
C1129 C1125 1.393 . S
C1129 C1128 1.391 . S
C1130 H1120 0.950 . S
C1130 C1131 1.386 . S
C1130 C1132 1.391 . S
C1131 C1130 1.386 . S
C1131 C1135 1.393 . S
C1132 H1121 0.950 . S
C1132 C1130 1.391 . S
C1132 C1133 1.400 . S
C1133 C1127 1.491 . S
C1133 C1132 1.400 . S
C1133 C1134 1.398 . S
C1134 H1122 0.950 . S
C1134 C1133 1.398 . S
C1134 C1135 1.391 . S
C1135 H1123 0.950 . S
C1135 C1131 1.393 . S
C1135 C1134 1.391 . S
H1136 C1144 0.950 . S
H1137 C1149 0.950 . S
H1138 C1146 0.950 . S
H1139 C1148 0.950 . S
H1140 C1150 0.950 . S
H1141 C1152 0.950 . S
H1142 C1154 0.950 . S
H1143 C1155 0.950 . S
C1144 H1136 0.950 . S
C1144 C1145 1.386 . S
C1144 C1146 1.391 . S
C1145 C1144 1.386 . S
C1145 C1149 1.393 . S
C1146 H1138 0.950 . S
C1146 C1144 1.391 . S
C1146 C1147 1.400 . S
C1147 C1146 1.400 . S
C1147 C1148 1.398 . S
C1147 C1153 1.491 . S
C1148 H1139 0.950 . S
C1148 C1147 1.398 . S
C1148 C1149 1.391 . S
C1149 H1137 0.950 . S
C1149 C1145 1.393 . S
C1149 C1148 1.391 . S
C1150 H1140 0.950 . S
C1150 C1151 1.386 . S
C1150 C1152 1.391 . S
C1151 C1150 1.386 . S
C1151 C1155 1.393 . S
C1152 H1141 0.950 . S
C1152 C1150 1.391 . S
C1152 C1153 1.400 . S
C1153 C1147 1.491 . S
C1153 C1152 1.400 . S
C1153 C1154 1.398 . S
C1154 H1142 0.950 . S
C1154 C1153 1.398 . S
C1154 C1155 1.391 . S
C1155 H1143 0.950 . S
C1155 C1151 1.393 . S
C1155 C1154 1.391 . S
H1156 C1164 0.950 . S
H1157 C1169 0.950 . S
H1158 C1166 0.950 . S
H1159 C1168 0.950 . S
H1160 C1170 0.950 . S
H1161 C1172 0.950 . S
H1162 C1174 0.950 . S
H1163 C1175 0.950 . S
C1164 H1156 0.950 . S
C1164 C1165 1.386 . S
C1164 C1166 1.391 . S
C1165 C1164 1.386 . S
C1165 C1169 1.393 . S
C1166 H1158 0.950 . S
C1166 C1164 1.391 . S
C1166 C1167 1.400 . S
C1167 C1166 1.400 . S
C1167 C1168 1.398 . S
C1167 C1173 1.491 . S
C1168 H1159 0.950 . S
C1168 C1167 1.398 . S
C1168 C1169 1.391 . S
C1169 H1157 0.950 . S
C1169 C1165 1.393 . S
C1169 C1168 1.391 . S
C1170 H1160 0.950 . S
C1170 C1171 1.386 . S
C1170 C1172 1.391 . S
C1171 C1170 1.386 . S
C1171 C1175 1.393 . S
C1172 H1161 0.950 . S
C1172 C1170 1.391 . S
C1172 C1173 1.400 . S
C1173 C1167 1.491 . S
C1173 C1172 1.400 . S
C1173 C1174 1.398 . S
C1174 H1162 0.950 . S
C1174 C1173 1.398 . S
C1174 C1175 1.391 . S
C1175 H1163 0.950 . S
C1175 C1171 1.393 . S
C1175 C1174 1.391 . S
H1176 C1184 0.950 . S
H1177 C1189 0.950 . S
H1178 C1186 0.950 . S
H1179 C1188 0.950 . S
H1180 C1190 0.950 . S
H1181 C1192 0.950 . S
H1182 C1194 0.950 . S
H1183 C1195 0.950 . S
C1184 H1176 0.950 . S
C1184 C1185 1.386 . S
C1184 C1186 1.391 . S
C1185 C1184 1.386 . S
C1185 C1189 1.393 . S
C1186 H1178 0.950 . S
C1186 C1184 1.391 . S
C1186 C1187 1.400 . S
C1187 C1186 1.400 . S
C1187 C1188 1.398 . S
C1187 C1193 1.491 . S
C1188 H1179 0.950 . S
C1188 C1187 1.398 . S
C1188 C1189 1.391 . S
C1189 H1177 0.950 . S
C1189 C1185 1.393 . S
C1189 C1188 1.391 . S
C1190 H1180 0.950 . S
C1190 C1191 1.386 . S
C1190 C1192 1.391 . S
C1191 C1190 1.386 . S
C1191 C1195 1.393 . S
C1192 H1181 0.950 . S
C1192 C1190 1.391 . S
C1192 C1193 1.400 . S
C1193 C1187 1.491 . S
C1193 C1192 1.400 . S
C1193 C1194 1.398 . S
C1194 H1182 0.950 . S
C1194 C1193 1.398 . S
C1194 C1195 1.391 . S
C1195 H1183 0.950 . S
C1195 C1191 1.393 . S
C1195 C1194 1.391 . S
H1196 C1204 0.950 . S
H1197 C1209 0.950 . S
H1198 C1206 0.950 . S
H1199 C1208 0.950 . S
H1200 C1210 0.950 . S
H1201 C1212 0.950 . S
H1202 C1214 0.950 . S
H1203 C1215 0.950 . S
C1204 H1196 0.950 . S
C1204 C1205 1.386 . S
C1204 C1206 1.391 . S
C1205 C1204 1.386 . S
C1205 C1209 1.393 . S
C1206 H1198 0.950 . S
C1206 C1204 1.391 . S
C1206 C1207 1.400 . S
C1207 C1206 1.400 . S
C1207 C1208 1.398 . S
C1207 C1213 1.491 . S
C1208 H1199 0.950 . S
C1208 C1207 1.398 . S
C1208 C1209 1.391 . S
C1209 H1197 0.950 . S
C1209 C1205 1.393 . S
C1209 C1208 1.391 . S
C1210 H1200 0.950 . S
C1210 C1211 1.386 . S
C1210 C1212 1.391 . S
C1211 C1210 1.386 . S
C1211 C1215 1.393 . S
C1212 H1201 0.950 . S
C1212 C1210 1.391 . S
C1212 C1213 1.400 . S
C1213 C1207 1.491 . S
C1213 C1212 1.400 . S
C1213 C1214 1.398 . S
C1214 H1202 0.950 . S
C1214 C1213 1.398 . S
C1214 C1215 1.391 . S
C1215 H1203 0.950 . S
C1215 C1211 1.393 . S
C1215 C1214 1.391 . S
H1216 C1224 0.950 . S
H1217 C1229 0.950 . S
H1218 C1226 0.950 . S
H1219 C1228 0.950 . S
H1220 C1230 0.950 . S
H1221 C1232 0.950 . S
H1222 C1234 0.950 . S
H1223 C1235 0.950 . S
C1224 H1216 0.950 . S
C1224 C1225 1.386 . S
C1224 C1226 1.391 . S
C1225 C1224 1.386 . S
C1225 C1229 1.393 . S
C1226 H1218 0.950 . S
C1226 C1224 1.391 . S
C1226 C1227 1.400 . S
C1227 C1226 1.400 . S
C1227 C1228 1.398 . S
C1227 C1233 1.491 1_554 S
C1228 H1219 0.950 . S
C1228 C1227 1.398 . S
C1228 C1229 1.391 . S
C1229 H1217 0.950 . S
C1229 C1225 1.393 . S
C1229 C1228 1.391 . S
C1230 H1220 0.950 . S
C1230 C1231 1.386 . S
C1230 C1232 1.391 . S
C1231 C1230 1.386 . S
C1231 C1235 1.393 . S
C1232 H1221 0.950 . S
C1232 C1230 1.391 . S
C1232 C1233 1.400 . S
C1233 C1227 1.491 1_556 S
C1233 C1232 1.400 . S
C1233 C1234 1.398 . S
C1234 H1222 0.950 . S
C1234 C1233 1.398 . S
C1234 C1235 1.391 . S
C1235 H1223 0.950 . S
C1235 C1231 1.393 . S
C1235 C1234 1.391 . S
H1236 C1244 0.950 . S
H1237 C1249 0.950 . S
H1238 C1246 0.950 . S
H1239 C1248 0.950 . S
H1240 C1250 0.950 . S
H1241 C1252 0.950 . S
H1242 C1254 0.950 . S
H1243 C1255 0.950 . S
C1244 H1236 0.950 . S
C1244 C1245 1.386 . S
C1244 C1246 1.391 . S
C1245 C1244 1.386 . S
C1245 C1249 1.393 . S
C1246 H1238 0.950 . S
C1246 C1244 1.391 . S
C1246 C1247 1.400 . S
C1247 C1246 1.400 . S
C1247 C1248 1.398 . S
C1247 C1253 1.491 1_556 S
C1248 H1239 0.950 . S
C1248 C1247 1.398 . S
C1248 C1249 1.391 . S
C1249 H1237 0.950 . S
C1249 C1245 1.393 . S
C1249 C1248 1.391 . S
C1250 H1240 0.950 . S
C1250 C1251 1.386 . S
C1250 C1252 1.391 . S
C1251 C1250 1.386 . S
C1251 C1255 1.393 . S
C1252 H1241 0.950 . S
C1252 C1250 1.391 . S
C1252 C1253 1.400 . S
C1253 C1247 1.491 1_554 S
C1253 C1252 1.400 . S
C1253 C1254 1.398 . S
C1254 H1242 0.950 . S
C1254 C1253 1.398 . S
C1254 C1255 1.391 . S
C1255 H1243 0.950 . S
C1255 C1251 1.393 . S
C1255 C1254 1.391 . S
H1256 C1264 0.950 . S
H1257 C1269 0.950 . S
H1258 C1266 0.950 . S
H1259 C1268 0.950 . S
H1260 C1270 0.950 . S
H1261 C1272 0.950 . S
H1262 C1274 0.950 . S
H1263 C1275 0.950 . S
C1264 H1256 0.950 . S
C1264 C1265 1.386 . S
C1264 C1266 1.391 . S
C1265 C1264 1.386 . S
C1265 C1269 1.393 . S
C1266 H1258 0.950 . S
C1266 C1264 1.391 . S
C1266 C1267 1.400 . S
C1267 C1266 1.400 . S
C1267 C1268 1.398 . S
C1267 C1273 1.491 1_554 S
C1268 H1259 0.950 . S
C1268 C1267 1.398 . S
C1268 C1269 1.391 . S
C1269 H1257 0.950 . S
C1269 C1265 1.393 . S
C1269 C1268 1.391 . S
C1270 H1260 0.950 . S
C1270 C1271 1.386 . S
C1270 C1272 1.391 . S
C1271 C1270 1.386 . S
C1271 C1275 1.393 . S
C1272 H1261 0.950 . S
C1272 C1270 1.391 . S
C1272 C1273 1.400 . S
C1273 C1267 1.491 1_556 S
C1273 C1272 1.400 . S
C1273 C1274 1.398 . S
C1274 H1262 0.950 . S
C1274 C1273 1.398 . S
C1274 C1275 1.391 . S
C1275 H1263 0.950 . S
C1275 C1271 1.393 . S
C1275 C1274 1.391 . S
H1276 C1284 0.950 . S
H1277 C1289 0.950 . S
H1278 C1286 0.950 . S
H1279 C1288 0.950 . S
H1280 C1290 0.950 . S
H1281 C1292 0.950 . S
H1282 C1294 0.950 . S
H1283 C1295 0.950 . S
C1284 H1276 0.950 . S
C1284 C1285 1.386 . S
C1284 C1286 1.391 . S
C1285 C1284 1.386 . S
C1285 C1289 1.393 . S
C1286 H1278 0.950 . S
C1286 C1284 1.391 . S
C1286 C1287 1.400 . S
C1287 C1286 1.400 . S
C1287 C1288 1.398 . S
C1287 C1293 1.491 1_554 S
C1288 H1279 0.950 . S
C1288 C1287 1.398 . S
C1288 C1289 1.391 . S
C1289 H1277 0.950 . S
C1289 C1285 1.393 . S
C1289 C1288 1.391 . S
C1290 H1280 0.950 . S
C1290 C1291 1.386 . S
C1290 C1292 1.391 . S
C1291 C1290 1.386 . S
C1291 C1295 1.393 . S
C1292 H1281 0.950 . S
C1292 C1290 1.391 . S
C1292 C1293 1.400 . S
C1293 C1287 1.491 1_556 S
C1293 C1292 1.400 . S
C1293 C1294 1.398 . S
C1294 H1282 0.950 . S
C1294 C1293 1.398 . S
C1294 C1295 1.391 . S
C1295 H1283 0.950 . S
C1295 C1291 1.393 . S
C1295 C1294 1.391 . S
H1296 C1304 0.950 . S
H1297 C1309 0.950 . S
H1298 C1306 0.950 . S
H1299 C1308 0.950 . S
H1300 C1310 0.950 . S
H1301 C1312 0.950 . S
H1302 C1314 0.950 . S
H1303 C1315 0.950 . S
C1304 H1296 0.950 . S
C1304 C1305 1.386 . S
C1304 C1306 1.391 . S
C1305 C1304 1.386 . S
C1305 C1309 1.393 . S
C1306 H1298 0.950 . S
C1306 C1304 1.391 . S
C1306 C1307 1.400 . S
C1307 C1306 1.400 . S
C1307 C1308 1.398 . S
C1307 C1313 1.491 1_554 S
C1308 H1299 0.950 . S
C1308 C1307 1.398 . S
C1308 C1309 1.391 . S
C1309 H1297 0.950 . S
C1309 C1305 1.393 . S
C1309 C1308 1.391 . S
C1310 H1300 0.950 . S
C1310 C1311 1.386 . S
C1310 C1312 1.391 . S
C1311 C1310 1.386 . S
C1311 C1315 1.393 . S
C1312 H1301 0.950 . S
C1312 C1310 1.391 . S
C1312 C1313 1.400 . S
C1313 C1307 1.491 1_556 S
C1313 C1312 1.400 . S
C1313 C1314 1.398 . S
C1314 H1302 0.950 . S
C1314 C1313 1.398 . S
C1314 C1315 1.391 . S
C1315 H1303 0.950 . S
C1315 C1311 1.393 . S
C1315 C1314 1.391 . S
H1316 C1324 0.950 . S
H1317 C1329 0.950 . S
H1318 C1326 0.950 . S
H1319 C1328 0.950 . S
H1320 C1330 0.950 . S
H1321 C1332 0.950 . S
H1322 C1334 0.950 . S
H1323 C1335 0.950 . S
C1324 H1316 0.950 . S
C1324 C1325 1.386 . S
C1324 C1326 1.391 . S
C1325 C1324 1.386 . S
C1325 C1329 1.393 . S
C1326 H1318 0.950 . S
C1326 C1324 1.391 . S
C1326 C1327 1.400 . S
C1327 C1326 1.400 . S
C1327 C1328 1.398 . S
C1327 C1333 1.491 1_554 S
C1328 H1319 0.950 . S
C1328 C1327 1.398 . S
C1328 C1329 1.391 . S
C1329 H1317 0.950 . S
C1329 C1325 1.393 . S
C1329 C1328 1.391 . S
C1330 H1320 0.950 . S
C1330 C1331 1.386 . S
C1330 C1332 1.391 . S
C1331 C1330 1.386 . S
C1331 C1335 1.393 . S
C1332 H1321 0.950 . S
C1332 C1330 1.391 . S
C1332 C1333 1.400 . S
C1333 C1327 1.491 1_556 S
C1333 C1332 1.400 . S
C1333 C1334 1.398 . S
C1334 H1322 0.950 . S
C1334 C1333 1.398 . S
C1334 C1335 1.391 . S
C1335 H1323 0.950 . S
C1335 C1331 1.393 . S
C1335 C1334 1.391 . S
H1336 C1344 0.950 . S
H1337 C1349 0.950 . S
H1338 C1346 0.950 . S
H1339 C1348 0.950 . S
H1340 C1350 0.950 . S
H1341 C1352 0.950 . S
H1342 C1354 0.950 . S
H1343 C1355 0.950 . S
C1344 H1336 0.950 . S
C1344 C1345 1.386 . S
C1344 C1346 1.391 . S
C1345 C1344 1.386 . S
C1345 C1349 1.393 . S
C1346 H1338 0.950 . S
C1346 C1344 1.391 . S
C1346 C1347 1.400 . S
C1347 C1346 1.400 . S
C1347 C1348 1.398 . S
C1347 C1353 1.491 1_556 S
C1348 H1339 0.950 . S
C1348 C1347 1.398 . S
C1348 C1349 1.391 . S
C1349 H1337 0.950 . S
C1349 C1345 1.393 . S
C1349 C1348 1.391 . S
C1350 H1340 0.950 . S
C1350 C1351 1.386 . S
C1350 C1352 1.391 . S
C1351 C1350 1.386 . S
C1351 C1355 1.393 . S
C1352 H1341 0.950 . S
C1352 C1350 1.391 . S
C1352 C1353 1.400 . S
C1353 C1347 1.491 1_554 S
C1353 C1352 1.400 . S
C1353 C1354 1.398 . S
C1354 H1342 0.950 . S
C1354 C1353 1.398 . S
C1354 C1355 1.391 . S
C1355 H1343 0.950 . S
C1355 C1351 1.393 . S
C1355 C1354 1.391 . S
H1356 C1364 0.950 . S
H1357 C1369 0.950 . S
H1358 C1366 0.950 . S
H1359 C1368 0.950 . S
H1360 C1370 0.950 . S
H1361 C1372 0.950 . S
H1362 C1374 0.950 . S
H1363 C1375 0.950 . S
C1364 H1356 0.950 . S
C1364 C1365 1.386 . S
C1364 C1366 1.391 . S
C1365 C1364 1.386 . S
C1365 C1369 1.393 . S
C1366 H1358 0.950 . S
C1366 C1364 1.391 . S
C1366 C1367 1.400 . S
C1367 C1366 1.400 . S
C1367 C1368 1.398 . S
C1367 C1373 1.491 1_556 S
C1368 H1359 0.950 . S
C1368 C1367 1.398 . S
C1368 C1369 1.391 . S
C1369 H1357 0.950 . S
C1369 C1365 1.393 . S
C1369 C1368 1.391 . S
C1370 H1360 0.950 . S
C1370 C1371 1.386 . S
C1370 C1372 1.391 . S
C1371 C1370 1.386 . S
C1371 C1375 1.393 . S
C1372 H1361 0.950 . S
C1372 C1370 1.391 . S
C1372 C1373 1.400 . S
C1373 C1367 1.491 1_554 S
C1373 C1372 1.400 . S
C1373 C1374 1.398 . S
C1374 H1362 0.950 . S
C1374 C1373 1.398 . S
C1374 C1375 1.391 . S
C1375 H1363 0.950 . S
C1375 C1371 1.393 . S
C1375 C1374 1.391 . S
H1376 C1384 0.950 . S
H1377 C1389 0.950 . S
H1378 C1386 0.950 . S
H1379 C1388 0.950 . S
H1380 C1390 0.950 . S
H1381 C1392 0.950 . S
H1382 C1394 0.950 . S
H1383 C1395 0.950 . S
C1384 H1376 0.950 . S
C1384 C1385 1.386 . S
C1384 C1386 1.391 . S
C1385 C1384 1.386 . S
C1385 C1389 1.393 . S
C1386 H1378 0.950 . S
C1386 C1384 1.391 . S
C1386 C1387 1.400 . S
C1387 C1386 1.400 . S
C1387 C1388 1.398 . S
C1387 C1393 1.491 . S
C1388 H1379 0.950 . S
C1388 C1387 1.398 . S
C1388 C1389 1.391 . S
C1389 H1377 0.950 . S
C1389 C1385 1.393 . S
C1389 C1388 1.391 . S
C1390 H1380 0.950 . S
C1390 C1391 1.386 . S
C1390 C1392 1.391 . S
C1391 C1390 1.386 . S
C1391 C1395 1.393 . S
C1392 H1381 0.950 . S
C1392 C1390 1.391 . S
C1392 C1393 1.400 . S
C1393 C1387 1.491 . S
C1393 C1392 1.400 . S
C1393 C1394 1.398 . S
C1394 H1382 0.950 . S
C1394 C1393 1.398 . S
C1394 C1395 1.391 . S
C1395 H1383 0.950 . S
C1395 C1391 1.393 . S
C1395 C1394 1.391 . S
H1396 C1404 0.950 . S
H1397 C1409 0.950 . S
H1398 C1406 0.950 . S
H1399 C1408 0.950 . S
H1400 C1410 0.950 . S
H1401 C1412 0.950 . S
H1402 C1414 0.950 . S
H1403 C1415 0.950 . S
C1404 H1396 0.950 . S
C1404 C1405 1.386 . S
C1404 C1406 1.391 . S
C1405 C1404 1.386 . S
C1405 C1409 1.393 . S
C1406 H1398 0.950 . S
C1406 C1404 1.391 . S
C1406 C1407 1.400 . S
C1407 C1406 1.400 . S
C1407 C1408 1.398 . S
C1407 C1413 1.491 . S
C1408 H1399 0.950 . S
C1408 C1407 1.398 . S
C1408 C1409 1.391 . S
C1409 H1397 0.950 . S
C1409 C1405 1.393 . S
C1409 C1408 1.391 . S
C1410 H1400 0.950 . S
C1410 C1411 1.386 . S
C1410 C1412 1.391 . S
C1411 C1410 1.386 . S
C1411 C1415 1.393 . S
C1412 H1401 0.950 . S
C1412 C1410 1.391 . S
C1412 C1413 1.400 . S
C1413 C1407 1.491 . S
C1413 C1412 1.400 . S
C1413 C1414 1.398 . S
C1414 H1402 0.950 . S
C1414 C1413 1.398 . S
C1414 C1415 1.391 . S
C1415 H1403 0.950 . S
C1415 C1411 1.393 . S
C1415 C1414 1.391 . S
H1416 C1424 0.950 . S
H1417 C1429 0.950 . S
H1418 C1426 0.950 . S
H1419 C1428 0.950 . S
H1420 C1430 0.950 . S
H1421 C1432 0.950 . S
H1422 C1434 0.950 . S
H1423 C1435 0.950 . S
C1424 H1416 0.950 . S
C1424 C1425 1.386 . S
C1424 C1426 1.391 . S
C1425 C1424 1.386 . S
C1425 C1429 1.393 . S
C1426 H1418 0.950 . S
C1426 C1424 1.391 . S
C1426 C1427 1.400 . S
C1427 C1426 1.400 . S
C1427 C1428 1.398 . S
C1427 C1433 1.491 . S
C1428 H1419 0.950 . S
C1428 C1427 1.398 . S
C1428 C1429 1.391 . S
C1429 H1417 0.950 . S
C1429 C1425 1.393 . S
C1429 C1428 1.391 . S
C1430 H1420 0.950 . S
C1430 C1431 1.386 . S
C1430 C1432 1.391 . S
C1431 C1430 1.386 . S
C1431 C1435 1.393 . S
C1432 H1421 0.950 . S
C1432 C1430 1.391 . S
C1432 C1433 1.400 . S
C1433 C1427 1.491 . S
C1433 C1432 1.400 . S
C1433 C1434 1.398 . S
C1434 H1422 0.950 . S
C1434 C1433 1.398 . S
C1434 C1435 1.391 . S
C1435 H1423 0.950 . S
C1435 C1431 1.393 . S
C1435 C1434 1.391 . S
H1436 C1444 0.950 . S
H1437 C1449 0.950 . S
H1438 C1446 0.950 . S
H1439 C1448 0.950 . S
H1440 C1450 0.950 . S
H1441 C1452 0.950 . S
H1442 C1454 0.950 . S
H1443 C1455 0.950 . S
C1444 H1436 0.950 . S
C1444 C1445 1.386 . S
C1444 C1446 1.391 . S
C1445 C1444 1.386 . S
C1445 C1449 1.393 . S
C1446 H1438 0.950 . S
C1446 C1444 1.391 . S
C1446 C1447 1.400 . S
C1447 C1446 1.400 . S
C1447 C1448 1.398 . S
C1447 C1453 1.491 . S
C1448 H1439 0.950 . S
C1448 C1447 1.398 . S
C1448 C1449 1.391 . S
C1449 H1437 0.950 . S
C1449 C1445 1.393 . S
C1449 C1448 1.391 . S
C1450 H1440 0.950 . S
C1450 C1451 1.386 . S
C1450 C1452 1.391 . S
C1451 C1450 1.386 . S
C1451 C1455 1.393 . S
C1452 H1441 0.950 . S
C1452 C1450 1.391 . S
C1452 C1453 1.400 . S
C1453 C1447 1.491 . S
C1453 C1452 1.400 . S
C1453 C1454 1.398 . S
C1454 H1442 0.950 . S
C1454 C1453 1.398 . S
C1454 C1455 1.391 . S
C1455 H1443 0.950 . S
C1455 C1451 1.393 . S
C1455 C1454 1.391 . S
H1456 C1464 0.950 . S
H1457 C1469 0.950 . S
H1458 C1466 0.950 . S
H1459 C1468 0.950 . S
H1460 C1470 0.950 . S
H1461 C1472 0.950 . S
H1462 C1474 0.950 . S
H1463 C1475 0.950 . S
C1464 H1456 0.950 . S
C1464 C1465 1.386 . S
C1464 C1466 1.391 . S
C1465 C1464 1.386 . S
C1465 C1469 1.393 . S
C1466 H1458 0.950 . S
C1466 C1464 1.391 . S
C1466 C1467 1.400 . S
C1467 C1466 1.400 . S
C1467 C1468 1.398 . S
C1467 C1473 1.491 . S
C1468 H1459 0.950 . S
C1468 C1467 1.398 . S
C1468 C1469 1.391 . S
C1469 H1457 0.950 . S
C1469 C1465 1.393 . S
C1469 C1468 1.391 . S
C1470 H1460 0.950 . S
C1470 C1471 1.386 . S
C1470 C1472 1.391 . S
C1471 C1470 1.386 . S
C1471 C1475 1.393 . S
C1472 H1461 0.950 . S
C1472 C1470 1.391 . S
C1472 C1473 1.400 . S
C1473 C1467 1.491 . S
C1473 C1472 1.400 . S
C1473 C1474 1.398 . S
C1474 H1462 0.950 . S
C1474 C1473 1.398 . S
C1474 C1475 1.391 . S
C1475 H1463 0.950 . S
C1475 C1471 1.393 . S
C1475 C1474 1.391 . S
H1476 C1484 0.950 . S
H1477 C1489 0.950 . S
H1478 C1486 0.950 . S
H1479 C1488 0.950 . S
H1480 C1490 0.950 . S
H1481 C1492 0.950 . S
H1482 C1494 0.950 . S
H1483 C1495 0.950 . S
C1484 H1476 0.950 . S
C1484 C1485 1.386 . S
C1484 C1486 1.391 . S
C1485 C1484 1.386 . S
C1485 C1489 1.393 . S
C1486 H1478 0.950 . S
C1486 C1484 1.391 . S
C1486 C1487 1.400 . S
C1487 C1486 1.400 . S
C1487 C1488 1.398 . S
C1487 C1493 1.491 . S
C1488 H1479 0.950 . S
C1488 C1487 1.398 . S
C1488 C1489 1.391 . S
C1489 H1477 0.950 . S
C1489 C1485 1.393 . S
C1489 C1488 1.391 . S
C1490 H1480 0.950 . S
C1490 C1491 1.386 . S
C1490 C1492 1.391 . S
C1491 C1490 1.386 . S
C1491 C1495 1.393 . S
C1492 H1481 0.950 . S
C1492 C1490 1.391 . S
C1492 C1493 1.400 . S
C1493 C1487 1.491 . S
C1493 C1492 1.400 . S
C1493 C1494 1.398 . S
C1494 H1482 0.950 . S
C1494 C1493 1.398 . S
C1494 C1495 1.391 . S
C1495 H1483 0.950 . S
C1495 C1491 1.393 . S
C1495 C1494 1.391 . S
H1496 C1504 0.950 . S
H1497 C1509 0.950 . S
H1498 C1506 0.950 . S
H1499 C1508 0.950 . S
H1500 C1510 0.950 . S
H1501 C1512 0.950 . S
H1502 C1514 0.950 . S
H1503 C1515 0.950 . S
C1504 H1496 0.950 . S
C1504 C1505 1.386 . S
C1504 C1506 1.391 . S
C1505 C1504 1.386 . S
C1505 C1509 1.393 . S
C1506 H1498 0.950 . S
C1506 C1504 1.391 . S
C1506 C1507 1.400 . S
C1507 C1506 1.400 . S
C1507 C1508 1.398 . S
C1507 C1513 1.491 . S
C1508 H1499 0.950 . S
C1508 C1507 1.398 . S
C1508 C1509 1.391 . S
C1509 H1497 0.950 . S
C1509 C1505 1.393 . S
C1509 C1508 1.391 . S
C1510 H1500 0.950 . S
C1510 C1511 1.386 . S
C1510 C1512 1.391 . S
C1511 C1510 1.386 . S
C1511 C1515 1.393 . S
C1512 H1501 0.950 . S
C1512 C1510 1.391 . S
C1512 C1513 1.400 . S
C1513 C1507 1.491 . S
C1513 C1512 1.400 . S
C1513 C1514 1.398 . S
C1514 H1502 0.950 . S
C1514 C1513 1.398 . S
C1514 C1515 1.391 . S
C1515 H1503 0.950 . S
C1515 C1511 1.393 . S
C1515 C1514 1.391 . S
H1516 C1524 0.950 . S
H1517 C1529 0.950 . S
H1518 C1526 0.950 . S
H1519 C1528 0.950 . S
H1520 C1530 0.950 . S
H1521 C1532 0.950 . S
H1522 C1534 0.950 . S
H1523 C1535 0.950 . S
C1524 H1516 0.950 . S
C1524 C1525 1.386 . S
C1524 C1526 1.391 . S
C1525 C1524 1.386 . S
C1525 C1529 1.393 . S
C1526 H1518 0.950 . S
C1526 C1524 1.391 . S
C1526 C1527 1.400 . S
C1527 C1526 1.400 . S
C1527 C1528 1.398 . S
C1527 C1533 1.491 . S
C1528 H1519 0.950 . S
C1528 C1527 1.398 . S
C1528 C1529 1.391 . S
C1529 H1517 0.950 . S
C1529 C1525 1.393 . S
C1529 C1528 1.391 . S
C1530 H1520 0.950 . S
C1530 C1531 1.386 . S
C1530 C1532 1.391 . S
C1531 C1530 1.386 . S
C1531 C1535 1.393 . S
C1532 H1521 0.950 . S
C1532 C1530 1.391 . S
C1532 C1533 1.400 . S
C1533 C1527 1.491 . S
C1533 C1532 1.400 . S
C1533 C1534 1.398 . S
C1534 H1522 0.950 . S
C1534 C1533 1.398 . S
C1534 C1535 1.391 . S
C1535 H1523 0.950 . S
C1535 C1531 1.393 . S
C1535 C1534 1.391 . S
H1536 C1544 0.950 . S
H1537 C1549 0.950 . S
H1538 C1546 0.950 . S
H1539 C1548 0.950 . S
H1540 C1550 0.950 . S
H1541 C1552 0.950 . S
H1542 C1554 0.950 . S
H1543 C1555 0.950 . S
C1544 H1536 0.950 . S
C1544 C1545 1.386 . S
C1544 C1546 1.391 . S
C1545 C1544 1.386 . S
C1545 C1549 1.393 . S
C1546 H1538 0.950 . S
C1546 C1544 1.391 . S
C1546 C1547 1.400 . S
C1547 C1546 1.400 . S
C1547 C1548 1.398 . S
C1547 C1553 1.491 . S
C1548 H1539 0.950 . S
C1548 C1547 1.398 . S
C1548 C1549 1.391 . S
C1549 H1537 0.950 . S
C1549 C1545 1.393 . S
C1549 C1548 1.391 . S
C1550 H1540 0.950 . S
C1550 C1551 1.386 . S
C1550 C1552 1.391 . S
C1551 C1550 1.386 . S
C1551 C1555 1.393 . S
C1552 H1541 0.950 . S
C1552 C1550 1.391 . S
C1552 C1553 1.400 . S
C1553 C1547 1.491 . S
C1553 C1552 1.400 . S
C1553 C1554 1.398 . S
C1554 H1542 0.950 . S
C1554 C1553 1.398 . S
C1554 C1555 1.391 . S
C1555 H1543 0.950 . S
C1555 C1551 1.393 . S
C1555 C1554 1.391 . S
H1556 C1564 0.950 . S
H1557 C1569 0.950 . S
H1558 C1566 0.950 . S
H1559 C1568 0.950 . S
H1560 C1570 0.950 . S
H1561 C1572 0.950 . S
H1562 C1574 0.950 . S
H1563 C1575 0.950 . S
C1564 H1556 0.950 . S
C1564 C1565 1.386 . S
C1564 C1566 1.391 . S
C1565 C1564 1.386 . S
C1565 C1569 1.393 . S
C1566 H1558 0.950 . S
C1566 C1564 1.391 . S
C1566 C1567 1.400 . S
C1567 C1566 1.400 . S
C1567 C1568 1.398 . S
C1567 C1573 1.491 . S
C1568 H1559 0.950 . S
C1568 C1567 1.398 . S
C1568 C1569 1.391 . S
C1569 H1557 0.950 . S
C1569 C1565 1.393 . S
C1569 C1568 1.391 . S
C1570 H1560 0.950 . S
C1570 C1571 1.386 . S
C1570 C1572 1.391 . S
C1571 C1570 1.386 . S
C1571 C1575 1.393 . S
C1572 H1561 0.950 . S
C1572 C1570 1.391 . S
C1572 C1573 1.400 . S
C1573 C1567 1.491 . S
C1573 C1572 1.400 . S
C1573 C1574 1.398 . S
C1574 H1562 0.950 . S
C1574 C1573 1.398 . S
C1574 C1575 1.391 . S
C1575 H1563 0.950 . S
C1575 C1571 1.393 . S
C1575 C1574 1.391 . S
H1576 C1584 0.950 . S
H1577 C1589 0.950 . S
H1578 C1586 0.950 . S
H1579 C1588 0.950 . S
H1580 C1590 0.950 . S
H1581 C1592 0.950 . S
H1582 C1594 0.950 . S
H1583 C1595 0.950 . S
C1584 H1576 0.950 . S
C1584 C1585 1.386 . S
C1584 C1586 1.391 . S
C1585 C1584 1.386 . S
C1585 C1589 1.393 . S
C1586 H1578 0.950 . S
C1586 C1584 1.391 . S
C1586 C1587 1.400 . S
C1587 C1586 1.400 . S
C1587 C1588 1.398 . S
C1587 C1593 1.491 . S
C1588 H1579 0.950 . S
C1588 C1587 1.398 . S
C1588 C1589 1.391 . S
C1589 H1577 0.950 . S
C1589 C1585 1.393 . S
C1589 C1588 1.391 . S
C1590 H1580 0.950 . S
C1590 C1591 1.386 . S
C1590 C1592 1.391 . S
C1591 C1590 1.386 . S
C1591 C1595 1.393 . S
C1592 H1581 0.950 . S
C1592 C1590 1.391 . S
C1592 C1593 1.400 . S
C1593 C1587 1.491 . S
C1593 C1592 1.400 . S
C1593 C1594 1.398 . S
C1594 H1582 0.950 . S
C1594 C1593 1.398 . S
C1594 C1595 1.391 . S
C1595 H1583 0.950 . S
C1595 C1591 1.393 . S
C1595 C1594 1.391 . S
H1596 C1604 0.950 . S
H1597 C1609 0.950 . S
H1598 C1606 0.950 . S
H1599 C1608 0.950 . S
H1600 C1610 0.950 . S
H1601 C1612 0.950 . S
H1602 C1614 0.950 . S
H1603 C1615 0.950 . S
C1604 H1596 0.950 . S
C1604 C1605 1.386 . S
C1604 C1606 1.391 . S
C1605 C1604 1.386 . S
C1605 C1609 1.393 . S
C1606 H1598 0.950 . S
C1606 C1604 1.391 . S
C1606 C1607 1.400 . S
C1607 C1606 1.400 . S
C1607 C1608 1.398 . S
C1607 C1613 1.491 . S
C1608 H1599 0.950 . S
C1608 C1607 1.398 . S
C1608 C1609 1.391 . S
C1609 H1597 0.950 . S
C1609 C1605 1.393 . S
C1609 C1608 1.391 . S
C1610 H1600 0.950 . S
C1610 C1611 1.386 . S
C1610 C1612 1.391 . S
C1611 C1610 1.386 . S
C1611 C1615 1.393 . S
C1612 H1601 0.950 . S
C1612 C1610 1.391 . S
C1612 C1613 1.400 . S
C1613 C1607 1.491 . S
C1613 C1612 1.400 . S
C1613 C1614 1.398 . S
C1614 H1602 0.950 . S
C1614 C1613 1.398 . S
C1614 C1615 1.391 . S
C1615 H1603 0.950 . S
C1615 C1611 1.393 . S
C1615 C1614 1.391 . S
H1616 C1624 0.950 . S
H1617 C1629 0.950 . S
H1618 C1626 0.950 . S
H1619 C1628 0.950 . S
H1620 C1630 0.950 . S
H1621 C1632 0.950 . S
H1622 C1634 0.950 . S
H1623 C1635 0.950 . S
C1624 H1616 0.950 . S
C1624 C1625 1.386 . S
C1624 C1626 1.391 . S
C1625 C1624 1.386 . S
C1625 C1629 1.393 . S
C1626 H1618 0.950 . S
C1626 C1624 1.391 . S
C1626 C1627 1.400 . S
C1627 C1626 1.400 . S
C1627 C1628 1.398 . S
C1627 C1633 1.491 . S
C1628 H1619 0.950 . S
C1628 C1627 1.398 . S
C1628 C1629 1.391 . S
C1629 H1617 0.950 . S
C1629 C1625 1.393 . S
C1629 C1628 1.391 . S
C1630 H1620 0.950 . S
C1630 C1631 1.386 . S
C1630 C1632 1.391 . S
C1631 C1630 1.386 . S
C1631 C1635 1.393 . S
C1632 H1621 0.950 . S
C1632 C1630 1.391 . S
C1632 C1633 1.400 . S
C1633 C1627 1.491 . S
C1633 C1632 1.400 . S
C1633 C1634 1.398 . S
C1634 H1622 0.950 . S
C1634 C1633 1.398 . S
C1634 C1635 1.391 . S
C1635 H1623 0.950 . S
C1635 C1631 1.393 . S
C1635 C1634 1.391 . S
H1636 C1644 0.950 . S
H1637 C1649 0.950 . S
H1638 C1646 0.950 . S
H1639 C1648 0.950 . S
H1640 C1650 0.950 . S
H1641 C1652 0.950 . S
H1642 C1654 0.950 . S
H1643 C1655 0.950 . S
C1644 H1636 0.950 . S
C1644 C1645 1.386 . S
C1644 C1646 1.391 . S
C1645 C1644 1.386 . S
C1645 C1649 1.393 . S
C1646 H1638 0.950 . S
C1646 C1644 1.391 . S
C1646 C1647 1.400 . S
C1647 C1646 1.400 . S
C1647 C1648 1.398 . S
C1647 C1653 1.491 . S
C1648 H1639 0.950 . S
C1648 C1647 1.398 . S
C1648 C1649 1.391 . S
C1649 H1637 0.950 . S
C1649 C1645 1.393 . S
C1649 C1648 1.391 . S
C1650 H1640 0.950 . S
C1650 C1651 1.386 . S
C1650 C1652 1.391 . S
C1651 C1650 1.386 . S
C1651 C1655 1.393 . S
C1652 H1641 0.950 . S
C1652 C1650 1.391 . S
C1652 C1653 1.400 . S
C1653 C1647 1.491 . S
C1653 C1652 1.400 . S
C1653 C1654 1.398 . S
C1654 H1642 0.950 . S
C1654 C1653 1.398 . S
C1654 C1655 1.391 . S
C1655 H1643 0.950 . S
C1655 C1651 1.393 . S
C1655 C1654 1.391 . S
H1656 C1664 0.950 . S
H1657 C1669 0.950 . S
H1658 C1666 0.950 . S
H1659 C1668 0.950 . S
H1660 C1670 0.950 . S
H1661 C1672 0.950 . S
H1662 C1674 0.950 . S
H1663 C1675 0.950 . S
C1664 H1656 0.950 . S
C1664 C1665 1.386 . S
C1664 C1666 1.391 . S
C1665 C1664 1.386 . S
C1665 C1669 1.393 . S
C1666 H1658 0.950 . S
C1666 C1664 1.391 . S
C1666 C1667 1.400 . S
C1667 C1666 1.400 . S
C1667 C1668 1.398 . S
C1667 C1673 1.491 . S
C1668 H1659 0.950 . S
C1668 C1667 1.398 . S
C1668 C1669 1.391 . S
C1669 H1657 0.950 . S
C1669 C1665 1.393 . S
C1669 C1668 1.391 . S
C1670 H1660 0.950 . S
C1670 C1671 1.386 . S
C1670 C1672 1.391 . S
C1671 C1670 1.386 . S
C1671 C1675 1.393 . S
C1672 H1661 0.950 . S
C1672 C1670 1.391 . S
C1672 C1673 1.400 . S
C1673 C1667 1.491 . S
C1673 C1672 1.400 . S
C1673 C1674 1.398 . S
C1674 H1662 0.950 . S
C1674 C1673 1.398 . S
C1674 C1675 1.391 . S
C1675 H1663 0.950 . S
C1675 C1671 1.393 . S
C1675 C1674 1.391 . S
H1676 C1684 0.950 . S
H1677 C1689 0.950 . S
H1678 C1686 0.950 . S
H1679 C1688 0.950 . S
H1680 C1690 0.950 . S
H1681 C1692 0.950 . S
H1682 C1694 0.950 . S
H1683 C1695 0.950 . S
C1684 H1676 0.950 . S
C1684 C1685 1.386 . S
C1684 C1686 1.391 . S
C1685 C1684 1.386 . S
C1685 C1689 1.393 . S
C1686 H1678 0.950 . S
C1686 C1684 1.391 . S
C1686 C1687 1.400 . S
C1687 C1686 1.400 . S
C1687 C1688 1.398 . S
C1687 C1693 1.491 . S
C1688 H1679 0.950 . S
C1688 C1687 1.398 . S
C1688 C1689 1.391 . S
C1689 H1677 0.950 . S
C1689 C1685 1.393 . S
C1689 C1688 1.391 . S
C1690 H1680 0.950 . S
C1690 C1691 1.386 . S
C1690 C1692 1.391 . S
C1691 C1690 1.386 . S
C1691 C1695 1.393 . S
C1692 H1681 0.950 . S
C1692 C1690 1.391 . S
C1692 C1693 1.400 . S
C1693 C1687 1.491 . S
C1693 C1692 1.400 . S
C1693 C1694 1.398 . S
C1694 H1682 0.950 . S
C1694 C1693 1.398 . S
C1694 C1695 1.391 . S
C1695 H1683 0.950 . S
C1695 C1691 1.393 . S
C1695 C1694 1.391 . S
C425 C199 1.553 . S
C431 C4 1.549 . S
C445 C23 1.552 . S
C451 C166 1.549 . S
C465 C30 1.549 . S
C471 C173 1.553 . S
C485 C192 1.548 . S
C491 C43 1.553 . S
C505 C62 1.550 . S
C511 C127 1.551 . S
C525 C69 1.549 . S
C531 C140 1.553 . S
C545 C147 1.550 . S
C551 C88 1.552 . S
C565 C114 1.551 . S
C571 C95 1.550 . S
C585 C212 1.553 . S
C591 C407 1.548 . S
C605 C225 1.550 . S
C611 C374 1.552 . S
C625 C238 1.550 . S
C631 C381 1.551 . S
C645 C394 1.553 . S
C651 C251 1.549 . S
C665 C264 1.550 . S
C671 C329 1.552 . S
C685 C283 1.548 . S
C691 C342 1.553 . S
C705 C355 1.552 . S
C711 C290 1.549 . S
C725 C303 1.549 . S
C731 C316 1.552 . S
C745 C159 1.470 . S
C751 C5 1.472 . S
C765 C16 1.472 . S
C771 C174 1.470 . S
C785 C185 1.472 . S
C791 C31 1.469 . S
C805 C44 1.470 . S
C811 C200 1.471 . S
C825 C55 1.470 . S
C831 C107 1.471 . S
C845 C120 1.472 . S
C851 C70 1.469 . S
C865 C133 1.470 . S
C871 C81 1.471 . S
C885 C148 1.472 . S
C891 C96 1.469 . S
C905 C213 1.472 . S
C911 C367 1.469 . S
C925 C382 1.472 . S
C931 C226 1.469 . S
C945 C239 1.469 . S
C951 C395 1.472 . S
C965 C252 1.469 . S
C971 C408 1.472 . S
C985 C317 1.469 . S
C991 C265 1.472 . S
C1005 C276 1.471 . S
C1011 C330 1.470 . S
C1025 C291 1.472 . S
C1031 C343 1.469 . S
C1045 C304 1.472 . S
C1051 C356 1.469 . S
C1065 C3 1.437 . S
C1071 C135 1.436 . S
C1085 C146 1.437 . S
C1091 C18 1.436 . S
C1105 C29 1.439 . S
C1111 C109 1.434 . S
C1125 C122 1.433 . S
C1131 C42 1.440 . S
C1145 C187 1.432 . S
C1151 C57 1.441 . S
C1165 C198 1.438 . S
C1171 C68 1.435 . S
C1185 C161 1.432 . S
C1191 C83 1.441 . S
C1205 C94 1.432 . S
C1211 C172 1.441 . S
C1225 C341 1.442 . S
C1231 C211 1.431 . S
C1245 C224 1.433 . S
C1251 C354 1.440 . S
C1265 C315 1.431 . S
C1271 C237 1.442 . S
C1285 C328 1.431 . S
C1291 C250 1.442 . S
C1305 C263 1.434 . S
C1311 C393 1.439 . S
C1325 C278 1.441 . S
C1331 C406 1.432 . S
C1345 C369 1.431 . S
C1351 C289 1.442 . S
C1365 C380 1.440 . S
C1371 C302 1.433 . S
C1385 C309 1.341 . S
C1391 C10 1.336 . S
C1405 C270 1.339 . S
C1411 C17 1.332 . S
C1425 C277 1.333 . S
C1431 C36 1.341 . S
C1445 C296 1.340 . S
C1451 C49 1.337 . S
C1465 C231 1.339 . S
C1471 C56 1.332 . S
C1485 C75 1.340 . S
C1491 C244 1.332 . S
C1505 C82 1.341 . S
C1511 C257 1.334 . S
C1525 C101 1.332 . S
C1531 C218 1.336 . S
C1545 C108 1.332 . S
C1551 C413 1.339 . S
C1565 C368 1.334 . S
C1571 C121 1.341 . S
C1585 C134 1.340 . S
C1591 C387 1.332 . S
C1605 C153 1.339 . S
C1611 C400 1.332 . S
C1625 C335 1.340 . S
C1631 C160 1.333 . S
C1645 C348 1.332 . S
C1651 C179 1.339 . S
C1665 C186 1.339 . S
C1671 C361 1.338 . S
C1685 C205 1.337 . S
C1691 C322 1.340 . S
