# Generated by pormake.
# Topology yfg, (5)-cn, num edge types: 1
# Building blocks:
#     Node 0, Type 0, BuildingBlock: BEQFEK_clean_sbu_0, # of connection points: 5
#     Node 1, Type 0, BuildingBlock: BEQFEK_clean_sbu_0, # of connection points: 5
#     Node 2, Type 0, BuildingBlock: BEQFEK_clean_sbu_0, # of connection points: 5
#     Node 3, Type 0, BuildingBlock: BEQFEK_clean_sbu_0, # of connection points: 5
#     Node 4, Type 0, BuildingBlock: BEQFEK_clean_sbu_0, # of connection points: 5
#     Node 5, Type 0, BuildingBlock: BEQFEK_clean_sbu_0, # of connection points: 5
#     Node 6, Type 0, BuildingBlock: BEQFEK_clean_sbu_0, # of connection points: 5
#     Node 7, Type 0, BuildingBlock: BEQFEK_clean_sbu_0, # of connection points: 5
#     Edge 8, Type (0, 0), BuildingBlock: TEMPAE_clean_linker_10, # of connection points: 2
#     Edge 9, Type (0, 0), BuildingBlock: TEMPAE_clean_linker_10, # of connection points: 2
#     Edge 10, Type (0, 0), BuildingBlock: TEMPAE_clean_linker_10, # of connection points: 2
#     Edge 11, Type (0, 0), BuildingBlock: TEMPAE_clean_linker_10, # of connection points: 2
#     Edge 12, Type (0, 0), BuildingBlock: TEMPAE_clean_linker_10, # of connection points: 2
#     Edge 13, Type (0, 0), BuildingBlock: TEMPAE_clean_linker_10, # of connection points: 2
#     Edge 14, Type (0, 0), BuildingBlock: TEMPAE_clean_linker_10, # of connection points: 2
#     Edge 15, Type (0, 0), BuildingBlock: TEMPAE_clean_linker_10, # of connection points: 2
#     Edge 16, Type (0, 0), BuildingBlock: TEMPAE_clean_linker_10, # of connection points: 2
#     Edge 17, Type (0, 0), BuildingBlock: TEMPAE_clean_linker_10, # of connection points: 2
#     Edge 18, Type (0, 0), BuildingBlock: TEMPAE_clean_linker_10, # of connection points: 2
#     Edge 19, Type (0, 0), BuildingBlock: TEMPAE_clean_linker_10, # of connection points: 2
#     Edge 20, Type (0, 0), BuildingBlock: TEMPAE_clean_linker_10, # of connection points: 2
#     Edge 21, Type (0, 0), BuildingBlock: TEMPAE_clean_linker_10, # of connection points: 2
#     Edge 22, Type (0, 0), BuildingBlock: TEMPAE_clean_linker_10, # of connection points: 2
#     Edge 23, Type (0, 0), BuildingBlock: TEMPAE_clean_linker_10, # of connection points: 2
#     Edge 24, Type (0, 0), BuildingBlock: TEMPAE_clean_linker_10, # of connection points: 2
#     Edge 25, Type (0, 0), BuildingBlock: TEMPAE_clean_linker_10, # of connection points: 2
#     Edge 26, Type (0, 0), BuildingBlock: TEMPAE_clean_linker_10, # of connection points: 2
#     Edge 27, Type (0, 0), BuildingBlock: TEMPAE_clean_linker_10, # of connection points: 2
# Relax obj value: 0.515
# Max RMSD: 0.218
# Mean RMSD: 0.218
data_MOF--net-yfg--node1-BEQFEK_clean_sbu_0--edge1-TEMPAE_clean_linker_10
_symmetry_space_group_name_H-M    P1
_symmetry_Int_Tables_number       1
_symmetry_cell_setting            triclinic
loop_
_symmetry_equiv_pos_as_xyz
'x, y, z'
_cell_length_a     33.589094
_cell_length_b     33.570496
_cell_length_c     45.019782
_cell_angle_alpha  90.028981
_cell_angle_beta   89.994714
_cell_angle_gamma 90.016503
loop_
_atom_site_label
_atom_site_type_symbol
_atom_site_fract_x
_atom_site_fract_y
_atom_site_fract_z
_atom_type_partial_charge
Co0 Co 0.23206 0.46813 0.09291 0.0
Co1 Co 0.26538 0.47345 0.02808 0.0
C2 C 0.28536 0.53521 0.07318 0.0
O3 O 0.26428 0.5172 0.09234 0.0
O4 O 0.28894 0.52196 0.04682 0.0
C5 C 0.19305 0.50213 0.14145 0.0
O6 O 0.19847 0.53434 0.12542 0.0
C7 C 0.27769 0.50744 0.96936 0.0
C8 C 0.29842 0.45587 0.94308 0.0
C9 C 0.29089 0.49639 0.94139 0.0
N10 N 0.27694 0.47494 0.98669 0.0
N11 N 0.28886 0.44406 0.97078 0.0
C12 C 0.2702 0.54876 0.98059 0.0
H13 H 0.25062 0.54793 0.00043 0.0
H14 H 0.25625 0.56762 0.96331 0.0
H15 H 0.29903 0.56254 0.9869 0.0
C16 C 0.15588 0.46519 0.0613 0.0
N17 N 0.19582 0.46724 0.06147 0.0
N18 N 0.20905 0.47008 0.03405 0.0
C19 C 0.17753 0.47014 0.01542 0.0
C20 C 0.14288 0.46735 0.0322 0.0
C21 C 0.13076 0.45966 0.08847 0.0
H22 H 0.14524 0.43826 0.10378 0.0
H23 H 0.12765 0.48866 0.10005 0.0
H24 H 0.10065 0.44843 0.08274 0.0
O25 O 0.26851 0.42229 0.09115 0.0
O26 O 0.29405 0.42713 0.04571 0.0
H27 H 0.2003 0.45161 0.97323 0.0
H28 H 0.15101 0.4733 0.97151 0.0
C29 C 0.18052 0.47499 0.98246 0.0
H30 H 0.19389 0.50439 0.97741 0.0
H31 H 0.2918 0.41521 0.97913 0.0
O32 O 0.20422 0.46857 0.13142 0.0
C33 C 0.29227 0.41019 0.07103 0.0
Co34 Co 0.53403 0.23 0.34278 0.0
Co35 Co 0.53035 0.26747 0.27925 0.0
C36 C 0.46815 0.28459 0.32549 0.0
O37 O 0.48425 0.26057 0.34363 0.0
O38 O 0.48309 0.29084 0.29991 0.0
C39 C 0.50446 0.18227 0.3891 0.0
O40 O 0.47418 0.17854 0.37083 0.0
C41 C 0.49496 0.29165 0.22282 0.0
C42 C 0.54586 0.28965 0.19175 0.0
C43 C 0.50545 0.29727 0.19344 0.0
N44 N 0.52763 0.28111 0.23809 0.0
N45 N 0.55805 0.28013 0.21942 0.0
C46 C 0.454 0.2938 0.23582 0.0
H47 H 0.44903 0.26797 0.25075 0.0
H48 H 0.43079 0.29399 0.21828 0.0
H49 H 0.45131 0.32145 0.24918 0.0
C50 C 0.53859 0.15566 0.30838 0.0
N51 N 0.53583 0.19553 0.31017 0.0
N52 N 0.5326 0.21062 0.2833 0.0
C53 C 0.53229 0.18036 0.2635 0.0
C54 C 0.53594 0.14468 0.27886 0.0
C55 C 0.54619 0.12861 0.33419 0.0
H56 H 0.56471 0.1439 0.35108 0.0
H57 H 0.51738 0.11999 0.34436 0.0
H58 H 0.56161 0.10102 0.32694 0.0
O59 O 0.57854 0.26767 0.34211 0.0
O60 O 0.57808 0.29406 0.2969 0.0
H61 H 0.55413 0.19799 0.22098 0.0
H62 H 0.52012 0.1564 0.21976 0.0
C63 C 0.52662 0.18527 0.23075 0.0
H64 H 0.50172 0.20615 0.22647 0.0
H65 H 0.58703 0.27244 0.22549 0.0
O66 O 0.53499 0.20162 0.38081 0.0
C67 C 0.59291 0.2915 0.32292 0.0
Co68 Co 0.76694 0.52209 0.59269 0.0
Co69 Co 0.7317 0.52453 0.52833 0.0
C70 C 0.7104 0.45952 0.571 0.0
O71 O 0.73343 0.47434 0.59041 0.0
O72 O 0.70599 0.47577 0.54564 0.0
C73 C 0.80455 0.48422 0.64073 0.0
O74 O 0.7956 0.4523 0.62525 0.0
C75 C 0.72012 0.49516 0.46816 0.0
C76 C 0.69653 0.54764 0.44442 0.0
C77 C 0.70647 0.5079 0.44078 0.0
N78 N 0.71912 0.52605 0.48708 0.0
N79 N 0.70536 0.55751 0.47271 0.0
C80 C 0.73021 0.45341 0.47707 0.0
H81 H 0.70229 0.43601 0.47944 0.0
H82 H 0.74648 0.45315 0.49851 0.0
H83 H 0.74863 0.43883 0.45977 0.0
C84 C 0.84224 0.52569 0.56031 0.0
N85 N 0.8023 0.52453 0.56083 0.0
N86 N 0.78841 0.52497 0.53351 0.0
C87 C 0.8196 0.5263 0.51455 0.0
C88 C 0.85465 0.52642 0.53103 0.0
C89 C 0.86785 0.52825 0.58748 0.0
H90 H 0.85455 0.54941 0.60358 0.0
H91 H 0.86947 0.49848 0.59809 0.0
H92 H 0.89845 0.53836 0.58207 0.0
O93 O 0.73188 0.56892 0.59349 0.0
O94 O 0.7063 0.57142 0.54802 0.0
H95 H 0.79479 0.54919 0.47419 0.0
H96 H 0.84493 0.53018 0.47025 0.0
C97 C 0.81589 0.52572 0.48142 0.0
H98 H 0.80393 0.49647 0.47438 0.0
H99 H 0.70089 0.58538 0.48243 0.0
O100 O 0.79577 0.51845 0.6307 0.0
C101 C 0.70899 0.58505 0.57441 0.0
Co102 Co 0.48047 0.77165 0.83831 0.0
Co103 Co 0.47268 0.7336 0.77536 0.0
C104 C 0.54284 0.7178 0.81655 0.0
O105 O 0.53048 0.74263 0.83569 0.0
O106 O 0.52325 0.71095 0.79281 0.0
C107 C 0.51258 0.81485 0.8872 0.0
O108 O 0.54559 0.81392 0.87154 0.0
C109 C 0.50142 0.72456 0.71486 0.0
C110 C 0.45467 0.68793 0.69385 0.0
C111 C 0.4916 0.7051 0.68869 0.0
N112 N 0.47175 0.71926 0.73445 0.0
N113 N 0.44351 0.69794 0.72161 0.0
C114 C 0.54017 0.74414 0.7224 0.0
H115 H 0.54077 0.75351 0.74602 0.0
H116 H 0.54425 0.7709 0.7083 0.0
H117 H 0.56517 0.72341 0.7178 0.0
C118 C 0.46847 0.84542 0.80447 0.0
N119 N 0.47336 0.80577 0.80588 0.0
N120 N 0.46793 0.79012 0.77942 0.0
C121 C 0.45792 0.81947 0.76035 0.0
C122 C 0.45784 0.85555 0.77565 0.0
C123 C 0.47603 0.87293 0.83007 0.0
H124 H 0.50491 0.8653 0.84036 0.0
H125 H 0.47753 0.90456 0.82317 0.0
H126 H 0.45231 0.86902 0.84698 0.0
O127 O 0.43658 0.73242 0.84083 0.0
O128 O 0.42825 0.70651 0.7959 0.0
H129 H 0.42667 0.83749 0.72054 0.0
H130 H 0.47197 0.80969 0.71468 0.0
C131 C 0.44516 0.81253 0.72892 0.0
H132 H 0.42787 0.78447 0.72734 0.0
H133 H 0.41751 0.68865 0.73225 0.0
O134 O 0.48086 0.80021 0.87641 0.0
C135 C 0.41854 0.70885 0.82319 0.0
Co136 Co 0.22778 0.54758 0.40659 0.0
Co137 Co 0.26438 0.53644 0.47006 0.0
C138 C 0.28312 0.47936 0.42203 0.0
O139 O 0.26137 0.49945 0.4045 0.0
O140 O 0.2875 0.48956 0.44908 0.0
C141 C 0.18569 0.51344 0.36023 0.0
O142 O 0.19033 0.48226 0.37747 0.0
C143 C 0.28887 0.50182 0.52683 0.0
C144 C 0.28233 0.5524 0.55791 0.0
C145 C 0.29261 0.51254 0.55641 0.0
N146 N 0.27712 0.53392 0.51137 0.0
N147 N 0.27345 0.56414 0.53004 0.0
C148 C 0.29266 0.46091 0.51385 0.0
H149 H 0.26773 0.45533 0.49823 0.0
H150 H 0.29244 0.43759 0.5313 0.0
H151 H 0.32097 0.45895 0.50122 0.0
C152 C 0.15332 0.54623 0.44016 0.0
N153 N 0.19324 0.54526 0.43893 0.0
N154 N 0.20774 0.53836 0.46556 0.0
C155 C 0.17704 0.53353 0.48461 0.0
C156 C 0.14158 0.53829 0.46903 0.0
C157 C 0.12705 0.55623 0.41435 0.0
H158 H 0.14201 0.57809 0.39965 0.0
H159 H 0.12095 0.52877 0.40141 0.0
H160 H 0.09825 0.56883 0.42196 0.0
O161 O 0.2629 0.59403 0.40896 0.0
O162 O 0.29148 0.58441 0.45295 0.0
H163 H 0.19108 0.54762 0.52965 0.0
H164 H 0.1532 0.50986 0.52568 0.0
C165 C 0.18153 0.52144 0.51642 0.0
H166 H 0.20469 0.49809 0.51836 0.0
H167 H 0.26411 0.59259 0.52384 0.0
O168 O 0.19823 0.54724 0.36884 0.0
C169 C 0.28802 0.60401 0.42879 0.0
Co170 Co 0.44042 0.23002 0.65374 0.0
Co171 Co 0.45836 0.26285 0.7175 0.0
C172 C 0.51495 0.27584 0.66711 0.0
O173 O 0.49249 0.25621 0.6498 0.0
O174 O 0.50578 0.28098 0.69429 0.0
C175 C 0.46108 0.18348 0.60482 0.0
O176 O 0.49305 0.17816 0.62117 0.0
C177 C 0.50294 0.2786 0.77211 0.0
C178 C 0.4554 0.28651 0.80551 0.0
C179 C 0.49631 0.28638 0.80189 0.0
N180 N 0.46759 0.27416 0.75857 0.0
N181 N 0.43924 0.27902 0.77865 0.0
C182 C 0.54231 0.27406 0.75695 0.0
H183 H 0.54096 0.24906 0.74084 0.0
H184 H 0.56651 0.26852 0.77322 0.0
H185 H 0.54913 0.30178 0.74453 0.0
C186 C 0.43185 0.1545 0.68665 0.0
N187 N 0.43941 0.19385 0.68552 0.0
N188 N 0.44762 0.20709 0.71234 0.0
C189 C 0.44607 0.17617 0.73148 0.0
C190 C 0.43595 0.14187 0.71583 0.0
C191 C 0.42375 0.12932 0.65979 0.0
H192 H 0.4037 0.14539 0.64437 0.0
H193 H 0.45225 0.12312 0.64832 0.0
H194 H 0.41023 0.10025 0.66528 0.0
O195 O 0.39975 0.27144 0.65903 0.0
O196 O 0.41295 0.2964 0.70375 0.0
H197 H 0.43047 0.2006 0.77364 0.0
H198 H 0.44963 0.15078 0.77578 0.0
C199 C 0.45272 0.17977 0.76424 0.0
H200 H 0.4828 0.1922 0.76843 0.0
H201 H 0.40885 0.27718 0.77402 0.0
O202 O 0.43242 0.20395 0.61512 0.0
C203 C 0.39271 0.29627 0.67977 0.0
Co204 Co 0.77293 0.44832 0.90488 0.0
Co205 Co 0.73381 0.4652 0.9668 0.0
C206 C 0.71941 0.51962 0.91647 0.0
O207 O 0.74083 0.49716 0.90034 0.0
O208 O 0.71378 0.51195 0.94386 0.0
C209 C 0.81821 0.47853 0.85884 0.0
O210 O 0.81451 0.51045 0.87549 0.0
C211 C 0.70857 0.50292 0.02257 0.0
C212 C 0.71189 0.45286 0.05437 0.0
C213 C 0.70351 0.49312 0.05225 0.0
N214 N 0.71933 0.46992 0.00772 0.0
N215 N 0.72102 0.44004 0.02682 0.0
C216 C 0.70695 0.54357 0.00895 0.0
H217 H 0.73222 0.54743 0.99335 0.0
H218 H 0.70818 0.56732 0.02607 0.0
H219 H 0.67888 0.54656 0.99615 0.0
C220 C 0.84588 0.44996 0.94032 0.0
N221 N 0.80607 0.45179 0.93799 0.0
N222 N 0.79053 0.4607 0.96397 0.0
C223 C 0.82046 0.46575 0.98367 0.0
C224 C 0.85643 0.45922 0.9692 0.0
C225 C 0.87327 0.43847 0.91552 0.0
H226 H 0.85875 0.41619 0.90092 0.0
H227 H 0.88049 0.46527 0.90217 0.0
H228 H 0.90148 0.42585 0.92425 0.0
O229 O 0.73637 0.40304 0.90781 0.0
O230 O 0.70549 0.41754 0.95016 0.0
H231 H 0.80292 0.45473 0.02849 0.0
H232 H 0.84341 0.48973 0.02493 0.0
C233 C 0.81493 0.4796 0.01499 0.0
H234 H 0.79323 0.50444 0.01557 0.0
H235 H 0.72929 0.41106 0.02114 0.0
O236 O 0.80404 0.44561 0.8679 0.0
C237 C 0.70955 0.39586 0.92705 0.0
Co238 Co 0.55303 0.76861 0.15483 0.0
Co239 Co 0.53527 0.73621 0.21867 0.0
C240 C 0.47928 0.72126 0.16849 0.0
O241 O 0.50112 0.74133 0.15094 0.0
O242 O 0.48873 0.71643 0.19564 0.0
C243 C 0.53461 0.81599 0.1051 0.0
O244 O 0.50234 0.82351 0.12062 0.0
C245 C 0.49331 0.71577 0.27379 0.0
C246 C 0.54061 0.72203 0.30762 0.0
C247 C 0.50069 0.71311 0.30399 0.0
N248 N 0.52735 0.7258 0.26002 0.0
N249 N 0.55557 0.7293 0.28036 0.0
C250 C 0.45394 0.71186 0.25848 0.0
H251 H 0.44979 0.73716 0.24294 0.0
H252 H 0.4289 0.71141 0.27455 0.0
H253 H 0.45361 0.68387 0.24536 0.0
C254 C 0.55728 0.8449 0.1869 0.0
N255 N 0.55266 0.80512 0.18625 0.0
N256 N 0.54303 0.7923 0.21292 0.0
C257 C 0.53987 0.82405 0.23123 0.0
C258 C 0.54879 0.85828 0.21524 0.0
C259 C 0.57116 0.86969 0.16128 0.0
H260 H 0.59117 0.85213 0.14673 0.0
H261 H 0.54505 0.87977 0.14824 0.0
H262 H 0.58721 0.89654 0.16928 0.0
O263 O 0.59453 0.72849 0.16033 0.0
O264 O 0.58174 0.70356 0.20504 0.0
H265 H 0.5496 0.81127 0.27709 0.0
H266 H 0.51544 0.85174 0.27066 0.0
C267 C 0.52522 0.82209 0.26258 0.0
H268 H 0.49995 0.80095 0.26415 0.0
H269 H 0.58494 0.73727 0.27566 0.0
O270 O 0.5617 0.79431 0.11628 0.0
C271 C 0.60208 0.70401 0.18112 0.0
C272 C 0.148 0.53186 0.31473 0.0
C273 C 0.17602 0.50765 0.32889 0.0
C274 C 0.14261 0.5295 0.28387 0.0
C275 C 0.16743 0.50395 0.26702 0.0
C276 C 0.19491 0.47857 0.28154 0.0
C277 C 0.19821 0.48016 0.31247 0.0
C278 C 0.11167 0.5555 0.26924 0.0
C279 C 0.22297 0.45196 0.26437 0.0
C280 C 0.15574 0.478 0.18569 0.0
C281 C 0.18143 0.50576 0.17267 0.0
C282 C 0.14821 0.47899 0.21633 0.0
C283 C 0.16855 0.5071 0.23422 0.0
C284 C 0.19369 0.53587 0.22089 0.0
C285 C 0.19912 0.53535 0.1901 0.0
C286 C 0.11978 0.44911 0.22965 0.0
C287 C 0.21704 0.56546 0.23926 0.0
H288 H 0.13079 0.55293 0.32772 0.0
H289 H 0.22015 0.4618 0.32366 0.0
H290 H 0.12643 0.58099 0.2581 0.0
H291 H 0.09523 0.53854 0.25199 0.0
H292 H 0.09 0.56749 0.28561 0.0
H293 H 0.24168 0.43324 0.27917 0.0
H294 H 0.20608 0.43211 0.24927 0.0
H295 H 0.24291 0.47051 0.25038 0.0
H296 H 0.14191 0.45534 0.17195 0.0
H297 H 0.21928 0.55654 0.17987 0.0
H298 H 0.1001 0.46367 0.24622 0.0
H299 H 0.1368 0.42559 0.24137 0.0
H300 H 0.10102 0.43463 0.21242 0.0
H301 H 0.19671 0.58323 0.25341 0.0
H302 H 0.23476 0.58622 0.22531 0.0
H303 H 0.23767 0.54929 0.25428 0.0
C304 C 0.47064 0.14338 0.42912 0.0
C305 C 0.50051 0.17008 0.42038 0.0
C306 C 0.46291 0.13645 0.45931 0.0
C307 C 0.48482 0.15768 0.48099 0.0
C308 C 0.51645 0.18296 0.47224 0.0
C309 C 0.52426 0.18841 0.44202 0.0
C310 C 0.42999 0.10811 0.46791 0.0
C311 C 0.54024 0.20658 0.49468 0.0
C312 C 0.43862 0.19231 0.55272 0.0
C313 C 0.4611 0.17097 0.57351 0.0
C314 C 0.44422 0.18636 0.52224 0.0
C315 C 0.47216 0.1576 0.51249 0.0
C316 C 0.49204 0.1333 0.53342 0.0
C317 C 0.48675 0.14073 0.56382 0.0
C318 C 0.42283 0.21331 0.50062 0.0
C319 C 0.52084 0.10131 0.52379 0.0
H320 H 0.45257 0.12876 0.41239 0.0
H321 H 0.54744 0.20904 0.43537 0.0
H322 H 0.43898 0.08956 0.48717 0.0
H323 H 0.40327 0.12534 0.47457 0.0
H324 H 0.42158 0.0882 0.44921 0.0
H325 H 0.56499 0.22349 0.48424 0.0
H326 H 0.52039 0.22802 0.50623 0.0
H327 H 0.55291 0.18652 0.51179 0.0
H328 H 0.41873 0.21569 0.56019 0.0
H329 H 0.50369 0.12378 0.57995 0.0
H330 H 0.40839 0.19557 0.48286 0.0
H331 H 0.44469 0.23343 0.4898 0.0
H332 H 0.39978 0.23186 0.51166 0.0
H333 H 0.50902 0.08464 0.50441 0.0
H334 H 0.52718 0.07994 0.54202 0.0
H335 H 0.54934 0.11524 0.51692 0.0
C336 C 0.79501 0.4554 0.6905 0.0
C337 C 0.81694 0.4802 0.67171 0.0
C338 C 0.80192 0.45547 0.72112 0.0
C339 C 0.83274 0.47964 0.73286 0.0
C340 C 0.8569 0.50254 0.71356 0.0
C341 C 0.84797 0.50339 0.68313 0.0
C342 C 0.77453 0.43172 0.74102 0.0
C343 C 0.89117 0.52714 0.72515 0.0
C344 C 0.8121 0.51382 0.8111 0.0
C345 C 0.82901 0.48278 0.8275 0.0
C346 C 0.8148 0.5143 0.78011 0.0
C347 C 0.83642 0.48385 0.76548 0.0
C348 C 0.85668 0.45451 0.78226 0.0
C349 C 0.85183 0.45369 0.8132 0.0
C350 C 0.79157 0.54531 0.76305 0.0
C351 C 0.88159 0.4228 0.76747 0.0
H352 H 0.77076 0.43783 0.68145 0.0
H353 H 0.86495 0.52236 0.6683 0.0
H354 H 0.79196 0.41076 0.75488 0.0
H355 H 0.75852 0.45213 0.75632 0.0
H356 H 0.75216 0.41438 0.72823 0.0
H357 H 0.9114 0.53677 0.70699 0.0
H358 H 0.87956 0.55413 0.73639 0.0
H359 H 0.90859 0.51002 0.74175 0.0
H360 H 0.79412 0.53606 0.82232 0.0
H361 H 0.86507 0.42987 0.82613 0.0
H362 H 0.76744 0.53057 0.75027 0.0
H363 H 0.81107 0.56072 0.74686 0.0
H364 H 0.77795 0.56801 0.77787 0.0
H365 H 0.86186 0.39996 0.75746 0.0
H366 H 0.90166 0.40774 0.78355 0.0
H367 H 0.89981 0.4358 0.74933 0.0
C368 C 0.54384 0.85225 0.92911 0.0
C369 C 0.51351 0.82734 0.91853 0.0
C370 C 0.548 0.85957 0.95964 0.0
C371 C 0.52209 0.84032 0.97984 0.0
C372 C 0.49014 0.81689 0.96909 0.0
C373 C 0.4859 0.81119 0.93849 0.0
C374 C 0.58138 0.88605 0.97031 0.0
C375 C 0.46227 0.79521 0.98991 0.0
C376 C 0.55937 0.80413 0.05397 0.0
C377 C 0.53669 0.82726 0.07357 0.0
C378 C 0.55648 0.80959 0.02327 0.0
C379 C 0.5312 0.83976 0.01202 0.0
C380 C 0.51092 0.86549 0.03179 0.0
C381 C 0.51335 0.85847 0.06246 0.0
C382 C 0.57803 0.78099 0.00292 0.0
C383 C 0.48499 0.89895 0.02057 0.0
H384 H 0.56488 0.86522 0.91361 0.0
H385 H 0.46241 0.7919 0.93036 0.0
H386 H 0.57109 0.90563 0.98863 0.0
H387 H 0.60597 0.86741 0.97907 0.0
H388 H 0.59341 0.90489 0.95212 0.0
H389 H 0.43766 0.78001 0.97792 0.0
H390 H 0.47917 0.7725 0.00264 0.0
H391 H 0.44915 0.81622 0.00619 0.0
H392 H 0.57743 0.77995 0.06251 0.0
H393 H 0.49623 0.87674 0.07767 0.0
H394 H 0.59582 0.79755 0.98625 0.0
H395 H 0.55598 0.76269 0.99061 0.0
H396 H 0.59822 0.76065 0.01524 0.0
H397 H 0.49958 0.91468 0.00182 0.0
H398 H 0.47817 0.92087 0.03835 0.0
H399 H 0.45646 0.88661 0.01224 0.0
C400 C 0.07507 0.49658 0.0345 0.0
C401 C 0.10115 0.46857 0.02218 0.0
C402 C 0.03461 0.49663 0.02698 0.0
C403 C 0.02011 0.46795 0.00664 0.0
C404 C 0.04653 0.43983 0.99389 0.0
C405 C 0.08689 0.44046 0.00188 0.0
C406 C 0.00737 0.52715 0.04092 0.0
C407 C 0.03207 0.40886 0.97208 0.0
C408 C 0.90992 0.44284 0.00562 0.0
C409 C 0.89725 0.46404 0.98063 0.0
C410 C 0.94986 0.44434 0.01473 0.0
C411 C 0.97738 0.46766 -0.00162 0.0
C412 C 0.96426 0.49008 0.97366 0.0
C413 C 0.92426 0.488 0.9651 0.0
C414 C 0.96284 0.42016 0.04127 0.0
C415 C 0.99264 0.51552 0.95584 0.0
H416 H 0.08637 0.51831 0.05021 0.0
H417 H 0.10716 0.4185 0.99277 0.0
H418 H 0.99299 0.54534 0.02337 0.0
H419 H 0.98327 0.51197 0.0534 0.0
H420 H 0.02345 0.5474 0.05633 0.0
H421 H 0.05651 0.38933 0.96406 0.0
H422 H 0.00892 0.39 0.98263 0.0
H423 H 0.01812 0.42361 0.95264 0.0
H424 H 0.88888 0.42417 0.01744 0.0
H425 H 0.91413 0.50472 0.94594 0.0
H426 H 0.97794 0.43959 0.05773 0.0
H427 H 0.98468 0.39725 0.0342 0.0
H428 H 0.93744 0.40502 0.05233 0.0
H429 H 0.00791 0.53717 0.97058 0.0
H430 H 0.97732 0.53219 0.93786 0.0
H431 H 0.01597 0.49647 0.94571 0.0
C432 C 0.56383 0.0916 0.24619 0.0
C433 C 0.53568 0.10369 0.26722 0.0
C434 C 0.56605 0.05162 0.23724 0.0
C435 C 0.53921 0.02351 0.24951 0.0
C436 C 0.51006 0.03599 0.2702 0.0
C437 C 0.50878 0.076 0.2789 0.0
C438 C 0.59762 0.03926 0.21522 0.0
C439 C 0.4806 0.007 0.28344 0.0
C440 C 0.52215 0.92662 0.20834 0.0
C441 C 0.54561 0.90014 0.22477 0.0
C442 C 0.5198 0.96692 0.21614 0.0
C443 C 0.54166 0.98094 0.24088 0.0
C444 C 0.56529 0.95418 0.25766 0.0
C445 C 0.56682 0.91388 0.24944 0.0
C446 C 0.49387 0.99443 0.19798 0.0
C447 C 0.58914 0.9682 0.28409 0.0
H448 H 0.58481 0.11319 0.23747 0.0
H449 H 0.48692 0.08568 0.2951 0.0
H450 H 0.61778 0.01707 0.22556 0.0
H451 H 0.58365 0.02476 0.19569 0.0
H452 H 0.61571 0.06491 0.2074 0.0
H453 H 0.45909 0.02182 0.29859 0.0
H454 H 0.46373 0.99184 0.26551 0.0
H455 H 0.49665 0.98363 0.29607 0.0
H456 H 0.50543 0.91566 0.18942 0.0
H457 H 0.58513 0.89323 0.26194 0.0
H458 H 0.51208 0.019 0.18866 0.0
H459 H 0.47084 0.00818 0.21238 0.0
H460 H 0.47879 0.97872 0.1794 0.0
H461 H 0.6102 0.99192 0.27716 0.0
H462 H 0.60632 0.94367 0.29457 0.0
H463 H 0.56902 0.98133 0.30101 0.0
C464 C 0.08712 0.55391 0.50495 0.0
C465 C 0.10033 0.53355 0.47969 0.0
C466 C 0.0471 0.55182 0.51375 0.0
C467 C 0.01989 0.52915 0.49663 0.0
C468 C 0.03339 0.50789 0.47145 0.0
C469 C 0.07358 0.51011 0.46344 0.0
C470 C 0.03377 0.57443 0.54099 0.0
C471 C 0.00525 0.48348 0.45263 0.0
C472 C 0.9224 0.49693 0.53136 0.0
C473 C 0.8962 0.52592 0.52054 0.0
C474 C 0.96285 0.49771 0.52387 0.0
C475 C 0.97715 0.52797 0.5048 0.0
C476 C 0.95059 0.55691 0.49333 0.0
C477 C 0.91033 0.55571 0.50157 0.0
C478 C 0.99033 0.46654 0.53669 0.0
C479 C 0.9648 0.58934 0.47267 0.0
H480 H 0.10788 0.57222 0.51736 0.0
H481 H 0.08407 0.49384 0.44416 0.0
H482 H 0.01182 0.59758 0.53458 0.0
H483 H 0.01869 0.55398 0.55674 0.0
H484 H 0.059 0.58909 0.55262 0.0
H485 H 0.02067 0.46849 0.43387 0.0
H486 H 0.99046 0.46047 0.46644 0.0
H487 H 0.98153 0.50292 0.44347 0.0
H488 H 0.91124 0.47392 0.54607 0.0
H489 H 0.89006 0.5785 0.4937 0.0
H490 H 0.01431 0.48112 0.5497 0.0
H491 H 0.00484 0.44959 0.51852 0.0
H492 H 0.97442 0.44522 0.55136 0.0
H493 H 0.98743 0.608 0.48402 0.0
H494 H 0.94011 0.60888 0.4651 0.0
H495 H 0.9793 0.57598 0.45289 0.0
C496 C 0.46658 0.08422 0.74207 0.0
C497 C 0.43417 0.10044 0.72678 0.0
C498 C 0.46692 0.04394 0.75021 0.0
C499 C 0.4348 0.01908 0.74168 0.0
C500 C 0.40171 0.03551 0.72661 0.0
C501 C 0.40131 0.07634 0.72014 0.0
C502 C 0.50197 0.02785 0.76745 0.0
C503 C 0.36754 0.00975 0.71627 0.0
C504 C 0.46331 0.90998 0.73794 0.0
C505 C 0.44742 0.89573 0.76463 0.0
C506 C 0.45729 0.94966 0.72924 0.0
C507 C 0.43628 0.97584 0.74832 0.0
C508 C 0.4189 0.96111 0.77473 0.0
C509 C 0.4237 0.92089 0.78207 0.0
C510 C 0.4747 0.96392 0.70021 0.0
C511 C 0.39738 0.98826 0.79615 0.0
H512 H 0.49205 0.10288 0.74712 0.0
H513 H 0.37578 0.08925 0.709 0.0
H514 H 0.49145 0.0113 0.7873 0.0
H515 H 0.51894 0.00662 0.75345 0.0
H516 H 0.5225 0.05186 0.77482 0.0
H517 H 0.3441 0.02724 0.70476 0.0
H518 H 0.37881 0.98659 0.7008 0.0
H519 H 0.35384 0.99404 0.73536 0.0
H520 H 0.48157 0.89055 0.72436 0.0
H521 H 0.41032 0.90949 0.80226 0.0
H522 H 0.50033 0.98388 0.70465 0.0
H523 H 0.4523 0.98134 0.68758 0.0
H524 H 0.48515 0.93881 0.68614 0.0
H525 H 0.41854 0.01074 0.80499 0.0
H526 H 0.38427 0.97172 0.81515 0.0
H527 H 0.3733 0.00472 0.78466 0.0
C528 C 0.42481 0.71458 0.13102 0.0
C529 C 0.44483 0.69964 0.15599 0.0
C530 C 0.3954 0.69198 0.1166 0.0
C531 C 0.38686 0.65303 0.12681 0.0
C532 C 0.40633 0.63822 0.15246 0.0
C533 C 0.43463 0.66199 0.16702 0.0
C534 C 0.37425 0.70936 0.09001 0.0
C535 C 0.39872 0.59651 0.1637 0.0
C536 C 0.2944 0.59466 0.10564 0.0
C537 C 0.30905 0.56974 0.08315 0.0
C538 C 0.31873 0.62367 0.11884 0.0
C539 C 0.35904 0.62686 0.11001 0.0
C540 C 0.37356 0.60275 0.08651 0.0
C541 C 0.34814 0.57485 0.07303 0.0
C542 C 0.30173 0.6497 0.14308 0.0
C543 C 0.41659 0.60459 0.07689 0.0
H544 H 0.43256 0.7438 0.12253 0.0
H545 H 0.45036 0.6502 0.18612 0.0
H546 H 0.38316 0.69306 0.06964 0.0
H547 H 0.34156 0.70589 0.09247 0.0
H548 H 0.3812 0.74145 0.08688 0.0
H549 H 0.41598 0.58969 0.18412 0.0
H550 H 0.36662 0.59239 0.16856 0.0
H551 H 0.40689 0.57458 0.14628 0.0
H552 H 0.26407 0.59083 0.11339 0.0
H553 H 0.35961 0.5553 0.05587 0.0
H554 H 0.30973 0.68135 0.13919 0.0
H555 H 0.31458 0.64095 0.16481 0.0
H556 H 0.2688 0.6472 0.14455 0.0
H557 H 0.42499 0.63559 0.07117 0.0
H558 H 0.42271 0.58519 0.05742 0.0
H559 H 0.43601 0.59506 0.09552 0.0
C560 C 0.40936 0.29437 0.35856 0.0
C561 C 0.4344 0.30894 0.33612 0.0
C562 C 0.38119 0.31914 0.3723 0.0
C563 C 0.37886 0.35972 0.36397 0.0
C564 C 0.40313 0.37422 0.3406 0.0
C565 C 0.43024 0.34846 0.32665 0.0
C566 C 0.35494 0.30223 0.39643 0.0
C567 C 0.40204 0.41748 0.33142 0.0
C568 C 0.29103 0.42527 0.38453 0.0
C569 C 0.30557 0.44534 0.40964 0.0
C570 C 0.31389 0.39611 0.37014 0.0
C571 C 0.35263 0.38756 0.38068 0.0
C572 C 0.36705 0.40697 0.40651 0.0
C573 C 0.34308 0.43529 0.42094 0.0
C574 C 0.29697 0.37528 0.34321 0.0
C575 C 0.40851 0.39919 0.41812 0.0
H576 H 0.41242 0.26373 0.36585 0.0
H577 H 0.44984 0.35991 0.30952 0.0
H578 H 0.36343 0.31523 0.41818 0.0
H579 H 0.32336 0.31021 0.39231 0.0
H580 H 0.35738 0.26929 0.398 0.0
H581 H 0.42181 0.4237 0.31219 0.0
H582 H 0.37126 0.42638 0.32551 0.0
H583 H 0.41153 0.43646 0.35034 0.0
H584 H 0.26189 0.43279 0.37584 0.0
H585 H 0.35452 0.45099 0.44019 0.0
H586 H 0.29964 0.34251 0.34577 0.0
H587 H 0.31416 0.38376 0.32315 0.0
H588 H 0.26519 0.38289 0.33942 0.0
H589 H 0.41254 0.36699 0.42269 0.0
H590 H 0.41492 0.41612 0.43878 0.0
H591 H 0.43075 0.40769 0.40102 0.0
C592 C 0.56355 0.33226 0.6666 0.0
C593 C 0.54971 0.29661 0.65412 0.0
C594 C 0.59176 0.35581 0.65169 0.0
C595 C 0.60715 0.34289 0.62399 0.0
C596 C 0.59498 0.30579 0.61214 0.0
C597 C 0.56608 0.28331 0.62718 0.0
C598 C 0.60363 0.39543 0.66491 0.0
C599 C 0.61153 0.29043 0.58313 0.0
C600 C 0.64506 0.4243 0.57255 0.0
C601 C 0.68552 0.42534 0.57995 0.0
C602 C 0.61928 0.39682 0.58615 0.0
C603 C 0.63469 0.3691 0.60695 0.0
C604 C 0.67606 0.3683 0.61284 0.0
C605 C 0.70088 0.39685 0.59962 0.0
C606 C 0.57524 0.39912 0.57966 0.0
C607 C 0.69387 0.33846 0.63411 0.0
H608 H 0.55079 0.34284 0.68727 0.0
H609 H 0.55564 0.25563 0.6175 0.0
H610 H 0.63642 0.39705 0.66747 0.0
H611 H 0.59469 0.41985 0.64969 0.0
H612 H 0.58966 0.40071 0.68693 0.0
H613 H 0.60182 0.25943 0.57838 0.0
H614 H 0.60154 0.30982 0.56463 0.0
H615 H 0.64455 0.29134 0.58349 0.0
H616 H 0.63309 0.44667 0.55765 0.0
H617 H 0.73224 0.39761 0.6053 0.0
H618 H 0.55902 0.4079 0.60013 0.0
H619 H 0.56376 0.36953 0.57282 0.0
H620 H 0.56829 0.42102 0.56191 0.0
H621 H 0.68435 0.34552 0.6571 0.0
H622 H 0.72694 0.33853 0.63338 0.0
H623 H 0.68309 0.30799 0.62891 0.0
C624 C 0.71387 0.56914 0.87533 0.0
C625 C 0.69893 0.55351 0.90204 0.0
C626 C 0.69279 0.59819 0.85939 0.0
C627 C 0.65544 0.61133 0.87008 0.0
C628 C 0.64065 0.5964 0.89741 0.0
C629 C 0.66282 0.56797 0.91325 0.0
C630 C 0.71008 0.61405 0.83077 0.0
C631 C 0.60069 0.60934 0.90938 0.0
C632 C 0.60562 0.70686 0.84486 0.0
C633 C 0.57699 0.69241 0.82489 0.0
C634 C 0.63303 0.6811 0.85841 0.0
C635 C 0.6311 0.63978 0.85237 0.0
C636 C 0.60373 0.62535 0.83094 0.0
C637 C 0.57726 0.65198 0.81717 0.0
C638 C 0.66257 0.69785 0.88039 0.0
C639 C 0.60045 0.58143 0.8241 0.0
H640 H 0.74193 0.55826 0.86664 0.0
H641 H 0.65103 0.55579 0.93374 0.0
H642 H 0.69145 0.60432 0.81176 0.0
H643 H 0.71 0.6471 0.83093 0.0
H644 H 0.74103 0.60353 0.82699 0.0
H645 H 0.59364 0.59522 0.93107 0.0
H646 H 0.60005 0.64215 0.91221 0.0
H647 H 0.57695 0.60144 0.89328 0.0
H648 H 0.60555 0.73817 0.8508 0.0
H649 H 0.55489 0.64062 0.802 0.0
H650 H 0.69282 0.68599 0.87593 0.0
H651 H 0.65417 0.68857 0.90319 0.0
H652 H 0.66371 0.73092 0.8797 0.0
H653 H 0.63006 0.56896 0.81847 0.0
H654 H 0.57971 0.57537 0.80541 0.0
H655 H 0.58955 0.5654 0.84407 0.0
C656 C 0.36169 0.38444 0.06778 0.0
C657 C 0.32314 0.381 0.07949 0.0
C658 C 0.39406 0.36562 0.08162 0.0
C659 C 0.3874 0.3423 0.10733 0.0
C660 C 0.34797 0.33498 0.11702 0.0
C661 C 0.31629 0.35482 0.10317 0.0
C662 C 0.43562 0.37428 0.07062 0.0
C663 C 0.33949 0.30932 0.14382 0.0
C664 C 0.47058 0.28477 0.14544 0.0
C665 C 0.47911 0.31019 0.16925 0.0
C666 C 0.44144 0.29511 0.12439 0.0
C667 C 0.42118 0.33193 0.1272 0.0
C668 C 0.43138 0.35842 0.15052 0.0
C669 C 0.45993 0.34697 0.17146 0.0
C670 C 0.43099 0.26588 0.10014 0.0
C671 C 0.4111 0.39833 0.15403 0.0
H672 H 0.36718 0.4047 0.04948 0.0
H673 H 0.28644 0.35172 0.11205 0.0
H674 H 0.44969 0.39672 0.08538 0.0
H675 H 0.45438 0.34711 0.07122 0.0
H676 H 0.43547 0.38626 0.04762 0.0
H677 H 0.30753 0.30104 0.1453 0.0
H678 H 0.35761 0.2817 0.14318 0.0
H679 H 0.34768 0.32583 0.16429 0.0
H680 H 0.4854 0.25613 0.14408 0.0
H681 H 0.46682 0.36647 0.18998 0.0
H682 H 0.42908 0.28109 0.07832 0.0
H683 H 0.4013 0.25278 0.10479 0.0
H684 H 0.45302 0.2413 0.09854 0.0
H685 H 0.41248 0.41527 0.1329 0.0
H686 H 0.4248 0.41665 0.17187 0.0
H687 H 0.37921 0.39379 0.15951 0.0
C688 C 0.63656 0.31929 0.36253 0.0
C689 C 0.62285 0.32098 0.3331 0.0
C690 C 0.65622 0.35165 0.37548 0.0
C691 C 0.66332 0.38629 0.35838 0.0
C692 C 0.65356 0.38658 0.32779 0.0
C693 C 0.63304 0.35396 0.3155 0.0
C694 C 0.66612 0.35 0.40822 0.0
C695 C 0.66215 0.42234 0.30856 0.0
C696 C 0.65708 0.47812 0.40653 0.0
C697 C 0.69679 0.48254 0.41514 0.0
C698 C 0.64604 0.44849 0.38621 0.0
C699 C 0.67569 0.42338 0.37386 0.0
C700 C 0.7163 0.43037 0.38045 0.0
C701 C 0.72637 0.45964 0.40142 0.0
C702 C 0.60234 0.44189 0.38 0.0
C703 C 0.74887 0.40528 0.36694 0.0
H704 H 0.62952 0.29368 0.37622 0.0
H705 H 0.62305 0.3554 0.29264 0.0
H706 H 0.69761 0.35846 0.41202 0.0
H707 H 0.64729 0.37166 0.42046 0.0
H708 H 0.66111 0.31993 0.41783 0.0
H709 H 0.66149 0.4146 0.28457 0.0
H710 H 0.6393 0.44556 0.31265 0.0
H711 H 0.69162 0.43538 0.314 0.0
H712 H 0.63435 0.49603 0.41724 0.0
H713 H 0.75721 0.46372 0.40786 0.0
H714 H 0.59281 0.41314 0.38989 0.0
H715 H 0.59693 0.44006 0.35574 0.0
H716 H 0.58345 0.46599 0.38934 0.0
H717 H 0.75043 0.37626 0.37866 0.0
H718 H 0.7784 0.41998 0.36882 0.0
H719 H 0.74266 0.39908 0.34317 0.0
C720 C 0.52311 0.65521 0.65555 0.0
C721 C 0.51884 0.69507 0.66406 0.0
C722 C 0.55362 0.64356 0.63621 0.0
C723 C 0.58 0.67267 0.6247 0.0
C724 C 0.57357 0.71344 0.63118 0.0
C725 C 0.54315 0.72416 0.65106 0.0
C726 C 0.55944 0.59972 0.62997 0.0
C727 C 0.60016 0.74547 0.61857 0.0
C728 C 0.68245 0.62913 0.61435 0.0
C729 C 0.68076 0.61605 0.58476 0.0
C730 C 0.6509 0.65041 0.62703 0.0
C731 C 0.61704 0.65942 0.60959 0.0
C732 C 0.61696 0.65012 0.57892 0.0
C733 C 0.64879 0.62827 0.56684 0.0
C734 C 0.65235 0.65994 0.65983 0.0
C735 C 0.58199 0.66047 0.55937 0.0
H736 H 0.5042 0.63272 0.66554 0.0
H737 H 0.53904 0.75517 0.65697 0.0
H738 H 0.56188 0.5944 0.60573 0.0
H739 H 0.58764 0.58949 0.64032 0.0
H740 H 0.53466 0.58128 0.63881 0.0
H741 H 0.58626 0.77541 0.62029 0.0
H742 H 0.62864 0.74603 0.63103 0.0
H743 H 0.60727 0.73936 0.59493 0.0
H744 H 0.70731 0.62051 0.62828 0.0
H745 H 0.64739 0.6188 0.54384 0.0
H746 H 0.63027 0.64127 0.67179 0.0
H747 H 0.64435 0.69154 0.66379 0.0
H748 H 0.68222 0.65432 0.66957 0.0
H749 H 0.55762 0.63877 0.56324 0.0
H750 H 0.59004 0.65946 0.53544 0.0
H751 H 0.57034 0.69055 0.56474 0.0
C752 C 0.3424 0.52316 0.90744 0.0
C753 C 0.30285 0.52316 0.91711 0.0
C754 C 0.35628 0.55269 0.88805 0.0
C755 C 0.32968 0.58247 0.87787 0.0
C756 C 0.28891 0.58055 0.88569 0.0
C757 C 0.27597 0.55088 0.90541 0.0
C758 C 0.4 0.55368 0.88026 0.0
C759 C 0.25949 0.61116 0.87473 0.0
C760 C 0.38074 0.68144 0.86625 0.0
C761 C 0.38934 0.68036 0.83576 0.0
C762 C 0.35941 0.65066 0.87991 0.0
C763 C 0.34586 0.61817 0.8626 0.0
C764 C 0.35165 0.61835 0.83146 0.0
C765 C 0.37353 0.64942 0.81838 0.0
C766 C 0.35378 0.65168 0.91321 0.0
C767 C 0.33684 0.58464 0.81223 0.0
H768 H 0.36305 0.50148 0.91646 0.0
H769 H 0.24509 0.55006 0.9124 0.0
H770 H 0.40402 0.55685 0.85593 0.0
H771 H 0.41415 0.57991 0.89095 0.0
H772 H 0.41587 0.52643 0.88772 0.0
H773 H 0.22822 0.60167 0.87856 0.0
H774 H 0.26445 0.6397 0.8866 0.0
H775 H 0.26377 0.61691 0.85068 0.0
H776 H 0.39238 0.70539 0.87987 0.0
H777 H 0.37972 0.64846 0.79476 0.0
H778 H 0.37117 0.62724 0.92357 0.0
H779 H 0.32205 0.64683 0.91897 0.0
H780 H 0.3636 0.68036 0.92311 0.0
H781 H 0.35602 0.55812 0.81558 0.0
H782 H 0.33738 0.59252 0.78826 0.0
H783 H 0.30605 0.57612 0.81849 0.0
C784 C 0.31097 0.66128 0.39808 0.0
C785 C 0.31874 0.63354 0.4206 0.0
C786 C 0.34218 0.68098 0.38352 0.0
C787 C 0.38201 0.67203 0.39133 0.0
C788 C 0.38979 0.64732 0.41613 0.0
C789 C 0.35793 0.62861 0.43071 0.0
C790 C 0.33256 0.70811 0.35778 0.0
C791 C 0.43179 0.63693 0.42518 0.0
C792 C 0.45094 0.66644 0.32496 0.0
C793 C 0.47236 0.70196 0.3275 0.0
C794 C 0.42237 0.65593 0.34619 0.0
C795 C 0.4146 0.68202 0.37028 0.0
C796 C 0.43679 0.71768 0.37324 0.0
C797 C 0.46588 0.72705 0.35188 0.0
C798 C 0.39998 0.61719 0.34248 0.0
C799 C 0.42888 0.74649 0.3983 0.0
H800 H 0.28065 0.66556 0.39045 0.0
H801 H 0.36416 0.60719 0.44812 0.0
H802 H 0.35191 0.73489 0.35806 0.0
H803 H 0.33814 0.69211 0.33661 0.0
H804 H 0.30093 0.71779 0.35809 0.0
H805 H 0.43294 0.62399 0.44787 0.0
H806 H 0.444 0.61469 0.40936 0.0
H807 H 0.45138 0.66351 0.42441 0.0
H808 H 0.4565 0.64692 0.30621 0.0
H809 H 0.48258 0.75459 0.35366 0.0
H810 H 0.36795 0.62338 0.33865 0.0
H811 H 0.4023 0.59909 0.36303 0.0
H812 H 0.41135 0.59925 0.32355 0.0
H813 H 0.3989 0.75983 0.39545 0.0
H814 H 0.45119 0.7709 0.39907 0.0
H815 H 0.42893 0.73075 0.41995 0.0
C816 C 0.33915 0.46389 0.57886 0.0
C817 C 0.30453 0.48672 0.58128 0.0
C818 C 0.3491 0.43595 0.60067 0.0
C819 C 0.32349 0.43051 0.62537 0.0
C820 C 0.2894 0.45493 0.62863 0.0
C821 C 0.28042 0.4831 0.60651 0.0
C822 C 0.38619 0.41108 0.59656 0.0
C823 C 0.26134 0.44992 0.65453 0.0
C824 C 0.33606 0.325 0.65146 0.0
C825 C 0.36567 0.32973 0.67309 0.0
C826 C 0.31844 0.35818 0.63795 0.0
C827 C 0.3313 0.39687 0.64598 0.0
C828 C 0.35784 0.40183 0.67014 0.0
C829 C 0.37457 0.36804 0.68362 0.0
C830 C 0.28936 0.35161 0.61285 0.0
C831 C 0.37208 0.44256 0.67953 0.0
H832 H 0.35802 0.46733 0.55948 0.0
H833 H 0.25363 0.50096 0.60827 0.0
H834 H 0.40488 0.41223 0.61686 0.0
H835 H 0.37778 0.3795 0.59284 0.0
H836 H 0.4044 0.42119 0.57738 0.0
H837 H 0.24043 0.47541 0.65658 0.0
H838 H 0.24364 0.42232 0.6514 0.0
H839 H 0.27806 0.44672 0.67564 0.0
H840 H 0.32872 0.29536 0.64358 0.0
H841 H 0.39742 0.37187 0.70039 0.0
H842 H 0.30463 0.35685 0.59134 0.0
H843 H 0.26418 0.37289 0.61435 0.0
H844 H 0.2773 0.32079 0.6128 0.0
H845 H 0.39502 0.4531 0.66362 0.0
H846 H 0.38551 0.44202 0.70208 0.0
H847 H 0.34734 0.46444 0.67929 0.0
C848 C 0.68609 0.3362 0.89908 0.0
C849 C 0.67791 0.36729 0.91895 0.0
C850 C 0.65517 0.3163 0.88428 0.0
C851 C 0.61534 0.32867 0.88887 0.0
C852 C 0.60677 0.3574 0.91101 0.0
C853 C 0.63824 0.37603 0.92611 0.0
C854 C 0.66548 0.28478 0.86163 0.0
C855 C 0.56483 0.37186 0.91639 0.0
C856 C 0.55166 0.32905 0.81945 0.0
C857 C 0.52613 0.29689 0.82452 0.0
C858 C 0.58033 0.33992 0.84051 0.0
C859 C 0.58417 0.31737 0.86698 0.0
C860 C 0.55852 0.28458 0.8721 0.0
C861 C 0.52924 0.27508 0.85091 0.0
C862 C 0.60644 0.37566 0.83442 0.0
C863 C 0.5625 0.25924 0.89962 0.0
H864 H 0.71675 0.3291 0.89371 0.0
H865 H 0.63174 0.40017 0.94137 0.0
H866 H 0.64405 0.25966 0.86266 0.0
H867 H 0.66373 0.29778 0.83901 0.0
H868 H 0.69606 0.27301 0.86496 0.0
H869 H 0.56233 0.38889 0.93747 0.0
H870 H 0.55578 0.39165 0.89783 0.0
H871 H 0.54356 0.34662 0.91703 0.0
H872 H 0.54879 0.34604 0.79908 0.0
H873 H 0.5094 0.25008 0.8546 0.0
H874 H 0.63803 0.36625 0.83286 0.0
H875 H 0.60417 0.39731 0.85298 0.0
H876 H 0.59826 0.39106 0.81345 0.0
H877 H 0.59255 0.24555 0.90027 0.0
H878 H 0.53985 0.23515 0.90048 0.0
H879 H 0.55952 0.27793 0.91981 0.0
C880 C 0.61897 0.63192 0.18195 0.0
C881 C 0.62947 0.67096 0.17417 0.0
C882 C 0.63579 0.59926 0.167 0.0
C883 C 0.66414 0.60607 0.14427 0.0
C884 C 0.67846 0.64515 0.13919 0.0
C885 C 0.66062 0.67722 0.15402 0.0
C886 C 0.61974 0.5581 0.17316 0.0
C887 C 0.70947 0.65362 0.11576 0.0
C888 C 0.71466 0.52092 0.10305 0.0
C889 C 0.69219 0.51981 0.07685 0.0
C890 C 0.70557 0.54831 0.1257 0.0
C891 C 0.67283 0.57442 0.12209 0.0
C892 C 0.64906 0.57198 0.09612 0.0
C893 C 0.65922 0.54485 0.07375 0.0
C894 C 0.73183 0.55035 0.15285 0.0
C895 C 0.61339 0.59872 0.09159 0.0
H896 H 0.59476 0.62697 0.19745 0.0
H897 H 0.66899 0.70743 0.14818 0.0
H898 H 0.59794 0.55005 0.15563 0.0
H899 H 0.64386 0.53556 0.17268 0.0
H900 H 0.60443 0.55659 0.19501 0.0
H901 H 0.7225 0.68385 0.11831 0.0
H902 H 0.7338 0.63131 0.11668 0.0
H903 H 0.69557 0.65162 0.09344 0.0
H904 H 0.74016 0.50137 0.10535 0.0
H905 H 0.64148 0.54332 0.05366 0.0
H906 H 0.71358 0.55053 0.17339 0.0
H907 H 0.7491 0.57852 0.15249 0.0
H908 H 0.75307 0.52503 0.15392 0.0
H909 H 0.59289 0.59642 0.11084 0.0
H910 H 0.59661 0.59121 0.07107 0.0
H911 H 0.62326 0.6302 0.09006 0.0
loop_
_geom_bond_atom_site_label_1
_geom_bond_atom_site_label_2
_geom_bond_distance
_geom_bond_site_symmetry_2
_ccdc_geom_bond_type
Co0 O3 1.970 . S
Co0 N17 1.989 . S
Co0 O25 1.967 . S
Co0 O32 1.920 . S
Co1 O4 1.966 . S
Co1 N10 2.022 1_554 S
Co1 N18 1.993 . S
Co1 O26 1.941 . S
C2 O3 1.258 . S
C2 O4 1.263 . S
O3 Co0 1.970 . S
O3 C2 1.258 . S
O4 Co1 1.966 . S
O4 C2 1.263 . S
C5 O6 1.235 . S
C5 O32 1.289 . S
O6 C5 1.235 . S
C7 C9 1.400 . S
C7 N10 1.351 . S
C7 C12 1.501 . S
C8 C9 1.387 . S
C8 N11 1.341 . S
C9 C7 1.400 . S
C9 C8 1.387 . S
N10 Co1 2.022 1_556 S
N10 C7 1.351 . S
N10 N11 1.365 . S
N11 C8 1.341 . S
N11 N10 1.365 . S
N11 H31 0.862 . S
C12 C7 1.501 . S
C12 H13 0.961 1_556 S
C12 H14 0.961 . S
C12 H15 0.960 . S
H13 C12 0.961 1_554 S
H14 C12 0.961 . S
H15 C12 0.960 . S
C16 N17 1.342 . S
C16 C20 1.401 . S
C16 C21 1.499 . S
N17 Co0 1.989 . S
N17 C16 1.342 . S
N17 N18 1.388 . S
N18 Co1 1.993 . S
N18 N17 1.388 . S
N18 C19 1.346 . S
C19 N18 1.346 . S
C19 C20 1.396 . S
C19 C29 1.510 1_554 S
C20 C16 1.401 . S
C20 C19 1.396 . S
C21 C16 1.499 . S
C21 H22 0.959 . S
C21 H23 0.960 . S
C21 H24 0.961 . S
H22 C21 0.959 . S
H23 C21 0.960 . S
H24 C21 0.961 . S
O25 Co0 1.967 . S
O25 C33 1.258 . S
O26 Co1 1.941 . S
O26 C33 1.266 . S
H27 C29 0.959 . S
H28 C29 0.961 . S
C29 C19 1.510 1_556 S
C29 H27 0.959 . S
C29 H28 0.961 . S
C29 H30 0.960 . S
H30 C29 0.960 . S
H31 N11 0.862 . S
O32 Co0 1.920 . S
O32 C5 1.289 . S
C33 O25 1.258 . S
C33 O26 1.266 . S
Co34 O37 1.970 . S
Co34 N51 1.989 . S
Co34 O59 1.967 . S
Co34 O66 1.920 . S
Co35 O38 1.966 . S
Co35 N44 2.022 . S
Co35 N52 1.993 . S
Co35 O60 1.941 . S
C36 O37 1.258 . S
C36 O38 1.263 . S
O37 Co34 1.970 . S
O37 C36 1.258 . S
O38 Co35 1.966 . S
O38 C36 1.263 . S
C39 O40 1.235 . S
C39 O66 1.289 . S
O40 C39 1.235 . S
C41 C43 1.400 . S
C41 N44 1.351 . S
C41 C46 1.501 . S
C42 C43 1.387 . S
C42 N45 1.341 . S
C43 C41 1.400 . S
C43 C42 1.387 . S
N44 Co35 2.022 . S
N44 C41 1.351 . S
N44 N45 1.365 . S
N45 C42 1.341 . S
N45 N44 1.365 . S
N45 H65 0.862 . S
C46 C41 1.501 . S
C46 H47 0.961 . S
C46 H48 0.961 . S
C46 H49 0.960 . S
H47 C46 0.961 . S
H48 C46 0.961 . S
H49 C46 0.960 . S
C50 N51 1.342 . S
C50 C54 1.401 . S
C50 C55 1.499 . S
N51 Co34 1.989 . S
N51 C50 1.342 . S
N51 N52 1.388 . S
N52 Co35 1.993 . S
N52 N51 1.388 . S
N52 C53 1.346 . S
C53 N52 1.346 . S
C53 C54 1.396 . S
C53 C63 1.510 . S
C54 C50 1.401 . S
C54 C53 1.396 . S
C55 C50 1.499 . S
C55 H56 0.959 . S
C55 H57 0.960 . S
C55 H58 0.961 . S
H56 C55 0.959 . S
H57 C55 0.960 . S
H58 C55 0.961 . S
O59 Co34 1.967 . S
O59 C67 1.258 . S
O60 Co35 1.941 . S
O60 C67 1.266 . S
H61 C63 0.959 . S
H62 C63 0.961 . S
C63 C53 1.510 . S
C63 H61 0.959 . S
C63 H62 0.961 . S
C63 H64 0.960 . S
H64 C63 0.960 . S
H65 N45 0.862 . S
O66 Co34 1.920 . S
O66 C39 1.289 . S
C67 O59 1.258 . S
C67 O60 1.266 . S
Co68 O71 1.970 . S
Co68 N85 1.989 . S
Co68 O93 1.967 . S
Co68 O100 1.920 . S
Co69 O72 1.966 . S
Co69 N78 2.022 . S
Co69 N86 1.993 . S
Co69 O94 1.941 . S
C70 O71 1.258 . S
C70 O72 1.263 . S
O71 Co68 1.970 . S
O71 C70 1.258 . S
O72 Co69 1.966 . S
O72 C70 1.263 . S
C73 O74 1.235 . S
C73 O100 1.289 . S
O74 C73 1.235 . S
C75 C77 1.400 . S
C75 N78 1.351 . S
C75 C80 1.501 . S
C76 C77 1.387 . S
C76 N79 1.341 . S
C77 C75 1.400 . S
C77 C76 1.387 . S
N78 Co69 2.022 . S
N78 C75 1.351 . S
N78 N79 1.365 . S
N79 C76 1.341 . S
N79 N78 1.365 . S
N79 H99 0.862 . S
C80 C75 1.501 . S
C80 H81 0.961 . S
C80 H82 0.961 . S
C80 H83 0.960 . S
H81 C80 0.961 . S
H82 C80 0.961 . S
H83 C80 0.960 . S
C84 N85 1.342 . S
C84 C88 1.401 . S
C84 C89 1.499 . S
N85 Co68 1.989 . S
N85 C84 1.342 . S
N85 N86 1.388 . S
N86 Co69 1.993 . S
N86 N85 1.388 . S
N86 C87 1.346 . S
C87 N86 1.346 . S
C87 C88 1.396 . S
C87 C97 1.510 . S
C88 C84 1.401 . S
C88 C87 1.396 . S
C89 C84 1.499 . S
C89 H90 0.959 . S
C89 H91 0.960 . S
C89 H92 0.961 . S
H90 C89 0.959 . S
H91 C89 0.960 . S
H92 C89 0.961 . S
O93 Co68 1.967 . S
O93 C101 1.258 . S
O94 Co69 1.941 . S
O94 C101 1.266 . S
H95 C97 0.959 . S
H96 C97 0.961 . S
C97 C87 1.510 . S
C97 H95 0.959 . S
C97 H96 0.961 . S
C97 H98 0.960 . S
H98 C97 0.960 . S
H99 N79 0.862 . S
O100 Co68 1.920 . S
O100 C73 1.289 . S
C101 O93 1.258 . S
C101 O94 1.266 . S
Co102 O105 1.970 . S
Co102 N119 1.989 . S
Co102 O127 1.967 . S
Co102 O134 1.920 . S
Co103 O106 1.966 . S
Co103 N112 2.022 . S
Co103 N120 1.993 . S
Co103 O128 1.941 . S
C104 O105 1.258 . S
C104 O106 1.263 . S
O105 Co102 1.970 . S
O105 C104 1.258 . S
O106 Co103 1.966 . S
O106 C104 1.263 . S
C107 O108 1.235 . S
C107 O134 1.289 . S
O108 C107 1.235 . S
C109 C111 1.400 . S
C109 N112 1.351 . S
C109 C114 1.501 . S
C110 C111 1.387 . S
C110 N113 1.341 . S
C111 C109 1.400 . S
C111 C110 1.387 . S
N112 Co103 2.022 . S
N112 C109 1.351 . S
N112 N113 1.365 . S
N113 C110 1.341 . S
N113 N112 1.365 . S
N113 H133 0.862 . S
C114 C109 1.501 . S
C114 H115 0.961 . S
C114 H116 0.961 . S
C114 H117 0.960 . S
H115 C114 0.961 . S
H116 C114 0.961 . S
H117 C114 0.960 . S
C118 N119 1.342 . S
C118 C122 1.401 . S
C118 C123 1.499 . S
N119 Co102 1.989 . S
N119 C118 1.342 . S
N119 N120 1.388 . S
N120 Co103 1.993 . S
N120 N119 1.388 . S
N120 C121 1.346 . S
C121 N120 1.346 . S
C121 C122 1.396 . S
C121 C131 1.510 . S
C122 C118 1.401 . S
C122 C121 1.396 . S
C123 C118 1.499 . S
C123 H124 0.959 . S
C123 H125 0.960 . S
C123 H126 0.961 . S
H124 C123 0.959 . S
H125 C123 0.960 . S
H126 C123 0.961 . S
O127 Co102 1.967 . S
O127 C135 1.258 . S
O128 Co103 1.941 . S
O128 C135 1.266 . S
H129 C131 0.959 . S
H130 C131 0.961 . S
C131 C121 1.510 . S
C131 H129 0.959 . S
C131 H130 0.961 . S
C131 H132 0.960 . S
H132 C131 0.960 . S
H133 N113 0.862 . S
O134 Co102 1.920 . S
O134 C107 1.289 . S
C135 O127 1.258 . S
C135 O128 1.266 . S
Co136 O139 1.970 . S
Co136 N153 1.989 . S
Co136 O161 1.967 . S
Co136 O168 1.920 . S
Co137 O140 1.966 . S
Co137 N146 2.022 . S
Co137 N154 1.993 . S
Co137 O162 1.941 . S
C138 O139 1.258 . S
C138 O140 1.263 . S
O139 Co136 1.970 . S
O139 C138 1.258 . S
O140 Co137 1.966 . S
O140 C138 1.263 . S
C141 O142 1.235 . S
C141 O168 1.289 . S
O142 C141 1.235 . S
C143 C145 1.400 . S
C143 N146 1.351 . S
C143 C148 1.501 . S
C144 C145 1.387 . S
C144 N147 1.341 . S
C145 C143 1.400 . S
C145 C144 1.387 . S
N146 Co137 2.022 . S
N146 C143 1.351 . S
N146 N147 1.365 . S
N147 C144 1.341 . S
N147 N146 1.365 . S
N147 H167 0.862 . S
C148 C143 1.501 . S
C148 H149 0.961 . S
C148 H150 0.961 . S
C148 H151 0.960 . S
H149 C148 0.961 . S
H150 C148 0.961 . S
H151 C148 0.960 . S
C152 N153 1.342 . S
C152 C156 1.401 . S
C152 C157 1.499 . S
N153 Co136 1.989 . S
N153 C152 1.342 . S
N153 N154 1.388 . S
N154 Co137 1.993 . S
N154 N153 1.388 . S
N154 C155 1.346 . S
C155 N154 1.346 . S
C155 C156 1.396 . S
C155 C165 1.510 . S
C156 C152 1.401 . S
C156 C155 1.396 . S
C157 C152 1.499 . S
C157 H158 0.959 . S
C157 H159 0.960 . S
C157 H160 0.961 . S
H158 C157 0.959 . S
H159 C157 0.960 . S
H160 C157 0.961 . S
O161 Co136 1.967 . S
O161 C169 1.258 . S
O162 Co137 1.941 . S
O162 C169 1.266 . S
H163 C165 0.959 . S
H164 C165 0.961 . S
C165 C155 1.510 . S
C165 H163 0.959 . S
C165 H164 0.961 . S
C165 H166 0.960 . S
H166 C165 0.960 . S
H167 N147 0.862 . S
O168 Co136 1.920 . S
O168 C141 1.289 . S
C169 O161 1.258 . S
C169 O162 1.266 . S
Co170 O173 1.970 . S
Co170 N187 1.989 . S
Co170 O195 1.967 . S
Co170 O202 1.920 . S
Co171 O174 1.966 . S
Co171 N180 2.022 . S
Co171 N188 1.993 . S
Co171 O196 1.941 . S
C172 O173 1.258 . S
C172 O174 1.263 . S
O173 Co170 1.970 . S
O173 C172 1.258 . S
O174 Co171 1.966 . S
O174 C172 1.263 . S
C175 O176 1.235 . S
C175 O202 1.289 . S
O176 C175 1.235 . S
C177 C179 1.400 . S
C177 N180 1.351 . S
C177 C182 1.501 . S
C178 C179 1.387 . S
C178 N181 1.341 . S
C179 C177 1.400 . S
C179 C178 1.387 . S
N180 Co171 2.022 . S
N180 C177 1.351 . S
N180 N181 1.365 . S
N181 C178 1.341 . S
N181 N180 1.365 . S
N181 H201 0.862 . S
C182 C177 1.501 . S
C182 H183 0.961 . S
C182 H184 0.961 . S
C182 H185 0.960 . S
H183 C182 0.961 . S
H184 C182 0.961 . S
H185 C182 0.960 . S
C186 N187 1.342 . S
C186 C190 1.401 . S
C186 C191 1.499 . S
N187 Co170 1.989 . S
N187 C186 1.342 . S
N187 N188 1.388 . S
N188 Co171 1.993 . S
N188 N187 1.388 . S
N188 C189 1.346 . S
C189 N188 1.346 . S
C189 C190 1.396 . S
C189 C199 1.510 . S
C190 C186 1.401 . S
C190 C189 1.396 . S
C191 C186 1.499 . S
C191 H192 0.959 . S
C191 H193 0.960 . S
C191 H194 0.961 . S
H192 C191 0.959 . S
H193 C191 0.960 . S
H194 C191 0.961 . S
O195 Co170 1.967 . S
O195 C203 1.258 . S
O196 Co171 1.941 . S
O196 C203 1.266 . S
H197 C199 0.959 . S
H198 C199 0.961 . S
C199 C189 1.510 . S
C199 H197 0.959 . S
C199 H198 0.961 . S
C199 H200 0.960 . S
H200 C199 0.960 . S
H201 N181 0.862 . S
O202 Co170 1.920 . S
O202 C175 1.289 . S
C203 O195 1.258 . S
C203 O196 1.266 . S
Co204 O207 1.970 . S
Co204 N221 1.989 . S
Co204 O229 1.967 . S
Co204 O236 1.920 . S
Co205 O208 1.966 . S
Co205 N214 2.022 1_556 S
Co205 N222 1.993 . S
Co205 O230 1.941 . S
C206 O207 1.258 . S
C206 O208 1.263 . S
O207 Co204 1.970 . S
O207 C206 1.258 . S
O208 Co205 1.966 . S
O208 C206 1.263 . S
C209 O210 1.235 . S
C209 O236 1.289 . S
O210 C209 1.235 . S
C211 C213 1.400 . S
C211 N214 1.351 . S
C211 C216 1.501 . S
C212 C213 1.387 . S
C212 N215 1.341 . S
C213 C211 1.400 . S
C213 C212 1.387 . S
N214 Co205 2.022 1_554 S
N214 C211 1.351 . S
N214 N215 1.365 . S
N215 C212 1.341 . S
N215 N214 1.365 . S
N215 H235 0.862 . S
C216 C211 1.501 . S
C216 H217 0.961 1_554 S
C216 H218 0.961 . S
C216 H219 0.960 . S
H217 C216 0.961 1_556 S
H218 C216 0.961 . S
H219 C216 0.960 . S
C220 N221 1.342 . S
C220 C224 1.401 . S
C220 C225 1.499 . S
N221 Co204 1.989 . S
N221 C220 1.342 . S
N221 N222 1.388 . S
N222 Co205 1.993 . S
N222 N221 1.388 . S
N222 C223 1.346 . S
C223 N222 1.346 . S
C223 C224 1.396 . S
C223 C233 1.510 1_556 S
C224 C220 1.401 . S
C224 C223 1.396 . S
C225 C220 1.499 . S
C225 H226 0.959 . S
C225 H227 0.960 . S
C225 H228 0.961 . S
H226 C225 0.959 . S
H227 C225 0.960 . S
H228 C225 0.961 . S
O229 Co204 1.967 . S
O229 C237 1.258 . S
O230 Co205 1.941 . S
O230 C237 1.266 . S
H231 C233 0.959 . S
H232 C233 0.961 . S
C233 C223 1.510 1_554 S
C233 H231 0.959 . S
C233 H232 0.961 . S
C233 H234 0.960 . S
H234 C233 0.960 . S
H235 N215 0.862 . S
O236 Co204 1.920 . S
O236 C209 1.289 . S
C237 O229 1.258 . S
C237 O230 1.266 . S
Co238 O241 1.970 . S
Co238 N255 1.989 . S
Co238 O263 1.967 . S
Co238 O270 1.920 . S
Co239 O242 1.966 . S
Co239 N248 2.022 . S
Co239 N256 1.993 . S
Co239 O264 1.941 . S
C240 O241 1.258 . S
C240 O242 1.263 . S
O241 Co238 1.970 . S
O241 C240 1.258 . S
O242 Co239 1.966 . S
O242 C240 1.263 . S
C243 O244 1.235 . S
C243 O270 1.289 . S
O244 C243 1.235 . S
C245 C247 1.400 . S
C245 N248 1.351 . S
C245 C250 1.501 . S
C246 C247 1.387 . S
C246 N249 1.341 . S
C247 C245 1.400 . S
C247 C246 1.387 . S
N248 Co239 2.022 . S
N248 C245 1.351 . S
N248 N249 1.365 . S
N249 C246 1.341 . S
N249 N248 1.365 . S
N249 H269 0.862 . S
C250 C245 1.501 . S
C250 H251 0.961 . S
C250 H252 0.961 . S
C250 H253 0.960 . S
H251 C250 0.961 . S
H252 C250 0.961 . S
H253 C250 0.960 . S
C254 N255 1.342 . S
C254 C258 1.401 . S
C254 C259 1.499 . S
N255 Co238 1.989 . S
N255 C254 1.342 . S
N255 N256 1.388 . S
N256 Co239 1.993 . S
N256 N255 1.388 . S
N256 C257 1.346 . S
C257 N256 1.346 . S
C257 C258 1.396 . S
C257 C267 1.510 . S
C258 C254 1.401 . S
C258 C257 1.396 . S
C259 C254 1.499 . S
C259 H260 0.959 . S
C259 H261 0.960 . S
C259 H262 0.961 . S
H260 C259 0.959 . S
H261 C259 0.960 . S
H262 C259 0.961 . S
O263 Co238 1.967 . S
O263 C271 1.258 . S
O264 Co239 1.941 . S
O264 C271 1.266 . S
H265 C267 0.959 . S
H266 C267 0.961 . S
C267 C257 1.510 . S
C267 H265 0.959 . S
C267 H266 0.961 . S
C267 H268 0.960 . S
H268 C267 0.960 . S
H269 N249 0.862 . S
O270 Co238 1.920 . S
O270 C243 1.289 . S
C271 O263 1.258 . S
C271 O264 1.266 . S
C272 C273 1.391 . S
C272 C274 1.394 . S
C272 H288 0.931 . S
C273 C272 1.391 . S
C273 C277 1.376 . S
C274 C272 1.394 . S
C274 C275 1.369 . S
C274 C278 1.531 . S
C275 C274 1.369 . S
C275 C276 1.410 . S
C275 C283 1.503 . S
C276 C275 1.410 . S
C276 C277 1.392 . S
C276 C279 1.511 . S
C277 C273 1.376 . S
C277 C276 1.392 . S
C277 H289 0.929 . S
C278 C274 1.531 . S
C278 H290 0.960 . S
C278 H291 0.962 . S
C278 H292 0.960 . S
C279 C276 1.511 . S
C279 H293 0.961 . S
C279 H294 0.961 . S
C279 H295 0.961 . S
C280 C281 1.370 . S
C280 C282 1.363 . S
C280 H296 0.931 . S
C281 C280 1.370 . S
C281 C285 1.408 . S
C282 C280 1.363 . S
C282 C283 1.370 . S
C282 C286 1.524 . S
C283 C275 1.503 . S
C283 C282 1.370 . S
C283 C284 1.403 . S
C284 C283 1.403 . S
C284 C285 1.404 . S
C284 C287 1.539 . S
C285 C281 1.408 . S
C285 C284 1.404 . S
C285 H297 0.930 . S
C286 C282 1.524 . S
C286 H298 0.956 . S
C286 H299 0.961 . S
C286 H300 0.961 . S
C287 C284 1.539 . S
C287 H301 0.958 . S
C287 H302 0.961 . S
C287 H303 0.960 . S
H288 C272 0.931 . S
H289 C277 0.929 . S
H290 C278 0.960 . S
H291 C278 0.962 . S
H292 C278 0.960 . S
H293 C279 0.961 . S
H294 C279 0.961 . S
H295 C279 0.961 . S
H296 C280 0.931 . S
H297 C285 0.930 . S
H298 C286 0.956 . S
H299 C286 0.961 . S
H300 C286 0.961 . S
H301 C287 0.958 . S
H302 C287 0.961 . S
H303 C287 0.960 . S
C304 C305 1.391 . S
C304 C306 1.394 . S
C304 H320 0.931 . S
C305 C304 1.391 . S
C305 C309 1.376 . S
C306 C304 1.394 . S
C306 C307 1.369 . S
C306 C310 1.531 . S
C307 C306 1.369 . S
C307 C308 1.410 . S
C307 C315 1.503 . S
C308 C307 1.410 . S
C308 C309 1.392 . S
C308 C311 1.511 . S
C309 C305 1.376 . S
C309 C308 1.392 . S
C309 H321 0.929 . S
C310 C306 1.531 . S
C310 H322 0.960 . S
C310 H323 0.962 . S
C310 H324 0.960 . S
C311 C308 1.511 . S
C311 H325 0.961 . S
C311 H326 0.961 . S
C311 H327 0.961 . S
C312 C313 1.370 . S
C312 C314 1.363 . S
C312 H328 0.931 . S
C313 C312 1.370 . S
C313 C317 1.408 . S
C314 C312 1.363 . S
C314 C315 1.370 . S
C314 C318 1.524 . S
C315 C307 1.503 . S
C315 C314 1.370 . S
C315 C316 1.403 . S
C316 C315 1.403 . S
C316 C317 1.404 . S
C316 C319 1.539 . S
C317 C313 1.408 . S
C317 C316 1.404 . S
C317 H329 0.930 . S
C318 C314 1.524 . S
C318 H330 0.956 . S
C318 H331 0.961 . S
C318 H332 0.961 . S
C319 C316 1.539 . S
C319 H333 0.958 . S
C319 H334 0.961 . S
C319 H335 0.960 . S
H320 C304 0.931 . S
H321 C309 0.929 . S
H322 C310 0.960 . S
H323 C310 0.962 . S
H324 C310 0.960 . S
H325 C311 0.961 . S
H326 C311 0.961 . S
H327 C311 0.961 . S
H328 C312 0.931 . S
H329 C317 0.930 . S
H330 C318 0.956 . S
H331 C318 0.961 . S
H332 C318 0.961 . S
H333 C319 0.958 . S
H334 C319 0.961 . S
H335 C319 0.960 . S
C336 C337 1.391 . S
C336 C338 1.394 . S
C336 H352 0.931 . S
C337 C336 1.391 . S
C337 C341 1.376 . S
C338 C336 1.394 . S
C338 C339 1.369 . S
C338 C342 1.531 . S
C339 C338 1.369 . S
C339 C340 1.410 . S
C339 C347 1.503 . S
C340 C339 1.410 . S
C340 C341 1.392 . S
C340 C343 1.511 . S
C341 C337 1.376 . S
C341 C340 1.392 . S
C341 H353 0.929 . S
C342 C338 1.531 . S
C342 H354 0.960 . S
C342 H355 0.962 . S
C342 H356 0.960 . S
C343 C340 1.511 . S
C343 H357 0.961 . S
C343 H358 0.961 . S
C343 H359 0.961 . S
C344 C345 1.370 . S
C344 C346 1.363 . S
C344 H360 0.931 . S
C345 C344 1.370 . S
C345 C349 1.408 . S
C346 C344 1.363 . S
C346 C347 1.370 . S
C346 C350 1.524 . S
C347 C339 1.503 . S
C347 C346 1.370 . S
C347 C348 1.403 . S
C348 C347 1.403 . S
C348 C349 1.404 . S
C348 C351 1.539 . S
C349 C345 1.408 . S
C349 C348 1.404 . S
C349 H361 0.930 . S
C350 C346 1.524 . S
C350 H362 0.956 . S
C350 H363 0.961 . S
C350 H364 0.961 . S
C351 C348 1.539 . S
C351 H365 0.958 . S
C351 H366 0.961 . S
C351 H367 0.960 . S
H352 C336 0.931 . S
H353 C341 0.929 . S
H354 C342 0.960 . S
H355 C342 0.962 . S
H356 C342 0.960 . S
H357 C343 0.961 . S
H358 C343 0.961 . S
H359 C343 0.961 . S
H360 C344 0.931 . S
H361 C349 0.930 . S
H362 C350 0.956 . S
H363 C350 0.961 . S
H364 C350 0.961 . S
H365 C351 0.958 . S
H366 C351 0.961 . S
H367 C351 0.960 . S
C368 C369 1.391 . S
C368 C370 1.394 . S
C368 H384 0.931 . S
C369 C368 1.391 . S
C369 C373 1.376 . S
C370 C368 1.394 . S
C370 C371 1.369 . S
C370 C374 1.531 . S
C371 C370 1.369 . S
C371 C372 1.410 . S
C371 C379 1.503 1_556 S
C372 C371 1.410 . S
C372 C373 1.392 . S
C372 C375 1.511 . S
C373 C369 1.376 . S
C373 C372 1.392 . S
C373 H385 0.929 . S
C374 C370 1.531 . S
C374 H386 0.960 1_556 S
C374 H387 0.962 . S
C374 H388 0.960 . S
C375 C372 1.511 . S
C375 H389 0.961 . S
C375 H390 0.948 1_556 S
C375 H391 0.961 . S
C376 C377 1.370 . S
C376 C378 1.363 . S
C376 H392 0.931 . S
C377 C376 1.370 . S
C377 C381 1.408 . S
C378 C376 1.363 . S
C378 C379 1.370 . S
C378 C382 1.524 . S
C379 C371 1.503 1_554 S
C379 C378 1.370 . S
C379 C380 1.403 . S
C380 C379 1.403 . S
C380 C381 1.404 . S
C380 C383 1.539 . S
C381 C377 1.408 . S
C381 C380 1.404 . S
C381 H393 0.930 . S
C382 C378 1.524 . S
C382 H394 0.956 . S
C382 H395 0.961 1_554 S
C382 H396 0.961 . S
C383 C380 1.539 . S
C383 H397 0.958 . S
C383 H398 0.961 . S
C383 H399 0.960 1_554 S
H384 C368 0.931 . S
H385 C373 0.929 . S
H386 C374 0.960 1_554 S
H387 C374 0.962 . S
H388 C374 0.960 . S
H389 C375 0.961 . S
H390 C375 0.948 1_554 S
H391 C375 0.961 . S
H392 C376 0.931 . S
H393 C381 0.930 . S
H394 C382 0.956 . S
H395 C382 0.961 1_556 S
H396 C382 0.961 . S
H397 C383 0.958 . S
H398 C383 0.961 . S
H399 C383 0.960 1_556 S
C400 C401 1.391 . S
C400 C402 1.394 . S
C400 H416 0.931 . S
C401 C400 1.391 . S
C401 C405 1.376 1_554 S
C402 C400 1.394 . S
C402 C403 1.369 . S
C402 C406 1.531 . S
C403 C402 1.369 . S
C403 C404 1.410 1_554 S
C403 C411 1.503 1_454 S
C404 C403 1.410 1_556 S
C404 C405 1.392 . S
C404 C407 1.511 . S
C405 C401 1.376 1_556 S
C405 C404 1.392 . S
C405 H417 0.929 . S
C406 C402 1.531 . S
C406 H418 0.960 1_455 S
C406 H419 0.962 1_455 S
C406 H420 0.960 . S
C407 C404 1.511 . S
C407 H421 0.961 . S
C407 H422 0.961 . S
C407 H423 0.961 . S
C408 C409 1.370 . S
C408 C410 1.363 . S
C408 H424 0.931 . S
C409 C408 1.370 . S
C409 C413 1.408 . S
C410 C408 1.363 . S
C410 C411 1.370 . S
C410 C414 1.524 . S
C411 C403 1.503 1_656 S
C411 C410 1.370 . S
C411 C412 1.403 . S
C412 C411 1.403 . S
C412 C413 1.404 . S
C412 C415 1.538 1_556 S
C413 C409 1.408 . S
C413 C412 1.404 . S
C413 H425 0.930 . S
C414 C410 1.524 . S
C414 H426 0.956 1_556 S
C414 H427 0.961 1_655 S
C414 H428 0.961 . S
C415 C412 1.538 1_554 S
C415 H429 0.969 . S
C415 H430 0.955 1_554 S
C415 H431 0.928 1_654 S
H416 C400 0.931 . S
H417 C405 0.929 . S
H418 C406 0.960 1_655 S
H419 C406 0.962 1_655 S
H420 C406 0.960 . S
H421 C407 0.961 . S
H422 C407 0.961 . S
H423 C407 0.961 . S
H424 C408 0.931 . S
H425 C413 0.930 . S
H426 C414 0.956 1_554 S
H427 C414 0.961 1_455 S
H428 C414 0.961 . S
H429 C415 0.969 . S
H430 C415 0.955 1_556 S
H431 C415 0.928 1_456 S
C432 C433 1.391 . S
C432 C434 1.394 . S
C432 H448 0.931 . S
C433 C432 1.391 . S
C433 C437 1.376 . S
C434 C432 1.394 . S
C434 C435 1.369 . S
C434 C438 1.531 . S
C435 C434 1.369 . S
C435 C436 1.410 . S
C435 C443 1.503 1_545 S
C436 C435 1.410 . S
C436 C437 1.392 . S
C436 C439 1.511 . S
C437 C433 1.376 . S
C437 C436 1.392 . S
C437 H449 0.929 . S
C438 C434 1.531 . S
C438 H450 0.960 1_545 S
C438 H451 0.962 . S
C438 H452 0.960 . S
C439 C436 1.511 . S
C439 H453 0.961 . S
C439 H454 0.961 1_545 S
C439 H455 0.961 . S
C440 C441 1.370 . S
C440 C442 1.363 . S
C440 H456 0.931 . S
C441 C440 1.370 . S
C441 C445 1.408 . S
C442 C440 1.363 . S
C442 C443 1.370 . S
C442 C446 1.524 . S
C443 C435 1.503 1_565 S
C443 C442 1.370 . S
C443 C444 1.403 . S
C444 C443 1.403 . S
C444 C445 1.404 . S
C444 C447 1.539 . S
C445 C441 1.408 . S
C445 C444 1.404 . S
C445 H457 0.930 . S
C446 C442 1.524 . S
C446 H458 0.956 1_565 S
C446 H459 0.961 1_565 S
C446 H460 0.961 . S
C447 C444 1.539 . S
C447 H461 0.958 . S
C447 H462 0.961 . S
C447 H463 0.960 . S
H448 C432 0.931 . S
H449 C437 0.929 . S
H450 C438 0.960 1_565 S
H451 C438 0.962 . S
H452 C438 0.960 . S
H453 C439 0.961 . S
H454 C439 0.961 1_565 S
H455 C439 0.961 . S
H456 C440 0.931 . S
H457 C445 0.930 . S
H458 C446 0.956 1_545 S
H459 C446 0.961 1_545 S
H460 C446 0.961 . S
H461 C447 0.958 . S
H462 C447 0.961 . S
H463 C447 0.960 . S
C464 C465 1.391 . S
C464 C466 1.394 . S
C464 H480 0.931 . S
C465 C464 1.391 . S
C465 C469 1.376 . S
C466 C464 1.394 . S
C466 C467 1.369 . S
C466 C470 1.531 . S
C467 C466 1.369 . S
C467 C468 1.410 . S
C467 C475 1.503 1_455 S
C468 C467 1.410 . S
C468 C469 1.392 . S
C468 C471 1.511 . S
C469 C465 1.376 . S
C469 C468 1.392 . S
C469 H481 0.929 . S
C470 C466 1.531 . S
C470 H482 0.960 . S
C470 H483 0.962 . S
C470 H484 0.960 . S
C471 C468 1.511 . S
C471 H485 0.961 . S
C471 H486 0.961 1_455 S
C471 H487 0.959 1_455 S
C472 C473 1.370 . S
C472 C474 1.363 . S
C472 H488 0.931 . S
C473 C472 1.370 . S
C473 C477 1.408 . S
C474 C472 1.363 . S
C474 C475 1.370 . S
C474 C478 1.524 . S
C475 C467 1.503 1_655 S
C475 C474 1.370 . S
C475 C476 1.403 . S
C476 C475 1.403 . S
C476 C477 1.404 . S
C476 C479 1.539 . S
C477 C473 1.408 . S
C477 C476 1.404 . S
C477 H489 0.930 . S
C478 C474 1.524 . S
C478 H490 0.956 1_655 S
C478 H491 0.961 1_655 S
C478 H492 0.961 . S
C479 C476 1.539 . S
C479 H493 0.958 . S
C479 H494 0.961 . S
C479 H495 0.960 . S
H480 C464 0.931 . S
H481 C469 0.929 . S
H482 C470 0.960 . S
H483 C470 0.962 . S
H484 C470 0.960 . S
H485 C471 0.961 . S
H486 C471 0.961 1_655 S
H487 C471 0.959 1_655 S
H488 C472 0.931 . S
H489 C477 0.930 . S
H490 C478 0.956 1_455 S
H491 C478 0.961 1_455 S
H492 C478 0.961 . S
H493 C479 0.958 . S
H494 C479 0.961 . S
H495 C479 0.960 . S
C496 C497 1.391 . S
C496 C498 1.394 . S
C496 H512 0.931 . S
C497 C496 1.391 . S
C497 C501 1.376 . S
C498 C496 1.394 . S
C498 C499 1.369 . S
C498 C502 1.531 . S
C499 C498 1.369 . S
C499 C500 1.410 . S
C499 C507 1.503 1_545 S
C500 C499 1.410 . S
C500 C501 1.392 . S
C500 C503 1.511 . S
C501 C497 1.376 . S
C501 C500 1.392 . S
C501 H513 0.929 . S
C502 C498 1.531 . S
C502 H514 0.960 . S
C502 H515 0.962 . S
C502 H516 0.960 . S
C503 C500 1.511 . S
C503 H517 0.961 . S
C503 H518 0.961 1_545 S
C503 H519 0.961 . S
C504 C505 1.370 . S
C504 C506 1.363 . S
C504 H520 0.931 . S
C505 C504 1.370 . S
C505 C509 1.408 . S
C506 C504 1.363 . S
C506 C507 1.370 . S
C506 C510 1.524 . S
C507 C499 1.503 1_565 S
C507 C506 1.370 . S
C507 C508 1.403 . S
C508 C507 1.403 . S
C508 C509 1.404 . S
C508 C511 1.539 . S
C509 C505 1.408 . S
C509 C508 1.404 . S
C509 H521 0.930 . S
C510 C506 1.524 . S
C510 H522 0.956 . S
C510 H523 0.961 . S
C510 H524 0.961 . S
C511 C508 1.539 . S
C511 H525 0.958 . S
C511 H526 0.961 . S
C511 H527 0.960 1_565 S
H512 C496 0.931 . S
H513 C501 0.929 . S
H514 C502 0.960 . S
H515 C502 0.962 . S
H516 C502 0.960 . S
H517 C503 0.961 . S
H518 C503 0.961 1_565 S
H519 C503 0.961 . S
H520 C504 0.931 . S
H521 C509 0.930 . S
H522 C510 0.956 . S
H523 C510 0.961 . S
H524 C510 0.961 . S
H525 C511 0.958 . S
H526 C511 0.961 . S
H527 C511 0.960 1_545 S
C528 C529 1.391 . S
C528 C530 1.394 . S
C528 H544 0.931 . S
C529 C528 1.391 . S
C529 C533 1.376 . S
C530 C528 1.394 . S
C530 C531 1.369 . S
C530 C534 1.531 . S
C531 C530 1.369 . S
C531 C532 1.410 . S
C531 C539 1.503 . S
C532 C531 1.410 . S
C532 C533 1.392 . S
C532 C535 1.511 . S
C533 C529 1.376 . S
C533 C532 1.392 . S
C533 H545 0.929 . S
C534 C530 1.531 . S
C534 H546 0.960 . S
C534 H547 0.962 . S
C534 H548 0.960 . S
C535 C532 1.511 . S
C535 H549 0.961 . S
C535 H550 0.961 . S
C535 H551 0.961 . S
C536 C537 1.370 . S
C536 C538 1.363 . S
C536 H552 0.931 . S
C537 C536 1.370 . S
C537 C541 1.408 . S
C538 C536 1.363 . S
C538 C539 1.370 . S
C538 C542 1.524 . S
C539 C531 1.503 . S
C539 C538 1.370 . S
C539 C540 1.403 . S
C540 C539 1.403 . S
C540 C541 1.404 . S
C540 C543 1.539 . S
C541 C537 1.408 . S
C541 C540 1.404 . S
C541 H553 0.930 . S
C542 C538 1.524 . S
C542 H554 0.956 . S
C542 H555 0.961 . S
C542 H556 0.961 . S
C543 C540 1.539 . S
C543 H557 0.958 . S
C543 H558 0.961 . S
C543 H559 0.960 . S
H544 C528 0.931 . S
H545 C533 0.929 . S
H546 C534 0.960 . S
H547 C534 0.962 . S
H548 C534 0.960 . S
H549 C535 0.961 . S
H550 C535 0.961 . S
H551 C535 0.961 . S
H552 C536 0.931 . S
H553 C541 0.930 . S
H554 C542 0.956 . S
H555 C542 0.961 . S
H556 C542 0.961 . S
H557 C543 0.958 . S
H558 C543 0.961 . S
H559 C543 0.960 . S
C560 C561 1.391 . S
C560 C562 1.394 . S
C560 H576 0.931 . S
C561 C560 1.391 . S
C561 C565 1.376 . S
C562 C560 1.394 . S
C562 C563 1.369 . S
C562 C566 1.531 . S
C563 C562 1.369 . S
C563 C564 1.410 . S
C563 C571 1.503 . S
C564 C563 1.410 . S
C564 C565 1.392 . S
C564 C567 1.511 . S
C565 C561 1.376 . S
C565 C564 1.392 . S
C565 H577 0.929 . S
C566 C562 1.531 . S
C566 H578 0.960 . S
C566 H579 0.962 . S
C566 H580 0.960 . S
C567 C564 1.511 . S
C567 H581 0.961 . S
C567 H582 0.961 . S
C567 H583 0.961 . S
C568 C569 1.370 . S
C568 C570 1.363 . S
C568 H584 0.931 . S
C569 C568 1.370 . S
C569 C573 1.408 . S
C570 C568 1.363 . S
C570 C571 1.370 . S
C570 C574 1.524 . S
C571 C563 1.503 . S
C571 C570 1.370 . S
C571 C572 1.403 . S
C572 C571 1.403 . S
C572 C573 1.404 . S
C572 C575 1.539 . S
C573 C569 1.408 . S
C573 C572 1.404 . S
C573 H585 0.930 . S
C574 C570 1.524 . S
C574 H586 0.956 . S
C574 H587 0.961 . S
C574 H588 0.961 . S
C575 C572 1.539 . S
C575 H589 0.958 . S
C575 H590 0.961 . S
C575 H591 0.960 . S
H576 C560 0.931 . S
H577 C565 0.929 . S
H578 C566 0.960 . S
H579 C566 0.962 . S
H580 C566 0.960 . S
H581 C567 0.961 . S
H582 C567 0.961 . S
H583 C567 0.961 . S
H584 C568 0.931 . S
H585 C573 0.930 . S
H586 C574 0.956 . S
H587 C574 0.961 . S
H588 C574 0.961 . S
H589 C575 0.958 . S
H590 C575 0.961 . S
H591 C575 0.960 . S
C592 C593 1.391 . S
C592 C594 1.394 . S
C592 H608 0.931 . S
C593 C592 1.391 . S
C593 C597 1.376 . S
C594 C592 1.394 . S
C594 C595 1.369 . S
C594 C598 1.531 . S
C595 C594 1.369 . S
C595 C596 1.410 . S
C595 C603 1.503 . S
C596 C595 1.410 . S
C596 C597 1.392 . S
C596 C599 1.511 . S
C597 C593 1.376 . S
C597 C596 1.392 . S
C597 H609 0.929 . S
C598 C594 1.531 . S
C598 H610 0.960 . S
C598 H611 0.962 . S
C598 H612 0.960 . S
C599 C596 1.511 . S
C599 H613 0.961 . S
C599 H614 0.961 . S
C599 H615 0.961 . S
C600 C601 1.370 . S
C600 C602 1.363 . S
C600 H616 0.931 . S
C601 C600 1.370 . S
C601 C605 1.408 . S
C602 C600 1.363 . S
C602 C603 1.370 . S
C602 C606 1.524 . S
C603 C595 1.503 . S
C603 C602 1.370 . S
C603 C604 1.403 . S
C604 C603 1.403 . S
C604 C605 1.404 . S
C604 C607 1.539 . S
C605 C601 1.408 . S
C605 C604 1.404 . S
C605 H617 0.930 . S
C606 C602 1.524 . S
C606 H618 0.956 . S
C606 H619 0.961 . S
C606 H620 0.961 . S
C607 C604 1.539 . S
C607 H621 0.958 . S
C607 H622 0.961 . S
C607 H623 0.960 . S
H608 C592 0.931 . S
H609 C597 0.929 . S
H610 C598 0.960 . S
H611 C598 0.962 . S
H612 C598 0.960 . S
H613 C599 0.961 . S
H614 C599 0.961 . S
H615 C599 0.961 . S
H616 C600 0.931 . S
H617 C605 0.930 . S
H618 C606 0.956 . S
H619 C606 0.961 . S
H620 C606 0.961 . S
H621 C607 0.958 . S
H622 C607 0.961 . S
H623 C607 0.960 . S
C624 C625 1.391 . S
C624 C626 1.394 . S
C624 H640 0.931 . S
C625 C624 1.391 . S
C625 C629 1.376 . S
C626 C624 1.394 . S
C626 C627 1.369 . S
C626 C630 1.531 . S
C627 C626 1.369 . S
C627 C628 1.410 . S
C627 C635 1.503 . S
C628 C627 1.410 . S
C628 C629 1.392 . S
C628 C631 1.511 . S
C629 C625 1.376 . S
C629 C628 1.392 . S
C629 H641 0.929 . S
C630 C626 1.531 . S
C630 H642 0.960 . S
C630 H643 0.962 . S
C630 H644 0.960 . S
C631 C628 1.511 . S
C631 H645 0.961 . S
C631 H646 0.961 . S
C631 H647 0.961 . S
C632 C633 1.370 . S
C632 C634 1.363 . S
C632 H648 0.931 . S
C633 C632 1.370 . S
C633 C637 1.408 . S
C634 C632 1.363 . S
C634 C635 1.370 . S
C634 C638 1.524 . S
C635 C627 1.503 . S
C635 C634 1.370 . S
C635 C636 1.403 . S
C636 C635 1.403 . S
C636 C637 1.404 . S
C636 C639 1.539 . S
C637 C633 1.408 . S
C637 C636 1.404 . S
C637 H649 0.930 . S
C638 C634 1.524 . S
C638 H650 0.956 . S
C638 H651 0.961 . S
C638 H652 0.961 . S
C639 C636 1.539 . S
C639 H653 0.958 . S
C639 H654 0.961 . S
C639 H655 0.960 . S
H640 C624 0.931 . S
H641 C629 0.929 . S
H642 C630 0.960 . S
H643 C630 0.962 . S
H644 C630 0.960 . S
H645 C631 0.961 . S
H646 C631 0.961 . S
H647 C631 0.961 . S
H648 C632 0.931 . S
H649 C637 0.930 . S
H650 C638 0.956 . S
H651 C638 0.961 . S
H652 C638 0.961 . S
H653 C639 0.958 . S
H654 C639 0.961 . S
H655 C639 0.960 . S
C656 C657 1.391 . S
C656 C658 1.394 . S
C656 H672 0.931 . S
C657 C656 1.391 . S
C657 C661 1.376 . S
C658 C656 1.394 . S
C658 C659 1.369 . S
C658 C662 1.531 . S
C659 C658 1.369 . S
C659 C660 1.410 . S
C659 C667 1.503 . S
C660 C659 1.410 . S
C660 C661 1.392 . S
C660 C663 1.511 . S
C661 C657 1.376 . S
C661 C660 1.392 . S
C661 H673 0.929 . S
C662 C658 1.531 . S
C662 H674 0.960 . S
C662 H675 0.962 . S
C662 H676 0.960 . S
C663 C660 1.511 . S
C663 H677 0.961 . S
C663 H678 0.961 . S
C663 H679 0.961 . S
C664 C665 1.370 . S
C664 C666 1.363 . S
C664 H680 0.931 . S
C665 C664 1.370 . S
C665 C669 1.408 . S
C666 C664 1.363 . S
C666 C667 1.370 . S
C666 C670 1.524 . S
C667 C659 1.503 . S
C667 C666 1.370 . S
C667 C668 1.403 . S
C668 C667 1.403 . S
C668 C669 1.404 . S
C668 C671 1.539 . S
C669 C665 1.408 . S
C669 C668 1.404 . S
C669 H681 0.930 . S
C670 C666 1.524 . S
C670 H682 0.956 . S
C670 H683 0.961 . S
C670 H684 0.961 . S
C671 C668 1.539 . S
C671 H685 0.958 . S
C671 H686 0.961 . S
C671 H687 0.960 . S
H672 C656 0.931 . S
H673 C661 0.929 . S
H674 C662 0.960 . S
H675 C662 0.962 . S
H676 C662 0.960 . S
H677 C663 0.961 . S
H678 C663 0.961 . S
H679 C663 0.961 . S
H680 C664 0.931 . S
H681 C669 0.930 . S
H682 C670 0.956 . S
H683 C670 0.961 . S
H684 C670 0.961 . S
H685 C671 0.958 . S
H686 C671 0.961 . S
H687 C671 0.960 . S
C688 C689 1.391 . S
C688 C690 1.394 . S
C688 H704 0.931 . S
C689 C688 1.391 . S
C689 C693 1.376 . S
C690 C688 1.394 . S
C690 C691 1.369 . S
C690 C694 1.531 . S
C691 C690 1.369 . S
C691 C692 1.410 . S
C691 C699 1.503 . S
C692 C691 1.410 . S
C692 C693 1.392 . S
C692 C695 1.511 . S
C693 C689 1.376 . S
C693 C692 1.392 . S
C693 H705 0.929 . S
C694 C690 1.531 . S
C694 H706 0.960 . S
C694 H707 0.962 . S
C694 H708 0.960 . S
C695 C692 1.511 . S
C695 H709 0.961 . S
C695 H710 0.961 . S
C695 H711 0.961 . S
C696 C697 1.370 . S
C696 C698 1.363 . S
C696 H712 0.931 . S
C697 C696 1.370 . S
C697 C701 1.408 . S
C698 C696 1.363 . S
C698 C699 1.370 . S
C698 C702 1.524 . S
C699 C691 1.503 . S
C699 C698 1.370 . S
C699 C700 1.403 . S
C700 C699 1.403 . S
C700 C701 1.404 . S
C700 C703 1.539 . S
C701 C697 1.408 . S
C701 C700 1.404 . S
C701 H713 0.930 . S
C702 C698 1.524 . S
C702 H714 0.956 . S
C702 H715 0.961 . S
C702 H716 0.961 . S
C703 C700 1.539 . S
C703 H717 0.958 . S
C703 H718 0.961 . S
C703 H719 0.960 . S
H704 C688 0.931 . S
H705 C693 0.929 . S
H706 C694 0.960 . S
H707 C694 0.962 . S
H708 C694 0.960 . S
H709 C695 0.961 . S
H710 C695 0.961 . S
H711 C695 0.961 . S
H712 C696 0.931 . S
H713 C701 0.930 . S
H714 C702 0.956 . S
H715 C702 0.961 . S
H716 C702 0.961 . S
H717 C703 0.958 . S
H718 C703 0.961 . S
H719 C703 0.960 . S
C720 C721 1.391 . S
C720 C722 1.394 . S
C720 H736 0.931 . S
C721 C720 1.391 . S
C721 C725 1.376 . S
C722 C720 1.394 . S
C722 C723 1.369 . S
C722 C726 1.531 . S
C723 C722 1.369 . S
C723 C724 1.410 . S
C723 C731 1.503 . S
C724 C723 1.410 . S
C724 C725 1.392 . S
C724 C727 1.511 . S
C725 C721 1.376 . S
C725 C724 1.392 . S
C725 H737 0.929 . S
C726 C722 1.531 . S
C726 H738 0.960 . S
C726 H739 0.962 . S
C726 H740 0.960 . S
C727 C724 1.511 . S
C727 H741 0.961 . S
C727 H742 0.961 . S
C727 H743 0.961 . S
C728 C729 1.370 . S
C728 C730 1.363 . S
C728 H744 0.931 . S
C729 C728 1.370 . S
C729 C733 1.408 . S
C730 C728 1.363 . S
C730 C731 1.370 . S
C730 C734 1.524 . S
C731 C723 1.503 . S
C731 C730 1.370 . S
C731 C732 1.403 . S
C732 C731 1.403 . S
C732 C733 1.404 . S
C732 C735 1.539 . S
C733 C729 1.408 . S
C733 C732 1.404 . S
C733 H745 0.930 . S
C734 C730 1.524 . S
C734 H746 0.956 . S
C734 H747 0.961 . S
C734 H748 0.961 . S
C735 C732 1.539 . S
C735 H749 0.958 . S
C735 H750 0.961 . S
C735 H751 0.960 . S
H736 C720 0.931 . S
H737 C725 0.929 . S
H738 C726 0.960 . S
H739 C726 0.962 . S
H740 C726 0.960 . S
H741 C727 0.961 . S
H742 C727 0.961 . S
H743 C727 0.961 . S
H744 C728 0.931 . S
H745 C733 0.930 . S
H746 C734 0.956 . S
H747 C734 0.961 . S
H748 C734 0.961 . S
H749 C735 0.958 . S
H750 C735 0.961 . S
H751 C735 0.960 . S
C752 C753 1.391 . S
C752 C754 1.394 . S
C752 H768 0.931 . S
C753 C752 1.391 . S
C753 C757 1.376 . S
C754 C752 1.394 . S
C754 C755 1.369 . S
C754 C758 1.531 . S
C755 C754 1.369 . S
C755 C756 1.410 . S
C755 C763 1.503 . S
C756 C755 1.410 . S
C756 C757 1.392 . S
C756 C759 1.511 . S
C757 C753 1.376 . S
C757 C756 1.392 . S
C757 H769 0.929 . S
C758 C754 1.531 . S
C758 H770 0.960 . S
C758 H771 0.962 . S
C758 H772 0.960 . S
C759 C756 1.511 . S
C759 H773 0.961 . S
C759 H774 0.961 . S
C759 H775 0.961 . S
C760 C761 1.370 . S
C760 C762 1.363 . S
C760 H776 0.931 . S
C761 C760 1.370 . S
C761 C765 1.408 . S
C762 C760 1.363 . S
C762 C763 1.370 . S
C762 C766 1.524 . S
C763 C755 1.503 . S
C763 C762 1.370 . S
C763 C764 1.403 . S
C764 C763 1.403 . S
C764 C765 1.404 . S
C764 C767 1.539 . S
C765 C761 1.408 . S
C765 C764 1.404 . S
C765 H777 0.930 . S
C766 C762 1.524 . S
C766 H778 0.956 . S
C766 H779 0.961 . S
C766 H780 0.961 . S
C767 C764 1.539 . S
C767 H781 0.958 . S
C767 H782 0.961 . S
C767 H783 0.960 . S
H768 C752 0.931 . S
H769 C757 0.929 . S
H770 C758 0.960 . S
H771 C758 0.962 . S
H772 C758 0.960 . S
H773 C759 0.961 . S
H774 C759 0.961 . S
H775 C759 0.961 . S
H776 C760 0.931 . S
H777 C765 0.930 . S
H778 C766 0.956 . S
H779 C766 0.961 . S
H780 C766 0.961 . S
H781 C767 0.958 . S
H782 C767 0.961 . S
H783 C767 0.960 . S
C784 C785 1.391 . S
C784 C786 1.394 . S
C784 H800 0.931 . S
C785 C784 1.391 . S
C785 C789 1.376 . S
C786 C784 1.394 . S
C786 C787 1.369 . S
C786 C790 1.531 . S
C787 C786 1.369 . S
C787 C788 1.410 . S
C787 C795 1.503 . S
C788 C787 1.410 . S
C788 C789 1.392 . S
C788 C791 1.511 . S
C789 C785 1.376 . S
C789 C788 1.392 . S
C789 H801 0.929 . S
C790 C786 1.531 . S
C790 H802 0.960 . S
C790 H803 0.962 . S
C790 H804 0.960 . S
C791 C788 1.511 . S
C791 H805 0.961 . S
C791 H806 0.961 . S
C791 H807 0.961 . S
C792 C793 1.370 . S
C792 C794 1.363 . S
C792 H808 0.931 . S
C793 C792 1.370 . S
C793 C797 1.408 . S
C794 C792 1.363 . S
C794 C795 1.370 . S
C794 C798 1.524 . S
C795 C787 1.503 . S
C795 C794 1.370 . S
C795 C796 1.403 . S
C796 C795 1.403 . S
C796 C797 1.404 . S
C796 C799 1.539 . S
C797 C793 1.408 . S
C797 C796 1.404 . S
C797 H809 0.930 . S
C798 C794 1.524 . S
C798 H810 0.956 . S
C798 H811 0.961 . S
C798 H812 0.961 . S
C799 C796 1.539 . S
C799 H813 0.958 . S
C799 H814 0.961 . S
C799 H815 0.960 . S
H800 C784 0.931 . S
H801 C789 0.929 . S
H802 C790 0.960 . S
H803 C790 0.962 . S
H804 C790 0.960 . S
H805 C791 0.961 . S
H806 C791 0.961 . S
H807 C791 0.961 . S
H808 C792 0.931 . S
H809 C797 0.930 . S
H810 C798 0.956 . S
H811 C798 0.961 . S
H812 C798 0.961 . S
H813 C799 0.958 . S
H814 C799 0.961 . S
H815 C799 0.960 . S
C816 C817 1.391 . S
C816 C818 1.394 . S
C816 H832 0.931 . S
C817 C816 1.391 . S
C817 C821 1.376 . S
C818 C816 1.394 . S
C818 C819 1.369 . S
C818 C822 1.531 . S
C819 C818 1.369 . S
C819 C820 1.410 . S
C819 C827 1.503 . S
C820 C819 1.410 . S
C820 C821 1.392 . S
C820 C823 1.511 . S
C821 C817 1.376 . S
C821 C820 1.392 . S
C821 H833 0.929 . S
C822 C818 1.531 . S
C822 H834 0.960 . S
C822 H835 0.962 . S
C822 H836 0.960 . S
C823 C820 1.511 . S
C823 H837 0.961 . S
C823 H838 0.961 . S
C823 H839 0.961 . S
C824 C825 1.370 . S
C824 C826 1.363 . S
C824 H840 0.931 . S
C825 C824 1.370 . S
C825 C829 1.408 . S
C826 C824 1.363 . S
C826 C827 1.370 . S
C826 C830 1.524 . S
C827 C819 1.503 . S
C827 C826 1.370 . S
C827 C828 1.403 . S
C828 C827 1.403 . S
C828 C829 1.404 . S
C828 C831 1.539 . S
C829 C825 1.408 . S
C829 C828 1.404 . S
C829 H841 0.930 . S
C830 C826 1.524 . S
C830 H842 0.956 . S
C830 H843 0.961 . S
C830 H844 0.961 . S
C831 C828 1.539 . S
C831 H845 0.958 . S
C831 H846 0.961 . S
C831 H847 0.960 . S
H832 C816 0.931 . S
H833 C821 0.929 . S
H834 C822 0.960 . S
H835 C822 0.962 . S
H836 C822 0.960 . S
H837 C823 0.961 . S
H838 C823 0.961 . S
H839 C823 0.961 . S
H840 C824 0.931 . S
H841 C829 0.930 . S
H842 C830 0.956 . S
H843 C830 0.961 . S
H844 C830 0.961 . S
H845 C831 0.958 . S
H846 C831 0.961 . S
H847 C831 0.960 . S
C848 C849 1.391 . S
C848 C850 1.394 . S
C848 H864 0.931 . S
C849 C848 1.391 . S
C849 C853 1.376 . S
C850 C848 1.394 . S
C850 C851 1.369 . S
C850 C854 1.531 . S
C851 C850 1.369 . S
C851 C852 1.410 . S
C851 C859 1.503 . S
C852 C851 1.410 . S
C852 C853 1.392 . S
C852 C855 1.511 . S
C853 C849 1.376 . S
C853 C852 1.392 . S
C853 H865 0.929 . S
C854 C850 1.531 . S
C854 H866 0.960 . S
C854 H867 0.962 . S
C854 H868 0.960 . S
C855 C852 1.511 . S
C855 H869 0.961 . S
C855 H870 0.961 . S
C855 H871 0.961 . S
C856 C857 1.370 . S
C856 C858 1.363 . S
C856 H872 0.931 . S
C857 C856 1.370 . S
C857 C861 1.408 . S
C858 C856 1.363 . S
C858 C859 1.370 . S
C858 C862 1.524 . S
C859 C851 1.503 . S
C859 C858 1.370 . S
C859 C860 1.403 . S
C860 C859 1.403 . S
C860 C861 1.404 . S
C860 C863 1.539 . S
C861 C857 1.408 . S
C861 C860 1.404 . S
C861 H873 0.930 . S
C862 C858 1.524 . S
C862 H874 0.956 . S
C862 H875 0.961 . S
C862 H876 0.961 . S
C863 C860 1.539 . S
C863 H877 0.958 . S
C863 H878 0.961 . S
C863 H879 0.960 . S
H864 C848 0.931 . S
H865 C853 0.929 . S
H866 C854 0.960 . S
H867 C854 0.962 . S
H868 C854 0.960 . S
H869 C855 0.961 . S
H870 C855 0.961 . S
H871 C855 0.961 . S
H872 C856 0.931 . S
H873 C861 0.930 . S
H874 C862 0.956 . S
H875 C862 0.961 . S
H876 C862 0.961 . S
H877 C863 0.958 . S
H878 C863 0.961 . S
H879 C863 0.960 . S
C880 C881 1.391 . S
C880 C882 1.394 . S
C880 H896 0.931 . S
C881 C880 1.391 . S
C881 C885 1.376 . S
C882 C880 1.394 . S
C882 C883 1.369 . S
C882 C886 1.531 . S
C883 C882 1.369 . S
C883 C884 1.410 . S
C883 C891 1.503 . S
C884 C883 1.410 . S
C884 C885 1.392 . S
C884 C887 1.511 . S
C885 C881 1.376 . S
C885 C884 1.392 . S
C885 H897 0.929 . S
C886 C882 1.531 . S
C886 H898 0.960 . S
C886 H899 0.962 . S
C886 H900 0.960 . S
C887 C884 1.511 . S
C887 H901 0.961 . S
C887 H902 0.961 . S
C887 H903 0.961 . S
C888 C889 1.370 . S
C888 C890 1.363 . S
C888 H904 0.931 . S
C889 C888 1.370 . S
C889 C893 1.408 . S
C890 C888 1.363 . S
C890 C891 1.370 . S
C890 C894 1.524 . S
C891 C883 1.503 . S
C891 C890 1.370 . S
C891 C892 1.403 . S
C892 C891 1.403 . S
C892 C893 1.404 . S
C892 C895 1.539 . S
C893 C889 1.408 . S
C893 C892 1.404 . S
C893 H905 0.930 . S
C894 C890 1.524 . S
C894 H906 0.956 . S
C894 H907 0.961 . S
C894 H908 0.961 . S
C895 C892 1.539 . S
C895 H909 0.958 . S
C895 H910 0.961 . S
C895 H911 0.960 . S
H896 C880 0.931 . S
H897 C885 0.929 . S
H898 C886 0.960 . S
H899 C886 0.962 . S
H900 C886 0.960 . S
H901 C887 0.961 . S
H902 C887 0.961 . S
H903 C887 0.961 . S
H904 C888 0.931 . S
H905 C893 0.930 . S
H906 C894 0.956 . S
H907 C894 0.961 . S
H908 C894 0.961 . S
H909 C895 0.958 . S
H910 C895 0.961 . S
H911 C895 0.960 . S
C273 C141 1.246 . S
C281 C5 1.233 . S
C305 C39 1.270 . S
C313 C175 1.246 . S
C337 C73 1.240 . S
C345 C209 1.256 . S
C369 C107 1.270 . S
C377 C243 1.248 . S
C401 C20 1.158 . S
C409 C224 1.170 . S
C433 C54 1.157 . S
C441 C258 1.184 . S
C465 C156 1.170 . S
C473 C88 1.187 . S
C497 C190 1.195 . S
C505 C122 1.172 . S
C529 C240 0.851 . S
C537 C2 0.886 . S
C561 C36 0.862 . S
C569 C138 0.880 . S
C593 C172 0.867 . S
C601 C70 0.884 . S
C625 C206 0.860 . S
C633 C104 0.880 . S
C657 C33 1.367 . S
C665 C43 1.384 . S
C689 C67 1.387 . S
C697 C77 1.393 . S
C721 C111 1.375 . S
C729 C101 1.391 . S
C753 C9 1.398 . S
C761 C135 1.399 . S
C785 C169 1.412 . S
C793 C247 1.397 . S
C817 C145 1.366 . S
C825 C203 1.386 . S
C849 C237 1.409 . S
C857 C179 1.394 . S
C881 C271 1.362 . S
C889 C213 1.381 . S
