# Generated by pormake.
# Topology wjy, (5)-cn, num edge types: 1
# Building blocks:
#     Node 0, Type 0, BuildingBlock: XOMCOT_clean_sbu_0, # of connection points: 5
#     Node 1, Type 0, BuildingBlock: XOMCOT_clean_sbu_0, # of connection points: 5
#     Node 2, Type 0, BuildingBlock: XOMCOT_clean_sbu_0, # of connection points: 5
#     Node 3, Type 0, BuildingBlock: XOMCOT_clean_sbu_0, # of connection points: 5
#     Node 4, Type 0, BuildingBlock: XOMCOT_clean_sbu_0, # of connection points: 5
#     Node 5, Type 0, BuildingBlock: XOMCOT_clean_sbu_0, # of connection points: 5
#     Node 6, Type 0, BuildingBlock: XOMCOT_clean_sbu_0, # of connection points: 5
#     Node 7, Type 0, BuildingBlock: XOMCOT_clean_sbu_0, # of connection points: 5
#     Node 8, Type 0, BuildingBlock: XOMCOT_clean_sbu_0, # of connection points: 5
#     Node 9, Type 0, BuildingBlock: XOMCOT_clean_sbu_0, # of connection points: 5
#     Node 10, Type 0, BuildingBlock: XOMCOT_clean_sbu_0, # of connection points: 5
#     Node 11, Type 0, BuildingBlock: XOMCOT_clean_sbu_0, # of connection points: 5
#     Edge 12, Type (0, 0), BuildingBlock: XIVTED_clean_linker_0, # of connection points: 2
#     Edge 13, Type (0, 0), BuildingBlock: XIVTED_clean_linker_0, # of connection points: 2
#     Edge 14, Type (0, 0), BuildingBlock: XIVTED_clean_linker_0, # of connection points: 2
#     Edge 15, Type (0, 0), BuildingBlock: XIVTED_clean_linker_0, # of connection points: 2
#     Edge 16, Type (0, 0), BuildingBlock: XIVTED_clean_linker_0, # of connection points: 2
#     Edge 17, Type (0, 0), BuildingBlock: XIVTED_clean_linker_0, # of connection points: 2
#     Edge 18, Type (0, 0), BuildingBlock: XIVTED_clean_linker_0, # of connection points: 2
#     Edge 19, Type (0, 0), BuildingBlock: XIVTED_clean_linker_0, # of connection points: 2
#     Edge 20, Type (0, 0), BuildingBlock: XIVTED_clean_linker_0, # of connection points: 2
#     Edge 21, Type (0, 0), BuildingBlock: XIVTED_clean_linker_0, # of connection points: 2
#     Edge 22, Type (0, 0), BuildingBlock: XIVTED_clean_linker_0, # of connection points: 2
#     Edge 23, Type (0, 0), BuildingBlock: XIVTED_clean_linker_0, # of connection points: 2
#     Edge 24, Type (0, 0), BuildingBlock: XIVTED_clean_linker_0, # of connection points: 2
#     Edge 25, Type (0, 0), BuildingBlock: XIVTED_clean_linker_0, # of connection points: 2
#     Edge 26, Type (0, 0), BuildingBlock: XIVTED_clean_linker_0, # of connection points: 2
#     Edge 27, Type (0, 0), BuildingBlock: XIVTED_clean_linker_0, # of connection points: 2
#     Edge 28, Type (0, 0), BuildingBlock: XIVTED_clean_linker_0, # of connection points: 2
#     Edge 29, Type (0, 0), BuildingBlock: XIVTED_clean_linker_0, # of connection points: 2
#     Edge 30, Type (0, 0), BuildingBlock: XIVTED_clean_linker_0, # of connection points: 2
#     Edge 31, Type (0, 0), BuildingBlock: XIVTED_clean_linker_0, # of connection points: 2
#     Edge 32, Type (0, 0), BuildingBlock: XIVTED_clean_linker_0, # of connection points: 2
#     Edge 33, Type (0, 0), BuildingBlock: XIVTED_clean_linker_0, # of connection points: 2
#     Edge 34, Type (0, 0), BuildingBlock: XIVTED_clean_linker_0, # of connection points: 2
#     Edge 35, Type (0, 0), BuildingBlock: XIVTED_clean_linker_0, # of connection points: 2
#     Edge 36, Type (0, 0), BuildingBlock: XIVTED_clean_linker_0, # of connection points: 2
#     Edge 37, Type (0, 0), BuildingBlock: XIVTED_clean_linker_0, # of connection points: 2
#     Edge 38, Type (0, 0), BuildingBlock: XIVTED_clean_linker_0, # of connection points: 2
#     Edge 39, Type (0, 0), BuildingBlock: XIVTED_clean_linker_0, # of connection points: 2
#     Edge 40, Type (0, 0), BuildingBlock: XIVTED_clean_linker_0, # of connection points: 2
#     Edge 41, Type (0, 0), BuildingBlock: XIVTED_clean_linker_0, # of connection points: 2
# Relax obj value: 0.079
# Max RMSD: 0.164
# Mean RMSD: 0.164
data_MOF--net-wjy--node1-XOMCOT_clean_sbu_0--edge1-XIVTED_clean_linker_0
_symmetry_space_group_name_H-M    P1
_symmetry_Int_Tables_number       1
_symmetry_cell_setting            triclinic
loop_
_symmetry_equiv_pos_as_xyz
'x, y, z'
_cell_length_a     76.120423
_cell_length_b     76.135302
_cell_length_c     17.754917
_cell_angle_alpha  89.985464
_cell_angle_beta   90.019117
_cell_angle_gamma 120.09578
loop_
_atom_site_label
_atom_site_type_symbol
_atom_site_fract_x
_atom_site_fract_y
_atom_site_fract_z
_atom_type_partial_charge
Co0 Co 0.46859 0.10425 0.11412 0.0
C1 C 0.47146 0.106 0.94834 0.0
C2 C 0.4962 0.10428 0.99879 0.0
C3 C 0.49811 0.10428 0.92171 0.0
N4 N 0.47958 0.10549 0.01521 0.0
N5 N 0.48252 0.10529 0.89005 0.0
H6 H 0.45765 0.10666 0.94274 0.0
H7 H 0.50589 0.10285 0.0399 0.0
C8 C 0.50591 0.13381 0.2027 0.0
O9 O 0.49597 0.14164 0.23586 0.0
N10 N 0.45742 0.10239 0.21441 0.0
C11 C 0.43907 0.09981 0.23287 0.0
C12 C 0.43679 0.09812 0.30978 0.0
C13 C 0.46549 0.10107 0.28055 0.0
N14 N 0.45349 0.09906 0.33987 0.0
C15 C 0.45063 0.12928 0.08769 0.0
C16 C 0.48685 0.16523 0.06898 0.0
C17 C 0.46879 0.16581 0.07318 0.0
C18 C 0.45041 0.14743 0.0796 0.0
C19 C 0.48631 0.14673 0.07655 0.0
N20 N 0.46853 0.12931 0.09224 0.0
H21 H 0.43639 0.11524 0.0899 0.0
H22 H 0.50032 0.14654 0.07037 0.0
H23 H 0.4276 0.09842 0.19389 0.0
H24 H 0.47969 0.10115 0.28514 0.0
O25 O 0.44182 0.08426 0.07755 0.0
O26 O 0.4646 0.07749 0.12657 0.0
O27 O 0.49714 0.11947 0.15473 0.0
C28 C 0.44686 0.07078 0.09589 0.0
H29 H 0.50967 0.10284 0.89142 0.0
H30 H 0.4238 0.0964 0.34094 0.0
H31 H 0.50129 0.17895 0.05988 0.0
H32 H 0.43601 0.14708 0.08023 0.0
Co33 Co 0.35106 0.4534 0.28556 0.0
C34 C 0.35311 0.4561 0.11971 0.0
C35 C 0.38143 0.47763 0.17075 0.0
C36 C 0.3837 0.4792 0.09366 0.0
N37 N 0.36224 0.46325 0.18681 0.0
N38 N 0.3659 0.46561 0.0616 0.0
H39 H 0.33751 0.44406 0.11382 0.0
H40 H 0.39313 0.48595 0.21212 0.0
C41 C 0.36481 0.49203 0.37505 0.0
O42 O 0.347 0.48436 0.40798 0.0
N43 N 0.34021 0.44333 0.38562 0.0
C44 C 0.32169 0.42791 0.40467 0.0
C45 C 0.32073 0.42559 0.48166 0.0
C46 C 0.35049 0.44954 0.4514 0.0
N47 N 0.33881 0.43931 0.51114 0.0
C48 C 0.30977 0.44089 0.24798 0.0
C49 C 0.31447 0.47922 0.23886 0.0
C50 C 0.29494 0.46226 0.23394 0.0
C51 C 0.29277 0.4429 0.23563 0.0
C52 C 0.33111 0.47647 0.24967 0.0
N53 N 0.32842 0.45749 0.26057 0.0
H54 H 0.30783 0.42586 0.24778 0.0
H55 H 0.34609 0.48968 0.24919 0.0
H56 H 0.30967 0.41854 0.36621 0.0
H57 H 0.36627 0.46128 0.45535 0.0
O58 O 0.3402 0.42588 0.24955 0.0
O59 O 0.37062 0.44476 0.30119 0.0
O60 O 0.36815 0.4818 0.32585 0.0
C61 C 0.35747 0.42774 0.26989 0.0
H62 H 0.39761 0.48907 0.06372 0.0
H63 H 0.30757 0.41479 0.51338 0.0
H64 H 0.31684 0.49445 0.23409 0.0
H65 H 0.27799 0.42941 0.22964 0.0
Co66 Co 0.89775 0.35584 0.48411 0.0
C67 C 0.89479 0.3569 0.31572 0.0
C68 C 0.89824 0.38367 0.36896 0.0
C69 C 0.89849 0.38624 0.29228 0.0
N70 N 0.89543 0.36506 0.38408 0.0
N71 N 0.89637 0.36941 0.25865 0.0
H72 H 0.89456 0.3428 0.30724 0.0
H73 H 0.90061 0.39492 0.41103 0.0
C74 C 0.86612 0.36794 0.49907 0.0
O75 O 0.85793 0.3584 0.43573 0.0
N76 N 0.90065 0.34728 0.5834 0.0
C77 C 0.90233 0.33091 0.59967 0.0
C78 C 0.90262 0.3291 0.67674 0.0
C79 C 0.90008 0.35531 0.65046 0.0
N80 N 0.90115 0.34441 0.70866 0.0
C81 C 0.87419 0.31556 0.42136 0.0
C82 C 0.84066 0.30365 0.51245 0.0
C83 C 0.84033 0.28988 0.45944 0.0
C84 C 0.85746 0.29598 0.41378 0.0
C85 C 0.8576 0.32301 0.51784 0.0
N86 N 0.87375 0.32919 0.47017 0.0
H87 H 0.88779 0.31942 0.39013 0.0
H88 H 0.85787 0.33276 0.5624 0.0
H89 H 0.9029 0.32078 0.55831 0.0
H90 H 0.89831 0.36848 0.6565 0.0
O91 O 0.91874 0.35074 0.44636 0.0
O92 O 0.92377 0.37987 0.49368 0.0
O93 O 0.88133 0.36753 0.52747 0.0
C94 C 0.93138 0.36969 0.46286 0.0
H95 H 0.90046 0.39967 0.26378 0.0
H96 H 0.9038 0.31738 0.70685 0.0
H97 H 0.82794 0.29952 0.54989 0.0
H98 H 0.85819 0.28552 0.37432 0.0
Co99 Co 0.5249 0.89062 0.58684 0.0
C100 C 0.522 0.88967 0.42061 0.0
C101 C 0.49725 0.89103 0.47259 0.0
C102 C 0.4953 0.89144 0.39563 0.0
N103 N 0.51393 0.88985 0.48805 0.0
N104 N 0.51091 0.89066 0.36283 0.0
H105 H 0.53603 0.88946 0.41433 0.0
H106 H 0.4874 0.89196 0.51432 0.0
C107 C 0.48768 0.86086 0.67523 0.0
O108 O 0.49775 0.85315 0.70827 0.0
N109 N 0.5361 0.89196 0.68701 0.0
C110 C 0.55425 0.89385 0.70405 0.0
C111 C 0.55672 0.895 0.78087 0.0
C112 C 0.52835 0.89316 0.75422 0.0
N113 N 0.54034 0.89436 0.81264 0.0
C114 C 0.54323 0.86626 0.55474 0.0
C115 C 0.50731 0.82974 0.54246 0.0
C116 C 0.52567 0.82972 0.54391 0.0
C117 C 0.54386 0.84834 0.5465 0.0
C118 C 0.50745 0.84806 0.54941 0.0
N119 N 0.52515 0.86577 0.56269 0.0
H120 H 0.55731 0.88051 0.55505 0.0
H121 H 0.49321 0.84785 0.54514 0.0
H122 H 0.56549 0.89516 0.66415 0.0
H123 H 0.51413 0.89298 0.76034 0.0
O124 O 0.55165 0.91073 0.55123 0.0
O125 O 0.52892 0.91736 0.60153 0.0
O126 O 0.49631 0.87518 0.62712 0.0
C127 C 0.54671 0.92416 0.57113 0.0
H128 H 0.4833 0.89231 0.36634 0.0
H129 H 0.56986 0.89667 0.81081 0.0
H130 H 0.49297 0.81572 0.53646 0.0
H131 H 0.5584 0.849 0.54471 0.0
Co132 Co 0.6366 0.53817 0.77327 0.0
C133 C 0.63488 0.53549 0.60747 0.0
C134 C 0.60702 0.51284 0.65807 0.0
C135 C 0.6049 0.51113 0.58097 0.0
N136 N 0.62583 0.52803 0.6744 0.0
N137 N 0.62241 0.52542 0.54922 0.0
H138 H 0.65021 0.54812 0.60178 0.0
H139 H 0.59545 0.50395 0.69922 0.0
C140 C 0.62239 0.49874 0.8609 0.0
O141 O 0.64015 0.5052 0.89304 0.0
N142 N 0.6471 0.54843 0.8734 0.0
C143 C 0.66491 0.56497 0.89196 0.0
C144 C 0.66595 0.5672 0.96895 0.0
C145 C 0.63724 0.54137 0.93953 0.0
N146 N 0.64858 0.55227 0.99894 0.0
C147 C 0.67821 0.55186 0.73968 0.0
C148 C 0.67536 0.51429 0.73473 0.0
C149 C 0.69468 0.53178 0.73359 0.0
C150 C 0.69581 0.55072 0.73213 0.0
C151 C 0.65805 0.51619 0.74099 0.0
N152 N 0.65981 0.53482 0.75038 0.0
H153 H 0.67952 0.56661 0.73768 0.0
H154 H 0.64334 0.50262 0.73936 0.0
H155 H 0.6763 0.57521 0.853 0.0
H156 H 0.6219 0.52874 0.94401 0.0
O157 O 0.64699 0.5656 0.73673 0.0
O158 O 0.61654 0.54622 0.78729 0.0
O159 O 0.61968 0.50979 0.8136 0.0
C160 C 0.62952 0.56337 0.75635 0.0
H161 H 0.59128 0.50062 0.55077 0.0
H162 H 0.67864 0.57886 1.00027 0.0
H163 H 0.67356 0.49926 0.7331 0.0
H164 H 0.71021 0.56465 0.7261 0.0
Co165 Co 0.09564 0.64338 0.94444 0.0
C166 C 0.09784 0.64217 0.7786 0.0
C167 C 0.09379 0.61481 0.82957 0.0
C168 C 0.09357 0.61271 0.75255 0.0
N169 N 0.09657 0.63329 0.8457 0.0
N170 N 0.09601 0.62988 0.72038 0.0
H171 H 0.09923 0.65696 0.77287 0.0
H172 H 0.09141 0.60339 0.87082 0.0
C173 C 0.1235 0.63319 0.03341 0.0
O174 O 0.13258 0.65112 0.06591 0.0
N175 N 0.0941 0.65309 0.04458 0.0
C176 C 0.09206 0.66924 0.06202 0.0
C177 C 0.09083 0.67039 0.13892 0.0
C178 C 0.09282 0.644 0.11149 0.0
N179 N 0.09148 0.6546 0.17012 0.0
C180 C 0.12245 0.68608 0.92059 0.0
C181 C 0.15773 0.68445 0.90662 0.0
C182 C 0.15913 0.70348 0.91335 0.0
C183 C 0.14105 0.70412 0.91669 0.0
C184 C 0.13873 0.66678 0.9102 0.0
N185 N 0.1216 0.66778 0.92412 0.0
H186 H 0.10875 0.6869 0.92101 0.0
H187 H 0.13793 0.6523 0.90371 0.0
H188 H 0.09066 0.67917 0.02231 0.0
H189 H 0.09288 0.62991 0.11734 0.0
O190 O 0.07737 0.65194 0.90538 0.0
O191 O 0.06799 0.62178 0.9557 0.0
O192 O 0.10914 0.62845 0.98618 0.0
C193 C 0.06282 0.63388 0.92365 0.0
H194 H 0.09152 0.59941 0.72281 0.0
H195 H 0.08906 0.68173 0.16932 0.0
H196 H 0.17118 0.68311 0.90135 0.0
H197 H 0.14124 0.71844 0.91698 0.0
Co198 Co 0.88857 0.53123 0.72597 0.0
C199 C 0.88678 0.52747 0.89442 0.0
C200 C 0.89377 0.50651 0.84116 0.0
C201 C 0.89465 0.5046 0.91791 0.0
N202 N 0.88823 0.52045 0.82604 0.0
N203 N 0.89031 0.51785 0.95139 0.0
H204 H 0.88416 0.53995 0.90307 0.0
H205 H 0.89772 0.49881 0.79912 0.0
C206 C 0.86281 0.48643 0.70906 0.0
O207 O 0.85332 0.48636 0.77098 0.0
N208 N 0.88966 0.54208 0.62669 0.0
C209 C 0.88762 0.55819 0.60977 0.0
C210 C 0.88843 0.56048 0.5327 0.0
C211 C 0.89177 0.53481 0.56009 0.0
N212 N 0.89101 0.54575 0.5014 0.0
C213 C 0.85869 0.53981 0.78851 0.0
C214 C 0.82791 0.51567 0.68959 0.0
C215 C 0.82424 0.52682 0.74383 0.0
C216 C 0.84 0.53903 0.79377 0.0
C217 C 0.84673 0.51672 0.68696 0.0
N218 N 0.86164 0.52803 0.73801 0.0
H219 H 0.87105 0.55073 0.82251 0.0
H220 H 0.84952 0.50909 0.64131 0.0
H221 H 0.88527 0.56736 0.6506 0.0
H222 H 0.89381 0.52179 0.55486 0.0
O223 O 0.90503 0.55842 0.76538 0.0
O224 O 0.91687 0.53935 0.71814 0.0
O225 O 0.87692 0.50313 0.68186 0.0
C226 C 0.92056 0.55632 0.7493 0.0
H227 H 0.89914 0.49494 0.94665 0.0
H228 H 0.88667 0.57181 0.50217 0.0
H229 H 0.81666 0.50683 0.64728 0.0
H230 H 0.83814 0.54828 0.83574 0.0
Co231 Co 0.35879 0.89051 0.92883 0.0
C232 C 0.36009 0.88866 0.09515 0.0
C233 C 0.38508 0.88774 0.04328 0.0
C234 C 0.38726 0.88777 0.12019 0.0
N235 N 0.36803 0.88821 0.02772 0.0
N236 N 0.3716 0.88846 0.15296 0.0
H237 H 0.34658 0.88985 0.10138 0.0
H238 H 0.39553 0.88789 1.00168 0.0
C239 C 0.36435 0.85951 0.84052 0.0
O240 O 0.34656 0.85229 0.80784 0.0
N241 N 0.35002 0.89348 0.82848 0.0
C242 C 0.33588 0.89862 0.81169 0.0
C243 C 0.33475 0.90001 0.73489 0.0
C244 C 0.35816 0.89313 0.76105 0.0
N245 N 0.34865 0.89638 0.7029 0.0
C246 C 0.31535 0.86711 0.94932 0.0
C247 C 0.31339 0.83022 0.97043 0.0
C248 C 0.29528 0.83056 0.96124 0.0
C249 C 0.29639 0.84943 0.95381 0.0
C250 C 0.33198 0.84829 0.96598 0.0
N251 N 0.33278 0.86619 0.94907 0.0
H252 H 0.31592 0.88148 0.94576 0.0
H253 H 0.34575 0.84776 0.97451 0.0
H254 H 0.32749 0.90216 0.85187 0.0
H255 H 0.37086 0.89066 0.75443 0.0
O256 O 0.35346 0.91133 0.96675 0.0
O257 O 0.38257 0.9167 0.91784 0.0
O258 O 0.37075 0.87414 0.88748 0.0
C259 C 0.37225 0.92416 0.94883 0.0
H260 H 0.39957 0.88746 0.14944 0.0
H261 H 0.32484 0.90401 0.7051 0.0
H262 H 0.31323 0.8161 0.9803 0.0
H263 H 0.2828 0.85053 0.94911 0.0
Co264 Co 0.45548 0.3526 0.07116 0.0
C265 C 0.45984 0.35207 0.23608 0.0
C266 C 0.4821 0.38049 0.18779 0.0
C267 C 0.48415 0.38186 0.26485 0.0
N268 N 0.46692 0.3618 0.16998 0.0
N269 N 0.47009 0.36402 0.2953 0.0
H270 H 0.44713 0.33676 0.24041 0.0
H271 H 0.49051 0.39258 0.14783 0.0
C272 C 0.49659 0.3682 0.99094 0.0
O273 O 0.49281 0.35027 0.96763 0.0
N274 N 0.44378 0.3438 0.97069 0.0
C275 C 0.42405 0.33107 0.95368 0.0
C276 C 0.42173 0.32967 0.87676 0.0
C277 C 0.45296 0.35045 0.90315 0.0
N278 N 0.43996 0.34183 0.84488 0.0
C279 C 0.44245 0.3104 0.06941 0.0
C280 C 0.47918 0.31363 0.10694 0.0
C281 C 0.46283 0.29454 0.0869 0.0
C282 C 0.4441 0.29302 0.07082 0.0
C283 C 0.47677 0.33071 0.10547 0.0
N284 N 0.45893 0.32909 0.08184 0.0
H285 H 0.42781 0.30876 0.05832 0.0
H286 H 0.48945 0.34534 0.12083 0.0
H287 H 0.41191 0.32349 0.99408 0.0
H288 H 0.46869 0.36167 0.8961 0.0
O289 O 0.42865 0.34139 0.11474 0.0
O290 O 0.44723 0.37268 0.06932 0.0
O291 O 0.48339 0.37036 0.02778 0.0
C292 C 0.43058 0.3591 0.10161 0.0
H293 H 0.49454 0.39535 0.29594 0.0
H294 H 0.40756 0.32076 0.84695 0.0
H295 H 0.49384 0.31551 0.12145 0.0
H296 H 0.43073 0.27849 0.05926 0.0
Co297 Co 0.10574 0.47102 0.2363 0.0
C298 C 0.10911 0.47498 0.40439 0.0
C299 C 0.10675 0.49905 0.35241 0.0
C300 C 0.10654 0.50119 0.42921 0.0
N301 N 0.10906 0.48299 0.3363 0.0
N302 N 0.10797 0.486 0.46197 0.0
H303 H 0.10873 0.46077 0.41224 0.0
H304 H 0.10417 0.50798 0.31124 0.0
C305 C 0.13427 0.5154 0.21024 0.0
O306 O 0.14523 0.51556 0.26773 0.0
N307 N 0.10173 0.45903 0.1373 0.0
C308 C 0.10111 0.44149 0.12051 0.0
C309 C 0.09977 0.43899 0.04352 0.0
C310 C 0.10069 0.46696 0.07058 0.0
N311 N 0.09959 0.45506 0.01204 0.0
C312 C 0.13474 0.46041 0.29369 0.0
C313 C 0.16379 0.48094 0.18425 0.0
C314 C 0.16767 0.47041 0.24022 0.0
C315 C 0.15288 0.45999 0.2954 0.0
C316 C 0.14564 0.48126 0.18545 0.0
N317 N 0.13165 0.47172 0.24136 0.0
H318 H 0.12289 0.45087 0.3323 0.0
H319 H 0.14264 0.48875 0.1398 0.0
H320 H 0.10224 0.43155 0.1613 0.0
H321 H 0.10099 0.48125 0.06501 0.0
O322 O 0.08786 0.44436 0.27881 0.0
O323 O 0.07835 0.46576 0.23629 0.0
O324 O 0.11865 0.49886 0.18947 0.0
C325 C 0.07335 0.44845 0.26771 0.0
H326 H 0.10424 0.51234 0.4585 0.0
H327 H 0.09976 0.42668 0.01309 0.0
H328 H 0.17466 0.48881 0.13964 0.0
H329 H 0.155 0.45096 0.33771 0.0
Co330 Co 0.63975 0.10479 0.40757 0.0
C331 C 0.63947 0.10851 0.57561 0.0
C332 C 0.61306 0.10621 0.5233 0.0
C333 C 0.61083 0.10638 0.60009 0.0
N334 N 0.63125 0.10806 0.50756 0.0
N335 N 0.62742 0.10776 0.63298 0.0
H336 H 0.65349 0.10854 0.58375 0.0
H337 H 0.60176 0.10404 0.48169 0.0
C338 C 0.62899 0.13746 0.38985 0.0
O339 O 0.63895 0.14604 0.45213 0.0
N340 N 0.64761 0.10099 0.30829 0.0
C341 C 0.66349 0.09854 0.29166 0.0
C342 C 0.66472 0.09746 0.21463 0.0
C343 C 0.63932 0.10131 0.24152 0.0
N344 N 0.64954 0.09925 0.18302 0.0
C345 C 0.68037 0.12718 0.46755 0.0
C346 C 0.69323 0.16071 0.3756 0.0
C347 C 0.70691 0.16048 0.4278 0.0
C348 C 0.70031 0.14333 0.4738 0.0
C349 C 0.67349 0.14431 0.37142 0.0
N350 N 0.6669 0.1282 0.41956 0.0
H351 H 0.67608 0.11354 0.4992 0.0
H352 H 0.66378 0.1444 0.32742 0.0
H353 H 0.67373 0.09804 0.33269 0.0
H354 H 0.62613 0.10307 0.23602 0.0
O355 O 0.64408 0.08337 0.44603 0.0
O356 O 0.6151 0.07917 0.40021 0.0
O357 O 0.62879 0.12174 0.36344 0.0
C358 C 0.62497 0.07115 0.43058 0.0
H359 H 0.59754 0.10456 0.62937 0.0
H360 H 0.67631 0.0961 0.18437 0.0
H361 H 0.69772 0.17345 0.33791 0.0
H362 H 0.71063 0.14211 0.51262 0.0
Co363 Co 0.53243 0.63958 0.55872 0.0
C364 C 0.52878 0.63822 0.72665 0.0
C365 C 0.50661 0.61051 0.67491 0.0
C366 C 0.50484 0.60801 0.75178 0.0
N367 N 0.52122 0.62969 0.65876 0.0
N368 N 0.51883 0.62547 0.78436 0.0
H369 H 0.5423 0.65273 0.73426 0.0
H370 H 0.49834 0.59876 0.63365 0.0
C371 C 0.48763 0.62024 0.537 0.0
O372 O 0.48716 0.63065 0.59525 0.0
N373 N 0.54376 0.64887 0.45962 0.0
C374 C 0.56026 0.66683 0.44303 0.0
C375 C 0.56252 0.66845 0.36599 0.0
C376 C 0.53627 0.6397 0.39282 0.0
N377 N 0.54739 0.65142 0.33443 0.0
C378 C 0.53996 0.67811 0.61814 0.0
C379 C 0.51785 0.68461 0.50934 0.0
C380 C 0.52823 0.69955 0.56385 0.0
C381 C 0.53931 0.69614 0.61909 0.0
C382 C 0.51858 0.6667 0.51134 0.0
N383 N 0.52904 0.66326 0.56659 0.0
H384 H 0.55021 0.67675 0.65605 0.0
H385 H 0.51139 0.65596 0.46609 0.0
H386 H 0.56968 0.67817 0.48407 0.0
H387 H 0.52259 0.62511 0.38699 0.0
O388 O 0.5595 0.65074 0.60005 0.0
O389 O 0.5406 0.61948 0.55474 0.0
O390 O 0.50455 0.62259 0.51346 0.0
C391 C 0.55749 0.63304 0.58571 0.0
H392 H 0.49439 0.59421 0.7811 0.0
H393 H 0.57434 0.68127 0.33569 0.0
H394 H 0.50947 0.6869 0.46475 0.0
H395 H 0.5482 0.70773 0.66033 0.0
H396 H 0.44589 0.26409 0.98244 0.0
H397 H 0.49444 0.20052 0.14973 0.0
H398 H 0.48497 0.28329 0.17781 0.0
H399 H 0.44401 0.17584 0.9946 0.0
H400 H 0.49426 0.23258 0.15079 0.0
H401 H 0.44804 0.23328 0.97682 0.0
C402 C 0.45485 0.2618 0.02455 0.0
C403 C 0.46503 0.27624 0.08144 0.0
C404 C 0.48326 0.22016 0.11645 0.0
C405 C 0.46785 0.241 0.07421 0.0
C406 C 0.48344 0.20192 0.11539 0.0
C407 C 0.4692 0.18549 0.07201 0.0
C408 C 0.46886 0.22206 0.07327 0.0
C409 C 0.45512 0.18804 0.02939 0.0
C410 C 0.45614 0.24421 0.02098 0.0
C411 C 0.47692 0.27265 0.13284 0.0
N412 N 0.45533 0.20599 0.03099 0.0
N413 N 0.47795 0.25535 0.12814 0.0
H414 H 0.19409 0.47796 0.35626 0.0
H415 H 0.26316 0.44429 0.13493 0.0
H416 H 0.18436 0.46109 0.12164 0.0
H417 H 0.28549 0.48527 0.32419 0.0
H418 H 0.23221 0.44674 0.13505 0.0
H419 H 0.2258 0.47693 0.35257 0.0
C420 C 0.19864 0.47399 0.30413 0.0
C421 C 0.18671 0.46966 0.23912 0.0
C422 C 0.24397 0.45529 0.17617 0.0
C423 C 0.22269 0.46832 0.23456 0.0
C424 C 0.26154 0.45386 0.17623 0.0
C425 C 0.27684 0.46465 0.22951 0.0
C426 C 0.24154 0.46725 0.23076 0.0
C427 C 0.27409 0.47688 0.28176 0.0
C428 C 0.21673 0.47353 0.30189 0.0
C429 C 0.19327 0.46469 0.17278 0.0
N430 N 0.25667 0.4777 0.2816 0.0
N431 N 0.21076 0.46402 0.17229 0.0
H432 H 0.72938 0.1779 0.55501 0.0
H433 H 0.82197 0.2683 0.33135 0.0
H434 H 0.73242 0.18279 0.3126 0.0
H435 H 0.81762 0.2644 0.57377 0.0
H436 H 0.79074 0.23534 0.32295 0.0
H437 H 0.76322 0.20792 0.56267 0.0
C438 C 0.73725 0.18517 0.50336 0.0
C439 C 0.72796 0.17792 0.43311 0.0
C440 C 0.79668 0.24165 0.37799 0.0
C441 C 0.76664 0.21243 0.44141 0.0
C442 C 0.81457 0.26041 0.38279 0.0
C443 C 0.8223 0.26922 0.45333 0.0
C444 C 0.78647 0.2316 0.44423 0.0
C445 C 0.81199 0.25838 0.51816 0.0
C446 C 0.75653 0.20238 0.50776 0.0
C447 C 0.73881 0.18808 0.36804 0.0
N448 N 0.79457 0.24021 0.51203 0.0
N449 N 0.75752 0.20485 0.37379 0.0
H450 H 0.53745 0.72482 0.44314 0.0
H451 H 0.50417 0.79759 0.63721 0.0
H452 H 0.51938 0.71837 0.67628 0.0
H453 H 0.54756 0.81805 0.4554 0.0
H454 H 0.50512 0.76592 0.64291 0.0
H455 H 0.53705 0.75681 0.43736 0.0
C456 C 0.53335 0.73016 0.493 0.0
C457 C 0.52838 0.71902 0.56026 0.0
C458 C 0.51442 0.77734 0.60181 0.0
C459 C 0.52773 0.75531 0.55387 0.0
C460 C 0.51377 0.7953 0.59813 0.0
C461 C 0.52577 0.81035 0.5456 0.0
C462 C 0.52689 0.77429 0.55171 0.0
C463 C 0.53815 0.8068 0.49683 0.0
C464 C 0.53323 0.74841 0.48977 0.0
C465 C 0.52336 0.72661 0.62352 0.0
N466 N 0.53828 0.78903 0.50066 0.0
N467 N 0.52298 0.74424 0.61863 0.0
H468 H 0.73018 0.55731 0.8065 0.0
H469 H 0.78586 0.49495 0.71391 0.0
H470 H 0.70241 0.5033 0.66845 0.0
H471 H 0.81768 0.55845 0.77509 0.0
H472 H 0.75408 0.49564 0.71088 0.0
H473 H 0.7613 0.55577 0.80978 0.0
C474 C 0.73063 0.54522 0.77611 0.0
C475 C 0.71361 0.53057 0.73615 0.0
C476 C 0.76805 0.50937 0.72505 0.0
C477 C 0.74926 0.52845 0.74172 0.0
C478 C 0.78624 0.50905 0.72657 0.0
C479 C 0.8046 0.52668 0.74487 0.0
C480 C 0.76815 0.52737 0.74278 0.0
C481 C 0.80396 0.54436 0.76212 0.0
C482 C 0.74842 0.54429 0.77856 0.0
C483 C 0.71504 0.51487 0.70032 0.0
N484 N 0.78607 0.54423 0.76079 0.0
N485 N 0.73257 0.51421 0.70398 0.0
H486 H 0.28655 0.79565 0.88685 0.0
H487 H 0.16913 0.73662 1.002 0.0
H488 H 0.2588 0.82179 0.0246 0.0
H489 H 0.19498 0.71363 0.84014 0.0
H490 H 0.20213 0.76731 0.01477 0.0
H491 H 0.25359 0.76466 0.87508 0.0
C492 C 0.27356 0.7948 0.91527 0.0
C493 C 0.27546 0.81136 0.9569 0.0
C494 C 0.20058 0.75559 0.97628 0.0
C495 C 0.23759 0.77598 0.94278 0.0
C496 C 0.18168 0.73808 0.96844 0.0
C497 C 0.17915 0.72247 0.91951 0.0
C498 C 0.21724 0.75757 0.93527 0.0
C499 C 0.19618 0.72511 0.8791 0.0
C500 C 0.25471 0.77716 0.90797 0.0
C501 C 0.25801 0.8095 0.99136 0.0
N502 N 0.21448 0.7423 0.88793 0.0
N503 N 0.23983 0.79213 0.98359 0.0
H504 H 0.44553 0.09101 0.82439 0.0
H505 H 0.49069 0.11494 0.4056 0.0
H506 H 0.50932 0.11759 0.774 0.0
H507 H 0.42654 0.08335 0.45567 0.0
H508 H 0.49787 0.11629 0.54013 0.0
H509 H 0.43836 0.089 0.68956 0.0
C510 C 0.45805 0.09657 0.78508 0.0
C511 C 0.47807 0.10449 0.81072 0.0
C512 C 0.48222 0.109 0.52164 0.0
C513 C 0.46994 0.10202 0.65596 0.0
C514 C 0.47809 0.10808 0.44464 0.0
C515 C 0.45795 0.09902 0.4189 0.0
C516 C 0.46612 0.10085 0.57355 0.0
C517 C 0.44229 0.09074 0.47265 0.0
C518 C 0.45393 0.09527 0.70798 0.0
C519 C 0.49364 0.11116 0.75688 0.0
N520 N 0.44671 0.0919 0.54728 0.0
N521 N 0.48926 0.1098 0.68216 0.0
H522 H 0.36737 0.47452 0.57637 0.0
H523 H 0.33778 0.43028 0.99575 0.0
H524 H 0.32186 0.41267 0.62719 0.0
H525 H 0.38488 0.49149 0.94518 0.0
H526 H 0.33164 0.42362 0.86098 0.0
H527 H 0.37443 0.48091 0.7109 0.0
C528 C 0.359 0.46221 0.6156 0.0
C529 C 0.34395 0.44301 0.59009 0.0
C530 C 0.34334 0.43851 0.87934 0.0
C531 C 0.35175 0.45034 0.74474 0.0
C532 C 0.34675 0.44238 0.95646 0.0
C533 C 0.36187 0.46151 0.98214 0.0
C534 C 0.35507 0.45388 0.82722 0.0
C535 C 0.37324 0.47646 0.92816 0.0
C536 C 0.36294 0.46591 0.6926 0.0
C537 C 0.33338 0.42777 0.64404 0.0
N538 N 0.36959 0.47235 0.85342 0.0
N539 N 0.33745 0.43177 0.71864 0.0
H540 H 0.88757 0.31631 0.82071 0.0
H541 H 0.91261 0.39791 0.14746 0.0
H542 H 0.91224 0.38027 0.77886 0.0
H543 H 0.88162 0.3332 0.18588 0.0
H544 H 0.91336 0.39187 0.01309 0.0
H545 H 0.88634 0.32236 0.95501 0.0
C546 C 0.89285 0.33166 0.8397 0.0
C547 C 0.90012 0.34782 0.78816 0.0
C548 C 0.90637 0.37898 0.05091 0.0
C549 C 0.89857 0.35485 0.94244 0.0
C550 C 0.90583 0.38241 0.12792 0.0
C551 C 0.897 0.36605 0.17874 0.0
C552 C 0.89809 0.35904 0.02402 0.0
C553 C 0.88882 0.34632 0.1494 0.0
C554 C 0.89201 0.33509 0.91651 0.0
C555 C 0.90638 0.36733 0.81628 0.0
N556 N 0.88958 0.34339 0.07416 0.0
N557 N 0.90553 0.3703 0.89146 0.0
H558 H 0.5555 0.88189 0.92597 0.0
H559 H 0.49755 0.90561 0.25096 0.0
H560 H 0.51574 0.90586 0.88236 0.0
H561 H 0.53403 0.87772 0.29118 0.0
H562 H 0.50453 0.90651 0.11662 0.0
H563 H 0.54859 0.8813 0.06008 0.0
C564 C 0.54544 0.88721 0.94446 0.0
C565 C 0.53631 0.89408 0.89233 0.0
C566 C 0.511 0.90018 0.15482 0.0
C567 C 0.52807 0.89316 0.04682 0.0
C568 C 0.50692 0.89954 0.23179 0.0
C569 C 0.51513 0.89148 0.28307 0.0
C570 C 0.52342 0.89276 0.12844 0.0
C571 C 0.52752 0.88425 0.2543 0.0
C572 C 0.54137 0.88672 0.02129 0.0
C573 C 0.52303 0.90033 0.92011 0.0
N574 N 0.53126 0.88505 0.17908 0.0
N575 N 0.51935 0.89976 0.99539 0.0
H576 H 0.62221 0.5162 0.06468 0.0
H577 H 0.64893 0.56139 0.48331 0.0
H578 H 0.6639 0.57927 0.11464 0.0
H579 H 0.60498 0.49898 0.4332 0.0
H580 H 0.65495 0.56812 0.34851 0.0
H581 H 0.61548 0.50962 0.19922 0.0
C582 C 0.62981 0.52872 0.10371 0.0
C583 C 0.64369 0.54833 0.07796 0.0
C584 C 0.64398 0.55295 0.36699 0.0
C585 C 0.63627 0.54081 0.2326 0.0
C586 C 0.64064 0.54905 0.44409 0.0
C587 C 0.62642 0.52957 0.46984 0.0
C588 C 0.63307 0.53724 0.31502 0.0
C589 C 0.61589 0.51427 0.41605 0.0
C590 C 0.62606 0.52491 0.18071 0.0
C591 C 0.65332 0.56386 0.13167 0.0
N592 N 0.61945 0.51843 0.34132 0.0
N593 N 0.64946 0.55976 0.20629 0.0
H594 H 0.07913 0.61809 0.23768 0.0
H595 H 0.11119 0.66653 0.65048 0.0
H596 H 0.10445 0.68191 0.28458 0.0
H597 H 0.07965 0.60202 0.60727 0.0
H598 H 0.10978 0.67253 0.51613 0.0
H599 H 0.08037 0.61196 0.3723 0.0
C600 C 0.08498 0.63083 0.27611 0.0
C601 C 0.09162 0.65055 0.24952 0.0
C602 C 0.10317 0.65705 0.53612 0.0
C603 C 0.09304 0.64363 0.40399 0.0
C604 C 0.10389 0.6536 0.61307 0.0
C605 C 0.09554 0.63372 0.64084 0.0
C606 C 0.09408 0.64053 0.48619 0.0
C607 C 0.08656 0.61762 0.58888 0.0
C608 C 0.0856 0.6273 0.3531 0.0
C609 C 0.09887 0.66642 0.30237 0.0
N610 N 0.08608 0.62138 0.51428 0.0
N611 N 0.09943 0.66262 0.37686 0.0
H612 H 0.88305 0.49142 0.0659 0.0
H613 H 0.90173 0.57297 0.38681 0.0
H614 H 0.89849 0.55319 0.01987 0.0
H615 H 0.88216 0.51014 0.43329 0.0
H616 H 0.90174 0.56624 0.25258 0.0
H617 H 0.88395 0.49827 0.20077 0.0
C618 C 0.88672 0.50645 0.08408 0.0
C619 C 0.89066 0.52172 0.03119 0.0
C620 C 0.89746 0.55392 0.29212 0.0
C621 C 0.89159 0.52966 0.18589 0.0
C622 C 0.89736 0.55773 0.36899 0.0
C623 C 0.89184 0.54209 0.42193 0.0
C624 C 0.89202 0.53431 0.2675 0.0
C625 C 0.88672 0.52273 0.395 0.0
C626 C 0.88712 0.51032 0.16117 0.0
C627 C 0.89505 0.54084 0.05825 0.0
N628 N 0.88689 0.51939 0.31978 0.0
N629 N 0.89543 0.54426 0.13359 0.0
H630 H 0.32141 0.88745 0.58992 0.0
H631 H 0.39994 0.90103 0.26471 0.0
H632 H 0.38334 0.90293 0.63305 0.0
H633 H 0.33628 0.87902 0.22481 0.0
H634 H 0.39444 0.90286 0.39884 0.0
H635 H 0.327 0.88572 0.45564 0.0
C636 C 0.33626 0.89066 0.57124 0.0
C637 C 0.35196 0.89547 0.62322 0.0
C638 C 0.38166 0.8976 0.36077 0.0
C639 C 0.3584 0.89325 0.4688 0.0
C640 C 0.38475 0.89642 0.28387 0.0
C641 C 0.36853 0.88975 0.23271 0.0
C642 C 0.36222 0.89215 0.38724 0.0
C643 C 0.3493 0.88444 0.26158 0.0
C644 C 0.33939 0.88951 0.49439 0.0
C645 C 0.37074 0.89903 0.59538 0.0
N646 N 0.34669 0.88575 0.33677 0.0
N647 N 0.37345 0.89791 0.52012 0.0
H648 H 0.4347 0.3352 0.35959 0.0
H649 H 0.47293 0.37355 0.7779 0.0
H650 H 0.49559 0.38272 0.41308 0.0
H651 H 0.4177 0.31745 0.72855 0.0
H652 H 0.48062 0.37813 0.64402 0.0
H653 H 0.42746 0.32924 0.49393 0.0
C654 C 0.44664 0.34427 0.39925 0.0
C655 C 0.46581 0.35958 0.37445 0.0
C656 C 0.46683 0.36479 0.66258 0.0
C657 C 0.45742 0.35303 0.52883 0.0
C658 C 0.46242 0.36209 0.73938 0.0
C659 C 0.44459 0.34501 0.76538 0.0
C660 C 0.45329 0.35043 0.6109 0.0
C661 C 0.43147 0.33098 0.71165 0.0
C662 C 0.44243 0.34092 0.47615 0.0
C663 C 0.48051 0.37101 0.42915 0.0
N664 N 0.43606 0.33402 0.63709 0.0
N665 N 0.47597 0.36757 0.5036 0.0
H666 H 0.11912 0.51292 0.57718 0.0
H667 H 0.08587 0.42778 0.89698 0.0
H668 H 0.09398 0.44917 0.52965 0.0
H669 H 0.11385 0.49188 0.94419 0.0
H670 H 0.08786 0.43521 0.76255 0.0
H671 H 0.11638 0.50539 0.7118 0.0
C672 C 0.11295 0.49732 0.59496 0.0
C673 C 0.10678 0.48168 0.54167 0.0
C674 C 0.09354 0.44766 0.80231 0.0
C675 C 0.10371 0.47293 0.69628 0.0
C676 C 0.09248 0.44343 0.87928 0.0
C677 C 0.09977 0.45921 0.93248 0.0
C678 C 0.10195 0.46784 0.77789 0.0
C679 C 0.10784 0.47917 0.90571 0.0
C680 C 0.11148 0.49304 0.67195 0.0
C681 C 0.09919 0.46177 0.56832 0.0
N682 N 0.10875 0.4829 0.83043 0.0
N683 N 0.09783 0.45798 0.64363 0.0
H684 H 0.61252 0.1201 0.74735 0.0
H685 H 0.66127 0.0838 0.06812 0.0
H686 H 0.64962 0.09326 0.70133 0.0
H687 H 0.62927 0.11602 0.11496 0.0
H688 H 0.65609 0.08609 0.93387 0.0
H689 H 0.61736 0.11764 0.88225 0.0
C690 C 0.62164 0.11364 0.76556 0.0
C691 C 0.63067 0.10689 0.7127 0.0
C692 C 0.65019 0.09266 0.97349 0.0
C693 C 0.63636 0.10409 0.86735 0.0
C694 C 0.65322 0.09143 0.0504 0.0
C695 C 0.64581 0.09981 0.10346 0.0
C696 C 0.63961 0.1023 0.94895 0.0
C697 C 0.63511 0.10916 0.07658 0.0
C698 C 0.62448 0.11233 0.84264 0.0
C699 C 0.64258 0.0989 0.73973 0.0
N700 N 0.63237 0.11018 1.0013 0.0
N701 N 0.64501 0.09767 0.81506 0.0
H702 H 0.52684 0.61448 0.26628 0.0
H703 H 0.53766 0.66212 0.85474 0.0
H704 H 0.55842 0.67882 0.22055 0.0
H705 H 0.50991 0.59777 0.8966 0.0
H706 H 0.54494 0.66843 0.98894 0.0
H707 H 0.51973 0.60792 0.13166 0.0
C708 C 0.53223 0.62724 0.2281 0.0
C709 C 0.5433 0.64725 0.25504 0.0
C710 C 0.53727 0.65292 0.96877 0.0
C711 C 0.5353 0.63984 0.10058 0.0
C712 C 0.53319 0.6493 0.8919 0.0
C713 C 0.52317 0.62937 0.86382 0.0
C714 C 0.53126 0.6365 0.01838 0.0
C715 C 0.51744 0.61337 0.91537 0.0
C716 C 0.52826 0.62348 0.15113 0.0
C717 C 0.55011 0.66316 0.20254 0.0
N718 N 0.52157 0.61729 0.99001 0.0
N719 N 0.54596 0.65911 0.12804 0.0
H720 H 0.53392 0.13094 0.11721 0.0
H721 H 0.61255 0.15858 0.4554 0.0
H722 H 0.52628 0.15203 0.33355 0.0
H723 H 0.61418 0.13039 0.24674 0.0
H724 H 0.58516 0.1631 0.4039 0.0
H725 H 0.56734 0.13753 0.15598 0.0
C726 C 0.53937 0.13712 0.17283 0.0
C727 C 0.52718 0.14061 0.22276 0.0
C728 C 0.59176 0.15623 0.36906 0.0
C729 C 0.56549 0.14809 0.26795 0.0
C730 C 0.60746 0.15376 0.3982 0.0
C731 C 0.61543 0.14385 0.35555 0.0
C732 C 0.58415 0.14884 0.29674 0.0
C733 C 0.60826 0.13783 0.28195 0.0
C734 C 0.55849 0.14093 0.19493 0.0
C735 C 0.53518 0.14903 0.29353 0.0
N736 N 0.59292 0.14026 0.25521 0.0
N737 N 0.55376 0.15221 0.31458 0.0
H738 H 0.36641 0.51709 0.48997 0.0
H739 H 0.48277 0.59873 0.40802 0.0
H740 H 0.40115 0.51404 0.30342 0.0
H741 H 0.44894 0.60428 0.59253 0.0
H742 H 0.45183 0.56914 0.36327 0.0
H743 H 0.39532 0.55033 0.52367 0.0
C744 C 0.38002 0.52345 0.45578 0.0
C745 C 0.38141 0.51266 0.39417 0.0
C746 C 0.45109 0.57689 0.41324 0.0
C747 C 0.41446 0.55058 0.43232 0.0
C748 C 0.46878 0.59383 0.4388 0.0
C749 C 0.46849 0.6039 0.50451 0.0
C750 C 0.43294 0.5698 0.45395 0.0
C751 C 0.44987 0.59694 0.5417 0.0
C752 C 0.39651 0.54241 0.47505 0.0
C753 C 0.39941 0.52165 0.35185 0.0
N754 N 0.43286 0.58017 0.51635 0.0
N755 N 0.41521 0.53998 0.37193 0.0
H756 H 0.86735 0.37824 0.64672 0.0
H757 H 0.86843 0.47929 0.56267 0.0
H758 H 0.85186 0.38972 0.42552 0.0
H759 H 0.84801 0.44971 0.7782 0.0
H760 H 0.86458 0.44771 0.51055 0.0
H761 H 0.86224 0.4053 0.69741 0.0
C762 C 0.86255 0.38626 0.60916 0.0
C763 C 0.85999 0.3818 0.53198 0.0
C764 C 0.86066 0.44809 0.56894 0.0
C765 C 0.85469 0.41297 0.58893 0.0
C766 C 0.86295 0.46608 0.59873 0.0
C767 C 0.85859 0.46706 0.67483 0.0
C768 C 0.85451 0.43121 0.61616 0.0
C769 C 0.85147 0.44954 0.71916 0.0
C770 C 0.85961 0.40163 0.63804 0.0
C771 C 0.85383 0.39263 0.4855 0.0
N772 N 0.84999 0.43239 0.68951 0.0
N773 N 0.85177 0.40803 0.51446 0.0
H774 H 0.39179 0.85649 0.92906 0.0
H775 H 0.45838 0.8606 0.58682 0.0
H776 H 0.36915 0.84704 0.70133 0.0
H777 H 0.46888 0.84579 0.81064 0.0
H778 H 0.42489 0.85405 0.6264 0.0
H779 H 0.41915 0.85081 0.88768 0.0
C780 C 0.39243 0.85288 0.87047 0.0
C781 C 0.37837 0.8524 0.81828 0.0
C782 C 0.43434 0.85187 0.66657 0.0
C783 C 0.40979 0.84625 0.77029 0.0
C784 C 0.45349 0.85571 0.64413 0.0
C785 C 0.46645 0.85394 0.69588 0.0
C786 C 0.42829 0.84668 0.74177 0.0
C787 C 0.45932 0.84735 0.76913 0.0
C788 C 0.40799 0.84957 0.84693 0.0
C789 C 0.37972 0.84751 0.74323 0.0
N790 N 0.44084 0.84433 0.79039 0.0
N791 N 0.39545 0.84503 0.72107 0.0
H792 H 0.50216 0.40605 0.976 0.0
H793 H 0.62183 0.46548 0.92644 0.0
H794 H 0.53412 0.37276 0.95768 0.0
H795 H 0.58265 0.48648 0.83884 0.0
H796 H 0.59144 0.43256 0.9562 0.0
H797 H 0.53329 0.43715 0.9448 0.0
C798 C 0.51577 0.40528 0.96539 0.0
C799 C 0.51554 0.38677 0.96927 0.0
C800 C 0.58967 0.44443 0.93011 0.0
C801 C 0.55142 0.42253 0.93401 0.0
C802 C 0.60691 0.46319 0.91359 0.0
C803 C 0.60476 0.47873 0.88011 0.0
C804 C 0.57029 0.44151 0.91439 0.0
C805 C 0.5851 0.47496 0.86429 0.0
C806 C 0.53354 0.42306 0.94731 0.0
C807 C 0.53366 0.38673 0.95466 0.0
N808 N 0.5687 0.45685 0.88205 0.0
N809 N 0.55102 0.40444 0.93816 0.0
H810 H 0.15648 0.55401 0.26735 0.0
H811 H 0.11466 0.59916 0.95409 0.0
H812 H 0.12002 0.52055 0.07613 0.0
H813 H 0.14568 0.63226 0.15453 0.0
H814 H 0.12137 0.57228 0.98955 0.0
H815 H 0.15763 0.58469 0.21826 0.0
C816 C 0.14903 0.55319 0.21441 0.0
C817 C 0.13793 0.53465 0.17616 0.0
C818 C 0.12684 0.58544 0.02578 0.0
C819 C 0.13909 0.56956 0.12015 0.0
C820 C 0.12295 0.60082 1.00562 0.0
C821 C 0.12933 0.61787 0.05202 0.0
C822 C 0.13709 0.58694 0.09329 0.0
C823 C 0.14038 0.61931 0.11736 0.0
C824 C 0.1496 0.57068 0.18669 0.0
C825 C 0.12853 0.53444 0.10799 0.0
N826 N 0.14372 0.60391 0.13658 0.0
N827 N 0.1292 0.55157 0.08256 0.0
H828 H 0.40697 0.05004 0.04797 0.0
H829 H 0.4125 0.95162 0.94326 0.0
H830 H 0.45783 0.04201 0.10127 0.0
H831 H 0.35471 0.9464 0.99603 0.0
H832 H 0.42947 0.98718 0.97971 0.0
H833 H 0.38738 0.01397 0.01101 0.0
C834 C 0.41395 0.0407 0.05227 0.0
C835 C 0.43405 0.04901 0.07766 0.0
C836 C 0.41307 0.97829 0.98329 0.0
C837 C 0.41204 0.00823 0.03448 0.0
C838 C 0.40333 0.958 0.96207 0.0
C839 C 0.38215 0.946 0.96696 0.0
C840 C 0.40159 0.98686 1.00884 0.0
C841 C 0.3711 0.95514 0.99184 0.0
C842 C 0.40279 0.0202 0.03134 0.0
C843 C 0.44239 0.03628 0.08219 0.0
N844 N 0.38096 0.97513 0.01179 0.0
N845 N 0.43144 0.01664 0.06016 0.0
H846 H 0.41061 0.35019 0.23566 0.0
H847 H 0.34704 0.4044 0.14381 0.0
H848 H 0.41633 0.37991 0.02294 0.0
H849 H 0.38105 0.41695 0.35049 0.0
H850 H 0.36128 0.38331 0.10213 0.0
H851 H 0.38853 0.36303 0.28108 0.0
C852 C 0.40678 0.35899 0.1981 0.0
C853 C 0.4152 0.36413 0.12575 0.0
C854 C 0.3652 0.39035 0.15724 0.0
C855 C 0.38993 0.37829 0.17622 0.0
C856 C 0.35704 0.40223 0.18118 0.0
C857 C 0.363 0.41238 0.25046 0.0
C858 C 0.37889 0.38824 0.20395 0.0
C859 C 0.37622 0.40938 0.29652 0.0
C860 C 0.39435 0.36634 0.22404 0.0
C861 C 0.41012 0.37577 0.07925 0.0
N862 N 0.38377 0.39753 0.27244 0.0
N863 N 0.39772 0.38245 0.10521 0.0
H864 H 0.05533 0.40856 0.31442 0.0
H865 H 0.95874 0.40983 0.47543 0.0
H866 H 0.04393 0.45823 0.28431 0.0
H867 H 0.95331 0.35333 0.40096 0.0
H868 H 0.99345 0.42785 0.42919 0.0
H869 H 0.02072 0.38789 0.36584 0.0
C870 C 0.04555 0.41505 0.31833 0.0
C871 C 0.05245 0.4351 0.295 0.0
C872 C 0.98471 0.41149 0.4232 0.0
C873 C 0.01343 0.4119 0.3547 0.0
C874 C 0.96491 0.40115 0.44998 0.0
C875 C 0.95305 0.38004 0.44154 0.0
C876 C 0.99292 0.40071 0.38826 0.0
C877 C 0.96195 0.36964 0.40818 0.0
C878 C 0.02589 0.40329 0.34746 0.0
C879 C 0.03924 0.44283 0.30125 0.0
N880 N 0.98145 0.38011 0.38252 0.0
N881 N 0.02047 0.4313 0.33108 0.0
H882 H 0.58649 0.94443 0.52324 0.0
H883 H 0.5843 0.04551 0.43509 0.0
H884 H 0.53668 0.9536 0.58253 0.0
H885 H 0.64127 0.04738 0.472 0.0
H886 H 0.56628 0.00996 0.47204 0.0
H887 H 0.60679 0.98066 0.49008 0.0
C888 C 0.57989 0.95406 0.52967 0.0
C889 C 0.55987 0.94602 0.55547 0.0
C890 C 0.58273 0.01811 0.47217 0.0
C891 C 0.58274 0.98706 0.51681 0.0
C892 C 0.59305 0.03839 0.45061 0.0
C893 C 0.61433 0.04941 0.45054 0.0
C894 C 0.59369 0.00859 0.49299 0.0
C895 C 0.62484 0.03939 0.47155 0.0
C896 C 0.59146 0.97466 0.51093 0.0
C897 C 0.55203 0.95912 0.5629 0.0
N898 N 0.61439 0.01943 0.49167 0.0
N899 N 0.56341 0.97892 0.543 0.0
H900 H 0.57121 0.61232 0.50377 0.0
H901 H 0.60568 0.57356 0.83798 0.0
H902 H 0.57788 0.64129 0.7188 0.0
H903 H 0.63965 0.587 0.63098 0.0
H904 H 0.59233 0.59545 0.79694 0.0
H905 H 0.5935 0.59975 0.54782 0.0
C906 C 0.57766 0.61625 0.55985 0.0
C907 C 0.57291 0.62786 0.60784 0.0
C908 C 0.60302 0.59389 0.76134 0.0
C909 C 0.59765 0.61312 0.65894 0.0
C910 C 0.61054 0.5814 0.78447 0.0
C911 C 0.62376 0.57861 0.73769 0.0
C912 C 0.6082 0.60296 0.68993 0.0
C913 C 0.62959 0.58896 0.66875 0.0
C914 C 0.59036 0.60918 0.58474 0.0
C915 C 0.58144 0.63251 0.68015 0.0
N916 N 0.62139 0.60035 0.646 0.0
N917 N 0.59309 0.62471 0.70435 0.0
H918 H 0.0289 0.60934 1.0049 0.0
H919 H 0.95532 0.56848 0.66975 0.0
H920 H 0.04876 0.64121 0.79348 0.0
H921 H 0.93279 0.57822 0.87908 0.0
H922 H 0.99023 0.59136 0.71322 0.0
H923 H 0.99351 0.5938 0.96161 0.0
C924 C 0.02573 0.61324 0.94983 0.0
C925 C 0.04159 0.62659 0.90265 0.0
C926 C 0.97759 0.5887 0.74896 0.0
C927 C 0.00158 0.60851 0.85237 0.0
C928 C 0.95778 0.57566 0.72444 0.0
C929 C 0.94132 0.57166 0.77093 0.0
C930 C 0.98085 0.5971 0.82143 0.0
C931 C 0.94518 0.58117 0.84148 0.0
C932 C 0.00564 0.60446 0.92539 0.0
C933 C 0.03684 0.63113 0.83161 0.0
N934 N 0.96462 0.59316 0.86544 0.0
N935 N 0.01722 0.62174 0.80779 0.0
loop_
_geom_bond_atom_site_label_1
_geom_bond_atom_site_label_2
_geom_bond_distance
_geom_bond_site_symmetry_2
_ccdc_geom_bond_type
Co0 N4 2.148 . S
Co0 N10 2.128 . S
Co0 N20 2.194 . S
Co0 O25 2.351 . S
Co0 O26 2.155 . S
Co0 O27 2.096 . S
C1 N4 1.301 1_556 S
C1 N5 1.328 . S
C1 H6 0.930 . S
C2 C3 1.333 . S
C2 N4 1.317 1_556 S
C2 H7 0.930 1_556 S
C3 C2 1.333 . S
C3 N5 1.350 . S
C3 H29 0.931 . S
N4 Co0 2.148 . S
N4 C1 1.301 1_554 S
N4 C2 1.317 1_554 S
N5 C1 1.328 . S
N5 C3 1.350 . S
H6 C1 0.930 . S
H7 C2 0.930 1_554 S
C8 O9 1.224 . S
C8 O27 1.247 . S
O9 C8 1.224 . S
N10 Co0 2.128 . S
N10 C11 1.355 . S
N10 C13 1.311 . S
C11 N10 1.355 . S
C11 C12 1.363 . S
C11 H23 0.929 . S
C12 C11 1.363 . S
C12 N14 1.375 . S
C12 H30 0.931 . S
C13 N10 1.311 . S
C13 N14 1.347 . S
C13 H24 0.929 . S
N14 C12 1.375 . S
N14 C13 1.347 . S
C15 C18 1.365 . S
C15 N20 1.328 . S
C15 H21 0.929 . S
C16 C17 1.362 . S
C16 C19 1.378 . S
C16 H31 0.929 . S
C17 C16 1.362 . S
C17 C18 1.366 . S
C18 C15 1.365 . S
C18 C17 1.366 . S
C18 H32 0.930 . S
C19 C16 1.378 . S
C19 N20 1.315 . S
C19 H22 0.930 . S
N20 Co0 2.194 . S
N20 C15 1.328 . S
N20 C19 1.315 . S
H21 C15 0.929 . S
H22 C19 0.930 . S
H23 C11 0.929 . S
H24 C13 0.929 . S
O25 Co0 2.351 . S
O25 C28 1.244 . S
O26 Co0 2.155 . S
O26 C28 1.240 . S
O27 Co0 2.096 . S
O27 C8 1.247 . S
C28 O25 1.244 . S
C28 O26 1.240 . S
H29 C3 0.931 . S
H30 C12 0.931 . S
H31 C16 0.929 . S
H32 C18 0.930 . S
Co33 N37 2.148 . S
Co33 N43 2.128 . S
Co33 N53 2.194 . S
Co33 O58 2.351 . S
Co33 O59 2.155 . S
Co33 O60 2.096 . S
C34 N37 1.301 . S
C34 N38 1.328 . S
C34 H39 0.930 . S
C35 C36 1.333 . S
C35 N37 1.317 . S
C35 H40 0.930 . S
C36 C35 1.333 . S
C36 N38 1.350 . S
C36 H62 0.931 . S
N37 Co33 2.148 . S
N37 C34 1.301 . S
N37 C35 1.317 . S
N38 C34 1.328 . S
N38 C36 1.350 . S
H39 C34 0.930 . S
H40 C35 0.930 . S
C41 O42 1.224 . S
C41 O60 1.247 . S
O42 C41 1.224 . S
N43 Co33 2.128 . S
N43 C44 1.355 . S
N43 C46 1.311 . S
C44 N43 1.355 . S
C44 C45 1.363 . S
C44 H56 0.929 . S
C45 C44 1.363 . S
C45 N47 1.375 . S
C45 H63 0.931 . S
C46 N43 1.311 . S
C46 N47 1.347 . S
C46 H57 0.929 . S
N47 C45 1.375 . S
N47 C46 1.347 . S
C48 C51 1.365 . S
C48 N53 1.328 . S
C48 H54 0.929 . S
C49 C50 1.362 . S
C49 C52 1.378 . S
C49 H64 0.929 . S
C50 C49 1.362 . S
C50 C51 1.366 . S
C51 C48 1.365 . S
C51 C50 1.366 . S
C51 H65 0.930 . S
C52 C49 1.378 . S
C52 N53 1.315 . S
C52 H55 0.930 . S
N53 Co33 2.194 . S
N53 C48 1.328 . S
N53 C52 1.315 . S
H54 C48 0.929 . S
H55 C52 0.930 . S
H56 C44 0.929 . S
H57 C46 0.929 . S
O58 Co33 2.351 . S
O58 C61 1.244 . S
O59 Co33 2.155 . S
O59 C61 1.240 . S
O60 Co33 2.096 . S
O60 C41 1.247 . S
C61 O58 1.244 . S
C61 O59 1.240 . S
H62 C36 0.931 . S
H63 C45 0.931 . S
H64 C49 0.929 . S
H65 C51 0.930 . S
Co66 N70 2.148 . S
Co66 N76 2.128 . S
Co66 N86 2.194 . S
Co66 O91 2.351 . S
Co66 O92 2.155 . S
Co66 O93 2.096 . S
C67 N70 1.301 . S
C67 N71 1.328 . S
C67 H72 0.930 . S
C68 C69 1.333 . S
C68 N70 1.317 . S
C68 H73 0.930 . S
C69 C68 1.333 . S
C69 N71 1.350 . S
C69 H95 0.931 . S
N70 Co66 2.148 . S
N70 C67 1.301 . S
N70 C68 1.317 . S
N71 C67 1.328 . S
N71 C69 1.350 . S
H72 C67 0.930 . S
H73 C68 0.930 . S
C74 O75 1.224 . S
C74 O93 1.247 . S
O75 C74 1.224 . S
N76 Co66 2.128 . S
N76 C77 1.355 . S
N76 C79 1.311 . S
C77 N76 1.355 . S
C77 C78 1.363 . S
C77 H89 0.929 . S
C78 C77 1.363 . S
C78 N80 1.375 . S
C78 H96 0.931 . S
C79 N76 1.311 . S
C79 N80 1.347 . S
C79 H90 0.929 . S
N80 C78 1.375 . S
N80 C79 1.347 . S
C81 C84 1.365 . S
C81 N86 1.328 . S
C81 H87 0.929 . S
C82 C83 1.362 . S
C82 C85 1.378 . S
C82 H97 0.929 . S
C83 C82 1.362 . S
C83 C84 1.366 . S
C84 C81 1.365 . S
C84 C83 1.366 . S
C84 H98 0.930 . S
C85 C82 1.378 . S
C85 N86 1.315 . S
C85 H88 0.930 . S
N86 Co66 2.194 . S
N86 C81 1.328 . S
N86 C85 1.315 . S
H87 C81 0.929 . S
H88 C85 0.930 . S
H89 C77 0.929 . S
H90 C79 0.929 . S
O91 Co66 2.351 . S
O91 C94 1.244 . S
O92 Co66 2.155 . S
O92 C94 1.240 . S
O93 Co66 2.096 . S
O93 C74 1.247 . S
C94 O91 1.244 . S
C94 O92 1.240 . S
H95 C69 0.931 . S
H96 C78 0.931 . S
H97 C82 0.929 . S
H98 C84 0.930 . S
Co99 N103 2.148 . S
Co99 N109 2.128 . S
Co99 N119 2.194 . S
Co99 O124 2.351 . S
Co99 O125 2.155 . S
Co99 O126 2.096 . S
C100 N103 1.301 . S
C100 N104 1.328 . S
C100 H105 0.930 . S
C101 C102 1.333 . S
C101 N103 1.317 . S
C101 H106 0.930 . S
C102 C101 1.333 . S
C102 N104 1.350 . S
C102 H128 0.931 . S
N103 Co99 2.148 . S
N103 C100 1.301 . S
N103 C101 1.317 . S
N104 C100 1.328 . S
N104 C102 1.350 . S
H105 C100 0.930 . S
H106 C101 0.930 . S
C107 O108 1.224 . S
C107 O126 1.247 . S
O108 C107 1.224 . S
N109 Co99 2.128 . S
N109 C110 1.355 . S
N109 C112 1.311 . S
C110 N109 1.355 . S
C110 C111 1.363 . S
C110 H122 0.929 . S
C111 C110 1.363 . S
C111 N113 1.375 . S
C111 H129 0.931 . S
C112 N109 1.311 . S
C112 N113 1.347 . S
C112 H123 0.929 . S
N113 C111 1.375 . S
N113 C112 1.347 . S
C114 C117 1.365 . S
C114 N119 1.328 . S
C114 H120 0.929 . S
C115 C116 1.362 . S
C115 C118 1.378 . S
C115 H130 0.929 . S
C116 C115 1.362 . S
C116 C117 1.366 . S
C117 C114 1.365 . S
C117 C116 1.366 . S
C117 H131 0.930 . S
C118 C115 1.378 . S
C118 N119 1.315 . S
C118 H121 0.930 . S
N119 Co99 2.194 . S
N119 C114 1.328 . S
N119 C118 1.315 . S
H120 C114 0.929 . S
H121 C118 0.930 . S
H122 C110 0.929 . S
H123 C112 0.929 . S
O124 Co99 2.351 . S
O124 C127 1.244 . S
O125 Co99 2.155 . S
O125 C127 1.240 . S
O126 Co99 2.096 . S
O126 C107 1.247 . S
C127 O124 1.244 . S
C127 O125 1.240 . S
H128 C102 0.931 . S
H129 C111 0.931 . S
H130 C115 0.929 . S
H131 C117 0.930 . S
Co132 N136 2.148 . S
Co132 N142 2.128 . S
Co132 N152 2.194 . S
Co132 O157 2.351 . S
Co132 O158 2.155 . S
Co132 O159 2.096 . S
C133 N136 1.301 . S
C133 N137 1.328 . S
C133 H138 0.930 . S
C134 C135 1.333 . S
C134 N136 1.317 . S
C134 H139 0.930 . S
C135 C134 1.333 . S
C135 N137 1.350 . S
C135 H161 0.931 . S
N136 Co132 2.148 . S
N136 C133 1.301 . S
N136 C134 1.317 . S
N137 C133 1.328 . S
N137 C135 1.350 . S
H138 C133 0.930 . S
H139 C134 0.930 . S
C140 O141 1.224 . S
C140 O159 1.247 . S
O141 C140 1.224 . S
N142 Co132 2.128 . S
N142 C143 1.355 . S
N142 C145 1.311 . S
C143 N142 1.355 . S
C143 C144 1.363 . S
C143 H155 0.929 . S
C144 C143 1.363 . S
C144 N146 1.375 1_556 S
C144 H162 0.931 1_556 S
C145 N142 1.311 . S
C145 N146 1.347 1_556 S
C145 H156 0.929 . S
N146 C144 1.375 1_554 S
N146 C145 1.347 1_554 S
C147 C150 1.365 . S
C147 N152 1.328 . S
C147 H153 0.929 . S
C148 C149 1.362 . S
C148 C151 1.378 . S
C148 H163 0.929 . S
C149 C148 1.362 . S
C149 C150 1.366 . S
C150 C147 1.365 . S
C150 C149 1.366 . S
C150 H164 0.930 . S
C151 C148 1.378 . S
C151 N152 1.315 . S
C151 H154 0.930 . S
N152 Co132 2.194 . S
N152 C147 1.328 . S
N152 C151 1.315 . S
H153 C147 0.929 . S
H154 C151 0.930 . S
H155 C143 0.929 . S
H156 C145 0.929 . S
O157 Co132 2.351 . S
O157 C160 1.244 . S
O158 Co132 2.155 . S
O158 C160 1.240 . S
O159 Co132 2.096 . S
O159 C140 1.247 . S
C160 O157 1.244 . S
C160 O158 1.240 . S
H161 C135 0.931 . S
H162 C144 0.931 1_554 S
H163 C148 0.929 . S
H164 C150 0.930 . S
Co165 N169 2.148 . S
Co165 N175 2.128 1_556 S
Co165 N185 2.194 . S
Co165 O190 2.351 . S
Co165 O191 2.155 . S
Co165 O192 2.096 . S
C166 N169 1.301 . S
C166 N170 1.328 . S
C166 H171 0.930 . S
C167 C168 1.333 . S
C167 N169 1.317 . S
C167 H172 0.930 . S
C168 C167 1.333 . S
C168 N170 1.350 . S
C168 H194 0.931 . S
N169 Co165 2.148 . S
N169 C166 1.301 . S
N169 C167 1.317 . S
N170 C166 1.328 . S
N170 C168 1.350 . S
H171 C166 0.930 . S
H172 C167 0.930 . S
C173 O174 1.224 . S
C173 O192 1.248 . S
O174 C173 1.224 . S
N175 Co165 2.128 1_554 S
N175 C176 1.355 . S
N175 C178 1.311 . S
C176 N175 1.355 . S
C176 C177 1.363 . S
C176 H188 0.929 . S
C177 C176 1.363 . S
C177 N179 1.375 . S
C177 H195 0.931 . S
C178 N175 1.311 . S
C178 N179 1.347 . S
C178 H189 0.929 . S
N179 C177 1.375 . S
N179 C178 1.347 . S
C180 C183 1.365 . S
C180 N185 1.328 . S
C180 H186 0.929 . S
C181 C182 1.362 . S
C181 C184 1.378 . S
C181 H196 0.929 . S
C182 C181 1.362 . S
C182 C183 1.366 . S
C183 C180 1.365 . S
C183 C182 1.366 . S
C183 H197 0.930 . S
C184 C181 1.378 . S
C184 N185 1.315 . S
C184 H187 0.930 . S
N185 Co165 2.194 . S
N185 C180 1.328 . S
N185 C184 1.315 . S
H186 C180 0.929 . S
H187 C184 0.930 . S
H188 C176 0.929 . S
H189 C178 0.929 . S
O190 Co165 2.351 . S
O190 C193 1.244 . S
O191 Co165 2.155 . S
O191 C193 1.240 . S
O192 Co165 2.096 . S
O192 C173 1.248 . S
C193 O190 1.244 . S
C193 O191 1.240 . S
H194 C168 0.931 . S
H195 C177 0.931 . S
H196 C181 0.929 . S
H197 C183 0.930 . S
Co198 N202 2.148 . S
Co198 N208 2.128 . S
Co198 N218 2.194 . S
Co198 O223 2.351 . S
Co198 O224 2.155 . S
Co198 O225 2.096 . S
C199 N202 1.301 . S
C199 N203 1.328 . S
C199 H204 0.930 . S
C200 C201 1.333 . S
C200 N202 1.317 . S
C200 H205 0.930 . S
C201 C200 1.333 . S
C201 N203 1.350 . S
C201 H227 0.931 . S
N202 Co198 2.148 . S
N202 C199 1.301 . S
N202 C200 1.317 . S
N203 C199 1.328 . S
N203 C201 1.350 . S
H204 C199 0.930 . S
H205 C200 0.930 . S
C206 O207 1.224 . S
C206 O225 1.247 . S
O207 C206 1.224 . S
N208 Co198 2.128 . S
N208 C209 1.355 . S
N208 C211 1.311 . S
C209 N208 1.355 . S
C209 C210 1.363 . S
C209 H221 0.929 . S
C210 C209 1.363 . S
C210 N212 1.375 . S
C210 H228 0.931 . S
C211 N208 1.311 . S
C211 N212 1.347 . S
C211 H222 0.929 . S
N212 C210 1.375 . S
N212 C211 1.347 . S
C213 C216 1.365 . S
C213 N218 1.328 . S
C213 H219 0.929 . S
C214 C215 1.362 . S
C214 C217 1.378 . S
C214 H229 0.929 . S
C215 C214 1.362 . S
C215 C216 1.366 . S
C216 C213 1.365 . S
C216 C215 1.366 . S
C216 H230 0.930 . S
C217 C214 1.378 . S
C217 N218 1.315 . S
C217 H220 0.930 . S
N218 Co198 2.194 . S
N218 C213 1.328 . S
N218 C217 1.315 . S
H219 C213 0.929 . S
H220 C217 0.930 . S
H221 C209 0.929 . S
H222 C211 0.929 . S
O223 Co198 2.351 . S
O223 C226 1.244 . S
O224 Co198 2.155 . S
O224 C226 1.240 . S
O225 Co198 2.096 . S
O225 C206 1.247 . S
C226 O223 1.244 . S
C226 O224 1.240 . S
H227 C201 0.931 . S
H228 C210 0.931 . S
H229 C214 0.929 . S
H230 C216 0.930 . S
Co231 N235 2.148 . S
Co231 N241 2.128 . S
Co231 N251 2.194 . S
Co231 O256 2.351 . S
Co231 O257 2.155 . S
Co231 O258 2.096 . S
C232 N235 1.301 1_554 S
C232 N236 1.328 . S
C232 H237 0.930 . S
C233 C234 1.333 . S
C233 N235 1.317 1_554 S
C233 H238 0.930 1_554 S
C234 C233 1.333 . S
C234 N236 1.350 . S
C234 H260 0.931 . S
N235 Co231 2.148 . S
N235 C232 1.301 1_556 S
N235 C233 1.317 1_556 S
N236 C232 1.328 . S
N236 C234 1.350 . S
H237 C232 0.930 . S
H238 C233 0.930 1_556 S
C239 O240 1.224 . S
C239 O258 1.247 . S
O240 C239 1.224 . S
N241 Co231 2.128 . S
N241 C242 1.355 . S
N241 C244 1.311 . S
C242 N241 1.355 . S
C242 C243 1.363 . S
C242 H254 0.929 . S
C243 C242 1.363 . S
C243 N245 1.375 . S
C243 H261 0.931 . S
C244 N241 1.311 . S
C244 N245 1.347 . S
C244 H255 0.929 . S
N245 C243 1.375 . S
N245 C244 1.347 . S
C246 C249 1.365 . S
C246 N251 1.328 . S
C246 H252 0.929 . S
C247 C248 1.362 . S
C247 C250 1.378 . S
C247 H262 0.929 . S
C248 C247 1.362 . S
C248 C249 1.366 . S
C249 C246 1.365 . S
C249 C248 1.366 . S
C249 H263 0.930 . S
C250 C247 1.378 . S
C250 N251 1.315 . S
C250 H253 0.930 . S
N251 Co231 2.194 . S
N251 C246 1.328 . S
N251 C250 1.315 . S
H252 C246 0.929 . S
H253 C250 0.930 . S
H254 C242 0.929 . S
H255 C244 0.929 . S
O256 Co231 2.351 . S
O256 C259 1.244 . S
O257 Co231 2.155 . S
O257 C259 1.240 . S
O258 Co231 2.096 . S
O258 C239 1.247 . S
C259 O256 1.244 . S
C259 O257 1.240 . S
H260 C234 0.931 . S
H261 C243 0.931 . S
H262 C247 0.929 . S
H263 C249 0.930 . S
Co264 N268 2.148 . S
Co264 N274 2.128 1_554 S
Co264 N284 2.194 . S
Co264 O289 2.351 . S
Co264 O290 2.155 . S
Co264 O291 2.096 . S
C265 N268 1.301 . S
C265 N269 1.328 . S
C265 H270 0.930 . S
C266 C267 1.333 . S
C266 N268 1.317 . S
C266 H271 0.930 . S
C267 C266 1.333 . S
C267 N269 1.350 . S
C267 H293 0.931 . S
N268 Co264 2.148 . S
N268 C265 1.301 . S
N268 C266 1.317 . S
N269 C265 1.328 . S
N269 C267 1.350 . S
H270 C265 0.930 . S
H271 C266 0.930 . S
C272 O273 1.224 . S
C272 O291 1.247 . S
O273 C272 1.224 . S
N274 Co264 2.128 1_556 S
N274 C275 1.355 . S
N274 C277 1.311 . S
C275 N274 1.355 . S
C275 C276 1.363 . S
C275 H287 0.929 . S
C276 C275 1.363 . S
C276 N278 1.375 . S
C276 H294 0.931 . S
C277 N274 1.311 . S
C277 N278 1.347 . S
C277 H288 0.929 . S
N278 C276 1.375 . S
N278 C277 1.347 . S
C279 C282 1.365 . S
C279 N284 1.328 . S
C279 H285 0.929 . S
C280 C281 1.362 . S
C280 C283 1.378 . S
C280 H295 0.929 . S
C281 C280 1.362 . S
C281 C282 1.366 . S
C282 C279 1.365 . S
C282 C281 1.366 . S
C282 H296 0.930 . S
C283 C280 1.378 . S
C283 N284 1.315 . S
C283 H286 0.930 . S
N284 Co264 2.194 . S
N284 C279 1.328 . S
N284 C283 1.315 . S
H285 C279 0.929 . S
H286 C283 0.930 . S
H287 C275 0.929 . S
H288 C277 0.929 . S
O289 Co264 2.351 . S
O289 C292 1.244 . S
O290 Co264 2.155 . S
O290 C292 1.240 . S
O291 Co264 2.096 . S
O291 C272 1.247 . S
C292 O289 1.244 . S
C292 O290 1.240 . S
H293 C267 0.931 . S
H294 C276 0.931 . S
H295 C280 0.929 . S
H296 C282 0.930 . S
Co297 N301 2.148 . S
Co297 N307 2.128 . S
Co297 N317 2.194 . S
Co297 O322 2.351 . S
Co297 O323 2.155 . S
Co297 O324 2.096 . S
C298 N301 1.301 . S
C298 N302 1.328 . S
C298 H303 0.930 . S
C299 C300 1.333 . S
C299 N301 1.317 . S
C299 H304 0.930 . S
C300 C299 1.333 . S
C300 N302 1.350 . S
C300 H326 0.931 . S
N301 Co297 2.148 . S
N301 C298 1.301 . S
N301 C299 1.317 . S
N302 C298 1.328 . S
N302 C300 1.350 . S
H303 C298 0.930 . S
H304 C299 0.930 . S
C305 O306 1.224 . S
C305 O324 1.247 . S
O306 C305 1.224 . S
N307 Co297 2.128 . S
N307 C308 1.355 . S
N307 C310 1.311 . S
C308 N307 1.355 . S
C308 C309 1.363 . S
C308 H320 0.929 . S
C309 C308 1.363 . S
C309 N311 1.375 1_554 S
C309 H327 0.931 1_554 S
C310 N307 1.311 . S
C310 N311 1.347 1_554 S
C310 H321 0.929 . S
N311 C309 1.375 1_556 S
N311 C310 1.347 1_556 S
C312 C315 1.365 . S
C312 N317 1.328 . S
C312 H318 0.929 . S
C313 C314 1.362 . S
C313 C316 1.378 . S
C313 H328 0.929 . S
C314 C313 1.362 . S
C314 C315 1.366 . S
C315 C312 1.365 . S
C315 C314 1.366 . S
C315 H329 0.930 . S
C316 C313 1.378 . S
C316 N317 1.315 . S
C316 H319 0.930 . S
N317 Co297 2.194 . S
N317 C312 1.328 . S
N317 C316 1.315 . S
H318 C312 0.929 . S
H319 C316 0.930 . S
H320 C308 0.929 . S
H321 C310 0.929 . S
O322 Co297 2.351 . S
O322 C325 1.244 . S
O323 Co297 2.155 . S
O323 C325 1.240 . S
O324 Co297 2.096 . S
O324 C305 1.247 . S
C325 O322 1.244 . S
C325 O323 1.240 . S
H326 C300 0.931 . S
H327 C309 0.931 1_556 S
H328 C313 0.929 . S
H329 C315 0.930 . S
Co330 N334 2.148 . S
Co330 N340 2.128 . S
Co330 N350 2.194 . S
Co330 O355 2.351 . S
Co330 O356 2.155 . S
Co330 O357 2.096 . S
C331 N334 1.301 . S
C331 N335 1.328 . S
C331 H336 0.930 . S
C332 C333 1.333 . S
C332 N334 1.317 . S
C332 H337 0.930 . S
C333 C332 1.333 . S
C333 N335 1.350 . S
C333 H359 0.931 . S
N334 Co330 2.148 . S
N334 C331 1.301 . S
N334 C332 1.317 . S
N335 C331 1.328 . S
N335 C333 1.350 . S
H336 C331 0.930 . S
H337 C332 0.930 . S
C338 O339 1.224 . S
C338 O357 1.247 . S
O339 C338 1.224 . S
N340 Co330 2.128 . S
N340 C341 1.355 . S
N340 C343 1.311 . S
C341 N340 1.355 . S
C341 C342 1.363 . S
C341 H353 0.929 . S
C342 C341 1.363 . S
C342 N344 1.375 . S
C342 H360 0.931 . S
C343 N340 1.311 . S
C343 N344 1.347 . S
C343 H354 0.929 . S
N344 C342 1.375 . S
N344 C343 1.347 . S
C345 C348 1.365 . S
C345 N350 1.328 . S
C345 H351 0.929 . S
C346 C347 1.362 . S
C346 C349 1.378 . S
C346 H361 0.929 . S
C347 C346 1.362 . S
C347 C348 1.366 . S
C348 C345 1.365 . S
C348 C347 1.366 . S
C348 H362 0.930 . S
C349 C346 1.378 . S
C349 N350 1.315 . S
C349 H352 0.930 . S
N350 Co330 2.194 . S
N350 C345 1.328 . S
N350 C349 1.315 . S
H351 C345 0.929 . S
H352 C349 0.930 . S
H353 C341 0.929 . S
H354 C343 0.929 . S
O355 Co330 2.351 . S
O355 C358 1.244 . S
O356 Co330 2.155 . S
O356 C358 1.240 . S
O357 Co330 2.096 . S
O357 C338 1.247 . S
C358 O355 1.244 . S
C358 O356 1.240 . S
H359 C333 0.931 . S
H360 C342 0.931 . S
H361 C346 0.929 . S
H362 C348 0.930 . S
Co363 N367 2.148 . S
Co363 N373 2.128 . S
Co363 N383 2.194 . S
Co363 O388 2.351 . S
Co363 O389 2.155 . S
Co363 O390 2.096 . S
C364 N367 1.301 . S
C364 N368 1.328 . S
C364 H369 0.930 . S
C365 C366 1.333 . S
C365 N367 1.317 . S
C365 H370 0.930 . S
C366 C365 1.333 . S
C366 N368 1.350 . S
C366 H392 0.931 . S
N367 Co363 2.148 . S
N367 C364 1.301 . S
N367 C365 1.317 . S
N368 C364 1.328 . S
N368 C366 1.350 . S
H369 C364 0.930 . S
H370 C365 0.930 . S
C371 O372 1.224 . S
C371 O390 1.247 . S
O372 C371 1.224 . S
N373 Co363 2.128 . S
N373 C374 1.355 . S
N373 C376 1.311 . S
C374 N373 1.355 . S
C374 C375 1.363 . S
C374 H386 0.929 . S
C375 C374 1.363 . S
C375 N377 1.375 . S
C375 H393 0.931 . S
C376 N373 1.311 . S
C376 N377 1.347 . S
C376 H387 0.929 . S
N377 C375 1.375 . S
N377 C376 1.347 . S
C378 C381 1.365 . S
C378 N383 1.328 . S
C378 H384 0.929 . S
C379 C380 1.362 . S
C379 C382 1.378 . S
C379 H394 0.929 . S
C380 C379 1.362 . S
C380 C381 1.366 . S
C381 C378 1.365 . S
C381 C380 1.366 . S
C381 H395 0.930 . S
C382 C379 1.378 . S
C382 N383 1.315 . S
C382 H385 0.930 . S
N383 Co363 2.194 . S
N383 C378 1.328 . S
N383 C382 1.315 . S
H384 C378 0.929 . S
H385 C382 0.930 . S
H386 C374 0.929 . S
H387 C376 0.929 . S
O388 Co363 2.351 . S
O388 C391 1.244 . S
O389 Co363 2.155 . S
O389 C391 1.240 . S
O390 Co363 2.096 . S
O390 C371 1.247 . S
C391 O388 1.244 . S
C391 O389 1.240 . S
H392 C366 0.931 . S
H393 C375 0.931 . S
H394 C379 0.929 . S
H395 C381 0.930 . S
H396 C402 0.930 1_556 S
H397 C406 0.930 . S
H398 C411 0.929 . S
H399 C409 0.929 1_556 S
H400 C404 0.929 . S
H401 C410 0.929 1_556 S
C402 H396 0.930 1_554 S
C402 C403 1.367 . S
C402 C410 1.378 . S
C403 C402 1.367 . S
C403 C411 1.433 . S
C404 H400 0.929 . S
C404 C406 1.378 . S
C404 C408 1.350 . S
C405 C408 1.463 . S
C405 C410 1.350 . S
C405 N413 1.427 . S
C406 H397 0.930 . S
C406 C404 1.378 . S
C406 C407 1.367 . S
C407 C406 1.367 . S
C407 C409 1.433 . S
C408 C404 1.350 . S
C408 C405 1.463 . S
C408 N412 1.427 . S
C409 H399 0.929 1_554 S
C409 C407 1.433 . S
C409 N412 1.384 . S
C410 H401 0.929 1_554 S
C410 C402 1.378 . S
C410 C405 1.350 . S
C411 H398 0.929 . S
C411 C403 1.433 . S
C411 N413 1.384 . S
N412 C408 1.427 . S
N412 C409 1.384 . S
N413 C405 1.427 . S
N413 C411 1.384 . S
H414 C420 0.930 . S
H415 C424 0.930 . S
H416 C429 0.929 . S
H417 C427 0.929 . S
H418 C422 0.929 . S
H419 C428 0.929 . S
C420 H414 0.930 . S
C420 C421 1.367 . S
C420 C428 1.378 . S
C421 C420 1.367 . S
C421 C429 1.433 . S
C422 H418 0.929 . S
C422 C424 1.378 . S
C422 C426 1.350 . S
C423 C426 1.463 . S
C423 C428 1.350 . S
C423 N431 1.427 . S
C424 H415 0.930 . S
C424 C422 1.378 . S
C424 C425 1.367 . S
C425 C424 1.367 . S
C425 C427 1.433 . S
C426 C422 1.350 . S
C426 C423 1.463 . S
C426 N430 1.427 . S
C427 H417 0.929 . S
C427 C425 1.433 . S
C427 N430 1.384 . S
C428 H419 0.929 . S
C428 C420 1.378 . S
C428 C423 1.350 . S
C429 H416 0.929 . S
C429 C421 1.433 . S
C429 N431 1.384 . S
N430 C426 1.427 . S
N430 C427 1.384 . S
N431 C423 1.427 . S
N431 C429 1.384 . S
H432 C438 0.930 . S
H433 C442 0.930 . S
H434 C447 0.929 . S
H435 C445 0.929 . S
H436 C440 0.929 . S
H437 C446 0.929 . S
C438 H432 0.930 . S
C438 C439 1.367 . S
C438 C446 1.378 . S
C439 C438 1.367 . S
C439 C447 1.433 . S
C440 H436 0.929 . S
C440 C442 1.378 . S
C440 C444 1.350 . S
C441 C444 1.463 . S
C441 C446 1.350 . S
C441 N449 1.427 . S
C442 H433 0.930 . S
C442 C440 1.378 . S
C442 C443 1.367 . S
C443 C442 1.367 . S
C443 C445 1.433 . S
C444 C440 1.350 . S
C444 C441 1.463 . S
C444 N448 1.427 . S
C445 H435 0.929 . S
C445 C443 1.433 . S
C445 N448 1.384 . S
C446 H437 0.929 . S
C446 C438 1.378 . S
C446 C441 1.350 . S
C447 H434 0.929 . S
C447 C439 1.433 . S
C447 N449 1.384 . S
N448 C444 1.427 . S
N448 C445 1.384 . S
N449 C441 1.427 . S
N449 C447 1.384 . S
H450 C456 0.930 . S
H451 C460 0.930 . S
H452 C465 0.929 . S
H453 C463 0.929 . S
H454 C458 0.929 . S
H455 C464 0.929 . S
C456 H450 0.930 . S
C456 C457 1.367 . S
C456 C464 1.378 . S
C457 C456 1.367 . S
C457 C465 1.433 . S
C458 H454 0.929 . S
C458 C460 1.378 . S
C458 C462 1.350 . S
C459 C462 1.463 . S
C459 C464 1.350 . S
C459 N467 1.427 . S
C460 H451 0.930 . S
C460 C458 1.378 . S
C460 C461 1.367 . S
C461 C460 1.367 . S
C461 C463 1.433 . S
C462 C458 1.350 . S
C462 C459 1.463 . S
C462 N466 1.427 . S
C463 H453 0.929 . S
C463 C461 1.433 . S
C463 N466 1.384 . S
C464 H455 0.929 . S
C464 C456 1.378 . S
C464 C459 1.350 . S
C465 H452 0.929 . S
C465 C457 1.433 . S
C465 N467 1.384 . S
N466 C462 1.427 . S
N466 C463 1.384 . S
N467 C459 1.427 . S
N467 C465 1.384 . S
H468 C474 0.930 . S
H469 C478 0.930 . S
H470 C483 0.929 . S
H471 C481 0.929 . S
H472 C476 0.929 . S
H473 C482 0.929 . S
C474 H468 0.930 . S
C474 C475 1.367 . S
C474 C482 1.378 . S
C475 C474 1.367 . S
C475 C483 1.433 . S
C476 H472 0.929 . S
C476 C478 1.378 . S
C476 C480 1.350 . S
C477 C480 1.463 . S
C477 C482 1.350 . S
C477 N485 1.427 . S
C478 H469 0.930 . S
C478 C476 1.378 . S
C478 C479 1.367 . S
C479 C478 1.367 . S
C479 C481 1.433 . S
C480 C476 1.350 . S
C480 C477 1.463 . S
C480 N484 1.427 . S
C481 H471 0.929 . S
C481 C479 1.433 . S
C481 N484 1.384 . S
C482 H473 0.929 . S
C482 C474 1.378 . S
C482 C477 1.350 . S
C483 H470 0.929 . S
C483 C475 1.433 . S
C483 N485 1.384 . S
N484 C480 1.427 . S
N484 C481 1.384 . S
N485 C477 1.427 . S
N485 C483 1.384 . S
H486 C492 0.930 . S
H487 C496 0.930 1_554 S
H488 C501 0.929 1_554 S
H489 C499 0.929 . S
H490 C494 0.929 1_554 S
H491 C500 0.929 . S
C492 H486 0.930 . S
C492 C493 1.367 . S
C492 C500 1.378 . S
C493 C492 1.367 . S
C493 C501 1.433 . S
C494 H490 0.929 1_556 S
C494 C496 1.378 . S
C494 C498 1.350 . S
C495 C498 1.463 . S
C495 C500 1.350 . S
C495 N503 1.427 . S
C496 H487 0.930 1_556 S
C496 C494 1.378 . S
C496 C497 1.367 . S
C497 C496 1.367 . S
C497 C499 1.433 . S
C498 C494 1.350 . S
C498 C495 1.463 . S
C498 N502 1.427 . S
C499 H489 0.929 . S
C499 C497 1.433 . S
C499 N502 1.384 . S
C500 H491 0.929 . S
C500 C492 1.378 . S
C500 C495 1.350 . S
C501 H488 0.929 1_556 S
C501 C493 1.433 . S
C501 N503 1.384 . S
N502 C498 1.427 . S
N502 C499 1.384 . S
N503 C495 1.427 . S
N503 C501 1.384 . S
H504 C510 0.930 . S
H505 C514 0.930 . S
H506 C519 0.929 . S
H507 C517 0.929 . S
H508 C512 0.929 . S
H509 C518 0.929 . S
C510 H504 0.930 . S
C510 C511 1.367 . S
C510 C518 1.378 . S
C511 C510 1.367 . S
C511 C519 1.433 . S
C512 H508 0.929 . S
C512 C514 1.378 . S
C512 C516 1.350 . S
C513 C516 1.463 . S
C513 C518 1.350 . S
C513 N521 1.427 . S
C514 H505 0.930 . S
C514 C512 1.378 . S
C514 C515 1.367 . S
C515 C514 1.367 . S
C515 C517 1.433 . S
C516 C512 1.350 . S
C516 C513 1.463 . S
C516 N520 1.427 . S
C517 H507 0.929 . S
C517 C515 1.433 . S
C517 N520 1.384 . S
C518 H509 0.929 . S
C518 C510 1.378 . S
C518 C513 1.350 . S
C519 H506 0.929 . S
C519 C511 1.433 . S
C519 N521 1.384 . S
N520 C516 1.427 . S
N520 C517 1.384 . S
N521 C513 1.427 . S
N521 C519 1.384 . S
H522 C528 0.930 . S
H523 C532 0.930 . S
H524 C537 0.929 . S
H525 C535 0.929 . S
H526 C530 0.929 . S
H527 C536 0.929 . S
C528 H522 0.930 . S
C528 C529 1.367 . S
C528 C536 1.378 . S
C529 C528 1.367 . S
C529 C537 1.433 . S
C530 H526 0.929 . S
C530 C532 1.378 . S
C530 C534 1.350 . S
C531 C534 1.463 . S
C531 C536 1.350 . S
C531 N539 1.427 . S
C532 H523 0.930 . S
C532 C530 1.378 . S
C532 C533 1.367 . S
C533 C532 1.367 . S
C533 C535 1.433 . S
C534 C530 1.350 . S
C534 C531 1.463 . S
C534 N538 1.427 . S
C535 H525 0.929 . S
C535 C533 1.433 . S
C535 N538 1.384 . S
C536 H527 0.929 . S
C536 C528 1.378 . S
C536 C531 1.350 . S
C537 H524 0.929 . S
C537 C529 1.433 . S
C537 N539 1.384 . S
N538 C534 1.427 . S
N538 C535 1.384 . S
N539 C531 1.427 . S
N539 C537 1.384 . S
H540 C546 0.930 . S
H541 C550 0.930 . S
H542 C555 0.929 . S
H543 C553 0.929 . S
H544 C548 0.929 1_556 S
H545 C554 0.929 . S
C546 H540 0.930 . S
C546 C547 1.367 . S
C546 C554 1.378 . S
C547 C546 1.367 . S
C547 C555 1.433 . S
C548 H544 0.929 1_554 S
C548 C550 1.378 . S
C548 C552 1.350 1_554 S
C549 C552 1.463 . S
C549 C554 1.350 . S
C549 N557 1.427 . S
C550 H541 0.930 . S
C550 C548 1.378 . S
C550 C551 1.367 . S
C551 C550 1.367 . S
C551 C553 1.433 . S
C552 C548 1.350 1_556 S
C552 C549 1.463 . S
C552 N556 1.427 1_556 S
C553 H543 0.929 . S
C553 C551 1.433 . S
C553 N556 1.384 . S
C554 H545 0.929 . S
C554 C546 1.378 . S
C554 C549 1.350 . S
C555 H542 0.929 . S
C555 C547 1.433 . S
C555 N557 1.384 . S
N556 C552 1.427 1_554 S
N556 C553 1.384 . S
N557 C549 1.427 . S
N557 C555 1.384 . S
H558 C564 0.930 . S
H559 C568 0.930 . S
H560 C573 0.929 . S
H561 C571 0.929 . S
H562 C566 0.929 . S
H563 C572 0.929 . S
C564 H558 0.930 . S
C564 C565 1.367 . S
C564 C572 1.378 1_556 S
C565 C564 1.367 . S
C565 C573 1.433 . S
C566 H562 0.929 . S
C566 C568 1.378 . S
C566 C570 1.350 . S
C567 C570 1.463 . S
C567 C572 1.350 . S
C567 N575 1.427 . S
C568 H559 0.930 . S
C568 C566 1.378 . S
C568 C569 1.367 . S
C569 C568 1.367 . S
C569 C571 1.433 . S
C570 C566 1.350 . S
C570 C567 1.463 . S
C570 N574 1.427 . S
C571 H561 0.929 . S
C571 C569 1.433 . S
C571 N574 1.384 . S
C572 H563 0.929 . S
C572 C564 1.378 1_554 S
C572 C567 1.350 . S
C573 H560 0.929 . S
C573 C565 1.433 . S
C573 N575 1.384 1_556 S
N574 C570 1.427 . S
N574 C571 1.384 . S
N575 C567 1.427 . S
N575 C573 1.384 1_554 S
H576 C582 0.930 . S
H577 C586 0.930 . S
H578 C591 0.929 . S
H579 C589 0.929 . S
H580 C584 0.929 . S
H581 C590 0.929 . S
C582 H576 0.930 . S
C582 C583 1.367 . S
C582 C590 1.378 . S
C583 C582 1.367 . S
C583 C591 1.433 . S
C584 H580 0.929 . S
C584 C586 1.378 . S
C584 C588 1.350 . S
C585 C588 1.463 . S
C585 C590 1.350 . S
C585 N593 1.427 . S
C586 H577 0.930 . S
C586 C584 1.378 . S
C586 C587 1.367 . S
C587 C586 1.367 . S
C587 C589 1.433 . S
C588 C584 1.350 . S
C588 C585 1.463 . S
C588 N592 1.427 . S
C589 H579 0.929 . S
C589 C587 1.433 . S
C589 N592 1.384 . S
C590 H581 0.929 . S
C590 C582 1.378 . S
C590 C585 1.350 . S
C591 H578 0.929 . S
C591 C583 1.433 . S
C591 N593 1.384 . S
N592 C588 1.427 . S
N592 C589 1.384 . S
N593 C585 1.427 . S
N593 C591 1.384 . S
H594 C600 0.930 . S
H595 C604 0.930 . S
H596 C609 0.929 . S
H597 C607 0.929 . S
H598 C602 0.929 . S
H599 C608 0.929 . S
C600 H594 0.930 . S
C600 C601 1.367 . S
C600 C608 1.378 . S
C601 C600 1.367 . S
C601 C609 1.433 . S
C602 H598 0.929 . S
C602 C604 1.378 . S
C602 C606 1.350 . S
C603 C606 1.463 . S
C603 C608 1.350 . S
C603 N611 1.427 . S
C604 H595 0.930 . S
C604 C602 1.378 . S
C604 C605 1.367 . S
C605 C604 1.367 . S
C605 C607 1.433 . S
C606 C602 1.350 . S
C606 C603 1.463 . S
C606 N610 1.427 . S
C607 H597 0.929 . S
C607 C605 1.433 . S
C607 N610 1.384 . S
C608 H599 0.929 . S
C608 C600 1.378 . S
C608 C603 1.350 . S
C609 H596 0.929 . S
C609 C601 1.433 . S
C609 N611 1.384 . S
N610 C606 1.427 . S
N610 C607 1.384 . S
N611 C603 1.427 . S
N611 C609 1.384 . S
H612 C618 0.930 . S
H613 C622 0.930 . S
H614 C627 0.929 . S
H615 C625 0.929 . S
H616 C620 0.929 . S
H617 C626 0.929 . S
C618 H612 0.930 . S
C618 C619 1.367 . S
C618 C626 1.378 . S
C619 C618 1.367 . S
C619 C627 1.433 . S
C620 H616 0.929 . S
C620 C622 1.378 . S
C620 C624 1.350 . S
C621 C624 1.463 . S
C621 C626 1.350 . S
C621 N629 1.427 . S
C622 H613 0.930 . S
C622 C620 1.378 . S
C622 C623 1.367 . S
C623 C622 1.367 . S
C623 C625 1.433 . S
C624 C620 1.350 . S
C624 C621 1.463 . S
C624 N628 1.427 . S
C625 H615 0.929 . S
C625 C623 1.433 . S
C625 N628 1.384 . S
C626 H617 0.929 . S
C626 C618 1.378 . S
C626 C621 1.350 . S
C627 H614 0.929 . S
C627 C619 1.433 . S
C627 N629 1.384 . S
N628 C624 1.427 . S
N628 C625 1.384 . S
N629 C621 1.427 . S
N629 C627 1.384 . S
H630 C636 0.930 . S
H631 C640 0.930 . S
H632 C645 0.929 . S
H633 C643 0.929 . S
H634 C638 0.929 . S
H635 C644 0.929 . S
C636 H630 0.930 . S
C636 C637 1.367 . S
C636 C644 1.378 . S
C637 C636 1.367 . S
C637 C645 1.433 . S
C638 H634 0.929 . S
C638 C640 1.378 . S
C638 C642 1.350 . S
C639 C642 1.463 . S
C639 C644 1.350 . S
C639 N647 1.427 . S
C640 H631 0.930 . S
C640 C638 1.378 . S
C640 C641 1.367 . S
C641 C640 1.367 . S
C641 C643 1.433 . S
C642 C638 1.350 . S
C642 C639 1.463 . S
C642 N646 1.427 . S
C643 H633 0.929 . S
C643 C641 1.433 . S
C643 N646 1.384 . S
C644 H635 0.929 . S
C644 C636 1.378 . S
C644 C639 1.350 . S
C645 H632 0.929 . S
C645 C637 1.433 . S
C645 N647 1.384 . S
N646 C642 1.427 . S
N646 C643 1.384 . S
N647 C639 1.427 . S
N647 C645 1.384 . S
H648 C654 0.930 . S
H649 C658 0.930 . S
H650 C663 0.929 . S
H651 C661 0.929 . S
H652 C656 0.929 . S
H653 C662 0.929 . S
C654 H648 0.930 . S
C654 C655 1.367 . S
C654 C662 1.378 . S
C655 C654 1.367 . S
C655 C663 1.433 . S
C656 H652 0.929 . S
C656 C658 1.378 . S
C656 C660 1.350 . S
C657 C660 1.463 . S
C657 C662 1.350 . S
C657 N665 1.427 . S
C658 H649 0.930 . S
C658 C656 1.378 . S
C658 C659 1.367 . S
C659 C658 1.367 . S
C659 C661 1.433 . S
C660 C656 1.350 . S
C660 C657 1.463 . S
C660 N664 1.427 . S
C661 H651 0.929 . S
C661 C659 1.433 . S
C661 N664 1.384 . S
C662 H653 0.929 . S
C662 C654 1.378 . S
C662 C657 1.350 . S
C663 H650 0.929 . S
C663 C655 1.433 . S
C663 N665 1.384 . S
N664 C660 1.427 . S
N664 C661 1.384 . S
N665 C657 1.427 . S
N665 C663 1.384 . S
H666 C672 0.930 . S
H667 C676 0.930 . S
H668 C681 0.929 . S
H669 C679 0.929 . S
H670 C674 0.929 . S
H671 C680 0.929 . S
C672 H666 0.930 . S
C672 C673 1.367 . S
C672 C680 1.378 . S
C673 C672 1.367 . S
C673 C681 1.433 . S
C674 H670 0.929 . S
C674 C676 1.378 . S
C674 C678 1.350 . S
C675 C678 1.463 . S
C675 C680 1.350 . S
C675 N683 1.427 . S
C676 H667 0.930 . S
C676 C674 1.378 . S
C676 C677 1.367 . S
C677 C676 1.367 . S
C677 C679 1.433 . S
C678 C674 1.350 . S
C678 C675 1.463 . S
C678 N682 1.427 . S
C679 H669 0.929 . S
C679 C677 1.433 . S
C679 N682 1.384 . S
C680 H671 0.929 . S
C680 C672 1.378 . S
C680 C675 1.350 . S
C681 H668 0.929 . S
C681 C673 1.433 . S
C681 N683 1.384 . S
N682 C678 1.427 . S
N682 C679 1.384 . S
N683 C675 1.427 . S
N683 C681 1.384 . S
H684 C690 0.930 . S
H685 C694 0.930 . S
H686 C699 0.929 . S
H687 C697 0.929 . S
H688 C692 0.929 . S
H689 C698 0.929 . S
C690 H684 0.930 . S
C690 C691 1.367 . S
C690 C698 1.378 . S
C691 C690 1.367 . S
C691 C699 1.433 . S
C692 H688 0.929 . S
C692 C694 1.378 1_556 S
C692 C696 1.350 . S
C693 C696 1.463 . S
C693 C698 1.350 . S
C693 N701 1.427 . S
C694 H685 0.930 . S
C694 C692 1.378 1_554 S
C694 C695 1.367 . S
C695 C694 1.367 . S
C695 C697 1.433 . S
C696 C692 1.350 . S
C696 C693 1.463 . S
C696 N700 1.427 . S
C697 H687 0.929 . S
C697 C695 1.433 . S
C697 N700 1.384 1_554 S
C698 H689 0.929 . S
C698 C690 1.378 . S
C698 C693 1.350 . S
C699 H686 0.929 . S
C699 C691 1.433 . S
C699 N701 1.384 . S
N700 C696 1.427 . S
N700 C697 1.384 1_556 S
N701 C693 1.427 . S
N701 C699 1.384 . S
H702 C708 0.930 . S
H703 C712 0.930 . S
H704 C717 0.929 . S
H705 C715 0.929 . S
H706 C710 0.929 . S
H707 C716 0.929 . S
C708 H702 0.930 . S
C708 C709 1.367 . S
C708 C716 1.378 . S
C709 C708 1.367 . S
C709 C717 1.433 . S
C710 H706 0.929 . S
C710 C712 1.378 . S
C710 C714 1.350 1_556 S
C711 C714 1.463 . S
C711 C716 1.350 . S
C711 N719 1.427 . S
C712 H703 0.930 . S
C712 C710 1.378 . S
C712 C713 1.367 . S
C713 C712 1.367 . S
C713 C715 1.433 . S
C714 C710 1.350 1_554 S
C714 C711 1.463 . S
C714 N718 1.427 1_554 S
C715 H705 0.929 . S
C715 C713 1.433 . S
C715 N718 1.384 . S
C716 H707 0.929 . S
C716 C708 1.378 . S
C716 C711 1.350 . S
C717 H704 0.929 . S
C717 C709 1.433 . S
C717 N719 1.384 . S
N718 C714 1.427 1_556 S
N718 C715 1.384 . S
N719 C711 1.427 . S
N719 C717 1.384 . S
H720 C726 0.930 . S
H721 C730 0.930 . S
H722 C735 0.929 . S
H723 C733 0.929 . S
H724 C728 0.929 . S
H725 C734 0.929 . S
C726 H720 0.930 . S
C726 C727 1.367 . S
C726 C734 1.378 . S
C727 C726 1.367 . S
C727 C735 1.433 . S
C728 H724 0.929 . S
C728 C730 1.378 . S
C728 C732 1.350 . S
C729 C732 1.463 . S
C729 C734 1.350 . S
C729 N737 1.427 . S
C730 H721 0.930 . S
C730 C728 1.378 . S
C730 C731 1.367 . S
C731 C730 1.367 . S
C731 C733 1.433 . S
C732 C728 1.350 . S
C732 C729 1.463 . S
C732 N736 1.427 . S
C733 H723 0.929 . S
C733 C731 1.433 . S
C733 N736 1.384 . S
C734 H725 0.929 . S
C734 C726 1.378 . S
C734 C729 1.350 . S
C735 H722 0.929 . S
C735 C727 1.433 . S
C735 N737 1.384 . S
N736 C732 1.427 . S
N736 C733 1.384 . S
N737 C729 1.427 . S
N737 C735 1.384 . S
H738 C744 0.930 . S
H739 C748 0.930 . S
H740 C753 0.929 . S
H741 C751 0.929 . S
H742 C746 0.929 . S
H743 C752 0.929 . S
C744 H738 0.930 . S
C744 C745 1.367 . S
C744 C752 1.378 . S
C745 C744 1.367 . S
C745 C753 1.433 . S
C746 H742 0.929 . S
C746 C748 1.378 . S
C746 C750 1.350 . S
C747 C750 1.463 . S
C747 C752 1.350 . S
C747 N755 1.427 . S
C748 H739 0.930 . S
C748 C746 1.378 . S
C748 C749 1.367 . S
C749 C748 1.367 . S
C749 C751 1.433 . S
C750 C746 1.350 . S
C750 C747 1.463 . S
C750 N754 1.427 . S
C751 H741 0.929 . S
C751 C749 1.433 . S
C751 N754 1.384 . S
C752 H743 0.929 . S
C752 C744 1.378 . S
C752 C747 1.350 . S
C753 H740 0.929 . S
C753 C745 1.433 . S
C753 N755 1.384 . S
N754 C750 1.427 . S
N754 C751 1.384 . S
N755 C747 1.427 . S
N755 C753 1.384 . S
H756 C762 0.930 . S
H757 C766 0.930 . S
H758 C771 0.929 . S
H759 C769 0.929 . S
H760 C764 0.929 . S
H761 C770 0.929 . S
C762 H756 0.930 . S
C762 C763 1.367 . S
C762 C770 1.378 . S
C763 C762 1.367 . S
C763 C771 1.433 . S
C764 H760 0.929 . S
C764 C766 1.378 . S
C764 C768 1.350 . S
C765 C768 1.463 . S
C765 C770 1.350 . S
C765 N773 1.427 . S
C766 H757 0.930 . S
C766 C764 1.378 . S
C766 C767 1.367 . S
C767 C766 1.367 . S
C767 C769 1.433 . S
C768 C764 1.350 . S
C768 C765 1.463 . S
C768 N772 1.427 . S
C769 H759 0.929 . S
C769 C767 1.433 . S
C769 N772 1.384 . S
C770 H761 0.929 . S
C770 C762 1.378 . S
C770 C765 1.350 . S
C771 H758 0.929 . S
C771 C763 1.433 . S
C771 N773 1.384 . S
N772 C768 1.427 . S
N772 C769 1.384 . S
N773 C765 1.427 . S
N773 C771 1.384 . S
H774 C780 0.930 . S
H775 C784 0.930 . S
H776 C789 0.929 . S
H777 C787 0.929 . S
H778 C782 0.929 . S
H779 C788 0.929 . S
C780 H774 0.930 . S
C780 C781 1.367 . S
C780 C788 1.378 . S
C781 C780 1.367 . S
C781 C789 1.433 . S
C782 H778 0.929 . S
C782 C784 1.378 . S
C782 C786 1.350 . S
C783 C786 1.463 . S
C783 C788 1.350 . S
C783 N791 1.427 . S
C784 H775 0.930 . S
C784 C782 1.378 . S
C784 C785 1.367 . S
C785 C784 1.367 . S
C785 C787 1.433 . S
C786 C782 1.350 . S
C786 C783 1.463 . S
C786 N790 1.427 . S
C787 H777 0.929 . S
C787 C785 1.433 . S
C787 N790 1.384 . S
C788 H779 0.929 . S
C788 C780 1.378 . S
C788 C783 1.350 . S
C789 H776 0.929 . S
C789 C781 1.433 . S
C789 N791 1.384 . S
N790 C786 1.427 . S
N790 C787 1.384 . S
N791 C783 1.427 . S
N791 C789 1.384 . S
H792 C798 0.930 . S
H793 C802 0.930 . S
H794 C807 0.929 1_554 S
H795 C805 0.929 . S
H796 C800 0.929 . S
H797 C806 0.929 . S
C798 H792 0.930 . S
C798 C799 1.367 . S
C798 C806 1.378 . S
C799 C798 1.367 . S
C799 C807 1.433 . S
C800 H796 0.929 . S
C800 C802 1.378 . S
C800 C804 1.350 . S
C801 C804 1.463 . S
C801 C806 1.350 . S
C801 N809 1.427 . S
C802 H793 0.930 . S
C802 C800 1.378 . S
C802 C803 1.367 . S
C803 C802 1.367 . S
C803 C805 1.433 . S
C804 C800 1.350 . S
C804 C801 1.463 . S
C804 N808 1.427 . S
C805 H795 0.929 . S
C805 C803 1.433 . S
C805 N808 1.384 . S
C806 H797 0.929 . S
C806 C798 1.378 . S
C806 C801 1.350 . S
C807 H794 0.929 1_556 S
C807 C799 1.433 . S
C807 N809 1.384 . S
N808 C804 1.427 . S
N808 C805 1.384 . S
N809 C801 1.427 . S
N809 C807 1.384 . S
H810 C816 0.930 . S
H811 C820 0.930 . S
H812 C825 0.929 . S
H813 C823 0.929 . S
H814 C818 0.929 1_556 S
H815 C824 0.929 . S
C816 H810 0.930 . S
C816 C817 1.367 . S
C816 C824 1.378 . S
C817 C816 1.367 . S
C817 C825 1.433 . S
C818 H814 0.929 1_554 S
C818 C820 1.378 1_554 S
C818 C822 1.350 . S
C819 C822 1.463 . S
C819 C824 1.350 . S
C819 N827 1.427 . S
C820 H811 0.930 . S
C820 C818 1.378 1_556 S
C820 C821 1.367 1_556 S
C821 C820 1.367 1_554 S
C821 C823 1.433 . S
C822 C818 1.350 . S
C822 C819 1.463 . S
C822 N826 1.427 . S
C823 H813 0.929 . S
C823 C821 1.433 . S
C823 N826 1.384 . S
C824 H815 0.929 . S
C824 C816 1.378 . S
C824 C819 1.350 . S
C825 H812 0.929 . S
C825 C817 1.433 . S
C825 N827 1.384 . S
N826 C822 1.427 . S
N826 C823 1.384 . S
N827 C819 1.427 . S
N827 C825 1.384 . S
H828 C834 0.930 . S
H829 C838 0.930 . S
H830 C843 0.929 . S
H831 C841 0.929 . S
H832 C836 0.929 . S
H833 C842 0.929 . S
C834 H828 0.930 . S
C834 C835 1.367 . S
C834 C842 1.378 . S
C835 C834 1.367 . S
C835 C843 1.433 1_554 S
C836 H832 0.929 . S
C836 C838 1.378 . S
C836 C840 1.350 . S
C837 C840 1.463 1_544 S
C837 C842 1.350 . S
C837 N845 1.427 1_554 S
C838 H829 0.930 . S
C838 C836 1.378 . S
C838 C839 1.367 . S
C839 C838 1.367 . S
C839 C841 1.433 1_556 S
C840 C836 1.350 . S
C840 C837 1.463 1_566 S
C840 N844 1.427 1_556 S
C841 H831 0.929 . S
C841 C839 1.433 1_554 S
C841 N844 1.384 . S
C842 H833 0.929 . S
C842 C834 1.378 . S
C842 C837 1.350 . S
C843 H830 0.929 . S
C843 C835 1.433 1_556 S
C843 N845 1.384 . S
N844 C840 1.427 1_554 S
N844 C841 1.384 . S
N845 C837 1.427 1_556 S
N845 C843 1.384 . S
H846 C852 0.930 . S
H847 C856 0.930 . S
H848 C861 0.924 1_556 S
H849 C859 0.929 . S
H850 C854 0.929 . S
H851 C860 0.929 . S
C852 H846 0.930 . S
C852 C853 1.367 . S
C852 C860 1.378 . S
C853 C852 1.367 . S
C853 C861 1.433 . S
C854 H850 0.929 . S
C854 C856 1.378 . S
C854 C858 1.350 . S
C855 C858 1.463 . S
C855 C860 1.350 . S
C855 N863 1.427 . S
C856 H847 0.930 . S
C856 C854 1.378 . S
C856 C857 1.367 . S
C857 C856 1.367 . S
C857 C859 1.433 . S
C858 C854 1.350 . S
C858 C855 1.463 . S
C858 N862 1.427 . S
C859 H849 0.929 . S
C859 C857 1.433 . S
C859 N862 1.384 . S
C860 H851 0.929 . S
C860 C852 1.378 . S
C860 C855 1.350 . S
C861 H848 0.924 1_554 S
C861 C853 1.433 . S
C861 N863 1.384 . S
N862 C858 1.427 . S
N862 C859 1.384 . S
N863 C855 1.427 . S
N863 C861 1.384 . S
H864 C870 0.930 . S
H865 C874 0.930 . S
H866 C879 0.929 . S
H867 C877 0.929 . S
H868 C872 0.929 . S
H869 C878 0.929 . S
C870 H864 0.930 . S
C870 C871 1.367 . S
C870 C878 1.378 . S
C871 C870 1.367 . S
C871 C879 1.433 . S
C872 H868 0.929 . S
C872 C874 1.378 . S
C872 C876 1.350 . S
C873 C876 1.463 1_455 S
C873 C878 1.350 . S
C873 N881 1.427 . S
C874 H865 0.930 . S
C874 C872 1.378 . S
C874 C875 1.367 . S
C875 C874 1.367 . S
C875 C877 1.433 . S
C876 C872 1.350 . S
C876 C873 1.463 1_655 S
C876 N880 1.427 . S
C877 H867 0.929 . S
C877 C875 1.433 . S
C877 N880 1.384 . S
C878 H869 0.929 . S
C878 C870 1.378 . S
C878 C873 1.350 . S
C879 H866 0.929 . S
C879 C871 1.433 . S
C879 N881 1.384 . S
N880 C876 1.427 . S
N880 C877 1.384 . S
N881 C873 1.427 . S
N881 C879 1.384 . S
H882 C888 0.930 . S
H883 C892 0.930 . S
H884 C897 0.929 . S
H885 C895 0.929 . S
H886 C890 0.929 . S
H887 C896 0.929 . S
C888 H882 0.930 . S
C888 C889 1.367 . S
C888 C896 1.378 . S
C889 C888 1.367 . S
C889 C897 1.433 . S
C890 H886 0.929 . S
C890 C892 1.378 . S
C890 C894 1.350 . S
C891 C894 1.463 1_565 S
C891 C896 1.350 . S
C891 N899 1.427 . S
C892 H883 0.930 . S
C892 C890 1.378 . S
C892 C893 1.367 . S
C893 C892 1.367 . S
C893 C895 1.433 . S
C894 C890 1.350 . S
C894 C891 1.463 1_545 S
C894 N898 1.427 . S
C895 H885 0.929 . S
C895 C893 1.433 . S
C895 N898 1.384 . S
C896 H887 0.929 . S
C896 C888 1.378 . S
C896 C891 1.350 . S
C897 H884 0.929 . S
C897 C889 1.433 . S
C897 N899 1.384 . S
N898 C894 1.427 . S
N898 C895 1.384 . S
N899 C891 1.427 . S
N899 C897 1.384 . S
H900 C906 0.930 . S
H901 C910 0.930 . S
H902 C915 0.929 . S
H903 C913 0.929 . S
H904 C908 0.929 . S
H905 C914 0.929 . S
C906 H900 0.930 . S
C906 C907 1.367 . S
C906 C914 1.378 . S
C907 C906 1.367 . S
C907 C915 1.433 . S
C908 H904 0.929 . S
C908 C910 1.378 . S
C908 C912 1.350 . S
C909 C912 1.463 . S
C909 C914 1.350 . S
C909 N917 1.427 . S
C910 H901 0.930 . S
C910 C908 1.378 . S
C910 C911 1.367 . S
C911 C910 1.367 . S
C911 C913 1.433 . S
C912 C908 1.350 . S
C912 C909 1.463 . S
C912 N916 1.427 . S
C913 H903 0.929 . S
C913 C911 1.433 . S
C913 N916 1.384 . S
C914 H905 0.929 . S
C914 C906 1.378 . S
C914 C909 1.350 . S
C915 H902 0.929 . S
C915 C907 1.433 . S
C915 N917 1.384 . S
N916 C912 1.427 . S
N916 C913 1.384 . S
N917 C909 1.427 . S
N917 C915 1.384 . S
H918 C924 0.941 . S
H919 C928 0.930 . S
H920 C933 0.929 . S
H921 C931 0.929 . S
H922 C926 0.929 . S
H923 C932 0.929 . S
C924 H918 0.941 . S
C924 C925 1.367 . S
C924 C932 1.378 . S
C925 C924 1.367 . S
C925 C933 1.433 . S
C926 H922 0.929 . S
C926 C928 1.378 . S
C926 C930 1.350 . S
C927 C930 1.463 1_455 S
C927 C932 1.350 . S
C927 N935 1.427 . S
C928 H919 0.930 . S
C928 C926 1.378 . S
C928 C929 1.367 . S
C929 C928 1.367 . S
C929 C931 1.433 . S
C930 C926 1.350 . S
C930 C927 1.463 1_655 S
C930 N934 1.427 . S
C931 H921 0.929 . S
C931 C929 1.433 . S
C931 N934 1.384 . S
C932 H923 0.929 . S
C932 C924 1.378 . S
C932 C927 1.350 . S
C933 H920 0.929 . S
C933 C925 1.433 . S
C933 N935 1.384 . S
N934 C930 1.427 . S
N934 C931 1.384 . S
N935 C927 1.427 . S
N935 C933 1.384 . S
C403 C281 1.303 . S
C407 C17 1.302 . S
C421 C314 1.296 . S
C425 C50 1.298 . S
C439 C347 1.297 . S
C443 C83 1.295 . S
C457 C380 1.302 . S
C461 C116 1.303 . S
C475 C149 1.302 . S
C479 C215 1.298 . S
C493 C248 1.301 . S
C497 C182 1.302 . S
C511 N5 1.424 . S
C515 N14 1.420 . S
C529 N47 1.419 . S
C533 N38 1.423 1_556 S
C547 N80 1.414 . S
C551 N71 1.419 . S
C565 N113 1.415 . S
C569 N104 1.420 . S
C583 N146 1.420 . S
C587 N137 1.424 . S
C601 N179 1.422 . S
C605 N170 1.425 . S
C619 N203 1.419 1_554 S
C623 N212 1.414 . S
C637 N245 1.416 . S
C641 N236 1.421 . S
C655 N269 1.426 . S
C659 N278 1.422 . S
C673 N302 1.419 . S
C677 N311 1.414 . S
C691 N335 1.421 . S
C695 N344 1.417 . S
C709 N377 1.422 . S
C713 N368 1.426 . S
C727 C8 1.558 . S
C731 C338 1.560 . S
C745 C41 1.559 . S
C749 C371 1.557 . S
C763 C74 1.557 . S
C767 C206 1.558 . S
C781 C239 1.560 . S
C785 C107 1.558 . S
C799 C272 1.557 1_556 S
C803 C140 1.560 . S
C817 C305 1.560 . S
C821 C173 1.557 1_554 S
C835 C28 1.157 . S
C839 C259 1.150 . S
C853 C292 1.153 . S
C857 C61 1.154 . S
C871 C325 1.160 . S
C875 C94 1.146 . S
C889 C127 1.160 . S
C893 C358 1.146 . S
C907 C391 1.157 . S
C911 C160 1.152 . S
C925 C193 1.154 . S
C929 C226 1.154 . S
