# Generated by pormake.
# Topology lcs, (4)-cn, num edge types: 1
# Building blocks:
#     Node 0, Type 0, BuildingBlock: ICAMEG_clean_sbu_1, # of connection points: 4
#     Node 1, Type 0, BuildingBlock: ICAMEG_clean_sbu_1, # of connection points: 4
#     Node 2, Type 0, BuildingBlock: ICAMEG_clean_sbu_1, # of connection points: 4
#     Node 3, Type 0, BuildingBlock: ICAMEG_clean_sbu_1, # of connection points: 4
#     Node 4, Type 0, BuildingBlock: ICAMEG_clean_sbu_1, # of connection points: 4
#     Node 5, Type 0, BuildingBlock: ICAMEG_clean_sbu_1, # of connection points: 4
#     Node 6, Type 0, BuildingBlock: ICAMEG_clean_sbu_1, # of connection points: 4
#     Node 7, Type 0, BuildingBlock: ICAMEG_clean_sbu_1, # of connection points: 4
#     Node 8, Type 0, BuildingBlock: ICAMEG_clean_sbu_1, # of connection points: 4
#     Node 9, Type 0, BuildingBlock: ICAMEG_clean_sbu_1, # of connection points: 4
#     Node 10, Type 0, BuildingBlock: ICAMEG_clean_sbu_1, # of connection points: 4
#     Node 11, Type 0, BuildingBlock: ICAMEG_clean_sbu_1, # of connection points: 4
#     Node 12, Type 0, BuildingBlock: ICAMEG_clean_sbu_1, # of connection points: 4
#     Node 13, Type 0, BuildingBlock: ICAMEG_clean_sbu_1, # of connection points: 4
#     Node 14, Type 0, BuildingBlock: ICAMEG_clean_sbu_1, # of connection points: 4
#     Node 15, Type 0, BuildingBlock: ICAMEG_clean_sbu_1, # of connection points: 4
#     Node 16, Type 0, BuildingBlock: ICAMEG_clean_sbu_1, # of connection points: 4
#     Node 17, Type 0, BuildingBlock: ICAMEG_clean_sbu_1, # of connection points: 4
#     Node 18, Type 0, BuildingBlock: ICAMEG_clean_sbu_1, # of connection points: 4
#     Node 19, Type 0, BuildingBlock: ICAMEG_clean_sbu_1, # of connection points: 4
#     Node 20, Type 0, BuildingBlock: ICAMEG_clean_sbu_1, # of connection points: 4
#     Node 21, Type 0, BuildingBlock: ICAMEG_clean_sbu_1, # of connection points: 4
#     Node 22, Type 0, BuildingBlock: ICAMEG_clean_sbu_1, # of connection points: 4
#     Node 23, Type 0, BuildingBlock: ICAMEG_clean_sbu_1, # of connection points: 4
#     Edge 24, Type (0, 0), BuildingBlock: ZUJKAS_clean_linker_0, # of connection points: 2
#     Edge 25, Type (0, 0), BuildingBlock: ZUJKAS_clean_linker_0, # of connection points: 2
#     Edge 26, Type (0, 0), BuildingBlock: ZUJKAS_clean_linker_0, # of connection points: 2
#     Edge 27, Type (0, 0), BuildingBlock: ZUJKAS_clean_linker_0, # of connection points: 2
#     Edge 28, Type (0, 0), BuildingBlock: ZUJKAS_clean_linker_0, # of connection points: 2
#     Edge 29, Type (0, 0), BuildingBlock: ZUJKAS_clean_linker_0, # of connection points: 2
#     Edge 30, Type (0, 0), BuildingBlock: ZUJKAS_clean_linker_0, # of connection points: 2
#     Edge 31, Type (0, 0), BuildingBlock: ZUJKAS_clean_linker_0, # of connection points: 2
#     Edge 32, Type (0, 0), BuildingBlock: ZUJKAS_clean_linker_0, # of connection points: 2
#     Edge 33, Type (0, 0), BuildingBlock: ZUJKAS_clean_linker_0, # of connection points: 2
#     Edge 34, Type (0, 0), BuildingBlock: ZUJKAS_clean_linker_0, # of connection points: 2
#     Edge 35, Type (0, 0), BuildingBlock: ZUJKAS_clean_linker_0, # of connection points: 2
#     Edge 36, Type (0, 0), BuildingBlock: ZUJKAS_clean_linker_0, # of connection points: 2
#     Edge 37, Type (0, 0), BuildingBlock: ZUJKAS_clean_linker_0, # of connection points: 2
#     Edge 38, Type (0, 0), BuildingBlock: ZUJKAS_clean_linker_0, # of connection points: 2
#     Edge 39, Type (0, 0), BuildingBlock: ZUJKAS_clean_linker_0, # of connection points: 2
#     Edge 40, Type (0, 0), BuildingBlock: ZUJKAS_clean_linker_0, # of connection points: 2
#     Edge 41, Type (0, 0), BuildingBlock: ZUJKAS_clean_linker_0, # of connection points: 2
#     Edge 42, Type (0, 0), BuildingBlock: ZUJKAS_clean_linker_0, # of connection points: 2
#     Edge 43, Type (0, 0), BuildingBlock: ZUJKAS_clean_linker_0, # of connection points: 2
#     Edge 44, Type (0, 0), BuildingBlock: ZUJKAS_clean_linker_0, # of connection points: 2
#     Edge 45, Type (0, 0), BuildingBlock: ZUJKAS_clean_linker_0, # of connection points: 2
#     Edge 46, Type (0, 0), BuildingBlock: ZUJKAS_clean_linker_0, # of connection points: 2
#     Edge 47, Type (0, 0), BuildingBlock: ZUJKAS_clean_linker_0, # of connection points: 2
#     Edge 48, Type (0, 0), BuildingBlock: ZUJKAS_clean_linker_0, # of connection points: 2
#     Edge 49, Type (0, 0), BuildingBlock: ZUJKAS_clean_linker_0, # of connection points: 2
#     Edge 50, Type (0, 0), BuildingBlock: ZUJKAS_clean_linker_0, # of connection points: 2
#     Edge 51, Type (0, 0), BuildingBlock: ZUJKAS_clean_linker_0, # of connection points: 2
#     Edge 52, Type (0, 0), BuildingBlock: ZUJKAS_clean_linker_0, # of connection points: 2
#     Edge 53, Type (0, 0), BuildingBlock: ZUJKAS_clean_linker_0, # of connection points: 2
#     Edge 54, Type (0, 0), BuildingBlock: ZUJKAS_clean_linker_0, # of connection points: 2
#     Edge 55, Type (0, 0), BuildingBlock: ZUJKAS_clean_linker_0, # of connection points: 2
#     Edge 56, Type (0, 0), BuildingBlock: ZUJKAS_clean_linker_0, # of connection points: 2
#     Edge 57, Type (0, 0), BuildingBlock: ZUJKAS_clean_linker_0, # of connection points: 2
#     Edge 58, Type (0, 0), BuildingBlock: ZUJKAS_clean_linker_0, # of connection points: 2
#     Edge 59, Type (0, 0), BuildingBlock: ZUJKAS_clean_linker_0, # of connection points: 2
#     Edge 60, Type (0, 0), BuildingBlock: ZUJKAS_clean_linker_0, # of connection points: 2
#     Edge 61, Type (0, 0), BuildingBlock: ZUJKAS_clean_linker_0, # of connection points: 2
#     Edge 62, Type (0, 0), BuildingBlock: ZUJKAS_clean_linker_0, # of connection points: 2
#     Edge 63, Type (0, 0), BuildingBlock: ZUJKAS_clean_linker_0, # of connection points: 2
#     Edge 64, Type (0, 0), BuildingBlock: ZUJKAS_clean_linker_0, # of connection points: 2
#     Edge 65, Type (0, 0), BuildingBlock: ZUJKAS_clean_linker_0, # of connection points: 2
#     Edge 66, Type (0, 0), BuildingBlock: ZUJKAS_clean_linker_0, # of connection points: 2
#     Edge 67, Type (0, 0), BuildingBlock: ZUJKAS_clean_linker_0, # of connection points: 2
#     Edge 68, Type (0, 0), BuildingBlock: ZUJKAS_clean_linker_0, # of connection points: 2
#     Edge 69, Type (0, 0), BuildingBlock: ZUJKAS_clean_linker_0, # of connection points: 2
#     Edge 70, Type (0, 0), BuildingBlock: ZUJKAS_clean_linker_0, # of connection points: 2
#     Edge 71, Type (0, 0), BuildingBlock: ZUJKAS_clean_linker_0, # of connection points: 2
# Relax obj value: 0.035
# Max RMSD: 0.108
# Mean RMSD: 0.107
data_MOF--net-lcs--node1-ICAMEG_clean_sbu_1--edge1-ZUJKAS_clean_linker_0
_symmetry_space_group_name_H-M    P1
_symmetry_Int_Tables_number       1
_symmetry_cell_setting            triclinic
loop_
_symmetry_equiv_pos_as_xyz
'x, y, z'
_cell_length_a     66.549053
_cell_length_b     66.607809
_cell_length_c     66.571611
_cell_angle_alpha  93.047404
_cell_angle_beta   93.074778
_cell_angle_gamma 93.132287
loop_
_atom_site_label
_atom_site_type_symbol
_atom_site_fract_x
_atom_site_fract_y
_atom_site_fract_z
_atom_type_partial_charge
Co0 Co 1.00889 0.25692 0.40978 0.0
Co1 Co 0.03051 0.2578 0.36408 0.0
O2 O 0.01642 0.27073 0.38588 0.0
C3 C 0.96556 0.26468 0.41124 0.0
O4 O 0.96216 0.24504 0.4105 0.0
C5 C 0.05523 0.29639 0.37357 0.0
O6 O 0.05598 0.29238 0.39269 0.0
O7 O 0.05194 0.24961 0.38367 0.0
O8 O 0.03415 0.2418 0.41017 0.0
H9 H 0.06693 0.20222 0.33058 0.0
H10 H 0.00946 0.30145 0.41015 0.0
O11 O 0.98351 0.27219 0.4101 0.0
H12 H 0.05767 0.28655 0.46547 0.0
H13 H 0.98186 0.25262 0.47884 0.0
H14 H 1.0091 0.21475 0.42174 0.0
H15 H 0.03894 0.25903 0.445 0.0
H16 H 0.99187 0.26992 0.44877 0.0
O17 O 0.0461 0.28397 0.36049 0.0
H18 H 0.04859 0.21844 0.35767 0.0
H19 H 0.04322 0.27057 0.32414 0.0
H20 H 0.99934 0.19685 0.45155 0.0
H21 H 0.02769 0.32946 0.43041 0.0
H22 H 0.9856 0.21582 0.48037 0.0
H23 H 0.05205 0.32208 0.45826 0.0
O24 O 0.99463 0.23469 0.39231 0.0
H25 H 0.98331 0.30594 0.33403 0.0
H26 H 1.0057 0.23656 0.32983 0.0
H27 H 0.97867 0.24616 0.30605 0.0
H28 H 0.96735 0.2811 0.30801 0.0
H29 H 0.01015 0.29563 0.35766 0.0
H30 H 0.06163 0.25497 0.29675 0.0
H31 H 0.07355 0.22052 0.29984 0.0
O32 O 0.01484 0.2315 0.36656 0.0
C33 C 0.05025 0.24159 0.40056 0.0
C34 C 0.06176 0.21722 0.32903 0.0
C35 C 0.05881 0.24684 0.31006 0.0
N36 N 0.04473 0.24537 0.34244 0.0
C37 C 0.05133 0.22646 0.3443 0.0
C38 C 0.04844 0.25561 0.32564 0.0
C39 C 0.06549 0.2275 0.31179 0.0
C40 C 0.01988 0.29811 0.42237 0.0
N41 N 0.02306 0.2786 0.42642 0.0
C42 C 0.03022 0.31404 0.43374 0.0
C43 C 0.04392 0.30989 0.44934 0.0
C44 C 0.04709 0.28996 0.45338 0.0
C45 C 0.0365 0.27442 0.44168 0.0
C46 C 0.98785 0.24419 0.46639 0.0
C47 C 1.00318 0.22311 0.43425 0.0
C48 C 0.99354 0.2539 0.44933 0.0
N49 N 1.00112 0.24336 0.43354 0.0
C50 C 0.99766 0.21289 0.45107 0.0
C51 C 0.98995 0.22354 0.46724 0.0
C52 C 1.00006 0.22526 0.37649 0.0
C53 C 0.98814 0.29068 0.333 0.0
C54 C 1.00078 0.25176 0.33087 0.0
C55 C 0.98551 0.25712 0.31731 0.0
C56 C 0.97918 0.27673 0.31842 0.0
N57 N 0.00955 0.26554 0.34509 0.0
C58 C 1.00336 0.28477 0.3463 0.0
Co59 Co 0.02141 0.77575 0.60667 0.0
Co60 Co 0.02581 0.75617 0.65367 0.0
O61 O 0.01017 0.76204 0.62916 0.0
C62 C 0.98662 0.79976 0.61723 0.0
O63 O 0.99288 0.79925 0.63623 0.0
C64 C 0.01651 0.71217 0.6559 0.0
O65 O 0.036 0.70993 0.65586 0.0
O66 O 0.04659 0.74339 0.63723 0.0
O67 O 0.04643 0.76045 0.60901 0.0
H68 H 0.08914 0.75276 0.69762 0.0
H69 H 0.98064 0.75526 0.60166 0.0
O70 O 0.99641 0.79127 0.60352 0.0
H71 H 0.02016 0.72239 0.55003 0.0
H72 H 0.01802 0.80506 0.53846 0.0
H73 H 0.0617 0.7937 0.59851 0.0
H74 H 0.03568 0.74999 0.57284 0.0
H75 H 1.00438 0.78737 0.56685 0.0
O76 O 0.00977 0.72959 0.65395 0.0
H77 H 0.06902 0.76047 0.66707 0.0
H78 H 0.01547 0.73863 0.69257 0.0
H79 H 0.076 0.81131 0.57041 0.0
H80 H 0.96446 0.72783 0.57901 0.0
H81 H 0.05409 0.81709 0.54011 0.0
H82 H 0.98427 0.71119 0.55299 0.0
O83 O 0.03431 0.79776 0.62524 0.0
H84 H 0.95498 0.76938 0.67108 0.0
H85 H 0.02701 0.78588 0.68906 0.0
H86 H 1.0014 0.80267 0.70826 0.0
H87 H 0.96506 0.7944 0.69932 0.0
H88 H 0.98112 0.75322 0.6521 0.0
H89 H 0.03502 0.73061 0.72335 0.0
H90 H 0.07213 0.7377 0.72603 0.0
O91 O 0.04148 0.78291 0.65414 0.0
C92 C 0.05389 0.74766 0.62049 0.0
C93 C 0.07298 0.74962 0.69665 0.0
C94 C 0.0426 0.73718 0.71109 0.0
N95 N 0.0411 0.75006 0.67806 0.0
C96 C 0.06151 0.75398 0.6794 0.0
C97 C 0.03162 0.74175 0.69362 0.0
C98 C 0.06342 0.74117 0.71258 0.0
C99 C 0.98932 0.74817 0.59028 0.0
N100 N 1.00904 0.75429 0.58851 0.0
C101 C 0.98009 0.73261 0.57754 0.0
C102 C 0.99123 0.72326 0.56296 0.0
C103 C 0.01136 0.72954 0.5613 0.0
C104 C 0.02008 0.74514 0.5743 0.0
C105 C 0.02772 0.80261 0.55157 0.0
C106 C 0.0521 0.79607 0.58533 0.0
C107 C 0.02007 0.79265 0.56771 0.0
N108 N 0.03227 0.78942 0.58427 0.0
C109 C 0.06027 0.80609 0.56949 0.0
C110 C 0.04797 0.80935 0.5525 0.0
C111 C 0.04263 0.79794 0.64299 0.0
C112 C 0.97077 0.77312 0.67512 0.0
C113 C 0.01127 0.78241 0.68492 0.0
C114 C 0.99681 0.79185 0.69593 0.0
C115 C 0.97643 0.78717 0.69094 0.0
N116 N 1.00561 0.7687 0.66938 0.0
C117 C 0.98565 0.76396 0.66447 0.0
Co118 Co 0.5089 0.75752 0.91669 0.0
Co119 Co 0.52917 0.76002 0.87049 0.0
O120 O 0.51609 0.77259 0.89333 0.0
C121 C 0.47103 0.77816 0.90654 0.0
O122 O 0.47258 0.77307 0.88738 0.0
C123 C 0.55322 0.79916 0.87971 0.0
O124 O 0.55196 0.79669 0.89903 0.0
O125 O 0.55116 0.75117 0.88902 0.0
O126 O 0.53363 0.74167 0.91508 0.0
H127 H 0.56342 0.70454 0.83423 0.0
H128 H 0.51073 0.8021 0.92002 0.0
O129 O 0.48417 0.77309 0.91964 0.0
H130 H 0.55981 0.78246 0.97249 0.0
H131 H 0.48309 0.74956 0.98577 0.0
H132 H 0.50885 0.71455 0.92613 0.0
H133 H 0.5399 0.75665 0.95084 0.0
H134 H 0.49284 0.7685 0.95663 0.0
O135 O 0.54524 0.7859 0.86677 0.0
H136 H 0.54651 0.72053 0.86248 0.0
H137 H 0.54027 0.77337 0.83022 0.0
H138 H 0.49944 0.69506 0.95503 0.0
H139 H 0.53008 0.82845 0.94156 0.0
H140 H 0.48645 0.71258 0.98512 0.0
H141 H 0.5549 0.81868 0.96797 0.0
O142 O 0.49313 0.73674 0.89869 0.0
H143 H 0.4819 0.80977 0.84366 0.0
H144 H 0.50258 0.73988 0.83688 0.0
H145 H 0.47477 0.75049 0.81464 0.0
H146 H 0.46429 0.78569 0.81792 0.0
H147 H 0.50949 0.79846 0.86575 0.0
H148 H 0.55726 0.75802 0.80169 0.0
H149 H 0.5689 0.72333 0.80355 0.0
O150 O 0.51328 0.73381 0.87289 0.0
C151 C 0.54966 0.74213 0.90536 0.0
C152 C 0.55837 0.71965 0.83321 0.0
C153 C 0.55494 0.74967 0.81496 0.0
N154 N 0.54229 0.7478 0.84795 0.0
C155 C 0.54874 0.72876 0.84914 0.0
C156 C 0.54537 0.7583 0.83119 0.0
C157 C 0.56146 0.73021 0.81601 0.0
C158 C 0.52137 0.79773 0.9316 0.0
N159 N 0.52422 0.77784 0.93411 0.0
C160 C 0.53234 0.81272 0.9437 0.0
C161 C 0.54629 0.80723 0.95849 0.0
C162 C 0.54907 0.78691 0.96101 0.0
C163 C 0.53784 0.77235 0.94861 0.0
C164 C 0.48875 0.74176 0.97275 0.0
C165 C 0.50329 0.7223 0.93921 0.0
C166 C 0.49424 0.75239 0.95618 0.0
N167 N 0.5015 0.74265 0.93973 0.0
C168 C 0.49795 0.71117 0.95551 0.0
C169 C 0.49065 0.72101 0.97238 0.0
C170 C 0.49834 0.72759 0.88262 0.0
C171 C 0.48636 0.79441 0.84204 0.0
C172 C 0.49806 0.75519 0.83847 0.0
C173 C 0.48233 0.76113 0.82579 0.0
C174 C 0.47647 0.78088 0.82763 0.0
N175 N 0.5077 0.76856 0.85257 0.0
C176 C 0.50204 0.78794 0.85445 0.0
Co177 Co 0.52298 0.27324 0.11077 0.0
Co178 Co 0.53092 0.25548 0.15815 0.0
O179 O 0.51321 0.26049 0.13461 0.0
C180 C 0.48803 0.29721 0.12149 0.0
O181 O 0.49455 0.29736 0.14047 0.0
C182 C 0.50657 0.21633 0.14922 0.0
O183 O 0.50699 0.21888 0.12983 0.0
O184 O 0.54969 0.24119 0.1406 0.0
O185 O 0.54851 0.25854 0.1126 0.0
H186 H 0.59769 0.25377 0.19679 0.0
H187 H 0.4823 0.2525 0.10805 0.0
O188 O 0.49761 0.28825 0.10792 0.0
H189 H 0.52028 0.21701 0.05684 0.0
H190 H 0.51577 0.29873 0.04102 0.0
H191 H 0.56224 0.29171 0.10014 0.0
H192 H 0.53628 0.24581 0.0777 0.0
H193 H 0.50392 0.2823 0.0709 0.0
O194 O 0.51552 0.22925 0.16192 0.0
H195 H 0.57497 0.26024 0.16763 0.0
H196 H 0.52433 0.23946 0.19852 0.0
H197 H 0.57477 0.3081 0.0705 0.0
H198 H 0.46562 0.22393 0.08732 0.0
H199 H 0.55146 0.3117 0.04067 0.0
H200 H 0.48467 0.20593 0.06154 0.0
O201 O 0.53611 0.29627 0.12784 0.0
H202 H 0.46271 0.27104 0.18171 0.0
H203 H 0.53583 0.28719 0.19186 0.0
H204 H 0.51251 0.3054 0.21277 0.0
H205 H 0.47564 0.29732 0.20778 0.0
H206 H 0.48659 0.25341 0.16095 0.0
H207 H 0.5465 0.23259 0.22793 0.0
H208 H 0.58346 0.23984 0.22722 0.0
O209 O 0.54672 0.28177 0.15585 0.0
C210 C 0.55632 0.24554 0.12361 0.0
C211 C 0.5816 0.2506 0.19731 0.0
C212 C 0.55288 0.23869 0.21477 0.0
N213 N 0.54834 0.25036 0.18141 0.0
C214 C 0.56866 0.25428 0.18086 0.0
C215 C 0.5404 0.24256 0.19805 0.0
C216 C 0.57361 0.24277 0.21437 0.0
C217 C 0.49062 0.24488 0.09672 0.0
N218 N 0.51022 0.25085 0.09407 0.0
C219 C 0.48113 0.22865 0.08509 0.0
C220 C 0.49183 0.21853 0.07066 0.0
C221 C 0.51182 0.22473 0.06803 0.0
C222 C 0.52083 0.241 0.07995 0.0
C223 C 0.52609 0.29722 0.05391 0.0
C224 C 0.55204 0.29312 0.08716 0.0
C225 C 0.51945 0.28797 0.07089 0.0
N226 N 0.53242 0.28593 0.08719 0.0
C227 C 0.55921 0.30246 0.07045 0.0
C228 C 0.54611 0.30449 0.05372 0.0
C229 C 0.54631 0.29675 0.14466 0.0
C230 C 0.47874 0.27469 0.18404 0.0
C231 C 0.51983 0.28373 0.18947 0.0
C232 C 0.50668 0.29401 0.20143 0.0
C233 C 0.486 0.28945 0.19864 0.0
N234 N 0.5126 0.2693 0.17514 0.0
C235 C 0.49235 0.2647 0.17238 0.0
Co236 Co 0.02386 0.74522 0.11809 0.0
Co237 Co 1.00744 0.75638 0.16501 0.0
O238 O 0.01936 0.76457 0.14031 0.0
C239 C 0.06331 0.76903 0.12406 0.0
O240 O 0.063 0.76636 0.14345 0.0
C241 C 0.98204 0.79016 0.15383 0.0
O242 O 0.97829 0.78094 0.13598 0.0
O243 O 0.98369 0.74318 0.14901 0.0
O244 O 0.99856 0.72871 0.12295 0.0
H245 H 0.97275 0.70795 0.20902 0.0
H246 H 0.02349 0.78877 0.11106 0.0
O247 O 0.049 0.7614 0.11208 0.0
H248 H 0.96973 0.75621 0.06461 0.0
H249 H 0.04422 0.72485 0.04847 0.0
H250 H 0.02098 0.70069 0.1125 0.0
H251 H 0.99036 0.73591 0.08671 0.0
H252 H 0.03761 0.74895 0.07644 0.0
O253 O 0.99345 0.78242 0.16697 0.0
H254 H 0.98842 0.71838 0.17818 0.0
H255 H 1.00008 0.77776 0.20422 0.0
H256 H 0.02725 0.67607 0.08487 0.0
H257 H 1.00334 0.80963 0.08906 0.0
H258 H 0.03896 0.68812 0.05257 0.0
H259 H 0.97619 0.79335 0.06566 0.0
O260 O 0.03976 0.72881 0.13673 0.0
H261 H 0.0595 0.8127 0.18359 0.0
H262 H 0.03523 0.74405 0.19831 0.0
H263 H 0.06522 0.75999 0.2174 0.0
H264 H 0.07753 0.79458 0.21011 0.0
H265 H 0.02967 0.79612 0.16471 0.0
H266 H 0.98439 0.76802 0.23528 0.0
H267 H 0.97067 0.73287 0.23784 0.0
O268 O 0.02143 0.73028 0.16403 0.0
C269 C 0.98328 0.73105 0.13348 0.0
C270 C 0.97873 0.7233 0.20811 0.0
C271 C 0.98524 0.75702 0.22284 0.0
N272 N 0.99529 0.7486 0.18947 0.0
C273 C 0.98767 0.72928 0.19071 0.0
C274 C 0.99407 0.76245 0.2052 0.0
C275 C 0.97755 0.73729 0.22427 0.0
C276 C 0.01183 0.78156 0.10079 0.0
N277 N 1.00819 0.76114 0.10012 0.0
C278 C 1.00042 0.79345 0.08842 0.0
C279 C 0.98517 0.78431 0.07532 0.0
C280 C 0.98153 0.76348 0.07472 0.0
C281 C 0.99324 0.75207 0.08731 0.0
C282 C 0.03909 0.71942 0.06246 0.0
C283 C 0.02597 0.70605 0.09846 0.0
C284 C 0.03537 0.73299 0.07837 0.0
N285 N 0.02879 0.72623 0.09604 0.0
C286 C 0.02954 0.69204 0.08288 0.0
C287 C 0.03613 0.69881 0.06477 0.0
C288 C 0.03509 0.72256 0.15378 0.0
C289 C 0.05426 0.79765 0.18694 0.0
C290 C 0.04053 0.75907 0.19498 0.0
C291 C 0.05749 0.76804 0.20588 0.0
C292 C 0.06438 0.78746 0.20179 0.0
N293 N 0.03067 0.76917 0.18044 0.0
C294 C 0.03733 0.78821 0.17635 0.0
Co295 Co 0.51751 0.75158 0.40827 0.0
Co296 Co 0.52021 0.77156 0.36196 0.0
O297 O 0.50497 0.76444 0.38525 0.0
C298 C 0.47838 0.72738 0.39911 0.0
O299 O 0.48079 0.7286 0.37977 0.0
C300 C 0.49918 0.80932 0.37155 0.0
O301 O 0.504 0.80789 0.39078 0.0
O302 O 0.54076 0.78758 0.38002 0.0
O303 O 0.54371 0.76754 0.40589 0.0
H304 H 0.58304 0.78121 0.32416 0.0
H305 H 0.47892 0.77109 0.41267 0.0
O306 O 0.49165 0.73544 0.41201 0.0
H307 H 0.52657 0.80629 0.46378 0.0
H308 H 0.51935 0.724 0.47731 0.0
H309 H 0.55709 0.73448 0.41662 0.0
H310 H 0.53742 0.77843 0.4418 0.0
H311 H 0.50403 0.74072 0.44858 0.0
O312 O 0.50448 0.79613 0.35863 0.0
H313 H 0.56334 0.77189 0.35294 0.0
H314 H 0.50942 0.78716 0.32176 0.0
H315 H 0.57305 0.71783 0.44508 0.0
H316 H 0.46737 0.79873 0.43451 0.0
H317 H 0.55414 0.71249 0.4757 0.0
H318 H 0.4913 0.81657 0.46025 0.0
O319 O 0.52655 0.72954 0.38996 0.0
H320 H 0.44954 0.74973 0.33653 0.0
H321 H 0.52162 0.74028 0.32819 0.0
H322 H 0.4961 0.72005 0.30646 0.0
H323 H 0.45974 0.72476 0.31051 0.0
H324 H 0.47559 0.76942 0.35816 0.0
H325 H 0.52856 0.79681 0.29272 0.0
H326 H 0.56563 0.79378 0.29377 0.0
O327 O 0.53627 0.74702 0.36395 0.0
C328 C 0.5499 0.78246 0.39614 0.0
C329 C 0.56688 0.78256 0.3235 0.0
C330 C 0.53631 0.79134 0.30586 0.0
N331 N 0.53524 0.77888 0.339 0.0
C332 C 0.55564 0.77726 0.33974 0.0
C333 C 0.52556 0.7859 0.32239 0.0
C334 C 0.55711 0.78962 0.30646 0.0
C335 C 0.48936 0.77866 0.42396 0.0
N336 N 0.50879 0.7731 0.42599 0.0
C337 C 0.48276 0.79435 0.43623 0.0
C338 C 0.4962 0.80438 0.45065 0.0
C339 C 0.516 0.79862 0.45263 0.0
C340 C 0.52208 0.78288 0.44008 0.0
C341 C 0.52776 0.72626 0.46406 0.0
C342 C 0.54881 0.7323 0.42993 0.0
C343 C 0.51914 0.73568 0.44772 0.0
N344 N 0.52971 0.73868 0.43098 0.0
C345 C 0.5579 0.72282 0.44598 0.0
C346 C 0.54728 0.71982 0.46315 0.0
C347 C 0.53578 0.73104 0.37373 0.0
C348 C 0.46533 0.74756 0.33459 0.0
C349 C 0.50586 0.74227 0.3302 0.0
C350 C 0.49146 0.73085 0.31777 0.0
C351 C 0.47106 0.73352 0.32003 0.0
N352 N 0.50012 0.75597 0.34449 0.0
C353 C 0.48015 0.75872 0.34675 0.0
Co354 Co 0.52385 0.25222 0.62554 0.0
Co355 Co 0.50411 0.25668 0.67247 0.0
O356 O 0.51802 0.26786 0.65005 0.0
C357 C 0.56794 0.26104 0.62333 0.0
O358 O 0.56991 0.24153 0.62318 0.0
C359 C 0.48033 0.29162 0.66184 0.0
O360 O 0.48103 0.28549 0.64284 0.0
O361 O 0.48207 0.24395 0.6538 0.0
O362 O 0.49697 0.23678 0.62494 0.0
H363 H 0.468 0.20229 0.7085 0.0
H364 H 0.52728 0.29686 0.62715 0.0
O365 O 0.55062 0.26799 0.62539 0.0
H366 H 0.47767 0.27717 0.57093 0.0
H367 H 0.54946 0.24294 0.55589 0.0
H368 H 0.51924 0.20908 0.61206 0.0
H369 H 0.49415 0.25137 0.59012 0.0
H370 H 0.54155 0.26248 0.58669 0.0
O371 O 0.48868 0.28175 0.67557 0.0
H372 H 0.48583 0.21652 0.68049 0.0
H373 H 0.49244 0.27371 0.71226 0.0
H374 H 0.52685 0.18896 0.5815 0.0
H375 H 0.51143 0.32318 0.60817 0.0
H376 H 0.54208 0.2059 0.55315 0.0
H377 H 0.48634 0.3134 0.5799 0.0
O378 O 0.53639 0.23131 0.64198 0.0
H379 H 0.55229 0.31329 0.70038 0.0
H380 H 0.52968 0.24222 0.70636 0.0
H381 H 0.5573 0.25753 0.72929 0.0
H382 H 0.56874 0.29334 0.72643 0.0
H383 H 0.52483 0.29731 0.67762 0.0
H384 H 0.47454 0.26014 0.74055 0.0
H385 H 0.46226 0.22417 0.7388 0.0
O386 O 0.51926 0.23159 0.67017 0.0
C387 C 0.48189 0.23569 0.63604 0.0
C388 C 0.47333 0.21798 0.70946 0.0
C389 C 0.47698 0.25045 0.72744 0.0
N390 N 0.49027 0.24588 0.69479 0.0
C391 C 0.48347 0.2261 0.69367 0.0
C392 C 0.48705 0.25806 0.71135 0.0
C393 C 0.47009 0.23026 0.72645 0.0
C394 C 0.51651 0.29246 0.61476 0.0
N395 N 0.51156 0.27256 0.60983 0.0
C396 C 0.50753 0.30744 0.60411 0.0
C397 C 0.49343 0.30195 0.58828 0.0
C398 C 0.48853 0.28163 0.58326 0.0
C399 C 0.49779 0.26707 0.59427 0.0
C400 C 0.54281 0.23538 0.56813 0.0
C401 C 0.52582 0.21656 0.59976 0.0
C402 C 0.53831 0.24637 0.58561 0.0
N403 N 0.5299 0.23693 0.60115 0.0
C404 C 0.53011 0.20509 0.58251 0.0
C405 C 0.53866 0.2146 0.56661 0.0
C406 C 0.53201 0.22403 0.6587 0.0
C407 C 0.54741 0.29769 0.70181 0.0
C408 C 0.53463 0.25778 0.70495 0.0
C409 C 0.55024 0.26639 0.71802 0.0
C410 C 0.55664 0.28648 0.71641 0.0
N411 N 0.52558 0.2689 0.69073 0.0
C412 C 0.53183 0.28858 0.689 0.0
Co413 Co 0.01919 0.25019 0.90912 0.0
Co414 Co 0.02222 0.27052 0.863 0.0
O415 O 1.00682 0.26321 0.88612 0.0
C416 C 0.98008 0.22609 0.89951 0.0
O417 O 0.98261 0.2275 0.88021 0.0
C418 C 1.00108 0.30814 0.87283 0.0
O419 O 1.00575 0.30646 0.89206 0.0
O420 O 0.0427 0.28638 0.88128 0.0
O421 O 0.04541 0.26619 0.90706 0.0
H422 H 0.0853 0.28043 0.82563 0.0
H423 H 0.98053 0.26963 0.91337 0.0
O424 O 0.99329 0.234 0.91254 0.0
H425 H 0.0278 0.30455 0.96501 0.0
H426 H 0.02047 0.22211 0.97793 0.0
H427 H 0.05872 0.23306 0.91765 0.0
H428 H 0.03883 0.27684 0.94295 0.0
H429 H 1.00537 0.23903 0.94922 0.0
O430 O 1.00653 0.29515 0.85979 0.0
H431 H 0.06541 0.27088 0.85422 0.0
H432 H 0.0117 0.2865 0.82292 0.0
H433 H 0.07445 0.21621 0.9461 0.0
H434 H 0.96879 0.29711 0.93529 0.0
H435 H 0.05528 0.21064 0.97652 0.0
H436 H 0.99253 0.31482 0.96129 0.0
O437 O 0.02838 0.22829 0.89074 0.0
H438 H 0.95167 0.24897 0.83695 0.0
H439 H 0.02382 0.23948 0.82905 0.0
H440 H 0.99841 0.21944 0.80701 0.0
H441 H 0.96202 0.22418 0.81084 0.0
H442 H 0.97761 0.26846 0.85889 0.0
H443 H 0.03103 0.29639 0.79408 0.0
H444 H 0.06809 0.29329 0.79529 0.0
O445 O 0.03824 0.24594 0.86489 0.0
C446 C 0.05172 0.28115 0.89742 0.0
C447 C 0.06915 0.2818 0.82491 0.0
C448 C 0.03869 0.29078 0.80721 0.0
N449 N 0.03741 0.27803 0.8402 0.0
C450 C 0.0578 0.27638 0.84103 0.0
C451 C 0.02784 0.28522 0.82361 0.0
C452 C 0.05949 0.28903 0.80789 0.0
C453 C 0.99089 0.27713 0.92478 0.0
N454 N 0.01032 0.27158 0.92691 0.0
C455 C 0.98418 0.29273 0.93709 0.0
C456 C 0.99752 0.30269 0.95166 0.0
C457 C 0.01731 0.29694 0.95374 0.0
C458 C 0.02349 0.28128 0.94115 0.0
C459 C 0.02898 0.22448 0.96478 0.0
C460 C 0.05032 0.23077 0.93088 0.0
C461 C 0.0205 0.23401 0.94844 0.0
N462 N 0.0312 0.23713 0.93182 0.0
C463 C 0.05929 0.22119 0.94692 0.0
C464 C 0.04852 0.21805 0.96397 0.0
C465 C 0.03772 0.2299 0.87459 0.0
C466 C 0.96748 0.24679 0.83511 0.0
C467 C 1.00804 0.24148 0.83096 0.0
C468 C 0.9937 0.23017 0.81835 0.0
C469 C 0.97329 0.23286 0.82049 0.0
N470 N 1.00222 0.25509 0.8453 0.0
C471 C 0.98224 0.25784 0.84744 0.0
Co472 Co 0.36998 0.03069 0.2594 0.0
Co473 Co 0.41618 0.01057 0.25631 0.0
O474 O 0.39304 0.01773 0.27173 0.0
C475 C 0.37946 0.05457 0.29864 0.0
O476 O 0.39878 0.05331 0.29612 0.0
C477 C 0.40647 0.97288 0.27741 0.0
O478 O 0.38722 0.9745 0.27278 0.0
O479 O 0.3979 0.99467 0.23586 0.0
O480 O 0.37209 0.0148 0.23313 0.0
H481 H 0.45351 1.00104 0.1932 0.0
H482 H 0.36579 0.011 0.29796 0.0
O483 O 0.36648 0.04671 0.28535 0.0
H484 H 0.31422 0.97612 0.25058 0.0
H485 H 0.30103 0.05842 0.25815 0.0
H486 H 0.36141 0.04796 0.21993 0.0
H487 H 0.33619 1.004 0.23968 0.0
H488 H 0.32981 0.04158 0.27321 0.0
O489 O 0.41948 0.98592 0.27196 0.0
H490 H 0.42491 0.0104 0.21313 0.0
H491 H 0.45633 0.99472 0.26675 0.0
H492 H 0.3329 0.06473 0.20424 0.0
H493 H 0.34396 0.98334 0.30957 0.0
H494 H 0.30243 0.07006 0.22339 0.0
H495 H 0.31799 0.96565 0.28578 0.0
O496 O 0.38832 0.05272 0.25028 0.0
H497 H 0.44223 0.03204 0.32684 0.0
H498 H 0.45011 0.04172 0.25472 0.0
H499 H 0.47214 0.06176 0.28014 0.0
H500 H 0.46832 0.05693 0.31651 0.0
H501 H 0.4203 0.01255 0.30089 0.0
H502 H 0.48519 0.98501 0.24738 0.0
H503 H 0.48392 0.98823 0.21033 0.0
O504 O 0.4142 0.0352 0.24033 0.0
C505 C 0.38172 0.99983 0.22687 0.0
C506 C 0.45426 0.99961 0.20933 0.0
C507 C 0.47203 0.99059 0.23974 0.0
N508 N 0.43899 1.00321 0.24109 0.0
C509 C 0.43813 1.00493 0.22071 0.0
C510 C 0.45562 0.99605 0.25062 0.0
C511 C 0.47131 0.99241 0.21896 0.0
C512 C 0.35439 1.00351 0.28757 0.0
N513 N 0.35224 0.00917 0.26818 0.0
C514 C 0.34213 0.9878 0.29421 0.0
C515 C 0.32759 0.97786 0.28085 0.0
C516 C 0.32547 0.98371 0.26109 0.0
C517 C 0.33801 0.99948 0.25498 0.0
C518 C 0.31421 0.05617 0.24965 0.0
C519 C 0.34817 0.05014 0.22833 0.0
C520 C 0.33058 0.04668 0.25811 0.0
N521 N 0.34724 0.04369 0.24741 0.0
C522 C 0.33209 0.05968 0.21938 0.0
C523 C 0.315 0.06268 0.23014 0.0
C524 C 0.40448 0.05121 0.24092 0.0
C525 C 0.44406 0.03427 0.31104 0.0
C526 C 0.4482 0.03968 0.2705 0.0
C527 C 0.4608 0.05099 0.28483 0.0
C528 C 0.45867 0.04825 0.30523 0.0
N529 N 0.43387 0.02602 0.2763 0.0
C530 C 0.43174 0.02321 0.29627 0.0
Co531 Co 0.25387 0.15804 0.52745 0.0
Co532 Co 0.27161 0.11053 0.51974 0.0
O533 O 0.25865 0.13426 0.50999 0.0
C534 C 0.21419 0.14854 0.50394 0.0
O535 O 0.2171 0.12921 0.50375 0.0
C536 C 0.29556 0.12152 0.48484 0.0
O537 O 0.29572 0.14043 0.49153 0.0
O538 O 0.29464 0.12765 0.53289 0.0
O539 O 0.28072 0.15636 0.54236 0.0
H540 H 0.30661 0.07034 0.57144 0.0
H541 H 0.25071 0.15941 0.48299 0.0
O542 O 0.2271 0.16126 0.51286 0.0
H543 H 0.30174 0.21326 0.50623 0.0
H544 H 0.23043 0.22763 0.54267 0.0
H545 H 0.26006 0.16838 0.57122 0.0
H546 H 0.28454 0.19277 0.53063 0.0
H547 H 0.23699 0.198 0.5207 0.0
O548 O 0.28661 0.10784 0.49433 0.0
H549 H 0.29008 0.09989 0.55898 0.0
H550 H 0.28091 0.07081 0.5006 0.0
H551 H 0.25394 0.19779 0.59372 0.0
H552 H 0.26728 0.17971 0.45804 0.0
H553 H 0.23901 0.22768 0.57945 0.0
H554 H 0.29309 0.2068 0.4696 0.0
O555 O 0.24037 0.14074 0.54706 0.0
H556 H 0.22237 0.08676 0.46243 0.0
H557 H 0.24428 0.07735 0.53308 0.0
H558 H 0.21555 0.05632 0.51712 0.0
H559 H 0.20446 0.06092 0.48152 0.0
H560 H 0.25086 0.10767 0.47907 0.0
H561 H 0.29749 0.04102 0.51239 0.0
H562 H 0.31041 0.04063 0.54807 0.0
O563 O 0.2569 0.11225 0.54524 0.0
C564 C 0.29548 0.14488 0.54232 0.0
C565 C 0.301 0.07031 0.55588 0.0
C566 C 0.2959 0.05386 0.52273 0.0
N567 N 0.28442 0.08702 0.52913 0.0
C568 C 0.29158 0.08697 0.54875 0.0
C569 C 0.28657 0.07079 0.51613 0.0
C570 C 0.30314 0.05365 0.54275 0.0
C571 C 0.26183 0.17125 0.48816 0.0
N572 N 0.26679 0.17477 0.50828 0.0
C573 C 0.2712 0.18266 0.47395 0.0
C574 C 0.2857 0.19783 0.48045 0.0
C575 C 0.29059 0.20144 0.50099 0.0
C576 C 0.28092 0.18969 0.51475 0.0
C577 C 0.23697 0.2147 0.54907 0.0
C578 C 0.25367 0.18138 0.56489 0.0
C579 C 0.24066 0.19785 0.53671 0.0
N580 N 0.24902 0.18151 0.54466 0.0
C581 C 0.25019 0.19797 0.57771 0.0
C582 C 0.24179 0.21473 0.5697 0.0
C583 C 0.24438 0.12356 0.55343 0.0
C584 C 0.2271 0.08458 0.47793 0.0
C585 C 0.23946 0.07955 0.51763 0.0
C586 C 0.22323 0.06754 0.50865 0.0
C587 C 0.21703 0.07011 0.48866 0.0
N588 N 0.24926 0.09372 0.50701 0.0
C589 C 0.24328 0.09631 0.48741 0.0
Co590 Co 0.16975 1.0078 0.75769 0.0
Co591 Co 0.12214 0.02562 0.75072 0.0
O592 O 0.14618 0.02078 0.76782 0.0
C593 C 0.15912 0.98371 0.79256 0.0
O594 O 0.14015 0.98357 0.78601 0.0
C595 C 0.13188 0.06507 0.77459 0.0
O596 O 0.15118 0.06188 0.77518 0.0
O597 O 0.13915 0.0391 0.73088 0.0
O598 O 0.1677 0.02259 0.73224 0.0
H599 H 0.08143 0.02571 0.68497 0.0
H600 H 0.17332 0.02829 0.79847 0.0
O601 O 0.17272 0.9927 0.78301 0.0
H602 H 0.22412 0.06366 0.75979 0.0
H603 H 0.23929 0.98171 0.76401 0.0
H604 H 0.17981 0.98944 0.71822 0.0
H605 H 0.20274 0.03512 0.74397 0.0
H606 H 0.2097 0.99832 0.77627 0.0
O607 O 0.11913 0.05239 0.76536 0.0
H608 H 0.11116 0.01952 0.70705 0.0
H609 H 0.08228 0.04252 0.75807 0.0
H610 H 0.20915 0.97287 0.70529 0.0
H611 H 0.19461 0.05656 0.81498 0.0
H612 H 0.23917 0.96892 0.72826 0.0
H613 H 0.22017 0.07451 0.79557 0.0
O614 O 0.15241 0.98486 0.74469 0.0
H615 H 0.10145 0.01213 0.82044 0.0
H616 H 0.08743 0.99493 0.74796 0.0
H617 H 0.0673 0.97771 0.77263 0.0
H618 H 0.07424 0.98633 0.8092 0.0
H619 H 0.12139 0.02873 0.79522 0.0
H620 H 0.05234 0.04913 0.73653 0.0
H621 H 0.05174 0.04063 0.69971 0.0
O622 O 0.12357 0.99883 0.73571 0.0
C623 C 0.15625 0.03512 0.72425 0.0
C624 C 0.08148 0.02943 0.701 0.0
C625 C 0.06517 0.0426 0.72993 0.0
N626 N 0.09841 0.03052 0.73383 0.0
C627 C 0.09825 0.02591 0.71358 0.0
C628 C 0.0822 0.03887 0.74205 0.0
C629 C 0.06484 0.03782 0.70928 0.0
C630 C 0.18456 0.03588 0.78999 0.0
N631 N 0.18679 0.03003 0.77029 0.0
C632 C 0.1965 0.05194 0.79939 0.0
C633 C 0.21082 0.06203 0.78848 0.0
C634 C 0.21302 0.05597 0.7684 0.0
C635 C 0.2008 0.03985 0.75949 0.0
C636 C 0.22632 0.98337 0.75385 0.0
C637 C 0.19286 0.98787 0.72828 0.0
C638 C 0.2095 0.99272 0.76071 0.0
N639 N 0.1931 0.99496 0.74793 0.0
C640 C 0.20941 0.97843 0.72088 0.0
C641 C 0.22624 0.9762 0.73379 0.0
C642 C 0.13504 0.98406 0.73552 0.0
C643 C 0.09828 1.00823 0.80455 0.0
C644 C 0.0907 0.99856 0.76381 0.0
C645 C 0.07916 0.98887 0.77773 0.0
C646 C 0.08304 0.99374 0.79824 0.0
N647 N 0.10568 0.0127 0.77011 0.0
C648 C 0.10948 0.01763 0.79019 0.0
Co649 Co 0.27078 0.86252 0.02135 0.0
Co650 Co 0.25001 0.90808 0.01761 0.0
O651 O 0.26329 0.8852 1.00543 0.0
C652 C 0.30807 0.87176 0.99951 0.0
O653 O 0.30664 0.89101 1.00415 0.0
C654 C 0.22668 0.89863 0.978 0.0
O655 O 0.22813 0.87932 0.98037 0.0
O656 O 0.22803 0.88939 0.02622 0.0
O657 O 0.24648 0.86489 0.03781 0.0
H658 H 0.21475 0.94444 0.07232 0.0
H659 H 0.26794 0.85691 0.97682 0.0
O660 O 0.29508 0.85886 1.00525 0.0
H661 H 0.21913 0.80615 1.00022 0.0
H662 H 0.29683 0.79399 0.03163 0.0
H663 H 0.27197 0.85499 0.06487 0.0
H664 H 0.23961 0.82895 0.02462 0.0
H665 H 0.28658 0.82222 0.01165 0.0
O666 O 0.23426 0.91156 0.99147 0.0
H667 H 0.23206 0.91623 0.05678 0.0
H668 H 0.23888 0.94816 1.00378 0.0
H669 H 0.28191 0.82704 0.08541 0.0
H670 H 0.24799 0.83419 0.9519 0.0
H671 H 0.29445 0.79626 0.06879 0.0
H672 H 0.2233 0.80864 0.96357 0.0
O673 O 0.28695 0.88134 0.04101 0.0
H674 H 0.29792 0.93473 0.96825 0.0
H675 H 0.27607 0.94214 0.03774 0.0
H676 H 0.30392 0.96444 0.02728 0.0
H677 H 0.31499 0.96086 0.99228 0.0
H678 H 0.27028 0.91257 0.97943 0.0
H679 H 0.2215 0.97663 0.01868 0.0
H680 H 0.20938 0.97492 0.05322 0.0
O681 O 0.26565 0.90607 0.04414 0.0
C682 C 0.22995 0.87372 0.03625 0.0
C683 C 0.22001 0.94539 0.05728 0.0
C684 C 0.22378 0.96345 0.02716 0.0
N685 N 0.23658 0.93059 0.02945 0.0
C686 C 0.22986 0.92948 0.04842 0.0
C687 C 0.23356 0.94725 0.01879 0.0
C688 C 0.21699 0.96248 0.04655 0.0
C689 C 0.25738 0.8457 0.98202 0.0
N690 N 0.25495 0.84428 1.00215 0.0
C691 C 0.24606 0.83293 0.96784 0.0
C692 C 0.23219 0.81862 0.97439 0.0
C693 C 0.22982 0.81724 0.99495 0.0
C694 C 0.24139 0.83026 0.0087 0.0
C695 C 0.29137 0.80731 0.03905 0.0
C696 C 0.27732 0.84161 0.05751 0.0
C697 C 0.28559 0.82337 0.02782 0.0
N698 N 0.27858 0.8402 0.03707 0.0
C699 C 0.28297 0.82585 0.06923 0.0
C700 C 0.29002 0.80859 0.05989 0.0
C701 C 0.28123 0.89717 0.05015 0.0
C702 C 0.2932 0.93648 0.98353 0.0
C703 C 0.28086 0.94039 0.02252 0.0
C704 C 0.2966 0.95312 0.01666 0.0
C705 C 0.30279 0.95111 0.99702 0.0
N706 N 0.27152 0.92608 0.00919 0.0
C707 C 0.2775 0.92403 0.98992 0.0
Co708 Co 0.25838 0.41576 0.00913 0.0
Co709 Co 0.26204 0.37001 0.02962 0.0
O710 O 0.27423 0.39299 0.01644 0.0
C711 C 0.27995 0.40666 0.97167 0.0
O712 O 0.27529 0.3874 0.97307 0.0
C713 C 0.30141 0.3796 0.05323 0.0
O714 O 0.29861 0.39889 0.05226 0.0
O715 O 0.25338 0.38854 0.05167 0.0
O716 O 0.242 0.41329 0.03344 0.0
H717 H 0.2073 0.33326 0.06463 0.0
H718 H 0.30294 0.42115 0.01185 0.0
O719 O 0.27438 0.4195 0.98479 0.0
H720 H 0.27998 0.47174 0.06098 0.0
H721 H 0.24834 0.48452 0.98349 0.0
H722 H 0.21489 0.4234 1.0081 0.0
H723 H 0.25539 0.44919 0.04045 0.0
H724 H 0.26822 0.45615 0.99354 0.0
O725 O 0.28821 0.36656 0.04531 0.0
H726 H 0.22283 0.36163 0.04747 0.0
H727 H 0.27593 0.32993 0.04061 0.0
H728 H 0.19445 0.45149 0.99837 0.0
H729 H 0.32805 0.44362 0.03187 0.0
H730 H 0.21118 0.48232 0.98596 0.0
H731 H 0.31661 0.46908 0.05671 0.0
O732 O 0.23861 0.39707 0.99296 0.0
H733 H 0.31145 0.34374 0.98164 0.0
H734 H 0.24193 0.33606 1.00343 0.0
H735 H 0.25241 0.31394 0.9755 0.0
H736 H 0.28742 0.31767 0.96446 0.0
H737 H 0.30025 0.36572 0.00936 0.0
H738 H 0.26105 0.3013 0.05784 0.0
H739 H 0.22646 0.30282 0.06991 0.0
O740 O 0.23551 0.37206 0.01398 0.0
C741 C 0.24343 0.40426 0.04985 0.0
C742 C 0.22237 0.3324 0.05939 0.0
C743 C 0.25254 0.31447 0.05561 0.0
N744 N 0.25021 0.34739 0.04294 0.0
C745 C 0.23122 0.34839 0.04963 0.0
C746 C 0.26091 0.33075 0.04591 0.0
C747 C 0.23313 0.31533 0.06236 0.0
C748 C 0.29784 0.43233 0.02248 0.0
N749 N 0.27772 0.43384 0.02496 0.0
C750 C 0.31213 0.44495 0.03384 0.0
C751 C 0.3057 0.45921 0.0478 0.0
C752 C 0.28515 0.46069 0.05022 0.0
C753 C 0.2713 0.44781 0.03861 0.0
C754 C 0.24088 0.47117 0.9889 0.0
C755 C 0.2223 0.43681 1.0028 0.0
C756 C 0.25205 0.45504 0.99456 0.0
N757 N 0.24274 0.43817 1.0015 0.0
C758 C 0.21063 0.45264 0.99727 0.0
C759 C 0.22003 0.46993 0.99029 0.0
C760 C 0.22949 0.38114 0.99852 0.0
C761 C 0.29617 0.34193 0.98634 0.0
C762 C 0.25715 0.33787 0.99865 0.0
C763 C 0.26302 0.32524 0.98286 0.0
C764 C 0.28267 0.32733 0.97669 0.0
N765 N 0.27048 0.35216 1.00805 0.0
C766 C 0.28977 0.35428 1.00208 0.0
Co767 Co 0.75917 0.16724 1.00645 0.0
Co768 Co 0.74943 0.12036 0.02393 0.0
O769 O 0.76826 0.14307 0.01897 0.0
C770 C 0.79435 0.15648 0.98279 0.0
O771 O 0.78738 0.13762 0.98191 0.0
C772 C 0.7749 0.12729 0.06247 0.0
O773 O 0.77462 0.14678 0.06059 0.0
O774 O 0.73253 0.13875 0.03947 0.0
O775 O 0.73313 0.16565 0.02059 0.0
H776 H 0.68092 0.08561 0.02767 0.0
H777 H 0.79932 0.16922 0.02815 0.0
O778 O 0.78496 0.16998 0.99209 0.0
H779 H 0.76127 0.22071 0.0631 0.0
H780 H 0.76795 0.23723 0.98188 0.0
H781 H 0.72053 0.17846 0.98716 0.0
H782 H 0.74569 0.20033 0.03378 0.0
H783 H 0.779 0.20704 0.99826 0.0
O784 O 0.76549 0.11508 0.04938 0.0
H785 H 0.70496 0.11365 0.02099 0.0
H786 H 0.75413 0.0791 0.03841 0.0
H787 H 0.7088 0.20841 0.9708 0.0
H788 H 0.81559 0.18947 0.05726 0.0
H789 H 0.73259 0.23808 0.96809 0.0
H790 H 0.7965 0.21538 0.075 0.0
O791 O 0.74655 0.1504 0.98305 0.0
H792 H 0.8148 0.0924 1.00482 0.0
H793 H 0.74112 0.08832 0.9909 0.0
H794 H 0.76215 0.06631 0.97102 0.0
H795 H 0.79927 0.06822 0.97797 0.0
H796 H 0.79322 0.11432 0.02418 0.0
H797 H 0.73061 0.05075 0.04543 0.0
H798 H 0.69372 0.05388 0.03998 0.0
O799 O 0.73284 0.12428 0.99842 0.0
C800 C 0.72578 0.15548 0.03451 0.0
C801 C 0.69696 0.08404 0.03005 0.0
C802 C 0.72485 0.06449 0.04004 0.0
N803 N 0.73092 0.09797 0.02917 0.0
C804 C 0.71065 0.09985 0.02625 0.0
C805 C 0.73809 0.08062 0.03608 0.0
C806 C 0.70416 0.06625 0.03697 0.0
C807 C 0.79099 0.18061 0.03567 0.0
N808 N 0.77159 0.18358 0.02926 0.0
C809 C 0.80025 0.19197 0.05219 0.0
C810 C 0.78952 0.20648 0.06216 0.0
C811 C 0.76974 0.20945 0.05551 0.0
C812 C 0.76097 0.1978 0.03894 0.0
C813 C 0.75743 0.22442 0.983 0.0
C814 C 0.73094 0.19135 0.98612 0.0
C815 C 0.76361 0.20726 0.99222 0.0
N816 N 0.75037 0.19106 0.99378 0.0
C817 C 0.72422 0.20825 0.97681 0.0
C818 C 0.73759 0.22488 0.97527 0.0
C819 C 0.73489 0.13455 0.98291 0.0
C820 C 0.79864 0.09138 1.00169 0.0
C821 C 0.75727 0.08933 0.99396 0.0
C822 C 0.76909 0.07677 0.98269 0.0
C823 C 0.78992 0.07784 0.9866 0.0
N824 N 0.76593 0.10257 0.00874 0.0
C825 C 0.78634 0.10369 0.01267 0.0
Co826 Co 0.113 0.51976 0.27182 0.0
Co827 Co 0.16029 0.53071 0.25604 0.0
O828 O 0.13773 0.51147 0.25999 0.0
C829 C 0.12378 0.48487 0.29576 0.0
O830 O 0.1422 0.49306 0.29834 0.0
C831 C 0.1545 0.5076 0.21623 0.0
O832 O 0.13513 0.51041 0.21635 0.0
O833 O 0.14205 0.54763 0.24027 0.0
O834 O 0.11452 0.54611 0.25826 0.0
H835 H 0.19444 0.59969 0.25421 0.0
H836 H 0.11296 0.48034 0.24905 0.0
O837 O 0.11043 0.49355 0.28547 0.0
H838 H 0.06125 0.51773 0.21356 0.0
H839 H 0.04223 0.50874 0.2939 0.0
H840 H 0.10028 0.55766 0.29134 0.0
H841 H 0.08019 0.53297 0.24395 0.0
H842 H 0.0733 0.49881 0.27837 0.0
O843 O 0.16638 0.51493 0.23075 0.0
H844 H 0.16641 0.57519 0.25976 0.0
H845 H 0.20207 0.52682 0.24266 0.0
H846 H 0.06944 0.56828 0.30686 0.0
H847 H 0.09422 0.46445 0.21881 0.0
H848 H 0.04014 0.54372 0.3082 0.0
H849 H 0.06819 0.48321 0.20082 0.0
O850 O 0.12894 0.53233 0.29588 0.0
H851 H 0.18852 0.46556 0.27537 0.0
H852 H 0.19135 0.53905 0.29 0.0
H853 H 0.21307 0.51811 0.31032 0.0
H854 H 0.21177 0.48108 0.30303 0.0
H855 H 0.16689 0.48705 0.25555 0.0
H856 H 0.23043 0.5508 0.23678 0.0
H857 H 0.22674 0.58753 0.24264 0.0
O858 O 0.15535 0.54683 0.28153 0.0
C859 C 0.12502 0.55396 0.24484 0.0
C860 C 0.19626 0.58372 0.25166 0.0
C861 C 0.21644 0.55629 0.24185 0.0
N862 N 0.18265 0.5496 0.25167 0.0
C863 C 0.18045 0.56978 0.25482 0.0
C864 C 0.20031 0.54278 0.24516 0.0
C865 C 0.21436 0.57689 0.24515 0.0
C866 C 0.10153 0.48852 0.2414 0.0
N867 N 0.09763 0.50752 0.2483 0.0
C868 C 0.09102 0.47948 0.22425 0.0
C869 C 0.07644 0.49003 0.21414 0.0
C870 C 0.07255 0.5094 0.22128 0.0
C871 C 0.08336 0.51797 0.23846 0.0
C872 C 0.05489 0.51958 0.29337 0.0
C873 C 0.08755 0.54692 0.29178 0.0
C874 C 0.07253 0.51404 0.28465 0.0
N875 N 0.08853 0.52769 0.28383 0.0
C876 C 0.07015 0.55301 0.30063 0.0
C877 C 0.05372 0.53922 0.30139 0.0
C878 C 0.14462 0.54431 0.29664 0.0
C879 C 0.18926 0.48168 0.27866 0.0
C880 C 0.19062 0.52294 0.28677 0.0
C881 C 0.20301 0.51117 0.2983 0.0
C882 C 0.20228 0.49039 0.29419 0.0
N883 N 0.17789 0.51428 0.27155 0.0
C884 C 0.17711 0.49393 0.26743 0.0
Co885 Co 0.7569 0.91774 0.5076 0.0
Co886 Co 0.75965 0.8714 0.5275 0.0
O887 O 0.77205 0.8944 0.51454 0.0
C888 C 0.77733 0.90761 0.46967 0.0
O889 O 0.77219 0.88849 0.47134 0.0
C890 C 0.79872 0.88094 0.55148 0.0
O891 O 0.79577 0.9002 0.55063 0.0
O892 O 0.7507 0.88967 0.54962 0.0
O893 O 0.74124 0.91598 0.53246 0.0
H894 H 0.70448 0.8344 0.5617 0.0
H895 H 0.80153 0.92109 0.5091 0.0
O896 O 0.77231 0.92078 0.48276 0.0
H897 H 0.78221 0.97331 0.55855 0.0
H898 H 0.74874 0.98686 0.48209 0.0
H899 H 0.71393 0.92714 0.50801 0.0
H900 H 0.75624 0.95174 0.53874 0.0
H901 H 0.76776 0.95771 0.49155 0.0
O902 O 0.78566 0.86784 0.5434 0.0
H903 H 0.72021 0.86289 0.54489 0.0
H904 H 0.77337 0.83122 0.53834 0.0
H905 H 0.69435 0.95604 0.49889 0.0
H906 H 0.82802 0.94255 0.52837 0.0
H907 H 0.71178 0.98618 0.48582 0.0
H908 H 0.81842 0.96882 0.55338 0.0
O909 O 0.73601 0.89979 0.49193 0.0
H910 H 0.80953 0.84531 0.47992 0.0
H911 H 0.73967 0.83779 0.50082 0.0
H912 H 0.75037 0.81584 0.47285 0.0
H913 H 0.78555 0.81949 0.46226 0.0
H914 H 0.79812 0.86711 0.50767 0.0
H915 H 0.75828 0.80245 0.55522 0.0
H916 H 0.72355 0.8039 0.56696 0.0
O917 O 0.73335 0.87367 0.51171 0.0
C918 C 0.74171 0.90604 0.54836 0.0
C919 C 0.7196 0.83357 0.5566 0.0
C920 C 0.7498 0.81565 0.55299 0.0
N921 N 0.74763 0.84867 0.54053 0.0
C922 C 0.72857 0.84963 0.54703 0.0
C923 C 0.75829 0.83201 0.54349 0.0
C924 C 0.73032 0.81647 0.55956 0.0
C925 C 0.79722 0.93262 0.51982 0.0
N926 N 0.77734 0.93511 0.52283 0.0
C927 C 0.81229 0.94467 0.53074 0.0
C928 C 0.8069 0.95938 0.5448 0.0
C929 C 0.78659 0.96189 0.54773 0.0
C930 C 0.77194 0.94955 0.53655 0.0
C931 C 0.74098 0.97383 0.48778 0.0
C932 C 0.72163 0.94024 0.50242 0.0
C933 C 0.75166 0.95725 0.49311 0.0
N934 N 0.74197 0.94078 0.50043 0.0
C935 C 0.71046 0.95654 0.49724 0.0
C936 C 0.72024 0.97344 0.48989 0.0
C937 C 0.72699 0.88356 0.49695 0.0
C938 C 0.79418 0.84353 0.48443 0.0
C939 C 0.75497 0.83955 0.49624 0.0
C940 C 0.76096 0.82703 0.48043 0.0
C941 C 0.7807 0.82908 0.47451 0.0
N942 N 0.76827 0.8537 0.50591 0.0
C943 C 0.78765 0.85578 0.50019 0.0
Co944 Co 0.86337 0.01818 0.26752 0.0
Co945 Co 0.90974 0.01464 0.24822 0.0
O946 O 0.8865 1.00263 0.261 0.0
C947 C 0.87234 0.99774 0.3057 0.0
O948 O 0.89158 1.00278 0.30456 0.0
C949 C 0.90088 0.97641 0.22252 0.0
O950 O 0.88216 0.98126 0.21931 0.0
O951 O 0.89176 0.02326 0.22562 0.0
O952 O 0.86589 0.03387 0.24278 0.0
H953 H 0.94769 0.06864 0.21331 0.0
H954 H 0.85973 0.97362 0.26524 0.0
O955 O 0.85956 1.00274 0.29222 0.0
H956 H 0.80808 0.99409 0.21573 0.0
H957 H 0.79396 0.02762 0.29191 0.0
H958 H 0.85484 0.06136 0.26706 0.0
H959 H 0.82958 0.0196 0.23622 0.0
H960 H 0.82289 1.00806 0.28286 0.0
O961 O 0.91335 0.98817 0.23331 0.0
H962 H 0.9188 0.05355 0.23002 0.0
H963 H 0.94999 1.00037 0.2383 0.0
H964 H 0.82618 0.08147 0.27577 0.0
H965 H 0.83841 0.94757 0.24521 0.0
H966 H 0.79546 0.06459 0.2883 0.0
H967 H 0.8124 0.95776 0.22019 0.0
O968 O 0.88154 0.03873 0.28348 0.0
H969 H 0.935 0.96591 0.29748 0.0
H970 H 0.94307 0.03508 0.27495 0.0
H971 H 0.96462 0.02499 0.30353 0.0
H972 H 0.96069 0.99016 0.31494 0.0
H973 H 0.91359 0.97671 0.26911 0.0
H974 H 0.97915 0.01483 0.22154 0.0
H975 H 0.97815 0.04924 0.20898 0.0
O976 O 0.90734 0.04128 0.26327 0.0
C977 C 0.8757 0.03283 0.22682 0.0
C978 C 0.94833 0.05366 0.21877 0.0
C979 C 0.96598 0.02345 0.22337 0.0
N980 N 0.93275 0.02616 0.23525 0.0
C981 C 0.93204 0.04505 0.22828 0.0
C982 C 0.94939 0.01532 0.2328 0.0
C983 C 0.96541 0.04276 0.21633 0.0
C984 C 0.84836 0.97817 0.25448 0.0
N985 N 0.84592 0.99812 0.25191 0.0
C986 C 0.83636 0.96335 0.24314 0.0
C987 C 0.82179 0.96908 0.22909 0.0
C988 C 0.81937 0.98946 0.22656 0.0
C989 C 0.83165 1.00385 0.23816 0.0
C990 C 0.80726 0.03514 0.28645 0.0
C991 C 0.84149 0.05389 0.27242 0.0
C992 C 0.82371 0.02416 0.28136 0.0
N993 N 0.8405 0.03355 0.27435 0.0
C994 C 0.82532 0.06536 0.27736 0.0
C995 C 0.8081 0.05588 0.28441 0.0
C996 C 0.89769 0.04771 0.27816 0.0
C997 C 0.93689 0.98112 0.29262 0.0
C998 C 0.94118 0.01993 0.27989 0.0
C999 C 0.95348 0.01429 0.29604 0.0
C1000 C 0.95128 0.99474 0.30243 0.0
N1001 N 0.9271 1.00649 0.27033 0.0
C1002 C 0.92486 0.98729 0.27651 0.0
Co1003 Co 0.25813 0.66819 0.50713 0.0
Co1004 Co 0.24843 0.62157 0.52518 0.0
O1005 O 0.26725 0.64422 0.52 0.0
C1006 C 0.29347 0.65735 0.48373 0.0
O1007 O 0.2866 0.63845 0.483 0.0
C1008 C 0.27353 0.629 0.56385 0.0
O1009 O 0.27281 0.64846 0.56194 0.0
O1010 O 0.23147 0.64011 0.54048 0.0
O1011 O 0.23202 0.66666 0.52114 0.0
H1012 H 0.17996 0.5868 0.52915 0.0
H1013 H 0.29814 0.67047 0.52911 0.0
O1014 O 0.28399 0.67087 0.49289 0.0
H1015 H 0.25976 0.72225 0.56319 0.0
H1016 H 0.26675 0.73788 0.4818 0.0
H1017 H 0.21952 0.67904 0.48748 0.0
H1018 H 0.2444 0.70154 0.53397 0.0
H1019 H 0.27784 0.70793 0.4986 0.0
O1020 O 0.26449 0.61661 0.5507 0.0
H1021 H 0.20396 0.61479 0.52223 0.0
H1022 H 0.25317 0.58051 0.54011 0.0
H1023 H 0.20774 0.70874 0.47071 0.0
H1024 H 0.31418 0.69104 0.55813 0.0
H1025 H 0.23144 0.73844 0.46779 0.0
H1026 H 0.29492 0.71709 0.57542 0.0
O1027 O 0.24567 0.65103 0.48387 0.0
H1028 H 0.31384 0.59344 0.50645 0.0
H1029 H 0.24017 0.58923 0.49243 0.0
H1030 H 0.26124 0.56705 0.47279 0.0
H1031 H 0.29836 0.56903 0.47978 0.0
H1032 H 0.29223 0.61553 0.52557 0.0
H1033 H 0.2297 0.55222 0.54738 0.0
H1034 H 0.1928 0.55524 0.54182 0.0
O1035 O 0.23185 0.62521 0.49959 0.0
C1036 C 0.22466 0.6567 0.5352 0.0
C1037 C 0.196 0.58528 0.53158 0.0
C1038 C 0.22392 0.56589 0.54184 0.0
N1039 N 0.22994 0.59924 0.53063 0.0
C1040 C 0.20967 0.60106 0.52764 0.0
C1041 C 0.23714 0.58198 0.53774 0.0
C1042 C 0.20322 0.56758 0.53871 0.0
C1043 C 0.28974 0.68192 0.53644 0.0
N1044 N 0.27037 0.68481 0.52983 0.0
C1045 C 0.29887 0.69346 0.55291 0.0
C1046 C 0.28804 0.70805 0.56263 0.0
C1047 C 0.2683 0.71093 0.55579 0.0
C1048 C 0.25966 0.6991 0.53928 0.0
C1049 C 0.25627 0.72505 0.48301 0.0
C1050 C 0.22989 0.69195 0.48636 0.0
C1051 C 0.26248 0.70803 0.49247 0.0
N1052 N 0.2493 0.69181 0.49414 0.0
C1053 C 0.22315 0.7087 0.47681 0.0
C1054 C 0.23646 0.72535 0.47516 0.0
C1055 C 0.23397 0.63523 0.48393 0.0
C1056 C 0.29768 0.59239 0.5033 0.0
C1057 C 0.25632 0.59027 0.49551 0.0
C1058 C 0.26816 0.57761 0.48437 0.0
C1059 C 0.28899 0.57872 0.48832 0.0
N1060 N 0.26496 0.60364 0.51019 0.0
C1061 C 0.28536 0.6048 0.51414 0.0
Co1062 Co 0.36227 0.5218 0.7701 0.0
Co1063 Co 0.40867 0.51872 0.75034 0.0
O1064 O 0.38552 0.50647 0.76322 0.0
C1065 C 0.37206 0.50118 0.80799 0.0
O1066 O 0.39128 0.50595 0.80631 0.0
C1067 C 0.39897 0.47966 0.72642 0.0
O1068 O 0.37971 0.48274 0.72713 0.0
O1069 O 0.39052 0.52779 0.72816 0.0
O1070 O 0.36429 0.5375 0.74531 0.0
H1071 H 0.44619 0.57361 0.71627 0.0
H1072 H 0.35848 0.47723 0.76851 0.0
O1073 O 0.35899 0.5064 0.79491 0.0
H1074 H 0.30666 0.49713 0.71888 0.0
H1075 H 0.29308 0.53053 0.79533 0.0
H1076 H 0.35328 0.56485 0.76977 0.0
H1077 H 0.32842 0.52285 0.73881 0.0
H1078 H 0.32211 0.51127 0.78595 0.0
O1079 O 0.41211 0.49268 0.7345 0.0
H1080 H 0.41752 0.55808 0.73298 0.0
H1081 H 0.44882 0.50472 0.73965 0.0
H1082 H 0.32451 0.58467 0.77881 0.0
H1083 H 0.33684 0.45098 0.74912 0.0
H1084 H 0.29413 0.56749 0.7917 0.0
H1085 H 0.31075 0.46088 0.72402 0.0
O1086 O 0.38036 0.54247 0.78588 0.0
H1087 H 0.43432 0.46866 0.79797 0.0
H1088 H 0.44235 0.53846 0.77714 0.0
H1089 H 0.46416 0.5276 0.80515 0.0
H1090 H 0.46026 0.49245 0.81571 0.0
H1091 H 0.41264 0.48023 0.77018 0.0
H1092 H 0.47776 0.51962 0.72287 0.0
H1093 H 0.47659 0.55433 0.71112 0.0
O1094 O 0.40653 0.54503 0.76612 0.0
C1095 C 0.37424 0.53698 0.72943 0.0
C1096 C 0.44691 0.55849 0.72137 0.0
C1097 C 0.46461 0.52818 0.72505 0.0
N1098 N 0.43154 0.53057 0.7374 0.0
C1099 C 0.43073 0.54963 0.73089 0.0
C1100 C 0.44815 0.5198 0.7345 0.0
C1101 C 0.46395 0.54766 0.71847 0.0
C1102 C 0.34704 0.48166 0.75775 0.0
N1103 N 0.34476 0.50157 0.75477 0.0
C1104 C 0.33488 0.46673 0.74676 0.0
C1105 C 0.32028 0.47229 0.73265 0.0
C1106 C 0.31799 0.49262 0.72974 0.0
C1107 C 0.33044 0.50713 0.74099 0.0
C1108 C 0.30622 0.53818 0.78971 0.0
C1109 C 0.34007 0.55726 0.77527 0.0
C1110 C 0.32273 0.52737 0.78443 0.0
N1111 N 0.33933 0.53692 0.77721 0.0
C1112 C 0.32385 0.56856 0.78041 0.0
C1113 C 0.30682 0.55892 0.78766 0.0
C1114 C 0.39667 0.55139 0.7809 0.0
C1115 C 0.4362 0.484 0.79347 0.0
C1116 C 0.44046 0.52318 0.78171 0.0
C1117 C 0.45292 0.51709 0.79754 0.0
C1118 C 0.45073 0.49737 0.80344 0.0
N1119 N 0.42625 0.50998 0.77199 0.0
C1120 C 0.42403 0.49061 0.77769 0.0
Co1121 Co 0.61104 0.01984 0.77224 0.0
Co1122 Co 0.65804 0.02985 0.75493 0.0
O1123 O 0.63527 0.011 0.75963 0.0
C1124 C 0.62203 0.9846 0.79565 0.0
O1125 O 0.64088 0.99167 0.79655 0.0
C1126 C 0.65063 1.00558 0.71581 0.0
O1127 O 0.63116 1.00631 0.71774 0.0
O1128 O 0.6397 0.04717 0.73983 0.0
O1129 O 0.61251 0.04597 0.75832 0.0
H1130 H 0.6932 0.09828 0.75245 0.0
H1131 H 0.60933 0.97993 0.75018 0.0
O1132 O 0.60845 0.99393 0.78639 0.0
H1133 H 0.55756 0.01794 0.71555 0.0
H1134 H 0.54102 0.01044 0.79671 0.0
H1135 H 0.59961 0.05821 0.79183 0.0
H1136 H 0.57783 0.03335 0.74504 0.0
H1137 H 0.57131 0.99972 0.78025 0.0
O1138 O 0.66307 0.01428 0.72914 0.0
H1139 H 0.66503 0.07424 0.75877 0.0
H1140 H 0.6992 0.02525 0.74014 0.0
H1141 H 0.56956 0.06961 0.80827 0.0
H1142 H 0.5892 0.96383 0.7209 0.0
H1143 H 0.53999 0.04564 0.81078 0.0
H1144 H 0.56315 0.98291 0.70332 0.0
O1145 O 0.62783 0.03234 0.79573 0.0
H1146 H 0.68571 0.96393 0.77253 0.0
H1147 H 0.69023 0.03733 0.78797 0.0
H1148 H 0.71217 0.01577 0.80732 0.0
H1149 H 0.71003 0.97879 0.79961 0.0
H1150 H 0.66387 0.98603 0.75371 0.0
H1151 H 0.72768 0.04877 0.73347 0.0
H1152 H 0.72481 0.08558 0.73971 0.0
O1153 O 0.65431 0.04593 0.78078 0.0
C1154 C 0.62283 0.05366 0.7447 0.0
C1155 C 0.69465 0.08228 0.74973 0.0
C1156 C 0.714 0.05449 0.73905 0.0
N1157 N 0.68052 0.04836 0.74996 0.0
C1158 C 0.67877 0.06859 0.75332 0.0
C1159 C 0.6978 0.04125 0.74281 0.0
C1160 C 0.71238 0.07514 0.74256 0.0
C1161 C 0.59788 0.98825 0.74274 0.0
N1162 N 0.59475 1.00754 0.74933 0.0
C1163 C 0.58659 0.97909 0.72611 0.0
C1164 C 0.572 0.98981 0.71624 0.0
C1165 C 0.56887 0.00947 0.72307 0.0
C1166 C 0.58046 0.01815 0.73973 0.0
C1167 C 0.55379 0.02104 0.79568 0.0
C1168 C 0.58675 0.04773 0.79278 0.0
C1169 C 0.571 0.01504 0.78641 0.0
N1170 N 0.58715 0.02838 0.78496 0.0
C1171 C 0.5698 0.05425 0.80214 0.0
C1172 C 0.55322 0.04079 0.80356 0.0
C1173 C 0.64382 0.04384 0.79613 0.0
C1174 C 0.68683 0.98003 0.77599 0.0
C1175 C 0.68913 0.02124 0.78458 0.0
C1176 C 0.70164 0.00912 0.79555 0.0
C1177 C 0.70044 0.98837 0.79121 0.0
N1178 N 0.6758 0.01295 0.76967 0.0
C1179 C 0.67456 0.99263 0.76532 0.0
Co1180 Co 0.75435 0.65708 0.03132 0.0
Co1181 Co 0.7702 0.60942 0.0205 0.0
O1182 O 0.75864 0.63438 0.01229 0.0
C1183 C 0.71504 0.65003 1.00735 0.0
O1184 O 0.71689 0.63056 1.00803 0.0
C1185 C 0.79535 0.62138 0.98669 0.0
O1186 O 0.79621 0.64006 0.9942 0.0
O1187 O 0.7937 0.625 0.03475 0.0
O1188 O 0.78024 0.65297 0.04697 0.0
H1189 H 0.80237 0.56459 0.06973 0.0
H1190 H 0.75258 0.66304 0.98746 0.0
O1191 O 0.72844 0.66239 0.01608 0.0
H1192 H 0.80718 0.71056 0.0166 0.0
H1193 H 0.73388 0.72689 0.05061 0.0
H1194 H 0.75904 0.66406 0.07571 0.0
H1195 H 0.78788 0.68879 0.0384 0.0
H1196 H 0.73987 0.69835 0.02696 0.0
O1197 O 0.78554 0.60763 0.9953 0.0
H1198 H 0.78737 0.59563 0.059 0.0
H1199 H 0.7782 0.57037 0.99906 0.0
H1200 H 0.75341 0.69229 0.09988 0.0
H1201 H 0.77136 0.6847 0.96514 0.0
H1202 H 0.74073 0.72398 0.08736 0.0
H1203 H 0.79893 0.70863 0.97969 0.0
O1204 O 0.73933 0.63899 0.04902 0.0
H1205 H 0.72072 0.59222 0.96166 0.0
H1206 H 0.74178 0.5756 0.03063 0.0
H1207 H 0.7124 0.55693 0.01301 0.0
H1208 H 0.70172 0.56518 0.97822 0.0
H1209 H 0.74983 0.6107 0.97999 0.0
H1210 H 0.79326 0.53914 0.00909 0.0
H1211 H 0.80539 0.53607 0.04468 0.0
O1212 O 0.75497 0.61004 0.04584 0.0
C1213 C 0.79481 0.64136 0.04574 0.0
C1214 C 0.79708 0.56572 0.05419 0.0
C1215 C 0.792 0.55145 0.02015 0.0
N1216 N 0.78179 0.58475 0.02847 0.0
C1217 C 0.78853 0.58323 0.04804 0.0
C1218 C 0.78353 0.56919 0.01455 0.0
C1219 C 0.79879 0.54973 0.04012 0.0
C1220 C 0.76441 0.67356 0.99393 0.0
N1221 N 0.76905 0.6747 0.01422 0.0
C1222 C 0.77505 0.68573 0.98121 0.0
C1223 C 0.79054 0.69913 0.98938 0.0
C1224 C 0.79519 0.7002 0.01008 0.0
C1225 C 0.78424 0.68779 0.02234 0.0
C1226 C 0.73943 0.71317 0.05625 0.0
C1227 C 0.75362 0.67784 0.07014 0.0
C1228 C 0.7428 0.69694 0.04294 0.0
N1229 N 0.74991 0.6796 0.04995 0.0
C1230 C 0.75042 0.69376 0.0839 0.0
C1231 C 0.74328 0.71153 0.07687 0.0
C1232 C 0.74264 0.62131 0.05443 0.0
C1233 C 0.72522 0.58848 0.9768 0.0
C1234 C 0.73709 0.57943 0.01561 0.0
C1235 C 0.72052 0.56872 1.00565 0.0
C1236 C 0.71455 0.57334 0.98612 0.0
N1237 N 0.74744 0.5943 1.00641 0.0
C1238 C 0.74174 0.59884 0.98723 0.0
Co1239 Co 0.87128 0.53062 0.76249 0.0
Co1240 Co 0.91666 0.50928 0.75875 0.0
O1241 O 0.89404 0.51706 0.77465 0.0
C1242 C 0.88118 0.55407 0.80194 0.0
O1243 O 0.90046 0.5522 0.79965 0.0
C1244 C 0.90701 0.4719 0.78043 0.0
O1245 O 0.88773 0.47355 0.77601 0.0
O1246 O 0.89764 0.49343 0.73898 0.0
O1247 O 0.87296 0.51483 0.73607 0.0
H1248 H 0.95209 0.49789 0.69471 0.0
H1249 H 0.86676 0.51065 0.80083 0.0
O1250 O 0.86813 0.54659 0.78853 0.0
H1251 H 0.81417 0.47745 0.75344 0.0
H1252 H 0.80309 0.56001 0.76156 0.0
H1253 H 0.86317 0.54843 0.72323 0.0
H1254 H 0.83677 0.50493 0.7427 0.0
H1255 H 0.83141 0.54236 0.77644 0.0
O1256 O 0.91997 0.48484 0.7747 0.0
H1257 H 0.92424 0.50814 0.71525 0.0
H1258 H 0.95676 0.49294 0.76844 0.0
H1259 H 0.83512 0.566 0.70771 0.0
H1260 H 0.84431 0.48338 0.81228 0.0
H1261 H 0.8048 0.57189 0.72692 0.0
H1262 H 0.81783 0.46654 0.78848 0.0
O1263 O 0.89017 0.5523 0.75363 0.0
H1264 H 0.94496 0.53138 0.82838 0.0
H1265 H 0.95082 0.53989 0.75578 0.0
H1266 H 0.97379 0.55994 0.78035 0.0
H1267 H 0.97099 0.5557 0.81696 0.0
H1268 H 0.92206 0.51186 0.80327 0.0
H1269 H 0.98488 0.48237 0.74845 0.0
H1270 H 0.98268 0.48489 0.71131 0.0
O1271 O 0.91471 0.53368 0.74242 0.0
C1272 C 0.88176 0.49924 0.72998 0.0
C1273 C 0.95324 0.49676 0.71088 0.0
C1274 C 0.97163 0.48803 0.74104 0.0
N1275 N 0.9389 0.50124 0.74303 0.0
C1276 C 0.93754 0.50258 0.7226 0.0
C1277 C 0.95563 0.49398 0.75227 0.0
C1278 C 0.9704 0.48945 0.72021 0.0
C1279 C 0.85515 0.50352 0.79044 0.0
N1280 N 0.85306 0.50942 0.77113 0.0
C1281 C 0.84254 0.48803 0.79699 0.0
C1282 C 0.8277 0.47857 0.78362 0.0
C1283 C 0.82565 0.48467 0.76395 0.0
C1284 C 0.83855 0.5002 0.75793 0.0
C1285 C 0.81621 0.55751 0.75303 0.0
C1286 C 0.84999 0.55085 0.73164 0.0
C1287 C 0.83232 0.54757 0.76139 0.0
N1288 N 0.84889 0.54426 0.75066 0.0
C1289 C 0.83417 0.56085 0.7228 0.0
C1290 C 0.81717 0.56416 0.73359 0.0
C1291 C 0.90591 0.55022 0.74374 0.0
C1292 C 0.94635 0.53334 0.81247 0.0
C1293 C 0.94936 0.5381 0.77167 0.0
C1294 C 0.96249 0.54942 0.78552 0.0
C1295 C 0.96093 0.54701 0.80605 0.0
N1296 N 0.93506 0.52475 0.77807 0.0
C1297 C 0.93348 0.52227 0.79818 0.0
Co1298 Co 0.77087 0.36726 0.521 0.0
Co1299 Co 0.74723 0.41185 0.52059 0.0
O1300 O 0.76243 0.391 0.50741 0.0
C1301 C 0.81434 0.36742 0.5134 0.0
O1302 O 0.81769 0.36819 0.53305 0.0
C1303 C 0.72427 0.40215 0.48108 0.0
O1304 O 0.72614 0.38294 0.48373 0.0
O1305 O 0.72653 0.39116 0.52809 0.0
O1306 O 0.74554 0.36562 0.53603 0.0
H1307 H 0.70886 0.44219 0.57649 0.0
H1308 H 0.77086 0.36704 0.47647 0.0
O1309 O 0.79635 0.36813 0.50586 0.0
H1310 H 0.72419 0.31015 0.49069 0.0
H1311 H 0.80058 0.29942 0.52473 0.0
H1312 H 0.77109 0.35484 0.56307 0.0
H1313 H 0.74184 0.33118 0.51847 0.0
H1314 H 0.78939 0.32917 0.50768 0.0
O1315 O 0.73146 0.41535 0.49449 0.0
H1316 H 0.72852 0.41642 0.55985 0.0
H1317 H 0.73287 0.45143 0.5086 0.0
H1318 H 0.78202 0.32533 0.58071 0.0
H1319 H 0.75376 0.34619 0.44822 0.0
H1320 H 0.7969 0.29735 0.56151 0.0
H1321 H 0.73016 0.31756 0.45525 0.0
O1322 O 0.7844 0.38497 0.54343 0.0
H1323 H 0.79346 0.44508 0.47345 0.0
H1324 H 0.77044 0.44668 0.54266 0.0
H1325 H 0.7965 0.47187 0.53371 0.0
H1326 H 0.80813 0.47122 0.49886 0.0
H1327 H 0.76757 0.42003 0.48311 0.0
H1328 H 0.71312 0.47751 0.52461 0.0
H1329 H 0.70104 0.473 0.55884 0.0
O1330 O 0.76289 0.40953 0.54696 0.0
C1331 C 0.72891 0.37433 0.53599 0.0
C1332 C 0.71409 0.44436 0.5616 0.0
C1333 C 0.71645 0.46416 0.53247 0.0
N1334 N 0.73195 0.43248 0.53334 0.0
C1335 C 0.72527 0.42984 0.55212 0.0
C1336 C 0.72759 0.44932 0.52346 0.0
C1337 C 0.70969 0.46163 0.55168 0.0
C1338 C 0.76081 0.35446 0.47966 0.0
N1339 N 0.75742 0.35031 0.49912 0.0
C1340 C 0.75108 0.34277 0.4636 0.0
C1341 C 0.73781 0.32674 0.46755 0.0
C1342 C 0.73444 0.32259 0.48743 0.0
C1343 C 0.74441 0.33462 0.50311 0.0
C1344 C 0.7941 0.3115 0.53326 0.0
C1345 C 0.7775 0.3427 0.5546 0.0
C1346 C 0.78773 0.32838 0.52369 0.0
N1347 N 0.77954 0.34371 0.53436 0.0
C1348 C 0.78368 0.32604 0.56468 0.0
C1349 C 0.79203 0.31035 0.5539 0.0
C1350 C 0.77817 0.40026 0.55309 0.0
C1351 C 0.78849 0.44555 0.48867 0.0
C1352 C 0.7755 0.44621 0.5275 0.0
C1353 C 0.79022 0.46056 0.5225 0.0
C1354 C 0.79673 0.4602 0.50294 0.0
N1355 N 0.76744 0.43193 0.5134 0.0
C1356 C 0.7738 0.43143 0.49421 0.0
Co1357 Co 0.6679 0.50918 0.26064 0.0
Co1358 Co 0.61915 0.52457 0.25239 0.0
O1359 O 0.64323 0.52074 0.26992 0.0
C1360 C 0.6561 0.48342 0.29411 0.0
O1361 O 0.63715 0.48403 0.28771 0.0
C1362 C 0.62868 0.56491 0.27441 0.0
O1363 O 0.64798 0.56177 0.27492 0.0
O1364 O 0.63586 0.53716 0.2317 0.0
O1365 O 0.66691 0.52581 0.23646 0.0
H1366 H 0.57829 0.52055 0.18649 0.0
H1367 H 0.66745 0.52762 0.30212 0.0
O1368 O 0.66993 0.49249 0.28492 0.0
H1369 H 0.72121 0.56606 0.27005 0.0
H1370 H 0.73798 0.48475 0.26945 0.0
H1371 H 0.68101 0.49418 0.22105 0.0
H1372 H 0.70188 0.5377 0.25136 0.0
H1373 H 0.70711 0.49957 0.28086 0.0
O1374 O 0.61588 0.55191 0.26573 0.0
H1375 H 0.6081 0.51579 0.20902 0.0
H1376 H 0.57918 0.54165 0.25868 0.0
H1377 H 0.71168 0.47945 0.20896 0.0
H1378 H 0.68661 0.55566 0.32149 0.0
H1379 H 0.74044 0.47465 0.23325 0.0
H1380 H 0.71364 0.57517 0.3054 0.0
O1381 O 0.65208 0.48636 0.24528 0.0
H1382 H 0.59851 0.51421 0.32279 0.0
H1383 H 0.58475 0.49371 0.25092 0.0
H1384 H 0.5647 0.47756 0.27634 0.0
H1385 H 0.57152 0.48783 0.3126 0.0
H1386 H 0.61836 0.52973 0.29686 0.0
H1387 H 0.54915 0.54686 0.23666 0.0
H1388 H 0.54854 0.53619 0.2003 0.0
O1389 O 0.6211 0.49725 0.23895 0.0
C1390 C 0.65415 0.53602 0.22703 0.0
C1391 C 0.57835 0.52521 0.20232 0.0
C1392 C 0.56201 0.54001 0.23047 0.0
N1393 N 0.59535 0.52833 0.23515 0.0
C1394 C 0.59517 0.52251 0.21515 0.0
C1395 C 0.57909 0.53708 0.24285 0.0
C1396 C 0.56168 0.53401 0.21007 0.0
C1397 C 0.6793 0.53593 0.29508 0.0
N1398 N 0.68347 0.5311 0.27559 0.0
C1399 C 0.69005 0.55184 0.30609 0.0
C1400 C 0.7052 0.56279 0.29705 0.0
C1401 C 0.70943 0.55771 0.2772 0.0
C1402 C 0.69835 0.54173 0.26665 0.0
C1403 C 0.72556 0.48679 0.25872 0.0
C1404 C 0.69351 0.49224 0.23168 0.0
C1405 C 0.70802 0.49513 0.2651 0.0
N1406 N 0.69232 0.49784 0.2516 0.0
C1407 C 0.71081 0.48385 0.22476 0.0
C1408 C 0.72693 0.48114 0.2384 0.0
C1409 C 0.63408 0.48392 0.23753 0.0
C1410 C 0.5954 0.50959 0.30704 0.0
C1411 C 0.58796 0.49807 0.26666 0.0
C1412 C 0.57647 0.48897 0.28099 0.0
C1413 C 0.58028 0.49477 0.30132 0.0
N1414 N 0.60283 0.51251 0.27238 0.0
C1415 C 0.60656 0.51837 0.29228 0.0
H1416 H 0.14861 0.46009 0.31601 0.0
H1417 H 0.13914 0.4283 0.33096 0.0
H1418 H 0.07708 0.43412 0.31123 0.0
H1419 H 0.08632 0.46584 0.29635 0.0
H1420 H 0.08269 0.42359 0.35197 0.0
H1421 H 0.12264 0.37403 0.29948 0.0
H1422 H 0.1376 0.39488 0.31181 0.0
H1423 H 0.11728 0.39955 0.29415 0.0
C1424 C 0.13294 0.45461 0.31483 0.0
C1425 C 0.11826 0.46554 0.30489 0.0
C1426 C 0.12757 0.43638 0.32331 0.0
C1427 C 0.10741 0.42871 0.32206 0.0
C1428 C 0.09272 0.4397 0.31236 0.0
H1429 H 0.05416 0.30994 0.3355 0.0
H1430 H 0.06774 0.34203 0.32451 0.0
C1431 C 0.09807 0.45784 0.3038 0.0
C1432 C 0.10148 0.40929 0.33083 0.0
H1433 H 0.10648 0.35849 0.32576 0.0
C1434 C 0.08797 0.40935 0.34633 0.0
C1435 C 0.10823 0.3907 0.32333 0.0
C1436 C 0.12212 0.38962 0.30617 0.0
C1437 C 0.08091 0.39135 0.35443 0.0
C1438 C 0.08774 0.37275 0.347 0.0
C1439 C 0.10137 0.37273 0.33158 0.0
C1440 C 0.07995 0.35306 0.35406 0.0
C1441 C 0.06566 0.39238 0.37038 0.0
C1442 C 0.08246 0.34835 0.37436 0.0
C1443 C 0.07459 0.32993 0.38077 0.0
C1444 C 0.0642 0.31576 0.36696 0.0
C1445 C 0.06206 0.32042 0.34659 0.0
C1446 C 0.06986 0.3388 0.34025 0.0
H1447 H 0.05853 0.40708 0.37104 0.0
H1448 H 0.05365 0.38017 0.3676 0.0
H1449 H 0.07332 0.39049 0.38533 0.0
H1450 H 0.09054 0.35891 0.38525 0.0
H1451 H 0.07661 0.32683 0.39653 0.0
H1452 H 0.95651 0.81042 0.64158 0.0
H1453 H 0.92463 0.82491 0.63166 0.0
H1454 H 0.94261 0.82659 0.57045 0.0
H1455 H 0.97406 0.81143 0.58009 0.0
H1456 H 0.91493 0.8593 0.61639 0.0
H1457 H 0.88886 0.79714 0.56114 0.0
H1458 H 0.91057 0.79554 0.57824 0.0
H1459 H 0.91272 0.80849 0.5553 0.0
C1460 C 0.95366 0.81387 0.626 0.0
C1461 C 0.96775 0.80957 0.61159 0.0
C1462 C 0.93542 0.82217 0.62034 0.0
C1463 C 0.93092 0.82645 0.60018 0.0
C1464 C 0.94535 0.82285 0.58595 0.0
H1465 H 0.83503 0.9024 0.55886 0.0
H1466 H 0.86701 0.88984 0.57139 0.0
C1467 C 0.96343 0.8143 0.59153 0.0
C1468 C 0.91119 0.83461 0.59402 0.0
H1469 H 0.87054 0.82681 0.56037 0.0
C1470 C 0.90517 0.85213 0.60421 0.0
C1471 C 0.89819 0.82512 0.57836 0.0
C1472 C 0.9028 0.80542 0.56778 0.0
C1473 C 0.88676 0.86054 0.59899 0.0
C1474 C 0.87422 0.85155 0.5827 0.0
C1475 C 0.88016 0.8339 0.57271 0.0
C1476 C 0.85466 0.85975 0.57595 0.0
C1477 C 0.88077 0.87866 0.61135 0.0
C1478 C 0.83703 0.84702 0.57385 0.0
C1479 C 0.81887 0.85405 0.56627 0.0
C1480 C 0.81778 0.87408 0.56076 0.0
C1481 C 0.8353 0.88697 0.56321 0.0
C1482 C 0.85359 0.87982 0.57051 0.0
H1483 H 0.88847 0.87968 0.62663 0.0
H1484 H 0.88524 0.89253 0.60379 0.0
H1485 H 0.86423 0.87822 0.61298 0.0
H1486 H 0.83735 0.8315 0.5779 0.0
H1487 H 0.80566 0.84371 0.56461 0.0
H1488 H 0.38202 0.56979 0.81479 0.0
H1489 H 0.39704 0.59925 0.83498 0.0
H1490 H 0.44507 0.60422 0.79428 0.0
H1491 H 0.43041 0.57492 0.77418 0.0
H1492 H 0.45859 0.60575 0.83497 0.0
H1493 H 0.39832 0.65903 0.8219 0.0
H1494 H 0.39041 0.63507 0.83097 0.0
H1495 H 0.39997 0.63622 0.80632 0.0
C1496 C 0.3957 0.57723 0.81004 0.0
C1497 C 0.40497 0.56986 0.79282 0.0
C1498 C 0.40422 0.59415 0.82157 0.0
C1499 C 0.42211 0.60408 0.81607 0.0
C1500 C 0.43127 0.59684 0.79884 0.0
H1501 H 0.50616 0.70324 0.8499 0.0
H1502 H 0.48697 0.67311 0.83592 0.0
C1503 C 0.4228 0.58002 0.78733 0.0
C1504 C 0.43187 0.62159 0.82845 0.0
H1505 H 0.42637 0.67087 0.84327 0.0
C1506 C 0.45148 0.61995 0.83687 0.0
C1507 C 0.42256 0.64009 0.83109 0.0
C1508 C 0.40171 0.64289 0.822 0.0
C1509 C 0.46215 0.63633 0.8475 0.0
C1510 C 0.45314 0.65504 0.8495 0.0
C1511 C 0.43327 0.65654 0.8417 0.0
C1512 C 0.46466 0.67351 0.85837 0.0
C1513 C 0.48303 0.63344 0.85646 0.0
C1514 C 0.45828 0.68414 0.87546 0.0
C1515 C 0.46925 0.70159 0.88356 0.0
C1516 C 0.48671 0.70885 0.87458 0.0
C1517 C 0.49288 0.69817 0.85735 0.0
C1518 C 0.48197 0.68079 0.84935 0.0
H1519 H 0.48526 0.61734 0.85901 0.0
H1520 H 0.49431 0.63856 0.84588 0.0
H1521 H 0.48599 0.64235 0.871 0.0
H1522 H 0.44488 0.67887 0.8826 0.0
H1523 H 0.46399 0.70943 0.89677 0.0
H1524 H 0.5764 0.21456 0.14007 0.0
H1525 H 0.60563 0.19806 0.12721 0.0
H1526 H 0.60563 0.23666 0.07729 0.0
H1527 H 0.57661 0.25314 0.08983 0.0
H1528 H 0.60935 0.178 0.08716 0.0
H1529 H 0.66424 0.24339 0.103 0.0
H1530 H 0.64056 0.24117 0.11498 0.0
H1531 H 0.64124 0.249 0.0896 0.0
C1532 C 0.58263 0.21957 0.12637 0.0
C1533 C 0.57408 0.23528 0.11608 0.0
C1534 C 0.59933 0.21009 0.11903 0.0
C1535 C 0.60799 0.21629 0.10141 0.0
C1536 C 0.59942 0.23182 0.09107 0.0
H1537 H 0.70552 0.18915 0.02644 0.0
H1538 H 0.6772 0.2025 0.04352 0.0
C1539 C 0.58271 0.24118 0.09827 0.0
C1540 C 0.62583 0.2065 0.09355 0.0
H1541 H 0.67468 0.21641 0.082 0.0
C1542 C 0.62372 0.1863 0.08621 0.0
C1543 C 0.64455 0.21736 0.09227 0.0
C1544 C 0.64794 0.23888 0.10053 0.0
C1545 C 0.63957 0.1769 0.07691 0.0
C1546 C 0.65823 0.18788 0.07532 0.0
C1547 C 0.66042 0.20796 0.08312 0.0
C1548 C 0.67542 0.17921 0.06491 0.0
C1549 C 0.63586 0.15559 0.06813 0.0
C1550 C 0.68411 0.16167 0.07126 0.0
C1551 C 0.70034 0.15385 0.06139 0.0
C1552 C 0.70843 0.16353 0.04507 0.0
C1553 C 0.69978 0.18121 0.03891 0.0
C1554 C 0.68353 0.18893 0.04871 0.0
H1555 H 0.6195 0.15124 0.06588 0.0
H1556 H 0.64288 0.15361 0.05344 0.0
H1557 H 0.64264 0.14512 0.07863 0.0
H1558 H 0.67849 0.15412 0.08401 0.0
H1559 H 0.70664 0.1403 0.06666 0.0
H1560 H 0.14073 0.57401 0.21349 0.0
H1561 H 0.12734 0.60296 0.197 0.0
H1562 H 0.07792 0.60257 0.23625 0.0
H1563 H 0.09102 0.57376 0.25274 0.0
H1564 H 0.08692 0.60616 0.1774 0.0
H1565 H 0.10338 0.6614 0.24239 0.0
H1566 H 0.11554 0.63785 0.2401 0.0
H1567 H 0.09023 0.63831 0.24818 0.0
C1568 C 0.12702 0.58008 0.21864 0.0
C1569 C 0.11705 0.5715 0.23455 0.0
C1570 C 0.11937 0.59662 0.20917 0.0
C1571 C 0.10175 0.6051 0.21554 0.0
C1572 C 0.0917 0.59649 0.23126 0.0
H1573 H 0.0273 0.70309 0.18802 0.0
H1574 H 0.04417 0.6748 0.20167 0.0
C1575 C 0.09921 0.57991 0.24063 0.0
C1576 C 0.09365 0.62282 0.20574 0.0
H1577 H 0.08249 0.67177 0.21532 0.0
C1578 C 0.08611 0.62058 0.18559 0.0
C1579 C 0.09254 0.6416 0.21647 0.0
C1580 C 0.10099 0.64509 0.23794 0.0
C1581 C 0.07682 0.63639 0.17612 0.0
C1582 C 0.07548 0.65515 0.18694 0.0
C1583 C 0.08343 0.65745 0.20699 0.0
C1584 C 0.06524 0.67236 0.17813 0.0
C1585 C 0.06782 0.63254 0.15489 0.0
C1586 C 0.07149 0.68069 0.16036 0.0
C1587 C 0.06172 0.6969 0.15236 0.0
C1588 C 0.04562 0.70533 0.16209 0.0
C1589 C 0.0396 0.69708 0.18003 0.0
C1590 C 0.04927 0.68085 0.18792 0.0
H1591 H 0.06528 0.61618 0.15078 0.0
H1592 H 0.05324 0.63976 0.15291 0.0
H1593 H 0.07834 0.63899 0.14423 0.0
H1594 H 0.08408 0.67481 0.15275 0.0
H1595 H 0.0669 0.7029 0.13861 0.0
H1596 H 0.56813 0.81665 0.38176 0.0
H1597 H 0.5988 0.83571 0.39578 0.0
H1598 H 0.60444 0.79402 0.44283 0.0
H1599 H 0.57419 0.77489 0.42901 0.0
H1600 H 0.60703 0.85446 0.43509 0.0
H1601 H 0.66016 0.79518 0.41943 0.0
H1602 H 0.6351 0.79458 0.4075 0.0
H1603 H 0.6389 0.78636 0.43266 0.0
C1604 C 0.57596 0.81147 0.39503 0.0
C1605 C 0.56864 0.79413 0.40416 0.0
C1606 C 0.59347 0.82242 0.40304 0.0
C1607 C 0.60411 0.81613 0.42019 0.0
C1608 C 0.59675 0.79896 0.42937 0.0
H1609 H 0.70326 0.85004 0.50384 0.0
H1610 H 0.67378 0.83553 0.48388 0.0
C1611 C 0.57931 0.78807 0.42145 0.0
C1612 C 0.62268 0.82757 0.42892 0.0
H1613 H 0.67203 0.8219 0.44325 0.0
C1614 C 0.62134 0.84748 0.43662 0.0
C1615 C 0.64136 0.81847 0.43087 0.0
C1616 C 0.64408 0.79754 0.422 0.0
C1617 C 0.6379 0.85813 0.44712 0.0
C1618 C 0.65636 0.84872 0.44972 0.0
C1619 C 0.65786 0.82908 0.44138 0.0
C1620 C 0.67399 0.85841 0.46202 0.0
C1621 C 0.63527 0.87902 0.45612 0.0
C1622 C 0.68402 0.8762 0.45642 0.0
C1623 C 0.70104 0.88463 0.46788 0.0
C1624 C 0.70842 0.87537 0.48511 0.0
C1625 C 0.69816 0.85764 0.49069 0.0
C1626 C 0.68123 0.84926 0.47926 0.0
H1627 H 0.61914 0.88252 0.45626 0.0
H1628 H 0.64201 0.88079 0.47179 0.0
H1629 H 0.64313 0.89022 0.44708 0.0
H1630 H 0.67891 0.88337 0.443 0.0
H1631 H 0.70856 0.89824 0.46306 0.0
H1632 H 0.46803 0.30368 0.69888 0.0
H1633 H 0.45208 0.33467 0.70848 0.0
H1634 H 0.45484 0.35343 0.6476 0.0
H1635 H 0.47006 0.32202 0.63772 0.0
H1636 H 0.4656 0.3718 0.70943 0.0
H1637 H 0.39793 0.36475 0.65703 0.0
H1638 H 0.41411 0.34422 0.66054 0.0
H1639 H 0.42072 0.36371 0.64392 0.0
C1640 C 0.46506 0.31431 0.68746 0.0
C1641 C 0.47022 0.3103 0.66749 0.0
C1642 C 0.45593 0.33207 0.69298 0.0
C1643 C 0.45187 0.34637 0.67873 0.0
C1644 C 0.45719 0.34245 0.65878 0.0
H1645 H 0.43636 0.47211 0.71398 0.0
H1646 H 0.44851 0.44003 0.70173 0.0
C1647 C 0.46605 0.32452 0.65317 0.0
C1648 C 0.44308 0.36573 0.6851 0.0
H1649 H 0.40546 0.39707 0.67393 0.0
C1650 C 0.45237 0.37721 0.7017 0.0
C1651 C 0.42559 0.37279 0.67531 0.0
C1652 C 0.41388 0.36062 0.65836 0.0
C1653 C 0.44493 0.39554 0.70859 0.0
C1654 C 0.42809 0.40312 0.69815 0.0
C1655 C 0.41854 0.39149 0.68177 0.0
C1656 C 0.42016 0.423 0.70412 0.0
C1657 C 0.45499 0.4063 0.72732 0.0
C1658 C 0.39983 0.4245 0.7085 0.0
C1659 C 0.39269 0.44303 0.71511 0.0
C1660 C 0.40578 0.4604 0.71758 0.0
C1661 C 0.42593 0.45898 0.71252 0.0
C1662 C 0.43296 0.44057 0.70565 0.0
H1663 H 0.46293 0.39573 0.73691 0.0
H1664 H 0.46639 0.41778 0.72291 0.0
H1665 H 0.4439 0.41397 0.73647 0.0
H1666 H 0.38958 0.41123 0.7073 0.0
H1667 H 0.37709 0.4436 0.71888 0.0
H1668 H 0.97448 0.21099 0.9362 0.0
H1669 H 0.94337 0.19676 0.94885 0.0
H1670 H 0.91175 0.20598 0.89209 0.0
H1671 H 0.94318 0.21942 0.87903 0.0
H1672 H 0.91054 0.21362 0.95587 0.0
H1673 H 0.89054 0.15027 0.90003 0.0
H1674 H 0.91475 0.16396 0.90118 0.0
H1675 H 0.89322 0.17382 0.88833 0.0
C1676 C 0.96097 0.20973 0.92628 0.0
C1677 C 0.96134 0.21627 0.90655 0.0
C1678 C 0.94313 0.2016 0.93356 0.0
C1679 C 0.92511 0.19998 0.92141 0.0
C1680 C 0.92547 0.20646 0.90164 0.0
H1681 H 0.80767 0.19414 0.97337 0.0
H1682 H 0.83891 0.20414 0.95806 0.0
C1683 C 0.94345 0.21428 0.8942 0.0
C1684 C 0.90589 0.19271 0.93 0.0
H1685 H 0.86477 0.15955 0.92183 0.0
C1686 C 0.90064 0.20169 0.94844 0.0
C1687 C 0.89298 0.17693 0.92058 0.0
C1688 C 0.89825 0.16554 0.90156 0.0
C1689 C 0.88292 0.19556 0.95756 0.0
C1690 C 0.8695 0.1805 0.94764 0.0
C1691 C 0.87486 0.17127 0.92935 0.0
C1692 C 0.84992 0.17414 0.95603 0.0
C1693 C 0.8791 0.20502 0.97802 0.0
C1694 C 0.84507 0.15376 0.95917 0.0
C1695 C 0.82691 0.14791 0.96757 0.0
C1696 C 0.81327 0.16235 0.97313 0.0
C1697 C 0.81796 0.18266 0.96957 0.0
C1698 C 0.83593 0.18844 0.96092 0.0
H1699 H 0.89337 0.21094 0.9862 0.0
H1700 H 0.8694 0.21789 0.9761 0.0
H1701 H 0.87142 0.19407 0.98747 0.0
H1702 H 0.8555 0.1424 0.95541 0.0
H1703 H 0.82374 0.13214 0.97007 0.0
H1704 H 0.30752 0.14602 0.45525 0.0
H1705 H 0.32235 0.13607 0.42353 0.0
H1706 H 0.32162 0.07449 0.44062 0.0
H1707 H 0.30614 0.08416 0.47185 0.0
H1708 H 0.35646 0.1199 0.41426 0.0
H1709 H 0.29324 0.06664 0.38631 0.0
H1710 H 0.29165 0.08353 0.40815 0.0
H1711 H 0.30377 0.06014 0.41027 0.0
C1712 C 0.31049 0.13035 0.45222 0.0
C1713 C 0.30542 0.11585 0.466 0.0
C1714 C 0.319 0.12467 0.43407 0.0
C1715 C 0.32271 0.10442 0.42937 0.0
C1716 C 0.31832 0.09008 0.4435 0.0
H1717 H 0.40013 0.06146 0.33543 0.0
H1718 H 0.38702 0.07433 0.36702 0.0
C1719 C 0.30957 0.09568 0.46146 0.0
C1720 C 0.33117 0.09824 0.40978 0.0
H1721 H 0.32346 0.06499 0.36883 0.0
C1722 C 0.34917 0.10797 0.40426 0.0
C1723 C 0.32154 0.08292 0.39646 0.0
C1724 C 0.30138 0.07286 0.40048 0.0
C1725 C 0.35794 0.1026 0.38608 0.0
C1726 C 0.34881 0.0866 0.37325 0.0
C1727 C 0.33066 0.07709 0.37867 0.0
C1728 C 0.35739 0.07966 0.35393 0.0
C1729 C 0.37662 0.1145 0.38063 0.0
C1730 C 0.34511 0.07787 0.336 0.0
C1731 C 0.35243 0.07008 0.31806 0.0
C1732 C 0.37234 0.06406 0.31749 0.0
C1733 C 0.38481 0.06621 0.3353 0.0
C1734 C 0.37734 0.0737 0.35337 0.0
H1735 H 0.37786 0.12975 0.38838 0.0
H1736 H 0.39012 0.10655 0.38548 0.0
H1737 H 0.37675 0.11617 0.36414 0.0
H1738 H 0.32968 0.08231 0.33592 0.0
H1739 H 0.34241 0.06868 0.30463 0.0
H1740 H 0.18959 0.02755 0.70325 0.0
H1741 H 0.20176 0.04434 0.6742 0.0
H1742 H 0.15189 0.08292 0.67528 0.0
H1743 H 0.13939 0.06609 0.70448 0.0
H1744 H 0.17917 0.04823 0.63544 0.0
H1745 H 0.20398 0.12195 0.67485 0.0
H1746 H 0.20041 0.09922 0.68821 0.0
H1747 H 0.17897 0.11175 0.67878 0.0
C1748 C 0.18113 0.03962 0.69743 0.0
C1749 C 0.16346 0.04544 0.70637 0.0
C1750 C 0.18815 0.04921 0.68074 0.0
C1751 C 0.17788 0.06502 0.67265 0.0
C1752 C 0.16021 0.07091 0.68142 0.0
H1753 H 0.21357 0.14017 0.57373 0.0
H1754 H 0.19602 0.12651 0.60197 0.0
C1755 C 0.15304 0.0612 0.69807 0.0
C1756 C 0.18561 0.07494 0.65481 0.0
H1757 H 0.20903 0.11833 0.64014 0.0
C1758 C 0.1856 0.06359 0.63643 0.0
C1759 C 0.19384 0.09504 0.65605 0.0
C1760 C 0.19448 0.10778 0.67552 0.0
C1761 C 0.19376 0.0717 0.61934 0.0
C1762 C 0.20276 0.09155 0.62075 0.0
C1763 C 0.20225 0.1031 0.63901 0.0
C1764 C 0.21355 0.10017 0.60376 0.0
C1765 C 0.19246 0.05889 0.59987 0.0
C1766 C 0.22957 0.09023 0.59559 0.0
C1767 C 0.23953 0.0979 0.57942 0.0
C1768 C 0.23395 0.11593 0.57108 0.0
C1769 C 0.21825 0.12621 0.57965 0.0
C1770 C 0.20819 0.11842 0.59583 0.0
H1771 H 0.17971 0.04735 0.59941 0.0
H1772 H 0.19054 0.06821 0.58662 0.0
H1773 H 0.20654 0.05086 0.59858 0.0
H1774 H 0.23445 0.07647 0.60176 0.0
H1775 H 0.25166 0.08961 0.57348 0.0
H1776 H 0.13475 0.97123 0.82206 0.0
H1777 H 0.14487 0.95615 0.85359 0.0
H1778 H 0.20652 0.95769 0.8365 0.0
H1779 H 0.19666 0.97339 0.80544 0.0
H1780 H 0.16144 0.92206 0.86241 0.0
H1781 H 0.21406 0.98551 0.89112 0.0
H1782 H 0.19711 0.98718 0.86932 0.0
H1783 H 0.22066 0.97536 0.86705 0.0
C1784 C 0.15047 0.96838 0.82505 0.0
C1785 C 0.16492 0.97374 0.81131 0.0
C1786 C 0.15624 0.95973 0.84308 0.0
C1787 C 0.17657 0.95616 0.84773 0.0
C1788 C 0.19087 0.96085 0.83366 0.0
H1789 H 0.22026 0.87829 0.94101 0.0
H1790 H 0.20736 0.89156 0.90949 0.0
C1791 C 0.18517 0.96974 0.8158 0.0
C1792 C 0.18283 0.94754 0.86722 0.0
H1793 H 0.21596 0.95516 0.9083 0.0
C1794 C 0.17328 0.92937 0.87251 0.0
C1795 C 0.19805 0.95718 0.88066 0.0
C1796 C 0.2079 0.97748 0.87687 0.0
C1797 C 0.17873 0.92045 0.89059 0.0
C1798 C 0.19461 0.92962 0.90356 0.0
C1799 C 0.20394 0.94793 0.89836 0.0
C1800 C 0.20159 0.92093 0.92282 0.0
C1801 C 0.16702 0.90158 0.8958 0.0
C1802 C 0.20313 0.93304 0.94084 0.0
C1803 C 0.21093 0.92563 0.95875 0.0
C1804 C 0.21721 0.90582 0.95917 0.0
C1805 C 0.21531 0.89353 0.94125 0.0
C1806 C 0.2078 0.90108 0.92322 0.0
H1807 H 0.15179 0.90021 0.88797 0.0
H1808 H 0.17518 0.88825 0.89087 0.0
H1809 H 0.16528 0.90125 0.91227 0.0
H1810 H 0.19848 0.94838 0.94105 0.0
H1811 H 0.21212 0.9355 0.97227 0.0
H1812 H 0.27296 0.92997 0.07423 0.0
H1813 H 0.29218 0.9446 0.10414 0.0
H1814 H 0.33489 0.89852 0.09866 0.0
H1815 H 0.31584 0.8838 0.06837 0.0
H1816 H 0.30132 0.9272 0.14034 0.0
H1817 H 0.3713 0.95048 0.10355 0.0
H1818 H 0.34788 0.9434 0.08936 0.0
H1819 H 0.36296 0.92439 0.09951 0.0
C1820 C 0.28648 0.9229 0.07925 0.0
C1821 C 0.29287 0.90571 0.0687 0.0
C1822 C 0.29745 0.93132 0.09644 0.0
C1823 C 0.31515 0.92287 0.10354 0.0
C1824 C 0.3215 0.90556 0.09326 0.0
H1825 H 0.39602 0.96579 0.20838 0.0
H1826 H 0.38072 0.94571 0.17891 0.0
C1827 C 0.3105 0.89708 0.07599 0.0
C1828 C 0.32656 0.93212 0.12192 0.0
H1829 H 0.37117 0.95695 0.13875 0.0
C1830 C 0.31663 0.93362 0.13999 0.0
C1831 C 0.34659 0.94041 0.12154 0.0
C1832 C 0.35783 0.93979 0.10245 0.0
C1833 C 0.32603 0.94336 0.15755 0.0
C1834 C 0.34581 0.95221 0.15701 0.0
C1835 C 0.35601 0.9502 0.13914 0.0
C1836 C 0.3556 0.96459 0.17451 0.0
C1837 C 0.31466 0.94411 0.17656 0.0
C1838 C 0.34685 0.98213 0.18154 0.0
C1839 C 0.35552 0.99362 0.19828 0.0
C1840 C 0.37326 0.98793 0.20844 0.0
C1841 C 0.38233 0.9706 0.20104 0.0
C1842 C 0.37361 0.9591 0.18418 0.0
H1843 H 0.30251 0.93195 0.17618 0.0
H1844 H 0.32492 0.94274 0.19007 0.0
H1845 H 0.30754 0.95875 0.17811 0.0
H1846 H 0.33322 0.98694 0.17407 0.0
H1847 H 0.34816 1.00694 0.2033 0.0
H1848 H 0.33782 0.40092 0.06068 0.0
H1849 H 0.36982 0.38812 0.07303 0.0
H1850 H 0.33983 0.32997 0.07961 0.0
H1851 H 0.30815 0.3424 0.06658 0.0
H1852 H 0.38332 0.3729 0.10692 0.0
H1853 H 0.3843 0.31374 0.04554 0.0
H1854 H 0.36638 0.33307 0.04523 0.0
H1855 H 0.36204 0.31107 0.05938 0.0
C1856 C 0.33806 0.38543 0.06482 0.0
C1857 C 0.32047 0.37263 0.0624 0.0
C1858 C 0.35637 0.37811 0.07187 0.0
C1859 C 0.35744 0.35788 0.07678 0.0
C1860 C 0.33965 0.34541 0.07529 0.0
H1861 H 0.45779 0.30854 0.14543 0.0
H1862 H 0.42645 0.32377 0.1351 0.0
C1863 C 0.32146 0.3526 0.06797 0.0
C1864 C 0.37711 0.34974 0.08324 0.0
H1865 H 0.40791 0.31143 0.07337 0.0
C1866 C 0.38875 0.35952 0.09951 0.0
C1867 C 0.3845 0.33249 0.07338 0.0
C1868 C 0.37376 0.32212 0.05479 0.0
C1869 C 0.4073 0.35235 0.10637 0.0
C1870 C 0.41417 0.33451 0.09713 0.0
C1871 C 0.40264 0.32494 0.08068 0.0
C1872 C 0.43344 0.32567 0.10381 0.0
C1873 C 0.41952 0.36432 0.12311 0.0
C1874 C 0.44767 0.32101 0.08966 0.0
C1875 C 0.46535 0.31186 0.09545 0.0
C1876 C 0.46938 0.30729 0.11561 0.0
C1877 C 0.45525 0.31208 0.12984 0.0
C1878 C 0.43737 0.32095 0.12395 0.0
H1879 H 0.41557 0.38033 0.124 0.0
H1880 H 0.41627 0.35791 0.13771 0.0
H1881 H 0.43593 0.36382 0.12103 0.0
H1882 H 0.44508 0.32441 0.07403 0.0
H1883 H 0.47591 0.30844 0.0841 0.0
H1884 H 0.99045 0.81545 0.18733 0.0
H1885 H 0.97497 0.84695 0.19629 0.0
H1886 H 0.93713 0.84022 0.1415 0.0
H1887 H 0.95267 0.80868 0.13223 0.0
H1888 H 0.97126 0.88301 0.16701 0.0
H1889 H 0.9 0.84847 0.19363 0.0
H1890 H 0.92312 0.83543 0.19454 0.0
H1891 H 0.90998 0.83838 0.17078 0.0
C1892 C 0.97884 0.82062 0.17713 0.0
C1893 C 0.9728 0.80947 0.15904 0.0
C1894 C 0.97002 0.83865 0.18229 0.0
C1895 C 0.95483 0.84583 0.16963 0.0
C1896 C 0.94876 0.83485 0.15154 0.0
H1897 H 0.88121 0.94937 0.19429 0.0
H1898 H 0.89376 0.91807 0.17983 0.0
C1899 C 0.95771 0.81686 0.14625 0.0
C1900 C 0.94558 0.86496 0.17536 0.0
H1901 H 0.90443 0.88381 0.19661 0.0
C1902 C 0.9566 0.88323 0.17338 0.0
C1903 C 0.92638 0.86519 0.18344 0.0
C1904 C 0.91407 0.84588 0.18585 0.0
C1905 C 0.94903 0.90175 0.17948 0.0
C1906 C 0.93016 0.902 0.18842 0.0
C1907 C 0.9189 0.88369 0.18987 0.0
C1908 C 0.92234 0.92096 0.19715 0.0
C1909 C 0.96129 0.92089 0.17608 0.0
C1910 C 0.93399 0.93283 0.212 0.0
C1911 C 0.92696 0.95073 0.22013 0.0
C1912 C 0.90791 0.95713 0.21387 0.0
C1913 C 0.89598 0.94497 0.19939 0.0
C1914 C 0.90313 0.92705 0.19111 0.0
H1915 H 0.9713 0.9187 0.16341 0.0
H1916 H 0.95146 0.93339 0.17278 0.0
H1917 H 0.971 0.92536 0.18983 0.0
H1918 H 0.94855 0.92819 0.21744 0.0
H1919 H 0.93648 0.95951 0.23146 0.0
H1920 H 0.20518 0.64183 0.56732 0.0
H1921 H 0.17603 0.65523 0.58349 0.0
H1922 H 0.17521 0.7031 0.54245 0.0
H1923 H 0.20418 0.68999 0.52626 0.0
H1924 H 0.17181 0.6959 0.60178 0.0
H1925 H 0.11695 0.67637 0.53706 0.0
H1926 H 0.14085 0.66491 0.5398 0.0
H1927 H 0.13971 0.68979 0.53078 0.0
C1928 C 0.19881 0.65521 0.56171 0.0
C1929 C 0.20708 0.66473 0.54538 0.0
C1930 C 0.18216 0.66286 0.57101 0.0
C1931 C 0.17328 0.68003 0.56403 0.0
C1932 C 0.18161 0.68967 0.54792 0.0
H1933 H 0.07498 0.7546 0.5871 0.0
H1934 H 0.10374 0.73738 0.57512 0.0
C1935 C 0.19828 0.68215 0.53871 0.0
C1936 C 0.15536 0.68806 0.57351 0.0
H1937 H 0.10625 0.69834 0.56313 0.0
C1938 C 0.15739 0.69626 0.59344 0.0
C1939 C 0.13656 0.68853 0.56261 0.0
C1940 C 0.13323 0.67928 0.54143 0.0
C1941 C 0.14139 0.70568 0.60246 0.0
C1942 C 0.12268 0.70651 0.5914 0.0
C1943 C 0.12055 0.6978 0.57164 0.0
C1944 C 0.10541 0.7172 0.59949 0.0
C1945 C 0.14497 0.71538 0.62344 0.0
C1946 C 0.09657 0.71166 0.61727 0.0
C1947 C 0.08004 0.72165 0.62433 0.0
C1948 C 0.07183 0.73725 0.61362 0.0
C1949 C 0.08076 0.74268 0.59581 0.0
C1950 C 0.09727 0.7328 0.58887 0.0
H1951 H 0.1613 0.71784 0.62781 0.0
H1952 H 0.1379 0.73008 0.6247 0.0
H1953 H 0.13814 0.70539 0.63435 0.0
H1954 H 0.10225 0.69941 0.62555 0.0
H1955 H 0.07358 0.71697 0.63803 0.0
H1956 H 0.97725 0.71362 0.66638 0.0
H1957 H 0.95647 0.68694 0.68044 0.0
H1958 H 1.00381 0.64598 0.67287 0.0
H1959 H 0.02486 0.67265 0.65925 0.0
H1960 H 0.94148 0.64915 0.66673 0.0
H1961 H 0.99519 0.64366 0.73244 0.0
H1962 H 0.99715 0.6639 0.71558 0.0
H1963 H 1.00665 0.6398 0.70887 0.0
C1964 C 0.98319 0.69888 0.6675 0.0
C1965 C 1.00284 0.69536 0.66184 0.0
C1966 C 0.97127 0.68364 0.67559 0.0
C1967 C 0.97874 0.66457 0.6782 0.0
C1968 C 0.99792 0.66072 0.67155 0.0
H1969 H 0.93929 0.55104 0.7215 0.0
H1970 H 0.95516 0.57952 0.70579 0.0
C1971 C 0.00989 0.67597 0.6636 0.0
C1972 C 0.96675 0.64887 0.6883 0.0
H1973 H 0.96902 0.61771 0.72746 0.0
C1974 C 0.94742 0.6424 0.68011 0.0
C1975 C 0.97438 0.6402 0.70593 0.0
C1976 C 0.99438 0.64738 0.71636 0.0
C1977 C 0.93591 0.62696 0.6886 0.0
C1978 C 0.94388 0.61787 0.70578 0.0
C1979 C 0.96298 0.62464 0.71422 0.0
C1980 C 0.93322 0.60055 0.71466 0.0
C1981 C 0.91559 0.62 0.67882 0.0
C1982 C 0.9155 0.60287 0.7249 0.0
C1983 C 0.90634 0.58653 0.73415 0.0
C1984 C 0.91477 0.56757 0.7333 0.0
C1985 C 0.93235 0.56536 0.72266 0.0
C1986 C 0.94149 0.58165 0.71359 0.0
H1987 H 0.91278 0.62658 0.66401 0.0
H1988 H 0.91435 0.60332 0.67664 0.0
H1989 H 0.90362 0.62453 0.68883 0.0
H1990 H 0.90898 0.6174 0.72608 0.0
H1991 H 0.89284 0.58882 0.74216 0.0
H1992 H 0.19877 0.18539 0.50907 0.0
H1993 H 0.17097 0.19904 0.48984 0.0
H1994 H 0.16229 0.14329 0.45359 0.0
H1995 H 0.18979 0.12923 0.47338 0.0
H1996 H 0.16726 0.20663 0.45156 0.0
H1997 H 0.10547 0.15145 0.46739 0.0
H1998 H 0.12979 0.15246 0.48083 0.0
H1999 H 0.12628 0.14015 0.45607 0.0
C2000 C 0.19083 0.17591 0.49714 0.0
C2001 C 0.19645 0.15615 0.49284 0.0
C2002 C 0.17494 0.18379 0.4861 0.0
C2003 C 0.1643 0.17219 0.47034 0.0
C2004 C 0.16987 0.15242 0.46597 0.0
H2005 H 0.08585 0.23252 0.38364 0.0
H2006 H 0.11373 0.21489 0.39882 0.0
C2007 C 0.18566 0.1444 0.47725 0.0
C2008 C 0.14784 0.18123 0.45831 0.0
H2009 H 0.09775 0.17544 0.44361 0.0
C2010 C 0.15206 0.19978 0.44981 0.0
C2011 C 0.12793 0.17243 0.45611 0.0
C2012 C 0.122 0.15313 0.46574 0.0
C2013 C 0.13697 0.2099 0.43955 0.0
C2014 C 0.11712 0.20097 0.4371 0.0
C2015 C 0.11297 0.18226 0.44531 0.0
C2016 C 0.10013 0.21133 0.42735 0.0
C2017 C 0.14231 0.23046 0.43219 0.0
C2018 C 0.08287 0.21468 0.43799 0.0
C2019 C 0.0668 0.22442 0.42925 0.0
C2020 C 0.06757 0.23126 0.40962 0.0
C2021 C 0.08481 0.22775 0.39887 0.0
C2022 C 0.10084 0.21774 0.40759 0.0
H2023 H 0.15645 0.23735 0.43989 0.0
H2024 H 0.14464 0.22903 0.4158 0.0
H2025 H 0.13005 0.24082 0.43463 0.0
H2026 H 0.08185 0.20986 0.45321 0.0
H2027 H 0.05377 0.22662 0.438 0.0
H2028 H 0.59684 0.46485 0.23628 0.0
H2029 H 0.5852 0.43316 0.21859 0.0
H2030 H 0.64417 0.42732 0.19565 0.0
H2031 H 0.6562 0.45881 0.21443 0.0
H2032 H 0.58068 0.42261 0.18121 0.0
H2033 H 0.63556 0.37252 0.21484 0.0
H2034 H 0.63364 0.39816 0.22428 0.0
H2035 H 0.64732 0.39275 0.20219 0.0
C2036 C 0.60739 0.45684 0.22756 0.0
C2037 C 0.62744 0.46439 0.22679 0.0
C2038 C 0.6007 0.43864 0.21739 0.0
C2039 C 0.61378 0.42755 0.20587 0.0
C2040 C 0.63385 0.43518 0.20485 0.0
H2041 H 0.55548 0.3302 0.12358 0.0
H2042 H 0.5736 0.36166 0.13629 0.0
C2043 C 0.6407 0.45327 0.21547 0.0
C2044 C 0.60595 0.40838 0.19473 0.0
H2045 H 0.61334 0.35809 0.18843 0.0
C2046 C 0.58785 0.4085 0.18283 0.0
C2047 C 0.61515 0.38986 0.19687 0.0
C2048 C 0.63387 0.38821 0.21039 0.0
C2049 C 0.5784 0.39072 0.17358 0.0
C2050 C 0.58777 0.37224 0.17541 0.0
C2051 C 0.60617 0.3722 0.18686 0.0
C2052 C 0.57807 0.35261 0.16692 0.0
C2053 C 0.55795 0.3919 0.16285 0.0
C2054 C 0.5755 0.33648 0.17948 0.0
C2055 C 0.56573 0.31825 0.17209 0.0
C2056 C 0.55787 0.31575 0.15199 0.0
C2057 C 0.56095 0.3317 0.13924 0.0
C2058 C 0.57119 0.34981 0.14655 0.0
H2059 H 0.55047 0.40566 0.16786 0.0
H2060 H 0.55977 0.39249 0.14643 0.0
H2061 H 0.54786 0.37858 0.16548 0.0
H2062 H 0.58076 0.33807 0.1952 0.0
H2063 H 0.56406 0.30627 0.18232 0.0
H2064 H 0.33619 0.89417 0.97991 0.0
H2065 H 0.36328 0.88161 0.95987 0.0
H2066 H 0.34503 0.82069 0.97259 0.0
H2067 H 0.31785 0.83294 0.99203 0.0
H2068 H 0.39523 0.86107 0.97032 0.0
H2069 H 0.34837 0.81457 0.91267 0.0
H2070 H 0.33778 0.83259 0.92971 0.0
H2071 H 0.34264 0.80771 0.93748 0.0
C2072 C 0.33789 0.87809 0.97831 0.0
C2073 C 0.32473 0.86458 0.98748 0.0
C2074 C 0.35337 0.87093 0.96683 0.0
C2075 C 0.35593 0.85014 0.96428 0.0
C2076 C 0.343 0.83672 0.97373 0.0
H2077 H 0.46106 0.7862 0.94521 0.0
H2078 H 0.43361 0.80545 0.95705 0.0
C2079 C 0.32752 0.84382 0.98503 0.0
C2080 C 0.37268 0.84234 0.95267 0.0
H2081 H 0.38318 0.80622 0.91692 0.0
C2082 C 0.39256 0.8493 0.95843 0.0
C2083 C 0.36929 0.82728 0.93681 0.0
C2084 C 0.34834 0.82028 0.92866 0.0
C2085 C 0.4091 0.84082 0.94961 0.0
C2086 C 0.40573 0.82456 0.93499 0.0
C2087 C 0.38584 0.81842 0.92837 0.0
C2088 C 0.42253 0.81294 0.92737 0.0
C2089 C 0.43004 0.84934 0.95619 0.0
C2090 C 0.42509 0.80995 0.90661 0.0
C2091 C 0.44075 0.79858 0.89968 0.0
C2092 C 0.4541 0.78996 0.91342 0.0
C2093 C 0.45127 0.79278 0.93416 0.0
C2094 C 0.43562 0.80397 0.94101 0.0
H2095 H 0.42989 0.86543 0.96151 0.0
H2096 H 0.43599 0.84092 0.96895 0.0
H2097 H 0.44046 0.84808 0.94377 0.0
H2098 H 0.41505 0.81653 0.89576 0.0
H2099 H 0.44248 0.79668 0.88362 0.0
H2100 H 0.94583 0.46171 0.78713 0.0
H2101 H 0.95817 0.43394 0.80563 0.0
H2102 H 0.89735 0.416 0.81919 0.0
H2103 H 0.8847 0.44369 0.80007 0.0
H2104 H 0.9563 0.42563 0.8445 0.0
H2105 H 0.91664 0.36358 0.7962 0.0
H2106 H 0.91791 0.38931 0.78897 0.0
H2107 H 0.90047 0.38139 0.8071 0.0
C2108 C 0.93498 0.45188 0.79396 0.0
C2109 C 0.91421 0.45491 0.79197 0.0
C2110 C 0.94211 0.43598 0.80462 0.0
C2111 C 0.92872 0.42268 0.81365 0.0
C2112 C 0.90797 0.42579 0.812 0.0
H2113 H 0.98134 0.33597 0.8954 0.0
H2114 H 0.96197 0.36359 0.88305 0.0
C2115 C 0.90076 0.44168 0.80114 0.0
C2116 C 0.93683 0.40567 0.82466 0.0
H2117 H 0.93662 0.35432 0.82407 0.0
C2118 C 0.95189 0.41003 0.84014 0.0
C2119 C 0.9312 0.38529 0.81887 0.0
C2120 C 0.9158 0.37952 0.80177 0.0
C2121 C 0.96187 0.39466 0.84956 0.0
C2122 C 0.9563 0.37428 0.84371 0.0
C2123 C 0.94082 0.36992 0.82865 0.0
C2124 C 0.9675 0.35732 0.85163 0.0
C2125 C 0.97895 0.40046 0.86497 0.0
C2126 C 0.97663 0.34425 0.83812 0.0
C2127 C 0.98744 0.32837 0.84509 0.0
C2128 C 0.98949 0.32515 0.8658 0.0
C2129 C 0.98024 0.33815 0.87938 0.0
C2130 C 0.96922 0.354 0.87234 0.0
H2131 H 0.98438 0.41647 0.86427 0.0
H2132 H 0.97366 0.39837 0.88028 0.0
H2133 H 0.99185 0.39084 0.86276 0.0
H2134 H 0.97557 0.34645 0.8221 0.0
H2135 H 0.99434 0.31872 0.83415 0.0
H2136 H 0.30756 0.18375 0.55446 0.0
H2137 H 0.33947 0.19645 0.57089 0.0
H2138 H 0.35825 0.13565 0.5742 0.0
H2139 H 0.32678 0.12294 0.55601 0.0
H2140 H 0.35605 0.19395 0.60501 0.0
H2141 H 0.40711 0.1589 0.55217 0.0
H2142 H 0.38023 0.158 0.54704 0.0
H2143 H 0.3914 0.14049 0.56348 0.0
C2144 C 0.31854 0.17303 0.55831 0.0
C2145 C 0.31468 0.15233 0.55343 0.0
C2146 C 0.33685 0.18034 0.56793 0.0
C2147 C 0.35169 0.16714 0.57348 0.0
C2148 C 0.34753 0.14632 0.56942 0.0
H2149 H 0.45155 0.2183 0.65674 0.0
H2150 H 0.42063 0.2 0.64286 0.0
C2151 C 0.32939 0.13902 0.55918 0.0
C2152 C 0.37118 0.17543 0.58375 0.0
H2153 H 0.42242 0.17513 0.58207 0.0
C2154 C 0.37055 0.18987 0.59988 0.0
C2155 C 0.39023 0.17036 0.57706 0.0
C2156 C 0.39232 0.15626 0.55887 0.0
C2157 C 0.38818 0.19969 0.6091 0.0
C2158 C 0.40725 0.19413 0.60286 0.0
C2159 C 0.40791 0.17936 0.58704 0.0
C2160 C 0.42664 0.20421 0.61163 0.0
C2161 C 0.38598 0.2166 0.62472 0.0
C2162 C 0.44106 0.21172 0.59884 0.0
C2163 C 0.45912 0.22149 0.60676 0.0
C2164 C 0.46309 0.22445 0.6277 0.0
C2165 C 0.44883 0.21664 0.64053 0.0
C2166 C 0.431 0.20631 0.63258 0.0
H2167 H 0.37099 0.22308 0.623 0.0
H2168 H 0.38732 0.21067 0.63996 0.0
H2169 H 0.39776 0.22891 0.62373 0.0
H2170 H 0.43826 0.21026 0.58264 0.0
H2171 H 0.46978 0.22704 0.59639 0.0
H2172 H 0.55395 0.72766 0.3379 0.0
H2173 H 0.57067 0.69917 0.32364 0.0
H2174 H 0.56054 0.66681 0.37694 0.0
H2175 H 0.54275 0.69511 0.39105 0.0
H2176 H 0.60341 0.68181 0.33457 0.0
H2177 H 0.53904 0.62526 0.3346 0.0
H2178 H 0.53634 0.65174 0.34007 0.0
H2179 H 0.54662 0.63643 0.35914 0.0
C2180 C 0.55498 0.71445 0.3466 0.0
C2181 C 0.54659 0.71364 0.36555 0.0
C2182 C 0.56474 0.69814 0.33842 0.0
C2183 C 0.56662 0.68059 0.34897 0.0
C2184 C 0.55881 0.6799 0.36818 0.0
H2185 H 0.64765 0.58882 0.30543 0.0
H2186 H 0.63368 0.61659 0.3248 0.0
C2187 C 0.54874 0.69618 0.37631 0.0
C2188 C 0.57682 0.66327 0.33965 0.0
H2189 H 0.56989 0.61347 0.32432 0.0
C2190 C 0.59607 0.66685 0.33236 0.0
C2191 C 0.56722 0.64376 0.33653 0.0
C2192 C 0.5461 0.63905 0.34281 0.0
C2193 C 0.60579 0.65168 0.32176 0.0
C2194 C 0.59632 0.63208 0.31891 0.0
C2195 C 0.57724 0.62842 0.32654 0.0
C2196 C 0.60529 0.61542 0.30713 0.0
C2197 C 0.62569 0.65711 0.31301 0.0
C2198 C 0.59393 0.60511 0.291 0.0
C2199 C 0.60172 0.58901 0.28021 0.0
C2200 C 0.62119 0.58289 0.28513 0.0
C2201 C 0.63273 0.59336 0.30107 0.0
C2202 C 0.62476 0.60931 0.31212 0.0
H2203 H 0.62793 0.67361 0.31149 0.0
H2204 H 0.63813 0.65247 0.3232 0.0
H2205 H 0.62681 0.64936 0.29797 0.0
H2206 H 0.5789 0.60948 0.28677 0.0
H2207 H 0.59242 0.58129 0.26801 0.0
H2208 H 0.06841 0.77693 0.0847 0.0
H2209 H 0.09618 0.79614 0.07084 0.0
H2210 H 0.12435 0.80763 0.13047 0.0
H2211 H 0.0964 0.7885 0.14461 0.0
H2212 H 0.12438 0.84208 0.10674 0.0
H2213 H 0.15298 0.77597 0.06534 0.0
H2214 H 0.12671 0.77948 0.05995 0.0
H2215 H 0.13534 0.77351 0.08486 0.0
C2216 C 0.08049 0.78349 0.09494 0.0
C2217 C 0.08021 0.78098 0.1158 0.0
C2218 C 0.09641 0.79444 0.08694 0.0
C2219 C 0.11251 0.80308 0.09955 0.0
C2220 C 0.11213 0.80101 0.12043 0.0
H2221 H 0.22964 0.84259 0.06141 0.0
H2222 H 0.20108 0.82695 0.0772 0.0
C2223 C 0.09617 0.79 0.12848 0.0
C2224 C 0.12978 0.81407 0.09085 0.0
H2225 H 0.16733 0.80801 0.05837 0.0
C2226 C 0.13382 0.83464 0.0962 0.0
C2227 C 0.14221 0.80432 0.07723 0.0
C2228 C 0.13927 0.78206 0.07161 0.0
C2229 C 0.14979 0.84577 0.08811 0.0
C2230 C 0.16189 0.83611 0.0741 0.0
C2231 C 0.15795 0.81549 0.06895 0.0
C2232 C 0.17929 0.84675 0.0652 0.0
C2233 C 0.15382 0.86764 0.09494 0.0
C2234 C 0.17666 0.86324 0.05317 0.0
C2235 C 0.19311 0.87237 0.04405 0.0
C2236 C 0.21248 0.86505 0.04666 0.0
C2237 C 0.215 0.84867 0.05893 0.0
C2238 C 0.19864 0.83964 0.06802 0.0
H2239 H 0.1465 0.87144 0.10915 0.0
H2240 H 0.17026 0.87148 0.09726 0.0
H2241 H 0.14769 0.87718 0.08316 0.0
H2242 H 0.16182 0.86879 0.05045 0.0
H2243 H 0.19056 0.88487 0.03465 0.0
H2244 H 0.72484 0.94247 0.55269 0.0
H2245 H 0.70878 0.95671 0.58162 0.0
H2246 H 0.71695 0.90222 0.61258 0.0
H2247 H 0.7342 0.88815 0.58388 0.0
H2248 H 0.67593 0.94685 0.59867 0.0
H2249 H 0.73945 0.94247 0.65538 0.0
H2250 H 0.74216 0.93748 0.62882 0.0
H2251 H 0.73094 0.91845 0.6436 0.0
C2252 C 0.72354 0.93351 0.5657 0.0
C2253 C 0.73125 0.91424 0.566 0.0
C2254 C 0.71416 0.94169 0.58227 0.0
C2255 C 0.71192 0.93078 0.59956 0.0
C2256 C 0.71901 0.91126 0.59972 0.0
H2257 H 0.63122 0.97538 0.69119 0.0
H2258 H 0.64512 0.95581 0.66352 0.0
C2259 C 0.72876 0.90315 0.58321 0.0
C2260 C 0.70198 0.94003 0.61713 0.0
H2261 H 0.70889 0.95336 0.66743 0.0
C2262 C 0.68316 0.94825 0.61371 0.0
C2263 C 0.71144 0.94211 0.63677 0.0
C2264 C 0.73219 0.93485 0.64138 0.0
C2265 C 0.67375 0.95878 0.62915 0.0
C2266 C 0.68302 0.96052 0.64889 0.0
C2267 C 0.70167 0.95197 0.65238 0.0
C2268 C 0.67432 0.97209 0.66588 0.0
C2269 C 0.65443 0.96865 0.62386 0.0
C2270 C 0.6862 0.98736 0.67698 0.0
C2271 C 0.67845 0.99821 0.69308 0.0
C2272 C 0.6585 0.99424 0.69838 0.0
C2273 C 0.64654 0.97901 0.68729 0.0
C2274 C 0.65446 0.96787 0.67137 0.0
H2275 H 0.65262 0.97096 0.60747 0.0
H2276 H 0.64144 0.95878 0.62786 0.0
H2277 H 0.65386 0.98346 0.63222 0.0
H2278 H 0.70155 0.99097 0.67313 0.0
H2279 H 0.68808 0.00985 0.7013 0.0
H2280 H 0.89458 0.97907 0.33463 0.0
H2281 H 0.88178 0.95966 0.3621 0.0
H2282 H 0.8209 0.97159 0.34279 0.0
H2283 H 0.8334 0.99037 0.31525 0.0
H2284 H 0.86077 0.9706 0.39355 0.0
H2285 H 0.81502 0.91187 0.34737 0.0
H2286 H 0.83311 0.92877 0.33664 0.0
H2287 H 0.80809 0.93646 0.341 0.0
C2288 C 0.87846 0.97743 0.33619 0.0
C2289 C 0.86503 0.98616 0.32262 0.0
C2290 C 0.87116 0.96632 0.35188 0.0
C2291 C 0.85032 0.96371 0.35425 0.0
C2292 C 0.83698 0.97276 0.34093 0.0
H2293 H 0.78526 0.94614 0.4592 0.0
H2294 H 0.80474 0.9577 0.43173 0.0
C2295 C 0.84421 0.98369 0.32523 0.0
C2296 C 0.84235 0.95244 0.37115 0.0
H2297 H 0.80619 0.91678 0.38196 0.0
C2298 C 0.84905 0.95862 0.39099 0.0
C2299 C 0.82737 0.93646 0.36792 0.0
C2300 C 0.82065 0.92786 0.34706 0.0
C2301 C 0.8404 0.9501 0.40761 0.0
C2302 C 0.82422 0.93535 0.40435 0.0
C2303 C 0.81833 0.92833 0.38453 0.0
C2304 C 0.81245 0.92795 0.42117 0.0
C2305 C 0.84868 0.9571 0.42851 0.0
C2306 C 0.8095 0.90724 0.424 0.0
C2307 C 0.798 0.90048 0.43965 0.0
C2308 C 0.7892 0.91433 0.45272 0.0
C2309 C 0.79198 0.93502 0.44962 0.0
C2310 C 0.8033 0.94171 0.43396 0.0
H2311 H 0.86478 0.96249 0.42843 0.0
H2312 H 0.84013 0.9699 0.43411 0.0
H2313 H 0.84736 0.94489 0.43916 0.0
H2314 H 0.81622 0.8963 0.41419 0.0
H2315 H 0.79614 0.88446 0.44159 0.0
H2316 H 0.77017 0.08998 0.07713 0.0
H2317 H 0.7898 0.07591 0.10445 0.0
H2318 H 0.82684 0.13127 0.11265 0.0
H2319 H 0.80654 0.14579 0.08586 0.0
H2320 H 0.82733 0.06741 0.10857 0.0
H2321 H 0.81378 0.12434 0.16938 0.0
H2322 H 0.80031 0.12345 0.14512 0.0
H2323 H 0.82544 0.13506 0.14846 0.0
C2324 C 0.78238 0.09926 0.08487 0.0
C2325 C 0.78667 0.11909 0.07944 0.0
C2326 C 0.79367 0.09115 0.10048 0.0
C2327 C 0.80969 0.10256 0.11094 0.0
C2328 C 0.81422 0.1223 0.1053 0.0
H2329 H 0.89337 0.03936 0.1909 0.0
H2330 H 0.87962 0.05714 0.16235 0.0
C2331 C 0.80266 0.13058 0.08989 0.0
C2332 C 0.82164 0.09351 0.12746 0.0
H2333 H 0.83717 0.1001 0.17727 0.0
C2334 C 0.82947 0.07457 0.1236 0.0
C2335 C 0.82438 0.10273 0.14717 0.0
C2336 C 0.81537 0.12241 0.15287 0.0
C2337 C 0.83947 0.06444 0.13887 0.0
C2338 C 0.84245 0.07379 0.1585 0.0
C2339 C 0.83506 0.09294 0.16223 0.0
C2340 C 0.85154 0.06339 0.17584 0.0
C2341 C 0.84589 0.04344 0.13396 0.0
C2342 C 0.8408 0.06157 0.19329 0.0
C2343 C 0.8488 0.05188 0.20972 0.0
C2344 C 0.86772 0.04342 0.20917 0.0
C2345 C 0.87865 0.0454 0.19177 0.0
C2346 C 0.87071 0.05546 0.17536 0.0
H2347 H 0.83784 0.03653 0.12002 0.0
H2348 H 0.86227 0.0441 0.1315 0.0
H2349 H 0.84308 0.03348 0.14649 0.0
H2350 H 0.82604 0.06756 0.19417 0.0
H2351 H 0.83997 0.05098 0.22287 0.0
H2352 H 0.6745 0.07309 0.80217 0.0
H2353 H 0.68793 0.08966 0.83411 0.0
H2354 H 0.64346 0.05635 0.86576 0.0
H2355 H 0.6298 0.03965 0.83386 0.0
H2356 H 0.66639 0.11284 0.86513 0.0
H2357 H 0.70015 0.04394 0.89234 0.0
H2358 H 0.69325 0.04675 0.86607 0.0
H2359 H 0.67412 0.04137 0.88332 0.0
C2360 C 0.66745 0.06932 0.81588 0.0
C2361 C 0.65109 0.05491 0.81539 0.0
C2362 C 0.67515 0.07886 0.83413 0.0
C2363 C 0.66683 0.07409 0.8523 0.0
C2364 C 0.65023 0.0601 0.8519 0.0
H2365 H 0.70487 0.10461 0.97767 0.0
H2366 H 0.68749 0.0912 0.9462 0.0
C2367 C 0.6424 0.05063 0.83363 0.0
C2368 C 0.67587 0.08342 0.87171 0.0
H2369 H 0.70297 0.07284 0.91449 0.0
C2370 C 0.67439 0.10414 0.87596 0.0
C2371 C 0.68626 0.072 0.88579 0.0
C2372 C 0.68874 0.0498 0.88171 0.0
C2373 C 0.68279 0.11371 0.89409 0.0
C2374 C 0.69343 0.10234 0.90811 0.0
C2375 C 0.69483 0.08158 0.90381 0.0
C2376 C 0.70327 0.11154 0.92733 0.0
C2377 C 0.67974 0.13579 0.89822 0.0
C2378 C 0.71797 0.12752 0.92732 0.0
C2379 C 0.72786 0.1354 0.94539 0.0
C2380 C 0.72348 0.12725 0.96385 0.0
C2381 C 0.70867 0.1113 0.96379 0.0
C2382 C 0.69871 0.10357 0.94576 0.0
H2383 H 0.66647 0.14066 0.88929 0.0
H2384 H 0.67765 0.13929 0.91444 0.0
H2385 H 0.69322 0.14476 0.8939 0.0
H2386 H 0.72217 0.13362 0.91328 0.0
H2387 H 0.73929 0.14753 0.9448 0.0
H2388 H 0.55333 0.72501 0.94173 0.0
H2389 H 0.58196 0.70879 0.95636 0.0
H2390 H 0.61391 0.71726 0.90247 0.0
H2391 H 0.58549 0.73468 0.88802 0.0
H2392 H 0.59898 0.67597 0.9466 0.0
H2393 H 0.65618 0.73932 0.94354 0.0
H2394 H 0.6297 0.74215 0.93812 0.0
H2395 H 0.64476 0.73099 0.91931 0.0
C2396 C 0.56649 0.72375 0.93298 0.0
C2397 C 0.56715 0.73159 0.91377 0.0
C2398 C 0.58289 0.71427 0.94138 0.0
C2399 C 0.60037 0.71206 0.93076 0.0
C2400 C 0.6009 0.71929 0.91129 0.0
H2401 H 0.69079 0.63086 0.97675 0.0
H2402 H 0.66352 0.64495 0.95674 0.0
C2403 C 0.58454 0.72913 0.90296 0.0
C2404 C 0.61773 0.702 0.94025 0.0
H2405 H 0.66785 0.70869 0.95462 0.0
C2406 C 0.61405 0.68315 0.94833 0.0
C2407 C 0.6374 0.71139 0.94276 0.0
C2408 C 0.64226 0.73215 0.93566 0.0
C2409 C 0.62924 0.67364 0.95913 0.0
C2410 C 0.649 0.68285 0.96131 0.0
C2411 C 0.65278 0.70152 0.95289 0.0
C2412 C 0.66573 0.67403 0.97317 0.0
C2413 C 0.62364 0.65429 0.96881 0.0
C2414 C 0.67661 0.68578 0.98868 0.0
C2415 C 0.69249 0.67791 0.99979 0.0
C2416 C 0.69777 0.65799 0.99584 0.0
C2417 C 0.68688 0.64616 0.98037 0.0
C2418 C 0.6712 0.65418 0.96898 0.0
H2419 H 0.60718 0.65252 0.97079 0.0
H2420 H 0.62776 0.64135 0.95899 0.0
H2421 H 0.63171 0.6536 0.98377 0.0
H2422 H 0.67278 0.70111 0.99228 0.0
H2423 H 0.70057 0.68745 0.01159 0.0
H2424 H 0.09574 0.08163 0.7682 0.0
H2425 H 0.08208 0.1095 0.78729 0.0
H2426 H 0.13644 0.11581 0.82598 0.0
H2427 H 0.15057 0.08833 0.80629 0.0
H2428 H 0.07266 0.1128 0.82482 0.0
H2429 H 0.131 0.17316 0.81344 0.0
H2430 H 0.12993 0.14911 0.79954 0.0
H2431 H 0.14095 0.15176 0.8249 0.0
C2432 C 0.10492 0.08909 0.78063 0.0
C2433 C 0.12432 0.08283 0.78564 0.0
C2434 C 0.09704 0.10501 0.7916 0.0
C2435 C 0.10825 0.11501 0.80801 0.0
C2436 C 0.12765 0.10876 0.8131 0.0
H2437 H 0.04464 0.19391 0.89179 0.0
H2438 H 0.06268 0.16575 0.87774 0.0
C2439 C 0.1357 0.09297 0.80188 0.0
C2440 C 0.09917 0.13151 0.81993 0.0
H2441 H 0.10603 0.18112 0.83608 0.0
C2442 C 0.07999 0.12774 0.82729 0.0
C2443 C 0.10861 0.1511 0.82308 0.0
C2444 C 0.12866 0.15663 0.81467 0.0
C2445 C 0.06983 0.14298 0.83726 0.0
C2446 C 0.07937 0.16249 0.84065 0.0
C2447 C 0.09874 0.16616 0.83366 0.0
C2448 C 0.069 0.17972 0.84993 0.0
C2449 C 0.04861 0.13818 0.84324 0.0
C2450 C 0.06714 0.1973 0.83943 0.0
C2451 C 0.05722 0.21352 0.84757 0.0
C2452 C 0.04865 0.21258 0.86642 0.0
C2453 C 0.05077 0.19508 0.87713 0.0
C2454 C 0.06099 0.17889 0.86904 0.0
H2455 H 0.04168 0.12441 0.83491 0.0
H2456 H 0.04892 0.13549 0.85956 0.0
H2457 H 0.03886 0.15085 0.84042 0.0
H2458 H 0.07322 0.19843 0.82473 0.0
H2459 H 0.0562 0.22676 0.83892 0.0
H2460 H 0.92559 0.25396 0.41369 0.0
H2461 H 0.89962 0.27435 0.42747 0.0
H2462 H 0.94261 0.32529 0.43645 0.0
H2463 H 0.96865 0.30507 0.42239 0.0
H2464 H 0.90128 0.29068 0.46583 0.0
H2465 H 0.89342 0.35101 0.41212 0.0
H2466 H 0.90575 0.32814 0.40608 0.0
H2467 H 0.9189 0.34824 0.42142 0.0
C2468 C 0.92946 0.26961 0.41823 0.0
C2469 C 0.94924 0.27785 0.41694 0.0
C2470 C 0.91458 0.28125 0.42613 0.0
C2471 C 0.91908 0.30141 0.43288 0.0
C2472 C 0.93864 0.3099 0.43099 0.0
H2473 H 0.85423 0.36445 0.52428 0.0
H2474 H 0.87999 0.35002 0.50402 0.0
C2475 C 0.95355 0.29827 0.42301 0.0
C2476 C 0.90383 0.31282 0.44354 0.0
H2477 H 0.87761 0.35559 0.44325 0.0
C2478 C 0.89606 0.30483 0.46082 0.0
C2479 C 0.8969 0.33122 0.43695 0.0
C2480 C 0.90401 0.3401 0.41802 0.0
C2481 C 0.88179 0.3148 0.4718 0.0
C2482 C 0.87531 0.3335 0.46559 0.0
C2483 C 0.88279 0.34138 0.44813 0.0
C2484 C 0.8605 0.34476 0.47698 0.0
C2485 C 0.87351 0.30504 0.48982 0.0
C2486 C 0.84125 0.34749 0.46823 0.0
C2487 C 0.82646 0.35587 0.47976 0.0
C2488 C 0.8307 0.3617 0.50026 0.0
C2489 C 0.85037 0.35999 0.50861 0.0
C2490 C 0.86512 0.35166 0.49707 0.0
H2491 H 0.87624 0.28872 0.48966 0.0
H2492 H 0.88104 0.31238 0.5038 0.0
H2493 H 0.85705 0.30683 0.49038 0.0
H2494 H 0.83739 0.34235 0.45272 0.0
H2495 H 0.81149 0.35697 0.47282 0.0
H2496 H 0.64655 0.95531 0.80829 0.0
H2497 H 0.63646 0.92356 0.82301 0.0
H2498 H 0.57459 0.93992 0.82053 0.0
H2499 H 0.58441 0.97114 0.80515 0.0
H2500 H 0.61948 0.91431 0.85667 0.0
H2501 H 0.56786 0.88545 0.79254 0.0
H2502 H 0.58465 0.90743 0.79116 0.0
H2503 H 0.56085 0.90938 0.80261 0.0
C2504 C 0.63079 0.95209 0.81083 0.0
C2505 C 0.61626 0.96566 0.8053 0.0
C2506 C 0.62503 0.93394 0.81927 0.0
C2507 C 0.60466 0.92903 0.82248 0.0
C2508 C 0.59028 0.94294 0.81762 0.0
H2509 H 0.55992 0.83609 0.90001 0.0
H2510 H 0.57326 0.86744 0.88676 0.0
C2511 C 0.59596 0.9609 0.80892 0.0
C2512 C 0.5984 0.90947 0.83095 0.0
H2513 H 0.56532 0.86839 0.82297 0.0
C2514 C 0.60774 0.90419 0.84922 0.0
C2515 C 0.58332 0.896 0.82112 0.0
C2516 C 0.57376 0.89974 0.80068 0.0
C2517 C 0.60216 0.88611 0.85808 0.0
C2518 C 0.58635 0.87316 0.84876 0.0
C2519 C 0.57727 0.87832 0.83032 0.0
C2520 C 0.57914 0.85399 0.85745 0.0
C2521 C 0.61366 0.88092 0.87708 0.0
C2522 C 0.57748 0.83595 0.84537 0.0
C2523 C 0.56941 0.81815 0.85277 0.0
C2524 C 0.56297 0.81785 0.87253 0.0
C2525 C 0.56499 0.83577 0.88481 0.0
C2526 C 0.57275 0.8537 0.87726 0.0
H2527 H 0.62894 0.88864 0.87851 0.0
H2528 H 0.60544 0.88599 0.89033 0.0
H2529 H 0.61526 0.86444 0.87751 0.0
H2530 H 0.58225 0.83565 0.83006 0.0
H2531 H 0.56811 0.80461 0.84291 0.0
H2532 H 0.96658 0.20664 0.3918 0.0
H2533 H 0.94654 0.17685 0.3774 0.0
H2534 H 0.98705 0.17137 0.32927 0.0
H2535 H 1.00703 0.20105 0.34332 0.0
H2536 H 0.94621 0.16969 0.31598 0.0
H2537 H 0.95969 0.11714 0.37686 0.0
H2538 H 0.9507 0.14117 0.38456 0.0
H2539 H 0.97526 0.13992 0.37481 0.0
C2540 C 0.97133 0.19904 0.37823 0.0
C2541 C 0.98843 0.20642 0.36872 0.0
C2542 C 0.95989 0.18192 0.37007 0.0
C2543 C 0.96536 0.17176 0.35232 0.0
C2544 C 0.98252 0.17894 0.34297 0.0
H2545 H 0.9305 0.07175 0.26989 0.0
H2546 H 0.94476 0.10201 0.2886 0.0
C2547 C 0.99396 0.19597 0.35108 0.0
C2548 C 0.95292 0.15415 0.34286 0.0
H2549 H 0.93792 0.10505 0.34918 0.0
C2550 C 0.94432 0.15559 0.32329 0.0
C2551 C 0.95029 0.1358 0.35246 0.0
C2552 C 0.95956 0.13323 0.37328 0.0
C2553 C 0.93349 0.13914 0.31295 0.0
C2554 C 0.93148 0.12057 0.32224 0.0
C2555 C 0.93948 0.11928 0.34207 0.0
C2556 C 0.92243 0.10202 0.31104 0.0
C2557 C 0.92434 0.1418 0.2921 0.0
C2558 C 0.90531 0.09158 0.31766 0.0
C2559 C 0.89704 0.07405 0.30694 0.0
C2560 C 0.90588 0.06653 0.28953 0.0
C2561 C 0.92314 0.07703 0.28313 0.0
C2562 C 0.93132 0.09447 0.29378 0.0
H2563 H 0.92187 0.15788 0.28967 0.0
H2564 H 0.93477 0.13646 0.28077 0.0
H2565 H 0.90972 0.13295 0.28941 0.0
H2566 H 0.89828 0.09706 0.33102 0.0
H2567 H 0.88381 0.06635 0.31238 0.0
H2568 H 0.63816 0.07336 0.71296 0.0
H2569 H 0.62421 0.10157 0.69583 0.0
H2570 H 0.57541 0.10189 0.73588 0.0
H2571 H 0.58889 0.0735 0.75273 0.0
H2572 H 0.56179 0.10468 0.69729 0.0
H2573 H 0.6264 0.16031 0.7147 0.0
H2574 H 0.63284 0.13742 0.70177 0.0
H2575 H 0.62412 0.13678 0.72684 0.0
C2576 C 0.62449 0.07946 0.71819 0.0
C2577 C 0.61473 0.07108 0.73432 0.0
C2578 C 0.6166 0.09573 0.70844 0.0
C2579 C 0.59889 0.10415 0.71473 0.0
C2580 C 0.5891 0.09575 0.73074 0.0
H2581 H 0.52432 0.20255 0.69167 0.0
H2582 H 0.54091 0.17326 0.70334 0.0
C2583 C 0.59689 0.07947 0.74041 0.0
C2584 C 0.59014 0.12135 0.70445 0.0
H2585 H 0.5996 0.17052 0.6935 0.0
C2586 C 0.57011 0.11905 0.69645 0.0
C2587 C 0.60096 0.14015 0.70323 0.0
C2588 C 0.62221 0.14396 0.71224 0.0
C2589 C 0.56059 0.13495 0.6875 0.0
C2590 C 0.57127 0.15382 0.68663 0.0
C2591 C 0.59145 0.15604 0.69413 0.0
C2592 C 0.5613 0.1717 0.67916 0.0
C2593 C 0.53912 0.13147 0.67906 0.0
C2594 C 0.56741 0.18085 0.66178 0.0
C2595 C 0.55785 0.1977 0.65492 0.0
C2596 C 0.54216 0.20592 0.6655 0.0
C2597 C 0.53627 0.19673 0.68303 0.0
C2598 C 0.54571 0.17987 0.68974 0.0
H2599 H 0.5348 0.11518 0.67625 0.0
H2600 H 0.52885 0.13781 0.69004 0.0
H2601 H 0.53683 0.13912 0.66476 0.0
H2602 H 0.57948 0.17484 0.65342 0.0
H2603 H 0.56284 0.20433 0.64141 0.0
H2604 H 0.20564 0.34791 1.00618 0.0
H2605 H 0.17629 0.33292 0.9863 0.0
H2606 H 0.18179 0.37953 0.94411 0.0
H2607 H 0.21132 0.39487 0.96405 0.0
H2608 H 0.14164 0.37088 0.95526 0.0
H2609 H 0.17796 0.30114 0.93193 0.0
H2610 H 0.17979 0.30663 0.95868 0.0
H2611 H 0.19218 0.32348 0.94242 0.0
C2612 C 0.20073 0.35505 0.99267 0.0
C2613 C 0.21108 0.37255 0.98666 0.0
C2614 C 0.18394 0.34635 0.98125 0.0
C2615 C 0.17705 0.35485 0.96349 0.0
C2616 C 0.18695 0.37261 0.95767 0.0
H2617 H 0.07058 0.31492 0.88289 0.0
H2618 H 0.10118 0.33385 0.89715 0.0
C2619 C 0.20384 0.38135 0.9691 0.0
C2620 C 0.15945 0.34511 0.95122 0.0
H2621 H 0.14213 0.3005 0.92697 0.0
C2622 C 0.1418 0.35559 0.94883 0.0
C2623 C 0.15969 0.32518 0.94276 0.0
C2624 C 0.17848 0.31349 0.94388 0.0
C2625 C 0.1241 0.34632 0.93908 0.0
C2626 C 0.12417 0.32614 0.93122 0.0
C2627 C 0.14203 0.31592 0.93306 0.0
C2628 C 0.10562 0.31485 0.92221 0.0
C2629 C 0.10524 0.35787 0.93804 0.0
C2630 C 0.09816 0.29763 0.93125 0.0
C2631 C 0.08081 0.28675 0.92312 0.0
C2632 C 0.07043 0.29275 0.90563 0.0
C2633 C 0.07807 0.3099 0.89641 0.0
C2634 C 0.09551 0.32083 0.90462 0.0
H2635 H 0.10657 0.37165 0.94831 0.0
H2636 H 0.10238 0.36253 0.92243 0.0
H2637 H 0.09199 0.3483 0.94197 0.0
H2638 H 0.10572 0.29267 0.94477 0.0
H2639 H 0.07553 0.27361 0.93066 0.0
H2640 H 0.4731 0.71264 0.43601 0.0
H2641 H 0.44216 0.69831 0.44896 0.0
H2642 H 0.41015 0.70678 0.39222 0.0
H2643 H 0.4414 0.72031 0.37887 0.0
H2644 H 0.40923 0.71493 0.456 0.0
H2645 H 0.38945 0.65104 0.40074 0.0
H2646 H 0.41355 0.66492 0.40166 0.0
H2647 H 0.39186 0.67448 0.38882 0.0
C2648 C 0.45953 0.71119 0.42617 0.0
C2649 C 0.45975 0.71754 0.40636 0.0
C2650 C 0.4418 0.70301 0.43361 0.0
C2651 C 0.42373 0.70115 0.42155 0.0
C2652 C 0.42392 0.70744 0.4017 0.0
H2653 H 0.30656 0.69498 0.47401 0.0
H2654 H 0.3377 0.70502 0.45855 0.0
C2655 C 0.4418 0.71532 0.3941 0.0
C2656 C 0.40461 0.6938 0.4303 0.0
H2657 H 0.36371 0.66031 0.42258 0.0
C2658 C 0.39939 0.70288 0.4487 0.0
C2659 C 0.39177 0.67786 0.42106 0.0
C2660 C 0.39704 0.66637 0.4021 0.0
C2661 C 0.38176 0.69671 0.45795 0.0
C2662 C 0.3684 0.68149 0.4482 0.0
C2663 C 0.37374 0.67216 0.42996 0.0
C2664 C 0.34889 0.67509 0.45673 0.0
C2665 C 0.37797 0.7063 0.47836 0.0
C2666 C 0.34417 0.65473 0.46004 0.0
C2667 C 0.32607 0.64884 0.46854 0.0
C2668 C 0.31235 0.66323 0.47402 0.0
C2669 C 0.31691 0.68353 0.47028 0.0
C2670 C 0.33483 0.68933 0.46154 0.0
H2671 H 0.39224 0.71235 0.48646 0.0
H2672 H 0.36818 0.71908 0.47638 0.0
H2673 H 0.37039 0.69538 0.48794 0.0
H2674 H 0.35466 0.6434 0.45635 0.0
H2675 H 0.323 0.63309 0.47116 0.0
H2676 H 0.84489 0.57014 0.80705 0.0
H2677 H 0.83201 0.58428 0.83805 0.0
H2678 H 0.88786 0.57323 0.87047 0.0
H2679 H 0.90117 0.55986 0.83917 0.0
H2680 H 0.82393 0.5668 0.87032 0.0
H2681 H 0.88071 0.62886 0.89247 0.0
H2682 H 0.87975 0.61564 0.86805 0.0
H2683 H 0.89194 0.6051 0.88956 0.0
C2684 C 0.85457 0.57098 0.82072 0.0
C2685 C 0.8741 0.56393 0.82061 0.0
C2686 C 0.84716 0.57906 0.83849 0.0
C2687 C 0.85898 0.58011 0.8567 0.0
C2688 C 0.87858 0.57318 0.8566 0.0
H2689 H 0.80497 0.58402 0.97286 0.0
H2690 H 0.82088 0.57469 0.94183 0.0
C2691 C 0.88616 0.56539 0.83869 0.0
C2692 C 0.85015 0.5872 0.87583 0.0
H2693 H 0.85815 0.61946 0.91761 0.0
C2694 C 0.83141 0.57843 0.88055 0.0
C2695 C 0.85963 0.60259 0.88917 0.0
C2696 C 0.87901 0.61375 0.88447 0.0
C2697 C 0.82206 0.58436 0.89817 0.0
C2698 C 0.83203 0.59899 0.91202 0.0
C2699 C 0.8506 0.60805 0.90719 0.0
C2700 C 0.8234 0.60498 0.93157 0.0
C2701 C 0.80134 0.57514 0.90145 0.0
C2702 C 0.82036 0.6253 0.93679 0.0
C2703 C 0.81159 0.63076 0.95485 0.0
C2704 C 0.80557 0.616 0.96799 0.0
C2705 C 0.8091 0.59576 0.96295 0.0
C2706 C 0.81811 0.59037 0.9451 0.0
H2707 H 0.79331 0.56965 0.88697 0.0
H2708 H 0.80282 0.56201 0.91089 0.0
H2709 H 0.79196 0.58611 0.90918 0.0
H2710 H 0.82444 0.63691 0.92671 0.0
H2711 H 0.80912 0.64649 0.9583 0.0
H2712 H 0.68959 0.55796 0.22514 0.0
H2713 H 0.70266 0.57455 0.19635 0.0
H2714 H 0.64861 0.55445 0.16052 0.0
H2715 H 0.63501 0.53885 0.18987 0.0
H2716 H 0.71343 0.56028 0.16338 0.0
H2717 H 0.65254 0.61013 0.14374 0.0
H2718 H 0.65315 0.59691 0.16667 0.0
H2719 H 0.6432 0.58437 0.14327 0.0
C2720 C 0.68039 0.55729 0.21119 0.0
C2721 C 0.66128 0.54712 0.20977 0.0
C2722 C 0.68788 0.56679 0.19467 0.0
C2723 C 0.67663 0.56608 0.17612 0.0
C2724 C 0.65744 0.55589 0.17471 0.0
H2725 H 0.73827 0.58221 0.0652 0.0
H2726 H 0.7215 0.56924 0.0938 0.0
C2727 C 0.6497 0.54681 0.19146 0.0
C2728 C 0.68568 0.57492 0.15816 0.0
H2729 H 0.67677 0.60506 0.11893 0.0
C2730 C 0.70539 0.57022 0.15381 0.0
C2731 C 0.6755 0.58818 0.14567 0.0
C2732 C 0.65503 0.59537 0.1502 0.0
C2733 C 0.71509 0.57816 0.13748 0.0
C2734 C 0.70449 0.59046 0.1243 0.0
C2735 C 0.68487 0.5954 0.12875 0.0
C2736 C 0.71355 0.59836 0.10596 0.0
C2737 C 0.73685 0.57371 0.13502 0.0
C2738 C 0.71377 0.61901 0.10236 0.0
C2739 C 0.72281 0.62645 0.08546 0.0
C2740 C 0.73204 0.61344 0.07185 0.0
C2741 C 0.73145 0.59275 0.07531 0.0
C2742 C 0.72204 0.5853 0.09191 0.0
H2743 H 0.74451 0.57045 0.14963 0.0
H2744 H 0.73753 0.56016 0.12469 0.0
H2745 H 0.74537 0.58649 0.12872 0.0
H2746 H 0.70725 0.62946 0.11283 0.0
H2747 H 0.72296 0.64246 0.08334 0.0
H2748 H 0.71728 0.38056 0.44481 0.0
H2749 H 0.70467 0.39294 0.41271 0.0
H2750 H 0.69701 0.45102 0.44221 0.0
H2751 H 0.71022 0.43902 0.47404 0.0
H2752 H 0.67015 0.40774 0.39921 0.0
H2753 H 0.73135 0.46718 0.39762 0.0
H2754 H 0.73183 0.4479 0.41562 0.0
H2755 H 0.71752 0.46977 0.41989 0.0
C2756 C 0.71283 0.39595 0.44445 0.0
C2757 C 0.71498 0.40887 0.46195 0.0
C2758 C 0.70563 0.40302 0.42608 0.0
C2759 C 0.70034 0.4231 0.42486 0.0
C2760 C 0.70159 0.43569 0.44255 0.0
H2761 H 0.63188 0.47205 0.32416 0.0
H2762 H 0.642 0.45666 0.35549 0.0
C2763 C 0.70903 0.42874 0.46081 0.0
C2764 C 0.6938 0.43101 0.40512 0.0
H2765 H 0.70362 0.46896 0.37383 0.0
C2766 C 0.67753 0.42107 0.3936 0.0
C2767 C 0.70363 0.44819 0.39753 0.0
C2768 C 0.72218 0.45875 0.4082 0.0
C2769 C 0.67063 0.42803 0.37497 0.0
C2770 C 0.67988 0.44577 0.36787 0.0
C2771 C 0.69633 0.4555 0.37928 0.0
C2772 C 0.67324 0.45435 0.34846 0.0
C2773 C 0.65384 0.41597 0.36291 0.0
C2774 C 0.68741 0.4587 0.33417 0.0
C2775 C 0.68175 0.46789 0.31648 0.0
C2776 C 0.66169 0.47283 0.31252 0.0
C2777 C 0.64739 0.46822 0.32664 0.0
C2778 C 0.65316 0.45928 0.34453 0.0
H2779 H 0.65283 0.40004 0.36713 0.0
H2780 H 0.63927 0.42252 0.366 0.0
H2781 H 0.65595 0.4162 0.34649 0.0
H2782 H 0.70299 0.45512 0.33676 0.0
H2783 H 0.69315 0.47116 0.30592 0.0
H2784 H 0.89457 0.46442 0.71168 0.0
H2785 H 0.87863 0.44485 0.68224 0.0
H2786 H 0.83285 0.48794 0.67732 0.0
H2787 H 0.84846 0.50747 0.70657 0.0
H2788 H 0.81748 0.4475 0.67572 0.0
H2789 H 0.87822 0.45857 0.62244 0.0
H2790 H 0.88569 0.44922 0.6464 0.0
H2791 H 0.87705 0.47422 0.6453 0.0
C2792 C 0.88118 0.46981 0.70427 0.0
C2793 C 0.87283 0.48755 0.71162 0.0
C2794 C 0.87214 0.45863 0.68737 0.0
C2795 C 0.85462 0.46501 0.67745 0.0
C2796 C 0.84635 0.48272 0.6847 0.0
H2797 H 0.76961 0.43247 0.5779 0.0
H2798 H 0.78851 0.4463 0.60831 0.0
C2799 C 0.85536 0.49389 0.70149 0.0
C2800 C 0.84441 0.4531 0.65987 0.0
H2801 H 0.8495 0.43821 0.61054 0.0
C2802 C 0.82453 0.4454 0.6615 0.0
C2803 C 0.85363 0.45023 0.64135 0.0
C2804 C 0.87477 0.45859 0.63859 0.0
C2805 C 0.81355 0.43512 0.64508 0.0
C2806 C 0.82252 0.43283 0.62635 0.0
C2807 C 0.84261 0.44001 0.62487 0.0
C2808 C 0.81095 0.42399 0.60789 0.0
C2809 C 0.79244 0.42675 0.64801 0.0
C2810 C 0.81745 0.40703 0.59718 0.0
C2811 C 0.80669 0.39907 0.57958 0.0
C2812 C 0.78929 0.40805 0.57221 0.0
C2813 C 0.78287 0.42506 0.58304 0.0
C2814 C 0.79361 0.43296 0.60058 0.0
H2815 H 0.79017 0.4242 0.66411 0.0
H2816 H 0.78151 0.43772 0.64302 0.0
H2817 H 0.78902 0.41233 0.63902 0.0
H2818 H 0.83084 0.39991 0.60247 0.0
H2819 H 0.81212 0.38598 0.5717 0.0
H2820 H 0.3872 0.0872 0.23417 0.0
H2821 H 0.40108 0.11541 0.21598 0.0
H2822 H 0.45431 0.08309 0.20563 0.0
H2823 H 0.4403 0.05473 0.22273 0.0
H2824 H 0.43311 0.13981 0.22318 0.0
H2825 H 0.44192 0.09934 0.15008 0.0
H2826 H 0.42794 0.08827 0.16958 0.0
H2827 H 0.45497 0.08718 0.16983 0.0
C2828 C 0.40179 0.08605 0.22787 0.0
C2829 C 0.41257 0.0686 0.23 0.0
C2830 C 0.40972 0.10221 0.21746 0.0
C2831 C 0.4286 0.10129 0.20898 0.0
C2832 C 0.43946 0.08402 0.21139 0.0
H2833 H 0.51082 0.20084 0.18618 0.0
H2834 H 0.49071 0.17349 0.19961 0.0
C2835 C 0.43147 0.06782 0.22149 0.0
C2836 C 0.43751 0.11863 0.19844 0.0
H2837 H 0.46218 0.13045 0.15649 0.0
C2838 C 0.43922 0.13779 0.20847 0.0
C2839 C 0.44512 0.11627 0.179 0.0
C2840 C 0.44218 0.09669 0.16643 0.0
C2841 C 0.44909 0.15431 0.2001 0.0
C2842 C 0.45819 0.15153 0.18144 0.0
C2843 C 0.45563 0.13261 0.17096 0.0
C2844 C 0.47084 0.16783 0.17283 0.0
C2845 C 0.44944 0.17463 0.21133 0.0
C2846 C 0.46722 0.17317 0.15283 0.0
C2847 C 0.47913 0.18855 0.14488 0.0
C2848 C 0.4948 0.199 0.15683 0.0
C2849 C 0.49868 0.1933 0.17665 0.0
C2850 C 0.48703 0.17776 0.18444 0.0
H2851 H 0.43625 0.1758 0.22079 0.0
H2852 H 0.46323 0.17664 0.22154 0.0
H2853 H 0.44944 0.18706 0.20087 0.0
H2854 H 0.45498 0.16563 0.14345 0.0
H2855 H 0.47573 0.19259 0.12957 0.0
H2856 H 0.05107 0.81035 0.68258 0.0
H2857 H 0.06806 0.84181 0.69616 0.0
H2858 H 0.07902 0.8587 0.63584 0.0
H2859 H 0.0605 0.82786 0.62213 0.0
H2860 H 0.10336 0.85727 0.69689 0.0
H2861 H 0.05632 0.90876 0.65495 0.0
H2862 H 0.05019 0.88207 0.65444 0.0
H2863 H 0.06871 0.89213 0.63828 0.0
C2864 C 0.05683 0.82083 0.67216 0.0
C2865 C 0.054 0.81669 0.65123 0.0
C2866 C 0.06671 0.83886 0.67997 0.0
C2867 C 0.07448 0.85306 0.6671 0.0
C2868 C 0.07251 0.84851 0.64617 0.0
H2869 H 0.15664 0.9524 0.72212 0.0
H2870 H 0.1436 0.92095 0.70418 0.0
C2871 C 0.06206 0.83072 0.63832 0.0
C2872 C 0.0847 0.87242 0.67575 0.0
H2873 H 0.0855 0.92355 0.67302 0.0
C2874 C 0.09934 0.87177 0.69172 0.0
C2875 C 0.07941 0.89147 0.66925 0.0
C2876 C 0.06265 0.89369 0.65345 0.0
C2877 C 0.10848 0.88943 0.70157 0.0
C2878 C 0.10369 0.90845 0.6946 0.0
C2879 C 0.08937 0.90907 0.67835 0.0
C2880 C 0.11218 0.92793 0.70469 0.0
C2881 C 0.12241 0.88739 0.71991 0.0
C2882 C 0.09914 0.94298 0.71004 0.0
C2883 C 0.10664 0.96127 0.71954 0.0
C2884 C 0.12739 0.9649 0.72449 0.0
C2885 C 0.14053 0.94999 0.7189 0.0
C2886 C 0.13304 0.93186 0.7088 0.0
H2887 H 0.11953 0.87273 0.72676 0.0
H2888 H 0.13824 0.88806 0.71542 0.0
H2889 H 0.12073 0.89963 0.73157 0.0
H2890 H 0.08301 0.94054 0.70702 0.0
H2891 H 0.09604 0.97242 0.72324 0.0
H2892 H 0.49213 0.81927 0.33271 0.0
H2893 H 0.47361 0.84702 0.32036 0.0
H2894 H 0.46083 0.86543 0.38123 0.0
H2895 H 0.47997 0.83777 0.39388 0.0
H2896 H 0.43486 0.85548 0.32254 0.0
H2897 H 0.48374 0.91763 0.36133 0.0
H2898 H 0.49085 0.89187 0.3602 0.0
H2899 H 0.47293 0.89998 0.37775 0.0
C2900 C 0.48546 0.8292 0.34357 0.0
C2901 C 0.48768 0.82631 0.36435 0.0
C2902 C 0.4748 0.84509 0.33643 0.0
C2903 C 0.46598 0.85852 0.34982 0.0
C2904 C 0.46785 0.85555 0.37059 0.0
H2905 H 0.384 0.94511 0.29741 0.0
H2906 H 0.39645 0.91754 0.3168 0.0
C2907 C 0.47872 0.83967 0.37781 0.0
C2908 C 0.45495 0.87551 0.34171 0.0
H2909 H 0.45568 0.92685 0.34158 0.0
C2910 C 0.43931 0.8711 0.32681 0.0
C2911 C 0.46085 0.8959 0.34715 0.0
C2912 C 0.47811 0.90172 0.36235 0.0
C2913 C 0.42985 0.88643 0.31681 0.0
C2914 C 0.43581 0.90682 0.3222 0.0
C2915 C 0.45103 0.91123 0.33752 0.0
C2916 C 0.42783 0.92374 0.31097 0.0
C2917 C 0.41427 0.88057 0.2999 0.0
C2918 C 0.44129 0.93676 0.30167 0.0
C2919 C 0.43427 0.95261 0.29086 0.0
C2920 C 0.41355 0.95587 0.28898 0.0
C2921 C 0.40002 0.94291 0.29838 0.0
C2922 C 0.40712 0.92708 0.3094 0.0
H2923 H 0.4149 0.86454 0.29455 0.0
H2924 H 0.39902 0.88269 0.30533 0.0
H2925 H 0.41636 0.89013 0.28692 0.0
H2926 H 0.45732 0.93454 0.30261 0.0
H2927 H 0.44517 0.96223 0.28384 0.0
H2928 H 0.83215 0.62633 0.04166 0.0
H2929 H 0.86433 0.63931 0.05841 0.0
H2930 H 0.83362 0.6844 0.09175 0.0
H2931 H 0.80149 0.67168 0.07515 0.0
H2932 H 0.8804 0.68118 0.05705 0.0
H2933 H 0.87024 0.65841 0.13513 0.0
H2934 H 0.85587 0.64643 0.11353 0.0
H2935 H 0.84961 0.67073 0.1235 0.0
C2936 C 0.83218 0.63883 0.05276 0.0
C2937 C 0.81417 0.64792 0.05703 0.0
C2938 C 0.85061 0.64626 0.06227 0.0
C2939 C 0.85134 0.6627 0.07646 0.0
C2940 C 0.83338 0.67152 0.08107 0.0
H2941 H 0.94513 0.73673 0.14588 0.0
H2942 H 0.91339 0.71965 0.1322 0.0
C2943 C 0.81501 0.66425 0.07146 0.0
C2944 C 0.87098 0.67148 0.08555 0.0
H2945 H 0.89845 0.6806 0.1303 0.0
C2946 C 0.88445 0.68092 0.07304 0.0
C2947 C 0.87609 0.67134 0.10644 0.0
C2948 C 0.8623 0.66107 0.12048 0.0
C2949 C 0.90272 0.69059 0.08088 0.0
C2950 C 0.90798 0.6903 0.10178 0.0
C2951 C 0.89449 0.68079 0.1143 0.0
C2952 C 0.92735 0.69989 0.11089 0.0
C2953 C 0.91588 0.70159 0.06675 0.0
C2954 C 0.94583 0.6941 0.10391 0.0
C2955 C 0.96396 0.70392 0.11157 0.0
C2956 C 0.96409 0.71958 0.12666 0.0
C2957 C 0.94562 0.72476 0.13427 0.0
C2958 C 0.92744 0.71501 0.12645 0.0
H2959 H 0.90715 0.70543 0.05292 0.0
H2960 H 0.92309 0.71569 0.07419 0.0
H2961 H 0.92793 0.69177 0.06206 0.0
H2962 H 0.94625 0.68209 0.09235 0.0
H2963 H 0.97787 0.69934 0.10548 0.0
H2964 H 0.56725 0.30078 0.61435 0.0
H2965 H 0.59408 0.32145 0.6004 0.0
H2966 H 0.63387 0.27275 0.60498 0.0
H2967 H 0.60707 0.25185 0.61858 0.0
H2968 H 0.63284 0.33473 0.61403 0.0
H2969 H 0.63469 0.28386 0.54559 0.0
H2970 H 0.61483 0.28187 0.5629 0.0
H2971 H 0.63866 0.27129 0.56853 0.0
C2972 C 0.58178 0.29451 0.61261 0.0
C2973 C 0.58492 0.27454 0.61744 0.0
C2974 C 0.5971 0.30637 0.60457 0.0
C2975 C 0.61586 0.29852 0.60117 0.0
C2976 C 0.61936 0.27897 0.60695 0.0
H2977 H 0.72791 0.3378 0.55305 0.0
H2978 H 0.69999 0.32086 0.5688 0.0
C2979 C 0.60404 0.26708 0.61488 0.0
C2980 C 0.6316 0.31053 0.59116 0.0
H2981 H 0.66111 0.30944 0.55066 0.0
C2982 C 0.63892 0.32928 0.6001 0.0
C2983 C 0.63943 0.30351 0.57286 0.0
C2984 C 0.63137 0.28413 0.56178 0.0
C2985 C 0.65434 0.34083 0.59163 0.0
C2986 C 0.66249 0.33354 0.57362 0.0
C2987 C 0.65492 0.31498 0.56451 0.0
C2988 C 0.67944 0.34447 0.56435 0.0
C2989 C 0.66224 0.36044 0.60231 0.0
C2990 C 0.67717 0.36341 0.55644 0.0
C2991 C 0.69318 0.37322 0.54725 0.0
C2992 C 0.71176 0.36422 0.54577 0.0
C2993 C 0.71388 0.34525 0.55379 0.0
C2994 C 0.69791 0.33548 0.56286 0.0
H2995 H 0.65722 0.362 0.61794 0.0
H2996 H 0.67897 0.36172 0.60284 0.0
H2997 H 0.65663 0.37315 0.59391 0.0
H2998 H 0.66295 0.37051 0.55715 0.0
H2999 H 0.69095 0.38779 0.54127 0.0
H3000 H 0.24445 0.39247 0.08904 0.0
H3001 H 0.2285 0.40829 0.11779 0.0
H3002 H 0.20281 0.4511 0.07893 0.0
H3003 H 0.21872 0.43571 0.05038 0.0
H3004 H 0.2217 0.46924 0.11322 0.0
H3005 H 0.16933 0.40612 0.13214 0.0
H3006 H 0.19524 0.40005 0.13108 0.0
H3007 H 0.1815 0.40642 0.10855 0.0
C3008 C 0.23526 0.40514 0.08658 0.0
C3009 C 0.23297 0.41279 0.06733 0.0
C3010 C 0.22606 0.41411 0.10303 0.0
C3011 C 0.21428 0.4308 0.10051 0.0
C3012 C 0.21179 0.43825 0.08128 0.0
H3013 H 0.13426 0.48901 0.18252 0.0
H3014 H 0.14866 0.47009 0.15463 0.0
C3015 C 0.22095 0.42937 0.06492 0.0
C3016 C 0.20529 0.44128 0.1179 0.0
H3017 H 0.17171 0.43519 0.15456 0.0
C3018 C 0.21078 0.46177 0.12226 0.0
C3019 C 0.19084 0.43162 0.12955 0.0
C3020 C 0.18369 0.40989 0.12505 0.0
C3021 C 0.20237 0.47282 0.13796 0.0
C3022 C 0.18828 0.46307 0.14992 0.0
C3023 C 0.18261 0.44262 0.14548 0.0
C3024 C 0.1794 0.47393 0.16714 0.0
C3025 C 0.20838 0.49497 0.14137 0.0
C3026 C 0.19183 0.4821 0.18357 0.0
C3027 C 0.18369 0.49294 0.19945 0.0
C3028 C 0.16287 0.4958 0.19934 0.0
C3029 C 0.15036 0.48723 0.18305 0.0
C3030 C 0.15855 0.47635 0.16713 0.0
H3031 H 0.21507 0.50121 0.12792 0.0
H3032 H 0.19521 0.5037 0.14516 0.0
H3033 H 0.21982 0.49715 0.15416 0.0
H3034 H 0.20789 0.48012 0.1841 0.0
H3035 H 0.1938 0.49913 0.2118 0.0
H3036 H 0.33346 0.49472 0.81891 0.0
H3037 H 0.32151 0.47591 0.8467 0.0
H3038 H 0.38249 0.46191 0.86332 0.0
H3039 H 0.39474 0.48133 0.83565 0.0
H3040 H 0.32337 0.43691 0.85424 0.0
H3041 H 0.36419 0.48401 0.9165 0.0
H3042 H 0.36257 0.49168 0.89092 0.0
H3043 H 0.38002 0.47335 0.89821 0.0
C3044 C 0.34442 0.48773 0.82847 0.0
C3045 C 0.36511 0.48966 0.82508 0.0
C3046 C 0.33752 0.4769 0.84437 0.0
C3047 C 0.35107 0.46764 0.8573 0.0
C3048 C 0.37176 0.46927 0.85384 0.0
H3049 H 0.29942 0.38449 0.94331 0.0
H3050 H 0.31858 0.39726 0.91569 0.0
C3051 C 0.37874 0.48031 0.83796 0.0
C3052 C 0.34322 0.45635 0.87424 0.0
H3053 H 0.3443 0.45597 0.9256 0.0
C3054 C 0.32805 0.44098 0.86985 0.0
C3055 C 0.34922 0.46174 0.89462 0.0
C3056 C 0.36476 0.4787 0.90044 0.0
C3057 C 0.3183 0.4313 0.88521 0.0
C3058 C 0.32423 0.43676 0.9056 0.0
C3059 C 0.33983 0.4517 0.90998 0.0
C3060 C 0.31326 0.4286 0.92261 0.0
C3061 C 0.30107 0.41604 0.87943 0.0
C3062 C 0.30436 0.44193 0.93603 0.0
C3063 C 0.29368 0.43473 0.9519 0.0
C3064 C 0.29154 0.41395 0.95476 0.0
C3065 C 0.30061 0.40056 0.94143 0.0
C3066 C 0.31149 0.40783 0.92557 0.0
H3067 H 0.29542 0.41703 0.86353 0.0
H3068 H 0.30631 0.40067 0.88117 0.0
H3069 H 0.28834 0.41814 0.88931 0.0
H3070 H 0.30548 0.458 0.9341 0.0
H3071 H 0.28693 0.44553 0.96183 0.0
H3072 H 0.30399 0.64853 0.58812 0.0
H3073 H 0.32463 0.63445 0.61499 0.0
H3074 H 0.28991 0.5778 0.60549 0.0
H3075 H 0.26995 0.59145 0.57818 0.0
H3076 H 0.31689 0.62085 0.64963 0.0
H3077 H 0.34473 0.55755 0.60432 0.0
H3078 H 0.33144 0.57733 0.59298 0.0
H3079 H 0.31774 0.55631 0.60292 0.0
C3080 C 0.30082 0.63305 0.59175 0.0
C3081 C 0.28545 0.62107 0.58088 0.0
C3082 C 0.31265 0.62499 0.60709 0.0
C3083 C 0.30926 0.60483 0.61199 0.0
C3084 C 0.29343 0.59312 0.60157 0.0
H3085 H 0.33811 0.55445 0.72522 0.0
H3086 H 0.32439 0.57142 0.69666 0.0
C3087 C 0.28185 0.60103 0.58605 0.0
C3088 C 0.32167 0.59622 0.62845 0.0
H3089 H 0.34707 0.55477 0.64032 0.0
C3090 C 0.32369 0.60652 0.64748 0.0
C3091 C 0.33109 0.57775 0.62569 0.0
C3092 C 0.33134 0.56674 0.6053 0.0
C3093 C 0.33398 0.59848 0.66395 0.0
C3094 C 0.34189 0.5792 0.66158 0.0
C3095 C 0.34072 0.56935 0.64233 0.0
C3096 C 0.35058 0.56865 0.679 0.0
C3097 C 0.33635 0.61089 0.68365 0.0
C3098 C 0.36963 0.5605 0.67843 0.0
C3099 C 0.3774 0.55015 0.69469 0.0
C3100 C 0.36628 0.54777 0.7119 0.0
C3101 C 0.3472 0.55591 0.71232 0.0
C3102 C 0.33937 0.56594 0.69601 0.0
H3103 H 0.33646 0.62725 0.68113 0.0
H3104 H 0.32338 0.60721 0.69286 0.0
H3105 H 0.35048 0.60787 0.69233 0.0
H3106 H 0.37855 0.56222 0.66542 0.0
H3107 H 0.39215 0.54414 0.69382 0.0
H3108 H 0.13101 0.5387 0.33433 0.0
H3109 H 0.14395 0.55564 0.36641 0.0
H3110 H 0.18636 0.59185 0.33502 0.0
H3111 H 0.17366 0.57509 0.30299 0.0
H3112 H 0.18601 0.55656 0.38172 0.0
H3113 H 0.15888 0.63312 0.37247 0.0
H3114 H 0.1479 0.61112 0.35802 0.0
H3115 H 0.17158 0.62254 0.35157 0.0
C3116 C 0.14292 0.55044 0.3342 0.0
C3117 C 0.15125 0.55551 0.31601 0.0
C3118 C 0.15032 0.56007 0.35256 0.0
C3119 C 0.16597 0.57514 0.35308 0.0
C3120 C 0.17407 0.58048 0.33496 0.0
H3121 H 0.23849 0.64756 0.44558 0.0
H3122 H 0.2215 0.63302 0.41417 0.0
C3123 C 0.16682 0.57078 0.31664 0.0
C3124 C 0.17469 0.58451 0.37261 0.0
H3125 H 0.18209 0.62935 0.40015 0.0
C3126 C 0.18502 0.57243 0.38586 0.0
C3127 C 0.17357 0.60526 0.37784 0.0
C3128 C 0.16226 0.6188 0.36434 0.0
C3129 C 0.19465 0.58062 0.40401 0.0
C3130 C 0.19344 0.60139 0.40935 0.0
C3131 C 0.18301 0.61345 0.3961 0.0
C3132 C 0.20302 0.61086 0.42855 0.0
C3133 C 0.2066 0.56704 0.41693 0.0
C3134 C 0.19794 0.60364 0.44716 0.0
C3135 C 0.20771 0.61181 0.46511 0.0
C3136 C 0.22263 0.62762 0.46493 0.0
C3137 C 0.22713 0.63539 0.44632 0.0
C3138 C 0.21742 0.62708 0.42833 0.0
H3139 H 0.21089 0.55346 0.40811 0.0
H3140 H 0.22052 0.57508 0.42387 0.0
H3141 H 0.19725 0.56189 0.42919 0.0
H3142 H 0.18648 0.59154 0.44781 0.0
H3143 H 0.20366 0.60557 0.47913 0.0
loop_
_geom_bond_atom_site_label_1
_geom_bond_atom_site_label_2
_geom_bond_distance
_geom_bond_site_symmetry_2
_ccdc_geom_bond_type
Co0 O2 2.154 . S
Co0 O8 2.074 1_655 S
Co0 O11 2.093 . S
Co0 O24 2.097 . S
Co0 N41 2.151 1_655 S
Co0 N49 2.214 . S
Co1 O2 2.134 1_455 S
Co1 O7 2.058 . S
Co1 O17 2.057 . S
Co1 O32 2.037 1_455 S
Co1 N36 2.145 . S
Co1 N57 2.257 1_455 S
O2 Co0 2.154 . S
O2 Co1 2.134 1_655 S
C3 O4 1.278 . S
C3 O11 1.224 . S
O4 C3 1.278 . S
C5 O6 1.245 . S
C5 O17 1.232 . S
O6 C5 1.245 . S
O7 Co1 2.058 . S
O7 C33 1.269 . S
O8 Co0 2.074 1_455 S
O8 C33 1.257 . S
H9 C34 0.930 . S
H10 C40 0.965 . S
O11 Co0 2.093 . S
O11 C3 1.224 . S
H12 C44 0.929 . S
H13 C46 0.930 . S
H14 C47 0.930 . S
H15 C45 0.929 . S
H16 C48 0.928 . S
O17 Co1 2.057 . S
O17 C5 1.232 . S
H18 C37 0.929 . S
H19 C38 0.929 . S
H20 C50 0.931 . S
H21 C42 0.929 . S
H22 C51 0.930 . S
H23 C43 0.931 . S
O24 Co0 2.097 . S
O24 C52 1.214 . S
H25 C53 0.929 . S
H26 C54 0.929 . S
H27 C55 0.930 . S
H28 C56 0.929 . S
H29 C58 0.930 . S
H30 C35 0.930 . S
H31 C39 0.930 . S
O32 Co1 2.037 1_655 S
O32 C52 1.234 . S
C33 O7 1.269 . S
C33 O8 1.257 . S
C34 H9 0.930 . S
C34 C37 1.388 . S
C34 C39 1.418 . S
C35 H30 0.930 . S
C35 C38 1.404 . S
C35 C39 1.353 . S
N36 Co1 2.145 . S
N36 C37 1.397 . S
N36 C38 1.334 . S
C37 H18 0.929 . S
C37 C34 1.388 . S
C37 N36 1.397 . S
C38 H19 0.929 . S
C38 C35 1.404 . S
C38 N36 1.334 . S
C39 H31 0.930 . S
C39 C34 1.418 . S
C39 C35 1.353 . S
C40 H10 0.965 . S
C40 N41 1.312 1_655 S
C40 C42 1.432 1_655 S
N41 Co0 2.151 1_455 S
N41 C40 1.312 1_455 S
N41 C45 1.418 . S
C42 H21 0.929 . S
C42 C40 1.432 1_455 S
C42 C43 1.332 . S
C43 H23 0.931 . S
C43 C42 1.332 . S
C43 C44 1.267 . S
C44 H12 0.929 . S
C44 C43 1.267 . S
C44 C45 1.251 . S
C45 H15 0.929 . S
C45 N41 1.418 . S
C45 C44 1.251 . S
C46 H13 0.930 . S
C46 C48 1.406 . S
C46 C51 1.261 . S
C47 H14 0.930 . S
C47 N49 1.325 . S
C47 C50 1.357 . S
C48 H16 0.928 . S
C48 C46 1.406 . S
C48 N49 1.261 . S
N49 Co0 2.214 . S
N49 C47 1.325 . S
N49 C48 1.261 . S
C50 H20 0.931 . S
C50 C47 1.357 . S
C50 C51 1.312 . S
C51 H22 0.930 . S
C51 C46 1.261 . S
C51 C50 1.312 . S
C52 O24 1.214 . S
C52 O32 1.234 . S
C53 H25 0.929 . S
C53 C56 1.391 . S
C53 C58 1.391 . S
C54 H26 0.929 . S
C54 C55 1.390 . S
C54 N57 1.391 . S
C55 H27 0.930 . S
C55 C54 1.390 . S
C55 C56 1.392 . S
C56 H28 0.929 . S
C56 C53 1.391 . S
C56 C55 1.392 . S
N57 Co1 2.257 1_655 S
N57 C54 1.391 . S
N57 C58 1.388 . S
C58 H29 0.930 . S
C58 C53 1.391 . S
C58 N57 1.388 . S
Co59 O61 2.143 1_455 S
Co59 O67 2.074 . S
Co59 O70 2.093 1_455 S
Co59 O83 2.097 . S
Co59 N100 2.151 1_455 S
Co59 N108 2.214 . S
Co60 O61 2.160 1_455 S
Co60 O66 2.058 . S
Co60 O76 2.057 1_455 S
Co60 O91 2.037 . S
Co60 N95 2.145 . S
Co60 N116 2.257 1_455 S
O61 Co59 2.143 1_655 S
O61 Co60 2.160 1_655 S
C62 O63 1.278 . S
C62 O70 1.224 . S
O63 C62 1.278 . S
C64 O65 1.245 . S
C64 O76 1.232 . S
O65 C64 1.245 . S
O66 Co60 2.058 . S
O66 C92 1.269 . S
O67 Co59 2.074 . S
O67 C92 1.257 . S
H68 C93 0.930 . S
H69 C99 0.930 . S
O70 Co59 2.093 1_655 S
O70 C62 1.224 . S
H71 C103 0.929 . S
H72 C105 0.930 . S
H73 C106 0.930 . S
H74 C104 0.929 . S
H75 C107 0.923 . S
O76 Co60 2.057 1_655 S
O76 C64 1.232 . S
H77 C96 0.929 . S
H78 C97 0.929 . S
H79 C109 0.931 . S
H80 C101 0.929 . S
H81 C110 0.930 . S
H82 C102 0.931 . S
O83 Co59 2.097 . S
O83 C111 1.214 . S
H84 C112 0.929 . S
H85 C113 0.977 . S
H86 C114 0.930 . S
H87 C115 0.929 . S
H88 C117 0.930 . S
H89 C94 0.930 . S
H90 C98 0.930 . S
O91 Co60 2.037 . S
O91 C111 1.234 . S
C92 O66 1.269 . S
C92 O67 1.257 . S
C93 H68 0.930 . S
C93 C96 1.388 . S
C93 C98 1.418 . S
C94 H89 0.930 . S
C94 C97 1.404 . S
C94 C98 1.353 . S
N95 Co60 2.145 . S
N95 C96 1.397 . S
N95 C97 1.334 . S
C96 H77 0.929 . S
C96 C93 1.388 . S
C96 N95 1.397 . S
C97 H78 0.929 . S
C97 C94 1.404 . S
C97 N95 1.334 . S
C98 H90 0.930 . S
C98 C93 1.418 . S
C98 C94 1.353 . S
C99 H69 0.930 . S
C99 N100 1.330 . S
C99 C101 1.446 . S
N100 Co59 2.151 1_655 S
N100 C99 1.330 . S
N100 C104 1.418 1_655 S
C101 H80 0.929 . S
C101 C99 1.446 . S
C101 C102 1.332 . S
C102 H82 0.931 . S
C102 C101 1.332 . S
C102 C103 1.267 1_655 S
C103 H71 0.929 . S
C103 C102 1.267 1_455 S
C103 C104 1.251 . S
C104 H74 0.929 . S
C104 N100 1.418 1_455 S
C104 C103 1.251 . S
C105 H72 0.930 . S
C105 C107 1.406 . S
C105 C110 1.261 . S
C106 H73 0.930 . S
C106 N108 1.325 . S
C106 C109 1.357 . S
C107 H75 0.923 . S
C107 C105 1.406 . S
C107 N108 1.261 . S
N108 Co59 2.214 . S
N108 C106 1.325 . S
N108 C107 1.261 . S
C109 H79 0.931 . S
C109 C106 1.357 . S
C109 C110 1.312 . S
C110 H81 0.930 . S
C110 C105 1.261 . S
C110 C109 1.312 . S
C111 O83 1.214 . S
C111 O91 1.234 . S
C112 H84 0.929 . S
C112 C115 1.391 . S
C112 C117 1.391 . S
C113 H85 0.977 . S
C113 C114 1.356 1_455 S
C113 N116 1.379 1_455 S
C114 H86 0.930 . S
C114 C113 1.356 1_655 S
C114 C115 1.392 . S
C115 H87 0.929 . S
C115 C112 1.391 . S
C115 C114 1.392 . S
N116 Co60 2.257 1_655 S
N116 C113 1.379 1_655 S
N116 C117 1.388 . S
C117 H88 0.930 . S
C117 C112 1.391 . S
C117 N116 1.388 . S
Co118 O120 2.143 . S
Co118 O126 2.074 . S
Co118 O129 2.093 . S
Co118 O142 2.097 . S
Co118 N159 2.151 . S
Co118 N167 2.214 . S
Co119 O120 2.160 . S
Co119 O125 2.058 . S
Co119 O135 2.057 . S
Co119 O150 2.037 . S
Co119 N154 2.145 . S
Co119 N175 2.257 . S
O120 Co118 2.143 . S
O120 Co119 2.160 . S
C121 O122 1.278 . S
C121 O129 1.224 . S
O122 C121 1.278 . S
C123 O124 1.245 . S
C123 O135 1.232 . S
O124 C123 1.245 . S
O125 Co119 2.058 . S
O125 C151 1.269 . S
O126 Co118 2.074 . S
O126 C151 1.257 . S
H127 C152 0.930 . S
H128 C158 0.930 . S
O129 Co118 2.093 . S
O129 C121 1.224 . S
H130 C162 0.929 . S
H131 C164 0.930 . S
H132 C165 0.930 . S
H133 C163 0.929 . S
H134 C166 0.928 . S
O135 Co119 2.057 . S
O135 C123 1.232 . S
H136 C155 0.929 . S
H137 C156 0.929 . S
H138 C168 0.931 . S
H139 C160 0.929 . S
H140 C169 0.930 . S
H141 C161 0.931 . S
O142 Co118 2.097 . S
O142 C170 1.214 . S
H143 C171 0.929 . S
H144 C172 0.929 . S
H145 C173 0.930 . S
H146 C174 0.929 . S
H147 C176 0.930 . S
H148 C153 0.930 . S
H149 C157 0.930 . S
O150 Co119 2.037 . S
O150 C170 1.234 . S
C151 O125 1.269 . S
C151 O126 1.257 . S
C152 H127 0.930 . S
C152 C155 1.388 . S
C152 C157 1.418 . S
C153 H148 0.930 . S
C153 C156 1.404 . S
C153 C157 1.353 . S
N154 Co119 2.145 . S
N154 C155 1.397 . S
N154 C156 1.334 . S
C155 H136 0.929 . S
C155 C152 1.388 . S
C155 N154 1.397 . S
C156 H137 0.929 . S
C156 C153 1.404 . S
C156 N154 1.334 . S
C157 H149 0.930 . S
C157 C152 1.418 . S
C157 C153 1.353 . S
C158 H128 0.930 . S
C158 N159 1.330 . S
C158 C160 1.446 . S
N159 Co118 2.151 . S
N159 C158 1.330 . S
N159 C163 1.418 . S
C160 H139 0.929 . S
C160 C158 1.446 . S
C160 C161 1.332 . S
C161 H141 0.931 . S
C161 C160 1.332 . S
C161 C162 1.267 . S
C162 H130 0.929 . S
C162 C161 1.267 . S
C162 C163 1.251 . S
C163 H133 0.929 . S
C163 N159 1.418 . S
C163 C162 1.251 . S
C164 H131 0.930 . S
C164 C166 1.406 . S
C164 C169 1.261 . S
C165 H132 0.930 . S
C165 N167 1.325 . S
C165 C168 1.357 . S
C166 H134 0.928 . S
C166 C164 1.406 . S
C166 N167 1.261 . S
N167 Co118 2.214 . S
N167 C165 1.325 . S
N167 C166 1.261 . S
C168 H138 0.931 . S
C168 C165 1.357 . S
C168 C169 1.312 . S
C169 H140 0.930 . S
C169 C164 1.261 . S
C169 C168 1.312 . S
C170 O142 1.214 . S
C170 O150 1.234 . S
C171 H143 0.929 . S
C171 C174 1.391 . S
C171 C176 1.391 . S
C172 H144 0.929 . S
C172 C173 1.390 . S
C172 N175 1.391 . S
C173 H145 0.930 . S
C173 C172 1.390 . S
C173 C174 1.392 . S
C174 H146 0.929 . S
C174 C171 1.391 . S
C174 C173 1.392 . S
N175 Co119 2.257 . S
N175 C172 1.391 . S
N175 C176 1.388 . S
C176 H147 0.930 . S
C176 C171 1.391 . S
C176 N175 1.388 . S
Co177 O179 2.143 . S
Co177 O185 2.074 . S
Co177 O188 2.093 . S
Co177 O201 2.097 . S
Co177 N218 2.151 . S
Co177 N226 2.214 . S
Co178 O179 2.160 . S
Co178 O184 2.058 . S
Co178 O194 2.057 . S
Co178 O209 2.037 . S
Co178 N213 2.145 . S
Co178 N234 2.257 . S
O179 Co177 2.143 . S
O179 Co178 2.160 . S
C180 O181 1.278 . S
C180 O188 1.224 . S
O181 C180 1.278 . S
C182 O183 1.245 . S
C182 O194 1.232 . S
O183 C182 1.245 . S
O184 Co178 2.058 . S
O184 C210 1.269 . S
O185 Co177 2.074 . S
O185 C210 1.257 . S
H186 C211 0.930 . S
H187 C217 0.930 . S
O188 Co177 2.093 . S
O188 C180 1.224 . S
H189 C221 0.929 . S
H190 C223 0.930 . S
H191 C224 0.930 . S
H192 C222 0.929 . S
H193 C225 0.928 . S
O194 Co178 2.057 . S
O194 C182 1.232 . S
H195 C214 0.929 . S
H196 C215 0.929 . S
H197 C227 0.931 . S
H198 C219 0.929 . S
H199 C228 0.930 . S
H200 C220 0.931 . S
O201 Co177 2.097 . S
O201 C229 1.214 . S
H202 C230 0.929 . S
H203 C231 0.929 . S
H204 C232 0.930 . S
H205 C233 0.929 . S
H206 C235 0.930 . S
H207 C212 0.930 . S
H208 C216 0.930 . S
O209 Co178 2.037 . S
O209 C229 1.234 . S
C210 O184 1.269 . S
C210 O185 1.257 . S
C211 H186 0.930 . S
C211 C214 1.388 . S
C211 C216 1.418 . S
C212 H207 0.930 . S
C212 C215 1.404 . S
C212 C216 1.353 . S
N213 Co178 2.145 . S
N213 C214 1.397 . S
N213 C215 1.334 . S
C214 H195 0.929 . S
C214 C211 1.388 . S
C214 N213 1.397 . S
C215 H196 0.929 . S
C215 C212 1.404 . S
C215 N213 1.334 . S
C216 H208 0.930 . S
C216 C211 1.418 . S
C216 C212 1.353 . S
C217 H187 0.930 . S
C217 N218 1.330 . S
C217 C219 1.446 . S
N218 Co177 2.151 . S
N218 C217 1.330 . S
N218 C222 1.418 . S
C219 H198 0.929 . S
C219 C217 1.446 . S
C219 C220 1.332 . S
C220 H200 0.931 . S
C220 C219 1.332 . S
C220 C221 1.267 . S
C221 H189 0.929 . S
C221 C220 1.267 . S
C221 C222 1.251 . S
C222 H192 0.929 . S
C222 N218 1.418 . S
C222 C221 1.251 . S
C223 H190 0.930 . S
C223 C225 1.406 . S
C223 C228 1.261 . S
C224 H191 0.930 . S
C224 N226 1.325 . S
C224 C227 1.357 . S
C225 H193 0.928 . S
C225 C223 1.406 . S
C225 N226 1.261 . S
N226 Co177 2.214 . S
N226 C224 1.325 . S
N226 C225 1.261 . S
C227 H197 0.931 . S
C227 C224 1.357 . S
C227 C228 1.312 . S
C228 H199 0.930 . S
C228 C223 1.261 . S
C228 C227 1.312 . S
C229 O201 1.214 . S
C229 O209 1.234 . S
C230 H202 0.929 . S
C230 C233 1.391 . S
C230 C235 1.391 . S
C231 H203 0.929 . S
C231 C232 1.390 . S
C231 N234 1.391 . S
C232 H204 0.930 . S
C232 C231 1.390 . S
C232 C233 1.392 . S
C233 H205 0.929 . S
C233 C230 1.391 . S
C233 C232 1.392 . S
N234 Co178 2.257 . S
N234 C231 1.391 . S
N234 C235 1.388 . S
C235 H206 0.930 . S
C235 C230 1.391 . S
C235 N234 1.388 . S
Co236 O238 2.143 . S
Co236 O244 2.074 1_455 S
Co236 O247 2.093 . S
Co236 O260 2.097 . S
Co236 N277 2.151 . S
Co236 N285 2.214 . S
Co237 O238 2.160 1_655 S
Co237 O243 2.058 . S
Co237 O253 2.057 . S
Co237 O268 2.037 1_655 S
Co237 N272 2.145 . S
Co237 N293 2.257 1_655 S
O238 Co236 2.143 . S
O238 Co237 2.160 1_455 S
C239 O240 1.278 . S
C239 O247 1.224 . S
O240 C239 1.278 . S
C241 O242 1.245 . S
C241 O253 1.232 . S
O242 C241 1.245 . S
O243 Co237 2.058 . S
O243 C269 1.269 . S
O244 Co236 2.074 1_655 S
O244 C269 1.257 . S
H245 C270 0.930 . S
H246 C276 0.930 . S
O247 Co236 2.093 . S
O247 C239 1.224 . S
H248 C280 0.929 . S
H249 C282 0.930 . S
H250 C283 0.930 . S
H251 C281 0.929 . S
H252 C284 0.928 . S
O253 Co237 2.057 . S
O253 C241 1.232 . S
H254 C273 0.929 . S
H255 C274 0.929 . S
H256 C286 0.931 . S
H257 C278 0.929 . S
H258 C287 0.930 . S
H259 C279 0.931 . S
O260 Co236 2.097 . S
O260 C288 1.214 . S
H261 C289 0.929 . S
H262 C290 0.929 . S
H263 C291 0.930 . S
H264 C292 0.929 . S
H265 C294 0.930 . S
H266 C271 0.930 . S
H267 C275 0.930 . S
O268 Co237 2.037 1_455 S
O268 C288 1.234 . S
C269 O243 1.269 . S
C269 O244 1.257 . S
C270 H245 0.930 . S
C270 C273 1.388 . S
C270 C275 1.418 . S
C271 H266 0.930 . S
C271 C274 1.404 . S
C271 C275 1.353 . S
N272 Co237 2.145 . S
N272 C273 1.397 . S
N272 C274 1.334 . S
C273 H254 0.929 . S
C273 C270 1.388 . S
C273 N272 1.397 . S
C274 H255 0.929 . S
C274 C271 1.404 . S
C274 N272 1.334 . S
C275 H267 0.930 . S
C275 C270 1.418 . S
C275 C271 1.353 . S
C276 H246 0.930 . S
C276 N277 1.330 . S
C276 C278 1.446 . S
N277 Co236 2.151 . S
N277 C276 1.330 . S
N277 C281 1.418 1_455 S
C278 H257 0.929 . S
C278 C276 1.446 . S
C278 C279 1.332 1_455 S
C279 H259 0.931 . S
C279 C278 1.332 1_655 S
C279 C280 1.267 . S
C280 H248 0.929 . S
C280 C279 1.267 . S
C280 C281 1.251 . S
C281 H251 0.929 . S
C281 N277 1.418 1_655 S
C281 C280 1.251 . S
C282 H249 0.930 . S
C282 C284 1.406 . S
C282 C287 1.261 . S
C283 H250 0.930 . S
C283 N285 1.325 . S
C283 C286 1.357 . S
C284 H252 0.928 . S
C284 C282 1.406 . S
C284 N285 1.261 . S
N285 Co236 2.214 . S
N285 C283 1.325 . S
N285 C284 1.261 . S
C286 H256 0.931 . S
C286 C283 1.357 . S
C286 C287 1.312 . S
C287 H258 0.930 . S
C287 C282 1.261 . S
C287 C286 1.312 . S
C288 O260 1.214 . S
C288 O268 1.234 . S
C289 H261 0.929 . S
C289 C292 1.391 . S
C289 C294 1.391 . S
C290 H262 0.929 . S
C290 C291 1.390 . S
C290 N293 1.391 . S
C291 H263 0.930 . S
C291 C290 1.390 . S
C291 C292 1.392 . S
C292 H264 0.929 . S
C292 C289 1.391 . S
C292 C291 1.392 . S
N293 Co237 2.257 1_455 S
N293 C290 1.391 . S
N293 C294 1.388 . S
C294 H265 0.930 . S
C294 C289 1.391 . S
C294 N293 1.388 . S
Co295 O297 2.143 . S
Co295 O303 2.074 . S
Co295 O306 2.093 . S
Co295 O319 2.097 . S
Co295 N336 2.151 . S
Co295 N344 2.214 . S
Co296 O297 2.160 . S
Co296 O302 2.058 . S
Co296 O312 2.057 . S
Co296 O327 2.037 . S
Co296 N331 2.145 . S
Co296 N352 2.257 . S
O297 Co295 2.143 . S
O297 Co296 2.160 . S
C298 O299 1.278 . S
C298 O306 1.224 . S
O299 C298 1.278 . S
C300 O301 1.245 . S
C300 O312 1.232 . S
O301 C300 1.245 . S
O302 Co296 2.058 . S
O302 C328 1.269 . S
O303 Co295 2.074 . S
O303 C328 1.257 . S
H304 C329 0.930 . S
H305 C335 0.930 . S
O306 Co295 2.093 . S
O306 C298 1.224 . S
H307 C339 0.929 . S
H308 C341 0.930 . S
H309 C342 0.930 . S
H310 C340 0.929 . S
H311 C343 0.928 . S
O312 Co296 2.057 . S
O312 C300 1.232 . S
H313 C332 0.929 . S
H314 C333 0.929 . S
H315 C345 0.931 . S
H316 C337 0.929 . S
H317 C346 0.930 . S
H318 C338 0.931 . S
O319 Co295 2.097 . S
O319 C347 1.214 . S
H320 C348 0.929 . S
H321 C349 0.929 . S
H322 C350 0.930 . S
H323 C351 0.929 . S
H324 C353 0.930 . S
H325 C330 0.930 . S
H326 C334 0.930 . S
O327 Co296 2.037 . S
O327 C347 1.234 . S
C328 O302 1.269 . S
C328 O303 1.257 . S
C329 H304 0.930 . S
C329 C332 1.388 . S
C329 C334 1.418 . S
C330 H325 0.930 . S
C330 C333 1.404 . S
C330 C334 1.353 . S
N331 Co296 2.145 . S
N331 C332 1.397 . S
N331 C333 1.334 . S
C332 H313 0.929 . S
C332 C329 1.388 . S
C332 N331 1.397 . S
C333 H314 0.929 . S
C333 C330 1.404 . S
C333 N331 1.334 . S
C334 H326 0.930 . S
C334 C329 1.418 . S
C334 C330 1.353 . S
C335 H305 0.930 . S
C335 N336 1.330 . S
C335 C337 1.446 . S
N336 Co295 2.151 . S
N336 C335 1.330 . S
N336 C340 1.418 . S
C337 H316 0.929 . S
C337 C335 1.446 . S
C337 C338 1.332 . S
C338 H318 0.931 . S
C338 C337 1.332 . S
C338 C339 1.267 . S
C339 H307 0.929 . S
C339 C338 1.267 . S
C339 C340 1.251 . S
C340 H310 0.929 . S
C340 N336 1.418 . S
C340 C339 1.251 . S
C341 H308 0.930 . S
C341 C343 1.406 . S
C341 C346 1.261 . S
C342 H309 0.930 . S
C342 N344 1.325 . S
C342 C345 1.357 . S
C343 H311 0.928 . S
C343 C341 1.406 . S
C343 N344 1.261 . S
N344 Co295 2.214 . S
N344 C342 1.325 . S
N344 C343 1.261 . S
C345 H315 0.931 . S
C345 C342 1.357 . S
C345 C346 1.312 . S
C346 H317 0.930 . S
C346 C341 1.261 . S
C346 C345 1.312 . S
C347 O319 1.214 . S
C347 O327 1.234 . S
C348 H320 0.929 . S
C348 C351 1.391 . S
C348 C353 1.391 . S
C349 H321 0.929 . S
C349 C350 1.390 . S
C349 N352 1.391 . S
C350 H322 0.930 . S
C350 C349 1.390 . S
C350 C351 1.392 . S
C351 H323 0.929 . S
C351 C348 1.391 . S
C351 C350 1.392 . S
N352 Co296 2.257 . S
N352 C349 1.391 . S
N352 C353 1.388 . S
C353 H324 0.930 . S
C353 C348 1.391 . S
C353 N352 1.388 . S
Co354 O356 2.143 . S
Co354 O362 2.074 . S
Co354 O365 2.093 . S
Co354 O378 2.097 . S
Co354 N395 2.151 . S
Co354 N403 2.214 . S
Co355 O356 2.160 . S
Co355 O361 2.058 . S
Co355 O371 2.057 . S
Co355 O386 2.037 . S
Co355 N390 2.145 . S
Co355 N411 2.257 . S
O356 Co354 2.143 . S
O356 Co355 2.160 . S
C357 O358 1.278 . S
C357 O365 1.224 . S
O358 C357 1.278 . S
C359 O360 1.245 . S
C359 O371 1.232 . S
O360 C359 1.245 . S
O361 Co355 2.058 . S
O361 C387 1.269 . S
O362 Co354 2.074 . S
O362 C387 1.257 . S
H363 C388 0.930 . S
H364 C394 0.930 . S
O365 Co354 2.093 . S
O365 C357 1.224 . S
H366 C398 0.929 . S
H367 C400 0.930 . S
H368 C401 0.930 . S
H369 C399 0.929 . S
H370 C402 0.928 . S
O371 Co355 2.057 . S
O371 C359 1.232 . S
H372 C391 0.929 . S
H373 C392 0.929 . S
H374 C404 0.931 . S
H375 C396 0.929 . S
H376 C405 0.930 . S
H377 C397 0.931 . S
O378 Co354 2.097 . S
O378 C406 1.214 . S
H379 C407 0.929 . S
H380 C408 0.929 . S
H381 C409 0.930 . S
H382 C410 0.929 . S
H383 C412 0.930 . S
H384 C389 0.930 . S
H385 C393 0.930 . S
O386 Co355 2.037 . S
O386 C406 1.234 . S
C387 O361 1.269 . S
C387 O362 1.257 . S
C388 H363 0.930 . S
C388 C391 1.388 . S
C388 C393 1.418 . S
C389 H384 0.930 . S
C389 C392 1.404 . S
C389 C393 1.353 . S
N390 Co355 2.145 . S
N390 C391 1.397 . S
N390 C392 1.334 . S
C391 H372 0.929 . S
C391 C388 1.388 . S
C391 N390 1.397 . S
C392 H373 0.929 . S
C392 C389 1.404 . S
C392 N390 1.334 . S
C393 H385 0.930 . S
C393 C388 1.418 . S
C393 C389 1.353 . S
C394 H364 0.930 . S
C394 N395 1.330 . S
C394 C396 1.446 . S
N395 Co354 2.151 . S
N395 C394 1.330 . S
N395 C399 1.418 . S
C396 H375 0.929 . S
C396 C394 1.446 . S
C396 C397 1.332 . S
C397 H377 0.931 . S
C397 C396 1.332 . S
C397 C398 1.267 . S
C398 H366 0.929 . S
C398 C397 1.267 . S
C398 C399 1.251 . S
C399 H369 0.929 . S
C399 N395 1.418 . S
C399 C398 1.251 . S
C400 H367 0.930 . S
C400 C402 1.406 . S
C400 C405 1.261 . S
C401 H368 0.930 . S
C401 N403 1.325 . S
C401 C404 1.357 . S
C402 H370 0.928 . S
C402 C400 1.406 . S
C402 N403 1.261 . S
N403 Co354 2.214 . S
N403 C401 1.325 . S
N403 C402 1.261 . S
C404 H374 0.931 . S
C404 C401 1.357 . S
C404 C405 1.312 . S
C405 H376 0.930 . S
C405 C400 1.261 . S
C405 C404 1.312 . S
C406 O378 1.214 . S
C406 O386 1.234 . S
C407 H379 0.929 . S
C407 C410 1.391 . S
C407 C412 1.391 . S
C408 H380 0.929 . S
C408 C409 1.390 . S
C408 N411 1.391 . S
C409 H381 0.930 . S
C409 C408 1.390 . S
C409 C410 1.392 . S
C410 H382 0.929 . S
C410 C407 1.391 . S
C410 C409 1.392 . S
N411 Co355 2.257 . S
N411 C408 1.391 . S
N411 C412 1.388 . S
C412 H383 0.930 . S
C412 C407 1.391 . S
C412 N411 1.388 . S
Co413 O415 2.143 1_455 S
Co413 O421 2.074 . S
Co413 O424 2.093 1_455 S
Co413 O437 2.097 . S
Co413 N454 2.159 . S
Co413 N462 2.214 . S
Co414 O415 2.160 1_455 S
Co414 O420 2.058 . S
Co414 O430 2.057 1_455 S
Co414 O445 2.037 . S
Co414 N449 2.145 . S
Co414 N470 2.257 1_455 S
O415 Co413 2.143 1_655 S
O415 Co414 2.160 1_655 S
C416 O417 1.278 . S
C416 O424 1.224 . S
O417 C416 1.278 . S
C418 O419 1.245 . S
C418 O430 1.232 . S
O419 C418 1.245 . S
O420 Co414 2.058 . S
O420 C446 1.269 . S
O421 Co413 2.074 . S
O421 C446 1.257 . S
H422 C447 0.930 . S
H423 C453 0.930 . S
O424 Co413 2.093 1_655 S
O424 C416 1.224 . S
H425 C457 0.929 . S
H426 C459 0.930 . S
H427 C460 0.930 . S
H428 C458 0.929 . S
H429 C461 0.928 . S
O430 Co414 2.057 1_655 S
O430 C418 1.232 . S
H431 C450 0.929 . S
H432 C451 0.929 . S
H433 C463 0.931 . S
H434 C455 0.929 . S
H435 C464 0.930 . S
H436 C456 0.931 . S
O437 Co413 2.097 . S
O437 C465 1.214 . S
H438 C466 0.929 . S
H439 C467 0.929 1_455 S
H440 C468 0.930 . S
H441 C469 0.929 . S
H442 C471 0.930 . S
H443 C448 0.930 . S
H444 C452 0.930 . S
O445 Co414 2.037 . S
O445 C465 1.234 . S
C446 O420 1.269 . S
C446 O421 1.257 . S
C447 H422 0.930 . S
C447 C450 1.388 . S
C447 C452 1.418 . S
C448 H443 0.930 . S
C448 C451 1.404 . S
C448 C452 1.353 . S
N449 Co414 2.145 . S
N449 C450 1.397 . S
N449 C451 1.334 . S
C450 H431 0.929 . S
C450 C447 1.388 . S
C450 N449 1.397 . S
C451 H432 0.929 . S
C451 C448 1.404 . S
C451 N449 1.334 . S
C452 H444 0.930 . S
C452 C447 1.418 . S
C452 C448 1.353 . S
C453 H423 0.930 . S
C453 N454 1.303 1_655 S
C453 C455 1.446 . S
N454 Co413 2.159 . S
N454 C453 1.303 1_455 S
N454 C458 1.435 . S
C455 H434 0.929 . S
C455 C453 1.446 . S
C455 C456 1.332 . S
C456 H436 0.931 . S
C456 C455 1.332 . S
C456 C457 1.267 1_655 S
C457 H425 0.929 . S
C457 C456 1.267 1_455 S
C457 C458 1.251 . S
C458 H428 0.929 . S
C458 N454 1.435 . S
C458 C457 1.251 . S
C459 H426 0.930 . S
C459 C461 1.406 . S
C459 C464 1.261 . S
C460 H427 0.930 . S
C460 N462 1.325 . S
C460 C463 1.357 . S
C461 H429 0.928 . S
C461 C459 1.406 . S
C461 N462 1.261 . S
N462 Co413 2.214 . S
N462 C460 1.325 . S
N462 C461 1.261 . S
C463 H433 0.931 . S
C463 C460 1.357 . S
C463 C464 1.312 . S
C464 H435 0.930 . S
C464 C459 1.261 . S
C464 C463 1.312 . S
C465 O437 1.214 . S
C465 O445 1.234 . S
C466 H438 0.929 . S
C466 C469 1.391 . S
C466 C471 1.391 . S
C467 H439 0.929 1_655 S
C467 C468 1.390 . S
C467 N470 1.391 . S
C468 H440 0.930 . S
C468 C467 1.390 . S
C468 C469 1.392 . S
C469 H441 0.929 . S
C469 C466 1.391 . S
C469 C468 1.392 . S
N470 Co414 2.257 1_655 S
N470 C467 1.391 . S
N470 C471 1.388 . S
C471 H442 0.930 . S
C471 C466 1.391 . S
C471 N470 1.388 . S
Co472 O474 2.143 1_545 S
Co472 O480 2.092 . S
Co472 O483 2.093 . S
Co472 O496 2.097 . S
Co472 N513 2.151 1_545 S
Co472 N521 2.214 . S
Co473 O474 2.160 . S
Co473 O479 2.058 . S
Co473 O489 2.057 . S
Co473 O504 2.037 1_565 S
Co473 N508 2.145 . S
Co473 N529 2.257 1_565 S
O474 Co472 2.143 1_565 S
O474 Co473 2.160 . S
C475 O476 1.278 . S
C475 O483 1.224 . S
O476 C475 1.278 . S
C477 O478 1.245 . S
C477 O489 1.232 . S
O478 C477 1.245 . S
O479 Co473 2.058 . S
O479 C505 1.269 . S
O480 Co472 2.092 . S
O480 C505 1.226 1_545 S
H481 C506 0.930 . S
H482 C512 0.930 . S
O483 Co472 2.093 . S
O483 C475 1.224 . S
H484 C516 0.929 . S
H485 C518 0.930 . S
H486 C519 0.930 . S
H487 C517 0.929 . S
H488 C520 0.928 . S
O489 Co473 2.057 . S
O489 C477 1.232 . S
H490 C509 0.929 1_545 S
H491 C510 0.929 . S
H492 C522 0.931 . S
H493 C514 0.929 . S
H494 C523 0.930 . S
H495 C515 0.931 . S
O496 Co472 2.097 . S
O496 C524 1.214 . S
H497 C525 0.929 . S
H498 C526 0.929 . S
H499 C527 0.930 . S
H500 C528 0.929 . S
H501 C530 0.930 1_565 S
H502 C507 0.930 . S
H503 C511 0.930 . S
O504 Co473 2.037 1_545 S
O504 C524 1.234 . S
C505 O479 1.269 . S
C505 O480 1.226 1_565 S
C506 H481 0.930 . S
C506 C509 1.388 . S
C506 C511 1.418 . S
C507 H502 0.930 . S
C507 C510 1.404 . S
C507 C511 1.353 . S
N508 Co473 2.145 . S
N508 C509 1.397 . S
N508 C510 1.334 . S
C509 H490 0.929 1_565 S
C509 C506 1.388 . S
C509 N508 1.397 . S
C510 H491 0.929 . S
C510 C507 1.404 . S
C510 N508 1.334 . S
C511 H503 0.930 . S
C511 C506 1.418 . S
C511 C507 1.353 . S
C512 H482 0.930 . S
C512 N513 1.330 . S
C512 C514 1.446 . S
N513 Co472 2.151 1_565 S
N513 C512 1.330 . S
N513 C517 1.418 . S
C514 H493 0.929 . S
C514 C512 1.446 . S
C514 C515 1.332 . S
C515 H495 0.931 . S
C515 C514 1.332 . S
C515 C516 1.267 . S
C516 H484 0.929 . S
C516 C515 1.267 . S
C516 C517 1.251 . S
C517 H487 0.929 . S
C517 N513 1.418 . S
C517 C516 1.251 . S
C518 H485 0.930 . S
C518 C520 1.406 . S
C518 C523 1.261 . S
C519 H486 0.930 . S
C519 N521 1.325 . S
C519 C522 1.357 . S
C520 H488 0.928 . S
C520 C518 1.406 . S
C520 N521 1.261 . S
N521 Co472 2.214 . S
N521 C519 1.325 . S
N521 C520 1.261 . S
C522 H492 0.931 . S
C522 C519 1.357 . S
C522 C523 1.312 . S
C523 H494 0.930 . S
C523 C518 1.261 . S
C523 C522 1.312 . S
C524 O496 1.214 . S
C524 O504 1.234 . S
C525 H497 0.929 . S
C525 C528 1.391 . S
C525 C530 1.391 . S
C526 H498 0.929 . S
C526 C527 1.390 . S
C526 N529 1.391 . S
C527 H499 0.930 . S
C527 C526 1.390 . S
C527 C528 1.392 . S
C528 H500 0.929 . S
C528 C525 1.391 . S
C528 C527 1.392 . S
N529 Co473 2.257 1_545 S
N529 C526 1.391 . S
N529 C530 1.388 . S
C530 H501 0.930 1_545 S
C530 C525 1.391 . S
C530 N529 1.388 . S
Co531 O533 2.143 . S
Co531 O539 2.074 . S
Co531 O542 2.093 . S
Co531 O555 2.097 . S
Co531 N572 2.151 . S
Co531 N580 2.214 . S
Co532 O533 2.160 . S
Co532 O538 2.058 . S
Co532 O548 2.057 . S
Co532 O563 2.037 . S
Co532 N567 2.145 . S
Co532 N588 2.257 . S
O533 Co531 2.143 . S
O533 Co532 2.160 . S
C534 O535 1.278 . S
C534 O542 1.224 . S
O535 C534 1.278 . S
C536 O537 1.245 . S
C536 O548 1.232 . S
O537 C536 1.245 . S
O538 Co532 2.058 . S
O538 C564 1.269 . S
O539 Co531 2.074 . S
O539 C564 1.257 . S
H540 C565 0.930 . S
H541 C571 0.930 . S
O542 Co531 2.093 . S
O542 C534 1.224 . S
H543 C575 0.929 . S
H544 C577 0.930 . S
H545 C578 0.930 . S
H546 C576 0.929 . S
H547 C579 0.928 . S
O548 Co532 2.057 . S
O548 C536 1.232 . S
H549 C568 0.929 . S
H550 C569 0.929 . S
H551 C581 0.931 . S
H552 C573 0.929 . S
H553 C582 0.930 . S
H554 C574 0.931 . S
O555 Co531 2.097 . S
O555 C583 1.214 . S
H556 C584 0.929 . S
H557 C585 0.929 . S
H558 C586 0.930 . S
H559 C587 0.929 . S
H560 C589 0.930 . S
H561 C566 0.930 . S
H562 C570 0.930 . S
O563 Co532 2.037 . S
O563 C583 1.234 . S
C564 O538 1.269 . S
C564 O539 1.257 . S
C565 H540 0.930 . S
C565 C568 1.388 . S
C565 C570 1.418 . S
C566 H561 0.930 . S
C566 C569 1.404 . S
C566 C570 1.353 . S
N567 Co532 2.145 . S
N567 C568 1.397 . S
N567 C569 1.334 . S
C568 H549 0.929 . S
C568 C565 1.388 . S
C568 N567 1.397 . S
C569 H550 0.929 . S
C569 C566 1.404 . S
C569 N567 1.334 . S
C570 H562 0.930 . S
C570 C565 1.418 . S
C570 C566 1.353 . S
C571 H541 0.930 . S
C571 N572 1.330 . S
C571 C573 1.446 . S
N572 Co531 2.151 . S
N572 C571 1.330 . S
N572 C576 1.418 . S
C573 H552 0.929 . S
C573 C571 1.446 . S
C573 C574 1.332 . S
C574 H554 0.931 . S
C574 C573 1.332 . S
C574 C575 1.267 . S
C575 H543 0.929 . S
C575 C574 1.267 . S
C575 C576 1.251 . S
C576 H546 0.929 . S
C576 N572 1.418 . S
C576 C575 1.251 . S
C577 H544 0.930 . S
C577 C579 1.406 . S
C577 C582 1.261 . S
C578 H545 0.930 . S
C578 N580 1.325 . S
C578 C581 1.357 . S
C579 H547 0.928 . S
C579 C577 1.406 . S
C579 N580 1.261 . S
N580 Co531 2.214 . S
N580 C578 1.325 . S
N580 C579 1.261 . S
C581 H551 0.931 . S
C581 C578 1.357 . S
C581 C582 1.312 . S
C582 H553 0.930 . S
C582 C577 1.261 . S
C582 C581 1.312 . S
C583 O555 1.214 . S
C583 O563 1.234 . S
C584 H556 0.929 . S
C584 C587 1.391 . S
C584 C589 1.391 . S
C585 H557 0.929 . S
C585 C586 1.390 . S
C585 N588 1.391 . S
C586 H558 0.930 . S
C586 C585 1.390 . S
C586 C587 1.392 . S
C587 H559 0.929 . S
C587 C584 1.391 . S
C587 C586 1.392 . S
N588 Co532 2.257 . S
N588 C585 1.391 . S
N588 C589 1.388 . S
C589 H560 0.930 . S
C589 C584 1.391 . S
C589 N588 1.388 . S
Co590 O592 2.143 1_565 S
Co590 O598 2.074 1_565 S
Co590 O601 2.093 . S
Co590 O614 2.097 . S
Co590 N631 2.151 1_565 S
Co590 N639 2.214 . S
Co591 O592 2.160 . S
Co591 O597 2.058 . S
Co591 O607 2.057 . S
Co591 O622 2.037 1_545 S
Co591 N626 2.145 . S
Co591 N647 2.257 . S
O592 Co590 2.143 1_545 S
O592 Co591 2.160 . S
C593 O594 1.278 . S
C593 O601 1.224 . S
O594 C593 1.278 . S
C595 O596 1.245 . S
C595 O607 1.232 . S
O596 C595 1.245 . S
O597 Co591 2.058 . S
O597 C623 1.269 . S
O598 Co590 2.074 1_545 S
O598 C623 1.257 . S
H599 C624 0.930 . S
H600 C630 0.930 . S
O601 Co590 2.093 . S
O601 C593 1.224 . S
H602 C634 0.929 . S
H603 C636 0.930 . S
H604 C637 0.930 . S
H605 C635 0.929 . S
H606 C638 0.928 . S
O607 Co591 2.057 . S
O607 C595 1.232 . S
H608 C627 0.929 . S
H609 C628 0.929 . S
H610 C640 0.931 . S
H611 C632 0.929 . S
H612 C641 0.930 . S
H613 C633 0.931 . S
O614 Co590 2.097 . S
O614 C642 1.214 . S
H615 C643 0.929 . S
H616 C644 0.929 . S
H617 C645 0.930 . S
H618 C646 0.929 . S
H619 C648 0.930 . S
H620 C625 0.930 . S
H621 C629 0.930 . S
O622 Co591 2.037 1_565 S
O622 C642 1.234 . S
C623 O597 1.269 . S
C623 O598 1.257 . S
C624 H599 0.930 . S
C624 C627 1.388 . S
C624 C629 1.418 . S
C625 H620 0.930 . S
C625 C628 1.404 . S
C625 C629 1.353 . S
N626 Co591 2.145 . S
N626 C627 1.397 . S
N626 C628 1.334 . S
C627 H608 0.929 . S
C627 C624 1.388 . S
C627 N626 1.397 . S
C628 H609 0.929 . S
C628 C625 1.404 . S
C628 N626 1.334 . S
C629 H621 0.930 . S
C629 C624 1.418 . S
C629 C625 1.353 . S
C630 H600 0.930 . S
C630 N631 1.330 . S
C630 C632 1.446 . S
N631 Co590 2.151 1_545 S
N631 C630 1.330 . S
N631 C635 1.418 . S
C632 H611 0.929 . S
C632 C630 1.446 . S
C632 C633 1.332 . S
C633 H613 0.931 . S
C633 C632 1.332 . S
C633 C634 1.267 . S
C634 H602 0.929 . S
C634 C633 1.267 . S
C634 C635 1.251 . S
C635 H605 0.929 . S
C635 N631 1.418 . S
C635 C634 1.251 . S
C636 H603 0.930 . S
C636 C638 1.406 . S
C636 C641 1.261 . S
C637 H604 0.930 . S
C637 N639 1.325 . S
C637 C640 1.357 . S
C638 H606 0.928 . S
C638 C636 1.406 . S
C638 N639 1.261 . S
N639 Co590 2.214 . S
N639 C637 1.325 . S
N639 C638 1.261 . S
C640 H610 0.931 . S
C640 C637 1.357 . S
C640 C641 1.312 . S
C641 H612 0.930 . S
C641 C636 1.261 . S
C641 C640 1.312 . S
C642 O614 1.214 . S
C642 O622 1.234 . S
C643 H615 0.929 . S
C643 C646 1.390 1_545 S
C643 C648 1.392 . S
C644 H616 0.929 . S
C644 C645 1.390 . S
C644 N647 1.391 1_565 S
C645 H617 0.930 . S
C645 C644 1.390 . S
C645 C646 1.392 . S
C646 H618 0.929 . S
C646 C643 1.390 1_565 S
C646 C645 1.392 . S
N647 Co591 2.257 . S
N647 C644 1.391 1_545 S
N647 C648 1.388 . S
C648 H619 0.930 . S
C648 C643 1.392 . S
C648 N647 1.388 . S
Co649 O651 2.143 1_554 S
Co649 O657 2.074 . S
Co649 O660 2.102 . S
Co649 O673 2.097 . S
Co649 N690 2.151 1_554 S
Co649 N698 2.214 . S
Co650 O651 2.160 1_554 S
Co650 O656 2.058 . S
Co650 O666 2.057 1_554 S
Co650 O681 2.037 . S
Co650 N685 2.145 . S
Co650 N706 2.257 1_554 S
O651 Co649 2.143 1_556 S
O651 Co650 2.160 1_556 S
C652 O653 1.278 . S
C652 O660 1.209 1_556 S
O653 C652 1.278 . S
C654 O655 1.245 . S
C654 O666 1.232 . S
O655 C654 1.245 . S
O656 Co650 2.058 . S
O656 C682 1.269 . S
O657 Co649 2.074 . S
O657 C682 1.257 . S
H658 C683 0.930 . S
H659 C689 0.930 . S
O660 Co649 2.102 . S
O660 C652 1.209 1_554 S
H661 C693 0.929 . S
H662 C695 0.930 . S
H663 C696 0.930 . S
H664 C694 0.947 . S
H665 C697 0.928 . S
O666 Co650 2.057 1_556 S
O666 C654 1.232 . S
H667 C686 0.929 . S
H668 C687 0.929 1_556 S
H669 C699 0.931 . S
H670 C691 0.929 . S
H671 C700 0.930 . S
H672 C692 0.931 . S
O673 Co649 2.097 . S
O673 C701 1.214 . S
H674 C702 0.929 . S
H675 C703 0.929 . S
H676 C704 0.930 . S
H677 C705 0.929 . S
H678 C707 0.930 . S
H679 C684 0.930 . S
H680 C688 0.930 . S
O681 Co650 2.037 . S
O681 C701 1.234 . S
C682 O656 1.269 . S
C682 O657 1.257 . S
C683 H658 0.930 . S
C683 C686 1.388 . S
C683 C688 1.418 . S
C684 H679 0.930 . S
C684 C687 1.404 . S
C684 C688 1.353 . S
N685 Co650 2.145 . S
N685 C686 1.397 . S
N685 C687 1.334 . S
C686 H667 0.929 . S
C686 C683 1.388 . S
C686 N685 1.397 . S
C687 H668 0.929 1_554 S
C687 C684 1.404 . S
C687 N685 1.334 . S
C688 H680 0.930 . S
C688 C683 1.418 . S
C688 C684 1.353 . S
C689 H659 0.930 . S
C689 N690 1.330 . S
C689 C691 1.446 . S
N690 Co649 2.151 1_556 S
N690 C689 1.330 . S
N690 C694 1.410 1_556 S
C691 H670 0.929 . S
C691 C689 1.446 . S
C691 C692 1.332 . S
C692 H672 0.931 . S
C692 C691 1.332 . S
C692 C693 1.267 . S
C693 H661 0.929 . S
C693 C692 1.267 . S
C693 C694 1.241 1_556 S
C694 H664 0.947 . S
C694 N690 1.410 1_554 S
C694 C693 1.241 1_554 S
C695 H662 0.930 . S
C695 C697 1.406 . S
C695 C700 1.261 . S
C696 H663 0.930 . S
C696 N698 1.325 . S
C696 C699 1.357 . S
C697 H665 0.928 . S
C697 C695 1.406 . S
C697 N698 1.261 . S
N698 Co649 2.214 . S
N698 C696 1.325 . S
N698 C697 1.261 . S
C699 H669 0.931 . S
C699 C696 1.357 . S
C699 C700 1.312 . S
C700 H671 0.930 . S
C700 C695 1.261 . S
C700 C699 1.312 . S
C701 O673 1.214 . S
C701 O681 1.234 . S
C702 H674 0.929 . S
C702 C705 1.391 . S
C702 C707 1.391 . S
C703 H675 0.929 . S
C703 C704 1.390 . S
C703 N706 1.391 1_554 S
C704 H676 0.930 . S
C704 C703 1.390 . S
C704 C705 1.392 1_554 S
C705 H677 0.929 . S
C705 C702 1.391 . S
C705 C704 1.392 1_556 S
N706 Co650 2.257 1_556 S
N706 C703 1.391 1_556 S
N706 C707 1.388 . S
C707 H678 0.930 . S
C707 C702 1.391 . S
C707 N706 1.388 . S
Co708 O710 2.153 . S
Co708 O716 2.074 1_556 S
Co708 O719 2.093 . S
Co708 O732 2.097 . S
Co708 N749 2.151 1_556 S
Co708 N757 2.214 . S
Co709 O710 2.138 1_554 S
Co709 O715 2.058 . S
Co709 O725 2.057 . S
Co709 O740 2.037 1_554 S
Co709 N744 2.145 . S
Co709 N765 2.257 1_554 S
O710 Co708 2.153 . S
O710 Co709 2.138 1_556 S
C711 O712 1.278 . S
C711 O719 1.224 . S
O712 C711 1.278 . S
C713 O714 1.245 . S
C713 O725 1.232 . S
O714 C713 1.245 . S
O715 Co709 2.058 . S
O715 C741 1.269 . S
O716 Co708 2.074 1_554 S
O716 C741 1.257 . S
H717 C742 0.930 . S
H718 C748 0.960 . S
O719 Co708 2.093 . S
O719 C711 1.224 . S
H720 C752 0.929 . S
H721 C754 0.930 . S
H722 C755 0.930 . S
H723 C753 0.929 . S
H724 C756 0.928 . S
O725 Co709 2.057 . S
O725 C713 1.232 . S
H726 C745 0.929 . S
H727 C746 0.929 . S
H728 C758 0.931 . S
H729 C750 0.929 . S
H730 C759 0.930 . S
H731 C751 0.931 . S
O732 Co708 2.097 . S
O732 C760 1.214 . S
H733 C761 0.929 . S
H734 C762 0.929 . S
H735 C763 0.930 . S
H736 C764 0.929 . S
H737 C766 0.930 . S
H738 C743 0.930 . S
H739 C747 0.930 . S
O740 Co709 2.037 1_556 S
O740 C760 1.234 . S
C741 O715 1.269 . S
C741 O716 1.257 . S
C742 H717 0.930 . S
C742 C745 1.388 . S
C742 C747 1.418 . S
C743 H738 0.930 . S
C743 C746 1.404 . S
C743 C747 1.353 . S
N744 Co709 2.145 . S
N744 C745 1.397 . S
N744 C746 1.334 . S
C745 H726 0.929 . S
C745 C742 1.388 . S
C745 N744 1.397 . S
C746 H727 0.929 . S
C746 C743 1.404 . S
C746 N744 1.334 . S
C747 H739 0.930 . S
C747 C742 1.418 . S
C747 C743 1.353 . S
C748 H718 0.960 . S
C748 N749 1.314 1_556 S
C748 C750 1.434 1_556 S
N749 Co708 2.151 1_554 S
N749 C748 1.314 1_554 S
N749 C753 1.418 . S
C750 H729 0.929 . S
C750 C748 1.434 1_554 S
C750 C751 1.332 . S
C751 H731 0.931 . S
C751 C750 1.332 . S
C751 C752 1.267 . S
C752 H720 0.929 . S
C752 C751 1.267 . S
C752 C753 1.251 . S
C753 H723 0.929 . S
C753 N749 1.418 . S
C753 C752 1.251 . S
C754 H721 0.930 . S
C754 C756 1.406 . S
C754 C759 1.261 . S
C755 H722 0.930 . S
C755 N757 1.325 . S
C755 C758 1.357 . S
C756 H724 0.928 . S
C756 C754 1.406 . S
C756 N757 1.261 . S
N757 Co708 2.214 . S
N757 C755 1.325 . S
N757 C756 1.261 . S
C758 H728 0.931 . S
C758 C755 1.357 . S
C758 C759 1.312 . S
C759 H730 0.930 . S
C759 C754 1.261 . S
C759 C758 1.312 . S
C760 O732 1.214 . S
C760 O740 1.234 . S
C761 H733 0.929 . S
C761 C764 1.391 . S
C761 C766 1.391 . S
C762 H734 0.929 . S
C762 C763 1.390 . S
C762 N765 1.391 . S
C763 H735 0.930 . S
C763 C762 1.390 . S
C763 C764 1.392 . S
C764 H736 0.929 . S
C764 C761 1.391 . S
C764 C763 1.392 . S
N765 Co709 2.257 1_556 S
N765 C762 1.391 . S
N765 C766 1.388 . S
C766 H737 0.930 . S
C766 C761 1.391 . S
C766 N765 1.388 . S
Co767 O769 2.143 1_556 S
Co767 O775 2.074 1_556 S
Co767 O778 2.093 . S
Co767 O791 2.097 . S
Co767 N808 2.151 1_556 S
Co767 N816 2.214 . S
Co768 O769 2.160 . S
Co768 O774 2.058 . S
Co768 O784 2.057 . S
Co768 O799 2.037 1_554 S
Co768 N803 2.145 . S
Co768 N824 2.257 . S
O769 Co767 2.143 1_554 S
O769 Co768 2.160 . S
C770 O771 1.278 . S
C770 O778 1.224 . S
O771 C770 1.278 . S
C772 O773 1.245 . S
C772 O784 1.232 . S
O773 C772 1.245 . S
O774 Co768 2.058 . S
O774 C800 1.269 . S
O775 Co767 2.074 1_554 S
O775 C800 1.257 . S
H776 C801 0.930 . S
H777 C807 0.930 . S
O778 Co767 2.093 . S
O778 C770 1.224 . S
H779 C811 0.929 . S
H780 C813 0.930 . S
H781 C814 0.930 . S
H782 C812 0.929 . S
H783 C815 0.928 . S
O784 Co768 2.057 . S
O784 C772 1.232 . S
H785 C804 0.929 . S
H786 C805 0.929 . S
H787 C817 0.931 . S
H788 C809 0.929 . S
H789 C818 0.930 . S
H790 C810 0.931 . S
O791 Co767 2.097 . S
O791 C819 1.214 . S
H792 C820 0.934 . S
H793 C821 0.929 . S
H794 C822 0.930 . S
H795 C823 0.929 . S
H796 C825 0.930 . S
H797 C802 0.930 . S
H798 C806 0.930 . S
O799 Co768 2.037 1_556 S
O799 C819 1.234 . S
C800 O774 1.269 . S
C800 O775 1.257 . S
C801 H776 0.930 . S
C801 C804 1.388 . S
C801 C806 1.418 . S
C802 H797 0.930 . S
C802 C805 1.404 . S
C802 C806 1.353 . S
N803 Co768 2.145 . S
N803 C804 1.397 . S
N803 C805 1.334 . S
C804 H785 0.929 . S
C804 C801 1.388 . S
C804 N803 1.397 . S
C805 H786 0.929 . S
C805 C802 1.404 . S
C805 N803 1.334 . S
C806 H798 0.930 . S
C806 C801 1.418 . S
C806 C802 1.353 . S
C807 H777 0.930 . S
C807 N808 1.330 . S
C807 C809 1.446 . S
N808 Co767 2.151 1_554 S
N808 C807 1.330 . S
N808 C812 1.418 . S
C809 H788 0.929 . S
C809 C807 1.446 . S
C809 C810 1.332 . S
C810 H790 0.931 . S
C810 C809 1.332 . S
C810 C811 1.267 . S
C811 H779 0.929 . S
C811 C810 1.267 . S
C811 C812 1.251 . S
C812 H782 0.929 . S
C812 N808 1.418 . S
C812 C811 1.251 . S
C813 H780 0.930 . S
C813 C815 1.406 . S
C813 C818 1.261 . S
C814 H781 0.930 . S
C814 N816 1.325 . S
C814 C817 1.357 . S
C815 H783 0.928 . S
C815 C813 1.406 . S
C815 N816 1.261 . S
N816 Co767 2.214 . S
N816 C814 1.325 . S
N816 C815 1.261 . S
C817 H787 0.931 . S
C817 C814 1.357 . S
C817 C818 1.312 . S
C818 H789 0.930 . S
C818 C813 1.261 . S
C818 C817 1.312 . S
C819 O791 1.214 . S
C819 O799 1.234 . S
C820 H792 0.934 . S
C820 C823 1.377 1_554 S
C820 C825 1.401 . S
C821 H793 0.929 . S
C821 C822 1.390 . S
C821 N824 1.391 1_556 S
C822 H794 0.930 . S
C822 C821 1.390 . S
C822 C823 1.392 . S
C823 H795 0.929 . S
C823 C820 1.377 1_556 S
C823 C822 1.392 . S
N824 Co768 2.257 . S
N824 C821 1.391 1_554 S
N824 C825 1.388 . S
C825 H796 0.930 . S
C825 C820 1.401 . S
C825 N824 1.388 . S
Co826 O828 2.143 . S
Co826 O834 2.074 . S
Co826 O837 2.093 . S
Co826 O850 2.097 . S
Co826 N867 2.151 . S
Co826 N875 2.214 . S
Co827 O828 2.160 . S
Co827 O833 2.058 . S
Co827 O843 2.057 . S
Co827 O858 2.037 . S
Co827 N862 2.145 . S
Co827 N883 2.257 . S
O828 Co826 2.143 . S
O828 Co827 2.160 . S
C829 O830 1.278 . S
C829 O837 1.224 . S
O830 C829 1.278 . S
C831 O832 1.245 . S
C831 O843 1.232 . S
O832 C831 1.245 . S
O833 Co827 2.058 . S
O833 C859 1.269 . S
O834 Co826 2.074 . S
O834 C859 1.257 . S
H835 C860 0.930 . S
H836 C866 0.930 . S
O837 Co826 2.093 . S
O837 C829 1.224 . S
H838 C870 0.929 . S
H839 C872 0.930 . S
H840 C873 0.930 . S
H841 C871 0.929 . S
H842 C874 0.928 . S
O843 Co827 2.057 . S
O843 C831 1.232 . S
H844 C863 0.929 . S
H845 C864 0.929 . S
H846 C876 0.931 . S
H847 C868 0.929 . S
H848 C877 0.930 . S
H849 C869 0.931 . S
O850 Co826 2.097 . S
O850 C878 1.214 . S
H851 C879 0.929 . S
H852 C880 0.929 . S
H853 C881 0.930 . S
H854 C882 0.929 . S
H855 C884 0.930 . S
H856 C861 0.930 . S
H857 C865 0.930 . S
O858 Co827 2.037 . S
O858 C878 1.234 . S
C859 O833 1.269 . S
C859 O834 1.257 . S
C860 H835 0.930 . S
C860 C863 1.388 . S
C860 C865 1.418 . S
C861 H856 0.930 . S
C861 C864 1.404 . S
C861 C865 1.353 . S
N862 Co827 2.145 . S
N862 C863 1.397 . S
N862 C864 1.334 . S
C863 H844 0.929 . S
C863 C860 1.388 . S
C863 N862 1.397 . S
C864 H845 0.929 . S
C864 C861 1.404 . S
C864 N862 1.334 . S
C865 H857 0.930 . S
C865 C860 1.418 . S
C865 C861 1.353 . S
C866 H836 0.930 . S
C866 N867 1.330 . S
C866 C868 1.446 . S
N867 Co826 2.151 . S
N867 C866 1.330 . S
N867 C871 1.418 . S
C868 H847 0.929 . S
C868 C866 1.446 . S
C868 C869 1.332 . S
C869 H849 0.931 . S
C869 C868 1.332 . S
C869 C870 1.267 . S
C870 H838 0.929 . S
C870 C869 1.267 . S
C870 C871 1.251 . S
C871 H841 0.929 . S
C871 N867 1.418 . S
C871 C870 1.251 . S
C872 H839 0.930 . S
C872 C874 1.406 . S
C872 C877 1.261 . S
C873 H840 0.930 . S
C873 N875 1.325 . S
C873 C876 1.357 . S
C874 H842 0.928 . S
C874 C872 1.406 . S
C874 N875 1.261 . S
N875 Co826 2.214 . S
N875 C873 1.325 . S
N875 C874 1.261 . S
C876 H846 0.931 . S
C876 C873 1.357 . S
C876 C877 1.312 . S
C877 H848 0.930 . S
C877 C872 1.261 . S
C877 C876 1.312 . S
C878 O850 1.214 . S
C878 O858 1.234 . S
C879 H851 0.929 . S
C879 C882 1.391 . S
C879 C884 1.391 . S
C880 H852 0.929 . S
C880 C881 1.390 . S
C880 N883 1.391 . S
C881 H853 0.930 . S
C881 C880 1.390 . S
C881 C882 1.392 . S
C882 H854 0.929 . S
C882 C879 1.391 . S
C882 C881 1.392 . S
N883 Co827 2.257 . S
N883 C880 1.391 . S
N883 C884 1.388 . S
C884 H855 0.930 . S
C884 C879 1.391 . S
C884 N883 1.388 . S
Co885 O887 2.143 . S
Co885 O893 2.074 . S
Co885 O896 2.093 . S
Co885 O909 2.097 . S
Co885 N926 2.151 . S
Co885 N934 2.214 . S
Co886 O887 2.160 . S
Co886 O892 2.058 . S
Co886 O902 2.057 . S
Co886 O917 2.037 . S
Co886 N921 2.145 . S
Co886 N942 2.257 . S
O887 Co885 2.143 . S
O887 Co886 2.160 . S
C888 O889 1.278 . S
C888 O896 1.224 . S
O889 C888 1.278 . S
C890 O891 1.245 . S
C890 O902 1.232 . S
O891 C890 1.245 . S
O892 Co886 2.058 . S
O892 C918 1.269 . S
O893 Co885 2.074 . S
O893 C918 1.257 . S
H894 C919 0.930 . S
H895 C925 0.930 . S
O896 Co885 2.093 . S
O896 C888 1.224 . S
H897 C929 0.929 . S
H898 C931 0.930 . S
H899 C932 0.930 . S
H900 C930 0.929 . S
H901 C933 0.928 . S
O902 Co886 2.057 . S
O902 C890 1.232 . S
H903 C922 0.929 . S
H904 C923 0.929 . S
H905 C935 0.931 . S
H906 C927 0.929 . S
H907 C936 0.930 . S
H908 C928 0.931 . S
O909 Co885 2.097 . S
O909 C937 1.214 . S
H910 C938 0.929 . S
H911 C939 0.929 . S
H912 C940 0.930 . S
H913 C941 0.929 . S
H914 C943 0.930 . S
H915 C920 0.930 . S
H916 C924 0.930 . S
O917 Co886 2.037 . S
O917 C937 1.234 . S
C918 O892 1.269 . S
C918 O893 1.257 . S
C919 H894 0.930 . S
C919 C922 1.388 . S
C919 C924 1.418 . S
C920 H915 0.930 . S
C920 C923 1.404 . S
C920 C924 1.353 . S
N921 Co886 2.145 . S
N921 C922 1.397 . S
N921 C923 1.334 . S
C922 H903 0.929 . S
C922 C919 1.388 . S
C922 N921 1.397 . S
C923 H904 0.929 . S
C923 C920 1.404 . S
C923 N921 1.334 . S
C924 H916 0.930 . S
C924 C919 1.418 . S
C924 C920 1.353 . S
C925 H895 0.930 . S
C925 N926 1.330 . S
C925 C927 1.446 . S
N926 Co885 2.151 . S
N926 C925 1.330 . S
N926 C930 1.418 . S
C927 H906 0.929 . S
C927 C925 1.446 . S
C927 C928 1.332 . S
C928 H908 0.931 . S
C928 C927 1.332 . S
C928 C929 1.267 . S
C929 H897 0.929 . S
C929 C928 1.267 . S
C929 C930 1.251 . S
C930 H900 0.929 . S
C930 N926 1.418 . S
C930 C929 1.251 . S
C931 H898 0.930 . S
C931 C933 1.406 . S
C931 C936 1.261 . S
C932 H899 0.930 . S
C932 N934 1.325 . S
C932 C935 1.357 . S
C933 H901 0.928 . S
C933 C931 1.406 . S
C933 N934 1.261 . S
N934 Co885 2.214 . S
N934 C932 1.325 . S
N934 C933 1.261 . S
C935 H905 0.931 . S
C935 C932 1.357 . S
C935 C936 1.312 . S
C936 H907 0.930 . S
C936 C931 1.261 . S
C936 C935 1.312 . S
C937 O909 1.214 . S
C937 O917 1.234 . S
C938 H910 0.929 . S
C938 C941 1.391 . S
C938 C943 1.391 . S
C939 H911 0.929 . S
C939 C940 1.390 . S
C939 N942 1.391 . S
C940 H912 0.930 . S
C940 C939 1.390 . S
C940 C941 1.392 . S
C941 H913 0.929 . S
C941 C938 1.391 . S
C941 C940 1.392 . S
N942 Co886 2.257 . S
N942 C939 1.391 . S
N942 C943 1.388 . S
C943 H914 0.930 . S
C943 C938 1.391 . S
C943 N942 1.388 . S
Co944 O946 2.143 1_545 S
Co944 O952 2.074 . S
Co944 O955 2.103 . S
Co944 O968 2.097 . S
Co944 N985 2.151 1_545 S
Co944 N993 2.214 . S
Co945 O946 2.160 1_545 S
Co945 O951 2.058 . S
Co945 O961 2.057 1_545 S
Co945 O976 2.037 . S
Co945 N980 2.145 . S
Co945 N1001 2.257 1_545 S
O946 Co944 2.143 1_565 S
O946 Co945 2.160 1_565 S
C947 O948 1.278 . S
C947 O955 1.208 1_565 S
O948 C947 1.278 . S
C949 O950 1.245 . S
C949 O961 1.232 . S
O950 C949 1.245 . S
O951 Co945 2.058 . S
O951 C977 1.269 . S
O952 Co944 2.074 . S
O952 C977 1.257 . S
H953 C978 0.930 . S
H954 C984 0.930 . S
O955 Co944 2.103 . S
O955 C947 1.208 1_545 S
H956 C988 0.929 . S
H957 C990 0.930 . S
H958 C991 0.930 . S
H959 C989 0.949 . S
H960 C992 0.928 . S
O961 Co945 2.057 1_565 S
O961 C949 1.232 . S
H962 C981 0.929 . S
H963 C982 0.929 1_565 S
H964 C994 0.931 . S
H965 C986 0.929 . S
H966 C995 0.930 . S
H967 C987 0.931 . S
O968 Co944 2.097 . S
O968 C996 1.214 . S
H969 C997 0.929 . S
H970 C998 0.929 . S
H971 C999 0.930 . S
H972 C1000 0.929 . S
H973 C1002 0.930 . S
H974 C979 0.930 . S
H975 C983 0.930 . S
O976 Co945 2.037 . S
O976 C996 1.234 . S
C977 O951 1.269 . S
C977 O952 1.257 . S
C978 H953 0.930 . S
C978 C981 1.388 . S
C978 C983 1.418 . S
C979 H974 0.930 . S
C979 C982 1.404 . S
C979 C983 1.353 . S
N980 Co945 2.145 . S
N980 C981 1.397 . S
N980 C982 1.334 . S
C981 H962 0.929 . S
C981 C978 1.388 . S
C981 N980 1.397 . S
C982 H963 0.929 1_545 S
C982 C979 1.404 . S
C982 N980 1.334 . S
C983 H975 0.930 . S
C983 C978 1.418 . S
C983 C979 1.353 . S
C984 H954 0.930 . S
C984 N985 1.330 . S
C984 C986 1.446 . S
N985 Co944 2.151 1_565 S
N985 C984 1.330 . S
N985 C989 1.410 1_565 S
C986 H965 0.929 . S
C986 C984 1.446 . S
C986 C987 1.332 . S
C987 H967 0.931 . S
C987 C986 1.332 . S
C987 C988 1.267 . S
C988 H956 0.929 . S
C988 C987 1.267 . S
C988 C989 1.240 1_565 S
C989 H959 0.949 . S
C989 N985 1.410 1_545 S
C989 C988 1.240 1_545 S
C990 H957 0.930 . S
C990 C992 1.406 . S
C990 C995 1.261 . S
C991 H958 0.930 . S
C991 N993 1.325 . S
C991 C994 1.357 . S
C992 H960 0.928 . S
C992 C990 1.406 . S
C992 N993 1.261 . S
N993 Co944 2.214 . S
N993 C991 1.325 . S
N993 C992 1.261 . S
C994 H964 0.931 . S
C994 C991 1.357 . S
C994 C995 1.312 . S
C995 H966 0.930 . S
C995 C990 1.261 . S
C995 C994 1.312 . S
C996 O968 1.214 . S
C996 O976 1.234 . S
C997 H969 0.929 . S
C997 C1000 1.391 . S
C997 C1002 1.391 . S
C998 H970 0.929 . S
C998 C999 1.390 . S
C998 N1001 1.391 1_545 S
C999 H971 0.930 . S
C999 C998 1.390 . S
C999 C1000 1.392 1_545 S
C1000 H972 0.929 . S
C1000 C997 1.391 . S
C1000 C999 1.392 1_565 S
N1001 Co945 2.257 1_565 S
N1001 C998 1.391 1_565 S
N1001 C1002 1.388 . S
C1002 H973 0.930 . S
C1002 C997 1.391 . S
C1002 N1001 1.388 . S
Co1003 O1005 2.143 . S
Co1003 O1011 2.074 . S
Co1003 O1014 2.093 . S
Co1003 O1027 2.097 . S
Co1003 N1044 2.151 . S
Co1003 N1052 2.214 . S
Co1004 O1005 2.160 . S
Co1004 O1010 2.058 . S
Co1004 O1020 2.057 . S
Co1004 O1035 2.037 . S
Co1004 N1039 2.145 . S
Co1004 N1060 2.257 . S
O1005 Co1003 2.143 . S
O1005 Co1004 2.160 . S
C1006 O1007 1.278 . S
C1006 O1014 1.224 . S
O1007 C1006 1.278 . S
C1008 O1009 1.245 . S
C1008 O1020 1.232 . S
O1009 C1008 1.245 . S
O1010 Co1004 2.058 . S
O1010 C1036 1.269 . S
O1011 Co1003 2.074 . S
O1011 C1036 1.257 . S
H1012 C1037 0.930 . S
H1013 C1043 0.930 . S
O1014 Co1003 2.093 . S
O1014 C1006 1.224 . S
H1015 C1047 0.929 . S
H1016 C1049 0.930 . S
H1017 C1050 0.930 . S
H1018 C1048 0.929 . S
H1019 C1051 0.928 . S
O1020 Co1004 2.057 . S
O1020 C1008 1.232 . S
H1021 C1040 0.929 . S
H1022 C1041 0.929 . S
H1023 C1053 0.931 . S
H1024 C1045 0.929 . S
H1025 C1054 0.930 . S
H1026 C1046 0.931 . S
O1027 Co1003 2.097 . S
O1027 C1055 1.214 . S
H1028 C1056 0.929 . S
H1029 C1057 0.929 . S
H1030 C1058 0.930 . S
H1031 C1059 0.929 . S
H1032 C1061 0.930 . S
H1033 C1038 0.930 . S
H1034 C1042 0.930 . S
O1035 Co1004 2.037 . S
O1035 C1055 1.234 . S
C1036 O1010 1.269 . S
C1036 O1011 1.257 . S
C1037 H1012 0.930 . S
C1037 C1040 1.388 . S
C1037 C1042 1.418 . S
C1038 H1033 0.930 . S
C1038 C1041 1.404 . S
C1038 C1042 1.353 . S
N1039 Co1004 2.145 . S
N1039 C1040 1.397 . S
N1039 C1041 1.334 . S
C1040 H1021 0.929 . S
C1040 C1037 1.388 . S
C1040 N1039 1.397 . S
C1041 H1022 0.929 . S
C1041 C1038 1.404 . S
C1041 N1039 1.334 . S
C1042 H1034 0.930 . S
C1042 C1037 1.418 . S
C1042 C1038 1.353 . S
C1043 H1013 0.930 . S
C1043 N1044 1.330 . S
C1043 C1045 1.446 . S
N1044 Co1003 2.151 . S
N1044 C1043 1.330 . S
N1044 C1048 1.418 . S
C1045 H1024 0.929 . S
C1045 C1043 1.446 . S
C1045 C1046 1.332 . S
C1046 H1026 0.931 . S
C1046 C1045 1.332 . S
C1046 C1047 1.267 . S
C1047 H1015 0.929 . S
C1047 C1046 1.267 . S
C1047 C1048 1.251 . S
C1048 H1018 0.929 . S
C1048 N1044 1.418 . S
C1048 C1047 1.251 . S
C1049 H1016 0.930 . S
C1049 C1051 1.406 . S
C1049 C1054 1.261 . S
C1050 H1017 0.930 . S
C1050 N1052 1.325 . S
C1050 C1053 1.357 . S
C1051 H1019 0.928 . S
C1051 C1049 1.406 . S
C1051 N1052 1.261 . S
N1052 Co1003 2.214 . S
N1052 C1050 1.325 . S
N1052 C1051 1.261 . S
C1053 H1023 0.931 . S
C1053 C1050 1.357 . S
C1053 C1054 1.312 . S
C1054 H1025 0.930 . S
C1054 C1049 1.261 . S
C1054 C1053 1.312 . S
C1055 O1027 1.214 . S
C1055 O1035 1.234 . S
C1056 H1028 0.929 . S
C1056 C1059 1.391 . S
C1056 C1061 1.391 . S
C1057 H1029 0.929 . S
C1057 C1058 1.390 . S
C1057 N1060 1.391 . S
C1058 H1030 0.930 . S
C1058 C1057 1.390 . S
C1058 C1059 1.392 . S
C1059 H1031 0.929 . S
C1059 C1056 1.391 . S
C1059 C1058 1.392 . S
N1060 Co1004 2.257 . S
N1060 C1057 1.391 . S
N1060 C1061 1.388 . S
C1061 H1032 0.930 . S
C1061 C1056 1.391 . S
C1061 N1060 1.388 . S
Co1062 O1064 2.143 . S
Co1062 O1070 2.074 . S
Co1062 O1073 2.093 . S
Co1062 O1086 2.097 . S
Co1062 N1103 2.151 . S
Co1062 N1111 2.214 . S
Co1063 O1064 2.160 . S
Co1063 O1069 2.058 . S
Co1063 O1079 2.057 . S
Co1063 O1094 2.037 . S
Co1063 N1098 2.145 . S
Co1063 N1119 2.257 . S
O1064 Co1062 2.143 . S
O1064 Co1063 2.160 . S
C1065 O1066 1.278 . S
C1065 O1073 1.224 . S
O1066 C1065 1.278 . S
C1067 O1068 1.245 . S
C1067 O1079 1.232 . S
O1068 C1067 1.245 . S
O1069 Co1063 2.058 . S
O1069 C1095 1.269 . S
O1070 Co1062 2.074 . S
O1070 C1095 1.257 . S
H1071 C1096 0.930 . S
H1072 C1102 0.930 . S
O1073 Co1062 2.093 . S
O1073 C1065 1.224 . S
H1074 C1106 0.929 . S
H1075 C1108 0.930 . S
H1076 C1109 0.930 . S
H1077 C1107 0.929 . S
H1078 C1110 0.928 . S
O1079 Co1063 2.057 . S
O1079 C1067 1.232 . S
H1080 C1099 0.929 . S
H1081 C1100 0.929 . S
H1082 C1112 0.931 . S
H1083 C1104 0.929 . S
H1084 C1113 0.930 . S
H1085 C1105 0.931 . S
O1086 Co1062 2.097 . S
O1086 C1114 1.214 . S
H1087 C1115 0.929 . S
H1088 C1116 0.929 . S
H1089 C1117 0.930 . S
H1090 C1118 0.929 . S
H1091 C1120 0.930 . S
H1092 C1097 0.930 . S
H1093 C1101 0.930 . S
O1094 Co1063 2.037 . S
O1094 C1114 1.234 . S
C1095 O1069 1.269 . S
C1095 O1070 1.257 . S
C1096 H1071 0.930 . S
C1096 C1099 1.388 . S
C1096 C1101 1.418 . S
C1097 H1092 0.930 . S
C1097 C1100 1.404 . S
C1097 C1101 1.353 . S
N1098 Co1063 2.145 . S
N1098 C1099 1.397 . S
N1098 C1100 1.334 . S
C1099 H1080 0.929 . S
C1099 C1096 1.388 . S
C1099 N1098 1.397 . S
C1100 H1081 0.929 . S
C1100 C1097 1.404 . S
C1100 N1098 1.334 . S
C1101 H1093 0.930 . S
C1101 C1096 1.418 . S
C1101 C1097 1.353 . S
C1102 H1072 0.930 . S
C1102 N1103 1.330 . S
C1102 C1104 1.446 . S
N1103 Co1062 2.151 . S
N1103 C1102 1.330 . S
N1103 C1107 1.418 . S
C1104 H1083 0.929 . S
C1104 C1102 1.446 . S
C1104 C1105 1.332 . S
C1105 H1085 0.931 . S
C1105 C1104 1.332 . S
C1105 C1106 1.267 . S
C1106 H1074 0.929 . S
C1106 C1105 1.267 . S
C1106 C1107 1.251 . S
C1107 H1077 0.929 . S
C1107 N1103 1.418 . S
C1107 C1106 1.251 . S
C1108 H1075 0.930 . S
C1108 C1110 1.406 . S
C1108 C1113 1.261 . S
C1109 H1076 0.930 . S
C1109 N1111 1.325 . S
C1109 C1112 1.357 . S
C1110 H1078 0.928 . S
C1110 C1108 1.406 . S
C1110 N1111 1.261 . S
N1111 Co1062 2.214 . S
N1111 C1109 1.325 . S
N1111 C1110 1.261 . S
C1112 H1082 0.931 . S
C1112 C1109 1.357 . S
C1112 C1113 1.312 . S
C1113 H1084 0.930 . S
C1113 C1108 1.261 . S
C1113 C1112 1.312 . S
C1114 O1086 1.214 . S
C1114 O1094 1.234 . S
C1115 H1087 0.929 . S
C1115 C1118 1.391 . S
C1115 C1120 1.391 . S
C1116 H1088 0.929 . S
C1116 C1117 1.390 . S
C1116 N1119 1.391 . S
C1117 H1089 0.930 . S
C1117 C1116 1.390 . S
C1117 C1118 1.392 . S
C1118 H1090 0.929 . S
C1118 C1115 1.391 . S
C1118 C1117 1.392 . S
N1119 Co1063 2.257 . S
N1119 C1116 1.391 . S
N1119 C1120 1.388 . S
C1120 H1091 0.930 . S
C1120 C1115 1.391 . S
C1120 N1119 1.388 . S
Co1121 O1123 2.143 1_545 S
Co1121 O1129 2.074 . S
Co1121 O1132 2.093 1_545 S
Co1121 O1145 2.097 . S
Co1121 N1162 2.151 1_545 S
Co1121 N1170 2.214 . S
Co1122 O1123 2.160 1_545 S
Co1122 O1128 2.058 . S
Co1122 O1138 2.029 1_545 S
Co1122 O1153 2.037 . S
Co1122 N1157 2.145 . S
Co1122 N1178 2.257 1_545 S
O1123 Co1121 2.143 1_565 S
O1123 Co1122 2.160 1_565 S
C1124 O1125 1.278 . S
C1124 O1132 1.224 . S
O1125 C1124 1.278 . S
C1126 O1127 1.245 . S
C1126 O1138 1.269 . S
O1127 C1126 1.245 . S
O1128 Co1122 2.058 . S
O1128 C1154 1.269 . S
O1129 Co1121 2.074 . S
O1129 C1154 1.257 . S
H1130 C1155 0.930 . S
H1131 C1161 0.930 . S
O1132 Co1121 2.093 1_565 S
O1132 C1124 1.224 . S
H1133 C1165 0.929 . S
H1134 C1167 0.930 . S
H1135 C1168 0.930 . S
H1136 C1166 0.929 . S
H1137 C1169 0.925 . S
O1138 Co1122 2.029 1_565 S
O1138 C1126 1.269 . S
H1139 C1158 0.929 . S
H1140 C1159 0.929 . S
H1141 C1171 0.931 . S
H1142 C1163 0.929 . S
H1143 C1172 0.930 . S
H1144 C1164 0.931 . S
O1145 Co1121 2.097 . S
O1145 C1173 1.214 . S
H1146 C1174 0.929 . S
H1147 C1175 0.929 . S
H1148 C1176 0.930 . S
H1149 C1177 0.929 . S
H1150 C1179 0.930 . S
H1151 C1156 0.930 . S
H1152 C1160 0.930 . S
O1153 Co1122 2.037 . S
O1153 C1173 1.234 . S
C1154 O1128 1.269 . S
C1154 O1129 1.257 . S
C1155 H1130 0.930 . S
C1155 C1158 1.388 . S
C1155 C1160 1.418 . S
C1156 H1151 0.930 . S
C1156 C1159 1.404 . S
C1156 C1160 1.353 . S
N1157 Co1122 2.145 . S
N1157 C1158 1.397 . S
N1157 C1159 1.334 . S
C1158 H1139 0.929 . S
C1158 C1155 1.388 . S
C1158 N1157 1.397 . S
C1159 H1140 0.929 . S
C1159 C1156 1.404 . S
C1159 N1157 1.334 . S
C1160 H1152 0.930 . S
C1160 C1155 1.418 . S
C1160 C1156 1.353 . S
C1161 H1131 0.930 . S
C1161 N1162 1.330 . S
C1161 C1163 1.446 . S
N1162 Co1121 2.151 1_565 S
N1162 C1161 1.330 . S
N1162 C1166 1.418 1_565 S
C1163 H1142 0.929 . S
C1163 C1161 1.446 . S
C1163 C1164 1.332 . S
C1164 H1144 0.931 . S
C1164 C1163 1.332 . S
C1164 C1165 1.267 1_565 S
C1165 H1133 0.929 . S
C1165 C1164 1.267 1_545 S
C1165 C1166 1.251 . S
C1166 H1136 0.929 . S
C1166 N1162 1.418 1_545 S
C1166 C1165 1.251 . S
C1167 H1134 0.930 . S
C1167 C1169 1.406 . S
C1167 C1172 1.261 . S
C1168 H1135 0.930 . S
C1168 N1170 1.325 . S
C1168 C1171 1.357 . S
C1169 H1137 0.925 . S
C1169 C1167 1.406 . S
C1169 N1170 1.261 . S
N1170 Co1121 2.214 . S
N1170 C1168 1.325 . S
N1170 C1169 1.261 . S
C1171 H1141 0.931 . S
C1171 C1168 1.357 . S
C1171 C1172 1.312 . S
C1172 H1143 0.930 . S
C1172 C1167 1.261 . S
C1172 C1171 1.312 . S
C1173 O1145 1.214 . S
C1173 O1153 1.234 . S
C1174 H1146 0.929 . S
C1174 C1177 1.391 . S
C1174 C1179 1.391 . S
C1175 H1147 0.929 . S
C1175 C1176 1.390 1_545 S
C1175 N1178 1.391 1_545 S
C1176 H1148 0.930 . S
C1176 C1175 1.390 1_565 S
C1176 C1177 1.392 . S
C1177 H1149 0.929 . S
C1177 C1174 1.391 . S
C1177 C1176 1.392 . S
N1178 Co1122 2.257 1_565 S
N1178 C1175 1.391 1_565 S
N1178 C1179 1.388 . S
C1179 H1150 0.930 . S
C1179 C1174 1.391 . S
C1179 N1178 1.388 . S
Co1180 O1182 2.143 1_554 S
Co1180 O1188 2.074 . S
Co1180 O1191 2.093 . S
Co1180 O1204 2.097 . S
Co1180 N1221 2.144 1_554 S
Co1180 N1229 2.214 . S
Co1181 O1182 2.160 1_554 S
Co1181 O1187 2.058 . S
Co1181 O1197 2.057 1_554 S
Co1181 O1212 2.037 . S
Co1181 N1216 2.145 . S
Co1181 N1237 2.257 1_554 S
O1182 Co1180 2.143 1_556 S
O1182 Co1181 2.160 1_556 S
C1183 O1184 1.278 . S
C1183 O1191 1.224 1_556 S
O1184 C1183 1.278 . S
C1185 O1186 1.245 . S
C1185 O1197 1.232 . S
O1186 C1185 1.245 . S
O1187 Co1181 2.058 . S
O1187 C1213 1.269 . S
O1188 Co1180 2.074 . S
O1188 C1213 1.257 . S
H1189 C1214 0.930 . S
H1190 C1220 0.930 . S
O1191 Co1180 2.093 . S
O1191 C1183 1.224 1_554 S
H1192 C1224 0.929 1_554 S
H1193 C1226 0.930 . S
H1194 C1227 0.930 . S
H1195 C1225 0.929 . S
H1196 C1228 0.928 . S
O1197 Co1181 2.057 1_556 S
O1197 C1185 1.232 . S
H1198 C1217 0.929 . S
H1199 C1218 0.929 1_556 S
H1200 C1230 0.931 . S
H1201 C1222 0.929 . S
H1202 C1231 0.930 . S
H1203 C1223 0.931 . S
O1204 Co1180 2.097 . S
O1204 C1232 1.214 . S
H1205 C1233 0.929 . S
H1206 C1234 0.929 . S
H1207 C1235 0.930 . S
H1208 C1236 0.929 . S
H1209 C1238 0.930 . S
H1210 C1215 0.898 1_556 S
H1211 C1219 0.930 . S
O1212 Co1181 2.037 . S
O1212 C1232 1.234 . S
C1213 O1187 1.269 . S
C1213 O1188 1.257 . S
C1214 H1189 0.930 . S
C1214 C1217 1.388 . S
C1214 C1219 1.418 . S
C1215 H1210 0.898 1_554 S
C1215 C1218 1.404 . S
C1215 C1219 1.353 . S
N1216 Co1181 2.145 . S
N1216 C1217 1.397 . S
N1216 C1218 1.334 . S
C1217 H1198 0.929 . S
C1217 C1214 1.388 . S
C1217 N1216 1.397 . S
C1218 H1199 0.929 1_554 S
C1218 C1215 1.404 . S
C1218 N1216 1.334 . S
C1219 H1211 0.930 . S
C1219 C1214 1.418 . S
C1219 C1215 1.353 . S
C1220 H1190 0.930 . S
C1220 N1221 1.340 . S
C1220 C1222 1.446 . S
N1221 Co1180 2.144 1_556 S
N1221 C1220 1.340 . S
N1221 C1225 1.414 1_556 S
C1222 H1201 0.929 . S
C1222 C1220 1.446 . S
C1222 C1223 1.332 . S
C1223 H1203 0.931 . S
C1223 C1222 1.332 . S
C1223 C1224 1.267 . S
C1224 H1192 0.929 1_556 S
C1224 C1223 1.267 . S
C1224 C1225 1.251 1_556 S
C1225 H1195 0.929 . S
C1225 N1221 1.414 1_554 S
C1225 C1224 1.251 1_554 S
C1226 H1193 0.930 . S
C1226 C1228 1.406 . S
C1226 C1231 1.261 . S
C1227 H1194 0.930 . S
C1227 N1229 1.325 . S
C1227 C1230 1.357 . S
C1228 H1196 0.928 . S
C1228 C1226 1.406 . S
C1228 N1229 1.261 . S
N1229 Co1180 2.214 . S
N1229 C1227 1.325 . S
N1229 C1228 1.261 . S
C1230 H1200 0.931 . S
C1230 C1227 1.357 . S
C1230 C1231 1.312 . S
C1231 H1202 0.930 . S
C1231 C1226 1.261 . S
C1231 C1230 1.312 . S
C1232 O1204 1.214 . S
C1232 O1212 1.234 . S
C1233 H1205 0.929 . S
C1233 C1236 1.391 . S
C1233 C1238 1.391 . S
C1234 H1206 0.929 . S
C1234 C1235 1.390 . S
C1234 N1237 1.391 1_554 S
C1235 H1207 0.930 . S
C1235 C1234 1.390 . S
C1235 C1236 1.392 1_554 S
C1236 H1208 0.929 . S
C1236 C1233 1.391 . S
C1236 C1235 1.392 1_556 S
N1237 Co1181 2.257 1_556 S
N1237 C1234 1.391 1_556 S
N1237 C1238 1.388 . S
C1238 H1209 0.930 . S
C1238 C1233 1.391 . S
C1238 N1237 1.388 . S
Co1239 O1241 2.143 . S
Co1239 O1247 2.074 . S
Co1239 O1250 2.093 . S
Co1239 O1263 2.097 . S
Co1239 N1280 2.151 . S
Co1239 N1288 2.214 . S
Co1240 O1241 2.160 . S
Co1240 O1246 2.058 . S
Co1240 O1256 2.057 . S
Co1240 O1271 2.037 . S
Co1240 N1275 2.145 . S
Co1240 N1296 2.257 . S
O1241 Co1239 2.143 . S
O1241 Co1240 2.160 . S
C1242 O1243 1.278 . S
C1242 O1250 1.224 . S
O1243 C1242 1.278 . S
C1244 O1245 1.245 . S
C1244 O1256 1.232 . S
O1245 C1244 1.245 . S
O1246 Co1240 2.058 . S
O1246 C1272 1.269 . S
O1247 Co1239 2.074 . S
O1247 C1272 1.257 . S
H1248 C1273 0.930 . S
H1249 C1279 0.930 . S
O1250 Co1239 2.093 . S
O1250 C1242 1.224 . S
H1251 C1283 0.929 . S
H1252 C1285 0.930 . S
H1253 C1286 0.930 . S
H1254 C1284 0.929 . S
H1255 C1287 0.928 . S
O1256 Co1240 2.057 . S
O1256 C1244 1.232 . S
H1257 C1276 0.929 . S
H1258 C1277 0.929 . S
H1259 C1289 0.931 . S
H1260 C1281 0.929 . S
H1261 C1290 0.930 . S
H1262 C1282 0.931 . S
O1263 Co1239 2.097 . S
O1263 C1291 1.214 . S
H1264 C1292 0.929 . S
H1265 C1293 0.929 . S
H1266 C1294 0.930 . S
H1267 C1295 0.929 . S
H1268 C1297 0.930 . S
H1269 C1274 0.930 . S
H1270 C1278 0.930 . S
O1271 Co1240 2.037 . S
O1271 C1291 1.234 . S
C1272 O1246 1.269 . S
C1272 O1247 1.257 . S
C1273 H1248 0.930 . S
C1273 C1276 1.388 . S
C1273 C1278 1.418 . S
C1274 H1269 0.930 . S
C1274 C1277 1.404 . S
C1274 C1278 1.353 . S
N1275 Co1240 2.145 . S
N1275 C1276 1.397 . S
N1275 C1277 1.334 . S
C1276 H1257 0.929 . S
C1276 C1273 1.388 . S
C1276 N1275 1.397 . S
C1277 H1258 0.929 . S
C1277 C1274 1.404 . S
C1277 N1275 1.334 . S
C1278 H1270 0.930 . S
C1278 C1273 1.418 . S
C1278 C1274 1.353 . S
C1279 H1249 0.930 . S
C1279 N1280 1.330 . S
C1279 C1281 1.446 . S
N1280 Co1239 2.151 . S
N1280 C1279 1.330 . S
N1280 C1284 1.418 . S
C1281 H1260 0.929 . S
C1281 C1279 1.446 . S
C1281 C1282 1.332 . S
C1282 H1262 0.931 . S
C1282 C1281 1.332 . S
C1282 C1283 1.267 . S
C1283 H1251 0.929 . S
C1283 C1282 1.267 . S
C1283 C1284 1.251 . S
C1284 H1254 0.929 . S
C1284 N1280 1.418 . S
C1284 C1283 1.251 . S
C1285 H1252 0.930 . S
C1285 C1287 1.406 . S
C1285 C1290 1.261 . S
C1286 H1253 0.930 . S
C1286 N1288 1.325 . S
C1286 C1289 1.357 . S
C1287 H1255 0.928 . S
C1287 C1285 1.406 . S
C1287 N1288 1.261 . S
N1288 Co1239 2.214 . S
N1288 C1286 1.325 . S
N1288 C1287 1.261 . S
C1289 H1259 0.931 . S
C1289 C1286 1.357 . S
C1289 C1290 1.312 . S
C1290 H1261 0.930 . S
C1290 C1285 1.261 . S
C1290 C1289 1.312 . S
C1291 O1263 1.214 . S
C1291 O1271 1.234 . S
C1292 H1264 0.929 . S
C1292 C1295 1.391 . S
C1292 C1297 1.391 . S
C1293 H1265 0.929 . S
C1293 C1294 1.390 . S
C1293 N1296 1.391 . S
C1294 H1266 0.930 . S
C1294 C1293 1.390 . S
C1294 C1295 1.392 . S
C1295 H1267 0.929 . S
C1295 C1292 1.391 . S
C1295 C1294 1.392 . S
N1296 Co1240 2.257 . S
N1296 C1293 1.391 . S
N1296 C1297 1.388 . S
C1297 H1268 0.930 . S
C1297 C1292 1.391 . S
C1297 N1296 1.388 . S
Co1298 O1300 2.143 . S
Co1298 O1306 2.074 . S
Co1298 O1309 2.093 . S
Co1298 O1322 2.097 . S
Co1298 N1339 2.151 . S
Co1298 N1347 2.214 . S
Co1299 O1300 2.160 . S
Co1299 O1305 2.058 . S
Co1299 O1315 2.057 . S
Co1299 O1330 2.037 . S
Co1299 N1334 2.145 . S
Co1299 N1355 2.257 . S
O1300 Co1298 2.143 . S
O1300 Co1299 2.160 . S
C1301 O1302 1.278 . S
C1301 O1309 1.224 . S
O1302 C1301 1.278 . S
C1303 O1304 1.245 . S
C1303 O1315 1.232 . S
O1304 C1303 1.245 . S
O1305 Co1299 2.058 . S
O1305 C1331 1.269 . S
O1306 Co1298 2.074 . S
O1306 C1331 1.257 . S
H1307 C1332 0.930 . S
H1308 C1338 0.930 . S
O1309 Co1298 2.093 . S
O1309 C1301 1.224 . S
H1310 C1342 0.929 . S
H1311 C1344 0.930 . S
H1312 C1345 0.930 . S
H1313 C1343 0.929 . S
H1314 C1346 0.928 . S
O1315 Co1299 2.057 . S
O1315 C1303 1.232 . S
H1316 C1335 0.929 . S
H1317 C1336 0.929 . S
H1318 C1348 0.931 . S
H1319 C1340 0.929 . S
H1320 C1349 0.930 . S
H1321 C1341 0.931 . S
O1322 Co1298 2.097 . S
O1322 C1350 1.214 . S
H1323 C1351 0.929 . S
H1324 C1352 0.929 . S
H1325 C1353 0.930 . S
H1326 C1354 0.929 . S
H1327 C1356 0.930 . S
H1328 C1333 0.930 . S
H1329 C1337 0.930 . S
O1330 Co1299 2.037 . S
O1330 C1350 1.234 . S
C1331 O1305 1.269 . S
C1331 O1306 1.257 . S
C1332 H1307 0.930 . S
C1332 C1335 1.388 . S
C1332 C1337 1.418 . S
C1333 H1328 0.930 . S
C1333 C1336 1.404 . S
C1333 C1337 1.353 . S
N1334 Co1299 2.145 . S
N1334 C1335 1.397 . S
N1334 C1336 1.334 . S
C1335 H1316 0.929 . S
C1335 C1332 1.388 . S
C1335 N1334 1.397 . S
C1336 H1317 0.929 . S
C1336 C1333 1.404 . S
C1336 N1334 1.334 . S
C1337 H1329 0.930 . S
C1337 C1332 1.418 . S
C1337 C1333 1.353 . S
C1338 H1308 0.930 . S
C1338 N1339 1.330 . S
C1338 C1340 1.446 . S
N1339 Co1298 2.151 . S
N1339 C1338 1.330 . S
N1339 C1343 1.418 . S
C1340 H1319 0.929 . S
C1340 C1338 1.446 . S
C1340 C1341 1.332 . S
C1341 H1321 0.931 . S
C1341 C1340 1.332 . S
C1341 C1342 1.267 . S
C1342 H1310 0.929 . S
C1342 C1341 1.267 . S
C1342 C1343 1.251 . S
C1343 H1313 0.929 . S
C1343 N1339 1.418 . S
C1343 C1342 1.251 . S
C1344 H1311 0.930 . S
C1344 C1346 1.406 . S
C1344 C1349 1.261 . S
C1345 H1312 0.930 . S
C1345 N1347 1.325 . S
C1345 C1348 1.357 . S
C1346 H1314 0.928 . S
C1346 C1344 1.406 . S
C1346 N1347 1.261 . S
N1347 Co1298 2.214 . S
N1347 C1345 1.325 . S
N1347 C1346 1.261 . S
C1348 H1318 0.931 . S
C1348 C1345 1.357 . S
C1348 C1349 1.312 . S
C1349 H1320 0.930 . S
C1349 C1344 1.261 . S
C1349 C1348 1.312 . S
C1350 O1322 1.214 . S
C1350 O1330 1.234 . S
C1351 H1323 0.929 . S
C1351 C1354 1.391 . S
C1351 C1356 1.391 . S
C1352 H1324 0.929 . S
C1352 C1353 1.390 . S
C1352 N1355 1.391 . S
C1353 H1325 0.930 . S
C1353 C1352 1.390 . S
C1353 C1354 1.392 . S
C1354 H1326 0.929 . S
C1354 C1351 1.391 . S
C1354 C1353 1.392 . S
N1355 Co1299 2.257 . S
N1355 C1352 1.391 . S
N1355 C1356 1.388 . S
C1356 H1327 0.930 . S
C1356 C1351 1.391 . S
C1356 N1355 1.388 . S
Co1357 O1359 2.143 . S
Co1357 O1365 2.074 . S
Co1357 O1368 2.093 . S
Co1357 O1381 2.097 . S
Co1357 N1398 2.151 . S
Co1357 N1406 2.214 . S
Co1358 O1359 2.160 . S
Co1358 O1364 2.058 . S
Co1358 O1374 2.057 . S
Co1358 O1389 2.037 . S
Co1358 N1393 2.145 . S
Co1358 N1414 2.257 . S
O1359 Co1357 2.143 . S
O1359 Co1358 2.160 . S
C1360 O1361 1.278 . S
C1360 O1368 1.224 . S
O1361 C1360 1.278 . S
C1362 O1363 1.245 . S
C1362 O1374 1.232 . S
O1363 C1362 1.245 . S
O1364 Co1358 2.058 . S
O1364 C1390 1.269 . S
O1365 Co1357 2.074 . S
O1365 C1390 1.257 . S
H1366 C1391 0.930 . S
H1367 C1397 0.930 . S
O1368 Co1357 2.093 . S
O1368 C1360 1.224 . S
H1369 C1401 0.929 . S
H1370 C1403 0.930 . S
H1371 C1404 0.930 . S
H1372 C1402 0.929 . S
H1373 C1405 0.928 . S
O1374 Co1358 2.057 . S
O1374 C1362 1.232 . S
H1375 C1394 0.929 . S
H1376 C1395 0.929 . S
H1377 C1407 0.931 . S
H1378 C1399 0.929 . S
H1379 C1408 0.930 . S
H1380 C1400 0.931 . S
O1381 Co1357 2.097 . S
O1381 C1409 1.214 . S
H1382 C1410 0.929 . S
H1383 C1411 0.929 . S
H1384 C1412 0.930 . S
H1385 C1413 0.929 . S
H1386 C1415 0.930 . S
H1387 C1392 0.930 . S
H1388 C1396 0.930 . S
O1389 Co1358 2.037 . S
O1389 C1409 1.234 . S
C1390 O1364 1.269 . S
C1390 O1365 1.257 . S
C1391 H1366 0.930 . S
C1391 C1394 1.388 . S
C1391 C1396 1.418 . S
C1392 H1387 0.930 . S
C1392 C1395 1.404 . S
C1392 C1396 1.353 . S
N1393 Co1358 2.145 . S
N1393 C1394 1.397 . S
N1393 C1395 1.334 . S
C1394 H1375 0.929 . S
C1394 C1391 1.388 . S
C1394 N1393 1.397 . S
C1395 H1376 0.929 . S
C1395 C1392 1.404 . S
C1395 N1393 1.334 . S
C1396 H1388 0.930 . S
C1396 C1391 1.418 . S
C1396 C1392 1.353 . S
C1397 H1367 0.930 . S
C1397 N1398 1.330 . S
C1397 C1399 1.446 . S
N1398 Co1357 2.151 . S
N1398 C1397 1.330 . S
N1398 C1402 1.418 . S
C1399 H1378 0.929 . S
C1399 C1397 1.446 . S
C1399 C1400 1.332 . S
C1400 H1380 0.931 . S
C1400 C1399 1.332 . S
C1400 C1401 1.267 . S
C1401 H1369 0.929 . S
C1401 C1400 1.267 . S
C1401 C1402 1.251 . S
C1402 H1372 0.929 . S
C1402 N1398 1.418 . S
C1402 C1401 1.251 . S
C1403 H1370 0.930 . S
C1403 C1405 1.406 . S
C1403 C1408 1.261 . S
C1404 H1371 0.930 . S
C1404 N1406 1.325 . S
C1404 C1407 1.357 . S
C1405 H1373 0.928 . S
C1405 C1403 1.406 . S
C1405 N1406 1.261 . S
N1406 Co1357 2.214 . S
N1406 C1404 1.325 . S
N1406 C1405 1.261 . S
C1407 H1377 0.931 . S
C1407 C1404 1.357 . S
C1407 C1408 1.312 . S
C1408 H1379 0.930 . S
C1408 C1403 1.261 . S
C1408 C1407 1.312 . S
C1409 O1381 1.214 . S
C1409 O1389 1.234 . S
C1410 H1382 0.929 . S
C1410 C1413 1.391 . S
C1410 C1415 1.391 . S
C1411 H1383 0.929 . S
C1411 C1412 1.390 . S
C1411 N1414 1.391 . S
C1412 H1384 0.930 . S
C1412 C1411 1.390 . S
C1412 C1413 1.392 . S
C1413 H1385 0.929 . S
C1413 C1410 1.391 . S
C1413 C1412 1.392 . S
N1414 Co1358 2.257 . S
N1414 C1411 1.391 . S
N1414 C1415 1.388 . S
C1415 H1386 0.930 . S
C1415 C1410 1.391 . S
C1415 N1414 1.388 . S
H1416 C1424 0.929 . S
H1417 C1426 0.930 . S
H1418 C1428 0.930 . S
H1419 C1431 0.929 . S
H1420 C1434 0.930 . S
H1421 C1436 0.960 . S
H1422 C1436 0.960 . S
H1423 C1436 0.960 . S
C1424 H1416 0.929 . S
C1424 C1425 1.377 . S
C1424 C1426 1.384 . S
C1425 C1424 1.377 . S
C1425 C1431 1.390 . S
C1426 H1417 0.930 . S
C1426 C1424 1.384 . S
C1426 C1427 1.372 . S
C1427 C1426 1.372 . S
C1427 C1428 1.400 . S
C1427 C1432 1.490 . S
C1428 H1418 0.930 . S
C1428 C1427 1.400 . S
C1428 C1431 1.386 . S
H1429 C1445 0.930 . S
H1430 C1446 0.931 . S
C1431 H1419 0.929 . S
C1431 C1425 1.390 . S
C1431 C1428 1.386 . S
C1432 C1427 1.490 . S
C1432 C1434 1.395 . S
C1432 C1435 1.403 . S
H1433 C1439 0.930 . S
C1434 H1420 0.930 . S
C1434 C1432 1.395 . S
C1434 C1437 1.403 . S
C1435 C1432 1.403 . S
C1435 C1436 1.524 . S
C1435 C1439 1.400 . S
C1436 H1421 0.960 . S
C1436 H1422 0.960 . S
C1436 H1423 0.960 . S
C1436 C1435 1.524 . S
C1437 C1434 1.403 . S
C1437 C1438 1.392 . S
C1437 C1441 1.495 . S
C1438 C1437 1.392 . S
C1438 C1439 1.385 . S
C1438 C1440 1.478 . S
C1439 H1433 0.930 . S
C1439 C1435 1.400 . S
C1439 C1438 1.385 . S
C1440 C1438 1.478 . S
C1440 C1442 1.381 . S
C1440 C1446 1.383 . S
C1441 C1437 1.495 . S
C1441 H1447 0.959 . S
C1441 H1448 0.961 . S
C1441 H1449 0.960 . S
C1442 C1440 1.381 . S
C1442 C1443 1.394 . S
C1442 H1450 0.930 . S
C1443 C1442 1.394 . S
C1443 C1444 1.383 . S
C1443 H1451 0.929 . S
C1444 C1443 1.383 . S
C1444 C1445 1.377 . S
C1445 H1429 0.930 . S
C1445 C1444 1.377 . S
C1445 C1446 1.379 . S
C1446 H1430 0.931 . S
C1446 C1440 1.383 . S
C1446 C1445 1.379 . S
H1447 C1441 0.959 . S
H1448 C1441 0.961 . S
H1449 C1441 0.960 . S
H1450 C1442 0.930 . S
H1451 C1443 0.929 . S
H1452 C1460 0.929 . S
H1453 C1462 0.930 . S
H1454 C1464 0.930 . S
H1455 C1467 0.929 . S
H1456 C1470 0.930 . S
H1457 C1472 0.960 . S
H1458 C1472 0.960 . S
H1459 C1472 0.960 . S
C1460 H1452 0.929 . S
C1460 C1461 1.377 . S
C1460 C1462 1.384 . S
C1461 C1460 1.377 . S
C1461 C1467 1.390 . S
C1462 H1453 0.930 . S
C1462 C1460 1.384 . S
C1462 C1463 1.372 . S
C1463 C1462 1.372 . S
C1463 C1464 1.400 . S
C1463 C1468 1.490 . S
C1464 H1454 0.930 . S
C1464 C1463 1.400 . S
C1464 C1467 1.386 . S
H1465 C1481 0.930 . S
H1466 C1482 0.931 . S
C1467 H1455 0.929 . S
C1467 C1461 1.390 . S
C1467 C1464 1.386 . S
C1468 C1463 1.490 . S
C1468 C1470 1.395 . S
C1468 C1471 1.403 . S
H1469 C1475 0.930 . S
C1470 H1456 0.930 . S
C1470 C1468 1.395 . S
C1470 C1473 1.403 . S
C1471 C1468 1.403 . S
C1471 C1472 1.524 . S
C1471 C1475 1.400 . S
C1472 H1457 0.960 . S
C1472 H1458 0.960 . S
C1472 H1459 0.960 . S
C1472 C1471 1.524 . S
C1473 C1470 1.403 . S
C1473 C1474 1.392 . S
C1473 C1477 1.495 . S
C1474 C1473 1.392 . S
C1474 C1475 1.385 . S
C1474 C1476 1.478 . S
C1475 H1469 0.930 . S
C1475 C1471 1.400 . S
C1475 C1474 1.385 . S
C1476 C1474 1.478 . S
C1476 C1478 1.381 . S
C1476 C1482 1.383 . S
C1477 C1473 1.495 . S
C1477 H1483 0.959 . S
C1477 H1484 0.961 . S
C1477 H1485 0.960 . S
C1478 C1476 1.381 . S
C1478 C1479 1.394 . S
C1478 H1486 0.930 . S
C1479 C1478 1.394 . S
C1479 C1480 1.383 . S
C1479 H1487 0.929 . S
C1480 C1479 1.383 . S
C1480 C1481 1.377 . S
C1481 H1465 0.930 . S
C1481 C1480 1.377 . S
C1481 C1482 1.379 . S
C1482 H1466 0.931 . S
C1482 C1476 1.383 . S
C1482 C1481 1.379 . S
H1483 C1477 0.959 . S
H1484 C1477 0.961 . S
H1485 C1477 0.960 . S
H1486 C1478 0.930 . S
H1487 C1479 0.929 . S
H1488 C1496 0.929 . S
H1489 C1498 0.930 . S
H1490 C1500 0.930 . S
H1491 C1503 0.929 . S
H1492 C1506 0.930 . S
H1493 C1508 0.960 . S
H1494 C1508 0.960 . S
H1495 C1508 0.960 . S
C1496 H1488 0.929 . S
C1496 C1497 1.377 . S
C1496 C1498 1.384 . S
C1497 C1496 1.377 . S
C1497 C1503 1.390 . S
C1498 H1489 0.930 . S
C1498 C1496 1.384 . S
C1498 C1499 1.372 . S
C1499 C1498 1.372 . S
C1499 C1500 1.400 . S
C1499 C1504 1.490 . S
C1500 H1490 0.930 . S
C1500 C1499 1.400 . S
C1500 C1503 1.386 . S
H1501 C1517 0.930 . S
H1502 C1518 0.931 . S
C1503 H1491 0.929 . S
C1503 C1497 1.390 . S
C1503 C1500 1.386 . S
C1504 C1499 1.490 . S
C1504 C1506 1.395 . S
C1504 C1507 1.403 . S
H1505 C1511 0.930 . S
C1506 H1492 0.930 . S
C1506 C1504 1.395 . S
C1506 C1509 1.403 . S
C1507 C1504 1.403 . S
C1507 C1508 1.524 . S
C1507 C1511 1.400 . S
C1508 H1493 0.960 . S
C1508 H1494 0.960 . S
C1508 H1495 0.960 . S
C1508 C1507 1.524 . S
C1509 C1506 1.403 . S
C1509 C1510 1.392 . S
C1509 C1513 1.495 . S
C1510 C1509 1.392 . S
C1510 C1511 1.385 . S
C1510 C1512 1.478 . S
C1511 H1505 0.930 . S
C1511 C1507 1.400 . S
C1511 C1510 1.385 . S
C1512 C1510 1.478 . S
C1512 C1514 1.381 . S
C1512 C1518 1.383 . S
C1513 C1509 1.495 . S
C1513 H1519 0.959 . S
C1513 H1520 0.961 . S
C1513 H1521 0.960 . S
C1514 C1512 1.381 . S
C1514 C1515 1.394 . S
C1514 H1522 0.930 . S
C1515 C1514 1.394 . S
C1515 C1516 1.383 . S
C1515 H1523 0.929 . S
C1516 C1515 1.383 . S
C1516 C1517 1.377 . S
C1517 H1501 0.930 . S
C1517 C1516 1.377 . S
C1517 C1518 1.379 . S
C1518 H1502 0.931 . S
C1518 C1512 1.383 . S
C1518 C1517 1.379 . S
H1519 C1513 0.959 . S
H1520 C1513 0.961 . S
H1521 C1513 0.960 . S
H1522 C1514 0.930 . S
H1523 C1515 0.929 . S
H1524 C1532 0.929 . S
H1525 C1534 0.930 . S
H1526 C1536 0.930 . S
H1527 C1539 0.929 . S
H1528 C1542 0.930 . S
H1529 C1544 0.960 . S
H1530 C1544 0.960 . S
H1531 C1544 0.960 . S
C1532 H1524 0.929 . S
C1532 C1533 1.377 . S
C1532 C1534 1.384 . S
C1533 C1532 1.377 . S
C1533 C1539 1.390 . S
C1534 H1525 0.930 . S
C1534 C1532 1.384 . S
C1534 C1535 1.372 . S
C1535 C1534 1.372 . S
C1535 C1536 1.400 . S
C1535 C1540 1.490 . S
C1536 H1526 0.930 . S
C1536 C1535 1.400 . S
C1536 C1539 1.386 . S
H1537 C1553 0.930 . S
H1538 C1554 0.931 . S
C1539 H1527 0.929 . S
C1539 C1533 1.390 . S
C1539 C1536 1.386 . S
C1540 C1535 1.490 . S
C1540 C1542 1.395 . S
C1540 C1543 1.403 . S
H1541 C1547 0.930 . S
C1542 H1528 0.930 . S
C1542 C1540 1.395 . S
C1542 C1545 1.403 . S
C1543 C1540 1.403 . S
C1543 C1544 1.524 . S
C1543 C1547 1.400 . S
C1544 H1529 0.960 . S
C1544 H1530 0.960 . S
C1544 H1531 0.960 . S
C1544 C1543 1.524 . S
C1545 C1542 1.403 . S
C1545 C1546 1.392 . S
C1545 C1549 1.495 . S
C1546 C1545 1.392 . S
C1546 C1547 1.385 . S
C1546 C1548 1.478 . S
C1547 H1541 0.930 . S
C1547 C1543 1.400 . S
C1547 C1546 1.385 . S
C1548 C1546 1.478 . S
C1548 C1550 1.381 . S
C1548 C1554 1.383 . S
C1549 C1545 1.495 . S
C1549 H1555 0.959 . S
C1549 H1556 0.961 . S
C1549 H1557 0.960 . S
C1550 C1548 1.381 . S
C1550 C1551 1.394 . S
C1550 H1558 0.930 . S
C1551 C1550 1.394 . S
C1551 C1552 1.383 . S
C1551 H1559 0.929 . S
C1552 C1551 1.383 . S
C1552 C1553 1.377 . S
C1553 H1537 0.930 . S
C1553 C1552 1.377 . S
C1553 C1554 1.379 . S
C1554 H1538 0.931 . S
C1554 C1548 1.383 . S
C1554 C1553 1.379 . S
H1555 C1549 0.959 . S
H1556 C1549 0.961 . S
H1557 C1549 0.960 . S
H1558 C1550 0.930 . S
H1559 C1551 0.929 . S
H1560 C1568 0.929 . S
H1561 C1570 0.930 . S
H1562 C1572 0.930 . S
H1563 C1575 0.929 . S
H1564 C1578 0.930 . S
H1565 C1580 0.960 . S
H1566 C1580 0.960 . S
H1567 C1580 0.960 . S
C1568 H1560 0.929 . S
C1568 C1569 1.377 . S
C1568 C1570 1.384 . S
C1569 C1568 1.377 . S
C1569 C1575 1.390 . S
C1570 H1561 0.930 . S
C1570 C1568 1.384 . S
C1570 C1571 1.372 . S
C1571 C1570 1.372 . S
C1571 C1572 1.400 . S
C1571 C1576 1.490 . S
C1572 H1562 0.930 . S
C1572 C1571 1.400 . S
C1572 C1575 1.386 . S
H1573 C1589 0.930 . S
H1574 C1590 0.931 . S
C1575 H1563 0.929 . S
C1575 C1569 1.390 . S
C1575 C1572 1.386 . S
C1576 C1571 1.490 . S
C1576 C1578 1.395 . S
C1576 C1579 1.403 . S
H1577 C1583 0.930 . S
C1578 H1564 0.930 . S
C1578 C1576 1.395 . S
C1578 C1581 1.403 . S
C1579 C1576 1.403 . S
C1579 C1580 1.524 . S
C1579 C1583 1.400 . S
C1580 H1565 0.960 . S
C1580 H1566 0.960 . S
C1580 H1567 0.960 . S
C1580 C1579 1.524 . S
C1581 C1578 1.403 . S
C1581 C1582 1.392 . S
C1581 C1585 1.495 . S
C1582 C1581 1.392 . S
C1582 C1583 1.385 . S
C1582 C1584 1.478 . S
C1583 H1577 0.930 . S
C1583 C1579 1.400 . S
C1583 C1582 1.385 . S
C1584 C1582 1.478 . S
C1584 C1586 1.381 . S
C1584 C1590 1.383 . S
C1585 C1581 1.495 . S
C1585 H1591 0.959 . S
C1585 H1592 0.961 . S
C1585 H1593 0.960 . S
C1586 C1584 1.381 . S
C1586 C1587 1.394 . S
C1586 H1594 0.930 . S
C1587 C1586 1.394 . S
C1587 C1588 1.383 . S
C1587 H1595 0.929 . S
C1588 C1587 1.383 . S
C1588 C1589 1.377 . S
C1589 H1573 0.930 . S
C1589 C1588 1.377 . S
C1589 C1590 1.379 . S
C1590 H1574 0.931 . S
C1590 C1584 1.383 . S
C1590 C1589 1.379 . S
H1591 C1585 0.959 . S
H1592 C1585 0.961 . S
H1593 C1585 0.960 . S
H1594 C1586 0.930 . S
H1595 C1587 0.929 . S
H1596 C1604 0.929 . S
H1597 C1606 0.930 . S
H1598 C1608 0.930 . S
H1599 C1611 0.929 . S
H1600 C1614 0.930 . S
H1601 C1616 0.960 . S
H1602 C1616 0.960 . S
H1603 C1616 0.960 . S
C1604 H1596 0.929 . S
C1604 C1605 1.377 . S
C1604 C1606 1.384 . S
C1605 C1604 1.377 . S
C1605 C1611 1.390 . S
C1606 H1597 0.930 . S
C1606 C1604 1.384 . S
C1606 C1607 1.372 . S
C1607 C1606 1.372 . S
C1607 C1608 1.400 . S
C1607 C1612 1.490 . S
C1608 H1598 0.930 . S
C1608 C1607 1.400 . S
C1608 C1611 1.386 . S
H1609 C1625 0.930 . S
H1610 C1626 0.931 . S
C1611 H1599 0.929 . S
C1611 C1605 1.390 . S
C1611 C1608 1.386 . S
C1612 C1607 1.490 . S
C1612 C1614 1.395 . S
C1612 C1615 1.403 . S
H1613 C1619 0.930 . S
C1614 H1600 0.930 . S
C1614 C1612 1.395 . S
C1614 C1617 1.403 . S
C1615 C1612 1.403 . S
C1615 C1616 1.524 . S
C1615 C1619 1.400 . S
C1616 H1601 0.960 . S
C1616 H1602 0.960 . S
C1616 H1603 0.960 . S
C1616 C1615 1.524 . S
C1617 C1614 1.403 . S
C1617 C1618 1.392 . S
C1617 C1621 1.495 . S
C1618 C1617 1.392 . S
C1618 C1619 1.385 . S
C1618 C1620 1.478 . S
C1619 H1613 0.930 . S
C1619 C1615 1.400 . S
C1619 C1618 1.385 . S
C1620 C1618 1.478 . S
C1620 C1622 1.381 . S
C1620 C1626 1.383 . S
C1621 C1617 1.495 . S
C1621 H1627 0.959 . S
C1621 H1628 0.961 . S
C1621 H1629 0.960 . S
C1622 C1620 1.381 . S
C1622 C1623 1.394 . S
C1622 H1630 0.930 . S
C1623 C1622 1.394 . S
C1623 C1624 1.383 . S
C1623 H1631 0.929 . S
C1624 C1623 1.383 . S
C1624 C1625 1.377 . S
C1625 H1609 0.930 . S
C1625 C1624 1.377 . S
C1625 C1626 1.379 . S
C1626 H1610 0.931 . S
C1626 C1620 1.383 . S
C1626 C1625 1.379 . S
H1627 C1621 0.959 . S
H1628 C1621 0.961 . S
H1629 C1621 0.960 . S
H1630 C1622 0.930 . S
H1631 C1623 0.929 . S
H1632 C1640 0.929 . S
H1633 C1642 0.930 . S
H1634 C1644 0.930 . S
H1635 C1647 0.929 . S
H1636 C1650 0.930 . S
H1637 C1652 0.960 . S
H1638 C1652 0.960 . S
H1639 C1652 0.960 . S
C1640 H1632 0.929 . S
C1640 C1641 1.377 . S
C1640 C1642 1.384 . S
C1641 C1640 1.377 . S
C1641 C1647 1.390 . S
C1642 H1633 0.930 . S
C1642 C1640 1.384 . S
C1642 C1643 1.372 . S
C1643 C1642 1.372 . S
C1643 C1644 1.400 . S
C1643 C1648 1.490 . S
C1644 H1634 0.930 . S
C1644 C1643 1.400 . S
C1644 C1647 1.386 . S
H1645 C1661 0.930 . S
H1646 C1662 0.931 . S
C1647 H1635 0.929 . S
C1647 C1641 1.390 . S
C1647 C1644 1.386 . S
C1648 C1643 1.490 . S
C1648 C1650 1.395 . S
C1648 C1651 1.403 . S
H1649 C1655 0.930 . S
C1650 H1636 0.930 . S
C1650 C1648 1.395 . S
C1650 C1653 1.403 . S
C1651 C1648 1.403 . S
C1651 C1652 1.524 . S
C1651 C1655 1.400 . S
C1652 H1637 0.960 . S
C1652 H1638 0.960 . S
C1652 H1639 0.960 . S
C1652 C1651 1.524 . S
C1653 C1650 1.403 . S
C1653 C1654 1.392 . S
C1653 C1657 1.495 . S
C1654 C1653 1.392 . S
C1654 C1655 1.385 . S
C1654 C1656 1.478 . S
C1655 H1649 0.930 . S
C1655 C1651 1.400 . S
C1655 C1654 1.385 . S
C1656 C1654 1.478 . S
C1656 C1658 1.381 . S
C1656 C1662 1.383 . S
C1657 C1653 1.495 . S
C1657 H1663 0.959 . S
C1657 H1664 0.961 . S
C1657 H1665 0.960 . S
C1658 C1656 1.381 . S
C1658 C1659 1.394 . S
C1658 H1666 0.930 . S
C1659 C1658 1.394 . S
C1659 C1660 1.383 . S
C1659 H1667 0.929 . S
C1660 C1659 1.383 . S
C1660 C1661 1.377 . S
C1661 H1645 0.930 . S
C1661 C1660 1.377 . S
C1661 C1662 1.379 . S
C1662 H1646 0.931 . S
C1662 C1656 1.383 . S
C1662 C1661 1.379 . S
H1663 C1657 0.959 . S
H1664 C1657 0.961 . S
H1665 C1657 0.960 . S
H1666 C1658 0.930 . S
H1667 C1659 0.929 . S
H1668 C1676 0.929 . S
H1669 C1678 0.930 . S
H1670 C1680 0.930 . S
H1671 C1683 0.929 . S
H1672 C1686 0.930 . S
H1673 C1688 0.960 . S
H1674 C1688 0.960 . S
H1675 C1688 0.960 . S
C1676 H1668 0.929 . S
C1676 C1677 1.377 . S
C1676 C1678 1.384 . S
C1677 C1676 1.377 . S
C1677 C1683 1.390 . S
C1678 H1669 0.930 . S
C1678 C1676 1.384 . S
C1678 C1679 1.372 . S
C1679 C1678 1.372 . S
C1679 C1680 1.400 . S
C1679 C1684 1.490 . S
C1680 H1670 0.930 . S
C1680 C1679 1.400 . S
C1680 C1683 1.386 . S
H1681 C1697 0.930 . S
H1682 C1698 0.931 . S
C1683 H1671 0.929 . S
C1683 C1677 1.390 . S
C1683 C1680 1.386 . S
C1684 C1679 1.490 . S
C1684 C1686 1.395 . S
C1684 C1687 1.403 . S
H1685 C1691 0.930 . S
C1686 H1672 0.930 . S
C1686 C1684 1.395 . S
C1686 C1689 1.403 . S
C1687 C1684 1.403 . S
C1687 C1688 1.524 . S
C1687 C1691 1.400 . S
C1688 H1673 0.960 . S
C1688 H1674 0.960 . S
C1688 H1675 0.960 . S
C1688 C1687 1.524 . S
C1689 C1686 1.403 . S
C1689 C1690 1.392 . S
C1689 C1693 1.495 . S
C1690 C1689 1.392 . S
C1690 C1691 1.385 . S
C1690 C1692 1.478 . S
C1691 H1685 0.930 . S
C1691 C1687 1.400 . S
C1691 C1690 1.385 . S
C1692 C1690 1.478 . S
C1692 C1694 1.381 . S
C1692 C1698 1.383 . S
C1693 C1689 1.495 . S
C1693 H1699 0.959 . S
C1693 H1700 0.961 . S
C1693 H1701 0.960 . S
C1694 C1692 1.381 . S
C1694 C1695 1.394 . S
C1694 H1702 0.930 . S
C1695 C1694 1.394 . S
C1695 C1696 1.383 . S
C1695 H1703 0.929 . S
C1696 C1695 1.383 . S
C1696 C1697 1.377 . S
C1697 H1681 0.930 . S
C1697 C1696 1.377 . S
C1697 C1698 1.379 . S
C1698 H1682 0.931 . S
C1698 C1692 1.383 . S
C1698 C1697 1.379 . S
H1699 C1693 0.959 . S
H1700 C1693 0.961 . S
H1701 C1693 0.960 . S
H1702 C1694 0.930 . S
H1703 C1695 0.929 . S
H1704 C1712 0.929 . S
H1705 C1714 0.930 . S
H1706 C1716 0.930 . S
H1707 C1719 0.929 . S
H1708 C1722 0.930 . S
H1709 C1724 0.960 . S
H1710 C1724 0.960 . S
H1711 C1724 0.960 . S
C1712 H1704 0.929 . S
C1712 C1713 1.377 . S
C1712 C1714 1.384 . S
C1713 C1712 1.377 . S
C1713 C1719 1.390 . S
C1714 H1705 0.930 . S
C1714 C1712 1.384 . S
C1714 C1715 1.372 . S
C1715 C1714 1.372 . S
C1715 C1716 1.400 . S
C1715 C1720 1.490 . S
C1716 H1706 0.930 . S
C1716 C1715 1.400 . S
C1716 C1719 1.386 . S
H1717 C1733 0.930 . S
H1718 C1734 0.931 . S
C1719 H1707 0.929 . S
C1719 C1713 1.390 . S
C1719 C1716 1.386 . S
C1720 C1715 1.490 . S
C1720 C1722 1.395 . S
C1720 C1723 1.403 . S
H1721 C1727 0.930 . S
C1722 H1708 0.930 . S
C1722 C1720 1.395 . S
C1722 C1725 1.403 . S
C1723 C1720 1.403 . S
C1723 C1724 1.524 . S
C1723 C1727 1.400 . S
C1724 H1709 0.960 . S
C1724 H1710 0.960 . S
C1724 H1711 0.960 . S
C1724 C1723 1.524 . S
C1725 C1722 1.403 . S
C1725 C1726 1.392 . S
C1725 C1729 1.495 . S
C1726 C1725 1.392 . S
C1726 C1727 1.385 . S
C1726 C1728 1.478 . S
C1727 H1721 0.930 . S
C1727 C1723 1.400 . S
C1727 C1726 1.385 . S
C1728 C1726 1.478 . S
C1728 C1730 1.381 . S
C1728 C1734 1.383 . S
C1729 C1725 1.495 . S
C1729 H1735 0.959 . S
C1729 H1736 0.961 . S
C1729 H1737 0.960 . S
C1730 C1728 1.381 . S
C1730 C1731 1.394 . S
C1730 H1738 0.930 . S
C1731 C1730 1.394 . S
C1731 C1732 1.383 . S
C1731 H1739 0.929 . S
C1732 C1731 1.383 . S
C1732 C1733 1.377 . S
C1733 H1717 0.930 . S
C1733 C1732 1.377 . S
C1733 C1734 1.379 . S
C1734 H1718 0.931 . S
C1734 C1728 1.383 . S
C1734 C1733 1.379 . S
H1735 C1729 0.959 . S
H1736 C1729 0.961 . S
H1737 C1729 0.960 . S
H1738 C1730 0.930 . S
H1739 C1731 0.929 . S
H1740 C1748 0.929 . S
H1741 C1750 0.930 . S
H1742 C1752 0.930 . S
H1743 C1755 0.929 . S
H1744 C1758 0.930 . S
H1745 C1760 0.960 . S
H1746 C1760 0.960 . S
H1747 C1760 0.960 . S
C1748 H1740 0.929 . S
C1748 C1749 1.377 . S
C1748 C1750 1.384 . S
C1749 C1748 1.377 . S
C1749 C1755 1.390 . S
C1750 H1741 0.930 . S
C1750 C1748 1.384 . S
C1750 C1751 1.372 . S
C1751 C1750 1.372 . S
C1751 C1752 1.400 . S
C1751 C1756 1.490 . S
C1752 H1742 0.930 . S
C1752 C1751 1.400 . S
C1752 C1755 1.386 . S
H1753 C1769 0.930 . S
H1754 C1770 0.931 . S
C1755 H1743 0.929 . S
C1755 C1749 1.390 . S
C1755 C1752 1.386 . S
C1756 C1751 1.490 . S
C1756 C1758 1.395 . S
C1756 C1759 1.403 . S
H1757 C1763 0.930 . S
C1758 H1744 0.930 . S
C1758 C1756 1.395 . S
C1758 C1761 1.403 . S
C1759 C1756 1.403 . S
C1759 C1760 1.524 . S
C1759 C1763 1.400 . S
C1760 H1745 0.960 . S
C1760 H1746 0.960 . S
C1760 H1747 0.960 . S
C1760 C1759 1.524 . S
C1761 C1758 1.403 . S
C1761 C1762 1.392 . S
C1761 C1765 1.495 . S
C1762 C1761 1.392 . S
C1762 C1763 1.385 . S
C1762 C1764 1.478 . S
C1763 H1757 0.930 . S
C1763 C1759 1.400 . S
C1763 C1762 1.385 . S
C1764 C1762 1.478 . S
C1764 C1766 1.381 . S
C1764 C1770 1.383 . S
C1765 C1761 1.495 . S
C1765 H1771 0.959 . S
C1765 H1772 0.961 . S
C1765 H1773 0.960 . S
C1766 C1764 1.381 . S
C1766 C1767 1.394 . S
C1766 H1774 0.930 . S
C1767 C1766 1.394 . S
C1767 C1768 1.383 . S
C1767 H1775 0.929 . S
C1768 C1767 1.383 . S
C1768 C1769 1.377 . S
C1769 H1753 0.930 . S
C1769 C1768 1.377 . S
C1769 C1770 1.379 . S
C1770 H1754 0.931 . S
C1770 C1764 1.383 . S
C1770 C1769 1.379 . S
H1771 C1765 0.959 . S
H1772 C1765 0.961 . S
H1773 C1765 0.960 . S
H1774 C1766 0.930 . S
H1775 C1767 0.929 . S
H1776 C1784 0.929 . S
H1777 C1786 0.930 . S
H1778 C1788 0.930 . S
H1779 C1791 0.929 . S
H1780 C1794 0.930 . S
H1781 C1796 0.960 . S
H1782 C1796 0.960 . S
H1783 C1796 0.960 . S
C1784 H1776 0.929 . S
C1784 C1785 1.377 . S
C1784 C1786 1.384 . S
C1785 C1784 1.377 . S
C1785 C1791 1.390 . S
C1786 H1777 0.930 . S
C1786 C1784 1.384 . S
C1786 C1787 1.372 . S
C1787 C1786 1.372 . S
C1787 C1788 1.400 . S
C1787 C1792 1.490 . S
C1788 H1778 0.930 . S
C1788 C1787 1.400 . S
C1788 C1791 1.386 . S
H1789 C1805 0.930 . S
H1790 C1806 0.931 . S
C1791 H1779 0.929 . S
C1791 C1785 1.390 . S
C1791 C1788 1.386 . S
C1792 C1787 1.490 . S
C1792 C1794 1.395 . S
C1792 C1795 1.403 . S
H1793 C1799 0.930 . S
C1794 H1780 0.930 . S
C1794 C1792 1.395 . S
C1794 C1797 1.403 . S
C1795 C1792 1.403 . S
C1795 C1796 1.524 . S
C1795 C1799 1.400 . S
C1796 H1781 0.960 . S
C1796 H1782 0.960 . S
C1796 H1783 0.960 . S
C1796 C1795 1.524 . S
C1797 C1794 1.403 . S
C1797 C1798 1.392 . S
C1797 C1801 1.495 . S
C1798 C1797 1.392 . S
C1798 C1799 1.385 . S
C1798 C1800 1.478 . S
C1799 H1793 0.930 . S
C1799 C1795 1.400 . S
C1799 C1798 1.385 . S
C1800 C1798 1.478 . S
C1800 C1802 1.381 . S
C1800 C1806 1.383 . S
C1801 C1797 1.495 . S
C1801 H1807 0.959 . S
C1801 H1808 0.961 . S
C1801 H1809 0.960 . S
C1802 C1800 1.381 . S
C1802 C1803 1.394 . S
C1802 H1810 0.930 . S
C1803 C1802 1.394 . S
C1803 C1804 1.383 . S
C1803 H1811 0.929 . S
C1804 C1803 1.383 . S
C1804 C1805 1.377 . S
C1805 H1789 0.930 . S
C1805 C1804 1.377 . S
C1805 C1806 1.379 . S
C1806 H1790 0.931 . S
C1806 C1800 1.383 . S
C1806 C1805 1.379 . S
H1807 C1801 0.959 . S
H1808 C1801 0.961 . S
H1809 C1801 0.960 . S
H1810 C1802 0.930 . S
H1811 C1803 0.929 . S
H1812 C1820 0.929 . S
H1813 C1822 0.930 . S
H1814 C1824 0.930 . S
H1815 C1827 0.929 . S
H1816 C1830 0.930 . S
H1817 C1832 0.960 . S
H1818 C1832 0.960 . S
H1819 C1832 0.960 . S
C1820 H1812 0.929 . S
C1820 C1821 1.377 . S
C1820 C1822 1.384 . S
C1821 C1820 1.377 . S
C1821 C1827 1.390 . S
C1822 H1813 0.930 . S
C1822 C1820 1.384 . S
C1822 C1823 1.372 . S
C1823 C1822 1.372 . S
C1823 C1824 1.400 . S
C1823 C1828 1.490 . S
C1824 H1814 0.930 . S
C1824 C1823 1.400 . S
C1824 C1827 1.386 . S
H1825 C1841 0.930 . S
H1826 C1842 0.931 . S
C1827 H1815 0.929 . S
C1827 C1821 1.390 . S
C1827 C1824 1.386 . S
C1828 C1823 1.490 . S
C1828 C1830 1.395 . S
C1828 C1831 1.403 . S
H1829 C1835 0.930 . S
C1830 H1816 0.930 . S
C1830 C1828 1.395 . S
C1830 C1833 1.403 . S
C1831 C1828 1.403 . S
C1831 C1832 1.524 . S
C1831 C1835 1.400 . S
C1832 H1817 0.960 . S
C1832 H1818 0.960 . S
C1832 H1819 0.960 . S
C1832 C1831 1.524 . S
C1833 C1830 1.403 . S
C1833 C1834 1.392 . S
C1833 C1837 1.495 . S
C1834 C1833 1.392 . S
C1834 C1835 1.385 . S
C1834 C1836 1.478 . S
C1835 H1829 0.930 . S
C1835 C1831 1.400 . S
C1835 C1834 1.385 . S
C1836 C1834 1.478 . S
C1836 C1838 1.381 . S
C1836 C1842 1.383 . S
C1837 C1833 1.495 . S
C1837 H1843 0.959 . S
C1837 H1844 0.961 . S
C1837 H1845 0.960 . S
C1838 C1836 1.381 . S
C1838 C1839 1.394 . S
C1838 H1846 0.930 . S
C1839 C1838 1.394 . S
C1839 C1840 1.383 . S
C1839 H1847 0.905 1_565 S
C1840 C1839 1.383 . S
C1840 C1841 1.377 . S
C1841 H1825 0.930 . S
C1841 C1840 1.377 . S
C1841 C1842 1.379 . S
C1842 H1826 0.931 . S
C1842 C1836 1.383 . S
C1842 C1841 1.379 . S
H1843 C1837 0.959 . S
H1844 C1837 0.961 . S
H1845 C1837 0.960 . S
H1846 C1838 0.930 . S
H1847 C1839 0.905 1_545 S
H1848 C1856 0.929 . S
H1849 C1858 0.930 . S
H1850 C1860 0.930 . S
H1851 C1863 0.929 . S
H1852 C1866 0.930 . S
H1853 C1868 0.960 . S
H1854 C1868 0.960 . S
H1855 C1868 0.960 . S
C1856 H1848 0.929 . S
C1856 C1857 1.377 . S
C1856 C1858 1.384 . S
C1857 C1856 1.377 . S
C1857 C1863 1.390 . S
C1858 H1849 0.930 . S
C1858 C1856 1.384 . S
C1858 C1859 1.372 . S
C1859 C1858 1.372 . S
C1859 C1860 1.400 . S
C1859 C1864 1.490 . S
C1860 H1850 0.930 . S
C1860 C1859 1.400 . S
C1860 C1863 1.386 . S
H1861 C1877 0.930 . S
H1862 C1878 0.931 . S
C1863 H1851 0.929 . S
C1863 C1857 1.390 . S
C1863 C1860 1.386 . S
C1864 C1859 1.490 . S
C1864 C1866 1.395 . S
C1864 C1867 1.403 . S
H1865 C1871 0.930 . S
C1866 H1852 0.930 . S
C1866 C1864 1.395 . S
C1866 C1869 1.403 . S
C1867 C1864 1.403 . S
C1867 C1868 1.524 . S
C1867 C1871 1.400 . S
C1868 H1853 0.960 . S
C1868 H1854 0.960 . S
C1868 H1855 0.960 . S
C1868 C1867 1.524 . S
C1869 C1866 1.403 . S
C1869 C1870 1.392 . S
C1869 C1873 1.495 . S
C1870 C1869 1.392 . S
C1870 C1871 1.385 . S
C1870 C1872 1.478 . S
C1871 H1865 0.930 . S
C1871 C1867 1.400 . S
C1871 C1870 1.385 . S
C1872 C1870 1.478 . S
C1872 C1874 1.381 . S
C1872 C1878 1.383 . S
C1873 C1869 1.495 . S
C1873 H1879 0.959 . S
C1873 H1880 0.961 . S
C1873 H1881 0.960 . S
C1874 C1872 1.381 . S
C1874 C1875 1.394 . S
C1874 H1882 0.930 . S
C1875 C1874 1.394 . S
C1875 C1876 1.383 . S
C1875 H1883 0.929 . S
C1876 C1875 1.383 . S
C1876 C1877 1.377 . S
C1877 H1861 0.930 . S
C1877 C1876 1.377 . S
C1877 C1878 1.379 . S
C1878 H1862 0.931 . S
C1878 C1872 1.383 . S
C1878 C1877 1.379 . S
H1879 C1873 0.959 . S
H1880 C1873 0.961 . S
H1881 C1873 0.960 . S
H1882 C1874 0.930 . S
H1883 C1875 0.929 . S
H1884 C1892 0.929 1_455 S
H1885 C1894 0.930 . S
H1886 C1896 0.930 . S
H1887 C1899 0.929 . S
H1888 C1902 0.930 . S
H1889 C1904 0.960 . S
H1890 C1904 0.960 . S
H1891 C1904 0.960 . S
C1892 H1884 0.929 1_655 S
C1892 C1893 1.377 . S
C1892 C1894 1.384 . S
C1893 C1892 1.377 . S
C1893 C1899 1.390 . S
C1894 H1885 0.930 . S
C1894 C1892 1.384 . S
C1894 C1895 1.372 . S
C1895 C1894 1.372 . S
C1895 C1896 1.400 . S
C1895 C1900 1.490 . S
C1896 H1886 0.930 . S
C1896 C1895 1.400 . S
C1896 C1899 1.386 . S
H1897 C1913 0.930 . S
H1898 C1914 0.931 . S
C1899 H1887 0.929 . S
C1899 C1893 1.390 . S
C1899 C1896 1.386 . S
C1900 C1895 1.490 . S
C1900 C1902 1.395 . S
C1900 C1903 1.403 . S
H1901 C1907 0.930 . S
C1902 H1888 0.930 . S
C1902 C1900 1.395 . S
C1902 C1905 1.403 . S
C1903 C1900 1.403 . S
C1903 C1904 1.524 . S
C1903 C1907 1.400 . S
C1904 H1889 0.960 . S
C1904 H1890 0.960 . S
C1904 H1891 0.960 . S
C1904 C1903 1.524 . S
C1905 C1902 1.403 . S
C1905 C1906 1.392 . S
C1905 C1909 1.495 . S
C1906 C1905 1.392 . S
C1906 C1907 1.385 . S
C1906 C1908 1.478 . S
C1907 H1901 0.930 . S
C1907 C1903 1.400 . S
C1907 C1906 1.385 . S
C1908 C1906 1.478 . S
C1908 C1910 1.381 . S
C1908 C1914 1.383 . S
C1909 C1905 1.495 . S
C1909 H1915 0.959 . S
C1909 H1916 0.961 . S
C1909 H1917 0.960 . S
C1910 C1908 1.381 . S
C1910 C1911 1.394 . S
C1910 H1918 0.930 . S
C1911 C1910 1.394 . S
C1911 C1912 1.383 . S
C1911 H1919 0.929 . S
C1912 C1911 1.383 . S
C1912 C1913 1.377 . S
C1913 H1897 0.930 . S
C1913 C1912 1.377 . S
C1913 C1914 1.379 . S
C1914 H1898 0.931 . S
C1914 C1908 1.383 . S
C1914 C1913 1.379 . S
H1915 C1909 0.959 . S
H1916 C1909 0.961 . S
H1917 C1909 0.960 . S
H1918 C1910 0.930 . S
H1919 C1911 0.929 . S
H1920 C1928 0.929 . S
H1921 C1930 0.930 . S
H1922 C1932 0.930 . S
H1923 C1935 0.929 . S
H1924 C1938 0.930 . S
H1925 C1940 0.960 . S
H1926 C1940 0.960 . S
H1927 C1940 0.960 . S
C1928 H1920 0.929 . S
C1928 C1929 1.377 . S
C1928 C1930 1.384 . S
C1929 C1928 1.377 . S
C1929 C1935 1.390 . S
C1930 H1921 0.930 . S
C1930 C1928 1.384 . S
C1930 C1931 1.372 . S
C1931 C1930 1.372 . S
C1931 C1932 1.400 . S
C1931 C1936 1.490 . S
C1932 H1922 0.930 . S
C1932 C1931 1.400 . S
C1932 C1935 1.386 . S
H1933 C1949 0.930 . S
H1934 C1950 0.931 . S
C1935 H1923 0.929 . S
C1935 C1929 1.390 . S
C1935 C1932 1.386 . S
C1936 C1931 1.490 . S
C1936 C1938 1.395 . S
C1936 C1939 1.403 . S
H1937 C1943 0.930 . S
C1938 H1924 0.930 . S
C1938 C1936 1.395 . S
C1938 C1941 1.403 . S
C1939 C1936 1.403 . S
C1939 C1940 1.524 . S
C1939 C1943 1.400 . S
C1940 H1925 0.960 . S
C1940 H1926 0.960 . S
C1940 H1927 0.960 . S
C1940 C1939 1.524 . S
C1941 C1938 1.403 . S
C1941 C1942 1.392 . S
C1941 C1945 1.495 . S
C1942 C1941 1.392 . S
C1942 C1943 1.385 . S
C1942 C1944 1.478 . S
C1943 H1937 0.930 . S
C1943 C1939 1.400 . S
C1943 C1942 1.385 . S
C1944 C1942 1.478 . S
C1944 C1946 1.381 . S
C1944 C1950 1.383 . S
C1945 C1941 1.495 . S
C1945 H1951 0.959 . S
C1945 H1952 0.961 . S
C1945 H1953 0.960 . S
C1946 C1944 1.381 . S
C1946 C1947 1.394 . S
C1946 H1954 0.930 . S
C1947 C1946 1.394 . S
C1947 C1948 1.383 . S
C1947 H1955 0.929 . S
C1948 C1947 1.383 . S
C1948 C1949 1.377 . S
C1949 H1933 0.930 . S
C1949 C1948 1.377 . S
C1949 C1950 1.379 . S
C1950 H1934 0.931 . S
C1950 C1944 1.383 . S
C1950 C1949 1.379 . S
H1951 C1945 0.959 . S
H1952 C1945 0.961 . S
H1953 C1945 0.960 . S
H1954 C1946 0.930 . S
H1955 C1947 0.929 . S
H1956 C1964 0.929 . S
H1957 C1966 0.930 . S
H1958 C1968 0.930 . S
H1959 C1971 0.929 . S
H1960 C1974 0.930 . S
H1961 C1976 0.960 . S
H1962 C1976 0.960 . S
H1963 C1976 0.960 . S
C1964 H1956 0.929 . S
C1964 C1965 1.377 . S
C1964 C1966 1.384 . S
C1965 C1964 1.377 . S
C1965 C1971 1.390 . S
C1966 H1957 0.930 . S
C1966 C1964 1.384 . S
C1966 C1967 1.372 . S
C1967 C1966 1.372 . S
C1967 C1968 1.400 . S
C1967 C1972 1.490 . S
C1968 H1958 0.930 . S
C1968 C1967 1.400 . S
C1968 C1971 1.386 . S
H1969 C1985 0.930 . S
H1970 C1986 0.931 . S
C1971 H1959 0.929 . S
C1971 C1965 1.390 . S
C1971 C1968 1.386 . S
C1972 C1967 1.490 . S
C1972 C1974 1.395 . S
C1972 C1975 1.403 . S
H1973 C1979 0.930 . S
C1974 H1960 0.930 . S
C1974 C1972 1.395 . S
C1974 C1977 1.403 . S
C1975 C1972 1.403 . S
C1975 C1976 1.524 . S
C1975 C1979 1.400 . S
C1976 H1961 0.960 . S
C1976 H1962 0.960 . S
C1976 H1963 0.960 . S
C1976 C1975 1.524 . S
C1977 C1974 1.403 . S
C1977 C1978 1.392 . S
C1977 C1981 1.495 . S
C1978 C1977 1.392 . S
C1978 C1979 1.385 . S
C1978 C1980 1.478 . S
C1979 H1973 0.930 . S
C1979 C1975 1.400 . S
C1979 C1978 1.385 . S
C1980 C1978 1.478 . S
C1980 C1982 1.381 . S
C1980 C1986 1.383 . S
C1981 C1977 1.495 . S
C1981 H1987 0.959 . S
C1981 H1988 0.961 . S
C1981 H1989 0.960 . S
C1982 C1980 1.381 . S
C1982 C1983 1.394 . S
C1982 H1990 0.930 . S
C1983 C1982 1.394 . S
C1983 C1984 1.383 . S
C1983 H1991 0.929 . S
C1984 C1983 1.383 . S
C1984 C1985 1.377 . S
C1985 H1969 0.930 . S
C1985 C1984 1.377 . S
C1985 C1986 1.379 . S
C1986 H1970 0.931 . S
C1986 C1980 1.383 . S
C1986 C1985 1.379 . S
H1987 C1981 0.959 . S
H1988 C1981 0.961 . S
H1989 C1981 0.960 . S
H1990 C1982 0.930 . S
H1991 C1983 0.929 . S
H1992 C2000 0.929 . S
H1993 C2002 0.930 . S
H1994 C2004 0.930 . S
H1995 C2007 0.929 . S
H1996 C2010 0.930 . S
H1997 C2012 0.960 . S
H1998 C2012 0.960 . S
H1999 C2012 0.960 . S
C2000 H1992 0.929 . S
C2000 C2001 1.377 . S
C2000 C2002 1.384 . S
C2001 C2000 1.377 . S
C2001 C2007 1.390 . S
C2002 H1993 0.930 . S
C2002 C2000 1.384 . S
C2002 C2003 1.372 . S
C2003 C2002 1.372 . S
C2003 C2004 1.400 . S
C2003 C2008 1.490 . S
C2004 H1994 0.930 . S
C2004 C2003 1.400 . S
C2004 C2007 1.386 . S
H2005 C2021 0.930 . S
H2006 C2022 0.931 . S
C2007 H1995 0.929 . S
C2007 C2001 1.390 . S
C2007 C2004 1.386 . S
C2008 C2003 1.490 . S
C2008 C2010 1.395 . S
C2008 C2011 1.403 . S
H2009 C2015 0.930 . S
C2010 H1996 0.930 . S
C2010 C2008 1.395 . S
C2010 C2013 1.403 . S
C2011 C2008 1.403 . S
C2011 C2012 1.524 . S
C2011 C2015 1.400 . S
C2012 H1997 0.960 . S
C2012 H1998 0.960 . S
C2012 H1999 0.960 . S
C2012 C2011 1.524 . S
C2013 C2010 1.403 . S
C2013 C2014 1.392 . S
C2013 C2017 1.495 . S
C2014 C2013 1.392 . S
C2014 C2015 1.385 . S
C2014 C2016 1.478 . S
C2015 H2009 0.930 . S
C2015 C2011 1.400 . S
C2015 C2014 1.385 . S
C2016 C2014 1.478 . S
C2016 C2018 1.381 . S
C2016 C2022 1.383 . S
C2017 C2013 1.495 . S
C2017 H2023 0.959 . S
C2017 H2024 0.961 . S
C2017 H2025 0.960 . S
C2018 C2016 1.381 . S
C2018 C2019 1.394 . S
C2018 H2026 0.930 . S
C2019 C2018 1.394 . S
C2019 C2020 1.383 . S
C2019 H2027 0.929 . S
C2020 C2019 1.383 . S
C2020 C2021 1.377 . S
C2021 H2005 0.930 . S
C2021 C2020 1.377 . S
C2021 C2022 1.379 . S
C2022 H2006 0.931 . S
C2022 C2016 1.383 . S
C2022 C2021 1.379 . S
H2023 C2017 0.959 . S
H2024 C2017 0.961 . S
H2025 C2017 0.960 . S
H2026 C2018 0.930 . S
H2027 C2019 0.929 . S
H2028 C2036 0.929 . S
H2029 C2038 0.930 . S
H2030 C2040 0.930 . S
H2031 C2043 0.929 . S
H2032 C2046 0.930 . S
H2033 C2048 0.960 . S
H2034 C2048 0.960 . S
H2035 C2048 0.960 . S
C2036 H2028 0.929 . S
C2036 C2037 1.377 . S
C2036 C2038 1.384 . S
C2037 C2036 1.377 . S
C2037 C2043 1.390 . S
C2038 H2029 0.930 . S
C2038 C2036 1.384 . S
C2038 C2039 1.372 . S
C2039 C2038 1.372 . S
C2039 C2040 1.400 . S
C2039 C2044 1.490 . S
C2040 H2030 0.930 . S
C2040 C2039 1.400 . S
C2040 C2043 1.386 . S
H2041 C2057 0.930 . S
H2042 C2058 0.931 . S
C2043 H2031 0.929 . S
C2043 C2037 1.390 . S
C2043 C2040 1.386 . S
C2044 C2039 1.490 . S
C2044 C2046 1.395 . S
C2044 C2047 1.403 . S
H2045 C2051 0.930 . S
C2046 H2032 0.930 . S
C2046 C2044 1.395 . S
C2046 C2049 1.403 . S
C2047 C2044 1.403 . S
C2047 C2048 1.524 . S
C2047 C2051 1.400 . S
C2048 H2033 0.960 . S
C2048 H2034 0.960 . S
C2048 H2035 0.960 . S
C2048 C2047 1.524 . S
C2049 C2046 1.403 . S
C2049 C2050 1.392 . S
C2049 C2053 1.495 . S
C2050 C2049 1.392 . S
C2050 C2051 1.385 . S
C2050 C2052 1.478 . S
C2051 H2045 0.930 . S
C2051 C2047 1.400 . S
C2051 C2050 1.385 . S
C2052 C2050 1.478 . S
C2052 C2054 1.381 . S
C2052 C2058 1.383 . S
C2053 C2049 1.495 . S
C2053 H2059 0.959 . S
C2053 H2060 0.961 . S
C2053 H2061 0.960 . S
C2054 C2052 1.381 . S
C2054 C2055 1.394 . S
C2054 H2062 0.930 . S
C2055 C2054 1.394 . S
C2055 C2056 1.383 . S
C2055 H2063 0.929 . S
C2056 C2055 1.383 . S
C2056 C2057 1.377 . S
C2057 H2041 0.930 . S
C2057 C2056 1.377 . S
C2057 C2058 1.379 . S
C2058 H2042 0.931 . S
C2058 C2052 1.383 . S
C2058 C2057 1.379 . S
H2059 C2053 0.959 . S
H2060 C2053 0.961 . S
H2061 C2053 0.960 . S
H2062 C2054 0.930 . S
H2063 C2055 0.929 . S
H2064 C2072 0.929 . S
H2065 C2074 0.930 . S
H2066 C2076 0.930 . S
H2067 C2079 0.929 . S
H2068 C2082 0.930 . S
H2069 C2084 0.960 . S
H2070 C2084 0.960 . S
H2071 C2084 0.960 . S
C2072 H2064 0.929 . S
C2072 C2073 1.377 . S
C2072 C2074 1.384 . S
C2073 C2072 1.377 . S
C2073 C2079 1.390 . S
C2074 H2065 0.930 . S
C2074 C2072 1.384 . S
C2074 C2075 1.372 . S
C2075 C2074 1.372 . S
C2075 C2076 1.400 . S
C2075 C2080 1.490 . S
C2076 H2066 0.930 . S
C2076 C2075 1.400 . S
C2076 C2079 1.386 . S
H2077 C2093 0.930 . S
H2078 C2094 0.931 . S
C2079 H2067 0.929 . S
C2079 C2073 1.390 . S
C2079 C2076 1.386 . S
C2080 C2075 1.490 . S
C2080 C2082 1.395 . S
C2080 C2083 1.403 . S
H2081 C2087 0.930 . S
C2082 H2068 0.930 . S
C2082 C2080 1.395 . S
C2082 C2085 1.403 . S
C2083 C2080 1.403 . S
C2083 C2084 1.524 . S
C2083 C2087 1.400 . S
C2084 H2069 0.960 . S
C2084 H2070 0.960 . S
C2084 H2071 0.960 . S
C2084 C2083 1.524 . S
C2085 C2082 1.403 . S
C2085 C2086 1.392 . S
C2085 C2089 1.495 . S
C2086 C2085 1.392 . S
C2086 C2087 1.385 . S
C2086 C2088 1.478 . S
C2087 H2081 0.930 . S
C2087 C2083 1.400 . S
C2087 C2086 1.385 . S
C2088 C2086 1.478 . S
C2088 C2090 1.381 . S
C2088 C2094 1.383 . S
C2089 C2085 1.495 . S
C2089 H2095 0.959 . S
C2089 H2096 0.961 . S
C2089 H2097 0.960 . S
C2090 C2088 1.381 . S
C2090 C2091 1.394 . S
C2090 H2098 0.930 . S
C2091 C2090 1.394 . S
C2091 C2092 1.383 . S
C2091 H2099 0.929 . S
C2092 C2091 1.383 . S
C2092 C2093 1.377 . S
C2093 H2077 0.930 . S
C2093 C2092 1.377 . S
C2093 C2094 1.379 . S
C2094 H2078 0.931 . S
C2094 C2088 1.383 . S
C2094 C2093 1.379 . S
H2095 C2089 0.959 . S
H2096 C2089 0.961 . S
H2097 C2089 0.960 . S
H2098 C2090 0.930 . S
H2099 C2091 0.929 . S
H2100 C2108 0.929 . S
H2101 C2110 0.930 . S
H2102 C2112 0.930 . S
H2103 C2115 0.929 . S
H2104 C2118 0.930 . S
H2105 C2120 0.960 . S
H2106 C2120 0.960 . S
H2107 C2120 0.960 . S
C2108 H2100 0.929 . S
C2108 C2109 1.377 . S
C2108 C2110 1.384 . S
C2109 C2108 1.377 . S
C2109 C2115 1.390 . S
C2110 H2101 0.930 . S
C2110 C2108 1.384 . S
C2110 C2111 1.372 . S
C2111 C2110 1.372 . S
C2111 C2112 1.400 . S
C2111 C2116 1.490 . S
C2112 H2102 0.930 . S
C2112 C2111 1.400 . S
C2112 C2115 1.386 . S
H2113 C2129 0.930 . S
H2114 C2130 0.931 . S
C2115 H2103 0.929 . S
C2115 C2109 1.390 . S
C2115 C2112 1.386 . S
C2116 C2111 1.490 . S
C2116 C2118 1.395 . S
C2116 C2119 1.403 . S
H2117 C2123 0.930 . S
C2118 H2104 0.930 . S
C2118 C2116 1.395 . S
C2118 C2121 1.403 . S
C2119 C2116 1.403 . S
C2119 C2120 1.524 . S
C2119 C2123 1.400 . S
C2120 H2105 0.960 . S
C2120 H2106 0.960 . S
C2120 H2107 0.960 . S
C2120 C2119 1.524 . S
C2121 C2118 1.403 . S
C2121 C2122 1.392 . S
C2121 C2125 1.495 . S
C2122 C2121 1.392 . S
C2122 C2123 1.385 . S
C2122 C2124 1.478 . S
C2123 H2117 0.930 . S
C2123 C2119 1.400 . S
C2123 C2122 1.385 . S
C2124 C2122 1.478 . S
C2124 C2126 1.381 . S
C2124 C2130 1.383 . S
C2125 C2121 1.495 . S
C2125 H2131 0.959 . S
C2125 H2132 0.961 . S
C2125 H2133 0.960 . S
C2126 C2124 1.381 . S
C2126 C2127 1.394 . S
C2126 H2134 0.930 . S
C2127 C2126 1.394 . S
C2127 C2128 1.383 . S
C2127 H2135 0.929 1_655 S
C2128 C2127 1.383 . S
C2128 C2129 1.377 . S
C2129 H2113 0.930 . S
C2129 C2128 1.377 . S
C2129 C2130 1.379 . S
C2130 H2114 0.931 . S
C2130 C2124 1.383 . S
C2130 C2129 1.379 . S
H2131 C2125 0.959 . S
H2132 C2125 0.961 . S
H2133 C2125 0.960 . S
H2134 C2126 0.930 . S
H2135 C2127 0.929 1_455 S
H2136 C2144 0.929 . S
H2137 C2146 0.930 . S
H2138 C2148 0.930 . S
H2139 C2151 0.929 . S
H2140 C2154 0.930 . S
H2141 C2156 0.960 . S
H2142 C2156 0.960 . S
H2143 C2156 0.960 . S
C2144 H2136 0.929 . S
C2144 C2145 1.377 . S
C2144 C2146 1.384 . S
C2145 C2144 1.377 . S
C2145 C2151 1.390 . S
C2146 H2137 0.930 . S
C2146 C2144 1.384 . S
C2146 C2147 1.372 . S
C2147 C2146 1.372 . S
C2147 C2148 1.400 . S
C2147 C2152 1.490 . S
C2148 H2138 0.930 . S
C2148 C2147 1.400 . S
C2148 C2151 1.386 . S
H2149 C2165 0.930 . S
H2150 C2166 0.931 . S
C2151 H2139 0.929 . S
C2151 C2145 1.390 . S
C2151 C2148 1.386 . S
C2152 C2147 1.490 . S
C2152 C2154 1.395 . S
C2152 C2155 1.403 . S
H2153 C2159 0.930 . S
C2154 H2140 0.930 . S
C2154 C2152 1.395 . S
C2154 C2157 1.403 . S
C2155 C2152 1.403 . S
C2155 C2156 1.524 . S
C2155 C2159 1.400 . S
C2156 H2141 0.960 . S
C2156 H2142 0.960 . S
C2156 H2143 0.960 . S
C2156 C2155 1.524 . S
C2157 C2154 1.403 . S
C2157 C2158 1.392 . S
C2157 C2161 1.495 . S
C2158 C2157 1.392 . S
C2158 C2159 1.385 . S
C2158 C2160 1.478 . S
C2159 H2153 0.930 . S
C2159 C2155 1.400 . S
C2159 C2158 1.385 . S
C2160 C2158 1.478 . S
C2160 C2162 1.381 . S
C2160 C2166 1.383 . S
C2161 C2157 1.495 . S
C2161 H2167 0.959 . S
C2161 H2168 0.961 . S
C2161 H2169 0.960 . S
C2162 C2160 1.381 . S
C2162 C2163 1.394 . S
C2162 H2170 0.930 . S
C2163 C2162 1.394 . S
C2163 C2164 1.383 . S
C2163 H2171 0.929 . S
C2164 C2163 1.383 . S
C2164 C2165 1.377 . S
C2165 H2149 0.930 . S
C2165 C2164 1.377 . S
C2165 C2166 1.379 . S
C2166 H2150 0.931 . S
C2166 C2160 1.383 . S
C2166 C2165 1.379 . S
H2167 C2161 0.959 . S
H2168 C2161 0.961 . S
H2169 C2161 0.960 . S
H2170 C2162 0.930 . S
H2171 C2163 0.929 . S
H2172 C2180 0.929 . S
H2173 C2182 0.930 . S
H2174 C2184 0.930 . S
H2175 C2187 0.929 . S
H2176 C2190 0.930 . S
H2177 C2192 0.960 . S
H2178 C2192 0.960 . S
H2179 C2192 0.960 . S
C2180 H2172 0.929 . S
C2180 C2181 1.377 . S
C2180 C2182 1.384 . S
C2181 C2180 1.377 . S
C2181 C2187 1.390 . S
C2182 H2173 0.930 . S
C2182 C2180 1.384 . S
C2182 C2183 1.372 . S
C2183 C2182 1.372 . S
C2183 C2184 1.400 . S
C2183 C2188 1.490 . S
C2184 H2174 0.930 . S
C2184 C2183 1.400 . S
C2184 C2187 1.386 . S
H2185 C2201 0.930 . S
H2186 C2202 0.931 . S
C2187 H2175 0.929 . S
C2187 C2181 1.390 . S
C2187 C2184 1.386 . S
C2188 C2183 1.490 . S
C2188 C2190 1.395 . S
C2188 C2191 1.403 . S
H2189 C2195 0.930 . S
C2190 H2176 0.930 . S
C2190 C2188 1.395 . S
C2190 C2193 1.403 . S
C2191 C2188 1.403 . S
C2191 C2192 1.524 . S
C2191 C2195 1.400 . S
C2192 H2177 0.960 . S
C2192 H2178 0.960 . S
C2192 H2179 0.960 . S
C2192 C2191 1.524 . S
C2193 C2190 1.403 . S
C2193 C2194 1.392 . S
C2193 C2197 1.495 . S
C2194 C2193 1.392 . S
C2194 C2195 1.385 . S
C2194 C2196 1.478 . S
C2195 H2189 0.930 . S
C2195 C2191 1.400 . S
C2195 C2194 1.385 . S
C2196 C2194 1.478 . S
C2196 C2198 1.381 . S
C2196 C2202 1.383 . S
C2197 C2193 1.495 . S
C2197 H2203 0.959 . S
C2197 H2204 0.961 . S
C2197 H2205 0.960 . S
C2198 C2196 1.381 . S
C2198 C2199 1.394 . S
C2198 H2206 0.930 . S
C2199 C2198 1.394 . S
C2199 C2200 1.383 . S
C2199 H2207 0.929 . S
C2200 C2199 1.383 . S
C2200 C2201 1.377 . S
C2201 H2185 0.930 . S
C2201 C2200 1.377 . S
C2201 C2202 1.379 . S
C2202 H2186 0.931 . S
C2202 C2196 1.383 . S
C2202 C2201 1.379 . S
H2203 C2197 0.959 . S
H2204 C2197 0.961 . S
H2205 C2197 0.960 . S
H2206 C2198 0.930 . S
H2207 C2199 0.929 . S
H2208 C2216 0.929 . S
H2209 C2218 0.930 . S
H2210 C2220 0.930 . S
H2211 C2223 0.929 . S
H2212 C2226 0.930 . S
H2213 C2228 0.960 . S
H2214 C2228 0.960 . S
H2215 C2228 0.960 . S
C2216 H2208 0.929 . S
C2216 C2217 1.377 . S
C2216 C2218 1.384 . S
C2217 C2216 1.377 . S
C2217 C2223 1.390 . S
C2218 H2209 0.930 . S
C2218 C2216 1.384 . S
C2218 C2219 1.372 . S
C2219 C2218 1.372 . S
C2219 C2220 1.400 . S
C2219 C2224 1.490 . S
C2220 H2210 0.930 . S
C2220 C2219 1.400 . S
C2220 C2223 1.386 . S
H2221 C2237 0.930 . S
H2222 C2238 0.931 . S
C2223 H2211 0.929 . S
C2223 C2217 1.390 . S
C2223 C2220 1.386 . S
C2224 C2219 1.490 . S
C2224 C2226 1.395 . S
C2224 C2227 1.403 . S
H2225 C2231 0.930 . S
C2226 H2212 0.930 . S
C2226 C2224 1.395 . S
C2226 C2229 1.403 . S
C2227 C2224 1.403 . S
C2227 C2228 1.524 . S
C2227 C2231 1.400 . S
C2228 H2213 0.960 . S
C2228 H2214 0.960 . S
C2228 H2215 0.960 . S
C2228 C2227 1.524 . S
C2229 C2226 1.403 . S
C2229 C2230 1.392 . S
C2229 C2233 1.495 . S
C2230 C2229 1.392 . S
C2230 C2231 1.385 . S
C2230 C2232 1.478 . S
C2231 H2225 0.930 . S
C2231 C2227 1.400 . S
C2231 C2230 1.385 . S
C2232 C2230 1.478 . S
C2232 C2234 1.381 . S
C2232 C2238 1.383 . S
C2233 C2229 1.495 . S
C2233 H2239 0.959 . S
C2233 H2240 0.961 . S
C2233 H2241 0.960 . S
C2234 C2232 1.381 . S
C2234 C2235 1.394 . S
C2234 H2242 0.930 . S
C2235 C2234 1.394 . S
C2235 C2236 1.383 . S
C2235 H2243 0.929 . S
C2236 C2235 1.383 . S
C2236 C2237 1.377 . S
C2237 H2221 0.930 . S
C2237 C2236 1.377 . S
C2237 C2238 1.379 . S
C2238 H2222 0.931 . S
C2238 C2232 1.383 . S
C2238 C2237 1.379 . S
H2239 C2233 0.959 . S
H2240 C2233 0.961 . S
H2241 C2233 0.960 . S
H2242 C2234 0.930 . S
H2243 C2235 0.929 . S
H2244 C2252 0.929 . S
H2245 C2254 0.930 . S
H2246 C2256 0.930 . S
H2247 C2259 0.929 . S
H2248 C2262 0.930 . S
H2249 C2264 0.960 . S
H2250 C2264 0.960 . S
H2251 C2264 0.960 . S
C2252 H2244 0.929 . S
C2252 C2253 1.377 . S
C2252 C2254 1.384 . S
C2253 C2252 1.377 . S
C2253 C2259 1.390 . S
C2254 H2245 0.930 . S
C2254 C2252 1.384 . S
C2254 C2255 1.372 . S
C2255 C2254 1.372 . S
C2255 C2256 1.400 . S
C2255 C2260 1.490 . S
C2256 H2246 0.930 . S
C2256 C2255 1.400 . S
C2256 C2259 1.386 . S
H2257 C2273 0.930 . S
H2258 C2274 0.931 . S
C2259 H2247 0.929 . S
C2259 C2253 1.390 . S
C2259 C2256 1.386 . S
C2260 C2255 1.490 . S
C2260 C2262 1.395 . S
C2260 C2263 1.403 . S
H2261 C2267 0.930 . S
C2262 H2248 0.930 . S
C2262 C2260 1.395 . S
C2262 C2265 1.403 . S
C2263 C2260 1.403 . S
C2263 C2264 1.524 . S
C2263 C2267 1.400 . S
C2264 H2249 0.960 . S
C2264 H2250 0.960 . S
C2264 H2251 0.960 . S
C2264 C2263 1.524 . S
C2265 C2262 1.403 . S
C2265 C2266 1.392 . S
C2265 C2269 1.495 . S
C2266 C2265 1.392 . S
C2266 C2267 1.385 . S
C2266 C2268 1.478 . S
C2267 H2261 0.930 . S
C2267 C2263 1.400 . S
C2267 C2266 1.385 . S
C2268 C2266 1.478 . S
C2268 C2270 1.381 . S
C2268 C2274 1.383 . S
C2269 C2265 1.495 . S
C2269 H2275 0.959 . S
C2269 H2276 0.961 . S
C2269 H2277 0.960 . S
C2270 C2268 1.381 . S
C2270 C2271 1.394 . S
C2270 H2278 0.930 . S
C2271 C2270 1.394 . S
C2271 C2272 1.383 . S
C2271 H2279 0.926 . S
C2272 C2271 1.383 . S
C2272 C2273 1.377 . S
C2273 H2257 0.930 . S
C2273 C2272 1.377 . S
C2273 C2274 1.379 . S
C2274 H2258 0.931 . S
C2274 C2268 1.383 . S
C2274 C2273 1.379 . S
H2275 C2269 0.959 . S
H2276 C2269 0.961 . S
H2277 C2269 0.960 . S
H2278 C2270 0.930 . S
H2279 C2271 0.926 . S
H2280 C2288 0.929 . S
H2281 C2290 0.930 . S
H2282 C2292 0.930 . S
H2283 C2295 0.924 1_545 S
H2284 C2298 0.930 . S
H2285 C2300 0.960 . S
H2286 C2300 0.960 . S
H2287 C2300 0.960 . S
C2288 H2280 0.929 . S
C2288 C2289 1.377 . S
C2288 C2290 1.384 . S
C2289 C2288 1.377 . S
C2289 C2295 1.390 . S
C2290 H2281 0.930 . S
C2290 C2288 1.384 . S
C2290 C2291 1.372 . S
C2291 C2290 1.372 . S
C2291 C2292 1.400 . S
C2291 C2296 1.490 . S
C2292 H2282 0.930 . S
C2292 C2291 1.400 . S
C2292 C2295 1.386 . S
H2293 C2309 0.930 . S
H2294 C2310 0.931 . S
C2295 H2283 0.924 1_565 S
C2295 C2289 1.390 . S
C2295 C2292 1.386 . S
C2296 C2291 1.490 . S
C2296 C2298 1.395 . S
C2296 C2299 1.403 . S
H2297 C2303 0.930 . S
C2298 H2284 0.930 . S
C2298 C2296 1.395 . S
C2298 C2301 1.403 . S
C2299 C2296 1.403 . S
C2299 C2300 1.524 . S
C2299 C2303 1.400 . S
C2300 H2285 0.960 . S
C2300 H2286 0.960 . S
C2300 H2287 0.960 . S
C2300 C2299 1.524 . S
C2301 C2298 1.403 . S
C2301 C2302 1.392 . S
C2301 C2305 1.495 . S
C2302 C2301 1.392 . S
C2302 C2303 1.385 . S
C2302 C2304 1.478 . S
C2303 H2297 0.930 . S
C2303 C2299 1.400 . S
C2303 C2302 1.385 . S
C2304 C2302 1.478 . S
C2304 C2306 1.381 . S
C2304 C2310 1.383 . S
C2305 C2301 1.495 . S
C2305 H2311 0.959 . S
C2305 H2312 0.961 . S
C2305 H2313 0.960 . S
C2306 C2304 1.381 . S
C2306 C2307 1.394 . S
C2306 H2314 0.930 . S
C2307 C2306 1.394 . S
C2307 C2308 1.383 . S
C2307 H2315 0.929 . S
C2308 C2307 1.383 . S
C2308 C2309 1.377 . S
C2309 H2293 0.930 . S
C2309 C2308 1.377 . S
C2309 C2310 1.379 . S
C2310 H2294 0.931 . S
C2310 C2304 1.383 . S
C2310 C2309 1.379 . S
H2311 C2305 0.959 . S
H2312 C2305 0.961 . S
H2313 C2305 0.960 . S
H2314 C2306 0.930 . S
H2315 C2307 0.929 . S
H2316 C2324 0.929 . S
H2317 C2326 0.930 . S
H2318 C2328 0.930 . S
H2319 C2331 0.929 . S
H2320 C2334 0.930 . S
H2321 C2336 0.960 . S
H2322 C2336 0.960 . S
H2323 C2336 0.960 . S
C2324 H2316 0.929 . S
C2324 C2325 1.377 . S
C2324 C2326 1.384 . S
C2325 C2324 1.377 . S
C2325 C2331 1.390 . S
C2326 H2317 0.930 . S
C2326 C2324 1.384 . S
C2326 C2327 1.372 . S
C2327 C2326 1.372 . S
C2327 C2328 1.400 . S
C2327 C2332 1.490 . S
C2328 H2318 0.930 . S
C2328 C2327 1.400 . S
C2328 C2331 1.386 . S
H2329 C2345 0.930 . S
H2330 C2346 0.931 . S
C2331 H2319 0.929 . S
C2331 C2325 1.390 . S
C2331 C2328 1.386 . S
C2332 C2327 1.490 . S
C2332 C2334 1.395 . S
C2332 C2335 1.403 . S
H2333 C2339 0.930 . S
C2334 H2320 0.930 . S
C2334 C2332 1.395 . S
C2334 C2337 1.403 . S
C2335 C2332 1.403 . S
C2335 C2336 1.524 . S
C2335 C2339 1.400 . S
C2336 H2321 0.960 . S
C2336 H2322 0.960 . S
C2336 H2323 0.960 . S
C2336 C2335 1.524 . S
C2337 C2334 1.403 . S
C2337 C2338 1.392 . S
C2337 C2341 1.495 . S
C2338 C2337 1.392 . S
C2338 C2339 1.385 . S
C2338 C2340 1.478 . S
C2339 H2333 0.930 . S
C2339 C2335 1.400 . S
C2339 C2338 1.385 . S
C2340 C2338 1.478 . S
C2340 C2342 1.381 . S
C2340 C2346 1.383 . S
C2341 C2337 1.495 . S
C2341 H2347 0.959 . S
C2341 H2348 0.961 . S
C2341 H2349 0.960 . S
C2342 C2340 1.381 . S
C2342 C2343 1.394 . S
C2342 H2350 0.930 . S
C2343 C2342 1.394 . S
C2343 C2344 1.383 . S
C2343 H2351 0.929 . S
C2344 C2343 1.383 . S
C2344 C2345 1.377 . S
C2345 H2329 0.930 . S
C2345 C2344 1.377 . S
C2345 C2346 1.379 . S
C2346 H2330 0.931 . S
C2346 C2340 1.383 . S
C2346 C2345 1.379 . S
H2347 C2341 0.959 . S
H2348 C2341 0.961 . S
H2349 C2341 0.960 . S
H2350 C2342 0.930 . S
H2351 C2343 0.929 . S
H2352 C2360 0.929 . S
H2353 C2362 0.930 . S
H2354 C2364 0.930 . S
H2355 C2367 0.929 . S
H2356 C2370 0.930 . S
H2357 C2372 0.960 . S
H2358 C2372 0.960 . S
H2359 C2372 0.960 . S
C2360 H2352 0.929 . S
C2360 C2361 1.377 . S
C2360 C2362 1.384 . S
C2361 C2360 1.377 . S
C2361 C2367 1.390 . S
C2362 H2353 0.930 . S
C2362 C2360 1.384 . S
C2362 C2363 1.372 . S
C2363 C2362 1.372 . S
C2363 C2364 1.400 . S
C2363 C2368 1.490 . S
C2364 H2354 0.930 . S
C2364 C2363 1.400 . S
C2364 C2367 1.386 . S
H2365 C2381 0.930 . S
H2366 C2382 0.931 . S
C2367 H2355 0.929 . S
C2367 C2361 1.390 . S
C2367 C2364 1.386 . S
C2368 C2363 1.490 . S
C2368 C2370 1.395 . S
C2368 C2371 1.403 . S
H2369 C2375 0.930 . S
C2370 H2356 0.930 . S
C2370 C2368 1.395 . S
C2370 C2373 1.403 . S
C2371 C2368 1.403 . S
C2371 C2372 1.524 . S
C2371 C2375 1.400 . S
C2372 H2357 0.960 . S
C2372 H2358 0.960 . S
C2372 H2359 0.960 . S
C2372 C2371 1.524 . S
C2373 C2370 1.403 . S
C2373 C2374 1.392 . S
C2373 C2377 1.495 . S
C2374 C2373 1.392 . S
C2374 C2375 1.385 . S
C2374 C2376 1.478 . S
C2375 H2369 0.930 . S
C2375 C2371 1.400 . S
C2375 C2374 1.385 . S
C2376 C2374 1.478 . S
C2376 C2378 1.381 . S
C2376 C2382 1.383 . S
C2377 C2373 1.495 . S
C2377 H2383 0.959 . S
C2377 H2384 0.961 . S
C2377 H2385 0.960 . S
C2378 C2376 1.381 . S
C2378 C2379 1.394 . S
C2378 H2386 0.930 . S
C2379 C2378 1.394 . S
C2379 C2380 1.383 . S
C2379 H2387 0.929 . S
C2380 C2379 1.383 . S
C2380 C2381 1.377 . S
C2381 H2365 0.930 . S
C2381 C2380 1.377 . S
C2381 C2382 1.379 . S
C2382 H2366 0.931 . S
C2382 C2376 1.383 . S
C2382 C2381 1.379 . S
H2383 C2377 0.959 . S
H2384 C2377 0.961 . S
H2385 C2377 0.960 . S
H2386 C2378 0.930 . S
H2387 C2379 0.929 . S
H2388 C2396 0.929 . S
H2389 C2398 0.930 . S
H2390 C2400 0.930 . S
H2391 C2403 0.929 . S
H2392 C2406 0.930 . S
H2393 C2408 0.960 . S
H2394 C2408 0.960 . S
H2395 C2408 0.960 . S
C2396 H2388 0.929 . S
C2396 C2397 1.377 . S
C2396 C2398 1.384 . S
C2397 C2396 1.377 . S
C2397 C2403 1.390 . S
C2398 H2389 0.930 . S
C2398 C2396 1.384 . S
C2398 C2399 1.372 . S
C2399 C2398 1.372 . S
C2399 C2400 1.400 . S
C2399 C2404 1.490 . S
C2400 H2390 0.930 . S
C2400 C2399 1.400 . S
C2400 C2403 1.386 . S
H2401 C2417 0.930 . S
H2402 C2418 0.931 . S
C2403 H2391 0.929 . S
C2403 C2397 1.390 . S
C2403 C2400 1.386 . S
C2404 C2399 1.490 . S
C2404 C2406 1.395 . S
C2404 C2407 1.403 . S
H2405 C2411 0.930 . S
C2406 H2392 0.930 . S
C2406 C2404 1.395 . S
C2406 C2409 1.403 . S
C2407 C2404 1.403 . S
C2407 C2408 1.524 . S
C2407 C2411 1.400 . S
C2408 H2393 0.960 . S
C2408 H2394 0.960 . S
C2408 H2395 0.960 . S
C2408 C2407 1.524 . S
C2409 C2406 1.403 . S
C2409 C2410 1.392 . S
C2409 C2413 1.495 . S
C2410 C2409 1.392 . S
C2410 C2411 1.385 . S
C2410 C2412 1.478 . S
C2411 H2405 0.930 . S
C2411 C2407 1.400 . S
C2411 C2410 1.385 . S
C2412 C2410 1.478 . S
C2412 C2414 1.381 . S
C2412 C2418 1.383 . S
C2413 C2409 1.495 . S
C2413 H2419 0.959 . S
C2413 H2420 0.961 . S
C2413 H2421 0.960 . S
C2414 C2412 1.381 . S
C2414 C2415 1.394 . S
C2414 H2422 0.930 . S
C2415 C2414 1.394 . S
C2415 C2416 1.383 . S
C2415 H2423 0.929 1_556 S
C2416 C2415 1.383 . S
C2416 C2417 1.377 . S
C2417 H2401 0.930 . S
C2417 C2416 1.377 . S
C2417 C2418 1.379 . S
C2418 H2402 0.931 . S
C2418 C2412 1.383 . S
C2418 C2417 1.379 . S
H2419 C2413 0.959 . S
H2420 C2413 0.961 . S
H2421 C2413 0.960 . S
H2422 C2414 0.930 . S
H2423 C2415 0.929 1_554 S
H2424 C2432 0.929 . S
H2425 C2434 0.930 . S
H2426 C2436 0.930 . S
H2427 C2439 0.929 . S
H2428 C2442 0.930 . S
H2429 C2444 0.960 . S
H2430 C2444 0.960 . S
H2431 C2444 0.960 . S
C2432 H2424 0.929 . S
C2432 C2433 1.377 . S
C2432 C2434 1.384 . S
C2433 C2432 1.377 . S
C2433 C2439 1.390 . S
C2434 H2425 0.930 . S
C2434 C2432 1.384 . S
C2434 C2435 1.372 . S
C2435 C2434 1.372 . S
C2435 C2436 1.400 . S
C2435 C2440 1.490 . S
C2436 H2426 0.930 . S
C2436 C2435 1.400 . S
C2436 C2439 1.386 . S
H2437 C2453 0.930 . S
H2438 C2454 0.931 . S
C2439 H2427 0.929 . S
C2439 C2433 1.390 . S
C2439 C2436 1.386 . S
C2440 C2435 1.490 . S
C2440 C2442 1.395 . S
C2440 C2443 1.403 . S
H2441 C2447 0.930 . S
C2442 H2428 0.930 . S
C2442 C2440 1.395 . S
C2442 C2445 1.403 . S
C2443 C2440 1.403 . S
C2443 C2444 1.524 . S
C2443 C2447 1.400 . S
C2444 H2429 0.960 . S
C2444 H2430 0.960 . S
C2444 H2431 0.960 . S
C2444 C2443 1.524 . S
C2445 C2442 1.403 . S
C2445 C2446 1.392 . S
C2445 C2449 1.495 . S
C2446 C2445 1.392 . S
C2446 C2447 1.385 . S
C2446 C2448 1.478 . S
C2447 H2441 0.930 . S
C2447 C2443 1.400 . S
C2447 C2446 1.385 . S
C2448 C2446 1.478 . S
C2448 C2450 1.381 . S
C2448 C2454 1.383 . S
C2449 C2445 1.495 . S
C2449 H2455 0.959 . S
C2449 H2456 0.961 . S
C2449 H2457 0.960 . S
C2450 C2448 1.381 . S
C2450 C2451 1.394 . S
C2450 H2458 0.930 . S
C2451 C2450 1.394 . S
C2451 C2452 1.383 . S
C2451 H2459 0.929 . S
C2452 C2451 1.383 . S
C2452 C2453 1.377 . S
C2453 H2437 0.930 . S
C2453 C2452 1.377 . S
C2453 C2454 1.379 . S
C2454 H2438 0.931 . S
C2454 C2448 1.383 . S
C2454 C2453 1.379 . S
H2455 C2449 0.959 . S
H2456 C2449 0.961 . S
H2457 C2449 0.960 . S
H2458 C2450 0.930 . S
H2459 C2451 0.929 . S
H2460 C2468 0.929 . S
H2461 C2470 0.930 . S
H2462 C2472 0.930 . S
H2463 C2475 0.929 . S
H2464 C2478 0.930 . S
H2465 C2480 0.960 . S
H2466 C2480 0.960 . S
H2467 C2480 0.960 . S
C2468 H2460 0.929 . S
C2468 C2469 1.377 . S
C2468 C2470 1.384 . S
C2469 C2468 1.377 . S
C2469 C2475 1.390 . S
C2470 H2461 0.930 . S
C2470 C2468 1.384 . S
C2470 C2471 1.372 . S
C2471 C2470 1.372 . S
C2471 C2472 1.400 . S
C2471 C2476 1.490 . S
C2472 H2462 0.930 . S
C2472 C2471 1.400 . S
C2472 C2475 1.386 . S
H2473 C2489 0.930 . S
H2474 C2490 0.931 . S
C2475 H2463 0.929 . S
C2475 C2469 1.390 . S
C2475 C2472 1.386 . S
C2476 C2471 1.490 . S
C2476 C2478 1.395 . S
C2476 C2479 1.403 . S
H2477 C2483 0.930 . S
C2478 H2464 0.930 . S
C2478 C2476 1.395 . S
C2478 C2481 1.403 . S
C2479 C2476 1.403 . S
C2479 C2480 1.524 . S
C2479 C2483 1.400 . S
C2480 H2465 0.960 . S
C2480 H2466 0.960 . S
C2480 H2467 0.960 . S
C2480 C2479 1.524 . S
C2481 C2478 1.403 . S
C2481 C2482 1.392 . S
C2481 C2485 1.495 . S
C2482 C2481 1.392 . S
C2482 C2483 1.385 . S
C2482 C2484 1.478 . S
C2483 H2477 0.930 . S
C2483 C2479 1.400 . S
C2483 C2482 1.385 . S
C2484 C2482 1.478 . S
C2484 C2486 1.381 . S
C2484 C2490 1.383 . S
C2485 C2481 1.495 . S
C2485 H2491 0.959 . S
C2485 H2492 0.961 . S
C2485 H2493 0.960 . S
C2486 C2484 1.381 . S
C2486 C2487 1.394 . S
C2486 H2494 0.930 . S
C2487 C2486 1.394 . S
C2487 C2488 1.383 . S
C2487 H2495 0.929 . S
C2488 C2487 1.383 . S
C2488 C2489 1.377 . S
C2489 H2473 0.930 . S
C2489 C2488 1.377 . S
C2489 C2490 1.379 . S
C2490 H2474 0.931 . S
C2490 C2484 1.383 . S
C2490 C2489 1.379 . S
H2491 C2485 0.959 . S
H2492 C2485 0.961 . S
H2493 C2485 0.960 . S
H2494 C2486 0.930 . S
H2495 C2487 0.929 . S
H2496 C2504 0.929 . S
H2497 C2506 0.930 . S
H2498 C2508 0.930 . S
H2499 C2511 0.929 . S
H2500 C2514 0.930 . S
H2501 C2516 0.960 . S
H2502 C2516 0.960 . S
H2503 C2516 0.960 . S
C2504 H2496 0.929 . S
C2504 C2505 1.377 . S
C2504 C2506 1.384 . S
C2505 C2504 1.377 . S
C2505 C2511 1.390 . S
C2506 H2497 0.930 . S
C2506 C2504 1.384 . S
C2506 C2507 1.372 . S
C2507 C2506 1.372 . S
C2507 C2508 1.400 . S
C2507 C2512 1.490 . S
C2508 H2498 0.930 . S
C2508 C2507 1.400 . S
C2508 C2511 1.386 . S
H2509 C2525 0.930 . S
H2510 C2526 0.931 . S
C2511 H2499 0.929 . S
C2511 C2505 1.390 . S
C2511 C2508 1.386 . S
C2512 C2507 1.490 . S
C2512 C2514 1.395 . S
C2512 C2515 1.403 . S
H2513 C2519 0.930 . S
C2514 H2500 0.930 . S
C2514 C2512 1.395 . S
C2514 C2517 1.403 . S
C2515 C2512 1.403 . S
C2515 C2516 1.524 . S
C2515 C2519 1.400 . S
C2516 H2501 0.960 . S
C2516 H2502 0.960 . S
C2516 H2503 0.960 . S
C2516 C2515 1.524 . S
C2517 C2514 1.403 . S
C2517 C2518 1.392 . S
C2517 C2521 1.495 . S
C2518 C2517 1.392 . S
C2518 C2519 1.385 . S
C2518 C2520 1.478 . S
C2519 H2513 0.930 . S
C2519 C2515 1.400 . S
C2519 C2518 1.385 . S
C2520 C2518 1.478 . S
C2520 C2522 1.381 . S
C2520 C2526 1.383 . S
C2521 C2517 1.495 . S
C2521 H2527 0.959 . S
C2521 H2528 0.961 . S
C2521 H2529 0.960 . S
C2522 C2520 1.381 . S
C2522 C2523 1.394 . S
C2522 H2530 0.930 . S
C2523 C2522 1.394 . S
C2523 C2524 1.383 . S
C2523 H2531 0.929 . S
C2524 C2523 1.383 . S
C2524 C2525 1.377 . S
C2525 H2509 0.930 . S
C2525 C2524 1.377 . S
C2525 C2526 1.379 . S
C2526 H2510 0.931 . S
C2526 C2520 1.383 . S
C2526 C2525 1.379 . S
H2527 C2521 0.959 . S
H2528 C2521 0.961 . S
H2529 C2521 0.960 . S
H2530 C2522 0.930 . S
H2531 C2523 0.929 . S
H2532 C2540 0.929 . S
H2533 C2542 0.930 . S
H2534 C2544 0.930 . S
H2535 C2547 0.977 . S
H2536 C2550 0.930 . S
H2537 C2552 0.960 . S
H2538 C2552 0.960 . S
H2539 C2552 0.960 . S
C2540 H2532 0.929 . S
C2540 C2541 1.377 . S
C2540 C2542 1.384 . S
C2541 C2540 1.377 . S
C2541 C2547 1.390 . S
C2542 H2533 0.930 . S
C2542 C2540 1.384 . S
C2542 C2543 1.372 . S
C2543 C2542 1.372 . S
C2543 C2544 1.400 . S
C2543 C2548 1.490 . S
C2544 H2534 0.930 . S
C2544 C2543 1.400 . S
C2544 C2547 1.386 . S
H2545 C2561 0.930 . S
H2546 C2562 0.931 . S
C2547 H2535 0.977 . S
C2547 C2541 1.390 . S
C2547 C2544 1.386 . S
C2548 C2543 1.490 . S
C2548 C2550 1.395 . S
C2548 C2551 1.403 . S
H2549 C2555 0.930 . S
C2550 H2536 0.930 . S
C2550 C2548 1.395 . S
C2550 C2553 1.403 . S
C2551 C2548 1.403 . S
C2551 C2552 1.524 . S
C2551 C2555 1.400 . S
C2552 H2537 0.960 . S
C2552 H2538 0.960 . S
C2552 H2539 0.960 . S
C2552 C2551 1.524 . S
C2553 C2550 1.403 . S
C2553 C2554 1.392 . S
C2553 C2557 1.495 . S
C2554 C2553 1.392 . S
C2554 C2555 1.385 . S
C2554 C2556 1.478 . S
C2555 H2549 0.930 . S
C2555 C2551 1.400 . S
C2555 C2554 1.385 . S
C2556 C2554 1.478 . S
C2556 C2558 1.381 . S
C2556 C2562 1.383 . S
C2557 C2553 1.495 . S
C2557 H2563 0.959 . S
C2557 H2564 0.961 . S
C2557 H2565 0.960 . S
C2558 C2556 1.381 . S
C2558 C2559 1.394 . S
C2558 H2566 0.930 . S
C2559 C2558 1.394 . S
C2559 C2560 1.383 . S
C2559 H2567 0.929 . S
C2560 C2559 1.383 . S
C2560 C2561 1.377 . S
C2561 H2545 0.930 . S
C2561 C2560 1.377 . S
C2561 C2562 1.379 . S
C2562 H2546 0.931 . S
C2562 C2556 1.383 . S
C2562 C2561 1.379 . S
H2563 C2557 0.959 . S
H2564 C2557 0.961 . S
H2565 C2557 0.960 . S
H2566 C2558 0.930 . S
H2567 C2559 0.929 . S
H2568 C2576 0.929 . S
H2569 C2578 0.930 . S
H2570 C2580 0.930 . S
H2571 C2583 0.929 . S
H2572 C2586 0.930 . S
H2573 C2588 0.960 . S
H2574 C2588 0.960 . S
H2575 C2588 0.960 . S
C2576 H2568 0.929 . S
C2576 C2577 1.377 . S
C2576 C2578 1.384 . S
C2577 C2576 1.377 . S
C2577 C2583 1.390 . S
C2578 H2569 0.930 . S
C2578 C2576 1.384 . S
C2578 C2579 1.372 . S
C2579 C2578 1.372 . S
C2579 C2580 1.400 . S
C2579 C2584 1.490 . S
C2580 H2570 0.930 . S
C2580 C2579 1.400 . S
C2580 C2583 1.386 . S
H2581 C2597 0.930 . S
H2582 C2598 0.931 . S
C2583 H2571 0.929 . S
C2583 C2577 1.390 . S
C2583 C2580 1.386 . S
C2584 C2579 1.490 . S
C2584 C2586 1.395 . S
C2584 C2587 1.403 . S
H2585 C2591 0.930 . S
C2586 H2572 0.930 . S
C2586 C2584 1.395 . S
C2586 C2589 1.403 . S
C2587 C2584 1.403 . S
C2587 C2588 1.524 . S
C2587 C2591 1.400 . S
C2588 H2573 0.960 . S
C2588 H2574 0.960 . S
C2588 H2575 0.960 . S
C2588 C2587 1.524 . S
C2589 C2586 1.403 . S
C2589 C2590 1.392 . S
C2589 C2593 1.495 . S
C2590 C2589 1.392 . S
C2590 C2591 1.385 . S
C2590 C2592 1.478 . S
C2591 H2585 0.930 . S
C2591 C2587 1.400 . S
C2591 C2590 1.385 . S
C2592 C2590 1.478 . S
C2592 C2594 1.381 . S
C2592 C2598 1.383 . S
C2593 C2589 1.495 . S
C2593 H2599 0.959 . S
C2593 H2600 0.961 . S
C2593 H2601 0.960 . S
C2594 C2592 1.381 . S
C2594 C2595 1.394 . S
C2594 H2602 0.930 . S
C2595 C2594 1.394 . S
C2595 C2596 1.383 . S
C2595 H2603 0.929 . S
C2596 C2595 1.383 . S
C2596 C2597 1.377 . S
C2597 H2581 0.930 . S
C2597 C2596 1.377 . S
C2597 C2598 1.379 . S
C2598 H2582 0.931 . S
C2598 C2592 1.383 . S
C2598 C2597 1.379 . S
H2599 C2593 0.959 . S
H2600 C2593 0.961 . S
H2601 C2593 0.960 . S
H2602 C2594 0.930 . S
H2603 C2595 0.929 . S
H2604 C2612 0.929 1_554 S
H2605 C2614 0.930 . S
H2606 C2616 0.930 . S
H2607 C2619 0.929 . S
H2608 C2622 0.930 . S
H2609 C2624 0.960 . S
H2610 C2624 0.960 . S
H2611 C2624 0.960 . S
C2612 H2604 0.929 1_556 S
C2612 C2613 1.377 . S
C2612 C2614 1.384 . S
C2613 C2612 1.377 . S
C2613 C2619 1.390 . S
C2614 H2605 0.930 . S
C2614 C2612 1.384 . S
C2614 C2615 1.372 . S
C2615 C2614 1.372 . S
C2615 C2616 1.400 . S
C2615 C2620 1.490 . S
C2616 H2606 0.930 . S
C2616 C2615 1.400 . S
C2616 C2619 1.386 . S
H2617 C2633 0.930 . S
H2618 C2634 0.931 . S
C2619 H2607 0.929 . S
C2619 C2613 1.390 . S
C2619 C2616 1.386 . S
C2620 C2615 1.490 . S
C2620 C2622 1.395 . S
C2620 C2623 1.403 . S
H2621 C2627 0.930 . S
C2622 H2608 0.930 . S
C2622 C2620 1.395 . S
C2622 C2625 1.403 . S
C2623 C2620 1.403 . S
C2623 C2624 1.524 . S
C2623 C2627 1.400 . S
C2624 H2609 0.960 . S
C2624 H2610 0.960 . S
C2624 H2611 0.960 . S
C2624 C2623 1.524 . S
C2625 C2622 1.403 . S
C2625 C2626 1.392 . S
C2625 C2629 1.495 . S
C2626 C2625 1.392 . S
C2626 C2627 1.385 . S
C2626 C2628 1.478 . S
C2627 H2621 0.930 . S
C2627 C2623 1.400 . S
C2627 C2626 1.385 . S
C2628 C2626 1.478 . S
C2628 C2630 1.381 . S
C2628 C2634 1.383 . S
C2629 C2625 1.495 . S
C2629 H2635 0.959 . S
C2629 H2636 0.961 . S
C2629 H2637 0.960 . S
C2630 C2628 1.381 . S
C2630 C2631 1.394 . S
C2630 H2638 0.930 . S
C2631 C2630 1.394 . S
C2631 C2632 1.383 . S
C2631 H2639 0.929 . S
C2632 C2631 1.383 . S
C2632 C2633 1.377 . S
C2633 H2617 0.930 . S
C2633 C2632 1.377 . S
C2633 C2634 1.379 . S
C2634 H2618 0.931 . S
C2634 C2628 1.383 . S
C2634 C2633 1.379 . S
H2635 C2629 0.959 . S
H2636 C2629 0.961 . S
H2637 C2629 0.960 . S
H2638 C2630 0.930 . S
H2639 C2631 0.929 . S
H2640 C2648 0.929 . S
H2641 C2650 0.930 . S
H2642 C2652 0.930 . S
H2643 C2655 0.929 . S
H2644 C2658 0.930 . S
H2645 C2660 0.960 . S
H2646 C2660 0.960 . S
H2647 C2660 0.960 . S
C2648 H2640 0.929 . S
C2648 C2649 1.377 . S
C2648 C2650 1.384 . S
C2649 C2648 1.377 . S
C2649 C2655 1.390 . S
C2650 H2641 0.930 . S
C2650 C2648 1.384 . S
C2650 C2651 1.372 . S
C2651 C2650 1.372 . S
C2651 C2652 1.400 . S
C2651 C2656 1.490 . S
C2652 H2642 0.930 . S
C2652 C2651 1.400 . S
C2652 C2655 1.386 . S
H2653 C2669 0.930 . S
H2654 C2670 0.931 . S
C2655 H2643 0.929 . S
C2655 C2649 1.390 . S
C2655 C2652 1.386 . S
C2656 C2651 1.490 . S
C2656 C2658 1.395 . S
C2656 C2659 1.403 . S
H2657 C2663 0.930 . S
C2658 H2644 0.930 . S
C2658 C2656 1.395 . S
C2658 C2661 1.403 . S
C2659 C2656 1.403 . S
C2659 C2660 1.524 . S
C2659 C2663 1.400 . S
C2660 H2645 0.960 . S
C2660 H2646 0.960 . S
C2660 H2647 0.960 . S
C2660 C2659 1.524 . S
C2661 C2658 1.403 . S
C2661 C2662 1.392 . S
C2661 C2665 1.495 . S
C2662 C2661 1.392 . S
C2662 C2663 1.385 . S
C2662 C2664 1.478 . S
C2663 H2657 0.930 . S
C2663 C2659 1.400 . S
C2663 C2662 1.385 . S
C2664 C2662 1.478 . S
C2664 C2666 1.381 . S
C2664 C2670 1.383 . S
C2665 C2661 1.495 . S
C2665 H2671 0.959 . S
C2665 H2672 0.961 . S
C2665 H2673 0.960 . S
C2666 C2664 1.381 . S
C2666 C2667 1.394 . S
C2666 H2674 0.930 . S
C2667 C2666 1.394 . S
C2667 C2668 1.383 . S
C2667 H2675 0.929 . S
C2668 C2667 1.383 . S
C2668 C2669 1.377 . S
C2669 H2653 0.930 . S
C2669 C2668 1.377 . S
C2669 C2670 1.379 . S
C2670 H2654 0.931 . S
C2670 C2664 1.383 . S
C2670 C2669 1.379 . S
H2671 C2665 0.959 . S
H2672 C2665 0.961 . S
H2673 C2665 0.960 . S
H2674 C2666 0.930 . S
H2675 C2667 0.929 . S
H2676 C2684 0.929 . S
H2677 C2686 0.930 . S
H2678 C2688 0.930 . S
H2679 C2691 0.929 . S
H2680 C2694 0.930 . S
H2681 C2696 0.960 . S
H2682 C2696 0.960 . S
H2683 C2696 0.960 . S
C2684 H2676 0.929 . S
C2684 C2685 1.377 . S
C2684 C2686 1.384 . S
C2685 C2684 1.377 . S
C2685 C2691 1.390 . S
C2686 H2677 0.930 . S
C2686 C2684 1.384 . S
C2686 C2687 1.372 . S
C2687 C2686 1.372 . S
C2687 C2688 1.400 . S
C2687 C2692 1.490 . S
C2688 H2678 0.930 . S
C2688 C2687 1.400 . S
C2688 C2691 1.386 . S
H2689 C2705 0.930 . S
H2690 C2706 0.931 . S
C2691 H2679 0.929 . S
C2691 C2685 1.390 . S
C2691 C2688 1.386 . S
C2692 C2687 1.490 . S
C2692 C2694 1.395 . S
C2692 C2695 1.403 . S
H2693 C2699 0.930 . S
C2694 H2680 0.930 . S
C2694 C2692 1.395 . S
C2694 C2697 1.403 . S
C2695 C2692 1.403 . S
C2695 C2696 1.524 . S
C2695 C2699 1.400 . S
C2696 H2681 0.960 . S
C2696 H2682 0.960 . S
C2696 H2683 0.960 . S
C2696 C2695 1.524 . S
C2697 C2694 1.403 . S
C2697 C2698 1.392 . S
C2697 C2701 1.495 . S
C2698 C2697 1.392 . S
C2698 C2699 1.385 . S
C2698 C2700 1.478 . S
C2699 H2693 0.930 . S
C2699 C2695 1.400 . S
C2699 C2698 1.385 . S
C2700 C2698 1.478 . S
C2700 C2702 1.381 . S
C2700 C2706 1.383 . S
C2701 C2697 1.495 . S
C2701 H2707 0.959 . S
C2701 H2708 0.961 . S
C2701 H2709 0.960 . S
C2702 C2700 1.381 . S
C2702 C2703 1.394 . S
C2702 H2710 0.930 . S
C2703 C2702 1.394 . S
C2703 C2704 1.383 . S
C2703 H2711 0.929 . S
C2704 C2703 1.383 . S
C2704 C2705 1.377 . S
C2705 H2689 0.930 . S
C2705 C2704 1.377 . S
C2705 C2706 1.379 . S
C2706 H2690 0.931 . S
C2706 C2700 1.383 . S
C2706 C2705 1.379 . S
H2707 C2701 0.959 . S
H2708 C2701 0.961 . S
H2709 C2701 0.960 . S
H2710 C2702 0.930 . S
H2711 C2703 0.929 . S
H2712 C2720 0.929 . S
H2713 C2722 0.930 . S
H2714 C2724 0.930 . S
H2715 C2727 0.929 . S
H2716 C2730 0.930 . S
H2717 C2732 0.960 . S
H2718 C2732 0.960 . S
H2719 C2732 0.960 . S
C2720 H2712 0.929 . S
C2720 C2721 1.377 . S
C2720 C2722 1.384 . S
C2721 C2720 1.377 . S
C2721 C2727 1.390 . S
C2722 H2713 0.930 . S
C2722 C2720 1.384 . S
C2722 C2723 1.372 . S
C2723 C2722 1.372 . S
C2723 C2724 1.400 . S
C2723 C2728 1.490 . S
C2724 H2714 0.930 . S
C2724 C2723 1.400 . S
C2724 C2727 1.386 . S
H2725 C2741 0.930 . S
H2726 C2742 0.931 . S
C2727 H2715 0.929 . S
C2727 C2721 1.390 . S
C2727 C2724 1.386 . S
C2728 C2723 1.490 . S
C2728 C2730 1.395 . S
C2728 C2731 1.403 . S
H2729 C2735 0.930 . S
C2730 H2716 0.930 . S
C2730 C2728 1.395 . S
C2730 C2733 1.403 . S
C2731 C2728 1.403 . S
C2731 C2732 1.524 . S
C2731 C2735 1.400 . S
C2732 H2717 0.960 . S
C2732 H2718 0.960 . S
C2732 H2719 0.960 . S
C2732 C2731 1.524 . S
C2733 C2730 1.403 . S
C2733 C2734 1.392 . S
C2733 C2737 1.495 . S
C2734 C2733 1.392 . S
C2734 C2735 1.385 . S
C2734 C2736 1.478 . S
C2735 H2729 0.930 . S
C2735 C2731 1.400 . S
C2735 C2734 1.385 . S
C2736 C2734 1.478 . S
C2736 C2738 1.381 . S
C2736 C2742 1.383 . S
C2737 C2733 1.495 . S
C2737 H2743 0.959 . S
C2737 H2744 0.961 . S
C2737 H2745 0.960 . S
C2738 C2736 1.381 . S
C2738 C2739 1.394 . S
C2738 H2746 0.930 . S
C2739 C2738 1.394 . S
C2739 C2740 1.383 . S
C2739 H2747 0.929 . S
C2740 C2739 1.383 . S
C2740 C2741 1.377 . S
C2741 H2725 0.930 . S
C2741 C2740 1.377 . S
C2741 C2742 1.379 . S
C2742 H2726 0.931 . S
C2742 C2736 1.383 . S
C2742 C2741 1.379 . S
H2743 C2737 0.959 . S
H2744 C2737 0.961 . S
H2745 C2737 0.960 . S
H2746 C2738 0.930 . S
H2747 C2739 0.929 . S
H2748 C2756 0.929 . S
H2749 C2758 0.930 . S
H2750 C2760 0.930 . S
H2751 C2763 0.929 . S
H2752 C2766 0.930 . S
H2753 C2768 0.960 . S
H2754 C2768 0.960 . S
H2755 C2768 0.960 . S
C2756 H2748 0.929 . S
C2756 C2757 1.377 . S
C2756 C2758 1.384 . S
C2757 C2756 1.377 . S
C2757 C2763 1.390 . S
C2758 H2749 0.930 . S
C2758 C2756 1.384 . S
C2758 C2759 1.372 . S
C2759 C2758 1.372 . S
C2759 C2760 1.400 . S
C2759 C2764 1.490 . S
C2760 H2750 0.930 . S
C2760 C2759 1.400 . S
C2760 C2763 1.386 . S
H2761 C2777 0.930 . S
H2762 C2778 0.931 . S
C2763 H2751 0.929 . S
C2763 C2757 1.390 . S
C2763 C2760 1.386 . S
C2764 C2759 1.490 . S
C2764 C2766 1.395 . S
C2764 C2767 1.403 . S
H2765 C2771 0.930 . S
C2766 H2752 0.930 . S
C2766 C2764 1.395 . S
C2766 C2769 1.403 . S
C2767 C2764 1.403 . S
C2767 C2768 1.524 . S
C2767 C2771 1.400 . S
C2768 H2753 0.960 . S
C2768 H2754 0.960 . S
C2768 H2755 0.960 . S
C2768 C2767 1.524 . S
C2769 C2766 1.403 . S
C2769 C2770 1.392 . S
C2769 C2773 1.495 . S
C2770 C2769 1.392 . S
C2770 C2771 1.385 . S
C2770 C2772 1.478 . S
C2771 H2765 0.930 . S
C2771 C2767 1.400 . S
C2771 C2770 1.385 . S
C2772 C2770 1.478 . S
C2772 C2774 1.381 . S
C2772 C2778 1.383 . S
C2773 C2769 1.495 . S
C2773 H2779 0.959 . S
C2773 H2780 0.961 . S
C2773 H2781 0.960 . S
C2774 C2772 1.381 . S
C2774 C2775 1.394 . S
C2774 H2782 0.930 . S
C2775 C2774 1.394 . S
C2775 C2776 1.383 . S
C2775 H2783 0.929 . S
C2776 C2775 1.383 . S
C2776 C2777 1.377 . S
C2777 H2761 0.930 . S
C2777 C2776 1.377 . S
C2777 C2778 1.379 . S
C2778 H2762 0.931 . S
C2778 C2772 1.383 . S
C2778 C2777 1.379 . S
H2779 C2773 0.959 . S
H2780 C2773 0.961 . S
H2781 C2773 0.960 . S
H2782 C2774 0.930 . S
H2783 C2775 0.929 . S
H2784 C2792 0.929 . S
H2785 C2794 0.930 . S
H2786 C2796 0.930 . S
H2787 C2799 0.929 . S
H2788 C2802 0.930 . S
H2789 C2804 0.960 . S
H2790 C2804 0.960 . S
H2791 C2804 0.960 . S
C2792 H2784 0.929 . S
C2792 C2793 1.377 . S
C2792 C2794 1.384 . S
C2793 C2792 1.377 . S
C2793 C2799 1.390 . S
C2794 H2785 0.930 . S
C2794 C2792 1.384 . S
C2794 C2795 1.372 . S
C2795 C2794 1.372 . S
C2795 C2796 1.400 . S
C2795 C2800 1.490 . S
C2796 H2786 0.930 . S
C2796 C2795 1.400 . S
C2796 C2799 1.386 . S
H2797 C2813 0.930 . S
H2798 C2814 0.931 . S
C2799 H2787 0.929 . S
C2799 C2793 1.390 . S
C2799 C2796 1.386 . S
C2800 C2795 1.490 . S
C2800 C2802 1.395 . S
C2800 C2803 1.403 . S
H2801 C2807 0.930 . S
C2802 H2788 0.930 . S
C2802 C2800 1.395 . S
C2802 C2805 1.403 . S
C2803 C2800 1.403 . S
C2803 C2804 1.524 . S
C2803 C2807 1.400 . S
C2804 H2789 0.960 . S
C2804 H2790 0.960 . S
C2804 H2791 0.960 . S
C2804 C2803 1.524 . S
C2805 C2802 1.403 . S
C2805 C2806 1.392 . S
C2805 C2809 1.495 . S
C2806 C2805 1.392 . S
C2806 C2807 1.385 . S
C2806 C2808 1.478 . S
C2807 H2801 0.930 . S
C2807 C2803 1.400 . S
C2807 C2806 1.385 . S
C2808 C2806 1.478 . S
C2808 C2810 1.381 . S
C2808 C2814 1.383 . S
C2809 C2805 1.495 . S
C2809 H2815 0.959 . S
C2809 H2816 0.961 . S
C2809 H2817 0.960 . S
C2810 C2808 1.381 . S
C2810 C2811 1.394 . S
C2810 H2818 0.930 . S
C2811 C2810 1.394 . S
C2811 C2812 1.383 . S
C2811 H2819 0.929 . S
C2812 C2811 1.383 . S
C2812 C2813 1.377 . S
C2813 H2797 0.930 . S
C2813 C2812 1.377 . S
C2813 C2814 1.379 . S
C2814 H2798 0.931 . S
C2814 C2808 1.383 . S
C2814 C2813 1.379 . S
H2815 C2809 0.959 . S
H2816 C2809 0.961 . S
H2817 C2809 0.960 . S
H2818 C2810 0.930 . S
H2819 C2811 0.929 . S
H2820 C2828 0.929 . S
H2821 C2830 0.930 . S
H2822 C2832 0.930 . S
H2823 C2835 0.929 . S
H2824 C2838 0.930 . S
H2825 C2840 0.960 . S
H2826 C2840 0.960 . S
H2827 C2840 0.960 . S
C2828 H2820 0.929 . S
C2828 C2829 1.377 . S
C2828 C2830 1.384 . S
C2829 C2828 1.377 . S
C2829 C2835 1.390 . S
C2830 H2821 0.930 . S
C2830 C2828 1.384 . S
C2830 C2831 1.372 . S
C2831 C2830 1.372 . S
C2831 C2832 1.400 . S
C2831 C2836 1.490 . S
C2832 H2822 0.930 . S
C2832 C2831 1.400 . S
C2832 C2835 1.386 . S
H2833 C2849 0.930 . S
H2834 C2850 0.931 . S
C2835 H2823 0.929 . S
C2835 C2829 1.390 . S
C2835 C2832 1.386 . S
C2836 C2831 1.490 . S
C2836 C2838 1.395 . S
C2836 C2839 1.403 . S
H2837 C2843 0.930 . S
C2838 H2824 0.930 . S
C2838 C2836 1.395 . S
C2838 C2841 1.403 . S
C2839 C2836 1.403 . S
C2839 C2840 1.524 . S
C2839 C2843 1.400 . S
C2840 H2825 0.960 . S
C2840 H2826 0.960 . S
C2840 H2827 0.960 . S
C2840 C2839 1.524 . S
C2841 C2838 1.403 . S
C2841 C2842 1.392 . S
C2841 C2845 1.495 . S
C2842 C2841 1.392 . S
C2842 C2843 1.385 . S
C2842 C2844 1.478 . S
C2843 H2837 0.930 . S
C2843 C2839 1.400 . S
C2843 C2842 1.385 . S
C2844 C2842 1.478 . S
C2844 C2846 1.381 . S
C2844 C2850 1.383 . S
C2845 C2841 1.495 . S
C2845 H2851 0.959 . S
C2845 H2852 0.961 . S
C2845 H2853 0.960 . S
C2846 C2844 1.381 . S
C2846 C2847 1.394 . S
C2846 H2854 0.930 . S
C2847 C2846 1.394 . S
C2847 C2848 1.383 . S
C2847 H2855 0.929 . S
C2848 C2847 1.383 . S
C2848 C2849 1.377 . S
C2849 H2833 0.930 . S
C2849 C2848 1.377 . S
C2849 C2850 1.379 . S
C2850 H2834 0.931 . S
C2850 C2844 1.383 . S
C2850 C2849 1.379 . S
H2851 C2845 0.959 . S
H2852 C2845 0.961 . S
H2853 C2845 0.960 . S
H2854 C2846 0.930 . S
H2855 C2847 0.929 . S
H2856 C2864 0.929 . S
H2857 C2866 0.930 . S
H2858 C2868 0.930 . S
H2859 C2871 0.929 . S
H2860 C2874 0.930 . S
H2861 C2876 0.960 . S
H2862 C2876 0.960 . S
H2863 C2876 0.960 . S
C2864 H2856 0.929 . S
C2864 C2865 1.377 . S
C2864 C2866 1.384 . S
C2865 C2864 1.377 . S
C2865 C2871 1.390 . S
C2866 H2857 0.930 . S
C2866 C2864 1.384 . S
C2866 C2867 1.372 . S
C2867 C2866 1.372 . S
C2867 C2868 1.400 . S
C2867 C2872 1.490 . S
C2868 H2858 0.930 . S
C2868 C2867 1.400 . S
C2868 C2871 1.386 . S
H2869 C2885 0.930 . S
H2870 C2886 0.931 . S
C2871 H2859 0.929 . S
C2871 C2865 1.390 . S
C2871 C2868 1.386 . S
C2872 C2867 1.490 . S
C2872 C2874 1.395 . S
C2872 C2875 1.403 . S
H2873 C2879 0.930 . S
C2874 H2860 0.930 . S
C2874 C2872 1.395 . S
C2874 C2877 1.403 . S
C2875 C2872 1.403 . S
C2875 C2876 1.524 . S
C2875 C2879 1.400 . S
C2876 H2861 0.960 . S
C2876 H2862 0.960 . S
C2876 H2863 0.960 . S
C2876 C2875 1.524 . S
C2877 C2874 1.403 . S
C2877 C2878 1.392 . S
C2877 C2881 1.495 . S
C2878 C2877 1.392 . S
C2878 C2879 1.385 . S
C2878 C2880 1.478 . S
C2879 H2873 0.930 . S
C2879 C2875 1.400 . S
C2879 C2878 1.385 . S
C2880 C2878 1.478 . S
C2880 C2882 1.381 . S
C2880 C2886 1.383 . S
C2881 C2877 1.495 . S
C2881 H2887 0.959 . S
C2881 H2888 0.961 . S
C2881 H2889 0.960 . S
C2882 C2880 1.381 . S
C2882 C2883 1.394 . S
C2882 H2890 0.930 . S
C2883 C2882 1.394 . S
C2883 C2884 1.383 . S
C2883 H2891 0.929 . S
C2884 C2883 1.383 . S
C2884 C2885 1.377 . S
C2885 H2869 0.930 . S
C2885 C2884 1.377 . S
C2885 C2886 1.379 . S
C2886 H2870 0.931 . S
C2886 C2880 1.383 . S
C2886 C2885 1.379 . S
H2887 C2881 0.959 . S
H2888 C2881 0.961 . S
H2889 C2881 0.960 . S
H2890 C2882 0.930 . S
H2891 C2883 0.929 . S
H2892 C2900 0.929 . S
H2893 C2902 0.930 . S
H2894 C2904 0.930 . S
H2895 C2907 0.929 . S
H2896 C2910 0.930 . S
H2897 C2912 0.960 . S
H2898 C2912 0.960 . S
H2899 C2912 0.960 . S
C2900 H2892 0.929 . S
C2900 C2901 1.377 . S
C2900 C2902 1.384 . S
C2901 C2900 1.377 . S
C2901 C2907 1.390 . S
C2902 H2893 0.930 . S
C2902 C2900 1.384 . S
C2902 C2903 1.372 . S
C2903 C2902 1.372 . S
C2903 C2904 1.400 . S
C2903 C2908 1.490 . S
C2904 H2894 0.930 . S
C2904 C2903 1.400 . S
C2904 C2907 1.386 . S
H2905 C2921 0.930 . S
H2906 C2922 0.931 . S
C2907 H2895 0.929 . S
C2907 C2901 1.390 . S
C2907 C2904 1.386 . S
C2908 C2903 1.490 . S
C2908 C2910 1.395 . S
C2908 C2911 1.403 . S
H2909 C2915 0.930 . S
C2910 H2896 0.930 . S
C2910 C2908 1.395 . S
C2910 C2913 1.403 . S
C2911 C2908 1.403 . S
C2911 C2912 1.524 . S
C2911 C2915 1.400 . S
C2912 H2897 0.960 . S
C2912 H2898 0.960 . S
C2912 H2899 0.960 . S
C2912 C2911 1.524 . S
C2913 C2910 1.403 . S
C2913 C2914 1.392 . S
C2913 C2917 1.495 . S
C2914 C2913 1.392 . S
C2914 C2915 1.385 . S
C2914 C2916 1.478 . S
C2915 H2909 0.930 . S
C2915 C2911 1.400 . S
C2915 C2914 1.385 . S
C2916 C2914 1.478 . S
C2916 C2918 1.381 . S
C2916 C2922 1.383 . S
C2917 C2913 1.495 . S
C2917 H2923 0.959 . S
C2917 H2924 0.961 . S
C2917 H2925 0.960 . S
C2918 C2916 1.381 . S
C2918 C2919 1.394 . S
C2918 H2926 0.930 . S
C2919 C2918 1.394 . S
C2919 C2920 1.383 . S
C2919 H2927 0.929 . S
C2920 C2919 1.383 . S
C2920 C2921 1.377 . S
C2921 H2905 0.930 . S
C2921 C2920 1.377 . S
C2921 C2922 1.379 . S
C2922 H2906 0.931 . S
C2922 C2916 1.383 . S
C2922 C2921 1.379 . S
H2923 C2917 0.959 . S
H2924 C2917 0.961 . S
H2925 C2917 0.960 . S
H2926 C2918 0.930 . S
H2927 C2919 0.929 . S
H2928 C2936 0.929 . S
H2929 C2938 0.930 . S
H2930 C2940 0.930 . S
H2931 C2943 0.929 . S
H2932 C2946 0.930 . S
H2933 C2948 0.960 . S
H2934 C2948 0.960 . S
H2935 C2948 0.960 . S
C2936 H2928 0.929 . S
C2936 C2937 1.377 . S
C2936 C2938 1.384 . S
C2937 C2936 1.377 . S
C2937 C2943 1.390 . S
C2938 H2929 0.930 . S
C2938 C2936 1.384 . S
C2938 C2939 1.372 . S
C2939 C2938 1.372 . S
C2939 C2940 1.400 . S
C2939 C2944 1.490 . S
C2940 H2930 0.930 . S
C2940 C2939 1.400 . S
C2940 C2943 1.386 . S
H2941 C2957 0.930 . S
H2942 C2958 0.931 . S
C2943 H2931 0.929 . S
C2943 C2937 1.390 . S
C2943 C2940 1.386 . S
C2944 C2939 1.490 . S
C2944 C2946 1.395 . S
C2944 C2947 1.403 . S
H2945 C2951 0.930 . S
C2946 H2932 0.930 . S
C2946 C2944 1.395 . S
C2946 C2949 1.403 . S
C2947 C2944 1.403 . S
C2947 C2948 1.524 . S
C2947 C2951 1.400 . S
C2948 H2933 0.960 . S
C2948 H2934 0.960 . S
C2948 H2935 0.960 . S
C2948 C2947 1.524 . S
C2949 C2946 1.403 . S
C2949 C2950 1.392 . S
C2949 C2953 1.495 . S
C2950 C2949 1.392 . S
C2950 C2951 1.385 . S
C2950 C2952 1.478 . S
C2951 H2945 0.930 . S
C2951 C2947 1.400 . S
C2951 C2950 1.385 . S
C2952 C2950 1.478 . S
C2952 C2954 1.381 . S
C2952 C2958 1.383 . S
C2953 C2949 1.495 . S
C2953 H2959 0.959 . S
C2953 H2960 0.961 . S
C2953 H2961 0.960 . S
C2954 C2952 1.381 . S
C2954 C2955 1.394 . S
C2954 H2962 0.930 . S
C2955 C2954 1.394 . S
C2955 C2956 1.383 . S
C2955 H2963 0.929 . S
C2956 C2955 1.383 . S
C2956 C2957 1.377 . S
C2957 H2941 0.930 . S
C2957 C2956 1.377 . S
C2957 C2958 1.379 . S
C2958 H2942 0.931 . S
C2958 C2952 1.383 . S
C2958 C2957 1.379 . S
H2959 C2953 0.959 . S
H2960 C2953 0.961 . S
H2961 C2953 0.960 . S
H2962 C2954 0.930 . S
H2963 C2955 0.929 . S
H2964 C2972 0.929 . S
H2965 C2974 0.930 . S
H2966 C2976 0.930 . S
H2967 C2979 0.929 . S
H2968 C2982 0.930 . S
H2969 C2984 0.960 . S
H2970 C2984 0.960 . S
H2971 C2984 0.960 . S
C2972 H2964 0.929 . S
C2972 C2973 1.377 . S
C2972 C2974 1.384 . S
C2973 C2972 1.377 . S
C2973 C2979 1.390 . S
C2974 H2965 0.930 . S
C2974 C2972 1.384 . S
C2974 C2975 1.372 . S
C2975 C2974 1.372 . S
C2975 C2976 1.400 . S
C2975 C2980 1.490 . S
C2976 H2966 0.930 . S
C2976 C2975 1.400 . S
C2976 C2979 1.386 . S
H2977 C2993 0.930 . S
H2978 C2994 0.931 . S
C2979 H2967 0.929 . S
C2979 C2973 1.390 . S
C2979 C2976 1.386 . S
C2980 C2975 1.490 . S
C2980 C2982 1.395 . S
C2980 C2983 1.403 . S
H2981 C2987 0.930 . S
C2982 H2968 0.930 . S
C2982 C2980 1.395 . S
C2982 C2985 1.403 . S
C2983 C2980 1.403 . S
C2983 C2984 1.524 . S
C2983 C2987 1.400 . S
C2984 H2969 0.960 . S
C2984 H2970 0.960 . S
C2984 H2971 0.960 . S
C2984 C2983 1.524 . S
C2985 C2982 1.403 . S
C2985 C2986 1.392 . S
C2985 C2989 1.495 . S
C2986 C2985 1.392 . S
C2986 C2987 1.385 . S
C2986 C2988 1.478 . S
C2987 H2981 0.930 . S
C2987 C2983 1.400 . S
C2987 C2986 1.385 . S
C2988 C2986 1.478 . S
C2988 C2990 1.381 . S
C2988 C2994 1.383 . S
C2989 C2985 1.495 . S
C2989 H2995 0.959 . S
C2989 H2996 0.961 . S
C2989 H2997 0.960 . S
C2990 C2988 1.381 . S
C2990 C2991 1.394 . S
C2990 H2998 0.930 . S
C2991 C2990 1.394 . S
C2991 C2992 1.383 . S
C2991 H2999 0.929 . S
C2992 C2991 1.383 . S
C2992 C2993 1.377 . S
C2993 H2977 0.930 . S
C2993 C2992 1.377 . S
C2993 C2994 1.379 . S
C2994 H2978 0.931 . S
C2994 C2988 1.383 . S
C2994 C2993 1.379 . S
H2995 C2989 0.959 . S
H2996 C2989 0.961 . S
H2997 C2989 0.960 . S
H2998 C2990 0.930 . S
H2999 C2991 0.929 . S
H3000 C3008 0.929 . S
H3001 C3010 0.930 . S
H3002 C3012 0.930 . S
H3003 C3015 0.929 . S
H3004 C3018 0.930 . S
H3005 C3020 0.960 . S
H3006 C3020 0.960 . S
H3007 C3020 0.960 . S
C3008 H3000 0.929 . S
C3008 C3009 1.377 . S
C3008 C3010 1.384 . S
C3009 C3008 1.377 . S
C3009 C3015 1.390 . S
C3010 H3001 0.930 . S
C3010 C3008 1.384 . S
C3010 C3011 1.372 . S
C3011 C3010 1.372 . S
C3011 C3012 1.400 . S
C3011 C3016 1.490 . S
C3012 H3002 0.930 . S
C3012 C3011 1.400 . S
C3012 C3015 1.386 . S
H3013 C3029 0.930 . S
H3014 C3030 0.931 . S
C3015 H3003 0.929 . S
C3015 C3009 1.390 . S
C3015 C3012 1.386 . S
C3016 C3011 1.490 . S
C3016 C3018 1.395 . S
C3016 C3019 1.403 . S
H3017 C3023 0.930 . S
C3018 H3004 0.930 . S
C3018 C3016 1.395 . S
C3018 C3021 1.403 . S
C3019 C3016 1.403 . S
C3019 C3020 1.524 . S
C3019 C3023 1.400 . S
C3020 H3005 0.960 . S
C3020 H3006 0.960 . S
C3020 H3007 0.960 . S
C3020 C3019 1.524 . S
C3021 C3018 1.403 . S
C3021 C3022 1.392 . S
C3021 C3025 1.495 . S
C3022 C3021 1.392 . S
C3022 C3023 1.385 . S
C3022 C3024 1.478 . S
C3023 H3017 0.930 . S
C3023 C3019 1.400 . S
C3023 C3022 1.385 . S
C3024 C3022 1.478 . S
C3024 C3026 1.381 . S
C3024 C3030 1.383 . S
C3025 C3021 1.495 . S
C3025 H3031 0.959 . S
C3025 H3032 0.961 . S
C3025 H3033 0.960 . S
C3026 C3024 1.381 . S
C3026 C3027 1.394 . S
C3026 H3034 0.930 . S
C3027 C3026 1.394 . S
C3027 C3028 1.383 . S
C3027 H3035 0.929 . S
C3028 C3027 1.383 . S
C3028 C3029 1.377 . S
C3029 H3013 0.930 . S
C3029 C3028 1.377 . S
C3029 C3030 1.379 . S
C3030 H3014 0.931 . S
C3030 C3024 1.383 . S
C3030 C3029 1.379 . S
H3031 C3025 0.959 . S
H3032 C3025 0.961 . S
H3033 C3025 0.960 . S
H3034 C3026 0.930 . S
H3035 C3027 0.929 . S
H3036 C3044 0.929 . S
H3037 C3046 0.930 . S
H3038 C3048 0.930 . S
H3039 C3051 0.929 . S
H3040 C3054 0.930 . S
H3041 C3056 0.960 . S
H3042 C3056 0.960 . S
H3043 C3056 0.960 . S
C3044 H3036 0.929 . S
C3044 C3045 1.377 . S
C3044 C3046 1.384 . S
C3045 C3044 1.377 . S
C3045 C3051 1.390 . S
C3046 H3037 0.930 . S
C3046 C3044 1.384 . S
C3046 C3047 1.372 . S
C3047 C3046 1.372 . S
C3047 C3048 1.400 . S
C3047 C3052 1.490 . S
C3048 H3038 0.930 . S
C3048 C3047 1.400 . S
C3048 C3051 1.386 . S
H3049 C3065 0.930 . S
H3050 C3066 0.931 . S
C3051 H3039 0.929 . S
C3051 C3045 1.390 . S
C3051 C3048 1.386 . S
C3052 C3047 1.490 . S
C3052 C3054 1.395 . S
C3052 C3055 1.403 . S
H3053 C3059 0.930 . S
C3054 H3040 0.930 . S
C3054 C3052 1.395 . S
C3054 C3057 1.403 . S
C3055 C3052 1.403 . S
C3055 C3056 1.524 . S
C3055 C3059 1.400 . S
C3056 H3041 0.960 . S
C3056 H3042 0.960 . S
C3056 H3043 0.960 . S
C3056 C3055 1.524 . S
C3057 C3054 1.403 . S
C3057 C3058 1.392 . S
C3057 C3061 1.495 . S
C3058 C3057 1.392 . S
C3058 C3059 1.385 . S
C3058 C3060 1.478 . S
C3059 H3053 0.930 . S
C3059 C3055 1.400 . S
C3059 C3058 1.385 . S
C3060 C3058 1.478 . S
C3060 C3062 1.381 . S
C3060 C3066 1.383 . S
C3061 C3057 1.495 . S
C3061 H3067 0.959 . S
C3061 H3068 0.961 . S
C3061 H3069 0.960 . S
C3062 C3060 1.381 . S
C3062 C3063 1.394 . S
C3062 H3070 0.930 . S
C3063 C3062 1.394 . S
C3063 C3064 1.383 . S
C3063 H3071 0.929 . S
C3064 C3063 1.383 . S
C3064 C3065 1.377 . S
C3065 H3049 0.930 . S
C3065 C3064 1.377 . S
C3065 C3066 1.379 . S
C3066 H3050 0.931 . S
C3066 C3060 1.383 . S
C3066 C3065 1.379 . S
H3067 C3061 0.959 . S
H3068 C3061 0.961 . S
H3069 C3061 0.960 . S
H3070 C3062 0.930 . S
H3071 C3063 0.929 . S
H3072 C3080 0.929 . S
H3073 C3082 0.930 . S
H3074 C3084 0.930 . S
H3075 C3087 0.929 . S
H3076 C3090 0.930 . S
H3077 C3092 0.960 . S
H3078 C3092 0.960 . S
H3079 C3092 0.960 . S
C3080 H3072 0.929 . S
C3080 C3081 1.377 . S
C3080 C3082 1.384 . S
C3081 C3080 1.377 . S
C3081 C3087 1.390 . S
C3082 H3073 0.930 . S
C3082 C3080 1.384 . S
C3082 C3083 1.372 . S
C3083 C3082 1.372 . S
C3083 C3084 1.400 . S
C3083 C3088 1.490 . S
C3084 H3074 0.930 . S
C3084 C3083 1.400 . S
C3084 C3087 1.386 . S
H3085 C3101 0.930 . S
H3086 C3102 0.931 . S
C3087 H3075 0.929 . S
C3087 C3081 1.390 . S
C3087 C3084 1.386 . S
C3088 C3083 1.490 . S
C3088 C3090 1.395 . S
C3088 C3091 1.403 . S
H3089 C3095 0.930 . S
C3090 H3076 0.930 . S
C3090 C3088 1.395 . S
C3090 C3093 1.403 . S
C3091 C3088 1.403 . S
C3091 C3092 1.524 . S
C3091 C3095 1.400 . S
C3092 H3077 0.960 . S
C3092 H3078 0.960 . S
C3092 H3079 0.960 . S
C3092 C3091 1.524 . S
C3093 C3090 1.403 . S
C3093 C3094 1.392 . S
C3093 C3097 1.495 . S
C3094 C3093 1.392 . S
C3094 C3095 1.385 . S
C3094 C3096 1.478 . S
C3095 H3089 0.930 . S
C3095 C3091 1.400 . S
C3095 C3094 1.385 . S
C3096 C3094 1.478 . S
C3096 C3098 1.381 . S
C3096 C3102 1.383 . S
C3097 C3093 1.495 . S
C3097 H3103 0.959 . S
C3097 H3104 0.961 . S
C3097 H3105 0.960 . S
C3098 C3096 1.381 . S
C3098 C3099 1.394 . S
C3098 H3106 0.930 . S
C3099 C3098 1.394 . S
C3099 C3100 1.383 . S
C3099 H3107 0.929 . S
C3100 C3099 1.383 . S
C3100 C3101 1.377 . S
C3101 H3085 0.930 . S
C3101 C3100 1.377 . S
C3101 C3102 1.379 . S
C3102 H3086 0.931 . S
C3102 C3096 1.383 . S
C3102 C3101 1.379 . S
H3103 C3097 0.959 . S
H3104 C3097 0.961 . S
H3105 C3097 0.960 . S
H3106 C3098 0.930 . S
H3107 C3099 0.929 . S
H3108 C3116 0.929 . S
H3109 C3118 0.930 . S
H3110 C3120 0.930 . S
H3111 C3123 0.929 . S
H3112 C3126 0.930 . S
H3113 C3128 0.960 . S
H3114 C3128 0.960 . S
H3115 C3128 0.960 . S
C3116 H3108 0.929 . S
C3116 C3117 1.377 . S
C3116 C3118 1.384 . S
C3117 C3116 1.377 . S
C3117 C3123 1.390 . S
C3118 H3109 0.930 . S
C3118 C3116 1.384 . S
C3118 C3119 1.372 . S
C3119 C3118 1.372 . S
C3119 C3120 1.400 . S
C3119 C3124 1.490 . S
C3120 H3110 0.930 . S
C3120 C3119 1.400 . S
C3120 C3123 1.386 . S
H3121 C3137 0.930 . S
H3122 C3138 0.931 . S
C3123 H3111 0.929 . S
C3123 C3117 1.390 . S
C3123 C3120 1.386 . S
C3124 C3119 1.490 . S
C3124 C3126 1.395 . S
C3124 C3127 1.403 . S
H3125 C3131 0.930 . S
C3126 H3112 0.930 . S
C3126 C3124 1.395 . S
C3126 C3129 1.403 . S
C3127 C3124 1.403 . S
C3127 C3128 1.524 . S
C3127 C3131 1.400 . S
C3128 H3113 0.960 . S
C3128 H3114 0.960 . S
C3128 H3115 0.960 . S
C3128 C3127 1.524 . S
C3129 C3126 1.403 . S
C3129 C3130 1.392 . S
C3129 C3133 1.495 . S
C3130 C3129 1.392 . S
C3130 C3131 1.385 . S
C3130 C3132 1.478 . S
C3131 H3125 0.930 . S
C3131 C3127 1.400 . S
C3131 C3130 1.385 . S
C3132 C3130 1.478 . S
C3132 C3134 1.381 . S
C3132 C3138 1.383 . S
C3133 C3129 1.495 . S
C3133 H3139 0.959 . S
C3133 H3140 0.961 . S
C3133 H3141 0.960 . S
C3134 C3132 1.381 . S
C3134 C3135 1.394 . S
C3134 H3142 0.930 . S
C3135 C3134 1.394 . S
C3135 C3136 1.383 . S
C3135 H3143 0.929 . S
C3136 C3135 1.383 . S
C3136 C3137 1.377 . S
C3137 H3121 0.930 . S
C3137 C3136 1.377 . S
C3137 C3138 1.379 . S
C3138 H3122 0.931 . S
C3138 C3132 1.383 . S
C3138 C3137 1.379 . S
H3139 C3133 0.959 . S
H3140 C3133 0.961 . S
H3141 C3133 0.960 . S
H3142 C3134 0.930 . S
H3143 C3135 0.929 . S
C1425 C829 1.360 . S
C1444 C5 1.372 . S
C1461 C62 1.355 . S
C1480 C890 1.361 . S
C1497 C1114 1.543 . S
C1516 C170 1.544 . S
C1533 C210 1.915 . S
C1552 C800 1.911 . S
C1569 C859 1.918 . S
C1588 C288 1.914 . S
C1605 C328 1.549 . S
C1624 C937 1.545 . S
C1641 C359 1.364 . S
C1660 C1067 1.360 . S
C1677 C416 1.364 . S
C1696 C770 1.367 . S
C1713 C536 1.367 . S
C1732 C475 1.351 . S
C1749 C623 1.917 . S
C1768 C583 1.901 . S
C1785 C593 1.361 . S
C1804 C654 1.371 . S
C1821 C701 1.538 . S
C1840 C505 1.541 . S
C1857 C713 1.367 . S
C1876 C180 1.350 . S
C1893 C241 1.366 . S
C1912 C949 1.362 . S
C1929 C1036 1.915 . S
C1948 C92 1.911 . S
C1965 C64 1.806 . S
C1984 C1291 1.805 . S
C2001 C534 1.806 . S
C2020 C33 1.806 . S
C2037 C1409 1.973 . S
C2056 C229 1.964 . S
C2073 C652 1.243 . S
C2092 C121 1.237 . S
C2109 C1244 1.239 . S
C2128 C418 1.238 . S
C2145 C564 1.981 . S
C2164 C387 1.975 . S
C2181 C347 1.805 . S
C2200 C1362 1.808 . S
C2217 C239 1.801 . S
C2236 C682 1.808 . S
C2253 C918 1.807 . S
C2272 C1126 1.804 . S
C2289 C947 1.242 . S
C2308 C888 1.247 . S
C2325 C772 1.808 . S
C2344 C977 1.803 . S
C2361 C1173 1.976 . S
C2380 C819 1.972 . S
C2397 C151 1.812 . S
C2416 C1183 1.803 . S
C2433 C595 1.809 . S
C2452 C465 1.797 . S
C2469 C3 1.243 . S
C2488 C1301 1.233 . S
C2505 C1124 1.362 . S
C2524 C123 1.372 . S
C2541 C52 1.544 . S
C2560 C996 1.549 . S
C2577 C1154 1.918 . S
C2596 C406 1.913 . S
C2613 C760 1.541 . S
C2632 C446 1.541 . S
C2649 C298 1.364 . S
C2668 C1006 1.368 . S
C2685 C1242 1.361 . S
C2704 C1185 1.366 . S
C2721 C1390 1.916 . S
C2740 C1232 1.911 . S
C2757 C1303 1.370 . S
C2776 C1360 1.341 . S
C2793 C1272 1.547 . S
C2812 C1350 1.545 . S
C2829 C524 1.805 . S
C2848 C182 1.799 . S
C2865 C111 1.973 . S
C2884 C642 1.965 . S
C2901 C300 1.239 . S
C2920 C477 1.238 . S
C2937 C1213 1.982 . S
C2956 C269 1.978 . S
C2973 C357 1.801 . S
C2992 C1331 1.808 . S
C3009 C741 1.807 . S
C3028 C831 1.800 . S
C3045 C1065 1.238 . S
C3064 C711 1.227 . S
C3081 C1008 1.807 . S
C3100 C1095 1.804 . S
C3117 C878 1.978 . S
C3136 C1055 1.966 . S
