# Generated by pormake.
# Topology gsi, (4)-cn, num edge types: 1
# Building blocks:
#     Node 0, Type 0, BuildingBlock: TATPOV_clean_sbu_0, # of connection points: 4
#     Node 1, Type 0, BuildingBlock: TATPOV_clean_sbu_0, # of connection points: 4
#     Node 2, Type 0, BuildingBlock: TATPOV_clean_sbu_0, # of connection points: 4
#     Node 3, Type 0, BuildingBlock: TATPOV_clean_sbu_0, # of connection points: 4
#     Node 4, Type 0, BuildingBlock: TATPOV_clean_sbu_0, # of connection points: 4
#     Node 5, Type 0, BuildingBlock: TATPOV_clean_sbu_0, # of connection points: 4
#     Node 6, Type 0, BuildingBlock: TATPOV_clean_sbu_0, # of connection points: 4
#     Node 7, Type 0, BuildingBlock: TATPOV_clean_sbu_0, # of connection points: 4
#     Node 8, Type 0, BuildingBlock: TATPOV_clean_sbu_0, # of connection points: 4
#     Node 9, Type 0, BuildingBlock: TATPOV_clean_sbu_0, # of connection points: 4
#     Node 10, Type 0, BuildingBlock: TATPOV_clean_sbu_0, # of connection points: 4
#     Node 11, Type 0, BuildingBlock: TATPOV_clean_sbu_0, # of connection points: 4
#     Node 12, Type 0, BuildingBlock: TATPOV_clean_sbu_0, # of connection points: 4
#     Node 13, Type 0, BuildingBlock: TATPOV_clean_sbu_0, # of connection points: 4
#     Node 14, Type 0, BuildingBlock: TATPOV_clean_sbu_0, # of connection points: 4
#     Node 15, Type 0, BuildingBlock: TATPOV_clean_sbu_0, # of connection points: 4
#     Edge 16, Type (0, 0), BuildingBlock: CIFDUS_clean_linker_0, # of connection points: 2
#     Edge 17, Type (0, 0), BuildingBlock: CIFDUS_clean_linker_0, # of connection points: 2
#     Edge 18, Type (0, 0), BuildingBlock: CIFDUS_clean_linker_0, # of connection points: 2
#     Edge 19, Type (0, 0), BuildingBlock: CIFDUS_clean_linker_0, # of connection points: 2
#     Edge 20, Type (0, 0), BuildingBlock: CIFDUS_clean_linker_0, # of connection points: 2
#     Edge 21, Type (0, 0), BuildingBlock: CIFDUS_clean_linker_0, # of connection points: 2
#     Edge 22, Type (0, 0), BuildingBlock: CIFDUS_clean_linker_0, # of connection points: 2
#     Edge 23, Type (0, 0), BuildingBlock: CIFDUS_clean_linker_0, # of connection points: 2
#     Edge 24, Type (0, 0), BuildingBlock: CIFDUS_clean_linker_0, # of connection points: 2
#     Edge 25, Type (0, 0), BuildingBlock: CIFDUS_clean_linker_0, # of connection points: 2
#     Edge 26, Type (0, 0), BuildingBlock: CIFDUS_clean_linker_0, # of connection points: 2
#     Edge 27, Type (0, 0), BuildingBlock: CIFDUS_clean_linker_0, # of connection points: 2
#     Edge 28, Type (0, 0), BuildingBlock: CIFDUS_clean_linker_0, # of connection points: 2
#     Edge 29, Type (0, 0), BuildingBlock: CIFDUS_clean_linker_0, # of connection points: 2
#     Edge 30, Type (0, 0), BuildingBlock: CIFDUS_clean_linker_0, # of connection points: 2
#     Edge 31, Type (0, 0), BuildingBlock: CIFDUS_clean_linker_0, # of connection points: 2
#     Edge 32, Type (0, 0), BuildingBlock: CIFDUS_clean_linker_0, # of connection points: 2
#     Edge 33, Type (0, 0), BuildingBlock: CIFDUS_clean_linker_0, # of connection points: 2
#     Edge 34, Type (0, 0), BuildingBlock: CIFDUS_clean_linker_0, # of connection points: 2
#     Edge 35, Type (0, 0), BuildingBlock: CIFDUS_clean_linker_0, # of connection points: 2
#     Edge 36, Type (0, 0), BuildingBlock: CIFDUS_clean_linker_0, # of connection points: 2
#     Edge 37, Type (0, 0), BuildingBlock: CIFDUS_clean_linker_0, # of connection points: 2
#     Edge 38, Type (0, 0), BuildingBlock: CIFDUS_clean_linker_0, # of connection points: 2
#     Edge 39, Type (0, 0), BuildingBlock: CIFDUS_clean_linker_0, # of connection points: 2
#     Edge 40, Type (0, 0), BuildingBlock: CIFDUS_clean_linker_0, # of connection points: 2
#     Edge 41, Type (0, 0), BuildingBlock: CIFDUS_clean_linker_0, # of connection points: 2
#     Edge 42, Type (0, 0), BuildingBlock: CIFDUS_clean_linker_0, # of connection points: 2
#     Edge 43, Type (0, 0), BuildingBlock: CIFDUS_clean_linker_0, # of connection points: 2
#     Edge 44, Type (0, 0), BuildingBlock: CIFDUS_clean_linker_0, # of connection points: 2
#     Edge 45, Type (0, 0), BuildingBlock: CIFDUS_clean_linker_0, # of connection points: 2
#     Edge 46, Type (0, 0), BuildingBlock: CIFDUS_clean_linker_0, # of connection points: 2
#     Edge 47, Type (0, 0), BuildingBlock: CIFDUS_clean_linker_0, # of connection points: 2
# Relax obj value: 0.040
# Max RMSD: 0.070
# Mean RMSD: 0.054
data_MOF--net-gsi--node1-TATPOV_clean_sbu_0--edge1-CIFDUS_clean_linker_0
_symmetry_space_group_name_H-M    P1
_symmetry_Int_Tables_number       1
_symmetry_cell_setting            triclinic
loop_
_symmetry_equiv_pos_as_xyz
'x, y, z'
_cell_length_a     36.641547
_cell_length_b     37.629253
_cell_length_c     37.712729
_cell_angle_alpha  90.80529
_cell_angle_beta   90.091636
_cell_angle_gamma 93.149495
loop_
_atom_site_label
_atom_site_type_symbol
_atom_site_fract_x
_atom_site_fract_y
_atom_site_fract_z
_atom_type_partial_charge
Zn0 Zn 0.09902 0.12215 0.21022 0.0
Zn1 Zn 0.13939 0.11126 0.15182 0.0
O2 O 0.13223 0.06216 0.17551 0.0
O3 O 0.09764 0.07065 0.22221 0.0
O4 O 0.1667 0.10139 0.10643 0.0
O5 O 0.05948 0.14164 0.18066 0.0
O6 O 0.09536 0.13804 0.13409 0.0
C7 C 0.1157 0.05017 0.20299 0.0
C8 C 0.1709 0.15911 0.21092 0.0
O9 O 0.17399 0.14409 0.18073 0.0
O10 O 0.14162 0.15449 0.22857 0.0
C11 C 0.20101 0.10672 0.10211 0.0
O12 O 0.22143 0.11856 0.12887 0.0
C13 C 0.06571 0.14723 0.1482 0.0
Zn14 Zn 0.93292 0.34427 0.21835 0.0
Zn15 Zn 0.88991 0.35038 0.15951 0.0
O16 O 0.89984 0.40144 0.17811 0.0
O17 O 0.93372 0.39756 0.22599 0.0
O18 O 0.85767 0.35595 0.11684 0.0
O19 O 0.97002 0.3225 0.1861 0.0
O20 O 0.93243 0.32273 0.14037 0.0
C21 C 0.91676 0.41622 0.20443 0.0
C22 C 0.86144 0.30752 0.22293 0.0
O23 O 0.85763 0.32082 0.1924 0.0
O24 O 0.8913 0.31276 0.23976 0.0
C25 C 0.86588 0.38006 0.09455 0.0
O26 O 0.89551 0.40076 0.09982 0.0
C27 C 0.96262 0.31473 0.154 0.0
Zn28 Zn 0.23543 0.87155 0.36304 0.0
Zn29 Zn 0.17345 0.83677 0.38083 0.0
O30 O 0.19949 0.84716 0.42942 0.0
O31 O 0.2463 0.88287 0.41412 0.0
O32 O 0.12462 0.81089 0.39168 0.0
O33 O 0.2082 0.90372 0.33202 0.0
O34 O 0.15656 0.87956 0.3527 0.0
C35 C 0.22767 0.86699 0.43794 0.0
C36 C 0.23159 0.80146 0.33538 0.0
O37 O 0.19949 0.80172 0.34835 0.0
O38 O 0.25408 0.82778 0.34036 0.0
C39 C 0.12021 0.7772 0.3936 0.0
O40 O 0.1489 0.75787 0.39098 0.0
C41 C 0.17366 0.90214 0.33309 0.0
Zn42 Zn 0.80221 0.60973 0.34389 0.0
Zn43 Zn 0.85837 0.64995 0.36138 0.0
O44 O 0.83422 0.63575 0.40972 0.0
O45 O 0.79311 0.59389 0.39345 0.0
O46 O 0.90549 0.67807 0.37469 0.0
O47 O 0.82935 0.58091 0.3093 0.0
O48 O 0.87883 0.60881 0.33128 0.0
C49 C 0.80931 0.61211 0.41776 0.0
C50 C 0.79422 0.68082 0.32292 0.0
O51 O 0.8276 0.68479 0.33264 0.0
O52 O 0.77657 0.65136 0.327 0.0
C53 C 0.9091 0.71166 0.37916 0.0
O54 O 0.88025 0.73067 0.37624 0.0
C55 C 0.86376 0.58507 0.31078 0.0
Zn56 Zn 0.43092 0.8282 0.72231 0.0
Zn57 Zn 0.38667 0.84292 0.66647 0.0
O58 O 0.39887 0.89136 0.69106 0.0
O59 O 0.43525 0.88019 0.73568 0.0
O60 O 0.35227 0.85319 0.62639 0.0
O61 O 0.46557 0.80875 0.68657 0.0
O62 O 0.42858 0.818 0.64177 0.0
C63 C 0.41799 0.90208 0.71784 0.0
C64 C 0.35873 0.79399 0.72624 0.0
O65 O 0.35467 0.81017 0.69722 0.0
O66 O 0.3891 0.79672 0.74246 0.0
C67 C 0.35507 0.88167 0.60867 0.0
O68 O 0.38137 0.90565 0.61651 0.0
C69 C 0.45827 0.80681 0.65376 0.0
Zn70 Zn 0.90044 0.84938 0.82347 0.0
Zn71 Zn 0.86149 0.86064 0.88036 0.0
O72 O 0.9083 0.83692 0.899 0.0
O73 O 0.94046 0.82944 0.85038 0.0
O74 O 0.83228 0.87106 0.92511 0.0
O75 O 0.90476 0.8998 0.80926 0.0
O76 O 0.86485 0.90832 0.85178 0.0
C77 C 0.93687 0.82652 0.88349 0.0
C78 C 0.83022 0.81072 0.82291 0.0
O79 O 0.82758 0.82484 0.85358 0.0
O80 O 0.85854 0.81727 0.80436 0.0
C81 C 0.81461 0.84552 0.94045 0.0
O82 O 0.81658 0.81309 0.92748 0.0
C83 C 0.88348 0.91983 0.82522 0.0
Zn84 Zn 0.09809 0.66204 0.78586 0.0
Zn85 Zn 0.13875 0.64736 0.84355 0.0
O86 O 0.09675 0.67403 0.86605 0.0
O87 O 0.06033 0.67977 0.82007 0.0
O88 O 0.16953 0.63476 0.88574 0.0
O89 O 0.09644 0.61049 0.77058 0.0
O90 O 0.12442 0.59857 0.82048 0.0
C91 C 0.06688 0.68362 0.85293 0.0
C92 C 0.17016 0.69587 0.78474 0.0
O93 O 0.17359 0.67846 0.81315 0.0
O94 O 0.13981 0.69472 0.76852 0.0
C95 C 0.19589 0.65505 0.89748 0.0
O96 O 0.20365 0.6855 0.88183 0.0
C97 C 0.10917 0.58817 0.79142 0.0
Zn98 Zn 0.75885 0.08746 0.64023 0.0
Zn99 Zn 0.83022 0.11139 0.63483 0.0
O100 O 0.83215 0.06682 0.6663 0.0
O101 O 0.77463 0.04685 0.66967 0.0
O102 O 0.88235 0.1327 0.63348 0.0
O103 O 0.7564 0.08529 0.58674 0.0
O104 O 0.81363 0.10595 0.58246 0.0
C105 C 0.80779 0.04476 0.67853 0.0
C106 C 0.77355 0.15548 0.67304 0.0
O107 O 0.80551 0.15046 0.66159 0.0
O108 O 0.74762 0.13253 0.66705 0.0
C109 C 0.89803 0.13615 0.66353 0.0
O110 O 0.88061 0.12384 0.69162 0.0
C111 C 0.78343 0.09548 0.56781 0.0
Zn112 Zn 0.11098 0.31963 0.72601 0.0
Zn113 Zn 0.13229 0.33099 0.66047 0.0
O114 O 0.08762 0.29455 0.65296 0.0
O115 O 0.07428 0.28202 0.70848 0.0
O116 O 0.15445 0.33942 0.61156 0.0
O117 O 0.09834 0.36979 0.73278 0.0
O118 O 0.12033 0.38142 0.6796 0.0
C119 C 0.06861 0.27671 0.67566 0.0
C120 C 0.18397 0.30352 0.718 0.0
O121 O 0.17625 0.3101 0.68589 0.0
O122 O 0.16036 0.30686 0.74201 0.0
C123 C 0.17109 0.31385 0.59773 0.0
O124 O 0.17005 0.28322 0.61412 0.0
C125 C 0.1069 0.39198 0.70893 0.0
Zn126 Zn 0.60125 0.17087 0.27445 0.0
Zn127 Zn 0.64249 0.14489 0.32626 0.0
O128 O 0.60046 0.16835 0.35327 0.0
O129 O 0.56837 0.19151 0.3107 0.0
O130 O 0.6696 0.12347 0.36688 0.0
O131 O 0.58984 0.12163 0.25475 0.0
O132 O 0.62794 0.10137 0.29408 0.0
C133 C 0.57378 0.1861 0.34324 0.0
C134 C 0.67615 0.19956 0.27508 0.0
O135 O 0.67912 0.18039 0.30244 0.0
O136 O 0.6461 0.1994 0.25841 0.0
C137 C 0.70235 0.13089 0.37691 0.0
O138 O 0.72286 0.15417 0.35918 0.0
C139 C 0.60659 0.09624 0.26753 0.0
Zn140 Zn 0.61771 0.64349 0.71184 0.0
Zn141 Zn 0.66162 0.63444 0.65409 0.0
O142 O 0.65659 0.58519 0.67768 0.0
O143 O 0.62084 0.59228 0.72389 0.0
O144 O 0.69531 0.62715 0.61205 0.0
O145 O 0.57902 0.65803 0.67817 0.0
O146 O 0.61562 0.65455 0.63197 0.0
C147 C 0.64007 0.57262 0.70493 0.0
C148 C 0.68466 0.68666 0.71474 0.0
O149 O 0.68967 0.67131 0.68502 0.0
O150 O 0.65563 0.67973 0.73211 0.0
C151 C 0.72883 0.63816 0.61168 0.0
O152 O 0.74326 0.65432 0.63984 0.0
C153 C 0.58488 0.66156 0.64532 0.0
Zn154 Zn 0.74203 0.36833 0.84766 0.0
Zn155 Zn 0.67731 0.34237 0.86983 0.0
O156 O 0.70712 0.34993 0.91672 0.0
O157 O 0.75846 0.37627 0.89775 0.0
O158 O 0.62707 0.32211 0.88428 0.0
O159 O 0.71841 0.4059 0.8206 0.0
O160 O 0.66509 0.3877 0.84272 0.0
C161 C 0.73874 0.3647 0.92304 0.0
C162 C 0.72513 0.29978 0.81919 0.0
O163 O 0.69538 0.30383 0.83583 0.0
O164 O 0.75111 0.32324 0.82167 0.0
C165 C 0.61947 0.2888 0.88654 0.0
O166 O 0.64557 0.26666 0.8817 0.0
C167 C 0.68432 0.40886 0.82323 0.0
Zn168 Zn 0.29424 0.11577 0.84165 0.0
Zn169 Zn 0.36144 0.13911 0.85964 0.0
O170 O 0.33691 0.12824 0.90835 0.0
O171 O 0.28187 0.10732 0.89264 0.0
O172 O 0.41361 0.15601 0.87148 0.0
O173 O 0.31217 0.07778 0.81046 0.0
O174 O 0.36834 0.0958 0.82565 0.0
C175 C 0.30506 0.11556 0.91669 0.0
C176 C 0.31072 0.18674 0.81961 0.0
O177 O 0.34134 0.18253 0.83455 0.0
O178 O 0.28581 0.16216 0.81933 0.0
C179 C 0.42194 0.18771 0.88202 0.0
O180 O 0.39575 0.20974 0.88695 0.0
C181 C 0.34627 0.07503 0.80781 0.0
Zn182 Zn 0.38529 0.32615 0.31457 0.0
Zn183 Zn 0.34808 0.3351 0.3745 0.0
O184 O 0.39782 0.31656 0.39179 0.0
O185 O 0.42802 0.31115 0.3416 0.0
O186 O 0.31756 0.33849 0.41945 0.0
O187 O 0.38161 0.37701 0.30256 0.0
O188 O 0.34846 0.38483 0.35051 0.0
C189 C 0.42654 0.30878 0.37494 0.0
C190 C 0.31928 0.28304 0.31572 0.0
O191 O 0.31662 0.29819 0.34592 0.0
O192 O 0.34692 0.29007 0.29645 0.0
C193 C 0.31165 0.30901 0.43517 0.0
O194 O 0.32684 0.28073 0.42233 0.0
C195 C 0.3631 0.39688 0.322 0.0
Zn196 Zn 0.25141 0.5794 0.15808 0.0
Zn197 Zn 0.3158 0.61593 0.1471 0.0
O198 O 0.33223 0.57195 0.17378 0.0
O199 O 0.27895 0.5454 0.18724 0.0
O200 O 0.36219 0.64683 0.13889 0.0
O201 O 0.2438 0.57368 0.10531 0.0
O202 O 0.29299 0.60887 0.09709 0.0
C203 C 0.31346 0.54762 0.18988 0.0
C204 C 0.25438 0.64678 0.19231 0.0
O205 O 0.28693 0.64736 0.18036 0.0
O206 O 0.23187 0.62117 0.1844 0.0
C207 C 0.39299 0.6359 0.12933 0.0
O208 O 0.39627 0.60169 0.12369 0.0
C209 C 0.26506 0.59109 0.08466 0.0
Zn210 Zn 0.57942 0.82952 0.21656 0.0
Zn211 Zn 0.62339 0.82573 0.16134 0.0
O212 O 0.5746 0.79662 0.14648 0.0
O213 O 0.53786 0.8039 0.19195 0.0
O214 O 0.65572 0.82259 0.11734 0.0
O215 O 0.58245 0.88223 0.21698 0.0
O216 O 0.62119 0.88018 0.17243 0.0
C217 C 0.54346 0.79129 0.16137 0.0
C218 C 0.64509 0.79408 0.23196 0.0
O219 O 0.65273 0.80112 0.19975 0.0
O220 O 0.61506 0.80286 0.24513 0.0
C221 C 0.67867 0.84697 0.10703 0.0
O222 O 0.68222 0.87699 0.12521 0.0
C223 C 0.60355 0.89799 0.19511 0.0
H224 H 0.17658 0.18923 0.27684 0.0
H225 H 0.23502 0.17892 0.17815 0.0
H226 H 0.28649 0.2152 0.20246 0.0
H227 H 0.31451 0.25047 0.25114 0.0
H228 H 0.25631 0.26125 0.34988 0.0
H229 H 0.2052 0.22385 0.32608 0.0
C230 C 0.20054 0.19496 0.2606 0.0
C231 C 0.20186 0.18144 0.22569 0.0
C232 C 0.23012 0.21578 0.27475 0.0
C233 C 0.23322 0.18897 0.2051 0.0
C234 C 0.26271 0.20971 0.21897 0.0
C235 C 0.29076 0.24452 0.26759 0.0
C236 C 0.28924 0.25871 0.30221 0.0
C237 C 0.26142 0.22327 0.25371 0.0
C238 C 0.2582 0.25071 0.32311 0.0
C239 C 0.22891 0.22939 0.30951 0.0
H240 H 0.79284 0.29875 0.19688 0.0
H241 H 0.86058 0.26814 0.28383 0.0
H242 H 0.80908 0.23206 0.30809 0.0
H243 H 0.74478 0.20872 0.30389 0.0
H244 H 0.67823 0.24072 0.21642 0.0
H245 H 0.72947 0.27676 0.19321 0.0
C246 C 0.79651 0.2842 0.22115 0.0
C247 C 0.83057 0.28604 0.23841 0.0
C248 C 0.76696 0.26373 0.23489 0.0
C249 C 0.83462 0.26718 0.26998 0.0
C250 C 0.80521 0.24652 0.28385 0.0
C251 C 0.74151 0.22361 0.2798 0.0
C252 C 0.70766 0.22185 0.26194 0.0
C253 C 0.77124 0.24452 0.26643 0.0
C254 C 0.7039 0.24145 0.23077 0.0
C255 C 0.73321 0.26212 0.21738 0.0
H256 H 0.29912 0.69582 0.2263 0.0
H257 H 0.1858 0.65905 0.21643 0.0
H258 H 0.16895 0.70223 0.26166 0.0
H259 H 0.18644 0.75076 0.30363 0.0
H260 H 0.29993 0.78719 0.31307 0.0
H261 H 0.31668 0.74329 0.26875 0.0
C262 C 0.27068 0.6974 0.23381 0.0
C263 C 0.24375 0.67442 0.21786 0.0
C264 C 0.26125 0.72191 0.26006 0.0
C265 C 0.20708 0.67655 0.22822 0.0
C266 C 0.19742 0.70112 0.25418 0.0
C267 C 0.21488 0.74879 0.29629 0.0
C268 C 0.24186 0.7722 0.3116 0.0
C269 C 0.22431 0.72384 0.27037 0.0
C270 C 0.27858 0.76952 0.30162 0.0
C271 C 0.28821 0.74453 0.27618 0.0
H272 H 0.72601 0.69719 0.33716 0.0
H273 H 0.81855 0.72805 0.27206 0.0
H274 H 0.78043 0.76716 0.23779 0.0
H275 H 0.71885 0.78804 0.2235 0.0
H276 H 0.62771 0.75665 0.29081 0.0
H277 H 0.6672 0.72209 0.32699 0.0
C278 C 0.73796 0.71295 0.31579 0.0
C279 C 0.77475 0.70974 0.30683 0.0
C280 C 0.71598 0.7348 0.29634 0.0
C281 C 0.79022 0.73041 0.27945 0.0
C282 C 0.76834 0.75239 0.25969 0.0
C283 C 0.70778 0.77368 0.24615 0.0
C284 C 0.67029 0.77456 0.25416 0.0
C285 C 0.73088 0.75402 0.26733 0.0
C286 C 0.65639 0.75635 0.28394 0.0
C287 C 0.67894 0.73655 0.30471 0.0
H288 H 0.28917 0.78826 0.70136 0.0
H289 H 0.35768 0.75295 0.78574 0.0
H290 H 0.30521 0.71988 0.81159 0.0
H291 H 0.23991 0.70118 0.81022 0.0
H292 H 0.17181 0.73707 0.72574 0.0
H293 H 0.22426 0.7699 0.70009 0.0
C294 C 0.29276 0.77325 0.72535 0.0
C295 C 0.32736 0.77305 0.74152 0.0
C296 C 0.26253 0.75453 0.74016 0.0
C297 C 0.33137 0.75356 0.7727 0.0
C298 C 0.30137 0.73468 0.78754 0.0
C299 C 0.23648 0.71627 0.78627 0.0
C300 C 0.20192 0.71663 0.76997 0.0
C301 C 0.26681 0.73505 0.77153 0.0
C302 C 0.19805 0.73628 0.73888 0.0
C303 C 0.22805 0.75505 0.72412 0.0
H304 H 0.68964 0.71444 0.78177 0.0
H305 H 0.74503 0.71447 0.68075 0.0
H306 H 0.79499 0.75227 0.70558 0.0
H307 H 0.82344 0.78449 0.75587 0.0
H308 H 0.76842 0.78538 0.85703 0.0
H309 H 0.71781 0.74795 0.83215 0.0
C310 C 0.71252 0.72291 0.76513 0.0
C311 C 0.71367 0.71142 0.72952 0.0
C312 C 0.74131 0.74463 0.7796 0.0
C313 C 0.74357 0.72259 0.70834 0.0
C314 C 0.77218 0.74426 0.72249 0.0
C315 C 0.80046 0.77644 0.77258 0.0
C316 C 0.79981 0.78758 0.80828 0.0
C317 C 0.77146 0.75518 0.75812 0.0
C318 C 0.76965 0.77712 0.82944 0.0
C319 C 0.74067 0.75576 0.81524 0.0
H320 H 0.78051 0.28984 0.77361 0.0
H321 H 0.67708 0.24208 0.80847 0.0
H322 H 0.68186 0.1941 0.76453 0.0
H323 H 0.71584 0.16573 0.71658 0.0
H324 H 0.81928 0.21424 0.68255 0.0
H325 H 0.81363 0.26244 0.72562 0.0
C326 C 0.75903 0.26887 0.77184 0.0
C327 C 0.72859 0.26943 0.79443 0.0
C328 C 0.76173 0.24178 0.74641 0.0
C329 C 0.70091 0.24217 0.79149 0.0
C330 C 0.70354 0.21484 0.76629 0.0
C331 C 0.73691 0.18709 0.71829 0.0
C332 C 0.7679 0.18644 0.69635 0.0
C333 C 0.73379 0.21448 0.74352 0.0
C334 C 0.79515 0.21411 0.69912 0.0
C335 C 0.79204 0.2416 0.72383 0.0
H336 H 0.22123 0.31299 0.77946 0.0
H337 H 0.2243 0.25994 0.67748 0.0
H338 H 0.27216 0.22269 0.69882 0.0
H339 H 0.30235 0.19713 0.75018 0.0
H340 H 0.29833 0.24933 0.8523 0.0
H341 H 0.26225 0.29581 0.82716 0.0
C342 C 0.23314 0.29389 0.76169 0.0
C343 C 0.21883 0.28843 0.72734 0.0
C344 C 0.26025 0.27243 0.77427 0.0
C345 C 0.23478 0.26427 0.70417 0.0
C346 C 0.26195 0.24286 0.71643 0.0
C347 C 0.29488 0.21964 0.7664 0.0
C348 C 0.30268 0.22017 0.80283 0.0
C349 C 0.27343 0.24551 0.75193 0.0
C350 C 0.29278 0.24891 0.82406 0.0
C351 C 0.27178 0.27511 0.80978 0.0
H352 H 0.19367 0.92324 0.26787 0.0
H353 H 0.10849 0.93207 0.34574 0.0
H354 H 0.07901 0.97528 0.30865 0.0
H355 H 0.08211 0.0154 0.25771 0.0
H356 H 0.16763 0.0059 0.17998 0.0
H357 H 0.19165 0.95696 0.21288 0.0
C358 C 0.16851 0.93451 0.27659 0.0
C359 C 0.15366 0.92538 0.30977 0.0
C360 C 0.15172 0.95888 0.25508 0.0
C361 C 0.12056 0.93919 0.32043 0.0
C362 C 0.10377 0.9638 0.29925 0.0
C363 C 0.10553 0.00212 0.24752 0.0
C364 C 0.12349 0.01479 0.2168 0.0
C365 C 0.11971 0.97453 0.26699 0.0
C366 C 0.1534 -0.00311 0.20364 0.0
C367 C 0.16741 0.96912 0.22264 0.0
H368 H 0.95049 0.45707 0.25645 0.0
H369 H 0.87065 0.46037 0.17229 0.0
H370 H 0.85049 0.51661 0.19572 0.0
H371 H 0.84841 0.55894 0.24549 0.0
H372 H 0.92761 0.5563 0.32989 0.0
H373 H 0.95553 0.50587 0.30075 0.0
C374 C 0.92923 0.47047 0.24277 0.0
C375 C 0.91148 0.45404 0.21318 0.0
C376 C 0.91734 0.50264 0.25669 0.0
C377 C 0.88448 0.47212 0.19538 0.0
C378 C 0.87275 0.50423 0.20886 0.0
C379 C 0.87226 0.54772 0.25708 0.0
C380 C 0.88561 0.56064 0.28999 0.0
C381 C 0.88784 0.51878 0.24037 0.0
C382 C 0.91687 0.54655 0.30458 0.0
C383 C 0.93263 0.51762 0.28805 0.0
H384 H 0.24101 0.08637 0.94125 0.0
H385 H 0.34305 0.13786 0.97674 0.0
H386 H 0.32065 0.13759 0.03792 0.0
H387 H 0.2703 0.12634 0.08053 0.0
H388 H 0.168 0.07648 0.04347 0.0
H389 H 0.19247 0.07251 0.98363 0.0
C390 C 0.25859 0.09736 0.96231 0.0
C391 C 0.2936 0.11237 0.95429 0.0
C392 C 0.24538 0.0976 0.99715 0.0
C393 C 0.31597 0.12619 0.9821 0.0
C394 C 0.30311 0.12615 0.01707 0.0
C395 C 0.25347 0.11431 0.05943 0.0
C396 C 0.21723 0.10196 0.0665 0.0
C397 C 0.26759 0.11248 0.02481 0.0
C398 C 0.19585 0.08644 0.03881 0.0
C399 C 0.20982 0.08414 1.00453 0.0
H400 H 0.80131 0.34411 0.07699 0.0
H401 H 0.87984 0.42484 0.0396 0.0
H402 H 0.84548 0.42903 0.98466 0.0
H403 H 0.79579 0.4074 0.94577 0.0
H404 H 0.71685 0.32657 0.98171 0.0
H405 H 0.74844 0.32525 0.03903 0.0
C406 C 0.8108 0.36274 0.05689 0.0
C407 C 0.84339 0.38384 0.0623 0.0
C408 C 0.79086 0.36504 0.02517 0.0
C409 C 0.85505 0.4081 0.03612 0.0
C410 C 0.83541 0.41054 1.00465 0.0
C411 C 0.78525 0.38962 0.96619 0.0
C412 C 0.75424 0.36682 0.95934 0.0
C413 C 0.80368 0.38877 0.99869 0.0
C414 C 0.74067 0.34438 0.98631 0.0
C415 C 0.75887 0.34347 0.01898 0.0
H416 H 0.29496 0.84007 0.58827 0.0
H417 H 0.35979 0.93485 0.56031 0.0
H418 H 0.32305 0.94074 0.50702 0.0
H419 H 0.27637 0.91631 0.46585 0.0
H420 H 0.21153 0.8213 0.49257 0.0
H421 H 0.24392 0.81865 0.54927 0.0
C422 C 0.30089 0.86216 0.57066 0.0
C423 C 0.33049 0.8867 0.57808 0.0
C424 C 0.27963 0.8654 0.53988 0.0
C425 C 0.33743 0.91542 0.55519 0.0
C426 C 0.31641 0.91883 0.52465 0.0
C427 C 0.26893 0.89523 0.48425 0.0
C428 C 0.24184 0.8688 0.47479 0.0
C429 C 0.288 0.89358 0.51638 0.0
C430 C 0.23224 0.84199 0.49917 0.0
C431 C 0.25098 0.84031 0.53147 0.0
H432 H 0.71718 0.59105 0.55718 0.0
H433 H 0.79018 0.67793 0.59328 0.0
H434 H 0.82396 0.67579 0.53751 0.0
H435 H 0.82977 0.65208 0.47655 0.0
H436 H 0.75728 0.56397 0.44178 0.0
H437 H 0.7269 0.56347 0.49899 0.0
C438 C 0.7406 0.60937 0.55289 0.0
C439 C 0.75085 0.63487 0.57908 0.0
C440 C 0.76011 0.60779 0.52095 0.0
C441 C 0.78164 0.65808 0.57344 0.0
C442 C 0.80096 0.65693 0.54152 0.0
C443 C 0.80774 0.6324 0.48169 0.0
C444 C 0.79563 0.60846 0.45461 0.0
C445 C 0.79007 0.63226 0.51481 0.0
C446 C 0.76709 0.58301 0.4619 0.0
C447 C 0.7495 0.58271 0.49465 0.0
H448 H 0.94233 0.24941 0.1302 0.0
H449 H 0.03509 0.32426 0.13979 0.0
H450 H 0.07654 0.2768 0.12725 0.0
H451 H 0.0862 0.21294 0.1285 0.0
H452 H 0.99355 0.13765 0.13179 0.0
H453 H 0.95203 0.18569 0.12329 0.0
C454 C 0.97155 0.25538 0.128 0.0
C455 C 0.9859 0.29002 0.13554 0.0
C456 C 0.99513 0.22752 0.1236 0.0
C457 C 0.02371 0.29768 0.13373 0.0
C458 C 0.04731 0.27051 0.12689 0.0
C459 C 0.05699 0.20706 0.12567 0.0
C460 C 0.04271 0.17207 0.13027 0.0
C461 C 0.0334 0.23509 0.12387 0.0
C462 C 0.0049 0.16449 0.12779 0.0
C463 C 0.98125 0.19199 0.1234 0.0
H464 H 0.97392 0.6802 0.38691 0.0
H465 H 0.92722 0.78302 0.38505 0.0
H466 H 0.98806 0.81231 0.3913 0.0
H467 H 0.05485 0.80889 0.39432 0.0
H468 H 0.10143 0.70598 0.39565 0.0
H469 H 0.04038 0.67675 0.39284 0.0
C470 C 0.97696 0.70902 0.38807 0.0
C471 C 0.94592 0.72931 0.38528 0.0
C472 C 0.0121 0.72577 0.39151 0.0
C473 C 0.95053 0.76666 0.38702 0.0
C474 C 0.98537 0.78348 0.39056 0.0
C475 C 0.05169 0.78006 0.39431 0.0
C476 C 0.08285 0.75973 0.39503 0.0
C477 C 0.01641 0.76333 0.3924 0.0
C478 C 0.07807 0.72238 0.39503 0.0
C479 C 0.0431 0.70558 0.39334 0.0
H480 H 0.59439 0.72711 0.61955 0.0
H481 H 0.51499 0.63933 0.62998 0.0
H482 H 0.46529 0.67927 0.62195 0.0
H483 H 0.4457 0.74014 0.62991 0.0
H484 H 0.52588 0.82807 0.6309 0.0
H485 H 0.57393 0.78788 0.61567 0.0
C486 C 0.56621 0.71664 0.61812 0.0
C487 C 0.55807 0.68056 0.62513 0.0
C488 C 0.53792 0.74024 0.61644 0.0
C489 C 0.52164 0.66707 0.62426 0.0
C490 C 0.49328 0.69 0.62019 0.0
C491 C 0.47342 0.75051 0.62496 0.0
C492 C 0.48252 0.78675 0.63117 0.0
C493 C 0.50113 0.72688 0.61887 0.0
C494 C 0.51849 0.80019 0.62579 0.0
C495 C 0.54594 0.77714 0.61752 0.0
H496 H 0.87315 0.03939 0.71284 0.0
H497 H 0.76226 -0.00588 0.70862 0.0
H498 H 0.77443 0.95647 0.75869 0.0
H499 H 0.81708 0.93396 0.80186 0.0
H500 H 0.92925 0.97446 0.80312 0.0
H501 H 0.91585 0.01734 0.75711 0.0
C502 C 0.85174 0.0211 0.72268 0.0
C503 C 0.81691 0.01951 0.70667 0.0
C504 C 0.8589 -0.0007 0.75164 0.0
C505 C 0.78941 -0.00417 0.72012 0.0
C506 C 0.79622 0.97443 0.74902 0.0
C507 C 0.8382 0.95312 0.79292 0.0
C508 C 0.87378 0.95196 0.80646 0.0
C509 C 0.8308 0.97593 0.76499 0.0
C510 C 0.90142 0.9757 0.79365 0.0
C511 C 0.89388 -0.00028 0.76696 0.0
H512 H 0.1045 0.5593 0.72499 0.0
H513 H 0.10973 0.53166 0.83553 0.0
H514 H 0.10727 0.46853 0.8193 0.0
H515 H 0.10531 0.42168 0.77415 0.0
H516 H 0.10471 0.44823 0.6632 0.0
H517 H 0.10358 0.51165 0.67916 0.0
C518 C 0.10486 0.5394 0.7455 0.0
C519 C 0.1071 0.55005 0.78144 0.0
C520 C 0.10431 0.50316 0.73591 0.0
C521 C 0.10809 0.52409 0.80773 0.0
C522 C 0.10662 0.48804 0.79846 0.0
C523 C 0.10455 0.44124 0.75333 0.0
C524 C 0.1047 0.43026 0.71749 0.0
C525 C 0.10492 0.47735 0.76269 0.0
C526 C 0.10447 0.45603 0.69095 0.0
C527 C 0.10386 0.49222 0.70009 0.0
H528 H 0.72548 0.89526 0.07451 0.0
H529 H 0.68384 0.78577 0.06783 0.0
H530 H 0.72229 0.77583 0.01626 0.0
H531 H 0.76784 0.7979 0.97314 0.0
H532 H 0.80893 0.90756 0.97871 0.0
H533 H 0.77062 0.91766 0.03058 0.0
C534 C 0.72478 0.8692 0.0618 0.0
C535 C 0.70174 0.8413 0.07521 0.0
C536 C 0.74692 0.86366 0.03193 0.0
C537 C 0.70118 0.80778 0.05819 0.0
C538 C 0.72324 0.80203 0.02866 0.0
C539 C 0.76854 0.82405 0.98568 0.0
C540 C 0.79142 0.85189 0.97201 0.0
C541 C 0.74625 0.82973 0.01534 0.0
C542 C 0.79166 0.88561 0.9886 0.0
C543 C 0.76973 0.89141 0.0183 0.0
H544 H 0.18519 0.59564 0.93736 0.0
H545 H 0.25281 0.69285 0.92977 0.0
H546 H 0.28347 0.67939 0.98511 0.0
H547 H 0.28739 0.64265 0.03827 0.0
H548 H 0.21793 0.54674 0.04673 0.0
H549 H 0.19223 0.55679 0.98824 0.0
C550 C 0.20683 0.61378 0.94762 0.0
C551 C 0.21634 0.64541 0.92958 0.0
C552 C 0.22409 0.6061 0.97968 0.0
C553 C 0.24466 0.66845 0.94321 0.0
C554 C 0.26227 0.66077 0.97489 0.0
C555 C 0.26716 0.62358 0.02702 0.0
C556 C 0.25448 0.59409 0.04695 0.0
C557 C 0.25173 0.63001 0.99371 0.0
C558 C 0.22804 0.56977 0.03205 0.0
C559 C 0.2132 0.57556 0.99864 0.0
H560 H 0.76825 0.14516 0.40985 0.0
H561 H 0.6662 0.08297 0.41966 0.0
H562 H 0.68439 0.06341 0.478 0.0
H563 H 0.72625 0.06837 0.52844 0.0
H564 H 0.82791 0.13124 0.52009 0.0
H565 H 0.81315 0.14549 0.45879 0.0
C566 C 0.75017 0.127 0.42456 0.0
C567 C 0.71566 0.11599 0.41048 0.0
C568 C 0.76066 0.11601 0.45845 0.0
C569 C 0.69274 0.09222 0.42988 0.0
C570 C 0.7031 0.08098 0.46333 0.0
C571 C 0.74548 0.08483 0.51313 0.0
C572 C 0.77795 0.09904 0.52905 0.0
C573 C 0.73655 0.09339 0.47821 0.0
C574 C 0.80268 0.11996 0.50858 0.0
C575 C 0.79414 0.12833 0.47357 0.0
H576 H 0.21341 0.26563 0.56651 0.0
H577 H 0.18143 0.37374 0.55703 0.0
H578 H 0.2224 0.38231 0.5062 0.0
H579 H 0.26819 0.35896 0.46469 0.0
H580 H 0.29941 0.25063 0.47581 0.0
H581 H 0.25812 0.24254 0.52575 0.0
C582 C 0.21515 0.29108 0.5533 0.0
C583 C 0.19423 0.31895 0.56563 0.0
C584 C 0.23893 0.2959 0.5244 0.0
C585 C 0.1971 0.35175 0.54811 0.0
C586 C 0.22065 0.35671 0.51907 0.0
C587 C 0.26604 0.33366 0.47815 0.0
C588 C 0.28705 0.30549 0.46639 0.0
C589 C 0.2419 0.329 0.50707 0.0
C590 C 0.2837 0.27283 0.48411 0.0
C591 C 0.25999 0.26809 0.51274 0.0
H592 H 0.07666 0.74746 0.88599 0.0
H593 H 0.99723 0.66079 0.86638 0.0
H594 H 0.94825 0.69736 0.88726 0.0
H595 H 0.92728 0.75739 0.89615 0.0
H596 H 0.0057 0.84635 0.90542 0.0
H597 H 0.05583 0.80594 0.90518 0.0
C598 C 0.04877 0.73635 0.88773 0.0
C599 C 0.04027 0.70167 0.87488 0.0
C600 C 0.02055 0.75828 0.89774 0.0
C601 C 0.00413 0.68748 0.87633 0.0
C602 C 0.97618 0.70844 0.88807 0.0
C603 C 0.95529 0.76762 0.90014 0.0
C604 C 0.96297 0.80456 0.90127 0.0
C605 C 0.98384 0.74442 0.89687 0.0
C606 C 0.99928 0.81789 0.90523 0.0
C607 C 0.02793 0.79479 0.90436 0.0
H608 H 0.03904 0.22399 0.71572 0.0
H609 H 0.03276 0.26862 0.61131 0.0
H610 H 0.98071 0.22691 0.59693 0.0
H611 H 0.93407 0.18057 0.6162 0.0
H612 H 0.9418 0.1378 0.72148 0.0
H613 H 0.99632 0.17589 0.73318 0.0
C614 C 0.02645 0.22463 0.68969 0.0
C615 C 0.03948 0.24975 0.6648 0.0
C616 C 0.99667 0.2009 0.68181 0.0
C617 C 0.02319 0.24965 0.63102 0.0
C618 C 0.99336 0.22587 0.62286 0.0
C619 C 0.94802 0.17928 0.64149 0.0
C620 C 0.93359 0.15653 0.66805 0.0
C621 C 0.97943 0.20175 0.64832 0.0
C622 C 0.95199 0.15523 0.70068 0.0
C623 C 0.98323 0.17705 0.70745 0.0
H624 H 0.5774 0.25277 0.3694 0.0
H625 H 0.51271 0.15387 0.37094 0.0
H626 H 0.46014 0.18476 0.3933 0.0
H627 H 0.42948 0.2413 0.39601 0.0
H628 H 0.49321 0.34033 0.38794 0.0
H629 H 0.54952 0.30849 0.38619 0.0
C630 C 0.55226 0.23792 0.37635 0.0
C631 C 0.54864 0.2013 0.36879 0.0
C632 C 0.52186 0.25615 0.3877 0.0
C633 C 0.51596 0.1821 0.37703 0.0
C634 C 0.48585 0.19984 0.38943 0.0
C635 C 0.4559 0.25584 0.396 0.0
C636 C 0.45747 0.29297 0.39227 0.0
C637 C 0.48789 0.23711 0.39268 0.0
C638 C 0.49159 0.31173 0.39131 0.0
C639 C 0.52371 0.29346 0.38965 0.0
H640 H 0.60461 0.5362 0.75746 0.0
H641 H 0.69208 0.52861 0.68151 0.0
H642 H 0.71188 0.47546 0.71064 0.0
H643 H 0.70865 0.43564 0.76134 0.0
H644 H 0.62156 0.44269 0.83753 0.0
H645 H 0.59719 0.49187 0.80452 0.0
C646 C 0.62768 0.52262 0.74692 0.0
C647 C 0.64721 0.5367 0.71769 0.0
C648 C 0.63928 0.49244 0.76413 0.0
C649 C 0.67666 0.51847 0.70404 0.0
C650 C 0.68818 0.48823 0.72084 0.0
C651 C 0.68423 0.44787 0.77067 0.0
C652 C 0.66731 0.43623 0.8022 0.0
C653 C 0.67045 0.47579 0.75156 0.0
C654 C 0.63519 0.45154 0.8135 0.0
C655 C 0.62133 0.4796 0.79466 0.0
H656 H 0.40985 0.0406 0.81164 0.0
H657 H 0.31211 0.04842 0.74887 0.0
H658 H 0.32915 -0.00118 0.71147 0.0
H659 H 0.36751 0.94891 0.70107 0.0
H660 H 0.46288 0.93737 0.76627 0.0
H661 H 0.45158 -0.00704 0.79762 0.0
C662 C 0.39268 0.03171 0.78944 0.0
C663 C 0.35958 0.04775 0.78332 0.0
C664 C 0.40213 0.00239 0.7685 0.0
C665 C 0.33747 0.03606 0.75448 0.0
C666 C 0.34721 0.00776 0.73298 0.0
C667 C 0.38631 0.95892 0.72159 0.0
C668 C 0.41575 0.93888 0.73153 0.0
C669 C 0.37887 -0.00994 0.7404 0.0
C670 C 0.43979 0.9522 0.75829 0.0
C671 C 0.43327 0.9839 0.77636 0.0
H672 H 0.44894 0.2554 0.89587 0.0
H673 H 0.48255 0.14869 0.87649 0.0
H674 H 0.54659 0.17027 0.87849 0.0
H675 H 0.59296 0.21981 0.88242 0.0
H676 H 0.55932 0.32679 0.90005 0.0
H677 H 0.49548 0.30463 0.90229 0.0
C678 C 0.47024 0.23677 0.89237 0.0
C679 C 0.46083 0.20047 0.88587 0.0
C680 C 0.50707 0.24943 0.89312 0.0
C681 C 0.48891 0.17678 0.88139 0.0
C682 C 0.52559 0.18911 0.88251 0.0
C683 C 0.57174 0.2383 0.8871 0.0
C684 C 0.58103 0.27497 0.89093 0.0
C685 C 0.53499 0.22544 0.88786 0.0
C686 C 0.55304 0.29846 0.89689 0.0
C687 C 0.51646 0.28581 0.89813 0.0
H688 H 0.28533 0.52098 0.25043 0.0
H689 H 0.38136 0.52102 0.18446 0.0
H690 H 0.4079 0.47745 0.22334 0.0
H691 H 0.4006 0.43528 0.2724 0.0
H692 H 0.30459 0.43597 0.33854 0.0
H693 H 0.28165 0.48445 0.30385 0.0
C694 C 0.31213 0.51148 0.24462 0.0
C695 C 0.33107 0.52337 0.2142 0.0
C696 C 0.32725 0.48697 0.26727 0.0
C697 C 0.36617 0.51181 0.2075 0.0
C698 C 0.38129 0.487 0.22973 0.0
C699 C 0.37498 0.44653 0.27968 0.0
C700 C 0.35405 0.43172 0.30771 0.0
C701 C 0.36168 0.47385 0.25921 0.0
C702 C 0.32122 0.44688 0.31715 0.0
C703 C 0.30789 0.47431 0.29705 0.0
H704 H 0.65739 0.05264 0.24231 0.0
H705 H 0.54151 0.0609 0.25677 0.0
H706 H 0.52986 0.00096 0.23185 0.0
H707 H 0.55302 0.945 0.20981 0.0
H708 H 0.66835 0.93716 0.19148 0.0
H709 H 0.68001 -0.00139 0.21298 0.0
C710 C 0.62969 0.04112 0.2399 0.0
C711 C 0.60031 0.06048 0.25192 0.0
C712 C 0.62317 0.00711 0.22448 0.0
C713 C 0.56442 0.04604 0.24798 0.0
C714 C 0.55778 0.01194 0.23367 0.0
C715 C 0.58061 0.95709 0.20982 0.0
C716 C 0.60983 0.93679 0.1993 0.0
C717 C 0.58697 -0.00788 0.22224 0.0
C718 C 0.64545 0.95255 0.19918 0.0
C719 C 0.65212 -0.01254 0.2119 0.0
H720 H 0.54545 0.72323 0.13616 0.0
H721 H 0.47394 0.80907 0.1526 0.0
H722 H 0.42063 0.76883 0.14074 0.0
H723 H 0.39412 0.70812 0.13358 0.0
H724 H 0.46483 0.62098 0.12012 0.0
H725 H 0.51847 0.66259 0.12282 0.0
C726 C 0.51823 0.7332 0.13591 0.0
C727 C 0.5135 0.76905 0.14485 0.0
C728 C 0.48749 0.70948 0.13045 0.0
C729 C 0.47812 0.7816 0.14542 0.0
C730 C 0.44764 0.75854 0.13899 0.0
C731 C 0.42122 0.69819 0.13087 0.0
C732 C 0.42536 0.66138 0.12716 0.0
C733 C 0.45193 0.7222 0.13281 0.0
C734 C 0.46076 0.64913 0.12327 0.0
C735 C 0.49151 0.67294 0.12483 0.0
loop_
_geom_bond_atom_site_label_1
_geom_bond_atom_site_label_2
_geom_bond_distance
_geom_bond_site_symmetry_2
_ccdc_geom_bond_type
Zn0 O3 2.031 . S
Zn0 O5 2.049 . S
Zn0 O10 2.067 . S
Zn1 O2 1.962 . S
Zn1 O4 1.986 . S
Zn1 O6 1.996 . S
Zn1 O9 1.943 . S
O2 Zn1 1.962 . S
O2 C7 1.254 . S
O3 Zn0 2.031 . S
O3 C7 1.269 . S
O4 Zn1 1.986 . S
O4 C11 1.262 . S
O5 Zn0 2.049 . S
O5 C13 1.260 . S
O6 Zn1 1.996 . S
O6 C13 1.257 . S
C7 O2 1.254 . S
C7 O3 1.269 . S
C8 O9 1.249 . S
C8 O10 1.270 . S
O9 Zn1 1.943 . S
O9 C8 1.249 . S
O10 Zn0 2.067 . S
O10 C8 1.270 . S
C11 O4 1.262 . S
C11 O12 1.232 . S
O12 C11 1.232 . S
C13 O5 1.260 . S
C13 O6 1.257 . S
Zn14 O17 2.031 . S
Zn14 O19 2.049 . S
Zn14 O24 2.067 . S
Zn15 O16 1.962 . S
Zn15 O18 1.986 . S
Zn15 O20 1.996 . S
Zn15 O23 1.943 . S
O16 Zn15 1.962 . S
O16 C21 1.254 . S
O17 Zn14 2.031 . S
O17 C21 1.269 . S
O18 Zn15 1.986 . S
O18 C25 1.262 . S
O19 Zn14 2.049 . S
O19 C27 1.260 . S
O20 Zn15 1.996 . S
O20 C27 1.257 . S
C21 O16 1.254 . S
C21 O17 1.269 . S
C22 O23 1.249 . S
C22 O24 1.270 . S
O23 Zn15 1.943 . S
O23 C22 1.249 . S
O24 Zn14 2.067 . S
O24 C22 1.270 . S
C25 O18 1.262 . S
C25 O26 1.232 . S
O26 C25 1.232 . S
C27 O19 1.260 . S
C27 O20 1.257 . S
Zn28 O31 2.031 . S
Zn28 O33 2.049 . S
Zn28 O38 2.067 . S
Zn29 O30 1.962 . S
Zn29 O32 1.986 . S
Zn29 O34 1.996 . S
Zn29 O37 1.943 . S
O30 Zn29 1.962 . S
O30 C35 1.254 . S
O31 Zn28 2.031 . S
O31 C35 1.269 . S
O32 Zn29 1.986 . S
O32 C39 1.262 . S
O33 Zn28 2.049 . S
O33 C41 1.260 . S
O34 Zn29 1.996 . S
O34 C41 1.257 . S
C35 O30 1.254 . S
C35 O31 1.269 . S
C36 O37 1.249 . S
C36 O38 1.270 . S
O37 Zn29 1.943 . S
O37 C36 1.249 . S
O38 Zn28 2.067 . S
O38 C36 1.270 . S
C39 O32 1.262 . S
C39 O40 1.232 . S
O40 C39 1.232 . S
C41 O33 1.260 . S
C41 O34 1.257 . S
Zn42 O45 2.031 . S
Zn42 O47 2.049 . S
Zn42 O52 2.067 . S
Zn43 O44 1.962 . S
Zn43 O46 1.986 . S
Zn43 O48 1.996 . S
Zn43 O51 1.943 . S
O44 Zn43 1.962 . S
O44 C49 1.254 . S
O45 Zn42 2.031 . S
O45 C49 1.269 . S
O46 Zn43 1.986 . S
O46 C53 1.262 . S
O47 Zn42 2.049 . S
O47 C55 1.260 . S
O48 Zn43 1.996 . S
O48 C55 1.257 . S
C49 O44 1.254 . S
C49 O45 1.269 . S
C50 O51 1.249 . S
C50 O52 1.270 . S
O51 Zn43 1.943 . S
O51 C50 1.249 . S
O52 Zn42 2.067 . S
O52 C50 1.270 . S
C53 O46 1.262 . S
C53 O54 1.232 . S
O54 C53 1.232 . S
C55 O47 1.260 . S
C55 O48 1.257 . S
Zn56 O59 2.031 . S
Zn56 O61 2.049 . S
Zn56 O66 2.067 . S
Zn57 O58 1.962 . S
Zn57 O60 1.986 . S
Zn57 O62 1.996 . S
Zn57 O65 1.943 . S
O58 Zn57 1.962 . S
O58 C63 1.254 . S
O59 Zn56 2.031 . S
O59 C63 1.269 . S
O60 Zn57 1.986 . S
O60 C67 1.262 . S
O61 Zn56 2.049 . S
O61 C69 1.260 . S
O62 Zn57 1.996 . S
O62 C69 1.257 . S
C63 O58 1.254 . S
C63 O59 1.269 . S
C64 O65 1.249 . S
C64 O66 1.270 . S
O65 Zn57 1.943 . S
O65 C64 1.249 . S
O66 Zn56 2.067 . S
O66 C64 1.270 . S
C67 O60 1.262 . S
C67 O68 1.232 . S
O68 C67 1.232 . S
C69 O61 1.260 . S
C69 O62 1.257 . S
Zn70 O73 2.031 . S
Zn70 O75 2.049 . S
Zn70 O80 2.067 . S
Zn71 O72 1.962 . S
Zn71 O74 1.986 . S
Zn71 O76 1.996 . S
Zn71 O79 1.943 . S
O72 Zn71 1.962 . S
O72 C77 1.254 . S
O73 Zn70 2.031 . S
O73 C77 1.269 . S
O74 Zn71 1.986 . S
O74 C81 1.262 . S
O75 Zn70 2.049 . S
O75 C83 1.260 . S
O76 Zn71 1.996 . S
O76 C83 1.257 . S
C77 O72 1.254 . S
C77 O73 1.269 . S
C78 O79 1.249 . S
C78 O80 1.270 . S
O79 Zn71 1.943 . S
O79 C78 1.249 . S
O80 Zn70 2.067 . S
O80 C78 1.270 . S
C81 O74 1.262 . S
C81 O82 1.232 . S
O82 C81 1.232 . S
C83 O75 1.260 . S
C83 O76 1.257 . S
Zn84 O87 2.031 . S
Zn84 O89 2.049 . S
Zn84 O94 2.067 . S
Zn85 O86 1.962 . S
Zn85 O88 1.986 . S
Zn85 O90 1.996 . S
Zn85 O93 1.943 . S
O86 Zn85 1.962 . S
O86 C91 1.254 . S
O87 Zn84 2.031 . S
O87 C91 1.269 . S
O88 Zn85 1.986 . S
O88 C95 1.262 . S
O89 Zn84 2.049 . S
O89 C97 1.260 . S
O90 Zn85 1.996 . S
O90 C97 1.257 . S
C91 O86 1.254 . S
C91 O87 1.269 . S
C92 O93 1.249 . S
C92 O94 1.270 . S
O93 Zn85 1.943 . S
O93 C92 1.249 . S
O94 Zn84 2.067 . S
O94 C92 1.270 . S
C95 O88 1.262 . S
C95 O96 1.232 . S
O96 C95 1.232 . S
C97 O89 1.260 . S
C97 O90 1.257 . S
Zn98 O101 2.031 . S
Zn98 O103 2.049 . S
Zn98 O108 2.067 . S
Zn99 O100 1.962 . S
Zn99 O102 1.986 . S
Zn99 O104 1.996 . S
Zn99 O107 1.943 . S
O100 Zn99 1.962 . S
O100 C105 1.254 . S
O101 Zn98 2.031 . S
O101 C105 1.269 . S
O102 Zn99 1.986 . S
O102 C109 1.262 . S
O103 Zn98 2.049 . S
O103 C111 1.260 . S
O104 Zn99 1.996 . S
O104 C111 1.257 . S
C105 O100 1.254 . S
C105 O101 1.269 . S
C106 O107 1.249 . S
C106 O108 1.270 . S
O107 Zn99 1.943 . S
O107 C106 1.249 . S
O108 Zn98 2.067 . S
O108 C106 1.270 . S
C109 O102 1.262 . S
C109 O110 1.232 . S
O110 C109 1.232 . S
C111 O103 1.260 . S
C111 O104 1.257 . S
Zn112 O115 2.031 . S
Zn112 O117 2.049 . S
Zn112 O122 2.067 . S
Zn113 O114 1.962 . S
Zn113 O116 1.986 . S
Zn113 O118 1.996 . S
Zn113 O121 1.943 . S
O114 Zn113 1.962 . S
O114 C119 1.254 . S
O115 Zn112 2.031 . S
O115 C119 1.269 . S
O116 Zn113 1.986 . S
O116 C123 1.262 . S
O117 Zn112 2.049 . S
O117 C125 1.260 . S
O118 Zn113 1.996 . S
O118 C125 1.257 . S
C119 O114 1.254 . S
C119 O115 1.269 . S
C120 O121 1.249 . S
C120 O122 1.270 . S
O121 Zn113 1.943 . S
O121 C120 1.249 . S
O122 Zn112 2.067 . S
O122 C120 1.270 . S
C123 O116 1.262 . S
C123 O124 1.232 . S
O124 C123 1.232 . S
C125 O117 1.260 . S
C125 O118 1.257 . S
Zn126 O129 2.031 . S
Zn126 O131 2.049 . S
Zn126 O136 2.067 . S
Zn127 O128 1.962 . S
Zn127 O130 1.986 . S
Zn127 O132 1.996 . S
Zn127 O135 1.943 . S
O128 Zn127 1.962 . S
O128 C133 1.254 . S
O129 Zn126 2.031 . S
O129 C133 1.269 . S
O130 Zn127 1.986 . S
O130 C137 1.262 . S
O131 Zn126 2.049 . S
O131 C139 1.260 . S
O132 Zn127 1.996 . S
O132 C139 1.257 . S
C133 O128 1.254 . S
C133 O129 1.269 . S
C134 O135 1.249 . S
C134 O136 1.270 . S
O135 Zn127 1.943 . S
O135 C134 1.249 . S
O136 Zn126 2.067 . S
O136 C134 1.270 . S
C137 O130 1.262 . S
C137 O138 1.232 . S
O138 C137 1.232 . S
C139 O131 1.260 . S
C139 O132 1.257 . S
Zn140 O143 2.031 . S
Zn140 O145 2.049 . S
Zn140 O150 2.067 . S
Zn141 O142 1.962 . S
Zn141 O144 1.986 . S
Zn141 O146 1.996 . S
Zn141 O149 1.943 . S
O142 Zn141 1.962 . S
O142 C147 1.254 . S
O143 Zn140 2.031 . S
O143 C147 1.269 . S
O144 Zn141 1.986 . S
O144 C151 1.262 . S
O145 Zn140 2.049 . S
O145 C153 1.260 . S
O146 Zn141 1.996 . S
O146 C153 1.257 . S
C147 O142 1.254 . S
C147 O143 1.269 . S
C148 O149 1.249 . S
C148 O150 1.270 . S
O149 Zn141 1.943 . S
O149 C148 1.249 . S
O150 Zn140 2.067 . S
O150 C148 1.270 . S
C151 O144 1.262 . S
C151 O152 1.232 . S
O152 C151 1.232 . S
C153 O145 1.260 . S
C153 O146 1.257 . S
Zn154 O157 2.031 . S
Zn154 O159 2.049 . S
Zn154 O164 2.067 . S
Zn155 O156 1.962 . S
Zn155 O158 1.986 . S
Zn155 O160 1.996 . S
Zn155 O163 1.943 . S
O156 Zn155 1.962 . S
O156 C161 1.254 . S
O157 Zn154 2.031 . S
O157 C161 1.269 . S
O158 Zn155 1.986 . S
O158 C165 1.262 . S
O159 Zn154 2.049 . S
O159 C167 1.260 . S
O160 Zn155 1.996 . S
O160 C167 1.257 . S
C161 O156 1.254 . S
C161 O157 1.269 . S
C162 O163 1.249 . S
C162 O164 1.270 . S
O163 Zn155 1.943 . S
O163 C162 1.249 . S
O164 Zn154 2.067 . S
O164 C162 1.270 . S
C165 O158 1.262 . S
C165 O166 1.232 . S
O166 C165 1.232 . S
C167 O159 1.260 . S
C167 O160 1.257 . S
Zn168 O171 2.031 . S
Zn168 O173 2.049 . S
Zn168 O178 2.067 . S
Zn169 O170 1.962 . S
Zn169 O172 1.986 . S
Zn169 O174 1.996 . S
Zn169 O177 1.943 . S
O170 Zn169 1.962 . S
O170 C175 1.254 . S
O171 Zn168 2.031 . S
O171 C175 1.269 . S
O172 Zn169 1.986 . S
O172 C179 1.262 . S
O173 Zn168 2.049 . S
O173 C181 1.260 . S
O174 Zn169 1.996 . S
O174 C181 1.257 . S
C175 O170 1.254 . S
C175 O171 1.269 . S
C176 O177 1.249 . S
C176 O178 1.270 . S
O177 Zn169 1.943 . S
O177 C176 1.249 . S
O178 Zn168 2.067 . S
O178 C176 1.270 . S
C179 O172 1.262 . S
C179 O180 1.232 . S
O180 C179 1.232 . S
C181 O173 1.260 . S
C181 O174 1.257 . S
Zn182 O185 2.031 . S
Zn182 O187 2.049 . S
Zn182 O192 2.067 . S
Zn183 O184 1.962 . S
Zn183 O186 1.986 . S
Zn183 O188 1.996 . S
Zn183 O191 1.943 . S
O184 Zn183 1.962 . S
O184 C189 1.254 . S
O185 Zn182 2.031 . S
O185 C189 1.269 . S
O186 Zn183 1.986 . S
O186 C193 1.262 . S
O187 Zn182 2.049 . S
O187 C195 1.260 . S
O188 Zn183 1.996 . S
O188 C195 1.257 . S
C189 O184 1.254 . S
C189 O185 1.269 . S
C190 O191 1.249 . S
C190 O192 1.270 . S
O191 Zn183 1.943 . S
O191 C190 1.249 . S
O192 Zn182 2.067 . S
O192 C190 1.270 . S
C193 O186 1.262 . S
C193 O194 1.232 . S
O194 C193 1.232 . S
C195 O187 1.260 . S
C195 O188 1.257 . S
Zn196 O199 2.031 . S
Zn196 O201 2.049 . S
Zn196 O206 2.067 . S
Zn197 O198 1.962 . S
Zn197 O200 1.986 . S
Zn197 O202 1.996 . S
Zn197 O205 1.943 . S
O198 Zn197 1.962 . S
O198 C203 1.254 . S
O199 Zn196 2.031 . S
O199 C203 1.269 . S
O200 Zn197 1.986 . S
O200 C207 1.262 . S
O201 Zn196 2.049 . S
O201 C209 1.260 . S
O202 Zn197 1.996 . S
O202 C209 1.257 . S
C203 O198 1.254 . S
C203 O199 1.269 . S
C204 O205 1.249 . S
C204 O206 1.270 . S
O205 Zn197 1.943 . S
O205 C204 1.249 . S
O206 Zn196 2.067 . S
O206 C204 1.270 . S
C207 O200 1.262 . S
C207 O208 1.232 . S
O208 C207 1.232 . S
C209 O201 1.260 . S
C209 O202 1.257 . S
Zn210 O213 2.031 . S
Zn210 O215 2.049 . S
Zn210 O220 2.067 . S
Zn211 O212 1.962 . S
Zn211 O214 1.986 . S
Zn211 O216 1.996 . S
Zn211 O219 1.943 . S
O212 Zn211 1.962 . S
O212 C217 1.254 . S
O213 Zn210 2.031 . S
O213 C217 1.269 . S
O214 Zn211 1.986 . S
O214 C221 1.262 . S
O215 Zn210 2.049 . S
O215 C223 1.260 . S
O216 Zn211 1.996 . S
O216 C223 1.257 . S
C217 O212 1.254 . S
C217 O213 1.269 . S
C218 O219 1.249 . S
C218 O220 1.270 . S
O219 Zn211 1.943 . S
O219 C218 1.249 . S
O220 Zn210 2.067 . S
O220 C218 1.270 . S
C221 O214 1.262 . S
C221 O222 1.232 . S
O222 C221 1.232 . S
C223 O215 1.260 . S
C223 O216 1.257 . S
H224 C230 0.930 . S
H225 C233 0.930 . S
H226 C234 0.930 . S
H227 C235 0.930 . S
H228 C238 0.930 . S
H229 C239 0.930 . S
C230 H224 0.930 . S
C230 C231 1.355 . S
C230 C232 1.415 . S
C231 C230 1.355 . S
C231 C233 1.419 . S
C232 C230 1.415 . S
C232 C237 1.425 . S
C232 C239 1.409 . S
C233 H225 0.930 . S
C233 C231 1.419 . S
C233 C234 1.362 . S
C234 H226 0.930 . S
C234 C233 1.362 . S
C234 C237 1.409 . S
C235 H227 0.930 . S
C235 C236 1.355 . S
C235 C237 1.415 . S
C236 C235 1.355 . S
C236 C238 1.419 . S
C237 C232 1.425 . S
C237 C234 1.409 . S
C237 C235 1.415 . S
C238 H228 0.930 . S
C238 C236 1.419 . S
C238 C239 1.362 . S
C239 H229 0.930 . S
C239 C232 1.409 . S
C239 C238 1.362 . S
H240 C246 0.930 . S
H241 C249 0.930 . S
H242 C250 0.930 . S
H243 C251 0.930 . S
H244 C254 0.930 . S
H245 C255 0.930 . S
C246 H240 0.930 . S
C246 C247 1.355 . S
C246 C248 1.415 . S
C247 C246 1.355 . S
C247 C249 1.419 . S
C248 C246 1.415 . S
C248 C253 1.425 . S
C248 C255 1.409 . S
C249 H241 0.930 . S
C249 C247 1.419 . S
C249 C250 1.362 . S
C250 H242 0.930 . S
C250 C249 1.362 . S
C250 C253 1.409 . S
C251 H243 0.930 . S
C251 C252 1.355 . S
C251 C253 1.415 . S
C252 C251 1.355 . S
C252 C254 1.419 . S
C253 C248 1.425 . S
C253 C250 1.409 . S
C253 C251 1.415 . S
C254 H244 0.930 . S
C254 C252 1.419 . S
C254 C255 1.362 . S
C255 H245 0.930 . S
C255 C248 1.409 . S
C255 C254 1.362 . S
H256 C262 0.930 . S
H257 C265 0.930 . S
H258 C266 0.930 . S
H259 C267 0.930 . S
H260 C270 0.930 . S
H261 C271 0.930 . S
C262 H256 0.930 . S
C262 C263 1.355 . S
C262 C264 1.415 . S
C263 C262 1.355 . S
C263 C265 1.419 . S
C264 C262 1.415 . S
C264 C269 1.425 . S
C264 C271 1.409 . S
C265 H257 0.930 . S
C265 C263 1.419 . S
C265 C266 1.362 . S
C266 H258 0.930 . S
C266 C265 1.362 . S
C266 C269 1.409 . S
C267 H259 0.930 . S
C267 C268 1.355 . S
C267 C269 1.415 . S
C268 C267 1.355 . S
C268 C270 1.419 . S
C269 C264 1.425 . S
C269 C266 1.409 . S
C269 C267 1.415 . S
C270 H260 0.930 . S
C270 C268 1.419 . S
C270 C271 1.362 . S
C271 H261 0.930 . S
C271 C264 1.409 . S
C271 C270 1.362 . S
H272 C278 0.930 . S
H273 C281 0.930 . S
H274 C282 0.930 . S
H275 C283 0.930 . S
H276 C286 0.930 . S
H277 C287 0.930 . S
C278 H272 0.930 . S
C278 C279 1.355 . S
C278 C280 1.415 . S
C279 C278 1.355 . S
C279 C281 1.419 . S
C280 C278 1.415 . S
C280 C285 1.425 . S
C280 C287 1.409 . S
C281 H273 0.930 . S
C281 C279 1.419 . S
C281 C282 1.362 . S
C282 H274 0.930 . S
C282 C281 1.362 . S
C282 C285 1.409 . S
C283 H275 0.930 . S
C283 C284 1.355 . S
C283 C285 1.415 . S
C284 C283 1.355 . S
C284 C286 1.419 . S
C285 C280 1.425 . S
C285 C282 1.409 . S
C285 C283 1.415 . S
C286 H276 0.930 . S
C286 C284 1.419 . S
C286 C287 1.362 . S
C287 H277 0.930 . S
C287 C280 1.409 . S
C287 C286 1.362 . S
H288 C294 0.930 . S
H289 C297 0.930 . S
H290 C298 0.930 . S
H291 C299 0.930 . S
H292 C302 0.930 . S
H293 C303 0.930 . S
C294 H288 0.930 . S
C294 C295 1.355 . S
C294 C296 1.415 . S
C295 C294 1.355 . S
C295 C297 1.419 . S
C296 C294 1.415 . S
C296 C301 1.425 . S
C296 C303 1.409 . S
C297 H289 0.930 . S
C297 C295 1.419 . S
C297 C298 1.362 . S
C298 H290 0.930 . S
C298 C297 1.362 . S
C298 C301 1.409 . S
C299 H291 0.930 . S
C299 C300 1.355 . S
C299 C301 1.415 . S
C300 C299 1.355 . S
C300 C302 1.419 . S
C301 C296 1.425 . S
C301 C298 1.409 . S
C301 C299 1.415 . S
C302 H292 0.930 . S
C302 C300 1.419 . S
C302 C303 1.362 . S
C303 H293 0.930 . S
C303 C296 1.409 . S
C303 C302 1.362 . S
H304 C310 0.930 . S
H305 C313 0.930 . S
H306 C314 0.930 . S
H307 C315 0.930 . S
H308 C318 0.930 . S
H309 C319 0.930 . S
C310 H304 0.930 . S
C310 C311 1.355 . S
C310 C312 1.415 . S
C311 C310 1.355 . S
C311 C313 1.419 . S
C312 C310 1.415 . S
C312 C317 1.425 . S
C312 C319 1.409 . S
C313 H305 0.930 . S
C313 C311 1.419 . S
C313 C314 1.362 . S
C314 H306 0.930 . S
C314 C313 1.362 . S
C314 C317 1.409 . S
C315 H307 0.930 . S
C315 C316 1.355 . S
C315 C317 1.415 . S
C316 C315 1.355 . S
C316 C318 1.419 . S
C317 C312 1.425 . S
C317 C314 1.409 . S
C317 C315 1.415 . S
C318 H308 0.930 . S
C318 C316 1.419 . S
C318 C319 1.362 . S
C319 H309 0.930 . S
C319 C312 1.409 . S
C319 C318 1.362 . S
H320 C326 0.930 . S
H321 C329 0.930 . S
H322 C330 0.930 . S
H323 C331 0.930 . S
H324 C334 0.930 . S
H325 C335 0.930 . S
C326 H320 0.930 . S
C326 C327 1.355 . S
C326 C328 1.415 . S
C327 C326 1.355 . S
C327 C329 1.419 . S
C328 C326 1.415 . S
C328 C333 1.425 . S
C328 C335 1.409 . S
C329 H321 0.930 . S
C329 C327 1.419 . S
C329 C330 1.362 . S
C330 H322 0.930 . S
C330 C329 1.362 . S
C330 C333 1.409 . S
C331 H323 0.930 . S
C331 C332 1.355 . S
C331 C333 1.415 . S
C332 C331 1.355 . S
C332 C334 1.419 . S
C333 C328 1.425 . S
C333 C330 1.409 . S
C333 C331 1.415 . S
C334 H324 0.930 . S
C334 C332 1.419 . S
C334 C335 1.362 . S
C335 H325 0.930 . S
C335 C328 1.409 . S
C335 C334 1.362 . S
H336 C342 0.930 . S
H337 C345 0.930 . S
H338 C346 0.930 . S
H339 C347 0.930 . S
H340 C350 0.930 . S
H341 C351 0.930 . S
C342 H336 0.930 . S
C342 C343 1.355 . S
C342 C344 1.415 . S
C343 C342 1.355 . S
C343 C345 1.419 . S
C344 C342 1.415 . S
C344 C349 1.425 . S
C344 C351 1.409 . S
C345 H337 0.930 . S
C345 C343 1.419 . S
C345 C346 1.362 . S
C346 H338 0.930 . S
C346 C345 1.362 . S
C346 C349 1.409 . S
C347 H339 0.930 . S
C347 C348 1.355 . S
C347 C349 1.415 . S
C348 C347 1.355 . S
C348 C350 1.419 . S
C349 C344 1.425 . S
C349 C346 1.409 . S
C349 C347 1.415 . S
C350 H340 0.930 . S
C350 C348 1.419 . S
C350 C351 1.362 . S
C351 H341 0.930 . S
C351 C344 1.409 . S
C351 C350 1.362 . S
H352 C358 0.930 . S
H353 C361 0.930 . S
H354 C362 0.930 . S
H355 C363 0.930 . S
H356 C366 0.930 . S
H357 C367 0.930 . S
C358 H352 0.930 . S
C358 C359 1.355 . S
C358 C360 1.415 . S
C359 C358 1.355 . S
C359 C361 1.419 . S
C360 C358 1.415 . S
C360 C365 1.425 1_565 S
C360 C367 1.409 . S
C361 H353 0.930 . S
C361 C359 1.419 . S
C361 C362 1.362 1_565 S
C362 H354 0.930 . S
C362 C361 1.362 1_545 S
C362 C365 1.409 . S
C363 H355 0.930 . S
C363 C364 1.355 . S
C363 C365 1.415 . S
C364 C363 1.355 . S
C364 C366 1.419 . S
C365 C360 1.425 1_545 S
C365 C362 1.409 . S
C365 C363 1.415 . S
C366 H356 0.930 . S
C366 C364 1.419 . S
C366 C367 1.362 1_545 S
C367 H357 0.930 . S
C367 C360 1.409 . S
C367 C366 1.362 1_565 S
H368 C374 0.930 . S
H369 C377 0.930 . S
H370 C378 0.930 . S
H371 C379 0.930 . S
H372 C382 0.930 . S
H373 C383 0.930 . S
C374 H368 0.930 . S
C374 C375 1.355 . S
C374 C376 1.415 . S
C375 C374 1.355 . S
C375 C377 1.419 . S
C376 C374 1.415 . S
C376 C381 1.425 . S
C376 C383 1.409 . S
C377 H369 0.930 . S
C377 C375 1.419 . S
C377 C378 1.362 . S
C378 H370 0.930 . S
C378 C377 1.362 . S
C378 C381 1.409 . S
C379 H371 0.930 . S
C379 C380 1.355 . S
C379 C381 1.415 . S
C380 C379 1.355 . S
C380 C382 1.419 . S
C381 C376 1.425 . S
C381 C378 1.409 . S
C381 C379 1.415 . S
C382 H372 0.930 . S
C382 C380 1.419 . S
C382 C383 1.362 . S
C383 H373 0.930 . S
C383 C376 1.409 . S
C383 C382 1.362 . S
H384 C390 0.930 . S
H385 C393 0.930 . S
H386 C394 0.930 . S
H387 C395 0.930 . S
H388 C398 0.930 . S
H389 C399 0.930 . S
C390 H384 0.930 . S
C390 C391 1.355 . S
C390 C392 1.415 . S
C391 C390 1.355 . S
C391 C393 1.419 . S
C392 C390 1.415 . S
C392 C397 1.425 . S
C392 C399 1.409 1_556 S
C393 H385 0.930 . S
C393 C391 1.419 . S
C393 C394 1.362 . S
C394 H386 0.930 . S
C394 C393 1.362 . S
C394 C397 1.409 . S
C395 H387 0.930 . S
C395 C396 1.355 . S
C395 C397 1.415 1_554 S
C396 C395 1.355 . S
C396 C398 1.419 . S
C397 C392 1.425 . S
C397 C394 1.409 . S
C397 C395 1.415 1_556 S
C398 H388 0.930 . S
C398 C396 1.419 . S
C398 C399 1.362 . S
C399 H389 0.930 . S
C399 C392 1.409 1_554 S
C399 C398 1.362 . S
H400 C406 0.930 . S
H401 C409 0.930 . S
H402 C410 0.931 . S
H403 C411 0.930 . S
H404 C414 0.930 . S
H405 C415 0.930 . S
C406 H400 0.930 . S
C406 C407 1.355 . S
C406 C408 1.415 1_554 S
C407 C406 1.355 . S
C407 C409 1.419 . S
C408 C406 1.415 1_556 S
C408 C413 1.425 . S
C408 C415 1.409 . S
C409 H401 0.930 . S
C409 C407 1.419 . S
C409 C410 1.362 . S
C410 H402 0.931 . S
C410 C409 1.362 . S
C410 C413 1.409 1_554 S
C411 H403 0.930 . S
C411 C412 1.355 . S
C411 C413 1.415 . S
C412 C411 1.355 . S
C412 C414 1.419 . S
C413 C408 1.425 . S
C413 C410 1.409 1_556 S
C413 C411 1.415 . S
C414 H404 0.930 . S
C414 C412 1.419 . S
C414 C415 1.362 . S
C415 H405 0.930 . S
C415 C408 1.409 . S
C415 C414 1.362 . S
H416 C422 0.930 . S
H417 C425 0.930 . S
H418 C426 0.930 . S
H419 C427 0.930 . S
H420 C430 0.930 . S
H421 C431 0.930 . S
C422 H416 0.930 . S
C422 C423 1.355 . S
C422 C424 1.415 . S
C423 C422 1.355 . S
C423 C425 1.419 . S
C424 C422 1.415 . S
C424 C429 1.425 . S
C424 C431 1.409 . S
C425 H417 0.930 . S
C425 C423 1.419 . S
C425 C426 1.362 . S
C426 H418 0.930 . S
C426 C425 1.362 . S
C426 C429 1.409 . S
C427 H419 0.930 . S
C427 C428 1.355 . S
C427 C429 1.415 . S
C428 C427 1.355 . S
C428 C430 1.419 . S
C429 C424 1.425 . S
C429 C426 1.409 . S
C429 C427 1.415 . S
C430 H420 0.930 . S
C430 C428 1.419 . S
C430 C431 1.362 . S
C431 H421 0.930 . S
C431 C424 1.409 . S
C431 C430 1.362 . S
H432 C438 0.930 . S
H433 C441 0.930 . S
H434 C442 0.930 . S
H435 C443 0.930 . S
H436 C446 0.930 . S
H437 C447 0.930 . S
C438 H432 0.930 . S
C438 C439 1.355 . S
C438 C440 1.415 . S
C439 C438 1.355 . S
C439 C441 1.419 . S
C440 C438 1.415 . S
C440 C445 1.425 . S
C440 C447 1.409 . S
C441 H433 0.930 . S
C441 C439 1.419 . S
C441 C442 1.362 . S
C442 H434 0.930 . S
C442 C441 1.362 . S
C442 C445 1.409 . S
C443 H435 0.930 . S
C443 C444 1.355 . S
C443 C445 1.415 . S
C444 C443 1.355 . S
C444 C446 1.419 . S
C445 C440 1.425 . S
C445 C442 1.409 . S
C445 C443 1.415 . S
C446 H436 0.930 . S
C446 C444 1.419 . S
C446 C447 1.362 . S
C447 H437 0.930 . S
C447 C440 1.409 . S
C447 C446 1.362 . S
H448 C454 0.930 . S
H449 C457 0.930 . S
H450 C458 0.930 . S
H451 C459 0.930 . S
H452 C462 0.930 . S
H453 C463 0.930 . S
C454 H448 0.930 . S
C454 C455 1.355 . S
C454 C456 1.415 . S
C455 C454 1.355 . S
C455 C457 1.419 . S
C456 C454 1.415 . S
C456 C461 1.425 1_655 S
C456 C463 1.409 . S
C457 H449 0.930 . S
C457 C455 1.419 . S
C457 C458 1.362 1_655 S
C458 H450 0.930 . S
C458 C457 1.362 1_455 S
C458 C461 1.409 . S
C459 H451 0.930 . S
C459 C460 1.355 . S
C459 C461 1.415 . S
C460 C459 1.355 . S
C460 C462 1.419 . S
C461 C456 1.425 1_455 S
C461 C458 1.409 . S
C461 C459 1.415 . S
C462 H452 0.930 . S
C462 C460 1.419 . S
C462 C463 1.362 1_455 S
C463 H453 0.930 . S
C463 C456 1.409 . S
C463 C462 1.362 1_655 S
H464 C470 0.930 . S
H465 C473 0.930 . S
H466 C474 0.930 . S
H467 C475 0.930 . S
H468 C478 0.930 . S
H469 C479 0.930 . S
C470 H464 0.930 . S
C470 C471 1.355 . S
C470 C472 1.415 . S
C471 C470 1.355 . S
C471 C473 1.419 . S
C472 C470 1.415 . S
C472 C477 1.425 . S
C472 C479 1.409 1_655 S
C473 H465 0.930 . S
C473 C471 1.419 . S
C473 C474 1.362 . S
C474 H466 0.930 . S
C474 C473 1.362 . S
C474 C477 1.409 . S
C475 H467 0.930 . S
C475 C476 1.355 . S
C475 C477 1.415 1_455 S
C476 C475 1.355 . S
C476 C478 1.419 . S
C477 C472 1.425 . S
C477 C474 1.409 . S
C477 C475 1.415 1_655 S
C478 H468 0.930 . S
C478 C476 1.419 . S
C478 C479 1.362 . S
C479 H469 0.930 . S
C479 C472 1.409 1_455 S
C479 C478 1.362 . S
H480 C486 0.930 . S
H481 C489 0.930 . S
H482 C490 0.930 . S
H483 C491 0.930 . S
H484 C494 0.930 . S
H485 C495 0.930 . S
C486 H480 0.930 . S
C486 C487 1.355 . S
C486 C488 1.415 . S
C487 C486 1.355 . S
C487 C489 1.419 . S
C488 C486 1.415 . S
C488 C493 1.425 . S
C488 C495 1.409 . S
C489 H481 0.930 . S
C489 C487 1.419 . S
C489 C490 1.362 . S
C490 H482 0.930 . S
C490 C489 1.362 . S
C490 C493 1.409 . S
C491 H483 0.930 . S
C491 C492 1.355 . S
C491 C493 1.415 . S
C492 C491 1.355 . S
C492 C494 1.419 . S
C493 C488 1.425 . S
C493 C490 1.409 . S
C493 C491 1.415 . S
C494 H484 0.930 . S
C494 C492 1.419 . S
C494 C495 1.362 . S
C495 H485 0.930 . S
C495 C488 1.409 . S
C495 C494 1.362 . S
H496 C502 0.930 . S
H497 C505 0.930 . S
H498 C506 0.930 1_565 S
H499 C507 0.930 . S
H500 C510 0.930 . S
H501 C511 0.930 . S
C502 H496 0.930 . S
C502 C503 1.355 . S
C502 C504 1.415 . S
C503 C502 1.355 . S
C503 C505 1.419 . S
C504 C502 1.415 . S
C504 C509 1.425 1_545 S
C504 C511 1.409 . S
C505 H497 0.930 . S
C505 C503 1.419 . S
C505 C506 1.362 . S
C506 H498 0.930 1_545 S
C506 C505 1.362 . S
C506 C509 1.409 1_545 S
C507 H499 0.930 . S
C507 C508 1.355 . S
C507 C509 1.415 . S
C508 C507 1.355 . S
C508 C510 1.419 . S
C509 C504 1.425 1_565 S
C509 C506 1.409 1_565 S
C509 C507 1.415 . S
C510 H500 0.930 . S
C510 C508 1.419 . S
C510 C511 1.362 1_565 S
C511 H501 0.930 . S
C511 C504 1.409 . S
C511 C510 1.362 1_545 S
H512 C518 0.930 . S
H513 C521 0.930 . S
H514 C522 0.930 . S
H515 C523 0.930 . S
H516 C526 0.930 . S
H517 C527 0.930 . S
C518 H512 0.930 . S
C518 C519 1.355 . S
C518 C520 1.415 . S
C519 C518 1.355 . S
C519 C521 1.419 . S
C520 C518 1.415 . S
C520 C525 1.425 . S
C520 C527 1.409 . S
C521 H513 0.930 . S
C521 C519 1.419 . S
C521 C522 1.362 . S
C522 H514 0.930 . S
C522 C521 1.362 . S
C522 C525 1.409 . S
C523 H515 0.930 . S
C523 C524 1.355 . S
C523 C525 1.415 . S
C524 C523 1.355 . S
C524 C526 1.419 . S
C525 C520 1.425 . S
C525 C522 1.409 . S
C525 C523 1.415 . S
C526 H516 0.930 . S
C526 C524 1.419 . S
C526 C527 1.362 . S
C527 H517 0.930 . S
C527 C520 1.409 . S
C527 C526 1.362 . S
H528 C534 0.930 . S
H529 C537 0.930 . S
H530 C538 0.930 . S
H531 C539 0.930 . S
H532 C542 0.930 . S
H533 C543 0.930 . S
C534 H528 0.930 . S
C534 C535 1.355 . S
C534 C536 1.415 . S
C535 C534 1.355 . S
C535 C537 1.419 . S
C536 C534 1.415 . S
C536 C541 1.425 . S
C536 C543 1.409 1_554 S
C537 H529 0.930 . S
C537 C535 1.419 . S
C537 C538 1.362 . S
C538 H530 0.930 . S
C538 C537 1.362 . S
C538 C541 1.409 . S
C539 H531 0.930 . S
C539 C540 1.355 . S
C539 C541 1.415 1_556 S
C540 C539 1.355 . S
C540 C542 1.419 . S
C541 C536 1.425 . S
C541 C538 1.409 . S
C541 C539 1.415 1_554 S
C542 H532 0.930 . S
C542 C540 1.419 . S
C542 C543 1.362 . S
C543 H533 0.930 . S
C543 C536 1.409 1_556 S
C543 C542 1.362 . S
H544 C550 0.930 . S
H545 C553 0.930 . S
H546 C554 0.930 . S
H547 C555 0.930 . S
H548 C558 0.930 . S
H549 C559 0.930 . S
C550 H544 0.930 . S
C550 C551 1.355 . S
C550 C552 1.415 1_556 S
C551 C550 1.355 . S
C551 C553 1.419 . S
C552 C550 1.415 1_554 S
C552 C557 1.425 . S
C552 C559 1.409 . S
C553 H545 0.930 . S
C553 C551 1.419 . S
C553 C554 1.362 . S
C554 H546 0.930 . S
C554 C553 1.362 . S
C554 C557 1.409 1_556 S
C555 H547 0.930 . S
C555 C556 1.355 . S
C555 C557 1.415 . S
C556 C555 1.355 . S
C556 C558 1.419 . S
C557 C552 1.425 . S
C557 C554 1.409 1_554 S
C557 C555 1.415 . S
C558 H548 0.930 . S
C558 C556 1.419 . S
C558 C559 1.362 . S
C559 H549 0.930 . S
C559 C552 1.409 . S
C559 C558 1.362 . S
H560 C566 0.930 . S
H561 C569 0.930 . S
H562 C570 0.930 . S
H563 C571 0.930 . S
H564 C574 0.930 . S
H565 C575 0.930 . S
C566 H560 0.930 . S
C566 C567 1.355 . S
C566 C568 1.415 . S
C567 C566 1.355 . S
C567 C569 1.419 . S
C568 C566 1.415 . S
C568 C573 1.425 . S
C568 C575 1.409 . S
C569 H561 0.930 . S
C569 C567 1.419 . S
C569 C570 1.362 . S
C570 H562 0.930 . S
C570 C569 1.362 . S
C570 C573 1.409 . S
C571 H563 0.930 . S
C571 C572 1.355 . S
C571 C573 1.415 . S
C572 C571 1.355 . S
C572 C574 1.419 . S
C573 C568 1.425 . S
C573 C570 1.409 . S
C573 C571 1.415 . S
C574 H564 0.930 . S
C574 C572 1.419 . S
C574 C575 1.362 . S
C575 H565 0.930 . S
C575 C568 1.409 . S
C575 C574 1.362 . S
H576 C582 0.930 . S
H577 C585 0.930 . S
H578 C586 0.930 . S
H579 C587 0.930 . S
H580 C590 0.930 . S
H581 C591 0.930 . S
C582 H576 0.930 . S
C582 C583 1.355 . S
C582 C584 1.415 . S
C583 C582 1.355 . S
C583 C585 1.419 . S
C584 C582 1.415 . S
C584 C589 1.425 . S
C584 C591 1.409 . S
C585 H577 0.930 . S
C585 C583 1.419 . S
C585 C586 1.362 . S
C586 H578 0.930 . S
C586 C585 1.362 . S
C586 C589 1.409 . S
C587 H579 0.930 . S
C587 C588 1.355 . S
C587 C589 1.415 . S
C588 C587 1.355 . S
C588 C590 1.419 . S
C589 C584 1.425 . S
C589 C586 1.409 . S
C589 C587 1.415 . S
C590 H580 0.930 . S
C590 C588 1.419 . S
C590 C591 1.362 . S
C591 H581 0.930 . S
C591 C584 1.409 . S
C591 C590 1.362 . S
H592 C598 0.930 . S
H593 C601 0.930 . S
H594 C602 0.944 . S
H595 C603 0.930 . S
H596 C606 0.930 . S
H597 C607 0.930 . S
C598 H592 0.930 . S
C598 C599 1.355 . S
C598 C600 1.415 . S
C599 C598 1.355 . S
C599 C601 1.419 . S
C600 C598 1.415 . S
C600 C605 1.425 1_455 S
C600 C607 1.409 . S
C601 H593 0.930 . S
C601 C599 1.419 . S
C601 C602 1.344 1_455 S
C602 H594 0.944 . S
C602 C601 1.344 1_655 S
C602 C605 1.414 . S
C603 H595 0.930 . S
C603 C604 1.355 . S
C603 C605 1.415 . S
C604 C603 1.355 . S
C604 C606 1.419 . S
C605 C600 1.425 1_655 S
C605 C602 1.414 . S
C605 C603 1.415 . S
C606 H596 0.930 . S
C606 C604 1.419 . S
C606 C607 1.362 1_655 S
C607 H597 0.930 . S
C607 C600 1.409 . S
C607 C606 1.362 1_455 S
H608 C614 0.930 . S
H609 C617 0.930 . S
H610 C618 0.930 . S
H611 C619 0.930 . S
H612 C622 0.930 . S
H613 C623 0.930 . S
C614 H608 0.930 . S
C614 C615 1.355 . S
C614 C616 1.415 . S
C615 C614 1.355 . S
C615 C617 1.419 . S
C616 C614 1.415 . S
C616 C621 1.425 . S
C616 C623 1.409 1_455 S
C617 H609 0.930 . S
C617 C615 1.419 . S
C617 C618 1.362 . S
C618 H610 0.930 . S
C618 C617 1.362 . S
C618 C621 1.409 . S
C619 H611 0.930 . S
C619 C620 1.355 . S
C619 C621 1.415 1_655 S
C620 C619 1.355 . S
C620 C622 1.419 . S
C621 C616 1.425 . S
C621 C618 1.409 . S
C621 C619 1.415 1_455 S
C622 H612 0.930 . S
C622 C620 1.419 . S
C622 C623 1.362 . S
C623 H613 0.930 . S
C623 C616 1.409 1_655 S
C623 C622 1.362 . S
H624 C630 0.930 . S
H625 C633 0.930 . S
H626 C634 0.930 . S
H627 C635 0.930 . S
H628 C638 0.930 . S
H629 C639 0.930 . S
C630 H624 0.930 . S
C630 C631 1.355 . S
C630 C632 1.415 . S
C631 C630 1.355 . S
C631 C633 1.419 . S
C632 C630 1.415 . S
C632 C637 1.425 . S
C632 C639 1.409 . S
C633 H625 0.930 . S
C633 C631 1.419 . S
C633 C634 1.362 . S
C634 H626 0.930 . S
C634 C633 1.362 . S
C634 C637 1.409 . S
C635 H627 0.930 . S
C635 C636 1.355 . S
C635 C637 1.415 . S
C636 C635 1.355 . S
C636 C638 1.419 . S
C637 C632 1.425 . S
C637 C634 1.409 . S
C637 C635 1.415 . S
C638 H628 0.930 . S
C638 C636 1.419 . S
C638 C639 1.362 . S
C639 H629 0.930 . S
C639 C632 1.409 . S
C639 C638 1.362 . S
H640 C646 0.930 . S
H641 C649 0.930 . S
H642 C650 0.930 . S
H643 C651 0.930 . S
H644 C654 0.930 . S
H645 C655 0.930 . S
C646 H640 0.930 . S
C646 C647 1.355 . S
C646 C648 1.415 . S
C647 C646 1.355 . S
C647 C649 1.419 . S
C648 C646 1.415 . S
C648 C653 1.425 . S
C648 C655 1.409 . S
C649 H641 0.930 . S
C649 C647 1.419 . S
C649 C650 1.362 . S
C650 H642 0.930 . S
C650 C649 1.362 . S
C650 C653 1.409 . S
C651 H643 0.930 . S
C651 C652 1.355 . S
C651 C653 1.415 . S
C652 C651 1.355 . S
C652 C654 1.419 . S
C653 C648 1.425 . S
C653 C650 1.409 . S
C653 C651 1.415 . S
C654 H644 0.930 . S
C654 C652 1.419 . S
C654 C655 1.362 . S
C655 H645 0.930 . S
C655 C648 1.409 . S
C655 C654 1.362 . S
H656 C662 0.930 . S
H657 C665 0.930 . S
H658 C666 0.930 . S
H659 C667 0.930 . S
H660 C670 0.930 . S
H661 C671 0.930 . S
C662 H656 0.930 . S
C662 C663 1.355 . S
C662 C664 1.415 . S
C663 C662 1.355 . S
C663 C665 1.419 . S
C664 C662 1.415 . S
C664 C669 1.425 1_545 S
C664 C671 1.409 . S
C665 H657 0.930 . S
C665 C663 1.419 . S
C665 C666 1.362 1_545 S
C666 H658 0.930 . S
C666 C665 1.362 1_565 S
C666 C669 1.409 . S
C667 H659 0.930 . S
C667 C668 1.355 . S
C667 C669 1.415 . S
C668 C667 1.355 . S
C668 C670 1.419 . S
C669 C664 1.425 1_565 S
C669 C666 1.409 . S
C669 C667 1.415 . S
C670 H660 0.930 . S
C670 C668 1.419 . S
C670 C671 1.362 1_565 S
C671 H661 0.930 . S
C671 C664 1.409 . S
C671 C670 1.362 1_545 S
H672 C678 0.930 . S
H673 C681 0.930 . S
H674 C682 0.930 . S
H675 C683 0.930 . S
H676 C686 0.930 . S
H677 C687 0.930 . S
C678 H672 0.930 . S
C678 C679 1.355 . S
C678 C680 1.415 . S
C679 C678 1.355 . S
C679 C681 1.419 . S
C680 C678 1.415 . S
C680 C685 1.425 . S
C680 C687 1.409 . S
C681 H673 0.930 . S
C681 C679 1.419 . S
C681 C682 1.362 . S
C682 H674 0.930 . S
C682 C681 1.362 . S
C682 C685 1.409 . S
C683 H675 0.930 . S
C683 C684 1.355 . S
C683 C685 1.415 . S
C684 C683 1.355 . S
C684 C686 1.419 . S
C685 C680 1.425 . S
C685 C682 1.409 . S
C685 C683 1.415 . S
C686 H676 0.930 . S
C686 C684 1.419 . S
C686 C687 1.362 . S
C687 H677 0.930 . S
C687 C680 1.409 . S
C687 C686 1.362 . S
H688 C694 0.930 . S
H689 C697 0.930 . S
H690 C698 0.930 . S
H691 C699 0.930 . S
H692 C702 0.930 . S
H693 C703 0.930 . S
C694 H688 0.930 . S
C694 C695 1.355 . S
C694 C696 1.415 . S
C695 C694 1.355 . S
C695 C697 1.419 . S
C696 C694 1.415 . S
C696 C701 1.425 . S
C696 C703 1.409 . S
C697 H689 0.930 . S
C697 C695 1.419 . S
C697 C698 1.362 . S
C698 H690 0.930 . S
C698 C697 1.362 . S
C698 C701 1.409 . S
C699 H691 0.930 . S
C699 C700 1.355 . S
C699 C701 1.415 . S
C700 C699 1.355 . S
C700 C702 1.419 . S
C701 C696 1.425 . S
C701 C698 1.409 . S
C701 C699 1.415 . S
C702 H692 0.930 . S
C702 C700 1.419 . S
C702 C703 1.362 . S
C703 H693 0.930 . S
C703 C696 1.409 . S
C703 C702 1.362 . S
H704 C710 0.930 . S
H705 C713 0.930 . S
H706 C714 0.930 . S
H707 C715 0.930 . S
H708 C718 0.930 . S
H709 C719 0.930 . S
C710 H704 0.930 . S
C710 C711 1.355 . S
C710 C712 1.415 . S
C711 C710 1.355 . S
C711 C713 1.419 . S
C712 C710 1.415 . S
C712 C717 1.425 . S
C712 C719 1.409 1_545 S
C713 H705 0.930 . S
C713 C711 1.419 . S
C713 C714 1.362 . S
C714 H706 0.930 . S
C714 C713 1.362 . S
C714 C717 1.409 . S
C715 H707 0.930 . S
C715 C716 1.355 . S
C715 C717 1.415 1_565 S
C716 C715 1.355 . S
C716 C718 1.419 . S
C717 C712 1.425 . S
C717 C714 1.409 . S
C717 C715 1.415 1_545 S
C718 H708 0.930 . S
C718 C716 1.419 . S
C718 C719 1.362 . S
C719 H709 0.930 . S
C719 C712 1.409 1_565 S
C719 C718 1.362 . S
H720 C726 0.930 . S
H721 C729 0.930 . S
H722 C730 0.930 . S
H723 C731 0.930 . S
H724 C734 0.930 . S
H725 C735 0.930 . S
C726 H720 0.930 . S
C726 C727 1.355 . S
C726 C728 1.415 . S
C727 C726 1.355 . S
C727 C729 1.419 . S
C728 C726 1.415 . S
C728 C733 1.425 . S
C728 C735 1.409 . S
C729 H721 0.930 . S
C729 C727 1.419 . S
C729 C730 1.362 . S
C730 H722 0.930 . S
C730 C729 1.362 . S
C730 C733 1.409 . S
C731 H723 0.930 . S
C731 C732 1.355 . S
C731 C733 1.415 . S
C732 C731 1.355 . S
C732 C734 1.419 . S
C733 C728 1.425 . S
C733 C730 1.409 . S
C733 C731 1.415 . S
C734 H724 0.930 . S
C734 C732 1.419 . S
C734 C735 1.362 . S
C735 H725 0.930 . S
C735 C728 1.409 . S
C735 C734 1.362 . S
C231 C8 1.411 . S
C236 C190 1.393 . S
C247 C22 1.221 . S
C252 C134 1.210 . S
C263 C204 1.114 . S
C268 C36 1.084 . S
C279 C50 1.042 . S
C284 C218 1.040 . S
C295 C64 1.223 . S
C300 C92 1.208 . S
C311 C148 1.360 . S
C316 C78 1.394 . S
C327 C162 1.106 . S
C332 C106 1.146 . S
C343 C120 1.108 . S
C348 C176 1.103 . S
C359 C41 1.532 . S
C364 C7 1.671 . S
C375 C21 1.532 . S
C380 C55 1.477 . S
C391 C175 1.457 . S
C396 C11 1.477 . S
C407 C25 1.461 . S
C412 C161 1.473 . S
C423 C67 1.448 . S
C428 C35 1.450 . S
C439 C151 1.458 . S
C444 C49 1.451 . S
C455 C27 1.491 . S
C460 C13 1.516 . S
C471 C53 1.457 . S
C476 C39 1.468 . S
C487 C153 1.477 . S
C492 C69 1.533 . S
C503 C105 1.476 . S
C508 C83 1.375 . S
C519 C97 1.326 . S
C524 C125 1.377 . S
C535 C221 1.544 . S
C540 C81 1.556 . S
C551 C95 1.604 . S
C556 C209 1.441 . S
C567 C137 1.613 . S
C572 C111 1.443 . S
C583 C123 1.565 . S
C588 C193 1.541 . S
C599 C91 1.722 . S
C604 C77 1.702 . S
C615 C119 1.360 . S
C620 C109 1.360 . S
C631 C133 1.704 . S
C636 C189 1.719 . S
C647 C147 1.679 . S
C652 C167 1.614 . S
C663 C181 1.403 . S
C668 C63 1.517 . S
C679 C179 1.482 . S
C684 C165 1.473 . S
C695 C203 1.497 . S
C700 C195 1.379 . S
C711 C139 1.306 . S
C716 C223 1.327 . S
C727 C217 1.366 . S
C732 C207 1.363 . S
