# Generated by pormake.
# Topology rkf, (6)-cn, num edge types: 1
# Building blocks:
#     Node 0, Type 0, BuildingBlock: PAMTOO_clean_sbu_0, # of connection points: 6
#     Node 1, Type 0, BuildingBlock: PAMTOO_clean_sbu_0, # of connection points: 6
#     Node 2, Type 0, BuildingBlock: PAMTOO_clean_sbu_0, # of connection points: 6
#     Node 3, Type 0, BuildingBlock: PAMTOO_clean_sbu_0, # of connection points: 6
#     Node 4, Type 0, BuildingBlock: PAMTOO_clean_sbu_0, # of connection points: 6
#     Node 5, Type 0, BuildingBlock: PAMTOO_clean_sbu_0, # of connection points: 6
#     Edge 6, Type (0, 0), BuildingBlock: MIFKUJ_clean_linker_0, # of connection points: 2
#     Edge 7, Type (0, 0), BuildingBlock: MIFKUJ_clean_linker_0, # of connection points: 2
#     Edge 8, Type (0, 0), BuildingBlock: MIFKUJ_clean_linker_0, # of connection points: 2
#     Edge 9, Type (0, 0), BuildingBlock: MIFKUJ_clean_linker_0, # of connection points: 2
#     Edge 10, Type (0, 0), BuildingBlock: MIFKUJ_clean_linker_0, # of connection points: 2
#     Edge 11, Type (0, 0), BuildingBlock: MIFKUJ_clean_linker_0, # of connection points: 2
#     Edge 12, Type (0, 0), BuildingBlock: MIFKUJ_clean_linker_0, # of connection points: 2
#     Edge 13, Type (0, 0), BuildingBlock: MIFKUJ_clean_linker_0, # of connection points: 2
#     Edge 14, Type (0, 0), BuildingBlock: MIFKUJ_clean_linker_0, # of connection points: 2
#     Edge 15, Type (0, 0), BuildingBlock: MIFKUJ_clean_linker_0, # of connection points: 2
#     Edge 16, Type (0, 0), BuildingBlock: MIFKUJ_clean_linker_0, # of connection points: 2
#     Edge 17, Type (0, 0), BuildingBlock: MIFKUJ_clean_linker_0, # of connection points: 2
#     Edge 18, Type (0, 0), BuildingBlock: MIFKUJ_clean_linker_0, # of connection points: 2
#     Edge 19, Type (0, 0), BuildingBlock: MIFKUJ_clean_linker_0, # of connection points: 2
#     Edge 20, Type (0, 0), BuildingBlock: MIFKUJ_clean_linker_0, # of connection points: 2
#     Edge 21, Type (0, 0), BuildingBlock: MIFKUJ_clean_linker_0, # of connection points: 2
#     Edge 22, Type (0, 0), BuildingBlock: MIFKUJ_clean_linker_0, # of connection points: 2
#     Edge 23, Type (0, 0), BuildingBlock: MIFKUJ_clean_linker_0, # of connection points: 2
# Relax obj value: 0.614
# Max RMSD: 0.272
# Mean RMSD: 0.272
data_MOF--net-rkf--node1-PAMTOO_clean_sbu_0--edge1-MIFKUJ_clean_linker_0
_symmetry_space_group_name_H-M    P1
_symmetry_Int_Tables_number       1
_symmetry_cell_setting            triclinic
loop_
_symmetry_equiv_pos_as_xyz
'x, y, z'
_cell_length_a     32.558482
_cell_length_b     32.678757
_cell_length_c     58.307433
_cell_angle_alpha  90.296497
_cell_angle_beta   89.905304
_cell_angle_gamma 119.75679
loop_
_atom_site_label
_atom_site_type_symbol
_atom_site_fract_x
_atom_site_fract_y
_atom_site_fract_z
_atom_type_partial_charge
Dy0 Dy 0.1986 -0.00091 0.105 0.0
Dy1 Dy 0.19381 0.09131 0.09207 0.0
C2 C 0.10291 -0.00484 0.10865 0.0
O3 O 0.16276 0.98472 1.06953 0.0
O4 O 0.19723 0.06069 1.0576 0.0
O5 O 0.17172 0.92493 0.09975 0.0
O6 O 0.23138 0.96436 0.1225 0.0
O7 O 0.27098 0.11314 0.09672 0.0
O8 O 0.2649 0.04372 0.0861 0.0
O9 O 0.18052 0.08728 0.13006 0.0
O10 O 0.2121 0.04052 0.13929 0.0
O11 O 0.21851 0.1651 0.09837 0.0
O12 O 0.16938 0.12882 1.07071 0.0
C13 C 0.17326 0.01535 1.05266 0.0
O14 O 0.13246 0.98744 0.12013 0.0
O15 O 0.11824 0.03106 0.09441 0.0
C16 C 0.17571 0.88601 0.13216 0.0
C17 C 0.12009 0.81107 0.16183 0.0
C18 C 0.11998 0.85398 0.16357 0.0
C19 C 0.14755 0.89111 0.14884 0.0
C20 C 0.17684 0.84377 0.13063 0.0
C21 C 0.14937 0.80655 0.14547 0.0
C22 C 0.19986 0.92273 0.11494 0.0
C23 C 0.29085 0.08887 0.08968 0.0
C24 C 0.1968 0.06996 0.14567 0.0
C25 C 0.23372 0.20406 1.06345 0.0
C26 C 0.30288 0.2697 1.03358 0.0
C27 C 0.27937 0.28403 1.04924 0.0
C28 C 0.245 0.25136 1.0641 0.0
C29 C 0.25791 0.18998 1.04831 0.0
C30 C 0.29183 0.22229 1.03344 0.0
C31 C 0.19966 0.16958 1.07956 0.0
H32 H 0.09849 0.85883 0.17631 0.0
H33 H 0.14612 0.92348 0.15014 0.0
H34 H 0.19806 0.83921 0.11762 0.0
H35 H 0.15003 0.77387 0.14374 0.0
H36 H 0.2873 0.32035 1.0499 0.0
H37 H 0.22735 0.26297 1.07606 0.0
H38 H 0.25038 0.15376 1.04786 0.0
H39 H 0.30825 0.20957 1.02134 0.0
Dy40 Dy 0.15769 0.28712 0.42327 0.0
Dy41 Dy 0.21434 0.23275 0.43724 0.0
C42 C 0.1042 0.18752 0.44889 0.0
O43 O 0.15384 0.28928 0.46196 0.0
O44 O 0.20188 0.25901 0.47196 0.0
O45 O 0.09513 0.29361 0.41924 0.0
O46 O 0.16426 0.35215 0.41081 0.0
O47 O 0.26124 0.29946 0.4186 0.0
O48 O 0.23036 0.34025 0.4348 0.0
O49 O 0.18697 0.20271 0.40195 0.0
O50 O 0.17139 0.25996 0.38907 0.0
O51 O 0.28448 0.24728 0.44549 0.0
O52 O 0.22729 0.17479 0.4435 0.0
C53 C 0.17409 0.27652 0.47782 0.0
O54 O 0.10066 0.216 0.43418 0.0
O55 O 0.14405 0.188 0.45286 0.0
C56 C 0.09778 0.35208 0.39453 0.0
C57 C 0.05783 0.38447 0.36156 0.0
C58 C 0.08126 0.35986 0.35481 0.0
C59 C 0.10115 0.34376 0.37121 0.0
C60 C 0.07449 0.37647 0.40132 0.0
C61 C 0.05464 0.39253 0.38499 0.0
C62 C 0.11905 0.33709 0.4123 0.0
C63 C 0.26675 0.33956 0.42595 0.0
C64 C 0.17826 0.22371 0.38486 0.0
C65 C 0.28685 0.19552 0.47158 0.0
C66 C 0.32887 0.20112 0.51428 0.0
C67 C 0.34757 0.19241 0.49433 0.0
C68 C 0.32685 0.19007 0.47301 0.0
C69 C 0.26668 0.20161 0.49164 0.0
C70 C 0.28763 0.20455 0.51284 0.0
C71 C 0.27135 0.20319 0.4493 0.0
H72 H 0.08357 0.35242 0.33688 0.0
H73 H 0.11904 0.32491 0.36575 0.0
H74 H 0.07188 0.38334 0.41932 0.0
H75 H 0.0372 0.41165 0.3907 0.0
H76 H 0.3792 0.1894 0.49514 0.0
H77 H 0.34317 0.18601 0.4576 0.0
H78 H 0.23597 0.20617 0.49079 0.0
H79 H 0.27208 0.21032 0.5281 0.0
Dy80 Dy 0.05774 0.30301 0.77547 0.0
Dy81 Dy 0.94853 0.22891 0.76204 0.0
C82 C 0.02878 0.20009 0.76164 0.0
O83 O 0.06148 0.2955 0.73669 0.0
O84 O 0.98289 0.25091 0.72661 0.0
O85 O 0.13233 0.33349 0.76915 0.0
O86 O 0.10812 0.36045 0.79687 0.0
O87 O 0.95249 0.29528 0.77522 0.0
O88 O 0.02681 0.34603 0.76316 0.0
O89 O 0.95185 0.21245 0.79912 0.0
O90 O 0.01869 0.27999 0.81012 0.0
O91 O 0.8831 0.21814 0.74768 0.0
O92 O 0.88631 0.16023 0.76421 0.0
C93 C 0.02832 0.27445 0.72082 0.0
O94 O 0.05121 0.23235 0.77734 0.0
O95 O -0.00961 0.19509 0.7518 0.0
C96 C 0.17928 0.3594 0.80214 0.0
C97 C 0.24605 0.356 0.83144 0.0
C98 C 0.20748 0.31418 0.82299 0.0
C99 C 0.17426 0.31586 0.80856 0.0
C100 C 0.21808 0.40123 0.81009 0.0
C101 C 0.25127 0.3996 0.82467 0.0
C102 C 0.14446 0.36126 0.78696 0.0
C103 C 0.98496 0.33789 0.76948 0.0
C104 C 0.97911 0.24073 0.81545 0.0
C105 C 0.83256 0.14197 0.734 0.0
C106 C 0.77708 0.08743 0.69717 0.0
C107 C 0.8266 0.11369 0.69508 0.0
C108 C 0.85422 0.14082 0.71342 0.0
C109 C 0.78346 0.11462 0.73645 0.0
C110 C 0.75578 0.08734 0.71814 0.0
C111 C 0.86054 0.17325 0.7526 0.0
H112 H 0.20278 0.28008 0.82766 0.0
H113 H 0.14457 0.28316 0.80247 0.0
H114 H 0.22241 0.43511 0.80522 0.0
H115 H 0.28019 0.43238 0.83115 0.0
H116 H 0.84384 0.1138 0.67915 0.0
H117 H 0.89226 0.1617 0.71141 0.0
H118 H 0.76646 0.11533 0.75233 0.0
H119 H 0.71769 0.06767 0.72009 0.0
Dy120 Dy 0.73191 0.02876 0.09351 0.0
Dy121 Dy 0.82957 0.12067 0.10732 0.0
C122 C 0.82157 0.02235 0.09232 0.0
O123 O 0.75182 0.01259 0.12866 0.0
O124 O 0.79795 0.08798 0.14172 0.0
O125 O 0.68472 0.9543 0.09703 0.0
O126 O 0.66366 -0.00362 1.0767 0.0
O127 O 0.77362 0.142 0.1031 0.0
O128 O 0.71232 0.07276 0.11459 0.0
O129 O 0.83885 0.11435 1.06955 0.0
O130 O 0.76035 0.07148 1.05995 0.0
O131 O 0.87948 0.19373 0.10024 0.0
O132 O 0.89112 0.15915 0.12892 0.0
C133 C 0.77455 0.04218 0.14574 0.0
O134 O 0.78778 0.01803 1.07897 0.0
O135 O 0.84234 0.05868 0.10641 0.0
C136 C 0.63699 0.91717 1.06532 0.0
C137 C 0.61586 0.84445 1.03356 0.0
C138 C 0.64125 0.89186 1.02668 0.0
C139 C 0.65205 0.92802 1.0425 0.0
C140 C 0.60996 0.86989 1.07196 0.0
C141 C 0.59965 0.83374 1.05623 0.0
C142 C 0.65345 0.95399 1.083 0.0
C143 C 0.73022 0.11758 0.11083 0.0
C144 C 0.80539 0.09914 1.05385 0.0
C145 C 0.90609 0.23685 0.13427 0.0
C146 C 0.90866 0.30896 0.16208 0.0
C147 C 0.94192 0.31978 0.14437 0.0
C148 C 0.94061 0.28394 0.13057 0.0
C149 C 0.8722 0.22605 0.15151 0.0
C150 C 0.87366 0.26161 0.16536 0.0
C151 C 0.90286 0.19929 0.11915 0.0
H152 H 0.65478 0.90103 1.00937 0.0
H153 H 0.67361 0.96428 1.03709 0.0
H154 H 0.59841 0.86097 0.08958 0.0
H155 H 0.58 0.79746 1.06189 0.0
H156 H 0.9691 0.35586 0.14125 0.0
H157 H 0.96642 0.29297 0.11699 0.0
H158 H 0.84466 0.18997 0.15437 0.0
H159 H 0.84809 0.25162 0.1791 0.0
Dy160 Dy 0.77072 0.87495 0.43204 0.0
Dy161 Dy 0.83265 0.82402 0.41848 0.0
C162 C 0.87785 0.92696 0.43679 0.0
O163 O 0.76743 0.87012 0.39331 0.0
O164 O 0.83144 0.86113 0.38533 0.0
O165 O 0.76427 0.93151 0.44761 0.0
O166 O 0.70863 0.88048 0.42545 0.0
O167 O 0.75596 0.77236 0.41161 0.0
O168 O 0.72373 0.79876 0.43855 0.0
O169 O 0.8274 0.81887 0.45781 0.0
O170 O 0.79322 0.86401 0.46747 0.0
O171 O 0.83803 0.76078 0.41959 0.0
O172 O 0.89307 0.82412 0.40327 0.0
C173 C 0.79895 0.87173 0.37857 0.0
O174 O 0.84527 0.92524 0.42315 0.0
O175 O 0.88145 0.88901 0.43798 0.0
C176 C 0.68574 0.91078 0.45601 0.0
C177 C 0.62081 0.90596 0.48908 0.0
C178 C 0.6471 0.88288 0.49259 0.0
C179 C 0.67923 0.88522 0.47615 0.0
C180 C 0.65772 0.93136 0.45169 0.0
C181 C 0.62531 0.92889 0.46811 0.0
C182 C 0.72166 0.91599 0.43947 0.0
C183 C 0.72042 0.76541 0.42488 0.0
C184 C 0.81406 0.8396 0.47355 0.0
C185 C 0.87776 0.75024 0.38826 0.0
C186 C 0.88594 0.69671 0.35225 0.0
C187 C 0.88537 0.68355 0.37524 0.0
C188 C 0.88144 0.71019 0.39306 0.0
C189 C 0.87632 0.76244 0.36537 0.0
C190 C 0.88062 0.73609 0.34755 0.0
C191 C 0.87664 0.77932 0.40733 0.0
H192 H 0.64544 0.86576 0.50869 0.0
H193 H 0.70029 0.86861 0.47954 0.0
H194 H 0.66193 0.95051 0.43594 0.0
H195 H 0.60542 0.94677 0.46487 0.0
H196 H 0.88878 0.65315 0.37948 0.0
H197 H 0.88214 0.69998 0.41064 0.0
H198 H 0.87309 0.79301 0.36123 0.0
H199 H 0.88172 0.74788 0.33013 0.0
Dy200 Dy 0.04112 0.87401 0.7587 0.0
Dy201 Dy 0.92935 0.83858 0.76989 0.0
C202 C -0.001 0.93715 0.74929 0.0
O203 O 0.03658 0.86645 0.79743 0.0
O204 O 0.96946 0.87132 0.80344 0.0
O205 O 0.11297 0.92238 0.76874 0.0
O206 O 0.09908 0.87632 0.73949 0.0
O207 O 0.93808 0.77615 0.77824 0.0
O208 O 0.01021 0.79702 0.76179 0.0
O209 O 0.92853 0.82504 0.73144 0.0
O210 O 0.00811 0.86663 0.72288 0.0
O211 O 0.85576 0.78507 0.76876 0.0
O212 O 0.87695 0.85349 0.78407 0.0
C213 C 0.0088 0.87377 0.81136 0.0
O214 O 0.02594 0.93212 0.76409 0.0
O215 O 0.95521 0.9031 0.74805 0.0
C216 C 0.16934 0.95138 0.73897 0.0
C217 C 0.24429 0.027 0.7158 0.0
C218 C 0.21223 0.98601 0.70382 0.0
C219 C 0.1752 0.94852 0.71528 0.0
C220 C 0.20127 -0.00754 0.75096 0.0
C221 C 0.23825 0.03009 0.73945 0.0
C222 C 0.13116 0.91151 0.75148 0.0
C223 C 0.97085 0.76613 0.7717 0.0
C224 C 0.96312 0.84382 0.71613 0.0
C225 C 0.81292 0.7868 0.80056 0.0
C226 C 0.75566 0.74257 0.83887 0.0
C227 C 0.73516 0.74281 0.81768 0.0
C228 C 0.76365 0.76485 0.79867 0.0
C229 C 0.83356 0.78531 0.8214 0.0
C230 C 0.80515 0.76349 0.84045 0.0
C231 C 0.84252 0.81042 0.78066 0.0
H232 H 0.2154 0.98312 0.68546 0.0
H233 H 0.15121 0.91742 0.70554 0.0
H234 H 0.19777 -0.00456 0.76929 0.0
H235 H 0.26245 0.06129 0.74908 0.0
H236 H 0.69713 0.72653 0.81588 0.0
H237 H 0.74725 0.76517 0.78257 0.0
H238 H 0.87166 0.80173 0.82303 0.0
H239 H 0.82208 0.76455 0.85659 0.0
H240 H 0.75585 0.93254 1.08039 0.0
H241 H 0.75431 0.85997 0.09077 0.0
H242 H 0.88971 0.94128 0.12439 0.0
H243 H 0.88992 0.01392 0.11529 0.0
H244 H 0.82999 0.85633 0.14827 0.0
H245 H 0.74842 0.77126 1.08162 0.0
H246 H 0.70724 0.76009 1.04467 0.0
H247 H 0.83319 0.87375 1.01548 0.0
H248 H 0.87522 0.88542 1.0523 0.0
H249 H 0.06783 0.90752 0.12669 0.0
H250 H 0.98632 0.84382 0.12709 0.0
H251 H 0.9433 0.93346 0.09301 0.0
H252 H 0.0255 -0.00268 0.09178 0.0
H253 H 0.89736 0.83139 1.07695 0.0
H254 H 0.91113 0.92213 0.1633 0.0
H255 H 0.95397 0.93697 0.19998 0.0
H256 H 0.9614 0.81028 0.19091 0.0
H257 H 0.91791 0.79435 0.15432 0.0
C258 C 0.78548 0.93505 0.08999 0.0
C259 C 0.82371 0.97916 0.09671 0.0
C260 C 0.78417 0.89324 0.09605 0.0
C261 C 0.82157 0.89471 0.10843 0.0
C262 C 0.85966 0.93886 0.11524 0.0
C263 C 0.86045 0.98061 0.10966 0.0
C264 C 0.82598 0.85213 0.11146 0.0
C265 C 0.84332 0.84819 0.13286 0.0
C266 C 0.8392 0.83575 0.0919 0.0
C267 C 0.81484 0.8291 1.06965 0.0
C268 C 0.7673 0.79378 1.06728 0.0
C269 C 0.74383 0.78741 1.04638 0.0
C270 C 0.76757 0.81625 1.02774 0.0
C271 C 0.81492 0.8514 1.02993 0.0
C272 C 0.83863 0.8578 1.05078 0.0
C273 C 0.04107 0.91396 0.11932 0.0
C274 C 0.05294 0.95795 0.10952 0.0
C275 C -0.00552 0.87719 0.11953 0.0
C276 C 0.95887 0.88396 0.11027 0.0
C277 C 0.9706 0.92751 0.10014 0.0
C278 C 0.01736 0.96417 0.09963 0.0
C279 C 0.90856 0.84858 0.11294 0.0
C280 C 0.8816 0.83467 0.09276 0.0
C281 C 0.88623 0.848 0.13383 0.0
C282 C 0.91146 0.85713 0.15604 0.0
C283 C 0.92162 0.89728 0.1692 0.0
C284 C 0.94606 0.90592 0.18996 0.0
C285 C 0.96046 0.87463 0.19775 0.0
C286 C 0.95027 0.83452 0.18485 0.0
C287 C 0.9257 0.82565 0.16411 0.0
H288 H 0.97948 0.88144 0.2138 0.0
H289 H 0.74927 0.81139 1.01161 0.0
H290 H 0.85911 -0.00211 0.44543 0.0
H291 H 0.85958 0.03225 0.48174 0.0
H292 H 0.9205 0.95432 0.51323 0.0
H293 H 0.92041 0.92076 0.47625 0.0
H294 H 0.92994 -0.00333 0.54613 0.0
H295 H 0.85982 0.12882 0.52286 0.0
H296 H 0.78017 0.11786 0.52061 0.0
H297 H 0.72065 0.9678 0.52016 0.0
H298 H 0.79973 0.97687 0.52211 0.0
H299 H 0.0772 0.1042 0.4701 0.0
H300 H 0.02452 0.07192 0.50265 0.0
H301 H 0.00114 0.1912 0.50199 0.0
H302 H 0.05153 0.22156 0.46837 0.0
H303 H 0.92575 0.13145 0.51136 0.0
H304 H 0.03549 0.1501 0.56044 0.0
H305 H 0.10361 0.16165 0.58356 0.0
H306 H 0.07544 0.02243 0.56588 0.0
H307 H 0.00698 0.0097 0.54275 0.0
C308 C 0.87297 0.98842 0.4601 0.0
C309 C 0.88898 0.95601 0.45788 0.0
C310 C 0.87241 0.00749 0.48142 0.0
C311 C 0.88855 -0.00461 0.50143 0.0
C312 C 0.90687 0.9645 0.49877 0.0
C313 C 0.90755 0.94557 0.47731 0.0
C314 C 0.8927 0.02014 0.52401 0.0
C315 C 0.93042 0.02671 0.53813 0.0
C316 C 0.88596 0.05959 0.52323 0.0
C317 C 0.83727 0.05381 0.52179 0.0
C318 C 0.83042 0.09324 0.52172 0.0
C319 C 0.78488 0.08732 0.52067 0.0
C320 C 0.74542 0.0422 0.51993 0.0
C321 C 0.75132 0.00279 0.52045 0.0
C322 C 0.79672 0.00837 0.52152 0.0
C323 C 0.06004 0.12295 0.47674 0.0
C324 C 0.06697 0.16429 0.46623 0.0
C325 C 0.03098 0.10541 0.49594 0.0
C326 C 0.00924 0.12961 0.50564 0.0
C327 C 0.01711 0.17159 0.49523 0.0
C328 C 0.04525 0.18848 0.47563 0.0
C329 C 0.97189 0.10592 0.52344 0.0
C330 C 0.92765 0.1031 0.51978 0.0
C331 C 0.97216 0.07078 0.53752 0.0
C332 C 0.01554 0.07887 0.54988 0.0
C333 C 0.04403 0.12209 0.56118 0.0
C334 C 0.08275 0.12882 0.57438 0.0
C335 C 0.09397 0.0929 0.57611 0.0
C336 C 0.06666 0.05024 0.56454 0.0
C337 C 0.02761 0.04311 0.55152 0.0
H338 H 0.12365 0.098 0.58652 0.0
H339 H 0.71026 0.03782 0.51922 0.0
H340 H 0.96196 0.97159 0.71762 0.0
H341 H 0.00073 0.01752 0.68381 0.0
H342 H 0.1213 -0.00139 0.69694 0.0
H343 H 0.08437 0.95797 0.73187 0.0
H344 H 0.16586 0.07351 0.68616 0.0
H345 H 0.04238 -0.00806 0.64217 0.0
H346 H 0.98524 0.9567 0.6109 0.0
H347 H 0.9771 0.083 0.6045 0.0
H348 H 0.03457 0.12007 0.63536 0.0
H349 H 0.11938 0.24798 0.74675 0.0
H350 H 0.1529 0.22285 0.7157 0.0
H351 H 0.02828 0.08495 0.71654 0.0
H352 H -0.00624 0.11077 0.74648 0.0
H353 H 0.0551 0.13173 0.67166 0.0
H354 H 0.14528 0.07265 0.73352 0.0
H355 H 0.20184 0.10058 0.76576 0.0
H356 H 0.27609 0.23851 0.73587 0.0
H357 H 0.2199 0.21108 0.70345 0.0
C358 C -0.00289 0.97816 0.71334 0.0
C359 C 0.02124 0.96371 0.72812 0.0
C360 C 0.01932 0.00369 0.69354 0.0
C361 C 0.06606 0.01462 0.68785 0.0
C362 C 0.08678 -0.00624 0.70112 0.0
C363 C 0.06572 0.97068 0.72144 0.0
C364 C 0.09712 0.05618 0.67282 0.0
C365 C 0.14134 0.08622 0.683 0.0
C366 C 0.07562 0.07987 0.66236 0.0
C367 C 0.04202 0.05851 0.6425 0.0
C368 C 0.02839 0.01257 0.63453 0.0
C369 C -0.00415 -0.00787 0.6166 0.0
C370 C 0.97689 0.01723 0.60602 0.0
C371 C -0.0089 0.0632 0.61305 0.0
C372 C 0.0237 0.08395 0.63094 0.0
C373 C 0.10008 0.21175 0.74083 0.0
C374 C 0.05437 0.1808 0.74916 0.0
C375 C 0.11913 0.19765 0.72298 0.0
C376 C 0.09302 0.15215 0.71379 0.0
C377 C 0.04879 0.12042 0.72327 0.0
C378 C 0.02935 0.13478 0.74061 0.0
C379 C 0.10966 0.13622 0.69398 0.0
C380 C 0.07964 0.11906 0.67468 0.0
C381 C 0.14474 0.12316 0.6967 0.0
C382 C 0.1783 0.14004 0.71618 0.0
C383 C 0.17367 0.10893 0.73385 0.0
C384 C 0.20558 0.12466 0.75218 0.0
C385 C 0.24243 0.17137 0.75293 0.0
C386 C 0.24743 0.20239 0.73532 0.0
C387 C 0.21553 0.18679 0.71698 0.0
H388 H 0.26719 0.18348 0.7671 0.0
H389 H 0.95168 0.0013 0.59216 0.0
H390 H 0.38457 0.27597 1.01638 0.0
H391 H 0.42207 0.31161 0.97988 0.0
H392 H 0.33143 0.37246 0.97403 0.0
H393 H 0.29307 0.33607 1.00979 0.0
H394 H 0.36962 0.2804 0.9429 0.0
H395 H 0.37263 0.46298 0.94133 0.0
H396 H 0.40719 0.53509 0.96499 0.0
H397 H 0.50891 0.50121 0.99244 0.0
H398 H 0.4754 0.42913 0.96876 0.0
H399 H 0.22256 0.29641 0.86758 0.0
H400 H 0.27391 0.29596 0.89749 0.0
H401 H 0.39466 0.41127 0.86483 0.0
H402 H 0.34285 0.41175 0.83438 0.0
H403 H 0.39313 0.42924 0.90885 0.0
H404 H 0.39086 0.30426 0.86889 0.0
H405 H 0.35943 0.23169 0.84561 0.0
H406 H 0.26606 0.15209 0.90043 0.0
H407 H 0.29621 0.22418 0.92391 0.0
C408 C 0.37342 0.2979 1.00755 0.0
C409 C 0.33489 0.30209 1.01569 0.0
C410 C 0.39528 0.31862 0.98682 0.0
C411 C 0.37952 0.34456 0.97417 0.0
C412 C 0.34481 0.35322 0.98362 0.0
C413 C 0.32266 0.33216 1.00416 0.0
C414 C 0.38989 0.35298 0.94936 0.0
C415 C 0.37593 0.31324 0.93531 0.0
C416 C 0.40066 0.39642 0.93931 0.0
C417 C 0.42144 0.4405 0.95319 0.0
C418 C 0.40271 0.47109 0.95219 0.0
C419 C 0.42205 0.51195 0.96569 0.0
C420 C 0.46023 0.52272 0.98022 0.0
C421 C 0.47928 0.49277 0.98122 0.0
C422 C 0.46005 0.45186 0.96779 0.0
C423 C 0.26018 0.32087 0.86632 0.0
C424 C 0.27864 0.35392 0.84852 0.0
C425 C 0.28965 0.3205 0.88344 0.0
C426 C 0.33837 0.35292 0.88315 0.0
C427 C 0.35725 0.38564 0.86524 0.0
C428 C 0.3276 0.38605 0.84798 0.0
C429 C 0.36734 0.3552 0.90318 0.0
C430 C 0.38898 0.39699 0.91618 0.0
C431 C 0.36446 0.31374 0.9122 0.0
C432 C 0.34612 0.26983 0.89825 0.0
C433 C 0.36352 0.27134 0.87598 0.0
C434 C 0.34588 0.23024 0.86273 0.0
C435 C 0.31084 0.1873 0.87155 0.0
C436 C 0.29333 0.18536 0.89365 0.0
C437 C 0.31081 0.22635 0.90696 0.0
H438 H 0.29723 0.15553 0.86127 0.0
H439 H 0.47499 0.55414 0.99079 0.0
H440 H 0.97115 0.37878 0.36368 0.0
H441 H 0.93049 0.39538 0.33299 0.0
H442 H 0.05288 0.44142 0.28957 0.0
H443 H 0.09422 0.42622 0.32035 0.0
H444 H 0.00331 0.49068 0.2811 0.0
H445 H 0.97174 0.32678 0.29065 0.0
H446 H 0.94342 0.25406 0.31328 0.0
H447 H 0.80912 0.24687 0.32267 0.0
H448 H 0.83699 0.31994 0.30029 0.0
H449 H -0.01032 0.38247 0.17973 0.0
H450 H -0.00373 0.42659 0.21439 0.0
H451 H 0.8443 0.36127 0.21801 0.0
H452 H 0.83733 0.31796 0.18258 0.0
H453 H 0.87998 0.33455 0.25218 0.0
H454 H 0.90544 0.47825 0.22588 0.0
H455 H 0.93385 0.54831 0.20143 0.0
H456 H 0.07688 0.59493 0.22215 0.0
H457 H 0.04962 0.52446 0.24629 0.0
C458 C -0.01006 0.39381 0.34785 0.0
C459 C 0.03556 0.40035 0.34423 0.0
C460 C 0.96667 0.40337 0.33036 0.0
C461 C -0.01143 0.41927 0.30899 0.0
C462 C 0.03543 0.42932 0.30598 0.0
C463 C 0.0587 0.41984 0.32343 0.0
C464 C 0.96068 0.41675 0.28851 0.0
C465 C 0.97597 0.45681 0.27471 0.0
C466 C 0.92337 0.3729 0.28079 0.0
C467 C 0.90659 0.329 0.29412 0.0
C468 C 0.93629 0.30979 0.29768 0.0
C469 C 0.92033 0.26854 0.31043 0.0
C470 C 0.87455 0.24594 0.31947 0.0
C471 C 0.84461 0.26449 0.31572 0.0
C472 C 0.86047 0.30582 0.30302 0.0
C473 C 0.95763 0.37912 0.18712 0.0
C474 C 0.9129 0.3455 0.17874 0.0
C475 C 0.96148 0.40471 0.20701 0.0
C476 C 0.92073 0.3969 0.21895 0.0
C477 C 0.87618 0.36771 0.2091 0.0
C478 C 0.87231 0.34248 0.18903 0.0
C479 C 0.92504 0.4079 0.2438 0.0
C480 C 0.90539 0.36922 0.25869 0.0
C481 C 0.9582 0.45298 0.25235 0.0
C482 C 0.97538 0.49571 0.23786 0.0
C483 C 0.94304 0.50312 0.22507 0.0
C484 C 0.95896 0.54294 0.21124 0.0
C485 C 0.00717 0.5759 0.21014 0.0
C486 C 0.03955 0.56925 0.22298 0.0
C487 C 0.02385 0.52935 0.23677 0.0
H488 H 0.01941 0.60666 0.19938 0.0
H489 H 0.86223 0.21399 0.32933 0.0
H490 H 0.70107 -0.00196 0.69502 0.0
H491 H 0.65284 0.95795 0.6611 0.0
H492 H 0.73803 0.08213 0.62065 0.0
H493 H 0.78614 0.12199 0.6542 0.0
H494 H 0.59878 0.97864 0.63195 0.0
H495 H 0.76088 0.05298 0.57076 0.0
H496 H 0.84474 0.07328 0.57136 0.0
H497 H 0.81573 0.97576 0.62629 0.0
H498 H 0.73184 0.95505 0.6261 0.0
H499 H 0.62332 0.9878 0.50096 0.0
H500 H 0.61989 0.0109 0.54012 0.0
H501 H 0.56509 0.86755 0.56226 0.0
H502 H 0.56726 0.84348 0.52275 0.0
H503 H 0.68235 0.97082 0.56231 0.0
H504 H 0.52303 0.89174 0.62304 0.0
H505 H 0.43755 0.86474 0.6226 0.0
H506 H 0.45873 0.96216 0.56861 0.0
H507 H 0.54435 -0.00978 0.56898 0.0
C508 C 0.70925 0.01665 0.67886 0.0
C509 C 0.74766 0.06276 0.67705 0.0
C510 C 0.68172 -0.00616 0.6596 0.0
C511 C 0.6924 0.01697 0.63842 0.0
C512 C 0.72987 0.06344 0.6368 0.0
C513 C 0.75744 0.08606 0.65591 0.0
C514 C 0.66566 -0.00731 0.61762 0.0
C515 C 0.61677 0.97623 0.61677 0.0
C516 C 0.68939 0.98966 0.59795 0.0
C517 C 0.74005 0.00249 0.59839 0.0
C518 C 0.77236 0.0357 0.58287 0.0
C519 C 0.81991 0.04734 0.58317 0.0
C520 C 0.83549 0.02565 0.59875 0.0
C521 C 0.80364 -0.00742 0.61423 0.0
C522 C 0.75614 0.98106 0.61411 0.0
C523 C 0.60746 0.96038 0.51376 0.0
C524 C 0.59739 0.9141 0.50896 0.0
C525 C 0.60543 0.97378 0.53623 0.0
C526 C 0.59308 0.94103 0.55398 0.0
C527 C 0.57474 0.89324 0.54869 0.0
C528 C 0.57656 0.8797 0.52614 0.0
C529 C 0.61587 0.95845 0.57635 0.0
C530 C 0.66424 0.97309 0.5775 0.0
C531 C 0.59139 0.95895 0.5962 0.0
C532 C 0.54002 0.94254 0.59581 0.0
C533 C 0.50943 0.90741 0.61109 0.0
C534 C 0.46096 0.89195 0.61087 0.0
C535 C 0.44268 0.91156 0.59551 0.0
C536 C 0.47288 0.94679 0.5804 0.0
C537 C 0.52138 0.96237 0.58056 0.0
H538 H 0.40515 0.89957 0.59537 0.0
H539 H 0.87226 0.03454 0.59887 0.0
H540 H 0.58537 0.83136 0.98927 0.0
H541 H 0.59066 0.7788 0.96098 0.0
H542 H 0.64059 0.72119 1.01333 0.0
H543 H 0.63556 0.77408 1.04175 0.0
H544 H 0.70156 0.7588 0.97789 0.0
H545 H 0.53972 0.65004 0.98657 0.0
H546 H 0.4547 0.6228 0.9907 0.0
H547 H 0.45095 0.6697 0.92252 0.0
H548 H 0.53627 0.69881 0.9182 0.0
H549 H 0.7628 0.69038 0.87386 0.0
H550 H 0.72255 0.67349 0.91106 0.0
H551 H 0.6426 0.73862 0.88819 0.0
H552 H 0.68239 0.75557 0.85133 0.0
H553 H 0.58974 0.66592 0.91569 0.0
H554 H 0.75066 0.80074 0.91474 0.0
H555 H 0.83752 0.84016 0.9112 0.0
H556 H 0.84288 0.75343 0.96486 0.0
H557 H 0.75586 0.71286 0.96841 0.0
C558 C 0.59636 0.80666 0.99482 0.0
C559 C 0.61038 0.80689 1.01757 0.0
C560 C 0.59892 0.77632 0.97873 0.0
C561 C 0.61568 0.74586 0.98514 0.0
C562 C 0.62717 0.74415 1.00815 0.0
C563 C 0.62421 0.77426 1.02431 0.0
C564 C 0.62869 0.72253 0.96706 0.0
C565 C 0.67685 0.73703 0.96465 0.0
C566 C 0.59639 0.6947 0.94973 0.0
C567 C 0.54469 0.67671 0.95208 0.0
C568 C 0.52095 0.65498 0.9725 0.0
C569 C 0.47266 0.63928 0.97489 0.0
C570 C 0.44744 0.64444 0.95687 0.0
C571 C 0.47052 0.66559 0.93645 0.0
C572 C 0.5189 0.68176 0.93403 0.0
C573 C 0.73606 0.70037 0.8767 0.0
C574 C 0.72614 0.72479 0.85977 0.0
C575 C 0.71297 0.69048 0.89788 0.0
C576 C 0.68002 0.7053 0.90246 0.0
C577 C 0.66771 0.7266 0.88499 0.0
C578 C 0.69056 0.73632 0.86388 0.0
C579 C 0.66282 0.70501 0.92598 0.0
C580 C 0.61399 0.68587 0.92943 0.0
C581 C 0.69458 0.72966 0.94413 0.0
C582 C 0.74671 0.75309 0.9415 0.0
C583 C 0.7703 0.78961 0.92555 0.0
C584 C 0.81957 0.81225 0.92359 0.0
C585 C 0.84569 0.79914 0.93771 0.0
C586 C 0.82258 0.76336 0.95384 0.0
C587 C 0.77329 0.74046 0.9558 0.0
H588 H 0.88384 0.81684 0.93624 0.0
H589 H 0.41 0.63204 0.95873 0.0
H590 H 0.84877 0.67664 0.30877 0.0
H591 H 0.88172 0.6578 0.27564 0.0
H592 H 0.97888 0.64109 0.3196 0.0
H593 H 0.94812 0.663 0.35268 0.0
H594 H 0.02638 0.70384 0.2911 0.0
H595 H 0.90443 0.54985 0.27977 0.0
H596 H 0.82426 0.48078 0.27758 0.0
H597 H 0.78932 0.54515 0.22265 0.0
H598 H 0.86909 0.61485 0.22464 0.0
H599 H 0.14378 0.75339 0.18535 0.0
H600 H 0.09746 0.69708 0.21543 0.0
H601 H 0.98263 0.72455 0.20352 0.0
H602 H 0.02802 0.77969 0.17314 0.0
H603 H 0.95102 0.6311 0.21681 0.0
H604 H 0.06839 0.79317 0.24069 0.0
H605 H 0.15025 0.85968 0.24289 0.0
H606 H 0.19473 0.77037 0.27531 0.0
H607 H 0.11312 0.7032 0.27303 0.0
C608 C 0.87662 0.66818 0.31147 0.0
C609 C 0.8967 0.67277 0.33332 0.0
C610 C 0.89488 0.65638 0.29249 0.0
C611 C 0.93308 0.64813 0.29501 0.0
C612 C 0.94956 0.64748 0.31717 0.0
C613 C 0.93172 0.6599 0.33614 0.0
C614 C 0.96203 0.65156 0.2746 0.0
C615 C 0.01011 0.6862 0.27509 0.0
C616 C 0.94131 0.62907 0.25354 0.0
C617 C 0.89278 0.58777 0.25246 0.0
C618 C 0.87953 0.54951 0.26736 0.0
C619 C 0.83417 0.51016 0.2661 0.0
C620 C 0.80169 0.50861 0.25001 0.0
C621 C 0.81453 0.54638 0.2351 0.0
C622 C 0.85988 0.58579 0.23625 0.0
C623 C 0.10812 0.74632 0.1887 0.0
C624 C 0.08985 0.77165 0.1773 0.0
C625 C 0.08176 0.71419 0.20586 0.0
C626 C 0.03695 0.70722 0.21186 0.0
C627 C 0.01714 0.72944 0.19914 0.0
C628 C 0.04339 0.76145 0.18203 0.0
C629 C 0.01403 0.68391 0.23359 0.0
C630 C 0.96736 0.64631 0.23318 0.0
C631 C 0.0362 0.70278 0.25487 0.0
C632 C 0.08496 0.7432 0.25648 0.0
C633 C 0.09573 0.78775 0.24819 0.0
C634 C 0.14203 0.82552 0.24945 0.0
C635 C 0.1777 0.81922 0.25918 0.0
C636 C 0.16709 0.77516 0.26773 0.0
C637 C 0.12085 0.73725 0.26646 0.0
H638 H 0.21353 0.8485 0.26014 0.0
H639 H 0.76659 0.47811 0.24906 0.0
H640 H 0.30246 0.02252 0.6836 0.0
H641 H 0.35292 0.08415 0.65702 0.0
H642 H 0.32525 0.18337 0.69346 0.0
H643 H 0.27285 0.12079 0.71958 0.0
H644 H 0.29786 0.17565 0.65183 0.0
H645 H 0.44254 0.20608 0.68412 0.0
H646 H 0.50091 0.18918 0.70213 0.0
H647 H 0.50293 0.11485 0.6416 0.0
H648 H 0.44406 0.1306 0.62332 0.0
H649 H 0.35602 0.27402 0.54417 0.0
H650 H 0.37887 0.2763 0.58432 0.0
H651 H 0.37507 0.14335 0.57513 0.0
H652 H 0.35331 0.14158 0.5348 0.0
H653 H 0.44026 0.20013 0.60917 0.0
H654 H 0.2729 0.13734 0.58902 0.0
H655 H 0.20862 0.14387 0.57014 0.0
H656 H 0.2474 0.27136 0.60761 0.0
H657 H 0.31168 0.26531 0.62692 0.0
C658 C 0.30793 0.05773 0.68622 0.0
C659 C 0.28289 0.06667 0.70327 0.0
C660 C 0.33762 0.09329 0.67129 0.0
C661 C 0.34325 0.13864 0.67328 0.0
C662 C 0.32169 0.14872 0.69168 0.0
C663 C 0.29167 0.11295 0.70657 0.0
C664 C 0.36148 0.17062 0.65333 0.0
C665 C 0.33019 0.18288 0.64305 0.0
C666 C 0.40301 0.1791 0.64151 0.0
C667 C 0.4388 0.16965 0.65232 0.0
C668 C 0.45523 0.18594 0.67466 0.0
C669 C 0.48845 0.17657 0.68493 0.0
C670 C 0.50564 0.15099 0.67301 0.0
C671 C 0.48968 0.13477 0.65079 0.0
C672 C 0.45646 0.14404 0.64044 0.0
C673 C 0.36144 0.24602 0.55062 0.0
C674 C 0.352 0.20709 0.53671 0.0
C675 C 0.37483 0.24755 0.57344 0.0
C676 C 0.37791 0.20965 0.58272 0.0
C677 C 0.37303 0.17302 0.56824 0.0
C678 C 0.36025 0.1718 0.54529 0.0
C679 C 0.37561 0.20275 0.60779 0.0
C680 C 0.40954 0.19517 0.61875 0.0
C681 C 0.33615 0.19769 0.62031 0.0
C682 C 0.2971 0.20106 0.60924 0.0
C683 C 0.26757 0.16669 0.59325 0.0
C684 C 0.2311 0.17021 0.58256 0.0
C685 C 0.22373 0.20779 0.58787 0.0
C686 C 0.25291 0.24205 0.60376 0.0
C687 C 0.28929 0.23856 0.61461 0.0
H688 H 0.19544 0.21036 0.57966 0.0
H689 H 0.53133 0.14375 0.68099 0.0
H690 H 0.33967 0.04898 1.07142 0.0
H691 H 0.42387 0.07684 1.07388 0.0
H692 H 0.44615 0.20517 0.10642 0.0
H693 H 0.3607 0.1766 0.10452 0.0
H694 H 0.50346 0.1462 1.05911 0.0
H695 H 0.5351 0.23762 0.1463 0.0
H696 H 0.49028 0.23928 0.18017 0.0
H697 H 0.38453 0.09516 0.16767 0.0
H698 H 0.42902 0.09256 0.13391 0.0
H699 H 0.73565 0.19357 0.0877 0.0
H700 H 0.6721 0.21311 0.08391 0.0
H701 H 0.58713 0.10336 0.13202 0.0
H702 H 0.65019 0.0845 0.13612 0.0
H703 H 0.5708 0.17406 0.13762 0.0
H704 H 0.58024 0.08347 1.07314 0.0
H705 H 0.62064 0.07116 1.0402 0.0
H706 H 0.63638 0.1964 1.00841 0.0
H707 H 0.59656 0.20973 1.04134 0.0
C708 C 0.36233 0.08343 1.0789 0.0
C709 C 0.34314 0.11023 0.08809 0.0
C710 C 0.41078 0.09951 1.08016 0.0
C711 C 0.44159 0.14288 0.09061 0.0
C712 C 0.42308 0.17123 0.09856 0.0
C713 C 0.37423 0.15499 0.09737 0.0
C714 C 0.49184 0.15553 0.09469 0.0
C715 C 0.51848 0.15317 1.07623 0.0
C716 C 0.51169 0.1643 0.11702 0.0
C717 C 0.48505 0.16515 0.13746 0.0
C718 C 0.50234 0.2063 0.15084 0.0
C719 C 0.477 0.20739 0.17 0.0
C720 C 0.43449 0.16741 0.17601 0.0
C721 C 0.41736 0.12616 0.16295 0.0
C722 C 0.44261 0.12486 0.1438 0.0
C723 C 0.70397 0.17467 0.09797 0.0
C724 C 0.69774 0.13716 0.11202 0.0
C725 C 0.6675 0.1856 0.09566 0.0
C726 C 0.62434 0.15916 0.10738 0.0
C727 C 0.61987 0.12428 0.12274 0.0
C728 C 0.656 0.11336 0.125 0.0
C729 C 0.58178 0.16347 0.10214 0.0
C730 C 0.55655 0.16889 0.12037 0.0
C731 C 0.56265 0.15623 1.0797 0.0
C732 C 0.58599 0.14791 1.05979 0.0
C733 C 0.59256 0.1085 1.05917 0.0
C734 C 0.61533 0.10134 1.04051 0.0
C735 C 0.63121 0.13307 1.02226 0.0
C736 C 0.62417 0.17193 1.02259 0.0
C737 C 0.60151 0.17931 1.04124 0.0
H738 H 0.64888 0.12751 1.00783 0.0
H739 H 0.41488 0.16836 0.19081 0.0
H740 H 0.3476 0.34972 0.40633 0.0
H741 H 0.42516 0.42084 0.40445 0.0
H742 H 0.36996 0.49879 0.44049 0.0
H743 H 0.29189 0.4279 0.442 0.0
H744 H 0.42492 0.54959 0.40608 0.0
H745 H 0.43851 0.45972 0.46756 0.0
H746 H 0.4336 0.38933 0.48558 0.0
H747 H 0.53559 0.3927 0.43771 0.0
H748 H 0.54059 0.46275 0.41918 0.0
H749 H 0.63672 0.74515 0.44498 0.0
H750 H 0.56138 0.67179 0.44309 0.0
H751 H 0.62485 0.6094 0.4009 0.0
H752 H 0.70096 0.68319 0.40266 0.0
H753 H 0.56752 0.54981 0.43619 0.0
H754 H 0.5561 0.64254 0.37592 0.0
H755 H 0.56124 0.7137 0.35871 0.0
H756 H 0.45528 0.7056 0.40535 0.0
H757 H 0.44998 0.63474 0.42307 0.0
C758 C 0.35187 0.38201 0.41382 0.0
C759 C 0.31353 0.38307 0.42439 0.0
C760 C 0.39637 0.42264 0.41282 0.0
C761 C 0.40369 0.46511 0.42262 0.0
C762 C 0.36526 0.46645 0.43285 0.0
C763 C 0.32064 0.42585 0.43375 0.0
C764 C 0.45136 0.5081 0.42224 0.0
C765 C 0.45595 0.5497 0.41291 0.0
C766 C 0.49223 0.5081 0.4306 0.0
C767 C 0.48954 0.46619 0.44183 0.0
C768 C 0.45962 0.44524 0.46076 0.0
C769 C 0.45686 0.40544 0.47109 0.0
C770 C 0.48416 0.38647 0.46276 0.0
C771 C 0.5144 0.40738 0.44412 0.0
C772 C 0.51724 0.44715 0.43371 0.0
C773 C 0.63491 0.71592 0.4353 0.0
C774 C 0.67498 0.72019 0.4239 0.0
C775 C 0.59164 0.67399 0.43418 0.0
C776 C 0.58735 0.63527 0.42168 0.0
C777 C 0.62739 0.63894 0.4106 0.0
C778 C 0.67079 0.68116 0.41156 0.0
C779 C 0.54082 0.59121 0.42025 0.0
C780 C 0.53647 0.54949 0.42924 0.0
C781 C 0.50012 0.59112 0.41168 0.0
C782 C 0.50293 0.63353 0.40095 0.0
C783 C 0.53414 0.65613 0.38262 0.0
C784 C 0.53705 0.69638 0.37275 0.0
C785 C 0.50868 0.71422 0.38096 0.0
C786 C 0.47726 0.69176 0.39902 0.0
C787 C 0.47425 0.65152 0.40897 0.0
H788 H 0.51099 0.74539 0.3733 0.0
H789 H 0.48196 0.35564 0.47077 0.0
H790 H 0.04755 0.4315 0.7636 0.0
H791 H 0.03338 0.49758 0.76847 0.0
H792 H 0.88732 0.40148 0.78498 0.0
H793 H 0.90115 0.33465 0.78007 0.0
H794 H 0.8987 0.47284 0.75485 0.0
H795 H 0.95829 0.46049 0.82738 0.0
H796 H 0.01234 0.45213 0.85404 0.0
H797 H 0.12793 0.58316 0.83046 0.0
H798 H 0.07474 0.59197 0.80339 0.0
H799 H 0.88929 0.68426 0.78338 0.0
H800 H 0.87992 0.60519 0.78768 0.0
H801 H 0.02817 0.66175 0.77289 0.0
H802 H 0.03789 0.73989 0.76877 0.0
H803 H 0.00075 0.60176 0.80863 0.0
H804 H 0.94414 0.60596 0.73185 0.0
H805 H 0.89131 0.61414 0.70428 0.0
H806 H 0.77057 0.49847 0.73591 0.0
H807 H 0.82272 0.49002 0.76387 0.0
C808 C 0.01231 0.42421 0.7682 0.0
C809 C 0.97554 0.37772 0.77156 0.0
C810 C 0.00433 0.46211 0.77107 0.0
C811 C 0.95946 0.45447 0.7774 0.0
C812 C 0.92226 0.40812 0.7802 0.0
C813 C 0.93028 0.37003 0.77744 0.0
C814 C 0.95215 0.49538 0.78111 0.0
C815 C 0.92021 0.5006 0.76698 0.0
C816 C 0.98038 0.53165 0.79685 0.0
C817 C 0.01252 0.52675 0.81325 0.0
C818 C -0.0047 0.48738 0.82776 0.0
C819 C 0.02578 0.48258 0.84297 0.0
C820 C 0.07355 0.51706 0.84392 0.0
C821 C 0.09092 0.55647 0.8297 0.0
C822 C 0.06059 0.56142 0.81445 0.0
C823 C 0.91988 0.67978 0.78122 0.0
C824 C 0.96425 0.7184 0.77557 0.0
C825 C 0.91444 0.63461 0.78361 0.0
C826 C 0.95334 0.62757 0.78049 0.0
C827 C -0.00231 0.66631 0.77543 0.0
C828 C 0.00308 0.71105 0.77294 0.0
C829 C 0.9487 0.58008 0.78175 0.0
C830 C 0.9784 0.57355 0.79689 0.0
C831 C 0.91848 0.54274 0.76692 0.0
C832 C 0.88723 0.54777 0.75011 0.0
C833 C 0.90629 0.58254 0.73304 0.0
C834 C 0.87648 0.58718 0.71732 0.0
C835 C 0.8276 0.55695 0.71839 0.0
C836 C 0.80843 0.52193 0.73514 0.0
C837 C 0.83809 0.5172 0.75092 0.0
H838 H 0.80458 0.56058 0.7062 0.0
H839 H 0.0971 0.51327 0.8557 0.0
H840 H 0.1803 0.13949 0.16249 0.0
H841 H 0.17756 0.16326 0.20189 0.0
H842 H 0.20894 0.05785 0.22656 0.0
H843 H 0.21175 0.0336 0.18665 0.0
H844 H 0.1419 0.0597 0.25419 0.0
H845 H 0.29276 0.17933 0.22746 0.0
H846 H 0.34882 0.24072 0.20125 0.0
H847 H 0.27765 0.32028 0.2114 0.0
H848 H 0.22072 0.25901 0.23745 0.0
H849 H 0.18824 0.14828 0.37001 0.0
H850 H 0.19144 0.1221 0.33106 0.0
H851 H 0.17187 0.23341 0.30374 0.0
H852 H 0.16923 0.26024 0.34295 0.0
H853 H 0.23379 0.22773 0.27749 0.0
H854 H 0.08203 0.10853 0.30322 0.0
H855 H 0.02393 0.04677 0.32864 0.0
H856 H 0.09461 0.96638 0.31991 0.0
H857 H 0.1535 0.02796 0.29463 0.0
C858 C 0.18688 0.1211 0.17613 0.0
C859 C 0.19654 0.08437 0.17077 0.0
C860 C 0.18548 0.13514 0.199 0.0
C861 C 0.19355 0.11322 0.2179 0.0
C862 C 0.20263 0.076 0.21271 0.0
C863 C 0.20449 0.06212 0.18965 0.0
C864 C 0.19224 0.12927 0.24267 0.0
C865 C 0.16274 0.09641 0.25925 0.0
C866 C 0.21799 0.17738 0.24983 0.0
C867 C 0.2522 0.21435 0.23424 0.0
C868 C 0.28884 0.20974 0.22397 0.0
C869 C 0.32081 0.24455 0.20916 0.0
C870 C 0.31672 0.28432 0.20462 0.0
C871 C 0.28073 0.28942 0.21492 0.0
C872 C 0.24862 0.25468 0.22972 0.0
C873 C 0.18425 0.16731 0.35584 0.0
C874 C 0.17813 0.20663 0.36023 0.0
C875 C 0.18586 0.1519 0.33322 0.0
C876 C 0.18126 0.17482 0.3137 0.0
C877 C 0.17547 0.21437 0.31802 0.0
C878 C 0.1737 0.22977 0.34073 0.0
C879 C 0.18336 0.15818 0.28911 0.0
C880 C 0.21299 0.19097 0.27251 0.0
C881 C 0.15754 0.11002 0.28192 0.0
C882 C 0.12248 0.07312 0.29724 0.0
C883 C 0.08543 0.07788 0.30688 0.0
C884 C 0.0523 0.04286 0.32123 0.0
C885 C 0.05566 0.00275 0.32595 0.0
C886 C 0.0921 -0.00248 0.31628 0.0
C887 C 0.12534 0.03245 0.30192 0.0
H888 H 0.02996 0.97567 0.33705 0.0
H889 H 0.34151 0.31123 0.19315 0.0
H890 H 0.1398 0.33058 0.49816 0.0
H891 H 0.11539 0.33074 0.53781 0.0
H892 H 0.14867 0.22216 0.5542 0.0
H893 H 0.17624 0.22437 0.51493 0.0
H894 H 0.17334 0.27265 0.58876 0.0
H895 H 0.05598 0.34955 0.57446 0.0
H896 H -0.00153 0.35179 0.54769 0.0
H897 H 0.95474 0.21054 0.52583 0.0
H898 H 0.0135 0.20809 0.55177 0.0
H899 H 0.11692 0.32764 0.70086 0.0
H900 H 0.14139 0.32866 0.66118 0.0
H901 H -0.00038 0.2218 0.64351 0.0
H902 H 0.97442 0.22251 0.68314 0.0
H903 H 0.02853 0.27763 0.60977 0.0
H904 H 0.12191 0.19476 0.63649 0.0
H905 H 0.18192 0.19002 0.6605 0.0
H906 H 0.27042 0.34027 0.65767 0.0
H907 H 0.21209 0.34559 0.63268 0.0
C908 C 0.14245 0.30692 0.51023 0.0
C909 C 0.16107 0.27803 0.50293 0.0
C910 C 0.1274 0.30635 0.53317 0.0
C911 C 0.12875 0.27574 0.54986 0.0
C912 C 0.1472 0.24672 0.54241 0.0
C913 C 0.16324 0.24801 0.51962 0.0
C914 C 0.1133 0.2751 0.57501 0.0
C915 C 0.14129 0.27333 0.59305 0.0
C916 C 0.07203 0.27688 0.58177 0.0
C917 C 0.03943 0.27888 0.56481 0.0
C918 C 0.03454 0.3192 0.56367 0.0
C919 C 0.00194 0.32057 0.54858 0.0
C920 C 0.97342 0.28145 0.53486 0.0
C921 C 0.97764 0.24102 0.53613 0.0
C922 C 0.01085 0.23976 0.55088 0.0
C923 C 0.09067 0.30418 0.68863 0.0
C924 C 0.04327 0.27518 0.69576 0.0
C925 C 0.10514 0.30411 0.66564 0.0
C926 C 0.07328 0.27424 0.64861 0.0
C927 C 0.02578 0.24534 0.65575 0.0
C928 C 0.01113 0.24579 0.67871 0.0
C929 C 0.08831 0.27458 0.62342 0.0
C930 C 0.06024 0.27631 0.6054 0.0
C931 C 0.12977 0.2733 0.61664 0.0
C932 C 0.16208 0.27071 0.63348 0.0
C933 C 0.15372 0.22679 0.64145 0.0
C934 C 0.18755 0.22396 0.65505 0.0
C935 C 0.2294 0.26487 0.66104 0.0
C936 C 0.23775 0.30869 0.65326 0.0
C937 C 0.20455 0.3116 0.63923 0.0
H938 H 0.25582 0.26259 0.67132 0.0
H939 H 0.94778 0.28231 0.52338 0.0
H940 H 0.0248 0.28389 0.85676 0.0
H941 H -0.00418 0.26132 0.89629 0.0
H942 H 0.86657 0.14472 0.87047 0.0
H943 H 0.89503 0.16702 0.83127 0.0
H944 H 0.8436 0.18243 0.90461 0.0
H945 H 0.95957 0.1327 0.89684 0.0
H946 H 0.03863 0.14311 0.8889 0.0
H947 H 0.09813 0.24638 0.94279 0.0
H948 H 0.01948 0.23699 0.95087 0.0
H949 H 0.75475 0.0629 1.01276 0.0
H950 H 0.78283 0.08548 0.97316 0.0
H951 H 0.91878 0.19177 0.99866 0.0
H952 H 0.89159 0.16815 1.03784 0.0
H953 H 0.93828 0.15955 0.96433 0.0
H954 H 0.82473 0.21139 0.97246 0.0
H955 H 0.74662 0.20288 0.98097 0.0
H956 H 0.68402 0.10009 0.92705 0.0
H957 H 0.76166 0.10747 0.91845 0.0
C958 C -0.00973 0.25332 0.85942 0.0
C959 C 0.96281 0.22746 0.84031 0.0
C960 C 0.97356 0.24015 0.88226 0.0
C961 C 0.92862 0.20063 0.88699 0.0
C962 C 0.90116 0.17527 0.86786 0.0
C963 C 0.91788 0.18815 0.84516 0.0
C964 C 0.90998 0.18543 0.9115 0.0
C965 C 0.86435 0.17701 0.91752 0.0
C966 C 0.93652 0.17896 0.92906 0.0
C967 C 0.98374 0.18449 0.92429 0.0
C968 C -0.01042 0.15786 0.90689 0.0
C969 C 0.0343 0.16354 0.90238 0.0
C970 C 0.0734 0.19549 0.91528 0.0
C971 C 0.06782 0.22171 0.93278 0.0
C972 C 0.02318 0.2162 0.93734 0.0
C973 C 0.79056 0.09125 1.00998 0.0
C974 C 0.82048 0.11345 1.02898 0.0
C975 C 0.80681 0.10456 0.98708 0.0
C976 C 0.85336 0.14132 0.98218 0.0
C977 C 0.88294 0.16334 1.00127 0.0
C978 C 0.867 0.14972 1.024 0.0
C979 C 0.87185 0.15674 0.95761 0.0
C980 C 0.91746 0.16511 0.95152 0.0
C981 C 0.84547 0.16367 0.94006 0.0
C982 C 0.79891 0.15963 0.94497 0.0
C983 C 0.79425 0.18679 0.9625 0.0
C984 C 0.75007 0.18218 0.96734 0.0
C985 C 0.71036 0.15087 0.9546 0.0
C986 C 0.71479 0.12426 0.93693 0.0
C987 C 0.75888 0.12866 0.93206 0.0
H988 H 0.67618 0.14731 0.9584 0.0
H989 H 0.108 0.19985 0.91176 0.0
H990 H 0.82656 0.09115 0.18417 0.0
H991 H 0.83154 0.0608 0.22183 0.0
H992 H 0.73202 0.91978 0.19963 0.0
H993 H 0.72696 0.95003 0.16191 0.0
H994 H 0.71074 0.92705 0.24194 0.0
H995 H 0.85434 0.95996 0.20648 0.0
H996 H 0.93006 0.00561 0.18608 0.0
H997 H 0.98402 0.10535 0.24167 0.0
H998 H 0.9083 0.06061 0.26229 0.0
H999 H 0.74401 0.90681 0.36097 0.0
H1000 H 0.74132 0.93354 0.32239 0.0
H1001 H 0.847 0.89906 0.3005 0.0
H1002 H 0.85101 0.87358 0.33972 0.0
H1003 H 0.86527 0.97311 0.27838 0.0
H1004 H 0.66912 0.92993 0.28059 0.0
H1005 H 0.59349 0.87184 0.29817 0.0
H1006 H 0.64398 0.77339 0.30415 0.0
H1007 H 0.71964 0.83063 0.28634 0.0
C1008 C 0.80548 0.05362 0.18719 0.0
C1009 C 0.77616 0.02344 0.16954 0.0
C1010 C 0.80866 0.03604 0.20894 0.0
C1011 C 0.7826 0.98743 0.21413 0.0
C1012 C 0.75274 0.95734 0.1966 0.0
C1013 C 0.74986 0.97486 0.17478 0.0
C1014 C 0.78617 0.96822 0.23763 0.0
C1015 C 0.74471 0.93757 0.24983 0.0
C1016 C 0.83007 0.9798 0.24823 0.0
C1017 C 0.87543 0.00723 0.23581 0.0
C1018 C 0.88217 -0.00811 0.21426 0.0
C1019 C 0.92513 0.01755 0.20267 0.0
C1020 C 0.96178 0.05844 0.21254 0.0
C1021 C 0.95556 0.07372 0.23403 0.0
C1022 C 0.91263 0.04822 0.24568 0.0
C1023 C 0.76674 0.90452 0.34807 0.0
C1024 C 0.7975 0.88726 0.35397 0.0
C1025 C 0.76491 0.91977 0.32561 0.0
C1026 C 0.79308 0.91783 0.30764 0.0
C1027 C 0.82442 0.90117 0.31354 0.0
C1028 C 0.8266 0.88623 0.33619 0.0
C1029 C 0.78979 0.93333 0.28311 0.0
C1030 C 0.83128 0.96302 0.27063 0.0
C1031 C 0.74586 0.91966 0.27191 0.0
C1032 C 0.70022 0.88479 0.28235 0.0
C1033 C 0.664 0.89582 0.28557 0.0
C1034 C 0.62114 0.86305 0.29559 0.0
C1035 C 0.614 0.81902 0.30234 0.0
C1036 C 0.64962 0.80757 0.29899 0.0
C1037 C 0.69251 0.84018 0.28895 0.0
H1038 H 0.58084 0.79373 0.31013 0.0
H1039 H -0.00495 0.07822 0.20357 0.0
H1040 H 0.85721 0.79357 0.49387 0.0
H1041 H 0.88189 0.79599 0.53374 0.0
H1042 H 0.82976 0.89046 0.55082 0.0
H1043 H 0.80261 0.8858 0.51131 0.0
H1044 H 0.94124 0.85231 0.56159 0.0
H1045 H 0.81167 0.89603 0.60725 0.0
H1046 H 0.73117 0.88423 0.60228 0.0
H1047 H 0.69069 0.7575 0.56379 0.0
H1048 H 0.7707 0.76817 0.56876 0.0
H1049 H 0.0183 0.89974 0.67985 0.0
H1050 H -0.00501 0.90264 0.64027 0.0
H1051 H 0.85443 0.78898 0.65444 0.0
H1052 H 0.87714 0.78788 0.6943 0.0
H1053 H 0.83999 0.83862 0.6279 0.0
H1054 H 0.95516 0.78647 0.61902 0.0
H1055 H 0.03357 0.79302 0.62356 0.0
H1056 H 0.09839 0.92534 0.5881 0.0
H1057 H 0.02043 0.91969 0.58348 0.0
C1058 C 0.85008 0.81427 0.50612 0.0
C1059 C 0.82695 0.8389 0.49883 0.0
C1060 C 0.86482 0.81604 0.52921 0.0
C1061 C 0.85754 0.84279 0.54627 0.0
C1062 C 0.83493 0.86796 0.53888 0.0
C1063 C 0.81938 0.86548 0.51587 0.0
C1064 C 0.87384 0.84431 0.57133 0.0
C1065 C 0.91871 0.84923 0.57596 0.0
C1066 C 0.84564 0.84044 0.59085 0.0
C1067 C 0.79722 0.83312 0.58822 0.0
C1068 C 0.78549 0.86553 0.59783 0.0
C1069 C 0.74002 0.85911 0.59498 0.0
C1070 C 0.70594 0.82029 0.58266 0.0
C1071 C 0.71717 0.78764 0.57327 0.0
C1072 C 0.76255 0.79384 0.57609 0.0
C1073 C 0.98247 0.87499 0.6746 0.0
C1074 C 0.95009 0.8432 0.69079 0.0
C1075 C 0.96892 0.87649 0.65155 0.0
C1076 C 0.92258 0.84545 0.64331 0.0
C1077 C 0.89036 0.81371 0.65959 0.0
C1078 C 0.90365 0.81279 0.68269 0.0
C1079 C 0.9072 0.84591 0.61822 0.0
C1080 C 0.86254 0.84161 0.61357 0.0
C1081 C 0.93538 0.84979 0.59866 0.0
C1082 C 0.98207 0.85286 0.60113 0.0
C1083 C 0.98618 0.81701 0.61227 0.0
C1084 C 0.03053 0.82057 0.61485 0.0
C1085 C 0.07095 0.85964 0.60619 0.0
C1086 C 0.06708 0.89514 0.59484 0.0
C1087 C 0.02282 0.89175 0.59221 0.0
H1088 H 0.10525 0.86235 0.60823 0.0
H1089 H 0.67081 0.81547 0.58044 0.0
H1090 H 0.08939 0.95102 0.82779 0.0
H1091 H 0.11471 0.97553 0.86731 0.0
H1092 H -0.00937 0.85112 0.8917 0.0
H1093 H 0.96309 0.82955 0.85191 0.0
H1094 H 0.00418 0.90535 0.92234 0.0
H1095 H 0.12608 0.88119 0.88968 0.0
H1096 H 0.18799 0.89166 0.86203 0.0
H1097 H 0.26455 0.04009 0.87681 0.0
H1098 H 0.20289 0.03055 0.90439 0.0
H1099 H 0.10576 0.92663 1.03613 0.0
H1100 H 0.07695 0.90227 0.99666 0.0
H1101 H 0.17297 0.04258 0.97298 0.0
H1102 H 0.20129 0.06718 1.01237 0.0
H1103 H 0.17378 0.97907 0.94301 0.0
H1104 H 0.05081 -0.00262 0.97886 0.0
H1105 H -0.01075 0.98179 1.00764 0.0
H1106 H 0.91419 0.83586 0.98783 0.0
H1107 H 0.97583 0.85033 0.95923 0.0
C1108 C 0.06735 0.92883 0.84156 0.0
C1109 C 0.02413 0.88795 0.83626 0.0
C1110 C 0.08239 0.94255 0.86456 0.0
C1111 C 0.05629 0.91475 0.88355 0.0
C1112 C 0.01258 0.87393 0.8781 0.0
C1113 C -0.00338 0.8612 0.85504 0.0
C1114 C 0.07383 0.92831 0.90868 0.0
C1115 C 0.04133 0.9206 0.92661 0.0
C1116 C 0.12245 0.9494 0.91538 0.0
C1117 C 0.15966 0.95519 0.89892 0.0
C1118 C 0.15603 0.91607 0.88695 0.0
C1119 C 0.19108 0.92184 0.8713 0.0
C1120 C 0.23011 0.96652 0.86762 0.0
C1121 C 0.23428 0.00551 0.87965 0.0
C1122 C 0.19933 -7e-05 0.89531 0.0
C1123 C 0.121 0.95247 1.02259 0.0
C1124 C 0.15633 -0.00082 1.02797 0.0
C1125 C 0.1041 0.93844 0.99977 0.0
C1126 C 0.12204 0.9703 0.98117 0.0
C1127 C 0.15792 0.01671 0.98652 0.0
C1128 C 0.17426 0.03092 1.00935 0.0
C1129 C 0.10414 0.95566 0.95636 0.0
C1130 C 0.13663 0.96338 0.93858 0.0
C1131 C 0.05549 0.93357 0.94994 0.0
C1132 C 0.01836 0.92484 0.96711 0.0
C1133 C 0.02146 0.96186 0.9808 0.0
C1134 C 0.98651 0.95323 0.99706 0.0
C1135 C 0.94799 0.90783 0.99964 0.0
C1136 C 0.94418 0.87098 0.98587 0.0
C1137 C 0.97914 0.87937 0.96964 0.0
H1138 H 0.92107 0.90124 1.01227 0.0
H1139 H 0.25718 0.97092 0.85548 0.0
loop_
_geom_bond_atom_site_label_1
_geom_bond_atom_site_label_2
_geom_bond_distance
_geom_bond_site_symmetry_2
_ccdc_geom_bond_type
Dy0 O3 2.332 . S
Dy0 O5 2.395 . S
Dy0 O6 2.379 . S
Dy0 O8 2.339 . S
Dy0 O10 2.298 1_565 S
Dy0 O14 2.275 . S
Dy0 C22 2.738 . S
Dy1 O4 2.298 1_554 S
Dy1 O7 2.275 . S
Dy1 O9 2.307 . S
Dy1 O11 2.395 1_554 S
Dy1 O12 2.379 1_554 S
Dy1 O15 2.339 . S
Dy1 C31 2.738 1_554 S
C2 O14 1.254 1_545 S
C2 O15 1.257 . S
O3 Dy0 2.332 . S
O3 C13 1.245 1_554 S
O4 Dy1 2.298 1_556 S
O4 C13 1.236 1_545 S
O5 Dy0 2.395 . S
O5 C22 1.255 . S
O6 Dy0 2.379 . S
O6 C22 1.249 . S
O7 Dy1 2.275 . S
O7 C23 1.254 . S
O8 Dy0 2.339 . S
O8 C23 1.257 1_565 S
O9 Dy1 2.307 . S
O9 C24 1.266 . S
O10 Dy0 2.298 1_545 S
O10 C24 1.236 . S
O11 Dy1 2.395 1_556 S
O11 C31 1.255 . S
O12 Dy1 2.379 1_556 S
O12 C31 1.249 . S
C13 O3 1.245 1_556 S
C13 O4 1.236 1_565 S
O14 Dy0 2.275 . S
O14 C2 1.254 1_565 S
O15 Dy1 2.339 . S
O15 C2 1.257 . S
C16 C19 1.344 . S
C16 C20 1.328 . S
C16 C22 1.516 . S
C17 C18 1.304 . S
C17 C21 1.323 . S
C18 C17 1.304 . S
C18 C19 1.371 . S
C18 H32 0.930 . S
C19 C16 1.344 . S
C19 C18 1.371 . S
C19 H33 0.931 . S
C20 C16 1.328 . S
C20 C21 1.433 . S
C20 H34 0.931 . S
C21 C17 1.323 . S
C21 C20 1.433 . S
C21 H35 0.933 . S
C22 Dy0 2.738 . S
C22 O5 1.255 . S
C22 O6 1.249 . S
C22 C16 1.516 . S
C23 O7 1.254 . S
C23 O8 1.257 1_545 S
C24 O9 1.266 . S
C24 O10 1.236 . S
C25 C28 1.344 . S
C25 C29 1.328 . S
C25 C31 1.516 . S
C26 C27 1.304 . S
C26 C30 1.323 . S
C27 C26 1.304 . S
C27 C28 1.371 . S
C27 H36 0.930 . S
C28 C25 1.344 . S
C28 C27 1.371 . S
C28 H37 0.931 . S
C29 C25 1.328 . S
C29 C30 1.433 . S
C29 H38 0.931 . S
C30 C26 1.323 . S
C30 C29 1.433 . S
C30 H39 0.933 . S
C31 Dy1 2.738 1_556 S
C31 O11 1.255 . S
C31 O12 1.249 . S
C31 C25 1.516 . S
H32 C18 0.930 . S
H33 C19 0.931 . S
H34 C20 0.931 . S
H35 C21 0.933 . S
H36 C27 0.930 . S
H37 C28 0.931 . S
H38 C29 0.931 . S
H39 C30 0.933 . S
Dy40 O43 2.307 . S
Dy40 O45 2.395 . S
Dy40 O46 2.379 . S
Dy40 O48 2.339 . S
Dy40 O50 2.298 . S
Dy40 O54 2.275 . S
Dy40 C62 2.738 . S
Dy41 O44 2.298 . S
Dy41 O47 2.275 . S
Dy41 O49 2.307 . S
Dy41 O51 2.395 . S
Dy41 O52 2.379 . S
Dy41 O55 2.339 . S
Dy41 C71 2.738 . S
C42 O54 1.254 . S
C42 O55 1.257 . S
O43 Dy40 2.307 . S
O43 C53 1.266 . S
O44 Dy41 2.298 . S
O44 C53 1.236 . S
O45 Dy40 2.395 . S
O45 C62 1.255 . S
O46 Dy40 2.379 . S
O46 C62 1.249 . S
O47 Dy41 2.275 . S
O47 C63 1.254 . S
O48 Dy40 2.339 . S
O48 C63 1.257 . S
O49 Dy41 2.307 . S
O49 C64 1.266 . S
O50 Dy40 2.298 . S
O50 C64 1.236 . S
O51 Dy41 2.395 . S
O51 C71 1.255 . S
O52 Dy41 2.379 . S
O52 C71 1.249 . S
C53 O43 1.266 . S
C53 O44 1.236 . S
O54 Dy40 2.275 . S
O54 C42 1.254 . S
O55 Dy41 2.339 . S
O55 C42 1.257 . S
C56 C59 1.344 . S
C56 C60 1.328 . S
C56 C62 1.516 . S
C57 C58 1.304 . S
C57 C61 1.323 . S
C58 C57 1.304 . S
C58 C59 1.371 . S
C58 H72 0.930 . S
C59 C56 1.344 . S
C59 C58 1.371 . S
C59 H73 0.931 . S
C60 C56 1.328 . S
C60 C61 1.433 . S
C60 H74 0.931 . S
C61 C57 1.323 . S
C61 C60 1.433 . S
C61 H75 0.933 . S
C62 Dy40 2.738 . S
C62 O45 1.255 . S
C62 O46 1.249 . S
C62 C56 1.516 . S
C63 O47 1.254 . S
C63 O48 1.257 . S
C64 O49 1.266 . S
C64 O50 1.236 . S
C65 C68 1.344 . S
C65 C69 1.328 . S
C65 C71 1.516 . S
C66 C67 1.304 . S
C66 C70 1.323 . S
C67 C66 1.304 . S
C67 C68 1.371 . S
C67 H76 0.930 . S
C68 C65 1.344 . S
C68 C67 1.371 . S
C68 H77 0.931 . S
C69 C65 1.328 . S
C69 C70 1.433 . S
C69 H78 0.931 . S
C70 C66 1.323 . S
C70 C69 1.433 . S
C70 H79 0.933 . S
C71 Dy41 2.738 . S
C71 O51 1.255 . S
C71 O52 1.249 . S
C71 C65 1.516 . S
H72 C58 0.930 . S
H73 C59 0.931 . S
H74 C60 0.931 . S
H75 C61 0.933 . S
H76 C67 0.930 . S
H77 C68 0.931 . S
H78 C69 0.931 . S
H79 C70 0.933 . S
Dy80 O83 2.307 . S
Dy80 O85 2.395 . S
Dy80 O86 2.379 . S
Dy80 O88 2.339 . S
Dy80 O90 2.298 . S
Dy80 O94 2.275 . S
Dy80 C102 2.738 . S
Dy81 O84 2.298 1_655 S
Dy81 O87 2.275 1_655 S
Dy81 O89 2.307 . S
Dy81 O91 2.395 . S
Dy81 O92 2.379 . S
Dy81 O95 2.339 1_655 S
Dy81 C111 2.738 . S
C82 O94 1.254 . S
C82 O95 1.257 . S
O83 Dy80 2.307 . S
O83 C93 1.266 . S
O84 Dy81 2.298 1_455 S
O84 C93 1.236 . S
O85 Dy80 2.395 . S
O85 C102 1.255 . S
O86 Dy80 2.379 . S
O86 C102 1.249 . S
O87 Dy81 2.275 1_455 S
O87 C103 1.254 . S
O88 Dy80 2.339 . S
O88 C103 1.257 . S
O89 Dy81 2.307 . S
O89 C104 1.266 1_655 S
O90 Dy80 2.298 . S
O90 C104 1.236 . S
O91 Dy81 2.395 . S
O91 C111 1.255 . S
O92 Dy81 2.379 . S
O92 C111 1.249 . S
C93 O83 1.266 . S
C93 O84 1.236 . S
O94 Dy80 2.275 . S
O94 C82 1.254 . S
O95 Dy81 2.339 1_455 S
O95 C82 1.257 . S
C96 C99 1.344 . S
C96 C100 1.328 . S
C96 C102 1.516 . S
C97 C98 1.304 . S
C97 C101 1.323 . S
C98 C97 1.304 . S
C98 C99 1.371 . S
C98 H112 0.930 . S
C99 C96 1.344 . S
C99 C98 1.371 . S
C99 H113 0.931 . S
C100 C96 1.328 . S
C100 C101 1.433 . S
C100 H114 0.931 . S
C101 C97 1.323 . S
C101 C100 1.433 . S
C101 H115 0.933 . S
C102 Dy80 2.738 . S
C102 O85 1.255 . S
C102 O86 1.249 . S
C102 C96 1.516 . S
C103 O87 1.254 . S
C103 O88 1.257 . S
C104 O89 1.266 1_455 S
C104 O90 1.236 . S
C105 C108 1.344 . S
C105 C109 1.328 . S
C105 C111 1.516 . S
C106 C107 1.304 . S
C106 C110 1.323 . S
C107 C106 1.304 . S
C107 C108 1.371 . S
C107 H116 0.930 . S
C108 C105 1.344 . S
C108 C107 1.371 . S
C108 H117 0.931 . S
C109 C105 1.328 . S
C109 C110 1.433 . S
C109 H118 0.931 . S
C110 C106 1.323 . S
C110 C109 1.433 . S
C110 H119 0.933 . S
C111 Dy81 2.738 . S
C111 O91 1.255 . S
C111 O92 1.249 . S
C111 C105 1.516 . S
H112 C98 0.930 . S
H113 C99 0.931 . S
H114 C100 0.931 . S
H115 C101 0.933 . S
H116 C107 0.930 . S
H117 C108 0.931 . S
H118 C109 0.931 . S
H119 C110 0.933 . S
Dy120 O123 2.308 . S
Dy120 O125 2.395 1_554 S
Dy120 O126 2.378 1_554 S
Dy120 O128 2.339 . S
Dy120 O130 2.298 1_564 S
Dy120 O134 2.275 . S
Dy120 C142 2.738 1_554 S
Dy121 O124 2.298 . S
Dy121 O127 2.275 . S
Dy121 O129 2.307 1_554 S
Dy121 O131 2.395 . S
Dy121 O132 2.379 . S
Dy121 O135 2.339 . S
Dy121 C151 2.738 . S
C122 O134 1.254 1_545 S
C122 O135 1.257 . S
O123 Dy120 2.308 . S
O123 C133 1.266 . S
O124 Dy121 2.298 . S
O124 C133 1.236 1_545 S
O125 Dy120 2.395 1_556 S
O125 C142 1.255 . S
O126 Dy120 2.378 1_556 S
O126 C142 1.249 . S
O127 Dy121 2.275 . S
O127 C143 1.254 . S
O128 Dy120 2.339 . S
O128 C143 1.257 1_565 S
O129 Dy121 2.307 1_556 S
O129 C144 1.266 . S
O130 Dy120 2.298 1_546 S
O130 C144 1.236 . S
O131 Dy121 2.395 . S
O131 C151 1.255 . S
O132 Dy121 2.379 . S
O132 C151 1.249 . S
C133 O123 1.266 . S
C133 O124 1.236 1_565 S
O134 Dy120 2.275 . S
O134 C122 1.254 1_565 S
O135 Dy121 2.339 . S
O135 C122 1.257 . S
C136 C139 1.344 . S
C136 C140 1.328 . S
C136 C142 1.516 . S
C137 C138 1.304 . S
C137 C141 1.323 . S
C138 C137 1.304 . S
C138 C139 1.371 . S
C138 H152 0.930 . S
C139 C136 1.344 . S
C139 C138 1.371 . S
C139 H153 0.931 . S
C140 C136 1.328 . S
C140 C141 1.433 . S
C140 H154 0.931 . S
C141 C137 1.323 . S
C141 C140 1.433 . S
C141 H155 0.933 . S
C142 Dy120 2.738 1_556 S
C142 O125 1.255 . S
C142 O126 1.249 . S
C142 C136 1.516 . S
C143 O127 1.254 . S
C143 O128 1.257 1_545 S
C144 O129 1.266 . S
C144 O130 1.236 . S
C145 C148 1.344 . S
C145 C149 1.328 . S
C145 C151 1.516 . S
C146 C147 1.304 . S
C146 C150 1.323 . S
C147 C146 1.304 . S
C147 C148 1.371 . S
C147 H156 0.930 . S
C148 C145 1.344 . S
C148 C147 1.371 . S
C148 H157 0.931 . S
C149 C145 1.328 . S
C149 C150 1.433 . S
C149 H158 0.931 . S
C150 C146 1.323 . S
C150 C149 1.433 . S
C150 H159 0.933 . S
C151 Dy121 2.738 . S
C151 O131 1.255 . S
C151 O132 1.249 . S
C151 C145 1.516 . S
H152 C138 0.930 . S
H153 C139 0.931 . S
H154 C140 0.931 . S
H155 C141 0.933 . S
H156 C147 0.930 . S
H157 C148 0.931 . S
H158 C149 0.931 . S
H159 C150 0.933 . S
Dy160 O163 2.307 . S
Dy160 O165 2.395 . S
Dy160 O166 2.379 . S
Dy160 O168 2.339 . S
Dy160 O170 2.298 . S
Dy160 O174 2.275 . S
Dy160 C182 2.738 . S
Dy161 O164 2.298 . S
Dy161 O167 2.275 . S
Dy161 O169 2.307 . S
Dy161 O171 2.395 . S
Dy161 O172 2.379 . S
Dy161 O175 2.339 . S
Dy161 C191 2.738 . S
C162 O174 1.254 . S
C162 O175 1.257 . S
O163 Dy160 2.307 . S
O163 C173 1.266 . S
O164 Dy161 2.298 . S
O164 C173 1.236 . S
O165 Dy160 2.395 . S
O165 C182 1.255 . S
O166 Dy160 2.379 . S
O166 C182 1.249 . S
O167 Dy161 2.275 . S
O167 C183 1.254 . S
O168 Dy160 2.339 . S
O168 C183 1.257 . S
O169 Dy161 2.307 . S
O169 C184 1.266 . S
O170 Dy160 2.298 . S
O170 C184 1.236 . S
O171 Dy161 2.395 . S
O171 C191 1.255 . S
O172 Dy161 2.379 . S
O172 C191 1.249 . S
C173 O163 1.266 . S
C173 O164 1.236 . S
O174 Dy160 2.275 . S
O174 C162 1.254 . S
O175 Dy161 2.339 . S
O175 C162 1.257 . S
C176 C179 1.344 . S
C176 C180 1.328 . S
C176 C182 1.516 . S
C177 C178 1.304 . S
C177 C181 1.323 . S
C178 C177 1.304 . S
C178 C179 1.371 . S
C178 H192 0.930 . S
C179 C176 1.344 . S
C179 C178 1.371 . S
C179 H193 0.931 . S
C180 C176 1.328 . S
C180 C181 1.433 . S
C180 H194 0.931 . S
C181 C177 1.323 . S
C181 C180 1.433 . S
C181 H195 0.933 . S
C182 Dy160 2.738 . S
C182 O165 1.255 . S
C182 O166 1.249 . S
C182 C176 1.516 . S
C183 O167 1.254 . S
C183 O168 1.257 . S
C184 O169 1.266 . S
C184 O170 1.236 . S
C185 C188 1.344 . S
C185 C189 1.328 . S
C185 C191 1.516 . S
C186 C187 1.304 . S
C186 C190 1.323 . S
C187 C186 1.304 . S
C187 C188 1.371 . S
C187 H196 0.930 . S
C188 C185 1.344 . S
C188 C187 1.371 . S
C188 H197 0.931 . S
C189 C185 1.328 . S
C189 C190 1.433 . S
C189 H198 0.931 . S
C190 C186 1.323 . S
C190 C189 1.433 . S
C190 H199 0.933 . S
C191 Dy161 2.738 . S
C191 O171 1.255 . S
C191 O172 1.249 . S
C191 C185 1.516 . S
H192 C178 0.930 . S
H193 C179 0.931 . S
H194 C180 0.931 . S
H195 C181 0.933 . S
H196 C187 0.930 . S
H197 C188 0.931 . S
H198 C189 0.931 . S
H199 C190 0.933 . S
Dy200 O203 2.307 . S
Dy200 O205 2.395 . S
Dy200 O206 2.379 . S
Dy200 O208 2.339 . S
Dy200 O210 2.298 . S
Dy200 O214 2.275 . S
Dy200 C222 2.738 . S
Dy201 O204 2.298 1_655 S
Dy201 O207 2.275 1_655 S
Dy201 O209 2.307 . S
Dy201 O211 2.395 . S
Dy201 O212 2.379 . S
Dy201 O215 2.339 1_655 S
Dy201 C231 2.738 . S
C202 O214 1.254 . S
C202 O215 1.257 . S
O203 Dy200 2.307 . S
O203 C213 1.266 . S
O204 Dy201 2.298 1_455 S
O204 C213 1.236 . S
O205 Dy200 2.395 . S
O205 C222 1.255 . S
O206 Dy200 2.379 . S
O206 C222 1.249 . S
O207 Dy201 2.275 1_455 S
O207 C223 1.254 . S
O208 Dy200 2.339 . S
O208 C223 1.257 . S
O209 Dy201 2.307 . S
O209 C224 1.266 1_655 S
O210 Dy200 2.298 . S
O210 C224 1.236 . S
O211 Dy201 2.395 . S
O211 C231 1.255 . S
O212 Dy201 2.379 . S
O212 C231 1.249 . S
C213 O203 1.266 . S
C213 O204 1.236 . S
O214 Dy200 2.275 . S
O214 C202 1.254 . S
O215 Dy201 2.339 1_455 S
O215 C202 1.257 . S
C216 C219 1.344 . S
C216 C220 1.328 . S
C216 C222 1.516 . S
C217 C218 1.304 . S
C217 C221 1.323 . S
C218 C217 1.304 . S
C218 C219 1.371 . S
C218 H232 0.930 . S
C219 C216 1.344 . S
C219 C218 1.371 . S
C219 H233 0.931 . S
C220 C216 1.328 . S
C220 C221 1.433 . S
C220 H234 0.931 . S
C221 C217 1.323 . S
C221 C220 1.433 . S
C221 H235 0.933 . S
C222 Dy200 2.738 . S
C222 O205 1.255 . S
C222 O206 1.249 . S
C222 C216 1.516 . S
C223 O207 1.254 . S
C223 O208 1.257 . S
C224 O209 1.266 1_455 S
C224 O210 1.236 . S
C225 C228 1.344 . S
C225 C229 1.328 . S
C225 C231 1.516 . S
C226 C227 1.304 . S
C226 C230 1.323 . S
C227 C226 1.304 . S
C227 C228 1.371 . S
C227 H236 0.930 . S
C228 C225 1.344 . S
C228 C227 1.371 . S
C228 H237 0.931 . S
C229 C225 1.328 . S
C229 C230 1.433 . S
C229 H238 0.931 . S
C230 C226 1.323 . S
C230 C229 1.433 . S
C230 H239 0.933 . S
C231 Dy201 2.738 . S
C231 O211 1.255 . S
C231 O212 1.249 . S
C231 C225 1.516 . S
H232 C218 0.930 . S
H233 C219 0.931 . S
H234 C220 0.931 . S
H235 C221 0.933 . S
H236 C227 0.930 . S
H237 C228 0.931 . S
H238 C229 0.931 . S
H239 C230 0.933 . S
H240 C258 0.951 . S
H241 C260 0.951 . S
H242 C262 0.950 . S
H243 C263 0.950 . S
H244 C265 0.950 . S
H245 C268 0.950 . S
H246 C269 0.950 . S
H247 C271 0.950 . S
H248 C272 0.950 1_545 S
H249 C273 0.951 . S
H250 C275 0.951 . S
H251 C277 0.950 1_556 S
H252 C278 0.950 1_556 S
H253 C280 0.950 1_456 S
H254 C283 0.950 . S
H255 C284 0.950 . S
H256 C286 0.950 . S
H257 C287 0.950 1_655 S
C258 H240 0.951 . S
C258 C259 1.366 1_556 S
C258 C260 1.388 . S
C259 C258 1.366 1_554 S
C259 C263 1.385 1_545 S
C260 H241 0.951 . S
C260 C258 1.388 . S
C260 C261 1.366 1_556 S
C261 C260 1.366 1_554 S
C261 C262 1.414 1_545 S
C261 C264 1.499 . S
C262 H242 0.950 . S
C262 C261 1.414 1_565 S
C262 C263 1.374 . S
C263 H243 0.950 . S
C263 C259 1.385 1_565 S
C263 C262 1.374 . S
C264 C261 1.499 . S
C264 C265 1.373 . S
C264 C266 1.398 1_545 S
C265 H244 0.950 . S
C265 C264 1.373 . S
C265 C281 1.377 1_655 S
C266 C264 1.398 1_565 S
C266 C267 1.514 1_554 S
C266 C280 1.377 . S
C267 C266 1.514 1_556 S
C267 C268 1.397 . S
C267 C272 1.363 . S
C268 H245 0.950 . S
C268 C267 1.397 . S
C268 C269 1.334 . S
C269 H246 0.950 . S
C269 C268 1.334 . S
C269 C270 1.287 . S
C270 C269 1.287 . S
C270 C271 1.524 . S
C270 H289 0.913 . S
C271 H247 0.950 . S
C271 C270 1.524 . S
C271 C272 1.415 . S
C272 H248 0.950 1_565 S
C272 C267 1.363 . S
C272 C271 1.415 . S
C273 H249 0.951 . S
C273 C274 1.366 1_565 S
C273 C275 1.388 . S
C274 C273 1.366 1_545 S
C274 C278 1.385 . S
C275 H250 0.951 . S
C275 C273 1.388 . S
C275 C276 1.366 1_565 S
C276 C275 1.366 1_545 S
C276 C277 1.414 . S
C276 C279 1.499 . S
C277 H251 0.950 1_554 S
C277 C276 1.414 . S
C277 C278 1.374 . S
C278 H252 0.950 1_554 S
C278 C274 1.385 . S
C278 C277 1.374 . S
C279 C276 1.499 . S
C279 C280 1.373 1_445 S
C279 C281 1.389 . S
C280 H253 0.950 1_654 S
C280 C266 1.377 . S
C280 C279 1.373 1_665 S
C281 C265 1.377 1_455 S
C281 C279 1.389 . S
C281 C282 1.524 . S
C282 C281 1.524 . S
C282 C283 1.397 . S
C282 C287 1.363 . S
C283 H254 0.950 . S
C283 C282 1.397 . S
C283 C284 1.334 . S
C284 H255 0.950 . S
C284 C283 1.334 . S
C284 C285 1.287 . S
C285 C284 1.287 . S
C285 C286 1.524 . S
C285 H288 0.999 . S
C286 H256 0.950 . S
C286 C285 1.524 . S
C286 C287 1.415 . S
C287 H257 0.950 1_455 S
C287 C282 1.363 . S
C287 C286 1.415 . S
H288 C285 0.999 . S
H289 C270 0.913 . S
H290 C308 0.951 . S
H291 C310 0.951 1_545 S
H292 C312 0.950 . S
H293 C313 0.950 . S
H294 C315 0.950 . S
H295 C318 0.950 . S
H296 C319 0.950 . S
H297 C321 0.950 . S
H298 C322 0.950 . S
H299 C323 0.951 . S
H300 C325 0.951 . S
H301 C327 0.950 . S
H302 C328 0.950 . S
H303 C330 0.950 . S
H304 C333 0.950 . S
H305 C334 0.950 . S
H306 C336 0.950 . S
H307 C337 0.950 . S
C308 H290 0.951 . S
C308 C309 1.366 . S
C308 C310 1.388 . S
C309 C308 1.366 . S
C309 C313 1.385 . S
C310 H291 0.951 1_565 S
C310 C308 1.388 . S
C310 C311 1.366 . S
C311 C310 1.366 . S
C311 C312 1.414 . S
C311 C314 1.499 1_565 S
C312 H292 0.950 . S
C312 C311 1.414 . S
C312 C313 1.374 . S
C313 H293 0.950 . S
C313 C309 1.385 . S
C313 C312 1.374 . S
C314 C311 1.499 1_545 S
C314 C315 1.373 . S
C314 C316 1.389 . S
C315 H294 0.950 . S
C315 C314 1.373 . S
C315 C331 1.377 1_655 S
C316 C314 1.389 . S
C316 C317 1.524 . S
C316 C330 1.377 . S
C317 C316 1.524 . S
C317 C318 1.397 . S
C317 C322 1.363 . S
C318 H295 0.950 . S
C318 C317 1.397 . S
C318 C319 1.334 . S
C319 H296 0.950 . S
C319 C318 1.334 . S
C319 C320 1.287 . S
C320 C319 1.287 . S
C320 C321 1.524 . S
C320 H339 0.913 . S
C321 H297 0.950 . S
C321 C320 1.524 . S
C321 C322 1.415 . S
C322 H298 0.950 . S
C322 C317 1.363 . S
C322 C321 1.415 . S
C323 H299 0.951 . S
C323 C324 1.366 . S
C323 C325 1.388 . S
C324 C323 1.366 . S
C324 C328 1.385 . S
C325 H300 0.951 . S
C325 C323 1.388 . S
C325 C326 1.366 . S
C326 C325 1.366 . S
C326 C327 1.414 . S
C326 C329 1.499 . S
C327 H301 0.950 . S
C327 C326 1.414 . S
C327 C328 1.374 . S
C328 H302 0.950 . S
C328 C324 1.385 . S
C328 C327 1.374 . S
C329 C326 1.499 . S
C329 C330 1.373 1_455 S
C329 C331 1.389 . S
C330 H303 0.950 . S
C330 C316 1.377 . S
C330 C329 1.373 1_655 S
C331 C315 1.377 1_455 S
C331 C329 1.389 . S
C331 C332 1.524 . S
C332 C331 1.524 . S
C332 C333 1.397 . S
C332 C337 1.363 . S
C333 H304 0.950 . S
C333 C332 1.397 . S
C333 C334 1.334 . S
C334 H305 0.950 . S
C334 C333 1.334 . S
C334 C335 1.287 . S
C335 C334 1.287 . S
C335 C336 1.524 . S
C335 H338 0.999 . S
C336 H306 0.950 . S
C336 C335 1.524 . S
C336 C337 1.415 . S
C337 H307 0.950 . S
C337 C332 1.363 . S
C337 C336 1.415 . S
H338 C335 0.999 . S
H339 C320 0.913 . S
H340 C358 0.951 . S
H341 C360 0.951 . S
H342 C362 0.950 1_545 S
H343 C363 0.950 . S
H344 C365 0.950 . S
H345 C368 0.950 . S
H346 C369 0.950 . S
H347 C371 0.950 . S
H348 C372 0.950 1_545 S
H349 C373 0.951 . S
H350 C375 0.951 . S
H351 C377 0.950 . S
H352 C378 0.950 . S
H353 C380 0.950 1_655 S
H354 C383 0.950 . S
H355 C384 0.950 . S
H356 C386 0.950 . S
H357 C387 0.950 . S
C358 H340 0.951 . S
C358 C359 1.366 . S
C358 C360 1.388 . S
C359 C358 1.366 . S
C359 C363 1.385 . S
C360 H341 0.951 . S
C360 C358 1.388 . S
C360 C361 1.366 . S
C361 C360 1.366 . S
C361 C362 1.414 . S
C361 C364 1.499 1_565 S
C362 H342 0.950 1_565 S
C362 C361 1.414 . S
C362 C363 1.374 . S
C363 H343 0.950 . S
C363 C359 1.385 . S
C363 C362 1.374 . S
C364 C361 1.499 1_545 S
C364 C365 1.373 . S
C364 C366 1.389 . S
C365 H344 0.950 . S
C365 C364 1.373 . S
C365 C381 1.377 . S
C366 C364 1.389 . S
C366 C367 1.524 1_455 S
C366 C380 1.377 . S
C367 C366 1.524 1_655 S
C367 C368 1.397 1_545 S
C367 C372 1.363 1_545 S
C368 H345 0.950 . S
C368 C367 1.397 1_565 S
C368 C369 1.334 . S
C369 H346 0.950 . S
C369 C368 1.334 . S
C369 C370 1.287 . S
C370 C369 1.287 . S
C370 C371 1.524 . S
C370 H389 0.913 . S
C371 H347 0.950 . S
C371 C370 1.524 . S
C371 C372 1.415 . S
C372 H348 0.950 1_565 S
C372 C367 1.363 1_565 S
C372 C371 1.415 . S
C373 H349 0.951 . S
C373 C374 1.366 . S
C373 C375 1.388 . S
C374 C373 1.366 . S
C374 C378 1.385 . S
C375 H350 0.951 . S
C375 C373 1.388 . S
C375 C376 1.366 . S
C376 C375 1.366 . S
C376 C377 1.414 . S
C376 C379 1.499 . S
C377 H351 0.950 . S
C377 C376 1.414 . S
C377 C378 1.374 . S
C378 H352 0.950 . S
C378 C374 1.385 . S
C378 C377 1.374 . S
C379 C376 1.499 . S
C379 C380 1.373 . S
C379 C381 1.389 . S
C380 H353 0.950 1_455 S
C380 C366 1.377 . S
C380 C379 1.373 . S
C381 C365 1.377 . S
C381 C379 1.389 . S
C381 C382 1.524 . S
C382 C381 1.524 . S
C382 C383 1.397 . S
C382 C387 1.363 . S
C383 H354 0.950 . S
C383 C382 1.397 . S
C383 C384 1.334 . S
C384 H355 0.950 . S
C384 C383 1.334 . S
C384 C385 1.287 . S
C385 C384 1.287 . S
C385 C386 1.524 . S
C385 H388 0.999 . S
C386 H356 0.950 . S
C386 C385 1.524 . S
C386 C387 1.415 . S
C387 H357 0.950 . S
C387 C382 1.363 . S
C387 C386 1.415 . S
H388 C385 0.999 . S
H389 C370 0.913 . S
H390 C408 0.951 . S
H391 C410 0.951 . S
H392 C412 0.950 . S
H393 C413 0.950 . S
H394 C415 0.950 . S
H395 C418 0.950 . S
H396 C419 0.950 . S
H397 C421 0.950 . S
H398 C422 0.950 . S
H399 C423 0.951 . S
H400 C425 0.951 . S
H401 C427 0.950 . S
H402 C428 0.950 . S
H403 C430 0.950 . S
H404 C433 0.950 . S
H405 C434 0.950 . S
H406 C436 0.950 . S
H407 C437 0.950 . S
C408 H390 0.951 . S
C408 C409 1.366 . S
C408 C410 1.388 . S
C409 C408 1.366 . S
C409 C413 1.385 . S
C410 H391 0.951 . S
C410 C408 1.388 . S
C410 C411 1.366 . S
C411 C410 1.366 . S
C411 C412 1.414 . S
C411 C414 1.499 . S
C412 H392 0.950 . S
C412 C411 1.414 . S
C412 C413 1.374 . S
C413 H393 0.950 . S
C413 C409 1.385 . S
C413 C412 1.374 . S
C414 C411 1.499 . S
C414 C415 1.373 . S
C414 C416 1.389 . S
C415 H394 0.950 . S
C415 C414 1.373 . S
C415 C431 1.377 . S
C416 C414 1.389 . S
C416 C417 1.524 . S
C416 C430 1.377 . S
C417 C416 1.524 . S
C417 C418 1.397 . S
C417 C422 1.363 . S
C418 H395 0.950 . S
C418 C417 1.397 . S
C418 C419 1.334 . S
C419 H396 0.950 . S
C419 C418 1.334 . S
C419 C420 1.287 . S
C420 C419 1.287 . S
C420 C421 1.524 . S
C420 H439 0.913 . S
C421 H397 0.950 . S
C421 C420 1.524 . S
C421 C422 1.415 . S
C422 H398 0.950 . S
C422 C417 1.363 . S
C422 C421 1.415 . S
C423 H399 0.951 . S
C423 C424 1.366 . S
C423 C425 1.388 . S
C424 C423 1.366 . S
C424 C428 1.385 . S
C425 H400 0.951 . S
C425 C423 1.388 . S
C425 C426 1.366 . S
C426 C425 1.366 . S
C426 C427 1.414 . S
C426 C429 1.499 . S
C427 H401 0.950 . S
C427 C426 1.414 . S
C427 C428 1.374 . S
C428 H402 0.950 . S
C428 C424 1.385 . S
C428 C427 1.374 . S
C429 C426 1.499 . S
C429 C430 1.373 . S
C429 C431 1.389 . S
C430 H403 0.950 . S
C430 C416 1.377 . S
C430 C429 1.373 . S
C431 C415 1.377 . S
C431 C429 1.389 . S
C431 C432 1.524 . S
C432 C431 1.524 . S
C432 C433 1.397 . S
C432 C437 1.363 . S
C433 H404 0.950 . S
C433 C432 1.397 . S
C433 C434 1.334 . S
C434 H405 0.950 . S
C434 C433 1.334 . S
C434 C435 1.287 . S
C435 C434 1.287 . S
C435 C436 1.524 . S
C435 H438 0.999 . S
C436 H406 0.950 . S
C436 C435 1.524 . S
C436 C437 1.415 . S
C437 H407 0.950 . S
C437 C432 1.363 . S
C437 C436 1.415 . S
H438 C435 0.999 . S
H439 C420 0.913 . S
H440 C458 0.951 . S
H441 C460 0.951 1_655 S
H442 C462 0.950 . S
H443 C463 0.950 . S
H444 C465 0.950 . S
H445 C468 0.950 . S
H446 C469 0.950 . S
H447 C471 0.950 . S
H448 C472 0.950 . S
H449 C473 0.951 . S
H450 C475 0.951 . S
H451 C477 0.950 . S
H452 C478 0.950 . S
H453 C480 0.950 . S
H454 C483 0.950 . S
H455 C484 0.950 . S
H456 C486 0.950 . S
H457 C487 0.950 . S
C458 H440 0.951 . S
C458 C459 1.366 . S
C458 C460 1.388 . S
C459 C458 1.366 . S
C459 C463 1.385 . S
C460 H441 0.951 1_455 S
C460 C458 1.388 . S
C460 C461 1.366 . S
C461 C460 1.366 . S
C461 C462 1.414 . S
C461 C464 1.499 1_455 S
C462 H442 0.950 . S
C462 C461 1.414 . S
C462 C463 1.374 . S
C463 H443 0.950 . S
C463 C459 1.385 . S
C463 C462 1.374 . S
C464 C461 1.499 1_655 S
C464 C465 1.373 . S
C464 C466 1.389 . S
C465 H444 0.950 . S
C465 C464 1.373 . S
C465 C481 1.377 . S
C466 C464 1.389 . S
C466 C467 1.524 . S
C466 C480 1.377 . S
C467 C466 1.524 . S
C467 C468 1.397 1_655 S
C467 C472 1.363 . S
C468 H445 0.950 . S
C468 C467 1.397 1_455 S
C468 C469 1.334 . S
C469 H446 0.950 . S
C469 C468 1.334 . S
C469 C470 1.287 . S
C470 C469 1.287 . S
C470 C471 1.524 1_455 S
C470 H489 0.913 . S
C471 H447 0.950 . S
C471 C470 1.524 1_655 S
C471 C472 1.415 . S
C472 H448 0.950 . S
C472 C467 1.363 . S
C472 C471 1.415 . S
C473 H449 0.951 . S
C473 C474 1.366 . S
C473 C475 1.388 . S
C474 C473 1.366 . S
C474 C478 1.385 . S
C475 H450 0.951 . S
C475 C473 1.388 . S
C475 C476 1.366 . S
C476 C475 1.366 . S
C476 C477 1.414 . S
C476 C479 1.499 . S
C477 H451 0.950 . S
C477 C476 1.414 . S
C477 C478 1.374 . S
C478 H452 0.950 . S
C478 C474 1.385 . S
C478 C477 1.374 . S
C479 C476 1.499 . S
C479 C480 1.373 . S
C479 C481 1.389 . S
C480 H453 0.950 . S
C480 C466 1.377 . S
C480 C479 1.373 . S
C481 C465 1.377 . S
C481 C479 1.389 . S
C481 C482 1.524 . S
C482 C481 1.524 . S
C482 C483 1.397 . S
C482 C487 1.363 . S
C483 H454 0.950 . S
C483 C482 1.397 . S
C483 C484 1.334 . S
C484 H455 0.950 . S
C484 C483 1.334 . S
C484 C485 1.287 . S
C485 C484 1.287 . S
C485 C486 1.524 . S
C485 H488 0.999 . S
C486 H456 0.950 . S
C486 C485 1.524 . S
C486 C487 1.415 . S
C487 H457 0.950 . S
C487 C482 1.363 . S
C487 C486 1.415 . S
H488 C485 0.999 . S
H489 C470 0.913 . S
H490 C508 0.951 . S
H491 C510 0.951 . S
H492 C512 0.950 . S
H493 C513 0.950 . S
H494 C515 0.950 . S
H495 C518 0.950 . S
H496 C519 0.950 . S
H497 C521 0.950 . S
H498 C522 0.950 . S
H499 C523 0.951 . S
H500 C525 0.951 . S
H501 C527 0.950 . S
H502 C528 0.950 . S
H503 C530 0.950 . S
H504 C533 0.950 1_565 S
H505 C534 0.950 . S
H506 C536 0.950 . S
H507 C537 0.950 . S
C508 H490 0.951 . S
C508 C509 1.366 . S
C508 C510 1.388 . S
C509 C508 1.366 . S
C509 C513 1.385 . S
C510 H491 0.951 . S
C510 C508 1.388 . S
C510 C511 1.366 . S
C511 C510 1.366 . S
C511 C512 1.414 . S
C511 C514 1.499 . S
C512 H492 0.950 . S
C512 C511 1.414 . S
C512 C513 1.374 . S
C513 H493 0.950 . S
C513 C509 1.385 . S
C513 C512 1.374 . S
C514 C511 1.499 . S
C514 C515 1.373 . S
C514 C516 1.389 . S
C515 H494 0.950 . S
C515 C514 1.373 . S
C515 C531 1.377 . S
C516 C514 1.389 . S
C516 C517 1.524 . S
C516 C530 1.377 . S
C517 C516 1.524 . S
C517 C518 1.397 . S
C517 C522 1.363 . S
C518 H495 0.950 . S
C518 C517 1.397 . S
C518 C519 1.334 . S
C519 H496 0.950 . S
C519 C518 1.334 . S
C519 C520 1.287 . S
C520 C519 1.287 . S
C520 C521 1.524 . S
C520 H539 0.913 1_655 S
C521 H497 0.950 . S
C521 C520 1.524 . S
C521 C522 1.415 . S
C522 H498 0.950 . S
C522 C517 1.363 . S
C522 C521 1.415 . S
C523 H499 0.951 . S
C523 C524 1.366 . S
C523 C525 1.388 1_565 S
C524 C523 1.366 . S
C524 C528 1.385 . S
C525 H500 0.951 . S
C525 C523 1.388 1_545 S
C525 C526 1.366 . S
C526 C525 1.366 . S
C526 C527 1.414 1_545 S
C526 C529 1.499 . S
C527 H501 0.950 . S
C527 C526 1.414 1_565 S
C527 C528 1.374 . S
C528 H502 0.950 . S
C528 C524 1.385 . S
C528 C527 1.374 . S
C529 C526 1.499 . S
C529 C530 1.373 . S
C529 C531 1.389 . S
C530 H503 0.950 . S
C530 C516 1.377 . S
C530 C529 1.373 . S
C531 C515 1.377 . S
C531 C529 1.389 . S
C531 C532 1.524 . S
C532 C531 1.524 . S
C532 C533 1.397 . S
C532 C537 1.363 . S
C533 H504 0.950 1_545 S
C533 C532 1.397 . S
C533 C534 1.334 1_545 S
C534 H505 0.950 . S
C534 C533 1.334 1_565 S
C534 C535 1.287 1_565 S
C535 C534 1.287 1_545 S
C535 C536 1.524 . S
C535 H538 0.999 1_545 S
C536 H506 0.950 . S
C536 C535 1.524 . S
C536 C537 1.415 . S
C537 H507 0.950 . S
C537 C532 1.363 . S
C537 C536 1.415 . S
H538 C535 0.999 1_565 S
H539 C520 0.913 1_455 S
H540 C558 0.951 . S
H541 C560 0.951 . S
H542 C562 0.950 . S
H543 C563 0.950 . S
H544 C565 0.950 . S
H545 C568 0.950 . S
H546 C569 0.950 . S
H547 C571 0.950 . S
H548 C572 0.950 . S
H549 C573 0.951 . S
H550 C575 0.951 . S
H551 C577 0.950 . S
H552 C578 0.950 . S
H553 C580 0.950 . S
H554 C583 0.950 . S
H555 C584 0.950 . S
H556 C586 0.950 . S
H557 C587 0.950 . S
C558 H540 0.951 . S
C558 C559 1.366 . S
C558 C560 1.388 . S
C559 C558 1.366 . S
C559 C563 1.385 . S
C560 H541 0.951 . S
C560 C558 1.388 . S
C560 C561 1.366 . S
C561 C560 1.366 . S
C561 C562 1.414 . S
C561 C564 1.499 . S
C562 H542 0.950 . S
C562 C561 1.414 . S
C562 C563 1.374 . S
C563 H543 0.950 . S
C563 C559 1.385 . S
C563 C562 1.374 . S
C564 C561 1.499 . S
C564 C565 1.373 . S
C564 C566 1.389 . S
C565 H544 0.950 . S
C565 C564 1.373 . S
C565 C581 1.377 . S
C566 C564 1.389 . S
C566 C567 1.524 . S
C566 C580 1.377 . S
C567 C566 1.524 . S
C567 C568 1.397 . S
C567 C572 1.363 . S
C568 H545 0.950 . S
C568 C567 1.397 . S
C568 C569 1.334 . S
C569 H546 0.950 . S
C569 C568 1.334 . S
C569 C570 1.287 . S
C570 C569 1.287 . S
C570 C571 1.524 . S
C570 H589 0.913 . S
C571 H547 0.950 . S
C571 C570 1.524 . S
C571 C572 1.415 . S
C572 H548 0.950 . S
C572 C567 1.363 . S
C572 C571 1.415 . S
C573 H549 0.951 . S
C573 C574 1.366 . S
C573 C575 1.388 . S
C574 C573 1.366 . S
C574 C578 1.385 . S
C575 H550 0.951 . S
C575 C573 1.388 . S
C575 C576 1.366 . S
C576 C575 1.366 . S
C576 C577 1.414 . S
C576 C579 1.499 . S
C577 H551 0.950 . S
C577 C576 1.414 . S
C577 C578 1.374 . S
C578 H552 0.950 . S
C578 C574 1.385 . S
C578 C577 1.374 . S
C579 C576 1.499 . S
C579 C580 1.373 . S
C579 C581 1.389 . S
C580 H553 0.950 . S
C580 C566 1.377 . S
C580 C579 1.373 . S
C581 C565 1.377 . S
C581 C579 1.389 . S
C581 C582 1.524 . S
C582 C581 1.524 . S
C582 C583 1.397 . S
C582 C587 1.363 . S
C583 H554 0.950 . S
C583 C582 1.397 . S
C583 C584 1.334 . S
C584 H555 0.950 . S
C584 C583 1.334 . S
C584 C585 1.287 . S
C585 C584 1.287 . S
C585 C586 1.524 . S
C585 H588 0.999 . S
C586 H556 0.950 . S
C586 C585 1.524 . S
C586 C587 1.415 . S
C587 H557 0.950 . S
C587 C582 1.363 . S
C587 C586 1.415 . S
H588 C585 0.999 . S
H589 C570 0.913 . S
H590 C608 0.951 . S
H591 C610 0.951 . S
H592 C612 0.950 . S
H593 C613 0.950 . S
H594 C615 0.950 . S
H595 C618 0.950 . S
H596 C619 0.950 . S
H597 C621 0.950 . S
H598 C622 0.950 . S
H599 C623 0.951 . S
H600 C625 0.951 . S
H601 C627 0.950 . S
H602 C628 0.950 . S
H603 C630 0.950 . S
H604 C633 0.950 . S
H605 C634 0.950 . S
H606 C636 0.950 . S
H607 C637 0.950 . S
C608 H590 0.951 . S
C608 C609 1.366 . S
C608 C610 1.388 . S
C609 C608 1.366 . S
C609 C613 1.385 . S
C610 H591 0.951 . S
C610 C608 1.388 . S
C610 C611 1.366 . S
C611 C610 1.366 . S
C611 C612 1.414 . S
C611 C614 1.499 . S
C612 H592 0.950 . S
C612 C611 1.414 . S
C612 C613 1.374 . S
C613 H593 0.950 . S
C613 C609 1.385 . S
C613 C612 1.374 . S
C614 C611 1.499 . S
C614 C615 1.373 . S
C614 C616 1.389 . S
C615 H594 0.950 . S
C615 C614 1.373 . S
C615 C631 1.377 . S
C616 C614 1.389 . S
C616 C617 1.524 . S
C616 C630 1.377 . S
C617 C616 1.524 . S
C617 C618 1.397 . S
C617 C622 1.363 . S
C618 H595 0.950 . S
C618 C617 1.397 . S
C618 C619 1.334 . S
C619 H596 0.950 . S
C619 C618 1.334 . S
C619 C620 1.287 . S
C620 C619 1.287 . S
C620 C621 1.524 . S
C620 H639 0.913 . S
C621 H597 0.950 . S
C621 C620 1.524 . S
C621 C622 1.415 . S
C622 H598 0.950 . S
C622 C617 1.363 . S
C622 C621 1.415 . S
C623 H599 0.951 . S
C623 C624 1.366 . S
C623 C625 1.388 . S
C624 C623 1.366 . S
C624 C628 1.385 . S
C625 H600 0.951 . S
C625 C623 1.388 . S
C625 C626 1.366 . S
C626 C625 1.366 . S
C626 C627 1.414 . S
C626 C629 1.499 1_455 S
C627 H601 0.950 . S
C627 C626 1.414 . S
C627 C628 1.374 . S
C628 H602 0.950 . S
C628 C624 1.385 . S
C628 C627 1.374 . S
C629 C626 1.499 1_655 S
C629 C630 1.373 . S
C629 C631 1.389 . S
C630 H603 0.950 . S
C630 C616 1.377 . S
C630 C629 1.373 . S
C631 C615 1.377 . S
C631 C629 1.389 . S
C631 C632 1.524 1_655 S
C632 C631 1.524 1_455 S
C632 C633 1.397 . S
C632 C637 1.363 . S
C633 H604 0.950 . S
C633 C632 1.397 . S
C633 C634 1.334 . S
C634 H605 0.950 . S
C634 C633 1.334 . S
C634 C635 1.287 . S
C635 C634 1.287 . S
C635 C636 1.524 . S
C635 H638 0.999 . S
C636 H606 0.950 . S
C636 C635 1.524 . S
C636 C637 1.415 . S
C637 H607 0.950 . S
C637 C632 1.363 . S
C637 C636 1.415 . S
H638 C635 0.999 . S
H639 C620 0.913 . S
H640 C658 0.951 . S
H641 C660 0.951 . S
H642 C662 0.950 . S
H643 C663 0.950 1_545 S
H644 C665 0.950 . S
H645 C668 0.950 . S
H646 C669 0.950 . S
H647 C671 0.950 . S
H648 C672 0.950 . S
H649 C673 0.951 . S
H650 C675 0.951 . S
H651 C677 0.950 . S
H652 C678 0.950 . S
H653 C680 0.950 . S
H654 C683 0.950 . S
H655 C684 0.950 . S
H656 C686 0.950 . S
H657 C687 0.950 . S
C658 H640 0.951 . S
C658 C659 1.366 . S
C658 C660 1.388 . S
C659 C658 1.366 . S
C659 C663 1.385 . S
C660 H641 0.951 . S
C660 C658 1.388 . S
C660 C661 1.366 1_565 S
C661 C660 1.366 1_545 S
C661 C662 1.414 . S
C661 C664 1.499 . S
C662 H642 0.950 . S
C662 C661 1.414 . S
C662 C663 1.374 1_545 S
C663 H643 0.950 1_565 S
C663 C659 1.385 . S
C663 C662 1.374 1_565 S
C664 C661 1.499 . S
C664 C665 1.373 . S
C664 C666 1.389 . S
C665 H644 0.950 . S
C665 C664 1.373 . S
C665 C681 1.377 . S
C666 C664 1.389 . S
C666 C667 1.524 . S
C666 C680 1.377 . S
C667 C666 1.524 . S
C667 C668 1.397 . S
C667 C672 1.363 . S
C668 H645 0.950 . S
C668 C667 1.397 . S
C668 C669 1.334 . S
C669 H646 0.950 . S
C669 C668 1.334 . S
C669 C670 1.287 . S
C670 C669 1.287 . S
C670 C671 1.524 . S
C670 H689 0.913 . S
C671 H647 0.950 . S
C671 C670 1.524 . S
C671 C672 1.415 . S
C672 H648 0.950 . S
C672 C667 1.363 . S
C672 C671 1.415 . S
C673 H649 0.951 . S
C673 C674 1.366 . S
C673 C675 1.388 . S
C674 C673 1.366 . S
C674 C678 1.385 . S
C675 H650 0.951 . S
C675 C673 1.388 . S
C675 C676 1.366 . S
C676 C675 1.366 . S
C676 C677 1.414 . S
C676 C679 1.499 . S
C677 H651 0.950 . S
C677 C676 1.414 . S
C677 C678 1.374 . S
C678 H652 0.950 . S
C678 C674 1.385 . S
C678 C677 1.374 . S
C679 C676 1.499 . S
C679 C680 1.373 . S
C679 C681 1.389 . S
C680 H653 0.950 . S
C680 C666 1.377 . S
C680 C679 1.373 . S
C681 C665 1.377 . S
C681 C679 1.389 . S
C681 C682 1.524 . S
C682 C681 1.524 . S
C682 C683 1.397 . S
C682 C687 1.363 . S
C683 H654 0.950 . S
C683 C682 1.397 . S
C683 C684 1.334 . S
C684 H655 0.950 . S
C684 C683 1.334 . S
C684 C685 1.287 . S
C685 C684 1.287 . S
C685 C686 1.524 . S
C685 H688 0.999 . S
C686 H656 0.950 . S
C686 C685 1.524 . S
C686 C687 1.415 . S
C687 H657 0.950 . S
C687 C682 1.363 . S
C687 C686 1.415 . S
H688 C685 0.999 . S
H689 C670 0.913 . S
H690 C708 0.951 1_565 S
H691 C710 0.951 1_565 S
H692 C712 0.950 . S
H693 C713 0.950 . S
H694 C715 0.950 1_556 S
H695 C718 0.950 . S
H696 C719 0.950 . S
H697 C721 0.950 . S
H698 C722 0.950 . S
H699 C723 0.951 1_556 S
H700 C725 0.951 1_556 S
H701 C727 0.950 1_565 S
H702 C728 0.950 1_565 S
H703 C730 0.950 . S
H704 C733 0.950 1_554 S
H705 C734 0.950 . S
H706 C736 0.950 . S
H707 C737 0.950 . S
C708 H690 0.951 1_545 S
C708 C709 1.366 . S
C708 C710 1.388 . S
C709 C708 1.366 . S
C709 C713 1.385 1_554 S
C710 H691 0.951 1_545 S
C710 C708 1.388 . S
C710 C711 1.366 . S
C711 C710 1.366 . S
C711 C712 1.414 1_554 S
C711 C714 1.499 . S
C712 H692 0.950 . S
C712 C711 1.414 1_556 S
C712 C713 1.374 . S
C713 H693 0.950 . S
C713 C709 1.385 1_556 S
C713 C712 1.374 . S
C714 C711 1.499 . S
C714 C715 1.373 1_545 S
C714 C716 1.389 . S
C715 H694 0.950 1_554 S
C715 C714 1.373 1_565 S
C715 C731 1.377 . S
C716 C714 1.389 . S
C716 C717 1.524 . S
C716 C730 1.377 . S
C717 C716 1.524 . S
C717 C718 1.397 . S
C717 C722 1.363 . S
C718 H695 0.950 . S
C718 C717 1.397 . S
C718 C719 1.334 . S
C719 H696 0.950 . S
C719 C718 1.334 . S
C719 C720 1.287 . S
C720 C719 1.287 . S
C720 C721 1.524 . S
C720 H739 0.913 . S
C721 H697 0.950 . S
C721 C720 1.524 . S
C721 C722 1.415 . S
C722 H698 0.950 . S
C722 C717 1.363 . S
C722 C721 1.415 . S
C723 H699 0.951 1_554 S
C723 C724 1.366 . S
C723 C725 1.388 . S
C724 C723 1.366 . S
C724 C728 1.385 . S
C725 H700 0.951 1_554 S
C725 C723 1.388 . S
C725 C726 1.366 . S
C726 C725 1.366 . S
C726 C727 1.414 . S
C726 C729 1.499 . S
C727 H701 0.950 1_545 S
C727 C726 1.414 . S
C727 C728 1.374 . S
C728 H702 0.950 1_545 S
C728 C724 1.385 . S
C728 C727 1.374 . S
C729 C726 1.499 . S
C729 C730 1.373 . S
C729 C731 1.389 1_545 S
C730 H703 0.950 . S
C730 C716 1.377 . S
C730 C729 1.373 . S
C731 C715 1.377 . S
C731 C729 1.389 1_565 S
C731 C732 1.524 1_554 S
C732 C731 1.524 1_556 S
C732 C733 1.397 . S
C732 C737 1.363 . S
C733 H704 0.950 1_556 S
C733 C732 1.397 . S
C733 C734 1.334 . S
C734 H705 0.950 . S
C734 C733 1.334 . S
C734 C735 1.287 . S
C735 C734 1.287 . S
C735 C736 1.524 . S
C735 H738 0.999 . S
C736 H706 0.950 . S
C736 C735 1.524 . S
C736 C737 1.415 . S
C737 H707 0.950 . S
C737 C732 1.363 . S
C737 C736 1.415 . S
H738 C735 0.999 . S
H739 C720 0.913 . S
H740 C758 0.951 . S
H741 C760 0.951 . S
H742 C762 0.950 . S
H743 C763 0.950 . S
H744 C765 0.950 . S
H745 C768 0.950 . S
H746 C769 0.950 . S
H747 C771 0.950 . S
H748 C772 0.950 . S
H749 C773 0.951 . S
H750 C775 0.951 . S
H751 C777 0.950 . S
H752 C778 0.950 . S
H753 C780 0.950 . S
H754 C783 0.950 . S
H755 C784 0.950 . S
H756 C786 0.950 . S
H757 C787 0.950 . S
C758 H740 0.951 . S
C758 C759 1.366 . S
C758 C760 1.388 . S
C759 C758 1.366 . S
C759 C763 1.385 . S
C760 H741 0.951 . S
C760 C758 1.388 . S
C760 C761 1.366 . S
C761 C760 1.366 . S
C761 C762 1.414 . S
C761 C764 1.499 . S
C762 H742 0.950 . S
C762 C761 1.414 . S
C762 C763 1.374 . S
C763 H743 0.950 . S
C763 C759 1.385 . S
C763 C762 1.374 . S
C764 C761 1.499 . S
C764 C765 1.373 . S
C764 C766 1.389 . S
C765 H744 0.950 . S
C765 C764 1.373 . S
C765 C781 1.377 . S
C766 C764 1.389 . S
C766 C767 1.524 . S
C766 C780 1.377 . S
C767 C766 1.524 . S
C767 C768 1.397 . S
C767 C772 1.363 . S
C768 H745 0.950 . S
C768 C767 1.397 . S
C768 C769 1.334 . S
C769 H746 0.950 . S
C769 C768 1.334 . S
C769 C770 1.287 . S
C770 C769 1.287 . S
C770 C771 1.524 . S
C770 H789 0.913 . S
C771 H747 0.950 . S
C771 C770 1.524 . S
C771 C772 1.415 . S
C772 H748 0.950 . S
C772 C767 1.363 . S
C772 C771 1.415 . S
C773 H749 0.951 . S
C773 C774 1.366 . S
C773 C775 1.388 . S
C774 C773 1.366 . S
C774 C778 1.385 . S
C775 H750 0.951 . S
C775 C773 1.388 . S
C775 C776 1.366 . S
C776 C775 1.366 . S
C776 C777 1.414 . S
C776 C779 1.499 . S
C777 H751 0.950 . S
C777 C776 1.414 . S
C777 C778 1.374 . S
C778 H752 0.950 . S
C778 C774 1.385 . S
C778 C777 1.374 . S
C779 C776 1.499 . S
C779 C780 1.373 . S
C779 C781 1.389 . S
C780 H753 0.950 . S
C780 C766 1.377 . S
C780 C779 1.373 . S
C781 C765 1.377 . S
C781 C779 1.389 . S
C781 C782 1.524 . S
C782 C781 1.524 . S
C782 C783 1.397 . S
C782 C787 1.363 . S
C783 H754 0.950 . S
C783 C782 1.397 . S
C783 C784 1.334 . S
C784 H755 0.950 . S
C784 C783 1.334 . S
C784 C785 1.287 . S
C785 C784 1.287 . S
C785 C786 1.524 . S
C785 H788 0.999 . S
C786 H756 0.950 . S
C786 C785 1.524 . S
C786 C787 1.415 . S
C787 H757 0.950 . S
C787 C782 1.363 . S
C787 C786 1.415 . S
H788 C785 0.999 . S
H789 C770 0.913 . S
H790 C808 0.951 . S
H791 C810 0.951 . S
H792 C812 0.950 1_655 S
H793 C813 0.950 1_655 S
H794 C815 0.950 1_655 S
H795 C818 0.950 . S
H796 C819 0.950 . S
H797 C821 0.950 . S
H798 C822 0.950 . S
H799 C823 0.951 1_655 S
H800 C825 0.951 1_655 S
H801 C827 0.950 . S
H802 C828 0.950 . S
H803 C830 0.950 . S
H804 C833 0.950 1_455 S
H805 C834 0.950 . S
H806 C836 0.950 . S
H807 C837 0.950 . S
C808 H790 0.951 . S
C808 C809 1.366 . S
C808 C810 1.388 . S
C809 C808 1.366 . S
C809 C813 1.385 . S
C810 H791 0.951 . S
C810 C808 1.388 . S
C810 C811 1.366 . S
C811 C810 1.366 . S
C811 C812 1.414 . S
C811 C814 1.499 . S
C812 H792 0.950 1_455 S
C812 C811 1.414 . S
C812 C813 1.374 . S
C813 H793 0.950 1_455 S
C813 C809 1.385 . S
C813 C812 1.374 . S
C814 C811 1.499 . S
C814 C815 1.373 . S
C814 C816 1.389 . S
C815 H794 0.950 1_455 S
C815 C814 1.373 . S
C815 C831 1.377 . S
C816 C814 1.389 . S
C816 C817 1.524 . S
C816 C830 1.377 . S
C817 C816 1.524 . S
C817 C818 1.397 . S
C817 C822 1.363 . S
C818 H795 0.950 . S
C818 C817 1.397 . S
C818 C819 1.334 . S
C819 H796 0.950 . S
C819 C818 1.334 . S
C819 C820 1.287 . S
C820 C819 1.287 . S
C820 C821 1.524 . S
C820 H839 0.913 . S
C821 H797 0.950 . S
C821 C820 1.524 . S
C821 C822 1.415 . S
C822 H798 0.950 . S
C822 C817 1.363 . S
C822 C821 1.415 . S
C823 H799 0.951 1_455 S
C823 C824 1.366 . S
C823 C825 1.388 . S
C824 C823 1.366 . S
C824 C828 1.385 . S
C825 H800 0.951 1_455 S
C825 C823 1.388 . S
C825 C826 1.366 . S
C826 C825 1.366 . S
C826 C827 1.414 . S
C826 C829 1.499 . S
C827 H801 0.950 . S
C827 C826 1.414 . S
C827 C828 1.374 . S
C828 H802 0.950 . S
C828 C824 1.385 . S
C828 C827 1.374 . S
C829 C826 1.499 . S
C829 C830 1.373 . S
C829 C831 1.389 . S
C830 H803 0.950 . S
C830 C816 1.377 . S
C830 C829 1.373 . S
C831 C815 1.377 . S
C831 C829 1.389 . S
C831 C832 1.524 1_455 S
C832 C831 1.524 1_655 S
C832 C833 1.397 . S
C832 C837 1.363 . S
C833 H804 0.950 1_655 S
C833 C832 1.397 . S
C833 C834 1.334 . S
C834 H805 0.950 . S
C834 C833 1.334 . S
C834 C835 1.287 . S
C835 C834 1.287 . S
C835 C836 1.524 . S
C835 H838 0.999 . S
C836 H806 0.950 . S
C836 C835 1.524 . S
C836 C837 1.415 . S
C837 H807 0.950 . S
C837 C832 1.363 . S
C837 C836 1.415 . S
H838 C835 0.999 . S
H839 C820 0.913 . S
H840 C858 0.951 . S
H841 C860 0.951 . S
H842 C862 0.950 . S
H843 C863 0.950 . S
H844 C865 0.950 . S
H845 C868 0.950 . S
H846 C869 0.950 . S
H847 C871 0.950 . S
H848 C872 0.950 . S
H849 C873 0.951 . S
H850 C875 0.951 . S
H851 C877 0.950 . S
H852 C878 0.950 . S
H853 C880 0.950 . S
H854 C883 0.950 . S
H855 C884 0.950 . S
H856 C886 0.950 1_565 S
H857 C887 0.950 . S
C858 H840 0.951 . S
C858 C859 1.366 . S
C858 C860 1.388 . S
C859 C858 1.366 . S
C859 C863 1.385 . S
C860 H841 0.951 . S
C860 C858 1.388 . S
C860 C861 1.366 . S
C861 C860 1.366 . S
C861 C862 1.414 . S
C861 C864 1.499 . S
C862 H842 0.950 . S
C862 C861 1.414 . S
C862 C863 1.374 . S
C863 H843 0.950 . S
C863 C859 1.385 . S
C863 C862 1.374 . S
C864 C861 1.499 . S
C864 C865 1.373 . S
C864 C866 1.389 . S
C865 H844 0.950 . S
C865 C864 1.373 . S
C865 C881 1.377 . S
C866 C864 1.389 . S
C866 C867 1.524 . S
C866 C880 1.377 . S
C867 C866 1.524 . S
C867 C868 1.397 . S
C867 C872 1.363 . S
C868 H845 0.950 . S
C868 C867 1.397 . S
C868 C869 1.334 . S
C869 H846 0.950 . S
C869 C868 1.334 . S
C869 C870 1.287 . S
C870 C869 1.287 . S
C870 C871 1.524 . S
C870 H889 0.913 . S
C871 H847 0.950 . S
C871 C870 1.524 . S
C871 C872 1.415 . S
C872 H848 0.950 . S
C872 C867 1.363 . S
C872 C871 1.415 . S
C873 H849 0.951 . S
C873 C874 1.366 . S
C873 C875 1.388 . S
C874 C873 1.366 . S
C874 C878 1.385 . S
C875 H850 0.951 . S
C875 C873 1.388 . S
C875 C876 1.366 . S
C876 C875 1.366 . S
C876 C877 1.414 . S
C876 C879 1.499 . S
C877 H851 0.950 . S
C877 C876 1.414 . S
C877 C878 1.374 . S
C878 H852 0.950 . S
C878 C874 1.385 . S
C878 C877 1.374 . S
C879 C876 1.499 . S
C879 C880 1.373 . S
C879 C881 1.389 . S
C880 H853 0.950 . S
C880 C866 1.377 . S
C880 C879 1.373 . S
C881 C865 1.377 . S
C881 C879 1.389 . S
C881 C882 1.524 . S
C882 C881 1.524 . S
C882 C883 1.397 . S
C882 C887 1.363 . S
C883 H854 0.950 . S
C883 C882 1.397 . S
C883 C884 1.334 . S
C884 H855 0.950 . S
C884 C883 1.334 . S
C884 C885 1.287 . S
C885 C884 1.287 . S
C885 C886 1.524 . S
C885 H888 0.999 . S
C886 H856 0.950 1_545 S
C886 C885 1.524 . S
C886 C887 1.415 . S
C887 H857 0.950 . S
C887 C882 1.363 . S
C887 C886 1.415 . S
H888 C885 0.999 . S
H889 C870 0.913 . S
H890 C908 0.951 . S
H891 C910 0.951 . S
H892 C912 0.950 . S
H893 C913 0.950 . S
H894 C915 0.950 . S
H895 C918 0.950 . S
H896 C919 0.950 . S
H897 C921 0.950 . S
H898 C922 0.950 . S
H899 C923 0.951 . S
H900 C925 0.951 . S
H901 C927 0.950 . S
H902 C928 0.950 . S
H903 C930 0.950 . S
H904 C933 0.950 . S
H905 C934 0.950 . S
H906 C936 0.950 . S
H907 C937 0.950 . S
C908 H890 0.951 . S
C908 C909 1.366 . S
C908 C910 1.388 . S
C909 C908 1.366 . S
C909 C913 1.385 . S
C910 H891 0.951 . S
C910 C908 1.388 . S
C910 C911 1.366 . S
C911 C910 1.366 . S
C911 C912 1.414 . S
C911 C914 1.499 . S
C912 H892 0.950 . S
C912 C911 1.414 . S
C912 C913 1.374 . S
C913 H893 0.950 . S
C913 C909 1.385 . S
C913 C912 1.374 . S
C914 C911 1.499 . S
C914 C915 1.373 . S
C914 C916 1.389 . S
C915 H894 0.950 . S
C915 C914 1.373 . S
C915 C931 1.377 . S
C916 C914 1.389 . S
C916 C917 1.524 . S
C916 C930 1.377 . S
C917 C916 1.524 . S
C917 C918 1.397 . S
C917 C922 1.363 . S
C918 H895 0.950 . S
C918 C917 1.397 . S
C918 C919 1.334 . S
C919 H896 0.950 . S
C919 C918 1.334 . S
C919 C920 1.287 . S
C920 C919 1.287 . S
C920 C921 1.524 1_455 S
C920 H939 0.913 1_455 S
C921 H897 0.950 . S
C921 C920 1.524 1_655 S
C921 C922 1.415 1_655 S
C922 H898 0.950 . S
C922 C917 1.363 . S
C922 C921 1.415 1_455 S
C923 H899 0.951 . S
C923 C924 1.366 . S
C923 C925 1.388 . S
C924 C923 1.366 . S
C924 C928 1.385 . S
C925 H900 0.951 . S
C925 C923 1.388 . S
C925 C926 1.366 . S
C926 C925 1.366 . S
C926 C927 1.414 . S
C926 C929 1.499 . S
C927 H901 0.950 . S
C927 C926 1.414 . S
C927 C928 1.374 . S
C928 H902 0.950 . S
C928 C924 1.385 . S
C928 C927 1.374 . S
C929 C926 1.499 . S
C929 C930 1.373 . S
C929 C931 1.389 . S
C930 H903 0.950 . S
C930 C916 1.377 . S
C930 C929 1.373 . S
C931 C915 1.377 . S
C931 C929 1.389 . S
C931 C932 1.524 . S
C932 C931 1.524 . S
C932 C933 1.397 . S
C932 C937 1.363 . S
C933 H904 0.950 . S
C933 C932 1.397 . S
C933 C934 1.334 . S
C934 H905 0.950 . S
C934 C933 1.334 . S
C934 C935 1.287 . S
C935 C934 1.287 . S
C935 C936 1.524 . S
C935 H938 0.999 . S
C936 H906 0.950 . S
C936 C935 1.524 . S
C936 C937 1.415 . S
C937 H907 0.950 . S
C937 C932 1.363 . S
C937 C936 1.415 . S
H938 C935 0.999 . S
H939 C920 0.913 1_655 S
H940 C958 0.951 . S
H941 C960 0.951 . S
H942 C962 0.950 . S
H943 C963 0.950 . S
H944 C965 0.950 . S
H945 C968 0.950 . S
H946 C969 0.950 . S
H947 C971 0.950 . S
H948 C972 0.950 . S
H949 C973 0.951 . S
H950 C975 0.951 . S
H951 C977 0.950 . S
H952 C978 0.950 . S
H953 C980 0.950 . S
H954 C983 0.950 . S
H955 C984 0.950 . S
H956 C986 0.950 . S
H957 C987 0.950 . S
C958 H940 0.951 . S
C958 C959 1.366 . S
C958 C960 1.388 . S
C959 C958 1.366 . S
C959 C963 1.385 . S
C960 H941 0.951 . S
C960 C958 1.388 . S
C960 C961 1.366 . S
C961 C960 1.366 . S
C961 C962 1.414 . S
C961 C964 1.499 . S
C962 H942 0.950 . S
C962 C961 1.414 . S
C962 C963 1.374 . S
C963 H943 0.950 . S
C963 C959 1.385 . S
C963 C962 1.374 . S
C964 C961 1.499 . S
C964 C965 1.373 . S
C964 C966 1.389 . S
C965 H944 0.950 . S
C965 C964 1.373 . S
C965 C981 1.377 . S
C966 C964 1.389 . S
C966 C967 1.524 . S
C966 C980 1.377 . S
C967 C966 1.524 . S
C967 C968 1.397 1_655 S
C967 C972 1.363 . S
C968 H945 0.950 . S
C968 C967 1.397 1_455 S
C968 C969 1.334 . S
C969 H946 0.950 . S
C969 C968 1.334 . S
C969 C970 1.287 . S
C970 C969 1.287 . S
C970 C971 1.524 . S
C970 H989 0.913 . S
C971 H947 0.950 . S
C971 C970 1.524 . S
C971 C972 1.415 1_455 S
C972 H948 0.950 . S
C972 C967 1.363 . S
C972 C971 1.415 1_655 S
C973 H949 0.951 . S
C973 C974 1.366 . S
C973 C975 1.388 . S
C974 C973 1.366 . S
C974 C978 1.385 . S
C975 H950 0.951 . S
C975 C973 1.388 . S
C975 C976 1.366 . S
C976 C975 1.366 . S
C976 C977 1.414 . S
C976 C979 1.499 . S
C977 H951 0.950 . S
C977 C976 1.414 . S
C977 C978 1.374 . S
C978 H952 0.950 . S
C978 C974 1.385 . S
C978 C977 1.374 . S
C979 C976 1.499 . S
C979 C980 1.373 . S
C979 C981 1.389 . S
C980 H953 0.950 . S
C980 C966 1.377 . S
C980 C979 1.373 . S
C981 C965 1.377 . S
C981 C979 1.389 . S
C981 C982 1.524 . S
C982 C981 1.524 . S
C982 C983 1.397 . S
C982 C987 1.363 . S
C983 H954 0.950 . S
C983 C982 1.397 . S
C983 C984 1.334 . S
C984 H955 0.950 . S
C984 C983 1.334 . S
C984 C985 1.284 . S
C985 C984 1.284 . S
C985 C986 1.526 1_545 S
C985 H988 1.001 1_545 S
C986 H956 0.950 . S
C986 C985 1.526 1_565 S
C986 C987 1.415 1_565 S
C987 H957 0.950 . S
C987 C982 1.363 . S
C987 C986 1.415 1_545 S
H988 C985 1.001 1_565 S
H989 C970 0.913 . S
H990 C1008 0.951 . S
H991 C1010 0.951 . S
H992 C1012 0.950 . S
H993 C1013 0.950 . S
H994 C1015 0.950 . S
H995 C1018 0.950 . S
H996 C1019 0.950 . S
H997 C1021 0.950 . S
H998 C1022 0.950 . S
H999 C1023 0.951 . S
H1000 C1025 0.951 . S
H1001 C1027 0.950 . S
H1002 C1028 0.950 . S
H1003 C1030 0.950 . S
H1004 C1033 0.950 . S
H1005 C1034 0.950 . S
H1006 C1036 0.950 . S
H1007 C1037 0.950 . S
C1008 H990 0.951 . S
C1008 C1009 1.366 . S
C1008 C1010 1.388 . S
C1009 C1008 1.366 . S
C1009 C1013 1.385 . S
C1010 H991 0.951 . S
C1010 C1008 1.388 . S
C1010 C1011 1.366 . S
C1011 C1010 1.366 . S
C1011 C1012 1.414 . S
C1011 C1014 1.499 . S
C1012 H992 0.950 . S
C1012 C1011 1.414 . S
C1012 C1013 1.374 . S
C1013 H993 0.950 . S
C1013 C1009 1.385 . S
C1013 C1012 1.374 . S
C1014 C1011 1.499 . S
C1014 C1015 1.373 . S
C1014 C1016 1.389 . S
C1015 H994 0.950 . S
C1015 C1014 1.373 . S
C1015 C1031 1.377 . S
C1016 C1014 1.389 . S
C1016 C1017 1.524 . S
C1016 C1030 1.377 . S
C1017 C1016 1.524 . S
C1017 C1018 1.397 . S
C1017 C1022 1.363 . S
C1018 H995 0.950 . S
C1018 C1017 1.397 . S
C1018 C1019 1.334 . S
C1019 H996 0.950 . S
C1019 C1018 1.334 . S
C1019 C1020 1.287 . S
C1020 C1019 1.287 . S
C1020 C1021 1.524 . S
C1020 H1039 0.913 . S
C1021 H997 0.950 . S
C1021 C1020 1.524 . S
C1021 C1022 1.415 . S
C1022 H998 0.950 . S
C1022 C1017 1.363 . S
C1022 C1021 1.415 . S
C1023 H999 0.951 . S
C1023 C1024 1.366 . S
C1023 C1025 1.388 . S
C1024 C1023 1.366 . S
C1024 C1028 1.385 . S
C1025 H1000 0.951 . S
C1025 C1023 1.388 . S
C1025 C1026 1.366 . S
C1026 C1025 1.366 . S
C1026 C1027 1.414 . S
C1026 C1029 1.499 . S
C1027 H1001 0.950 . S
C1027 C1026 1.414 . S
C1027 C1028 1.374 . S
C1028 H1002 0.950 . S
C1028 C1024 1.385 . S
C1028 C1027 1.374 . S
C1029 C1026 1.499 . S
C1029 C1030 1.373 . S
C1029 C1031 1.389 . S
C1030 H1003 0.950 . S
C1030 C1016 1.377 . S
C1030 C1029 1.373 . S
C1031 C1015 1.377 . S
C1031 C1029 1.389 . S
C1031 C1032 1.524 . S
C1032 C1031 1.524 . S
C1032 C1033 1.397 . S
C1032 C1037 1.363 . S
C1033 H1004 0.950 . S
C1033 C1032 1.397 . S
C1033 C1034 1.334 . S
C1034 H1005 0.950 . S
C1034 C1033 1.334 . S
C1034 C1035 1.287 . S
C1035 C1034 1.287 . S
C1035 C1036 1.524 . S
C1035 H1038 0.999 . S
C1036 H1006 0.950 . S
C1036 C1035 1.524 . S
C1036 C1037 1.415 . S
C1037 H1007 0.950 . S
C1037 C1032 1.363 . S
C1037 C1036 1.415 . S
H1038 C1035 0.999 . S
H1039 C1020 0.913 . S
H1040 C1058 0.951 . S
H1041 C1060 0.951 . S
H1042 C1062 0.950 . S
H1043 C1063 0.950 . S
H1044 C1065 0.950 . S
H1045 C1068 0.950 . S
H1046 C1069 0.950 . S
H1047 C1071 0.950 . S
H1048 C1072 0.950 . S
H1049 C1073 0.951 . S
H1050 C1075 0.951 . S
H1051 C1077 0.950 . S
H1052 C1078 0.950 . S
H1053 C1080 0.950 . S
H1054 C1083 0.950 . S
H1055 C1084 0.950 . S
H1056 C1086 0.950 1_545 S
H1057 C1087 0.950 1_655 S
C1058 H1040 0.951 . S
C1058 C1059 1.366 . S
C1058 C1060 1.388 . S
C1059 C1058 1.366 . S
C1059 C1063 1.385 . S
C1060 H1041 0.951 . S
C1060 C1058 1.388 . S
C1060 C1061 1.366 . S
C1061 C1060 1.366 . S
C1061 C1062 1.414 . S
C1061 C1064 1.499 . S
C1062 H1042 0.950 . S
C1062 C1061 1.414 . S
C1062 C1063 1.374 . S
C1063 H1043 0.950 . S
C1063 C1059 1.385 . S
C1063 C1062 1.374 . S
C1064 C1061 1.499 . S
C1064 C1065 1.373 . S
C1064 C1066 1.389 . S
C1065 H1044 0.950 . S
C1065 C1064 1.373 . S
C1065 C1081 1.377 . S
C1066 C1064 1.389 . S
C1066 C1067 1.524 . S
C1066 C1080 1.377 . S
C1067 C1066 1.524 . S
C1067 C1068 1.397 . S
C1067 C1072 1.363 . S
C1068 H1045 0.950 . S
C1068 C1067 1.397 . S
C1068 C1069 1.334 . S
C1069 H1046 0.950 . S
C1069 C1068 1.334 . S
C1069 C1070 1.287 . S
C1070 C1069 1.287 . S
C1070 C1071 1.524 . S
C1070 H1089 0.913 . S
C1071 H1047 0.950 . S
C1071 C1070 1.524 . S
C1071 C1072 1.415 . S
C1072 H1048 0.950 . S
C1072 C1067 1.363 . S
C1072 C1071 1.415 . S
C1073 H1049 0.951 . S
C1073 C1074 1.366 . S
C1073 C1075 1.388 . S
C1074 C1073 1.366 . S
C1074 C1078 1.385 . S
C1075 H1050 0.951 . S
C1075 C1073 1.388 . S
C1075 C1076 1.366 . S
C1076 C1075 1.366 . S
C1076 C1077 1.414 . S
C1076 C1079 1.499 . S
C1077 H1051 0.950 . S
C1077 C1076 1.414 . S
C1077 C1078 1.374 . S
C1078 H1052 0.950 . S
C1078 C1074 1.385 . S
C1078 C1077 1.374 . S
C1079 C1076 1.499 . S
C1079 C1080 1.373 . S
C1079 C1081 1.389 . S
C1080 H1053 0.950 . S
C1080 C1066 1.377 . S
C1080 C1079 1.373 . S
C1081 C1065 1.377 . S
C1081 C1079 1.389 . S
C1081 C1082 1.524 . S
C1082 C1081 1.524 . S
C1082 C1083 1.397 1_655 S
C1082 C1087 1.363 1_655 S
C1083 H1054 0.950 . S
C1083 C1082 1.397 1_455 S
C1083 C1084 1.334 . S
C1084 H1055 0.950 . S
C1084 C1083 1.334 . S
C1084 C1085 1.287 . S
C1085 C1084 1.287 . S
C1085 C1086 1.524 . S
C1085 H1088 0.999 . S
C1086 H1056 0.950 1_565 S
C1086 C1085 1.524 . S
C1086 C1087 1.415 . S
C1087 H1057 0.950 1_455 S
C1087 C1082 1.363 1_455 S
C1087 C1086 1.415 . S
H1088 C1085 0.999 . S
H1089 C1070 0.913 . S
H1090 C1108 0.951 . S
H1091 C1110 0.951 . S
H1092 C1112 0.950 . S
H1093 C1113 0.950 . S
H1094 C1115 0.950 . S
H1095 C1118 0.950 . S
H1096 C1119 0.950 . S
H1097 C1121 0.950 . S
H1098 C1122 0.950 . S
H1099 C1123 0.951 . S
H1100 C1125 0.951 . S
H1101 C1127 0.950 . S
H1102 C1128 0.950 . S
H1103 C1130 0.950 . S
H1104 C1133 0.950 1_545 S
H1105 C1134 0.950 . S
H1106 C1136 0.950 1_655 S
H1107 C1137 0.950 . S
C1108 H1090 0.951 . S
C1108 C1109 1.366 . S
C1108 C1110 1.388 . S
C1109 C1108 1.366 . S
C1109 C1113 1.385 . S
C1110 H1091 0.951 . S
C1110 C1108 1.388 . S
C1110 C1111 1.366 . S
C1111 C1110 1.366 . S
C1111 C1112 1.414 . S
C1111 C1114 1.499 . S
C1112 H1092 0.950 . S
C1112 C1111 1.414 . S
C1112 C1113 1.374 . S
C1113 H1093 0.950 . S
C1113 C1109 1.385 . S
C1113 C1112 1.374 . S
C1114 C1111 1.499 . S
C1114 C1115 1.373 . S
C1114 C1116 1.389 . S
C1115 H1094 0.950 . S
C1115 C1114 1.373 . S
C1115 C1131 1.377 . S
C1116 C1114 1.389 . S
C1116 C1117 1.524 . S
C1116 C1130 1.377 . S
C1117 C1116 1.524 . S
C1117 C1118 1.397 . S
C1117 C1122 1.363 . S
C1118 H1095 0.950 . S
C1118 C1117 1.397 . S
C1118 C1119 1.334 . S
C1119 H1096 0.950 . S
C1119 C1118 1.334 . S
C1119 C1120 1.287 . S
C1120 C1119 1.287 . S
C1120 C1121 1.524 . S
C1120 H1139 0.913 . S
C1121 H1097 0.950 . S
C1121 C1120 1.524 . S
C1121 C1122 1.415 . S
C1122 H1098 0.950 . S
C1122 C1117 1.363 . S
C1122 C1121 1.415 . S
C1123 H1099 0.951 . S
C1123 C1124 1.366 . S
C1123 C1125 1.388 . S
C1124 C1123 1.366 . S
C1124 C1128 1.385 . S
C1125 H1100 0.951 . S
C1125 C1123 1.388 . S
C1125 C1126 1.366 . S
C1126 C1125 1.366 . S
C1126 C1127 1.414 . S
C1126 C1129 1.499 . S
C1127 H1101 0.950 . S
C1127 C1126 1.414 . S
C1127 C1128 1.374 . S
C1128 H1102 0.950 . S
C1128 C1124 1.385 . S
C1128 C1127 1.374 . S
C1129 C1126 1.499 . S
C1129 C1130 1.373 . S
C1129 C1131 1.389 . S
C1130 H1103 0.950 . S
C1130 C1116 1.377 . S
C1130 C1129 1.373 . S
C1131 C1115 1.377 . S
C1131 C1129 1.389 . S
C1131 C1132 1.524 . S
C1132 C1131 1.524 . S
C1132 C1133 1.397 . S
C1132 C1137 1.363 . S
C1133 H1104 0.950 1_565 S
C1133 C1132 1.397 . S
C1133 C1134 1.334 1_565 S
C1134 H1105 0.950 . S
C1134 C1133 1.334 1_545 S
C1134 C1135 1.287 . S
C1135 C1134 1.287 . S
C1135 C1136 1.524 1_545 S
C1135 H1138 0.999 . S
C1136 H1106 0.950 1_455 S
C1136 C1135 1.524 1_565 S
C1136 C1137 1.415 . S
C1137 H1107 0.950 . S
C1137 C1132 1.363 . S
C1137 C1136 1.415 . S
H1138 C1135 0.999 . S
H1139 C1120 0.913 . S
C259 C122 0.914 . S
C274 C2 0.913 . S
C309 C162 0.912 . S
C324 C42 0.915 . S
C359 C202 0.914 . S
C374 C82 0.911 . S
C409 C26 0.480 . S
C424 C97 0.576 . S
C459 C57 0.577 . S
C474 C146 0.480 . S
C509 C106 0.481 . S
C524 C177 0.572 . S
C559 C137 0.575 . S
C574 C226 0.483 . S
C609 C186 0.479 . S
C624 C17 0.573 . S
C659 C217 0.574 . S
C674 C66 0.482 . S
C709 C23 0.490 . S
C724 C143 0.490 . S
C759 C63 0.488 . S
C774 C183 0.491 . S
C809 C103 0.493 . S
C824 C223 0.490 . S
C859 C24 4.000 . S
C874 C64 4.000 . S
C909 C53 3.598 . S
C924 C93 3.598 . S
C959 C104 4.001 1_655 S
C974 C144 4.001 . S
C1009 C133 3.599 . S
C1024 C173 3.599 . S
C1059 C184 4.001 . S
C1074 C224 4.001 1_655 S
C1109 C213 3.599 . S
C1124 C13 3.600 . S
