# Generated by pormake.
# Topology wjh, (4)-cn, num edge types: 1
# Building blocks:
#     Node 0, Type 0, BuildingBlock: AZAVOO_clean_sbu_0, # of connection points: 4
#     Node 1, Type 0, BuildingBlock: AZAVOO_clean_sbu_0, # of connection points: 4
#     Node 2, Type 0, BuildingBlock: AZAVOO_clean_sbu_0, # of connection points: 4
#     Node 3, Type 0, BuildingBlock: AZAVOO_clean_sbu_0, # of connection points: 4
#     Node 4, Type 0, BuildingBlock: AZAVOO_clean_sbu_0, # of connection points: 4
#     Node 5, Type 0, BuildingBlock: AZAVOO_clean_sbu_0, # of connection points: 4
#     Node 6, Type 0, BuildingBlock: AZAVOO_clean_sbu_0, # of connection points: 4
#     Node 7, Type 0, BuildingBlock: AZAVOO_clean_sbu_0, # of connection points: 4
#     Node 8, Type 0, BuildingBlock: AZAVOO_clean_sbu_0, # of connection points: 4
#     Node 9, Type 0, BuildingBlock: AZAVOO_clean_sbu_0, # of connection points: 4
#     Node 10, Type 0, BuildingBlock: AZAVOO_clean_sbu_0, # of connection points: 4
#     Node 11, Type 0, BuildingBlock: AZAVOO_clean_sbu_0, # of connection points: 4
#     Edge 12, Type (0, 0), BuildingBlock: KIFKEQ_clean_linker_1, # of connection points: 2
#     Edge 13, Type (0, 0), BuildingBlock: KIFKEQ_clean_linker_1, # of connection points: 2
#     Edge 14, Type (0, 0), BuildingBlock: KIFKEQ_clean_linker_1, # of connection points: 2
#     Edge 15, Type (0, 0), BuildingBlock: KIFKEQ_clean_linker_1, # of connection points: 2
#     Edge 16, Type (0, 0), BuildingBlock: KIFKEQ_clean_linker_1, # of connection points: 2
#     Edge 17, Type (0, 0), BuildingBlock: KIFKEQ_clean_linker_1, # of connection points: 2
#     Edge 18, Type (0, 0), BuildingBlock: KIFKEQ_clean_linker_1, # of connection points: 2
#     Edge 19, Type (0, 0), BuildingBlock: KIFKEQ_clean_linker_1, # of connection points: 2
#     Edge 20, Type (0, 0), BuildingBlock: KIFKEQ_clean_linker_1, # of connection points: 2
#     Edge 21, Type (0, 0), BuildingBlock: KIFKEQ_clean_linker_1, # of connection points: 2
#     Edge 22, Type (0, 0), BuildingBlock: KIFKEQ_clean_linker_1, # of connection points: 2
#     Edge 23, Type (0, 0), BuildingBlock: KIFKEQ_clean_linker_1, # of connection points: 2
#     Edge 24, Type (0, 0), BuildingBlock: KIFKEQ_clean_linker_1, # of connection points: 2
#     Edge 25, Type (0, 0), BuildingBlock: KIFKEQ_clean_linker_1, # of connection points: 2
#     Edge 26, Type (0, 0), BuildingBlock: KIFKEQ_clean_linker_1, # of connection points: 2
#     Edge 27, Type (0, 0), BuildingBlock: KIFKEQ_clean_linker_1, # of connection points: 2
#     Edge 28, Type (0, 0), BuildingBlock: KIFKEQ_clean_linker_1, # of connection points: 2
#     Edge 29, Type (0, 0), BuildingBlock: KIFKEQ_clean_linker_1, # of connection points: 2
#     Edge 30, Type (0, 0), BuildingBlock: KIFKEQ_clean_linker_1, # of connection points: 2
#     Edge 31, Type (0, 0), BuildingBlock: KIFKEQ_clean_linker_1, # of connection points: 2
#     Edge 32, Type (0, 0), BuildingBlock: KIFKEQ_clean_linker_1, # of connection points: 2
#     Edge 33, Type (0, 0), BuildingBlock: KIFKEQ_clean_linker_1, # of connection points: 2
#     Edge 34, Type (0, 0), BuildingBlock: KIFKEQ_clean_linker_1, # of connection points: 2
#     Edge 35, Type (0, 0), BuildingBlock: KIFKEQ_clean_linker_1, # of connection points: 2
# Relax obj value: 0.170
# Max RMSD: 0.150
# Mean RMSD: 0.149
data_MOF--net-wjh--node1-AZAVOO_clean_sbu_0--edge1-KIFKEQ_clean_linker_1
_symmetry_space_group_name_H-M    P1
_symmetry_Int_Tables_number       1
_symmetry_cell_setting            triclinic
loop_
_symmetry_equiv_pos_as_xyz
'x, y, z'
_cell_length_a     64.716625
_cell_length_b     64.821476
_cell_length_c     24.603154
_cell_angle_alpha  89.944744
_cell_angle_beta   90.199728
_cell_angle_gamma 120.0977
loop_
_atom_site_label
_atom_site_type_symbol
_atom_site_fract_x
_atom_site_fract_y
_atom_site_fract_z
_atom_type_partial_charge
Mg0 Mg 0.4937 0.1309 0.06377 0.0
O1 O 0.51478 0.13007 0.13871 0.0
O2 O 0.529 0.10589 0.11861 0.0
Mg3 Mg 0.51682 0.09105 0.03354 0.0
C4 C 0.52676 0.11994 0.1512 0.0
C5 C 0.47482 0.16475 0.08781 0.0
O6 O 0.45678 0.14747 0.06133 0.0
O7 O 0.52826 0.15466 0.01889 0.0
O8 O 0.54051 0.12881 -2e-05 0.0
O9 O 0.46039 0.09995 0.09501 0.0
O10 O 0.48623 0.09684 0.04205 0.0
C11 C 0.5432 0.14971 -0.00226 0.0
C12 C 0.46694 0.08651 0.07047 0.0
O13 O 0.49333 0.1632 0.09667 0.0
Mg14 Mg 0.34947 0.48908 0.20916 0.0
O15 O 0.37264 0.50974 0.28315 0.0
O16 O 0.41062 0.52193 0.26193 0.0
Mg17 Mg 0.41198 0.51114 0.1748 0.0
C18 C 0.39484 0.52028 0.29536 0.0
C19 C 0.31008 0.48068 0.29254 0.0
O20 O 0.32121 0.47183 0.32035 0.0
O21 O 0.36026 0.5237 0.16504 0.0
O22 O 0.3982 0.53566 0.14439 0.0
O23 O 0.347 0.45568 0.23956 0.0
O24 O 0.37537 0.48095 0.18447 0.0
C25 C 0.38008 0.53859 0.14343 0.0
C26 C 0.36668 0.46193 0.21378 0.0
O27 O 0.3177 0.48941 0.24575 0.0
Mg28 Mg 0.85649 0.35251 0.37639 0.0
O29 O 0.85608 0.37327 0.45164 0.0
O30 O 0.8772 0.41221 0.43208 0.0
Mg31 Mg 0.89301 0.41616 0.34761 0.0
C32 C 0.8643 0.39512 0.46426 0.0
C33 C 0.82441 0.29936 0.41052 0.0
O34 O 0.84297 0.2982 0.39313 0.0
O35 O 0.8313 0.36143 0.33155 0.0
O36 O 0.85511 0.39999 0.31237 0.0
O37 O 0.88837 0.35228 0.40833 0.0
O38 O 0.88994 0.38072 0.35567 0.0
C39 C 0.83484 0.38081 0.31006 0.0
C40 C 0.90104 0.37272 0.38471 0.0
O41 O 0.8249 0.31917 0.40929 0.0
Mg42 Mg 0.48608 0.85856 0.55261 0.0
O43 O 0.46559 0.86138 0.62617 0.0
O44 O 0.45429 0.88775 0.60403 0.0
Mg45 Mg 0.46541 0.89996 0.51714 0.0
C46 C 0.45546 0.87342 0.63779 0.0
C47 C 0.50331 0.82393 0.58095 0.0
O48 O 0.52132 0.84041 0.55302 0.0
O49 O 0.45135 0.83519 0.50779 0.0
O50 O 0.4403 0.86179 0.4866 0.0
O51 O 0.5198 0.88908 0.58364 0.0
O52 O 0.495 0.89279 0.52784 0.0
C53 C 0.43682 0.84056 0.48577 0.0
C54 C 0.51402 0.90281 0.55751 0.0
O55 O 0.48517 0.82617 0.58903 0.0
Mg56 Mg 0.62021 0.49343 0.73584 0.0
O57 O 0.59888 0.47199 0.81077 0.0
O58 O 0.56016 0.45632 0.79039 0.0
Mg59 Mg 0.55668 0.468 0.70546 0.0
C60 C 0.57678 0.45927 0.82307 0.0
C61 C 0.6698 0.49888 0.73396 0.0
O62 O 0.66613 0.50145 0.68246 0.0
O63 O 0.61047 0.45911 0.69097 0.0
O64 O 0.57197 0.44546 0.67192 0.0
O65 O 0.62126 0.52615 0.76684 0.0
O66 O 0.59263 0.49944 0.71406 0.0
C67 C 0.59071 0.44362 0.66978 0.0
C68 C 0.60103 0.51877 0.7422 0.0
O69 O 0.65372 0.49518 0.76835 0.0
Mg70 Mg 0.11745 0.6294 0.91699 0.0
O71 O 0.11994 0.6082 0.98931 0.0
O72 O 0.09928 0.56953 0.96771 0.0
Mg73 Mg 0.08343 0.56596 0.88328 0.0
C74 C 0.11223 0.5863 0.00073 0.0
C75 C 0.15062 0.6833 0.93772 0.0
O76 O 0.13516 0.68393 0.904 0.0
O77 O 0.14357 0.62326 0.86819 0.0
O78 O 0.12127 0.58453 0.84766 0.0
O79 O 0.08437 0.62667 0.95087 0.0
O80 O 0.0848 0.60043 0.89424 0.0
C81 C 0.14086 0.60439 0.8456 0.0
C82 C 0.07271 0.60678 0.9244 0.0
O83 O 0.14789 0.66325 0.9519 0.0
Mg84 Mg 0.84856 0.4842 0.93001 0.0
O85 O 0.85032 0.46516 0.85289 0.0
O86 O 0.87217 0.44814 0.87282 0.0
Mg87 Mg 0.88665 0.45874 0.95886 0.0
C88 C 0.85943 0.45234 0.84002 0.0
C89 C 0.81857 0.49913 0.85663 0.0
O90 O 0.83956 0.51314 0.83477 0.0
O91 O 0.82357 0.44883 0.97071 0.0
O92 O 0.84851 0.43546 -0.00947 0.0
O93 O 0.88065 0.51782 0.90393 0.0
O94 O 0.88195 0.49017 0.95403 0.0
C95 C 0.82778 0.4333 -0.00841 0.0
C96 C 0.89324 0.51015 0.92846 0.0
O97 O 0.81684 0.48551 0.89558 0.0
Mg98 Mg 0.35151 0.86287 0.0978 0.0
O99 O 0.37492 0.8644 0.02567 0.0
O100 O 0.41301 0.88847 0.04983 0.0
Mg101 Mg 0.41412 0.90052 0.13694 0.0
C102 C 0.39725 0.87506 0.01521 0.0
C103 C 0.29953 0.83182 0.059 0.0
O104 O 0.29873 0.84996 0.0805 0.0
O105 O 0.35985 0.83738 0.143 0.0
O106 O 0.39798 0.8618 0.16611 0.0
O107 O 0.35169 0.89533 0.06755 0.0
O108 O 0.37836 0.89603 0.125 0.0
C109 C 0.37916 0.84122 0.1659 0.0
C110 C 0.3711 0.9076 0.09551 0.0
O111 O 0.31921 0.83194 0.05881 0.0
Mg112 Mg 0.48068 0.35408 0.28211 0.0
O113 O 0.50302 0.37584 0.20858 0.0
O114 O 0.51738 0.41437 0.22805 0.0
Mg115 Mg 0.50431 0.41725 0.31168 0.0
C116 C 0.51535 0.39793 0.19617 0.0
C117 C 0.47148 0.31182 0.20571 0.0
O118 O 0.46178 0.32136 0.17518 0.0
O119 O 0.51448 0.36454 0.33023 0.0
O120 O 0.52729 0.40286 0.34816 0.0
O121 O 0.44822 0.35224 0.24654 0.0
O122 O 0.4734 0.38106 0.30118 0.0
C123 C 0.52951 0.3844 0.35163 0.0
C124 C 0.45477 0.37243 0.27029 0.0
O125 O 0.48072 0.32134 0.25108 0.0
Mg126 Mg 0.12338 0.48896 0.45415 0.0
O127 O 0.12482 0.51323 0.38418 0.0
O128 O 0.10073 0.5274 0.40547 0.0
Mg129 Mg 0.08411 0.51238 0.48782 0.0
C130 C 0.11531 0.52592 0.37319 0.0
C131 C 0.16024 0.47297 0.43206 0.0
O132 O 0.14464 0.45482 0.46113 0.0
O133 O 0.14641 0.52089 0.50749 0.0
O134 O 0.12116 0.53383 0.52771 0.0
O135 O 0.09293 0.45794 0.4142 0.0
O136 O 0.089 0.48146 0.47329 0.0
C137 C 0.14162 0.53545 0.53108 0.0
C138 C 0.07916 0.46385 0.43961 0.0
O139 O 0.15635 0.48989 0.42147 0.0
Mg140 Mg 0.6294 0.12545 0.6136 0.0
O141 O 0.60817 0.12637 0.53905 0.0
O142 O 0.56938 0.1038 0.55865 0.0
Mg143 Mg 0.56575 0.08837 0.6433 0.0
C144 C 0.58613 0.1174 0.5264 0.0
C145 C 0.67435 0.15477 0.54137 0.0
O146 O 0.66603 0.13387 0.51794 0.0
O147 O 0.62059 0.15041 0.65948 0.0
O148 O 0.58193 0.12626 0.67777 0.0
O149 O 0.62942 0.09357 0.58083 0.0
O150 O 0.60126 0.0919 0.63435 0.0
C151 C 0.60101 0.14658 0.68052 0.0
C152 C 0.60909 0.08087 0.60484 0.0
O153 O 0.66307 0.15693 0.58103 0.0
Mg154 Mg 0.48522 0.62662 0.75651 0.0
O155 O 0.46403 0.60254 0.68425 0.0
O156 O 0.45116 0.56484 0.70896 0.0
Mg157 Mg 0.46219 0.5646 0.7966 0.0
C158 C 0.45302 0.5802 0.67396 0.0
C159 C 0.50417 0.67826 0.72004 0.0
O160 O 0.52274 0.6801 0.74627 0.0
O161 O 0.45091 0.61729 0.80073 0.0
O162 O 0.43851 0.57961 0.82468 0.0
O163 O 0.51834 0.62768 0.72791 0.0
O164 O 0.49269 0.60084 0.7852 0.0
C165 C 0.43593 0.5979 0.82387 0.0
C166 C 0.51178 0.60862 0.75654 0.0
O167 O 0.48541 0.65798 0.71613 0.0
H168 H 0.56033 0.10893 0.18442 0.0
H169 H 0.51889 0.14014 0.24096 0.0
H170 H 0.57671 0.11247 0.27524 0.0
H171 H 0.53554 0.14382 0.33218 0.0
H172 H 0.54234 0.109 0.49306 0.0
H173 H 0.5303 0.11375 0.40235 0.0
H174 H 0.60263 0.1417 0.34599 0.0
H175 H 0.6148 0.13681 0.43711 0.0
C176 C 0.55486 0.11676 0.21611 0.0
C177 C 0.53809 0.12402 0.20553 0.0
C178 C 0.56445 0.11899 0.26808 0.0
C179 C 0.55738 0.12838 0.31082 0.0
C180 C 0.54116 0.13633 0.30003 0.0
C181 C 0.5317 0.1343 0.24779 0.0
C182 C 0.55577 0.11635 0.46153 0.0
C183 C 0.5795 0.12229 0.47223 0.0
C184 C 0.54889 0.11927 0.40963 0.0
C185 C 0.5655 0.12804 0.36707 0.0
C186 C 0.5894 0.1347 0.378 0.0
C187 C 0.59637 0.13198 0.43017 0.0
H188 H 0.37159 0.53323 0.3691 0.0
H189 H 0.43584 0.52944 0.34672 0.0
H190 H 0.38486 0.54874 0.4615 0.0
H191 H 0.44861 0.54435 0.43877 0.0
H192 H 0.44246 0.5381 0.62671 0.0
H193 H 0.42751 0.52441 0.53502 0.0
H194 H 0.42528 0.58885 0.5051 0.0
H195 H 0.4408 0.60302 0.59708 0.0
C196 C 0.38848 0.53572 0.38382 0.0
C197 C 0.40267 0.53012 0.35066 0.0
C198 C 0.39608 0.54467 0.43641 0.0
C199 C 0.41768 0.54762 0.4569 0.0
C200 C 0.43184 0.54212 0.42378 0.0
C201 C 0.42453 0.53366 0.37108 0.0
C202 C 0.43867 0.54935 0.60087 0.0
C203 C 0.4429 0.5717 0.61909 0.0
C204 C 0.43018 0.54151 0.54839 0.0
C205 C 0.42531 0.55562 0.51333 0.0
C206 C 0.42884 0.57766 0.53171 0.0
C207 C 0.43782 0.58577 0.58407 0.0
H208 H 0.84571 0.40687 0.81184 0.0
H209 H 0.86535 0.47572 0.7447 0.0
H210 H 0.84233 0.39086 0.72076 0.0
H211 H 0.86434 0.46069 0.65361 0.0
H212 H 0.85053 0.42715 0.48972 0.0
H213 H 0.84476 0.4388 0.57992 0.0
H214 H 0.86424 0.3897 0.65112 0.0
H215 H 0.86767 0.37672 0.56068 0.0
C216 C 0.8494 0.41856 0.77723 0.0
C217 C 0.85578 0.44245 0.78486 0.0
C218 C 0.84777 0.40952 0.72492 0.0
C219 C 0.8534 0.42444 0.67908 0.0
C220 C 0.85938 0.44836 0.68723 0.0
C221 C 0.86017 0.45714 0.73953 0.0
C222 C 0.85317 0.41868 0.52496 0.0
C223 C 0.8595 0.40108 0.51863 0.0
C224 C 0.85014 0.42551 0.57681 0.0
C225 C 0.85426 0.4155 0.6236 0.0
C226 C 0.86033 0.39757 0.61666 0.0
C227 C 0.86253 0.39019 0.56475 0.0
H228 H 0.44744 0.90605 0.688 0.0
H229 H 0.44141 0.83715 0.71211 0.0
H230 H 0.43277 0.90456 0.77977 0.0
H231 H 0.42615 0.8356 0.80431 0.0
H232 H 0.37312 0.83988 0.93921 0.0
H233 H 0.38669 0.83752 0.84746 0.0
H234 H 0.45286 0.90299 0.87617 0.0
H235 H 0.43977 0.90524 0.96757 0.0
C236 C 0.44276 0.89047 0.71267 0.0
C237 C 0.44564 0.87173 0.69285 0.0
C238 C 0.43444 0.88969 0.7652 0.0
C239 C 0.42841 0.87 0.79877 0.0
C240 C 0.43065 0.85092 0.77885 0.0
C241 C 0.43946 0.85189 0.7264 0.0
C242 C 0.39062 0.85366 0.92598 0.0
C243 C 0.40535 0.87277 0.96056 0.0
C244 C 0.39838 0.85221 0.87377 0.0
C245 C 0.42074 0.87011 0.85512 0.0
C246 C 0.43551 0.88903 0.88977 0.0
C247 C 0.428 0.89025 0.94208 0.0
H248 H 0.54977 0.44228 0.16407 0.0
H249 H 0.50779 0.36962 0.10689 0.0
H250 H 0.56675 0.45491 0.0739 0.0
H251 H 0.52504 0.38239 0.01633 0.0
H252 H 0.53275 0.42422 0.85534 0.0
H253 H 0.52036 0.40745 0.94576 0.0
H254 H 0.59265 0.45125 0.00412 0.0
H255 H 0.60518 0.46829 0.91325 0.0
C256 C 0.54433 0.42893 0.1324 0.0
C257 C 0.5272 0.40497 0.14255 0.0
C258 C 0.55426 0.43617 0.08082 0.0
C259 C 0.54718 0.41966 0.03805 0.0
C260 C 0.53067 0.39553 0.04851 0.0
C261 C 0.52087 0.38822 0.10036 0.0
C262 C 0.5461 0.43019 0.88725 0.0
C263 C 0.56993 0.44781 0.87717 0.0
C264 C 0.53901 0.42038 0.93898 0.0
C265 C 0.55552 0.42806 0.98201 0.0
C266 C 0.57951 0.44514 0.97172 0.0
C267 C 0.58668 0.45483 0.9197 0.0
H268 H 0.10415 0.5596 0.34183 0.0
H269 H 0.13727 0.52009 0.28415 0.0
H270 H 0.10785 0.57654 0.25171 0.0
H271 H 0.14112 0.53732 0.19382 0.0
H272 H 0.10559 0.54309 0.03297 0.0
H273 H 0.1109 0.53132 0.12346 0.0
H274 H 0.13649 0.60302 0.18138 0.0
H275 H 0.13101 0.6149 0.09058 0.0
C276 C 0.11251 0.55475 0.31013 0.0
C277 C 0.12017 0.53826 0.3201 0.0
C278 C 0.1148 0.56464 0.25855 0.0
C279 C 0.12466 0.55817 0.21565 0.0
C280 C 0.13322 0.54244 0.22604 0.0
C281 C 0.1311 0.53266 0.27783 0.0
C282 C 0.11256 0.55645 0.06479 0.0
C283 C 0.11763 0.57989 0.05461 0.0
C284 C 0.1158 0.54973 0.11658 0.0
C285 C 0.12407 0.56623 0.15953 0.0
C286 C 0.12991 0.58988 0.14909 0.0
C287 C 0.12684 0.59668 0.09706 0.0
H288 H 0.45348 0.28659 0.11137 0.0
H289 H 0.48958 0.28782 0.2606 0.0
H290 H 0.45404 0.25081 0.08275 0.0
H291 H 0.48968 0.25194 0.2325 0.0
H292 H 0.51008 0.20454 0.13759 0.0
H293 H 0.509 0.24003 0.16504 0.0
H294 H 0.43635 0.20851 0.10655 0.0
H295 H 0.43757 0.17311 0.07794 0.0
C296 C 0.46146 0.2792 0.13811 0.0
C297 C 0.47156 0.29008 0.18813 0.0
C298 C 0.46164 0.25864 0.12187 0.0
C299 C 0.47196 0.24861 0.15534 0.0
C300 C 0.48192 0.25944 0.20546 0.0
C301 C 0.48174 0.27995 0.22166 0.0
C302 C 0.49385 0.20514 0.13064 0.0
C303 C 0.47391 0.18602 0.10561 0.0
C304 C 0.4932 0.22544 0.1466 0.0
C305 C 0.47258 0.22705 0.13801 0.0
C306 C 0.4526 0.20791 0.11307 0.0
C307 C 0.45326 0.18758 0.09702 0.0
H308 H 0.28896 0.46367 0.39126 0.0
H309 H 0.28218 0.49562 0.24287 0.0
H310 H 0.25286 0.46191 0.42625 0.0
H311 H 0.24595 0.49335 0.27728 0.0
H312 H 0.19718 0.50945 0.37793 0.0
H313 H 0.23373 0.51155 0.34632 0.0
H314 H 0.20972 0.4409 0.40961 0.0
H315 H 0.17326 0.43899 0.44251 0.0
C316 C 0.27976 0.47027 0.3661 0.0
C317 C 0.28845 0.47983 0.31437 0.0
C318 C 0.25901 0.46912 0.386 0.0
C319 C 0.24658 0.47751 0.35453 0.0
C320 C 0.25532 0.48707 0.30284 0.0
C321 C 0.27603 0.48825 0.28302 0.0
C322 C 0.19966 0.49435 0.38514 0.0
C323 C 0.1823 0.47402 0.41261 0.0
C324 C 0.22058 0.49552 0.3668 0.0
C325 C 0.22457 0.47636 0.3753 0.0
C326 C 0.20726 0.45606 0.40301 0.0
C327 C 0.18633 0.45491 0.42153 0.0
H328 H 0.69631 0.19987 0.58265 0.0
H329 H 0.70312 0.15674 0.45785 0.0
H330 H 0.73315 0.23431 0.55205 0.0
H331 H 0.73987 0.1915 0.42648 0.0
H332 H 0.8174 0.25427 0.42258 0.0
H333 H 0.78142 0.21887 0.45498 0.0
H334 H 0.74662 0.26052 0.47364 0.0
H335 H 0.78252 0.29582 0.44256 0.0
C336 C 0.70562 0.19775 0.54853 0.0
C337 C 0.69674 0.17559 0.52251 0.0
C338 C 0.72668 0.21753 0.53086 0.0
C339 C 0.73933 0.21563 0.48669 0.0
C340 C 0.73061 0.19343 0.46096 0.0
C341 C 0.70949 0.17359 0.47869 0.0
C342 C 0.80207 0.25584 0.43373 0.0
C343 C 0.80283 0.27784 0.43019 0.0
C344 C 0.78144 0.23556 0.45197 0.0
C345 C 0.76124 0.23695 0.46699 0.0
C346 C 0.76203 0.25896 0.46322 0.0
C347 C 0.78259 0.27917 0.44513 0.0
H348 H 0.46857 0.78625 0.63731 0.0
H349 H 0.5394 0.81392 0.57092 0.0
H350 H 0.46933 0.75116 0.67005 0.0
H351 H 0.53995 0.77859 0.60301 0.0
H352 H 0.54105 0.72432 0.72296 0.0
H353 H 0.54114 0.75976 0.6892 0.0
H354 H 0.46867 0.71584 0.63182 0.0
H355 H 0.46838 0.68047 0.66623 0.0
C356 C 0.48429 0.78483 0.62963 0.0
C357 C 0.50392 0.80284 0.60148 0.0
C358 C 0.48465 0.76466 0.64809 0.0
C359 C 0.50466 0.7621 0.63886 0.0
C360 C 0.52437 0.78019 0.61112 0.0
C361 C 0.524 0.80036 0.59254 0.0
C362 C 0.52516 0.72222 0.70299 0.0
C363 C 0.50468 0.69962 0.69747 0.0
C364 C 0.52527 0.7425 0.68345 0.0
C365 C 0.50487 0.74056 0.65813 0.0
C366 C 0.48452 0.71792 0.65192 0.0
C367 C 0.48442 0.69765 0.67135 0.0
H368 H 0.68333 0.49556 0.83729 0.0
H369 H 0.70675 0.50448 0.6702 0.0
H370 H 0.7198 0.49648 0.86606 0.0
H371 H 0.74305 0.50488 0.69898 0.0
H372 H 0.81585 0.5282 0.77953 0.0
H373 H 0.78023 0.52901 0.74968 0.0
H374 H 0.73717 0.471 0.8591 0.0
H375 H 0.77265 0.47051 0.8897 0.0
C376 C 0.69624 0.49767 0.80668 0.0
C377 C 0.69212 0.49987 0.75145 0.0
C378 C 0.71708 0.49807 0.82314 0.0
C379 C 0.73423 0.50062 0.78474 0.0
C380 C 0.73027 0.50313 0.72957 0.0
C381 C 0.70941 0.50276 0.71308 0.0
C382 C 0.79877 0.51562 0.79713 0.0
C383 C 0.79708 0.49937 0.83712 0.0
C384 C 0.77837 0.51602 0.77988 0.0
C385 C 0.75592 0.50016 0.80227 0.0
C386 C 0.75426 0.48375 0.84178 0.0
C387 C 0.7746 0.48338 0.85907 0.0
H388 H 0.18667 0.68765 0.00319 0.0
H389 H 0.1623 0.72922 0.91484 0.0
H390 H 0.22235 0.72413 0.03122 0.0
H391 H 0.19831 0.7658 0.94254 0.0
H392 H 0.25441 0.82535 0.05486 0.0
H393 H 0.21786 0.7897 0.0256 0.0
H394 H 0.25864 0.75554 0.98672 0.0
H395 H 0.29506 0.79092 0.0165 0.0
C396 C 0.1889 0.70457 -0.01021 0.0
C397 C 0.17169 0.70554 0.9566 0.0
C398 C 0.20943 0.72546 0.00558 0.0
C399 C 0.2132 0.74778 0.98865 0.0
C400 C 0.19579 0.74883 0.9564 0.0
C401 C 0.17524 0.72789 0.94041 0.0
C402 C 0.25558 0.81027 0.03983 0.0
C403 C 0.2776 0.8109 0.0383 0.0
C404 C 0.23467 0.78991 0.02288 0.0
C405 C 0.2354 0.7698 0.00431 0.0
C406 C 0.25749 0.77064 0.00172 0.0
C407 C 0.27837 0.79097 0.01847 0.0
H408 H 0.63775 0.18033 0.74176 0.0
H409 H 0.56367 0.1534 0.70063 0.0
H410 H 0.63292 0.19886 0.82346 0.0
H411 H 0.55879 0.17172 0.78153 0.0
H412 H 0.54231 0.18421 0.93558 0.0
H413 H 0.56581 0.20111 0.8532 0.0
H414 H 0.60987 0.17095 0.89696 0.0
H415 H 0.58653 0.15424 0.97853 0.0
C416 C 0.62075 0.17933 0.74879 0.0
C417 C 0.60082 0.16475 0.71613 0.0
C418 C 0.618 0.18996 0.79556 0.0
C419 C 0.59533 0.18618 0.80985 0.0
C420 C 0.5765 0.17494 0.77213 0.0
C421 C 0.57919 0.16414 0.72588 0.0
C422 C 0.55776 0.18223 0.92882 0.0
C423 C 0.56217 0.16724 0.96218 0.0
C424 C 0.57121 0.19191 0.88163 0.0
C425 C 0.5892 0.18675 0.86768 0.0
C426 C 0.59606 0.1752 0.90608 0.0
C427 C 0.58251 0.16535 0.95275 0.0
H428 H 0.43918 0.63434 0.88555 0.0
H429 H 0.39186 0.56041 0.84472 0.0
H430 H 0.41736 0.62885 0.97012 0.0
H431 H 0.37002 0.55494 0.92833 0.0
H432 H 0.34379 0.53848 0.08614 0.0
H433 H 0.34894 0.56205 0.00452 0.0
H434 H 0.4244 0.6048 0.03944 0.0
H435 H 0.41926 0.58129 0.1202 0.0
C436 C 0.42333 0.61728 0.89317 0.0
C437 C 0.41758 0.59756 0.85968 0.0
C438 C 0.41086 0.61414 0.94165 0.0
C439 C 0.39244 0.59133 0.95664 0.0
C440 C 0.3842 0.57274 0.91832 0.0
C441 C 0.39683 0.57578 0.87041 0.0
C442 C 0.36125 0.55364 0.07768 0.0
C443 C 0.38131 0.55763 0.10832 0.0
C444 C 0.36418 0.56714 0.03096 0.0
C445 C 0.38713 0.58487 0.0148 0.0
C446 C 0.40645 0.59124 0.05049 0.0
C447 C 0.40359 0.57759 0.09663 0.0
H448 H 0.82184 0.38945 0.01147 0.0
H449 H 0.79363 0.43525 0.05261 0.0
H450 H 0.80584 0.36737 0.09487 0.0
H451 H 0.77745 0.41302 0.13677 0.0
H452 H 0.79977 0.34312 0.25347 0.0
H453 H 0.77968 0.34637 0.17244 0.0
H454 H 0.80847 0.42136 0.2056 0.0
H455 H 0.82835 0.41807 0.28584 0.0
C456 C 0.81117 0.39403 0.03718 0.0
C457 C 0.80975 0.41456 0.0268 0.0
C458 C 0.80174 0.38121 0.08499 0.0
C459 C 0.79112 0.38903 0.12346 0.0
C460 C 0.78602 0.40695 0.10836 0.0
C461 C 0.79528 0.41967 0.06009 0.0
C462 C 0.80089 0.36003 0.24468 0.0
C463 C 0.8163 0.38058 0.27462 0.0
C464 C 0.78933 0.36186 0.19831 0.0
C465 C 0.793 0.38422 0.18171 0.0
C466 C 0.80528 0.40384 0.21685 0.0
C467 C 0.81699 0.40207 0.26268 0.0
H468 H 0.39432 0.83759 0.46308 0.0
H469 H 0.43641 0.80462 0.42706 0.0
H470 H 0.37086 0.82024 0.38152 0.0
H471 H 0.41289 0.78721 0.34461 0.0
H472 H 0.41608 0.83382 0.18737 0.0
H473 H 0.42076 0.81629 0.27016 0.0
H474 H 0.34681 0.79042 0.3102 0.0
H475 H 0.34213 0.80798 0.22647 0.0
C476 C 0.39784 0.82573 0.43888 0.0
C477 C 0.41762 0.82307 0.45028 0.0
C478 C 0.38422 0.81553 0.39224 0.0
C479 C 0.39046 0.80286 0.35577 0.0
C480 C 0.40792 0.79718 0.37162 0.0
C481 C 0.42139 0.80717 0.41883 0.0
C482 C 0.40053 0.82338 0.21251 0.0
C483 C 0.379 0.82288 0.20158 0.0
C484 C 0.4031 0.8131 0.25991 0.0
C485 C 0.38429 0.80255 0.29756 0.0
C486 C 0.36169 0.79877 0.28227 0.0
C487 C 0.35902 0.80882 0.23429 0.0
H488 H 0.62661 0.44613 0.60695 0.0
H489 H 0.55293 0.39949 0.65109 0.0
H490 H 0.62041 0.42297 0.5241 0.0
H491 H 0.5467 0.37647 0.56906 0.0
H492 H 0.52833 0.34859 0.41282 0.0
H493 H 0.55232 0.35439 0.49437 0.0
H494 H 0.59658 0.42894 0.45383 0.0
H495 H 0.57276 0.42311 0.37311 0.0
C496 C 0.60943 0.43024 0.60034 0.0
C497 C 0.58997 0.42502 0.63417 0.0
C498 C 0.60589 0.41698 0.55289 0.0
C499 C 0.5829 0.39838 0.53914 0.0
C500 C 0.56462 0.39077 0.578 0.0
C501 C 0.56808 0.40413 0.62494 0.0
C502 C 0.54386 0.36595 0.42017 0.0
C503 C 0.54827 0.38563 0.3879 0.0
C504 C 0.55761 0.36925 0.46682 0.0
C505 C 0.57594 0.39222 0.48136 0.0
C506 C 0.58257 0.411 0.44416 0.0
C507 C 0.56872 0.40776 0.39806 0.0
H508 H 0.16665 0.58402 0.528 0.0
H509 H 0.153 0.52345 0.62598 0.0
H510 H 0.18409 0.61019 0.60635 0.0
H511 H 0.16755 0.54837 0.70537 0.0
H512 H 0.16746 0.58253 0.84966 0.0
H513 H 0.18506 0.57435 0.77116 0.0
H514 H 0.16763 0.61926 0.67311 0.0
H515 H 0.15302 0.62923 0.75274 0.0
C516 C 0.1679 0.57649 0.56635 0.0
C517 C 0.15829 0.55186 0.5717 0.0
C518 C 0.1775 0.59134 0.61171 0.0
C519 C 0.17613 0.58154 0.66379 0.0
C520 C 0.169 0.55709 0.66698 0.0
C521 C 0.1604 0.5425 0.62123 0.0
C522 C 0.16867 0.59148 0.8116 0.0
C523 C 0.15866 0.60616 0.80653 0.0
C524 C 0.17829 0.58647 0.7661 0.0
C525 C 0.17645 0.59473 0.71416 0.0
C526 C 0.1693 0.61202 0.71137 0.0
C527 C 0.16073 0.61784 0.75734 0.0
H528 H 0.42138 0.05961 0.10776 0.0
H529 H 0.48046 0.05402 0.04354 0.0
H530 H 0.39758 0.01609 0.11331 0.0
H531 H 0.45688 0.01076 0.05039 0.0
H532 H 0.41483 0.93776 0.14039 0.0
H533 H 0.43782 0.98102 0.13397 0.0
H534 H 0.38139 0.98067 0.03936 0.0
H535 H 0.35847 0.93708 0.04415 0.0
C536 C 0.42936 0.04916 0.09524 0.0
C537 C 0.45289 0.06029 0.0755 0.0
C538 C 0.41569 0.02431 0.09813 0.0
C539 C 0.42549 0.01024 0.08229 0.0
C540 C 0.44903 0.02132 0.06311 0.0
C541 C 0.46252 0.0461 0.05923 0.0
C542 C 0.40736 0.94674 0.1176 0.0
C543 C 0.38495 0.93389 0.09206 0.0
C544 C 0.42054 0.97154 0.11414 0.0
C545 C 0.41134 0.98402 0.0861 0.0
C546 C 0.38877 0.97134 0.06137 0.0
C547 C 0.37576 0.94645 0.06394 0.0
H548 H 0.46856 0.41852 0.29772 0.0
H549 H 0.41123 0.35555 0.22187 0.0
H550 H 0.44695 0.43973 0.28169 0.0
H551 H 0.38932 0.3768 0.20728 0.0
H552 H 0.3503 0.41882 0.26325 0.0
H553 H 0.37135 0.39657 0.27503 0.0
H554 H 0.43252 0.45213 0.19149 0.0
H555 H 0.41142 0.47404 0.17809 0.0
C556 C 0.45144 0.40919 0.2775 0.0
C557 C 0.44175 0.3854 0.26063 0.0
C558 C 0.43908 0.42138 0.26836 0.0
C559 C 0.41657 0.40984 0.24323 0.0
C560 C 0.40666 0.38599 0.2269 0.0
C561 C 0.41924 0.37393 0.23507 0.0
C562 C 0.36822 0.42627 0.24725 0.0
C563 C 0.3793 0.44837 0.2203 0.0
C564 C 0.38016 0.41348 0.25381 0.0
C565 C 0.40351 0.42278 0.23435 0.0
C566 C 0.41457 0.44475 0.20724 0.0
C567 C 0.40247 0.45731 0.19973 0.0
H568 H 0.04649 0.47623 0.47308 0.0
H569 H 0.05286 0.42228 0.38384 0.0
H570 H 0.00346 0.45448 0.45779 0.0
H571 H 0.00962 0.40028 0.36978 0.0
H572 H 0.92963 0.35681 0.42583 0.0
H573 H 0.973 0.37918 0.43694 0.0
H574 H 0.97498 0.44199 0.37188 0.0
H575 H 0.93173 0.41962 0.3596 0.0
C576 C 0.0388 0.45986 0.44996 0.0
C577 C 0.05315 0.45109 0.42938 0.0
C578 C 0.01416 0.44743 0.44121 0.0
C579 C 0.00335 0.42577 0.41268 0.0
C580 C 0.0176 0.41692 0.39215 0.0
C581 C 0.04231 0.42957 0.40003 0.0
C582 C 0.93929 0.3754 0.41392 0.0
C583 C 0.92721 0.38648 0.39209 0.0
C584 C 0.96408 0.38811 0.42 0.0
C585 C 0.97719 0.41224 0.40523 0.0
C586 C 0.96517 0.42341 0.38382 0.0
C587 C 0.94042 0.41058 0.37679 0.0
H588 H 0.50305 0.93609 0.52069 0.0
H589 H 0.55732 0.92889 0.6074 0.0
H590 H 0.52616 0.97917 0.5326 0.0
H591 H 0.58075 0.97223 0.61775 0.0
H592 H 0.62421 0.05235 0.55975 0.0
H593 H 0.60143 0.00904 0.54829 0.0
H594 H 0.53985 0.00717 0.62045 0.0
H595 H 0.5626 0.05022 0.63332 0.0
C596 C 0.51981 0.9436 0.54243 0.0
C597 C 0.52816 0.92899 0.56373 0.0
C598 C 0.53304 0.96829 0.54911 0.0
C599 C 0.55512 0.97886 0.57615 0.0
C600 C 0.56377 0.9644 0.59658 0.0
C601 C 0.55031 0.93965 0.59083 0.0
C602 C 0.6058 0.04272 0.57313 0.0
C603 C 0.59516 0.05478 0.59711 0.0
C604 C 0.59287 0.01797 0.56678 0.0
C605 C 0.56896 0.00495 0.5834 0.0
C606 C 0.55824 0.01694 0.60697 0.0
C607 C 0.5713 0.0416 0.61429 0.0
H608 H 0.61831 0.5644 0.7777 0.0
H609 H 0.55446 0.5033 0.71523 0.0
H610 H 0.59718 0.58688 0.78108 0.0
H611 H 0.53342 0.52555 0.71987 0.0
H612 H 0.4999 0.56601 0.80435 0.0
H613 H 0.52178 0.54458 0.80126 0.0
H614 H 0.57675 0.60103 0.70523 0.0
H615 H 0.55447 0.62239 0.70672 0.0
C616 C 0.59976 0.55569 0.76516 0.0
C617 C 0.58802 0.532 0.74646 0.0
C618 C 0.58778 0.5686 0.76679 0.0
C619 C 0.56376 0.55786 0.75075 0.0
C620 C 0.55194 0.53413 0.73274 0.0
C621 C 0.56401 0.5214 0.73011 0.0
C622 C 0.51645 0.57381 0.78195 0.0
C623 C 0.52522 0.59574 0.75501 0.0
C624 C 0.52901 0.56154 0.78044 0.0
C625 C 0.55084 0.5712 0.75295 0.0
C626 C 0.55995 0.59333 0.72687 0.0
C627 C 0.54714 0.60543 0.72752 0.0
H628 H 0.04409 0.56144 0.8862 0.0
H629 H 0.04184 0.61889 0.96987 0.0
H630 H 0.00069 0.53792 0.88831 0.0
H631 H -0.0018 0.59535 0.97083 0.0
H632 H 0.92172 0.55565 0.89236 0.0
H633 H 0.96535 0.57902 0.89398 0.0
H634 H 0.96792 0.51919 0.96346 0.0
H635 H 0.92444 0.49597 0.96299 0.0
C636 C 0.03442 0.569 0.90546 0.0
C637 C 0.04647 0.59199 0.92821 0.0
C638 C 0.00954 0.55551 0.90659 0.0
C639 C -0.00379 0.5649 0.92958 0.0
C640 C 0.00816 0.58782 0.95254 0.0
C641 C 0.03309 0.60118 0.95226 0.0
C642 C 0.93158 0.54745 0.90781 0.0
C643 C 0.9196 0.52388 0.9272 0.0
C644 C 0.9565 0.56088 0.90906 0.0
C645 C 0.96986 0.55085 0.92893 0.0
C646 C 0.95795 0.52724 0.94767 0.0
C647 C 0.93305 0.51395 0.94729 0.0
loop_
_geom_bond_atom_site_label_1
_geom_bond_atom_site_label_2
_geom_bond_distance
_geom_bond_site_symmetry_2
_ccdc_geom_bond_type
Mg0 O1 2.028 . S
Mg0 O7 1.986 . S
Mg0 O9 2.114 . S
Mg0 O10 2.251 . S
Mg0 O13 2.010 . S
O1 Mg0 2.028 . S
O1 C4 1.250 . S
O2 Mg3 2.028 . S
O2 C4 1.248 . S
Mg3 O2 2.028 . S
Mg3 O8 2.032 . S
Mg3 O10 2.079 . S
C4 O1 1.250 . S
C4 O2 1.248 . S
C5 O6 1.264 . S
C5 O13 1.249 . S
O6 C5 1.264 . S
O7 Mg0 1.986 . S
O7 C11 1.246 . S
O8 Mg3 2.032 . S
O8 C11 1.259 . S
O9 Mg0 2.114 . S
O9 C12 1.252 . S
O10 Mg0 2.251 . S
O10 Mg3 2.079 . S
O10 C12 1.273 . S
C11 O7 1.246 . S
C11 O8 1.259 . S
C12 O9 1.252 . S
C12 O10 1.273 . S
O13 Mg0 2.010 . S
O13 C5 1.249 . S
Mg14 O15 2.028 . S
Mg14 O21 1.986 . S
Mg14 O23 2.114 . S
Mg14 O24 2.251 . S
Mg14 O27 2.010 . S
O15 Mg14 2.028 . S
O15 C18 1.250 . S
O16 Mg17 2.028 . S
O16 C18 1.248 . S
Mg17 O16 2.028 . S
Mg17 O22 2.032 . S
Mg17 O24 2.079 . S
C18 O15 1.250 . S
C18 O16 1.248 . S
C19 O20 1.264 . S
C19 O27 1.249 . S
O20 C19 1.264 . S
O21 Mg14 1.986 . S
O21 C25 1.246 . S
O22 Mg17 2.032 . S
O22 C25 1.259 . S
O23 Mg14 2.114 . S
O23 C26 1.252 . S
O24 Mg14 2.251 . S
O24 Mg17 2.079 . S
O24 C26 1.273 . S
C25 O21 1.246 . S
C25 O22 1.259 . S
C26 O23 1.252 . S
C26 O24 1.273 . S
O27 Mg14 2.010 . S
O27 C19 1.249 . S
Mg28 O29 2.028 . S
Mg28 O35 1.986 . S
Mg28 O37 2.114 . S
Mg28 O38 2.251 . S
Mg28 O41 2.010 . S
O29 Mg28 2.028 . S
O29 C32 1.250 . S
O30 Mg31 2.028 . S
O30 C32 1.248 . S
Mg31 O30 2.028 . S
Mg31 O36 2.032 . S
Mg31 O38 2.079 . S
C32 O29 1.250 . S
C32 O30 1.248 . S
C33 O34 1.264 . S
C33 O41 1.249 . S
O34 C33 1.264 . S
O35 Mg28 1.986 . S
O35 C39 1.246 . S
O36 Mg31 2.032 . S
O36 C39 1.259 . S
O37 Mg28 2.114 . S
O37 C40 1.252 . S
O38 Mg28 2.251 . S
O38 Mg31 2.079 . S
O38 C40 1.273 . S
C39 O35 1.246 . S
C39 O36 1.259 . S
C40 O37 1.252 . S
C40 O38 1.273 . S
O41 Mg28 2.010 . S
O41 C33 1.249 . S
Mg42 O43 2.028 . S
Mg42 O49 1.986 . S
Mg42 O51 2.114 . S
Mg42 O52 2.251 . S
Mg42 O55 2.010 . S
O43 Mg42 2.028 . S
O43 C46 1.250 . S
O44 Mg45 2.028 . S
O44 C46 1.248 . S
Mg45 O44 2.028 . S
Mg45 O50 2.032 . S
Mg45 O52 2.079 . S
C46 O43 1.250 . S
C46 O44 1.248 . S
C47 O48 1.264 . S
C47 O55 1.249 . S
O48 C47 1.264 . S
O49 Mg42 1.986 . S
O49 C53 1.246 . S
O50 Mg45 2.032 . S
O50 C53 1.259 . S
O51 Mg42 2.114 . S
O51 C54 1.252 . S
O52 Mg42 2.251 . S
O52 Mg45 2.079 . S
O52 C54 1.273 . S
C53 O49 1.246 . S
C53 O50 1.259 . S
C54 O51 1.252 . S
C54 O52 1.273 . S
O55 Mg42 2.010 . S
O55 C47 1.249 . S
Mg56 O57 2.028 . S
Mg56 O63 1.986 . S
Mg56 O65 2.114 . S
Mg56 O66 2.251 . S
Mg56 O69 2.010 . S
O57 Mg56 2.028 . S
O57 C60 1.250 . S
O58 Mg59 2.028 . S
O58 C60 1.248 . S
Mg59 O58 2.028 . S
Mg59 O64 2.032 . S
Mg59 O66 2.079 . S
C60 O57 1.250 . S
C60 O58 1.248 . S
C61 O62 1.264 . S
C61 O69 1.249 . S
O62 C61 1.264 . S
O63 Mg56 1.986 . S
O63 C67 1.246 . S
O64 Mg59 2.032 . S
O64 C67 1.259 . S
O65 Mg56 2.114 . S
O65 C68 1.252 . S
O66 Mg56 2.251 . S
O66 Mg59 2.079 . S
O66 C68 1.273 . S
C67 O63 1.246 . S
C67 O64 1.259 . S
C68 O65 1.252 . S
C68 O66 1.273 . S
O69 Mg56 2.010 . S
O69 C61 1.249 . S
Mg70 O71 2.028 . S
Mg70 O77 1.986 . S
Mg70 O79 2.114 . S
Mg70 O80 2.251 . S
Mg70 O83 2.010 . S
O71 Mg70 2.028 . S
O71 C74 1.250 1_556 S
O72 Mg73 2.028 . S
O72 C74 1.248 1_556 S
Mg73 O72 2.028 . S
Mg73 O78 2.032 . S
Mg73 O80 2.079 . S
C74 O71 1.250 1_554 S
C74 O72 1.248 1_554 S
C75 O76 1.264 . S
C75 O83 1.249 . S
O76 C75 1.264 . S
O77 Mg70 1.986 . S
O77 C81 1.246 . S
O78 Mg73 2.032 . S
O78 C81 1.259 . S
O79 Mg70 2.114 . S
O79 C82 1.252 . S
O80 Mg70 2.251 . S
O80 Mg73 2.079 . S
O80 C82 1.273 . S
C81 O77 1.246 . S
C81 O78 1.259 . S
C82 O79 1.252 . S
C82 O80 1.273 . S
O83 Mg70 2.010 . S
O83 C75 1.249 . S
Mg84 O85 2.028 . S
Mg84 O91 1.986 . S
Mg84 O93 2.114 . S
Mg84 O94 2.251 . S
Mg84 O97 2.010 . S
O85 Mg84 2.028 . S
O85 C88 1.250 . S
O86 Mg87 2.028 . S
O86 C88 1.248 . S
Mg87 O86 2.028 . S
Mg87 O92 2.032 . S
Mg87 O94 2.079 . S
C88 O85 1.250 . S
C88 O86 1.248 . S
C89 O90 1.264 . S
C89 O97 1.249 . S
O90 C89 1.264 . S
O91 Mg84 1.986 . S
O91 C95 1.246 1_556 S
O92 Mg87 2.032 . S
O92 C95 1.259 1_556 S
O93 Mg84 2.114 . S
O93 C96 1.252 . S
O94 Mg84 2.251 . S
O94 Mg87 2.079 . S
O94 C96 1.273 . S
C95 O91 1.246 1_554 S
C95 O92 1.259 1_554 S
C96 O93 1.252 . S
C96 O94 1.273 . S
O97 Mg84 2.010 . S
O97 C89 1.249 . S
Mg98 O99 2.028 . S
Mg98 O105 1.986 . S
Mg98 O107 2.114 . S
Mg98 O108 2.251 . S
Mg98 O111 2.010 . S
O99 Mg98 2.028 . S
O99 C102 1.250 . S
O100 Mg101 2.028 . S
O100 C102 1.248 . S
Mg101 O100 2.028 . S
Mg101 O106 2.032 . S
Mg101 O108 2.079 . S
C102 O99 1.250 . S
C102 O100 1.248 . S
C103 O104 1.264 . S
C103 O111 1.249 . S
O104 C103 1.264 . S
O105 Mg98 1.986 . S
O105 C109 1.246 . S
O106 Mg101 2.032 . S
O106 C109 1.259 . S
O107 Mg98 2.114 . S
O107 C110 1.252 . S
O108 Mg98 2.251 . S
O108 Mg101 2.079 . S
O108 C110 1.273 . S
C109 O105 1.246 . S
C109 O106 1.259 . S
C110 O107 1.252 . S
C110 O108 1.273 . S
O111 Mg98 2.010 . S
O111 C103 1.249 . S
Mg112 O113 2.028 . S
Mg112 O119 1.986 . S
Mg112 O121 2.114 . S
Mg112 O122 2.251 . S
Mg112 O125 2.010 . S
O113 Mg112 2.028 . S
O113 C116 1.250 . S
O114 Mg115 2.028 . S
O114 C116 1.248 . S
Mg115 O114 2.028 . S
Mg115 O120 2.032 . S
Mg115 O122 2.079 . S
C116 O113 1.250 . S
C116 O114 1.248 . S
C117 O118 1.264 . S
C117 O125 1.249 . S
O118 C117 1.264 . S
O119 Mg112 1.986 . S
O119 C123 1.246 . S
O120 Mg115 2.032 . S
O120 C123 1.259 . S
O121 Mg112 2.114 . S
O121 C124 1.252 . S
O122 Mg112 2.251 . S
O122 Mg115 2.079 . S
O122 C124 1.273 . S
C123 O119 1.246 . S
C123 O120 1.259 . S
C124 O121 1.252 . S
C124 O122 1.273 . S
O125 Mg112 2.010 . S
O125 C117 1.249 . S
Mg126 O127 2.028 . S
Mg126 O133 1.986 . S
Mg126 O135 2.114 . S
Mg126 O136 2.251 . S
Mg126 O139 2.010 . S
O127 Mg126 2.028 . S
O127 C130 1.250 . S
O128 Mg129 2.028 . S
O128 C130 1.248 . S
Mg129 O128 2.028 . S
Mg129 O134 2.032 . S
Mg129 O136 2.079 . S
C130 O127 1.250 . S
C130 O128 1.248 . S
C131 O132 1.264 . S
C131 O139 1.249 . S
O132 C131 1.264 . S
O133 Mg126 1.986 . S
O133 C137 1.246 . S
O134 Mg129 2.032 . S
O134 C137 1.259 . S
O135 Mg126 2.114 . S
O135 C138 1.252 . S
O136 Mg126 2.251 . S
O136 Mg129 2.079 . S
O136 C138 1.273 . S
C137 O133 1.246 . S
C137 O134 1.259 . S
C138 O135 1.252 . S
C138 O136 1.273 . S
O139 Mg126 2.010 . S
O139 C131 1.249 . S
Mg140 O141 2.028 . S
Mg140 O147 1.986 . S
Mg140 O149 2.114 . S
Mg140 O150 2.251 . S
Mg140 O153 2.010 . S
O141 Mg140 2.028 . S
O141 C144 1.250 . S
O142 Mg143 2.028 . S
O142 C144 1.248 . S
Mg143 O142 2.028 . S
Mg143 O148 2.032 . S
Mg143 O150 2.079 . S
C144 O141 1.250 . S
C144 O142 1.248 . S
C145 O146 1.264 . S
C145 O153 1.249 . S
O146 C145 1.264 . S
O147 Mg140 1.986 . S
O147 C151 1.246 . S
O148 Mg143 2.032 . S
O148 C151 1.259 . S
O149 Mg140 2.114 . S
O149 C152 1.252 . S
O150 Mg140 2.251 . S
O150 Mg143 2.079 . S
O150 C152 1.273 . S
C151 O147 1.246 . S
C151 O148 1.259 . S
C152 O149 1.252 . S
C152 O150 1.273 . S
O153 Mg140 2.010 . S
O153 C145 1.249 . S
Mg154 O155 2.028 . S
Mg154 O161 1.986 . S
Mg154 O163 2.114 . S
Mg154 O164 2.251 . S
Mg154 O167 2.010 . S
O155 Mg154 2.028 . S
O155 C158 1.250 . S
O156 Mg157 2.028 . S
O156 C158 1.248 . S
Mg157 O156 2.028 . S
Mg157 O162 2.032 . S
Mg157 O164 2.079 . S
C158 O155 1.250 . S
C158 O156 1.248 . S
C159 O160 1.264 . S
C159 O167 1.249 . S
O160 C159 1.264 . S
O161 Mg154 1.986 . S
O161 C165 1.246 . S
O162 Mg157 2.032 . S
O162 C165 1.259 . S
O163 Mg154 2.114 . S
O163 C166 1.252 . S
O164 Mg154 2.251 . S
O164 Mg157 2.079 . S
O164 C166 1.273 . S
C165 O161 1.246 . S
C165 O162 1.259 . S
C166 O163 1.252 . S
C166 O164 1.273 . S
O167 Mg154 2.010 . S
O167 C159 1.249 . S
H168 C176 0.950 . S
H169 C181 0.950 . S
H170 C178 0.950 . S
H171 C180 0.950 . S
H172 C182 0.950 . S
H173 C184 0.950 . S
H174 C186 0.950 . S
H175 C187 0.950 . S
C176 H168 0.950 . S
C176 C177 1.386 . S
C176 C178 1.391 . S
C177 C176 1.386 . S
C177 C181 1.393 . S
C178 H170 0.950 . S
C178 C176 1.391 . S
C178 C179 1.400 . S
C179 C178 1.400 . S
C179 C180 1.398 . S
C179 C185 1.491 . S
C180 H171 0.950 . S
C180 C179 1.398 . S
C180 C181 1.391 . S
C181 H169 0.950 . S
C181 C177 1.393 . S
C181 C180 1.391 . S
C182 H172 0.950 . S
C182 C183 1.386 . S
C182 C184 1.391 . S
C183 C182 1.386 . S
C183 C187 1.393 . S
C184 H173 0.950 . S
C184 C182 1.391 . S
C184 C185 1.400 . S
C185 C179 1.491 . S
C185 C184 1.400 . S
C185 C186 1.398 . S
C186 H174 0.950 . S
C186 C185 1.398 . S
C186 C187 1.391 . S
C187 H175 0.950 . S
C187 C183 1.393 . S
C187 C186 1.391 . S
H188 C196 0.950 . S
H189 C201 0.950 . S
H190 C198 0.950 . S
H191 C200 0.950 . S
H192 C202 0.950 . S
H193 C204 0.950 . S
H194 C206 0.950 . S
H195 C207 0.950 . S
C196 H188 0.950 . S
C196 C197 1.386 . S
C196 C198 1.391 . S
C197 C196 1.386 . S
C197 C201 1.393 . S
C198 H190 0.950 . S
C198 C196 1.391 . S
C198 C199 1.400 . S
C199 C198 1.400 . S
C199 C200 1.398 . S
C199 C205 1.491 . S
C200 H191 0.950 . S
C200 C199 1.398 . S
C200 C201 1.391 . S
C201 H189 0.950 . S
C201 C197 1.393 . S
C201 C200 1.391 . S
C202 H192 0.950 . S
C202 C203 1.386 . S
C202 C204 1.391 . S
C203 C202 1.386 . S
C203 C207 1.393 . S
C204 H193 0.950 . S
C204 C202 1.391 . S
C204 C205 1.400 . S
C205 C199 1.491 . S
C205 C204 1.400 . S
C205 C206 1.398 . S
C206 H194 0.950 . S
C206 C205 1.398 . S
C206 C207 1.391 . S
C207 H195 0.950 . S
C207 C203 1.393 . S
C207 C206 1.391 . S
H208 C216 0.950 . S
H209 C221 0.950 . S
H210 C218 0.950 . S
H211 C220 0.950 . S
H212 C222 0.950 . S
H213 C224 0.950 . S
H214 C226 0.950 . S
H215 C227 0.950 . S
C216 H208 0.950 . S
C216 C217 1.386 . S
C216 C218 1.391 . S
C217 C216 1.386 . S
C217 C221 1.393 . S
C218 H210 0.950 . S
C218 C216 1.391 . S
C218 C219 1.400 . S
C219 C218 1.400 . S
C219 C220 1.398 . S
C219 C225 1.491 . S
C220 H211 0.950 . S
C220 C219 1.398 . S
C220 C221 1.391 . S
C221 H209 0.950 . S
C221 C217 1.393 . S
C221 C220 1.391 . S
C222 H212 0.950 . S
C222 C223 1.386 . S
C222 C224 1.391 . S
C223 C222 1.386 . S
C223 C227 1.393 . S
C224 H213 0.950 . S
C224 C222 1.391 . S
C224 C225 1.400 . S
C225 C219 1.491 . S
C225 C224 1.400 . S
C225 C226 1.398 . S
C226 H214 0.950 . S
C226 C225 1.398 . S
C226 C227 1.391 . S
C227 H215 0.950 . S
C227 C223 1.393 . S
C227 C226 1.391 . S
H228 C236 0.950 . S
H229 C241 0.950 . S
H230 C238 0.950 . S
H231 C240 0.950 . S
H232 C242 0.950 . S
H233 C244 0.950 . S
H234 C246 0.950 . S
H235 C247 0.950 . S
C236 H228 0.950 . S
C236 C237 1.386 . S
C236 C238 1.391 . S
C237 C236 1.386 . S
C237 C241 1.393 . S
C238 H230 0.950 . S
C238 C236 1.391 . S
C238 C239 1.400 . S
C239 C238 1.400 . S
C239 C240 1.398 . S
C239 C245 1.491 . S
C240 H231 0.950 . S
C240 C239 1.398 . S
C240 C241 1.391 . S
C241 H229 0.950 . S
C241 C237 1.393 . S
C241 C240 1.391 . S
C242 H232 0.950 . S
C242 C243 1.386 . S
C242 C244 1.391 . S
C243 C242 1.386 . S
C243 C247 1.393 . S
C244 H233 0.950 . S
C244 C242 1.391 . S
C244 C245 1.400 . S
C245 C239 1.491 . S
C245 C244 1.400 . S
C245 C246 1.398 . S
C246 H234 0.950 . S
C246 C245 1.398 . S
C246 C247 1.391 . S
C247 H235 0.950 . S
C247 C243 1.393 . S
C247 C246 1.391 . S
H248 C256 0.950 . S
H249 C261 0.950 . S
H250 C258 0.950 . S
H251 C260 0.950 . S
H252 C262 0.950 . S
H253 C264 0.950 . S
H254 C266 0.950 . S
H255 C267 0.950 . S
C256 H248 0.950 . S
C256 C257 1.386 . S
C256 C258 1.391 . S
C257 C256 1.386 . S
C257 C261 1.393 . S
C258 H250 0.950 . S
C258 C256 1.391 . S
C258 C259 1.400 . S
C259 C258 1.400 . S
C259 C260 1.398 . S
C259 C265 1.491 1_554 S
C260 H251 0.950 . S
C260 C259 1.398 . S
C260 C261 1.391 . S
C261 H249 0.950 . S
C261 C257 1.393 . S
C261 C260 1.391 . S
C262 H252 0.950 . S
C262 C263 1.386 . S
C262 C264 1.391 . S
C263 C262 1.386 . S
C263 C267 1.393 . S
C264 H253 0.950 . S
C264 C262 1.391 . S
C264 C265 1.400 . S
C265 C259 1.491 1_556 S
C265 C264 1.400 . S
C265 C266 1.398 . S
C266 H254 0.950 . S
C266 C265 1.398 . S
C266 C267 1.391 . S
C267 H255 0.950 . S
C267 C263 1.393 . S
C267 C266 1.391 . S
H268 C276 0.950 . S
H269 C281 0.950 . S
H270 C278 0.950 . S
H271 C280 0.950 . S
H272 C282 0.950 . S
H273 C284 0.950 . S
H274 C286 0.950 . S
H275 C287 0.950 . S
C276 H268 0.950 . S
C276 C277 1.386 . S
C276 C278 1.391 . S
C277 C276 1.386 . S
C277 C281 1.393 . S
C278 H270 0.950 . S
C278 C276 1.391 . S
C278 C279 1.400 . S
C279 C278 1.400 . S
C279 C280 1.398 . S
C279 C285 1.491 . S
C280 H271 0.950 . S
C280 C279 1.398 . S
C280 C281 1.391 . S
C281 H269 0.950 . S
C281 C277 1.393 . S
C281 C280 1.391 . S
C282 H272 0.950 . S
C282 C283 1.386 . S
C282 C284 1.391 . S
C283 C282 1.386 . S
C283 C287 1.393 . S
C284 H273 0.950 . S
C284 C282 1.391 . S
C284 C285 1.400 . S
C285 C279 1.491 . S
C285 C284 1.400 . S
C285 C286 1.398 . S
C286 H274 0.950 . S
C286 C285 1.398 . S
C286 C287 1.391 . S
C287 H275 0.950 . S
C287 C283 1.393 . S
C287 C286 1.391 . S
H288 C296 0.950 . S
H289 C301 0.950 . S
H290 C298 0.950 . S
H291 C300 0.950 . S
H292 C302 0.950 . S
H293 C304 0.950 . S
H294 C306 0.950 . S
H295 C307 0.950 . S
C296 H288 0.950 . S
C296 C297 1.386 . S
C296 C298 1.391 . S
C297 C296 1.386 . S
C297 C301 1.393 . S
C298 H290 0.950 . S
C298 C296 1.391 . S
C298 C299 1.400 . S
C299 C298 1.400 . S
C299 C300 1.398 . S
C299 C305 1.491 . S
C300 H291 0.950 . S
C300 C299 1.398 . S
C300 C301 1.391 . S
C301 H289 0.950 . S
C301 C297 1.393 . S
C301 C300 1.391 . S
C302 H292 0.950 . S
C302 C303 1.386 . S
C302 C304 1.391 . S
C303 C302 1.386 . S
C303 C307 1.393 . S
C304 H293 0.950 . S
C304 C302 1.391 . S
C304 C305 1.400 . S
C305 C299 1.491 . S
C305 C304 1.400 . S
C305 C306 1.398 . S
C306 H294 0.950 . S
C306 C305 1.398 . S
C306 C307 1.391 . S
C307 H295 0.950 . S
C307 C303 1.393 . S
C307 C306 1.391 . S
H308 C316 0.950 . S
H309 C321 0.950 . S
H310 C318 0.950 . S
H311 C320 0.950 . S
H312 C322 0.950 . S
H313 C324 0.950 . S
H314 C326 0.950 . S
H315 C327 0.950 . S
C316 H308 0.950 . S
C316 C317 1.386 . S
C316 C318 1.391 . S
C317 C316 1.386 . S
C317 C321 1.393 . S
C318 H310 0.950 . S
C318 C316 1.391 . S
C318 C319 1.400 . S
C319 C318 1.400 . S
C319 C320 1.398 . S
C319 C325 1.491 . S
C320 H311 0.950 . S
C320 C319 1.398 . S
C320 C321 1.391 . S
C321 H309 0.950 . S
C321 C317 1.393 . S
C321 C320 1.391 . S
C322 H312 0.950 . S
C322 C323 1.386 . S
C322 C324 1.391 . S
C323 C322 1.386 . S
C323 C327 1.393 . S
C324 H313 0.950 . S
C324 C322 1.391 . S
C324 C325 1.400 . S
C325 C319 1.491 . S
C325 C324 1.400 . S
C325 C326 1.398 . S
C326 H314 0.950 . S
C326 C325 1.398 . S
C326 C327 1.391 . S
C327 H315 0.950 . S
C327 C323 1.393 . S
C327 C326 1.391 . S
H328 C336 0.950 . S
H329 C341 0.950 . S
H330 C338 0.950 . S
H331 C340 0.950 . S
H332 C342 0.950 . S
H333 C344 0.950 . S
H334 C346 0.950 . S
H335 C347 0.950 . S
C336 H328 0.950 . S
C336 C337 1.386 . S
C336 C338 1.391 . S
C337 C336 1.386 . S
C337 C341 1.393 . S
C338 H330 0.950 . S
C338 C336 1.391 . S
C338 C339 1.400 . S
C339 C338 1.400 . S
C339 C340 1.398 . S
C339 C345 1.491 . S
C340 H331 0.950 . S
C340 C339 1.398 . S
C340 C341 1.391 . S
C341 H329 0.950 . S
C341 C337 1.393 . S
C341 C340 1.391 . S
C342 H332 0.950 . S
C342 C343 1.386 . S
C342 C344 1.391 . S
C343 C342 1.386 . S
C343 C347 1.393 . S
C344 H333 0.950 . S
C344 C342 1.391 . S
C344 C345 1.400 . S
C345 C339 1.491 . S
C345 C344 1.400 . S
C345 C346 1.398 . S
C346 H334 0.950 . S
C346 C345 1.398 . S
C346 C347 1.391 . S
C347 H335 0.950 . S
C347 C343 1.393 . S
C347 C346 1.391 . S
H348 C356 0.950 . S
H349 C361 0.950 . S
H350 C358 0.950 . S
H351 C360 0.950 . S
H352 C362 0.950 . S
H353 C364 0.950 . S
H354 C366 0.950 . S
H355 C367 0.950 . S
C356 H348 0.950 . S
C356 C357 1.386 . S
C356 C358 1.391 . S
C357 C356 1.386 . S
C357 C361 1.393 . S
C358 H350 0.950 . S
C358 C356 1.391 . S
C358 C359 1.400 . S
C359 C358 1.400 . S
C359 C360 1.398 . S
C359 C365 1.491 . S
C360 H351 0.950 . S
C360 C359 1.398 . S
C360 C361 1.391 . S
C361 H349 0.950 . S
C361 C357 1.393 . S
C361 C360 1.391 . S
C362 H352 0.950 . S
C362 C363 1.386 . S
C362 C364 1.391 . S
C363 C362 1.386 . S
C363 C367 1.393 . S
C364 H353 0.950 . S
C364 C362 1.391 . S
C364 C365 1.400 . S
C365 C359 1.491 . S
C365 C364 1.400 . S
C365 C366 1.398 . S
C366 H354 0.950 . S
C366 C365 1.398 . S
C366 C367 1.391 . S
C367 H355 0.950 . S
C367 C363 1.393 . S
C367 C366 1.391 . S
H368 C376 0.950 . S
H369 C381 0.950 . S
H370 C378 0.950 . S
H371 C380 0.950 . S
H372 C382 0.950 . S
H373 C384 0.950 . S
H374 C386 0.950 . S
H375 C387 0.950 . S
C376 H368 0.950 . S
C376 C377 1.386 . S
C376 C378 1.391 . S
C377 C376 1.386 . S
C377 C381 1.393 . S
C378 H370 0.950 . S
C378 C376 1.391 . S
C378 C379 1.400 . S
C379 C378 1.400 . S
C379 C380 1.398 . S
C379 C385 1.491 . S
C380 H371 0.950 . S
C380 C379 1.398 . S
C380 C381 1.391 . S
C381 H369 0.950 . S
C381 C377 1.393 . S
C381 C380 1.391 . S
C382 H372 0.950 . S
C382 C383 1.386 . S
C382 C384 1.391 . S
C383 C382 1.386 . S
C383 C387 1.393 . S
C384 H373 0.950 . S
C384 C382 1.391 . S
C384 C385 1.400 . S
C385 C379 1.491 . S
C385 C384 1.400 . S
C385 C386 1.398 . S
C386 H374 0.950 . S
C386 C385 1.398 . S
C386 C387 1.391 . S
C387 H375 0.950 . S
C387 C383 1.393 . S
C387 C386 1.391 . S
H388 C396 0.950 . S
H389 C401 0.950 . S
H390 C398 0.950 . S
H391 C400 0.950 . S
H392 C402 0.950 . S
H393 C404 0.950 . S
H394 C406 0.950 . S
H395 C407 0.950 . S
C396 H388 0.950 . S
C396 C397 1.386 . S
C396 C398 1.391 . S
C397 C396 1.386 . S
C397 C401 1.393 1_556 S
C398 H390 0.950 . S
C398 C396 1.391 . S
C398 C399 1.400 . S
C399 C398 1.400 . S
C399 C400 1.398 1_556 S
C399 C405 1.491 1_556 S
C400 H391 0.950 . S
C400 C399 1.398 1_554 S
C400 C401 1.391 . S
C401 H389 0.950 . S
C401 C397 1.393 1_554 S
C401 C400 1.391 . S
C402 H392 0.950 . S
C402 C403 1.386 . S
C402 C404 1.391 . S
C403 C402 1.386 . S
C403 C407 1.393 1_554 S
C404 H393 0.950 . S
C404 C402 1.391 . S
C404 C405 1.400 . S
C405 C399 1.491 1_554 S
C405 C404 1.400 . S
C405 C406 1.398 1_554 S
C406 H394 0.950 . S
C406 C405 1.398 1_556 S
C406 C407 1.391 . S
C407 H395 0.950 . S
C407 C403 1.393 1_556 S
C407 C406 1.391 . S
H408 C416 0.950 . S
H409 C421 0.950 . S
H410 C418 0.950 . S
H411 C420 0.950 . S
H412 C422 0.950 . S
H413 C424 0.950 . S
H414 C426 0.950 . S
H415 C427 0.950 . S
C416 H408 0.950 . S
C416 C417 1.386 . S
C416 C418 1.391 . S
C417 C416 1.386 . S
C417 C421 1.393 . S
C418 H410 0.950 . S
C418 C416 1.391 . S
C418 C419 1.400 . S
C419 C418 1.400 . S
C419 C420 1.398 . S
C419 C425 1.491 . S
C420 H411 0.950 . S
C420 C419 1.398 . S
C420 C421 1.391 . S
C421 H409 0.950 . S
C421 C417 1.393 . S
C421 C420 1.391 . S
C422 H412 0.950 . S
C422 C423 1.386 . S
C422 C424 1.391 . S
C423 C422 1.386 . S
C423 C427 1.393 . S
C424 H413 0.950 . S
C424 C422 1.391 . S
C424 C425 1.400 . S
C425 C419 1.491 . S
C425 C424 1.400 . S
C425 C426 1.398 . S
C426 H414 0.950 . S
C426 C425 1.398 . S
C426 C427 1.391 . S
C427 H415 0.950 . S
C427 C423 1.393 . S
C427 C426 1.391 . S
H428 C436 0.950 . S
H429 C441 0.950 . S
H430 C438 0.950 1_554 S
H431 C440 0.950 . S
H432 C442 0.950 . S
H433 C444 0.950 1_556 S
H434 C446 0.950 . S
H435 C447 0.950 . S
C436 H428 0.950 . S
C436 C437 1.386 . S
C436 C438 1.391 . S
C437 C436 1.386 . S
C437 C441 1.393 . S
C438 H430 0.950 1_556 S
C438 C436 1.391 . S
C438 C439 1.400 . S
C439 C438 1.400 . S
C439 C440 1.398 . S
C439 C445 1.491 1_556 S
C440 H431 0.950 . S
C440 C439 1.398 . S
C440 C441 1.391 . S
C441 H429 0.950 . S
C441 C437 1.393 . S
C441 C440 1.391 . S
C442 H432 0.950 . S
C442 C443 1.386 . S
C442 C444 1.391 . S
C443 C442 1.386 . S
C443 C447 1.393 . S
C444 H433 0.950 1_554 S
C444 C442 1.391 . S
C444 C445 1.400 . S
C445 C439 1.491 1_554 S
C445 C444 1.400 . S
C445 C446 1.398 . S
C446 H434 0.950 . S
C446 C445 1.398 . S
C446 C447 1.391 . S
C447 H435 0.950 . S
C447 C443 1.393 . S
C447 C446 1.391 . S
H448 C456 0.950 . S
H449 C461 0.950 . S
H450 C458 0.950 . S
H451 C460 0.950 . S
H452 C462 0.950 . S
H453 C464 0.950 . S
H454 C466 0.950 . S
H455 C467 0.950 . S
C456 H448 0.950 . S
C456 C457 1.386 . S
C456 C458 1.391 . S
C457 C456 1.386 . S
C457 C461 1.393 . S
C458 H450 0.950 . S
C458 C456 1.391 . S
C458 C459 1.400 . S
C459 C458 1.400 . S
C459 C460 1.398 . S
C459 C465 1.491 . S
C460 H451 0.950 . S
C460 C459 1.398 . S
C460 C461 1.391 . S
C461 H449 0.950 . S
C461 C457 1.393 . S
C461 C460 1.391 . S
C462 H452 0.950 . S
C462 C463 1.386 . S
C462 C464 1.391 . S
C463 C462 1.386 . S
C463 C467 1.393 . S
C464 H453 0.950 . S
C464 C462 1.391 . S
C464 C465 1.400 . S
C465 C459 1.491 . S
C465 C464 1.400 . S
C465 C466 1.398 . S
C466 H454 0.950 . S
C466 C465 1.398 . S
C466 C467 1.391 . S
C467 H455 0.950 . S
C467 C463 1.393 . S
C467 C466 1.391 . S
H468 C476 0.950 . S
H469 C481 0.950 . S
H470 C478 0.950 . S
H471 C480 0.950 . S
H472 C482 0.950 . S
H473 C484 0.950 . S
H474 C486 0.950 . S
H475 C487 0.950 . S
C476 H468 0.950 . S
C476 C477 1.386 . S
C476 C478 1.391 . S
C477 C476 1.386 . S
C477 C481 1.393 . S
C478 H470 0.950 . S
C478 C476 1.391 . S
C478 C479 1.400 . S
C479 C478 1.400 . S
C479 C480 1.398 . S
C479 C485 1.491 . S
C480 H471 0.950 . S
C480 C479 1.398 . S
C480 C481 1.391 . S
C481 H469 0.950 . S
C481 C477 1.393 . S
C481 C480 1.391 . S
C482 H472 0.950 . S
C482 C483 1.386 . S
C482 C484 1.391 . S
C483 C482 1.386 . S
C483 C487 1.393 . S
C484 H473 0.950 . S
C484 C482 1.391 . S
C484 C485 1.400 . S
C485 C479 1.491 . S
C485 C484 1.400 . S
C485 C486 1.398 . S
C486 H474 0.950 . S
C486 C485 1.398 . S
C486 C487 1.391 . S
C487 H475 0.950 . S
C487 C483 1.393 . S
C487 C486 1.391 . S
H488 C496 0.950 . S
H489 C501 0.950 . S
H490 C498 0.950 . S
H491 C500 0.950 . S
H492 C502 0.950 . S
H493 C504 0.950 . S
H494 C506 0.950 . S
H495 C507 0.950 . S
C496 H488 0.950 . S
C496 C497 1.386 . S
C496 C498 1.391 . S
C497 C496 1.386 . S
C497 C501 1.393 . S
C498 H490 0.950 . S
C498 C496 1.391 . S
C498 C499 1.400 . S
C499 C498 1.400 . S
C499 C500 1.398 . S
C499 C505 1.491 . S
C500 H491 0.950 . S
C500 C499 1.398 . S
C500 C501 1.391 . S
C501 H489 0.950 . S
C501 C497 1.393 . S
C501 C500 1.391 . S
C502 H492 0.950 . S
C502 C503 1.386 . S
C502 C504 1.391 . S
C503 C502 1.386 . S
C503 C507 1.393 . S
C504 H493 0.950 . S
C504 C502 1.391 . S
C504 C505 1.400 . S
C505 C499 1.491 . S
C505 C504 1.400 . S
C505 C506 1.398 . S
C506 H494 0.950 . S
C506 C505 1.398 . S
C506 C507 1.391 . S
C507 H495 0.950 . S
C507 C503 1.393 . S
C507 C506 1.391 . S
H508 C516 0.950 . S
H509 C521 0.950 . S
H510 C518 0.950 . S
H511 C520 0.950 . S
H512 C522 0.950 . S
H513 C524 0.950 . S
H514 C526 0.950 . S
H515 C527 0.950 . S
C516 H508 0.950 . S
C516 C517 1.386 . S
C516 C518 1.391 . S
C517 C516 1.386 . S
C517 C521 1.393 . S
C518 H510 0.950 . S
C518 C516 1.391 . S
C518 C519 1.400 . S
C519 C518 1.400 . S
C519 C520 1.398 . S
C519 C525 1.491 . S
C520 H511 0.950 . S
C520 C519 1.398 . S
C520 C521 1.391 . S
C521 H509 0.950 . S
C521 C517 1.393 . S
C521 C520 1.391 . S
C522 H512 0.950 . S
C522 C523 1.386 . S
C522 C524 1.391 . S
C523 C522 1.386 . S
C523 C527 1.393 . S
C524 H513 0.950 . S
C524 C522 1.391 . S
C524 C525 1.400 . S
C525 C519 1.491 . S
C525 C524 1.400 . S
C525 C526 1.398 . S
C526 H514 0.950 . S
C526 C525 1.398 . S
C526 C527 1.391 . S
C527 H515 0.950 . S
C527 C523 1.393 . S
C527 C526 1.391 . S
H528 C536 0.950 . S
H529 C541 0.950 . S
H530 C538 0.950 . S
H531 C540 0.950 . S
H532 C542 0.950 . S
H533 C544 0.950 . S
H534 C546 0.950 . S
H535 C547 0.950 . S
C536 H528 0.950 . S
C536 C537 1.386 . S
C536 C538 1.391 . S
C537 C536 1.386 . S
C537 C541 1.393 . S
C538 H530 0.950 . S
C538 C536 1.391 . S
C538 C539 1.400 . S
C539 C538 1.400 . S
C539 C540 1.398 . S
C539 C545 1.491 1_545 S
C540 H531 0.950 . S
C540 C539 1.398 . S
C540 C541 1.391 . S
C541 H529 0.950 . S
C541 C537 1.393 . S
C541 C540 1.391 . S
C542 H532 0.950 . S
C542 C543 1.386 . S
C542 C544 1.391 . S
C543 C542 1.386 . S
C543 C547 1.393 . S
C544 H533 0.950 . S
C544 C542 1.391 . S
C544 C545 1.400 . S
C545 C539 1.491 1_565 S
C545 C544 1.400 . S
C545 C546 1.398 . S
C546 H534 0.950 . S
C546 C545 1.398 . S
C546 C547 1.391 . S
C547 H535 0.950 . S
C547 C543 1.393 . S
C547 C546 1.391 . S
H548 C556 0.950 . S
H549 C561 0.950 . S
H550 C558 0.950 . S
H551 C560 0.950 . S
H552 C562 0.950 . S
H553 C564 0.950 . S
H554 C566 0.950 . S
H555 C567 0.950 . S
C556 H548 0.950 . S
C556 C557 1.386 . S
C556 C558 1.391 . S
C557 C556 1.386 . S
C557 C561 1.393 . S
C558 H550 0.950 . S
C558 C556 1.391 . S
C558 C559 1.400 . S
C559 C558 1.400 . S
C559 C560 1.398 . S
C559 C565 1.491 . S
C560 H551 0.950 . S
C560 C559 1.398 . S
C560 C561 1.391 . S
C561 H549 0.950 . S
C561 C557 1.393 . S
C561 C560 1.391 . S
C562 H552 0.950 . S
C562 C563 1.386 . S
C562 C564 1.391 . S
C563 C562 1.386 . S
C563 C567 1.393 . S
C564 H553 0.950 . S
C564 C562 1.391 . S
C564 C565 1.400 . S
C565 C559 1.491 . S
C565 C564 1.400 . S
C565 C566 1.398 . S
C566 H554 0.950 . S
C566 C565 1.398 . S
C566 C567 1.391 . S
C567 H555 0.950 . S
C567 C563 1.393 . S
C567 C566 1.391 . S
H568 C576 0.950 . S
H569 C581 0.950 . S
H570 C578 0.950 . S
H571 C580 0.950 . S
H572 C582 0.950 . S
H573 C584 0.950 . S
H574 C586 0.950 . S
H575 C587 0.950 . S
C576 H568 0.950 . S
C576 C577 1.386 . S
C576 C578 1.391 . S
C577 C576 1.386 . S
C577 C581 1.393 . S
C578 H570 0.950 . S
C578 C576 1.391 . S
C578 C579 1.400 . S
C579 C578 1.400 . S
C579 C580 1.398 . S
C579 C585 1.491 1_455 S
C580 H571 0.950 . S
C580 C579 1.398 . S
C580 C581 1.391 . S
C581 H569 0.950 . S
C581 C577 1.393 . S
C581 C580 1.391 . S
C582 H572 0.950 . S
C582 C583 1.386 . S
C582 C584 1.391 . S
C583 C582 1.386 . S
C583 C587 1.393 . S
C584 H573 0.950 . S
C584 C582 1.391 . S
C584 C585 1.400 . S
C585 C579 1.491 1_655 S
C585 C584 1.400 . S
C585 C586 1.398 . S
C586 H574 0.950 . S
C586 C585 1.398 . S
C586 C587 1.391 . S
C587 H575 0.950 . S
C587 C583 1.393 . S
C587 C586 1.391 . S
H588 C596 0.950 . S
H589 C601 0.950 . S
H590 C598 0.950 . S
H591 C600 0.950 . S
H592 C602 0.950 . S
H593 C604 0.950 . S
H594 C606 0.950 . S
H595 C607 0.950 . S
C596 H588 0.950 . S
C596 C597 1.386 . S
C596 C598 1.391 . S
C597 C596 1.386 . S
C597 C601 1.393 . S
C598 H590 0.950 . S
C598 C596 1.391 . S
C598 C599 1.400 . S
C599 C598 1.400 . S
C599 C600 1.398 . S
C599 C605 1.491 1_565 S
C600 H591 0.950 . S
C600 C599 1.398 . S
C600 C601 1.391 . S
C601 H589 0.950 . S
C601 C597 1.393 . S
C601 C600 1.391 . S
C602 H592 0.950 . S
C602 C603 1.386 . S
C602 C604 1.391 . S
C603 C602 1.386 . S
C603 C607 1.393 . S
C604 H593 0.950 . S
C604 C602 1.391 . S
C604 C605 1.400 . S
C605 C599 1.491 1_545 S
C605 C604 1.400 . S
C605 C606 1.398 . S
C606 H594 0.950 . S
C606 C605 1.398 . S
C606 C607 1.391 . S
C607 H595 0.950 . S
C607 C603 1.393 . S
C607 C606 1.391 . S
H608 C616 0.950 . S
H609 C621 0.950 . S
H610 C618 0.950 . S
H611 C620 0.950 . S
H612 C622 0.950 . S
H613 C624 0.950 . S
H614 C626 0.950 . S
H615 C627 0.950 . S
C616 H608 0.950 . S
C616 C617 1.386 . S
C616 C618 1.391 . S
C617 C616 1.386 . S
C617 C621 1.393 . S
C618 H610 0.950 . S
C618 C616 1.391 . S
C618 C619 1.400 . S
C619 C618 1.400 . S
C619 C620 1.398 . S
C619 C625 1.491 . S
C620 H611 0.950 . S
C620 C619 1.398 . S
C620 C621 1.391 . S
C621 H609 0.950 . S
C621 C617 1.393 . S
C621 C620 1.391 . S
C622 H612 0.950 . S
C622 C623 1.386 . S
C622 C624 1.391 . S
C623 C622 1.386 . S
C623 C627 1.393 . S
C624 H613 0.950 . S
C624 C622 1.391 . S
C624 C625 1.400 . S
C625 C619 1.491 . S
C625 C624 1.400 . S
C625 C626 1.398 . S
C626 H614 0.950 . S
C626 C625 1.398 . S
C626 C627 1.391 . S
C627 H615 0.950 . S
C627 C623 1.393 . S
C627 C626 1.391 . S
H628 C636 0.950 . S
H629 C641 0.950 . S
H630 C638 0.950 . S
H631 C640 0.950 . S
H632 C642 0.950 . S
H633 C644 0.950 . S
H634 C646 0.950 . S
H635 C647 0.950 . S
C636 H628 0.950 . S
C636 C637 1.386 . S
C636 C638 1.391 . S
C637 C636 1.386 . S
C637 C641 1.393 . S
C638 H630 0.950 . S
C638 C636 1.391 . S
C638 C639 1.400 . S
C639 C638 1.400 . S
C639 C640 1.398 . S
C639 C645 1.491 1_455 S
C640 H631 0.950 . S
C640 C639 1.398 . S
C640 C641 1.391 . S
C641 H629 0.950 . S
C641 C637 1.393 . S
C641 C640 1.391 . S
C642 H632 0.950 . S
C642 C643 1.386 . S
C642 C644 1.391 . S
C643 C642 1.386 . S
C643 C647 1.393 . S
C644 H633 0.950 . S
C644 C642 1.391 . S
C644 C645 1.400 . S
C645 C639 1.491 1_655 S
C645 C644 1.400 . S
C645 C646 1.398 . S
C646 H634 0.950 . S
C646 C645 1.398 . S
C646 C647 1.391 . S
C647 H635 0.950 . S
C647 C643 1.393 . S
C647 C646 1.391 . S
C177 C4 1.609 . S
C183 C144 1.604 . S
C197 C18 1.611 . S
C203 C158 1.597 . S
C217 C88 1.610 . S
C223 C32 1.593 . S
C237 C46 1.606 . S
C243 C102 1.589 1_556 S
C257 C116 1.606 . S
C263 C60 1.608 . S
C277 C130 1.596 . S
C283 C74 1.591 . S
C297 C117 1.092 . S
C303 C5 1.075 . S
C317 C19 1.078 . S
C323 C131 1.092 . S
C337 C145 1.041 . S
C343 C33 1.044 . S
C357 C47 1.045 . S
C363 C159 1.071 . S
C377 C61 1.060 . S
C383 C89 1.039 . S
C397 C75 1.054 . S
C403 C103 1.081 . S
C417 C151 1.377 . S
C423 C11 1.357 1_556 S
C437 C165 1.377 . S
C443 C25 1.356 . S
C457 C95 1.356 . S
C463 C39 1.377 . S
C477 C53 1.367 . S
C483 C109 1.376 . S
C497 C67 1.358 . S
C503 C123 1.356 . S
C517 C137 1.353 . S
C523 C81 1.374 . S
C537 C12 1.095 . S
C543 C110 1.114 . S
C557 C124 1.116 . S
C563 C26 1.100 . S
C577 C138 1.097 . S
C583 C40 1.117 . S
C597 C54 1.099 . S
C603 C152 1.116 . S
C617 C68 1.097 . S
C623 C166 1.111 . S
C637 C82 1.115 . S
C643 C96 1.100 . S
