# Generated by pormake.
# Topology unf, (4)-cn, num edge types: 1
# Building blocks:
#     Node 0, Type 0, BuildingBlock: CEKHIL_clean_sbu_0, # of connection points: 4
#     Node 1, Type 0, BuildingBlock: CEKHIL_clean_sbu_0, # of connection points: 4
#     Node 2, Type 0, BuildingBlock: CEKHIL_clean_sbu_0, # of connection points: 4
#     Node 3, Type 0, BuildingBlock: CEKHIL_clean_sbu_0, # of connection points: 4
#     Node 4, Type 0, BuildingBlock: CEKHIL_clean_sbu_0, # of connection points: 4
#     Node 5, Type 0, BuildingBlock: CEKHIL_clean_sbu_0, # of connection points: 4
#     Node 6, Type 0, BuildingBlock: CEKHIL_clean_sbu_0, # of connection points: 4
#     Node 7, Type 0, BuildingBlock: CEKHIL_clean_sbu_0, # of connection points: 4
#     Node 8, Type 0, BuildingBlock: CEKHIL_clean_sbu_0, # of connection points: 4
#     Node 9, Type 0, BuildingBlock: CEKHIL_clean_sbu_0, # of connection points: 4
#     Node 10, Type 0, BuildingBlock: CEKHIL_clean_sbu_0, # of connection points: 4
#     Node 11, Type 0, BuildingBlock: CEKHIL_clean_sbu_0, # of connection points: 4
#     Edge 12, Type (0, 0), BuildingBlock: XIVTED_clean_linker_0, # of connection points: 2
#     Edge 13, Type (0, 0), BuildingBlock: XIVTED_clean_linker_0, # of connection points: 2
#     Edge 14, Type (0, 0), BuildingBlock: XIVTED_clean_linker_0, # of connection points: 2
#     Edge 15, Type (0, 0), BuildingBlock: XIVTED_clean_linker_0, # of connection points: 2
#     Edge 16, Type (0, 0), BuildingBlock: XIVTED_clean_linker_0, # of connection points: 2
#     Edge 17, Type (0, 0), BuildingBlock: XIVTED_clean_linker_0, # of connection points: 2
#     Edge 18, Type (0, 0), BuildingBlock: XIVTED_clean_linker_0, # of connection points: 2
#     Edge 19, Type (0, 0), BuildingBlock: XIVTED_clean_linker_0, # of connection points: 2
#     Edge 20, Type (0, 0), BuildingBlock: XIVTED_clean_linker_0, # of connection points: 2
#     Edge 21, Type (0, 0), BuildingBlock: XIVTED_clean_linker_0, # of connection points: 2
#     Edge 22, Type (0, 0), BuildingBlock: XIVTED_clean_linker_0, # of connection points: 2
#     Edge 23, Type (0, 0), BuildingBlock: XIVTED_clean_linker_0, # of connection points: 2
#     Edge 24, Type (0, 0), BuildingBlock: XIVTED_clean_linker_0, # of connection points: 2
#     Edge 25, Type (0, 0), BuildingBlock: XIVTED_clean_linker_0, # of connection points: 2
#     Edge 26, Type (0, 0), BuildingBlock: XIVTED_clean_linker_0, # of connection points: 2
#     Edge 27, Type (0, 0), BuildingBlock: XIVTED_clean_linker_0, # of connection points: 2
#     Edge 28, Type (0, 0), BuildingBlock: XIVTED_clean_linker_0, # of connection points: 2
#     Edge 29, Type (0, 0), BuildingBlock: XIVTED_clean_linker_0, # of connection points: 2
#     Edge 30, Type (0, 0), BuildingBlock: XIVTED_clean_linker_0, # of connection points: 2
#     Edge 31, Type (0, 0), BuildingBlock: XIVTED_clean_linker_0, # of connection points: 2
#     Edge 32, Type (0, 0), BuildingBlock: XIVTED_clean_linker_0, # of connection points: 2
#     Edge 33, Type (0, 0), BuildingBlock: XIVTED_clean_linker_0, # of connection points: 2
#     Edge 34, Type (0, 0), BuildingBlock: XIVTED_clean_linker_0, # of connection points: 2
#     Edge 35, Type (0, 0), BuildingBlock: XIVTED_clean_linker_0, # of connection points: 2
# Relax obj value: 0.234
# Max RMSD: 0.181
# Mean RMSD: 0.177
data_MOF--net-unf--node1-CEKHIL_clean_sbu_0--edge1-XIVTED_clean_linker_0
_symmetry_space_group_name_H-M    P1
_symmetry_Int_Tables_number       1
_symmetry_cell_setting            triclinic
loop_
_symmetry_equiv_pos_as_xyz
'x, y, z'
_cell_length_a     38.465932
_cell_length_b     38.197684
_cell_length_c     36.209911
_cell_angle_alpha  89.690242
_cell_angle_beta   90.705476
_cell_angle_gamma 120.25521
loop_
_atom_site_label
_atom_site_type_symbol
_atom_site_fract_x
_atom_site_fract_y
_atom_site_fract_z
_atom_type_partial_charge
Co0 Co 0.10585 0.40785 0.0759 0.0
O1 O 0.14242 0.4397 0.1149 0.0
O2 O 0.10125 0.37321 0.11688 0.0
C3 C 0.08016 0.44795 0.06259 0.0
O4 O 0.06285 0.36532 0.04189 0.0
Co5 Co 0.12003 0.44236 0.99604 0.0
O6 O 0.06624 0.39432 0.9867 0.0
C7 C 0.17074 0.41125 0.02497 0.0
C8 C 0.1293 0.4059 0.13287 0.0
C9 C 0.04918 0.36466 0.00909 0.0
O10 O 0.14884 0.39898 0.05402 0.0
O11 O 0.16597 0.43173 -0.00063 0.0
O12 O 0.06692 0.42352 0.09073 0.0
O13 O 0.11179 0.45128 0.04709 0.0
Co14 Co 0.57137 0.68444 0.08672 0.0
O15 O 0.54016 0.69762 0.1186 0.0
O16 O 0.60564 0.72109 0.12503 0.0
C17 C 0.52853 0.61738 0.08403 0.0
O18 O 0.61301 0.67591 0.06005 0.0
Co19 Co 0.53851 0.64664 0.00914 0.0
O20 O 0.58148 0.6324 0.01313 0.0
C21 C 0.5722 0.73437 0.02042 0.0
C22 C 0.57329 0.71994 0.13696 0.0
C23 C 0.61171 0.65172 0.03468 0.0
O24 O 0.58276 0.73153 0.05366 0.0
O25 O 0.55214 0.70377 -0.00082 0.0
O26 O 0.55296 0.63283 0.11214 0.0
O27 O 0.52774 0.64315 0.06141 0.0
Co28 Co 0.3117 0.88133 0.07676 0.0
O29 O 0.3014 0.83955 0.11224 0.0
O30 O 0.28053 0.88394 0.11664 0.0
C31 C 0.37766 0.90508 0.068 0.0
O32 O 0.31776 0.92956 0.04764 0.0
Co33 Co 0.33761 0.87811 0.99648 0.0
O34 O 0.34813 0.93453 0.99364 0.0
C35 C 0.25286 0.82622 0.01709 0.0
C36 C 0.28188 0.85324 0.13062 0.0
C37 C 0.33449 0.94858 0.01772 0.0
O38 O 0.26058 0.84331 0.04902 0.0
O39 O 0.28001 0.83378 0.9932 0.0
O40 O 0.3658 0.91599 0.09698 0.0
O41 O 0.34937 0.87638 0.04851 0.0
Co42 Co 0.57079 0.88351 0.42611 0.0
O43 O 0.5391 0.84319 0.38951 0.0
O44 O 0.6034 0.89031 0.38379 0.0
C45 C 0.52695 0.90358 0.44074 0.0
O46 O 0.61253 0.93076 0.45642 0.0
Co47 Co 0.54442 0.87196 0.50811 0.0
O48 O 0.5888 0.92915 0.51324 0.0
C49 C 0.57779 0.82426 0.47811 0.0
C50 C 0.57158 0.85926 0.36981 0.0
C51 C 0.61518 0.94669 0.48827 0.0
O52 O 0.58777 0.84621 0.44884 0.0
O53 O 0.55658 0.82681 0.50375 0.0
O54 O 0.54815 0.91696 0.41087 0.0
O55 O 0.52869 0.87444 0.4574 0.0
Co56 Co 0.10876 0.68039 0.4148 0.0
O57 O 0.15388 0.69501 0.38349 0.0
O58 O 0.10934 0.71507 0.37543 0.0
C59 C 0.08758 0.61403 0.41889 0.0
O60 O 0.05736 0.66966 0.44066 0.0
Co61 Co 0.10521 0.64521 0.49329 0.0
O62 O 0.04724 0.62792 0.4886 0.0
C63 C 0.15545 0.73326 0.48074 0.0
C64 C 0.14149 0.71536 0.36412 0.0
C65 C 0.03501 0.64543 0.46626 0.0
O66 O 0.14246 0.72895 0.4472 0.0
O67 O 0.14608 0.70347 0.50267 0.0
O68 O 0.07787 0.62796 0.39014 0.0
O69 O 0.1133 0.64102 0.44132 0.0
Co70 Co 0.29568 0.40569 0.42472 0.0
O71 O 0.28947 0.43887 0.38807 0.0
O72 O 0.26478 0.37265 0.38321 0.0
C73 C 0.36175 0.44593 0.43691 0.0
O74 O 0.29747 0.36198 0.45585 0.0
Co75 Co 0.31813 0.43549 0.50574 0.0
O76 O 0.33242 0.39228 0.5077 0.0
C77 C 0.23524 0.40508 0.47958 0.0
C78 C 0.26866 0.4058 0.36905 0.0
C79 C 0.31701 0.36257 0.48519 0.0
O80 O 0.24442 0.39526 0.44883 0.0
O81 O 0.26091 0.42354 0.50555 0.0
O82 O 0.34991 0.42274 0.40784 0.0
O83 O 0.33368 0.44799 0.45439 0.0
Co84 Co 0.89064 0.59275 0.92284 0.0
O85 O 0.92125 0.5672 0.91125 0.0
O86 O 0.89022 0.56035 0.96424 0.0
C87 C 0.85683 0.57998 0.86875 0.0
O88 O 0.85515 0.61319 0.94403 0.0
Co89 Co 0.90381 0.66822 0.87815 0.0
O90 O 0.85986 0.66438 0.90904 0.0
C91 C 0.9674 0.67333 0.92706 0.0
C92 C 0.91338 0.55233 0.94444 0.0
C93 C 0.84498 0.63976 0.93599 0.0
O94 O 0.94121 0.64066 0.94318 0.0
O95 O 0.9594 0.68704 0.89784 0.0
O96 O 0.84429 0.55203 0.89409 0.0
O97 O 0.89082 0.61221 0.87563 0.0
Co98 Co 0.42149 0.30513 0.93101 0.0
O99 O 0.45292 0.29444 0.89658 0.0
O100 O 0.39023 0.28081 0.88704 0.0
C101 C 0.46752 0.3682 0.94774 0.0
O102 O 0.38024 0.31367 0.95825 0.0
Co103 Co 0.44342 0.31895 0.01453 0.0
O104 O 0.40315 0.3368 0.01559 0.0
C105 C 0.40656 0.23673 0.98406 0.0
C106 C 0.42134 0.27965 0.87506 0.0
C107 C 0.37811 0.329 0.98916 0.0
O108 O 0.40062 0.2498 0.95322 0.0
O109 O 0.42559 0.25991 0.01137 0.0
O110 O 0.44812 0.36168 0.9165 0.0
O111 O 0.46289 0.33627 0.96468 0.0
Co112 Co 0.69757 0.09341 0.91228 0.0
O113 O 0.64034 0.06718 0.90645 0.0
O114 O 0.67378 0.0966 0.95803 0.0
C115 C 0.71424 0.12786 0.85879 0.0
O116 O 0.75682 0.12446 0.92746 0.0
Co117 Co 0.74562 0.07189 0.85725 0.0
O118 O 0.79242 0.11877 0.88129 0.0
C119 C 0.69399 0.0123 0.912 0.0
C120 C 0.63932 0.07549 0.94098 0.0
C121 C 0.79042 0.13423 0.91178 0.0
O122 O 0.69185 0.04052 0.9291 0.0
O123 O 0.71083 0.01758 0.88061 0.0
O124 O 0.70472 0.14211 0.88707 0.0
O125 O 0.70853 0.09176 0.86272 0.0
Co126 Co 0.38788 0.08828 0.59517 0.0
O127 O 0.41493 0.0581 0.60338 0.0
O128 O 0.41689 0.09008 0.55147 0.0
C129 C 0.404 0.12236 0.64888 0.0
O130 O 0.36504 0.12316 0.57701 0.0
Co131 Co 0.31576 0.07232 0.64455 0.0
O132 O 0.31617 0.11648 0.61513 0.0
C133 C 0.30731 0.01062 0.59204 0.0
C134 C 0.42681 0.06673 0.5694 0.0
C135 C 0.33864 0.13231 0.58718 0.0
O136 O 0.33952 0.03747 0.57614 0.0
O137 O 0.29485 0.01719 0.62238 0.0
O138 O 0.42986 0.13509 0.62213 0.0
O139 O 0.3721 0.08745 0.64375 0.0
Co140 Co 0.88024 0.30542 0.57569 0.0
O141 O 0.83855 0.29597 0.61011 0.0
O142 O 0.8865 0.28072 0.61962 0.0
C143 C 0.89877 0.36884 0.55904 0.0
O144 O 0.92952 0.3126 0.54846 0.0
Co145 Co 0.87267 0.31986 0.49222 0.0
O146 O 0.93051 0.33649 0.49135 0.0
C147 C 0.82594 0.2376 0.52233 0.0
C148 C 0.85479 0.28068 0.63165 0.0
C149 C 0.94723 0.3279 0.51766 0.0
O150 O 0.84468 0.25023 0.55338 0.0
O151 O 0.8308 0.26108 0.49512 0.0
O152 O 0.91141 0.36196 0.59023 0.0
O153 O 0.87092 0.3372 0.54214 0.0
Co154 Co 0.69422 0.58226 0.57689 0.0
O155 O 0.63802 0.55787 0.58806 0.0
O156 O 0.66226 0.54634 0.53726 0.0
C157 C 0.71533 0.5744 0.63295 0.0
O158 O 0.75015 0.60092 0.55629 0.0
Co159 Co 0.75683 0.66159 0.61682 0.0
O160 O 0.79678 0.65477 0.58868 0.0
C161 C 0.7019 0.66416 0.56153 0.0
C162 C 0.63107 0.54049 0.55593 0.0
C163 C 0.78692 0.62813 0.5635 0.0
O164 O 0.69121 0.6278 0.55174 0.0
O165 O 0.72567 0.68232 0.58876 0.0
O166 O 0.69993 0.54436 0.60961 0.0
O167 O 0.71361 0.60599 0.62301 0.0
H168 H 0.20275 0.38371 0.07781 0.0
H169 H 0.33134 0.33688 0.93574 0.0
H170 H 0.20967 0.4124 0.96163 0.0
H171 H 0.35238 0.34516 0.05363 0.0
H172 H 0.28102 0.35728 0.94441 0.0
H173 H 0.2526 0.36278 0.06914 0.0
C174 C 0.21476 0.38566 0.05049 0.0
C175 C 0.202 0.39988 0.0204 0.0
C176 C 0.29665 0.35456 0.96834 0.0
C177 C 0.25878 0.3756 0.01028 0.0
C178 C 0.32518 0.34265 0.96346 0.0
C179 C 0.34609 0.33923 0.99401 0.0
C180 C 0.28863 0.36263 0.00406 0.0
C181 C 0.33708 0.34748 0.02926 0.0
C182 C 0.24328 0.37378 0.04559 0.0
C183 C 0.21875 0.40184 0.98566 0.0
N184 N 0.30895 0.35866 0.03332 0.0
N185 N 0.24609 0.38961 0.98151 0.0
H186 H 0.57153 0.75463 0.94803 0.0
H187 H 0.66953 0.99163 0.9836 0.0
H188 H 0.60497 0.80707 0.05727 0.0
H189 H 0.67545 0.94049 0.87935 0.0
H190 H 0.63704 0.92373 0.01072 0.0
H191 H 0.59968 0.8224 0.92211 0.0
C192 C 0.58445 0.78033 0.96666 0.0
C193 C 0.58611 0.77512 0.00493 0.0
C194 C 0.64559 0.92753 0.98195 0.0
C195 C 0.61848 0.85283 0.97525 0.0
C196 C 0.66409 0.96619 0.96642 0.0
C197 C 0.67544 0.97178 0.92916 0.0
C198 C 0.63788 0.89424 0.95992 0.0
C199 C 0.66754 0.93769 0.90823 0.0
C200 C 0.60074 0.81903 0.95176 0.0
C201 C 0.60331 0.80969 0.02759 0.0
N202 N 0.64908 0.90035 0.92387 0.0
N203 N 0.61889 0.84717 0.01238 0.0
H204 H 0.18584 0.79063 0.06117 0.0
H205 H 0.03488 0.72843 0.89111 0.0
H206 H 0.22287 0.80045 0.9476 0.0
H207 H 0.99496 0.66782 0.99618 0.0
H208 H 0.10393 0.76256 0.91417 0.0
H209 H 0.11531 0.75125 0.04047 0.0
C210 C 0.17922 0.78428 0.03199 0.0
C211 C 0.21036 0.79905 0.00606 0.0
C212 C 0.08008 0.74177 0.93219 0.0
C213 C 0.13012 0.75483 0.98242 0.0
C214 C 0.04057 0.72249 0.91917 0.0
C215 C 0.00903 0.69528 0.94179 0.0
C216 C 0.08825 0.73435 0.96832 0.0
C217 C 0.0184 0.68856 0.97782 0.0
C218 C 0.13905 0.7618 0.02029 0.0
C219 C 0.2 0.78976 0.96863 0.0
N220 N 0.05726 0.70821 0.99013 0.0
N221 N 0.16081 0.76868 0.95794 0.0
H222 H 0.62548 0.63097 0.53421 0.0
H223 H 0.64947 0.83551 0.454 0.0
H224 H 0.73694 0.74469 0.54536 0.0
H225 H 0.54418 0.75214 0.51537 0.0
H226 H 0.67988 0.79401 0.46886 0.0
H227 H 0.59339 0.66757 0.5085 0.0
C228 C 0.64333 0.66352 0.53056 0.0
C229 C 0.68381 0.68504 0.54198 0.0
C230 C 0.64994 0.7847 0.47861 0.0
C231 C 0.64766 0.72647 0.51231 0.0
C232 C 0.6325 0.80812 0.47007 0.0
C233 C 0.59439 0.79727 0.48374 0.0
C234 C 0.62864 0.74973 0.50009 0.0
C235 C 0.57378 0.76165 0.50462 0.0
C236 C 0.62498 0.68425 0.51618 0.0
C237 C 0.70559 0.72716 0.53706 0.0
N238 N 0.59115 0.73897 0.51212 0.0
N239 N 0.68724 0.74659 0.52242 0.0
H240 H 0.19571 0.80508 0.44262 0.0
H241 H 0.24934 0.94056 0.62371 0.0
H242 H 0.17145 0.75579 0.55313 0.0
H243 H 0.31299 0.98827 0.52151 0.0
H244 H 0.21359 0.87323 0.59592 0.0
H245 H 0.23319 0.87346 0.46904 0.0
C246 C 0.19839 0.80859 0.47237 0.0
C247 C 0.1804 0.77465 0.4957 0.0
C248 C 0.23539 0.89847 0.5796 0.0
C249 C 0.22257 0.85249 0.52588 0.0
C250 C 0.25562 0.93696 0.59535 0.0
C251 C 0.28421 0.97011 0.57491 0.0
C252 C 0.24339 0.89311 0.543 0.0
C253 C 0.29127 0.96352 0.53831 0.0
C254 C 0.2198 0.84755 0.48737 0.0
C255 C 0.18491 0.78098 0.53404 0.0
N256 N 0.27085 0.92573 0.52343 0.0
N257 N 0.20526 0.81913 0.54791 0.0
H258 H 0.00095 0.33258 0.57083 0.0
H259 H 0.17569 0.3813 0.42725 0.0
H260 H 0.98939 0.3449 0.45338 0.0
H261 H 0.19777 0.40285 0.54446 0.0
H262 H 0.10543 0.36132 0.43675 0.0
H263 H 0.07128 0.35135 0.56204 0.0
C264 C 0.01305 0.3389 0.54318 0.0
C265 C 0.98917 0.33709 0.51278 0.0
C266 C 0.12566 0.3705 0.46039 0.0
C267 C 0.06954 0.35863 0.50262 0.0
C268 C 0.1658 0.38183 0.45502 0.0
C269 C 0.19276 0.39381 0.48512 0.0
C270 C 0.11211 0.37068 0.49616 0.0
C271 C 0.17813 0.39402 0.52043 0.0
C272 C 0.05326 0.34986 0.53824 0.0
C273 C 0.00662 0.34597 0.47764 0.0
N274 N 0.13873 0.38243 0.52501 0.0
N275 N 0.04567 0.35624 0.47353 0.0
H276 H 0.61322 0.58532 0.00972 0.0
H277 H 0.83931 0.70638 0.95139 0.0
H278 H 0.6911 0.70901 0.0447 0.0
H279 H 0.77995 0.57746 0.97039 0.0
H280 H 0.78437 0.70839 0.98273 0.0
H281 H 0.67256 0.58137 0.99253 0.0
C282 C 0.64288 0.61152 0.01406 0.0
C283 C 0.64736 0.64767 0.02835 0.0
C284 C 0.78363 0.67976 0.98048 0.0
C285 C 0.71508 0.64351 0.00829 0.0
C286 C 0.81482 0.67854 0.96245 0.0
C287 C 0.814 0.64165 0.95817 0.0
C288 C 0.75086 0.64368 0.99347 0.0
C289 C 0.78172 0.60651 0.97321 0.0
C290 C 0.67665 0.60916 0.00444 0.0
C291 C 0.68639 0.6806 0.03377 0.0
N292 N 0.75099 0.60825 0.98966 0.0
N293 N 0.71879 0.67799 0.02309 0.0
H294 H 0.38437 0.18023 0.92909 0.0
H295 H 0.32461 -0.00404 0.06798 0.0
H296 H 0.3937 0.19336 0.0478 0.0
H297 H 0.35588 -0.00623 0.95415 0.0
H298 H 0.33765 0.06489 0.05905 0.0
H299 H 0.362 0.10822 0.93625 0.0
C300 C 0.38143 0.16793 0.95665 0.0
C301 C 0.39118 0.19288 0.98792 0.0
C302 C 0.34147 0.0492 0.03602 0.0
C303 C 0.36546 0.1107 0.99618 0.0
C304 C 0.33387 0.00979 0.04101 0.0
C305 C 0.33945 0.98914 0.01182 0.0
C306 C 0.35437 0.06799 0.00153 0.0
C307 C 0.35153 0.00868 0.9775 0.0
C308 C 0.36882 0.12692 0.96067 0.0
C309 C 0.38689 0.17534 0.02294 0.0
N310 N 0.35866 0.0471 0.97331 0.0
N311 N 0.37432 0.13529 0.02612 0.0
H312 H 0.02703 0.33974 0.93818 0.0
H313 H 0.80377 0.16644 0.98206 0.0
H314 H 0.98695 0.30687 0.05047 0.0
H315 H 0.86447 0.17374 0.88024 0.0
H316 H 0.86782 0.22052 0.00781 0.0
H317 H 0.96454 0.28177 0.91628 0.0
C318 C 0.00505 0.32021 0.95827 0.0
C319 C 0.01215 0.32816 0.99621 0.0
C320 C 0.86695 0.20991 0.97996 0.0
C321 C 0.94022 0.26174 0.97122 0.0
C322 C 0.83047 0.17924 0.96519 0.0
C323 C 0.82866 0.16557 0.92888 0.0
C324 C 0.90154 0.22733 0.95801 0.0
C325 C 0.86426 0.18315 0.90835 0.0
C326 C 0.96943 0.287 0.94574 0.0
C327 C 0.98268 0.30165 0.02099 0.0
N328 N 0.89904 0.21325 0.92309 0.0
N329 N 0.94769 0.26972 0.00803 0.0
H330 H 0.27076 0.13682 0.57601 0.0
H331 H 0.3826 0.36352 0.51476 0.0
H332 H 0.3974 0.19825 0.55106 0.0
H333 H 0.26165 0.28214 0.47585 0.0
H334 H 0.38836 0.30503 0.53396 0.0
H335 H 0.26565 0.19126 0.54495 0.0
C336 C 0.29741 0.16168 0.5638 0.0
C337 C 0.33461 0.16325 0.56617 0.0
C338 C 0.36075 0.30001 0.52085 0.0
C339 C 0.32904 0.22555 0.53131 0.0
C340 C 0.35735 0.33325 0.51013 0.0
C341 C 0.32151 0.32742 0.49395 0.0
C342 C 0.32768 0.26082 0.51627 0.0
C343 C 0.28977 0.28773 0.48822 0.0
C344 C 0.2944 0.19249 0.54594 0.0
C345 C 0.36817 0.19592 0.54971 0.0
N346 N 0.29331 0.25578 0.50001 0.0
N347 N 0.36476 0.22624 0.53348 0.0
H348 H 0.79631 0.19563 0.45785 0.0
H349 H 0.6374 0.98927 0.55359 0.0
H350 H 0.79061 0.17988 0.57627 0.0
H351 H 0.67083 -0.00168 0.43895 0.0
H352 H 0.69135 0.05942 0.56291 0.0
H353 H 0.74774 0.12367 0.4506 0.0
C354 C 0.78485 0.17703 0.48235 0.0
C355 C 0.79741 0.19382 0.51772 0.0
C356 C 0.687 0.04583 0.53583 0.0
C357 C 0.74166 0.11138 0.50959 0.0
C358 C 0.65619 0.00584 0.53045 0.0
C359 C 0.64939 0.9879 0.49537 0.0
C360 C 0.71079 0.06808 0.50583 0.0
C361 C 0.67481 0.01082 0.46646 0.0
C362 C 0.75727 0.13589 0.47818 0.0
C363 C 0.78177 0.16815 0.54847 0.0
N364 N 0.70412 0.0498 0.47228 0.0
N365 N 0.75441 0.12819 0.5437 0.0
H366 H 0.96938 0.57859 0.49404 0.0
H367 H 0.85677 0.69487 0.54343 0.0
H368 H 0.00851 0.69865 0.45222 0.0
H369 H 0.79192 0.56451 0.53447 0.0
H370 H 0.91382 0.69715 0.51225 0.0
H371 H 0.90494 0.57222 0.51089 0.0
C372 C 0.96422 0.60346 0.48809 0.0
C373 C 0.99442 0.6394 0.47206 0.0
C374 C 0.88695 0.66807 0.51667 0.0
C375 C 0.92117 0.63246 0.49169 0.0
C376 C 0.85449 0.66671 0.53465 0.0
C377 C 0.81974 0.62941 0.54171 0.0
C378 C 0.88511 0.6318 0.50647 0.0
C379 C 0.81821 0.59386 0.52948 0.0
C380 C 0.92741 0.59969 0.49753 0.0
C381 C 0.98605 0.67048 0.46458 0.0
N382 N 0.85079 0.59586 0.51298 0.0
N383 N 0.95045 0.6666 0.47508 0.0
H384 H 0.27492 0.47107 0.3319 0.0
H385 H 0.11554 0.33923 0.17338 0.0
H386 H 0.21664 0.34066 0.32634 0.0
H387 H 0.18485 0.46995 0.17383 0.0
H388 H 0.14933 0.33857 0.23099 0.0
H389 H 0.23985 0.47073 0.27522 0.0
C390 C 0.25483 0.44233 0.31867 0.0
C391 C 0.24877 0.40583 0.33384 0.0
C392 C 0.15704 0.36737 0.21851 0.0
C393 C 0.20819 0.40519 0.26891 0.0
C394 C 0.13764 0.36778 0.18572 0.0
C395 C 0.1474 0.40471 0.16878 0.0
C396 C 0.18627 0.40417 0.2345 0.0
C397 C 0.1764 0.44077 0.18588 0.0
C398 C 0.23475 0.44216 0.28628 0.0
C399 C 0.2223 0.36951 0.31551 0.0
N400 N 0.19478 0.43958 0.21774 0.0
N401 N 0.2029 0.37009 0.28404 0.0
H402 H 0.5088 0.71717 0.17006 0.0
H403 H 0.63744 0.87822 0.32773 0.0
H404 H 0.63807 0.77401 0.1791 0.0
H405 H 0.50839 0.80027 0.3304 0.0
H406 H 0.63874 0.84614 0.26977 0.0
H407 H 0.5087 0.75321 0.22531 0.0
C408 C 0.53724 0.73733 0.18364 0.0
C409 C 0.57351 0.74247 0.17005 0.0
C410 C 0.61016 0.83617 0.28303 0.0
C411 C 0.57358 0.78395 0.23342 0.0
C412 C 0.60936 0.85455 0.316 0.0
C413 C 0.57273 0.8418 0.33391 0.0
C414 C 0.57404 0.80509 0.26777 0.0
C415 C 0.5373 0.81094 0.31758 0.0
C416 C 0.53713 0.75785 0.21526 0.0
C417 C 0.60942 0.76905 0.18877 0.0
N418 N 0.53885 0.79367 0.28544 0.0
N419 N 0.60856 0.78885 0.21957 0.0
H420 H 0.23067 0.86849 0.17004 0.0
H421 H 0.20446 0.71428 0.33186 0.0
H422 H 0.28669 0.79495 0.17055 0.0
H423 H 0.12746 0.76567 0.31973 0.0
H424 H 0.23914 0.74875 0.27562 0.0
H425 H 0.19661 0.83599 0.22755 0.0
C426 C 0.23589 0.84558 0.1823 0.0
C427 C 0.26154 0.83436 0.16553 0.0
C428 C 0.21466 0.75252 0.28519 0.0
C429 C 0.22282 0.79725 0.23123 0.0
C430 C 0.19488 0.73292 0.31739 0.0
C431 C 0.16293 0.73704 0.33044 0.0
C432 C 0.20265 0.77668 0.2659 0.0
C433 C 0.15187 0.7616 0.31053 0.0
C434 C 0.21635 0.827 0.21504 0.0
C435 C 0.26712 0.80446 0.18252 0.0
N436 N 0.17176 0.78058 0.2792 0.0
N437 N 0.24799 0.78702 0.21448 0.0
H438 H 0.79131 0.51215 0.83905 0.0
H439 H 0.7606 0.63796 0.67853 0.0
H440 H 0.86999 0.64029 0.82105 0.0
H441 H 0.71436 0.50944 0.66743 0.0
H442 H 0.79308 0.6376 0.73642 0.0
H443 H 0.75518 0.50877 0.78124 0.0
C444 C 0.80083 0.5395 0.82308 0.0
C445 C 0.83365 0.57656 0.83483 0.0
C446 C 0.77591 0.60943 0.72135 0.0
C447 C 0.79259 0.57296 0.76941 0.0
C448 C 0.75726 0.60958 0.68828 0.0
C449 C 0.73493 0.5737 0.66802 0.0
C450 C 0.77194 0.57305 0.73468 0.0
C451 C 0.73156 0.53781 0.68216 0.0
C452 C 0.78039 0.5375 0.79013 0.0
C453 C 0.84492 0.61107 0.81311 0.0
N454 N 0.74981 0.53832 0.71482 0.0
N455 N 0.82435 0.60845 0.78163 0.0
H456 H 0.35532 0.23308 0.83209 0.0
H457 H 0.47142 0.19176 0.67268 0.0
H458 H 0.48371 0.28133 0.83752 0.0
H459 H 0.34663 0.11046 0.69865 0.0
H460 H 0.47701 0.23315 0.72669 0.0
H461 H 0.35212 0.19677 0.77572 0.0
C462 C 0.38291 0.23631 0.82125 0.0
C463 C 0.41982 0.26006 0.8396 0.0
C464 C 0.44849 0.20621 0.72041 0.0
C465 C 0.41633 0.21863 0.77509 0.0
C466 C 0.44525 0.18268 0.68967 0.0
C467 C 0.40853 0.14762 0.68127 0.0
C468 C 0.41455 0.19486 0.7423 0.0
C469 C 0.37554 0.13716 0.70413 0.0
C470 C 0.38102 0.21542 0.78919 0.0
C471 C 0.45462 0.26312 0.8243 0.0
N472 N 0.37928 0.16079 0.73346 0.0
N473 N 0.45205 0.2426 0.79283 0.0
H474 H 0.72308 0.20125 0.83811 0.0
H475 H 0.87129 0.23157 0.67384 0.0
H476 H 0.75247 0.11081 0.80532 0.0
H477 H 0.79723 0.28685 0.67036 0.0
H478 H 0.83799 0.19658 0.73058 0.0
H479 H 0.7592 0.24184 0.78379 0.0
C480 C 0.73712 0.19 0.81958 0.0
C481 C 0.73482 0.15266 0.82619 0.0
C482 C 0.82916 0.2165 0.71745 0.0
C483 C 0.77644 0.19891 0.76498 0.0
C484 C 0.84826 0.23663 0.6852 0.0
C485 C 0.83676 0.26189 0.66729 0.0
C486 C 0.79873 0.22208 0.73219 0.0
C487 C 0.80672 0.26734 0.68324 0.0
C488 C 0.75759 0.21307 0.7887 0.0
C489 C 0.75347 0.13939 0.80137 0.0
N490 N 0.78866 0.24756 0.71493 0.0
N491 N 0.77372 0.16261 0.77204 0.0
H492 H 0.09808 0.49448 0.00055 0.0
H493 H 0.96112 0.53022 0.90836 0.0
H494 H 0.00832 0.43911 0.0852 0.0
H495 H 0.91299 0.52771 0.01601 0.0
H496 H 0.00164 0.50395 0.93536 0.0
H497 H 0.05681 0.51787 0.9699 0.0
C498 C 0.06955 0.4871 0.01262 0.0
C499 C 0.05648 0.46454 0.04532 0.0
C500 C 0.98269 0.5096 0.95327 0.0
C501 C 0.00821 0.49015 0.00967 0.0
C502 C 0.95903 0.52408 0.93773 0.0
C503 C 0.93395 0.53162 0.96003 0.0
C504 C 0.98163 0.50293 0.99153 0.0
C505 C 0.93211 0.52255 0.99784 0.0
C506 C 0.04566 0.50001 0.9948 0.0
C507 C 0.01945 0.45629 0.05993 0.0
N508 N 0.95581 0.50881 0.01247 0.0
N509 N -0.00341 0.46916 0.04201 0.0
H510 H 0.46878 0.57577 0.03443 0.0
H511 H 0.50825 0.39114 0.0138 0.0
H512 H 0.55503 0.56514 0.10377 0.0
H513 H 0.4569 0.43121 0.92845 0.0
H514 H 0.52012 0.44923 0.05179 0.0
H515 H 0.45488 0.51433 0.00197 0.0
C516 C 0.48417 0.55992 0.04331 0.0
C517 C 0.51323 0.57555 0.07158 0.0
C518 C 0.50659 0.44536 0.02461 0.0
C519 C 0.49827 0.50587 0.03401 0.0
C520 C 0.50006 0.41248 0.00285 0.0
C521 C 0.48152 0.40639 0.96798 0.0
C522 C 0.49397 0.47181 0.01146 0.0
C523 C 0.47136 0.43477 0.95511 0.0
C524 C 0.47659 0.52515 0.02451 0.0
C525 C 0.53226 0.55387 0.08215 0.0
N526 N 0.47736 0.46602 0.97702 0.0
N527 N 0.52477 0.52018 0.063 0.0
H528 H 0.44187 0.97332 0.09837 0.0
H529 H 0.56465 0.02873 0.91124 0.0
H530 H 0.40622 0.89491 0.00298 0.0
H531 H 0.62563 0.078 0.01527 0.0
H532 H 0.50195 0.98835 0.94405 0.0
H533 H 0.50643 0.01883 0.06848 0.0
C534 C 0.44773 0.96548 0.07137 0.0
C535 C 0.41852 0.93039 0.05301 0.0
C536 C 0.52899 0.00814 0.95974 0.0
C537 C 0.49143 0.98254 0.01862 0.0
C538 C 0.5648 0.0315 0.94101 0.0
C539 C 0.60056 0.05654 0.96058 0.0
C540 C 0.52865 0.00991 -0.00161 0.0
C541 C 0.59873 0.05897 -0.00085 0.0
C542 C 0.48442 0.9915 0.05435 0.0
C543 C 0.42763 0.92172 0.01807 0.0
N544 N 0.56328 0.0357 0.01693 0.0
N545 N 0.46305 0.9478 0.0019 0.0
H546 H 0.49082 0.88911 0.50805 0.0
H547 H 0.45436 0.07748 0.49838 0.0
H548 H 0.52528 0.97015 0.4147 0.0
H549 H 0.44192 0.00929 0.5977 0.0
H550 H 0.47849 0.03765 0.46624 0.0
H551 H 0.46897 0.93077 0.53986 0.0
C552 C 0.49352 0.91551 0.49411 0.0
C553 C 0.50997 0.92622 0.45869 0.0
C554 C 0.47076 0.03165 0.49515 0.0
C555 C 0.4852 0.97424 0.49506 0.0
C556 C 0.45715 0.05447 0.51354 0.0
C557 C 0.4461 0.04668 0.55078 0.0
C558 C 0.47296 0.00059 0.51405 0.0
C559 C 0.45015 0.01639 0.56901 0.0
C560 C 0.48125 0.93944 0.51239 0.0
C561 C 0.51274 0.96078 0.442 0.0
N562 N 0.46297 -0.00572 0.55041 0.0
N563 N 0.5005 0.9836 0.46034 0.0
H564 H 0.88113 0.39219 0.49334 0.0
H565 H 0.10633 0.57524 0.47111 0.0
H566 H 0.97376 0.43039 0.57743 0.0
H567 H 0.00973 0.55965 0.39852 0.0
H568 H 0.05902 0.51473 0.50483 0.0
H569 H 0.92799 0.44886 0.45459 0.0
C570 C 0.91111 0.41288 0.50386 0.0
C571 C 0.92365 0.40665 0.5386 0.0
C572 C 0.04818 0.52423 0.4813 0.0
C573 C 0.9774 0.47055 0.49424 0.0
C574 C 0.07525 0.55846 0.46179 0.0
C575 C 0.06177 0.57247 0.43222 0.0
C576 C 0.0073 0.50393 0.47121 0.0
C577 C 0.02128 0.54968 0.42114 0.0
C578 C 0.93785 0.44494 0.48165 0.0
C579 C 0.96277 0.43415 0.5509 0.0
N580 N -0.00479 0.51664 0.44101 0.0
N581 N 0.98838 0.46471 0.52858 0.0
H582 H 0.39146 0.4879 0.50139 0.0
H583 H 0.60673 0.50481 0.4876 0.0
H584 H 0.42384 0.43784 0.41044 0.0
H585 H 0.5626 0.53196 0.58605 0.0
H586 H 0.54099 0.48114 0.45787 0.0
H587 H 0.4559 0.5073 0.53119 0.0
C588 C 0.41226 0.48123 0.48754 0.0
C589 C 0.40223 0.46117 0.45339 0.0
C590 C 0.54564 0.49192 0.48609 0.0
C591 C 0.47613 0.48314 0.4875 0.0
C592 C 0.58307 0.50524 0.50314 0.0
C593 C 0.5902 0.52044 0.53935 0.0
C594 C 0.51532 0.49422 0.50531 0.0
C595 C 0.55851 0.5205 0.55811 0.0
C596 C 0.44899 0.4921 0.5047 0.0
C597 C 0.4304 0.45332 0.43676 0.0
N598 N 0.52264 0.50796 0.54078 0.0
N599 N 0.4661 0.46432 0.45397 0.0
loop_
_geom_bond_atom_site_label_1
_geom_bond_atom_site_label_2
_geom_bond_distance
_geom_bond_site_symmetry_2
_ccdc_geom_bond_type
Co0 O1 2.216 . S
Co0 O2 2.091 . S
Co0 O4 2.004 . S
Co0 O10 2.021 . S
Co0 O12 2.137 . S
Co0 O13 2.244 . S
O1 Co0 2.216 . S
O1 C8 1.247 . S
O2 Co0 2.091 . S
O2 C8 1.261 . S
C3 O12 1.247 . S
C3 O13 1.272 . S
O4 Co0 2.004 . S
O4 C9 1.259 . S
Co5 O6 2.061 1_556 S
Co5 O11 2.052 1_556 S
Co5 O13 2.135 1_556 S
O6 Co5 2.061 1_554 S
O6 C9 1.235 . S
C7 O10 1.238 . S
C7 O11 1.241 . S
C8 O1 1.247 . S
C8 O2 1.261 . S
C9 O4 1.259 . S
C9 O6 1.235 . S
O10 Co0 2.021 . S
O10 C7 1.238 . S
O11 Co5 2.052 1_554 S
O11 C7 1.241 . S
O12 Co0 2.137 . S
O12 C3 1.247 . S
O13 Co0 2.244 . S
O13 C3 1.272 . S
O13 Co5 2.135 1_554 S
Co14 O15 2.216 . S
Co14 O16 2.091 . S
Co14 O18 2.004 . S
Co14 O24 2.021 . S
Co14 O26 2.137 . S
Co14 O27 2.244 . S
O15 Co14 2.216 . S
O15 C22 1.247 . S
O16 Co14 2.091 . S
O16 C22 1.261 . S
C17 O26 1.247 . S
C17 O27 1.272 . S
O18 Co14 2.004 . S
O18 C23 1.259 . S
Co19 O20 2.061 1_556 S
Co19 O25 2.052 1_556 S
Co19 O27 2.135 1_556 S
O20 Co19 2.061 1_554 S
O20 C23 1.235 . S
C21 O24 1.238 . S
C21 O25 1.241 . S
C22 O15 1.247 . S
C22 O16 1.261 . S
C23 O18 1.259 . S
C23 O20 1.235 . S
O24 Co14 2.021 . S
O24 C21 1.238 . S
O25 Co19 2.052 1_554 S
O25 C21 1.241 . S
O26 Co14 2.137 . S
O26 C17 1.247 . S
O27 Co14 2.244 . S
O27 C17 1.272 . S
O27 Co19 2.135 1_554 S
Co28 O29 2.216 . S
Co28 O30 2.091 . S
Co28 O32 2.004 . S
Co28 O38 2.021 . S
Co28 O40 2.137 . S
Co28 O41 2.244 . S
O29 Co28 2.216 . S
O29 C36 1.247 . S
O30 Co28 2.091 . S
O30 C36 1.261 . S
C31 O40 1.247 . S
C31 O41 1.272 . S
O32 Co28 2.004 . S
O32 C37 1.259 . S
Co33 O34 2.061 1_556 S
Co33 O39 2.052 1_556 S
Co33 O41 2.135 1_556 S
O34 Co33 2.061 1_554 S
O34 C37 1.235 . S
C35 O38 1.238 . S
C35 O39 1.241 . S
C36 O29 1.247 . S
C36 O30 1.261 . S
C37 O32 1.259 . S
C37 O34 1.235 . S
O38 Co28 2.021 . S
O38 C35 1.238 . S
O39 Co33 2.052 1_554 S
O39 C35 1.241 . S
O40 Co28 2.137 . S
O40 C31 1.247 . S
O41 Co28 2.244 . S
O41 C31 1.272 . S
O41 Co33 2.135 1_554 S
Co42 O43 2.216 . S
Co42 O44 2.091 . S
Co42 O46 2.004 . S
Co42 O52 2.021 . S
Co42 O54 2.137 . S
Co42 O55 2.244 . S
O43 Co42 2.216 . S
O43 C50 1.247 . S
O44 Co42 2.091 . S
O44 C50 1.261 . S
C45 O54 1.247 . S
C45 O55 1.272 . S
O46 Co42 2.004 . S
O46 C51 1.259 . S
Co47 O48 2.061 . S
Co47 O53 2.052 . S
Co47 O55 2.135 . S
O48 Co47 2.061 . S
O48 C51 1.235 . S
C49 O52 1.238 . S
C49 O53 1.241 . S
C50 O43 1.247 . S
C50 O44 1.261 . S
C51 O46 1.259 . S
C51 O48 1.235 . S
O52 Co42 2.021 . S
O52 C49 1.238 . S
O53 Co47 2.052 . S
O53 C49 1.241 . S
O54 Co42 2.137 . S
O54 C45 1.247 . S
O55 Co42 2.244 . S
O55 C45 1.272 . S
O55 Co47 2.135 . S
Co56 O57 2.216 . S
Co56 O58 2.091 . S
Co56 O60 2.004 . S
Co56 O66 2.021 . S
Co56 O68 2.137 . S
Co56 O69 2.244 . S
O57 Co56 2.216 . S
O57 C64 1.247 . S
O58 Co56 2.091 . S
O58 C64 1.261 . S
C59 O68 1.247 . S
C59 O69 1.272 . S
O60 Co56 2.004 . S
O60 C65 1.259 . S
Co61 O62 2.061 . S
Co61 O67 2.052 . S
Co61 O69 2.135 . S
O62 Co61 2.061 . S
O62 C65 1.235 . S
C63 O66 1.238 . S
C63 O67 1.241 . S
C64 O57 1.247 . S
C64 O58 1.261 . S
C65 O60 1.259 . S
C65 O62 1.235 . S
O66 Co56 2.021 . S
O66 C63 1.238 . S
O67 Co61 2.052 . S
O67 C63 1.241 . S
O68 Co56 2.137 . S
O68 C59 1.247 . S
O69 Co56 2.244 . S
O69 C59 1.272 . S
O69 Co61 2.135 . S
Co70 O71 2.216 . S
Co70 O72 2.091 . S
Co70 O74 2.004 . S
Co70 O80 2.021 . S
Co70 O82 2.137 . S
Co70 O83 2.244 . S
O71 Co70 2.216 . S
O71 C78 1.247 . S
O72 Co70 2.091 . S
O72 C78 1.261 . S
C73 O82 1.247 . S
C73 O83 1.272 . S
O74 Co70 2.004 . S
O74 C79 1.259 . S
Co75 O76 2.061 . S
Co75 O81 2.052 . S
Co75 O83 2.135 . S
O76 Co75 2.061 . S
O76 C79 1.235 . S
C77 O80 1.238 . S
C77 O81 1.241 . S
C78 O71 1.247 . S
C78 O72 1.261 . S
C79 O74 1.259 . S
C79 O76 1.235 . S
O80 Co70 2.021 . S
O80 C77 1.238 . S
O81 Co75 2.052 . S
O81 C77 1.241 . S
O82 Co70 2.137 . S
O82 C73 1.247 . S
O83 Co70 2.244 . S
O83 C73 1.272 . S
O83 Co75 2.135 . S
Co84 O85 2.216 . S
Co84 O86 2.091 . S
Co84 O88 2.004 . S
Co84 O94 2.021 . S
Co84 O96 2.137 . S
Co84 O97 2.244 . S
O85 Co84 2.216 . S
O85 C92 1.247 . S
O86 Co84 2.091 . S
O86 C92 1.261 . S
C87 O96 1.247 . S
C87 O97 1.272 . S
O88 Co84 2.004 . S
O88 C93 1.259 . S
Co89 O90 2.061 . S
Co89 O95 2.052 . S
Co89 O97 2.135 . S
O90 Co89 2.061 . S
O90 C93 1.235 . S
C91 O94 1.238 . S
C91 O95 1.241 . S
C92 O85 1.247 . S
C92 O86 1.261 . S
C93 O88 1.259 . S
C93 O90 1.235 . S
O94 Co84 2.021 . S
O94 C91 1.238 . S
O95 Co89 2.052 . S
O95 C91 1.241 . S
O96 Co84 2.137 . S
O96 C87 1.247 . S
O97 Co84 2.244 . S
O97 C87 1.272 . S
O97 Co89 2.135 . S
Co98 O99 2.216 . S
Co98 O100 2.091 . S
Co98 O102 2.004 . S
Co98 O108 2.021 . S
Co98 O110 2.137 . S
Co98 O111 2.244 . S
O99 Co98 2.216 . S
O99 C106 1.247 . S
O100 Co98 2.091 . S
O100 C106 1.261 . S
C101 O110 1.247 . S
C101 O111 1.272 . S
O102 Co98 2.004 . S
O102 C107 1.259 . S
Co103 O104 2.061 1_554 S
Co103 O109 2.052 1_554 S
Co103 O111 2.135 1_554 S
O104 Co103 2.061 1_556 S
O104 C107 1.235 . S
C105 O108 1.238 . S
C105 O109 1.241 . S
C106 O99 1.247 . S
C106 O100 1.261 . S
C107 O102 1.259 . S
C107 O104 1.235 . S
O108 Co98 2.021 . S
O108 C105 1.238 . S
O109 Co103 2.052 1_556 S
O109 C105 1.241 . S
O110 Co98 2.137 . S
O110 C101 1.247 . S
O111 Co98 2.244 . S
O111 C101 1.272 . S
O111 Co103 2.135 1_556 S
Co112 O113 2.216 . S
Co112 O114 2.091 . S
Co112 O116 2.004 . S
Co112 O122 2.021 . S
Co112 O124 2.137 . S
Co112 O125 2.244 . S
O113 Co112 2.216 . S
O113 C120 1.247 . S
O114 Co112 2.091 . S
O114 C120 1.261 . S
C115 O124 1.247 . S
C115 O125 1.272 . S
O116 Co112 2.004 . S
O116 C121 1.259 . S
Co117 O118 2.061 . S
Co117 O123 2.052 . S
Co117 O125 2.135 . S
O118 Co117 2.061 . S
O118 C121 1.235 . S
C119 O122 1.238 . S
C119 O123 1.241 . S
C120 O113 1.247 . S
C120 O114 1.261 . S
C121 O116 1.259 . S
C121 O118 1.235 . S
O122 Co112 2.021 . S
O122 C119 1.238 . S
O123 Co117 2.052 . S
O123 C119 1.241 . S
O124 Co112 2.137 . S
O124 C115 1.247 . S
O125 Co112 2.244 . S
O125 C115 1.272 . S
O125 Co117 2.135 . S
Co126 O127 2.216 . S
Co126 O128 2.091 . S
Co126 O130 2.004 . S
Co126 O136 2.021 . S
Co126 O138 2.137 . S
Co126 O139 2.244 . S
O127 Co126 2.216 . S
O127 C134 1.247 . S
O128 Co126 2.091 . S
O128 C134 1.261 . S
C129 O138 1.247 . S
C129 O139 1.272 . S
O130 Co126 2.004 . S
O130 C135 1.259 . S
Co131 O132 2.061 . S
Co131 O137 2.052 . S
Co131 O139 2.135 . S
O132 Co131 2.061 . S
O132 C135 1.235 . S
C133 O136 1.238 . S
C133 O137 1.241 . S
C134 O127 1.247 . S
C134 O128 1.261 . S
C135 O130 1.259 . S
C135 O132 1.235 . S
O136 Co126 2.021 . S
O136 C133 1.238 . S
O137 Co131 2.052 . S
O137 C133 1.241 . S
O138 Co126 2.137 . S
O138 C129 1.247 . S
O139 Co126 2.244 . S
O139 C129 1.272 . S
O139 Co131 2.135 . S
Co140 O141 2.216 . S
Co140 O142 2.091 . S
Co140 O144 2.004 . S
Co140 O150 2.021 . S
Co140 O152 2.137 . S
Co140 O153 2.244 . S
O141 Co140 2.216 . S
O141 C148 1.247 . S
O142 Co140 2.091 . S
O142 C148 1.261 . S
C143 O152 1.247 . S
C143 O153 1.272 . S
O144 Co140 2.004 . S
O144 C149 1.259 . S
Co145 O146 2.061 . S
Co145 O151 2.052 . S
Co145 O153 2.135 . S
O146 Co145 2.061 . S
O146 C149 1.235 . S
C147 O150 1.238 . S
C147 O151 1.241 . S
C148 O141 1.247 . S
C148 O142 1.261 . S
C149 O144 1.259 . S
C149 O146 1.235 . S
O150 Co140 2.021 . S
O150 C147 1.238 . S
O151 Co145 2.052 . S
O151 C147 1.241 . S
O152 Co140 2.137 . S
O152 C143 1.247 . S
O153 Co140 2.244 . S
O153 C143 1.272 . S
O153 Co145 2.135 . S
Co154 O155 2.216 . S
Co154 O156 2.091 . S
Co154 O158 2.004 . S
Co154 O164 2.021 . S
Co154 O166 2.137 . S
Co154 O167 2.244 . S
O155 Co154 2.216 . S
O155 C162 1.247 . S
O156 Co154 2.091 . S
O156 C162 1.261 . S
C157 O166 1.247 . S
C157 O167 1.272 . S
O158 Co154 2.004 . S
O158 C163 1.259 . S
Co159 O160 2.061 . S
Co159 O165 2.052 . S
Co159 O167 2.135 . S
O160 Co159 2.061 . S
O160 C163 1.235 . S
C161 O164 1.238 . S
C161 O165 1.241 . S
C162 O155 1.247 . S
C162 O156 1.261 . S
C163 O158 1.259 . S
C163 O160 1.235 . S
O164 Co154 2.021 . S
O164 C161 1.238 . S
O165 Co159 2.052 . S
O165 C161 1.241 . S
O166 Co154 2.137 . S
O166 C157 1.247 . S
O167 Co154 2.244 . S
O167 C157 1.272 . S
O167 Co159 2.135 . S
H168 C174 0.930 . S
H169 C178 0.930 . S
H170 C183 0.929 1_556 S
H171 C181 0.929 . S
H172 C176 0.929 . S
H173 C182 0.929 . S
C174 H168 0.930 . S
C174 C175 1.367 . S
C174 C182 1.378 . S
C175 C174 1.367 . S
C175 C183 1.433 . S
C176 H172 0.929 . S
C176 C178 1.378 . S
C176 C180 1.350 . S
C177 C180 1.465 . S
C177 C182 1.347 1_556 S
C177 N185 1.429 . S
C178 H169 0.930 . S
C178 C176 1.378 . S
C178 C179 1.367 . S
C179 C178 1.367 . S
C179 C181 1.433 . S
C180 C176 1.350 . S
C180 C177 1.465 . S
C180 N184 1.427 . S
C181 H171 0.929 . S
C181 C179 1.433 . S
C181 N184 1.384 . S
C182 H173 0.929 . S
C182 C174 1.378 . S
C182 C177 1.347 1_554 S
C183 H170 0.929 1_554 S
C183 C175 1.433 . S
C183 N185 1.384 1_554 S
N184 C180 1.427 . S
N184 C181 1.384 . S
N185 C177 1.429 . S
N185 C183 1.384 1_556 S
H186 C192 0.930 . S
H187 C196 0.930 1_544 S
H188 C201 0.929 . S
H189 C199 0.929 . S
H190 C194 0.929 . S
H191 C200 0.929 . S
C192 H186 0.930 . S
C192 C193 1.367 1_556 S
C192 C200 1.378 . S
C193 C192 1.367 1_554 S
C193 C201 1.433 . S
C194 H190 0.929 . S
C194 C196 1.378 1_554 S
C194 C198 1.350 1_554 S
C195 C198 1.466 . S
C195 C200 1.358 . S
C195 N203 1.415 1_556 S
C196 H187 0.930 1_566 S
C196 C194 1.378 1_556 S
C196 C197 1.367 . S
C197 C196 1.367 . S
C197 C199 1.433 . S
C198 C194 1.350 1_556 S
C198 C195 1.466 . S
C198 N202 1.427 . S
C199 H189 0.929 . S
C199 C197 1.433 . S
C199 N202 1.384 . S
C200 H191 0.929 . S
C200 C192 1.378 . S
C200 C195 1.358 . S
C201 H188 0.929 . S
C201 C193 1.433 . S
C201 N203 1.384 . S
N202 C198 1.427 . S
N202 C199 1.384 . S
N203 C195 1.415 1_554 S
N203 C201 1.384 . S
H204 C210 0.930 . S
H205 C214 0.930 . S
H206 C219 0.922 1_556 S
H207 C217 0.929 . S
H208 C212 0.929 . S
H209 C218 0.929 . S
C210 H204 0.930 . S
C210 C211 1.367 . S
C210 C218 1.378 . S
C211 C210 1.367 . S
C211 C219 1.450 . S
C212 H208 0.929 . S
C212 C214 1.378 . S
C212 C216 1.350 . S
C213 C216 1.472 . S
C213 C218 1.335 1_556 S
C213 N221 1.435 . S
C214 H205 0.930 . S
C214 C212 1.378 . S
C214 C215 1.367 . S
C215 C214 1.367 . S
C215 C217 1.433 . S
C216 C212 1.350 . S
C216 C213 1.472 . S
C216 N220 1.427 . S
C217 H207 0.929 . S
C217 C215 1.433 . S
C217 N220 1.384 . S
C218 H209 0.929 . S
C218 C210 1.378 . S
C218 C213 1.335 1_554 S
C219 H206 0.922 1_554 S
C219 C211 1.450 . S
C219 N221 1.375 1_554 S
N220 C216 1.427 . S
N220 C217 1.384 . S
N221 C213 1.435 . S
N221 C219 1.375 1_556 S
H222 C228 0.930 . S
H223 C232 0.930 . S
H224 C237 0.929 . S
H225 C235 0.929 . S
H226 C230 0.929 . S
H227 C236 0.929 . S
C228 H222 0.930 . S
C228 C229 1.367 . S
C228 C236 1.378 . S
C229 C228 1.367 . S
C229 C237 1.433 . S
C230 H226 0.929 . S
C230 C232 1.378 . S
C230 C234 1.350 . S
C231 C234 1.463 . S
C231 C236 1.350 . S
C231 N239 1.427 . S
C232 H223 0.930 . S
C232 C230 1.378 . S
C232 C233 1.367 . S
C233 C232 1.367 . S
C233 C235 1.433 . S
C234 C230 1.350 . S
C234 C231 1.463 . S
C234 N238 1.427 . S
C235 H225 0.929 . S
C235 C233 1.433 . S
C235 N238 1.384 . S
C236 H227 0.929 . S
C236 C228 1.378 . S
C236 C231 1.350 . S
C237 H224 0.929 . S
C237 C229 1.433 . S
C237 N239 1.384 . S
N238 C234 1.427 . S
N238 C235 1.384 . S
N239 C231 1.427 . S
N239 C237 1.384 . S
H240 C246 0.930 . S
H241 C250 0.930 . S
H242 C255 0.929 . S
H243 C253 0.929 1_545 S
H244 C248 0.929 . S
H245 C254 0.929 . S
C246 H240 0.930 . S
C246 C247 1.367 . S
C246 C254 1.378 . S
C247 C246 1.367 . S
C247 C255 1.433 . S
C248 H244 0.929 . S
C248 C250 1.378 . S
C248 C252 1.350 . S
C249 C252 1.463 . S
C249 C254 1.350 . S
C249 N257 1.427 . S
C250 H241 0.930 . S
C250 C248 1.378 . S
C250 C251 1.367 . S
C251 C250 1.367 . S
C251 C253 1.433 . S
C252 C248 1.350 . S
C252 C249 1.463 . S
C252 N256 1.427 . S
C253 H243 0.929 1_565 S
C253 C251 1.433 . S
C253 N256 1.384 . S
C254 H245 0.929 . S
C254 C246 1.378 . S
C254 C249 1.350 . S
C255 H242 0.929 . S
C255 C247 1.433 . S
C255 N257 1.384 . S
N256 C252 1.427 . S
N256 C253 1.384 . S
N257 C249 1.427 . S
N257 C255 1.384 . S
H258 C264 0.930 . S
H259 C268 0.930 . S
H260 C273 0.926 1_655 S
H261 C271 0.929 . S
H262 C266 0.929 . S
H263 C272 0.929 . S
C264 H258 0.930 . S
C264 C265 1.367 . S
C264 C272 1.378 . S
C265 C264 1.367 . S
C265 C273 1.433 . S
C266 H262 0.929 . S
C266 C268 1.378 . S
C266 C270 1.350 . S
C267 C270 1.463 . S
C267 C272 1.350 . S
C267 N275 1.427 . S
C268 H259 0.930 . S
C268 C266 1.378 . S
C268 C269 1.367 . S
C269 C268 1.367 . S
C269 C271 1.433 . S
C270 C266 1.350 . S
C270 C267 1.463 . S
C270 N274 1.427 . S
C271 H261 0.929 . S
C271 C269 1.433 . S
C271 N274 1.384 . S
C272 H263 0.929 . S
C272 C264 1.378 . S
C272 C267 1.350 . S
C273 H260 0.926 1_455 S
C273 C265 1.433 . S
C273 N275 1.384 . S
N274 C270 1.427 . S
N274 C271 1.384 . S
N275 C267 1.427 . S
N275 C273 1.384 . S
H276 C282 0.930 . S
H277 C286 0.930 . S
H278 C291 0.929 . S
H279 C289 0.929 . S
H280 C284 0.929 . S
H281 C290 0.929 . S
C282 H276 0.930 . S
C282 C283 1.367 . S
C282 C290 1.378 . S
C283 C282 1.367 . S
C283 C291 1.433 . S
C284 H280 0.929 . S
C284 C286 1.378 . S
C284 C288 1.350 . S
C285 C288 1.463 1_554 S
C285 C290 1.350 . S
C285 N293 1.427 . S
C286 H277 0.930 . S
C286 C284 1.378 . S
C286 C287 1.367 . S
C287 C286 1.367 . S
C287 C289 1.433 . S
C288 C284 1.350 . S
C288 C285 1.463 1_556 S
C288 N292 1.427 . S
C289 H279 0.929 . S
C289 C287 1.433 . S
C289 N292 1.384 . S
C290 H281 0.929 . S
C290 C282 1.378 . S
C290 C285 1.350 . S
C291 H278 0.929 . S
C291 C283 1.433 . S
C291 N293 1.384 . S
N292 C288 1.427 . S
N292 C289 1.384 . S
N293 C285 1.427 . S
N293 C291 1.384 . S
H294 C300 0.930 . S
H295 C304 0.930 . S
H296 C309 0.929 . S
H297 C307 0.929 1_565 S
H298 C302 0.929 . S
H299 C308 0.929 . S
C300 H294 0.930 . S
C300 C301 1.367 . S
C300 C308 1.378 . S
C301 C300 1.367 . S
C301 C309 1.433 1_556 S
C302 H298 0.929 . S
C302 C304 1.378 . S
C302 C306 1.350 . S
C303 C306 1.463 1_556 S
C303 C308 1.350 . S
C303 N311 1.427 1_556 S
C304 H295 0.930 . S
C304 C302 1.378 . S
C304 C305 1.367 . S
C305 C304 1.367 . S
C305 C307 1.433 1_554 S
C306 C302 1.350 . S
C306 C303 1.463 1_554 S
C306 N310 1.427 1_554 S
C307 H297 0.929 1_545 S
C307 C305 1.433 1_556 S
C307 N310 1.384 . S
C308 H299 0.929 . S
C308 C300 1.378 . S
C308 C303 1.350 . S
C309 H296 0.929 . S
C309 C301 1.433 1_554 S
C309 N311 1.384 . S
N310 C306 1.427 1_556 S
N310 C307 1.384 . S
N311 C303 1.427 1_554 S
N311 C309 1.384 . S
H312 C318 0.930 1_455 S
H313 C322 0.930 . S
H314 C327 0.929 . S
H315 C325 0.929 . S
H316 C320 0.929 . S
H317 C326 0.929 . S
C318 H312 0.930 1_655 S
C318 C319 1.367 1_556 S
C318 C326 1.378 . S
C319 C318 1.367 1_554 S
C319 C327 1.433 . S
C320 H316 0.929 . S
C320 C322 1.378 . S
C320 C324 1.350 1_554 S
C321 C324 1.463 1_554 S
C321 C326 1.350 1_554 S
C321 N329 1.427 . S
C322 H313 0.930 . S
C322 C320 1.378 . S
C322 C323 1.367 1_554 S
C323 C322 1.367 1_556 S
C323 C325 1.433 . S
C324 C320 1.350 1_556 S
C324 C321 1.463 1_556 S
C324 N328 1.427 . S
C325 H315 0.929 . S
C325 C323 1.433 . S
C325 N328 1.384 . S
C326 H317 0.929 . S
C326 C318 1.378 . S
C326 C321 1.350 1_556 S
C327 H314 0.929 . S
C327 C319 1.433 . S
C327 N329 1.384 . S
N328 C324 1.427 . S
N328 C325 1.384 . S
N329 C321 1.427 . S
N329 C327 1.384 . S
H330 C336 0.930 . S
H331 C340 0.930 . S
H332 C345 0.929 . S
H333 C343 0.929 . S
H334 C338 0.929 . S
H335 C344 0.929 . S
C336 H330 0.930 . S
C336 C337 1.367 . S
C336 C344 1.378 . S
C337 C336 1.367 . S
C337 C345 1.433 . S
C338 H334 0.929 . S
C338 C340 1.378 . S
C338 C342 1.350 . S
C339 C342 1.463 . S
C339 C344 1.350 . S
C339 N347 1.427 . S
C340 H331 0.930 . S
C340 C338 1.378 . S
C340 C341 1.367 . S
C341 C340 1.367 . S
C341 C343 1.433 . S
C342 C338 1.350 . S
C342 C339 1.463 . S
C342 N346 1.427 . S
C343 H333 0.929 . S
C343 C341 1.433 . S
C343 N346 1.384 . S
C344 H335 0.929 . S
C344 C336 1.378 . S
C344 C339 1.350 . S
C345 H332 0.929 . S
C345 C337 1.433 . S
C345 N347 1.384 . S
N346 C342 1.427 . S
N346 C343 1.384 . S
N347 C339 1.427 . S
N347 C345 1.384 . S
H348 C354 0.930 . S
H349 C358 0.930 . S
H350 C363 0.929 . S
H351 C361 0.929 . S
H352 C356 0.929 . S
H353 C362 0.929 . S
C354 H348 0.930 . S
C354 C355 1.367 . S
C354 C362 1.378 . S
C355 C354 1.367 . S
C355 C363 1.433 . S
C356 H352 0.929 . S
C356 C358 1.378 . S
C356 C360 1.350 . S
C357 C360 1.463 . S
C357 C362 1.350 . S
C357 N365 1.427 . S
C358 H349 0.930 . S
C358 C356 1.378 . S
C358 C359 1.367 . S
C359 C358 1.367 . S
C359 C361 1.433 . S
C360 C356 1.350 . S
C360 C357 1.463 . S
C360 N364 1.427 . S
C361 H351 0.929 . S
C361 C359 1.433 . S
C361 N364 1.384 . S
C362 H353 0.929 . S
C362 C354 1.378 . S
C362 C357 1.350 . S
C363 H350 0.929 . S
C363 C355 1.433 . S
C363 N365 1.384 . S
N364 C360 1.427 . S
N364 C361 1.384 . S
N365 C357 1.427 . S
N365 C363 1.384 . S
H366 C372 0.930 . S
H367 C376 0.930 . S
H368 C381 0.929 . S
H369 C379 0.929 . S
H370 C374 0.929 . S
H371 C380 0.929 . S
C372 H366 0.930 . S
C372 C373 1.367 . S
C372 C380 1.378 . S
C373 C372 1.367 . S
C373 C381 1.433 . S
C374 H370 0.929 . S
C374 C376 1.378 . S
C374 C378 1.350 . S
C375 C378 1.463 . S
C375 C380 1.350 . S
C375 N383 1.427 . S
C376 H367 0.930 . S
C376 C374 1.378 . S
C376 C377 1.367 . S
C377 C376 1.367 . S
C377 C379 1.433 . S
C378 C374 1.350 . S
C378 C375 1.463 . S
C378 N382 1.427 . S
C379 H369 0.929 . S
C379 C377 1.433 . S
C379 N382 1.384 . S
C380 H371 0.929 . S
C380 C372 1.378 . S
C380 C375 1.350 . S
C381 H368 0.929 . S
C381 C373 1.433 . S
C381 N383 1.384 . S
N382 C378 1.427 . S
N382 C379 1.384 . S
N383 C375 1.427 . S
N383 C381 1.384 . S
H384 C390 0.930 . S
H385 C394 0.930 . S
H386 C399 0.929 . S
H387 C397 0.929 . S
H388 C392 0.929 . S
H389 C398 0.929 . S
C390 H384 0.930 . S
C390 C391 1.367 . S
C390 C398 1.378 . S
C391 C390 1.367 . S
C391 C399 1.433 . S
C392 H388 0.929 . S
C392 C394 1.378 . S
C392 C396 1.350 . S
C393 C396 1.463 . S
C393 C398 1.350 . S
C393 N401 1.427 . S
C394 H385 0.930 . S
C394 C392 1.378 . S
C394 C395 1.367 . S
C395 C394 1.367 . S
C395 C397 1.433 . S
C396 C392 1.350 . S
C396 C393 1.463 . S
C396 N400 1.427 . S
C397 H387 0.929 . S
C397 C395 1.433 . S
C397 N400 1.384 . S
C398 H389 0.929 . S
C398 C390 1.378 . S
C398 C393 1.350 . S
C399 H386 0.929 . S
C399 C391 1.433 . S
C399 N401 1.384 . S
N400 C396 1.427 . S
N400 C397 1.384 . S
N401 C393 1.427 . S
N401 C399 1.384 . S
H402 C408 0.930 . S
H403 C412 0.930 . S
H404 C417 0.929 . S
H405 C415 0.929 . S
H406 C410 0.929 . S
H407 C416 0.929 . S
C408 H402 0.930 . S
C408 C409 1.367 . S
C408 C416 1.378 . S
C409 C408 1.367 . S
C409 C417 1.433 . S
C410 H406 0.929 . S
C410 C412 1.378 . S
C410 C414 1.350 . S
C411 C414 1.463 . S
C411 C416 1.350 . S
C411 N419 1.427 . S
C412 H403 0.930 . S
C412 C410 1.378 . S
C412 C413 1.367 . S
C413 C412 1.367 . S
C413 C415 1.433 . S
C414 C410 1.350 . S
C414 C411 1.463 . S
C414 N418 1.427 . S
C415 H405 0.929 . S
C415 C413 1.433 . S
C415 N418 1.384 . S
C416 H407 0.929 . S
C416 C408 1.378 . S
C416 C411 1.350 . S
C417 H404 0.929 . S
C417 C409 1.433 . S
C417 N419 1.384 . S
N418 C414 1.427 . S
N418 C415 1.384 . S
N419 C411 1.427 . S
N419 C417 1.384 . S
H420 C426 0.930 . S
H421 C430 0.930 . S
H422 C435 0.929 . S
H423 C433 0.929 . S
H424 C428 0.929 . S
H425 C434 0.929 . S
C426 H420 0.930 . S
C426 C427 1.367 . S
C426 C434 1.378 . S
C427 C426 1.367 . S
C427 C435 1.433 . S
C428 H424 0.929 . S
C428 C430 1.378 . S
C428 C432 1.350 . S
C429 C432 1.463 . S
C429 C434 1.350 . S
C429 N437 1.427 . S
C430 H421 0.930 . S
C430 C428 1.378 . S
C430 C431 1.367 . S
C431 C430 1.367 . S
C431 C433 1.433 . S
C432 C428 1.350 . S
C432 C429 1.463 . S
C432 N436 1.427 . S
C433 H423 0.929 . S
C433 C431 1.433 . S
C433 N436 1.384 . S
C434 H425 0.929 . S
C434 C426 1.378 . S
C434 C429 1.350 . S
C435 H422 0.929 . S
C435 C427 1.433 . S
C435 N437 1.384 . S
N436 C432 1.427 . S
N436 C433 1.384 . S
N437 C429 1.427 . S
N437 C435 1.384 . S
H438 C444 0.930 . S
H439 C448 0.930 . S
H440 C453 0.929 . S
H441 C451 0.929 . S
H442 C446 0.929 . S
H443 C452 0.929 . S
C444 H438 0.930 . S
C444 C445 1.367 . S
C444 C452 1.378 . S
C445 C444 1.367 . S
C445 C453 1.433 . S
C446 H442 0.929 . S
C446 C448 1.378 . S
C446 C450 1.350 . S
C447 C450 1.463 . S
C447 C452 1.350 . S
C447 N455 1.427 . S
C448 H439 0.930 . S
C448 C446 1.378 . S
C448 C449 1.367 . S
C449 C448 1.367 . S
C449 C451 1.433 . S
C450 C446 1.350 . S
C450 C447 1.463 . S
C450 N454 1.427 . S
C451 H441 0.929 . S
C451 C449 1.433 . S
C451 N454 1.384 . S
C452 H443 0.929 . S
C452 C444 1.378 . S
C452 C447 1.350 . S
C453 H440 0.929 . S
C453 C445 1.433 . S
C453 N455 1.384 . S
N454 C450 1.427 . S
N454 C451 1.384 . S
N455 C447 1.427 . S
N455 C453 1.384 . S
H456 C462 0.930 . S
H457 C466 0.930 . S
H458 C471 0.929 . S
H459 C469 0.929 . S
H460 C464 0.929 . S
H461 C470 0.929 . S
C462 H456 0.930 . S
C462 C463 1.367 . S
C462 C470 1.378 . S
C463 C462 1.367 . S
C463 C471 1.433 . S
C464 H460 0.929 . S
C464 C466 1.378 . S
C464 C468 1.350 . S
C465 C468 1.463 . S
C465 C470 1.350 . S
C465 N473 1.427 . S
C466 H457 0.930 . S
C466 C464 1.378 . S
C466 C467 1.367 . S
C467 C466 1.367 . S
C467 C469 1.433 . S
C468 C464 1.350 . S
C468 C465 1.463 . S
C468 N472 1.427 . S
C469 H459 0.929 . S
C469 C467 1.433 . S
C469 N472 1.384 . S
C470 H461 0.929 . S
C470 C462 1.378 . S
C470 C465 1.350 . S
C471 H458 0.929 . S
C471 C463 1.433 . S
C471 N473 1.384 . S
N472 C468 1.427 . S
N472 C469 1.384 . S
N473 C465 1.427 . S
N473 C471 1.384 . S
H474 C480 0.930 . S
H475 C484 0.930 . S
H476 C489 0.929 . S
H477 C487 0.929 . S
H478 C482 0.929 . S
H479 C488 0.929 . S
C480 H474 0.930 . S
C480 C481 1.367 . S
C480 C488 1.378 . S
C481 C480 1.367 . S
C481 C489 1.433 . S
C482 H478 0.929 . S
C482 C484 1.378 . S
C482 C486 1.350 . S
C483 C486 1.463 . S
C483 C488 1.350 . S
C483 N491 1.427 . S
C484 H475 0.930 . S
C484 C482 1.378 . S
C484 C485 1.367 . S
C485 C484 1.367 . S
C485 C487 1.433 . S
C486 C482 1.350 . S
C486 C483 1.463 . S
C486 N490 1.427 . S
C487 H477 0.929 . S
C487 C485 1.433 . S
C487 N490 1.384 . S
C488 H479 0.929 . S
C488 C480 1.378 . S
C488 C483 1.350 . S
C489 H476 0.929 . S
C489 C481 1.433 . S
C489 N491 1.384 . S
N490 C486 1.427 . S
N490 C487 1.384 . S
N491 C483 1.427 . S
N491 C489 1.384 . S
H492 C498 0.930 . S
H493 C502 0.930 . S
H494 C507 0.929 . S
H495 C505 0.929 . S
H496 C500 0.929 . S
H497 C506 0.929 . S
C498 H492 0.930 . S
C498 C499 1.367 . S
C498 C506 1.378 . S
C499 C498 1.367 . S
C499 C507 1.433 . S
C500 H496 0.929 . S
C500 C502 1.378 . S
C500 C504 1.350 . S
C501 C504 1.463 1_454 S
C501 C506 1.350 . S
C501 N509 1.427 1_554 S
C502 H493 0.930 . S
C502 C500 1.378 . S
C502 C503 1.367 . S
C503 C502 1.367 . S
C503 C505 1.433 . S
C504 C500 1.350 . S
C504 C501 1.463 1_656 S
C504 N508 1.427 1_655 S
C505 H495 0.929 . S
C505 C503 1.433 . S
C505 N508 1.384 1_655 S
C506 H497 0.929 . S
C506 C498 1.378 . S
C506 C501 1.350 . S
C507 H494 0.929 . S
C507 C499 1.433 . S
C507 N509 1.384 1_554 S
N508 C504 1.427 1_455 S
N508 C505 1.384 1_455 S
N509 C501 1.427 1_556 S
N509 C507 1.384 1_556 S
H510 C516 0.930 . S
H511 C520 0.930 . S
H512 C525 0.929 . S
H513 C523 0.929 . S
H514 C518 0.929 . S
H515 C524 0.929 . S
C516 H510 0.930 . S
C516 C517 1.367 . S
C516 C524 1.378 . S
C517 C516 1.367 . S
C517 C525 1.433 . S
C518 H514 0.929 . S
C518 C520 1.378 . S
C518 C522 1.350 . S
C519 C522 1.463 1_554 S
C519 C524 1.350 . S
C519 N527 1.427 . S
C520 H511 0.930 . S
C520 C518 1.378 . S
C520 C521 1.367 . S
C521 C520 1.367 . S
C521 C523 1.433 . S
C522 C518 1.350 . S
C522 C519 1.463 1_556 S
C522 N526 1.427 . S
C523 H513 0.929 . S
C523 C521 1.433 . S
C523 N526 1.384 . S
C524 H515 0.929 . S
C524 C516 1.378 . S
C524 C519 1.350 . S
C525 H512 0.929 . S
C525 C517 1.433 . S
C525 N527 1.384 . S
N526 C522 1.427 . S
N526 C523 1.384 . S
N527 C519 1.427 . S
N527 C525 1.384 . S
H528 C534 0.930 . S
H529 C538 0.930 . S
H530 C543 0.922 1_556 S
H531 C541 0.929 . S
H532 C536 0.929 . S
H533 C542 0.929 . S
C534 H528 0.930 . S
C534 C535 1.367 . S
C534 C542 1.378 . S
C535 C534 1.367 . S
C535 C543 1.433 . S
C536 H532 0.929 . S
C536 C538 1.378 . S
C536 C540 1.350 . S
C537 C540 1.463 1_564 S
C537 C542 1.350 . S
C537 N545 1.427 1_554 S
C538 H529 0.930 . S
C538 C536 1.378 . S
C538 C539 1.367 . S
C539 C538 1.367 . S
C539 C541 1.433 . S
C540 C536 1.350 . S
C540 C537 1.463 1_546 S
C540 N544 1.427 1_556 S
C541 H531 0.929 . S
C541 C539 1.433 . S
C541 N544 1.384 1_556 S
C542 H533 0.929 . S
C542 C534 1.378 . S
C542 C537 1.350 . S
C543 H530 0.922 1_554 S
C543 C535 1.433 . S
C543 N545 1.384 1_554 S
N544 C540 1.427 1_554 S
N544 C541 1.384 1_554 S
N545 C537 1.427 1_556 S
N545 C543 1.384 1_556 S
H546 C552 0.930 . S
H547 C556 0.930 . S
H548 C561 0.929 1_545 S
H549 C559 0.929 . S
H550 C554 0.929 . S
H551 C560 0.929 . S
C552 H546 0.930 . S
C552 C553 1.367 . S
C552 C560 1.378 . S
C553 C552 1.367 . S
C553 C561 1.433 . S
C554 H550 0.929 . S
C554 C556 1.378 . S
C554 C558 1.350 . S
C555 C558 1.463 1_565 S
C555 C560 1.350 . S
C555 N563 1.427 1_565 S
C556 H547 0.930 . S
C556 C554 1.378 . S
C556 C557 1.367 . S
C557 C556 1.367 . S
C557 C559 1.433 1_545 S
C558 C554 1.350 . S
C558 C555 1.463 1_545 S
C558 N562 1.427 1_545 S
C559 H549 0.929 . S
C559 C557 1.433 1_565 S
C559 N562 1.384 . S
C560 H551 0.929 . S
C560 C552 1.378 . S
C560 C555 1.350 . S
C561 H548 0.929 1_565 S
C561 C553 1.433 . S
C561 N563 1.384 1_565 S
N562 C558 1.427 1_565 S
N562 C559 1.384 . S
N563 C555 1.427 1_545 S
N563 C561 1.384 1_545 S
H564 C570 0.930 . S
H565 C574 0.930 . S
H566 C579 0.929 1_455 S
H567 C577 0.929 1_655 S
H568 C572 0.929 . S
H569 C578 0.929 . S
C570 H564 0.930 . S
C570 C571 1.367 . S
C570 C578 1.378 . S
C571 C570 1.367 . S
C571 C579 1.433 . S
C572 H568 0.929 . S
C572 C574 1.378 . S
C572 C576 1.350 . S
C573 C576 1.463 1_655 S
C573 C578 1.350 . S
C573 N581 1.427 1_655 S
C574 H565 0.930 . S
C574 C572 1.378 . S
C574 C575 1.367 . S
C575 C574 1.367 . S
C575 C577 1.433 . S
C576 C572 1.350 . S
C576 C573 1.463 1_455 S
C576 N580 1.427 1_455 S
C577 H567 0.929 1_455 S
C577 C575 1.433 . S
C577 N580 1.384 1_455 S
C578 H569 0.929 . S
C578 C570 1.378 . S
C578 C573 1.350 . S
C579 H566 0.929 1_655 S
C579 C571 1.433 . S
C579 N581 1.384 1_655 S
N580 C576 1.427 1_655 S
N580 C577 1.384 1_655 S
N581 C573 1.427 1_455 S
N581 C579 1.384 1_455 S
H582 C588 0.930 . S
H583 C592 0.930 . S
H584 C597 0.929 . S
H585 C595 0.929 . S
H586 C590 0.929 . S
H587 C596 0.929 . S
C588 H582 0.930 . S
C588 C589 1.367 . S
C588 C596 1.378 . S
C589 C588 1.367 . S
C589 C597 1.433 . S
C590 H586 0.929 . S
C590 C592 1.378 . S
C590 C594 1.350 . S
C591 C594 1.463 . S
C591 C596 1.350 . S
C591 N599 1.427 . S
C592 H583 0.930 . S
C592 C590 1.378 . S
C592 C593 1.367 . S
C593 C592 1.367 . S
C593 C595 1.433 . S
C594 C590 1.350 . S
C594 C591 1.463 . S
C594 N598 1.427 . S
C595 H585 0.929 . S
C595 C593 1.433 . S
C595 N598 1.384 . S
C596 H587 0.929 . S
C596 C588 1.378 . S
C596 C591 1.350 . S
C597 H584 0.929 . S
C597 C589 1.433 . S
C597 N599 1.384 . S
N598 C594 1.427 . S
N598 C595 1.384 . S
N599 C591 1.427 . S
N599 C597 1.384 . S
C175 C7 0.811 . S
C179 C107 0.805 . S
C193 C21 0.778 . S
C197 C119 0.787 1_565 S
C211 C35 0.780 . S
C215 C91 0.768 1_455 S
C229 C161 0.781 . S
C233 C49 0.774 . S
C247 C63 0.791 . S
C251 C133 0.781 1_565 S
C265 C149 0.802 1_455 S
C269 C77 0.808 . S
C283 C23 0.787 . S
C287 C93 0.784 . S
C301 C105 0.755 . S
C305 C37 0.754 1_545 S
C319 C9 0.772 1_655 S
C323 C121 0.783 . S
C337 C135 0.776 . S
C341 C79 0.765 . S
C355 C147 0.742 . S
C359 C51 0.740 1_545 S
C373 C65 0.784 1_655 S
C377 C163 0.796 . S
C391 C78 1.580 . S
C395 C8 1.574 . S
C409 C22 1.622 . S
C413 C50 1.621 . S
C427 C36 1.621 . S
C431 C64 1.622 . S
C445 C87 1.593 . S
C449 C157 1.592 . S
C463 C106 1.598 . S
C467 C129 1.591 . S
C481 C115 1.583 . S
C485 C148 1.593 . S
C499 C3 1.636 . S
C503 C92 1.638 . S
C517 C17 1.664 . S
C521 C101 1.664 . S
C535 C31 1.662 . S
C539 C120 1.663 . S
C553 C45 1.661 . S
C557 C134 1.659 . S
C571 C143 1.660 . S
C575 C59 1.660 . S
C589 C73 1.625 . S
C593 C162 1.627 . S
