# Generated by pormake.
# Topology whc, (6)-cn, num edge types: 1
# Building blocks:
#     Node 0, Type 0, BuildingBlock: IZENUY_clean_sbu_0, # of connection points: 6
#     Node 1, Type 0, BuildingBlock: IZENUY_clean_sbu_0, # of connection points: 6
#     Node 2, Type 0, BuildingBlock: IZENUY_clean_sbu_0, # of connection points: 6
#     Node 3, Type 0, BuildingBlock: IZENUY_clean_sbu_0, # of connection points: 6
#     Node 4, Type 0, BuildingBlock: IZENUY_clean_sbu_0, # of connection points: 6
#     Node 5, Type 0, BuildingBlock: IZENUY_clean_sbu_0, # of connection points: 6
#     Node 6, Type 0, BuildingBlock: IZENUY_clean_sbu_0, # of connection points: 6
#     Node 7, Type 0, BuildingBlock: IZENUY_clean_sbu_0, # of connection points: 6
#     Edge 8, Type (0, 0), BuildingBlock: KIFKEQ_clean_linker_1, # of connection points: 2
#     Edge 9, Type (0, 0), BuildingBlock: KIFKEQ_clean_linker_1, # of connection points: 2
#     Edge 10, Type (0, 0), BuildingBlock: KIFKEQ_clean_linker_1, # of connection points: 2
#     Edge 11, Type (0, 0), BuildingBlock: KIFKEQ_clean_linker_1, # of connection points: 2
#     Edge 12, Type (0, 0), BuildingBlock: KIFKEQ_clean_linker_1, # of connection points: 2
#     Edge 13, Type (0, 0), BuildingBlock: KIFKEQ_clean_linker_1, # of connection points: 2
#     Edge 14, Type (0, 0), BuildingBlock: KIFKEQ_clean_linker_1, # of connection points: 2
#     Edge 15, Type (0, 0), BuildingBlock: KIFKEQ_clean_linker_1, # of connection points: 2
#     Edge 16, Type (0, 0), BuildingBlock: KIFKEQ_clean_linker_1, # of connection points: 2
#     Edge 17, Type (0, 0), BuildingBlock: KIFKEQ_clean_linker_1, # of connection points: 2
#     Edge 18, Type (0, 0), BuildingBlock: KIFKEQ_clean_linker_1, # of connection points: 2
#     Edge 19, Type (0, 0), BuildingBlock: KIFKEQ_clean_linker_1, # of connection points: 2
#     Edge 20, Type (0, 0), BuildingBlock: KIFKEQ_clean_linker_1, # of connection points: 2
#     Edge 21, Type (0, 0), BuildingBlock: KIFKEQ_clean_linker_1, # of connection points: 2
#     Edge 22, Type (0, 0), BuildingBlock: KIFKEQ_clean_linker_1, # of connection points: 2
#     Edge 23, Type (0, 0), BuildingBlock: KIFKEQ_clean_linker_1, # of connection points: 2
#     Edge 24, Type (0, 0), BuildingBlock: KIFKEQ_clean_linker_1, # of connection points: 2
#     Edge 25, Type (0, 0), BuildingBlock: KIFKEQ_clean_linker_1, # of connection points: 2
#     Edge 26, Type (0, 0), BuildingBlock: KIFKEQ_clean_linker_1, # of connection points: 2
#     Edge 27, Type (0, 0), BuildingBlock: KIFKEQ_clean_linker_1, # of connection points: 2
#     Edge 28, Type (0, 0), BuildingBlock: KIFKEQ_clean_linker_1, # of connection points: 2
#     Edge 29, Type (0, 0), BuildingBlock: KIFKEQ_clean_linker_1, # of connection points: 2
#     Edge 30, Type (0, 0), BuildingBlock: KIFKEQ_clean_linker_1, # of connection points: 2
#     Edge 31, Type (0, 0), BuildingBlock: KIFKEQ_clean_linker_1, # of connection points: 2
# Relax obj value: 0.363
# Max RMSD: 0.283
# Mean RMSD: 0.283
data_MOF--net-whc--node1-IZENUY_clean_sbu_0--edge1-KIFKEQ_clean_linker_1
_symmetry_space_group_name_H-M    P1
_symmetry_Int_Tables_number       1
_symmetry_cell_setting            triclinic
loop_
_symmetry_equiv_pos_as_xyz
'x, y, z'
_cell_length_a     35.492446
_cell_length_b     35.541879
_cell_length_c     30.061268
_cell_angle_alpha  90.2706
_cell_angle_beta   90.335309
_cell_angle_gamma 89.482415
loop_
_atom_site_label
_atom_site_type_symbol
_atom_site_fract_x
_atom_site_fract_y
_atom_site_fract_z
_atom_type_partial_charge
Fe0 Fe 0.52282 0.20535 0.10578 0.0
Fe1 Fe 0.43876 0.20034 0.08381 0.0
O2 O 0.47682 0.2247 0.10877 0.0
Fe3 Fe 0.46962 0.26798 0.13654 0.0
O4 O 0.50279 0.29206 0.10046 0.0
O5 O 0.54751 0.25005 0.10853 0.0
O6 O 0.52208 0.20951 0.04565 0.0
C7 C 0.4972 0.19395 0.02172 0.0
C8 C 0.51815 0.22688 0.19256 0.0
O9 O 0.46752 0.18086 0.03878 0.0
C10 C 0.40589 0.23144 0.16205 0.0
O11 O 0.50754 0.15687 0.10292 0.0
O12 O 0.44741 0.15869 0.11886 0.0
O13 O 0.50564 0.25842 0.17916 0.0
O14 O 0.52447 0.20034 0.16551 0.0
C15 C 0.42237 0.27354 0.06023 0.0
O16 O 0.40319 0.21668 0.12381 0.0
O17 O 0.43577 0.24747 0.1743 0.0
C18 C 0.47908 0.14185 0.11994 0.0
O19 O 0.42798 0.24003 0.04722 0.0
O20 O 0.43229 0.28414 0.09881 0.0
C21 C 0.53683 0.2823 0.09639 0.0
Fe22 Fe 0.20339 0.58046 0.89788 0.0
Fe23 Fe 0.19928 0.49594 0.87554 0.0
O24 O 0.22412 0.5388 0.87532 0.0
Fe25 Fe 0.27003 0.54051 0.85235 0.0
O26 O 0.28986 0.55446 0.90558 0.0
O27 O 0.24882 0.60036 0.91611 0.0
O28 O 0.20068 0.55988 0.95202 0.0
C29 C 0.1867 0.52859 0.96162 0.0
C30 C 0.23629 0.60909 0.8244 0.0
O31 O 0.1789 0.5042 0.93174 0.0
C32 C 0.23072 0.50077 0.78896 0.0
O33 O 0.15379 0.56748 0.88579 0.0
O34 O 0.15981 0.51613 0.84628 0.0
O35 O 0.26519 0.5895 0.83402 0.0
O36 O 0.20554 0.60439 0.84455 0.0
C37 C 0.27029 0.46893 0.89349 0.0
O38 O 0.21581 0.48126 0.81955 0.0
O39 O 0.25239 0.52755 0.79833 0.0
C40 C 0.13988 0.54288 0.86 0.0
O41 O 0.23644 0.47165 0.90471 0.0
O42 O 0.28384 0.49152 0.86555 0.0
C43 C 0.27979 0.58404 0.9259 0.0
Fe44 Fe 0.58171 0.80587 0.09543 0.0
Fe45 Fe 0.54341 0.73777 0.13749 0.0
O46 O 0.54025 0.78383 0.1152 0.0
Fe47 Fe 0.49604 0.80698 0.11264 0.0
O48 O 0.50463 0.82804 0.05708 0.0
O49 O 0.56252 0.80968 0.04039 0.0
O50 O 0.60346 0.76114 0.0764 0.0
C51 C 0.58799 0.73029 0.06525 0.0
C52 C 0.53973 0.86758 0.1325 0.0
O53 O 0.55847 0.71938 0.08435 0.0
C54 C 0.50095 0.77524 0.19939 0.0
O55 O 0.60459 0.80284 0.14971 0.0
O56 O 0.59204 0.74284 0.15711 0.0
O57 O 0.51284 0.84698 0.14282 0.0
O58 O 0.56662 0.85475 0.10909 0.0
C59 C 0.47313 0.73546 0.09348 0.0
O60 O 0.52908 0.75459 0.19109 0.0
O61 O 0.48113 0.78957 0.16805 0.0
C62 C 0.61043 0.77164 0.16857 0.0
O63 O 0.49524 0.72302 0.12304 0.0
O64 O 0.47469 0.76917 0.08193 0.0
C65 C 0.53067 0.82207 0.02878 0.0
Fe66 Fe 0.81113 0.51448 0.88642 0.0
Fe67 Fe 0.74502 0.4674 0.85361 0.0
O68 O 0.78866 0.47036 0.8817 0.0
Fe69 Fe 0.80983 0.42996 0.90569 0.0
O70 O 0.83085 0.45614 0.95216 0.0
O71 O 0.80658 0.51316 0.94646 0.0
O72 O 0.76791 0.54292 0.88473 0.0
C73 C 0.73512 0.53428 0.89674 0.0
C74 C 0.87184 0.46485 0.87266 0.0
O75 O 0.72339 0.50128 0.89122 0.0
C76 C 0.77634 0.40127 0.82582 0.0
O77 O 0.81637 0.51667 0.82666 0.0
O78 O 0.75694 0.50354 0.81293 0.0
O79 O 0.85237 0.43515 0.87187 0.0
O80 O 0.85869 0.49496 0.88888 0.0
C81 C 0.73537 0.42067 0.92824 0.0
O82 O 0.76332 0.43295 0.81448 0.0
O83 O 0.79123 0.39672 0.8639 0.0
C84 C 0.7892 0.51342 0.79966 0.0
O85 O 0.72604 0.43085 0.88943 0.0
O86 O 0.76921 0.42261 0.94135 0.0
C87 C 0.81922 0.48645 0.97003 0.0
Fe88 Fe 0.53927 0.26429 0.63859 0.0
Fe89 Fe 0.57587 0.19901 0.58681 0.0
O90 O 0.53566 0.22079 0.61047 0.0
Fe91 Fe 0.49115 0.19908 0.60552 0.0
O92 O 0.4634 0.24281 0.60685 0.0
O93 O 0.50596 0.28653 0.60071 0.0
O94 O 0.57641 0.28254 0.60312 0.0
C95 C 0.58638 0.27313 0.5643 0.0
C96 C 0.49253 0.22096 0.69221 0.0
O97 O 0.58393 0.23941 0.55115 0.0
C98 C 0.53993 0.13761 0.6196 0.0
O99 O 0.57321 0.24533 0.67802 0.0
O100 O 0.60929 0.21708 0.6288 0.0
O101 O 0.48878 0.19394 0.66522 0.0
O102 O 0.50261 0.25308 0.6789 0.0
C103 C 0.51928 0.19016 0.52219 0.0
O104 O 0.56992 0.15666 0.62063 0.0
O105 O 0.50996 0.15124 0.60338 0.0
C106 C 0.6048 0.2319 0.6669 0.0
O107 O 0.54951 0.17838 0.54022 0.0
O108 O 0.49271 0.20343 0.54551 0.0
C109 C 0.47271 0.27545 0.59504 0.0
Fe110 Fe 0.20147 0.42696 0.39467 0.0
Fe111 Fe 0.26899 0.46666 0.35335 0.0
O112 O 0.22268 0.46879 0.37513 0.0
Fe113 Fe 0.19877 0.51263 0.37685 0.0
O114 O 0.17725 0.50437 0.4321 0.0
O115 O 0.19505 0.44648 0.44916 0.0
O116 O 0.24659 0.4078 0.41645 0.0
C117 C 0.27712 0.42427 0.42735 0.0
C118 C 0.13931 0.46723 0.35538 0.0
O119 O 0.2876 0.45365 0.40736 0.0
C120 C 0.22964 0.50596 0.29046 0.0
O121 O 0.20711 0.40295 0.34104 0.0
O122 O 0.26666 0.41747 0.33643 0.0
O123 O 0.15907 0.49516 0.34656 0.0
O124 O 0.15258 0.44017 0.37825 0.0
C125 C 0.26957 0.53721 0.39555 0.0
O126 O 0.25106 0.47845 0.29918 0.0
O127 O 0.2167 0.52709 0.3214 0.0
C128 C 0.23956 0.39657 0.32558 0.0
O129 O 0.28188 0.51572 0.36541 0.0
O130 O 0.23614 0.53457 0.4079 0.0
C131 C 0.18245 0.47825 0.46043 0.0
Fe132 Fe 0.42645 0.8056 0.59145 0.0
Fe133 Fe 0.51155 0.80821 0.61284 0.0
O134 O 0.46808 0.78419 0.61344 0.0
Fe135 Fe 0.46556 0.73834 0.63629 0.0
O136 O 0.45114 0.71899 0.58306 0.0
O137 O 0.40571 0.76065 0.5731 0.0
O138 O 0.44668 0.80826 0.53726 0.0
C139 C 0.47817 0.82152 0.527 0.0
C140 C 0.39764 0.7729 0.66488 0.0
O141 O 0.50339 0.82834 0.55637 0.0
C142 C 0.50626 0.77683 0.69961 0.0
O143 O 0.4401 0.85483 0.6036 0.0
O144 O 0.49228 0.84828 0.64168 0.0
O145 O 0.41667 0.74383 0.6548 0.0
O146 O 0.40281 0.80365 0.64499 0.0
C147 C 0.53754 0.73672 0.59575 0.0
O148 O 0.52588 0.79176 0.66907 0.0
O149 O 0.47911 0.75558 0.69024 0.0
C150 C 0.46536 0.8684 0.62872 0.0
O151 O 0.5356 0.7705 0.58415 0.0
O152 O 0.51414 0.72364 0.623 0.0
C153 C 0.4216 0.7296 0.56294 0.0
Fe154 Fe 0.80752 0.57061 0.40468 0.0
Fe155 Fe 0.73857 0.53762 0.35544 0.0
O156 O 0.78269 0.53177 0.38207 0.0
Fe157 Fe 0.80261 0.48604 0.38626 0.0
O158 O 0.79895 0.48825 0.44631 0.0
O159 O 0.82733 0.54317 0.45096 0.0
O160 O 0.76856 0.58292 0.4415 0.0
C161 C 0.73422 0.58638 0.43049 0.0
C162 C 0.8657 0.52927 0.36937 0.0
O163 O 0.7222 0.57478 0.39315 0.0
C164 C 0.78009 0.48905 0.29965 0.0
O165 O 0.79067 0.60482 0.36334 0.0
O166 O 0.75711 0.57128 0.31632 0.0
O167 O 0.85101 0.50162 0.38833 0.0
O168 O 0.84875 0.56083 0.36918 0.0
C169 C 0.72605 0.47084 0.39703 0.0
O170 O 0.74842 0.50137 0.31314 0.0
O171 O 0.80697 0.48327 0.32654 0.0
C172 C 0.77359 0.60139 0.32649 0.0
O173 O 0.71585 0.50462 0.39273 0.0
O174 O 0.75832 0.46058 0.38462 0.0
C175 C 0.81433 0.51392 0.46925 0.0
H176 H 0.29297 0.35097 0.35816 0.0
H177 H 0.21126 0.35916 0.25194 0.0
H178 H 0.32493 0.30063 0.32018 0.0
H179 H 0.2419 0.30584 0.21405 0.0
H180 H 0.34459 0.26739 0.12961 0.0
H181 H 0.29438 0.29694 0.17191 0.0
H182 H 0.33735 0.24393 0.29163 0.0
H183 H 0.38988 0.21779 0.24921 0.0
C184 C 0.28101 0.34079 0.32713 0.0
C185 C 0.25004 0.35928 0.3076 0.0
C186 C 0.29924 0.31136 0.30525 0.0
C187 C 0.28675 0.299 0.26318 0.0
C188 C 0.2532 0.31513 0.24571 0.0
C189 C 0.23513 0.34529 0.26763 0.0
C190 C 0.34269 0.26153 0.16488 0.0
C191 C 0.37114 0.24069 0.18638 0.0
C192 C 0.31363 0.27832 0.18932 0.0
C193 C 0.31182 0.27388 0.23583 0.0
C194 C 0.33838 0.24953 0.25632 0.0
C195 C 0.36831 0.23399 0.23206 0.0
H196 H 0.24002 0.68081 0.85466 0.0
H197 H 0.25038 0.61266 0.73634 0.0
H198 H 0.2704 0.73326 0.81647 0.0
H199 H 0.27979 0.6651 0.69773 0.0
H200 H 0.32665 0.76608 0.63312 0.0
H201 H 0.27475 0.73468 0.67111 0.0
H202 H 0.34095 0.73149 0.79199 0.0
H203 H 0.39293 0.76202 0.75359 0.0
C204 C 0.24709 0.6778 0.8198 0.0
C205 C 0.24241 0.64312 0.79802 0.0
C206 C 0.26474 0.70761 0.79812 0.0
C207 C 0.27742 0.70326 0.75416 0.0
C208 C 0.26983 0.66948 0.73137 0.0
C209 C 0.25294 0.63949 0.75334 0.0
C210 C 0.32925 0.76023 0.66836 0.0
C211 C 0.36332 0.76696 0.69083 0.0
C212 C 0.29977 0.74199 0.68994 0.0
C213 C 0.30383 0.73063 0.73445 0.0
C214 C 0.33679 0.74038 0.75788 0.0
C215 C 0.3665 0.75795 0.73604 0.0
H216 H 0.77073 0.67433 0.3553 0.0
H217 H 0.75448 0.60496 0.23849 0.0
H218 H 0.74037 0.72727 0.31728 0.0
H219 H 0.72476 0.65806 0.20038 0.0
H220 H 0.67983 0.76029 0.13494 0.0
H221 H 0.73142 0.72635 0.17214 0.0
H222 H 0.66933 0.72993 0.29519 0.0
H223 H 0.61761 0.76314 0.2576 0.0
C224 C 0.76198 0.67075 0.32097 0.0
C225 C 0.76475 0.63537 0.29995 0.0
C226 C 0.7444 0.70103 0.29936 0.0
C227 C 0.73006 0.69672 0.25602 0.0
C228 C 0.73583 0.66232 0.23367 0.0
C229 C 0.75273 0.63185 0.25553 0.0
C230 C 0.67819 0.75542 0.17044 0.0
C231 C 0.64528 0.76486 0.1938 0.0
C232 C 0.70745 0.73568 0.19157 0.0
C233 C 0.70431 0.72542 0.23647 0.0
C234 C 0.67275 0.73789 0.26071 0.0
C235 C 0.64322 0.75705 0.23936 0.0
H236 H 0.75827 0.39746 0.73736 0.0
H237 H 0.76474 0.33013 0.85649 0.0
H238 H 0.72399 0.34704 0.69972 0.0
H239 H 0.72983 0.28012 0.81898 0.0
H240 H 0.67636 0.24228 0.63672 0.0
H241 H 0.72679 0.27653 0.67439 0.0
H242 H 0.65934 0.28373 0.79312 0.0
H243 H 0.60851 0.2501 0.75531 0.0
C244 C 0.75332 0.3715 0.75508 0.0
C245 C 0.76417 0.36787 0.79991 0.0
C246 C 0.73373 0.34262 0.73353 0.0
C247 C 0.72402 0.3098 0.75659 0.0
C248 C 0.73682 0.30519 0.80053 0.0
C249 C 0.75707 0.33376 0.82183 0.0
C250 C 0.67269 0.2501 0.6713 0.0
C251 C 0.63832 0.24359 0.693 0.0
C252 C 0.7015 0.26997 0.6927 0.0
C253 C 0.69687 0.28298 0.73652 0.0
C254 C 0.66377 0.27382 0.7594 0.0
C255 C 0.63465 0.25461 0.73775 0.0
H256 H 0.48436 0.15394 0.73503 0.0
H257 H 0.49388 0.27378 0.75791 0.0
H258 H 0.48977 0.1431 0.81491 0.0
H259 H 0.49861 0.26288 0.83743 0.0
H260 H 0.5472 0.23126 0.96956 0.0
H261 H 0.54613 0.23483 0.88845 0.0
H262 H 0.45462 0.15548 0.88395 0.0
H263 H 0.4562 0.15115 0.96448 0.0
C264 C 0.48689 0.17796 0.75711 0.0
C265 C 0.48889 0.21468 0.74025 0.0
C266 C 0.49018 0.17173 0.80273 0.0
C267 C 0.49543 0.20213 0.83206 0.0
C268 C 0.49567 0.2389 0.81534 0.0
C269 C 0.49243 0.24513 0.76988 0.0
C270 C 0.52751 0.21395 0.95114 0.0
C271 C 0.50153 0.19129 0.97327 0.0
C272 C 0.52662 0.21627 0.90487 0.0
C273 C 0.49983 0.19591 0.8802 0.0
C274 C 0.47557 0.17142 0.90218 0.0
C275 C 0.47641 0.16912 0.94832 0.0
H276 H 0.20746 0.46582 0.00764 0.0
H277 H 0.15663 0.57557 0.0235 0.0
H278 H 0.21452 0.46075 0.088 0.0
H279 H 0.16115 0.56992 0.10408 0.0
H280 H 0.22049 0.57062 0.24057 0.0
H281 H 0.20439 0.57414 0.16133 0.0
H282 H 0.19089 0.45324 0.15768 0.0
H283 H 0.20947 0.44997 0.23525 0.0
C284 C 0.19631 0.48815 0.02854 0.0
C285 C 0.1813 0.52091 0.00942 0.0
C286 C 0.20041 0.48544 0.07485 0.0
C287 C 0.18885 0.51518 0.10321 0.0
C288 C 0.17143 0.54686 0.08375 0.0
C289 C 0.16817 0.54986 0.03749 0.0
C290 C 0.21399 0.54499 0.22256 0.0
C291 C 0.21687 0.51004 0.24375 0.0
C292 C 0.20444 0.54686 0.17715 0.0
C293 C 0.19661 0.51385 0.15234 0.0
C294 C 0.19782 0.4792 0.17469 0.0
C295 C 0.20824 0.47732 0.21945 0.0
H296 H 0.46467 0.81452 0.98126 0.0
H297 H 0.5829 0.83856 0.96635 0.0
H298 H 0.4587 0.8077 0.90036 0.0
H299 H 0.57726 0.83101 0.88621 0.0
H300 H 0.47672 0.74121 0.77128 0.0
H301 H 0.48008 0.7594 0.84897 0.0
H302 H 0.55224 0.85208 0.81524 0.0
H303 H 0.54918 0.8335 0.73666 0.0
C304 C 0.48909 0.81939 0.96069 0.0
C305 C 0.52424 0.82692 0.98027 0.0
C306 C 0.48588 0.81495 0.91437 0.0
C307 C 0.5177 0.81813 0.8867 0.0
C308 C 0.55215 0.82843 0.90622 0.0
C309 C 0.55537 0.83267 0.95233 0.0
C310 C 0.49364 0.76534 0.78022 0.0
C311 C 0.51292 0.78572 0.74748 0.0
C312 C 0.4951 0.7761 0.82493 0.0
C313 C 0.51586 0.80762 0.8385 0.0
C314 C 0.53597 0.8276 0.80602 0.0
C315 C 0.53446 0.81681 0.76098 0.0
H316 H 0.72933 0.50019 0.2324 0.0
H317 H 0.84528 0.46807 0.25808 0.0
H318 H 0.74193 0.5008 0.15295 0.0
H319 H 0.85787 0.4693 0.17853 0.0
H320 H 0.85027 0.43715 0.0292 0.0
H321 H 0.84139 0.43611 0.10928 0.0
H322 H 0.77848 0.54056 0.10187 0.0
H323 H 0.78664 0.54132 0.02135 0.0
C324 C 0.75738 0.49284 0.22111 0.0
C325 C 0.7863 0.48406 0.25155 0.0
C326 C 0.76468 0.49366 0.17565 0.0
C327 C 0.801 0.48569 0.15972 0.0
C328 C 0.82959 0.4755 0.18994 0.0
C329 C 0.82232 0.47471 0.23547 0.0
C330 C 0.83497 0.4602 0.04465 0.0
C331 C 0.81897 0.48925 0.01893 0.0
C332 C 0.82998 0.45959 0.09055 0.0
C333 C 0.80888 0.48798 0.11163 0.0
C334 C 0.7943 0.51794 0.08625 0.0
C335 C 0.79934 0.5186 0.04027 0.0
H336 H 0.50842 0.2779 0.25957 0.0
H337 H 0.53688 0.16113 0.2343 0.0
H338 H 0.50709 0.26543 0.33899 0.0
H339 H 0.53499 0.14869 0.31394 0.0
H340 H 0.56771 0.157 0.46368 0.0
H341 H 0.56882 0.16474 0.3834 0.0
H342 H 0.46568 0.23002 0.38966 0.0
H343 H 0.46485 0.22298 0.47033 0.0
C344 C 0.51478 0.24966 0.27095 0.0
C345 C 0.52274 0.22049 0.24065 0.0
C346 C 0.51356 0.24246 0.31639 0.0
C347 C 0.52029 0.20599 0.33243 0.0
C348 C 0.5297 0.17709 0.30238 0.0
C349 C 0.5309 0.18426 0.25684 0.0
C350 C 0.54495 0.17258 0.44793 0.0
C351 C 0.51631 0.18964 0.47334 0.0
C352 C 0.54558 0.17689 0.40193 0.0
C353 C 0.51763 0.19837 0.38051 0.0
C354 C 0.48797 0.21388 0.40558 0.0
C355 C 0.48727 0.20952 0.45164 0.0
H356 H 0.16457 0.42644 0.52276 0.0
H357 H 0.19105 0.54398 0.50791 0.0
H358 H 0.17284 0.4317 0.60285 0.0
H359 H 0.19853 0.5496 0.58874 0.0
H360 H 0.26604 0.53009 0.71691 0.0
H361 H 0.24689 0.52736 0.63946 0.0
H362 H 0.15335 0.4566 0.67423 0.0
H363 H 0.17294 0.45899 0.7525 0.0
C364 C 0.17107 0.45377 0.53681 0.0
C365 C 0.17735 0.48478 0.50887 0.0
C366 C 0.17575 0.45678 0.58289 0.0
C367 C 0.18702 0.49088 0.60239 0.0
C368 C 0.19058 0.52266 0.57476 0.0
C369 C 0.18571 0.51967 0.52847 0.0
C370 C 0.24153 0.5136 0.70823 0.0
C371 C 0.22121 0.4945 0.74117 0.0
C372 C 0.2302 0.51251 0.66367 0.0
C373 C 0.19815 0.49234 0.65045 0.0
C374 C 0.17823 0.47242 0.68314 0.0
C375 C 0.1896 0.47353 0.72801 0.0
H376 H 0.45986 0.83434 0.23487 0.0
H377 H 0.52731 0.73748 0.27175 0.0
H378 H 0.45749 0.8537 0.31326 0.0
H379 H 0.52473 0.75649 0.34919 0.0
H380 H 0.54386 0.81131 0.48039 0.0
H381 H 0.5492 0.80437 0.39946 0.0
H382 H 0.43166 0.83462 0.38452 0.0
H383 H 0.42669 0.84221 0.46469 0.0
C384 C 0.4735 0.81681 0.25967 0.0
C385 C 0.4936 0.78428 0.24691 0.0
C386 C 0.47248 0.82806 0.30455 0.0
C387 C 0.49163 0.80708 0.33752 0.0
C388 C 0.51062 0.77398 0.32471 0.0
C389 C 0.51159 0.76277 0.28019 0.0
C390 C 0.51963 0.81777 0.45961 0.0
C391 C 0.48487 0.82712 0.47888 0.0
C392 C 0.52244 0.81325 0.41331 0.0
C393 C 0.4906 0.8182 0.38548 0.0
C394 C 0.45674 0.83061 0.4047 0.0
C395 C 0.4539 0.83489 0.45078 0.0
H396 H 0.8557 0.52544 0.75647 0.0
H397 H 0.73602 0.51171 0.73426 0.0
H398 H 0.86596 0.52318 0.67616 0.0
H399 H 0.74638 0.50982 0.65457 0.0
H400 H 0.78024 0.46235 0.52222 0.0
H401 H 0.77709 0.46332 0.60325 0.0
H402 H 0.85014 0.55985 0.60708 0.0
H403 H 0.85386 0.55869 0.52627 0.0
C404 C 0.83158 0.52259 0.73451 0.0
C405 C 0.7951 0.51848 0.75167 0.0
C406 C 0.83749 0.52116 0.68866 0.0
C407 C 0.80702 0.5155 0.65945 0.0
C408 C 0.77044 0.5132 0.67653 0.0
C409 C 0.76452 0.51472 0.72215 0.0
C410 C 0.7962 0.4833 0.54038 0.0
C411 C 0.81699 0.51063 0.51792 0.0
C412 C 0.79414 0.48405 0.58665 0.0
C413 C 0.81292 0.51204 0.61114 0.0
C414 C 0.83546 0.53799 0.5889 0.0
C415 C 0.83742 0.53735 0.54265 0.0
H416 H 0.25076 0.42309 0.96146 0.0
H417 H 0.34223 0.44502 0.87108 0.0
H418 H 0.28824 0.37463 -0.00247 0.0
H419 H 0.37998 0.39548 0.90771 0.0
H420 H 0.41196 0.27309 0.96907 0.0
H421 H 0.3766 0.31968 0.92449 0.0
H422 H 0.34943 0.3813 0.04426 0.0
H423 H 0.3844 0.33568 0.08833 0.0
C424 C 0.27882 0.41747 0.94897 0.0
C425 C 0.29353 0.43828 0.91344 0.0
C426 C 0.3003 0.38961 0.96979 0.0
C427 C 0.33702 0.38142 0.95554 0.0
C428 C 0.35161 0.4012 0.91916 0.0
C429 C 0.33012 0.42965 0.89845 0.0
C430 C 0.39834 0.2966 0.98571 0.0
C431 C 0.4009 0.3006 0.03224 0.0
C432 C 0.37845 0.32334 0.96022 0.0
C433 C 0.36027 0.35399 0.98102 0.0
C434 C 0.36297 0.35785 0.02739 0.0
C435 C 0.38314 0.33169 0.0526 0.0
H436 H 0.35169 0.56174 0.94854 0.0
H437 H 0.26881 0.64931 0.97245 0.0
H438 H 0.39756 0.59645 0.9932 0.0
H439 H 0.31438 0.68346 0.01746 0.0
H440 H 0.46168 0.65955 0.10531 0.0
H441 H 0.41362 0.62045 0.06932 0.0
H442 H 0.37143 0.7178 -0.00125 0.0
H443 H 0.41854 0.75659 0.03455 0.0
C444 C 0.34309 0.58814 0.96369 0.0
C445 C 0.30671 0.60301 0.95631 0.0
C446 C 0.36933 0.60788 0.98952 0.0
C447 C 0.35973 0.64289 0.00843 0.0
C448 C 0.32286 0.65688 0.00264 0.0
C449 C 0.29669 0.63721 0.97692 0.0
C450 C 0.44194 0.67256 0.08233 0.0
C451 C 0.44389 0.71124 0.07305 0.0
C452 C 0.41458 0.65015 0.06158 0.0
C453 C 0.38854 0.66611 0.03148 0.0
C454 C 0.39056 0.70475 0.0224 0.0
C455 C 0.41783 0.72697 0.04282 0.0
H456 H 0.55818 0.67041 0.02092 0.0
H457 H 0.66222 0.73028 0.04208 0.0
H458 H 0.59135 0.62416 0.97523 0.0
H459 H 0.69569 0.68336 -0.00207 0.0
H460 H 0.74264 0.61014 0.88982 0.0
H461 H 0.70485 0.65891 0.92546 0.0
H462 H 0.63501 0.57356 0.98422 0.0
H463 H 0.67204 0.52479 0.94694 0.0
C464 C 0.58817 0.67365 0.01578 0.0
C465 C 0.60766 0.70386 0.03518 0.0
C466 C 0.60721 0.64704 0.98982 0.0
C467 C 0.64624 0.64985 0.98309 0.0
C468 C 0.66553 0.68059 0.00179 0.0
C469 C 0.6464 0.70745 0.0273 0.0
C470 C 0.71898 0.60182 0.91002 0.0
C471 C 0.71033 0.56366 0.91574 0.0
C472 C 0.69745 0.62978 0.93069 0.0
C473 C 0.6671 0.62022 0.95809 0.0
C474 C 0.65788 0.582 0.96289 0.0
C475 C 0.67917 0.55401 0.9417 0.0
H476 H 0.66161 0.40852 0.9074 0.0
H477 H 0.74241 0.39677 0.01477 0.0
H478 H 0.61346 0.38048 0.95319 0.0
H479 H 0.6936 0.36924 0.06116 0.0
H480 H 0.61288 0.27285 0.09817 0.0
H481 H 0.66012 0.3104 0.06193 0.0
H482 H 0.57374 0.38853 0.01821 0.0
H483 H 0.52576 0.35006 0.05399 0.0
C484 C 0.6691 0.40021 0.94095 0.0
C485 C 0.7061 0.40445 0.95719 0.0
C486 C 0.64125 0.38449 0.96741 0.0
C487 C 0.64959 0.37265 0.01087 0.0
C488 C 0.68636 0.37771 0.0276 0.0
C489 C 0.71434 0.39345 0.00104 0.0
C490 C 0.6038 0.29824 0.08126 0.0
C491 C 0.5654 0.30827 0.07864 0.0
C492 C 0.63109 0.32 0.06077 0.0
C493 C 0.62078 0.35242 0.03705 0.0
C494 C 0.58253 0.36341 0.03584 0.0
C495 C 0.55508 0.34156 0.05653 0.0
H496 H 0.59766 0.34698 0.58449 0.0
H497 H 0.61193 0.26541 0.47856 0.0
H498 H 0.62631 0.39481 0.53886 0.0
H499 H 0.64015 0.31392 0.43233 0.0
H500 H 0.73712 0.39509 0.39783 0.0
H501 H 0.69926 0.34783 0.43365 0.0
H502 H 0.61866 0.4335 0.47258 0.0
H503 H 0.65732 0.48147 0.43721 0.0
C504 C 0.60668 0.33925 0.55129 0.0
C505 C 0.60296 0.30215 0.5354 0.0
C506 C 0.62273 0.3669 0.52493 0.0
C507 C 0.63545 0.35823 0.48195 0.0
C508 C 0.63095 0.32136 0.46553 0.0
C509 C 0.61482 0.29358 0.49199 0.0
C510 C 0.71115 0.40398 0.41362 0.0
C511 C 0.7004 0.44218 0.41501 0.0
C512 C 0.68923 0.37671 0.43383 0.0
C513 C 0.65599 0.38687 0.45603 0.0
C514 C 0.6444 0.42488 0.45609 0.0
C515 C 0.66639 0.45231 0.43568 0.0
H516 H 0.48327 0.33755 0.54352 0.0
H517 H 0.39674 0.27084 0.60455 0.0
H518 H 0.43489 0.37576 0.50692 0.0
H519 H 0.34844 0.30987 0.56976 0.0
H520 H 0.27617 0.3511 0.45382 0.0
H521 H 0.32311 0.3179 0.49793 0.0
H522 H 0.38545 0.42104 0.51464 0.0
H523 H 0.33896 0.45405 0.46874 0.0
C524 C 0.4539 0.33155 0.54976 0.0
C525 C 0.44375 0.30104 0.5765 0.0
C526 C 0.42613 0.35354 0.52899 0.0
C527 C 0.38769 0.34571 0.53504 0.0
C528 C 0.37772 0.31616 0.56346 0.0
C529 C 0.40541 0.2939 0.58363 0.0
C530 C 0.29966 0.36683 0.46726 0.0
C531 C 0.30394 0.40516 0.45764 0.0
C532 C 0.32656 0.34781 0.49282 0.0
C533 C 0.35815 0.36676 0.50994 0.0
C534 C 0.36183 0.40543 0.50139 0.0
C535 C 0.33508 0.42439 0.47533 0.0
H536 H 0.35539 0.74105 0.5181 0.0
H537 H 0.4439 0.65839 0.53831 0.0
H538 H 0.32073 0.69609 0.47277 0.0
H539 H 0.40872 0.61317 0.4934 0.0
H540 H 0.34494 0.55022 0.38188 0.0
H541 H 0.3839 0.59845 0.41754 0.0
H542 H 0.28699 0.63846 0.49067 0.0
H543 H 0.24828 0.59111 0.45511 0.0
C544 C 0.36758 0.71337 0.51273 0.0
C545 C 0.4022 0.70319 0.53239 0.0
C546 C 0.34762 0.68755 0.48685 0.0
C547 C 0.36179 0.65095 0.47993 0.0
C548 C 0.39716 0.64122 0.49793 0.0
C549 C 0.41717 0.66708 0.52392 0.0
C550 C 0.33198 0.56954 0.40531 0.0
C551 C 0.29347 0.56687 0.41548 0.0
C552 C 0.35431 0.597 0.42587 0.0
C553 C 0.33845 0.62241 0.45669 0.0
C554 C 0.29994 0.6198 0.46649 0.0
C555 C 0.27777 0.59241 0.44623 0.0
H556 H 0.74896 0.63757 0.4972 0.0
H557 H 0.65807 0.57887 0.43158 0.0
H558 H 0.70289 0.67213 0.54266 0.0
H559 H 0.61242 0.61298 0.47706 0.0
H560 H 0.54208 0.65956 0.59247 0.0
H561 H 0.59144 0.62094 0.55767 0.0
H562 H 0.65218 0.72138 0.5238 0.0
H563 H 0.60302 0.75989 0.55801 0.0
C564 C 0.71926 0.63177 0.49281 0.0
C565 C 0.70716 0.60576 0.46049 0.0
C566 C 0.69291 0.6516 0.51869 0.0
C567 C 0.65404 0.64523 0.5134 0.0
C568 C 0.64214 0.61827 0.4822 0.0
C569 C 0.66833 0.59898 0.45588 0.0
C570 C 0.56617 0.67333 0.57802 0.0
C571 C 0.56849 0.7128 0.57785 0.0
C572 C 0.59434 0.65125 0.55798 0.0
C573 C 0.6257 0.66816 0.53806 0.0
C574 C 0.6286 0.70752 0.53926 0.0
C575 C 0.60023 0.72956 0.5586 0.0
H576 H 0.54198 0.11243 0.15621 0.0
H577 H 0.42888 0.08254 0.11684 0.0
H578 H 0.55831 0.04637 0.16541 0.0
H579 H 0.4453 0.01562 0.12705 0.0
H580 H 0.48562 0.90113 0.18344 0.0
H581 H 0.46889 0.96753 0.18709 0.0
H582 H 0.56493 0.9939 0.10603 0.0
H583 H 0.58148 0.9269 0.10116 0.0
C584 C 0.52032 0.09166 0.15031 0.0
C585 C 0.48423 0.10262 0.13521 0.0
C586 C 0.52985 0.05384 0.15537 0.0
C587 C 0.50338 0.02591 0.14608 0.0
C588 C 0.4663 0.03674 0.13428 0.0
C589 C 0.45677 0.07493 0.12874 0.0
C590 C 0.50358 0.92097 0.16665 0.0
C591 C 0.53485 0.90848 0.14156 0.0
C592 C 0.49369 0.95903 0.16862 0.0
C593 C 0.51523 0.98574 0.14639 0.0
C594 C 0.54778 0.97376 0.1235 0.0
C595 C 0.55741 0.93545 0.12089 0.0
H596 H 0.90589 0.48246 0.79528 0.0
H597 H 0.92798 0.45221 0.93159 0.0
H598 H 0.97053 0.50527 0.78828 0.0
H599 H 0.99261 0.47478 0.92494 0.0
H600 H 0.08421 0.5624 0.91861 0.0
H601 H 0.01952 0.53908 0.91798 0.0
H602 H 0.03852 0.48739 0.7897 0.0
H603 H 0.10294 0.51084 0.79024 0.0
C604 C 0.92521 0.47908 0.82304 0.0
C605 C 0.91245 0.46456 0.86353 0.0
C606 C 0.96202 0.49263 0.81931 0.0
C607 C 0.98648 0.49254 0.85634 0.0
C608 C 0.97425 0.47593 0.89605 0.0
C609 C 0.93759 0.46215 0.89961 0.0
C610 C 0.07415 0.54717 0.88965 0.0
C611 C 0.09864 0.53856 0.85445 0.0
C612 C 0.03735 0.53317 0.88963 0.0
C613 C 0.02417 0.51063 0.85421 0.0
C614 C 0.04778 0.50449 0.81753 0.0
C615 C 0.08463 0.51812 0.81776 0.0
H616 H 0.49981 0.9044 0.69761 0.0
H617 H 0.44287 0.9249 0.57265 0.0
H618 H 0.52194 0.96922 0.69892 0.0
H619 H 0.46492 0.98995 0.57405 0.0
H620 H 0.55038 0.08282 0.55872 0.0
H621 H 0.52875 0.01791 0.5647 0.0
H622 H 0.50245 0.03693 0.70314 0.0
H623 H 0.52431 0.10196 0.69679 0.0
C624 C 0.49114 0.92311 0.67102 0.0
C625 C 0.46956 0.90953 0.635 0.0
C626 C 0.50398 0.96021 0.67171 0.0
C627 C 0.49589 0.98448 0.63614 0.0
C628 C 0.47229 0.97164 0.60151 0.0
C629 C 0.45908 0.93459 0.60105 0.0
C630 C 0.54148 0.07253 0.59084 0.0
C631 C 0.54002 0.09689 0.62765 0.0
C632 C 0.52828 0.03569 0.59406 0.0
C633 C 0.51318 0.02249 0.63417 0.0
C634 C 0.51393 0.04623 0.67179 0.0
C635 C 0.52691 0.08325 0.6684 0.0
H636 H 0.92567 0.57883 0.36851 0.0
H637 H 0.89369 0.46525 0.33468 0.0
H638 H 0.99226 0.56135 0.35705 0.0
H639 H 0.95944 0.44789 0.32427 0.0
H640 H 0.08012 0.42591 0.38793 0.0
H641 H 0.01303 0.44239 0.38272 0.0
H642 H 0.03912 0.53536 0.2968 0.0
H643 H 0.10562 0.51858 0.30075 0.0
C644 C 0.93272 0.55059 0.35752 0.0
C645 C 0.90457 0.52335 0.353 0.0
C646 C 0.97074 0.54045 0.35126 0.0
C647 C 0.98095 0.50299 0.3407 0.0
C648 C 0.95249 0.47667 0.33329 0.0
C649 C 0.91484 0.48679 0.33904 0.0
C650 C 0.07147 0.44915 0.36693 0.0
C651 C 0.09841 0.471 0.34514 0.0
C652 C 0.0331 0.45879 0.36417 0.0
C653 C 0.02104 0.49063 0.33997 0.0
C654 C 0.04768 0.51117 0.31632 0.0
C655 C 0.08579 0.50125 0.31846 0.0
loop_
_geom_bond_atom_site_label_1
_geom_bond_atom_site_label_2
_geom_bond_distance
_geom_bond_site_symmetry_2
_ccdc_geom_bond_type
Fe0 O2 1.918 . S
Fe0 O5 1.997 . S
Fe0 O6 2.002 . S
Fe0 O11 1.976 . S
Fe0 O14 1.996 . S
Fe1 O2 1.918 . S
Fe1 O9 1.997 1_554 S
Fe1 O12 1.996 . S
Fe1 O16 1.976 . S
Fe1 O19 2.002 . S
O2 Fe0 1.918 . S
O2 Fe1 1.918 . S
O2 Fe3 1.918 . S
Fe3 O2 1.918 . S
Fe3 O4 2.002 . S
Fe3 O13 1.976 . S
Fe3 O17 1.996 . S
Fe3 O20 1.997 . S
O4 Fe3 2.002 . S
O4 C21 1.295 . S
O5 Fe0 1.997 . S
O5 C21 1.235 . S
O6 Fe0 2.002 . S
O6 C7 1.295 1_554 S
C7 O6 1.295 1_556 S
C7 O9 1.235 . S
C8 O13 1.287 . S
C8 O14 1.255 . S
O9 Fe1 1.997 1_556 S
O9 C7 1.235 . S
C10 O16 1.287 . S
C10 O17 1.255 . S
O11 Fe0 1.976 . S
O11 C18 1.287 . S
O12 Fe1 1.996 . S
O12 C18 1.255 . S
O13 Fe3 1.976 . S
O13 C8 1.287 . S
O14 Fe0 1.996 . S
O14 C8 1.255 . S
C15 O19 1.295 . S
C15 O20 1.235 . S
O16 Fe1 1.976 . S
O16 C10 1.287 . S
O17 Fe3 1.996 . S
O17 C10 1.255 . S
C18 O11 1.287 . S
C18 O12 1.255 . S
O19 Fe1 2.002 . S
O19 C15 1.295 . S
O20 Fe3 1.997 . S
O20 C15 1.235 . S
C21 O4 1.295 . S
C21 O5 1.235 . S
Fe22 O24 1.918 . S
Fe22 O27 1.997 . S
Fe22 O28 2.002 1_556 S
Fe22 O33 1.976 . S
Fe22 O36 1.996 . S
Fe23 O24 1.918 . S
Fe23 O31 1.997 . S
Fe23 O34 1.996 . S
Fe23 O38 1.976 . S
Fe23 O41 2.002 . S
O24 Fe22 1.918 . S
O24 Fe23 1.918 . S
O24 Fe25 1.918 . S
Fe25 O24 1.918 . S
Fe25 O26 2.002 . S
Fe25 O35 1.976 . S
Fe25 O39 1.996 . S
Fe25 O42 1.997 . S
O26 Fe25 2.002 . S
O26 C43 1.295 . S
O27 Fe22 1.997 . S
O27 C43 1.235 . S
O28 Fe22 2.002 1_554 S
O28 C29 1.295 . S
C29 O28 1.295 . S
C29 O31 1.235 1_554 S
C30 O35 1.287 . S
C30 O36 1.255 . S
O31 Fe23 1.997 . S
O31 C29 1.235 1_556 S
C32 O38 1.287 . S
C32 O39 1.255 . S
O33 Fe22 1.976 . S
O33 C40 1.287 . S
O34 Fe23 1.996 . S
O34 C40 1.255 . S
O35 Fe25 1.976 . S
O35 C30 1.287 . S
O36 Fe22 1.996 . S
O36 C30 1.255 . S
C37 O41 1.295 . S
C37 O42 1.235 . S
O38 Fe23 1.976 . S
O38 C32 1.287 . S
O39 Fe25 1.996 . S
O39 C32 1.255 . S
C40 O33 1.287 . S
C40 O34 1.255 . S
O41 Fe23 2.002 . S
O41 C37 1.295 . S
O42 Fe25 1.997 . S
O42 C37 1.235 . S
C43 O26 1.295 . S
C43 O27 1.235 . S
Fe44 O46 1.918 . S
Fe44 O49 1.997 1_554 S
Fe44 O50 2.002 . S
Fe44 O55 1.976 . S
Fe44 O58 1.996 . S
Fe45 O46 1.918 . S
Fe45 O53 1.997 . S
Fe45 O56 1.996 . S
Fe45 O60 1.976 . S
Fe45 O63 2.002 . S
O46 Fe44 1.918 . S
O46 Fe45 1.918 . S
O46 Fe47 1.918 . S
Fe47 O46 1.918 . S
Fe47 O48 2.002 . S
Fe47 O57 1.976 . S
Fe47 O61 1.996 . S
Fe47 O64 1.997 . S
O48 Fe47 2.002 . S
O48 C65 1.295 1_554 S
O49 Fe44 1.997 1_556 S
O49 C65 1.235 . S
O50 Fe44 2.002 . S
O50 C51 1.295 . S
C51 O50 1.295 . S
C51 O53 1.235 . S
C52 O57 1.287 . S
C52 O58 1.255 . S
O53 Fe45 1.997 . S
O53 C51 1.235 . S
C54 O60 1.287 . S
C54 O61 1.255 . S
O55 Fe44 1.976 . S
O55 C62 1.287 . S
O56 Fe45 1.996 . S
O56 C62 1.255 . S
O57 Fe47 1.976 . S
O57 C52 1.287 . S
O58 Fe44 1.996 . S
O58 C52 1.255 . S
C59 O63 1.295 . S
C59 O64 1.235 . S
O60 Fe45 1.976 . S
O60 C54 1.287 . S
O61 Fe47 1.996 . S
O61 C54 1.255 . S
C62 O55 1.287 . S
C62 O56 1.255 . S
O63 Fe45 2.002 . S
O63 C59 1.295 . S
O64 Fe47 1.997 . S
O64 C59 1.235 . S
C65 O48 1.295 1_556 S
C65 O49 1.235 . S
Fe66 O68 1.918 . S
Fe66 O71 1.997 . S
Fe66 O72 2.002 . S
Fe66 O77 1.976 . S
Fe66 O80 1.996 . S
Fe67 O68 1.918 . S
Fe67 O75 1.997 . S
Fe67 O78 1.996 . S
Fe67 O82 1.976 . S
Fe67 O85 2.002 . S
O68 Fe66 1.918 . S
O68 Fe67 1.918 . S
O68 Fe69 1.918 . S
Fe69 O68 1.918 . S
Fe69 O70 2.002 1_556 S
Fe69 O79 1.976 . S
Fe69 O83 1.996 . S
Fe69 O86 1.997 . S
O70 Fe69 2.002 1_554 S
O70 C87 1.295 . S
O71 Fe66 1.997 . S
O71 C87 1.235 1_556 S
O72 Fe66 2.002 . S
O72 C73 1.295 . S
C73 O72 1.295 . S
C73 O75 1.235 . S
C74 O79 1.287 . S
C74 O80 1.255 . S
O75 Fe67 1.997 . S
O75 C73 1.235 . S
C76 O82 1.287 . S
C76 O83 1.255 . S
O77 Fe66 1.976 . S
O77 C84 1.287 . S
O78 Fe67 1.996 . S
O78 C84 1.255 . S
O79 Fe69 1.976 . S
O79 C74 1.287 . S
O80 Fe66 1.996 . S
O80 C74 1.255 . S
C81 O85 1.295 . S
C81 O86 1.235 . S
O82 Fe67 1.976 . S
O82 C76 1.287 . S
O83 Fe69 1.996 . S
O83 C76 1.255 . S
C84 O77 1.287 . S
C84 O78 1.255 . S
O85 Fe67 2.002 . S
O85 C81 1.295 . S
O86 Fe69 1.997 . S
O86 C81 1.235 . S
C87 O70 1.295 . S
C87 O71 1.235 1_554 S
Fe88 O90 1.918 . S
Fe88 O93 1.997 . S
Fe88 O94 2.002 . S
Fe88 O99 1.976 . S
Fe88 O102 1.996 . S
Fe89 O90 1.918 . S
Fe89 O97 1.997 . S
Fe89 O100 1.996 . S
Fe89 O104 1.976 . S
Fe89 O107 2.002 . S
O90 Fe88 1.918 . S
O90 Fe89 1.918 . S
O90 Fe91 1.918 . S
Fe91 O90 1.918 . S
Fe91 O92 2.002 . S
Fe91 O101 1.976 . S
Fe91 O105 1.996 . S
Fe91 O108 1.997 . S
O92 Fe91 2.002 . S
O92 C109 1.295 . S
O93 Fe88 1.997 . S
O93 C109 1.235 . S
O94 Fe88 2.002 . S
O94 C95 1.295 . S
C95 O94 1.295 . S
C95 O97 1.235 . S
C96 O101 1.287 . S
C96 O102 1.255 . S
O97 Fe89 1.997 . S
O97 C95 1.235 . S
C98 O104 1.287 . S
C98 O105 1.255 . S
O99 Fe88 1.976 . S
O99 C106 1.287 . S
O100 Fe89 1.996 . S
O100 C106 1.255 . S
O101 Fe91 1.976 . S
O101 C96 1.287 . S
O102 Fe88 1.996 . S
O102 C96 1.255 . S
C103 O107 1.295 . S
C103 O108 1.235 . S
O104 Fe89 1.976 . S
O104 C98 1.287 . S
O105 Fe91 1.996 . S
O105 C98 1.255 . S
C106 O99 1.287 . S
C106 O100 1.255 . S
O107 Fe89 2.002 . S
O107 C103 1.295 . S
O108 Fe91 1.997 . S
O108 C103 1.235 . S
C109 O92 1.295 . S
C109 O93 1.235 . S
Fe110 O112 1.918 . S
Fe110 O115 1.997 . S
Fe110 O116 2.002 . S
Fe110 O121 1.976 . S
Fe110 O124 1.996 . S
Fe111 O112 1.918 . S
Fe111 O119 1.997 . S
Fe111 O122 1.996 . S
Fe111 O126 1.976 . S
Fe111 O129 2.002 . S
O112 Fe110 1.918 . S
O112 Fe111 1.918 . S
O112 Fe113 1.918 . S
Fe113 O112 1.918 . S
Fe113 O114 2.002 . S
Fe113 O123 1.976 . S
Fe113 O127 1.996 . S
Fe113 O130 1.997 . S
O114 Fe113 2.002 . S
O114 C131 1.295 . S
O115 Fe110 1.997 . S
O115 C131 1.235 . S
O116 Fe110 2.002 . S
O116 C117 1.295 . S
C117 O116 1.295 . S
C117 O119 1.235 . S
C118 O123 1.287 . S
C118 O124 1.255 . S
O119 Fe111 1.997 . S
O119 C117 1.235 . S
C120 O126 1.287 . S
C120 O127 1.255 . S
O121 Fe110 1.976 . S
O121 C128 1.287 . S
O122 Fe111 1.996 . S
O122 C128 1.255 . S
O123 Fe113 1.976 . S
O123 C118 1.287 . S
O124 Fe110 1.996 . S
O124 C118 1.255 . S
C125 O129 1.295 . S
C125 O130 1.235 . S
O126 Fe111 1.976 . S
O126 C120 1.287 . S
O127 Fe113 1.996 . S
O127 C120 1.255 . S
C128 O121 1.287 . S
C128 O122 1.255 . S
O129 Fe111 2.002 . S
O129 C125 1.295 . S
O130 Fe113 1.997 . S
O130 C125 1.235 . S
C131 O114 1.295 . S
C131 O115 1.235 . S
Fe132 O134 1.918 . S
Fe132 O137 1.997 . S
Fe132 O138 2.002 . S
Fe132 O143 1.976 . S
Fe132 O146 1.996 . S
Fe133 O134 1.918 . S
Fe133 O141 1.997 . S
Fe133 O144 1.996 . S
Fe133 O148 1.976 . S
Fe133 O151 2.002 . S
O134 Fe132 1.918 . S
O134 Fe133 1.918 . S
O134 Fe135 1.918 . S
Fe135 O134 1.918 . S
Fe135 O136 2.002 . S
Fe135 O145 1.976 . S
Fe135 O149 1.996 . S
Fe135 O152 1.997 . S
O136 Fe135 2.002 . S
O136 C153 1.295 . S
O137 Fe132 1.997 . S
O137 C153 1.235 . S
O138 Fe132 2.002 . S
O138 C139 1.295 . S
C139 O138 1.295 . S
C139 O141 1.235 . S
C140 O145 1.287 . S
C140 O146 1.255 . S
O141 Fe133 1.997 . S
O141 C139 1.235 . S
C142 O148 1.287 . S
C142 O149 1.255 . S
O143 Fe132 1.976 . S
O143 C150 1.287 . S
O144 Fe133 1.996 . S
O144 C150 1.255 . S
O145 Fe135 1.976 . S
O145 C140 1.287 . S
O146 Fe132 1.996 . S
O146 C140 1.255 . S
C147 O151 1.295 . S
C147 O152 1.235 . S
O148 Fe133 1.976 . S
O148 C142 1.287 . S
O149 Fe135 1.996 . S
O149 C142 1.255 . S
C150 O143 1.287 . S
C150 O144 1.255 . S
O151 Fe133 2.002 . S
O151 C147 1.295 . S
O152 Fe135 1.997 . S
O152 C147 1.235 . S
C153 O136 1.295 . S
C153 O137 1.235 . S
Fe154 O156 1.918 . S
Fe154 O159 1.997 . S
Fe154 O160 2.002 . S
Fe154 O165 1.976 . S
Fe154 O168 1.996 . S
Fe155 O156 1.918 . S
Fe155 O163 1.997 . S
Fe155 O166 1.996 . S
Fe155 O170 1.976 . S
Fe155 O173 2.002 . S
O156 Fe154 1.918 . S
O156 Fe155 1.918 . S
O156 Fe157 1.918 . S
Fe157 O156 1.918 . S
Fe157 O158 2.002 . S
Fe157 O167 1.976 . S
Fe157 O171 1.996 . S
Fe157 O174 1.997 . S
O158 Fe157 2.002 . S
O158 C175 1.295 . S
O159 Fe154 1.997 . S
O159 C175 1.235 . S
O160 Fe154 2.002 . S
O160 C161 1.295 . S
C161 O160 1.295 . S
C161 O163 1.235 . S
C162 O167 1.287 . S
C162 O168 1.255 . S
O163 Fe155 1.997 . S
O163 C161 1.235 . S
C164 O170 1.287 . S
C164 O171 1.255 . S
O165 Fe154 1.976 . S
O165 C172 1.287 . S
O166 Fe155 1.996 . S
O166 C172 1.255 . S
O167 Fe157 1.976 . S
O167 C162 1.287 . S
O168 Fe154 1.996 . S
O168 C162 1.255 . S
C169 O173 1.295 . S
C169 O174 1.235 . S
O170 Fe155 1.976 . S
O170 C164 1.287 . S
O171 Fe157 1.996 . S
O171 C164 1.255 . S
C172 O165 1.287 . S
C172 O166 1.255 . S
O173 Fe155 2.002 . S
O173 C169 1.295 . S
O174 Fe157 1.997 . S
O174 C169 1.235 . S
C175 O158 1.295 . S
C175 O159 1.235 . S
H176 C184 0.950 . S
H177 C189 0.950 . S
H178 C186 0.950 . S
H179 C188 0.950 . S
H180 C190 0.950 . S
H181 C192 0.950 . S
H182 C194 0.950 . S
H183 C195 0.950 . S
C184 H176 0.950 . S
C184 C185 1.386 . S
C184 C186 1.391 . S
C185 C184 1.386 . S
C185 C189 1.393 . S
C186 H178 0.950 . S
C186 C184 1.391 . S
C186 C187 1.400 . S
C187 C186 1.400 . S
C187 C188 1.398 . S
C187 C193 1.491 . S
C188 H179 0.950 . S
C188 C187 1.398 . S
C188 C189 1.391 . S
C189 H177 0.950 . S
C189 C185 1.393 . S
C189 C188 1.391 . S
C190 H180 0.950 . S
C190 C191 1.386 . S
C190 C192 1.391 . S
C191 C190 1.386 . S
C191 C195 1.393 . S
C192 H181 0.950 . S
C192 C190 1.391 . S
C192 C193 1.400 . S
C193 C187 1.491 . S
C193 C192 1.400 . S
C193 C194 1.398 . S
C194 H182 0.950 . S
C194 C193 1.398 . S
C194 C195 1.391 . S
C195 H183 0.950 . S
C195 C191 1.393 . S
C195 C194 1.391 . S
H196 C204 0.950 . S
H197 C209 0.950 . S
H198 C206 0.950 . S
H199 C208 0.950 . S
H200 C210 0.950 . S
H201 C212 0.950 . S
H202 C214 0.950 . S
H203 C215 0.950 . S
C204 H196 0.950 . S
C204 C205 1.386 . S
C204 C206 1.391 . S
C205 C204 1.386 . S
C205 C209 1.393 . S
C206 H198 0.950 . S
C206 C204 1.391 . S
C206 C207 1.400 . S
C207 C206 1.400 . S
C207 C208 1.398 . S
C207 C213 1.491 . S
C208 H199 0.950 . S
C208 C207 1.398 . S
C208 C209 1.391 . S
C209 H197 0.950 . S
C209 C205 1.393 . S
C209 C208 1.391 . S
C210 H200 0.950 . S
C210 C211 1.386 . S
C210 C212 1.391 . S
C211 C210 1.386 . S
C211 C215 1.393 . S
C212 H201 0.950 . S
C212 C210 1.391 . S
C212 C213 1.400 . S
C213 C207 1.491 . S
C213 C212 1.400 . S
C213 C214 1.398 . S
C214 H202 0.950 . S
C214 C213 1.398 . S
C214 C215 1.391 . S
C215 H203 0.950 . S
C215 C211 1.393 . S
C215 C214 1.391 . S
H216 C224 0.950 . S
H217 C229 0.950 . S
H218 C226 0.950 . S
H219 C228 0.950 . S
H220 C230 0.950 . S
H221 C232 0.950 . S
H222 C234 0.950 . S
H223 C235 0.950 . S
C224 H216 0.950 . S
C224 C225 1.386 . S
C224 C226 1.391 . S
C225 C224 1.386 . S
C225 C229 1.393 . S
C226 H218 0.950 . S
C226 C224 1.391 . S
C226 C227 1.400 . S
C227 C226 1.400 . S
C227 C228 1.398 . S
C227 C233 1.491 . S
C228 H219 0.950 . S
C228 C227 1.398 . S
C228 C229 1.391 . S
C229 H217 0.950 . S
C229 C225 1.393 . S
C229 C228 1.391 . S
C230 H220 0.950 . S
C230 C231 1.386 . S
C230 C232 1.391 . S
C231 C230 1.386 . S
C231 C235 1.393 . S
C232 H221 0.950 . S
C232 C230 1.391 . S
C232 C233 1.400 . S
C233 C227 1.491 . S
C233 C232 1.400 . S
C233 C234 1.398 . S
C234 H222 0.950 . S
C234 C233 1.398 . S
C234 C235 1.391 . S
C235 H223 0.950 . S
C235 C231 1.393 . S
C235 C234 1.391 . S
H236 C244 0.950 . S
H237 C249 0.950 . S
H238 C246 0.950 . S
H239 C248 0.950 . S
H240 C250 0.950 . S
H241 C252 0.950 . S
H242 C254 0.950 . S
H243 C255 0.950 . S
C244 H236 0.950 . S
C244 C245 1.386 . S
C244 C246 1.391 . S
C245 C244 1.386 . S
C245 C249 1.393 . S
C246 H238 0.950 . S
C246 C244 1.391 . S
C246 C247 1.400 . S
C247 C246 1.400 . S
C247 C248 1.398 . S
C247 C253 1.491 . S
C248 H239 0.950 . S
C248 C247 1.398 . S
C248 C249 1.391 . S
C249 H237 0.950 . S
C249 C245 1.393 . S
C249 C248 1.391 . S
C250 H240 0.950 . S
C250 C251 1.386 . S
C250 C252 1.391 . S
C251 C250 1.386 . S
C251 C255 1.393 . S
C252 H241 0.950 . S
C252 C250 1.391 . S
C252 C253 1.400 . S
C253 C247 1.491 . S
C253 C252 1.400 . S
C253 C254 1.398 . S
C254 H242 0.950 . S
C254 C253 1.398 . S
C254 C255 1.391 . S
C255 H243 0.950 . S
C255 C251 1.393 . S
C255 C254 1.391 . S
H256 C264 0.950 . S
H257 C269 0.950 . S
H258 C266 0.950 . S
H259 C268 0.950 . S
H260 C270 0.950 . S
H261 C272 0.950 . S
H262 C274 0.950 . S
H263 C275 0.950 . S
C264 H256 0.950 . S
C264 C265 1.386 . S
C264 C266 1.391 . S
C265 C264 1.386 . S
C265 C269 1.393 . S
C266 H258 0.950 . S
C266 C264 1.391 . S
C266 C267 1.400 . S
C267 C266 1.400 . S
C267 C268 1.398 . S
C267 C273 1.491 . S
C268 H259 0.950 . S
C268 C267 1.398 . S
C268 C269 1.391 . S
C269 H257 0.950 . S
C269 C265 1.393 . S
C269 C268 1.391 . S
C270 H260 0.950 . S
C270 C271 1.386 . S
C270 C272 1.391 . S
C271 C270 1.386 . S
C271 C275 1.393 . S
C272 H261 0.950 . S
C272 C270 1.391 . S
C272 C273 1.400 . S
C273 C267 1.491 . S
C273 C272 1.400 . S
C273 C274 1.398 . S
C274 H262 0.950 . S
C274 C273 1.398 . S
C274 C275 1.391 . S
C275 H263 0.950 . S
C275 C271 1.393 . S
C275 C274 1.391 . S
H276 C284 0.950 . S
H277 C289 0.950 . S
H278 C286 0.950 . S
H279 C288 0.950 . S
H280 C290 0.950 . S
H281 C292 0.950 . S
H282 C294 0.950 . S
H283 C295 0.950 . S
C284 H276 0.950 . S
C284 C285 1.386 . S
C284 C286 1.391 . S
C285 C284 1.386 . S
C285 C289 1.393 . S
C286 H278 0.950 . S
C286 C284 1.391 . S
C286 C287 1.400 . S
C287 C286 1.400 . S
C287 C288 1.398 . S
C287 C293 1.491 . S
C288 H279 0.950 . S
C288 C287 1.398 . S
C288 C289 1.391 . S
C289 H277 0.950 . S
C289 C285 1.393 . S
C289 C288 1.391 . S
C290 H280 0.950 . S
C290 C291 1.386 . S
C290 C292 1.391 . S
C291 C290 1.386 . S
C291 C295 1.393 . S
C292 H281 0.950 . S
C292 C290 1.391 . S
C292 C293 1.400 . S
C293 C287 1.491 . S
C293 C292 1.400 . S
C293 C294 1.398 . S
C294 H282 0.950 . S
C294 C293 1.398 . S
C294 C295 1.391 . S
C295 H283 0.950 . S
C295 C291 1.393 . S
C295 C294 1.391 . S
H296 C304 0.950 . S
H297 C309 0.950 . S
H298 C306 0.950 . S
H299 C308 0.950 . S
H300 C310 0.950 . S
H301 C312 0.950 . S
H302 C314 0.950 . S
H303 C315 0.950 . S
C304 H296 0.950 . S
C304 C305 1.386 . S
C304 C306 1.391 . S
C305 C304 1.386 . S
C305 C309 1.393 . S
C306 H298 0.950 . S
C306 C304 1.391 . S
C306 C307 1.400 . S
C307 C306 1.400 . S
C307 C308 1.398 . S
C307 C313 1.491 . S
C308 H299 0.950 . S
C308 C307 1.398 . S
C308 C309 1.391 . S
C309 H297 0.950 . S
C309 C305 1.393 . S
C309 C308 1.391 . S
C310 H300 0.950 . S
C310 C311 1.386 . S
C310 C312 1.391 . S
C311 C310 1.386 . S
C311 C315 1.393 . S
C312 H301 0.950 . S
C312 C310 1.391 . S
C312 C313 1.400 . S
C313 C307 1.491 . S
C313 C312 1.400 . S
C313 C314 1.398 . S
C314 H302 0.950 . S
C314 C313 1.398 . S
C314 C315 1.391 . S
C315 H303 0.950 . S
C315 C311 1.393 . S
C315 C314 1.391 . S
H316 C324 0.950 . S
H317 C329 0.950 . S
H318 C326 0.950 . S
H319 C328 0.950 . S
H320 C330 0.950 . S
H321 C332 0.950 . S
H322 C334 0.950 . S
H323 C335 0.950 . S
C324 H316 0.950 . S
C324 C325 1.386 . S
C324 C326 1.391 . S
C325 C324 1.386 . S
C325 C329 1.393 . S
C326 H318 0.950 . S
C326 C324 1.391 . S
C326 C327 1.400 . S
C327 C326 1.400 . S
C327 C328 1.398 . S
C327 C333 1.491 . S
C328 H319 0.950 . S
C328 C327 1.398 . S
C328 C329 1.391 . S
C329 H317 0.950 . S
C329 C325 1.393 . S
C329 C328 1.391 . S
C330 H320 0.950 . S
C330 C331 1.386 . S
C330 C332 1.391 . S
C331 C330 1.386 . S
C331 C335 1.393 . S
C332 H321 0.950 . S
C332 C330 1.391 . S
C332 C333 1.400 . S
C333 C327 1.491 . S
C333 C332 1.400 . S
C333 C334 1.398 . S
C334 H322 0.950 . S
C334 C333 1.398 . S
C334 C335 1.391 . S
C335 H323 0.950 . S
C335 C331 1.393 . S
C335 C334 1.391 . S
H336 C344 0.950 . S
H337 C349 0.950 . S
H338 C346 0.950 . S
H339 C348 0.950 . S
H340 C350 0.950 . S
H341 C352 0.950 . S
H342 C354 0.950 . S
H343 C355 0.950 . S
C344 H336 0.950 . S
C344 C345 1.386 . S
C344 C346 1.391 . S
C345 C344 1.386 . S
C345 C349 1.393 . S
C346 H338 0.950 . S
C346 C344 1.391 . S
C346 C347 1.400 . S
C347 C346 1.400 . S
C347 C348 1.398 . S
C347 C353 1.491 . S
C348 H339 0.950 . S
C348 C347 1.398 . S
C348 C349 1.391 . S
C349 H337 0.950 . S
C349 C345 1.393 . S
C349 C348 1.391 . S
C350 H340 0.950 . S
C350 C351 1.386 . S
C350 C352 1.391 . S
C351 C350 1.386 . S
C351 C355 1.393 . S
C352 H341 0.950 . S
C352 C350 1.391 . S
C352 C353 1.400 . S
C353 C347 1.491 . S
C353 C352 1.400 . S
C353 C354 1.398 . S
C354 H342 0.950 . S
C354 C353 1.398 . S
C354 C355 1.391 . S
C355 H343 0.950 . S
C355 C351 1.393 . S
C355 C354 1.391 . S
H356 C364 0.950 . S
H357 C369 0.950 . S
H358 C366 0.950 . S
H359 C368 0.950 . S
H360 C370 0.950 . S
H361 C372 0.950 . S
H362 C374 0.950 . S
H363 C375 0.950 . S
C364 H356 0.950 . S
C364 C365 1.386 . S
C364 C366 1.391 . S
C365 C364 1.386 . S
C365 C369 1.393 . S
C366 H358 0.950 . S
C366 C364 1.391 . S
C366 C367 1.400 . S
C367 C366 1.400 . S
C367 C368 1.398 . S
C367 C373 1.491 . S
C368 H359 0.950 . S
C368 C367 1.398 . S
C368 C369 1.391 . S
C369 H357 0.950 . S
C369 C365 1.393 . S
C369 C368 1.391 . S
C370 H360 0.950 . S
C370 C371 1.386 . S
C370 C372 1.391 . S
C371 C370 1.386 . S
C371 C375 1.393 . S
C372 H361 0.950 . S
C372 C370 1.391 . S
C372 C373 1.400 . S
C373 C367 1.491 . S
C373 C372 1.400 . S
C373 C374 1.398 . S
C374 H362 0.950 . S
C374 C373 1.398 . S
C374 C375 1.391 . S
C375 H363 0.950 . S
C375 C371 1.393 . S
C375 C374 1.391 . S
H376 C384 0.950 . S
H377 C389 0.950 . S
H378 C386 0.950 . S
H379 C388 0.950 . S
H380 C390 0.950 . S
H381 C392 0.950 . S
H382 C394 0.950 . S
H383 C395 0.950 . S
C384 H376 0.950 . S
C384 C385 1.386 . S
C384 C386 1.391 . S
C385 C384 1.386 . S
C385 C389 1.393 . S
C386 H378 0.950 . S
C386 C384 1.391 . S
C386 C387 1.400 . S
C387 C386 1.400 . S
C387 C388 1.398 . S
C387 C393 1.491 . S
C388 H379 0.950 . S
C388 C387 1.398 . S
C388 C389 1.391 . S
C389 H377 0.950 . S
C389 C385 1.393 . S
C389 C388 1.391 . S
C390 H380 0.950 . S
C390 C391 1.386 . S
C390 C392 1.391 . S
C391 C390 1.386 . S
C391 C395 1.393 . S
C392 H381 0.950 . S
C392 C390 1.391 . S
C392 C393 1.400 . S
C393 C387 1.491 . S
C393 C392 1.400 . S
C393 C394 1.398 . S
C394 H382 0.950 . S
C394 C393 1.398 . S
C394 C395 1.391 . S
C395 H383 0.950 . S
C395 C391 1.393 . S
C395 C394 1.391 . S
H396 C404 0.950 . S
H397 C409 0.950 . S
H398 C406 0.950 . S
H399 C408 0.950 . S
H400 C410 0.950 . S
H401 C412 0.950 . S
H402 C414 0.950 . S
H403 C415 0.950 . S
C404 H396 0.950 . S
C404 C405 1.386 . S
C404 C406 1.391 . S
C405 C404 1.386 . S
C405 C409 1.393 . S
C406 H398 0.950 . S
C406 C404 1.391 . S
C406 C407 1.400 . S
C407 C406 1.400 . S
C407 C408 1.398 . S
C407 C413 1.491 . S
C408 H399 0.950 . S
C408 C407 1.398 . S
C408 C409 1.391 . S
C409 H397 0.950 . S
C409 C405 1.393 . S
C409 C408 1.391 . S
C410 H400 0.950 . S
C410 C411 1.386 . S
C410 C412 1.391 . S
C411 C410 1.386 . S
C411 C415 1.393 . S
C412 H401 0.950 . S
C412 C410 1.391 . S
C412 C413 1.400 . S
C413 C407 1.491 . S
C413 C412 1.400 . S
C413 C414 1.398 . S
C414 H402 0.950 . S
C414 C413 1.398 . S
C414 C415 1.391 . S
C415 H403 0.950 . S
C415 C411 1.393 . S
C415 C414 1.391 . S
H416 C424 0.950 . S
H417 C429 0.950 . S
H418 C426 0.950 1_554 S
H419 C428 0.950 . S
H420 C430 0.950 . S
H421 C432 0.950 . S
H422 C434 0.950 . S
H423 C435 0.950 . S
C424 H416 0.950 . S
C424 C425 1.386 . S
C424 C426 1.391 . S
C425 C424 1.386 . S
C425 C429 1.393 . S
C426 H418 0.950 1_556 S
C426 C424 1.391 . S
C426 C427 1.400 . S
C427 C426 1.400 . S
C427 C428 1.398 . S
C427 C433 1.491 . S
C428 H419 0.950 . S
C428 C427 1.398 . S
C428 C429 1.391 . S
C429 H417 0.950 . S
C429 C425 1.393 . S
C429 C428 1.391 . S
C430 H420 0.950 . S
C430 C431 1.386 1_556 S
C430 C432 1.391 . S
C431 C430 1.386 1_554 S
C431 C435 1.393 . S
C432 H421 0.950 . S
C432 C430 1.391 . S
C432 C433 1.400 . S
C433 C427 1.491 . S
C433 C432 1.400 . S
C433 C434 1.398 1_556 S
C434 H422 0.950 . S
C434 C433 1.398 1_554 S
C434 C435 1.391 . S
C435 H423 0.950 . S
C435 C431 1.393 . S
C435 C434 1.391 . S
H436 C444 0.950 . S
H437 C449 0.950 . S
H438 C446 0.950 . S
H439 C448 0.950 . S
H440 C450 0.950 . S
H441 C452 0.950 . S
H442 C454 0.950 . S
H443 C455 0.950 1_556 S
C444 H436 0.950 . S
C444 C445 1.386 . S
C444 C446 1.391 . S
C445 C444 1.386 . S
C445 C449 1.393 1_556 S
C446 H438 0.950 . S
C446 C444 1.391 . S
C446 C447 1.400 1_556 S
C447 C446 1.400 1_554 S
C447 C448 1.398 . S
C447 C453 1.491 . S
C448 H439 0.950 . S
C448 C447 1.398 . S
C448 C449 1.391 . S
C449 H437 0.950 . S
C449 C445 1.393 1_554 S
C449 C448 1.391 . S
C450 H440 0.950 . S
C450 C451 1.386 . S
C450 C452 1.391 . S
C451 C450 1.386 . S
C451 C455 1.393 . S
C452 H441 0.950 . S
C452 C450 1.391 . S
C452 C453 1.400 . S
C453 C447 1.491 . S
C453 C452 1.400 . S
C453 C454 1.398 1_554 S
C454 H442 0.950 . S
C454 C453 1.398 1_556 S
C454 C455 1.391 1_556 S
C455 H443 0.950 1_554 S
C455 C451 1.393 . S
C455 C454 1.391 1_554 S
H456 C464 0.950 . S
H457 C469 0.950 . S
H458 C466 0.950 . S
H459 C468 0.950 . S
H460 C470 0.950 . S
H461 C472 0.950 . S
H462 C474 0.948 1_554 S
H463 C475 0.950 . S
C464 H456 0.950 . S
C464 C465 1.386 . S
C464 C466 1.391 . S
C465 C464 1.386 . S
C465 C469 1.393 1_554 S
C466 H458 0.950 . S
C466 C464 1.391 . S
C466 C467 1.400 1_554 S
C467 C466 1.400 1_556 S
C467 C468 1.398 . S
C467 C473 1.491 . S
C468 H459 0.950 . S
C468 C467 1.398 . S
C468 C469 1.391 . S
C469 H457 0.950 . S
C469 C465 1.393 1_556 S
C469 C468 1.391 . S
C470 H460 0.950 . S
C470 C471 1.386 . S
C470 C472 1.391 . S
C471 C470 1.386 . S
C471 C475 1.393 . S
C472 H461 0.950 . S
C472 C470 1.391 . S
C472 C473 1.400 . S
C473 C467 1.491 . S
C473 C472 1.400 . S
C473 C474 1.398 . S
C474 H462 0.948 1_556 S
C474 C473 1.398 . S
C474 C475 1.391 . S
C475 H463 0.950 . S
C475 C471 1.393 . S
C475 C474 1.391 . S
H476 C484 0.950 . S
H477 C489 0.950 . S
H478 C486 0.950 . S
H479 C488 0.950 . S
H480 C490 0.950 . S
H481 C492 0.950 . S
H482 C494 0.950 1_556 S
H483 C495 0.950 1_556 S
C484 H476 0.950 . S
C484 C485 1.386 . S
C484 C486 1.391 . S
C485 C484 1.386 . S
C485 C489 1.393 1_556 S
C486 H478 0.950 . S
C486 C484 1.391 . S
C486 C487 1.400 1_556 S
C487 C486 1.400 1_554 S
C487 C488 1.398 . S
C487 C493 1.491 . S
C488 H479 0.950 . S
C488 C487 1.398 . S
C488 C489 1.391 . S
C489 H477 0.950 . S
C489 C485 1.393 1_554 S
C489 C488 1.391 . S
C490 H480 0.950 . S
C490 C491 1.386 . S
C490 C492 1.391 . S
C491 C490 1.386 . S
C491 C495 1.393 . S
C492 H481 0.950 . S
C492 C490 1.391 . S
C492 C493 1.400 . S
C493 C487 1.491 . S
C493 C492 1.400 . S
C493 C494 1.398 . S
C494 H482 0.950 1_554 S
C494 C493 1.398 . S
C494 C495 1.391 . S
C495 H483 0.950 1_554 S
C495 C491 1.393 . S
C495 C494 1.391 . S
H496 C504 0.950 . S
H497 C509 0.950 . S
H498 C506 0.950 . S
H499 C508 0.950 . S
H500 C510 0.950 . S
H501 C512 0.950 . S
H502 C514 0.950 . S
H503 C515 0.950 . S
C504 H496 0.950 . S
C504 C505 1.386 . S
C504 C506 1.391 . S
C505 C504 1.386 . S
C505 C509 1.393 . S
C506 H498 0.950 . S
C506 C504 1.391 . S
C506 C507 1.400 . S
C507 C506 1.400 . S
C507 C508 1.398 . S
C507 C513 1.491 . S
C508 H499 0.950 . S
C508 C507 1.398 . S
C508 C509 1.391 . S
C509 H497 0.950 . S
C509 C505 1.393 . S
C509 C508 1.391 . S
C510 H500 0.950 . S
C510 C511 1.386 . S
C510 C512 1.391 . S
C511 C510 1.386 . S
C511 C515 1.393 . S
C512 H501 0.950 . S
C512 C510 1.391 . S
C512 C513 1.400 . S
C513 C507 1.491 . S
C513 C512 1.400 . S
C513 C514 1.398 . S
C514 H502 0.950 . S
C514 C513 1.398 . S
C514 C515 1.391 . S
C515 H503 0.950 . S
C515 C511 1.393 . S
C515 C514 1.391 . S
H516 C524 0.950 . S
H517 C529 0.950 . S
H518 C526 0.950 . S
H519 C528 0.950 . S
H520 C530 0.950 . S
H521 C532 0.950 . S
H522 C534 0.950 . S
H523 C535 0.950 . S
C524 H516 0.950 . S
C524 C525 1.386 . S
C524 C526 1.391 . S
C525 C524 1.386 . S
C525 C529 1.393 . S
C526 H518 0.950 . S
C526 C524 1.391 . S
C526 C527 1.400 . S
C527 C526 1.400 . S
C527 C528 1.398 . S
C527 C533 1.491 . S
C528 H519 0.950 . S
C528 C527 1.398 . S
C528 C529 1.391 . S
C529 H517 0.950 . S
C529 C525 1.393 . S
C529 C528 1.391 . S
C530 H520 0.950 . S
C530 C531 1.386 . S
C530 C532 1.391 . S
C531 C530 1.386 . S
C531 C535 1.393 . S
C532 H521 0.950 . S
C532 C530 1.391 . S
C532 C533 1.400 . S
C533 C527 1.491 . S
C533 C532 1.400 . S
C533 C534 1.398 . S
C534 H522 0.950 . S
C534 C533 1.398 . S
C534 C535 1.391 . S
C535 H523 0.950 . S
C535 C531 1.393 . S
C535 C534 1.391 . S
H536 C544 0.950 . S
H537 C549 0.950 . S
H538 C546 0.950 . S
H539 C548 0.950 . S
H540 C550 0.950 . S
H541 C552 0.950 . S
H542 C554 0.950 . S
H543 C555 0.950 . S
C544 H536 0.950 . S
C544 C545 1.386 . S
C544 C546 1.391 . S
C545 C544 1.386 . S
C545 C549 1.393 . S
C546 H538 0.950 . S
C546 C544 1.391 . S
C546 C547 1.400 . S
C547 C546 1.400 . S
C547 C548 1.398 . S
C547 C553 1.491 . S
C548 H539 0.950 . S
C548 C547 1.398 . S
C548 C549 1.391 . S
C549 H537 0.950 . S
C549 C545 1.393 . S
C549 C548 1.391 . S
C550 H540 0.950 . S
C550 C551 1.386 . S
C550 C552 1.391 . S
C551 C550 1.386 . S
C551 C555 1.393 . S
C552 H541 0.950 . S
C552 C550 1.391 . S
C552 C553 1.400 . S
C553 C547 1.491 . S
C553 C552 1.400 . S
C553 C554 1.398 . S
C554 H542 0.950 . S
C554 C553 1.398 . S
C554 C555 1.391 . S
C555 H543 0.950 . S
C555 C551 1.393 . S
C555 C554 1.391 . S
H556 C564 0.950 . S
H557 C569 0.950 . S
H558 C566 0.950 . S
H559 C568 0.950 . S
H560 C570 0.950 . S
H561 C572 0.950 . S
H562 C574 0.950 . S
H563 C575 0.950 . S
C564 H556 0.950 . S
C564 C565 1.386 . S
C564 C566 1.391 . S
C565 C564 1.386 . S
C565 C569 1.393 . S
C566 H558 0.950 . S
C566 C564 1.391 . S
C566 C567 1.400 . S
C567 C566 1.400 . S
C567 C568 1.398 . S
C567 C573 1.491 . S
C568 H559 0.950 . S
C568 C567 1.398 . S
C568 C569 1.391 . S
C569 H557 0.950 . S
C569 C565 1.393 . S
C569 C568 1.391 . S
C570 H560 0.950 . S
C570 C571 1.386 . S
C570 C572 1.391 . S
C571 C570 1.386 . S
C571 C575 1.393 . S
C572 H561 0.950 . S
C572 C570 1.391 . S
C572 C573 1.400 . S
C573 C567 1.491 . S
C573 C572 1.400 . S
C573 C574 1.398 . S
C574 H562 0.950 . S
C574 C573 1.398 . S
C574 C575 1.391 . S
C575 H563 0.950 . S
C575 C571 1.393 . S
C575 C574 1.391 . S
H576 C584 0.950 . S
H577 C589 0.950 . S
H578 C586 0.950 . S
H579 C588 0.950 1_565 S
H580 C590 0.950 . S
H581 C592 0.950 . S
H582 C594 0.950 1_545 S
H583 C595 0.950 . S
C584 H576 0.950 . S
C584 C585 1.386 . S
C584 C586 1.391 . S
C585 C584 1.386 . S
C585 C589 1.393 . S
C586 H578 0.950 . S
C586 C584 1.391 . S
C586 C587 1.400 . S
C587 C586 1.400 . S
C587 C588 1.398 . S
C587 C593 1.491 1_545 S
C588 H579 0.950 1_545 S
C588 C587 1.398 . S
C588 C589 1.391 . S
C589 H577 0.950 . S
C589 C585 1.393 . S
C589 C588 1.391 . S
C590 H580 0.950 . S
C590 C591 1.386 . S
C590 C592 1.391 . S
C591 C590 1.386 . S
C591 C595 1.393 . S
C592 H581 0.950 . S
C592 C590 1.391 . S
C592 C593 1.400 . S
C593 C587 1.491 1_565 S
C593 C592 1.400 . S
C593 C594 1.398 . S
C594 H582 0.950 1_565 S
C594 C593 1.398 . S
C594 C595 1.391 . S
C595 H583 0.950 . S
C595 C591 1.393 . S
C595 C594 1.391 . S
H596 C604 0.950 . S
H597 C609 0.950 . S
H598 C606 0.950 . S
H599 C608 0.950 . S
H600 C610 0.950 . S
H601 C612 0.950 . S
H602 C614 0.950 . S
H603 C615 0.950 . S
C604 H596 0.950 . S
C604 C605 1.386 . S
C604 C606 1.391 . S
C605 C604 1.386 . S
C605 C609 1.393 . S
C606 H598 0.950 . S
C606 C604 1.391 . S
C606 C607 1.400 . S
C607 C606 1.400 . S
C607 C608 1.398 . S
C607 C613 1.491 1_655 S
C608 H599 0.950 . S
C608 C607 1.398 . S
C608 C609 1.391 . S
C609 H597 0.950 . S
C609 C605 1.393 . S
C609 C608 1.391 . S
C610 H600 0.950 . S
C610 C611 1.386 . S
C610 C612 1.391 . S
C611 C610 1.386 . S
C611 C615 1.393 . S
C612 H601 0.950 . S
C612 C610 1.391 . S
C612 C613 1.400 . S
C613 C607 1.491 1_455 S
C613 C612 1.400 . S
C613 C614 1.398 . S
C614 H602 0.950 . S
C614 C613 1.398 . S
C614 C615 1.391 . S
C615 H603 0.950 . S
C615 C611 1.393 . S
C615 C614 1.391 . S
H616 C624 0.950 . S
H617 C629 0.950 . S
H618 C626 0.950 . S
H619 C628 0.950 . S
H620 C630 0.950 . S
H621 C632 0.950 . S
H622 C634 0.950 . S
H623 C635 0.950 . S
C624 H616 0.950 . S
C624 C625 1.386 . S
C624 C626 1.391 . S
C625 C624 1.386 . S
C625 C629 1.393 . S
C626 H618 0.950 . S
C626 C624 1.391 . S
C626 C627 1.400 . S
C627 C626 1.400 . S
C627 C628 1.398 . S
C627 C633 1.491 1_565 S
C628 H619 0.950 . S
C628 C627 1.398 . S
C628 C629 1.391 . S
C629 H617 0.950 . S
C629 C625 1.393 . S
C629 C628 1.391 . S
C630 H620 0.950 . S
C630 C631 1.386 . S
C630 C632 1.391 . S
C631 C630 1.386 . S
C631 C635 1.393 . S
C632 H621 0.950 . S
C632 C630 1.391 . S
C632 C633 1.400 . S
C633 C627 1.491 1_545 S
C633 C632 1.400 . S
C633 C634 1.398 . S
C634 H622 0.950 . S
C634 C633 1.398 . S
C634 C635 1.391 . S
C635 H623 0.950 . S
C635 C631 1.393 . S
C635 C634 1.391 . S
H636 C644 0.950 . S
H637 C649 0.950 . S
H638 C646 0.950 1_455 S
H639 C648 0.950 . S
H640 C650 0.950 . S
H641 C652 0.950 1_655 S
H642 C654 0.950 . S
H643 C655 0.950 . S
C644 H636 0.950 . S
C644 C645 1.386 . S
C644 C646 1.391 . S
C645 C644 1.386 . S
C645 C649 1.393 . S
C646 H638 0.950 1_655 S
C646 C644 1.391 . S
C646 C647 1.400 . S
C647 C646 1.400 . S
C647 C648 1.398 . S
C647 C653 1.491 1_655 S
C648 H639 0.950 . S
C648 C647 1.398 . S
C648 C649 1.391 . S
C649 H637 0.950 . S
C649 C645 1.393 . S
C649 C648 1.391 . S
C650 H640 0.950 . S
C650 C651 1.386 . S
C650 C652 1.391 . S
C651 C650 1.386 . S
C651 C655 1.393 . S
C652 H641 0.950 1_455 S
C652 C650 1.391 . S
C652 C653 1.400 . S
C653 C647 1.491 1_455 S
C653 C652 1.400 . S
C653 C654 1.398 . S
C654 H642 0.950 . S
C654 C653 1.398 . S
C654 C655 1.391 . S
C655 H643 0.950 . S
C655 C651 1.393 . S
C655 C654 1.391 . S
C185 C128 1.321 . S
C191 C10 1.300 . S
C205 C30 1.332 . S
C211 C140 1.344 . S
C225 C172 1.323 . S
C231 C62 1.296 . S
C245 C76 1.348 . S
C251 C106 1.345 . S
C265 C96 1.222 . S
C271 C7 1.225 . S
C285 C29 1.232 . S
C291 C120 1.238 . S
C305 C65 1.230 . S
C311 C142 1.214 . S
C325 C164 1.228 . S
C331 C87 1.232 . S
C345 C8 1.234 . S
C351 C103 1.231 . S
C365 C131 1.227 . S
C371 C32 1.218 . S
C385 C54 1.236 . S
C391 C139 1.243 . S
C405 C84 1.214 . S
C411 C175 1.233 . S
C425 C37 1.157 . S
C431 C15 1.165 . S
C445 C43 1.152 . S
C451 C59 1.164 . S
C465 C51 1.166 . S
C471 C73 1.161 . S
C485 C81 1.145 . S
C491 C21 1.162 . S
C505 C95 1.146 . S
C511 C169 1.163 . S
C525 C109 1.160 . S
C531 C117 1.166 . S
C545 C153 1.157 . S
C551 C125 1.163 . S
C565 C161 1.151 . S
C571 C147 1.157 . S
C585 C18 1.565 . S
C591 C52 1.558 . S
C605 C74 1.534 . S
C611 C40 1.539 . S
C625 C150 1.536 . S
C631 C98 1.533 . S
C645 C162 1.545 . S
C651 C118 1.551 . S
