# Generated by pormake.
# Topology wir, (6)-cn, num edge types: 1
# Building blocks:
#     Node 0, Type 0, BuildingBlock: BETDAH_clean_sbu_0, # of connection points: 6
#     Node 1, Type 0, BuildingBlock: BETDAH_clean_sbu_0, # of connection points: 6
#     Node 2, Type 0, BuildingBlock: BETDAH_clean_sbu_0, # of connection points: 6
#     Node 3, Type 0, BuildingBlock: BETDAH_clean_sbu_0, # of connection points: 6
#     Node 4, Type 0, BuildingBlock: BETDAH_clean_sbu_0, # of connection points: 6
#     Node 5, Type 0, BuildingBlock: BETDAH_clean_sbu_0, # of connection points: 6
#     Node 6, Type 0, BuildingBlock: BETDAH_clean_sbu_0, # of connection points: 6
#     Node 7, Type 0, BuildingBlock: BETDAH_clean_sbu_0, # of connection points: 6
#     Node 8, Type 0, BuildingBlock: BETDAH_clean_sbu_0, # of connection points: 6
#     Node 9, Type 0, BuildingBlock: BETDAH_clean_sbu_0, # of connection points: 6
#     Node 10, Type 0, BuildingBlock: BETDAH_clean_sbu_0, # of connection points: 6
#     Node 11, Type 0, BuildingBlock: BETDAH_clean_sbu_0, # of connection points: 6
#     Node 12, Type 0, BuildingBlock: BETDAH_clean_sbu_0, # of connection points: 6
#     Node 13, Type 0, BuildingBlock: BETDAH_clean_sbu_0, # of connection points: 6
#     Node 14, Type 0, BuildingBlock: BETDAH_clean_sbu_0, # of connection points: 6
#     Node 15, Type 0, BuildingBlock: BETDAH_clean_sbu_0, # of connection points: 6
#     Node 16, Type 0, BuildingBlock: BETDAH_clean_sbu_0, # of connection points: 6
#     Node 17, Type 0, BuildingBlock: BETDAH_clean_sbu_0, # of connection points: 6
#     Node 18, Type 0, BuildingBlock: BETDAH_clean_sbu_0, # of connection points: 6
#     Node 19, Type 0, BuildingBlock: BETDAH_clean_sbu_0, # of connection points: 6
#     Node 20, Type 0, BuildingBlock: BETDAH_clean_sbu_0, # of connection points: 6
#     Node 21, Type 0, BuildingBlock: BETDAH_clean_sbu_0, # of connection points: 6
#     Node 22, Type 0, BuildingBlock: BETDAH_clean_sbu_0, # of connection points: 6
#     Node 23, Type 0, BuildingBlock: BETDAH_clean_sbu_0, # of connection points: 6
#     Node 24, Type 0, BuildingBlock: BETDAH_clean_sbu_0, # of connection points: 6
#     Node 25, Type 0, BuildingBlock: BETDAH_clean_sbu_0, # of connection points: 6
#     Node 26, Type 0, BuildingBlock: BETDAH_clean_sbu_0, # of connection points: 6
#     Node 27, Type 0, BuildingBlock: BETDAH_clean_sbu_0, # of connection points: 6
#     Node 28, Type 0, BuildingBlock: BETDAH_clean_sbu_0, # of connection points: 6
#     Node 29, Type 0, BuildingBlock: BETDAH_clean_sbu_0, # of connection points: 6
#     Node 30, Type 0, BuildingBlock: BETDAH_clean_sbu_0, # of connection points: 6
#     Node 31, Type 0, BuildingBlock: BETDAH_clean_sbu_0, # of connection points: 6
#     Edge 32, Type (0, 0), BuildingBlock: CIFDUS_clean_linker_0, # of connection points: 2
#     Edge 33, Type (0, 0), BuildingBlock: CIFDUS_clean_linker_0, # of connection points: 2
#     Edge 34, Type (0, 0), BuildingBlock: CIFDUS_clean_linker_0, # of connection points: 2
#     Edge 35, Type (0, 0), BuildingBlock: CIFDUS_clean_linker_0, # of connection points: 2
#     Edge 36, Type (0, 0), BuildingBlock: CIFDUS_clean_linker_0, # of connection points: 2
#     Edge 37, Type (0, 0), BuildingBlock: CIFDUS_clean_linker_0, # of connection points: 2
#     Edge 38, Type (0, 0), BuildingBlock: CIFDUS_clean_linker_0, # of connection points: 2
#     Edge 39, Type (0, 0), BuildingBlock: CIFDUS_clean_linker_0, # of connection points: 2
#     Edge 40, Type (0, 0), BuildingBlock: CIFDUS_clean_linker_0, # of connection points: 2
#     Edge 41, Type (0, 0), BuildingBlock: CIFDUS_clean_linker_0, # of connection points: 2
#     Edge 42, Type (0, 0), BuildingBlock: CIFDUS_clean_linker_0, # of connection points: 2
#     Edge 43, Type (0, 0), BuildingBlock: CIFDUS_clean_linker_0, # of connection points: 2
#     Edge 44, Type (0, 0), BuildingBlock: CIFDUS_clean_linker_0, # of connection points: 2
#     Edge 45, Type (0, 0), BuildingBlock: CIFDUS_clean_linker_0, # of connection points: 2
#     Edge 46, Type (0, 0), BuildingBlock: CIFDUS_clean_linker_0, # of connection points: 2
#     Edge 47, Type (0, 0), BuildingBlock: CIFDUS_clean_linker_0, # of connection points: 2
#     Edge 48, Type (0, 0), BuildingBlock: CIFDUS_clean_linker_0, # of connection points: 2
#     Edge 49, Type (0, 0), BuildingBlock: CIFDUS_clean_linker_0, # of connection points: 2
#     Edge 50, Type (0, 0), BuildingBlock: CIFDUS_clean_linker_0, # of connection points: 2
#     Edge 51, Type (0, 0), BuildingBlock: CIFDUS_clean_linker_0, # of connection points: 2
#     Edge 52, Type (0, 0), BuildingBlock: CIFDUS_clean_linker_0, # of connection points: 2
#     Edge 53, Type (0, 0), BuildingBlock: CIFDUS_clean_linker_0, # of connection points: 2
#     Edge 54, Type (0, 0), BuildingBlock: CIFDUS_clean_linker_0, # of connection points: 2
#     Edge 55, Type (0, 0), BuildingBlock: CIFDUS_clean_linker_0, # of connection points: 2
#     Edge 56, Type (0, 0), BuildingBlock: CIFDUS_clean_linker_0, # of connection points: 2
#     Edge 57, Type (0, 0), BuildingBlock: CIFDUS_clean_linker_0, # of connection points: 2
#     Edge 58, Type (0, 0), BuildingBlock: CIFDUS_clean_linker_0, # of connection points: 2
#     Edge 59, Type (0, 0), BuildingBlock: CIFDUS_clean_linker_0, # of connection points: 2
#     Edge 60, Type (0, 0), BuildingBlock: CIFDUS_clean_linker_0, # of connection points: 2
#     Edge 61, Type (0, 0), BuildingBlock: CIFDUS_clean_linker_0, # of connection points: 2
#     Edge 62, Type (0, 0), BuildingBlock: CIFDUS_clean_linker_0, # of connection points: 2
#     Edge 63, Type (0, 0), BuildingBlock: CIFDUS_clean_linker_0, # of connection points: 2
#     Edge 64, Type (0, 0), BuildingBlock: CIFDUS_clean_linker_0, # of connection points: 2
#     Edge 65, Type (0, 0), BuildingBlock: CIFDUS_clean_linker_0, # of connection points: 2
#     Edge 66, Type (0, 0), BuildingBlock: CIFDUS_clean_linker_0, # of connection points: 2
#     Edge 67, Type (0, 0), BuildingBlock: CIFDUS_clean_linker_0, # of connection points: 2
#     Edge 68, Type (0, 0), BuildingBlock: CIFDUS_clean_linker_0, # of connection points: 2
#     Edge 69, Type (0, 0), BuildingBlock: CIFDUS_clean_linker_0, # of connection points: 2
#     Edge 70, Type (0, 0), BuildingBlock: CIFDUS_clean_linker_0, # of connection points: 2
#     Edge 71, Type (0, 0), BuildingBlock: CIFDUS_clean_linker_0, # of connection points: 2
#     Edge 72, Type (0, 0), BuildingBlock: CIFDUS_clean_linker_0, # of connection points: 2
#     Edge 73, Type (0, 0), BuildingBlock: CIFDUS_clean_linker_0, # of connection points: 2
#     Edge 74, Type (0, 0), BuildingBlock: CIFDUS_clean_linker_0, # of connection points: 2
#     Edge 75, Type (0, 0), BuildingBlock: CIFDUS_clean_linker_0, # of connection points: 2
#     Edge 76, Type (0, 0), BuildingBlock: CIFDUS_clean_linker_0, # of connection points: 2
#     Edge 77, Type (0, 0), BuildingBlock: CIFDUS_clean_linker_0, # of connection points: 2
#     Edge 78, Type (0, 0), BuildingBlock: CIFDUS_clean_linker_0, # of connection points: 2
#     Edge 79, Type (0, 0), BuildingBlock: CIFDUS_clean_linker_0, # of connection points: 2
#     Edge 80, Type (0, 0), BuildingBlock: CIFDUS_clean_linker_0, # of connection points: 2
#     Edge 81, Type (0, 0), BuildingBlock: CIFDUS_clean_linker_0, # of connection points: 2
#     Edge 82, Type (0, 0), BuildingBlock: CIFDUS_clean_linker_0, # of connection points: 2
#     Edge 83, Type (0, 0), BuildingBlock: CIFDUS_clean_linker_0, # of connection points: 2
#     Edge 84, Type (0, 0), BuildingBlock: CIFDUS_clean_linker_0, # of connection points: 2
#     Edge 85, Type (0, 0), BuildingBlock: CIFDUS_clean_linker_0, # of connection points: 2
#     Edge 86, Type (0, 0), BuildingBlock: CIFDUS_clean_linker_0, # of connection points: 2
#     Edge 87, Type (0, 0), BuildingBlock: CIFDUS_clean_linker_0, # of connection points: 2
#     Edge 88, Type (0, 0), BuildingBlock: CIFDUS_clean_linker_0, # of connection points: 2
#     Edge 89, Type (0, 0), BuildingBlock: CIFDUS_clean_linker_0, # of connection points: 2
#     Edge 90, Type (0, 0), BuildingBlock: CIFDUS_clean_linker_0, # of connection points: 2
#     Edge 91, Type (0, 0), BuildingBlock: CIFDUS_clean_linker_0, # of connection points: 2
#     Edge 92, Type (0, 0), BuildingBlock: CIFDUS_clean_linker_0, # of connection points: 2
#     Edge 93, Type (0, 0), BuildingBlock: CIFDUS_clean_linker_0, # of connection points: 2
#     Edge 94, Type (0, 0), BuildingBlock: CIFDUS_clean_linker_0, # of connection points: 2
#     Edge 95, Type (0, 0), BuildingBlock: CIFDUS_clean_linker_0, # of connection points: 2
#     Edge 96, Type (0, 0), BuildingBlock: CIFDUS_clean_linker_0, # of connection points: 2
#     Edge 97, Type (0, 0), BuildingBlock: CIFDUS_clean_linker_0, # of connection points: 2
#     Edge 98, Type (0, 0), BuildingBlock: CIFDUS_clean_linker_0, # of connection points: 2
#     Edge 99, Type (0, 0), BuildingBlock: CIFDUS_clean_linker_0, # of connection points: 2
#     Edge 100, Type (0, 0), BuildingBlock: CIFDUS_clean_linker_0, # of connection points: 2
#     Edge 101, Type (0, 0), BuildingBlock: CIFDUS_clean_linker_0, # of connection points: 2
#     Edge 102, Type (0, 0), BuildingBlock: CIFDUS_clean_linker_0, # of connection points: 2
#     Edge 103, Type (0, 0), BuildingBlock: CIFDUS_clean_linker_0, # of connection points: 2
#     Edge 104, Type (0, 0), BuildingBlock: CIFDUS_clean_linker_0, # of connection points: 2
#     Edge 105, Type (0, 0), BuildingBlock: CIFDUS_clean_linker_0, # of connection points: 2
#     Edge 106, Type (0, 0), BuildingBlock: CIFDUS_clean_linker_0, # of connection points: 2
#     Edge 107, Type (0, 0), BuildingBlock: CIFDUS_clean_linker_0, # of connection points: 2
#     Edge 108, Type (0, 0), BuildingBlock: CIFDUS_clean_linker_0, # of connection points: 2
#     Edge 109, Type (0, 0), BuildingBlock: CIFDUS_clean_linker_0, # of connection points: 2
#     Edge 110, Type (0, 0), BuildingBlock: CIFDUS_clean_linker_0, # of connection points: 2
#     Edge 111, Type (0, 0), BuildingBlock: CIFDUS_clean_linker_0, # of connection points: 2
#     Edge 112, Type (0, 0), BuildingBlock: CIFDUS_clean_linker_0, # of connection points: 2
#     Edge 113, Type (0, 0), BuildingBlock: CIFDUS_clean_linker_0, # of connection points: 2
#     Edge 114, Type (0, 0), BuildingBlock: CIFDUS_clean_linker_0, # of connection points: 2
#     Edge 115, Type (0, 0), BuildingBlock: CIFDUS_clean_linker_0, # of connection points: 2
#     Edge 116, Type (0, 0), BuildingBlock: CIFDUS_clean_linker_0, # of connection points: 2
#     Edge 117, Type (0, 0), BuildingBlock: CIFDUS_clean_linker_0, # of connection points: 2
#     Edge 118, Type (0, 0), BuildingBlock: CIFDUS_clean_linker_0, # of connection points: 2
#     Edge 119, Type (0, 0), BuildingBlock: CIFDUS_clean_linker_0, # of connection points: 2
#     Edge 120, Type (0, 0), BuildingBlock: CIFDUS_clean_linker_0, # of connection points: 2
#     Edge 121, Type (0, 0), BuildingBlock: CIFDUS_clean_linker_0, # of connection points: 2
#     Edge 122, Type (0, 0), BuildingBlock: CIFDUS_clean_linker_0, # of connection points: 2
#     Edge 123, Type (0, 0), BuildingBlock: CIFDUS_clean_linker_0, # of connection points: 2
#     Edge 124, Type (0, 0), BuildingBlock: CIFDUS_clean_linker_0, # of connection points: 2
#     Edge 125, Type (0, 0), BuildingBlock: CIFDUS_clean_linker_0, # of connection points: 2
#     Edge 126, Type (0, 0), BuildingBlock: CIFDUS_clean_linker_0, # of connection points: 2
#     Edge 127, Type (0, 0), BuildingBlock: CIFDUS_clean_linker_0, # of connection points: 2
# Relax obj value: 0.499
# Max RMSD: 0.208
# Mean RMSD: 0.208
data_MOF--net-wir--node1-BETDAH_clean_sbu_0--edge1-CIFDUS_clean_linker_0
_symmetry_space_group_name_H-M    P1
_symmetry_Int_Tables_number       1
_symmetry_cell_setting            triclinic
loop_
_symmetry_equiv_pos_as_xyz
'x, y, z'
_cell_length_a     34.233638
_cell_length_b     34.301437
_cell_length_c     95.849751
_cell_angle_alpha  90.023767
_cell_angle_beta   90.000527
_cell_angle_gamma 89.762013
loop_
_atom_site_label
_atom_site_type_symbol
_atom_site_fract_x
_atom_site_fract_y
_atom_site_fract_z
_atom_type_partial_charge
Ho0 Ho 0.26327 0.26116 0.41383 0.0
Ho1 Ho 0.23864 0.21507 0.4078 0.0
C2 C 0.21949 0.22945 0.43834 0.0
C3 C 0.29288 0.32691 0.42135 0.0
C4 C 0.27273 0.3643 0.41957 0.0
C5 C 0.2398 0.3654 0.41078 0.0
C6 C 0.21031 0.3928 0.41305 0.0
C7 C 0.21397 0.41985 0.42389 0.0
C8 C 0.24936 0.42227 0.43129 0.0
C9 C 0.27854 0.39424 0.42925 0.0
C10 C 0.3033 0.2003 0.43464 0.0
C11 C 0.27033 0.26433 0.38041 0.0
C12 C 0.22607 0.14879 0.39592 0.0
C13 C 0.19707 0.13863 0.38514 0.0
C14 C 0.20419 0.14706 0.37105 0.0
C15 C 0.1758 0.13955 0.36102 0.0
C16 C 0.13959 0.12337 0.36481 0.0
C17 C 0.13222 0.11545 0.37893 0.0
C18 C 0.16073 0.12289 0.38899 0.0
C19 C 0.16576 0.2556 0.40935 0.0
O20 O 0.22628 0.2639 0.43322 0.0
O21 O 0.22526 0.20045 0.42985 0.0
O22 O 0.275 0.30368 0.42994 0.0
O23 O 0.30296 0.30913 0.40988 0.0
O24 O 0.29903 0.20707 0.421 0.0
O25 O 0.29803 0.20811 0.42096 0.0
O26 O 0.24665 0.23577 0.38421 0.0
O27 O 0.28546 0.28044 0.39157 0.0
O28 O 0.21155 0.15838 0.40796 0.0
O29 O 0.25444 0.17192 0.39221 0.0
O30 O 0.17345 0.21988 0.41263 0.0
O31 O 0.19942 0.27004 0.40548 0.0
H32 H 0.23465 0.34231 0.4033 0.0
H33 H 0.18306 0.39019 0.40737 0.0
H34 H 0.25239 0.44267 0.43986 0.0
H35 H 0.30345 0.39353 0.43622 0.0
H36 H 0.23179 0.15926 0.36771 0.0
H37 H 0.18301 0.14492 0.35018 0.0
H38 H 0.10473 0.10279 0.38215 0.0
H39 H 0.15429 0.11631 0.3998 0.0
Ho40 Ho 0.09387 1.01958 0.66408 0.0
Ho41 Ho 0.13859 0.98971 0.65835 0.0
C42 C 0.1135 0.96931 0.68813 0.0
C43 C 1.03237 0.05856 0.67102 0.0
C44 C 0.99241 1.04436 0.66952 0.0
C45 C 0.98614 1.01085 0.66137 0.0
C46 C 0.95422 0.98694 0.66404 0.0
C47 C 0.92822 0.99659 0.6748 0.0
C48 C 0.93135 1.03319 0.68138 0.0
C49 C 0.96363 0.05683 0.67885 0.0
C50 C 0.15676 0.05471 0.68504 0.0
C51 C 0.09097 1.02533 0.63082 0.0
C52 C 0.2064 0.97069 0.64859 0.0
C53 C 0.21886 0.93907 0.63919 0.0
C54 C 0.20502 0.93698 0.62544 0.0
C55 C 0.21714 0.90683 0.61671 0.0
C56 C 0.24317 0.8779 0.62153 0.0
C57 C 0.25529 0.87893 0.63553 0.0
C58 C 0.24343 0.90939 0.64425 0.0
C59 C 0.09164 0.92164 0.65868 0.0
O60 O 0.0814 0.97999 0.68206 0.0
O61 O 0.1454 0.9755 0.68111 0.0
O62 O 0.05302 1.03849 0.67992 0.0
O63 O 0.05107 0.06444 0.65937 0.0
O64 O 0.15096 0.04932 0.67143 0.0
O65 O 0.14991 0.04853 0.67135 0.0
O66 O 0.1184 0.99961 0.63441 0.0
O67 O 0.07672 1.04176 0.64203 0.0
O68 O 0.19338 0.95908 0.66059 0.0
O69 O 0.18509 0.99875 0.64333 0.0
O70 O 0.12813 0.92437 0.6619 0.0
O71 O 0.08024 0.95706 0.65551 0.0
H72 H 1.00821 1.00075 0.6541 0.0
H73 H 0.95221 0.95905 0.65879 0.0
H74 H 0.9117 1.0413 0.68977 0.0
H75 H 0.96816 0.08248 0.68524 0.0
H76 H 0.18553 0.95906 0.62129 0.0
H77 H 0.20778 0.90767 0.60592 0.0
H78 H 0.2751 0.85703 0.63961 0.0
H79 H 0.25387 0.91004 0.65492 0.0
Ho80 Ho 0.33152 0.8497 0.91366 0.0
Ho81 Ho 0.35891 0.89338 0.90772 0.0
C82 C 0.38119 0.87876 0.93763 0.0
C83 C 0.29514 0.78731 0.92106 0.0
C84 C 0.3082 0.74725 0.91903 0.0
C85 C 0.34184 0.74036 0.91098 0.0
C86 C 0.3642 0.70692 0.91325 0.0
C87 C 0.35305 0.68034 0.92361 0.0
C88 C 0.3161 0.68462 0.92999 0.0
C89 C 0.29395 0.71817 0.92778 0.0
C90 C 0.29541 0.90714 0.93553 0.0
C91 C 0.32658 0.8457 0.88013 0.0
C92 C 0.3712 0.95802 0.89488 0.0
C93 C 0.39634 0.9648 0.88261 0.0
C94 C 0.38063 0.96202 0.86913 0.0
C95 C 0.40491 0.96387 0.8575 0.0
C96 C 0.44545 0.96879 0.85907 0.0
C97 C 0.4612 0.97216 0.87252 0.0
C98 C 0.43688 0.97019 0.88419 0.0
C99 C 0.42908 0.84843 0.90848 0.0
O100 O 0.37099 0.84488 0.9326 0.0
O101 O 0.37522 0.90832 0.92944 0.0
O102 O 0.31758 0.80706 0.92942 0.0
O103 O 0.28679 0.80654 0.90975 0.0
O104 O 0.2996 0.90489 0.92175 0.0
O105 O 0.30059 0.90371 0.92163 0.0
O106 O 0.3522 0.87229 0.88411 0.0
O107 O 0.3091 0.8317 0.89122 0.0
O108 O 0.38933 0.94822 0.90629 0.0
O109 O 0.34005 0.93689 0.89277 0.0
O110 O 0.42495 0.885 0.91146 0.0
O111 O 0.39407 0.83598 0.90536 0.0
H112 H 0.35314 0.76274 0.90412 0.0
H113 H 0.3922 0.70409 0.90806 0.0
H114 H 0.30652 0.66477 0.93806 0.0
H115 H 0.2681 0.72322 0.93407 0.0
H116 H 0.34958 0.95792 0.86754 0.0
H117 H 0.39168 0.96244 0.84725 0.0
H118 H 0.49226 0.97638 0.87401 0.0
H119 H 0.44997 0.97234 0.89445 0.0
Ho120 Ho 0.50893 0.08374 0.16486 0.0
Ho121 Ho 0.46079 0.10893 0.15783 0.0
C122 C 0.47823 0.13397 0.1879 0.0
C123 C 0.5727 0.05176 0.17353 0.0
C124 C 0.61126 0.06957 0.17231 0.0
C125 C 0.61511 0.1024 0.16363 0.0
C126 C 0.64441 0.12954 0.16617 0.0
C127 C 0.67036 0.12374 0.17725 0.0
C128 C 0.66979 0.0883 0.18463 0.0
C129 C 0.64002 0.0614 0.18226 0.0
C130 C 0.44576 1.04499 0.18479 0.0
C131 C 0.51256 0.07327 0.13131 0.0
C132 C 0.39059 0.12093 0.14836 0.0
C133 C 0.36743 0.15398 0.1434 0.0
C134 C 0.32801 0.14811 0.14043 0.0
C135 C 0.30562 0.17828 0.13489 0.0
C136 C 0.32224 0.21514 0.13228 0.0
C137 C 0.36133 0.22155 0.13618 0.0
C138 C 0.38386 0.19105 0.14163 0.0
C139 C 0.50444 0.18039 0.15862 0.0
O140 O 0.51248 0.12537 0.18292 0.0
O141 O 0.44867 0.12563 0.17996 0.0
O142 O 0.5492 0.07129 0.18165 0.0
O143 O 0.55606 1.04214 0.1618 0.0
O144 O 0.4538 0.04903 0.17126 0.0
O145 O 0.45482 0.04995 0.17117 0.0
O146 O 0.47916 0.09128 0.13437 0.0
O147 O 0.53187 0.06546 0.14281 0.0
O148 O 0.39985 0.12191 0.16145 0.0
O149 O 0.41969 0.10977 0.14059 0.0
O150 O 0.46783 0.17545 0.16131 0.0
O151 O 0.51751 0.14564 0.15555 0.0
H152 H 0.59291 0.10938 0.15597 0.0
H153 H 0.64432 0.15679 0.16046 0.0
H154 H 0.68937 0.0836 0.19336 0.0
H155 H 0.63717 1.03651 0.18913 0.0
H156 H 0.31487 0.11971 0.14189 0.0
H157 H 0.27601 0.17157 0.13177 0.0
H158 H 0.37501 0.24951 0.1344 0.0
H159 H 0.41428 0.19613 0.144 0.0
Ho160 Ho 0.26421 0.83794 0.26161 0.0
Ho161 Ho 0.23815 0.88399 0.26859 0.0
C162 C 0.21624 0.87047 0.23818 0.0
C163 C 0.29676 0.77409 0.25333 0.0
C164 C 0.27989 0.73544 0.2556 0.0
C165 C 0.24965 0.73192 0.26547 0.0
C166 C 0.22163 0.70289 0.26401 0.0
C167 C 0.22393 0.67697 0.25277 0.0
C168 C 0.25754 0.67663 0.24432 0.0
C169 C 0.28529 0.70615 0.24563 0.0
C170 C 0.30379 0.90001 0.24159 0.0
C171 C 0.27316 0.83257 0.29518 0.0
C172 C 0.22206 0.95062 0.27985 0.0
C173 C 0.19049 0.96275 0.28938 0.0
C174 C 0.19009 0.95053 0.30334 0.0
C175 C 0.16011 0.96241 0.31221 0.0
C176 C 0.12974 0.98668 0.30734 0.0
C177 C 0.12919 0.99726 0.29318 0.0
C178 C 0.15942 0.98562 0.28432 0.0
C179 C 0.1673 0.83974 0.26757 0.0
O180 O 0.22392 0.83583 0.243 0.0
O181 O 0.22453 0.89921 0.24647 0.0
O182 O 0.27569 0.79613 0.24519 0.0
O183 O 0.30766 0.79247 0.26456 0.0
O184 O 0.2983 0.89334 0.25515 0.0
O185 O 0.29743 0.89234 0.25525 0.0
O186 O 0.2512 0.8635 0.29221 0.0
O187 O 0.28499 0.81611 0.28355 0.0
O188 O 0.21057 0.94053 0.26748 0.0
O189 O 0.24888 0.92711 0.28471 0.0
O190 O 0.17192 0.87623 0.26478 0.0
O191 O 0.20222 0.82703 0.27074 0.0
H192 H 0.24477 0.7544 0.27322 0.0
H193 H 0.19577 0.70378 0.27051 0.0
H194 H 0.25948 0.65706 0.23547 0.0
H195 H 0.30818 0.70859 0.23787 0.0
H196 H 0.21335 0.93253 0.30754 0.0
H197 H 0.16214 0.95437 0.32311 0.0
H198 H 0.1062 1.0158 0.28909 0.0
H199 H 0.15879 0.995 0.27353 0.0
Ho200 Ho 0.50681 1.01895 0.51241 0.0
Ho201 Ho 0.46143 0.99224 0.51933 0.0
C202 C 0.47533 0.97026 0.48905 0.0
C203 C 0.56964 0.05258 0.50385 0.0
C204 C 0.6089 1.03638 0.50547 0.0
C205 C 0.61388 1.00462 0.51459 0.0
C206 C 0.64394 0.97788 0.51235 0.0
C207 C 0.66944 0.98308 0.50112 0.0
C208 C 0.668 1.01792 0.49339 0.0
C209 C 0.63746 1.04437 0.49547 0.0
C210 C 0.4448 0.05751 0.49221 0.0
C211 C 0.5117 1.02767 0.54592 0.0
C212 C 0.39597 0.97604 0.5313 0.0
C213 C 0.38735 0.94702 0.54222 0.0
C214 C 0.39713 0.9543 0.55619 0.0
C215 C 0.39102 0.9259 0.56632 0.0
C216 C 0.375 0.8895 0.56275 0.0
C217 C 0.36574 0.88198 0.54874 0.0
C218 C 0.37172 0.91053 0.53858 0.0
C219 C 0.50749 0.92244 0.51851 0.0
O220 O 0.50983 0.97811 0.49398 0.0
O221 O 0.44621 0.97847 0.49724 0.0
O222 O 0.54744 1.03166 0.49578 0.0
O223 O 0.55202 0.06228 0.51539 0.0
O224 O 0.45079 0.05204 0.50579 0.0
O225 O 0.45181 0.05117 0.5059 0.0
O226 O 0.48211 1.00429 0.54291 0.0
O227 O 0.52731 1.04077 0.53434 0.0
O228 O 0.40655 0.96152 0.51936 0.0
O229 O 0.41736 1.00588 0.53486 0.0
O230 O 0.47092 0.92636 0.51551 0.0
O231 O 0.51934 0.9575 0.52168 0.0
H232 H 0.5919 0.99785 0.52235 0.0
H233 H 0.64455 0.9511 0.51834 0.0
H234 H 0.68728 1.02215 0.48455 0.0
H235 H 0.6338 0.06849 0.48828 0.0
H236 H 0.40931 0.98201 0.55937 0.0
H237 H 0.39738 0.93325 0.57707 0.0
H238 H 0.35318 0.85434 0.54567 0.0
H239 H 0.36415 0.90401 0.52786 0.0
Ho240 Ho 0.3326 0.25999 0.76389 0.0
Ho241 Ho 0.36458 0.21523 0.76805 0.0
C242 C 0.38079 0.25094 0.7389 0.0
C243 C 0.28793 0.31876 0.75857 0.0
C244 C 0.29818 0.35983 0.7599 0.0
C245 C 0.33189 0.36968 0.76747 0.0
C246 C 0.35265 0.40322 0.76408 0.0
C247 C 0.33998 0.42687 0.75302 0.0
C248 C 0.30285 0.42012 0.74713 0.0
C249 C 0.28217 0.38654 0.7505 0.0
C250 C 0.30086 0.19604 0.74207 0.0
C251 C 0.33059 0.25899 0.79703 0.0
C252 C 0.3852 0.14519 0.77497 0.0
C253 C 0.41827 0.12876 0.78276 0.0
C254 C 0.42872 0.14345 0.79588 0.0
C255 C 0.45826 0.12549 0.80355 0.0
C256 C 0.47816 0.09265 0.79822 0.0
C257 C 0.47002 0.08042 0.78452 0.0
C258 C 0.44007 0.09816 0.77691 0.0
C259 C 0.43247 0.26185 0.76819 0.0
O260 O 0.36845 0.2804 0.74605 0.0
O261 O 0.37754 0.21707 0.74495 0.0
O262 O 0.3083 0.30066 0.74905 0.0
O263 O 0.28601 0.29915 0.77021 0.0
O264 O 0.30446 0.20268 0.75575 0.0
O265 O 0.30534 0.20385 0.75573 0.0
O266 O 0.35422 0.23076 0.79237 0.0
O267 O 0.31436 0.27688 0.78652 0.0
O268 O 0.39436 0.16129 0.76319 0.0
O269 O 0.35949 0.16563 0.78193 0.0
O270 O 0.4298 0.22558 0.7648 0.0
O271 O 0.39691 0.27341 0.77141 0.0
H272 H 0.34474 0.34922 0.77478 0.0
H273 H 0.38077 0.4081 0.76896 0.0
H274 H 0.29209 0.43773 0.73857 0.0
H275 H 0.25631 0.37923 0.74454 0.0
H276 H 0.41302 0.16776 0.80047 0.0
H277 H 0.46323 0.13563 0.8141 0.0
H278 H 0.48516 0.05565 0.78002 0.0
H279 H 0.43306 0.08713 0.76661 0.0
Ho280 Ho 0.09418 0.08965 1.01497 0.0
Ho281 Ho 0.13613 0.11662 1.02144 0.0
C282 C 0.12677 0.1393 0.99143 0.0
C283 C 1.03171 0.05352 1.0073 0.0
C284 C 0.9914 0.06621 1.00913 0.0
C285 C 0.98388 0.1002 1.01688 0.0
C286 C 0.95021 0.122 1.01428 0.0
C287 C 0.92407 0.1099 1.00388 0.0
C288 C 0.92889 0.0726 0.99788 0.0
C289 C 0.96266 0.05103 1.00041 0.0
C290 C 0.15359 0.05621 0.99311 0.0
C291 C 0.08799 0.08416 1.04849 0.0
C292 C 0.19866 0.12757 1.03571 0.0
C293 C 0.20331 0.15351 1.04791 0.0
C294 C 0.1952 0.13976 1.06139 0.0
C295 C 0.19541 0.1652 1.07272 0.0
C296 C 0.20404 0.20493 1.07087 0.0
C297 C 0.21215 0.21875 1.05741 0.0
C298 C 0.21184 0.1933 1.04605 0.0
C299 C 0.09207 0.18714 1.02008 0.0
O300 O 0.09233 0.12737 0.9955 0.0
O301 O 0.15444 0.13588 1.0006 0.0
O302 O 0.05168 0.0761 0.9991 0.0
O303 O 0.05058 1.0452 1.0187 0.0
O304 O 0.14958 0.05807 1.00691 0.0
O305 O 0.14823 0.05922 1.00703 0.0
O306 O 0.11196 0.11219 1.04464 0.0
O307 O 0.07739 0.06475 1.03731 0.0
O308 O 0.19177 0.14511 1.02392 0.0
O309 O 0.17643 0.09702 1.03744 0.0
O310 O 0.12903 0.18268 1.01772 0.0
O311 O 0.07881 0.15225 1.02286 0.0
H312 H 1.00598 0.11216 1.02373 0.0
H313 H 0.94694 0.15026 1.0192 0.0
H314 H 0.90939 0.06224 0.98981 0.0
H315 H 0.96818 1.02485 0.99438 0.0
H316 H 0.18841 0.10936 1.0632 0.0
H317 H 0.19022 0.15337 1.08303 0.0
H318 H 0.21931 0.24911 1.05572 0.0
H319 H 0.21799 0.20493 1.03578 0.0
Ho320 Ho 0.85841 0.89262 0.76939 0.0
Ho321 Ho 0.83366 0.84599 0.76358 0.0
C322 C 0.82651 0.84393 0.7971 0.0
C323 C 0.8727 0.95976 0.78037 0.0
C324 C 0.90354 0.97068 0.79036 0.0
C325 C 0.90071 0.9601 0.80446 0.0
C326 C 0.93099 0.96848 0.81366 0.0
C327 C 0.96488 0.98763 0.80901 0.0
C328 C 0.96809 0.99748 0.79484 0.0
C329 C 0.93764 0.98921 0.78562 0.0
C330 C 0.93111 0.85148 0.76841 0.0
C331 C 0.8798 0.87598 0.73922 0.0
C332 C 0.8026 0.781 0.75595 0.0
C333 C 0.82155 0.74297 0.75758 0.0
C334 C 0.85502 0.74075 0.76606 0.0
C335 C 0.8834 0.71242 0.76351 0.0
C336 C 0.87807 0.68567 0.75266 0.0
C337 C 0.84201 0.68429 0.74565 0.0
C338 C 0.81392 0.71322 0.74799 0.0
C339 C 0.79248 0.90547 0.74271 0.0
O340 O 0.84826 0.87395 0.79318 0.0
O341 O 0.8133 0.82592 0.786 0.0
O342 O 0.88521 0.94935 0.76814 0.0
O343 O 0.84507 0.93686 0.78488 0.0
O344 O 0.92379 0.88717 0.76503 0.0
O345 O 0.89723 0.83722 0.77209 0.0
O346 O 0.87331 0.84194 0.74476 0.0
O347 O 0.87115 0.90571 0.74704 0.0
O348 O 0.82112 0.8039 0.74741 0.0
O349 O 0.79319 0.7987 0.76751 0.0
O350 O 0.79817 0.9002 0.75635 0.0
O351 O 0.79901 0.89927 0.75641 0.0
H352 H 0.87499 0.94562 0.80846 0.0
H353 H 0.92689 0.96149 0.82458 0.0
H354 H 0.9937 1.01241 0.79096 0.0
H355 H 0.94076 0.99735 0.77476 0.0
H356 H 0.86154 0.7637 0.77346 0.0
H357 H 0.91121 0.71425 0.76886 0.0
H358 H 0.8377 0.66412 0.73709 0.0
H359 H 0.78852 0.71476 0.74127 0.0
Ho360 Ho 0.95861 0.10661 0.52207 0.0
Ho361 Ho 0.99887 0.08431 0.51374 0.0
C362 C 1.01163 0.07225 0.54666 0.0
C363 C 0.90508 0.09225 0.54028 0.0
C364 C 0.90929 0.08401 0.5554 0.0
C365 C 0.9223 1.04694 0.55983 0.0
C366 C 0.92838 1.039 0.57391 0.0
C367 C 0.9208 0.06753 0.58402 0.0
C368 C 0.90836 0.10482 0.57965 0.0
C369 C 0.90275 0.113 0.56547 0.0
C370 C 0.99677 0.18004 0.52052 0.0
C371 C 0.95472 0.13666 0.49324 0.0
C372 C 0.06465 0.05852 0.50438 0.0
C373 C 0.10113 0.08053 0.50527 0.0
C374 C 0.0992 0.12128 0.50499 0.0
C375 C 0.133 0.14325 0.50451 0.0
C376 C 0.17 0.12503 0.50426 0.0
C377 C 0.1716 0.08437 0.50678 0.0
C378 C 0.13733 0.06217 0.50701 0.0
C379 C 0.93718 0.04967 0.49242 0.0
O380 O 0.992 0.10414 0.54381 0.0
O381 O 1.0146 0.05232 0.53498 0.0
O382 O 0.91215 0.12759 0.53582 0.0
O383 O 0.92059 0.06585 0.53222 0.0
O384 O 0.95921 0.17387 0.51931 0.0
O385 O 1.01287 0.14575 0.52234 0.0
O386 O 0.99101 0.12688 0.49588 0.0
O387 O 0.92962 0.12905 0.50306 0.0
O388 O 1.0381 0.07408 0.4964 0.0
O389 O 0.05039 1.04784 0.51632 0.0
O390 O 0.94535 0.05025 0.50598 0.0
O391 O 0.94674 0.05161 0.5061 0.0
H392 H 0.92808 1.02378 0.55243 0.0
H393 H 0.93834 1.01017 0.57689 0.0
H394 H 0.90146 0.12728 0.58721 0.0
H395 H 0.89294 0.14181 0.56241 0.0
H396 H 0.07139 0.13631 0.5043 0.0
H397 H 0.12913 0.17419 0.50294 0.0
H398 H 0.19919 0.06911 0.50761 0.0
H399 H 0.1392 1.03077 0.50804 0.0
Ho400 Ho 0.73623 0.21343 0.2707 0.0
Ho401 Ho 0.76656 0.25815 0.26558 0.0
C402 C 0.77019 0.25985 0.29889 0.0
C403 C 0.71691 0.14582 0.28023 0.0
C404 C 0.68549 0.13451 0.2899 0.0
C405 C 0.68574 0.14707 0.30383 0.0
C406 C 0.65533 0.13709 0.31276 0.0
C407 C 0.62378 0.11447 0.30798 0.0
C408 C 0.62285 0.1032 0.29389 0.0
C409 C 0.65353 0.11298 0.28495 0.0
C410 C 0.66787 0.26024 0.27039 0.0
C411 C 0.71651 0.24069 0.24118 0.0
C412 C 0.80703 0.31822 0.25869 0.0
C413 C 0.79377 0.35857 0.25956 0.0
C414 C 0.75914 0.36668 0.26692 0.0
C415 C 0.7363 0.39883 0.26329 0.0
C416 C 0.74797 0.42301 0.25227 0.0
C417 C 0.78552 0.41788 0.24645 0.0
C418 C 0.80819 0.38562 0.25003 0.0
C419 C 0.80155 0.19624 0.2442 0.0
O420 O 0.74634 0.23161 0.29467 0.0
O421 O 0.78626 0.27645 0.28806 0.0
O422 O 0.70497 0.1593 0.26832 0.0
O423 O 0.74581 0.16613 0.28532 0.0
O424 O 0.67084 0.2238 0.26722 0.0
O425 O 0.70322 0.2719 0.27353 0.0
O426 O 0.72722 0.2722 0.24757 0.0
O427 O 0.72243 0.20825 0.24789 0.0
O428 O 0.78709 0.29775 0.24975 0.0
O429 O 0.81151 0.30024 0.27056 0.0
O430 O 0.79587 0.20099 0.25787 0.0
O431 O 0.79513 0.20199 0.25793 0.0
H432 H 0.70968 0.16411 0.30794 0.0
H433 H 0.65775 0.1455 0.32361 0.0
H434 H 0.59899 0.08586 0.28987 0.0
H435 H 0.6524 0.10349 0.27418 0.0
H436 H 0.74751 0.34583 0.2743 0.0
H437 H 0.70784 0.4024 0.26807 0.0
H438 H 0.79548 0.43582 0.23787 0.0
H439 H 0.83466 0.37954 0.2442 0.0
Ho440 Ho 0.63908 0.98962 1.0196 0.0
Ho441 Ho 0.59423 1.01669 1.01288 0.0
C442 C 0.58828 1.02392 1.04643 0.0
C443 C 0.70489 0.97304 1.03136 0.0
C444 C 0.71428 0.94345 1.04201 0.0
C445 C 0.70218 0.94834 1.05589 0.0
C446 C 0.70952 0.91938 1.06571 0.0
C447 C 0.72906 0.88475 1.06193 0.0
C448 C 0.74037 0.87948 1.04797 0.0
C449 C 0.7332 0.90864 1.03812 0.0
C450 C 0.59381 0.9197 1.01847 0.0
C451 C 0.62509 0.96873 0.98917 0.0
C452 C 0.53226 0.05316 1.00491 0.0
C453 C 0.49229 1.03999 1.00691 0.0
C454 C 0.48569 1.0068 1.01517 0.0
C455 C 0.45214 0.98465 1.01319 0.0
C456 C 0.4251 0.99557 1.00291 0.0
C457 C 0.42926 1.03206 0.99625 0.0
C458 C 0.46294 0.05398 0.99816 0.0
C459 C 0.65549 0.05522 0.99257 0.0
O460 O 0.6186 1.0013 1.04331 0.0
O461 O 0.57232 1.03681 1.03488 0.0
O462 O 0.69431 0.95908 1.01936 0.0
O463 O 0.68307 1.00248 1.0352 0.0
O464 O 0.63048 0.92376 1.01572 0.0
O465 O 0.58134 0.95472 1.02158 0.0
O466 O 0.59063 0.97723 0.99409 0.0
O467 O 0.65417 0.97597 0.99747 0.0
O468 O 0.55259 1.0306 0.9967 0.0
O469 O 0.551 0.06193 1.01629 0.0
O470 O 0.65004 0.04951 1.00618 0.0
O471 O 0.649 0.04863 1.00628 0.0
H472 H 0.68735 0.97468 1.05924 0.0
H473 H 0.70138 0.92506 1.07644 0.0
H474 H 0.75556 0.85323 1.04473 0.0
H475 H 0.7425 0.90398 1.02744 0.0
H476 H 0.5083 0.99571 1.02203 0.0
H477 H 0.44945 0.95702 1.01857 0.0
H478 H 0.40911 1.04146 0.98821 0.0
H479 H 0.46775 0.07948 0.99173 0.0
Ho480 Ho 0.85905 0.21356 0.90703 0.0
Ho481 Ho 0.83454 0.25823 0.91403 0.0
C482 C 0.82478 0.266 0.88067 0.0
C483 C 0.87345 0.14782 0.89494 0.0
C484 C 0.90485 0.13746 0.88506 0.0
C485 C 0.90263 0.14884 0.87103 0.0
C486 C 0.9331 0.14027 0.8619 0.0
C487 C 0.96659 0.12014 0.86656 0.0
C488 C 0.96932 0.10982 0.8807 0.0
C489 C 0.93867 0.11823 0.88984 0.0
C490 C 0.93183 0.25429 0.90833 0.0
C491 C 0.88188 0.2259 0.93747 0.0
C492 C 0.79944 0.3206 0.92246 0.0
C493 C 0.81211 0.36076 0.92074 0.0
C494 C 0.84512 0.36845 0.91251 0.0
C495 C 0.86619 0.40265 0.91454 0.0
C496 C 0.85447 0.42908 0.92491 0.0
C497 C 0.81804 0.42377 0.93153 0.0
C498 C 0.79715 0.38951 0.92954 0.0
C499 C 0.79524 0.19711 0.93439 0.0
O500 O 0.84687 0.23512 0.88348 0.0
O501 O 0.81313 0.28177 0.89241 0.0
O502 O 0.88518 0.15624 0.90745 0.0
O503 O 0.84646 0.17192 0.8906 0.0
O504 O 0.92476 0.2181 0.91092 0.0
O505 O 0.89757 0.2692 0.90526 0.0
O506 O 0.87418 0.26066 0.93276 0.0
O507 O 0.87387 0.19744 0.929 0.0
O508 O 0.82242 0.29985 0.93038 0.0
O509 O 0.79028 0.30261 0.91097 0.0
O510 O 0.79997 0.20343 0.92077 0.0
O511 O 0.80083 0.20439 0.92068 0.0
H512 H 0.87715 0.16392 0.86701 0.0
H513 H 0.92937 0.14773 0.851 0.0
H514 H 0.99463 0.0942 0.8846 0.0
H515 H 0.94135 0.10946 0.90066 0.0
H516 H 0.85689 0.34633 0.90559 0.0
H517 H 0.89379 0.40626 0.90917 0.0
H518 H 0.80804 0.44347 0.93963 0.0
H519 H 0.77166 0.38388 0.93592 0.0
Ho520 Ho 0.6405 0.11171 0.6561 0.0
Ho521 Ho 0.59444 0.08988 0.66394 0.0
C522 C 0.58732 0.07808 0.6304 0.0
C523 C 0.7084 0.11486 0.64431 0.0
C524 C 0.74947 0.10889 0.6483 0.0
C525 C 0.76283 0.07439 0.65465 0.0
C526 C 0.80301 0.06743 0.65604 0.0
C527 C 0.83023 0.09469 0.65096 0.0
C528 C 0.81621 0.13106 0.64623 0.0
C529 C 0.77632 0.13789 0.64483 0.0
C530 C 0.60053 0.1852 0.65809 0.0
C531 C 0.63627 0.13521 0.68649 0.0
C532 C 0.52833 0.06454 0.67301 0.0
C533 C 0.49154 0.08558 0.67089 0.0
C534 C 0.49093 0.11541 0.6608 0.0
C535 C 0.46755 0.14829 0.66279 0.0
C536 C 0.44406 0.15101 0.67468 0.0
C537 C 0.43941 0.11811 0.68328 0.0
C538 C 0.46352 0.08557 0.6815 0.0
C539 C 0.65524 0.0498 0.68437 0.0
O540 O 0.61675 0.10185 0.63292 0.0
O541 O 0.57315 0.06523 0.6423 0.0
O542 O 0.69117 0.14476 0.64993 0.0
O543 O 0.6858 0.08435 0.64364 0.0
O544 O 0.63672 0.17724 0.6609 0.0
O545 O 0.58559 0.15167 0.65446 0.0
O546 O 0.60005 0.12925 0.68278 0.0
O547 O 0.66253 0.12681 0.67717 0.0
O548 O 0.55287 0.08364 0.68077 0.0
O549 O 0.54491 0.05095 0.66178 0.0
O550 O 0.64774 0.05293 0.67077 0.0
O551 O 0.64662 0.05407 0.67069 0.0
H552 H 0.74246 0.05197 0.65781 0.0
H553 H 0.81272 1.03944 0.66 0.0
H554 H 0.8358 0.15296 0.64213 0.0
H555 H 0.76655 0.16501 0.64016 0.0
H556 H 0.51238 0.11594 0.65249 0.0
H557 H 0.47143 0.17331 0.65605 0.0
H558 H 0.42152 0.11982 0.6926 0.0
H559 H 0.46375 0.06303 0.68941 0.0
Ho560 Ho 0.73255 0.88879 0.40698 0.0
Ho561 Ho 0.76249 0.84555 0.41288 0.0
C562 C 0.76892 0.84077 0.37956 0.0
C563 C 0.71355 0.95522 0.39626 0.0
C564 C 0.68346 0.96502 0.38581 0.0
C565 C 0.6877 0.95339 0.37186 0.0
C566 C 0.65849 0.96154 0.36219 0.0
C567 C 0.62422 0.98143 0.36621 0.0
C568 C 0.61947 0.99203 0.38027 0.0
C569 C 0.6489 0.98404 0.38996 0.0
C570 C 0.6639 0.84239 0.40763 0.0
C571 C 0.71199 0.86505 0.43685 0.0
C572 C 0.80428 0.78627 0.42018 0.0
C573 C 0.79355 0.74533 0.4192 0.0
C574 C 0.76016 0.73523 0.41149 0.0
C575 C 0.73957 0.70153 0.41481 0.0
C576 C 0.75211 0.67803 0.42593 0.0
C577 C 0.78897 0.68517 0.432 0.0
C578 C 0.80944 0.71891 0.4287 0.0
C579 C 0.79747 0.9077 0.43394 0.0
O580 O 0.74355 0.86866 0.38303 0.0
O581 O 0.78434 0.82632 0.39092 0.0
O582 O 0.70012 0.94282 0.40811 0.0
O583 O 0.74361 0.93483 0.39202 0.0
O584 O 0.66688 0.87911 0.41036 0.0
O585 O 0.69952 0.83038 0.40478 0.0
O586 O 0.72325 0.83291 0.43096 0.0
O587 O 0.71789 0.8967 0.42968 0.0
O588 O 0.78253 0.80595 0.42886 0.0
O589 O 0.80881 0.80427 0.40833 0.0
O590 O 0.79154 0.90283 0.42031 0.0
O591 O 0.79079 0.90181 0.42021 0.0
H592 H 0.71379 0.93841 0.36832 0.0
H593 H 0.66381 0.95386 0.35139 0.0
H594 H 0.59349 1.0074 0.38369 0.0
H595 H 0.64472 0.99289 0.40071 0.0
H596 H 0.74753 0.75551 0.40407 0.0
H597 H 0.71167 0.69639 0.40982 0.0
H598 H 0.79964 0.66773 0.44061 0.0
H599 H 0.83511 0.72644 0.43473 0.0
Ho600 Ho 0.95776 0.98965 0.15935 0.0
Ho601 Ho 1.00275 1.01988 0.16409 0.0
C602 C 1.00253 1.02328 0.13083 0.0
C603 C 0.8894 0.9715 0.15012 0.0
C604 C 0.87769 0.94099 0.14017 0.0
C605 C 0.89108 0.94159 0.12634 0.0
C606 C 0.88114 0.91178 0.11718 0.0
C607 C 0.85772 0.88048 0.12162 0.0
C608 C 0.84548 0.87922 0.13561 0.0
C609 C 0.85527 0.9093 0.14478 0.0
C610 C 1.00415 0.92124 0.15922 0.0
C611 C 0.9882 0.96916 0.18848 0.0
C612 C 0.06407 0.05938 0.17034 0.0
C613 C 0.10392 1.04466 0.1689 0.0
C614 C 0.10995 1.01072 0.16093 0.0
C615 C 0.14149 0.98624 0.1638 0.0
C616 C 0.16736 0.99569 0.17459 0.0
C617 C 0.16431 1.03243 0.18111 0.0
C618 C 0.13247 0.05669 0.17835 0.0
C619 C 0.93924 0.05209 0.18599 0.0
O620 O 0.97594 0.99797 0.1353 0.0
O621 O 1.01829 1.04091 0.14151 0.0
O622 O 0.90349 0.95853 0.16181 0.0
O623 O 0.90953 1.00074 0.14523 0.0
O624 O 0.96788 0.92436 0.16274 0.0
O625 O 1.01582 0.9565 0.15598 0.0
O626 O 1.01894 0.98072 0.18182 0.0
O627 O 0.95496 0.97439 0.18214 0.0
O628 O 1.0438 1.04023 0.17955 0.0
O629 O 1.04496 0.06436 0.1587 0.0
O630 O 0.94598 0.04926 0.1723 0.0
O631 O 0.94716 1.04832 0.1723 0.0
H632 H 0.90882 0.96532 0.12249 0.0
H633 H 0.89029 0.91444 0.10641 0.0
H634 H 0.82746 0.85555 0.13936 0.0
H635 H 0.84519 0.9079 0.15549 0.0
H636 H 0.08795 1.00083 0.15363 0.0
H637 H 0.14338 0.95824 0.1586 0.0
H638 H 0.18373 1.04038 0.18956 0.0
H639 H 0.128 0.08252 0.18467 0.0
Ho640 Ho 0.76457 0.75966 0.91314 0.0
Ho641 Ho 0.73477 0.71325 0.90856 0.0
C642 C 0.71465 0.74495 0.93771 0.0
C643 C 0.80459 0.82084 0.919 0.0
C644 C 0.79076 0.86082 0.91734 0.0
C645 C 0.75615 0.86719 0.90975 0.0
C646 C 0.73264 0.89937 0.91273 0.0
C647 C 0.74366 0.92536 0.9233 0.0
C648 C 0.78121 0.92194 0.92925 0.0
C649 C 0.80454 0.88957 0.92636 0.0
C650 C 0.79922 0.6977 0.93496 0.0
C651 C 0.76799 0.75798 0.87978 0.0
C652 C 0.71822 0.64232 0.90123 0.0
C653 C 0.68614 0.62395 0.89368 0.0
C654 C 0.68705 0.58375 0.8914 0.0
C655 C 0.6578 0.56611 0.88353 0.0
C656 C 0.62708 0.5885 0.87785 0.0
C657 C 0.62497 0.62849 0.88101 0.0
C658 C 0.65447 0.64615 0.8888 0.0
C659 C 0.66566 0.75954 0.9085 0.0
O660 O 0.72563 0.77572 0.93097 0.0
O661 O 0.72028 0.71175 0.93144 0.0
O662 O 0.78486 0.80144 0.92831 0.0
O663 O 0.80938 0.8012 0.90747 0.0
O664 O 0.79505 0.70343 0.92126 0.0
O665 O 0.79418 0.70453 0.92123 0.0
O666 O 0.7457 0.72876 0.88433 0.0
O667 O 0.78267 0.77679 0.8904 0.0
O668 O 0.70856 0.65762 0.91311 0.0
O669 O 0.741 0.66505 0.89403 0.0
O670 O 0.66913 0.72339 0.91203 0.0
O671 O 0.70084 0.77098 0.90503 0.0
H672 H 0.74499 0.84503 0.90277 0.0
H673 H 0.70409 0.90156 0.9079 0.0
H674 H 0.79059 0.9414 0.93749 0.0
H675 H 0.83099 0.88487 0.93235 0.0
H676 H 0.71113 0.56622 0.89526 0.0
H677 H 0.66087 0.53541 0.88111 0.0
H678 H 0.60163 0.64646 0.87685 0.0
H679 H 0.65319 0.67728 0.89062 0.0
Ho680 Ho 0.58846 0.51417 0.16412 0.0
Ho681 Ho 0.63447 0.489 0.15705 0.0
C682 C 0.62324 0.46506 0.1872 0.0
C683 C 0.52427 0.54593 0.17265 0.0
C684 C 0.48537 0.52936 0.1708 0.0
C685 C 0.48137 0.49707 0.16187 0.0
C686 C 0.4512 0.47058 0.16396 0.0
C687 C 0.42463 0.47655 0.17485 0.0
C688 C 0.42524 0.51189 0.18231 0.0
C689 C 0.45587 0.53808 0.18039 0.0
C690 C 0.64783 0.55187 0.18488 0.0
C691 C 0.58469 0.52479 0.13045 0.0
C692 C 0.70169 0.47378 0.14598 0.0
C693 C 0.71553 0.4405 0.13757 0.0
C694 C 0.70401 0.43606 0.12363 0.0
C695 C 0.71804 0.40485 0.11576 0.0
C696 C 0.74386 0.37731 0.12165 0.0
C697 C 0.75352 0.38059 0.13585 0.0
C698 C 0.73972 0.41204 0.14369 0.0
C699 C 0.59039 0.41774 0.15799 0.0
O700 O 0.58817 0.47369 0.18281 0.0
O701 O 0.65134 0.47283 0.17859 0.0
O702 O 0.54673 0.52482 0.18062 0.0
O703 O 0.54194 0.55657 0.16126 0.0
O704 O 0.64306 0.54861 0.17116 0.0
O705 O 0.64192 0.54756 0.17103 0.0
O706 O 0.61568 0.50307 0.13344 0.0
O707 O 0.56747 0.53572 0.14208 0.0
O708 O 0.69271 0.46536 0.15877 0.0
O709 O 0.67641 0.49759 0.14034 0.0
O710 O 0.62709 0.4225 0.16049 0.0
O711 O 0.57745 0.45257 0.155 0.0
H712 H 0.50407 0.48982 0.15442 0.0
H713 H 0.45125 0.44345 0.15817 0.0
H714 H 0.40515 0.51679 0.19088 0.0
H715 H 0.45872 0.56267 0.18742 0.0
H716 H 0.68504 0.45721 0.11864 0.0
H717 H 0.71056 0.4039 0.10479 0.0
H718 H 0.7732 0.35985 0.14071 0.0
H719 H 0.74862 0.41451 0.15451 0.0
Ho720 Ho 0.83216 0.34942 0.41433 0.0
Ho721 Ho 0.85972 0.39541 0.40951 0.0
C722 C 0.88082 0.36623 0.43892 0.0
C723 C 0.78993 0.28963 0.42058 0.0
C724 C 0.7976 0.24793 0.41955 0.0
C725 C 0.83075 0.23475 0.41232 0.0
C726 C 0.84765 0.19902 0.41583 0.0
C727 C 0.832 0.17701 0.42684 0.0
C728 C 0.79498 0.18732 0.43217 0.0
C729 C 0.77802 0.22287 0.4286 0.0
C730 C 0.79526 0.41026 0.43603 0.0
C731 C 0.82839 0.3485 0.38103 0.0
C732 C 0.8743 0.46568 0.4012 0.0
C733 C 0.90487 0.48317 0.39249 0.0
C734 C 0.91115 0.47058 0.37876 0.0
C735 C 0.93924 0.48862 0.37051 0.0
C736 C 0.96195 0.5194 0.37585 0.0
C737 C 0.95716 0.53029 0.38988 0.0
C738 C 0.92869 0.51245 0.3981 0.0
C739 C 0.93137 0.35352 0.40986 0.0
O740 O 0.871 0.33473 0.43235 0.0
O741 O 0.87396 0.39882 0.43239 0.0
O742 O 0.81238 0.30752 0.42949 0.0
O743 O 0.78686 0.30835 0.4088 0.0
O744 O 0.80026 0.40509 0.42233 0.0
O745 O 0.80104 0.40412 0.42231 0.0
O746 O 0.84998 0.37839 0.38538 0.0
O747 O 0.81443 0.3299 0.3918 0.0
O748 O 0.88644 0.45149 0.41297 0.0
O749 O 0.84891 0.44302 0.39512 0.0
O750 O 0.92488 0.38941 0.41319 0.0
O751 O 0.897 0.33933 0.40643 0.0
H752 H 0.84603 0.25385 0.40518 0.0
H753 H 0.87556 0.19125 0.41126 0.0
H754 H 0.78171 0.17102 0.44059 0.0
H755 H 0.75224 0.23268 0.43418 0.0
H756 H 0.89364 0.44759 0.37422 0.0
H757 H 0.94134 0.47985 0.35968 0.0
H758 H 0.97434 0.55361 0.39435 0.0
H759 H 0.92474 0.52208 0.40878 0.0
Ho760 Ho 1.00451 0.58883 0.66258 0.0
Ho761 Ho 0.956 0.61748 0.65722 0.0
C762 C 0.98625 0.64174 0.68632 0.0
C763 C 0.06676 0.55105 0.66934 0.0
C764 C 0.10623 0.56648 0.66797 0.0
C765 C 0.1112 0.60112 0.66033 0.0
C766 C 0.14208 0.62597 0.66341 0.0
C767 C 0.16841 0.61613 0.67403 0.0
C768 C 0.16654 0.57886 0.68016 0.0
C769 C 0.13527 0.55424 0.67723 0.0
C770 C 0.94006 0.55582 0.68382 0.0
C771 C 1.00212 0.58092 0.62918 0.0
C772 C 0.88358 0.62702 0.64987 0.0
C773 C 0.85355 0.59822 0.6466 0.0
C774 C 0.86257 0.5583 0.64724 0.0
C775 C 0.83734 0.531 0.64139 0.0
C776 C 0.80299 0.54341 0.63471 0.0
C777 C 0.79213 0.58303 0.63548 0.0
C778 C 0.81743 0.61031 0.64135 0.0
C779 C 1.00121 0.68709 0.65753 0.0
O780 O 1.0176 0.62863 0.68034 0.0
O781 O 0.95352 0.63705 0.67959 0.0
O782 O 1.04571 0.57044 0.67832 0.0
O783 O 1.04816 0.54492 0.65767 0.0
O784 O 0.94833 0.55776 0.67022 0.0
O785 O 0.94945 0.55872 0.67021 0.0
O786 O 0.96977 0.59903 0.63351 0.0
O787 O 1.02418 0.5721 0.63989 0.0
O788 O 0.9127 0.62793 0.64117 0.0
O789 O 0.89535 0.6274 0.66273 0.0
O790 O 0.96455 0.68341 0.66048 0.0
O791 O 1.01361 0.6521 0.65428 0.0
H792 H 0.08876 0.61119 0.65321 0.0
H793 H 0.14304 0.65448 0.65856 0.0
H794 H 0.18639 0.5707 0.68848 0.0
H795 H 0.13159 0.52786 0.6833 0.0
H796 H 0.89038 0.54848 0.65132 0.0
H797 H 0.84637 0.50071 0.64093 0.0
H798 H 0.76606 0.59359 0.63028 0.0
H799 H 0.81002 0.64103 0.64086 0.0
Ho800 Ho 0.76764 0.34939 0.76308 0.0
Ho801 Ho 0.73806 0.3938 0.7689 0.0
C802 C 0.7168 0.36661 0.73925 0.0
C803 C 0.80999 0.29032 0.75581 0.0
C804 C 0.80112 0.24884 0.75674 0.0
C805 C 0.76867 0.23676 0.76456 0.0
C806 C 0.75069 0.20135 0.76153 0.0
C807 C 0.76454 0.1783 0.75045 0.0
C808 C 0.80068 0.18784 0.74427 0.0
C809 C 0.81871 0.22313 0.74735 0.0
C810 C 0.80211 0.41161 0.74181 0.0
C811 C 0.77388 0.34499 0.79634 0.0
C812 C 0.72121 0.46247 0.77841 0.0
C813 C 0.69154 0.47757 0.78812 0.0
C814 C 0.68976 0.46452 0.80196 0.0
C815 C 0.66186 0.47978 0.81105 0.0
C816 C 0.63491 0.50817 0.80646 0.0
C817 C 0.63566 0.51983 0.79242 0.0
C818 C 0.66387 0.50478 0.78335 0.0
C819 C 0.66899 0.34845 0.76861 0.0
O820 O 0.72773 0.33494 0.74547 0.0
O821 O 0.72322 0.39887 0.74603 0.0
O822 O 0.78742 0.3093 0.74719 0.0
O823 O 0.81419 0.30843 0.76766 0.0
O824 O 0.79668 0.40655 0.75547 0.0
O825 O 0.79595 0.40556 0.75555 0.0
O826 O 0.74951 0.37386 0.79289 0.0
O827 O 0.7886 0.32974 0.78501 0.0
O828 O 0.70748 0.44863 0.76681 0.0
O829 O 0.74914 0.44072 0.78352 0.0
O830 O 0.67226 0.38513 0.76586 0.0
O831 O 0.70446 0.33595 0.77142 0.0
H832 H 0.75481 0.25639 0.77193 0.0
H833 H 0.72351 0.19432 0.76673 0.0
H834 H 0.81251 0.17085 0.73572 0.0
H835 H 0.84385 0.23209 0.74129 0.0
H836 H 0.71041 0.4432 0.8059 0.0
H837 H 0.66288 0.47071 0.82186 0.0
H838 H 0.61523 0.54145 0.78854 0.0
H839 H 0.66442 0.51483 0.77263 0.0
Ho840 Ho 1.00547 0.52117 1.01335 0.0
Ho841 Ho 0.96108 0.49502 1.02059 0.0
C842 C 0.97246 0.47264 0.99024 0.0
C843 C 0.06795 0.55454 1.00439 0.0
C844 C 0.10726 0.53856 1.00593 0.0
C845 C 0.1124 0.50592 1.01462 0.0
C846 C 0.14354 0.48045 1.01239 0.0
C847 C 0.16997 0.48781 1.00158 0.0
C848 C 0.16785 0.52338 0.99428 0.0
C849 C 0.13626 0.54853 0.99635 0.0
C850 C 0.94325 0.55922 0.99317 0.0
C851 C 1.01298 0.53092 1.04671 0.0
C852 C 0.8969 0.47985 1.03352 0.0
C853 C 0.88975 0.45069 1.04454 0.0
C854 C 0.89596 0.46018 1.0586 0.0
C855 C 0.89164 0.43198 1.06892 0.0
C856 C 0.88089 0.39361 1.06545 0.0
C857 C 0.8751 0.38394 1.05138 0.0
C858 C 0.87939 0.41222 1.04102 0.0
C859 C 1.00588 0.42454 1.01947 0.0
O860 O 1.0073 0.48065 0.99484 0.0
O861 O 0.944 0.48036 0.99878 0.0
O862 O 1.04557 0.53327 0.9965 0.0
O863 O 0.05076 0.56454 1.01597 0.0
O864 O 0.94943 0.55425 1.00677 0.0
O865 O 0.95046 0.55337 1.00689 0.0
O866 O 0.9837 0.50692 1.04398 0.0
O867 O 1.02729 0.54426 1.03496 0.0
O868 O 0.90552 0.46566 1.02133 0.0
O869 O 0.91911 0.50936 1.03678 0.0
O870 O 0.96915 0.42896 1.01683 0.0
O871 O 1.01854 0.45948 1.02243 0.0
H872 H 0.09007 0.49777 1.02207 0.0
H873 H 0.14469 0.4532 1.01809 0.0
H874 H 0.1878 0.52946 0.98579 0.0
H875 H 0.13248 0.5734 0.98951 0.0
H876 H 0.90401 0.48947 1.06166 0.0
H877 H 0.89513 0.44079 1.0797 0.0
H878 H 0.86649 0.35474 1.04841 0.0
H879 H 0.87459 0.40389 1.03026 0.0
Ho880 Ho 0.83255 0.75994 0.26131 0.0
Ho881 Ho 0.85674 0.71357 0.26861 0.0
C882 C 0.88204 0.72421 0.23852 0.0
C883 C 0.80302 0.82488 0.25263 0.0
C884 C 0.82081 0.86307 0.25491 0.0
C885 C 0.85146 0.86585 0.26463 0.0
C886 C 0.87942 0.89503 0.26331 0.0
C887 C 0.87659 0.92186 0.25238 0.0
C888 C 0.84287 0.92249 0.24399 0.0
C889 C 0.8152 0.89286 0.24515 0.0
C890 C 0.79505 0.70052 0.24044 0.0
C891 C 0.82094 0.76507 0.29486 0.0
C892 C 0.86838 0.6459 0.27993 0.0
C893 C 0.89989 0.63121 0.28877 0.0
C894 C 0.90275 0.59131 0.29148 0.0
C895 C 0.93299 0.57706 0.29981 0.0
C896 C 0.96092 0.6026 0.3055 0.0
C897 C 0.95892 0.64244 0.30215 0.0
C898 C 0.92853 0.65666 0.29386 0.0
C899 C 0.92886 0.75624 0.26781 0.0
O900 O 0.87359 0.75936 0.24279 0.0
O901 O 0.87386 0.69637 0.24718 0.0
O902 O 0.82406 0.80203 0.24478 0.0
O903 O 0.79074 0.80715 0.26379 0.0
O904 O 0.79758 0.70583 0.25415 0.0
O905 O 0.79865 0.70696 0.25428 0.0
O906 O 0.84327 0.73432 0.29209 0.0
O907 O 0.80962 0.78128 0.28311 0.0
O908 O 0.87933 0.6549 0.26741 0.0
O909 O 0.8456 0.67242 0.28534 0.0
O910 O 0.92357 0.71966 0.2653 0.0
O911 O 0.89414 0.76972 0.27075 0.0
H912 H 0.85641 0.84294 0.27221 0.0
H913 H 0.90535 0.89398 0.26978 0.0
H914 H 0.84054 0.94275 0.23535 0.0
H915 H 0.79199 0.89094 0.2375 0.0
H916 H 0.88116 0.57129 0.2874 0.0
H917 H 0.93313 0.54634 0.30241 0.0
H918 H 0.97998 0.66276 0.30637 0.0
H919 H 0.927 0.68758 0.29163 0.0
Ho920 Ho 0.59093 0.59026 0.51362 0.0
Ho921 Ho 0.63943 0.61402 0.52161 0.0
C922 C 0.62789 0.64037 0.49129 0.0
C923 C 0.52743 0.55882 0.50468 0.0
C924 C 0.48825 0.57469 0.50677 0.0
C925 C 0.48395 0.60733 0.51553 0.0
C926 C 0.45256 0.63274 0.5137 0.0
C927 C 0.42514 0.6254 0.5032 0.0
C928 C 0.42635 0.58966 0.49597 0.0
C929 C 0.45817 0.56454 0.49764 0.0
C930 C 0.65447 0.55216 0.494 0.0
C931 C 0.58629 0.5773 0.54719 0.0
C932 C 0.70813 0.61714 0.53288 0.0
C933 C 0.72805 0.58664 0.54083 0.0
C934 C 0.70936 0.55074 0.54295 0.0
C935 C 0.72466 0.52382 0.5524 0.0
C936 C 0.75921 0.53225 0.55961 0.0
C937 C 0.77957 0.5668 0.55654 0.0
C938 C 0.76389 0.59401 0.54725 0.0
C939 C 0.59629 0.68596 0.51984 0.0
O940 O 0.59272 0.63019 0.495 0.0
O941 O 0.65553 0.63466 0.50039 0.0
O942 O 0.54944 0.58105 0.49699 0.0
O943 O 0.54527 0.54716 0.51595 0.0
O944 O 0.64587 0.55499 0.5075 0.0
O945 O 0.64482 0.55598 0.50759 0.0
O946 O 0.62104 0.59217 0.54441 0.0
O947 O 0.56606 0.57347 0.53562 0.0
O948 O 0.67683 0.63108 0.53876 0.0
O949 O 0.70237 0.60907 0.51982 0.0
O950 O 0.63326 0.68054 0.51757 0.0
O951 O 0.58277 0.65164 0.52301 0.0
H952 H 0.50712 0.61569 0.5226 0.0
H953 H 0.45223 0.66021 0.51928 0.0
H954 H 0.40563 0.58365 0.48771 0.0
H955 H 0.46124 0.53962 0.49077 0.0
H956 H 0.68182 0.54445 0.53787 0.0
H957 H 0.70843 0.49753 0.55467 0.0
H958 H 0.80598 0.57422 0.56216 0.0
H959 H 0.77866 0.62152 0.54565 0.0
Ho960 Ho 0.3642 0.39691 0.26993 0.0
Ho961 Ho 0.33397 0.35131 0.26511 0.0
C962 C 0.33018 0.35155 0.29835 0.0
C963 C 0.38227 0.46585 0.27867 0.0
C964 C 0.41249 0.48009 0.28829 0.0
C965 C 0.41444 0.46671 0.30209 0.0
C966 C 0.44307 0.48075 0.31108 0.0
C967 C 0.47064 0.50825 0.30644 0.0
C968 C 0.46974 0.52016 0.29242 0.0
C969 C 0.44079 0.50631 0.28344 0.0
C970 C 0.43266 0.35027 0.26999 0.0
C971 C 0.38364 0.36756 0.24058 0.0
C972 C 0.295 0.29013 0.25831 0.0
C973 C 0.3101 0.25036 0.25923 0.0
C974 C 0.34495 0.24407 0.26668 0.0
C975 C 0.36914 0.21271 0.26332 0.0
C976 C 0.35844 0.18721 0.25257 0.0
C977 C 0.32105 0.19056 0.24654 0.0
C978 C 0.2971 0.22228 0.24977 0.0
C979 C 0.29821 0.41249 0.24357 0.0
O980 O 0.35417 0.37952 0.29398 0.0
O981 O 0.31398 0.33446 0.28764 0.0
O982 O 0.39551 0.45087 0.26717 0.0
O983 O 0.35377 0.44542 0.28396 0.0
O984 O 0.42962 0.38648 0.26649 0.0
O985 O 0.39735 0.3388 0.27328 0.0
O986 O 0.37371 0.33644 0.24734 0.0
O987 O 0.37719 0.40041 0.24698 0.0
O988 O 0.31387 0.3113 0.2493 0.0
O989 O 0.29008 0.30813 0.27017 0.0
O990 O 0.30422 0.40808 0.25723 0.0
O991 O 0.30496 0.40708 0.25729 0.0
H992 H 0.39338 0.44604 0.30608 0.0
H993 H 0.44211 0.47152 0.32187 0.0
H994 H 0.49062 0.54111 0.2885 0.0
H995 H 0.44018 0.51648 0.27274 0.0
H996 H 0.35561 0.26575 0.27396 0.0
H997 H 0.39773 0.2106 0.26811 0.0
H998 H 0.31224 0.17142 0.23812 0.0
H999 H 0.27057 0.227 0.24383 0.0
Ho1000 Ho 0.46257 0.61238 1.01895 0.0
Ho1001 Ho 0.50842 0.5868 1.01179 0.0
C1002 C 0.51332 0.57696 1.0454 0.0
C1003 C 0.39755 0.6263 1.0316 0.0
C1004 C 0.38957 0.65382 1.04311 0.0
C1005 C 0.39662 0.64281 1.05697 0.0
C1006 C 0.39219 0.66974 1.06773 0.0
C1007 C 0.38052 0.70832 1.0649 0.0
C1008 C 0.37346 0.71941 1.05103 0.0
C1009 C 0.37786 0.69239 1.04024 0.0
C1010 C 0.50685 0.68311 1.01808 0.0
C1011 C 0.47337 0.63511 0.98871 0.0
C1012 C 0.57263 0.5559 1.00292 0.0
C1013 C 0.61114 0.57364 1.00464 0.0
C1014 C 0.61503 0.60421 1.01434 0.0
C1015 C 0.64378 0.63239 1.0125 0.0
C1016 C 0.66906 0.62987 1.00108 0.0
C1017 C 0.66875 0.59635 0.99263 0.0
C1018 C 0.63958 0.56842 0.99433 0.0
C1019 C 0.44656 0.54822 0.99151 0.0
O1020 O 0.48355 0.60036 1.04247 0.0
O1021 O 0.52909 0.56427 1.03374 0.0
O1022 O 0.40701 0.64224 1.01978 0.0
O1023 O 0.41961 0.59621 1.0345 0.0
O1024 O 0.47024 0.67859 1.01528 0.0
O1025 O 0.5197 0.64822 1.0211 0.0
O1026 O 0.50844 0.62771 0.99332 0.0
O1027 O 0.44507 0.62673 0.99719 0.0
O1028 O 0.54938 0.57628 0.99502 0.0
O1029 O 0.55551 0.54485 1.01438 0.0
O1030 O 0.45333 0.55266 1.00511 0.0
O1031 O 0.45441 0.55363 1.0052 0.0
H1032 H 0.40563 0.61337 1.05956 0.0
H1033 H 0.39662 0.65981 1.07834 0.0
H1034 H 0.36411 0.74881 1.04855 0.0
H1035 H 0.37232 0.70182 1.02963 0.0
H1036 H 0.59315 0.60891 1.02233 0.0
H1037 H 0.64357 0.65813 1.01904 0.0
H1038 H 0.68782 0.59429 0.98363 0.0
H1039 H 0.63674 0.54532 0.98668 0.0
Ho1040 Ho 0.23686 0.71061 0.76967 0.0
Ho1041 Ho 0.26263 0.75689 0.7643 0.0
C1042 C 0.26818 0.75845 0.79772 0.0
C1043 C 0.22168 0.64297 0.78009 0.0
C1044 C 0.19075 0.63172 0.78999 0.0
C1045 C 0.19177 0.6445 0.80388 0.0
C1046 C 0.16134 0.63561 0.81295 0.0
C1047 C 0.12903 0.6138 0.80836 0.0
C1048 C 0.12752 0.60189 0.79434 0.0
C1049 C 0.15817 0.61066 0.78526 0.0
C1050 C 0.16462 0.75218 0.76869 0.0
C1051 C 0.21604 0.7309 0.73968 0.0
C1052 C 0.29597 0.82115 0.75718 0.0
C1053 C 0.27827 0.85973 0.75868 0.0
C1054 C 0.244 0.86306 0.76669 0.0
C1055 C 0.21758 0.89316 0.7641 0.0
C1056 C 0.22555 0.92042 0.75363 0.0
C1057 C 0.26236 0.92019 0.74709 0.0
C1058 C 0.28853 0.88961 0.7495 0.0
C1059 C 0.30332 0.6973 0.74325 0.0
O1060 O 0.24563 0.72921 0.79357 0.0
O1061 O 0.28274 0.776 0.78677 0.0
O1062 O 0.20915 0.65437 0.76798 0.0
O1063 O 0.24961 0.66523 0.78478 0.0
O1064 O 0.1717 0.71651 0.7652 0.0
O1065 O 0.19857 0.76622 0.77248 0.0
O1066 O 0.22314 0.76416 0.74565 0.0
O1067 O 0.22438 0.70022 0.74706 0.0
O1068 O 0.2774 0.79897 0.74839 0.0
O1069 O 0.30383 0.80309 0.7688 0.0
O1070 O 0.29736 0.70236 0.75689 0.0
O1071 O 0.29652 0.7033 0.75694 0.0
H1072 H 0.21622 0.66107 0.80786 0.0
H1073 H 0.1642 0.64435 0.82376 0.0
H1074 H 0.10314 0.58497 0.7905 0.0
H1075 H 0.15644 0.60092 0.77452 0.0
H1076 H 0.23551 0.84001 0.77378 0.0
H1077 H 0.18928 0.89271 0.76917 0.0
H1078 H 0.26888 0.94079 0.73885 0.0
H1079 H 0.31463 0.88722 0.74316 0.0
Ho1080 Ho 0.1312 0.48507 0.51798 0.0
Ho1081 Ho 0.08496 0.51499 0.513 0.0
C1082 C 0.08619 0.52004 0.54642 0.0
C1083 C 0.20085 0.46601 0.52599 0.0
C1084 C 0.21633 0.43355 0.53435 0.0
C1085 C 0.20229 0.42616 0.54782 0.0
C1086 C 0.21884 0.39655 0.55583 0.0
C1087 C 0.2496 0.37351 0.55051 0.0
C1088 C 0.2613 0.37896 0.53659 0.0
C1089 C 0.24499 0.40895 0.52862 0.0
C1090 C 0.08444 0.41656 0.51842 0.0
C1091 C 0.10155 0.46413 0.48876 0.0
C1092 C 1.02284 0.55319 0.50637 0.0
C1093 C 0.98353 0.53728 0.5081 0.0
C1094 C 0.97904 0.50511 0.51706 0.0
C1095 C 0.95 0.47771 0.51452 0.0
C1096 C 0.92484 0.48268 0.50316 0.0
C1097 C 0.92553 0.51777 0.49559 0.0
C1098 C 0.95509 0.54491 0.49797 0.0
C1099 C 0.14929 0.5482 0.49153 0.0
O1100 O 0.11579 0.49775 0.54206 0.0
O1101 O 0.06717 0.53396 0.53566 0.0
O1102 O 0.18617 0.45598 0.51406 0.0
O1103 O 0.17953 0.49215 0.53237 0.0
O1104 O 0.12077 0.41945 0.51502 0.0
O1105 O 0.07299 0.45207 0.52151 0.0
O1106 O 0.07035 0.47504 0.49533 0.0
O1107 O 0.13443 0.47029 0.49516 0.0
O1108 O 1.04364 0.53382 0.49731 0.0
O1109 O 1.0421 0.55978 0.51787 0.0
O1110 O 0.14183 0.54496 0.50518 0.0
O1111 O 0.14069 0.54404 0.50518 0.0
H1112 H 0.17952 0.4441 0.55238 0.0
H1113 H 0.20931 0.39377 0.56656 0.0
H1114 H 0.28453 0.36146 0.53212 0.0
H1115 H 0.25553 0.41362 0.51809 0.0
H1116 H 1.00092 0.49839 0.52487 0.0
H1117 H 0.95 0.45071 0.52038 0.0
H1118 H 0.9065 0.5218 0.48666 0.0
H1119 H 0.95838 0.56921 0.49085 0.0
Ho1120 Ho 0.35792 0.70776 0.40769 0.0
Ho1121 Ho 0.32902 0.75339 0.41341 0.0
C1122 C 0.3223 0.75632 0.38008 0.0
C1123 C 0.37501 0.63783 0.39918 0.0
C1124 C 0.40831 0.62025 0.39197 0.0
C1125 C 0.40886 0.58006 0.38964 0.0
C1126 C 0.43976 0.56304 0.38235 0.0
C1127 C 0.47077 0.58602 0.37733 0.0
C1128 C 0.47123 0.62603 0.38054 0.0
C1129 C 0.44004 0.64308 0.3877 0.0
C1130 C 0.4275 0.75335 0.40805 0.0
C1131 C 0.37909 0.73427 0.43739 0.0
C1132 C 0.29058 0.81469 0.42075 0.0
C1133 C 0.30521 0.85445 0.41962 0.0
C1134 C 0.33917 0.86084 0.4117 0.0
C1135 C 0.36289 0.89275 0.41454 0.0
C1136 C 0.35269 0.9186 0.42527 0.0
C1137 C 0.31598 0.91496 0.4318 0.0
C1138 C 0.29248 0.88276 0.42906 0.0
C1139 C 0.29232 0.69115 0.43429 0.0
O1140 O 0.34474 0.72598 0.38363 0.0
O1141 O 0.30932 0.77344 0.39136 0.0
O1142 O 0.38273 0.65089 0.41156 0.0
O1143 O 0.35358 0.66214 0.39204 0.0
O1144 O 0.42388 0.71692 0.41111 0.0
O1145 O 0.39217 0.76546 0.40498 0.0
O1146 O 0.36928 0.76623 0.43113 0.0
O1147 O 0.37197 0.70229 0.43057 0.0
O1148 O 0.31047 0.79342 0.42952 0.0
O1149 O 0.28458 0.79679 0.40895 0.0
O1150 O 0.298 0.69685 0.42068 0.0
O1151 O 0.29878 0.69784 0.42059 0.0
H1152 H 0.38477 0.56203 0.39306 0.0
H1153 H 0.43789 0.5323 0.37987 0.0
H1154 H 0.49473 0.64447 0.3769 0.0
H1155 H 0.4402 0.67419 0.38954 0.0
H1156 H 0.34958 0.839 0.40441 0.0
H1157 H 0.39092 0.89504 0.40936 0.0
H1158 H 0.30751 0.93434 0.44021 0.0
H1159 H 0.2666 0.878 0.43533 0.0
Ho1160 Ho 0.13917 0.61719 0.15852 0.0
Ho1161 Ho 0.09498 0.58746 0.16436 0.0
C1162 C 0.09111 0.58132 0.13106 0.0
C1163 C 0.20769 0.63526 0.1493 0.0
C1164 C 0.22159 0.66771 0.14063 0.0
C1165 C 0.20727 0.67343 0.12708 0.0
C1166 C 0.22159 0.70369 0.11889 0.0
C1167 C 0.25038 0.7291 0.1241 0.0
C1168 C 0.26262 0.7249 0.13802 0.0
C1169 C 0.24855 0.69428 0.14617 0.0
C1170 C 0.093 0.68586 0.1587 0.0
C1171 C 0.1106 0.63956 0.18803 0.0
C1172 C 1.03574 0.54548 0.17102 0.0
C1173 C 0.99492 0.55659 0.16927 0.0
C1174 C 0.98606 0.58938 0.16104 0.0
C1175 C 0.95203 0.61067 0.16353 0.0
C1176 C 0.92686 0.59938 0.17432 0.0
C1177 C 0.933 0.5631 0.18094 0.0
C1178 C 0.96711 0.54196 0.17849 0.0
C1179 C 0.16045 0.55681 0.18559 0.0
O1180 O 0.11977 0.60566 0.13452 0.0
O1181 O 0.07588 0.56663 0.14237 0.0
O1182 O 0.19477 0.64542 0.16149 0.0
O1183 O 0.1856 0.60907 0.14338 0.0
O1184 O 0.12991 0.68287 0.1612 0.0
O1185 O 0.08064 0.65042 0.15614 0.0
O1186 O 0.07943 0.62623 0.18214 0.0
O1187 O 0.14311 0.6348 0.18115 0.0
O1188 O 0.05431 0.56732 0.17995 0.0
O1189 O 0.05528 0.54043 0.15949 0.0
O1190 O 0.15253 0.55875 0.17198 0.0
O1191 O 0.15136 0.55967 0.17196 0.0
H1192 H 0.18585 0.6539 0.12261 0.0
H1193 H 0.21186 0.70538 0.10816 0.0
H1194 H 0.28442 0.74414 0.1424 0.0
H1195 H 0.25934 0.69087 0.15673 0.0
H1196 H 1.00742 0.60111 0.15385 0.0
H1197 H 0.94774 0.63814 0.15816 0.0
H1198 H 0.91426 0.55344 0.18934 0.0
H1199 H 0.97368 0.51681 0.18493 0.0
Ho1200 Ho 0.23842 0.39294 0.90742 0.0
Ho1201 Ho 0.2643 0.34699 0.91249 0.0
C1202 C 0.27045 0.34559 0.87925 0.0
C1203 C 0.22314 0.46064 0.89698 0.0
C1204 C 0.19294 0.47144 0.88669 0.0
C1205 C 0.19653 0.45996 0.8727 0.0
C1206 C 0.1666 0.46761 0.86326 0.0
C1207 C 0.13227 0.48693 0.86754 0.0
C1208 C 0.12841 0.49796 0.88159 0.0
C1209 C 0.15852 0.49036 0.89107 0.0
C1210 C 0.166 0.35212 0.90833 0.0
C1211 C 0.21812 0.3709 0.93734 0.0
C1212 C 0.29833 0.28211 0.9186 0.0
C1213 C 0.28055 0.24374 0.91699 0.0
C1214 C 0.24027 0.24176 0.9146 0.0
C1215 C 0.22022 0.20743 0.91724 0.0
C1216 C 0.24031 0.17456 0.92248 0.0
C1217 C 0.28163 0.17455 0.92138 0.0
C1218 C 0.30168 0.20948 0.91923 0.0
C1219 C 0.30508 0.40612 0.93377 0.0
O1220 O 0.24703 0.3743 0.88345 0.0
O1221 O 0.28559 0.32845 0.89016 0.0
O1222 O 0.20977 0.44902 0.90894 0.0
O1223 O 0.25194 0.43875 0.89261 0.0
O1224 O 0.17327 0.38754 0.91204 0.0
O1225 O 0.19995 0.33801 0.90439 0.0
O1226 O 0.22552 0.33801 0.93115 0.0
O1227 O 0.22614 0.402 0.93016 0.0
O1228 O 0.28112 0.30409 0.92787 0.0
O1229 O 0.30468 0.30062 0.90698 0.0
O1230 O 0.29904 0.40112 0.92013 0.0
O1231 O 0.29819 0.40016 0.92008 0.0
H1232 H 0.22251 0.44517 0.86896 0.0
H1233 H 0.17125 0.45977 0.85244 0.0
H1234 H 0.10247 0.5131 0.88518 0.0
H1235 H 0.15483 0.49916 0.90184 0.0
H1236 H 0.22369 0.26779 0.91212 0.0
H1237 H 0.18877 0.20907 0.91679 0.0
H1238 H 0.29886 0.1489 0.92367 0.0
H1239 H 0.33317 0.21015 0.92029 0.0
Ho1240 Ho 0.45892 0.49141 0.65761 0.0
Ho1241 Ho 0.5046 0.51387 0.66512 0.0
C1242 C 0.51186 0.5241 0.63155 0.0
C1243 C 0.39464 0.48127 0.64413 0.0
C1244 C 0.38698 0.45468 0.63234 0.0
C1245 C 0.39036 0.46823 0.6186 0.0
C1246 C 0.38682 0.44252 0.60743 0.0
C1247 C 0.3796 0.40269 0.60974 0.0
C1248 C 0.37589 0.3891 0.62347 0.0
C1249 C 0.37956 0.41483 0.63467 0.0
C1250 C 0.49949 0.41807 0.65894 0.0
C1251 C 0.46544 0.46771 0.68793 0.0
C1252 C 0.56922 0.54338 0.67397 0.0
C1253 C 0.60796 0.52689 0.67144 0.0
C1254 C 0.61119 0.49508 0.66224 0.0
C1255 C 0.64234 0.4691 0.66347 0.0
C1256 C 0.67064 0.47511 0.67378 0.0
C1257 C 0.6705 0.51021 0.6814 0.0
C1258 C 0.63887 0.53583 0.68037 0.0
C1259 C 0.44342 0.55427 0.68534 0.0
O1260 O 0.48068 0.50278 0.63423 0.0
O1261 O 0.52797 0.53506 0.64335 0.0
O1262 O 0.4022 0.46457 0.65599 0.0
O1263 O 0.41815 0.51035 0.64166 0.0
O1264 O 0.46326 0.42561 0.66163 0.0
O1265 O 0.51434 0.45193 0.65572 0.0
O1266 O 0.50127 0.47406 0.68389 0.0
O1267 O 0.43844 0.47663 0.67895 0.0
O1268 O 0.54706 0.52116 0.6816 0.0
O1269 O 0.55109 0.55611 0.66293 0.0
O1270 O 0.4507 0.55042 0.67174 0.0
O1271 O 0.45171 0.54943 0.67166 0.0
H1272 H 0.39601 0.4987 0.61645 0.0
H1273 H 0.38857 0.45416 0.59694 0.0
H1274 H 0.36991 0.35865 0.62553 0.0
H1275 H 0.37691 0.40337 0.64516 0.0
H1276 H 0.58743 0.48779 0.65526 0.0
H1277 H 0.64178 0.44211 0.65759 0.0
H1278 H 0.69193 0.51518 0.68953 0.0
H1279 H 0.63668 0.56016 0.68755 0.0
H1280 H 0.15901 0.37884 0.43676 0.0
H1281 H 0.19193 0.49633 0.42633 0.0
H1282 H 0.14616 0.52169 0.44379 0.0
H1283 H 0.11473 0.50892 0.46655 0.0
H1284 H 0.09099 0.39085 0.47901 0.0
H1285 H 0.11555 0.36678 0.45657 0.0
C1286 C 0.15508 0.41005 0.43807 0.0
C1287 C 0.17868 0.43589 0.43047 0.0
C1288 C 0.13176 0.42403 0.44897 0.0
C1289 C 0.17401 0.47616 0.43219 0.0
C1290 C 0.1485 0.4905 0.44235 0.0
C1291 C 0.11358 0.47811 0.46403 0.0
C1292 C 0.10146 0.45147 0.47423 0.0
C1293 C 0.1298 0.4646 0.45151 0.0
C1294 C 0.10008 0.41162 0.47115 0.0
C1295 C 0.1145 0.39795 0.45842 0.0
H1296 H 0.95512 0.92614 0.68314 0.0
H1297 H 0.85214 0.99921 0.68295 0.0
H1298 H 0.82505 0.96189 0.70227 0.0
H1299 H 0.83896 0.92093 0.72221 0.0
H1300 H 0.94069 0.84722 0.72337 0.0
H1301 H 0.96102 0.87291 0.70048 0.0
C1302 C 0.92591 0.93265 0.68689 0.0
C1303 C 0.90576 0.96577 0.68185 0.0
C1304 C 0.91121 0.91185 0.69833 0.0
C1305 C 0.86813 0.97409 0.6868 0.0
C1306 C 0.85289 0.95298 0.69791 0.0
C1307 C 0.86438 0.90887 0.71719 0.0
C1308 C 0.88813 0.88224 0.72436 0.0
C1309 C 0.87535 0.92363 0.70425 0.0
C1310 C 0.92193 0.86768 0.71793 0.0
C1311 C 0.93351 0.88252 0.70493 0.0
H1312 H 0.4276 0.70066 0.93026 0.0
H1313 H 0.34483 0.60632 0.93349 0.0
H1314 H 0.37755 0.58303 0.95436 0.0
H1315 H 0.41854 0.59955 0.97406 0.0
H1316 H 0.50706 0.68776 0.97055 0.0
H1317 H 0.48232 0.70464 0.94713 0.0
C1318 C 0.41799 0.67371 0.93504 0.0
C1319 C 0.38275 0.65608 0.93072 0.0
C1320 C 0.43707 0.66046 0.9471 0.0
C1321 C 0.37117 0.62093 0.9369 0.0
C1322 C 0.38972 0.60778 0.94889 0.0
C1323 C 0.43395 0.62101 0.96796 0.0
C1324 C 0.46449 0.64235 0.97395 0.0
C1325 C 0.42094 0.62891 0.95452 0.0
C1326 C 0.48331 0.67112 0.96609 0.0
C1327 C 0.46924 0.68058 0.95274 0.0
H1328 H 0.76244 0.21834 0.22037 0.0
H1329 H 0.64603 0.25812 0.22956 0.0
H1330 H 0.62309 0.23272 0.20707 0.0
H1331 H 0.63356 0.18507 0.1883 0.0
H1332 H 0.74804 0.13572 0.18175 0.0
H1333 H 0.77511 0.17947 0.19934 0.0
C1334 C 0.73243 0.22246 0.21716 0.0
C1335 C 0.70581 0.23962 0.22644 0.0
C1336 C 0.71929 0.20547 0.20478 0.0
C1337 C 0.6669 0.24519 0.2224 0.0
C1338 C 0.65382 0.23024 0.20966 0.0
C1339 C 0.66473 0.18518 0.19038 0.0
C1340 C 0.68902 0.15749 0.18385 0.0
C1341 C 0.67931 0.20825 0.20123 0.0
C1342 C 0.72912 0.15703 0.18668 0.0
C1343 C 0.74438 0.18172 0.19685 0.0
H1344 H 0.17004 0.72055 0.24055 0.0
H1345 H 0.19873 0.60138 0.25045 0.0
H1346 H 0.15171 0.57864 0.23295 0.0
H1347 H 0.12142 0.59361 0.21014 0.0
H1348 H 0.10403 0.71315 0.1979 0.0
H1349 H 0.12826 0.73532 0.22059 0.0
C1350 C 0.16491 0.68957 0.23913 0.0
C1351 C 0.18764 0.66247 0.24656 0.0
C1352 C 0.14143 0.67708 0.22809 0.0
C1353 C 0.18145 0.6225 0.24472 0.0
C1354 C 0.1553 0.60967 0.23453 0.0
C1355 C 0.12161 0.62439 0.21275 0.0
C1356 C 0.11136 0.65195 0.20257 0.0
C1357 C 0.13788 0.6367 0.2254 0.0
C1358 C 0.11176 0.69174 0.20575 0.0
C1359 C 0.12591 0.70429 0.21863 0.0
H1360 H 0.75867 0.88729 0.45747 0.0
H1361 H 0.64136 0.85037 0.44873 0.0
H1362 H 0.61962 0.87589 0.47138 0.0
H1363 H 0.63155 0.92259 0.4903 0.0
H1364 H 0.74687 0.96945 0.49639 0.0
H1365 H 0.77263 0.92559 0.47854 0.0
C1366 C 0.72868 0.884 0.46076 0.0
C1367 C 0.70148 0.86756 0.45159 0.0
C1368 C 0.71627 0.90096 0.47327 0.0
C1369 C 0.66264 0.86286 0.45579 0.0
C1370 C 0.65027 0.8778 0.46863 0.0
C1371 C 0.66263 0.92187 0.48805 0.0
C1372 C 0.68753 0.94888 0.49454 0.0
C1373 C 0.67642 0.89892 0.47702 0.0
C1374 C 0.7275 0.94861 0.4915 0.0
C1375 C 0.74201 0.9239 0.48116 0.0
H1376 H 0.40668 0.50235 0.70106 0.0
H1377 H 0.49824 0.41758 0.70727 0.0
H1378 H 0.47116 0.40237 0.73049 0.0
H1379 H 0.41502 0.40711 0.74668 0.0
H1380 H 0.3286 0.49782 0.74074 0.0
H1381 H 0.3624 0.51929 0.7198 0.0
C1382 C 0.42194 0.48175 0.70766 0.0
C1383 C 0.45426 0.46099 0.70252 0.0
C1384 C 0.40749 0.47483 0.72099 0.0
C1385 C 0.47314 0.43371 0.71108 0.0
C1386 C 0.45773 0.42522 0.7243 0.0
C1387 C 0.40457 0.43282 0.74124 0.0
C1388 C 0.36848 0.45008 0.74496 0.0
C1389 C 0.42411 0.44487 0.72914 0.0
C1390 C 0.35569 0.4835 0.73785 0.0
C1391 C 0.37482 0.49555 0.72582 0.0
H1392 H 0.94419 0.1841 0.99681 0.0
H1393 H 0.85067 0.10039 0.99341 0.0
H1394 H 0.82886 0.13113 0.97197 0.0
H1395 H 0.84646 0.17093 0.95211 0.0
H1396 H 0.93325 0.26079 0.9558 0.0
H1397 H 0.94888 0.23761 0.97953 0.0
C1398 C 0.91767 0.17387 0.99185 0.0
C1399 C 0.9 0.13886 0.99632 0.0
C1400 C 0.90518 0.1919 0.97949 0.0
C1401 C 0.86536 0.12654 0.9899 0.0
C1402 C 0.85306 0.14397 0.97758 0.0
C1403 C 0.86734 0.18694 0.95828 0.0
C1404 C 0.88866 0.21744 0.95228 0.0
C1405 C 0.87437 0.17492 0.97189 0.0
C1406 C 0.91666 0.23704 0.96027 0.0
C1407 C 0.92538 0.22389 0.97379 0.0
H1408 H 0.93083 0.72695 0.7389 0.0
H1409 H 0.89982 0.60919 0.74968 0.0
H1410 H 0.94369 0.58421 0.73153 0.0
H1411 H 0.97391 0.59726 0.70862 0.0
H1412 H 0.99472 0.7156 0.69578 0.0
H1413 H 0.97156 0.73949 0.71844 0.0
C1414 C 0.93482 0.69577 0.73751 0.0
C1415 C 0.91241 0.66973 0.74546 0.0
C1416 C 0.95697 0.68204 0.72628 0.0
C1417 C 0.91697 0.62949 0.7436 0.0
C1418 C 0.94141 0.61538 0.73307 0.0
C1419 C 0.97464 0.62812 0.71108 0.0
C1420 C 0.98572 0.65487 0.70077 0.0
C1421 C 0.95911 0.64148 0.72373 0.0
C1422 C 0.98645 0.69479 0.70375 0.0
C1423 C 0.97288 0.70833 0.71661 0.0
H1424 H 0.18414 0.20514 0.50184 0.0
H1425 H 0.23557 0.09362 0.49115 0.0
H1426 H 0.25896 0.12012 0.46956 0.0
H1427 H 0.24535 0.16543 0.45094 0.0
H1428 H 0.19049 0.27635 0.45948 0.0
H1429 H 0.18369 0.25778 0.48422 0.0
C1430 C 0.20022 0.18637 0.49478 0.0
C1431 C 0.20332 0.14587 0.49745 0.0
C1432 C 0.21043 0.20075 0.48158 0.0
C1433 C 0.22944 0.12401 0.48915 0.0
C1434 C 0.24248 0.13894 0.47652 0.0
C1435 C 0.23238 0.18605 0.45818 0.0
C1436 C 0.21712 0.22163 0.45337 0.0
C1437 C 0.22948 0.17563 0.47213 0.0
C1438 C 0.20144 0.24832 0.46296 0.0
C1439 C 0.19799 0.23785 0.47706 0.0
H1440 H 0.68129 0.49854 0.20064 0.0
H1441 H 0.58947 0.41465 0.20636 0.0
H1442 H 0.61647 0.39846 0.22958 0.0
H1443 H 0.67303 0.40246 0.24586 0.0
H1444 H 0.75753 0.49461 0.24055 0.0
H1445 H 0.72399 0.51607 0.21957 0.0
C1446 C 0.66556 0.4783 0.20718 0.0
C1447 C 0.63327 0.45811 0.20189 0.0
C1448 C 0.67961 0.47124 0.22052 0.0
C1449 C 0.61437 0.43062 0.2103 0.0
C1450 C 0.62976 0.42155 0.22352 0.0
C1451 C 0.68298 0.42852 0.24056 0.0
C1452 C 0.71877 0.44603 0.24439 0.0
C1453 C 0.66322 0.44099 0.22851 0.0
C1454 C 0.73083 0.48 0.23752 0.0
C1455 C 0.7118 0.49211 0.22549 0.0
H1456 H 0.34739 0.93471 0.95219 0.0
H1457 H 0.43136 0.84169 0.95617 0.0
H1458 H 0.44741 0.86502 0.97988 0.0
H1459 H 0.44406 0.91996 0.99684 0.0
H1460 H 0.35075 1.00465 0.99334 0.0
H1461 H 0.32855 0.97358 0.97206 0.0
C1462 C 0.36713 0.91751 0.95847 0.0
C1463 C 0.38763 0.88621 0.95254 0.0
C1464 C 0.37382 0.92919 0.97211 0.0
C1465 C 0.41513 0.86587 0.9606 0.0
C1466 C 0.42408 0.87912 0.97411 0.0
C1467 C 0.41739 0.93025 0.99194 0.0
C1468 C 0.40019 0.96592 0.99617 0.0
C1469 C 0.4044 0.91176 0.97974 0.0
C1470 C 0.36519 0.97813 0.98994 0.0
C1471 C 0.35267 0.96053 0.97771 0.0
H1472 H 0.92986 0.41052 0.93112 0.0
H1473 H 0.84434 0.5029 0.93494 0.0
H1474 H 0.87612 0.52558 0.95606 0.0
H1475 H 0.91667 0.50802 0.97579 0.0
H1476 H 1.00786 0.42195 0.97173 0.0
H1477 H 0.9843 0.40645 0.94805 0.0
C1478 C 0.91942 0.43699 0.93608 0.0
C1479 C 0.88365 0.45403 0.93188 0.0
C1480 C 0.93785 0.44975 0.9483 0.0
C1481 C 0.87109 0.48868 0.93826 0.0
C1482 C 0.88907 0.50142 0.95041 0.0
C1483 C 0.93291 0.48737 0.96955 0.0
C1484 C 0.96382 0.46611 0.97544 0.0
C1485 C 0.92063 0.48041 0.95596 0.0
C1486 C 0.98374 0.43842 0.96735 0.0
C1487 C 0.97038 0.42979 0.95386 0.0
H1488 H 0.37405 0.18481 0.68053 0.0
H1489 H 0.49841 0.20103 0.68374 0.0
H1490 H 0.48946 0.244 0.70374 0.0
H1491 H 0.44738 0.25897 0.72402 0.0
H1492 H 0.32286 0.24596 0.72019 0.0
H1493 H 0.33039 0.22077 0.6965 0.0
C1494 C 0.39885 0.19963 0.68514 0.0
C1495 C 0.43671 0.18934 0.68101 0.0
C1496 C 0.39352 0.22397 0.69673 0.0
C1497 C 0.46892 0.20859 0.6869 0.0
C1498 C 0.46389 0.23271 0.69846 0.0
C1499 C 0.42195 0.25239 0.7177 0.0
C1500 C 0.38484 0.25289 0.72377 0.0
C1501 C 0.42653 0.23799 0.7041 0.0
C1502 C 0.3518 0.24473 0.71565 0.0
C1503 C 0.35608 0.23022 0.70216 0.0
H1504 H 0.67658 0.6971 0.43187 0.0
H1505 H 0.76384 0.60754 0.43846 0.0
H1506 H 0.73102 0.58781 0.45977 0.0
H1507 H 0.68706 0.60596 0.47846 0.0
H1508 H 0.59418 0.68884 0.47158 0.0
H1509 H 0.6206 0.70246 0.44813 0.0
C1510 C 0.68734 0.67188 0.43752 0.0
C1511 C 0.72358 0.65473 0.43392 0.0
C1512 C 0.66818 0.66064 0.4498 0.0
C1513 C 0.73668 0.62184 0.44127 0.0
C1514 C 0.71807 0.61076 0.45351 0.0
C1515 C 0.67139 0.62576 0.47167 0.0
C1516 C 0.63893 0.64653 0.47668 0.0
C1517 C 0.68536 0.63161 0.45823 0.0
C1518 C 0.61947 0.6728 0.46789 0.0
C1519 C 0.63446 0.68034 0.45453 0.0
H1520 H 0.25547 0.91925 0.22218 0.0
H1521 H 0.15707 0.84183 0.22157 0.0
H1522 H 0.137 0.86909 0.19885 0.0
H1523 H 0.14198 0.92397 0.18213 0.0
H1524 H 0.24281 0.99914 0.18336 0.0
H1525 H 0.26951 0.96157 0.20269 0.0
C1526 C 0.23092 0.90673 0.21681 0.0
C1527 C 0.20793 0.87861 0.22344 0.0
C1528 C 0.22036 0.92202 0.20391 0.0
C1529 C 0.1752 0.86352 0.21656 0.0
C1530 C 0.1638 0.87919 0.20364 0.0
C1531 C 0.17072 0.93092 0.18618 0.0
C1532 C 0.19016 0.96481 0.18159 0.0
C1533 C 0.18537 0.90969 0.19755 0.0
C1534 C 0.22725 0.97354 0.1869 0.0
C1535 C 0.2423 0.95225 0.19801 0.0
H1536 H 0.67679 1.00631 0.97379 0.0
H1537 H 0.59261 0.9138 0.9716 0.0
H1538 H 0.61712 0.89645 0.94818 0.0
H1539 H 0.67091 0.90181 0.93093 0.0
H1540 H 0.74999 0.99946 0.93315 0.0
H1541 H 0.71669 1.02299 0.95388 0.0
C1542 C 0.66206 0.9839 0.96796 0.0
C1543 C 0.63285 0.96162 0.97431 0.0
C1544 C 0.67513 0.97548 0.95456 0.0
C1545 C 0.6152 0.93134 0.96682 0.0
C1546 C 0.6292 0.92156 0.95349 0.0
C1547 C 0.67954 0.9294 0.93549 0.0
C1548 C 0.71377 0.94829 0.93084 0.0
C1549 C 0.66025 0.94267 0.94752 0.0
C1550 C 0.72433 0.98408 0.93677 0.0
C1551 C 0.70543 0.99737 0.94868 0.0
H1552 H 0.33601 0.38792 0.21995 0.0
H1553 H 0.45308 0.34873 0.22844 0.0
H1554 H 0.4739 0.37045 0.2052 0.0
H1555 H 0.46187 0.41544 0.18578 0.0
H1556 H 0.34706 0.46454 0.17973 0.0
H1557 H 0.3214 0.42321 0.19829 0.0
C1558 C 0.36571 0.38318 0.21648 0.0
C1559 C 0.3932 0.36738 0.22574 0.0
C1560 C 0.37765 0.39792 0.20359 0.0
C1561 C 0.43162 0.36081 0.22132 0.0
C1562 C 0.44347 0.37358 0.20814 0.0
C1563 C 0.43087 0.41568 0.18817 0.0
C1564 C 0.40618 0.44281 0.18154 0.0
C1565 C 0.41724 0.39432 0.1996 0.0
C1566 C 0.3663 0.44367 0.18475 0.0
C1567 C 0.35187 0.42045 0.19549 0.0
H1568 H 0.89099 0.10716 0.48145 0.0
H1569 H 0.98853 0.18289 0.47327 0.0
H1570 H 0.96263 0.19617 0.44978 0.0
H1571 H 0.90779 0.19181 0.43334 0.0
H1572 H 0.81482 0.10958 0.4409 0.0
H1573 H 0.84548 0.09073 0.46285 0.0
C1574 C 0.90707 0.12604 0.47446 0.0
C1575 C 0.94105 0.1448 0.47906 0.0
C1576 C 0.89339 0.1315 0.46091 0.0
C1577 C 0.96187 0.16882 0.46992 0.0
C1578 C 0.94728 0.17602 0.45652 0.0
C1579 C 0.89499 0.16844 0.4394 0.0
C1580 C 0.85814 0.15315 0.43575 0.0
C1581 C 0.91257 0.15805 0.45205 0.0
C1582 C 0.84251 0.12258 0.44371 0.0
C1583 C 0.85977 0.11216 0.45632 0.0
H1584 H 0.13941 0.68441 0.68356 0.0
H1585 H 0.24492 0.61529 0.68165 0.0
H1586 H 0.27202 0.6519 0.70111 0.0
H1587 H 0.25837 0.69105 0.7216 0.0
H1588 H 0.15312 0.75899 0.72482 0.0
H1589 H 0.13247 0.73529 0.70171 0.0
C1590 C 0.16909 0.6787 0.68699 0.0
C1591 C 0.19013 0.64691 0.68138 0.0
C1592 C 0.18377 0.6989 0.69857 0.0
C1593 C 0.22832 0.63947 0.68592 0.0
C1594 C 0.2436 0.66019 0.69712 0.0
C1595 C 0.23192 0.70213 0.717 0.0
C1596 C 0.20739 0.72656 0.72478 0.0
C1597 C 0.22055 0.6881 0.704 0.0
C1598 C 0.17248 0.74021 0.71889 0.0
C1599 C 0.1607 0.72647 0.70576 0.0
H1600 H 0.69915 0.1034 0.6982 0.0
H1601 H 0.60136 0.17893 0.70725 0.0
H1602 H 0.62908 0.19238 0.73049 0.0
H1603 H 0.68692 0.19063 0.74577 0.0
H1604 H 0.78077 0.10948 0.73702 0.0
H1605 H 0.74668 0.08775 0.71612 0.0
C1606 C 0.68308 0.12195 0.70536 0.0
C1607 C 0.6487 0.14086 0.701 0.0
C1608 C 0.69816 0.12796 0.71866 0.0
C1609 C 0.62823 0.16465 0.71039 0.0
C1610 C 0.64398 0.17208 0.72363 0.0
C1611 C 0.69926 0.16687 0.73972 0.0
C1612 C 0.73732 0.15292 0.7426 0.0
C1613 C 0.67971 0.15489 0.72763 0.0
C1614 C 0.75222 0.12166 0.73473 0.0
C1615 C 0.73294 0.1095 0.72273 0.0
H1616 H 0.26191 0.40609 0.95607 0.0
H1617 H 0.15335 0.34531 0.95151 0.0
H1618 H 0.13225 0.36941 0.97452 0.0
H1619 H 0.13981 0.42008 0.99262 0.0
H1620 H 0.24733 0.48478 0.9953 0.0
H1621 H 0.27511 0.44561 0.97657 0.0
C1622 C 0.2345 0.3968 0.96037 0.0
C1623 C 0.20925 0.3743 0.95224 0.0
C1624 C 0.22263 0.41164 0.97322 0.0
C1625 C 0.17325 0.3626 0.95773 0.0
C1626 C 0.16121 0.37662 0.97079 0.0
C1627 C 0.17002 0.42416 0.98954 0.0
C1628 C 0.1916 0.45538 0.99514 0.0
C1629 C 0.18492 0.40288 0.97823 0.0
C1630 C 0.23043 0.4609 0.99106 0.0
C1631 C 0.24608 0.43875 0.98025 0.0
H1632 H 0.97484 1.01344 0.21085 0.0
H1633 H 1.00099 0.89597 0.198 0.0
H1634 H 0.97771 0.87115 0.22047 0.0
H1635 H 0.93381 0.88213 0.24023 0.0
H1636 H 0.89739 0.99879 0.25079 0.0
H1637 H 0.94337 1.0253 0.23369 0.0
C1638 C 0.97678 0.98262 0.21329 0.0
C1639 C 0.98912 0.95631 0.20297 0.0
C1640 C 0.96114 0.96864 0.22582 0.0
C1641 C 0.99164 0.91646 0.20596 0.0
C1642 C 0.97797 0.90236 0.21871 0.0
C1643 C 0.93707 0.91343 0.23905 0.0
C1644 C 0.91236 0.93868 0.24654 0.0
C1645 C 0.9602 0.92799 0.22824 0.0
C1646 C 0.91617 0.97906 0.24501 0.0
C1647 C 0.94174 0.99404 0.23503 0.0
H1648 H 0.45868 0.68893 0.49258 0.0
H1649 H 0.34715 0.63307 0.498 0.0
H1650 H 0.31981 0.67218 0.4791 0.0
H1651 H 0.33309 0.70822 0.45757 0.0
H1652 H 0.44705 0.75591 0.44999 0.0
H1653 H 0.46842 0.73479 0.47328 0.0
C1654 C 0.42788 0.68676 0.49001 0.0
C1655 C 0.40478 0.65821 0.49652 0.0
C1656 C 0.4134 0.70714 0.47847 0.0
C1657 C 0.36519 0.65501 0.49308 0.0
C1658 C 0.34982 0.67699 0.48215 0.0
C1659 C 0.36217 0.71481 0.46122 0.0
C1660 C 0.38875 0.73282 0.45221 0.0
C1661 C 0.37442 0.70094 0.4742 0.0
C1662 C 0.42633 0.74194 0.4569 0.0
C1663 C 0.43849 0.72963 0.47012 0.0
H1664 H 0.42846 0.21299 0.2435 0.0
H1665 H 0.35452 0.11139 0.24441 0.0
H1666 H 0.39109 0.08305 0.22508 0.0
H1667 H 0.43274 0.09479 0.20507 0.0
H1668 H 0.50675 0.19557 0.20319 0.0
H1669 H 0.48124 0.21745 0.22594 0.0
C1670 C 0.42158 0.18384 0.23988 0.0
C1671 C 0.38851 0.16436 0.24516 0.0
C1672 C 0.44197 0.1684 0.22844 0.0
C1673 C 0.37963 0.12684 0.24037 0.0
C1674 C 0.40035 0.11086 0.22926 0.0
C1675 C 0.44459 0.12055 0.2099 0.0
C1676 C 0.47135 0.14357 0.20259 0.0
C1677 C 0.42985 0.13248 0.22275 0.0
C1678 C 0.48609 0.17748 0.20875 0.0
C1679 C 0.47139 0.18993 0.22168 0.0
H1680 H 0.62846 0.68672 0.98905 0.0
H1681 H 0.74582 0.65111 0.99922 0.0
H1682 H 0.77169 0.69807 0.98242 0.0
H1683 H 0.75936 0.73136 0.95994 0.0
H1684 H 0.64137 0.75712 0.94744 0.0
H1685 H 0.61688 0.7319 0.96969 0.0
C1686 C 0.65978 0.69035 0.98784 0.0
C1687 C 0.68542 0.66566 0.99515 0.0
C1688 C 0.67404 0.71438 0.97723 0.0
C1689 C 0.7258 0.6699 0.99358 0.0
C1690 C 0.74044 0.69612 0.98377 0.0
C1691 C 0.7285 0.7328 0.96243 0.0
C1692 C 0.702 0.74565 0.95225 0.0
C1693 C 0.71474 0.71595 0.97478 0.0
C1694 C 0.66205 0.7475 0.95529 0.0
C1695 C 0.64814 0.73265 0.96791 0.0
H1696 H 0.16279 0.88667 0.74232 0.0
H1697 H 0.2179 0.99818 0.74836 0.0
H1698 H 0.17793 1.02617 0.7298 0.0
H1699 H 0.14023 1.01415 0.7085 0.0
H1700 H 0.09296 0.90056 0.7003 0.0
H1701 H 0.11599 0.87777 0.72318 0.0
C1702 C 0.1647 0.91753 0.73994 0.0
C1703 C 0.19313 0.94054 0.74658 0.0
C1704 C 0.14358 0.93255 0.72863 0.0
C1705 C 0.19606 0.98021 0.74334 0.0
C1706 C 0.17352 0.99599 0.73263 0.0
C1707 C 0.13412 0.98484 0.71195 0.0
C1708 C 0.11554 0.95886 0.70287 0.0
C1709 C 0.14918 0.97179 0.72466 0.0
C1710 C 0.10721 0.9209 0.70727 0.0
C1711 C 0.12067 0.90792 0.72025 0.0
H1712 H 0.96447 0.42471 0.49119 0.0
H1713 H 0.84769 0.46589 0.49945 0.0
H1714 H 0.82191 0.42084 0.48203 0.0
H1715 H 0.83512 0.3843 0.46037 0.0
H1716 H 0.95301 0.35268 0.44968 0.0
H1717 H 0.97628 0.37864 0.47203 0.0
C1718 C 0.9332 0.42262 0.48945 0.0
C1719 C 0.90777 0.44829 0.49645 0.0
C1720 C 0.91916 0.39906 0.47865 0.0
C1721 C 0.86751 0.44619 0.49412 0.0
C1722 C 0.85295 0.42084 0.48402 0.0
C1723 C 0.86561 0.38197 0.46324 0.0
C1724 C 0.89246 0.36697 0.45357 0.0
C1725 C 0.87876 0.39925 0.4756 0.0
C1726 C 0.93199 0.36385 0.45715 0.0
C1727 C 0.94523 0.37915 0.46981 0.0
H1728 H 0.42628 1.00878 0.47276 0.0
H1729 H 0.50562 0.91128 0.47271 0.0
H1730 H 0.47947 0.89058 0.44993 0.0
H1731 H 0.42492 0.89455 0.43301 0.0
H1732 H 0.34741 0.99417 0.43373 0.0
H1733 H 0.3842 1.02191 0.45305 0.0
C1734 C 0.4394 0.98426 0.4675 0.0
C1735 C 0.46774 0.96166 0.47431 0.0
C1736 C 0.42469 0.97329 0.45457 0.0
C1737 C 0.48372 0.92906 0.46757 0.0
C1738 C 0.4687 0.9173 0.45461 0.0
C1739 C 0.41726 0.92324 0.43696 0.0
C1740 C 0.38299 0.94205 0.43223 0.0
C1741 C 0.43792 0.93838 0.44835 0.0
C1742 C 0.37333 0.97909 0.43738 0.0
C1743 C 0.39415 0.99471 0.4485 0.0
H1744 H 0.84905 0.66574 0.22514 0.0
H1745 H 0.93204 0.75836 0.21934 0.0
H1746 H 0.94828 0.73173 0.19608 0.0
H1747 H 0.94512 0.67513 0.17993 0.0
H1748 H 0.85419 0.58937 0.18532 0.0
H1749 H 0.83178 0.62301 0.20616 0.0
C1750 C 0.86916 0.68164 0.21859 0.0
C1751 C 0.88918 0.71401 0.22387 0.0
C1752 C 0.87619 0.66782 0.20521 0.0
C1753 C 0.91633 0.7333 0.21542 0.0
C1754 C 0.92538 0.71816 0.20217 0.0
C1755 C 0.91904 0.66492 0.18519 0.0
C1756 C 0.9023 0.62873 0.18149 0.0
C1757 C 0.90623 0.68457 0.19719 0.0
C1758 C 0.8682 0.61642 0.18826 0.0
C1759 C 0.85563 0.63545 0.20023 0.0
H1760 H 0.16002 0.16233 0.9273 0.0
H1761 H 0.27393 0.12432 0.94198 0.0
H1762 H 0.24747 0.11285 0.9646 0.0
H1763 H 0.19772 0.12634 0.9814 0.0
H1764 H 0.08148 0.15917 0.96834 0.0
H1765 H 0.10476 0.16362 0.94399 0.0
C1766 C 0.17955 0.15209 0.93539 0.0
C1767 C 0.22036 0.14877 0.93295 0.0
C1768 C 0.1644 0.14668 0.94888 0.0
C1769 C 0.2432 0.13028 0.9433 0.0
C1770 C 0.22823 0.124 0.95653 0.0
C1771 C 0.17711 0.13483 0.97334 0.0
C1772 C 0.13817 0.14377 0.97671 0.0
C1773 C 0.18992 0.13502 0.9596 0.0
C1774 C 0.11182 0.153 0.96599 0.0
C1775 C 0.12505 0.15502 0.95212 0.0
H1776 H 0.63575 0.41268 0.68452 0.0
H1777 H 0.74884 0.4643 0.67799 0.0
H1778 H 0.77611 0.42419 0.69665 0.0
H1779 H 0.7629 0.38941 0.71852 0.0
H1780 H 0.64741 0.3472 0.72731 0.0
H1781 H 0.6255 0.36796 0.70407 0.0
C1782 C 0.66679 0.41369 0.68679 0.0
C1783 C 0.69043 0.44135 0.68005 0.0
C1784 C 0.68127 0.39308 0.69828 0.0
C1785 C 0.73037 0.44306 0.6831 0.0
C1786 C 0.74571 0.42058 0.69392 0.0
C1787 C 0.7333 0.38396 0.71514 0.0
C1788 C 0.7065 0.36761 0.72448 0.0
C1789 C 0.72076 0.39785 0.70219 0.0
C1790 C 0.66828 0.3599 0.72015 0.0
C1791 C 0.65583 0.372 0.70695 0.0
H1792 H 0.12575 0.33408 0.40833 0.0
H1793 H 0.09883 0.21153 0.40822 0.0
H1794 H 1.02924 0.2266 0.40789 0.0
H1795 H 0.97116 0.27454 0.40819 0.0
H1796 H 0.99843 0.39704 0.40895 0.0
H1797 H 0.06785 0.3819 0.40847 0.0
C1798 C 0.10519 0.31019 0.40805 0.0
C1799 C 0.12083 0.27066 0.40813 0.0
C1800 C 0.06271 0.31922 0.40803 0.0
C1801 C 0.0906 0.24204 0.40808 0.0
C1802 C 0.04947 0.25079 0.40791 0.0
C1803 C 0.99175 0.29841 0.40807 0.0
C1804 C 0.97615 0.33798 0.40845 0.0
C1805 C 1.03426 0.28933 0.40794 0.0
C1806 C 1.0065 0.36651 0.40857 0.0
C1807 C 1.04758 0.35774 0.40831 0.0
H1808 H 0.97288 0.76741 0.65746 0.0
H1809 H 0.08197 0.70448 0.65666 0.0
H1810 H 0.11734 0.76672 0.65708 0.0
H1811 H 0.1195 0.84153 0.65799 0.0
H1812 H 1.01055 0.90468 0.65737 0.0
H1813 H 0.97508 0.84243 0.65716 0.0
C1814 C 1.0045 0.76669 0.65726 0.0
C1815 C 1.02358 0.72853 0.65694 0.0
C1816 C 1.02562 0.80417 0.65726 0.0
C1817 C 0.06501 0.73119 0.65676 0.0
C1818 C 0.08572 0.76774 0.65706 0.0
C1819 C 0.08789 0.84231 0.65771 0.0
C1820 C 0.06888 0.8805 0.65766 0.0
C1821 C 0.06676 0.80489 0.65733 0.0
C1822 C 1.02746 0.87794 0.65731 0.0
C1823 C 1.00669 0.84138 0.65723 0.0
H1824 H 0.50921 0.87708 0.90767 0.0
H1825 H 0.44769 0.76782 0.90793 0.0
H1826 H 0.51058 0.73291 0.9081 0.0
H1827 H 0.58567 0.7312 0.90851 0.0
H1828 H 0.64729 0.84028 0.90681 0.0
H1829 H 0.5844 0.87528 0.90684 0.0
C1830 C 0.50892 0.84551 0.90767 0.0
C1831 C 0.47092 0.82626 0.90775 0.0
C1832 C 0.5468 0.82464 0.90751 0.0
C1833 C 0.4742 0.78492 0.90776 0.0
C1834 C 0.51115 0.76447 0.9079 0.0
C1835 C 0.58598 0.76274 0.90803 0.0
C1836 C 0.62399 0.78192 0.90759 0.0
C1837 C 0.54813 0.7836 0.9078 0.0
C1838 C 0.62075 0.82323 0.90703 0.0
C1839 C 0.58381 0.84372 0.9071 0.0
H1840 H 0.4746 0.26061 0.15834 0.0
H1841 H 0.58472 0.19965 0.15731 0.0
H1842 H 0.61901 0.26249 0.15721 0.0
H1843 H 0.62 0.33757 0.15765 0.0
H1844 H 0.50989 0.39859 0.15738 0.0
H1845 H 0.47556 0.33576 0.15771 0.0
C1846 C 0.50621 0.26041 0.158 0.0
C1847 C 0.52591 0.22249 0.1578 0.0
C1848 C 0.52671 0.29835 0.1577 0.0
C1849 C 0.56728 0.22603 0.15739 0.0
C1850 C 0.58738 0.26298 0.15736 0.0
C1851 C 0.58837 0.33779 0.15756 0.0
C1852 C 0.56871 0.37572 0.15742 0.0
C1853 C 0.56785 0.29987 0.15753 0.0
C1854 C 0.52731 0.3722 0.15736 0.0
C1855 C 0.50719 0.33525 0.1576 0.0
H1856 H 1.00886 0.72565 0.26833 0.0
H1857 H 0.94893 0.8362 0.26838 0.0
H1858 H 1.01222 0.86977 0.26817 0.0
H1859 H 0.0874 0.86993 0.26771 0.0
H1860 H 0.14749 0.7595 0.26883 0.0
H1861 H 0.08418 0.72586 0.26886 0.0
C1862 C 1.00899 0.75721 0.26839 0.0
C1863 C 0.97122 0.77728 0.26845 0.0
C1864 C 1.04721 0.77728 0.26848 0.0
C1865 C 0.97518 0.81854 0.26848 0.0
C1866 C 1.0124 0.8382 0.2683 0.0
C1867 C 0.08731 0.83838 0.26806 0.0
C1868 C 0.12511 0.81839 0.26834 0.0
C1869 C 1.04914 0.81831 0.26829 0.0
C1870 C 0.12122 0.77714 0.26874 0.0
C1871 C 0.08399 0.75743 0.26871 0.0
H1872 H 0.47909 0.84243 0.5188 0.0
H1873 H 0.58828 0.90407 0.5201 0.0
H1874 H 0.62347 0.8414 0.52038 0.0
H1875 H 0.62541 0.76624 0.52005 0.0
H1876 H 0.51593 0.70489 0.52008 0.0
H1877 H 0.48092 0.76754 0.51954 0.0
C1878 C 0.51069 0.8428 0.51924 0.0
C1879 C 0.52984 0.88077 0.51946 0.0
C1880 C 0.53166 0.80506 0.51965 0.0
C1881 C 0.57125 0.87757 0.52001 0.0
C1882 C 0.59186 0.84074 0.52014 0.0
C1883 C 0.59379 0.76594 0.52003 0.0
C1884 C 0.5745 0.72802 0.52017 0.0
C1885 C 0.57281 0.80376 0.51995 0.0
C1886 C 0.53307 0.73134 0.5201 0.0
C1887 C 0.51254 0.76816 0.51974 0.0
H1888 H 0.58913 0.37776 0.76921 0.0
H1889 H 0.65032 0.26781 0.76941 0.0
H1890 H 0.58726 0.23365 0.76922 0.0
H1891 H 0.51223 0.23288 0.76858 0.0
H1892 H 0.45088 0.34268 0.76974 0.0
H1893 H 0.51394 0.37693 0.76984 0.0
C1894 C 0.58931 0.3462 0.76932 0.0
C1895 C 0.62726 0.32649 0.76938 0.0
C1896 C 0.55136 0.32582 0.76943 0.0
C1897 C 0.62386 0.28521 0.76948 0.0
C1898 C 0.58682 0.26522 0.76932 0.0
C1899 C 0.512 0.26443 0.76897 0.0
C1900 C 0.47403 0.28404 0.76921 0.0
C1901 C 0.54991 0.28481 0.76925 0.0
C1902 C 0.47736 0.32532 0.76967 0.0
C1903 C 0.5144 0.34537 0.76967 0.0
H1904 H 0.12161 0.2668 1.02045 0.0
H1905 H 1.01142 0.2067 1.02061 0.0
H1906 H 0.97718 0.26988 1.02032 0.0
H1907 H 0.97634 0.3449 1.01974 0.0
H1908 H 0.08645 0.40501 1.02077 0.0
H1909 H 0.12073 0.34185 1.02089 0.0
C1910 C 0.08999 0.26688 1.0205 0.0
C1911 C 0.07026 0.22917 1.02059 0.0
C1912 C 0.06953 0.30494 1.02054 0.0
C1913 C 1.02888 0.23296 1.02064 0.0
C1914 C 1.00881 0.27008 1.02043 0.0
C1915 C 1.00795 0.34483 1.02007 0.0
C1916 C 1.02766 0.38254 1.02028 0.0
C1917 C 1.02841 0.30677 1.02036 0.0
C1918 C 0.06903 0.37876 1.02069 0.0
C1919 C 0.0891 0.34164 1.02072 0.0
H1920 H 0.12538 0.8311 0.76992 0.0
H1921 H 0.09739 0.70876 0.76972 0.0
H1922 H 1.02796 0.7244 0.77006 0.0
H1923 H 0.97039 0.7727 0.76988 0.0
H1924 H 0.99833 0.89503 0.76937 0.0
H1925 H 0.06777 0.87943 0.76987 0.0
C1926 C 0.10461 0.80738 0.77014 0.0
C1927 C 0.11989 0.76771 0.76997 0.0
C1928 C 0.06221 0.81676 0.77016 0.0
C1929 C 0.08943 0.73934 0.76994 0.0
C1930 C 1.04841 0.74841 0.77011 0.0
C1931 C 0.99116 0.79643 0.77005 0.0
C1932 C 0.97586 0.83608 0.76975 0.0
C1933 C 1.03355 0.78707 0.77018 0.0
C1934 C 1.0063 0.86447 0.76969 0.0
C1935 C 1.04734 0.85541 0.76996 0.0
H1936 H 0.96668 0.26083 0.52106 0.0
H1937 H 0.07655 0.19934 0.52001 0.0
H1938 H 0.11109 0.26178 0.51908 0.0
H1939 H 0.11259 0.33647 0.51838 0.0
H1940 H 1.00345 0.39879 0.52081 0.0
H1941 H 0.96842 0.33626 0.52141 0.0
C1942 C 0.99828 0.26044 0.52069 0.0
C1943 C 1.01782 0.22242 0.52056 0.0
C1944 C 1.01909 0.29827 0.52042 0.0
C1945 C 0.0592 0.22577 0.5201 0.0
C1946 C 0.07949 0.2625 0.51957 0.0
C1947 C 0.08104 0.33706 0.51915 0.0
C1948 C 0.06189 0.37517 0.51961 0.0
C1949 C 0.0602 0.29943 0.51971 0.0
C1950 C 1.02053 0.37219 0.52054 0.0
C1951 C 1.0 0.33541 0.52084 0.0
H1952 H 0.58809 0.23224 0.27104 0.0
H1953 H 0.65022 0.34115 0.27113 0.0
H1954 H 0.58747 0.37641 0.27089 0.0
H1955 H 0.51247 0.37834 0.27026 0.0
H1956 H 0.45035 0.2695 0.2716 0.0
H1957 H 0.51309 0.23424 0.2717 0.0
C1958 C 0.58852 0.26381 0.27112 0.0
C1959 C 0.62652 0.28291 0.27117 0.0
C1960 C 0.55083 0.28479 0.27122 0.0
C1961 C 0.62359 0.32424 0.27122 0.0
C1962 C 0.58677 0.34485 0.27103 0.0
C1963 C 0.51204 0.3468 0.27069 0.0
C1964 C 0.47404 0.32771 0.27098 0.0
C1965 C 0.54974 0.32584 0.27099 0.0
C1966 C 0.47699 0.28641 0.27149 0.0
C1967 C 0.5138 0.26579 0.27149 0.0
H1968 H 0.62294 0.83965 1.01854 0.0
H1969 H 0.51306 0.90114 1.01954 0.0
H1970 H 0.47853 0.83838 1.01935 0.0
H1971 H 0.47733 0.76327 1.01863 0.0
H1972 H 0.58725 0.70196 1.01892 0.0
H1973 H 0.62177 0.76466 1.01888 0.0
C1974 C 0.59132 0.83998 1.01881 0.0
C1975 C 0.5718 0.87795 1.01911 0.0
C1976 C 0.5707 0.80218 1.01892 0.0
C1977 C 0.5304 0.87466 1.01941 0.0
C1978 C 0.51015 0.83778 1.01926 0.0
C1979 C 0.50896 0.76298 1.01878 0.0
C1980 C 0.52856 0.72503 1.01883 0.0
C1981 C 0.52957 0.80082 1.019 0.0
C1982 C 0.56993 0.72839 1.01899 0.0
C1983 C 0.59014 0.76526 1.01893 0.0
H1984 H 0.12639 0.27357 0.906 0.0
H1985 H 0.09851 0.39594 0.90857 0.0
H1986 H 1.02908 0.38093 0.9084 0.0
H1987 H 0.97135 0.33311 0.90807 0.0
H1988 H 0.9992 0.21064 0.90617 0.0
H1989 H 0.06861 0.22575 0.90553 0.0
C1990 C 0.10565 0.29747 0.90637 0.0
C1991 C 0.12108 0.33696 0.90715 0.0
C1992 C 0.06317 0.28843 0.90644 0.0
C1993 C 0.09057 0.36549 0.90787 0.0
C1994 C 0.04949 0.35677 0.90779 0.0
C1995 C 0.99205 0.30925 0.90734 0.0
C1996 C 0.97663 0.2697 0.90702 0.0
C1997 C 1.03452 0.31829 0.90713 0.0
C1998 C 1.00714 0.24116 0.90637 0.0
C1999 C 1.04821 0.24993 0.90602 0.0
H2000 H 0.57875 0.37927 0.65759 0.0
H2001 H 0.45639 0.35049 0.65817 0.0
H2002 H 0.47259 0.28127 0.65762 0.0
H2003 H 0.52146 0.22421 0.65726 0.0
H2004 H 0.6438 0.25279 0.65754 0.0
H2005 H 0.62764 0.32206 0.6574 0.0
C2006 C 0.55513 0.35838 0.65744 0.0
C2007 C 0.51526 0.37339 0.65776 0.0
C2008 C 0.56487 0.31611 0.65727 0.0
C2009 C 0.48708 0.34277 0.65783 0.0
C2010 C 0.49649 0.30187 0.65752 0.0
C2011 C 0.54507 0.24506 0.65713 0.0
C2012 C 0.58491 0.22998 0.65721 0.0
C2013 C 0.53534 0.28731 0.65725 0.0
C2014 C 0.61312 0.26057 0.65735 0.0
C2015 C 0.60372 0.3015 0.6573 0.0
H2016 H 0.58348 0.8706 0.40722 0.0
H2017 H 0.64595 0.76139 0.40682 0.0
H2018 H 0.58328 0.72649 0.40704 0.0
H2019 H 0.50801 0.72477 0.40766 0.0
H2020 H 0.44566 0.83403 0.40678 0.0
H2021 H 0.50832 0.86888 0.40671 0.0
C2022 C 0.58407 0.83904 0.40708 0.0
C2023 C 0.62231 0.81986 0.40694 0.0
C2024 C 0.5463 0.81819 0.40698 0.0
C2025 C 0.6193 0.77851 0.40681 0.0
C2026 C 0.58246 0.75805 0.40698 0.0
C2027 C 0.50746 0.75632 0.40736 0.0
C2028 C 0.46924 0.77556 0.40718 0.0
C2029 C 0.54525 0.77715 0.4071 0.0
C2030 C 0.47229 0.81689 0.40681 0.0
C2031 C 0.50913 0.83732 0.40682 0.0
H2032 H 0.97562 0.84176 0.15931 0.0
H2033 H 0.08499 0.90305 0.15722 0.0
H2034 H 0.11991 0.8402 0.15701 0.0
H2035 H 0.12146 0.76533 0.15772 0.0
H2036 H 1.01196 0.70402 0.15854 0.0
H2037 H 0.97706 0.76688 0.15889 0.0
C2038 C 1.0072 0.84198 0.1587 0.0
C2039 C 1.02654 0.8798 0.15822 0.0
C2040 C 1.02795 0.80422 0.15835 0.0
C2041 C 0.06788 0.87659 0.15748 0.0
C2042 C 0.0883 0.8397 0.15741 0.0
C2043 C 0.08984 0.7651 0.15787 0.0
C2044 C 0.07047 0.72727 0.15803 0.0
C2045 C 0.06905 0.80286 0.15785 0.0
C2046 C 1.02908 0.73049 0.15827 0.0
C2047 C 1.00867 0.76737 0.15852 0.0
H2048 H 0.31935 0.32546 0.36751 0.0
H2049 H 0.2408 0.23362 0.35549 0.0
H2050 H 0.25069 0.2504 0.3309 0.0
H2051 H 0.28163 0.2913 0.31143 0.0
H2052 H 0.36033 0.38311 0.32328 0.0
H2053 H 0.35046 0.3665 0.34794 0.0
C2054 C 0.30411 0.30869 0.35966 0.0
C2055 C 0.27871 0.27728 0.3644 0.0
C2056 C 0.31012 0.31886 0.34479 0.0
C2057 C 0.26033 0.25748 0.35313 0.0
C2058 C 0.26612 0.26734 0.33867 0.0
C2059 C 0.2969 0.30813 0.31926 0.0
C2060 C 0.32226 0.33946 0.31446 0.0
C2061 C 0.29095 0.29803 0.33411 0.0
C2062 C 0.34077 0.35933 0.32569 0.0
C2063 C 0.33498 0.34954 0.34019 0.0
H2064 H 1.00572 0.10493 0.57503 0.0
H2065 H 0.05917 1.00837 0.55351 0.0
H2066 H 0.08793 0.98577 0.57552 0.0
H2067 H 0.09974 0.99173 0.60206 0.0
H2068 H 1.04403 0.08767 0.62335 0.0
H2069 H 1.01685 0.11051 0.60131 0.0
C2070 C 1.0237 0.07888 0.57492 0.0
C2071 C 1.02935 0.05921 0.56161 0.0
C2072 C 1.04076 0.0651 0.5882 0.0
C2073 C 0.05318 1.02523 0.56282 0.0
C2074 C 0.07011 1.01192 0.57576 0.0
C2075 C 0.08176 1.01777 0.60211 0.0
C2076 C 0.07535 1.03737 0.61542 0.0
C2077 C 0.0645 1.03131 0.58875 0.0
C2078 C 0.05088 0.07091 0.61409 0.0
C2079 C 1.03465 0.08436 0.60113 0.0
H2080 H 0.27686 0.78544 0.86694 0.0
H2081 H 0.35775 0.8756 0.85531 0.0
H2082 H 0.34842 0.859 0.83067 0.0
H2083 H 0.31731 0.81865 0.81099 0.0
H2084 H 0.23715 0.72783 0.82256 0.0
H2085 H 0.24619 0.7446 0.84722 0.0
C2086 C 0.29274 0.80189 0.85917 0.0
C2087 C 0.31857 0.83282 0.86406 0.0
C2088 C 0.28723 0.7917 0.84426 0.0
C2089 C 0.33783 0.85213 0.85286 0.0
C2090 C 0.33236 0.84238 0.83836 0.0
C2091 C 0.30152 0.80207 0.81875 0.0
C2092 C 0.27595 0.77099 0.81384 0.0
C2093 C 0.30713 0.81214 0.83366 0.0
C2094 C 0.25689 0.75143 0.82503 0.0
C2095 C 0.26218 0.7613 0.83954 0.0
H2096 H 0.48807 0.08933 0.10184 0.0
H2097 H 0.57814 1.02885 0.12466 0.0
H2098 H 0.60843 1.00865 0.10272 0.0
H2099 H 0.61209 1.00667 1.07589 0.0
H2100 H 0.52264 0.06814 1.05309 0.0
H2101 H 0.49199 0.08779 1.07502 0.0
C2102 C 0.51428 0.07162 0.10227 0.0
C2103 C 0.52949 0.06126 0.11601 0.0
C2104 C 0.53293 0.05957 1.08895 0.0
C2105 C 0.56419 1.03818 0.11508 0.0
C2106 C 0.58215 1.02625 0.10216 0.0
C2107 C 0.58587 1.0244 1.07547 0.0
C2108 C 0.57089 1.03514 1.06174 0.0
C2109 C 0.56727 1.03651 1.0888 0.0
C2110 C 0.53636 0.05846 1.06267 0.0
C2111 C 0.51821 0.07008 1.07559 0.0
H2112 H 0.34178 0.73365 0.35047 0.0
H2113 H 0.27542 0.81953 0.37329 0.0
H2114 H 0.25511 0.84973 0.35143 0.0
H2115 H 0.25428 0.85452 0.32467 0.0
H2116 H 0.32028 0.76876 0.30171 0.0
H2117 H 0.34081 0.7384 0.32359 0.0
C2118 C 0.3228 0.75894 0.35092 0.0
C2119 C 0.3109 0.77299 0.36467 0.0
C2120 C 0.31035 0.77746 0.3376 0.0
C2121 C 0.28606 0.80645 0.36373 0.0
C2122 C 0.27402 0.8244 0.35084 0.0
C2123 C 0.27323 0.82921 0.3242 0.0
C2124 C 0.285 0.81524 0.31044 0.0
C2125 C 0.28567 0.81064 0.33748 0.0
C2126 C 0.30978 0.78173 0.31131 0.0
C2127 C 0.32192 0.76373 0.3242 0.0
H2128 H 0.60682 0.09912 0.60116 0.0
H2129 H 0.52609 1.02755 0.62404 0.0
H2130 H 0.49645 1.00621 0.6021 0.0
H2131 H 0.49123 1.0062 0.57526 0.0
H2132 H 0.57228 0.07793 0.55254 0.0
H2133 H 0.60163 0.09916 0.57446 0.0
C2134 C 0.58275 0.07879 0.60159 0.0
C2135 C 0.56987 0.0657 0.61529 0.0
C2136 C 0.56477 0.0659 0.58832 0.0
C2137 C 0.53802 1.03912 0.61444 0.0
C2138 C 0.52052 1.02654 0.60154 0.0
C2139 C 0.51529 1.02656 0.57487 0.0
C2140 C 0.52837 1.03972 0.56118 0.0
C2141 C 0.53323 1.03943 0.58818 0.0
C2142 C 0.56019 0.06629 0.5621 0.0
C2143 C 0.57756 0.07884 0.575 0.0
H2144 H 0.28239 0.31958 0.81019 0.0
H2145 H 0.36045 0.22655 0.82199 0.0
H2146 H 0.3503 0.24306 0.84668 0.0
H2147 H 0.31911 0.28431 0.86625 0.0
H2148 H 0.24119 0.37736 0.8543 0.0
H2149 H 0.25137 0.36073 0.82968 0.0
C2150 C 0.29747 0.30244 0.81802 0.0
C2151 C 0.32274 0.2708 0.81319 0.0
C2152 C 0.29134 0.3125 0.83287 0.0
C2153 C 0.34098 0.25056 0.82442 0.0
C2154 C 0.33503 0.2603 0.83892 0.0
C2155 C 0.30407 0.30139 0.85841 0.0
C2156 C 0.27876 0.3331 0.86318 0.0
C2157 C 0.31025 0.29129 0.84354 0.0
C2158 C 0.26063 0.35329 0.85192 0.0
C2159 C 0.2666 0.3435 0.83744 0.0
H2160 H 1.0326 1.02873 1.06171 0.0
H2161 H 0.11196 0.12048 1.07312 0.0
H2162 H 0.0949 0.11135 0.09769 0.0
H2163 H 0.05718 0.07754 0.11737 0.0
H2164 H 0.97679 0.98658 0.10616 0.0
H2165 H 0.99406 0.99528 1.0815 0.0
C2166 C 1.04655 1.04705 1.06942 0.0
C2167 C 0.07467 0.07585 1.06449 0.0
C2168 C 1.036 1.04168 1.08431 0.0
C2169 C 0.09082 0.09816 1.07561 0.0
C2170 C 0.08077 0.09283 0.09007 0.0
C2171 C 1.04299 0.0593 0.10968 0.0
C2172 C 1.01471 1.03082 0.11468 0.0
C2173 C 0.05332 0.06471 0.09481 0.0
C2174 C 0.99814 1.00866 0.10361 0.0
C2175 C 1.00832 1.01375 1.0891 0.0
H2176 H 0.81331 0.82044 0.86637 0.0
H2177 H 0.74119 0.72311 0.85484 0.0
H2178 H 0.75126 0.73879 0.8301 0.0
H2179 H 0.78073 0.7805 0.81032 0.0
H2180 H 0.85265 0.87789 0.82203 0.0
H2181 H 0.84257 0.86203 0.84669 0.0
C2182 C 0.79951 0.80217 0.8586 0.0
C2183 C 0.77593 0.76958 0.86355 0.0
C2184 C 0.80558 0.81173 0.84367 0.0
C2185 C 0.75932 0.74793 0.85235 0.0
C2186 C 0.76524 0.75718 0.83779 0.0
C2187 C 0.79448 0.79871 0.81811 0.0
C2188 C 0.81808 0.83142 0.81322 0.0
C2189 C 0.78834 0.78909 0.83305 0.0
C2190 C 0.83455 0.85299 0.82446 0.0
C2191 C 0.82864 0.84366 0.83898 0.0
H2192 H 0.78191 0.28628 0.36802 0.0
H2193 H 0.85654 0.38125 0.356 0.0
H2194 H 0.84682 0.36424 0.33137 0.0
H2195 H 0.81705 0.32206 0.31187 0.0
H2196 H 0.74185 0.22755 0.32391 0.0
H2197 H 0.7518 0.24443 0.34853 0.0
C2198 C 0.79633 0.30372 0.36016 0.0
C2199 C 0.82056 0.33605 0.36492 0.0
C2200 C 0.79034 0.29346 0.3453 0.0
C2201 C 0.83791 0.35668 0.35364 0.0
C2202 C 0.83221 0.34667 0.33915 0.0
C2203 C 0.80256 0.30469 0.31973 0.0
C2204 C 0.77816 0.27247 0.31498 0.0
C2205 C 0.80848 0.31503 0.33459 0.0
C2206 C 0.76063 0.25201 0.32627 0.0
C2207 C 0.76646 0.26194 0.34075 0.0
H2208 H 0.75225 0.36467 0.82601 0.0
H2209 H 0.82387 0.28403 0.80277 0.0
H2210 H 0.84514 0.2535 0.82445 0.0
H2211 H 0.84538 0.24692 0.85113 0.0
H2212 H 0.77457 0.32772 0.87455 0.0
H2213 H 0.75287 0.35833 0.85285 0.0
C2214 C 0.77257 0.34045 0.82544 0.0
C2215 C 0.78562 0.32795 0.81164 0.0
C2216 C 0.78567 0.32179 0.83864 0.0
C2217 C 0.81224 0.29585 0.81239 0.0
C2218 C 0.82485 0.27772 0.82517 0.0
C2219 C 0.82512 0.27119 0.85174 0.0
C2220 C 0.81237 0.28369 0.86555 0.0
C2221 C 0.81208 0.28995 0.83858 0.0
C2222 C 0.78593 0.31593 0.86488 0.0
C2223 C 0.7731 0.33406 0.8521 0.0
H2224 H 0.74745 0.8613 0.34998 0.0
H2225 H 0.819 0.77991 0.37289 0.0
H2226 H 0.84048 0.75023 0.35106 0.0
H2227 H 0.84102 0.74481 0.32432 0.0
H2228 H 0.77041 0.8265 0.30125 0.0
H2229 H 0.74838 0.85611 0.32311 0.0
C2230 C 0.76779 0.83707 0.35045 0.0
C2231 C 0.78075 0.82407 0.3642 0.0
C2232 C 0.78104 0.81899 0.33716 0.0
C2233 C 0.80743 0.79206 0.36331 0.0
C2234 C 0.82016 0.77445 0.35044 0.0
C2235 C 0.82072 0.76905 0.32382 0.0
C2236 C 0.80812 0.78212 0.31005 0.0
C2237 C 0.8075 0.78721 0.33708 0.0
C2238 C 0.78164 0.8143 0.31087 0.0
C2239 C 0.76862 0.83183 0.32375 0.0
H2240 H 0.60844 0.50657 0.10114 0.0
H2241 H 0.52161 0.57263 0.1236 0.0
H2242 H 0.49285 0.59397 0.10153 0.0
H2243 H 0.48989 0.59556 1.07469 0.0
H2244 H 0.57646 0.52916 1.05223 0.0
H2245 H 0.60536 0.50801 1.07431 0.0
C2246 C 0.58323 0.52571 0.10146 0.0
C2247 C 0.56838 0.53725 0.11513 0.0
C2248 C 0.56565 0.53859 1.08806 0.0
C2249 C 0.53513 0.56228 0.11408 0.0
C2250 C 0.5181 0.57489 0.10108 0.0
C2251 C 0.5151 0.57642 1.07438 0.0
C2252 C 0.52986 0.56475 1.06071 0.0
C2253 C 0.53267 0.56352 1.08778 0.0
C2254 C 0.56304 0.53962 1.06176 0.0
C2255 C 0.58014 0.52713 1.07476 0.0
H2256 H 0.06801 0.53937 0.61578 0.0
H2257 H 0.96282 0.60072 0.60433 0.0
H2258 H 0.97757 0.58924 0.57962 0.0
H2259 H 1.02051 0.56167 0.55984 0.0
H2260 H 0.12494 0.49904 0.57128 0.0
H2261 H 0.11043 0.51087 0.596 0.0
C2262 C 1.04781 0.55046 0.60803 0.0
C2263 C 1.01335 0.57159 0.61301 0.0
C2264 C 0.05667 0.5433 0.5931 0.0
C2265 C 0.98919 0.58464 0.60183 0.0
C2266 C 0.99788 0.57792 0.58729 0.0
C2267 C 1.04057 0.55035 0.56759 0.0
C2268 C 0.07484 0.5289 0.56261 0.0
C2269 C 1.03159 0.55727 0.58252 0.0
C2270 C 0.09874 0.51539 0.57379 0.0
C2271 C 0.09019 0.52234 0.58833 0.0
H2272 H 0.11019 0.60384 0.10149 0.0
H2273 H 1.03135 0.53045 0.12454 0.0
H2274 H 1.00132 0.50906 0.1028 0.0
H2275 H 0.99477 0.50921 1.07614 0.0
H2276 H 0.07343 0.5822 1.05291 0.0
H2277 H 0.10368 0.60384 1.07467 0.0
C2278 C 0.08649 0.58309 0.102 0.0
C2279 C 0.07434 0.56954 0.11575 0.0
C2280 C 0.0681 0.56999 1.08877 0.0
C2281 C 1.04288 0.54244 0.11494 0.0
C2282 C 1.02505 0.52976 0.10214 0.0
C2283 C 1.0185 0.52992 1.07559 0.0
C2284 C 1.03055 0.54331 1.06183 0.0
C2285 C 1.03695 0.54301 1.08877 0.0
C2286 C 0.06205 0.57036 1.06255 0.0
C2287 C 0.07995 0.58315 1.07536 0.0
H2288 H 0.48472 0.51367 0.60227 0.0
H2289 H 0.58151 0.56173 0.62514 0.0
H2290 H 0.61251 0.58095 0.60322 0.0
H2291 H 0.61442 0.58594 0.57645 0.0
H2292 H 0.51684 0.53933 0.55362 0.0
H2293 H 0.48636 0.5192 0.57552 0.0
C2294 C 0.51265 0.52834 0.60269 0.0
C2295 C 0.52964 0.53547 0.6164 0.0
C2296 C 0.5313 0.54029 0.58942 0.0
C2297 C 0.56625 0.55501 0.61555 0.0
C2298 C 0.58456 0.56634 0.60265 0.0
C2299 C 0.58647 0.57133 0.57602 0.0
C2300 C 0.56914 0.56482 0.56233 0.0
C2301 C 0.56779 0.55945 0.5893 0.0
C2302 C 0.53237 0.54558 0.56319 0.0
C2303 C 0.51435 0.53372 0.57608 0.0
H2304 H 0.31457 0.18605 0.46417 0.0
H2305 H 0.36393 0.14371 0.42569 0.0
H2306 H 0.40753 0.10075 0.43939 0.0
H2307 H 0.4347 0.07328 0.46275 0.0
H2308 H 0.3834 0.11342 0.50121 0.0
H2309 H 0.33996 0.15663 0.48753 0.0
C2310 C 0.33438 0.16734 0.45844 0.0
C2311 C 0.33343 0.17027 0.44301 0.0
C2312 C 0.36042 0.14116 0.4668 0.0
C2313 C 0.36151 0.14447 0.43694 0.0
C2314 C 0.38727 0.1191 0.44509 0.0
C2315 C 0.41396 0.09099 0.46848 0.0
C2316 C 0.41452 0.08756 0.4839 0.0
C2317 C 0.38753 0.11676 0.46011 0.0
C2318 C 0.38611 0.11301 0.48996 0.0
C2319 C 0.36045 0.13852 0.48182 0.0
H2320 H 0.29453 0.17515 0.71271 0.0
H2321 H 0.2351 0.14651 0.75091 0.0
H2322 H 0.18987 0.10526 0.73739 0.0
H2323 H 0.16338 0.07639 0.71419 0.0
H2324 H 0.22368 0.10317 0.67602 0.0
H2325 H 0.26903 0.14453 0.68951 0.0
C2326 C 0.27195 0.16002 0.71841 0.0
C2327 C 0.2708 0.16604 0.73372 0.0
C2328 C 0.24462 0.13507 0.71013 0.0
C2329 C 0.23948 0.14446 0.73976 0.0
C2330 C 0.21267 0.1202 0.73171 0.0
C2331 C 0.18674 0.09032 0.70853 0.0
C2332 C 0.18797 0.08385 0.69325 0.0
C2333 C 0.21435 0.1149 0.7168 0.0
C2334 C 0.21939 0.10525 0.68718 0.0
C2335 C 0.24625 0.12962 0.69521 0.0
H2336 H 0.21222 0.98309 0.99388 0.0
H2337 H 0.15585 0.0617 0.96529 0.0
H2338 H 0.19019 1.03218 0.94585 0.0
H2339 H 0.23776 0.98111 0.93475 0.0
H2340 H 0.28656 0.89639 0.96296 0.0
H2341 H 0.25538 0.92867 0.98256 0.0
C2342 C 0.20707 0.99477 0.98355 0.0
C2343 C 0.18066 1.02875 0.98236 0.0
C2344 C 0.2266 0.97488 0.97125 0.0
C2345 C 0.1763 1.03873 0.96787 0.0
C2346 C 0.19611 1.02063 0.95615 0.0
C2347 C 0.24212 0.96884 0.94504 0.0
C2348 C 0.26762 0.93418 0.94618 0.0
C2349 C 0.22191 0.98819 0.95731 0.0
C2350 C 0.26929 0.92203 0.96054 0.0
C2351 C 0.25065 0.9411 0.97231 0.0
H2352 H 0.31981 0.91162 0.21212 0.0
H2353 H 0.36001 0.96044 0.25092 0.0
H2354 H 0.40312 1.00428 0.23752 0.0
H2355 H 0.43235 1.03096 0.21433 0.0
H2356 H 0.38959 0.98456 0.1755 0.0
H2357 H 0.34706 0.94019 0.18891 0.0
C2358 C 0.33743 0.93194 0.218 0.0
C2359 C 0.33398 0.93047 0.23343 0.0
C2360 C 0.3631 0.95877 0.20979 0.0
C2361 C 0.3595 0.95836 0.23966 0.0
C2362 C 0.38498 0.98431 0.23168 0.0
C2363 C 0.41353 1.0118 0.20844 0.0
C2364 C 0.41629 1.01392 0.19299 0.0
C2365 C 0.3875 0.98532 0.21665 0.0
C2366 C 0.39055 0.98622 0.18677 0.0
C2367 C 0.36538 0.96 0.19475 0.0
H2368 H 0.77364 0.91214 0.71334 0.0
H2369 H 0.74233 0.97208 0.75125 0.0
H2370 H 0.70148 1.01708 0.7373 0.0
H2371 H 0.67192 1.04174 0.71385 0.0
H2372 H 0.70575 0.98363 0.67587 0.0
H2373 H 0.74615 0.93832 0.68985 0.0
C2374 C 0.75829 0.93502 0.71889 0.0
C2375 C 0.76332 0.9363 0.73425 0.0
C2376 C 0.73405 0.96242 0.71036 0.0
C2377 C 0.74111 0.96764 0.74008 0.0
C2378 C 0.71705 0.99427 0.73178 0.0
C2379 C 0.68817 1.01953 0.70829 0.0
C2380 C 0.68373 1.01861 0.69291 0.0
C2381 C 0.71283 0.99246 0.71682 0.0
C2382 C 0.70638 0.98762 0.68707 0.0
C2383 C 0.73022 0.96087 0.69538 0.0
H2384 H 0.9161 1.04534 0.46293 0.0
H2385 H 0.89122 0.98052 0.50033 0.0
H2386 H 0.851 0.93554 0.48633 0.0
H2387 H 0.82164 0.91098 0.46291 0.0
H2388 H 0.84316 0.97748 0.42568 0.0
H2389 H 0.88399 1.02232 0.43959 0.0
C2390 C 0.90178 1.02177 0.46838 0.0
C2391 C 0.90867 1.01897 0.48364 0.0
C2392 C 0.87709 0.99477 0.45983 0.0
C2393 C 0.88854 0.98616 0.48926 0.0
C2394 C 0.86479 0.95953 0.48093 0.0
C2395 C 0.83423 0.93563 0.45756 0.0
C2396 C 0.82647 0.93868 0.44239 0.0
C2397 C 0.85842 0.96297 0.46611 0.0
C2398 C 0.84631 0.97166 0.43672 0.0
C2399 C 0.8704 0.99823 0.44501 0.0
H2400 H 0.91588 0.05528 0.21499 0.0
H2401 H 0.89384 0.12179 0.17782 0.0
H2402 H 0.85409 0.16762 0.1918 0.0
H2403 H 0.82502 0.1926 0.21523 0.0
H2404 H 0.8457 0.12543 0.25242 0.0
H2405 H 0.88534 0.07941 0.23844 0.0
C2406 C 0.90265 0.07965 0.20968 0.0
C2407 C 0.90995 0.08257 0.1945 0.0
C2408 C 0.87875 0.10733 0.21825 0.0
C2409 C 0.89063 0.11598 0.18885 0.0
C2410 C 0.8673 0.14314 0.19717 0.0
C2411 C 0.8373 0.16766 0.22055 0.0
C2412 C 0.82976 0.16467 0.23572 0.0
C2413 C 0.86085 0.13974 0.21198 0.0
C2414 C 0.84888 0.13115 0.24138 0.0
C2415 C 0.8722 0.10391 0.23306 0.0
H2416 H 0.66544 0.07015 0.96304 0.0
H2417 H 0.71546 0.11262 1.00133 0.0
H2418 H 0.75771 0.15617 0.98746 0.0
H2419 H 0.7825 0.18512 0.96395 0.0
H2420 H 0.73606 0.13896 0.92564 0.0
H2421 H 0.69291 0.09635 0.93953 0.0
C2422 C 0.68582 0.08828 0.96869 0.0
C2423 C 0.68524 0.08537 0.98414 0.0
C2424 C 0.71183 0.11398 0.9602 0.0
C2425 C 0.71289 0.11163 0.99009 0.0
C2426 C 0.73786 0.13736 0.98183 0.0
C2427 C 0.76355 0.16553 0.9583 0.0
C2428 C 0.7652 0.16731 0.94285 0.0
C2429 C 0.73809 0.13927 0.96679 0.0
C2430 C 0.73799 0.1406 0.93689 0.0
C2431 C 0.71251 0.11541 0.94516 0.0
H2432 H 0.81145 0.68514 0.96446 0.0
H2433 H 0.85964 0.64048 0.92627 0.0
H2434 H 0.90396 0.5987 0.94014 0.0
H2435 H 0.93221 0.57305 0.96366 0.0
H2436 H 0.88196 0.61563 1.00195 0.0
H2437 H 0.83793 0.65772 0.98807 0.0
C2438 C 0.83107 0.66611 0.95889 0.0
C2439 C 0.82948 0.66801 0.94347 0.0
C2440 C 0.85761 0.64075 0.9674 0.0
C2441 C 0.85756 0.64197 0.93752 0.0
C2442 C 0.88379 0.61732 0.94577 0.0
C2443 C 0.91155 0.59107 0.9693 0.0
C2444 C 0.91259 0.58865 0.98474 0.0
C2445 C 0.88464 0.61605 0.96081 0.0
C2446 C 0.88427 0.61441 0.9907 0.0
C2447 C 0.85823 0.63925 0.98244 0.0
H2448 H 0.71358 0.61817 0.183 0.0
H2449 H 0.64371 0.55538 0.21269 0.0
H2450 H 0.67712 0.58723 0.23182 0.0
H2451 H 0.72858 0.63501 0.24228 0.0
H2452 H 0.79236 0.7039 0.21258 0.0
H2453 H 0.76108 0.66994 0.19345 0.0
C2454 C 0.7049 0.61075 0.19352 0.0
C2455 C 0.67438 0.58084 0.1952 0.0
C2456 C 0.72462 0.63159 0.20555 0.0
C2457 C 0.66643 0.57573 0.20983 0.0
C2458 C 0.68604 0.59492 0.22134 0.0
C2459 C 0.73632 0.64338 0.23176 0.0
C2460 C 0.76629 0.67384 0.23008 0.0
C2461 C 0.71586 0.62329 0.21973 0.0
C2462 C 0.77189 0.68131 0.21544 0.0
C2463 C 0.75305 0.66135 0.20394 0.0
H2464 H 0.77575 0.41647 0.46531 0.0
H2465 H 0.74339 0.47518 0.4274 0.0
H2466 H 0.701 0.51906 0.44123 0.0
H2467 H 0.67053 0.54305 0.46458 0.0
H2468 H 0.70644 0.48723 0.50273 0.0
H2469 H 0.74802 0.44267 0.48886 0.0
C2470 C 0.76045 0.43928 0.45981 0.0
C2471 C 0.76561 0.44055 0.44449 0.0
C2472 C 0.73539 0.46609 0.4683 0.0
C2473 C 0.74237 0.471 0.43858 0.0
C2474 C 0.71738 0.49694 0.4468 0.0
C2475 C 0.68768 0.52169 0.47021 0.0
C2476 C 0.68345 0.52116 0.48559 0.0
C2477 C 0.71323 0.49529 0.46176 0.0
C2478 C 0.70693 0.49094 0.49152 0.0
C2479 C 0.7315 0.46466 0.48328 0.0
H2480 H 0.82565 0.41553 0.71279 0.0
H2481 H 0.84668 0.48178 0.75014 0.0
H2482 H 0.88648 0.52756 0.73627 0.0
H2483 H 0.91711 0.55183 0.71288 0.0
H2484 H 0.89483 0.48629 0.67551 0.0
H2485 H 0.85499 0.4406 0.68938 0.0
C2486 C 0.83806 0.44022 0.71817 0.0
C2487 C 0.8305 0.44299 0.73336 0.0
C2488 C 0.86179 0.46801 0.70966 0.0
C2489 C 0.84981 0.47619 0.73908 0.0
C2490 C 0.87325 0.50331 0.73082 0.0
C2491 C 0.90381 0.5277 0.70749 0.0
C2492 C 0.91118 0.52499 0.69229 0.0
C2493 C 0.87982 0.5001 0.71599 0.0
C2494 C 0.89176 0.49186 0.68657 0.0
C2495 C 0.8683 0.46481 0.69483 0.0
H2496 H 0.27249 0.41476 0.21486 0.0
H2497 H 0.25687 0.48502 0.25164 0.0
H2498 H 0.21774 0.53143 0.23767 0.0
H2499 H 0.1865 0.55522 0.2143 0.0
H2500 H 0.20269 0.48509 0.17757 0.0
H2501 H 0.24211 0.43896 0.19153 0.0
C2502 C 0.26135 0.44041 0.22008 0.0
C2503 C 0.27013 0.44416 0.23513 0.0
C2504 C 0.23803 0.4685 0.21152 0.0
C2505 C 0.25259 0.47866 0.24069 0.0
C2506 C 0.2296 0.50613 0.23237 0.0
C2507 C 0.19825 0.52989 0.2091 0.0
C2508 C 0.18952 0.52608 0.19405 0.0
C2509 C 0.22178 0.50195 0.21767 0.0
C2510 C 0.20711 0.4916 0.18851 0.0
C2511 C 0.23022 0.46426 0.19682 0.0
H2512 H 0.43151 0.53749 0.96197 0.0
H2513 H 0.39281 0.48525 1.00037 0.0
H2514 H 0.35135 0.44067 0.98662 0.0
H2515 H 0.32465 0.41327 0.96321 0.0
H2516 H 0.35805 0.4698 0.92495 0.0
H2517 H 0.40087 0.51326 0.93864 0.0
C2518 C 0.41361 0.5171 0.9677 0.0
C2519 C 0.41714 0.51761 0.98312 0.0
C2520 C 0.38786 0.49086 0.9593 0.0
C2521 C 0.39288 0.48831 0.98913 0.0
C2522 C 0.36838 0.46196 0.98095 0.0
C2523 C 0.34012 0.43558 0.95753 0.0
C2524 C 0.33508 0.43626 0.94215 0.0
C2525 C 0.36513 0.46249 0.96594 0.0
C2526 C 0.3588 0.46606 0.93616 0.0
C2527 C 0.38406 0.4918 0.94431 0.0
H2528 H 0.42745 0.56359 0.71481 0.0
H2529 H 0.39123 0.61895 0.6766 0.0
H2530 H 0.34997 0.66383 0.69045 0.0
H2531 H 0.3226 0.69048 0.71388 0.0
H2532 H 0.3551 0.63223 0.75197 0.0
H2533 H 0.39724 0.58804 0.73817 0.0
C2534 C 0.41037 0.58497 0.70916 0.0
C2535 C 0.41441 0.58525 0.69376 0.0
C2536 C 0.38501 0.6116 0.7176 0.0
C2537 C 0.39088 0.6154 0.68782 0.0
C2538 C 0.36653 0.64191 0.69606 0.0
C2539 C 0.33809 0.66788 0.7195 0.0
C2540 C 0.333 0.66684 0.73485 0.0
C2541 C 0.36291 0.6408 0.71104 0.0
C2542 C 0.3561 0.63631 0.74078 0.0
C2543 C 0.38094 0.61017 0.73257 0.0
H2544 H 0.17163 0.5538 0.46236 0.0
H2545 H 0.19801 0.61514 0.50028 0.0
H2546 H 0.23951 0.66005 0.4867 0.0
H2547 H 0.26942 0.68568 0.46344 0.0
H2548 H 0.24431 0.62352 0.42551 0.0
H2549 H 0.20285 0.57852 0.43908 0.0
C2550 C 0.18623 0.57677 0.46794 0.0
C2551 C 0.17942 0.57845 0.48322 0.0
C2552 C 0.21128 0.60395 0.45961 0.0
C2553 C 0.20053 0.61026 0.48916 0.0
C2554 C 0.22497 0.63691 0.48107 0.0
C2555 C 0.25574 0.66205 0.45784 0.0
C2556 C 0.2628 0.66024 0.44258 0.0
C2557 C 0.23097 0.63466 0.46618 0.0
C2558 C 0.24179 0.62837 0.43663 0.0
C2559 C 0.21733 0.60169 0.44472 0.0
H2560 H 0.10179 0.05414 0.36406 0.0
H2561 H 0.11838 0.15995 0.34052 0.0
H2562 H 0.10261 0.12555 0.31899 0.0
H2563 H 0.10778 0.06271 0.30723 0.0
H2564 H 0.09477 0.95632 0.33075 0.0
H2565 H 0.08379 0.99398 0.35198 0.0
C2566 C 0.10002 0.07023 0.35434 0.0
C2567 C 0.11321 0.10895 0.35372 0.0
C2568 C 0.09245 0.04991 0.34197 0.0
C2569 C 0.1099 0.1296 0.34111 0.0
C2570 C 0.10101 0.10991 0.3288 0.0
C2571 C 0.10053 1.0476 0.31681 0.0
C2572 C 0.10432 1.00682 0.31761 0.0
C2573 C 0.09589 0.06941 0.32904 0.0
C2574 C 0.09378 0.98783 0.33005 0.0
C2575 C 0.08768 1.00935 0.34221 0.0
H2576 H 0.31996 0.85787 0.62098 0.0
H2577 H 0.21187 0.84073 0.59869 0.0
H2578 H 0.24811 0.83021 0.5771 0.0
H2579 H 0.30675 0.84979 0.56432 0.0
H2580 H 0.41428 0.86959 0.58666 0.0
H2581 H 0.38204 0.85368 0.6086 0.0
C2582 C 0.30422 0.84981 0.61161 0.0
C2583 C 0.26322 0.85247 0.61122 0.0
C2584 C 0.32516 0.84528 0.59917 0.0
C2585 C 0.2435 0.84077 0.59905 0.0
C2586 C 0.2642 0.83491 0.58669 0.0
C2587 C 0.32375 0.84871 0.57386 0.0
C2588 C 0.36221 0.86294 0.57403 0.0
C2589 C 0.30467 0.84089 0.58647 0.0
C2590 C 0.38404 0.8604 0.58642 0.0
C2591 C 0.3656 0.85141 0.59897 0.0
H2592 H 0.47587 1.01374 0.79909 0.0
H2593 H 0.5276 0.11271 0.81975 0.0
H2594 H 0.53187 0.07558 0.8414 0.0
H2595 H 0.50013 1.0247 0.85533 0.0
H2596 H 0.44492 0.92778 0.83463 0.0
H2597 H 0.46381 0.95405 0.81199 0.0
C2598 C 0.48998 1.02676 0.80808 0.0
C2599 C 0.49932 0.06666 0.80805 0.0
C2600 C 0.49066 1.00586 0.8206 0.0
C2601 C 0.51852 0.08249 0.81972 0.0
C2602 C 0.52074 0.06135 0.83213 0.0
C2603 C 0.49384 1.00837 0.84591 0.0
C2604 C 0.46973 0.97535 0.84654 0.0
C2605 C 0.50354 1.0244 0.83293 0.0
C2606 C 0.46229 0.9541 0.83429 0.0
C2607 C 0.47303 0.96913 0.82136 0.0
H2608 H 0.26544 0.2522 1.0753 0.0
H2609 H 0.15893 0.21204 0.0944 0.0
H2610 H 0.18452 0.22839 0.11745 0.0
H2611 H 0.24413 0.23224 0.1315 0.0
H2612 H 0.35336 0.26017 0.11145 0.0
H2613 H 0.31938 0.274 0.08986 0.0
C2614 C 0.24705 0.24883 1.08443 0.0
C2615 C 0.21109 0.22956 1.08328 0.0
C2616 C 0.26291 0.25593 0.09764 0.0
C2617 C 0.18731 0.22577 0.09515 0.0
C2618 C 0.202 0.23497 0.10832 0.0
C2619 C 0.26029 0.24254 0.1225 0.0
C2620 C 0.3014 0.24261 0.12284 0.0
C2621 C 0.24104 0.24661 0.10969 0.0
C2622 C 0.3218 0.25848 0.11144 0.0
C2623 C 0.30239 0.26582 0.09893 0.0
H2624 H 0.99741 0.05952 0.80942 0.0
H2625 H 0.99425 0.95133 0.83231 0.0
H2626 H 1.00912 0.98598 0.85386 0.0
H2627 H 0.9977 1.04736 0.86614 0.0
H2628 H 0.99684 0.15565 0.84328 0.0
H2629 H 1.01058 0.12053 0.8217 0.0
C2630 C 1.00203 1.04314 0.81896 0.0
C2631 C 0.9925 1.00333 0.81948 0.0
C2632 C 1.0089 0.06348 0.83137 0.0
C2633 C 0.99973 0.98239 0.83183 0.0
C2634 C 1.00804 1.00222 0.84416 0.0
C2635 C 1.00259 0.06363 0.85661 0.0
C2636 C 0.99397 0.10371 0.8561 0.0
C2637 C 1.00875 1.04307 0.84418 0.0
C2638 C 1.00157 0.12443 0.84375 0.0
C2639 C 1.00923 0.10433 0.83139 0.0
H2640 H 0.85183 1.02426 0.64043 0.0
H2641 H 0.89944 0.13649 0.65108 0.0
H2642 H 0.94231 0.13361 0.63076 0.0
H2643 H 0.94611 0.11049 0.60632 0.0
H2644 H 0.89367 1.00025 0.59552 0.0
H2645 H 0.87342 0.99092 0.61951 0.0
C2646 C 0.8729 1.04733 0.6388 0.0
C2647 C 0.87004 0.08214 0.6465 0.0
C2648 C 0.89556 1.04649 0.62665 0.0
C2649 C 0.89939 0.11037 0.64473 0.0
C2650 C 0.92352 0.10902 0.63297 0.0
C2651 C 0.93137 0.08388 0.60933 0.0
C2652 C 0.92022 0.05687 0.59903 0.0
C2653 C 0.91857 0.07916 0.62313 0.0
C2654 C 0.90221 1.0219 0.60315 0.0
C2655 C 0.89035 1.01655 0.61691 0.0
H2656 H 0.59074 0.05326 0.36509 0.0
H2657 H 0.59842 0.94473 0.34247 0.0
H2658 H 0.58538 0.97892 0.32067 0.0
H2659 H 0.59617 1.04037 0.3084 0.0
H2660 H 0.59066 0.14903 0.33103 0.0
H2661 H 0.57686 0.1138 0.35255 0.0
C2662 C 0.58755 1.03665 0.35554 0.0
C2663 C 0.59787 0.99693 0.35523 0.0
C2664 C 0.5814 0.05669 0.343 0.0
C2665 C 0.59244 0.97575 0.34282 0.0
C2666 C 0.58511 0.99531 0.33034 0.0
C2667 C 0.58994 0.05665 0.31785 0.0
C2668 C 0.59682 0.09703 0.31834 0.0
C2669 C 0.58337 1.03613 0.33024 0.0
C2670 C 0.58743 0.11764 0.33058 0.0
C2671 C 0.57967 0.09751 0.3429 0.0
H2672 H 0.78304 0.85451 0.12033 0.0
H2673 H 0.89355 0.84742 0.09882 0.0
H2674 H 0.85974 0.835 1.07689 0.0
H2675 H 0.80038 0.8503 1.06376 0.0
H2676 H 0.69005 0.85982 1.08528 0.0
H2677 H 0.72228 0.84559 0.10739 0.0
C2678 C 0.79996 0.84822 0.11103 0.0
C2679 C 0.84057 0.85421 0.11099 0.0
C2680 C 0.78027 0.84251 0.0984 0.0
C2681 C 0.86202 0.84481 0.09892 0.0
C2682 C 0.8427 0.83785 1.08637 0.0
C2683 C 0.78293 0.84728 1.07314 0.0
C2684 C 0.74332 0.85831 1.07306 0.0
C2685 C 0.80186 0.84044 1.08585 0.0
C2686 C 0.72103 0.8532 1.08524 0.0
C2687 C 0.73945 0.84519 0.09789 0.0
H2688 H 0.60839 0.62335 0.85349 0.0
H2689 H 0.59368 0.51579 0.87617 0.0
H2690 H 0.58238 0.48105 0.8543 0.0
H2691 H 0.59687 0.47904 0.8292 0.0
H2692 H 0.62022 0.58646 0.80732 0.0
H2693 H 0.60544 0.62357 0.82821 0.0
C2694 C 0.60082 0.59269 0.85378 0.0
C2695 C 0.60345 0.57183 0.86636 0.0
C2696 C 0.59644 0.57269 0.84117 0.0
C2697 C 0.59309 0.5322 0.86652 0.0
C2698 C 0.58683 0.51231 0.85401 0.0
C2699 C 0.59769 0.51064 0.82893 0.0
C2700 C 0.61128 0.52978 0.8169 0.0
C2701 C 0.59177 0.53177 0.84127 0.0
C2702 C 0.61049 0.57077 0.81647 0.0
C2703 C 0.6025 0.59212 0.82851 0.0
H2704 H 0.81668 0.34785 1.06625 0.0
H2705 H 0.91871 0.37903 0.09011 0.0
H2706 H 0.88518 0.36167 0.11165 0.0
H2707 H 0.82142 0.3617 0.12293 0.0
H2708 H 0.7181 0.33525 0.09902 0.0
H2709 H 0.75803 0.3249 1.07826 0.0
C2710 C 0.83235 0.34893 1.07608 0.0
C2711 C 0.86929 0.36658 1.07673 0.0
C2712 C 0.81227 0.34058 1.08843 0.0
C2713 C 0.88956 0.36696 0.08948 0.0
C2714 C 0.87034 0.35719 0.1018 0.0
C2715 C 0.80766 0.35163 0.1134 0.0
C2716 C 0.7667 0.35153 0.11225 0.0
C2717 C 0.83059 0.34765 0.1014 0.0
C2718 C 0.74957 0.33728 0.09994 0.0
C2719 C 0.77237 0.3316 1.08805 0.0
H2720 H 1.00616 0.49631 0.35357 0.0
H2721 H 0.96774 0.59889 0.37589 0.0
H2722 H 0.97809 0.63844 0.3553 0.0
H2723 H 0.9748 0.63869 0.32999 0.0
H2724 H 1.00346 0.53458 0.30684 0.0
H2725 H 1.02012 0.501 0.32852 0.0
C2726 C 1.00112 0.52754 0.35401 0.0
C2727 C 0.98435 0.54419 0.36603 0.0
C2728 C 1.00415 0.54969 0.34179 0.0
C2729 C 0.97988 0.58494 0.36673 0.0
C2730 C 0.98527 0.60765 0.35484 0.0
C2731 C 0.98651 0.60928 0.32958 0.0
C2732 C 0.98647 0.5886 0.31692 0.0
C2733 C 0.99388 0.58964 0.34209 0.0
C2734 C 1.00209 0.55064 0.31656 0.0
C2735 C 1.01145 0.53141 0.32896 0.0
H2736 H 0.7121 0.51748 0.5813 0.0
H2737 H 0.82987 0.50052 0.56654 0.0
H2738 H 0.8521 0.4885 0.59039 0.0
H2739 H 0.84106 0.50319 0.61489 0.0
H2740 H 0.72512 0.53091 0.62952 0.0
H2741 H 0.69859 0.51695 0.60638 0.0
C2742 C 0.74226 0.50931 0.58327 0.0
C2743 C 0.76957 0.51043 0.57233 0.0
C2744 C 0.75512 0.50516 0.59705 0.0
C2745 C 0.80859 0.50014 0.57491 0.0
C2746 C 0.82126 0.49359 0.58854 0.0
C2747 C 0.80972 0.50428 0.61322 0.0
C2748 C 0.78511 0.51895 0.62375 0.0
C2749 C 0.7953 0.49902 0.5997 0.0
C2750 C 0.74461 0.52026 0.62146 0.0
C2751 C 0.72956 0.51267 0.6082 0.0
H2752 H 0.49367 0.62174 0.3536 0.0
H2753 H 0.50565 0.51356 0.37617 0.0
H2754 H 0.52029 0.47935 0.35443 0.0
H2755 H 0.5082 0.47798 0.32916 0.0
H2756 H 0.48713 0.58608 0.30731 0.0
H2757 H 0.50029 0.62261 0.32842 0.0
C2758 C 0.50139 0.59107 0.35394 0.0
C2759 C 0.49678 0.56984 0.36637 0.0
C2760 C 0.50767 0.57137 0.34136 0.0
C2761 C 0.50756 0.53023 0.3666 0.0
C2762 C 0.51576 0.51064 0.35416 0.0
C2763 C 0.50763 0.5096 0.32896 0.0
C2764 C 0.49482 0.52912 0.31687 0.0
C2765 C 0.51237 0.53042 0.34142 0.0
C2766 C 0.4961 0.57009 0.31651 0.0
C2767 C 0.50313 0.59113 0.32868 0.0
H2768 H 0.31659 0.75482 1.06717 0.0
H2769 H 0.42101 0.72003 1.08916 0.0
H2770 H 0.39074 0.73763 0.11131 0.0
H2771 H 0.32876 0.7403 0.12373 0.0
H2772 H 0.22324 0.77199 0.10179 0.0
H2773 H 0.26038 0.77992 1.08028 0.0
C2774 C 0.33349 0.75291 1.07672 0.0
C2775 C 0.37017 0.73433 1.07666 0.0
C2776 C 0.31537 0.76175 0.08944 0.0
C2777 C 0.39202 0.73281 1.08907 0.0
C2778 C 0.37469 0.74279 0.10174 0.0
C2779 C 0.31399 0.75094 0.11447 0.0
C2780 C 0.27296 0.75321 0.11412 0.0
C2781 C 0.33525 0.75384 0.10205 0.0
C2782 C 0.25466 0.76819 0.10211 0.0
C2783 C 0.27585 0.77253 0.08979 0.0
H2784 H 0.10004 0.54036 0.80955 0.0
H2785 H 0.09653 0.6509 0.831 0.0
H2786 H 0.08324 0.61772 0.85296 0.0
H2787 H 0.09799 0.55827 0.86608 0.0
H2788 H 0.10448 0.44789 0.84462 0.0
H2789 H 0.0896 0.48007 0.82257 0.0
C2790 C 0.0943 0.55748 0.81885 0.0
C2791 C 0.10169 0.59777 0.81888 0.0
C2792 C 0.08821 0.53808 0.83151 0.0
C2793 C 0.09287 0.61954 0.83092 0.0
C2794 C 0.08545 0.60057 0.84349 0.0
C2795 C 0.0941 0.54085 0.85675 0.0
C2796 C 0.10464 0.50119 0.85677 0.0
C2797 C 0.08704 0.55977 0.84405 0.0
C2798 C 0.09829 0.47889 0.84467 0.0
C2799 C 0.08994 0.4973 0.83205 0.0
H2800 H 0.32864 0.36932 0.55071 0.0
H2801 H 0.22705 0.32823 0.57283 0.0
H2802 H 0.26534 0.32301 0.59422 0.0
H2803 H 0.31963 0.35193 0.6073 0.0
H2804 H 0.41936 0.39689 0.58511 0.0
H2805 H 0.39018 0.37764 0.56296 0.0
C2806 C 0.31515 0.35727 0.55998 0.0
C2807 C 0.27453 0.35133 0.56041 0.0
C2808 C 0.33686 0.35608 0.57233 0.0
C2809 C 0.25798 0.33472 0.57244 0.0
C2810 C 0.27981 0.33195 0.5847 0.0
C2811 C 0.33583 0.35581 0.59768 0.0
C2812 C 0.3707 0.37729 0.59771 0.0
C2813 C 0.31817 0.34606 0.58497 0.0
C2814 C 0.39173 0.3816 0.58522 0.0
C2815 C 0.37502 0.37068 0.57257 0.0
loop_
_geom_bond_atom_site_label_1
_geom_bond_atom_site_label_2
_geom_bond_distance
_geom_bond_site_symmetry_2
_ccdc_geom_bond_type
Ho0 C3 2.811 . S
Ho0 O20 2.322 . S
Ho0 O22 2.378 . S
Ho0 O23 2.524 . S
Ho0 O24 2.381 . S
Ho0 O25 2.669 . S
Ho0 O27 2.346 . S
Ho0 O31 2.305 . S
Ho1 C12 2.811 . S
Ho1 O21 2.346 . S
Ho1 O25 2.305 . S
Ho1 O26 2.322 . S
Ho1 O28 2.378 . S
Ho1 O29 2.524 . S
Ho1 O30 2.381 . S
Ho1 O31 2.669 . S
C2 O20 1.259 . S
C2 O21 1.268 . S
C3 Ho0 2.811 . S
C3 C4 1.488 . S
C3 O22 1.215 . S
C3 O23 1.289 . S
C4 C3 1.488 . S
C4 C5 1.348 . S
C4 C9 1.413 . S
C5 C4 1.348 . S
C5 C6 1.442 . S
C5 H32 0.930 . S
C6 C5 1.442 . S
C6 C7 1.381 . S
C6 H33 0.931 . S
C7 C6 1.381 . S
C7 C8 1.321 . S
C8 C7 1.321 . S
C8 C9 1.403 . S
C8 H34 0.934 . S
C9 C4 1.413 . S
C9 C8 1.403 . S
C9 H35 0.930 . S
C10 O24 1.275 . S
C10 O25 1.256 . S
C11 O26 1.259 . S
C11 O27 1.268 . S
C12 Ho1 2.811 . S
C12 C13 1.488 . S
C12 O28 1.215 . S
C12 O29 1.289 . S
C13 C12 1.488 . S
C13 C14 1.348 . S
C13 C18 1.413 . S
C14 C13 1.348 . S
C14 C15 1.442 . S
C14 H36 0.930 . S
C15 C14 1.442 . S
C15 C16 1.381 . S
C15 H37 0.931 . S
C16 C15 1.381 . S
C16 C17 1.321 . S
C17 C16 1.321 . S
C17 C18 1.403 . S
C17 H38 0.934 . S
C18 C13 1.413 . S
C18 C17 1.403 . S
C18 H39 0.930 . S
C19 O30 1.275 . S
C19 O31 1.256 . S
O20 Ho0 2.322 . S
O20 C2 1.259 . S
O21 Ho1 2.346 . S
O21 C2 1.268 . S
O22 Ho0 2.378 . S
O22 C3 1.215 . S
O23 Ho0 2.524 . S
O23 C3 1.289 . S
O24 Ho0 2.381 . S
O24 C10 1.275 . S
O25 Ho0 2.669 . S
O25 Ho1 2.305 . S
O25 C10 1.256 . S
O26 Ho1 2.322 . S
O26 C11 1.259 . S
O27 Ho0 2.346 . S
O27 C11 1.268 . S
O28 Ho1 2.378 . S
O28 C12 1.215 . S
O29 Ho1 2.524 . S
O29 C12 1.289 . S
O30 Ho1 2.381 . S
O30 C19 1.275 . S
O31 Ho0 2.305 . S
O31 Ho1 2.669 . S
O31 C19 1.256 . S
H32 C5 0.930 . S
H33 C6 0.931 . S
H34 C8 0.934 . S
H35 C9 0.930 . S
H36 C14 0.930 . S
H37 C15 0.931 . S
H38 C17 0.934 . S
H39 C18 0.930 . S
Ho40 C43 2.811 . S
Ho40 O60 2.322 1_655 S
Ho40 O62 2.378 . S
Ho40 O63 2.524 . S
Ho40 O64 2.381 1_665 S
Ho40 O65 2.669 1_655 S
Ho40 O67 2.346 . S
Ho40 O71 2.305 1_655 S
Ho41 C52 2.811 . S
Ho41 O61 2.346 . S
Ho41 O65 2.305 . S
Ho41 O66 2.322 . S
Ho41 O68 2.378 . S
Ho41 O69 2.524 . S
Ho41 O70 2.381 . S
Ho41 O71 2.669 . S
C42 O60 1.259 . S
C42 O61 1.268 . S
C43 Ho40 2.811 . S
C43 C44 1.488 . S
C43 O62 1.215 . S
C43 O63 1.289 . S
C44 C43 1.488 . S
C44 C45 1.348 . S
C44 C49 1.413 . S
C45 C44 1.348 . S
C45 C46 1.442 . S
C45 H72 0.930 . S
C46 C45 1.442 . S
C46 C47 1.381 . S
C46 H73 0.931 . S
C47 C46 1.381 . S
C47 C48 1.321 . S
C48 C47 1.321 . S
C48 C49 1.403 . S
C48 H74 0.934 . S
C49 C44 1.413 . S
C49 C48 1.403 . S
C49 H75 0.930 . S
C50 O64 1.275 . S
C50 O65 1.256 1_545 S
C51 O66 1.259 . S
C51 O67 1.268 1_455 S
C52 Ho41 2.811 . S
C52 C53 1.488 . S
C52 O68 1.215 . S
C52 O69 1.289 . S
C53 C52 1.488 . S
C53 C54 1.370 . S
C53 C58 1.413 . S
C54 C53 1.370 . S
C54 C55 1.437 1_565 S
C54 H76 0.913 1_565 S
C55 C54 1.437 1_545 S
C55 C56 1.381 1_545 S
C55 H77 0.931 . S
C56 C55 1.381 1_565 S
C56 C57 1.321 . S
C57 C56 1.321 . S
C57 C58 1.403 . S
C57 H78 0.934 . S
C58 C53 1.413 . S
C58 C57 1.403 . S
C58 H79 0.930 . S
C59 O70 1.275 . S
C59 O71 1.256 . S
O60 Ho40 2.322 1_455 S
O60 C42 1.259 . S
O61 Ho41 2.346 . S
O61 C42 1.268 . S
O62 Ho40 2.378 . S
O62 C43 1.215 . S
O63 Ho40 2.524 . S
O63 C43 1.289 . S
O64 Ho40 2.381 1_445 S
O64 C50 1.275 . S
O65 Ho40 2.669 1_455 S
O65 Ho41 2.305 . S
O65 C50 1.256 1_565 S
O66 Ho41 2.322 . S
O66 C51 1.259 . S
O67 Ho40 2.346 . S
O67 C51 1.268 1_655 S
O68 Ho41 2.378 . S
O68 C52 1.215 . S
O69 Ho41 2.524 . S
O69 C52 1.289 . S
O70 Ho41 2.381 . S
O70 C59 1.275 . S
O71 Ho40 2.305 1_455 S
O71 Ho41 2.669 . S
O71 C59 1.256 . S
H72 C45 0.930 . S
H73 C46 0.931 . S
H74 C48 0.934 . S
H75 C49 0.930 . S
H76 C54 0.913 1_545 S
H77 C55 0.931 . S
H78 C57 0.934 . S
H79 C58 0.930 . S
Ho80 C83 2.811 . S
Ho80 O100 2.322 . S
Ho80 O102 2.378 . S
Ho80 O103 2.524 . S
Ho80 O104 2.381 . S
Ho80 O105 2.669 . S
Ho80 O107 2.346 . S
Ho80 O111 2.305 . S
Ho81 C92 2.811 . S
Ho81 O101 2.346 . S
Ho81 O105 2.305 . S
Ho81 O106 2.322 . S
Ho81 O108 2.378 . S
Ho81 O109 2.524 . S
Ho81 O110 2.381 . S
Ho81 O111 2.669 . S
C82 O100 1.259 . S
C82 O101 1.268 . S
C83 Ho80 2.811 . S
C83 C84 1.488 . S
C83 O102 1.215 . S
C83 O103 1.289 . S
C84 C83 1.488 . S
C84 C85 1.348 . S
C84 C89 1.413 . S
C85 C84 1.348 . S
C85 C86 1.442 . S
C85 H112 0.930 . S
C86 C85 1.442 . S
C86 C87 1.381 . S
C86 H113 0.931 . S
C87 C86 1.381 . S
C87 C88 1.321 . S
C88 C87 1.321 . S
C88 C89 1.403 . S
C88 H114 0.934 . S
C89 C84 1.413 . S
C89 C88 1.403 . S
C89 H115 0.930 . S
C90 O104 1.275 . S
C90 O105 1.256 . S
C91 O106 1.259 . S
C91 O107 1.268 . S
C92 Ho81 2.811 . S
C92 C93 1.488 . S
C92 O108 1.215 . S
C92 O109 1.289 . S
C93 C92 1.488 . S
C93 C94 1.348 . S
C93 C98 1.413 . S
C94 C93 1.348 . S
C94 C95 1.442 . S
C94 H116 0.930 . S
C95 C94 1.442 . S
C95 C96 1.381 . S
C95 H117 0.931 . S
C96 C95 1.381 . S
C96 C97 1.321 . S
C97 C96 1.321 . S
C97 C98 1.403 . S
C97 H118 0.934 . S
C98 C93 1.413 . S
C98 C97 1.403 . S
C98 H119 0.930 . S
C99 O110 1.275 . S
C99 O111 1.256 . S
O100 Ho80 2.322 . S
O100 C82 1.259 . S
O101 Ho81 2.346 . S
O101 C82 1.268 . S
O102 Ho80 2.378 . S
O102 C83 1.215 . S
O103 Ho80 2.524 . S
O103 C83 1.289 . S
O104 Ho80 2.381 . S
O104 C90 1.275 . S
O105 Ho80 2.669 . S
O105 Ho81 2.305 . S
O105 C90 1.256 . S
O106 Ho81 2.322 . S
O106 C91 1.259 . S
O107 Ho80 2.346 . S
O107 C91 1.268 . S
O108 Ho81 2.378 . S
O108 C92 1.215 . S
O109 Ho81 2.524 . S
O109 C92 1.289 . S
O110 Ho81 2.381 . S
O110 C99 1.275 . S
O111 Ho80 2.305 . S
O111 Ho81 2.669 . S
O111 C99 1.256 . S
H112 C85 0.930 . S
H113 C86 0.931 . S
H114 C88 0.934 . S
H115 C89 0.930 . S
H116 C94 0.930 . S
H117 C95 0.931 . S
H118 C97 0.934 . S
H119 C98 0.930 . S
Ho120 C123 2.811 . S
Ho120 O140 2.322 . S
Ho120 O142 2.378 . S
Ho120 O143 2.524 . S
Ho120 O144 2.381 1_545 S
Ho120 O145 2.669 . S
Ho120 O147 2.346 . S
Ho120 O151 2.305 . S
Ho121 C132 2.811 . S
Ho121 O141 2.346 . S
Ho121 O145 2.305 . S
Ho121 O146 2.322 . S
Ho121 O148 2.378 . S
Ho121 O149 2.524 . S
Ho121 O150 2.381 . S
Ho121 O151 2.669 . S
C122 O140 1.259 . S
C122 O141 1.268 . S
C123 Ho120 2.811 . S
C123 C124 1.488 . S
C123 O142 1.215 . S
C123 O143 1.289 . S
C124 C123 1.488 . S
C124 C125 1.348 . S
C124 C129 1.413 . S
C125 C124 1.348 . S
C125 C126 1.442 . S
C125 H152 0.930 . S
C126 C125 1.442 . S
C126 C127 1.381 . S
C126 H153 0.931 . S
C127 C126 1.381 . S
C127 C128 1.321 . S
C128 C127 1.321 . S
C128 C129 1.403 . S
C128 H154 0.934 . S
C129 C124 1.413 . S
C129 C128 1.403 . S
C129 H155 0.930 . S
C130 O144 1.275 . S
C130 O145 1.256 1_565 S
C131 O146 1.259 . S
C131 O147 1.268 . S
C132 Ho121 2.811 . S
C132 C133 1.488 . S
C132 O148 1.215 . S
C132 O149 1.289 . S
C133 C132 1.488 . S
C133 C134 1.370 . S
C133 C138 1.413 . S
C134 C133 1.370 . S
C134 C135 1.437 1_545 S
C134 H156 0.913 1_545 S
C135 C134 1.437 1_565 S
C135 C136 1.381 1_565 S
C135 H157 0.931 . S
C136 C135 1.381 1_545 S
C136 C137 1.321 . S
C137 C136 1.321 . S
C137 C138 1.403 . S
C137 H158 0.934 . S
C138 C133 1.413 . S
C138 C137 1.403 . S
C138 H159 0.930 . S
C139 O150 1.275 . S
C139 O151 1.256 . S
O140 Ho120 2.322 . S
O140 C122 1.259 . S
O141 Ho121 2.346 . S
O141 C122 1.268 . S
O142 Ho120 2.378 . S
O142 C123 1.215 . S
O143 Ho120 2.524 . S
O143 C123 1.289 . S
O144 Ho120 2.381 1_565 S
O144 C130 1.275 . S
O145 Ho120 2.669 . S
O145 Ho121 2.305 . S
O145 C130 1.256 1_545 S
O146 Ho121 2.322 . S
O146 C131 1.259 . S
O147 Ho120 2.346 . S
O147 C131 1.268 . S
O148 Ho121 2.378 . S
O148 C132 1.215 . S
O149 Ho121 2.524 . S
O149 C132 1.289 . S
O150 Ho121 2.381 . S
O150 C139 1.275 . S
O151 Ho120 2.305 . S
O151 Ho121 2.669 . S
O151 C139 1.256 . S
H152 C125 0.930 . S
H153 C126 0.931 . S
H154 C128 0.934 . S
H155 C129 0.930 . S
H156 C134 0.913 1_565 S
H157 C135 0.931 . S
H158 C137 0.934 . S
H159 C138 0.930 . S
Ho160 C163 2.811 . S
Ho160 O180 2.322 . S
Ho160 O182 2.378 . S
Ho160 O183 2.524 . S
Ho160 O184 2.381 . S
Ho160 O185 2.669 . S
Ho160 O187 2.346 . S
Ho160 O191 2.305 . S
Ho161 C172 2.811 . S
Ho161 O181 2.346 . S
Ho161 O185 2.305 . S
Ho161 O186 2.322 . S
Ho161 O188 2.378 . S
Ho161 O189 2.524 . S
Ho161 O190 2.381 . S
Ho161 O191 2.669 . S
C162 O180 1.259 . S
C162 O181 1.268 . S
C163 Ho160 2.811 . S
C163 C164 1.488 . S
C163 O182 1.215 . S
C163 O183 1.289 . S
C164 C163 1.488 . S
C164 C165 1.348 . S
C164 C169 1.413 . S
C165 C164 1.348 . S
C165 C166 1.442 . S
C165 H192 0.930 . S
C166 C165 1.442 . S
C166 C167 1.381 . S
C166 H193 0.931 . S
C167 C166 1.381 . S
C167 C168 1.321 . S
C168 C167 1.321 . S
C168 C169 1.403 . S
C168 H194 0.934 . S
C169 C164 1.413 . S
C169 C168 1.403 . S
C169 H195 0.930 . S
C170 O184 1.275 . S
C170 O185 1.256 . S
C171 O186 1.259 . S
C171 O187 1.268 . S
C172 Ho161 2.811 . S
C172 C173 1.488 . S
C172 O188 1.215 . S
C172 O189 1.289 . S
C173 C172 1.488 . S
C173 C174 1.348 . S
C173 C178 1.413 . S
C174 C173 1.348 . S
C174 C175 1.442 . S
C174 H196 0.930 . S
C175 C174 1.442 . S
C175 C176 1.381 . S
C175 H197 0.931 . S
C176 C175 1.381 . S
C176 C177 1.321 . S
C177 C176 1.321 . S
C177 C178 1.403 . S
C177 H198 0.934 . S
C178 C173 1.413 . S
C178 C177 1.403 . S
C178 H199 0.930 . S
C179 O190 1.275 . S
C179 O191 1.256 . S
O180 Ho160 2.322 . S
O180 C162 1.259 . S
O181 Ho161 2.346 . S
O181 C162 1.268 . S
O182 Ho160 2.378 . S
O182 C163 1.215 . S
O183 Ho160 2.524 . S
O183 C163 1.289 . S
O184 Ho160 2.381 . S
O184 C170 1.275 . S
O185 Ho160 2.669 . S
O185 Ho161 2.305 . S
O185 C170 1.256 . S
O186 Ho161 2.322 . S
O186 C171 1.259 . S
O187 Ho160 2.346 . S
O187 C171 1.268 . S
O188 Ho161 2.378 . S
O188 C172 1.215 . S
O189 Ho161 2.524 . S
O189 C172 1.289 . S
O190 Ho161 2.381 . S
O190 C179 1.275 . S
O191 Ho160 2.305 . S
O191 Ho161 2.669 . S
O191 C179 1.256 . S
H192 C165 0.930 . S
H193 C166 0.931 . S
H194 C168 0.934 . S
H195 C169 0.930 . S
H196 C174 0.930 . S
H197 C175 0.931 . S
H198 C177 0.934 . S
H199 C178 0.930 . S
Ho200 C203 2.811 . S
Ho200 O220 2.322 . S
Ho200 O222 2.378 . S
Ho200 O223 2.524 . S
Ho200 O224 2.381 1_565 S
Ho200 O225 2.669 . S
Ho200 O227 2.346 . S
Ho200 O231 2.305 . S
Ho201 C212 2.811 . S
Ho201 O221 2.346 . S
Ho201 O225 2.305 . S
Ho201 O226 2.322 . S
Ho201 O228 2.378 . S
Ho201 O229 2.524 . S
Ho201 O230 2.381 . S
Ho201 O231 2.669 . S
C202 O220 1.259 . S
C202 O221 1.268 . S
C203 Ho200 2.811 . S
C203 C204 1.488 . S
C203 O222 1.215 . S
C203 O223 1.289 . S
C204 C203 1.488 . S
C204 C205 1.348 . S
C204 C209 1.413 . S
C205 C204 1.348 . S
C205 C206 1.442 . S
C205 H232 0.930 . S
C206 C205 1.442 . S
C206 C207 1.381 . S
C206 H233 0.931 . S
C207 C206 1.381 . S
C207 C208 1.321 . S
C208 C207 1.321 . S
C208 C209 1.403 . S
C208 H234 0.934 . S
C209 C204 1.413 . S
C209 C208 1.403 . S
C209 H235 0.930 . S
C210 O224 1.275 . S
C210 O225 1.256 1_545 S
C211 O226 1.259 . S
C211 O227 1.268 . S
C212 Ho201 2.811 . S
C212 C213 1.488 . S
C212 O228 1.215 . S
C212 O229 1.289 . S
C213 C212 1.488 . S
C213 C214 1.370 . S
C213 C218 1.413 . S
C214 C213 1.370 . S
C214 C215 1.437 1_565 S
C214 H236 0.913 1_565 S
C215 C214 1.437 1_545 S
C215 C216 1.381 1_545 S
C215 H237 0.931 . S
C216 C215 1.381 1_565 S
C216 C217 1.321 . S
C217 C216 1.321 . S
C217 C218 1.403 . S
C217 H238 0.934 . S
C218 C213 1.413 . S
C218 C217 1.403 . S
C218 H239 0.930 . S
C219 O230 1.275 . S
C219 O231 1.256 . S
O220 Ho200 2.322 . S
O220 C202 1.259 . S
O221 Ho201 2.346 . S
O221 C202 1.268 . S
O222 Ho200 2.378 . S
O222 C203 1.215 . S
O223 Ho200 2.524 . S
O223 C203 1.289 . S
O224 Ho200 2.381 1_545 S
O224 C210 1.275 . S
O225 Ho200 2.669 . S
O225 Ho201 2.305 . S
O225 C210 1.256 1_565 S
O226 Ho201 2.322 . S
O226 C211 1.259 . S
O227 Ho200 2.346 . S
O227 C211 1.268 . S
O228 Ho201 2.378 . S
O228 C212 1.215 . S
O229 Ho201 2.524 . S
O229 C212 1.289 . S
O230 Ho201 2.381 . S
O230 C219 1.275 . S
O231 Ho200 2.305 . S
O231 Ho201 2.669 . S
O231 C219 1.256 . S
H232 C205 0.930 . S
H233 C206 0.931 . S
H234 C208 0.934 . S
H235 C209 0.930 . S
H236 C214 0.913 1_545 S
H237 C215 0.931 . S
H238 C217 0.934 . S
H239 C218 0.930 . S
Ho240 C243 2.811 . S
Ho240 O260 2.322 . S
Ho240 O262 2.378 . S
Ho240 O263 2.524 . S
Ho240 O264 2.381 . S
Ho240 O265 2.669 . S
Ho240 O267 2.346 . S
Ho240 O271 2.305 . S
Ho241 C252 2.811 . S
Ho241 O261 2.346 . S
Ho241 O265 2.305 . S
Ho241 O266 2.322 . S
Ho241 O268 2.378 . S
Ho241 O269 2.524 . S
Ho241 O270 2.381 . S
Ho241 O271 2.669 . S
C242 O260 1.259 . S
C242 O261 1.268 . S
C243 Ho240 2.811 . S
C243 C244 1.488 . S
C243 O262 1.215 . S
C243 O263 1.289 . S
C244 C243 1.488 . S
C244 C245 1.348 . S
C244 C249 1.413 . S
C245 C244 1.348 . S
C245 C246 1.442 . S
C245 H272 0.930 . S
C246 C245 1.442 . S
C246 C247 1.381 . S
C246 H273 0.931 . S
C247 C246 1.381 . S
C247 C248 1.321 . S
C248 C247 1.321 . S
C248 C249 1.403 . S
C248 H274 0.934 . S
C249 C244 1.413 . S
C249 C248 1.403 . S
C249 H275 0.930 . S
C250 O264 1.275 . S
C250 O265 1.256 . S
C251 O266 1.259 . S
C251 O267 1.268 . S
C252 Ho241 2.811 . S
C252 C253 1.488 . S
C252 O268 1.215 . S
C252 O269 1.289 . S
C253 C252 1.488 . S
C253 C254 1.348 . S
C253 C258 1.413 . S
C254 C253 1.348 . S
C254 C255 1.442 . S
C254 H276 0.930 . S
C255 C254 1.442 . S
C255 C256 1.381 . S
C255 H277 0.931 . S
C256 C255 1.381 . S
C256 C257 1.321 . S
C257 C256 1.321 . S
C257 C258 1.403 . S
C257 H278 0.934 . S
C258 C253 1.413 . S
C258 C257 1.403 . S
C258 H279 0.930 . S
C259 O270 1.275 . S
C259 O271 1.256 . S
O260 Ho240 2.322 . S
O260 C242 1.259 . S
O261 Ho241 2.346 . S
O261 C242 1.268 . S
O262 Ho240 2.378 . S
O262 C243 1.215 . S
O263 Ho240 2.524 . S
O263 C243 1.289 . S
O264 Ho240 2.381 . S
O264 C250 1.275 . S
O265 Ho240 2.669 . S
O265 Ho241 2.305 . S
O265 C250 1.256 . S
O266 Ho241 2.322 . S
O266 C251 1.259 . S
O267 Ho240 2.346 . S
O267 C251 1.268 . S
O268 Ho241 2.378 . S
O268 C252 1.215 . S
O269 Ho241 2.524 . S
O269 C252 1.289 . S
O270 Ho241 2.381 . S
O270 C259 1.275 . S
O271 Ho240 2.305 . S
O271 Ho241 2.669 . S
O271 C259 1.256 . S
H272 C245 0.930 . S
H273 C246 0.931 . S
H274 C248 0.934 . S
H275 C249 0.930 . S
H276 C254 0.930 . S
H277 C255 0.931 . S
H278 C257 0.934 . S
H279 C258 0.930 . S
Ho280 C283 2.811 . S
Ho280 O300 2.322 1_655 S
Ho280 O302 2.378 . S
Ho280 O303 2.524 . S
Ho280 O304 2.381 1_645 S
Ho280 O305 2.669 1_655 S
Ho280 O307 2.346 . S
Ho280 O311 2.305 1_655 S
Ho281 C292 2.811 . S
Ho281 O301 2.346 . S
Ho281 O305 2.305 . S
Ho281 O306 2.322 . S
Ho281 O308 2.378 . S
Ho281 O309 2.524 . S
Ho281 O310 2.381 . S
Ho281 O311 2.669 . S
C282 O300 1.259 . S
C282 O301 1.268 . S
C283 Ho280 2.811 . S
C283 C284 1.488 . S
C283 O302 1.215 . S
C283 O303 1.289 . S
C284 C283 1.488 . S
C284 C285 1.348 . S
C284 C289 1.413 . S
C285 C284 1.348 . S
C285 C286 1.442 . S
C285 H312 0.930 . S
C286 C285 1.442 . S
C286 C287 1.381 . S
C286 H313 0.931 . S
C287 C286 1.381 . S
C287 C288 1.321 . S
C288 C287 1.321 . S
C288 C289 1.403 . S
C288 H314 0.934 . S
C289 C284 1.413 . S
C289 C288 1.403 . S
C289 H315 0.930 . S
C290 O304 1.275 . S
C290 O305 1.256 1_565 S
C291 O306 1.259 . S
C291 O307 1.268 1_455 S
C292 Ho281 2.811 . S
C292 C293 1.488 . S
C292 O308 1.215 . S
C292 O309 1.289 . S
C293 C292 1.488 . S
C293 C294 1.370 . S
C293 C298 1.413 . S
C294 C293 1.370 . S
C294 C295 1.437 1_545 S
C294 H316 0.913 1_545 S
C295 C294 1.437 1_565 S
C295 C296 1.381 1_565 S
C295 H317 0.931 . S
C296 C295 1.381 1_545 S
C296 C297 1.321 . S
C297 C296 1.321 . S
C297 C298 1.403 . S
C297 H318 0.934 . S
C298 C293 1.413 . S
C298 C297 1.403 . S
C298 H319 0.930 . S
C299 O310 1.275 . S
C299 O311 1.256 . S
O300 Ho280 2.322 1_455 S
O300 C282 1.259 . S
O301 Ho281 2.346 . S
O301 C282 1.268 . S
O302 Ho280 2.378 . S
O302 C283 1.215 . S
O303 Ho280 2.524 . S
O303 C283 1.289 . S
O304 Ho280 2.381 1_465 S
O304 C290 1.275 . S
O305 Ho280 2.669 1_455 S
O305 Ho281 2.305 . S
O305 C290 1.256 1_545 S
O306 Ho281 2.322 . S
O306 C291 1.259 . S
O307 Ho280 2.346 . S
O307 C291 1.268 1_655 S
O308 Ho281 2.378 . S
O308 C292 1.215 . S
O309 Ho281 2.524 . S
O309 C292 1.289 . S
O310 Ho281 2.381 . S
O310 C299 1.275 . S
O311 Ho280 2.305 1_455 S
O311 Ho281 2.669 . S
O311 C299 1.256 . S
H312 C285 0.930 . S
H313 C286 0.931 . S
H314 C288 0.934 . S
H315 C289 0.930 . S
H316 C294 0.913 1_565 S
H317 C295 0.931 . S
H318 C297 0.934 . S
H319 C298 0.930 . S
Ho320 C323 2.811 . S
Ho320 O340 2.322 . S
Ho320 O342 2.378 . S
Ho320 O343 2.524 . S
Ho320 O344 2.381 . S
Ho320 O345 2.669 . S
Ho320 O347 2.346 . S
Ho320 O351 2.305 . S
Ho321 C332 2.811 . S
Ho321 O341 2.346 . S
Ho321 O345 2.305 . S
Ho321 O346 2.322 . S
Ho321 O348 2.378 . S
Ho321 O349 2.524 . S
Ho321 O350 2.381 . S
Ho321 O351 2.669 . S
C322 O340 1.259 . S
C322 O341 1.268 . S
C323 Ho320 2.811 . S
C323 C324 1.488 . S
C323 O342 1.215 . S
C323 O343 1.289 . S
C324 C323 1.488 . S
C324 C325 1.348 . S
C324 C329 1.413 . S
C325 C324 1.348 . S
C325 C326 1.442 . S
C325 H352 0.930 . S
C326 C325 1.442 . S
C326 C327 1.381 . S
C326 H353 0.931 . S
C327 C326 1.381 . S
C327 C328 1.321 . S
C328 C327 1.321 . S
C328 C329 1.403 . S
C328 H354 0.934 . S
C329 C324 1.413 . S
C329 C328 1.403 . S
C329 H355 0.930 . S
C330 O344 1.275 . S
C330 O345 1.256 . S
C331 O346 1.259 . S
C331 O347 1.268 . S
C332 Ho321 2.811 . S
C332 C333 1.488 . S
C332 O348 1.215 . S
C332 O349 1.289 . S
C333 C332 1.488 . S
C333 C334 1.348 . S
C333 C338 1.413 . S
C334 C333 1.348 . S
C334 C335 1.442 . S
C334 H356 0.930 . S
C335 C334 1.442 . S
C335 C336 1.381 . S
C335 H357 0.931 . S
C336 C335 1.381 . S
C336 C337 1.321 . S
C337 C336 1.321 . S
C337 C338 1.403 . S
C337 H358 0.934 . S
C338 C333 1.413 . S
C338 C337 1.403 . S
C338 H359 0.930 . S
C339 O350 1.275 . S
C339 O351 1.256 . S
O340 Ho320 2.322 . S
O340 C322 1.259 . S
O341 Ho321 2.346 . S
O341 C322 1.268 . S
O342 Ho320 2.378 . S
O342 C323 1.215 . S
O343 Ho320 2.524 . S
O343 C323 1.289 . S
O344 Ho320 2.381 . S
O344 C330 1.275 . S
O345 Ho320 2.669 . S
O345 Ho321 2.305 . S
O345 C330 1.256 . S
O346 Ho321 2.322 . S
O346 C331 1.259 . S
O347 Ho320 2.346 . S
O347 C331 1.268 . S
O348 Ho321 2.378 . S
O348 C332 1.215 . S
O349 Ho321 2.524 . S
O349 C332 1.289 . S
O350 Ho321 2.381 . S
O350 C339 1.275 . S
O351 Ho320 2.305 . S
O351 Ho321 2.669 . S
O351 C339 1.256 . S
H352 C325 0.930 . S
H353 C326 0.931 . S
H354 C328 0.934 . S
H355 C329 0.930 . S
H356 C334 0.930 . S
H357 C335 0.931 . S
H358 C337 0.934 . S
H359 C338 0.930 . S
Ho360 C363 2.811 . S
Ho360 O380 2.322 . S
Ho360 O382 2.378 . S
Ho360 O383 2.524 . S
Ho360 O384 2.381 . S
Ho360 O385 2.669 . S
Ho360 O387 2.346 . S
Ho360 O391 2.305 . S
Ho361 C372 2.811 . S
Ho361 O381 2.346 . S
Ho361 O385 2.305 1_455 S
Ho361 O386 2.322 1_455 S
Ho361 O388 2.378 . S
Ho361 O389 2.524 . S
Ho361 O390 2.381 1_445 S
Ho361 O391 2.669 1_455 S
C362 O380 1.259 . S
C362 O381 1.268 1_655 S
C363 Ho360 2.811 . S
C363 C364 1.488 . S
C363 O382 1.215 . S
C363 O383 1.289 . S
C364 C363 1.488 . S
C364 C365 1.370 . S
C364 C369 1.413 . S
C365 C364 1.370 . S
C365 C366 1.437 1_545 S
C365 H392 0.913 1_545 S
C366 C365 1.437 1_565 S
C366 C367 1.381 1_565 S
C366 H393 0.931 . S
C367 C366 1.381 1_545 S
C367 C368 1.321 . S
C368 C367 1.321 . S
C368 C369 1.403 . S
C368 H394 0.934 . S
C369 C364 1.413 . S
C369 C368 1.403 . S
C369 H395 0.930 . S
C370 O384 1.275 . S
C370 O385 1.256 . S
C371 O386 1.259 . S
C371 O387 1.268 . S
C372 Ho361 2.811 . S
C372 C373 1.488 . S
C372 O388 1.215 . S
C372 O389 1.289 . S
C373 C372 1.488 . S
C373 C374 1.348 . S
C373 C378 1.413 . S
C374 C373 1.348 . S
C374 C375 1.442 . S
C374 H396 0.930 . S
C375 C374 1.442 . S
C375 C376 1.381 . S
C375 H397 0.931 . S
C376 C375 1.381 . S
C376 C377 1.321 . S
C377 C376 1.321 . S
C377 C378 1.403 . S
C377 H398 0.934 . S
C378 C373 1.413 . S
C378 C377 1.403 . S
C378 H399 0.930 . S
C379 O390 1.275 . S
C379 O391 1.256 1_565 S
O380 Ho360 2.322 . S
O380 C362 1.259 . S
O381 Ho361 2.346 . S
O381 C362 1.268 1_455 S
O382 Ho360 2.378 . S
O382 C363 1.215 . S
O383 Ho360 2.524 . S
O383 C363 1.289 . S
O384 Ho360 2.381 . S
O384 C370 1.275 . S
O385 Ho360 2.669 . S
O385 Ho361 2.305 1_655 S
O385 C370 1.256 . S
O386 Ho361 2.322 1_655 S
O386 C371 1.259 . S
O387 Ho360 2.346 . S
O387 C371 1.268 . S
O388 Ho361 2.378 . S
O388 C372 1.215 . S
O389 Ho361 2.524 . S
O389 C372 1.289 . S
O390 Ho361 2.381 1_665 S
O390 C379 1.275 . S
O391 Ho360 2.305 . S
O391 Ho361 2.669 1_655 S
O391 C379 1.256 1_545 S
H392 C365 0.913 1_565 S
H393 C366 0.931 . S
H394 C368 0.934 . S
H395 C369 0.930 . S
H396 C374 0.930 . S
H397 C375 0.931 . S
H398 C377 0.934 . S
H399 C378 0.930 . S
Ho400 C403 2.811 . S
Ho400 O420 2.322 . S
Ho400 O422 2.378 . S
Ho400 O423 2.524 . S
Ho400 O424 2.381 . S
Ho400 O425 2.669 . S
Ho400 O427 2.346 . S
Ho400 O431 2.305 . S
Ho401 C412 2.811 . S
Ho401 O421 2.346 . S
Ho401 O425 2.305 . S
Ho401 O426 2.322 . S
Ho401 O428 2.378 . S
Ho401 O429 2.524 . S
Ho401 O430 2.381 . S
Ho401 O431 2.669 . S
C402 O420 1.259 . S
C402 O421 1.268 . S
C403 Ho400 2.811 . S
C403 C404 1.488 . S
C403 O422 1.215 . S
C403 O423 1.289 . S
C404 C403 1.488 . S
C404 C405 1.348 . S
C404 C409 1.413 . S
C405 C404 1.348 . S
C405 C406 1.442 . S
C405 H432 0.930 . S
C406 C405 1.442 . S
C406 C407 1.381 . S
C406 H433 0.931 . S
C407 C406 1.381 . S
C407 C408 1.321 . S
C408 C407 1.321 . S
C408 C409 1.403 . S
C408 H434 0.934 . S
C409 C404 1.413 . S
C409 C408 1.403 . S
C409 H435 0.930 . S
C410 O424 1.275 . S
C410 O425 1.256 . S
C411 O426 1.259 . S
C411 O427 1.268 . S
C412 Ho401 2.811 . S
C412 C413 1.488 . S
C412 O428 1.215 . S
C412 O429 1.289 . S
C413 C412 1.488 . S
C413 C414 1.348 . S
C413 C418 1.413 . S
C414 C413 1.348 . S
C414 C415 1.442 . S
C414 H436 0.930 . S
C415 C414 1.442 . S
C415 C416 1.381 . S
C415 H437 0.931 . S
C416 C415 1.381 . S
C416 C417 1.321 . S
C417 C416 1.321 . S
C417 C418 1.403 . S
C417 H438 0.934 . S
C418 C413 1.413 . S
C418 C417 1.403 . S
C418 H439 0.930 . S
C419 O430 1.275 . S
C419 O431 1.256 . S
O420 Ho400 2.322 . S
O420 C402 1.259 . S
O421 Ho401 2.346 . S
O421 C402 1.268 . S
O422 Ho400 2.378 . S
O422 C403 1.215 . S
O423 Ho400 2.524 . S
O423 C403 1.289 . S
O424 Ho400 2.381 . S
O424 C410 1.275 . S
O425 Ho400 2.669 . S
O425 Ho401 2.305 . S
O425 C410 1.256 . S
O426 Ho401 2.322 . S
O426 C411 1.259 . S
O427 Ho400 2.346 . S
O427 C411 1.268 . S
O428 Ho401 2.378 . S
O428 C412 1.215 . S
O429 Ho401 2.524 . S
O429 C412 1.289 . S
O430 Ho401 2.381 . S
O430 C419 1.275 . S
O431 Ho400 2.305 . S
O431 Ho401 2.669 . S
O431 C419 1.256 . S
H432 C405 0.930 . S
H433 C406 0.931 . S
H434 C408 0.934 . S
H435 C409 0.930 . S
H436 C414 0.930 . S
H437 C415 0.931 . S
H438 C417 0.934 . S
H439 C418 0.930 . S
Ho440 C443 2.811 . S
Ho440 O460 2.322 . S
Ho440 O462 2.378 . S
Ho440 O463 2.524 . S
Ho440 O464 2.381 . S
Ho440 O465 2.669 . S
Ho440 O467 2.346 . S
Ho440 O471 2.305 . S
Ho441 C452 2.811 . S
Ho441 O461 2.346 . S
Ho441 O465 2.305 . S
Ho441 O466 2.322 . S
Ho441 O468 2.378 . S
Ho441 O469 2.524 . S
Ho441 O470 2.381 1_565 S
Ho441 O471 2.669 . S
C442 O460 1.259 . S
C442 O461 1.268 . S
C443 Ho440 2.811 . S
C443 C444 1.488 . S
C443 O462 1.215 . S
C443 O463 1.289 . S
C444 C443 1.488 . S
C444 C445 1.370 . S
C444 C449 1.413 . S
C445 C444 1.370 . S
C445 C446 1.437 1_565 S
C445 H472 0.913 1_565 S
C446 C445 1.437 1_545 S
C446 C447 1.381 1_545 S
C446 H473 0.931 . S
C447 C446 1.381 1_565 S
C447 C448 1.321 . S
C448 C447 1.321 . S
C448 C449 1.403 . S
C448 H474 0.934 . S
C449 C444 1.413 . S
C449 C448 1.403 . S
C449 H475 0.930 . S
C450 O464 1.275 . S
C450 O465 1.256 . S
C451 O466 1.259 . S
C451 O467 1.268 . S
C452 Ho441 2.811 . S
C452 C453 1.488 . S
C452 O468 1.215 . S
C452 O469 1.289 . S
C453 C452 1.488 . S
C453 C454 1.348 . S
C453 C458 1.413 . S
C454 C453 1.348 . S
C454 C455 1.442 . S
C454 H476 0.930 . S
C455 C454 1.442 . S
C455 C456 1.381 . S
C455 H477 0.931 . S
C456 C455 1.381 . S
C456 C457 1.321 . S
C457 C456 1.321 . S
C457 C458 1.403 . S
C457 H478 0.934 . S
C458 C453 1.413 . S
C458 C457 1.403 . S
C458 H479 0.930 . S
C459 O470 1.275 . S
C459 O471 1.256 1_545 S
O460 Ho440 2.322 . S
O460 C442 1.259 . S
O461 Ho441 2.346 . S
O461 C442 1.268 . S
O462 Ho440 2.378 . S
O462 C443 1.215 . S
O463 Ho440 2.524 . S
O463 C443 1.289 . S
O464 Ho440 2.381 . S
O464 C450 1.275 . S
O465 Ho440 2.669 . S
O465 Ho441 2.305 . S
O465 C450 1.256 . S
O466 Ho441 2.322 . S
O466 C451 1.259 . S
O467 Ho440 2.346 . S
O467 C451 1.268 . S
O468 Ho441 2.378 . S
O468 C452 1.215 . S
O469 Ho441 2.524 . S
O469 C452 1.289 . S
O470 Ho441 2.381 1_545 S
O470 C459 1.275 . S
O471 Ho440 2.305 . S
O471 Ho441 2.669 . S
O471 C459 1.256 1_565 S
H472 C445 0.913 1_545 S
H473 C446 0.931 . S
H474 C448 0.934 . S
H475 C449 0.930 . S
H476 C454 0.930 . S
H477 C455 0.931 . S
H478 C457 0.934 . S
H479 C458 0.930 . S
Ho480 C483 2.811 . S
Ho480 O500 2.322 . S
Ho480 O502 2.378 . S
Ho480 O503 2.524 . S
Ho480 O504 2.381 . S
Ho480 O505 2.669 . S
Ho480 O507 2.346 . S
Ho480 O511 2.305 . S
Ho481 C492 2.811 . S
Ho481 O501 2.346 . S
Ho481 O505 2.305 . S
Ho481 O506 2.322 . S
Ho481 O508 2.378 . S
Ho481 O509 2.524 . S
Ho481 O510 2.381 . S
Ho481 O511 2.669 . S
C482 O500 1.259 . S
C482 O501 1.268 . S
C483 Ho480 2.811 . S
C483 C484 1.488 . S
C483 O502 1.215 . S
C483 O503 1.289 . S
C484 C483 1.488 . S
C484 C485 1.348 . S
C484 C489 1.413 . S
C485 C484 1.348 . S
C485 C486 1.442 . S
C485 H512 0.930 . S
C486 C485 1.442 . S
C486 C487 1.381 . S
C486 H513 0.931 . S
C487 C486 1.381 . S
C487 C488 1.321 . S
C488 C487 1.321 . S
C488 C489 1.403 . S
C488 H514 0.934 . S
C489 C484 1.413 . S
C489 C488 1.403 . S
C489 H515 0.930 . S
C490 O504 1.275 . S
C490 O505 1.256 . S
C491 O506 1.259 . S
C491 O507 1.268 . S
C492 Ho481 2.811 . S
C492 C493 1.488 . S
C492 O508 1.215 . S
C492 O509 1.289 . S
C493 C492 1.488 . S
C493 C494 1.348 . S
C493 C498 1.413 . S
C494 C493 1.348 . S
C494 C495 1.442 . S
C494 H516 0.930 . S
C495 C494 1.442 . S
C495 C496 1.381 . S
C495 H517 0.931 . S
C496 C495 1.381 . S
C496 C497 1.321 . S
C497 C496 1.321 . S
C497 C498 1.403 . S
C497 H518 0.934 . S
C498 C493 1.413 . S
C498 C497 1.403 . S
C498 H519 0.930 . S
C499 O510 1.275 . S
C499 O511 1.256 . S
O500 Ho480 2.322 . S
O500 C482 1.259 . S
O501 Ho481 2.346 . S
O501 C482 1.268 . S
O502 Ho480 2.378 . S
O502 C483 1.215 . S
O503 Ho480 2.524 . S
O503 C483 1.289 . S
O504 Ho480 2.381 . S
O504 C490 1.275 . S
O505 Ho480 2.669 . S
O505 Ho481 2.305 . S
O505 C490 1.256 . S
O506 Ho481 2.322 . S
O506 C491 1.259 . S
O507 Ho480 2.346 . S
O507 C491 1.268 . S
O508 Ho481 2.378 . S
O508 C492 1.215 . S
O509 Ho481 2.524 . S
O509 C492 1.289 . S
O510 Ho481 2.381 . S
O510 C499 1.275 . S
O511 Ho480 2.305 . S
O511 Ho481 2.669 . S
O511 C499 1.256 . S
H512 C485 0.930 . S
H513 C486 0.931 . S
H514 C488 0.934 . S
H515 C489 0.930 . S
H516 C494 0.930 . S
H517 C495 0.931 . S
H518 C497 0.934 . S
H519 C498 0.930 . S
Ho520 C523 2.811 . S
Ho520 O540 2.322 . S
Ho520 O542 2.378 . S
Ho520 O543 2.524 . S
Ho520 O544 2.381 . S
Ho520 O545 2.669 . S
Ho520 O547 2.346 . S
Ho520 O551 2.305 . S
Ho521 C532 2.811 . S
Ho521 O541 2.346 . S
Ho521 O545 2.305 . S
Ho521 O546 2.322 . S
Ho521 O548 2.378 . S
Ho521 O549 2.524 . S
Ho521 O550 2.381 1_545 S
Ho521 O551 2.669 . S
C522 O540 1.259 . S
C522 O541 1.268 . S
C523 Ho520 2.811 . S
C523 C524 1.488 . S
C523 O542 1.215 . S
C523 O543 1.289 . S
C524 C523 1.488 . S
C524 C525 1.370 . S
C524 C529 1.413 . S
C525 C524 1.370 . S
C525 C526 1.437 1_545 S
C525 H552 0.913 1_545 S
C526 C525 1.437 1_565 S
C526 C527 1.381 1_565 S
C526 H553 0.931 . S
C527 C526 1.381 1_545 S
C527 C528 1.321 . S
C528 C527 1.321 . S
C528 C529 1.403 . S
C528 H554 0.934 . S
C529 C524 1.413 . S
C529 C528 1.403 . S
C529 H555 0.930 . S
C530 O544 1.275 . S
C530 O545 1.256 . S
C531 O546 1.259 . S
C531 O547 1.268 . S
C532 Ho521 2.811 . S
C532 C533 1.488 . S
C532 O548 1.215 . S
C532 O549 1.289 . S
C533 C532 1.488 . S
C533 C534 1.348 . S
C533 C538 1.413 . S
C534 C533 1.348 . S
C534 C535 1.442 . S
C534 H556 0.930 . S
C535 C534 1.442 . S
C535 C536 1.381 . S
C535 H557 0.931 . S
C536 C535 1.381 . S
C536 C537 1.321 . S
C537 C536 1.321 . S
C537 C538 1.403 . S
C537 H558 0.934 . S
C538 C533 1.413 . S
C538 C537 1.403 . S
C538 H559 0.930 . S
C539 O550 1.275 . S
C539 O551 1.256 1_565 S
O540 Ho520 2.322 . S
O540 C522 1.259 . S
O541 Ho521 2.346 . S
O541 C522 1.268 . S
O542 Ho520 2.378 . S
O542 C523 1.215 . S
O543 Ho520 2.524 . S
O543 C523 1.289 . S
O544 Ho520 2.381 . S
O544 C530 1.275 . S
O545 Ho520 2.669 . S
O545 Ho521 2.305 . S
O545 C530 1.256 . S
O546 Ho521 2.322 . S
O546 C531 1.259 . S
O547 Ho520 2.346 . S
O547 C531 1.268 . S
O548 Ho521 2.378 . S
O548 C532 1.215 . S
O549 Ho521 2.524 . S
O549 C532 1.289 . S
O550 Ho521 2.381 1_565 S
O550 C539 1.275 . S
O551 Ho520 2.305 . S
O551 Ho521 2.669 . S
O551 C539 1.256 1_545 S
H552 C525 0.913 1_565 S
H553 C526 0.931 . S
H554 C528 0.934 . S
H555 C529 0.930 . S
H556 C534 0.930 . S
H557 C535 0.931 . S
H558 C537 0.934 . S
H559 C538 0.930 . S
Ho560 C563 2.811 . S
Ho560 O580 2.322 . S
Ho560 O582 2.378 . S
Ho560 O583 2.524 . S
Ho560 O584 2.381 . S
Ho560 O585 2.669 . S
Ho560 O587 2.346 . S
Ho560 O591 2.305 . S
Ho561 C572 2.811 . S
Ho561 O581 2.346 . S
Ho561 O585 2.305 . S
Ho561 O586 2.322 . S
Ho561 O588 2.378 . S
Ho561 O589 2.524 . S
Ho561 O590 2.381 . S
Ho561 O591 2.669 . S
C562 O580 1.259 . S
C562 O581 1.268 . S
C563 Ho560 2.811 . S
C563 C564 1.488 . S
C563 O582 1.215 . S
C563 O583 1.289 . S
C564 C563 1.488 . S
C564 C565 1.348 . S
C564 C569 1.413 . S
C565 C564 1.348 . S
C565 C566 1.442 . S
C565 H592 0.930 . S
C566 C565 1.442 . S
C566 C567 1.381 . S
C566 H593 0.931 . S
C567 C566 1.381 . S
C567 C568 1.321 . S
C568 C567 1.321 . S
C568 C569 1.403 . S
C568 H594 0.934 . S
C569 C564 1.413 . S
C569 C568 1.403 . S
C569 H595 0.930 . S
C570 O584 1.275 . S
C570 O585 1.256 . S
C571 O586 1.259 . S
C571 O587 1.268 . S
C572 Ho561 2.811 . S
C572 C573 1.488 . S
C572 O588 1.215 . S
C572 O589 1.289 . S
C573 C572 1.488 . S
C573 C574 1.348 . S
C573 C578 1.413 . S
C574 C573 1.348 . S
C574 C575 1.442 . S
C574 H596 0.930 . S
C575 C574 1.442 . S
C575 C576 1.381 . S
C575 H597 0.931 . S
C576 C575 1.381 . S
C576 C577 1.321 . S
C577 C576 1.321 . S
C577 C578 1.403 . S
C577 H598 0.934 . S
C578 C573 1.413 . S
C578 C577 1.403 . S
C578 H599 0.930 . S
C579 O590 1.275 . S
C579 O591 1.256 . S
O580 Ho560 2.322 . S
O580 C562 1.259 . S
O581 Ho561 2.346 . S
O581 C562 1.268 . S
O582 Ho560 2.378 . S
O582 C563 1.215 . S
O583 Ho560 2.524 . S
O583 C563 1.289 . S
O584 Ho560 2.381 . S
O584 C570 1.275 . S
O585 Ho560 2.669 . S
O585 Ho561 2.305 . S
O585 C570 1.256 . S
O586 Ho561 2.322 . S
O586 C571 1.259 . S
O587 Ho560 2.346 . S
O587 C571 1.268 . S
O588 Ho561 2.378 . S
O588 C572 1.215 . S
O589 Ho561 2.524 . S
O589 C572 1.289 . S
O590 Ho561 2.381 . S
O590 C579 1.275 . S
O591 Ho560 2.305 . S
O591 Ho561 2.669 . S
O591 C579 1.256 . S
H592 C565 0.930 . S
H593 C566 0.931 . S
H594 C568 0.934 . S
H595 C569 0.930 . S
H596 C574 0.930 . S
H597 C575 0.931 . S
H598 C577 0.934 . S
H599 C578 0.930 . S
Ho600 C603 2.811 . S
Ho600 O620 2.322 . S
Ho600 O622 2.378 . S
Ho600 O623 2.524 . S
Ho600 O624 2.381 . S
Ho600 O625 2.669 . S
Ho600 O627 2.346 . S
Ho600 O631 2.305 . S
Ho601 C612 2.811 . S
Ho601 O621 2.346 . S
Ho601 O625 2.305 1_455 S
Ho601 O626 2.322 1_455 S
Ho601 O628 2.378 . S
Ho601 O629 2.524 . S
Ho601 O630 2.381 1_465 S
Ho601 O631 2.669 1_455 S
C602 O620 1.259 . S
C602 O621 1.268 1_655 S
C603 Ho600 2.811 . S
C603 C604 1.488 . S
C603 O622 1.215 . S
C603 O623 1.289 . S
C604 C603 1.488 . S
C604 C605 1.370 . S
C604 C609 1.413 . S
C605 C604 1.370 . S
C605 C606 1.437 1_565 S
C605 H632 0.913 1_565 S
C606 C605 1.437 1_545 S
C606 C607 1.381 1_545 S
C606 H633 0.931 . S
C607 C606 1.381 1_565 S
C607 C608 1.321 . S
C608 C607 1.321 . S
C608 C609 1.403 . S
C608 H634 0.934 . S
C609 C604 1.413 . S
C609 C608 1.403 . S
C609 H635 0.930 . S
C610 O624 1.275 . S
C610 O625 1.256 . S
C611 O626 1.259 . S
C611 O627 1.268 . S
C612 Ho601 2.811 . S
C612 C613 1.488 . S
C612 O628 1.215 . S
C612 O629 1.289 . S
C613 C612 1.488 . S
C613 C614 1.348 . S
C613 C618 1.413 . S
C614 C613 1.348 . S
C614 C615 1.442 . S
C614 H636 0.930 . S
C615 C614 1.442 . S
C615 C616 1.381 . S
C615 H637 0.931 . S
C616 C615 1.381 . S
C616 C617 1.321 . S
C617 C616 1.321 . S
C617 C618 1.403 . S
C617 H638 0.934 . S
C618 C613 1.413 . S
C618 C617 1.403 . S
C618 H639 0.930 . S
C619 O630 1.275 . S
C619 O631 1.256 1_545 S
O620 Ho600 2.322 . S
O620 C602 1.259 . S
O621 Ho601 2.346 . S
O621 C602 1.268 1_455 S
O622 Ho600 2.378 . S
O622 C603 1.215 . S
O623 Ho600 2.524 . S
O623 C603 1.289 . S
O624 Ho600 2.381 . S
O624 C610 1.275 . S
O625 Ho600 2.669 . S
O625 Ho601 2.305 1_655 S
O625 C610 1.256 . S
O626 Ho601 2.322 1_655 S
O626 C611 1.259 . S
O627 Ho600 2.346 . S
O627 C611 1.268 . S
O628 Ho601 2.378 . S
O628 C612 1.215 . S
O629 Ho601 2.524 . S
O629 C612 1.289 . S
O630 Ho601 2.381 1_645 S
O630 C619 1.275 . S
O631 Ho600 2.305 . S
O631 Ho601 2.669 1_655 S
O631 C619 1.256 1_565 S
H632 C605 0.913 1_545 S
H633 C606 0.931 . S
H634 C608 0.934 . S
H635 C609 0.930 . S
H636 C614 0.930 . S
H637 C615 0.931 . S
H638 C617 0.934 . S
H639 C618 0.930 . S
Ho640 C643 2.811 . S
Ho640 O660 2.322 . S
Ho640 O662 2.378 . S
Ho640 O663 2.524 . S
Ho640 O664 2.381 . S
Ho640 O665 2.669 . S
Ho640 O667 2.346 . S
Ho640 O671 2.305 . S
Ho641 C652 2.811 . S
Ho641 O661 2.346 . S
Ho641 O665 2.305 . S
Ho641 O666 2.322 . S
Ho641 O668 2.378 . S
Ho641 O669 2.524 . S
Ho641 O670 2.381 . S
Ho641 O671 2.669 . S
C642 O660 1.259 . S
C642 O661 1.268 . S
C643 Ho640 2.811 . S
C643 C644 1.488 . S
C643 O662 1.215 . S
C643 O663 1.289 . S
C644 C643 1.488 . S
C644 C645 1.348 . S
C644 C649 1.413 . S
C645 C644 1.348 . S
C645 C646 1.442 . S
C645 H672 0.930 . S
C646 C645 1.442 . S
C646 C647 1.381 . S
C646 H673 0.931 . S
C647 C646 1.381 . S
C647 C648 1.321 . S
C648 C647 1.321 . S
C648 C649 1.403 . S
C648 H674 0.934 . S
C649 C644 1.413 . S
C649 C648 1.403 . S
C649 H675 0.930 . S
C650 O664 1.275 . S
C650 O665 1.256 . S
C651 O666 1.259 . S
C651 O667 1.268 . S
C652 Ho641 2.811 . S
C652 C653 1.488 . S
C652 O668 1.215 . S
C652 O669 1.289 . S
C653 C652 1.488 . S
C653 C654 1.348 . S
C653 C658 1.413 . S
C654 C653 1.348 . S
C654 C655 1.442 . S
C654 H676 0.930 . S
C655 C654 1.442 . S
C655 C656 1.381 . S
C655 H677 0.931 . S
C656 C655 1.381 . S
C656 C657 1.321 . S
C657 C656 1.321 . S
C657 C658 1.403 . S
C657 H678 0.934 . S
C658 C653 1.413 . S
C658 C657 1.403 . S
C658 H679 0.930 . S
C659 O670 1.275 . S
C659 O671 1.256 . S
O660 Ho640 2.322 . S
O660 C642 1.259 . S
O661 Ho641 2.346 . S
O661 C642 1.268 . S
O662 Ho640 2.378 . S
O662 C643 1.215 . S
O663 Ho640 2.524 . S
O663 C643 1.289 . S
O664 Ho640 2.381 . S
O664 C650 1.275 . S
O665 Ho640 2.669 . S
O665 Ho641 2.305 . S
O665 C650 1.256 . S
O666 Ho641 2.322 . S
O666 C651 1.259 . S
O667 Ho640 2.346 . S
O667 C651 1.268 . S
O668 Ho641 2.378 . S
O668 C652 1.215 . S
O669 Ho641 2.524 . S
O669 C652 1.289 . S
O670 Ho641 2.381 . S
O670 C659 1.275 . S
O671 Ho640 2.305 . S
O671 Ho641 2.669 . S
O671 C659 1.256 . S
H672 C645 0.930 . S
H673 C646 0.931 . S
H674 C648 0.934 . S
H675 C649 0.930 . S
H676 C654 0.930 . S
H677 C655 0.931 . S
H678 C657 0.934 . S
H679 C658 0.930 . S
Ho680 C683 2.811 . S
Ho680 O700 2.322 . S
Ho680 O702 2.378 . S
Ho680 O703 2.524 . S
Ho680 O704 2.381 . S
Ho680 O705 2.669 . S
Ho680 O707 2.346 . S
Ho680 O711 2.305 . S
Ho681 C692 2.811 . S
Ho681 O701 2.346 . S
Ho681 O705 2.305 . S
Ho681 O706 2.322 . S
Ho681 O708 2.378 . S
Ho681 O709 2.524 . S
Ho681 O710 2.381 . S
Ho681 O711 2.669 . S
C682 O700 1.259 . S
C682 O701 1.268 . S
C683 Ho680 2.811 . S
C683 C684 1.488 . S
C683 O702 1.215 . S
C683 O703 1.289 . S
C684 C683 1.488 . S
C684 C685 1.348 . S
C684 C689 1.413 . S
C685 C684 1.348 . S
C685 C686 1.442 . S
C685 H712 0.930 . S
C686 C685 1.442 . S
C686 C687 1.381 . S
C686 H713 0.931 . S
C687 C686 1.381 . S
C687 C688 1.321 . S
C688 C687 1.321 . S
C688 C689 1.403 . S
C688 H714 0.934 . S
C689 C684 1.413 . S
C689 C688 1.403 . S
C689 H715 0.930 . S
C690 O704 1.275 . S
C690 O705 1.256 . S
C691 O706 1.259 . S
C691 O707 1.268 . S
C692 Ho681 2.811 . S
C692 C693 1.488 . S
C692 O708 1.215 . S
C692 O709 1.289 . S
C693 C692 1.488 . S
C693 C694 1.348 . S
C693 C698 1.413 . S
C694 C693 1.348 . S
C694 C695 1.442 . S
C694 H716 0.930 . S
C695 C694 1.442 . S
C695 C696 1.381 . S
C695 H717 0.931 . S
C696 C695 1.381 . S
C696 C697 1.321 . S
C697 C696 1.321 . S
C697 C698 1.403 . S
C697 H718 0.934 . S
C698 C693 1.413 . S
C698 C697 1.403 . S
C698 H719 0.930 . S
C699 O710 1.275 . S
C699 O711 1.256 . S
O700 Ho680 2.322 . S
O700 C682 1.259 . S
O701 Ho681 2.346 . S
O701 C682 1.268 . S
O702 Ho680 2.378 . S
O702 C683 1.215 . S
O703 Ho680 2.524 . S
O703 C683 1.289 . S
O704 Ho680 2.381 . S
O704 C690 1.275 . S
O705 Ho680 2.669 . S
O705 Ho681 2.305 . S
O705 C690 1.256 . S
O706 Ho681 2.322 . S
O706 C691 1.259 . S
O707 Ho680 2.346 . S
O707 C691 1.268 . S
O708 Ho681 2.378 . S
O708 C692 1.215 . S
O709 Ho681 2.524 . S
O709 C692 1.289 . S
O710 Ho681 2.381 . S
O710 C699 1.275 . S
O711 Ho680 2.305 . S
O711 Ho681 2.669 . S
O711 C699 1.256 . S
H712 C685 0.930 . S
H713 C686 0.931 . S
H714 C688 0.934 . S
H715 C689 0.930 . S
H716 C694 0.930 . S
H717 C695 0.931 . S
H718 C697 0.934 . S
H719 C698 0.930 . S
Ho720 C723 2.811 . S
Ho720 O740 2.322 . S
Ho720 O742 2.378 . S
Ho720 O743 2.524 . S
Ho720 O744 2.381 . S
Ho720 O745 2.669 . S
Ho720 O747 2.346 . S
Ho720 O751 2.305 . S
Ho721 C732 2.811 . S
Ho721 O741 2.346 . S
Ho721 O745 2.305 . S
Ho721 O746 2.322 . S
Ho721 O748 2.378 . S
Ho721 O749 2.524 . S
Ho721 O750 2.381 . S
Ho721 O751 2.669 . S
C722 O740 1.259 . S
C722 O741 1.268 . S
C723 Ho720 2.811 . S
C723 C724 1.488 . S
C723 O742 1.215 . S
C723 O743 1.289 . S
C724 C723 1.488 . S
C724 C725 1.348 . S
C724 C729 1.413 . S
C725 C724 1.348 . S
C725 C726 1.442 . S
C725 H752 0.930 . S
C726 C725 1.442 . S
C726 C727 1.381 . S
C726 H753 0.931 . S
C727 C726 1.381 . S
C727 C728 1.321 . S
C728 C727 1.321 . S
C728 C729 1.403 . S
C728 H754 0.934 . S
C729 C724 1.413 . S
C729 C728 1.403 . S
C729 H755 0.930 . S
C730 O744 1.275 . S
C730 O745 1.256 . S
C731 O746 1.259 . S
C731 O747 1.268 . S
C732 Ho721 2.811 . S
C732 C733 1.488 . S
C732 O748 1.215 . S
C732 O749 1.289 . S
C733 C732 1.488 . S
C733 C734 1.348 . S
C733 C738 1.413 . S
C734 C733 1.348 . S
C734 C735 1.442 . S
C734 H756 0.930 . S
C735 C734 1.442 . S
C735 C736 1.381 . S
C735 H757 0.931 . S
C736 C735 1.381 . S
C736 C737 1.321 . S
C737 C736 1.321 . S
C737 C738 1.403 . S
C737 H758 0.934 . S
C738 C733 1.413 . S
C738 C737 1.403 . S
C738 H759 0.930 . S
C739 O750 1.275 . S
C739 O751 1.256 . S
O740 Ho720 2.322 . S
O740 C722 1.259 . S
O741 Ho721 2.346 . S
O741 C722 1.268 . S
O742 Ho720 2.378 . S
O742 C723 1.215 . S
O743 Ho720 2.524 . S
O743 C723 1.289 . S
O744 Ho720 2.381 . S
O744 C730 1.275 . S
O745 Ho720 2.669 . S
O745 Ho721 2.305 . S
O745 C730 1.256 . S
O746 Ho721 2.322 . S
O746 C731 1.259 . S
O747 Ho720 2.346 . S
O747 C731 1.268 . S
O748 Ho721 2.378 . S
O748 C732 1.215 . S
O749 Ho721 2.524 . S
O749 C732 1.289 . S
O750 Ho721 2.381 . S
O750 C739 1.275 . S
O751 Ho720 2.305 . S
O751 Ho721 2.669 . S
O751 C739 1.256 . S
H752 C725 0.930 . S
H753 C726 0.931 . S
H754 C728 0.934 . S
H755 C729 0.930 . S
H756 C734 0.930 . S
H757 C735 0.931 . S
H758 C737 0.934 . S
H759 C738 0.930 . S
Ho760 C763 2.811 . S
Ho760 O780 2.322 1_455 S
Ho760 O782 2.378 . S
Ho760 O783 2.524 . S
Ho760 O784 2.381 1_455 S
Ho760 O785 2.669 1_455 S
Ho760 O787 2.346 . S
Ho760 O791 2.305 1_455 S
Ho761 C772 2.811 . S
Ho761 O781 2.346 . S
Ho761 O785 2.305 . S
Ho761 O786 2.322 . S
Ho761 O788 2.378 . S
Ho761 O789 2.524 . S
Ho761 O790 2.381 . S
Ho761 O791 2.669 . S
C762 O780 1.259 . S
C762 O781 1.268 . S
C763 Ho760 2.811 . S
C763 C764 1.488 . S
C763 O782 1.215 . S
C763 O783 1.289 . S
C764 C763 1.488 . S
C764 C765 1.348 . S
C764 C769 1.413 . S
C765 C764 1.348 . S
C765 C766 1.442 . S
C765 H792 0.930 . S
C766 C765 1.442 . S
C766 C767 1.381 . S
C766 H793 0.931 . S
C767 C766 1.381 . S
C767 C768 1.321 . S
C768 C767 1.321 . S
C768 C769 1.403 . S
C768 H794 0.934 . S
C769 C764 1.413 . S
C769 C768 1.403 . S
C769 H795 0.930 . S
C770 O784 1.275 . S
C770 O785 1.256 . S
C771 O786 1.259 . S
C771 O787 1.268 1_655 S
C772 Ho761 2.811 . S
C772 C773 1.488 . S
C772 O788 1.215 . S
C772 O789 1.289 . S
C773 C772 1.488 . S
C773 C774 1.348 . S
C773 C778 1.413 . S
C774 C773 1.348 . S
C774 C775 1.442 . S
C774 H796 0.930 . S
C775 C774 1.442 . S
C775 C776 1.381 . S
C775 H797 0.931 . S
C776 C775 1.381 . S
C776 C777 1.321 . S
C777 C776 1.321 . S
C777 C778 1.403 . S
C777 H798 0.934 . S
C778 C773 1.413 . S
C778 C777 1.403 . S
C778 H799 0.930 . S
C779 O790 1.275 . S
C779 O791 1.256 . S
O780 Ho760 2.322 1_655 S
O780 C762 1.259 . S
O781 Ho761 2.346 . S
O781 C762 1.268 . S
O782 Ho760 2.378 . S
O782 C763 1.215 . S
O783 Ho760 2.524 . S
O783 C763 1.289 . S
O784 Ho760 2.381 1_655 S
O784 C770 1.275 . S
O785 Ho760 2.669 1_655 S
O785 Ho761 2.305 . S
O785 C770 1.256 . S
O786 Ho761 2.322 . S
O786 C771 1.259 . S
O787 Ho760 2.346 . S
O787 C771 1.268 1_455 S
O788 Ho761 2.378 . S
O788 C772 1.215 . S
O789 Ho761 2.524 . S
O789 C772 1.289 . S
O790 Ho761 2.381 . S
O790 C779 1.275 . S
O791 Ho760 2.305 1_655 S
O791 Ho761 2.669 . S
O791 C779 1.256 . S
H792 C765 0.930 . S
H793 C766 0.931 . S
H794 C768 0.934 . S
H795 C769 0.930 . S
H796 C774 0.930 . S
H797 C775 0.931 . S
H798 C777 0.934 . S
H799 C778 0.930 . S
Ho800 C803 2.811 . S
Ho800 O820 2.322 . S
Ho800 O822 2.378 . S
Ho800 O823 2.524 . S
Ho800 O824 2.381 . S
Ho800 O825 2.669 . S
Ho800 O827 2.346 . S
Ho800 O831 2.305 . S
Ho801 C812 2.811 . S
Ho801 O821 2.346 . S
Ho801 O825 2.305 . S
Ho801 O826 2.322 . S
Ho801 O828 2.378 . S
Ho801 O829 2.524 . S
Ho801 O830 2.381 . S
Ho801 O831 2.669 . S
C802 O820 1.259 . S
C802 O821 1.268 . S
C803 Ho800 2.811 . S
C803 C804 1.488 . S
C803 O822 1.215 . S
C803 O823 1.289 . S
C804 C803 1.488 . S
C804 C805 1.348 . S
C804 C809 1.413 . S
C805 C804 1.348 . S
C805 C806 1.442 . S
C805 H832 0.930 . S
C806 C805 1.442 . S
C806 C807 1.381 . S
C806 H833 0.931 . S
C807 C806 1.381 . S
C807 C808 1.321 . S
C808 C807 1.321 . S
C808 C809 1.403 . S
C808 H834 0.934 . S
C809 C804 1.413 . S
C809 C808 1.403 . S
C809 H835 0.930 . S
C810 O824 1.275 . S
C810 O825 1.256 . S
C811 O826 1.259 . S
C811 O827 1.268 . S
C812 Ho801 2.811 . S
C812 C813 1.488 . S
C812 O828 1.215 . S
C812 O829 1.289 . S
C813 C812 1.488 . S
C813 C814 1.348 . S
C813 C818 1.413 . S
C814 C813 1.348 . S
C814 C815 1.442 . S
C814 H836 0.930 . S
C815 C814 1.442 . S
C815 C816 1.381 . S
C815 H837 0.931 . S
C816 C815 1.381 . S
C816 C817 1.321 . S
C817 C816 1.321 . S
C817 C818 1.403 . S
C817 H838 0.934 . S
C818 C813 1.413 . S
C818 C817 1.403 . S
C818 H839 0.930 . S
C819 O830 1.275 . S
C819 O831 1.256 . S
O820 Ho800 2.322 . S
O820 C802 1.259 . S
O821 Ho801 2.346 . S
O821 C802 1.268 . S
O822 Ho800 2.378 . S
O822 C803 1.215 . S
O823 Ho800 2.524 . S
O823 C803 1.289 . S
O824 Ho800 2.381 . S
O824 C810 1.275 . S
O825 Ho800 2.669 . S
O825 Ho801 2.305 . S
O825 C810 1.256 . S
O826 Ho801 2.322 . S
O826 C811 1.259 . S
O827 Ho800 2.346 . S
O827 C811 1.268 . S
O828 Ho801 2.378 . S
O828 C812 1.215 . S
O829 Ho801 2.524 . S
O829 C812 1.289 . S
O830 Ho801 2.381 . S
O830 C819 1.275 . S
O831 Ho800 2.305 . S
O831 Ho801 2.669 . S
O831 C819 1.256 . S
H832 C805 0.930 . S
H833 C806 0.931 . S
H834 C808 0.934 . S
H835 C809 0.930 . S
H836 C814 0.930 . S
H837 C815 0.931 . S
H838 C817 0.934 . S
H839 C818 0.930 . S
Ho840 C843 2.811 . S
Ho840 O860 2.322 1_455 S
Ho840 O862 2.378 . S
Ho840 O863 2.524 . S
Ho840 O864 2.381 1_455 S
Ho840 O865 2.669 1_455 S
Ho840 O867 2.346 . S
Ho840 O871 2.305 1_455 S
Ho841 C852 2.811 . S
Ho841 O861 2.346 . S
Ho841 O865 2.305 . S
Ho841 O866 2.322 . S
Ho841 O868 2.378 . S
Ho841 O869 2.524 . S
Ho841 O870 2.381 . S
Ho841 O871 2.669 . S
C842 O860 1.259 . S
C842 O861 1.268 . S
C843 Ho840 2.811 . S
C843 C844 1.488 . S
C843 O862 1.215 . S
C843 O863 1.289 . S
C844 C843 1.488 . S
C844 C845 1.348 . S
C844 C849 1.413 . S
C845 C844 1.348 . S
C845 C846 1.442 . S
C845 H872 0.930 . S
C846 C845 1.442 . S
C846 C847 1.381 . S
C846 H873 0.931 . S
C847 C846 1.381 . S
C847 C848 1.321 . S
C848 C847 1.321 . S
C848 C849 1.403 . S
C848 H874 0.934 . S
C849 C844 1.413 . S
C849 C848 1.403 . S
C849 H875 0.930 . S
C850 O864 1.275 . S
C850 O865 1.256 . S
C851 O866 1.259 . S
C851 O867 1.268 1_655 S
C852 Ho841 2.811 . S
C852 C853 1.488 . S
C852 O868 1.215 . S
C852 O869 1.289 . S
C853 C852 1.488 . S
C853 C854 1.348 . S
C853 C858 1.413 . S
C854 C853 1.348 . S
C854 C855 1.442 . S
C854 H876 0.930 . S
C855 C854 1.442 . S
C855 C856 1.381 . S
C855 H877 0.931 . S
C856 C855 1.381 . S
C856 C857 1.321 . S
C857 C856 1.321 . S
C857 C858 1.403 . S
C857 H878 0.934 . S
C858 C853 1.413 . S
C858 C857 1.403 . S
C858 H879 0.930 . S
C859 O870 1.275 . S
C859 O871 1.256 . S
O860 Ho840 2.322 1_655 S
O860 C842 1.259 . S
O861 Ho841 2.346 . S
O861 C842 1.268 . S
O862 Ho840 2.378 . S
O862 C843 1.215 . S
O863 Ho840 2.524 . S
O863 C843 1.289 . S
O864 Ho840 2.381 1_655 S
O864 C850 1.275 . S
O865 Ho840 2.669 1_655 S
O865 Ho841 2.305 . S
O865 C850 1.256 . S
O866 Ho841 2.322 . S
O866 C851 1.259 . S
O867 Ho840 2.346 . S
O867 C851 1.268 1_455 S
O868 Ho841 2.378 . S
O868 C852 1.215 . S
O869 Ho841 2.524 . S
O869 C852 1.289 . S
O870 Ho841 2.381 . S
O870 C859 1.275 . S
O871 Ho840 2.305 1_655 S
O871 Ho841 2.669 . S
O871 C859 1.256 . S
H872 C845 0.930 . S
H873 C846 0.931 . S
H874 C848 0.934 . S
H875 C849 0.930 . S
H876 C854 0.930 . S
H877 C855 0.931 . S
H878 C857 0.934 . S
H879 C858 0.930 . S
Ho880 C883 2.811 . S
Ho880 O900 2.322 . S
Ho880 O902 2.378 . S
Ho880 O903 2.524 . S
Ho880 O904 2.381 . S
Ho880 O905 2.669 . S
Ho880 O907 2.346 . S
Ho880 O911 2.305 . S
Ho881 C892 2.811 . S
Ho881 O901 2.346 . S
Ho881 O905 2.305 . S
Ho881 O906 2.322 . S
Ho881 O908 2.378 . S
Ho881 O909 2.524 . S
Ho881 O910 2.381 . S
Ho881 O911 2.669 . S
C882 O900 1.259 . S
C882 O901 1.268 . S
C883 Ho880 2.811 . S
C883 C884 1.488 . S
C883 O902 1.215 . S
C883 O903 1.289 . S
C884 C883 1.488 . S
C884 C885 1.348 . S
C884 C889 1.413 . S
C885 C884 1.348 . S
C885 C886 1.442 . S
C885 H912 0.930 . S
C886 C885 1.442 . S
C886 C887 1.381 . S
C886 H913 0.931 . S
C887 C886 1.381 . S
C887 C888 1.321 . S
C888 C887 1.321 . S
C888 C889 1.403 . S
C888 H914 0.934 . S
C889 C884 1.413 . S
C889 C888 1.403 . S
C889 H915 0.930 . S
C890 O904 1.275 . S
C890 O905 1.256 . S
C891 O906 1.259 . S
C891 O907 1.268 . S
C892 Ho881 2.811 . S
C892 C893 1.488 . S
C892 O908 1.215 . S
C892 O909 1.289 . S
C893 C892 1.488 . S
C893 C894 1.348 . S
C893 C898 1.413 . S
C894 C893 1.348 . S
C894 C895 1.442 . S
C894 H916 0.930 . S
C895 C894 1.442 . S
C895 C896 1.381 . S
C895 H917 0.931 . S
C896 C895 1.381 . S
C896 C897 1.321 . S
C897 C896 1.321 . S
C897 C898 1.403 . S
C897 H918 0.934 . S
C898 C893 1.413 . S
C898 C897 1.403 . S
C898 H919 0.930 . S
C899 O910 1.275 . S
C899 O911 1.256 . S
O900 Ho880 2.322 . S
O900 C882 1.259 . S
O901 Ho881 2.346 . S
O901 C882 1.268 . S
O902 Ho880 2.378 . S
O902 C883 1.215 . S
O903 Ho880 2.524 . S
O903 C883 1.289 . S
O904 Ho880 2.381 . S
O904 C890 1.275 . S
O905 Ho880 2.669 . S
O905 Ho881 2.305 . S
O905 C890 1.256 . S
O906 Ho881 2.322 . S
O906 C891 1.259 . S
O907 Ho880 2.346 . S
O907 C891 1.268 . S
O908 Ho881 2.378 . S
O908 C892 1.215 . S
O909 Ho881 2.524 . S
O909 C892 1.289 . S
O910 Ho881 2.381 . S
O910 C899 1.275 . S
O911 Ho880 2.305 . S
O911 Ho881 2.669 . S
O911 C899 1.256 . S
H912 C885 0.930 . S
H913 C886 0.931 . S
H914 C888 0.934 . S
H915 C889 0.930 . S
H916 C894 0.930 . S
H917 C895 0.931 . S
H918 C897 0.934 . S
H919 C898 0.930 . S
Ho920 C923 2.811 . S
Ho920 O940 2.322 . S
Ho920 O942 2.378 . S
Ho920 O943 2.524 . S
Ho920 O944 2.381 . S
Ho920 O945 2.669 . S
Ho920 O947 2.346 . S
Ho920 O951 2.305 . S
Ho921 C932 2.811 . S
Ho921 O941 2.346 . S
Ho921 O945 2.305 . S
Ho921 O946 2.322 . S
Ho921 O948 2.378 . S
Ho921 O949 2.524 . S
Ho921 O950 2.381 . S
Ho921 O951 2.669 . S
C922 O940 1.259 . S
C922 O941 1.268 . S
C923 Ho920 2.811 . S
C923 C924 1.488 . S
C923 O942 1.215 . S
C923 O943 1.289 . S
C924 C923 1.488 . S
C924 C925 1.348 . S
C924 C929 1.413 . S
C925 C924 1.348 . S
C925 C926 1.442 . S
C925 H952 0.930 . S
C926 C925 1.442 . S
C926 C927 1.381 . S
C926 H953 0.931 . S
C927 C926 1.381 . S
C927 C928 1.321 . S
C928 C927 1.321 . S
C928 C929 1.403 . S
C928 H954 0.934 . S
C929 C924 1.413 . S
C929 C928 1.403 . S
C929 H955 0.930 . S
C930 O944 1.275 . S
C930 O945 1.256 . S
C931 O946 1.259 . S
C931 O947 1.268 . S
C932 Ho921 2.811 . S
C932 C933 1.488 . S
C932 O948 1.215 . S
C932 O949 1.289 . S
C933 C932 1.488 . S
C933 C934 1.348 . S
C933 C938 1.413 . S
C934 C933 1.348 . S
C934 C935 1.442 . S
C934 H956 0.930 . S
C935 C934 1.442 . S
C935 C936 1.381 . S
C935 H957 0.931 . S
C936 C935 1.381 . S
C936 C937 1.321 . S
C937 C936 1.321 . S
C937 C938 1.403 . S
C937 H958 0.934 . S
C938 C933 1.413 . S
C938 C937 1.403 . S
C938 H959 0.930 . S
C939 O950 1.275 . S
C939 O951 1.256 . S
O940 Ho920 2.322 . S
O940 C922 1.259 . S
O941 Ho921 2.346 . S
O941 C922 1.268 . S
O942 Ho920 2.378 . S
O942 C923 1.215 . S
O943 Ho920 2.524 . S
O943 C923 1.289 . S
O944 Ho920 2.381 . S
O944 C930 1.275 . S
O945 Ho920 2.669 . S
O945 Ho921 2.305 . S
O945 C930 1.256 . S
O946 Ho921 2.322 . S
O946 C931 1.259 . S
O947 Ho920 2.346 . S
O947 C931 1.268 . S
O948 Ho921 2.378 . S
O948 C932 1.215 . S
O949 Ho921 2.524 . S
O949 C932 1.289 . S
O950 Ho921 2.381 . S
O950 C939 1.275 . S
O951 Ho920 2.305 . S
O951 Ho921 2.669 . S
O951 C939 1.256 . S
H952 C925 0.930 . S
H953 C926 0.931 . S
H954 C928 0.934 . S
H955 C929 0.930 . S
H956 C934 0.930 . S
H957 C935 0.931 . S
H958 C937 0.934 . S
H959 C938 0.930 . S
Ho960 C963 2.811 . S
Ho960 O980 2.322 . S
Ho960 O982 2.378 . S
Ho960 O983 2.524 . S
Ho960 O984 2.381 . S
Ho960 O985 2.669 . S
Ho960 O987 2.346 . S
Ho960 O991 2.305 . S
Ho961 C972 2.811 . S
Ho961 O981 2.346 . S
Ho961 O985 2.305 . S
Ho961 O986 2.322 . S
Ho961 O988 2.378 . S
Ho961 O989 2.524 . S
Ho961 O990 2.381 . S
Ho961 O991 2.669 . S
C962 O980 1.259 . S
C962 O981 1.268 . S
C963 Ho960 2.811 . S
C963 C964 1.488 . S
C963 O982 1.215 . S
C963 O983 1.289 . S
C964 C963 1.488 . S
C964 C965 1.348 . S
C964 C969 1.413 . S
C965 C964 1.348 . S
C965 C966 1.442 . S
C965 H992 0.930 . S
C966 C965 1.442 . S
C966 C967 1.381 . S
C966 H993 0.931 . S
C967 C966 1.381 . S
C967 C968 1.321 . S
C968 C967 1.321 . S
C968 C969 1.403 . S
C968 H994 0.934 . S
C969 C964 1.413 . S
C969 C968 1.403 . S
C969 H995 0.930 . S
C970 O984 1.275 . S
C970 O985 1.256 . S
C971 O986 1.259 . S
C971 O987 1.268 . S
C972 Ho961 2.811 . S
C972 C973 1.488 . S
C972 O988 1.215 . S
C972 O989 1.289 . S
C973 C972 1.488 . S
C973 C974 1.348 . S
C973 C978 1.413 . S
C974 C973 1.348 . S
C974 C975 1.442 . S
C974 H996 0.930 . S
C975 C974 1.442 . S
C975 C976 1.381 . S
C975 H997 0.931 . S
C976 C975 1.381 . S
C976 C977 1.321 . S
C977 C976 1.321 . S
C977 C978 1.403 . S
C977 H998 0.934 . S
C978 C973 1.413 . S
C978 C977 1.403 . S
C978 H999 0.930 . S
C979 O990 1.275 . S
C979 O991 1.256 . S
O980 Ho960 2.322 . S
O980 C962 1.259 . S
O981 Ho961 2.346 . S
O981 C962 1.268 . S
O982 Ho960 2.378 . S
O982 C963 1.215 . S
O983 Ho960 2.524 . S
O983 C963 1.289 . S
O984 Ho960 2.381 . S
O984 C970 1.275 . S
O985 Ho960 2.669 . S
O985 Ho961 2.305 . S
O985 C970 1.256 . S
O986 Ho961 2.322 . S
O986 C971 1.259 . S
O987 Ho960 2.346 . S
O987 C971 1.268 . S
O988 Ho961 2.378 . S
O988 C972 1.215 . S
O989 Ho961 2.524 . S
O989 C972 1.289 . S
O990 Ho961 2.381 . S
O990 C979 1.275 . S
O991 Ho960 2.305 . S
O991 Ho961 2.669 . S
O991 C979 1.256 . S
H992 C965 0.930 . S
H993 C966 0.931 . S
H994 C968 0.934 . S
H995 C969 0.930 . S
H996 C974 0.930 . S
H997 C975 0.931 . S
H998 C977 0.934 . S
H999 C978 0.930 . S
Ho1000 C1003 2.811 . S
Ho1000 O1020 2.322 . S
Ho1000 O1022 2.378 . S
Ho1000 O1023 2.524 . S
Ho1000 O1024 2.381 . S
Ho1000 O1025 2.669 . S
Ho1000 O1027 2.346 . S
Ho1000 O1031 2.305 . S
Ho1001 C1012 2.811 . S
Ho1001 O1021 2.346 . S
Ho1001 O1025 2.305 . S
Ho1001 O1026 2.322 . S
Ho1001 O1028 2.378 . S
Ho1001 O1029 2.524 . S
Ho1001 O1030 2.381 . S
Ho1001 O1031 2.669 . S
C1002 O1020 1.259 . S
C1002 O1021 1.268 . S
C1003 Ho1000 2.811 . S
C1003 C1004 1.488 . S
C1003 O1022 1.215 . S
C1003 O1023 1.289 . S
C1004 C1003 1.488 . S
C1004 C1005 1.348 . S
C1004 C1009 1.413 . S
C1005 C1004 1.348 . S
C1005 C1006 1.442 . S
C1005 H1032 0.930 . S
C1006 C1005 1.442 . S
C1006 C1007 1.381 . S
C1006 H1033 0.931 . S
C1007 C1006 1.381 . S
C1007 C1008 1.321 . S
C1008 C1007 1.321 . S
C1008 C1009 1.403 . S
C1008 H1034 0.934 . S
C1009 C1004 1.413 . S
C1009 C1008 1.403 . S
C1009 H1035 0.930 . S
C1010 O1024 1.275 . S
C1010 O1025 1.256 . S
C1011 O1026 1.259 . S
C1011 O1027 1.268 . S
C1012 Ho1001 2.811 . S
C1012 C1013 1.488 . S
C1012 O1028 1.215 . S
C1012 O1029 1.289 . S
C1013 C1012 1.488 . S
C1013 C1014 1.348 . S
C1013 C1018 1.413 . S
C1014 C1013 1.348 . S
C1014 C1015 1.442 . S
C1014 H1036 0.930 . S
C1015 C1014 1.442 . S
C1015 C1016 1.381 . S
C1015 H1037 0.931 . S
C1016 C1015 1.381 . S
C1016 C1017 1.321 . S
C1017 C1016 1.321 . S
C1017 C1018 1.403 . S
C1017 H1038 0.934 . S
C1018 C1013 1.413 . S
C1018 C1017 1.403 . S
C1018 H1039 0.930 . S
C1019 O1030 1.275 . S
C1019 O1031 1.256 . S
O1020 Ho1000 2.322 . S
O1020 C1002 1.259 . S
O1021 Ho1001 2.346 . S
O1021 C1002 1.268 . S
O1022 Ho1000 2.378 . S
O1022 C1003 1.215 . S
O1023 Ho1000 2.524 . S
O1023 C1003 1.289 . S
O1024 Ho1000 2.381 . S
O1024 C1010 1.275 . S
O1025 Ho1000 2.669 . S
O1025 Ho1001 2.305 . S
O1025 C1010 1.256 . S
O1026 Ho1001 2.322 . S
O1026 C1011 1.259 . S
O1027 Ho1000 2.346 . S
O1027 C1011 1.268 . S
O1028 Ho1001 2.378 . S
O1028 C1012 1.215 . S
O1029 Ho1001 2.524 . S
O1029 C1012 1.289 . S
O1030 Ho1001 2.381 . S
O1030 C1019 1.275 . S
O1031 Ho1000 2.305 . S
O1031 Ho1001 2.669 . S
O1031 C1019 1.256 . S
H1032 C1005 0.930 . S
H1033 C1006 0.931 . S
H1034 C1008 0.934 . S
H1035 C1009 0.930 . S
H1036 C1014 0.930 . S
H1037 C1015 0.931 . S
H1038 C1017 0.934 . S
H1039 C1018 0.930 . S
Ho1040 C1043 2.811 . S
Ho1040 O1060 2.322 . S
Ho1040 O1062 2.378 . S
Ho1040 O1063 2.524 . S
Ho1040 O1064 2.381 . S
Ho1040 O1065 2.669 . S
Ho1040 O1067 2.346 . S
Ho1040 O1071 2.305 . S
Ho1041 C1052 2.811 . S
Ho1041 O1061 2.346 . S
Ho1041 O1065 2.305 . S
Ho1041 O1066 2.322 . S
Ho1041 O1068 2.378 . S
Ho1041 O1069 2.524 . S
Ho1041 O1070 2.381 . S
Ho1041 O1071 2.669 . S
C1042 O1060 1.259 . S
C1042 O1061 1.268 . S
C1043 Ho1040 2.811 . S
C1043 C1044 1.488 . S
C1043 O1062 1.215 . S
C1043 O1063 1.289 . S
C1044 C1043 1.488 . S
C1044 C1045 1.348 . S
C1044 C1049 1.413 . S
C1045 C1044 1.348 . S
C1045 C1046 1.442 . S
C1045 H1072 0.930 . S
C1046 C1045 1.442 . S
C1046 C1047 1.381 . S
C1046 H1073 0.931 . S
C1047 C1046 1.381 . S
C1047 C1048 1.321 . S
C1048 C1047 1.321 . S
C1048 C1049 1.403 . S
C1048 H1074 0.934 . S
C1049 C1044 1.413 . S
C1049 C1048 1.403 . S
C1049 H1075 0.930 . S
C1050 O1064 1.275 . S
C1050 O1065 1.256 . S
C1051 O1066 1.259 . S
C1051 O1067 1.268 . S
C1052 Ho1041 2.811 . S
C1052 C1053 1.488 . S
C1052 O1068 1.215 . S
C1052 O1069 1.289 . S
C1053 C1052 1.488 . S
C1053 C1054 1.348 . S
C1053 C1058 1.413 . S
C1054 C1053 1.348 . S
C1054 C1055 1.442 . S
C1054 H1076 0.930 . S
C1055 C1054 1.442 . S
C1055 C1056 1.381 . S
C1055 H1077 0.931 . S
C1056 C1055 1.381 . S
C1056 C1057 1.321 . S
C1057 C1056 1.321 . S
C1057 C1058 1.403 . S
C1057 H1078 0.934 . S
C1058 C1053 1.413 . S
C1058 C1057 1.403 . S
C1058 H1079 0.930 . S
C1059 O1070 1.275 . S
C1059 O1071 1.256 . S
O1060 Ho1040 2.322 . S
O1060 C1042 1.259 . S
O1061 Ho1041 2.346 . S
O1061 C1042 1.268 . S
O1062 Ho1040 2.378 . S
O1062 C1043 1.215 . S
O1063 Ho1040 2.524 . S
O1063 C1043 1.289 . S
O1064 Ho1040 2.381 . S
O1064 C1050 1.275 . S
O1065 Ho1040 2.669 . S
O1065 Ho1041 2.305 . S
O1065 C1050 1.256 . S
O1066 Ho1041 2.322 . S
O1066 C1051 1.259 . S
O1067 Ho1040 2.346 . S
O1067 C1051 1.268 . S
O1068 Ho1041 2.378 . S
O1068 C1052 1.215 . S
O1069 Ho1041 2.524 . S
O1069 C1052 1.289 . S
O1070 Ho1041 2.381 . S
O1070 C1059 1.275 . S
O1071 Ho1040 2.305 . S
O1071 Ho1041 2.669 . S
O1071 C1059 1.256 . S
H1072 C1045 0.930 . S
H1073 C1046 0.931 . S
H1074 C1048 0.934 . S
H1075 C1049 0.930 . S
H1076 C1054 0.930 . S
H1077 C1055 0.931 . S
H1078 C1057 0.934 . S
H1079 C1058 0.930 . S
Ho1080 C1083 2.811 . S
Ho1080 O1100 2.322 . S
Ho1080 O1102 2.378 . S
Ho1080 O1103 2.524 . S
Ho1080 O1104 2.381 . S
Ho1080 O1105 2.669 . S
Ho1080 O1107 2.346 . S
Ho1080 O1111 2.305 . S
Ho1081 C1092 2.811 . S
Ho1081 O1101 2.346 . S
Ho1081 O1105 2.305 1_655 S
Ho1081 O1106 2.322 1_655 S
Ho1081 O1108 2.378 . S
Ho1081 O1109 2.524 . S
Ho1081 O1110 2.381 1_655 S
Ho1081 O1111 2.669 1_655 S
C1082 O1100 1.259 . S
C1082 O1101 1.268 1_455 S
C1083 Ho1080 2.811 . S
C1083 C1084 1.488 . S
C1083 O1102 1.215 . S
C1083 O1103 1.289 . S
C1084 C1083 1.488 . S
C1084 C1085 1.348 . S
C1084 C1089 1.413 . S
C1085 C1084 1.348 . S
C1085 C1086 1.442 . S
C1085 H1112 0.930 . S
C1086 C1085 1.442 . S
C1086 C1087 1.381 . S
C1086 H1113 0.931 . S
C1087 C1086 1.381 . S
C1087 C1088 1.321 . S
C1088 C1087 1.321 . S
C1088 C1089 1.403 . S
C1088 H1114 0.934 . S
C1089 C1084 1.413 . S
C1089 C1088 1.403 . S
C1089 H1115 0.930 . S
C1090 O1104 1.275 . S
C1090 O1105 1.256 . S
C1091 O1106 1.259 . S
C1091 O1107 1.268 . S
C1092 Ho1081 2.811 . S
C1092 C1093 1.488 . S
C1092 O1108 1.215 . S
C1092 O1109 1.289 . S
C1093 C1092 1.488 . S
C1093 C1094 1.348 . S
C1093 C1098 1.413 . S
C1094 C1093 1.348 . S
C1094 C1095 1.442 . S
C1094 H1116 0.930 . S
C1095 C1094 1.442 . S
C1095 C1096 1.381 . S
C1095 H1117 0.931 . S
C1096 C1095 1.381 . S
C1096 C1097 1.321 . S
C1097 C1096 1.321 . S
C1097 C1098 1.403 . S
C1097 H1118 0.934 . S
C1098 C1093 1.413 . S
C1098 C1097 1.403 . S
C1098 H1119 0.930 . S
C1099 O1110 1.275 . S
C1099 O1111 1.256 . S
O1100 Ho1080 2.322 . S
O1100 C1082 1.259 . S
O1101 Ho1081 2.346 . S
O1101 C1082 1.268 1_655 S
O1102 Ho1080 2.378 . S
O1102 C1083 1.215 . S
O1103 Ho1080 2.524 . S
O1103 C1083 1.289 . S
O1104 Ho1080 2.381 . S
O1104 C1090 1.275 . S
O1105 Ho1080 2.669 . S
O1105 Ho1081 2.305 1_455 S
O1105 C1090 1.256 . S
O1106 Ho1081 2.322 1_455 S
O1106 C1091 1.259 . S
O1107 Ho1080 2.346 . S
O1107 C1091 1.268 . S
O1108 Ho1081 2.378 . S
O1108 C1092 1.215 . S
O1109 Ho1081 2.524 . S
O1109 C1092 1.289 . S
O1110 Ho1081 2.381 1_455 S
O1110 C1099 1.275 . S
O1111 Ho1080 2.305 . S
O1111 Ho1081 2.669 1_455 S
O1111 C1099 1.256 . S
H1112 C1085 0.930 . S
H1113 C1086 0.931 . S
H1114 C1088 0.934 . S
H1115 C1089 0.930 . S
H1116 C1094 0.930 . S
H1117 C1095 0.931 . S
H1118 C1097 0.934 . S
H1119 C1098 0.930 . S
Ho1120 C1123 2.811 . S
Ho1120 O1140 2.322 . S
Ho1120 O1142 2.378 . S
Ho1120 O1143 2.524 . S
Ho1120 O1144 2.381 . S
Ho1120 O1145 2.669 . S
Ho1120 O1147 2.346 . S
Ho1120 O1151 2.305 . S
Ho1121 C1132 2.811 . S
Ho1121 O1141 2.346 . S
Ho1121 O1145 2.305 . S
Ho1121 O1146 2.322 . S
Ho1121 O1148 2.378 . S
Ho1121 O1149 2.524 . S
Ho1121 O1150 2.381 . S
Ho1121 O1151 2.669 . S
C1122 O1140 1.259 . S
C1122 O1141 1.268 . S
C1123 Ho1120 2.811 . S
C1123 C1124 1.488 . S
C1123 O1142 1.215 . S
C1123 O1143 1.289 . S
C1124 C1123 1.488 . S
C1124 C1125 1.348 . S
C1124 C1129 1.413 . S
C1125 C1124 1.348 . S
C1125 C1126 1.442 . S
C1125 H1152 0.930 . S
C1126 C1125 1.442 . S
C1126 C1127 1.381 . S
C1126 H1153 0.931 . S
C1127 C1126 1.381 . S
C1127 C1128 1.321 . S
C1128 C1127 1.321 . S
C1128 C1129 1.403 . S
C1128 H1154 0.934 . S
C1129 C1124 1.413 . S
C1129 C1128 1.403 . S
C1129 H1155 0.930 . S
C1130 O1144 1.275 . S
C1130 O1145 1.256 . S
C1131 O1146 1.259 . S
C1131 O1147 1.268 . S
C1132 Ho1121 2.811 . S
C1132 C1133 1.488 . S
C1132 O1148 1.215 . S
C1132 O1149 1.289 . S
C1133 C1132 1.488 . S
C1133 C1134 1.348 . S
C1133 C1138 1.413 . S
C1134 C1133 1.348 . S
C1134 C1135 1.442 . S
C1134 H1156 0.930 . S
C1135 C1134 1.442 . S
C1135 C1136 1.381 . S
C1135 H1157 0.931 . S
C1136 C1135 1.381 . S
C1136 C1137 1.321 . S
C1137 C1136 1.321 . S
C1137 C1138 1.403 . S
C1137 H1158 0.934 . S
C1138 C1133 1.413 . S
C1138 C1137 1.403 . S
C1138 H1159 0.930 . S
C1139 O1150 1.275 . S
C1139 O1151 1.256 . S
O1140 Ho1120 2.322 . S
O1140 C1122 1.259 . S
O1141 Ho1121 2.346 . S
O1141 C1122 1.268 . S
O1142 Ho1120 2.378 . S
O1142 C1123 1.215 . S
O1143 Ho1120 2.524 . S
O1143 C1123 1.289 . S
O1144 Ho1120 2.381 . S
O1144 C1130 1.275 . S
O1145 Ho1120 2.669 . S
O1145 Ho1121 2.305 . S
O1145 C1130 1.256 . S
O1146 Ho1121 2.322 . S
O1146 C1131 1.259 . S
O1147 Ho1120 2.346 . S
O1147 C1131 1.268 . S
O1148 Ho1121 2.378 . S
O1148 C1132 1.215 . S
O1149 Ho1121 2.524 . S
O1149 C1132 1.289 . S
O1150 Ho1121 2.381 . S
O1150 C1139 1.275 . S
O1151 Ho1120 2.305 . S
O1151 Ho1121 2.669 . S
O1151 C1139 1.256 . S
H1152 C1125 0.930 . S
H1153 C1126 0.931 . S
H1154 C1128 0.934 . S
H1155 C1129 0.930 . S
H1156 C1134 0.930 . S
H1157 C1135 0.931 . S
H1158 C1137 0.934 . S
H1159 C1138 0.930 . S
Ho1160 C1163 2.811 . S
Ho1160 O1180 2.322 . S
Ho1160 O1182 2.378 . S
Ho1160 O1183 2.524 . S
Ho1160 O1184 2.381 . S
Ho1160 O1185 2.669 . S
Ho1160 O1187 2.346 . S
Ho1160 O1191 2.305 . S
Ho1161 C1172 2.811 . S
Ho1161 O1181 2.346 . S
Ho1161 O1185 2.305 1_655 S
Ho1161 O1186 2.322 1_655 S
Ho1161 O1188 2.378 . S
Ho1161 O1189 2.524 . S
Ho1161 O1190 2.381 1_655 S
Ho1161 O1191 2.669 1_655 S
C1162 O1180 1.259 . S
C1162 O1181 1.268 1_455 S
C1163 Ho1160 2.811 . S
C1163 C1164 1.488 . S
C1163 O1182 1.215 . S
C1163 O1183 1.289 . S
C1164 C1163 1.488 . S
C1164 C1165 1.348 . S
C1164 C1169 1.413 . S
C1165 C1164 1.348 . S
C1165 C1166 1.442 . S
C1165 H1192 0.930 . S
C1166 C1165 1.442 . S
C1166 C1167 1.381 . S
C1166 H1193 0.931 . S
C1167 C1166 1.381 . S
C1167 C1168 1.321 . S
C1168 C1167 1.321 . S
C1168 C1169 1.403 . S
C1168 H1194 0.934 . S
C1169 C1164 1.413 . S
C1169 C1168 1.403 . S
C1169 H1195 0.930 . S
C1170 O1184 1.275 . S
C1170 O1185 1.256 . S
C1171 O1186 1.259 . S
C1171 O1187 1.268 . S
C1172 Ho1161 2.811 . S
C1172 C1173 1.488 . S
C1172 O1188 1.215 . S
C1172 O1189 1.289 . S
C1173 C1172 1.488 . S
C1173 C1174 1.348 . S
C1173 C1178 1.413 . S
C1174 C1173 1.348 . S
C1174 C1175 1.442 . S
C1174 H1196 0.930 . S
C1175 C1174 1.442 . S
C1175 C1176 1.381 . S
C1175 H1197 0.931 . S
C1176 C1175 1.381 . S
C1176 C1177 1.321 . S
C1177 C1176 1.321 . S
C1177 C1178 1.403 . S
C1177 H1198 0.934 . S
C1178 C1173 1.413 . S
C1178 C1177 1.403 . S
C1178 H1199 0.930 . S
C1179 O1190 1.275 . S
C1179 O1191 1.256 . S
O1180 Ho1160 2.322 . S
O1180 C1162 1.259 . S
O1181 Ho1161 2.346 . S
O1181 C1162 1.268 1_655 S
O1182 Ho1160 2.378 . S
O1182 C1163 1.215 . S
O1183 Ho1160 2.524 . S
O1183 C1163 1.289 . S
O1184 Ho1160 2.381 . S
O1184 C1170 1.275 . S
O1185 Ho1160 2.669 . S
O1185 Ho1161 2.305 1_455 S
O1185 C1170 1.256 . S
O1186 Ho1161 2.322 1_455 S
O1186 C1171 1.259 . S
O1187 Ho1160 2.346 . S
O1187 C1171 1.268 . S
O1188 Ho1161 2.378 . S
O1188 C1172 1.215 . S
O1189 Ho1161 2.524 . S
O1189 C1172 1.289 . S
O1190 Ho1161 2.381 1_455 S
O1190 C1179 1.275 . S
O1191 Ho1160 2.305 . S
O1191 Ho1161 2.669 1_455 S
O1191 C1179 1.256 . S
H1192 C1165 0.930 . S
H1193 C1166 0.931 . S
H1194 C1168 0.934 . S
H1195 C1169 0.930 . S
H1196 C1174 0.930 . S
H1197 C1175 0.931 . S
H1198 C1177 0.934 . S
H1199 C1178 0.930 . S
Ho1200 C1203 2.811 . S
Ho1200 O1220 2.322 . S
Ho1200 O1222 2.378 . S
Ho1200 O1223 2.524 . S
Ho1200 O1224 2.381 . S
Ho1200 O1225 2.669 . S
Ho1200 O1227 2.346 . S
Ho1200 O1231 2.305 . S
Ho1201 C1212 2.811 . S
Ho1201 O1221 2.346 . S
Ho1201 O1225 2.305 . S
Ho1201 O1226 2.322 . S
Ho1201 O1228 2.378 . S
Ho1201 O1229 2.524 . S
Ho1201 O1230 2.381 . S
Ho1201 O1231 2.669 . S
C1202 O1220 1.259 . S
C1202 O1221 1.268 . S
C1203 Ho1200 2.811 . S
C1203 C1204 1.488 . S
C1203 O1222 1.215 . S
C1203 O1223 1.289 . S
C1204 C1203 1.488 . S
C1204 C1205 1.348 . S
C1204 C1209 1.413 . S
C1205 C1204 1.348 . S
C1205 C1206 1.442 . S
C1205 H1232 0.930 . S
C1206 C1205 1.442 . S
C1206 C1207 1.381 . S
C1206 H1233 0.931 . S
C1207 C1206 1.381 . S
C1207 C1208 1.321 . S
C1208 C1207 1.321 . S
C1208 C1209 1.403 . S
C1208 H1234 0.934 . S
C1209 C1204 1.413 . S
C1209 C1208 1.403 . S
C1209 H1235 0.930 . S
C1210 O1224 1.275 . S
C1210 O1225 1.256 . S
C1211 O1226 1.259 . S
C1211 O1227 1.268 . S
C1212 Ho1201 2.811 . S
C1212 C1213 1.488 . S
C1212 O1228 1.215 . S
C1212 O1229 1.289 . S
C1213 C1212 1.488 . S
C1213 C1214 1.348 . S
C1213 C1218 1.413 . S
C1214 C1213 1.348 . S
C1214 C1215 1.442 . S
C1214 H1236 0.930 . S
C1215 C1214 1.442 . S
C1215 C1216 1.381 . S
C1215 H1237 0.931 . S
C1216 C1215 1.381 . S
C1216 C1217 1.321 . S
C1217 C1216 1.321 . S
C1217 C1218 1.403 . S
C1217 H1238 0.934 . S
C1218 C1213 1.413 . S
C1218 C1217 1.403 . S
C1218 H1239 0.930 . S
C1219 O1230 1.275 . S
C1219 O1231 1.256 . S
O1220 Ho1200 2.322 . S
O1220 C1202 1.259 . S
O1221 Ho1201 2.346 . S
O1221 C1202 1.268 . S
O1222 Ho1200 2.378 . S
O1222 C1203 1.215 . S
O1223 Ho1200 2.524 . S
O1223 C1203 1.289 . S
O1224 Ho1200 2.381 . S
O1224 C1210 1.275 . S
O1225 Ho1200 2.669 . S
O1225 Ho1201 2.305 . S
O1225 C1210 1.256 . S
O1226 Ho1201 2.322 . S
O1226 C1211 1.259 . S
O1227 Ho1200 2.346 . S
O1227 C1211 1.268 . S
O1228 Ho1201 2.378 . S
O1228 C1212 1.215 . S
O1229 Ho1201 2.524 . S
O1229 C1212 1.289 . S
O1230 Ho1201 2.381 . S
O1230 C1219 1.275 . S
O1231 Ho1200 2.305 . S
O1231 Ho1201 2.669 . S
O1231 C1219 1.256 . S
H1232 C1205 0.930 . S
H1233 C1206 0.931 . S
H1234 C1208 0.934 . S
H1235 C1209 0.930 . S
H1236 C1214 0.930 . S
H1237 C1215 0.931 . S
H1238 C1217 0.934 . S
H1239 C1218 0.930 . S
Ho1240 C1243 2.811 . S
Ho1240 O1260 2.322 . S
Ho1240 O1262 2.378 . S
Ho1240 O1263 2.524 . S
Ho1240 O1264 2.381 . S
Ho1240 O1265 2.669 . S
Ho1240 O1267 2.346 . S
Ho1240 O1271 2.305 . S
Ho1241 C1252 2.811 . S
Ho1241 O1261 2.346 . S
Ho1241 O1265 2.305 . S
Ho1241 O1266 2.322 . S
Ho1241 O1268 2.378 . S
Ho1241 O1269 2.524 . S
Ho1241 O1270 2.381 . S
Ho1241 O1271 2.669 . S
C1242 O1260 1.259 . S
C1242 O1261 1.268 . S
C1243 Ho1240 2.811 . S
C1243 C1244 1.488 . S
C1243 O1262 1.215 . S
C1243 O1263 1.289 . S
C1244 C1243 1.488 . S
C1244 C1245 1.348 . S
C1244 C1249 1.413 . S
C1245 C1244 1.348 . S
C1245 C1246 1.442 . S
C1245 H1272 0.930 . S
C1246 C1245 1.442 . S
C1246 C1247 1.381 . S
C1246 H1273 0.931 . S
C1247 C1246 1.381 . S
C1247 C1248 1.321 . S
C1248 C1247 1.321 . S
C1248 C1249 1.403 . S
C1248 H1274 0.934 . S
C1249 C1244 1.413 . S
C1249 C1248 1.403 . S
C1249 H1275 0.930 . S
C1250 O1264 1.275 . S
C1250 O1265 1.256 . S
C1251 O1266 1.259 . S
C1251 O1267 1.268 . S
C1252 Ho1241 2.811 . S
C1252 C1253 1.488 . S
C1252 O1268 1.215 . S
C1252 O1269 1.289 . S
C1253 C1252 1.488 . S
C1253 C1254 1.348 . S
C1253 C1258 1.413 . S
C1254 C1253 1.348 . S
C1254 C1255 1.442 . S
C1254 H1276 0.930 . S
C1255 C1254 1.442 . S
C1255 C1256 1.381 . S
C1255 H1277 0.931 . S
C1256 C1255 1.381 . S
C1256 C1257 1.321 . S
C1257 C1256 1.321 . S
C1257 C1258 1.403 . S
C1257 H1278 0.934 . S
C1258 C1253 1.413 . S
C1258 C1257 1.403 . S
C1258 H1279 0.930 . S
C1259 O1270 1.275 . S
C1259 O1271 1.256 . S
O1260 Ho1240 2.322 . S
O1260 C1242 1.259 . S
O1261 Ho1241 2.346 . S
O1261 C1242 1.268 . S
O1262 Ho1240 2.378 . S
O1262 C1243 1.215 . S
O1263 Ho1240 2.524 . S
O1263 C1243 1.289 . S
O1264 Ho1240 2.381 . S
O1264 C1250 1.275 . S
O1265 Ho1240 2.669 . S
O1265 Ho1241 2.305 . S
O1265 C1250 1.256 . S
O1266 Ho1241 2.322 . S
O1266 C1251 1.259 . S
O1267 Ho1240 2.346 . S
O1267 C1251 1.268 . S
O1268 Ho1241 2.378 . S
O1268 C1252 1.215 . S
O1269 Ho1241 2.524 . S
O1269 C1252 1.289 . S
O1270 Ho1241 2.381 . S
O1270 C1259 1.275 . S
O1271 Ho1240 2.305 . S
O1271 Ho1241 2.669 . S
O1271 C1259 1.256 . S
H1272 C1245 0.930 . S
H1273 C1246 0.931 . S
H1274 C1248 0.934 . S
H1275 C1249 0.930 . S
H1276 C1254 0.930 . S
H1277 C1255 0.931 . S
H1278 C1257 0.934 . S
H1279 C1258 0.930 . S
H1280 C1286 0.930 . S
H1281 C1289 0.930 . S
H1282 C1290 0.930 . S
H1283 C1291 0.930 . S
H1284 C1294 0.930 . S
H1285 C1295 0.930 . S
C1286 H1280 0.930 . S
C1286 C1287 1.355 . S
C1286 C1288 1.415 . S
C1287 C1286 1.355 . S
C1287 C1289 1.419 . S
C1288 C1286 1.415 . S
C1288 C1293 1.425 . S
C1288 C1295 1.409 . S
C1289 H1281 0.930 . S
C1289 C1287 1.419 . S
C1289 C1290 1.362 . S
C1290 H1282 0.930 . S
C1290 C1289 1.362 . S
C1290 C1293 1.409 . S
C1291 H1283 0.930 . S
C1291 C1292 1.355 . S
C1291 C1293 1.415 . S
C1292 C1291 1.355 . S
C1292 C1294 1.419 . S
C1293 C1288 1.425 . S
C1293 C1290 1.409 . S
C1293 C1291 1.415 . S
C1294 H1284 0.930 . S
C1294 C1292 1.419 . S
C1294 C1295 1.362 . S
C1295 H1285 0.930 . S
C1295 C1288 1.409 . S
C1295 C1294 1.362 . S
H1296 C1302 0.930 . S
H1297 C1305 0.930 . S
H1298 C1306 0.930 . S
H1299 C1307 0.930 . S
H1300 C1310 0.930 . S
H1301 C1311 0.930 . S
C1302 H1296 0.930 . S
C1302 C1303 1.355 . S
C1302 C1304 1.415 . S
C1303 C1302 1.355 . S
C1303 C1305 1.419 . S
C1304 C1302 1.415 . S
C1304 C1309 1.425 . S
C1304 C1311 1.409 . S
C1305 H1297 0.930 . S
C1305 C1303 1.419 . S
C1305 C1306 1.362 . S
C1306 H1298 0.930 . S
C1306 C1305 1.362 . S
C1306 C1309 1.409 . S
C1307 H1299 0.930 . S
C1307 C1308 1.355 . S
C1307 C1309 1.415 . S
C1308 C1307 1.355 . S
C1308 C1310 1.419 . S
C1309 C1304 1.425 . S
C1309 C1306 1.409 . S
C1309 C1307 1.415 . S
C1310 H1300 0.930 . S
C1310 C1308 1.419 . S
C1310 C1311 1.362 . S
C1311 H1301 0.930 . S
C1311 C1304 1.409 . S
C1311 C1310 1.362 . S
H1312 C1318 0.930 . S
H1313 C1321 0.930 . S
H1314 C1322 0.930 . S
H1315 C1323 0.930 . S
H1316 C1326 0.930 . S
H1317 C1327 0.930 . S
C1318 H1312 0.930 . S
C1318 C1319 1.355 . S
C1318 C1320 1.415 . S
C1319 C1318 1.355 . S
C1319 C1321 1.419 . S
C1320 C1318 1.415 . S
C1320 C1325 1.425 . S
C1320 C1327 1.409 . S
C1321 H1313 0.930 . S
C1321 C1319 1.419 . S
C1321 C1322 1.362 . S
C1322 H1314 0.930 . S
C1322 C1321 1.362 . S
C1322 C1325 1.409 . S
C1323 H1315 0.930 . S
C1323 C1324 1.355 . S
C1323 C1325 1.415 . S
C1324 C1323 1.355 . S
C1324 C1326 1.419 . S
C1325 C1320 1.425 . S
C1325 C1322 1.409 . S
C1325 C1323 1.415 . S
C1326 H1316 0.930 . S
C1326 C1324 1.419 . S
C1326 C1327 1.362 . S
C1327 H1317 0.930 . S
C1327 C1320 1.409 . S
C1327 C1326 1.362 . S
H1328 C1334 0.930 . S
H1329 C1337 0.930 . S
H1330 C1338 0.930 . S
H1331 C1339 0.930 . S
H1332 C1342 0.930 . S
H1333 C1343 0.930 . S
C1334 H1328 0.930 . S
C1334 C1335 1.355 . S
C1334 C1336 1.415 . S
C1335 C1334 1.355 . S
C1335 C1337 1.419 . S
C1336 C1334 1.415 . S
C1336 C1341 1.425 . S
C1336 C1343 1.409 . S
C1337 H1329 0.930 . S
C1337 C1335 1.419 . S
C1337 C1338 1.362 . S
C1338 H1330 0.930 . S
C1338 C1337 1.362 . S
C1338 C1341 1.409 . S
C1339 H1331 0.930 . S
C1339 C1340 1.355 . S
C1339 C1341 1.415 . S
C1340 C1339 1.355 . S
C1340 C1342 1.419 . S
C1341 C1336 1.425 . S
C1341 C1338 1.409 . S
C1341 C1339 1.415 . S
C1342 H1332 0.930 . S
C1342 C1340 1.419 . S
C1342 C1343 1.362 . S
C1343 H1333 0.930 . S
C1343 C1336 1.409 . S
C1343 C1342 1.362 . S
H1344 C1350 0.930 . S
H1345 C1353 0.930 . S
H1346 C1354 0.930 . S
H1347 C1355 0.930 . S
H1348 C1358 0.930 . S
H1349 C1359 0.930 . S
C1350 H1344 0.930 . S
C1350 C1351 1.355 . S
C1350 C1352 1.415 . S
C1351 C1350 1.355 . S
C1351 C1353 1.419 . S
C1352 C1350 1.415 . S
C1352 C1357 1.425 . S
C1352 C1359 1.409 . S
C1353 H1345 0.930 . S
C1353 C1351 1.419 . S
C1353 C1354 1.362 . S
C1354 H1346 0.930 . S
C1354 C1353 1.362 . S
C1354 C1357 1.409 . S
C1355 H1347 0.930 . S
C1355 C1356 1.355 . S
C1355 C1357 1.415 . S
C1356 C1355 1.355 . S
C1356 C1358 1.419 . S
C1357 C1352 1.425 . S
C1357 C1354 1.409 . S
C1357 C1355 1.415 . S
C1358 H1348 0.930 . S
C1358 C1356 1.419 . S
C1358 C1359 1.362 . S
C1359 H1349 0.930 . S
C1359 C1352 1.409 . S
C1359 C1358 1.362 . S
H1360 C1366 0.930 . S
H1361 C1369 0.930 . S
H1362 C1370 0.930 . S
H1363 C1371 0.930 . S
H1364 C1374 0.930 . S
H1365 C1375 0.930 . S
C1366 H1360 0.930 . S
C1366 C1367 1.355 . S
C1366 C1368 1.415 . S
C1367 C1366 1.355 . S
C1367 C1369 1.419 . S
C1368 C1366 1.415 . S
C1368 C1373 1.425 . S
C1368 C1375 1.409 . S
C1369 H1361 0.930 . S
C1369 C1367 1.419 . S
C1369 C1370 1.362 . S
C1370 H1362 0.930 . S
C1370 C1369 1.362 . S
C1370 C1373 1.409 . S
C1371 H1363 0.930 . S
C1371 C1372 1.355 . S
C1371 C1373 1.415 . S
C1372 C1371 1.355 . S
C1372 C1374 1.419 . S
C1373 C1368 1.425 . S
C1373 C1370 1.409 . S
C1373 C1371 1.415 . S
C1374 H1364 0.930 . S
C1374 C1372 1.419 . S
C1374 C1375 1.362 . S
C1375 H1365 0.930 . S
C1375 C1368 1.409 . S
C1375 C1374 1.362 . S
H1376 C1382 0.930 . S
H1377 C1385 0.930 . S
H1378 C1386 0.930 . S
H1379 C1387 0.930 . S
H1380 C1390 0.930 . S
H1381 C1391 0.930 . S
C1382 H1376 0.930 . S
C1382 C1383 1.355 . S
C1382 C1384 1.415 . S
C1383 C1382 1.355 . S
C1383 C1385 1.419 . S
C1384 C1382 1.415 . S
C1384 C1389 1.425 . S
C1384 C1391 1.409 . S
C1385 H1377 0.930 . S
C1385 C1383 1.419 . S
C1385 C1386 1.362 . S
C1386 H1378 0.930 . S
C1386 C1385 1.362 . S
C1386 C1389 1.409 . S
C1387 H1379 0.930 . S
C1387 C1388 1.355 . S
C1387 C1389 1.415 . S
C1388 C1387 1.355 . S
C1388 C1390 1.419 . S
C1389 C1384 1.425 . S
C1389 C1386 1.409 . S
C1389 C1387 1.415 . S
C1390 H1380 0.930 . S
C1390 C1388 1.419 . S
C1390 C1391 1.362 . S
C1391 H1381 0.930 . S
C1391 C1384 1.409 . S
C1391 C1390 1.362 . S
H1392 C1398 0.930 . S
H1393 C1401 0.930 . S
H1394 C1402 0.930 . S
H1395 C1403 0.930 . S
H1396 C1406 0.930 . S
H1397 C1407 0.930 . S
C1398 H1392 0.930 . S
C1398 C1399 1.355 . S
C1398 C1400 1.415 . S
C1399 C1398 1.355 . S
C1399 C1401 1.419 . S
C1400 C1398 1.415 . S
C1400 C1405 1.425 . S
C1400 C1407 1.409 . S
C1401 H1393 0.930 . S
C1401 C1399 1.419 . S
C1401 C1402 1.362 . S
C1402 H1394 0.930 . S
C1402 C1401 1.362 . S
C1402 C1405 1.409 . S
C1403 H1395 0.930 . S
C1403 C1404 1.355 . S
C1403 C1405 1.415 . S
C1404 C1403 1.355 . S
C1404 C1406 1.419 . S
C1405 C1400 1.425 . S
C1405 C1402 1.409 . S
C1405 C1403 1.415 . S
C1406 H1396 0.930 . S
C1406 C1404 1.419 . S
C1406 C1407 1.362 . S
C1407 H1397 0.930 . S
C1407 C1400 1.409 . S
C1407 C1406 1.362 . S
H1408 C1414 0.930 . S
H1409 C1417 0.930 . S
H1410 C1418 0.930 . S
H1411 C1419 0.930 . S
H1412 C1422 0.930 . S
H1413 C1423 0.930 . S
C1414 H1408 0.930 . S
C1414 C1415 1.355 . S
C1414 C1416 1.415 . S
C1415 C1414 1.355 . S
C1415 C1417 1.419 . S
C1416 C1414 1.415 . S
C1416 C1421 1.425 . S
C1416 C1423 1.409 . S
C1417 H1409 0.930 . S
C1417 C1415 1.419 . S
C1417 C1418 1.362 . S
C1418 H1410 0.930 . S
C1418 C1417 1.362 . S
C1418 C1421 1.409 . S
C1419 H1411 0.930 . S
C1419 C1420 1.355 . S
C1419 C1421 1.415 . S
C1420 C1419 1.355 . S
C1420 C1422 1.419 . S
C1421 C1416 1.425 . S
C1421 C1418 1.409 . S
C1421 C1419 1.415 . S
C1422 H1412 0.930 . S
C1422 C1420 1.419 . S
C1422 C1423 1.362 . S
C1423 H1413 0.930 . S
C1423 C1416 1.409 . S
C1423 C1422 1.362 . S
H1424 C1430 0.930 . S
H1425 C1433 0.930 . S
H1426 C1434 0.930 . S
H1427 C1435 0.930 . S
H1428 C1438 0.930 . S
H1429 C1439 0.930 . S
C1430 H1424 0.930 . S
C1430 C1431 1.355 . S
C1430 C1432 1.415 . S
C1431 C1430 1.355 . S
C1431 C1433 1.419 . S
C1432 C1430 1.415 . S
C1432 C1437 1.425 . S
C1432 C1439 1.409 . S
C1433 H1425 0.930 . S
C1433 C1431 1.419 . S
C1433 C1434 1.362 . S
C1434 H1426 0.930 . S
C1434 C1433 1.362 . S
C1434 C1437 1.409 . S
C1435 H1427 0.930 . S
C1435 C1436 1.355 . S
C1435 C1437 1.415 . S
C1436 C1435 1.355 . S
C1436 C1438 1.419 . S
C1437 C1432 1.425 . S
C1437 C1434 1.409 . S
C1437 C1435 1.415 . S
C1438 H1428 0.930 . S
C1438 C1436 1.419 . S
C1438 C1439 1.362 . S
C1439 H1429 0.930 . S
C1439 C1432 1.409 . S
C1439 C1438 1.362 . S
H1440 C1446 0.930 . S
H1441 C1449 0.930 . S
H1442 C1450 0.930 . S
H1443 C1451 0.930 . S
H1444 C1454 0.930 . S
H1445 C1455 0.930 . S
C1446 H1440 0.930 . S
C1446 C1447 1.355 . S
C1446 C1448 1.415 . S
C1447 C1446 1.355 . S
C1447 C1449 1.419 . S
C1448 C1446 1.415 . S
C1448 C1453 1.425 . S
C1448 C1455 1.409 . S
C1449 H1441 0.930 . S
C1449 C1447 1.419 . S
C1449 C1450 1.362 . S
C1450 H1442 0.930 . S
C1450 C1449 1.362 . S
C1450 C1453 1.409 . S
C1451 H1443 0.930 . S
C1451 C1452 1.355 . S
C1451 C1453 1.415 . S
C1452 C1451 1.355 . S
C1452 C1454 1.419 . S
C1453 C1448 1.425 . S
C1453 C1450 1.409 . S
C1453 C1451 1.415 . S
C1454 H1444 0.930 . S
C1454 C1452 1.419 . S
C1454 C1455 1.362 . S
C1455 H1445 0.930 . S
C1455 C1448 1.409 . S
C1455 C1454 1.362 . S
H1456 C1462 0.930 . S
H1457 C1465 0.930 . S
H1458 C1466 0.930 . S
H1459 C1467 0.930 . S
H1460 C1470 0.930 . S
H1461 C1471 0.930 . S
C1462 H1456 0.930 . S
C1462 C1463 1.355 . S
C1462 C1464 1.415 . S
C1463 C1462 1.355 . S
C1463 C1465 1.419 . S
C1464 C1462 1.415 . S
C1464 C1469 1.425 . S
C1464 C1471 1.409 . S
C1465 H1457 0.930 . S
C1465 C1463 1.419 . S
C1465 C1466 1.362 . S
C1466 H1458 0.930 . S
C1466 C1465 1.362 . S
C1466 C1469 1.409 . S
C1467 H1459 0.930 . S
C1467 C1468 1.355 . S
C1467 C1469 1.415 . S
C1468 C1467 1.355 . S
C1468 C1470 1.419 . S
C1469 C1464 1.425 . S
C1469 C1466 1.409 . S
C1469 C1467 1.415 . S
C1470 H1460 0.930 . S
C1470 C1468 1.419 . S
C1470 C1471 1.362 . S
C1471 H1461 0.930 . S
C1471 C1464 1.409 . S
C1471 C1470 1.362 . S
H1472 C1478 0.930 . S
H1473 C1481 0.930 . S
H1474 C1482 0.930 . S
H1475 C1483 0.930 . S
H1476 C1486 0.930 . S
H1477 C1487 0.930 . S
C1478 H1472 0.930 . S
C1478 C1479 1.355 . S
C1478 C1480 1.415 . S
C1479 C1478 1.355 . S
C1479 C1481 1.419 . S
C1480 C1478 1.415 . S
C1480 C1485 1.425 . S
C1480 C1487 1.409 . S
C1481 H1473 0.930 . S
C1481 C1479 1.419 . S
C1481 C1482 1.362 . S
C1482 H1474 0.930 . S
C1482 C1481 1.362 . S
C1482 C1485 1.409 . S
C1483 H1475 0.930 . S
C1483 C1484 1.355 . S
C1483 C1485 1.415 . S
C1484 C1483 1.355 . S
C1484 C1486 1.419 . S
C1485 C1480 1.425 . S
C1485 C1482 1.409 . S
C1485 C1483 1.415 . S
C1486 H1476 0.930 . S
C1486 C1484 1.419 . S
C1486 C1487 1.362 . S
C1487 H1477 0.930 . S
C1487 C1480 1.409 . S
C1487 C1486 1.362 . S
H1488 C1494 0.930 . S
H1489 C1497 0.930 . S
H1490 C1498 0.930 . S
H1491 C1499 0.930 . S
H1492 C1502 0.930 . S
H1493 C1503 0.930 . S
C1494 H1488 0.930 . S
C1494 C1495 1.355 . S
C1494 C1496 1.415 . S
C1495 C1494 1.355 . S
C1495 C1497 1.419 . S
C1496 C1494 1.415 . S
C1496 C1501 1.425 . S
C1496 C1503 1.409 . S
C1497 H1489 0.930 . S
C1497 C1495 1.419 . S
C1497 C1498 1.362 . S
C1498 H1490 0.930 . S
C1498 C1497 1.362 . S
C1498 C1501 1.409 . S
C1499 H1491 0.930 . S
C1499 C1500 1.355 . S
C1499 C1501 1.415 . S
C1500 C1499 1.355 . S
C1500 C1502 1.419 . S
C1501 C1496 1.425 . S
C1501 C1498 1.409 . S
C1501 C1499 1.415 . S
C1502 H1492 0.930 . S
C1502 C1500 1.419 . S
C1502 C1503 1.362 . S
C1503 H1493 0.930 . S
C1503 C1496 1.409 . S
C1503 C1502 1.362 . S
H1504 C1510 0.930 . S
H1505 C1513 0.930 . S
H1506 C1514 0.930 . S
H1507 C1515 0.930 . S
H1508 C1518 0.930 . S
H1509 C1519 0.930 . S
C1510 H1504 0.930 . S
C1510 C1511 1.355 . S
C1510 C1512 1.415 . S
C1511 C1510 1.355 . S
C1511 C1513 1.419 . S
C1512 C1510 1.415 . S
C1512 C1517 1.425 . S
C1512 C1519 1.409 . S
C1513 H1505 0.930 . S
C1513 C1511 1.419 . S
C1513 C1514 1.362 . S
C1514 H1506 0.930 . S
C1514 C1513 1.362 . S
C1514 C1517 1.409 . S
C1515 H1507 0.930 . S
C1515 C1516 1.355 . S
C1515 C1517 1.415 . S
C1516 C1515 1.355 . S
C1516 C1518 1.419 . S
C1517 C1512 1.425 . S
C1517 C1514 1.409 . S
C1517 C1515 1.415 . S
C1518 H1508 0.930 . S
C1518 C1516 1.419 . S
C1518 C1519 1.362 . S
C1519 H1509 0.930 . S
C1519 C1512 1.409 . S
C1519 C1518 1.362 . S
H1520 C1526 0.930 . S
H1521 C1529 0.930 . S
H1522 C1530 0.930 . S
H1523 C1531 0.930 . S
H1524 C1534 0.930 . S
H1525 C1535 0.930 . S
C1526 H1520 0.930 . S
C1526 C1527 1.355 . S
C1526 C1528 1.415 . S
C1527 C1526 1.355 . S
C1527 C1529 1.419 . S
C1528 C1526 1.415 . S
C1528 C1533 1.425 . S
C1528 C1535 1.409 . S
C1529 H1521 0.930 . S
C1529 C1527 1.419 . S
C1529 C1530 1.362 . S
C1530 H1522 0.930 . S
C1530 C1529 1.362 . S
C1530 C1533 1.409 . S
C1531 H1523 0.930 . S
C1531 C1532 1.355 . S
C1531 C1533 1.415 . S
C1532 C1531 1.355 . S
C1532 C1534 1.419 . S
C1533 C1528 1.425 . S
C1533 C1530 1.409 . S
C1533 C1531 1.415 . S
C1534 H1524 0.930 . S
C1534 C1532 1.419 . S
C1534 C1535 1.362 . S
C1535 H1525 0.930 . S
C1535 C1528 1.409 . S
C1535 C1534 1.362 . S
H1536 C1542 0.930 . S
H1537 C1545 0.930 . S
H1538 C1546 0.930 . S
H1539 C1547 0.930 . S
H1540 C1550 0.930 . S
H1541 C1551 0.930 . S
C1542 H1536 0.930 . S
C1542 C1543 1.355 . S
C1542 C1544 1.415 . S
C1543 C1542 1.355 . S
C1543 C1545 1.419 . S
C1544 C1542 1.415 . S
C1544 C1549 1.425 . S
C1544 C1551 1.409 . S
C1545 H1537 0.930 . S
C1545 C1543 1.419 . S
C1545 C1546 1.362 . S
C1546 H1538 0.930 . S
C1546 C1545 1.362 . S
C1546 C1549 1.409 . S
C1547 H1539 0.930 . S
C1547 C1548 1.355 . S
C1547 C1549 1.415 . S
C1548 C1547 1.355 . S
C1548 C1550 1.419 . S
C1549 C1544 1.425 . S
C1549 C1546 1.409 . S
C1549 C1547 1.415 . S
C1550 H1540 0.930 . S
C1550 C1548 1.419 . S
C1550 C1551 1.362 . S
C1551 H1541 0.930 . S
C1551 C1544 1.409 . S
C1551 C1550 1.362 . S
H1552 C1558 0.930 . S
H1553 C1561 0.930 . S
H1554 C1562 0.930 . S
H1555 C1563 0.930 . S
H1556 C1566 0.930 . S
H1557 C1567 0.930 . S
C1558 H1552 0.930 . S
C1558 C1559 1.355 . S
C1558 C1560 1.415 . S
C1559 C1558 1.355 . S
C1559 C1561 1.419 . S
C1560 C1558 1.415 . S
C1560 C1565 1.425 . S
C1560 C1567 1.409 . S
C1561 H1553 0.930 . S
C1561 C1559 1.419 . S
C1561 C1562 1.362 . S
C1562 H1554 0.930 . S
C1562 C1561 1.362 . S
C1562 C1565 1.409 . S
C1563 H1555 0.930 . S
C1563 C1564 1.355 . S
C1563 C1565 1.415 . S
C1564 C1563 1.355 . S
C1564 C1566 1.419 . S
C1565 C1560 1.425 . S
C1565 C1562 1.409 . S
C1565 C1563 1.415 . S
C1566 H1556 0.930 . S
C1566 C1564 1.419 . S
C1566 C1567 1.362 . S
C1567 H1557 0.930 . S
C1567 C1560 1.409 . S
C1567 C1566 1.362 . S
H1568 C1574 0.930 . S
H1569 C1577 0.930 . S
H1570 C1578 0.930 . S
H1571 C1579 0.930 . S
H1572 C1582 0.930 . S
H1573 C1583 0.930 . S
C1574 H1568 0.930 . S
C1574 C1575 1.355 . S
C1574 C1576 1.415 . S
C1575 C1574 1.355 . S
C1575 C1577 1.419 . S
C1576 C1574 1.415 . S
C1576 C1581 1.425 . S
C1576 C1583 1.409 . S
C1577 H1569 0.930 . S
C1577 C1575 1.419 . S
C1577 C1578 1.362 . S
C1578 H1570 0.930 . S
C1578 C1577 1.362 . S
C1578 C1581 1.409 . S
C1579 H1571 0.930 . S
C1579 C1580 1.355 . S
C1579 C1581 1.415 . S
C1580 C1579 1.355 . S
C1580 C1582 1.419 . S
C1581 C1576 1.425 . S
C1581 C1578 1.409 . S
C1581 C1579 1.415 . S
C1582 H1572 0.930 . S
C1582 C1580 1.419 . S
C1582 C1583 1.362 . S
C1583 H1573 0.930 . S
C1583 C1576 1.409 . S
C1583 C1582 1.362 . S
H1584 C1590 0.930 . S
H1585 C1593 0.930 . S
H1586 C1594 0.930 . S
H1587 C1595 0.930 . S
H1588 C1598 0.930 . S
H1589 C1599 0.930 . S
C1590 H1584 0.930 . S
C1590 C1591 1.355 . S
C1590 C1592 1.415 . S
C1591 C1590 1.355 . S
C1591 C1593 1.419 . S
C1592 C1590 1.415 . S
C1592 C1597 1.425 . S
C1592 C1599 1.409 . S
C1593 H1585 0.930 . S
C1593 C1591 1.419 . S
C1593 C1594 1.362 . S
C1594 H1586 0.930 . S
C1594 C1593 1.362 . S
C1594 C1597 1.409 . S
C1595 H1587 0.930 . S
C1595 C1596 1.355 . S
C1595 C1597 1.415 . S
C1596 C1595 1.355 . S
C1596 C1598 1.419 . S
C1597 C1592 1.425 . S
C1597 C1594 1.409 . S
C1597 C1595 1.415 . S
C1598 H1588 0.930 . S
C1598 C1596 1.419 . S
C1598 C1599 1.362 . S
C1599 H1589 0.930 . S
C1599 C1592 1.409 . S
C1599 C1598 1.362 . S
H1600 C1606 0.930 . S
H1601 C1609 0.930 . S
H1602 C1610 0.930 . S
H1603 C1611 0.930 . S
H1604 C1614 0.930 . S
H1605 C1615 0.930 . S
C1606 H1600 0.930 . S
C1606 C1607 1.355 . S
C1606 C1608 1.415 . S
C1607 C1606 1.355 . S
C1607 C1609 1.419 . S
C1608 C1606 1.415 . S
C1608 C1613 1.425 . S
C1608 C1615 1.409 . S
C1609 H1601 0.930 . S
C1609 C1607 1.419 . S
C1609 C1610 1.362 . S
C1610 H1602 0.930 . S
C1610 C1609 1.362 . S
C1610 C1613 1.409 . S
C1611 H1603 0.930 . S
C1611 C1612 1.355 . S
C1611 C1613 1.415 . S
C1612 C1611 1.355 . S
C1612 C1614 1.419 . S
C1613 C1608 1.425 . S
C1613 C1610 1.409 . S
C1613 C1611 1.415 . S
C1614 H1604 0.930 . S
C1614 C1612 1.419 . S
C1614 C1615 1.362 . S
C1615 H1605 0.930 . S
C1615 C1608 1.409 . S
C1615 C1614 1.362 . S
H1616 C1622 0.930 . S
H1617 C1625 0.930 . S
H1618 C1626 0.930 . S
H1619 C1627 0.930 . S
H1620 C1630 0.930 . S
H1621 C1631 0.930 . S
C1622 H1616 0.930 . S
C1622 C1623 1.355 . S
C1622 C1624 1.415 . S
C1623 C1622 1.355 . S
C1623 C1625 1.419 . S
C1624 C1622 1.415 . S
C1624 C1629 1.425 . S
C1624 C1631 1.409 . S
C1625 H1617 0.930 . S
C1625 C1623 1.419 . S
C1625 C1626 1.362 . S
C1626 H1618 0.930 . S
C1626 C1625 1.362 . S
C1626 C1629 1.409 . S
C1627 H1619 0.930 . S
C1627 C1628 1.355 . S
C1627 C1629 1.415 . S
C1628 C1627 1.355 . S
C1628 C1630 1.419 . S
C1629 C1624 1.425 . S
C1629 C1626 1.409 . S
C1629 C1627 1.415 . S
C1630 H1620 0.930 . S
C1630 C1628 1.419 . S
C1630 C1631 1.362 . S
C1631 H1621 0.930 . S
C1631 C1624 1.409 . S
C1631 C1630 1.362 . S
H1632 C1638 0.930 . S
H1633 C1641 0.930 . S
H1634 C1642 0.930 . S
H1635 C1643 0.930 . S
H1636 C1646 0.930 . S
H1637 C1647 0.930 . S
C1638 H1632 0.930 . S
C1638 C1639 1.355 . S
C1638 C1640 1.415 . S
C1639 C1638 1.355 . S
C1639 C1641 1.419 . S
C1640 C1638 1.415 . S
C1640 C1645 1.425 . S
C1640 C1647 1.409 . S
C1641 H1633 0.930 . S
C1641 C1639 1.419 . S
C1641 C1642 1.362 . S
C1642 H1634 0.930 . S
C1642 C1641 1.362 . S
C1642 C1645 1.409 . S
C1643 H1635 0.930 . S
C1643 C1644 1.355 . S
C1643 C1645 1.415 . S
C1644 C1643 1.355 . S
C1644 C1646 1.419 . S
C1645 C1640 1.425 . S
C1645 C1642 1.409 . S
C1645 C1643 1.415 . S
C1646 H1636 0.930 . S
C1646 C1644 1.419 . S
C1646 C1647 1.362 . S
C1647 H1637 0.930 . S
C1647 C1640 1.409 . S
C1647 C1646 1.362 . S
H1648 C1654 0.930 . S
H1649 C1657 0.930 . S
H1650 C1658 0.930 . S
H1651 C1659 0.930 . S
H1652 C1662 0.930 . S
H1653 C1663 0.930 . S
C1654 H1648 0.930 . S
C1654 C1655 1.355 . S
C1654 C1656 1.415 . S
C1655 C1654 1.355 . S
C1655 C1657 1.419 . S
C1656 C1654 1.415 . S
C1656 C1661 1.425 . S
C1656 C1663 1.409 . S
C1657 H1649 0.930 . S
C1657 C1655 1.419 . S
C1657 C1658 1.362 . S
C1658 H1650 0.930 . S
C1658 C1657 1.362 . S
C1658 C1661 1.409 . S
C1659 H1651 0.930 . S
C1659 C1660 1.355 . S
C1659 C1661 1.415 . S
C1660 C1659 1.355 . S
C1660 C1662 1.419 . S
C1661 C1656 1.425 . S
C1661 C1658 1.409 . S
C1661 C1659 1.415 . S
C1662 H1652 0.930 . S
C1662 C1660 1.419 . S
C1662 C1663 1.362 . S
C1663 H1653 0.930 . S
C1663 C1656 1.409 . S
C1663 C1662 1.362 . S
H1664 C1670 0.930 . S
H1665 C1673 0.930 . S
H1666 C1674 0.930 . S
H1667 C1675 0.930 . S
H1668 C1678 0.930 . S
H1669 C1679 0.930 . S
C1670 H1664 0.930 . S
C1670 C1671 1.355 . S
C1670 C1672 1.415 . S
C1671 C1670 1.355 . S
C1671 C1673 1.419 . S
C1672 C1670 1.415 . S
C1672 C1677 1.425 . S
C1672 C1679 1.409 . S
C1673 H1665 0.930 . S
C1673 C1671 1.419 . S
C1673 C1674 1.362 . S
C1674 H1666 0.930 . S
C1674 C1673 1.362 . S
C1674 C1677 1.409 . S
C1675 H1667 0.930 . S
C1675 C1676 1.355 . S
C1675 C1677 1.415 . S
C1676 C1675 1.355 . S
C1676 C1678 1.419 . S
C1677 C1672 1.425 . S
C1677 C1674 1.409 . S
C1677 C1675 1.415 . S
C1678 H1668 0.930 . S
C1678 C1676 1.419 . S
C1678 C1679 1.362 . S
C1679 H1669 0.930 . S
C1679 C1672 1.409 . S
C1679 C1678 1.362 . S
H1680 C1686 0.930 . S
H1681 C1689 0.930 . S
H1682 C1690 0.930 . S
H1683 C1691 0.930 . S
H1684 C1694 0.930 . S
H1685 C1695 0.930 . S
C1686 H1680 0.930 . S
C1686 C1687 1.355 . S
C1686 C1688 1.415 . S
C1687 C1686 1.355 . S
C1687 C1689 1.419 . S
C1688 C1686 1.415 . S
C1688 C1693 1.425 . S
C1688 C1695 1.409 . S
C1689 H1681 0.930 . S
C1689 C1687 1.419 . S
C1689 C1690 1.362 . S
C1690 H1682 0.930 . S
C1690 C1689 1.362 . S
C1690 C1693 1.409 . S
C1691 H1683 0.930 . S
C1691 C1692 1.355 . S
C1691 C1693 1.415 . S
C1692 C1691 1.355 . S
C1692 C1694 1.419 . S
C1693 C1688 1.425 . S
C1693 C1690 1.409 . S
C1693 C1691 1.415 . S
C1694 H1684 0.930 . S
C1694 C1692 1.419 . S
C1694 C1695 1.362 . S
C1695 H1685 0.930 . S
C1695 C1688 1.409 . S
C1695 C1694 1.362 . S
H1696 C1702 0.930 . S
H1697 C1705 0.930 . S
H1698 C1706 0.930 . S
H1699 C1707 0.930 . S
H1700 C1710 0.930 . S
H1701 C1711 0.930 . S
C1702 H1696 0.930 . S
C1702 C1703 1.355 . S
C1702 C1704 1.415 . S
C1703 C1702 1.355 . S
C1703 C1705 1.419 . S
C1704 C1702 1.415 . S
C1704 C1709 1.425 . S
C1704 C1711 1.409 . S
C1705 H1697 0.930 . S
C1705 C1703 1.419 . S
C1705 C1706 1.362 . S
C1706 H1698 0.930 . S
C1706 C1705 1.362 . S
C1706 C1709 1.409 . S
C1707 H1699 0.930 . S
C1707 C1708 1.355 . S
C1707 C1709 1.415 . S
C1708 C1707 1.355 . S
C1708 C1710 1.419 . S
C1709 C1704 1.425 . S
C1709 C1706 1.409 . S
C1709 C1707 1.415 . S
C1710 H1700 0.930 . S
C1710 C1708 1.419 . S
C1710 C1711 1.362 . S
C1711 H1701 0.930 . S
C1711 C1704 1.409 . S
C1711 C1710 1.362 . S
H1712 C1718 0.930 . S
H1713 C1721 0.930 . S
H1714 C1722 0.930 . S
H1715 C1723 0.930 . S
H1716 C1726 0.930 . S
H1717 C1727 0.930 . S
C1718 H1712 0.930 . S
C1718 C1719 1.355 . S
C1718 C1720 1.415 . S
C1719 C1718 1.355 . S
C1719 C1721 1.419 . S
C1720 C1718 1.415 . S
C1720 C1725 1.425 . S
C1720 C1727 1.409 . S
C1721 H1713 0.930 . S
C1721 C1719 1.419 . S
C1721 C1722 1.362 . S
C1722 H1714 0.930 . S
C1722 C1721 1.362 . S
C1722 C1725 1.409 . S
C1723 H1715 0.930 . S
C1723 C1724 1.355 . S
C1723 C1725 1.415 . S
C1724 C1723 1.355 . S
C1724 C1726 1.419 . S
C1725 C1720 1.425 . S
C1725 C1722 1.409 . S
C1725 C1723 1.415 . S
C1726 H1716 0.930 . S
C1726 C1724 1.419 . S
C1726 C1727 1.362 . S
C1727 H1717 0.930 . S
C1727 C1720 1.409 . S
C1727 C1726 1.362 . S
H1728 C1734 0.930 . S
H1729 C1737 0.930 . S
H1730 C1738 0.930 . S
H1731 C1739 0.930 . S
H1732 C1742 0.930 . S
H1733 C1743 0.930 . S
C1734 H1728 0.930 . S
C1734 C1735 1.355 . S
C1734 C1736 1.415 . S
C1735 C1734 1.355 . S
C1735 C1737 1.419 . S
C1736 C1734 1.415 . S
C1736 C1741 1.425 . S
C1736 C1743 1.409 . S
C1737 H1729 0.930 . S
C1737 C1735 1.419 . S
C1737 C1738 1.362 . S
C1738 H1730 0.930 . S
C1738 C1737 1.362 . S
C1738 C1741 1.409 . S
C1739 H1731 0.930 . S
C1739 C1740 1.355 . S
C1739 C1741 1.415 . S
C1740 C1739 1.355 . S
C1740 C1742 1.419 . S
C1741 C1736 1.425 . S
C1741 C1738 1.409 . S
C1741 C1739 1.415 . S
C1742 H1732 0.930 . S
C1742 C1740 1.419 . S
C1742 C1743 1.362 . S
C1743 H1733 0.930 . S
C1743 C1736 1.409 . S
C1743 C1742 1.362 . S
H1744 C1750 0.930 . S
H1745 C1753 0.930 . S
H1746 C1754 0.930 . S
H1747 C1755 0.930 . S
H1748 C1758 0.930 . S
H1749 C1759 0.930 . S
C1750 H1744 0.930 . S
C1750 C1751 1.355 . S
C1750 C1752 1.415 . S
C1751 C1750 1.355 . S
C1751 C1753 1.419 . S
C1752 C1750 1.415 . S
C1752 C1757 1.425 . S
C1752 C1759 1.409 . S
C1753 H1745 0.930 . S
C1753 C1751 1.419 . S
C1753 C1754 1.362 . S
C1754 H1746 0.930 . S
C1754 C1753 1.362 . S
C1754 C1757 1.409 . S
C1755 H1747 0.930 . S
C1755 C1756 1.355 . S
C1755 C1757 1.415 . S
C1756 C1755 1.355 . S
C1756 C1758 1.419 . S
C1757 C1752 1.425 . S
C1757 C1754 1.409 . S
C1757 C1755 1.415 . S
C1758 H1748 0.930 . S
C1758 C1756 1.419 . S
C1758 C1759 1.362 . S
C1759 H1749 0.930 . S
C1759 C1752 1.409 . S
C1759 C1758 1.362 . S
H1760 C1766 0.930 . S
H1761 C1769 0.930 . S
H1762 C1770 0.930 . S
H1763 C1771 0.930 . S
H1764 C1774 0.930 . S
H1765 C1775 0.930 . S
C1766 H1760 0.930 . S
C1766 C1767 1.355 . S
C1766 C1768 1.415 . S
C1767 C1766 1.355 . S
C1767 C1769 1.419 . S
C1768 C1766 1.415 . S
C1768 C1773 1.425 . S
C1768 C1775 1.409 . S
C1769 H1761 0.930 . S
C1769 C1767 1.419 . S
C1769 C1770 1.362 . S
C1770 H1762 0.930 . S
C1770 C1769 1.362 . S
C1770 C1773 1.409 . S
C1771 H1763 0.930 . S
C1771 C1772 1.355 . S
C1771 C1773 1.415 . S
C1772 C1771 1.355 . S
C1772 C1774 1.419 . S
C1773 C1768 1.425 . S
C1773 C1770 1.409 . S
C1773 C1771 1.415 . S
C1774 H1764 0.930 . S
C1774 C1772 1.419 . S
C1774 C1775 1.362 . S
C1775 H1765 0.930 . S
C1775 C1768 1.409 . S
C1775 C1774 1.362 . S
H1776 C1782 0.930 . S
H1777 C1785 0.930 . S
H1778 C1786 0.930 . S
H1779 C1787 0.930 . S
H1780 C1790 0.930 . S
H1781 C1791 0.930 . S
C1782 H1776 0.930 . S
C1782 C1783 1.355 . S
C1782 C1784 1.415 . S
C1783 C1782 1.355 . S
C1783 C1785 1.419 . S
C1784 C1782 1.415 . S
C1784 C1789 1.425 . S
C1784 C1791 1.409 . S
C1785 H1777 0.930 . S
C1785 C1783 1.419 . S
C1785 C1786 1.362 . S
C1786 H1778 0.930 . S
C1786 C1785 1.362 . S
C1786 C1789 1.409 . S
C1787 H1779 0.930 . S
C1787 C1788 1.355 . S
C1787 C1789 1.415 . S
C1788 C1787 1.355 . S
C1788 C1790 1.419 . S
C1789 C1784 1.425 . S
C1789 C1786 1.409 . S
C1789 C1787 1.415 . S
C1790 H1780 0.930 . S
C1790 C1788 1.419 . S
C1790 C1791 1.362 . S
C1791 H1781 0.930 . S
C1791 C1784 1.409 . S
C1791 C1790 1.362 . S
H1792 C1798 0.930 . S
H1793 C1801 0.930 . S
H1794 C1802 0.930 . S
H1795 C1803 0.930 . S
H1796 C1806 0.930 . S
H1797 C1807 0.930 . S
C1798 H1792 0.930 . S
C1798 C1799 1.355 . S
C1798 C1800 1.415 . S
C1799 C1798 1.355 . S
C1799 C1801 1.419 . S
C1800 C1798 1.415 . S
C1800 C1805 1.425 1_455 S
C1800 C1807 1.409 1_455 S
C1801 H1793 0.930 . S
C1801 C1799 1.419 . S
C1801 C1802 1.362 . S
C1802 H1794 0.930 . S
C1802 C1801 1.362 . S
C1802 C1805 1.409 1_455 S
C1803 H1795 0.930 . S
C1803 C1804 1.355 . S
C1803 C1805 1.415 . S
C1804 C1803 1.355 . S
C1804 C1806 1.419 . S
C1805 C1800 1.425 1_655 S
C1805 C1802 1.409 1_655 S
C1805 C1803 1.415 . S
C1806 H1796 0.930 . S
C1806 C1804 1.419 . S
C1806 C1807 1.362 . S
C1807 H1797 0.930 . S
C1807 C1800 1.409 1_655 S
C1807 C1806 1.362 . S
H1808 C1814 0.930 . S
H1809 C1817 0.930 . S
H1810 C1818 0.930 . S
H1811 C1819 0.930 . S
H1812 C1822 0.930 . S
H1813 C1823 0.930 . S
C1814 H1808 0.930 . S
C1814 C1815 1.355 . S
C1814 C1816 1.415 . S
C1815 C1814 1.355 . S
C1815 C1817 1.419 1_655 S
C1816 C1814 1.415 . S
C1816 C1821 1.425 1_655 S
C1816 C1823 1.409 . S
C1817 H1809 0.930 . S
C1817 C1815 1.419 1_455 S
C1817 C1818 1.362 . S
C1818 H1810 0.930 . S
C1818 C1817 1.362 . S
C1818 C1821 1.409 . S
C1819 H1811 0.930 . S
C1819 C1820 1.355 . S
C1819 C1821 1.415 . S
C1820 C1819 1.355 . S
C1820 C1822 1.419 1_455 S
C1821 C1816 1.425 1_455 S
C1821 C1818 1.409 . S
C1821 C1819 1.415 . S
C1822 H1812 0.930 . S
C1822 C1820 1.419 1_655 S
C1822 C1823 1.362 . S
C1823 H1813 0.930 . S
C1823 C1816 1.409 . S
C1823 C1822 1.362 . S
H1824 C1830 0.930 . S
H1825 C1833 0.930 . S
H1826 C1834 0.930 . S
H1827 C1835 0.930 . S
H1828 C1838 0.930 . S
H1829 C1839 0.930 . S
C1830 H1824 0.930 . S
C1830 C1831 1.355 . S
C1830 C1832 1.415 . S
C1831 C1830 1.355 . S
C1831 C1833 1.419 . S
C1832 C1830 1.415 . S
C1832 C1837 1.425 . S
C1832 C1839 1.409 . S
C1833 H1825 0.930 . S
C1833 C1831 1.419 . S
C1833 C1834 1.362 . S
C1834 H1826 0.930 . S
C1834 C1833 1.362 . S
C1834 C1837 1.409 . S
C1835 H1827 0.930 . S
C1835 C1836 1.355 . S
C1835 C1837 1.415 . S
C1836 C1835 1.355 . S
C1836 C1838 1.419 . S
C1837 C1832 1.425 . S
C1837 C1834 1.409 . S
C1837 C1835 1.415 . S
C1838 H1828 0.930 . S
C1838 C1836 1.419 . S
C1838 C1839 1.362 . S
C1839 H1829 0.930 . S
C1839 C1832 1.409 . S
C1839 C1838 1.362 . S
H1840 C1846 0.930 . S
H1841 C1849 0.930 . S
H1842 C1850 0.930 . S
H1843 C1851 0.930 . S
H1844 C1854 0.930 . S
H1845 C1855 0.930 . S
C1846 H1840 0.930 . S
C1846 C1847 1.355 . S
C1846 C1848 1.415 . S
C1847 C1846 1.355 . S
C1847 C1849 1.419 . S
C1848 C1846 1.415 . S
C1848 C1853 1.425 . S
C1848 C1855 1.409 . S
C1849 H1841 0.930 . S
C1849 C1847 1.419 . S
C1849 C1850 1.362 . S
C1850 H1842 0.930 . S
C1850 C1849 1.362 . S
C1850 C1853 1.409 . S
C1851 H1843 0.930 . S
C1851 C1852 1.355 . S
C1851 C1853 1.415 . S
C1852 C1851 1.355 . S
C1852 C1854 1.419 . S
C1853 C1848 1.425 . S
C1853 C1850 1.409 . S
C1853 C1851 1.415 . S
C1854 H1844 0.930 . S
C1854 C1852 1.419 . S
C1854 C1855 1.362 . S
C1855 H1845 0.930 . S
C1855 C1848 1.409 . S
C1855 C1854 1.362 . S
H1856 C1862 0.930 . S
H1857 C1865 0.930 . S
H1858 C1866 0.930 . S
H1859 C1867 0.930 . S
H1860 C1870 0.930 . S
H1861 C1871 0.930 . S
C1862 H1856 0.930 . S
C1862 C1863 1.355 . S
C1862 C1864 1.415 . S
C1863 C1862 1.355 . S
C1863 C1865 1.419 . S
C1864 C1862 1.415 . S
C1864 C1869 1.425 1_655 S
C1864 C1871 1.409 1_655 S
C1865 H1857 0.930 . S
C1865 C1863 1.419 . S
C1865 C1866 1.362 . S
C1866 H1858 0.930 . S
C1866 C1865 1.362 . S
C1866 C1869 1.409 1_655 S
C1867 H1859 0.930 . S
C1867 C1868 1.355 . S
C1867 C1869 1.415 . S
C1868 C1867 1.355 . S
C1868 C1870 1.419 . S
C1869 C1864 1.425 1_455 S
C1869 C1866 1.409 1_455 S
C1869 C1867 1.415 . S
C1870 H1860 0.930 . S
C1870 C1868 1.419 . S
C1870 C1871 1.362 . S
C1871 H1861 0.930 . S
C1871 C1864 1.409 1_455 S
C1871 C1870 1.362 . S
H1872 C1878 0.930 . S
H1873 C1881 0.930 . S
H1874 C1882 0.930 . S
H1875 C1883 0.930 . S
H1876 C1886 0.930 . S
H1877 C1887 0.930 . S
C1878 H1872 0.930 . S
C1878 C1879 1.355 . S
C1878 C1880 1.415 . S
C1879 C1878 1.355 . S
C1879 C1881 1.419 . S
C1880 C1878 1.415 . S
C1880 C1885 1.425 . S
C1880 C1887 1.409 . S
C1881 H1873 0.930 . S
C1881 C1879 1.419 . S
C1881 C1882 1.362 . S
C1882 H1874 0.930 . S
C1882 C1881 1.362 . S
C1882 C1885 1.409 . S
C1883 H1875 0.930 . S
C1883 C1884 1.355 . S
C1883 C1885 1.415 . S
C1884 C1883 1.355 . S
C1884 C1886 1.419 . S
C1885 C1880 1.425 . S
C1885 C1882 1.409 . S
C1885 C1883 1.415 . S
C1886 H1876 0.930 . S
C1886 C1884 1.419 . S
C1886 C1887 1.362 . S
C1887 H1877 0.930 . S
C1887 C1880 1.409 . S
C1887 C1886 1.362 . S
H1888 C1894 0.930 . S
H1889 C1897 0.930 . S
H1890 C1898 0.930 . S
H1891 C1899 0.930 . S
H1892 C1902 0.930 . S
H1893 C1903 0.930 . S
C1894 H1888 0.930 . S
C1894 C1895 1.355 . S
C1894 C1896 1.415 . S
C1895 C1894 1.355 . S
C1895 C1897 1.419 . S
C1896 C1894 1.415 . S
C1896 C1901 1.425 . S
C1896 C1903 1.409 . S
C1897 H1889 0.930 . S
C1897 C1895 1.419 . S
C1897 C1898 1.362 . S
C1898 H1890 0.930 . S
C1898 C1897 1.362 . S
C1898 C1901 1.409 . S
C1899 H1891 0.930 . S
C1899 C1900 1.355 . S
C1899 C1901 1.415 . S
C1900 C1899 1.355 . S
C1900 C1902 1.419 . S
C1901 C1896 1.425 . S
C1901 C1898 1.409 . S
C1901 C1899 1.415 . S
C1902 H1892 0.930 . S
C1902 C1900 1.419 . S
C1902 C1903 1.362 . S
C1903 H1893 0.930 . S
C1903 C1896 1.409 . S
C1903 C1902 1.362 . S
H1904 C1910 0.930 . S
H1905 C1913 0.930 . S
H1906 C1914 0.930 . S
H1907 C1915 0.930 . S
H1908 C1918 0.930 . S
H1909 C1919 0.930 . S
C1910 H1904 0.930 . S
C1910 C1911 1.351 1_455 S
C1910 C1912 1.415 . S
C1911 C1910 1.351 1_655 S
C1911 C1913 1.424 . S
C1912 C1910 1.415 . S
C1912 C1917 1.425 1_455 S
C1912 C1919 1.409 . S
C1913 H1905 0.930 . S
C1913 C1911 1.424 . S
C1913 C1914 1.362 . S
C1914 H1906 0.930 . S
C1914 C1913 1.362 . S
C1914 C1917 1.409 . S
C1915 H1907 0.930 . S
C1915 C1916 1.351 1_655 S
C1915 C1917 1.415 . S
C1916 C1915 1.351 1_455 S
C1916 C1918 1.424 . S
C1917 C1912 1.425 1_655 S
C1917 C1914 1.409 . S
C1917 C1915 1.415 . S
C1918 H1908 0.930 . S
C1918 C1916 1.424 . S
C1918 C1919 1.362 . S
C1919 H1909 0.930 . S
C1919 C1912 1.409 . S
C1919 C1918 1.362 . S
H1920 C1926 0.930 . S
H1921 C1929 0.930 . S
H1922 C1930 0.930 . S
H1923 C1931 0.930 . S
H1924 C1934 0.930 . S
H1925 C1935 0.930 . S
C1926 H1920 0.930 . S
C1926 C1927 1.355 . S
C1926 C1928 1.415 . S
C1927 C1926 1.355 . S
C1927 C1929 1.419 . S
C1928 C1926 1.415 . S
C1928 C1933 1.425 1_455 S
C1928 C1935 1.409 1_455 S
C1929 H1921 0.930 . S
C1929 C1927 1.419 . S
C1929 C1930 1.362 . S
C1930 H1922 0.930 . S
C1930 C1929 1.362 . S
C1930 C1933 1.409 1_455 S
C1931 H1923 0.930 . S
C1931 C1932 1.355 . S
C1931 C1933 1.415 . S
C1932 C1931 1.355 . S
C1932 C1934 1.419 . S
C1933 C1928 1.425 1_655 S
C1933 C1930 1.409 1_655 S
C1933 C1931 1.415 . S
C1934 H1924 0.930 . S
C1934 C1932 1.419 . S
C1934 C1935 1.362 . S
C1935 H1925 0.930 . S
C1935 C1928 1.409 1_655 S
C1935 C1934 1.362 . S
H1936 C1942 0.934 . S
H1937 C1945 0.930 . S
H1938 C1946 0.930 . S
H1939 C1947 0.934 . S
H1940 C1950 0.930 . S
H1941 C1951 0.930 . S
C1942 H1936 0.934 . S
C1942 C1943 1.350 1_455 S
C1942 C1944 1.417 . S
C1943 C1942 1.350 1_655 S
C1943 C1945 1.419 . S
C1944 C1942 1.417 . S
C1944 C1949 1.425 1_455 S
C1944 C1951 1.409 . S
C1945 H1937 0.930 . S
C1945 C1943 1.419 . S
C1945 C1946 1.362 . S
C1946 H1938 0.930 . S
C1946 C1945 1.362 . S
C1946 C1949 1.409 . S
C1947 H1939 0.934 . S
C1947 C1948 1.350 1_655 S
C1947 C1949 1.417 . S
C1948 C1947 1.350 1_455 S
C1948 C1950 1.419 . S
C1949 C1944 1.425 1_655 S
C1949 C1946 1.409 . S
C1949 C1947 1.417 . S
C1950 H1940 0.930 . S
C1950 C1948 1.419 . S
C1950 C1951 1.362 . S
C1951 H1941 0.930 . S
C1951 C1944 1.409 . S
C1951 C1950 1.362 . S
H1952 C1958 0.930 . S
H1953 C1961 0.930 . S
H1954 C1962 0.930 . S
H1955 C1963 0.930 . S
H1956 C1966 0.930 . S
H1957 C1967 0.930 . S
C1958 H1952 0.930 . S
C1958 C1959 1.355 . S
C1958 C1960 1.415 . S
C1959 C1958 1.355 . S
C1959 C1961 1.419 . S
C1960 C1958 1.415 . S
C1960 C1965 1.425 . S
C1960 C1967 1.409 . S
C1961 H1953 0.930 . S
C1961 C1959 1.419 . S
C1961 C1962 1.362 . S
C1962 H1954 0.930 . S
C1962 C1961 1.362 . S
C1962 C1965 1.409 . S
C1963 H1955 0.930 . S
C1963 C1964 1.355 . S
C1963 C1965 1.415 . S
C1964 C1963 1.355 . S
C1964 C1966 1.419 . S
C1965 C1960 1.425 . S
C1965 C1962 1.409 . S
C1965 C1963 1.415 . S
C1966 H1956 0.930 . S
C1966 C1964 1.419 . S
C1966 C1967 1.362 . S
C1967 H1957 0.930 . S
C1967 C1960 1.409 . S
C1967 C1966 1.362 . S
H1968 C1974 0.930 . S
H1969 C1977 0.930 . S
H1970 C1978 0.930 . S
H1971 C1979 0.930 . S
H1972 C1982 0.930 . S
H1973 C1983 0.930 . S
C1974 H1968 0.930 . S
C1974 C1975 1.355 . S
C1974 C1976 1.415 . S
C1975 C1974 1.355 . S
C1975 C1977 1.419 . S
C1976 C1974 1.415 . S
C1976 C1981 1.425 . S
C1976 C1983 1.409 . S
C1977 H1969 0.930 . S
C1977 C1975 1.419 . S
C1977 C1978 1.362 . S
C1978 H1970 0.930 . S
C1978 C1977 1.362 . S
C1978 C1981 1.409 . S
C1979 H1971 0.930 . S
C1979 C1980 1.355 . S
C1979 C1981 1.415 . S
C1980 C1979 1.355 . S
C1980 C1982 1.419 . S
C1981 C1976 1.425 . S
C1981 C1978 1.409 . S
C1981 C1979 1.415 . S
C1982 H1972 0.930 . S
C1982 C1980 1.419 . S
C1982 C1983 1.362 . S
C1983 H1973 0.930 . S
C1983 C1976 1.409 . S
C1983 C1982 1.362 . S
H1984 C1990 0.930 . S
H1985 C1993 0.930 . S
H1986 C1994 0.930 . S
H1987 C1995 0.930 . S
H1988 C1998 0.930 . S
H1989 C1999 0.930 . S
C1990 H1984 0.930 . S
C1990 C1991 1.355 . S
C1990 C1992 1.415 . S
C1991 C1990 1.355 . S
C1991 C1993 1.419 . S
C1992 C1990 1.415 . S
C1992 C1997 1.425 1_455 S
C1992 C1999 1.409 1_455 S
C1993 H1985 0.930 . S
C1993 C1991 1.419 . S
C1993 C1994 1.362 . S
C1994 H1986 0.930 . S
C1994 C1993 1.362 . S
C1994 C1997 1.409 1_455 S
C1995 H1987 0.930 . S
C1995 C1996 1.355 . S
C1995 C1997 1.415 . S
C1996 C1995 1.355 . S
C1996 C1998 1.419 . S
C1997 C1992 1.425 1_655 S
C1997 C1994 1.409 1_655 S
C1997 C1995 1.415 . S
C1998 H1988 0.930 . S
C1998 C1996 1.419 . S
C1998 C1999 1.362 . S
C1999 H1989 0.930 . S
C1999 C1992 1.409 1_655 S
C1999 C1998 1.362 . S
H2000 C2006 0.930 . S
H2001 C2009 0.930 . S
H2002 C2010 0.930 . S
H2003 C2011 0.930 . S
H2004 C2014 0.930 . S
H2005 C2015 0.930 . S
C2006 H2000 0.930 . S
C2006 C2007 1.355 . S
C2006 C2008 1.415 . S
C2007 C2006 1.355 . S
C2007 C2009 1.419 . S
C2008 C2006 1.415 . S
C2008 C2013 1.425 . S
C2008 C2015 1.409 . S
C2009 H2001 0.930 . S
C2009 C2007 1.419 . S
C2009 C2010 1.362 . S
C2010 H2002 0.930 . S
C2010 C2009 1.362 . S
C2010 C2013 1.409 . S
C2011 H2003 0.930 . S
C2011 C2012 1.355 . S
C2011 C2013 1.415 . S
C2012 C2011 1.355 . S
C2012 C2014 1.419 . S
C2013 C2008 1.425 . S
C2013 C2010 1.409 . S
C2013 C2011 1.415 . S
C2014 H2004 0.930 . S
C2014 C2012 1.419 . S
C2014 C2015 1.362 . S
C2015 H2005 0.930 . S
C2015 C2008 1.409 . S
C2015 C2014 1.362 . S
H2016 C2022 0.930 . S
H2017 C2025 0.930 . S
H2018 C2026 0.930 . S
H2019 C2027 0.930 . S
H2020 C2030 0.930 . S
H2021 C2031 0.930 . S
C2022 H2016 0.930 . S
C2022 C2023 1.355 . S
C2022 C2024 1.415 . S
C2023 C2022 1.355 . S
C2023 C2025 1.419 . S
C2024 C2022 1.415 . S
C2024 C2029 1.425 . S
C2024 C2031 1.409 . S
C2025 H2017 0.930 . S
C2025 C2023 1.419 . S
C2025 C2026 1.362 . S
C2026 H2018 0.930 . S
C2026 C2025 1.362 . S
C2026 C2029 1.409 . S
C2027 H2019 0.930 . S
C2027 C2028 1.355 . S
C2027 C2029 1.415 . S
C2028 C2027 1.355 . S
C2028 C2030 1.419 . S
C2029 C2024 1.425 . S
C2029 C2026 1.409 . S
C2029 C2027 1.415 . S
C2030 H2020 0.930 . S
C2030 C2028 1.419 . S
C2030 C2031 1.362 . S
C2031 H2021 0.930 . S
C2031 C2024 1.409 . S
C2031 C2030 1.362 . S
H2032 C2038 0.930 . S
H2033 C2041 0.930 . S
H2034 C2042 0.930 . S
H2035 C2043 0.930 . S
H2036 C2046 0.930 . S
H2037 C2047 0.930 . S
C2038 H2032 0.930 . S
C2038 C2039 1.355 . S
C2038 C2040 1.415 . S
C2039 C2038 1.355 . S
C2039 C2041 1.419 . S
C2040 C2038 1.415 . S
C2040 C2045 1.425 1_655 S
C2040 C2047 1.409 1_655 S
C2041 H2033 0.930 . S
C2041 C2039 1.419 . S
C2041 C2042 1.362 . S
C2042 H2034 0.930 . S
C2042 C2041 1.362 . S
C2042 C2045 1.409 1_655 S
C2043 H2035 0.930 . S
C2043 C2044 1.355 . S
C2043 C2045 1.415 . S
C2044 C2043 1.355 . S
C2044 C2046 1.419 . S
C2045 C2040 1.425 1_455 S
C2045 C2042 1.409 1_455 S
C2045 C2043 1.415 . S
C2046 H2036 0.930 . S
C2046 C2044 1.419 . S
C2046 C2047 1.362 . S
C2047 H2037 0.930 . S
C2047 C2040 1.409 1_455 S
C2047 C2046 1.362 . S
H2048 C2054 0.930 . S
H2049 C2057 0.930 . S
H2050 C2058 0.930 . S
H2051 C2059 0.930 . S
H2052 C2062 0.930 . S
H2053 C2063 0.930 . S
C2054 H2048 0.930 . S
C2054 C2055 1.355 . S
C2054 C2056 1.415 . S
C2055 C2054 1.355 . S
C2055 C2057 1.419 . S
C2056 C2054 1.415 . S
C2056 C2061 1.425 . S
C2056 C2063 1.409 . S
C2057 H2049 0.930 . S
C2057 C2055 1.419 . S
C2057 C2058 1.362 . S
C2058 H2050 0.930 . S
C2058 C2057 1.362 . S
C2058 C2061 1.409 . S
C2059 H2051 0.930 . S
C2059 C2060 1.355 . S
C2059 C2061 1.415 . S
C2060 C2059 1.355 . S
C2060 C2062 1.419 . S
C2061 C2056 1.425 . S
C2061 C2058 1.409 . S
C2061 C2059 1.415 . S
C2062 H2052 0.930 . S
C2062 C2060 1.419 . S
C2062 C2063 1.362 . S
C2063 H2053 0.930 . S
C2063 C2056 1.409 . S
C2063 C2062 1.362 . S
H2064 C2070 0.930 . S
H2065 C2073 0.930 . S
H2066 C2074 0.930 . S
H2067 C2075 0.930 . S
H2068 C2078 0.930 . S
H2069 C2079 0.930 . S
C2070 H2064 0.930 . S
C2070 C2071 1.340 1_445 S
C2070 C2072 1.415 . S
C2071 C2070 1.340 1_665 S
C2071 C2073 1.438 . S
C2072 C2070 1.415 . S
C2072 C2077 1.425 1_445 S
C2072 C2079 1.409 . S
C2073 H2065 0.930 . S
C2073 C2071 1.438 . S
C2073 C2074 1.362 . S
C2074 H2066 0.930 . S
C2074 C2073 1.362 . S
C2074 C2077 1.409 . S
C2075 H2067 0.930 . S
C2075 C2076 1.340 1_665 S
C2075 C2077 1.415 . S
C2076 C2075 1.340 1_445 S
C2076 C2078 1.438 . S
C2077 C2072 1.425 1_665 S
C2077 C2074 1.409 . S
C2077 C2075 1.415 . S
C2078 H2068 0.930 . S
C2078 C2076 1.438 . S
C2078 C2079 1.362 . S
C2079 H2069 0.930 . S
C2079 C2072 1.409 . S
C2079 C2078 1.362 . S
H2080 C2086 0.930 . S
H2081 C2089 0.930 . S
H2082 C2090 0.930 . S
H2083 C2091 0.930 . S
H2084 C2094 0.930 . S
H2085 C2095 0.930 . S
C2086 H2080 0.930 . S
C2086 C2087 1.355 . S
C2086 C2088 1.415 . S
C2087 C2086 1.355 . S
C2087 C2089 1.419 . S
C2088 C2086 1.415 . S
C2088 C2093 1.425 . S
C2088 C2095 1.409 . S
C2089 H2081 0.930 . S
C2089 C2087 1.419 . S
C2089 C2090 1.362 . S
C2090 H2082 0.930 . S
C2090 C2089 1.362 . S
C2090 C2093 1.409 . S
C2091 H2083 0.930 . S
C2091 C2092 1.355 . S
C2091 C2093 1.415 . S
C2092 C2091 1.355 . S
C2092 C2094 1.419 . S
C2093 C2088 1.425 . S
C2093 C2090 1.409 . S
C2093 C2091 1.415 . S
C2094 H2084 0.930 . S
C2094 C2092 1.419 . S
C2094 C2095 1.362 . S
C2095 H2085 0.930 . S
C2095 C2088 1.409 . S
C2095 C2094 1.362 . S
H2096 C2102 0.930 . S
H2097 C2105 0.930 . S
H2098 C2106 0.930 . S
H2099 C2107 0.930 . S
H2100 C2110 0.930 . S
H2101 C2111 0.930 . S
C2102 H2096 0.930 . S
C2102 C2103 1.355 . S
C2102 C2104 1.415 . S
C2103 C2102 1.355 . S
C2103 C2105 1.418 1_545 S
C2104 C2102 1.415 . S
C2104 C2109 1.425 1_544 S
C2104 C2111 1.409 1_554 S
C2105 H2097 0.930 . S
C2105 C2103 1.418 1_565 S
C2105 C2106 1.362 . S
C2106 H2098 0.930 . S
C2106 C2105 1.362 . S
C2106 C2109 1.409 1_554 S
C2107 H2099 0.930 . S
C2107 C2108 1.355 . S
C2107 C2109 1.415 . S
C2108 C2107 1.355 . S
C2108 C2110 1.418 1_565 S
C2109 C2104 1.425 1_566 S
C2109 C2106 1.409 1_556 S
C2109 C2107 1.415 . S
C2110 H2100 0.930 . S
C2110 C2108 1.418 1_545 S
C2110 C2111 1.362 . S
C2111 H2101 0.930 . S
C2111 C2104 1.409 1_556 S
C2111 C2110 1.362 . S
H2112 C2118 0.930 . S
H2113 C2121 0.930 . S
H2114 C2122 0.930 . S
H2115 C2123 0.930 . S
H2116 C2126 0.930 . S
H2117 C2127 0.930 . S
C2118 H2112 0.930 . S
C2118 C2119 1.355 . S
C2118 C2120 1.415 . S
C2119 C2118 1.355 . S
C2119 C2121 1.419 . S
C2120 C2118 1.415 . S
C2120 C2125 1.425 . S
C2120 C2127 1.409 . S
C2121 H2113 0.930 . S
C2121 C2119 1.419 . S
C2121 C2122 1.362 . S
C2122 H2114 0.930 . S
C2122 C2121 1.362 . S
C2122 C2125 1.409 . S
C2123 H2115 0.930 . S
C2123 C2124 1.355 . S
C2123 C2125 1.415 . S
C2124 C2123 1.355 . S
C2124 C2126 1.419 . S
C2125 C2120 1.425 . S
C2125 C2122 1.409 . S
C2125 C2123 1.415 . S
C2126 H2116 0.930 . S
C2126 C2124 1.419 . S
C2126 C2127 1.362 . S
C2127 H2117 0.930 . S
C2127 C2120 1.409 . S
C2127 C2126 1.362 . S
H2128 C2134 0.930 . S
H2129 C2137 0.930 . S
H2130 C2138 0.930 . S
H2131 C2139 0.930 . S
H2132 C2142 0.930 . S
H2133 C2143 0.930 . S
C2134 H2128 0.930 . S
C2134 C2135 1.355 . S
C2134 C2136 1.415 . S
C2135 C2134 1.355 . S
C2135 C2137 1.419 1_545 S
C2136 C2134 1.415 . S
C2136 C2141 1.425 1_545 S
C2136 C2143 1.409 . S
C2137 H2129 0.930 . S
C2137 C2135 1.419 1_565 S
C2137 C2138 1.362 . S
C2138 H2130 0.930 . S
C2138 C2137 1.362 . S
C2138 C2141 1.409 . S
C2139 H2131 0.930 . S
C2139 C2140 1.355 . S
C2139 C2141 1.415 . S
C2140 C2139 1.355 . S
C2140 C2142 1.419 1_565 S
C2141 C2136 1.425 1_565 S
C2141 C2138 1.409 . S
C2141 C2139 1.415 . S
C2142 H2132 0.930 . S
C2142 C2140 1.419 1_545 S
C2142 C2143 1.362 . S
C2143 H2133 0.930 . S
C2143 C2136 1.409 . S
C2143 C2142 1.362 . S
H2144 C2150 0.930 . S
H2145 C2153 0.930 . S
H2146 C2154 0.930 . S
H2147 C2155 0.930 . S
H2148 C2158 0.930 . S
H2149 C2159 0.930 . S
C2150 H2144 0.930 . S
C2150 C2151 1.355 . S
C2150 C2152 1.415 . S
C2151 C2150 1.355 . S
C2151 C2153 1.419 . S
C2152 C2150 1.415 . S
C2152 C2157 1.425 . S
C2152 C2159 1.409 . S
C2153 H2145 0.930 . S
C2153 C2151 1.419 . S
C2153 C2154 1.362 . S
C2154 H2146 0.930 . S
C2154 C2153 1.362 . S
C2154 C2157 1.409 . S
C2155 H2147 0.930 . S
C2155 C2156 1.355 . S
C2155 C2157 1.415 . S
C2156 C2155 1.355 . S
C2156 C2158 1.419 . S
C2157 C2152 1.425 . S
C2157 C2154 1.409 . S
C2157 C2155 1.415 . S
C2158 H2148 0.930 . S
C2158 C2156 1.419 . S
C2158 C2159 1.362 . S
C2159 H2149 0.930 . S
C2159 C2152 1.409 . S
C2159 C2158 1.362 . S
H2160 C2166 0.935 . S
H2161 C2169 0.930 . S
H2162 C2170 0.930 . S
H2163 C2171 0.935 . S
H2164 C2174 0.930 . S
H2165 C2175 0.930 . S
C2166 H2160 0.935 . S
C2166 C2167 1.349 1_665 S
C2166 C2168 1.416 . S
C2167 C2166 1.349 1_445 S
C2167 C2169 1.419 . S
C2168 C2166 1.416 . S
C2168 C2173 1.425 1_666 S
C2168 C2175 1.409 1_556 S
C2169 H2161 0.930 . S
C2169 C2167 1.419 . S
C2169 C2170 1.362 . S
C2170 H2162 0.930 . S
C2170 C2169 1.362 . S
C2170 C2173 1.409 1_556 S
C2171 H2163 0.935 . S
C2171 C2172 1.349 1_445 S
C2171 C2173 1.416 . S
C2172 C2171 1.349 1_665 S
C2172 C2174 1.419 . S
C2173 C2168 1.425 1_444 S
C2173 C2170 1.409 1_554 S
C2173 C2171 1.416 . S
C2174 H2164 0.930 . S
C2174 C2172 1.419 . S
C2174 C2175 1.362 . S
C2175 H2165 0.930 . S
C2175 C2168 1.409 1_554 S
C2175 C2174 1.362 . S
H2176 C2182 0.930 . S
H2177 C2185 0.930 . S
H2178 C2186 0.930 . S
H2179 C2187 0.930 . S
H2180 C2190 0.930 . S
H2181 C2191 0.930 . S
C2182 H2176 0.930 . S
C2182 C2183 1.355 . S
C2182 C2184 1.415 . S
C2183 C2182 1.355 . S
C2183 C2185 1.419 . S
C2184 C2182 1.415 . S
C2184 C2189 1.425 . S
C2184 C2191 1.409 . S
C2185 H2177 0.930 . S
C2185 C2183 1.419 . S
C2185 C2186 1.362 . S
C2186 H2178 0.930 . S
C2186 C2185 1.362 . S
C2186 C2189 1.409 . S
C2187 H2179 0.930 . S
C2187 C2188 1.355 . S
C2187 C2189 1.415 . S
C2188 C2187 1.355 . S
C2188 C2190 1.419 . S
C2189 C2184 1.425 . S
C2189 C2186 1.409 . S
C2189 C2187 1.415 . S
C2190 H2180 0.930 . S
C2190 C2188 1.419 . S
C2190 C2191 1.362 . S
C2191 H2181 0.930 . S
C2191 C2184 1.409 . S
C2191 C2190 1.362 . S
H2192 C2198 0.930 . S
H2193 C2201 0.930 . S
H2194 C2202 0.930 . S
H2195 C2203 0.930 . S
H2196 C2206 0.930 . S
H2197 C2207 0.930 . S
C2198 H2192 0.930 . S
C2198 C2199 1.355 . S
C2198 C2200 1.415 . S
C2199 C2198 1.355 . S
C2199 C2201 1.419 . S
C2200 C2198 1.415 . S
C2200 C2205 1.425 . S
C2200 C2207 1.409 . S
C2201 H2193 0.930 . S
C2201 C2199 1.419 . S
C2201 C2202 1.362 . S
C2202 H2194 0.930 . S
C2202 C2201 1.362 . S
C2202 C2205 1.409 . S
C2203 H2195 0.930 . S
C2203 C2204 1.355 . S
C2203 C2205 1.415 . S
C2204 C2203 1.355 . S
C2204 C2206 1.419 . S
C2205 C2200 1.425 . S
C2205 C2202 1.409 . S
C2205 C2203 1.415 . S
C2206 H2196 0.930 . S
C2206 C2204 1.419 . S
C2206 C2207 1.362 . S
C2207 H2197 0.930 . S
C2207 C2200 1.409 . S
C2207 C2206 1.362 . S
H2208 C2214 0.930 . S
H2209 C2217 0.930 . S
H2210 C2218 0.930 . S
H2211 C2219 0.930 . S
H2212 C2222 0.930 . S
H2213 C2223 0.930 . S
C2214 H2208 0.930 . S
C2214 C2215 1.355 . S
C2214 C2216 1.415 . S
C2215 C2214 1.355 . S
C2215 C2217 1.419 . S
C2216 C2214 1.415 . S
C2216 C2221 1.425 . S
C2216 C2223 1.409 . S
C2217 H2209 0.930 . S
C2217 C2215 1.419 . S
C2217 C2218 1.362 . S
C2218 H2210 0.930 . S
C2218 C2217 1.362 . S
C2218 C2221 1.409 . S
C2219 H2211 0.930 . S
C2219 C2220 1.355 . S
C2219 C2221 1.415 . S
C2220 C2219 1.355 . S
C2220 C2222 1.419 . S
C2221 C2216 1.425 . S
C2221 C2218 1.409 . S
C2221 C2219 1.415 . S
C2222 H2212 0.930 . S
C2222 C2220 1.419 . S
C2222 C2223 1.362 . S
C2223 H2213 0.930 . S
C2223 C2216 1.409 . S
C2223 C2222 1.362 . S
H2224 C2230 0.930 . S
H2225 C2233 0.930 . S
H2226 C2234 0.930 . S
H2227 C2235 0.930 . S
H2228 C2238 0.930 . S
H2229 C2239 0.930 . S
C2230 H2224 0.930 . S
C2230 C2231 1.355 . S
C2230 C2232 1.415 . S
C2231 C2230 1.355 . S
C2231 C2233 1.419 . S
C2232 C2230 1.415 . S
C2232 C2237 1.425 . S
C2232 C2239 1.409 . S
C2233 H2225 0.930 . S
C2233 C2231 1.419 . S
C2233 C2234 1.362 . S
C2234 H2226 0.930 . S
C2234 C2233 1.362 . S
C2234 C2237 1.409 . S
C2235 H2227 0.930 . S
C2235 C2236 1.355 . S
C2235 C2237 1.415 . S
C2236 C2235 1.355 . S
C2236 C2238 1.419 . S
C2237 C2232 1.425 . S
C2237 C2234 1.409 . S
C2237 C2235 1.415 . S
C2238 H2228 0.930 . S
C2238 C2236 1.419 . S
C2238 C2239 1.362 . S
C2239 H2229 0.930 . S
C2239 C2232 1.409 . S
C2239 C2238 1.362 . S
H2240 C2246 0.930 . S
H2241 C2249 0.930 . S
H2242 C2250 0.930 . S
H2243 C2251 0.930 . S
H2244 C2254 0.930 . S
H2245 C2255 0.930 . S
C2246 H2240 0.930 . S
C2246 C2247 1.355 . S
C2246 C2248 1.415 . S
C2247 C2246 1.355 . S
C2247 C2249 1.419 . S
C2248 C2246 1.415 . S
C2248 C2253 1.425 1_554 S
C2248 C2255 1.409 1_554 S
C2249 H2241 0.930 . S
C2249 C2247 1.419 . S
C2249 C2250 1.362 . S
C2250 H2242 0.930 . S
C2250 C2249 1.362 . S
C2250 C2253 1.409 1_554 S
C2251 H2243 0.930 . S
C2251 C2252 1.355 . S
C2251 C2253 1.415 . S
C2252 C2251 1.355 . S
C2252 C2254 1.419 . S
C2253 C2248 1.425 1_556 S
C2253 C2250 1.409 1_556 S
C2253 C2251 1.415 . S
C2254 H2244 0.930 . S
C2254 C2252 1.419 . S
C2254 C2255 1.362 . S
C2255 H2245 0.930 . S
C2255 C2248 1.409 1_556 S
C2255 C2254 1.362 . S
H2256 C2262 0.930 . S
H2257 C2265 0.930 . S
H2258 C2266 0.930 . S
H2259 C2267 0.930 . S
H2260 C2270 0.930 . S
H2261 C2271 0.930 . S
C2262 H2256 0.930 . S
C2262 C2263 1.355 1_455 S
C2262 C2264 1.415 . S
C2263 C2262 1.355 1_655 S
C2263 C2265 1.419 . S
C2264 C2262 1.415 . S
C2264 C2269 1.425 1_455 S
C2264 C2271 1.409 . S
C2265 H2257 0.930 . S
C2265 C2263 1.419 . S
C2265 C2266 1.362 . S
C2266 H2258 0.930 . S
C2266 C2265 1.362 . S
C2266 C2269 1.409 . S
C2267 H2259 0.930 . S
C2267 C2268 1.355 1_655 S
C2267 C2269 1.415 . S
C2268 C2267 1.355 1_455 S
C2268 C2270 1.419 . S
C2269 C2264 1.425 1_655 S
C2269 C2266 1.409 . S
C2269 C2267 1.415 . S
C2270 H2260 0.930 . S
C2270 C2268 1.419 . S
C2270 C2271 1.362 . S
C2271 H2261 0.930 . S
C2271 C2264 1.409 . S
C2271 C2270 1.362 . S
H2272 C2278 0.930 . S
H2273 C2281 0.930 . S
H2274 C2282 0.930 . S
H2275 C2283 0.930 . S
H2276 C2286 0.930 . S
H2277 C2287 0.930 . S
C2278 H2272 0.930 . S
C2278 C2279 1.355 . S
C2278 C2280 1.415 . S
C2279 C2278 1.355 . S
C2279 C2281 1.419 1_455 S
C2280 C2278 1.415 . S
C2280 C2285 1.425 1_454 S
C2280 C2287 1.409 1_554 S
C2281 H2273 0.930 . S
C2281 C2279 1.419 1_655 S
C2281 C2282 1.362 . S
C2282 H2274 0.930 . S
C2282 C2281 1.362 . S
C2282 C2285 1.409 1_554 S
C2283 H2275 0.930 . S
C2283 C2284 1.355 . S
C2283 C2285 1.415 . S
C2284 C2283 1.355 . S
C2284 C2286 1.419 1_655 S
C2285 C2280 1.425 1_656 S
C2285 C2282 1.409 1_556 S
C2285 C2283 1.415 . S
C2286 H2276 0.930 . S
C2286 C2284 1.419 1_455 S
C2286 C2287 1.362 . S
C2287 H2277 0.930 . S
C2287 C2280 1.409 1_556 S
C2287 C2286 1.362 . S
H2288 C2294 0.930 . S
H2289 C2297 0.930 . S
H2290 C2298 0.930 . S
H2291 C2299 0.930 . S
H2292 C2302 0.930 . S
H2293 C2303 0.930 . S
C2294 H2288 0.930 . S
C2294 C2295 1.355 . S
C2294 C2296 1.415 . S
C2295 C2294 1.355 . S
C2295 C2297 1.419 . S
C2296 C2294 1.415 . S
C2296 C2301 1.425 . S
C2296 C2303 1.409 . S
C2297 H2289 0.930 . S
C2297 C2295 1.419 . S
C2297 C2298 1.362 . S
C2298 H2290 0.930 . S
C2298 C2297 1.362 . S
C2298 C2301 1.409 . S
C2299 H2291 0.930 . S
C2299 C2300 1.355 . S
C2299 C2301 1.415 . S
C2300 C2299 1.355 . S
C2300 C2302 1.419 . S
C2301 C2296 1.425 . S
C2301 C2298 1.409 . S
C2301 C2299 1.415 . S
C2302 H2292 0.930 . S
C2302 C2300 1.419 . S
C2302 C2303 1.362 . S
C2303 H2293 0.930 . S
C2303 C2296 1.409 . S
C2303 C2302 1.362 . S
H2304 C2310 0.930 . S
H2305 C2313 0.930 . S
H2306 C2314 0.930 . S
H2307 C2315 0.930 . S
H2308 C2318 0.930 . S
H2309 C2319 0.930 . S
C2310 H2304 0.930 . S
C2310 C2311 1.355 . S
C2310 C2312 1.415 . S
C2311 C2310 1.355 . S
C2311 C2313 1.419 . S
C2312 C2310 1.415 . S
C2312 C2317 1.425 . S
C2312 C2319 1.409 . S
C2313 H2305 0.930 . S
C2313 C2311 1.419 . S
C2313 C2314 1.362 . S
C2314 H2306 0.930 . S
C2314 C2313 1.362 . S
C2314 C2317 1.409 . S
C2315 H2307 0.930 . S
C2315 C2316 1.355 . S
C2315 C2317 1.415 . S
C2316 C2315 1.355 . S
C2316 C2318 1.419 . S
C2317 C2312 1.425 . S
C2317 C2314 1.409 . S
C2317 C2315 1.415 . S
C2318 H2308 0.930 . S
C2318 C2316 1.419 . S
C2318 C2319 1.362 . S
C2319 H2309 0.930 . S
C2319 C2312 1.409 . S
C2319 C2318 1.362 . S
H2320 C2326 0.930 . S
H2321 C2329 0.930 . S
H2322 C2330 0.930 . S
H2323 C2331 0.930 . S
H2324 C2334 0.930 . S
H2325 C2335 0.930 . S
C2326 H2320 0.930 . S
C2326 C2327 1.355 . S
C2326 C2328 1.415 . S
C2327 C2326 1.355 . S
C2327 C2329 1.419 . S
C2328 C2326 1.415 . S
C2328 C2333 1.425 . S
C2328 C2335 1.409 . S
C2329 H2321 0.930 . S
C2329 C2327 1.419 . S
C2329 C2330 1.362 . S
C2330 H2322 0.930 . S
C2330 C2329 1.362 . S
C2330 C2333 1.409 . S
C2331 H2323 0.930 . S
C2331 C2332 1.355 . S
C2331 C2333 1.415 . S
C2332 C2331 1.355 . S
C2332 C2334 1.419 . S
C2333 C2328 1.425 . S
C2333 C2330 1.409 . S
C2333 C2331 1.415 . S
C2334 H2324 0.930 . S
C2334 C2332 1.419 . S
C2334 C2335 1.362 . S
C2335 H2325 0.930 . S
C2335 C2328 1.409 . S
C2335 C2334 1.362 . S
H2336 C2342 0.930 . S
H2337 C2345 0.930 . S
H2338 C2346 0.930 . S
H2339 C2347 0.930 . S
H2340 C2350 0.930 . S
H2341 C2351 0.930 . S
C2342 H2336 0.930 . S
C2342 C2343 1.355 . S
C2342 C2344 1.415 . S
C2343 C2342 1.355 . S
C2343 C2345 1.419 . S
C2344 C2342 1.415 . S
C2344 C2349 1.425 . S
C2344 C2351 1.409 . S
C2345 H2337 0.930 . S
C2345 C2343 1.419 . S
C2345 C2346 1.362 . S
C2346 H2338 0.930 . S
C2346 C2345 1.362 . S
C2346 C2349 1.409 . S
C2347 H2339 0.930 . S
C2347 C2348 1.355 . S
C2347 C2349 1.415 . S
C2348 C2347 1.355 . S
C2348 C2350 1.419 . S
C2349 C2344 1.425 . S
C2349 C2346 1.409 . S
C2349 C2347 1.415 . S
C2350 H2340 0.930 . S
C2350 C2348 1.419 . S
C2350 C2351 1.362 . S
C2351 H2341 0.930 . S
C2351 C2344 1.409 . S
C2351 C2350 1.362 . S
H2352 C2358 0.930 . S
H2353 C2361 0.930 . S
H2354 C2362 0.930 . S
H2355 C2363 0.930 . S
H2356 C2366 0.930 . S
H2357 C2367 0.930 . S
C2358 H2352 0.930 . S
C2358 C2359 1.355 . S
C2358 C2360 1.415 . S
C2359 C2358 1.355 . S
C2359 C2361 1.419 . S
C2360 C2358 1.415 . S
C2360 C2365 1.425 . S
C2360 C2367 1.409 . S
C2361 H2353 0.930 . S
C2361 C2359 1.419 . S
C2361 C2362 1.362 . S
C2362 H2354 0.930 . S
C2362 C2361 1.362 . S
C2362 C2365 1.409 . S
C2363 H2355 0.930 . S
C2363 C2364 1.355 . S
C2363 C2365 1.415 . S
C2364 C2363 1.355 . S
C2364 C2366 1.419 . S
C2365 C2360 1.425 . S
C2365 C2362 1.409 . S
C2365 C2363 1.415 . S
C2366 H2356 0.930 . S
C2366 C2364 1.419 . S
C2366 C2367 1.362 . S
C2367 H2357 0.930 . S
C2367 C2360 1.409 . S
C2367 C2366 1.362 . S
H2368 C2374 0.930 . S
H2369 C2377 0.930 . S
H2370 C2378 0.930 . S
H2371 C2379 0.930 . S
H2372 C2382 0.930 . S
H2373 C2383 0.930 . S
C2374 H2368 0.930 . S
C2374 C2375 1.355 . S
C2374 C2376 1.415 . S
C2375 C2374 1.355 . S
C2375 C2377 1.419 . S
C2376 C2374 1.415 . S
C2376 C2381 1.425 . S
C2376 C2383 1.409 . S
C2377 H2369 0.930 . S
C2377 C2375 1.419 . S
C2377 C2378 1.362 . S
C2378 H2370 0.930 . S
C2378 C2377 1.362 . S
C2378 C2381 1.409 . S
C2379 H2371 0.930 . S
C2379 C2380 1.355 . S
C2379 C2381 1.415 . S
C2380 C2379 1.355 . S
C2380 C2382 1.419 . S
C2381 C2376 1.425 . S
C2381 C2378 1.409 . S
C2381 C2379 1.415 . S
C2382 H2372 0.930 . S
C2382 C2380 1.419 . S
C2382 C2383 1.362 . S
C2383 H2373 0.930 . S
C2383 C2376 1.409 . S
C2383 C2382 1.362 . S
H2384 C2390 0.930 . S
H2385 C2393 0.930 . S
H2386 C2394 0.930 . S
H2387 C2395 0.930 . S
H2388 C2398 0.930 . S
H2389 C2399 0.930 . S
C2390 H2384 0.930 . S
C2390 C2391 1.355 . S
C2390 C2392 1.415 . S
C2391 C2390 1.355 . S
C2391 C2393 1.419 . S
C2392 C2390 1.415 . S
C2392 C2397 1.425 . S
C2392 C2399 1.409 . S
C2393 H2385 0.930 . S
C2393 C2391 1.419 . S
C2393 C2394 1.362 . S
C2394 H2386 0.930 . S
C2394 C2393 1.362 . S
C2394 C2397 1.409 . S
C2395 H2387 0.930 . S
C2395 C2396 1.355 . S
C2395 C2397 1.415 . S
C2396 C2395 1.355 . S
C2396 C2398 1.419 . S
C2397 C2392 1.425 . S
C2397 C2394 1.409 . S
C2397 C2395 1.415 . S
C2398 H2388 0.930 . S
C2398 C2396 1.419 . S
C2398 C2399 1.362 . S
C2399 H2389 0.930 . S
C2399 C2392 1.409 . S
C2399 C2398 1.362 . S
H2400 C2406 0.930 . S
H2401 C2409 0.930 . S
H2402 C2410 0.930 . S
H2403 C2411 0.930 . S
H2404 C2414 0.930 . S
H2405 C2415 0.930 . S
C2406 H2400 0.930 . S
C2406 C2407 1.355 . S
C2406 C2408 1.415 . S
C2407 C2406 1.355 . S
C2407 C2409 1.419 . S
C2408 C2406 1.415 . S
C2408 C2413 1.425 . S
C2408 C2415 1.409 . S
C2409 H2401 0.930 . S
C2409 C2407 1.419 . S
C2409 C2410 1.362 . S
C2410 H2402 0.930 . S
C2410 C2409 1.362 . S
C2410 C2413 1.409 . S
C2411 H2403 0.930 . S
C2411 C2412 1.355 . S
C2411 C2413 1.415 . S
C2412 C2411 1.355 . S
C2412 C2414 1.419 . S
C2413 C2408 1.425 . S
C2413 C2410 1.409 . S
C2413 C2411 1.415 . S
C2414 H2404 0.930 . S
C2414 C2412 1.419 . S
C2414 C2415 1.362 . S
C2415 H2405 0.930 . S
C2415 C2408 1.409 . S
C2415 C2414 1.362 . S
H2416 C2422 0.930 . S
H2417 C2425 0.930 . S
H2418 C2426 0.930 . S
H2419 C2427 0.930 . S
H2420 C2430 0.930 . S
H2421 C2431 0.930 . S
C2422 H2416 0.930 . S
C2422 C2423 1.355 . S
C2422 C2424 1.415 . S
C2423 C2422 1.355 . S
C2423 C2425 1.419 . S
C2424 C2422 1.415 . S
C2424 C2429 1.425 . S
C2424 C2431 1.409 . S
C2425 H2417 0.930 . S
C2425 C2423 1.419 . S
C2425 C2426 1.362 . S
C2426 H2418 0.930 . S
C2426 C2425 1.362 . S
C2426 C2429 1.409 . S
C2427 H2419 0.930 . S
C2427 C2428 1.355 . S
C2427 C2429 1.415 . S
C2428 C2427 1.355 . S
C2428 C2430 1.419 . S
C2429 C2424 1.425 . S
C2429 C2426 1.409 . S
C2429 C2427 1.415 . S
C2430 H2420 0.930 . S
C2430 C2428 1.419 . S
C2430 C2431 1.362 . S
C2431 H2421 0.930 . S
C2431 C2424 1.409 . S
C2431 C2430 1.362 . S
H2432 C2438 0.930 . S
H2433 C2441 0.930 . S
H2434 C2442 0.930 . S
H2435 C2443 0.930 . S
H2436 C2446 0.930 . S
H2437 C2447 0.930 . S
C2438 H2432 0.930 . S
C2438 C2439 1.355 . S
C2438 C2440 1.415 . S
C2439 C2438 1.355 . S
C2439 C2441 1.419 . S
C2440 C2438 1.415 . S
C2440 C2445 1.425 . S
C2440 C2447 1.409 . S
C2441 H2433 0.930 . S
C2441 C2439 1.419 . S
C2441 C2442 1.362 . S
C2442 H2434 0.930 . S
C2442 C2441 1.362 . S
C2442 C2445 1.409 . S
C2443 H2435 0.930 . S
C2443 C2444 1.355 . S
C2443 C2445 1.415 . S
C2444 C2443 1.355 . S
C2444 C2446 1.419 . S
C2445 C2440 1.425 . S
C2445 C2442 1.409 . S
C2445 C2443 1.415 . S
C2446 H2436 0.930 . S
C2446 C2444 1.419 . S
C2446 C2447 1.362 . S
C2447 H2437 0.930 . S
C2447 C2440 1.409 . S
C2447 C2446 1.362 . S
H2448 C2454 0.930 . S
H2449 C2457 0.930 . S
H2450 C2458 0.930 . S
H2451 C2459 0.930 . S
H2452 C2462 0.930 . S
H2453 C2463 0.930 . S
C2454 H2448 0.930 . S
C2454 C2455 1.355 . S
C2454 C2456 1.415 . S
C2455 C2454 1.355 . S
C2455 C2457 1.419 . S
C2456 C2454 1.415 . S
C2456 C2461 1.425 . S
C2456 C2463 1.409 . S
C2457 H2449 0.930 . S
C2457 C2455 1.419 . S
C2457 C2458 1.362 . S
C2458 H2450 0.930 . S
C2458 C2457 1.362 . S
C2458 C2461 1.409 . S
C2459 H2451 0.930 . S
C2459 C2460 1.355 . S
C2459 C2461 1.415 . S
C2460 C2459 1.355 . S
C2460 C2462 1.419 . S
C2461 C2456 1.425 . S
C2461 C2458 1.409 . S
C2461 C2459 1.415 . S
C2462 H2452 0.930 . S
C2462 C2460 1.419 . S
C2462 C2463 1.362 . S
C2463 H2453 0.930 . S
C2463 C2456 1.409 . S
C2463 C2462 1.362 . S
H2464 C2470 0.930 . S
H2465 C2473 0.930 . S
H2466 C2474 0.930 . S
H2467 C2475 0.930 . S
H2468 C2478 0.930 . S
H2469 C2479 0.930 . S
C2470 H2464 0.930 . S
C2470 C2471 1.355 . S
C2470 C2472 1.415 . S
C2471 C2470 1.355 . S
C2471 C2473 1.419 . S
C2472 C2470 1.415 . S
C2472 C2477 1.425 . S
C2472 C2479 1.409 . S
C2473 H2465 0.930 . S
C2473 C2471 1.419 . S
C2473 C2474 1.362 . S
C2474 H2466 0.930 . S
C2474 C2473 1.362 . S
C2474 C2477 1.409 . S
C2475 H2467 0.930 . S
C2475 C2476 1.355 . S
C2475 C2477 1.415 . S
C2476 C2475 1.355 . S
C2476 C2478 1.419 . S
C2477 C2472 1.425 . S
C2477 C2474 1.409 . S
C2477 C2475 1.415 . S
C2478 H2468 0.930 . S
C2478 C2476 1.419 . S
C2478 C2479 1.362 . S
C2479 H2469 0.930 . S
C2479 C2472 1.409 . S
C2479 C2478 1.362 . S
H2480 C2486 0.930 . S
H2481 C2489 0.930 . S
H2482 C2490 0.930 . S
H2483 C2491 0.930 . S
H2484 C2494 0.930 . S
H2485 C2495 0.930 . S
C2486 H2480 0.930 . S
C2486 C2487 1.355 . S
C2486 C2488 1.415 . S
C2487 C2486 1.355 . S
C2487 C2489 1.419 . S
C2488 C2486 1.415 . S
C2488 C2493 1.425 . S
C2488 C2495 1.409 . S
C2489 H2481 0.930 . S
C2489 C2487 1.419 . S
C2489 C2490 1.362 . S
C2490 H2482 0.930 . S
C2490 C2489 1.362 . S
C2490 C2493 1.409 . S
C2491 H2483 0.930 . S
C2491 C2492 1.355 . S
C2491 C2493 1.415 . S
C2492 C2491 1.355 . S
C2492 C2494 1.419 . S
C2493 C2488 1.425 . S
C2493 C2490 1.409 . S
C2493 C2491 1.415 . S
C2494 H2484 0.930 . S
C2494 C2492 1.419 . S
C2494 C2495 1.362 . S
C2495 H2485 0.930 . S
C2495 C2488 1.409 . S
C2495 C2494 1.362 . S
H2496 C2502 0.930 . S
H2497 C2505 0.930 . S
H2498 C2506 0.930 . S
H2499 C2507 0.930 . S
H2500 C2510 0.930 . S
H2501 C2511 0.930 . S
C2502 H2496 0.930 . S
C2502 C2503 1.355 . S
C2502 C2504 1.415 . S
C2503 C2502 1.355 . S
C2503 C2505 1.419 . S
C2504 C2502 1.415 . S
C2504 C2509 1.425 . S
C2504 C2511 1.409 . S
C2505 H2497 0.930 . S
C2505 C2503 1.419 . S
C2505 C2506 1.362 . S
C2506 H2498 0.930 . S
C2506 C2505 1.362 . S
C2506 C2509 1.409 . S
C2507 H2499 0.930 . S
C2507 C2508 1.355 . S
C2507 C2509 1.415 . S
C2508 C2507 1.355 . S
C2508 C2510 1.419 . S
C2509 C2504 1.425 . S
C2509 C2506 1.409 . S
C2509 C2507 1.415 . S
C2510 H2500 0.930 . S
C2510 C2508 1.419 . S
C2510 C2511 1.362 . S
C2511 H2501 0.930 . S
C2511 C2504 1.409 . S
C2511 C2510 1.362 . S
H2512 C2518 0.930 . S
H2513 C2521 0.930 . S
H2514 C2522 0.930 . S
H2515 C2523 0.930 . S
H2516 C2526 0.930 . S
H2517 C2527 0.930 . S
C2518 H2512 0.930 . S
C2518 C2519 1.355 . S
C2518 C2520 1.415 . S
C2519 C2518 1.355 . S
C2519 C2521 1.419 . S
C2520 C2518 1.415 . S
C2520 C2525 1.425 . S
C2520 C2527 1.409 . S
C2521 H2513 0.930 . S
C2521 C2519 1.419 . S
C2521 C2522 1.362 . S
C2522 H2514 0.930 . S
C2522 C2521 1.362 . S
C2522 C2525 1.409 . S
C2523 H2515 0.930 . S
C2523 C2524 1.355 . S
C2523 C2525 1.415 . S
C2524 C2523 1.355 . S
C2524 C2526 1.419 . S
C2525 C2520 1.425 . S
C2525 C2522 1.409 . S
C2525 C2523 1.415 . S
C2526 H2516 0.930 . S
C2526 C2524 1.419 . S
C2526 C2527 1.362 . S
C2527 H2517 0.930 . S
C2527 C2520 1.409 . S
C2527 C2526 1.362 . S
H2528 C2534 0.930 . S
H2529 C2537 0.930 . S
H2530 C2538 0.930 . S
H2531 C2539 0.930 . S
H2532 C2542 0.930 . S
H2533 C2543 0.930 . S
C2534 H2528 0.930 . S
C2534 C2535 1.355 . S
C2534 C2536 1.415 . S
C2535 C2534 1.355 . S
C2535 C2537 1.419 . S
C2536 C2534 1.415 . S
C2536 C2541 1.425 . S
C2536 C2543 1.409 . S
C2537 H2529 0.930 . S
C2537 C2535 1.419 . S
C2537 C2538 1.362 . S
C2538 H2530 0.930 . S
C2538 C2537 1.362 . S
C2538 C2541 1.409 . S
C2539 H2531 0.930 . S
C2539 C2540 1.355 . S
C2539 C2541 1.415 . S
C2540 C2539 1.355 . S
C2540 C2542 1.419 . S
C2541 C2536 1.425 . S
C2541 C2538 1.409 . S
C2541 C2539 1.415 . S
C2542 H2532 0.930 . S
C2542 C2540 1.419 . S
C2542 C2543 1.362 . S
C2543 H2533 0.930 . S
C2543 C2536 1.409 . S
C2543 C2542 1.362 . S
H2544 C2550 0.930 . S
H2545 C2553 0.930 . S
H2546 C2554 0.930 . S
H2547 C2555 0.930 . S
H2548 C2558 0.930 . S
H2549 C2559 0.930 . S
C2550 H2544 0.930 . S
C2550 C2551 1.355 . S
C2550 C2552 1.415 . S
C2551 C2550 1.355 . S
C2551 C2553 1.419 . S
C2552 C2550 1.415 . S
C2552 C2557 1.425 . S
C2552 C2559 1.409 . S
C2553 H2545 0.930 . S
C2553 C2551 1.419 . S
C2553 C2554 1.362 . S
C2554 H2546 0.930 . S
C2554 C2553 1.362 . S
C2554 C2557 1.409 . S
C2555 H2547 0.930 . S
C2555 C2556 1.355 . S
C2555 C2557 1.415 . S
C2556 C2555 1.355 . S
C2556 C2558 1.419 . S
C2557 C2552 1.425 . S
C2557 C2554 1.409 . S
C2557 C2555 1.415 . S
C2558 H2548 0.930 . S
C2558 C2556 1.419 . S
C2558 C2559 1.362 . S
C2559 H2549 0.930 . S
C2559 C2552 1.409 . S
C2559 C2558 1.362 . S
H2560 C2566 0.930 . S
H2561 C2569 0.930 . S
H2562 C2570 0.930 . S
H2563 C2571 0.930 . S
H2564 C2574 0.930 . S
H2565 C2575 0.930 . S
C2566 H2560 0.930 . S
C2566 C2567 1.355 . S
C2566 C2568 1.415 . S
C2567 C2566 1.355 . S
C2567 C2569 1.419 . S
C2568 C2566 1.415 . S
C2568 C2573 1.425 1_545 S
C2568 C2575 1.409 1_545 S
C2569 H2561 0.930 . S
C2569 C2567 1.419 . S
C2569 C2570 1.362 . S
C2570 H2562 0.930 . S
C2570 C2569 1.362 . S
C2570 C2573 1.409 1_545 S
C2571 H2563 0.930 . S
C2571 C2572 1.355 . S
C2571 C2573 1.415 . S
C2572 C2571 1.355 . S
C2572 C2574 1.419 . S
C2573 C2568 1.425 1_565 S
C2573 C2570 1.409 1_565 S
C2573 C2571 1.415 . S
C2574 H2564 0.930 . S
C2574 C2572 1.419 . S
C2574 C2575 1.362 . S
C2575 H2565 0.930 . S
C2575 C2568 1.409 1_565 S
C2575 C2574 1.362 . S
H2576 C2582 0.930 1_545 S
H2577 C2585 0.930 . S
H2578 C2586 0.930 . S
H2579 C2587 0.930 . S
H2580 C2590 0.930 1_545 S
H2581 C2591 0.930 . S
C2582 H2576 0.930 1_565 S
C2582 C2583 1.355 . S
C2582 C2584 1.415 . S
C2583 C2582 1.355 . S
C2583 C2585 1.419 . S
C2584 C2582 1.415 . S
C2584 C2589 1.425 . S
C2584 C2591 1.409 1_565 S
C2585 H2577 0.930 . S
C2585 C2583 1.419 . S
C2585 C2586 1.362 . S
C2586 H2578 0.930 . S
C2586 C2585 1.362 . S
C2586 C2589 1.409 . S
C2587 H2579 0.930 . S
C2587 C2588 1.355 . S
C2587 C2589 1.415 . S
C2588 C2587 1.355 . S
C2588 C2590 1.419 . S
C2589 C2584 1.425 . S
C2589 C2586 1.409 . S
C2589 C2587 1.415 . S
C2590 H2580 0.930 1_565 S
C2590 C2588 1.419 . S
C2590 C2591 1.362 1_565 S
C2591 H2581 0.930 . S
C2591 C2584 1.409 1_545 S
C2591 C2590 1.362 1_545 S
H2592 C2598 0.930 . S
H2593 C2601 0.930 . S
H2594 C2602 0.930 1_565 S
H2595 C2603 0.930 . S
H2596 C2606 0.930 . S
H2597 C2607 0.930 1_545 S
C2598 H2592 0.930 . S
C2598 C2599 1.355 . S
C2598 C2600 1.415 . S
C2599 C2598 1.355 . S
C2599 C2601 1.419 . S
C2600 C2598 1.415 . S
C2600 C2605 1.425 1_545 S
C2600 C2607 1.409 1_545 S
C2601 H2593 0.930 . S
C2601 C2599 1.419 . S
C2601 C2602 1.362 . S
C2602 H2594 0.930 1_545 S
C2602 C2601 1.362 . S
C2602 C2605 1.409 1_545 S
C2603 H2595 0.930 . S
C2603 C2604 1.355 . S
C2603 C2605 1.415 . S
C2604 C2603 1.355 . S
C2604 C2606 1.419 . S
C2605 C2600 1.425 1_565 S
C2605 C2602 1.409 1_565 S
C2605 C2603 1.415 . S
C2606 H2596 0.930 . S
C2606 C2604 1.419 . S
C2606 C2607 1.362 . S
C2607 H2597 0.930 1_565 S
C2607 C2600 1.409 1_565 S
C2607 C2606 1.362 . S
H2608 C2614 0.930 . S
H2609 C2617 0.926 1_565 S
H2610 C2618 0.930 1_565 S
H2611 C2619 0.928 1_565 S
H2612 C2622 0.930 . S
H2613 C2623 0.930 . S
C2614 H2608 0.930 . S
C2614 C2615 1.355 1_554 S
C2614 C2616 1.415 . S
C2615 C2614 1.355 1_556 S
C2615 C2617 1.419 . S
C2616 C2614 1.415 . S
C2616 C2621 1.425 1_554 S
C2616 C2623 1.409 . S
C2617 H2609 0.926 1_545 S
C2617 C2615 1.419 . S
C2617 C2618 1.362 . S
C2618 H2610 0.930 1_545 S
C2618 C2617 1.362 . S
C2618 C2621 1.409 . S
C2619 H2611 0.928 1_545 S
C2619 C2620 1.355 1_556 S
C2619 C2621 1.415 . S
C2620 C2619 1.355 1_554 S
C2620 C2622 1.419 . S
C2621 C2616 1.425 1_556 S
C2621 C2618 1.409 . S
C2621 C2619 1.415 . S
C2622 H2612 0.930 . S
C2622 C2620 1.419 . S
C2622 C2623 1.362 . S
C2623 H2613 0.930 . S
C2623 C2616 1.409 . S
C2623 C2622 1.362 . S
H2624 C2630 0.930 . S
H2625 C2633 0.930 . S
H2626 C2634 0.930 . S
H2627 C2635 0.930 . S
H2628 C2638 0.930 . S
H2629 C2639 0.930 . S
C2630 H2624 0.930 . S
C2630 C2631 1.355 . S
C2630 C2632 1.392 1_565 S
C2631 C2630 1.355 . S
C2631 C2633 1.419 . S
C2632 C2630 1.392 1_545 S
C2632 C2637 1.424 1_545 S
C2632 C2639 1.433 . S
C2633 H2625 0.930 . S
C2633 C2631 1.419 . S
C2633 C2634 1.362 . S
C2634 H2626 0.930 . S
C2634 C2633 1.362 . S
C2634 C2637 1.433 . S
C2635 H2627 0.930 . S
C2635 C2636 1.355 . S
C2635 C2637 1.392 1_545 S
C2636 C2635 1.355 . S
C2636 C2638 1.419 . S
C2637 C2632 1.424 1_565 S
C2637 C2634 1.433 . S
C2637 C2635 1.392 1_565 S
C2638 H2628 0.930 . S
C2638 C2636 1.419 . S
C2638 C2639 1.362 . S
C2639 H2629 0.930 . S
C2639 C2632 1.433 . S
C2639 C2638 1.362 . S
H2640 C2646 0.930 . S
H2641 C2649 0.930 . S
H2642 C2650 0.930 . S
H2643 C2651 0.930 . S
H2644 C2654 0.930 . S
H2645 C2655 0.930 . S
C2646 H2640 0.930 . S
C2646 C2647 1.355 . S
C2646 C2648 1.415 . S
C2647 C2646 1.355 . S
C2647 C2649 1.419 . S
C2648 C2646 1.415 . S
C2648 C2653 1.425 . S
C2648 C2655 1.409 . S
C2649 H2641 0.930 . S
C2649 C2647 1.419 . S
C2649 C2650 1.362 . S
C2650 H2642 0.930 . S
C2650 C2649 1.362 . S
C2650 C2653 1.409 . S
C2651 H2643 0.930 . S
C2651 C2652 1.355 . S
C2651 C2653 1.415 . S
C2652 C2651 1.355 . S
C2652 C2654 1.419 . S
C2653 C2648 1.425 . S
C2653 C2650 1.409 . S
C2653 C2651 1.415 . S
C2654 H2644 0.930 . S
C2654 C2652 1.419 . S
C2654 C2655 1.362 . S
C2655 H2645 0.930 . S
C2655 C2648 1.409 . S
C2655 C2654 1.362 . S
H2656 C2662 0.930 . S
H2657 C2665 0.930 . S
H2658 C2666 0.930 . S
H2659 C2667 0.930 . S
H2660 C2670 0.930 . S
H2661 C2671 0.930 . S
C2662 H2656 0.930 . S
C2662 C2663 1.355 . S
C2662 C2664 1.415 . S
C2663 C2662 1.355 . S
C2663 C2665 1.419 . S
C2664 C2662 1.415 . S
C2664 C2669 1.425 1_565 S
C2664 C2671 1.409 1_565 S
C2665 H2657 0.930 . S
C2665 C2663 1.419 . S
C2665 C2666 1.362 . S
C2666 H2658 0.930 . S
C2666 C2665 1.362 . S
C2666 C2669 1.409 1_565 S
C2667 H2659 0.930 . S
C2667 C2668 1.355 . S
C2667 C2669 1.415 . S
C2668 C2667 1.355 . S
C2668 C2670 1.419 . S
C2669 C2664 1.425 1_545 S
C2669 C2666 1.409 1_545 S
C2669 C2667 1.415 . S
C2670 H2660 0.930 . S
C2670 C2668 1.419 . S
C2670 C2671 1.362 . S
C2671 H2661 0.930 . S
C2671 C2664 1.409 1_545 S
C2671 C2670 1.362 . S
H2672 C2678 0.922 1_545 S
H2673 C2681 0.930 . S
H2674 C2682 0.930 . S
H2675 C2683 0.930 . S
H2676 C2686 0.933 . S
H2677 C2687 0.930 . S
C2678 H2672 0.922 1_565 S
C2678 C2679 1.355 . S
C2678 C2680 1.415 . S
C2679 C2678 1.355 . S
C2679 C2681 1.419 1_554 S
C2680 C2678 1.415 . S
C2680 C2685 1.425 1_554 S
C2680 C2687 1.409 1_565 S
C2681 H2673 0.930 . S
C2681 C2679 1.419 1_556 S
C2681 C2682 1.362 . S
C2682 H2674 0.930 . S
C2682 C2681 1.362 . S
C2682 C2685 1.409 . S
C2683 H2675 0.930 . S
C2683 C2684 1.355 . S
C2683 C2685 1.415 . S
C2684 C2683 1.355 . S
C2684 C2686 1.416 1_566 S
C2685 C2680 1.425 1_556 S
C2685 C2682 1.409 . S
C2685 C2683 1.415 . S
C2686 H2676 0.933 . S
C2686 C2684 1.416 1_544 S
C2686 C2687 1.363 . S
C2687 H2677 0.930 . S
C2687 C2680 1.409 1_545 S
C2687 C2686 1.363 . S
H2688 C2694 0.930 . S
H2689 C2697 0.930 . S
H2690 C2698 0.930 . S
H2691 C2699 0.930 . S
H2692 C2702 0.930 . S
H2693 C2703 0.930 . S
C2694 H2688 0.930 . S
C2694 C2695 1.355 . S
C2694 C2696 1.415 . S
C2695 C2694 1.355 . S
C2695 C2697 1.419 . S
C2696 C2694 1.415 . S
C2696 C2701 1.425 . S
C2696 C2703 1.409 . S
C2697 H2689 0.930 . S
C2697 C2695 1.419 . S
C2697 C2698 1.362 . S
C2698 H2690 0.930 . S
C2698 C2697 1.362 . S
C2698 C2701 1.409 . S
C2699 H2691 0.930 . S
C2699 C2700 1.355 . S
C2699 C2701 1.415 . S
C2700 C2699 1.355 . S
C2700 C2702 1.419 . S
C2701 C2696 1.425 . S
C2701 C2698 1.409 . S
C2701 C2699 1.415 . S
C2702 H2692 0.930 . S
C2702 C2700 1.419 . S
C2702 C2703 1.362 . S
C2703 H2693 0.930 . S
C2703 C2696 1.409 . S
C2703 C2702 1.362 . S
H2704 C2710 0.930 . S
H2705 C2713 0.930 . S
H2706 C2714 0.930 . S
H2707 C2715 0.930 . S
H2708 C2718 0.930 . S
H2709 C2719 0.930 . S
C2710 H2704 0.930 . S
C2710 C2711 1.355 . S
C2710 C2712 1.415 . S
C2711 C2710 1.355 . S
C2711 C2713 1.419 1_556 S
C2712 C2710 1.415 . S
C2712 C2717 1.425 1_556 S
C2712 C2719 1.409 . S
C2713 H2705 0.930 . S
C2713 C2711 1.419 1_554 S
C2713 C2714 1.362 . S
C2714 H2706 0.930 . S
C2714 C2713 1.362 . S
C2714 C2717 1.409 . S
C2715 H2707 0.930 . S
C2715 C2716 1.355 . S
C2715 C2717 1.415 . S
C2716 C2715 1.355 . S
C2716 C2718 1.419 1_554 S
C2717 C2712 1.425 1_554 S
C2717 C2714 1.409 . S
C2717 C2715 1.415 . S
C2718 H2708 0.930 . S
C2718 C2716 1.419 1_556 S
C2718 C2719 1.362 . S
C2719 H2709 0.930 . S
C2719 C2712 1.409 . S
C2719 C2718 1.362 . S
H2720 C2726 0.930 . S
H2721 C2729 0.930 . S
H2722 C2730 0.930 . S
H2723 C2731 0.930 . S
H2724 C2734 0.930 . S
H2725 C2735 0.930 . S
C2726 H2720 0.930 . S
C2726 C2727 1.355 . S
C2726 C2728 1.415 . S
C2727 C2726 1.355 . S
C2727 C2729 1.419 . S
C2728 C2726 1.415 . S
C2728 C2733 1.425 . S
C2728 C2735 1.409 . S
C2729 H2721 0.930 . S
C2729 C2727 1.419 . S
C2729 C2730 1.362 . S
C2730 H2722 0.930 . S
C2730 C2729 1.362 . S
C2730 C2733 1.409 . S
C2731 H2723 0.930 . S
C2731 C2732 1.355 . S
C2731 C2733 1.415 . S
C2732 C2731 1.355 . S
C2732 C2734 1.419 . S
C2733 C2728 1.425 . S
C2733 C2730 1.409 . S
C2733 C2731 1.415 . S
C2734 H2724 0.930 . S
C2734 C2732 1.419 . S
C2734 C2735 1.362 . S
C2735 H2725 0.930 . S
C2735 C2728 1.409 . S
C2735 C2734 1.362 . S
H2736 C2742 0.930 . S
H2737 C2745 0.930 . S
H2738 C2746 0.930 . S
H2739 C2747 0.930 . S
H2740 C2750 0.930 . S
H2741 C2751 0.930 . S
C2742 H2736 0.930 . S
C2742 C2743 1.355 . S
C2742 C2744 1.415 . S
C2743 C2742 1.355 . S
C2743 C2745 1.419 . S
C2744 C2742 1.415 . S
C2744 C2749 1.425 . S
C2744 C2751 1.409 . S
C2745 H2737 0.930 . S
C2745 C2743 1.419 . S
C2745 C2746 1.362 . S
C2746 H2738 0.930 . S
C2746 C2745 1.362 . S
C2746 C2749 1.409 . S
C2747 H2739 0.930 . S
C2747 C2748 1.355 . S
C2747 C2749 1.415 . S
C2748 C2747 1.355 . S
C2748 C2750 1.419 . S
C2749 C2744 1.425 . S
C2749 C2746 1.409 . S
C2749 C2747 1.415 . S
C2750 H2740 0.930 . S
C2750 C2748 1.419 . S
C2750 C2751 1.362 . S
C2751 H2741 0.930 . S
C2751 C2744 1.409 . S
C2751 C2750 1.362 . S
H2752 C2758 0.930 . S
H2753 C2761 0.930 . S
H2754 C2762 0.930 . S
H2755 C2763 0.930 . S
H2756 C2766 0.930 . S
H2757 C2767 0.930 . S
C2758 H2752 0.930 . S
C2758 C2759 1.355 . S
C2758 C2760 1.415 . S
C2759 C2758 1.355 . S
C2759 C2761 1.419 . S
C2760 C2758 1.415 . S
C2760 C2765 1.425 . S
C2760 C2767 1.409 . S
C2761 H2753 0.930 . S
C2761 C2759 1.419 . S
C2761 C2762 1.362 . S
C2762 H2754 0.930 . S
C2762 C2761 1.362 . S
C2762 C2765 1.409 . S
C2763 H2755 0.930 . S
C2763 C2764 1.355 . S
C2763 C2765 1.415 . S
C2764 C2763 1.355 . S
C2764 C2766 1.419 . S
C2765 C2760 1.425 . S
C2765 C2762 1.409 . S
C2765 C2763 1.415 . S
C2766 H2756 0.930 . S
C2766 C2764 1.419 . S
C2766 C2767 1.362 . S
C2767 H2757 0.930 . S
C2767 C2760 1.409 . S
C2767 C2766 1.362 . S
H2768 C2774 0.930 . S
H2769 C2777 0.930 . S
H2770 C2778 0.930 . S
H2771 C2779 0.930 . S
H2772 C2782 0.930 . S
H2773 C2783 0.930 . S
C2774 H2768 0.930 . S
C2774 C2775 1.355 . S
C2774 C2776 1.415 . S
C2775 C2774 1.355 . S
C2775 C2777 1.419 1_556 S
C2776 C2774 1.415 . S
C2776 C2781 1.425 1_556 S
C2776 C2783 1.409 . S
C2777 H2769 0.930 . S
C2777 C2775 1.419 1_554 S
C2777 C2778 1.362 . S
C2778 H2770 0.930 . S
C2778 C2777 1.362 . S
C2778 C2781 1.409 . S
C2779 H2771 0.930 . S
C2779 C2780 1.355 . S
C2779 C2781 1.415 . S
C2780 C2779 1.355 . S
C2780 C2782 1.419 1_554 S
C2781 C2776 1.425 1_554 S
C2781 C2778 1.409 . S
C2781 C2779 1.415 . S
C2782 H2772 0.930 . S
C2782 C2780 1.419 1_556 S
C2782 C2783 1.362 . S
C2783 H2773 0.930 . S
C2783 C2776 1.409 . S
C2783 C2782 1.362 . S
H2784 C2790 0.930 . S
H2785 C2793 0.930 . S
H2786 C2794 0.930 . S
H2787 C2795 0.930 . S
H2788 C2798 0.930 . S
H2789 C2799 0.930 . S
C2790 H2784 0.930 . S
C2790 C2791 1.355 . S
C2790 C2792 1.415 . S
C2791 C2790 1.355 . S
C2791 C2793 1.419 . S
C2792 C2790 1.415 . S
C2792 C2797 1.425 . S
C2792 C2799 1.409 . S
C2793 H2785 0.930 . S
C2793 C2791 1.419 . S
C2793 C2794 1.362 . S
C2794 H2786 0.930 . S
C2794 C2793 1.362 . S
C2794 C2797 1.409 . S
C2795 H2787 0.930 . S
C2795 C2796 1.355 . S
C2795 C2797 1.415 . S
C2796 C2795 1.355 . S
C2796 C2798 1.419 . S
C2797 C2792 1.425 . S
C2797 C2794 1.409 . S
C2797 C2795 1.415 . S
C2798 H2788 0.930 . S
C2798 C2796 1.419 . S
C2798 C2799 1.362 . S
C2799 H2789 0.930 . S
C2799 C2792 1.409 . S
C2799 C2798 1.362 . S
H2800 C2806 0.930 . S
H2801 C2809 0.930 . S
H2802 C2810 0.930 . S
H2803 C2811 0.930 . S
H2804 C2814 0.930 . S
H2805 C2815 0.930 . S
C2806 H2800 0.930 . S
C2806 C2807 1.355 . S
C2806 C2808 1.415 . S
C2807 C2806 1.355 . S
C2807 C2809 1.419 . S
C2808 C2806 1.415 . S
C2808 C2813 1.425 . S
C2808 C2815 1.409 . S
C2809 H2801 0.930 . S
C2809 C2807 1.419 . S
C2809 C2810 1.362 . S
C2810 H2802 0.930 . S
C2810 C2809 1.362 . S
C2810 C2813 1.409 . S
C2811 H2803 0.930 . S
C2811 C2812 1.355 . S
C2811 C2813 1.415 . S
C2812 C2811 1.355 . S
C2812 C2814 1.419 . S
C2813 C2808 1.425 . S
C2813 C2810 1.409 . S
C2813 C2811 1.415 . S
C2814 H2804 0.930 . S
C2814 C2812 1.419 . S
C2814 C2815 1.362 . S
C2815 H2805 0.930 . S
C2815 C2808 1.409 . S
C2815 C2814 1.362 . S
C1287 C7 0.612 . S
C1292 C1091 0.618 . S
C1303 C47 0.676 . S
C1308 C331 0.683 . S
C1319 C87 0.796 . S
C1324 C1011 0.814 . S
C1335 C411 0.689 . S
C1340 C127 0.682 . S
C1351 C167 0.786 . S
C1356 C1171 0.806 . S
C1367 C571 0.580 . S
C1372 C207 0.579 . S
C1383 C1251 0.802 . S
C1388 C247 0.785 . S
C1399 C287 0.799 . S
C1404 C491 0.818 . S
C1415 C336 0.661 . S
C1420 C762 0.673 . S
C1431 C376 0.702 . S
C1436 C2 0.711 . S
C1447 C682 0.788 . S
C1452 C416 0.769 . S
C1463 C82 0.782 . S
C1468 C456 0.763 . S
C1479 C496 0.689 . S
C1484 C842 0.696 . S
C1495 C536 0.711 . S
C1500 C242 0.720 . S
C1511 C576 0.784 . S
C1516 C922 0.805 . S
C1527 C162 0.798 . S
C1532 C616 0.782 . S
C1543 C451 0.820 . S
C1548 C647 0.801 . S
C1559 C971 0.789 . S
C1564 C687 0.774 . S
C1575 C371 0.672 . S
C1580 C727 0.666 . S
C1591 C767 0.780 . S
C1596 C1051 0.797 . S
C1607 C531 0.694 . S
C1612 C807 0.686 . S
C1623 C1211 0.797 . S
C1628 C847 0.780 . S
C1639 C611 0.824 . S
C1644 C887 0.804 . S
C1655 C927 0.666 . S
C1660 C1131 0.672 . S
C1671 C976 0.804 . S
C1676 C122 0.824 . S
C1687 C1016 0.688 . S
C1692 C642 0.702 . S
C1703 C1056 0.686 . S
C1708 C42 0.700 . S
C1719 C1096 0.771 . S
C1724 C722 0.790 . S
C1735 C202 0.822 . S
C1740 C1136 0.803 . S
C1751 C882 0.690 . S
C1756 C1176 0.682 . S
C1767 C1216 0.776 . S
C1772 C282 0.792 . S
C1783 C1256 0.694 . S
C1788 C802 0.702 . S
C1799 C19 2.794 . S
C1804 C739 2.800 . S
C1815 C779 2.826 . S
C1820 C59 2.832 . S
C1831 C99 2.832 . S
C1836 C659 2.826 . S
C1847 C139 2.826 . S
C1852 C699 2.832 . S
C1863 C899 2.804 . S
C1868 C179 2.798 . S
C1879 C219 2.833 . S
C1884 C939 2.837 . S
C1895 C819 2.836 . S
C1900 C259 2.832 . S
C1911 C299 2.837 1_655 S
C1916 C859 2.835 1_455 S
C1927 C1050 2.789 . S
C1932 C330 2.789 . S
C1943 C370 2.799 . S
C1948 C1090 2.805 . S
C1959 C410 2.824 . S
C1964 C970 2.830 . S
C1975 C450 2.838 . S
C1980 C1010 2.839 . S
C1991 C1210 2.791 . S
C1996 C490 2.789 . S
C2007 C1250 2.796 . S
C2012 C530 2.792 . S
C2023 C570 2.822 . S
C2028 C1130 2.815 . S
C2039 C610 2.802 . S
C2044 C1170 2.809 . S
C2055 C11 3.377 . S
C2060 C962 3.377 . S
C2071 C362 3.406 1_565 S
C2076 C51 3.406 1_545 S
C2087 C91 3.377 . S
C2092 C1042 3.377 . S
C2103 C131 3.408 . S
C2108 C442 3.408 . S
C2119 C1122 3.407 . S
C2124 C171 3.407 . S
C2135 C522 3.388 . S
C2140 C211 3.388 . S
C2151 C251 3.383 . S
C2156 C1202 3.383 . S
C2167 C291 3.376 . S
C2172 C602 3.376 . S
C2183 C651 3.378 . S
C2188 C322 3.378 . S
C2199 C731 3.380 . S
C2204 C402 3.380 . S
C2215 C811 3.407 . S
C2220 C482 3.407 . S
C2231 C562 3.384 . S
C2236 C891 3.384 . S
C2247 C691 3.395 . S
C2252 C1002 3.395 . S
C2263 C771 3.384 . S
C2268 C1082 3.384 . S
C2279 C1162 3.398 . S
C2284 C851 3.398 . S
C2295 C1242 3.383 . S
C2300 C931 3.383 . S
C2311 C10 4.549 . S
C2316 C210 4.550 . S
C2327 C250 4.553 . S
C2332 C50 4.554 . S
C2343 C290 4.535 . S
C2348 C90 4.535 . S
C2359 C170 4.542 . S
C2364 C130 4.543 . S
C2375 C339 4.557 . S
C2380 C539 4.558 . S
C2391 C379 4.541 . S
C2396 C579 4.542 . S
C2407 C619 4.544 . S
C2412 C419 4.543 . S
C2423 C459 4.536 . S
C2428 C499 4.536 . S
C2439 C650 4.556 . S
C2444 C850 4.557 . S
C2455 C690 4.535 . S
C2460 C890 4.535 . S
C2471 C730 4.548 . S
C2476 C930 4.547 . S
C2487 C810 4.554 . S
C2492 C770 4.555 . S
C2503 C979 4.555 . S
C2508 C1179 4.556 . S
C2519 C1019 4.553 . S
C2524 C1219 4.554 . S
C2535 C1259 4.549 . S
C2540 C1059 4.548 . S
C2551 C1099 4.544 . S
C2556 C1139 4.544 . S
C2567 C16 0.664 . S
C2572 C176 0.609 . S
C2583 C56 0.735 . S
C2588 C216 0.739 . S
C2599 C256 0.590 . S
C2604 C96 0.638 . S
C2615 C296 0.581 . S
C2620 C136 0.583 . S
C2631 C327 0.712 . S
C2636 C487 0.740 . S
C2647 C527 0.592 . S
C2652 C367 0.577 . S
C2663 C567 0.732 . S
C2668 C407 0.692 . S
C2679 C607 0.700 . S
C2684 C447 0.736 . S
C2695 C656 0.634 . S
C2700 C816 0.588 . S
C2711 C856 0.735 . S
C2716 C696 0.738 . S
C2727 C736 0.647 . S
C2732 C896 0.702 . S
C2743 C936 0.576 . S
C2748 C776 0.596 . S
C2759 C1127 0.690 . S
C2764 C967 0.634 . S
C2775 C1007 0.718 . S
C2780 C1167 0.741 . S
C2791 C1047 0.687 . S
C2796 C1207 0.729 . S
C2807 C1087 0.703 . S
C2812 C1247 0.737 . S
