# Generated by pormake.
# Topology umg, (4)-cn, num edge types: 1
# Building blocks:
#     Node 0, Type 0, BuildingBlock: ESEHIV_clean_sbu_0, # of connection points: 4
#     Node 1, Type 0, BuildingBlock: ESEHIV_clean_sbu_0, # of connection points: 4
#     Node 2, Type 0, BuildingBlock: ESEHIV_clean_sbu_0, # of connection points: 4
#     Node 3, Type 0, BuildingBlock: ESEHIV_clean_sbu_0, # of connection points: 4
#     Node 4, Type 0, BuildingBlock: ESEHIV_clean_sbu_0, # of connection points: 4
#     Node 5, Type 0, BuildingBlock: ESEHIV_clean_sbu_0, # of connection points: 4
#     Node 6, Type 0, BuildingBlock: ESEHIV_clean_sbu_0, # of connection points: 4
#     Node 7, Type 0, BuildingBlock: ESEHIV_clean_sbu_0, # of connection points: 4
#     Node 8, Type 0, BuildingBlock: ESEHIV_clean_sbu_0, # of connection points: 4
#     Node 9, Type 0, BuildingBlock: ESEHIV_clean_sbu_0, # of connection points: 4
#     Node 10, Type 0, BuildingBlock: ESEHIV_clean_sbu_0, # of connection points: 4
#     Node 11, Type 0, BuildingBlock: ESEHIV_clean_sbu_0, # of connection points: 4
#     Edge 12, Type (0, 0), None
#     Edge 13, Type (0, 0), None
#     Edge 14, Type (0, 0), None
#     Edge 15, Type (0, 0), None
#     Edge 16, Type (0, 0), None
#     Edge 17, Type (0, 0), None
#     Edge 18, Type (0, 0), None
#     Edge 19, Type (0, 0), None
#     Edge 20, Type (0, 0), None
#     Edge 21, Type (0, 0), None
#     Edge 22, Type (0, 0), None
#     Edge 23, Type (0, 0), None
#     Edge 24, Type (0, 0), None
#     Edge 25, Type (0, 0), None
#     Edge 26, Type (0, 0), None
#     Edge 27, Type (0, 0), None
#     Edge 28, Type (0, 0), None
#     Edge 29, Type (0, 0), None
#     Edge 30, Type (0, 0), None
#     Edge 31, Type (0, 0), None
#     Edge 32, Type (0, 0), None
#     Edge 33, Type (0, 0), None
#     Edge 34, Type (0, 0), None
#     Edge 35, Type (0, 0), None
# Relax obj value: 0.031
# Max RMSD: 0.154
# Mean RMSD: 0.101
data_MOF--net-umg--node1-ESEHIV_clean_sbu_0--edge1-none
_symmetry_space_group_name_H-M    P1
_symmetry_Int_Tables_number       1
_symmetry_cell_setting            triclinic
loop_
_symmetry_equiv_pos_as_xyz
'x, y, z'
_cell_length_a     12.532109
_cell_length_b     17.599316
_cell_length_c     39.922412
_cell_angle_alpha  91.309654
_cell_angle_beta   89.953115
_cell_angle_gamma 112.1768
loop_
_atom_site_label
_atom_site_type_symbol
_atom_site_fract_x
_atom_site_fract_y
_atom_site_fract_z
_atom_type_partial_charge
Cu0 Cu 0.33044 0.515 0.15943 0.0
N1 N 0.36134 0.608 0.13369 0.0
N2 N 0.39164 0.68163 0.08757 0.0
C3 C 0.35828 0.6058 0.10001 0.0
C4 C 0.41643 0.73398 0.11422 0.0
C5 C 0.39738 0.68804 0.14284 0.0
O6 O 0.38935 0.44228 0.13539 0.0
C7 C 0.09686 0.49534 0.16671 0.0
O8 O 0.1394 0.57527 0.17173 0.0
H9 H 0.33508 0.54974 0.08509 0.0
H10 H 0.41134 0.71155 0.16837 0.0
N11 N 0.39852 0.5373 0.20208 0.0
N12 N 0.4564 0.58852 0.25356 0.0
C13 C 0.40436 0.59646 0.2249 0.0
C14 C 0.44833 0.49089 0.21687 0.0
C15 C 0.48425 0.52228 0.24858 0.0
C16 C 0.49477 0.45363 0.13067 0.0
O17 O 0.51847 0.39821 0.11323 0.0
H18 H 0.36756 0.64225 0.22111 0.0
H19 H 0.45572 0.43675 0.20556 0.0
O20 O 0.16464 0.45759 0.16221 0.0
H21 H 0.44708 0.80016 0.11315 0.0
H22 H 0.52521 0.4972 0.2668 0.0
Cu23 Cu 0.75614 0.36586 0.46586 0.0
N24 N 0.74291 0.25594 0.45671 0.0
N25 N 0.66127 0.11852 0.45029 0.0
C26 C 0.64293 0.18939 0.45369 0.0
C27 C 0.77681 0.14096 0.45112 0.0
C28 C 0.82679 0.22562 0.45506 0.0
O29 O 0.76271 0.38285 0.51409 0.0
C30 C 0.59017 0.3726 0.41743 0.0
O31 O 0.49581 0.38305 0.40861 0.0
H32 H 0.55867 0.19284 0.4551 0.0
H33 H 0.91789 0.26231 0.45736 0.0
N34 N 0.88603 0.45353 0.44904 0.0
N35 N 1.06234 0.55248 0.44499 0.0
C36 C 1.00044 0.47456 0.45451 0.0
C37 C 0.87736 0.52085 0.43567 0.0
C38 C 0.98546 0.58182 0.43322 0.0
C39 C 0.68137 0.34133 0.53314 0.0
O40 O 0.58784 0.28514 0.52012 0.0
H41 H 1.03662 0.43583 0.46707 0.0
H42 H 0.79679 0.52704 0.4299 0.0
O43 O 0.61796 0.3779 0.44841 0.0
H44 H 0.82199 0.09941 0.44951 0.0
H45 H 1.00562 0.64332 0.42438 0.0
Cu46 Cu 0.44467 0.78075 0.77731 0.0
N47 N 0.5349 0.72027 0.76709 0.0
N48 N 0.57652 0.6088 0.75961 0.0
C49 C 0.49256 0.63905 0.76007 0.0
C50 C 0.67544 0.67303 0.76654 0.0
C51 C 0.64921 0.74178 0.77141 0.0
O52 O 0.40341 0.75767 0.8239 0.0
C53 C 0.33263 0.73897 0.71673 0.0
O54 O 0.43977 0.76209 0.70694 0.0
H55 H 0.40147 0.60237 0.75767 0.0
H56 H 0.70817 0.80163 0.77992 0.0
N57 N 0.52391 0.89345 0.77056 0.0
N58 N 0.56259 1.02799 0.76937 0.0
C59 C 0.48527 0.95386 0.77764 0.0
C60 C 0.62799 0.93113 0.75648 0.0
C61 C 0.65268 1.01443 0.75599 0.0
C62 C 0.34827 0.78984 0.84232 0.0
O63 O 0.30795 0.84177 0.82954 0.0
H64 H 0.40171 0.94383 0.78795 0.0
H65 H 0.68163 0.90037 0.74658 0.0
O66 O 0.31195 0.74145 0.74782 0.0
H67 H 0.75926 0.66987 0.76995 0.0
H68 H 0.73004 0.06084 0.74639 0.0
Cu69 Cu 0.74388 0.4416 0.15049 0.0
N70 N 0.73062 0.39069 0.10828 0.0
N71 N 0.72911 0.37663 1.05267 0.0
C72 C 0.75235 0.42987 0.079 0.0
C73 C 0.69201 0.30105 0.06564 0.0
C74 C 0.69331 0.31002 0.10016 0.0
O75 O 0.68929 0.5312 0.14905 0.0
C76 C 0.97194 0.45129 0.16244 0.0
O77 O 0.92947 0.37219 0.15533 0.0
H78 H 0.78183 0.49584 0.0772 0.0
H79 H 0.66707 0.26127 0.11807 0.0
N80 N 0.66228 0.36955 0.1836 0.0
N81 N 0.61048 0.32118 0.23481 0.0
C82 C 0.69569 0.3719 0.21579 0.0
C83 C 0.55284 0.31456 0.18221 0.0
C84 C 0.52033 0.285 0.21386 0.0
C85 C 0.58889 0.5293 0.14236 0.0
O86 O 0.57062 0.59759 0.14565 0.0
H87 H 0.77915 0.41255 0.2253 0.0
H88 H 0.49897 0.29852 0.16003 0.0
O89 O 0.90605 0.49125 0.16244 0.0
H90 H 0.6653 0.24386 1.05135 0.0
H91 H 0.43699 0.24066 0.22089 0.0
Cu92 Cu 0.48825 0.79425 0.46521 0.0
N93 N 0.4956 0.89991 0.45336 0.0
N94 N 0.57723 1.03711 0.44883 0.0
C95 C 0.59518 0.96688 0.45335 0.0
C96 C 0.46194 1.01387 0.4457 0.0
C97 C 0.41178 0.92915 0.44856 0.0
O98 O 0.51422 0.79872 0.51322 0.0
C99 C 0.62772 0.76341 0.41352 0.0
O100 O 0.71854 0.74991 0.40308 0.0
H101 H 0.6786 0.96427 0.45823 0.0
H102 H 0.32054 0.89208 0.4485 0.0
N103 N 0.35676 0.69737 0.45485 0.0
N104 N 0.18285 0.59595 0.44811 0.0
C105 C 0.24184 0.67854 0.45103 0.0
C106 C 0.3683 0.62412 0.45392 0.0
C107 C 0.26203 0.56183 0.44986 0.0
C108 C 0.43251 0.78037 0.53423 0.0
O109 O 0.3255 0.75699 0.52363 0.0
H110 H 0.20218 0.72352 0.45174 0.0
H111 H 0.44937 0.61648 0.45702 0.0
O112 O 0.61906 0.77814 0.4446 0.0
H113 H 0.41689 0.05497 0.44256 0.0
H114 H 0.24416 0.49667 0.44859 0.0
Cu115 Cu 0.68655 0.35164 0.7758 0.0
N116 N 0.59864 0.41256 0.76551 0.0
N117 N 0.56142 0.52518 0.75869 0.0
C118 C 0.64308 0.4949 0.76474 0.0
C119 C 0.46136 0.45968 0.75541 0.0
C120 C 0.48492 0.38972 0.75946 0.0
O121 O 0.75814 0.39527 0.81892 0.0
C122 C 0.75249 0.34873 0.71019 0.0
O123 O 0.64027 0.3187 0.70632 0.0
H124 H 0.73297 0.53155 0.76962 0.0
H125 H 0.42337 0.32706 0.75867 0.0
N126 N 0.59886 0.23978 0.77848 0.0
N127 N 0.55267 0.10462 0.77478 0.0
C128 C 0.63223 0.17905 0.76788 0.0
C129 C 0.49495 0.20245 0.79258 0.0
C130 C 0.46591 0.11859 0.79029 0.0
C131 C 0.85701 0.45274 0.82121 0.0
O132 O 0.91861 0.4767 0.794 0.0
H133 H 0.71415 0.18955 0.75607 0.0
H134 H 0.44513 0.23404 0.80435 0.0
O135 O 0.79505 0.36696 0.73959 0.0
H136 H 0.37749 0.46203 0.75108 0.0
H137 H 0.3888 0.0721 0.79998 0.0
Cu138 Cu 0.40635 0.7588 0.63891 0.0
N139 N 0.48122 0.86836 0.65305 0.0
N140 N 0.51339 1.00059 0.66175 0.0
C141 C 0.43684 0.92685 0.65124 0.0
C142 C 0.6096 0.98879 0.6705 0.0
C143 C 0.58913 0.90668 0.66532 0.0
O144 O 0.37661 0.7567 0.59114 0.0
C145 C 0.23814 0.70788 0.69221 0.0
O146 O 0.13141 0.67571 0.70273 0.0
H147 H 0.35183 0.91589 0.64135 0.0
H148 H 0.64922 0.87739 0.67003 0.0
N149 N 0.49608 0.69634 0.64643 0.0
N150 N 0.54298 0.58795 0.65445 0.0
C151 C 0.45739 0.61681 0.65484 0.0
C152 C 0.60972 0.71789 0.64071 0.0
C153 C 0.639 0.65092 0.64561 0.0
C154 C 0.45794 0.78473 0.57024 0.0
O155 O 0.5651 0.81696 0.58093 0.0
H156 H 0.36776 0.5801 0.65947 0.0
H157 H 0.66674 0.77717 0.63222 0.0
O158 O 0.2572 0.71104 0.6608 0.0
H159 H 0.68881 1.03595 0.67958 0.0
H160 H 0.72304 0.64811 0.64204 0.0
Cu161 Cu 0.85389 0.56335 0.94643 0.0
N162 N 0.78638 0.47034 0.97226 0.0
N163 N 0.73937 0.39663 1.01846 0.0
C164 C 0.78697 0.47243 1.00596 0.0
C165 C 0.70692 0.3444 0.99178 0.0
C166 C 0.73615 0.39038 0.96313 0.0
O167 O 0.99023 0.63567 0.9705 0.0
C168 C 0.64237 0.58564 0.93839 0.0
O169 O 0.5994 0.50647 0.93144 0.0
H170 H 0.82427 0.52844 1.02086 0.0
H171 H 0.72381 0.36704 0.93755 0.0
N172 N 0.89676 0.54098 0.90343 0.0
N173 N 0.89503 0.49333 0.85094 0.0
C174 C 0.83599 0.485 0.87994 0.0
C175 C 0.99707 0.58551 0.88874 0.0
C176 C 0.99642 0.55631 0.85645 0.0
C177 C 0.0835 0.62428 0.97536 0.0
O178 O 0.16476 0.67874 0.99349 0.0
H179 H 0.74872 0.44174 0.88352 0.0
H180 H 1.06482 0.63741 0.90044 0.0
O181 O 0.7497 0.62167 0.94429 0.0
H182 H 0.66639 0.27827 0.99285 0.0
H183 H 1.06387 0.58108 0.83815 0.0
Cu184 Cu 0.43 0.74493 0.32735 0.0
N185 N 0.28307 0.68604 0.34348 0.0
N186 N 0.1238 0.57622 0.35221 0.0
C187 C 0.23729 0.6038 0.34553 0.0
C188 C 0.09657 0.6433 0.35461 0.0
C189 C 0.19575 0.71139 0.34935 0.0
O190 O 0.43824 0.69385 0.28439 0.0
C191 C 0.53886 0.76164 0.38918 0.0
O192 O 0.45728 0.78759 0.39787 0.0
H193 H 0.28456 0.56492 0.33984 0.0
H194 H 0.2023 0.7743 0.34797 0.0
N195 N 0.45484 0.85519 0.32175 0.0
N196 N 0.53869 0.99148 0.32514 0.0
C197 C 0.54095 0.91991 0.33565 0.0
C198 C 0.39654 0.8871 0.3018 0.0
C199 C 0.44828 0.97168 0.30384 0.0
C200 C 0.46983 0.63322 0.28256 0.0
O201 O 0.50877 0.61085 0.30964 0.0
H202 H 0.60511 0.91458 0.35252 0.0
H203 H 0.32254 0.85126 0.28655 0.0
O204 O 0.54376 0.73905 0.35895 0.0
H205 H 1.01089 0.64296 0.35835 0.0
H206 H 0.42172 1.01478 0.29071 0.0
Cu207 Cu 0.62619 0.31492 0.6372 0.0
N208 N 0.54196 0.20872 0.6512 0.0
N209 N 0.49955 0.07629 0.66041 0.0
C210 C 0.58446 0.15095 0.65802 0.0
C211 C 0.40011 0.08698 0.655 0.0
C212 C 0.42674 0.16895 0.64919 0.0
O213 O 0.61562 0.3086 0.58867 0.0
C214 C 0.82779 0.36148 0.68094 0.0
O215 O 0.93969 0.38651 0.6855 0.0
H216 H 0.67555 0.16234 0.6585 0.0
H217 H 0.36694 0.19639 0.64154 0.0
N218 N 0.56213 0.3896 0.65252 0.0
N219 N 0.53161 0.50588 0.65842 0.0
C220 C 0.60304 0.47055 0.64655 0.0
C221 C 0.46217 0.37393 0.66893 0.0
C222 C 0.44256 0.44573 0.67237 0.0
C223 C 0.6939 0.354 0.56964 0.0
O224 O 0.78746 0.41005 0.5827 0.0
H225 H 0.68089 0.50193 0.63267 0.0
H226 H 0.40634 0.31435 0.67743 0.0
O227 O 0.78746 0.34982 0.6511 0.0
H228 H 0.3154 1.03864 0.65348 0.0
H229 H 0.36864 0.45298 0.68385 0.0
Cu230 Cu 0.34585 0.6392 0.95538 0.0
N231 N 0.38777 0.68797 0.99785 0.0
N232 N 0.40232 0.70163 0.05339 0.0
C233 C 0.3665 0.64859 1.02706 0.0
C234 C 0.44853 0.77714 1.0405 0.0
C235 C 0.43959 0.7684 1.00602 0.0
O236 O 0.19717 0.5483 0.95654 0.0
C237 C 0.56499 0.63028 0.9434 0.0
O238 O 0.60687 0.70772 0.95328 0.0
H239 H 0.32333 0.58278 1.02884 0.0
H240 H 0.46744 0.81723 0.98817 0.0
N241 N 0.33744 0.71468 0.92435 0.0
N242 N 0.33421 0.77219 0.87533 0.0
C243 C 0.36226 0.71566 0.89151 0.0
C244 C 0.2936 0.77323 0.92904 0.0
C245 C 0.29065 0.80841 0.89877 0.0
C246 C 0.09828 0.54927 0.9633 0.0
O247 O 1.00806 0.48078 0.95967 0.0
H248 H 0.39718 0.67424 0.87961 0.0
H249 H 0.26455 0.789 0.95269 0.0
O250 O 0.4565 0.59161 0.94162 0.0
H251 H 0.4854 0.83412 0.05481 0.0
H252 H 0.2597 0.8571 0.8944 0.0
Cu253 Cu 0.73326 0.31903 0.33049 0.0
N254 N 0.88668 0.38323 0.34121 0.0
N255 N 1.04665 0.49348 0.35089 0.0
C256 C 0.93186 0.46551 0.34553 0.0
C257 C 0.07513 0.42686 0.35003 0.0
C258 C 0.97593 0.35876 0.34402 0.0
O259 O 0.71018 0.33924 0.28397 0.0
C260 C 0.66141 0.35447 0.3916 0.0
O261 O 0.75295 0.34057 0.40024 0.0
H262 H 0.88233 0.50396 0.34342 0.0
H263 H 0.97 0.29613 0.34085 0.0
N264 N 0.70304 0.20747 0.33679 0.0
N265 N 0.61637 0.07103 0.33437 0.0
C266 C 0.62359 0.14226 0.32083 0.0
C267 C 0.74688 0.17569 0.36116 0.0
C268 C 0.69376 0.0913 0.3597 0.0
C269 C 0.61467 0.30915 0.2682 0.0
O270 O 0.52106 0.26448 0.28417 0.0
H271 H 0.57089 0.14661 0.30021 0.0
H272 H 0.81065 0.21154 0.37943 0.0
O273 O 0.63467 0.35021 0.36071 0.0
H274 H 0.16141 0.4275 0.35255 0.0
H275 H 0.70831 1.04875 0.37651 0.0
loop_
_geom_bond_atom_site_label_1
_geom_bond_atom_site_label_2
_geom_bond_distance
_geom_bond_site_symmetry_2
_ccdc_geom_bond_type
Cu0 N1 1.999 . S
Cu0 O6 1.974 . S
Cu0 N11 1.985 . S
Cu0 O20 1.959 . S
N1 Cu0 1.999 . S
N1 C3 1.263 . S
N1 C5 1.389 . S
N2 C3 1.358 . S
N2 C4 1.400 . S
C3 N1 1.263 . S
C3 N2 1.358 . S
C3 H9 0.930 . S
C4 N2 1.400 . S
C4 C5 1.351 . S
C4 H21 0.930 1_554 S
C5 N1 1.389 . S
C5 C4 1.351 . S
C5 H10 0.930 . S
O6 Cu0 1.974 . S
O6 C16 1.282 . S
C7 O8 1.261 . S
C7 O20 1.251 . S
O8 C7 1.261 . S
H9 C3 0.930 . S
H10 C5 0.930 . S
N11 Cu0 1.985 . S
N11 C13 1.335 . S
N11 C14 1.390 . S
N12 C13 1.345 . S
N12 C15 1.336 . S
C13 N11 1.335 . S
C13 N12 1.345 . S
C13 H18 0.930 . S
C14 N11 1.390 . S
C14 C15 1.346 . S
C14 H19 0.930 . S
C15 N12 1.336 . S
C15 C14 1.346 . S
C15 H22 0.929 . S
C16 O6 1.282 . S
C16 O17 1.216 . S
O17 C16 1.216 . S
H18 C13 0.930 . S
H19 C14 0.930 . S
O20 Cu0 1.959 . S
O20 C7 1.251 . S
H21 C4 0.930 1_556 S
H22 C15 0.929 . S
Cu23 N24 1.999 . S
Cu23 O29 1.974 . S
Cu23 N34 1.985 . S
Cu23 O43 1.959 . S
N24 Cu23 1.999 . S
N24 C26 1.263 . S
N24 C28 1.389 . S
N25 C26 1.358 . S
N25 C27 1.400 1_545 S
C26 N24 1.263 . S
C26 N25 1.358 . S
C26 H32 0.930 . S
C27 N25 1.400 1_565 S
C27 C28 1.351 1_565 S
C27 H44 0.930 . S
C28 N24 1.389 . S
C28 C27 1.351 1_545 S
C28 H33 0.930 . S
O29 Cu23 1.974 . S
O29 C39 1.282 . S
C30 O31 1.261 . S
C30 O43 1.251 . S
O31 C30 1.261 . S
H32 C26 0.930 . S
H33 C28 0.930 . S
N34 Cu23 1.985 . S
N34 C36 1.335 . S
N34 C37 1.390 . S
N35 C36 1.345 . S
N35 C38 1.336 . S
C36 N34 1.335 . S
C36 N35 1.345 . S
C36 H41 0.930 . S
C37 N34 1.390 . S
C37 C38 1.346 . S
C37 H42 0.930 . S
C38 N35 1.336 . S
C38 C37 1.346 . S
C38 H45 0.929 . S
C39 O29 1.282 . S
C39 O40 1.216 . S
O40 C39 1.216 . S
H41 C36 0.930 . S
H42 C37 0.930 . S
O43 Cu23 1.959 . S
O43 C30 1.251 . S
H44 C27 0.930 . S
H45 C38 0.929 . S
Cu46 N47 1.999 . S
Cu46 O52 1.974 . S
Cu46 N57 1.985 . S
Cu46 O66 1.959 . S
N47 Cu46 1.999 . S
N47 C49 1.263 . S
N47 C51 1.389 . S
N48 C49 1.358 . S
N48 C50 1.400 . S
C49 N47 1.263 . S
C49 N48 1.358 . S
C49 H55 0.930 . S
C50 N48 1.400 . S
C50 C51 1.351 . S
C50 H67 0.930 . S
C51 N47 1.389 . S
C51 C50 1.351 . S
C51 H56 0.930 . S
O52 Cu46 1.974 . S
O52 C62 1.282 . S
C53 O54 1.261 . S
C53 O66 1.251 . S
O54 C53 1.261 . S
H55 C49 0.930 . S
H56 C51 0.930 . S
N57 Cu46 1.985 . S
N57 C59 1.335 . S
N57 C60 1.390 . S
N58 C59 1.345 . S
N58 C61 1.336 . S
C59 N57 1.335 . S
C59 N58 1.345 . S
C59 H64 0.930 . S
C60 N57 1.390 . S
C60 C61 1.346 . S
C60 H65 0.930 . S
C61 N58 1.336 . S
C61 C60 1.346 . S
C61 H68 0.929 . S
C62 O52 1.282 . S
C62 O63 1.216 . S
O63 C62 1.216 . S
H64 C59 0.930 . S
H65 C60 0.930 . S
O66 Cu46 1.959 . S
O66 C53 1.251 . S
H67 C50 0.930 . S
H68 C61 0.929 . S
Cu69 N70 1.999 . S
Cu69 O75 1.974 . S
Cu69 N80 1.985 . S
Cu69 O89 1.959 . S
N70 Cu69 1.999 . S
N70 C72 1.263 . S
N70 C74 1.389 . S
N71 C72 1.358 . S
N71 C73 1.400 . S
C72 N70 1.263 . S
C72 N71 1.358 . S
C72 H78 0.930 . S
C73 N71 1.400 . S
C73 C74 1.351 . S
C73 H90 0.930 1_554 S
C74 N70 1.389 . S
C74 C73 1.351 . S
C74 H79 0.930 . S
O75 Cu69 1.974 . S
O75 C85 1.282 . S
C76 O77 1.261 . S
C76 O89 1.251 . S
O77 C76 1.261 . S
H78 C72 0.930 . S
H79 C74 0.930 . S
N80 Cu69 1.985 . S
N80 C82 1.335 . S
N80 C83 1.390 . S
N81 C82 1.345 . S
N81 C84 1.336 . S
C82 N80 1.335 . S
C82 N81 1.345 . S
C82 H87 0.930 . S
C83 N80 1.390 . S
C83 C84 1.346 . S
C83 H88 0.930 . S
C84 N81 1.336 . S
C84 C83 1.346 . S
C84 H91 0.929 . S
C85 O75 1.282 . S
C85 O86 1.216 . S
O86 C85 1.216 . S
H87 C82 0.930 . S
H88 C83 0.930 . S
O89 Cu69 1.959 . S
O89 C76 1.251 . S
H90 C73 0.930 1_556 S
H91 C84 0.929 . S
Cu92 N93 1.999 . S
Cu92 O98 1.974 . S
Cu92 N103 1.985 . S
Cu92 O112 1.959 . S
N93 Cu92 1.999 . S
N93 C95 1.263 . S
N93 C97 1.389 . S
N94 C95 1.358 . S
N94 C96 1.400 1_565 S
C95 N93 1.263 . S
C95 N94 1.358 . S
C95 H101 0.930 . S
C96 N94 1.400 1_545 S
C96 C97 1.351 1_545 S
C96 H113 0.930 . S
C97 N93 1.389 . S
C97 C96 1.351 1_565 S
C97 H102 0.930 . S
O98 Cu92 1.974 . S
O98 C108 1.282 . S
C99 O100 1.261 . S
C99 O112 1.251 . S
O100 C99 1.261 . S
H101 C95 0.930 . S
H102 C97 0.930 . S
N103 Cu92 1.985 . S
N103 C105 1.335 . S
N103 C106 1.390 . S
N104 C105 1.345 . S
N104 C107 1.336 . S
C105 N103 1.335 . S
C105 N104 1.345 . S
C105 H110 0.930 . S
C106 N103 1.390 . S
C106 C107 1.346 . S
C106 H111 0.930 . S
C107 N104 1.336 . S
C107 C106 1.346 . S
C107 H114 0.929 . S
C108 O98 1.282 . S
C108 O109 1.216 . S
O109 C108 1.216 . S
H110 C105 0.930 . S
H111 C106 0.930 . S
O112 Cu92 1.959 . S
O112 C99 1.251 . S
H113 C96 0.930 . S
H114 C107 0.929 . S
Cu115 N116 1.999 . S
Cu115 O121 1.974 . S
Cu115 N126 1.985 . S
Cu115 O135 1.959 . S
N116 Cu115 1.999 . S
N116 C118 1.263 . S
N116 C120 1.389 . S
N117 C118 1.358 . S
N117 C119 1.400 . S
C118 N116 1.263 . S
C118 N117 1.358 . S
C118 H124 0.930 . S
C119 N117 1.400 . S
C119 C120 1.351 . S
C119 H136 0.930 . S
C120 N116 1.389 . S
C120 C119 1.351 . S
C120 H125 0.930 . S
O121 Cu115 1.974 . S
O121 C131 1.282 . S
C122 O123 1.261 . S
C122 O135 1.251 . S
O123 C122 1.261 . S
H124 C118 0.930 . S
H125 C120 0.930 . S
N126 Cu115 1.985 . S
N126 C128 1.335 . S
N126 C129 1.390 . S
N127 C128 1.345 . S
N127 C130 1.336 . S
C128 N126 1.335 . S
C128 N127 1.345 . S
C128 H133 0.930 . S
C129 N126 1.390 . S
C129 C130 1.346 . S
C129 H134 0.930 . S
C130 N127 1.336 . S
C130 C129 1.346 . S
C130 H137 0.929 . S
C131 O121 1.282 . S
C131 O132 1.216 . S
O132 C131 1.216 . S
H133 C128 0.930 . S
H134 C129 0.930 . S
O135 Cu115 1.959 . S
O135 C122 1.251 . S
H136 C119 0.930 . S
H137 C130 0.929 . S
Cu138 N139 1.999 . S
Cu138 O144 1.974 . S
Cu138 N149 1.985 . S
Cu138 O158 1.959 . S
N139 Cu138 1.999 . S
N139 C141 1.263 . S
N139 C143 1.389 . S
N140 C141 1.358 . S
N140 C142 1.400 1_565 S
C141 N139 1.263 . S
C141 N140 1.358 . S
C141 H147 0.930 . S
C142 N140 1.400 1_545 S
C142 C143 1.351 1_545 S
C142 H159 0.930 . S
C143 N139 1.389 . S
C143 C142 1.351 1_565 S
C143 H148 0.930 . S
O144 Cu138 1.974 . S
O144 C154 1.282 . S
C145 O146 1.261 . S
C145 O158 1.251 . S
O146 C145 1.261 . S
H147 C141 0.930 . S
H148 C143 0.930 . S
N149 Cu138 1.985 . S
N149 C151 1.335 . S
N149 C152 1.390 . S
N150 C151 1.345 . S
N150 C153 1.336 . S
C151 N149 1.335 . S
C151 N150 1.345 . S
C151 H156 0.930 . S
C152 N149 1.390 . S
C152 C153 1.346 . S
C152 H157 0.930 . S
C153 N150 1.336 . S
C153 C152 1.346 . S
C153 H160 0.929 . S
C154 O144 1.282 . S
C154 O155 1.216 . S
O155 C154 1.216 . S
H156 C151 0.930 . S
H157 C152 0.930 . S
O158 Cu138 1.959 . S
O158 C145 1.251 . S
H159 C142 0.930 . S
H160 C153 0.929 . S
Cu161 N162 1.999 . S
Cu161 O167 1.974 . S
Cu161 N172 1.985 . S
Cu161 O181 1.959 . S
N162 Cu161 1.999 . S
N162 C164 1.263 . S
N162 C166 1.389 . S
N163 C164 1.358 . S
N163 C165 1.400 . S
C164 N162 1.263 . S
C164 N163 1.358 . S
C164 H170 0.930 . S
C165 N163 1.400 . S
C165 C166 1.351 . S
C165 H182 0.930 1_556 S
C166 N162 1.389 . S
C166 C165 1.351 . S
C166 H171 0.930 . S
O167 Cu161 1.974 . S
O167 C177 1.282 . S
C168 O169 1.261 . S
C168 O181 1.251 . S
O169 C168 1.261 . S
H170 C164 0.930 . S
H171 C166 0.930 . S
N172 Cu161 1.985 . S
N172 C174 1.335 . S
N172 C175 1.390 . S
N173 C174 1.345 . S
N173 C176 1.336 . S
C174 N172 1.335 . S
C174 N173 1.345 . S
C174 H179 0.930 . S
C175 N172 1.390 . S
C175 C176 1.346 . S
C175 H180 0.930 . S
C176 N173 1.336 . S
C176 C175 1.346 . S
C176 H183 0.929 . S
C177 O167 1.282 . S
C177 O178 1.216 . S
O178 C177 1.216 . S
H179 C174 0.930 . S
H180 C175 0.930 . S
O181 Cu161 1.959 . S
O181 C168 1.251 . S
H182 C165 0.930 1_554 S
H183 C176 0.929 . S
Cu184 N185 1.999 . S
Cu184 O190 1.974 . S
Cu184 N195 1.985 . S
Cu184 O204 1.959 . S
N185 Cu184 1.999 . S
N185 C187 1.263 . S
N185 C189 1.389 1_455 S
N186 C187 1.358 1_655 S
N186 C188 1.400 . S
C187 N185 1.263 . S
C187 N186 1.358 1_455 S
C187 H193 0.930 . S
C188 N186 1.400 . S
C188 C189 1.351 . S
C188 H205 0.930 . S
C189 N185 1.389 1_655 S
C189 C188 1.351 . S
C189 H194 0.930 . S
O190 Cu184 1.974 . S
O190 C200 1.282 . S
C191 O192 1.261 . S
C191 O204 1.251 . S
O192 C191 1.261 . S
H193 C187 0.930 . S
H194 C189 0.930 . S
N195 Cu184 1.985 . S
N195 C197 1.335 . S
N195 C198 1.390 . S
N196 C197 1.345 . S
N196 C199 1.336 . S
C197 N195 1.335 . S
C197 N196 1.345 . S
C197 H202 0.930 . S
C198 N195 1.390 . S
C198 C199 1.346 . S
C198 H203 0.930 . S
C199 N196 1.336 . S
C199 C198 1.346 . S
C199 H206 0.929 . S
C200 O190 1.282 . S
C200 O201 1.216 . S
O201 C200 1.216 . S
H202 C197 0.930 . S
H203 C198 0.930 . S
O204 Cu184 1.959 . S
O204 C191 1.251 . S
H205 C188 0.930 . S
H206 C199 0.929 . S
Cu207 N208 1.999 . S
Cu207 O213 1.974 . S
Cu207 N218 1.985 . S
Cu207 O227 1.959 . S
N208 Cu207 1.999 . S
N208 C210 1.263 . S
N208 C212 1.389 . S
N209 C210 1.358 . S
N209 C211 1.400 1_545 S
C210 N208 1.263 . S
C210 N209 1.358 . S
C210 H216 0.930 . S
C211 N209 1.400 1_565 S
C211 C212 1.351 1_565 S
C211 H228 0.930 . S
C212 N208 1.389 . S
C212 C211 1.351 1_545 S
C212 H217 0.930 . S
O213 Cu207 1.974 . S
O213 C223 1.282 . S
C214 O215 1.261 . S
C214 O227 1.251 . S
O215 C214 1.261 . S
H216 C210 0.930 . S
H217 C212 0.930 . S
N218 Cu207 1.985 . S
N218 C220 1.335 . S
N218 C221 1.390 . S
N219 C220 1.345 . S
N219 C222 1.336 . S
C220 N218 1.335 . S
C220 N219 1.345 . S
C220 H225 0.930 . S
C221 N218 1.390 . S
C221 C222 1.346 . S
C221 H226 0.930 . S
C222 N219 1.336 . S
C222 C221 1.346 . S
C222 H229 0.929 . S
C223 O213 1.282 . S
C223 O224 1.216 . S
O224 C223 1.216 . S
H225 C220 0.930 . S
H226 C221 0.930 . S
O227 Cu207 1.959 . S
O227 C214 1.251 . S
H228 C211 0.930 . S
H229 C222 0.929 . S
Cu230 N231 1.999 . S
Cu230 O236 1.974 . S
Cu230 N241 1.985 . S
Cu230 O250 1.959 . S
N231 Cu230 1.999 . S
N231 C233 1.263 . S
N231 C235 1.389 . S
N232 C233 1.358 . S
N232 C234 1.400 . S
C233 N231 1.263 . S
C233 N232 1.358 . S
C233 H239 0.930 . S
C234 N232 1.400 . S
C234 C235 1.351 . S
C234 H251 0.930 1_556 S
C235 N231 1.389 . S
C235 C234 1.351 . S
C235 H240 0.930 . S
O236 Cu230 1.974 . S
O236 C246 1.282 . S
C237 O238 1.261 . S
C237 O250 1.251 . S
O238 C237 1.261 . S
H239 C233 0.930 . S
H240 C235 0.930 . S
N241 Cu230 1.985 . S
N241 C243 1.335 . S
N241 C244 1.390 . S
N242 C243 1.345 . S
N242 C245 1.336 . S
C243 N241 1.335 . S
C243 N242 1.345 . S
C243 H248 0.930 . S
C244 N241 1.390 . S
C244 C245 1.346 . S
C244 H249 0.930 . S
C245 N242 1.336 . S
C245 C244 1.346 . S
C245 H252 0.929 . S
C246 O236 1.282 . S
C246 O247 1.216 . S
O247 C246 1.216 . S
H248 C243 0.930 . S
H249 C244 0.930 . S
O250 Cu230 1.959 . S
O250 C237 1.251 . S
H251 C234 0.930 1_554 S
H252 C245 0.929 . S
Cu253 N254 1.999 . S
Cu253 O259 1.974 . S
Cu253 N264 1.985 . S
Cu253 O273 1.959 . S
N254 Cu253 1.999 . S
N254 C256 1.263 . S
N254 C258 1.389 1_655 S
N255 C256 1.358 1_455 S
N255 C257 1.400 . S
C256 N254 1.263 . S
C256 N255 1.358 1_655 S
C256 H262 0.930 . S
C257 N255 1.400 . S
C257 C258 1.351 . S
C257 H274 0.930 . S
C258 N254 1.389 1_455 S
C258 C257 1.351 . S
C258 H263 0.930 . S
O259 Cu253 1.974 . S
O259 C269 1.282 . S
C260 O261 1.261 . S
C260 O273 1.251 . S
O261 C260 1.261 . S
H262 C256 0.930 . S
H263 C258 0.930 . S
N264 Cu253 1.985 . S
N264 C266 1.335 . S
N264 C267 1.390 . S
N265 C266 1.345 . S
N265 C268 1.336 . S
C266 N264 1.335 . S
C266 N265 1.345 . S
C266 H271 0.930 . S
C267 N264 1.390 . S
C267 C268 1.346 . S
C267 H272 0.930 . S
C268 N265 1.336 . S
C268 C267 1.346 . S
C268 H275 0.929 . S
C269 O259 1.282 . S
C269 O270 1.216 . S
O270 C269 1.216 . S
H271 C266 0.930 . S
H272 C267 0.930 . S
O273 Cu253 1.959 . S
O273 C260 1.251 . S
H274 C257 0.930 . S
H275 C268 0.929 . S
N232 N2 1.536 1_556 S
C30 C260 1.753 . S
C53 C145 1.753 . S
N71 N163 1.536 1_554 S
C191 C99 1.753 . S
C122 C214 1.753 . S
C200 N12 1.833 . S
C39 C223 1.613 . S
C62 N242 1.833 . S
N81 C269 1.833 . S
C154 C108 1.614 . S
N173 C131 1.833 . S
C76 C7 1.511 1_655 S
N25 N94 1.899 1_545 S
N117 N48 1.884 . S
N209 N140 1.899 1_545 S
C237 C168 1.510 . S
N186 N255 1.885 1_655 S
C85 C16 2.000 . S
N35 N104 1.809 1_655 S
N127 N58 1.832 1_545 S
N150 N219 1.809 . S
C246 C177 1.999 1_455 S
N196 N265 1.832 1_565 S
