# Generated by pormake.
# Topology msp, (4)-cn, num edge types: 1
# Building blocks:
#     Node 0, Type 0, BuildingBlock: KOZSID_clean_sbu_0, # of connection points: 4
#     Node 1, Type 0, BuildingBlock: KOZSID_clean_sbu_0, # of connection points: 4
#     Node 2, Type 0, BuildingBlock: KOZSID_clean_sbu_0, # of connection points: 4
#     Node 3, Type 0, BuildingBlock: KOZSID_clean_sbu_0, # of connection points: 4
#     Node 4, Type 0, BuildingBlock: KOZSID_clean_sbu_0, # of connection points: 4
#     Node 5, Type 0, BuildingBlock: KOZSID_clean_sbu_0, # of connection points: 4
#     Node 6, Type 0, BuildingBlock: KOZSID_clean_sbu_0, # of connection points: 4
#     Node 7, Type 0, BuildingBlock: KOZSID_clean_sbu_0, # of connection points: 4
#     Edge 8, Type (0, 0), BuildingBlock: XUDNAN_clean_linker_2, # of connection points: 2
#     Edge 9, Type (0, 0), BuildingBlock: XUDNAN_clean_linker_2, # of connection points: 2
#     Edge 10, Type (0, 0), BuildingBlock: XUDNAN_clean_linker_2, # of connection points: 2
#     Edge 11, Type (0, 0), BuildingBlock: XUDNAN_clean_linker_2, # of connection points: 2
#     Edge 12, Type (0, 0), BuildingBlock: XUDNAN_clean_linker_2, # of connection points: 2
#     Edge 13, Type (0, 0), BuildingBlock: XUDNAN_clean_linker_2, # of connection points: 2
#     Edge 14, Type (0, 0), BuildingBlock: XUDNAN_clean_linker_2, # of connection points: 2
#     Edge 15, Type (0, 0), BuildingBlock: XUDNAN_clean_linker_2, # of connection points: 2
#     Edge 16, Type (0, 0), BuildingBlock: XUDNAN_clean_linker_2, # of connection points: 2
#     Edge 17, Type (0, 0), BuildingBlock: XUDNAN_clean_linker_2, # of connection points: 2
#     Edge 18, Type (0, 0), BuildingBlock: XUDNAN_clean_linker_2, # of connection points: 2
#     Edge 19, Type (0, 0), BuildingBlock: XUDNAN_clean_linker_2, # of connection points: 2
#     Edge 20, Type (0, 0), BuildingBlock: XUDNAN_clean_linker_2, # of connection points: 2
#     Edge 21, Type (0, 0), BuildingBlock: XUDNAN_clean_linker_2, # of connection points: 2
#     Edge 22, Type (0, 0), BuildingBlock: XUDNAN_clean_linker_2, # of connection points: 2
#     Edge 23, Type (0, 0), BuildingBlock: XUDNAN_clean_linker_2, # of connection points: 2
# Relax obj value: 0.072
# Max RMSD: 0.204
# Mean RMSD: 0.204
data_MOF--net-msp--node1-KOZSID_clean_sbu_0--edge1-XUDNAN_clean_linker_2
_symmetry_space_group_name_H-M    P1
_symmetry_Int_Tables_number       1
_symmetry_cell_setting            triclinic
loop_
_symmetry_equiv_pos_as_xyz
'x, y, z'
_cell_length_a     25.378142
_cell_length_b     12.351997
_cell_length_c     56.541063
_cell_angle_alpha  89.929324
_cell_angle_beta   90.182443
_cell_angle_gamma 90.053999
loop_
_atom_site_label
_atom_site_type_symbol
_atom_site_fract_x
_atom_site_fract_y
_atom_site_fract_z
_atom_type_partial_charge
C0 C 0.99694 0.52525 0.40733 0.0
C1 C 0.98054 0.6307 0.41161 0.0
C2 C 0.99355 0.69024 0.39195 0.0
C3 C 0.01645 0.61786 0.37671 0.0
N4 N 0.01844 0.51684 0.38556 0.0
Co5 Co 0.04422 0.38695 0.36874 0.0
N6 N 0.08659 0.47654 0.34676 0.0
C7 C 0.07956 0.5829 0.3425 0.0
C8 C 0.11357 0.62303 0.32579 0.0
C9 C 0.14341 0.53619 0.31892 0.0
C10 C 0.12577 0.44759 0.33185 0.0
N11 N 0.0694 0.25716 0.35145 0.0
C12 C 0.10994 0.24644 0.3361 0.0
C13 C 0.11305 0.14107 0.32776 0.0
C14 C 0.07232 0.08476 0.33795 0.0
C15 C 0.04674 0.15862 0.35197 0.0
N16 N 1.0018 0.29904 0.391 0.0
C17 C 0.98806 0.19467 0.38797 0.0
C18 C 0.96628 0.15056 0.40795 0.0
C19 C 0.96625 0.23216 0.42441 0.0
C20 C 0.98672 0.32379 0.41341 0.0
N21 N 0.98368 0.39468 0.34699 0.0
C22 C 0.89291 0.37104 0.31819 0.0
C23 C 0.88992 0.40978 0.34163 0.0
C24 C 0.93494 0.41766 0.35573 0.0
C25 C 0.94387 0.35263 0.30921 0.0
C26 C 0.98843 0.36743 0.32364 0.0
N27 N 0.10373 0.37525 0.39094 0.0
C28 C 0.15186 0.26026 0.41778 0.0
C29 C 0.17281 0.3501 0.42947 0.0
C30 C 0.16033 0.45362 0.4208 0.0
C31 C 0.1264 0.46437 0.40117 0.0
C32 C 0.11751 0.27441 0.39884 0.0
H33 H 0.1168 0.54461 0.39492 0.0
H34 H 0.09992 0.20273 0.39156 0.0
H35 H 0.92988 0.43971 0.37402 0.0
H36 H 0.02663 0.35249 0.31604 0.0
C37 C 0.04484 0.64413 0.3563 0.0
C38 C 0.99006 0.43425 0.42382 0.0
C39 C 0.14311 0.33597 0.32769 0.0
C40 C 0.00829 0.13483 0.36897 0.0
H41 H 0.96147 0.66152 0.42731 0.0
H42 H 0.98892 0.77666 0.38954 0.0
H43 H 0.11689 0.70572 0.31959 0.0
H44 H 0.17374 0.53743 0.3055 0.0
H45 H 0.14162 0.10877 0.31552 0.0
H46 H 0.06375 -0.00065 0.33605 0.0
H47 H 0.9559 0.06662 0.41092 0.0
H48 H 0.95448 0.22167 0.44256 0.0
H49 H 0.85328 0.43335 0.34972 0.0
H50 H 0.95022 0.32463 0.29138 0.0
H51 H 0.15986 0.17884 0.42397 0.0
H52 H 0.17618 0.52535 0.42922 0.0
C53 C 0.51347 0.4275 0.60577 0.0
C54 C 0.52634 0.53243 0.59899 0.0
C55 C 0.51289 0.59843 0.61733 0.0
C56 C 0.49246 0.53089 0.63419 0.0
N57 N 0.49337 0.42534 0.62797 0.0
Co58 Co 0.46498 0.30068 0.64679 0.0
N59 N 0.42973 0.40022 0.66979 0.0
C60 C 0.43127 0.50962 0.66961 0.0
C61 C 0.40212 0.55658 0.68718 0.0
C62 C 0.37984 0.47207 0.69907 0.0
C63 C 0.39674 0.37806 0.68799 0.0
N64 N 0.43858 0.17615 0.66625 0.0
C65 C 0.40597 0.1748 0.68529 0.0
C66 C 0.39793 0.07018 0.69347 0.0
C67 C 0.42634 0.00326 0.67908 0.0
C68 C 0.45011 0.07038 0.66295 0.0
N69 N 0.49718 0.20218 0.62275 0.0
C70 C 0.49781 0.09279 0.62329 0.0
C71 C 0.51654 0.04718 0.60285 0.0
C72 C 0.52676 0.13263 0.58811 0.0
C73 C 0.51375 0.22556 0.60049 0.0
N74 N 0.53149 0.30004 0.66616 0.0
C75 C 0.62603 0.298 0.69316 0.0
C76 C 0.60996 0.20719 0.68043 0.0
C77 C 0.56335 0.21014 0.66713 0.0
C78 C 0.59379 0.38974 0.69227 0.0
C79 C 0.54721 0.38892 0.67891 0.0
N80 N 0.40014 0.29921 0.6272 0.0
C81 C 0.34436 0.19328 0.60148 0.0
C82 C 0.3326 0.28466 0.58791 0.0
C83 C 0.34934 0.38574 0.59633 0.0
C84 C 0.38244 0.39128 0.61622 0.0
C85 C 0.37765 0.20236 0.62103 0.0
H86 H 0.39632 0.46975 0.62151 0.0
H87 H 0.38762 0.12861 0.62981 0.0
H88 H 0.55446 0.13808 0.65779 0.0
H89 H 0.52476 0.4614 0.67936 0.0
C90 C 0.46188 0.56553 0.65318 0.0
C91 C 0.51468 0.33391 0.58991 0.0
C92 C 0.38022 0.26995 0.69545 0.0
C93 C 0.47645 0.03604 0.64251 0.0
H94 H 0.54111 0.56066 0.58221 0.0
H95 H 0.51377 0.68607 0.61749 0.0
H96 H 0.39768 0.64202 0.69091 0.0
H97 H 0.35412 0.47871 0.71421 0.0
H98 H 0.37307 0.04462 0.70796 0.0
H99 H 0.42753 0.91568 0.67964 0.0
H100 H 0.51994 0.96192 0.59873 0.0
H101 H 0.5404 0.12745 0.57003 0.0
H102 H 0.63364 0.13426 0.6804 0.0
H103 H 0.60394 0.46188 0.70218 0.0
H104 H 0.33062 0.11382 0.59619 0.0
H105 H 0.34039 0.45924 0.58667 0.0
C106 C 0.01503 0.72876 0.60271 0.0
C107 C 0.0266 0.82259 0.59027 0.0
C108 C 0.01065 0.90722 0.60406 0.0
C109 C 0.99012 0.86088 0.62407 0.0
N110 N 0.99393 0.75177 0.62421 0.0
Co111 Co 0.9627 0.64998 0.64806 0.0
N112 N 0.92103 0.76894 0.66326 0.0
C113 C 0.92139 0.8748 0.65707 0.0
C114 C 0.8887 0.93767 0.67056 0.0
C115 C 0.86619 0.8679 0.68634 0.0
C116 C 0.88661 0.76596 0.6816 0.0
N117 N 0.93232 0.54767 0.67192 0.0
C118 C 0.89868 0.56612 0.69012 0.0
C119 C 0.88994 0.47259 0.70316 0.0
C120 C 0.91898 0.39249 0.69291 0.0
C121 C 0.94402 0.44131 0.67429 0.0
N122 N 1.00273 0.53135 0.63214 0.0
C123 C 0.00601 0.42665 0.63886 0.0
C124 C 0.03302 0.36302 0.62313 0.0
C125 C 0.04572 0.43055 0.60481 0.0
C126 C 0.02545 0.53138 0.61048 0.0
N127 N 0.02328 0.67813 0.67028 0.0
C128 C 0.10174 0.717 0.70524 0.0
C129 C 0.09192 0.6126 0.69688 0.0
C130 C 0.05289 0.59517 0.67963 0.0
C131 C 0.0734 0.80195 0.69499 0.0
C132 C 0.0352 0.7811 0.67768 0.0
N133 N 0.90329 0.62195 0.62609 0.0
C134 C 0.85128 0.4958 0.60309 0.0
C135 C 0.83794 0.57725 0.58678 0.0
C136 C 0.85371 0.68323 0.5922 0.0
C137 C 0.88461 0.70378 0.61209 0.0
C138 C 0.88433 0.51949 0.62235 0.0
H139 H 0.8957 0.78605 0.61502 0.0
H140 H 0.89609 0.45322 0.63338 0.0
H141 H 0.04696 0.5133 0.67462 0.0
H142 H 0.0154 0.85013 0.67095 0.0
C143 C 0.95498 0.91324 0.6393 0.0
C144 C 0.01992 0.61885 0.59318 0.0
C145 C 0.8746 0.67046 0.69595 0.0
C146 C 0.97786 0.38912 0.65846 0.0
H147 H 0.04231 0.83048 0.57266 0.0
H148 H 0.00942 0.99178 0.59902 0.0
H149 H 0.88273 0.02428 0.66937 0.0
H150 H 0.83873 0.88999 0.70013 0.0
H151 H 0.86559 0.46344 0.71864 0.0
H152 H 0.92167 0.30875 0.69845 0.0
H153 H 0.03934 0.27645 0.62405 0.0
H154 H 0.06399 0.40692 0.58833 0.0
H155 H 0.11282 0.54385 0.70424 0.0
H156 H 0.08026 0.8848 0.70048 0.0
H157 H 0.83847 0.41305 0.60058 0.0
H158 H 0.84508 0.75066 0.58063 0.0
C159 C 0.48776 0.6905 0.42061 0.0
C160 C 0.47198 0.76289 0.43791 0.0
C161 C 0.48336 0.86411 0.42955 0.0
C162 C 0.50513 0.84778 0.40765 0.0
N163 N 0.50712 0.74257 0.40135 0.0
Co164 Co 0.5393 0.68165 0.37204 0.0
N165 N 0.57057 0.82556 0.36275 0.0
C166 C 0.56447 0.92005 0.37461 0.0
C167 C 0.60026 0.99756 0.36833 0.0
C168 C 0.63074 0.95039 0.35143 0.0
C169 C 0.61021 0.84759 0.34723 0.0
N170 N 0.57119 0.62072 0.34273 0.0
C171 C 0.5974 0.67217 0.32506 0.0
C172 C 0.59722 0.60977 0.30459 0.0
C173 C 0.5751 0.51251 0.31033 0.0
C174 C 0.56114 0.52194 0.33357 0.0
N175 N 0.50942 0.53715 0.38153 0.0
C176 C 0.51188 0.4441 0.36899 0.0
C177 C 0.49425 0.35518 0.38112 0.0
C178 C 0.48104 0.39306 0.40297 0.0
C179 C 0.4909 0.50375 0.40284 0.0
N180 N 0.47322 0.71616 0.35361 0.0
C181 C 0.38105 0.76587 0.327 0.0
C182 C 0.40137 0.66115 0.32761 0.0
C183 C 0.44646 0.63817 0.34104 0.0
C184 C 0.40738 0.84534 0.34005 0.0
C185 C 0.45289 0.81919 0.35296 0.0
N186 N 0.60382 0.64775 0.39071 0.0
C187 C 0.65456 0.51499 0.41256 0.0
C188 C 0.67501 0.59545 0.42763 0.0
C189 C 0.66409 0.70309 0.42156 0.0
C190 C 0.62784 0.72692 0.4038 0.0
C191 C 0.62082 0.54336 0.39378 0.0
H192 H 0.6182 0.81015 0.40188 0.0
H193 H 0.60664 0.47928 0.38267 0.0
H194 H 0.45804 0.55603 0.34097 0.0
H195 H 0.47057 0.88435 0.36225 0.0
C196 C 0.53308 0.92565 0.3949 0.0
C197 C 0.48629 0.57299 0.42372 0.0
C198 C 0.62684 0.77496 0.32772 0.0
C199 C 0.53593 0.44176 0.34681 0.0
H200 H 0.45601 0.74405 0.45517 0.0
H201 H 0.47961 0.93987 0.439 0.0
H202 H 0.6065 0.07568 0.37655 0.0
H203 H 0.66571 0.9874 0.34428 0.0
H204 H 0.61215 0.63134 0.28732 0.0
H205 H 0.56838 0.44423 0.29876 0.0
H206 H 0.49385 0.27181 0.37523 0.0
H207 H 0.4679 0.34334 0.41754 0.0
H208 H 0.38185 0.59612 0.31816 0.0
H209 H 0.39331 0.92812 0.34011 0.0
H210 H 0.66236 0.43009 0.41558 0.0
H211 H 0.68152 0.77031 0.43099 0.0
C212 C 0.49675 0.94394 0.91234 0.0
C213 C 0.47778 0.04707 0.91682 0.0
C214 C 0.48126 0.10334 0.89583 0.0
C215 C 0.50197 0.03126 0.87981 0.0
N216 N 0.51126 0.93385 0.88955 0.0
Co217 Co 0.54031 0.80603 0.87349 0.0
N218 N 0.57333 0.8971 0.84898 0.0
C219 C 0.55961 -0.00064 0.84345 0.0
C220 C 0.58905 0.04083 0.82521 0.0
C221 C 0.62286 0.95903 0.81888 0.0
C222 C 0.61212 0.872 0.83365 0.0
N223 N 0.56803 0.67734 0.85712 0.0
C224 C 0.60693 0.67043 0.84092 0.0
C225 C 0.61307 0.56428 0.8334 0.0
C226 C 0.57627 0.50349 0.84538 0.0
C227 C 0.54968 0.57566 0.85947 0.0
N228 N 0.50769 0.71715 0.89857 0.0
C229 C 0.49629 0.61113 0.89724 0.0
C230 C 0.47913 0.5708 0.91856 0.0
C231 C 0.48024 0.65693 0.93406 0.0
C232 C 0.49795 0.74576 0.92131 0.0
N233 N 0.47611 0.79579 0.85406 0.0
C234 C 0.38467 0.78074 0.82583 0.0
C235 C 0.3815 0.79325 0.85054 0.0
C236 C 0.42743 0.8016 0.86423 0.0
C237 C 0.435 0.77435 0.81578 0.0
C238 C 0.47988 0.78112 0.83013 0.0
N239 N 0.60439 0.81406 0.89273 0.0
C240 C 0.66595 0.72268 0.91826 0.0
C241 C 0.68724 0.82166 0.9254 0.0
C242 C 0.66817 0.91694 0.91496 0.0
C243 C 0.62705 0.91123 0.89835 0.0
C244 C 0.62455 0.72064 0.90208 0.0
H245 H 0.61206 0.98545 0.89082 0.0
H246 H 0.6074 0.64323 0.89795 0.0
H247 H 0.42361 0.81274 0.88308 0.0
H248 H 0.51776 0.77508 0.82169 0.0
C249 C 0.52448 0.05751 0.85786 0.0
C250 C 0.50307 0.85809 0.93006 0.0
C251 C 0.63567 0.76399 0.83137 0.0
C252 C 0.5151 0.54941 0.8781 0.0
H253 H 0.46457 0.07877 0.93362 0.0
H254 H 0.47312 0.18844 0.89308 0.0
H255 H 0.58719 0.12153 0.81778 0.0
H256 H 0.65133 0.96219 0.80475 0.0
H257 H 0.64099 0.53418 0.82056 0.0
H258 H 0.57109 0.41658 0.84458 0.0
H259 H 0.47043 0.48725 0.92285 0.0
H260 H 0.46986 0.6529 0.95252 0.0
H261 H 0.34383 0.79633 0.85942 0.0
H262 H 0.44008 0.76636 0.79687 0.0
H263 H 0.67941 0.64736 0.92603 0.0
H264 H 0.68394 0.99506 0.92004 0.0
C265 C 0.01678 0.01084 0.11145 0.0
C266 C 0.02769 0.11752 0.10562 0.0
C267 C 0.00735 0.17975 0.12351 0.0
C268 C 0.98559 0.10768 0.13928 0.0
N269 N 0.99223 0.00413 0.1326 0.0
Co270 Co 0.9655 0.87386 0.14922 0.0
N271 N 0.91255 0.95929 0.16674 0.0
C272 C 0.90803 0.0679 0.16667 0.0
C273 C 0.86117 0.10251 0.17599 0.0
C274 C 0.83576 0.01002 0.18313 0.0
C275 C 0.86945 0.92417 0.17856 0.0
N276 N 0.94021 0.74289 0.16668 0.0
C277 C 0.90244 0.73227 0.1837 0.0
C278 C 0.9062 0.63146 0.1946 0.0
C279 C 0.94719 0.57799 0.1842 0.0
C280 C 0.96697 0.64869 0.16782 0.0
N281 N 0.01704 0.78988 0.13028 0.0
C282 C 0.03368 0.68886 0.13487 0.0
C283 C 0.06223 0.64586 0.11657 0.0
C284 C 0.06302 0.72445 0.09935 0.0
C285 C 0.0355 0.81255 0.10824 0.0
N286 N 0.018 0.89548 0.17467 0.0
C287 C 0.09205 0.88798 0.21204 0.0
C288 C 0.10849 0.89636 0.18836 0.0
C289 C 0.07088 0.90068 0.16997 0.0
C290 C 0.03778 0.88837 0.21639 0.0
C291 C 1.00197 0.89379 0.19774 0.0
N292 N 0.9139 0.85036 0.12385 0.0
C293 C 0.88279 0.73329 0.09283 0.0
C294 C 0.86271 0.82228 0.08034 0.0
C295 C 0.86435 0.9241 0.09121 0.0
C296 C 0.88987 0.93628 0.11299 0.0
C297 C 0.90777 0.74892 0.11459 0.0
H298 H 0.89309 0.01662 0.12017 0.0
H299 H 0.92524 0.67963 0.12309 0.0
H300 H 0.08462 0.90567 0.15194 0.0
H301 H 0.96115 0.89263 0.2023 0.0
C302 C 0.94525 0.13316 0.15515 0.0
C303 C 0.02729 0.91776 0.09609 0.0
C304 C 0.86723 0.82058 0.1917 0.0
C305 C 0.01019 0.62918 0.15305 0.0
H306 H 0.04582 0.14721 0.08957 0.0
H307 H 0.00409 0.26712 0.12369 0.0
H308 H 0.84699 0.1849 0.17728 0.0
H309 H 0.79857 0.00631 0.19241 0.0
H310 H 0.88401 0.60003 0.20929 0.0
H311 H 0.96183 0.49817 0.18862 0.0
H312 H 0.0767 0.56378 0.115 0.0
H313 H 0.08017 0.71441 0.08208 0.0
H314 H 0.14998 0.89925 0.184 0.0
H315 H 0.02241 0.88106 0.23416 0.0
H316 H 0.88103 0.65251 0.08543 0.0
H317 H 0.84914 0.99522 0.08229 0.0
C318 C 0.52578 0.22348 0.10194 0.0
C319 C 0.54294 0.31278 0.0891 0.0
C320 C 0.53429 0.40213 0.10294 0.0
C321 C 0.51146 0.36348 0.12323 0.0
N322 N 0.50538 0.25532 0.123 0.0
Co323 Co 0.46646 0.16745 0.14667 0.0
N324 N 0.43071 0.29707 0.15988 0.0
C325 C 0.4461 0.40052 0.15658 0.0
C326 C 0.41614 0.4737 0.16884 0.0
C327 C 0.38031 0.41255 0.18103 0.0
C328 C 0.39054 0.305 0.17553 0.0
N329 N 0.42596 0.07708 0.16944 0.0
C330 C 0.38392 0.10288 0.18312 0.0
C331 C 0.36796 0.0144 0.19645 0.0
C332 C 0.40209 0.93165 0.19152 0.0
C333 C 0.43681 0.97373 0.17537 0.0
N334 N 0.50391 0.03944 0.13413 0.0
C335 C 0.50986 0.94353 0.1451 0.0
C336 C 0.53835 0.87077 0.13196 0.0
C337 C 0.5506 0.92424 0.11141 0.0
C338 C 0.52841 0.02652 0.11314 0.0
N339 N 0.52321 0.18871 0.17009 0.0
C340 C 0.5998 0.24471 0.20439 0.0
C341 C 0.54813 0.21631 0.2107 0.0
C342 C 0.51072 0.19291 0.19352 0.0
C343 C 0.61288 0.23705 0.18023 0.0
C344 C 0.57442 0.20634 0.16352 0.0
N345 N 0.40992 0.14822 0.12345 0.0
C346 C 0.35371 0.03313 0.09996 0.0
C347 C 0.33157 0.12402 0.08903 0.0
C348 C 0.34904 0.2268 0.09564 0.0
C349 C 0.38856 0.23712 0.11264 0.0
C350 C 0.39235 0.04707 0.11743 0.0
H351 H 0.40226 0.31734 0.11674 0.0
H352 H 0.40835 0.97605 0.12589 0.0
H353 H 0.47135 0.18032 0.19958 0.0
H354 H 0.586 0.19973 0.14523 0.0
C355 C 0.48451 0.42639 0.13979 0.0
C356 C 0.53044 0.10908 0.09454 0.0
C357 C 0.36552 0.21367 0.18777 0.0
C358 C 0.47784 0.91731 0.16438 0.0
H359 H 0.55854 0.31545 0.07139 0.0
H360 H 0.54025 0.48592 0.09799 0.0
H361 H 0.41949 0.56107 0.16873 0.0
H362 H 0.3509 0.44331 0.19311 0.0
H363 H 0.33654 0.01219 0.2093 0.0
H364 H 0.40184 0.85089 0.19897 0.0
H365 H 0.54615 0.78666 0.13606 0.0
H366 H 0.57203 0.89095 0.09658 0.0
H367 H 0.53528 0.2124 0.22887 0.0
H368 H 0.65199 0.25604 0.17397 0.0
H369 H 0.34103 0.95232 0.09515 0.0
H370 H 0.33311 0.29874 0.08728 0.0
C371 C 0.97871 0.21131 0.91696 0.0
C372 C 0.9547 0.2949 0.9292 0.0
C373 C 0.95607 0.38426 0.91459 0.0
C374 C 0.98081 0.35095 0.89424 0.0
N375 N 0.99434 0.24599 0.8952 0.0
Co376 Co 0.03793 0.16759 0.87173 0.0
N377 N 0.06741 0.30338 0.85845 0.0
C378 C 0.04632 0.40257 0.8614 0.0
C379 C 0.07348 0.48163 0.84944 0.0
C380 C 0.11331 0.42845 0.83788 0.0
C381 C 0.1082 0.31924 0.84333 0.0
N382 N 0.08142 0.08552 0.84893 0.0
C383 C 0.12077 0.11914 0.83448 0.0
C384 C 0.1358 0.03601 0.81943 0.0
C385 C 0.10509 0.94805 0.82468 0.0
C386 C 0.07245 0.9821 0.84238 0.0
N387 N 0.00747 0.03333 0.88497 0.0
C388 C 0.00464 0.9367 0.87423 0.0
C389 C 0.98194 0.85869 0.88832 0.0
C390 C 0.97034 0.90999 0.90925 0.0
C391 C 0.98688 0.01625 0.90667 0.0
N392 N 0.98087 0.1755 0.84811 0.0
C393 C 0.90185 0.21415 0.81435 0.0
C394 C 0.95489 0.22159 0.80835 0.0
C395 C 0.99341 0.20134 0.82526 0.0
C396 C 0.88864 0.18172 0.8374 0.0
C397 C 0.92895 0.16321 0.85413 0.0
N398 N 0.09474 0.16309 0.89502 0.0
C399 C 0.14787 0.06032 0.92218 0.0
C400 C 0.15045 0.15013 0.93729 0.0
C401 C 0.13193 0.24966 0.92912 0.0
C402 C 0.10516 0.25477 0.90772 0.0
C403 C 0.11884 0.0681 0.9011 0.0
H404 H 0.08862 0.33152 0.9027 0.0
H405 H 0.11222 0.99582 0.89079 0.0
H406 H 0.03346 0.21063 0.81974 0.0
H407 H 0.91827 0.14194 0.87203 0.0
C408 C 0.00511 0.41934 0.87762 0.0
C409 C 0.98512 0.09837 0.92537 0.0
C410 C 0.13787 0.23243 0.83133 0.0
C411 C 0.03501 0.91778 0.85406 0.0
H412 H 0.93877 0.29342 0.94686 0.0
H413 H 0.94426 0.46581 0.91912 0.0
H414 H 0.06569 0.56778 0.84932 0.0
H415 H 0.14181 0.46536 0.82617 0.0
H416 H 0.16376 0.04058 0.80509 0.0
H417 H 0.10585 0.86923 0.81637 0.0
H418 H 0.97798 0.77315 0.88456 0.0
H419 H 0.95364 0.87306 0.9249 0.0
H420 H 0.96668 0.24511 0.79066 0.0
H421 H 0.84777 0.17473 0.84263 0.0
H422 H 0.16292 0.98231 0.92776 0.0
H423 H 0.13514 0.32187 0.9399 0.0
H424 H 0.04576 0.57572 0.45195 0.0
H425 H 0.90947 0.36401 0.45339 0.0
H426 H 0.90296 0.38835 0.49649 0.0
H427 H 0.1063 0.54776 0.50126 0.0
H428 H 0.11299 0.68274 0.51286 0.0
H429 H 0.10664 0.66074 0.48151 0.0
H430 H 0.0254 0.77777 0.47732 0.0
H431 H 0.03203 0.81353 0.50812 0.0
H432 H 0.97059 0.76007 0.49712 0.0
H433 H 0.9223 0.4121 0.53963 0.0
H434 H 0.94654 0.47142 0.57968 0.0
H435 H 0.06157 0.69231 0.54993 0.0
C436 C 0.01437 0.53475 0.46132 0.0
C437 C 0.98159 0.45835 0.44959 0.0
C438 C 0.9391 0.41202 0.46228 0.0
C439 C 0.93389 0.4286 0.4867 0.0
C440 C 0.96857 0.49978 0.49784 0.0
C441 C 0.00565 0.55771 0.48532 0.0
C442 C 0.03335 0.6391 0.50129 0.0
C443 C 0.09342 0.63223 0.49917 0.0
C444 C 0.0142 0.75442 0.49563 0.0
C445 C 0.01298 0.60336 0.52536 0.0
C446 C 0.97392 0.52625 0.52269 0.0
C447 C 0.95028 0.47711 0.54203 0.0
C448 C 0.96496 0.51061 0.56474 0.0
C449 C 0.00419 0.59082 0.56825 0.0
C450 C 0.02911 0.6364 0.54811 0.0
H451 H 0.55593 0.58897 0.46059 0.0
H452 H 0.40414 0.45365 0.44148 0.0
H453 H 0.39739 0.3686 0.48111 0.0
H454 H 0.60637 0.37371 0.49663 0.0
H455 H 0.63436 0.46349 0.51843 0.0
H456 H 0.62661 0.50796 0.48827 0.0
H457 H 0.5751 0.67301 0.50379 0.0
H458 H 0.57562 0.62637 0.53415 0.0
H459 H 0.51424 0.65251 0.51947 0.0
H460 H 0.40843 0.29813 0.52273 0.0
H461 H 0.43153 0.25915 0.56467 0.0
H462 H 0.57664 0.43887 0.55649 0.0
C463 C 0.52149 0.54079 0.46479 0.0
C464 C 0.48115 0.52508 0.44786 0.0
C465 C 0.43597 0.46415 0.45408 0.0
C466 C 0.43185 0.41575 0.47651 0.0
C467 C 0.47293 0.43063 0.49265 0.0
C468 C 0.51653 0.4928 0.48718 0.0
C469 C 0.55317 0.50261 0.5083 0.0
C470 C 0.60843 0.45935 0.50259 0.0
C471 C 0.5548 0.62063 0.51691 0.0
C472 C 0.52514 0.43132 0.52608 0.0
C473 C 0.47846 0.39214 0.51684 0.0
C474 C 0.44463 0.32837 0.53027 0.0
C475 C 0.45807 0.30654 0.55393 0.0
C476 C 0.50491 0.34831 0.56398 0.0
C477 C 0.5397 0.40845 0.54954 0.0
H478 H 0.47627 0.95589 0.06942 0.0
H479 H 0.60999 0.17288 0.06408 0.0
H480 H 0.61992 0.12487 0.02197 0.0
H481 H 0.54506 0.7483 0.03016 0.0
H482 H 0.48308 0.6992 0.01879 0.0
H483 H 0.48738 0.74951 0.04868 0.0
H484 H 0.4123 0.88383 0.0398 0.0
H485 H 0.40837 0.83575 0.00981 0.0
H486 H 0.41949 0.97753 0.01559 0.0
H487 H 0.60789 0.06957 0.97962 0.0
H488 H 0.58236 0.99638 0.94088 0.0
H489 H 0.46182 0.80055 0.97427 0.0
C490 C 0.50774 0.993 0.05935 0.0
C491 C 0.53978 0.07472 0.06952 0.0
C492 C 0.58202 0.11758 0.05615 0.0
C493 C 0.58886 0.08847 0.03237 0.0
C494 C 0.55521 0.01104 0.02263 0.0
C495 C 0.51692 0.96055 0.03595 0.0
C496 C 0.48801 0.87574 0.02143 0.0
C497 C 0.5017 0.76141 0.0303 0.0
C498 C 0.42839 0.8944 0.02169 0.0
C499 C 0.51153 0.89584 0.99716 0.0
C500 C 0.55143 0.97186 0.9985 0.0
C501 C 0.5776 0.00808 0.97844 0.0
C502 C 0.5628 0.96564 0.95645 0.0
C503 C 0.52152 0.88871 0.95436 0.0
C504 C 0.49555 0.85365 0.97514 0.0
H505 H 0.95682 0.02439 0.06719 0.0
H506 H 0.10874 0.86486 0.06555 0.0
H507 H 0.11172 0.8876 0.02226 0.0
H508 H 0.90365 0.94319 0.01096 0.0
H509 H 0.87725 0.07451 1.00401 0.0
H510 H 0.88464 0.03375 0.03445 0.0
H511 H 0.94109 0.2062 0.04199 0.0
H512 H 0.93439 0.24459 0.01135 0.0
H513 H 0.99899 0.22968 0.02429 0.0
H514 H 0.09197 0.90782 0.97856 0.0
H515 H 0.06356 0.96238 0.9388 0.0
H516 H 0.93413 0.14389 0.96868 0.0
C517 C 0.99035 0.99272 0.05766 0.0
C518 C 0.03051 0.93418 0.06971 0.0
C519 C 0.07508 0.90004 0.05668 0.0
C520 C 0.07769 0.91508 0.03205 0.0
C521 C 0.03657 0.96937 0.02069 0.0
C522 C 0.99466 0.01125 0.03315 0.0
C523 C 0.95863 0.07639 0.01688 0.0
C524 C 0.90266 0.02914 0.0166 0.0
C525 C 0.95826 0.19636 0.02406 0.0
C526 C 0.98568 0.06072 0.99314 0.0
C527 C 0.0301 0.99716 0.99583 0.0
C528 C 0.05863 0.96156 0.9764 0.0
C529 C 0.04256 0.99456 0.95378 0.0
C530 C 0.9995 0.06612 0.95035 0.0
C531 C 0.96986 0.09723 0.97049 0.0
H532 H 0.71096 0.25168 0.20316 0.0
H533 H 0.57808 0.3288 0.2489 0.0
H534 H 0.63843 0.35259 0.28185 0.0
H535 H 0.7814 0.12286 0.2447 0.0
H536 H 0.84771 0.17004 0.23805 0.0
H537 H 0.79766 0.16386 0.21533 0.0
H538 H 0.80531 0.35765 0.20463 0.0
H539 H 0.85753 0.37673 0.22588 0.0
H540 H 0.79991 0.46092 0.22658 0.0
H541 H 0.70889 0.34329 0.31109 0.0
H542 H 0.78919 0.35268 0.33402 0.0
H543 H 0.88095 0.32914 0.26898 0.0
C544 C 0.69393 0.27708 0.21973 0.0
C545 C 0.6384 0.28056 0.22316 0.0
C546 C 0.61943 0.31554 0.24558 0.0
C547 C 0.65357 0.33241 0.26459 0.0
C548 C 0.70718 0.32248 0.26083 0.0
C549 C 0.72771 0.30211 0.23876 0.0
C550 C 0.78752 0.29604 0.24008 0.0
C551 C 0.80507 0.18111 0.23424 0.0
C552 C 0.81408 0.37781 0.22339 0.0
C553 C 0.79687 0.32117 0.26618 0.0
C554 C 0.74949 0.33077 0.27778 0.0
C555 C 0.74653 0.34119 0.30215 0.0
C556 C 0.79335 0.34855 0.31508 0.0
C557 C 0.84345 0.35046 0.30375 0.0
C558 C 0.84458 0.33239 0.27877 0.0
H559 H 0.6656 0.13462 0.72177 0.0
H560 H 0.70023 0.45763 0.69608 0.0
H561 H 0.77365 0.47144 0.72464 0.0
H562 H 0.69286 0.15749 0.78151 0.0
H563 H 0.72735 0.03032 0.78376 0.0
H564 H 0.67859 0.05057 0.76095 0.0
H565 H 0.7558 0.00791 0.72721 0.0
H566 H 0.79404 0.97591 0.75338 0.0
H567 H 0.81768 0.07289 0.7321 0.0
H568 H 0.83413 0.46131 0.76 0.0
H569 H 0.89223 0.41057 0.79339 0.0
H570 H 0.82371 0.08897 0.79429 0.0
C571 C 0.68911 0.2078 0.72192 0.0
C572 C 0.67544 0.29759 0.70753 0.0
C573 C 0.70824 0.39025 0.70781 0.0
C574 C 0.75051 0.39829 0.72373 0.0
C575 C 0.76048 0.31193 0.73889 0.0
C576 C 0.73241 0.21649 0.73737 0.0
C577 C 0.75383 0.13335 0.75468 0.0
C578 C 0.71057 0.0903 0.77117 0.0
C579 C 0.78184 0.04187 0.74114 0.0
C580 C 0.79377 0.20104 0.76806 0.0
C581 C 0.79785 0.30328 0.75826 0.0
C582 C 0.83207 0.38079 0.76746 0.0
C583 C 0.86446 0.35163 0.78656 0.0
C584 C 0.86195 0.24637 0.79649 0.0
C585 C 0.82568 0.17052 0.78728 0.0
H586 H 0.20211 0.63369 0.71299 0.0
H587 H 0.08442 0.84658 0.74337 0.0
H588 H 0.1433 0.88258 0.77709 0.0
H589 H 0.25052 0.5176 0.76784 0.0
H590 H 0.31837 0.51685 0.75842 0.0
H591 H 0.26626 0.50735 0.73685 0.0
H592 H 0.30466 0.67346 0.71481 0.0
H593 H 0.35637 0.68334 0.73662 0.0
H594 H 0.3145 0.79814 0.73076 0.0
H595 H 0.21212 0.88761 0.80873 0.0
H596 H 0.29145 0.88821 0.8333 0.0
H597 H 0.36683 0.67007 0.78345 0.0
C598 C 0.18862 0.68708 0.72688 0.0
C599 C 0.13843 0.73727 0.72548 0.0
C600 C 0.12269 0.80787 0.74387 0.0
C601 C 0.15568 0.82801 0.76329 0.0
C602 C 0.20455 0.77706 0.76424 0.0
C603 C 0.22144 0.70916 0.74643 0.0
C604 C 0.27705 0.66914 0.75147 0.0
C605 C 0.2781 0.54531 0.75383 0.0
C606 C 0.31542 0.70838 0.73228 0.0
C607 C 0.28823 0.72389 0.77504 0.0
C608 C 0.24564 0.78506 0.78204 0.0
C609 C 0.24595 0.84209 0.80321 0.0
C610 C 0.29129 0.8399 0.81735 0.0
C611 C 0.33608 0.77891 0.81063 0.0
C612 C 0.33398 0.7193 0.78913 0.0
H613 H 0.35502 0.70414 0.28153 0.0
H614 H 0.29666 0.88584 0.34161 0.0
H615 H 0.21583 0.93057 0.31919 0.0
H616 H 0.31021 0.88691 0.23827 0.0
H617 H 0.29157 0.78756 0.21641 0.0
H618 H 0.34332 0.75808 0.23732 0.0
H619 H 0.29501 0.58699 0.2521 0.0
H620 H 0.24383 0.61149 0.23061 0.0
H621 H 0.22738 0.59684 0.26146 0.0
H622 H 0.14155 0.9545 0.29059 0.0
H623 H 0.08207 0.97394 0.25663 0.0
H624 H 0.18841 0.78045 0.2139 0.0
C625 C 0.32489 0.75217 0.29006 0.0
C626 C 0.33215 0.79133 0.31339 0.0
C627 C 0.2922 0.85566 0.32374 0.0
C628 C 0.24597 0.88075 0.3112 0.0
C629 C 0.2402 0.84135 0.28824 0.0
C630 C 0.2786 0.77892 0.27768 0.0
C631 C 0.26378 0.75245 0.25227 0.0
C632 C 0.30465 0.79896 0.23501 0.0
C633 C 0.25709 0.62965 0.24893 0.0
C634 C 0.21134 0.81104 0.2501 0.0
C635 C 0.19823 0.85989 0.27125 0.0
C636 C 0.15153 0.91725 0.27392 0.0
C637 C 0.11761 0.92671 0.25444 0.0
C638 C 0.13012 0.87894 0.23231 0.0
C639 C 0.17787 0.81998 0.23029 0.0
H640 H 0.25969 0.22138 0.19842 0.0
H641 H 0.41522 0.25641 0.22927 0.0
H642 H 0.37553 0.29147 0.26838 0.0
H643 H 0.19614 0.43228 0.23381 0.0
H644 H 0.13529 0.35823 0.23647 0.0
H645 H 0.17628 0.33988 0.21082 0.0
H646 H 0.17788 0.13443 0.21883 0.0
H647 H 0.13862 0.15128 0.24504 0.0
H648 H 0.20206 0.0852 0.24681 0.0
H649 H 0.31913 0.32158 0.30417 0.0
H650 H 0.24919 0.34421 0.33433 0.0
H651 H 0.13002 0.28807 0.28073 0.0
C652 C 0.28509 0.237 0.21346 0.0
C653 C 0.34037 0.23599 0.21102 0.0
C654 C 0.37275 0.25647 0.23094 0.0
C655 C 0.35056 0.27676 0.25317 0.0
C656 C 0.29588 0.27679 0.25513 0.0
C657 C 0.2635 0.25814 0.23582 0.0
C658 C 0.20598 0.26095 0.24292 0.0
C659 C 0.17671 0.35335 0.23025 0.0
C660 C 0.17953 0.15137 0.23811 0.0
C661 C 0.2111 0.28267 0.26925 0.0
C662 C 0.26335 0.29228 0.27588 0.0
C663 C 0.27809 0.31373 0.29922 0.0
C664 C 0.23834 0.32605 0.31622 0.0
C665 C 0.18475 0.31599 0.3098 0.0
C666 C 0.17096 0.29427 0.28603 0.0
H667 H 0.38404 0.20661 0.74228 0.0
H668 H 0.27722 0.31539 0.68731 0.0
H669 H 0.20446 0.32242 0.71634 0.0
H670 H 0.28617 0.03738 0.77386 0.0
H671 H 0.31276 0.07062 0.80256 0.0
H672 H 0.35525 0.06813 0.77711 0.0
H673 H 0.38395 0.26588 0.78614 0.0
H674 H 0.34102 0.268 0.81144 0.0
H675 H 0.33437 0.3696 0.78875 0.0
H676 H 0.14509 0.32972 0.75166 0.0
H677 H 0.09956 0.31484 0.79014 0.0
H678 H 0.2437 0.19916 0.82272 0.0
C679 C 0.34499 0.22968 0.73638 0.0
C680 C 0.33579 0.25938 0.71256 0.0
C681 C 0.28461 0.29115 0.70544 0.0
C682 C 0.24323 0.29566 0.72181 0.0
C683 C 0.25371 0.26849 0.7453 0.0
C684 C 0.30307 0.23442 0.75256 0.0
C685 C 0.30352 0.20989 0.77892 0.0
C686 C 0.3151 0.08934 0.78336 0.0
C687 C 0.34307 0.28271 0.79207 0.0
C688 C 0.24713 0.23805 0.78542 0.0
C689 C 0.21922 0.27207 0.76573 0.0
C690 C 0.16649 0.30283 0.76717 0.0
C691 C 0.14111 0.29541 0.78913 0.0
C692 C 0.16842 0.25815 0.80944 0.0
C693 C 0.2223 0.23012 0.80755 0.0
H694 H 0.62811 0.74125 0.78355 0.0
H695 H 0.74043 0.75054 0.84128 0.0
H696 H 0.81382 0.72759 0.81276 0.0
H697 H 0.69392 0.5392 0.75003 0.0
H698 H 0.6781 0.5995 0.72154 0.0
H699 H 0.6352 0.61811 0.74636 0.0
H700 H 0.63985 0.81756 0.74017 0.0
H701 H 0.68752 0.81158 0.71661 0.0
H702 H 0.70102 0.88785 0.7431 0.0
H703 H 0.87414 0.70428 0.7781 0.0
H704 H 0.91868 0.68159 0.73953 0.0
H705 H 0.76744 0.68931 0.7038 0.0
C706 C 0.66828 0.73804 0.79005 0.0
C707 C 0.67923 0.74719 0.81442 0.0
C708 C 0.73181 0.74317 0.82257 0.0
C709 C 0.77348 0.73043 0.80653 0.0
C710 C 0.76155 0.72195 0.78248 0.0
C711 C 0.71023 0.72556 0.77429 0.0
C712 C 0.70788 0.71363 0.74765 0.0
C713 C 0.67714 0.61115 0.74097 0.0
C714 C 0.68263 0.81355 0.73613 0.0
C715 C 0.76634 0.7044 0.74196 0.0
C716 C 0.79639 0.70877 0.76242 0.0
C717 C 0.85117 0.70096 0.76196 0.0
C718 C 0.87612 0.68805 0.74006 0.0
C719 C 0.84645 0.68376 0.7189 0.0
C720 C 0.79086 0.69267 0.71983 0.0
H721 H 0.80485 0.66531 0.21583 0.0
H722 H 0.88236 0.97552 0.22595 0.0
H723 H 0.8324 0.001 0.26294 0.0
H724 H 0.68637 0.67112 0.24381 0.0
H725 H 0.6954 0.55625 0.26297 0.0
H726 H 0.73106 0.56539 0.23561 0.0
H727 H 0.82045 0.54622 0.26084 0.0
H728 H 0.78202 0.54243 0.28779 0.0
H729 H 0.83271 0.64158 0.28401 0.0
H730 H 0.72939 0.01863 0.28188 0.0
H731 H 0.65275 0.97506 0.30651 0.0
H732 H 0.69762 0.63603 0.30534 0.0
C733 C 0.81226 0.73861 0.2257 0.0
C734 C 0.84452 0.82264 0.21648 0.0
C735 C 0.85407 0.9143 0.23111 0.0
C736 C 0.82534 0.93087 0.25195 0.0
C737 C 0.78891 0.85316 0.25867 0.0
C738 C 0.78795 0.75351 0.24785 0.0
C739 C 0.76051 0.67242 0.26375 0.0
C740 C 0.71587 0.61253 0.25074 0.0
C741 C 0.80125 0.59556 0.27465 0.0
C742 C 0.73884 0.7461 0.28277 0.0
C743 C 0.75323 0.85172 0.27871 0.0
C744 C 0.72308 0.93621 0.28779 0.0
C745 C 0.68005 0.91073 0.3025 0.0
C746 C 0.67115 0.80308 0.31061 0.0
C747 C 0.70272 0.72017 0.30059 0.0
H748 H 0.25508 0.40689 0.56605 0.0
H749 H 0.35896 0.13276 0.55497 0.0
H750 H 0.33167 0.12447 0.51322 0.0
H751 H 0.15687 0.28278 0.53117 0.0
H752 H 0.12805 0.39413 0.51611 0.0
H753 H 0.15392 0.41247 0.54559 0.0
H754 H 0.22169 0.55404 0.53745 0.0
H755 H 0.19885 0.56844 0.50743 0.0
H756 H 0.26702 0.54031 0.51316 0.0
H757 H 0.30153 0.1604 0.47159 0.0
H758 H 0.25475 0.20945 0.43476 0.0
H759 H 0.16349 0.44813 0.47307 0.0
C760 C 0.27217 0.3454 0.55481 0.0
C761 C 0.31013 0.27229 0.56372 0.0
C762 C 0.32991 0.19009 0.54863 0.0
C763 C 0.31502 0.18516 0.52477 0.0
C764 C 0.27933 0.26138 0.51631 0.0
C765 C 0.25672 0.33726 0.53103 0.0
C766 C 0.21468 0.40096 0.51806 0.0
C767 C 0.16027 0.37165 0.52833 0.0
C768 C 0.22614 0.52313 0.51912 0.0
C769 C 0.22098 0.35692 0.49316 0.0
C770 C 0.25828 0.27557 0.49267 0.0
C771 C 0.27166 0.22285 0.47179 0.0
C772 C 0.24509 0.25169 0.45095 0.0
C773 C 0.20554 0.33266 0.45104 0.0
C774 C 0.19399 0.38702 0.47242 0.0
H775 H 0.7758 0.71142 0.55887 0.0
H776 H 0.84009 0.38537 0.56113 0.0
H777 H 0.80756 0.35404 0.52069 0.0
H778 H 0.66365 0.65535 0.52775 0.0
H779 H 0.66296 0.77423 0.50909 0.0
H780 H 0.69306 0.77911 0.53794 0.0
H781 H 0.78245 0.83817 0.52173 0.0
H782 H 0.75421 0.84329 0.49248 0.0
H783 H 0.8124 0.76337 0.49796 0.0
H784 H 0.77299 0.3645 0.4779 0.0
H785 H 0.73084 0.40784 0.43977 0.0
H786 H 0.68633 0.72301 0.46777 0.0
C787 C 0.7842 0.63363 0.551 0.0
C788 C 0.81207 0.55224 0.56347 0.0
C789 C 0.81897 0.45001 0.55236 0.0
C790 C 0.80118 0.43152 0.52912 0.0
C791 C 0.77625 0.51571 0.51709 0.0
C792 C 0.76754 0.6144 0.52781 0.0
C793 C 0.73921 0.69172 0.51145 0.0
C794 C 0.6865 0.72734 0.52215 0.0
C795 C 0.77416 0.78992 0.50556 0.0
C796 C 0.73172 0.62006 0.49001 0.0
C797 C 0.75445 0.51979 0.49327 0.0
C798 C 0.75434 0.4424 0.47533 0.0
C799 C 0.72974 0.46786 0.45365 0.0
C800 C 0.70451 0.56942 0.45011 0.0
C801 C 0.70595 0.64564 0.4689 0.0
H802 H 0.77644 0.91723 0.05894 0.0
H803 H 0.90794 0.70176 0.04536 0.0
H804 H 0.88007 0.68586 1.00369 0.0
H805 H 0.68551 0.77646 0.02168 0.0
H806 H 0.6524 0.895 0.01082 0.0
H807 H 0.68154 0.89605 0.03987 0.0
H808 H 0.73825 0.06265 0.02982 0.0
H809 H 0.70795 0.06793 1.00098 0.0
H810 H 0.77862 0.06176 1.00363 0.0
H811 H 0.83794 0.69272 0.96347 0.0
H812 H 0.78059 0.71283 0.92821 0.0
H813 H 0.67879 0.92866 0.96737 0.0
C814 C 0.79956 0.86727 0.04717 0.0
C815 C 0.84424 0.81029 0.05549 0.0
C816 C 0.87298 0.74451 0.03955 0.0
C817 C 0.85777 0.73574 0.01577 0.0
C818 C 0.81394 0.79391 1.0081 0.0
C819 C 0.78504 0.85786 0.02333 0.0
C820 C 0.73826 0.90823 0.01078 0.0
C821 C 0.68638 0.86647 0.02145 0.0
C822 C 0.74099 0.03253 0.01135 0.0
C823 C 0.74624 0.86514 0.98597 0.0
C824 C 0.79001 0.79888 0.98483 0.0
C825 C 0.80383 0.74511 0.96409 0.0
C826 C 0.77126 0.75727 0.94417 0.0
C827 C 0.72586 0.82357 0.94507 0.0
C828 C 0.7139 0.87963 0.96611 0.0
H829 H 0.3455 0.04066 0.04502 0.0
H830 H 0.22956 0.19104 0.0903 0.0
H831 H 0.16607 0.1962 0.05691 0.0
H832 H 0.31659 0.20277 0.99427 0.0
H833 H 0.33129 0.09339 0.97429 0.0
H834 H 0.3618 0.09898 1.00299 0.0
H835 H 0.3209 0.89781 0.0106 0.0
H836 H 0.29287 0.90628 0.98132 0.0
H837 H 0.25128 0.8809 1.00653 0.0
H838 H 0.12044 0.20696 0.0176 0.0
H839 H 0.09486 0.21796 0.9755 0.0
H840 H 0.24017 0.0584 0.95561 0.0
C841 C 0.30611 0.07123 0.04796 0.0
C842 C 0.29167 0.11344 0.07016 0.0
C843 C 0.2407 0.15701 0.07339 0.0
C844 C 0.20457 0.16019 0.05458 0.0
C845 C 0.22037 0.12018 0.03267 0.0
C846 C 0.26986 0.07626 0.02927 0.0
C847 C 0.27879 0.04858 1.0035 0.0
C848 C 0.32485 0.11451 0.99316 0.0
C849 C 0.28648 0.92618 1.00026 0.0
C850 C 0.22717 0.08494 0.99287 0.0
C851 C 0.19391 0.12601 0.00998 0.0
C852 C 0.14595 0.17373 1.00414 0.0
C853 C 0.13204 0.18049 0.9802 0.0
C854 C 0.16571 0.13886 0.96242 0.0
C855 C 0.21343 0.08904 0.9689 0.0
loop_
_geom_bond_atom_site_label_1
_geom_bond_atom_site_label_2
_geom_bond_distance
_geom_bond_site_symmetry_2
_ccdc_geom_bond_type
C0 C1 1.443 . S
C0 N4 1.376 . S
C0 C38 1.389 1_455 S
C1 C0 1.443 . S
C1 C2 1.340 . S
C1 H41 0.951 . S
C2 C1 1.340 . S
C2 C3 1.439 . S
C2 H42 0.950 . S
C3 C2 1.439 . S
C3 N4 1.374 . S
C3 C37 1.395 . S
N4 C0 1.376 . S
N4 C3 1.374 . S
N4 Co5 2.008 . S
Co5 N4 2.008 . S
Co5 N6 1.995 . S
Co5 N11 2.008 . S
Co5 N16 1.995 . S
Co5 N21 2.282 1_455 S
Co5 N27 2.282 . S
N6 Co5 1.995 . S
N6 C7 1.376 . S
N6 C10 1.383 . S
C7 N6 1.376 . S
C7 C8 1.446 . S
C7 C37 1.391 . S
C8 C7 1.446 . S
C8 C9 1.339 . S
C8 H43 0.949 . S
C9 C8 1.339 . S
C9 C10 1.439 . S
C9 H44 0.950 . S
C10 N6 1.383 . S
C10 C9 1.439 . S
C10 C39 1.392 . S
N11 Co5 2.008 . S
N11 C12 1.376 . S
N11 C15 1.374 1_545 S
C12 N11 1.376 . S
C12 C13 1.443 1_545 S
C12 C39 1.389 . S
C13 C12 1.443 1_565 S
C13 C14 1.340 . S
C13 H45 0.951 . S
C14 C13 1.340 . S
C14 C15 1.439 . S
C14 H46 0.950 . S
C15 N11 1.374 1_565 S
C15 C14 1.439 . S
C15 C40 1.395 . S
N16 Co5 1.995 . S
N16 C17 1.379 1_455 S
N16 C20 1.383 1_455 S
C17 N16 1.379 1_655 S
C17 C18 1.446 1_545 S
C17 C40 1.389 1_645 S
C18 C17 1.446 1_565 S
C18 C19 1.339 1_565 S
C18 H47 0.949 . S
C19 C18 1.339 1_545 S
C19 C20 1.439 . S
C19 H48 0.950 . S
C20 N16 1.383 1_655 S
C20 C19 1.439 . S
C20 C38 1.392 . S
N21 Co5 2.282 1_655 S
N21 C24 1.332 . S
N21 C26 1.332 . S
C22 C23 1.386 . S
C22 C25 1.388 . S
C23 C22 1.386 . S
C23 C24 1.382 . S
C23 H49 0.950 . S
C24 N21 1.332 . S
C24 C23 1.382 . S
C24 H35 0.952 . S
C25 C22 1.388 . S
C25 C26 1.382 . S
C25 H50 0.950 . S
C26 N21 1.332 . S
C26 C25 1.382 . S
C26 H36 0.948 1_655 S
N27 Co5 2.282 . S
N27 C31 1.332 . S
N27 C32 1.332 . S
C28 C29 1.388 . S
C28 C32 1.382 . S
C28 H51 0.950 . S
C29 C28 1.388 . S
C29 C30 1.386 . S
C30 C29 1.386 . S
C30 C31 1.382 . S
C30 H52 0.950 . S
C31 N27 1.332 . S
C31 C30 1.382 . S
C31 H33 0.952 . S
C32 N27 1.332 . S
C32 C28 1.382 . S
C32 H34 0.948 . S
H33 C31 0.952 . S
H34 C32 0.948 . S
H35 C24 0.952 . S
H36 C26 0.948 1_455 S
C37 C3 1.395 . S
C37 C7 1.391 . S
C38 C0 1.389 1_655 S
C38 C20 1.392 . S
C39 C10 1.392 . S
C39 C12 1.389 . S
C40 C15 1.395 . S
C40 C17 1.389 1_465 S
H41 C1 0.951 . S
H42 C2 0.950 . S
H43 C8 0.949 . S
H44 C9 0.950 . S
H45 C13 0.951 . S
H46 C14 0.950 . S
H47 C18 0.949 . S
H48 C19 0.950 . S
H49 C23 0.950 . S
H50 C25 0.950 . S
H51 C28 0.950 . S
H52 C30 0.950 . S
C53 C54 1.443 . S
C53 N57 1.376 . S
C53 C91 1.389 . S
C54 C53 1.443 . S
C54 C55 1.340 . S
C54 H94 0.951 . S
C55 C54 1.340 . S
C55 C56 1.439 . S
C55 H95 0.950 . S
C56 C55 1.439 . S
C56 N57 1.374 . S
C56 C90 1.395 . S
N57 C53 1.376 . S
N57 C56 1.374 . S
N57 Co58 2.008 . S
Co58 N57 2.008 . S
Co58 N59 1.995 . S
Co58 N64 2.008 . S
Co58 N69 1.995 . S
Co58 N74 2.282 . S
Co58 N80 2.282 . S
N59 Co58 1.995 . S
N59 C60 1.376 . S
N59 C63 1.383 . S
C60 N59 1.376 . S
C60 C61 1.446 . S
C60 C90 1.391 . S
C61 C60 1.446 . S
C61 C62 1.339 . S
C61 H96 0.949 . S
C62 C61 1.339 . S
C62 C63 1.439 . S
C62 H97 0.950 . S
C63 N59 1.383 . S
C63 C62 1.439 . S
C63 C92 1.392 . S
N64 Co58 2.008 . S
N64 C65 1.376 . S
N64 C68 1.374 1_545 S
C65 N64 1.376 . S
C65 C66 1.443 1_545 S
C65 C92 1.389 . S
C66 C65 1.443 1_565 S
C66 C67 1.340 . S
C66 H98 0.951 . S
C67 C66 1.340 . S
C67 C68 1.439 . S
C67 H99 0.950 . S
C68 N64 1.374 1_565 S
C68 C67 1.439 . S
C68 C93 1.395 . S
N69 Co58 1.995 . S
N69 C70 1.382 . S
N69 C73 1.383 . S
C70 N69 1.382 . S
C70 C71 1.445 1_545 S
C70 C93 1.387 1_545 S
C71 C70 1.445 1_565 S
C71 C72 1.339 1_565 S
C71 H100 0.949 . S
C72 C71 1.339 1_545 S
C72 C73 1.439 . S
C72 H101 0.950 . S
C73 N69 1.383 . S
C73 C72 1.439 . S
C73 C91 1.392 . S
N74 Co58 2.282 . S
N74 C77 1.332 . S
N74 C79 1.332 . S
C75 C76 1.386 . S
C75 C78 1.388 . S
C76 C75 1.386 . S
C76 C77 1.382 . S
C76 H102 0.950 . S
C77 N74 1.332 . S
C77 C76 1.382 . S
C77 H88 0.952 . S
C78 C75 1.388 . S
C78 C79 1.382 . S
C78 H103 0.950 . S
C79 N74 1.332 . S
C79 C78 1.382 . S
C79 H89 0.948 . S
N80 Co58 2.282 . S
N80 C84 1.332 . S
N80 C85 1.332 . S
C81 C82 1.388 . S
C81 C85 1.382 . S
C81 H104 0.950 . S
C82 C81 1.388 . S
C82 C83 1.386 . S
C83 C82 1.386 . S
C83 C84 1.382 . S
C83 H105 0.950 . S
C84 N80 1.332 . S
C84 C83 1.382 . S
C84 H86 0.952 . S
C85 N80 1.332 . S
C85 C81 1.382 . S
C85 H87 0.948 . S
H86 C84 0.952 . S
H87 C85 0.948 . S
H88 C77 0.952 . S
H89 C79 0.948 . S
C90 C56 1.395 . S
C90 C60 1.391 . S
C91 C53 1.389 . S
C91 C73 1.392 . S
C92 C63 1.392 . S
C92 C65 1.389 . S
C93 C68 1.395 . S
C93 C70 1.387 1_565 S
H94 C54 0.951 . S
H95 C55 0.950 . S
H96 C61 0.949 . S
H97 C62 0.950 . S
H98 C66 0.951 . S
H99 C67 0.950 . S
H100 C71 0.949 . S
H101 C72 0.950 . S
H102 C76 0.950 . S
H103 C78 0.950 . S
H104 C81 0.950 . S
H105 C83 0.950 . S
C106 C107 1.443 . S
C106 N110 1.376 1_455 S
C106 C144 1.389 . S
C107 C106 1.443 . S
C107 C108 1.340 1_565 S
C107 H147 0.951 . S
C108 C107 1.340 1_545 S
C108 C109 1.439 1_455 S
C108 H148 0.950 . S
C109 C108 1.439 1_655 S
C109 N110 1.374 1_545 S
C109 C143 1.395 . S
N110 C106 1.376 1_655 S
N110 C109 1.374 1_565 S
N110 Co111 2.008 . S
Co111 N110 2.008 . S
Co111 N112 1.995 . S
Co111 N117 2.008 . S
Co111 N122 1.995 . S
Co111 N127 2.282 1_655 S
Co111 N133 2.282 . S
N112 Co111 1.995 . S
N112 C113 1.376 1_565 S
N112 C116 1.383 . S
C113 N112 1.376 1_545 S
C113 C114 1.446 . S
C113 C143 1.391 . S
C114 C113 1.446 . S
C114 C115 1.339 . S
C114 H149 0.949 . S
C115 C114 1.339 . S
C115 C116 1.439 1_545 S
C115 H150 0.950 . S
C116 N112 1.383 . S
C116 C115 1.439 1_565 S
C116 C145 1.392 . S
N117 Co111 2.008 . S
N117 C118 1.376 . S
N117 C121 1.374 . S
C118 N117 1.376 . S
C118 C119 1.443 . S
C118 C145 1.389 . S
C119 C118 1.443 . S
C119 C120 1.340 . S
C119 H151 0.951 . S
C120 C119 1.340 . S
C120 C121 1.439 . S
C120 H152 0.950 . S
C121 N117 1.374 . S
C121 C120 1.439 . S
C121 C146 1.395 . S
N122 Co111 1.995 . S
N122 C123 1.376 . S
N122 C126 1.383 . S
C123 N122 1.376 . S
C123 C124 1.446 . S
C123 C146 1.391 . S
C124 C123 1.446 . S
C124 C125 1.338 . S
C124 H153 0.949 . S
C125 C124 1.338 . S
C125 C126 1.439 . S
C125 H154 0.950 1_655 S
C126 N122 1.383 . S
C126 C125 1.439 . S
C126 C144 1.392 1_655 S
N127 Co111 2.282 1_455 S
N127 C130 1.332 . S
N127 C132 1.332 . S
C128 C129 1.386 . S
C128 C131 1.388 . S
C129 C128 1.386 . S
C129 C130 1.382 . S
C129 H155 0.950 . S
C130 N127 1.332 . S
C130 C129 1.382 . S
C130 H141 0.952 . S
C131 C128 1.388 . S
C131 C132 1.382 . S
C131 H156 0.950 . S
C132 N127 1.332 . S
C132 C131 1.382 . S
C132 H142 0.948 . S
N133 Co111 2.282 . S
N133 C137 1.332 . S
N133 C138 1.332 . S
C134 C135 1.388 . S
C134 C138 1.382 . S
C134 H157 0.950 . S
C135 C134 1.388 . S
C135 C136 1.386 . S
C136 C135 1.386 . S
C136 C137 1.382 . S
C136 H158 0.950 . S
C137 N133 1.332 . S
C137 C136 1.382 . S
C137 H139 0.952 . S
C138 N133 1.332 . S
C138 C134 1.382 . S
C138 H140 0.948 . S
H139 C137 0.952 . S
H140 C138 0.948 . S
H141 C130 0.952 . S
H142 C132 0.948 . S
C143 C109 1.395 . S
C143 C113 1.391 . S
C144 C106 1.389 . S
C144 C126 1.392 1_455 S
C145 C116 1.392 . S
C145 C118 1.389 . S
C146 C121 1.395 . S
C146 C123 1.391 . S
H147 C107 0.951 . S
H148 C108 0.950 . S
H149 C114 0.949 . S
H150 C115 0.950 . S
H151 C119 0.951 . S
H152 C120 0.950 . S
H153 C124 0.949 . S
H154 C125 0.950 1_455 S
H155 C129 0.950 . S
H156 C131 0.950 . S
H157 C134 0.950 . S
H158 C136 0.950 . S
C159 C160 1.443 . S
C159 N163 1.376 . S
C159 C197 1.389 . S
C160 C159 1.443 . S
C160 C161 1.340 1_565 S
C160 H200 0.951 . S
C161 C160 1.340 1_545 S
C161 C162 1.439 . S
C161 H201 0.950 . S
C162 C161 1.439 . S
C162 N163 1.374 1_545 S
C162 C196 1.395 . S
N163 C159 1.376 . S
N163 C162 1.374 1_565 S
N163 Co164 2.008 . S
Co164 N163 2.008 . S
Co164 N165 1.995 . S
Co164 N170 2.008 . S
Co164 N175 1.995 . S
Co164 N180 2.282 . S
Co164 N186 2.282 . S
N165 Co164 1.995 . S
N165 C166 1.376 1_565 S
N165 C169 1.383 . S
C166 N165 1.376 1_545 S
C166 C167 1.446 . S
C166 C196 1.391 . S
C167 C166 1.446 . S
C167 C168 1.339 . S
C167 H202 0.949 . S
C168 C167 1.339 . S
C168 C169 1.439 1_545 S
C168 H203 0.950 . S
C169 N165 1.383 . S
C169 C168 1.439 1_565 S
C169 C198 1.392 . S
N170 Co164 2.008 . S
N170 C171 1.376 . S
N170 C174 1.374 . S
C171 N170 1.376 . S
C171 C172 1.443 . S
C171 C198 1.389 . S
C172 C171 1.443 . S
C172 C173 1.340 . S
C172 H204 0.951 . S
C173 C172 1.340 . S
C173 C174 1.439 . S
C173 H205 0.950 . S
C174 N170 1.374 . S
C174 C173 1.439 . S
C174 C199 1.395 . S
N175 Co164 1.995 . S
N175 C176 1.376 . S
N175 C179 1.383 . S
C176 N175 1.376 . S
C176 C177 1.446 . S
C176 C199 1.391 . S
C177 C176 1.446 . S
C177 C178 1.339 . S
C177 H206 0.949 . S
C178 C177 1.339 . S
C178 C179 1.439 . S
C178 H207 0.950 . S
C179 N175 1.383 . S
C179 C178 1.439 . S
C179 C197 1.392 . S
N180 Co164 2.282 . S
N180 C183 1.332 . S
N180 C185 1.332 . S
C181 C182 1.386 . S
C181 C184 1.388 . S
C182 C181 1.386 . S
C182 C183 1.382 . S
C182 H208 0.950 . S
C183 N180 1.332 . S
C183 C182 1.382 . S
C183 H194 0.952 . S
C184 C181 1.388 . S
C184 C185 1.382 . S
C184 H209 0.950 . S
C185 N180 1.332 . S
C185 C184 1.382 . S
C185 H195 0.948 . S
N186 Co164 2.282 . S
N186 C190 1.332 . S
N186 C191 1.332 . S
C187 C188 1.388 . S
C187 C191 1.382 . S
C187 H210 0.950 . S
C188 C187 1.388 . S
C188 C189 1.386 . S
C189 C188 1.386 . S
C189 C190 1.382 . S
C189 H211 0.950 . S
C190 N186 1.332 . S
C190 C189 1.382 . S
C190 H192 0.952 . S
C191 N186 1.332 . S
C191 C187 1.382 . S
C191 H193 0.948 . S
H192 C190 0.952 . S
H193 C191 0.948 . S
H194 C183 0.952 . S
H195 C185 0.948 . S
C196 C162 1.395 . S
C196 C166 1.391 . S
C197 C159 1.389 . S
C197 C179 1.392 . S
C198 C169 1.392 . S
C198 C171 1.389 . S
C199 C174 1.395 . S
C199 C176 1.391 . S
H200 C160 0.951 . S
H201 C161 0.950 . S
H202 C167 0.949 . S
H203 C168 0.950 . S
H204 C172 0.951 . S
H205 C173 0.950 . S
H206 C177 0.949 . S
H207 C178 0.950 . S
H208 C182 0.950 . S
H209 C184 0.950 . S
H210 C187 0.950 . S
H211 C189 0.950 . S
C212 C213 1.443 . S
C212 N216 1.376 . S
C212 C250 1.389 . S
C213 C212 1.443 . S
C213 C214 1.340 1_565 S
C213 H253 0.951 . S
C214 C213 1.340 1_545 S
C214 C215 1.439 1_545 S
C214 H254 0.950 . S
C215 C214 1.439 1_565 S
C215 N216 1.374 . S
C215 C249 1.395 . S
N216 C212 1.376 . S
N216 C215 1.374 . S
N216 Co217 2.008 . S
Co217 N216 2.008 . S
Co217 N218 1.995 . S
Co217 N223 2.008 . S
Co217 N228 1.995 . S
Co217 N233 2.282 . S
Co217 N239 2.282 . S
N218 Co217 1.995 . S
N218 C219 1.376 . S
N218 C222 1.383 . S
C219 N218 1.376 . S
C219 C220 1.446 . S
C219 C249 1.391 . S
C220 C219 1.446 . S
C220 C221 1.339 . S
C220 H255 0.949 . S
C221 C220 1.339 . S
C221 C222 1.439 . S
C221 H256 0.950 . S
C222 N218 1.383 . S
C222 C221 1.439 . S
C222 C251 1.392 . S
N223 Co217 2.008 . S
N223 C224 1.376 . S
N223 C227 1.374 . S
C224 N223 1.376 . S
C224 C225 1.443 . S
C224 C251 1.389 . S
C225 C224 1.443 . S
C225 C226 1.340 . S
C225 H257 0.951 . S
C226 C225 1.340 . S
C226 C227 1.439 . S
C226 H258 0.950 . S
C227 N223 1.374 . S
C227 C226 1.439 . S
C227 C252 1.395 . S
N228 Co217 1.995 . S
N228 C229 1.376 . S
N228 C232 1.383 . S
C229 N228 1.376 . S
C229 C230 1.446 . S
C229 C252 1.391 . S
C230 C229 1.446 . S
C230 C231 1.339 . S
C230 H259 0.949 . S
C231 C230 1.339 . S
C231 C232 1.439 . S
C231 H260 0.950 . S
C232 N228 1.383 . S
C232 C231 1.439 . S
C232 C250 1.392 . S
N233 Co217 2.282 . S
N233 C236 1.332 . S
N233 C238 1.332 . S
C234 C235 1.386 . S
C234 C237 1.388 . S
C235 C234 1.386 . S
C235 C236 1.382 . S
C235 H261 0.950 . S
C236 N233 1.332 . S
C236 C235 1.382 . S
C236 H247 0.952 . S
C237 C234 1.388 . S
C237 C238 1.382 . S
C237 H262 0.950 . S
C238 N233 1.332 . S
C238 C237 1.382 . S
C238 H248 0.948 . S
N239 Co217 2.282 . S
N239 C243 1.332 . S
N239 C244 1.332 . S
C240 C241 1.388 . S
C240 C244 1.382 . S
C240 H263 0.950 . S
C241 C240 1.388 . S
C241 C242 1.386 . S
C242 C241 1.386 . S
C242 C243 1.382 . S
C242 H264 0.950 . S
C243 N239 1.332 . S
C243 C242 1.382 . S
C243 H245 0.952 . S
C244 N239 1.332 . S
C244 C240 1.382 . S
C244 H246 0.948 . S
H245 C243 0.952 . S
H246 C244 0.948 . S
H247 C236 0.952 . S
H248 C238 0.948 . S
C249 C215 1.395 . S
C249 C219 1.391 . S
C250 C212 1.389 . S
C250 C232 1.392 . S
C251 C222 1.392 . S
C251 C224 1.389 . S
C252 C227 1.395 . S
C252 C229 1.391 . S
H253 C213 0.951 . S
H254 C214 0.950 . S
H255 C220 0.949 . S
H256 C221 0.950 . S
H257 C225 0.951 . S
H258 C226 0.950 . S
H259 C230 0.949 . S
H260 C231 0.950 . S
H261 C235 0.950 . S
H262 C237 0.950 . S
H263 C240 0.950 . S
H264 C242 0.950 . S
C265 C266 1.443 . S
C265 N269 1.376 . S
C265 C303 1.389 1_655 S
C266 C265 1.443 . S
C266 C267 1.340 1_565 S
C266 H306 0.951 . S
C267 C266 1.340 1_545 S
C267 C268 1.439 1_545 S
C267 H307 0.950 . S
C268 C267 1.439 1_565 S
C268 N269 1.374 . S
C268 C302 1.395 . S
N269 C265 1.376 . S
N269 C268 1.374 . S
N269 Co270 2.008 . S
Co270 N269 2.008 . S
Co270 N271 1.995 . S
Co270 N276 2.008 . S
Co270 N281 1.995 . S
Co270 N286 2.282 1_655 S
Co270 N292 2.282 . S
N271 Co270 1.995 . S
N271 C272 1.376 . S
N271 C275 1.383 . S
C272 N271 1.376 . S
C272 C273 1.446 . S
C272 C302 1.391 . S
C273 C272 1.446 . S
C273 C274 1.339 . S
C273 H308 0.949 . S
C274 C273 1.339 . S
C274 C275 1.439 . S
C274 H309 0.950 . S
C275 N271 1.383 . S
C275 C274 1.439 . S
C275 C304 1.392 . S
N276 Co270 2.008 . S
N276 C277 1.376 . S
N276 C280 1.374 . S
C277 N276 1.376 . S
C277 C278 1.443 . S
C277 C304 1.389 . S
C278 C277 1.443 . S
C278 C279 1.340 . S
C278 H310 0.951 . S
C279 C278 1.340 . S
C279 C280 1.439 . S
C279 H311 0.950 . S
C280 N276 1.374 . S
C280 C279 1.439 . S
C280 C305 1.395 . S
N281 Co270 1.995 . S
N281 C282 1.376 1_655 S
N281 C285 1.383 1_655 S
C282 N281 1.376 1_455 S
C282 C283 1.446 . S
C282 C305 1.391 1_455 S
C283 C282 1.446 . S
C283 C284 1.339 . S
C283 H312 0.949 . S
C284 C283 1.339 . S
C284 C285 1.439 . S
C284 H313 0.950 . S
C285 N281 1.383 1_455 S
C285 C284 1.439 . S
C285 C303 1.392 . S
N286 Co270 2.282 1_455 S
N286 C289 1.332 . S
N286 C291 1.332 . S
C287 C288 1.386 . S
C287 C290 1.388 . S
C288 C287 1.386 . S
C288 C289 1.382 . S
C288 H314 0.950 . S
C289 N286 1.332 . S
C289 C288 1.382 . S
C289 H300 0.952 . S
C290 C287 1.388 . S
C290 C291 1.382 . S
C290 H315 0.950 . S
C291 N286 1.332 . S
C291 C290 1.382 . S
C291 H301 0.948 1_455 S
N292 Co270 2.282 . S
N292 C296 1.332 . S
N292 C297 1.332 . S
C293 C294 1.388 . S
C293 C297 1.382 . S
C293 H316 0.950 . S
C294 C293 1.388 . S
C294 C295 1.386 . S
C295 C294 1.386 . S
C295 C296 1.382 . S
C295 H317 0.950 . S
C296 N292 1.332 . S
C296 C295 1.382 . S
C296 H298 0.952 . S
C297 N292 1.332 . S
C297 C293 1.382 . S
C297 H299 0.948 . S
H298 C296 0.952 . S
H299 C297 0.948 . S
H300 C289 0.952 . S
H301 C291 0.948 1_655 S
C302 C268 1.395 . S
C302 C272 1.391 . S
C303 C265 1.389 1_455 S
C303 C285 1.392 . S
C304 C275 1.392 . S
C304 C277 1.389 . S
C305 C280 1.395 . S
C305 C282 1.391 1_655 S
H306 C266 0.951 . S
H307 C267 0.950 . S
H308 C273 0.949 . S
H309 C274 0.950 . S
H310 C278 0.951 . S
H311 C279 0.950 . S
H312 C283 0.949 . S
H313 C284 0.950 . S
H314 C288 0.950 . S
H315 C290 0.950 . S
H316 C293 0.950 . S
H317 C295 0.950 . S
C318 C319 1.443 . S
C318 N322 1.376 . S
C318 C356 1.389 . S
C319 C318 1.443 . S
C319 C320 1.340 . S
C319 H359 0.951 . S
C320 C319 1.340 . S
C320 C321 1.439 . S
C320 H360 0.950 . S
C321 C320 1.439 . S
C321 N322 1.374 . S
C321 C355 1.395 . S
N322 C318 1.376 . S
N322 C321 1.374 . S
N322 Co323 2.008 . S
Co323 N322 2.008 . S
Co323 N324 1.995 . S
Co323 N329 2.008 . S
Co323 N334 1.995 . S
Co323 N339 2.282 . S
Co323 N345 2.282 . S
N324 Co323 1.995 . S
N324 C325 1.376 . S
N324 C328 1.383 . S
C325 N324 1.376 . S
C325 C326 1.446 . S
C325 C355 1.391 . S
C326 C325 1.446 . S
C326 C327 1.339 . S
C326 H361 0.949 . S
C327 C326 1.339 . S
C327 C328 1.439 . S
C327 H362 0.950 . S
C328 N324 1.383 . S
C328 C327 1.439 . S
C328 C357 1.392 . S
N329 Co323 2.008 . S
N329 C330 1.376 . S
N329 C333 1.374 . S
C330 N329 1.376 . S
C330 C331 1.443 . S
C330 C357 1.389 . S
C331 C330 1.443 . S
C331 C332 1.340 . S
C331 H363 0.951 . S
C332 C331 1.340 . S
C332 C333 1.439 . S
C332 H364 0.950 . S
C333 N329 1.374 . S
C333 C332 1.439 . S
C333 C358 1.395 . S
N334 Co323 1.995 . S
N334 C335 1.376 . S
N334 C338 1.383 . S
C335 N334 1.376 . S
C335 C336 1.446 1_545 S
C335 C358 1.391 . S
C336 C335 1.446 1_565 S
C336 C337 1.339 1_565 S
C336 H365 0.949 . S
C337 C336 1.339 1_545 S
C337 C338 1.439 . S
C337 H366 0.950 . S
C338 N334 1.383 . S
C338 C337 1.439 . S
C338 C356 1.392 . S
N339 Co323 2.282 . S
N339 C342 1.332 . S
N339 C344 1.332 . S
C340 C341 1.386 . S
C340 C343 1.388 . S
C341 C340 1.386 . S
C341 C342 1.382 . S
C341 H367 0.950 . S
C342 N339 1.332 . S
C342 C341 1.382 . S
C342 H353 0.952 . S
C343 C340 1.388 . S
C343 C344 1.382 . S
C343 H368 0.950 . S
C344 N339 1.332 . S
C344 C343 1.382 . S
C344 H354 0.948 . S
N345 Co323 2.282 . S
N345 C349 1.332 . S
N345 C350 1.332 . S
C346 C347 1.388 . S
C346 C350 1.382 . S
C346 H369 0.950 . S
C347 C346 1.388 . S
C347 C348 1.386 . S
C348 C347 1.386 . S
C348 C349 1.382 . S
C348 H370 0.950 . S
C349 N345 1.332 . S
C349 C348 1.382 . S
C349 H351 0.952 . S
C350 N345 1.332 . S
C350 C346 1.382 . S
C350 H352 0.948 . S
H351 C349 0.952 . S
H352 C350 0.948 . S
H353 C342 0.952 . S
H354 C344 0.948 . S
C355 C321 1.395 . S
C355 C325 1.391 . S
C356 C318 1.389 . S
C356 C338 1.392 . S
C357 C328 1.392 . S
C357 C330 1.389 . S
C358 C333 1.395 . S
C358 C335 1.391 . S
H359 C319 0.951 . S
H360 C320 0.950 . S
H361 C326 0.949 . S
H362 C327 0.950 . S
H363 C331 0.951 . S
H364 C332 0.950 . S
H365 C336 0.949 . S
H366 C337 0.950 . S
H367 C341 0.950 . S
H368 C343 0.950 . S
H369 C346 0.950 . S
H370 C348 0.950 . S
C371 C372 1.443 . S
C371 N375 1.376 1_655 S
C371 C409 1.389 . S
C372 C371 1.443 . S
C372 C373 1.340 . S
C372 H412 0.951 . S
C373 C372 1.340 . S
C373 C374 1.439 1_655 S
C373 H413 0.950 . S
C374 C373 1.439 1_455 S
C374 N375 1.374 . S
C374 C408 1.395 . S
N375 C371 1.376 1_455 S
N375 C374 1.374 . S
N375 Co376 2.008 . S
Co376 N375 2.008 . S
Co376 N377 1.995 . S
Co376 N382 2.008 . S
Co376 N387 1.995 . S
Co376 N392 2.282 1_455 S
Co376 N398 2.282 . S
N377 Co376 1.995 . S
N377 C378 1.376 . S
N377 C381 1.383 . S
C378 N377 1.376 . S
C378 C379 1.446 . S
C378 C408 1.391 . S
C379 C378 1.446 . S
C379 C380 1.339 . S
C379 H414 0.949 . S
C380 C379 1.339 . S
C380 C381 1.439 . S
C380 H415 0.950 . S
C381 N377 1.383 . S
C381 C380 1.439 . S
C381 C410 1.392 . S
N382 Co376 2.008 . S
N382 C383 1.376 . S
N382 C386 1.374 . S
C383 N382 1.376 . S
C383 C384 1.443 . S
C383 C410 1.389 . S
C384 C383 1.443 . S
C384 C385 1.340 . S
C384 H416 0.951 . S
C385 C384 1.340 . S
C385 C386 1.439 . S
C385 H417 0.950 . S
C386 N382 1.374 . S
C386 C385 1.439 . S
C386 C411 1.395 . S
N387 Co376 1.995 . S
N387 C388 1.376 . S
N387 C391 1.383 . S
C388 N387 1.376 . S
C388 C389 1.446 1_545 S
C388 C411 1.391 . S
C389 C388 1.446 1_565 S
C389 C390 1.339 1_565 S
C389 H418 0.949 . S
C390 C389 1.339 1_545 S
C390 C391 1.439 . S
C390 H419 0.949 1_455 S
C391 N387 1.383 . S
C391 C390 1.439 . S
C391 C409 1.392 1_455 S
N392 Co376 2.282 1_655 S
N392 C395 1.332 . S
N392 C397 1.332 . S
C393 C394 1.386 . S
C393 C396 1.388 . S
C394 C393 1.386 . S
C394 C395 1.382 . S
C394 H420 0.950 . S
C395 N392 1.332 . S
C395 C394 1.382 . S
C395 H406 0.952 . S
C396 C393 1.388 . S
C396 C397 1.382 . S
C396 H421 0.950 . S
C397 N392 1.332 . S
C397 C396 1.382 . S
C397 H407 0.948 . S
N398 Co376 2.282 . S
N398 C402 1.332 . S
N398 C403 1.332 . S
C399 C400 1.388 . S
C399 C403 1.382 . S
C399 H422 0.950 . S
C400 C399 1.388 . S
C400 C401 1.386 . S
C401 C400 1.386 . S
C401 C402 1.382 . S
C401 H423 0.950 . S
C402 N398 1.332 . S
C402 C401 1.382 . S
C402 H404 0.952 . S
C403 N398 1.332 . S
C403 C399 1.382 . S
C403 H405 0.948 . S
H404 C402 0.952 . S
H405 C403 0.948 . S
H406 C395 0.952 . S
H407 C397 0.948 . S
C408 C374 1.395 . S
C408 C378 1.391 . S
C409 C371 1.389 . S
C409 C391 1.392 1_655 S
C410 C381 1.392 . S
C410 C383 1.389 . S
C411 C386 1.395 . S
C411 C388 1.391 . S
H412 C372 0.951 . S
H413 C373 0.950 . S
H414 C379 0.949 . S
H415 C380 0.950 . S
H416 C384 0.951 . S
H417 C385 0.950 . S
H418 C389 0.949 . S
H419 C390 0.949 1_655 S
H420 C394 0.950 . S
H421 C396 0.950 . S
H422 C399 0.950 . S
H423 C401 0.950 . S
H424 C436 0.930 . S
H425 C438 0.930 . S
H426 C439 0.930 . S
H427 C443 0.959 . S
H428 C443 0.959 . S
H429 C443 0.961 . S
H430 C444 0.960 . S
H431 C444 0.961 . S
H432 C444 0.959 1_655 S
H433 C447 0.929 . S
H434 C448 0.931 . S
H435 C450 0.930 . S
C436 H424 0.930 . S
C436 C437 1.399 1_455 S
C436 C441 1.399 . S
C437 C436 1.399 1_655 S
C437 C438 1.376 . S
C438 H425 0.930 . S
C438 C437 1.376 . S
C438 C439 1.388 . S
C439 H426 0.930 . S
C439 C438 1.388 . S
C439 C440 1.390 . S
C440 C439 1.390 . S
C440 C441 1.394 1_655 S
C440 C446 1.465 . S
C441 C436 1.399 . S
C441 C440 1.394 1_455 S
C441 C442 1.516 . S
C442 C441 1.516 . S
C442 C443 1.502 . S
C442 C444 1.561 . S
C442 C445 1.526 . S
C443 H427 0.959 . S
C443 H428 0.959 . S
C443 H429 0.961 . S
C443 C442 1.502 . S
C444 H430 0.960 . S
C444 H431 0.961 . S
C444 H432 0.959 1_455 S
C444 C442 1.561 . S
C445 C442 1.526 . S
C445 C446 1.396 1_455 S
C445 C450 1.390 . S
C446 C440 1.465 . S
C446 C445 1.396 1_655 S
C446 C447 1.399 . S
C447 H433 0.929 . S
C447 C446 1.399 . S
C447 C448 1.385 . S
C448 H434 0.931 . S
C448 C447 1.385 . S
C448 C449 1.389 1_655 S
C449 C448 1.389 1_455 S
C449 C450 1.387 . S
C450 H435 0.930 . S
C450 C445 1.390 . S
C450 C449 1.387 . S
H451 C463 0.930 . S
H452 C465 0.930 . S
H453 C466 0.930 . S
H454 C470 0.959 . S
H455 C470 0.959 . S
H456 C470 0.961 . S
H457 C471 0.960 . S
H458 C471 0.961 . S
H459 C471 0.959 . S
H460 C474 0.929 . S
H461 C475 0.931 . S
H462 C477 0.930 . S
C463 H451 0.930 . S
C463 C464 1.399 . S
C463 C468 1.399 . S
C464 C463 1.399 . S
C464 C465 1.376 . S
C465 H452 0.930 . S
C465 C464 1.376 . S
C465 C466 1.388 . S
C466 H453 0.930 . S
C466 C465 1.388 . S
C466 C467 1.390 . S
C467 C466 1.390 . S
C467 C468 1.394 . S
C467 C473 1.465 . S
C468 C463 1.399 . S
C468 C467 1.394 . S
C468 C469 1.516 . S
C469 C468 1.516 . S
C469 C470 1.502 . S
C469 C471 1.561 . S
C469 C472 1.526 . S
C470 H454 0.959 . S
C470 H455 0.959 . S
C470 H456 0.961 . S
C470 C469 1.502 . S
C471 H457 0.960 . S
C471 H458 0.961 . S
C471 H459 0.959 . S
C471 C469 1.561 . S
C472 C469 1.526 . S
C472 C473 1.396 . S
C472 C477 1.390 . S
C473 C467 1.465 . S
C473 C472 1.396 . S
C473 C474 1.399 . S
C474 H460 0.929 . S
C474 C473 1.399 . S
C474 C475 1.385 . S
C475 H461 0.931 . S
C475 C474 1.385 . S
C475 C476 1.389 . S
C476 C475 1.389 . S
C476 C477 1.387 . S
C477 H462 0.930 . S
C477 C472 1.390 . S
C477 C476 1.387 . S
H478 C490 0.930 . S
H479 C492 0.930 . S
H480 C493 0.930 1_556 S
H481 C497 0.959 . S
H482 C497 0.959 . S
H483 C497 0.961 . S
H484 C498 0.960 . S
H485 C498 0.961 . S
H486 C498 0.959 . S
H487 C501 0.929 . S
H488 C502 0.931 . S
H489 C504 0.930 . S
C490 H478 0.930 . S
C490 C491 1.399 . S
C490 C495 1.399 . S
C491 C490 1.399 . S
C491 C492 1.376 . S
C492 H479 0.930 . S
C492 C491 1.376 . S
C492 C493 1.388 . S
C493 H480 0.930 1_554 S
C493 C492 1.388 . S
C493 C494 1.390 . S
C494 C493 1.390 . S
C494 C495 1.394 . S
C494 C500 1.465 1_554 S
C495 C490 1.399 . S
C495 C494 1.394 . S
C495 C496 1.516 1_545 S
C496 C495 1.516 1_565 S
C496 C497 1.502 . S
C496 C498 1.561 . S
C496 C499 1.526 1_554 S
C497 H481 0.959 . S
C497 H482 0.959 . S
C497 H483 0.961 . S
C497 C496 1.502 . S
C498 H484 0.960 . S
C498 H485 0.961 . S
C498 H486 0.959 . S
C498 C496 1.561 . S
C499 C496 1.526 1_556 S
C499 C500 1.396 1_565 S
C499 C504 1.390 . S
C500 C494 1.465 1_556 S
C500 C499 1.396 1_545 S
C500 C501 1.399 . S
C501 H487 0.929 . S
C501 C500 1.399 . S
C501 C502 1.385 1_545 S
C502 H488 0.931 . S
C502 C501 1.385 1_565 S
C502 C503 1.389 . S
C503 C502 1.389 . S
C503 C504 1.387 . S
C504 H489 0.930 . S
C504 C499 1.390 . S
C504 C503 1.387 . S
H505 C517 0.930 . S
H506 C519 0.930 . S
H507 C520 0.929 1_556 S
H508 C524 0.959 1_565 S
H509 C524 0.959 . S
H510 C524 0.961 . S
H511 C525 0.960 . S
H512 C525 0.961 . S
H513 C525 0.959 . S
H514 C528 0.929 1_565 S
H515 C529 0.931 . S
H516 C531 0.930 . S
C517 H505 0.930 . S
C517 C518 1.399 1_655 S
C517 C522 1.399 . S
C518 C517 1.399 1_455 S
C518 C519 1.376 . S
C519 H506 0.930 . S
C519 C518 1.376 . S
C519 C520 1.388 . S
C520 H507 0.929 1_554 S
C520 C519 1.388 . S
C520 C521 1.390 . S
C521 C520 1.390 . S
C521 C522 1.394 1_455 S
C521 C527 1.465 1_564 S
C522 C517 1.399 . S
C522 C521 1.394 1_655 S
C522 C523 1.516 1_565 S
C523 C522 1.516 1_545 S
C523 C524 1.502 . S
C523 C525 1.561 . S
C523 C526 1.526 1_554 S
C524 H508 0.959 1_545 S
C524 H509 0.959 . S
C524 H510 0.961 . S
C524 C523 1.502 . S
C525 H511 0.960 . S
C525 H512 0.961 . S
C525 H513 0.959 . S
C525 C523 1.561 . S
C526 C523 1.526 1_556 S
C526 C527 1.396 1_655 S
C526 C531 1.390 . S
C527 C521 1.465 1_546 S
C527 C526 1.396 1_455 S
C527 C528 1.399 . S
C528 H514 0.929 1_545 S
C528 C527 1.399 . S
C528 C529 1.385 . S
C529 H515 0.931 . S
C529 C528 1.385 . S
C529 C530 1.389 1_455 S
C530 C529 1.389 1_655 S
C530 C531 1.387 . S
C531 H516 0.930 . S
C531 C526 1.390 . S
C531 C530 1.387 . S
H532 C544 0.930 . S
H533 C546 0.930 . S
H534 C547 0.930 . S
H535 C551 0.959 . S
H536 C551 0.959 . S
H537 C551 0.961 . S
H538 C552 0.960 . S
H539 C552 0.961 . S
H540 C552 0.959 . S
H541 C555 0.929 . S
H542 C556 0.931 . S
H543 C558 0.930 . S
C544 H532 0.930 . S
C544 C545 1.399 . S
C544 C549 1.399 . S
C545 C544 1.399 . S
C545 C546 1.376 . S
C546 H533 0.930 . S
C546 C545 1.376 . S
C546 C547 1.388 . S
C547 H534 0.930 . S
C547 C546 1.388 . S
C547 C548 1.390 . S
C548 C547 1.390 . S
C548 C549 1.394 . S
C548 C554 1.465 . S
C549 C544 1.399 . S
C549 C548 1.394 . S
C549 C550 1.516 . S
C550 C549 1.516 . S
C550 C551 1.502 . S
C550 C552 1.561 . S
C550 C553 1.526 . S
C551 H535 0.959 . S
C551 H536 0.959 . S
C551 H537 0.961 . S
C551 C550 1.502 . S
C552 H538 0.960 . S
C552 H539 0.961 . S
C552 H540 0.959 . S
C552 C550 1.561 . S
C553 C550 1.526 . S
C553 C554 1.396 . S
C553 C558 1.390 . S
C554 C548 1.465 . S
C554 C553 1.396 . S
C554 C555 1.399 . S
C555 H541 0.929 . S
C555 C554 1.399 . S
C555 C556 1.385 . S
C556 H542 0.931 . S
C556 C555 1.385 . S
C556 C557 1.389 . S
C557 C556 1.389 . S
C557 C558 1.387 . S
C558 H543 0.930 . S
C558 C553 1.390 . S
C558 C557 1.387 . S
H559 C571 0.930 . S
H560 C573 0.930 . S
H561 C574 0.930 . S
H562 C578 0.959 . S
H563 C578 0.959 . S
H564 C578 0.961 . S
H565 C579 0.960 1_565 S
H566 C579 0.961 1_565 S
H567 C579 0.959 . S
H568 C582 0.929 . S
H569 C583 0.931 . S
H570 C585 0.930 . S
C571 H559 0.930 . S
C571 C572 1.399 . S
C571 C576 1.399 . S
C572 C571 1.399 . S
C572 C573 1.376 . S
C573 H560 0.930 . S
C573 C572 1.376 . S
C573 C574 1.388 . S
C574 H561 0.930 . S
C574 C573 1.388 . S
C574 C575 1.390 . S
C575 C574 1.390 . S
C575 C576 1.394 . S
C575 C581 1.465 . S
C576 C571 1.399 . S
C576 C575 1.394 . S
C576 C577 1.516 . S
C577 C576 1.516 . S
C577 C578 1.502 . S
C577 C579 1.561 . S
C577 C580 1.526 . S
C578 H562 0.959 . S
C578 H563 0.959 . S
C578 H564 0.961 . S
C578 C577 1.502 . S
C579 H565 0.960 1_545 S
C579 H566 0.961 1_545 S
C579 H567 0.959 . S
C579 C577 1.561 . S
C580 C577 1.526 . S
C580 C581 1.396 . S
C580 C585 1.390 . S
C581 C575 1.465 . S
C581 C580 1.396 . S
C581 C582 1.399 . S
C582 H568 0.929 . S
C582 C581 1.399 . S
C582 C583 1.385 . S
C583 H569 0.931 . S
C583 C582 1.385 . S
C583 C584 1.389 . S
C584 C583 1.389 . S
C584 C585 1.387 . S
C585 H570 0.930 . S
C585 C580 1.390 . S
C585 C584 1.387 . S
H586 C598 0.930 . S
H587 C600 0.930 . S
H588 C601 0.930 . S
H589 C605 0.959 . S
H590 C605 0.959 . S
H591 C605 0.961 . S
H592 C606 0.960 . S
H593 C606 0.961 . S
H594 C606 0.959 . S
H595 C609 0.929 . S
H596 C610 0.931 . S
H597 C612 0.930 . S
C598 H586 0.930 . S
C598 C599 1.399 . S
C598 C603 1.399 . S
C599 C598 1.399 . S
C599 C600 1.376 . S
C600 H587 0.930 . S
C600 C599 1.376 . S
C600 C601 1.388 . S
C601 H588 0.930 . S
C601 C600 1.388 . S
C601 C602 1.390 . S
C602 C601 1.390 . S
C602 C603 1.394 . S
C602 C608 1.465 . S
C603 C598 1.399 . S
C603 C602 1.394 . S
C603 C604 1.516 . S
C604 C603 1.516 . S
C604 C605 1.502 . S
C604 C606 1.561 . S
C604 C607 1.526 . S
C605 H589 0.959 . S
C605 H590 0.959 . S
C605 H591 0.961 . S
C605 C604 1.502 . S
C606 H592 0.960 . S
C606 H593 0.961 . S
C606 H594 0.959 . S
C606 C604 1.561 . S
C607 C604 1.526 . S
C607 C608 1.396 . S
C607 C612 1.390 . S
C608 C602 1.465 . S
C608 C607 1.396 . S
C608 C609 1.399 . S
C609 H595 0.929 . S
C609 C608 1.399 . S
C609 C610 1.385 . S
C610 H596 0.931 . S
C610 C609 1.385 . S
C610 C611 1.389 . S
C611 C610 1.389 . S
C611 C612 1.387 . S
C612 H597 0.930 . S
C612 C607 1.390 . S
C612 C611 1.387 . S
H613 C625 0.930 . S
H614 C627 0.930 . S
H615 C628 0.930 . S
H616 C632 0.959 . S
H617 C632 0.959 . S
H618 C632 0.961 . S
H619 C633 0.960 . S
H620 C633 0.961 . S
H621 C633 0.959 . S
H622 C636 0.929 . S
H623 C637 0.931 . S
H624 C639 0.930 . S
C625 H613 0.930 . S
C625 C626 1.399 . S
C625 C630 1.399 . S
C626 C625 1.399 . S
C626 C627 1.376 . S
C627 H614 0.930 . S
C627 C626 1.376 . S
C627 C628 1.388 . S
C628 H615 0.930 . S
C628 C627 1.388 . S
C628 C629 1.390 . S
C629 C628 1.390 . S
C629 C630 1.394 . S
C629 C635 1.465 . S
C630 C625 1.399 . S
C630 C629 1.394 . S
C630 C631 1.516 . S
C631 C630 1.516 . S
C631 C632 1.502 . S
C631 C633 1.561 . S
C631 C634 1.526 . S
C632 H616 0.959 . S
C632 H617 0.959 . S
C632 H618 0.961 . S
C632 C631 1.502 . S
C633 H619 0.960 . S
C633 H620 0.961 . S
C633 H621 0.959 . S
C633 C631 1.561 . S
C634 C631 1.526 . S
C634 C635 1.396 . S
C634 C639 1.390 . S
C635 C629 1.465 . S
C635 C634 1.396 . S
C635 C636 1.399 . S
C636 H622 0.929 . S
C636 C635 1.399 . S
C636 C637 1.385 . S
C637 H623 0.931 . S
C637 C636 1.385 . S
C637 C638 1.389 . S
C638 C637 1.389 . S
C638 C639 1.387 . S
C639 H624 0.930 . S
C639 C634 1.390 . S
C639 C638 1.387 . S
H640 C652 0.930 . S
H641 C654 0.930 . S
H642 C655 0.930 . S
H643 C659 0.959 . S
H644 C659 0.959 . S
H645 C659 0.961 . S
H646 C660 0.960 . S
H647 C660 0.961 1_565 S
H648 C660 0.959 . S
H649 C663 0.929 . S
H650 C664 0.931 . S
H651 C666 0.930 . S
C652 H640 0.930 . S
C652 C653 1.399 . S
C652 C657 1.399 . S
C653 C652 1.399 . S
C653 C654 1.376 . S
C654 H641 0.930 . S
C654 C653 1.376 . S
C654 C655 1.388 . S
C655 H642 0.930 . S
C655 C654 1.388 . S
C655 C656 1.390 . S
C656 C655 1.390 . S
C656 C657 1.394 . S
C656 C662 1.465 . S
C657 C652 1.399 . S
C657 C656 1.394 . S
C657 C658 1.516 . S
C658 C657 1.516 . S
C658 C659 1.502 . S
C658 C660 1.561 . S
C658 C661 1.526 . S
C659 H643 0.959 . S
C659 H644 0.959 . S
C659 H645 0.961 . S
C659 C658 1.502 . S
C660 H646 0.960 . S
C660 H647 0.961 1_545 S
C660 H648 0.959 . S
C660 C658 1.561 . S
C661 C658 1.526 . S
C661 C662 1.396 . S
C661 C666 1.390 . S
C662 C656 1.465 . S
C662 C661 1.396 . S
C662 C663 1.399 . S
C663 H649 0.929 . S
C663 C662 1.399 . S
C663 C664 1.385 . S
C664 H650 0.931 . S
C664 C663 1.385 . S
C664 C665 1.389 . S
C665 C664 1.389 . S
C665 C666 1.387 . S
C666 H651 0.930 . S
C666 C661 1.390 . S
C666 C665 1.387 . S
H667 C679 0.930 . S
H668 C681 0.930 . S
H669 C682 0.930 . S
H670 C686 0.959 . S
H671 C686 0.959 . S
H672 C686 0.961 1_565 S
H673 C687 0.960 . S
H674 C687 0.961 . S
H675 C687 0.959 . S
H676 C690 0.929 . S
H677 C691 0.931 . S
H678 C693 0.930 . S
C679 H667 0.930 . S
C679 C680 1.399 . S
C679 C684 1.399 . S
C680 C679 1.399 . S
C680 C681 1.376 . S
C681 H668 0.930 . S
C681 C680 1.376 . S
C681 C682 1.388 . S
C682 H669 0.930 . S
C682 C681 1.388 . S
C682 C683 1.390 . S
C683 C682 1.390 . S
C683 C684 1.394 . S
C683 C689 1.465 . S
C684 C679 1.399 . S
C684 C683 1.394 . S
C684 C685 1.516 . S
C685 C684 1.516 . S
C685 C686 1.502 . S
C685 C687 1.561 . S
C685 C688 1.526 . S
C686 H670 0.959 . S
C686 H671 0.959 . S
C686 H672 0.961 1_545 S
C686 C685 1.502 . S
C687 H673 0.960 . S
C687 H674 0.961 . S
C687 H675 0.959 . S
C687 C685 1.561 . S
C688 C685 1.526 . S
C688 C689 1.396 . S
C688 C693 1.390 . S
C689 C683 1.465 . S
C689 C688 1.396 . S
C689 C690 1.399 . S
C690 H676 0.929 . S
C690 C689 1.399 . S
C690 C691 1.385 . S
C691 H677 0.931 . S
C691 C690 1.385 . S
C691 C692 1.389 . S
C692 C691 1.389 . S
C692 C693 1.387 . S
C693 H678 0.930 . S
C693 C688 1.390 . S
C693 C692 1.387 . S
H694 C706 0.930 . S
H695 C708 0.930 . S
H696 C709 0.930 . S
H697 C713 0.959 . S
H698 C713 0.959 . S
H699 C713 0.961 . S
H700 C714 0.960 . S
H701 C714 0.961 . S
H702 C714 0.959 . S
H703 C717 0.929 . S
H704 C718 0.931 . S
H705 C720 0.930 . S
C706 H694 0.930 . S
C706 C707 1.399 . S
C706 C711 1.399 . S
C707 C706 1.399 . S
C707 C708 1.376 . S
C708 H695 0.930 . S
C708 C707 1.376 . S
C708 C709 1.388 . S
C709 H696 0.930 . S
C709 C708 1.388 . S
C709 C710 1.390 . S
C710 C709 1.390 . S
C710 C711 1.394 . S
C710 C716 1.465 . S
C711 C706 1.399 . S
C711 C710 1.394 . S
C711 C712 1.516 . S
C712 C711 1.516 . S
C712 C713 1.502 . S
C712 C714 1.561 . S
C712 C715 1.526 . S
C713 H697 0.959 . S
C713 H698 0.959 . S
C713 H699 0.961 . S
C713 C712 1.502 . S
C714 H700 0.960 . S
C714 H701 0.961 . S
C714 H702 0.959 . S
C714 C712 1.561 . S
C715 C712 1.526 . S
C715 C716 1.396 . S
C715 C720 1.390 . S
C716 C710 1.465 . S
C716 C715 1.396 . S
C716 C717 1.399 . S
C717 H703 0.929 . S
C717 C716 1.399 . S
C717 C718 1.385 . S
C718 H704 0.931 . S
C718 C717 1.385 . S
C718 C719 1.389 . S
C719 C718 1.389 . S
C719 C720 1.387 . S
C720 H705 0.930 . S
C720 C715 1.390 . S
C720 C719 1.387 . S
H721 C733 0.930 . S
H722 C735 0.930 . S
H723 C736 0.930 . S
H724 C740 0.959 . S
H725 C740 0.959 . S
H726 C740 0.961 . S
H727 C741 0.960 . S
H728 C741 0.961 . S
H729 C741 0.959 . S
H730 C744 0.929 . S
H731 C745 0.931 1_545 S
H732 C747 0.930 . S
C733 H721 0.930 . S
C733 C734 1.399 . S
C733 C738 1.399 . S
C734 C733 1.399 . S
C734 C735 1.376 . S
C735 H722 0.930 . S
C735 C734 1.376 . S
C735 C736 1.388 . S
C736 H723 0.930 . S
C736 C735 1.388 . S
C736 C737 1.390 . S
C737 C736 1.390 . S
C737 C738 1.394 . S
C737 C743 1.465 . S
C738 C733 1.399 . S
C738 C737 1.394 . S
C738 C739 1.516 . S
C739 C738 1.516 . S
C739 C740 1.502 . S
C739 C741 1.561 . S
C739 C742 1.526 . S
C740 H724 0.959 . S
C740 H725 0.959 . S
C740 H726 0.961 . S
C740 C739 1.502 . S
C741 H727 0.960 . S
C741 H728 0.961 . S
C741 H729 0.959 . S
C741 C739 1.561 . S
C742 C739 1.526 . S
C742 C743 1.396 . S
C742 C747 1.390 . S
C743 C737 1.465 . S
C743 C742 1.396 . S
C743 C744 1.399 . S
C744 H730 0.929 . S
C744 C743 1.399 . S
C744 C745 1.385 . S
C745 H731 0.931 1_565 S
C745 C744 1.385 . S
C745 C746 1.389 . S
C746 C745 1.389 . S
C746 C747 1.387 . S
C747 H732 0.930 . S
C747 C742 1.390 . S
C747 C746 1.387 . S
H748 C760 0.930 . S
H749 C762 0.930 . S
H750 C763 0.930 1_565 S
H751 C767 0.959 . S
H752 C767 0.959 . S
H753 C767 0.961 . S
H754 C768 0.960 . S
H755 C768 0.961 . S
H756 C768 0.959 . S
H757 C771 0.929 1_565 S
H758 C772 0.931 . S
H759 C774 0.930 . S
C760 H748 0.930 . S
C760 C761 1.399 . S
C760 C765 1.399 . S
C761 C760 1.399 . S
C761 C762 1.376 . S
C762 H749 0.930 . S
C762 C761 1.376 . S
C762 C763 1.388 . S
C763 H750 0.930 1_545 S
C763 C762 1.388 . S
C763 C764 1.390 . S
C764 C763 1.390 . S
C764 C765 1.394 . S
C764 C770 1.465 . S
C765 C760 1.399 . S
C765 C764 1.394 . S
C765 C766 1.516 . S
C766 C765 1.516 . S
C766 C767 1.502 . S
C766 C768 1.561 . S
C766 C769 1.526 . S
C767 H751 0.959 . S
C767 H752 0.959 . S
C767 H753 0.961 . S
C767 C766 1.502 . S
C768 H754 0.960 . S
C768 H755 0.961 . S
C768 H756 0.959 . S
C768 C766 1.561 . S
C769 C766 1.526 . S
C769 C770 1.396 . S
C769 C774 1.390 . S
C770 C764 1.465 . S
C770 C769 1.396 . S
C770 C771 1.399 . S
C771 H757 0.929 1_545 S
C771 C770 1.399 . S
C771 C772 1.385 . S
C772 H758 0.931 . S
C772 C771 1.385 . S
C772 C773 1.389 . S
C773 C772 1.389 . S
C773 C774 1.387 . S
C774 H759 0.930 . S
C774 C769 1.390 . S
C774 C773 1.387 . S
H775 C787 0.930 . S
H776 C789 0.930 . S
H777 C790 0.930 . S
H778 C794 0.959 . S
H779 C794 0.959 1_545 S
H780 C794 0.961 1_545 S
H781 C795 0.960 . S
H782 C795 0.961 . S
H783 C795 0.959 . S
H784 C798 0.929 . S
H785 C799 0.931 . S
H786 C801 0.930 . S
C787 H775 0.930 . S
C787 C788 1.399 . S
C787 C792 1.399 . S
C788 C787 1.399 . S
C788 C789 1.376 . S
C789 H776 0.930 . S
C789 C788 1.376 . S
C789 C790 1.388 . S
C790 H777 0.930 . S
C790 C789 1.388 . S
C790 C791 1.390 . S
C791 C790 1.390 . S
C791 C792 1.394 . S
C791 C797 1.465 . S
C792 C787 1.399 . S
C792 C791 1.394 . S
C792 C793 1.516 . S
C793 C792 1.516 . S
C793 C794 1.502 . S
C793 C795 1.561 1_565 S
C793 C796 1.526 . S
C794 H778 0.959 . S
C794 H779 0.959 1_565 S
C794 H780 0.961 1_565 S
C794 C793 1.502 . S
C795 H781 0.960 . S
C795 H782 0.961 . S
C795 H783 0.959 . S
C795 C793 1.561 1_545 S
C796 C793 1.526 . S
C796 C797 1.396 . S
C796 C801 1.390 . S
C797 C791 1.465 . S
C797 C796 1.396 . S
C797 C798 1.399 . S
C798 H784 0.929 . S
C798 C797 1.399 . S
C798 C799 1.385 . S
C799 H785 0.931 . S
C799 C798 1.385 . S
C799 C800 1.389 . S
C800 C799 1.389 . S
C800 C801 1.387 . S
C801 H786 0.930 . S
C801 C796 1.390 . S
C801 C800 1.387 . S
H802 C814 0.930 . S
H803 C816 0.930 . S
H804 C817 0.930 . S
H805 C821 0.959 . S
H806 C821 0.959 1_556 S
H807 C821 0.961 . S
H808 C822 0.960 1_554 S
H809 C822 0.961 . S
H810 C822 0.959 . S
H811 C825 0.929 . S
H812 C826 0.931 . S
H813 C828 0.930 . S
C814 H802 0.930 . S
C814 C815 1.399 . S
C814 C819 1.399 . S
C815 C814 1.399 . S
C815 C816 1.376 . S
C816 H803 0.930 . S
C816 C815 1.376 . S
C816 C817 1.388 . S
C817 H804 0.930 . S
C817 C816 1.388 . S
C817 C818 1.390 . S
C818 C817 1.390 . S
C818 C819 1.394 . S
C818 C824 1.465 1_554 S
C819 C814 1.399 . S
C819 C818 1.394 . S
C819 C820 1.516 . S
C820 C819 1.516 . S
C820 C821 1.502 . S
C820 C822 1.561 1_554 S
C820 C823 1.526 1_554 S
C821 H805 0.959 . S
C821 H806 0.959 1_554 S
C821 H807 0.961 . S
C821 C820 1.502 . S
C822 H808 0.960 1_556 S
C822 H809 0.961 . S
C822 H810 0.959 . S
C822 C820 1.561 1_556 S
C823 C820 1.526 1_556 S
C823 C824 1.396 . S
C823 C828 1.390 . S
C824 C818 1.465 1_556 S
C824 C823 1.396 . S
C824 C825 1.399 . S
C825 H811 0.929 . S
C825 C824 1.399 . S
C825 C826 1.385 . S
C826 H812 0.931 . S
C826 C825 1.385 . S
C826 C827 1.389 . S
C827 C826 1.389 . S
C827 C828 1.387 . S
C828 H813 0.930 . S
C828 C823 1.390 . S
C828 C827 1.387 . S
H829 C841 0.930 . S
H830 C843 0.930 . S
H831 C844 0.930 . S
H832 C848 0.959 . S
H833 C848 0.959 . S
H834 C848 0.961 1_554 S
H835 C849 0.960 . S
H836 C849 0.961 1_556 S
H837 C849 0.959 . S
H838 C852 0.929 . S
H839 C853 0.931 . S
H840 C855 0.930 . S
C841 H829 0.930 . S
C841 C842 1.399 . S
C841 C846 1.399 . S
C842 C841 1.399 . S
C842 C843 1.376 . S
C843 H830 0.930 . S
C843 C842 1.376 . S
C843 C844 1.388 . S
C844 H831 0.930 . S
C844 C843 1.388 . S
C844 C845 1.390 . S
C845 C844 1.390 . S
C845 C846 1.394 . S
C845 C851 1.465 1_554 S
C846 C841 1.399 . S
C846 C845 1.394 . S
C846 C847 1.516 1_554 S
C847 C846 1.516 1_556 S
C847 C848 1.502 . S
C847 C849 1.561 1_556 S
C847 C850 1.526 . S
C848 H832 0.959 . S
C848 H833 0.959 . S
C848 H834 0.961 1_556 S
C848 C847 1.502 . S
C849 H835 0.960 . S
C849 H836 0.961 1_554 S
C849 H837 0.959 . S
C849 C847 1.561 1_554 S
C850 C847 1.526 . S
C850 C851 1.396 . S
C850 C855 1.390 . S
C851 C845 1.465 1_556 S
C851 C850 1.396 . S
C851 C852 1.399 . S
C852 H838 0.929 . S
C852 C851 1.399 . S
C852 C853 1.385 . S
C853 H839 0.931 . S
C853 C852 1.385 . S
C853 C854 1.389 . S
C854 C853 1.389 . S
C854 C855 1.387 . S
C855 H840 0.930 . S
C855 C850 1.390 . S
C855 C854 1.387 . S
C437 C38 1.983 . S
C449 C144 1.925 . S
C464 C197 1.986 . S
C476 C91 1.926 . S
C491 C356 1.983 . S
C503 C250 1.917 . S
C518 C303 1.980 . S
C530 C409 1.926 . S
C545 C340 1.972 . S
C557 C22 1.967 . S
C572 C75 1.961 . S
C584 C393 1.971 . S
C599 C128 1.968 . S
C611 C234 1.963 . S
C626 C181 1.962 . S
C638 C287 1.969 . S
C653 C357 2.229 . S
C665 C39 2.185 . S
C680 C92 2.187 . S
C692 C410 2.228 . S
C707 C251 2.195 . S
C719 C145 2.210 . S
C734 C304 2.192 . S
C746 C198 2.226 . S
C761 C82 0.643 . S
C773 C29 0.741 . S
C788 C135 0.636 . S
C800 C188 0.727 . S
C815 C294 0.651 . S
C827 C241 0.732 . S
C842 C347 0.749 . S
C854 C400 0.673 . S
