# Generated by pormake.
# Topology unh, (4)-cn, num edge types: 1
# Building blocks:
#     Node 0, Type 0, BuildingBlock: KUFVIS_clean_sbu_0, # of connection points: 4
#     Node 1, Type 0, BuildingBlock: KUFVIS_clean_sbu_0, # of connection points: 4
#     Node 2, Type 0, BuildingBlock: KUFVIS_clean_sbu_0, # of connection points: 4
#     Node 3, Type 0, BuildingBlock: KUFVIS_clean_sbu_0, # of connection points: 4
#     Node 4, Type 0, BuildingBlock: KUFVIS_clean_sbu_0, # of connection points: 4
#     Node 5, Type 0, BuildingBlock: KUFVIS_clean_sbu_0, # of connection points: 4
#     Edge 6, Type (0, 0), BuildingBlock: XIVTED_clean_linker_0, # of connection points: 2
#     Edge 7, Type (0, 0), BuildingBlock: XIVTED_clean_linker_0, # of connection points: 2
#     Edge 8, Type (0, 0), BuildingBlock: XIVTED_clean_linker_0, # of connection points: 2
#     Edge 9, Type (0, 0), BuildingBlock: XIVTED_clean_linker_0, # of connection points: 2
#     Edge 10, Type (0, 0), BuildingBlock: XIVTED_clean_linker_0, # of connection points: 2
#     Edge 11, Type (0, 0), BuildingBlock: XIVTED_clean_linker_0, # of connection points: 2
#     Edge 12, Type (0, 0), BuildingBlock: XIVTED_clean_linker_0, # of connection points: 2
#     Edge 13, Type (0, 0), BuildingBlock: XIVTED_clean_linker_0, # of connection points: 2
#     Edge 14, Type (0, 0), BuildingBlock: XIVTED_clean_linker_0, # of connection points: 2
#     Edge 15, Type (0, 0), BuildingBlock: XIVTED_clean_linker_0, # of connection points: 2
#     Edge 16, Type (0, 0), BuildingBlock: XIVTED_clean_linker_0, # of connection points: 2
#     Edge 17, Type (0, 0), BuildingBlock: XIVTED_clean_linker_0, # of connection points: 2
# Relax obj value: 0.110
# Max RMSD: 0.223
# Mean RMSD: 0.223
data_MOF--net-unh--node1-KUFVIS_clean_sbu_0--edge1-XIVTED_clean_linker_0
_symmetry_space_group_name_H-M    P1
_symmetry_Int_Tables_number       1
_symmetry_cell_setting            triclinic
loop_
_symmetry_equiv_pos_as_xyz
'x, y, z'
_cell_length_a     41.957386
_cell_length_b     42.066057
_cell_length_c     22.284802
_cell_angle_alpha  89.956207
_cell_angle_beta   90.029412
_cell_angle_gamma 120.03071
loop_
_atom_site_label
_atom_site_type_symbol
_atom_site_fract_x
_atom_site_fract_y
_atom_site_fract_z
_atom_type_partial_charge
Mn0 Mn 0.13619 0.57372 0.05993 0.0
Mn1 Mn 0.10055 0.62991 0.06257 0.0
C2 C 0.15841 0.62305 0.99585 0.0
C3 C 0.17706 0.55686 0.09701 0.0
C4 C 0.06267 0.55519 0.003 0.0
O5 O 0.10905 0.56144 0.1388 0.0
O6 O 0.08789 0.60121 0.13885 0.0
C7 C 0.14639 0.67942 0.16021 0.0
N8 N 0.13453 0.67446 0.10226 0.0
C9 C 0.17263 0.73893 0.08105 0.0
C10 C 0.18505 0.74475 0.14062 0.0
C11 C 0.17189 0.71485 0.18034 0.0
C12 C 0.14697 0.70305 0.06368 0.0
H13 H 0.13657 0.65649 0.19079 0.0
C14 C 0.09187 0.5758 0.16336 0.0
O15 O 0.14666 0.53289 0.07127 0.0
O16 O 0.18356 0.59032 0.10142 0.0
N17 N 0.11123 0.65948 0.99194 0.0
C18 C 0.09774 0.64897 0.93532 0.0
C19 C 0.10889 0.67551 0.88977 0.0
C20 C 0.13367 0.71255 0.90291 0.0
C21 C 0.14689 0.72274 0.96164 0.0
C22 C 0.13449 0.69514 0.00533 0.0
H23 H 0.07887 0.62052 0.92484 0.0
O24 O 0.16311 0.59548 0.98372 0.0
O25 O 0.14116 0.62092 0.04543 0.0
O26 O 0.08757 0.54723 0.01482 0.0
O27 O 0.06442 0.58517 0.01928 0.0
C28 C 0.17236 0.75912 0.97829 0.0
C29 C 0.18524 0.7672 0.03794 0.0
H30 H 0.20492 0.772 0.15621 0.0
H31 H 0.1815 0.7191 0.2263 0.0
H32 H 0.09858 0.66742 0.84455 0.0
H33 H 0.14252 0.73288 0.86751 0.0
H34 H 0.18254 0.78102 0.94543 0.0
H35 H 0.20513 0.79521 0.05005 0.0
Mn36 Mn 0.5699 0.14305 0.22669 0.0
Mn37 Mn 0.47815 0.10869 0.21881 0.0
C38 C 0.54715 0.17229 0.16905 0.0
C39 C 0.62424 0.17779 0.27876 0.0
C40 C 0.51853 0.07721 0.15012 0.0
O41 O 0.54996 0.1064 0.29443 0.0
O42 O 0.48984 0.08923 0.2921 0.0
C43 C 0.46972 0.14607 0.325 0.0
N44 N 0.46567 0.1392 0.26494 0.0
C45 C 0.44069 0.17921 0.25118 0.0
C46 C 0.44432 0.18649 0.31296 0.0
C47 C 0.45895 0.16988 0.35 0.0
C48 C 0.45176 0.15514 0.22886 0.0
H49 H 0.48119 0.13356 0.35356 0.0
C50 C 0.51748 0.08874 0.31563 0.0
O51 O 0.62066 0.15234 0.24179 0.0
O52 O 0.59658 0.1832 0.28485 0.0
N53 N 0.46275 0.12528 0.1506 0.0
C54 C 0.46113 0.11543 0.09194 0.0
C55 C 0.44729 0.1298 0.04891 0.0
C56 C 0.43499 0.15388 0.06667 0.0
C57 C 0.43619 0.16299 0.12746 0.0
C58 C 0.44987 0.14748 0.1684 0.0
H59 H 0.47057 0.09697 0.07798 0.0
O60 O 0.58057 0.17894 0.16111 0.0
O61 O 0.5286 0.14992 0.21246 0.0
O62 O 0.55099 0.10125 0.16619 0.0
O63 O 0.4894 0.0767 0.16869 0.0
C64 C 0.42461 0.18707 0.14897 0.0
C65 C 0.42693 0.19523 0.21077 0.0
H66 H 0.43619 0.20496 0.33238 0.0
H67 H 0.46202 0.17551 0.39767 0.0
H68 H 0.44628 0.12249 0.00211 0.0
H69 H 0.42468 0.1652 0.03326 0.0
H70 H 0.41408 0.19963 0.11833 0.0
H71 H 0.41819 0.21399 0.22671 0.0
Mn72 Mn 0.41669 0.56178 0.38915 0.0
Mn73 Mn 0.36071 0.47074 0.36987 0.0
C74 C 0.36832 0.54168 0.32384 0.0
C75 C 0.43311 0.61362 0.44605 0.0
C76 C 0.43646 0.51424 0.31313 0.0
O77 O 0.42949 0.53908 0.45768 0.0
O78 O 0.38697 0.47928 0.44821 0.0
C79 C 0.30766 0.45658 0.46789 0.0
N80 N 0.3146 0.45527 0.40852 0.0
C81 C 0.25035 0.42824 0.38398 0.0
C82 C 0.24247 0.429 0.44494 0.0
C83 C 0.27127 0.44329 0.48704 0.0
C84 C 0.28712 0.4416 0.36762 0.0
H85 H 0.32975 0.46775 0.50033 0.0
C86 C 0.41353 0.50606 0.4762 0.0
O87 O 0.45704 0.61149 0.41187 0.0
O88 O 0.39977 0.58592 0.44668 0.0
N89 N 0.33339 0.45828 0.29645 0.0
C90 C 0.34585 0.46124 0.2391 0.0
C91 C 0.32063 0.44922 0.19136 0.0
C92 C 0.28287 0.43401 0.20308 0.0
C93 C 0.27065 0.43076 0.26251 0.0
C94 C 0.29704 0.44295 0.30829 0.0
H95 H 0.37484 0.47297 0.22977 0.0
O96 O 0.39543 0.57527 0.32136 0.0
O97 O 0.36944 0.52116 0.36675 0.0
O98 O 0.44347 0.54592 0.33075 0.0
O99 O 0.40715 0.4845 0.32726 0.0
C100 C 0.23341 0.41664 0.27803 0.0
C101 C 0.22327 0.41541 0.33871 0.0
H102 H 0.21447 0.41901 0.45985 0.0
H103 H 0.26543 0.44418 0.53411 0.0
H104 H 0.33028 0.45181 0.14561 0.0
H105 H 0.26354 0.4251 0.16609 0.0
H106 H 0.2124 0.40711 0.24358 0.0
H107 H 0.19461 0.40494 0.35001 0.0
Mn108 Mn 0.85511 0.42189 0.5612 0.0
Mn109 Mn 0.8898 0.36492 0.56064 0.0
C110 C 0.83294 0.37384 0.49469 0.0
C111 C 0.81419 0.43841 0.59918 0.0
C112 C 0.92859 0.44047 0.50399 0.0
O113 O 0.88168 0.43253 0.64042 0.0
O114 O 0.90282 0.39278 0.63779 0.0
C115 C 0.8435 0.31463 0.65722 0.0
N116 N 0.85534 0.3201 0.59923 0.0
C117 C 0.81629 0.25604 0.57616 0.0
C118 C 0.80388 0.24968 0.63574 0.0
C119 C 0.81753 0.27911 0.67641 0.0
C120 C 0.84242 0.29197 0.55974 0.0
H121 H 0.85369 0.3372 0.68853 0.0
C122 C 0.89889 0.41783 0.66373 0.0
O123 O 0.8449 0.46277 0.57468 0.0
O124 O 0.80751 0.40484 0.60203 0.0
N125 N 0.87882 0.33609 0.48913 0.0
C126 C 0.89259 0.34708 0.43276 0.0
C127 C 0.88114 0.32103 0.38643 0.0
C128 C 0.85576 0.284 0.39853 0.0
C129 C 0.84228 0.27329 0.457 0.0
C130 C 0.85501 0.3004 0.50152 0.0
H131 H 0.91191 0.37554 0.42309 0.0
O132 O 0.8287 0.40186 0.48408 0.0
O133 O 0.84969 0.37476 0.54431 0.0
O134 O 0.90411 0.44879 0.51714 0.0
O135 O 0.92627 0.40995 0.51839 0.0
C136 C 0.81627 0.23688 0.47267 0.0
C137 C 0.80328 0.22827 0.53219 0.0
H138 H 0.78366 0.22238 0.65062 0.0
H139 H 0.80794 0.27445 0.72238 0.0
H140 H 0.89166 0.32952 0.34141 0.0
H141 H 0.84669 0.26406 0.36252 0.0
H142 H 0.80583 0.21536 0.43916 0.0
H143 H 0.78302 0.20024 0.54356 0.0
Mn144 Mn 0.4205 0.84981 0.72837 0.0
Mn145 Mn 0.51094 0.87754 0.719 0.0
C146 C 0.43925 0.81668 0.67175 0.0
C147 C 0.36595 0.81859 0.78132 0.0
C148 C 0.47454 0.9132 0.65007 0.0
O149 O 0.44333 0.88708 0.79493 0.0
O150 O 0.50196 0.89906 0.79221 0.0
C151 C 0.51673 0.83856 0.82539 0.0
N152 N 0.52077 0.84511 0.76523 0.0
C153 C 0.54168 0.80176 0.75156 0.0
C154 C 0.538 0.79475 0.81345 0.0
C155 C 0.52542 0.8132 0.85049 0.0
C156 C 0.53272 0.82741 0.72915 0.0
H157 H 0.50682 0.8525 0.85396 0.0
C158 C 0.47596 0.90248 0.81573 0.0
O159 O 0.37125 0.84444 0.74379 0.0
O160 O 0.39209 0.81094 0.78779 0.0
N161 N 0.52372 0.85864 0.65071 0.0
C162 C 0.52544 0.86828 0.59189 0.0
C163 C 0.53728 0.85208 0.54882 0.0
C164 C 0.54751 0.8264 0.56669 0.0
C165 C 0.54629 0.81753 0.62762 0.0
C166 C 0.53466 0.83486 0.66859 0.0
H167 H 0.51759 0.88797 0.57784 0.0
O168 O 0.40675 0.81255 0.66395 0.0
O169 O 0.45921 0.83898 0.71421 0.0
O170 O 0.44158 0.89096 0.66652 0.0
O171 O 0.5025 0.91146 0.66871 0.0
C172 C 0.55579 0.79187 0.64924 0.0
C173 C 0.55341 0.78393 0.71115 0.0
H174 H 0.54453 0.7751 0.83294 0.0
H175 H 0.52232 0.8078 0.89824 0.0
H176 H 0.53832 0.85921 0.50191 0.0
H177 H 0.55624 0.81366 0.53326 0.0
H178 H 0.56468 0.77788 0.61858 0.0
H179 H 0.56047 0.76392 0.72716 0.0
Mn180 Mn 0.5702 0.42692 0.8885 0.0
Mn181 Mn 0.62634 0.51815 0.87182 0.0
C182 C 0.61932 0.44769 0.82462 0.0
C183 C 0.55308 0.37468 0.94489 0.0
C184 C 0.55105 0.47521 0.81326 0.0
O185 O 0.55666 0.44901 0.95695 0.0
O186 O 0.59974 0.5088 0.94991 0.0
C187 C 0.67896 0.53139 0.9702 0.0
N188 N 0.67229 0.53329 0.91087 0.0
C189 C 0.73667 0.56074 0.88705 0.0
C190 C 0.74428 0.55937 0.94798 0.0
C191 C 0.71528 0.54457 0.9897 0.0
C192 C 0.69997 0.54745 0.87034 0.0
H193 H 0.65672 0.51983 0.00234 0.0
C194 C 0.57278 0.48175 0.97675 0.0
O195 O 0.52958 0.37702 0.90989 0.0
O196 O 0.58645 0.4023 0.94637 0.0
N197 N 0.654 0.53134 0.79873 0.0
C198 C 0.6418 0.5289 0.74129 0.0
C199 C 0.66725 0.54146 0.69388 0.0
C200 C 0.70497 0.55667 0.706 0.0
C201 C 0.71692 0.55937 0.76551 0.0
C202 C 0.69031 0.54665 0.81097 0.0
H203 H 0.61285 0.51719 0.73165 0.0
O204 O 0.59231 0.41409 0.82112 0.0
O205 O 0.61763 0.46776 0.86767 0.0
O206 O 0.54407 0.44331 0.82958 0.0
O207 O 0.58008 0.5048 0.82885 0.0
C208 C 0.7541 0.57344 0.78141 0.0
C209 C 0.76397 0.5741 0.84212 0.0
H210 H 0.77222 0.56928 0.96315 0.0
H211 H 0.72091 0.54321 0.03675 0.0
H212 H 0.65781 0.5393 0.64807 0.0
H213 H 0.72448 0.56599 0.66925 0.0
H214 H 0.77528 0.58337 0.74721 0.0
H215 H 0.79258 0.58453 0.8537 0.0
H216 H 0.00555 0.56288 0.95993 0.0
H217 H 0.94139 0.39733 0.72873 0.0
H218 H 0.04915 0.48907 0.9575 0.0
H219 H 0.89673 0.47023 0.73363 0.0
H220 H 0.97534 0.42558 0.82083 0.0
H221 H 0.95967 0.52417 0.88585 0.0
C222 C 0.00526 0.53833 0.94444 0.0
C223 C 0.03168 0.52959 0.96441 0.0
C224 C 0.95783 0.43514 0.802 0.0
C225 C 0.97935 0.48528 0.87913 0.0
C226 C 0.93844 0.41903 0.74934 0.0
C227 C 0.91662 0.4318 0.7227 0.0
C228 C 0.95549 0.4643 0.82809 0.0
C229 C 0.91359 0.45977 0.75193 0.0
C230 C 0.97904 0.51624 0.90202 0.0
C231 C 0.02968 0.49723 0.94292 0.0
N232 N 0.93311 0.47531 0.80265 0.0
N233 N 0.00427 0.47651 0.90096 0.0
H234 H 0.53994 0.93628 0.88136 0.0
H235 H 0.57306 0.07016 0.09492 0.0
H236 H 0.43051 0.92171 0.8733 0.0
H237 H 0.45475 0.02062 0.10383 0.0
H238 H 0.56597 0.02668 0.01737 0.0
H239 H 0.55316 0.97623 0.96783 0.0
C240 C 0.51878 0.94173 0.89747 0.0
C241 C 0.48422 0.92596 0.86938 0.0
C242 C 0.54143 0.02456 0.037 0.0
C243 C 0.49946 0.97262 0.96776 0.0
C244 C 0.54551 0.04976 0.08121 0.0
C245 C 0.51446 0.04919 0.106 0.0
C246 C 0.50596 -0.00162 0.01758 0.0
C247 C 0.47952 0.02222 0.08606 0.0
C248 C 0.52646 0.96488 0.94677 0.0
C249 C 0.45767 0.93346 0.89302 0.0
N250 N 0.47628 -0.0019 0.0428 0.0
N251 N 0.46592 0.95633 0.94061 0.0
H252 H 0.49564 0.57019 0.25448 0.0
H253 H 0.5297 0.43081 0.05979 0.0
H254 H 0.43669 0.45233 0.27695 0.0
H255 H 0.5843 0.54726 0.02359 0.0
H256 H 0.502 0.44018 0.14859 0.0
H257 H 0.53452 0.56408 0.1789 0.0
C258 C 0.49109 0.54308 0.24407 0.0
C259 C 0.46255 0.51167 0.27168 0.0
C260 C 0.52015 0.46379 0.12152 0.0
C261 C 0.50688 0.5046 0.18535 0.0
C262 C 0.53596 0.45845 0.07059 0.0
C263 C 0.55887 0.48825 0.03355 0.0
C264 C 0.52698 0.49915 0.13559 0.0
C265 C 0.56655 0.5235 0.05064 0.0
C266 C 0.51327 0.53965 0.20084 0.0
C267 C 0.45803 0.4773 0.25644 0.0
N268 N 0.55026 0.52795 0.1002 0.0
N269 N 0.47979 0.47471 0.21411 0.0
H270 H 0.94429 0.50854 0.4645 0.0
H271 H 0.09538 0.52348 0.23171 0.0
H272 H 0.98359 0.43131 0.45543 0.0
H273 H 0.04899 0.59493 0.23009 0.0
H274 H 0.06206 0.49568 0.3241 0.0
H275 H 0.99006 0.54659 0.38994 0.0
C276 C 0.96279 0.49972 0.44742 0.0
C277 C 0.95962 0.46628 0.46566 0.0
C278 C 0.05938 0.51763 0.30379 0.0
C279 C 0.01201 0.50978 0.3799 0.0
C280 C 0.07838 0.53354 0.25089 0.0
C281 C 0.07453 0.56123 0.22237 0.0
C282 C 0.03624 0.52935 0.32843 0.0
C283 C 0.05248 0.57338 0.24999 0.0
C284 C 0.98891 0.52151 0.40473 0.0
C285 C 0.9847 0.45663 0.44234 0.0
N286 N 0.03387 0.5571 0.30119 0.0
N287 N 0.00956 0.47807 0.40016 0.0
H288 H 0.56943 0.08363 0.3825 0.0
H289 H 0.42305 0.92638 0.5977 0.0
H290 H 0.45225 0.04218 0.37239 0.0
H291 H 0.53989 0.96536 0.60085 0.0
H292 H 0.43349 0.97177 0.52059 0.0
H293 H 0.55925 0.04373 0.468 0.0
C294 C 0.54151 0.06621 0.39828 0.0
C295 C 0.51159 0.06604 0.36966 0.0
C296 C 0.45684 0.97048 0.53839 0.0
C297 C 0.4998 0.02013 0.46792 0.0
C298 C 0.45093 0.94455 0.58247 0.0
C299 C 0.48062 0.94183 0.60565 0.0
C300 C 0.49267 0.99384 0.51726 0.0
C301 C 0.51611 0.96628 0.58424 0.0
C302 C 0.53575 0.04342 0.44725 0.0
C303 C 0.47613 0.04309 0.39272 0.0
N304 N 0.5211 0.99112 0.54109 0.0
N305 N 0.4712 0.02088 0.44032 0.0
H306 H 0.54975 0.53729 0.78168 0.0
H307 H 0.40052 0.43975 0.52211 0.0
H308 H 0.49367 0.42031 0.74993 0.0
H309 H 0.4579 0.55615 0.55933 0.0
H310 H 0.42898 0.43039 0.61152 0.0
H311 H 0.51095 0.54306 0.70658 0.0
C312 C 0.52912 0.51273 0.75916 0.0
C313 C 0.52527 0.47831 0.77173 0.0
C314 C 0.43503 0.4579 0.60022 0.0
C315 C 0.48075 0.48478 0.68502 0.0
C316 C 0.41878 0.46324 0.54929 0.0
C317 C 0.4273 0.49884 0.53264 0.0
C318 C 0.4598 0.48836 0.63456 0.0
C319 C 0.45099 0.52827 0.56969 0.0
C320 C 0.50688 0.51604 0.71622 0.0
C321 C 0.49773 0.44743 0.74148 0.0
N322 N 0.46655 0.52238 0.61853 0.0
N323 N 0.47673 0.45145 0.69901 0.0
H324 H 0.25106 0.59592 0.08708 0.0
H325 H 0.29666 0.51338 0.35686 0.0
H326 H 0.16277 0.496 0.162 0.0
H327 H 0.36918 0.55046 0.20396 0.0
H328 H 0.24646 0.50781 0.29257 0.0
H329 H 0.29566 0.58279 0.13522 0.0
C330 C 0.2412 0.57102 0.11327 0.0
C331 C 0.20347 0.54695 0.12086 0.0
C332 C 0.27309 0.51608 0.27287 0.0
C333 C 0.25393 0.53228 0.17686 0.0
C334 C 0.30151 0.51897 0.30928 0.0
C335 C 0.33649 0.53115 0.28485 0.0
C336 C 0.28051 0.52721 0.21268 0.0
C337 C 0.34225 0.54027 0.22387 0.0
C338 C 0.26652 0.56345 0.14033 0.0
C339 C 0.19181 0.51502 0.15509 0.0
N340 N 0.31464 0.53862 0.18991 0.0
N341 N 0.21707 0.50891 0.18316 0.0
H342 H 0.62914 0.20009 0.3936 0.0
H343 H 0.82872 0.36156 0.37408 0.0
H344 H 0.69557 0.20572 0.24197 0.0
H345 H 0.7822 0.30959 0.54347 0.0
H346 H 0.78114 0.30663 0.32192 0.0
H347 H 0.68504 0.24215 0.44841 0.0
C348 C 0.65565 0.21001 0.37219 0.0
C349 C 0.65803 0.1998 0.31337 0.0
C350 C 0.78205 0.30695 0.3705 0.0
C351 C 0.72176 0.24826 0.37499 0.0
C352 C 0.80897 0.33816 0.40005 0.0
C353 C 0.8095 0.33946 0.46281 0.0
C354 C 0.75479 0.27785 0.40427 0.0
C355 C 0.783 0.30908 0.49492 0.0
C356 C 0.68747 0.23375 0.4035 0.0
C357 C 0.69287 0.2131 0.28745 0.0
N358 N 0.75631 0.27964 0.46526 0.0
N359 N 0.72356 0.23743 0.31806 0.0
H360 H 0.45192 0.76574 0.72305 0.0
H361 H 0.48022 0.68546 0.41783 0.0
H362 H 0.44471 0.80953 0.55198 0.0
H363 H 0.40794 0.6152 0.55722 0.0
H364 H 0.49014 0.73942 0.47625 0.0
H365 H 0.45862 0.71794 0.67057 0.0
C366 C 0.45273 0.76573 0.67445 0.0
C367 C 0.44864 0.79174 0.64133 0.0
C368 C 0.47264 0.7121 0.49412 0.0
C369 C 0.45611 0.73786 0.58187 0.0
C370 C 0.46706 0.68151 0.46116 0.0
C371 C 0.44293 0.64613 0.48277 0.0
C372 C 0.45478 0.70691 0.54945 0.0
C373 C 0.42637 0.64217 0.53894 0.0
C374 C 0.45636 0.73857 0.64477 0.0
C375 C 0.44849 0.79013 0.57862 0.0
N376 N 0.43263 0.67229 0.57055 0.0
N377 N 0.45243 0.76366 0.55065 0.0
H378 H 0.69061 0.47564 0.85954 0.0
H379 H 0.74054 0.40017 0.58456 0.0
H380 H 0.61982 0.44069 0.70447 0.0
H381 H 0.82735 0.49733 0.66862 0.0
H382 H 0.69506 0.41186 0.63281 0.0
H383 H 0.74174 0.48289 0.79604 0.0
C384 C 0.68632 0.47083 0.81171 0.0
C385 C 0.65157 0.4588 0.78643 0.0
C386 C 0.72407 0.43096 0.63992 0.0
C387 C 0.70866 0.46473 0.715 0.0
C388 C 0.7499 0.4242 0.61276 0.0
C389 C 0.78746 0.44787 0.62292 0.0
C390 C 0.73594 0.46086 0.67909 0.0
C391 C 0.79847 0.47865 0.65971 0.0
C392 C 0.71528 0.4747 0.77573 0.0
C393 C 0.64655 0.45073 0.72507 0.0
N394 N 0.77267 0.48392 0.68778 0.0
N395 N 0.6747 0.45339 0.69144 0.0
H396 H 0.2955 0.79293 0.74181 0.0
H397 H 0.20776 0.68667 0.04808 0.0
H398 H 0.35883 0.797 0.89703 0.0
H399 H 0.16383 0.63779 0.87585 0.0
H400 H 0.25456 0.74224 -0.00261 0.0
H401 H 0.23868 0.75017 0.79608 0.0
C402 C 0.29728 0.78547 0.78772 0.0
C403 C 0.33158 0.79797 0.81515 0.0
C404 C 0.23413 0.71967 0.9708 0.0
C405 C 0.26755 0.75032 0.87695 0.0
C406 C 0.2074 0.68819 -0.00045 0.0
C407 C 0.18179 0.65817 0.96578 0.0
C408 C 0.23533 0.72085 0.90793 0.0
C409 C 0.18305 0.66075 0.9031 0.0
C410 C 0.26506 0.76112 0.81834 0.0
C411 C 0.33277 0.78752 0.87437 0.0
N412 N 0.20958 0.69167 0.87591 0.0
N413 N 0.30116 0.76422 0.90338 0.0
H414 H 0.57563 0.37332 0.05813 0.0
H415 H 0.54042 0.17695 0.04904 0.0
H416 H 0.50733 0.30272 0.91569 0.0
H417 H 0.53033 0.22097 0.21785 0.0
H418 H 0.53128 0.22305 -0.0038 0.0
H419 H 0.56312 0.31897 0.11672 0.0
C420 C 0.55773 0.34628 0.03956 0.0
C421 C 0.54265 0.3422 0.98213 0.0
C422 C 0.53009 0.22194 0.04476 0.0
C423 C 0.52887 0.28043 0.04794 0.0
C424 C 0.53537 0.19586 0.07471 0.0
C425 C 0.53516 0.19492 0.13746 0.0
C426 C 0.52654 0.24825 0.07812 0.0
C427 C 0.52973 0.2205 0.16926 0.0
C428 C 0.55039 0.31542 0.07306 0.0
C429 C 0.51942 0.30675 0.95994 0.0
N430 N 0.52625 0.24669 0.13918 0.0
N431 N 0.51387 0.27702 0.99243 0.0
loop_
_geom_bond_atom_site_label_1
_geom_bond_atom_site_label_2
_geom_bond_distance
_geom_bond_site_symmetry_2
_ccdc_geom_bond_type
Mn0 O5 2.095 . S
Mn0 O15 2.162 . S
Mn0 O16 2.297 . S
Mn0 O24 2.385 . S
Mn0 O25 2.209 . S
Mn0 O26 2.094 . S
Mn1 O6 2.121 . S
Mn1 N8 2.257 . S
Mn1 N17 2.282 1_554 S
Mn1 O25 2.215 . S
Mn1 O27 2.117 1_554 S
C2 O24 1.234 . S
C2 O25 1.283 . S
C3 O15 1.281 . S
C3 O16 1.236 . S
C4 O26 1.240 1_556 S
C4 O27 1.264 . S
O5 Mn0 2.095 . S
O5 C14 1.250 . S
O6 Mn1 2.121 . S
O6 C14 1.258 . S
C7 N8 1.326 . S
C7 C11 1.460 . S
C7 H13 0.929 . S
N8 Mn1 2.257 . S
N8 C7 1.326 . S
N8 C12 1.362 . S
C9 C10 1.258 . S
C9 C12 1.431 . S
C9 C29 1.449 1_554 S
C10 C9 1.258 . S
C10 C11 1.477 . S
C10 H30 0.931 . S
C11 C7 1.460 . S
C11 C10 1.477 . S
C11 H31 0.930 . S
C12 N8 1.362 . S
C12 C9 1.431 . S
C12 C22 1.476 1_554 S
H13 C7 0.929 . S
C14 O5 1.250 . S
C14 O6 1.258 . S
O15 Mn0 2.162 . S
O15 C3 1.281 . S
O16 Mn0 2.297 . S
O16 C3 1.236 . S
N17 Mn1 2.282 1_556 S
N17 C18 1.328 . S
N17 C22 1.318 . S
C18 N17 1.328 . S
C18 C19 1.457 . S
C18 H23 0.929 . S
C19 C18 1.457 . S
C19 C20 1.291 . S
C19 H32 0.931 . S
C20 C19 1.291 . S
C20 C21 1.373 . S
C20 H33 0.929 . S
C21 C20 1.373 . S
C21 C22 1.396 . S
C21 C28 1.403 . S
C22 C12 1.476 1_556 S
C22 N17 1.318 . S
C22 C21 1.396 . S
H23 C18 0.929 . S
O24 Mn0 2.385 . S
O24 C2 1.234 . S
O25 Mn0 2.209 . S
O25 Mn1 2.215 . S
O25 C2 1.283 . S
O26 Mn0 2.094 . S
O26 C4 1.240 1_554 S
O27 Mn1 2.117 1_556 S
O27 C4 1.264 . S
C28 C21 1.403 . S
C28 C29 1.399 . S
C28 H34 0.929 . S
C29 C9 1.449 1_556 S
C29 C28 1.399 . S
C29 H35 0.930 . S
H30 C10 0.931 . S
H31 C11 0.930 . S
H32 C19 0.931 . S
H33 C20 0.929 . S
H34 C28 0.929 . S
H35 C29 0.930 . S
Mn36 O41 2.095 . S
Mn36 O51 2.162 . S
Mn36 O52 2.297 . S
Mn36 O60 2.385 . S
Mn36 O61 2.209 . S
Mn36 O62 2.094 . S
Mn37 O42 2.121 . S
Mn37 N44 2.257 . S
Mn37 N53 2.282 . S
Mn37 O61 2.215 . S
Mn37 O63 2.117 . S
C38 O60 1.234 . S
C38 O61 1.283 . S
C39 O51 1.281 . S
C39 O52 1.236 . S
C40 O62 1.240 . S
C40 O63 1.264 . S
O41 Mn36 2.095 . S
O41 C50 1.250 . S
O42 Mn37 2.121 . S
O42 C50 1.258 . S
C43 N44 1.326 . S
C43 C47 1.460 . S
C43 H49 0.929 . S
N44 Mn37 2.257 . S
N44 C43 1.326 . S
N44 C48 1.362 . S
C45 C46 1.258 . S
C45 C48 1.431 . S
C45 C65 1.449 . S
C46 C45 1.258 . S
C46 C47 1.477 . S
C46 H66 0.931 . S
C47 C43 1.460 . S
C47 C46 1.477 . S
C47 H67 0.930 . S
C48 N44 1.362 . S
C48 C45 1.431 . S
C48 C58 1.476 . S
H49 C43 0.929 . S
C50 O41 1.250 . S
C50 O42 1.258 . S
O51 Mn36 2.162 . S
O51 C39 1.281 . S
O52 Mn36 2.297 . S
O52 C39 1.236 . S
N53 Mn37 2.282 . S
N53 C54 1.328 . S
N53 C58 1.318 . S
C54 N53 1.328 . S
C54 C55 1.457 . S
C54 H59 0.929 . S
C55 C54 1.457 . S
C55 C56 1.291 . S
C55 H68 0.931 1_554 S
C56 C55 1.291 . S
C56 C57 1.373 . S
C56 H69 0.929 . S
C57 C56 1.373 . S
C57 C58 1.396 . S
C57 C64 1.403 . S
C58 C48 1.476 . S
C58 N53 1.318 . S
C58 C57 1.396 . S
H59 C54 0.929 . S
O60 Mn36 2.385 . S
O60 C38 1.234 . S
O61 Mn36 2.209 . S
O61 Mn37 2.215 . S
O61 C38 1.283 . S
O62 Mn36 2.094 . S
O62 C40 1.240 . S
O63 Mn37 2.117 . S
O63 C40 1.264 . S
C64 C57 1.403 . S
C64 C65 1.399 . S
C64 H70 0.929 . S
C65 C45 1.449 . S
C65 C64 1.399 . S
C65 H71 0.930 . S
H66 C46 0.931 . S
H67 C47 0.930 . S
H68 C55 0.931 1_556 S
H69 C56 0.929 . S
H70 C64 0.929 . S
H71 C65 0.930 . S
Mn72 O77 2.095 . S
Mn72 O87 2.162 . S
Mn72 O88 2.297 . S
Mn72 O96 2.385 . S
Mn72 O97 2.209 . S
Mn72 O98 2.094 . S
Mn73 O78 2.121 . S
Mn73 N80 2.257 . S
Mn73 N89 2.282 . S
Mn73 O97 2.215 . S
Mn73 O99 2.117 . S
C74 O96 1.234 . S
C74 O97 1.283 . S
C75 O87 1.281 . S
C75 O88 1.236 . S
C76 O98 1.240 . S
C76 O99 1.264 . S
O77 Mn72 2.095 . S
O77 C86 1.250 . S
O78 Mn73 2.121 . S
O78 C86 1.258 . S
C79 N80 1.326 . S
C79 C83 1.460 . S
C79 H85 0.929 . S
N80 Mn73 2.257 . S
N80 C79 1.326 . S
N80 C84 1.362 . S
C81 C82 1.258 . S
C81 C84 1.431 . S
C81 C101 1.449 . S
C82 C81 1.258 . S
C82 C83 1.477 . S
C82 H102 0.931 . S
C83 C79 1.460 . S
C83 C82 1.477 . S
C83 H103 0.930 . S
C84 N80 1.362 . S
C84 C81 1.431 . S
C84 C94 1.476 . S
H85 C79 0.929 . S
C86 O77 1.250 . S
C86 O78 1.258 . S
O87 Mn72 2.162 . S
O87 C75 1.281 . S
O88 Mn72 2.297 . S
O88 C75 1.236 . S
N89 Mn73 2.282 . S
N89 C90 1.328 . S
N89 C94 1.318 . S
C90 N89 1.328 . S
C90 C91 1.457 . S
C90 H95 0.929 . S
C91 C90 1.457 . S
C91 C92 1.291 . S
C91 H104 0.931 . S
C92 C91 1.291 . S
C92 C93 1.373 . S
C92 H105 0.929 . S
C93 C92 1.373 . S
C93 C94 1.396 . S
C93 C100 1.403 . S
C94 C84 1.476 . S
C94 N89 1.318 . S
C94 C93 1.396 . S
H95 C90 0.929 . S
O96 Mn72 2.385 . S
O96 C74 1.234 . S
O97 Mn72 2.209 . S
O97 Mn73 2.215 . S
O97 C74 1.283 . S
O98 Mn72 2.094 . S
O98 C76 1.240 . S
O99 Mn73 2.117 . S
O99 C76 1.264 . S
C100 C93 1.403 . S
C100 C101 1.399 . S
C100 H106 0.929 . S
C101 C81 1.449 . S
C101 C100 1.399 . S
C101 H107 0.930 . S
H102 C82 0.931 . S
H103 C83 0.930 . S
H104 C91 0.931 . S
H105 C92 0.929 . S
H106 C100 0.929 . S
H107 C101 0.930 . S
Mn108 O113 2.095 . S
Mn108 O123 2.162 . S
Mn108 O124 2.297 . S
Mn108 O132 2.385 . S
Mn108 O133 2.209 . S
Mn108 O134 2.094 . S
Mn109 O114 2.121 . S
Mn109 N116 2.257 . S
Mn109 N125 2.282 . S
Mn109 O133 2.215 . S
Mn109 O135 2.117 . S
C110 O132 1.234 . S
C110 O133 1.283 . S
C111 O123 1.281 . S
C111 O124 1.236 . S
C112 O134 1.240 . S
C112 O135 1.264 . S
O113 Mn108 2.095 . S
O113 C122 1.250 . S
O114 Mn109 2.121 . S
O114 C122 1.258 . S
C115 N116 1.326 . S
C115 C119 1.460 . S
C115 H121 0.929 . S
N116 Mn109 2.257 . S
N116 C115 1.326 . S
N116 C120 1.362 . S
C117 C118 1.258 . S
C117 C120 1.431 . S
C117 C137 1.449 . S
C118 C117 1.258 . S
C118 C119 1.477 . S
C118 H138 0.931 . S
C119 C115 1.460 . S
C119 C118 1.477 . S
C119 H139 0.930 . S
C120 N116 1.362 . S
C120 C117 1.431 . S
C120 C130 1.476 . S
H121 C115 0.929 . S
C122 O113 1.250 . S
C122 O114 1.258 . S
O123 Mn108 2.162 . S
O123 C111 1.281 . S
O124 Mn108 2.297 . S
O124 C111 1.236 . S
N125 Mn109 2.282 . S
N125 C126 1.328 . S
N125 C130 1.318 . S
C126 N125 1.328 . S
C126 C127 1.457 . S
C126 H131 0.929 . S
C127 C126 1.457 . S
C127 C128 1.291 . S
C127 H140 0.931 . S
C128 C127 1.291 . S
C128 C129 1.373 . S
C128 H141 0.929 . S
C129 C128 1.373 . S
C129 C130 1.396 . S
C129 C136 1.403 . S
C130 C120 1.476 . S
C130 N125 1.318 . S
C130 C129 1.396 . S
H131 C126 0.929 . S
O132 Mn108 2.385 . S
O132 C110 1.234 . S
O133 Mn108 2.209 . S
O133 Mn109 2.215 . S
O133 C110 1.283 . S
O134 Mn108 2.094 . S
O134 C112 1.240 . S
O135 Mn109 2.117 . S
O135 C112 1.264 . S
C136 C129 1.403 . S
C136 C137 1.399 . S
C136 H142 0.929 . S
C137 C117 1.449 . S
C137 C136 1.399 . S
C137 H143 0.930 . S
H138 C118 0.931 . S
H139 C119 0.930 . S
H140 C127 0.931 . S
H141 C128 0.929 . S
H142 C136 0.929 . S
H143 C137 0.930 . S
Mn144 O149 2.095 . S
Mn144 O159 2.162 . S
Mn144 O160 2.297 . S
Mn144 O168 2.385 . S
Mn144 O169 2.209 . S
Mn144 O170 2.094 . S
Mn145 O150 2.121 . S
Mn145 N152 2.257 . S
Mn145 N161 2.282 . S
Mn145 O169 2.215 . S
Mn145 O171 2.117 . S
C146 O168 1.234 . S
C146 O169 1.283 . S
C147 O159 1.281 . S
C147 O160 1.236 . S
C148 O170 1.240 . S
C148 O171 1.264 . S
O149 Mn144 2.095 . S
O149 C158 1.250 . S
O150 Mn145 2.121 . S
O150 C158 1.258 . S
C151 N152 1.326 . S
C151 C155 1.460 . S
C151 H157 0.929 . S
N152 Mn145 2.257 . S
N152 C151 1.326 . S
N152 C156 1.362 . S
C153 C154 1.258 . S
C153 C156 1.431 . S
C153 C173 1.449 . S
C154 C153 1.258 . S
C154 C155 1.477 . S
C154 H174 0.931 . S
C155 C151 1.460 . S
C155 C154 1.477 . S
C155 H175 0.930 . S
C156 N152 1.362 . S
C156 C153 1.431 . S
C156 C166 1.476 . S
H157 C151 0.929 . S
C158 O149 1.250 . S
C158 O150 1.258 . S
O159 Mn144 2.162 . S
O159 C147 1.281 . S
O160 Mn144 2.297 . S
O160 C147 1.236 . S
N161 Mn145 2.282 . S
N161 C162 1.328 . S
N161 C166 1.318 . S
C162 N161 1.328 . S
C162 C163 1.457 . S
C162 H167 0.929 . S
C163 C162 1.457 . S
C163 C164 1.291 . S
C163 H176 0.931 . S
C164 C163 1.291 . S
C164 C165 1.373 . S
C164 H177 0.929 . S
C165 C164 1.373 . S
C165 C166 1.396 . S
C165 C172 1.403 . S
C166 C156 1.476 . S
C166 N161 1.318 . S
C166 C165 1.396 . S
H167 C162 0.929 . S
O168 Mn144 2.385 . S
O168 C146 1.234 . S
O169 Mn144 2.209 . S
O169 Mn145 2.215 . S
O169 C146 1.283 . S
O170 Mn144 2.094 . S
O170 C148 1.240 . S
O171 Mn145 2.117 . S
O171 C148 1.264 . S
C172 C165 1.403 . S
C172 C173 1.399 . S
C172 H178 0.929 . S
C173 C153 1.449 . S
C173 C172 1.399 . S
C173 H179 0.930 . S
H174 C154 0.931 . S
H175 C155 0.930 . S
H176 C163 0.931 . S
H177 C164 0.929 . S
H178 C172 0.929 . S
H179 C173 0.930 . S
Mn180 O185 2.095 . S
Mn180 O195 2.162 . S
Mn180 O196 2.297 . S
Mn180 O204 2.385 . S
Mn180 O205 2.209 . S
Mn180 O206 2.094 . S
Mn181 O186 2.121 . S
Mn181 N188 2.257 . S
Mn181 N197 2.282 . S
Mn181 O205 2.215 . S
Mn181 O207 2.117 . S
C182 O204 1.234 . S
C182 O205 1.283 . S
C183 O195 1.281 . S
C183 O196 1.236 . S
C184 O206 1.240 . S
C184 O207 1.264 . S
O185 Mn180 2.095 . S
O185 C194 1.250 . S
O186 Mn181 2.121 . S
O186 C194 1.258 . S
C187 N188 1.326 . S
C187 C191 1.460 . S
C187 H193 0.929 . S
N188 Mn181 2.257 . S
N188 C187 1.326 . S
N188 C192 1.362 . S
C189 C190 1.258 . S
C189 C192 1.431 . S
C189 C209 1.449 . S
C190 C189 1.258 . S
C190 C191 1.477 . S
C190 H210 0.931 . S
C191 C187 1.460 . S
C191 C190 1.477 . S
C191 H211 0.930 1_556 S
C192 N188 1.362 . S
C192 C189 1.431 . S
C192 C202 1.476 . S
H193 C187 0.929 . S
C194 O185 1.250 . S
C194 O186 1.258 . S
O195 Mn180 2.162 . S
O195 C183 1.281 . S
O196 Mn180 2.297 . S
O196 C183 1.236 . S
N197 Mn181 2.282 . S
N197 C198 1.328 . S
N197 C202 1.318 . S
C198 N197 1.328 . S
C198 C199 1.457 . S
C198 H203 0.929 . S
C199 C198 1.457 . S
C199 C200 1.291 . S
C199 H212 0.931 . S
C200 C199 1.291 . S
C200 C201 1.373 . S
C200 H213 0.929 . S
C201 C200 1.373 . S
C201 C202 1.396 . S
C201 C208 1.403 . S
C202 C192 1.476 . S
C202 N197 1.318 . S
C202 C201 1.396 . S
H203 C198 0.929 . S
O204 Mn180 2.385 . S
O204 C182 1.234 . S
O205 Mn180 2.209 . S
O205 Mn181 2.215 . S
O205 C182 1.283 . S
O206 Mn180 2.094 . S
O206 C184 1.240 . S
O207 Mn181 2.117 . S
O207 C184 1.264 . S
C208 C201 1.403 . S
C208 C209 1.399 . S
C208 H214 0.929 . S
C209 C189 1.449 . S
C209 C208 1.399 . S
C209 H215 0.930 . S
H210 C190 0.931 . S
H211 C191 0.930 1_554 S
H212 C199 0.931 . S
H213 C200 0.929 . S
H214 C208 0.929 . S
H215 C209 0.930 . S
H216 C222 0.930 . S
H217 C226 0.930 . S
H218 C231 0.929 . S
H219 C229 0.929 . S
H220 C224 0.929 1_455 S
H221 C230 0.915 1_655 S
C222 H216 0.930 . S
C222 C223 1.367 . S
C222 C230 1.395 . S
C223 C222 1.367 . S
C223 C231 1.433 . S
C224 H220 0.929 1_655 S
C224 C226 1.378 . S
C224 C228 1.350 . S
C225 C228 1.463 1_455 S
C225 C230 1.347 . S
C225 N233 1.427 . S
C226 H217 0.930 . S
C226 C224 1.378 . S
C226 C227 1.367 . S
C227 C226 1.367 . S
C227 C229 1.433 . S
C228 C224 1.350 . S
C228 C225 1.463 1_655 S
C228 N232 1.427 . S
C229 H219 0.929 . S
C229 C227 1.433 . S
C229 N232 1.384 . S
C230 H221 0.915 1_455 S
C230 C222 1.395 . S
C230 C225 1.347 . S
C231 H218 0.929 . S
C231 C223 1.433 . S
C231 N233 1.384 . S
N232 C228 1.427 . S
N232 C229 1.384 . S
N233 C225 1.427 . S
N233 C231 1.384 . S
H234 C240 0.930 . S
H235 C244 0.930 . S
H236 C249 0.929 . S
H237 C247 0.929 . S
H238 C242 0.929 1_556 S
H239 C248 0.929 1_554 S
C240 H234 0.930 . S
C240 C241 1.367 . S
C240 C248 1.378 . S
C241 C240 1.367 . S
C241 C249 1.433 . S
C242 H238 0.929 1_554 S
C242 C244 1.378 . S
C242 C246 1.350 . S
C243 C246 1.463 1_566 S
C243 C248 1.350 . S
C243 N251 1.427 . S
C244 H235 0.930 . S
C244 C242 1.378 . S
C244 C245 1.367 . S
C245 C244 1.367 . S
C245 C247 1.433 . S
C246 C242 1.350 . S
C246 C243 1.463 1_544 S
C246 N250 1.429 1_545 S
C247 H237 0.929 . S
C247 C245 1.433 . S
C247 N250 1.385 1_545 S
C248 H239 0.929 1_556 S
C248 C240 1.378 . S
C248 C243 1.350 . S
C249 H236 0.929 . S
C249 C241 1.433 . S
C249 N251 1.384 . S
N250 C246 1.429 1_565 S
N250 C247 1.385 1_565 S
N251 C243 1.427 . S
N251 C249 1.384 . S
H252 C258 0.930 . S
H253 C262 0.930 . S
H254 C267 0.929 . S
H255 C265 0.929 . S
H256 C260 0.929 . S
H257 C266 0.929 . S
C258 H252 0.930 . S
C258 C259 1.367 . S
C258 C266 1.378 . S
C259 C258 1.367 . S
C259 C267 1.433 . S
C260 H256 0.929 . S
C260 C262 1.378 . S
C260 C264 1.350 . S
C261 C264 1.463 . S
C261 C266 1.350 . S
C261 N269 1.427 . S
C262 H253 0.930 . S
C262 C260 1.378 . S
C262 C263 1.367 . S
C263 C262 1.367 . S
C263 C265 1.433 . S
C264 C260 1.350 . S
C264 C261 1.463 . S
C264 N268 1.427 . S
C265 H255 0.929 . S
C265 C263 1.433 . S
C265 N268 1.384 . S
C266 H257 0.929 . S
C266 C258 1.378 . S
C266 C261 1.350 . S
C267 H254 0.929 . S
C267 C259 1.433 . S
C267 N269 1.384 . S
N268 C264 1.427 . S
N268 C265 1.384 . S
N269 C261 1.427 . S
N269 C267 1.384 . S
H270 C276 0.930 . S
H271 C280 0.930 . S
H272 C285 0.929 . S
H273 C283 0.929 . S
H274 C278 0.929 . S
H275 C284 0.929 . S
C276 H270 0.930 . S
C276 C277 1.367 . S
C276 C284 1.378 . S
C277 C276 1.367 . S
C277 C285 1.433 . S
C278 H274 0.929 . S
C278 C280 1.378 . S
C278 C282 1.350 . S
C279 C282 1.463 1_655 S
C279 C284 1.350 . S
C279 N287 1.427 1_655 S
C280 H271 0.930 . S
C280 C278 1.378 . S
C280 C281 1.367 . S
C281 C280 1.367 . S
C281 C283 1.433 . S
C282 C278 1.350 . S
C282 C279 1.463 1_455 S
C282 N286 1.427 . S
C283 H273 0.929 . S
C283 C281 1.433 . S
C283 N286 1.384 . S
C284 H275 0.929 . S
C284 C276 1.378 . S
C284 C279 1.350 . S
C285 H272 0.929 . S
C285 C277 1.433 . S
C285 N287 1.384 1_655 S
N286 C282 1.427 . S
N286 C283 1.384 . S
N287 C279 1.427 1_455 S
N287 C285 1.384 1_455 S
H288 C294 0.930 . S
H289 C298 0.930 . S
H290 C303 0.929 . S
H291 C301 0.929 . S
H292 C296 0.929 1_545 S
H293 C302 0.936 . S
C294 H288 0.930 . S
C294 C295 1.367 . S
C294 C302 1.378 . S
C295 C294 1.367 . S
C295 C303 1.433 . S
C296 H292 0.929 1_565 S
C296 C298 1.378 . S
C296 C300 1.350 . S
C297 C300 1.463 1_545 S
C297 C302 1.350 . S
C297 N305 1.427 . S
C298 H289 0.930 . S
C298 C296 1.378 . S
C298 C299 1.367 . S
C299 C298 1.367 . S
C299 C301 1.433 . S
C300 C296 1.350 . S
C300 C297 1.463 1_565 S
C300 N304 1.427 . S
C301 H291 0.929 . S
C301 C299 1.433 . S
C301 N304 1.384 . S
C302 H293 0.936 . S
C302 C294 1.378 . S
C302 C297 1.350 . S
C303 H290 0.929 . S
C303 C295 1.433 . S
C303 N305 1.384 . S
N304 C300 1.427 . S
N304 C301 1.384 . S
N305 C297 1.427 . S
N305 C303 1.384 . S
H306 C312 0.930 . S
H307 C316 0.930 . S
H308 C321 0.929 . S
H309 C319 0.929 . S
H310 C314 0.929 . S
H311 C320 0.929 . S
C312 H306 0.930 . S
C312 C313 1.367 . S
C312 C320 1.378 . S
C313 C312 1.367 . S
C313 C321 1.433 . S
C314 H310 0.929 . S
C314 C316 1.378 . S
C314 C318 1.350 . S
C315 C318 1.463 . S
C315 C320 1.350 . S
C315 N323 1.427 . S
C316 H307 0.930 . S
C316 C314 1.378 . S
C316 C317 1.367 . S
C317 C316 1.367 . S
C317 C319 1.433 . S
C318 C314 1.350 . S
C318 C315 1.463 . S
C318 N322 1.427 . S
C319 H309 0.929 . S
C319 C317 1.433 . S
C319 N322 1.384 . S
C320 H311 0.929 . S
C320 C312 1.378 . S
C320 C315 1.350 . S
C321 H308 0.929 . S
C321 C313 1.433 . S
C321 N323 1.384 . S
N322 C318 1.427 . S
N322 C319 1.384 . S
N323 C315 1.427 . S
N323 C321 1.384 . S
H324 C330 0.930 . S
H325 C334 0.930 . S
H326 C339 0.929 . S
H327 C337 0.929 . S
H328 C332 0.929 . S
H329 C338 0.929 . S
C330 H324 0.930 . S
C330 C331 1.367 . S
C330 C338 1.378 . S
C331 C330 1.367 . S
C331 C339 1.433 . S
C332 H328 0.929 . S
C332 C334 1.378 . S
C332 C336 1.350 . S
C333 C336 1.463 . S
C333 C338 1.350 . S
C333 N341 1.427 . S
C334 H325 0.930 . S
C334 C332 1.378 . S
C334 C335 1.367 . S
C335 C334 1.367 . S
C335 C337 1.433 . S
C336 C332 1.350 . S
C336 C333 1.463 . S
C336 N340 1.427 . S
C337 H327 0.929 . S
C337 C335 1.433 . S
C337 N340 1.384 . S
C338 H329 0.929 . S
C338 C330 1.378 . S
C338 C333 1.350 . S
C339 H326 0.929 . S
C339 C331 1.433 . S
C339 N341 1.384 . S
N340 C336 1.427 . S
N340 C337 1.384 . S
N341 C333 1.427 . S
N341 C339 1.384 . S
H342 C348 0.930 . S
H343 C352 0.930 . S
H344 C357 0.929 . S
H345 C355 0.929 . S
H346 C350 0.929 . S
H347 C356 0.929 . S
C348 H342 0.930 . S
C348 C349 1.367 . S
C348 C356 1.378 . S
C349 C348 1.367 . S
C349 C357 1.433 . S
C350 H346 0.929 . S
C350 C352 1.378 . S
C350 C354 1.350 . S
C351 C354 1.463 . S
C351 C356 1.350 . S
C351 N359 1.427 . S
C352 H343 0.930 . S
C352 C350 1.378 . S
C352 C353 1.367 . S
C353 C352 1.367 . S
C353 C355 1.433 . S
C354 C350 1.350 . S
C354 C351 1.463 . S
C354 N358 1.427 . S
C355 H345 0.929 . S
C355 C353 1.433 . S
C355 N358 1.384 . S
C356 H347 0.929 . S
C356 C348 1.378 . S
C356 C351 1.350 . S
C357 H344 0.929 . S
C357 C349 1.433 . S
C357 N359 1.384 . S
N358 C354 1.427 . S
N358 C355 1.384 . S
N359 C351 1.427 . S
N359 C357 1.384 . S
H360 C366 0.930 . S
H361 C370 0.930 . S
H362 C375 0.929 . S
H363 C373 0.929 . S
H364 C368 0.929 . S
H365 C374 0.929 . S
C366 H360 0.930 . S
C366 C367 1.367 . S
C366 C374 1.378 . S
C367 C366 1.367 . S
C367 C375 1.433 . S
C368 H364 0.929 . S
C368 C370 1.378 . S
C368 C372 1.350 . S
C369 C372 1.463 . S
C369 C374 1.350 . S
C369 N377 1.427 . S
C370 H361 0.930 . S
C370 C368 1.378 . S
C370 C371 1.367 . S
C371 C370 1.367 . S
C371 C373 1.433 . S
C372 C368 1.350 . S
C372 C369 1.463 . S
C372 N376 1.427 . S
C373 H363 0.929 . S
C373 C371 1.433 . S
C373 N376 1.384 . S
C374 H365 0.929 . S
C374 C366 1.378 . S
C374 C369 1.350 . S
C375 H362 0.929 . S
C375 C367 1.433 . S
C375 N377 1.384 . S
N376 C372 1.427 . S
N376 C373 1.384 . S
N377 C369 1.427 . S
N377 C375 1.384 . S
H378 C384 0.930 . S
H379 C388 0.930 . S
H380 C393 0.929 . S
H381 C391 0.929 . S
H382 C386 0.929 . S
H383 C392 0.929 . S
C384 H378 0.930 . S
C384 C385 1.367 . S
C384 C392 1.378 . S
C385 C384 1.367 . S
C385 C393 1.433 . S
C386 H382 0.929 . S
C386 C388 1.378 . S
C386 C390 1.350 . S
C387 C390 1.463 . S
C387 C392 1.350 . S
C387 N395 1.427 . S
C388 H379 0.930 . S
C388 C386 1.378 . S
C388 C389 1.367 . S
C389 C388 1.367 . S
C389 C391 1.433 . S
C390 C386 1.350 . S
C390 C387 1.463 . S
C390 N394 1.427 . S
C391 H381 0.929 . S
C391 C389 1.433 . S
C391 N394 1.384 . S
C392 H383 0.929 . S
C392 C384 1.378 . S
C392 C387 1.350 . S
C393 H380 0.929 . S
C393 C385 1.433 . S
C393 N395 1.384 . S
N394 C390 1.427 . S
N394 C391 1.384 . S
N395 C387 1.427 . S
N395 C393 1.384 . S
H396 C402 0.930 . S
H397 C406 0.930 . S
H398 C411 0.929 . S
H399 C409 0.929 . S
H400 C404 0.929 . S
H401 C410 0.929 . S
C402 H396 0.930 . S
C402 C403 1.367 . S
C402 C410 1.378 . S
C403 C402 1.367 . S
C403 C411 1.433 . S
C404 H400 0.929 . S
C404 C406 1.378 1_556 S
C404 C408 1.350 . S
C405 C408 1.463 . S
C405 C410 1.350 . S
C405 N413 1.427 . S
C406 H397 0.930 . S
C406 C404 1.378 1_554 S
C406 C407 1.367 . S
C407 C406 1.367 . S
C407 C409 1.433 1_554 S
C408 C404 1.350 . S
C408 C405 1.463 . S
C408 N412 1.427 . S
C409 H399 0.929 . S
C409 C407 1.433 1_556 S
C409 N412 1.384 . S
C410 H401 0.929 . S
C410 C402 1.378 . S
C410 C405 1.350 . S
C411 H398 0.929 . S
C411 C403 1.433 . S
C411 N413 1.384 . S
N412 C408 1.427 . S
N412 C409 1.384 . S
N413 C405 1.427 . S
N413 C411 1.384 . S
H414 C420 0.930 . S
H415 C424 0.930 . S
H416 C429 0.929 . S
H417 C427 0.929 . S
H418 C422 0.929 . S
H419 C428 0.929 . S
C420 H414 0.930 . S
C420 C421 1.367 . S
C420 C428 1.378 . S
C421 C420 1.367 . S
C421 C429 1.433 1_554 S
C422 H418 0.929 . S
C422 C424 1.378 . S
C422 C426 1.350 . S
C423 C426 1.463 . S
C423 C428 1.350 . S
C423 N431 1.427 . S
C424 H415 0.930 . S
C424 C422 1.378 . S
C424 C425 1.367 . S
C425 C424 1.367 . S
C425 C427 1.433 . S
C426 C422 1.350 . S
C426 C423 1.463 . S
C426 N430 1.427 . S
C427 H417 0.929 . S
C427 C425 1.433 . S
C427 N430 1.384 . S
C428 H419 0.929 . S
C428 C420 1.378 . S
C428 C423 1.350 . S
C429 H416 0.929 . S
C429 C421 1.433 1_556 S
C429 N431 1.384 1_556 S
N430 C426 1.427 . S
N430 C427 1.384 . S
N431 C423 1.427 . S
N431 C429 1.384 1_554 S
C223 C4 1.237 . S
C227 C122 1.229 . S
C241 C158 1.236 . S
C245 C40 1.228 . S
C259 C76 1.239 . S
C263 C194 1.238 1_554 S
C277 C112 1.233 . S
C281 C14 1.239 . S
C295 C50 1.232 . S
C299 C148 1.239 . S
C313 C184 1.227 . S
C317 C86 1.225 . S
C331 C3 1.249 . S
C335 C74 1.238 . S
C349 C39 1.248 . S
C353 C110 1.225 . S
C367 C146 1.231 . S
C371 C75 1.255 . S
C385 C182 1.238 . S
C389 C111 1.250 . S
C403 C147 1.255 . S
C407 C2 1.229 . S
C421 C183 1.247 1_554 S
C425 C38 1.226 . S
