# Generated by pormake.
# Topology gme, (4)-cn, num edge types: 1
# Building blocks:
#     Node 0, Type 0, BuildingBlock: QUQFOY_clean_sbu_1, # of connection points: 4
#     Node 1, Type 0, BuildingBlock: QUQFOY_clean_sbu_1, # of connection points: 4
#     Node 2, Type 0, BuildingBlock: QUQFOY_clean_sbu_1, # of connection points: 4
#     Node 3, Type 0, BuildingBlock: QUQFOY_clean_sbu_1, # of connection points: 4
#     Node 4, Type 0, BuildingBlock: QUQFOY_clean_sbu_1, # of connection points: 4
#     Node 5, Type 0, BuildingBlock: QUQFOY_clean_sbu_1, # of connection points: 4
#     Node 6, Type 0, BuildingBlock: QUQFOY_clean_sbu_1, # of connection points: 4
#     Node 7, Type 0, BuildingBlock: QUQFOY_clean_sbu_1, # of connection points: 4
#     Node 8, Type 0, BuildingBlock: QUQFOY_clean_sbu_1, # of connection points: 4
#     Node 9, Type 0, BuildingBlock: QUQFOY_clean_sbu_1, # of connection points: 4
#     Node 10, Type 0, BuildingBlock: QUQFOY_clean_sbu_1, # of connection points: 4
#     Node 11, Type 0, BuildingBlock: QUQFOY_clean_sbu_1, # of connection points: 4
#     Node 12, Type 0, BuildingBlock: QUQFOY_clean_sbu_1, # of connection points: 4
#     Node 13, Type 0, BuildingBlock: QUQFOY_clean_sbu_1, # of connection points: 4
#     Node 14, Type 0, BuildingBlock: QUQFOY_clean_sbu_1, # of connection points: 4
#     Node 15, Type 0, BuildingBlock: QUQFOY_clean_sbu_1, # of connection points: 4
#     Node 16, Type 0, BuildingBlock: QUQFOY_clean_sbu_1, # of connection points: 4
#     Node 17, Type 0, BuildingBlock: QUQFOY_clean_sbu_1, # of connection points: 4
#     Node 18, Type 0, BuildingBlock: QUQFOY_clean_sbu_1, # of connection points: 4
#     Node 19, Type 0, BuildingBlock: QUQFOY_clean_sbu_1, # of connection points: 4
#     Node 20, Type 0, BuildingBlock: QUQFOY_clean_sbu_1, # of connection points: 4
#     Node 21, Type 0, BuildingBlock: QUQFOY_clean_sbu_1, # of connection points: 4
#     Node 22, Type 0, BuildingBlock: QUQFOY_clean_sbu_1, # of connection points: 4
#     Node 23, Type 0, BuildingBlock: QUQFOY_clean_sbu_1, # of connection points: 4
#     Edge 24, Type (0, 0), BuildingBlock: EZIPEK_clean_linker_0, # of connection points: 2
#     Edge 25, Type (0, 0), BuildingBlock: EZIPEK_clean_linker_0, # of connection points: 2
#     Edge 26, Type (0, 0), BuildingBlock: EZIPEK_clean_linker_0, # of connection points: 2
#     Edge 27, Type (0, 0), BuildingBlock: EZIPEK_clean_linker_0, # of connection points: 2
#     Edge 28, Type (0, 0), BuildingBlock: EZIPEK_clean_linker_0, # of connection points: 2
#     Edge 29, Type (0, 0), BuildingBlock: EZIPEK_clean_linker_0, # of connection points: 2
#     Edge 30, Type (0, 0), BuildingBlock: EZIPEK_clean_linker_0, # of connection points: 2
#     Edge 31, Type (0, 0), BuildingBlock: EZIPEK_clean_linker_0, # of connection points: 2
#     Edge 32, Type (0, 0), BuildingBlock: EZIPEK_clean_linker_0, # of connection points: 2
#     Edge 33, Type (0, 0), BuildingBlock: EZIPEK_clean_linker_0, # of connection points: 2
#     Edge 34, Type (0, 0), BuildingBlock: EZIPEK_clean_linker_0, # of connection points: 2
#     Edge 35, Type (0, 0), BuildingBlock: EZIPEK_clean_linker_0, # of connection points: 2
#     Edge 36, Type (0, 0), BuildingBlock: EZIPEK_clean_linker_0, # of connection points: 2
#     Edge 37, Type (0, 0), BuildingBlock: EZIPEK_clean_linker_0, # of connection points: 2
#     Edge 38, Type (0, 0), BuildingBlock: EZIPEK_clean_linker_0, # of connection points: 2
#     Edge 39, Type (0, 0), BuildingBlock: EZIPEK_clean_linker_0, # of connection points: 2
#     Edge 40, Type (0, 0), BuildingBlock: EZIPEK_clean_linker_0, # of connection points: 2
#     Edge 41, Type (0, 0), BuildingBlock: EZIPEK_clean_linker_0, # of connection points: 2
#     Edge 42, Type (0, 0), BuildingBlock: EZIPEK_clean_linker_0, # of connection points: 2
#     Edge 43, Type (0, 0), BuildingBlock: EZIPEK_clean_linker_0, # of connection points: 2
#     Edge 44, Type (0, 0), BuildingBlock: EZIPEK_clean_linker_0, # of connection points: 2
#     Edge 45, Type (0, 0), BuildingBlock: EZIPEK_clean_linker_0, # of connection points: 2
#     Edge 46, Type (0, 0), BuildingBlock: EZIPEK_clean_linker_0, # of connection points: 2
#     Edge 47, Type (0, 0), BuildingBlock: EZIPEK_clean_linker_0, # of connection points: 2
#     Edge 48, Type (0, 0), BuildingBlock: EZIPEK_clean_linker_0, # of connection points: 2
#     Edge 49, Type (0, 0), BuildingBlock: EZIPEK_clean_linker_0, # of connection points: 2
#     Edge 50, Type (0, 0), BuildingBlock: EZIPEK_clean_linker_0, # of connection points: 2
#     Edge 51, Type (0, 0), BuildingBlock: EZIPEK_clean_linker_0, # of connection points: 2
#     Edge 52, Type (0, 0), BuildingBlock: EZIPEK_clean_linker_0, # of connection points: 2
#     Edge 53, Type (0, 0), BuildingBlock: EZIPEK_clean_linker_0, # of connection points: 2
#     Edge 54, Type (0, 0), BuildingBlock: EZIPEK_clean_linker_0, # of connection points: 2
#     Edge 55, Type (0, 0), BuildingBlock: EZIPEK_clean_linker_0, # of connection points: 2
#     Edge 56, Type (0, 0), BuildingBlock: EZIPEK_clean_linker_0, # of connection points: 2
#     Edge 57, Type (0, 0), BuildingBlock: EZIPEK_clean_linker_0, # of connection points: 2
#     Edge 58, Type (0, 0), BuildingBlock: EZIPEK_clean_linker_0, # of connection points: 2
#     Edge 59, Type (0, 0), BuildingBlock: EZIPEK_clean_linker_0, # of connection points: 2
#     Edge 60, Type (0, 0), BuildingBlock: EZIPEK_clean_linker_0, # of connection points: 2
#     Edge 61, Type (0, 0), BuildingBlock: EZIPEK_clean_linker_0, # of connection points: 2
#     Edge 62, Type (0, 0), BuildingBlock: EZIPEK_clean_linker_0, # of connection points: 2
#     Edge 63, Type (0, 0), BuildingBlock: EZIPEK_clean_linker_0, # of connection points: 2
#     Edge 64, Type (0, 0), BuildingBlock: EZIPEK_clean_linker_0, # of connection points: 2
#     Edge 65, Type (0, 0), BuildingBlock: EZIPEK_clean_linker_0, # of connection points: 2
#     Edge 66, Type (0, 0), BuildingBlock: EZIPEK_clean_linker_0, # of connection points: 2
#     Edge 67, Type (0, 0), BuildingBlock: EZIPEK_clean_linker_0, # of connection points: 2
#     Edge 68, Type (0, 0), BuildingBlock: EZIPEK_clean_linker_0, # of connection points: 2
#     Edge 69, Type (0, 0), BuildingBlock: EZIPEK_clean_linker_0, # of connection points: 2
#     Edge 70, Type (0, 0), BuildingBlock: EZIPEK_clean_linker_0, # of connection points: 2
#     Edge 71, Type (0, 0), BuildingBlock: EZIPEK_clean_linker_0, # of connection points: 2
# Relax obj value: 0.037
# Max RMSD: 0.053
# Mean RMSD: 0.053
data_MOF--net-gme--node1-QUQFOY_clean_sbu_1--edge1-EZIPEK_clean_linker_0
_symmetry_space_group_name_H-M    P1
_symmetry_Int_Tables_number       1
_symmetry_cell_setting            triclinic
loop_
_symmetry_equiv_pos_as_xyz
'x, y, z'
_cell_length_a     47.117054
_cell_length_b     47.154372
_cell_length_c     41.076863
_cell_angle_alpha  90.023673
_cell_angle_beta   90.017934
_cell_angle_gamma 119.89442
loop_
_atom_site_label
_atom_site_type_symbol
_atom_site_fract_x
_atom_site_fract_y
_atom_site_fract_z
_atom_type_partial_charge
O0 O 0.42133 0.09353 0.19358 0.0
Cd1 Cd 0.44251 0.11769 0.15073 0.0
Cd2 Cd 0.41809 0.05404 0.13131 0.0
O3 O 0.39456 0.04245 0.17596 0.0
O4 O 0.45295 0.16328 0.16019 0.0
O5 O 0.41849 0.13311 0.12129 0.0
C6 C 0.433 0.16029 0.13729 0.0
C7 C 0.39299 0.02894 0.08256 0.0
C8 C 0.40217 0.06326 0.19877 0.0
C9 C 0.49147 0.09793 0.13359 0.0
O10 O 0.4674 0.06898 0.13166 0.0
O11 O 0.48703 0.12199 0.13879 0.0
O12 O 0.3991 0.01337 0.10473 0.0
O13 O 0.39893 0.05824 0.08893 0.0
O14 O 0.33136 0.42251 0.69279 0.0
Cd15 Cd 0.33275 0.44283 0.64785 0.0
Cd16 Cd 0.36649 0.41278 0.63338 0.0
O17 O 0.34996 0.38976 0.67788 0.0
O18 O 0.29915 0.45655 0.65069 0.0
O19 O 0.29579 0.41922 0.6157 0.0
C20 C 0.28322 0.43569 0.62805 0.0
C21 C 0.3649 0.38668 0.58469 0.0
C22 C 0.33864 0.40063 0.69963 0.0
C23 C 0.40351 0.48606 0.63466 0.0
O24 O 0.40535 0.46009 0.6352 0.0
O25 O 0.37599 0.48479 0.63665 0.0
O26 O 0.38315 0.38777 0.60863 0.0
O27 O 0.34518 0.39791 0.58943 0.0
O28 O 0.92431 0.33237 0.1951 0.0
Cd29 Cd 0.90191 0.33155 0.15173 0.0
Cd30 Cd 0.96513 0.36537 0.13329 0.0
O31 O 0.97422 0.34913 0.1769 0.0
O32 O 0.85528 0.29861 0.16012 0.0
O33 O 0.88489 0.2923 0.12193 0.0
C34 C 0.85752 0.28102 0.13742 0.0
C35 C 0.98753 0.36344 0.0833 0.0
C36 C 0.95361 0.33907 0.20007 0.0
C37 C 0.92777 0.40157 0.13655 0.0
O38 O 0.95579 0.40381 0.13597 0.0
O39 O 0.90193 0.37396 0.13967 0.0
O40 O 0.00554 0.38237 0.10645 0.0
O41 O 0.957 0.34341 0.08945 0.0
O42 O 0.58801 0.91578 0.69333 0.0
Cd43 Cd 0.56775 0.89299 0.6495 0.0
Cd44 Cd 0.59536 0.95572 0.63237 0.0
O45 O 0.62082 0.96599 0.67576 0.0
O46 O 0.55535 0.84666 0.65775 0.0
O47 O 0.5918 0.87731 0.62049 0.0
C48 C 0.57592 0.84969 0.63552 0.0
C49 C 0.61845 0.97617 0.58182 0.0
C50 C 0.61003 0.9452 0.69875 0.0
C51 C 0.5221 0.91674 0.63454 0.0
O52 O 0.54731 0.94501 0.63578 0.0
O53 O 0.5247 0.89125 0.63615 0.0
O54 O 0.61597 0.99466 0.60344 0.0
O55 O 0.60986 0.9464 0.58962 0.0
O56 O 0.67602 0.58216 0.19033 0.0
Cd57 Cd 0.67652 0.56112 0.14626 0.0
Cd58 Cd 0.64596 0.5932 0.12929 0.0
O59 O 0.66295 0.61836 0.17262 0.0
O60 O 0.70812 0.54519 0.15318 0.0
O61 O 0.71647 0.58383 0.1175 0.0
C62 C 0.7267 0.56618 0.13175 0.0
C63 C 0.65355 0.61679 0.07822 0.0
C64 C 0.67134 0.60608 0.19566 0.0
C65 C 0.60611 0.52016 0.13101 0.0
O66 O 0.60549 0.54676 0.13236 0.0
O67 O 0.63317 0.52038 0.13233 0.0
O68 O 0.63296 0.61733 0.09856 0.0
O69 O 0.67181 0.60509 0.08778 0.0
O70 O 0.09782 0.67627 0.6933 0.0
Cd71 Cd 0.11963 0.67793 0.6492 0.0
Cd72 Cd 0.05632 0.64045 0.63229 0.0
O73 O 0.04701 0.65605 0.67603 0.0
O74 O 0.16566 0.71299 0.65597 0.0
O75 O 0.13301 0.71652 0.6193 0.0
C76 C 0.16112 0.72947 0.63366 0.0
C77 C 0.03006 0.63928 0.58367 0.0
C78 C 0.06811 0.6678 0.69873 0.0
C79 C 0.09801 0.60873 0.63419 0.0
O80 O 0.06913 0.60439 0.63464 0.0
O81 O 0.1227 0.63727 0.63634 0.0
O82 O 0.01434 0.62024 0.60764 0.0
O83 O 0.06049 0.66087 0.58811 0.0
O84 O 0.91335 0.58141 0.34299 0.0
Cd85 Cd 0.89194 0.56063 0.38703 0.0
Cd86 Cd 0.9547 0.59015 0.40384 0.0
O87 O 0.96318 0.61573 0.36057 0.0
O88 O 0.84492 0.5465 0.38039 0.0
O89 O 0.87609 0.58404 0.41664 0.0
C90 C 0.84809 0.56734 0.40237 0.0
C91 C 0.97333 0.61388 0.45473 0.0
C92 C 0.94231 0.60448 0.33761 0.0
C93 C 0.91823 0.51677 0.40106 0.0
O94 O 0.94611 0.5426 0.40024 0.0
O95 O 0.8922 0.5185 0.39981 0.0
O96 O 0.99306 0.61287 0.4336 0.0
O97 O 0.94331 0.60346 0.44621 0.0
O98 O 0.33182 0.91259 0.84033 0.0
Cd99 Cd 0.32881 0.88818 0.88318 0.0
Cd100 Cd 0.3646 0.95123 0.90263 0.0
O101 O 0.35016 0.96254 0.85934 0.0
O102 O 0.29483 0.84232 0.87304 0.0
O103 O 0.28906 0.87124 0.91233 0.0
C104 C 0.27731 0.84433 0.89596 0.0
C105 C 0.36441 0.97445 0.95254 0.0
C106 C 0.33992 0.94235 0.8358 0.0
C107 C 0.3979 0.91089 0.89882 0.0
O108 O 0.40115 0.93928 0.89924 0.0
O109 O 0.36986 0.88563 0.89574 0.0
O110 O 0.38509 0.99131 0.93009 0.0
O111 O 0.34214 0.94474 0.94599 0.0
O112 O 0.41715 0.33228 0.34121 0.0
Cd113 Cd 0.43811 0.33034 0.38472 0.0
Cd114 Cd 0.41101 0.36589 0.40218 0.0
O115 O 0.38594 0.35188 0.35853 0.0
O116 O 0.45109 0.29694 0.37553 0.0
O117 O 0.41483 0.29033 0.41339 0.0
C118 C 0.43077 0.27898 0.39769 0.0
C119 C 0.38764 0.35893 0.45339 0.0
C120 C 0.39576 0.34061 0.33575 0.0
C121 C 0.48422 0.40002 0.39941 0.0
O122 O 0.45908 0.40336 0.39931 0.0
O123 O 0.48129 0.3718 0.39742 0.0
O124 O 0.38934 0.38107 0.43374 0.0
O125 O 0.39705 0.33901 0.4431 0.0
O126 O 0.09102 0.41862 0.84076 0.0
Cd127 Cd 0.11143 0.43993 0.88503 0.0
Cd128 Cd 0.04735 0.4068 0.89853 0.0
O129 O 0.04089 0.38187 0.85499 0.0
O130 O 0.15921 0.45846 0.87663 0.0
O131 O 0.13207 0.41958 0.91293 0.0
C132 C 0.15909 0.43831 0.89782 0.0
C133 C 0.03363 0.38435 0.95025 0.0
C134 C 0.06304 0.39468 0.83336 0.0
C135 C 0.08037 0.47994 0.89829 0.0
O136 O 0.05332 0.45334 0.89556 0.0
O137 O 0.10731 0.47989 0.89833 0.0
O138 O 0.01145 0.38248 0.93048 0.0
O139 O 0.06328 0.39639 0.93963 0.0
O140 O 0.67399 0.09147 0.34047 0.0
Cd141 Cd 0.67733 0.11353 0.38484 0.0
Cd142 Cd 0.63993 0.05018 0.40095 0.0
O143 O 0.65484 0.04062 0.35692 0.0
O144 O 0.71194 0.15951 0.3767 0.0
O145 O 0.71734 0.12784 0.41309 0.0
C146 C 0.72951 0.15562 0.39826 0.0
C147 C 0.64049 0.02619 0.45018 0.0
C148 C 0.66565 0.06191 0.33438 0.0
C149 C 0.60855 0.0922 0.40045 0.0
O150 O 0.60414 0.06337 0.39899 0.0
O151 O 0.63715 0.11688 0.39891 0.0
O152 O 0.61989 0.0095 0.42753 0.0
O153 O 0.6626 0.05606 0.44401 0.0
O154 O 0.5908 0.67531 0.83947 0.0
Cd155 Cd 0.57209 0.67719 0.8844 0.0
Cd156 Cd 0.60113 0.64251 0.8992 0.0
O157 O 0.6259 0.66027 0.85578 0.0
O158 O 0.55792 0.71 0.87742 0.0
O159 O 0.59661 0.71732 0.91268 0.0
C160 C 0.57942 0.72822 0.89864 0.0
C161 C 0.62619 0.64224 0.94789 0.0
C162 C 0.61383 0.66949 0.8333 0.0
C163 C 0.52794 0.60747 0.8993 0.0
O164 O 0.55321 0.60456 0.8963 0.0
O165 O 0.53036 0.63552 0.89915 0.0
O166 O 0.62464 0.62409 0.92368 0.0
O167 O 0.61583 0.66271 0.94357 0.0
O168 O 0.59016 0.91412 0.84135 0.0
Cd169 Cd 0.56819 0.89016 0.88396 0.0
Cd170 Cd 0.594 0.95312 0.9035 0.0
O171 O 0.61669 0.9654 0.85843 0.0
O172 O 0.55788 0.84465 0.87465 0.0
O173 O 0.59115 0.87447 0.91448 0.0
C174 C 0.57715 0.84746 0.89817 0.0
C175 C 0.6211 0.9759 0.95255 0.0
C176 C 0.60908 0.94437 0.83582 0.0
C177 C 0.52021 0.91096 0.90032 0.0
O178 O 0.54497 0.93929 0.90369 0.0
O179 O 0.52361 0.88645 0.89413 0.0
O180 O 0.61325 0.99204 0.93268 0.0
O181 O 0.61558 0.94736 0.9434 0.0
O182 O 0.67975 0.58561 0.33914 0.0
Cd183 Cd 0.67901 0.56394 0.38293 0.0
Cd184 Cd 0.64458 0.59373 0.39941 0.0
O185 O 0.66016 0.61729 0.355 0.0
O186 O 0.71203 0.54989 0.37673 0.0
O187 O 0.7169 0.5857 0.41439 0.0
C188 C 0.72874 0.56955 0.3999 0.0
C189 C 0.64627 0.61918 0.44842 0.0
C190 C 0.67186 0.60716 0.3329 0.0
C191 C 0.60867 0.5201 0.39711 0.0
O192 O 0.60662 0.54594 0.39794 0.0
O193 O 0.63616 0.52157 0.39379 0.0
O194 O 0.62623 0.61635 0.42558 0.0
O195 O 0.66738 0.60993 0.44252 0.0
O196 O 0.08939 0.67206 0.8423 0.0
Cd197 Cd 0.11 0.67331 0.88712 0.0
Cd198 Cd 0.04705 0.64228 0.90112 0.0
O199 O 0.04006 0.66061 0.85806 0.0
O200 O 0.15738 0.70394 0.87897 0.0
O201 O 0.12829 0.71465 0.91407 0.0
C202 C 0.15573 0.72378 0.89938 0.0
C203 C 0.03141 0.6485 0.95296 0.0
C204 C 0.06136 0.66829 0.83575 0.0
C205 C 0.08066 0.60298 0.90027 0.0
O206 O 0.0536 0.60229 0.89618 0.0
O207 O 0.10719 0.63018 0.90229 0.0
O208 O 0.0101 0.62868 0.93227 0.0
O209 O 0.06128 0.66689 0.94334 0.0
O210 O 0.4189 0.09113 0.34041 0.0
Cd211 Cd 0.44029 0.11573 0.38296 0.0
Cd212 Cd 0.41364 0.05331 0.40373 0.0
O213 O 0.39074 0.04046 0.35868 0.0
O214 O 0.45093 0.16123 0.37304 0.0
O215 O 0.41708 0.13181 0.41264 0.0
C216 C 0.43148 0.15873 0.39625 0.0
C217 C 0.38639 0.03205 0.453 0.0
C218 C 0.39925 0.06091 0.33542 0.0
C219 C 0.48752 0.09463 0.40122 0.0
O220 O 0.46256 0.06643 0.40462 0.0
O221 O 0.48442 0.11924 0.3946 0.0
O222 O 0.39381 0.01511 0.43375 0.0
O223 O 0.39239 0.06051 0.44305 0.0
O224 O 0.33349 0.42377 0.8428 0.0
Cd225 Cd 0.33284 0.44569 0.88607 0.0
Cd226 Cd 0.36485 0.41423 0.90468 0.0
O227 O 0.35063 0.39055 0.86011 0.0
O228 O 0.30116 0.46091 0.87641 0.0
O229 O 0.29268 0.42467 0.9149 0.0
C230 C 0.28249 0.44133 0.89869 0.0
C231 C 0.35498 0.38794 0.95476 0.0
C232 C 0.34046 0.40143 0.83726 0.0
C233 C 0.40294 0.48787 0.90256 0.0
O234 O 0.40398 0.4615 0.90412 0.0
O235 O 0.37595 0.4873 0.89823 0.0
O236 O 0.37782 0.39017 0.93575 0.0
O237 O 0.3362 0.3987 0.94428 0.0
O238 O 0.92011 0.32668 0.3409 0.0
Cd239 Cd 0.89527 0.32495 0.38283 0.0
Cd240 Cd 0.95731 0.35977 0.40435 0.0
O241 O 0.97065 0.34912 0.35987 0.0
O242 O 0.8496 0.29061 0.37285 0.0
O243 O 0.87834 0.2863 0.41334 0.0
C244 C 0.85156 0.27393 0.39665 0.0
C245 C 0.97671 0.35348 0.45471 0.0
C246 C 0.95037 0.33688 0.33646 0.0
C247 C 0.9175 0.3938 0.3998 0.0
O248 O 0.94538 0.39638 0.40395 0.0
O249 O 0.89261 0.36632 0.39321 0.0
O250 O 0.99471 0.37734 0.43539 0.0
O251 O 0.94828 0.33152 0.44421 0.0
O252 O 0.0931 0.4039 0.67949 0.0
Cd253 Cd 0.11451 0.43296 0.63877 0.0
Cd254 Cd 0.05059 0.41507 0.63152 0.0
O255 O 0.04492 0.40005 0.67952 0.0
O256 O 0.16099 0.44583 0.64761 0.0
O257 O 0.13439 0.41707 0.60432 0.0
C258 C 0.16073 0.43051 0.62167 0.0
C259 C 0.02857 0.38391 0.58479 0.0
C260 C 0.06672 0.39657 0.69429 0.0
C261 C 0.09607 0.48605 0.63003 0.0
O262 O 0.06672 0.46358 0.62607 0.0
O263 O 0.11855 0.47921 0.63568 0.0
O264 O 0.01154 0.39233 0.60292 0.0
O265 O 0.05717 0.39057 0.59518 0.0
O266 O 0.67925 0.09548 0.19136 0.0
Cd267 Cd 0.68299 0.11957 0.14812 0.0
Cd268 Cd 0.64471 0.05645 0.12952 0.0
O269 O 0.65503 0.04414 0.17449 0.0
O270 O 0.71781 0.16512 0.15809 0.0
O271 O 0.72307 0.13515 0.11962 0.0
C272 C 0.73531 0.16224 0.13572 0.0
C273 C 0.64921 0.03377 0.08052 0.0
C274 C 0.66793 0.06524 0.1971 0.0
C275 C 0.61453 0.09982 0.13114 0.0
O276 O 0.61 0.07097 0.12956 0.0
O277 O 0.64304 0.12411 0.13536 0.0
O278 O 0.62506 0.01766 0.10019 0.0
O279 O 0.67217 0.06226 0.08979 0.0
O280 O 0.59111 0.67752 0.69014 0.0
Cd281 Cd 0.57 0.67841 0.64638 0.0
Cd282 Cd 0.59914 0.644 0.63009 0.0
O283 O 0.62428 0.66001 0.67351 0.0
O284 O 0.55617 0.71127 0.65503 0.0
O285 O 0.59264 0.71814 0.61728 0.0
C286 C 0.57644 0.72927 0.63286 0.0
C287 C 0.62269 0.64665 0.57975 0.0
C288 C 0.61346 0.67064 0.69597 0.0
C289 C 0.52581 0.60833 0.63277 0.0
O290 O 0.55154 0.60607 0.63381 0.0
O291 O 0.52752 0.63606 0.63397 0.0
O292 O 0.6207 0.62616 0.60166 0.0
O293 O 0.61328 0.66734 0.58712 0.0
O294 O 0.91406 0.58435 0.19341 0.0
Cd295 Cd 0.89425 0.56381 0.14875 0.0
Cd296 Cd 0.95867 0.5953 0.13426 0.0
O297 O 0.96474 0.61908 0.17824 0.0
O298 O 0.84668 0.54771 0.15513 0.0
O299 O 0.8767 0.58548 0.11873 0.0
C300 C 0.84885 0.56806 0.13305 0.0
C301 C 0.98218 0.6205 0.08496 0.0
C302 C 0.94276 0.60722 0.20012 0.0
C303 C 0.92367 0.52211 0.13559 0.0
O304 O 0.95112 0.54834 0.1374 0.0
O305 O 0.89709 0.52289 0.13596 0.0
O306 O 0.99985 0.62005 0.10873 0.0
O307 O 0.95128 0.60904 0.09009 0.0
O308 O 0.3312 0.916 0.69244 0.0
Cd309 Cd 0.33027 0.89349 0.6491 0.0
Cd310 Cd 0.36604 0.95652 0.63134 0.0
O311 O 0.35498 0.96765 0.67671 0.0
O312 O 0.29585 0.84742 0.65699 0.0
O313 O 0.29193 0.87803 0.61828 0.0
C314 C 0.27937 0.85055 0.63369 0.0
C315 C 0.35957 0.97769 0.58224 0.0
C316 C 0.34176 0.94599 0.69877 0.0
C317 C 0.39944 0.91604 0.63313 0.0
O318 O 0.40237 0.94421 0.63069 0.0
O319 O 0.37175 0.89101 0.63859 0.0
O320 O 0.38366 0.99496 0.60167 0.0
O321 O 0.3376 0.94896 0.59199 0.0
O322 O 0.4161 0.33233 0.19328 0.0
Cd323 Cd 0.43681 0.33044 0.14981 0.0
Cd324 Cd 0.40737 0.36468 0.13034 0.0
O325 O 0.38545 0.35247 0.17588 0.0
O326 O 0.45023 0.29731 0.1587 0.0
O327 O 0.41407 0.2907 0.12067 0.0
C328 C 0.43014 0.27946 0.13631 0.0
C329 C 0.37504 0.35739 0.08374 0.0
C330 C 0.39527 0.34136 0.19878 0.0
C331 C 0.48136 0.39969 0.13134 0.0
O332 O 0.45573 0.40207 0.12871 0.0
O333 O 0.47936 0.37233 0.13736 0.0
O334 O 0.38274 0.38093 0.10412 0.0
O335 O 0.3862 0.33792 0.09001 0.0
C336 C 0.4003 0.03208 0.28452 0.0
C337 C 0.38845 0.05037 0.30136 0.0
C338 C 0.37344 0.06485 0.24924 0.0
C339 C 0.39155 0.05263 0.23276 0.0
N340 N 0.42309 0.02501 0.23437 0.0
N341 N 0.36051 0.08133 0.30067 0.0
C342 C 0.40445 0.03553 0.25016 0.0
C343 C 0.37351 0.06545 0.2839 0.0
N344 N 0.4084 0.01211 0.30131 0.0
N345 N 0.35636 0.07592 0.23152 0.0
H346 H 0.35826 0.08012 0.32599 0.0
H347 H 0.35281 0.09629 0.28984 0.0
H348 H 0.35584 0.07534 0.20611 0.0
H349 H 0.34065 0.08303 0.24169 0.0
H350 H 0.41405 0.99574 0.29007 0.0
H351 H 0.40631 0.00931 0.32647 0.0
H352 H 0.43693 0.01657 0.24633 0.0
H353 H 0.42667 0.02669 0.20927 0.0
C354 C 0.36815 0.40269 0.75126 0.0
C355 C 0.33811 0.39157 0.73431 0.0
C356 C 0.30827 0.37769 0.7861 0.0
C357 C 0.33846 0.3903 0.80304 0.0
N358 N 0.39557 0.40556 0.80209 0.0
N359 N 0.27931 0.36134 0.73433 0.0
C360 C 0.3678 0.39933 0.7857 0.0
C361 C 0.30801 0.3766 0.75142 0.0
N362 N 0.39726 0.41901 0.73491 0.0
N363 N 0.28006 0.36775 0.80334 0.0
H364 H 0.27871 0.36011 0.70894 0.0
H365 H 0.25638 0.34769 0.74506 0.0
H366 H 0.27931 0.36606 0.8287 0.0
H367 H 0.25774 0.36209 0.79284 0.0
H368 H 0.4199 0.43168 0.74646 0.0
H369 H 0.39898 0.42214 0.70975 0.0
H370 H 0.41667 0.40882 0.79054 0.0
H371 H 0.39675 0.40436 0.82731 0.0
C372 C 0.94631 0.30686 0.25086 0.0
C373 C 0.96335 0.33705 0.23402 0.0
C374 C 0.98044 0.36674 0.28583 0.0
C375 C 0.96147 0.33673 0.30267 0.0
N376 N 0.93437 0.27802 0.30259 0.0
N377 N 0.00497 0.3941 0.23499 0.0
C378 C 0.94719 0.30665 0.28551 0.0
C379 C 0.98355 0.36638 0.25139 0.0
N380 N 0.92834 0.27864 0.23359 0.0
N381 N 0.99309 0.3958 0.30222 0.0
H382 H 0.00744 0.3951 0.20978 0.0
H383 H 0.02262 0.41528 0.24652 0.0
H384 H 0.99185 0.39748 0.32739 0.0
H385 H 1.00305 0.41844 0.29071 0.0
H386 H 0.91207 0.25625 0.24411 0.0
H387 H 0.92912 0.27797 0.20821 0.0
H388 H 0.9256 0.25516 0.29184 0.0
H389 H 0.93518 0.27754 0.32797 0.0
C390 C 0.63519 0.93971 0.75035 0.0
C391 C 0.62047 0.95502 0.73296 0.0
C392 C 0.60602 0.97134 0.78423 0.0
C393 C 0.61921 0.9545 0.80164 0.0
N394 N 0.65377 0.9305 0.80248 0.0
N395 N 0.60059 0.99334 0.73277 0.0
C396 C 0.63642 0.94139 0.78497 0.0
C397 C 0.6092 0.97384 0.74975 0.0
N398 N 0.64689 0.9226 0.73364 0.0
N399 N 0.58792 0.98241 0.80017 0.0
H400 H 0.60143 0.99503 0.70749 0.0
H401 H 0.5955 0.01019 0.74382 0.0
H402 H 0.58504 0.98146 0.82535 0.0
H403 H 0.57381 0.9906 0.78833 0.0
H404 H 0.6543 0.90748 0.74467 0.0
H405 H 0.64816 0.92277 0.70826 0.0
H406 H 0.66894 0.92282 0.79205 0.0
H407 H 0.65516 0.93187 0.82785 0.0
C408 C 0.64336 0.60694 0.28112 0.0
C409 C 0.67302 0.61713 0.29846 0.0
C410 C 0.70333 0.62921 0.24705 0.0
C411 C 0.67345 0.61739 0.22977 0.0
N412 N 0.61698 0.60443 0.2297 0.0
N413 N 0.73182 0.64592 0.299 0.0
C414 C 0.64421 0.60983 0.24662 0.0
C415 C 0.70328 0.63105 0.28165 0.0
N416 N 0.61401 0.5918 0.29716 0.0
N417 N 0.73148 0.63762 0.23027 0.0
H418 H 0.73216 0.64776 0.32435 0.0
H419 H 0.75491 0.65881 0.28844 0.0
H420 H 0.73252 0.63852 0.20488 0.0
H421 H 0.75341 0.64266 0.24126 0.0
H422 H 0.59146 0.57973 0.28538 0.0
H423 H 0.61189 0.58912 0.32234 0.0
H424 H 0.59614 0.60233 0.2408 0.0
H425 H 0.61609 0.60511 0.20442 0.0
C426 C 0.07345 0.69965 0.7493 0.0
C427 C 0.05813 0.66923 0.73269 0.0
C428 C 0.03307 0.64108 0.78393 0.0
C429 C 0.05364 0.67038 0.80111 0.0
N430 N 0.09145 0.72826 0.80102 0.0
N431 N 0.02425 0.61032 0.73413 0.0
C432 C 0.0729 0.70002 0.78395 0.0
C433 C 0.03745 0.63981 0.7498 0.0
N434 N 0.08836 0.72804 0.73176 0.0
N435 N 0.00999 0.6142 0.80029 0.0
H436 H 0.0268 0.60792 0.70926 0.0
H437 H 0.0127 0.5879 0.74614 0.0
H438 H 0.00656 0.61391 0.82535 0.0
H439 H 0.99209 0.59323 0.78869 0.0
H440 H 0.09796 0.75121 0.74202 0.0
H441 H 0.08859 0.72823 0.70634 0.0
H442 H 0.10921 0.75002 0.79055 0.0
H443 H 0.08958 0.72949 0.82625 0.0
C444 C 0.93434 0.62976 0.25203 0.0
C445 C 0.95106 0.61646 0.2348 0.0
C446 C 0.97316 0.60907 0.28626 0.0
C447 C 0.95136 0.61619 0.30354 0.0
N448 N 0.91328 0.63615 0.30389 0.0
N449 N 0.98559 0.59203 0.23516 0.0
C450 C 0.93291 0.62787 0.28666 0.0
C451 C 0.97098 0.60653 0.25172 0.0
N452 N 0.91992 0.64415 0.23504 0.0
N453 N 0.99536 0.60386 0.30273 0.0
H454 H 0.98499 0.58974 0.20992 0.0
H455 H 0.99646 0.5801 0.24652 0.0
H456 H 0.99715 0.60431 0.32798 0.0
H457 H 0.01418 0.60213 0.29132 0.0
H458 H 0.90933 0.65659 0.24587 0.0
H459 H 0.92101 0.64595 0.20969 0.0
H460 H 0.89613 0.64108 0.2933 0.0
H461 H 0.9136 0.6372 0.32928 0.0
C462 C 0.37005 0.97257 0.78564 0.0
C463 C 0.33978 0.95326 0.80192 0.0
C464 C 0.31085 0.9415 0.74961 0.0
C465 C 0.34133 0.95512 0.73325 0.0
N466 N 0.40041 0.98299 0.7353 0.0
N467 N 0.281 0.92121 0.8004 0.0
C468 C 0.37111 0.97132 0.75108 0.0
C469 C 0.30998 0.93869 0.78416 0.0
N470 N 0.39797 0.99133 0.80315 0.0
N471 N 0.28286 0.9312 0.73185 0.0
H472 H 0.2796 0.92058 0.82578 0.0
H473 H 0.25861 0.9066 0.78898 0.0
H474 H 0.28317 0.9334 0.70654 0.0
H475 H 0.2599 0.92319 0.74209 0.0
H476 H 0.42 0.00852 0.7926 0.0
H477 H 0.39863 0.99206 0.82847 0.0
H478 H 0.42258 0.99069 0.74723 0.0
H479 H 0.40259 0.98309 0.71007 0.0
C480 C 0.36957 0.31003 0.28468 0.0
C481 C 0.38546 0.34023 0.30158 0.0
C482 C 0.39404 0.36975 0.25003 0.0
C483 C 0.38427 0.34011 0.23293 0.0
N484 N 0.35949 0.28149 0.23295 0.0
N485 N 0.41359 0.39928 0.30088 0.0
C486 C 0.37055 0.30997 0.25003 0.0
C487 C 0.39709 0.37021 0.28452 0.0
N488 N 0.3537 0.28156 0.30201 0.0
N489 N 0.40124 0.39765 0.2334 0.0
H490 H 0.41609 0.40095 0.32611 0.0
H491 H 0.42672 0.42187 0.28939 0.0
H492 H 0.40036 0.39879 0.20816 0.0
H493 H 0.40509 0.41905 0.24472 0.0
H494 H 0.33957 0.2586 0.29152 0.0
H495 H 0.35254 0.28128 0.3274 0.0
H496 H 0.35284 0.259 0.24358 0.0
H497 H 0.35776 0.28061 0.20759 0.0
C498 C 0.03188 0.37416 0.74541 0.0
C499 C 0.06309 0.38749 0.72991 0.0
C500 C 0.08514 0.38446 0.78297 0.0
C501 C 0.05792 0.38284 0.79893 0.0
N502 N 1.00363 0.37617 0.79371 0.0
N503 N 0.12239 0.41215 0.73965 0.0
C504 C 0.03044 0.37724 0.77984 0.0
C505 C 0.09066 0.39402 0.74996 0.0
N506 N 1.0037 0.35767 0.72779 0.0
N507 N 0.10657 0.37852 0.7998 0.0
H508 H 0.12987 0.42596 0.7185 0.0
H509 H 0.14215 0.41807 0.7551 0.0
H510 H 0.10223 0.37065 0.82399 0.0
H511 H 0.12598 0.37766 0.78852 0.0
H512 H 0.98061 0.34602 0.73861 0.0
H513 H 1.00359 0.35159 0.70336 0.0
H514 H 0.98482 0.37566 0.77988 0.0
H515 H 1.001 0.37783 0.81866 0.0
C516 C 0.69721 0.06864 0.28321 0.0
C517 C 0.66689 0.05281 0.30002 0.0
C518 C 0.63713 0.03766 0.24817 0.0
C519 C 0.66742 0.05507 0.23137 0.0
N520 N 0.726 0.07946 0.23153 0.0
N521 N 0.60888 0.01415 0.2989 0.0
C522 C 0.69743 0.06796 0.24856 0.0
C523 C 0.63719 0.03427 0.28259 0.0
N524 N 0.72566 0.08519 0.30053 0.0
N525 N 0.60827 0.02683 0.23175 0.0
H526 H 0.60757 0.01172 0.32411 0.0
H527 H 0.58726 0.99747 0.2873 0.0
H528 H 0.60679 0.02857 0.20661 0.0
H529 H 0.58573 0.0181 0.24323 0.0
H530 H 0.74835 0.1007 0.29009 0.0
H531 H 0.72628 0.08407 0.32589 0.0
H532 H 0.74865 0.08701 0.2423 0.0
H533 H 0.72655 0.0788 0.20614 0.0
C534 C 0.63801 0.70159 0.7473 0.0
C535 C 0.62349 0.67144 0.73029 0.0
C536 C 0.61579 0.64206 0.78177 0.0
C537 C 0.62437 0.6714 0.79893 0.0
N538 N 0.64636 0.72967 0.79909 0.0
N539 N 0.59721 0.61245 0.73089 0.0
C540 C 0.63675 0.70147 0.78194 0.0
C541 C 0.61282 0.64157 0.74729 0.0
N542 N 0.65288 0.73019 0.73009 0.0
N543 N 0.60957 0.61443 0.79836 0.0
H544 H 0.59466 0.61071 0.70566 0.0
H545 H 0.58474 0.58979 0.74236 0.0
H546 H 0.61014 0.61322 0.82362 0.0
H547 H 0.60675 0.59342 0.78702 0.0
H548 H 0.66606 0.75322 0.7407 0.0
H549 H 0.65427 0.73064 0.70471 0.0
H550 H 0.65191 0.75189 0.78851 0.0
H551 H 0.64793 0.73052 0.82446 0.0
C552 C 0.40637 0.19212 0.15491 0.0
C553 C 0.42559 0.18692 0.13166 0.0
C554 C 0.44218 0.24013 0.10656 0.0
C555 C 0.42434 0.24598 0.13086 0.0
N556 N 0.38336 0.22557 0.1729 0.0
N557 N 0.45568 0.20162 0.08134 0.0
C558 C 0.40434 0.22118 0.1533 0.0
C559 C 0.44133 0.20948 0.10597 0.0
N560 N 0.39101 0.1697 0.17915 0.0
N561 N 0.46112 0.26451 0.08516 0.0
H562 H 0.45579 0.17956 0.08069 0.0
H563 H 0.46529 0.21561 0.06041 0.0
H564 H 0.4612 0.28667 0.08435 0.0
H565 H 0.47767 0.26349 0.06912 0.0
H566 H 0.37995 0.17363 0.19923 0.0
H567 H 0.39037 0.14726 0.17987 0.0
H568 H 0.36603 0.20753 0.18797 0.0
H569 H 0.38143 0.24667 0.17211 0.0
C570 C 0.21923 0.45758 0.60415 0.0
C571 C 0.19024 0.42858 0.61308 0.0
C572 C 0.22185 0.4013 0.62471 0.0
C573 C 0.25106 0.43089 0.61739 0.0
N574 N 0.27733 0.48379 0.59181 0.0
N575 N 0.16238 0.37062 0.62331 0.0
C576 C 0.2496 0.45795 0.6043 0.0
C577 C 0.19105 0.39958 0.62018 0.0
N578 N 0.21773 0.48505 0.59665 0.0
N579 N 0.2236 0.37572 0.63825 0.0
H580 H 0.1395 0.36881 0.62085 0.0
H581 H 0.16115 0.34805 0.62547 0.0
H582 H 0.24558 0.37586 0.6417 0.0
H583 H 0.20353 0.35507 0.64792 0.0
H584 H 0.23824 0.50813 0.59387 0.0
H585 H 0.19558 0.48488 0.59437 0.0
H586 H 0.27765 0.5032 0.57944 0.0
H587 H 0.29974 0.48432 0.59127 0.0
C588 C 0.80682 0.24214 0.10653 0.0
C589 C 0.82981 0.24769 0.13151 0.0
C590 C 0.79319 0.19375 0.15493 0.0
C591 C 0.76947 0.18881 0.13094 0.0
N592 N 0.75555 0.20395 0.07999 0.0
N593 N 0.8491 0.22677 0.17432 0.0
C594 C 0.77704 0.21156 0.10526 0.0
C595 C 0.82432 0.2227 0.15402 0.0
N596 N 0.81286 0.2667 0.08512 0.0
N597 N 0.7854 0.17118 0.17918 0.0
H598 H 0.87218 0.24777 0.17404 0.0
H599 H 0.84792 0.20856 0.18951 0.0
H600 H 0.76358 0.14879 0.17943 0.0
H601 H 0.7998 0.17494 0.19972 0.0
H602 H 0.79577 0.26588 0.06855 0.0
H603 H 0.83493 0.28885 0.08484 0.0
H604 H 0.76054 0.2181 0.05908 0.0
H605 H 0.7334 0.18195 0.07884 0.0
C606 C 0.56524 0.76952 0.60381 0.0
C607 C 0.58268 0.76297 0.62799 0.0
C608 C 0.60125 0.8166 0.65292 0.0
C609 C 0.58256 0.82257 0.62968 0.0
N610 N 0.55286 0.80904 0.57912 0.0
N611 N 0.62337 0.78224 0.67036 0.0
C612 C 0.5667 0.80045 0.60366 0.0
C613 C 0.60278 0.78729 0.65083 0.0
N614 N 0.54615 0.74557 0.58206 0.0
N615 N 0.61656 0.8385 0.67762 0.0
H616 H 0.62493 0.76094 0.66928 0.0
H617 H 0.64079 0.79994 0.68567 0.0
H618 H 0.61751 0.86107 0.67877 0.0
H619 H 0.6272 0.83397 0.69767 0.0
H620 H 0.52989 0.74714 0.56604 0.0
H621 H 0.54564 0.72321 0.58094 0.0
H622 H 0.5432 0.79537 0.55799 0.0
H623 H 0.55325 0.83135 0.57878 0.0
C624 C 0.78785 0.59807 0.13762 0.0
C625 C 0.75949 0.57039 0.12506 0.0
C626 C 0.79162 0.54403 0.1117 0.0
C627 C 0.81978 0.57119 0.12525 0.0
N628 N 0.8469 0.62692 0.14456 0.0
N629 N 0.73525 0.52088 0.09347 0.0
C630 C 0.81865 0.59931 0.13576 0.0
C631 C 0.76172 0.54457 0.10992 0.0
N632 N 0.78495 0.62211 0.15328 0.0
N633 N 0.79341 0.51741 0.1013 0.0
H634 H 0.7132 0.52097 0.09162 0.0
H635 H 0.73579 0.50279 0.07943 0.0
H636 H 0.81542 0.51718 0.10015 0.0
H637 H 0.77311 0.49517 0.09493 0.0
H638 H 0.8037 0.64083 0.16664 0.0
H639 H 0.76299 0.6224 0.15462 0.0
H640 H 0.84832 0.6493 0.14917 0.0
H641 H 0.86967 0.62831 0.14491 0.0
C642 C 0.24123 0.79926 0.60353 0.0
C643 C 0.246 0.82351 0.62673 0.0
C644 C 0.19108 0.7885 0.64883 0.0
C645 C 0.18711 0.76341 0.62707 0.0
N646 N 0.20379 0.74658 0.57897 0.0
N647 N 0.22368 0.84538 0.66548 0.0
C648 C 0.21068 0.76949 0.60264 0.0
C649 C 0.22015 0.81948 0.64734 0.0
N650 N 0.26649 0.80419 0.58355 0.0
N651 N 0.16762 0.78208 0.67181 0.0
H652 H 0.24484 0.86831 0.66474 0.0
H653 H 0.20497 0.84513 0.67914 0.0
H654 H 0.14532 0.76017 0.67241 0.0
H655 H 0.17053 0.79772 0.69099 0.0
H656 H 0.26617 0.78629 0.56849 0.0
H657 H 0.28859 0.8263 0.5829 0.0
H658 H 0.21871 0.75022 0.55891 0.0
H659 H 0.1816 0.72458 0.5781 0.0
C660 C 0.79199 0.54635 0.4248 0.0
C661 C 0.82008 0.57218 0.40987 0.0
C662 C 0.79003 0.60131 0.39919 0.0
C663 C 0.76073 0.57302 0.40901 0.0
N664 N 0.73311 0.51918 0.4327 0.0
N665 N 0.84681 0.62441 0.38269 0.0
C666 C 0.7616 0.54584 0.42268 0.0
C667 C 0.81962 0.60011 0.39768 0.0
N668 N 0.79466 0.52256 0.44119 0.0
N669 N 0.78938 0.62901 0.39068 0.0
H670 H 0.86908 0.62472 0.38178 0.0
H671 H 0.84703 0.64342 0.36963 0.0
H672 H 0.76796 0.63034 0.39048 0.0
H673 H 0.81029 0.65144 0.38631 0.0
H674 H 0.77593 0.50435 0.45497 0.0
H675 H 0.81682 0.5227 0.44326 0.0
H676 H 0.73114 0.49694 0.4392 0.0
H677 H 0.71087 0.51897 0.43345 0.0
C678 C 0.20555 0.76592 0.92927 0.0
C679 C 0.18375 0.75747 0.90254 0.0
C680 C 0.21967 0.81069 0.87719 0.0
C681 C 0.24364 0.81692 0.90126 0.0
N682 N 0.2604 0.80147 0.95035 0.0
N683 N 0.16899 0.77117 0.85109 0.0
C684 C 0.23666 0.79508 0.92772 0.0
C685 C 0.19036 0.77987 0.87666 0.0
N686 N 0.1965 0.7459 0.95588 0.0
N687 N 0.22489 0.83459 0.85518 0.0
H688 H 0.14637 0.74964 0.85078 0.0
H689 H 0.17413 0.78441 0.82953 0.0
H690 H 0.24608 0.85751 0.85518 0.0
H691 H 0.20729 0.83296 0.83879 0.0
H692 H 0.20984 0.75185 0.97745 0.0
H693 H 0.17413 0.72415 0.95727 0.0
H694 H 0.25845 0.78496 0.96822 0.0
H695 H 0.28302 0.823 0.95031 0.0
C696 C 0.40511 0.19071 0.37911 0.0
C697 C 0.42466 0.18571 0.40203 0.0
C698 C 0.4393 0.23792 0.42846 0.0
C699 C 0.42419 0.24514 0.40241 0.0
N700 N 0.39151 0.22884 0.35354 0.0
N701 N 0.45974 0.20311 0.44911 0.0
C702 C 0.40634 0.22143 0.37812 0.0
C703 C 0.44111 0.20864 0.42732 0.0
N704 N 0.38521 0.16583 0.35854 0.0
N705 N 0.45218 0.25928 0.45395 0.0
H706 H 0.46062 0.18143 0.44945 0.0
H707 H 0.47537 0.2203 0.46595 0.0
H708 H 0.4516 0.28109 0.455 0.0
H709 H 0.46116 0.25444 0.4751 0.0
H710 H 0.36817 0.16662 0.34301 0.0
H711 H 0.38378 0.14301 0.35894 0.0
H712 H 0.38157 0.2145 0.33286 0.0
H713 H 0.39021 0.25029 0.3532 0.0
C714 C 0.23999 0.44873 0.92885 0.0
C715 C 0.2487 0.43545 0.90221 0.0
C716 C 0.19693 0.42062 0.87489 0.0
C717 C 0.18824 0.4343 0.90124 0.0
N718 N 0.19789 0.45572 0.95584 0.0
N719 N 0.23279 0.40162 0.85423 0.0
C720 C 0.20856 0.44634 0.9292 0.0
C721 C 0.22626 0.41915 0.87658 0.0
N722 N 0.26237 0.4649 0.95292 0.0
N723 N 0.17746 0.40973 0.84783 0.0
H724 H 0.25399 0.39984 0.85497 0.0
H725 H 0.21608 0.38643 0.83679 0.0
H726 H 0.15481 0.40852 0.84645 0.0
H727 H 0.18439 0.40353 0.82611 0.0
H728 H 0.2592 0.47832 0.97124 0.0
H729 H 0.28515 0.46626 0.95366 0.0
H730 H 0.21001 0.4619 0.97813 0.0
H731 H 0.17548 0.45515 0.95637 0.0
C732 C 0.77157 0.2043 0.4292 0.0
C733 C 0.76378 0.18179 0.40325 0.0
C734 C 0.81852 0.21563 0.38009 0.0
C735 C 0.82413 0.24054 0.40276 0.0
N736 N 0.8075 0.25932 0.44961 0.0
N737 N 0.77934 0.1644 0.35459 0.0
C738 C 0.80135 0.23486 0.42799 0.0
C739 C 0.78734 0.18677 0.3791 0.0
N740 N 0.75027 0.19649 0.45464 0.0
N741 N 0.84324 0.21969 0.35972 0.0
H742 H 0.75742 0.14212 0.35422 0.0
H743 H 0.79365 0.16828 0.33397 0.0
H744 H 0.86638 0.24059 0.36015 0.0
H745 H 0.84192 0.20149 0.3444 0.0
H746 H 0.75542 0.21047 0.47571 0.0
H747 H 0.72817 0.17443 0.45575 0.0
H748 H 0.79051 0.25836 0.46638 0.0
H749 H 0.82953 0.28149 0.44987 0.0
C750 C 0.56984 0.76836 0.92977 0.0
C751 C 0.58582 0.76191 0.904 0.0
C752 C 0.60494 0.81668 0.88171 0.0
C753 C 0.58451 0.82089 0.90415 0.0
N754 N 0.54826 0.80227 0.95028 0.0
N755 N 0.61954 0.77939 0.85591 0.0
C756 C 0.56763 0.79742 0.92885 0.0
C757 C 0.6041 0.78616 0.88036 0.0
N758 N 0.55661 0.7465 0.95478 0.0
N759 N 0.6252 0.84206 0.86185 0.0
H760 H 0.62088 0.75797 0.85526 0.0
H761 H 0.62986 0.79418 0.83559 0.0
H762 H 0.62632 0.86473 0.86249 0.0
H763 H 0.64281 0.84181 0.84678 0.0
H764 H 0.54684 0.75071 0.97573 0.0
H765 H 0.55771 0.72496 0.95569 0.0
H766 H 0.53237 0.78468 0.96665 0.0
H767 H 0.54711 0.8238 0.95079 0.0
C768 C 0.34798 0.99505 1.00184 0.0
C769 C 0.37008 0.98719 0.9863 0.0
C770 C 0.40804 0.01007 0.03219 0.0
C771 C 0.38487 0.01543 0.0491 0.0
N772 N 0.33127 0.00985 0.05214 0.0
N773 N 0.41749 0.98034 0.98964 0.0
C774 C 0.35437 0.00712 0.03449 0.0
C775 C 0.39906 0.99273 1.00234 0.0
N776 N 0.3215 0.99188 0.98508 0.0
N777 N 0.43924 0.02281 0.04394 0.0
H778 H 0.41151 0.96687 0.96808 0.0
H779 H 0.43683 0.98053 1.00213 0.0
H780 H 0.44725 0.03637 0.06541 0.0
H781 H 0.45813 0.02281 0.03077 0.0
H782 H 0.30628 1.00035 0.99367 0.0
H783 H 0.31598 0.98265 0.96141 0.0
H784 H 0.30735 1.0011 0.04421 0.0
H785 H 0.33542 0.0189 0.07589 0.0
C786 C 0.34802 0.34977 0.49895 0.0
C787 C 0.3804 0.36039 0.48825 0.0
C788 C 0.40207 0.38946 0.53953 0.0
C789 C 0.3697 0.37665 0.55169 0.0
N790 N 0.31184 0.33907 0.54508 0.0
N791 N 0.43743 0.38254 0.50182 0.0
C792 C 0.34256 0.35517 0.53199 0.0
C793 C 0.40708 0.3774 0.50982 0.0
N794 N 0.32261 0.33489 0.47748 0.0
N795 N 0.42797 0.41512 0.55478 0.0
H796 H 0.44216 0.37398 0.48026 0.0
H797 H 0.457 0.39221 0.51812 0.0
H798 H 0.42548 0.42712 0.57494 0.0
H799 H 0.45148 0.42726 0.54494 0.0
H800 H 0.29893 0.32989 0.48273 0.0
H801 H 0.32574 0.3292 0.45367 0.0
H802 H 0.29159 0.32092 0.53276 0.0
H803 H 0.30714 0.3416 0.5694 0.0
C804 C 0.03518 0.40488 1.00647 0.0
C805 C 0.02594 0.37786 0.98542 0.0
C806 C 0.99559 0.34057 0.03035 0.0
C807 C 1.00088 0.36782 0.04967 0.0
N808 N 0.0184 0.4256 0.0517 0.0
N809 N 0.99519 0.31975 0.97609 0.0
C810 C 0.0189 0.39995 0.03667 0.0
C811 C 0.00542 0.34556 0.99699 0.0
N812 N 0.0592 0.43546 0.99761 0.0
N813 N 0.98234 0.31022 0.04409 0.0
H814 H 1.0034 0.32254 0.95208 0.0
H815 H 0.97729 0.29598 0.98202 0.0
H816 H 0.9758 0.30589 0.0686 0.0
H817 H 0.98067 0.29001 0.03205 0.0
H818 H 0.06889 0.45529 1.01358 0.0
H819 H 0.07176 0.44042 0.97561 0.0
H820 H 0.02845 0.44879 0.04131 0.0
H821 H 1.00449 0.423 0.07237 0.0
C822 C 0.66023 0.00915 0.49973 0.0
C823 C 0.63551 0.01278 0.48369 0.0
C824 C 0.59869 0.98757 0.53011 0.0
C825 C 0.62438 0.98696 0.54745 0.0
N826 N 0.68043 0.99948 0.55068 0.0
N827 N 0.58371 0.01174 0.48635 0.0
C828 C 0.65543 0.99833 0.53278 0.0
C829 C 0.60535 0.00358 0.49957 0.0
N830 N 0.68773 0.01503 0.48305 0.0
N831 N 0.56761 0.9722 0.54255 0.0
H832 H 0.58778 0.02427 0.46441 0.0
H833 H 0.56319 0.00904 0.49869 0.0
H834 H 0.56161 0.96022 0.56497 0.0
H835 H 0.54721 0.96863 0.52933 0.0
H836 H 0.70521 0.0098 0.49219 0.0
H837 H 0.69188 0.02292 0.4589 0.0
H838 H 0.70459 0.01071 0.5427 0.0
H839 H 0.67728 0.99087 0.57456 0.0
C840 C 0.63362 0.59808 0.02195 0.0
C841 C 0.65199 0.62441 0.04352 0.0
C842 C 0.65845 0.66318 1.00033 0.0
C843 C 0.63589 0.63662 0.98068 0.0
N844 N 0.5954 0.579 0.97729 0.0
N845 N 0.68007 0.68222 0.05466 0.0
C846 C 0.62184 0.60406 0.99254 0.0
C847 C 0.66389 0.65709 0.03314 0.0
N848 N 0.62695 0.56716 0.0296 0.0
N849 N 0.6755 0.69389 0.9874 0.0
H850 H 0.68587 0.67859 0.07826 0.0
H851 H 0.68609 0.70624 0.04972 0.0
H852 H 0.67288 0.69901 0.96326 0.0
H853 H 0.69441 0.71362 0.99963 0.0
H854 H 0.61629 0.54774 1.01319 0.0
H855 H 0.63505 0.56158 0.05097 0.0
H856 H 0.58232 0.55551 0.98702 0.0
H857 H 0.58385 0.58231 0.95721 0.0
C858 C 0.99567 0.6013 0.53906 0.0
C859 C 0.01423 0.6338 0.55109 0.0
C860 C 1.00492 0.65427 0.49941 0.0
C861 C 0.98389 0.6216 0.48915 0.0
N862 N 0.95208 0.5645 0.50338 0.0
N863 N 0.03087 0.69097 0.54506 0.0
C864 C 0.97676 0.59532 0.51046 0.0
C865 C 0.01733 0.66034 0.53192 0.0
N866 N 0.99797 0.5763 0.55332 0.0
N867 N 0.0132 0.6794 0.47808 0.0
H868 H 0.03904 0.69608 0.56908 0.0
H869 H 0.03107 0.71059 0.53321 0.0
H870 H 1.00321 0.67576 0.45474 0.0
H871 H 0.03126 0.70342 0.48289 0.0
H872 H 0.98723 0.55284 0.54342 0.0
H873 H 0.01391 0.57974 0.57245 0.0
H874 H 0.94413 0.54505 0.51966 0.0
H875 H 0.9372 0.55922 0.48291 0.0
C876 C 0.62391 0.97032 1.01411 0.0
C877 C 0.63457 0.98979 0.98538 0.0
C878 C 0.65809 0.03932 0.01905 0.0
C879 C 0.64911 0.01986 0.04779 0.0
N880 N 0.63498 0.96749 0.07115 0.0
N881 N 0.67272 0.04226 0.96224 0.0
C882 C 0.63592 0.98557 0.04479 0.0
C883 C 0.65538 0.02412 0.98846 0.0
N884 N 0.60057 0.93796 1.01295 0.0
N885 N 0.66678 0.07161 0.02012 0.0
H886 H 0.67259 0.03166 0.93988 0.0
H887 H 0.69016 0.06703 0.96398 0.0
H888 H 0.66696 0.08382 0.04126 0.0
H889 H 0.67031 0.08545 0.99916 0.0
H890 H 0.59012 0.92413 0.03387 0.0
H891 H 0.58888 0.92565 0.99174 0.0
H892 H 0.62792 0.94277 0.0695 0.0
H893 H 0.64508 0.97812 0.0936 0.0
C894 C 0.66539 0.65575 0.49809 0.0
C895 C 0.64106 0.62732 0.48197 0.0
C896 C 0.60384 0.61513 0.52816 0.0
C897 C 0.62908 0.64173 0.54553 0.0
N898 N 0.68472 0.68588 0.549 0.0
N899 N 0.58978 0.57625 0.48427 0.0
C900 C 0.66014 0.66175 0.53103 0.0
C901 C 0.61096 0.60604 0.49767 0.0
N902 N 0.69294 0.6774 0.48159 0.0
N903 N 0.57272 0.59892 0.5405 0.0
H904 H 0.59418 0.5681 0.46227 0.0
H905 H 0.56936 0.55821 0.49645 0.0
H906 H 0.56639 0.60466 0.56289 0.0
H907 H 0.55256 0.58182 0.52725 0.0
H908 H 0.71016 0.70018 0.49073 0.0
H909 H 0.69748 0.67352 0.45761 0.0
H910 H 0.70891 0.69918 0.54119 0.0
H911 H 0.68123 0.69129 0.5728 0.0
C912 C 0.01474 0.61618 0.03884 0.0
C913 C 0.99642 0.63013 0.05171 0.0
C914 C 1.00195 0.65785 0.99943 0.0
C915 C 0.02255 0.64605 0.98791 0.0
N916 N 0.05495 0.62058 0.99967 0.0
N917 N 0.97774 0.66913 0.04633 0.0
C918 C 0.03122 0.62762 1.00872 0.0
C919 C 0.99142 0.65237 0.03257 0.0
N920 N 0.0144 0.59017 0.05398 0.0
N921 N 0.99224 0.67399 0.97863 0.0
H922 H 0.97057 0.66635 0.07067 0.0
H923 H 0.97625 0.68789 0.03455 0.0
H924 H 1.00091 0.67982 0.9548 0.0
H925 H 0.97431 0.67993 0.98441 0.0
H926 H 0.02444 0.57694 0.04366 0.0
H927 H 1.0008 0.57913 0.07485 0.0
H928 H 0.06447 0.61011 1.01546 0.0
H929 H 0.06741 0.62796 0.9776 0.0
C930 C 0.34972 0.97041 0.52085 0.0
C931 C 0.35885 0.99056 0.54916 0.0
C932 C 0.38353 0.03927 0.51436 0.0
C933 C 0.37288 0.01909 0.48607 0.0
N934 N 0.33448 0.96609 0.46408 0.0
N935 N 0.3724 0.04333 0.57112 0.0
C936 C 0.35208 0.98487 0.48991 0.0
C937 C 0.37165 0.02472 0.5453 0.0
N938 N 0.34128 0.93821 0.52258 0.0
N939 N 0.40674 0.07163 0.5126 0.0
H940 H 0.36232 0.03315 0.59369 0.0
H941 H 0.37925 0.06795 0.56882 0.0
H942 H 0.41835 0.08352 0.49123 0.0
H943 H 0.41716 0.08595 0.53328 0.0
H944 H 0.33767 0.92398 0.50188 0.0
H945 H 0.34138 0.92644 0.54391 0.0
H946 H 0.31707 0.94137 0.46638 0.0
H947 H 0.33438 0.97616 0.44149 0.0
C948 C 0.34822 0.37986 0.04721 0.0
C949 C 0.35784 0.35614 0.05233 0.0
C950 C 0.35162 0.34485 0.99341 0.0
C951 C 0.3518 0.37478 0.98834 0.0
N952 N 0.35322 0.42272 1.0118 0.0
N953 N 0.35864 0.30888 0.03071 0.0
C954 C 0.35031 0.39259 1.01556 0.0
C955 C 0.35633 0.33624 0.02554 0.0
N956 N 0.33608 0.38946 0.07241 0.0
N957 N 0.34555 0.32415 0.96771 0.0
H958 H 0.35438 0.29764 0.05341 0.0
H959 H 0.36346 0.29661 1.01238 0.0
H960 H 0.34055 0.32919 0.94434 0.0
H961 H 0.3425 0.30081 0.96983 0.0
H962 H 0.32661 0.4051 0.06935 0.0
H963 H 0.33121 0.37804 0.09512 0.0
H964 H 0.35545 0.43763 0.03153 0.0
H965 H 0.3569 0.43441 0.98943 0.0
C966 C 0.03663 0.37857 0.52404 0.0
C967 C 0.01595 0.36916 0.55198 0.0
C968 C 0.96786 0.345 0.51618 0.0
C969 C 0.98857 0.35303 0.48839 0.0
N970 N 0.04153 0.36512 0.46828 0.0
N971 N 0.96237 0.33213 0.57366 0.0
C972 C 0.02257 0.36554 0.49319 0.0
C973 C 0.98171 0.34851 0.5477 0.0
N974 N 0.06901 0.40183 0.52582 0.0
N975 N 0.93568 0.33647 0.51327 0.0
H976 H 0.97199 0.33289 0.59674 0.0
H977 H 0.93761 0.31483 0.57125 0.0
H978 H 0.92425 0.33533 0.49129 0.0
H979 H 0.92105 0.33381 0.53338 0.0
H980 H 0.08366 0.41122 0.50518 0.0
H981 H 0.08059 0.41464 0.54684 0.0
H982 H 0.06604 0.37173 0.4714 0.0
H983 H 0.03167 0.35437 0.4458 0.0
C984 C 0.53681 0.09785 0.10192 0.0
C985 C 0.52508 0.10308 0.13182 0.0
C986 C 0.57557 0.11333 0.15933 0.0
C987 C 0.58564 0.10443 0.1303 0.0
N988 N 0.5762 0.08741 0.07412 0.0
N989 N 0.53119 0.11284 0.18971 0.0
C990 C 0.56638 0.09658 0.10157 0.0
C991 C 0.54411 0.11054 0.16064 0.0
N992 N 0.51997 0.09489 0.07381 0.0
N993 N 0.59583 0.12392 0.18586 0.0
H994 H 0.50835 0.11119 0.19177 0.0
H995 H 0.54188 0.11404 0.21222 0.0
H996 H 0.61803 0.12415 0.18695 0.0
H997 H 0.59176 0.13458 0.2062 0.0
H998 H 0.52849 0.09398 0.05069 0.0
H999 H 0.49837 0.09594 0.07336 0.0
H1000 H 0.56155 0.07749 0.0536 0.0
H1001 H 0.59876 0.08839 0.0723 0.0
C1002 C 0.48278 0.56002 0.6628 0.0
C1003 C 0.49355 0.5781 0.6334 0.0
C1004 C 0.44337 0.53765 0.60572 0.0
C1005 C 0.43399 0.51818 0.63434 0.0
N1006 N 0.44511 0.50906 0.68955 0.0
N1007 N 0.48654 0.58349 0.57611 0.0
C1008 C 0.45384 0.52887 0.66273 0.0
C1009 C 0.4744 0.56688 0.60466 0.0
N1010 N 0.49972 0.57324 0.69105 0.0
N1011 N 0.42257 0.52818 0.57965 0.0
H1012 H 0.5089 0.60525 0.57464 0.0
H1013 H 0.47567 0.57482 0.5535 0.0
H1014 H 0.40037 0.5062 0.57902 0.0
H1015 H 0.42619 0.54288 0.55941 0.0
H1016 H 0.49142 0.5631 0.71397 0.0
H1017 H 0.52112 0.59596 0.69204 0.0
H1018 H 0.46044 0.51338 0.70943 0.0
H1019 H 0.42301 0.48709 0.69138 0.0
C1020 C 0.91497 0.44135 0.16383 0.0
C1021 C 0.9254 0.43171 0.13561 0.0
C1022 C 0.93497 0.48155 0.10727 0.0
C1023 C 0.92283 0.49029 0.13488 0.0
N1024 N 0.89779 0.47722 0.18814 0.0
N1025 N 0.94111 0.43959 0.0791 0.0
C1026 C 0.91154 0.46965 0.16267 0.0
C1027 C 0.93436 0.45104 0.10694 0.0
N1028 N 0.91018 0.42452 0.19234 0.0
N1029 N 0.94725 0.50257 0.08144 0.0
H1030 H 0.94088 0.41737 0.07802 0.0
H1031 H 0.94457 0.45071 0.05645 0.0
H1032 H 0.94594 0.52396 0.07977 0.0
H1033 H 0.9602 0.49978 0.06237 0.0
H1034 H 0.90636 0.43242 0.21472 0.0
H1035 H 0.91267 0.40382 0.19435 0.0
H1036 H 0.8853 0.46117 0.20711 0.0
H1037 H 0.89699 0.49889 0.18953 0.0
C1038 C 0.44889 0.92314 0.66258 0.0
C1039 C 0.42935 0.91332 0.63398 0.0
C1040 C 0.47031 0.90478 0.60565 0.0
C1041 C 0.48937 0.91375 0.63454 0.0
N1042 N 0.49463 0.92546 0.69206 0.0
N1043 N 0.41819 0.89007 0.58011 0.0
C1044 C 0.47802 0.92122 0.66348 0.0
C1045 C 0.43901 0.90253 0.60607 0.0
N1046 N 0.43983 0.93484 0.68872 0.0
N1047 N 0.48277 0.89976 0.57757 0.0
H1048 H 0.39554 0.88901 0.57936 0.0
H1049 H 0.42219 0.87873 0.56031 0.0
H1050 H 0.50536 0.90071 0.57659 0.0
H1051 H 0.47188 0.89673 0.55483 0.0
H1052 H 0.45496 0.94631 0.70862 0.0
H1053 H 0.41769 0.9348 0.68988 0.0
H1054 H 0.48588 0.92748 0.7147 0.0
H1055 H 0.51612 0.92428 0.69365 0.0
C1056 C 0.56501 0.4682 0.15834 0.0
C1057 C 0.57483 0.48859 0.13035 0.0
C1058 C 0.52489 0.44871 0.10172 0.0
C1059 C 0.51393 0.42974 0.13055 0.0
N1060 N 0.52054 0.424 0.18803 0.0
N1061 N 0.56278 0.50061 0.07671 0.0
C1062 C 0.53329 0.44001 0.15928 0.0
C1063 C 0.55432 0.47955 0.10242 0.0
N1064 N 0.58583 0.47595 0.18427 0.0
N1065 N 0.50775 0.43666 0.0734 0.0
H1066 H 0.58472 0.52273 0.07577 0.0
H1067 H 0.54721 0.49729 0.05729 0.0
H1068 H 0.48619 0.41411 0.07202 0.0
H1069 H 0.51615 0.44756 0.05076 0.0
H1070 H 0.58189 0.45996 0.20344 0.0
H1071 H 0.6082 0.49764 0.18589 0.0
H1072 H 0.53179 0.43251 0.21053 0.0
H1073 H 0.4972 0.40359 0.19005 0.0
C1074 C 0.09727 0.53302 0.60078 0.0
C1075 C 0.10315 0.52038 0.62971 0.0
C1076 C 0.11296 0.56957 0.65955 0.0
C1077 C 0.10264 0.57995 0.63175 0.0
N1078 N 0.08421 0.57186 0.57599 0.0
N1079 N 0.11418 0.52486 0.68742 0.0
C1080 C 0.09474 0.56183 0.6023 0.0
C1081 C 0.11094 0.53843 0.65922 0.0
N1082 N 0.09479 0.5177 0.57177 0.0
N1083 N 0.12418 0.58922 0.68647 0.0
H1084 H 0.11322 0.5023 0.68829 0.0
H1085 H 0.11562 0.53479 0.71041 0.0
H1086 H 0.12424 0.61128 0.68849 0.0
H1087 H 0.1356 0.58487 0.70598 0.0
H1088 H 0.0935 0.52712 0.54926 0.0
H1089 H 0.09697 0.49679 0.56996 0.0
H1090 H 0.07421 0.55775 0.55517 0.0
H1091 H 0.08391 0.59383 0.57556 0.0
C1092 C 0.90517 0.46431 0.37316 0.0
C1093 C 0.91613 0.48433 0.40143 0.0
C1094 C 0.92258 0.44219 0.43007 0.0
C1095 C 0.91475 0.42373 0.40089 0.0
N1096 N 0.90337 0.41913 0.34323 0.0
N1097 N 0.93869 0.49435 0.45569 0.0
C1098 C 0.90697 0.43509 0.37209 0.0
C1099 C 0.92586 0.47385 0.42958 0.0
N1100 N 0.89343 0.4734 0.3471 0.0
N1101 N 0.92581 0.42894 0.45848 0.0
H1102 H 0.94026 0.51714 0.45669 0.0
H1103 H 0.9498 0.48984 0.47537 0.0
H1104 H 0.92319 0.40565 0.45975 0.0
H1105 H 0.92816 0.43963 0.48123 0.0
H1106 H 0.88126 0.45795 0.3276 0.0
H1107 H 0.89396 0.49574 0.34571 0.0
H1108 H 0.90164 0.42832 0.32074 0.0
H1109 H 0.90482 0.39784 0.34119 0.0
C1110 C 0.47808 0.91854 0.87099 0.0
C1111 C 0.48733 0.90764 0.89916 0.0
C1112 C 0.43704 0.89741 0.927 0.0
C1113 C 0.42755 0.9077 0.89859 0.0
N1114 N 0.43517 0.92196 0.84166 0.0
N1115 N 0.47416 0.88189 0.95186 0.0
C1116 C 0.44698 0.9165 0.87001 0.0
C1117 C 0.46624 0.89542 0.9265 0.0
N1118 N 0.49934 0.93139 0.84537 0.0
N1119 N 0.41885 0.89092 0.95478 0.0
H1120 H 0.49581 0.88095 0.95256 0.0
H1121 H 0.45843 0.86957 0.9711 0.0
H1122 H 0.39709 0.89166 0.95577 0.0
H1123 H 0.42616 0.88681 0.97735 0.0
H1124 H 0.49601 0.94365 0.82598 0.0
H1125 H 0.52148 0.93143 0.84418 0.0
H1126 H 0.44644 0.92506 0.81913 0.0
H1127 H 0.41248 0.92075 0.84004 0.0
C1128 C 0.52827 0.44984 0.42776 0.0
C1129 C 0.51722 0.42954 0.39969 0.0
C1130 C 0.56666 0.46855 0.36998 0.0
C1131 C 0.57831 0.48797 0.39853 0.0
N1132 N 0.57367 0.49489 0.45598 0.0
N1133 N 0.52711 0.41716 0.34519 0.0
C1134 C 0.56006 0.47798 0.42785 0.0
C1135 C 0.53695 0.43805 0.37123 0.0
N1136 N 0.50818 0.44242 0.45419 0.0
N1137 N 0.58306 0.48018 0.3412 0.0
H1138 H 0.5044 0.39583 0.34389 0.0
H1139 H 0.54218 0.41989 0.32551 0.0
H1140 H 0.60499 0.5023 0.33926 0.0
H1141 H 0.57389 0.46925 0.31871 0.0
H1142 H 0.51302 0.45813 0.47385 0.0
H1143 H 0.48546 0.42119 0.45566 0.0
H1144 H 0.56316 0.48719 0.47887 0.0
H1145 H 0.59707 0.5154 0.45688 0.0
C1146 C 0.09513 0.53393 0.87308 0.0
C1147 C 0.08064 0.51152 0.89918 0.0
C1148 C 0.06461 0.54831 0.92527 0.0
C1149 C 0.08132 0.57184 0.90045 0.0
N1150 N 0.11461 0.58847 0.8518 0.0
N1151 N 0.05483 0.49831 0.9519 0.0
C1152 C 0.09744 0.56515 0.87482 0.0
C1153 C 0.06611 0.5189 0.92571 0.0
N1154 N 0.10486 0.52456 0.84567 0.0
N1155 N 0.04704 0.55395 0.94831 0.0
H1156 H 0.05483 0.47625 0.95271 0.0
H1157 H 0.04759 0.50395 0.97375 0.0
H1158 H 0.04684 0.57587 0.95005 0.0
H1159 H 0.03106 0.53628 0.96457 0.0
H1160 H 0.11208 0.53813 0.82425 0.0
H1161 H 0.10305 0.50172 0.84311 0.0
H1162 H 0.13058 0.58692 0.83534 0.0
H1163 H 0.11438 0.61039 0.84999 0.0
C1164 C 0.56969 0.10635 0.37337 0.0
C1165 C 0.57973 0.09681 0.40192 0.0
C1166 C 0.53228 0.09197 0.43154 0.0
C1167 C 0.52043 0.09795 0.40209 0.0
N1168 N 0.52537 0.10692 0.34399 0.0
N1169 N 0.5709 0.07948 0.45796 0.0
C1170 C 0.53866 0.10453 0.37279 0.0
C1171 C 0.56113 0.08938 0.43101 0.0
N1172 N 0.58968 0.11687 0.34666 0.0
N1173 N 0.51636 0.08968 0.46011 0.0
H1174 H 0.59306 0.07955 0.45908 0.0
H1175 H 0.55655 0.06982 0.47868 0.0
H1176 H 0.49529 0.09166 0.46124 0.0
H1177 H 0.52524 0.08842 0.48293 0.0
H1178 H 0.58561 0.12785 0.32659 0.0
H1179 H 0.61178 0.11688 0.34536 0.0
H1180 H 0.53554 0.10763 0.3213 0.0
H1181 H 0.50267 0.10561 0.34231 0.0
C1182 C 0.474 0.56893 0.87366 0.0
C1183 C 0.49522 0.57778 0.90098 0.0
C1184 C 0.45398 0.52973 0.93087 0.0
C1185 C 0.43399 0.51952 0.90261 0.0
N1186 N 0.42685 0.5262 0.84546 0.0
N1187 N 0.50732 0.56587 0.95463 0.0
C1188 C 0.44434 0.5384 0.87362 0.0
C1189 C 0.48577 0.55791 0.92933 0.0
N1190 N 0.48228 0.58961 0.84758 0.0
N1191 N 0.44202 0.51309 0.95944 0.0
H1192 H 0.53001 0.58731 0.95518 0.0
H1193 H 0.50362 0.55047 0.97427 0.0
H1194 H 0.4188 0.49247 0.9614 0.0
H1195 H 0.45386 0.52102 0.98176 0.0
H1196 H 0.46609 0.58658 0.82888 0.0
H1197 H 0.50475 0.61112 0.84547 0.0
H1198 H 0.43511 0.53684 0.8227 0.0
H1199 H 0.40517 0.50378 0.84415 0.0
loop_
_geom_bond_atom_site_label_1
_geom_bond_atom_site_label_2
_geom_bond_distance
_geom_bond_site_symmetry_2
_ccdc_geom_bond_type
O0 Cd1 2.223 . S
O0 C8 1.315 . S
Cd1 O0 2.223 . S
Cd1 O4 2.297 . S
Cd1 O5 2.439 . S
Cd1 O11 2.240 . S
Cd2 O3 2.240 . S
Cd2 O10 2.223 . S
Cd2 O12 2.296 . S
Cd2 O13 2.439 . S
O3 Cd2 2.240 . S
O3 C8 1.279 . S
O4 Cd1 2.297 . S
O4 C6 1.247 . S
O5 Cd1 2.439 . S
O5 C6 1.208 . S
C6 O4 1.247 . S
C6 O5 1.208 . S
C7 O12 1.246 . S
C7 O13 1.208 . S
C8 O0 1.315 . S
C8 O3 1.279 . S
C9 O10 1.315 . S
C9 O11 1.279 . S
O10 Cd2 2.223 . S
O10 C9 1.315 . S
O11 Cd1 2.240 . S
O11 C9 1.279 . S
O12 Cd2 2.296 . S
O12 C7 1.246 . S
O13 Cd2 2.439 . S
O13 C7 1.208 . S
O14 Cd15 2.223 . S
O14 C22 1.315 . S
Cd15 O14 2.223 . S
Cd15 O18 2.297 . S
Cd15 O19 2.439 . S
Cd15 O25 2.240 . S
Cd16 O17 2.240 . S
Cd16 O24 2.223 . S
Cd16 O26 2.297 . S
Cd16 O27 2.439 . S
O17 Cd16 2.240 . S
O17 C22 1.279 . S
O18 Cd15 2.297 . S
O18 C20 1.247 . S
O19 Cd15 2.439 . S
O19 C20 1.208 . S
C20 O18 1.247 . S
C20 O19 1.208 . S
C21 O26 1.247 . S
C21 O27 1.208 . S
C22 O14 1.315 . S
C22 O17 1.279 . S
C23 O24 1.315 . S
C23 O25 1.279 . S
O24 Cd16 2.223 . S
O24 C23 1.315 . S
O25 Cd15 2.240 . S
O25 C23 1.279 . S
O26 Cd16 2.297 . S
O26 C21 1.247 . S
O27 Cd16 2.439 . S
O27 C21 1.208 . S
O28 Cd29 2.223 . S
O28 C36 1.315 . S
Cd29 O28 2.223 . S
Cd29 O32 2.297 . S
Cd29 O33 2.439 . S
Cd29 O39 2.240 . S
Cd30 O31 2.240 . S
Cd30 O38 2.223 . S
Cd30 O40 2.297 . S
Cd30 O41 2.439 . S
O31 Cd30 2.240 . S
O31 C36 1.279 . S
O32 Cd29 2.297 . S
O32 C34 1.247 . S
O33 Cd29 2.439 . S
O33 C34 1.208 . S
C34 O32 1.247 . S
C34 O33 1.208 . S
C35 O40 1.247 . S
C35 O41 1.208 . S
C36 O28 1.315 . S
C36 O31 1.279 . S
C37 O38 1.315 . S
C37 O39 1.279 . S
O38 Cd30 2.223 . S
O38 C37 1.315 . S
O39 Cd29 2.240 . S
O39 C37 1.279 . S
O40 Cd30 2.297 . S
O40 C35 1.247 . S
O41 Cd30 2.439 . S
O41 C35 1.208 . S
O42 Cd43 2.223 . S
O42 C50 1.315 . S
Cd43 O42 2.223 . S
Cd43 O46 2.297 . S
Cd43 O47 2.439 . S
Cd43 O53 2.240 . S
Cd44 O45 2.240 . S
Cd44 O52 2.223 . S
Cd44 O54 2.296 . S
Cd44 O55 2.439 . S
O45 Cd44 2.240 . S
O45 C50 1.279 . S
O46 Cd43 2.297 . S
O46 C48 1.247 . S
O47 Cd43 2.439 . S
O47 C48 1.208 . S
C48 O46 1.247 . S
C48 O47 1.208 . S
C49 O54 1.246 . S
C49 O55 1.208 . S
C50 O42 1.315 . S
C50 O45 1.279 . S
C51 O52 1.315 . S
C51 O53 1.279 . S
O52 Cd44 2.223 . S
O52 C51 1.315 . S
O53 Cd43 2.240 . S
O53 C51 1.279 . S
O54 Cd44 2.296 . S
O54 C49 1.246 . S
O55 Cd44 2.439 . S
O55 C49 1.208 . S
O56 Cd57 2.223 . S
O56 C64 1.315 . S
Cd57 O56 2.223 . S
Cd57 O60 2.297 . S
Cd57 O61 2.439 . S
Cd57 O67 2.240 . S
Cd58 O59 2.240 . S
Cd58 O66 2.223 . S
Cd58 O68 2.297 . S
Cd58 O69 2.439 . S
O59 Cd58 2.240 . S
O59 C64 1.279 . S
O60 Cd57 2.297 . S
O60 C62 1.247 . S
O61 Cd57 2.439 . S
O61 C62 1.208 . S
C62 O60 1.247 . S
C62 O61 1.208 . S
C63 O68 1.247 . S
C63 O69 1.208 . S
C64 O56 1.315 . S
C64 O59 1.279 . S
C65 O66 1.315 . S
C65 O67 1.279 . S
O66 Cd58 2.223 . S
O66 C65 1.315 . S
O67 Cd57 2.240 . S
O67 C65 1.279 . S
O68 Cd58 2.297 . S
O68 C63 1.247 . S
O69 Cd58 2.439 . S
O69 C63 1.208 . S
O70 Cd71 2.223 . S
O70 C78 1.315 . S
Cd71 O70 2.223 . S
Cd71 O74 2.297 . S
Cd71 O75 2.439 . S
Cd71 O81 2.240 . S
Cd72 O73 2.240 . S
Cd72 O80 2.223 . S
Cd72 O82 2.297 . S
Cd72 O83 2.439 . S
O73 Cd72 2.240 . S
O73 C78 1.279 . S
O74 Cd71 2.297 . S
O74 C76 1.247 . S
O75 Cd71 2.439 . S
O75 C76 1.208 . S
C76 O74 1.247 . S
C76 O75 1.208 . S
C77 O82 1.247 . S
C77 O83 1.208 . S
C78 O70 1.315 . S
C78 O73 1.279 . S
C79 O80 1.315 . S
C79 O81 1.279 . S
O80 Cd72 2.223 . S
O80 C79 1.315 . S
O81 Cd71 2.240 . S
O81 C79 1.279 . S
O82 Cd72 2.297 . S
O82 C77 1.247 . S
O83 Cd72 2.439 . S
O83 C77 1.208 . S
O84 Cd85 2.223 . S
O84 C92 1.315 . S
Cd85 O84 2.223 . S
Cd85 O88 2.297 . S
Cd85 O89 2.439 . S
Cd85 O95 2.240 . S
Cd86 O87 2.240 . S
Cd86 O94 2.223 . S
Cd86 O96 2.296 . S
Cd86 O97 2.439 . S
O87 Cd86 2.240 . S
O87 C92 1.279 . S
O88 Cd85 2.297 . S
O88 C90 1.247 . S
O89 Cd85 2.439 . S
O89 C90 1.208 . S
C90 O88 1.247 . S
C90 O89 1.208 . S
C91 O96 1.246 . S
C91 O97 1.208 . S
C92 O84 1.315 . S
C92 O87 1.279 . S
C93 O94 1.315 . S
C93 O95 1.279 . S
O94 Cd86 2.223 . S
O94 C93 1.315 . S
O95 Cd85 2.240 . S
O95 C93 1.279 . S
O96 Cd86 2.296 . S
O96 C91 1.246 . S
O97 Cd86 2.439 . S
O97 C91 1.208 . S
O98 Cd99 2.223 . S
O98 C106 1.315 . S
Cd99 O98 2.223 . S
Cd99 O102 2.297 . S
Cd99 O103 2.439 . S
Cd99 O109 2.240 . S
Cd100 O101 2.240 . S
Cd100 O108 2.223 . S
Cd100 O110 2.297 . S
Cd100 O111 2.439 . S
O101 Cd100 2.240 . S
O101 C106 1.279 . S
O102 Cd99 2.297 . S
O102 C104 1.247 . S
O103 Cd99 2.439 . S
O103 C104 1.208 . S
C104 O102 1.247 . S
C104 O103 1.208 . S
C105 O110 1.247 . S
C105 O111 1.208 . S
C106 O98 1.315 . S
C106 O101 1.279 . S
C107 O108 1.315 . S
C107 O109 1.279 . S
O108 Cd100 2.223 . S
O108 C107 1.315 . S
O109 Cd99 2.240 . S
O109 C107 1.279 . S
O110 Cd100 2.297 . S
O110 C105 1.247 . S
O111 Cd100 2.439 . S
O111 C105 1.208 . S
O112 Cd113 2.223 . S
O112 C120 1.315 . S
Cd113 O112 2.223 . S
Cd113 O116 2.297 . S
Cd113 O117 2.439 . S
Cd113 O123 2.240 . S
Cd114 O115 2.240 . S
Cd114 O122 2.223 . S
Cd114 O124 2.297 . S
Cd114 O125 2.439 . S
O115 Cd114 2.240 . S
O115 C120 1.279 . S
O116 Cd113 2.297 . S
O116 C118 1.247 . S
O117 Cd113 2.439 . S
O117 C118 1.208 . S
C118 O116 1.247 . S
C118 O117 1.208 . S
C119 O124 1.247 . S
C119 O125 1.208 . S
C120 O112 1.315 . S
C120 O115 1.279 . S
C121 O122 1.315 . S
C121 O123 1.279 . S
O122 Cd114 2.223 . S
O122 C121 1.315 . S
O123 Cd113 2.240 . S
O123 C121 1.279 . S
O124 Cd114 2.297 . S
O124 C119 1.247 . S
O125 Cd114 2.439 . S
O125 C119 1.208 . S
O126 Cd127 2.223 . S
O126 C134 1.315 . S
Cd127 O126 2.223 . S
Cd127 O130 2.297 . S
Cd127 O131 2.439 . S
Cd127 O137 2.240 . S
Cd128 O129 2.240 . S
Cd128 O136 2.223 . S
Cd128 O138 2.296 . S
Cd128 O139 2.439 . S
O129 Cd128 2.240 . S
O129 C134 1.279 . S
O130 Cd127 2.297 . S
O130 C132 1.247 . S
O131 Cd127 2.439 . S
O131 C132 1.208 . S
C132 O130 1.247 . S
C132 O131 1.208 . S
C133 O138 1.246 . S
C133 O139 1.208 . S
C134 O126 1.315 . S
C134 O129 1.279 . S
C135 O136 1.315 . S
C135 O137 1.279 . S
O136 Cd128 2.223 . S
O136 C135 1.315 . S
O137 Cd127 2.240 . S
O137 C135 1.279 . S
O138 Cd128 2.296 . S
O138 C133 1.246 . S
O139 Cd128 2.439 . S
O139 C133 1.208 . S
O140 Cd141 2.223 . S
O140 C148 1.315 . S
Cd141 O140 2.223 . S
Cd141 O144 2.297 . S
Cd141 O145 2.439 . S
Cd141 O151 2.240 . S
Cd142 O143 2.240 . S
Cd142 O150 2.223 . S
Cd142 O152 2.297 . S
Cd142 O153 2.439 . S
O143 Cd142 2.240 . S
O143 C148 1.279 . S
O144 Cd141 2.297 . S
O144 C146 1.247 . S
O145 Cd141 2.439 . S
O145 C146 1.208 . S
C146 O144 1.247 . S
C146 O145 1.208 . S
C147 O152 1.247 . S
C147 O153 1.208 . S
C148 O140 1.315 . S
C148 O143 1.279 . S
C149 O150 1.315 . S
C149 O151 1.279 . S
O150 Cd142 2.223 . S
O150 C149 1.315 . S
O151 Cd141 2.240 . S
O151 C149 1.279 . S
O152 Cd142 2.297 . S
O152 C147 1.247 . S
O153 Cd142 2.439 . S
O153 C147 1.208 . S
O154 Cd155 2.223 . S
O154 C162 1.315 . S
Cd155 O154 2.223 . S
Cd155 O158 2.297 . S
Cd155 O159 2.439 . S
Cd155 O165 2.240 . S
Cd156 O157 2.240 . S
Cd156 O164 2.223 . S
Cd156 O166 2.297 . S
Cd156 O167 2.439 . S
O157 Cd156 2.240 . S
O157 C162 1.279 . S
O158 Cd155 2.297 . S
O158 C160 1.247 . S
O159 Cd155 2.439 . S
O159 C160 1.208 . S
C160 O158 1.247 . S
C160 O159 1.208 . S
C161 O166 1.247 . S
C161 O167 1.208 . S
C162 O154 1.315 . S
C162 O157 1.279 . S
C163 O164 1.315 . S
C163 O165 1.279 . S
O164 Cd156 2.223 . S
O164 C163 1.315 . S
O165 Cd155 2.240 . S
O165 C163 1.279 . S
O166 Cd156 2.297 . S
O166 C161 1.247 . S
O167 Cd156 2.439 . S
O167 C161 1.208 . S
O168 Cd169 2.223 . S
O168 C176 1.315 . S
Cd169 O168 2.223 . S
Cd169 O172 2.297 . S
Cd169 O173 2.439 . S
Cd169 O179 2.240 . S
Cd170 O171 2.240 . S
Cd170 O178 2.223 . S
Cd170 O180 2.296 . S
Cd170 O181 2.439 . S
O171 Cd170 2.240 . S
O171 C176 1.279 . S
O172 Cd169 2.297 . S
O172 C174 1.247 . S
O173 Cd169 2.439 . S
O173 C174 1.208 . S
C174 O172 1.247 . S
C174 O173 1.208 . S
C175 O180 1.246 . S
C175 O181 1.208 . S
C176 O168 1.315 . S
C176 O171 1.279 . S
C177 O178 1.315 . S
C177 O179 1.279 . S
O178 Cd170 2.223 . S
O178 C177 1.315 . S
O179 Cd169 2.240 . S
O179 C177 1.279 . S
O180 Cd170 2.296 . S
O180 C175 1.246 . S
O181 Cd170 2.439 . S
O181 C175 1.208 . S
O182 Cd183 2.223 . S
O182 C190 1.315 . S
Cd183 O182 2.223 . S
Cd183 O186 2.297 . S
Cd183 O187 2.439 . S
Cd183 O193 2.240 . S
Cd184 O185 2.240 . S
Cd184 O192 2.223 . S
Cd184 O194 2.297 . S
Cd184 O195 2.439 . S
O185 Cd184 2.240 . S
O185 C190 1.279 . S
O186 Cd183 2.297 . S
O186 C188 1.247 . S
O187 Cd183 2.439 . S
O187 C188 1.208 . S
C188 O186 1.247 . S
C188 O187 1.208 . S
C189 O194 1.247 . S
C189 O195 1.208 . S
C190 O182 1.315 . S
C190 O185 1.279 . S
C191 O192 1.315 . S
C191 O193 1.279 . S
O192 Cd184 2.223 . S
O192 C191 1.315 . S
O193 Cd183 2.240 . S
O193 C191 1.279 . S
O194 Cd184 2.297 . S
O194 C189 1.247 . S
O195 Cd184 2.439 . S
O195 C189 1.208 . S
O196 Cd197 2.223 . S
O196 C204 1.315 . S
Cd197 O196 2.223 . S
Cd197 O200 2.297 . S
Cd197 O201 2.439 . S
Cd197 O207 2.240 . S
Cd198 O199 2.240 . S
Cd198 O206 2.223 . S
Cd198 O208 2.297 . S
Cd198 O209 2.439 . S
O199 Cd198 2.240 . S
O199 C204 1.279 . S
O200 Cd197 2.297 . S
O200 C202 1.247 . S
O201 Cd197 2.439 . S
O201 C202 1.208 . S
C202 O200 1.247 . S
C202 O201 1.208 . S
C203 O208 1.247 . S
C203 O209 1.208 . S
C204 O196 1.315 . S
C204 O199 1.279 . S
C205 O206 1.315 . S
C205 O207 1.279 . S
O206 Cd198 2.223 . S
O206 C205 1.315 . S
O207 Cd197 2.240 . S
O207 C205 1.279 . S
O208 Cd198 2.297 . S
O208 C203 1.247 . S
O209 Cd198 2.439 . S
O209 C203 1.208 . S
O210 Cd211 2.223 . S
O210 C218 1.315 . S
Cd211 O210 2.223 . S
Cd211 O214 2.297 . S
Cd211 O215 2.439 . S
Cd211 O221 2.240 . S
Cd212 O213 2.240 . S
Cd212 O220 2.223 . S
Cd212 O222 2.296 . S
Cd212 O223 2.439 . S
O213 Cd212 2.240 . S
O213 C218 1.279 . S
O214 Cd211 2.297 . S
O214 C216 1.247 . S
O215 Cd211 2.439 . S
O215 C216 1.208 . S
C216 O214 1.247 . S
C216 O215 1.208 . S
C217 O222 1.246 . S
C217 O223 1.208 . S
C218 O210 1.315 . S
C218 O213 1.279 . S
C219 O220 1.315 . S
C219 O221 1.279 . S
O220 Cd212 2.223 . S
O220 C219 1.315 . S
O221 Cd211 2.240 . S
O221 C219 1.279 . S
O222 Cd212 2.296 . S
O222 C217 1.246 . S
O223 Cd212 2.439 . S
O223 C217 1.208 . S
O224 Cd225 2.223 . S
O224 C232 1.315 . S
Cd225 O224 2.223 . S
Cd225 O228 2.297 . S
Cd225 O229 2.439 . S
Cd225 O235 2.240 . S
Cd226 O227 2.240 . S
Cd226 O234 2.223 . S
Cd226 O236 2.297 . S
Cd226 O237 2.439 . S
O227 Cd226 2.240 . S
O227 C232 1.279 . S
O228 Cd225 2.297 . S
O228 C230 1.247 . S
O229 Cd225 2.439 . S
O229 C230 1.208 . S
C230 O228 1.247 . S
C230 O229 1.208 . S
C231 O236 1.247 . S
C231 O237 1.208 . S
C232 O224 1.315 . S
C232 O227 1.279 . S
C233 O234 1.315 . S
C233 O235 1.279 . S
O234 Cd226 2.223 . S
O234 C233 1.315 . S
O235 Cd225 2.240 . S
O235 C233 1.279 . S
O236 Cd226 2.297 . S
O236 C231 1.247 . S
O237 Cd226 2.439 . S
O237 C231 1.208 . S
O238 Cd239 2.223 . S
O238 C246 1.315 . S
Cd239 O238 2.223 . S
Cd239 O242 2.297 . S
Cd239 O243 2.439 . S
Cd239 O249 2.240 . S
Cd240 O241 2.240 . S
Cd240 O248 2.223 . S
Cd240 O250 2.297 . S
Cd240 O251 2.439 . S
O241 Cd240 2.240 . S
O241 C246 1.279 . S
O242 Cd239 2.297 . S
O242 C244 1.247 . S
O243 Cd239 2.439 . S
O243 C244 1.208 . S
C244 O242 1.247 . S
C244 O243 1.208 . S
C245 O250 1.247 . S
C245 O251 1.208 . S
C246 O238 1.315 . S
C246 O241 1.279 . S
C247 O248 1.315 . S
C247 O249 1.279 . S
O248 Cd240 2.223 . S
O248 C247 1.315 . S
O249 Cd239 2.240 . S
O249 C247 1.279 . S
O250 Cd240 2.297 . S
O250 C245 1.247 . S
O251 Cd240 2.439 . S
O251 C245 1.208 . S
O252 Cd253 2.223 . S
O252 C260 1.315 . S
Cd253 O252 2.223 . S
Cd253 O256 2.297 . S
Cd253 O257 2.439 . S
Cd253 O263 2.240 . S
Cd254 O255 2.240 . S
Cd254 O262 2.223 . S
Cd254 O264 2.296 . S
Cd254 O265 2.439 . S
O255 Cd254 2.240 . S
O255 C260 1.279 . S
O256 Cd253 2.297 . S
O256 C258 1.247 . S
O257 Cd253 2.439 . S
O257 C258 1.208 . S
C258 O256 1.247 . S
C258 O257 1.208 . S
C259 O264 1.246 . S
C259 O265 1.208 . S
C260 O252 1.315 . S
C260 O255 1.279 . S
C261 O262 1.315 . S
C261 O263 1.279 . S
O262 Cd254 2.223 . S
O262 C261 1.315 . S
O263 Cd253 2.240 . S
O263 C261 1.279 . S
O264 Cd254 2.296 . S
O264 C259 1.246 . S
O265 Cd254 2.439 . S
O265 C259 1.208 . S
O266 Cd267 2.223 . S
O266 C274 1.315 . S
Cd267 O266 2.223 . S
Cd267 O270 2.297 . S
Cd267 O271 2.439 . S
Cd267 O277 2.240 . S
Cd268 O269 2.240 . S
Cd268 O276 2.223 . S
Cd268 O278 2.297 . S
Cd268 O279 2.439 . S
O269 Cd268 2.240 . S
O269 C274 1.279 . S
O270 Cd267 2.297 . S
O270 C272 1.247 . S
O271 Cd267 2.439 . S
O271 C272 1.208 . S
C272 O270 1.247 . S
C272 O271 1.208 . S
C273 O278 1.247 . S
C273 O279 1.208 . S
C274 O266 1.315 . S
C274 O269 1.279 . S
C275 O276 1.315 . S
C275 O277 1.279 . S
O276 Cd268 2.223 . S
O276 C275 1.315 . S
O277 Cd267 2.240 . S
O277 C275 1.279 . S
O278 Cd268 2.297 . S
O278 C273 1.247 . S
O279 Cd268 2.439 . S
O279 C273 1.208 . S
O280 Cd281 2.223 . S
O280 C288 1.315 . S
Cd281 O280 2.223 . S
Cd281 O284 2.297 . S
Cd281 O285 2.439 . S
Cd281 O291 2.240 . S
Cd282 O283 2.240 . S
Cd282 O290 2.223 . S
Cd282 O292 2.297 . S
Cd282 O293 2.439 . S
O283 Cd282 2.240 . S
O283 C288 1.279 . S
O284 Cd281 2.297 . S
O284 C286 1.247 . S
O285 Cd281 2.439 . S
O285 C286 1.208 . S
C286 O284 1.247 . S
C286 O285 1.208 . S
C287 O292 1.247 . S
C287 O293 1.208 . S
C288 O280 1.315 . S
C288 O283 1.279 . S
C289 O290 1.315 . S
C289 O291 1.279 . S
O290 Cd282 2.223 . S
O290 C289 1.315 . S
O291 Cd281 2.240 . S
O291 C289 1.279 . S
O292 Cd282 2.297 . S
O292 C287 1.247 . S
O293 Cd282 2.439 . S
O293 C287 1.208 . S
O294 Cd295 2.223 . S
O294 C302 1.315 . S
Cd295 O294 2.223 . S
Cd295 O298 2.297 . S
Cd295 O299 2.439 . S
Cd295 O305 2.240 . S
Cd296 O297 2.240 . S
Cd296 O304 2.223 . S
Cd296 O306 2.296 . S
Cd296 O307 2.439 . S
O297 Cd296 2.240 . S
O297 C302 1.279 . S
O298 Cd295 2.297 . S
O298 C300 1.247 . S
O299 Cd295 2.439 . S
O299 C300 1.208 . S
C300 O298 1.247 . S
C300 O299 1.208 . S
C301 O306 1.246 . S
C301 O307 1.208 . S
C302 O294 1.315 . S
C302 O297 1.279 . S
C303 O304 1.315 . S
C303 O305 1.279 . S
O304 Cd296 2.223 . S
O304 C303 1.315 . S
O305 Cd295 2.240 . S
O305 C303 1.279 . S
O306 Cd296 2.296 . S
O306 C301 1.246 . S
O307 Cd296 2.439 . S
O307 C301 1.208 . S
O308 Cd309 2.223 . S
O308 C316 1.315 . S
Cd309 O308 2.223 . S
Cd309 O312 2.297 . S
Cd309 O313 2.439 . S
Cd309 O319 2.240 . S
Cd310 O311 2.240 . S
Cd310 O318 2.223 . S
Cd310 O320 2.297 . S
Cd310 O321 2.439 . S
O311 Cd310 2.240 . S
O311 C316 1.279 . S
O312 Cd309 2.297 . S
O312 C314 1.247 . S
O313 Cd309 2.439 . S
O313 C314 1.208 . S
C314 O312 1.247 . S
C314 O313 1.208 . S
C315 O320 1.247 . S
C315 O321 1.208 . S
C316 O308 1.315 . S
C316 O311 1.279 . S
C317 O318 1.315 . S
C317 O319 1.279 . S
O318 Cd310 2.223 . S
O318 C317 1.315 . S
O319 Cd309 2.240 . S
O319 C317 1.279 . S
O320 Cd310 2.297 . S
O320 C315 1.247 . S
O321 Cd310 2.439 . S
O321 C315 1.208 . S
O322 Cd323 2.223 . S
O322 C330 1.315 . S
Cd323 O322 2.223 . S
Cd323 O326 2.297 . S
Cd323 O327 2.439 . S
Cd323 O333 2.240 . S
Cd324 O325 2.240 . S
Cd324 O332 2.223 . S
Cd324 O334 2.297 . S
Cd324 O335 2.439 . S
O325 Cd324 2.240 . S
O325 C330 1.279 . S
O326 Cd323 2.297 . S
O326 C328 1.247 . S
O327 Cd323 2.439 . S
O327 C328 1.208 . S
C328 O326 1.247 . S
C328 O327 1.208 . S
C329 O334 1.247 . S
C329 O335 1.208 . S
C330 O322 1.315 . S
C330 O325 1.279 . S
C331 O332 1.315 . S
C331 O333 1.279 . S
O332 Cd324 2.223 . S
O332 C331 1.315 . S
O333 Cd323 2.240 . S
O333 C331 1.279 . S
O334 Cd324 2.297 . S
O334 C329 1.247 . S
O335 Cd324 2.439 . S
O335 C329 1.208 . S
C336 C337 1.363 . S
C336 C342 1.379 . S
C336 N344 1.356 . S
C337 C336 1.363 . S
C337 C343 1.363 . S
C338 C339 1.363 . S
C338 C343 1.379 . S
C338 N345 1.356 . S
C339 C338 1.363 . S
C339 C342 1.363 . S
N340 C342 1.356 . S
N340 H352 0.984 . S
N340 H353 0.985 . S
N341 C343 1.356 . S
N341 H346 0.984 . S
N341 H347 0.985 . S
C342 C336 1.379 . S
C342 C339 1.363 . S
C342 N340 1.356 . S
C343 C337 1.363 . S
C343 C338 1.379 . S
C343 N341 1.356 . S
N344 C336 1.356 . S
N344 H350 0.984 . S
N344 H351 0.984 . S
N345 C338 1.356 . S
N345 H348 0.984 . S
N345 H349 0.985 . S
H346 N341 0.984 . S
H347 N341 0.985 . S
H348 N345 0.984 . S
H349 N345 0.985 . S
H350 N344 0.984 . S
H351 N344 0.984 . S
H352 N340 0.984 . S
H353 N340 0.985 . S
C354 C355 1.363 . S
C354 C360 1.379 . S
C354 N362 1.356 . S
C355 C354 1.363 . S
C355 C361 1.363 . S
C356 C357 1.363 . S
C356 C361 1.379 . S
C356 N363 1.356 . S
C357 C356 1.363 . S
C357 C360 1.363 . S
N358 C360 1.356 . S
N358 H370 0.984 . S
N358 H371 0.985 . S
N359 C361 1.356 . S
N359 H364 0.984 . S
N359 H365 0.985 . S
C360 C354 1.379 . S
C360 C357 1.363 . S
C360 N358 1.356 . S
C361 C355 1.363 . S
C361 C356 1.379 . S
C361 N359 1.356 . S
N362 C354 1.356 . S
N362 H368 0.984 . S
N362 H369 0.984 . S
N363 C356 1.356 . S
N363 H366 0.984 . S
N363 H367 0.985 . S
H364 N359 0.984 . S
H365 N359 0.985 . S
H366 N363 0.984 . S
H367 N363 0.985 . S
H368 N362 0.984 . S
H369 N362 0.984 . S
H370 N358 0.984 . S
H371 N358 0.985 . S
C372 C373 1.363 . S
C372 C378 1.379 . S
C372 N380 1.356 . S
C373 C372 1.363 . S
C373 C379 1.363 . S
C374 C375 1.363 . S
C374 C379 1.379 . S
C374 N381 1.356 . S
C375 C374 1.363 . S
C375 C378 1.363 . S
N376 C378 1.356 . S
N376 H388 0.984 . S
N376 H389 0.985 . S
N377 C379 1.356 . S
N377 H382 0.984 . S
N377 H383 0.985 1_655 S
C378 C372 1.379 . S
C378 C375 1.363 . S
C378 N376 1.356 . S
C379 C373 1.363 . S
C379 C374 1.379 . S
C379 N377 1.356 . S
N380 C372 1.356 . S
N380 H386 0.984 . S
N380 H387 0.984 . S
N381 C374 1.356 . S
N381 H384 0.984 . S
N381 H385 0.985 1_655 S
H382 N377 0.984 . S
H383 N377 0.985 1_455 S
H384 N381 0.984 . S
H385 N381 0.985 1_455 S
H386 N380 0.984 . S
H387 N380 0.984 . S
H388 N376 0.984 . S
H389 N376 0.985 . S
C390 C391 1.363 . S
C390 C396 1.379 . S
C390 N398 1.356 . S
C391 C390 1.363 . S
C391 C397 1.363 . S
C392 C393 1.363 . S
C392 C397 1.379 . S
C392 N399 1.356 . S
C393 C392 1.363 . S
C393 C396 1.363 . S
N394 C396 1.356 . S
N394 H406 0.984 . S
N394 H407 0.985 . S
N395 C397 1.356 . S
N395 H400 0.984 . S
N395 H401 0.985 . S
C396 C390 1.379 . S
C396 C393 1.363 . S
C396 N394 1.356 . S
C397 C391 1.363 . S
C397 C392 1.379 . S
C397 N395 1.356 . S
N398 C390 1.356 . S
N398 H404 0.984 . S
N398 H405 0.984 . S
N399 C392 1.356 . S
N399 H402 0.984 . S
N399 H403 0.985 . S
H400 N395 0.984 . S
H401 N395 0.985 . S
H402 N399 0.984 . S
H403 N399 0.985 . S
H404 N398 0.984 . S
H405 N398 0.984 . S
H406 N394 0.984 . S
H407 N394 0.985 . S
C408 C409 1.363 . S
C408 C414 1.379 . S
C408 N416 1.356 . S
C409 C408 1.363 . S
C409 C415 1.363 . S
C410 C411 1.363 . S
C410 C415 1.379 . S
C410 N417 1.356 . S
C411 C410 1.363 . S
C411 C414 1.363 . S
N412 C414 1.356 . S
N412 H424 0.984 . S
N412 H425 0.985 . S
N413 C415 1.356 . S
N413 H418 0.984 . S
N413 H419 0.985 . S
C414 C408 1.379 . S
C414 C411 1.363 . S
C414 N412 1.356 . S
C415 C409 1.363 . S
C415 C410 1.379 . S
C415 N413 1.356 . S
N416 C408 1.356 . S
N416 H422 0.984 . S
N416 H423 0.984 . S
N417 C410 1.356 . S
N417 H420 0.984 . S
N417 H421 0.985 . S
H418 N413 0.984 . S
H419 N413 0.985 . S
H420 N417 0.984 . S
H421 N417 0.985 . S
H422 N416 0.984 . S
H423 N416 0.984 . S
H424 N412 0.984 . S
H425 N412 0.985 . S
C426 C427 1.363 . S
C426 C432 1.379 . S
C426 N434 1.356 . S
C427 C426 1.363 . S
C427 C433 1.363 . S
C428 C429 1.363 . S
C428 C433 1.379 . S
C428 N435 1.356 . S
C429 C428 1.363 . S
C429 C432 1.363 . S
N430 C432 1.356 . S
N430 H442 0.984 . S
N430 H443 0.985 . S
N431 C433 1.356 . S
N431 H436 0.984 . S
N431 H437 0.985 1_455 S
C432 C426 1.379 . S
C432 C429 1.363 . S
C432 N430 1.356 . S
C433 C427 1.363 . S
C433 C428 1.379 . S
C433 N431 1.356 . S
N434 C426 1.356 . S
N434 H440 0.984 . S
N434 H441 0.984 . S
N435 C428 1.356 . S
N435 H438 0.984 . S
N435 H439 0.985 1_455 S
H436 N431 0.984 . S
H437 N431 0.985 1_655 S
H438 N435 0.984 . S
H439 N435 0.985 1_655 S
H440 N434 0.984 . S
H441 N434 0.984 . S
H442 N430 0.984 . S
H443 N430 0.985 . S
C444 C445 1.363 . S
C444 C450 1.379 . S
C444 N452 1.356 . S
C445 C444 1.363 . S
C445 C451 1.363 . S
C446 C447 1.363 . S
C446 C451 1.379 . S
C446 N453 1.356 . S
C447 C446 1.363 . S
C447 C450 1.363 . S
N448 C450 1.356 . S
N448 H460 0.984 . S
N448 H461 0.985 . S
N449 C451 1.356 . S
N449 H454 0.984 . S
N449 H455 0.985 1_655 S
C450 C444 1.379 . S
C450 C447 1.363 . S
C450 N448 1.356 . S
C451 C445 1.363 . S
C451 C446 1.379 . S
C451 N449 1.356 . S
N452 C444 1.356 . S
N452 H458 0.984 . S
N452 H459 0.984 . S
N453 C446 1.356 . S
N453 H456 0.984 . S
N453 H457 0.985 1_655 S
H454 N449 0.984 . S
H455 N449 0.985 1_455 S
H456 N453 0.984 . S
H457 N453 0.985 1_455 S
H458 N452 0.984 . S
H459 N452 0.984 . S
H460 N448 0.984 . S
H461 N448 0.985 . S
C462 C463 1.363 . S
C462 C468 1.379 . S
C462 N470 1.356 . S
C463 C462 1.363 . S
C463 C469 1.363 . S
C464 C465 1.363 . S
C464 C469 1.379 . S
C464 N471 1.356 . S
C465 C464 1.363 . S
C465 C468 1.363 . S
N466 C468 1.356 . S
N466 H478 0.984 . S
N466 H479 0.985 . S
N467 C469 1.356 . S
N467 H472 0.984 . S
N467 H473 0.985 . S
C468 C462 1.379 . S
C468 C465 1.363 . S
C468 N466 1.356 . S
C469 C463 1.363 . S
C469 C464 1.379 . S
C469 N467 1.356 . S
N470 C462 1.356 . S
N470 H476 0.984 . S
N470 H477 0.984 . S
N471 C464 1.356 . S
N471 H474 0.984 . S
N471 H475 0.985 . S
H472 N467 0.984 . S
H473 N467 0.985 . S
H474 N471 0.984 . S
H475 N471 0.985 . S
H476 N470 0.984 . S
H477 N470 0.984 . S
H478 N466 0.984 . S
H479 N466 0.985 . S
C480 C481 1.363 . S
C480 C486 1.379 . S
C480 N488 1.356 . S
C481 C480 1.363 . S
C481 C487 1.363 . S
C482 C483 1.363 . S
C482 C487 1.379 . S
C482 N489 1.356 . S
C483 C482 1.363 . S
C483 C486 1.363 . S
N484 C486 1.356 . S
N484 H496 0.984 . S
N484 H497 0.985 . S
N485 C487 1.356 . S
N485 H490 0.984 . S
N485 H491 0.985 . S
C486 C480 1.379 . S
C486 C483 1.363 . S
C486 N484 1.356 . S
C487 C481 1.363 . S
C487 C482 1.379 . S
C487 N485 1.356 . S
N488 C480 1.356 . S
N488 H494 0.984 . S
N488 H495 0.984 . S
N489 C482 1.356 . S
N489 H492 0.984 . S
N489 H493 0.985 . S
H490 N485 0.984 . S
H491 N485 0.985 . S
H492 N489 0.984 . S
H493 N489 0.985 . S
H494 N488 0.984 . S
H495 N488 0.984 . S
H496 N484 0.984 . S
H497 N484 0.985 . S
C498 C499 1.363 . S
C498 C504 1.379 . S
C498 N506 1.356 . S
C499 C498 1.363 . S
C499 C505 1.363 . S
C500 C501 1.363 . S
C500 C505 1.379 . S
C500 N507 1.356 . S
C501 C500 1.363 . S
C501 C504 1.363 . S
N502 C504 1.356 . S
N502 H514 0.984 1_455 S
N502 H515 0.985 . S
N503 C505 1.356 . S
N503 H508 0.984 . S
N503 H509 0.985 . S
C504 C498 1.379 . S
C504 C501 1.363 . S
C504 N502 1.356 . S
C505 C499 1.363 . S
C505 C500 1.379 . S
C505 N503 1.356 . S
N506 C498 1.356 . S
N506 H512 0.984 1_455 S
N506 H513 0.984 . S
N507 C500 1.356 . S
N507 H510 0.984 . S
N507 H511 0.985 . S
H508 N503 0.984 . S
H509 N503 0.985 . S
H510 N507 0.984 . S
H511 N507 0.985 . S
H512 N506 0.984 1_655 S
H513 N506 0.984 . S
H514 N502 0.984 1_655 S
H515 N502 0.985 . S
C516 C517 1.363 . S
C516 C522 1.379 . S
C516 N524 1.356 . S
C517 C516 1.363 . S
C517 C523 1.363 . S
C518 C519 1.363 . S
C518 C523 1.379 . S
C518 N525 1.356 . S
C519 C518 1.363 . S
C519 C522 1.363 . S
N520 C522 1.356 . S
N520 H532 0.984 . S
N520 H533 0.985 . S
N521 C523 1.356 . S
N521 H526 0.984 . S
N521 H527 0.985 . S
C522 C516 1.379 . S
C522 C519 1.363 . S
C522 N520 1.356 . S
C523 C517 1.363 . S
C523 C518 1.379 . S
C523 N521 1.356 . S
N524 C516 1.356 . S
N524 H530 0.984 . S
N524 H531 0.984 . S
N525 C518 1.356 . S
N525 H528 0.984 . S
N525 H529 0.985 . S
H526 N521 0.984 . S
H527 N521 0.985 . S
H528 N525 0.984 . S
H529 N525 0.985 . S
H530 N524 0.984 . S
H531 N524 0.984 . S
H532 N520 0.984 . S
H533 N520 0.985 . S
C534 C535 1.363 . S
C534 C540 1.379 . S
C534 N542 1.356 . S
C535 C534 1.363 . S
C535 C541 1.363 . S
C536 C537 1.363 . S
C536 C541 1.379 . S
C536 N543 1.356 . S
C537 C536 1.363 . S
C537 C540 1.363 . S
N538 C540 1.356 . S
N538 H550 0.984 . S
N538 H551 0.985 . S
N539 C541 1.356 . S
N539 H544 0.984 . S
N539 H545 0.985 . S
C540 C534 1.379 . S
C540 C537 1.363 . S
C540 N538 1.356 . S
C541 C535 1.363 . S
C541 C536 1.379 . S
C541 N539 1.356 . S
N542 C534 1.356 . S
N542 H548 0.984 . S
N542 H549 0.984 . S
N543 C536 1.356 . S
N543 H546 0.984 . S
N543 H547 0.985 . S
H544 N539 0.984 . S
H545 N539 0.985 . S
H546 N543 0.984 . S
H547 N543 0.985 . S
H548 N542 0.984 . S
H549 N542 0.984 . S
H550 N538 0.984 . S
H551 N538 0.985 . S
C552 C553 1.363 . S
C552 C558 1.379 . S
C552 N560 1.356 . S
C553 C552 1.363 . S
C553 C559 1.363 . S
C554 C555 1.363 . S
C554 C559 1.379 . S
C554 N561 1.356 . S
C555 C554 1.363 . S
C555 C558 1.363 . S
N556 C558 1.356 . S
N556 H568 0.984 . S
N556 H569 0.985 . S
N557 C559 1.356 . S
N557 H562 0.984 . S
N557 H563 0.985 . S
C558 C552 1.379 . S
C558 C555 1.363 . S
C558 N556 1.356 . S
C559 C553 1.363 . S
C559 C554 1.379 . S
C559 N557 1.356 . S
N560 C552 1.356 . S
N560 H566 0.984 . S
N560 H567 0.984 . S
N561 C554 1.356 . S
N561 H564 0.984 . S
N561 H565 0.985 . S
H562 N557 0.984 . S
H563 N557 0.985 . S
H564 N561 0.984 . S
H565 N561 0.985 . S
H566 N560 0.984 . S
H567 N560 0.984 . S
H568 N556 0.984 . S
H569 N556 0.985 . S
C570 C571 1.363 . S
C570 C576 1.379 . S
C570 N578 1.356 . S
C571 C570 1.363 . S
C571 C577 1.363 . S
C572 C573 1.363 . S
C572 C577 1.379 . S
C572 N579 1.356 . S
C573 C572 1.363 . S
C573 C576 1.363 . S
N574 C576 1.356 . S
N574 H586 0.984 . S
N574 H587 0.985 . S
N575 C577 1.356 . S
N575 H580 0.984 . S
N575 H581 0.985 . S
C576 C570 1.379 . S
C576 C573 1.363 . S
C576 N574 1.356 . S
C577 C571 1.363 . S
C577 C572 1.379 . S
C577 N575 1.356 . S
N578 C570 1.356 . S
N578 H584 0.984 . S
N578 H585 0.984 . S
N579 C572 1.356 . S
N579 H582 0.984 . S
N579 H583 0.985 . S
H580 N575 0.984 . S
H581 N575 0.985 . S
H582 N579 0.984 . S
H583 N579 0.985 . S
H584 N578 0.984 . S
H585 N578 0.984 . S
H586 N574 0.984 . S
H587 N574 0.985 . S
C588 C589 1.363 . S
C588 C594 1.379 . S
C588 N596 1.356 . S
C589 C588 1.363 . S
C589 C595 1.363 . S
C590 C591 1.363 . S
C590 C595 1.379 . S
C590 N597 1.356 . S
C591 C590 1.363 . S
C591 C594 1.363 . S
N592 C594 1.356 . S
N592 H604 0.984 . S
N592 H605 0.985 . S
N593 C595 1.356 . S
N593 H598 0.984 . S
N593 H599 0.985 . S
C594 C588 1.379 . S
C594 C591 1.363 . S
C594 N592 1.356 . S
C595 C589 1.363 . S
C595 C590 1.379 . S
C595 N593 1.356 . S
N596 C588 1.356 . S
N596 H602 0.984 . S
N596 H603 0.984 . S
N597 C590 1.356 . S
N597 H600 0.984 . S
N597 H601 0.985 . S
H598 N593 0.984 . S
H599 N593 0.985 . S
H600 N597 0.984 . S
H601 N597 0.985 . S
H602 N596 0.984 . S
H603 N596 0.984 . S
H604 N592 0.984 . S
H605 N592 0.985 . S
C606 C607 1.363 . S
C606 C612 1.379 . S
C606 N614 1.356 . S
C607 C606 1.363 . S
C607 C613 1.363 . S
C608 C609 1.363 . S
C608 C613 1.379 . S
C608 N615 1.356 . S
C609 C608 1.363 . S
C609 C612 1.363 . S
N610 C612 1.356 . S
N610 H622 0.984 . S
N610 H623 0.985 . S
N611 C613 1.356 . S
N611 H616 0.984 . S
N611 H617 0.985 . S
C612 C606 1.379 . S
C612 C609 1.363 . S
C612 N610 1.356 . S
C613 C607 1.363 . S
C613 C608 1.379 . S
C613 N611 1.356 . S
N614 C606 1.356 . S
N614 H620 0.984 . S
N614 H621 0.984 . S
N615 C608 1.356 . S
N615 H618 0.984 . S
N615 H619 0.985 . S
H616 N611 0.984 . S
H617 N611 0.985 . S
H618 N615 0.984 . S
H619 N615 0.985 . S
H620 N614 0.984 . S
H621 N614 0.984 . S
H622 N610 0.984 . S
H623 N610 0.985 . S
C624 C625 1.363 . S
C624 C630 1.379 . S
C624 N632 1.356 . S
C625 C624 1.363 . S
C625 C631 1.363 . S
C626 C627 1.363 . S
C626 C631 1.379 . S
C626 N633 1.356 . S
C627 C626 1.363 . S
C627 C630 1.363 . S
N628 C630 1.356 . S
N628 H640 0.984 . S
N628 H641 0.985 . S
N629 C631 1.356 . S
N629 H634 0.984 . S
N629 H635 0.985 . S
C630 C624 1.379 . S
C630 C627 1.363 . S
C630 N628 1.356 . S
C631 C625 1.363 . S
C631 C626 1.379 . S
C631 N629 1.356 . S
N632 C624 1.356 . S
N632 H638 0.984 . S
N632 H639 0.984 . S
N633 C626 1.356 . S
N633 H636 0.984 . S
N633 H637 0.985 . S
H634 N629 0.984 . S
H635 N629 0.985 . S
H636 N633 0.984 . S
H637 N633 0.985 . S
H638 N632 0.984 . S
H639 N632 0.984 . S
H640 N628 0.984 . S
H641 N628 0.985 . S
C642 C643 1.363 . S
C642 C648 1.379 . S
C642 N650 1.356 . S
C643 C642 1.363 . S
C643 C649 1.363 . S
C644 C645 1.363 . S
C644 C649 1.379 . S
C644 N651 1.356 . S
C645 C644 1.363 . S
C645 C648 1.363 . S
N646 C648 1.356 . S
N646 H658 0.984 . S
N646 H659 0.985 . S
N647 C649 1.356 . S
N647 H652 0.984 . S
N647 H653 0.985 . S
C648 C642 1.379 . S
C648 C645 1.363 . S
C648 N646 1.356 . S
C649 C643 1.363 . S
C649 C644 1.379 . S
C649 N647 1.356 . S
N650 C642 1.356 . S
N650 H656 0.984 . S
N650 H657 0.984 . S
N651 C644 1.356 . S
N651 H654 0.984 . S
N651 H655 0.985 . S
H652 N647 0.984 . S
H653 N647 0.985 . S
H654 N651 0.984 . S
H655 N651 0.985 . S
H656 N650 0.984 . S
H657 N650 0.984 . S
H658 N646 0.984 . S
H659 N646 0.985 . S
C660 C661 1.363 . S
C660 C666 1.379 . S
C660 N668 1.356 . S
C661 C660 1.363 . S
C661 C667 1.363 . S
C662 C663 1.363 . S
C662 C667 1.379 . S
C662 N669 1.356 . S
C663 C662 1.363 . S
C663 C666 1.363 . S
N664 C666 1.356 . S
N664 H676 0.984 . S
N664 H677 0.985 . S
N665 C667 1.356 . S
N665 H670 0.984 . S
N665 H671 0.985 . S
C666 C660 1.379 . S
C666 C663 1.363 . S
C666 N664 1.356 . S
C667 C661 1.363 . S
C667 C662 1.379 . S
C667 N665 1.356 . S
N668 C660 1.356 . S
N668 H674 0.984 . S
N668 H675 0.984 . S
N669 C662 1.356 . S
N669 H672 0.984 . S
N669 H673 0.985 . S
H670 N665 0.984 . S
H671 N665 0.985 . S
H672 N669 0.984 . S
H673 N669 0.985 . S
H674 N668 0.984 . S
H675 N668 0.984 . S
H676 N664 0.984 . S
H677 N664 0.985 . S
C678 C679 1.363 . S
C678 C684 1.379 . S
C678 N686 1.356 . S
C679 C678 1.363 . S
C679 C685 1.363 . S
C680 C681 1.363 . S
C680 C685 1.379 . S
C680 N687 1.356 . S
C681 C680 1.363 . S
C681 C684 1.363 . S
N682 C684 1.356 . S
N682 H694 0.984 . S
N682 H695 0.985 . S
N683 C685 1.356 . S
N683 H688 0.984 . S
N683 H689 0.985 . S
C684 C678 1.379 . S
C684 C681 1.363 . S
C684 N682 1.356 . S
C685 C679 1.363 . S
C685 C680 1.379 . S
C685 N683 1.356 . S
N686 C678 1.356 . S
N686 H692 0.984 . S
N686 H693 0.984 . S
N687 C680 1.356 . S
N687 H690 0.984 . S
N687 H691 0.985 . S
H688 N683 0.984 . S
H689 N683 0.985 . S
H690 N687 0.984 . S
H691 N687 0.985 . S
H692 N686 0.984 . S
H693 N686 0.984 . S
H694 N682 0.984 . S
H695 N682 0.985 . S
C696 C697 1.363 . S
C696 C702 1.379 . S
C696 N704 1.356 . S
C697 C696 1.363 . S
C697 C703 1.363 . S
C698 C699 1.363 . S
C698 C703 1.379 . S
C698 N705 1.356 . S
C699 C698 1.363 . S
C699 C702 1.363 . S
N700 C702 1.356 . S
N700 H712 0.984 . S
N700 H713 0.985 . S
N701 C703 1.356 . S
N701 H706 0.984 . S
N701 H707 0.985 . S
C702 C696 1.379 . S
C702 C699 1.363 . S
C702 N700 1.356 . S
C703 C697 1.363 . S
C703 C698 1.379 . S
C703 N701 1.356 . S
N704 C696 1.356 . S
N704 H710 0.984 . S
N704 H711 0.984 . S
N705 C698 1.356 . S
N705 H708 0.984 . S
N705 H709 0.985 . S
H706 N701 0.984 . S
H707 N701 0.985 . S
H708 N705 0.984 . S
H709 N705 0.985 . S
H710 N704 0.984 . S
H711 N704 0.984 . S
H712 N700 0.984 . S
H713 N700 0.985 . S
C714 C715 1.363 . S
C714 C720 1.379 . S
C714 N722 1.356 . S
C715 C714 1.363 . S
C715 C721 1.363 . S
C716 C717 1.363 . S
C716 C721 1.379 . S
C716 N723 1.356 . S
C717 C716 1.363 . S
C717 C720 1.363 . S
N718 C720 1.356 . S
N718 H730 0.984 . S
N718 H731 0.985 . S
N719 C721 1.356 . S
N719 H724 0.984 . S
N719 H725 0.985 . S
C720 C714 1.379 . S
C720 C717 1.363 . S
C720 N718 1.356 . S
C721 C715 1.363 . S
C721 C716 1.379 . S
C721 N719 1.356 . S
N722 C714 1.356 . S
N722 H728 0.984 . S
N722 H729 0.984 . S
N723 C716 1.356 . S
N723 H726 0.984 . S
N723 H727 0.985 . S
H724 N719 0.984 . S
H725 N719 0.985 . S
H726 N723 0.984 . S
H727 N723 0.985 . S
H728 N722 0.984 . S
H729 N722 0.984 . S
H730 N718 0.984 . S
H731 N718 0.985 . S
C732 C733 1.363 . S
C732 C738 1.379 . S
C732 N740 1.356 . S
C733 C732 1.363 . S
C733 C739 1.363 . S
C734 C735 1.363 . S
C734 C739 1.379 . S
C734 N741 1.356 . S
C735 C734 1.363 . S
C735 C738 1.363 . S
N736 C738 1.356 . S
N736 H748 0.984 . S
N736 H749 0.985 . S
N737 C739 1.356 . S
N737 H742 0.984 . S
N737 H743 0.985 . S
C738 C732 1.379 . S
C738 C735 1.363 . S
C738 N736 1.356 . S
C739 C733 1.363 . S
C739 C734 1.379 . S
C739 N737 1.356 . S
N740 C732 1.356 . S
N740 H746 0.984 . S
N740 H747 0.984 . S
N741 C734 1.356 . S
N741 H744 0.984 . S
N741 H745 0.985 . S
H742 N737 0.984 . S
H743 N737 0.985 . S
H744 N741 0.984 . S
H745 N741 0.985 . S
H746 N740 0.984 . S
H747 N740 0.984 . S
H748 N736 0.984 . S
H749 N736 0.985 . S
C750 C751 1.363 . S
C750 C756 1.379 . S
C750 N758 1.356 . S
C751 C750 1.363 . S
C751 C757 1.363 . S
C752 C753 1.363 . S
C752 C757 1.379 . S
C752 N759 1.356 . S
C753 C752 1.363 . S
C753 C756 1.363 . S
N754 C756 1.356 . S
N754 H766 0.984 . S
N754 H767 0.985 . S
N755 C757 1.356 . S
N755 H760 0.984 . S
N755 H761 0.985 . S
C756 C750 1.379 . S
C756 C753 1.363 . S
C756 N754 1.356 . S
C757 C751 1.363 . S
C757 C752 1.379 . S
C757 N755 1.356 . S
N758 C750 1.356 . S
N758 H764 0.984 . S
N758 H765 0.984 . S
N759 C752 1.356 . S
N759 H762 0.984 . S
N759 H763 0.985 . S
H760 N755 0.984 . S
H761 N755 0.985 . S
H762 N759 0.984 . S
H763 N759 0.985 . S
H764 N758 0.984 . S
H765 N758 0.984 . S
H766 N754 0.984 . S
H767 N754 0.985 . S
C768 C769 1.363 . S
C768 C774 1.379 1_556 S
C768 N776 1.356 . S
C769 C768 1.363 . S
C769 C775 1.363 1_565 S
C770 C771 1.363 . S
C770 C775 1.379 1_554 S
C770 N777 1.356 . S
C771 C770 1.363 . S
C771 C774 1.363 1_545 S
N772 C774 1.356 . S
N772 H784 0.984 . S
N772 H785 0.985 . S
N773 C775 1.356 . S
N773 H778 0.984 . S
N773 H779 0.985 . S
C774 C768 1.379 1_554 S
C774 C771 1.363 1_565 S
C774 N772 1.356 . S
C775 C769 1.363 1_545 S
C775 C770 1.379 1_556 S
C775 N773 1.356 . S
N776 C768 1.356 . S
N776 H782 0.984 . S
N776 H783 0.984 . S
N777 C770 1.356 . S
N777 H780 0.984 . S
N777 H781 0.985 . S
H778 N773 0.984 . S
H779 N773 0.985 . S
H780 N777 0.984 . S
H781 N777 0.985 . S
H782 N776 0.984 . S
H783 N776 0.984 . S
H784 N772 0.984 . S
H785 N772 0.985 . S
C786 C787 1.363 . S
C786 C792 1.379 . S
C786 N794 1.356 . S
C787 C786 1.363 . S
C787 C793 1.363 . S
C788 C789 1.363 . S
C788 C793 1.379 . S
C788 N795 1.356 . S
C789 C788 1.363 . S
C789 C792 1.363 . S
N790 C792 1.356 . S
N790 H802 0.984 . S
N790 H803 0.985 . S
N791 C793 1.356 . S
N791 H796 0.984 . S
N791 H797 0.985 . S
C792 C786 1.379 . S
C792 C789 1.363 . S
C792 N790 1.356 . S
C793 C787 1.363 . S
C793 C788 1.379 . S
C793 N791 1.356 . S
N794 C786 1.356 . S
N794 H800 0.984 . S
N794 H801 0.984 . S
N795 C788 1.356 . S
N795 H798 0.984 . S
N795 H799 0.985 . S
H796 N791 0.984 . S
H797 N791 0.985 . S
H798 N795 0.984 . S
H799 N795 0.985 . S
H800 N794 0.984 . S
H801 N794 0.984 . S
H802 N790 0.984 . S
H803 N790 0.985 . S
C804 C805 1.363 . S
C804 C810 1.379 1_556 S
C804 N812 1.356 . S
C805 C804 1.363 . S
C805 C811 1.363 1_455 S
C806 C807 1.363 . S
C806 C811 1.379 1_554 S
C806 N813 1.356 . S
C807 C806 1.363 . S
C807 C810 1.363 1_655 S
N808 C810 1.356 . S
N808 H820 0.984 . S
N808 H821 0.985 . S
N809 C811 1.356 . S
N809 H814 0.984 . S
N809 H815 0.985 . S
C810 C804 1.379 1_554 S
C810 C807 1.363 1_455 S
C810 N808 1.356 . S
C811 C805 1.363 1_655 S
C811 C806 1.379 1_556 S
C811 N809 1.356 . S
N812 C804 1.356 . S
N812 H818 0.984 . S
N812 H819 0.984 . S
N813 C806 1.356 . S
N813 H816 0.984 . S
N813 H817 0.985 . S
H814 N809 0.984 . S
H815 N809 0.985 . S
H816 N813 0.984 . S
H817 N813 0.985 . S
H818 N812 0.984 . S
H819 N812 0.984 . S
H820 N808 0.984 . S
H821 N808 0.985 . S
C822 C823 1.363 . S
C822 C828 1.379 . S
C822 N830 1.356 . S
C823 C822 1.363 . S
C823 C829 1.363 1_545 S
C824 C825 1.363 . S
C824 C829 1.379 . S
C824 N831 1.356 . S
C825 C824 1.363 . S
C825 C828 1.363 1_565 S
N826 C828 1.356 . S
N826 H838 0.984 . S
N826 H839 0.985 1_545 S
N827 C829 1.356 . S
N827 H832 0.984 1_565 S
N827 H833 0.985 . S
C828 C822 1.379 . S
C828 C825 1.363 1_545 S
C828 N826 1.356 . S
C829 C823 1.363 1_565 S
C829 C824 1.379 . S
C829 N827 1.356 . S
N830 C822 1.356 . S
N830 H836 0.984 . S
N830 H837 0.984 . S
N831 C824 1.356 . S
N831 H834 0.984 . S
N831 H835 0.985 . S
H832 N827 0.984 1_545 S
H833 N827 0.985 . S
H834 N831 0.984 . S
H835 N831 0.985 . S
H836 N830 0.984 . S
H837 N830 0.984 . S
H838 N826 0.984 . S
H839 N826 0.985 1_565 S
C840 C841 1.363 . S
C840 C846 1.379 1_554 S
C840 N848 1.356 . S
C841 C840 1.363 . S
C841 C847 1.363 . S
C842 C843 1.363 . S
C842 C847 1.379 1_556 S
C842 N849 1.356 . S
C843 C842 1.363 . S
C843 C846 1.363 . S
N844 C846 1.356 . S
N844 H856 0.984 . S
N844 H857 0.985 . S
N845 C847 1.356 . S
N845 H850 0.984 . S
N845 H851 0.985 . S
C846 C840 1.379 1_556 S
C846 C843 1.363 . S
C846 N844 1.356 . S
C847 C841 1.363 . S
C847 C842 1.379 1_554 S
C847 N845 1.356 . S
N848 C840 1.356 . S
N848 H854 0.984 . S
N848 H855 0.984 . S
N849 C842 1.356 . S
N849 H852 0.984 . S
N849 H853 0.985 . S
H850 N845 0.984 . S
H851 N845 0.985 . S
H852 N849 0.984 . S
H853 N849 0.985 . S
H854 N848 0.984 . S
H855 N848 0.984 . S
H856 N844 0.984 . S
H857 N844 0.985 . S
C858 C859 1.363 . S
C858 C864 1.379 1_455 S
C858 N866 1.356 . S
C859 C858 1.363 . S
C859 C865 1.363 . S
C860 C861 1.363 . S
C860 C865 1.379 1_655 S
C860 N867 1.356 . S
C861 C860 1.363 . S
C861 C864 1.363 . S
N862 C864 1.356 . S
N862 H874 0.984 . S
N862 H875 0.985 . S
N863 C865 1.356 . S
N863 H868 0.984 . S
N863 H869 0.985 . S
C864 C858 1.379 1_655 S
C864 C861 1.363 . S
C864 N862 1.356 . S
C865 C859 1.363 . S
C865 C860 1.379 1_455 S
C865 N863 1.356 . S
N866 C858 1.356 . S
N866 H872 0.984 . S
N866 H873 0.984 . S
N867 C860 1.356 . S
N867 H870 0.984 . S
N867 H871 0.985 . S
H868 N863 0.984 . S
H869 N863 0.985 . S
H870 N867 0.984 . S
H871 N867 0.985 . S
H872 N866 0.984 . S
H873 N866 0.984 . S
H874 N862 0.984 . S
H875 N862 0.985 . S
C876 C877 1.363 . S
C876 C882 1.379 1_556 S
C876 N884 1.356 . S
C877 C876 1.363 . S
C877 C883 1.363 1_565 S
C878 C879 1.363 . S
C878 C883 1.379 1_554 S
C878 N885 1.356 . S
C879 C878 1.363 . S
C879 C882 1.363 1_545 S
N880 C882 1.356 . S
N880 H892 0.984 . S
N880 H893 0.985 . S
N881 C883 1.356 . S
N881 H886 0.984 . S
N881 H887 0.985 . S
C882 C876 1.379 1_554 S
C882 C879 1.363 1_565 S
C882 N880 1.356 . S
C883 C877 1.363 1_545 S
C883 C878 1.379 1_556 S
C883 N881 1.356 . S
N884 C876 1.356 . S
N884 H890 0.984 . S
N884 H891 0.984 . S
N885 C878 1.356 . S
N885 H888 0.984 . S
N885 H889 0.985 . S
H886 N881 0.984 . S
H887 N881 0.985 . S
H888 N885 0.984 . S
H889 N885 0.985 . S
H890 N884 0.984 . S
H891 N884 0.984 . S
H892 N880 0.984 . S
H893 N880 0.985 . S
C894 C895 1.363 . S
C894 C900 1.379 . S
C894 N902 1.356 . S
C895 C894 1.363 . S
C895 C901 1.363 . S
C896 C897 1.363 . S
C896 C901 1.379 . S
C896 N903 1.356 . S
C897 C896 1.363 . S
C897 C900 1.363 . S
N898 C900 1.356 . S
N898 H910 0.984 . S
N898 H911 0.985 . S
N899 C901 1.356 . S
N899 H904 0.984 . S
N899 H905 0.985 . S
C900 C894 1.379 . S
C900 C897 1.363 . S
C900 N898 1.356 . S
C901 C895 1.363 . S
C901 C896 1.379 . S
C901 N899 1.356 . S
N902 C894 1.356 . S
N902 H908 0.984 . S
N902 H909 0.984 . S
N903 C896 1.356 . S
N903 H906 0.984 . S
N903 H907 0.985 . S
H904 N899 0.984 . S
H905 N899 0.985 . S
H906 N903 0.984 . S
H907 N903 0.985 . S
H908 N902 0.984 . S
H909 N902 0.984 . S
H910 N898 0.984 . S
H911 N898 0.985 . S
C912 C913 1.363 . S
C912 C918 1.379 1_654 S
C912 N920 1.356 . S
C913 C912 1.363 . S
C913 C919 1.363 . S
C914 C915 1.363 . S
C914 C919 1.379 1_456 S
C914 N921 1.356 . S
C915 C914 1.363 . S
C915 C918 1.363 . S
N916 C918 1.356 . S
N916 H928 0.984 . S
N916 H929 0.985 . S
N917 C919 1.356 . S
N917 H922 0.984 . S
N917 H923 0.985 . S
C918 C912 1.379 1_456 S
C918 C915 1.363 . S
C918 N916 1.356 . S
C919 C913 1.363 . S
C919 C914 1.379 1_654 S
C919 N917 1.356 . S
N920 C912 1.356 . S
N920 H926 0.984 . S
N920 H927 0.984 . S
N921 C914 1.356 . S
N921 H924 0.984 . S
N921 H925 0.985 . S
H922 N917 0.984 . S
H923 N917 0.985 . S
H924 N921 0.984 . S
H925 N921 0.985 . S
H926 N920 0.984 . S
H927 N920 0.984 . S
H928 N916 0.984 . S
H929 N916 0.985 . S
C930 C931 1.363 . S
C930 C936 1.379 . S
C930 N938 1.356 . S
C931 C930 1.363 . S
C931 C937 1.363 1_565 S
C932 C933 1.363 . S
C932 C937 1.379 . S
C932 N939 1.356 . S
C933 C932 1.363 . S
C933 C936 1.363 1_545 S
N934 C936 1.356 . S
N934 H946 0.984 . S
N934 H947 0.985 . S
N935 C937 1.356 . S
N935 H940 0.984 . S
N935 H941 0.985 . S
C936 C930 1.379 . S
C936 C933 1.363 1_565 S
C936 N934 1.356 . S
C937 C931 1.363 1_545 S
C937 C932 1.379 . S
C937 N935 1.356 . S
N938 C930 1.356 . S
N938 H944 0.984 . S
N938 H945 0.984 . S
N939 C932 1.356 . S
N939 H942 0.984 . S
N939 H943 0.985 . S
H940 N935 0.984 . S
H941 N935 0.985 . S
H942 N939 0.984 . S
H943 N939 0.985 . S
H944 N938 0.984 . S
H945 N938 0.984 . S
H946 N934 0.984 . S
H947 N934 0.985 . S
C948 C949 1.363 . S
C948 C954 1.379 1_554 S
C948 N956 1.356 . S
C949 C948 1.363 . S
C949 C955 1.363 . S
C950 C951 1.363 . S
C950 C955 1.379 1_556 S
C950 N957 1.356 . S
C951 C950 1.363 . S
C951 C954 1.363 . S
N952 C954 1.356 . S
N952 H964 0.984 . S
N952 H965 0.985 . S
N953 C955 1.356 . S
N953 H958 0.984 . S
N953 H959 0.985 . S
C954 C948 1.379 1_556 S
C954 C951 1.363 . S
C954 N952 1.356 . S
C955 C949 1.363 . S
C955 C950 1.379 1_554 S
C955 N953 1.356 . S
N956 C948 1.356 . S
N956 H962 0.984 . S
N956 H963 0.984 . S
N957 C950 1.356 . S
N957 H960 0.984 . S
N957 H961 0.985 . S
H958 N953 0.984 . S
H959 N953 0.985 . S
H960 N957 0.984 . S
H961 N957 0.985 . S
H962 N956 0.984 . S
H963 N956 0.984 . S
H964 N952 0.984 . S
H965 N952 0.985 . S
C966 C967 1.363 . S
C966 C972 1.379 . S
C966 N974 1.356 . S
C967 C966 1.363 . S
C967 C973 1.363 1_455 S
C968 C969 1.363 . S
C968 C973 1.379 . S
C968 N975 1.356 . S
C969 C968 1.363 . S
C969 C972 1.363 1_655 S
N970 C972 1.356 . S
N970 H982 0.984 . S
N970 H983 0.985 . S
N971 C973 1.356 . S
N971 H976 0.984 . S
N971 H977 0.985 . S
C972 C966 1.379 . S
C972 C969 1.363 1_455 S
C972 N970 1.356 . S
C973 C967 1.363 1_655 S
C973 C968 1.379 . S
C973 N971 1.356 . S
N974 C966 1.356 . S
N974 H980 0.984 . S
N974 H981 0.984 . S
N975 C968 1.356 . S
N975 H978 0.984 . S
N975 H979 0.985 . S
H976 N971 0.984 . S
H977 N971 0.985 . S
H978 N975 0.984 . S
H979 N975 0.985 . S
H980 N974 0.984 . S
H981 N974 0.984 . S
H982 N970 0.984 . S
H983 N970 0.985 . S
C984 C985 1.363 . S
C984 C990 1.379 . S
C984 N992 1.356 . S
C985 C984 1.363 . S
C985 C991 1.363 . S
C986 C987 1.363 . S
C986 C991 1.379 . S
C986 N993 1.356 . S
C987 C986 1.363 . S
C987 C990 1.363 . S
N988 C990 1.356 . S
N988 H1000 0.984 . S
N988 H1001 0.985 . S
N989 C991 1.356 . S
N989 H994 0.984 . S
N989 H995 0.985 . S
C990 C984 1.379 . S
C990 C987 1.363 . S
C990 N988 1.356 . S
C991 C985 1.363 . S
C991 C986 1.379 . S
C991 N989 1.356 . S
N992 C984 1.356 . S
N992 H998 0.984 . S
N992 H999 0.984 . S
N993 C986 1.356 . S
N993 H996 0.984 . S
N993 H997 0.985 . S
H994 N989 0.984 . S
H995 N989 0.985 . S
H996 N993 0.984 . S
H997 N993 0.985 . S
H998 N992 0.984 . S
H999 N992 0.984 . S
H1000 N988 0.984 . S
H1001 N988 0.985 . S
C1002 C1003 1.363 . S
C1002 C1008 1.379 . S
C1002 N1010 1.356 . S
C1003 C1002 1.363 . S
C1003 C1009 1.363 . S
C1004 C1005 1.363 . S
C1004 C1009 1.379 . S
C1004 N1011 1.356 . S
C1005 C1004 1.363 . S
C1005 C1008 1.363 . S
N1006 C1008 1.356 . S
N1006 H1018 0.984 . S
N1006 H1019 0.985 . S
N1007 C1009 1.356 . S
N1007 H1012 0.984 . S
N1007 H1013 0.985 . S
C1008 C1002 1.379 . S
C1008 C1005 1.363 . S
C1008 N1006 1.356 . S
C1009 C1003 1.363 . S
C1009 C1004 1.379 . S
C1009 N1007 1.356 . S
N1010 C1002 1.356 . S
N1010 H1016 0.984 . S
N1010 H1017 0.984 . S
N1011 C1004 1.356 . S
N1011 H1014 0.984 . S
N1011 H1015 0.985 . S
H1012 N1007 0.984 . S
H1013 N1007 0.985 . S
H1014 N1011 0.984 . S
H1015 N1011 0.985 . S
H1016 N1010 0.984 . S
H1017 N1010 0.984 . S
H1018 N1006 0.984 . S
H1019 N1006 0.985 . S
C1020 C1021 1.363 . S
C1020 C1026 1.379 . S
C1020 N1028 1.356 . S
C1021 C1020 1.363 . S
C1021 C1027 1.363 . S
C1022 C1023 1.363 . S
C1022 C1027 1.379 . S
C1022 N1029 1.356 . S
C1023 C1022 1.363 . S
C1023 C1026 1.363 . S
N1024 C1026 1.356 . S
N1024 H1036 0.984 . S
N1024 H1037 0.985 . S
N1025 C1027 1.356 . S
N1025 H1030 0.984 . S
N1025 H1031 0.985 . S
C1026 C1020 1.379 . S
C1026 C1023 1.363 . S
C1026 N1024 1.356 . S
C1027 C1021 1.363 . S
C1027 C1022 1.379 . S
C1027 N1025 1.356 . S
N1028 C1020 1.356 . S
N1028 H1034 0.984 . S
N1028 H1035 0.984 . S
N1029 C1022 1.356 . S
N1029 H1032 0.984 . S
N1029 H1033 0.985 . S
H1030 N1025 0.984 . S
H1031 N1025 0.985 . S
H1032 N1029 0.984 . S
H1033 N1029 0.985 . S
H1034 N1028 0.984 . S
H1035 N1028 0.984 . S
H1036 N1024 0.984 . S
H1037 N1024 0.985 . S
C1038 C1039 1.363 . S
C1038 C1044 1.379 . S
C1038 N1046 1.356 . S
C1039 C1038 1.363 . S
C1039 C1045 1.363 . S
C1040 C1041 1.363 . S
C1040 C1045 1.379 . S
C1040 N1047 1.356 . S
C1041 C1040 1.363 . S
C1041 C1044 1.363 . S
N1042 C1044 1.356 . S
N1042 H1054 0.984 . S
N1042 H1055 0.985 . S
N1043 C1045 1.356 . S
N1043 H1048 0.984 . S
N1043 H1049 0.985 . S
C1044 C1038 1.379 . S
C1044 C1041 1.363 . S
C1044 N1042 1.356 . S
C1045 C1039 1.363 . S
C1045 C1040 1.379 . S
C1045 N1043 1.356 . S
N1046 C1038 1.356 . S
N1046 H1052 0.984 . S
N1046 H1053 0.984 . S
N1047 C1040 1.356 . S
N1047 H1050 0.984 . S
N1047 H1051 0.985 . S
H1048 N1043 0.984 . S
H1049 N1043 0.985 . S
H1050 N1047 0.984 . S
H1051 N1047 0.985 . S
H1052 N1046 0.984 . S
H1053 N1046 0.984 . S
H1054 N1042 0.984 . S
H1055 N1042 0.985 . S
C1056 C1057 1.363 . S
C1056 C1062 1.379 . S
C1056 N1064 1.356 . S
C1057 C1056 1.363 . S
C1057 C1063 1.363 . S
C1058 C1059 1.363 . S
C1058 C1063 1.379 . S
C1058 N1065 1.356 . S
C1059 C1058 1.363 . S
C1059 C1062 1.363 . S
N1060 C1062 1.356 . S
N1060 H1072 0.984 . S
N1060 H1073 0.985 . S
N1061 C1063 1.356 . S
N1061 H1066 0.984 . S
N1061 H1067 0.985 . S
C1062 C1056 1.379 . S
C1062 C1059 1.363 . S
C1062 N1060 1.356 . S
C1063 C1057 1.363 . S
C1063 C1058 1.379 . S
C1063 N1061 1.356 . S
N1064 C1056 1.356 . S
N1064 H1070 0.984 . S
N1064 H1071 0.984 . S
N1065 C1058 1.356 . S
N1065 H1068 0.984 . S
N1065 H1069 0.985 . S
H1066 N1061 0.984 . S
H1067 N1061 0.985 . S
H1068 N1065 0.984 . S
H1069 N1065 0.985 . S
H1070 N1064 0.984 . S
H1071 N1064 0.984 . S
H1072 N1060 0.984 . S
H1073 N1060 0.985 . S
C1074 C1075 1.363 . S
C1074 C1080 1.379 . S
C1074 N1082 1.356 . S
C1075 C1074 1.363 . S
C1075 C1081 1.363 . S
C1076 C1077 1.363 . S
C1076 C1081 1.379 . S
C1076 N1083 1.356 . S
C1077 C1076 1.363 . S
C1077 C1080 1.363 . S
N1078 C1080 1.356 . S
N1078 H1090 0.984 . S
N1078 H1091 0.985 . S
N1079 C1081 1.356 . S
N1079 H1084 0.984 . S
N1079 H1085 0.985 . S
C1080 C1074 1.379 . S
C1080 C1077 1.363 . S
C1080 N1078 1.356 . S
C1081 C1075 1.363 . S
C1081 C1076 1.379 . S
C1081 N1079 1.356 . S
N1082 C1074 1.356 . S
N1082 H1088 0.984 . S
N1082 H1089 0.984 . S
N1083 C1076 1.356 . S
N1083 H1086 0.984 . S
N1083 H1087 0.985 . S
H1084 N1079 0.984 . S
H1085 N1079 0.985 . S
H1086 N1083 0.984 . S
H1087 N1083 0.985 . S
H1088 N1082 0.984 . S
H1089 N1082 0.984 . S
H1090 N1078 0.984 . S
H1091 N1078 0.985 . S
C1092 C1093 1.363 . S
C1092 C1098 1.379 . S
C1092 N1100 1.356 . S
C1093 C1092 1.363 . S
C1093 C1099 1.363 . S
C1094 C1095 1.363 . S
C1094 C1099 1.379 . S
C1094 N1101 1.356 . S
C1095 C1094 1.363 . S
C1095 C1098 1.363 . S
N1096 C1098 1.356 . S
N1096 H1108 0.984 . S
N1096 H1109 0.985 . S
N1097 C1099 1.356 . S
N1097 H1102 0.984 . S
N1097 H1103 0.985 . S
C1098 C1092 1.379 . S
C1098 C1095 1.363 . S
C1098 N1096 1.356 . S
C1099 C1093 1.363 . S
C1099 C1094 1.379 . S
C1099 N1097 1.356 . S
N1100 C1092 1.356 . S
N1100 H1106 0.984 . S
N1100 H1107 0.984 . S
N1101 C1094 1.356 . S
N1101 H1104 0.984 . S
N1101 H1105 0.985 . S
H1102 N1097 0.984 . S
H1103 N1097 0.985 . S
H1104 N1101 0.984 . S
H1105 N1101 0.985 . S
H1106 N1100 0.984 . S
H1107 N1100 0.984 . S
H1108 N1096 0.984 . S
H1109 N1096 0.985 . S
C1110 C1111 1.363 . S
C1110 C1116 1.379 . S
C1110 N1118 1.356 . S
C1111 C1110 1.363 . S
C1111 C1117 1.363 . S
C1112 C1113 1.363 . S
C1112 C1117 1.379 . S
C1112 N1119 1.356 . S
C1113 C1112 1.363 . S
C1113 C1116 1.363 . S
N1114 C1116 1.356 . S
N1114 H1126 0.984 . S
N1114 H1127 0.985 . S
N1115 C1117 1.356 . S
N1115 H1120 0.984 . S
N1115 H1121 0.985 . S
C1116 C1110 1.379 . S
C1116 C1113 1.363 . S
C1116 N1114 1.356 . S
C1117 C1111 1.363 . S
C1117 C1112 1.379 . S
C1117 N1115 1.356 . S
N1118 C1110 1.356 . S
N1118 H1124 0.984 . S
N1118 H1125 0.984 . S
N1119 C1112 1.356 . S
N1119 H1122 0.984 . S
N1119 H1123 0.985 . S
H1120 N1115 0.984 . S
H1121 N1115 0.985 . S
H1122 N1119 0.984 . S
H1123 N1119 0.985 . S
H1124 N1118 0.984 . S
H1125 N1118 0.984 . S
H1126 N1114 0.984 . S
H1127 N1114 0.985 . S
C1128 C1129 1.363 . S
C1128 C1134 1.379 . S
C1128 N1136 1.356 . S
C1129 C1128 1.363 . S
C1129 C1135 1.363 . S
C1130 C1131 1.363 . S
C1130 C1135 1.379 . S
C1130 N1137 1.356 . S
C1131 C1130 1.363 . S
C1131 C1134 1.363 . S
N1132 C1134 1.356 . S
N1132 H1144 0.984 . S
N1132 H1145 0.985 . S
N1133 C1135 1.356 . S
N1133 H1138 0.984 . S
N1133 H1139 0.985 . S
C1134 C1128 1.379 . S
C1134 C1131 1.363 . S
C1134 N1132 1.356 . S
C1135 C1129 1.363 . S
C1135 C1130 1.379 . S
C1135 N1133 1.356 . S
N1136 C1128 1.356 . S
N1136 H1142 0.984 . S
N1136 H1143 0.984 . S
N1137 C1130 1.356 . S
N1137 H1140 0.984 . S
N1137 H1141 0.985 . S
H1138 N1133 0.984 . S
H1139 N1133 0.985 . S
H1140 N1137 0.984 . S
H1141 N1137 0.985 . S
H1142 N1136 0.984 . S
H1143 N1136 0.984 . S
H1144 N1132 0.984 . S
H1145 N1132 0.985 . S
C1146 C1147 1.363 . S
C1146 C1152 1.379 . S
C1146 N1154 1.356 . S
C1147 C1146 1.363 . S
C1147 C1153 1.363 . S
C1148 C1149 1.363 . S
C1148 C1153 1.379 . S
C1148 N1155 1.356 . S
C1149 C1148 1.363 . S
C1149 C1152 1.363 . S
N1150 C1152 1.356 . S
N1150 H1162 0.984 . S
N1150 H1163 0.985 . S
N1151 C1153 1.356 . S
N1151 H1156 0.984 . S
N1151 H1157 0.985 . S
C1152 C1146 1.379 . S
C1152 C1149 1.363 . S
C1152 N1150 1.356 . S
C1153 C1147 1.363 . S
C1153 C1148 1.379 . S
C1153 N1151 1.356 . S
N1154 C1146 1.356 . S
N1154 H1160 0.984 . S
N1154 H1161 0.984 . S
N1155 C1148 1.356 . S
N1155 H1158 0.984 . S
N1155 H1159 0.985 . S
H1156 N1151 0.984 . S
H1157 N1151 0.985 . S
H1158 N1155 0.984 . S
H1159 N1155 0.985 . S
H1160 N1154 0.984 . S
H1161 N1154 0.984 . S
H1162 N1150 0.984 . S
H1163 N1150 0.985 . S
C1164 C1165 1.363 . S
C1164 C1170 1.379 . S
C1164 N1172 1.356 . S
C1165 C1164 1.363 . S
C1165 C1171 1.363 . S
C1166 C1167 1.363 . S
C1166 C1171 1.379 . S
C1166 N1173 1.356 . S
C1167 C1166 1.363 . S
C1167 C1170 1.363 . S
N1168 C1170 1.356 . S
N1168 H1180 0.984 . S
N1168 H1181 0.985 . S
N1169 C1171 1.356 . S
N1169 H1174 0.984 . S
N1169 H1175 0.985 . S
C1170 C1164 1.379 . S
C1170 C1167 1.363 . S
C1170 N1168 1.356 . S
C1171 C1165 1.363 . S
C1171 C1166 1.379 . S
C1171 N1169 1.356 . S
N1172 C1164 1.356 . S
N1172 H1178 0.984 . S
N1172 H1179 0.984 . S
N1173 C1166 1.356 . S
N1173 H1176 0.984 . S
N1173 H1177 0.985 . S
H1174 N1169 0.984 . S
H1175 N1169 0.985 . S
H1176 N1173 0.984 . S
H1177 N1173 0.985 . S
H1178 N1172 0.984 . S
H1179 N1172 0.984 . S
H1180 N1168 0.984 . S
H1181 N1168 0.985 . S
C1182 C1183 1.363 . S
C1182 C1188 1.379 . S
C1182 N1190 1.356 . S
C1183 C1182 1.363 . S
C1183 C1189 1.363 . S
C1184 C1185 1.363 . S
C1184 C1189 1.379 . S
C1184 N1191 1.356 . S
C1185 C1184 1.363 . S
C1185 C1188 1.363 . S
N1186 C1188 1.356 . S
N1186 H1198 0.984 . S
N1186 H1199 0.985 . S
N1187 C1189 1.356 . S
N1187 H1192 0.984 . S
N1187 H1193 0.985 . S
C1188 C1182 1.379 . S
C1188 C1185 1.363 . S
C1188 N1186 1.356 . S
C1189 C1183 1.363 . S
C1189 C1184 1.379 . S
C1189 N1187 1.356 . S
N1190 C1182 1.356 . S
N1190 H1196 0.984 . S
N1190 H1197 0.984 . S
N1191 C1184 1.356 . S
N1191 H1194 0.984 . S
N1191 H1195 0.985 . S
H1192 N1187 0.984 . S
H1193 N1187 0.985 . S
H1194 N1191 0.984 . S
H1195 N1191 0.985 . S
H1196 N1190 0.984 . S
H1197 N1190 0.984 . S
H1198 N1186 0.984 . S
H1199 N1186 0.985 . S
C337 C218 1.327 . S
C339 C8 1.327 . S
C355 C22 1.327 . S
C357 C232 1.327 . S
C373 C36 1.327 . S
C375 C246 1.327 . S
C391 C50 1.327 . S
C393 C176 1.327 . S
C409 C190 1.327 . S
C411 C64 1.327 . S
C427 C78 1.327 . S
C429 C204 1.327 . S
C445 C302 1.327 . S
C447 C92 1.327 . S
C463 C106 1.327 . S
C465 C316 1.327 . S
C481 C120 1.327 . S
C483 C330 1.327 . S
C499 C260 1.327 . S
C501 C134 1.327 . S
C517 C148 1.327 . S
C519 C274 1.327 . S
C535 C288 1.327 . S
C537 C162 1.327 . S
C553 C6 1.582 . S
C555 C328 1.582 . S
C571 C258 1.582 . S
C573 C20 1.582 . S
C589 C34 1.582 . S
C591 C272 1.582 . S
C607 C286 1.582 . S
C609 C48 1.582 . S
C625 C62 1.582 . S
C627 C300 1.582 . S
C643 C314 1.582 . S
C645 C76 1.582 . S
C661 C90 1.582 . S
C663 C188 1.582 . S
C679 C202 1.582 . S
C681 C104 1.582 . S
C697 C216 1.582 . S
C699 C118 1.582 . S
C715 C230 1.582 . S
C717 C132 1.582 . S
C733 C146 1.582 . S
C735 C244 1.582 . S
C751 C160 1.582 . S
C753 C174 1.582 . S
C769 C105 1.438 . S
C771 C7 1.438 . S
C787 C119 1.438 . S
C789 C21 1.438 . S
C805 C133 1.438 . S
C807 C35 1.438 . S
C823 C147 1.438 . S
C825 C49 1.438 . S
C841 C63 1.438 . S
C843 C161 1.438 . S
C859 C77 1.438 . S
C861 C91 1.438 . S
C877 C175 1.438 . S
C879 C273 1.438 . S
C895 C189 1.438 . S
C897 C287 1.438 . S
C913 C301 1.438 . S
C915 C203 1.438 . S
C931 C315 1.438 . S
C933 C217 1.438 . S
C949 C329 1.438 . S
C951 C231 1.438 . S
C967 C259 1.438 . S
C969 C245 1.438 . S
C985 C9 1.719 . S
C987 C275 1.719 . S
C1003 C289 1.719 . S
C1005 C23 1.719 . S
C1021 C37 1.719 . S
C1023 C303 1.719 . S
C1039 C317 1.719 . S
C1041 C51 1.719 . S
C1057 C65 1.719 . S
C1059 C331 1.719 . S
C1075 C261 1.719 . S
C1077 C79 1.719 . S
C1093 C93 1.719 . S
C1095 C247 1.719 . S
C1111 C177 1.719 . S
C1113 C107 1.719 . S
C1129 C121 1.719 . S
C1131 C191 1.719 . S
C1147 C135 1.719 . S
C1149 C205 1.719 . S
C1165 C149 1.719 . S
C1167 C219 1.719 . S
C1183 C163 1.719 . S
C1185 C233 1.719 . S
