# Generated by pormake.
# Topology uot, (4)-cn, num edge types: 1
# Building blocks:
#     Node 0, Type 0, BuildingBlock: CEKHIL_clean_sbu_0, # of connection points: 4
#     Node 1, Type 0, BuildingBlock: CEKHIL_clean_sbu_0, # of connection points: 4
#     Node 2, Type 0, BuildingBlock: CEKHIL_clean_sbu_0, # of connection points: 4
#     Node 3, Type 0, BuildingBlock: CEKHIL_clean_sbu_0, # of connection points: 4
#     Node 4, Type 0, BuildingBlock: CEKHIL_clean_sbu_0, # of connection points: 4
#     Node 5, Type 0, BuildingBlock: CEKHIL_clean_sbu_0, # of connection points: 4
#     Node 6, Type 0, BuildingBlock: CEKHIL_clean_sbu_0, # of connection points: 4
#     Node 7, Type 0, BuildingBlock: CEKHIL_clean_sbu_0, # of connection points: 4
#     Node 8, Type 0, BuildingBlock: CEKHIL_clean_sbu_0, # of connection points: 4
#     Node 9, Type 0, BuildingBlock: CEKHIL_clean_sbu_0, # of connection points: 4
#     Node 10, Type 0, BuildingBlock: CEKHIL_clean_sbu_0, # of connection points: 4
#     Node 11, Type 0, BuildingBlock: CEKHIL_clean_sbu_0, # of connection points: 4
#     Node 12, Type 0, BuildingBlock: CEKHIL_clean_sbu_0, # of connection points: 4
#     Node 13, Type 0, BuildingBlock: CEKHIL_clean_sbu_0, # of connection points: 4
#     Node 14, Type 0, BuildingBlock: CEKHIL_clean_sbu_0, # of connection points: 4
#     Node 15, Type 0, BuildingBlock: CEKHIL_clean_sbu_0, # of connection points: 4
#     Edge 16, Type (0, 0), BuildingBlock: XUDNAN_clean_linker_2, # of connection points: 2
#     Edge 17, Type (0, 0), BuildingBlock: XUDNAN_clean_linker_2, # of connection points: 2
#     Edge 18, Type (0, 0), BuildingBlock: XUDNAN_clean_linker_2, # of connection points: 2
#     Edge 19, Type (0, 0), BuildingBlock: XUDNAN_clean_linker_2, # of connection points: 2
#     Edge 20, Type (0, 0), BuildingBlock: XUDNAN_clean_linker_2, # of connection points: 2
#     Edge 21, Type (0, 0), BuildingBlock: XUDNAN_clean_linker_2, # of connection points: 2
#     Edge 22, Type (0, 0), BuildingBlock: XUDNAN_clean_linker_2, # of connection points: 2
#     Edge 23, Type (0, 0), BuildingBlock: XUDNAN_clean_linker_2, # of connection points: 2
#     Edge 24, Type (0, 0), BuildingBlock: XUDNAN_clean_linker_2, # of connection points: 2
#     Edge 25, Type (0, 0), BuildingBlock: XUDNAN_clean_linker_2, # of connection points: 2
#     Edge 26, Type (0, 0), BuildingBlock: XUDNAN_clean_linker_2, # of connection points: 2
#     Edge 27, Type (0, 0), BuildingBlock: XUDNAN_clean_linker_2, # of connection points: 2
#     Edge 28, Type (0, 0), BuildingBlock: XUDNAN_clean_linker_2, # of connection points: 2
#     Edge 29, Type (0, 0), BuildingBlock: XUDNAN_clean_linker_2, # of connection points: 2
#     Edge 30, Type (0, 0), BuildingBlock: XUDNAN_clean_linker_2, # of connection points: 2
#     Edge 31, Type (0, 0), BuildingBlock: XUDNAN_clean_linker_2, # of connection points: 2
#     Edge 32, Type (0, 0), BuildingBlock: XUDNAN_clean_linker_2, # of connection points: 2
#     Edge 33, Type (0, 0), BuildingBlock: XUDNAN_clean_linker_2, # of connection points: 2
#     Edge 34, Type (0, 0), BuildingBlock: XUDNAN_clean_linker_2, # of connection points: 2
#     Edge 35, Type (0, 0), BuildingBlock: XUDNAN_clean_linker_2, # of connection points: 2
#     Edge 36, Type (0, 0), BuildingBlock: XUDNAN_clean_linker_2, # of connection points: 2
#     Edge 37, Type (0, 0), BuildingBlock: XUDNAN_clean_linker_2, # of connection points: 2
#     Edge 38, Type (0, 0), BuildingBlock: XUDNAN_clean_linker_2, # of connection points: 2
#     Edge 39, Type (0, 0), BuildingBlock: XUDNAN_clean_linker_2, # of connection points: 2
#     Edge 40, Type (0, 0), BuildingBlock: XUDNAN_clean_linker_2, # of connection points: 2
#     Edge 41, Type (0, 0), BuildingBlock: XUDNAN_clean_linker_2, # of connection points: 2
#     Edge 42, Type (0, 0), BuildingBlock: XUDNAN_clean_linker_2, # of connection points: 2
#     Edge 43, Type (0, 0), BuildingBlock: XUDNAN_clean_linker_2, # of connection points: 2
#     Edge 44, Type (0, 0), BuildingBlock: XUDNAN_clean_linker_2, # of connection points: 2
#     Edge 45, Type (0, 0), BuildingBlock: XUDNAN_clean_linker_2, # of connection points: 2
#     Edge 46, Type (0, 0), BuildingBlock: XUDNAN_clean_linker_2, # of connection points: 2
#     Edge 47, Type (0, 0), BuildingBlock: XUDNAN_clean_linker_2, # of connection points: 2
# Relax obj value: 0.066
# Max RMSD: 0.082
# Mean RMSD: 0.082
data_MOF--net-uot--node1-CEKHIL_clean_sbu_0--edge1-XUDNAN_clean_linker_2
_symmetry_space_group_name_H-M    P1
_symmetry_Int_Tables_number       1
_symmetry_cell_setting            triclinic
loop_
_symmetry_equiv_pos_as_xyz
'x, y, z'
_cell_length_a     44.139263
_cell_length_b     44.135731
_cell_length_c     40.371559
_cell_angle_alpha  90.036601
_cell_angle_beta   89.965271
_cell_angle_gamma 89.971616
loop_
_atom_site_label
_atom_site_type_symbol
_atom_site_fract_x
_atom_site_fract_y
_atom_site_fract_z
_atom_type_partial_charge
Co0 Co 0.2128 0.42463 0.32314 0.0
O1 O 0.23537 0.39079 0.33989 0.0
O2 O 0.25561 0.43062 0.31492 0.0
C3 C 0.17702 0.39647 0.29755 0.0
O4 O 0.19704 0.4636 0.30228 0.0
Co5 Co 0.14533 0.4361 0.34256 0.0
O6 O 0.14618 0.46535 0.30539 0.0
C7 C 0.1953 0.45498 0.3877 0.0
C8 C 0.25943 0.40431 0.32878 0.0
C9 C 0.17137 0.47578 0.29515 0.0
O10 O 0.21572 0.44591 0.36721 0.0
O11 O 0.16679 0.4516 0.38293 0.0
O12 O 0.20286 0.40147 0.28317 0.0
O13 O 0.17443 0.40669 0.32734 0.0
Co14 Co 0.42475 0.80728 0.66597 0.0
O15 O 0.38947 0.78533 0.65234 0.0
O16 O 0.42788 0.76528 0.67991 0.0
C17 C 0.39898 0.84744 0.68605 0.0
O18 O 0.46443 0.82311 0.6853 0.0
Co19 Co 0.44001 0.8707 0.6367 0.0
O20 O 0.47091 0.87217 0.67216 0.0
C21 C 0.45512 0.81481 0.59913 0.0
C22 C 0.40132 0.76176 0.66646 0.0
C23 C 0.47902 0.84832 0.68755 0.0
O24 O 0.4455 0.79769 0.62266 0.0
O25 O 0.45341 0.84377 0.59958 0.0
O26 O 0.40287 0.82348 0.70425 0.0
O27 O 0.40889 0.84568 0.65608 0.0
Co28 Co 0.79402 0.57051 0.31836 0.0
O29 O 0.77135 0.60538 0.33168 0.0
O30 O 0.75126 0.5636 0.3105 0.0
C31 C 0.83005 0.59637 0.29079 0.0
O32 O 0.81063 0.53026 0.30138 0.0
Co33 Co 0.86093 0.56214 0.34184 0.0
O34 O 0.86132 0.52957 0.30802 0.0
C35 C 0.80986 0.5528 0.38838 0.0
C36 C 0.74735 0.59077 0.3223 0.0
C37 C 0.83687 0.51819 0.29681 0.0
O38 O 0.79065 0.55361 0.36448 0.0
O39 O 0.83814 0.55843 0.38462 0.0
O40 O 0.80447 0.59027 0.27635 0.0
O41 O 0.83192 0.58888 0.32153 0.0
Co42 Co 0.57782 0.20388 0.6736 0.0
O43 O 0.60963 0.22697 0.65338 0.0
O44 O 0.57285 0.24629 0.68429 0.0
C45 C 0.60762 0.16693 0.69403 0.0
O46 O 0.54178 0.18712 0.69936 0.0
Co47 Co 0.56416 0.13788 0.64977 0.0
O48 O 0.53397 0.13814 0.68592 0.0
C49 C 0.5426 0.19022 0.61063 0.0
C50 C 0.5973 0.25065 0.66694 0.0
C51 C 0.52748 0.16186 0.70243 0.0
O52 O 0.55213 0.20891 0.6327 0.0
O53 O 0.54689 0.16156 0.61199 0.0
O54 O 0.60489 0.19246 0.70977 0.0
O55 O 0.59482 0.16565 0.66534 0.0
Co56 Co 0.19987 0.58048 0.66748 0.0
O57 O 0.22074 0.61721 0.65704 0.0
O58 O 0.24261 0.57655 0.67842 0.0
C59 C 0.1607 0.60377 0.69278 0.0
O60 O 0.18517 0.53886 0.68218 0.0
Co61 Co 0.13522 0.56822 0.63987 0.0
O62 O 0.13488 0.53556 0.67363 0.0
C63 C 0.18922 0.56094 0.59661 0.0
C64 C 0.24516 0.60436 0.66799 0.0
C65 C 0.15954 0.5253 0.68556 0.0
O66 O 0.20725 0.56463 0.62132 0.0
O67 O 0.1604 0.56406 0.59872 0.0
O68 O 0.18533 0.59805 0.70923 0.0
O69 O 0.16117 0.59697 0.66178 0.0
Co70 Co 0.57655 0.79479 0.31959 0.0
O71 O 0.60945 0.77076 0.33582 0.0
O72 O 0.56948 0.75257 0.30918 0.0
C73 C 0.60513 0.83118 0.29613 0.0
O74 O 0.5389 0.81291 0.29831 0.0
Co75 Co 0.56711 0.86046 0.34628 0.0
O76 O 0.5332 0.86158 0.31419 0.0
C77 C 0.55407 0.80782 0.38872 0.0
C78 C 0.59531 0.74749 0.32367 0.0
C79 C 0.52488 0.83849 0.29756 0.0
O80 O 0.55505 0.79017 0.3634 0.0
O81 O 0.56158 0.83581 0.38752 0.0
O82 O 0.6003 0.80591 0.2805 0.0
O83 O 0.59522 0.83237 0.32615 0.0
Co84 Co 0.79761 0.42532 0.66704 0.0
O85 O 0.77414 0.39331 0.64778 0.0
O86 O 0.75524 0.4312 0.67737 0.0
C87 C 0.83388 0.39539 0.68855 0.0
O88 O 0.81476 0.46182 0.69164 0.0
Co89 Co 0.86413 0.43729 0.64379 0.0
O90 O 0.86398 0.46865 0.67874 0.0
C91 C 0.81248 0.45807 0.603 0.0
C92 C 0.75062 0.40624 0.66099 0.0
C93 C 0.84012 0.47598 0.69459 0.0
O94 O 0.79334 0.44992 0.62528 0.0
O95 O 0.84099 0.453 0.60489 0.0
O96 O 0.80841 0.39903 0.70416 0.0
O97 O 0.83554 0.40753 0.65957 0.0
Co98 Co 0.43071 0.19849 0.32799 0.0
O99 O 0.39535 0.22217 0.33658 0.0
O100 O 0.43825 0.24063 0.31648 0.0
C101 C 0.4059 0.16042 0.30261 0.0
O102 O 0.47163 0.1802 0.31558 0.0
Co103 Co 0.43603 0.13437 0.35979 0.0
O104 O 0.47436 0.13208 0.33433 0.0
C105 C 0.44343 0.18925 0.40082 0.0
C106 C 0.41057 0.24546 0.32641 0.0
C107 C 0.48537 0.15461 0.31871 0.0
O108 O 0.44498 0.20589 0.37473 0.0
O109 O 0.43668 0.16104 0.39996 0.0
O110 O 0.41378 0.18427 0.28581 0.0
O111 O 0.41126 0.1614 0.3339 0.0
Co112 Co 0.70385 0.92443 0.8268 0.0
O113 O 0.7258 0.89073 0.84484 0.0
O114 O 0.74695 0.93061 0.82091 0.0
C115 C 0.66956 0.89613 0.79954 0.0
O116 O 0.6889 0.96301 0.80458 0.0
Co117 Co 0.63577 0.93567 0.84271 0.0
O118 O 0.638 0.96501 0.80563 0.0
C119 C 0.68331 0.95315 0.89131 0.0
C120 C 0.75028 0.90434 0.83505 0.0
C121 C 0.66356 0.97507 0.79597 0.0
O122 O 0.70457 0.94562 0.87106 0.0
O123 O 0.65511 0.94908 0.88523 0.0
O124 O 0.69577 0.90154 0.7862 0.0
O125 O 0.66558 0.90616 0.8292 0.0
Co126 Co 0.93375 0.29434 0.16903 0.0
O127 O 0.89927 0.27342 0.15128 0.0
O128 O 0.93911 0.25099 0.17382 0.0
C129 C 0.90651 0.32886 0.19757 0.0
O130 O 0.97319 0.30838 0.19062 0.0
Co131 Co 0.94574 0.36259 0.15383 0.0
O132 O 0.97504 0.35934 0.19078 0.0
C133 C 0.96076 0.3153 0.10393 0.0
C134 C 0.91249 0.24848 0.16028 0.0
C135 C 0.98537 0.33362 0.19954 0.0
O136 O 0.95402 0.2939 0.12428 0.0
O137 O 0.95703 0.34348 0.1105 0.0
O138 O 0.91128 0.30218 0.21008 0.0
O139 O 0.91637 0.333 0.16788 0.0
Co140 Co 0.29881 0.08311 0.82985 0.0
O141 O 0.27485 0.11475 0.84888 0.0
O142 O 0.25733 0.07942 0.81466 0.0
C143 C 0.33803 0.11242 0.81452 0.0
O144 O 0.31727 0.04723 0.80509 0.0
Co145 Co 0.36176 0.06762 0.86051 0.0
O146 O 0.3648 0.03866 0.82329 0.0
C147 C 0.30567 0.04637 0.89293 0.0
C148 C 0.25208 0.10296 0.83324 0.0
C149 C 0.34261 0.03274 0.80419 0.0
O150 O 0.2894 0.05679 0.8692 0.0
O151 O 0.33439 0.04983 0.8949 0.0
O152 O 0.31429 0.11021 0.79565 0.0
O153 O 0.33617 0.09935 0.843 0.0
Co154 Co 0.07661 0.70451 0.17881 0.0
O155 O 0.11039 0.72774 0.1634 0.0
O156 O 0.0694 0.74707 0.18723 0.0
C157 C 0.10459 0.66897 0.20482 0.0
O158 O 0.03739 0.68777 0.198 0.0
Co159 Co 0.0672 0.63711 0.1578 0.0
O160 O 0.03663 0.63694 0.19373 0.0
C161 C 0.04963 0.68735 0.11257 0.0
C162 C 0.09589 0.75146 0.17395 0.0
C163 C 0.02543 0.66178 0.20408 0.0
O164 O 0.05683 0.70757 0.13408 0.0
O165 O 0.05363 0.65885 0.11684 0.0
O166 O 0.09867 0.69452 0.21946 0.0
O167 O 0.09537 0.66664 0.17464 0.0
Co168 Co 0.70748 0.07648 0.1739 0.0
O169 O 0.72913 0.11154 0.15887 0.0
O170 O 0.75073 0.06933 0.17682 0.0
C171 C 0.67432 0.10166 0.20639 0.0
O172 O 0.69243 0.03612 0.1921 0.0
Co173 Co 0.63897 0.06834 0.15798 0.0
O174 O 0.64144 0.03639 0.19246 0.0
C175 C 0.68512 0.05565 0.1064 0.0
C176 C 0.75381 0.09675 0.16546 0.0
C177 C 0.66675 0.02451 0.20032 0.0
O178 O 0.70656 0.05978 0.12749 0.0
O179 O 0.6571 0.06008 0.1132 0.0
O180 O 0.70125 0.09518 0.21724 0.0
O181 O 0.66939 0.09523 0.17567 0.0
Co182 Co 0.0778 0.29787 0.81715 0.0
O183 O 0.11168 0.27667 0.83576 0.0
O184 O 0.07196 0.25477 0.81182 0.0
C185 C 0.10495 0.33279 0.78926 0.0
O186 O 0.03894 0.31212 0.79496 0.0
Co187 Co 0.06566 0.36577 0.83425 0.0
O188 O 0.0352 0.3629 0.79831 0.0
C189 C 0.05268 0.31776 0.8835 0.0
C190 C 0.09788 0.25204 0.82676 0.0
C191 C 0.02596 0.33735 0.78769 0.0
O192 O 0.05694 0.29705 0.86156 0.0
O193 O 0.0576 0.34594 0.87806 0.0
O194 O 0.10083 0.30605 0.77655 0.0
O195 O 0.095 0.33652 0.81899 0.0
Co196 Co 0.29797 0.92474 0.16728 0.0
O197 O 0.27382 0.89062 0.1551 0.0
O198 O 0.25665 0.93091 0.1821 0.0
C199 C 0.33717 0.89782 0.18708 0.0
O200 O 0.31661 0.96361 0.18497 0.0
Co201 Co 0.36043 0.93559 0.13386 0.0
O202 O 0.36407 0.96971 0.16561 0.0
C203 C 0.30385 0.94437 0.09641 0.0
C204 C 0.2512 0.90457 0.16887 0.0
C205 C 0.34193 0.97803 0.18376 0.0
O206 O 0.28851 0.94426 0.12345 0.0
O207 O 0.33211 0.93792 0.09515 0.0
O208 O 0.31382 0.90319 0.20583 0.0
O209 O 0.33505 0.90667 0.15677 0.0
Co210 Co 0.92154 0.69892 0.83358 0.0
O211 O 0.88819 0.72276 0.84923 0.0
O212 O 0.92802 0.74123 0.82267 0.0
C213 C 0.89288 0.66221 0.811 0.0
O214 O 0.95964 0.68107 0.81268 0.0
Co215 Co 0.93176 0.6332 0.8591 0.0
O216 O 0.96502 0.63186 0.82617 0.0
C217 C 0.94492 0.68579 0.90216 0.0
C218 C 0.90201 0.74612 0.83694 0.0
C219 C 0.97355 0.65547 0.8106 0.0
O220 O 0.94259 0.7041 0.87751 0.0
O221 O 0.93837 0.65758 0.90025 0.0
O222 O 0.89847 0.68678 0.79436 0.0
O223 O 0.90285 0.66152 0.84095 0.0
H224 H 0.2741 0.35452 0.36459 0.0
H225 H 0.31135 0.41875 0.29433 0.0
H226 H 0.35813 0.38779 0.29037 0.0
H227 H 0.34686 0.33425 0.40568 0.0
H228 H 0.33522 0.29533 0.41016 0.0
H229 H 0.30735 0.32519 0.41107 0.0
H230 H 0.27803 0.29883 0.36342 0.0
H231 H 0.30582 0.26912 0.36216 0.0
H232 H 0.29745 0.29042 0.32519 0.0
H233 H 0.39828 0.34544 0.28926 0.0
H234 H 0.42686 0.2969 0.29153 0.0
H235 H 0.36166 0.26197 0.36218 0.0
C236 C 0.29237 0.36253 0.34896 0.0
C237 C 0.28918 0.38901 0.32982 0.0
C238 C 0.31349 0.3986 0.30945 0.0
C239 C 0.34012 0.38115 0.30705 0.0
C240 C 0.3421 0.3545 0.32553 0.0
C241 C 0.3189 0.34554 0.3464 0.0
C242 C 0.32506 0.31495 0.36163 0.0
C243 C 0.32886 0.3176 0.39938 0.0
C244 C 0.30012 0.292 0.35253 0.0
C245 C 0.35472 0.30734 0.34502 0.0
C246 C 0.36467 0.33047 0.3247 0.0
C247 C 0.39087 0.3274 0.3055 0.0
C248 C 0.40695 0.29982 0.30689 0.0
C249 C 0.39635 0.27573 0.32691 0.0
C250 C 0.37029 0.27996 0.34656 0.0
H251 H 0.34354 0.75254 0.64637 0.0
H252 H 0.42008 0.7062 0.69077 0.0
H253 H 0.38934 0.65916 0.69468 0.0
H254 H 0.28736 0.71914 0.69711 0.0
H255 H 0.25954 0.71773 0.66449 0.0
H256 H 0.28831 0.74659 0.66409 0.0
H257 H 0.30482 0.72965 0.60521 0.0
H258 H 0.27607 0.70073 0.60543 0.0
H259 H 0.31508 0.69064 0.59804 0.0
H260 H 0.34804 0.61721 0.69467 0.0
H261 H 0.30125 0.58599 0.69141 0.0
H262 H 0.25378 0.66207 0.64744 0.0
C263 C 0.3541 0.73248 0.65665 0.0
C264 C 0.38426 0.73296 0.66808 0.0
C265 C 0.39698 0.70626 0.68174 0.0
C266 C 0.3797 0.67949 0.68404 0.0
C267 C 0.34981 0.67996 0.67265 0.0
C268 C 0.33727 0.70592 0.65928 0.0
C269 C 0.30453 0.70143 0.64985 0.0
C270 C 0.28372 0.72246 0.6701 0.0
C271 C 0.29987 0.70586 0.61241 0.0
C272 C 0.30042 0.66876 0.65973 0.0
C273 C 0.32661 0.65652 0.67287 0.0
C274 C 0.3275 0.62664 0.68429 0.0
C275 C 0.30088 0.60907 0.68233 0.0
C276 C 0.2739 0.62156 0.6691 0.0
C277 C 0.27399 0.65171 0.65757 0.0
H278 H 0.64375 0.73082 0.36046 0.0
H279 H 0.57891 0.69607 0.28933 0.0
H280 H 0.60743 0.64769 0.28679 0.0
H281 H 0.70693 0.70417 0.32248 0.0
H282 H 0.72743 0.69522 0.35982 0.0
H283 H 0.69898 0.72431 0.36039 0.0
H284 H 0.67088 0.69661 0.40801 0.0
H285 H 0.69944 0.6674 0.40773 0.0
H286 H 0.66008 0.6575 0.4029 0.0
H287 H 0.64763 0.6059 0.28668 0.0
H288 H 0.69515 0.57583 0.28862 0.0
H289 H 0.73248 0.63948 0.35949 0.0
C290 C 0.63507 0.7128 0.34492 0.0
C291 C 0.60918 0.71711 0.32511 0.0
C292 C 0.59866 0.69309 0.30491 0.0
C293 C 0.61468 0.66555 0.30336 0.0
C294 C 0.64082 0.66242 0.32253 0.0
C295 C 0.65066 0.68541 0.34319 0.0
C296 C 0.68079 0.67801 0.35888 0.0
C297 C 0.70493 0.70183 0.34982 0.0
C298 C 0.67759 0.67467 0.39662 0.0
C299 C 0.68721 0.6479 0.34267 0.0
C300 C 0.66375 0.63881 0.32227 0.0
C301 C 0.66587 0.61258 0.30303 0.0
C302 C 0.69288 0.59565 0.30426 0.0
C303 C 0.71739 0.60543 0.32417 0.0
C304 C 0.71407 0.63143 0.34409 0.0
H305 H 0.646 0.26533 0.62909 0.0
H306 H 0.58199 0.30335 0.6993 0.0
H307 H 0.61091 0.35143 0.69944 0.0
H308 H 0.70978 0.29318 0.66536 0.0
H309 H 0.73006 0.30055 0.62744 0.0
H310 H 0.70151 0.2716 0.62852 0.0
H311 H 0.67326 0.29754 0.57986 0.0
H312 H 0.7019 0.32662 0.57855 0.0
H313 H 0.66259 0.33686 0.58324 0.0
H314 H 0.65111 0.39253 0.69759 0.0
H315 H 0.69862 0.4222 0.69429 0.0
H316 H 0.73537 0.3564 0.62524 0.0
C317 C 0.63757 0.28399 0.64389 0.0
C318 C 0.61175 0.28068 0.66413 0.0
C319 C 0.60166 0.30552 0.68343 0.0
C320 C 0.6179 0.33291 0.6836 0.0
C321 C 0.64387 0.33509 0.66402 0.0
C322 C 0.65342 0.31131 0.64429 0.0
C323 C 0.68349 0.31799 0.628 0.0
C324 C 0.70761 0.29444 0.63795 0.0
C325 C 0.68009 0.31987 0.59016 0.0
C326 C 0.69014 0.34871 0.64275 0.0
C327 C 0.66687 0.35855 0.66302 0.0
C328 C 0.6692 0.38529 0.6813 0.0
C329 C 0.69625 0.40199 0.6793 0.0
C330 C 0.72061 0.3916 0.65945 0.0
C331 C 0.71706 0.36506 0.64041 0.0
H332 H 0.76339 0.85401 0.87085 0.0
H333 H 0.80379 0.91957 0.80422 0.0
H334 H 0.85084 0.88892 0.80253 0.0
H335 H 0.83426 0.83327 0.91588 0.0
H336 H 0.82264 0.79421 0.91881 0.0
H337 H 0.79459 0.82391 0.91875 0.0
H338 H 0.7678 0.79832 0.86889 0.0
H339 H 0.79579 0.76877 0.86861 0.0
H340 H 0.78911 0.7907 0.83168 0.0
H341 H 0.89074 0.84683 0.80238 0.0
H342 H 0.91923 0.79839 0.80455 0.0
H343 H 0.85163 0.76173 0.87143 0.0
C344 C 0.78239 0.86237 0.85654 0.0
C345 C 0.78001 0.88915 0.83772 0.0
C346 C 0.80526 0.8992 0.81907 0.0
C347 C 0.83205 0.88193 0.81796 0.0
C348 C 0.83326 0.85499 0.83603 0.0
C349 C 0.80913 0.84556 0.85531 0.0
C350 C 0.81475 0.8147 0.8702 0.0
C351 C 0.81668 0.81665 0.90817 0.0
C352 C 0.79043 0.79179 0.85917 0.0
C353 C 0.84524 0.8075 0.85519 0.0
C354 C 0.85593 0.83109 0.83594 0.0
C355 C 0.8828 0.82846 0.81786 0.0
C356 C 0.89881 0.80089 0.8192 0.0
C357 C 0.88763 0.77635 0.83817 0.0
C358 C 0.86087 0.7801 0.85681 0.0
H359 H 0.76557 0.15 0.1344 0.0
H360 H 0.80916 0.07736 0.18877 0.0
H361 H 0.85749 0.10597 0.18771 0.0
H362 H 0.83192 0.17128 0.08283 0.0
H363 H 0.82231 0.21093 0.08501 0.0
H364 H 0.79282 0.18272 0.08621 0.0
H365 H 0.7731 0.20532 0.14149 0.0
H366 H 0.80249 0.23344 0.14054 0.0
H367 H 0.79872 0.20898 0.17603 0.0
H368 H 0.8993 0.146 0.1864 0.0
H369 H 0.93005 0.19295 0.1848 0.0
H370 H 0.85812 0.23812 0.13081 0.0
C371 C 0.78541 0.13975 0.1455 0.0
C372 C 0.78367 0.11147 0.16164 0.0
C373 C 0.81009 0.09894 0.17607 0.0
C374 C 0.83761 0.11502 0.17556 0.0
C375 C 0.83832 0.14332 0.16012 0.0
C376 C 0.81289 0.15535 0.14506 0.0
C377 C 0.8186 0.18701 0.13231 0.0
C378 C 0.81628 0.18803 0.09433 0.0
C379 C 0.79696 0.21002 0.14858 0.0
C380 C 0.85086 0.19154 0.14367 0.0
C381 C 0.86214 0.16603 0.15926 0.0
C382 C 0.89085 0.16588 0.17374 0.0
C383 C 0.90816 0.19263 0.17271 0.0
C384 C 0.89652 0.21914 0.15757 0.0
C385 C 0.86779 0.21819 0.14232 0.0
H386 H 0.1184 0.21039 0.78238 0.0
H387 H 0.10957 0.22911 0.88718 0.0
H388 H 0.14037 0.18391 0.90007 0.0
H389 H 0.12428 0.12365 0.78882 0.0
H390 H 0.15263 0.12263 0.75669 0.0
H391 H 0.12322 0.151 0.7557 0.0
H392 H 0.16401 0.19308 0.75292 0.0
H393 H 0.19342 0.165 0.7541 0.0
H394 H 0.19275 0.19484 0.7846 0.0
H395 H 0.17962 0.14517 0.90159 0.0
H396 H 0.22602 0.11539 0.89181 0.0
H397 H 0.21127 0.12052 0.78592 0.0
C398 C 0.12192 0.20395 0.80797 0.0
C399 C 0.11126 0.22245 0.83395 0.0
C400 C 0.11727 0.21465 0.86716 0.0
C401 C 0.13457 0.189 0.87464 0.0
C402 C 0.14581 0.17162 0.84853 0.0
C403 C 0.13968 0.17861 0.81579 0.0
C404 C 0.15865 0.15937 0.79248 0.0
C405 C 0.13849 0.13788 0.77223 0.0
C406 C 0.17837 0.17927 0.76972 0.0
C407 C 0.17773 0.14196 0.81723 0.0
C408 C 0.1693 0.14885 0.84941 0.0
C409 C 0.18589 0.13885 0.87661 0.0
C410 C 0.21224 0.1221 0.87085 0.0
C411 C 0.22164 0.11541 0.83822 0.0
C412 C 0.20378 0.1246 0.81109 0.0
H413 H 0.23291 0.85716 0.13165 0.0
H414 H 0.20185 0.91922 0.20773 0.0
H415 H 0.15378 0.89029 0.21213 0.0
H416 H 0.15772 0.84229 0.09321 0.0
H417 H 0.16741 0.80319 0.08581 0.0
H418 H 0.19651 0.83182 0.08517 0.0
H419 H 0.22669 0.80195 0.12959 0.0
H420 H 0.19776 0.77339 0.13046 0.0
H421 H 0.20854 0.79236 0.16821 0.0
H422 H 0.11212 0.8499 0.21281 0.0
H423 H 0.08226 0.80233 0.21053 0.0
H424 H 0.14226 0.768 0.13418 0.0
C425 C 0.21578 0.86511 0.1488 0.0
C426 C 0.22102 0.89032 0.16941 0.0
C427 C 0.19811 0.89999 0.19158 0.0
C428 C 0.17078 0.88374 0.19417 0.0
C429 C 0.16672 0.85832 0.17401 0.0
C430 C 0.18861 0.84935 0.15153 0.0
C431 C 0.1805 0.81988 0.13482 0.0
C432 C 0.17522 0.82459 0.09754 0.0
C433 C 0.2048 0.79547 0.14118 0.0
C434 C 0.1513 0.81271 0.1525 0.0
C435 C 0.14321 0.83532 0.17454 0.0
C436 C 0.11801 0.83235 0.19522 0.0
C437 C 0.10118 0.80531 0.19376 0.0
C438 C 0.11006 0.78161 0.17219 0.0
C439 C 0.13492 0.78581 0.15084 0.0
H440 H 0.13768 0.4954 0.24271 0.0
H441 H 0.20254 0.52469 0.31657 0.0
H442 H 0.19369 0.57814 0.30074 0.0
H443 H 0.15926 0.55475 0.18042 0.0
H444 H 0.12077 0.55817 0.166 0.0
H445 H 0.13439 0.52238 0.1815 0.0
H446 H 0.09002 0.52121 0.22357 0.0
H447 H 0.07664 0.55723 0.20874 0.0
H448 H 0.08521 0.55234 0.25206 0.0
H449 H 0.17148 0.62837 0.2827 0.0
H450 H 0.14455 0.67153 0.25658 0.0
H451 H 0.09833 0.60895 0.191 0.0
C452 C 0.15067 0.51309 0.25471 0.0
C453 C 0.17099 0.50619 0.28051 0.0
C454 C 0.18733 0.52971 0.29623 0.0
C455 C 0.18226 0.56007 0.28762 0.0
C456 C 0.16138 0.56629 0.26267 0.0
C457 C 0.14657 0.54341 0.24571 0.0
C458 C 0.12519 0.55615 0.21999 0.0
C459 C 0.13553 0.54734 0.1849 0.0
C460 C 0.09233 0.54613 0.22651 0.0
C461 C 0.12927 0.5897 0.22614 0.0
C462 C 0.15005 0.59517 0.25099 0.0
C463 C 0.15573 0.62441 0.26262 0.0
C464 C 0.14021 0.64871 0.24789 0.0
C465 C 0.1197 0.64352 0.2216 0.0
C466 C 0.11425 0.61364 0.2107 0.0
H467 H 0.51782 0.89646 0.69481 0.0
H468 H 0.50529 0.80246 0.72365 0.0
H469 H 0.55434 0.8037 0.75304 0.0
H470 H 0.59768 0.89231 0.67999 0.0
H471 H 0.6053 0.92952 0.69644 0.0
H472 H 0.56906 0.92142 0.67797 0.0
H473 H 0.54193 0.93849 0.73182 0.0
H474 H 0.5781 0.94694 0.75022 0.0
H475 H 0.55237 0.92138 0.77071 0.0
H476 H 0.60426 0.81563 0.78044 0.0
H477 H 0.65075 0.83802 0.80477 0.0
H478 H 0.63145 0.9231 0.75576 0.0
C479 C 0.52522 0.8761 0.70738 0.0
C480 C 0.50757 0.84934 0.7069 0.0
C481 C 0.51829 0.82326 0.72369 0.0
C482 C 0.54619 0.8237 0.74036 0.0
C483 C 0.56312 0.85035 0.73992 0.0
C484 C 0.55299 0.8761 0.72397 0.0
C485 C 0.57535 0.90194 0.7274 0.0
C486 C 0.58757 0.91186 0.69342 0.0
C487 C 0.56108 0.92876 0.74616 0.0
C488 C 0.59969 0.88669 0.74781 0.0
C489 C 0.5922 0.85695 0.75486 0.0
C490 C 0.61051 0.83876 0.77477 0.0
C491 C 0.63684 0.85153 0.78831 0.0
C492 C 0.64464 0.8819 0.78145 0.0
C493 C 0.62612 0.89958 0.76069 0.0
H494 H 0.91921 0.38898 0.19418 0.0
H495 H 0.86008 0.32406 0.24217 0.0
H496 H 0.8325 0.3663 0.26949 0.0
H497 H 0.92611 0.43778 0.26485 0.0
H498 H 0.92803 0.47178 0.24023 0.0
H499 H 0.94138 0.43642 0.22346 0.0
H500 H 0.90528 0.44298 0.17331 0.0
H501 H 0.89143 0.47813 0.19024 0.0
H502 H 0.86527 0.4481 0.18042 0.0
H503 H 0.81028 0.41641 0.28934 0.0
H504 H 0.80106 0.46906 0.30834 0.0
H505 H 0.87827 0.49977 0.25115 0.0
C506 C 0.90046 0.38363 0.21041 0.0
C507 C 0.89148 0.35342 0.21594 0.0
C508 C 0.8672 0.34719 0.23776 0.0
C509 C 0.85133 0.371 0.25309 0.0
C510 C 0.86052 0.40069 0.24672 0.0
C511 C 0.88501 0.40695 0.22651 0.0
C512 C 0.8919 0.44048 0.22553 0.0
C513 C 0.92373 0.44699 0.23935 0.0
C514 C 0.88824 0.45316 0.19028 0.0
C515 C 0.86742 0.45225 0.24832 0.0
C516 C 0.84908 0.42909 0.25972 0.0
C517 C 0.82459 0.43467 0.28071 0.0
C518 C 0.81936 0.46459 0.29113 0.0
C519 C 0.83896 0.48822 0.28107 0.0
C520 C 0.86297 0.482 0.25908 0.0
H521 H 0.47398 0.1349 0.68865 0.0
H522 H 0.52096 0.1858 0.76475 0.0
H523 H 0.47628 0.18049 0.80177 0.0
H524 H 0.39958 0.16788 0.70444 0.0
H525 H 0.37998 0.13303 0.69535 0.0
H526 H 0.41546 0.14134 0.67523 0.0
H527 H 0.43752 0.09047 0.69645 0.0
H528 H 0.40217 0.08204 0.71666 0.0
H529 H 0.43686 0.08233 0.7402 0.0
H530 H 0.42836 0.16457 0.83191 0.0
H531 H 0.37886 0.14445 0.85081 0.0
H532 H 0.36186 0.10879 0.75255 0.0
C533 C 0.47479 0.14499 0.71311 0.0
C534 C 0.50083 0.16043 0.72422 0.0
C535 C 0.50108 0.17384 0.75602 0.0
C536 C 0.4759 0.17088 0.7771 0.0
C537 C 0.4506 0.15516 0.76549 0.0
C538 C 0.4497 0.14294 0.73398 0.0
C539 C 0.41979 0.12748 0.72712 0.0
C540 C 0.40269 0.14339 0.69887 0.0
C541 C 0.42438 0.09358 0.71968 0.0
C542 C 0.40413 0.13223 0.75999 0.0
C543 C 0.42234 0.14798 0.78195 0.0
C544 C 0.41366 0.15284 0.81472 0.0
C545 C 0.38564 0.1413 0.82525 0.0
C546 C 0.36655 0.12574 0.80286 0.0
C547 C 0.37579 0.12141 0.76981 0.0
H548 H 0.11805 0.50393 0.72967 0.0
H549 H 0.19888 0.47869 0.67524 0.0
H550 H 0.19377 0.42586 0.69532 0.0
H551 H 0.13436 0.45645 0.80187 0.0
H552 H 0.09495 0.44776 0.80873 0.0
H553 H 0.10551 0.48333 0.79016 0.0
H554 H 0.07067 0.47152 0.74013 0.0
H555 H 0.06037 0.43572 0.75826 0.0
H556 H 0.07619 0.43692 0.71712 0.0
H557 H 0.17598 0.37454 0.71666 0.0
H558 H 0.15227 0.33088 0.74555 0.0
H559 H 0.08708 0.39171 0.79063 0.0
C560 C 0.13485 0.4873 0.72238 0.0
C561 C 0.15881 0.49512 0.70096 0.0
C562 C 0.18052 0.473 0.69192 0.0
C563 C 0.17765 0.44298 0.70298 0.0
C564 C 0.15336 0.43579 0.72361 0.0
C565 C 0.13281 0.45753 0.73391 0.0
C566 C 0.10927 0.44425 0.75691 0.0
C567 C 0.11116 0.45881 0.79147 0.0
C568 C 0.07724 0.44729 0.74221 0.0
C569 C 0.11948 0.41156 0.75754 0.0
C570 C 0.14458 0.40691 0.73772 0.0
C571 C 0.15668 0.37803 0.73276 0.0
C572 C 0.14302 0.3534 0.74902 0.0
C573 C 0.11813 0.35809 0.77047 0.0
C574 C 0.10632 0.38752 0.7747 0.0
H575 H 0.36293 0.90408 0.2482 0.0
H576 H 0.37416 0.85998 0.15301 0.0
H577 H 0.4221 0.83695 0.1723 0.0
H578 H 0.44018 0.92422 0.25663 0.0
H579 H 0.44135 0.91894 0.30088 0.0
H580 H 0.40629 0.92907 0.28102 0.0
H581 H 0.38028 0.88196 0.30669 0.0
H582 H 0.41528 0.87168 0.3267 0.0
H583 H 0.39644 0.84493 0.29998 0.0
H584 H 0.46888 0.81905 0.20188 0.0
H585 H 0.51393 0.81187 0.23761 0.0
H586 H 0.4743 0.87154 0.31126 0.0
C587 C 0.37529 0.88912 0.23174 0.0
C588 C 0.36486 0.88329 0.1994 0.0
C589 C 0.38189 0.86443 0.17801 0.0
C590 C 0.409 0.8512 0.18877 0.0
C591 C 0.41893 0.85756 0.22075 0.0
C592 C 0.40281 0.87637 0.2418 0.0
C593 C 0.41979 0.8817 0.27381 0.0
C594 C 0.42735 0.91548 0.27833 0.0
C595 C 0.40188 0.86932 0.30355 0.0
C596 C 0.44801 0.86311 0.26737 0.0
C597 C 0.44682 0.84887 0.23693 0.0
C598 C 0.47015 0.83015 0.22574 0.0
C599 C 0.49555 0.82615 0.24615 0.0
C600 C 0.49757 0.84136 0.27691 0.0
C601 C 0.47342 0.85992 0.28764 0.0
H602 H 0.87369 0.52664 0.68395 0.0
H603 H 0.80952 0.48657 0.75253 0.0
H604 H 0.81361 0.53192 0.78854 0.0
H605 H 0.92192 0.56082 0.74247 0.0
H606 H 0.92845 0.5946 0.71845 0.0
H607 H 0.91962 0.55951 0.6979 0.0
H608 H 0.87437 0.58532 0.66827 0.0
H609 H 0.88304 0.62052 0.6888 0.0
H610 H 0.84575 0.60425 0.69254 0.0
H611 H 0.82909 0.57895 0.81941 0.0
H612 H 0.85151 0.62637 0.84102 0.0
H613 H 0.90176 0.63778 0.74966 0.0
C614 C 0.86047 0.52744 0.70655 0.0
C615 C 0.84154 0.50308 0.71581 0.0
C616 C 0.82417 0.50506 0.74517 0.0
C617 C 0.82636 0.53066 0.76568 0.0
C618 C 0.84545 0.55422 0.75592 0.0
C619 C 0.86184 0.55303 0.7268 0.0
C620 C 0.88071 0.58131 0.7219 0.0
C621 C 0.91468 0.57358 0.72009 0.0
C622 C 0.87033 0.59889 0.69105 0.0
C623 C 0.87307 0.59832 0.75332 0.0
C624 C 0.8528 0.58223 0.77269 0.0
C625 C 0.84441 0.59206 0.80417 0.0
C626 C 0.85726 0.61889 0.81624 0.0
C627 C 0.87773 0.63576 0.79661 0.0
C628 C 0.88541 0.62562 0.76462 0.0
H629 H 0.61586 0.11557 0.18948 0.0
H630 H 0.6778 0.11276 0.27291 0.0
H631 H 0.63656 0.12956 0.31004 0.0
H632 H 0.57313 0.18222 0.21627 0.0
H633 H 0.53751 0.16743 0.20164 0.0
H634 H 0.57228 0.15683 0.18129 0.0
H635 H 0.55972 0.10011 0.1905 0.0
H636 H 0.52492 0.1105 0.21081 0.0
H637 H 0.55198 0.08672 0.23182 0.0
H638 H 0.58812 0.14293 0.33855 0.0
H639 H 0.53542 0.15273 0.35663 0.0
H640 H 0.50506 0.14843 0.25472 0.0
C641 C 0.62083 0.11878 0.21551 0.0
C642 C 0.65004 0.11292 0.22836 0.0
C643 C 0.65561 0.1172 0.26256 0.0
C644 C 0.63235 0.12677 0.28381 0.0
C645 C 0.60376 0.13215 0.27039 0.0
C646 C 0.59792 0.12842 0.23703 0.0
C647 C 0.56492 0.13465 0.22914 0.0
C648 C 0.56179 0.16191 0.2057 0.0
C649 C 0.54948 0.10631 0.21473 0.0
C650 C 0.55299 0.14202 0.26339 0.0
C651 C 0.57584 0.1405 0.2868 0.0
C652 C 0.57015 0.14464 0.32043 0.0
C653 C 0.54027 0.15019 0.33046 0.0
C654 C 0.51665 0.15179 0.30692 0.0
C655 C 0.52304 0.14797 0.27297 0.0
H656 H 0.62261 0.99513 0.75014 0.0
H657 H 0.70484 0.02048 0.80196 0.0
H658 H 0.70115 0.07217 0.77883 0.0
H659 H 0.63862 0.04146 0.6747 0.0
H660 H 0.59914 0.05054 0.66912 0.0
H661 H 0.60988 0.01493 0.68752 0.0
H662 H 0.57649 0.02722 0.73858 0.0
H663 H 0.56599 0.06302 0.72064 0.0
H664 H 0.58292 0.06185 0.76123 0.0
H665 H 0.68374 0.12279 0.75769 0.0
H666 H 0.65827 0.16713 0.73236 0.0
H667 H 0.59054 0.10773 0.68972 0.0
C668 C 0.64017 0.01143 0.75595 0.0
C669 C 0.664 0.00397 0.77777 0.0
C670 C 0.68658 0.02574 0.78498 0.0
C671 C 0.68459 0.05517 0.77212 0.0
C672 C 0.66031 0.06211 0.75144 0.0
C673 C 0.63895 0.04065 0.74264 0.0
C674 C 0.61485 0.0541 0.7204 0.0
C675 C 0.61569 0.03938 0.68588 0.0
C676 C 0.5832 0.05139 0.73617 0.0
C677 C 0.62533 0.08672 0.71914 0.0
C678 C 0.65147 0.09094 0.73741 0.0
C679 C 0.66376 0.11966 0.74256 0.0
C680 C 0.6491 0.14467 0.72833 0.0
C681 C 0.62287 0.14061 0.70876 0.0
C682 C 0.61101 0.11128 0.70394 0.0
H683 H 0.11682 0.40778 0.30575 0.0
H684 H 0.17993 0.35136 0.25122 0.0
H685 H 0.13677 0.32465 0.22483 0.0
H686 H 0.05746 0.35245 0.3186 0.0
H687 H 0.02739 0.37934 0.31159 0.0
H688 H 0.06305 0.39191 0.32839 0.0
H689 H 0.06856 0.43093 0.28077 0.0
H690 H 0.03275 0.4188 0.26417 0.0
H691 H 0.06613 0.41817 0.23842 0.0
H692 H 0.08624 0.30391 0.20514 0.0
H693 H 0.03346 0.29711 0.18575 0.0
H694 H 0.00438 0.37077 0.24933 0.0
C695 C 0.12157 0.38965 0.28848 0.0
C696 C 0.1516 0.38129 0.28074 0.0
C697 C 0.15698 0.35795 0.25745 0.0
C698 C 0.13265 0.34255 0.24261 0.0
C699 C 0.10321 0.3512 0.251 0.0
C700 C 0.09765 0.37468 0.27285 0.0
C701 C 0.06417 0.38168 0.27529 0.0
C702 C 0.05233 0.376 0.31057 0.0
C703 C 0.05752 0.41432 0.26397 0.0
C704 C 0.05166 0.35864 0.25118 0.0
C705 C 0.07442 0.3407 0.23809 0.0
C706 C 0.06827 0.31783 0.21521 0.0
C707 C 0.03823 0.31395 0.20457 0.0
C708 C 0.01501 0.33333 0.21625 0.0
C709 C 0.02177 0.35555 0.24025 0.0
H710 H 0.37238 0.98006 0.81633 0.0
H711 H 0.32006 0.0269 0.74124 0.0
H712 H 0.32761 0.98355 0.70293 0.0
H713 H 0.42697 0.94626 0.76359 0.0
H714 H 0.4285 0.91103 0.78609 0.0
H715 H 0.41871 0.94556 0.80733 0.0
H716 H 0.36869 0.92111 0.82777 0.0
H717 H 0.37835 0.88647 0.80661 0.0
H718 H 0.34282 0.90502 0.79804 0.0
H719 H 0.34476 0.93695 0.67175 0.0
H720 H 0.36588 0.88842 0.65148 0.0
H721 H 0.40296 0.87031 0.74888 0.0
C722 C 0.36253 0.98118 0.79178 0.0
C723 C 0.34593 0.00684 0.78144 0.0
C724 C 0.33288 0.00737 0.74947 0.0
C725 C 0.33711 0.98294 0.72763 0.0
C726 C 0.35383 0.95802 0.73856 0.0
C727 C 0.36591 0.95679 0.77008 0.0
C728 C 0.38247 0.92724 0.77605 0.0
C729 C 0.41616 0.93288 0.78371 0.0
C730 C 0.36716 0.90888 0.80375 0.0
C731 C 0.3784 0.9122 0.7427 0.0
C732 C 0.36204 0.93044 0.72132 0.0
C733 C 0.35713 0.92228 0.68843 0.0
C734 C 0.36926 0.89479 0.67713 0.0
C735 C 0.38558 0.87562 0.69883 0.0
C736 C 0.38997 0.88432 0.73206 0.0
H737 H 0.88976 0.58621 0.30248 0.0
H738 H 0.82845 0.63785 0.24048 0.0
H739 H 0.87243 0.66412 0.21507 0.0
H740 H 0.94568 0.64369 0.3163 0.0
H741 H 0.97721 0.61785 0.31338 0.0
H742 H 0.94096 0.60452 0.32783 0.0
H743 H 0.94038 0.56317 0.28215 0.0
H744 H 0.97684 0.57601 0.26797 0.0
H745 H 0.94547 0.57406 0.23948 0.0
H746 H 0.92337 0.68601 0.19862 0.0
H747 H 0.97715 0.6949 0.18417 0.0
H748 H 0.00445 0.62491 0.25322 0.0
C749 C 0.88555 0.60306 0.28359 0.0
C750 C 0.85584 0.61033 0.27357 0.0
C751 C 0.85118 0.63207 0.24838 0.0
C752 C 0.87594 0.64722 0.2341 0.0
C753 C 0.90503 0.63984 0.245 0.0
C754 C 0.90991 0.61772 0.26859 0.0
C755 C 0.94333 0.61223 0.27427 0.0
C756 C 0.95231 0.62004 0.31007 0.0
C757 C 0.95201 0.57943 0.26542 0.0
C758 C 0.95664 0.63464 0.25003 0.0
C759 C 0.93422 0.65095 0.23404 0.0
C760 C 0.94108 0.67332 0.2109 0.0
C761 C 0.97162 0.67842 0.20311 0.0
C762 C 0.99468 0.6607 0.21786 0.0
C763 C 0.98712 0.63885 0.24188 0.0
H764 H 0.62658 0.00416 0.24667 0.0
H765 H 0.70472 0.97695 0.18868 0.0
H766 H 0.69861 0.92422 0.20839 0.0
H767 H 0.64281 0.95334 0.31777 0.0
H768 H 0.60316 0.94627 0.32514 0.0
H769 H 0.61513 0.98204 0.30806 0.0
H770 H 0.57883 0.97406 0.25839 0.0
H771 H 0.5671 0.93811 0.27501 0.0
H772 H 0.58222 0.94023 0.23359 0.0
H773 H 0.67914 0.87347 0.22795 0.0
H774 H 0.65292 0.82963 0.25348 0.0
H775 H 0.59091 0.89089 0.303 0.0
C776 C 0.64275 0.98717 0.2387 0.0
C777 C 0.66611 0.99446 0.2162 0.0
C778 C 0.68687 0.97178 0.2062 0.0
C779 C 0.68345 0.94178 0.21709 0.0
C780 C 0.65963 0.93513 0.23858 0.0
C781 C 0.64013 0.95734 0.24999 0.0
C782 C 0.61633 0.94426 0.27288 0.0
C783 C 0.61957 0.95725 0.30805 0.0
C784 C 0.58423 0.94948 0.25913 0.0
C785 C 0.62491 0.91109 0.27178 0.0
C786 C 0.64973 0.90621 0.25157 0.0
C787 C 0.66017 0.87708 0.24447 0.0
C788 C 0.64507 0.85237 0.25883 0.0
C789 C 0.62032 0.8571 0.28047 0.0
C790 C 0.61023 0.88679 0.28708 0.0
H791 H 0.8931 0.41161 0.68381 0.0
H792 H 0.83306 0.34525 0.72789 0.0
H793 H 0.87732 0.31913 0.75273 0.0
H794 H 0.95785 0.36257 0.66759 0.0
H795 H 0.98504 0.39097 0.67962 0.0
H796 H 0.94917 0.40218 0.66218 0.0
H797 H 0.93821 0.43556 0.7137 0.0
H798 H 0.97413 0.42473 0.73107 0.0
H799 H 0.9398 0.41879 0.75437 0.0
H800 H 0.92826 0.3007 0.77275 0.0
H801 H 0.98043 0.29631 0.79464 0.0
H802 H 0.00587 0.37795 0.74185 0.0
C803 C 0.88935 0.39133 0.69829 0.0
C804 C 0.85992 0.38001 0.70362 0.0
C805 C 0.85562 0.35401 0.7235 0.0
C806 C 0.88057 0.33897 0.73742 0.0
C807 C 0.90945 0.35067 0.73162 0.0
C808 C 0.91385 0.37663 0.71309 0.0
C809 C 0.94663 0.38657 0.7136 0.0
C810 C 0.96048 0.3855 0.67867 0.0
C811 C 0.94987 0.41828 0.72912 0.0
C812 C 0.96 0.36231 0.7356 0.0
C813 C 0.93838 0.34133 0.745 0.0
C814 C 0.94538 0.31696 0.76554 0.0
C815 C 0.97506 0.31452 0.77765 0.0
C816 C 0.99698 0.33678 0.76979 0.0
C817 C 0.98946 0.36061 0.74807 0.0
H818 H 0.41553 0.13503 0.24134 0.0
H819 H 0.3627 0.12618 0.33141 0.0
H820 H 0.33811 0.08034 0.30902 0.0
H821 H 0.35824 0.10618 0.18328 0.0
H822 H 0.38556 0.08562 0.15883 0.0
H823 H 0.3967 0.11965 0.18029 0.0
H824 H 0.43966 0.09009 0.20976 0.0
H825 H 0.42862 0.05598 0.18849 0.0
H826 H 0.43052 0.05649 0.23309 0.0
H827 H 0.32007 0.03527 0.27788 0.0
H828 H 0.31251 0.99094 0.2415 0.0
H829 H 0.37977 0.0264 0.17324 0.0
C830 C 0.39838 0.12365 0.25595 0.0
C831 C 0.39061 0.13414 0.28784 0.0
C832 C 0.36876 0.1184 0.30682 0.0
C833 C 0.35461 0.09247 0.29429 0.0
C834 C 0.36295 0.08237 0.26294 0.0
C835 C 0.38451 0.09722 0.24409 0.0
C836 C 0.39107 0.08005 0.21237 0.0
C837 C 0.38237 0.09901 0.18189 0.0
C838 C 0.42444 0.07006 0.21086 0.0
C839 C 0.37006 0.05316 0.2166 0.0
C840 C 0.35368 0.05528 0.24566 0.0
C841 C 0.33274 0.03329 0.25502 0.0
C842 C 0.32857 0.00825 0.23419 0.0
C843 C 0.34564 0.0052 0.20469 0.0
C844 C 0.36656 0.02805 0.1958 0.0
H845 H 0.13339 0.58891 0.75162 0.0
H846 H 0.12652 0.64831 0.66652 0.0
H847 H 0.07907 0.66996 0.68889 0.0
H848 H 0.05472 0.57155 0.75426 0.0
H849 H 0.05251 0.56963 0.79879 0.0
H850 H 0.08762 0.56107 0.77808 0.0
H851 H 0.11509 0.60184 0.81318 0.0
H852 H 0.08006 0.61046 0.8341 0.0
H853 H 0.10086 0.64014 0.81354 0.0
H854 H 0.03243 0.68485 0.72004 0.0
H855 H 0.98714 0.68918 0.75582 0.0
H856 H 0.0218 0.61703 0.81824 0.0
C857 C 0.1221 0.6069 0.73819 0.0
C858 C 0.13365 0.61748 0.70776 0.0
C859 C 0.11796 0.64025 0.69008 0.0
C860 C 0.09111 0.65268 0.70259 0.0
C861 C 0.07999 0.64161 0.7325 0.0
C862 C 0.09476 0.61901 0.74993 0.0
C863 C 0.07658 0.60949 0.78002 0.0
C864 C 0.06731 0.57595 0.77763 0.0
C865 C 0.0942 0.61588 0.81211 0.0
C866 C 0.04938 0.63027 0.77672 0.0
C867 C 0.05205 0.64892 0.74942 0.0
C868 C 0.03 0.67033 0.74146 0.0
C869 C 0.00441 0.67267 0.76192 0.0
C870 C 1.00089 0.65333 0.78961 0.0
C871 C 0.02374 0.6319 0.79701 0.0
H872 H 0.16176 0.56442 0.53667 0.0
H873 H 0.24338 0.53168 0.58454 0.0
H874 H 0.25791 0.50515 0.53278 0.0
H875 H 0.1432 0.49889 0.49905 0.0
H876 H 0.12848 0.51546 0.46156 0.0
H877 H 0.12798 0.53681 0.49942 0.0
H878 H 0.15827 0.58017 0.47146 0.0
H879 H 0.15849 0.55912 0.43318 0.0
H880 H 0.19366 0.57179 0.45111 0.0
H881 H 0.25925 0.4762 0.47752 0.0
H882 H 0.24723 0.44879 0.42531 0.0
H883 H 0.16379 0.50004 0.41683 0.0
C884 C 0.18314 0.55238 0.5361 0.0
C885 C 0.20141 0.55009 0.5646 0.0
C886 C 0.22915 0.53398 0.56284 0.0
C887 C 0.23755 0.51879 0.53357 0.0
C888 C 0.21814 0.52037 0.50632 0.0
C889 C 0.19169 0.53718 0.50736 0.0
C890 C 0.17296 0.533 0.47647 0.0
C891 C 0.14131 0.52027 0.48464 0.0
C892 C 0.17073 0.56279 0.45689 0.0
C893 C 0.19216 0.51006 0.45844 0.0
C894 C 0.2185 0.50341 0.47545 0.0
C895 C 0.23887 0.48157 0.46385 0.0
C896 C 0.23187 0.46608 0.43431 0.0
C897 C 0.20444 0.47212 0.4174 0.0
C898 C 0.18477 0.49471 0.42947 0.0
H899 H 0.56582 0.83025 0.44975 0.0
H900 H 0.51476 0.76025 0.39924 0.0
H901 H 0.48869 0.74775 0.4519 0.0
H902 H 0.5708 0.7912 0.53266 0.0
H903 H 0.56674 0.82693 0.55387 0.0
H904 H 0.58563 0.82533 0.51429 0.0
H905 H 0.54859 0.86587 0.49141 0.0
H906 H 0.52953 0.86744 0.53061 0.0
H907 H 0.50835 0.85908 0.49355 0.0
H908 H 0.46227 0.7493 0.50839 0.0
H909 H 0.43854 0.76534 0.56152 0.0
H910 H 0.50706 0.83475 0.57266 0.0
C911 C 0.54975 0.81172 0.44991 0.0
C912 C 0.54221 0.79629 0.42051 0.0
C913 C 0.52102 0.77221 0.42164 0.0
C914 C 0.50615 0.76495 0.45144 0.0
C915 C 0.51323 0.78161 0.47982 0.0
C916 C 0.53493 0.80423 0.47923 0.0
C917 C 0.53626 0.8213 0.51156 0.0
C918 C 0.56666 0.81585 0.52914 0.0
C919 C 0.5303 0.85541 0.50645 0.0
C920 C 0.5106 0.80619 0.52982 0.0
C921 C 0.49799 0.78276 0.51173 0.0
C922 C 0.47237 0.76721 0.52299 0.0
C923 C 0.45904 0.7764 0.55307 0.0
C924 C 0.47106 0.80128 0.57079 0.0
C925 C 0.49753 0.81564 0.55942 0.0
H926 H 0.84126 0.55784 0.44592 0.0
H927 H 0.75597 0.52543 0.40591 0.0
H928 H 0.74332 0.50313 0.46046 0.0
H929 H 0.8592 0.49418 0.48777 0.0
H930 H 0.87661 0.51277 0.52268 0.0
H931 H 0.87587 0.53122 0.48309 0.0
H932 H 0.84901 0.57779 0.50911 0.0
H933 H 0.84989 0.55955 0.54903 0.0
H934 H 0.8144 0.57256 0.53214 0.0
H935 H 0.74379 0.47825 0.51759 0.0
H936 H 0.7579 0.45301 0.57038 0.0
H937 H 0.84338 0.50133 0.57018 0.0
C938 C 0.81956 0.54669 0.44868 0.0
C939 C 0.79967 0.54329 0.42164 0.0
C940 C 0.77153 0.52844 0.42638 0.0
C941 C 0.76413 0.51575 0.45729 0.0
C942 C 0.78494 0.51853 0.48312 0.0
C943 C 0.81196 0.53395 0.47907 0.0
C944 C 0.83211 0.53115 0.50905 0.0
C945 C 0.86273 0.51644 0.50009 0.0
C946 C 0.8366 0.56211 0.52583 0.0
C947 C 0.81296 0.51048 0.53008 0.0
C948 C 0.78549 0.50391 0.51528 0.0
C949 C 0.76503 0.48363 0.52959 0.0
C950 C 0.77319 0.4694 0.55946 0.0
C951 C 0.80178 0.47514 0.574 0.0
C952 C 0.82144 0.49642 0.55943 0.0
H953 H 0.43339 0.16456 0.46136 0.0
H954 H 0.47533 0.24177 0.4133 0.0
H955 H 0.49913 0.25625 0.46648 0.0
H956 H 0.42416 0.19956 0.54633 0.0
H957 H 0.43329 0.16389 0.56563 0.0
H958 H 0.41371 0.16451 0.52645 0.0
H959 H 0.45543 0.13016 0.50115 0.0
H960 H 0.47527 0.12973 0.53989 0.0
H961 H 0.49442 0.14224 0.5029 0.0
H962 H 0.52548 0.25665 0.52255 0.0
H963 H 0.55179 0.24226 0.57461 0.0
H964 H 0.4938 0.16353 0.58331 0.0
C965 C 0.44679 0.18509 0.46215 0.0
C966 C 0.45256 0.20197 0.4332 0.0
C967 C 0.4704 0.22859 0.43527 0.0
C968 C 0.48399 0.237 0.4654 0.0
C969 C 0.47911 0.21879 0.49316 0.0
C970 C 0.46056 0.19357 0.49175 0.0
C971 C 0.46205 0.17521 0.52323 0.0
C972 C 0.43149 0.17585 0.54149 0.0
C973 C 0.47243 0.14243 0.51635 0.0
C974 C 0.48576 0.19289 0.54186 0.0
C975 C 0.49478 0.21849 0.52476 0.0
C976 C 0.51817 0.23698 0.53639 0.0
C977 C 0.533 0.22867 0.56585 0.0
C978 C 0.52479 0.20174 0.58258 0.0
C979 C 0.50047 0.1842 0.57082 0.0
H980 H 0.64632 0.04515 0.05494 0.0
H981 H 0.74097 0.03728 0.08306 0.0
H982 H 0.7519 0.01184 0.02976 0.0
H983 H 0.63955 0.97388 0.01886 0.0
H984 H 0.61465 0.98602 0.98607 0.0
H985 H 0.61506 0.00614 0.02482 0.0
H986 H 0.62686 0.05635 0.99404 0.0
H987 H 0.62617 0.03642 0.95509 0.0
H988 H 0.65904 0.05822 0.96661 0.0
H989 H 0.75138 0.98412 0.97397 0.0
H990 H 0.73939 0.95781 0.9213 0.0
H991 H 0.64503 0.98384 0.93226 0.0
C992 C 0.66949 0.03854 0.04987 0.0
C993 C 0.69275 0.04327 0.07328 0.0
C994 C 0.72272 0.03404 0.06549 0.0
C995 C 0.72917 0.01953 0.03528 0.0
C996 C 0.70545 0.01459 0.01313 0.0
C997 C 0.67627 0.02407 0.02007 0.0
C998 C 0.65442 0.01505 0.99308 0.0
C999 C 0.62947 0.99402 0.00653 0.0
C1000 C 0.64083 0.04318 0.97621 0.0
C1001 C 0.67565 0.99835 0.97014 0.0
C1002 C 0.70507 0.99851 0.98177 0.0
C1003 C 0.72842 0.98402 0.96459 0.0
C1004 C 0.7214 0.96909 0.93476 0.0
C1005 C 0.69124 0.96855 0.92272 0.0
C1006 C 0.66828 0.98351 0.9408 0.0
H1007 H 0.04566 0.35459 0.93712 0.0
H1008 H 0.03195 0.26184 0.90442 0.0
H1009 H 0.00865 0.24964 0.95866 0.0
H1010 H 0.06308 0.33731 0.02302 0.0
H1011 H 0.04365 0.37058 0.03787 0.0
H1012 H 0.06111 0.37077 0.99754 0.0
H1013 H 0.00978 0.38623 0.97117 0.0
H1014 H 0.99214 0.38589 0.01133 0.0
H1015 H 0.97678 0.36307 0.97833 0.0
H1016 H 0.98423 0.24898 0.01661 0.0
H1017 H 0.9615 0.26006 0.07156 0.0
H1018 H 0.99161 0.35338 0.0633 0.0
C1019 C 0.03806 0.33157 0.94124 0.0
C1020 C 0.04058 0.30922 0.91641 0.0
C1021 C 0.03031 0.27939 0.9231 0.0
C1022 C 0.01705 0.27225 0.95382 0.0
C1023 C 0.01446 0.29513 0.97752 0.0
C1024 C 0.02489 0.32413 0.97148 0.0
C1025 C 0.01866 0.34514 0.00014 0.0
C1026 C 0.04839 0.35661 0.01555 0.0
C1027 C 0.99811 0.37163 0.9896 0.0
C1028 C 0.00241 0.3237 0.02311 0.0
C1029 C 1.00038 0.29484 0.01003 0.0
C1030 C 0.98583 0.27149 0.02709 0.0
C1031 C 0.97299 0.27798 0.05823 0.0
C1032 C 0.97456 0.30764 0.07162 0.0
C1033 C 0.98968 0.33053 0.05373 0.0
H1034 H 0.32315 0.99146 0.91374 0.0
H1035 H 0.2567 0.06178 0.93105 0.0
H1036 H 0.23994 0.03542 0.98218 0.0
H1037 H 0.27656 0.92645 0.95246 0.0
H1038 H 0.31083 0.90974 0.96841 0.0
H1039 H 0.31139 0.92963 0.92941 0.0
H1040 H 0.35449 0.96411 0.95135 0.0
H1041 H 0.35396 0.94463 0.99022 0.0
H1042 H 0.34877 0.98514 0.98917 0.0
H1043 H 0.2397 0.00823 0.03707 0.0
H1044 H 0.2554 0.98301 0.08905 0.0
H1045 H 0.32079 0.92961 0.03414 0.0
C1046 C 0.30428 1.00057 0.92774 0.0
C1047 C 0.29112 0.02839 0.91891 0.0
C1048 C 0.26673 0.04019 0.93757 0.0
C1049 C 0.25708 0.02532 0.96648 0.0
C1050 C 0.27153 0.99838 0.97551 0.0
C1051 C 0.29418 0.98578 0.95613 0.0
C1052 C 0.30901 0.95911 0.97295 0.0
C1053 C 0.30149 0.92948 0.95472 0.0
C1054 C 0.34356 0.96356 0.97613 0.0
C1055 C 0.29336 0.96044 0.00614 0.0
C1056 C 0.27109 0.98251 0.00696 0.0
C1057 C 0.25641 0.99029 0.03643 0.0
C1058 C 0.26549 0.9759 0.06584 0.0
C1059 C 0.28938 0.9545 0.06545 0.0
C1060 C 0.3024 0.94585 0.03504 0.0
H1061 H 0.94264 0.65671 0.96115 0.0
H1062 H 0.97628 0.73881 0.91489 0.0
H1063 H 0.00334 0.75183 0.96683 0.0
H1064 H 0.93528 0.68637 0.04644 0.0
H1065 H 0.9477 0.65083 0.06371 0.0
H1066 H 0.92714 0.65138 0.02517 0.0
H1067 H 0.97086 0.62164 0.997 0.0
H1068 H 0.99169 0.62131 0.0352 0.0
H1069 H 0.00878 0.63677 -0.00166 0.0
H1070 H 0.03131 0.75228 0.02292 0.0
H1071 H 0.05716 0.7396 0.07589 0.0
H1072 H 0.00588 0.65603 0.08137 0.0
C1073 C 0.95515 0.6778 0.96196 0.0
C1074 C 0.95741 0.6967 0.93395 0.0
C1075 C 0.97408 0.72406 0.93618 0.0
C1076 C 0.98952 0.73161 0.96556 0.0
C1077 C 0.98773 0.71168 0.99233 0.0
C1078 C 0.97067 0.68546 0.99069 0.0
C1079 C 0.97438 0.66611 0.02115 0.0
C1080 C 0.94434 0.66354 0.04025 0.0
C1081 C 0.9872 0.63462 0.01237 0.0
C1082 C 0.99709 0.68489 0.03987 0.0
C1083 C 0.00422 0.71143 0.02345 0.0
C1084 C 0.02565 0.73167 0.03604 0.0
C1085 C 0.04024 0.72432 0.066 0.0
C1086 C 0.0337 0.69669 0.08228 0.0
C1087 C 0.01159 0.67712 0.06917 0.0
loop_
_geom_bond_atom_site_label_1
_geom_bond_atom_site_label_2
_geom_bond_distance
_geom_bond_site_symmetry_2
_ccdc_geom_bond_type
Co0 O1 2.216 . S
Co0 O2 2.091 . S
Co0 O4 2.004 . S
Co0 O10 2.021 . S
Co0 O12 2.137 . S
Co0 O13 2.244 . S
O1 Co0 2.216 . S
O1 C8 1.247 . S
O2 Co0 2.091 . S
O2 C8 1.261 . S
C3 O12 1.247 . S
C3 O13 1.272 . S
O4 Co0 2.004 . S
O4 C9 1.259 . S
Co5 O6 2.061 . S
Co5 O11 2.052 . S
Co5 O13 2.135 . S
O6 Co5 2.061 . S
O6 C9 1.235 . S
C7 O10 1.238 . S
C7 O11 1.241 . S
C8 O1 1.247 . S
C8 O2 1.261 . S
C9 O4 1.259 . S
C9 O6 1.235 . S
O10 Co0 2.021 . S
O10 C7 1.238 . S
O11 Co5 2.052 . S
O11 C7 1.241 . S
O12 Co0 2.137 . S
O12 C3 1.247 . S
O13 Co0 2.244 . S
O13 C3 1.272 . S
O13 Co5 2.135 . S
Co14 O15 2.216 . S
Co14 O16 2.091 . S
Co14 O18 2.004 . S
Co14 O24 2.021 . S
Co14 O26 2.137 . S
Co14 O27 2.244 . S
O15 Co14 2.216 . S
O15 C22 1.247 . S
O16 Co14 2.091 . S
O16 C22 1.261 . S
C17 O26 1.247 . S
C17 O27 1.272 . S
O18 Co14 2.004 . S
O18 C23 1.259 . S
Co19 O20 2.061 . S
Co19 O25 2.052 . S
Co19 O27 2.135 . S
O20 Co19 2.061 . S
O20 C23 1.235 . S
C21 O24 1.238 . S
C21 O25 1.241 . S
C22 O15 1.247 . S
C22 O16 1.261 . S
C23 O18 1.259 . S
C23 O20 1.235 . S
O24 Co14 2.021 . S
O24 C21 1.238 . S
O25 Co19 2.052 . S
O25 C21 1.241 . S
O26 Co14 2.137 . S
O26 C17 1.247 . S
O27 Co14 2.244 . S
O27 C17 1.272 . S
O27 Co19 2.135 . S
Co28 O29 2.216 . S
Co28 O30 2.091 . S
Co28 O32 2.004 . S
Co28 O38 2.021 . S
Co28 O40 2.137 . S
Co28 O41 2.244 . S
O29 Co28 2.216 . S
O29 C36 1.247 . S
O30 Co28 2.091 . S
O30 C36 1.261 . S
C31 O40 1.247 . S
C31 O41 1.272 . S
O32 Co28 2.004 . S
O32 C37 1.259 . S
Co33 O34 2.061 . S
Co33 O39 2.052 . S
Co33 O41 2.135 . S
O34 Co33 2.061 . S
O34 C37 1.235 . S
C35 O38 1.238 . S
C35 O39 1.241 . S
C36 O29 1.247 . S
C36 O30 1.261 . S
C37 O32 1.259 . S
C37 O34 1.235 . S
O38 Co28 2.021 . S
O38 C35 1.238 . S
O39 Co33 2.052 . S
O39 C35 1.241 . S
O40 Co28 2.137 . S
O40 C31 1.247 . S
O41 Co28 2.244 . S
O41 C31 1.272 . S
O41 Co33 2.135 . S
Co42 O43 2.216 . S
Co42 O44 2.091 . S
Co42 O46 2.004 . S
Co42 O52 2.021 . S
Co42 O54 2.137 . S
Co42 O55 2.244 . S
O43 Co42 2.216 . S
O43 C50 1.247 . S
O44 Co42 2.091 . S
O44 C50 1.261 . S
C45 O54 1.247 . S
C45 O55 1.272 . S
O46 Co42 2.004 . S
O46 C51 1.259 . S
Co47 O48 2.061 . S
Co47 O53 2.052 . S
Co47 O55 2.135 . S
O48 Co47 2.061 . S
O48 C51 1.235 . S
C49 O52 1.238 . S
C49 O53 1.241 . S
C50 O43 1.247 . S
C50 O44 1.261 . S
C51 O46 1.259 . S
C51 O48 1.235 . S
O52 Co42 2.021 . S
O52 C49 1.238 . S
O53 Co47 2.052 . S
O53 C49 1.241 . S
O54 Co42 2.137 . S
O54 C45 1.247 . S
O55 Co42 2.244 . S
O55 C45 1.272 . S
O55 Co47 2.135 . S
Co56 O57 2.216 . S
Co56 O58 2.091 . S
Co56 O60 2.004 . S
Co56 O66 2.021 . S
Co56 O68 2.137 . S
Co56 O69 2.244 . S
O57 Co56 2.216 . S
O57 C64 1.247 . S
O58 Co56 2.091 . S
O58 C64 1.261 . S
C59 O68 1.247 . S
C59 O69 1.272 . S
O60 Co56 2.004 . S
O60 C65 1.259 . S
Co61 O62 2.061 . S
Co61 O67 2.052 . S
Co61 O69 2.135 . S
O62 Co61 2.061 . S
O62 C65 1.235 . S
C63 O66 1.238 . S
C63 O67 1.241 . S
C64 O57 1.247 . S
C64 O58 1.261 . S
C65 O60 1.259 . S
C65 O62 1.235 . S
O66 Co56 2.021 . S
O66 C63 1.238 . S
O67 Co61 2.052 . S
O67 C63 1.241 . S
O68 Co56 2.137 . S
O68 C59 1.247 . S
O69 Co56 2.244 . S
O69 C59 1.272 . S
O69 Co61 2.135 . S
Co70 O71 2.216 . S
Co70 O72 2.091 . S
Co70 O74 2.004 . S
Co70 O80 2.021 . S
Co70 O82 2.137 . S
Co70 O83 2.244 . S
O71 Co70 2.216 . S
O71 C78 1.247 . S
O72 Co70 2.091 . S
O72 C78 1.261 . S
C73 O82 1.247 . S
C73 O83 1.272 . S
O74 Co70 2.004 . S
O74 C79 1.259 . S
Co75 O76 2.061 . S
Co75 O81 2.052 . S
Co75 O83 2.135 . S
O76 Co75 2.061 . S
O76 C79 1.235 . S
C77 O80 1.238 . S
C77 O81 1.241 . S
C78 O71 1.247 . S
C78 O72 1.261 . S
C79 O74 1.259 . S
C79 O76 1.235 . S
O80 Co70 2.021 . S
O80 C77 1.238 . S
O81 Co75 2.052 . S
O81 C77 1.241 . S
O82 Co70 2.137 . S
O82 C73 1.247 . S
O83 Co70 2.244 . S
O83 C73 1.272 . S
O83 Co75 2.135 . S
Co84 O85 2.216 . S
Co84 O86 2.091 . S
Co84 O88 2.004 . S
Co84 O94 2.021 . S
Co84 O96 2.137 . S
Co84 O97 2.244 . S
O85 Co84 2.216 . S
O85 C92 1.247 . S
O86 Co84 2.091 . S
O86 C92 1.261 . S
C87 O96 1.247 . S
C87 O97 1.272 . S
O88 Co84 2.004 . S
O88 C93 1.259 . S
Co89 O90 2.061 . S
Co89 O95 2.052 . S
Co89 O97 2.135 . S
O90 Co89 2.061 . S
O90 C93 1.235 . S
C91 O94 1.238 . S
C91 O95 1.241 . S
C92 O85 1.247 . S
C92 O86 1.261 . S
C93 O88 1.259 . S
C93 O90 1.235 . S
O94 Co84 2.021 . S
O94 C91 1.238 . S
O95 Co89 2.052 . S
O95 C91 1.241 . S
O96 Co84 2.137 . S
O96 C87 1.247 . S
O97 Co84 2.244 . S
O97 C87 1.272 . S
O97 Co89 2.135 . S
Co98 O99 2.216 . S
Co98 O100 2.091 . S
Co98 O102 2.004 . S
Co98 O108 2.021 . S
Co98 O110 2.137 . S
Co98 O111 2.244 . S
O99 Co98 2.216 . S
O99 C106 1.247 . S
O100 Co98 2.091 . S
O100 C106 1.261 . S
C101 O110 1.247 . S
C101 O111 1.272 . S
O102 Co98 2.004 . S
O102 C107 1.259 . S
Co103 O104 2.061 . S
Co103 O109 2.052 . S
Co103 O111 2.135 . S
O104 Co103 2.061 . S
O104 C107 1.235 . S
C105 O108 1.238 . S
C105 O109 1.241 . S
C106 O99 1.247 . S
C106 O100 1.261 . S
C107 O102 1.259 . S
C107 O104 1.235 . S
O108 Co98 2.021 . S
O108 C105 1.238 . S
O109 Co103 2.052 . S
O109 C105 1.241 . S
O110 Co98 2.137 . S
O110 C101 1.247 . S
O111 Co98 2.244 . S
O111 C101 1.272 . S
O111 Co103 2.135 . S
Co112 O113 2.216 . S
Co112 O114 2.091 . S
Co112 O116 2.004 . S
Co112 O122 2.021 . S
Co112 O124 2.137 . S
Co112 O125 2.244 . S
O113 Co112 2.216 . S
O113 C120 1.247 . S
O114 Co112 2.091 . S
O114 C120 1.261 . S
C115 O124 1.247 . S
C115 O125 1.272 . S
O116 Co112 2.004 . S
O116 C121 1.259 1_565 S
Co117 O118 2.061 1_565 S
Co117 O123 2.052 . S
Co117 O125 2.135 . S
O118 Co117 2.061 1_545 S
O118 C121 1.235 . S
C119 O122 1.238 . S
C119 O123 1.241 . S
C120 O113 1.247 . S
C120 O114 1.261 . S
C121 O116 1.259 1_545 S
C121 O118 1.235 . S
O122 Co112 2.021 . S
O122 C119 1.238 . S
O123 Co117 2.052 . S
O123 C119 1.241 . S
O124 Co112 2.137 . S
O124 C115 1.247 . S
O125 Co112 2.244 . S
O125 C115 1.272 . S
O125 Co117 2.135 . S
Co126 O127 2.216 . S
Co126 O128 2.091 . S
Co126 O130 2.004 . S
Co126 O136 2.021 . S
Co126 O138 2.137 . S
Co126 O139 2.244 . S
O127 Co126 2.216 . S
O127 C134 1.247 . S
O128 Co126 2.091 . S
O128 C134 1.261 . S
C129 O138 1.247 . S
C129 O139 1.272 . S
O130 Co126 2.004 . S
O130 C135 1.259 1_655 S
Co131 O132 2.061 1_655 S
Co131 O137 2.052 . S
Co131 O139 2.135 . S
O132 Co131 2.061 1_455 S
O132 C135 1.235 . S
C133 O136 1.238 . S
C133 O137 1.241 . S
C134 O127 1.247 . S
C134 O128 1.261 . S
C135 O130 1.259 1_455 S
C135 O132 1.235 . S
O136 Co126 2.021 . S
O136 C133 1.238 . S
O137 Co131 2.052 . S
O137 C133 1.241 . S
O138 Co126 2.137 . S
O138 C129 1.247 . S
O139 Co126 2.244 . S
O139 C129 1.272 . S
O139 Co131 2.135 . S
Co140 O141 2.216 . S
Co140 O142 2.091 . S
Co140 O144 2.004 . S
Co140 O150 2.021 . S
Co140 O152 2.137 . S
Co140 O153 2.244 . S
O141 Co140 2.216 . S
O141 C148 1.247 . S
O142 Co140 2.091 . S
O142 C148 1.261 . S
C143 O152 1.247 . S
C143 O153 1.272 . S
O144 Co140 2.004 . S
O144 C149 1.259 1_545 S
Co145 O146 2.061 1_545 S
Co145 O151 2.052 . S
Co145 O153 2.135 . S
O146 Co145 2.061 1_565 S
O146 C149 1.235 . S
C147 O150 1.238 . S
C147 O151 1.241 . S
C148 O141 1.247 . S
C148 O142 1.261 . S
C149 O144 1.259 1_565 S
C149 O146 1.235 . S
O150 Co140 2.021 . S
O150 C147 1.238 . S
O151 Co145 2.052 . S
O151 C147 1.241 . S
O152 Co140 2.137 . S
O152 C143 1.247 . S
O153 Co140 2.244 . S
O153 C143 1.272 . S
O153 Co145 2.135 . S
Co154 O155 2.216 . S
Co154 O156 2.091 . S
Co154 O158 2.004 . S
Co154 O164 2.021 . S
Co154 O166 2.137 . S
Co154 O167 2.244 . S
O155 Co154 2.216 . S
O155 C162 1.247 . S
O156 Co154 2.091 . S
O156 C162 1.261 . S
C157 O166 1.247 . S
C157 O167 1.272 . S
O158 Co154 2.004 . S
O158 C163 1.259 1_455 S
Co159 O160 2.061 1_455 S
Co159 O165 2.052 . S
Co159 O167 2.135 . S
O160 Co159 2.061 1_655 S
O160 C163 1.235 . S
C161 O164 1.238 . S
C161 O165 1.241 . S
C162 O155 1.247 . S
C162 O156 1.261 . S
C163 O158 1.259 1_655 S
C163 O160 1.235 . S
O164 Co154 2.021 . S
O164 C161 1.238 . S
O165 Co159 2.052 . S
O165 C161 1.241 . S
O166 Co154 2.137 . S
O166 C157 1.247 . S
O167 Co154 2.244 . S
O167 C157 1.272 . S
O167 Co159 2.135 . S
Co168 O169 2.216 . S
Co168 O170 2.091 . S
Co168 O172 2.004 . S
Co168 O178 2.021 . S
Co168 O180 2.137 . S
Co168 O181 2.244 . S
O169 Co168 2.216 . S
O169 C176 1.247 . S
O170 Co168 2.091 . S
O170 C176 1.261 . S
C171 O180 1.247 . S
C171 O181 1.272 . S
O172 Co168 2.004 . S
O172 C177 1.259 1_545 S
Co173 O174 2.061 1_545 S
Co173 O179 2.052 . S
Co173 O181 2.135 . S
O174 Co173 2.061 1_565 S
O174 C177 1.235 . S
C175 O178 1.238 . S
C175 O179 1.241 . S
C176 O169 1.247 . S
C176 O170 1.261 . S
C177 O172 1.259 1_565 S
C177 O174 1.235 . S
O178 Co168 2.021 . S
O178 C175 1.238 . S
O179 Co173 2.052 . S
O179 C175 1.241 . S
O180 Co168 2.137 . S
O180 C171 1.247 . S
O181 Co168 2.244 . S
O181 C171 1.272 . S
O181 Co173 2.135 . S
Co182 O183 2.216 . S
Co182 O184 2.091 . S
Co182 O186 2.004 . S
Co182 O192 2.021 . S
Co182 O194 2.137 . S
Co182 O195 2.244 . S
O183 Co182 2.216 . S
O183 C190 1.247 . S
O184 Co182 2.091 . S
O184 C190 1.261 . S
C185 O194 1.247 . S
C185 O195 1.272 . S
O186 Co182 2.004 . S
O186 C191 1.259 1_455 S
Co187 O188 2.061 1_455 S
Co187 O193 2.052 . S
Co187 O195 2.135 . S
O188 Co187 2.061 1_655 S
O188 C191 1.235 . S
C189 O192 1.238 . S
C189 O193 1.241 . S
C190 O183 1.247 . S
C190 O184 1.261 . S
C191 O186 1.259 1_655 S
C191 O188 1.235 . S
O192 Co182 2.021 . S
O192 C189 1.238 . S
O193 Co187 2.052 . S
O193 C189 1.241 . S
O194 Co182 2.137 . S
O194 C185 1.247 . S
O195 Co182 2.244 . S
O195 C185 1.272 . S
O195 Co187 2.135 . S
Co196 O197 2.216 . S
Co196 O198 2.091 . S
Co196 O200 2.004 . S
Co196 O206 2.021 . S
Co196 O208 2.137 . S
Co196 O209 2.244 . S
O197 Co196 2.216 . S
O197 C204 1.247 . S
O198 Co196 2.091 . S
O198 C204 1.261 . S
C199 O208 1.247 . S
C199 O209 1.272 . S
O200 Co196 2.004 . S
O200 C205 1.259 1_565 S
Co201 O202 2.061 1_565 S
Co201 O207 2.052 . S
Co201 O209 2.135 . S
O202 Co201 2.061 1_545 S
O202 C205 1.235 . S
C203 O206 1.238 . S
C203 O207 1.241 . S
C204 O197 1.247 . S
C204 O198 1.261 . S
C205 O200 1.259 1_545 S
C205 O202 1.235 . S
O206 Co196 2.021 . S
O206 C203 1.238 . S
O207 Co201 2.052 . S
O207 C203 1.241 . S
O208 Co196 2.137 . S
O208 C199 1.247 . S
O209 Co196 2.244 . S
O209 C199 1.272 . S
O209 Co201 2.135 . S
Co210 O211 2.216 . S
Co210 O212 2.091 . S
Co210 O214 2.004 . S
Co210 O220 2.021 . S
Co210 O222 2.137 . S
Co210 O223 2.244 . S
O211 Co210 2.216 . S
O211 C218 1.247 . S
O212 Co210 2.091 . S
O212 C218 1.261 . S
C213 O222 1.247 . S
C213 O223 1.272 . S
O214 Co210 2.004 . S
O214 C219 1.259 1_655 S
Co215 O216 2.061 1_655 S
Co215 O221 2.052 . S
Co215 O223 2.135 . S
O216 Co215 2.061 1_455 S
O216 C219 1.235 . S
C217 O220 1.238 . S
C217 O221 1.241 . S
C218 O211 1.247 . S
C218 O212 1.261 . S
C219 O214 1.259 1_455 S
C219 O216 1.235 . S
O220 Co210 2.021 . S
O220 C217 1.238 . S
O221 Co215 2.052 . S
O221 C217 1.241 . S
O222 Co210 2.137 . S
O222 C213 1.247 . S
O223 Co210 2.244 . S
O223 C213 1.272 . S
O223 Co215 2.135 . S
H224 C236 0.930 . S
H225 C238 0.930 . S
H226 C239 0.930 . S
H227 C243 0.959 . S
H228 C243 0.959 . S
H229 C243 0.961 . S
H230 C244 0.960 . S
H231 C244 0.961 . S
H232 C244 0.959 . S
H233 C247 0.929 . S
H234 C248 0.931 . S
H235 C250 0.930 . S
C236 H224 0.930 . S
C236 C237 1.399 . S
C236 C241 1.399 . S
C237 C236 1.399 . S
C237 C238 1.376 . S
C238 H225 0.930 . S
C238 C237 1.376 . S
C238 C239 1.388 . S
C239 H226 0.930 . S
C239 C238 1.388 . S
C239 C240 1.390 . S
C240 C239 1.390 . S
C240 C241 1.394 . S
C240 C246 1.465 . S
C241 C236 1.399 . S
C241 C240 1.394 . S
C241 C242 1.516 . S
C242 C241 1.516 . S
C242 C243 1.502 . S
C242 C244 1.561 . S
C242 C245 1.526 . S
C243 H227 0.959 . S
C243 H228 0.959 . S
C243 H229 0.961 . S
C243 C242 1.502 . S
C244 H230 0.960 . S
C244 H231 0.961 . S
C244 H232 0.959 . S
C244 C242 1.561 . S
C245 C242 1.526 . S
C245 C246 1.396 . S
C245 C250 1.390 . S
C246 C240 1.465 . S
C246 C245 1.396 . S
C246 C247 1.399 . S
C247 H233 0.929 . S
C247 C246 1.399 . S
C247 C248 1.385 . S
C248 H234 0.931 . S
C248 C247 1.385 . S
C248 C249 1.389 . S
C249 C248 1.389 . S
C249 C250 1.387 . S
C250 H235 0.930 . S
C250 C245 1.390 . S
C250 C249 1.387 . S
H251 C263 0.930 . S
H252 C265 0.930 . S
H253 C266 0.930 . S
H254 C270 0.959 . S
H255 C270 0.959 . S
H256 C270 0.961 . S
H257 C271 0.960 . S
H258 C271 0.961 . S
H259 C271 0.959 . S
H260 C274 0.929 . S
H261 C275 0.931 . S
H262 C277 0.930 . S
C263 H251 0.930 . S
C263 C264 1.399 . S
C263 C268 1.399 . S
C264 C263 1.399 . S
C264 C265 1.376 . S
C265 H252 0.930 . S
C265 C264 1.376 . S
C265 C266 1.388 . S
C266 H253 0.930 . S
C266 C265 1.388 . S
C266 C267 1.390 . S
C267 C266 1.390 . S
C267 C268 1.394 . S
C267 C273 1.465 . S
C268 C263 1.399 . S
C268 C267 1.394 . S
C268 C269 1.516 . S
C269 C268 1.516 . S
C269 C270 1.502 . S
C269 C271 1.561 . S
C269 C272 1.526 . S
C270 H254 0.959 . S
C270 H255 0.959 . S
C270 H256 0.961 . S
C270 C269 1.502 . S
C271 H257 0.960 . S
C271 H258 0.961 . S
C271 H259 0.959 . S
C271 C269 1.561 . S
C272 C269 1.526 . S
C272 C273 1.396 . S
C272 C277 1.390 . S
C273 C267 1.465 . S
C273 C272 1.396 . S
C273 C274 1.399 . S
C274 H260 0.929 . S
C274 C273 1.399 . S
C274 C275 1.385 . S
C275 H261 0.931 . S
C275 C274 1.385 . S
C275 C276 1.389 . S
C276 C275 1.389 . S
C276 C277 1.387 . S
C277 H262 0.930 . S
C277 C272 1.390 . S
C277 C276 1.387 . S
H278 C290 0.930 . S
H279 C292 0.930 . S
H280 C293 0.930 . S
H281 C297 0.959 . S
H282 C297 0.959 . S
H283 C297 0.961 . S
H284 C298 0.960 . S
H285 C298 0.961 . S
H286 C298 0.959 . S
H287 C301 0.929 . S
H288 C302 0.931 . S
H289 C304 0.930 . S
C290 H278 0.930 . S
C290 C291 1.399 . S
C290 C295 1.399 . S
C291 C290 1.399 . S
C291 C292 1.376 . S
C292 H279 0.930 . S
C292 C291 1.376 . S
C292 C293 1.388 . S
C293 H280 0.930 . S
C293 C292 1.388 . S
C293 C294 1.390 . S
C294 C293 1.390 . S
C294 C295 1.394 . S
C294 C300 1.465 . S
C295 C290 1.399 . S
C295 C294 1.394 . S
C295 C296 1.516 . S
C296 C295 1.516 . S
C296 C297 1.502 . S
C296 C298 1.561 . S
C296 C299 1.526 . S
C297 H281 0.959 . S
C297 H282 0.959 . S
C297 H283 0.961 . S
C297 C296 1.502 . S
C298 H284 0.960 . S
C298 H285 0.961 . S
C298 H286 0.959 . S
C298 C296 1.561 . S
C299 C296 1.526 . S
C299 C300 1.396 . S
C299 C304 1.390 . S
C300 C294 1.465 . S
C300 C299 1.396 . S
C300 C301 1.399 . S
C301 H287 0.929 . S
C301 C300 1.399 . S
C301 C302 1.385 . S
C302 H288 0.931 . S
C302 C301 1.385 . S
C302 C303 1.389 . S
C303 C302 1.389 . S
C303 C304 1.387 . S
C304 H289 0.930 . S
C304 C299 1.390 . S
C304 C303 1.387 . S
H305 C317 0.930 . S
H306 C319 0.930 . S
H307 C320 0.930 . S
H308 C324 0.959 . S
H309 C324 0.959 . S
H310 C324 0.961 . S
H311 C325 0.960 . S
H312 C325 0.961 . S
H313 C325 0.959 . S
H314 C328 0.929 . S
H315 C329 0.931 . S
H316 C331 0.930 . S
C317 H305 0.930 . S
C317 C318 1.399 . S
C317 C322 1.399 . S
C318 C317 1.399 . S
C318 C319 1.376 . S
C319 H306 0.930 . S
C319 C318 1.376 . S
C319 C320 1.388 . S
C320 H307 0.930 . S
C320 C319 1.388 . S
C320 C321 1.390 . S
C321 C320 1.390 . S
C321 C322 1.394 . S
C321 C327 1.465 . S
C322 C317 1.399 . S
C322 C321 1.394 . S
C322 C323 1.516 . S
C323 C322 1.516 . S
C323 C324 1.502 . S
C323 C325 1.561 . S
C323 C326 1.526 . S
C324 H308 0.959 . S
C324 H309 0.959 . S
C324 H310 0.961 . S
C324 C323 1.502 . S
C325 H311 0.960 . S
C325 H312 0.961 . S
C325 H313 0.959 . S
C325 C323 1.561 . S
C326 C323 1.526 . S
C326 C327 1.396 . S
C326 C331 1.390 . S
C327 C321 1.465 . S
C327 C326 1.396 . S
C327 C328 1.399 . S
C328 H314 0.929 . S
C328 C327 1.399 . S
C328 C329 1.385 . S
C329 H315 0.931 . S
C329 C328 1.385 . S
C329 C330 1.389 . S
C330 C329 1.389 . S
C330 C331 1.387 . S
C331 H316 0.930 . S
C331 C326 1.390 . S
C331 C330 1.387 . S
H332 C344 0.930 . S
H333 C346 0.930 . S
H334 C347 0.930 . S
H335 C351 0.959 . S
H336 C351 0.959 . S
H337 C351 0.961 . S
H338 C352 0.960 . S
H339 C352 0.961 . S
H340 C352 0.959 . S
H341 C355 0.929 . S
H342 C356 0.931 . S
H343 C358 0.930 . S
C344 H332 0.930 . S
C344 C345 1.399 . S
C344 C349 1.399 . S
C345 C344 1.399 . S
C345 C346 1.376 . S
C346 H333 0.930 . S
C346 C345 1.376 . S
C346 C347 1.388 . S
C347 H334 0.930 . S
C347 C346 1.388 . S
C347 C348 1.390 . S
C348 C347 1.390 . S
C348 C349 1.394 . S
C348 C354 1.465 . S
C349 C344 1.399 . S
C349 C348 1.394 . S
C349 C350 1.516 . S
C350 C349 1.516 . S
C350 C351 1.502 . S
C350 C352 1.561 . S
C350 C353 1.526 . S
C351 H335 0.959 . S
C351 H336 0.959 . S
C351 H337 0.961 . S
C351 C350 1.502 . S
C352 H338 0.960 . S
C352 H339 0.961 . S
C352 H340 0.959 . S
C352 C350 1.561 . S
C353 C350 1.526 . S
C353 C354 1.396 . S
C353 C358 1.390 . S
C354 C348 1.465 . S
C354 C353 1.396 . S
C354 C355 1.399 . S
C355 H341 0.929 . S
C355 C354 1.399 . S
C355 C356 1.385 . S
C356 H342 0.931 . S
C356 C355 1.385 . S
C356 C357 1.389 . S
C357 C356 1.389 . S
C357 C358 1.387 . S
C358 H343 0.930 . S
C358 C353 1.390 . S
C358 C357 1.387 . S
H359 C371 0.930 . S
H360 C373 0.930 . S
H361 C374 0.930 . S
H362 C378 0.959 . S
H363 C378 0.959 . S
H364 C378 0.961 . S
H365 C379 0.960 . S
H366 C379 0.961 . S
H367 C379 0.959 . S
H368 C382 0.929 . S
H369 C383 0.931 . S
H370 C385 0.930 . S
C371 H359 0.930 . S
C371 C372 1.399 . S
C371 C376 1.399 . S
C372 C371 1.399 . S
C372 C373 1.376 . S
C373 H360 0.930 . S
C373 C372 1.376 . S
C373 C374 1.388 . S
C374 H361 0.930 . S
C374 C373 1.388 . S
C374 C375 1.390 . S
C375 C374 1.390 . S
C375 C376 1.394 . S
C375 C381 1.465 . S
C376 C371 1.399 . S
C376 C375 1.394 . S
C376 C377 1.516 . S
C377 C376 1.516 . S
C377 C378 1.502 . S
C377 C379 1.561 . S
C377 C380 1.526 . S
C378 H362 0.959 . S
C378 H363 0.959 . S
C378 H364 0.961 . S
C378 C377 1.502 . S
C379 H365 0.960 . S
C379 H366 0.961 . S
C379 H367 0.959 . S
C379 C377 1.561 . S
C380 C377 1.526 . S
C380 C381 1.396 . S
C380 C385 1.390 . S
C381 C375 1.465 . S
C381 C380 1.396 . S
C381 C382 1.399 . S
C382 H368 0.929 . S
C382 C381 1.399 . S
C382 C383 1.385 . S
C383 H369 0.931 . S
C383 C382 1.385 . S
C383 C384 1.389 . S
C384 C383 1.389 . S
C384 C385 1.387 . S
C385 H370 0.930 . S
C385 C380 1.390 . S
C385 C384 1.387 . S
H386 C398 0.930 . S
H387 C400 0.930 . S
H388 C401 0.930 . S
H389 C405 0.959 . S
H390 C405 0.959 . S
H391 C405 0.961 . S
H392 C406 0.960 . S
H393 C406 0.961 . S
H394 C406 0.959 . S
H395 C409 0.929 . S
H396 C410 0.931 . S
H397 C412 0.930 . S
C398 H386 0.930 . S
C398 C399 1.399 . S
C398 C403 1.399 . S
C399 C398 1.399 . S
C399 C400 1.376 . S
C400 H387 0.930 . S
C400 C399 1.376 . S
C400 C401 1.388 . S
C401 H388 0.930 . S
C401 C400 1.388 . S
C401 C402 1.390 . S
C402 C401 1.390 . S
C402 C403 1.394 . S
C402 C408 1.465 . S
C403 C398 1.399 . S
C403 C402 1.394 . S
C403 C404 1.516 . S
C404 C403 1.516 . S
C404 C405 1.502 . S
C404 C406 1.561 . S
C404 C407 1.526 . S
C405 H389 0.959 . S
C405 H390 0.959 . S
C405 H391 0.961 . S
C405 C404 1.502 . S
C406 H392 0.960 . S
C406 H393 0.961 . S
C406 H394 0.959 . S
C406 C404 1.561 . S
C407 C404 1.526 . S
C407 C408 1.396 . S
C407 C412 1.390 . S
C408 C402 1.465 . S
C408 C407 1.396 . S
C408 C409 1.399 . S
C409 H395 0.929 . S
C409 C408 1.399 . S
C409 C410 1.385 . S
C410 H396 0.931 . S
C410 C409 1.385 . S
C410 C411 1.389 . S
C411 C410 1.389 . S
C411 C412 1.387 . S
C412 H397 0.930 . S
C412 C407 1.390 . S
C412 C411 1.387 . S
H413 C425 0.930 . S
H414 C427 0.930 . S
H415 C428 0.930 . S
H416 C432 0.959 . S
H417 C432 0.959 . S
H418 C432 0.961 . S
H419 C433 0.960 . S
H420 C433 0.961 . S
H421 C433 0.959 . S
H422 C436 0.929 . S
H423 C437 0.931 . S
H424 C439 0.930 . S
C425 H413 0.930 . S
C425 C426 1.399 . S
C425 C430 1.399 . S
C426 C425 1.399 . S
C426 C427 1.376 . S
C427 H414 0.930 . S
C427 C426 1.376 . S
C427 C428 1.388 . S
C428 H415 0.930 . S
C428 C427 1.388 . S
C428 C429 1.390 . S
C429 C428 1.390 . S
C429 C430 1.394 . S
C429 C435 1.465 . S
C430 C425 1.399 . S
C430 C429 1.394 . S
C430 C431 1.516 . S
C431 C430 1.516 . S
C431 C432 1.502 . S
C431 C433 1.561 . S
C431 C434 1.526 . S
C432 H416 0.959 . S
C432 H417 0.959 . S
C432 H418 0.961 . S
C432 C431 1.502 . S
C433 H419 0.960 . S
C433 H420 0.961 . S
C433 H421 0.959 . S
C433 C431 1.561 . S
C434 C431 1.526 . S
C434 C435 1.396 . S
C434 C439 1.390 . S
C435 C429 1.465 . S
C435 C434 1.396 . S
C435 C436 1.399 . S
C436 H422 0.929 . S
C436 C435 1.399 . S
C436 C437 1.385 . S
C437 H423 0.931 . S
C437 C436 1.385 . S
C437 C438 1.389 . S
C438 C437 1.389 . S
C438 C439 1.387 . S
C439 H424 0.930 . S
C439 C434 1.390 . S
C439 C438 1.387 . S
H440 C452 0.930 . S
H441 C454 0.930 . S
H442 C455 0.930 . S
H443 C459 0.959 . S
H444 C459 0.959 . S
H445 C459 0.961 . S
H446 C460 0.960 . S
H447 C460 0.961 . S
H448 C460 0.959 . S
H449 C463 0.929 . S
H450 C464 0.931 . S
H451 C466 0.930 . S
C452 H440 0.930 . S
C452 C453 1.399 . S
C452 C457 1.399 . S
C453 C452 1.399 . S
C453 C454 1.376 . S
C454 H441 0.930 . S
C454 C453 1.376 . S
C454 C455 1.388 . S
C455 H442 0.930 . S
C455 C454 1.388 . S
C455 C456 1.390 . S
C456 C455 1.390 . S
C456 C457 1.394 . S
C456 C462 1.465 . S
C457 C452 1.399 . S
C457 C456 1.394 . S
C457 C458 1.516 . S
C458 C457 1.516 . S
C458 C459 1.502 . S
C458 C460 1.561 . S
C458 C461 1.526 . S
C459 H443 0.959 . S
C459 H444 0.959 . S
C459 H445 0.961 . S
C459 C458 1.502 . S
C460 H446 0.960 . S
C460 H447 0.961 . S
C460 H448 0.959 . S
C460 C458 1.561 . S
C461 C458 1.526 . S
C461 C462 1.396 . S
C461 C466 1.390 . S
C462 C456 1.465 . S
C462 C461 1.396 . S
C462 C463 1.399 . S
C463 H449 0.929 . S
C463 C462 1.399 . S
C463 C464 1.385 . S
C464 H450 0.931 . S
C464 C463 1.385 . S
C464 C465 1.389 . S
C465 C464 1.389 . S
C465 C466 1.387 . S
C466 H451 0.930 . S
C466 C461 1.390 . S
C466 C465 1.387 . S
H467 C479 0.930 . S
H468 C481 0.930 . S
H469 C482 0.930 . S
H470 C486 0.959 . S
H471 C486 0.959 . S
H472 C486 0.961 . S
H473 C487 0.960 . S
H474 C487 0.961 . S
H475 C487 0.959 . S
H476 C490 0.929 . S
H477 C491 0.931 . S
H478 C493 0.930 . S
C479 H467 0.930 . S
C479 C480 1.399 . S
C479 C484 1.399 . S
C480 C479 1.399 . S
C480 C481 1.376 . S
C481 H468 0.930 . S
C481 C480 1.376 . S
C481 C482 1.388 . S
C482 H469 0.930 . S
C482 C481 1.388 . S
C482 C483 1.390 . S
C483 C482 1.390 . S
C483 C484 1.394 . S
C483 C489 1.465 . S
C484 C479 1.399 . S
C484 C483 1.394 . S
C484 C485 1.516 . S
C485 C484 1.516 . S
C485 C486 1.502 . S
C485 C487 1.561 . S
C485 C488 1.526 . S
C486 H470 0.959 . S
C486 H471 0.959 . S
C486 H472 0.961 . S
C486 C485 1.502 . S
C487 H473 0.960 . S
C487 H474 0.961 . S
C487 H475 0.959 . S
C487 C485 1.561 . S
C488 C485 1.526 . S
C488 C489 1.396 . S
C488 C493 1.390 . S
C489 C483 1.465 . S
C489 C488 1.396 . S
C489 C490 1.399 . S
C490 H476 0.929 . S
C490 C489 1.399 . S
C490 C491 1.385 . S
C491 H477 0.931 . S
C491 C490 1.385 . S
C491 C492 1.389 . S
C492 C491 1.389 . S
C492 C493 1.387 . S
C493 H478 0.930 . S
C493 C488 1.390 . S
C493 C492 1.387 . S
H494 C506 0.930 . S
H495 C508 0.930 . S
H496 C509 0.930 . S
H497 C513 0.959 . S
H498 C513 0.959 . S
H499 C513 0.961 . S
H500 C514 0.960 . S
H501 C514 0.961 . S
H502 C514 0.959 . S
H503 C517 0.929 . S
H504 C518 0.931 . S
H505 C520 0.930 . S
C506 H494 0.930 . S
C506 C507 1.399 . S
C506 C511 1.399 . S
C507 C506 1.399 . S
C507 C508 1.376 . S
C508 H495 0.930 . S
C508 C507 1.376 . S
C508 C509 1.388 . S
C509 H496 0.930 . S
C509 C508 1.388 . S
C509 C510 1.390 . S
C510 C509 1.390 . S
C510 C511 1.394 . S
C510 C516 1.465 . S
C511 C506 1.399 . S
C511 C510 1.394 . S
C511 C512 1.516 . S
C512 C511 1.516 . S
C512 C513 1.502 . S
C512 C514 1.561 . S
C512 C515 1.526 . S
C513 H497 0.959 . S
C513 H498 0.959 . S
C513 H499 0.961 . S
C513 C512 1.502 . S
C514 H500 0.960 . S
C514 H501 0.961 . S
C514 H502 0.959 . S
C514 C512 1.561 . S
C515 C512 1.526 . S
C515 C516 1.396 . S
C515 C520 1.390 . S
C516 C510 1.465 . S
C516 C515 1.396 . S
C516 C517 1.399 . S
C517 H503 0.929 . S
C517 C516 1.399 . S
C517 C518 1.385 . S
C518 H504 0.931 . S
C518 C517 1.385 . S
C518 C519 1.389 . S
C519 C518 1.389 . S
C519 C520 1.387 . S
C520 H505 0.930 . S
C520 C515 1.390 . S
C520 C519 1.387 . S
H521 C533 0.930 . S
H522 C535 0.930 . S
H523 C536 0.930 . S
H524 C540 0.959 . S
H525 C540 0.959 . S
H526 C540 0.961 . S
H527 C541 0.960 . S
H528 C541 0.961 . S
H529 C541 0.959 . S
H530 C544 0.929 . S
H531 C545 0.931 . S
H532 C547 0.930 . S
C533 H521 0.930 . S
C533 C534 1.399 . S
C533 C538 1.399 . S
C534 C533 1.399 . S
C534 C535 1.376 . S
C535 H522 0.930 . S
C535 C534 1.376 . S
C535 C536 1.388 . S
C536 H523 0.930 . S
C536 C535 1.388 . S
C536 C537 1.390 . S
C537 C536 1.390 . S
C537 C538 1.394 . S
C537 C543 1.465 . S
C538 C533 1.399 . S
C538 C537 1.394 . S
C538 C539 1.516 . S
C539 C538 1.516 . S
C539 C540 1.502 . S
C539 C541 1.561 . S
C539 C542 1.526 . S
C540 H524 0.959 . S
C540 H525 0.959 . S
C540 H526 0.961 . S
C540 C539 1.502 . S
C541 H527 0.960 . S
C541 H528 0.961 . S
C541 H529 0.959 . S
C541 C539 1.561 . S
C542 C539 1.526 . S
C542 C543 1.396 . S
C542 C547 1.390 . S
C543 C537 1.465 . S
C543 C542 1.396 . S
C543 C544 1.399 . S
C544 H530 0.929 . S
C544 C543 1.399 . S
C544 C545 1.385 . S
C545 H531 0.931 . S
C545 C544 1.385 . S
C545 C546 1.389 . S
C546 C545 1.389 . S
C546 C547 1.387 . S
C547 H532 0.930 . S
C547 C542 1.390 . S
C547 C546 1.387 . S
H548 C560 0.930 . S
H549 C562 0.930 . S
H550 C563 0.930 . S
H551 C567 0.959 . S
H552 C567 0.959 . S
H553 C567 0.961 . S
H554 C568 0.960 . S
H555 C568 0.961 . S
H556 C568 0.959 . S
H557 C571 0.929 . S
H558 C572 0.931 . S
H559 C574 0.930 . S
C560 H548 0.930 . S
C560 C561 1.399 . S
C560 C565 1.399 . S
C561 C560 1.399 . S
C561 C562 1.376 . S
C562 H549 0.930 . S
C562 C561 1.376 . S
C562 C563 1.388 . S
C563 H550 0.930 . S
C563 C562 1.388 . S
C563 C564 1.390 . S
C564 C563 1.390 . S
C564 C565 1.394 . S
C564 C570 1.465 . S
C565 C560 1.399 . S
C565 C564 1.394 . S
C565 C566 1.516 . S
C566 C565 1.516 . S
C566 C567 1.502 . S
C566 C568 1.561 . S
C566 C569 1.526 . S
C567 H551 0.959 . S
C567 H552 0.959 . S
C567 H553 0.961 . S
C567 C566 1.502 . S
C568 H554 0.960 . S
C568 H555 0.961 . S
C568 H556 0.959 . S
C568 C566 1.561 . S
C569 C566 1.526 . S
C569 C570 1.396 . S
C569 C574 1.390 . S
C570 C564 1.465 . S
C570 C569 1.396 . S
C570 C571 1.399 . S
C571 H557 0.929 . S
C571 C570 1.399 . S
C571 C572 1.385 . S
C572 H558 0.931 . S
C572 C571 1.385 . S
C572 C573 1.389 . S
C573 C572 1.389 . S
C573 C574 1.387 . S
C574 H559 0.930 . S
C574 C569 1.390 . S
C574 C573 1.387 . S
H575 C587 0.930 . S
H576 C589 0.930 . S
H577 C590 0.930 . S
H578 C594 0.959 . S
H579 C594 0.959 . S
H580 C594 0.961 . S
H581 C595 0.960 . S
H582 C595 0.961 . S
H583 C595 0.959 . S
H584 C598 0.929 . S
H585 C599 0.931 . S
H586 C601 0.930 . S
C587 H575 0.930 . S
C587 C588 1.399 . S
C587 C592 1.399 . S
C588 C587 1.399 . S
C588 C589 1.376 . S
C589 H576 0.930 . S
C589 C588 1.376 . S
C589 C590 1.388 . S
C590 H577 0.930 . S
C590 C589 1.388 . S
C590 C591 1.390 . S
C591 C590 1.390 . S
C591 C592 1.394 . S
C591 C597 1.465 . S
C592 C587 1.399 . S
C592 C591 1.394 . S
C592 C593 1.516 . S
C593 C592 1.516 . S
C593 C594 1.502 . S
C593 C595 1.561 . S
C593 C596 1.526 . S
C594 H578 0.959 . S
C594 H579 0.959 . S
C594 H580 0.961 . S
C594 C593 1.502 . S
C595 H581 0.960 . S
C595 H582 0.961 . S
C595 H583 0.959 . S
C595 C593 1.561 . S
C596 C593 1.526 . S
C596 C597 1.396 . S
C596 C601 1.390 . S
C597 C591 1.465 . S
C597 C596 1.396 . S
C597 C598 1.399 . S
C598 H584 0.929 . S
C598 C597 1.399 . S
C598 C599 1.385 . S
C599 H585 0.931 . S
C599 C598 1.385 . S
C599 C600 1.389 . S
C600 C599 1.389 . S
C600 C601 1.387 . S
C601 H586 0.930 . S
C601 C596 1.390 . S
C601 C600 1.387 . S
H602 C614 0.930 . S
H603 C616 0.930 . S
H604 C617 0.930 . S
H605 C621 0.959 . S
H606 C621 0.959 . S
H607 C621 0.961 . S
H608 C622 0.960 . S
H609 C622 0.961 . S
H610 C622 0.959 . S
H611 C625 0.929 . S
H612 C626 0.931 . S
H613 C628 0.930 . S
C614 H602 0.930 . S
C614 C615 1.399 . S
C614 C619 1.399 . S
C615 C614 1.399 . S
C615 C616 1.376 . S
C616 H603 0.930 . S
C616 C615 1.376 . S
C616 C617 1.388 . S
C617 H604 0.930 . S
C617 C616 1.388 . S
C617 C618 1.390 . S
C618 C617 1.390 . S
C618 C619 1.394 . S
C618 C624 1.465 . S
C619 C614 1.399 . S
C619 C618 1.394 . S
C619 C620 1.516 . S
C620 C619 1.516 . S
C620 C621 1.502 . S
C620 C622 1.561 . S
C620 C623 1.526 . S
C621 H605 0.959 . S
C621 H606 0.959 . S
C621 H607 0.961 . S
C621 C620 1.502 . S
C622 H608 0.960 . S
C622 H609 0.961 . S
C622 H610 0.959 . S
C622 C620 1.561 . S
C623 C620 1.526 . S
C623 C624 1.396 . S
C623 C628 1.390 . S
C624 C618 1.465 . S
C624 C623 1.396 . S
C624 C625 1.399 . S
C625 H611 0.929 . S
C625 C624 1.399 . S
C625 C626 1.385 . S
C626 H612 0.931 . S
C626 C625 1.385 . S
C626 C627 1.389 . S
C627 C626 1.389 . S
C627 C628 1.387 . S
C628 H613 0.930 . S
C628 C623 1.390 . S
C628 C627 1.387 . S
H629 C641 0.930 . S
H630 C643 0.930 . S
H631 C644 0.930 . S
H632 C648 0.959 . S
H633 C648 0.959 . S
H634 C648 0.961 . S
H635 C649 0.960 . S
H636 C649 0.961 . S
H637 C649 0.959 . S
H638 C652 0.929 . S
H639 C653 0.931 . S
H640 C655 0.930 . S
C641 H629 0.930 . S
C641 C642 1.399 . S
C641 C646 1.399 . S
C642 C641 1.399 . S
C642 C643 1.376 . S
C643 H630 0.930 . S
C643 C642 1.376 . S
C643 C644 1.388 . S
C644 H631 0.930 . S
C644 C643 1.388 . S
C644 C645 1.390 . S
C645 C644 1.390 . S
C645 C646 1.394 . S
C645 C651 1.465 . S
C646 C641 1.399 . S
C646 C645 1.394 . S
C646 C647 1.516 . S
C647 C646 1.516 . S
C647 C648 1.502 . S
C647 C649 1.561 . S
C647 C650 1.526 . S
C648 H632 0.959 . S
C648 H633 0.959 . S
C648 H634 0.961 . S
C648 C647 1.502 . S
C649 H635 0.960 . S
C649 H636 0.961 . S
C649 H637 0.959 . S
C649 C647 1.561 . S
C650 C647 1.526 . S
C650 C651 1.396 . S
C650 C655 1.390 . S
C651 C645 1.465 . S
C651 C650 1.396 . S
C651 C652 1.399 . S
C652 H638 0.929 . S
C652 C651 1.399 . S
C652 C653 1.385 . S
C653 H639 0.931 . S
C653 C652 1.385 . S
C653 C654 1.389 . S
C654 C653 1.389 . S
C654 C655 1.387 . S
C655 H640 0.930 . S
C655 C650 1.390 . S
C655 C654 1.387 . S
H656 C668 0.930 . S
H657 C670 0.930 . S
H658 C671 0.930 . S
H659 C675 0.959 . S
H660 C675 0.959 . S
H661 C675 0.961 . S
H662 C676 0.960 . S
H663 C676 0.961 . S
H664 C676 0.959 . S
H665 C679 0.929 . S
H666 C680 0.931 . S
H667 C682 0.930 . S
C668 H656 0.930 . S
C668 C669 1.399 . S
C668 C673 1.399 . S
C669 C668 1.399 . S
C669 C670 1.376 . S
C670 H657 0.930 . S
C670 C669 1.376 . S
C670 C671 1.388 . S
C671 H658 0.930 . S
C671 C670 1.388 . S
C671 C672 1.390 . S
C672 C671 1.390 . S
C672 C673 1.394 . S
C672 C678 1.465 . S
C673 C668 1.399 . S
C673 C672 1.394 . S
C673 C674 1.516 . S
C674 C673 1.516 . S
C674 C675 1.502 . S
C674 C676 1.561 . S
C674 C677 1.526 . S
C675 H659 0.959 . S
C675 H660 0.959 . S
C675 H661 0.961 . S
C675 C674 1.502 . S
C676 H662 0.960 . S
C676 H663 0.961 . S
C676 H664 0.959 . S
C676 C674 1.561 . S
C677 C674 1.526 . S
C677 C678 1.396 . S
C677 C682 1.390 . S
C678 C672 1.465 . S
C678 C677 1.396 . S
C678 C679 1.399 . S
C679 H665 0.929 . S
C679 C678 1.399 . S
C679 C680 1.385 . S
C680 H666 0.931 . S
C680 C679 1.385 . S
C680 C681 1.389 . S
C681 C680 1.389 . S
C681 C682 1.387 . S
C682 H667 0.930 . S
C682 C677 1.390 . S
C682 C681 1.387 . S
H683 C695 0.930 . S
H684 C697 0.930 . S
H685 C698 0.930 . S
H686 C702 0.959 . S
H687 C702 0.959 . S
H688 C702 0.961 . S
H689 C703 0.960 . S
H690 C703 0.961 . S
H691 C703 0.959 . S
H692 C706 0.929 . S
H693 C707 0.931 . S
H694 C709 0.930 . S
C695 H683 0.930 . S
C695 C696 1.399 . S
C695 C700 1.399 . S
C696 C695 1.399 . S
C696 C697 1.376 . S
C697 H684 0.930 . S
C697 C696 1.376 . S
C697 C698 1.388 . S
C698 H685 0.930 . S
C698 C697 1.388 . S
C698 C699 1.390 . S
C699 C698 1.390 . S
C699 C700 1.394 . S
C699 C705 1.465 . S
C700 C695 1.399 . S
C700 C699 1.394 . S
C700 C701 1.516 . S
C701 C700 1.516 . S
C701 C702 1.502 . S
C701 C703 1.561 . S
C701 C704 1.526 . S
C702 H686 0.959 . S
C702 H687 0.959 . S
C702 H688 0.961 . S
C702 C701 1.502 . S
C703 H689 0.960 . S
C703 H690 0.961 . S
C703 H691 0.959 . S
C703 C701 1.561 . S
C704 C701 1.526 . S
C704 C705 1.396 . S
C704 C709 1.390 . S
C705 C699 1.465 . S
C705 C704 1.396 . S
C705 C706 1.399 . S
C706 H692 0.929 . S
C706 C705 1.399 . S
C706 C707 1.385 . S
C707 H693 0.931 . S
C707 C706 1.385 . S
C707 C708 1.389 . S
C708 C707 1.389 . S
C708 C709 1.387 . S
C709 H694 0.930 . S
C709 C704 1.390 . S
C709 C708 1.387 . S
H710 C722 0.930 . S
H711 C724 0.930 . S
H712 C725 0.930 . S
H713 C729 0.959 . S
H714 C729 0.959 . S
H715 C729 0.961 . S
H716 C730 0.960 . S
H717 C730 0.961 . S
H718 C730 0.959 . S
H719 C733 0.929 . S
H720 C734 0.931 . S
H721 C736 0.930 . S
C722 H710 0.930 . S
C722 C723 1.399 . S
C722 C727 1.399 . S
C723 C722 1.399 . S
C723 C724 1.376 . S
C724 H711 0.930 . S
C724 C723 1.376 . S
C724 C725 1.388 . S
C725 H712 0.930 . S
C725 C724 1.388 . S
C725 C726 1.390 . S
C726 C725 1.390 . S
C726 C727 1.394 . S
C726 C732 1.465 . S
C727 C722 1.399 . S
C727 C726 1.394 . S
C727 C728 1.516 . S
C728 C727 1.516 . S
C728 C729 1.502 . S
C728 C730 1.561 . S
C728 C731 1.526 . S
C729 H713 0.959 . S
C729 H714 0.959 . S
C729 H715 0.961 . S
C729 C728 1.502 . S
C730 H716 0.960 . S
C730 H717 0.961 . S
C730 H718 0.959 . S
C730 C728 1.561 . S
C731 C728 1.526 . S
C731 C732 1.396 . S
C731 C736 1.390 . S
C732 C726 1.465 . S
C732 C731 1.396 . S
C732 C733 1.399 . S
C733 H719 0.929 . S
C733 C732 1.399 . S
C733 C734 1.385 . S
C734 H720 0.931 . S
C734 C733 1.385 . S
C734 C735 1.389 . S
C735 C734 1.389 . S
C735 C736 1.387 . S
C736 H721 0.930 . S
C736 C731 1.390 . S
C736 C735 1.387 . S
H737 C749 0.930 . S
H738 C751 0.930 . S
H739 C752 0.930 . S
H740 C756 0.959 . S
H741 C756 0.959 . S
H742 C756 0.961 . S
H743 C757 0.960 . S
H744 C757 0.961 . S
H745 C757 0.959 . S
H746 C760 0.929 . S
H747 C761 0.931 . S
H748 C763 0.930 . S
C749 H737 0.930 . S
C749 C750 1.399 . S
C749 C754 1.399 . S
C750 C749 1.399 . S
C750 C751 1.376 . S
C751 H738 0.930 . S
C751 C750 1.376 . S
C751 C752 1.388 . S
C752 H739 0.930 . S
C752 C751 1.388 . S
C752 C753 1.390 . S
C753 C752 1.390 . S
C753 C754 1.394 . S
C753 C759 1.465 . S
C754 C749 1.399 . S
C754 C753 1.394 . S
C754 C755 1.516 . S
C755 C754 1.516 . S
C755 C756 1.502 . S
C755 C757 1.561 . S
C755 C758 1.526 . S
C756 H740 0.959 . S
C756 H741 0.959 . S
C756 H742 0.961 . S
C756 C755 1.502 . S
C757 H743 0.960 . S
C757 H744 0.961 . S
C757 H745 0.959 . S
C757 C755 1.561 . S
C758 C755 1.526 . S
C758 C759 1.396 . S
C758 C763 1.390 . S
C759 C753 1.465 . S
C759 C758 1.396 . S
C759 C760 1.399 . S
C760 H746 0.929 . S
C760 C759 1.399 . S
C760 C761 1.385 . S
C761 H747 0.931 . S
C761 C760 1.385 . S
C761 C762 1.389 . S
C762 C761 1.389 . S
C762 C763 1.387 . S
C763 H748 0.930 . S
C763 C758 1.390 . S
C763 C762 1.387 . S
H764 C776 0.930 . S
H765 C778 0.930 . S
H766 C779 0.930 . S
H767 C783 0.959 . S
H768 C783 0.959 . S
H769 C783 0.961 . S
H770 C784 0.960 . S
H771 C784 0.961 . S
H772 C784 0.959 . S
H773 C787 0.929 . S
H774 C788 0.931 . S
H775 C790 0.930 . S
C776 H764 0.930 . S
C776 C777 1.399 . S
C776 C781 1.399 . S
C777 C776 1.399 . S
C777 C778 1.376 . S
C778 H765 0.930 . S
C778 C777 1.376 . S
C778 C779 1.388 . S
C779 H766 0.930 . S
C779 C778 1.388 . S
C779 C780 1.390 . S
C780 C779 1.390 . S
C780 C781 1.394 . S
C780 C786 1.465 . S
C781 C776 1.399 . S
C781 C780 1.394 . S
C781 C782 1.516 . S
C782 C781 1.516 . S
C782 C783 1.502 . S
C782 C784 1.561 . S
C782 C785 1.526 . S
C783 H767 0.959 . S
C783 H768 0.959 . S
C783 H769 0.961 . S
C783 C782 1.502 . S
C784 H770 0.960 . S
C784 H771 0.961 . S
C784 H772 0.959 . S
C784 C782 1.561 . S
C785 C782 1.526 . S
C785 C786 1.396 . S
C785 C790 1.390 . S
C786 C780 1.465 . S
C786 C785 1.396 . S
C786 C787 1.399 . S
C787 H773 0.929 . S
C787 C786 1.399 . S
C787 C788 1.385 . S
C788 H774 0.931 . S
C788 C787 1.385 . S
C788 C789 1.389 . S
C789 C788 1.389 . S
C789 C790 1.387 . S
C790 H775 0.930 . S
C790 C785 1.390 . S
C790 C789 1.387 . S
H791 C803 0.930 . S
H792 C805 0.930 . S
H793 C806 0.930 . S
H794 C810 0.959 . S
H795 C810 0.959 . S
H796 C810 0.961 . S
H797 C811 0.960 . S
H798 C811 0.961 . S
H799 C811 0.959 . S
H800 C814 0.929 . S
H801 C815 0.931 . S
H802 C817 0.930 . S
C803 H791 0.930 . S
C803 C804 1.399 . S
C803 C808 1.399 . S
C804 C803 1.399 . S
C804 C805 1.376 . S
C805 H792 0.930 . S
C805 C804 1.376 . S
C805 C806 1.388 . S
C806 H793 0.930 . S
C806 C805 1.388 . S
C806 C807 1.390 . S
C807 C806 1.390 . S
C807 C808 1.394 . S
C807 C813 1.465 . S
C808 C803 1.399 . S
C808 C807 1.394 . S
C808 C809 1.516 . S
C809 C808 1.516 . S
C809 C810 1.502 . S
C809 C811 1.561 . S
C809 C812 1.526 . S
C810 H794 0.959 . S
C810 H795 0.959 . S
C810 H796 0.961 . S
C810 C809 1.502 . S
C811 H797 0.960 . S
C811 H798 0.961 . S
C811 H799 0.959 . S
C811 C809 1.561 . S
C812 C809 1.526 . S
C812 C813 1.396 . S
C812 C817 1.390 . S
C813 C807 1.465 . S
C813 C812 1.396 . S
C813 C814 1.399 . S
C814 H800 0.929 . S
C814 C813 1.399 . S
C814 C815 1.385 . S
C815 H801 0.931 . S
C815 C814 1.385 . S
C815 C816 1.389 . S
C816 C815 1.389 . S
C816 C817 1.387 . S
C817 H802 0.930 . S
C817 C812 1.390 . S
C817 C816 1.387 . S
H818 C830 0.930 . S
H819 C832 0.930 . S
H820 C833 0.930 . S
H821 C837 0.959 . S
H822 C837 0.959 . S
H823 C837 0.961 . S
H824 C838 0.960 . S
H825 C838 0.961 . S
H826 C838 0.959 . S
H827 C841 0.929 . S
H828 C842 0.931 . S
H829 C844 0.930 . S
C830 H818 0.930 . S
C830 C831 1.399 . S
C830 C835 1.399 . S
C831 C830 1.399 . S
C831 C832 1.376 . S
C832 H819 0.930 . S
C832 C831 1.376 . S
C832 C833 1.388 . S
C833 H820 0.930 . S
C833 C832 1.388 . S
C833 C834 1.390 . S
C834 C833 1.390 . S
C834 C835 1.394 . S
C834 C840 1.465 . S
C835 C830 1.399 . S
C835 C834 1.394 . S
C835 C836 1.516 . S
C836 C835 1.516 . S
C836 C837 1.502 . S
C836 C838 1.561 . S
C836 C839 1.526 . S
C837 H821 0.959 . S
C837 H822 0.959 . S
C837 H823 0.961 . S
C837 C836 1.502 . S
C838 H824 0.960 . S
C838 H825 0.961 . S
C838 H826 0.959 . S
C838 C836 1.561 . S
C839 C836 1.526 . S
C839 C840 1.396 . S
C839 C844 1.390 . S
C840 C834 1.465 . S
C840 C839 1.396 . S
C840 C841 1.399 . S
C841 H827 0.929 . S
C841 C840 1.399 . S
C841 C842 1.385 . S
C842 H828 0.931 . S
C842 C841 1.385 . S
C842 C843 1.389 . S
C843 C842 1.389 . S
C843 C844 1.387 . S
C844 H829 0.930 . S
C844 C839 1.390 . S
C844 C843 1.387 . S
H845 C857 0.930 . S
H846 C859 0.930 . S
H847 C860 0.930 . S
H848 C864 0.959 . S
H849 C864 0.959 . S
H850 C864 0.961 . S
H851 C865 0.960 . S
H852 C865 0.961 . S
H853 C865 0.959 . S
H854 C868 0.929 . S
H855 C869 0.931 . S
H856 C871 0.930 . S
C857 H845 0.930 . S
C857 C858 1.399 . S
C857 C862 1.399 . S
C858 C857 1.399 . S
C858 C859 1.376 . S
C859 H846 0.930 . S
C859 C858 1.376 . S
C859 C860 1.388 . S
C860 H847 0.930 . S
C860 C859 1.388 . S
C860 C861 1.390 . S
C861 C860 1.390 . S
C861 C862 1.394 . S
C861 C867 1.465 . S
C862 C857 1.399 . S
C862 C861 1.394 . S
C862 C863 1.516 . S
C863 C862 1.516 . S
C863 C864 1.502 . S
C863 C865 1.561 . S
C863 C866 1.526 . S
C864 H848 0.959 . S
C864 H849 0.959 . S
C864 H850 0.961 . S
C864 C863 1.502 . S
C865 H851 0.960 . S
C865 H852 0.961 . S
C865 H853 0.959 . S
C865 C863 1.561 . S
C866 C863 1.526 . S
C866 C867 1.396 . S
C866 C871 1.390 . S
C867 C861 1.465 . S
C867 C866 1.396 . S
C867 C868 1.399 . S
C868 H854 0.929 . S
C868 C867 1.399 . S
C868 C869 1.385 . S
C869 H855 0.931 . S
C869 C868 1.385 . S
C869 C870 1.389 . S
C870 C869 1.389 . S
C870 C871 1.387 . S
C871 H856 0.930 . S
C871 C866 1.390 . S
C871 C870 1.387 . S
H872 C884 0.930 . S
H873 C886 0.930 . S
H874 C887 0.930 . S
H875 C891 0.959 . S
H876 C891 0.959 . S
H877 C891 0.961 . S
H878 C892 0.960 . S
H879 C892 0.961 . S
H880 C892 0.959 . S
H881 C895 0.929 . S
H882 C896 0.931 . S
H883 C898 0.930 . S
C884 H872 0.930 . S
C884 C885 1.399 . S
C884 C889 1.399 . S
C885 C884 1.399 . S
C885 C886 1.376 . S
C886 H873 0.930 . S
C886 C885 1.376 . S
C886 C887 1.388 . S
C887 H874 0.930 . S
C887 C886 1.388 . S
C887 C888 1.390 . S
C888 C887 1.390 . S
C888 C889 1.394 . S
C888 C894 1.465 . S
C889 C884 1.399 . S
C889 C888 1.394 . S
C889 C890 1.516 . S
C890 C889 1.516 . S
C890 C891 1.502 . S
C890 C892 1.561 . S
C890 C893 1.526 . S
C891 H875 0.959 . S
C891 H876 0.959 . S
C891 H877 0.961 . S
C891 C890 1.502 . S
C892 H878 0.960 . S
C892 H879 0.961 . S
C892 H880 0.959 . S
C892 C890 1.561 . S
C893 C890 1.526 . S
C893 C894 1.396 . S
C893 C898 1.390 . S
C894 C888 1.465 . S
C894 C893 1.396 . S
C894 C895 1.399 . S
C895 H881 0.929 . S
C895 C894 1.399 . S
C895 C896 1.385 . S
C896 H882 0.931 . S
C896 C895 1.385 . S
C896 C897 1.389 . S
C897 C896 1.389 . S
C897 C898 1.387 . S
C898 H883 0.930 . S
C898 C893 1.390 . S
C898 C897 1.387 . S
H899 C911 0.930 . S
H900 C913 0.930 . S
H901 C914 0.930 . S
H902 C918 0.959 . S
H903 C918 0.959 . S
H904 C918 0.961 . S
H905 C919 0.960 . S
H906 C919 0.961 . S
H907 C919 0.959 . S
H908 C922 0.929 . S
H909 C923 0.931 . S
H910 C925 0.930 . S
C911 H899 0.930 . S
C911 C912 1.399 . S
C911 C916 1.399 . S
C912 C911 1.399 . S
C912 C913 1.376 . S
C913 H900 0.930 . S
C913 C912 1.376 . S
C913 C914 1.388 . S
C914 H901 0.930 . S
C914 C913 1.388 . S
C914 C915 1.390 . S
C915 C914 1.390 . S
C915 C916 1.394 . S
C915 C921 1.465 . S
C916 C911 1.399 . S
C916 C915 1.394 . S
C916 C917 1.516 . S
C917 C916 1.516 . S
C917 C918 1.502 . S
C917 C919 1.561 . S
C917 C920 1.526 . S
C918 H902 0.959 . S
C918 H903 0.959 . S
C918 H904 0.961 . S
C918 C917 1.502 . S
C919 H905 0.960 . S
C919 H906 0.961 . S
C919 H907 0.959 . S
C919 C917 1.561 . S
C920 C917 1.526 . S
C920 C921 1.396 . S
C920 C925 1.390 . S
C921 C915 1.465 . S
C921 C920 1.396 . S
C921 C922 1.399 . S
C922 H908 0.929 . S
C922 C921 1.399 . S
C922 C923 1.385 . S
C923 H909 0.931 . S
C923 C922 1.385 . S
C923 C924 1.389 . S
C924 C923 1.389 . S
C924 C925 1.387 . S
C925 H910 0.930 . S
C925 C920 1.390 . S
C925 C924 1.387 . S
H926 C938 0.930 . S
H927 C940 0.930 . S
H928 C941 0.930 . S
H929 C945 0.959 . S
H930 C945 0.959 . S
H931 C945 0.961 . S
H932 C946 0.960 . S
H933 C946 0.961 . S
H934 C946 0.959 . S
H935 C949 0.929 . S
H936 C950 0.931 . S
H937 C952 0.930 . S
C938 H926 0.930 . S
C938 C939 1.399 . S
C938 C943 1.399 . S
C939 C938 1.399 . S
C939 C940 1.376 . S
C940 H927 0.930 . S
C940 C939 1.376 . S
C940 C941 1.388 . S
C941 H928 0.930 . S
C941 C940 1.388 . S
C941 C942 1.390 . S
C942 C941 1.390 . S
C942 C943 1.394 . S
C942 C948 1.465 . S
C943 C938 1.399 . S
C943 C942 1.394 . S
C943 C944 1.516 . S
C944 C943 1.516 . S
C944 C945 1.502 . S
C944 C946 1.561 . S
C944 C947 1.526 . S
C945 H929 0.959 . S
C945 H930 0.959 . S
C945 H931 0.961 . S
C945 C944 1.502 . S
C946 H932 0.960 . S
C946 H933 0.961 . S
C946 H934 0.959 . S
C946 C944 1.561 . S
C947 C944 1.526 . S
C947 C948 1.396 . S
C947 C952 1.390 . S
C948 C942 1.465 . S
C948 C947 1.396 . S
C948 C949 1.399 . S
C949 H935 0.929 . S
C949 C948 1.399 . S
C949 C950 1.385 . S
C950 H936 0.931 . S
C950 C949 1.385 . S
C950 C951 1.389 . S
C951 C950 1.389 . S
C951 C952 1.387 . S
C952 H937 0.930 . S
C952 C947 1.390 . S
C952 C951 1.387 . S
H953 C965 0.930 . S
H954 C967 0.930 . S
H955 C968 0.930 . S
H956 C972 0.959 . S
H957 C972 0.959 . S
H958 C972 0.961 . S
H959 C973 0.960 . S
H960 C973 0.961 . S
H961 C973 0.959 . S
H962 C976 0.929 . S
H963 C977 0.931 . S
H964 C979 0.930 . S
C965 H953 0.930 . S
C965 C966 1.399 . S
C965 C970 1.399 . S
C966 C965 1.399 . S
C966 C967 1.376 . S
C967 H954 0.930 . S
C967 C966 1.376 . S
C967 C968 1.388 . S
C968 H955 0.930 . S
C968 C967 1.388 . S
C968 C969 1.390 . S
C969 C968 1.390 . S
C969 C970 1.394 . S
C969 C975 1.465 . S
C970 C965 1.399 . S
C970 C969 1.394 . S
C970 C971 1.516 . S
C971 C970 1.516 . S
C971 C972 1.502 . S
C971 C973 1.561 . S
C971 C974 1.526 . S
C972 H956 0.959 . S
C972 H957 0.959 . S
C972 H958 0.961 . S
C972 C971 1.502 . S
C973 H959 0.960 . S
C973 H960 0.961 . S
C973 H961 0.959 . S
C973 C971 1.561 . S
C974 C971 1.526 . S
C974 C975 1.396 . S
C974 C979 1.390 . S
C975 C969 1.465 . S
C975 C974 1.396 . S
C975 C976 1.399 . S
C976 H962 0.929 . S
C976 C975 1.399 . S
C976 C977 1.385 . S
C977 H963 0.931 . S
C977 C976 1.385 . S
C977 C978 1.389 . S
C978 C977 1.389 . S
C978 C979 1.387 . S
C979 H964 0.930 . S
C979 C974 1.390 . S
C979 C978 1.387 . S
H980 C992 0.930 . S
H981 C994 0.930 1_565 S
H982 C995 0.930 . S
H983 C999 0.959 1_565 S
H984 C999 0.959 . S
H985 C999 0.961 1_554 S
H986 C1000 0.960 . S
H987 C1000 0.961 . S
H988 C1000 0.959 . S
H989 C1003 0.929 . S
H990 C1004 0.931 . S
H991 C1006 0.930 1_545 S
C992 H980 0.930 . S
C992 C993 1.399 . S
C992 C997 1.399 . S
C993 C992 1.399 . S
C993 C994 1.376 . S
C994 H981 0.930 1_545 S
C994 C993 1.376 . S
C994 C995 1.388 1_545 S
C995 H982 0.930 . S
C995 C994 1.388 1_565 S
C995 C996 1.390 . S
C996 C995 1.390 . S
C996 C997 1.394 1_565 S
C996 C1002 1.465 1_554 S
C997 C992 1.399 . S
C997 C996 1.394 1_545 S
C997 C998 1.516 1_554 S
C998 C997 1.516 1_556 S
C998 C999 1.502 . S
C998 C1000 1.561 . S
C998 C1001 1.526 . S
C999 H983 0.959 1_545 S
C999 H984 0.959 . S
C999 H985 0.961 1_556 S
C999 C998 1.502 . S
C1000 H986 0.960 . S
C1000 H987 0.961 . S
C1000 H988 0.959 . S
C1000 C998 1.561 . S
C1001 C998 1.526 . S
C1001 C1002 1.396 1_545 S
C1001 C1006 1.390 1_545 S
C1002 C996 1.465 1_556 S
C1002 C1001 1.396 1_565 S
C1002 C1003 1.399 . S
C1003 H989 0.929 . S
C1003 C1002 1.399 . S
C1003 C1004 1.385 . S
C1004 H990 0.931 . S
C1004 C1003 1.385 . S
C1004 C1005 1.389 . S
C1005 C1004 1.389 . S
C1005 C1006 1.387 . S
C1006 H991 0.930 1_565 S
C1006 C1001 1.390 1_565 S
C1006 C1005 1.387 . S
H1007 C1019 0.930 . S
H1008 C1021 0.930 . S
H1009 C1022 0.930 . S
H1010 C1026 0.959 . S
H1011 C1026 0.959 . S
H1012 C1026 0.961 . S
H1013 C1027 0.960 1_556 S
H1014 C1027 0.961 . S
H1015 C1027 0.924 1_655 S
H1016 C1030 0.929 . S
H1017 C1031 0.931 . S
H1018 C1033 0.908 1_455 S
C1019 H1007 0.930 . S
C1019 C1020 1.399 . S
C1019 C1024 1.399 . S
C1020 C1019 1.399 . S
C1020 C1021 1.376 1_455 S
C1021 H1008 0.930 . S
C1021 C1020 1.376 1_655 S
C1021 C1022 1.388 . S
C1022 H1009 0.930 . S
C1022 C1021 1.388 . S
C1022 C1023 1.390 . S
C1023 C1022 1.390 . S
C1023 C1024 1.394 1_655 S
C1023 C1029 1.465 1_556 S
C1024 C1019 1.399 . S
C1024 C1023 1.394 1_455 S
C1024 C1025 1.516 1_556 S
C1025 C1024 1.516 1_554 S
C1025 C1026 1.502 . S
C1025 C1027 1.561 . S
C1025 C1028 1.526 . S
C1026 H1010 0.959 . S
C1026 H1011 0.959 . S
C1026 H1012 0.961 . S
C1026 C1025 1.502 . S
C1027 H1013 0.960 1_554 S
C1027 H1014 0.961 . S
C1027 H1015 0.924 1_455 S
C1027 C1025 1.561 . S
C1028 C1025 1.526 . S
C1028 C1029 1.396 1_455 S
C1028 C1033 1.387 1_455 S
C1029 C1023 1.465 1_554 S
C1029 C1028 1.396 1_655 S
C1029 C1030 1.399 . S
C1030 H1016 0.929 . S
C1030 C1029 1.399 . S
C1030 C1031 1.385 . S
C1031 H1017 0.931 . S
C1031 C1030 1.385 . S
C1031 C1032 1.389 . S
C1032 C1031 1.389 . S
C1032 C1033 1.413 . S
C1033 H1018 0.908 1_655 S
C1033 C1028 1.387 1_655 S
C1033 C1032 1.413 . S
H1034 C1046 0.930 . S
H1035 C1048 0.930 . S
H1036 C1049 0.930 . S
H1037 C1053 0.959 . S
H1038 C1053 0.942 1_554 S
H1039 C1053 0.961 . S
H1040 C1054 0.960 . S
H1041 C1054 0.961 . S
H1042 C1054 0.959 . S
H1043 C1057 0.929 . S
H1044 C1058 0.931 . S
H1045 C1060 0.930 . S
C1046 H1034 0.930 . S
C1046 C1047 1.399 1_565 S
C1046 C1051 1.399 . S
C1047 C1046 1.399 1_545 S
C1047 C1048 1.376 . S
C1048 H1035 0.930 . S
C1048 C1047 1.376 . S
C1048 C1049 1.388 . S
C1049 H1036 0.930 . S
C1049 C1048 1.388 . S
C1049 C1050 1.390 . S
C1050 C1049 1.390 . S
C1050 C1051 1.394 1_545 S
C1050 C1056 1.465 1_556 S
C1051 C1046 1.399 . S
C1051 C1050 1.394 1_565 S
C1051 C1052 1.516 . S
C1052 C1051 1.516 . S
C1052 C1053 1.502 . S
C1052 C1054 1.561 . S
C1052 C1055 1.526 1_556 S
C1053 H1037 0.959 . S
C1053 H1038 0.942 1_556 S
C1053 H1039 0.961 . S
C1053 C1052 1.502 . S
C1054 H1040 0.960 . S
C1054 H1041 0.961 . S
C1054 H1042 0.959 . S
C1054 C1052 1.561 . S
C1055 C1052 1.526 1_554 S
C1055 C1056 1.396 1_565 S
C1055 C1060 1.390 . S
C1056 C1050 1.465 1_554 S
C1056 C1055 1.396 1_545 S
C1056 C1057 1.399 . S
C1057 H1043 0.929 . S
C1057 C1056 1.399 . S
C1057 C1058 1.385 . S
C1058 H1044 0.931 . S
C1058 C1057 1.385 . S
C1058 C1059 1.389 1_545 S
C1059 C1058 1.389 1_565 S
C1059 C1060 1.387 . S
C1060 H1045 0.930 . S
C1060 C1055 1.390 . S
C1060 C1059 1.387 . S
H1061 C1073 0.930 . S
H1062 C1075 0.928 1_455 S
H1063 C1076 0.930 . S
H1064 C1080 0.959 . S
H1065 C1080 0.959 . S
H1066 C1080 0.961 1_556 S
H1067 C1081 0.984 1_655 S
H1068 C1081 0.936 1_554 S
H1069 C1081 0.965 . S
H1070 C1084 0.929 . S
H1071 C1085 0.931 . S
H1072 C1087 0.930 1_655 S
C1073 H1061 0.930 . S
C1073 C1074 1.399 . S
C1073 C1078 1.399 . S
C1074 C1073 1.399 . S
C1074 C1075 1.382 . S
C1075 H1062 0.928 1_655 S
C1075 C1074 1.382 . S
C1075 C1076 1.385 1_655 S
C1076 H1063 0.930 . S
C1076 C1075 1.385 1_455 S
C1076 C1077 1.390 . S
C1077 C1076 1.390 . S
C1077 C1078 1.394 1_455 S
C1077 C1083 1.465 1_556 S
C1078 C1073 1.399 . S
C1078 C1077 1.394 1_655 S
C1078 C1079 1.516 1_556 S
C1079 C1078 1.516 1_554 S
C1079 C1080 1.502 . S
C1079 C1081 1.557 1_654 S
C1079 C1082 1.526 1_655 S
C1080 H1064 0.959 . S
C1080 H1065 0.959 . S
C1080 H1066 0.961 1_554 S
C1080 C1079 1.502 . S
C1081 H1067 0.984 1_455 S
C1081 H1068 0.936 1_556 S
C1081 H1069 0.965 . S
C1081 C1079 1.557 1_456 S
C1082 C1079 1.526 1_455 S
C1082 C1083 1.396 . S
C1082 C1087 1.390 . S
C1083 C1077 1.465 1_554 S
C1083 C1082 1.396 . S
C1083 C1084 1.399 . S
C1084 H1070 0.929 . S
C1084 C1083 1.399 . S
C1084 C1085 1.385 . S
C1085 H1071 0.931 . S
C1085 C1084 1.385 . S
C1085 C1086 1.389 . S
C1086 C1085 1.389 . S
C1086 C1087 1.387 . S
C1087 H1072 0.930 1_455 S
C1087 C1082 1.390 . S
C1087 C1086 1.387 . S
C237 C8 1.246 . S
C249 C106 1.250 . S
C264 C22 1.261 . S
C276 C64 1.264 . S
C291 C78 1.263 . S
C303 C36 1.259 . S
C318 C50 1.268 . S
C330 C92 1.267 . S
C345 C120 1.251 . S
C357 C218 1.255 . S
C372 C176 1.246 . S
C384 C134 1.249 . S
C399 C190 1.246 . S
C411 C148 1.250 . S
C426 C204 1.246 . S
C438 C162 1.250 . S
C453 C9 1.298 . S
C465 C157 1.404 . S
C480 C23 1.387 . S
C492 C115 1.408 . S
C507 C129 1.404 . S
C519 C37 1.361 . S
C534 C51 1.346 . S
C546 C143 1.410 . S
C561 C65 1.372 . S
C573 C185 1.405 . S
C588 C199 1.409 . S
C600 C79 1.381 . S
C615 C93 1.384 . S
C627 C213 1.410 . S
C642 C171 1.404 . S
C654 C107 1.305 . S
C669 C121 1.305 . S
C681 C45 1.403 . S
C696 C3 1.404 . S
C708 C135 1.310 . S
C723 C149 1.384 . S
C735 C17 1.410 . S
C750 C31 1.404 . S
C762 C163 1.313 . S
C777 C177 1.318 . S
C789 C73 1.403 . S
C804 C87 1.403 . S
C816 C191 1.319 . S
C831 C101 1.410 . S
C843 C205 1.362 . S
C858 C59 1.407 . S
C870 C219 1.389 . S
C885 C63 1.599 . S
C897 C7 1.601 . S
C912 C77 1.550 . S
C924 C21 1.567 . S
C939 C35 1.596 . S
C951 C91 1.598 . S
C966 C105 1.581 . S
C978 C49 1.601 . S
C993 C175 1.609 . S
C1005 C119 1.609 . S
C1020 C189 1.580 . S
C1032 C133 1.600 . S
C1047 C147 1.559 . S
C1059 C203 1.558 . S
C1074 C217 1.592 . S
C1086 C161 1.608 . S
