# Generated by pormake.
# Topology umd, (4)-cn, num edge types: 1
# Building blocks:
#     Node 0, Type 0, BuildingBlock: QUQFOY_clean_sbu_3, # of connection points: 4
#     Node 1, Type 0, BuildingBlock: QUQFOY_clean_sbu_3, # of connection points: 4
#     Node 2, Type 0, BuildingBlock: QUQFOY_clean_sbu_3, # of connection points: 4
#     Node 3, Type 0, BuildingBlock: QUQFOY_clean_sbu_3, # of connection points: 4
#     Node 4, Type 0, BuildingBlock: QUQFOY_clean_sbu_3, # of connection points: 4
#     Node 5, Type 0, BuildingBlock: QUQFOY_clean_sbu_3, # of connection points: 4
#     Node 6, Type 0, BuildingBlock: QUQFOY_clean_sbu_3, # of connection points: 4
#     Node 7, Type 0, BuildingBlock: QUQFOY_clean_sbu_3, # of connection points: 4
#     Node 8, Type 0, BuildingBlock: QUQFOY_clean_sbu_3, # of connection points: 4
#     Node 9, Type 0, BuildingBlock: QUQFOY_clean_sbu_3, # of connection points: 4
#     Node 10, Type 0, BuildingBlock: QUQFOY_clean_sbu_3, # of connection points: 4
#     Node 11, Type 0, BuildingBlock: QUQFOY_clean_sbu_3, # of connection points: 4
#     Node 12, Type 0, BuildingBlock: QUQFOY_clean_sbu_3, # of connection points: 4
#     Node 13, Type 0, BuildingBlock: QUQFOY_clean_sbu_3, # of connection points: 4
#     Node 14, Type 0, BuildingBlock: QUQFOY_clean_sbu_3, # of connection points: 4
#     Node 15, Type 0, BuildingBlock: QUQFOY_clean_sbu_3, # of connection points: 4
#     Edge 16, Type (0, 0), BuildingBlock: XIVTED_clean_linker_0, # of connection points: 2
#     Edge 17, Type (0, 0), BuildingBlock: XIVTED_clean_linker_0, # of connection points: 2
#     Edge 18, Type (0, 0), BuildingBlock: XIVTED_clean_linker_0, # of connection points: 2
#     Edge 19, Type (0, 0), BuildingBlock: XIVTED_clean_linker_0, # of connection points: 2
#     Edge 20, Type (0, 0), BuildingBlock: XIVTED_clean_linker_0, # of connection points: 2
#     Edge 21, Type (0, 0), BuildingBlock: XIVTED_clean_linker_0, # of connection points: 2
#     Edge 22, Type (0, 0), BuildingBlock: XIVTED_clean_linker_0, # of connection points: 2
#     Edge 23, Type (0, 0), BuildingBlock: XIVTED_clean_linker_0, # of connection points: 2
#     Edge 24, Type (0, 0), BuildingBlock: XIVTED_clean_linker_0, # of connection points: 2
#     Edge 25, Type (0, 0), BuildingBlock: XIVTED_clean_linker_0, # of connection points: 2
#     Edge 26, Type (0, 0), BuildingBlock: XIVTED_clean_linker_0, # of connection points: 2
#     Edge 27, Type (0, 0), BuildingBlock: XIVTED_clean_linker_0, # of connection points: 2
#     Edge 28, Type (0, 0), BuildingBlock: XIVTED_clean_linker_0, # of connection points: 2
#     Edge 29, Type (0, 0), BuildingBlock: XIVTED_clean_linker_0, # of connection points: 2
#     Edge 30, Type (0, 0), BuildingBlock: XIVTED_clean_linker_0, # of connection points: 2
#     Edge 31, Type (0, 0), BuildingBlock: XIVTED_clean_linker_0, # of connection points: 2
#     Edge 32, Type (0, 0), BuildingBlock: XIVTED_clean_linker_0, # of connection points: 2
#     Edge 33, Type (0, 0), BuildingBlock: XIVTED_clean_linker_0, # of connection points: 2
#     Edge 34, Type (0, 0), BuildingBlock: XIVTED_clean_linker_0, # of connection points: 2
#     Edge 35, Type (0, 0), BuildingBlock: XIVTED_clean_linker_0, # of connection points: 2
#     Edge 36, Type (0, 0), BuildingBlock: XIVTED_clean_linker_0, # of connection points: 2
#     Edge 37, Type (0, 0), BuildingBlock: XIVTED_clean_linker_0, # of connection points: 2
#     Edge 38, Type (0, 0), BuildingBlock: XIVTED_clean_linker_0, # of connection points: 2
#     Edge 39, Type (0, 0), BuildingBlock: XIVTED_clean_linker_0, # of connection points: 2
#     Edge 40, Type (0, 0), BuildingBlock: XIVTED_clean_linker_0, # of connection points: 2
#     Edge 41, Type (0, 0), BuildingBlock: XIVTED_clean_linker_0, # of connection points: 2
#     Edge 42, Type (0, 0), BuildingBlock: XIVTED_clean_linker_0, # of connection points: 2
#     Edge 43, Type (0, 0), BuildingBlock: XIVTED_clean_linker_0, # of connection points: 2
#     Edge 44, Type (0, 0), BuildingBlock: XIVTED_clean_linker_0, # of connection points: 2
#     Edge 45, Type (0, 0), BuildingBlock: XIVTED_clean_linker_0, # of connection points: 2
#     Edge 46, Type (0, 0), BuildingBlock: XIVTED_clean_linker_0, # of connection points: 2
#     Edge 47, Type (0, 0), BuildingBlock: XIVTED_clean_linker_0, # of connection points: 2
# Relax obj value: 0.099
# Max RMSD: 0.237
# Mean RMSD: 0.237
data_MOF--net-umd--node1-QUQFOY_clean_sbu_3--edge1-XIVTED_clean_linker_0
_symmetry_space_group_name_H-M    P1
_symmetry_Int_Tables_number       1
_symmetry_cell_setting            triclinic
loop_
_symmetry_equiv_pos_as_xyz
'x, y, z'
_cell_length_a     41.238664
_cell_length_b     41.215079
_cell_length_c     60.654163
_cell_angle_alpha  90.117963
_cell_angle_beta   89.885326
_cell_angle_gamma 89.833304
loop_
_atom_site_label
_atom_site_type_symbol
_atom_site_fract_x
_atom_site_fract_y
_atom_site_fract_z
_atom_type_partial_charge
C0 C 0.19793 0.48664 0.13132 0.0
O1 O 0.19595 0.51223 0.11984 0.0
Cd2 Cd 0.17286 0.50599 0.08322 0.0
O3 O 0.18969 0.45962 0.12305 0.0
Cd4 Cd 0.17114 0.43381 0.08925 0.0
C5 C 0.09918 0.47165 0.09414 0.0
O6 O 0.20006 0.46572 0.06015 0.0
O7 O 0.16327 0.43073 0.05065 0.0
O8 O 0.214 0.39888 0.1015 0.0
C9 C 0.18567 0.44994 0.04497 0.0
O10 O 0.11495 0.49664 0.08815 0.0
C11 C 0.19969 0.37214 0.09823 0.0
O12 O 0.11374 0.44469 0.09712 0.0
O13 O 0.17105 0.37345 0.09052 0.0
C14 C 0.47485 0.19585 0.63286 0.0
O15 O 0.4487 0.19736 0.62193 0.0
Cd16 Cd 0.44888 0.1724 0.58576 0.0
O17 O 0.50063 0.1858 0.62362 0.0
Cd18 Cd 0.52251 0.17008 0.58768 0.0
C19 C 0.48638 0.09935 0.59749 0.0
O20 O 0.48671 0.19397 0.5591 0.0
O21 O 0.51614 0.1519 0.55069 0.0
O22 O 0.55425 0.21755 0.59305 0.0
C23 C 0.49693 0.17414 0.54448 0.0
O24 O 0.46087 0.11523 0.59252 0.0
C25 C 0.58199 0.20464 0.59071 0.0
O26 O 0.51387 0.11345 0.59842 0.0
O27 O 0.58285 0.17441 0.58629 0.0
C28 C 0.76031 0.47657 0.13251 0.0
O29 O 0.76076 0.45015 0.12175 0.0
Cd30 Cd 0.78458 0.45125 0.08523 0.0
O31 O 0.76895 0.50274 0.12325 0.0
Cd32 Cd 0.78503 0.52579 0.08786 0.0
C33 C 0.85703 0.49035 0.09587 0.0
O34 O 0.76003 0.4895 0.06003 0.0
O35 O 0.79996 0.5204 0.05006 0.0
O36 O 0.73852 0.55842 0.09565 0.0
C37 C 0.77813 0.5003 0.04469 0.0
O38 O 0.84168 0.46453 0.09097 0.0
C39 C 0.75152 0.58588 0.09266 0.0
O40 O 0.84221 0.51748 0.09737 0.0
O41 O 0.78114 0.58613 0.08666 0.0
C42 C 0.48217 0.76114 0.63211 0.0
O43 O 0.50881 0.76032 0.62163 0.0
Cd44 Cd 0.50979 0.78508 0.58549 0.0
O45 O 0.45654 0.77063 0.6225 0.0
Cd46 Cd 0.43546 0.78636 0.58645 0.0
C47 C 0.47056 0.8575 0.59703 0.0
O48 O 0.47283 0.76321 0.55847 0.0
O49 O 0.44288 0.8046 0.54957 0.0
O50 O 0.40442 0.73821 0.59066 0.0
C51 C 0.46293 0.78283 0.54371 0.0
O52 O 0.49642 0.8419 0.59238 0.0
C53 C 0.37649 0.75069 0.58845 0.0
O54 O 0.44318 0.84314 0.59748 0.0
O55 O 0.37519 0.78108 0.58465 0.0
C56 C 0.20159 0.48021 0.29403 0.0
O57 O 0.20108 0.45283 0.3035 0.0
Cd58 Cd 0.1733 0.44856 0.33847 0.0
O59 O 0.19145 0.50522 0.30419 0.0
Cd60 Cd 0.17208 0.52084 0.341 0.0
C61 C 0.10092 0.48748 0.32812 0.0
O62 O 0.19271 0.48148 0.36856 0.0
O63 O 0.14877 0.50859 0.37606 0.0
O64 O 0.21942 0.5522 0.3481 0.0
C65 C 0.17125 0.48988 0.38262 0.0
O66 O 0.11651 0.46122 0.33143 0.0
C67 C 0.20637 0.58006 0.34775 0.0
O68 O 0.11529 0.51484 0.32928 0.0
O69 O 0.17604 0.5813 0.34383 0.0
C70 C 0.48028 0.19422 0.79663 0.0
O71 O 0.50602 0.19384 0.80804 0.0
Cd72 Cd 0.50134 0.17498 0.8458 0.0
O73 O 0.4534 0.18698 0.80552 0.0
Cd74 Cd 0.42823 0.17307 0.84062 0.0
C75 C 0.46575 0.10051 0.83933 0.0
O76 O 0.46156 0.20508 0.8673 0.0
O77 O 0.42625 0.17051 0.87969 0.0
O78 O 0.39347 0.21476 0.82646 0.0
C79 C 0.44639 0.19291 0.8836 0.0
O80 O 0.491 0.11682 0.844 0.0
C81 C 0.36668 0.20126 0.83089 0.0
O82 O 0.43874 0.11478 0.83602 0.0
O83 O 0.36789 0.17359 0.84012 0.0
C84 C 0.76091 0.48335 0.29565 0.0
O85 O 0.7606 0.50983 0.30634 0.0
Cd86 Cd 0.78624 0.50994 0.34221 0.0
O87 O 0.77084 0.45755 0.30484 0.0
Cd88 Cd 0.78842 0.43571 0.34025 0.0
C89 C 0.85907 0.47225 0.32979 0.0
O90 O 0.76472 0.47194 0.36874 0.0
O91 O 0.80649 0.44232 0.37726 0.0
O92 O 0.74086 0.40385 0.33562 0.0
C93 C 0.78436 0.46179 0.38339 0.0
O94 O 0.84325 0.49777 0.33496 0.0
C95 C 0.7538 0.37608 0.33762 0.0
O96 O 0.84497 0.44474 0.32891 0.0
O97 O 0.78417 0.37523 0.34147 0.0
C98 C 0.47383 0.76425 0.79584 0.0
O99 O 0.44727 0.76469 0.80641 0.0
Cd100 Cd 0.44877 0.78338 0.84429 0.0
O101 O 0.50007 0.77132 0.80559 0.0
Cd102 Cd 0.52225 0.78478 0.84176 0.0
C103 C 0.48557 0.85761 0.83942 0.0
O104 O 0.48649 0.75275 0.86679 0.0
O105 O 0.52022 0.78745 0.8809 0.0
O106 O 0.55766 0.74246 0.82925 0.0
C107 C 0.49992 0.76485 0.88378 0.0
O108 O 0.45988 0.84142 0.84307 0.0
C109 C 0.58421 0.75555 0.83474 0.0
O110 O 0.51276 0.8432 0.83704 0.0
O111 O 0.58259 0.78344 0.84371 0.0
C112 C 0.75821 0.47636 0.79579 0.0
O113 O 0.75796 0.44986 0.80638 0.0
Cd114 Cd 0.78213 0.44988 0.84273 0.0
O115 O 0.76765 0.5022 0.80517 0.0
Cd116 Cd 0.78444 0.52444 0.84068 0.0
C117 C 0.85545 0.48735 0.83196 0.0
O118 O 0.75889 0.48846 0.86842 0.0
O119 O 0.79986 0.51809 0.87825 0.0
O120 O 0.73864 0.55817 0.83335 0.0
C121 C 0.77757 0.49852 0.88365 0.0
O122 O 0.8395 0.46186 0.83675 0.0
C123 C 0.75228 0.5853 0.83646 0.0
O124 O 0.8413 0.51485 0.83073 0.0
O125 O 0.7819 0.58485 0.84237 0.0
C126 C 0.47771 0.75561 0.29344 0.0
O127 O 0.50503 0.75591 0.303 0.0
Cd128 Cd 0.50915 0.78231 0.33846 0.0
O129 O 0.4526 0.7653 0.30367 0.0
Cd130 Cd 0.43634 0.7835 0.34059 0.0
C131 C 0.47012 0.85493 0.32873 0.0
O132 O 0.47556 0.76192 0.36786 0.0
O133 O 0.44834 0.80552 0.37606 0.0
O134 O 0.40464 0.73588 0.34609 0.0
C135 C 0.46719 0.78293 0.38223 0.0
O136 O 0.49631 0.83926 0.33213 0.0
C137 C 0.37691 0.74921 0.34635 0.0
O138 O 0.44276 0.84054 0.32945 0.0
O139 O 0.37595 0.77983 0.34353 0.0
C140 C 0.19485 0.48249 0.79594 0.0
O141 O 0.19456 0.50812 0.80753 0.0
Cd142 Cd 0.17183 0.50324 0.84436 0.0
O143 O 0.18603 0.45581 0.80439 0.0
Cd144 Cd 0.16906 0.43096 0.83889 0.0
C145 C 0.09764 0.46935 0.83393 0.0
O146 O 0.19804 0.46314 0.86777 0.0
O147 O 0.16006 0.42957 0.87744 0.0
O148 O 0.21256 0.39616 0.8275 0.0
C149 C 0.18292 0.44831 0.88305 0.0
O150 O 0.11386 0.49423 0.83959 0.0
C151 C 0.19829 0.36937 0.83059 0.0
O152 O 0.11169 0.44204 0.8312 0.0
O153 O 0.16932 0.37058 0.83782 0.0
C154 C 0.47847 0.19299 0.29453 0.0
O155 O 0.45227 0.19393 0.3055 0.0
Cd156 Cd 0.45271 0.16961 0.34181 0.0
O157 O 0.50446 0.18347 0.30367 0.0
Cd158 Cd 0.52697 0.16794 0.33935 0.0
C159 C 0.49088 0.09668 0.33015 0.0
O160 O 0.49088 0.19226 0.36774 0.0
O161 O 0.52139 0.15138 0.37675 0.0
O162 O 0.55792 0.21562 0.33283 0.0
C163 C 0.50154 0.17331 0.38265 0.0
O164 O 0.46534 0.11251 0.33526 0.0
C165 C 0.58588 0.20344 0.33554 0.0
O166 O 0.51828 0.11093 0.32892 0.0
O167 O 0.5873 0.17348 0.34064 0.0
C168 C 0.75755 0.48356 0.63275 0.0
O169 O 0.75741 0.50989 0.62196 0.0
Cd170 Cd 0.78311 0.50916 0.58601 0.0
O171 O 0.76743 0.4576 0.62365 0.0
Cd172 Cd 0.78534 0.4347 0.58857 0.0
C173 C 0.85577 0.47162 0.5988 0.0
O174 O 0.76167 0.47037 0.55987 0.0
O175 O 0.80295 0.43996 0.55139 0.0
O176 O 0.73838 0.40251 0.59474 0.0
C177 C 0.78115 0.45969 0.54522 0.0
O178 O 0.84002 0.49704 0.59344 0.0
C179 C 0.75147 0.37487 0.5923 0.0
O180 O 0.84167 0.44413 0.59983 0.0
O181 O 0.78153 0.37425 0.58742 0.0
C182 C 0.46901 0.76102 0.13028 0.0
O183 O 0.44283 0.76249 0.11938 0.0
Cd184 Cd 0.44634 0.78295 0.08198 0.0
O185 O 0.49567 0.76833 0.1211 0.0
Cd186 Cd 0.51973 0.78394 0.08594 0.0
C187 C 0.48301 0.85676 0.08925 0.0
O188 O 0.4851 0.75345 0.05932 0.0
O189 O 0.52007 0.78835 0.04694 0.0
O190 O 0.55448 0.74093 0.09803 0.0
C191 C 0.49973 0.76613 0.04297 0.0
O192 O 0.45747 0.84082 0.08473 0.0
C193 C 0.5813 0.75437 0.09361 0.0
O194 O 0.51003 0.84217 0.09185 0.0
O195 O 0.58014 0.78276 0.08544 0.0
C196 C 0.19459 0.47566 0.63263 0.0
O197 O 0.19558 0.44932 0.62181 0.0
Cd198 Cd 0.16955 0.44903 0.58608 0.0
O199 O 0.18451 0.50141 0.62344 0.0
Cd200 Cd 0.16823 0.52314 0.58764 0.0
C201 C 0.09732 0.48799 0.59861 0.0
O202 O 0.19092 0.4863 0.55908 0.0
O203 O 0.14963 0.51668 0.55074 0.0
O204 O 0.21652 0.55357 0.59269 0.0
C205 C 0.17117 0.4966 0.54454 0.0
O206 O 0.11288 0.4622 0.59368 0.0
C207 C 0.20447 0.58167 0.59031 0.0
O208 O 0.11165 0.51541 0.59908 0.0
O209 O 0.17428 0.58341 0.58598 0.0
C210 C 0.47882 0.19392 0.13077 0.0
O211 O 0.5046 0.19333 0.11934 0.0
Cd212 Cd 0.49999 0.17361 0.08173 0.0
O213 O 0.45196 0.18658 0.12195 0.0
Cd214 Cd 0.42702 0.17228 0.08689 0.0
C215 C 0.464 0.09956 0.0891 0.0
O216 O 0.46056 0.20302 0.05968 0.0
O217 O 0.4254 0.16783 0.04792 0.0
O218 O 0.39282 0.21524 0.09999 0.0
C219 C 0.44542 0.1902 0.0436 0.0
O220 O 0.48935 0.1156 0.08423 0.0
C221 C 0.36585 0.20173 0.09616 0.0
O222 O 0.43703 0.11406 0.09223 0.0
O223 O 0.36668 0.17343 0.08774 0.0
H224 H 0.05564 0.42269 0.10213 0.0
H225 H 0.90057 0.54049 0.09958 0.0
H226 H 0.06151 0.52641 0.09304 0.0
H227 H 0.89476 0.43589 0.09882 0.0
H228 H 0.95972 0.53622 0.10159 0.0
H229 H -0.00332 0.42754 0.10522 0.0
C230 C 0.04459 0.44649 0.1009 0.0
C231 C 0.06359 0.47414 0.09716 0.0
C232 C 0.94545 0.51422 0.1011 0.0
C233 C -0.0039 0.47987 0.10071 0.0
C234 C 0.91167 0.51665 0.10002 0.0
C235 C 0.89264 0.48853 0.09886 0.0
C236 C 0.96028 0.48346 0.10111 0.0
C237 C 0.90841 0.45826 0.0995 0.0
C238 C 0.01091 0.44924 0.10263 0.0
C239 C 0.04787 0.50437 0.09576 0.0
N240 N 0.94126 0.45655 0.1005 0.0
N241 N 0.01508 0.5064 0.09747 0.0
H242 H 0.52542 0.89383 0.60177 0.0
H243 H 0.4311 0.06313 0.60036 0.0
H244 H 0.421 0.90201 0.60118 0.0
H245 H 0.53542 0.05473 0.60306 0.0
H246 H 0.42685 0.00438 0.60349 0.0
H247 H 0.52933 0.95256 0.60511 0.0
C248 C 0.50324 0.90795 0.60247 0.0
C249 C 0.47279 0.8929 0.60098 0.0
C250 C 0.45067 0.01536 0.60355 0.0
C251 C 0.4772 0.96045 0.60473 0.0
C252 C 0.45317 0.04897 0.60175 0.0
C253 C 0.48373 0.06395 0.60125 0.0
C254 C 0.47893 -0.00358 0.60477 0.0
C255 C 0.51138 0.04427 0.60328 0.0
C256 C 0.50554 0.94156 0.6044 0.0
C257 C 0.44498 0.91253 0.60219 0.0
N258 N 0.50832 0.0115 0.60478 0.0
N259 N 0.44786 0.94532 0.60381 0.0
H260 H 0.06449 0.43319 0.32102 0.0
H261 H 0.89537 0.52758 0.3276 0.0
H262 H 0.05643 0.53738 0.32645 0.0
H263 H 0.90357 0.42332 0.32282 0.0
H264 H 0.95401 0.5319 0.32386 0.0
H265 H 0.00571 0.42959 0.31822 0.0
C266 C 0.0504 0.4554 0.32146 0.0
C267 C 0.06551 0.48567 0.32418 0.0
C268 C 0.94302 0.50808 0.32349 0.0
C269 C -0.00212 0.48159 0.32108 0.0
C270 C 0.90945 0.50554 0.32563 0.0
C271 C 0.89443 0.47496 0.32572 0.0
C272 C 0.9619 0.47986 0.32148 0.0
C273 C 0.91405 0.44737 0.32294 0.0
C274 C 0.01675 0.45327 0.31987 0.0
C275 C 0.04588 0.51354 0.32446 0.0
N276 N 0.94678 0.45047 0.3211 0.0
N277 N 0.01306 0.5108 0.32312 0.0
H278 H 0.53524 0.90179 0.83644 0.0
H279 H 0.41658 0.05624 0.83425 0.0
H280 H 0.43082 0.89522 0.83938 0.0
H281 H 0.52052 0.063 0.84135 0.0
H282 H 0.42151 -0.0029 0.83311 0.0
H283 H 0.5305 0.96097 0.83525 0.0
C284 C 0.51134 0.91274 0.83677 0.0
C285 C 0.48341 0.89345 0.8381 0.0
C286 C 0.44323 0.01156 0.83489 0.0
C287 C 0.47781 0.96116 0.83671 0.0
C288 C 0.44043 0.04534 0.8355 0.0
C289 C 0.46815 0.06467 0.83799 0.0
C290 C 0.47398 -0.00303 0.83666 0.0
C291 C 0.49844 0.04913 0.83952 0.0
C292 C 0.50864 0.94653 0.83613 0.0
C293 C 0.45306 0.90905 0.83847 0.0
N294 N 0.50053 0.01624 0.83884 0.0
N295 N 0.45108 0.94193 0.83778 0.0
H296 H 0.89188 0.43205 0.82838 0.0
H297 H 0.06118 0.52491 0.83433 0.0
H298 H 0.90021 0.53647 0.82877 0.0
H299 H 0.05299 0.42105 0.82678 0.0
H300 H 0.00245 0.5297 0.83118 0.0
H301 H 0.95076 0.42769 0.82646 0.0
C302 C 0.90607 0.45412 0.82793 0.0
C303 C 0.89101 0.48471 0.82889 0.0
C304 C 0.01348 0.50587 0.83009 0.0
C305 C 0.95868 0.4798 0.82682 0.0
C306 C 0.04707 0.50307 0.83193 0.0
C307 C 0.06211 0.47247 0.83096 0.0
C308 C -0.00538 0.47786 0.82738 0.0
C309 C 0.04249 0.44511 0.82769 0.0
C310 C 0.93975 0.45157 0.82681 0.0
C311 C 0.91073 0.51239 0.8281 0.0
N312 N 0.00974 0.44845 0.82616 0.0
N313 N 0.94356 0.50927 0.8273 0.0
H314 H 0.53983 0.05234 0.32286 0.0
H315 H 0.42022 0.89932 0.32627 0.0
H316 H 0.43574 0.06005 0.32901 0.0
H317 H 0.52459 0.89162 0.3231 0.0
H318 H 0.42505 0.95838 0.32362 0.0
H319 H 0.53441 -0.00657 0.31936 0.0
C320 C 0.51585 0.04172 0.32332 0.0
C321 C 0.48826 0.06122 0.32642 0.0
C322 C 0.44687 0.94371 0.32336 0.0
C323 C 0.48184 -0.0062 0.32248 0.0
C324 C 0.44411 0.90997 0.32481 0.0
C325 C 0.47202 0.89043 0.32511 0.0
C326 C 0.47776 0.95801 0.32218 0.0
C327 C 0.50236 0.90566 0.32314 0.0
C328 C 0.51275 0.00807 0.32135 0.0
C329 C 0.45776 0.04604 0.32683 0.0
N330 N 0.50441 0.93847 0.3219 0.0
N331 N 0.45541 0.01329 0.32501 0.0
H332 H 0.89182 0.52701 0.60187 0.0
H333 H 0.06119 0.43302 0.60355 0.0
H334 H 0.90039 0.42266 0.60478 0.0
H335 H 0.05278 0.53747 0.60301 0.0
H336 H 0.00251 0.42897 0.607 0.0
H337 H 0.95049 0.5314 0.60526 0.0
C338 C 0.906 0.50496 0.60336 0.0
C339 C 0.89109 0.47435 0.60283 0.0
C340 C 0.01345 0.4528 0.60629 0.0
C341 C 0.95855 0.47931 0.60663 0.0
C342 C 0.04703 0.45517 0.6043 0.0
C343 C 0.062 0.48568 0.60277 0.0
C344 C -0.0055 0.48111 0.60664 0.0
C345 C 0.04232 0.51346 0.60404 0.0
C346 C 0.93957 0.50754 0.60532 0.0
C347 C 0.91079 0.44674 0.60502 0.0
N348 N 0.00956 0.5105 0.60571 0.0
N349 N 0.94353 0.44987 0.60664 0.0
H350 H 0.41459 0.05561 0.0944 0.0
H351 H 0.53273 0.9007 0.0933 0.0
H352 H 0.51868 0.06185 0.08782 0.0
H353 H 0.42838 0.89452 0.08936 0.0
H354 H 0.52817 0.95989 0.09479 0.0
H355 H 0.4193 -0.00353 0.09603 0.0
C356 C 0.43843 0.0446 0.09338 0.0
C357 C 0.46625 0.06377 0.09086 0.0
C358 C 0.50628 0.94554 0.09365 0.0
C359 C 0.47183 -0.0039 0.09275 0.0
C360 C 0.50887 0.91173 0.09285 0.0
C361 C 0.48093 0.89256 0.09109 0.0
C362 C 0.47552 0.96027 0.09281 0.0
C363 C 0.45063 0.90827 0.09058 0.0
C364 C 0.4411 0.01082 0.09427 0.0
C365 C 0.49652 0.04809 0.08965 0.0
N366 N 0.44875 0.94115 0.09141 0.0
N367 N 0.49849 0.01522 0.09059 0.0
H368 H 0.20541 0.5353 0.26901 0.0
H369 H 0.2174 0.43575 0.15659 0.0
H370 H 0.21834 0.43142 0.26524 0.0
H371 H 0.20118 0.53919 0.15939 0.0
H372 H 0.22653 0.43537 0.1962 0.0
H373 H 0.21247 0.53861 0.22913 0.0
C374 C 0.21017 0.51319 0.25985 0.0
C375 C 0.21081 0.48293 0.27049 0.0
C376 C 0.22131 0.45825 0.18819 0.0
C377 C 0.21875 0.48664 0.22473 0.0
C378 C 0.21606 0.45851 0.16553 0.0
C379 C 0.20801 0.48751 0.1547 0.0
C380 C 0.21823 0.48715 0.20027 0.0
C381 C 0.20711 0.51627 0.1671 0.0
C382 C 0.21416 0.51515 0.23704 0.0
C383 C 0.21735 0.45522 0.25775 0.0
N384 N 0.21171 0.5153 0.18931 0.0
N385 N 0.22069 0.45772 0.23553 0.0
H386 H 0.4236 0.2094 0.6605 0.0
H387 H 0.53319 0.20077 0.76921 0.0
H388 H 0.52789 0.19975 0.65961 0.0
H389 H 0.42854 0.20489 0.76967 0.0
H390 H 0.53236 0.20789 0.72912 0.0
H391 H 0.42554 0.2155 0.7006 0.0
C392 C 0.44691 0.20896 0.66868 0.0
C393 C 0.47555 0.20364 0.65669 0.0
C394 C 0.5096 0.20751 0.73805 0.0
C395 C 0.47799 0.21037 0.70257 0.0
C396 C 0.51009 0.20351 0.76094 0.0
C397 C 0.48091 0.2018 0.77279 0.0
C398 C 0.47973 0.20985 0.72699 0.0
C399 C 0.45166 0.20561 0.7612 0.0
C400 C 0.44803 0.21235 0.69159 0.0
C401 C 0.50512 0.2034 0.66819 0.0
N402 N 0.45182 0.2092 0.73898 0.0
N403 N 0.50554 0.2064 0.69048 0.0
H404 H 0.74891 0.52991 0.15811 0.0
H405 H 0.75141 0.42957 0.27017 0.0
H406 H 0.75203 0.42528 0.16092 0.0
H407 H 0.74998 0.53424 0.26731 0.0
H408 H 0.74373 0.42747 0.23039 0.0
H409 H 0.74142 0.5317 0.19793 0.0
C410 C 0.74773 0.50724 0.16708 0.0
C411 C 0.75159 0.47736 0.15617 0.0
C412 C 0.74475 0.45091 0.23845 0.0
C413 C 0.74316 0.47933 0.20192 0.0
C414 C 0.74916 0.45217 0.26121 0.0
C415 C 0.75182 0.48218 0.27208 0.0
C416 C 0.74319 0.47985 0.22638 0.0
C417 C 0.7483 0.51059 0.25961 0.0
C418 C 0.74341 0.50832 0.18985 0.0
C419 C 0.7494 0.44884 0.16865 0.0
N420 N 0.74455 0.50872 0.23737 0.0
N421 N 0.74571 0.45054 0.19091 0.0
H422 H 0.52739 0.75417 0.77021 0.0
H423 H 0.42808 0.75375 0.65761 0.0
H424 H 0.42282 0.75707 0.76704 0.0
H425 H 0.53264 0.7513 0.66093 0.0
H426 H 0.42557 0.74827 0.69756 0.0
H427 H 0.52949 0.74669 0.73042 0.0
C428 C 0.5048 0.75303 0.76117 0.0
C429 C 0.47484 0.75666 0.77199 0.0
C430 C 0.44907 0.74861 0.68957 0.0
C431 C 0.47718 0.74815 0.72624 0.0
C432 C 0.45056 0.75173 0.66672 0.0
C433 C 0.48067 0.7534 0.6559 0.0
C434 C 0.47788 0.74732 0.70178 0.0
C435 C 0.50892 0.7503 0.66857 0.0
C436 C 0.50606 0.7487 0.7384 0.0
C437 C 0.44644 0.75459 0.75938 0.0
N438 N 0.50683 0.74777 0.69088 0.0
N439 N 0.44832 0.75079 0.73713 0.0
H440 H 0.74863 0.5302 0.77049 0.0
H441 H 0.74625 0.43015 0.65806 0.0
H442 H 0.74772 0.42554 0.76722 0.0
H443 H 0.74829 0.53479 0.66125 0.0
H444 H 0.73882 0.42825 0.69788 0.0
H445 H 0.74069 0.53241 0.73074 0.0
C446 C 0.74647 0.50762 0.76144 0.0
C447 C 0.74932 0.47759 0.77219 0.0
C448 C 0.74054 0.45166 0.68989 0.0
C449 C 0.74036 0.48003 0.72652 0.0
C450 C 0.7448 0.4528 0.66712 0.0
C451 C 0.74838 0.48271 0.65633 0.0
C452 C 0.74008 0.48062 0.70207 0.0
C453 C 0.74586 0.51121 0.6689 0.0
C454 C 0.7419 0.50895 0.73871 0.0
C455 C 0.7459 0.44921 0.75961 0.0
N456 N 0.74227 0.50944 0.69116 0.0
N457 N 0.74198 0.45114 0.73739 0.0
H458 H 0.42269 0.75098 0.26849 0.0
H459 H 0.52138 0.74548 0.15548 0.0
H460 H 0.52684 0.74158 0.26428 0.0
H461 H 0.41732 0.75622 0.15893 0.0
H462 H 0.52278 0.73656 0.1951 0.0
H463 H 0.41935 0.74526 0.22853 0.0
C464 C 0.44487 0.74729 0.25921 0.0
C465 C 0.47517 0.7472 0.26977 0.0
C466 C 0.49957 0.74058 0.18722 0.0
C467 C 0.47145 0.74086 0.22391 0.0
C468 C 0.49873 0.74574 0.16456 0.0
C469 C 0.46919 0.75207 0.15389 0.0
C470 C 0.47071 0.74197 0.19946 0.0
C471 C 0.44063 0.75164 0.16649 0.0
C472 C 0.4429 0.74407 0.23635 0.0
C473 C 0.50299 0.74206 0.25686 0.0
N474 N 0.44214 0.74708 0.18869 0.0
N475 N 0.50047 0.73947 0.23459 0.0
H476 H 0.20211 0.53535 0.76867 0.0
H477 H 0.20936 0.42476 0.66013 0.0
H478 H 0.20717 0.4307 0.7692 0.0
H479 H 0.19924 0.52907 0.65918 0.0
H480 H 0.21694 0.42718 0.70008 0.0
H481 H 0.20941 0.53428 0.72856 0.0
C482 C 0.2052 0.51221 0.76041 0.0
C483 C 0.20354 0.48308 0.77226 0.0
C484 C 0.21337 0.44957 0.69109 0.0
C485 C 0.21171 0.48162 0.72646 0.0
C486 C 0.20911 0.44818 0.66826 0.0
C487 C 0.2032 0.47668 0.65631 0.0
C488 C 0.21165 0.47966 0.70204 0.0
C489 C 0.2033 0.50639 0.66774 0.0
C490 C 0.20926 0.51158 0.73752 0.0
C491 C 0.20779 0.45377 0.76071 0.0
N492 N 0.20711 0.50707 0.68996 0.0
N493 N 0.21136 0.45379 0.73847 0.0
H494 H 0.53158 0.19929 0.26792 0.0
H495 H 0.42709 0.20613 0.15761 0.0
H496 H 0.42701 0.20478 0.26686 0.0
H497 H 0.53156 0.199 0.15835 0.0
H498 H 0.4272 0.21259 0.1975 0.0
H499 H 0.53245 0.20609 0.22804 0.0
C500 C 0.50875 0.20221 0.25933 0.0
C501 C 0.4791 0.20104 0.27076 0.0
C502 C 0.45014 0.2099 0.18897 0.0
C503 C 0.48002 0.20871 0.22494 0.0
C504 C 0.45014 0.20617 0.16615 0.0
C505 C 0.47939 0.20157 0.15461 0.0
C506 C 0.47958 0.20885 0.20048 0.0
C507 C 0.50846 0.20227 0.16657 0.0
C508 C 0.50932 0.20611 0.23652 0.0
C509 C 0.4504 0.20533 0.25874 0.0
N510 N 0.50779 0.20546 0.1889 0.0
N511 N 0.45157 0.20864 0.23644 0.0
H512 H 0.20821 0.49971 0.90679 0.0
H513 H 0.19237 0.39811 0.01847 0.0
H514 H 0.18011 0.39933 0.91221 0.0
H515 H 0.2028 0.50213 0.01898 0.0
H516 H 0.20103 0.39776 -0.02112 0.0
H517 H 0.21782 0.50086 0.94702 0.0
C518 C 0.20461 0.47787 0.91638 0.0
C519 C 0.19295 0.4495 0.90634 0.0
C520 C 0.20171 0.42077 -0.01248 0.0
C521 C 0.20409 0.4505 0.9518 0.0
C522 C 0.19683 0.42092 0.01016 0.0
C523 C 0.19643 0.45022 0.02184 0.0
C524 C 0.20546 0.45024 -0.02376 0.0
C525 C 0.20283 0.47907 0.0104 0.0
C526 C 0.20997 0.47856 0.93925 0.0
C527 C 0.18859 0.42186 0.91936 0.0
N528 N 0.2065 0.47849 -0.01197 0.0
N529 N 0.19404 0.42311 0.94133 0.0
H530 H 0.48179 0.22684 0.40675 0.0
H531 H 0.48672 0.12298 0.51779 0.0
H532 H 0.4974 0.12355 0.41123 0.0
H533 H 0.48393 0.22755 0.51852 0.0
H534 H 0.47839 0.12352 0.4782 0.0
H535 H 0.47161 0.22837 0.44687 0.0
C536 C 0.48251 0.2045 0.41611 0.0
C537 C 0.4909 0.17509 0.40583 0.0
C538 C 0.4793 0.14647 0.4869 0.0
C539 C 0.47917 0.17658 0.45124 0.0
C540 C 0.48402 0.14613 0.50954 0.0
C541 C 0.4865 0.17526 0.5213 0.0
C542 C 0.47776 0.17622 0.47569 0.0
C543 C 0.4823 0.20458 0.50991 0.0
C544 C 0.47682 0.20539 0.43893 0.0
C545 C 0.49155 0.14682 0.41857 0.0
N546 N 0.47873 0.20439 0.48755 0.0
N547 N 0.48596 0.14832 0.44054 0.0
H548 H 0.72384 0.48288 0.0209 0.0
H549 H 0.82793 0.48338 0.90977 0.0
H550 H 0.8277 0.49271 0.01621 0.0
H551 H 0.72348 0.48752 0.90935 0.0
H552 H 0.82684 0.47333 0.9492 0.0
H553 H 0.72188 0.47257 -0.0192 0.0
C554 C 0.7462 0.48222 0.0115 0.0
C555 C 0.77593 0.48912 0.02168 0.0
C556 C 0.80402 0.4761 0.9406 0.0
C557 C 0.77396 0.47723 -0.02367 0.0
C558 C 0.80468 0.48178 0.91806 0.0
C559 C 0.77579 0.48674 0.90648 0.0
C560 C 0.77424 0.47619 0.95188 0.0
C561 C 0.74627 0.48395 0.91785 0.0
C562 C 0.74507 0.47647 -0.0113 0.0
C563 C 0.80422 0.48805 0.00891 0.0
N564 N 0.74622 0.4795 0.94014 0.0
N565 N 0.80249 0.48245 -0.01304 0.0
H566 H 0.47285 0.83423 0.51724 0.0
H567 H 0.48425 0.7294 0.40689 0.0
H568 H 0.4793 0.72982 0.51813 0.0
H569 H 0.47367 0.83343 0.41028 0.0
H570 H 0.49259 0.72832 0.44712 0.0
H571 H 0.48399 0.83378 0.47794 0.0
C572 C 0.47694 0.81114 0.50909 0.0
C573 C 0.4747 0.782 0.52079 0.0
C574 C 0.48899 0.75137 0.43894 0.0
C575 C 0.48674 0.78111 0.47549 0.0
C576 C 0.48437 0.752 0.41604 0.0
C577 C 0.47778 0.7815 0.40541 0.0
C578 C 0.48724 0.7805 0.45102 0.0
C579 C 0.47812 0.8101 0.4179 0.0
C580 C 0.4833 0.81085 0.48661 0.0
C581 C 0.4807 0.75279 0.50956 0.0
N582 N 0.48248 0.80883 0.43999 0.0
N583 N 0.48586 0.753 0.48734 0.0
H584 H 0.2243 0.47256 0.40767 0.0
H585 H 0.11963 0.48983 0.51772 0.0
H586 H 0.12052 0.4852 0.41066 0.0
H587 H 0.22353 0.47804 0.51899 0.0
H588 H 0.11982 0.47864 0.47844 0.0
H589 H 0.22503 0.46543 0.448 0.0
C590 C 0.20166 0.47316 0.41676 0.0
C591 C 0.17235 0.47996 0.40595 0.0
C592 C 0.14268 0.47818 0.48719 0.0
C593 C 0.17297 0.47192 0.45171 0.0
C594 C 0.14255 0.48462 0.50966 0.0
C595 C 0.17165 0.48532 0.52148 0.0
C596 C 0.17226 0.47307 0.47618 0.0
C597 C 0.2006 0.47786 0.51034 0.0
C598 C 0.2021 0.46923 0.43972 0.0
C599 C 0.14372 0.48055 0.41839 0.0
N600 N 0.20028 0.4726 0.48813 0.0
N601 N 0.14481 0.47687 0.44055 0.0
H602 H 0.39653 0.21167 0.90918 0.0
H603 H 0.49978 0.20899 0.02037 0.0
H604 H 0.50067 0.20307 0.90896 0.0
H605 H 0.39607 0.19869 0.01529 0.0
H606 H 0.50211 0.22058 -0.01955 0.0
H607 H 0.39772 0.22247 0.94862 0.0
C608 C 0.41975 0.21265 0.9175 0.0
C609 C 0.4485 0.2062 0.90603 0.0
C610 C 0.47886 0.21636 -0.01176 0.0
C611 C 0.45011 0.21732 0.95136 0.0
C612 C 0.47753 0.20989 0.01093 0.0
C613 C 0.44773 0.20249 0.0209 0.0
C614 C 0.4501 0.21585 -0.02421 0.0
C615 C 0.41957 0.20381 0.00811 0.0
C616 C 0.42046 0.21868 0.94002 0.0
C617 C 0.47801 0.20794 0.9174 0.0
N618 N 0.42148 0.21014 -0.01373 0.0
N619 N 0.47807 0.21268 0.93967 0.0
H620 H 0.83509 0.47084 0.41056 0.0
H621 H 0.72839 0.47913 0.52047 0.0
H622 H 0.73071 0.47641 0.40882 0.0
H623 H 0.83177 0.46364 0.51723 0.0
H624 H 0.72807 0.48869 0.4803 0.0
H625 H 0.83373 0.47985 0.45009 0.0
C626 C 0.81181 0.47428 0.41857 0.0
C627 C 0.78295 0.4724 0.40656 0.0
C628 C 0.75081 0.48366 0.48852 0.0
C629 C 0.78103 0.48196 0.4521 0.0
C630 C 0.751 0.47832 0.51137 0.0
C631 C 0.78008 0.47011 0.52201 0.0
C632 C 0.77997 0.4811 0.47655 0.0
C633 C 0.80873 0.46934 0.5096 0.0
C634 C 0.811 0.4794 0.44119 0.0
C635 C 0.75347 0.47755 0.41764 0.0
N636 N 0.80789 0.47455 0.4876 0.0
N637 N 0.75317 0.48151 0.43998 0.0
H638 H 0.44442 0.75048 0.01996 0.0
H639 H 0.54758 0.74004 0.90869 0.0
H640 H 0.5486 0.75392 0.01476 0.0
H641 H 0.44483 0.75911 0.90893 0.0
H642 H 0.5452 0.7283 0.94801 0.0
H643 H 0.44144 0.73871 -0.01994 0.0
C644 C 0.46659 0.74798 0.0105 0.0
C645 C 0.49678 0.75353 0.0204 0.0
C646 C 0.52297 0.73453 0.93951 0.0
C647 C 0.49368 0.73995 -0.02465 0.0
C648 C 0.52435 0.74105 0.91707 0.0
C649 C 0.49642 0.75071 0.90581 0.0
C650 C 0.49357 0.73862 0.95093 0.0
C651 C 0.46685 0.75167 0.91722 0.0
C652 C 0.46491 0.74142 -0.01217 0.0
C653 C 0.52485 0.75023 0.0076 0.0
N654 N 0.46625 0.74636 0.9394 0.0
N655 N 0.5226 0.74384 -0.01423 0.0
H656 H 0.2456 0.36163 0.12908 0.0
H657 H 0.30624 0.19486 0.07614 0.0
H658 H 0.1932 0.31322 0.07716 0.0
H659 H 0.35659 0.24937 0.1262 0.0
H660 H 0.25944 0.23166 0.0803 0.0
H661 H 0.28061 0.31445 0.13267 0.0
C662 C 0.24127 0.34078 0.11858 0.0
C663 C 0.21681 0.34141 0.10262 0.0
C664 C 0.28056 0.23515 0.0906 0.0
C665 C 0.2574 0.28733 0.10622 0.0
C666 C 0.30715 0.21412 0.0883 0.0
C667 C 0.33541 0.21946 0.10063 0.0
C668 C 0.28239 0.26135 0.10546 0.0
C669 C 0.33547 0.24472 0.11611 0.0
C670 C 0.2613 0.31379 0.1206 0.0
C671 C 0.21194 0.31363 0.08963 0.0
N672 N 0.30955 0.2648 0.11794 0.0
N673 N 0.23252 0.28781 0.09142 0.0
H674 H 0.69957 0.36888 0.61888 0.0
H675 H 0.64398 0.19493 0.5741 0.0
H676 H 0.75832 0.31422 0.57301 0.0
H677 H 0.58645 0.26023 0.61392 0.0
H678 H 0.68994 0.23304 0.57704 0.0
H679 H 0.66234 0.32372 0.62142 0.0
C680 C 0.70469 0.34715 0.60938 0.0
C681 C 0.73177 0.34543 0.59547 0.0
C682 C 0.66729 0.23872 0.58526 0.0
C683 C 0.68865 0.29339 0.59795 0.0
C684 C 0.64118 0.21701 0.58364 0.0
C685 C 0.61131 0.2247 0.59356 0.0
C686 C 0.66333 0.26787 0.5971 0.0
C687 C 0.60885 0.25352 0.60572 0.0
C688 C 0.68337 0.32128 0.61081 0.0
C689 C 0.73755 0.31647 0.58385 0.0
N690 N 0.63437 0.27396 0.60706 0.0
N691 N 0.7158 0.2916 0.58507 0.0
H692 H 0.70225 0.59324 0.12144 0.0
H693 H 0.6402 0.76168 0.07249 0.0
H694 H 0.7569 0.64578 0.07254 0.0
H695 H 0.59156 0.70584 0.12264 0.0
H696 H 0.68709 0.72467 0.07517 0.0
H697 H 0.66575 0.63911 0.12524 0.0
C698 C 0.70665 0.61466 0.11156 0.0
C699 C 0.73232 0.61561 0.09645 0.0
C700 C 0.66632 0.72092 0.0858 0.0
C701 C 0.69007 0.66842 0.10039 0.0
C702 C 0.63968 0.74207 0.08434 0.0
C703 C 0.61187 0.73646 0.09716 0.0
C704 C 0.66494 0.69431 0.10027 0.0
C705 C 0.61231 0.71075 0.11221 0.0
C706 C 0.68578 0.64096 0.11374 0.0
C707 C 0.73722 0.64415 0.08432 0.0
N708 N 0.63823 0.69058 0.1132 0.0
N709 N 0.71588 0.66937 0.08627 0.0
H710 H 0.25934 0.58496 0.61412 0.0
H711 H 0.31357 0.7617 0.574 0.0
H712 H 0.1976 0.64342 0.57271 0.0
H713 H 0.37352 0.69239 0.60838 0.0
H714 H 0.26772 0.72339 0.57661 0.0
H715 H 0.29778 0.62906 0.61611 0.0
C716 C 0.25384 0.60726 0.60545 0.0
C717 C 0.22548 0.61037 0.59297 0.0
C718 C 0.29092 0.71685 0.58367 0.0
C719 C 0.26997 0.66132 0.59488 0.0
C720 C 0.31698 0.73865 0.58223 0.0
C721 C 0.34745 0.73003 0.59078 0.0
C722 C 0.29553 0.68662 0.59395 0.0
C723 C 0.35064 0.69995 0.60129 0.0
C724 C 0.27587 0.63255 0.60658 0.0
C725 C 0.21935 0.64007 0.58242 0.0
N726 N 0.32515 0.67947 0.60251 0.0
N727 N 0.24172 0.66442 0.58336 0.0
H728 H 0.31313 0.7613 0.33442 0.0
H729 H 0.261 0.58274 0.37191 0.0
H730 H 0.37465 0.69101 0.36649 0.0
H731 H 0.19797 0.64293 0.33262 0.0
H732 H 0.29888 0.62731 0.37502 0.0
H733 H 0.26725 0.72321 0.33788 0.0
C734 C 0.31685 0.73813 0.34242 0.0
C735 C 0.34777 0.7291 0.34996 0.0
C736 C 0.27675 0.63109 0.36578 0.0
C737 C 0.29584 0.68587 0.35406 0.0
C738 C 0.25504 0.60556 0.36402 0.0
C739 C 0.22653 0.60903 0.35174 0.0
C740 C 0.27038 0.66044 0.35488 0.0
C741 C 0.21982 0.63932 0.34217 0.0
C742 C 0.29078 0.71642 0.34432 0.0
C743 C 0.35138 0.69884 0.36016 0.0
N744 N 0.2419 0.66386 0.34365 0.0
N745 N 0.32587 0.67842 0.36182 0.0
H746 H 0.35598 0.24522 0.79873 0.0
H747 H 0.18969 0.30985 0.85045 0.0
H748 H 0.30811 0.19678 0.85263 0.0
H749 H 0.24711 0.35949 0.80159 0.0
H750 H 0.22591 0.26243 0.84695 0.0
H751 H 0.3092 0.28064 0.79461 0.0
C752 C 0.33534 0.24183 0.80956 0.0
C753 C 0.33603 0.21841 0.82624 0.0
C754 C 0.23017 0.28355 0.83677 0.0
C755 C 0.28244 0.25948 0.82199 0.0
C756 C 0.20947 0.31048 0.83869 0.0
C757 C 0.21578 0.33868 0.8265 0.0
C758 C 0.25694 0.28497 0.82239 0.0
C759 C 0.2417 0.33839 0.81155 0.0
C760 C 0.30859 0.2621 0.80723 0.0
C761 C 0.30848 0.21471 0.83961 0.0
N762 N 0.26138 0.31213 0.81004 0.0
N763 N 0.28291 0.23551 0.83748 0.0
H764 H 0.59019 0.25684 0.31023 0.0
H765 H 0.76498 0.31344 0.35259 0.0
H766 H 0.647 0.19732 0.35411 0.0
H767 H 0.69645 0.37215 0.31657 0.0
H768 H 0.7272 0.26717 0.34975 0.0
H769 H 0.63437 0.29523 0.30812 0.0
C770 C 0.61216 0.25179 0.31939 0.0
C771 C 0.61477 0.2241 0.33262 0.0
C772 C 0.72072 0.29018 0.34237 0.0
C773 C 0.66574 0.26857 0.33058 0.0
C774 C 0.74223 0.31648 0.34393 0.0
C775 C 0.73364 0.34673 0.33501 0.0
C776 C 0.69082 0.29434 0.33157 0.0
C777 C 0.70395 0.34945 0.32396 0.0
C778 C 0.63748 0.2738 0.3182 0.0
C779 C 0.64405 0.21853 0.3438 0.0
N780 N 0.68374 0.32374 0.32263 0.0
N781 N 0.66839 0.24089 0.34279 0.0
H782 H 0.70476 0.59425 0.80675 0.0
H783 H 0.64162 0.76117 0.85776 0.0
H784 H 0.75759 0.64455 0.85763 0.0
H785 H 0.59627 0.70887 0.80449 0.0
H786 H 0.68835 0.72388 0.8554 0.0
H787 H 0.66917 0.64079 0.80291 0.0
C788 C 0.70895 0.61534 0.81705 0.0
C789 C 0.73383 0.61547 0.83271 0.0
C790 C 0.66837 0.721 0.84402 0.0
C791 C 0.6926 0.66902 0.82873 0.0
C792 C 0.64182 0.7423 0.8453 0.0
C793 C 0.61493 0.73772 0.8315 0.0
C794 C 0.66782 0.69525 0.82876 0.0
C795 C 0.61627 0.71294 0.81569 0.0
C796 C 0.68862 0.64202 0.81484 0.0
C797 C 0.73852 0.64357 0.8454 0.0
N798 N 0.64206 0.69258 0.81489 0.0
N799 N 0.71766 0.66916 0.84341 0.0
loop_
_geom_bond_atom_site_label_1
_geom_bond_atom_site_label_2
_geom_bond_distance
_geom_bond_site_symmetry_2
_ccdc_geom_bond_type
C0 O1 1.306 . S
C0 O3 1.160 . S
O1 C0 1.306 . S
O1 Cd2 2.228 . S
Cd2 O1 2.228 . S
Cd2 O6 2.273 . S
Cd2 O10 2.277 . S
O3 C0 1.160 . S
O3 Cd4 2.203 . S
Cd4 O3 2.203 . S
Cd4 O6 2.411 . S
Cd4 O7 2.333 . S
Cd4 O8 2.352 . S
Cd4 O12 2.277 . S
Cd4 O13 2.356 . S
C5 O10 1.209 . S
C5 O12 1.226 . S
O6 Cd2 2.273 . S
O6 Cd4 2.411 . S
O6 C9 1.320 . S
O7 Cd4 2.333 . S
O7 C9 1.214 . S
O8 Cd4 2.352 . S
O8 C11 1.258 . S
C9 O6 1.320 . S
C9 O7 1.214 . S
O10 Cd2 2.277 . S
O10 C5 1.209 . S
C11 O8 1.258 . S
C11 O13 1.282 . S
O12 Cd4 2.277 . S
O12 C5 1.226 . S
O13 Cd4 2.356 . S
O13 C11 1.282 . S
C14 O15 1.306 . S
C14 O17 1.160 . S
O15 C14 1.306 . S
O15 Cd16 2.228 . S
Cd16 O15 2.228 . S
Cd16 O20 2.273 . S
Cd16 O24 2.277 . S
O17 C14 1.160 . S
O17 Cd18 2.203 . S
Cd18 O17 2.203 . S
Cd18 O20 2.411 . S
Cd18 O21 2.333 . S
Cd18 O22 2.352 . S
Cd18 O26 2.277 . S
Cd18 O27 2.356 . S
C19 O24 1.209 . S
C19 O26 1.226 . S
O20 Cd16 2.273 . S
O20 Cd18 2.411 . S
O20 C23 1.320 . S
O21 Cd18 2.333 . S
O21 C23 1.214 . S
O22 Cd18 2.352 . S
O22 C25 1.258 . S
C23 O20 1.320 . S
C23 O21 1.214 . S
O24 Cd16 2.277 . S
O24 C19 1.209 . S
C25 O22 1.258 . S
C25 O27 1.282 . S
O26 Cd18 2.277 . S
O26 C19 1.226 . S
O27 Cd18 2.356 . S
O27 C25 1.282 . S
C28 O29 1.306 . S
C28 O31 1.160 . S
O29 C28 1.306 . S
O29 Cd30 2.228 . S
Cd30 O29 2.228 . S
Cd30 O34 2.273 . S
Cd30 O38 2.277 . S
O31 C28 1.160 . S
O31 Cd32 2.203 . S
Cd32 O31 2.203 . S
Cd32 O34 2.411 . S
Cd32 O35 2.333 . S
Cd32 O36 2.352 . S
Cd32 O40 2.277 . S
Cd32 O41 2.356 . S
C33 O38 1.209 . S
C33 O40 1.226 . S
O34 Cd30 2.273 . S
O34 Cd32 2.411 . S
O34 C37 1.320 . S
O35 Cd32 2.333 . S
O35 C37 1.214 . S
O36 Cd32 2.352 . S
O36 C39 1.258 . S
C37 O34 1.320 . S
C37 O35 1.214 . S
O38 Cd30 2.277 . S
O38 C33 1.209 . S
C39 O36 1.258 . S
C39 O41 1.282 . S
O40 Cd32 2.277 . S
O40 C33 1.226 . S
O41 Cd32 2.356 . S
O41 C39 1.282 . S
C42 O43 1.306 . S
C42 O45 1.160 . S
O43 C42 1.306 . S
O43 Cd44 2.228 . S
Cd44 O43 2.228 . S
Cd44 O48 2.273 . S
Cd44 O52 2.277 . S
O45 C42 1.160 . S
O45 Cd46 2.203 . S
Cd46 O45 2.203 . S
Cd46 O48 2.411 . S
Cd46 O49 2.333 . S
Cd46 O50 2.352 . S
Cd46 O54 2.277 . S
Cd46 O55 2.356 . S
C47 O52 1.209 . S
C47 O54 1.226 . S
O48 Cd44 2.273 . S
O48 Cd46 2.411 . S
O48 C51 1.320 . S
O49 Cd46 2.333 . S
O49 C51 1.214 . S
O50 Cd46 2.352 . S
O50 C53 1.258 . S
C51 O48 1.320 . S
C51 O49 1.214 . S
O52 Cd44 2.277 . S
O52 C47 1.209 . S
C53 O50 1.258 . S
C53 O55 1.282 . S
O54 Cd46 2.277 . S
O54 C47 1.226 . S
O55 Cd46 2.356 . S
O55 C53 1.282 . S
C56 O57 1.306 . S
C56 O59 1.160 . S
O57 C56 1.306 . S
O57 Cd58 2.228 . S
Cd58 O57 2.228 . S
Cd58 O62 2.273 . S
Cd58 O66 2.277 . S
O59 C56 1.160 . S
O59 Cd60 2.203 . S
Cd60 O59 2.203 . S
Cd60 O62 2.411 . S
Cd60 O63 2.333 . S
Cd60 O64 2.352 . S
Cd60 O68 2.277 . S
Cd60 O69 2.356 . S
C61 O66 1.209 . S
C61 O68 1.226 . S
O62 Cd58 2.273 . S
O62 Cd60 2.411 . S
O62 C65 1.320 . S
O63 Cd60 2.333 . S
O63 C65 1.214 . S
O64 Cd60 2.352 . S
O64 C67 1.258 . S
C65 O62 1.320 . S
C65 O63 1.214 . S
O66 Cd58 2.277 . S
O66 C61 1.209 . S
C67 O64 1.258 . S
C67 O69 1.282 . S
O68 Cd60 2.277 . S
O68 C61 1.226 . S
O69 Cd60 2.356 . S
O69 C67 1.282 . S
C70 O71 1.306 . S
C70 O73 1.160 . S
O71 C70 1.306 . S
O71 Cd72 2.228 . S
Cd72 O71 2.228 . S
Cd72 O76 2.273 . S
Cd72 O80 2.277 . S
O73 C70 1.160 . S
O73 Cd74 2.203 . S
Cd74 O73 2.203 . S
Cd74 O76 2.411 . S
Cd74 O77 2.333 . S
Cd74 O78 2.352 . S
Cd74 O82 2.277 . S
Cd74 O83 2.356 . S
C75 O80 1.209 . S
C75 O82 1.226 . S
O76 Cd72 2.273 . S
O76 Cd74 2.411 . S
O76 C79 1.320 . S
O77 Cd74 2.333 . S
O77 C79 1.214 . S
O78 Cd74 2.352 . S
O78 C81 1.258 . S
C79 O76 1.320 . S
C79 O77 1.214 . S
O80 Cd72 2.277 . S
O80 C75 1.209 . S
C81 O78 1.258 . S
C81 O83 1.282 . S
O82 Cd74 2.277 . S
O82 C75 1.226 . S
O83 Cd74 2.356 . S
O83 C81 1.282 . S
C84 O85 1.306 . S
C84 O87 1.160 . S
O85 C84 1.306 . S
O85 Cd86 2.228 . S
Cd86 O85 2.228 . S
Cd86 O90 2.273 . S
Cd86 O94 2.277 . S
O87 C84 1.160 . S
O87 Cd88 2.203 . S
Cd88 O87 2.203 . S
Cd88 O90 2.411 . S
Cd88 O91 2.333 . S
Cd88 O92 2.352 . S
Cd88 O96 2.277 . S
Cd88 O97 2.356 . S
C89 O94 1.209 . S
C89 O96 1.226 . S
O90 Cd86 2.273 . S
O90 Cd88 2.411 . S
O90 C93 1.320 . S
O91 Cd88 2.333 . S
O91 C93 1.214 . S
O92 Cd88 2.352 . S
O92 C95 1.258 . S
C93 O90 1.320 . S
C93 O91 1.214 . S
O94 Cd86 2.277 . S
O94 C89 1.209 . S
C95 O92 1.258 . S
C95 O97 1.282 . S
O96 Cd88 2.277 . S
O96 C89 1.226 . S
O97 Cd88 2.356 . S
O97 C95 1.282 . S
C98 O99 1.306 . S
C98 O101 1.160 . S
O99 C98 1.306 . S
O99 Cd100 2.228 . S
Cd100 O99 2.228 . S
Cd100 O104 2.273 . S
Cd100 O108 2.277 . S
O101 C98 1.160 . S
O101 Cd102 2.203 . S
Cd102 O101 2.203 . S
Cd102 O104 2.411 . S
Cd102 O105 2.333 . S
Cd102 O106 2.352 . S
Cd102 O110 2.277 . S
Cd102 O111 2.356 . S
C103 O108 1.209 . S
C103 O110 1.226 . S
O104 Cd100 2.273 . S
O104 Cd102 2.411 . S
O104 C107 1.320 . S
O105 Cd102 2.333 . S
O105 C107 1.214 . S
O106 Cd102 2.352 . S
O106 C109 1.258 . S
C107 O104 1.320 . S
C107 O105 1.214 . S
O108 Cd100 2.277 . S
O108 C103 1.209 . S
C109 O106 1.258 . S
C109 O111 1.282 . S
O110 Cd102 2.277 . S
O110 C103 1.226 . S
O111 Cd102 2.356 . S
O111 C109 1.282 . S
C112 O113 1.306 . S
C112 O115 1.160 . S
O113 C112 1.306 . S
O113 Cd114 2.228 . S
Cd114 O113 2.228 . S
Cd114 O118 2.273 . S
Cd114 O122 2.277 . S
O115 C112 1.160 . S
O115 Cd116 2.203 . S
Cd116 O115 2.203 . S
Cd116 O118 2.411 . S
Cd116 O119 2.333 . S
Cd116 O120 2.352 . S
Cd116 O124 2.277 . S
Cd116 O125 2.356 . S
C117 O122 1.209 . S
C117 O124 1.226 . S
O118 Cd114 2.273 . S
O118 Cd116 2.411 . S
O118 C121 1.320 . S
O119 Cd116 2.333 . S
O119 C121 1.214 . S
O120 Cd116 2.352 . S
O120 C123 1.258 . S
C121 O118 1.320 . S
C121 O119 1.214 . S
O122 Cd114 2.277 . S
O122 C117 1.209 . S
C123 O120 1.258 . S
C123 O125 1.282 . S
O124 Cd116 2.277 . S
O124 C117 1.226 . S
O125 Cd116 2.356 . S
O125 C123 1.282 . S
C126 O127 1.306 . S
C126 O129 1.160 . S
O127 C126 1.306 . S
O127 Cd128 2.228 . S
Cd128 O127 2.228 . S
Cd128 O132 2.273 . S
Cd128 O136 2.277 . S
O129 C126 1.160 . S
O129 Cd130 2.203 . S
Cd130 O129 2.203 . S
Cd130 O132 2.411 . S
Cd130 O133 2.333 . S
Cd130 O134 2.352 . S
Cd130 O138 2.277 . S
Cd130 O139 2.356 . S
C131 O136 1.209 . S
C131 O138 1.226 . S
O132 Cd128 2.273 . S
O132 Cd130 2.411 . S
O132 C135 1.320 . S
O133 Cd130 2.333 . S
O133 C135 1.214 . S
O134 Cd130 2.352 . S
O134 C137 1.258 . S
C135 O132 1.320 . S
C135 O133 1.214 . S
O136 Cd128 2.277 . S
O136 C131 1.209 . S
C137 O134 1.258 . S
C137 O139 1.282 . S
O138 Cd130 2.277 . S
O138 C131 1.226 . S
O139 Cd130 2.356 . S
O139 C137 1.282 . S
C140 O141 1.306 . S
C140 O143 1.160 . S
O141 C140 1.306 . S
O141 Cd142 2.228 . S
Cd142 O141 2.228 . S
Cd142 O146 2.273 . S
Cd142 O150 2.277 . S
O143 C140 1.160 . S
O143 Cd144 2.203 . S
Cd144 O143 2.203 . S
Cd144 O146 2.411 . S
Cd144 O147 2.333 . S
Cd144 O148 2.352 . S
Cd144 O152 2.277 . S
Cd144 O153 2.356 . S
C145 O150 1.209 . S
C145 O152 1.226 . S
O146 Cd142 2.273 . S
O146 Cd144 2.411 . S
O146 C149 1.320 . S
O147 Cd144 2.333 . S
O147 C149 1.214 . S
O148 Cd144 2.352 . S
O148 C151 1.258 . S
C149 O146 1.320 . S
C149 O147 1.214 . S
O150 Cd142 2.277 . S
O150 C145 1.209 . S
C151 O148 1.258 . S
C151 O153 1.282 . S
O152 Cd144 2.277 . S
O152 C145 1.226 . S
O153 Cd144 2.356 . S
O153 C151 1.282 . S
C154 O155 1.306 . S
C154 O157 1.160 . S
O155 C154 1.306 . S
O155 Cd156 2.228 . S
Cd156 O155 2.228 . S
Cd156 O160 2.273 . S
Cd156 O164 2.277 . S
O157 C154 1.160 . S
O157 Cd158 2.203 . S
Cd158 O157 2.203 . S
Cd158 O160 2.411 . S
Cd158 O161 2.333 . S
Cd158 O162 2.352 . S
Cd158 O166 2.277 . S
Cd158 O167 2.356 . S
C159 O164 1.209 . S
C159 O166 1.226 . S
O160 Cd156 2.273 . S
O160 Cd158 2.411 . S
O160 C163 1.320 . S
O161 Cd158 2.333 . S
O161 C163 1.214 . S
O162 Cd158 2.352 . S
O162 C165 1.258 . S
C163 O160 1.320 . S
C163 O161 1.214 . S
O164 Cd156 2.277 . S
O164 C159 1.209 . S
C165 O162 1.258 . S
C165 O167 1.282 . S
O166 Cd158 2.277 . S
O166 C159 1.226 . S
O167 Cd158 2.356 . S
O167 C165 1.282 . S
C168 O169 1.306 . S
C168 O171 1.160 . S
O169 C168 1.306 . S
O169 Cd170 2.228 . S
Cd170 O169 2.228 . S
Cd170 O174 2.273 . S
Cd170 O178 2.277 . S
O171 C168 1.160 . S
O171 Cd172 2.203 . S
Cd172 O171 2.203 . S
Cd172 O174 2.411 . S
Cd172 O175 2.333 . S
Cd172 O176 2.352 . S
Cd172 O180 2.277 . S
Cd172 O181 2.356 . S
C173 O178 1.209 . S
C173 O180 1.226 . S
O174 Cd170 2.273 . S
O174 Cd172 2.411 . S
O174 C177 1.320 . S
O175 Cd172 2.333 . S
O175 C177 1.214 . S
O176 Cd172 2.352 . S
O176 C179 1.258 . S
C177 O174 1.320 . S
C177 O175 1.214 . S
O178 Cd170 2.277 . S
O178 C173 1.209 . S
C179 O176 1.258 . S
C179 O181 1.282 . S
O180 Cd172 2.277 . S
O180 C173 1.226 . S
O181 Cd172 2.356 . S
O181 C179 1.282 . S
C182 O183 1.306 . S
C182 O185 1.160 . S
O183 C182 1.306 . S
O183 Cd184 2.228 . S
Cd184 O183 2.228 . S
Cd184 O188 2.273 . S
Cd184 O192 2.277 . S
O185 C182 1.160 . S
O185 Cd186 2.203 . S
Cd186 O185 2.203 . S
Cd186 O188 2.411 . S
Cd186 O189 2.333 . S
Cd186 O190 2.352 . S
Cd186 O194 2.277 . S
Cd186 O195 2.356 . S
C187 O192 1.209 . S
C187 O194 1.226 . S
O188 Cd184 2.273 . S
O188 Cd186 2.411 . S
O188 C191 1.320 . S
O189 Cd186 2.333 . S
O189 C191 1.214 . S
O190 Cd186 2.352 . S
O190 C193 1.258 . S
C191 O188 1.320 . S
C191 O189 1.214 . S
O192 Cd184 2.277 . S
O192 C187 1.209 . S
C193 O190 1.258 . S
C193 O195 1.282 . S
O194 Cd186 2.277 . S
O194 C187 1.226 . S
O195 Cd186 2.356 . S
O195 C193 1.282 . S
C196 O197 1.306 . S
C196 O199 1.160 . S
O197 C196 1.306 . S
O197 Cd198 2.228 . S
Cd198 O197 2.228 . S
Cd198 O202 2.273 . S
Cd198 O206 2.277 . S
O199 C196 1.160 . S
O199 Cd200 2.203 . S
Cd200 O199 2.203 . S
Cd200 O202 2.411 . S
Cd200 O203 2.333 . S
Cd200 O204 2.352 . S
Cd200 O208 2.277 . S
Cd200 O209 2.356 . S
C201 O206 1.209 . S
C201 O208 1.226 . S
O202 Cd198 2.273 . S
O202 Cd200 2.411 . S
O202 C205 1.320 . S
O203 Cd200 2.333 . S
O203 C205 1.214 . S
O204 Cd200 2.352 . S
O204 C207 1.258 . S
C205 O202 1.320 . S
C205 O203 1.214 . S
O206 Cd198 2.277 . S
O206 C201 1.209 . S
C207 O204 1.258 . S
C207 O209 1.282 . S
O208 Cd200 2.277 . S
O208 C201 1.226 . S
O209 Cd200 2.356 . S
O209 C207 1.282 . S
C210 O211 1.306 . S
C210 O213 1.160 . S
O211 C210 1.306 . S
O211 Cd212 2.228 . S
Cd212 O211 2.228 . S
Cd212 O216 2.273 . S
Cd212 O220 2.277 . S
O213 C210 1.160 . S
O213 Cd214 2.203 . S
Cd214 O213 2.203 . S
Cd214 O216 2.411 . S
Cd214 O217 2.333 . S
Cd214 O218 2.352 . S
Cd214 O222 2.277 . S
Cd214 O223 2.356 . S
C215 O220 1.209 . S
C215 O222 1.226 . S
O216 Cd212 2.273 . S
O216 Cd214 2.411 . S
O216 C219 1.320 . S
O217 Cd214 2.333 . S
O217 C219 1.214 . S
O218 Cd214 2.352 . S
O218 C221 1.258 . S
C219 O216 1.320 . S
C219 O217 1.214 . S
O220 Cd212 2.277 . S
O220 C215 1.209 . S
C221 O218 1.258 . S
C221 O223 1.282 . S
O222 Cd214 2.277 . S
O222 C215 1.226 . S
O223 Cd214 2.356 . S
O223 C221 1.282 . S
H224 C230 0.930 . S
H225 C234 0.930 . S
H226 C239 0.929 . S
H227 C237 0.929 . S
H228 C232 0.929 . S
H229 C238 0.929 . S
C230 H224 0.930 . S
C230 C231 1.367 . S
C230 C238 1.378 . S
C231 C230 1.367 . S
C231 C239 1.433 . S
C232 H228 0.929 . S
C232 C234 1.378 . S
C232 C236 1.350 . S
C233 C236 1.463 1_455 S
C233 C238 1.350 . S
C233 N241 1.427 . S
C234 H225 0.930 . S
C234 C232 1.378 . S
C234 C235 1.367 . S
C235 C234 1.367 . S
C235 C237 1.433 . S
C236 C232 1.350 . S
C236 C233 1.463 1_655 S
C236 N240 1.427 . S
C237 H227 0.929 . S
C237 C235 1.433 . S
C237 N240 1.384 . S
C238 H229 0.929 . S
C238 C230 1.378 . S
C238 C233 1.350 . S
C239 H226 0.929 . S
C239 C231 1.433 . S
C239 N241 1.384 . S
N240 C236 1.427 . S
N240 C237 1.384 . S
N241 C233 1.427 . S
N241 C239 1.384 . S
H242 C248 0.930 . S
H243 C252 0.930 . S
H244 C257 0.929 . S
H245 C255 0.929 . S
H246 C250 0.929 . S
H247 C256 0.929 . S
C248 H242 0.930 . S
C248 C249 1.367 . S
C248 C256 1.378 . S
C249 C248 1.367 . S
C249 C257 1.433 . S
C250 H246 0.929 . S
C250 C252 1.378 . S
C250 C254 1.350 . S
C251 C254 1.463 1_565 S
C251 C256 1.350 . S
C251 N259 1.427 . S
C252 H243 0.930 . S
C252 C250 1.378 . S
C252 C253 1.367 . S
C253 C252 1.367 . S
C253 C255 1.433 . S
C254 C250 1.350 . S
C254 C251 1.463 1_545 S
C254 N258 1.427 . S
C255 H245 0.929 . S
C255 C253 1.433 . S
C255 N258 1.384 . S
C256 H247 0.929 . S
C256 C248 1.378 . S
C256 C251 1.350 . S
C257 H244 0.929 . S
C257 C249 1.433 . S
C257 N259 1.384 . S
N258 C254 1.427 . S
N258 C255 1.384 . S
N259 C251 1.427 . S
N259 C257 1.384 . S
H260 C266 0.930 . S
H261 C270 0.930 . S
H262 C275 0.929 . S
H263 C273 0.929 . S
H264 C268 0.929 . S
H265 C274 0.929 . S
C266 H260 0.930 . S
C266 C267 1.367 . S
C266 C274 1.378 . S
C267 C266 1.367 . S
C267 C275 1.433 . S
C268 H264 0.929 . S
C268 C270 1.378 . S
C268 C272 1.350 . S
C269 C272 1.463 1_455 S
C269 C274 1.350 . S
C269 N277 1.427 . S
C270 H261 0.930 . S
C270 C268 1.378 . S
C270 C271 1.367 . S
C271 C270 1.367 . S
C271 C273 1.433 . S
C272 C268 1.350 . S
C272 C269 1.463 1_655 S
C272 N276 1.427 . S
C273 H263 0.929 . S
C273 C271 1.433 . S
C273 N276 1.384 . S
C274 H265 0.929 . S
C274 C266 1.378 . S
C274 C269 1.350 . S
C275 H262 0.929 . S
C275 C267 1.433 . S
C275 N277 1.384 . S
N276 C272 1.427 . S
N276 C273 1.384 . S
N277 C269 1.427 . S
N277 C275 1.384 . S
H278 C284 0.930 . S
H279 C288 0.930 . S
H280 C293 0.929 . S
H281 C291 0.929 . S
H282 C286 0.929 . S
H283 C292 0.929 . S
C284 H278 0.930 . S
C284 C285 1.367 . S
C284 C292 1.378 . S
C285 C284 1.367 . S
C285 C293 1.433 . S
C286 H282 0.929 . S
C286 C288 1.378 . S
C286 C290 1.350 . S
C287 C290 1.463 1_565 S
C287 C292 1.350 . S
C287 N295 1.427 . S
C288 H279 0.930 . S
C288 C286 1.378 . S
C288 C289 1.367 . S
C289 C288 1.367 . S
C289 C291 1.433 . S
C290 C286 1.350 . S
C290 C287 1.463 1_545 S
C290 N294 1.427 . S
C291 H281 0.929 . S
C291 C289 1.433 . S
C291 N294 1.384 . S
C292 H283 0.929 . S
C292 C284 1.378 . S
C292 C287 1.350 . S
C293 H280 0.929 . S
C293 C285 1.433 . S
C293 N295 1.384 . S
N294 C290 1.427 . S
N294 C291 1.384 . S
N295 C287 1.427 . S
N295 C293 1.384 . S
H296 C302 0.930 . S
H297 C306 0.930 . S
H298 C311 0.929 . S
H299 C309 0.929 . S
H300 C304 0.929 . S
H301 C310 0.929 . S
C302 H296 0.930 . S
C302 C303 1.367 . S
C302 C310 1.378 . S
C303 C302 1.367 . S
C303 C311 1.433 . S
C304 H300 0.929 . S
C304 C306 1.378 . S
C304 C308 1.350 . S
C305 C308 1.463 1_655 S
C305 C310 1.350 . S
C305 N313 1.427 . S
C306 H297 0.930 . S
C306 C304 1.378 . S
C306 C307 1.367 . S
C307 C306 1.367 . S
C307 C309 1.433 . S
C308 C304 1.350 . S
C308 C305 1.463 1_455 S
C308 N312 1.427 . S
C309 H299 0.929 . S
C309 C307 1.433 . S
C309 N312 1.384 . S
C310 H301 0.929 . S
C310 C302 1.378 . S
C310 C305 1.350 . S
C311 H298 0.929 . S
C311 C303 1.433 . S
C311 N313 1.384 . S
N312 C308 1.427 . S
N312 C309 1.384 . S
N313 C305 1.427 . S
N313 C311 1.384 . S
H314 C320 0.930 . S
H315 C324 0.930 . S
H316 C329 0.929 . S
H317 C327 0.929 . S
H318 C322 0.929 . S
H319 C328 0.929 . S
C320 H314 0.930 . S
C320 C321 1.367 . S
C320 C328 1.378 . S
C321 C320 1.367 . S
C321 C329 1.433 . S
C322 H318 0.929 . S
C322 C324 1.378 . S
C322 C326 1.350 . S
C323 C326 1.463 1_545 S
C323 C328 1.350 . S
C323 N331 1.427 . S
C324 H315 0.930 . S
C324 C322 1.378 . S
C324 C325 1.367 . S
C325 C324 1.367 . S
C325 C327 1.433 . S
C326 C322 1.350 . S
C326 C323 1.463 1_565 S
C326 N330 1.427 . S
C327 H317 0.929 . S
C327 C325 1.433 . S
C327 N330 1.384 . S
C328 H319 0.929 . S
C328 C320 1.378 . S
C328 C323 1.350 . S
C329 H316 0.929 . S
C329 C321 1.433 . S
C329 N331 1.384 . S
N330 C326 1.427 . S
N330 C327 1.384 . S
N331 C323 1.427 . S
N331 C329 1.384 . S
H332 C338 0.930 . S
H333 C342 0.930 . S
H334 C347 0.929 . S
H335 C345 0.929 . S
H336 C340 0.929 . S
H337 C346 0.929 . S
C338 H332 0.930 . S
C338 C339 1.367 . S
C338 C346 1.378 . S
C339 C338 1.367 . S
C339 C347 1.433 . S
C340 H336 0.929 . S
C340 C342 1.378 . S
C340 C344 1.350 . S
C341 C344 1.463 1_655 S
C341 C346 1.350 . S
C341 N349 1.427 . S
C342 H333 0.930 . S
C342 C340 1.378 . S
C342 C343 1.367 . S
C343 C342 1.367 . S
C343 C345 1.433 . S
C344 C340 1.350 . S
C344 C341 1.463 1_455 S
C344 N348 1.427 . S
C345 H335 0.929 . S
C345 C343 1.433 . S
C345 N348 1.384 . S
C346 H337 0.929 . S
C346 C338 1.378 . S
C346 C341 1.350 . S
C347 H334 0.929 . S
C347 C339 1.433 . S
C347 N349 1.384 . S
N348 C344 1.427 . S
N348 C345 1.384 . S
N349 C341 1.427 . S
N349 C347 1.384 . S
H350 C356 0.930 . S
H351 C360 0.930 . S
H352 C365 0.929 . S
H353 C363 0.929 . S
H354 C358 0.929 . S
H355 C364 0.929 . S
C356 H350 0.930 . S
C356 C357 1.367 . S
C356 C364 1.378 . S
C357 C356 1.367 . S
C357 C365 1.433 . S
C358 H354 0.929 . S
C358 C360 1.378 . S
C358 C362 1.350 . S
C359 C362 1.463 1_545 S
C359 C364 1.350 . S
C359 N367 1.427 . S
C360 H351 0.930 . S
C360 C358 1.378 . S
C360 C361 1.367 . S
C361 C360 1.367 . S
C361 C363 1.433 . S
C362 C358 1.350 . S
C362 C359 1.463 1_565 S
C362 N366 1.427 . S
C363 H353 0.929 . S
C363 C361 1.433 . S
C363 N366 1.384 . S
C364 H355 0.929 . S
C364 C356 1.378 . S
C364 C359 1.350 . S
C365 H352 0.929 . S
C365 C357 1.433 . S
C365 N367 1.384 . S
N366 C362 1.427 . S
N366 C363 1.384 . S
N367 C359 1.427 . S
N367 C365 1.384 . S
H368 C374 0.930 . S
H369 C378 0.930 . S
H370 C383 0.929 . S
H371 C381 0.929 . S
H372 C376 0.929 . S
H373 C382 0.929 . S
C374 H368 0.930 . S
C374 C375 1.367 . S
C374 C382 1.378 . S
C375 C374 1.367 . S
C375 C383 1.433 . S
C376 H372 0.929 . S
C376 C378 1.378 . S
C376 C380 1.350 . S
C377 C380 1.463 . S
C377 C382 1.350 . S
C377 N385 1.427 . S
C378 H369 0.930 . S
C378 C376 1.378 . S
C378 C379 1.367 . S
C379 C378 1.367 . S
C379 C381 1.433 . S
C380 C376 1.350 . S
C380 C377 1.463 . S
C380 N384 1.427 . S
C381 H371 0.929 . S
C381 C379 1.433 . S
C381 N384 1.384 . S
C382 H373 0.929 . S
C382 C374 1.378 . S
C382 C377 1.350 . S
C383 H370 0.929 . S
C383 C375 1.433 . S
C383 N385 1.384 . S
N384 C380 1.427 . S
N384 C381 1.384 . S
N385 C377 1.427 . S
N385 C383 1.384 . S
H386 C392 0.930 . S
H387 C396 0.930 . S
H388 C401 0.929 . S
H389 C399 0.929 . S
H390 C394 0.929 . S
H391 C400 0.929 . S
C392 H386 0.930 . S
C392 C393 1.367 . S
C392 C400 1.378 . S
C393 C392 1.367 . S
C393 C401 1.433 . S
C394 H390 0.929 . S
C394 C396 1.378 . S
C394 C398 1.350 . S
C395 C398 1.463 . S
C395 C400 1.350 . S
C395 N403 1.427 . S
C396 H387 0.930 . S
C396 C394 1.378 . S
C396 C397 1.367 . S
C397 C396 1.367 . S
C397 C399 1.433 . S
C398 C394 1.350 . S
C398 C395 1.463 . S
C398 N402 1.427 . S
C399 H389 0.929 . S
C399 C397 1.433 . S
C399 N402 1.384 . S
C400 H391 0.929 . S
C400 C392 1.378 . S
C400 C395 1.350 . S
C401 H388 0.929 . S
C401 C393 1.433 . S
C401 N403 1.384 . S
N402 C398 1.427 . S
N402 C399 1.384 . S
N403 C395 1.427 . S
N403 C401 1.384 . S
H404 C410 0.930 . S
H405 C414 0.930 . S
H406 C419 0.929 . S
H407 C417 0.929 . S
H408 C412 0.929 . S
H409 C418 0.929 . S
C410 H404 0.930 . S
C410 C411 1.367 . S
C410 C418 1.378 . S
C411 C410 1.367 . S
C411 C419 1.433 . S
C412 H408 0.929 . S
C412 C414 1.378 . S
C412 C416 1.350 . S
C413 C416 1.463 . S
C413 C418 1.350 . S
C413 N421 1.427 . S
C414 H405 0.930 . S
C414 C412 1.378 . S
C414 C415 1.367 . S
C415 C414 1.367 . S
C415 C417 1.433 . S
C416 C412 1.350 . S
C416 C413 1.463 . S
C416 N420 1.427 . S
C417 H407 0.929 . S
C417 C415 1.433 . S
C417 N420 1.384 . S
C418 H409 0.929 . S
C418 C410 1.378 . S
C418 C413 1.350 . S
C419 H406 0.929 . S
C419 C411 1.433 . S
C419 N421 1.384 . S
N420 C416 1.427 . S
N420 C417 1.384 . S
N421 C413 1.427 . S
N421 C419 1.384 . S
H422 C428 0.930 . S
H423 C432 0.930 . S
H424 C437 0.929 . S
H425 C435 0.929 . S
H426 C430 0.929 . S
H427 C436 0.929 . S
C428 H422 0.930 . S
C428 C429 1.367 . S
C428 C436 1.378 . S
C429 C428 1.367 . S
C429 C437 1.433 . S
C430 H426 0.929 . S
C430 C432 1.378 . S
C430 C434 1.350 . S
C431 C434 1.463 . S
C431 C436 1.350 . S
C431 N439 1.427 . S
C432 H423 0.930 . S
C432 C430 1.378 . S
C432 C433 1.367 . S
C433 C432 1.367 . S
C433 C435 1.433 . S
C434 C430 1.350 . S
C434 C431 1.463 . S
C434 N438 1.427 . S
C435 H425 0.929 . S
C435 C433 1.433 . S
C435 N438 1.384 . S
C436 H427 0.929 . S
C436 C428 1.378 . S
C436 C431 1.350 . S
C437 H424 0.929 . S
C437 C429 1.433 . S
C437 N439 1.384 . S
N438 C434 1.427 . S
N438 C435 1.384 . S
N439 C431 1.427 . S
N439 C437 1.384 . S
H440 C446 0.930 . S
H441 C450 0.930 . S
H442 C455 0.929 . S
H443 C453 0.929 . S
H444 C448 0.929 . S
H445 C454 0.929 . S
C446 H440 0.930 . S
C446 C447 1.367 . S
C446 C454 1.378 . S
C447 C446 1.367 . S
C447 C455 1.433 . S
C448 H444 0.929 . S
C448 C450 1.378 . S
C448 C452 1.350 . S
C449 C452 1.463 . S
C449 C454 1.350 . S
C449 N457 1.427 . S
C450 H441 0.930 . S
C450 C448 1.378 . S
C450 C451 1.367 . S
C451 C450 1.367 . S
C451 C453 1.433 . S
C452 C448 1.350 . S
C452 C449 1.463 . S
C452 N456 1.427 . S
C453 H443 0.929 . S
C453 C451 1.433 . S
C453 N456 1.384 . S
C454 H445 0.929 . S
C454 C446 1.378 . S
C454 C449 1.350 . S
C455 H442 0.929 . S
C455 C447 1.433 . S
C455 N457 1.384 . S
N456 C452 1.427 . S
N456 C453 1.384 . S
N457 C449 1.427 . S
N457 C455 1.384 . S
H458 C464 0.930 . S
H459 C468 0.930 . S
H460 C473 0.929 . S
H461 C471 0.929 . S
H462 C466 0.929 . S
H463 C472 0.929 . S
C464 H458 0.930 . S
C464 C465 1.367 . S
C464 C472 1.378 . S
C465 C464 1.367 . S
C465 C473 1.433 . S
C466 H462 0.929 . S
C466 C468 1.378 . S
C466 C470 1.350 . S
C467 C470 1.463 . S
C467 C472 1.350 . S
C467 N475 1.427 . S
C468 H459 0.930 . S
C468 C466 1.378 . S
C468 C469 1.367 . S
C469 C468 1.367 . S
C469 C471 1.433 . S
C470 C466 1.350 . S
C470 C467 1.463 . S
C470 N474 1.427 . S
C471 H461 0.929 . S
C471 C469 1.433 . S
C471 N474 1.384 . S
C472 H463 0.929 . S
C472 C464 1.378 . S
C472 C467 1.350 . S
C473 H460 0.929 . S
C473 C465 1.433 . S
C473 N475 1.384 . S
N474 C470 1.427 . S
N474 C471 1.384 . S
N475 C467 1.427 . S
N475 C473 1.384 . S
H476 C482 0.930 . S
H477 C486 0.930 . S
H478 C491 0.929 . S
H479 C489 0.929 . S
H480 C484 0.929 . S
H481 C490 0.929 . S
C482 H476 0.930 . S
C482 C483 1.367 . S
C482 C490 1.378 . S
C483 C482 1.367 . S
C483 C491 1.433 . S
C484 H480 0.929 . S
C484 C486 1.378 . S
C484 C488 1.350 . S
C485 C488 1.463 . S
C485 C490 1.350 . S
C485 N493 1.427 . S
C486 H477 0.930 . S
C486 C484 1.378 . S
C486 C487 1.367 . S
C487 C486 1.367 . S
C487 C489 1.433 . S
C488 C484 1.350 . S
C488 C485 1.463 . S
C488 N492 1.427 . S
C489 H479 0.929 . S
C489 C487 1.433 . S
C489 N492 1.384 . S
C490 H481 0.929 . S
C490 C482 1.378 . S
C490 C485 1.350 . S
C491 H478 0.929 . S
C491 C483 1.433 . S
C491 N493 1.384 . S
N492 C488 1.427 . S
N492 C489 1.384 . S
N493 C485 1.427 . S
N493 C491 1.384 . S
H494 C500 0.930 . S
H495 C504 0.930 . S
H496 C509 0.929 . S
H497 C507 0.929 . S
H498 C502 0.929 . S
H499 C508 0.929 . S
C500 H494 0.930 . S
C500 C501 1.367 . S
C500 C508 1.378 . S
C501 C500 1.367 . S
C501 C509 1.433 . S
C502 H498 0.929 . S
C502 C504 1.378 . S
C502 C506 1.350 . S
C503 C506 1.463 . S
C503 C508 1.350 . S
C503 N511 1.427 . S
C504 H495 0.930 . S
C504 C502 1.378 . S
C504 C505 1.367 . S
C505 C504 1.367 . S
C505 C507 1.433 . S
C506 C502 1.350 . S
C506 C503 1.463 . S
C506 N510 1.427 . S
C507 H497 0.929 . S
C507 C505 1.433 . S
C507 N510 1.384 . S
C508 H499 0.929 . S
C508 C500 1.378 . S
C508 C503 1.350 . S
C509 H496 0.929 . S
C509 C501 1.433 . S
C509 N511 1.384 . S
N510 C506 1.427 . S
N510 C507 1.384 . S
N511 C503 1.427 . S
N511 C509 1.384 . S
H512 C518 0.930 . S
H513 C522 0.930 . S
H514 C527 0.929 . S
H515 C525 0.929 . S
H516 C520 0.929 . S
H517 C526 0.929 . S
C518 H512 0.930 . S
C518 C519 1.367 . S
C518 C526 1.378 . S
C519 C518 1.367 . S
C519 C527 1.433 . S
C520 H516 0.929 . S
C520 C522 1.378 . S
C520 C524 1.350 . S
C521 C524 1.463 1_556 S
C521 C526 1.350 . S
C521 N529 1.427 . S
C522 H513 0.930 . S
C522 C520 1.378 . S
C522 C523 1.367 . S
C523 C522 1.367 . S
C523 C525 1.433 . S
C524 C520 1.350 . S
C524 C521 1.463 1_554 S
C524 N528 1.427 . S
C525 H515 0.929 . S
C525 C523 1.433 . S
C525 N528 1.384 . S
C526 H517 0.929 . S
C526 C518 1.378 . S
C526 C521 1.350 . S
C527 H514 0.929 . S
C527 C519 1.433 . S
C527 N529 1.384 . S
N528 C524 1.427 . S
N528 C525 1.384 . S
N529 C521 1.427 . S
N529 C527 1.384 . S
H530 C536 0.930 . S
H531 C540 0.930 . S
H532 C545 0.929 . S
H533 C543 0.929 . S
H534 C538 0.929 . S
H535 C544 0.929 . S
C536 H530 0.930 . S
C536 C537 1.367 . S
C536 C544 1.378 . S
C537 C536 1.367 . S
C537 C545 1.433 . S
C538 H534 0.929 . S
C538 C540 1.378 . S
C538 C542 1.350 . S
C539 C542 1.463 . S
C539 C544 1.350 . S
C539 N547 1.427 . S
C540 H531 0.930 . S
C540 C538 1.378 . S
C540 C541 1.367 . S
C541 C540 1.367 . S
C541 C543 1.433 . S
C542 C538 1.350 . S
C542 C539 1.463 . S
C542 N546 1.427 . S
C543 H533 0.929 . S
C543 C541 1.433 . S
C543 N546 1.384 . S
C544 H535 0.929 . S
C544 C536 1.378 . S
C544 C539 1.350 . S
C545 H532 0.929 . S
C545 C537 1.433 . S
C545 N547 1.384 . S
N546 C542 1.427 . S
N546 C543 1.384 . S
N547 C539 1.427 . S
N547 C545 1.384 . S
H548 C554 0.930 . S
H549 C558 0.930 . S
H550 C563 0.929 . S
H551 C561 0.929 . S
H552 C556 0.929 . S
H553 C562 0.929 . S
C554 H548 0.930 . S
C554 C555 1.367 . S
C554 C562 1.378 . S
C555 C554 1.367 . S
C555 C563 1.433 . S
C556 H552 0.929 . S
C556 C558 1.378 . S
C556 C560 1.350 . S
C557 C560 1.463 1_554 S
C557 C562 1.350 . S
C557 N565 1.427 . S
C558 H549 0.930 . S
C558 C556 1.378 . S
C558 C559 1.367 . S
C559 C558 1.367 . S
C559 C561 1.433 . S
C560 C556 1.350 . S
C560 C557 1.463 1_556 S
C560 N564 1.427 . S
C561 H551 0.929 . S
C561 C559 1.433 . S
C561 N564 1.384 . S
C562 H553 0.929 . S
C562 C554 1.378 . S
C562 C557 1.350 . S
C563 H550 0.929 . S
C563 C555 1.433 . S
C563 N565 1.384 . S
N564 C560 1.427 . S
N564 C561 1.384 . S
N565 C557 1.427 . S
N565 C563 1.384 . S
H566 C572 0.930 . S
H567 C576 0.930 . S
H568 C581 0.929 . S
H569 C579 0.929 . S
H570 C574 0.929 . S
H571 C580 0.929 . S
C572 H566 0.930 . S
C572 C573 1.367 . S
C572 C580 1.378 . S
C573 C572 1.367 . S
C573 C581 1.433 . S
C574 H570 0.929 . S
C574 C576 1.378 . S
C574 C578 1.350 . S
C575 C578 1.463 . S
C575 C580 1.350 . S
C575 N583 1.427 . S
C576 H567 0.930 . S
C576 C574 1.378 . S
C576 C577 1.367 . S
C577 C576 1.367 . S
C577 C579 1.433 . S
C578 C574 1.350 . S
C578 C575 1.463 . S
C578 N582 1.427 . S
C579 H569 0.929 . S
C579 C577 1.433 . S
C579 N582 1.384 . S
C580 H571 0.929 . S
C580 C572 1.378 . S
C580 C575 1.350 . S
C581 H568 0.929 . S
C581 C573 1.433 . S
C581 N583 1.384 . S
N582 C578 1.427 . S
N582 C579 1.384 . S
N583 C575 1.427 . S
N583 C581 1.384 . S
H584 C590 0.930 . S
H585 C594 0.930 . S
H586 C599 0.929 . S
H587 C597 0.929 . S
H588 C592 0.929 . S
H589 C598 0.929 . S
C590 H584 0.930 . S
C590 C591 1.367 . S
C590 C598 1.378 . S
C591 C590 1.367 . S
C591 C599 1.433 . S
C592 H588 0.929 . S
C592 C594 1.378 . S
C592 C596 1.350 . S
C593 C596 1.463 . S
C593 C598 1.350 . S
C593 N601 1.427 . S
C594 H585 0.930 . S
C594 C592 1.378 . S
C594 C595 1.367 . S
C595 C594 1.367 . S
C595 C597 1.433 . S
C596 C592 1.350 . S
C596 C593 1.463 . S
C596 N600 1.427 . S
C597 H587 0.929 . S
C597 C595 1.433 . S
C597 N600 1.384 . S
C598 H589 0.929 . S
C598 C590 1.378 . S
C598 C593 1.350 . S
C599 H586 0.929 . S
C599 C591 1.433 . S
C599 N601 1.384 . S
N600 C596 1.427 . S
N600 C597 1.384 . S
N601 C593 1.427 . S
N601 C599 1.384 . S
H602 C608 0.930 . S
H603 C612 0.930 . S
H604 C617 0.929 . S
H605 C615 0.929 . S
H606 C610 0.929 . S
H607 C616 0.929 . S
C608 H602 0.930 . S
C608 C609 1.367 . S
C608 C616 1.378 . S
C609 C608 1.367 . S
C609 C617 1.433 . S
C610 H606 0.929 . S
C610 C612 1.378 . S
C610 C614 1.350 . S
C611 C614 1.463 1_556 S
C611 C616 1.350 . S
C611 N619 1.427 . S
C612 H603 0.930 . S
C612 C610 1.378 . S
C612 C613 1.367 . S
C613 C612 1.367 . S
C613 C615 1.433 . S
C614 C610 1.350 . S
C614 C611 1.463 1_554 S
C614 N618 1.427 . S
C615 H605 0.929 . S
C615 C613 1.433 . S
C615 N618 1.384 . S
C616 H607 0.929 . S
C616 C608 1.378 . S
C616 C611 1.350 . S
C617 H604 0.929 . S
C617 C609 1.433 . S
C617 N619 1.384 . S
N618 C614 1.427 . S
N618 C615 1.384 . S
N619 C611 1.427 . S
N619 C617 1.384 . S
H620 C626 0.930 . S
H621 C630 0.930 . S
H622 C635 0.929 . S
H623 C633 0.929 . S
H624 C628 0.929 . S
H625 C634 0.929 . S
C626 H620 0.930 . S
C626 C627 1.367 . S
C626 C634 1.378 . S
C627 C626 1.367 . S
C627 C635 1.433 . S
C628 H624 0.929 . S
C628 C630 1.378 . S
C628 C632 1.350 . S
C629 C632 1.463 . S
C629 C634 1.350 . S
C629 N637 1.427 . S
C630 H621 0.930 . S
C630 C628 1.378 . S
C630 C631 1.367 . S
C631 C630 1.367 . S
C631 C633 1.433 . S
C632 C628 1.350 . S
C632 C629 1.463 . S
C632 N636 1.427 . S
C633 H623 0.929 . S
C633 C631 1.433 . S
C633 N636 1.384 . S
C634 H625 0.929 . S
C634 C626 1.378 . S
C634 C629 1.350 . S
C635 H622 0.929 . S
C635 C627 1.433 . S
C635 N637 1.384 . S
N636 C632 1.427 . S
N636 C633 1.384 . S
N637 C629 1.427 . S
N637 C635 1.384 . S
H638 C644 0.930 . S
H639 C648 0.930 . S
H640 C653 0.929 . S
H641 C651 0.929 . S
H642 C646 0.929 . S
H643 C652 0.929 . S
C644 H638 0.930 . S
C644 C645 1.367 . S
C644 C652 1.378 . S
C645 C644 1.367 . S
C645 C653 1.433 . S
C646 H642 0.929 . S
C646 C648 1.378 . S
C646 C650 1.350 . S
C647 C650 1.463 1_554 S
C647 C652 1.350 . S
C647 N655 1.427 . S
C648 H639 0.930 . S
C648 C646 1.378 . S
C648 C649 1.367 . S
C649 C648 1.367 . S
C649 C651 1.433 . S
C650 C646 1.350 . S
C650 C647 1.463 1_556 S
C650 N654 1.427 . S
C651 H641 0.929 . S
C651 C649 1.433 . S
C651 N654 1.384 . S
C652 H643 0.929 . S
C652 C644 1.378 . S
C652 C647 1.350 . S
C653 H640 0.929 . S
C653 C645 1.433 . S
C653 N655 1.384 . S
N654 C650 1.427 . S
N654 C651 1.384 . S
N655 C647 1.427 . S
N655 C653 1.384 . S
H656 C662 0.930 . S
H657 C666 0.930 . S
H658 C671 0.929 . S
H659 C669 0.929 . S
H660 C664 0.929 . S
H661 C670 0.929 . S
C662 H656 0.930 . S
C662 C663 1.367 . S
C662 C670 1.378 . S
C663 C662 1.367 . S
C663 C671 1.433 . S
C664 H660 0.929 . S
C664 C666 1.378 . S
C664 C668 1.350 . S
C665 C668 1.463 . S
C665 C670 1.350 . S
C665 N673 1.427 . S
C666 H657 0.930 . S
C666 C664 1.378 . S
C666 C667 1.367 . S
C667 C666 1.367 . S
C667 C669 1.433 . S
C668 C664 1.350 . S
C668 C665 1.463 . S
C668 N672 1.427 . S
C669 H659 0.929 . S
C669 C667 1.433 . S
C669 N672 1.384 . S
C670 H661 0.929 . S
C670 C662 1.378 . S
C670 C665 1.350 . S
C671 H658 0.929 . S
C671 C663 1.433 . S
C671 N673 1.384 . S
N672 C668 1.427 . S
N672 C669 1.384 . S
N673 C665 1.427 . S
N673 C671 1.384 . S
H674 C680 0.930 . S
H675 C684 0.930 . S
H676 C689 0.929 . S
H677 C687 0.929 . S
H678 C682 0.929 . S
H679 C688 0.929 . S
C680 H674 0.930 . S
C680 C681 1.367 . S
C680 C688 1.378 . S
C681 C680 1.367 . S
C681 C689 1.433 . S
C682 H678 0.929 . S
C682 C684 1.378 . S
C682 C686 1.350 . S
C683 C686 1.463 . S
C683 C688 1.350 . S
C683 N691 1.427 . S
C684 H675 0.930 . S
C684 C682 1.378 . S
C684 C685 1.367 . S
C685 C684 1.367 . S
C685 C687 1.433 . S
C686 C682 1.350 . S
C686 C683 1.463 . S
C686 N690 1.427 . S
C687 H677 0.929 . S
C687 C685 1.433 . S
C687 N690 1.384 . S
C688 H679 0.929 . S
C688 C680 1.378 . S
C688 C683 1.350 . S
C689 H676 0.929 . S
C689 C681 1.433 . S
C689 N691 1.384 . S
N690 C686 1.427 . S
N690 C687 1.384 . S
N691 C683 1.427 . S
N691 C689 1.384 . S
H692 C698 0.930 . S
H693 C702 0.930 . S
H694 C707 0.929 . S
H695 C705 0.929 . S
H696 C700 0.929 . S
H697 C706 0.929 . S
C698 H692 0.930 . S
C698 C699 1.367 . S
C698 C706 1.378 . S
C699 C698 1.367 . S
C699 C707 1.433 . S
C700 H696 0.929 . S
C700 C702 1.378 . S
C700 C704 1.350 . S
C701 C704 1.463 . S
C701 C706 1.350 . S
C701 N709 1.427 . S
C702 H693 0.930 . S
C702 C700 1.378 . S
C702 C703 1.367 . S
C703 C702 1.367 . S
C703 C705 1.433 . S
C704 C700 1.350 . S
C704 C701 1.463 . S
C704 N708 1.427 . S
C705 H695 0.929 . S
C705 C703 1.433 . S
C705 N708 1.384 . S
C706 H697 0.929 . S
C706 C698 1.378 . S
C706 C701 1.350 . S
C707 H694 0.929 . S
C707 C699 1.433 . S
C707 N709 1.384 . S
N708 C704 1.427 . S
N708 C705 1.384 . S
N709 C701 1.427 . S
N709 C707 1.384 . S
H710 C716 0.930 . S
H711 C720 0.930 . S
H712 C725 0.929 . S
H713 C723 0.929 . S
H714 C718 0.929 . S
H715 C724 0.929 . S
C716 H710 0.930 . S
C716 C717 1.367 . S
C716 C724 1.378 . S
C717 C716 1.367 . S
C717 C725 1.433 . S
C718 H714 0.929 . S
C718 C720 1.378 . S
C718 C722 1.350 . S
C719 C722 1.463 . S
C719 C724 1.350 . S
C719 N727 1.427 . S
C720 H711 0.930 . S
C720 C718 1.378 . S
C720 C721 1.367 . S
C721 C720 1.367 . S
C721 C723 1.433 . S
C722 C718 1.350 . S
C722 C719 1.463 . S
C722 N726 1.427 . S
C723 H713 0.929 . S
C723 C721 1.433 . S
C723 N726 1.384 . S
C724 H715 0.929 . S
C724 C716 1.378 . S
C724 C719 1.350 . S
C725 H712 0.929 . S
C725 C717 1.433 . S
C725 N727 1.384 . S
N726 C722 1.427 . S
N726 C723 1.384 . S
N727 C719 1.427 . S
N727 C725 1.384 . S
H728 C734 0.930 . S
H729 C738 0.930 . S
H730 C743 0.929 . S
H731 C741 0.929 . S
H732 C736 0.929 . S
H733 C742 0.929 . S
C734 H728 0.930 . S
C734 C735 1.367 . S
C734 C742 1.378 . S
C735 C734 1.367 . S
C735 C743 1.433 . S
C736 H732 0.929 . S
C736 C738 1.378 . S
C736 C740 1.350 . S
C737 C740 1.463 . S
C737 C742 1.350 . S
C737 N745 1.427 . S
C738 H729 0.930 . S
C738 C736 1.378 . S
C738 C739 1.367 . S
C739 C738 1.367 . S
C739 C741 1.433 . S
C740 C736 1.350 . S
C740 C737 1.463 . S
C740 N744 1.427 . S
C741 H731 0.929 . S
C741 C739 1.433 . S
C741 N744 1.384 . S
C742 H733 0.929 . S
C742 C734 1.378 . S
C742 C737 1.350 . S
C743 H730 0.929 . S
C743 C735 1.433 . S
C743 N745 1.384 . S
N744 C740 1.427 . S
N744 C741 1.384 . S
N745 C737 1.427 . S
N745 C743 1.384 . S
H746 C752 0.930 . S
H747 C756 0.930 . S
H748 C761 0.929 . S
H749 C759 0.929 . S
H750 C754 0.929 . S
H751 C760 0.929 . S
C752 H746 0.930 . S
C752 C753 1.367 . S
C752 C760 1.378 . S
C753 C752 1.367 . S
C753 C761 1.433 . S
C754 H750 0.929 . S
C754 C756 1.378 . S
C754 C758 1.350 . S
C755 C758 1.463 . S
C755 C760 1.350 . S
C755 N763 1.427 . S
C756 H747 0.930 . S
C756 C754 1.378 . S
C756 C757 1.367 . S
C757 C756 1.367 . S
C757 C759 1.433 . S
C758 C754 1.350 . S
C758 C755 1.463 . S
C758 N762 1.427 . S
C759 H749 0.929 . S
C759 C757 1.433 . S
C759 N762 1.384 . S
C760 H751 0.929 . S
C760 C752 1.378 . S
C760 C755 1.350 . S
C761 H748 0.929 . S
C761 C753 1.433 . S
C761 N763 1.384 . S
N762 C758 1.427 . S
N762 C759 1.384 . S
N763 C755 1.427 . S
N763 C761 1.384 . S
H764 C770 0.930 . S
H765 C774 0.930 . S
H766 C779 0.929 . S
H767 C777 0.929 . S
H768 C772 0.929 . S
H769 C778 0.929 . S
C770 H764 0.930 . S
C770 C771 1.367 . S
C770 C778 1.378 . S
C771 C770 1.367 . S
C771 C779 1.433 . S
C772 H768 0.929 . S
C772 C774 1.378 . S
C772 C776 1.350 . S
C773 C776 1.463 . S
C773 C778 1.350 . S
C773 N781 1.427 . S
C774 H765 0.930 . S
C774 C772 1.378 . S
C774 C775 1.367 . S
C775 C774 1.367 . S
C775 C777 1.433 . S
C776 C772 1.350 . S
C776 C773 1.463 . S
C776 N780 1.427 . S
C777 H767 0.929 . S
C777 C775 1.433 . S
C777 N780 1.384 . S
C778 H769 0.929 . S
C778 C770 1.378 . S
C778 C773 1.350 . S
C779 H766 0.929 . S
C779 C771 1.433 . S
C779 N781 1.384 . S
N780 C776 1.427 . S
N780 C777 1.384 . S
N781 C773 1.427 . S
N781 C779 1.384 . S
H782 C788 0.930 . S
H783 C792 0.930 . S
H784 C797 0.929 . S
H785 C795 0.929 . S
H786 C790 0.929 . S
H787 C796 0.929 . S
C788 H782 0.930 . S
C788 C789 1.367 . S
C788 C796 1.378 . S
C789 C788 1.367 . S
C789 C797 1.433 . S
C790 H786 0.929 . S
C790 C792 1.378 . S
C790 C794 1.350 . S
C791 C794 1.463 . S
C791 C796 1.350 . S
C791 N799 1.427 . S
C792 H783 0.930 . S
C792 C790 1.378 . S
C792 C793 1.367 . S
C793 C792 1.367 . S
C793 C795 1.433 . S
C794 C790 1.350 . S
C794 C791 1.463 . S
C794 N798 1.427 . S
C795 H785 0.929 . S
C795 C793 1.433 . S
C795 N798 1.384 . S
C796 H787 0.929 . S
C796 C788 1.378 . S
C796 C791 1.350 . S
C797 H784 0.929 . S
C797 C789 1.433 . S
C797 N799 1.384 . S
N798 C794 1.427 . S
N798 C795 1.384 . S
N799 C791 1.427 . S
N799 C797 1.384 . S
C231 C5 1.362 . S
C235 C33 1.361 . S
C249 C47 1.359 . S
C253 C19 1.359 . S
C267 C61 1.359 . S
C271 C89 1.358 . S
C285 C103 1.365 . S
C289 C75 1.365 . S
C303 C117 1.358 . S
C307 C145 1.359 . S
C321 C159 1.365 . S
C325 C131 1.364 . S
C339 C173 1.358 . S
C343 C201 1.357 . S
C357 C215 1.364 . S
C361 C187 1.363 . S
C375 C56 1.339 . S
C379 C0 1.335 . S
C393 C14 1.348 . S
C397 C70 1.339 . S
C411 C28 1.340 . S
C415 C84 1.334 . S
C429 C98 1.335 . S
C433 C42 1.337 . S
C447 C112 1.336 . S
C451 C168 1.344 . S
C465 C126 1.346 . S
C469 C182 1.337 . S
C483 C140 1.350 . S
C487 C196 1.344 . S
C501 C154 1.338 . S
C505 C210 1.347 . S
C519 C149 1.224 . S
C523 C9 1.209 . S
C537 C163 1.225 . S
C541 C23 1.208 . S
C555 C37 1.224 . S
C559 C121 1.209 . S
C573 C51 1.213 . S
C577 C135 1.220 . S
C591 C65 1.225 . S
C595 C205 1.208 . S
C609 C79 1.210 . S
C613 C219 1.224 . S
C627 C93 1.208 . S
C631 C177 1.225 . S
C645 C191 1.224 . S
C649 C107 1.209 . S
C663 C11 1.370 . S
C667 C221 1.372 . S
C681 C179 1.371 . S
C685 C25 1.371 . S
C699 C39 1.370 . S
C703 C193 1.372 . S
C717 C207 1.372 . S
C721 C53 1.370 . S
C735 C137 1.372 . S
C739 C67 1.370 . S
C753 C81 1.370 . S
C757 C151 1.372 . S
C771 C165 1.371 . S
C775 C95 1.372 . S
C789 C123 1.372 . S
C793 C109 1.370 . S
