# Generated by pormake.
# Topology uks, (4)-cn, num edge types: 1
# Building blocks:
#     Node 0, Type 0, BuildingBlock: MUDLON_clean_sbu_0, # of connection points: 4
#     Node 1, Type 0, BuildingBlock: MUDLON_clean_sbu_0, # of connection points: 4
#     Node 2, Type 0, BuildingBlock: MUDLON_clean_sbu_0, # of connection points: 4
#     Node 3, Type 0, BuildingBlock: MUDLON_clean_sbu_0, # of connection points: 4
#     Node 4, Type 0, BuildingBlock: MUDLON_clean_sbu_0, # of connection points: 4
#     Node 5, Type 0, BuildingBlock: MUDLON_clean_sbu_0, # of connection points: 4
#     Node 6, Type 0, BuildingBlock: MUDLON_clean_sbu_0, # of connection points: 4
#     Node 7, Type 0, BuildingBlock: MUDLON_clean_sbu_0, # of connection points: 4
#     Node 8, Type 0, BuildingBlock: MUDLON_clean_sbu_0, # of connection points: 4
#     Node 9, Type 0, BuildingBlock: MUDLON_clean_sbu_0, # of connection points: 4
#     Node 10, Type 0, BuildingBlock: MUDLON_clean_sbu_0, # of connection points: 4
#     Node 11, Type 0, BuildingBlock: MUDLON_clean_sbu_0, # of connection points: 4
#     Node 12, Type 0, BuildingBlock: MUDLON_clean_sbu_0, # of connection points: 4
#     Node 13, Type 0, BuildingBlock: MUDLON_clean_sbu_0, # of connection points: 4
#     Node 14, Type 0, BuildingBlock: MUDLON_clean_sbu_0, # of connection points: 4
#     Node 15, Type 0, BuildingBlock: MUDLON_clean_sbu_0, # of connection points: 4
#     Node 16, Type 0, BuildingBlock: MUDLON_clean_sbu_0, # of connection points: 4
#     Node 17, Type 0, BuildingBlock: MUDLON_clean_sbu_0, # of connection points: 4
#     Node 18, Type 0, BuildingBlock: MUDLON_clean_sbu_0, # of connection points: 4
#     Node 19, Type 0, BuildingBlock: MUDLON_clean_sbu_0, # of connection points: 4
#     Node 20, Type 0, BuildingBlock: MUDLON_clean_sbu_0, # of connection points: 4
#     Node 21, Type 0, BuildingBlock: MUDLON_clean_sbu_0, # of connection points: 4
#     Node 22, Type 0, BuildingBlock: MUDLON_clean_sbu_0, # of connection points: 4
#     Node 23, Type 0, BuildingBlock: MUDLON_clean_sbu_0, # of connection points: 4
#     Edge 24, Type (0, 0), BuildingBlock: ZUJKAS_clean_linker_0, # of connection points: 2
#     Edge 25, Type (0, 0), BuildingBlock: ZUJKAS_clean_linker_0, # of connection points: 2
#     Edge 26, Type (0, 0), BuildingBlock: ZUJKAS_clean_linker_0, # of connection points: 2
#     Edge 27, Type (0, 0), BuildingBlock: ZUJKAS_clean_linker_0, # of connection points: 2
#     Edge 28, Type (0, 0), BuildingBlock: ZUJKAS_clean_linker_0, # of connection points: 2
#     Edge 29, Type (0, 0), BuildingBlock: ZUJKAS_clean_linker_0, # of connection points: 2
#     Edge 30, Type (0, 0), BuildingBlock: ZUJKAS_clean_linker_0, # of connection points: 2
#     Edge 31, Type (0, 0), BuildingBlock: ZUJKAS_clean_linker_0, # of connection points: 2
#     Edge 32, Type (0, 0), BuildingBlock: ZUJKAS_clean_linker_0, # of connection points: 2
#     Edge 33, Type (0, 0), BuildingBlock: ZUJKAS_clean_linker_0, # of connection points: 2
#     Edge 34, Type (0, 0), BuildingBlock: ZUJKAS_clean_linker_0, # of connection points: 2
#     Edge 35, Type (0, 0), BuildingBlock: ZUJKAS_clean_linker_0, # of connection points: 2
#     Edge 36, Type (0, 0), BuildingBlock: ZUJKAS_clean_linker_0, # of connection points: 2
#     Edge 37, Type (0, 0), BuildingBlock: ZUJKAS_clean_linker_0, # of connection points: 2
#     Edge 38, Type (0, 0), BuildingBlock: ZUJKAS_clean_linker_0, # of connection points: 2
#     Edge 39, Type (0, 0), BuildingBlock: ZUJKAS_clean_linker_0, # of connection points: 2
#     Edge 40, Type (0, 0), BuildingBlock: ZUJKAS_clean_linker_0, # of connection points: 2
#     Edge 41, Type (0, 0), BuildingBlock: ZUJKAS_clean_linker_0, # of connection points: 2
#     Edge 42, Type (0, 0), BuildingBlock: ZUJKAS_clean_linker_0, # of connection points: 2
#     Edge 43, Type (0, 0), BuildingBlock: ZUJKAS_clean_linker_0, # of connection points: 2
#     Edge 44, Type (0, 0), BuildingBlock: ZUJKAS_clean_linker_0, # of connection points: 2
#     Edge 45, Type (0, 0), BuildingBlock: ZUJKAS_clean_linker_0, # of connection points: 2
#     Edge 46, Type (0, 0), BuildingBlock: ZUJKAS_clean_linker_0, # of connection points: 2
#     Edge 47, Type (0, 0), BuildingBlock: ZUJKAS_clean_linker_0, # of connection points: 2
#     Edge 48, Type (0, 0), BuildingBlock: ZUJKAS_clean_linker_0, # of connection points: 2
#     Edge 49, Type (0, 0), BuildingBlock: ZUJKAS_clean_linker_0, # of connection points: 2
#     Edge 50, Type (0, 0), BuildingBlock: ZUJKAS_clean_linker_0, # of connection points: 2
#     Edge 51, Type (0, 0), BuildingBlock: ZUJKAS_clean_linker_0, # of connection points: 2
#     Edge 52, Type (0, 0), BuildingBlock: ZUJKAS_clean_linker_0, # of connection points: 2
#     Edge 53, Type (0, 0), BuildingBlock: ZUJKAS_clean_linker_0, # of connection points: 2
#     Edge 54, Type (0, 0), BuildingBlock: ZUJKAS_clean_linker_0, # of connection points: 2
#     Edge 55, Type (0, 0), BuildingBlock: ZUJKAS_clean_linker_0, # of connection points: 2
#     Edge 56, Type (0, 0), BuildingBlock: ZUJKAS_clean_linker_0, # of connection points: 2
#     Edge 57, Type (0, 0), BuildingBlock: ZUJKAS_clean_linker_0, # of connection points: 2
#     Edge 58, Type (0, 0), BuildingBlock: ZUJKAS_clean_linker_0, # of connection points: 2
#     Edge 59, Type (0, 0), BuildingBlock: ZUJKAS_clean_linker_0, # of connection points: 2
#     Edge 60, Type (0, 0), BuildingBlock: ZUJKAS_clean_linker_0, # of connection points: 2
#     Edge 61, Type (0, 0), BuildingBlock: ZUJKAS_clean_linker_0, # of connection points: 2
#     Edge 62, Type (0, 0), BuildingBlock: ZUJKAS_clean_linker_0, # of connection points: 2
#     Edge 63, Type (0, 0), BuildingBlock: ZUJKAS_clean_linker_0, # of connection points: 2
#     Edge 64, Type (0, 0), BuildingBlock: ZUJKAS_clean_linker_0, # of connection points: 2
#     Edge 65, Type (0, 0), BuildingBlock: ZUJKAS_clean_linker_0, # of connection points: 2
#     Edge 66, Type (0, 0), BuildingBlock: ZUJKAS_clean_linker_0, # of connection points: 2
#     Edge 67, Type (0, 0), BuildingBlock: ZUJKAS_clean_linker_0, # of connection points: 2
#     Edge 68, Type (0, 0), BuildingBlock: ZUJKAS_clean_linker_0, # of connection points: 2
#     Edge 69, Type (0, 0), BuildingBlock: ZUJKAS_clean_linker_0, # of connection points: 2
#     Edge 70, Type (0, 0), BuildingBlock: ZUJKAS_clean_linker_0, # of connection points: 2
#     Edge 71, Type (0, 0), BuildingBlock: ZUJKAS_clean_linker_0, # of connection points: 2
# Relax obj value: 0.065
# Max RMSD: 0.060
# Mean RMSD: 0.060
data_MOF--net-uks--node1-MUDLON_clean_sbu_0--edge1-ZUJKAS_clean_linker_0
_symmetry_space_group_name_H-M    P1
_symmetry_Int_Tables_number       1
_symmetry_cell_setting            triclinic
loop_
_symmetry_equiv_pos_as_xyz
'x, y, z'
_cell_length_a     72.114183
_cell_length_b     72.098744
_cell_length_c     72.298716
_cell_angle_alpha  89.784704
_cell_angle_beta   90.022895
_cell_angle_gamma 90.091789
loop_
_atom_site_label
_atom_site_type_symbol
_atom_site_fract_x
_atom_site_fract_y
_atom_site_fract_z
_atom_type_partial_charge
Mg0 Mg 0.14756 0.37946 0.70306 0.0
C1 C 0.18284 0.3562 0.70609 0.0
O2 O 0.17097 0.34339 0.71128 0.0
C3 C 0.11228 0.38459 0.68199 0.0
O4 O 0.11224 0.39888 0.69322 0.0
C5 C 0.15411 0.41703 0.68975 0.0
O6 O 0.15496 0.40599 0.67535 0.0
O7 O 0.15023 0.40982 0.70544 0.0
O8 O 0.17666 0.37139 0.69945 0.0
O9 O 0.13844 0.36116 0.72595 0.0
C10 C 0.13091 0.34629 0.71999 0.0
O11 O 0.12788 0.34489 0.70216 0.0
O12 O 0.12672 0.37443 0.68135 0.0
Mg13 Mg 0.63471 0.63391 0.22123 0.0
C14 C 0.65996 0.66756 0.22373 0.0
O15 O 0.67119 0.6553 0.23116 0.0
C16 C 0.63667 0.59659 0.20372 0.0
O17 O 0.62225 0.59504 0.21473 0.0
C18 C 0.59979 0.64474 0.20286 0.0
O19 O 0.613 0.64994 0.19143 0.0
O20 O 0.60448 0.63663 0.21787 0.0
O21 O 0.64496 0.66197 0.2163 0.0
O22 O 0.64622 0.6282 0.24887 0.0
C23 C 0.6612 0.61881 0.24913 0.0
O24 O 0.66662 0.6109 0.23374 0.0
O25 O 0.64481 0.61225 0.20257 0.0
Mg26 Mg 0.38847 0.14939 0.71337 0.0
C27 C 0.3913 0.18753 0.69539 0.0
O28 O 0.407 0.18057 0.68942 0.0
C29 C 0.38576 0.10949 0.70417 0.0
O30 O 0.39381 0.10983 0.72048 0.0
C31 C 0.42848 0.14523 0.70214 0.0
O32 O 0.42014 0.13479 0.68982 0.0
O33 O 0.41882 0.15216 0.71516 0.0
O34 O 0.37979 0.17681 0.70348 0.0
O35 O 0.37275 0.1454 0.73919 0.0
C36 C 0.36473 0.15916 0.74678 0.0
O37 O 0.36831 0.17592 0.74055 0.0
O38 O 0.38155 0.12493 0.69657 0.0
Mg39 Mg 0.87625 0.87557 0.19542 0.0
C40 C 0.83606 0.88514 0.1845 0.0
O41 O 0.84368 0.90091 0.17943 0.0
C42 C 0.9131 0.86295 0.1847 0.0
O43 O 0.91399 0.86749 0.20227 0.0
C44 C 0.87182 0.91587 0.20897 0.0
O45 O 0.8596 0.90834 0.22021 0.0
O46 O 0.88117 0.90542 0.19834 0.0
O47 O 0.84654 0.87179 0.18945 0.0
O48 O 0.88099 0.85813 0.21979 0.0
C49 C 0.86766 0.85058 0.22855 0.0
O50 O 0.85063 0.856 0.22504 0.0
O51 O 0.89766 0.8651 0.17632 0.0
Mg52 Mg 0.14676 0.13617 0.8283 0.0
C53 C 0.15087 0.16339 0.79603 0.0
O54 O 0.16848 0.15897 0.79749 0.0
C55 C 0.15056 0.09544 0.81347 0.0
O56 O 0.1599 0.10298 0.79977 0.0
C57 C 0.10951 0.14225 0.8413 0.0
O58 O 0.10856 0.13421 0.82504 0.0
O59 O 0.12556 0.14498 0.84824 0.0
O60 O 0.13892 0.15423 0.80527 0.0
O61 O 0.17622 0.14272 0.83305 0.0
C62 C 0.18839 0.12993 0.83354 0.0
O63 O 0.18285 0.1126 0.8345 0.0
O64 O 0.14343 0.1059 0.82571 0.0
Mg65 Mg 0.86781 0.64713 0.34247 0.0
C66 C 0.86472 0.66855 0.30636 0.0
O67 O 0.84739 0.66309 0.30771 0.0
C68 C 0.86926 0.60843 0.35745 0.0
O69 O 0.87071 0.61855 0.37247 0.0
C70 C 0.89417 0.67414 0.3606 0.0
O71 O 0.88591 0.68506 0.34859 0.0
O72 O 0.88807 0.65764 0.36266 0.0
O73 O 0.87662 0.66183 0.3175 0.0
O74 O 0.83833 0.6543 0.34492 0.0
C75 C 0.82632 0.64409 0.35292 0.0
O76 O 0.83195 0.63013 0.36319 0.0
O77 O 0.86876 0.61668 0.34184 0.0
Mg78 Mg 0.39187 0.38922 0.80044 0.0
C79 C 0.36018 0.36233 0.79631 0.0
O80 O 0.37372 0.35214 0.78974 0.0
C81 C 0.41833 0.36346 0.82308 0.0
O82 O 0.40682 0.3503 0.81796 0.0
C83 C 0.37761 0.42429 0.81674 0.0
O84 O 0.37092 0.41128 0.82764 0.0
O85 O 0.38778 0.41939 0.80318 0.0
O86 O 0.36424 0.37739 0.80455 0.0
O87 O 0.39707 0.37868 0.77254 0.0
C88 C 0.41075 0.36804 0.76931 0.0
O89 O 0.42439 0.36738 0.78134 0.0
O90 O 0.41479 0.3802 0.81859 0.0
Mg91 Mg 0.62902 0.8864 0.29986 0.0
C92 C 0.62868 0.84691 0.29486 0.0
O93 O 0.61515 0.85373 0.28475 0.0
C94 C 0.64164 0.92374 0.31173 0.0
O95 O 0.64155 0.92497 0.2936 0.0
C96 C 0.59307 0.87986 0.31704 0.0
O97 O 0.60582 0.87688 0.32971 0.0
O98 O 0.59844 0.88503 0.301 0.0
O99 O 0.63764 0.85792 0.30532 0.0
O100 O 0.64565 0.89089 0.27463 0.0
C101 C 0.6627 0.88907 0.27906 0.0
O102 O 0.66662 0.88589 0.29655 0.0
O103 O 0.63725 0.90832 0.31924 0.0
Mg104 Mg 0.70275 0.13765 0.39148 0.0
C105 C 0.71467 0.12935 0.35447 0.0
O106 O 0.69646 0.13001 0.35448 0.0
C107 C 0.71953 0.14949 0.4289 0.0
O108 O 0.7267 0.16302 0.41897 0.0
C109 C 0.69192 0.09926 0.38926 0.0
O110 O 0.70948 0.09983 0.39413 0.0
O111 O 0.68329 0.11459 0.38755 0.0
O112 O 0.72315 0.13217 0.3697 0.0
O113 O 0.69475 0.1663 0.38519 0.0
C114 C 0.69064 0.1782 0.3975 0.0
O115 O 0.687 0.17243 0.41438 0.0
O116 O 0.71077 0.13656 0.42071 0.0
Mg117 Mg 0.88539 0.19275 0.88396 0.0
C118 C 0.88969 0.20347 0.84594 0.0
O119 O 0.89572 0.21699 0.85652 0.0
C120 C 0.87838 0.17843 0.92075 0.0
O121 O 0.88498 0.19535 0.92239 0.0
C122 C 0.9251 0.18656 0.89617 0.0
O123 O 0.91695 0.1719 0.90332 0.0
O124 O 0.91513 0.19877 0.88815 0.0
O125 O 0.88343 0.18889 0.85385 0.0
O126 O 0.86445 0.21419 0.8893 0.0
C127 C 0.84844 0.20683 0.89107 0.0
O128 O 0.84691 0.18878 0.88927 0.0
O129 O 0.87724 0.17158 0.90453 0.0
Mg130 Mg 0.82102 0.37381 0.38023 0.0
C131 C 0.79068 0.34671 0.37133 0.0
O132 O 0.80184 0.34493 0.35711 0.0
C133 C 0.83607 0.41148 0.37824 0.0
O134 O 0.84936 0.40045 0.37251 0.0
C135 C 0.837 0.34586 0.40751 0.0
O136 O 0.82374 0.33572 0.40023 0.0
O137 O 0.83995 0.36203 0.40095 0.0
O138 O 0.79451 0.35889 0.3835 0.0
O139 O 0.82895 0.37147 0.35105 0.0
C140 C 0.81893 0.38205 0.34106 0.0
O141 O 0.80599 0.39189 0.34921 0.0
O142 O 0.821 0.40409 0.38389 0.0
Mg143 Mg 0.64457 0.32201 0.88706 0.0
C144 C 0.64343 0.32673 0.84471 0.0
O145 O 0.62657 0.33298 0.84753 0.0
C146 C 0.64813 0.34397 0.92167 0.0
O147 O 0.6336 0.33345 0.92502 0.0
C148 C 0.60403 0.31206 0.87687 0.0
O149 O 0.61222 0.29938 0.86675 0.0
O150 O 0.61396 0.32228 0.88729 0.0
O151 O 0.65399 0.32393 0.85852 0.0
O152 O 0.65945 0.2965 0.89423 0.0
C153 C 0.67069 0.29587 0.90782 0.0
O154 O 0.67 0.30894 0.92038 0.0
O155 O 0.6555 0.34325 0.90568 0.0
Mg156 Mg 0.74117 0.39379 0.13003 0.0
C157 C 0.76481 0.4044 0.16124 0.0
O158 O 0.74788 0.40794 0.16687 0.0
C159 C 0.73367 0.40511 0.08959 0.0
O160 O 0.72672 0.41995 0.09741 0.0
C161 C 0.72772 0.43184 0.13783 0.0
O162 O 0.74467 0.43433 0.13161 0.0
O163 O 0.7215 0.4153 0.13896 0.0
O164 O 0.76721 0.39896 0.14467 0.0
O165 O 0.73662 0.36511 0.13903 0.0
C166 C 0.73479 0.35242 0.12695 0.0
O167 O 0.73158 0.35726 0.10972 0.0
O168 O 0.74172 0.39301 0.09965 0.0
Mg169 Mg 0.64763 0.21943 0.64382 0.0
C170 C 0.67866 0.24457 0.64746 0.0
O171 O 0.68389 0.22857 0.65442 0.0
C172 C 0.60932 0.20374 0.64105 0.0
O173 O 0.61966 0.18949 0.63649 0.0
C174 C 0.66429 0.20968 0.60756 0.0
O175 O 0.66253 0.2278 0.60675 0.0
O176 O 0.65892 0.20128 0.62216 0.0
O177 O 0.66241 0.24592 0.64063 0.0
O178 O 0.65512 0.21334 0.67251 0.0
C179 C 0.64287 0.21437 0.68514 0.0
O180 O 0.6253 0.21406 0.68041 0.0
O181 O 0.61718 0.21938 0.64353 0.0
Mg182 Mg 0.81922 0.13197 0.14122 0.0
C183 C 0.81183 0.17036 0.13054 0.0
O184 O 0.80102 0.16017 0.12004 0.0
C185 C 0.84106 0.10769 0.16804 0.0
O186 O 0.83059 0.11647 0.17999 0.0
C187 C 0.83094 0.12485 0.10297 0.0
O188 O 0.84637 0.12639 0.11251 0.0
O189 O 0.81559 0.1255 0.11171 0.0
O190 O 0.82328 0.16217 0.14123 0.0
O191 O 0.79636 0.12762 0.16095 0.0
C192 C 0.79589 0.13956 0.17394 0.0
O193 O 0.80754 0.15354 0.17332 0.0
O194 O 0.8408 0.11288 0.15118 0.0
Mg195 Mg 0.89418 0.29866 0.63256 0.0
C196 C 0.85783 0.30865 0.65096 0.0
O197 O 0.8653 0.29876 0.66431 0.0
C198 C 0.92687 0.31717 0.65358 0.0
O199 O 0.91872 0.3101 0.66825 0.0
C200 C 0.8961 0.30814 0.59305 0.0
O201 O 0.90033 0.32356 0.60174 0.0
O202 O 0.89331 0.29355 0.60269 0.0
O203 O 0.86766 0.31264 0.63687 0.0
O204 O 0.89289 0.2744 0.65111 0.0
C205 C 0.90661 0.26708 0.65947 0.0
O206 O 0.92348 0.27246 0.65515 0.0
O207 O 0.91925 0.31523 0.63781 0.0
Mg208 Mg 0.37575 0.70313 0.13586 0.0
C209 C 0.35578 0.72564 0.1065 0.0
O210 O 0.35899 0.7108 0.09655 0.0
C211 C 0.41059 0.6884 0.15157 0.0
O212 O 0.39733 0.68089 0.16156 0.0
C213 C 0.37205 0.67255 0.10813 0.0
O214 O 0.38995 0.67591 0.10731 0.0
O215 O 0.36263 0.68035 0.1208 0.0
O216 O 0.3643 0.72749 0.12183 0.0
O217 O 0.36643 0.70892 0.16397 0.0
C218 C 0.3738 0.72403 0.16938 0.0
O219 O 0.38545 0.73247 0.15817 0.0
O220 O 0.40597 0.69917 0.1383 0.0
Mg221 Mg 0.36648 0.82951 0.38042 0.0
C222 C 0.37076 0.81664 0.34241 0.0
O223 O 0.38552 0.81074 0.35129 0.0
C224 C 0.33844 0.85115 0.40183 0.0
O225 O 0.32784 0.83858 0.394 0.0
C226 C 0.40286 0.84655 0.37233 0.0
O227 O 0.39052 0.85857 0.36639 0.0
O228 O 0.39702 0.83195 0.38051 0.0
O229 O 0.35909 0.82657 0.35115 0.0
O230 O 0.35214 0.80663 0.39462 0.0
C231 C 0.34186 0.79562 0.38541 0.0
O232 O 0.34405 0.79475 0.36741 0.0
O233 O 0.35523 0.85255 0.39651 0.0
Mg234 Mg 0.21106 0.87876 0.87734 0.0
C235 C 0.24426 0.8783 0.85166 0.0
O236 O 0.24365 0.86053 0.85568 0.0
C237 C 0.19606 0.88149 0.91524 0.0
O238 O 0.18138 0.87996 0.90456 0.0
C239 C 0.18987 0.90392 0.85115 0.0
O240 O 0.20191 0.89674 0.8396 0.0
O241 O 0.18885 0.89722 0.86747 0.0
O242 O 0.23426 0.88942 0.86096 0.0
O243 O 0.21017 0.84881 0.87114 0.0
C244 C 0.21096 0.83687 0.88419 0.0
O245 O 0.2094 0.84259 0.90134 0.0
O246 O 0.21197 0.88199 0.90757 0.0
Mg247 Mg 0.12426 0.7279 0.39294 0.0
C248 C 0.14309 0.73074 0.35538 0.0
O249 O 0.15708 0.7358 0.36587 0.0
C250 C 0.14913 0.70151 0.41588 0.0
O251 O 0.1626 0.70919 0.4063 0.0
C252 C 0.0856 0.71523 0.39811 0.0
O253 O 0.09564 0.70007 0.39907 0.0
O254 O 0.09397 0.73072 0.39612 0.0
O255 O 0.12832 0.72481 0.36307 0.0
O256 O 0.14308 0.75078 0.39989 0.0
C257 C 0.15165 0.75137 0.4153 0.0
O258 O 0.14565 0.74102 0.42904 0.0
O259 O 0.13242 0.7054 0.41174 0.0
Mg260 Mg 0.30626 0.64422 0.88279 0.0
C261 C 0.28573 0.65294 0.84936 0.0
O262 O 0.30305 0.65057 0.84427 0.0
C263 C 0.31924 0.6421 0.92137 0.0
O264 O 0.33364 0.63712 0.91143 0.0
C265 C 0.32742 0.61272 0.86355 0.0
O266 O 0.3357 0.62695 0.85569 0.0
O267 O 0.31473 0.61576 0.87544 0.0
O268 O 0.28176 0.65116 0.86643 0.0
O269 O 0.3282 0.66312 0.87411 0.0
C270 C 0.32788 0.67998 0.8687 0.0
O271 O 0.34349 0.68745 0.86294 0.0
O272 O 0.30424 0.64613 0.91297 0.0
Mg273 Mg 0.13722 0.81243 0.12987 0.0
C274 C 0.14263 0.79499 0.16605 0.0
O275 O 0.14198 0.7814 0.15402 0.0
C276 C 0.14039 0.83525 0.09648 0.0
O277 O 0.1284 0.82216 0.09235 0.0
C278 C 0.09807 0.82421 0.12529 0.0
O279 O 0.10747 0.83983 0.12547 0.0
O280 O 0.10706 0.80898 0.12607 0.0
O281 O 0.14105 0.8116 0.1601 0.0
O282 O 0.15782 0.79243 0.12001 0.0
C283 C 0.17355 0.79787 0.12605 0.0
O284 O 0.17402 0.81276 0.13647 0.0
O285 O 0.14641 0.83615 0.11304 0.0
Mg286 Mg 0.21109 0.64483 0.63964 0.0
C287 C 0.23462 0.67798 0.64564 0.0
O288 O 0.21891 0.68185 0.65394 0.0
C289 C 0.19749 0.60629 0.64151 0.0
O290 O 0.1826 0.61646 0.63897 0.0
C291 C 0.20486 0.65173 0.60013 0.0
O292 O 0.22258 0.6478 0.60165 0.0
O293 O 0.19504 0.65177 0.61479 0.0
O294 O 0.23634 0.66214 0.638 0.0
O295 O 0.19973 0.65141 0.66691 0.0
C296 C 0.20889 0.6427 0.67925 0.0
O297 O 0.22215 0.63148 0.67385 0.0
O298 O 0.21325 0.61436 0.6412 0.0
Mg299 Mg 0.31652 0.89324 0.63225 0.0
C300 C 0.32559 0.85204 0.62554 0.0
O301 O 0.32872 0.85798 0.60863 0.0
C302 C 0.33248 0.93064 0.6325 0.0
O303 O 0.31843 0.93136 0.62094 0.0
C304 C 0.30033 0.8866 0.59285 0.0
O305 O 0.28889 0.87522 0.60135 0.0
O306 O 0.3118 0.896 0.60238 0.0
O307 O 0.32244 0.86387 0.63821 0.0
O308 O 0.29417 0.90005 0.65143 0.0
C309 C 0.28564 0.88727 0.66017 0.0
O310 O 0.28741 0.87006 0.65455 0.0
O311 O 0.33663 0.91496 0.63962 0.0
H312 H 0.12175 0.1857 0.8051 0.0
H313 H 0.11625 0.21751 0.79493 0.0
H314 H 0.16264 0.21376 0.75744 0.0
H315 H 0.16891 0.18226 0.76851 0.0
H316 H 0.16472 0.24469 0.77433 0.0
H317 H 0.09198 0.23825 0.75096 0.0
H318 H 0.09442 0.23176 0.77477 0.0
H319 H 0.10572 0.21831 0.75708 0.0
C320 C 0.13055 0.19151 0.7944 0.0
C321 C 0.14567 0.18137 0.78746 0.0
C322 C 0.12735 0.20975 0.78853 0.0
C323 C 0.13879 0.2181 0.77513 0.0
C324 C 0.15357 0.20774 0.76778 0.0
H325 H 0.11561 0.31364 0.70952 0.0
H326 H 0.11719 0.28395 0.72509 0.0
C327 C 0.15707 0.18965 0.774 0.0
C328 C 0.13604 0.23787 0.76944 0.0
H329 H 0.10378 0.26888 0.75383 0.0
C330 C 0.15139 0.24993 0.76974 0.0
C331 C 0.11868 0.24484 0.76342 0.0
C332 C 0.10184 0.23256 0.76135 0.0
C333 C 0.15003 0.26849 0.7638 0.0
C334 C 0.13257 0.27557 0.75816 0.0
C335 C 0.11713 0.26362 0.75835 0.0
C336 C 0.1304 0.29446 0.74984 0.0
C337 C 0.16752 0.27998 0.7628 0.0
C338 C 0.13672 0.31067 0.7587 0.0
C339 C 0.1362 0.32792 0.74952 0.0
C340 C 0.12897 0.32925 0.73149 0.0
C341 C 0.12147 0.31321 0.72331 0.0
C342 C 0.1223 0.2961 0.73227 0.0
H343 H 0.18017 0.27119 0.7631 0.0
H344 H 0.16785 0.28855 0.75001 0.0
H345 H 0.16811 0.28938 0.7749 0.0
H346 H 0.14246 0.30996 0.77251 0.0
H347 H 0.14198 0.34 0.75626 0.0
H348 H 0.65794 0.63849 0.28175 0.0
H349 H 0.68226 0.6437 0.30496 0.0
H350 H 0.71927 0.60833 0.27429 0.0
H351 H 0.69502 0.60242 0.25179 0.0
H352 H 0.72382 0.60232 0.30933 0.0
H353 H 0.72482 0.67852 0.29781 0.0
H354 H 0.7031 0.6696 0.30606 0.0
H355 H 0.7114 0.66306 0.28355 0.0
C356 C 0.67116 0.63157 0.28017 0.0
C357 C 0.67452 0.62013 0.2648 0.0
C358 C 0.68516 0.63476 0.29332 0.0
C359 C 0.70286 0.62683 0.29117 0.0
C360 C 0.70584 0.61474 0.2763 0.0
H361 H 0.81154 0.66154 0.32263 0.0
H362 H 0.78024 0.65814 0.31031 0.0
C363 C 0.69188 0.61137 0.26336 0.0
C364 C 0.71861 0.6312 0.30387 0.0
H365 H 0.7463 0.66653 0.3192 0.0
C366 C 0.72864 0.61639 0.3116 0.0
C367 C 0.7251 0.64955 0.3067 0.0
C368 C 0.71568 0.6661 0.29798 0.0
C369 C 0.74527 0.61926 0.32136 0.0
C370 C 0.75173 0.63761 0.32428 0.0
C371 C 0.74133 0.65249 0.31713 0.0
C372 C 0.77004 0.64153 0.33318 0.0
C373 C 0.75623 0.60246 0.3274 0.0
C374 C 0.77467 0.63407 0.35057 0.0
C375 C 0.79277 0.63566 0.35748 0.0
C376 C 0.80648 0.64524 0.34741 0.0
C377 C 0.80139 0.65402 0.33076 0.0
C378 C 0.78342 0.65208 0.32367 0.0
H379 H 0.75198 0.58979 0.31978 0.0
H380 H 0.77132 0.60461 0.32522 0.0
H381 H 0.75378 0.59986 0.34233 0.0
H382 H 0.76447 0.62646 0.35855 0.0
H383 H 0.79617 0.62892 0.37046 0.0
H384 H 0.43653 0.342 0.75994 0.0
H385 H 0.43138 0.31355 0.74244 0.0
H386 H 0.37543 0.33077 0.73044 0.0
H387 H 0.38047 0.35939 0.74784 0.0
H388 H 0.40384 0.28808 0.75353 0.0
H389 H 0.39399 0.30988 0.68036 0.0
H390 H 0.40542 0.32439 0.69723 0.0
H391 H 0.38061 0.3223 0.69725 0.0
C392 C 0.42327 0.34002 0.75318 0.0
C393 C 0.40891 0.35301 0.75539 0.0
C394 C 0.42033 0.32369 0.74321 0.0
C395 C 0.40303 0.32001 0.7351 0.0
C396 C 0.38898 0.3334 0.73635 0.0
H397 H 0.36433 0.20718 0.71365 0.0
H398 H 0.36513 0.24013 0.72165 0.0
C399 C 0.3919 0.34979 0.74633 0.0
C400 C 0.39921 0.30136 0.72722 0.0
H401 H 0.38821 0.27823 0.68745 0.0
C402 C 0.4004 0.28594 0.73908 0.0
C403 C 0.39473 0.29858 0.70837 0.0
C404 C 0.39372 0.31461 0.69496 0.0
C405 C 0.39733 0.26785 0.73264 0.0
C406 C 0.39271 0.26505 0.71383 0.0
C407 C 0.39154 0.28044 0.70191 0.0
C408 C 0.39021 0.24605 0.7063 0.0
C409 C 0.39952 0.25181 0.74594 0.0
C410 C 0.4035 0.23865 0.69425 0.0
C411 C 0.40308 0.21982 0.68962 0.0
C412 C 0.38931 0.208 0.69691 0.0
C413 C 0.37519 0.2158 0.70784 0.0
C414 C 0.37566 0.23464 0.7125 0.0
H415 H 0.40655 0.25603 0.75894 0.0
H416 H 0.38563 0.24626 0.74957 0.0
H417 H 0.40761 0.24044 0.7395 0.0
H418 H 0.4148 0.24722 0.68925 0.0
H419 H 0.41412 0.21434 0.68109 0.0
H420 H 0.66139 0.89124 0.24066 0.0
H421 H 0.688 0.89145 0.21922 0.0
H422 H 0.72552 0.88878 0.26559 0.0
H423 H 0.69947 0.88882 0.28679 0.0
H424 H 0.73582 0.91515 0.23998 0.0
H425 H 0.72201 0.84723 0.20632 0.0
H426 H 0.70357 0.864 0.20581 0.0
H427 H 0.71068 0.85408 0.22748 0.0
C428 C 0.67533 0.89077 0.24623 0.0
C429 C 0.67822 0.88997 0.26547 0.0
C430 C 0.69052 0.89074 0.23397 0.0
C431 C 0.70882 0.88991 0.24078 0.0
C432 C 0.7116 0.88939 0.25995 0.0
H433 H 0.81641 0.85802 0.20282 0.0
H434 H 0.78431 0.85964 0.21363 0.0
C435 C 0.69658 0.88939 0.27209 0.0
C436 C 0.72536 0.88978 0.22838 0.0
H437 H 0.74945 0.86281 0.19783 0.0
C438 C 0.73868 0.90384 0.23056 0.0
C439 C 0.72923 0.87488 0.21628 0.0
C440 C 0.71574 0.85907 0.21383 0.0
C441 C 0.75592 0.90316 0.2215 0.0
C442 C 0.75989 0.88819 0.20949 0.0
C443 C 0.74638 0.87435 0.20691 0.0
C444 C 0.77848 0.88609 0.20064 0.0
C445 C 0.77007 0.91803 0.22568 0.0
C446 C 0.78575 0.90001 0.18906 0.0
C447 C 0.80418 0.89919 0.18298 0.0
C448 C 0.81572 0.8843 0.18812 0.0
C449 C 0.808 0.86972 0.19861 0.0
C450 C 0.7896 0.87063 0.20482 0.0
H451 H 0.76653 0.92589 0.23838 0.0
H452 H 0.7841 0.91194 0.22748 0.0
H453 H 0.77062 0.92801 0.21398 0.0
H454 H 0.77734 0.91185 0.18524 0.0
H455 H 0.80957 0.91059 0.17478 0.0
H456 H 0.77937 0.1075 0.18695 0.0
H457 H 0.76477 0.10289 0.21741 0.0
H458 H 0.77383 0.16057 0.23015 0.0
H459 H 0.78805 0.16531 0.19997 0.0
H460 H 0.7816 0.10953 0.25286 0.0
H461 H 0.71897 0.15285 0.2426 0.0
H462 H 0.73291 0.14472 0.22355 0.0
H463 H 0.74016 0.16456 0.23674 0.0
C464 C 0.77786 0.11925 0.1961 0.0
C465 C 0.78477 0.13679 0.19099 0.0
C466 C 0.76968 0.11657 0.21355 0.0
C467 C 0.7681 0.13143 0.226 0.0
C468 C 0.77464 0.14897 0.2207 0.0
H469 H 0.7512 0.13675 0.34544 0.0
H470 H 0.76518 0.13537 0.31441 0.0
C471 C 0.78282 0.15163 0.20341 0.0
C472 C 0.76022 0.12875 0.24481 0.0
H473 H 0.72646 0.14475 0.2737 0.0
C474 C 0.76943 0.11706 0.2574 0.0
C475 C 0.74433 0.13857 0.2507 0.0
C476 C 0.7334 0.15075 0.23765 0.0
C477 C 0.7634 0.11529 0.27586 0.0
C478 C 0.74788 0.12561 0.28187 0.0
C479 C 0.73847 0.13697 0.26915 0.0
C480 C 0.74058 0.12448 0.30108 0.0
C481 C 0.77354 0.10228 0.28871 0.0
C482 C 0.72224 0.1187 0.30393 0.0
C483 C 0.71427 0.11961 0.32147 0.0
C484 C 0.72441 0.12635 0.33666 0.0
C485 C 0.74307 0.13141 0.33403 0.0
C486 C 0.75107 0.13058 0.31633 0.0
H487 H 0.7824 0.09235 0.28102 0.0
H488 H 0.78258 0.11047 0.29805 0.0
H489 H 0.7636 0.09433 0.29741 0.0
H490 H 0.71389 0.11392 0.29243 0.0
H491 H 0.69991 0.11542 0.323 0.0
H492 H 0.8735 0.25384 0.67298 0.0
H493 H 0.86804 0.23803 0.7025 0.0
H494 H 0.9268 0.23809 0.71347 0.0
H495 H 0.93244 0.25351 0.68383 0.0
H496 H 0.90982 0.20541 0.72509 0.0
H497 H 0.87129 0.26696 0.75053 0.0
H498 H 0.86195 0.25664 0.72997 0.0
H499 H 0.88446 0.26738 0.72934 0.0
C500 C 0.88531 0.25024 0.68152 0.0
C501 C 0.90341 0.25514 0.67605 0.0
C502 C 0.88214 0.24129 0.69848 0.0
C503 C 0.89696 0.23721 0.71044 0.0
C504 C 0.91511 0.24116 0.70456 0.0
H505 H 0.90478 0.23234 0.82705 0.0
H506 H 0.90512 0.238 0.79395 0.0
C507 C 0.91831 0.25001 0.68756 0.0
C508 C 0.89362 0.23004 0.72955 0.0
H509 H 0.87437 0.24186 0.77107 0.0
C510 C 0.90191 0.21327 0.73511 0.0
C511 C 0.88343 0.24038 0.74271 0.0
C512 C 0.87489 0.25891 0.73796 0.0
C513 C 0.90061 0.2068 0.7535 0.0
C514 C 0.89059 0.21727 0.76665 0.0
C515 C 0.88191 0.23375 0.76095 0.0
C516 C 0.89071 0.21272 0.78679 0.0
C517 C 0.91064 0.18927 0.75894 0.0
C518 C 0.88255 0.19645 0.79396 0.0
C519 C 0.88233 0.19307 0.81317 0.0
C520 C 0.89021 0.20597 0.82548 0.0
C521 C 0.89849 0.22208 0.8181 0.0
C522 C 0.89871 0.22539 0.79909 0.0
H523 H 0.92009 0.18436 0.74786 0.0
H524 H 0.91884 0.19151 0.77174 0.0
H525 H 0.90034 0.17818 0.76181 0.0
H526 H 0.87606 0.18656 0.78476 0.0
H527 H 0.87579 0.18057 0.81837 0.0
H528 H 0.80298 0.40733 0.31829 0.0
H529 H 0.80419 0.40898 0.28476 0.0
H530 H 0.84087 0.36182 0.28363 0.0
H531 H 0.83959 0.35992 0.31766 0.0
H532 H 0.83477 0.41311 0.26018 0.0
H533 H 0.79677 0.34644 0.25012 0.0
H534 H 0.79726 0.35795 0.27223 0.0
H535 H 0.81754 0.34628 0.26392 0.0
C536 C 0.81139 0.39728 0.31102 0.0
C537 C 0.82105 0.38336 0.32068 0.0
C538 C 0.81213 0.39833 0.29179 0.0
C539 C 0.82247 0.38545 0.28166 0.0
C540 C 0.83262 0.37178 0.29119 0.0
H541 H 0.79477 0.38098 0.16292 0.0
H542 H 0.81487 0.37579 0.18997 0.0
C543 C 0.83194 0.37076 0.3106 0.0
C544 C 0.82161 0.38628 0.26114 0.0
H545 H 0.79968 0.36609 0.22448 0.0
C546 C 0.82751 0.40261 0.25225 0.0
C547 C 0.81225 0.37254 0.25077 0.0
C548 C 0.80547 0.35481 0.25964 0.0
C549 C 0.82314 0.40613 0.23363 0.0
C550 C 0.81241 0.3931 0.22372 0.0
C551 C 0.80789 0.37609 0.23212 0.0
C552 C 0.80303 0.39806 0.20608 0.0
C553 C 0.82934 0.42417 0.22499 0.0
C554 C 0.79 0.41249 0.20603 0.0
C555 C 0.77851 0.41535 0.19077 0.0
C556 C 0.77983 0.40391 0.17515 0.0
C557 C 0.79364 0.39017 0.17468 0.0
C558 C 0.80504 0.38713 0.19015 0.0
H559 H 0.84236 0.42925 0.23146 0.0
H560 H 0.83159 0.42267 0.20987 0.0
H561 H 0.8185 0.43484 0.22723 0.0
H562 H 0.78791 0.42086 0.21827 0.0
H563 H 0.76792 0.42597 0.19156 0.0
H564 H 0.67573 0.23025 0.69583 0.0
H565 H 0.68116 0.24855 0.72377 0.0
H566 H 0.62674 0.23397 0.74383 0.0
H567 H 0.62117 0.21568 0.71599 0.0
H568 H 0.65796 0.27929 0.73258 0.0
H569 H 0.66025 0.22798 0.78987 0.0
H570 H 0.6642 0.22171 0.76602 0.0
H571 H 0.64098 0.22499 0.7744 0.0
C572 C 0.66514 0.23043 0.70645 0.0
C573 C 0.64798 0.22151 0.70366 0.0
C574 C 0.66823 0.24102 0.72235 0.0
C575 C 0.65438 0.2426 0.73588 0.0
C576 C 0.63772 0.23276 0.73368 0.0
H577 H 0.62285 0.32645 0.81283 0.0
H578 H 0.62812 0.30736 0.78546 0.0
C579 C 0.63454 0.22232 0.71773 0.0
C580 C 0.6564 0.256 0.75127 0.0
H581 H 0.65497 0.25958 0.79831 0.0
C582 C 0.65757 0.27498 0.74697 0.0
C583 C 0.65598 0.25035 0.77 0.0
C584 C 0.65545 0.23014 0.77541 0.0
C585 C 0.65757 0.28851 0.76091 0.0
C586 C 0.65626 0.28289 0.77961 0.0
C587 C 0.65586 0.26388 0.78394 0.0
C588 C 0.65442 0.29643 0.79491 0.0
C589 C 0.6588 0.3087 0.75553 0.0
C590 C 0.66761 0.2969 0.80915 0.0
C591 C 0.66468 0.30786 0.82479 0.0
C592 C 0.64835 0.31839 0.82662 0.0
C593 C 0.6356 0.3186 0.81188 0.0
C594 C 0.6386 0.30769 0.79619 0.0
H595 H 0.66458 0.31052 0.74139 0.0
H596 H 0.6447 0.31483 0.75571 0.0
H597 H 0.66756 0.31652 0.76546 0.0
H598 H 0.67989 0.2883 0.80844 0.0
H599 H 0.6748 0.30732 0.83586 0.0
H600 H 0.33056 0.72097 0.07859 0.0
H601 H 0.29942 0.73415 0.07664 0.0
H602 H 0.31054 0.76751 0.12476 0.0
H603 H 0.34174 0.75449 0.12681 0.0
H604 H 0.27315 0.72975 0.10467 0.0
H605 H 0.2849 0.80425 0.0899 0.0
H606 H 0.30247 0.78685 0.08606 0.0
H607 H 0.29851 0.79578 0.10892 0.0
C608 C 0.32661 0.73149 0.08849 0.0
C609 C 0.3387 0.73661 0.10291 0.0
C610 C 0.30873 0.73894 0.08739 0.0
C611 C 0.30263 0.75185 0.10051 0.0
C612 C 0.31501 0.75777 0.1143 0.0
H613 H 0.20638 0.8021 0.14361 0.0
H614 H 0.23652 0.78982 0.13508 0.0
C615 C 0.33287 0.75028 0.11547 0.0
C616 C 0.28288 0.75777 0.10094 0.0
H617 H 0.25512 0.79604 0.10219 0.0
C618 C 0.26913 0.74422 0.10382 0.0
C619 C 0.27766 0.77662 0.09978 0.0
C620 C 0.29163 0.79171 0.09581 0.0
C621 C 0.25046 0.74912 0.10664 0.0
C622 C 0.24537 0.76805 0.10625 0.0
C623 C 0.25902 0.78152 0.10255 0.0
C624 C 0.22648 0.77444 0.11149 0.0
C625 C 0.23653 0.73409 0.11098 0.0
C626 C 0.21059 0.76965 0.10121 0.0
C627 C 0.19309 0.77662 0.10619 0.0
C628 C 0.1913 0.78862 0.12138 0.0
C629 C 0.20722 0.79301 0.13175 0.0
C630 C 0.22453 0.78602 0.12688 0.0
H631 H 0.24331 0.7206 0.11407 0.0
H632 H 0.22782 0.73805 0.12299 0.0
H633 H 0.22725 0.73214 0.09889 0.0
H634 H 0.21179 0.76092 0.08913 0.0
H635 H 0.18112 0.77311 0.09785 0.0
H636 H 0.32515 0.80546 0.41812 0.0
H637 H 0.29346 0.798 0.42789 0.0
H638 H 0.28705 0.76232 0.3806 0.0
H639 H 0.31861 0.76966 0.37076 0.0
H640 H 0.26188 0.80593 0.4063 0.0
H641 H 0.26539 0.73092 0.42282 0.0
H642 H 0.28579 0.74543 0.42147 0.0
H643 H 0.2752 0.73672 0.40071 0.0
C644 C 0.31721 0.7956 0.41008 0.0
C645 C 0.32448 0.78813 0.39364 0.0
C646 C 0.29902 0.79146 0.41562 0.0
C647 C 0.28787 0.77953 0.40503 0.0
C648 C 0.29544 0.77134 0.38916 0.0
H649 H 0.16998 0.77127 0.38845 0.0
H650 H 0.20285 0.77965 0.38789 0.0
C651 C 0.31352 0.77558 0.38353 0.0
C652 C 0.26788 0.77684 0.40954 0.0
H653 H 0.23512 0.74354 0.41782 0.0
C654 C 0.25606 0.79232 0.40905 0.0
C655 C 0.26027 0.75912 0.41325 0.0
C656 C 0.27233 0.74211 0.41478 0.0
C657 C 0.23678 0.79043 0.41146 0.0
C658 C 0.22907 0.77259 0.41429 0.0
C659 C 0.24098 0.75722 0.41549 0.0
C660 C 0.20868 0.7694 0.41545 0.0
C661 C 0.22482 0.80757 0.41092 0.0
C662 C 0.2009 0.76098 0.43118 0.0
C663 C 0.18206 0.75621 0.43158 0.0
C664 C 0.1706 0.75956 0.41614 0.0
C665 C 0.1783 0.76861 0.40065 0.0
C666 C 0.19714 0.77344 0.40031 0.0
H667 H 0.23302 0.8203 0.4138 0.0
H668 H 0.21865 0.80903 0.39693 0.0
H669 H 0.21334 0.80657 0.42111 0.0
H670 H 0.20952 0.75768 0.44301 0.0
H671 H 0.1767 0.74916 0.4437 0.0
H672 H 0.22704 0.82262 0.85283 0.0
H673 H 0.2418 0.7923 0.84943 0.0
H674 H 0.22344 0.77683 0.90412 0.0
H675 H 0.20918 0.8073 0.90782 0.0
H676 H 0.25903 0.77054 0.90076 0.0
H677 H 0.22465 0.74057 0.8394 0.0
H678 H 0.23409 0.76309 0.83457 0.0
H679 H 0.21562 0.76065 0.85118 0.0
C680 C 0.22575 0.81261 0.86397 0.0
C681 C 0.21692 0.81745 0.88062 0.0
C682 C 0.23415 0.79518 0.86197 0.0
C683 C 0.23363 0.78206 0.87644 0.0
C684 C 0.22407 0.78662 0.89273 0.0
H685 H 0.29816 0.67879 0.89269 0.0
H686 H 0.27271 0.7014 0.89473 0.0
C687 C 0.21586 0.80407 0.89481 0.0
C688 C 0.24457 0.76449 0.8754 0.0
H689 H 0.25383 0.72686 0.84819 0.0
C690 C 0.25762 0.76084 0.88941 0.0
C691 C 0.24284 0.75174 0.86062 0.0
C692 C 0.2284 0.7541 0.8457 0.0
C693 C 0.26942 0.74535 0.88867 0.0
C694 C 0.26811 0.73297 0.87359 0.0
C695 C 0.2548 0.73632 0.85978 0.0
C696 C 0.28168 0.71762 0.8711 0.0
C697 C 0.28381 0.74279 0.90363 0.0
C698 C 0.29472 0.71877 0.85676 0.0
C699 C 0.30917 0.70594 0.8556 0.0
C700 C 0.31081 0.69147 0.8686 0.0
C701 C 0.29716 0.68965 0.88237 0.0
C702 C 0.28272 0.70266 0.88363 0.0
H703 H 0.28493 0.75511 0.91275 0.0
H704 H 0.28001 0.73065 0.91232 0.0
H705 H 0.29763 0.74002 0.89745 0.0
H706 H 0.29421 0.73014 0.84692 0.0
H707 H 0.31942 0.70767 0.84478 0.0
H708 H 0.23814 0.70825 0.66755 0.0
H709 H 0.25901 0.73462 0.66373 0.0
H710 H 0.28464 0.70792 0.61704 0.0
H711 H 0.26359 0.68122 0.6208 0.0
H712 H 0.29929 0.7372 0.66257 0.0
H713 H 0.2651 0.75879 0.59685 0.0
H714 H 0.25445 0.74256 0.61269 0.0
H715 H 0.27339 0.73531 0.59837 0.0
C716 C 0.24833 0.70783 0.65655 0.0
C717 C 0.24909 0.69265 0.64438 0.0
C718 C 0.2603 0.72294 0.65444 0.0
C719 C 0.27324 0.72339 0.63998 0.0
C720 C 0.27461 0.70796 0.62819 0.0
H721 H 0.33215 0.82305 0.60205 0.0
H722 H 0.32246 0.79073 0.60573 0.0
C723 C 0.26267 0.69266 0.63041 0.0
C724 C 0.28445 0.74052 0.63694 0.0
H725 H 0.28807 0.77845 0.60869 0.0
C726 C 0.29702 0.74614 0.65068 0.0
C727 C 0.28148 0.75218 0.62145 0.0
C728 C 0.26781 0.74707 0.6065 0.0
C729 C 0.30651 0.76319 0.64946 0.0
C730 C 0.30297 0.77523 0.63433 0.0
C731 C 0.29082 0.76931 0.62031 0.0
C732 C 0.31091 0.79438 0.6331 0.0
C733 C 0.32029 0.76805 0.66438 0.0
C734 C 0.30796 0.80728 0.64734 0.0
C735 C 0.3137 0.82577 0.64536 0.0
C736 C 0.32225 0.83191 0.62893 0.0
C737 C 0.32566 0.81885 0.61491 0.0
C738 C 0.32005 0.80034 0.61697 0.0
H739 H 0.32609 0.75537 0.67097 0.0
H740 H 0.33191 0.77651 0.65883 0.0
H741 H 0.31317 0.77612 0.67532 0.0
H742 H 0.30053 0.80326 0.65974 0.0
H743 H 0.31065 0.83543 0.65638 0.0
H744 H 0.89964 0.83017 0.2313 0.0
H745 H 0.9031 0.79913 0.24476 0.0
H746 H 0.84634 0.80059 0.26331 0.0
H747 H 0.84269 0.83157 0.24989 0.0
H748 H 0.87386 0.78542 0.28975 0.0
H749 H 0.87627 0.75357 0.21975 0.0
H750 H 0.89203 0.77243 0.22417 0.0
H751 H 0.86753 0.7767 0.22358 0.0
C752 C 0.88798 0.82406 0.23854 0.0
C753 C 0.87083 0.83334 0.2394 0.0
C754 C 0.88996 0.80625 0.24611 0.0
C755 C 0.87489 0.79747 0.25476 0.0
C756 C 0.85811 0.8071 0.25659 0.0
H757 H 0.84301 0.68603 0.28067 0.0
H758 H 0.84774 0.71691 0.26735 0.0
C759 C 0.85606 0.82483 0.24893 0.0
C760 C 0.8762 0.7779 0.2611 0.0
H761 H 0.87809 0.7333 0.2453 0.0
C762 C 0.87498 0.77401 0.28008 0.0
C763 C 0.87746 0.76307 0.24839 0.0
C764 C 0.87828 0.76651 0.2278 0.0
C765 C 0.87484 0.75565 0.2867 0.0
C766 C 0.87601 0.74081 0.27398 0.0
C767 C 0.87737 0.74471 0.255 0.0
C768 C 0.87451 0.7212 0.28014 0.0
C769 C 0.87281 0.75221 0.3072 0.0
C770 C 0.88835 0.71307 0.29112 0.0
C771 C 0.88577 0.69532 0.29866 0.0
C772 C 0.86922 0.68545 0.29542 0.0
C773 C 0.85588 0.69324 0.2835 0.0
C774 C 0.85854 0.71092 0.27589 0.0
H775 H 0.86906 0.76502 0.31482 0.0
H776 H 0.86203 0.74151 0.30987 0.0
H777 H 0.88613 0.74696 0.31282 0.0
H778 H 0.90088 0.72069 0.29436 0.0
H779 H 0.89634 0.68977 0.30777 0.0
H780 H 0.1998 0.32667 0.7228 0.0
H781 H 0.23011 0.32618 0.73789 0.0
H782 H 0.24063 0.38199 0.71902 0.0
H783 H 0.21032 0.38261 0.70373 0.0
H784 H 0.27186 0.35799 0.71664 0.0
H785 H 0.23908 0.35545 0.7861 0.0
H786 H 0.23176 0.33746 0.77058 0.0
H787 H 0.22629 0.36122 0.7654 0.0
C788 C 0.20865 0.33876 0.72156 0.0
C789 C 0.2025 0.35475 0.71215 0.0
C790 C 0.22593 0.3385 0.73035 0.0
C791 C 0.23744 0.3542 0.72997 0.0
C792 C 0.23189 0.36977 0.71964 0.0
H793 H 0.32915 0.38357 0.80235 0.0
H794 H 0.2991 0.38087 0.78676 0.0
C795 C 0.21457 0.37007 0.71084 0.0
C796 C 0.25492 0.35463 0.74091 0.0
H797 H 0.27178 0.35252 0.7851 0.0
C798 C 0.27186 0.35677 0.7316 0.0
C799 C 0.25487 0.35333 0.76047 0.0
C800 C 0.23704 0.3519 0.7713 0.0
C801 C 0.28877 0.35735 0.74129 0.0
C802 C 0.28876 0.35553 0.76081 0.0
C803 C 0.27179 0.35369 0.77014 0.0
C804 C 0.30623 0.35598 0.77175 0.0
C805 C 0.30649 0.36028 0.73057 0.0
C806 C 0.31992 0.34244 0.76913 0.0
C807 C 0.33707 0.34388 0.77808 0.0
C808 C 0.34089 0.3589 0.78989 0.0
C809 C 0.32672 0.37184 0.79336 0.0
C810 C 0.30954 0.37035 0.7844 0.0
H811 H 0.3038 0.3658 0.71646 0.0
H812 H 0.31588 0.37001 0.73792 0.0
H813 H 0.31378 0.34681 0.72915 0.0
H814 H 0.31752 0.331 0.75976 0.0
H815 H 0.34759 0.33362 0.7751 0.0
H816 H 0.60898 0.81967 0.2782 0.0
H817 H 0.62027 0.78986 0.2672 0.0
H818 H 0.67362 0.80056 0.29187 0.0
H819 H 0.66239 0.83078 0.30299 0.0
H820 H 0.65518 0.78846 0.24289 0.0
H821 H 0.65644 0.74484 0.30674 0.0
H822 H 0.64076 0.76424 0.30457 0.0
H823 H 0.6651 0.76833 0.30735 0.0
C824 C 0.62304 0.81562 0.28159 0.0
C825 C 0.63482 0.82764 0.29141 0.0
C826 C 0.62947 0.79858 0.27524 0.0
C827 C 0.64777 0.79309 0.27863 0.0
C828 C 0.65941 0.80458 0.28919 0.0
H829 H 0.68772 0.68378 0.24389 0.0
H830 H 0.68844 0.71543 0.25591 0.0
C831 C 0.65295 0.82176 0.2956 0.0
C832 C 0.65468 0.77588 0.26994 0.0
H833 H 0.66198 0.7299 0.27843 0.0
C834 C 0.65697 0.77569 0.25067 0.0
C835 C 0.65712 0.75935 0.28015 0.0
C836 C 0.65474 0.75899 0.30087 0.0
C837 C 0.66095 0.75919 0.24122 0.0
C838 C 0.66225 0.74239 0.25129 0.0
C839 C 0.66091 0.74277 0.2707 0.0
C840 C 0.66335 0.72409 0.24196 0.0
C841 C 0.66349 0.75991 0.22052 0.0
C842 C 0.64923 0.71854 0.22978 0.0
C843 C 0.64881 0.70048 0.2228 0.0
C844 C 0.66242 0.68753 0.22801 0.0
C845 C 0.67704 0.69339 0.23953 0.0
C846 C 0.67744 0.71147 0.2465 0.0
H847 H 0.66846 0.77379 0.21595 0.0
H848 H 0.67349 0.74926 0.21576 0.0
H849 H 0.64995 0.75732 0.2137 0.0
H850 H 0.63799 0.72789 0.22636 0.0
H851 H 0.6373 0.69644 0.21406 0.0
H852 H 0.34364 0.18571 0.7635 0.0
H853 H 0.31563 0.18134 0.78198 0.0
H854 H 0.32221 0.12204 0.77862 0.0
H855 H 0.35037 0.12627 0.76006 0.0
H856 H 0.28397 0.16215 0.76889 0.0
H857 H 0.3105 0.13088 0.83401 0.0
H858 H 0.32525 0.14341 0.81808 0.0
H859 H 0.31831 0.12003 0.81307 0.0
C860 C 0.33938 0.17171 0.76693 0.0
C861 C 0.34931 0.15633 0.76022 0.0
C862 C 0.3233 0.16925 0.7775 0.0
C863 C 0.31684 0.15138 0.7818 0.0
C864 C 0.32707 0.13598 0.77573 0.0
H865 H 0.21687 0.10526 0.82954 0.0
H866 H 0.24815 0.11142 0.81819 0.0
C867 C 0.34316 0.13842 0.76506 0.0
C868 C 0.29863 0.14896 0.79125 0.0
H869 H 0.27782 0.13122 0.82997 0.0
C870 C 0.28263 0.15551 0.78231 0.0
C871 C 0.29688 0.14019 0.8087 0.0
C872 C 0.31363 0.13333 0.81916 0.0
C873 C 0.26491 0.15316 0.79009 0.0
C874 C 0.26311 0.14446 0.80762 0.0
C875 C 0.27916 0.13799 0.81662 0.0
C876 C 0.24462 0.14116 0.81634 0.0
C877 C 0.24824 0.15941 0.77909 0.0
C878 C 0.23232 0.15587 0.81978 0.0
C879 C 0.21427 0.15238 0.82618 0.0
C880 C 0.20823 0.1341 0.8295 0.0
C881 C 0.22096 0.11952 0.82709 0.0
C882 C 0.23892 0.12301 0.82058 0.0
H883 H 0.25157 0.16113 0.76417 0.0
H884 H 0.23663 0.14936 0.78041 0.0
H885 H 0.24347 0.17303 0.78436 0.0
H886 H 0.23652 0.17006 0.81711 0.0
H887 H 0.20491 0.16396 0.82798 0.0
H888 H 0.26514 0.86382 0.68183 0.0
H889 H 0.25751 0.86755 0.71455 0.0
H890 H 0.2816 0.9223 0.71391 0.0
H891 H 0.28925 0.91874 0.68111 0.0
H892 H 0.29591 0.89763 0.74188 0.0
H893 H 0.21901 0.90007 0.74223 0.0
H894 H 0.22866 0.88151 0.7288 0.0
H895 H 0.2326 0.90514 0.72183 0.0
C896 C 0.26842 0.87684 0.6885 0.0
C897 C 0.27783 0.89096 0.67881 0.0
C898 C 0.26402 0.87896 0.70722 0.0
C899 C 0.26894 0.89522 0.71666 0.0
C900 C 0.27764 0.90966 0.70687 0.0
H901 H 0.23855 0.91111 0.83308 0.0
H902 H 0.24605 0.91779 0.8007 0.0
C903 C 0.2819 0.90762 0.68808 0.0
C904 C 0.26646 0.89639 0.73703 0.0
H905 H 0.23382 0.89406 0.77119 0.0
C906 C 0.28232 0.89709 0.7483 0.0
C907 C 0.24875 0.89582 0.74539 0.0
C908 C 0.23124 0.89576 0.73397 0.0
C909 C 0.28095 0.89644 0.7677 0.0
C910 C 0.26327 0.89499 0.77603 0.0
C911 C 0.24738 0.89509 0.76478 0.0
C912 C 0.26095 0.89219 0.79627 0.0
C913 C 0.29843 0.89711 0.77913 0.0
C914 C 0.2672 0.87576 0.80466 0.0
C915 C 0.26287 0.87184 0.82313 0.0
C916 C 0.25219 0.88428 0.83362 0.0
C917 C 0.24686 0.90123 0.82547 0.0
C918 C 0.25104 0.90505 0.80692 0.0
H919 H 0.31023 0.90304 0.77119 0.0
H920 H 0.29634 0.90546 0.79184 0.0
H921 H 0.30222 0.88281 0.7834 0.0
H922 H 0.27467 0.86553 0.79666 0.0
H923 H 0.26716 0.85865 0.82892 0.0
H924 H 0.11377 0.73221 0.33122 0.0
H925 H 0.11394 0.74359 0.29933 0.0
H926 H 0.17327 0.75077 0.30203 0.0
H927 H 0.17311 0.73999 0.33414 0.0
H928 H 0.15758 0.78067 0.28737 0.0
H929 H 0.12888 0.71878 0.25236 0.0
H930 H 0.11392 0.72723 0.27023 0.0
H931 H 0.13645 0.71824 0.27613 0.0
C932 C 0.12691 0.73589 0.32494 0.0
C933 C 0.14345 0.73508 0.33525 0.0
C934 C 0.127 0.74238 0.30663 0.0
C935 C 0.14365 0.74787 0.29809 0.0
C936 C 0.16023 0.74664 0.30825 0.0
H937 H 0.15798 0.76397 0.1806 0.0
H938 H 0.15879 0.75406 0.21282 0.0
C939 C 0.16013 0.74036 0.3266 0.0
C940 C 0.14376 0.75559 0.27889 0.0
H941 H 0.13071 0.74641 0.23443 0.0
C942 C 0.15178 0.77313 0.27578 0.0
C943 C 0.13634 0.74575 0.26367 0.0
C944 C 0.12859 0.72639 0.2657 0.0
C945 C 0.15257 0.78107 0.25796 0.0
C946 C 0.14467 0.77144 0.24284 0.0
C947 C 0.13664 0.75392 0.24599 0.0
C948 C 0.14539 0.77865 0.22345 0.0
C949 C 0.16234 0.79942 0.25548 0.0
C950 C 0.1379 0.79603 0.21853 0.0
C951 C 0.13771 0.80192 0.19997 0.0
C952 C 0.14465 0.79036 0.18598 0.0
C953 C 0.15241 0.77318 0.19101 0.0
C954 C 0.15285 0.76746 0.20947 0.0
H955 H 0.17196 0.80235 0.26713 0.0
H956 H 0.17036 0.79977 0.24237 0.0
H957 H 0.15189 0.81069 0.25502 0.0
H958 H 0.13168 0.80479 0.22894 0.0
H959 H 0.13145 0.81513 0.19649 0.0
H960 H 0.24818 0.65927 0.85393 0.0
H961 H 0.22499 0.664 0.82936 0.0
H962 H 0.26807 0.65964 0.78823 0.0
H963 H 0.29105 0.65544 0.81234 0.0
H964 H 0.24391 0.68771 0.78043 0.0
H965 H 0.20567 0.62239 0.79665 0.0
H966 H 0.20755 0.63958 0.81451 0.0
H967 H 0.22789 0.62747 0.80692 0.0
C968 C 0.25265 0.65944 0.83963 0.0
C969 C 0.27144 0.65678 0.8351 0.0
C970 C 0.23939 0.66207 0.82562 0.0
C971 C 0.24475 0.66195 0.80691 0.0
C972 C 0.26356 0.65983 0.80253 0.0
H973 H 0.22113 0.621 0.70719 0.0
H974 H 0.22336 0.62868 0.73973 0.0
C975 C 0.27672 0.65733 0.8164 0.0
C976 C 0.23116 0.66307 0.79147 0.0
H977 H 0.20011 0.63622 0.76798 0.0
C978 C 0.23394 0.67673 0.77784 0.0
C979 C 0.21809 0.64879 0.78822 0.0
C980 C 0.21458 0.63363 0.80225 0.0
C981 C 0.22556 0.67544 0.76035 0.0
C982 C 0.21361 0.66031 0.75658 0.0
C983 C 0.2093 0.64777 0.77089 0.0
C984 C 0.209 0.65493 0.73726 0.0
C985 C 0.231 0.68927 0.74558 0.0
C986 C 0.1995 0.66677 0.72499 0.0
C987 C 0.19836 0.66244 0.70607 0.0
C988 C 0.20663 0.64617 0.69929 0.0
C989 C 0.21484 0.63377 0.71189 0.0
C990 C 0.21602 0.6381 0.7306 0.0
H991 H 0.24218 0.69879 0.75024 0.0
H992 H 0.23583 0.68199 0.73297 0.0
H993 H 0.21877 0.69779 0.74178 0.0
H994 H 0.19361 0.67966 0.72987 0.0
H995 H 0.19187 0.67221 0.69669 0.0
H996 H 0.39592 0.802 0.31888 0.0
H997 H 0.39021 0.78625 0.28971 0.0
H998 H 0.33188 0.79856 0.29404 0.0
H999 H 0.33756 0.81466 0.32349 0.0
H1000 H 0.36683 0.75502 0.28575 0.0
H1001 H 0.3455 0.81376 0.24026 0.0
H1002 H 0.35763 0.81738 0.2618 0.0
H1003 H 0.33358 0.81102 0.26197 0.0
C1004 C 0.38188 0.80162 0.31357 0.0
C1005 C 0.36718 0.80957 0.32353 0.0
C1006 C 0.37864 0.79254 0.29689 0.0
C1007 C 0.36064 0.79116 0.28971 0.0
C1008 C 0.34592 0.7996 0.29925 0.0
H1009 H 0.34871 0.71243 0.19595 0.0
H1010 H 0.34169 0.72774 0.2255 0.0
C1011 C 0.34918 0.80883 0.31604 0.0
C1012 C 0.35762 0.7802 0.27262 0.0
H1013 H 0.34863 0.78451 0.22643 0.0
C1014 C 0.36255 0.76136 0.27281 0.0
C1015 C 0.35207 0.78855 0.25579 0.0
C1016 C 0.34697 0.80881 0.25476 0.0
C1017 C 0.363 0.75086 0.25648 0.0
C1018 C 0.3581 0.75938 0.23952 0.0
C1019 C 0.35229 0.77799 0.23947 0.0
C1020 C 0.36138 0.75011 0.22149 0.0
C1021 C 0.36981 0.73109 0.25735 0.0
C1022 C 0.37453 0.7577 0.20937 0.0
C1023 C 0.37849 0.74908 0.19261 0.0
C1024 C 0.36938 0.73261 0.18748 0.0
C1025 C 0.35606 0.72501 0.19956 0.0
C1026 C 0.35206 0.73373 0.21644 0.0
H1027 H 0.37583 0.72757 0.27106 0.0
H1028 H 0.35805 0.72153 0.2547 0.0
H1029 H 0.38049 0.72864 0.24657 0.0
H1030 H 0.38195 0.77025 0.21299 0.0
H1031 H 0.38881 0.75539 0.1837 0.0
H1032 H 0.69448 0.28708 0.93593 0.0
H1033 H 0.7247 0.27195 0.93342 0.0
H1034 H 0.71553 0.26352 0.87509 0.0
H1035 H 0.68499 0.27793 0.87767 0.0
H1036 H 0.73218 0.23463 0.88897 0.0
H1037 H 0.76985 0.29683 0.91326 0.0
H1038 H 0.75361 0.28857 0.93016 0.0
H1039 H 0.74537 0.29714 0.9082 0.0
C1040 C 0.69877 0.28171 0.92263 0.0
C1041 C 0.68733 0.2838 0.907 0.0
C1042 C 0.71618 0.27329 0.92116 0.0
C1043 C 0.72275 0.26717 0.90393 0.0
C1044 C 0.71092 0.26832 0.88851 0.0
H1045 H 0.84009 0.24266 0.88039 0.0
H1046 H 0.80974 0.25808 0.88304 0.0
C1047 C 0.69337 0.27648 0.89003 0.0
C1048 C 0.74192 0.25966 0.90194 0.0
H1049 H 0.7876 0.26898 0.91094 0.0
C1050 C 0.74428 0.24222 0.8937 0.0
C1051 C 0.75786 0.2697 0.90764 0.0
C1052 C 0.75659 0.28918 0.91511 0.0
C1053 C 0.76194 0.23434 0.89149 0.0
C1054 C 0.77776 0.24385 0.89828 0.0
C1055 C 0.7755 0.26154 0.90601 0.0
C1056 C 0.79662 0.2354 0.89784 0.0
C1057 C 0.76345 0.21602 0.88156 0.0
C1058 C 0.79959 0.21795 0.90594 0.0
C1059 C 0.8167 0.20913 0.90423 0.0
C1060 C 0.83145 0.21772 0.89479 0.0
C1061 C 0.82896 0.23573 0.88774 0.0
C1062 C 0.81162 0.24449 0.8892 0.0
H1063 H 0.75155 0.21382 0.87205 0.0
H1064 H 0.77648 0.21513 0.87344 0.0
H1065 H 0.7633 0.20458 0.89187 0.0
H1066 H 0.78852 0.21093 0.91328 0.0
H1067 H 0.81829 0.19536 0.91007 0.0
H1068 H 0.83261 0.29877 0.67739 0.0
H1069 H 0.79899 0.29735 0.67421 0.0
H1070 H 0.8028 0.32317 0.62046 0.0
H1071 H 0.83664 0.32426 0.62333 0.0
H1072 H 0.77043 0.32235 0.66783 0.0
H1073 H 0.77829 0.27375 0.60862 0.0
H1074 H 0.79761 0.28031 0.62302 0.0
H1075 H 0.78882 0.29618 0.60594 0.0
C1076 C 0.82634 0.30444 0.66499 0.0
C1077 C 0.83741 0.31136 0.65049 0.0
C1078 C 0.80706 0.30363 0.6632 0.0
C1079 C 0.79837 0.30974 0.64691 0.0
C1080 C 0.80922 0.31796 0.63297 0.0
H1081 H 0.68505 0.27093 0.62051 0.0
H1082 H 0.71195 0.29206 0.61886 0.0
C1083 C 0.82858 0.3187 0.63471 0.0
C1084 C 0.77824 0.30602 0.6442 0.0
H1085 H 0.74837 0.27833 0.62004 0.0
C1086 C 0.76555 0.31298 0.65717 0.0
C1087 C 0.7718 0.29385 0.63023 0.0
C1088 C 0.7848 0.28544 0.61621 0.0
C1089 C 0.74686 0.30741 0.65709 0.0
C1090 C 0.74072 0.29437 0.64385 0.0
C1091 C 0.75308 0.28838 0.63014 0.0
C1092 C 0.72274 0.28443 0.64579 0.0
C1093 C 0.73397 0.31507 0.67159 0.0
C1094 C 0.71976 0.27338 0.66151 0.0
C1095 C 0.70466 0.26131 0.66236 0.0
C1096 C 0.69211 0.26005 0.64755 0.0
C1097 C 0.69441 0.27183 0.6322 0.0
C1098 C 0.70979 0.28381 0.63123 0.0
H1099 H 0.73848 0.32908 0.67611 0.0
H1100 H 0.7195 0.31592 0.66639 0.0
H1101 H 0.73417 0.30582 0.68389 0.0
H1102 H 0.72972 0.27327 0.67273 0.0
H1103 H 0.70324 0.25234 0.67434 0.0
H1104 H 0.73238 0.3223 0.10435 0.0
H1105 H 0.74716 0.29214 0.10857 0.0
H1106 H 0.76604 0.30858 0.16266 0.0
H1107 H 0.75114 0.33886 0.15863 0.0
H1108 H 0.7859 0.28858 0.11415 0.0
H1109 H 0.74591 0.25548 0.17125 0.0
H1110 H 0.73684 0.27461 0.15784 0.0
H1111 H 0.75412 0.27869 0.17523 0.0
C1112 C 0.73931 0.31941 0.11734 0.0
C1113 C 0.74059 0.33307 0.13113 0.0
C1114 C 0.74782 0.30215 0.11969 0.0
C1115 C 0.75772 0.29808 0.13592 0.0
C1116 C 0.75829 0.31131 0.15012 0.0
H1117 H 0.81961 0.1946 0.15893 0.0
H1118 H 0.80909 0.22698 0.16153 0.0
C1119 C 0.74975 0.32863 0.14778 0.0
C1120 C 0.76861 0.28061 0.13713 0.0
H1121 H 0.7714 0.23883 0.15946 0.0
C1122 C 0.78279 0.27775 0.12413 0.0
C1123 C 0.76474 0.26659 0.15032 0.0
C1124 C 0.74951 0.26883 0.16441 0.0
C1125 C 0.79286 0.2611 0.12365 0.0
C1126 C 0.78844 0.24674 0.13629 0.0
C1127 C 0.77479 0.24985 0.14979 0.0
C1128 C 0.7964 0.22782 0.13441 0.0
C1129 C 0.80803 0.25897 0.10945 0.0
C1130 C 0.79294 0.21764 0.11828 0.0
C1131 C 0.79888 0.1993 0.11678 0.0
C1132 C 0.80844 0.19063 0.13138 0.0
C1133 C 0.81249 0.20098 0.14735 0.0
C1134 C 0.80636 0.2194 0.14891 0.0
H1135 H 0.81365 0.27266 0.10508 0.0
H1136 H 0.81958 0.25036 0.11488 0.0
H1137 H 0.80228 0.25207 0.09701 0.0
H1138 H 0.78502 0.22368 0.10704 0.0
H1139 H 0.79547 0.19171 0.10433 0.0
H1140 H 0.77666 0.32309 0.34564 0.0
H1141 H 0.75531 0.2973 0.35048 0.0
H1142 H 0.74939 0.31258 0.40777 0.0
H1143 H 0.77078 0.33872 0.40298 0.0
H1144 H 0.76306 0.26862 0.37514 0.0
H1145 H 0.69547 0.30148 0.39184 0.0
H1146 H 0.71408 0.31396 0.38058 0.0
H1147 H 0.71507 0.30947 0.405 0.0
C1148 C 0.77059 0.32123 0.35923 0.0
C1149 C 0.77552 0.33296 0.37395 0.0
C1150 C 0.75835 0.30644 0.36196 0.0
C1151 C 0.75066 0.303 0.37945 0.0
C1152 C 0.7549 0.31512 0.39406 0.0
H1153 H 0.69149 0.20659 0.42265 0.0
H1154 H 0.70448 0.23765 0.41811 0.0
C1155 C 0.76718 0.33004 0.39132 0.0
C1156 C 0.73979 0.28568 0.38258 0.0
H1157 H 0.6971 0.26871 0.39458 0.0
C1158 C 0.74862 0.26867 0.37933 0.0
C1159 C 0.721 0.28573 0.38821 0.0
C1160 C 0.71073 0.30361 0.3915 0.0
C1161 C 0.73925 0.25173 0.38156 0.0
C1162 C 0.72034 0.25173 0.38681 0.0
C1163 C 0.71153 0.26873 0.39037 0.0
C1164 C 0.70977 0.23409 0.3889 0.0
C1165 C 0.74984 0.23393 0.37861 0.0
C1166 C 0.70759 0.22206 0.37381 0.0
C1167 C 0.70022 0.20426 0.37635 0.0
C1168 C 0.69471 0.19815 0.39403 0.0
C1169 C 0.69561 0.21077 0.40885 0.0
C1170 C 0.70307 0.22856 0.40629 0.0
H1171 H 0.76507 0.23616 0.37934 0.0
H1172 H 0.74591 0.22331 0.38906 0.0
H1173 H 0.74654 0.22838 0.3647 0.0
H1174 H 0.71231 0.22617 0.36018 0.0
H1175 H 0.69962 0.195 0.3646 0.0
H1176 H 0.16653 0.58497 0.63801 0.0
H1177 H 0.16139 0.5534 0.64901 0.0
H1178 H 0.2179 0.55076 0.66832 0.0
H1179 H 0.22329 0.58252 0.65695 0.0
H1180 H 0.20759 0.51874 0.65157 0.0
H1181 H 0.15354 0.5379 0.70208 0.0
H1182 H 0.14785 0.54592 0.67928 0.0
H1183 H 0.16806 0.55495 0.69083 0.0
C1184 C 0.17795 0.57771 0.64453 0.0
C1185 C 0.19532 0.58638 0.64667 0.0
C1186 C 0.17491 0.55966 0.65099 0.0
C1187 C 0.18906 0.54982 0.66003 0.0
C1188 C 0.20666 0.55813 0.66161 0.0
H1189 H 0.16151 0.44366 0.71633 0.0
H1190 H 0.17142 0.47596 0.71097 0.0
C1191 C 0.20977 0.57626 0.65502 0.0
C1192 C 0.18539 0.53075 0.66737 0.0
H1193 H 0.15484 0.50563 0.69372 0.0
C1194 C 0.1962 0.51593 0.66097 0.0
C1195 C 0.17079 0.52699 0.68 0.0
C1196 C 0.15953 0.54232 0.68861 0.0
C1197 C 0.1922 0.49747 0.66601 0.0
C1198 C 0.1767 0.4936 0.67747 0.0
C1199 C 0.16652 0.50849 0.6847 0.0
C1200 C 0.17022 0.47423 0.6811 0.0
C1201 C 0.20463 0.48227 0.6589 0.0
C1202 C 0.16564 0.46269 0.6662 0.0
C1203 C 0.16004 0.44437 0.66922 0.0
C1204 C 0.15861 0.43706 0.68725 0.0
C1205 C 0.16248 0.44882 0.70228 0.0
C1206 C 0.16821 0.46726 0.69922 0.0
H1207 H 0.21879 0.48757 0.6559 0.0
H1208 H 0.20572 0.47067 0.66899 0.0
H1209 H 0.19882 0.47676 0.64581 0.0
H1210 H 0.16646 0.46784 0.65213 0.0
H1211 H 0.15695 0.43587 0.65728 0.0
H1212 H 0.42348 0.66785 0.18051 0.0
H1213 H 0.45546 0.66105 0.1889 0.0
H1214 H 0.47469 0.69239 0.14174 0.0
H1215 H 0.44246 0.69964 0.13338 0.0
H1216 H 0.48198 0.64242 0.17038 0.0
H1217 H 0.50564 0.71455 0.18291 0.0
H1218 H 0.48147 0.70861 0.18026 0.0
H1219 H 0.49614 0.71088 0.16026 0.0
C1220 C 0.43445 0.67341 0.17189 0.0
C1221 C 0.43032 0.68439 0.15626 0.0
C1222 C 0.4528 0.66946 0.17673 0.0
C1223 C 0.46759 0.67638 0.16615 0.0
C1224 C 0.46357 0.6872 0.1504 0.0
H1225 H 0.58693 0.66347 0.17268 0.0
H1226 H 0.55497 0.67058 0.16436 0.0
C1227 C 0.44512 0.69125 0.14555 0.0
C1228 C 0.48707 0.67183 0.17158 0.0
H1229 H 0.52862 0.69109 0.18398 0.0
C1230 C 0.49215 0.65308 0.17341 0.0
C1231 C 0.50038 0.6857 0.17562 0.0
C1232 C 0.49564 0.70606 0.17485 0.0
C1233 C 0.51015 0.64785 0.17885 0.0
C1234 C 0.52346 0.66171 0.18284 0.0
C1235 C 0.51842 0.68045 0.18098 0.0
C1236 C 0.54289 0.6571 0.18825 0.0
C1237 C 0.51491 0.6275 0.17987 0.0
C1238 C 0.54688 0.64722 0.20461 0.0
C1239 C 0.56531 0.64309 0.20948 0.0
C1240 C 0.58009 0.6488 0.19809 0.0
C1241 C 0.57597 0.65876 0.1818 0.0
C1242 C 0.55764 0.66291 0.177 0.0
H1243 H 0.5046 0.61882 0.17243 0.0
H1244 H 0.52885 0.62488 0.17392 0.0
H1245 H 0.51511 0.62302 0.19457 0.0
H1246 H 0.53576 0.64284 0.21369 0.0
H1247 H 0.56796 0.63548 0.22215 0.0
H1248 H 0.32937 0.96445 0.61601 0.0
H1249 H 0.34061 0.99429 0.62709 0.0
H1250 H 0.36658 0.96721 0.67361 0.0
H1251 H 0.3555 0.93702 0.66239 0.0
H1252 H 0.3312 1.01037 0.65991 0.0
H1253 H 0.40758 1.00203 0.6558 0.0
H1254 H 0.39168 0.98655 0.64422 0.0
H1255 H 0.39588 0.98411 0.66862 0.0
C1256 C 0.33771 0.96472 0.62847 0.0
C1257 C 0.34151 0.94827 0.63831 0.0
C1258 C 0.34411 0.98187 0.63481 0.0
C1259 C 0.35454 0.98309 0.65114 0.0
C1260 C 0.35884 0.96664 0.66079 0.0
H1261 H 0.39391 0.075 0.71746 0.0
H1262 H 0.38639 0.04497 0.704 0.0
C1263 C 0.35247 0.94937 0.65439 0.0
C1264 C 0.35972 1.00171 0.65851 0.0
H1265 H 0.39648 0.02905 0.67082 0.0
C1266 C 0.34549 0.01447 0.6622 0.0
C1267 C 0.37835 1.0071 0.66155 0.0
C1268 C 0.39429 0.99432 0.6572 0.0
C1269 C 0.34932 0.0323 0.6691 0.0
C1270 C 0.36795 0.03772 0.6721 0.0
C1271 C 0.3822 0.02495 0.66844 0.0
C1272 C 0.37288 0.05628 0.67977 0.0
C1273 C 0.33332 0.04496 0.67361 0.0
C1274 C 0.36804 0.0728 0.67053 0.0
C1275 C 0.3723 0.09015 0.67825 0.0
C1276 C 0.38156 0.09131 0.69534 0.0
C1277 C 0.38669 0.07472 0.70432 0.0
C1278 C 0.38245 0.05746 0.69662 0.0
H1279 H 0.32004 0.03721 0.67486 0.0
H1280 H 0.33586 0.05251 0.68673 0.0
H1281 H 0.33172 0.05535 0.66236 0.0
H1282 H 0.36096 0.07228 0.65733 0.0
H1283 H 0.36824 0.10262 0.6709 0.0
H1284 H 0.0759 0.85276 0.11474 0.0
H1285 H 0.04288 0.85675 0.12085 0.0
H1286 H 0.04041 0.80194 0.14474 0.0
H1287 H 0.07364 0.79767 0.13829 0.0
H1288 H 1.00783 0.81211 0.12355 0.0
H1289 H 0.02733 0.86601 0.17463 0.0
H1290 H 0.03612 0.87025 0.15178 0.0
H1291 H 0.04407 0.85041 0.16467 0.0
C1292 C 0.06831 0.84139 0.12103 0.0
C1293 C 0.07748 0.82497 0.12623 0.0
C1294 C 0.04941 0.84373 0.12455 0.0
C1295 C 0.03922 0.82983 0.13363 0.0
C1296 C 0.04801 0.81291 0.1378 0.0
H1297 H 0.94364 0.84907 0.20155 0.0
H1298 H 0.97288 0.83974 0.18777 0.0
C1299 C 0.067 0.81047 0.1341 0.0
C1300 C 0.01998 0.8337 0.14011 0.0
H1301 H 0.9954 0.86246 0.16841 0.0
C1302 C 1.00507 0.8231 0.13337 0.0
C1303 C 0.01638 0.84793 0.15307 0.0
C1304 C 0.03181 0.85921 0.16162 0.0
C1305 C 0.98669 0.82646 0.13916 0.0
C1306 C 0.98311 0.84094 0.15186 0.0
C1307 C 0.99806 0.85147 0.15856 0.0
C1308 C 0.96428 0.84479 0.15954 0.0
C1309 C 0.97132 0.81422 0.13203 0.0
C1310 C 0.94938 0.85049 0.14827 0.0
C1311 C 0.93236 0.8558 0.1562 0.0
C1312 C 0.93009 0.85572 0.17553 0.0
C1313 C 0.94489 0.84951 0.18662 0.0
C1314 C 0.96169 0.84411 0.17875 0.0
H1315 H 0.97677 0.80133 0.12568 0.0
H1316 H 0.96162 0.8104 0.14334 0.0
H1317 H 0.96335 0.82189 0.12133 0.0
H1318 H 0.9511 0.85144 0.13342 0.0
H1319 H 0.92128 0.86058 0.14728 0.0
H1320 H 0.19235 0.92341 0.81873 0.0
H1321 H 0.18172 0.95493 0.8125 0.0
H1322 H 0.1559 0.95682 0.86623 0.0
H1323 H 0.16691 0.92532 0.8728 0.0
H1324 H 0.14812 0.97227 0.81103 0.0
H1325 H 0.19023 1.00125 0.86842 0.0
H1326 H 0.19272 0.97764 0.86067 0.0
H1327 H 0.17376 0.98395 0.87551 0.0
C1328 C 0.18422 0.93039 0.82919 0.0
C1329 C 0.18067 0.92182 0.84637 0.0
C1330 C 0.17815 0.94848 0.82558 0.0
C1331 C 0.16838 0.95849 0.83904 0.0
C1332 C 0.16384 0.9496 0.85579 0.0
H1333 H 0.13595 0.07546 0.8424 0.0
H1334 H 0.13844 0.04209 0.84816 0.0
C1335 C 0.16999 0.93148 0.85947 0.0
C1336 C 0.16369 0.97841 0.83569 0.0
H1337 H 0.17152 0.02229 0.8518 0.0
C1338 C 0.1532 0.9832 0.81999 0.0
C1339 C 0.17037 0.99275 0.84729 0.0
C1340 C 0.18254 0.98872 0.86382 0.0
C1341 C 0.14917 1.00183 0.81564 0.0
C1342 C 0.15599 0.01613 0.82716 0.0
C1343 C 0.16623 1.01134 0.843 0.0
C1344 C 0.1532 0.03619 0.82283 0.0
C1345 C 0.13749 1.00603 0.79883 0.0
C1346 C 0.16059 0.04406 0.80661 0.0
C1347 C 0.15921 0.06319 0.80327 0.0
C1348 C 0.15046 0.07491 0.81611 0.0
C1349 C 0.14273 0.0669 0.83216 0.0
C1350 C 0.14417 0.0478 0.83551 0.0
H1351 H 0.12926 0.99377 0.79446 0.0
H1352 H 0.12788 0.01774 0.80152 0.0
H1353 H 0.14671 1.01003 0.78719 0.0
H1354 H 0.16792 0.03549 0.79677 0.0
H1355 H 0.16542 0.06883 0.79082 0.0
H1356 H 0.91086 0.70817 0.35825 0.0
H1357 H 0.94239 0.71654 0.36742 0.0
H1358 H 0.9502 0.66193 0.39058 0.0
H1359 H 0.91866 0.65332 0.38124 0.0
H1360 H 0.96193 0.71685 0.4013 0.0
H1361 H 0.99185 0.66615 0.35205 0.0
H1362 H 0.96772 0.67273 0.35155 0.0
H1363 H 0.97588 0.6563 0.36844 0.0
C1364 C 0.91915 0.69797 0.36551 0.0
C1365 C 0.91221 0.67998 0.36884 0.0
C1366 C 0.93722 0.70281 0.37075 0.0
C1367 C 0.94883 0.68978 0.37936 0.0
C1368 C 0.94163 0.67213 0.38362 0.0
H1369 H 0.06506 0.68503 0.4076 0.0
H1370 H 0.0318 0.68034 0.40416 0.0
C1371 C 0.92352 0.66726 0.3784 0.0
C1372 C 0.96869 0.69438 0.38299 0.0
H1373 H 0.01289 0.68172 0.37165 0.0
C1374 C 0.97309 0.70919 0.39481 0.0
C1375 C 0.98327 0.68453 0.37437 0.0
C1376 C 0.97952 0.66915 0.36076 0.0
C1377 C 0.99165 0.71404 0.39865 0.0
C1378 C 1.00622 0.70403 0.39019 0.0
C1379 C 1.00177 0.68937 0.37822 0.0
C1380 C 0.02623 0.70797 0.39387 0.0
C1381 C 0.9955 0.72951 0.41211 0.0
C1382 C 0.03432 0.72524 0.38951 0.0
C1383 C 0.05352 0.72804 0.39157 0.0
C1384 C 0.065 0.71355 0.39784 0.0
C1385 C 0.05672 0.6965 0.40264 0.0
C1386 C 0.03764 0.69376 0.40067 0.0
H1387 H 0.98318 0.73268 0.42076 0.0
H1388 H 1.00729 0.72595 0.42134 0.0
H1389 H 0.99924 0.74225 0.40428 0.0
H1390 H 0.0259 0.73634 0.38391 0.0
H1391 H 0.05945 0.74128 0.38761 0.0
H1392 H 0.31441 0.57967 0.87774 0.0
H1393 H 0.32367 0.54817 0.86901 0.0
H1394 H 0.36154 0.57067 0.8286 0.0
H1395 H 0.35266 0.60207 0.83743 0.0
H1396 H 0.32109 0.53037 0.83557 0.0
H1397 H 0.39496 0.53515 0.85636 0.0
H1398 H 0.37795 0.5521 0.86326 0.0
H1399 H 0.38794 0.55299 0.84047 0.0
C1400 C 0.32479 0.57792 0.86707 0.0
C1401 C 0.33286 0.59347 0.8584 0.0
C1402 C 0.33006 0.55989 0.86206 0.0
C1403 C 0.34357 0.55698 0.84836 0.0
C1404 C 0.35145 0.57248 0.83953 0.0
H1405 H 0.39016 0.45581 0.79874 0.0
H1406 H 0.38189 0.48822 0.8054 0.0
C1407 C 0.34624 0.59048 0.84454 0.0
C1408 C 0.34905 0.53777 0.84293 0.0
H1409 H 0.38614 0.50839 0.83941 0.0
C1410 C 0.33531 0.52557 0.83648 0.0
C1411 C 0.36764 0.53146 0.84399 0.0
C1412 C 0.38296 0.54353 0.85155 0.0
C1413 C 0.33962 0.50737 0.83097 0.0
C1414 C 0.35816 0.50103 0.83215 0.0
C1415 C 0.37196 0.51327 0.8384 0.0
C1416 C 0.36329 0.48146 0.82793 0.0
C1417 C 0.32429 0.49514 0.82371 0.0
C1418 C 0.35584 0.46691 0.83852 0.0
C1419 C 0.36056 0.4485 0.8348 0.0
C1420 C 0.37293 0.44408 0.8204 0.0
C1421 C 0.38055 0.45868 0.80987 0.0
C1422 C 0.37585 0.47721 0.81368 0.0
H1423 H 0.31222 0.5034 0.81887 0.0
H1424 H 0.32926 0.4864 0.81211 0.0
H1425 H 0.31944 0.48581 0.83496 0.0
H1426 H 0.34642 0.46982 0.84981 0.0
H1427 H 0.35445 0.4377 0.84329 0.0
H1428 H 0.43226 0.82219 0.37585 0.0
H1429 H 0.46467 0.82746 0.36649 0.0
H1430 H 0.45078 0.88294 0.34901 0.0
H1431 H 0.4187 0.87791 0.35837 0.0
H1432 H 0.47876 0.83747 0.33066 0.0
H1433 H 0.49569 0.89093 0.38299 0.0
H1434 H 0.47574 0.8759 0.385 0.0
H1435 H 0.47506 0.89578 0.36993 0.0
C1436 C 0.43618 0.83558 0.37023 0.0
C1437 C 0.42284 0.84965 0.36799 0.0
C1438 C 0.45468 0.83854 0.36477 0.0
C1439 C 0.46024 0.85568 0.3572 0.0
C1440 C 0.44696 0.86971 0.35507 0.0
H1441 H 0.56196 0.88233 0.29459 0.0
H1442 H 0.52952 0.87634 0.30345 0.0
C1443 C 0.42854 0.86676 0.3604 0.0
C1444 C 0.47978 0.85898 0.3512 0.0
H1445 H 0.51726 0.88714 0.35849 0.0
C1446 C 0.48722 0.84827 0.33679 0.0
C1447 C 0.49088 0.87302 0.35923 0.0
C1448 C 0.48404 0.88447 0.37526 0.0
C1449 C 0.50532 0.85139 0.33007 0.0
C1450 C 0.51625 0.86576 0.3378 0.0
C1451 C 0.50885 0.87629 0.35236 0.0
C1452 C 0.5358 0.86937 0.33194 0.0
C1453 C 0.51275 0.83904 0.31501 0.0
C1454 C 0.5501 0.86786 0.345 0.0
C1455 C 0.5685 0.87137 0.34002 0.0
C1456 C 0.5732 0.87661 0.32182 0.0
C1457 C 0.55886 0.8783 0.3087 0.0
C1458 C 0.54033 0.87474 0.31373 0.0
H1459 H 0.50435 0.8262 0.31348 0.0
H1460 H 0.5124 0.84665 0.30165 0.0
H1461 H 0.52735 0.83508 0.31787 0.0
H1462 H 0.54703 0.86381 0.35912 0.0
H1463 H 0.57907 0.86992 0.35057 0.0
H1464 H 0.68307 0.22473 0.57858 0.0
H1465 H 0.69471 0.2093 0.551 0.0
H1466 H 0.67523 0.15672 0.57193 0.0
H1467 H 0.66346 0.17217 0.5999 0.0
H1468 H 0.72084 0.1779 0.54812 0.0
H1469 H 0.65057 0.16363 0.51932 0.0
H1470 H 0.65435 0.1808 0.53706 0.0
H1471 H 0.65527 0.1566 0.54278 0.0
C1472 C 0.68127 0.20986 0.57744 0.0
C1473 C 0.6722 0.1997 0.59143 0.0
C1474 C 0.68802 0.20106 0.56165 0.0
C1475 C 0.68572 0.18191 0.55932 0.0
C1476 C 0.67701 0.17156 0.57339 0.0
H1477 H 0.70427 0.12493 0.45374 0.0
H1478 H 0.69793 0.13014 0.48657 0.0
C1479 C 0.67036 0.18038 0.58938 0.0
C1480 C 0.69205 0.17319 0.54183 0.0
H1481 H 0.6761 0.15662 0.50057 0.0
C1482 C 0.71109 0.17301 0.53779 0.0
C1483 C 0.67933 0.16677 0.5284 0.0
C1484 C 0.65871 0.16697 0.53193 0.0
C1485 C 0.71773 0.16697 0.52054 0.0
C1486 C 0.70494 0.16141 0.50674 0.0
C1487 C 0.68593 0.16091 0.51108 0.0
C1488 C 0.71075 0.15728 0.48739 0.0
C1489 C 0.73838 0.16665 0.51729 0.0
C1490 C 0.72029 0.17067 0.47688 0.0
C1491 C 0.72406 0.16768 0.45813 0.0
C1492 C 0.71815 0.15132 0.44935 0.0
C1493 C 0.70908 0.13768 0.46003 0.0
C1494 C 0.70539 0.14065 0.47882 0.0
H1495 H 0.7461 0.16491 0.53049 0.0
H1496 H 0.74237 0.15529 0.50777 0.0
H1497 H 0.74274 0.18005 0.51105 0.0
H1498 H 0.72418 0.18381 0.48297 0.0
H1499 H 0.7309 0.17858 0.45035 0.0
H1500 H 0.80263 0.12955 0.07761 0.0
H1501 H 0.80569 0.13299 0.0439 0.0
H1502 H 0.86464 0.12406 0.04843 0.0
H1503 H 0.86165 0.12024 0.0817 0.0
H1504 H 0.82446 0.15945 0.0261 0.0
H1505 H 0.85355 0.09235 1.00446 0.0
H1506 H 0.84302 0.09558 0.02687 0.0
H1507 H 0.86695 0.10179 0.02305 0.0
C1508 C 0.81615 0.12787 0.07134 0.0
C1509 C 0.83188 0.1246 0.0824 0.0
C1510 C 0.81791 0.1299 0.05207 0.0
C1511 C 0.83537 0.12849 0.04348 0.0
C1512 C 0.85094 0.12471 0.05452 0.0
H1513 H 0.88425 0.18833 0.95642 0.0
H1514 H 0.87137 0.1746 0.98434 0.0
C1515 C 0.84921 0.1227 0.07367 0.0
C1516 C 0.8379 0.13293 0.02344 0.0
H1517 H 0.86088 0.11876 0.98456 0.0
C1518 C 0.83207 0.15035 0.01693 0.0
C1519 C 0.84756 0.12102 0.01121 0.0
C1520 C 0.85293 0.10157 0.01672 0.0
C1521 C 0.83678 0.15667 0.99912 0.0
C1522 C 0.84794 0.14546 0.98756 0.0
C1523 C 0.85261 0.12751 0.99351 0.0
C1524 C 0.8563 0.15292 0.9702 0.0
C1525 C 0.83012 0.17556 0.99302 0.0
C1526 C 0.85284 0.14481 0.95286 0.0
C1527 C 0.86038 0.15263 0.93664 0.0
C1528 C 0.87158 0.16862 0.93758 0.0
C1529 C 0.87552 0.17617 0.95507 0.0
C1530 C 0.86806 0.16839 0.97112 0.0
H1531 H 0.81719 0.17953 1.00035 0.0
H1532 H 0.84087 0.18605 0.99636 0.0
H1533 H 0.82751 0.17599 0.97788 0.0
H1534 H 0.84397 0.13272 0.95183 0.0
H1535 H 0.85708 0.14647 0.9234 0.0
H1536 H 0.90382 0.3366 0.56942 0.0
H1537 H 0.89599 0.3393 0.53674 0.0
H1538 H 0.87364 0.28381 0.53751 0.0
H1539 H 0.88125 0.28105 0.57054 0.0
H1540 H 0.90607 0.31875 0.50569 0.0
H1541 H 0.83009 0.31501 0.5184 0.0
H1542 H 0.84662 0.31842 0.53681 0.0
H1543 H 0.84337 0.29578 0.52704 0.0
C1544 C 0.89734 0.32487 0.56269 0.0
C1545 C 0.89302 0.30865 0.57271 0.0
C1546 C 0.89291 0.32645 0.54393 0.0
C1547 C 0.88395 0.3119 0.5347 0.0
C1548 C 0.88024 0.29536 0.54442 0.0
H1549 H 0.83385 0.31205 0.42451 0.0
H1550 H 0.8467 0.30245 0.45431 0.0
C1551 C 0.88472 0.29375 0.56327 0.0
C1552 C 0.87805 0.31451 0.5151 0.0
H1553 H 0.83975 0.31852 0.48752 0.0
C1554 C 0.89157 0.31859 0.50168 0.0
C1555 C 0.85913 0.31436 0.50987 0.0
C1556 C 0.84391 0.31081 0.52376 0.0
C1557 C 0.88669 0.32255 0.48323 0.0
C1558 C 0.86775 0.32279 0.47809 0.0
C1559 C 0.85427 0.31834 0.49143 0.0
C1560 C 0.86146 0.32811 0.45915 0.0
C1561 C 0.90191 0.32628 0.46939 0.0
C1562 C 0.86559 0.34572 0.45178 0.0
C1563 C 0.8583 0.35126 0.43464 0.0
C1564 C 0.84657 0.33936 0.42459 0.0
C1565 C 0.84283 0.32159 0.43183 0.0
C1566 C 0.85015 0.31606 0.44891 0.0
H1567 H 0.9153 0.32019 0.47394 0.0
H1568 H 0.89832 0.32061 0.45559 0.0
H1569 H 0.90389 0.34149 0.46797 0.0
H1570 H 0.87394 0.35545 0.45956 0.0
H1571 H 0.86136 0.36508 0.42958 0.0
H1572 H 0.67885 0.36673 0.92047 0.0
H1573 H 0.69546 0.3803 0.94678 0.0
H1574 H 0.65563 0.35599 0.98422 0.0
H1575 H 0.63869 0.34305 0.95815 0.0
H1576 H 0.6636 0.39002 0.99455 0.0
H1577 H 0.72941 0.3526 0.98118 0.0
H1578 H 0.72205 0.36722 0.96243 0.0
H1579 H 0.70827 0.34742 0.96891 0.0
C1580 C 0.67355 0.36445 0.93431 0.0
C1581 C 0.65747 0.35373 0.93717 0.0
C1582 C 0.68318 0.37204 0.94936 0.0
C1583 C 0.67708 0.36882 0.96757 0.0
C1584 C 0.66071 0.35862 0.97036 0.0
H1585 H 0.73484 0.37158 0.07185 0.0
H1586 H 0.72232 0.36423 0.04131 0.0
C1587 C 0.65101 0.35122 0.95537 0.0
C1588 C 0.68756 0.37589 0.98389 0.0
H1589 H 0.72932 0.37355 1.00624 0.0
C1590 C 0.678 0.38649 0.99705 0.0
C1591 C 0.7063 0.37106 0.98732 0.0
C1592 C 0.71709 0.35881 0.97433 0.0
C1593 C 0.68646 0.3921 0.01363 0.0
C1594 C 0.7053 0.38759 0.01692 0.0
C1595 C 0.71496 0.3772 1.00364 0.0
C1596 C 0.71481 0.39252 0.03456 0.0
C1597 C 0.67479 0.40209 0.02778 0.0
C1598 C 0.7155 0.41097 0.0407 0.0
C1599 C 0.72241 0.41518 0.05829 0.0
C1600 C 0.72918 0.40107 0.06996 0.0
C1601 C 0.72972 0.38278 0.06325 0.0
C1602 C 0.72253 0.37855 0.04577 0.0
H1603 H 0.65973 0.3999 0.02537 0.0
H1604 H 0.67815 0.39737 0.04202 0.0
H1605 H 0.67755 0.41721 0.02683 0.0
H1606 H 0.7102 0.42209 0.0321 0.0
H1607 H 0.722 0.42943 0.06295 0.0
H1608 H 0.86703 0.58794 0.38917 0.0
H1609 H 0.86081 0.55487 0.39247 0.0
H1610 H 0.85877 0.54929 0.33315 0.0
H1611 H 0.86462 0.58269 0.32969 0.0
H1612 H 0.83014 0.53066 0.35035 0.0
H1613 H 0.89668 0.51276 0.38421 0.0
H1614 H 0.88437 0.53074 0.39607 0.0
H1615 H 0.89286 0.53482 0.37299 0.0
C1616 C 0.86542 0.57972 0.37676 0.0
C1617 C 0.86649 0.58802 0.35913 0.0
C1618 C 0.86192 0.56073 0.3787 0.0
C1619 C 0.85962 0.54946 0.36308 0.0
C1620 C 0.86059 0.55767 0.34543 0.0
H1621 H 0.86557 0.42983 0.3635 0.0
H1622 H 0.87004 0.46306 0.35978 0.0
C1623 C 0.86403 0.57676 0.34346 0.0
C1624 C 0.85593 0.52921 0.3653 0.0
H1625 H 0.87314 0.48963 0.38494 0.0
C1626 C 0.83958 0.52166 0.35784 0.0
C1627 C 0.8683 0.51738 0.37493 0.0
C1628 C 0.88662 0.52428 0.38235 0.0
C1629 C 0.83519 0.50271 0.35993 0.0
C1630 C 0.8473 0.49102 0.37008 0.0
C1631 C 0.86371 0.49858 0.37738 0.0
C1632 C 0.84394 0.4707 0.37234 0.0
C1633 C 0.81788 0.49532 0.35083 0.0
C1634 C 0.82777 0.46373 0.38081 0.0
C1635 C 0.82507 0.44451 0.38289 0.0
C1636 C 0.8386 0.43193 0.37672 0.0
C1637 C 0.85483 0.43903 0.36848 0.0
C1638 C 0.85744 0.45811 0.36632 0.0
H1639 H 0.81276 0.50479 0.33981 0.0
H1640 H 0.82038 0.48145 0.34469 0.0
H1641 H 0.80679 0.4939 0.36138 0.0
H1642 H 0.8173 0.47314 0.38596 0.0
H1643 H 0.81245 0.43953 0.38934 0.0
H1644 H 0.43019 0.32929 0.83499 0.0
H1645 H 0.4609 0.32082 0.84669 0.0
H1646 H 0.47842 0.37785 0.84238 0.0
H1647 H 0.44776 0.38646 0.83062 0.0
H1648 H 0.50295 0.35251 0.82569 0.0
H1649 H 0.48554 0.33059 0.89729 0.0
H1650 H 0.47169 0.31994 0.87957 0.0
H1651 H 0.47012 0.34451 0.88329 0.0
C1652 C 0.44047 0.34011 0.83676 0.0
C1653 C 0.43642 0.35859 0.83187 0.0
C1654 C 0.45804 0.33523 0.84354 0.0
C1655 C 0.47197 0.34871 0.84561 0.0
C1656 C 0.46789 0.36721 0.84099 0.0
H1657 H 0.58234 0.33751 0.89511 0.0
H1658 H 0.55018 0.3462 0.88817 0.0
C1659 C 0.4503 0.37212 0.83431 0.0
C1660 C 0.49108 0.34336 0.85147 0.0
H1661 H 0.51603 0.32375 0.88676 0.0
C1662 C 0.5058 0.34629 0.83907 0.0
C1663 C 0.49488 0.33537 0.86899 0.0
C1664 C 0.47978 0.33254 0.88316 0.0
C1665 C 0.52407 0.34111 0.84354 0.0
C1666 C 0.52779 0.33264 0.86085 0.0
C1667 C 0.51316 0.33008 0.87344 0.0
C1668 C 0.54683 0.32642 0.866 0.0
C1669 C 0.53933 0.34488 0.82975 0.0
C1670 C 0.55549 0.31207 0.8562 0.0
C1671 C 0.57382 0.30699 0.8602 0.0
C1672 C 0.58395 0.31617 0.87409 0.0
C1673 C 0.57501 0.33015 0.88431 0.0
C1674 C 0.55661 0.33514 0.88036 0.0
H1675 H 0.53499 0.35504 0.819 0.0
H1676 H 0.55192 0.35024 0.8368 0.0
H1677 H 0.54308 0.33175 0.82273 0.0
H1678 H 0.54815 0.30496 0.84524 0.0
H1679 H 0.58018 0.29616 0.85204 0.0
H1680 H 0.70951 0.06615 0.38631 0.0
H1681 H 0.69702 0.03664 0.37614 0.0
H1682 H 0.64264 0.06103 0.37122 0.0
H1683 H 0.65536 0.09117 0.38078 0.0
H1684 H 0.67216 0.01357 0.38934 0.0
H1685 H 0.64814 0.03909 0.3208 0.0
H1686 H 0.66214 0.0531 0.33598 0.0
H1687 H 0.63769 0.05044 0.34022 0.0
C1688 C 0.69486 0.06535 0.38312 0.0
C1689 C 0.68347 0.08114 0.38424 0.0
C1690 C 0.68771 0.04836 0.37733 0.0
C1691 C 0.66893 0.04655 0.3726 0.0
C1692 C 0.65729 0.06212 0.37432 0.0
H1693 H 0.63016 0.93237 0.34698 0.0
H1694 H 0.63471 0.9619 0.36323 0.0
C1695 C 0.66453 0.07933 0.37992 0.0
C1696 C 0.66207 0.02838 0.36547 0.0
H1697 H 0.64358 1.00751 0.32732 0.0
C1698 C 0.66579 0.01224 0.37582 0.0
C1699 C 0.65389 0.0266 0.34776 0.0
C1700 C 0.65036 0.04318 0.33544 0.0
C1701 C 0.66228 0.99444 0.36871 0.0
C1702 C 0.6542 0.99266 0.35094 0.0
C1703 C 0.64977 1.00882 0.34093 0.0
C1704 C 0.65162 0.97434 0.34172 0.0
C1705 C 0.66818 0.97776 0.37992 0.0
C1706 C 0.65933 0.97148 0.32413 0.0
C1707 C 0.65642 0.95485 0.31473 0.0
C1708 C 0.64591 0.94051 0.32275 0.0
C1709 C 0.63854 0.94309 0.34056 0.0
C1710 C 0.64118 0.95996 0.34987 0.0
H1711 H 0.67839 0.98152 0.3908 0.0
H1712 H 0.65587 0.97169 0.38688 0.0
H1713 H 0.67443 0.96698 0.37096 0.0
H1714 H 0.66751 0.98225 0.31753 0.0
H1715 H 0.66233 0.95329 0.30105 0.0
H1716 H 0.10478 0.1609 0.87448 0.0
H1717 H 0.07523 0.17096 0.88836 0.0
H1718 H 0.04547 0.14801 0.84205 0.0
H1719 H 0.07444 0.13784 0.82838 0.0
H1720 H 0.04656 0.19466 0.87388 0.0
H1721 H 0.02025 0.12365 0.88661 0.0
H1722 H 0.04434 0.1284 0.88172 0.0
H1723 H 0.02775 0.12697 0.86317 0.0
C1724 C 0.09191 0.15792 0.86736 0.0
C1725 C 0.09204 0.14839 0.85039 0.0
C1726 C 0.07505 0.16374 0.87525 0.0
C1727 C 0.05808 0.15998 0.86638 0.0
C1728 C 0.0583 0.15075 0.84936 0.0
H1729 H 0.94721 0.2047 0.87092 0.0
H1730 H 0.98051 0.20017 0.86604 0.0
C1731 C 0.07498 0.14497 0.84153 0.0
C1732 C 0.03996 0.16554 0.87457 0.0
H1733 H 0.99761 0.14787 0.88629 0.0
C1734 C 0.03592 0.18445 0.87688 0.0
C1735 C 0.02612 0.15223 0.87872 0.0
C1736 C 0.02987 0.13167 0.87762 0.0
C1737 C 0.01815 0.19039 0.88245 0.0
C1738 C 1.00395 0.17709 0.88544 0.0
C1739 C 1.00832 0.15816 0.88386 0.0
C1740 C 0.98435 0.1822 0.88982 0.0
C1741 C 0.01483 0.21085 0.8851 0.0
C1742 C 0.97524 0.17372 0.90482 0.0
C1743 C 0.95617 0.17603 0.90742 0.0
C1744 C 0.94568 0.18701 0.89517 0.0
C1745 C 0.95492 0.19634 0.88074 0.0
C1746 C 0.97403 0.19381 0.87798 0.0
H1747 H 0.02792 0.21827 0.8884 0.0
H1748 H 1.00926 0.21684 0.87207 0.0
H1749 H 1.00468 0.21342 0.89634 0.0
H1750 H 0.9828 0.16472 0.91418 0.0
H1751 H 0.9495 0.16868 0.9187 0.0
H1752 H 0.85953 0.08273 0.14597 0.0
H1753 H 0.86862 0.05095 0.15413 0.0
H1754 H 0.85073 0.05993 0.21023 0.0
H1755 H 0.84171 0.09163 0.20233 0.0
H1756 H 0.89277 0.03576 0.18771 0.0
H1757 H 0.81818 0.01578 0.18592 0.0
H1758 H 0.82698 0.03585 0.17371 0.0
H1759 H 0.82426 0.03651 0.19835 0.0
C1760 C 0.8579 0.0781 0.16014 0.0
C1761 C 0.84973 0.08975 0.17345 0.0
C1762 C 0.86309 0.05992 0.16477 0.0
C1763 C 0.86016 0.05306 0.18273 0.0
C1764 C 0.85301 0.06494 0.19626 0.0
H1765 H 0.85485 0.94234 0.23011 0.0
H1766 H 0.85381 0.9758 0.22459 0.0
C1767 C 0.84788 0.0831 0.1917 0.0
C1768 C 0.86307 0.03312 0.18705 0.0
H1769 H 0.83941 0.99285 0.19517 0.0
C1770 C 0.88115 0.02632 0.18931 0.0
C1771 C 0.84787 0.0209 0.1892 0.0
C1772 C 0.82819 0.02749 0.18659 0.0
C1773 C 0.88441 1.00761 0.19401 0.0
C1774 C 0.86917 0.99531 0.19605 0.0
C1775 C 0.8511 1.00222 0.1937 0.0
C1776 C 0.87146 0.97519 0.20039 0.0
C1777 C 0.90411 1.00136 0.1972 0.0
C1778 C 0.88188 0.96362 0.18877 0.0
C1779 C 0.88265 0.94446 0.19201 0.0
C1780 C 0.87277 0.93639 0.2068 0.0
C1781 C 0.86264 0.94805 0.21862 0.0
C1782 C 0.862 0.96721 0.21545 0.0
H1783 H 0.91331 0.0132 0.20074 0.0
H1784 H 0.90489 0.99091 0.2085 0.0
H1785 H 0.9095 0.99497 0.18435 0.0
H1786 H 0.88893 0.96929 0.17679 0.0
H1787 H 0.89045 0.93591 0.18252 0.0
H1788 H 0.10163 0.34946 0.6719 0.0
H1789 H 0.07027 0.3391 0.66413 0.0
H1790 H 0.05122 0.39578 0.66534 0.0
H1791 H 0.08235 0.40607 0.67385 0.0
H1792 H 0.02944 0.37544 0.6854 0.0
H1793 H 0.03879 0.3391 0.61887 0.0
H1794 H 0.05377 0.32998 0.63647 0.0
H1795 H 0.05662 0.3536 0.62872 0.0
C1796 C 0.09087 0.35976 0.67004 0.0
C1797 C 0.09451 0.37861 0.67349 0.0
C1798 C 0.07289 0.35382 0.66553 0.0
C1799 C 0.05826 0.36664 0.66396 0.0
C1800 C 0.06217 0.38557 0.66648 0.0
H1801 H 0.94632 0.33635 0.62701 0.0
H1802 H 0.97768 0.34926 0.62936 0.0
C1803 C 0.08003 0.39146 0.67127 0.0
C1804 C 0.03867 0.36032 0.66145 0.0
H1805 H 1.01036 0.33303 0.63502 0.0
C1806 C 0.02528 0.3663 0.67425 0.0
C1807 C 0.03304 0.34857 0.64682 0.0
C1808 C 0.04628 0.3426 0.63184 0.0
C1809 C 1.00666 0.36064 0.67306 0.0
C1810 C 1.00123 0.34811 0.65902 0.0
C1811 C 0.01449 0.34244 0.64595 0.0
C1812 C 0.98195 0.34062 0.65774 0.0
C1813 C 0.99295 0.36846 0.68673 0.0
C1814 C 0.97383 0.33136 0.67286 0.0
C1815 C 0.95581 0.3242 0.67163 0.0
C1816 C 0.94557 0.3258 0.65514 0.0
C1817 C 0.95376 0.33493 0.63995 0.0
C1818 C 0.97174 0.34227 0.64125 0.0
H1819 H 0.99775 0.38198 0.69232 0.0
H1820 H 0.9791 0.37047 0.68032 0.0
H1821 H 0.99149 0.35872 0.69855 0.0
H1822 H 0.98153 0.32941 0.68557 0.0
H1823 H 0.95007 0.31704 0.68353 0.0
H1824 H 0.69279 0.43262 0.15344 0.0
H1825 H 0.67511 0.46013 0.16292 0.0
H1826 H 0.71986 0.49538 0.1446 0.0
H1827 H 0.73742 0.46826 0.13502 0.0
H1828 H 0.68538 0.48744 0.18872 0.0
H1829 H 0.67495 0.51898 0.11951 0.0
H1830 H 0.68197 0.49514 0.12261 0.0
H1831 H 0.69874 0.51354 0.12436 0.0
C1832 C 0.69878 0.44625 0.15131 0.0
C1833 C 0.71651 0.4482 0.1434 0.0
C1834 C 0.68868 0.46195 0.15674 0.0
C1835 C 0.69602 0.47986 0.15417 0.0
C1836 C 0.7137 0.48178 0.14634 0.0
H1837 H 0.66906 0.59316 0.18388 0.0
H1838 H 0.68264 0.56459 0.1715 0.0
C1839 C 0.72379 0.46617 0.14098 0.0
C1840 C 0.68571 0.4966 0.16037 0.0
H1841 H 0.66911 0.53851 0.14548 0.0
C1842 C 0.68161 0.49851 0.17924 0.0
C1843 C 0.68091 0.51111 0.14801 0.0
C1844 C 0.6842 0.50956 0.12746 0.0
C1845 C 0.67339 0.51474 0.18617 0.0
C1846 C 0.66882 0.52936 0.17385 0.0
C1847 C 0.67269 0.52735 0.15493 0.0
C1848 C 0.66008 0.54684 0.18039 0.0
C1849 C 0.67023 0.51633 0.20674 0.0
C1850 C 0.64267 0.54647 0.18902 0.0
C1851 C 0.6349 0.56273 0.19609 0.0
C1852 C 0.6443 0.5798 0.19459 0.0
C1853 C 0.66145 0.58027 0.1853 0.0
C1854 C 0.66923 0.56395 0.17823 0.0
H1855 H 0.67865 0.50614 0.21466 0.0
H1856 H 0.67366 0.53049 0.21169 0.0
H1857 H 0.6554 0.5136 0.20981 0.0
H1858 H 0.63515 0.53353 0.19047 0.0
H1859 H 0.62161 0.56183 0.20301 0.0
H1860 H 0.44705 0.17516 0.71691 0.0
H1861 H 0.4773 0.18751 0.70721 0.0
H1862 H 0.48397 0.14154 0.66985 0.0
H1863 H 0.45378 0.12936 0.67916 0.0
H1864 H 0.51321 0.17378 0.70717 0.0
H1865 H 0.48957 0.18559 0.63525 0.0
H1866 H 0.47372 0.18027 0.65384 0.0
H1867 H 0.4864 0.16201 0.6426 0.0
C1868 C 0.45509 0.16755 0.70682 0.0
C1869 C 0.4479 0.15133 0.6987 0.0
C1870 C 0.47235 0.17468 0.70122 0.0
C1871 C 0.48272 0.16575 0.68741 0.0
C1872 C 0.47602 0.14901 0.68011 0.0
H1873 H 0.58782 0.17372 0.6329 0.0
H1874 H 0.55673 0.16652 0.64433 0.0
C1875 C 0.45878 0.14196 0.68558 0.0
C1876 C 0.50036 0.17394 0.6803 0.0
H1877 H 0.52229 0.1872 0.64041 0.0
C1878 C 0.51513 0.17694 0.69262 0.0
C1879 C 0.50285 0.17823 0.66131 0.0
C1880 C 0.48723 0.17655 0.64751 0.0
C1881 C 0.53253 0.18327 0.68633 0.0
C1882 C 0.53518 0.18687 0.66724 0.0
C1883 C 0.52027 0.18436 0.65502 0.0
C1884 C 0.55361 0.1921 0.65952 0.0
C1885 C 0.54818 0.18538 0.70001 0.0
C1886 C 0.56202 0.20915 0.66381 0.0
C1887 C 0.57981 0.21342 0.65711 0.0
C1888 C 0.58955 0.20064 0.6461 0.0
C1889 C 0.58077 0.18387 0.64137 0.0
C1890 C 0.56299 0.1797 0.64792 0.0
H1891 H 0.54476 0.17919 0.71369 0.0
H1892 H 0.56098 0.17875 0.69467 0.0
H1893 H 0.55116 0.20034 0.70201 0.0
H1894 H 0.55493 0.21905 0.67253 0.0
H1895 H 0.58618 0.22642 0.66109 0.0
H1896 H 0.30505 0.84698 0.41921 0.0
H1897 H 0.2968 0.85663 0.45046 0.0
H1898 H 0.34954 0.88427 0.45597 0.0
H1899 H 0.35799 0.87467 0.4246 0.0
H1900 H 0.31828 0.84554 0.48173 0.0
H1901 H 0.31182 0.92221 0.47724 0.0
H1902 H 0.31032 0.90742 0.45716 0.0
H1903 H 0.33248 0.91248 0.46729 0.0
C1904 C 0.31478 0.85549 0.42684 0.0
C1905 C 0.33223 0.86001 0.41933 0.0
C1906 C 0.31003 0.86094 0.44477 0.0
C1907 C 0.32249 0.87123 0.45556 0.0
C1908 C 0.33957 0.87656 0.44782 0.0
H1909 H 0.32667 0.90346 0.57118 0.0
H1910 H 0.33119 0.90021 0.53784 0.0
C1911 C 0.3444 0.87103 0.42987 0.0
C1912 C 0.31833 0.87472 0.47541 0.0
H1913 H 0.31101 0.90886 0.50726 0.0
C1914 C 0.31657 0.85938 0.4873 0.0
C1915 C 0.31629 0.89278 0.48268 0.0
C1916 C 0.31767 0.90971 0.47046 0.0
C1917 C 0.31314 0.86158 0.5063 0.0
C1918 C 0.31084 0.87964 0.5136 0.0
C1919 C 0.31263 0.89501 0.50169 0.0
C1920 C 0.3071 0.8828 0.53364 0.0
C1921 C 0.31264 0.8445 0.51844 0.0
C1922 C 0.29171 0.8746 0.54239 0.0
C1923 C 0.28916 0.8763 0.56153 0.0
C1924 C 0.3018 0.88648 0.57231 0.0
C1925 C 0.31667 0.89547 0.56336 0.0
C1926 C 0.31929 0.89363 0.54425 0.0
H1927 H 0.31977 0.83258 0.51184 0.0
H1928 H 0.31926 0.84716 0.53204 0.0
H1929 H 0.298 0.84041 0.52087 0.0
H1930 H 0.28181 0.8666 0.53446 0.0
H1931 H 0.27747 0.86933 0.5679 0.0
H1932 H 0.17542 0.85018 0.09344 0.0
H1933 H 0.18944 0.86382 0.06544 0.0
H1934 H 0.1371 0.85891 0.03704 0.0
H1935 H 0.12319 0.84522 0.06467 0.0
H1936 H 0.19011 0.84421 0.03011 0.0
H1937 H 0.15504 0.91223 0.02422 0.0
H1938 H 0.15678 0.89965 0.04583 0.0
H1939 H 0.13949 0.89334 0.02905 0.0
C1940 C 0.16682 0.85252 0.08137 0.0
C1941 C 0.14818 0.84671 0.08127 0.0
C1942 C 0.17487 0.86018 0.06536 0.0
C1943 C 0.16428 0.86253 0.04918 0.0
C1944 C 0.14548 0.85751 0.04941 0.0
H1945 H 0.16363 0.87993 0.93441 0.0
H1946 H 0.1591 0.87715 0.96762 0.0
C1947 C 0.13755 0.84963 0.06522 0.0
C1948 C 0.17293 0.86852 0.03144 0.0
H1949 H 0.16794 0.89987 0.99626 0.0
C1950 C 0.18563 0.8566 0.02283 0.0
C1951 C 0.16702 0.88464 0.02196 0.0
C1952 C 0.15396 0.89831 0.03079 0.0
C1953 C 0.19156 0.85968 1.0045 0.0
C1954 C 0.1849 0.87536 0.99466 0.0
C1955 C 0.17302 0.88782 1.00371 0.0
C1956 C 0.1883 0.87796 0.97445 0.0
C1957 C 0.2039 0.84547 0.99546 0.0
C1958 C 0.20628 0.87966 0.96706 0.0
C1959 C 0.20897 0.88115 0.94785 0.0
C1960 C 0.19371 0.88111 0.9357 0.0
C1961 C 0.17576 0.87995 0.94326 0.0
C1962 C 0.17311 0.87841 0.96233 0.0
H1963 H 0.20479 0.83245 1.00369 0.0
H1964 H 0.19876 0.84202 0.9814 0.0
H1965 H 0.2181 0.85123 0.99408 0.0
H1966 H 0.21823 0.87974 0.97613 0.0
H1967 H 0.22297 0.88211 0.94251 0.0
H1968 H 0.22373 0.65609 0.56784 0.0
H1969 H 0.21144 0.6623 0.53709 0.0
H1970 H 0.15583 0.6623 0.559 0.0
H1971 H 0.16816 0.65643 0.59017 0.0
H1972 H 0.18828 0.64176 0.51593 0.0
H1973 H 0.15658 0.71049 0.52995 0.0
H1974 H 0.17226 0.69941 0.54597 0.0
H1975 H 0.1485 0.69198 0.54456 0.0
C1976 C 0.20886 0.65749 0.56623 0.0
C1977 C 0.19694 0.65582 0.58156 0.0
C1978 C 0.20185 0.66101 0.54856 0.0
C1979 C 0.18272 0.66297 0.54567 0.0
C1980 C 0.17068 0.66122 0.5609 0.0
H1981 H 0.12451 0.6895 0.44229 0.0
H1982 H 0.13158 0.67824 0.47347 0.0
C1983 C 0.17773 0.65778 0.57871 0.0
C1984 C 0.17568 0.66659 0.52659 0.0
H1985 H 0.1528 0.69844 0.4999 0.0
C1986 C 0.18045 0.65412 0.51246 0.0
C1987 C 0.16544 0.68271 0.52201 0.0
C1988 C 0.1605 0.69702 0.53635 0.0
C1989 C 0.17549 0.65743 0.49393 0.0
C1990 C 0.16561 0.67373 0.48931 0.0
C1991 C 0.16037 0.68594 0.50347 0.0
C1992 C 0.16133 0.67884 0.4698 0.0
C1993 C 0.18086 0.64346 0.47942 0.0
C1994 C 0.1757 0.68272 0.45726 0.0
C1995 C 0.17173 0.6892 0.4394 0.0
C1996 C 0.15327 0.69197 0.4337 0.0
C1997 C 0.13889 0.68746 0.44612 0.0
C1998 C 0.14289 0.68108 0.46401 0.0
H1999 H 0.1839 0.62967 0.48562 0.0
H2000 H 0.16969 0.64184 0.46897 0.0
H2001 H 0.19354 0.64835 0.47219 0.0
H2002 H 0.19004 0.68137 0.46149 0.0
H2003 H 0.18316 0.69264 0.4303 0.0
H2004 H 0.33511 0.67397 0.09883 0.0
H2005 H 0.32118 0.66547 0.06911 0.0
H2006 H 0.37396 0.64469 0.05049 0.0
H2007 H 0.38792 0.65299 0.08008 0.0
H2008 H 0.33233 0.68042 0.03543 0.0
H2009 H 0.3386 0.60401 0.03367 0.0
H2010 H 0.34045 0.6171 0.05485 0.0
H2011 H 0.36003 0.6152 0.03955 0.0
C2012 C 0.34363 0.66708 0.08862 0.0
C2013 C 0.36266 0.66413 0.09188 0.0
C2014 C 0.33566 0.66235 0.07158 0.0
C2015 C 0.34646 0.6543 0.05758 0.0
C2016 C 0.36523 0.65056 0.06115 0.0
H2017 H 0.34964 0.63402 0.94224 0.0
H2018 H 0.35343 0.63671 0.97558 0.0
C2019 C 0.37323 0.65538 0.0781 0.0
C2020 C 0.33878 0.65146 0.03867 0.0
H2021 H 0.33475 0.6193 1.00431 0.0
C2022 C 0.33252 0.667 0.02871 0.0
C2023 C 0.33904 0.63395 0.0299 0.0
C2024 C 0.34472 0.61658 0.04011 0.0
C2025 C 0.32753 0.66571 1.00993 0.0
C2026 C 0.32852 0.64832 1.00094 0.0
C2027 C 0.33404 0.63264 0.01115 0.0
C2028 C 0.32552 0.64636 0.98065 0.0
C2029 C 0.32223 0.68315 0.99962 0.0
C2030 C 0.30844 0.65071 0.97229 0.0
C2031 C 0.3062 0.64924 0.95304 0.0
C2032 C 0.321 0.64331 0.94184 0.0
C2033 C 0.33793 0.63868 0.95036 0.0
C2034 C 0.34014 0.64016 0.96949 0.0
H2035 H 0.32572 0.69586 1.00754 0.0
H2036 H 0.32934 0.68382 0.986 0.0
H2037 H 0.30706 0.68311 0.99708 0.0
H2038 H 0.29684 0.65521 0.98064 0.0
H2039 H 0.29296 0.65282 0.94695 0.0
loop_
_geom_bond_atom_site_label_1
_geom_bond_atom_site_label_2
_geom_bond_distance
_geom_bond_site_symmetry_2
_ccdc_geom_bond_type
Mg0 O7 2.141 . S
Mg0 O8 2.048 . S
Mg0 O9 2.048 . S
Mg0 O12 2.141 . S
C1 O2 1.313 . S
C1 O8 1.195 . S
O2 C1 1.313 . S
C3 O4 1.245 . S
C3 O12 1.289 . S
O4 C3 1.245 . S
C5 O6 1.245 . S
C5 O7 1.289 . S
O6 C5 1.245 . S
O7 Mg0 2.141 . S
O7 C5 1.289 . S
O8 Mg0 2.048 . S
O8 C1 1.195 . S
O9 Mg0 2.048 . S
O9 C10 1.195 . S
C10 O9 1.195 . S
C10 O11 1.313 . S
O11 C10 1.313 . S
O12 Mg0 2.141 . S
O12 C3 1.289 . S
Mg13 O20 2.141 . S
Mg13 O21 2.048 . S
Mg13 O22 2.048 . S
Mg13 O25 2.141 . S
C14 O15 1.313 . S
C14 O21 1.195 . S
O15 C14 1.313 . S
C16 O17 1.245 . S
C16 O25 1.289 . S
O17 C16 1.245 . S
C18 O19 1.245 . S
C18 O20 1.289 . S
O19 C18 1.245 . S
O20 Mg13 2.141 . S
O20 C18 1.289 . S
O21 Mg13 2.048 . S
O21 C14 1.195 . S
O22 Mg13 2.048 . S
O22 C23 1.195 . S
C23 O22 1.195 . S
C23 O24 1.313 . S
O24 C23 1.313 . S
O25 Mg13 2.141 . S
O25 C16 1.289 . S
Mg26 O33 2.141 . S
Mg26 O34 2.048 . S
Mg26 O35 2.048 . S
Mg26 O38 2.141 . S
C27 O28 1.313 . S
C27 O34 1.195 . S
O28 C27 1.313 . S
C29 O30 1.245 . S
C29 O38 1.289 . S
O30 C29 1.245 . S
C31 O32 1.245 . S
C31 O33 1.289 . S
O32 C31 1.245 . S
O33 Mg26 2.141 . S
O33 C31 1.289 . S
O34 Mg26 2.048 . S
O34 C27 1.195 . S
O35 Mg26 2.048 . S
O35 C36 1.195 . S
C36 O35 1.195 . S
C36 O37 1.313 . S
O37 C36 1.313 . S
O38 Mg26 2.141 . S
O38 C29 1.289 . S
Mg39 O46 2.141 . S
Mg39 O47 2.048 . S
Mg39 O48 2.048 . S
Mg39 O51 2.141 . S
C40 O41 1.313 . S
C40 O47 1.195 . S
O41 C40 1.313 . S
C42 O43 1.245 . S
C42 O51 1.289 . S
O43 C42 1.245 . S
C44 O45 1.245 . S
C44 O46 1.289 . S
O45 C44 1.245 . S
O46 Mg39 2.141 . S
O46 C44 1.289 . S
O47 Mg39 2.048 . S
O47 C40 1.195 . S
O48 Mg39 2.048 . S
O48 C49 1.195 . S
C49 O48 1.195 . S
C49 O50 1.313 . S
O50 C49 1.313 . S
O51 Mg39 2.141 . S
O51 C42 1.289 . S
Mg52 O59 2.141 . S
Mg52 O60 2.048 . S
Mg52 O61 2.048 . S
Mg52 O64 2.141 . S
C53 O54 1.313 . S
C53 O60 1.195 . S
O54 C53 1.313 . S
C55 O56 1.245 . S
C55 O64 1.289 . S
O56 C55 1.245 . S
C57 O58 1.245 . S
C57 O59 1.289 . S
O58 C57 1.245 . S
O59 Mg52 2.141 . S
O59 C57 1.289 . S
O60 Mg52 2.048 . S
O60 C53 1.195 . S
O61 Mg52 2.048 . S
O61 C62 1.195 . S
C62 O61 1.195 . S
C62 O63 1.313 . S
O63 C62 1.313 . S
O64 Mg52 2.141 . S
O64 C55 1.289 . S
Mg65 O72 2.141 . S
Mg65 O73 2.048 . S
Mg65 O74 2.048 . S
Mg65 O77 2.141 . S
C66 O67 1.313 . S
C66 O73 1.195 . S
O67 C66 1.313 . S
C68 O69 1.245 . S
C68 O77 1.289 . S
O69 C68 1.245 . S
C70 O71 1.245 . S
C70 O72 1.289 . S
O71 C70 1.245 . S
O72 Mg65 2.141 . S
O72 C70 1.289 . S
O73 Mg65 2.048 . S
O73 C66 1.195 . S
O74 Mg65 2.048 . S
O74 C75 1.195 . S
C75 O74 1.195 . S
C75 O76 1.313 . S
O76 C75 1.313 . S
O77 Mg65 2.141 . S
O77 C68 1.289 . S
Mg78 O85 2.141 . S
Mg78 O86 2.048 . S
Mg78 O87 2.048 . S
Mg78 O90 2.141 . S
C79 O80 1.313 . S
C79 O86 1.195 . S
O80 C79 1.313 . S
C81 O82 1.245 . S
C81 O90 1.289 . S
O82 C81 1.245 . S
C83 O84 1.245 . S
C83 O85 1.289 . S
O84 C83 1.245 . S
O85 Mg78 2.141 . S
O85 C83 1.289 . S
O86 Mg78 2.048 . S
O86 C79 1.195 . S
O87 Mg78 2.048 . S
O87 C88 1.195 . S
C88 O87 1.195 . S
C88 O89 1.313 . S
O89 C88 1.313 . S
O90 Mg78 2.141 . S
O90 C81 1.289 . S
Mg91 O98 2.141 . S
Mg91 O99 2.048 . S
Mg91 O100 2.048 . S
Mg91 O103 2.141 . S
C92 O93 1.313 . S
C92 O99 1.195 . S
O93 C92 1.313 . S
C94 O95 1.245 . S
C94 O103 1.289 . S
O95 C94 1.245 . S
C96 O97 1.245 . S
C96 O98 1.289 . S
O97 C96 1.245 . S
O98 Mg91 2.141 . S
O98 C96 1.289 . S
O99 Mg91 2.048 . S
O99 C92 1.195 . S
O100 Mg91 2.048 . S
O100 C101 1.195 . S
C101 O100 1.195 . S
C101 O102 1.313 . S
O102 C101 1.313 . S
O103 Mg91 2.141 . S
O103 C94 1.289 . S
Mg104 O111 2.141 . S
Mg104 O112 2.048 . S
Mg104 O113 2.048 . S
Mg104 O116 2.141 . S
C105 O106 1.313 . S
C105 O112 1.195 . S
O106 C105 1.313 . S
C107 O108 1.245 . S
C107 O116 1.289 . S
O108 C107 1.245 . S
C109 O110 1.245 . S
C109 O111 1.289 . S
O110 C109 1.245 . S
O111 Mg104 2.141 . S
O111 C109 1.289 . S
O112 Mg104 2.048 . S
O112 C105 1.195 . S
O113 Mg104 2.048 . S
O113 C114 1.195 . S
C114 O113 1.195 . S
C114 O115 1.313 . S
O115 C114 1.313 . S
O116 Mg104 2.141 . S
O116 C107 1.289 . S
Mg117 O124 2.141 . S
Mg117 O125 2.048 . S
Mg117 O126 2.048 . S
Mg117 O129 2.141 . S
C118 O119 1.313 . S
C118 O125 1.195 . S
O119 C118 1.313 . S
C120 O121 1.245 . S
C120 O129 1.289 . S
O121 C120 1.245 . S
C122 O123 1.245 . S
C122 O124 1.289 . S
O123 C122 1.245 . S
O124 Mg117 2.141 . S
O124 C122 1.289 . S
O125 Mg117 2.048 . S
O125 C118 1.195 . S
O126 Mg117 2.048 . S
O126 C127 1.195 . S
C127 O126 1.195 . S
C127 O128 1.313 . S
O128 C127 1.313 . S
O129 Mg117 2.141 . S
O129 C120 1.289 . S
Mg130 O137 2.141 . S
Mg130 O138 2.048 . S
Mg130 O139 2.048 . S
Mg130 O142 2.141 . S
C131 O132 1.313 . S
C131 O138 1.195 . S
O132 C131 1.313 . S
C133 O134 1.245 . S
C133 O142 1.289 . S
O134 C133 1.245 . S
C135 O136 1.245 . S
C135 O137 1.289 . S
O136 C135 1.245 . S
O137 Mg130 2.141 . S
O137 C135 1.289 . S
O138 Mg130 2.048 . S
O138 C131 1.195 . S
O139 Mg130 2.048 . S
O139 C140 1.195 . S
C140 O139 1.195 . S
C140 O141 1.313 . S
O141 C140 1.313 . S
O142 Mg130 2.141 . S
O142 C133 1.289 . S
Mg143 O150 2.141 . S
Mg143 O151 2.048 . S
Mg143 O152 2.048 . S
Mg143 O155 2.141 . S
C144 O145 1.313 . S
C144 O151 1.195 . S
O145 C144 1.313 . S
C146 O147 1.245 . S
C146 O155 1.289 . S
O147 C146 1.245 . S
C148 O149 1.245 . S
C148 O150 1.289 . S
O149 C148 1.245 . S
O150 Mg143 2.141 . S
O150 C148 1.289 . S
O151 Mg143 2.048 . S
O151 C144 1.195 . S
O152 Mg143 2.048 . S
O152 C153 1.195 . S
C153 O152 1.195 . S
C153 O154 1.313 . S
O154 C153 1.313 . S
O155 Mg143 2.141 . S
O155 C146 1.289 . S
Mg156 O163 2.141 . S
Mg156 O164 2.048 . S
Mg156 O165 2.048 . S
Mg156 O168 2.141 . S
C157 O158 1.313 . S
C157 O164 1.195 . S
O158 C157 1.313 . S
C159 O160 1.245 . S
C159 O168 1.289 . S
O160 C159 1.245 . S
C161 O162 1.245 . S
C161 O163 1.289 . S
O162 C161 1.245 . S
O163 Mg156 2.141 . S
O163 C161 1.289 . S
O164 Mg156 2.048 . S
O164 C157 1.195 . S
O165 Mg156 2.048 . S
O165 C166 1.195 . S
C166 O165 1.195 . S
C166 O167 1.313 . S
O167 C166 1.313 . S
O168 Mg156 2.141 . S
O168 C159 1.289 . S
Mg169 O176 2.141 . S
Mg169 O177 2.048 . S
Mg169 O178 2.048 . S
Mg169 O181 2.141 . S
C170 O171 1.313 . S
C170 O177 1.195 . S
O171 C170 1.313 . S
C172 O173 1.245 . S
C172 O181 1.289 . S
O173 C172 1.245 . S
C174 O175 1.245 . S
C174 O176 1.289 . S
O175 C174 1.245 . S
O176 Mg169 2.141 . S
O176 C174 1.289 . S
O177 Mg169 2.048 . S
O177 C170 1.195 . S
O178 Mg169 2.048 . S
O178 C179 1.195 . S
C179 O178 1.195 . S
C179 O180 1.313 . S
O180 C179 1.313 . S
O181 Mg169 2.141 . S
O181 C172 1.289 . S
Mg182 O189 2.141 . S
Mg182 O190 2.048 . S
Mg182 O191 2.048 . S
Mg182 O194 2.141 . S
C183 O184 1.313 . S
C183 O190 1.195 . S
O184 C183 1.313 . S
C185 O186 1.245 . S
C185 O194 1.289 . S
O186 C185 1.245 . S
C187 O188 1.245 . S
C187 O189 1.289 . S
O188 C187 1.245 . S
O189 Mg182 2.141 . S
O189 C187 1.289 . S
O190 Mg182 2.048 . S
O190 C183 1.195 . S
O191 Mg182 2.048 . S
O191 C192 1.195 . S
C192 O191 1.195 . S
C192 O193 1.313 . S
O193 C192 1.313 . S
O194 Mg182 2.141 . S
O194 C185 1.289 . S
Mg195 O202 2.141 . S
Mg195 O203 2.048 . S
Mg195 O204 2.048 . S
Mg195 O207 2.141 . S
C196 O197 1.313 . S
C196 O203 1.195 . S
O197 C196 1.313 . S
C198 O199 1.245 . S
C198 O207 1.289 . S
O199 C198 1.245 . S
C200 O201 1.245 . S
C200 O202 1.289 . S
O201 C200 1.245 . S
O202 Mg195 2.141 . S
O202 C200 1.289 . S
O203 Mg195 2.048 . S
O203 C196 1.195 . S
O204 Mg195 2.048 . S
O204 C205 1.195 . S
C205 O204 1.195 . S
C205 O206 1.313 . S
O206 C205 1.313 . S
O207 Mg195 2.141 . S
O207 C198 1.289 . S
Mg208 O215 2.141 . S
Mg208 O216 2.048 . S
Mg208 O217 2.048 . S
Mg208 O220 2.141 . S
C209 O210 1.313 . S
C209 O216 1.195 . S
O210 C209 1.313 . S
C211 O212 1.245 . S
C211 O220 1.289 . S
O212 C211 1.245 . S
C213 O214 1.245 . S
C213 O215 1.289 . S
O214 C213 1.245 . S
O215 Mg208 2.141 . S
O215 C213 1.289 . S
O216 Mg208 2.048 . S
O216 C209 1.195 . S
O217 Mg208 2.048 . S
O217 C218 1.195 . S
C218 O217 1.195 . S
C218 O219 1.313 . S
O219 C218 1.313 . S
O220 Mg208 2.141 . S
O220 C211 1.289 . S
Mg221 O228 2.141 . S
Mg221 O229 2.048 . S
Mg221 O230 2.048 . S
Mg221 O233 2.141 . S
C222 O223 1.313 . S
C222 O229 1.195 . S
O223 C222 1.313 . S
C224 O225 1.245 . S
C224 O233 1.289 . S
O225 C224 1.245 . S
C226 O227 1.245 . S
C226 O228 1.289 . S
O227 C226 1.245 . S
O228 Mg221 2.141 . S
O228 C226 1.289 . S
O229 Mg221 2.048 . S
O229 C222 1.195 . S
O230 Mg221 2.048 . S
O230 C231 1.195 . S
C231 O230 1.195 . S
C231 O232 1.313 . S
O232 C231 1.313 . S
O233 Mg221 2.141 . S
O233 C224 1.289 . S
Mg234 O241 2.141 . S
Mg234 O242 2.048 . S
Mg234 O243 2.048 . S
Mg234 O246 2.141 . S
C235 O236 1.313 . S
C235 O242 1.195 . S
O236 C235 1.313 . S
C237 O238 1.245 . S
C237 O246 1.289 . S
O238 C237 1.245 . S
C239 O240 1.245 . S
C239 O241 1.289 . S
O240 C239 1.245 . S
O241 Mg234 2.141 . S
O241 C239 1.289 . S
O242 Mg234 2.048 . S
O242 C235 1.195 . S
O243 Mg234 2.048 . S
O243 C244 1.195 . S
C244 O243 1.195 . S
C244 O245 1.313 . S
O245 C244 1.313 . S
O246 Mg234 2.141 . S
O246 C237 1.289 . S
Mg247 O254 2.141 . S
Mg247 O255 2.048 . S
Mg247 O256 2.048 . S
Mg247 O259 2.141 . S
C248 O249 1.313 . S
C248 O255 1.195 . S
O249 C248 1.313 . S
C250 O251 1.245 . S
C250 O259 1.289 . S
O251 C250 1.245 . S
C252 O253 1.245 . S
C252 O254 1.289 . S
O253 C252 1.245 . S
O254 Mg247 2.141 . S
O254 C252 1.289 . S
O255 Mg247 2.048 . S
O255 C248 1.195 . S
O256 Mg247 2.048 . S
O256 C257 1.195 . S
C257 O256 1.195 . S
C257 O258 1.313 . S
O258 C257 1.313 . S
O259 Mg247 2.141 . S
O259 C250 1.289 . S
Mg260 O267 2.141 . S
Mg260 O268 2.048 . S
Mg260 O269 2.048 . S
Mg260 O272 2.141 . S
C261 O262 1.313 . S
C261 O268 1.195 . S
O262 C261 1.313 . S
C263 O264 1.245 . S
C263 O272 1.289 . S
O264 C263 1.245 . S
C265 O266 1.245 . S
C265 O267 1.289 . S
O266 C265 1.245 . S
O267 Mg260 2.141 . S
O267 C265 1.289 . S
O268 Mg260 2.048 . S
O268 C261 1.195 . S
O269 Mg260 2.048 . S
O269 C270 1.195 . S
C270 O269 1.195 . S
C270 O271 1.313 . S
O271 C270 1.313 . S
O272 Mg260 2.141 . S
O272 C263 1.289 . S
Mg273 O280 2.141 . S
Mg273 O281 2.048 . S
Mg273 O282 2.048 . S
Mg273 O285 2.141 . S
C274 O275 1.313 . S
C274 O281 1.195 . S
O275 C274 1.313 . S
C276 O277 1.245 . S
C276 O285 1.289 . S
O277 C276 1.245 . S
C278 O279 1.245 . S
C278 O280 1.289 . S
O279 C278 1.245 . S
O280 Mg273 2.141 . S
O280 C278 1.289 . S
O281 Mg273 2.048 . S
O281 C274 1.195 . S
O282 Mg273 2.048 . S
O282 C283 1.195 . S
C283 O282 1.195 . S
C283 O284 1.313 . S
O284 C283 1.313 . S
O285 Mg273 2.141 . S
O285 C276 1.289 . S
Mg286 O293 2.141 . S
Mg286 O294 2.048 . S
Mg286 O295 2.048 . S
Mg286 O298 2.141 . S
C287 O288 1.313 . S
C287 O294 1.195 . S
O288 C287 1.313 . S
C289 O290 1.245 . S
C289 O298 1.289 . S
O290 C289 1.245 . S
C291 O292 1.245 . S
C291 O293 1.289 . S
O292 C291 1.245 . S
O293 Mg286 2.141 . S
O293 C291 1.289 . S
O294 Mg286 2.048 . S
O294 C287 1.195 . S
O295 Mg286 2.048 . S
O295 C296 1.195 . S
C296 O295 1.195 . S
C296 O297 1.313 . S
O297 C296 1.313 . S
O298 Mg286 2.141 . S
O298 C289 1.289 . S
Mg299 O306 2.141 . S
Mg299 O307 2.048 . S
Mg299 O308 2.048 . S
Mg299 O311 2.141 . S
C300 O301 1.313 . S
C300 O307 1.195 . S
O301 C300 1.313 . S
C302 O303 1.245 . S
C302 O311 1.289 . S
O303 C302 1.245 . S
C304 O305 1.245 . S
C304 O306 1.289 . S
O305 C304 1.245 . S
O306 Mg299 2.141 . S
O306 C304 1.289 . S
O307 Mg299 2.048 . S
O307 C300 1.195 . S
O308 Mg299 2.048 . S
O308 C309 1.195 . S
C309 O308 1.195 . S
C309 O310 1.313 . S
O310 C309 1.313 . S
O311 Mg299 2.141 . S
O311 C302 1.289 . S
H312 C320 0.929 . S
H313 C322 0.930 . S
H314 C324 0.930 . S
H315 C327 0.929 . S
H316 C330 0.930 . S
H317 C332 0.960 . S
H318 C332 0.960 . S
H319 C332 0.960 . S
C320 H312 0.929 . S
C320 C321 1.377 . S
C320 C322 1.384 . S
C321 C320 1.377 . S
C321 C327 1.390 . S
C322 H313 0.930 . S
C322 C320 1.384 . S
C322 C323 1.372 . S
C323 C322 1.372 . S
C323 C324 1.400 . S
C323 C328 1.490 . S
C324 H314 0.930 . S
C324 C323 1.400 . S
C324 C327 1.386 . S
H325 C341 0.930 . S
H326 C342 0.931 . S
C327 H315 0.929 . S
C327 C321 1.390 . S
C327 C324 1.386 . S
C328 C323 1.490 . S
C328 C330 1.395 . S
C328 C331 1.403 . S
H329 C335 0.930 . S
C330 H316 0.930 . S
C330 C328 1.395 . S
C330 C333 1.403 . S
C331 C328 1.403 . S
C331 C332 1.524 . S
C331 C335 1.400 . S
C332 H317 0.960 . S
C332 H318 0.960 . S
C332 H319 0.960 . S
C332 C331 1.524 . S
C333 C330 1.403 . S
C333 C334 1.392 . S
C333 C337 1.495 . S
C334 C333 1.392 . S
C334 C335 1.385 . S
C334 C336 1.478 . S
C335 H329 0.930 . S
C335 C331 1.400 . S
C335 C334 1.385 . S
C336 C334 1.478 . S
C336 C338 1.381 . S
C336 C342 1.383 . S
C337 C333 1.495 . S
C337 H343 0.959 . S
C337 H344 0.961 . S
C337 H345 0.960 . S
C338 C336 1.381 . S
C338 C339 1.394 . S
C338 H346 0.930 . S
C339 C338 1.394 . S
C339 C340 1.383 . S
C339 H347 0.929 . S
C340 C339 1.383 . S
C340 C341 1.377 . S
C341 H325 0.930 . S
C341 C340 1.377 . S
C341 C342 1.379 . S
C342 H326 0.931 . S
C342 C336 1.383 . S
C342 C341 1.379 . S
H343 C337 0.959 . S
H344 C337 0.961 . S
H345 C337 0.960 . S
H346 C338 0.930 . S
H347 C339 0.929 . S
H348 C356 0.929 . S
H349 C358 0.930 . S
H350 C360 0.930 . S
H351 C363 0.929 . S
H352 C366 0.930 . S
H353 C368 0.960 . S
H354 C368 0.960 . S
H355 C368 0.960 . S
C356 H348 0.929 . S
C356 C357 1.377 . S
C356 C358 1.384 . S
C357 C356 1.377 . S
C357 C363 1.390 . S
C358 H349 0.930 . S
C358 C356 1.384 . S
C358 C359 1.372 . S
C359 C358 1.372 . S
C359 C360 1.400 . S
C359 C364 1.490 . S
C360 H350 0.930 . S
C360 C359 1.400 . S
C360 C363 1.386 . S
H361 C377 0.930 . S
H362 C378 0.931 . S
C363 H351 0.929 . S
C363 C357 1.390 . S
C363 C360 1.386 . S
C364 C359 1.490 . S
C364 C366 1.395 . S
C364 C367 1.403 . S
H365 C371 0.930 . S
C366 H352 0.930 . S
C366 C364 1.395 . S
C366 C369 1.403 . S
C367 C364 1.403 . S
C367 C368 1.524 . S
C367 C371 1.400 . S
C368 H353 0.960 . S
C368 H354 0.960 . S
C368 H355 0.960 . S
C368 C367 1.524 . S
C369 C366 1.403 . S
C369 C370 1.392 . S
C369 C373 1.495 . S
C370 C369 1.392 . S
C370 C371 1.385 . S
C370 C372 1.478 . S
C371 H365 0.930 . S
C371 C367 1.400 . S
C371 C370 1.385 . S
C372 C370 1.478 . S
C372 C374 1.381 . S
C372 C378 1.383 . S
C373 C369 1.495 . S
C373 H379 0.959 . S
C373 H380 0.961 . S
C373 H381 0.960 . S
C374 C372 1.381 . S
C374 C375 1.394 . S
C374 H382 0.930 . S
C375 C374 1.394 . S
C375 C376 1.383 . S
C375 H383 0.929 . S
C376 C375 1.383 . S
C376 C377 1.377 . S
C377 H361 0.930 . S
C377 C376 1.377 . S
C377 C378 1.379 . S
C378 H362 0.931 . S
C378 C372 1.383 . S
C378 C377 1.379 . S
H379 C373 0.959 . S
H380 C373 0.961 . S
H381 C373 0.960 . S
H382 C374 0.930 . S
H383 C375 0.929 . S
H384 C392 0.929 . S
H385 C394 0.930 . S
H386 C396 0.930 . S
H387 C399 0.929 . S
H388 C402 0.930 . S
H389 C404 0.960 . S
H390 C404 0.960 . S
H391 C404 0.960 . S
C392 H384 0.929 . S
C392 C393 1.377 . S
C392 C394 1.384 . S
C393 C392 1.377 . S
C393 C399 1.390 . S
C394 H385 0.930 . S
C394 C392 1.384 . S
C394 C395 1.372 . S
C395 C394 1.372 . S
C395 C396 1.400 . S
C395 C400 1.490 . S
C396 H386 0.930 . S
C396 C395 1.400 . S
C396 C399 1.386 . S
H397 C413 0.930 . S
H398 C414 0.931 . S
C399 H387 0.929 . S
C399 C393 1.390 . S
C399 C396 1.386 . S
C400 C395 1.490 . S
C400 C402 1.395 . S
C400 C403 1.403 . S
H401 C407 0.930 . S
C402 H388 0.930 . S
C402 C400 1.395 . S
C402 C405 1.403 . S
C403 C400 1.403 . S
C403 C404 1.524 . S
C403 C407 1.400 . S
C404 H389 0.960 . S
C404 H390 0.960 . S
C404 H391 0.960 . S
C404 C403 1.524 . S
C405 C402 1.403 . S
C405 C406 1.392 . S
C405 C409 1.495 . S
C406 C405 1.392 . S
C406 C407 1.385 . S
C406 C408 1.478 . S
C407 H401 0.930 . S
C407 C403 1.400 . S
C407 C406 1.385 . S
C408 C406 1.478 . S
C408 C410 1.381 . S
C408 C414 1.383 . S
C409 C405 1.495 . S
C409 H415 0.959 . S
C409 H416 0.961 . S
C409 H417 0.960 . S
C410 C408 1.381 . S
C410 C411 1.394 . S
C410 H418 0.930 . S
C411 C410 1.394 . S
C411 C412 1.383 . S
C411 H419 0.929 . S
C412 C411 1.383 . S
C412 C413 1.377 . S
C413 H397 0.930 . S
C413 C412 1.377 . S
C413 C414 1.379 . S
C414 H398 0.931 . S
C414 C408 1.383 . S
C414 C413 1.379 . S
H415 C409 0.959 . S
H416 C409 0.961 . S
H417 C409 0.960 . S
H418 C410 0.930 . S
H419 C411 0.929 . S
H420 C428 0.929 . S
H421 C430 0.930 . S
H422 C432 0.930 . S
H423 C435 0.929 . S
H424 C438 0.930 . S
H425 C440 0.960 . S
H426 C440 0.960 . S
H427 C440 0.960 . S
C428 H420 0.929 . S
C428 C429 1.377 . S
C428 C430 1.384 . S
C429 C428 1.377 . S
C429 C435 1.390 . S
C430 H421 0.930 . S
C430 C428 1.384 . S
C430 C431 1.372 . S
C431 C430 1.372 . S
C431 C432 1.400 . S
C431 C436 1.490 . S
C432 H422 0.930 . S
C432 C431 1.400 . S
C432 C435 1.386 . S
H433 C449 0.930 . S
H434 C450 0.931 . S
C435 H423 0.929 . S
C435 C429 1.390 . S
C435 C432 1.386 . S
C436 C431 1.490 . S
C436 C438 1.395 . S
C436 C439 1.403 . S
H437 C443 0.930 . S
C438 H424 0.930 . S
C438 C436 1.395 . S
C438 C441 1.403 . S
C439 C436 1.403 . S
C439 C440 1.524 . S
C439 C443 1.400 . S
C440 H425 0.960 . S
C440 H426 0.960 . S
C440 H427 0.960 . S
C440 C439 1.524 . S
C441 C438 1.403 . S
C441 C442 1.392 . S
C441 C445 1.495 . S
C442 C441 1.392 . S
C442 C443 1.385 . S
C442 C444 1.478 . S
C443 H437 0.930 . S
C443 C439 1.400 . S
C443 C442 1.385 . S
C444 C442 1.478 . S
C444 C446 1.381 . S
C444 C450 1.383 . S
C445 C441 1.495 . S
C445 H451 0.959 . S
C445 H452 0.961 . S
C445 H453 0.960 . S
C446 C444 1.381 . S
C446 C447 1.394 . S
C446 H454 0.930 . S
C447 C446 1.394 . S
C447 C448 1.383 . S
C447 H455 0.929 . S
C448 C447 1.383 . S
C448 C449 1.377 . S
C449 H433 0.930 . S
C449 C448 1.377 . S
C449 C450 1.379 . S
C450 H434 0.931 . S
C450 C444 1.383 . S
C450 C449 1.379 . S
H451 C445 0.959 . S
H452 C445 0.961 . S
H453 C445 0.960 . S
H454 C446 0.930 . S
H455 C447 0.929 . S
H456 C464 0.929 . S
H457 C466 0.930 . S
H458 C468 0.930 . S
H459 C471 0.929 . S
H460 C474 0.930 . S
H461 C476 0.960 . S
H462 C476 0.960 . S
H463 C476 0.960 . S
C464 H456 0.929 . S
C464 C465 1.377 . S
C464 C466 1.384 . S
C465 C464 1.377 . S
C465 C471 1.390 . S
C466 H457 0.930 . S
C466 C464 1.384 . S
C466 C467 1.372 . S
C467 C466 1.372 . S
C467 C468 1.400 . S
C467 C472 1.490 . S
C468 H458 0.930 . S
C468 C467 1.400 . S
C468 C471 1.386 . S
H469 C485 0.930 . S
H470 C486 0.931 . S
C471 H459 0.929 . S
C471 C465 1.390 . S
C471 C468 1.386 . S
C472 C467 1.490 . S
C472 C474 1.395 . S
C472 C475 1.403 . S
H473 C479 0.930 . S
C474 H460 0.930 . S
C474 C472 1.395 . S
C474 C477 1.403 . S
C475 C472 1.403 . S
C475 C476 1.524 . S
C475 C479 1.400 . S
C476 H461 0.960 . S
C476 H462 0.960 . S
C476 H463 0.960 . S
C476 C475 1.524 . S
C477 C474 1.403 . S
C477 C478 1.392 . S
C477 C481 1.495 . S
C478 C477 1.392 . S
C478 C479 1.385 . S
C478 C480 1.478 . S
C479 H473 0.930 . S
C479 C475 1.400 . S
C479 C478 1.385 . S
C480 C478 1.478 . S
C480 C482 1.381 . S
C480 C486 1.383 . S
C481 C477 1.495 . S
C481 H487 0.959 . S
C481 H488 0.961 . S
C481 H489 0.960 . S
C482 C480 1.381 . S
C482 C483 1.394 . S
C482 H490 0.930 . S
C483 C482 1.394 . S
C483 C484 1.383 . S
C483 H491 0.929 . S
C484 C483 1.383 . S
C484 C485 1.377 . S
C485 H469 0.930 . S
C485 C484 1.377 . S
C485 C486 1.379 . S
C486 H470 0.931 . S
C486 C480 1.383 . S
C486 C485 1.379 . S
H487 C481 0.959 . S
H488 C481 0.961 . S
H489 C481 0.960 . S
H490 C482 0.930 . S
H491 C483 0.929 . S
H492 C500 0.929 . S
H493 C502 0.930 . S
H494 C504 0.930 . S
H495 C507 0.929 . S
H496 C510 0.930 . S
H497 C512 0.960 . S
H498 C512 0.960 . S
H499 C512 0.960 . S
C500 H492 0.929 . S
C500 C501 1.377 . S
C500 C502 1.384 . S
C501 C500 1.377 . S
C501 C507 1.390 . S
C502 H493 0.930 . S
C502 C500 1.384 . S
C502 C503 1.372 . S
C503 C502 1.372 . S
C503 C504 1.400 . S
C503 C508 1.490 . S
C504 H494 0.930 . S
C504 C503 1.400 . S
C504 C507 1.386 . S
H505 C521 0.930 . S
H506 C522 0.931 . S
C507 H495 0.929 . S
C507 C501 1.390 . S
C507 C504 1.386 . S
C508 C503 1.490 . S
C508 C510 1.395 . S
C508 C511 1.403 . S
H509 C515 0.930 . S
C510 H496 0.930 . S
C510 C508 1.395 . S
C510 C513 1.403 . S
C511 C508 1.403 . S
C511 C512 1.524 . S
C511 C515 1.400 . S
C512 H497 0.960 . S
C512 H498 0.960 . S
C512 H499 0.960 . S
C512 C511 1.524 . S
C513 C510 1.403 . S
C513 C514 1.392 . S
C513 C517 1.495 . S
C514 C513 1.392 . S
C514 C515 1.385 . S
C514 C516 1.478 . S
C515 H509 0.930 . S
C515 C511 1.400 . S
C515 C514 1.385 . S
C516 C514 1.478 . S
C516 C518 1.381 . S
C516 C522 1.383 . S
C517 C513 1.495 . S
C517 H523 0.959 . S
C517 H524 0.961 . S
C517 H525 0.960 . S
C518 C516 1.381 . S
C518 C519 1.394 . S
C518 H526 0.930 . S
C519 C518 1.394 . S
C519 C520 1.383 . S
C519 H527 0.929 . S
C520 C519 1.383 . S
C520 C521 1.377 . S
C521 H505 0.930 . S
C521 C520 1.377 . S
C521 C522 1.379 . S
C522 H506 0.931 . S
C522 C516 1.383 . S
C522 C521 1.379 . S
H523 C517 0.959 . S
H524 C517 0.961 . S
H525 C517 0.960 . S
H526 C518 0.930 . S
H527 C519 0.929 . S
H528 C536 0.929 . S
H529 C538 0.930 . S
H530 C540 0.930 . S
H531 C543 0.929 . S
H532 C546 0.930 . S
H533 C548 0.960 . S
H534 C548 0.960 . S
H535 C548 0.960 . S
C536 H528 0.929 . S
C536 C537 1.377 . S
C536 C538 1.384 . S
C537 C536 1.377 . S
C537 C543 1.390 . S
C538 H529 0.930 . S
C538 C536 1.384 . S
C538 C539 1.372 . S
C539 C538 1.372 . S
C539 C540 1.400 . S
C539 C544 1.490 . S
C540 H530 0.930 . S
C540 C539 1.400 . S
C540 C543 1.386 . S
H541 C557 0.930 . S
H542 C558 0.931 . S
C543 H531 0.929 . S
C543 C537 1.390 . S
C543 C540 1.386 . S
C544 C539 1.490 . S
C544 C546 1.395 . S
C544 C547 1.403 . S
H545 C551 0.930 . S
C546 H532 0.930 . S
C546 C544 1.395 . S
C546 C549 1.403 . S
C547 C544 1.403 . S
C547 C548 1.524 . S
C547 C551 1.400 . S
C548 H533 0.960 . S
C548 H534 0.960 . S
C548 H535 0.960 . S
C548 C547 1.524 . S
C549 C546 1.403 . S
C549 C550 1.392 . S
C549 C553 1.495 . S
C550 C549 1.392 . S
C550 C551 1.385 . S
C550 C552 1.478 . S
C551 H545 0.930 . S
C551 C547 1.400 . S
C551 C550 1.385 . S
C552 C550 1.478 . S
C552 C554 1.381 . S
C552 C558 1.383 . S
C553 C549 1.495 . S
C553 H559 0.959 . S
C553 H560 0.961 . S
C553 H561 0.960 . S
C554 C552 1.381 . S
C554 C555 1.394 . S
C554 H562 0.930 . S
C555 C554 1.394 . S
C555 C556 1.383 . S
C555 H563 0.929 . S
C556 C555 1.383 . S
C556 C557 1.377 . S
C557 H541 0.930 . S
C557 C556 1.377 . S
C557 C558 1.379 . S
C558 H542 0.931 . S
C558 C552 1.383 . S
C558 C557 1.379 . S
H559 C553 0.959 . S
H560 C553 0.961 . S
H561 C553 0.960 . S
H562 C554 0.930 . S
H563 C555 0.929 . S
H564 C572 0.929 . S
H565 C574 0.930 . S
H566 C576 0.930 . S
H567 C579 0.929 . S
H568 C582 0.930 . S
H569 C584 0.960 . S
H570 C584 0.960 . S
H571 C584 0.960 . S
C572 H564 0.929 . S
C572 C573 1.377 . S
C572 C574 1.384 . S
C573 C572 1.377 . S
C573 C579 1.390 . S
C574 H565 0.930 . S
C574 C572 1.384 . S
C574 C575 1.372 . S
C575 C574 1.372 . S
C575 C576 1.400 . S
C575 C580 1.490 . S
C576 H566 0.930 . S
C576 C575 1.400 . S
C576 C579 1.386 . S
H577 C593 0.930 . S
H578 C594 0.931 . S
C579 H567 0.929 . S
C579 C573 1.390 . S
C579 C576 1.386 . S
C580 C575 1.490 . S
C580 C582 1.395 . S
C580 C583 1.403 . S
H581 C587 0.930 . S
C582 H568 0.930 . S
C582 C580 1.395 . S
C582 C585 1.403 . S
C583 C580 1.403 . S
C583 C584 1.524 . S
C583 C587 1.400 . S
C584 H569 0.960 . S
C584 H570 0.960 . S
C584 H571 0.960 . S
C584 C583 1.524 . S
C585 C582 1.403 . S
C585 C586 1.392 . S
C585 C589 1.495 . S
C586 C585 1.392 . S
C586 C587 1.385 . S
C586 C588 1.478 . S
C587 H581 0.930 . S
C587 C583 1.400 . S
C587 C586 1.385 . S
C588 C586 1.478 . S
C588 C590 1.381 . S
C588 C594 1.383 . S
C589 C585 1.495 . S
C589 H595 0.959 . S
C589 H596 0.961 . S
C589 H597 0.960 . S
C590 C588 1.381 . S
C590 C591 1.394 . S
C590 H598 0.930 . S
C591 C590 1.394 . S
C591 C592 1.383 . S
C591 H599 0.929 . S
C592 C591 1.383 . S
C592 C593 1.377 . S
C593 H577 0.930 . S
C593 C592 1.377 . S
C593 C594 1.379 . S
C594 H578 0.931 . S
C594 C588 1.383 . S
C594 C593 1.379 . S
H595 C589 0.959 . S
H596 C589 0.961 . S
H597 C589 0.960 . S
H598 C590 0.930 . S
H599 C591 0.929 . S
H600 C608 0.929 . S
H601 C610 0.930 . S
H602 C612 0.930 . S
H603 C615 0.929 . S
H604 C618 0.930 . S
H605 C620 0.960 . S
H606 C620 0.960 . S
H607 C620 0.960 . S
C608 H600 0.929 . S
C608 C609 1.377 . S
C608 C610 1.384 . S
C609 C608 1.377 . S
C609 C615 1.390 . S
C610 H601 0.930 . S
C610 C608 1.384 . S
C610 C611 1.372 . S
C611 C610 1.372 . S
C611 C612 1.400 . S
C611 C616 1.490 . S
C612 H602 0.930 . S
C612 C611 1.400 . S
C612 C615 1.386 . S
H613 C629 0.930 . S
H614 C630 0.931 . S
C615 H603 0.929 . S
C615 C609 1.390 . S
C615 C612 1.386 . S
C616 C611 1.490 . S
C616 C618 1.395 . S
C616 C619 1.403 . S
H617 C623 0.930 . S
C618 H604 0.930 . S
C618 C616 1.395 . S
C618 C621 1.403 . S
C619 C616 1.403 . S
C619 C620 1.524 . S
C619 C623 1.400 . S
C620 H605 0.960 . S
C620 H606 0.960 . S
C620 H607 0.960 . S
C620 C619 1.524 . S
C621 C618 1.403 . S
C621 C622 1.392 . S
C621 C625 1.495 . S
C622 C621 1.392 . S
C622 C623 1.385 . S
C622 C624 1.478 . S
C623 H617 0.930 . S
C623 C619 1.400 . S
C623 C622 1.385 . S
C624 C622 1.478 . S
C624 C626 1.381 . S
C624 C630 1.383 . S
C625 C621 1.495 . S
C625 H631 0.959 . S
C625 H632 0.961 . S
C625 H633 0.960 . S
C626 C624 1.381 . S
C626 C627 1.394 . S
C626 H634 0.930 . S
C627 C626 1.394 . S
C627 C628 1.383 . S
C627 H635 0.929 . S
C628 C627 1.383 . S
C628 C629 1.377 . S
C629 H613 0.930 . S
C629 C628 1.377 . S
C629 C630 1.379 . S
C630 H614 0.931 . S
C630 C624 1.383 . S
C630 C629 1.379 . S
H631 C625 0.959 . S
H632 C625 0.961 . S
H633 C625 0.960 . S
H634 C626 0.930 . S
H635 C627 0.929 . S
H636 C644 0.929 . S
H637 C646 0.930 . S
H638 C648 0.930 . S
H639 C651 0.929 . S
H640 C654 0.930 . S
H641 C656 0.960 . S
H642 C656 0.960 . S
H643 C656 0.960 . S
C644 H636 0.929 . S
C644 C645 1.377 . S
C644 C646 1.384 . S
C645 C644 1.377 . S
C645 C651 1.390 . S
C646 H637 0.930 . S
C646 C644 1.384 . S
C646 C647 1.372 . S
C647 C646 1.372 . S
C647 C648 1.400 . S
C647 C652 1.490 . S
C648 H638 0.930 . S
C648 C647 1.400 . S
C648 C651 1.386 . S
H649 C665 0.930 . S
H650 C666 0.931 . S
C651 H639 0.929 . S
C651 C645 1.390 . S
C651 C648 1.386 . S
C652 C647 1.490 . S
C652 C654 1.395 . S
C652 C655 1.403 . S
H653 C659 0.930 . S
C654 H640 0.930 . S
C654 C652 1.395 . S
C654 C657 1.403 . S
C655 C652 1.403 . S
C655 C656 1.524 . S
C655 C659 1.400 . S
C656 H641 0.960 . S
C656 H642 0.960 . S
C656 H643 0.960 . S
C656 C655 1.524 . S
C657 C654 1.403 . S
C657 C658 1.392 . S
C657 C661 1.495 . S
C658 C657 1.392 . S
C658 C659 1.385 . S
C658 C660 1.478 . S
C659 H653 0.930 . S
C659 C655 1.400 . S
C659 C658 1.385 . S
C660 C658 1.478 . S
C660 C662 1.381 . S
C660 C666 1.383 . S
C661 C657 1.495 . S
C661 H667 0.959 . S
C661 H668 0.961 . S
C661 H669 0.960 . S
C662 C660 1.381 . S
C662 C663 1.394 . S
C662 H670 0.930 . S
C663 C662 1.394 . S
C663 C664 1.383 . S
C663 H671 0.929 . S
C664 C663 1.383 . S
C664 C665 1.377 . S
C665 H649 0.930 . S
C665 C664 1.377 . S
C665 C666 1.379 . S
C666 H650 0.931 . S
C666 C660 1.383 . S
C666 C665 1.379 . S
H667 C661 0.959 . S
H668 C661 0.961 . S
H669 C661 0.960 . S
H670 C662 0.930 . S
H671 C663 0.929 . S
H672 C680 0.929 . S
H673 C682 0.930 . S
H674 C684 0.930 . S
H675 C687 0.929 . S
H676 C690 0.930 . S
H677 C692 0.960 . S
H678 C692 0.960 . S
H679 C692 0.960 . S
C680 H672 0.929 . S
C680 C681 1.377 . S
C680 C682 1.384 . S
C681 C680 1.377 . S
C681 C687 1.390 . S
C682 H673 0.930 . S
C682 C680 1.384 . S
C682 C683 1.372 . S
C683 C682 1.372 . S
C683 C684 1.400 . S
C683 C688 1.490 . S
C684 H674 0.930 . S
C684 C683 1.400 . S
C684 C687 1.386 . S
H685 C701 0.930 . S
H686 C702 0.931 . S
C687 H675 0.929 . S
C687 C681 1.390 . S
C687 C684 1.386 . S
C688 C683 1.490 . S
C688 C690 1.395 . S
C688 C691 1.403 . S
H689 C695 0.930 . S
C690 H676 0.930 . S
C690 C688 1.395 . S
C690 C693 1.403 . S
C691 C688 1.403 . S
C691 C692 1.524 . S
C691 C695 1.400 . S
C692 H677 0.960 . S
C692 H678 0.960 . S
C692 H679 0.960 . S
C692 C691 1.524 . S
C693 C690 1.403 . S
C693 C694 1.392 . S
C693 C697 1.495 . S
C694 C693 1.392 . S
C694 C695 1.385 . S
C694 C696 1.478 . S
C695 H689 0.930 . S
C695 C691 1.400 . S
C695 C694 1.385 . S
C696 C694 1.478 . S
C696 C698 1.381 . S
C696 C702 1.383 . S
C697 C693 1.495 . S
C697 H703 0.959 . S
C697 H704 0.961 . S
C697 H705 0.960 . S
C698 C696 1.381 . S
C698 C699 1.394 . S
C698 H706 0.930 . S
C699 C698 1.394 . S
C699 C700 1.383 . S
C699 H707 0.929 . S
C700 C699 1.383 . S
C700 C701 1.377 . S
C701 H685 0.930 . S
C701 C700 1.377 . S
C701 C702 1.379 . S
C702 H686 0.931 . S
C702 C696 1.383 . S
C702 C701 1.379 . S
H703 C697 0.959 . S
H704 C697 0.961 . S
H705 C697 0.960 . S
H706 C698 0.930 . S
H707 C699 0.929 . S
H708 C716 0.929 . S
H709 C718 0.930 . S
H710 C720 0.930 . S
H711 C723 0.929 . S
H712 C726 0.930 . S
H713 C728 0.960 . S
H714 C728 0.960 . S
H715 C728 0.960 . S
C716 H708 0.929 . S
C716 C717 1.377 . S
C716 C718 1.384 . S
C717 C716 1.377 . S
C717 C723 1.390 . S
C718 H709 0.930 . S
C718 C716 1.384 . S
C718 C719 1.372 . S
C719 C718 1.372 . S
C719 C720 1.400 . S
C719 C724 1.490 . S
C720 H710 0.930 . S
C720 C719 1.400 . S
C720 C723 1.386 . S
H721 C737 0.930 . S
H722 C738 0.931 . S
C723 H711 0.929 . S
C723 C717 1.390 . S
C723 C720 1.386 . S
C724 C719 1.490 . S
C724 C726 1.395 . S
C724 C727 1.403 . S
H725 C731 0.930 . S
C726 H712 0.930 . S
C726 C724 1.395 . S
C726 C729 1.403 . S
C727 C724 1.403 . S
C727 C728 1.524 . S
C727 C731 1.400 . S
C728 H713 0.960 . S
C728 H714 0.960 . S
C728 H715 0.960 . S
C728 C727 1.524 . S
C729 C726 1.403 . S
C729 C730 1.392 . S
C729 C733 1.495 . S
C730 C729 1.392 . S
C730 C731 1.385 . S
C730 C732 1.478 . S
C731 H725 0.930 . S
C731 C727 1.400 . S
C731 C730 1.385 . S
C732 C730 1.478 . S
C732 C734 1.381 . S
C732 C738 1.383 . S
C733 C729 1.495 . S
C733 H739 0.959 . S
C733 H740 0.961 . S
C733 H741 0.960 . S
C734 C732 1.381 . S
C734 C735 1.394 . S
C734 H742 0.930 . S
C735 C734 1.394 . S
C735 C736 1.383 . S
C735 H743 0.929 . S
C736 C735 1.383 . S
C736 C737 1.377 . S
C737 H721 0.930 . S
C737 C736 1.377 . S
C737 C738 1.379 . S
C738 H722 0.931 . S
C738 C732 1.383 . S
C738 C737 1.379 . S
H739 C733 0.959 . S
H740 C733 0.961 . S
H741 C733 0.960 . S
H742 C734 0.930 . S
H743 C735 0.929 . S
H744 C752 0.929 . S
H745 C754 0.930 . S
H746 C756 0.930 . S
H747 C759 0.929 . S
H748 C762 0.930 . S
H749 C764 0.960 . S
H750 C764 0.960 . S
H751 C764 0.960 . S
C752 H744 0.929 . S
C752 C753 1.377 . S
C752 C754 1.384 . S
C753 C752 1.377 . S
C753 C759 1.390 . S
C754 H745 0.930 . S
C754 C752 1.384 . S
C754 C755 1.372 . S
C755 C754 1.372 . S
C755 C756 1.400 . S
C755 C760 1.490 . S
C756 H746 0.930 . S
C756 C755 1.400 . S
C756 C759 1.386 . S
H757 C773 0.930 . S
H758 C774 0.931 . S
C759 H747 0.929 . S
C759 C753 1.390 . S
C759 C756 1.386 . S
C760 C755 1.490 . S
C760 C762 1.395 . S
C760 C763 1.403 . S
H761 C767 0.930 . S
C762 H748 0.930 . S
C762 C760 1.395 . S
C762 C765 1.403 . S
C763 C760 1.403 . S
C763 C764 1.524 . S
C763 C767 1.400 . S
C764 H749 0.960 . S
C764 H750 0.960 . S
C764 H751 0.960 . S
C764 C763 1.524 . S
C765 C762 1.403 . S
C765 C766 1.392 . S
C765 C769 1.495 . S
C766 C765 1.392 . S
C766 C767 1.385 . S
C766 C768 1.478 . S
C767 H761 0.930 . S
C767 C763 1.400 . S
C767 C766 1.385 . S
C768 C766 1.478 . S
C768 C770 1.381 . S
C768 C774 1.383 . S
C769 C765 1.495 . S
C769 H775 0.959 . S
C769 H776 0.961 . S
C769 H777 0.960 . S
C770 C768 1.381 . S
C770 C771 1.394 . S
C770 H778 0.930 . S
C771 C770 1.394 . S
C771 C772 1.383 . S
C771 H779 0.929 . S
C772 C771 1.383 . S
C772 C773 1.377 . S
C773 H757 0.930 . S
C773 C772 1.377 . S
C773 C774 1.379 . S
C774 H758 0.931 . S
C774 C768 1.383 . S
C774 C773 1.379 . S
H775 C769 0.959 . S
H776 C769 0.961 . S
H777 C769 0.960 . S
H778 C770 0.930 . S
H779 C771 0.929 . S
H780 C788 0.929 . S
H781 C790 0.930 . S
H782 C792 0.930 . S
H783 C795 0.929 . S
H784 C798 0.930 . S
H785 C800 0.960 . S
H786 C800 0.960 . S
H787 C800 0.960 . S
C788 H780 0.929 . S
C788 C789 1.377 . S
C788 C790 1.384 . S
C789 C788 1.377 . S
C789 C795 1.390 . S
C790 H781 0.930 . S
C790 C788 1.384 . S
C790 C791 1.372 . S
C791 C790 1.372 . S
C791 C792 1.400 . S
C791 C796 1.490 . S
C792 H782 0.930 . S
C792 C791 1.400 . S
C792 C795 1.386 . S
H793 C809 0.930 . S
H794 C810 0.931 . S
C795 H783 0.929 . S
C795 C789 1.390 . S
C795 C792 1.386 . S
C796 C791 1.490 . S
C796 C798 1.395 . S
C796 C799 1.403 . S
H797 C803 0.930 . S
C798 H784 0.930 . S
C798 C796 1.395 . S
C798 C801 1.403 . S
C799 C796 1.403 . S
C799 C800 1.524 . S
C799 C803 1.400 . S
C800 H785 0.960 . S
C800 H786 0.960 . S
C800 H787 0.960 . S
C800 C799 1.524 . S
C801 C798 1.403 . S
C801 C802 1.392 . S
C801 C805 1.495 . S
C802 C801 1.392 . S
C802 C803 1.385 . S
C802 C804 1.478 . S
C803 H797 0.930 . S
C803 C799 1.400 . S
C803 C802 1.385 . S
C804 C802 1.478 . S
C804 C806 1.381 . S
C804 C810 1.383 . S
C805 C801 1.495 . S
C805 H811 0.959 . S
C805 H812 0.961 . S
C805 H813 0.960 . S
C806 C804 1.381 . S
C806 C807 1.394 . S
C806 H814 0.930 . S
C807 C806 1.394 . S
C807 C808 1.383 . S
C807 H815 0.929 . S
C808 C807 1.383 . S
C808 C809 1.377 . S
C809 H793 0.930 . S
C809 C808 1.377 . S
C809 C810 1.379 . S
C810 H794 0.931 . S
C810 C804 1.383 . S
C810 C809 1.379 . S
H811 C805 0.959 . S
H812 C805 0.961 . S
H813 C805 0.960 . S
H814 C806 0.930 . S
H815 C807 0.929 . S
H816 C824 0.929 . S
H817 C826 0.930 . S
H818 C828 0.930 . S
H819 C831 0.929 . S
H820 C834 0.930 . S
H821 C836 0.960 . S
H822 C836 0.960 . S
H823 C836 0.960 . S
C824 H816 0.929 . S
C824 C825 1.377 . S
C824 C826 1.384 . S
C825 C824 1.377 . S
C825 C831 1.390 . S
C826 H817 0.930 . S
C826 C824 1.384 . S
C826 C827 1.372 . S
C827 C826 1.372 . S
C827 C828 1.400 . S
C827 C832 1.490 . S
C828 H818 0.930 . S
C828 C827 1.400 . S
C828 C831 1.386 . S
H829 C845 0.930 . S
H830 C846 0.931 . S
C831 H819 0.929 . S
C831 C825 1.390 . S
C831 C828 1.386 . S
C832 C827 1.490 . S
C832 C834 1.395 . S
C832 C835 1.403 . S
H833 C839 0.930 . S
C834 H820 0.930 . S
C834 C832 1.395 . S
C834 C837 1.403 . S
C835 C832 1.403 . S
C835 C836 1.524 . S
C835 C839 1.400 . S
C836 H821 0.960 . S
C836 H822 0.960 . S
C836 H823 0.960 . S
C836 C835 1.524 . S
C837 C834 1.403 . S
C837 C838 1.392 . S
C837 C841 1.495 . S
C838 C837 1.392 . S
C838 C839 1.385 . S
C838 C840 1.478 . S
C839 H833 0.930 . S
C839 C835 1.400 . S
C839 C838 1.385 . S
C840 C838 1.478 . S
C840 C842 1.381 . S
C840 C846 1.383 . S
C841 C837 1.495 . S
C841 H847 0.959 . S
C841 H848 0.961 . S
C841 H849 0.960 . S
C842 C840 1.381 . S
C842 C843 1.394 . S
C842 H850 0.930 . S
C843 C842 1.394 . S
C843 C844 1.383 . S
C843 H851 0.929 . S
C844 C843 1.383 . S
C844 C845 1.377 . S
C845 H829 0.930 . S
C845 C844 1.377 . S
C845 C846 1.379 . S
C846 H830 0.931 . S
C846 C840 1.383 . S
C846 C845 1.379 . S
H847 C841 0.959 . S
H848 C841 0.961 . S
H849 C841 0.960 . S
H850 C842 0.930 . S
H851 C843 0.929 . S
H852 C860 0.929 . S
H853 C862 0.930 . S
H854 C864 0.930 . S
H855 C867 0.929 . S
H856 C870 0.930 . S
H857 C872 0.960 . S
H858 C872 0.960 . S
H859 C872 0.960 . S
C860 H852 0.929 . S
C860 C861 1.377 . S
C860 C862 1.384 . S
C861 C860 1.377 . S
C861 C867 1.390 . S
C862 H853 0.930 . S
C862 C860 1.384 . S
C862 C863 1.372 . S
C863 C862 1.372 . S
C863 C864 1.400 . S
C863 C868 1.490 . S
C864 H854 0.930 . S
C864 C863 1.400 . S
C864 C867 1.386 . S
H865 C881 0.930 . S
H866 C882 0.931 . S
C867 H855 0.929 . S
C867 C861 1.390 . S
C867 C864 1.386 . S
C868 C863 1.490 . S
C868 C870 1.395 . S
C868 C871 1.403 . S
H869 C875 0.930 . S
C870 H856 0.930 . S
C870 C868 1.395 . S
C870 C873 1.403 . S
C871 C868 1.403 . S
C871 C872 1.524 . S
C871 C875 1.400 . S
C872 H857 0.960 . S
C872 H858 0.960 . S
C872 H859 0.960 . S
C872 C871 1.524 . S
C873 C870 1.403 . S
C873 C874 1.392 . S
C873 C877 1.495 . S
C874 C873 1.392 . S
C874 C875 1.385 . S
C874 C876 1.478 . S
C875 H869 0.930 . S
C875 C871 1.400 . S
C875 C874 1.385 . S
C876 C874 1.478 . S
C876 C878 1.381 . S
C876 C882 1.383 . S
C877 C873 1.495 . S
C877 H883 0.959 . S
C877 H884 0.961 . S
C877 H885 0.960 . S
C878 C876 1.381 . S
C878 C879 1.394 . S
C878 H886 0.930 . S
C879 C878 1.394 . S
C879 C880 1.383 . S
C879 H887 0.929 . S
C880 C879 1.383 . S
C880 C881 1.377 . S
C881 H865 0.930 . S
C881 C880 1.377 . S
C881 C882 1.379 . S
C882 H866 0.931 . S
C882 C876 1.383 . S
C882 C881 1.379 . S
H883 C877 0.959 . S
H884 C877 0.961 . S
H885 C877 0.960 . S
H886 C878 0.930 . S
H887 C879 0.929 . S
H888 C896 0.929 . S
H889 C898 0.930 . S
H890 C900 0.930 . S
H891 C903 0.929 . S
H892 C906 0.930 . S
H893 C908 0.960 . S
H894 C908 0.960 . S
H895 C908 0.960 . S
C896 H888 0.929 . S
C896 C897 1.377 . S
C896 C898 1.384 . S
C897 C896 1.377 . S
C897 C903 1.390 . S
C898 H889 0.930 . S
C898 C896 1.384 . S
C898 C899 1.372 . S
C899 C898 1.372 . S
C899 C900 1.400 . S
C899 C904 1.490 . S
C900 H890 0.930 . S
C900 C899 1.400 . S
C900 C903 1.386 . S
H901 C917 0.930 . S
H902 C918 0.931 . S
C903 H891 0.929 . S
C903 C897 1.390 . S
C903 C900 1.386 . S
C904 C899 1.490 . S
C904 C906 1.395 . S
C904 C907 1.403 . S
H905 C911 0.930 . S
C906 H892 0.930 . S
C906 C904 1.395 . S
C906 C909 1.403 . S
C907 C904 1.403 . S
C907 C908 1.524 . S
C907 C911 1.400 . S
C908 H893 0.960 . S
C908 H894 0.960 . S
C908 H895 0.960 . S
C908 C907 1.524 . S
C909 C906 1.403 . S
C909 C910 1.392 . S
C909 C913 1.495 . S
C910 C909 1.392 . S
C910 C911 1.385 . S
C910 C912 1.478 . S
C911 H905 0.930 . S
C911 C907 1.400 . S
C911 C910 1.385 . S
C912 C910 1.478 . S
C912 C914 1.381 . S
C912 C918 1.383 . S
C913 C909 1.495 . S
C913 H919 0.959 . S
C913 H920 0.961 . S
C913 H921 0.960 . S
C914 C912 1.381 . S
C914 C915 1.394 . S
C914 H922 0.930 . S
C915 C914 1.394 . S
C915 C916 1.383 . S
C915 H923 0.929 . S
C916 C915 1.383 . S
C916 C917 1.377 . S
C917 H901 0.930 . S
C917 C916 1.377 . S
C917 C918 1.379 . S
C918 H902 0.931 . S
C918 C912 1.383 . S
C918 C917 1.379 . S
H919 C913 0.959 . S
H920 C913 0.961 . S
H921 C913 0.960 . S
H922 C914 0.930 . S
H923 C915 0.929 . S
H924 C932 0.929 . S
H925 C934 0.930 . S
H926 C936 0.930 . S
H927 C939 0.929 . S
H928 C942 0.930 . S
H929 C944 0.960 . S
H930 C944 0.960 . S
H931 C944 0.960 . S
C932 H924 0.929 . S
C932 C933 1.377 . S
C932 C934 1.384 . S
C933 C932 1.377 . S
C933 C939 1.390 . S
C934 H925 0.930 . S
C934 C932 1.384 . S
C934 C935 1.372 . S
C935 C934 1.372 . S
C935 C936 1.400 . S
C935 C940 1.490 . S
C936 H926 0.930 . S
C936 C935 1.400 . S
C936 C939 1.386 . S
H937 C953 0.930 . S
H938 C954 0.931 . S
C939 H927 0.929 . S
C939 C933 1.390 . S
C939 C936 1.386 . S
C940 C935 1.490 . S
C940 C942 1.395 . S
C940 C943 1.403 . S
H941 C947 0.930 . S
C942 H928 0.930 . S
C942 C940 1.395 . S
C942 C945 1.403 . S
C943 C940 1.403 . S
C943 C944 1.524 . S
C943 C947 1.400 . S
C944 H929 0.960 . S
C944 H930 0.960 . S
C944 H931 0.960 . S
C944 C943 1.524 . S
C945 C942 1.403 . S
C945 C946 1.392 . S
C945 C949 1.495 . S
C946 C945 1.392 . S
C946 C947 1.385 . S
C946 C948 1.478 . S
C947 H941 0.930 . S
C947 C943 1.400 . S
C947 C946 1.385 . S
C948 C946 1.478 . S
C948 C950 1.381 . S
C948 C954 1.383 . S
C949 C945 1.495 . S
C949 H955 0.959 . S
C949 H956 0.961 . S
C949 H957 0.960 . S
C950 C948 1.381 . S
C950 C951 1.394 . S
C950 H958 0.930 . S
C951 C950 1.394 . S
C951 C952 1.383 . S
C951 H959 0.929 . S
C952 C951 1.383 . S
C952 C953 1.377 . S
C953 H937 0.930 . S
C953 C952 1.377 . S
C953 C954 1.379 . S
C954 H938 0.931 . S
C954 C948 1.383 . S
C954 C953 1.379 . S
H955 C949 0.959 . S
H956 C949 0.961 . S
H957 C949 0.960 . S
H958 C950 0.930 . S
H959 C951 0.929 . S
H960 C968 0.929 . S
H961 C970 0.930 . S
H962 C972 0.930 . S
H963 C975 0.929 . S
H964 C978 0.930 . S
H965 C980 0.960 . S
H966 C980 0.960 . S
H967 C980 0.960 . S
C968 H960 0.929 . S
C968 C969 1.377 . S
C968 C970 1.384 . S
C969 C968 1.377 . S
C969 C975 1.390 . S
C970 H961 0.930 . S
C970 C968 1.384 . S
C970 C971 1.372 . S
C971 C970 1.372 . S
C971 C972 1.400 . S
C971 C976 1.490 . S
C972 H962 0.930 . S
C972 C971 1.400 . S
C972 C975 1.386 . S
H973 C989 0.930 . S
H974 C990 0.931 . S
C975 H963 0.929 . S
C975 C969 1.390 . S
C975 C972 1.386 . S
C976 C971 1.490 . S
C976 C978 1.395 . S
C976 C979 1.403 . S
H977 C983 0.930 . S
C978 H964 0.930 . S
C978 C976 1.395 . S
C978 C981 1.403 . S
C979 C976 1.403 . S
C979 C980 1.524 . S
C979 C983 1.400 . S
C980 H965 0.960 . S
C980 H966 0.960 . S
C980 H967 0.960 . S
C980 C979 1.524 . S
C981 C978 1.403 . S
C981 C982 1.392 . S
C981 C985 1.495 . S
C982 C981 1.392 . S
C982 C983 1.385 . S
C982 C984 1.478 . S
C983 H977 0.930 . S
C983 C979 1.400 . S
C983 C982 1.385 . S
C984 C982 1.478 . S
C984 C986 1.381 . S
C984 C990 1.383 . S
C985 C981 1.495 . S
C985 H991 0.959 . S
C985 H992 0.961 . S
C985 H993 0.960 . S
C986 C984 1.381 . S
C986 C987 1.394 . S
C986 H994 0.930 . S
C987 C986 1.394 . S
C987 C988 1.383 . S
C987 H995 0.929 . S
C988 C987 1.383 . S
C988 C989 1.377 . S
C989 H973 0.930 . S
C989 C988 1.377 . S
C989 C990 1.379 . S
C990 H974 0.931 . S
C990 C984 1.383 . S
C990 C989 1.379 . S
H991 C985 0.959 . S
H992 C985 0.961 . S
H993 C985 0.960 . S
H994 C986 0.930 . S
H995 C987 0.929 . S
H996 C1004 0.929 . S
H997 C1006 0.930 . S
H998 C1008 0.930 . S
H999 C1011 0.929 . S
H1000 C1014 0.930 . S
H1001 C1016 0.960 . S
H1002 C1016 0.960 . S
H1003 C1016 0.960 . S
C1004 H996 0.929 . S
C1004 C1005 1.377 . S
C1004 C1006 1.384 . S
C1005 C1004 1.377 . S
C1005 C1011 1.390 . S
C1006 H997 0.930 . S
C1006 C1004 1.384 . S
C1006 C1007 1.372 . S
C1007 C1006 1.372 . S
C1007 C1008 1.400 . S
C1007 C1012 1.490 . S
C1008 H998 0.930 . S
C1008 C1007 1.400 . S
C1008 C1011 1.386 . S
H1009 C1025 0.930 . S
H1010 C1026 0.931 . S
C1011 H999 0.929 . S
C1011 C1005 1.390 . S
C1011 C1008 1.386 . S
C1012 C1007 1.490 . S
C1012 C1014 1.395 . S
C1012 C1015 1.403 . S
H1013 C1019 0.930 . S
C1014 H1000 0.930 . S
C1014 C1012 1.395 . S
C1014 C1017 1.403 . S
C1015 C1012 1.403 . S
C1015 C1016 1.524 . S
C1015 C1019 1.400 . S
C1016 H1001 0.960 . S
C1016 H1002 0.960 . S
C1016 H1003 0.960 . S
C1016 C1015 1.524 . S
C1017 C1014 1.403 . S
C1017 C1018 1.392 . S
C1017 C1021 1.495 . S
C1018 C1017 1.392 . S
C1018 C1019 1.385 . S
C1018 C1020 1.478 . S
C1019 H1013 0.930 . S
C1019 C1015 1.400 . S
C1019 C1018 1.385 . S
C1020 C1018 1.478 . S
C1020 C1022 1.381 . S
C1020 C1026 1.383 . S
C1021 C1017 1.495 . S
C1021 H1027 0.959 . S
C1021 H1028 0.961 . S
C1021 H1029 0.960 . S
C1022 C1020 1.381 . S
C1022 C1023 1.394 . S
C1022 H1030 0.930 . S
C1023 C1022 1.394 . S
C1023 C1024 1.383 . S
C1023 H1031 0.929 . S
C1024 C1023 1.383 . S
C1024 C1025 1.377 . S
C1025 H1009 0.930 . S
C1025 C1024 1.377 . S
C1025 C1026 1.379 . S
C1026 H1010 0.931 . S
C1026 C1020 1.383 . S
C1026 C1025 1.379 . S
H1027 C1021 0.959 . S
H1028 C1021 0.961 . S
H1029 C1021 0.960 . S
H1030 C1022 0.930 . S
H1031 C1023 0.929 . S
H1032 C1040 0.929 . S
H1033 C1042 0.930 . S
H1034 C1044 0.930 . S
H1035 C1047 0.929 . S
H1036 C1050 0.930 . S
H1037 C1052 0.960 . S
H1038 C1052 0.960 . S
H1039 C1052 0.960 . S
C1040 H1032 0.929 . S
C1040 C1041 1.377 . S
C1040 C1042 1.384 . S
C1041 C1040 1.377 . S
C1041 C1047 1.390 . S
C1042 H1033 0.930 . S
C1042 C1040 1.384 . S
C1042 C1043 1.372 . S
C1043 C1042 1.372 . S
C1043 C1044 1.400 . S
C1043 C1048 1.490 . S
C1044 H1034 0.930 . S
C1044 C1043 1.400 . S
C1044 C1047 1.386 . S
H1045 C1061 0.930 . S
H1046 C1062 0.931 . S
C1047 H1035 0.929 . S
C1047 C1041 1.390 . S
C1047 C1044 1.386 . S
C1048 C1043 1.490 . S
C1048 C1050 1.395 . S
C1048 C1051 1.403 . S
H1049 C1055 0.930 . S
C1050 H1036 0.930 . S
C1050 C1048 1.395 . S
C1050 C1053 1.403 . S
C1051 C1048 1.403 . S
C1051 C1052 1.524 . S
C1051 C1055 1.400 . S
C1052 H1037 0.960 . S
C1052 H1038 0.960 . S
C1052 H1039 0.960 . S
C1052 C1051 1.524 . S
C1053 C1050 1.403 . S
C1053 C1054 1.392 . S
C1053 C1057 1.495 . S
C1054 C1053 1.392 . S
C1054 C1055 1.385 . S
C1054 C1056 1.478 . S
C1055 H1049 0.930 . S
C1055 C1051 1.400 . S
C1055 C1054 1.385 . S
C1056 C1054 1.478 . S
C1056 C1058 1.381 . S
C1056 C1062 1.383 . S
C1057 C1053 1.495 . S
C1057 H1063 0.959 . S
C1057 H1064 0.961 . S
C1057 H1065 0.960 . S
C1058 C1056 1.381 . S
C1058 C1059 1.394 . S
C1058 H1066 0.930 . S
C1059 C1058 1.394 . S
C1059 C1060 1.383 . S
C1059 H1067 0.929 . S
C1060 C1059 1.383 . S
C1060 C1061 1.377 . S
C1061 H1045 0.930 . S
C1061 C1060 1.377 . S
C1061 C1062 1.379 . S
C1062 H1046 0.931 . S
C1062 C1056 1.383 . S
C1062 C1061 1.379 . S
H1063 C1057 0.959 . S
H1064 C1057 0.961 . S
H1065 C1057 0.960 . S
H1066 C1058 0.930 . S
H1067 C1059 0.929 . S
H1068 C1076 0.929 . S
H1069 C1078 0.930 . S
H1070 C1080 0.930 . S
H1071 C1083 0.929 . S
H1072 C1086 0.930 . S
H1073 C1088 0.960 . S
H1074 C1088 0.960 . S
H1075 C1088 0.960 . S
C1076 H1068 0.929 . S
C1076 C1077 1.377 . S
C1076 C1078 1.384 . S
C1077 C1076 1.377 . S
C1077 C1083 1.390 . S
C1078 H1069 0.930 . S
C1078 C1076 1.384 . S
C1078 C1079 1.372 . S
C1079 C1078 1.372 . S
C1079 C1080 1.400 . S
C1079 C1084 1.490 . S
C1080 H1070 0.930 . S
C1080 C1079 1.400 . S
C1080 C1083 1.386 . S
H1081 C1097 0.930 . S
H1082 C1098 0.931 . S
C1083 H1071 0.929 . S
C1083 C1077 1.390 . S
C1083 C1080 1.386 . S
C1084 C1079 1.490 . S
C1084 C1086 1.395 . S
C1084 C1087 1.403 . S
H1085 C1091 0.930 . S
C1086 H1072 0.930 . S
C1086 C1084 1.395 . S
C1086 C1089 1.403 . S
C1087 C1084 1.403 . S
C1087 C1088 1.524 . S
C1087 C1091 1.400 . S
C1088 H1073 0.960 . S
C1088 H1074 0.960 . S
C1088 H1075 0.960 . S
C1088 C1087 1.524 . S
C1089 C1086 1.403 . S
C1089 C1090 1.392 . S
C1089 C1093 1.495 . S
C1090 C1089 1.392 . S
C1090 C1091 1.385 . S
C1090 C1092 1.478 . S
C1091 H1085 0.930 . S
C1091 C1087 1.400 . S
C1091 C1090 1.385 . S
C1092 C1090 1.478 . S
C1092 C1094 1.381 . S
C1092 C1098 1.383 . S
C1093 C1089 1.495 . S
C1093 H1099 0.959 . S
C1093 H1100 0.961 . S
C1093 H1101 0.960 . S
C1094 C1092 1.381 . S
C1094 C1095 1.394 . S
C1094 H1102 0.930 . S
C1095 C1094 1.394 . S
C1095 C1096 1.383 . S
C1095 H1103 0.929 . S
C1096 C1095 1.383 . S
C1096 C1097 1.377 . S
C1097 H1081 0.930 . S
C1097 C1096 1.377 . S
C1097 C1098 1.379 . S
C1098 H1082 0.931 . S
C1098 C1092 1.383 . S
C1098 C1097 1.379 . S
H1099 C1093 0.959 . S
H1100 C1093 0.961 . S
H1101 C1093 0.960 . S
H1102 C1094 0.930 . S
H1103 C1095 0.929 . S
H1104 C1112 0.929 . S
H1105 C1114 0.930 . S
H1106 C1116 0.930 . S
H1107 C1119 0.929 . S
H1108 C1122 0.930 . S
H1109 C1124 0.960 . S
H1110 C1124 0.960 . S
H1111 C1124 0.960 . S
C1112 H1104 0.929 . S
C1112 C1113 1.377 . S
C1112 C1114 1.384 . S
C1113 C1112 1.377 . S
C1113 C1119 1.390 . S
C1114 H1105 0.930 . S
C1114 C1112 1.384 . S
C1114 C1115 1.372 . S
C1115 C1114 1.372 . S
C1115 C1116 1.400 . S
C1115 C1120 1.490 . S
C1116 H1106 0.930 . S
C1116 C1115 1.400 . S
C1116 C1119 1.386 . S
H1117 C1133 0.930 . S
H1118 C1134 0.931 . S
C1119 H1107 0.929 . S
C1119 C1113 1.390 . S
C1119 C1116 1.386 . S
C1120 C1115 1.490 . S
C1120 C1122 1.395 . S
C1120 C1123 1.403 . S
H1121 C1127 0.930 . S
C1122 H1108 0.930 . S
C1122 C1120 1.395 . S
C1122 C1125 1.403 . S
C1123 C1120 1.403 . S
C1123 C1124 1.524 . S
C1123 C1127 1.400 . S
C1124 H1109 0.960 . S
C1124 H1110 0.960 . S
C1124 H1111 0.960 . S
C1124 C1123 1.524 . S
C1125 C1122 1.403 . S
C1125 C1126 1.392 . S
C1125 C1129 1.495 . S
C1126 C1125 1.392 . S
C1126 C1127 1.385 . S
C1126 C1128 1.478 . S
C1127 H1121 0.930 . S
C1127 C1123 1.400 . S
C1127 C1126 1.385 . S
C1128 C1126 1.478 . S
C1128 C1130 1.381 . S
C1128 C1134 1.383 . S
C1129 C1125 1.495 . S
C1129 H1135 0.959 . S
C1129 H1136 0.961 . S
C1129 H1137 0.960 . S
C1130 C1128 1.381 . S
C1130 C1131 1.394 . S
C1130 H1138 0.930 . S
C1131 C1130 1.394 . S
C1131 C1132 1.383 . S
C1131 H1139 0.929 . S
C1132 C1131 1.383 . S
C1132 C1133 1.377 . S
C1133 H1117 0.930 . S
C1133 C1132 1.377 . S
C1133 C1134 1.379 . S
C1134 H1118 0.931 . S
C1134 C1128 1.383 . S
C1134 C1133 1.379 . S
H1135 C1129 0.959 . S
H1136 C1129 0.961 . S
H1137 C1129 0.960 . S
H1138 C1130 0.930 . S
H1139 C1131 0.929 . S
H1140 C1148 0.929 . S
H1141 C1150 0.930 . S
H1142 C1152 0.930 . S
H1143 C1155 0.929 . S
H1144 C1158 0.930 . S
H1145 C1160 0.960 . S
H1146 C1160 0.960 . S
H1147 C1160 0.960 . S
C1148 H1140 0.929 . S
C1148 C1149 1.377 . S
C1148 C1150 1.384 . S
C1149 C1148 1.377 . S
C1149 C1155 1.390 . S
C1150 H1141 0.930 . S
C1150 C1148 1.384 . S
C1150 C1151 1.372 . S
C1151 C1150 1.372 . S
C1151 C1152 1.400 . S
C1151 C1156 1.490 . S
C1152 H1142 0.930 . S
C1152 C1151 1.400 . S
C1152 C1155 1.386 . S
H1153 C1169 0.930 . S
H1154 C1170 0.931 . S
C1155 H1143 0.929 . S
C1155 C1149 1.390 . S
C1155 C1152 1.386 . S
C1156 C1151 1.490 . S
C1156 C1158 1.395 . S
C1156 C1159 1.403 . S
H1157 C1163 0.930 . S
C1158 H1144 0.930 . S
C1158 C1156 1.395 . S
C1158 C1161 1.403 . S
C1159 C1156 1.403 . S
C1159 C1160 1.524 . S
C1159 C1163 1.400 . S
C1160 H1145 0.960 . S
C1160 H1146 0.960 . S
C1160 H1147 0.960 . S
C1160 C1159 1.524 . S
C1161 C1158 1.403 . S
C1161 C1162 1.392 . S
C1161 C1165 1.495 . S
C1162 C1161 1.392 . S
C1162 C1163 1.385 . S
C1162 C1164 1.478 . S
C1163 H1157 0.930 . S
C1163 C1159 1.400 . S
C1163 C1162 1.385 . S
C1164 C1162 1.478 . S
C1164 C1166 1.381 . S
C1164 C1170 1.383 . S
C1165 C1161 1.495 . S
C1165 H1171 0.959 . S
C1165 H1172 0.961 . S
C1165 H1173 0.960 . S
C1166 C1164 1.381 . S
C1166 C1167 1.394 . S
C1166 H1174 0.930 . S
C1167 C1166 1.394 . S
C1167 C1168 1.383 . S
C1167 H1175 0.929 . S
C1168 C1167 1.383 . S
C1168 C1169 1.377 . S
C1169 H1153 0.930 . S
C1169 C1168 1.377 . S
C1169 C1170 1.379 . S
C1170 H1154 0.931 . S
C1170 C1164 1.383 . S
C1170 C1169 1.379 . S
H1171 C1165 0.959 . S
H1172 C1165 0.961 . S
H1173 C1165 0.960 . S
H1174 C1166 0.930 . S
H1175 C1167 0.929 . S
H1176 C1184 0.929 . S
H1177 C1186 0.930 . S
H1178 C1188 0.930 . S
H1179 C1191 0.929 . S
H1180 C1194 0.930 . S
H1181 C1196 0.960 . S
H1182 C1196 0.960 . S
H1183 C1196 0.960 . S
C1184 H1176 0.929 . S
C1184 C1185 1.377 . S
C1184 C1186 1.384 . S
C1185 C1184 1.377 . S
C1185 C1191 1.390 . S
C1186 H1177 0.930 . S
C1186 C1184 1.384 . S
C1186 C1187 1.372 . S
C1187 C1186 1.372 . S
C1187 C1188 1.400 . S
C1187 C1192 1.490 . S
C1188 H1178 0.930 . S
C1188 C1187 1.400 . S
C1188 C1191 1.386 . S
H1189 C1205 0.930 . S
H1190 C1206 0.931 . S
C1191 H1179 0.929 . S
C1191 C1185 1.390 . S
C1191 C1188 1.386 . S
C1192 C1187 1.490 . S
C1192 C1194 1.395 . S
C1192 C1195 1.403 . S
H1193 C1199 0.930 . S
C1194 H1180 0.930 . S
C1194 C1192 1.395 . S
C1194 C1197 1.403 . S
C1195 C1192 1.403 . S
C1195 C1196 1.524 . S
C1195 C1199 1.400 . S
C1196 H1181 0.960 . S
C1196 H1182 0.960 . S
C1196 H1183 0.960 . S
C1196 C1195 1.524 . S
C1197 C1194 1.403 . S
C1197 C1198 1.392 . S
C1197 C1201 1.495 . S
C1198 C1197 1.392 . S
C1198 C1199 1.385 . S
C1198 C1200 1.478 . S
C1199 H1193 0.930 . S
C1199 C1195 1.400 . S
C1199 C1198 1.385 . S
C1200 C1198 1.478 . S
C1200 C1202 1.381 . S
C1200 C1206 1.383 . S
C1201 C1197 1.495 . S
C1201 H1207 0.959 . S
C1201 H1208 0.961 . S
C1201 H1209 0.960 . S
C1202 C1200 1.381 . S
C1202 C1203 1.394 . S
C1202 H1210 0.930 . S
C1203 C1202 1.394 . S
C1203 C1204 1.383 . S
C1203 H1211 0.929 . S
C1204 C1203 1.383 . S
C1204 C1205 1.377 . S
C1205 H1189 0.930 . S
C1205 C1204 1.377 . S
C1205 C1206 1.379 . S
C1206 H1190 0.931 . S
C1206 C1200 1.383 . S
C1206 C1205 1.379 . S
H1207 C1201 0.959 . S
H1208 C1201 0.961 . S
H1209 C1201 0.960 . S
H1210 C1202 0.930 . S
H1211 C1203 0.929 . S
H1212 C1220 0.929 . S
H1213 C1222 0.930 . S
H1214 C1224 0.930 . S
H1215 C1227 0.929 . S
H1216 C1230 0.930 . S
H1217 C1232 0.960 . S
H1218 C1232 0.960 . S
H1219 C1232 0.960 . S
C1220 H1212 0.929 . S
C1220 C1221 1.377 . S
C1220 C1222 1.384 . S
C1221 C1220 1.377 . S
C1221 C1227 1.390 . S
C1222 H1213 0.930 . S
C1222 C1220 1.384 . S
C1222 C1223 1.372 . S
C1223 C1222 1.372 . S
C1223 C1224 1.400 . S
C1223 C1228 1.490 . S
C1224 H1214 0.930 . S
C1224 C1223 1.400 . S
C1224 C1227 1.386 . S
H1225 C1241 0.930 . S
H1226 C1242 0.931 . S
C1227 H1215 0.929 . S
C1227 C1221 1.390 . S
C1227 C1224 1.386 . S
C1228 C1223 1.490 . S
C1228 C1230 1.395 . S
C1228 C1231 1.403 . S
H1229 C1235 0.930 . S
C1230 H1216 0.930 . S
C1230 C1228 1.395 . S
C1230 C1233 1.403 . S
C1231 C1228 1.403 . S
C1231 C1232 1.524 . S
C1231 C1235 1.400 . S
C1232 H1217 0.960 . S
C1232 H1218 0.960 . S
C1232 H1219 0.960 . S
C1232 C1231 1.524 . S
C1233 C1230 1.403 . S
C1233 C1234 1.392 . S
C1233 C1237 1.495 . S
C1234 C1233 1.392 . S
C1234 C1235 1.385 . S
C1234 C1236 1.478 . S
C1235 H1229 0.930 . S
C1235 C1231 1.400 . S
C1235 C1234 1.385 . S
C1236 C1234 1.478 . S
C1236 C1238 1.381 . S
C1236 C1242 1.383 . S
C1237 C1233 1.495 . S
C1237 H1243 0.959 . S
C1237 H1244 0.961 . S
C1237 H1245 0.960 . S
C1238 C1236 1.381 . S
C1238 C1239 1.394 . S
C1238 H1246 0.930 . S
C1239 C1238 1.394 . S
C1239 C1240 1.383 . S
C1239 H1247 0.929 . S
C1240 C1239 1.383 . S
C1240 C1241 1.377 . S
C1241 H1225 0.930 . S
C1241 C1240 1.377 . S
C1241 C1242 1.379 . S
C1242 H1226 0.931 . S
C1242 C1236 1.383 . S
C1242 C1241 1.379 . S
H1243 C1237 0.959 . S
H1244 C1237 0.961 . S
H1245 C1237 0.960 . S
H1246 C1238 0.930 . S
H1247 C1239 0.929 . S
H1248 C1256 0.929 . S
H1249 C1258 0.930 . S
H1250 C1260 0.930 . S
H1251 C1263 0.929 . S
H1252 C1266 0.930 . S
H1253 C1268 0.960 . S
H1254 C1268 0.960 . S
H1255 C1268 0.960 . S
C1256 H1248 0.929 . S
C1256 C1257 1.377 . S
C1256 C1258 1.384 . S
C1257 C1256 1.377 . S
C1257 C1263 1.390 . S
C1258 H1249 0.930 . S
C1258 C1256 1.384 . S
C1258 C1259 1.372 . S
C1259 C1258 1.372 . S
C1259 C1260 1.400 . S
C1259 C1264 1.490 . S
C1260 H1250 0.930 . S
C1260 C1259 1.400 . S
C1260 C1263 1.386 . S
H1261 C1277 0.930 . S
H1262 C1278 0.931 . S
C1263 H1251 0.929 . S
C1263 C1257 1.390 . S
C1263 C1260 1.386 . S
C1264 C1259 1.490 . S
C1264 C1266 1.395 . S
C1264 C1267 1.403 . S
H1265 C1271 0.930 . S
C1266 H1252 0.930 . S
C1266 C1264 1.395 . S
C1266 C1269 1.403 1_565 S
C1267 C1264 1.403 . S
C1267 C1268 1.524 . S
C1267 C1271 1.400 1_565 S
C1268 H1253 0.960 . S
C1268 H1254 0.960 . S
C1268 H1255 0.960 . S
C1268 C1267 1.524 . S
C1269 C1266 1.403 1_545 S
C1269 C1270 1.392 . S
C1269 C1273 1.495 . S
C1270 C1269 1.392 . S
C1270 C1271 1.385 . S
C1270 C1272 1.478 . S
C1271 H1265 0.930 . S
C1271 C1267 1.400 1_545 S
C1271 C1270 1.385 . S
C1272 C1270 1.478 . S
C1272 C1274 1.381 . S
C1272 C1278 1.383 . S
C1273 C1269 1.495 . S
C1273 H1279 0.959 . S
C1273 H1280 0.961 . S
C1273 H1281 0.960 . S
C1274 C1272 1.381 . S
C1274 C1275 1.394 . S
C1274 H1282 0.930 . S
C1275 C1274 1.394 . S
C1275 C1276 1.383 . S
C1275 H1283 0.929 . S
C1276 C1275 1.383 . S
C1276 C1277 1.377 . S
C1277 H1261 0.930 . S
C1277 C1276 1.377 . S
C1277 C1278 1.379 . S
C1278 H1262 0.931 . S
C1278 C1272 1.383 . S
C1278 C1277 1.379 . S
H1279 C1273 0.959 . S
H1280 C1273 0.961 . S
H1281 C1273 0.960 . S
H1282 C1274 0.930 . S
H1283 C1275 0.929 . S
H1284 C1292 0.929 . S
H1285 C1294 0.930 . S
H1286 C1296 0.930 . S
H1287 C1299 0.929 . S
H1288 C1302 0.930 . S
H1289 C1304 0.960 . S
H1290 C1304 0.960 . S
H1291 C1304 0.960 . S
C1292 H1284 0.929 . S
C1292 C1293 1.377 . S
C1292 C1294 1.384 . S
C1293 C1292 1.377 . S
C1293 C1299 1.390 . S
C1294 H1285 0.930 . S
C1294 C1292 1.384 . S
C1294 C1295 1.372 . S
C1295 C1294 1.372 . S
C1295 C1296 1.400 . S
C1295 C1300 1.490 . S
C1296 H1286 0.930 . S
C1296 C1295 1.400 . S
C1296 C1299 1.386 . S
H1297 C1313 0.930 . S
H1298 C1314 0.931 . S
C1299 H1287 0.929 . S
C1299 C1293 1.390 . S
C1299 C1296 1.386 . S
C1300 C1295 1.490 . S
C1300 C1302 1.395 . S
C1300 C1303 1.403 . S
H1301 C1307 0.930 . S
C1302 H1288 0.930 . S
C1302 C1300 1.395 . S
C1302 C1305 1.403 1_455 S
C1303 C1300 1.403 . S
C1303 C1304 1.524 . S
C1303 C1307 1.400 1_455 S
C1304 H1289 0.960 . S
C1304 H1290 0.960 . S
C1304 H1291 0.960 . S
C1304 C1303 1.524 . S
C1305 C1302 1.403 1_655 S
C1305 C1306 1.392 . S
C1305 C1309 1.495 . S
C1306 C1305 1.392 . S
C1306 C1307 1.385 . S
C1306 C1308 1.478 . S
C1307 H1301 0.930 . S
C1307 C1303 1.400 1_655 S
C1307 C1306 1.385 . S
C1308 C1306 1.478 . S
C1308 C1310 1.381 . S
C1308 C1314 1.383 . S
C1309 C1305 1.495 . S
C1309 H1315 0.959 . S
C1309 H1316 0.961 . S
C1309 H1317 0.960 . S
C1310 C1308 1.381 . S
C1310 C1311 1.394 . S
C1310 H1318 0.930 . S
C1311 C1310 1.394 . S
C1311 C1312 1.383 . S
C1311 H1319 0.929 . S
C1312 C1311 1.383 . S
C1312 C1313 1.377 . S
C1313 H1297 0.930 . S
C1313 C1312 1.377 . S
C1313 C1314 1.379 . S
C1314 H1298 0.931 . S
C1314 C1308 1.383 . S
C1314 C1313 1.379 . S
H1315 C1309 0.959 . S
H1316 C1309 0.961 . S
H1317 C1309 0.960 . S
H1318 C1310 0.930 . S
H1319 C1311 0.929 . S
H1320 C1328 0.929 . S
H1321 C1330 0.930 . S
H1322 C1332 0.930 . S
H1323 C1335 0.929 . S
H1324 C1338 0.930 . S
H1325 C1340 0.933 1_545 S
H1326 C1340 0.960 . S
H1327 C1340 0.960 . S
C1328 H1320 0.929 . S
C1328 C1329 1.377 . S
C1328 C1330 1.384 . S
C1329 C1328 1.377 . S
C1329 C1335 1.390 . S
C1330 H1321 0.930 . S
C1330 C1328 1.384 . S
C1330 C1331 1.372 . S
C1331 C1330 1.372 . S
C1331 C1332 1.400 . S
C1331 C1336 1.490 . S
C1332 H1322 0.930 . S
C1332 C1331 1.400 . S
C1332 C1335 1.386 . S
H1333 C1349 0.930 . S
H1334 C1350 0.931 . S
C1335 H1323 0.929 . S
C1335 C1329 1.390 . S
C1335 C1332 1.386 . S
C1336 C1331 1.490 . S
C1336 C1338 1.395 . S
C1336 C1339 1.403 . S
H1337 C1343 0.930 . S
C1338 H1324 0.930 . S
C1338 C1336 1.395 . S
C1338 C1341 1.403 1_565 S
C1339 C1336 1.403 . S
C1339 C1340 1.524 . S
C1339 C1343 1.400 1_565 S
C1340 H1325 0.933 1_565 S
C1340 H1326 0.960 . S
C1340 H1327 0.960 . S
C1340 C1339 1.524 . S
C1341 C1338 1.403 1_545 S
C1341 C1342 1.392 . S
C1341 C1345 1.495 . S
C1342 C1341 1.392 . S
C1342 C1343 1.385 . S
C1342 C1344 1.478 . S
C1343 H1337 0.930 . S
C1343 C1339 1.400 1_545 S
C1343 C1342 1.385 . S
C1344 C1342 1.478 . S
C1344 C1346 1.381 . S
C1344 C1350 1.383 . S
C1345 C1341 1.495 . S
C1345 H1351 0.924 1_545 S
C1345 H1352 0.961 . S
C1345 H1353 0.960 . S
C1346 C1344 1.381 . S
C1346 C1347 1.394 . S
C1346 H1354 0.930 . S
C1347 C1346 1.394 . S
C1347 C1348 1.383 . S
C1347 H1355 0.929 . S
C1348 C1347 1.383 . S
C1348 C1349 1.377 . S
C1349 H1333 0.930 . S
C1349 C1348 1.377 . S
C1349 C1350 1.379 . S
C1350 H1334 0.931 . S
C1350 C1344 1.383 . S
C1350 C1349 1.379 . S
H1351 C1345 0.924 1_565 S
H1352 C1345 0.961 . S
H1353 C1345 0.960 . S
H1354 C1346 0.930 . S
H1355 C1347 0.929 . S
H1356 C1364 0.929 . S
H1357 C1366 0.930 . S
H1358 C1368 0.930 . S
H1359 C1371 0.929 . S
H1360 C1374 0.930 . S
H1361 C1376 0.924 1_455 S
H1362 C1376 0.960 . S
H1363 C1376 0.960 . S
C1364 H1356 0.929 . S
C1364 C1365 1.377 . S
C1364 C1366 1.384 . S
C1365 C1364 1.377 . S
C1365 C1371 1.390 . S
C1366 H1357 0.930 . S
C1366 C1364 1.384 . S
C1366 C1367 1.372 . S
C1367 C1366 1.372 . S
C1367 C1368 1.400 . S
C1367 C1372 1.490 . S
C1368 H1358 0.930 . S
C1368 C1367 1.400 . S
C1368 C1371 1.386 . S
H1369 C1385 0.930 . S
H1370 C1386 0.931 . S
C1371 H1359 0.929 . S
C1371 C1365 1.390 . S
C1371 C1368 1.386 . S
C1372 C1367 1.490 . S
C1372 C1374 1.395 . S
C1372 C1375 1.403 . S
H1373 C1379 0.930 . S
C1374 H1360 0.930 . S
C1374 C1372 1.395 . S
C1374 C1377 1.403 1_655 S
C1375 C1372 1.403 . S
C1375 C1376 1.524 . S
C1375 C1379 1.400 1_655 S
C1376 H1361 0.924 1_655 S
C1376 H1362 0.960 . S
C1376 H1363 0.960 . S
C1376 C1375 1.524 . S
C1377 C1374 1.403 1_455 S
C1377 C1378 1.392 . S
C1377 C1381 1.495 . S
C1378 C1377 1.392 . S
C1378 C1379 1.385 . S
C1378 C1380 1.478 . S
C1379 H1373 0.930 . S
C1379 C1375 1.400 1_455 S
C1379 C1378 1.385 . S
C1380 C1378 1.478 . S
C1380 C1382 1.381 . S
C1380 C1386 1.383 . S
C1381 C1377 1.495 . S
C1381 H1387 0.916 1_455 S
C1381 H1388 0.961 . S
C1381 H1389 0.960 . S
C1382 C1380 1.381 . S
C1382 C1383 1.394 . S
C1382 H1390 0.930 . S
C1383 C1382 1.394 . S
C1383 C1384 1.383 . S
C1383 H1391 0.929 . S
C1384 C1383 1.383 . S
C1384 C1385 1.377 . S
C1385 H1369 0.930 . S
C1385 C1384 1.377 . S
C1385 C1386 1.379 . S
C1386 H1370 0.931 . S
C1386 C1380 1.383 . S
C1386 C1385 1.379 . S
H1387 C1381 0.916 1_655 S
H1388 C1381 0.961 . S
H1389 C1381 0.960 . S
H1390 C1382 0.930 . S
H1391 C1383 0.929 . S
H1392 C1400 0.929 . S
H1393 C1402 0.930 . S
H1394 C1404 0.930 . S
H1395 C1407 0.929 . S
H1396 C1410 0.930 . S
H1397 C1412 0.960 . S
H1398 C1412 0.960 . S
H1399 C1412 0.960 . S
C1400 H1392 0.929 . S
C1400 C1401 1.377 . S
C1400 C1402 1.384 . S
C1401 C1400 1.377 . S
C1401 C1407 1.390 . S
C1402 H1393 0.930 . S
C1402 C1400 1.384 . S
C1402 C1403 1.372 . S
C1403 C1402 1.372 . S
C1403 C1404 1.400 . S
C1403 C1408 1.490 . S
C1404 H1394 0.930 . S
C1404 C1403 1.400 . S
C1404 C1407 1.386 . S
H1405 C1421 0.930 . S
H1406 C1422 0.931 . S
C1407 H1395 0.929 . S
C1407 C1401 1.390 . S
C1407 C1404 1.386 . S
C1408 C1403 1.490 . S
C1408 C1410 1.395 . S
C1408 C1411 1.403 . S
H1409 C1415 0.930 . S
C1410 H1396 0.930 . S
C1410 C1408 1.395 . S
C1410 C1413 1.403 . S
C1411 C1408 1.403 . S
C1411 C1412 1.524 . S
C1411 C1415 1.400 . S
C1412 H1397 0.960 . S
C1412 H1398 0.960 . S
C1412 H1399 0.960 . S
C1412 C1411 1.524 . S
C1413 C1410 1.403 . S
C1413 C1414 1.392 . S
C1413 C1417 1.495 . S
C1414 C1413 1.392 . S
C1414 C1415 1.385 . S
C1414 C1416 1.478 . S
C1415 H1409 0.930 . S
C1415 C1411 1.400 . S
C1415 C1414 1.385 . S
C1416 C1414 1.478 . S
C1416 C1418 1.381 . S
C1416 C1422 1.383 . S
C1417 C1413 1.495 . S
C1417 H1423 0.959 . S
C1417 H1424 0.961 . S
C1417 H1425 0.960 . S
C1418 C1416 1.381 . S
C1418 C1419 1.394 . S
C1418 H1426 0.930 . S
C1419 C1418 1.394 . S
C1419 C1420 1.383 . S
C1419 H1427 0.929 . S
C1420 C1419 1.383 . S
C1420 C1421 1.377 . S
C1421 H1405 0.930 . S
C1421 C1420 1.377 . S
C1421 C1422 1.379 . S
C1422 H1406 0.931 . S
C1422 C1416 1.383 . S
C1422 C1421 1.379 . S
H1423 C1417 0.959 . S
H1424 C1417 0.961 . S
H1425 C1417 0.960 . S
H1426 C1418 0.930 . S
H1427 C1419 0.929 . S
H1428 C1436 0.929 . S
H1429 C1438 0.930 . S
H1430 C1440 0.930 . S
H1431 C1443 0.929 . S
H1432 C1446 0.930 . S
H1433 C1448 0.960 . S
H1434 C1448 0.960 . S
H1435 C1448 0.960 . S
C1436 H1428 0.929 . S
C1436 C1437 1.377 . S
C1436 C1438 1.384 . S
C1437 C1436 1.377 . S
C1437 C1443 1.390 . S
C1438 H1429 0.930 . S
C1438 C1436 1.384 . S
C1438 C1439 1.372 . S
C1439 C1438 1.372 . S
C1439 C1440 1.400 . S
C1439 C1444 1.490 . S
C1440 H1430 0.930 . S
C1440 C1439 1.400 . S
C1440 C1443 1.386 . S
H1441 C1457 0.930 . S
H1442 C1458 0.931 . S
C1443 H1431 0.929 . S
C1443 C1437 1.390 . S
C1443 C1440 1.386 . S
C1444 C1439 1.490 . S
C1444 C1446 1.395 . S
C1444 C1447 1.403 . S
H1445 C1451 0.930 . S
C1446 H1432 0.930 . S
C1446 C1444 1.395 . S
C1446 C1449 1.403 . S
C1447 C1444 1.403 . S
C1447 C1448 1.524 . S
C1447 C1451 1.400 . S
C1448 H1433 0.960 . S
C1448 H1434 0.960 . S
C1448 H1435 0.960 . S
C1448 C1447 1.524 . S
C1449 C1446 1.403 . S
C1449 C1450 1.392 . S
C1449 C1453 1.495 . S
C1450 C1449 1.392 . S
C1450 C1451 1.385 . S
C1450 C1452 1.478 . S
C1451 H1445 0.930 . S
C1451 C1447 1.400 . S
C1451 C1450 1.385 . S
C1452 C1450 1.478 . S
C1452 C1454 1.381 . S
C1452 C1458 1.383 . S
C1453 C1449 1.495 . S
C1453 H1459 0.959 . S
C1453 H1460 0.961 . S
C1453 H1461 0.960 . S
C1454 C1452 1.381 . S
C1454 C1455 1.394 . S
C1454 H1462 0.930 . S
C1455 C1454 1.394 . S
C1455 C1456 1.383 . S
C1455 H1463 0.929 . S
C1456 C1455 1.383 . S
C1456 C1457 1.377 . S
C1457 H1441 0.930 . S
C1457 C1456 1.377 . S
C1457 C1458 1.379 . S
C1458 H1442 0.931 . S
C1458 C1452 1.383 . S
C1458 C1457 1.379 . S
H1459 C1453 0.959 . S
H1460 C1453 0.961 . S
H1461 C1453 0.960 . S
H1462 C1454 0.930 . S
H1463 C1455 0.929 . S
H1464 C1472 0.929 . S
H1465 C1474 0.930 . S
H1466 C1476 0.930 . S
H1467 C1479 0.929 . S
H1468 C1482 0.930 . S
H1469 C1484 0.960 . S
H1470 C1484 0.960 . S
H1471 C1484 0.960 . S
C1472 H1464 0.929 . S
C1472 C1473 1.377 . S
C1472 C1474 1.384 . S
C1473 C1472 1.377 . S
C1473 C1479 1.390 . S
C1474 H1465 0.930 . S
C1474 C1472 1.384 . S
C1474 C1475 1.372 . S
C1475 C1474 1.372 . S
C1475 C1476 1.400 . S
C1475 C1480 1.490 . S
C1476 H1466 0.930 . S
C1476 C1475 1.400 . S
C1476 C1479 1.386 . S
H1477 C1493 0.930 . S
H1478 C1494 0.931 . S
C1479 H1467 0.929 . S
C1479 C1473 1.390 . S
C1479 C1476 1.386 . S
C1480 C1475 1.490 . S
C1480 C1482 1.395 . S
C1480 C1483 1.403 . S
H1481 C1487 0.930 . S
C1482 H1468 0.930 . S
C1482 C1480 1.395 . S
C1482 C1485 1.403 . S
C1483 C1480 1.403 . S
C1483 C1484 1.524 . S
C1483 C1487 1.400 . S
C1484 H1469 0.960 . S
C1484 H1470 0.960 . S
C1484 H1471 0.960 . S
C1484 C1483 1.524 . S
C1485 C1482 1.403 . S
C1485 C1486 1.392 . S
C1485 C1489 1.495 . S
C1486 C1485 1.392 . S
C1486 C1487 1.385 . S
C1486 C1488 1.478 . S
C1487 H1481 0.930 . S
C1487 C1483 1.400 . S
C1487 C1486 1.385 . S
C1488 C1486 1.478 . S
C1488 C1490 1.381 . S
C1488 C1494 1.383 . S
C1489 C1485 1.495 . S
C1489 H1495 0.959 . S
C1489 H1496 0.961 . S
C1489 H1497 0.960 . S
C1490 C1488 1.381 . S
C1490 C1491 1.394 . S
C1490 H1498 0.930 . S
C1491 C1490 1.394 . S
C1491 C1492 1.383 . S
C1491 H1499 0.929 . S
C1492 C1491 1.383 . S
C1492 C1493 1.377 . S
C1493 H1477 0.930 . S
C1493 C1492 1.377 . S
C1493 C1494 1.379 . S
C1494 H1478 0.931 . S
C1494 C1488 1.383 . S
C1494 C1493 1.379 . S
H1495 C1489 0.959 . S
H1496 C1489 0.961 . S
H1497 C1489 0.960 . S
H1498 C1490 0.930 . S
H1499 C1491 0.929 . S
H1500 C1508 0.929 . S
H1501 C1510 0.930 . S
H1502 C1512 0.930 . S
H1503 C1515 0.929 . S
H1504 C1518 0.930 . S
H1505 C1520 0.960 . S
H1506 C1520 0.960 . S
H1507 C1520 0.960 . S
C1508 H1500 0.929 . S
C1508 C1509 1.377 . S
C1508 C1510 1.384 . S
C1509 C1508 1.377 . S
C1509 C1515 1.390 . S
C1510 H1501 0.930 . S
C1510 C1508 1.384 . S
C1510 C1511 1.372 . S
C1511 C1510 1.372 . S
C1511 C1512 1.400 . S
C1511 C1516 1.490 . S
C1512 H1502 0.930 . S
C1512 C1511 1.400 . S
C1512 C1515 1.386 . S
H1513 C1529 0.930 . S
H1514 C1530 0.931 . S
C1515 H1503 0.929 . S
C1515 C1509 1.390 . S
C1515 C1512 1.386 . S
C1516 C1511 1.490 . S
C1516 C1518 1.395 . S
C1516 C1519 1.403 . S
H1517 C1523 0.930 . S
C1518 H1504 0.930 . S
C1518 C1516 1.395 . S
C1518 C1521 1.403 1_554 S
C1519 C1516 1.403 . S
C1519 C1520 1.524 . S
C1519 C1523 1.400 1_554 S
C1520 H1505 0.960 . S
C1520 H1506 0.960 . S
C1520 H1507 0.960 . S
C1520 C1519 1.524 . S
C1521 C1518 1.403 1_556 S
C1521 C1522 1.392 . S
C1521 C1525 1.495 . S
C1522 C1521 1.392 . S
C1522 C1523 1.385 . S
C1522 C1524 1.478 . S
C1523 H1517 0.930 . S
C1523 C1519 1.400 1_556 S
C1523 C1522 1.385 . S
C1524 C1522 1.478 . S
C1524 C1526 1.381 . S
C1524 C1530 1.383 . S
C1525 C1521 1.495 . S
C1525 H1531 0.959 . S
C1525 H1532 0.961 . S
C1525 H1533 0.960 . S
C1526 C1524 1.381 . S
C1526 C1527 1.394 . S
C1526 H1534 0.930 . S
C1527 C1526 1.394 . S
C1527 C1528 1.383 . S
C1527 H1535 0.929 . S
C1528 C1527 1.383 . S
C1528 C1529 1.377 . S
C1529 H1513 0.930 . S
C1529 C1528 1.377 . S
C1529 C1530 1.379 . S
C1530 H1514 0.931 . S
C1530 C1524 1.383 . S
C1530 C1529 1.379 . S
H1531 C1525 0.959 . S
H1532 C1525 0.961 . S
H1533 C1525 0.960 . S
H1534 C1526 0.930 . S
H1535 C1527 0.929 . S
H1536 C1544 0.929 . S
H1537 C1546 0.930 . S
H1538 C1548 0.930 . S
H1539 C1551 0.929 . S
H1540 C1554 0.930 . S
H1541 C1556 0.960 . S
H1542 C1556 0.960 . S
H1543 C1556 0.960 . S
C1544 H1536 0.929 . S
C1544 C1545 1.377 . S
C1544 C1546 1.384 . S
C1545 C1544 1.377 . S
C1545 C1551 1.390 . S
C1546 H1537 0.930 . S
C1546 C1544 1.384 . S
C1546 C1547 1.372 . S
C1547 C1546 1.372 . S
C1547 C1548 1.400 . S
C1547 C1552 1.490 . S
C1548 H1538 0.930 . S
C1548 C1547 1.400 . S
C1548 C1551 1.386 . S
H1549 C1565 0.930 . S
H1550 C1566 0.931 . S
C1551 H1539 0.929 . S
C1551 C1545 1.390 . S
C1551 C1548 1.386 . S
C1552 C1547 1.490 . S
C1552 C1554 1.395 . S
C1552 C1555 1.403 . S
H1553 C1559 0.930 . S
C1554 H1540 0.930 . S
C1554 C1552 1.395 . S
C1554 C1557 1.403 . S
C1555 C1552 1.403 . S
C1555 C1556 1.524 . S
C1555 C1559 1.400 . S
C1556 H1541 0.960 . S
C1556 H1542 0.960 . S
C1556 H1543 0.960 . S
C1556 C1555 1.524 . S
C1557 C1554 1.403 . S
C1557 C1558 1.392 . S
C1557 C1561 1.495 . S
C1558 C1557 1.392 . S
C1558 C1559 1.385 . S
C1558 C1560 1.478 . S
C1559 H1553 0.930 . S
C1559 C1555 1.400 . S
C1559 C1558 1.385 . S
C1560 C1558 1.478 . S
C1560 C1562 1.381 . S
C1560 C1566 1.383 . S
C1561 C1557 1.495 . S
C1561 H1567 0.959 . S
C1561 H1568 0.961 . S
C1561 H1569 0.960 . S
C1562 C1560 1.381 . S
C1562 C1563 1.394 . S
C1562 H1570 0.930 . S
C1563 C1562 1.394 . S
C1563 C1564 1.383 . S
C1563 H1571 0.929 . S
C1564 C1563 1.383 . S
C1564 C1565 1.377 . S
C1565 H1549 0.930 . S
C1565 C1564 1.377 . S
C1565 C1566 1.379 . S
C1566 H1550 0.931 . S
C1566 C1560 1.383 . S
C1566 C1565 1.379 . S
H1567 C1561 0.959 . S
H1568 C1561 0.961 . S
H1569 C1561 0.960 . S
H1570 C1562 0.930 . S
H1571 C1563 0.929 . S
H1572 C1580 0.929 . S
H1573 C1582 0.930 . S
H1574 C1584 0.930 . S
H1575 C1587 0.929 . S
H1576 C1590 0.930 . S
H1577 C1592 0.960 . S
H1578 C1592 0.960 . S
H1579 C1592 0.960 . S
C1580 H1572 0.929 . S
C1580 C1581 1.377 . S
C1580 C1582 1.384 . S
C1581 C1580 1.377 . S
C1581 C1587 1.390 . S
C1582 H1573 0.930 . S
C1582 C1580 1.384 . S
C1582 C1583 1.372 . S
C1583 C1582 1.372 . S
C1583 C1584 1.400 . S
C1583 C1588 1.490 . S
C1584 H1574 0.930 . S
C1584 C1583 1.400 . S
C1584 C1587 1.386 . S
H1585 C1601 0.930 . S
H1586 C1602 0.931 . S
C1587 H1575 0.929 . S
C1587 C1581 1.390 . S
C1587 C1584 1.386 . S
C1588 C1583 1.490 . S
C1588 C1590 1.395 . S
C1588 C1591 1.403 . S
H1589 C1595 0.930 . S
C1590 H1576 0.930 . S
C1590 C1588 1.395 . S
C1590 C1593 1.403 1_556 S
C1591 C1588 1.403 . S
C1591 C1592 1.524 . S
C1591 C1595 1.400 1_556 S
C1592 H1577 0.960 . S
C1592 H1578 0.960 . S
C1592 H1579 0.960 . S
C1592 C1591 1.524 . S
C1593 C1590 1.403 1_554 S
C1593 C1594 1.392 . S
C1593 C1597 1.495 . S
C1594 C1593 1.392 . S
C1594 C1595 1.385 . S
C1594 C1596 1.478 . S
C1595 H1589 0.930 . S
C1595 C1591 1.400 1_554 S
C1595 C1594 1.385 . S
C1596 C1594 1.478 . S
C1596 C1598 1.381 . S
C1596 C1602 1.383 . S
C1597 C1593 1.495 . S
C1597 H1603 0.959 . S
C1597 H1604 0.961 . S
C1597 H1605 0.960 . S
C1598 C1596 1.381 . S
C1598 C1599 1.394 . S
C1598 H1606 0.930 . S
C1599 C1598 1.394 . S
C1599 C1600 1.383 . S
C1599 H1607 0.929 . S
C1600 C1599 1.383 . S
C1600 C1601 1.377 . S
C1601 H1585 0.930 . S
C1601 C1600 1.377 . S
C1601 C1602 1.379 . S
C1602 H1586 0.931 . S
C1602 C1596 1.383 . S
C1602 C1601 1.379 . S
H1603 C1597 0.959 . S
H1604 C1597 0.961 . S
H1605 C1597 0.960 . S
H1606 C1598 0.930 . S
H1607 C1599 0.929 . S
H1608 C1616 0.929 . S
H1609 C1618 0.930 . S
H1610 C1620 0.930 . S
H1611 C1623 0.929 . S
H1612 C1626 0.930 . S
H1613 C1628 0.960 . S
H1614 C1628 0.960 . S
H1615 C1628 0.960 . S
C1616 H1608 0.929 . S
C1616 C1617 1.377 . S
C1616 C1618 1.384 . S
C1617 C1616 1.377 . S
C1617 C1623 1.390 . S
C1618 H1609 0.930 . S
C1618 C1616 1.384 . S
C1618 C1619 1.372 . S
C1619 C1618 1.372 . S
C1619 C1620 1.400 . S
C1619 C1624 1.490 . S
C1620 H1610 0.930 . S
C1620 C1619 1.400 . S
C1620 C1623 1.386 . S
H1621 C1637 0.930 . S
H1622 C1638 0.931 . S
C1623 H1611 0.929 . S
C1623 C1617 1.390 . S
C1623 C1620 1.386 . S
C1624 C1619 1.490 . S
C1624 C1626 1.395 . S
C1624 C1627 1.403 . S
H1625 C1631 0.930 . S
C1626 H1612 0.930 . S
C1626 C1624 1.395 . S
C1626 C1629 1.403 . S
C1627 C1624 1.403 . S
C1627 C1628 1.524 . S
C1627 C1631 1.400 . S
C1628 H1613 0.960 . S
C1628 H1614 0.960 . S
C1628 H1615 0.960 . S
C1628 C1627 1.524 . S
C1629 C1626 1.403 . S
C1629 C1630 1.392 . S
C1629 C1633 1.495 . S
C1630 C1629 1.392 . S
C1630 C1631 1.385 . S
C1630 C1632 1.478 . S
C1631 H1625 0.930 . S
C1631 C1627 1.400 . S
C1631 C1630 1.385 . S
C1632 C1630 1.478 . S
C1632 C1634 1.381 . S
C1632 C1638 1.383 . S
C1633 C1629 1.495 . S
C1633 H1639 0.959 . S
C1633 H1640 0.961 . S
C1633 H1641 0.960 . S
C1634 C1632 1.381 . S
C1634 C1635 1.394 . S
C1634 H1642 0.930 . S
C1635 C1634 1.394 . S
C1635 C1636 1.383 . S
C1635 H1643 0.929 . S
C1636 C1635 1.383 . S
C1636 C1637 1.377 . S
C1637 H1621 0.930 . S
C1637 C1636 1.377 . S
C1637 C1638 1.379 . S
C1638 H1622 0.931 . S
C1638 C1632 1.383 . S
C1638 C1637 1.379 . S
H1639 C1633 0.959 . S
H1640 C1633 0.961 . S
H1641 C1633 0.960 . S
H1642 C1634 0.930 . S
H1643 C1635 0.929 . S
H1644 C1652 0.929 . S
H1645 C1654 0.930 . S
H1646 C1656 0.930 . S
H1647 C1659 0.929 . S
H1648 C1662 0.930 . S
H1649 C1664 0.960 . S
H1650 C1664 0.960 . S
H1651 C1664 0.960 . S
C1652 H1644 0.929 . S
C1652 C1653 1.377 . S
C1652 C1654 1.384 . S
C1653 C1652 1.377 . S
C1653 C1659 1.390 . S
C1654 H1645 0.930 . S
C1654 C1652 1.384 . S
C1654 C1655 1.372 . S
C1655 C1654 1.372 . S
C1655 C1656 1.400 . S
C1655 C1660 1.490 . S
C1656 H1646 0.930 . S
C1656 C1655 1.400 . S
C1656 C1659 1.386 . S
H1657 C1673 0.930 . S
H1658 C1674 0.931 . S
C1659 H1647 0.929 . S
C1659 C1653 1.390 . S
C1659 C1656 1.386 . S
C1660 C1655 1.490 . S
C1660 C1662 1.395 . S
C1660 C1663 1.403 . S
H1661 C1667 0.930 . S
C1662 H1648 0.930 . S
C1662 C1660 1.395 . S
C1662 C1665 1.403 . S
C1663 C1660 1.403 . S
C1663 C1664 1.524 . S
C1663 C1667 1.400 . S
C1664 H1649 0.960 . S
C1664 H1650 0.960 . S
C1664 H1651 0.960 . S
C1664 C1663 1.524 . S
C1665 C1662 1.403 . S
C1665 C1666 1.392 . S
C1665 C1669 1.495 . S
C1666 C1665 1.392 . S
C1666 C1667 1.385 . S
C1666 C1668 1.478 . S
C1667 H1661 0.930 . S
C1667 C1663 1.400 . S
C1667 C1666 1.385 . S
C1668 C1666 1.478 . S
C1668 C1670 1.381 . S
C1668 C1674 1.383 . S
C1669 C1665 1.495 . S
C1669 H1675 0.959 . S
C1669 H1676 0.961 . S
C1669 H1677 0.960 . S
C1670 C1668 1.381 . S
C1670 C1671 1.394 . S
C1670 H1678 0.930 . S
C1671 C1670 1.394 . S
C1671 C1672 1.383 . S
C1671 H1679 0.929 . S
C1672 C1671 1.383 . S
C1672 C1673 1.377 . S
C1673 H1657 0.930 . S
C1673 C1672 1.377 . S
C1673 C1674 1.379 . S
C1674 H1658 0.931 . S
C1674 C1668 1.383 . S
C1674 C1673 1.379 . S
H1675 C1669 0.959 . S
H1676 C1669 0.961 . S
H1677 C1669 0.960 . S
H1678 C1670 0.930 . S
H1679 C1671 0.929 . S
H1680 C1688 0.929 . S
H1681 C1690 0.930 . S
H1682 C1692 0.930 . S
H1683 C1695 0.929 . S
H1684 C1698 0.930 . S
H1685 C1700 0.960 . S
H1686 C1700 0.960 . S
H1687 C1700 0.960 . S
C1688 H1680 0.929 . S
C1688 C1689 1.377 . S
C1688 C1690 1.384 . S
C1689 C1688 1.377 . S
C1689 C1695 1.390 . S
C1690 H1681 0.930 . S
C1690 C1688 1.384 . S
C1690 C1691 1.372 . S
C1691 C1690 1.372 . S
C1691 C1692 1.400 . S
C1691 C1696 1.490 . S
C1692 H1682 0.930 . S
C1692 C1691 1.400 . S
C1692 C1695 1.386 . S
H1693 C1709 0.930 . S
H1694 C1710 0.931 . S
C1695 H1683 0.929 . S
C1695 C1689 1.390 . S
C1695 C1692 1.386 . S
C1696 C1691 1.490 . S
C1696 C1698 1.395 . S
C1696 C1699 1.403 . S
H1697 C1703 0.930 . S
C1698 H1684 0.930 . S
C1698 C1696 1.395 . S
C1698 C1701 1.403 1_545 S
C1699 C1696 1.403 . S
C1699 C1700 1.524 . S
C1699 C1703 1.400 1_545 S
C1700 H1685 0.960 . S
C1700 H1686 0.960 . S
C1700 H1687 0.960 . S
C1700 C1699 1.524 . S
C1701 C1698 1.403 1_565 S
C1701 C1702 1.392 . S
C1701 C1705 1.495 . S
C1702 C1701 1.392 . S
C1702 C1703 1.385 . S
C1702 C1704 1.478 . S
C1703 H1697 0.930 . S
C1703 C1699 1.400 1_565 S
C1703 C1702 1.385 . S
C1704 C1702 1.478 . S
C1704 C1706 1.381 . S
C1704 C1710 1.383 . S
C1705 C1701 1.495 . S
C1705 H1711 0.959 . S
C1705 H1712 0.961 . S
C1705 H1713 0.960 . S
C1706 C1704 1.381 . S
C1706 C1707 1.394 . S
C1706 H1714 0.930 . S
C1707 C1706 1.394 . S
C1707 C1708 1.383 . S
C1707 H1715 0.929 . S
C1708 C1707 1.383 . S
C1708 C1709 1.377 . S
C1709 H1693 0.930 . S
C1709 C1708 1.377 . S
C1709 C1710 1.379 . S
C1710 H1694 0.931 . S
C1710 C1704 1.383 . S
C1710 C1709 1.379 . S
H1711 C1705 0.959 . S
H1712 C1705 0.961 . S
H1713 C1705 0.960 . S
H1714 C1706 0.930 . S
H1715 C1707 0.929 . S
H1716 C1724 0.929 . S
H1717 C1726 0.930 . S
H1718 C1728 0.930 . S
H1719 C1731 0.929 . S
H1720 C1734 0.930 . S
H1721 C1736 0.964 . S
H1722 C1736 0.960 . S
H1723 C1736 0.960 . S
C1724 H1716 0.929 . S
C1724 C1725 1.377 . S
C1724 C1726 1.384 . S
C1725 C1724 1.377 . S
C1725 C1731 1.390 . S
C1726 H1717 0.930 . S
C1726 C1724 1.384 . S
C1726 C1727 1.372 . S
C1727 C1726 1.372 . S
C1727 C1728 1.400 . S
C1727 C1732 1.490 . S
C1728 H1718 0.930 . S
C1728 C1727 1.400 . S
C1728 C1731 1.386 . S
H1729 C1745 0.930 . S
H1730 C1746 0.931 . S
C1731 H1719 0.929 . S
C1731 C1725 1.390 . S
C1731 C1728 1.386 . S
C1732 C1727 1.490 . S
C1732 C1734 1.395 . S
C1732 C1735 1.403 . S
H1733 C1739 0.930 . S
C1734 H1720 0.930 . S
C1734 C1732 1.395 . S
C1734 C1737 1.403 1_455 S
C1735 C1732 1.403 . S
C1735 C1736 1.524 . S
C1735 C1739 1.400 1_455 S
C1736 H1721 0.964 . S
C1736 H1722 0.960 . S
C1736 H1723 0.960 . S
C1736 C1735 1.524 . S
C1737 C1734 1.403 1_655 S
C1737 C1738 1.392 . S
C1737 C1741 1.495 . S
C1738 C1737 1.392 . S
C1738 C1739 1.385 . S
C1738 C1740 1.478 . S
C1739 H1733 0.930 . S
C1739 C1735 1.400 1_655 S
C1739 C1738 1.385 . S
C1740 C1738 1.478 . S
C1740 C1742 1.381 . S
C1740 C1746 1.383 . S
C1741 C1737 1.495 . S
C1741 H1747 0.955 . S
C1741 H1748 0.961 . S
C1741 H1749 0.960 . S
C1742 C1740 1.381 . S
C1742 C1743 1.394 . S
C1742 H1750 0.930 . S
C1743 C1742 1.394 . S
C1743 C1744 1.383 . S
C1743 H1751 0.929 . S
C1744 C1743 1.383 . S
C1744 C1745 1.377 . S
C1745 H1729 0.930 . S
C1745 C1744 1.377 . S
C1745 C1746 1.379 . S
C1746 H1730 0.931 . S
C1746 C1740 1.383 . S
C1746 C1745 1.379 . S
H1747 C1741 0.955 . S
H1748 C1741 0.961 . S
H1749 C1741 0.960 . S
H1750 C1742 0.930 . S
H1751 C1743 0.929 . S
H1752 C1760 0.929 . S
H1753 C1762 0.930 . S
H1754 C1764 0.930 . S
H1755 C1767 0.929 . S
H1756 C1770 0.930 . S
H1757 C1772 0.960 . S
H1758 C1772 0.960 . S
H1759 C1772 0.960 . S
C1760 H1752 0.929 . S
C1760 C1761 1.377 . S
C1760 C1762 1.384 . S
C1761 C1760 1.377 . S
C1761 C1767 1.390 . S
C1762 H1753 0.930 . S
C1762 C1760 1.384 . S
C1762 C1763 1.372 . S
C1763 C1762 1.372 . S
C1763 C1764 1.400 . S
C1763 C1768 1.490 . S
C1764 H1754 0.930 . S
C1764 C1763 1.400 . S
C1764 C1767 1.386 . S
H1765 C1781 0.930 . S
H1766 C1782 0.931 . S
C1767 H1755 0.929 . S
C1767 C1761 1.390 . S
C1767 C1764 1.386 . S
C1768 C1763 1.490 . S
C1768 C1770 1.395 . S
C1768 C1771 1.403 . S
H1769 C1775 0.930 . S
C1770 H1756 0.930 . S
C1770 C1768 1.395 . S
C1770 C1773 1.403 1_545 S
C1771 C1768 1.403 . S
C1771 C1772 1.524 . S
C1771 C1775 1.400 1_545 S
C1772 H1757 0.960 . S
C1772 H1758 0.960 . S
C1772 H1759 0.960 . S
C1772 C1771 1.524 . S
C1773 C1770 1.403 1_565 S
C1773 C1774 1.392 . S
C1773 C1777 1.495 . S
C1774 C1773 1.392 . S
C1774 C1775 1.385 . S
C1774 C1776 1.478 . S
C1775 H1769 0.930 . S
C1775 C1771 1.400 1_565 S
C1775 C1774 1.385 . S
C1776 C1774 1.478 . S
C1776 C1778 1.381 . S
C1776 C1782 1.383 . S
C1777 C1773 1.495 . S
C1777 H1783 0.959 . S
C1777 H1784 0.961 . S
C1777 H1785 0.960 . S
C1778 C1776 1.381 . S
C1778 C1779 1.394 . S
C1778 H1786 0.930 . S
C1779 C1778 1.394 . S
C1779 C1780 1.383 . S
C1779 H1787 0.929 . S
C1780 C1779 1.383 . S
C1780 C1781 1.377 . S
C1781 H1765 0.930 . S
C1781 C1780 1.377 . S
C1781 C1782 1.379 . S
C1782 H1766 0.931 . S
C1782 C1776 1.383 . S
C1782 C1781 1.379 . S
H1783 C1777 0.959 . S
H1784 C1777 0.961 . S
H1785 C1777 0.960 . S
H1786 C1778 0.930 . S
H1787 C1779 0.929 . S
H1788 C1796 0.929 . S
H1789 C1798 0.930 . S
H1790 C1800 0.930 . S
H1791 C1803 0.929 . S
H1792 C1806 0.930 . S
H1793 C1808 0.960 . S
H1794 C1808 0.960 . S
H1795 C1808 0.960 . S
C1796 H1788 0.929 . S
C1796 C1797 1.377 . S
C1796 C1798 1.384 . S
C1797 C1796 1.377 . S
C1797 C1803 1.390 . S
C1798 H1789 0.930 . S
C1798 C1796 1.384 . S
C1798 C1799 1.372 . S
C1799 C1798 1.372 . S
C1799 C1800 1.400 . S
C1799 C1804 1.490 . S
C1800 H1790 0.930 . S
C1800 C1799 1.400 . S
C1800 C1803 1.386 . S
H1801 C1817 0.930 . S
H1802 C1818 0.931 . S
C1803 H1791 0.929 . S
C1803 C1797 1.390 . S
C1803 C1800 1.386 . S
C1804 C1799 1.490 . S
C1804 C1806 1.395 . S
C1804 C1807 1.403 . S
H1805 C1811 0.930 . S
C1806 H1792 0.930 . S
C1806 C1804 1.395 . S
C1806 C1809 1.403 1_455 S
C1807 C1804 1.403 . S
C1807 C1808 1.524 . S
C1807 C1811 1.400 1_455 S
C1808 H1793 0.960 . S
C1808 H1794 0.960 . S
C1808 H1795 0.960 . S
C1808 C1807 1.524 . S
C1809 C1806 1.403 1_655 S
C1809 C1810 1.392 . S
C1809 C1813 1.495 . S
C1810 C1809 1.392 . S
C1810 C1811 1.385 . S
C1810 C1812 1.478 . S
C1811 H1805 0.930 . S
C1811 C1807 1.400 1_655 S
C1811 C1810 1.385 . S
C1812 C1810 1.478 . S
C1812 C1814 1.381 . S
C1812 C1818 1.383 . S
C1813 C1809 1.495 . S
C1813 H1819 0.959 . S
C1813 H1820 0.961 . S
C1813 H1821 0.960 . S
C1814 C1812 1.381 . S
C1814 C1815 1.394 . S
C1814 H1822 0.930 . S
C1815 C1814 1.394 . S
C1815 C1816 1.383 . S
C1815 H1823 0.929 . S
C1816 C1815 1.383 . S
C1816 C1817 1.377 . S
C1817 H1801 0.930 . S
C1817 C1816 1.377 . S
C1817 C1818 1.379 . S
C1818 H1802 0.931 . S
C1818 C1812 1.383 . S
C1818 C1817 1.379 . S
H1819 C1813 0.959 . S
H1820 C1813 0.961 . S
H1821 C1813 0.960 . S
H1822 C1814 0.930 . S
H1823 C1815 0.929 . S
H1824 C1832 0.929 . S
H1825 C1834 0.930 . S
H1826 C1836 0.930 . S
H1827 C1839 0.929 . S
H1828 C1842 0.930 . S
H1829 C1844 0.960 . S
H1830 C1844 0.960 . S
H1831 C1844 0.960 . S
C1832 H1824 0.929 . S
C1832 C1833 1.377 . S
C1832 C1834 1.384 . S
C1833 C1832 1.377 . S
C1833 C1839 1.390 . S
C1834 H1825 0.930 . S
C1834 C1832 1.384 . S
C1834 C1835 1.372 . S
C1835 C1834 1.372 . S
C1835 C1836 1.400 . S
C1835 C1840 1.490 . S
C1836 H1826 0.930 . S
C1836 C1835 1.400 . S
C1836 C1839 1.386 . S
H1837 C1853 0.930 . S
H1838 C1854 0.931 . S
C1839 H1827 0.929 . S
C1839 C1833 1.390 . S
C1839 C1836 1.386 . S
C1840 C1835 1.490 . S
C1840 C1842 1.395 . S
C1840 C1843 1.403 . S
H1841 C1847 0.930 . S
C1842 H1828 0.930 . S
C1842 C1840 1.395 . S
C1842 C1845 1.403 . S
C1843 C1840 1.403 . S
C1843 C1844 1.524 . S
C1843 C1847 1.400 . S
C1844 H1829 0.960 . S
C1844 H1830 0.960 . S
C1844 H1831 0.960 . S
C1844 C1843 1.524 . S
C1845 C1842 1.403 . S
C1845 C1846 1.392 . S
C1845 C1849 1.495 . S
C1846 C1845 1.392 . S
C1846 C1847 1.385 . S
C1846 C1848 1.478 . S
C1847 H1841 0.930 . S
C1847 C1843 1.400 . S
C1847 C1846 1.385 . S
C1848 C1846 1.478 . S
C1848 C1850 1.381 . S
C1848 C1854 1.383 . S
C1849 C1845 1.495 . S
C1849 H1855 0.959 . S
C1849 H1856 0.961 . S
C1849 H1857 0.960 . S
C1850 C1848 1.381 . S
C1850 C1851 1.394 . S
C1850 H1858 0.930 . S
C1851 C1850 1.394 . S
C1851 C1852 1.383 . S
C1851 H1859 0.929 . S
C1852 C1851 1.383 . S
C1852 C1853 1.377 . S
C1853 H1837 0.930 . S
C1853 C1852 1.377 . S
C1853 C1854 1.379 . S
C1854 H1838 0.931 . S
C1854 C1848 1.383 . S
C1854 C1853 1.379 . S
H1855 C1849 0.959 . S
H1856 C1849 0.961 . S
H1857 C1849 0.960 . S
H1858 C1850 0.930 . S
H1859 C1851 0.929 . S
H1860 C1868 0.929 . S
H1861 C1870 0.930 . S
H1862 C1872 0.930 . S
H1863 C1875 0.929 . S
H1864 C1878 0.930 . S
H1865 C1880 0.960 . S
H1866 C1880 0.960 . S
H1867 C1880 0.960 . S
C1868 H1860 0.929 . S
C1868 C1869 1.377 . S
C1868 C1870 1.384 . S
C1869 C1868 1.377 . S
C1869 C1875 1.390 . S
C1870 H1861 0.930 . S
C1870 C1868 1.384 . S
C1870 C1871 1.372 . S
C1871 C1870 1.372 . S
C1871 C1872 1.400 . S
C1871 C1876 1.490 . S
C1872 H1862 0.930 . S
C1872 C1871 1.400 . S
C1872 C1875 1.386 . S
H1873 C1889 0.930 . S
H1874 C1890 0.931 . S
C1875 H1863 0.929 . S
C1875 C1869 1.390 . S
C1875 C1872 1.386 . S
C1876 C1871 1.490 . S
C1876 C1878 1.395 . S
C1876 C1879 1.403 . S
H1877 C1883 0.930 . S
C1878 H1864 0.930 . S
C1878 C1876 1.395 . S
C1878 C1881 1.403 . S
C1879 C1876 1.403 . S
C1879 C1880 1.524 . S
C1879 C1883 1.400 . S
C1880 H1865 0.960 . S
C1880 H1866 0.960 . S
C1880 H1867 0.960 . S
C1880 C1879 1.524 . S
C1881 C1878 1.403 . S
C1881 C1882 1.392 . S
C1881 C1885 1.495 . S
C1882 C1881 1.392 . S
C1882 C1883 1.385 . S
C1882 C1884 1.478 . S
C1883 H1877 0.930 . S
C1883 C1879 1.400 . S
C1883 C1882 1.385 . S
C1884 C1882 1.478 . S
C1884 C1886 1.381 . S
C1884 C1890 1.383 . S
C1885 C1881 1.495 . S
C1885 H1891 0.959 . S
C1885 H1892 0.961 . S
C1885 H1893 0.960 . S
C1886 C1884 1.381 . S
C1886 C1887 1.394 . S
C1886 H1894 0.930 . S
C1887 C1886 1.394 . S
C1887 C1888 1.383 . S
C1887 H1895 0.929 . S
C1888 C1887 1.383 . S
C1888 C1889 1.377 . S
C1889 H1873 0.930 . S
C1889 C1888 1.377 . S
C1889 C1890 1.379 . S
C1890 H1874 0.931 . S
C1890 C1884 1.383 . S
C1890 C1889 1.379 . S
H1891 C1885 0.959 . S
H1892 C1885 0.961 . S
H1893 C1885 0.960 . S
H1894 C1886 0.930 . S
H1895 C1887 0.929 . S
H1896 C1904 0.929 . S
H1897 C1906 0.930 . S
H1898 C1908 0.930 . S
H1899 C1911 0.929 . S
H1900 C1914 0.930 . S
H1901 C1916 0.960 . S
H1902 C1916 0.960 . S
H1903 C1916 0.960 . S
C1904 H1896 0.929 . S
C1904 C1905 1.377 . S
C1904 C1906 1.384 . S
C1905 C1904 1.377 . S
C1905 C1911 1.390 . S
C1906 H1897 0.930 . S
C1906 C1904 1.384 . S
C1906 C1907 1.372 . S
C1907 C1906 1.372 . S
C1907 C1908 1.400 . S
C1907 C1912 1.490 . S
C1908 H1898 0.930 . S
C1908 C1907 1.400 . S
C1908 C1911 1.386 . S
H1909 C1925 0.930 . S
H1910 C1926 0.931 . S
C1911 H1899 0.929 . S
C1911 C1905 1.390 . S
C1911 C1908 1.386 . S
C1912 C1907 1.490 . S
C1912 C1914 1.395 . S
C1912 C1915 1.403 . S
H1913 C1919 0.930 . S
C1914 H1900 0.930 . S
C1914 C1912 1.395 . S
C1914 C1917 1.403 . S
C1915 C1912 1.403 . S
C1915 C1916 1.524 . S
C1915 C1919 1.400 . S
C1916 H1901 0.960 . S
C1916 H1902 0.960 . S
C1916 H1903 0.960 . S
C1916 C1915 1.524 . S
C1917 C1914 1.403 . S
C1917 C1918 1.392 . S
C1917 C1921 1.495 . S
C1918 C1917 1.392 . S
C1918 C1919 1.385 . S
C1918 C1920 1.478 . S
C1919 H1913 0.930 . S
C1919 C1915 1.400 . S
C1919 C1918 1.385 . S
C1920 C1918 1.478 . S
C1920 C1922 1.381 . S
C1920 C1926 1.383 . S
C1921 C1917 1.495 . S
C1921 H1927 0.959 . S
C1921 H1928 0.961 . S
C1921 H1929 0.960 . S
C1922 C1920 1.381 . S
C1922 C1923 1.394 . S
C1922 H1930 0.930 . S
C1923 C1922 1.394 . S
C1923 C1924 1.383 . S
C1923 H1931 0.929 . S
C1924 C1923 1.383 . S
C1924 C1925 1.377 . S
C1925 H1909 0.930 . S
C1925 C1924 1.377 . S
C1925 C1926 1.379 . S
C1926 H1910 0.931 . S
C1926 C1920 1.383 . S
C1926 C1925 1.379 . S
H1927 C1921 0.959 . S
H1928 C1921 0.961 . S
H1929 C1921 0.960 . S
H1930 C1922 0.930 . S
H1931 C1923 0.929 . S
H1932 C1940 0.929 . S
H1933 C1942 0.930 . S
H1934 C1944 0.930 . S
H1935 C1947 0.929 . S
H1936 C1950 0.930 . S
H1937 C1952 0.960 . S
H1938 C1952 0.960 . S
H1939 C1952 0.960 . S
C1940 H1932 0.929 . S
C1940 C1941 1.377 . S
C1940 C1942 1.384 . S
C1941 C1940 1.377 . S
C1941 C1947 1.390 . S
C1942 H1933 0.930 . S
C1942 C1940 1.384 . S
C1942 C1943 1.372 . S
C1943 C1942 1.372 . S
C1943 C1944 1.400 . S
C1943 C1948 1.490 . S
C1944 H1934 0.930 . S
C1944 C1943 1.400 . S
C1944 C1947 1.386 . S
H1945 C1961 0.930 . S
H1946 C1962 0.931 . S
C1947 H1935 0.929 . S
C1947 C1941 1.390 . S
C1947 C1944 1.386 . S
C1948 C1943 1.490 . S
C1948 C1950 1.395 . S
C1948 C1951 1.403 . S
H1949 C1955 0.930 . S
C1950 H1936 0.930 . S
C1950 C1948 1.395 . S
C1950 C1953 1.403 1_554 S
C1951 C1948 1.403 . S
C1951 C1952 1.524 . S
C1951 C1955 1.400 1_554 S
C1952 H1937 0.960 . S
C1952 H1938 0.960 . S
C1952 H1939 0.960 . S
C1952 C1951 1.524 . S
C1953 C1950 1.403 1_556 S
C1953 C1954 1.392 . S
C1953 C1957 1.495 . S
C1954 C1953 1.392 . S
C1954 C1955 1.385 . S
C1954 C1956 1.478 . S
C1955 H1949 0.930 . S
C1955 C1951 1.400 1_556 S
C1955 C1954 1.385 . S
C1956 C1954 1.478 . S
C1956 C1958 1.381 . S
C1956 C1962 1.383 . S
C1957 C1953 1.495 . S
C1957 H1963 0.959 . S
C1957 H1964 0.961 . S
C1957 H1965 0.960 . S
C1958 C1956 1.381 . S
C1958 C1959 1.394 . S
C1958 H1966 0.930 . S
C1959 C1958 1.394 . S
C1959 C1960 1.383 . S
C1959 H1967 0.929 . S
C1960 C1959 1.383 . S
C1960 C1961 1.377 . S
C1961 H1945 0.930 . S
C1961 C1960 1.377 . S
C1961 C1962 1.379 . S
C1962 H1946 0.931 . S
C1962 C1956 1.383 . S
C1962 C1961 1.379 . S
H1963 C1957 0.959 . S
H1964 C1957 0.961 . S
H1965 C1957 0.960 . S
H1966 C1958 0.930 . S
H1967 C1959 0.929 . S
H1968 C1976 0.929 . S
H1969 C1978 0.930 . S
H1970 C1980 0.930 . S
H1971 C1983 0.929 . S
H1972 C1986 0.930 . S
H1973 C1988 0.960 . S
H1974 C1988 0.960 . S
H1975 C1988 0.960 . S
C1976 H1968 0.929 . S
C1976 C1977 1.377 . S
C1976 C1978 1.384 . S
C1977 C1976 1.377 . S
C1977 C1983 1.390 . S
C1978 H1969 0.930 . S
C1978 C1976 1.384 . S
C1978 C1979 1.372 . S
C1979 C1978 1.372 . S
C1979 C1980 1.400 . S
C1979 C1984 1.490 . S
C1980 H1970 0.930 . S
C1980 C1979 1.400 . S
C1980 C1983 1.386 . S
H1981 C1997 0.930 . S
H1982 C1998 0.931 . S
C1983 H1971 0.929 . S
C1983 C1977 1.390 . S
C1983 C1980 1.386 . S
C1984 C1979 1.490 . S
C1984 C1986 1.395 . S
C1984 C1987 1.403 . S
H1985 C1991 0.930 . S
C1986 H1972 0.930 . S
C1986 C1984 1.395 . S
C1986 C1989 1.403 . S
C1987 C1984 1.403 . S
C1987 C1988 1.524 . S
C1987 C1991 1.400 . S
C1988 H1973 0.960 . S
C1988 H1974 0.960 . S
C1988 H1975 0.960 . S
C1988 C1987 1.524 . S
C1989 C1986 1.403 . S
C1989 C1990 1.392 . S
C1989 C1993 1.495 . S
C1990 C1989 1.392 . S
C1990 C1991 1.385 . S
C1990 C1992 1.478 . S
C1991 H1985 0.930 . S
C1991 C1987 1.400 . S
C1991 C1990 1.385 . S
C1992 C1990 1.478 . S
C1992 C1994 1.381 . S
C1992 C1998 1.383 . S
C1993 C1989 1.495 . S
C1993 H1999 0.959 . S
C1993 H2000 0.961 . S
C1993 H2001 0.960 . S
C1994 C1992 1.381 . S
C1994 C1995 1.394 . S
C1994 H2002 0.930 . S
C1995 C1994 1.394 . S
C1995 C1996 1.383 . S
C1995 H2003 0.929 . S
C1996 C1995 1.383 . S
C1996 C1997 1.377 . S
C1997 H1981 0.930 . S
C1997 C1996 1.377 . S
C1997 C1998 1.379 . S
C1998 H1982 0.931 . S
C1998 C1992 1.383 . S
C1998 C1997 1.379 . S
H1999 C1993 0.959 . S
H2000 C1993 0.961 . S
H2001 C1993 0.960 . S
H2002 C1994 0.930 . S
H2003 C1995 0.929 . S
H2004 C2012 0.929 . S
H2005 C2014 0.930 . S
H2006 C2016 0.930 . S
H2007 C2019 0.929 . S
H2008 C2022 0.930 . S
H2009 C2024 0.960 . S
H2010 C2024 0.960 . S
H2011 C2024 0.960 . S
C2012 H2004 0.929 . S
C2012 C2013 1.377 . S
C2012 C2014 1.384 . S
C2013 C2012 1.377 . S
C2013 C2019 1.390 . S
C2014 H2005 0.930 . S
C2014 C2012 1.384 . S
C2014 C2015 1.372 . S
C2015 C2014 1.372 . S
C2015 C2016 1.400 . S
C2015 C2020 1.490 . S
C2016 H2006 0.930 . S
C2016 C2015 1.400 . S
C2016 C2019 1.386 . S
H2017 C2033 0.930 . S
H2018 C2034 0.931 . S
C2019 H2007 0.929 . S
C2019 C2013 1.390 . S
C2019 C2016 1.386 . S
C2020 C2015 1.490 . S
C2020 C2022 1.395 . S
C2020 C2023 1.403 . S
H2021 C2027 0.930 . S
C2022 H2008 0.930 . S
C2022 C2020 1.395 . S
C2022 C2025 1.403 1_554 S
C2023 C2020 1.403 . S
C2023 C2024 1.524 . S
C2023 C2027 1.400 1_554 S
C2024 H2009 0.960 . S
C2024 H2010 0.960 . S
C2024 H2011 0.960 . S
C2024 C2023 1.524 . S
C2025 C2022 1.403 1_556 S
C2025 C2026 1.392 . S
C2025 C2029 1.495 . S
C2026 C2025 1.392 . S
C2026 C2027 1.385 . S
C2026 C2028 1.478 . S
C2027 H2021 0.930 . S
C2027 C2023 1.400 1_556 S
C2027 C2026 1.385 . S
C2028 C2026 1.478 . S
C2028 C2030 1.381 . S
C2028 C2034 1.383 . S
C2029 C2025 1.495 . S
C2029 H2035 0.959 . S
C2029 H2036 0.961 . S
C2029 H2037 0.960 . S
C2030 C2028 1.381 . S
C2030 C2031 1.394 . S
C2030 H2038 0.930 . S
C2031 C2030 1.394 . S
C2031 C2032 1.383 . S
C2031 H2039 0.929 . S
C2032 C2031 1.383 . S
C2032 C2033 1.377 . S
C2033 H2017 0.930 . S
C2033 C2032 1.377 . S
C2033 C2034 1.379 . S
C2034 H2018 0.931 . S
C2034 C2028 1.383 . S
C2034 C2033 1.379 . S
H2035 C2029 0.959 . S
H2036 C2029 0.961 . S
H2037 C2029 0.960 . S
H2038 C2030 0.930 . S
H2039 C2031 0.929 . S
C321 C53 1.491 . S
C340 C10 1.508 . S
C357 C23 1.519 . S
C376 C75 1.530 . S
C393 C88 1.524 . S
C412 C27 1.465 . S
C429 C101 1.522 . S
C448 C40 1.467 . S
C465 C192 1.522 . S
C484 C105 1.466 . S
C501 C205 1.519 . S
C520 C118 1.504 . S
C537 C140 1.523 . S
C556 C157 1.464 . S
C573 C179 1.521 . S
C592 C144 1.509 . S
C609 C209 1.488 . S
C628 C283 1.512 . S
C645 C231 1.519 . S
C664 C257 1.529 . S
C681 C244 1.519 . S
C700 C270 1.530 . S
C717 C287 1.490 . S
C736 C300 1.509 . S
C753 C49 1.491 . S
C772 C66 1.521 . S
C789 C1 1.519 . S
C808 C79 1.510 . S
C825 C92 1.523 . S
C844 C14 1.530 . S
C861 C36 1.486 . S
C880 C62 1.482 . S
C897 C309 1.485 . S
C916 C235 1.507 . S
C933 C248 1.524 . S
C952 C274 1.527 . S
C969 C261 1.522 . S
C988 C296 1.488 . S
C1005 C222 1.523 . S
C1024 C218 1.502 . S
C1041 C153 1.492 . S
C1060 C127 1.509 . S
C1077 C196 1.519 . S
C1096 C170 1.511 . S
C1113 C166 1.492 . S
C1132 C183 1.523 . S
C1149 C131 1.519 . S
C1168 C114 1.464 . S
C1185 C289 1.606 . S
C1204 C5 1.630 . S
C1221 C211 1.599 . S
C1240 C18 1.638 . S
C1257 C302 1.607 . S
C1276 C29 1.616 . S
C1293 C278 1.638 . S
C1312 C42 1.619 . S
C1329 C239 1.637 . S
C1348 C55 1.591 . S
C1365 C70 1.637 . S
C1384 C252 1.639 . S
C1401 C265 1.639 . S
C1420 C83 1.632 . S
C1437 C226 1.639 . S
C1456 C96 1.630 . S
C1473 C174 1.638 . S
C1492 C107 1.589 . S
C1509 C187 1.639 . S
C1528 C120 1.585 . S
C1545 C200 1.637 . S
C1564 C135 1.635 . S
C1581 C146 1.607 . S
C1600 C159 1.618 . S
C1617 C68 1.638 . S
C1636 C133 1.636 . S
C1653 C81 1.637 . S
C1672 C148 1.601 . S
C1689 C109 1.601 . S
C1708 C94 1.632 . S
C1725 C57 1.606 . S
C1744 C122 1.580 . S
C1761 C185 1.639 . S
C1780 C44 1.596 . S
C1797 C3 1.637 . S
C1816 C198 1.631 . S
C1833 C161 1.602 . S
C1852 C16 1.639 . S
C1869 C31 1.607 . S
C1888 C172 1.631 . S
C1905 C224 1.637 . S
C1924 C304 1.599 . S
C1941 C276 1.637 . S
C1960 C237 1.630 . S
C1977 C291 1.600 . S
C1996 C250 1.634 . S
C2013 C213 1.606 . S
C2032 C263 1.630 . S
