# Generated by pormake.
# Topology gsi, (4)-cn, num edge types: 1
# Building blocks:
#     Node 0, Type 0, BuildingBlock: GALJAG_clean_sbu_0, # of connection points: 4
#     Node 1, Type 0, BuildingBlock: GALJAG_clean_sbu_0, # of connection points: 4
#     Node 2, Type 0, BuildingBlock: GALJAG_clean_sbu_0, # of connection points: 4
#     Node 3, Type 0, BuildingBlock: GALJAG_clean_sbu_0, # of connection points: 4
#     Node 4, Type 0, BuildingBlock: GALJAG_clean_sbu_0, # of connection points: 4
#     Node 5, Type 0, BuildingBlock: GALJAG_clean_sbu_0, # of connection points: 4
#     Node 6, Type 0, BuildingBlock: GALJAG_clean_sbu_0, # of connection points: 4
#     Node 7, Type 0, BuildingBlock: GALJAG_clean_sbu_0, # of connection points: 4
#     Node 8, Type 0, BuildingBlock: GALJAG_clean_sbu_0, # of connection points: 4
#     Node 9, Type 0, BuildingBlock: GALJAG_clean_sbu_0, # of connection points: 4
#     Node 10, Type 0, BuildingBlock: GALJAG_clean_sbu_0, # of connection points: 4
#     Node 11, Type 0, BuildingBlock: GALJAG_clean_sbu_0, # of connection points: 4
#     Node 12, Type 0, BuildingBlock: GALJAG_clean_sbu_0, # of connection points: 4
#     Node 13, Type 0, BuildingBlock: GALJAG_clean_sbu_0, # of connection points: 4
#     Node 14, Type 0, BuildingBlock: GALJAG_clean_sbu_0, # of connection points: 4
#     Node 15, Type 0, BuildingBlock: GALJAG_clean_sbu_0, # of connection points: 4
#     Edge 16, Type (0, 0), BuildingBlock: EYOCIG_clean_linker_4, # of connection points: 2
#     Edge 17, Type (0, 0), BuildingBlock: EYOCIG_clean_linker_4, # of connection points: 2
#     Edge 18, Type (0, 0), BuildingBlock: EYOCIG_clean_linker_4, # of connection points: 2
#     Edge 19, Type (0, 0), BuildingBlock: EYOCIG_clean_linker_4, # of connection points: 2
#     Edge 20, Type (0, 0), BuildingBlock: EYOCIG_clean_linker_4, # of connection points: 2
#     Edge 21, Type (0, 0), BuildingBlock: EYOCIG_clean_linker_4, # of connection points: 2
#     Edge 22, Type (0, 0), BuildingBlock: EYOCIG_clean_linker_4, # of connection points: 2
#     Edge 23, Type (0, 0), BuildingBlock: EYOCIG_clean_linker_4, # of connection points: 2
#     Edge 24, Type (0, 0), BuildingBlock: EYOCIG_clean_linker_4, # of connection points: 2
#     Edge 25, Type (0, 0), BuildingBlock: EYOCIG_clean_linker_4, # of connection points: 2
#     Edge 26, Type (0, 0), BuildingBlock: EYOCIG_clean_linker_4, # of connection points: 2
#     Edge 27, Type (0, 0), BuildingBlock: EYOCIG_clean_linker_4, # of connection points: 2
#     Edge 28, Type (0, 0), BuildingBlock: EYOCIG_clean_linker_4, # of connection points: 2
#     Edge 29, Type (0, 0), BuildingBlock: EYOCIG_clean_linker_4, # of connection points: 2
#     Edge 30, Type (0, 0), BuildingBlock: EYOCIG_clean_linker_4, # of connection points: 2
#     Edge 31, Type (0, 0), BuildingBlock: EYOCIG_clean_linker_4, # of connection points: 2
#     Edge 32, Type (0, 0), BuildingBlock: EYOCIG_clean_linker_4, # of connection points: 2
#     Edge 33, Type (0, 0), BuildingBlock: EYOCIG_clean_linker_4, # of connection points: 2
#     Edge 34, Type (0, 0), BuildingBlock: EYOCIG_clean_linker_4, # of connection points: 2
#     Edge 35, Type (0, 0), BuildingBlock: EYOCIG_clean_linker_4, # of connection points: 2
#     Edge 36, Type (0, 0), BuildingBlock: EYOCIG_clean_linker_4, # of connection points: 2
#     Edge 37, Type (0, 0), BuildingBlock: EYOCIG_clean_linker_4, # of connection points: 2
#     Edge 38, Type (0, 0), BuildingBlock: EYOCIG_clean_linker_4, # of connection points: 2
#     Edge 39, Type (0, 0), BuildingBlock: EYOCIG_clean_linker_4, # of connection points: 2
#     Edge 40, Type (0, 0), BuildingBlock: EYOCIG_clean_linker_4, # of connection points: 2
#     Edge 41, Type (0, 0), BuildingBlock: EYOCIG_clean_linker_4, # of connection points: 2
#     Edge 42, Type (0, 0), BuildingBlock: EYOCIG_clean_linker_4, # of connection points: 2
#     Edge 43, Type (0, 0), BuildingBlock: EYOCIG_clean_linker_4, # of connection points: 2
#     Edge 44, Type (0, 0), BuildingBlock: EYOCIG_clean_linker_4, # of connection points: 2
#     Edge 45, Type (0, 0), BuildingBlock: EYOCIG_clean_linker_4, # of connection points: 2
#     Edge 46, Type (0, 0), BuildingBlock: EYOCIG_clean_linker_4, # of connection points: 2
#     Edge 47, Type (0, 0), BuildingBlock: EYOCIG_clean_linker_4, # of connection points: 2
# Relax obj value: 0.227
# Max RMSD: 0.210
# Mean RMSD: 0.172
data_MOF--net-gsi--node1-GALJAG_clean_sbu_0--edge1-EYOCIG_clean_linker_4
_symmetry_space_group_name_H-M    P1
_symmetry_Int_Tables_number       1
_symmetry_cell_setting            triclinic
loop_
_symmetry_equiv_pos_as_xyz
'x, y, z'
_cell_length_a     32.3121
_cell_length_b     31.131106
_cell_length_c     35.642055
_cell_angle_alpha  90.002757
_cell_angle_beta   90.017373
_cell_angle_gamma 102.51438
loop_
_atom_site_label
_atom_site_type_symbol
_atom_site_fract_x
_atom_site_fract_y
_atom_site_fract_z
_atom_type_partial_charge
In0 In 0.1308 0.13301 0.13075 0.0
O1 O 0.18014 0.15739 0.08634 0.0
O2 O 0.12785 0.10682 0.06954 0.0
C3 C 0.17519 0.17745 0.18705 0.0
C4 C 0.06898 0.18 0.12042 0.0
C5 C 0.13538 0.05517 0.16488 0.0
O6 O 0.19012 0.17666 0.15448 0.0
O7 O 0.13694 0.15795 0.19111 0.0
O8 O 0.10035 0.06627 0.15961 0.0
O9 O 0.16677 0.08093 0.1505 0.0
C10 C 0.16208 0.13302 0.06041 0.0
O11 O 0.06004 0.13896 0.12671 0.0
O12 O 0.10806 0.1967 0.11928 0.0
In13 In 0.87082 0.36406 0.13081 0.0
O14 O 0.94133 0.35728 0.1266 0.0
O15 O 0.89278 0.29994 0.11943 0.0
C16 C 0.86771 0.4424 0.16499 0.0
C17 C 0.83909 0.36291 0.06059 0.0
C18 C 0.82605 0.31921 0.18665 0.0
O19 O 0.90239 0.43065 0.15955 0.0
O20 O 0.83597 0.41707 0.15071 0.0
O21 O 0.8111 0.32102 0.15421 0.0
O22 O 0.86442 0.3382 0.19089 0.0
C23 C 0.93194 0.31622 0.12042 0.0
O24 O 0.82078 0.33967 0.08703 0.0
O25 O 0.8737 0.38883 0.06917 0.0
In26 In 0.17988 0.84025 0.33983 0.0
O27 O 0.12277 0.78568 0.33335 0.0
O28 O 0.11713 0.83997 0.36861 0.0
C29 C 0.2306 0.79974 0.30527 0.0
C30 C 0.17008 0.90109 0.28776 0.0
C31 C 0.22156 0.83835 0.40528 0.0
O32 O 0.19242 0.78224 0.31169 0.0
O33 O 0.24386 0.83926 0.3149 0.0
O34 O 0.22124 0.87366 0.38788 0.0
O35 O 0.19883 0.80414 0.39122 0.0
C36 C 0.09985 0.80332 0.35422 0.0
O37 O 0.18411 0.91169 0.32041 0.0
O38 O 0.16137 0.86037 0.28134 0.0
In39 In 0.82189 0.6571 0.33958 0.0
O40 O 0.87971 0.7111 0.33361 0.0
O41 O 0.88423 0.65588 0.36821 0.0
C42 C 0.77001 0.69734 0.30616 0.0
C43 C 0.83243 0.59663 0.28751 0.0
C44 C 0.78114 0.65841 0.40559 0.0
O45 O 0.80838 0.71502 0.31161 0.0
O46 O 0.75735 0.65773 0.31574 0.0
O47 O 0.78085 0.62335 0.38759 0.0
O48 O 0.80399 0.69273 0.39176 0.0
C49 C 0.90221 0.69241 0.35409 0.0
O50 O 0.81806 0.58586 0.32002 0.0
O51 O 0.84075 0.63736 0.28108 0.0
In52 In 0.37029 0.86366 0.63068 0.0
O53 O 0.44096 0.85719 0.62673 0.0
O54 O 0.39261 0.79971 0.61951 0.0
C55 C 0.3661 0.94164 0.66489 0.0
C56 C 0.33894 0.86271 0.56039 0.0
C57 C 0.32468 0.81892 0.68603 0.0
O58 O 0.401 0.93015 0.65997 0.0
O59 O 0.33474 0.91625 0.65012 0.0
O60 O 0.31039 0.82038 0.65332 0.0
O61 O 0.36296 0.83798 0.6908 0.0
C62 C 0.43173 0.81613 0.62053 0.0
O63 O 0.32073 0.8391 0.58666 0.0
O64 O 0.37336 0.88887 0.56917 0.0
In65 In 0.84802 0.83429 0.87188 0.0
O66 O 0.87729 0.90281 0.84805 0.0
O67 O 0.81011 0.88174 0.84795 0.0
C68 C 0.91705 0.79742 0.87953 0.0
C69 C 0.81409 0.84429 0.93966 0.0
C70 C 0.8054 0.78165 0.81879 0.0
O71 O 0.91959 0.83569 0.86677 0.0
O72 O 0.8804 0.77829 0.88988 0.0
O73 O 0.79405 0.77929 0.85264 0.0
O74 O 0.8389 0.80958 0.81153 0.0
C75 C 0.84193 0.9111 0.83938 0.0
O76 O 0.79616 0.8171 0.91555 0.0
O77 O 0.85047 0.86601 0.9307 0.0
In78 In 0.15381 0.663 0.8718 0.0
O79 O 0.20639 0.67971 0.91499 0.0
O80 O 0.15226 0.6307 0.93031 0.0
C81 C 0.19561 0.71585 0.81848 0.0
C82 C 0.15896 0.58603 0.83912 0.0
C83 C 0.08515 0.70041 0.87979 0.0
O84 O 0.20746 0.7181 0.85222 0.0
O85 O 0.16214 0.68775 0.81143 0.0
O86 O 0.08238 0.66225 0.86671 0.0
O87 O 0.12184 0.7191 0.89043 0.0
C88 C 0.18884 0.65216 0.93899 0.0
O89 O 0.12389 0.59394 0.84926 0.0
O90 O 0.19091 0.61593 0.84614 0.0
In91 In 0.83382 0.13113 0.66317 0.0
O92 O 0.88736 0.18988 0.66797 0.0
O93 O 0.89972 0.13406 0.63841 0.0
C94 C 0.7799 0.16048 0.70437 0.0
C95 C 0.79759 0.13653 0.59615 0.0
C96 C 0.83617 0.06847 0.71438 0.0
O97 O 0.81778 0.18093 0.70042 0.0
O98 O 0.76772 0.12557 0.68592 0.0
O99 O 0.81991 0.05918 0.68229 0.0
O100 O 0.85368 0.10821 0.71949 0.0
C101 C 0.91312 0.17327 0.64948 0.0
O102 O 0.80386 0.10055 0.6089 0.0
O103 O 0.81036 0.16978 0.61657 0.0
In104 In 0.16807 0.36579 0.66332 0.0
O105 O 0.19732 0.3967 0.60888 0.0
O106 O 0.19166 0.32759 0.61652 0.0
C107 C 0.16547 0.42864 0.7144 0.0
C108 C 0.08923 0.32215 0.64988 0.0
C109 C 0.2217 0.33707 0.70542 0.0
O110 O 0.18206 0.43784 0.68244 0.0
O111 O 0.14752 0.38899 0.71931 0.0
O112 O 0.18414 0.31611 0.70073 0.0
O113 O 0.23399 0.37182 0.68679 0.0
C114 C 0.20377 0.36086 0.59599 0.0
O115 O 0.11541 0.30639 0.66859 0.0
O116 O 0.10186 0.3614 0.63861 0.0
In117 In 0.65371 0.163 0.37187 0.0
O118 O 0.62367 0.09482 0.34801 0.0
O119 O 0.69088 0.11563 0.34669 0.0
C120 C 0.585 0.20053 0.37842 0.0
C121 C 0.6871 0.15142 0.43971 0.0
C122 C 0.69714 0.21574 0.3193 0.0
O123 O 0.58232 0.16206 0.36611 0.0
O124 O 0.6216 0.21951 0.38906 0.0
O125 O 0.70801 0.21805 0.35329 0.0
O126 O 0.66377 0.18779 0.31166 0.0
C127 C 0.65874 0.08647 0.3385 0.0
O128 O 0.70526 0.17908 0.41606 0.0
O129 O 0.65069 0.13014 0.43034 0.0
In130 In 0.63087 0.63331 0.63085 0.0
O131 O 0.55993 0.6388 0.62635 0.0
O132 O 0.60774 0.69676 0.61939 0.0
C133 C 0.63518 0.55577 0.66571 0.0
C134 C 0.66338 0.6339 0.56094 0.0
C135 C 0.67579 0.67876 0.68632 0.0
O136 O 0.60025 0.56708 0.66051 0.0
O137 O 0.66653 0.58108 0.65087 0.0
O138 O 0.69036 0.67723 0.65373 0.0
O139 O 0.6376 0.65933 0.69091 0.0
C140 C 0.56871 0.67988 0.62026 0.0
O141 O 0.68077 0.65819 0.58715 0.0
O142 O 0.62908 0.60744 0.56953 0.0
In143 In 0.68011 0.3405 0.84009 0.0
O144 O 0.62314 0.28595 0.83259 0.0
O145 O 0.61696 0.33959 0.8684 0.0
C146 C 0.73051 0.29987 0.80515 0.0
C147 C 0.67051 0.40243 0.78905 0.0
C148 C 0.72177 0.33825 0.90548 0.0
O149 O 0.69232 0.28253 0.81161 0.0
O150 O 0.74394 0.33934 0.81486 0.0
O151 O 0.72165 0.37359 0.88808 0.0
O152 O 0.69879 0.30415 0.89148 0.0
C153 C 0.59989 0.30324 0.85339 0.0
O154 O 0.68417 0.41236 0.82191 0.0
O155 O 0.66222 0.36188 0.78191 0.0
In156 In 0.32158 0.15669 0.83951 0.0
O157 O 0.37934 0.21067 0.83345 0.0
O158 O 0.38426 0.15542 0.86779 0.0
C159 C 0.2715 0.19923 0.80632 0.0
C160 C 0.33095 0.09605 0.78719 0.0
C161 C 0.27966 0.15686 0.9051 0.0
O162 O 0.30998 0.2158 0.81231 0.0
O163 O 0.25777 0.1595 0.81511 0.0
O164 O 0.27996 0.12209 0.88691 0.0
O165 O 0.30261 0.19143 0.8918 0.0
C166 C 0.40209 0.19197 0.85359 0.0
O167 O 0.31696 0.0854 0.81981 0.0
O168 O 0.3395 0.13678 0.78076 0.0
In169 In 0.3479 0.33458 0.37174 0.0
O170 O 0.29554 0.31864 0.41523 0.0
O171 O 0.35024 0.36686 0.43041 0.0
C172 C 0.30393 0.28087 0.31984 0.0
C173 C 0.34433 0.412 0.3391 0.0
C174 C 0.41694 0.29749 0.37818 0.0
O175 O 0.29343 0.27916 0.35391 0.0
O176 O 0.33708 0.30891 0.31172 0.0
O177 O 0.41915 0.33546 0.36495 0.0
O178 O 0.38065 0.27877 0.38971 0.0
C179 C 0.31355 0.3459 0.43923 0.0
O180 O 0.37893 0.40369 0.35004 0.0
O181 O 0.31202 0.38219 0.34519 0.0
In182 In 0.33377 0.6313 0.16323 0.0
O183 O 0.38669 0.69032 0.16834 0.0
O184 O 0.39994 0.63462 0.1391 0.0
C185 C 0.27953 0.66051 0.20412 0.0
C186 C 0.29867 0.63675 0.09571 0.0
C187 C 0.33706 0.5694 0.21481 0.0
O188 O 0.31731 0.68113 0.20008 0.0
O189 O 0.26751 0.62542 0.18588 0.0
O190 O 0.32047 0.55957 0.18291 0.0
O191 O 0.35436 0.60926 0.21951 0.0
C192 C 0.41286 0.67389 0.15023 0.0
O193 O 0.30433 0.60066 0.10875 0.0
O194 O 0.31133 0.67 0.11615 0.0
In195 In 0.66776 0.86573 0.16298 0.0
O196 O 0.69825 0.89523 0.10853 0.0
O197 O 0.69052 0.82597 0.11684 0.0
C198 C 0.66509 0.92935 0.2132 0.0
C199 C 0.58861 0.82319 0.15002 0.0
C200 C 0.72011 0.83591 0.20564 0.0
O201 O 0.6817 0.93808 0.18118 0.0
O202 O 0.64746 0.88973 0.21866 0.0
O203 O 0.68234 0.81578 0.20069 0.0
O204 O 0.73326 0.87068 0.18723 0.0
C205 C 0.7038 0.85882 0.09613 0.0
O206 O 0.6146 0.8071 0.16865 0.0
O207 O 0.60169 0.86221 0.13834 0.0
C208 C 0.22553 0.21273 0.24202 0.0
C209 C 0.20134 0.19622 0.2178 0.0
C210 C 0.25444 0.2343 0.26906 0.0
C211 C 0.27745 0.25584 0.29186 0.0
C212 C 0.77559 0.28244 0.24094 0.0
C213 C 0.79987 0.2996 0.21705 0.0
C214 C 0.74657 0.26086 0.26784 0.0
C215 C 0.72349 0.23992 0.29086 0.0
C216 C 0.25113 0.70295 0.25267 0.0
C217 C 0.25417 0.67594 0.23021 0.0
C218 C 0.25864 0.74172 0.27258 0.0
C219 C 0.25559 0.77479 0.28741 0.0
C220 C 0.73925 0.75561 0.27647 0.0
C221 C 0.7438 0.72244 0.29021 0.0
C222 C 0.7461 0.79431 0.25649 0.0
C223 C 0.74391 0.82071 0.23321 0.0
C224 C 0.27301 0.7831 0.73983 0.0
C225 C 0.2978 0.79983 0.71617 0.0
C226 C 0.24382 0.76155 0.76659 0.0
C227 C 0.2211 0.74024 0.78965 0.0
C228 C 0.72693 0.7153 0.74027 0.0
C229 C 0.70234 0.69823 0.71657 0.0
C230 C 0.75619 0.73677 0.76704 0.0
C231 C 0.7793 0.75768 0.79008 0.0
C232 C 0.75847 0.24159 0.77272 0.0
C233 C 0.75539 0.27473 0.78741 0.0
C234 C 0.7512 0.20279 0.75289 0.0
C235 C 0.75451 0.17592 0.73041 0.0
C236 C 0.24908 0.29783 0.75721 0.0
C237 C 0.24604 0.32327 0.73335 0.0
C238 C 0.24249 0.25932 0.77742 0.0
C239 C 0.24637 0.22567 0.7907 0.0
C240 C 0.15609 0.959 0.23668 0.0
C241 C 0.16257 0.93283 0.26013 0.0
C242 C 0.14747 0.99068 0.21037 0.0
C243 C 0.1407 0.01969 0.18985 0.0
C244 C 0.85661 0.50711 0.21072 0.0
C245 C 0.8631 0.47804 0.19011 0.0
C246 C 0.84782 0.53886 0.2369 0.0
C247 C 0.84074 0.56504 0.26009 0.0
C248 C 0.22862 0.15263 0.96365 0.0
C249 C 0.25264 0.15703 0.93723 0.0
C250 C 0.20089 0.14355 0.99485 0.0
C251 C 0.18038 0.13596 0.0234 0.0
C252 C 0.80033 0.35043 0.99509 0.0
C253 C 0.82082 0.35879 0.02356 0.0
C254 C 0.77262 0.34106 0.96393 0.0
C255 C 0.74861 0.33705 0.93754 0.0
C256 C 0.30011 0.85053 0.49495 0.0
C257 C 0.32067 0.85883 0.52339 0.0
C258 C 0.27234 0.84123 0.46381 0.0
C259 C 0.2484 0.83727 0.43738 0.0
C260 C 0.70342 0.64534 0.49597 0.0
C261 C 0.68243 0.63735 0.52422 0.0
C262 C 0.7312 0.65473 0.46482 0.0
C263 C 0.75481 0.65909 0.43811 0.0
C264 C 0.9866 0.26322 0.11447 0.0
C265 C 0.96296 0.28869 0.11731 0.0
C266 C 0.0137 0.23234 0.11448 0.0
C267 C 0.03756 0.20709 0.11733 0.0
C268 C 0.98115 0.73307 0.36237 0.0
C269 C 0.94556 0.71203 0.36025 0.0
C270 C 0.02168 0.76028 0.36251 0.0
C271 C 0.05686 0.78237 0.36044 0.0
C272 C 0.51341 0.73218 0.61435 0.0
C273 C 0.53719 0.70684 0.61718 0.0
C274 C 0.48645 0.7632 0.61442 0.0
C275 C 0.46286 0.78872 0.61735 0.0
C276 C 0.83356 0.01065 0.769 0.0
C277 C 0.8344 0.03652 0.74369 0.0
C278 C 0.83505 0.97839 0.79652 0.0
C279 C 0.83815 0.94766 0.81608 0.0
C280 C 0.16584 0.5184 0.79666 0.0
C281 C 0.16212 0.54906 0.81606 0.0
C282 C 0.16806 0.48629 0.76919 0.0
C283 C 0.16728 0.46055 0.74377 0.0
C284 C 0.74678 0.8535 0.03395 0.0
C285 C 0.72711 0.85551 0.06239 0.0
C286 C 0.77215 0.85238 1.00183 0.0
C287 C 0.79315 0.85045 0.97415 0.0
C288 C 0.2315 0.64271 1.00052 0.0
C289 C 0.21031 0.64537 0.97308 0.0
C290 C 0.25666 0.64119 0.03274 0.0
C291 C 0.27586 0.63933 0.06151 0.0
C292 C 0.72882 0.14169 0.50172 0.0
C293 C 0.70784 0.14428 0.47412 0.0
C294 C 0.75423 0.14045 0.53384 0.0
C295 C 0.77405 0.1389 0.56231 0.0
C296 C 0.24617 0.35702 0.53316 0.0
C297 C 0.2268 0.35865 0.56186 0.0
C298 C 0.27137 0.35561 0.50096 0.0
C299 C 0.29245 0.35289 0.47347 0.0
C300 C 0.01919 0.73917 0.88117 0.0
C301 C 0.04949 0.72187 0.88069 0.0
C302 C 0.98338 0.7592 0.88108 0.0
C303 C 0.95297 0.77634 0.88049 0.0
C304 C 0.01862 0.26542 0.63626 0.0
C305 C 0.04919 0.29487 0.64023 0.0
C306 C 0.98469 0.22848 0.63616 0.0
C307 C 0.95367 0.19954 0.63997 0.0
C308 C 0.51901 0.23923 0.37871 0.0
C309 C 0.54928 0.22189 0.3787 0.0
C310 C 0.48322 0.25925 0.37866 0.0
C311 C 0.45283 0.2764 0.37856 0.0
C312 C 0.64738 0.49214 0.71208 0.0
C313 C 0.64052 0.52075 0.69117 0.0
C314 C 0.65621 0.4608 0.73859 0.0
C315 C 0.66291 0.4346 0.76191 0.0
C316 C 0.3454 0.03804 0.73645 0.0
C317 C 0.33875 0.06435 0.75969 0.0
C318 C 0.35409 0.0062 0.71034 0.0
C319 C 0.36083 0.97715 0.68986 0.0
C320 C 0.48112 0.23278 0.86063 0.0
C321 C 0.44556 0.21157 0.85912 0.0
C322 C 0.52159 0.26012 0.86058 0.0
C323 C 0.55681 0.28217 0.85898 0.0
C324 C 0.33604 0.51235 0.26975 0.0
C325 C 0.33615 0.53786 0.2443 0.0
C326 C 0.33862 0.48028 0.29711 0.0
C327 C 0.34213 0.44944 0.31635 0.0
C328 C 0.66532 0.0197 0.29493 0.0
C329 C 0.66187 0.05003 0.31482 0.0
C330 C 0.66733 0.98769 0.26734 0.0
C331 C 0.66676 0.96171 0.24216 0.0
C332 C 0.51762 0.76695 0.13747 0.0
C333 C 0.54827 0.79638 0.14085 0.0
C334 C 0.48405 0.72976 0.13757 0.0
C335 C 0.45331 0.70048 0.1411 0.0
loop_
_geom_bond_atom_site_label_1
_geom_bond_atom_site_label_2
_geom_bond_distance
_geom_bond_site_symmetry_2
_ccdc_geom_bond_type
In0 O1 2.294 . S
In0 O2 2.326 . S
In0 O6 2.266 . S
In0 O7 2.326 . S
In0 O8 2.266 . S
In0 O9 2.326 . S
In0 O11 2.294 . S
In0 O12 2.326 . S
O1 In0 2.294 . S
O1 C10 1.240 . S
O2 In0 2.326 . S
O2 C10 1.252 . S
C3 O6 1.252 . S
C3 O7 1.260 . S
C4 O11 1.240 . S
C4 O12 1.252 . S
C5 O8 1.252 . S
C5 O9 1.260 . S
O6 In0 2.266 . S
O6 C3 1.252 . S
O7 In0 2.326 . S
O7 C3 1.260 . S
O8 In0 2.266 . S
O8 C5 1.252 . S
O9 In0 2.326 . S
O9 C5 1.260 . S
C10 O1 1.240 . S
C10 O2 1.252 . S
O11 In0 2.294 . S
O11 C4 1.240 . S
O12 In0 2.326 . S
O12 C4 1.252 . S
In13 O14 2.294 . S
In13 O15 2.326 . S
In13 O19 2.266 . S
In13 O20 2.326 . S
In13 O21 2.266 . S
In13 O22 2.326 . S
In13 O24 2.294 . S
In13 O25 2.326 . S
O14 In13 2.294 . S
O14 C23 1.240 . S
O15 In13 2.326 . S
O15 C23 1.252 . S
C16 O19 1.252 . S
C16 O20 1.260 . S
C17 O24 1.240 . S
C17 O25 1.252 . S
C18 O21 1.252 . S
C18 O22 1.260 . S
O19 In13 2.266 . S
O19 C16 1.252 . S
O20 In13 2.326 . S
O20 C16 1.260 . S
O21 In13 2.266 . S
O21 C18 1.252 . S
O22 In13 2.326 . S
O22 C18 1.260 . S
C23 O14 1.240 . S
C23 O15 1.252 . S
O24 In13 2.294 . S
O24 C17 1.240 . S
O25 In13 2.326 . S
O25 C17 1.252 . S
In26 O27 2.294 . S
In26 O28 2.326 . S
In26 O32 2.266 . S
In26 O33 2.326 . S
In26 O34 2.266 . S
In26 O35 2.326 . S
In26 O37 2.294 . S
In26 O38 2.326 . S
O27 In26 2.294 . S
O27 C36 1.240 . S
O28 In26 2.326 . S
O28 C36 1.252 . S
C29 O32 1.252 . S
C29 O33 1.260 . S
C30 O37 1.240 . S
C30 O38 1.252 . S
C31 O34 1.252 . S
C31 O35 1.260 . S
O32 In26 2.266 . S
O32 C29 1.252 . S
O33 In26 2.326 . S
O33 C29 1.260 . S
O34 In26 2.266 . S
O34 C31 1.252 . S
O35 In26 2.326 . S
O35 C31 1.260 . S
C36 O27 1.240 . S
C36 O28 1.252 . S
O37 In26 2.294 . S
O37 C30 1.240 . S
O38 In26 2.326 . S
O38 C30 1.252 . S
In39 O40 2.294 . S
In39 O41 2.326 . S
In39 O45 2.266 . S
In39 O46 2.326 . S
In39 O47 2.266 . S
In39 O48 2.326 . S
In39 O50 2.294 . S
In39 O51 2.326 . S
O40 In39 2.294 . S
O40 C49 1.240 . S
O41 In39 2.326 . S
O41 C49 1.252 . S
C42 O45 1.252 . S
C42 O46 1.260 . S
C43 O50 1.240 . S
C43 O51 1.252 . S
C44 O47 1.252 . S
C44 O48 1.260 . S
O45 In39 2.266 . S
O45 C42 1.252 . S
O46 In39 2.326 . S
O46 C42 1.260 . S
O47 In39 2.266 . S
O47 C44 1.252 . S
O48 In39 2.326 . S
O48 C44 1.260 . S
C49 O40 1.240 . S
C49 O41 1.252 . S
O50 In39 2.294 . S
O50 C43 1.240 . S
O51 In39 2.326 . S
O51 C43 1.252 . S
In52 O53 2.294 . S
In52 O54 2.326 . S
In52 O58 2.266 . S
In52 O59 2.326 . S
In52 O60 2.266 . S
In52 O61 2.326 . S
In52 O63 2.294 . S
In52 O64 2.326 . S
O53 In52 2.294 . S
O53 C62 1.240 . S
O54 In52 2.326 . S
O54 C62 1.252 . S
C55 O58 1.252 . S
C55 O59 1.260 . S
C56 O63 1.240 . S
C56 O64 1.252 . S
C57 O60 1.252 . S
C57 O61 1.260 . S
O58 In52 2.266 . S
O58 C55 1.252 . S
O59 In52 2.326 . S
O59 C55 1.260 . S
O60 In52 2.266 . S
O60 C57 1.252 . S
O61 In52 2.326 . S
O61 C57 1.260 . S
C62 O53 1.240 . S
C62 O54 1.252 . S
O63 In52 2.294 . S
O63 C56 1.240 . S
O64 In52 2.326 . S
O64 C56 1.252 . S
In65 O66 2.294 . S
In65 O67 2.326 . S
In65 O71 2.266 . S
In65 O72 2.326 . S
In65 O73 2.266 . S
In65 O74 2.326 . S
In65 O76 2.294 . S
In65 O77 2.326 . S
O66 In65 2.294 . S
O66 C75 1.240 . S
O67 In65 2.326 . S
O67 C75 1.252 . S
C68 O71 1.252 . S
C68 O72 1.260 . S
C69 O76 1.240 . S
C69 O77 1.252 . S
C70 O73 1.252 . S
C70 O74 1.260 . S
O71 In65 2.266 . S
O71 C68 1.252 . S
O72 In65 2.326 . S
O72 C68 1.260 . S
O73 In65 2.266 . S
O73 C70 1.252 . S
O74 In65 2.326 . S
O74 C70 1.260 . S
C75 O66 1.240 . S
C75 O67 1.252 . S
O76 In65 2.294 . S
O76 C69 1.240 . S
O77 In65 2.326 . S
O77 C69 1.252 . S
In78 O79 2.294 . S
In78 O80 2.326 . S
In78 O84 2.266 . S
In78 O85 2.326 . S
In78 O86 2.266 . S
In78 O87 2.326 . S
In78 O89 2.294 . S
In78 O90 2.326 . S
O79 In78 2.294 . S
O79 C88 1.240 . S
O80 In78 2.326 . S
O80 C88 1.252 . S
C81 O84 1.252 . S
C81 O85 1.260 . S
C82 O89 1.240 . S
C82 O90 1.252 . S
C83 O86 1.252 . S
C83 O87 1.260 . S
O84 In78 2.266 . S
O84 C81 1.252 . S
O85 In78 2.326 . S
O85 C81 1.260 . S
O86 In78 2.266 . S
O86 C83 1.252 . S
O87 In78 2.326 . S
O87 C83 1.260 . S
C88 O79 1.240 . S
C88 O80 1.252 . S
O89 In78 2.294 . S
O89 C82 1.240 . S
O90 In78 2.326 . S
O90 C82 1.252 . S
In91 O92 2.294 . S
In91 O93 2.326 . S
In91 O97 2.266 . S
In91 O98 2.326 . S
In91 O99 2.266 . S
In91 O100 2.326 . S
In91 O102 2.294 . S
In91 O103 2.326 . S
O92 In91 2.294 . S
O92 C101 1.240 . S
O93 In91 2.326 . S
O93 C101 1.252 . S
C94 O97 1.252 . S
C94 O98 1.260 . S
C95 O102 1.240 . S
C95 O103 1.252 . S
C96 O99 1.252 . S
C96 O100 1.260 . S
O97 In91 2.266 . S
O97 C94 1.252 . S
O98 In91 2.326 . S
O98 C94 1.260 . S
O99 In91 2.266 . S
O99 C96 1.252 . S
O100 In91 2.326 . S
O100 C96 1.260 . S
C101 O92 1.240 . S
C101 O93 1.252 . S
O102 In91 2.294 . S
O102 C95 1.240 . S
O103 In91 2.326 . S
O103 C95 1.252 . S
In104 O105 2.294 . S
In104 O106 2.326 . S
In104 O110 2.266 . S
In104 O111 2.326 . S
In104 O112 2.266 . S
In104 O113 2.326 . S
In104 O115 2.294 . S
In104 O116 2.326 . S
O105 In104 2.294 . S
O105 C114 1.240 . S
O106 In104 2.326 . S
O106 C114 1.252 . S
C107 O110 1.252 . S
C107 O111 1.260 . S
C108 O115 1.240 . S
C108 O116 1.252 . S
C109 O112 1.252 . S
C109 O113 1.260 . S
O110 In104 2.266 . S
O110 C107 1.252 . S
O111 In104 2.326 . S
O111 C107 1.260 . S
O112 In104 2.266 . S
O112 C109 1.252 . S
O113 In104 2.326 . S
O113 C109 1.260 . S
C114 O105 1.240 . S
C114 O106 1.252 . S
O115 In104 2.294 . S
O115 C108 1.240 . S
O116 In104 2.326 . S
O116 C108 1.252 . S
In117 O118 2.294 . S
In117 O119 2.326 . S
In117 O123 2.266 . S
In117 O124 2.326 . S
In117 O125 2.266 . S
In117 O126 2.326 . S
In117 O128 2.294 . S
In117 O129 2.326 . S
O118 In117 2.294 . S
O118 C127 1.240 . S
O119 In117 2.326 . S
O119 C127 1.252 . S
C120 O123 1.252 . S
C120 O124 1.260 . S
C121 O128 1.240 . S
C121 O129 1.252 . S
C122 O125 1.252 . S
C122 O126 1.260 . S
O123 In117 2.266 . S
O123 C120 1.252 . S
O124 In117 2.326 . S
O124 C120 1.260 . S
O125 In117 2.266 . S
O125 C122 1.252 . S
O126 In117 2.326 . S
O126 C122 1.260 . S
C127 O118 1.240 . S
C127 O119 1.252 . S
O128 In117 2.294 . S
O128 C121 1.240 . S
O129 In117 2.326 . S
O129 C121 1.252 . S
In130 O131 2.294 . S
In130 O132 2.326 . S
In130 O136 2.266 . S
In130 O137 2.326 . S
In130 O138 2.266 . S
In130 O139 2.326 . S
In130 O141 2.294 . S
In130 O142 2.326 . S
O131 In130 2.294 . S
O131 C140 1.240 . S
O132 In130 2.326 . S
O132 C140 1.252 . S
C133 O136 1.252 . S
C133 O137 1.260 . S
C134 O141 1.240 . S
C134 O142 1.252 . S
C135 O138 1.252 . S
C135 O139 1.260 . S
O136 In130 2.266 . S
O136 C133 1.252 . S
O137 In130 2.326 . S
O137 C133 1.260 . S
O138 In130 2.266 . S
O138 C135 1.252 . S
O139 In130 2.326 . S
O139 C135 1.260 . S
C140 O131 1.240 . S
C140 O132 1.252 . S
O141 In130 2.294 . S
O141 C134 1.240 . S
O142 In130 2.326 . S
O142 C134 1.252 . S
In143 O144 2.294 . S
In143 O145 2.326 . S
In143 O149 2.266 . S
In143 O150 2.326 . S
In143 O151 2.266 . S
In143 O152 2.326 . S
In143 O154 2.294 . S
In143 O155 2.326 . S
O144 In143 2.294 . S
O144 C153 1.240 . S
O145 In143 2.326 . S
O145 C153 1.252 . S
C146 O149 1.252 . S
C146 O150 1.260 . S
C147 O154 1.240 . S
C147 O155 1.252 . S
C148 O151 1.252 . S
C148 O152 1.260 . S
O149 In143 2.266 . S
O149 C146 1.252 . S
O150 In143 2.326 . S
O150 C146 1.260 . S
O151 In143 2.266 . S
O151 C148 1.252 . S
O152 In143 2.326 . S
O152 C148 1.260 . S
C153 O144 1.240 . S
C153 O145 1.252 . S
O154 In143 2.294 . S
O154 C147 1.240 . S
O155 In143 2.326 . S
O155 C147 1.252 . S
In156 O157 2.294 . S
In156 O158 2.326 . S
In156 O162 2.266 . S
In156 O163 2.326 . S
In156 O164 2.266 . S
In156 O165 2.326 . S
In156 O167 2.294 . S
In156 O168 2.326 . S
O157 In156 2.294 . S
O157 C166 1.240 . S
O158 In156 2.326 . S
O158 C166 1.252 . S
C159 O162 1.252 . S
C159 O163 1.260 . S
C160 O167 1.240 . S
C160 O168 1.252 . S
C161 O164 1.252 . S
C161 O165 1.260 . S
O162 In156 2.266 . S
O162 C159 1.252 . S
O163 In156 2.326 . S
O163 C159 1.260 . S
O164 In156 2.266 . S
O164 C161 1.252 . S
O165 In156 2.326 . S
O165 C161 1.260 . S
C166 O157 1.240 . S
C166 O158 1.252 . S
O167 In156 2.294 . S
O167 C160 1.240 . S
O168 In156 2.326 . S
O168 C160 1.252 . S
In169 O170 2.294 . S
In169 O171 2.326 . S
In169 O175 2.266 . S
In169 O176 2.326 . S
In169 O177 2.266 . S
In169 O178 2.326 . S
In169 O180 2.294 . S
In169 O181 2.326 . S
O170 In169 2.294 . S
O170 C179 1.240 . S
O171 In169 2.326 . S
O171 C179 1.252 . S
C172 O175 1.252 . S
C172 O176 1.260 . S
C173 O180 1.240 . S
C173 O181 1.252 . S
C174 O177 1.252 . S
C174 O178 1.260 . S
O175 In169 2.266 . S
O175 C172 1.252 . S
O176 In169 2.326 . S
O176 C172 1.260 . S
O177 In169 2.266 . S
O177 C174 1.252 . S
O178 In169 2.326 . S
O178 C174 1.260 . S
C179 O170 1.240 . S
C179 O171 1.252 . S
O180 In169 2.294 . S
O180 C173 1.240 . S
O181 In169 2.326 . S
O181 C173 1.252 . S
In182 O183 2.294 . S
In182 O184 2.326 . S
In182 O188 2.266 . S
In182 O189 2.326 . S
In182 O190 2.266 . S
In182 O191 2.326 . S
In182 O193 2.294 . S
In182 O194 2.326 . S
O183 In182 2.294 . S
O183 C192 1.240 . S
O184 In182 2.326 . S
O184 C192 1.252 . S
C185 O188 1.252 . S
C185 O189 1.260 . S
C186 O193 1.240 . S
C186 O194 1.252 . S
C187 O190 1.252 . S
C187 O191 1.260 . S
O188 In182 2.266 . S
O188 C185 1.252 . S
O189 In182 2.326 . S
O189 C185 1.260 . S
O190 In182 2.266 . S
O190 C187 1.252 . S
O191 In182 2.326 . S
O191 C187 1.260 . S
C192 O183 1.240 . S
C192 O184 1.252 . S
O193 In182 2.294 . S
O193 C186 1.240 . S
O194 In182 2.326 . S
O194 C186 1.252 . S
In195 O196 2.294 . S
In195 O197 2.326 . S
In195 O201 2.266 . S
In195 O202 2.326 . S
In195 O203 2.266 . S
In195 O204 2.326 . S
In195 O206 2.294 . S
In195 O207 2.326 . S
O196 In195 2.294 . S
O196 C205 1.240 . S
O197 In195 2.326 . S
O197 C205 1.252 . S
C198 O201 1.252 . S
C198 O202 1.260 . S
C199 O206 1.240 . S
C199 O207 1.252 . S
C200 O203 1.252 . S
C200 O204 1.260 . S
O201 In195 2.266 . S
O201 C198 1.252 . S
O202 In195 2.326 . S
O202 C198 1.260 . S
O203 In195 2.266 . S
O203 C200 1.252 . S
O204 In195 2.326 . S
O204 C200 1.260 . S
C205 O196 1.240 . S
C205 O197 1.252 . S
O206 In195 2.294 . S
O206 C199 1.240 . S
O207 In195 2.326 . S
O207 C199 1.252 . S
C208 C209 1.170 . S
C208 C210 1.380 . S
C209 C208 1.170 . S
C210 C208 1.380 . S
C210 C211 1.170 . S
C211 C210 1.170 . S
C212 C213 1.170 . S
C212 C214 1.380 . S
C213 C212 1.170 . S
C214 C212 1.380 . S
C214 C215 1.170 . S
C215 C214 1.170 . S
C216 C217 1.170 . S
C216 C218 1.380 . S
C217 C216 1.170 . S
C218 C216 1.380 . S
C218 C219 1.170 . S
C219 C218 1.170 . S
C220 C221 1.170 . S
C220 C222 1.380 . S
C221 C220 1.170 . S
C222 C220 1.380 . S
C222 C223 1.170 . S
C223 C222 1.170 . S
C224 C225 1.170 . S
C224 C226 1.380 . S
C225 C224 1.170 . S
C226 C224 1.380 . S
C226 C227 1.170 . S
C227 C226 1.170 . S
C228 C229 1.170 . S
C228 C230 1.380 . S
C229 C228 1.170 . S
C230 C228 1.380 . S
C230 C231 1.170 . S
C231 C230 1.170 . S
C232 C233 1.170 . S
C232 C234 1.380 . S
C233 C232 1.170 . S
C234 C232 1.380 . S
C234 C235 1.170 . S
C235 C234 1.170 . S
C236 C237 1.170 . S
C236 C238 1.380 . S
C237 C236 1.170 . S
C238 C236 1.380 . S
C238 C239 1.170 . S
C239 C238 1.170 . S
C240 C241 1.170 . S
C240 C242 1.380 . S
C241 C240 1.170 . S
C242 C240 1.380 . S
C242 C243 1.170 1_565 S
C243 C242 1.170 1_545 S
C244 C245 1.170 . S
C244 C246 1.380 . S
C245 C244 1.170 . S
C246 C244 1.380 . S
C246 C247 1.170 . S
C247 C246 1.170 . S
C248 C249 1.170 . S
C248 C250 1.380 . S
C249 C248 1.170 . S
C250 C248 1.380 . S
C250 C251 1.170 1_556 S
C251 C250 1.170 1_554 S
C252 C253 1.170 1_556 S
C252 C254 1.380 . S
C253 C252 1.170 1_554 S
C254 C252 1.380 . S
C254 C255 1.170 . S
C255 C254 1.170 . S
C256 C257 1.170 . S
C256 C258 1.380 . S
C257 C256 1.170 . S
C258 C256 1.380 . S
C258 C259 1.170 . S
C259 C258 1.170 . S
C260 C261 1.170 . S
C260 C262 1.380 . S
C261 C260 1.170 . S
C262 C260 1.380 . S
C262 C263 1.170 . S
C263 C262 1.170 . S
C264 C265 1.170 . S
C264 C266 1.380 1_655 S
C265 C264 1.170 . S
C266 C264 1.380 1_455 S
C266 C267 1.170 . S
C267 C266 1.170 . S
C268 C269 1.170 . S
C268 C270 1.380 1_655 S
C269 C268 1.170 . S
C270 C268 1.380 1_455 S
C270 C271 1.170 . S
C271 C270 1.170 . S
C272 C273 1.170 . S
C272 C274 1.380 . S
C273 C272 1.170 . S
C274 C272 1.380 . S
C274 C275 1.170 . S
C275 C274 1.170 . S
C276 C277 1.170 . S
C276 C278 1.380 1_545 S
C277 C276 1.170 . S
C278 C276 1.380 1_565 S
C278 C279 1.170 . S
C279 C278 1.170 . S
C280 C281 1.170 . S
C280 C282 1.380 . S
C281 C280 1.170 . S
C282 C280 1.380 . S
C282 C283 1.170 . S
C283 C282 1.170 . S
C284 C285 1.170 . S
C284 C286 1.380 . S
C285 C284 1.170 . S
C286 C284 1.380 . S
C286 C287 1.170 1_554 S
C287 C286 1.170 1_556 S
C288 C289 1.170 . S
C288 C290 1.380 1_556 S
C289 C288 1.170 . S
C290 C288 1.380 1_554 S
C290 C291 1.170 . S
C291 C290 1.170 . S
C292 C293 1.170 . S
C292 C294 1.380 . S
C293 C292 1.170 . S
C294 C292 1.380 . S
C294 C295 1.170 . S
C295 C294 1.170 . S
C296 C297 1.170 . S
C296 C298 1.380 . S
C297 C296 1.170 . S
C298 C296 1.380 . S
C298 C299 1.170 . S
C299 C298 1.170 . S
C300 C301 1.170 . S
C300 C302 1.380 1_455 S
C301 C300 1.170 . S
C302 C300 1.380 1_655 S
C302 C303 1.170 . S
C303 C302 1.170 . S
C304 C305 1.170 . S
C304 C306 1.380 1_455 S
C305 C304 1.170 . S
C306 C304 1.380 1_655 S
C306 C307 1.170 . S
C307 C306 1.170 . S
C308 C309 1.170 . S
C308 C310 1.380 . S
C309 C308 1.170 . S
C310 C308 1.380 . S
C310 C311 1.170 . S
C311 C310 1.170 . S
C312 C313 1.170 . S
C312 C314 1.380 . S
C313 C312 1.170 . S
C314 C312 1.380 . S
C314 C315 1.170 . S
C315 C314 1.170 . S
C316 C317 1.170 . S
C316 C318 1.380 . S
C317 C316 1.170 . S
C318 C316 1.380 . S
C318 C319 1.170 1_545 S
C319 C318 1.170 1_565 S
C320 C321 1.170 . S
C320 C322 1.380 . S
C321 C320 1.170 . S
C322 C320 1.380 . S
C322 C323 1.170 . S
C323 C322 1.170 . S
C324 C325 1.170 . S
C324 C326 1.380 . S
C325 C324 1.170 . S
C326 C324 1.380 . S
C326 C327 1.170 . S
C327 C326 1.170 . S
C328 C329 1.170 . S
C328 C330 1.380 1_545 S
C329 C328 1.170 . S
C330 C328 1.380 1_565 S
C330 C331 1.170 . S
C331 C330 1.170 . S
C332 C333 1.170 . S
C332 C334 1.380 . S
C333 C332 1.170 . S
C334 C332 1.380 . S
C334 C335 1.170 . S
C335 C334 1.170 . S
C209 C3 1.311 . S
C211 C172 1.279 . S
C213 C18 1.314 . S
C215 C122 1.277 . S
C217 C185 1.068 . S
C219 C29 1.050 . S
C221 C42 1.086 . S
C223 C200 1.021 . S
C225 C57 1.301 . S
C227 C81 1.298 . S
C229 C135 1.310 . S
C231 C70 1.283 . S
C233 C146 1.047 . S
C235 C94 1.072 . S
C237 C109 1.071 . S
C239 C159 1.036 . S
C241 C30 1.802 . S
C243 C5 1.783 . S
C245 C16 1.792 . S
C247 C43 1.801 . S
C249 C161 1.648 . S
C251 C10 1.638 . S
C253 C17 1.613 . S
C255 C148 1.658 . S
C257 C56 1.611 . S
C259 C31 1.660 . S
C261 C134 1.609 . S
C263 C44 1.665 . S
C265 C23 1.997 . S
C267 C4 2.002 . S
C269 C49 1.185 . S
C271 C36 1.164 . S
C273 C140 2.002 . S
C275 C62 1.997 . S
C277 C96 1.634 . S
C279 C75 1.604 . S
C281 C82 1.608 . S
C283 C107 1.632 . S
C285 C205 1.717 . S
C287 C69 1.703 . S
C289 C88 1.688 . S
C291 C186 1.720 . S
C293 C121 1.708 . S
C295 C95 1.706 . S
C297 C114 1.712 . S
C299 C179 1.699 . S
C301 C83 2.002 . S
C303 C68 1.999 . S
C305 C108 1.252 . S
C307 C101 1.295 . S
C309 C120 1.995 . S
C311 C174 1.992 . S
C313 C133 1.773 . S
C315 C147 1.805 . S
C317 C160 1.802 . S
C319 C55 1.781 . S
C321 C166 1.174 . S
C323 C153 1.154 . S
C325 C187 1.624 . S
C327 C173 1.608 . S
C329 C127 1.587 . S
C331 C198 1.636 . S
C333 C199 1.267 . S
C335 C192 1.276 . S
