# Generated by pormake.
# Topology hcp, (12)-cn, num edge types: 1
# Building blocks:
#     Node 0, Type 0, BuildingBlock: ENOWUB_clean_sbu_0, # of connection points: 12
#     Node 1, Type 0, BuildingBlock: ENOWUB_clean_sbu_0, # of connection points: 12
#     Edge 2, Type (0, 0), BuildingBlock: FUNLAD_clean_linker_0, # of connection points: 2
#     Edge 3, Type (0, 0), BuildingBlock: FUNLAD_clean_linker_0, # of connection points: 2
#     Edge 4, Type (0, 0), BuildingBlock: FUNLAD_clean_linker_0, # of connection points: 2
#     Edge 5, Type (0, 0), BuildingBlock: FUNLAD_clean_linker_0, # of connection points: 2
#     Edge 6, Type (0, 0), BuildingBlock: FUNLAD_clean_linker_0, # of connection points: 2
#     Edge 7, Type (0, 0), BuildingBlock: FUNLAD_clean_linker_0, # of connection points: 2
#     Edge 8, Type (0, 0), BuildingBlock: FUNLAD_clean_linker_0, # of connection points: 2
#     Edge 9, Type (0, 0), BuildingBlock: FUNLAD_clean_linker_0, # of connection points: 2
#     Edge 10, Type (0, 0), BuildingBlock: FUNLAD_clean_linker_0, # of connection points: 2
#     Edge 11, Type (0, 0), BuildingBlock: FUNLAD_clean_linker_0, # of connection points: 2
#     Edge 12, Type (0, 0), BuildingBlock: FUNLAD_clean_linker_0, # of connection points: 2
#     Edge 13, Type (0, 0), BuildingBlock: FUNLAD_clean_linker_0, # of connection points: 2
# Relax obj value: 0.186
# Max RMSD: 0.270
# Mean RMSD: 0.270
data_MOF--net-hcp--node1-ENOWUB_clean_sbu_0--edge1-FUNLAD_clean_linker_0
_symmetry_space_group_name_H-M    P1
_symmetry_Int_Tables_number       1
_symmetry_cell_setting            triclinic
loop_
_symmetry_equiv_pos_as_xyz
'x, y, z'
_cell_length_a     20.756331
_cell_length_b     20.76026
_cell_length_c     34.911091
_cell_angle_alpha  89.664067
_cell_angle_beta   90.121035
_cell_angle_gamma 119.79227
loop_
_atom_site_label
_atom_site_type_symbol
_atom_site_fract_x
_atom_site_fract_y
_atom_site_fract_z
_atom_type_partial_charge
O0 O 0.73871 0.2585 0.15021 0.0
O1 O 0.66834 0.21907 0.22628 0.0
O2 O 0.73063 0.42603 0.22987 0.0
O3 O 0.64327 0.31229 0.18128 0.0
O4 O 0.75546 0.33249 0.27293 0.0
Zr5 Zr 0.75804 0.33749 0.20597 0.0
Zr6 Zr 0.66453 0.21497 0.29332 0.0
Zr7 Zr 0.55313 0.19495 0.20256 0.0
O8 O 0.63603 0.30171 0.31874 0.0
O9 O 0.52372 0.28185 0.2266 0.0
O10 O 0.54934 0.18925 0.2695 0.0
Zr11 Zr 0.72603 0.41914 0.297 0.0
Zr12 Zr 0.61492 0.39943 0.20593 0.0
Zr13 Zr 0.52138 0.27688 0.29375 0.0
O14 O 0.61117 0.39473 0.27298 0.0
O15 O 0.54199 0.35874 0.34826 0.0
O16 O 0.40335 0.16983 0.27516 0.0
O17 O 0.87553 0.44622 0.22394 0.0
O18 O 0.73472 0.53872 0.28349 0.0
O19 O 0.5398 0.07375 0.21732 0.0
O20 O 0.49752 0.22326 0.14748 0.0
O21 O 0.78762 0.39137 0.34918 0.0
O22 O 0.57432 0.14606 0.34359 0.0
O23 O 0.69713 0.45851 0.15076 0.0
O24 O 0.50649 0.41046 0.22182 0.0
O25 O 0.77494 0.20665 0.27864 0.0
O26 O 0.66715 0.44056 0.35148 0.0
O27 O 0.61485 0.17108 0.15061 0.0
O28 O 0.42326 0.12517 0.21902 0.0
O29 O 0.85535 0.49093 0.27998 0.0
O30 O 0.82759 0.2781 0.225 0.0
O31 O 0.45357 0.33844 0.27529 0.0
O32 O 0.489 0.18544 0.34457 0.0
O33 O 0.78592 0.42347 0.15358 0.0
C34 C 0.6811 0.20038 0.13686 0.0
O35 O 0.74465 0.26614 0.34848 0.0
O36 O 0.60632 0.08811 0.27231 0.0
C37 C 0.59996 0.41348 0.36369 0.0
C38 C 0.38178 0.12458 0.24657 0.0
C39 C 0.89689 0.4918 0.25241 0.0
C40 C 0.71193 0.56403 0.25584 0.0
C41 C 0.56414 0.04918 0.2446 0.0
C42 C 0.49664 0.28233 0.1363 0.0
C43 C 0.78489 0.3317 0.3624 0.0
C44 C 0.51516 0.14415 0.35669 0.0
C45 C 0.75634 0.45935 0.13852 0.0
C46 C 0.45716 0.38337 0.24867 0.0
C47 C 0.82489 0.23449 0.25212 0.0
O48 O 0.53133 0.34633 0.1524 0.0
O49 O 0.67342 0.52645 0.22684 0.0
O50 O 0.37362 0.81344 0.84496 0.0
O51 O 0.31679 0.66381 0.81834 0.0
O52 O 0.28065 0.74597 0.72619 0.0
O53 O 0.40143 0.77759 0.76814 0.0
O54 O 0.19547 0.63197 0.77382 0.0
Zr55 Zr 0.28637 0.74982 0.79315 0.0
Zr56 Zr 0.22682 0.54597 0.79764 0.0
Zr57 Zr 0.43096 0.69037 0.79203 0.0
O58 O 0.2201 0.53946 0.73055 0.0
O59 O 0.42668 0.68522 0.72492 0.0
O60 O 0.3413 0.57215 0.77236 0.0
Zr61 Zr 0.19104 0.62743 0.70691 0.0
Zr62 Zr 0.39525 0.77128 0.70116 0.0
Zr63 Zr 0.33524 0.56716 0.70545 0.0
O64 O 0.30507 0.65355 0.68115 0.0
O65 O 0.2513 0.50754 0.65127 0.0
O66 O 0.4456 0.55838 0.7198 0.0
O67 O 0.17669 0.75971 0.77869 0.0
O68 O 0.20854 0.70538 0.65055 0.0
O69 O 0.41393 0.6059 0.84504 0.0
O70 O 0.54762 0.79788 0.77232 0.0
O71 O 0.07436 0.51946 0.72629 0.0
O72 O 0.2155 0.42603 0.78325 0.0
O73 O 0.40706 0.89142 0.71561 0.0
O74 O 0.44587 0.74245 0.64445 0.0
O75 O 0.16685 0.57278 0.8507 0.0
O76 O 0.16177 0.54138 0.65489 0.0
O77 O 0.46213 0.77811 0.84422 0.0
O78 O 0.49989 0.63091 0.77259 0.0
O79 O 0.12309 0.68837 0.72549 0.0
O80 O 0.20595 0.69721 0.84826 0.0
O81 O 0.41344 0.61971 0.64988 0.0
O82 O 0.27722 0.43982 0.72663 0.0
O83 O 0.34412 0.87708 0.77187 0.0
C84 C 0.43313 0.81567 0.85779 0.0
O85 O 0.09683 0.4741 0.78182 0.0
O86 O 0.29 0.52045 0.84918 0.0
C87 C 0.19142 0.50605 0.63956 0.0
C88 C 0.49602 0.58633 0.74602 0.0
C89 C 0.12675 0.73258 0.75221 0.0
C90 C 0.26509 0.7638 0.63647 0.0
C91 C 0.35809 0.54812 0.86014 0.0
C92 C 0.56822 0.84276 0.74335 0.0
C93 C 0.05417 0.47358 0.75483 0.0
C94 C 0.23806 0.40138 0.75545 0.0
C95 C 0.38408 0.91586 0.74332 0.0
C96 C 0.4458 0.6833 0.63294 0.0
C97 C 0.16785 0.63188 0.86314 0.0
O98 O 0.52585 0.84155 0.71601 0.0
O99 O 0.33183 0.79484 0.64957 0.0
C100 C 0.54596 0.8908 0.89851 0.0
C101 C 0.47026 0.86438 0.89094 0.0
C102 C 0.58017 0.93562 0.93041 0.0
C103 C 0.53893 0.95398 0.95548 0.0
C104 C 0.46358 0.92778 0.94778 0.0
C105 C 0.42977 0.88416 0.91569 0.0
C106 C 0.57039 -0.00472 0.99148 0.0
C107 C 0.64233 0.04652 -0.00327 0.0
C108 C 0.6669 0.08591 0.03381 0.0
C109 C 0.71261 0.16349 0.03482 0.0
C110 C 0.72339 0.20189 0.06937 0.0
C111 C 0.68875 0.16266 0.10305 0.0
H112 H 0.60555 -0.01323 0.06857 0.0
C113 C 0.64943 0.0848 0.10249 0.0
C114 C 0.63892 0.04677 0.06831 0.0
H115 H 0.62317 0.05339 0.12824 0.0
H116 H 0.57872 0.87673 0.87986 0.0
H117 H 0.63802 0.95376 0.93598 0.0
H118 H 0.43048 0.94072 0.96684 0.0
H119 H 0.37134 0.86446 0.91083 0.0
H120 H 0.53107 -0.01488 0.01446 0.0
H121 H 0.68148 0.0637 0.9731 0.0
H122 H 0.73548 0.19465 0.00857 0.0
H123 H 0.7538 0.26202 0.06916 0.0
C124 C 0.54019 0.66852 0.59732 0.0
C125 C 0.48253 0.68512 0.5968 0.0
C126 C 0.56146 0.64787 0.56375 0.0
C127 C 0.52365 0.64117 0.52908 0.0
C128 C 0.46976 0.6635 0.52824 0.0
C129 C 0.44924 0.68523 0.56186 0.0
C130 C 0.53499 0.60698 0.49407 0.0
C131 C 0.56993 0.56684 0.49421 0.0
C132 C 0.57601 0.52807 0.46004 0.0
C133 C 0.63932 0.52086 0.45601 0.0
C134 C 0.64654 0.48306 0.42488 0.0
C135 C 0.5896 0.44983 0.39756 0.0
H136 H 0.46815 0.49734 0.43578 0.0
C137 C 0.52516 0.45522 0.40203 0.0
C138 C 0.5186 0.4945 0.43288 0.0
H139 H 0.48056 0.4304 0.3813 0.0
H140 H 0.56616 0.66768 0.62415 0.0
H141 H 0.60559 0.63476 0.56582 0.0
H142 H 0.44033 0.65999 0.50197 0.0
H143 H 0.4036 0.69655 0.56104 0.0
H144 H 0.5104 0.61204 0.46751 0.0
H145 H 0.59596 0.56163 0.52005 0.0
H146 H 0.68382 0.54531 0.47683 0.0
H147 H 0.6967 0.47951 0.42231 0.0
C148 C 0.87107 0.54295 0.10309 0.0
C149 C 0.79331 0.50132 0.1036 0.0
C150 C 0.9095 0.56649 0.06855 0.0
C151 C 0.87083 0.54864 0.03354 0.0
C152 C 0.79272 0.51078 0.03422 0.0
C153 C 0.7541 0.48773 0.06906 0.0
C154 C 0.91045 0.56019 0.99645 0.0
C155 C -0.01743 0.61128 0.99165 0.0
C156 C 0.02677 0.61507 0.95748 0.0
C157 C 0.08978 0.68293 0.94823 0.0
C158 C 0.13563 0.68803 0.91782 0.0
C159 C 0.1203 0.62492 0.89629 0.0
H160 H 0.96438 0.49792 0.94312 0.0
C161 C 0.05774 0.55656 0.90583 0.0
C162 C 0.01124 0.55167 0.93606 0.0
H163 H 0.04423 0.50699 0.88971 0.0
H164 H 0.90239 0.55321 0.12939 0.0
H165 H 0.96943 0.59378 0.06956 0.0
H166 H 0.76156 0.49589 0.00769 0.0
H167 H 0.69408 0.45444 0.06876 0.0
H168 H 0.87979 0.52372 0.9729 0.0
H169 H 0.0112 0.65253 0.01371 0.0
H170 H 0.10367 0.73233 0.96462 0.0
H171 H 0.18357 0.74154 0.91141 0.0
C172 C 0.24457 0.76434 0.5664 0.0
C173 C 0.25525 0.79879 0.60209 0.0
C174 C 0.25685 0.80568 0.53267 0.0
C175 C 0.27955 0.8818 0.53441 0.0
C176 C 0.28357 0.91406 0.57017 0.0
C177 C 0.27265 0.87318 0.60378 0.0
C178 C 0.30588 0.93066 0.50011 0.0
C179 C 0.3469 0.92247 0.47274 0.0
C180 C 0.38783 0.97909 0.44256 0.0
C181 C 0.45153 0.98281 0.42647 0.0
C182 C 0.49345 0.03688 0.39907 0.0
C183 C 0.47221 0.08829 0.3868 0.0
H184 H 0.31584 0.02733 0.44075 0.0
C185 C 0.40753 0.08365 0.40243 0.0
C186 C 0.36573 0.02964 0.42991 0.0
H187 H 0.38867 0.12148 0.39333 0.0
H188 H 0.23207 0.70718 0.56461 0.0
H189 H 0.25158 0.7789 0.5054 0.0
H190 H 0.30045 0.9724 0.57224 0.0
H191 H 0.28191 0.9008 0.63115 0.0
H192 H 0.30081 0.98024 0.50052 0.0
H193 H 0.35763 0.87637 0.4749 0.0
H194 H 0.46961 0.94429 0.43549 0.0
H195 H 0.54231 0.03797 0.38742 0.0
C196 C 0.47896 0.27444 0.06564 0.0
C197 C 0.45373 0.27903 0.10219 0.0
C198 C 0.45089 0.29196 0.03313 0.0
C199 C 0.39696 0.3139 0.03691 0.0
C200 C 0.36779 0.31248 0.07332 0.0
C201 C 0.39673 0.29631 0.10575 0.0
C202 C 0.3734 0.3432 0.00412 0.0
C203 C 0.4211 0.38596 0.97651 0.0
C204 C 0.4029 0.42648 0.94698 0.0
C205 C 0.46117 0.48991 0.92969 0.0
C206 C 0.44675 0.53035 0.90218 0.0
C207 C 0.37346 0.5079 0.891 0.0
H208 H 0.28313 0.35388 0.9474 0.0
C209 C 0.31508 0.4439 0.90811 0.0
C210 C 0.32956 0.40357 0.93566 0.0
H211 H 0.25794 0.42412 0.89993 0.0
H212 H 0.52369 0.2622 0.06242 0.0
H213 H 0.47313 0.29072 0.00529 0.0
H214 H 0.32589 0.32859 0.07697 0.0
H215 H 0.37725 0.301 0.13381 0.0
H216 H 0.31849 0.3373 0.00567 0.0
H217 H 0.47813 0.39727 0.97756 0.0
H218 H 0.51825 0.50865 0.93766 0.0
H219 H 0.49328 0.57874 0.88942 0.0
C220 C 0.89542 0.4064 0.40463 0.0
C221 C 0.83253 0.33823 0.39549 0.0
C222 C 0.94133 0.41123 0.43521 0.0
C223 C 0.92489 0.34798 0.45737 0.0
C224 C 0.8618 0.28023 0.4484 0.0
C225 C 0.81653 0.27516 0.41764 0.0
C226 C 0.96803 0.35211 0.49212 0.0
C227 C 0.04016 0.40288 0.49697 0.0
C228 C 0.07848 0.4155 0.53451 0.0
C229 C 0.15647 0.45131 0.53576 0.0
C230 C 0.19418 0.47505 0.57073 0.0
C231 C 0.15422 0.46441 0.60478 0.0
H232 H -0.02101 0.3751 0.56956 0.0
C233 C 0.07639 0.42504 0.60379 0.0
C234 C 0.03885 0.40071 0.56913 0.0
H235 H 0.04449 0.41686 0.62969 0.0
H236 H 0.90947 0.45593 0.38805 0.0
H237 H -0.01169 0.4649 0.44201 0.0
H238 H 0.84729 0.23096 0.46536 0.0
H239 H 0.76837 0.2218 0.41152 0.0
H240 H 0.93854 0.31179 0.51466 0.0
H241 H 0.07172 0.43832 0.47312 0.0
H242 H 0.18832 0.46386 0.50951 0.0
H243 H 0.25432 0.50646 0.57077 0.0
C244 C 0.55135 0.93696 0.27677 0.0
C245 C 0.55098 0.97296 0.24264 0.0
C246 C 0.56405 0.87725 0.27586 0.0
C247 C 0.57697 0.85298 0.24077 0.0
C248 C 0.567 0.88261 0.20648 0.0
C249 C 0.55409 0.94255 0.20738 0.0
C250 C 0.60638 0.80131 0.23931 0.0
C251 C 0.65395 0.80199 0.2659 0.0
C252 C 0.68538 0.75214 0.26363 0.0
C253 C 0.6949 0.72064 0.29733 0.0
C254 C 0.71204 0.66361 0.29527 0.0
C255 C 0.72027 0.63823 0.25942 0.0
H256 H 0.69894 0.75872 0.20184 0.0
C257 C 0.71955 0.67609 0.22609 0.0
C258 C 0.70229 0.73267 0.22816 0.0
H259 H 0.72711 0.65838 0.19813 0.0
H260 H 0.5472 0.95839 0.30434 0.0
H261 H 0.56749 0.85278 0.30271 0.0
H262 H 0.57495 0.86331 0.17907 0.0
H263 H 0.55324 0.96897 0.18071 0.0
H264 H 0.59214 0.76529 0.21455 0.0
H265 H 0.66837 0.83787 0.29071 0.0
H266 H 0.6837 0.73624 0.32504 0.0
H267 H 0.7122 0.63524 0.32139 0.0
C268 C 0.02374 0.74026 0.72104 0.0
C269 C 0.06263 0.74401 0.75467 0.0
C270 C 0.95091 0.72591 0.72305 0.0
C271 C 0.91595 0.71481 0.75876 0.0
C272 C 0.95768 0.72776 0.79239 0.0
C273 C 0.03086 0.74211 0.7904 0.0
C274 C 0.83516 0.68468 0.76157 0.0
C275 C 0.78746 0.63377 0.73671 0.0
C276 C 0.70668 0.60373 0.7395 0.0
C277 C 0.66498 0.59085 0.70586 0.0
C278 C 0.59187 0.5767 0.70784 0.0
C279 C 0.56016 0.57498 0.74356 0.0
H280 H 0.70159 0.59875 0.80163 0.0
C281 C 0.59899 0.57865 0.77721 0.0
C282 C 0.67173 0.59276 0.77521 0.0
H283 H 0.57493 0.57594 0.80512 0.0
H284 H 0.0478 0.74305 0.69312 0.0
H285 H 0.921 0.71985 0.69663 0.0
H286 H 0.93197 0.72102 0.82022 0.0
H287 H 0.05982 0.74484 0.81674 0.0
H288 H 0.81458 0.70202 0.78571 0.0
H289 H 0.80804 0.61643 0.71257 0.0
H290 H 0.69067 0.59748 0.67804 0.0
H291 H 0.56289 0.57393 0.6815 0.0
C292 C 0.27966 0.01821 0.28097 0.0
C293 C 0.30661 0.06027 0.24725 0.0
C294 C 0.2209 0.9453 0.27923 0.0
C295 C 0.18818 0.91423 0.24377 0.0
C296 C 0.20966 0.95919 0.21093 0.0
C297 C 0.26915 0.03154 0.21254 0.0
C298 C 0.13529 0.83419 0.23967 0.0
C299 C 0.14289 0.78261 0.2595 0.0
C300 C 0.09006 0.70258 0.25538 0.0
C301 C 0.06844 0.65762 0.28823 0.0
C302 C 0.0091 0.58521 0.28656 0.0
C303 C 0.97192 0.55638 0.25179 0.0
H304 H 0.07528 0.70434 0.19385 0.0
C305 C -0.00094 0.59844 0.2181 0.0
C306 C 0.05763 0.67145 0.21989 0.0
H307 H 0.97113 0.5773 0.19101 0.0
H308 H 0.30793 0.03921 0.30802 0.0
H309 H 0.20339 0.91241 0.30527 0.0
H310 H 0.18416 0.93665 0.18348 0.0
H311 H 0.28905 0.06332 0.18621 0.0
H312 H 0.09192 0.81742 0.21823 0.0
H313 H 0.18627 0.79936 0.28094 0.0
H314 H 0.09373 0.6802 0.31571 0.0
H315 H -0.01089 0.55341 0.31288 0.0
C316 C 0.22732 0.28927 0.72491 0.0
C317 C 0.22793 0.32641 0.75852 0.0
C318 C 0.24262 0.2313 0.72648 0.0
C319 C 0.259 0.20986 0.76171 0.0
C320 C 0.25057 0.24069 0.7957 0.0
C321 C 0.23531 0.29904 0.79415 0.0
C322 C 0.28968 0.15936 0.76343 0.0
C323 C 0.33697 0.16071 0.7366 0.0
C324 C 0.36702 0.10966 0.73809 0.0
C325 C 0.37542 0.07924 0.70394 0.0
C326 C 0.38942 0.02003 0.70519 0.0
C327 C 0.39543 -0.00867 0.74067 0.0
H328 H 0.37991 0.11202 0.79989 0.0
C329 C 0.39628 0.02803 0.77449 0.0
C330 C 0.38234 0.08692 0.77322 0.0
H331 H 0.40242 0.00777 0.80217 0.0
H332 H 0.22029 0.30855 0.69713 0.0
H333 H 0.24515 0.20585 0.69996 0.0
H334 H 0.26142 0.22361 0.82322 0.0
H335 H 0.23604 0.32681 0.82047 0.0
H336 H 0.27568 0.12294 0.78822 0.0
H337 H 0.35093 0.19716 0.71182 0.0
H338 H 0.36543 0.09731 0.67649 0.0
H339 H 0.38878 -0.00726 0.67872 0.0
C340 C 0.35507 0.391 0.28083 0.0
C341 C 0.39384 0.39628 0.24696 0.0
C342 C 0.28292 0.37875 0.27916 0.0
C343 C 0.2485 0.3713 0.24354 0.0
C344 C 0.29039 0.38598 0.20985 0.0
C345 C 0.36288 0.39827 0.2115 0.0
C346 C 0.16789 0.34249 0.24072 0.0
C347 C 0.11937 0.29019 0.265 0.0
C348 C 0.03857 0.25924 0.26122 0.0
C349 C -0.00511 0.24344 0.29431 0.0
C350 C 0.92108 0.22689 0.29141 0.0
C351 C 0.89056 0.22559 0.2553 0.0
H352 H 0.0368 0.2574 0.19905 0.0
C353 C 0.93181 0.23254 0.22216 0.0
C354 C 0.00528 0.24915 0.22508 0.0
H355 H 0.90891 0.23035 0.19395 0.0
H356 H 0.3786 0.39105 0.30859 0.0
H357 H 0.25302 0.37136 0.30568 0.0
H358 H 0.26517 0.38209 0.18212 0.0
H359 H 0.39185 0.40257 0.18499 0.0
H360 H 0.14799 0.36123 0.21669 0.0
H361 H 0.13907 0.27133 0.28906 0.0
H362 H 0.01932 0.24933 0.32244 0.0
H363 H 0.8904 0.2218 0.3174 0.0
C364 C 0.94941 0.37044 0.72048 0.0
C365 C -0.02084 0.40903 0.75469 0.0
C366 C 0.89046 0.29763 0.72165 0.0
C367 C 0.86031 0.26324 0.75705 0.0
C368 C 0.88442 0.30485 0.79074 0.0
C369 C 0.94413 0.37712 0.78965 0.0
C370 C 0.80767 0.183 0.75999 0.0
C371 C 0.81446 0.13356 0.73815 0.0
C372 C 0.76191 0.05329 0.74114 0.0
C373 C 0.73811 0.01151 0.7075 0.0
C374 C 0.6785 0.93919 0.7086 0.0
C375 C 0.64321 0.90739 0.74353 0.0
H376 H 0.75097 0.04946 0.80309 0.0
C377 C 0.67266 0.9462 0.77773 0.0
C378 C 0.73155 0.01903 0.77654 0.0
H379 H 0.64631 0.92279 0.805 0.0
H380 H 0.97552 0.39403 0.6932 0.0
H381 H 0.87081 0.26732 0.69508 0.0
H382 H 0.86083 0.27968 0.81821 0.0
H383 H 0.96598 0.40631 0.81637 0.0
H384 H 0.76538 0.16414 0.78217 0.0
H385 H 0.85677 0.15245 0.71598 0.0
H386 H 0.76189 0.03658 0.68004 0.0
H387 H 0.6569 0.90987 0.68189 0.0
loop_
_geom_bond_atom_site_label_1
_geom_bond_atom_site_label_2
_geom_bond_distance
_geom_bond_site_symmetry_2
_ccdc_geom_bond_type
O0 Zr5 2.207 . S
O0 C34 1.295 . S
O1 Zr5 2.133 . S
O1 Zr6 2.133 . S
O1 Zr7 2.133 . S
O2 Zr5 2.133 . S
O2 Zr11 2.133 . S
O2 Zr12 2.133 . S
O3 Zr5 2.133 . S
O3 Zr7 2.133 . S
O3 Zr12 2.133 . S
O4 Zr5 2.133 . S
O4 Zr6 2.133 . S
O4 Zr11 2.133 . S
Zr5 O0 2.207 . S
Zr5 O1 2.133 . S
Zr5 O2 2.133 . S
Zr5 O3 2.133 . S
Zr5 O4 2.133 . S
Zr5 O17 2.207 . S
Zr5 O30 2.207 . S
Zr5 O33 2.207 . S
Zr6 O1 2.133 . S
Zr6 O4 2.133 . S
Zr6 O8 2.133 . S
Zr6 O10 2.133 . S
Zr6 O22 2.207 . S
Zr6 O25 2.207 . S
Zr6 O35 2.207 . S
Zr6 O36 2.207 . S
Zr7 O1 2.133 . S
Zr7 O3 2.133 . S
Zr7 O9 2.133 . S
Zr7 O10 2.133 . S
Zr7 O19 2.207 . S
Zr7 O20 2.207 . S
Zr7 O27 2.207 . S
Zr7 O28 2.207 . S
O8 Zr6 2.133 . S
O8 Zr11 2.133 . S
O8 Zr13 2.133 . S
O9 Zr7 2.133 . S
O9 Zr12 2.133 . S
O9 Zr13 2.133 . S
O10 Zr6 2.133 . S
O10 Zr7 2.133 . S
O10 Zr13 2.133 . S
Zr11 O2 2.133 . S
Zr11 O4 2.133 . S
Zr11 O8 2.133 . S
Zr11 O14 2.133 . S
Zr11 O18 2.207 . S
Zr11 O21 2.207 . S
Zr11 O26 2.207 . S
Zr11 O29 2.207 . S
Zr12 O2 2.133 . S
Zr12 O3 2.133 . S
Zr12 O9 2.133 . S
Zr12 O14 2.133 . S
Zr12 O23 2.207 . S
Zr12 O24 2.207 . S
Zr12 O48 2.207 . S
Zr12 O49 2.207 . S
Zr13 O8 2.133 . S
Zr13 O9 2.133 . S
Zr13 O10 2.133 . S
Zr13 O14 2.133 . S
Zr13 O15 2.207 . S
Zr13 O16 2.207 . S
Zr13 O31 2.207 . S
Zr13 O32 2.207 . S
O14 Zr11 2.133 . S
O14 Zr12 2.133 . S
O14 Zr13 2.133 . S
O15 Zr13 2.207 . S
O15 C37 1.295 . S
O16 Zr13 2.207 . S
O16 C38 1.295 . S
O17 Zr5 2.207 . S
O17 C39 1.295 . S
O18 Zr11 2.207 . S
O18 C40 1.295 . S
O19 Zr7 2.207 . S
O19 C41 1.295 . S
O20 Zr7 2.207 . S
O20 C42 1.295 . S
O21 Zr11 2.207 . S
O21 C43 1.295 . S
O22 Zr6 2.207 . S
O22 C44 1.295 . S
O23 Zr12 2.207 . S
O23 C45 1.295 . S
O24 Zr12 2.207 . S
O24 C46 1.295 . S
O25 Zr6 2.207 . S
O25 C47 1.295 . S
O26 Zr11 2.207 . S
O26 C37 1.295 . S
O27 Zr7 2.207 . S
O27 C34 1.295 . S
O28 Zr7 2.207 . S
O28 C38 1.295 . S
O29 Zr11 2.207 . S
O29 C39 1.295 . S
O30 Zr5 2.207 . S
O30 C47 1.295 . S
O31 Zr13 2.207 . S
O31 C46 1.295 . S
O32 Zr13 2.207 . S
O32 C44 1.295 . S
O33 Zr5 2.207 . S
O33 C45 1.295 . S
C34 O0 1.295 . S
C34 O27 1.295 . S
O35 Zr6 2.207 . S
O35 C43 1.295 . S
O36 Zr6 2.207 . S
O36 C41 1.295 . S
C37 O15 1.295 . S
C37 O26 1.295 . S
C38 O16 1.295 . S
C38 O28 1.295 . S
C39 O17 1.295 . S
C39 O29 1.295 . S
C40 O18 1.295 . S
C40 O49 1.295 . S
C41 O19 1.295 . S
C41 O36 1.295 . S
C42 O20 1.295 . S
C42 O48 1.295 . S
C43 O21 1.295 . S
C43 O35 1.295 . S
C44 O22 1.295 . S
C44 O32 1.295 . S
C45 O23 1.295 . S
C45 O33 1.295 . S
C46 O24 1.295 . S
C46 O31 1.295 . S
C47 O25 1.295 . S
C47 O30 1.295 . S
O48 Zr12 2.207 . S
O48 C42 1.295 . S
O49 Zr12 2.207 . S
O49 C40 1.295 . S
O50 Zr55 2.207 . S
O50 C84 1.295 . S
O51 Zr55 2.133 . S
O51 Zr56 2.133 . S
O51 Zr57 2.133 . S
O52 Zr55 2.133 . S
O52 Zr61 2.133 . S
O52 Zr62 2.133 . S
O53 Zr55 2.133 . S
O53 Zr57 2.133 . S
O53 Zr62 2.133 . S
O54 Zr55 2.133 . S
O54 Zr56 2.133 . S
O54 Zr61 2.133 . S
Zr55 O50 2.207 . S
Zr55 O51 2.133 . S
Zr55 O52 2.133 . S
Zr55 O53 2.133 . S
Zr55 O54 2.133 . S
Zr55 O67 2.207 . S
Zr55 O80 2.207 . S
Zr55 O83 2.207 . S
Zr56 O51 2.133 . S
Zr56 O54 2.133 . S
Zr56 O58 2.133 . S
Zr56 O60 2.133 . S
Zr56 O72 2.207 . S
Zr56 O75 2.207 . S
Zr56 O85 2.207 . S
Zr56 O86 2.207 . S
Zr57 O51 2.133 . S
Zr57 O53 2.133 . S
Zr57 O59 2.133 . S
Zr57 O60 2.133 . S
Zr57 O69 2.207 . S
Zr57 O70 2.207 . S
Zr57 O77 2.207 . S
Zr57 O78 2.207 . S
O58 Zr56 2.133 . S
O58 Zr61 2.133 . S
O58 Zr63 2.133 . S
O59 Zr57 2.133 . S
O59 Zr62 2.133 . S
O59 Zr63 2.133 . S
O60 Zr56 2.133 . S
O60 Zr57 2.133 . S
O60 Zr63 2.133 . S
Zr61 O52 2.133 . S
Zr61 O54 2.133 . S
Zr61 O58 2.133 . S
Zr61 O64 2.133 . S
Zr61 O68 2.207 . S
Zr61 O71 2.207 . S
Zr61 O76 2.207 . S
Zr61 O79 2.207 . S
Zr62 O52 2.133 . S
Zr62 O53 2.133 . S
Zr62 O59 2.133 . S
Zr62 O64 2.133 . S
Zr62 O73 2.207 . S
Zr62 O74 2.207 . S
Zr62 O98 2.207 . S
Zr62 O99 2.207 . S
Zr63 O58 2.133 . S
Zr63 O59 2.133 . S
Zr63 O60 2.133 . S
Zr63 O64 2.133 . S
Zr63 O65 2.207 . S
Zr63 O66 2.207 . S
Zr63 O81 2.207 . S
Zr63 O82 2.207 . S
O64 Zr61 2.133 . S
O64 Zr62 2.133 . S
O64 Zr63 2.133 . S
O65 Zr63 2.207 . S
O65 C87 1.295 . S
O66 Zr63 2.207 . S
O66 C88 1.295 . S
O67 Zr55 2.207 . S
O67 C89 1.295 . S
O68 Zr61 2.207 . S
O68 C90 1.295 . S
O69 Zr57 2.207 . S
O69 C91 1.295 . S
O70 Zr57 2.207 . S
O70 C92 1.295 . S
O71 Zr61 2.207 . S
O71 C93 1.295 . S
O72 Zr56 2.207 . S
O72 C94 1.295 . S
O73 Zr62 2.207 . S
O73 C95 1.295 . S
O74 Zr62 2.207 . S
O74 C96 1.295 . S
O75 Zr56 2.207 . S
O75 C97 1.295 . S
O76 Zr61 2.207 . S
O76 C87 1.295 . S
O77 Zr57 2.207 . S
O77 C84 1.295 . S
O78 Zr57 2.207 . S
O78 C88 1.295 . S
O79 Zr61 2.207 . S
O79 C89 1.295 . S
O80 Zr55 2.207 . S
O80 C97 1.295 . S
O81 Zr63 2.207 . S
O81 C96 1.295 . S
O82 Zr63 2.207 . S
O82 C94 1.295 . S
O83 Zr55 2.207 . S
O83 C95 1.295 . S
C84 O50 1.295 . S
C84 O77 1.295 . S
O85 Zr56 2.207 . S
O85 C93 1.295 . S
O86 Zr56 2.207 . S
O86 C91 1.295 . S
C87 O65 1.295 . S
C87 O76 1.295 . S
C88 O66 1.295 . S
C88 O78 1.295 . S
C89 O67 1.295 . S
C89 O79 1.295 . S
C90 O68 1.295 . S
C90 O99 1.295 . S
C91 O69 1.295 . S
C91 O86 1.295 . S
C92 O70 1.295 . S
C92 O98 1.295 . S
C93 O71 1.295 . S
C93 O85 1.295 . S
C94 O72 1.295 . S
C94 O82 1.295 . S
C95 O73 1.295 . S
C95 O83 1.295 . S
C96 O74 1.295 . S
C96 O81 1.295 . S
C97 O75 1.295 . S
C97 O80 1.295 . S
O98 Zr62 2.207 . S
O98 C92 1.295 . S
O99 Zr62 2.207 . S
O99 C90 1.295 . S
C100 C101 1.386 . S
C100 C102 1.383 . S
C100 H116 0.951 . S
C101 C100 1.386 . S
C101 C105 1.383 . S
C102 C100 1.383 . S
C102 C103 1.402 . S
C102 H117 0.951 1_565 S
C103 C102 1.402 . S
C103 C104 1.375 . S
C103 C106 1.456 1_566 S
C104 C103 1.375 . S
C104 C105 1.367 . S
C104 H118 0.951 . S
C105 C101 1.383 . S
C105 C104 1.367 . S
C105 H119 0.950 . S
C106 C103 1.456 1_544 S
C106 C107 1.299 . S
C106 H120 0.975 1_545 S
C107 C106 1.299 . S
C107 C108 1.479 . S
C107 H121 0.950 1_554 S
C108 C107 1.479 . S
C108 C109 1.375 . S
C108 C114 1.404 . S
C109 C108 1.375 . S
C109 C110 1.369 . S
C109 H122 0.950 . S
C110 C109 1.369 . S
C110 C111 1.392 . S
C110 H123 0.951 . S
C111 C110 1.392 . S
C111 C113 1.384 . S
H112 C114 0.949 . S
C113 C111 1.384 . S
C113 C114 1.385 . S
C113 H115 0.950 . S
C114 C108 1.404 . S
C114 H112 0.949 . S
C114 C113 1.385 . S
H115 C113 0.950 . S
H116 C100 0.951 . S
H117 C102 0.951 1_545 S
H118 C104 0.951 . S
H119 C105 0.950 . S
H120 C106 0.975 1_565 S
H121 C107 0.950 1_556 S
H122 C109 0.950 . S
H123 C110 0.951 . S
C124 C125 1.386 . S
C124 C126 1.383 . S
C124 H140 0.951 . S
C125 C124 1.386 . S
C125 C129 1.383 . S
C126 C124 1.383 . S
C126 C127 1.402 . S
C126 H141 0.951 . S
C127 C126 1.402 . S
C127 C128 1.375 . S
C127 C130 1.481 . S
C128 C127 1.375 . S
C128 C129 1.367 . S
C128 H142 0.951 . S
C129 C125 1.383 . S
C129 C128 1.367 . S
C129 H143 0.950 . S
C130 C127 1.481 . S
C130 C131 1.297 . S
C130 H144 0.950 . S
C131 C130 1.297 . S
C131 C132 1.479 . S
C131 H145 0.950 . S
C132 C131 1.479 . S
C132 C133 1.375 . S
C132 C138 1.404 . S
C133 C132 1.375 . S
C133 C134 1.369 . S
C133 H146 0.950 . S
C134 C133 1.369 . S
C134 C135 1.392 . S
C134 H147 0.951 . S
C135 C134 1.392 . S
C135 C137 1.384 . S
H136 C138 0.949 . S
C137 C135 1.384 . S
C137 C138 1.385 . S
C137 H139 0.950 . S
C138 C132 1.404 . S
C138 H136 0.949 . S
C138 C137 1.385 . S
H139 C137 0.950 . S
H140 C124 0.951 . S
H141 C126 0.951 . S
H142 C128 0.951 . S
H143 C129 0.950 . S
H144 C130 0.950 . S
H145 C131 0.950 . S
H146 C133 0.950 . S
H147 C134 0.951 . S
C148 C149 1.386 . S
C148 C150 1.383 . S
C148 H164 0.951 . S
C149 C148 1.386 . S
C149 C153 1.383 . S
C150 C148 1.383 . S
C150 C151 1.402 . S
C150 H165 0.951 . S
C151 C150 1.402 . S
C151 C152 1.375 . S
C151 C154 1.481 . S
C152 C151 1.375 . S
C152 C153 1.367 . S
C152 H166 0.951 . S
C153 C149 1.383 . S
C153 C152 1.367 . S
C153 H167 0.950 . S
C154 C151 1.481 . S
C154 C155 1.297 1_655 S
C154 H168 0.936 1_554 S
C155 C154 1.297 1_455 S
C155 C156 1.479 1_554 S
C155 H169 0.950 . S
C156 C155 1.479 1_556 S
C156 C157 1.375 . S
C156 C162 1.404 . S
C157 C156 1.375 . S
C157 C158 1.369 . S
C157 H170 0.950 . S
C158 C157 1.369 . S
C158 C159 1.392 . S
C158 H171 0.951 . S
C159 C158 1.392 . S
C159 C161 1.384 . S
H160 C162 0.949 . S
C161 C159 1.384 . S
C161 C162 1.385 . S
C161 H163 0.950 . S
C162 C156 1.404 . S
C162 H160 0.949 . S
C162 C161 1.385 . S
H163 C161 0.950 . S
H164 C148 0.951 . S
H165 C150 0.951 . S
H166 C152 0.951 . S
H167 C153 0.950 . S
H168 C154 0.936 1_556 S
H169 C155 0.950 . S
H170 C157 0.950 . S
H171 C158 0.951 . S
C172 C173 1.386 . S
C172 C174 1.383 . S
C172 H188 0.951 . S
C173 C172 1.386 . S
C173 C177 1.383 . S
C174 C172 1.383 . S
C174 C175 1.402 . S
C174 H189 0.951 . S
C175 C174 1.402 . S
C175 C176 1.375 . S
C175 C178 1.481 . S
C176 C175 1.375 . S
C176 C177 1.367 . S
C176 H190 0.951 . S
C177 C173 1.383 . S
C177 C176 1.367 . S
C177 H191 0.950 . S
C178 C175 1.481 . S
C178 C179 1.297 . S
C178 H192 0.950 . S
C179 C178 1.297 . S
C179 C180 1.479 1_565 S
C179 H193 0.950 . S
C180 C179 1.479 1_545 S
C180 C181 1.375 . S
C180 C186 1.404 . S
C181 C180 1.375 . S
C181 C182 1.369 . S
C181 H194 0.950 1_545 S
C182 C181 1.369 . S
C182 C183 1.392 . S
C182 H195 0.951 . S
C183 C182 1.392 . S
C183 C185 1.384 . S
H184 C186 0.949 . S
C185 C183 1.384 . S
C185 C186 1.385 . S
C185 H187 0.950 . S
C186 C180 1.404 . S
C186 H184 0.949 . S
C186 C185 1.385 . S
H187 C185 0.950 . S
H188 C172 0.951 . S
H189 C174 0.951 . S
H190 C176 0.951 . S
H191 C177 0.950 . S
H192 C178 0.950 . S
H193 C179 0.950 . S
H194 C181 0.950 1_565 S
H195 C182 0.951 . S
C196 C197 1.386 . S
C196 C198 1.383 . S
C196 H212 0.951 . S
C197 C196 1.386 . S
C197 C201 1.383 . S
C198 C196 1.383 . S
C198 C199 1.402 . S
C198 H213 0.951 . S
C199 C198 1.402 . S
C199 C200 1.375 . S
C199 C202 1.481 . S
C200 C199 1.375 . S
C200 C201 1.367 . S
C200 H214 0.951 . S
C201 C197 1.383 . S
C201 C200 1.367 . S
C201 H215 0.950 . S
C202 C199 1.481 . S
C202 C203 1.297 1_554 S
C202 H216 0.950 . S
C203 C202 1.297 1_556 S
C203 C204 1.479 . S
C203 H217 0.950 . S
C204 C203 1.479 . S
C204 C205 1.375 . S
C204 C210 1.404 . S
C205 C204 1.375 . S
C205 C206 1.369 . S
C205 H218 0.950 . S
C206 C205 1.369 . S
C206 C207 1.392 . S
C206 H219 0.951 . S
C207 C206 1.392 . S
C207 C209 1.384 . S
H208 C210 0.949 . S
C209 C207 1.384 . S
C209 C210 1.385 . S
C209 H211 0.950 . S
C210 C204 1.404 . S
C210 H208 0.949 . S
C210 C209 1.385 . S
H211 C209 0.950 . S
H212 C196 0.951 . S
H213 C198 0.951 . S
H214 C200 0.951 . S
H215 C201 0.950 . S
H216 C202 0.950 . S
H217 C203 0.950 . S
H218 C205 0.950 . S
H219 C206 0.951 . S
C220 C221 1.386 . S
C220 C222 1.383 . S
C220 H236 0.951 . S
C221 C220 1.386 . S
C221 C225 1.383 . S
C222 C220 1.383 . S
C222 C223 1.402 . S
C222 H237 0.951 . S
C223 C222 1.402 . S
C223 C224 1.375 . S
C223 C226 1.481 . S
C224 C223 1.375 . S
C224 C225 1.367 . S
C224 H238 0.951 . S
C225 C221 1.383 . S
C225 C224 1.367 . S
C225 H239 0.950 . S
C226 C223 1.481 . S
C226 C227 1.297 1_655 S
C226 H240 0.950 . S
C227 C226 1.297 1_455 S
C227 C228 1.479 . S
C227 H241 0.950 . S
C228 C227 1.479 . S
C228 C229 1.375 . S
C228 C234 1.404 . S
C229 C228 1.375 . S
C229 C230 1.369 . S
C229 H242 0.950 . S
C230 C229 1.369 . S
C230 C231 1.392 . S
C230 H243 0.951 . S
C231 C230 1.392 . S
C231 C233 1.384 . S
H232 C234 0.949 . S
C233 C231 1.384 . S
C233 C234 1.385 . S
C233 H235 0.950 . S
C234 C228 1.404 . S
C234 H232 0.949 . S
C234 C233 1.385 . S
H235 C233 0.950 . S
H236 C220 0.951 . S
H237 C222 0.951 . S
H238 C224 0.951 . S
H239 C225 0.950 . S
H240 C226 0.950 . S
H241 C227 0.950 . S
H242 C229 0.950 . S
H243 C230 0.951 . S
C244 C245 1.386 . S
C244 C246 1.383 1_545 S
C244 H260 0.951 . S
C245 C244 1.386 . S
C245 C249 1.383 1_545 S
C246 C244 1.383 1_565 S
C246 C247 1.402 . S
C246 H261 0.951 . S
C247 C246 1.402 . S
C247 C248 1.375 . S
C247 C250 1.481 . S
C248 C247 1.375 . S
C248 C249 1.367 . S
C248 H262 0.951 . S
C249 C245 1.383 1_565 S
C249 C248 1.367 . S
C249 H263 0.950 1_565 S
C250 C247 1.481 . S
C250 C251 1.297 . S
C250 H264 0.950 . S
C251 C250 1.297 . S
C251 C252 1.479 . S
C251 H265 0.950 . S
C252 C251 1.479 . S
C252 C253 1.375 . S
C252 C258 1.404 . S
C253 C252 1.375 . S
C253 C254 1.369 . S
C253 H266 0.950 . S
C254 C253 1.369 . S
C254 C255 1.392 . S
C254 H267 0.951 . S
C255 C254 1.392 . S
C255 C257 1.384 . S
H256 C258 0.949 . S
C257 C255 1.384 . S
C257 C258 1.385 . S
C257 H259 0.950 . S
C258 C252 1.404 . S
C258 H256 0.949 . S
C258 C257 1.385 . S
H259 C257 0.950 . S
H260 C244 0.951 . S
H261 C246 0.951 . S
H262 C248 0.951 . S
H263 C249 0.950 1_545 S
H264 C250 0.950 . S
H265 C251 0.950 . S
H266 C253 0.950 . S
H267 C254 0.951 . S
C268 C269 1.386 . S
C268 C270 1.383 1_455 S
C268 H284 0.951 . S
C269 C268 1.386 . S
C269 C273 1.383 . S
C270 C268 1.383 1_655 S
C270 C271 1.402 . S
C270 H285 0.951 . S
C271 C270 1.402 . S
C271 C272 1.375 . S
C271 C274 1.481 . S
C272 C271 1.375 . S
C272 C273 1.367 1_655 S
C272 H286 0.951 . S
C273 C269 1.383 . S
C273 C272 1.367 1_455 S
C273 H287 0.950 . S
C274 C271 1.481 . S
C274 C275 1.297 . S
C274 H288 0.950 . S
C275 C274 1.297 . S
C275 C276 1.479 . S
C275 H289 0.950 . S
C276 C275 1.479 . S
C276 C277 1.375 . S
C276 C282 1.404 . S
C277 C276 1.375 . S
C277 C278 1.369 . S
C277 H290 0.950 . S
C278 C277 1.369 . S
C278 C279 1.392 . S
C278 H291 0.951 . S
C279 C278 1.392 . S
C279 C281 1.384 . S
H280 C282 0.949 . S
C281 C279 1.384 . S
C281 C282 1.385 . S
C281 H283 0.950 . S
C282 C276 1.404 . S
C282 H280 0.949 . S
C282 C281 1.385 . S
H283 C281 0.950 . S
H284 C268 0.951 . S
H285 C270 0.951 . S
H286 C272 0.951 . S
H287 C273 0.950 . S
H288 C274 0.950 . S
H289 C275 0.950 . S
H290 C277 0.950 . S
H291 C278 0.951 . S
C292 C293 1.386 . S
C292 C294 1.383 1_545 S
C292 H308 0.951 . S
C293 C292 1.386 . S
C293 C297 1.383 . S
C294 C292 1.383 1_565 S
C294 C295 1.402 . S
C294 H309 0.951 . S
C295 C294 1.402 . S
C295 C296 1.375 . S
C295 C298 1.481 . S
C296 C295 1.375 . S
C296 C297 1.367 1_565 S
C296 H310 0.951 . S
C297 C293 1.383 . S
C297 C296 1.367 1_545 S
C297 H311 0.950 . S
C298 C295 1.481 . S
C298 C299 1.297 . S
C298 H312 0.950 . S
C299 C298 1.297 . S
C299 C300 1.479 . S
C299 H313 0.950 . S
C300 C299 1.479 . S
C300 C301 1.375 . S
C300 C306 1.404 . S
C301 C300 1.375 . S
C301 C302 1.369 1_455 S
C301 H314 0.950 . S
C302 C301 1.369 1_655 S
C302 C303 1.392 . S
C302 H315 0.951 . S
C303 C302 1.392 . S
C303 C305 1.384 . S
H304 C306 0.949 . S
C305 C303 1.384 . S
C305 C306 1.385 1_655 S
C305 H307 0.950 . S
C306 C300 1.404 . S
C306 H304 0.949 . S
C306 C305 1.385 1_455 S
H307 C305 0.950 . S
H308 C292 0.951 . S
H309 C294 0.951 . S
H310 C296 0.951 . S
H311 C297 0.950 . S
H312 C298 0.950 . S
H313 C299 0.950 . S
H314 C301 0.950 . S
H315 C302 0.951 . S
C316 C317 1.386 . S
C316 C318 1.383 . S
C316 H332 0.951 . S
C317 C316 1.386 . S
C317 C321 1.383 . S
C318 C316 1.383 . S
C318 C319 1.402 . S
C318 H333 0.951 . S
C319 C318 1.402 . S
C319 C320 1.375 . S
C319 C322 1.481 . S
C320 C319 1.375 . S
C320 C321 1.367 . S
C320 H334 0.951 . S
C321 C317 1.383 . S
C321 C320 1.367 . S
C321 H335 0.950 . S
C322 C319 1.481 . S
C322 C323 1.297 . S
C322 H336 0.950 . S
C323 C322 1.297 . S
C323 C324 1.479 . S
C323 H337 0.950 . S
C324 C323 1.479 . S
C324 C325 1.375 . S
C324 C330 1.404 . S
C325 C324 1.375 . S
C325 C326 1.369 1_545 S
C325 H338 0.950 . S
C326 C325 1.369 1_565 S
C326 C327 1.392 . S
C326 H339 0.951 . S
C327 C326 1.392 . S
C327 C329 1.384 1_565 S
H328 C330 0.949 . S
C329 C327 1.384 1_545 S
C329 C330 1.385 . S
C329 H331 0.950 . S
C330 C324 1.404 . S
C330 H328 0.949 . S
C330 C329 1.385 . S
H331 C329 0.950 . S
H332 C316 0.951 . S
H333 C318 0.951 . S
H334 C320 0.951 . S
H335 C321 0.950 . S
H336 C322 0.950 . S
H337 C323 0.950 . S
H338 C325 0.950 . S
H339 C326 0.951 . S
C340 C341 1.386 . S
C340 C342 1.383 . S
C340 H356 0.951 . S
C341 C340 1.386 . S
C341 C345 1.383 . S
C342 C340 1.383 . S
C342 C343 1.402 . S
C342 H357 0.951 . S
C343 C342 1.402 . S
C343 C344 1.375 . S
C343 C346 1.481 . S
C344 C343 1.375 . S
C344 C345 1.367 . S
C344 H358 0.951 . S
C345 C341 1.383 . S
C345 C344 1.367 . S
C345 H359 0.950 . S
C346 C343 1.481 . S
C346 C347 1.297 . S
C346 H360 0.950 . S
C347 C346 1.297 . S
C347 C348 1.479 . S
C347 H361 0.950 . S
C348 C347 1.479 . S
C348 C349 1.375 . S
C348 C354 1.404 . S
C349 C348 1.375 . S
C349 C350 1.369 1_455 S
C349 H362 0.950 . S
C350 C349 1.369 1_655 S
C350 C351 1.392 . S
C350 H363 0.951 . S
C351 C350 1.392 . S
C351 C353 1.384 . S
H352 C354 0.949 . S
C353 C351 1.384 . S
C353 C354 1.385 1_655 S
C353 H355 0.950 . S
C354 C348 1.404 . S
C354 H352 0.949 . S
C354 C353 1.385 1_455 S
H355 C353 0.950 . S
H356 C340 0.951 . S
H357 C342 0.951 . S
H358 C344 0.951 . S
H359 C345 0.950 . S
H360 C346 0.950 . S
H361 C347 0.950 . S
H362 C349 0.950 . S
H363 C350 0.951 . S
C364 C365 1.386 . S
C364 C366 1.383 1_455 S
C364 H380 0.951 . S
C365 C364 1.386 . S
C365 C369 1.383 . S
C366 C364 1.383 1_655 S
C366 C367 1.402 . S
C366 H381 0.951 . S
C367 C366 1.402 . S
C367 C368 1.375 . S
C367 C370 1.481 . S
C368 C367 1.375 . S
C368 C369 1.367 1_655 S
C368 H382 0.951 . S
C369 C365 1.383 . S
C369 C368 1.367 1_455 S
C369 H383 0.950 . S
C370 C367 1.481 . S
C370 C371 1.297 . S
C370 H384 0.950 . S
C371 C370 1.297 . S
C371 C372 1.479 . S
C371 H385 0.950 . S
C372 C371 1.479 . S
C372 C373 1.375 . S
C372 C378 1.404 . S
C373 C372 1.375 . S
C373 C374 1.369 1_545 S
C373 H386 0.950 . S
C374 C373 1.369 1_565 S
C374 C375 1.392 . S
C374 H387 0.951 . S
C375 C374 1.392 . S
C375 C377 1.384 . S
H376 C378 0.949 . S
C377 C375 1.384 . S
C377 C378 1.385 1_565 S
C377 H379 0.950 . S
C378 C372 1.404 . S
C378 H376 0.949 . S
C378 C377 1.385 1_545 S
H379 C377 0.950 . S
H380 C364 0.951 . S
H381 C366 0.951 . S
H382 C368 0.951 . S
H383 C369 0.950 . S
H384 C370 0.950 . S
H385 C371 0.950 . S
H386 C373 0.950 . S
H387 C374 0.951 . S
C101 C84 1.814 . S
C111 C34 1.654 . S
C125 C96 1.671 . S
C135 C37 1.807 . S
C149 C45 1.671 . S
C159 C97 1.807 . S
C173 C90 1.732 . S
C183 C44 1.791 . S
C197 C42 1.706 . S
C207 C91 1.790 . S
C221 C43 1.806 . S
C231 C87 1.661 . S
C245 C41 1.083 . S
C255 C40 1.038 . S
C269 C89 1.058 . S
C279 C88 1.091 . S
C293 C38 1.081 . S
C303 C39 1.034 . S
C317 C94 1.050 . S
C327 C95 1.087 . S
C341 C46 1.084 . S
C351 C47 1.045 . S
C365 C93 1.052 . S
C375 C92 1.089 . S
