# Generated by pormake.
# Topology unr, (4)-cn, num edge types: 1
# Building blocks:
#     Node 0, Type 0, BuildingBlock: CEKHIL_clean_sbu_0, # of connection points: 4
#     Node 1, Type 0, BuildingBlock: CEKHIL_clean_sbu_0, # of connection points: 4
#     Node 2, Type 0, BuildingBlock: CEKHIL_clean_sbu_0, # of connection points: 4
#     Node 3, Type 0, BuildingBlock: CEKHIL_clean_sbu_0, # of connection points: 4
#     Node 4, Type 0, BuildingBlock: CEKHIL_clean_sbu_0, # of connection points: 4
#     Node 5, Type 0, BuildingBlock: CEKHIL_clean_sbu_0, # of connection points: 4
#     Node 6, Type 0, BuildingBlock: CEKHIL_clean_sbu_0, # of connection points: 4
#     Node 7, Type 0, BuildingBlock: CEKHIL_clean_sbu_0, # of connection points: 4
#     Node 8, Type 0, BuildingBlock: CEKHIL_clean_sbu_0, # of connection points: 4
#     Node 9, Type 0, BuildingBlock: CEKHIL_clean_sbu_0, # of connection points: 4
#     Node 10, Type 0, BuildingBlock: CEKHIL_clean_sbu_0, # of connection points: 4
#     Node 11, Type 0, BuildingBlock: CEKHIL_clean_sbu_0, # of connection points: 4
#     Node 12, Type 0, BuildingBlock: CEKHIL_clean_sbu_0, # of connection points: 4
#     Node 13, Type 0, BuildingBlock: CEKHIL_clean_sbu_0, # of connection points: 4
#     Node 14, Type 0, BuildingBlock: CEKHIL_clean_sbu_0, # of connection points: 4
#     Node 15, Type 0, BuildingBlock: CEKHIL_clean_sbu_0, # of connection points: 4
#     Node 16, Type 0, BuildingBlock: CEKHIL_clean_sbu_0, # of connection points: 4
#     Node 17, Type 0, BuildingBlock: CEKHIL_clean_sbu_0, # of connection points: 4
#     Node 18, Type 0, BuildingBlock: CEKHIL_clean_sbu_0, # of connection points: 4
#     Node 19, Type 0, BuildingBlock: CEKHIL_clean_sbu_0, # of connection points: 4
#     Node 20, Type 0, BuildingBlock: CEKHIL_clean_sbu_0, # of connection points: 4
#     Node 21, Type 0, BuildingBlock: CEKHIL_clean_sbu_0, # of connection points: 4
#     Node 22, Type 0, BuildingBlock: CEKHIL_clean_sbu_0, # of connection points: 4
#     Node 23, Type 0, BuildingBlock: CEKHIL_clean_sbu_0, # of connection points: 4
#     Node 24, Type 0, BuildingBlock: CEKHIL_clean_sbu_0, # of connection points: 4
#     Node 25, Type 0, BuildingBlock: CEKHIL_clean_sbu_0, # of connection points: 4
#     Node 26, Type 0, BuildingBlock: CEKHIL_clean_sbu_0, # of connection points: 4
#     Node 27, Type 0, BuildingBlock: CEKHIL_clean_sbu_0, # of connection points: 4
#     Node 28, Type 0, BuildingBlock: CEKHIL_clean_sbu_0, # of connection points: 4
#     Node 29, Type 0, BuildingBlock: CEKHIL_clean_sbu_0, # of connection points: 4
#     Node 30, Type 0, BuildingBlock: CEKHIL_clean_sbu_0, # of connection points: 4
#     Node 31, Type 0, BuildingBlock: CEKHIL_clean_sbu_0, # of connection points: 4
#     Node 32, Type 0, BuildingBlock: CEKHIL_clean_sbu_0, # of connection points: 4
#     Node 33, Type 0, BuildingBlock: CEKHIL_clean_sbu_0, # of connection points: 4
#     Node 34, Type 0, BuildingBlock: CEKHIL_clean_sbu_0, # of connection points: 4
#     Node 35, Type 0, BuildingBlock: CEKHIL_clean_sbu_0, # of connection points: 4
#     Edge 36, Type (0, 0), BuildingBlock: OJICUG_clean_linker_0, # of connection points: 2
#     Edge 37, Type (0, 0), BuildingBlock: OJICUG_clean_linker_0, # of connection points: 2
#     Edge 38, Type (0, 0), BuildingBlock: OJICUG_clean_linker_0, # of connection points: 2
#     Edge 39, Type (0, 0), BuildingBlock: OJICUG_clean_linker_0, # of connection points: 2
#     Edge 40, Type (0, 0), BuildingBlock: OJICUG_clean_linker_0, # of connection points: 2
#     Edge 41, Type (0, 0), BuildingBlock: OJICUG_clean_linker_0, # of connection points: 2
#     Edge 42, Type (0, 0), BuildingBlock: OJICUG_clean_linker_0, # of connection points: 2
#     Edge 43, Type (0, 0), BuildingBlock: OJICUG_clean_linker_0, # of connection points: 2
#     Edge 44, Type (0, 0), BuildingBlock: OJICUG_clean_linker_0, # of connection points: 2
#     Edge 45, Type (0, 0), BuildingBlock: OJICUG_clean_linker_0, # of connection points: 2
#     Edge 46, Type (0, 0), BuildingBlock: OJICUG_clean_linker_0, # of connection points: 2
#     Edge 47, Type (0, 0), BuildingBlock: OJICUG_clean_linker_0, # of connection points: 2
#     Edge 48, Type (0, 0), BuildingBlock: OJICUG_clean_linker_0, # of connection points: 2
#     Edge 49, Type (0, 0), BuildingBlock: OJICUG_clean_linker_0, # of connection points: 2
#     Edge 50, Type (0, 0), BuildingBlock: OJICUG_clean_linker_0, # of connection points: 2
#     Edge 51, Type (0, 0), BuildingBlock: OJICUG_clean_linker_0, # of connection points: 2
#     Edge 52, Type (0, 0), BuildingBlock: OJICUG_clean_linker_0, # of connection points: 2
#     Edge 53, Type (0, 0), BuildingBlock: OJICUG_clean_linker_0, # of connection points: 2
#     Edge 54, Type (0, 0), BuildingBlock: OJICUG_clean_linker_0, # of connection points: 2
#     Edge 55, Type (0, 0), BuildingBlock: OJICUG_clean_linker_0, # of connection points: 2
#     Edge 56, Type (0, 0), BuildingBlock: OJICUG_clean_linker_0, # of connection points: 2
#     Edge 57, Type (0, 0), BuildingBlock: OJICUG_clean_linker_0, # of connection points: 2
#     Edge 58, Type (0, 0), BuildingBlock: OJICUG_clean_linker_0, # of connection points: 2
#     Edge 59, Type (0, 0), BuildingBlock: OJICUG_clean_linker_0, # of connection points: 2
#     Edge 60, Type (0, 0), BuildingBlock: OJICUG_clean_linker_0, # of connection points: 2
#     Edge 61, Type (0, 0), BuildingBlock: OJICUG_clean_linker_0, # of connection points: 2
#     Edge 62, Type (0, 0), BuildingBlock: OJICUG_clean_linker_0, # of connection points: 2
#     Edge 63, Type (0, 0), BuildingBlock: OJICUG_clean_linker_0, # of connection points: 2
#     Edge 64, Type (0, 0), BuildingBlock: OJICUG_clean_linker_0, # of connection points: 2
#     Edge 65, Type (0, 0), BuildingBlock: OJICUG_clean_linker_0, # of connection points: 2
#     Edge 66, Type (0, 0), BuildingBlock: OJICUG_clean_linker_0, # of connection points: 2
#     Edge 67, Type (0, 0), BuildingBlock: OJICUG_clean_linker_0, # of connection points: 2
#     Edge 68, Type (0, 0), BuildingBlock: OJICUG_clean_linker_0, # of connection points: 2
#     Edge 69, Type (0, 0), BuildingBlock: OJICUG_clean_linker_0, # of connection points: 2
#     Edge 70, Type (0, 0), BuildingBlock: OJICUG_clean_linker_0, # of connection points: 2
#     Edge 71, Type (0, 0), BuildingBlock: OJICUG_clean_linker_0, # of connection points: 2
#     Edge 72, Type (0, 0), BuildingBlock: OJICUG_clean_linker_0, # of connection points: 2
#     Edge 73, Type (0, 0), BuildingBlock: OJICUG_clean_linker_0, # of connection points: 2
#     Edge 74, Type (0, 0), BuildingBlock: OJICUG_clean_linker_0, # of connection points: 2
#     Edge 75, Type (0, 0), BuildingBlock: OJICUG_clean_linker_0, # of connection points: 2
#     Edge 76, Type (0, 0), BuildingBlock: OJICUG_clean_linker_0, # of connection points: 2
#     Edge 77, Type (0, 0), BuildingBlock: OJICUG_clean_linker_0, # of connection points: 2
#     Edge 78, Type (0, 0), BuildingBlock: OJICUG_clean_linker_0, # of connection points: 2
#     Edge 79, Type (0, 0), BuildingBlock: OJICUG_clean_linker_0, # of connection points: 2
#     Edge 80, Type (0, 0), BuildingBlock: OJICUG_clean_linker_0, # of connection points: 2
#     Edge 81, Type (0, 0), BuildingBlock: OJICUG_clean_linker_0, # of connection points: 2
#     Edge 82, Type (0, 0), BuildingBlock: OJICUG_clean_linker_0, # of connection points: 2
#     Edge 83, Type (0, 0), BuildingBlock: OJICUG_clean_linker_0, # of connection points: 2
#     Edge 84, Type (0, 0), BuildingBlock: OJICUG_clean_linker_0, # of connection points: 2
#     Edge 85, Type (0, 0), BuildingBlock: OJICUG_clean_linker_0, # of connection points: 2
#     Edge 86, Type (0, 0), BuildingBlock: OJICUG_clean_linker_0, # of connection points: 2
#     Edge 87, Type (0, 0), BuildingBlock: OJICUG_clean_linker_0, # of connection points: 2
#     Edge 88, Type (0, 0), BuildingBlock: OJICUG_clean_linker_0, # of connection points: 2
#     Edge 89, Type (0, 0), BuildingBlock: OJICUG_clean_linker_0, # of connection points: 2
#     Edge 90, Type (0, 0), BuildingBlock: OJICUG_clean_linker_0, # of connection points: 2
#     Edge 91, Type (0, 0), BuildingBlock: OJICUG_clean_linker_0, # of connection points: 2
#     Edge 92, Type (0, 0), BuildingBlock: OJICUG_clean_linker_0, # of connection points: 2
#     Edge 93, Type (0, 0), BuildingBlock: OJICUG_clean_linker_0, # of connection points: 2
#     Edge 94, Type (0, 0), BuildingBlock: OJICUG_clean_linker_0, # of connection points: 2
#     Edge 95, Type (0, 0), BuildingBlock: OJICUG_clean_linker_0, # of connection points: 2
#     Edge 96, Type (0, 0), BuildingBlock: OJICUG_clean_linker_0, # of connection points: 2
#     Edge 97, Type (0, 0), BuildingBlock: OJICUG_clean_linker_0, # of connection points: 2
#     Edge 98, Type (0, 0), BuildingBlock: OJICUG_clean_linker_0, # of connection points: 2
#     Edge 99, Type (0, 0), BuildingBlock: OJICUG_clean_linker_0, # of connection points: 2
#     Edge 100, Type (0, 0), BuildingBlock: OJICUG_clean_linker_0, # of connection points: 2
#     Edge 101, Type (0, 0), BuildingBlock: OJICUG_clean_linker_0, # of connection points: 2
#     Edge 102, Type (0, 0), BuildingBlock: OJICUG_clean_linker_0, # of connection points: 2
#     Edge 103, Type (0, 0), BuildingBlock: OJICUG_clean_linker_0, # of connection points: 2
#     Edge 104, Type (0, 0), BuildingBlock: OJICUG_clean_linker_0, # of connection points: 2
#     Edge 105, Type (0, 0), BuildingBlock: OJICUG_clean_linker_0, # of connection points: 2
#     Edge 106, Type (0, 0), BuildingBlock: OJICUG_clean_linker_0, # of connection points: 2
#     Edge 107, Type (0, 0), BuildingBlock: OJICUG_clean_linker_0, # of connection points: 2
# Relax obj value: 0.386
# Max RMSD: 0.183
# Mean RMSD: 0.177
data_MOF--net-unr--node1-CEKHIL_clean_sbu_0--edge1-OJICUG_clean_linker_0
_symmetry_space_group_name_H-M    P1
_symmetry_Int_Tables_number       1
_symmetry_cell_setting            triclinic
loop_
_symmetry_equiv_pos_as_xyz
'x, y, z'
_cell_length_a     35.507071
_cell_length_b     35.469909
_cell_length_c     72.370381
_cell_angle_alpha  89.982888
_cell_angle_beta   90.017511
_cell_angle_gamma 119.95538
loop_
_atom_site_label
_atom_site_type_symbol
_atom_site_fract_x
_atom_site_fract_y
_atom_site_fract_z
_atom_type_partial_charge
Co0 Co 0.20446 0.12628 0.19713 0.0
O1 O 0.25365 0.11951 0.19284 0.0
O2 O 0.21456 0.12706 0.17074 0.0
C3 C 0.23515 0.17807 0.21921 0.0
O4 O 0.15163 0.13471 0.19718 0.0
Co5 Co 0.16283 0.10256 0.23618 0.0
O6 O 0.13369 0.13431 0.22707 0.0
C7 C 0.14737 0.03292 0.20999 0.0
C8 C 0.2475 0.12246 0.1754 0.0
C9 C 0.13013 0.14093 0.21 0.0
O10 O 0.16506 0.06098 0.19692 0.0
O11 O 0.14749 0.04339 0.22692 0.0
O12 O 0.24161 0.18876 0.20187 0.0
O13 O 0.21531 0.13682 0.2224 0.0
Co14 Co 0.87311 0.08742 0.19637 0.0
O15 O 0.87981 0.14316 0.19137 0.0
O16 O 0.87235 0.09527 0.16987 0.0
C17 C 0.82132 0.0676 0.21834 0.0
O18 O 0.86466 0.02616 0.19705 0.0
Co19 Co 0.89612 0.07061 0.23581 0.0
O20 O 0.86459 0.00937 0.22707 0.0
C21 C 0.96609 0.12399 0.20957 0.0
C22 C 0.87673 0.13299 0.17404 0.0
C23 C 0.85825 0.99876 0.21004 0.0
O24 O 0.93831 0.11322 0.19636 0.0
O25 O 0.95531 0.11416 0.22652 0.0
O26 O 0.8107 0.0625 0.20098 0.0
O27 O 0.86251 0.08896 0.22156 0.0
Co28 Co 0.91165 0.79475 0.19641 0.0
O29 O 0.85594 0.74552 0.1918 0.0
O30 O 0.90291 0.78549 0.16997 0.0
C31 C 0.93241 0.76332 0.2183 0.0
O32 O 0.97279 0.84772 0.19677 0.0
Co33 Co 0.92912 0.83507 0.23573 0.0
O34 O 0.99004 0.86466 0.22674 0.0
C35 C 0.87499 0.85115 0.20974 0.0
C36 C 0.86549 0.75215 0.17441 0.0
C37 C 0.00036 0.8688 0.20969 0.0
O38 O 0.88557 0.83403 0.1965 0.0
O39 O 0.88519 0.85041 0.22665 0.0
O40 O 0.93702 0.75752 0.20092 0.0
O41 O 0.91092 0.78302 0.2216 0.0
Co42 Co 0.12521 0.21226 0.29808 0.0
O43 O 0.12112 0.26288 0.30298 0.0
O44 O 0.12625 0.22129 0.32459 0.0
C45 C 0.17739 0.24207 0.27613 0.0
O46 O 0.13076 0.15767 0.29743 0.0
Co47 Co 0.10073 0.17278 0.25861 0.0
O48 O 0.12981 0.14068 0.26737 0.0
C49 C 0.03168 0.15874 0.28487 0.0
C50 C 0.12358 0.25558 0.32033 0.0
C51 C 0.13584 0.1359 0.28438 0.0
O52 O 0.05965 0.17506 0.29806 0.0
O53 O 0.04221 0.15927 0.26792 0.0
O54 O 0.18793 0.2474 0.29349 0.0
O55 O 0.13631 0.22408 0.27289 0.0
Co56 Co 0.79028 0.92587 0.29757 0.0
O57 O 0.7405 0.8705 0.30197 0.0
O58 O 0.78089 0.91653 0.32402 0.0
C59 C 0.75997 0.9479 0.27572 0.0
O60 O 0.84407 0.98652 0.29735 0.0
Co61 Co 0.83073 0.94273 0.25828 0.0
O62 O 0.86176 0.00362 0.2674 0.0
C63 C 0.84432 0.88673 0.28414 0.0
C64 C 0.74754 0.87924 0.31941 0.0
C65 C 0.86589 0.01392 0.28447 0.0
O66 O 0.82829 0.89844 0.2974 0.0
O67 O 0.84381 0.89704 0.26723 0.0
O68 O 0.75419 0.95255 0.2931 0.0
O69 O 0.77895 0.92574 0.2724 0.0
Co70 Co 0.07521 0.87565 0.29696 0.0
O71 O 0.13052 0.88124 0.30156 0.0
O72 O 0.08383 0.87514 0.32339 0.0
C73 C 0.05362 0.82338 0.27509 0.0
O74 O 0.0146 0.86861 0.29663 0.0
Co75 Co 0.0584 0.89929 0.25769 0.0
O76 O 0.99745 0.86887 0.26668 0.0
C77 C 0.11307 0.96898 0.28377 0.0
C78 C 0.12108 0.87881 0.31895 0.0
C79 C 0.98717 0.86279 0.28375 0.0
O80 O 0.10219 0.94105 0.29692 0.0
O81 O 0.10273 0.95838 0.26684 0.0
O82 O 0.04896 0.81299 0.29247 0.0
O83 O 0.07567 0.86455 0.27176 0.0
Co84 Co 0.8115 0.89685 0.81801 0.0
O85 O 0.75735 0.89364 0.81185 0.0
O86 O 0.7647 0.83813 0.82125 0.0
C87 C 0.83814 0.95818 0.83523 0.0
O88 O 0.8609 0.8873 0.82626 0.0
Co89 Co 0.90035 0.97616 0.80674 0.0
O90 O 0.92417 0.95039 0.8244 0.0
C91 C 0.84456 0.91094 0.77887 0.0
C92 C 0.73918 0.85267 0.81609 0.0
C93 C 0.90168 0.91099 0.82974 0.0
O94 O 0.81961 0.88484 0.79149 0.0
O95 O 0.87515 0.94981 0.78214 0.0
O96 O 0.81179 0.92069 0.84268 0.0
O97 O 0.84439 0.95727 0.81779 0.0
Co98 Co 0.10307 0.92854 0.82085 0.0
O99 O 0.10781 0.88148 0.81001 0.0
O100 O 0.15904 0.93537 0.82647 0.0
C101 C 0.03562 0.88536 0.83239 0.0
O102 O 0.11059 0.98189 0.83479 0.0
Co103 Co 0.02989 0.94897 0.81094 0.0
O104 O 0.04956 0.98583 0.8334 0.0
C105 C 0.10905 0.98173 0.78733 0.0
C106 C 0.14607 0.89909 0.81756 0.0
C107 C 0.08733 0.99852 0.83993 0.0
O108 O 0.12606 0.96455 0.79764 0.0
O109 O 0.07146 0.97741 0.79006 0.0
O110 O 0.06938 0.89093 0.84167 0.0
O111 O 0.04368 0.90422 0.81656 0.0
Co112 Co 0.07474 0.17031 0.81995 0.0
O113 O 0.12185 0.22354 0.81017 0.0
O114 O 0.06007 0.2157 0.82106 0.0
C115 C 0.11721 0.15401 0.83781 0.0
O116 O 0.0195 0.12211 0.83178 0.0
Co117 Co 0.06887 0.0804 0.81486 0.0
O118 O 0.02103 0.05967 0.83319 0.0
C119 C 0.04 0.11769 0.7848 0.0
C120 C 0.09865 0.24129 0.81438 0.0
C121 C 0.00361 0.08249 0.8372 0.0
O122 O 0.04748 0.15114 0.79458 0.0
O123 O 0.04965 0.08907 0.79007 0.0
O124 O 0.10499 0.18069 0.84389 0.0
O125 O 0.10579 0.1407 0.82113 0.0
Co126 Co 0.89528 0.82695 0.67588 0.0
O127 O 0.89105 0.77536 0.68668 0.0
O128 O 0.83947 0.7775 0.67026 0.0
C129 C 0.96273 0.85168 0.66426 0.0
O130 O 0.88747 0.87273 0.66201 0.0
Co131 Co 0.96811 0.92054 0.68603 0.0
O132 O 0.94846 0.9377 0.66356 0.0
C133 C 0.88891 0.87355 0.70956 0.0
C134 C 0.85278 0.75445 0.67917 0.0
C135 C 0.91077 0.91269 0.65695 0.0
O136 O 0.87212 0.83955 0.69915 0.0
O137 O 0.92643 0.90698 0.7069 0.0
O138 O 0.92904 0.8234 0.655 0.0
O139 O 0.95464 0.86225 0.68014 0.0
Co140 Co 0.18633 0.08679 0.67946 0.0
O141 O 0.24018 0.13752 0.68606 0.0
O142 O 0.23334 0.07528 0.67605 0.0
C143 C 0.15978 0.12217 0.66266 0.0
O144 O 0.13721 0.02819 0.67073 0.0
Co145 Co 0.09721 0.07634 0.69089 0.0
O146 O 0.07374 0.02754 0.67285 0.0
C147 C 0.1528 0.06573 0.71848 0.0
C148 C 0.25858 0.11505 0.68162 0.0
C149 C 0.09643 0.01107 0.66726 0.0
O150 O 0.1779 0.06528 0.70577 0.0
O151 O 0.12216 0.07405 0.71541 0.0
O152 O 0.18636 0.11156 0.65504 0.0
O153 O 0.15324 0.11407 0.68004 0.0
Co154 Co 0.92245 0.09573 0.6785 0.0
O155 O 0.87456 0.10054 0.68815 0.0
O156 O 0.9367 0.15569 0.67816 0.0
C157 C 0.88135 0.03814 0.6599 0.0
O158 O 0.97848 0.10407 0.66698 0.0
Co159 Co 0.92918 0.01217 0.68303 0.0
O160 O 0.97704 0.04024 0.66476 0.0
C161 C 0.95165 0.07432 0.71432 0.0
C162 C 0.89781 0.14187 0.68466 0.0
C163 C 0.99446 0.08069 0.66118 0.0
O164 O 0.94781 0.10206 0.70413 0.0
O165 O 0.94217 0.03634 0.70867 0.0
O166 O 0.89358 0.07736 0.65422 0.0
O167 O 0.89205 0.03528 0.6766 0.0
Co168 Co 0.88313 0.45734 0.53151 0.0
O169 O 0.93252 0.45113 0.52675 0.0
O170 O 0.89147 0.45683 0.50504 0.0
C171 C 0.91465 0.51043 0.55302 0.0
O172 O 0.82989 0.46501 0.5319 0.0
Co173 Co 0.84383 0.43594 0.57106 0.0
O174 O 0.8134 0.4664 0.56186 0.0
C175 C 0.82747 0.36476 0.54551 0.0
C176 C 0.92512 0.45316 0.50936 0.0
C177 C 0.80883 0.47175 0.54474 0.0
O178 O 0.84434 0.39196 0.53208 0.0
O179 O 0.82838 0.37633 0.56233 0.0
O180 O 0.91996 0.52014 0.53557 0.0
O181 O 0.89544 0.46939 0.55663 0.0
Co182 Co 0.55055 0.4139 0.5304 0.0
O183 O 0.55665 0.46915 0.52497 0.0
O184 O 0.55017 0.42085 0.50384 0.0
C185 C 0.49828 0.39413 0.55212 0.0
O186 O 0.54286 0.35299 0.5316 0.0
Co187 Co 0.57345 0.39901 0.57013 0.0
O188 O 0.54256 0.33747 0.5618 0.0
C189 C 0.64349 0.45216 0.54394 0.0
C190 C 0.55401 0.45848 0.50772 0.0
C191 C 0.5365 0.32618 0.54484 0.0
O192 O 0.61583 0.44045 0.53065 0.0
O193 O 0.63258 0.44289 0.56091 0.0
O194 O 0.48798 0.38841 0.53473 0.0
O195 O 0.53939 0.41608 0.55546 0.0
Co196 Co 0.593 0.12374 0.5345 0.0
O197 O 0.53732 0.07393 0.53055 0.0
O198 O 0.58321 0.1125 0.50816 0.0
C199 C 0.61494 0.09456 0.55691 0.0
O200 O 0.65388 0.17718 0.53425 0.0
Co201 Co 0.61057 0.16691 0.57325 0.0
O202 O 0.67129 0.19674 0.56403 0.0
C203 C 0.55551 0.18019 0.54679 0.0
C204 C 0.54587 0.07963 0.51306 0.0
C205 C 0.68143 0.19967 0.54697 0.0
O206 O 0.56636 0.16248 0.5339 0.0
O207 O 0.5659 0.18078 0.56376 0.0
O208 O 0.61912 0.08741 0.53965 0.0
O209 O 0.59312 0.11406 0.55984 0.0
Co210 Co 0.80234 0.54441 0.63108 0.0
O211 O 0.79615 0.5942 0.6346 0.0
O212 O 0.80253 0.55579 0.65736 0.0
C213 C 0.85442 0.57358 0.60909 0.0
O214 O 0.80993 0.49098 0.6318 0.0
Co215 Co 0.77872 0.50106 0.59233 0.0
O216 O 0.80934 0.47138 0.60213 0.0
C217 C 0.70917 0.48817 0.618 0.0
C218 C 0.79815 0.58859 0.65216 0.0
C219 C 0.81573 0.4685 0.61929 0.0
O220 O 0.73704 0.5057 0.63114 0.0
O221 O 0.71982 0.48753 0.60116 0.0
O222 O 0.86495 0.58075 0.62644 0.0
O223 O 0.81328 0.55399 0.60581 0.0
Co224 Co 0.46892 0.25577 0.63236 0.0
O225 O 0.41943 0.20048 0.63725 0.0
O226 O 0.45957 0.24832 0.65881 0.0
C227 C 0.43804 0.27598 0.61003 0.0
O228 O 0.52219 0.31663 0.63168 0.0
Co229 Co 0.50951 0.27103 0.59318 0.0
O230 O 0.53952 0.33245 0.60165 0.0
C231 C 0.52468 0.21766 0.61997 0.0
C232 C 0.42612 0.21079 0.65457 0.0
C233 C 0.54361 0.34355 0.61861 0.0
O234 O 0.50761 0.22911 0.6329 0.0
O235 O 0.52433 0.22716 0.60292 0.0
O236 O 0.43223 0.28146 0.62731 0.0
O237 O 0.45743 0.25402 0.6071 0.0
Co238 Co 0.75757 0.21037 0.63545 0.0
O239 O 0.81262 0.21572 0.64066 0.0
O240 O 0.76539 0.21048 0.66201 0.0
C241 C 0.73627 0.15735 0.61391 0.0
O242 O 0.69704 0.20359 0.63452 0.0
Co243 Co 0.74187 0.23261 0.59567 0.0
O244 O 0.68069 0.2027 0.60438 0.0
C245 C 0.79613 0.30323 0.62151 0.0
C246 C 0.80262 0.21364 0.65797 0.0
C247 C 0.66996 0.19729 0.6214 0.0
O248 O 0.78487 0.27587 0.63493 0.0
O249 O 0.78619 0.29186 0.60462 0.0
O250 O 0.73111 0.14751 0.63135 0.0
O251 O 0.75865 0.19839 0.61038 0.0
Co252 Co 0.48667 0.23171 0.15274 0.0
O253 O 0.43404 0.22805 0.14368 0.0
O254 O 0.43898 0.17338 0.15591 0.0
C255 C 0.50938 0.2946 0.16842 0.0
O256 O 0.53409 0.2228 0.16426 0.0
Co257 Co 0.57803 0.31019 0.14376 0.0
O258 O 0.59803 0.28528 0.16345 0.0
C259 C 0.528 0.24315 0.11536 0.0
C260 C 0.41469 0.18762 0.14887 0.0
C261 C 0.57417 0.24629 0.16903 0.0
O262 O 0.50001 0.21767 0.12735 0.0
O263 O 0.55807 0.28203 0.11902 0.0
O264 O 0.48206 0.2578 0.17613 0.0
O265 O 0.51967 0.29197 0.15165 0.0
Co266 Co 0.76077 0.25558 0.15194 0.0
O267 O 0.76535 0.20702 0.14297 0.0
O268 O 0.82012 0.26857 0.15372 0.0
C269 C 0.70067 0.21522 0.16927 0.0
O270 O 0.76916 0.31207 0.16307 0.0
Co271 Co 0.67932 0.26472 0.14492 0.0
O272 O 0.70582 0.31183 0.16362 0.0
C273 C 0.74318 0.28248 0.11492 0.0
C274 C 0.80631 0.22968 0.14717 0.0
C275 C 0.7456 0.32833 0.16822 0.0
O276 O 0.77042 0.28087 0.1262 0.0
O277 O 0.70464 0.27312 0.11956 0.0
O278 O 0.73882 0.22652 0.17601 0.0
O279 O 0.70039 0.22648 0.15242 0.0
Co280 Co 0.74135 0.51234 0.15131 0.0
O281 O 0.79055 0.56587 0.14313 0.0
O282 O 0.72925 0.55919 0.15414 0.0
C283 C 0.78025 0.48954 0.16794 0.0
O284 O 0.6844 0.46376 0.1618 0.0
Co285 Co 0.73111 0.42211 0.14203 0.0
O286 O 0.68442 0.40045 0.16097 0.0
C287 C 0.71629 0.47298 0.11334 0.0
C288 C 0.76826 0.58433 0.14777 0.0
C289 C 0.66819 0.42353 0.16632 0.0
O290 O 0.71672 0.49985 0.12542 0.0
O291 O 0.72551 0.44322 0.11711 0.0
O292 O 0.76958 0.51634 0.17531 0.0
O293 O 0.76958 0.48015 0.15089 0.0
Co294 Co 0.56549 0.15038 0.01124 0.0
O295 O 0.5615 0.09811 0.02114 0.0
O296 O 0.50711 0.10273 0.00848 0.0
C297 C 0.628 0.17201 0.99535 0.0
O298 O 0.55647 0.19704 -0.00099 0.0
Co299 Co 0.64419 0.24263 0.01883 0.0
O300 O 0.61861 0.26127 -0.00108 0.0
C301 C 0.57215 0.20017 0.04614 0.0
C302 C 0.52106 0.07865 0.01598 0.0
C303 C 0.57931 0.23695 0.99388 0.0
O304 O 0.55099 0.16596 0.03606 0.0
O305 O 0.60971 0.23201 0.04199 0.0
O306 O 0.59098 0.14379 0.98812 0.0
O307 O 0.62605 0.18353 0.01201 0.0
Co308 Co 0.83659 0.40717 0.00973 0.0
O309 O 0.88802 0.4554 0.02011 0.0
O310 O 0.88427 0.39609 0.00819 0.0
C311 C 0.81712 0.44857 0.99288 0.0
O312 O 0.79087 0.35138 0.99726 0.0
Co313 Co 0.74398 0.39433 0.01512 0.0
O314 O 0.72667 0.34914 0.99572 0.0
C315 C 0.7839 0.36579 0.04419 0.0
C316 C 0.90782 0.43429 0.01561 0.0
C317 C 0.75136 0.33395 0.99156 0.0
O318 O 0.81865 0.37764 0.03463 0.0
O319 O 0.75291 0.37212 0.03915 0.0
O320 O 0.84547 0.4391 0.98633 0.0
O321 O 0.80378 0.43497 0.00937 0.0
Co322 Co 0.58699 0.42907 0.00869 0.0
O323 O 0.5385 0.43212 0.01886 0.0
O324 O 0.59519 0.48635 0.00488 0.0
C325 C 0.54615 0.36445 0.99426 0.0
O326 O 0.64229 0.43862 0.9959 0.0
Co327 Co 0.60451 0.35327 0.01737 0.0
O328 O 0.64589 0.37724 0.99643 0.0
C329 C 0.63362 0.42776 0.04343 0.0
C330 C 0.55762 0.47192 0.01285 0.0
C331 C 0.65958 0.41594 0.99078 0.0
O332 O 0.61892 0.44707 0.03308 0.0
O333 O 0.62911 0.39036 0.03985 0.0
O334 O 0.5533 0.40025 0.98627 0.0
O335 O 0.56153 0.36881 0.0107 0.0
Co336 Co 0.53009 0.7841 0.86647 0.0
O337 O 0.57914 0.77751 0.86149 0.0
O338 O 0.53892 0.78533 0.84 0.0
C339 C 0.56185 0.83567 0.88855 0.0
O340 O 0.47732 0.7925 0.86717 0.0
Co341 Co 0.49006 0.76033 0.90581 0.0
O342 O 0.46057 0.79218 0.8972 0.0
C343 C 0.47318 0.69069 0.8793 0.0
C344 C 0.57228 0.78103 0.84418 0.0
C345 C 0.45633 0.79875 0.8802 0.0
O346 O 0.49069 0.71881 0.86624 0.0
O347 O 0.47383 0.70108 0.89629 0.0
O348 O 0.56746 0.84649 0.87122 0.0
O349 O 0.54207 0.7944 0.8917 0.0
Co350 Co 0.19847 0.74309 0.86713 0.0
O351 O 0.20515 0.79909 0.86294 0.0
O352 O 0.19811 0.75288 0.84072 0.0
C353 C 0.14665 0.7219 0.88914 0.0
O354 O 0.19026 0.6818 0.86708 0.0
Co355 Co 0.22173 0.72464 0.90624 0.0
O356 O 0.19073 0.6639 0.89693 0.0
C357 C 0.29149 0.77987 0.88032 0.0
C358 C 0.20274 0.79041 0.84548 0.0
C359 C 0.18424 0.65395 0.87983 0.0
O360 O 0.26371 0.76915 0.86712 0.0
O361 O 0.28071 0.76938 0.89722 0.0
O362 O 0.13598 0.71765 0.87179 0.0
O363 O 0.18781 0.74318 0.89236 0.0
Co364 Co 0.23852 0.4509 0.86476 0.0
O365 O 0.18336 0.401 0.85973 0.0
O366 O 0.23046 0.4423 0.83823 0.0
C367 C 0.25993 0.41973 0.88654 0.0
O368 O 0.29915 0.50465 0.86549 0.0
Co369 Co 0.25459 0.48982 0.90439 0.0
O370 O 0.31568 0.52087 0.89558 0.0
C371 C 0.20055 0.50608 0.87835 0.0
C372 C 0.19331 0.40826 0.84239 0.0
C373 C 0.32631 0.52575 0.87854 0.0
O374 O 0.21136 0.48932 0.86503 0.0
O375 O 0.2106 0.505 0.89526 0.0
O376 O 0.26494 0.41455 0.86914 0.0
O377 O 0.23759 0.4385 0.88991 0.0
Co378 Co 0.45256 0.86706 0.96815 0.0
O379 O 0.44772 0.9172 0.97302 0.0
O380 O 0.45382 0.87623 0.99466 0.0
C381 C 0.50446 0.8976 0.94614 0.0
O382 O 0.45902 0.81298 0.96747 0.0
Co383 Co 0.42823 0.82749 0.92872 0.0
O384 O 0.45827 0.79627 0.93738 0.0
C385 C 0.3591 0.81297 0.95501 0.0
C386 C 0.45063 0.91021 0.99036 0.0
C387 C 0.46452 0.79156 0.95438 0.0
O388 O 0.38706 0.82923 0.9682 0.0
O389 O 0.36965 0.81371 0.93805 0.0
O390 O 0.51518 0.90293 0.96349 0.0
O391 O 0.46332 0.87897 0.94297 0.0
Co392 Co 0.11796 0.58016 0.96805 0.0
O393 O 0.06822 0.52488 0.97283 0.0
O394 O 0.10915 0.57165 0.99455 0.0
C395 C 0.08689 0.60161 0.94629 0.0
O396 O 0.17163 0.64083 0.96754 0.0
Co397 Co 0.15746 0.59691 0.92854 0.0
O398 O 0.18846 0.65793 0.93754 0.0
C399 C 0.17252 0.54173 0.95444 0.0
C400 C 0.07542 0.53441 0.99021 0.0
C401 C 0.19305 0.66825 0.95462 0.0
O402 O 0.15617 0.5529 0.96778 0.0
O403 O 0.17171 0.55206 0.93755 0.0
O404 O 0.08162 0.60657 0.96369 0.0
O405 O 0.10591 0.57952 0.9429 0.0
Co406 Co 0.40488 0.53155 0.96558 0.0
O407 O 0.46028 0.53671 0.96948 0.0
O408 O 0.41475 0.5301 0.99192 0.0
C409 C 0.38219 0.48003 0.94331 0.0
O410 O 0.34432 0.52486 0.96588 0.0
Co411 Co 0.3873 0.55696 0.92677 0.0
O412 O 0.32666 0.52655 0.9361 0.0
C413 C 0.44298 0.62547 0.95308 0.0
C414 C 0.45179 0.53391 0.98697 0.0
C415 C 0.3167 0.51978 0.95318 0.0
O416 O 0.43219 0.59704 0.96603 0.0
O417 O 0.43226 0.61549 0.93614 0.0
O418 O 0.37809 0.46898 0.96061 0.0
O419 O 0.40435 0.5213 0.94025 0.0
Co420 Co 0.16276 0.56807 0.48612 0.0
O421 O 0.1093 0.56336 0.47759 0.0
O422 O 0.11673 0.50844 0.48769 0.0
C423 C 0.1824 0.62736 0.50405 0.0
O424 O 0.21142 0.55993 0.49669 0.0
Co425 Co 0.25253 0.65038 0.47898 0.0
O426 O 0.2741 0.62369 0.4972 0.0
C427 C 0.20689 0.58664 0.44888 0.0
C428 C 0.09131 0.52227 0.48157 0.0
C429 C 0.25136 0.58368 0.50162 0.0
O430 O 0.17803 0.55933 0.46015 0.0
O431 O 0.23595 0.62522 0.45356 0.0
O432 O 0.15584 0.5888 0.5105 0.0
O433 O 0.19356 0.62857 0.48706 0.0
Co434 Co 0.43716 0.58038 0.48305 0.0
O435 O 0.44083 0.53009 0.47606 0.0
O436 O 0.49601 0.59258 0.48589 0.0
C437 C 0.37609 0.5442 0.50026 0.0
O438 O 0.4463 0.63868 0.49207 0.0
Co439 Co 0.35734 0.58999 0.47272 0.0
O440 O 0.38343 0.63935 0.49047 0.0
C441 C 0.4226 0.60182 0.44442 0.0
C442 C 0.48179 0.55292 0.48023 0.0
C443 C 0.4228 0.65591 0.49574 0.0
O444 O 0.44882 0.60218 0.45679 0.0
O445 O 0.38368 0.59306 0.44792 0.0
O446 O 0.41368 0.55521 0.50756 0.0
O447 O 0.37682 0.55252 0.48294 0.0
Co448 Co 0.40833 0.84197 0.48666 0.0
O449 O 0.45555 0.89449 0.47647 0.0
O450 O 0.401 0.89064 0.49283 0.0
C451 C 0.45106 0.81698 0.49814 0.0
O452 O 0.35475 0.79501 0.50004 0.0
Co453 Co 0.3892 0.74944 0.47534 0.0
O454 O 0.35154 0.73042 0.49755 0.0
C455 C 0.35653 0.79708 0.45248 0.0
C456 C 0.43756 0.91457 0.48423 0.0
C457 C 0.33846 0.75477 0.50458 0.0
O458 O 0.37313 0.83042 0.46327 0.0
O459 O 0.36109 0.76376 0.45471 0.0
O460 O 0.44505 0.84464 0.50762 0.0
O461 O 0.43322 0.80743 0.48208 0.0
Co462 Co 0.23973 0.49374 0.34361 0.0
O463 O 0.23409 0.44057 0.35325 0.0
O464 O 0.18035 0.44757 0.34144 0.0
C465 C 0.30039 0.51239 0.32677 0.0
O466 O 0.23246 0.54186 0.33174 0.0
Co467 Co 0.32153 0.58428 0.3504 0.0
O468 O 0.29596 0.60477 0.33123 0.0
C469 C 0.25134 0.54494 0.37871 0.0
C470 C 0.19352 0.42233 0.34841 0.0
C471 C 0.25616 0.58171 0.32662 0.0
O472 O 0.22821 0.51084 0.36877 0.0
O473 O 0.2893 0.57541 0.37411 0.0
O474 O 0.26236 0.4853 0.32005 0.0
O475 O 0.30043 0.52462 0.34352 0.0
Co476 Co 0.51032 0.74151 0.34262 0.0
O477 O 0.56151 0.78885 0.35359 0.0
O478 O 0.55966 0.73449 0.33776 0.0
C479 C 0.48636 0.78424 0.3302 0.0
O480 O 0.46506 0.6877 0.32881 0.0
Co481 Co 0.4165 0.7216 0.35173 0.0
O482 O 0.39974 0.68305 0.32982 0.0
C483 C 0.46189 0.68876 0.376 0.0
C484 C 0.58248 0.77097 0.34659 0.0
C485 C 0.42514 0.67034 0.32368 0.0
O486 O 0.49653 0.7061 0.36602 0.0
O487 O 0.42869 0.693 0.37287 0.0
O488 O 0.51495 0.77843 0.32139 0.0
O489 O 0.47509 0.76601 0.34615 0.0
Co490 Co 0.25039 0.76899 0.34484 0.0
O491 O 0.19913 0.77112 0.35145 0.0
O492 O 0.26062 0.82707 0.34126 0.0
C493 C 0.21588 0.7068 0.32818 0.0
O494 O 0.30926 0.77944 0.33605 0.0
Co495 Co 0.2628 0.69149 0.35646 0.0
O496 O 0.31119 0.71722 0.33825 0.0
C497 C 0.27234 0.75761 0.38389 0.0
C498 C 0.22079 0.81193 0.34684 0.0
C499 C 0.32695 0.75625 0.33257 0.0
O500 O 0.2721 0.78273 0.37111 0.0
O501 O 0.26474 0.71882 0.38092 0.0
O502 O 0.22572 0.74374 0.32048 0.0
O503 O 0.22419 0.70868 0.34555 0.0
C504 C 0.0661 0.12765 0.19089 0.0
C505 C 0.09535 0.1504 0.20524 0.0
H506 H 0.001 0.10203 0.18081 0.0
C507 C 0.08516 0.17404 0.21785 0.0
H508 H 0.07324 0.10917 0.18099 0.0
C509 C 0.04387 0.16953 0.21793 0.0
C510 C 0.01244 0.14193 0.20515 0.0
H511 H 0.10775 0.1928 0.22871 0.0
H512 H 0.03532 0.18449 0.22898 0.0
C513 C 0.02474 0.12356 0.19081 0.0
C514 C 0.82557 0.92079 0.21824 0.0
C515 C 0.84893 0.9544 0.20551 0.0
H516 H 0.81514 0.86049 0.22942 0.0
C517 C 0.87118 0.9475 0.19105 0.0
H518 H 0.80706 0.92484 0.22915 0.0
C519 C 0.87508 0.91009 0.19096 0.0
C520 C 0.85701 0.87963 0.20539 0.0
H521 H 0.88938 0.97292 0.18104 0.0
H522 H 0.89625 0.9076 0.18086 0.0
C523 C 0.82989 0.88384 0.2183 0.0
C524 C 0.11508 0.95487 0.21799 0.0
C525 C 0.11909 0.98665 0.20536 0.0
H526 H 0.07437 0.89069 0.22848 0.0
C527 C 0.0886 0.97475 0.19096 0.0
H528 H 0.13845 0.96314 0.22907 0.0
C529 C 0.05133 0.93339 0.19087 0.0
C530 C 0.04463 0.90374 0.20509 0.0
H531 H 0.09096 0.99879 0.18108 0.0
H532 H 0.02584 0.92654 0.18095 0.0
C533 C 0.07831 0.91358 0.21773 0.0
C534 C 0.11979 0.07016 0.30294 0.0
C535 C 0.1434 0.09964 0.28878 0.0
H536 H 0.09219 0.00446 0.31263 0.0
C537 C 0.16626 0.08874 0.27605 0.0
H538 H 0.10188 0.07784 0.31293 0.0
C539 C 0.16023 0.0468 0.27568 0.0
C540 C 0.13195 0.01543 0.2883 0.0
H541 H 0.18575 0.11149 0.26537 0.0
H542 H 0.17475 0.03789 0.26457 0.0
C543 C 0.11422 0.02817 0.30275 0.0
C544 C 0.9304 0.06392 0.30358 0.0
C545 C 0.90149 0.05787 0.28913 0.0
H546 H 0.99553 0.10242 0.31376 0.0
C547 C 0.91252 0.09175 0.27643 0.0
H548 H 0.92263 0.03827 0.31355 0.0
C549 C 0.95414 0.12803 0.27641 0.0
C550 C 0.98516 0.13132 0.28929 0.0
H551 H 0.89029 0.08829 0.26546 0.0
H552 H 0.96325 0.15148 0.26529 0.0
C553 C 0.97213 0.10067 0.30369 0.0
C554 C 0.87382 0.83876 0.27568 0.0
C555 C 0.87125 0.86705 0.28849 0.0
H556 H 0.91241 0.813 0.26496 0.0
C557 C 0.90183 0.8842 0.30291 0.0
H558 H 0.85026 0.82464 0.26461 0.0
C559 C 0.938 0.87829 0.30285 0.0
C560 C 0.94348 0.85493 0.28845 0.0
H561 H 0.90052 0.90617 0.31294 0.0
H562 H 0.96374 0.89591 0.3128 0.0
C563 C 0.90948 0.83237 0.2758 0.0
C564 C 0.95817 0.91261 0.85069 0.0
C565 C 0.92539 0.89049 0.83748 0.0
H566 H 0.01917 0.92374 0.86129 0.0
C567 C 0.92248 0.85405 0.82857 0.0
H568 H 0.96056 0.94039 0.85797 0.0
C569 C 0.95659 0.84531 0.83014 0.0
C570 C 0.99337 0.87267 0.84076 0.0
H571 H 0.89723 0.83625 0.81844 0.0
H572 H 0.95731 0.8218 0.8208 0.0
C573 C 0.99141 0.90264 0.85278 0.0
C574 C 0.15822 0.1168 0.84313 0.0
C575 C 0.12743 0.12711 0.84993 0.0
H576 H 0.16936 0.06537 0.83489 0.0
C577 C 0.09344 0.09638 0.86097 0.0
H578 H 0.18527 0.1403 0.83487 0.0
C579 C 0.08315 0.05279 0.86037 0.0
C580 C 0.10841 0.04079 0.84959 0.0
H581 H 0.06979 0.10386 0.86677 0.0
H582 H 0.05227 0.02809 0.86597 0.0
C583 C 0.14876 0.07356 0.84297 0.0
C584 C 0.88409 0.03702 0.83837 0.0
C585 C 0.87125 0.99565 0.84566 0.0
H586 H 0.93759 0.09832 0.83018 0.0
C587 C 0.90118 0.9899 0.8562 0.0
H588 H 0.8614 0.04232 0.83031 0.0
C589 C 0.94536 0.02147 0.85555 0.0
C590 C 0.95925 0.05949 0.84502 0.0
H591 H 0.89196 0.9584 0.86213 0.0
H592 H 0.96891 0.01395 0.86142 0.0
C593 C 0.92797 0.06898 0.83812 0.0
C594 C 0.90541 0.00523 0.63646 0.0
C595 C 0.87122 0.00161 0.64746 0.0
H596 H 0.94647 0.97809 0.63126 0.0
C597 C 0.84009 0.96023 0.65389 0.0
H598 H 0.92932 0.03659 0.63095 0.0
C599 C 0.84937 0.92632 0.65379 0.0
C600 C 0.88987 0.93406 0.64728 0.0
H601 H 0.81287 0.95641 0.66209 0.0
H602 H 0.8285 0.89721 0.66164 0.0
C603 C 0.91547 0.97175 0.63678 0.0
C604 C 0.04006 0.95666 0.64615 0.0
C605 C 0.07291 0.96709 0.6593 0.0
H606 H 0.97902 0.90694 0.63552 0.0
C607 C 0.0759 0.93342 0.66805 0.0
H608 H 0.03759 0.98217 0.63901 0.0
C609 C 0.04178 0.89061 0.66642 0.0
C610 C 0.00493 0.88137 0.65588 0.0
H611 H 0.1012 0.94069 0.67813 0.0
H612 H 0.04111 0.86623 0.67566 0.0
C613 C 0.00683 0.91347 0.64398 0.0
C614 C 0.06998 0.14309 0.66038 0.0
C615 C 0.03878 0.10249 0.65332 0.0
H616 H 0.13656 0.18296 0.66813 0.0
C617 C 0.05273 0.07889 0.64246 0.0
H618 H 0.06027 0.16243 0.66854 0.0
C619 C 0.09694 0.09172 0.64165 0.0
C620 C 0.12683 0.12704 0.65235 0.0
H621 H 0.02923 0.048 0.63644 0.0
H622 H 0.10623 0.06973 0.63546 0.0
C623 C 0.1139 0.15523 0.65995 0.0
C624 C 0.72114 0.49864 0.55237 0.0
C625 C 0.68994 0.47046 0.53965 0.0
H626 H 0.78525 0.52323 0.56314 0.0
C627 C 0.70265 0.45209 0.52546 0.0
H628 H 0.71228 0.5137 0.56327 0.0
C629 C 0.74424 0.45679 0.52566 0.0
C630 C 0.77334 0.48016 0.53997 0.0
H631 H 0.6791 0.43016 0.5155 0.0
H632 H 0.75175 0.43837 0.51587 0.0
C633 C 0.7627 0.5038 0.55239 0.0
C634 C 0.55058 0.27469 0.52666 0.0
C635 C 0.52765 0.28181 0.54075 0.0
H636 H 0.57678 0.23509 0.51736 0.0
C637 C 0.50421 0.24865 0.55366 0.0
H638 H 0.56885 0.29976 0.51652 0.0
C639 C 0.50921 0.21214 0.55432 0.0
C640 C 0.53701 0.20786 0.54182 0.0
H641 H 0.48518 0.25286 0.56427 0.0
H642 H 0.49443 0.18925 0.5656 0.0
C643 C 0.55511 0.23767 0.52716 0.0
C644 C 0.75933 0.24589 0.55479 0.0
C645 C 0.72546 0.23471 0.54209 0.0
H646 H 0.81932 0.29668 0.56569 0.0
C647 C 0.73165 0.26325 0.52745 0.0
H648 H 0.75573 0.22392 0.5659 0.0
C649 C 0.76862 0.30484 0.52712 0.0
C650 C 0.79933 0.3181 0.54148 0.0
H651 H 0.70598 0.25538 0.51749 0.0
H652 H 0.77057 0.32802 0.51687 0.0
C653 C 0.79581 0.28739 0.5546 0.0
C654 C 0.84767 0.4221 0.61212 0.0
C655 C 0.82455 0.43347 0.62451 0.0
H656 H 0.85713 0.37109 0.60162 0.0
C657 C 0.80167 0.40507 0.6391 0.0
H658 H 0.86642 0.44393 0.60104 0.0
C659 C 0.79694 0.3634 0.63965 0.0
C660 C 0.81484 0.34993 0.62553 0.0
H661 H 0.78355 0.41309 0.64883 0.0
H662 H 0.77528 0.34031 0.64981 0.0
C663 C 0.84258 0.38054 0.61252 0.0
C664 C 0.58981 0.42105 0.61002 0.0
C665 C 0.57904 0.38773 0.62298 0.0
H666 H 0.64047 0.48015 0.59837 0.0
C667 C 0.60822 0.39435 0.63739 0.0
H668 H 0.56727 0.4172 0.59914 0.0
C669 C 0.64998 0.43099 0.6372 0.0
C670 C 0.66275 0.4609 0.62253 0.0
H671 H 0.60062 0.36914 0.64756 0.0
H672 H 0.67356 0.43316 0.64727 0.0
C673 C 0.63153 0.45717 0.60966 0.0
C674 C 0.61972 0.21304 0.63964 0.0
C675 C 0.62597 0.18917 0.6257 0.0
H676 H 0.58097 0.24022 0.64892 0.0
C677 C 0.59227 0.16536 0.61307 0.0
H678 H 0.64523 0.23165 0.64955 0.0
C679 C 0.556 0.17072 0.61252 0.0
C680 C 0.5525 0.1993 0.62486 0.0
H681 H 0.59582 0.14561 0.60259 0.0
H682 H 0.5326 0.15549 0.60145 0.0
C683 C 0.58295 0.21795 0.63926 0.0
C684 C 0.66519 0.23964 0.19123 0.0
C685 C 0.66256 0.20537 0.18059 0.0
H686 H 0.63826 0.28136 0.1952 0.0
C687 C 0.62213 0.17505 0.17304 0.0
H688 H 0.69572 0.26293 0.19758 0.0
C689 C 0.58894 0.18523 0.17181 0.0
C690 C 0.59624 0.2256 0.17828 0.0
H691 H 0.61905 0.1478 0.16505 0.0
H692 H 0.56085 0.16487 0.16332 0.0
C693 C 0.63249 0.25057 0.18963 0.0
C694 C 0.80681 0.40434 0.16974 0.0
C695 C 0.7667 0.37198 0.17671 0.0
H696 H 0.84474 0.4715 0.16247 0.0
C697 C 0.74261 0.38432 0.1881 0.0
H698 H 0.82649 0.39579 0.1612 0.0
C699 C 0.75423 0.42821 0.18945 0.0
C700 C 0.78849 0.45919 0.1786 0.0
H701 H 0.71209 0.35987 0.19405 0.0
H702 H 0.73167 0.43624 0.19597 0.0
C703 C 0.81767 0.44794 0.1707 0.0
C704 C 0.54852 0.37362 0.17021 0.0
C705 C 0.53888 0.33416 0.17869 0.0
H706 H 0.59892 0.43421 0.15953 0.0
C707 C 0.57116 0.33273 0.18933 0.0
H708 H 0.52393 0.37571 0.16212 0.0
C709 C 0.61459 0.36537 0.18714 0.0
C710 C 0.62517 0.40066 0.17527 0.0
H711 H 0.56433 0.30296 0.19633 0.0
H712 H 0.63994 0.36044 0.19293 0.0
C713 C 0.59169 0.4069 0.16847 0.0
C714 C 0.50817 0.28519 0.99297 0.0
C715 C 0.5363 0.3247 0.98416 0.0
H716 H 0.49985 0.22456 0.00264 0.0
C717 C 0.56875 0.32668 0.97247 0.0
H718 H 0.48261 0.28277 0.00193 0.0
C719 C 0.58018 0.29425 0.9736 0.0
C720 C 0.55726 0.25862 0.98551 0.0
H721 H 0.59042 0.35661 0.96528 0.0
H722 H 0.60989 0.29968 0.96701 0.0
C723 C 0.51844 0.25199 0.99354 0.0
C724 C 0.73914 0.25888 0.99195 0.0
C725 C 0.73033 0.28956 0.98378 0.0
H726 H 0.71131 0.19328 0.00142 0.0
C727 C 0.69334 0.27472 0.9725 0.0
H728 H 0.76771 0.26929 0.0005 0.0
C729 C 0.66173 0.23049 0.97238 0.0
C730 C 0.66615 0.20178 0.98434 0.0
H731 H 0.68623 0.29774 0.96576 0.0
H732 H 0.63078 0.22082 0.96583 0.0
C733 C 0.70694 0.21505 0.99231 0.0
C734 C 0.77817 0.48824 0.98875 0.0
C735 C 0.78942 0.45867 0.98127 0.0
H736 H 0.72587 0.49756 0.99742 0.0
C737 C 0.7592 0.42507 0.96993 0.0
H738 H 0.80122 0.5149 0.99731 0.0
C739 C 0.7154 0.41384 0.97064 0.0
C740 C 0.70261 0.43792 0.9818 0.0
H741 H 0.76738 0.40235 0.96365 0.0
H742 H 0.69122 0.38324 0.96462 0.0
C743 C 0.73471 0.47793 0.98899 0.0
C744 C 0.35051 0.78089 0.86134 0.0
C745 C 0.3379 0.79846 0.8759 0.0
H746 H 0.39944 0.76753 0.8512 0.0
C747 C 0.36917 0.82583 0.88877 0.0
H748 H 0.3269 0.75959 0.85125 0.0
C749 C 0.41067 0.83084 0.88856 0.0
C750 C 0.42117 0.80786 0.87573 0.0
H751 H 0.36038 0.84023 0.89997 0.0
H752 H 0.43322 0.84949 0.89945 0.0
C753 C 0.39204 0.78545 0.86129 0.0
C754 C 0.15153 0.57575 0.88758 0.0
C755 C 0.17479 0.60968 0.87496 0.0
H756 H 0.14092 0.51506 0.89833 0.0
C757 C 0.19682 0.60307 0.86033 0.0
H758 H 0.13341 0.57966 0.89871 0.0
C759 C 0.20056 0.56553 0.85992 0.0
C760 C 0.18248 0.53462 0.87419 0.0
H761 H 0.21502 0.62875 0.85042 0.0
H762 H 0.22164 0.56326 0.8497 0.0
C763 C 0.15557 0.53865 0.88729 0.0
C764 C 0.40411 0.57112 0.88678 0.0
C765 C 0.37043 0.56133 0.87415 0.0
H766 H 0.46418 0.62062 0.8982 0.0
C767 C 0.37694 0.59127 0.86008 0.0
H768 H 0.40032 0.54799 0.89739 0.0
C769 C 0.41409 0.63272 0.86029 0.0
C770 C 0.44466 0.64446 0.87465 0.0
H771 H 0.35145 0.58446 0.85017 0.0
H772 H 0.41635 0.65689 0.85051 0.0
C773 C 0.44075 0.61251 0.88716 0.0
C774 C 0.44439 0.68417 0.9725 0.0
C775 C 0.46207 0.67179 0.9579 0.0
H776 H 0.43165 0.73336 0.98295 0.0
C777 C 0.49006 0.70345 0.9453 0.0
H778 H 0.42255 0.66024 0.98236 0.0
C779 C 0.4957 0.74522 0.94581 0.0
C780 C 0.47278 0.75571 0.95868 0.0
H781 H 0.50447 0.69481 0.93406 0.0
H782 H 0.51477 0.76807 0.93508 0.0
C783 C 0.4496 0.72603 0.97285 0.0
C784 C 0.25782 0.71801 0.97364 0.0
C785 C 0.22885 0.71213 0.95924 0.0
H786 H 0.323 0.75632 0.98379 0.0
C787 C 0.23987 0.74611 0.9466 0.0
H788 H 0.25004 0.69228 0.98357 0.0
C789 C 0.28154 0.78234 0.94658 0.0
C790 C 0.31259 0.78546 0.95942 0.0
H791 H 0.21753 0.74285 0.93571 0.0
H792 H 0.29063 0.80593 0.93553 0.0
C793 C 0.29958 0.75469 0.97376 0.0
C794 C 0.23085 0.53988 0.97292 0.0
C795 C 0.19999 0.52251 0.95861 0.0
H796 H 0.29324 0.55225 0.98252 0.0
C797 C 0.20281 0.49464 0.94565 0.0
H798 H 0.22942 0.56162 0.98305 0.0
C799 C 0.23884 0.48886 0.94552 0.0
C800 C 0.27295 0.51148 0.95812 0.0
H801 H 0.17914 0.48045 0.93462 0.0
H802 H 0.24196 0.46998 0.9345 0.0
C803 C 0.26737 0.5345 0.97264 0.0
C804 C 0.3121 0.58694 0.52033 0.0
C805 C 0.27447 0.56261 0.50963 0.0
H806 H 0.37501 0.59691 0.52735 0.0
C807 C 0.26529 0.52175 0.50296 0.0
H808 H 0.31933 0.61807 0.52604 0.0
C809 C 0.29736 0.50994 0.50357 0.0
C810 C 0.33853 0.5388 0.51091 0.0
H811 H 0.23618 0.50188 0.49495 0.0
H812 H 0.29243 0.48193 0.49562 0.0
C813 C 0.34373 0.57443 0.52134 0.0
C814 C 0.42174 0.71139 0.51653 0.0
C815 C 0.44367 0.70014 0.50345 0.0
H816 H 0.41138 0.76201 0.5269 0.0
C817 C 0.48036 0.73325 0.49453 0.0
H818 H 0.39371 0.68631 0.52378 0.0
C819 C 0.48959 0.77629 0.49593 0.0
C820 C 0.46257 0.78638 0.50644 0.0
H821 H 0.49801 0.72535 0.4845 0.0
H822 H 0.51334 0.80023 0.48658 0.0
C823 C 0.43226 0.75483 0.51849 0.0
C824 C 0.28572 0.69537 0.52504 0.0
C825 C 0.29656 0.73264 0.51444 0.0
H826 H 0.23566 0.63083 0.53183 0.0
C827 C 0.26311 0.73978 0.50835 0.0
H828 H 0.31102 0.68954 0.5302 0.0
C829 C 0.22009 0.70574 0.50895 0.0
C830 C 0.21064 0.66483 0.51571 0.0
H831 H 0.27047 0.76853 0.50038 0.0
H832 H 0.19587 0.70905 0.50112 0.0
C833 C 0.24238 0.66184 0.52612 0.0
C834 C 0.24678 0.6744 0.30737 0.0
C835 C 0.21128 0.66902 0.31792 0.0
H836 H 0.29026 0.64999 0.30228 0.0
C837 C 0.18272 0.62783 0.32533 0.0
H838 H 0.26906 0.70578 0.30136 0.0
C839 C 0.19434 0.59559 0.32557 0.0
C840 C 0.23495 0.60472 0.31864 0.0
H841 H 0.15492 0.62285 0.33342 0.0
H842 H 0.17461 0.56637 0.33356 0.0
C843 C 0.25922 0.64266 0.30809 0.0
C844 C 0.33428 0.57028 0.30364 0.0
C845 C 0.33807 0.54059 0.31521 0.0
H846 H 0.36047 0.63805 0.29764 0.0
C847 C 0.37908 0.55206 0.32247 0.0
H848 H 0.30315 0.56191 0.29758 0.0
C849 C 0.41242 0.59543 0.32209 0.0
C850 C 0.40438 0.62732 0.31467 0.0
H851 H 0.38296 0.52943 0.33122 0.0
H852 H 0.4412 0.60461 0.33034 0.0
C853 C 0.36707 0.61406 0.30377 0.0
C854 C 0.38174 0.75464 0.31159 0.0
C855 C 0.37077 0.77719 0.32447 0.0
H856 H 0.43214 0.74389 0.30135 0.0
C857 C 0.404 0.81468 0.33288 0.0
H858 H 0.35656 0.72602 0.30469 0.0
C859 C 0.44706 0.82412 0.33132 0.0
C860 C 0.4569 0.79632 0.32124 0.0
H861 H 0.39632 0.83287 0.34273 0.0
H862 H 0.47119 0.84853 0.3404 0.0
C863 C 0.42513 0.76529 0.30949 0.0
C864 C 0.20115 0.24897 0.24346 0.0
C865 C 0.20615 0.24039 0.26195 0.0
H866 H 0.2088 0.23734 0.21505 0.0
C867 C 0.23032 0.21994 0.26604 0.0
H868 H 0.18236 0.26446 0.24002 0.0
C869 C 0.24396 0.20297 0.25179 0.0
C870 C 0.23513 0.20784 0.23332 0.0
H871 H 0.23417 0.21251 0.2802 0.0
H872 H 0.25825 0.18308 0.25524 0.0
C873 C 0.21634 0.23352 0.2292 0.0
C874 C 0.7658 0.99388 0.22874 0.0
C875 C 0.79165 0.03843 0.23261 0.0
H876 H 0.73554 0.9293 0.23989 0.0
C877 C 0.79717 0.05267 0.25102 0.0
H878 H 0.7615 0.98211 0.21465 0.0
C879 C 0.78086 0.02248 0.26544 0.0
C880 C 0.76043 0.97779 0.26156 0.0
H881 H 0.81722 0.08692 0.25427 0.0
H882 H 0.78891 0.03414 0.27953 0.0
C883 C 0.751 0.96366 0.24316 0.0
C884 C 0.0372 0.79831 0.24257 0.0
C885 C 0.02355 0.79382 0.26103 0.0
H886 H 0.01794 0.78961 0.21416 0.0
C887 C 0.97904 0.76923 0.26514 0.0
H888 H 0.0714 0.81734 0.23914 0.0
C889 C 0.94846 0.75481 0.25088 0.0
C890 C 0.96215 0.76331 0.23241 0.0
H891 H 0.96775 0.76571 0.27928 0.0
H892 H 0.91432 0.74039 0.25431 0.0
C893 C 0.0066 0.78232 0.22831 0.0
C894 C 0.86561 0.91611 0.72825 0.0
C895 C 0.86441 0.87644 0.7253 0.0
H896 H 0.85895 0.95763 0.74765 0.0
C897 C 0.84714 0.84417 0.73901 0.0
H898 H 0.87837 0.94129 0.71775 0.0
C899 C 0.83585 0.85358 0.75629 0.0
C900 C 0.84192 0.89527 0.75983 0.0
H901 H 0.84611 0.81341 0.73697 0.0
H902 H 0.82639 0.82986 0.7673 0.0
C903 C 0.85445 0.92543 0.74534 0.0
C904 C 0.13239 0.04822 0.76909 0.0
C905 C 0.13344 0.00956 0.77168 0.0
H906 H 0.13898 0.09709 0.75009 0.0
C907 C 0.15031 0.99482 0.7577 0.0
H908 H 0.1199 0.06039 0.77981 0.0
C909 C 0.16139 0.01606 0.74052 0.0
C910 C 0.15548 0.05192 0.73737 0.0
H911 H 0.15118 0.96493 0.75945 0.0
H912 H 0.17056 0.00207 0.72931 0.0
C913 C 0.14332 0.06922 0.75211 0.0
C914 C 0.99166 0.12986 0.73956 0.0
C915 C 0.97063 0.08657 0.73312 0.0
H916 H 0.0305 0.1742 0.76115 0.0
C917 C 0.97082 0.05433 0.74432 0.0
H918 H 0.99205 0.15546 0.73126 0.0
C919 C 0.99308 0.06505 0.76097 0.0
C920 C 0.01563 0.10834 0.76719 0.0
H921 H 0.95456 0.02052 0.74009 0.0
H922 H 0.99265 0.03897 0.76894 0.0
C923 C 0.01384 0.14065 0.75658 0.0
C924 C 0.92305 0.53611 0.58546 0.0
C925 C 0.91445 0.54057 0.56691 0.0
H926 H 0.91225 0.54558 0.61376 0.0
C927 C 0.89525 0.56575 0.56253 0.0
H928 H 0.93761 0.51659 0.58911 0.0
C929 C 0.87929 0.58089 0.57661 0.0
C930 C 0.88398 0.57254 0.59516 0.0
H931 H 0.88786 0.56925 0.54832 0.0
H932 H 0.86012 0.59585 0.57296 0.0
C933 C 0.90864 0.55279 0.59953 0.0
C934 C 0.44352 0.32031 0.56271 0.0
C935 C 0.46861 0.36504 0.56639 0.0
H936 H 0.41427 0.25607 0.57417 0.0
C937 C 0.47363 0.37971 0.58471 0.0
H938 H 0.43959 0.30823 0.54868 0.0
C939 C 0.45769 0.34987 0.59926 0.0
C940 C 0.43818 0.30514 0.59559 0.0
H941 H 0.49307 0.4141 0.58783 0.0
H942 H 0.46537 0.36195 0.6133 0.0
C943 C 0.42913 0.29046 0.57726 0.0
C944 C 0.68952 0.11536 0.56711 0.0
C945 C 0.645 0.09574 0.57116 0.0
H946 H 0.75424 0.15128 0.57796 0.0
C947 C 0.6313 0.08753 0.58964 0.0
H948 H 0.70085 0.12247 0.55296 0.0
C949 C 0.66184 0.10258 0.60393 0.0
C950 C 0.70634 0.12752 0.59984 0.0
H951 H 0.59709 0.07268 0.59303 0.0
H952 H 0.65045 0.09914 0.61805 0.0
C953 C 0.72006 0.13194 0.58139 0.0
C954 C 0.55668 0.24778 0.06548 0.0
C955 C 0.55161 0.20641 0.06259 0.0
H956 H 0.55165 0.29113 0.08431 0.0
C957 C 0.53116 0.17417 0.07619 0.0
H958 H 0.57154 0.27292 0.05503 0.0
C959 C 0.5197 0.18475 0.09321 0.0
C960 C 0.52851 0.22749 0.09656 0.0
H961 H 0.5268 0.14198 0.07415 0.0
H962 H 0.50699 0.16059 0.1041 0.0
C963 C 0.54514 0.25815 0.08222 0.0
C964 C 0.73368 0.30861 0.06558 0.0
C965 C 0.77647 0.34055 0.06132 0.0
H966 H 0.69011 0.26441 0.08555 0.0
C967 C 0.80994 0.34894 0.07389 0.0
H968 H 0.70734 0.30059 0.05595 0.0
C969 C 0.79992 0.32798 0.09116 0.0
C970 C 0.75642 0.29835 0.09584 0.0
H971 H 0.84325 0.3732 0.07079 0.0
H972 H 0.82569 0.33673 0.10115 0.0
C973 C 0.72382 0.2877 0.08255 0.0
C974 C 0.66687 0.48036 0.09054 0.0
C975 C 0.70167 0.47315 0.0943 0.0
H976 H 0.6173 0.47146 0.07097 0.0
C977 C 0.7179 0.45836 0.08009 0.0
H978 H 0.65372 0.49161 0.10132 0.0
C979 C 0.69718 0.44674 0.06307 0.0
C980 C 0.6599 0.44986 0.05981 0.0
H981 H 0.74505 0.45308 0.08251 0.0
H982 H 0.70895 0.43295 0.05275 0.0
C983 C 0.64601 0.46876 0.07327 0.0
C984 C 0.52824 0.90596 0.91347 0.0
C985 C 0.53345 0.89686 0.93185 0.0
H986 H 0.53561 0.89512 0.88494 0.0
C987 C 0.55792 0.8766 0.93566 0.0
H988 H 0.50923 0.92134 0.91025 0.0
C989 C 0.57151 0.86011 0.92121 0.0
C990 C 0.56231 0.86531 0.90284 0.0
H991 H 0.56195 0.86884 0.94974 0.0
H992 H 0.58593 0.84023 0.92443 0.0
C993 C 0.5434 0.89102 0.89901 0.0
C994 C 0.07768 0.61735 0.91373 0.0
C995 C 0.08693 0.63136 0.93215 0.0
H996 H 0.08786 0.63612 0.88525 0.0
C997 C 0.10662 0.67596 0.93611 0.0
H998 H 0.06275 0.58306 0.9104 0.0
C999 C 0.12241 0.7063 0.92175 0.0
C1000 C 0.11709 0.69228 0.90332 0.0
H1001 H 0.11453 0.68754 0.95022 0.0
H1002 H 0.14199 0.74057 0.92506 0.0
C1003 C 0.09194 0.6477 0.89936 0.0
C1004 C 0.33453 0.43975 0.89647 0.0
C1005 C 0.29008 0.42039 0.90064 0.0
H1006 H 0.39944 0.47488 0.90719 0.0
C1007 C 0.27662 0.41189 0.91915 0.0
H1008 H 0.34571 0.4471 0.8823 0.0
C1009 C 0.30736 0.42637 0.93336 0.0
C1010 C 0.35183 0.451 0.92918 0.0
H1011 H 0.24249 0.39725 0.92265 0.0
H1012 H 0.29622 0.42268 0.94753 0.0
C1013 C 0.36527 0.45577 0.91069 0.0
C1014 C 0.19589 0.52957 0.42526 0.0
C1015 C 0.20988 0.57321 0.42984 0.0
H1016 H 0.19812 0.48585 0.40516 0.0
C1017 C 0.23247 0.6057 0.41658 0.0
H1018 H 0.17842 0.50386 0.43524 0.0
C1019 C 0.24398 0.59557 0.39976 0.0
C1020 C 0.23299 0.55262 0.39563 0.0
H1021 H 0.24306 0.63953 0.41949 0.0
H1022 H 0.26279 0.62183 0.39016 0.0
C1023 C 0.20728 0.51927 0.40815 0.0
C1024 C 0.41771 0.62249 0.39424 0.0
C1025 C 0.45781 0.66057 0.39162 0.0
H1026 H 0.37567 0.57313 0.41308 0.0
C1027 C 0.49 0.67387 0.40529 0.0
H1028 H 0.39265 0.61125 0.38372 0.0
C1029 C 0.4802 0.65182 0.42227 0.0
C1030 C 0.43824 0.6165 0.42551 0.0
H1031 H 0.52115 0.7032 0.40348 0.0
H1032 H 0.50397 0.6647 0.4333 0.0
C1033 C 0.40803 0.60062 0.41101 0.0
C1034 C 0.28943 0.75531 0.43454 0.0
C1035 C 0.32867 0.79444 0.43698 0.0
H1036 H 0.24 0.71351 0.41564 0.0
C1037 C 0.34399 0.82577 0.42287 0.0
H1038 H 0.27689 0.73083 0.44533 0.0
C1039 C 0.32266 0.81579 0.40573 0.0
C1040 C 0.28614 0.77444 0.40272 0.0
H1041 H 0.37438 0.85603 0.4245 0.0
H1042 H 0.33707 0.83858 0.39441 0.0
C1043 C 0.26834 0.7454 0.41757 0.0
C1044 C 0.29875 0.16252 0.14997 0.0
C1045 C 0.28136 0.12753 0.16239 0.0
H1046 H 0.35586 0.20944 0.13569 0.0
C1047 C 0.30452 0.10591 0.16622 0.0
H1048 H 0.28148 0.17976 0.1469 0.0
C1049 C 0.34695 0.12272 0.15983 0.0
C1050 C 0.36686 0.16171 0.14975 0.0
H1051 H 0.29149 0.07865 0.17572 0.0
H1052 H 0.36541 0.10768 0.16442 0.0
C1053 C 0.3415 0.17971 0.14373 0.0
C1054 C 0.8914 0.20541 0.16389 0.0
C1055 C 0.87056 0.16043 0.16063 0.0
H1056 H 0.88766 0.26346 0.1616 0.0
C1057 C 0.835 0.14134 0.14854 0.0
H1058 H 0.91909 0.22078 0.17312 0.0
C1059 C 0.8164 0.1656 0.1422 0.0
C1060 C 0.8336 0.20916 0.14777 0.0
H1061 H 0.81835 0.10664 0.1459 0.0
H1062 H 0.78621 0.14908 0.13452 0.0
C1063 C 0.87322 0.22977 0.15737 0.0
C1064 C 0.85662 0.70143 0.14911 0.0
C1065 C 0.83776 0.71805 0.16126 0.0
H1066 H 0.84869 0.64479 0.13509 0.0
C1067 C 0.79297 0.69379 0.16482 0.0
H1068 H 0.89118 0.71954 0.14625 0.0
C1069 C 0.76861 0.65114 0.15846 0.0
C1070 C 0.789 0.63212 0.14868 0.0
H1071 H 0.77778 0.70619 0.17413 0.0
H1072 H 0.73508 0.63188 0.16286 0.0
C1073 C 0.83235 0.65846 0.14291 0.0
C1074 C 0.18351 0.34791 0.35274 0.0
C1075 C 0.1664 0.37449 0.34734 0.0
H1076 H 0.18177 0.28717 0.34862 0.0
C1077 C 0.12725 0.3559 0.33739 0.0
H1078 H 0.21338 0.36123 0.36062 0.0
C1079 C 0.10942 0.3137 0.3305 0.0
C1080 C 0.13004 0.28934 0.33373 0.0
H1081 H 0.1129 0.3753 0.33324 0.0
H1082 H 0.08205 0.30179 0.3211 0.0
C1083 C 0.16523 0.30534 0.34602 0.0
C1084 C 0.6541 0.8384 0.35168 0.0
C1085 C 0.63037 0.79489 0.34565 0.0
H1086 H 0.71219 0.90017 0.34822 0.0
C1087 C 0.65166 0.77755 0.33538 0.0
H1088 H 0.63866 0.85249 0.35983 0.0
C1089 C 0.69358 0.80482 0.32881 0.0
C1090 C 0.71486 0.84958 0.3326 0.0
H1091 H 0.63451 0.74399 0.33081 0.0
H1092 H 0.70753 0.79175 0.31918 0.0
C1093 C 0.69636 0.86568 0.34519 0.0
C1094 C 0.13052 0.83783 0.34444 0.0
C1095 C 0.14901 0.87313 0.3322 0.0
H1096 H 0.13945 0.79019 0.35886 0.0
C1097 C 0.19387 0.89436 0.32874 0.0
H1098 H 0.0959 0.82086 0.3472 0.0
C1099 C 0.21883 0.877 0.33539 0.0
C1100 C 0.19896 0.83783 0.34535 0.0
H1101 H 0.20873 0.92179 0.31934 0.0
H1102 H 0.25251 0.89183 0.33114 0.0
C1103 C 0.15538 0.82004 0.35092 0.0
C1104 C 0.66482 0.84266 0.81231 0.0
C1105 C 0.69157 0.82574 0.81764 0.0
H1106 H 0.60369 0.83993 0.81622 0.0
C1107 C 0.67326 0.7863 0.82738 0.0
H1108 H 0.67797 0.8727 0.80452 0.0
C1109 C 0.63089 0.76772 0.83406 0.0
C1110 C 0.60621 0.78801 0.83085 0.0
H1111 H 0.69288 0.77213 0.83144 0.0
H1112 H 0.61905 0.74004 0.84329 0.0
C1113 C 0.62212 0.82365 0.8188 0.0
C1114 C 0.22243 0.865 0.83645 0.0
C1115 C 0.19954 0.82034 0.83243 0.0
H1116 H 0.22391 0.92575 0.83436 0.0
C1117 C 0.16559 0.80439 0.81952 0.0
H1118 H 0.24896 0.87798 0.84631 0.0
C1119 C 0.15074 0.83168 0.81283 0.0
C1120 C 0.16996 0.87508 0.81896 0.0
H1121 H 0.14738 0.76998 0.8163 0.0
H1122 H 0.12171 0.81767 0.80436 0.0
C1123 C 0.20792 0.89228 0.82968 0.0
C1124 C 0.18595 0.35872 0.81671 0.0
C1125 C 0.16634 0.37438 0.82896 0.0
H1126 H 0.17917 0.3031 0.80216 0.0
C1127 C 0.12141 0.34957 0.83212 0.0
H1128 H 0.22062 0.37723 0.81415 0.0
C1129 C 0.09758 0.30733 0.8252 0.0
C1130 C 0.11862 0.28911 0.81532 0.0
H1131 H 0.10561 0.36118 0.84149 0.0
H1132 H 0.06389 0.2876 0.82932 0.0
C1133 C 0.16222 0.31611 0.80998 0.0
C1134 C 0.77788 0.64355 0.6603 0.0
C1135 C 0.80082 0.62209 0.66484 0.0
H1136 H 0.77585 0.70262 0.6618 0.0
C1137 C 0.83423 0.64051 0.67797 0.0
H1138 H 0.75175 0.62966 0.65026 0.0
C1139 C 0.84853 0.68272 0.68443 0.0
C1140 C 0.82929 0.70654 0.67784 0.0
H1141 H 0.85246 0.62454 0.68159 0.0
H1142 H 0.87716 0.69803 0.69313 0.0
C1143 C 0.79184 0.68541 0.66685 0.0
C1144 C 0.37558 0.20335 0.67963 0.0
C1145 C 0.39204 0.18376 0.6678 0.0
H1146 H 0.31913 0.19629 0.69344 0.0
C1147 C 0.36765 0.13879 0.66457 0.0
H1148 H 0.3938 0.23806 0.68221 0.0
C1149 C 0.32504 0.11486 0.67095 0.0
C1150 C 0.30624 0.13587 0.68042 0.0
H1151 H 0.37995 0.12308 0.65551 0.0
H1152 H 0.30569 0.08109 0.66684 0.0
C1153 C 0.33266 0.1795 0.68585 0.0
C1154 C 0.87462 0.22812 0.66853 0.0
C1155 C 0.8296 0.20725 0.67154 0.0
H1156 H 0.93243 0.22408 0.67096 0.0
C1157 C 0.81013 0.17132 0.68345 0.0
H1158 H 0.89027 0.25604 0.65942 0.0
C1159 C 0.8341 0.15239 0.6898 0.0
C1160 C 0.87774 0.16963 0.68442 0.0
H1161 H 0.77538 0.15463 0.68589 0.0
H1162 H 0.81728 0.1219 0.69727 0.0
C1163 C 0.89869 0.20962 0.67507 0.0
C1164 C 0.01702 0.51181 0.47685 0.0
C1165 C 0.0436 0.49495 0.48253 0.0
H1166 H 0.95629 0.51005 0.48066 0.0
C1167 C 0.02505 0.45598 0.49263 0.0
H1168 H 0.03033 0.5415 0.46881 0.0
C1169 C 0.98284 0.43824 0.49945 0.0
C1170 C 0.95853 0.4588 0.49597 0.0
H1171 H 0.0445 0.44185 0.497 0.0
H1172 H 0.97096 0.41116 0.50901 0.0
C1173 C 0.97446 0.4936 0.48347 0.0
C1174 C 0.5113 0.46517 0.4823 0.0
C1175 C 0.54738 0.4851 0.49409 0.0
H1176 H 0.46157 0.4717 0.46849 0.0
C1177 C 0.56796 0.53019 0.49702 0.0
H1178 H 0.49483 0.43036 0.47994 0.0
C1179 C 0.54906 0.55388 0.49051 0.0
C1180 C 0.50907 0.5325 0.48121 0.0
H1181 H 0.59599 0.54616 0.50604 0.0
H1182 H 0.56339 0.58774 0.49446 0.0
C1183 C 0.49201 0.48877 0.47596 0.0
C1184 C 0.53178 0.0289 0.48688 0.0
C1185 C 0.51586 0.04619 0.50015 0.0
H1186 H 0.51864 0.97256 0.47112 0.0
C1187 C 0.47134 0.02394 0.50439 0.0
H1188 H 0.56607 0.0455 0.48348 0.0
C1189 C 0.4442 0.9824 0.49736 0.0
C1190 C 0.4614 0.96237 0.48617 0.0
H1191 H 0.45836 0.03696 0.5145 0.0
H1192 H 0.41087 0.96456 0.50214 0.0
C1193 C 0.50463 0.98701 0.47994 0.0
C1194 C 0.45424 0.01074 0.0066 0.0
C1195 C 0.4946 0.03073 0.01564 0.0
H1196 H 0.40748 0.95473 0.99172 0.0
C1197 C 0.51283 0.00513 0.02103 0.0
H1198 H 0.43899 0.02937 0.00254 0.0
C1199 C 0.49418 0.96193 0.01509 0.0
C1200 C 0.45748 0.94432 0.00361 0.0
H1201 H 0.54365 0.01956 0.02825 0.0
H1202 H 0.51146 0.94442 0.01754 0.0
C1203 C 0.43595 0.96786 0.00052 0.0
C1204 C 0.98069 0.49981 0.0211 0.0
C1205 C 0.95572 0.45604 0.01558 0.0
H1206 H 0.0407 0.55976 0.01765 0.0
C1207 C 0.97631 0.43631 0.00648 0.0
H1208 H 0.96581 0.51573 0.02837 0.0
C1209 C 0.01902 0.46156 0.00035 0.0
C1210 C 0.04181 0.5066 0.00351 0.0
H1211 H 0.95817 0.40249 0.00231 0.0
H1212 H 0.03254 0.44673 0.99144 0.0
C1213 C 0.02374 0.525 0.01514 0.0
C1214 C 0.4644 0.49374 0.01201 0.0
C1215 C 0.48112 0.52905 -0.00023 0.0
H1216 H 0.4763 0.44754 0.02603 0.0
C1217 C 0.52581 0.55166 0.99589 0.0
H1218 H 0.42995 0.4757 0.01509 0.0
C1219 C 0.55236 0.53573 0.00211 0.0
C1220 C 0.53434 0.49662 0.01208 0.0
H1221 H 0.53935 0.57916 0.98651 0.0
H1222 H 0.58585 0.55168 0.99751 0.0
C1223 C 0.49092 0.47744 0.01811 0.0
loop_
_geom_bond_atom_site_label_1
_geom_bond_atom_site_label_2
_geom_bond_distance
_geom_bond_site_symmetry_2
_ccdc_geom_bond_type
Co0 O1 2.216 . S
Co0 O2 2.091 . S
Co0 O4 2.004 . S
Co0 O10 2.021 . S
Co0 O12 2.137 . S
Co0 O13 2.244 . S
O1 Co0 2.216 . S
O1 C8 1.247 . S
O2 Co0 2.091 . S
O2 C8 1.261 . S
C3 O12 1.247 . S
C3 O13 1.272 . S
O4 Co0 2.004 . S
O4 C9 1.259 . S
Co5 O6 2.061 . S
Co5 O11 2.052 . S
Co5 O13 2.135 . S
O6 Co5 2.061 . S
O6 C9 1.235 . S
C7 O10 1.238 . S
C7 O11 1.241 . S
C8 O1 1.247 . S
C8 O2 1.261 . S
C9 O4 1.259 . S
C9 O6 1.235 . S
O10 Co0 2.021 . S
O10 C7 1.238 . S
O11 Co5 2.052 . S
O11 C7 1.241 . S
O12 Co0 2.137 . S
O12 C3 1.247 . S
O13 Co0 2.244 . S
O13 C3 1.272 . S
O13 Co5 2.135 . S
Co14 O15 2.216 . S
Co14 O16 2.091 . S
Co14 O18 2.004 1_545 S
Co14 O24 2.021 . S
Co14 O26 2.137 1_545 S
Co14 O27 2.244 . S
O15 Co14 2.216 . S
O15 C22 1.247 . S
O16 Co14 2.091 . S
O16 C22 1.261 . S
C17 O26 1.247 . S
C17 O27 1.272 1_565 S
O18 Co14 2.004 1_565 S
O18 C23 1.259 . S
Co19 O20 2.061 . S
Co19 O25 2.052 1_565 S
Co19 O27 2.135 1_565 S
O20 Co19 2.061 . S
O20 C23 1.235 . S
C21 O24 1.238 . S
C21 O25 1.241 . S
C22 O15 1.247 . S
C22 O16 1.261 . S
C23 O18 1.259 . S
C23 O20 1.235 . S
O24 Co14 2.021 . S
O24 C21 1.238 . S
O25 Co19 2.052 1_545 S
O25 C21 1.241 . S
O26 Co14 2.137 1_565 S
O26 C17 1.247 . S
O27 Co14 2.244 . S
O27 C17 1.272 1_545 S
O27 Co19 2.135 1_545 S
Co28 O29 2.216 . S
Co28 O30 2.091 . S
Co28 O32 2.004 1_655 S
Co28 O38 2.021 . S
Co28 O40 2.137 1_655 S
Co28 O41 2.244 . S
O29 Co28 2.216 . S
O29 C36 1.247 . S
O30 Co28 2.091 . S
O30 C36 1.261 . S
C31 O40 1.247 . S
C31 O41 1.272 1_455 S
O32 Co28 2.004 1_455 S
O32 C37 1.259 . S
Co33 O34 2.061 . S
Co33 O39 2.052 1_455 S
Co33 O41 2.135 1_455 S
O34 Co33 2.061 . S
O34 C37 1.235 . S
C35 O38 1.238 . S
C35 O39 1.241 . S
C36 O29 1.247 . S
C36 O30 1.261 . S
C37 O32 1.259 . S
C37 O34 1.235 . S
O38 Co28 2.021 . S
O38 C35 1.238 . S
O39 Co33 2.052 1_655 S
O39 C35 1.241 . S
O40 Co28 2.137 1_455 S
O40 C31 1.247 . S
O41 Co28 2.244 . S
O41 C31 1.272 1_655 S
O41 Co33 2.135 1_655 S
Co42 O43 2.216 . S
Co42 O44 2.091 . S
Co42 O46 2.004 . S
Co42 O52 2.021 . S
Co42 O54 2.137 . S
Co42 O55 2.244 . S
O43 Co42 2.216 . S
O43 C50 1.247 . S
O44 Co42 2.091 . S
O44 C50 1.261 . S
C45 O54 1.247 . S
C45 O55 1.272 . S
O46 Co42 2.004 . S
O46 C51 1.259 . S
Co47 O48 2.061 . S
Co47 O53 2.052 . S
Co47 O55 2.135 . S
O48 Co47 2.061 . S
O48 C51 1.235 . S
C49 O52 1.238 . S
C49 O53 1.241 . S
C50 O43 1.247 . S
C50 O44 1.261 . S
C51 O46 1.259 . S
C51 O48 1.235 . S
O52 Co42 2.021 . S
O52 C49 1.238 . S
O53 Co47 2.052 . S
O53 C49 1.241 . S
O54 Co42 2.137 . S
O54 C45 1.247 . S
O55 Co42 2.244 . S
O55 C45 1.272 . S
O55 Co47 2.135 . S
Co56 O57 2.216 . S
Co56 O58 2.091 . S
Co56 O60 2.004 1_565 S
Co56 O66 2.021 . S
Co56 O68 2.137 1_565 S
Co56 O69 2.244 . S
O57 Co56 2.216 . S
O57 C64 1.247 . S
O58 Co56 2.091 . S
O58 C64 1.261 . S
C59 O68 1.247 . S
C59 O69 1.272 1_545 S
O60 Co56 2.004 1_545 S
O60 C65 1.259 . S
Co61 O62 2.061 . S
Co61 O67 2.052 1_545 S
Co61 O69 2.135 1_545 S
O62 Co61 2.061 . S
O62 C65 1.235 . S
C63 O66 1.238 . S
C63 O67 1.241 . S
C64 O57 1.247 . S
C64 O58 1.261 . S
C65 O60 1.259 . S
C65 O62 1.235 . S
O66 Co56 2.021 . S
O66 C63 1.238 . S
O67 Co61 2.052 1_565 S
O67 C63 1.241 . S
O68 Co56 2.137 1_545 S
O68 C59 1.247 . S
O69 Co56 2.244 . S
O69 C59 1.272 1_565 S
O69 Co61 2.135 1_565 S
Co70 O71 2.216 . S
Co70 O72 2.091 . S
Co70 O74 2.004 1_455 S
Co70 O80 2.021 . S
Co70 O82 2.137 1_455 S
Co70 O83 2.244 . S
O71 Co70 2.216 . S
O71 C78 1.247 . S
O72 Co70 2.091 . S
O72 C78 1.261 . S
C73 O82 1.247 . S
C73 O83 1.272 1_655 S
O74 Co70 2.004 1_655 S
O74 C79 1.259 . S
Co75 O76 2.061 . S
Co75 O81 2.052 1_655 S
Co75 O83 2.135 1_655 S
O76 Co75 2.061 . S
O76 C79 1.235 . S
C77 O80 1.238 . S
C77 O81 1.241 . S
C78 O71 1.247 . S
C78 O72 1.261 . S
C79 O74 1.259 . S
C79 O76 1.235 . S
O80 Co70 2.021 . S
O80 C77 1.238 . S
O81 Co75 2.052 1_455 S
O81 C77 1.241 . S
O82 Co70 2.137 1_655 S
O82 C73 1.247 . S
O83 Co70 2.244 . S
O83 C73 1.272 1_455 S
O83 Co75 2.135 1_455 S
Co84 O85 2.216 . S
Co84 O86 2.091 . S
Co84 O88 2.004 . S
Co84 O94 2.021 . S
Co84 O96 2.137 . S
Co84 O97 2.244 . S
O85 Co84 2.216 . S
O85 C92 1.247 . S
O86 Co84 2.091 . S
O86 C92 1.261 . S
C87 O96 1.247 . S
C87 O97 1.272 . S
O88 Co84 2.004 . S
O88 C93 1.259 . S
Co89 O90 2.061 . S
Co89 O95 2.052 . S
Co89 O97 2.135 . S
O90 Co89 2.061 . S
O90 C93 1.235 . S
C91 O94 1.238 . S
C91 O95 1.241 . S
C92 O85 1.247 . S
C92 O86 1.261 . S
C93 O88 1.259 . S
C93 O90 1.235 . S
O94 Co84 2.021 . S
O94 C91 1.238 . S
O95 Co89 2.052 . S
O95 C91 1.241 . S
O96 Co84 2.137 . S
O96 C87 1.247 . S
O97 Co84 2.244 . S
O97 C87 1.272 . S
O97 Co89 2.135 . S
Co98 O99 2.216 . S
Co98 O100 2.091 . S
Co98 O102 2.004 1_565 S
Co98 O108 2.021 1_565 S
Co98 O110 2.137 . S
Co98 O111 2.244 . S
O99 Co98 2.216 . S
O99 C106 1.247 . S
O100 Co98 2.091 . S
O100 C106 1.261 . S
C101 O110 1.247 . S
C101 O111 1.272 . S
O102 Co98 2.004 1_545 S
O102 C107 1.259 . S
Co103 O104 2.061 . S
Co103 O109 2.037 1_545 S
Co103 O111 2.135 1_545 S
O104 Co103 2.061 . S
O104 C107 1.235 . S
C105 O108 1.238 . S
C105 O109 1.253 1_545 S
C106 O99 1.247 . S
C106 O100 1.261 . S
C107 O102 1.259 . S
C107 O104 1.235 . S
O108 Co98 2.021 1_545 S
O108 C105 1.238 . S
O109 Co103 2.037 1_565 S
O109 C105 1.253 1_565 S
O110 Co98 2.137 . S
O110 C101 1.247 . S
O111 Co98 2.244 . S
O111 C101 1.272 . S
O111 Co103 2.135 1_565 S
Co112 O113 2.216 . S
Co112 O114 2.091 . S
Co112 O116 2.004 1_455 S
Co112 O122 2.021 1_455 S
Co112 O124 2.137 . S
Co112 O125 2.244 . S
O113 Co112 2.216 . S
O113 C120 1.247 . S
O114 Co112 2.091 . S
O114 C120 1.261 . S
C115 O124 1.247 . S
C115 O125 1.272 . S
O116 Co112 2.004 1_655 S
O116 C121 1.259 . S
Co117 O118 2.061 . S
Co117 O123 2.052 1_655 S
Co117 O125 2.135 1_655 S
O118 Co117 2.061 . S
O118 C121 1.235 . S
C119 O122 1.238 . S
C119 O123 1.241 1_655 S
C120 O113 1.247 . S
C120 O114 1.261 . S
C121 O116 1.259 . S
C121 O118 1.235 . S
O122 Co112 2.021 1_655 S
O122 C119 1.238 . S
O123 Co117 2.052 1_455 S
O123 C119 1.241 1_455 S
O124 Co112 2.137 . S
O124 C115 1.247 . S
O125 Co112 2.244 . S
O125 C115 1.272 . S
O125 Co117 2.135 1_455 S
Co126 O127 2.216 . S
Co126 O128 2.091 . S
Co126 O130 2.004 . S
Co126 O136 2.021 . S
Co126 O138 2.137 . S
Co126 O139 2.244 . S
O127 Co126 2.216 . S
O127 C134 1.247 . S
O128 Co126 2.091 . S
O128 C134 1.261 . S
C129 O138 1.247 . S
C129 O139 1.272 . S
O130 Co126 2.004 . S
O130 C135 1.259 . S
Co131 O132 2.061 . S
Co131 O137 2.052 . S
Co131 O139 2.135 . S
O132 Co131 2.061 . S
O132 C135 1.235 . S
C133 O136 1.238 . S
C133 O137 1.241 . S
C134 O127 1.247 . S
C134 O128 1.261 . S
C135 O130 1.259 . S
C135 O132 1.235 . S
O136 Co126 2.021 . S
O136 C133 1.238 . S
O137 Co131 2.052 . S
O137 C133 1.241 . S
O138 Co126 2.137 . S
O138 C129 1.247 . S
O139 Co126 2.244 . S
O139 C129 1.272 . S
O139 Co131 2.135 . S
Co140 O141 2.216 . S
Co140 O142 2.091 . S
Co140 O144 2.004 1_545 S
Co140 O150 2.021 1_545 S
Co140 O152 2.137 . S
Co140 O153 2.244 . S
O141 Co140 2.216 . S
O141 C148 1.247 . S
O142 Co140 2.091 . S
O142 C148 1.261 . S
C143 O152 1.247 . S
C143 O153 1.272 . S
O144 Co140 2.004 1_565 S
O144 C149 1.259 . S
Co145 O146 2.061 . S
Co145 O151 2.052 1_565 S
Co145 O153 2.135 1_565 S
O146 Co145 2.061 . S
O146 C149 1.235 . S
C147 O150 1.238 . S
C147 O151 1.241 1_565 S
C148 O141 1.247 . S
C148 O142 1.261 . S
C149 O144 1.259 . S
C149 O146 1.235 . S
O150 Co140 2.021 1_565 S
O150 C147 1.238 . S
O151 Co145 2.052 1_545 S
O151 C147 1.241 1_545 S
O152 Co140 2.137 . S
O152 C143 1.247 . S
O153 Co140 2.244 . S
O153 C143 1.272 . S
O153 Co145 2.135 1_545 S
Co154 O155 2.216 . S
Co154 O156 2.091 . S
Co154 O158 2.004 1_655 S
Co154 O164 2.021 1_655 S
Co154 O166 2.137 . S
Co154 O167 2.244 . S
O155 Co154 2.216 . S
O155 C162 1.247 . S
O156 Co154 2.091 . S
O156 C162 1.261 . S
C157 O166 1.247 . S
C157 O167 1.272 . S
O158 Co154 2.004 1_455 S
O158 C163 1.259 . S
Co159 O160 2.061 . S
Co159 O165 2.038 1_455 S
Co159 O167 2.135 1_455 S
O160 Co159 2.061 . S
O160 C163 1.235 . S
C161 O164 1.238 . S
C161 O165 1.251 1_455 S
C162 O155 1.247 . S
C162 O156 1.261 . S
C163 O158 1.259 . S
C163 O160 1.235 . S
O164 Co154 2.021 1_455 S
O164 C161 1.238 . S
O165 Co159 2.038 1_655 S
O165 C161 1.251 1_655 S
O166 Co154 2.137 . S
O166 C157 1.247 . S
O167 Co154 2.244 . S
O167 C157 1.272 . S
O167 Co159 2.135 1_655 S
Co168 O169 2.216 . S
Co168 O170 2.091 . S
Co168 O172 2.004 . S
Co168 O178 2.021 . S
Co168 O180 2.137 . S
Co168 O181 2.244 . S
O169 Co168 2.216 . S
O169 C176 1.247 . S
O170 Co168 2.091 . S
O170 C176 1.261 . S
C171 O180 1.247 . S
C171 O181 1.272 . S
O172 Co168 2.004 . S
O172 C177 1.259 . S
Co173 O174 2.061 . S
Co173 O179 2.052 . S
Co173 O181 2.135 . S
O174 Co173 2.061 . S
O174 C177 1.235 . S
C175 O178 1.238 . S
C175 O179 1.241 . S
C176 O169 1.247 . S
C176 O170 1.261 . S
C177 O172 1.259 . S
C177 O174 1.235 . S
O178 Co168 2.021 . S
O178 C175 1.238 . S
O179 Co173 2.052 . S
O179 C175 1.241 . S
O180 Co168 2.137 . S
O180 C171 1.247 . S
O181 Co168 2.244 . S
O181 C171 1.272 . S
O181 Co173 2.135 . S
Co182 O183 2.216 . S
Co182 O184 2.091 . S
Co182 O186 2.004 . S
Co182 O192 2.021 . S
Co182 O194 2.137 . S
Co182 O195 2.244 . S
O183 Co182 2.216 . S
O183 C190 1.247 . S
O184 Co182 2.091 . S
O184 C190 1.261 . S
C185 O194 1.247 . S
C185 O195 1.272 . S
O186 Co182 2.004 . S
O186 C191 1.259 . S
Co187 O188 2.061 . S
Co187 O193 2.052 . S
Co187 O195 2.135 . S
O188 Co187 2.061 . S
O188 C191 1.235 . S
C189 O192 1.238 . S
C189 O193 1.241 . S
C190 O183 1.247 . S
C190 O184 1.261 . S
C191 O186 1.259 . S
C191 O188 1.235 . S
O192 Co182 2.021 . S
O192 C189 1.238 . S
O193 Co187 2.052 . S
O193 C189 1.241 . S
O194 Co182 2.137 . S
O194 C185 1.247 . S
O195 Co182 2.244 . S
O195 C185 1.272 . S
O195 Co187 2.135 . S
Co196 O197 2.216 . S
Co196 O198 2.091 . S
Co196 O200 2.004 . S
Co196 O206 2.021 . S
Co196 O208 2.137 . S
Co196 O209 2.244 . S
O197 Co196 2.216 . S
O197 C204 1.247 . S
O198 Co196 2.091 . S
O198 C204 1.261 . S
C199 O208 1.247 . S
C199 O209 1.272 . S
O200 Co196 2.004 . S
O200 C205 1.259 . S
Co201 O202 2.061 . S
Co201 O207 2.052 . S
Co201 O209 2.135 . S
O202 Co201 2.061 . S
O202 C205 1.235 . S
C203 O206 1.238 . S
C203 O207 1.241 . S
C204 O197 1.247 . S
C204 O198 1.261 . S
C205 O200 1.259 . S
C205 O202 1.235 . S
O206 Co196 2.021 . S
O206 C203 1.238 . S
O207 Co201 2.052 . S
O207 C203 1.241 . S
O208 Co196 2.137 . S
O208 C199 1.247 . S
O209 Co196 2.244 . S
O209 C199 1.272 . S
O209 Co201 2.135 . S
Co210 O211 2.216 . S
Co210 O212 2.091 . S
Co210 O214 2.004 . S
Co210 O220 2.021 . S
Co210 O222 2.137 . S
Co210 O223 2.244 . S
O211 Co210 2.216 . S
O211 C218 1.247 . S
O212 Co210 2.091 . S
O212 C218 1.261 . S
C213 O222 1.247 . S
C213 O223 1.272 . S
O214 Co210 2.004 . S
O214 C219 1.259 . S
Co215 O216 2.061 . S
Co215 O221 2.052 . S
Co215 O223 2.135 . S
O216 Co215 2.061 . S
O216 C219 1.235 . S
C217 O220 1.238 . S
C217 O221 1.241 . S
C218 O211 1.247 . S
C218 O212 1.261 . S
C219 O214 1.259 . S
C219 O216 1.235 . S
O220 Co210 2.021 . S
O220 C217 1.238 . S
O221 Co215 2.052 . S
O221 C217 1.241 . S
O222 Co210 2.137 . S
O222 C213 1.247 . S
O223 Co210 2.244 . S
O223 C213 1.272 . S
O223 Co215 2.135 . S
Co224 O225 2.216 . S
Co224 O226 2.091 . S
Co224 O228 2.004 . S
Co224 O234 2.021 . S
Co224 O236 2.137 . S
Co224 O237 2.244 . S
O225 Co224 2.216 . S
O225 C232 1.247 . S
O226 Co224 2.091 . S
O226 C232 1.261 . S
C227 O236 1.247 . S
C227 O237 1.272 . S
O228 Co224 2.004 . S
O228 C233 1.259 . S
Co229 O230 2.061 . S
Co229 O235 2.052 . S
Co229 O237 2.135 . S
O230 Co229 2.061 . S
O230 C233 1.235 . S
C231 O234 1.238 . S
C231 O235 1.241 . S
C232 O225 1.247 . S
C232 O226 1.261 . S
C233 O228 1.259 . S
C233 O230 1.235 . S
O234 Co224 2.021 . S
O234 C231 1.238 . S
O235 Co229 2.052 . S
O235 C231 1.241 . S
O236 Co224 2.137 . S
O236 C227 1.247 . S
O237 Co224 2.244 . S
O237 C227 1.272 . S
O237 Co229 2.135 . S
Co238 O239 2.216 . S
Co238 O240 2.091 . S
Co238 O242 2.004 . S
Co238 O248 2.021 . S
Co238 O250 2.137 . S
Co238 O251 2.244 . S
O239 Co238 2.216 . S
O239 C246 1.247 . S
O240 Co238 2.091 . S
O240 C246 1.261 . S
C241 O250 1.247 . S
C241 O251 1.272 . S
O242 Co238 2.004 . S
O242 C247 1.259 . S
Co243 O244 2.061 . S
Co243 O249 2.052 . S
Co243 O251 2.135 . S
O244 Co243 2.061 . S
O244 C247 1.235 . S
C245 O248 1.238 . S
C245 O249 1.241 . S
C246 O239 1.247 . S
C246 O240 1.261 . S
C247 O242 1.259 . S
C247 O244 1.235 . S
O248 Co238 2.021 . S
O248 C245 1.238 . S
O249 Co243 2.052 . S
O249 C245 1.241 . S
O250 Co238 2.137 . S
O250 C241 1.247 . S
O251 Co238 2.244 . S
O251 C241 1.272 . S
O251 Co243 2.135 . S
Co252 O253 2.216 . S
Co252 O254 2.091 . S
Co252 O256 2.004 . S
Co252 O262 2.021 . S
Co252 O264 2.137 . S
Co252 O265 2.244 . S
O253 Co252 2.216 . S
O253 C260 1.247 . S
O254 Co252 2.091 . S
O254 C260 1.261 . S
C255 O264 1.247 . S
C255 O265 1.272 . S
O256 Co252 2.004 . S
O256 C261 1.259 . S
Co257 O258 2.061 . S
Co257 O263 2.052 . S
Co257 O265 2.135 . S
O258 Co257 2.061 . S
O258 C261 1.235 . S
C259 O262 1.238 . S
C259 O263 1.241 . S
C260 O253 1.247 . S
C260 O254 1.261 . S
C261 O256 1.259 . S
C261 O258 1.235 . S
O262 Co252 2.021 . S
O262 C259 1.238 . S
O263 Co257 2.052 . S
O263 C259 1.241 . S
O264 Co252 2.137 . S
O264 C255 1.247 . S
O265 Co252 2.244 . S
O265 C255 1.272 . S
O265 Co257 2.135 . S
Co266 O267 2.216 . S
Co266 O268 2.091 . S
Co266 O270 2.004 . S
Co266 O276 2.021 . S
Co266 O278 2.137 . S
Co266 O279 2.244 . S
O267 Co266 2.216 . S
O267 C274 1.247 . S
O268 Co266 2.091 . S
O268 C274 1.261 . S
C269 O278 1.247 . S
C269 O279 1.272 . S
O270 Co266 2.004 . S
O270 C275 1.259 . S
Co271 O272 2.061 . S
Co271 O277 2.052 . S
Co271 O279 2.135 . S
O272 Co271 2.061 . S
O272 C275 1.235 . S
C273 O276 1.238 . S
C273 O277 1.241 . S
C274 O267 1.247 . S
C274 O268 1.261 . S
C275 O270 1.259 . S
C275 O272 1.235 . S
O276 Co266 2.021 . S
O276 C273 1.238 . S
O277 Co271 2.052 . S
O277 C273 1.241 . S
O278 Co266 2.137 . S
O278 C269 1.247 . S
O279 Co266 2.244 . S
O279 C269 1.272 . S
O279 Co271 2.135 . S
Co280 O281 2.216 . S
Co280 O282 2.091 . S
Co280 O284 2.004 . S
Co280 O290 2.021 . S
Co280 O292 2.137 . S
Co280 O293 2.244 . S
O281 Co280 2.216 . S
O281 C288 1.247 . S
O282 Co280 2.091 . S
O282 C288 1.261 . S
C283 O292 1.247 . S
C283 O293 1.272 . S
O284 Co280 2.004 . S
O284 C289 1.259 . S
Co285 O286 2.061 . S
Co285 O291 2.052 . S
Co285 O293 2.135 . S
O286 Co285 2.061 . S
O286 C289 1.235 . S
C287 O290 1.238 . S
C287 O291 1.241 . S
C288 O281 1.247 . S
C288 O282 1.261 . S
C289 O284 1.259 . S
C289 O286 1.235 . S
O290 Co280 2.021 . S
O290 C287 1.238 . S
O291 Co285 2.052 . S
O291 C287 1.241 . S
O292 Co280 2.137 . S
O292 C283 1.247 . S
O293 Co280 2.244 . S
O293 C283 1.272 . S
O293 Co285 2.135 . S
Co294 O295 2.216 . S
Co294 O296 2.091 1_554 S
Co294 O298 2.004 1_554 S
Co294 O304 2.021 . S
Co294 O306 2.137 1_554 S
Co294 O307 2.244 . S
O295 Co294 2.216 . S
O295 C302 1.247 1_554 S
O296 Co294 2.091 1_556 S
O296 C302 1.261 . S
C297 O306 1.276 . S
C297 O307 1.238 1_556 S
O298 Co294 2.004 1_556 S
O298 C303 1.253 1_556 S
Co299 O300 2.061 . S
Co299 O305 2.052 . S
Co299 O307 2.135 . S
O300 Co299 2.061 . S
O300 C303 1.247 . S
C301 O304 1.238 . S
C301 O305 1.241 . S
C302 O295 1.247 1_556 S
C302 O296 1.261 . S
C303 O298 1.253 1_554 S
C303 O300 1.247 . S
O304 Co294 2.021 . S
O304 C301 1.238 . S
O305 Co299 2.052 . S
O305 C301 1.241 . S
O306 Co294 2.137 1_556 S
O306 C297 1.276 . S
O307 Co294 2.244 . S
O307 C297 1.238 1_554 S
O307 Co299 2.135 . S
Co308 O309 2.216 . S
Co308 O310 2.091 1_554 S
Co308 O312 2.004 1_554 S
Co308 O318 2.021 . S
Co308 O320 2.137 1_554 S
Co308 O321 2.244 . S
O309 Co308 2.216 . S
O309 C316 1.247 1_554 S
O310 Co308 2.091 1_556 S
O310 C316 1.261 . S
C311 O320 1.276 . S
C311 O321 1.238 1_556 S
O312 Co308 2.004 1_556 S
O312 C317 1.253 1_556 S
Co313 O314 2.061 . S
Co313 O319 2.052 . S
Co313 O321 2.135 . S
O314 Co313 2.061 . S
O314 C317 1.248 . S
C315 O318 1.238 . S
C315 O319 1.241 . S
C316 O309 1.247 1_556 S
C316 O310 1.261 . S
C317 O312 1.253 1_554 S
C317 O314 1.248 . S
O318 Co308 2.021 . S
O318 C315 1.238 . S
O319 Co313 2.052 . S
O319 C315 1.241 . S
O320 Co308 2.137 1_556 S
O320 C311 1.276 . S
O321 Co308 2.244 . S
O321 C311 1.238 1_554 S
O321 Co313 2.135 . S
Co322 O323 2.216 . S
Co322 O324 2.091 1_554 S
Co322 O326 2.004 1_554 S
Co322 O332 2.021 . S
Co322 O334 2.137 1_554 S
Co322 O335 2.244 . S
O323 Co322 2.216 . S
O323 C330 1.247 1_554 S
O324 Co322 2.091 1_556 S
O324 C330 1.261 . S
C325 O334 1.276 . S
C325 O335 1.238 1_556 S
O326 Co322 2.004 1_556 S
O326 C331 1.252 1_556 S
Co327 O328 2.061 . S
Co327 O333 2.052 . S
Co327 O335 2.135 . S
O328 Co327 2.061 . S
O328 C331 1.248 . S
C329 O332 1.238 . S
C329 O333 1.241 . S
C330 O323 1.247 1_556 S
C330 O324 1.261 . S
C331 O326 1.252 1_554 S
C331 O328 1.248 . S
O332 Co322 2.021 . S
O332 C329 1.238 . S
O333 Co327 2.052 . S
O333 C329 1.241 . S
O334 Co322 2.137 1_556 S
O334 C325 1.276 . S
O335 Co322 2.244 . S
O335 C325 1.238 1_554 S
O335 Co327 2.135 . S
Co336 O337 2.216 . S
Co336 O338 2.091 . S
Co336 O340 2.004 . S
Co336 O346 2.021 . S
Co336 O348 2.137 . S
Co336 O349 2.244 . S
O337 Co336 2.216 . S
O337 C344 1.247 . S
O338 Co336 2.091 . S
O338 C344 1.261 . S
C339 O348 1.247 . S
C339 O349 1.272 . S
O340 Co336 2.004 . S
O340 C345 1.259 . S
Co341 O342 2.061 . S
Co341 O347 2.052 . S
Co341 O349 2.135 . S
O342 Co341 2.061 . S
O342 C345 1.235 . S
C343 O346 1.238 . S
C343 O347 1.241 . S
C344 O337 1.247 . S
C344 O338 1.261 . S
C345 O340 1.259 . S
C345 O342 1.235 . S
O346 Co336 2.021 . S
O346 C343 1.238 . S
O347 Co341 2.052 . S
O347 C343 1.241 . S
O348 Co336 2.137 . S
O348 C339 1.247 . S
O349 Co336 2.244 . S
O349 C339 1.272 . S
O349 Co341 2.135 . S
Co350 O351 2.216 . S
Co350 O352 2.091 . S
Co350 O354 2.004 . S
Co350 O360 2.021 . S
Co350 O362 2.137 . S
Co350 O363 2.244 . S
O351 Co350 2.216 . S
O351 C358 1.247 . S
O352 Co350 2.091 . S
O352 C358 1.261 . S
C353 O362 1.247 . S
C353 O363 1.272 . S
O354 Co350 2.004 . S
O354 C359 1.259 . S
Co355 O356 2.061 . S
Co355 O361 2.052 . S
Co355 O363 2.135 . S
O356 Co355 2.061 . S
O356 C359 1.235 . S
C357 O360 1.238 . S
C357 O361 1.241 . S
C358 O351 1.247 . S
C358 O352 1.261 . S
C359 O354 1.259 . S
C359 O356 1.235 . S
O360 Co350 2.021 . S
O360 C357 1.238 . S
O361 Co355 2.052 . S
O361 C357 1.241 . S
O362 Co350 2.137 . S
O362 C353 1.247 . S
O363 Co350 2.244 . S
O363 C353 1.272 . S
O363 Co355 2.135 . S
Co364 O365 2.216 . S
Co364 O366 2.091 . S
Co364 O368 2.004 . S
Co364 O374 2.021 . S
Co364 O376 2.137 . S
Co364 O377 2.244 . S
O365 Co364 2.216 . S
O365 C372 1.247 . S
O366 Co364 2.091 . S
O366 C372 1.261 . S
C367 O376 1.247 . S
C367 O377 1.272 . S
O368 Co364 2.004 . S
O368 C373 1.259 . S
Co369 O370 2.061 . S
Co369 O375 2.052 . S
Co369 O377 2.135 . S
O370 Co369 2.061 . S
O370 C373 1.235 . S
C371 O374 1.238 . S
C371 O375 1.241 . S
C372 O365 1.247 . S
C372 O366 1.261 . S
C373 O368 1.259 . S
C373 O370 1.235 . S
O374 Co364 2.021 . S
O374 C371 1.238 . S
O375 Co369 2.052 . S
O375 C371 1.241 . S
O376 Co364 2.137 . S
O376 C367 1.247 . S
O377 Co364 2.244 . S
O377 C367 1.272 . S
O377 Co369 2.135 . S
Co378 O379 2.216 . S
Co378 O380 2.091 1_556 S
Co378 O382 2.004 1_556 S
Co378 O388 2.021 1_556 S
Co378 O390 2.137 . S
Co378 O391 2.244 . S
O379 Co378 2.216 . S
O379 C386 1.247 1_556 S
O380 Co378 2.091 1_554 S
O380 C386 1.261 . S
C381 O390 1.247 . S
C381 O391 1.272 . S
O382 Co378 2.004 1_554 S
O382 C387 1.259 1_554 S
Co383 O384 2.061 . S
Co383 O389 2.052 . S
Co383 O391 2.135 . S
O384 Co383 2.061 . S
O384 C387 1.235 . S
C385 O388 1.238 1_556 S
C385 O389 1.241 . S
C386 O379 1.247 1_554 S
C386 O380 1.261 . S
C387 O382 1.259 1_556 S
C387 O384 1.235 . S
O388 Co378 2.021 1_554 S
O388 C385 1.238 1_554 S
O389 Co383 2.052 . S
O389 C385 1.241 . S
O390 Co378 2.137 . S
O390 C381 1.247 . S
O391 Co378 2.244 . S
O391 C381 1.272 . S
O391 Co383 2.135 . S
Co392 O393 2.216 . S
Co392 O394 2.091 1_556 S
Co392 O396 2.004 1_556 S
Co392 O402 2.021 1_556 S
Co392 O404 2.137 . S
Co392 O405 2.244 . S
O393 Co392 2.216 . S
O393 C400 1.247 1_556 S
O394 Co392 2.091 1_554 S
O394 C400 1.261 . S
C395 O404 1.247 . S
C395 O405 1.272 . S
O396 Co392 2.004 1_554 S
O396 C401 1.259 1_554 S
Co397 O398 2.061 . S
Co397 O403 2.052 . S
Co397 O405 2.135 . S
O398 Co397 2.061 . S
O398 C401 1.235 . S
C399 O402 1.238 1_556 S
C399 O403 1.241 . S
C400 O393 1.247 1_554 S
C400 O394 1.261 . S
C401 O396 1.259 1_556 S
C401 O398 1.235 . S
O402 Co392 2.021 1_554 S
O402 C399 1.238 1_554 S
O403 Co397 2.052 . S
O403 C399 1.241 . S
O404 Co392 2.137 . S
O404 C395 1.247 . S
O405 Co392 2.244 . S
O405 C395 1.272 . S
O405 Co397 2.135 . S
Co406 O407 2.216 . S
Co406 O408 2.091 1_556 S
Co406 O410 2.004 1_556 S
Co406 O416 2.021 1_556 S
Co406 O418 2.137 . S
Co406 O419 2.244 . S
O407 Co406 2.216 . S
O407 C414 1.247 1_556 S
O408 Co406 2.091 1_554 S
O408 C414 1.261 . S
C409 O418 1.247 . S
C409 O419 1.272 . S
O410 Co406 2.004 1_554 S
O410 C415 1.259 1_554 S
Co411 O412 2.061 . S
Co411 O417 2.052 . S
Co411 O419 2.135 . S
O412 Co411 2.061 . S
O412 C415 1.235 . S
C413 O416 1.238 1_556 S
C413 O417 1.241 . S
C414 O407 1.247 1_554 S
C414 O408 1.261 . S
C415 O410 1.259 1_556 S
C415 O412 1.235 . S
O416 Co406 2.021 1_554 S
O416 C413 1.238 1_554 S
O417 Co411 2.052 . S
O417 C413 1.241 . S
O418 Co406 2.137 . S
O418 C409 1.247 . S
O419 Co406 2.244 . S
O419 C409 1.272 . S
O419 Co411 2.135 . S
Co420 O421 2.216 . S
Co420 O422 2.091 . S
Co420 O424 2.004 . S
Co420 O430 2.021 . S
Co420 O432 2.137 . S
Co420 O433 2.244 . S
O421 Co420 2.216 . S
O421 C428 1.247 . S
O422 Co420 2.091 . S
O422 C428 1.261 . S
C423 O432 1.247 . S
C423 O433 1.272 . S
O424 Co420 2.004 . S
O424 C429 1.259 . S
Co425 O426 2.061 . S
Co425 O431 2.052 . S
Co425 O433 2.135 . S
O426 Co425 2.061 . S
O426 C429 1.235 . S
C427 O430 1.238 . S
C427 O431 1.241 . S
C428 O421 1.247 . S
C428 O422 1.261 . S
C429 O424 1.259 . S
C429 O426 1.235 . S
O430 Co420 2.021 . S
O430 C427 1.238 . S
O431 Co425 2.052 . S
O431 C427 1.241 . S
O432 Co420 2.137 . S
O432 C423 1.247 . S
O433 Co420 2.244 . S
O433 C423 1.272 . S
O433 Co425 2.135 . S
Co434 O435 2.216 . S
Co434 O436 2.091 . S
Co434 O438 2.004 . S
Co434 O444 2.021 . S
Co434 O446 2.137 . S
Co434 O447 2.244 . S
O435 Co434 2.216 . S
O435 C442 1.247 . S
O436 Co434 2.091 . S
O436 C442 1.261 . S
C437 O446 1.247 . S
C437 O447 1.272 . S
O438 Co434 2.004 . S
O438 C443 1.259 . S
Co439 O440 2.061 . S
Co439 O445 2.052 . S
Co439 O447 2.135 . S
O440 Co439 2.061 . S
O440 C443 1.235 . S
C441 O444 1.238 . S
C441 O445 1.241 . S
C442 O435 1.247 . S
C442 O436 1.261 . S
C443 O438 1.259 . S
C443 O440 1.235 . S
O444 Co434 2.021 . S
O444 C441 1.238 . S
O445 Co439 2.052 . S
O445 C441 1.241 . S
O446 Co434 2.137 . S
O446 C437 1.247 . S
O447 Co434 2.244 . S
O447 C437 1.272 . S
O447 Co439 2.135 . S
Co448 O449 2.216 . S
Co448 O450 2.091 . S
Co448 O452 2.004 . S
Co448 O458 2.021 . S
Co448 O460 2.137 . S
Co448 O461 2.244 . S
O449 Co448 2.216 . S
O449 C456 1.247 . S
O450 Co448 2.091 . S
O450 C456 1.261 . S
C451 O460 1.247 . S
C451 O461 1.272 . S
O452 Co448 2.004 . S
O452 C457 1.259 . S
Co453 O454 2.061 . S
Co453 O459 2.052 . S
Co453 O461 2.135 . S
O454 Co453 2.061 . S
O454 C457 1.235 . S
C455 O458 1.238 . S
C455 O459 1.241 . S
C456 O449 1.247 . S
C456 O450 1.261 . S
C457 O452 1.259 . S
C457 O454 1.235 . S
O458 Co448 2.021 . S
O458 C455 1.238 . S
O459 Co453 2.052 . S
O459 C455 1.241 . S
O460 Co448 2.137 . S
O460 C451 1.247 . S
O461 Co448 2.244 . S
O461 C451 1.272 . S
O461 Co453 2.135 . S
Co462 O463 2.216 . S
Co462 O464 2.091 . S
Co462 O466 2.004 . S
Co462 O472 2.021 . S
Co462 O474 2.137 . S
Co462 O475 2.244 . S
O463 Co462 2.216 . S
O463 C470 1.247 . S
O464 Co462 2.091 . S
O464 C470 1.261 . S
C465 O474 1.247 . S
C465 O475 1.272 . S
O466 Co462 2.004 . S
O466 C471 1.259 . S
Co467 O468 2.061 . S
Co467 O473 2.052 . S
Co467 O475 2.135 . S
O468 Co467 2.061 . S
O468 C471 1.235 . S
C469 O472 1.238 . S
C469 O473 1.241 . S
C470 O463 1.247 . S
C470 O464 1.261 . S
C471 O466 1.259 . S
C471 O468 1.235 . S
O472 Co462 2.021 . S
O472 C469 1.238 . S
O473 Co467 2.052 . S
O473 C469 1.241 . S
O474 Co462 2.137 . S
O474 C465 1.247 . S
O475 Co462 2.244 . S
O475 C465 1.272 . S
O475 Co467 2.135 . S
Co476 O477 2.216 . S
Co476 O478 2.091 . S
Co476 O480 2.004 . S
Co476 O486 2.021 . S
Co476 O488 2.137 . S
Co476 O489 2.244 . S
O477 Co476 2.216 . S
O477 C484 1.247 . S
O478 Co476 2.091 . S
O478 C484 1.261 . S
C479 O488 1.247 . S
C479 O489 1.272 . S
O480 Co476 2.004 . S
O480 C485 1.259 . S
Co481 O482 2.061 . S
Co481 O487 2.052 . S
Co481 O489 2.135 . S
O482 Co481 2.061 . S
O482 C485 1.235 . S
C483 O486 1.238 . S
C483 O487 1.241 . S
C484 O477 1.247 . S
C484 O478 1.261 . S
C485 O480 1.259 . S
C485 O482 1.235 . S
O486 Co476 2.021 . S
O486 C483 1.238 . S
O487 Co481 2.052 . S
O487 C483 1.241 . S
O488 Co476 2.137 . S
O488 C479 1.247 . S
O489 Co476 2.244 . S
O489 C479 1.272 . S
O489 Co481 2.135 . S
Co490 O491 2.216 . S
Co490 O492 2.091 . S
Co490 O494 2.004 . S
Co490 O500 2.021 . S
Co490 O502 2.137 . S
Co490 O503 2.244 . S
O491 Co490 2.216 . S
O491 C498 1.247 . S
O492 Co490 2.091 . S
O492 C498 1.261 . S
C493 O502 1.247 . S
C493 O503 1.272 . S
O494 Co490 2.004 . S
O494 C499 1.259 . S
Co495 O496 2.061 . S
Co495 O501 2.052 . S
Co495 O503 2.135 . S
O496 Co495 2.061 . S
O496 C499 1.235 . S
C497 O500 1.238 . S
C497 O501 1.241 . S
C498 O491 1.247 . S
C498 O492 1.261 . S
C499 O494 1.259 . S
C499 O496 1.235 . S
O500 Co490 2.021 . S
O500 C497 1.238 . S
O501 Co495 2.052 . S
O501 C497 1.241 . S
O502 Co490 2.137 . S
O502 C493 1.247 . S
O503 Co490 2.244 . S
O503 C493 1.272 . S
O503 Co495 2.135 . S
C504 C505 1.387 . S
C504 H508 0.950 . S
C504 C513 1.390 1_455 S
C505 C504 1.387 . S
C505 C507 1.387 . S
H506 C513 0.950 . S
C507 C505 1.387 . S
C507 C509 1.390 1_455 S
C507 H511 0.950 . S
H508 C504 0.950 . S
C509 C507 1.390 1_655 S
C509 C510 1.387 . S
C509 H512 0.950 . S
C510 C509 1.387 . S
C510 C513 1.387 . S
H511 C507 0.950 . S
H512 C509 0.950 . S
C513 C504 1.390 1_655 S
C513 H506 0.950 . S
C513 C510 1.387 . S
C514 C515 1.387 . S
C514 H518 0.950 . S
C514 C523 1.390 . S
C515 C514 1.387 . S
C515 C517 1.387 . S
H516 C523 0.950 . S
C517 C515 1.387 . S
C517 C519 1.390 . S
C517 H521 0.950 . S
H518 C514 0.950 . S
C519 C517 1.390 . S
C519 C520 1.387 . S
C519 H522 0.950 . S
C520 C519 1.387 . S
C520 C523 1.387 . S
H521 C517 0.950 . S
H522 C519 0.950 . S
C523 C514 1.390 . S
C523 H516 0.950 . S
C523 C520 1.387 . S
C524 C525 1.387 . S
C524 H528 0.950 . S
C524 C533 1.390 1_545 S
C525 C524 1.387 . S
C525 C527 1.387 . S
H526 C533 0.950 . S
C527 C525 1.387 . S
C527 C529 1.390 1_545 S
C527 H531 0.950 . S
H528 C524 0.950 . S
C529 C527 1.390 1_565 S
C529 C530 1.387 . S
C529 H532 0.950 . S
C530 C529 1.387 . S
C530 C533 1.387 . S
H531 C527 0.950 . S
H532 C529 0.950 . S
C533 C524 1.390 1_565 S
C533 H526 0.950 . S
C533 C530 1.387 . S
C534 C535 1.387 . S
C534 H538 0.950 . S
C534 C543 1.390 1_545 S
C535 C534 1.387 . S
C535 C537 1.387 . S
H536 C543 0.950 . S
C537 C535 1.387 . S
C537 C539 1.390 1_545 S
C537 H541 0.950 . S
H538 C534 0.950 . S
C539 C537 1.390 1_565 S
C539 C540 1.387 . S
C539 H542 0.950 . S
C540 C539 1.387 . S
C540 C543 1.387 . S
H541 C537 0.950 . S
H542 C539 0.950 . S
C543 C534 1.390 1_565 S
C543 H536 0.950 . S
C543 C540 1.387 . S
C544 C545 1.387 . S
C544 H548 0.950 . S
C544 C553 1.390 1_655 S
C545 C544 1.387 . S
C545 C547 1.387 . S
H546 C553 0.950 . S
C547 C545 1.387 . S
C547 C549 1.390 1_655 S
C547 H551 0.950 . S
H548 C544 0.950 . S
C549 C547 1.390 1_455 S
C549 C550 1.387 . S
C549 H552 0.950 . S
C550 C549 1.387 . S
C550 C553 1.387 . S
H551 C547 0.950 . S
H552 C549 0.950 . S
C553 C544 1.390 1_455 S
C553 H546 0.950 . S
C553 C550 1.387 . S
C554 C555 1.387 . S
C554 H558 0.950 . S
C554 C563 1.390 . S
C555 C554 1.387 . S
C555 C557 1.387 . S
H556 C563 0.950 . S
C557 C555 1.387 . S
C557 C559 1.390 . S
C557 H561 0.950 . S
H558 C554 0.950 . S
C559 C557 1.390 . S
C559 C560 1.387 . S
C559 H562 0.950 . S
C560 C559 1.387 . S
C560 C563 1.387 . S
H561 C557 0.950 . S
H562 C559 0.950 . S
C563 C554 1.390 . S
C563 H556 0.950 . S
C563 C560 1.387 . S
C564 C565 1.387 . S
C564 H568 0.950 . S
C564 C573 1.390 1_655 S
C565 C564 1.387 . S
C565 C567 1.387 . S
H566 C573 0.950 . S
C567 C565 1.387 . S
C567 C569 1.390 1_655 S
C567 H571 0.950 . S
H568 C564 0.950 . S
C569 C567 1.390 1_455 S
C569 C570 1.387 . S
C569 H572 0.950 . S
C570 C569 1.387 . S
C570 C573 1.387 . S
H571 C567 0.950 . S
H572 C569 0.950 . S
C573 C564 1.390 1_455 S
C573 H566 0.950 . S
C573 C570 1.387 . S
C574 C575 1.387 . S
C574 H578 0.950 . S
C574 C583 1.390 . S
C575 C574 1.387 . S
C575 C577 1.387 . S
H576 C583 0.950 . S
C577 C575 1.387 . S
C577 C579 1.390 . S
C577 H581 0.950 . S
H578 C574 0.950 . S
C579 C577 1.390 . S
C579 C580 1.387 . S
C579 H582 0.950 . S
C580 C579 1.387 . S
C580 C583 1.387 . S
H581 C577 0.950 . S
H582 C579 0.950 . S
C583 C574 1.390 . S
C583 H576 0.950 . S
C583 C580 1.387 . S
C584 C585 1.387 . S
C584 H588 0.950 . S
C584 C593 1.390 1_565 S
C585 C584 1.387 . S
C585 C587 1.387 . S
H586 C593 0.950 . S
C587 C585 1.387 . S
C587 C589 1.390 1_565 S
C587 H591 0.950 . S
H588 C584 0.950 . S
C589 C587 1.390 1_545 S
C589 C590 1.387 . S
C589 H592 0.950 . S
C590 C589 1.387 . S
C590 C593 1.387 . S
H591 C587 0.950 . S
H592 C589 0.950 . S
C593 C584 1.390 1_545 S
C593 H586 0.950 . S
C593 C590 1.387 . S
C594 C595 1.387 1_565 S
C594 H598 0.950 1_565 S
C594 C603 1.390 . S
C595 C594 1.387 1_545 S
C595 C597 1.387 . S
H596 C603 0.950 . S
C597 C595 1.387 . S
C597 C599 1.390 1_545 S
C597 H601 0.950 . S
H598 C594 0.950 1_545 S
C599 C597 1.390 1_565 S
C599 C600 1.387 . S
C599 H602 0.950 . S
C600 C599 1.387 . S
C600 C603 1.387 . S
H601 C597 0.950 . S
H602 C599 0.950 . S
C603 C594 1.390 . S
C603 H596 0.950 . S
C603 C600 1.387 . S
C604 C605 1.387 . S
C604 H608 0.950 . S
C604 C613 1.390 1_455 S
C605 C604 1.387 . S
C605 C607 1.387 . S
H606 C613 0.950 . S
C607 C605 1.387 . S
C607 C609 1.390 1_455 S
C607 H611 0.950 . S
H608 C604 0.950 . S
C609 C607 1.390 1_655 S
C609 C610 1.387 . S
C609 H612 0.950 . S
C610 C609 1.387 . S
C610 C613 1.387 . S
H611 C607 0.950 . S
H612 C609 0.950 . S
C613 C604 1.390 1_655 S
C613 H606 0.950 . S
C613 C610 1.387 . S
C614 C615 1.387 . S
C614 H618 0.950 . S
C614 C623 1.390 . S
C615 C614 1.387 . S
C615 C617 1.387 . S
H616 C623 0.950 . S
C617 C615 1.387 . S
C617 C619 1.390 . S
C617 H621 0.950 . S
H618 C614 0.950 . S
C619 C617 1.390 . S
C619 C620 1.387 . S
C619 H622 0.950 . S
C620 C619 1.387 . S
C620 C623 1.387 . S
H621 C617 0.950 . S
H622 C619 0.950 . S
C623 C614 1.390 . S
C623 H616 0.950 . S
C623 C620 1.387 . S
C624 C625 1.387 . S
C624 H628 0.950 . S
C624 C633 1.390 . S
C625 C624 1.387 . S
C625 C627 1.387 . S
H626 C633 0.950 . S
C627 C625 1.387 . S
C627 C629 1.390 . S
C627 H631 0.950 . S
H628 C624 0.950 . S
C629 C627 1.390 . S
C629 C630 1.387 . S
C629 H632 0.950 . S
C630 C629 1.387 . S
C630 C633 1.387 . S
H631 C627 0.950 . S
H632 C629 0.950 . S
C633 C624 1.390 . S
C633 H626 0.950 . S
C633 C630 1.387 . S
C634 C635 1.387 . S
C634 H638 0.950 . S
C634 C643 1.390 . S
C635 C634 1.387 . S
C635 C637 1.387 . S
H636 C643 0.950 . S
C637 C635 1.387 . S
C637 C639 1.390 . S
C637 H641 0.950 . S
H638 C634 0.950 . S
C639 C637 1.390 . S
C639 C640 1.387 . S
C639 H642 0.950 . S
C640 C639 1.387 . S
C640 C643 1.387 . S
H641 C637 0.950 . S
H642 C639 0.950 . S
C643 C634 1.390 . S
C643 H636 0.950 . S
C643 C640 1.387 . S
C644 C645 1.387 . S
C644 H648 0.950 . S
C644 C653 1.390 . S
C645 C644 1.387 . S
C645 C647 1.387 . S
H646 C653 0.950 . S
C647 C645 1.387 . S
C647 C649 1.390 . S
C647 H651 0.950 . S
H648 C644 0.950 . S
C649 C647 1.390 . S
C649 C650 1.387 . S
C649 H652 0.950 . S
C650 C649 1.387 . S
C650 C653 1.387 . S
H651 C647 0.950 . S
H652 C649 0.950 . S
C653 C644 1.390 . S
C653 H646 0.950 . S
C653 C650 1.387 . S
C654 C655 1.387 . S
C654 H658 0.950 . S
C654 C663 1.390 . S
C655 C654 1.387 . S
C655 C657 1.387 . S
H656 C663 0.950 . S
C657 C655 1.387 . S
C657 C659 1.390 . S
C657 H661 0.950 . S
H658 C654 0.950 . S
C659 C657 1.390 . S
C659 C660 1.387 . S
C659 H662 0.950 . S
C660 C659 1.387 . S
C660 C663 1.387 . S
H661 C657 0.950 . S
H662 C659 0.950 . S
C663 C654 1.390 . S
C663 H656 0.950 . S
C663 C660 1.387 . S
C664 C665 1.387 . S
C664 H668 0.950 . S
C664 C673 1.390 . S
C665 C664 1.387 . S
C665 C667 1.387 . S
H666 C673 0.950 . S
C667 C665 1.387 . S
C667 C669 1.390 . S
C667 H671 0.950 . S
H668 C664 0.950 . S
C669 C667 1.390 . S
C669 C670 1.387 . S
C669 H672 0.950 . S
C670 C669 1.387 . S
C670 C673 1.387 . S
H671 C667 0.950 . S
H672 C669 0.950 . S
C673 C664 1.390 . S
C673 H666 0.950 . S
C673 C670 1.387 . S
C674 C675 1.387 . S
C674 H678 0.950 . S
C674 C683 1.390 . S
C675 C674 1.387 . S
C675 C677 1.387 . S
H676 C683 0.950 . S
C677 C675 1.387 . S
C677 C679 1.390 . S
C677 H681 0.950 . S
H678 C674 0.950 . S
C679 C677 1.390 . S
C679 C680 1.387 . S
C679 H682 0.950 . S
C680 C679 1.387 . S
C680 C683 1.387 . S
H681 C677 0.950 . S
H682 C679 0.950 . S
C683 C674 1.390 . S
C683 H676 0.950 . S
C683 C680 1.387 . S
C684 C685 1.387 . S
C684 H688 0.950 . S
C684 C693 1.390 . S
C685 C684 1.387 . S
C685 C687 1.387 . S
H686 C693 0.950 . S
C687 C685 1.387 . S
C687 C689 1.390 . S
C687 H691 0.950 . S
H688 C684 0.950 . S
C689 C687 1.390 . S
C689 C690 1.387 . S
C689 H692 0.950 . S
C690 C689 1.387 . S
C690 C693 1.387 . S
H691 C687 0.950 . S
H692 C689 0.950 . S
C693 C684 1.390 . S
C693 H686 0.950 . S
C693 C690 1.387 . S
C694 C695 1.387 . S
C694 H698 0.950 . S
C694 C703 1.390 . S
C695 C694 1.387 . S
C695 C697 1.387 . S
H696 C703 0.950 . S
C697 C695 1.387 . S
C697 C699 1.390 . S
C697 H701 0.950 . S
H698 C694 0.950 . S
C699 C697 1.390 . S
C699 C700 1.387 . S
C699 H702 0.950 . S
C700 C699 1.387 . S
C700 C703 1.387 . S
H701 C697 0.950 . S
H702 C699 0.950 . S
C703 C694 1.390 . S
C703 H696 0.950 . S
C703 C700 1.387 . S
C704 C705 1.387 . S
C704 H708 0.950 . S
C704 C713 1.390 . S
C705 C704 1.387 . S
C705 C707 1.387 . S
H706 C713 0.950 . S
C707 C705 1.387 . S
C707 C709 1.390 . S
C707 H711 0.950 . S
H708 C704 0.950 . S
C709 C707 1.390 . S
C709 C710 1.387 . S
C709 H712 0.950 . S
C710 C709 1.387 . S
C710 C713 1.387 . S
H711 C707 0.950 . S
H712 C709 0.950 . S
C713 C704 1.390 . S
C713 H706 0.950 . S
C713 C710 1.387 . S
C714 C715 1.387 1_554 S
C714 H718 0.950 . S
C714 C723 1.390 . S
C715 C714 1.387 1_556 S
C715 C717 1.387 . S
H716 C723 0.950 . S
C717 C715 1.387 . S
C717 C719 1.390 . S
C717 H721 0.950 . S
H718 C714 0.950 . S
C719 C717 1.390 . S
C719 C720 1.387 . S
C719 H722 0.950 . S
C720 C719 1.387 . S
C720 C723 1.387 1_556 S
H721 C717 0.950 . S
H722 C719 0.950 . S
C723 C714 1.390 . S
C723 H716 0.950 . S
C723 C720 1.387 1_554 S
C724 C725 1.387 1_554 S
C724 H728 0.950 . S
C724 C733 1.390 . S
C725 C724 1.387 1_556 S
C725 C727 1.387 . S
H726 C733 0.950 . S
C727 C725 1.387 . S
C727 C729 1.390 . S
C727 H731 0.950 . S
H728 C724 0.950 . S
C729 C727 1.390 . S
C729 C730 1.387 . S
C729 H732 0.950 . S
C730 C729 1.387 . S
C730 C733 1.387 1_556 S
H731 C727 0.950 . S
H732 C729 0.950 . S
C733 C724 1.390 . S
C733 H726 0.950 . S
C733 C730 1.387 1_554 S
C734 C735 1.387 1_554 S
C734 H738 0.950 . S
C734 C743 1.390 . S
C735 C734 1.387 1_556 S
C735 C737 1.387 . S
H736 C743 0.950 . S
C737 C735 1.387 . S
C737 C739 1.390 . S
C737 H741 0.950 . S
H738 C734 0.950 . S
C739 C737 1.390 . S
C739 C740 1.387 . S
C739 H742 0.950 . S
C740 C739 1.387 . S
C740 C743 1.387 1_556 S
H741 C737 0.950 . S
H742 C739 0.950 . S
C743 C734 1.390 . S
C743 H736 0.950 . S
C743 C740 1.387 1_554 S
C744 C745 1.387 . S
C744 H748 0.950 . S
C744 C753 1.390 . S
C745 C744 1.387 . S
C745 C747 1.387 . S
H746 C753 0.950 . S
C747 C745 1.387 . S
C747 C749 1.390 . S
C747 H751 0.950 . S
H748 C744 0.950 . S
C749 C747 1.390 . S
C749 C750 1.387 . S
C749 H752 0.950 . S
C750 C749 1.387 . S
C750 C753 1.387 . S
H751 C747 0.950 . S
H752 C749 0.950 . S
C753 C744 1.390 . S
C753 H746 0.950 . S
C753 C750 1.387 . S
C754 C755 1.387 . S
C754 H758 0.950 . S
C754 C763 1.390 . S
C755 C754 1.387 . S
C755 C757 1.387 . S
H756 C763 0.950 . S
C757 C755 1.387 . S
C757 C759 1.390 . S
C757 H761 0.950 . S
H758 C754 0.950 . S
C759 C757 1.390 . S
C759 C760 1.387 . S
C759 H762 0.950 . S
C760 C759 1.387 . S
C760 C763 1.387 . S
H761 C757 0.950 . S
H762 C759 0.950 . S
C763 C754 1.390 . S
C763 H756 0.950 . S
C763 C760 1.387 . S
C764 C765 1.387 . S
C764 H768 0.950 . S
C764 C773 1.390 . S
C765 C764 1.387 . S
C765 C767 1.387 . S
H766 C773 0.950 . S
C767 C765 1.387 . S
C767 C769 1.390 . S
C767 H771 0.950 . S
H768 C764 0.950 . S
C769 C767 1.390 . S
C769 C770 1.387 . S
C769 H772 0.950 . S
C770 C769 1.387 . S
C770 C773 1.387 . S
H771 C767 0.950 . S
H772 C769 0.950 . S
C773 C764 1.390 . S
C773 H766 0.950 . S
C773 C770 1.387 . S
C774 C775 1.387 . S
C774 H778 0.950 . S
C774 C783 1.390 . S
C775 C774 1.387 . S
C775 C777 1.387 1_554 S
H776 C783 0.950 . S
C777 C775 1.387 1_556 S
C777 C779 1.390 . S
C777 H781 0.950 . S
H778 C774 0.950 . S
C779 C777 1.390 . S
C779 C780 1.387 1_556 S
C779 H782 0.950 . S
C780 C779 1.387 1_554 S
C780 C783 1.387 . S
H781 C777 0.950 . S
H782 C779 0.950 . S
C783 C774 1.390 . S
C783 H776 0.950 . S
C783 C780 1.387 . S
C784 C785 1.387 . S
C784 H788 0.950 . S
C784 C793 1.390 . S
C785 C784 1.387 . S
C785 C787 1.387 1_554 S
H786 C793 0.950 . S
C787 C785 1.387 1_556 S
C787 C789 1.390 . S
C787 H791 0.950 . S
H788 C784 0.950 . S
C789 C787 1.390 . S
C789 C790 1.387 1_556 S
C789 H792 0.950 . S
C790 C789 1.387 1_554 S
C790 C793 1.387 . S
H791 C787 0.950 . S
H792 C789 0.950 . S
C793 C784 1.390 . S
C793 H786 0.950 . S
C793 C790 1.387 . S
C794 C795 1.387 . S
C794 H798 0.950 . S
C794 C803 1.390 . S
C795 C794 1.387 . S
C795 C797 1.387 1_554 S
H796 C803 0.950 . S
C797 C795 1.387 1_556 S
C797 C799 1.390 . S
C797 H801 0.950 . S
H798 C794 0.950 . S
C799 C797 1.390 . S
C799 C800 1.387 1_556 S
C799 H802 0.950 . S
C800 C799 1.387 1_554 S
C800 C803 1.387 . S
H801 C797 0.950 . S
H802 C799 0.950 . S
C803 C794 1.390 . S
C803 H796 0.950 . S
C803 C800 1.387 . S
C804 C805 1.387 . S
C804 H808 0.950 . S
C804 C813 1.390 . S
C805 C804 1.387 . S
C805 C807 1.387 . S
H806 C813 0.950 . S
C807 C805 1.387 . S
C807 C809 1.390 . S
C807 H811 0.950 . S
H808 C804 0.950 . S
C809 C807 1.390 . S
C809 C810 1.387 . S
C809 H812 0.950 . S
C810 C809 1.387 . S
C810 C813 1.387 . S
H811 C807 0.950 . S
H812 C809 0.950 . S
C813 C804 1.390 . S
C813 H806 0.950 . S
C813 C810 1.387 . S
C814 C815 1.387 . S
C814 H818 0.950 . S
C814 C823 1.390 . S
C815 C814 1.387 . S
C815 C817 1.387 . S
H816 C823 0.950 . S
C817 C815 1.387 . S
C817 C819 1.390 . S
C817 H821 0.950 . S
H818 C814 0.950 . S
C819 C817 1.390 . S
C819 C820 1.387 . S
C819 H822 0.950 . S
C820 C819 1.387 . S
C820 C823 1.387 . S
H821 C817 0.950 . S
H822 C819 0.950 . S
C823 C814 1.390 . S
C823 H816 0.950 . S
C823 C820 1.387 . S
C824 C825 1.387 . S
C824 H828 0.950 . S
C824 C833 1.390 . S
C825 C824 1.387 . S
C825 C827 1.387 . S
H826 C833 0.950 . S
C827 C825 1.387 . S
C827 C829 1.390 . S
C827 H831 0.950 . S
H828 C824 0.950 . S
C829 C827 1.390 . S
C829 C830 1.387 . S
C829 H832 0.950 . S
C830 C829 1.387 . S
C830 C833 1.387 . S
H831 C827 0.950 . S
H832 C829 0.950 . S
C833 C824 1.390 . S
C833 H826 0.950 . S
C833 C830 1.387 . S
C834 C835 1.387 . S
C834 H838 0.950 . S
C834 C843 1.390 . S
C835 C834 1.387 . S
C835 C837 1.387 . S
H836 C843 0.950 . S
C837 C835 1.387 . S
C837 C839 1.390 . S
C837 H841 0.950 . S
H838 C834 0.950 . S
C839 C837 1.390 . S
C839 C840 1.387 . S
C839 H842 0.950 . S
C840 C839 1.387 . S
C840 C843 1.387 . S
H841 C837 0.950 . S
H842 C839 0.950 . S
C843 C834 1.390 . S
C843 H836 0.950 . S
C843 C840 1.387 . S
C844 C845 1.387 . S
C844 H848 0.950 . S
C844 C853 1.390 . S
C845 C844 1.387 . S
C845 C847 1.387 . S
H846 C853 0.950 . S
C847 C845 1.387 . S
C847 C849 1.390 . S
C847 H851 0.950 . S
H848 C844 0.950 . S
C849 C847 1.390 . S
C849 C850 1.387 . S
C849 H852 0.950 . S
C850 C849 1.387 . S
C850 C853 1.387 . S
H851 C847 0.950 . S
H852 C849 0.950 . S
C853 C844 1.390 . S
C853 H846 0.950 . S
C853 C850 1.387 . S
C854 C855 1.387 . S
C854 H858 0.950 . S
C854 C863 1.390 . S
C855 C854 1.387 . S
C855 C857 1.387 . S
H856 C863 0.950 . S
C857 C855 1.387 . S
C857 C859 1.390 . S
C857 H861 0.950 . S
H858 C854 0.950 . S
C859 C857 1.390 . S
C859 C860 1.387 . S
C859 H862 0.950 . S
C860 C859 1.387 . S
C860 C863 1.387 . S
H861 C857 0.950 . S
H862 C859 0.950 . S
C863 C854 1.390 . S
C863 H856 0.950 . S
C863 C860 1.387 . S
C864 C865 1.387 . S
C864 H868 0.950 . S
C864 C873 1.390 . S
C865 C864 1.387 . S
C865 C867 1.387 . S
H866 C873 0.950 . S
C867 C865 1.387 . S
C867 C869 1.390 . S
C867 H871 0.950 . S
H868 C864 0.950 . S
C869 C867 1.390 . S
C869 C870 1.387 . S
C869 H872 0.950 . S
C870 C869 1.387 . S
C870 C873 1.387 . S
H871 C867 0.950 . S
H872 C869 0.950 . S
C873 C864 1.390 . S
C873 H866 0.950 . S
C873 C870 1.387 . S
C874 C875 1.387 . S
C874 H878 0.950 . S
C874 C883 1.390 1_565 S
C875 C874 1.387 . S
C875 C877 1.387 . S
H876 C883 0.950 . S
C877 C875 1.387 . S
C877 C879 1.390 1_565 S
C877 H881 0.950 . S
H878 C874 0.950 . S
C879 C877 1.390 1_545 S
C879 C880 1.387 . S
C879 H882 0.950 . S
C880 C879 1.387 . S
C880 C883 1.387 . S
H881 C877 0.950 . S
H882 C879 0.950 . S
C883 C874 1.390 1_545 S
C883 H876 0.950 . S
C883 C880 1.387 . S
C884 C885 1.387 . S
C884 H888 0.950 . S
C884 C893 1.390 . S
C885 C884 1.387 . S
C885 C887 1.387 1_655 S
H886 C893 0.950 . S
C887 C885 1.387 1_455 S
C887 C889 1.390 . S
C887 H891 0.950 . S
H888 C884 0.950 . S
C889 C887 1.390 . S
C889 C890 1.387 . S
C889 H892 0.950 . S
C890 C889 1.387 . S
C890 C893 1.387 1_455 S
H891 C887 0.950 . S
H892 C889 0.950 . S
C893 C884 1.390 . S
C893 H886 0.950 . S
C893 C890 1.387 1_655 S
C894 C895 1.387 . S
C894 H898 0.950 . S
C894 C903 1.390 . S
C895 C894 1.387 . S
C895 C897 1.387 . S
H896 C903 0.950 . S
C897 C895 1.387 . S
C897 C899 1.390 . S
C897 H901 0.950 . S
H898 C894 0.950 . S
C899 C897 1.390 . S
C899 C900 1.387 . S
C899 H902 0.950 . S
C900 C899 1.387 . S
C900 C903 1.387 . S
H901 C897 0.950 . S
H902 C899 0.950 . S
C903 C894 1.390 . S
C903 H896 0.950 . S
C903 C900 1.387 . S
C904 C905 1.387 . S
C904 H908 0.950 . S
C904 C913 1.390 . S
C905 C904 1.387 . S
C905 C907 1.381 1_545 S
H906 C913 0.950 . S
C907 C905 1.381 1_565 S
C907 C909 1.391 . S
C907 H911 0.956 . S
H908 C904 0.950 . S
C909 C907 1.391 . S
C909 C910 1.387 . S
C909 H912 0.950 . S
C910 C909 1.387 . S
C910 C913 1.387 1_565 S
H911 C907 0.956 . S
H912 C909 0.950 . S
C913 C904 1.390 . S
C913 H906 0.950 . S
C913 C910 1.387 1_545 S
C914 C915 1.387 . S
C914 H918 0.950 . S
C914 C923 1.390 . S
C915 C914 1.387 . S
C915 C917 1.387 1_455 S
H916 C923 0.950 . S
C917 C915 1.387 1_655 S
C917 C919 1.390 . S
C917 H921 0.950 . S
H918 C914 0.950 . S
C919 C917 1.390 . S
C919 C920 1.387 . S
C919 H922 0.950 . S
C920 C919 1.387 . S
C920 C923 1.387 1_655 S
H921 C917 0.950 . S
H922 C919 0.950 . S
C923 C914 1.390 . S
C923 H916 0.950 . S
C923 C920 1.387 1_455 S
C924 C925 1.387 . S
C924 H928 0.950 . S
C924 C933 1.390 . S
C925 C924 1.387 . S
C925 C927 1.387 . S
H926 C933 0.950 . S
C927 C925 1.387 . S
C927 C929 1.390 . S
C927 H931 0.950 . S
H928 C924 0.950 . S
C929 C927 1.390 . S
C929 C930 1.387 . S
C929 H932 0.950 . S
C930 C929 1.387 . S
C930 C933 1.387 . S
H931 C927 0.950 . S
H932 C929 0.950 . S
C933 C924 1.390 . S
C933 H926 0.950 . S
C933 C930 1.387 . S
C934 C935 1.387 . S
C934 H938 0.950 . S
C934 C943 1.390 . S
C935 C934 1.387 . S
C935 C937 1.387 . S
H936 C943 0.950 . S
C937 C935 1.387 . S
C937 C939 1.390 . S
C937 H941 0.950 . S
H938 C934 0.950 . S
C939 C937 1.390 . S
C939 C940 1.387 . S
C939 H942 0.950 . S
C940 C939 1.387 . S
C940 C943 1.387 . S
H941 C937 0.950 . S
H942 C939 0.950 . S
C943 C934 1.390 . S
C943 H936 0.950 . S
C943 C940 1.387 . S
C944 C945 1.387 . S
C944 H948 0.950 . S
C944 C953 1.390 . S
C945 C944 1.387 . S
C945 C947 1.387 . S
H946 C953 0.950 . S
C947 C945 1.387 . S
C947 C949 1.390 . S
C947 H951 0.950 . S
H948 C944 0.950 . S
C949 C947 1.390 . S
C949 C950 1.387 . S
C949 H952 0.950 . S
C950 C949 1.387 . S
C950 C953 1.387 . S
H951 C947 0.950 . S
H952 C949 0.950 . S
C953 C944 1.390 . S
C953 H946 0.950 . S
C953 C950 1.387 . S
C954 C955 1.387 . S
C954 H958 0.950 . S
C954 C963 1.390 . S
C955 C954 1.387 . S
C955 C957 1.387 . S
H956 C963 0.950 . S
C957 C955 1.387 . S
C957 C959 1.390 . S
C957 H961 0.950 . S
H958 C954 0.950 . S
C959 C957 1.390 . S
C959 C960 1.387 . S
C959 H962 0.950 . S
C960 C959 1.387 . S
C960 C963 1.387 . S
H961 C957 0.950 . S
H962 C959 0.950 . S
C963 C954 1.390 . S
C963 H956 0.950 . S
C963 C960 1.387 . S
C964 C965 1.387 . S
C964 H968 0.950 . S
C964 C973 1.390 . S
C965 C964 1.387 . S
C965 C967 1.387 . S
H966 C973 0.950 . S
C967 C965 1.387 . S
C967 C969 1.390 . S
C967 H971 0.950 . S
H968 C964 0.950 . S
C969 C967 1.390 . S
C969 C970 1.387 . S
C969 H972 0.950 . S
C970 C969 1.387 . S
C970 C973 1.387 . S
H971 C967 0.950 . S
H972 C969 0.950 . S
C973 C964 1.390 . S
C973 H966 0.950 . S
C973 C970 1.387 . S
C974 C975 1.387 . S
C974 H978 0.950 . S
C974 C983 1.390 . S
C975 C974 1.387 . S
C975 C977 1.387 . S
H976 C983 0.950 . S
C977 C975 1.387 . S
C977 C979 1.390 . S
C977 H981 0.950 . S
H978 C974 0.950 . S
C979 C977 1.390 . S
C979 C980 1.387 . S
C979 H982 0.950 . S
C980 C979 1.387 . S
C980 C983 1.387 . S
H981 C977 0.950 . S
H982 C979 0.950 . S
C983 C974 1.390 . S
C983 H976 0.950 . S
C983 C980 1.387 . S
C984 C985 1.387 . S
C984 H988 0.950 . S
C984 C993 1.390 . S
C985 C984 1.387 . S
C985 C987 1.387 . S
H986 C993 0.950 . S
C987 C985 1.387 . S
C987 C989 1.390 . S
C987 H991 0.950 . S
H988 C984 0.950 . S
C989 C987 1.390 . S
C989 C990 1.387 . S
C989 H992 0.950 . S
C990 C989 1.387 . S
C990 C993 1.387 . S
H991 C987 0.950 . S
H992 C989 0.950 . S
C993 C984 1.390 . S
C993 H986 0.950 . S
C993 C990 1.387 . S
C994 C995 1.387 . S
C994 H998 0.950 . S
C994 C1003 1.390 . S
C995 C994 1.387 . S
C995 C997 1.387 . S
H996 C1003 0.950 . S
C997 C995 1.387 . S
C997 C999 1.390 . S
C997 H1001 0.950 . S
H998 C994 0.950 . S
C999 C997 1.390 . S
C999 C1000 1.387 . S
C999 H1002 0.950 . S
C1000 C999 1.387 . S
C1000 C1003 1.387 . S
H1001 C997 0.950 . S
H1002 C999 0.950 . S
C1003 C994 1.390 . S
C1003 H996 0.950 . S
C1003 C1000 1.387 . S
C1004 C1005 1.387 . S
C1004 H1008 0.950 . S
C1004 C1013 1.390 . S
C1005 C1004 1.387 . S
C1005 C1007 1.387 . S
H1006 C1013 0.950 . S
C1007 C1005 1.387 . S
C1007 C1009 1.390 . S
C1007 H1011 0.950 . S
H1008 C1004 0.950 . S
C1009 C1007 1.390 . S
C1009 C1010 1.387 . S
C1009 H1012 0.950 . S
C1010 C1009 1.387 . S
C1010 C1013 1.387 . S
H1011 C1007 0.950 . S
H1012 C1009 0.950 . S
C1013 C1004 1.390 . S
C1013 H1006 0.950 . S
C1013 C1010 1.387 . S
C1014 C1015 1.387 . S
C1014 H1018 0.950 . S
C1014 C1023 1.390 . S
C1015 C1014 1.387 . S
C1015 C1017 1.387 . S
H1016 C1023 0.950 . S
C1017 C1015 1.387 . S
C1017 C1019 1.390 . S
C1017 H1021 0.950 . S
H1018 C1014 0.950 . S
C1019 C1017 1.390 . S
C1019 C1020 1.387 . S
C1019 H1022 0.950 . S
C1020 C1019 1.387 . S
C1020 C1023 1.387 . S
H1021 C1017 0.950 . S
H1022 C1019 0.950 . S
C1023 C1014 1.390 . S
C1023 H1016 0.950 . S
C1023 C1020 1.387 . S
C1024 C1025 1.387 . S
C1024 H1028 0.950 . S
C1024 C1033 1.390 . S
C1025 C1024 1.387 . S
C1025 C1027 1.387 . S
H1026 C1033 0.950 . S
C1027 C1025 1.387 . S
C1027 C1029 1.390 . S
C1027 H1031 0.950 . S
H1028 C1024 0.950 . S
C1029 C1027 1.390 . S
C1029 C1030 1.387 . S
C1029 H1032 0.950 . S
C1030 C1029 1.387 . S
C1030 C1033 1.387 . S
H1031 C1027 0.950 . S
H1032 C1029 0.950 . S
C1033 C1024 1.390 . S
C1033 H1026 0.950 . S
C1033 C1030 1.387 . S
C1034 C1035 1.387 . S
C1034 H1038 0.950 . S
C1034 C1043 1.390 . S
C1035 C1034 1.387 . S
C1035 C1037 1.387 . S
H1036 C1043 0.950 . S
C1037 C1035 1.387 . S
C1037 C1039 1.390 . S
C1037 H1041 0.950 . S
H1038 C1034 0.950 . S
C1039 C1037 1.390 . S
C1039 C1040 1.387 . S
C1039 H1042 0.950 . S
C1040 C1039 1.387 . S
C1040 C1043 1.387 . S
H1041 C1037 0.950 . S
H1042 C1039 0.950 . S
C1043 C1034 1.390 . S
C1043 H1036 0.950 . S
C1043 C1040 1.387 . S
C1044 C1045 1.387 . S
C1044 H1048 0.950 . S
C1044 C1053 1.390 . S
C1045 C1044 1.387 . S
C1045 C1047 1.387 . S
H1046 C1053 0.950 . S
C1047 C1045 1.387 . S
C1047 C1049 1.390 . S
C1047 H1051 0.950 . S
H1048 C1044 0.950 . S
C1049 C1047 1.390 . S
C1049 C1050 1.387 . S
C1049 H1052 0.950 . S
C1050 C1049 1.387 . S
C1050 C1053 1.387 . S
H1051 C1047 0.950 . S
H1052 C1049 0.950 . S
C1053 C1044 1.390 . S
C1053 H1046 0.950 . S
C1053 C1050 1.387 . S
C1054 C1055 1.387 . S
C1054 H1058 0.950 . S
C1054 C1063 1.390 . S
C1055 C1054 1.387 . S
C1055 C1057 1.387 . S
H1056 C1063 0.950 . S
C1057 C1055 1.387 . S
C1057 C1059 1.390 . S
C1057 H1061 0.950 . S
H1058 C1054 0.950 . S
C1059 C1057 1.390 . S
C1059 C1060 1.387 . S
C1059 H1062 0.950 . S
C1060 C1059 1.387 . S
C1060 C1063 1.387 . S
H1061 C1057 0.950 . S
H1062 C1059 0.950 . S
C1063 C1054 1.390 . S
C1063 H1056 0.950 . S
C1063 C1060 1.387 . S
C1064 C1065 1.387 . S
C1064 H1068 0.950 . S
C1064 C1073 1.390 . S
C1065 C1064 1.387 . S
C1065 C1067 1.387 . S
H1066 C1073 0.950 . S
C1067 C1065 1.387 . S
C1067 C1069 1.390 . S
C1067 H1071 0.950 . S
H1068 C1064 0.950 . S
C1069 C1067 1.390 . S
C1069 C1070 1.387 . S
C1069 H1072 0.950 . S
C1070 C1069 1.387 . S
C1070 C1073 1.387 . S
H1071 C1067 0.950 . S
H1072 C1069 0.950 . S
C1073 C1064 1.390 . S
C1073 H1066 0.950 . S
C1073 C1070 1.387 . S
C1074 C1075 1.387 . S
C1074 H1078 0.950 . S
C1074 C1083 1.390 . S
C1075 C1074 1.387 . S
C1075 C1077 1.387 . S
H1076 C1083 0.950 . S
C1077 C1075 1.387 . S
C1077 C1079 1.390 . S
C1077 H1081 0.950 . S
H1078 C1074 0.950 . S
C1079 C1077 1.390 . S
C1079 C1080 1.387 . S
C1079 H1082 0.950 . S
C1080 C1079 1.387 . S
C1080 C1083 1.387 . S
H1081 C1077 0.950 . S
H1082 C1079 0.950 . S
C1083 C1074 1.390 . S
C1083 H1076 0.950 . S
C1083 C1080 1.387 . S
C1084 C1085 1.387 . S
C1084 H1088 0.950 . S
C1084 C1093 1.390 . S
C1085 C1084 1.387 . S
C1085 C1087 1.387 . S
H1086 C1093 0.950 . S
C1087 C1085 1.387 . S
C1087 C1089 1.390 . S
C1087 H1091 0.950 . S
H1088 C1084 0.950 . S
C1089 C1087 1.390 . S
C1089 C1090 1.387 . S
C1089 H1092 0.950 . S
C1090 C1089 1.387 . S
C1090 C1093 1.387 . S
H1091 C1087 0.950 . S
H1092 C1089 0.950 . S
C1093 C1084 1.390 . S
C1093 H1086 0.950 . S
C1093 C1090 1.387 . S
C1094 C1095 1.387 . S
C1094 H1098 0.950 . S
C1094 C1103 1.390 . S
C1095 C1094 1.387 . S
C1095 C1097 1.387 . S
H1096 C1103 0.950 . S
C1097 C1095 1.387 . S
C1097 C1099 1.390 . S
C1097 H1101 0.950 . S
H1098 C1094 0.950 . S
C1099 C1097 1.390 . S
C1099 C1100 1.387 . S
C1099 H1102 0.950 . S
C1100 C1099 1.387 . S
C1100 C1103 1.387 . S
H1101 C1097 0.950 . S
H1102 C1099 0.950 . S
C1103 C1094 1.390 . S
C1103 H1096 0.950 . S
C1103 C1100 1.387 . S
C1104 C1105 1.387 . S
C1104 H1108 0.950 . S
C1104 C1113 1.390 . S
C1105 C1104 1.387 . S
C1105 C1107 1.387 . S
H1106 C1113 0.950 . S
C1107 C1105 1.387 . S
C1107 C1109 1.390 . S
C1107 H1111 0.950 . S
H1108 C1104 0.950 . S
C1109 C1107 1.390 . S
C1109 C1110 1.387 . S
C1109 H1112 0.950 . S
C1110 C1109 1.387 . S
C1110 C1113 1.387 . S
H1111 C1107 0.950 . S
H1112 C1109 0.950 . S
C1113 C1104 1.390 . S
C1113 H1106 0.950 . S
C1113 C1110 1.387 . S
C1114 C1115 1.387 . S
C1114 H1118 0.950 . S
C1114 C1123 1.390 . S
C1115 C1114 1.387 . S
C1115 C1117 1.387 . S
H1116 C1123 0.950 . S
C1117 C1115 1.387 . S
C1117 C1119 1.390 . S
C1117 H1121 0.950 . S
H1118 C1114 0.950 . S
C1119 C1117 1.390 . S
C1119 C1120 1.387 . S
C1119 H1122 0.950 . S
C1120 C1119 1.387 . S
C1120 C1123 1.387 . S
H1121 C1117 0.950 . S
H1122 C1119 0.950 . S
C1123 C1114 1.390 . S
C1123 H1116 0.950 . S
C1123 C1120 1.387 . S
C1124 C1125 1.387 . S
C1124 H1128 0.950 . S
C1124 C1133 1.390 . S
C1125 C1124 1.387 . S
C1125 C1127 1.387 . S
H1126 C1133 0.950 . S
C1127 C1125 1.387 . S
C1127 C1129 1.390 . S
C1127 H1131 0.950 . S
H1128 C1124 0.950 . S
C1129 C1127 1.390 . S
C1129 C1130 1.387 . S
C1129 H1132 0.950 . S
C1130 C1129 1.387 . S
C1130 C1133 1.387 . S
H1131 C1127 0.950 . S
H1132 C1129 0.950 . S
C1133 C1124 1.390 . S
C1133 H1126 0.950 . S
C1133 C1130 1.387 . S
C1134 C1135 1.387 . S
C1134 H1138 0.950 . S
C1134 C1143 1.390 . S
C1135 C1134 1.387 . S
C1135 C1137 1.387 . S
H1136 C1143 0.950 . S
C1137 C1135 1.387 . S
C1137 C1139 1.390 . S
C1137 H1141 0.950 . S
H1138 C1134 0.950 . S
C1139 C1137 1.390 . S
C1139 C1140 1.387 . S
C1139 H1142 0.950 . S
C1140 C1139 1.387 . S
C1140 C1143 1.387 . S
H1141 C1137 0.950 . S
H1142 C1139 0.950 . S
C1143 C1134 1.390 . S
C1143 H1136 0.950 . S
C1143 C1140 1.387 . S
C1144 C1145 1.387 . S
C1144 H1148 0.950 . S
C1144 C1153 1.390 . S
C1145 C1144 1.387 . S
C1145 C1147 1.387 . S
H1146 C1153 0.950 . S
C1147 C1145 1.387 . S
C1147 C1149 1.390 . S
C1147 H1151 0.950 . S
H1148 C1144 0.950 . S
C1149 C1147 1.390 . S
C1149 C1150 1.387 . S
C1149 H1152 0.950 . S
C1150 C1149 1.387 . S
C1150 C1153 1.387 . S
H1151 C1147 0.950 . S
H1152 C1149 0.950 . S
C1153 C1144 1.390 . S
C1153 H1146 0.950 . S
C1153 C1150 1.387 . S
C1154 C1155 1.387 . S
C1154 H1158 0.950 . S
C1154 C1163 1.390 . S
C1155 C1154 1.387 . S
C1155 C1157 1.387 . S
H1156 C1163 0.950 . S
C1157 C1155 1.387 . S
C1157 C1159 1.390 . S
C1157 H1161 0.950 . S
H1158 C1154 0.950 . S
C1159 C1157 1.390 . S
C1159 C1160 1.387 . S
C1159 H1162 0.950 . S
C1160 C1159 1.387 . S
C1160 C1163 1.387 . S
H1161 C1157 0.950 . S
H1162 C1159 0.950 . S
C1163 C1154 1.390 . S
C1163 H1156 0.950 . S
C1163 C1160 1.387 . S
C1164 C1165 1.387 . S
C1164 H1168 0.950 . S
C1164 C1173 1.390 1_455 S
C1165 C1164 1.387 . S
C1165 C1167 1.387 . S
H1166 C1173 0.950 . S
C1167 C1165 1.387 . S
C1167 C1169 1.390 1_455 S
C1167 H1171 0.950 . S
H1168 C1164 0.950 . S
C1169 C1167 1.390 1_655 S
C1169 C1170 1.387 . S
C1169 H1172 0.950 . S
C1170 C1169 1.387 . S
C1170 C1173 1.387 . S
H1171 C1167 0.950 . S
H1172 C1169 0.950 . S
C1173 C1164 1.390 1_655 S
C1173 H1166 0.950 . S
C1173 C1170 1.387 . S
C1174 C1175 1.387 . S
C1174 H1178 0.950 . S
C1174 C1183 1.390 . S
C1175 C1174 1.387 . S
C1175 C1177 1.387 . S
H1176 C1183 0.950 . S
C1177 C1175 1.387 . S
C1177 C1179 1.390 . S
C1177 H1181 0.950 . S
H1178 C1174 0.950 . S
C1179 C1177 1.390 . S
C1179 C1180 1.387 . S
C1179 H1182 0.950 . S
C1180 C1179 1.387 . S
C1180 C1183 1.387 . S
H1181 C1177 0.950 . S
H1182 C1179 0.950 . S
C1183 C1174 1.390 . S
C1183 H1176 0.950 . S
C1183 C1180 1.387 . S
C1184 C1185 1.387 1_565 S
C1184 H1188 0.950 . S
C1184 C1193 1.390 . S
C1185 C1184 1.387 1_545 S
C1185 C1187 1.387 . S
H1186 C1193 0.950 . S
C1187 C1185 1.387 . S
C1187 C1189 1.390 . S
C1187 H1191 0.950 . S
H1188 C1184 0.950 . S
C1189 C1187 1.390 . S
C1189 C1190 1.387 1_545 S
C1189 H1192 0.950 . S
C1190 C1189 1.387 1_565 S
C1190 C1193 1.387 . S
H1191 C1187 0.950 . S
H1192 C1189 0.950 . S
C1193 C1184 1.390 . S
C1193 H1186 0.950 . S
C1193 C1190 1.387 . S
C1194 C1195 1.387 . S
C1194 H1198 0.950 . S
C1194 C1203 1.390 1_545 S
C1195 C1194 1.387 . S
C1195 C1197 1.387 1_556 S
H1196 C1203 0.950 . S
C1197 C1195 1.387 1_554 S
C1197 C1199 1.390 1_545 S
C1197 H1201 0.950 . S
H1198 C1194 0.950 . S
C1199 C1197 1.390 1_565 S
C1199 C1200 1.387 . S
C1199 H1202 0.950 . S
C1200 C1199 1.387 . S
C1200 C1203 1.387 1_554 S
H1201 C1197 0.950 . S
H1202 C1199 0.950 . S
C1203 C1194 1.390 1_565 S
C1203 H1196 0.950 . S
C1203 C1200 1.387 1_556 S
C1204 C1205 1.387 1_554 S
C1204 H1208 0.950 . S
C1204 C1213 1.390 . S
C1205 C1204 1.387 1_556 S
C1205 C1207 1.387 1_655 S
H1206 C1213 0.950 . S
C1207 C1205 1.387 1_455 S
C1207 C1209 1.390 . S
C1207 H1211 0.950 . S
H1208 C1204 0.950 . S
C1209 C1207 1.390 . S
C1209 C1210 1.387 1_556 S
C1209 H1212 0.950 . S
C1210 C1209 1.387 1_554 S
C1210 C1213 1.387 1_455 S
H1211 C1207 0.950 . S
H1212 C1209 0.950 . S
C1213 C1204 1.390 . S
C1213 H1206 0.950 . S
C1213 C1210 1.387 1_655 S
C1214 C1215 1.387 . S
C1214 H1218 0.950 . S
C1214 C1223 1.390 . S
C1215 C1214 1.387 . S
C1215 C1217 1.387 1_554 S
H1216 C1223 0.950 . S
C1217 C1215 1.387 1_556 S
C1217 C1219 1.390 . S
C1217 H1221 0.950 . S
H1218 C1214 0.950 . S
C1219 C1217 1.390 . S
C1219 C1220 1.387 . S
C1219 H1222 0.950 . S
C1220 C1219 1.387 . S
C1220 C1223 1.387 1_556 S
H1221 C1217 0.950 . S
H1222 C1219 0.950 . S
C1223 C1214 1.390 . S
C1223 H1216 0.950 . S
C1223 C1220 1.387 1_554 S
C505 C9 1.280 . S
C510 C21 1.453 . S
C515 C23 1.274 . S
C520 C35 1.454 . S
C525 C7 1.454 . S
C530 C37 1.274 . S
C535 C51 1.279 . S
C540 C77 1.453 . S
C545 C65 1.279 . S
C550 C49 1.452 . S
C555 C63 1.454 . S
C560 C79 1.274 . S
C565 C93 1.267 . S
C570 C101 1.516 . S
C575 C115 1.516 . S
C580 C107 1.272 . S
C585 C87 1.516 . S
C590 C121 1.272 . S
C595 C157 1.516 . S
C600 C135 1.269 . S
C605 C149 1.266 . S
C610 C129 1.515 . S
C615 C163 1.272 . S
C620 C143 1.516 . S
C625 C189 1.454 . S
C630 C177 1.274 . S
C635 C191 1.279 . S
C640 C203 1.453 . S
C645 C205 1.274 . S
C650 C175 1.454 . S
C655 C219 1.277 . S
C660 C245 1.454 . S
C665 C233 1.274 . S
C670 C217 1.454 . S
C675 C247 1.279 . S
C680 C231 1.453 . S
C685 C269 1.516 . S
C690 C261 1.266 . S
C695 C275 1.272 . S
C700 C283 1.516 . S
C705 C255 1.516 . S
C710 C289 1.272 . S
C715 C325 1.520 . S
C720 C303 1.269 1_556 S
C725 C317 1.268 1_556 S
C730 C297 1.520 . S
C735 C311 1.520 . S
C740 C331 1.268 1_556 S
C745 C357 1.453 . S
C750 C345 1.279 . S
C755 C359 1.274 . S
C760 C371 1.454 . S
C765 C373 1.274 . S
C770 C343 1.454 . S
C775 C413 1.453 1_554 S
C780 C387 1.279 1_554 S
C785 C401 1.279 1_554 S
C790 C385 1.452 1_554 S
C795 C399 1.452 1_554 S
C800 C415 1.279 1_554 S
C805 C429 1.266 . S
C810 C437 1.516 . S
C815 C443 1.266 . S
C820 C451 1.515 . S
C825 C457 1.266 . S
C830 C423 1.515 . S
C835 C493 1.516 . S
C840 C471 1.267 . S
C845 C465 1.515 . S
C850 C485 1.266 . S
C855 C499 1.266 . S
C860 C479 1.516 . S
C865 C45 1.724 . S
C870 C3 1.725 . S
C875 C17 1.724 . S
C880 C59 1.724 . S
C885 C73 1.724 . S
C890 C31 1.724 . S
C895 C133 1.637 . S
C900 C91 1.637 . S
C905 C105 1.637 . S
C910 C147 1.637 . S
C915 C161 1.637 . S
C920 C119 1.638 . S
C925 C171 1.726 . S
C930 C213 1.726 . S
C935 C185 1.724 . S
C940 C227 1.724 . S
C945 C199 1.726 . S
C950 C241 1.726 . S
C955 C301 1.636 . S
C960 C259 1.638 . S
C965 C315 1.637 . S
C970 C273 1.637 . S
C975 C287 1.636 . S
C980 C329 1.638 . S
C985 C381 1.724 . S
C990 C339 1.725 . S
C995 C395 1.725 . S
C1000 C353 1.725 . S
C1005 C367 1.724 . S
C1010 C409 1.724 . S
C1015 C427 1.637 . S
C1020 C469 1.638 . S
C1025 C483 1.637 . S
C1030 C441 1.637 . S
C1035 C455 1.636 . S
C1040 C497 1.638 . S
C1045 C8 1.784 . S
C1050 C260 1.767 . S
C1055 C22 1.786 . S
C1060 C274 1.769 . S
C1065 C36 1.783 . S
C1070 C288 1.766 . S
C1075 C470 1.767 . S
C1080 C50 1.784 . S
C1085 C484 1.765 . S
C1090 C64 1.782 . S
C1095 C78 1.783 . S
C1100 C498 1.766 . S
C1105 C92 1.767 . S
C1110 C344 1.784 . S
C1115 C358 1.787 . S
C1120 C106 1.770 . S
C1125 C372 1.784 . S
C1130 C120 1.767 . S
C1135 C218 1.787 . S
C1140 C134 1.770 . S
C1145 C232 1.784 . S
C1150 C148 1.766 . S
C1155 C246 1.787 . S
C1160 C162 1.770 . S
C1165 C428 1.767 . S
C1170 C176 1.784 . S
C1175 C190 1.784 . S
C1180 C442 1.766 . S
C1185 C204 1.784 . S
C1190 C456 1.766 . S
C1195 C302 1.770 . S
C1200 C386 1.787 . S
C1205 C316 1.767 . S
C1210 C400 1.784 . S
C1215 C414 1.783 . S
C1220 C330 1.766 . S
