# Generated by pormake.
# Topology sxa, (6)-cn, num edge types: 1
# Building blocks:
#     Node 0, Type 0, BuildingBlock: PAMTUU_clean_sbu_0, # of connection points: 6
#     Node 1, Type 0, BuildingBlock: PAMTUU_clean_sbu_0, # of connection points: 6
#     Node 2, Type 0, BuildingBlock: PAMTUU_clean_sbu_0, # of connection points: 6
#     Node 3, Type 0, BuildingBlock: PAMTUU_clean_sbu_0, # of connection points: 6
#     Edge 4, Type (0, 0), BuildingBlock: FUNLAD_clean_linker_0, # of connection points: 2
#     Edge 5, Type (0, 0), BuildingBlock: FUNLAD_clean_linker_0, # of connection points: 2
#     Edge 6, Type (0, 0), BuildingBlock: FUNLAD_clean_linker_0, # of connection points: 2
#     Edge 7, Type (0, 0), BuildingBlock: FUNLAD_clean_linker_0, # of connection points: 2
#     Edge 8, Type (0, 0), BuildingBlock: FUNLAD_clean_linker_0, # of connection points: 2
#     Edge 9, Type (0, 0), BuildingBlock: FUNLAD_clean_linker_0, # of connection points: 2
#     Edge 10, Type (0, 0), BuildingBlock: FUNLAD_clean_linker_0, # of connection points: 2
#     Edge 11, Type (0, 0), BuildingBlock: FUNLAD_clean_linker_0, # of connection points: 2
#     Edge 12, Type (0, 0), BuildingBlock: FUNLAD_clean_linker_0, # of connection points: 2
#     Edge 13, Type (0, 0), BuildingBlock: FUNLAD_clean_linker_0, # of connection points: 2
#     Edge 14, Type (0, 0), BuildingBlock: FUNLAD_clean_linker_0, # of connection points: 2
#     Edge 15, Type (0, 0), BuildingBlock: FUNLAD_clean_linker_0, # of connection points: 2
# Relax obj value: 0.191
# Max RMSD: 0.266
# Mean RMSD: 0.266
data_MOF--net-sxa--node1-PAMTUU_clean_sbu_0--edge1-FUNLAD_clean_linker_0
_symmetry_space_group_name_H-M    P1
_symmetry_Int_Tables_number       1
_symmetry_cell_setting            triclinic
loop_
_symmetry_equiv_pos_as_xyz
'x, y, z'
_cell_length_a     40.186055
_cell_length_b     31.752649
_cell_length_c     18.08742
_cell_angle_alpha  93.14381
_cell_angle_beta   58.079693
_cell_angle_gamma 99.819534
loop_
_atom_site_label
_atom_site_type_symbol
_atom_site_fract_x
_atom_site_fract_y
_atom_site_fract_z
_atom_type_partial_charge
Tb0 Tb 0.062 0.76941 0.12905 0.0
Tb1 Tb 0.07124 0.78605 0.29874 0.0
C2 C 0.05436 0.6963 0.23505 0.0
C3 C 0.021 0.72917 0.99289 0.0
C4 C 0.95339 0.69161 0.98809 0.0
C5 C 0.96491 0.67171 0.03674 0.0
C6 C 0.99826 0.69045 0.0396 0.0
C7 C 1.01065 0.74813 0.9414 0.0
C8 C 0.9771 0.72966 0.93921 0.0
C9 C 0.05381 0.75169 1.00165 0.0
O10 O 1.00414 0.78335 0.23377 0.0
O11 O 1.00708 0.77531 0.35675 0.0
O12 O 0.05975 0.84557 0.26494 0.0
O13 O 0.08948 0.83497 0.11875 0.0
O14 O 0.06592 0.76056 0.41057 0.0
O15 O 0.09286 0.82598 0.36611 0.0
O16 O 0.12946 0.80358 0.18483 0.0
O17 O 0.12184 0.75948 0.08873 0.0
O18 O 0.03247 0.71502 0.21878 0.0
O19 O 0.07955 0.72057 0.25151 0.0
C20 C 0.98713 0.77977 0.31934 0.0
O21 O 0.04794 0.78799 0.04047 0.0
O22 O 0.06978 0.72855 1.02812 0.0
C23 C 0.07608 0.86047 0.18405 0.0
C24 C 0.11848 0.79051 0.43247 0.0
C25 C 0.18177 0.78484 0.45795 0.0
C26 C 0.14468 0.79304 0.52768 0.0
C27 C 0.11353 0.79581 0.51503 0.0
C28 C 0.15522 0.78204 0.36252 0.0
C29 C 0.18648 0.77922 0.37508 0.0
C30 C 0.08549 0.79537 0.42043 0.0
C31 C 0.1445 0.78239 0.11343 0.0
H32 H 0.94768 0.64212 0.07417 0.0
H33 H 1.0056 0.67517 0.08005 0.0
H34 H 0.02774 0.77808 0.90523 0.0
H35 H 0.96883 0.74634 0.90223 0.0
H36 H 0.13984 0.79829 0.59206 0.0
H37 H 0.08558 0.80266 0.56986 0.0
H38 H 0.15981 0.77783 0.29808 0.0
H39 H 0.21426 0.77234 0.31981 0.0
Tb40 Tb 0.60168 0.30443 0.0714 0.0
Tb41 Tb 0.59732 0.2953 0.25709 0.0
C42 C 0.59533 0.21481 0.1443 0.0
C43 C 0.58092 0.34582 0.91867 0.0
C44 C 0.52496 0.38788 0.91715 0.0
C45 C 0.53822 0.35274 0.86452 0.0
C46 C 0.56598 0.3319 0.86536 0.0
C47 C 0.56954 0.38229 0.9674 0.0
C48 C 0.54202 0.40323 0.96621 0.0
C49 C 0.60291 0.3186 0.93409 0.0
O50 O 0.54104 0.31144 0.17586 0.0
O51 O 0.53579 0.27828 0.29308 0.0
O52 O 0.57904 0.35635 0.25277 0.0
O53 O 0.62035 0.36599 0.10627 0.0
O54 O 0.59061 0.25945 0.36059 0.0
O55 O 0.60892 0.32763 0.3477 0.0
O56 O 0.65737 0.31944 0.15413 0.0
O57 O 0.65772 0.28622 0.03874 0.0
O58 O 0.58538 0.23717 0.10262 0.0
O59 O 0.60662 0.23231 0.19735 0.0
C60 C 0.51947 0.29278 0.25483 0.0
O61 O 0.62931 0.33813 0.95087 0.0
O62 O 0.58064 0.28609 0.98814 0.0
C63 C 0.59862 0.38159 0.18203 0.0
C64 C 0.63695 0.28803 0.40195 0.0
C65 C 0.69913 0.28324 0.4317 0.0
C66 C 0.65894 0.27632 0.50061 0.0
C67 C 0.62833 0.27875 0.48586 0.0
C68 C 0.67686 0.29446 0.33263 0.0
C69 C 0.70755 0.29215 0.34728 0.0
C70 C 0.60431 0.29254 0.38845 0.0
C71 C 0.67641 0.30328 0.07743 0.0
H72 H 0.52536 0.33955 0.8269 0.0
H73 H 0.57404 0.30345 0.82826 0.0
H74 H 0.58039 0.39337 1.00981 0.0
H75 H 0.53282 0.4303 1.00678 0.0
H76 H 0.65098 0.26867 0.56619 0.0
H77 H 0.59781 0.27363 0.54038 0.0
H78 H 0.68437 0.30182 0.26724 0.0
H79 H 0.73796 0.29824 0.2925 0.0
Tb80 Tb 0.06881 0.27161 0.78006 0.0
Tb81 Tb 0.07915 0.29004 0.94794 0.0
C82 C 0.06352 0.19828 0.89765 0.0
C83 C 0.02065 0.26657 0.64824 0.0
C84 C 0.95783 0.27261 0.62133 0.0
C85 C 0.99774 0.27801 0.55117 0.0
C86 C 0.02864 0.27496 0.56451 0.0
C87 C 0.98104 0.26192 0.71893 0.0
C88 C 0.95003 0.26484 0.70564 0.0
C89 C 0.05377 0.26141 0.65975 0.0
O90 O 1.01069 0.25542 0.89515 0.0
O91 O 0.01911 0.30018 0.98966 0.0
O92 O 0.10864 0.34327 0.85519 0.0
O93 O 0.06074 0.33736 0.82529 0.0
O94 O 0.0923 0.27178 0.0381 0.0
O95 O 0.07516 0.33337 0.04301 0.0
O96 O 0.13623 0.27425 0.84367 0.0
O97 O 0.13308 0.28207 0.72101 0.0
O98 O 0.07961 0.21229 0.81625 0.0
O99 O 0.05083 0.22455 0.96172 0.0
C100 C 0.99609 0.27727 0.96576 0.0
O101 O 0.07416 0.29616 0.66733 0.0
O102 O 0.04645 0.23115 0.71476 0.0
C103 C 0.08634 0.36188 0.8401 0.0
C104 C 0.12451 0.33028 0.07354 0.0
C105 C 0.19316 0.36654 0.0748 0.0
C106 C 0.15673 0.35434 0.15352 0.0
C107 C 0.12264 0.33628 0.15281 0.0
C108 C 0.16045 0.34329 0.99502 0.0
C109 C 0.19449 0.36122 0.99559 0.0
C110 C 0.0895 0.30934 0.07205 0.0
C111 C 0.15313 0.27756 0.75815 0.0
H112 H 1.00527 0.28489 0.4856 0.0
H113 H 0.05891 0.27886 0.50898 0.0
H114 H 0.97398 0.25546 0.78434 0.0
H115 H 0.91985 0.26005 0.76142 0.0
H116 H 0.15465 0.35844 0.21559 0.0
H117 H 0.09501 0.32649 0.21395 0.0
H118 H 0.16232 0.33878 0.93317 0.0
H119 H 0.22214 0.36959 0.93379 0.0
Tb120 Tb 0.54342 0.76323 0.81854 0.0
Tb121 Tb 0.53827 0.75338 1.00509 0.0
C122 C 0.54104 0.67705 0.89446 0.0
C123 C 0.50447 0.76974 0.67213 0.0
C124 C 0.44169 0.77318 0.64361 0.0
C125 C 0.47959 0.76678 0.57435 0.0
C126 C 0.51049 0.76509 0.58852 0.0
C127 C 0.46691 0.77636 0.74158 0.0
C128 C 0.43593 0.77813 0.72751 0.0
C129 C 0.53697 0.76557 0.68636 0.0
O130 O 0.48292 0.74041 0.92109 0.0
O131 O 0.48263 0.77238 0.03761 0.0
O132 O 0.55494 0.82071 0.97441 0.0
O133 O 0.53505 0.82647 0.87741 0.0
O134 O 0.51186 0.71649 0.12158 0.0
O135 O 0.55611 0.7723 0.09368 0.0
O136 O 0.59922 0.74692 0.90147 0.0
O137 O 0.60483 0.77996 0.78358 0.0
O138 O 0.5616 0.70226 0.82379 0.0
O139 O 0.51831 0.69296 0.96902 0.0
C140 C 0.46402 0.75617 0.99829 0.0
O141 O 0.55038 0.79877 0.71456 0.0
O142 O 0.5322 0.73058 0.72755 0.0
C143 C 0.54586 0.8435 0.93158 0.0
C144 C 0.55935 0.71319 0.15889 0.0
C145 C 0.61785 0.67781 0.1629 0.0
C146 C 0.59974 0.70977 0.22041 0.0
C147 C 0.57062 0.72732 0.21845 0.0
C148 C 0.57565 0.67945 0.10511 0.0
C149 C 0.60457 0.66173 0.10743 0.0
C150 C 0.53579 0.73797 0.14346 0.0
C151 C 0.62093 0.76553 0.82241 0.0
H152 H 0.48526 0.76208 0.50917 0.0
H153 H 0.53907 0.75953 0.53406 0.0
H154 H 0.46143 0.77985 0.80686 0.0
H155 H 0.40752 0.78366 0.78252 0.0
H156 H 0.60953 0.72261 0.26381 0.0
H157 H 0.55857 0.75354 0.25986 0.0
H158 H 0.56771 0.66853 0.05781 0.0
H159 H 0.6186 0.63772 0.06145 0.0
C160 C 0.11247 0.4317 0.87591 0.0
C161 C 0.08169 0.40611 0.87032 0.0
C162 C 0.10627 0.46942 0.92151 0.0
C163 C 0.06891 0.48253 0.96337 0.0
C164 C 0.03892 0.45846 0.95283 0.0
C165 C 0.04514 0.42051 0.90707 0.0
C166 C 0.06024 0.52093 1.01814 0.0
C167 C 0.08012 0.53709 0.05774 0.0
C168 C 0.07148 0.5755 0.11249 0.0
C169 C 0.10144 0.59942 0.12338 0.0
C170 C 0.09528 0.6374 0.16903 0.0
C171 C 0.05884 0.65199 0.20534 0.0
H172 H 1.0097 0.57055 0.15083 0.0
C173 C 0.02807 0.62653 0.1995 0.0
C174 C 0.0342 0.58879 0.15397 0.0
H175 H 0.99948 0.63671 0.2274 0.0
H176 H 0.14114 0.42167 0.84767 0.0
H177 H 0.1308 0.48781 0.9244 0.0
H178 H 1.01 0.4681 0.98312 0.0
H179 H 0.0207 0.40137 0.90469 0.0
H180 H 0.03595 0.53565 1.02716 0.0
H181 H 0.1044 0.52235 0.04872 0.0
H182 H 0.13028 0.58964 0.09339 0.0
H183 H 0.11971 0.65644 0.17159 0.0
C184 C 0.5533 0.42915 0.1932 0.0
C185 C 0.59028 0.42467 0.17952 0.0
C186 C 0.54952 0.46497 0.15778 0.0
C187 C 0.58277 0.49697 0.10824 0.0
C188 C 0.61862 0.49423 0.10226 0.0
C189 C 0.62251 0.45816 0.13632 0.0
C190 C 0.58201 0.53252 0.05872 0.0
C191 C 0.55742 0.52954 1.02835 0.0
C192 C 0.5569 0.56441 0.97711 0.0
C193 C 0.52141 0.56601 0.98054 0.0
C194 C 0.51771 0.60099 0.94335 0.0
C195 C 0.54978 0.63456 0.89964 0.0
H196 H 0.6184 0.59555 0.92028 0.0
C197 C 0.58653 0.63113 0.88856 0.0
C198 C 0.59009 0.59637 0.92716 0.0
H199 H 0.61144 0.65711 0.85695 0.0
H200 H 0.52825 0.40328 0.22443 0.0
H201 H 0.52097 0.46659 0.16662 0.0
H202 H 0.64454 0.51863 0.06583 0.0
H203 H 0.65156 0.45499 0.12327 0.0
H204 H 0.60397 0.56115 0.04315 0.0
H205 H 0.53535 0.50102 0.04441 0.0
H206 H 0.49558 0.54151 1.01708 0.0
H207 H 0.48885 0.60336 0.95437 0.0
C208 C 0.53792 0.90127 0.0351 0.0
C209 C 0.54642 0.88945 0.95145 0.0
C210 C 0.54372 0.94408 0.05393 0.0
C211 C 0.55867 0.97653 0.98915 0.0
C212 C 0.56501 0.96496 0.90674 0.0
C213 C 0.55895 0.92175 0.88791 0.0
C214 C 0.56749 1.0225 1.00577 0.0
C215 C 0.57492 0.0359 0.06901 0.0
C216 C 0.58363 0.08187 0.08578 0.0
C217 C 0.57719 0.09342 0.16828 0.0
C218 C 0.58299 0.13663 0.18738 0.0
C219 C 0.59535 0.16895 0.12401 0.0
H220 H 0.6058 0.10716 0.95559 0.0
C221 C 0.60402 0.15719 0.04023 0.0
C222 C 0.59848 0.11437 1.02114 0.0
H223 H 0.61445 0.18137 0.98925 0.0
H224 H 0.52734 0.87713 0.08625 0.0
H225 H 0.53647 0.95132 0.11941 0.0
H226 H 0.57586 0.98933 0.8559 0.0
H227 H 0.56574 0.91362 0.82296 0.0
H228 H 0.56832 0.04586 0.96304 0.0
H229 H 0.5741 1.01254 0.11173 0.0
H230 H 0.56642 0.06901 0.21902 0.0
H231 H 0.57606 0.14473 0.25243 0.0
C232 C 0.10233 0.92193 0.07724 0.0
C233 C 0.07644 0.90519 0.16341 0.0
C234 C 0.0991 0.96088 0.05138 0.0
C235 C 0.06956 0.98415 0.11097 0.0
C236 C 0.04521 0.96874 0.19849 0.0
C237 C 0.04851 0.92955 0.22454 0.0
C238 C 0.06364 1.02456 0.0842 0.0
C239 C 0.07442 0.03428 1.00155 0.0
C240 C 0.06877 0.07473 0.97426 0.0
C241 C 0.09256 0.08922 0.88609 0.0
C242 C 0.08964 0.12837 0.85913 0.0
C243 C 0.06268 0.15368 0.91998 0.0
H244 H 0.01996 0.08833 0.10132 0.0
C245 C 0.03734 0.13794 1.00701 0.0
C246 C 0.04018 0.099 1.03378 0.0
H247 H 1.01571 0.1563 0.05543 0.0
H248 H 0.1247 0.90433 1.02869 0.0
H249 H 0.11975 0.97237 0.98447 0.0
H250 H 0.02263 0.98635 0.24628 0.0
H251 H 0.02808 0.9175 0.29128 0.0
H252 H 0.04923 0.04648 0.13535 0.0
H253 H 0.08872 1.01221 0.9506 0.0
H254 H 0.11442 0.07087 0.83836 0.0
H255 H 0.10963 0.13962 0.79174 0.0
C256 C 0.41568 0.79181 0.55043 0.0
C257 C 0.40835 0.77399 0.62847 0.0
C258 C 0.38464 0.792 0.53578 0.0
C259 C 0.34513 0.77422 0.59882 0.0
C260 C 0.33782 0.75688 0.67706 0.0
C261 C 0.36881 0.75661 0.6916 0.0
C262 C 0.3105 0.77399 0.58766 0.0
C263 C 0.31346 0.78153 0.51106 0.0
C264 C 0.27879 0.78145 0.50005 0.0
C265 C 0.28613 0.79812 0.42124 0.0
C266 C 0.25502 0.79894 0.4073 0.0
C267 C 0.21533 0.78287 0.47173 0.0
H268 H 0.23171 0.75039 0.62491 0.0
C269 C 0.20799 0.76551 0.55012 0.0
C270 C 0.23913 0.76473 0.56412 0.0
H271 H 0.17808 0.7519 0.60073 0.0
H272 H 0.44545 0.80635 0.50078 0.0
H273 H 0.39195 0.80683 0.4755 0.0
H274 H 0.30786 0.74307 0.72734 0.0
H275 H 0.36171 0.74207 0.7521 0.0
H276 H 0.28122 0.76692 0.64619 0.0
H277 H 0.34277 0.78851 0.45254 0.0
H278 H 0.31619 0.81105 0.37011 0.0
H279 H 0.26213 0.81299 0.34638 0.0
C280 C 0.21588 0.27799 0.61041 0.0
C281 C 0.19669 0.27736 0.70189 0.0
C282 C 0.25703 0.27848 0.55769 0.0
C283 C 0.28014 0.2787 0.59525 0.0
C284 C 0.26077 0.27771 0.68667 0.0
C285 C 0.21972 0.27711 0.73925 0.0
C286 C 0.32405 0.27877 0.5428 0.0
C287 C 0.34788 0.28805 0.45606 0.0
C288 C 0.39184 0.28836 0.40542 0.0
C289 C 0.41559 0.3105 0.32378 0.0
C290 C 0.45688 0.31173 0.27441 0.0
C291 C 0.47553 0.29066 0.30536 0.0
H292 H 0.39352 0.24766 0.49606 0.0
C293 C 0.45172 0.26783 0.38624 0.0
C294 C 0.41048 0.26646 0.43536 0.0
H295 H 0.46488 0.25072 0.4118 0.0
H296 H 0.19912 0.27791 0.57924 0.0
H297 H 0.27021 0.27812 0.4879 0.0
H298 H 0.27751 0.27758 0.71788 0.0
H299 H 0.20615 0.27672 0.80934 0.0
H300 H 0.33734 0.27238 0.57899 0.0
H301 H 0.33536 0.29766 0.42052 0.0
H302 H 0.40219 0.32732 0.29833 0.0
H303 H 0.47418 0.32958 0.21239 0.0
C304 C 0.92628 0.25874 0.53034 0.0
C305 C 0.92469 0.27472 0.60627 0.0
C306 C 0.89546 0.26069 0.51593 0.0
C307 C 0.86193 0.27885 0.57707 0.0
C308 C 0.8602 0.29439 0.65327 0.0
C309 C 0.89103 0.29249 0.66761 0.0
C310 C 0.8277 0.28128 0.56592 0.0
C311 C 0.82849 0.27544 0.49015 0.0
C312 C 0.79435 0.27768 0.47856 0.0
C313 C 0.79692 0.26314 0.40102 0.0
C314 C 0.76629 0.26481 0.38597 0.0
C315 C 0.73196 0.28135 0.44791 0.0
H316 H 0.7568 0.30712 0.60031 0.0
C317 C 0.72943 0.29623 0.52537 0.0
C318 C 0.76008 0.2945 0.54052 0.0
H319 H 0.70399 0.31006 0.57405 0.0
H320 H 0.9511 0.24387 0.48233 0.0
H321 H 0.89799 0.24711 0.45743 0.0
H322 H 0.83487 0.30838 0.7021 0.0
H323 H 0.8886 0.30556 0.72651 0.0
H324 H 0.80081 0.28853 0.62353 0.0
H325 H 0.85549 0.26841 0.43253 0.0
H326 H 0.82279 0.25011 0.35161 0.0
H327 H 0.76942 0.25253 0.32595 0.0
C328 C 0.92428 0.77858 0.4671 0.0
C329 C 0.94355 0.77988 0.37559 0.0
C330 C 0.88317 0.77821 0.51988 0.0
C331 C 0.86014 0.77879 0.48237 0.0
C332 C 0.87958 0.78043 0.39093 0.0
C333 C 0.92061 0.78092 0.33828 0.0
C334 C 0.81626 0.7789 0.53491 0.0
C335 C 0.79241 0.76963 0.62166 0.0
C336 C 0.74849 0.76958 0.67233 0.0
C337 C 0.72466 0.74747 0.754 0.0
C338 C 0.68338 0.74641 0.80331 0.0
C339 C 0.66487 0.76763 0.77224 0.0
H340 H 0.74703 0.8105 0.58168 0.0
C341 C 0.68878 0.79049 0.69141 0.0
C342 C 0.72999 0.79169 0.64237 0.0
H343 H 0.67573 0.80772 0.66577 0.0
H344 H 0.94097 0.77806 0.49828 0.0
H345 H 0.86997 0.77803 0.5897 0.0
H346 H 0.8629 0.7812 0.35975 0.0
H347 H 0.93425 0.78192 0.26816 0.0
H348 H 0.803 0.7855 0.49878 0.0
H349 H 0.80486 0.75986 0.65722 0.0
H350 H 0.73795 0.73051 0.77948 0.0
H351 H 0.66599 0.72855 0.86532 0.0
C352 C 0.40014 0.72465 1.01341 0.0
C353 C 0.42149 0.75631 0.03684 0.0
C354 C 0.3629 0.72905 1.03071 0.0
C355 C 0.34649 0.76556 0.0709 0.0
C356 C 0.36615 0.79526 0.10171 0.0
C357 C 0.40363 0.79074 0.08456 0.0
C358 C 0.30979 0.77411 0.07857 0.0
C359 C 0.29915 0.76025 1.02089 0.0
C360 C 0.26249 0.76929 1.02937 0.0
C361 C 0.23977 0.73793 1.00873 0.0
C362 C 0.20205 0.74343 1.02902 0.0
C363 C 0.1871 0.78059 0.06925 0.0
H364 H 0.26673 0.83368 0.07417 0.0
C365 C 0.21166 0.81367 0.08129 0.0
C366 C 0.24903 0.80812 0.06146 0.0
H367 H 0.20107 0.84303 0.11071 0.0
H368 H 0.41305 0.69729 0.97805 0.0
H369 H 0.34765 0.70434 1.01029 0.0
H370 H 0.35356 0.8232 0.13465 0.0
H371 H 0.41962 0.81552 0.10321 0.0
H372 H 0.29187 0.79372 0.13148 0.0
H373 H 0.31672 0.74054 0.96788 0.0
H374 H 0.25009 0.70808 0.98221 0.0
H375 H 0.18363 0.71747 1.0192 0.0
C376 C 0.25912 0.41493 1.01484 0.0
C377 C 0.23024 0.38217 0.07439 0.0
C378 C 0.29585 0.42626 1.00799 0.0
C379 C 0.30444 0.40485 0.06045 0.0
C380 C 0.27476 0.37385 0.12319 0.0
C381 C 0.23814 0.36245 0.12986 0.0
C382 C 0.34431 0.41224 0.04953 0.0
C383 C 0.37827 0.42574 0.97345 0.0
C384 C 0.41804 0.42333 0.95805 0.0
C385 C 0.44868 0.41613 0.87359 0.0
C386 C 0.48444 0.40693 0.85899 0.0
C387 C 0.49031 0.40492 0.92869 0.0
H388 H 0.40294 0.43209 0.09175 0.0
C389 C 0.46077 0.41548 1.012 0.0
C390 C 0.42519 0.42491 1.0264 0.0
H391 H 0.46408 0.41429 0.06746 0.0
H392 H 0.25352 0.43144 0.97266 0.0
H393 H 0.31741 0.45144 0.9611 0.0
H394 H 0.28048 0.35706 0.16488 0.0
H395 H 0.21672 0.33688 0.17599 0.0
H396 H 0.34586 0.40092 0.10302 0.0
H397 H 0.37698 0.43329 0.91729 0.0
H398 H 0.44424 0.41549 0.81942 0.0
H399 H 0.50695 0.40001 0.79362 0.0
C400 C 0.74019 0.33496 0.06297 0.0
C401 C 0.71893 0.30309 0.03966 0.0
C402 C 0.77732 0.33063 0.04662 0.0
C403 C 0.79377 0.29398 1.00742 0.0
C404 C 0.77415 0.26397 0.97695 0.0
C405 C 0.73679 0.26841 0.99316 0.0
C406 C 0.83055 0.28565 0.99999 0.0
C407 C 0.84185 0.3007 0.05609 0.0
C408 C 0.8785 0.29164 0.0479 0.0
C409 C 0.9017 0.32335 0.06668 0.0
C410 C 0.93924 0.31754 0.04724 0.0
C411 C 0.95357 0.27971 1.00971 0.0
H412 H 0.87333 0.22651 1.00719 0.0
C413 C 0.92855 0.24645 0.99946 0.0
C414 C 0.89136 0.25231 1.01842 0.0
H415 H 0.93866 0.21662 0.97202 0.0
H416 H 0.72729 0.36248 0.09753 0.0
H417 H 0.79246 0.35558 0.06684 0.0
H418 H 0.78671 0.23588 0.94484 0.0
H419 H 0.72088 0.24342 0.97471 0.0
H420 H 0.84804 0.26521 0.94845 0.0
H421 H 0.8248 0.3213 0.10768 0.0
H422 H 0.89188 0.35363 0.09117 0.0
H423 H 0.95803 0.34368 0.05552 0.0
C424 C 0.88097 0.6598 0.07501 0.0
C425 C 0.91503 0.67523 0.99434 0.0
C426 C 0.8436 0.65088 0.08467 0.0
C427 C 0.8395 0.65742 1.01384 0.0
C428 C 0.87368 0.67052 0.93222 0.0
C429 C 0.91112 0.67894 0.92227 0.0
C430 C 0.80008 0.6577 1.02621 0.0
C431 C 0.76585 0.63573 0.09096 0.0
C432 C 0.72722 0.64576 0.1123 0.0
C433 C 0.69535 0.613 0.1304 0.0
C434 C 0.65923 0.62308 0.14835 0.0
C435 C 0.65429 0.66606 0.15126 0.0
H436 H 0.74579 0.71448 0.10483 0.0
C437 C 0.68581 0.69863 0.13622 0.0
C438 C 0.72193 0.68861 0.11659 0.0
H439 H 0.68293 0.732 0.13702 0.0
H440 H 0.88269 0.65718 0.13231 0.0
H441 H 0.81784 0.64182 0.14907 0.0
H442 H 0.87126 0.67589 0.87671 0.0
H443 H 0.9368 0.68992 0.85881 0.0
H444 H 0.79894 0.67914 0.98296 0.0
H445 H 0.76601 0.61121 0.1303 0.0
H446 H 0.69876 0.57976 0.12833 0.0
H447 H 0.63527 0.59747 0.15955 0.0
loop_
_geom_bond_atom_site_label_1
_geom_bond_atom_site_label_2
_geom_bond_distance
_geom_bond_site_symmetry_2
_ccdc_geom_bond_type
Tb0 C9 2.764 . S
Tb0 O10 2.325 1_455 S
Tb0 O13 2.303 . S
Tb0 O17 2.322 . S
Tb0 O18 2.349 . S
Tb0 O21 2.415 . S
Tb0 O22 2.399 . S
Tb1 O11 2.324 . S
Tb1 O12 2.349 . S
Tb1 O14 2.415 . S
Tb1 O15 2.399 . S
Tb1 O16 2.325 . S
Tb1 O19 2.303 . S
Tb1 C30 2.764 . S
C2 O18 1.261 . S
C2 O19 1.257 . S
C3 C6 1.358 1_554 S
C3 C7 1.332 . S
C3 C9 1.504 1_655 S
C4 C5 1.373 . S
C4 C8 1.308 . S
C5 C4 1.373 . S
C5 C6 1.429 . S
C5 H32 0.932 . S
C6 C3 1.358 1_556 S
C6 C5 1.429 . S
C6 H33 0.930 . S
C7 C3 1.332 . S
C7 C8 1.394 1_554 S
C7 H34 0.932 . S
C8 C4 1.308 . S
C8 C7 1.394 1_556 S
C8 H35 0.929 1_556 S
C9 Tb0 2.764 . S
C9 C3 1.504 1_455 S
C9 O21 1.239 . S
C9 O22 1.263 . S
O10 Tb0 2.325 1_655 S
O10 C20 1.236 . S
O11 Tb1 2.324 . S
O11 C20 1.255 1_455 S
O12 Tb1 2.349 . S
O12 C23 1.261 . S
O13 Tb0 2.303 . S
O13 C23 1.257 . S
O14 Tb1 2.415 . S
O14 C30 1.239 . S
O15 Tb1 2.399 . S
O15 C30 1.263 . S
O16 Tb1 2.325 . S
O16 C31 1.236 . S
O17 Tb0 2.322 . S
O17 C31 1.257 . S
O18 Tb0 2.349 . S
O18 C2 1.261 . S
O19 Tb1 2.303 . S
O19 C2 1.257 . S
C20 O10 1.236 . S
C20 O11 1.255 1_655 S
O21 Tb0 2.415 . S
O21 C9 1.239 . S
O22 Tb0 2.399 . S
O22 C9 1.263 . S
C23 O12 1.261 . S
C23 O13 1.257 . S
C24 C27 1.358 . S
C24 C28 1.332 . S
C24 C30 1.504 . S
C25 C26 1.373 . S
C25 C29 1.308 . S
C26 C25 1.373 . S
C26 C27 1.429 . S
C26 H36 0.932 . S
C27 C24 1.358 . S
C27 C26 1.429 . S
C27 H37 0.930 . S
C28 C24 1.332 . S
C28 C29 1.394 . S
C28 H38 0.932 . S
C29 C25 1.308 . S
C29 C28 1.394 . S
C29 H39 0.929 . S
C30 Tb1 2.764 . S
C30 O14 1.239 . S
C30 O15 1.263 . S
C30 C24 1.504 . S
C31 O16 1.236 . S
C31 O17 1.257 . S
H32 C5 0.932 . S
H33 C6 0.930 . S
H34 C7 0.932 . S
H35 C8 0.929 1_554 S
H36 C26 0.932 . S
H37 C27 0.930 . S
H38 C28 0.932 . S
H39 C29 0.929 . S
Tb40 C49 2.764 . S
Tb40 O50 2.325 . S
Tb40 O53 2.303 . S
Tb40 O57 2.322 . S
Tb40 O58 2.349 . S
Tb40 O61 2.415 . S
Tb40 O62 2.399 . S
Tb41 O51 2.322 . S
Tb41 O52 2.349 . S
Tb41 O54 2.415 . S
Tb41 O55 2.399 . S
Tb41 O56 2.325 . S
Tb41 O59 2.303 . S
Tb41 C70 2.764 . S
C42 O58 1.261 . S
C42 O59 1.257 . S
C43 C46 1.358 1_554 S
C43 C47 1.332 . S
C43 C49 1.504 . S
C44 C45 1.373 . S
C44 C48 1.308 . S
C45 C44 1.373 . S
C45 C46 1.429 . S
C45 H72 0.932 . S
C46 C43 1.358 1_556 S
C46 C45 1.429 . S
C46 H73 0.930 . S
C47 C43 1.332 . S
C47 C48 1.394 1_554 S
C47 H74 0.932 . S
C48 C44 1.308 . S
C48 C47 1.394 1_556 S
C48 H75 0.929 1_556 S
C49 Tb40 2.764 . S
C49 C43 1.504 . S
C49 O61 1.239 . S
C49 O62 1.263 . S
O50 Tb40 2.325 . S
O50 C60 1.236 . S
O51 Tb41 2.322 . S
O51 C60 1.257 . S
O52 Tb41 2.349 . S
O52 C63 1.261 . S
O53 Tb40 2.303 . S
O53 C63 1.257 . S
O54 Tb41 2.415 . S
O54 C70 1.239 . S
O55 Tb41 2.399 . S
O55 C70 1.263 . S
O56 Tb41 2.325 . S
O56 C71 1.236 . S
O57 Tb40 2.322 . S
O57 C71 1.257 . S
O58 Tb40 2.349 . S
O58 C42 1.261 . S
O59 Tb41 2.303 . S
O59 C42 1.257 . S
C60 O50 1.236 . S
C60 O51 1.257 . S
O61 Tb40 2.415 . S
O61 C49 1.239 . S
O62 Tb40 2.399 . S
O62 C49 1.263 . S
C63 O52 1.261 . S
C63 O53 1.257 . S
C64 C67 1.358 . S
C64 C68 1.332 . S
C64 C70 1.504 . S
C65 C66 1.373 . S
C65 C69 1.308 . S
C66 C65 1.373 . S
C66 C67 1.429 . S
C66 H76 0.932 . S
C67 C64 1.358 . S
C67 C66 1.429 . S
C67 H77 0.930 . S
C68 C64 1.332 . S
C68 C69 1.394 . S
C68 H78 0.932 . S
C69 C65 1.308 . S
C69 C68 1.394 . S
C69 H79 0.929 . S
C70 Tb41 2.764 . S
C70 O54 1.239 . S
C70 O55 1.263 . S
C70 C64 1.504 . S
C71 O56 1.236 . S
C71 O57 1.257 . S
H72 C45 0.932 . S
H73 C46 0.930 . S
H74 C47 0.932 . S
H75 C48 0.929 1_554 S
H76 C66 0.932 . S
H77 C67 0.930 . S
H78 C68 0.932 . S
H79 C69 0.929 . S
Tb80 C89 2.764 1_455 S
Tb80 O90 2.325 1_455 S
Tb80 O93 2.303 . S
Tb80 O97 2.322 . S
Tb80 O98 2.349 . S
Tb80 O101 2.415 . S
Tb80 O102 2.399 . S
Tb81 O91 2.322 1_455 S
Tb81 O92 2.349 . S
Tb81 O94 2.415 . S
Tb81 O95 2.399 . S
Tb81 O96 2.325 . S
Tb81 O99 2.303 . S
Tb81 C110 2.764 . S
C82 O98 1.261 . S
C82 O99 1.257 . S
C83 C86 1.358 . S
C83 C87 1.332 . S
C83 C89 1.504 . S
C84 C85 1.373 . S
C84 C88 1.308 . S
C85 C84 1.373 . S
C85 C86 1.429 . S
C85 H112 0.932 . S
C86 C83 1.358 . S
C86 C85 1.429 . S
C86 H113 0.930 . S
C87 C83 1.332 . S
C87 C88 1.394 . S
C87 H114 0.932 . S
C88 C84 1.308 . S
C88 C87 1.394 . S
C88 H115 0.929 . S
C89 Tb80 2.764 1_655 S
C89 C83 1.504 . S
C89 O101 1.239 1_655 S
C89 O102 1.263 1_655 S
O90 Tb80 2.325 1_655 S
O90 C100 1.236 . S
O91 Tb81 2.322 1_655 S
O91 C100 1.257 . S
O92 Tb81 2.349 . S
O92 C103 1.261 . S
O93 Tb80 2.303 . S
O93 C103 1.257 . S
O94 Tb81 2.415 . S
O94 C110 1.239 . S
O95 Tb81 2.399 . S
O95 C110 1.263 . S
O96 Tb81 2.325 . S
O96 C111 1.236 . S
O97 Tb80 2.322 . S
O97 C111 1.257 . S
O98 Tb80 2.349 . S
O98 C82 1.261 . S
O99 Tb81 2.303 . S
O99 C82 1.257 . S
C100 O90 1.236 . S
C100 O91 1.257 . S
O101 Tb80 2.415 . S
O101 C89 1.239 1_455 S
O102 Tb80 2.399 . S
O102 C89 1.263 1_455 S
C103 O92 1.261 . S
C103 O93 1.257 . S
C104 C107 1.358 1_556 S
C104 C108 1.332 . S
C104 C110 1.504 . S
C105 C106 1.373 . S
C105 C109 1.308 . S
C106 C105 1.373 . S
C106 C107 1.429 . S
C106 H116 0.932 . S
C107 C104 1.358 1_554 S
C107 C106 1.429 . S
C107 H117 0.930 . S
C108 C104 1.332 . S
C108 C109 1.394 1_556 S
C108 H118 0.932 . S
C109 C105 1.308 . S
C109 C108 1.394 1_554 S
C109 H119 0.929 1_554 S
C110 Tb81 2.764 . S
C110 O94 1.239 . S
C110 O95 1.263 . S
C110 C104 1.504 . S
C111 O96 1.236 . S
C111 O97 1.257 . S
H112 C85 0.932 . S
H113 C86 0.930 . S
H114 C87 0.932 . S
H115 C88 0.929 . S
H116 C106 0.932 . S
H117 C107 0.930 . S
H118 C108 0.932 . S
H119 C109 0.929 1_556 S
Tb120 C129 2.764 . S
Tb120 O130 2.325 . S
Tb120 O133 2.303 . S
Tb120 O137 2.322 . S
Tb120 O138 2.349 . S
Tb120 O141 2.415 . S
Tb120 O142 2.399 . S
Tb121 O131 2.322 . S
Tb121 O132 2.349 . S
Tb121 O134 2.415 . S
Tb121 O135 2.399 . S
Tb121 O136 2.325 . S
Tb121 O139 2.303 . S
Tb121 C150 2.764 . S
C122 O138 1.261 . S
C122 O139 1.257 . S
C123 C126 1.358 . S
C123 C127 1.332 . S
C123 C129 1.504 . S
C124 C125 1.373 . S
C124 C128 1.308 . S
C125 C124 1.373 . S
C125 C126 1.429 . S
C125 H152 0.932 . S
C126 C123 1.358 . S
C126 C125 1.429 . S
C126 H153 0.930 . S
C127 C123 1.332 . S
C127 C128 1.394 . S
C127 H154 0.932 . S
C128 C124 1.308 . S
C128 C127 1.394 . S
C128 H155 0.929 . S
C129 Tb120 2.764 . S
C129 C123 1.504 . S
C129 O141 1.239 . S
C129 O142 1.263 . S
O130 Tb120 2.325 . S
O130 C140 1.236 . S
O131 Tb121 2.322 . S
O131 C140 1.257 . S
O132 Tb121 2.349 . S
O132 C143 1.261 . S
O133 Tb120 2.303 . S
O133 C143 1.257 . S
O134 Tb121 2.415 . S
O134 C150 1.239 . S
O135 Tb121 2.399 . S
O135 C150 1.263 . S
O136 Tb121 2.325 . S
O136 C151 1.236 . S
O137 Tb120 2.322 . S
O137 C151 1.257 . S
O138 Tb120 2.349 . S
O138 C122 1.261 . S
O139 Tb121 2.303 . S
O139 C122 1.257 . S
C140 O130 1.236 . S
C140 O131 1.257 . S
O141 Tb120 2.415 . S
O141 C129 1.239 . S
O142 Tb120 2.399 . S
O142 C129 1.263 . S
C143 O132 1.261 . S
C143 O133 1.257 . S
C144 C147 1.358 1_556 S
C144 C148 1.332 . S
C144 C150 1.504 . S
C145 C146 1.373 . S
C145 C149 1.308 . S
C146 C145 1.373 . S
C146 C147 1.429 . S
C146 H156 0.932 . S
C147 C144 1.358 1_554 S
C147 C146 1.429 . S
C147 H157 0.930 . S
C148 C144 1.332 . S
C148 C149 1.394 1_556 S
C148 H158 0.932 . S
C149 C145 1.308 . S
C149 C148 1.394 1_554 S
C149 H159 0.929 1_554 S
C150 Tb121 2.764 . S
C150 O134 1.239 . S
C150 O135 1.263 . S
C150 C144 1.504 . S
C151 O136 1.236 . S
C151 O137 1.257 . S
H152 C125 0.932 . S
H153 C126 0.930 . S
H154 C127 0.932 . S
H155 C128 0.929 . S
H156 C146 0.932 . S
H157 C147 0.930 . S
H158 C148 0.932 . S
H159 C149 0.929 1_556 S
C160 C161 1.386 . S
C160 C162 1.383 . S
C160 H176 0.951 . S
C161 C160 1.386 . S
C161 C165 1.383 . S
C162 C160 1.383 . S
C162 C163 1.402 . S
C162 H177 0.951 . S
C163 C162 1.402 . S
C163 C164 1.375 . S
C163 C166 1.481 . S
C164 C163 1.375 . S
C164 C165 1.367 . S
C164 H178 0.951 . S
C165 C161 1.383 . S
C165 C164 1.367 . S
C165 H179 0.950 . S
C166 C163 1.481 . S
C166 C167 1.297 . S
C166 H180 0.950 . S
C167 C166 1.297 . S
C167 C168 1.479 1_556 S
C167 H181 0.950 . S
C168 C167 1.479 1_554 S
C168 C169 1.375 . S
C168 C174 1.404 . S
C169 C168 1.375 . S
C169 C170 1.369 . S
C169 H182 0.950 . S
C170 C169 1.369 . S
C170 C171 1.392 . S
C170 H183 0.951 . S
C171 C170 1.392 . S
C171 C173 1.384 . S
H172 C174 0.949 1_556 S
C173 C171 1.384 . S
C173 C174 1.385 . S
C173 H175 0.950 . S
C174 C168 1.404 . S
C174 H172 0.949 1_554 S
C174 C173 1.385 . S
H175 C173 0.950 . S
H176 C160 0.951 . S
H177 C162 0.951 . S
H178 C164 0.951 . S
H179 C165 0.950 . S
H180 C166 0.950 . S
H181 C167 0.950 . S
H182 C169 0.950 . S
H183 C170 0.951 . S
C184 C185 1.386 . S
C184 C186 1.383 . S
C184 H200 0.951 . S
C185 C184 1.386 . S
C185 C189 1.383 . S
C186 C184 1.383 . S
C186 C187 1.402 . S
C186 H201 0.951 . S
C187 C186 1.402 . S
C187 C188 1.375 1_554 S
C187 C190 1.481 1_554 S
C188 C187 1.375 1_556 S
C188 C189 1.367 1_556 S
C188 H202 0.951 . S
C189 C185 1.383 . S
C189 C188 1.367 1_554 S
C189 H203 0.950 . S
C190 C187 1.481 1_556 S
C190 C191 1.297 . S
C190 H204 0.950 . S
C191 C190 1.297 . S
C191 C192 1.479 . S
C191 H205 0.950 1_556 S
C192 C191 1.479 . S
C192 C193 1.375 . S
C192 C198 1.404 . S
C193 C192 1.375 . S
C193 C194 1.369 . S
C193 H206 0.950 1_556 S
C194 C193 1.369 . S
C194 C195 1.392 . S
C194 H207 0.951 . S
C195 C194 1.392 . S
C195 C197 1.384 . S
H196 C198 0.949 . S
C197 C195 1.384 . S
C197 C198 1.385 . S
C197 H199 0.950 . S
C198 C192 1.404 . S
C198 H196 0.949 . S
C198 C197 1.385 . S
H199 C197 0.950 . S
H200 C184 0.951 . S
H201 C186 0.951 . S
H202 C188 0.951 . S
H203 C189 0.950 . S
H204 C190 0.950 . S
H205 C191 0.950 1_554 S
H206 C193 0.950 1_554 S
H207 C194 0.951 . S
C208 C209 1.386 . S
C208 C210 1.383 . S
C208 H224 0.951 . S
C209 C208 1.386 . S
C209 C213 1.383 . S
C210 C208 1.383 . S
C210 C211 1.402 . S
C210 H225 0.951 . S
C211 C210 1.402 . S
C211 C212 1.375 . S
C211 C214 1.481 1_556 S
C212 C211 1.375 . S
C212 C213 1.367 . S
C212 H226 0.951 . S
C213 C209 1.383 . S
C213 C212 1.367 . S
C213 H227 0.950 . S
C214 C211 1.481 1_554 S
C214 C215 1.297 1_565 S
C214 H228 0.950 . S
C215 C214 1.297 1_545 S
C215 C216 1.479 . S
C215 H229 0.950 1_545 S
C216 C215 1.479 . S
C216 C217 1.375 . S
C216 C222 1.404 . S
C217 C216 1.375 . S
C217 C218 1.369 . S
C217 H230 0.950 . S
C218 C217 1.369 . S
C218 C219 1.392 . S
C218 H231 0.951 . S
C219 C218 1.392 . S
C219 C221 1.384 . S
H220 C222 0.949 . S
C221 C219 1.384 . S
C221 C222 1.385 . S
C221 H223 0.950 . S
C222 C216 1.404 . S
C222 H220 0.949 . S
C222 C221 1.385 . S
H223 C221 0.950 . S
H224 C208 0.951 . S
H225 C210 0.951 . S
H226 C212 0.951 . S
H227 C213 0.950 . S
H228 C214 0.950 . S
H229 C215 0.950 1_565 S
H230 C217 0.950 . S
H231 C218 0.951 . S
C232 C233 1.386 . S
C232 C234 1.383 . S
C232 H248 0.951 . S
C233 C232 1.386 . S
C233 C237 1.383 . S
C234 C232 1.383 . S
C234 C235 1.402 . S
C234 H249 0.951 . S
C235 C234 1.402 . S
C235 C236 1.375 . S
C235 C238 1.481 1_565 S
C236 C235 1.375 . S
C236 C237 1.367 . S
C236 H250 0.951 . S
C237 C233 1.383 . S
C237 C236 1.367 . S
C237 H251 0.950 . S
C238 C235 1.481 1_545 S
C238 C239 1.297 . S
C238 H252 0.950 . S
C239 C238 1.297 . S
C239 C240 1.479 1_554 S
C239 H253 0.950 1_545 S
C240 C239 1.479 1_556 S
C240 C241 1.375 . S
C240 C246 1.404 . S
C241 C240 1.375 . S
C241 C242 1.369 . S
C241 H254 0.950 . S
C242 C241 1.369 . S
C242 C243 1.392 . S
C242 H255 0.951 . S
C243 C242 1.392 . S
C243 C245 1.384 . S
H244 C246 0.949 1_554 S
C245 C243 1.384 . S
C245 C246 1.385 . S
C245 H247 0.950 . S
C246 C240 1.404 . S
C246 H244 0.949 1_556 S
C246 C245 1.385 . S
H247 C245 0.950 . S
H248 C232 0.951 . S
H249 C234 0.951 . S
H250 C236 0.951 . S
H251 C237 0.950 . S
H252 C238 0.950 . S
H253 C239 0.950 1_565 S
H254 C241 0.950 . S
H255 C242 0.951 . S
C256 C257 1.386 . S
C256 C258 1.383 . S
C256 H272 0.951 . S
C257 C256 1.386 . S
C257 C261 1.383 . S
C258 C256 1.383 . S
C258 C259 1.402 . S
C258 H273 0.951 . S
C259 C258 1.402 . S
C259 C260 1.375 . S
C259 C262 1.481 . S
C260 C259 1.375 . S
C260 C261 1.367 . S
C260 H274 0.951 . S
C261 C257 1.383 . S
C261 C260 1.367 . S
C261 H275 0.950 . S
C262 C259 1.481 . S
C262 C263 1.297 . S
C262 H276 0.950 . S
C263 C262 1.297 . S
C263 C264 1.479 . S
C263 H277 0.950 . S
C264 C263 1.479 . S
C264 C265 1.375 . S
C264 C270 1.404 . S
C265 C264 1.375 . S
C265 C266 1.369 . S
C265 H278 0.950 . S
C266 C265 1.369 . S
C266 C267 1.392 . S
C266 H279 0.951 . S
C267 C266 1.392 . S
C267 C269 1.384 . S
H268 C270 0.949 . S
C269 C267 1.384 . S
C269 C270 1.385 . S
C269 H271 0.950 . S
C270 C264 1.404 . S
C270 H268 0.949 . S
C270 C269 1.385 . S
H271 C269 0.950 . S
H272 C256 0.951 . S
H273 C258 0.951 . S
H274 C260 0.951 . S
H275 C261 0.950 . S
H276 C262 0.950 . S
H277 C263 0.950 . S
H278 C265 0.950 . S
H279 C266 0.951 . S
C280 C281 1.386 . S
C280 C282 1.383 . S
C280 H296 0.951 . S
C281 C280 1.386 . S
C281 C285 1.383 . S
C282 C280 1.383 . S
C282 C283 1.402 . S
C282 H297 0.951 . S
C283 C282 1.402 . S
C283 C284 1.375 . S
C283 C286 1.481 . S
C284 C283 1.375 . S
C284 C285 1.367 . S
C284 H298 0.951 . S
C285 C281 1.383 . S
C285 C284 1.367 . S
C285 H299 0.950 . S
C286 C283 1.481 . S
C286 C287 1.297 . S
C286 H300 0.950 . S
C287 C286 1.297 . S
C287 C288 1.479 . S
C287 H301 0.950 . S
C288 C287 1.479 . S
C288 C289 1.375 . S
C288 C294 1.404 . S
C289 C288 1.375 . S
C289 C290 1.369 . S
C289 H302 0.950 . S
C290 C289 1.369 . S
C290 C291 1.392 . S
C290 H303 0.951 . S
C291 C290 1.392 . S
C291 C293 1.384 . S
H292 C294 0.949 . S
C293 C291 1.384 . S
C293 C294 1.385 . S
C293 H295 0.950 . S
C294 C288 1.404 . S
C294 H292 0.949 . S
C294 C293 1.385 . S
H295 C293 0.950 . S
H296 C280 0.951 . S
H297 C282 0.951 . S
H298 C284 0.951 . S
H299 C285 0.950 . S
H300 C286 0.950 . S
H301 C287 0.950 . S
H302 C289 0.950 . S
H303 C290 0.951 . S
C304 C305 1.386 . S
C304 C306 1.383 . S
C304 H320 0.951 . S
C305 C304 1.386 . S
C305 C309 1.383 . S
C306 C304 1.383 . S
C306 C307 1.402 . S
C306 H321 0.951 . S
C307 C306 1.402 . S
C307 C308 1.375 . S
C307 C310 1.481 . S
C308 C307 1.375 . S
C308 C309 1.367 . S
C308 H322 0.951 . S
C309 C305 1.383 . S
C309 C308 1.367 . S
C309 H323 0.950 . S
C310 C307 1.481 . S
C310 C311 1.297 . S
C310 H324 0.950 . S
C311 C310 1.297 . S
C311 C312 1.479 . S
C311 H325 0.950 . S
C312 C311 1.479 . S
C312 C313 1.375 . S
C312 C318 1.404 . S
C313 C312 1.375 . S
C313 C314 1.369 . S
C313 H326 0.950 . S
C314 C313 1.369 . S
C314 C315 1.392 . S
C314 H327 0.951 . S
C315 C314 1.392 . S
C315 C317 1.384 . S
H316 C318 0.949 . S
C317 C315 1.384 . S
C317 C318 1.385 . S
C317 H319 0.950 . S
C318 C312 1.404 . S
C318 H316 0.949 . S
C318 C317 1.385 . S
H319 C317 0.950 . S
H320 C304 0.951 . S
H321 C306 0.951 . S
H322 C308 0.951 . S
H323 C309 0.950 . S
H324 C310 0.950 . S
H325 C311 0.950 . S
H326 C313 0.950 . S
H327 C314 0.951 . S
C328 C329 1.386 . S
C328 C330 1.383 . S
C328 H344 0.951 . S
C329 C328 1.386 . S
C329 C333 1.383 . S
C330 C328 1.383 . S
C330 C331 1.402 . S
C330 H345 0.951 . S
C331 C330 1.402 . S
C331 C332 1.375 . S
C331 C334 1.481 . S
C332 C331 1.375 . S
C332 C333 1.367 . S
C332 H346 0.951 . S
C333 C329 1.383 . S
C333 C332 1.367 . S
C333 H347 0.950 . S
C334 C331 1.481 . S
C334 C335 1.297 . S
C334 H348 0.950 . S
C335 C334 1.297 . S
C335 C336 1.479 . S
C335 H349 0.950 . S
C336 C335 1.479 . S
C336 C337 1.375 . S
C336 C342 1.404 . S
C337 C336 1.375 . S
C337 C338 1.369 . S
C337 H350 0.950 . S
C338 C337 1.369 . S
C338 C339 1.392 . S
C338 H351 0.951 . S
C339 C338 1.392 . S
C339 C341 1.384 . S
H340 C342 0.949 . S
C341 C339 1.384 . S
C341 C342 1.385 . S
C341 H343 0.950 . S
C342 C336 1.404 . S
C342 H340 0.949 . S
C342 C341 1.385 . S
H343 C341 0.950 . S
H344 C328 0.951 . S
H345 C330 0.951 . S
H346 C332 0.951 . S
H347 C333 0.950 . S
H348 C334 0.950 . S
H349 C335 0.950 . S
H350 C337 0.950 . S
H351 C338 0.951 . S
C352 C353 1.386 . S
C352 C354 1.383 . S
C352 H368 0.951 . S
C353 C352 1.386 . S
C353 C357 1.383 1_556 S
C354 C352 1.383 . S
C354 C355 1.402 1_556 S
C354 H369 0.951 . S
C355 C354 1.402 1_554 S
C355 C356 1.375 . S
C355 C358 1.481 . S
C356 C355 1.375 . S
C356 C357 1.367 . S
C356 H370 0.951 . S
C357 C353 1.383 1_554 S
C357 C356 1.367 . S
C357 H371 0.950 . S
C358 C355 1.481 . S
C358 C359 1.297 . S
C358 H372 0.950 . S
C359 C358 1.297 . S
C359 C360 1.479 . S
C359 H373 0.950 . S
C360 C359 1.479 . S
C360 C361 1.375 . S
C360 C366 1.404 . S
C361 C360 1.375 . S
C361 C362 1.369 . S
C361 H374 0.950 1_554 S
C362 C361 1.369 . S
C362 C363 1.392 . S
C362 H375 0.951 1_554 S
C363 C362 1.392 . S
C363 C365 1.384 . S
H364 C366 0.949 . S
C365 C363 1.384 . S
C365 C366 1.385 . S
C365 H367 0.950 . S
C366 C360 1.404 . S
C366 H364 0.949 . S
C366 C365 1.385 . S
H367 C365 0.950 . S
H368 C352 0.951 . S
H369 C354 0.951 . S
H370 C356 0.951 . S
H371 C357 0.950 . S
H372 C358 0.950 . S
H373 C359 0.950 . S
H374 C361 0.950 1_556 S
H375 C362 0.951 1_556 S
C376 C377 1.386 . S
C376 C378 1.383 1_554 S
C376 H392 0.951 1_554 S
C377 C376 1.386 . S
C377 C381 1.383 . S
C378 C376 1.383 1_556 S
C378 C379 1.402 1_556 S
C378 H393 0.951 . S
C379 C378 1.402 1_554 S
C379 C380 1.375 . S
C379 C382 1.481 . S
C380 C379 1.375 . S
C380 C381 1.367 . S
C380 H394 0.951 . S
C381 C377 1.383 . S
C381 C380 1.367 . S
C381 H395 0.950 . S
C382 C379 1.481 . S
C382 C383 1.297 1_554 S
C382 H396 0.950 . S
C383 C382 1.297 1_556 S
C383 C384 1.479 . S
C383 H397 0.950 . S
C384 C383 1.479 . S
C384 C385 1.375 . S
C384 C390 1.404 . S
C385 C384 1.375 . S
C385 C386 1.369 . S
C385 H398 0.950 . S
C386 C385 1.369 . S
C386 C387 1.392 . S
C386 H399 0.951 . S
C387 C386 1.392 . S
C387 C389 1.384 . S
H388 C390 0.949 1_554 S
C389 C387 1.384 . S
C389 C390 1.385 . S
C389 H391 0.950 . S
C390 C384 1.404 . S
C390 H388 0.949 1_556 S
C390 C389 1.385 . S
H391 C389 0.950 . S
H392 C376 0.951 1_556 S
H393 C378 0.951 . S
H394 C380 0.951 . S
H395 C381 0.950 . S
H396 C382 0.950 . S
H397 C383 0.950 . S
H398 C385 0.950 . S
H399 C386 0.951 . S
C400 C401 1.386 . S
C400 C402 1.383 . S
C400 H416 0.951 . S
C401 C400 1.386 . S
C401 C405 1.383 1_554 S
C402 C400 1.383 . S
C402 C403 1.402 1_554 S
C402 H417 0.951 . S
C403 C402 1.402 1_556 S
C403 C404 1.375 . S
C403 C406 1.481 . S
C404 C403 1.375 . S
C404 C405 1.367 . S
C404 H418 0.951 . S
C405 C401 1.383 1_556 S
C405 C404 1.367 . S
C405 H419 0.950 . S
C406 C403 1.481 . S
C406 C407 1.297 1_556 S
C406 H420 0.950 . S
C407 C406 1.297 1_554 S
C407 C408 1.479 . S
C407 H421 0.950 . S
C408 C407 1.479 . S
C408 C409 1.375 . S
C408 C414 1.404 1_554 S
C409 C408 1.375 . S
C409 C410 1.369 . S
C409 H422 0.950 . S
C410 C409 1.369 . S
C410 C411 1.392 1_554 S
C410 H423 0.951 . S
C411 C410 1.392 1_556 S
C411 C413 1.384 . S
H412 C414 0.949 . S
C413 C411 1.384 . S
C413 C414 1.385 . S
C413 H415 0.950 . S
C414 C408 1.404 1_556 S
C414 H412 0.949 . S
C414 C413 1.385 . S
H415 C413 0.950 . S
H416 C400 0.951 . S
H417 C402 0.951 . S
H418 C404 0.951 . S
H419 C405 0.950 . S
H420 C406 0.950 . S
H421 C407 0.950 . S
H422 C409 0.950 . S
H423 C410 0.951 . S
C424 C425 1.386 . S
C424 C426 1.383 . S
C424 H440 0.951 . S
C425 C424 1.386 . S
C425 C429 1.383 . S
C426 C424 1.383 . S
C426 C427 1.402 . S
C426 H441 0.951 . S
C427 C426 1.402 . S
C427 C428 1.375 1_556 S
C427 C430 1.481 1_556 S
C428 C427 1.375 1_554 S
C428 C429 1.367 1_554 S
C428 H442 0.951 . S
C429 C425 1.383 . S
C429 C428 1.367 1_556 S
C429 H443 0.950 . S
C430 C427 1.481 1_554 S
C430 C431 1.297 . S
C430 H444 0.950 . S
C431 C430 1.297 . S
C431 C432 1.479 . S
C431 H445 0.950 . S
C432 C431 1.479 . S
C432 C433 1.375 . S
C432 C438 1.404 . S
C433 C432 1.375 . S
C433 C434 1.369 . S
C433 H446 0.950 . S
C434 C433 1.369 . S
C434 C435 1.392 . S
C434 H447 0.951 . S
C435 C434 1.392 . S
C435 C437 1.384 . S
H436 C438 0.949 . S
C437 C435 1.384 . S
C437 C438 1.385 . S
C437 H439 0.950 . S
C438 C432 1.404 . S
C438 H436 0.949 . S
C438 C437 1.385 . S
H439 C437 0.950 . S
H440 C424 0.951 . S
H441 C426 0.951 . S
H442 C428 0.951 . S
H443 C429 0.950 . S
H444 C430 0.950 . S
H445 C431 0.950 . S
H446 C433 0.950 . S
H447 C434 0.951 . S
C161 C103 1.928 . S
C171 C2 1.857 . S
C185 C63 2.480 . S
C195 C122 2.477 . S
C209 C143 1.855 . S
C219 C42 1.928 . S
C233 C23 2.492 . S
C243 C82 2.467 . S
C257 C124 1.573 . S
C267 C25 1.570 . S
C281 C111 1.586 . S
C291 C60 1.572 . S
C305 C84 1.572 . S
C315 C65 1.589 . S
C329 C20 1.585 . S
C339 C151 1.561 . S
C353 C140 1.803 . S
C363 C31 1.748 . S
C377 C105 0.528 . S
C387 C44 0.668 . S
C401 C71 1.799 . S
C411 C100 1.781 . S
C425 C4 0.414 . S
C435 C145 0.677 . S
