# Generated by pormake.
# Topology sxa, (6)-cn, num edge types: 1
# Building blocks:
#     Node 0, Type 0, BuildingBlock: MIFKUJ_clean_sbu_0, # of connection points: 6
#     Node 1, Type 0, BuildingBlock: MIFKUJ_clean_sbu_0, # of connection points: 6
#     Node 2, Type 0, BuildingBlock: MIFKUJ_clean_sbu_0, # of connection points: 6
#     Node 3, Type 0, BuildingBlock: MIFKUJ_clean_sbu_0, # of connection points: 6
#     Edge 4, Type (0, 0), BuildingBlock: MIFKUJ_clean_linker_0, # of connection points: 2
#     Edge 5, Type (0, 0), BuildingBlock: MIFKUJ_clean_linker_0, # of connection points: 2
#     Edge 6, Type (0, 0), BuildingBlock: MIFKUJ_clean_linker_0, # of connection points: 2
#     Edge 7, Type (0, 0), BuildingBlock: MIFKUJ_clean_linker_0, # of connection points: 2
#     Edge 8, Type (0, 0), BuildingBlock: MIFKUJ_clean_linker_0, # of connection points: 2
#     Edge 9, Type (0, 0), BuildingBlock: MIFKUJ_clean_linker_0, # of connection points: 2
#     Edge 10, Type (0, 0), BuildingBlock: MIFKUJ_clean_linker_0, # of connection points: 2
#     Edge 11, Type (0, 0), BuildingBlock: MIFKUJ_clean_linker_0, # of connection points: 2
#     Edge 12, Type (0, 0), BuildingBlock: MIFKUJ_clean_linker_0, # of connection points: 2
#     Edge 13, Type (0, 0), BuildingBlock: MIFKUJ_clean_linker_0, # of connection points: 2
#     Edge 14, Type (0, 0), BuildingBlock: MIFKUJ_clean_linker_0, # of connection points: 2
#     Edge 15, Type (0, 0), BuildingBlock: MIFKUJ_clean_linker_0, # of connection points: 2
# Relax obj value: 0.122
# Max RMSD: 0.244
# Mean RMSD: 0.244
data_MOF--net-sxa--node1-MIFKUJ_clean_sbu_0--edge1-MIFKUJ_clean_linker_0
_symmetry_space_group_name_H-M    P1
_symmetry_Int_Tables_number       1
_symmetry_cell_setting            triclinic
loop_
_symmetry_equiv_pos_as_xyz
'x, y, z'
_cell_length_a     38.938938
_cell_length_b     35.281377
_cell_length_c     18.129725
_cell_angle_alpha  97.639055
_cell_angle_beta   89.90889
_cell_angle_gamma 90.090121
loop_
_atom_site_label
_atom_site_type_symbol
_atom_site_fract_x
_atom_site_fract_y
_atom_site_fract_z
_atom_type_partial_charge
Zn0 Zn 0.96762 0.79077 0.24628 0.0
Zn1 Zn 0.07045 0.78877 0.19361 0.0
C2 C 0.92149 0.76612 0.3502 0.0
O3 O 0.92538 0.73531 0.30159 0.0
C4 C 0.07674 0.76638 0.03643 0.0
O5 O 0.04501 0.75463 0.04316 0.0
O6 O 0.93001 0.78552 0.1734 0.0
O7 O 0.98994 0.83982 0.2224 0.0
O8 O 0.0455 0.83888 0.19445 0.0
C9 C 0.90818 0.81215 0.1743 0.0
O10 O 0.9125 0.84383 0.22038 0.0
O11 O 0.93992 0.79536 0.34317 0.0
C12 C 0.12821 0.76143 0.26553 0.0
O13 O 0.12027 0.73136 0.21777 0.0
O14 O 0.10946 0.79115 0.26836 0.0
O15 O 0.0448 0.73904 0.19126 0.0
O16 O 0.98973 0.73889 0.22121 0.0
O17 O 0.09274 0.78232 0.09342 0.0
C18 C 0.01703 0.85644 0.20381 0.0
C19 C 0.01717 0.72116 0.20049 0.0
Zn20 Zn 0.44586 0.28189 0.21327 0.0
Zn21 Zn 0.54592 0.26217 0.22134 0.0
C22 C 0.39663 0.26092 0.31267 0.0
O23 O 0.39761 0.23139 0.26024 0.0
C24 C 0.55101 0.23646 0.06004 0.0
O25 O 0.5292 0.26352 0.0491 0.0
O26 O 0.41083 0.2899 0.13793 0.0
O27 O 0.47974 0.32288 0.19699 0.0
O28 O 0.53634 0.31707 0.20041 0.0
C29 C 0.39853 0.32339 0.14104 0.0
O30 O 0.40902 0.35011 0.19367 0.0
O31 O 0.41813 0.28796 0.30962 0.0
C32 C 0.61184 0.23969 0.27865 0.0
O33 O 0.60961 0.21257 0.22175 0.0
O34 O 0.58734 0.26366 0.29102 0.0
O35 O 0.50773 0.23024 0.25738 0.0
O36 O 0.4625 0.22852 0.18474 0.0
O37 O 0.56038 0.23263 0.1256 0.0
C38 C 0.50961 0.33669 0.1912 0.0
C39 C 0.48772 0.21165 0.21009 0.0
Zn40 Zn 0.94733 0.26044 0.87655 0.0
Zn41 Zn 0.01986 0.26286 0.79383 0.0
C42 C 0.90537 0.27986 0.76502 0.0
O43 O 0.90117 0.30728 0.82088 0.0
C44 C 0.07378 0.24783 0.88632 0.0
O45 O 0.07641 0.21852 0.8337 0.0
O46 O 0.90451 0.25504 0.93448 0.0
O47 O 0.97717 0.21836 0.90178 0.0
O48 O 0.00115 0.20768 0.79123 0.0
C49 C 0.89137 0.22179 0.92401 0.0
O50 O 0.90827 0.19413 0.88398 0.0
O51 O 0.92824 0.25462 0.77101 0.0
C52 C 0.07696 0.28978 0.71606 0.0
O53 O 0.07276 0.31857 0.76916 0.0
O54 O 0.05571 0.26206 0.71143 0.0
O55 O 0.99416 0.3144 0.80125 0.0
O56 O 0.96587 0.31244 0.90638 0.0
O57 O 0.04875 0.27058 0.88451 0.0
C58 C 0.99211 0.19594 0.85184 0.0
C59 C 0.98081 0.33143 0.86102 0.0
Zn60 Zn 0.45203 0.74933 0.84274 0.0
Zn61 Zn 0.53933 0.74503 0.81644 0.0
C62 C 0.43277 0.7739 0.70978 0.0
O63 O 0.43019 0.80499 0.75808 0.0
C64 C 0.58052 0.70969 0.91576 0.0
O65 O 0.57982 0.68127 0.86101 0.0
O66 O 0.40298 0.7407 0.86782 0.0
O67 O 0.47588 0.70817 0.88825 0.0
O68 O 0.51309 0.69383 0.79854 0.0
C69 C 0.39144 0.71016 0.83084 0.0
O70 O 0.41239 0.6881 0.78748 0.0
O71 O 0.44804 0.74504 0.72993 0.0
C72 C 0.60074 0.77297 0.75292 0.0
O73 O 0.59394 0.80239 0.80315 0.0
O74 O 0.57967 0.74505 0.74411 0.0
O75 O 0.5202 0.7999 0.84385 0.0
O76 O 0.46664 0.80156 0.88607 0.0
O77 O 0.56341 0.73965 0.90989 0.0
C78 C 0.49703 0.68476 0.85478 0.0
C79 C 0.49466 0.81836 0.87486 0.0
H80 H 0.93477 0.3794 0.9375 0.0
H81 H 0.94304 0.44671 0.98764 0.0
H82 H 0.04326 0.44507 0.88595 0.0
H83 H 0.03466 0.37778 0.83356 0.0
H84 H 0.03944 0.47287 0.04785 0.0
H85 H 0.9907 0.49444 0.81549 0.0
H86 H 0.94853 0.48681 0.71333 0.0
H87 H 0.8691 0.53147 0.86489 0.0
H88 H 0.91071 0.5388 0.96832 0.0
H89 H 0.06932 0.67389 0.14277 0.0
H90 H 0.06462 0.60799 0.08234 0.0
H91 H 0.95663 0.60773 0.13529 0.0
H92 H 0.96096 0.67378 0.19537 0.0
H93 H 0.96715 0.58105 0.99159 0.0
H94 H 0.01404 0.55694 0.22457 0.0
H95 H 0.055 0.56348 0.32904 0.0
H96 H 0.13654 0.52261 0.17974 0.0
H97 H 0.09613 0.51634 0.07409 0.0
C98 C 0.95831 0.39359 0.92457 0.0
C99 C 0.98404 0.37337 0.88137 0.0
C100 C 0.963 0.43201 0.95335 0.0
C101 C 0.9938 0.45082 0.94077 0.0
C102 C 0.01931 0.43102 0.89629 0.0
C103 C 0.01427 0.39272 0.86593 0.0
C104 C -0.00032 0.49052 0.97753 0.0
C105 C 0.02413 0.49674 0.03467 0.0
C106 C 0.97896 0.52131 0.96176 0.0
C107 C 0.95377 0.51677 0.89985 0.0
C108 C 0.96416 0.50224 0.82724 0.0
C109 C 0.94038 0.49805 0.76905 0.0
C110 C 0.90613 0.50854 0.78265 0.0
C111 C 0.89563 0.5233 0.85447 0.0
C112 C 0.91931 0.5275 0.9129 0.0
C113 C 0.04465 0.65969 0.14289 0.0
C114 C 0.01552 0.67935 0.17422 0.0
C115 C 0.04202 0.62189 0.10814 0.0
C116 C 0.01026 0.60278 0.10415 0.0
C117 C 0.98138 0.62189 0.13734 0.0
C118 C 0.98398 0.65965 0.17223 0.0
C119 C 0.0068 0.56354 0.06261 0.0
C120 C 0.9827 0.55734 1.0046 0.0
C121 C 0.02772 0.53271 0.07796 0.0
C122 C 0.05213 0.53661 0.14127 0.0
C123 C 0.04077 0.5497 0.21387 0.0
C124 C 0.06387 0.55329 0.27333 0.0
C125 C 0.09837 0.54359 0.261 0.0
C126 C 0.10982 0.53019 0.18918 0.0
C127 C 0.08683 0.5266 0.12949 0.0
H128 H 0.11622 0.54636 0.30713 0.0
H129 H 0.88776 0.50532 0.7375 0.0
H130 H 0.56478 0.38679 0.1975 0.0
H131 H 0.56829 0.44714 0.14331 0.0
H132 H 0.46559 0.42871 0.05709 0.0
H133 H 0.46164 0.3699 0.11204 0.0
H134 H 0.5652 0.46616 0.00591 0.0
H135 H 0.42257 0.50828 0.05556 0.0
H136 H 0.37632 0.50025 0.14539 0.0
H137 H 0.45124 0.48984 0.31504 0.0
H138 H 0.49791 0.49822 0.22647 0.0
H139 H 0.51695 0.6136 0.78536 0.0
H140 H 0.52516 0.55524 0.84396 0.0
H141 H 0.50637 0.6198 0.0596 0.0
H142 H 0.49653 0.677 1.00119 0.0
H143 H 0.47115 0.56086 0.05375 0.0
H144 H 0.5906 0.58008 0.99629 0.0
H145 H 0.64092 0.58865 0.91704 0.0
H146 H 0.61768 0.48305 0.77995 0.0
H147 H 0.56752 0.47353 0.85882 0.0
C148 C 0.54286 0.39595 0.16773 0.0
C149 C 0.51257 0.37393 0.16116 0.0
C150 C 0.54495 0.43032 0.13632 0.0
C151 C 0.51692 0.44309 0.09726 0.0
C152 C 0.48722 0.42036 0.08879 0.0
C153 C 0.48495 0.3866 0.12079 0.0
C154 C 0.51806 0.48014 0.06554 0.0
C155 C 0.54476 0.48701 0.01671 0.0
C156 C 0.49165 0.50774 0.07993 0.0
C157 C 0.46372 0.50362 0.13418 0.0
C158 C 0.42916 0.50452 0.11215 0.0
C159 C 0.40288 0.49983 0.16281 0.0
C160 C 0.41084 0.49444 0.23581 0.0
C161 C 0.44511 0.49389 0.25841 0.0
C162 C 0.47148 0.49857 0.20799 0.0
C163 C 0.51488 0.6152 0.84527 0.0
C164 C 0.50561 0.64976 0.88848 0.0
C165 C 0.51981 0.58189 0.87897 0.0
C166 C 0.51646 0.58279 0.9567 0.0
C167 C 0.50872 0.61788 0.99967 0.0
C168 C 0.50309 0.65071 0.96608 0.0
C169 C 0.51834 0.54722 0.99362 0.0
C170 C 0.49191 0.54038 0.04321 0.0
C171 C 0.5454 0.52025 0.98112 0.0
C172 C 0.57515 0.52629 0.933 0.0
C173 C 0.59609 0.55884 0.94892 0.0
C174 C 0.6246 0.56384 0.90419 0.0
C175 C 0.63229 0.53662 0.8432 0.0
C176 C 0.61164 0.50417 0.82709 0.0
C177 C 0.58327 0.49886 0.87196 0.0
H178 H 0.65435 0.54059 0.80864 0.0
H179 H 0.39046 0.49076 0.2749 0.0
H180 H 0.44345 0.86968 0.9167 0.0
H181 H 0.449 0.93663 0.9704 0.0
H182 H 0.55922 0.92814 0.95313 0.0
H183 H 0.55391 0.86083 0.89883 0.0
H184 H 0.53631 0.96468 0.09324 0.0
H185 H 0.51944 0.97528 0.83544 0.0
H186 H 0.49098 0.96229 0.71328 0.0
H187 H 0.39747 0.01152 0.80814 0.0
H188 H 0.42523 0.02432 0.93116 0.0
H189 H 0.54785 0.16965 0.20182 0.0
H190 H 0.55582 0.10359 0.14162 0.0
H191 H 0.44692 0.09465 0.0985 0.0
H192 H 0.43928 0.16054 0.15482 0.0
H193 H 0.47805 0.06761 0.97982 0.0
H194 H 0.49146 0.05021 0.23886 0.0
H195 H 0.518 0.06168 0.36331 0.0
H196 H 0.61555 0.02454 0.26952 0.0
H197 H 0.58963 0.01326 0.14434 0.0
C198 C 0.46892 0.882 0.9238 0.0
C199 C 0.49823 0.85979 0.90311 0.0
C200 C 0.47204 0.92038 0.95449 0.0
C201 C 0.50453 0.93752 0.96561 0.0
C202 C 0.5339 0.91553 0.94508 0.0
C203 C 0.53079 0.87713 0.91354 0.0
C204 C 0.50741 0.97834 0.99915 0.0
C205 C 0.52409 0.98736 0.06793 0.0
C206 C 0.49108 1.00786 0.96674 0.0
C207 C 0.47437 1.00051 0.89266 0.0
C208 C 0.49274 0.9831 0.83037 0.0
C209 C 0.47674 0.97581 0.76095 0.0
C210 C 0.44242 0.98601 0.75298 0.0
C211 C 0.42406 1.00362 0.8144 0.0
C212 C 0.43992 0.01094 0.88397 0.0
C213 C 0.52567 0.15338 0.18001 0.0
C214 C 0.49299 0.17046 0.18265 0.0
C215 C 0.53018 0.11554 0.14573 0.0
C216 C 0.50194 0.09381 0.11527 0.0
C217 C 0.46924 0.11067 0.12053 0.0
C218 C 0.46487 0.14843 0.15323 0.0
C219 C 0.50585 0.05403 0.07568 0.0
C220 C 0.49057 0.04514 0.00522 0.0
C221 C 0.52317 0.02466 0.10703 0.0
C222 C 0.53871 0.03132 0.1822 0.0
C223 C 0.51862 0.04476 0.24474 0.0
C224 C 0.53353 0.05117 0.3154 0.0
C225 C 0.56846 0.04396 0.32428 0.0
C226 C 0.58852 0.03019 0.26253 0.0
C227 C 0.57373 0.02376 0.19174 0.0
H228 H 0.57996 0.04895 0.37903 0.0
H229 H 0.43008 0.98032 0.69919 0.0
H230 H 0.06822 0.90873 0.19099 0.0
H231 H 0.06482 0.96653 0.12968 0.0
H232 H 0.95661 0.94704 0.09192 0.0
H233 H 0.95956 0.88979 0.15441 0.0
H234 H -0.00293 0.95829 0.96071 0.0
H235 H 0.9754 0.01677 0.21163 0.0
H236 H 0.98745 0.03166 0.34582 0.0
H237 H 0.08348 0.08307 0.29736 0.0
H238 H 0.07223 0.06796 0.16274 0.0
H239 H 0.95052 0.13359 0.82935 0.0
H240 H 0.95645 0.07466 0.88609 0.0
H241 H 0.05567 0.11267 0.97264 0.0
H242 H 0.04883 0.17217 0.91892 0.0
H243 H 0.02069 0.09073 0.07863 0.0
H244 H 0.04392 0.03422 0.82989 0.0
H245 H 0.03461 0.0182 0.69487 0.0
H246 H 0.94005 0.96176 0.73589 0.0
H247 H 0.94853 0.97795 0.87124 0.0
C248 C 0.04354 0.91718 0.17106 0.0
C249 C 0.01413 0.89467 0.17815 0.0
C250 C 0.04167 0.95015 0.13578 0.0
C251 C 0.0105 0.96095 0.10581 0.0
C252 C 0.98094 0.93916 0.11444 0.0
C253 C 0.98263 0.90662 0.15094 0.0
C254 C 0.00903 0.99409 0.06298 0.0
C255 C 0.00179 0.98737 0.98649 0.0
C256 C 0.01629 0.03178 0.09621 0.0
C257 C 0.02315 0.04082 0.17709 0.0
C258 C -0.00075 0.03089 0.22956 0.0
C259 C 0.0059 0.03945 0.30571 0.0
C260 C 0.03626 0.05819 0.3301 0.0
C261 C 0.06 0.06849 0.27838 0.0
C262 C 0.05349 0.05995 0.20215 0.0
C263 C 0.97403 0.12868 0.85847 0.0
C264 C -0.00032 0.1569 0.86785 0.0
C265 C 0.97744 0.095 0.89107 0.0
C266 C 0.0067 0.0888 0.93342 0.0
C267 C 0.0329 0.11653 0.94022 0.0
C268 C 0.02928 0.15032 0.90833 0.0
C269 C 0.00877 0.05519 0.97558 0.0
C270 C 0.01609 0.06174 0.05223 0.0
C271 C 0.00201 0.01726 0.94216 0.0
C272 C -0.0033 1.00766 0.86077 0.0
C273 C 0.02098 0.01871 0.81015 0.0
C274 C 0.01588 1.00953 0.73354 0.0
C275 C 0.98671 0.98908 0.70682 0.0
C276 C 0.9626 0.97767 0.75667 0.0
C277 C 0.96756 0.98682 0.83335 0.0
H278 H 0.98282 0.98198 0.64748 0.0
H279 H 0.04135 0.06482 0.38908 0.0
H280 H 0.40275 0.83095 0.64624 0.0
H281 H 0.35336 0.8255 0.56287 0.0
H282 H 0.35892 0.7026 0.54421 0.0
H283 H 0.40848 0.70776 0.62855 0.0
H284 H 0.34056 0.73491 0.40615 0.0
H285 H 0.30892 0.74244 0.66549 0.0
H286 H 0.31001 0.77145 0.79685 0.0
H287 H 0.26694 0.87495 0.73702 0.0
H288 H 0.2665 0.84704 0.60489 0.0
H289 H 0.17005 0.70069 0.27877 0.0
H290 H 0.22367 0.70029 0.34804 0.0
H291 H 0.21224 0.82082 0.4237 0.0
H292 H 0.15797 0.82121 0.35576 0.0
H293 H 0.23425 0.78671 0.53305 0.0
H294 H 0.26845 0.78597 0.27996 0.0
H295 H 0.27049 0.76376 0.14518 0.0
H296 H 0.30985 0.65522 0.18805 0.0
H297 H 0.30767 0.67664 0.3233 0.0
C298 C 0.39411 0.80268 0.62297 0.0
C299 C 0.40945 0.7698 0.64456 0.0
C300 C 0.36577 0.79966 0.57546 0.0
C301 C 0.35215 0.76369 0.54838 0.0
C302 C 0.36904 0.73064 0.56468 0.0
C303 C 0.39747 0.73364 0.61263 0.0
C304 C 0.31855 0.76109 0.50932 0.0
C305 C 0.31717 0.74565 0.43401 0.0
C306 C 0.28826 0.77619 0.54534 0.0
C307 C 0.28804 0.79275 0.62507 0.0
C308 C 0.30003 0.77152 0.68017 0.0
C309 C 0.30049 0.78774 0.75481 0.0
C310 C 0.28861 0.82499 0.77528 0.0
C311 C 0.27623 0.84612 0.72109 0.0
C312 C 0.2759 0.83013 0.64628 0.0
C313 C 0.17882 0.72714 0.31035 0.0
C314 C 0.15978 0.76107 0.31126 0.0
C315 C 0.20967 0.7269 0.34963 0.0
C316 C 0.22249 0.76068 0.38995 0.0
C317 C 0.20304 0.7944 0.39268 0.0
C318 C 0.172 0.79461 0.35376 0.0
C319 C 0.2561 0.76084 0.42925 0.0
C320 C 0.25751 0.77575 0.50493 0.0
C321 C 0.28651 0.74596 0.39307 0.0
C322 C 0.28758 0.73279 0.31183 0.0
C323 C 0.27726 0.75725 0.26071 0.0
C324 C 0.27851 0.74483 0.18423 0.0
C325 C 0.29029 0.70811 0.1581 0.0
C326 C 0.30076 0.68368 0.20841 0.0
C327 C 0.29955 0.69595 0.28499 0.0
H328 H 0.2914 0.69866 0.09885 0.0
H329 H 0.28891 0.83743 0.83316 0.0
H330 H 0.10241 0.22844 0.62272 0.0
H331 H 0.15739 0.22456 0.55595 0.0
H332 H 0.17756 0.34297 0.63697 0.0
H333 H 0.12281 0.34713 0.70356 0.0
H334 H 0.19542 0.32353 0.48756 0.0
H335 H 0.21006 0.27415 0.72134 0.0
H336 H 0.19667 0.23078 0.81317 0.0
H337 H 0.22533 0.1341 0.65619 0.0
H338 H 0.23784 0.17675 0.56221 0.0
H339 H 0.37359 0.32512 0.4022 0.0
H340 H 0.32044 0.33131 0.47585 0.0
H341 H 0.30047 0.21088 0.41605 0.0
H342 H 0.3534 0.20444 0.34351 0.0
H343 H 0.28286 0.23261 0.55761 0.0
H344 H 0.26359 0.27616 0.32262 0.0
H345 H 0.27546 0.3152 0.22272 0.0
H346 H 0.25268 0.41737 0.37121 0.0
H347 H 0.24182 0.37887 0.47298 0.0
C348 C 0.11832 0.25379 0.62547 0.0
C349 C 0.10825 0.28805 0.66879 0.0
C350 C 0.14981 0.25148 0.58756 0.0
C351 C 0.17177 0.28338 0.59215 0.0
C352 C 0.16109 0.318 0.63271 0.0
C353 C 0.12978 0.32026 0.67095 0.0
C354 C 0.20654 0.28042 0.55764 0.0
C355 C 0.21469 0.30401 0.50355 0.0
C356 C 0.23143 0.25424 0.5772 0.0
C357 C 0.22452 0.22868 0.63433 0.0
C358 C 0.21313 0.24362 0.70597 0.0
C359 C 0.2057 0.21915 0.75849 0.0
C360 C 0.21009 0.17973 0.74062 0.0
C361 C 0.22191 0.16466 0.67001 0.0
C362 C 0.22912 0.18896 0.61701 0.0
C363 C 0.35821 0.29985 0.406 0.0
C364 C 0.36765 0.26434 0.36654 0.0
C365 C 0.3277 0.30346 0.44767 0.0
C366 C 0.30611 0.27165 0.45059 0.0
C367 C 0.31655 0.23586 0.41457 0.0
C368 C 0.34685 0.23227 0.37285 0.0
C369 C 0.27179 0.27569 0.48736 0.0
C370 C 0.26368 0.2523 0.54189 0.0
C371 C 0.24668 0.30148 0.46717 0.0
C372 C 0.25246 0.32467 0.40576 0.0
C373 C 0.26144 0.30698 0.33421 0.0
C374 C 0.26798 0.32904 0.27721 0.0
C375 C 0.26496 0.36882 0.29064 0.0
C376 C 0.25518 0.38657 0.36101 0.0
C377 C 0.24892 0.36465 0.41845 0.0
H378 H 0.27011 0.38594 0.24655 0.0
H379 H 0.2044 0.16088 0.78152 0.0
H380 H 0.89806 0.22101 0.64915 0.0
H381 H 0.85066 0.21203 0.55887 0.0
H382 H 0.80753 0.3202 0.65326 0.0
H383 H 0.85445 0.32955 0.74224 0.0
H384 H 0.76074 0.26065 0.64483 0.0
H385 H 0.84494 0.31144 0.48845 0.0
H386 H 0.89995 0.31323 0.42151 0.0
H387 H 0.87811 0.20347 0.29779 0.0
H388 H 0.82323 0.20069 0.365 0.0
H389 H 0.62696 0.29358 0.398 0.0
H390 H 0.67888 0.29822 0.4745 0.0
H391 H 0.71935 0.19709 0.34339 0.0
H392 H 0.66797 0.19278 0.2658 0.0
H393 H 0.76836 0.24663 0.36966 0.0
H394 H 0.68316 0.19698 0.51646 0.0
H395 H 0.62759 0.19369 0.58005 0.0
H396 H 0.65139 0.297 0.72407 0.0
H397 H 0.70646 0.30207 0.65872 0.0
C398 C 0.87881 0.24316 0.64966 0.0
C399 C 0.88003 0.2759 0.70324 0.0
C400 C 0.85171 0.23797 0.59816 0.0
C401 C 0.82542 0.26537 0.59966 0.0
C402 C 0.82736 0.29857 0.65136 0.0
C403 C 0.85437 0.30388 0.70214 0.0
C404 C 0.79473 0.25901 0.55076 0.0
C405 C 0.76232 0.25811 0.58461 0.0
C406 C 0.79695 0.25417 0.47218 0.0
C407 C 0.83022 0.25558 0.43269 0.0
C408 C 0.85208 0.28743 0.44775 0.0
C409 C 0.88319 0.28868 0.40957 0.0
C410 C 0.8926 0.2584 0.35568 0.0
C411 C 0.87086 0.22684 0.33974 0.0
C412 C 0.83976 0.2254 0.3779 0.0
C413 C 0.64686 0.27227 0.38554 0.0
C414 C 0.64308 0.24261 0.32612 0.0
C415 C 0.67654 0.27487 0.42952 0.0
C416 C 0.70291 0.24762 0.41565 0.0
C417 C 0.6994 0.21838 0.35557 0.0
C418 C 0.66984 0.21586 0.31141 0.0
C419 C 0.73413 0.24963 0.46364 0.0
C420 C 0.76665 0.24933 0.42978 0.0
C421 C 0.73204 0.25305 0.54233 0.0
C422 C 0.69885 0.25016 0.58189 0.0
C423 C 0.6764 0.21932 0.56098 0.0
C424 C 0.64496 0.21714 0.59739 0.0
C425 C 0.63597 0.24507 0.6562 0.0
C426 C 0.65836 0.27541 0.6784 0.0
C427 C 0.68963 0.27807 0.6414 0.0
H428 H 0.61171 0.24314 0.68471 0.0
H429 H 0.91667 0.25946 0.32609 0.0
H430 H 0.8896 0.82944 0.42569 0.0
H431 H 0.83681 0.8306 0.50004 0.0
H432 H 0.83516 0.70724 0.47045 0.0
H433 H 0.88714 0.70598 0.39502 0.0
H434 H 0.77472 0.73141 0.44312 0.0
H435 H 0.85669 0.76394 0.636 0.0
H436 H 0.90306 0.80011 0.70596 0.0
H437 H 0.83952 0.90031 0.73706 0.0
H438 H 0.79288 0.8649 0.66628 0.0
H439 H 0.63702 0.70956 0.69379 0.0
H440 H 0.69379 0.70758 0.63498 0.0
H441 H 0.69621 0.83094 0.66122 0.0
H442 H 0.64036 0.83294 0.72349 0.0
H443 H 0.75674 0.80583 0.69187 0.0
H444 H 0.67366 0.76901 0.49664 0.0
H445 H 0.627 0.72761 0.44046 0.0
H446 H 0.69489 0.63105 0.41611 0.0
H447 H 0.74138 0.67124 0.47663 0.0
C448 C 0.87831 0.8026 0.43624 0.0
C449 C 0.89265 0.76762 0.40443 0.0
C450 C 0.84805 0.80327 0.47872 0.0
C451 C 0.83182 0.76897 0.49118 0.0
C452 C 0.84688 0.73411 0.46141 0.0
C453 C 0.87681 0.73344 0.41854 0.0
C454 C 0.7984 0.76902 0.53207 0.0
C455 C 0.77098 0.7474 0.49791 0.0
C456 C 0.79313 0.79027 0.6032 0.0
C457 C 0.82136 0.81181 0.64502 0.0
C458 C 0.8527 0.79381 0.65695 0.0
C459 C 0.87903 0.81416 0.69696 0.0
C460 C 0.87429 0.85253 0.72573 0.0
C461 C 0.84318 0.8706 0.71465 0.0
C462 C 0.81677 0.85038 0.67464 0.0
C463 C 0.64957 0.73623 0.68645 0.0
C464 C 0.63399 0.77141 0.71238 0.0
C465 C 0.6821 0.7351 0.65289 0.0
C466 C 0.69926 0.76913 0.6422 0.0
C467 C 0.68367 0.80425 0.66852 0.0
C468 C 0.65157 0.80538 0.70363 0.0
C469 C 0.73308 0.76845 0.60267 0.0
C470 C 0.76052 0.78998 0.63698 0.0
C471 C 0.73852 0.74677 0.53195 0.0
C472 C 0.71096 0.72313 0.49211 0.0
C473 C 0.67861 0.73889 0.47999 0.0
C474 C 0.65211 0.71557 0.44778 0.0
C475 C 0.65801 0.67678 0.42455 0.0
C476 C 0.69035 0.66111 0.43414 0.0
C477 C 0.71671 0.68409 0.46798 0.0
H478 H 0.63752 0.65888 0.39902 0.0
H479 H 0.89469 0.86823 0.75677 0.0
H480 H 0.3446 0.72976 0.94084 0.0
H481 H 0.28243 0.71948 0.93364 0.0
H482 H 0.293 0.66255 0.70894 0.0
H483 H 0.35529 0.67214 0.71627 0.0
H484 H 0.24517 0.72219 0.72491 0.0
H485 H 0.26786 0.60917 0.82866 0.0
H486 H 0.29443 0.56845 0.91315 0.0
H487 H 0.24514 0.63391 0.10021 0.0
H488 H 0.21893 0.67563 0.01725 0.0
H489 H 0.06949 0.70086 0.94007 0.0
H490 H 0.11231 0.67407 0.84855 0.0
H491 H 0.17016 0.77923 0.88702 0.0
H492 H 0.12813 0.80555 0.9797 0.0
H493 H 0.17563 0.66788 0.91483 0.0
H494 H 0.22059 0.78667 0.73697 0.0
H495 H 0.19551 0.82795 0.65184 0.0
H496 H 0.10905 0.75226 0.61408 0.0
H497 H 0.13393 0.71006 0.69791 0.0
C498 C 0.33366 0.71455 0.89046 0.0
C499 C 0.35454 0.70165 0.82926 0.0
C500 C 0.2983 0.70846 0.8865 0.0
C501 C 0.28337 0.68989 0.82096 0.0
C502 C 0.30422 0.67653 0.76011 0.0
C503 C 0.33968 0.68199 0.76453 0.0
C504 C 0.24568 0.68804 0.81477 0.0
C505 C 0.22973 0.71002 0.76568 0.0
C506 C 0.22571 0.67061 0.86593 0.0
C507 C 0.24138 0.64557 0.91647 0.0
C508 C 0.26286 0.61508 0.88786 0.0
C509 C 0.27788 0.59181 0.93554 0.0
C510 C 0.2715 0.59861 0.012 0.0
C511 C 0.25003 0.62865 0.04095 0.0
C512 C 0.23506 0.65211 0.99358 0.0
C513 C 0.09062 0.71876 0.92658 0.0
C514 C 0.09604 0.75495 0.96749 0.0
C515 C 0.11492 0.70348 0.87413 0.0
C516 C 0.1443 0.72469 0.86103 0.0
C517 C 0.14744 0.76256 0.89558 0.0
C518 C 0.12365 0.77746 0.94909 0.0
C519 C 0.17559 0.70522 0.82987 0.0
C520 C 0.19064 0.67907 0.87208 0.0
C521 C 0.19476 0.7193 0.77311 0.0
C522 C 0.17924 0.7451 0.72386 0.0
C523 C 0.19638 0.77862 0.71013 0.0
C524 C 0.18215 0.80225 0.66217 0.0
C525 C 0.15072 0.79272 0.6275 0.0
C526 C 0.13339 0.75962 0.64103 0.0
C527 C 0.14752 0.73588 0.68894 0.0
H528 H 0.13979 0.81099 0.59021 0.0
H529 H 0.28315 0.58057 0.04882 0.0
H530 H 0.13185 0.20701 0.90282 0.0
H531 H 0.18679 0.23318 0.95013 0.0
H532 H 0.13906 0.34231 0.01956 0.0
H533 H 0.08375 0.31634 0.97352 0.0
H534 H 0.21163 0.29542 0.87885 0.0
H535 H 0.19728 0.38572 0.16829 0.0
H536 H 0.16801 0.38501 0.28886 0.0
H537 H 0.15647 0.26312 0.24329 0.0
H538 H 0.18616 0.26301 0.12311 0.0
H539 H 0.36001 0.38844 0.14638 0.0
H540 H 0.30434 0.39413 0.0869 0.0
H541 H 0.31586 0.28002 0.96977 0.0
H542 H 0.37141 0.27451 0.02738 0.0
H543 H 0.25673 0.35011 0.12511 0.0
H544 H 0.26526 0.25873 0.83201 0.0
H545 H 0.29856 0.25623 0.71573 0.0
H546 H 0.32818 0.37362 0.77455 0.0
H547 H 0.29427 0.37711 0.89028 0.0
C548 C 0.13277 0.23623 0.9302 0.0
C549 C 0.10374 0.25988 0.93295 0.0
C550 C 0.16415 0.25113 0.95689 0.0
C551 C 0.16686 0.28978 0.98652 0.0
C552 C 0.13731 0.31243 0.99646 0.0
C553 C 0.10579 0.29749 0.97009 0.0
C554 C 0.20106 0.30736 0.99632 0.0
C555 C 0.22184 0.3069 0.93286 0.0
C556 C 0.2132 0.32455 0.06603 0.0
C557 C 0.19324 0.32451 0.13582 0.0
C558 C 0.18817 0.35882 0.18366 0.0
C559 C 0.17166 0.35854 0.25212 0.0
C560 C 0.16018 0.32407 0.27351 0.0
C561 C 0.16513 0.28983 0.2264 0.0
C562 C 0.18169 0.28995 0.15793 0.0
C563 C 0.35115 0.3651 0.10598 0.0
C564 C 0.3695 0.33058 0.09304 0.0
C565 C 0.31946 0.36852 0.07168 0.0
C566 C 0.30589 0.33752 0.024 0.0
C567 C 0.32594 0.30462 0.0053 0.0
C568 C 0.35756 0.30123 0.0393 0.0
C569 C 0.26866 0.33511 0.00893 0.0
C570 C 0.24667 0.33904 0.07093 0.0
C571 C 0.25569 0.32037 0.93822 0.0
C572 C 0.277 0.31822 0.86971 0.0
C573 C 0.27858 0.28413 0.8198 0.0
C574 C 0.29763 0.28251 0.75403 0.0
C575 C 0.31544 0.31477 0.73769 0.0
C576 C 0.31435 0.34865 0.78727 0.0
C577 C 0.29523 0.35045 0.85302 0.0
H578 H 0.33011 0.31349 0.68665 0.0
H579 H 0.1476 0.32388 0.32674 0.0
H580 H 0.57809 0.26957 0.94648 0.0
H581 H 0.63453 0.25238 0.89379 0.0
H582 H 0.63135 0.14663 0.98834 0.0
H583 H 0.57518 0.16401 0.04245 0.0
H584 H 0.67384 0.23265 0.04761 0.0
H585 H 0.70744 0.1012 0.84208 0.0
H586 H 0.68147 0.05972 0.73663 0.0
H587 H 0.62223 0.15423 0.6805 0.0
H588 H 0.64913 0.19679 0.78307 0.0
H589 H 0.85767 0.15393 0.92219 0.0
H590 H 0.79579 0.14452 0.93458 0.0
H591 H 0.78161 0.26686 0.97614 0.0
H592 H 0.84327 0.27636 0.96619 0.0
H593 H 0.74702 0.16352 0.85003 0.0
H594 H 0.71309 0.29118 0.08072 0.0
H595 H 0.73701 0.3227 0.19911 0.0
H596 H 0.79428 0.22143 0.22481 0.0
H597 H 0.77034 0.18905 0.1071 0.0
C598 C 0.58834 0.24153 0.95177 0.0
C599 C 0.57289 0.21841 0.99963 0.0
C600 C 0.62064 0.23176 0.92175 0.0
C601 C 0.63701 0.19846 0.93802 0.0
C602 C 0.6189 0.17229 0.97491 0.0
C603 C 0.58685 0.18227 0.00582 0.0
C604 C 0.67469 0.19794 0.94053 0.0
C605 C 0.69002 0.21802 1.00401 0.0
C606 C 0.69515 0.17668 0.88576 0.0
C607 C 0.67988 0.15208 0.82133 0.0
C608 C 0.68913 0.11327 0.80679 0.0
C609 C 0.67436 0.0896 0.74726 0.0
C610 C 0.65023 0.10437 0.70184 0.0
C611 C 0.64105 0.14292 0.7155 0.0
C612 C 0.65605 0.16684 0.77441 0.0
C613 C 0.84137 0.17875 0.93559 0.0
C614 C 0.85522 0.21588 0.94323 0.0
C615 C 0.80606 0.17333 0.94221 0.0
C616 C 0.78412 0.20494 0.9564 0.0
C617 C 0.7981 0.24199 0.9665 0.0
C618 C 0.83338 0.24741 0.96073 0.0
C619 C 0.74645 0.19971 0.95597 0.0
C620 C 0.73101 0.17823 0.89375 0.0
C621 C 0.72562 0.21853 0.01337 0.0
C622 C 0.74018 0.23782 0.08446 0.0
C623 C 0.73069 0.27556 0.11168 0.0
C624 C 0.74427 0.29359 0.17869 0.0
C625 C 0.76729 0.27415 0.21921 0.0
C626 C 0.7766 0.23653 0.1931 0.0
C627 C 0.76309 0.21835 0.12614 0.0
H628 H 0.77789 0.28826 0.27084 0.0
H629 H 0.63865 0.08596 0.65606 0.0
H630 H 0.88983 0.74676 0.08642 0.0
H631 H 0.83212 0.7275 0.0471 0.0
H632 H 0.79403 0.83922 0.13562 0.0
H633 H 0.85188 0.85849 0.17757 0.0
H634 H 0.75911 0.78531 0.1898 0.0
H635 H 0.79373 0.80778 0.94574 0.0
H636 H 0.82999 0.80316 0.83321 0.0
H637 H 0.81736 0.68116 0.80026 0.0
H638 H 0.78125 0.685 0.91287 0.0
H639 H 0.59505 0.76931 0.02248 0.0
H640 H 0.65048 0.78173 0.08127 0.0
H641 H 0.68342 0.66734 0.99673 0.0
H642 H 0.62816 0.65531 0.93442 0.0
H643 H 0.72156 0.71977 0.94431 0.0
H644 H 0.67812 0.70241 0.18534 0.0
H645 H 0.63577 0.7134 0.28681 0.0
H646 H 0.66203 0.83265 0.32209 0.0
H647 H 0.70344 0.8228 0.2185 0.0
C648 C 0.86936 0.76759 0.0962 0.0
C649 C 0.87522 0.80396 0.13616 0.0
C650 C 0.83638 0.75655 0.07328 0.0
C651 C 0.80887 0.78192 0.08869 0.0
C652 C 0.81503 0.8192 0.12376 0.0
C653 C 0.84805 0.8302 0.14732 0.0
C654 C 0.77345 0.76809 0.0753 0.0
C655 C 0.75065 0.77142 0.13589 0.0
C656 C 0.76297 0.74904 0.00553 0.0
C657 C 0.78509 0.74665 0.93827 0.0
C658 C 0.79895 0.77993 0.9149 0.0
C659 C 0.81939 0.77746 0.85094 0.0
C660 C 0.82609 0.74186 0.80984 0.0
C661 C 0.81221 0.7087 0.83228 0.0
C662 C 0.79171 0.71101 0.89607 0.0
C663 C 0.61361 0.74627 0.01839 0.0
C664 C 0.60783 0.71171 0.97187 0.0
C665 C 0.64528 0.75336 0.05265 0.0
C666 C 0.67116 0.72558 0.04259 0.0
C667 C 0.66378 0.68923 1.00444 0.0
C668 C 0.63221 0.68233 0.96913 0.0
C669 C 0.70705 0.73698 0.05874 0.0
C670 C 0.73005 0.73324 0.99854 0.0
C671 C 0.71737 0.75634 0.12848 0.0
C672 C 0.69378 0.76187 0.19355 0.0
C673 C 0.67477 0.73104 0.21437 0.0
C674 C 0.65083 0.7371 0.27221 0.0
C675 C 0.64619 0.77372 0.31087 0.0
C676 C 0.66561 0.80432 0.29201 0.0
C677 C 0.68926 0.79852 0.23356 0.0
H678 H 0.62755 0.77844 0.35544 0.0
H679 H 0.84204 0.73988 0.76062 0.0
loop_
_geom_bond_atom_site_label_1
_geom_bond_atom_site_label_2
_geom_bond_distance
_geom_bond_site_symmetry_2
_ccdc_geom_bond_type
Zn0 O6 1.969 . S
Zn0 O7 1.965 . S
Zn0 O11 2.024 . S
Zn0 O16 1.969 . S
Zn1 O8 1.969 . S
Zn1 O14 1.969 . S
Zn1 O15 1.965 . S
Zn1 O17 2.024 . S
C2 O3 1.229 . S
C2 O11 1.058 . S
O3 C2 1.229 . S
C4 O5 1.229 . S
C4 O17 1.058 . S
O5 C4 1.229 . S
O6 Zn0 1.969 . S
O6 C9 1.267 . S
O7 Zn0 1.965 . S
O7 C18 1.260 1_655 S
O8 Zn1 1.969 . S
O8 C18 1.258 . S
C9 O6 1.267 . S
C9 O10 1.228 . S
O10 C9 1.228 . S
O11 Zn0 2.024 . S
O11 C2 1.058 . S
C12 O13 1.228 . S
C12 O14 1.267 . S
O13 C12 1.228 . S
O14 Zn1 1.969 . S
O14 C12 1.267 . S
O15 Zn1 1.965 . S
O15 C19 1.268 . S
O16 Zn0 1.969 . S
O16 C19 1.246 1_655 S
O17 Zn1 2.024 . S
O17 C4 1.058 . S
C18 O7 1.260 1_455 S
C18 O8 1.258 . S
C19 O15 1.268 . S
C19 O16 1.246 1_455 S
Zn20 O26 1.969 . S
Zn20 O27 1.965 . S
Zn20 O31 2.024 . S
Zn20 O36 1.969 . S
Zn21 O28 1.969 . S
Zn21 O34 1.969 . S
Zn21 O35 1.965 . S
Zn21 O37 2.024 . S
C22 O23 1.229 . S
C22 O31 1.058 . S
O23 C22 1.229 . S
C24 O25 1.229 . S
C24 O37 1.058 . S
O25 C24 1.229 . S
O26 Zn20 1.969 . S
O26 C29 1.267 . S
O27 Zn20 1.965 . S
O27 C38 1.260 . S
O28 Zn21 1.969 . S
O28 C38 1.258 . S
C29 O26 1.267 . S
C29 O30 1.228 . S
O30 C29 1.228 . S
O31 Zn20 2.024 . S
O31 C22 1.058 . S
C32 O33 1.228 . S
C32 O34 1.267 . S
O33 C32 1.228 . S
O34 Zn21 1.969 . S
O34 C32 1.267 . S
O35 Zn21 1.965 . S
O35 C39 1.260 . S
O36 Zn20 1.969 . S
O36 C39 1.258 . S
O37 Zn21 2.024 . S
O37 C24 1.058 . S
C38 O27 1.260 . S
C38 O28 1.258 . S
C39 O35 1.260 . S
C39 O36 1.258 . S
Zn40 O46 1.969 . S
Zn40 O47 1.965 . S
Zn40 O51 2.024 . S
Zn40 O56 1.969 . S
Zn41 O48 1.969 . S
Zn41 O54 1.969 . S
Zn41 O55 1.965 . S
Zn41 O57 2.024 . S
C42 O43 1.229 . S
C42 O51 1.058 . S
O43 C42 1.229 . S
C44 O45 1.229 . S
C44 O57 1.058 . S
O45 C44 1.229 . S
O46 Zn40 1.969 . S
O46 C49 1.267 . S
O47 Zn40 1.965 . S
O47 C58 1.260 1_655 S
O48 Zn41 1.969 . S
O48 C58 1.258 . S
C49 O46 1.267 . S
C49 O50 1.228 . S
O50 C49 1.228 . S
O51 Zn40 2.024 . S
O51 C42 1.058 . S
C52 O53 1.228 . S
C52 O54 1.267 . S
O53 C52 1.228 . S
O54 Zn41 1.969 . S
O54 C52 1.267 . S
O55 Zn41 1.965 . S
O55 C59 1.268 . S
O56 Zn40 1.969 . S
O56 C59 1.246 1_655 S
O57 Zn41 2.024 . S
O57 C44 1.058 . S
C58 O47 1.260 1_455 S
C58 O48 1.258 . S
C59 O55 1.268 . S
C59 O56 1.246 1_455 S
Zn60 O66 1.969 . S
Zn60 O67 1.965 . S
Zn60 O71 2.024 . S
Zn60 O76 1.969 . S
Zn61 O68 1.969 . S
Zn61 O74 1.969 . S
Zn61 O75 1.965 . S
Zn61 O77 2.024 . S
C62 O63 1.229 . S
C62 O71 1.058 . S
O63 C62 1.229 . S
C64 O65 1.229 . S
C64 O77 1.058 . S
O65 C64 1.229 . S
O66 Zn60 1.969 . S
O66 C69 1.267 . S
O67 Zn60 1.965 . S
O67 C78 1.260 . S
O68 Zn61 1.969 . S
O68 C78 1.258 . S
C69 O66 1.267 . S
C69 O70 1.228 . S
O70 C69 1.228 . S
O71 Zn60 2.024 . S
O71 C62 1.058 . S
C72 O73 1.228 . S
C72 O74 1.267 . S
O73 C72 1.228 . S
O74 Zn61 1.969 . S
O74 C72 1.267 . S
O75 Zn61 1.965 . S
O75 C79 1.260 . S
O76 Zn60 1.969 . S
O76 C79 1.258 . S
O77 Zn61 2.024 . S
O77 C64 1.058 . S
C78 O67 1.260 . S
C78 O68 1.258 . S
C79 O75 1.260 . S
C79 O76 1.258 . S
H80 C98 0.951 . S
H81 C100 0.951 . S
H82 C102 0.950 1_554 S
H83 C103 0.950 . S
H84 C105 0.950 . S
H85 C108 0.950 . S
H86 C109 0.950 . S
H87 C111 0.950 . S
H88 C112 0.950 . S
H89 C113 0.951 . S
H90 C115 0.951 . S
H91 C117 0.950 1_556 S
H92 C118 0.950 . S
H93 C120 0.950 . S
H94 C123 0.950 . S
H95 C124 0.950 . S
H96 C126 0.950 . S
H97 C127 0.950 1_455 S
C98 H80 0.951 . S
C98 C99 1.366 1_655 S
C98 C100 1.388 . S
C99 C98 1.366 1_455 S
C99 C103 1.385 . S
C100 H81 0.951 . S
C100 C98 1.388 . S
C100 C101 1.366 1_655 S
C101 C100 1.366 1_455 S
C101 C102 1.414 . S
C101 C104 1.499 . S
C102 H82 0.950 1_556 S
C102 C101 1.414 . S
C102 C103 1.374 . S
C103 H83 0.950 . S
C103 C99 1.385 . S
C103 C102 1.374 . S
C104 C101 1.499 . S
C104 C105 1.373 1_456 S
C104 C106 1.389 . S
C105 H84 0.950 . S
C105 C104 1.373 1_654 S
C105 C121 1.377 . S
C106 C104 1.389 . S
C106 C107 1.524 . S
C106 C120 1.377 . S
C107 C106 1.524 . S
C107 C108 1.397 . S
C107 C112 1.363 . S
C108 H85 0.950 . S
C108 C107 1.397 . S
C108 C109 1.334 . S
C109 H86 0.950 . S
C109 C108 1.334 . S
C109 C110 1.287 . S
C110 C109 1.287 . S
C110 C111 1.524 . S
C110 H129 0.913 . S
C111 H87 0.950 . S
C111 C110 1.524 . S
C111 C112 1.415 . S
C112 H88 0.950 . S
C112 C107 1.363 . S
C112 C111 1.415 . S
C113 H89 0.951 . S
C113 C114 1.366 . S
C113 C115 1.388 . S
C114 C113 1.366 . S
C114 C118 1.385 1_455 S
C115 H90 0.951 . S
C115 C113 1.388 . S
C115 C116 1.366 . S
C116 C115 1.366 . S
C116 C117 1.414 1_455 S
C116 C119 1.499 . S
C117 H91 0.950 1_554 S
C117 C116 1.414 1_655 S
C117 C118 1.374 . S
C118 H92 0.950 . S
C118 C114 1.385 1_655 S
C118 C117 1.374 . S
C119 C116 1.499 . S
C119 C120 1.373 1_554 S
C119 C121 1.389 1_455 S
C120 H93 0.950 . S
C120 C106 1.377 . S
C120 C119 1.373 1_556 S
C121 C105 1.377 . S
C121 C119 1.389 1_655 S
C121 C122 1.524 . S
C122 C121 1.524 . S
C122 C123 1.397 . S
C122 C127 1.363 . S
C123 H94 0.950 . S
C123 C122 1.397 . S
C123 C124 1.334 . S
C124 H95 0.950 . S
C124 C123 1.334 . S
C124 C125 1.287 . S
C125 C124 1.287 . S
C125 C126 1.524 . S
C125 H128 0.999 . S
C126 H96 0.950 . S
C126 C125 1.524 . S
C126 C127 1.415 . S
C127 H97 0.950 1_655 S
C127 C122 1.363 . S
C127 C126 1.415 . S
H128 C125 0.999 . S
H129 C110 0.913 . S
H130 C148 0.951 . S
H131 C150 0.951 . S
H132 C152 0.950 1_556 S
H133 C153 0.950 . S
H134 C155 0.950 . S
H135 C158 0.950 . S
H136 C159 0.950 . S
H137 C161 0.950 . S
H138 C162 0.950 . S
H139 C163 0.951 . S
H140 C165 0.951 . S
H141 C167 0.950 1_554 S
H142 C168 0.950 . S
H143 C170 0.950 . S
H144 C173 0.950 . S
H145 C174 0.950 . S
H146 C176 0.950 . S
H147 C177 0.950 . S
C148 H130 0.951 . S
C148 C149 1.366 . S
C148 C150 1.388 . S
C149 C148 1.366 . S
C149 C153 1.385 . S
C150 H131 0.951 . S
C150 C148 1.388 . S
C150 C151 1.366 . S
C151 C150 1.366 . S
C151 C152 1.414 . S
C151 C154 1.499 . S
C152 H132 0.950 1_554 S
C152 C151 1.414 . S
C152 C153 1.374 . S
C153 H133 0.950 . S
C153 C149 1.385 . S
C153 C152 1.374 . S
C154 C151 1.499 . S
C154 C155 1.373 1_554 S
C154 C156 1.389 . S
C155 H134 0.950 . S
C155 C154 1.373 1_556 S
C155 C171 1.377 . S
C156 C154 1.389 . S
C156 C157 1.524 . S
C156 C170 1.377 . S
C157 C156 1.524 . S
C157 C158 1.397 . S
C157 C162 1.363 . S
C158 H135 0.950 . S
C158 C157 1.397 . S
C158 C159 1.334 . S
C159 H136 0.950 . S
C159 C158 1.334 . S
C159 C160 1.287 . S
C160 C159 1.287 . S
C160 C161 1.524 . S
C160 H179 0.913 . S
C161 H137 0.950 . S
C161 C160 1.524 . S
C161 C162 1.415 . S
C162 H138 0.950 . S
C162 C157 1.363 . S
C162 C161 1.415 . S
C163 H139 0.951 . S
C163 C164 1.366 . S
C163 C165 1.388 . S
C164 C163 1.366 . S
C164 C168 1.385 . S
C165 H140 0.951 . S
C165 C163 1.388 . S
C165 C166 1.366 . S
C166 C165 1.366 . S
C166 C167 1.414 . S
C166 C169 1.499 . S
C167 H141 0.950 1_556 S
C167 C166 1.414 . S
C167 C168 1.374 . S
C168 H142 0.950 . S
C168 C164 1.385 . S
C168 C167 1.374 . S
C169 C166 1.499 . S
C169 C170 1.373 1_556 S
C169 C171 1.389 . S
C170 H143 0.950 . S
C170 C156 1.377 . S
C170 C169 1.373 1_554 S
C171 C155 1.377 . S
C171 C169 1.389 . S
C171 C172 1.524 . S
C172 C171 1.524 . S
C172 C173 1.397 . S
C172 C177 1.363 . S
C173 H144 0.950 . S
C173 C172 1.397 . S
C173 C174 1.334 . S
C174 H145 0.950 . S
C174 C173 1.334 . S
C174 C175 1.287 . S
C175 C174 1.287 . S
C175 C176 1.524 . S
C175 H178 0.999 . S
C176 H146 0.950 . S
C176 C175 1.524 . S
C176 C177 1.415 . S
C177 H147 0.950 . S
C177 C172 1.363 . S
C177 C176 1.415 . S
H178 C175 0.999 . S
H179 C160 0.913 . S
H180 C198 0.951 . S
H181 C200 0.951 . S
H182 C202 0.950 . S
H183 C203 0.950 . S
H184 C205 0.949 . S
H185 C208 0.950 . S
H186 C209 0.950 . S
H187 C211 0.950 . S
H188 C212 0.950 . S
H189 C213 0.951 . S
H190 C215 0.951 . S
H191 C217 0.950 . S
H192 C218 0.950 . S
H193 C220 0.949 . S
H194 C223 0.950 . S
H195 C224 0.950 . S
H196 C226 0.950 . S
H197 C227 0.950 . S
C198 H180 0.951 . S
C198 C199 1.366 . S
C198 C200 1.388 . S
C199 C198 1.366 . S
C199 C203 1.385 . S
C200 H181 0.951 . S
C200 C198 1.388 . S
C200 C201 1.366 . S
C201 C200 1.366 . S
C201 C202 1.414 . S
C201 C204 1.499 . S
C202 H182 0.950 . S
C202 C201 1.414 . S
C202 C203 1.374 . S
C203 H183 0.950 . S
C203 C199 1.385 . S
C203 C202 1.374 . S
C204 C201 1.499 . S
C204 C205 1.372 1_556 S
C204 C206 1.389 . S
C205 H184 0.949 . S
C205 C204 1.372 1_554 S
C205 C221 1.377 1_565 S
C206 C204 1.389 . S
C206 C207 1.524 . S
C206 C220 1.377 1_565 S
C207 C206 1.524 . S
C207 C208 1.397 . S
C207 C212 1.363 . S
C208 H185 0.950 . S
C208 C207 1.397 . S
C208 C209 1.334 . S
C209 H186 0.950 . S
C209 C208 1.334 . S
C209 C210 1.287 . S
C210 C209 1.287 . S
C210 C211 1.524 . S
C210 H229 0.913 . S
C211 H187 0.950 . S
C211 C210 1.524 . S
C211 C212 1.415 . S
C212 H188 0.950 . S
C212 C207 1.363 . S
C212 C211 1.415 . S
C213 H189 0.951 . S
C213 C214 1.366 . S
C213 C215 1.388 . S
C214 C213 1.366 . S
C214 C218 1.385 . S
C215 H190 0.951 . S
C215 C213 1.388 . S
C215 C216 1.366 . S
C216 C215 1.366 . S
C216 C217 1.414 . S
C216 C219 1.499 . S
C217 H191 0.950 . S
C217 C216 1.414 . S
C217 C218 1.374 . S
C218 H192 0.950 . S
C218 C214 1.385 . S
C218 C217 1.374 . S
C219 C216 1.499 . S
C219 C220 1.372 1_554 S
C219 C221 1.389 . S
C220 H193 0.949 . S
C220 C206 1.377 1_545 S
C220 C219 1.372 1_556 S
C221 C205 1.377 1_545 S
C221 C219 1.389 . S
C221 C222 1.524 . S
C222 C221 1.524 . S
C222 C223 1.397 . S
C222 C227 1.363 . S
C223 H194 0.950 . S
C223 C222 1.397 . S
C223 C224 1.334 . S
C224 H195 0.950 . S
C224 C223 1.334 . S
C224 C225 1.287 . S
C225 C224 1.287 . S
C225 C226 1.524 . S
C225 H228 0.999 . S
C226 H196 0.950 . S
C226 C225 1.524 . S
C226 C227 1.415 . S
C227 H197 0.950 . S
C227 C222 1.363 . S
C227 C226 1.415 . S
H228 C225 0.999 . S
H229 C210 0.913 . S
H230 C248 0.951 . S
H231 C250 0.951 . S
H232 C252 0.950 1_556 S
H233 C253 0.950 . S
H234 C255 0.950 . S
H235 C258 0.950 . S
H236 C259 0.950 . S
H237 C261 0.950 . S
H238 C262 0.950 1_455 S
H239 C263 0.951 . S
H240 C265 0.951 . S
H241 C267 0.950 1_554 S
H242 C268 0.950 . S
H243 C270 0.950 . S
H244 C273 0.950 . S
H245 C274 0.950 . S
H246 C276 0.950 1_655 S
H247 C277 0.950 . S
C248 H230 0.951 . S
C248 C249 1.366 1_455 S
C248 C250 1.388 . S
C249 C248 1.366 1_655 S
C249 C253 1.385 . S
C250 H231 0.951 . S
C250 C248 1.388 . S
C250 C251 1.366 1_455 S
C251 C250 1.366 1_655 S
C251 C252 1.414 . S
C251 C254 1.499 . S
C252 H232 0.950 1_554 S
C252 C251 1.414 . S
C252 C253 1.374 . S
C253 H233 0.950 . S
C253 C249 1.385 . S
C253 C252 1.374 . S
C254 C251 1.499 . S
C254 C255 1.373 1_654 S
C254 C256 1.389 1_565 S
C255 H234 0.950 . S
C255 C254 1.373 1_456 S
C255 C271 1.377 . S
C256 C254 1.389 1_545 S
C256 C257 1.524 . S
C256 C270 1.377 . S
C257 C256 1.524 . S
C257 C258 1.397 1_545 S
C257 C262 1.363 . S
C258 H235 0.950 . S
C258 C257 1.397 1_565 S
C258 C259 1.334 . S
C259 H236 0.950 . S
C259 C258 1.334 . S
C259 C260 1.287 1_565 S
C260 C259 1.287 1_545 S
C260 C261 1.524 . S
C260 H279 0.913 . S
C261 H237 0.950 . S
C261 C260 1.524 . S
C261 C262 1.415 . S
C262 H238 0.950 1_655 S
C262 C257 1.363 . S
C262 C261 1.415 . S
C263 H239 0.951 . S
C263 C264 1.366 . S
C263 C265 1.388 . S
C264 C263 1.366 . S
C264 C268 1.385 1_655 S
C265 H240 0.951 . S
C265 C263 1.388 . S
C265 C266 1.382 . S
C266 C265 1.382 . S
C266 C267 1.399 1_655 S
C266 C269 1.498 . S
C267 H241 0.950 1_556 S
C267 C266 1.399 1_455 S
C267 C268 1.374 . S
C268 H242 0.950 . S
C268 C264 1.385 1_455 S
C268 C267 1.374 . S
C269 C266 1.498 . S
C269 C270 1.373 1_556 S
C269 C271 1.389 1_645 S
C270 H243 0.950 . S
C270 C256 1.377 . S
C270 C269 1.373 1_554 S
C271 C255 1.377 . S
C271 C269 1.389 1_465 S
C271 C272 1.524 . S
C272 C271 1.524 . S
C272 C273 1.397 1_565 S
C272 C277 1.363 1_455 S
C273 H244 0.950 . S
C273 C272 1.397 1_545 S
C273 C274 1.334 . S
C274 H245 0.950 . S
C274 C273 1.334 . S
C274 C275 1.287 1_545 S
C275 C274 1.287 1_565 S
C275 C276 1.524 . S
C275 H278 0.999 . S
C276 H246 0.950 1_455 S
C276 C275 1.524 . S
C276 C277 1.415 1_455 S
C277 H247 0.950 . S
C277 C272 1.363 1_655 S
C277 C276 1.415 1_655 S
H278 C275 0.999 . S
H279 C260 0.913 . S
H280 C298 0.951 . S
H281 C300 0.951 . S
H282 C302 0.950 . S
H283 C303 0.950 . S
H284 C305 0.950 . S
H285 C308 0.950 . S
H286 C309 0.950 . S
H287 C311 0.950 . S
H288 C312 0.950 . S
H289 C313 0.951 . S
H290 C315 0.951 . S
H291 C317 0.950 . S
H292 C318 0.950 . S
H293 C320 0.950 . S
H294 C323 0.950 . S
H295 C324 0.950 . S
H296 C326 0.950 . S
H297 C327 0.950 . S
C298 H280 0.951 . S
C298 C299 1.366 . S
C298 C300 1.388 . S
C299 C298 1.366 . S
C299 C303 1.385 . S
C300 H281 0.951 . S
C300 C298 1.388 . S
C300 C301 1.366 . S
C301 C300 1.366 . S
C301 C302 1.414 . S
C301 C304 1.499 . S
C302 H282 0.950 . S
C302 C301 1.414 . S
C302 C303 1.374 . S
C303 H283 0.950 . S
C303 C299 1.385 . S
C303 C302 1.374 . S
C304 C301 1.499 . S
C304 C305 1.373 . S
C304 C306 1.389 . S
C305 H284 0.950 . S
C305 C304 1.373 . S
C305 C321 1.377 . S
C306 C304 1.389 . S
C306 C307 1.524 . S
C306 C320 1.377 . S
C307 C306 1.524 . S
C307 C308 1.397 . S
C307 C312 1.363 . S
C308 H285 0.950 . S
C308 C307 1.397 . S
C308 C309 1.334 . S
C309 H286 0.950 . S
C309 C308 1.334 . S
C309 C310 1.287 . S
C310 C309 1.287 . S
C310 C311 1.524 . S
C310 H329 0.913 . S
C311 H287 0.950 . S
C311 C310 1.524 . S
C311 C312 1.415 . S
C312 H288 0.950 . S
C312 C307 1.363 . S
C312 C311 1.415 . S
C313 H289 0.951 . S
C313 C314 1.366 . S
C313 C315 1.388 . S
C314 C313 1.366 . S
C314 C318 1.385 . S
C315 H290 0.951 . S
C315 C313 1.388 . S
C315 C316 1.366 . S
C316 C315 1.366 . S
C316 C317 1.414 . S
C316 C319 1.499 . S
C317 H291 0.950 . S
C317 C316 1.414 . S
C317 C318 1.374 . S
C318 H292 0.950 . S
C318 C314 1.385 . S
C318 C317 1.374 . S
C319 C316 1.499 . S
C319 C320 1.373 . S
C319 C321 1.389 . S
C320 H293 0.950 . S
C320 C306 1.377 . S
C320 C319 1.373 . S
C321 C305 1.377 . S
C321 C319 1.389 . S
C321 C322 1.524 . S
C322 C321 1.524 . S
C322 C323 1.397 . S
C322 C327 1.363 . S
C323 H294 0.950 . S
C323 C322 1.397 . S
C323 C324 1.334 . S
C324 H295 0.950 . S
C324 C323 1.334 . S
C324 C325 1.287 . S
C325 C324 1.287 . S
C325 C326 1.524 . S
C325 H328 0.999 . S
C326 H296 0.950 . S
C326 C325 1.524 . S
C326 C327 1.415 . S
C327 H297 0.950 . S
C327 C322 1.363 . S
C327 C326 1.415 . S
H328 C325 0.999 . S
H329 C310 0.913 . S
H330 C348 0.951 . S
H331 C350 0.951 . S
H332 C352 0.950 . S
H333 C353 0.950 . S
H334 C355 0.950 . S
H335 C358 0.950 . S
H336 C359 0.950 . S
H337 C361 0.950 . S
H338 C362 0.950 . S
H339 C363 0.951 . S
H340 C365 0.951 . S
H341 C367 0.950 . S
H342 C368 0.950 . S
H343 C370 0.950 . S
H344 C373 0.950 . S
H345 C374 0.950 . S
H346 C376 0.950 . S
H347 C377 0.950 . S
C348 H330 0.951 . S
C348 C349 1.366 . S
C348 C350 1.388 . S
C349 C348 1.366 . S
C349 C353 1.385 . S
C350 H331 0.951 . S
C350 C348 1.388 . S
C350 C351 1.366 . S
C351 C350 1.366 . S
C351 C352 1.414 . S
C351 C354 1.499 . S
C352 H332 0.950 . S
C352 C351 1.414 . S
C352 C353 1.374 . S
C353 H333 0.950 . S
C353 C349 1.385 . S
C353 C352 1.374 . S
C354 C351 1.499 . S
C354 C355 1.373 . S
C354 C356 1.389 . S
C355 H334 0.950 . S
C355 C354 1.373 . S
C355 C371 1.377 . S
C356 C354 1.389 . S
C356 C357 1.524 . S
C356 C370 1.377 . S
C357 C356 1.524 . S
C357 C358 1.397 . S
C357 C362 1.363 . S
C358 H335 0.950 . S
C358 C357 1.397 . S
C358 C359 1.334 . S
C359 H336 0.950 . S
C359 C358 1.334 . S
C359 C360 1.287 . S
C360 C359 1.287 . S
C360 C361 1.524 . S
C360 H379 0.913 . S
C361 H337 0.950 . S
C361 C360 1.524 . S
C361 C362 1.415 . S
C362 H338 0.950 . S
C362 C357 1.363 . S
C362 C361 1.415 . S
C363 H339 0.951 . S
C363 C364 1.366 . S
C363 C365 1.388 . S
C364 C363 1.366 . S
C364 C368 1.385 . S
C365 H340 0.951 . S
C365 C363 1.388 . S
C365 C366 1.366 . S
C366 C365 1.366 . S
C366 C367 1.414 . S
C366 C369 1.499 . S
C367 H341 0.950 . S
C367 C366 1.414 . S
C367 C368 1.374 . S
C368 H342 0.950 . S
C368 C364 1.385 . S
C368 C367 1.374 . S
C369 C366 1.499 . S
C369 C370 1.373 . S
C369 C371 1.389 . S
C370 H343 0.950 . S
C370 C356 1.377 . S
C370 C369 1.373 . S
C371 C355 1.377 . S
C371 C369 1.389 . S
C371 C372 1.524 . S
C372 C371 1.524 . S
C372 C373 1.397 . S
C372 C377 1.363 . S
C373 H344 0.950 . S
C373 C372 1.397 . S
C373 C374 1.334 . S
C374 H345 0.950 . S
C374 C373 1.334 . S
C374 C375 1.287 . S
C375 C374 1.287 . S
C375 C376 1.524 . S
C375 H378 0.999 . S
C376 H346 0.950 . S
C376 C375 1.524 . S
C376 C377 1.415 . S
C377 H347 0.950 . S
C377 C372 1.363 . S
C377 C376 1.415 . S
H378 C375 0.999 . S
H379 C360 0.913 . S
H380 C398 0.951 . S
H381 C400 0.951 . S
H382 C402 0.950 . S
H383 C403 0.950 . S
H384 C405 0.950 . S
H385 C408 0.950 . S
H386 C409 0.950 . S
H387 C411 0.950 . S
H388 C412 0.950 . S
H389 C413 0.951 . S
H390 C415 0.951 . S
H391 C417 0.950 . S
H392 C418 0.950 . S
H393 C420 0.950 . S
H394 C423 0.950 . S
H395 C424 0.950 . S
H396 C426 0.950 . S
H397 C427 0.950 . S
C398 H380 0.951 . S
C398 C399 1.366 . S
C398 C400 1.388 . S
C399 C398 1.366 . S
C399 C403 1.385 . S
C400 H381 0.951 . S
C400 C398 1.388 . S
C400 C401 1.366 . S
C401 C400 1.366 . S
C401 C402 1.414 . S
C401 C404 1.499 . S
C402 H382 0.950 . S
C402 C401 1.414 . S
C402 C403 1.374 . S
C403 H383 0.950 . S
C403 C399 1.385 . S
C403 C402 1.374 . S
C404 C401 1.499 . S
C404 C405 1.373 . S
C404 C406 1.389 . S
C405 H384 0.950 . S
C405 C404 1.373 . S
C405 C421 1.377 . S
C406 C404 1.389 . S
C406 C407 1.524 . S
C406 C420 1.377 . S
C407 C406 1.524 . S
C407 C408 1.397 . S
C407 C412 1.363 . S
C408 H385 0.950 . S
C408 C407 1.397 . S
C408 C409 1.334 . S
C409 H386 0.950 . S
C409 C408 1.334 . S
C409 C410 1.287 . S
C410 C409 1.287 . S
C410 C411 1.524 . S
C410 H429 0.913 . S
C411 H387 0.950 . S
C411 C410 1.524 . S
C411 C412 1.415 . S
C412 H388 0.950 . S
C412 C407 1.363 . S
C412 C411 1.415 . S
C413 H389 0.951 . S
C413 C414 1.366 . S
C413 C415 1.388 . S
C414 C413 1.366 . S
C414 C418 1.385 . S
C415 H390 0.951 . S
C415 C413 1.388 . S
C415 C416 1.366 . S
C416 C415 1.366 . S
C416 C417 1.414 . S
C416 C419 1.499 . S
C417 H391 0.950 . S
C417 C416 1.414 . S
C417 C418 1.374 . S
C418 H392 0.950 . S
C418 C414 1.385 . S
C418 C417 1.374 . S
C419 C416 1.499 . S
C419 C420 1.373 . S
C419 C421 1.389 . S
C420 H393 0.950 . S
C420 C406 1.377 . S
C420 C419 1.373 . S
C421 C405 1.377 . S
C421 C419 1.389 . S
C421 C422 1.524 . S
C422 C421 1.524 . S
C422 C423 1.397 . S
C422 C427 1.363 . S
C423 H394 0.950 . S
C423 C422 1.397 . S
C423 C424 1.334 . S
C424 H395 0.950 . S
C424 C423 1.334 . S
C424 C425 1.287 . S
C425 C424 1.287 . S
C425 C426 1.524 . S
C425 H428 0.999 . S
C426 H396 0.950 . S
C426 C425 1.524 . S
C426 C427 1.415 . S
C427 H397 0.950 . S
C427 C422 1.363 . S
C427 C426 1.415 . S
H428 C425 0.999 . S
H429 C410 0.913 . S
H430 C448 0.951 . S
H431 C450 0.951 . S
H432 C452 0.950 . S
H433 C453 0.950 . S
H434 C455 0.950 . S
H435 C458 0.950 . S
H436 C459 0.950 . S
H437 C461 0.950 . S
H438 C462 0.950 . S
H439 C463 0.951 . S
H440 C465 0.951 . S
H441 C467 0.950 . S
H442 C468 0.950 . S
H443 C470 0.950 . S
H444 C473 0.950 . S
H445 C474 0.950 . S
H446 C476 0.950 . S
H447 C477 0.950 . S
C448 H430 0.951 . S
C448 C449 1.366 . S
C448 C450 1.388 . S
C449 C448 1.366 . S
C449 C453 1.385 . S
C450 H431 0.951 . S
C450 C448 1.388 . S
C450 C451 1.366 . S
C451 C450 1.366 . S
C451 C452 1.414 . S
C451 C454 1.499 . S
C452 H432 0.950 . S
C452 C451 1.414 . S
C452 C453 1.374 . S
C453 H433 0.950 . S
C453 C449 1.385 . S
C453 C452 1.374 . S
C454 C451 1.499 . S
C454 C455 1.373 . S
C454 C456 1.389 . S
C455 H434 0.950 . S
C455 C454 1.373 . S
C455 C471 1.377 . S
C456 C454 1.389 . S
C456 C457 1.524 . S
C456 C470 1.377 . S
C457 C456 1.524 . S
C457 C458 1.397 . S
C457 C462 1.363 . S
C458 H435 0.950 . S
C458 C457 1.397 . S
C458 C459 1.334 . S
C459 H436 0.950 . S
C459 C458 1.334 . S
C459 C460 1.287 . S
C460 C459 1.287 . S
C460 C461 1.524 . S
C460 H479 0.913 . S
C461 H437 0.950 . S
C461 C460 1.524 . S
C461 C462 1.415 . S
C462 H438 0.950 . S
C462 C457 1.363 . S
C462 C461 1.415 . S
C463 H439 0.951 . S
C463 C464 1.366 . S
C463 C465 1.388 . S
C464 C463 1.366 . S
C464 C468 1.385 . S
C465 H440 0.951 . S
C465 C463 1.388 . S
C465 C466 1.366 . S
C466 C465 1.366 . S
C466 C467 1.414 . S
C466 C469 1.499 . S
C467 H441 0.950 . S
C467 C466 1.414 . S
C467 C468 1.374 . S
C468 H442 0.950 . S
C468 C464 1.385 . S
C468 C467 1.374 . S
C469 C466 1.499 . S
C469 C470 1.373 . S
C469 C471 1.389 . S
C470 H443 0.950 . S
C470 C456 1.377 . S
C470 C469 1.373 . S
C471 C455 1.377 . S
C471 C469 1.389 . S
C471 C472 1.524 . S
C472 C471 1.524 . S
C472 C473 1.397 . S
C472 C477 1.363 . S
C473 H444 0.950 . S
C473 C472 1.397 . S
C473 C474 1.334 . S
C474 H445 0.950 . S
C474 C473 1.334 . S
C474 C475 1.287 . S
C475 C474 1.287 . S
C475 C476 1.524 . S
C475 H478 0.999 . S
C476 H446 0.950 . S
C476 C475 1.524 . S
C476 C477 1.415 . S
C477 H447 0.950 . S
C477 C472 1.363 . S
C477 C476 1.415 . S
H478 C475 0.999 . S
H479 C460 0.913 . S
H480 C498 0.951 . S
H481 C500 0.951 . S
H482 C502 0.950 . S
H483 C503 0.950 . S
H484 C505 0.950 . S
H485 C508 0.950 1_556 S
H486 C509 0.950 . S
H487 C511 0.950 . S
H488 C512 0.950 . S
H489 C513 0.951 . S
H490 C515 0.951 . S
H491 C517 0.950 . S
H492 C518 0.950 . S
H493 C520 0.950 . S
H494 C523 0.950 1_554 S
H495 C524 0.950 . S
H496 C526 0.950 . S
H497 C527 0.950 . S
C498 H480 0.951 . S
C498 C499 1.366 1_554 S
C498 C500 1.388 . S
C499 C498 1.366 1_556 S
C499 C503 1.385 . S
C500 H481 0.951 . S
C500 C498 1.388 . S
C500 C501 1.366 1_554 S
C501 C500 1.366 1_556 S
C501 C502 1.414 . S
C501 C504 1.499 . S
C502 H482 0.950 . S
C502 C501 1.414 . S
C502 C503 1.374 . S
C503 H483 0.950 . S
C503 C499 1.385 . S
C503 C502 1.374 . S
C504 C501 1.499 . S
C504 C505 1.373 . S
C504 C506 1.389 1_556 S
C505 H484 0.950 . S
C505 C504 1.373 . S
C505 C521 1.377 . S
C506 C504 1.389 1_554 S
C506 C507 1.524 . S
C506 C520 1.377 . S
C507 C506 1.524 . S
C507 C508 1.397 . S
C507 C512 1.363 . S
C508 H485 0.950 1_554 S
C508 C507 1.397 . S
C508 C509 1.334 . S
C509 H486 0.950 . S
C509 C508 1.334 . S
C509 C510 1.287 . S
C510 C509 1.287 . S
C510 C511 1.524 . S
C510 H529 0.913 . S
C511 H487 0.950 . S
C511 C510 1.524 . S
C511 C512 1.415 . S
C512 H488 0.950 . S
C512 C507 1.363 . S
C512 C511 1.415 . S
C513 H489 0.951 . S
C513 C514 1.366 1_556 S
C513 C515 1.388 . S
C514 C513 1.366 1_554 S
C514 C518 1.385 . S
C515 H490 0.951 . S
C515 C513 1.388 . S
C515 C516 1.366 1_556 S
C516 C515 1.366 1_554 S
C516 C517 1.414 . S
C516 C519 1.499 . S
C517 H491 0.950 . S
C517 C516 1.414 . S
C517 C518 1.374 . S
C518 H492 0.950 . S
C518 C514 1.385 . S
C518 C517 1.374 . S
C519 C516 1.499 . S
C519 C520 1.373 . S
C519 C521 1.389 1_554 S
C520 H493 0.950 . S
C520 C506 1.377 . S
C520 C519 1.373 . S
C521 C505 1.377 . S
C521 C519 1.389 1_556 S
C521 C522 1.524 . S
C522 C521 1.524 . S
C522 C523 1.397 . S
C522 C527 1.363 . S
C523 H494 0.950 1_556 S
C523 C522 1.397 . S
C523 C524 1.334 . S
C524 H495 0.950 . S
C524 C523 1.334 . S
C524 C525 1.287 . S
C525 C524 1.287 . S
C525 C526 1.524 . S
C525 H528 0.999 . S
C526 H496 0.950 . S
C526 C525 1.524 . S
C526 C527 1.415 . S
C527 H497 0.950 . S
C527 C522 1.363 . S
C527 C526 1.415 . S
H528 C525 0.999 . S
H529 C510 0.913 . S
H530 C548 0.951 . S
H531 C550 0.951 . S
H532 C552 0.950 . S
H533 C553 0.950 . S
H534 C555 0.950 . S
H535 C558 0.950 . S
H536 C559 0.950 . S
H537 C561 0.950 . S
H538 C562 0.950 . S
H539 C563 0.951 . S
H540 C565 0.951 . S
H541 C567 0.950 . S
H542 C568 0.950 . S
H543 C570 0.950 . S
H544 C573 0.950 . S
H545 C574 0.950 . S
H546 C576 0.950 . S
H547 C577 0.950 . S
C548 H530 0.951 . S
C548 C549 1.366 1_554 S
C548 C550 1.388 . S
C549 C548 1.366 1_556 S
C549 C553 1.385 . S
C550 H531 0.951 . S
C550 C548 1.388 . S
C550 C551 1.366 1_554 S
C551 C550 1.366 1_556 S
C551 C552 1.414 . S
C551 C554 1.499 . S
C552 H532 0.950 . S
C552 C551 1.414 . S
C552 C553 1.374 . S
C553 H533 0.950 . S
C553 C549 1.385 . S
C553 C552 1.374 . S
C554 C551 1.499 . S
C554 C555 1.373 . S
C554 C556 1.389 1_556 S
C555 H534 0.950 . S
C555 C554 1.373 . S
C555 C571 1.377 . S
C556 C554 1.389 1_554 S
C556 C557 1.524 . S
C556 C570 1.377 . S
C557 C556 1.524 . S
C557 C558 1.397 . S
C557 C562 1.363 . S
C558 H535 0.950 . S
C558 C557 1.397 . S
C558 C559 1.334 . S
C559 H536 0.950 . S
C559 C558 1.334 . S
C559 C560 1.287 . S
C560 C559 1.287 . S
C560 C561 1.524 . S
C560 H579 0.913 . S
C561 H537 0.950 . S
C561 C560 1.524 . S
C561 C562 1.415 . S
C562 H538 0.950 . S
C562 C557 1.363 . S
C562 C561 1.415 . S
C563 H539 0.951 . S
C563 C564 1.366 1_556 S
C563 C565 1.388 . S
C564 C563 1.366 1_554 S
C564 C568 1.385 . S
C565 H540 0.951 . S
C565 C563 1.388 . S
C565 C566 1.366 1_556 S
C566 C565 1.366 1_554 S
C566 C567 1.414 . S
C566 C569 1.499 . S
C567 H541 0.950 . S
C567 C566 1.414 . S
C567 C568 1.374 . S
C568 H542 0.950 . S
C568 C564 1.385 . S
C568 C567 1.374 . S
C569 C566 1.499 . S
C569 C570 1.373 . S
C569 C571 1.389 1_554 S
C570 H543 0.950 . S
C570 C556 1.377 . S
C570 C569 1.373 . S
C571 C555 1.377 . S
C571 C569 1.389 1_556 S
C571 C572 1.524 . S
C572 C571 1.524 . S
C572 C573 1.397 . S
C572 C577 1.363 . S
C573 H544 0.950 . S
C573 C572 1.397 . S
C573 C574 1.334 . S
C574 H545 0.950 . S
C574 C573 1.334 . S
C574 C575 1.287 . S
C575 C574 1.287 . S
C575 C576 1.524 . S
C575 H578 0.999 . S
C576 H546 0.950 . S
C576 C575 1.524 . S
C576 C577 1.415 . S
C577 H547 0.950 . S
C577 C572 1.363 . S
C577 C576 1.415 . S
H578 C575 0.999 . S
H579 C560 0.913 . S
H580 C598 0.951 . S
H581 C600 0.951 . S
H582 C602 0.950 . S
H583 C603 0.950 . S
H584 C605 0.950 . S
H585 C608 0.950 . S
H586 C609 0.950 . S
H587 C611 0.950 . S
H588 C612 0.950 . S
H589 C613 0.951 . S
H590 C615 0.951 . S
H591 C617 0.950 . S
H592 C618 0.950 . S
H593 C620 0.950 . S
H594 C623 0.950 . S
H595 C624 0.950 . S
H596 C626 0.950 . S
H597 C627 0.950 . S
C598 H580 0.951 . S
C598 C599 1.366 1_556 S
C598 C600 1.388 . S
C599 C598 1.366 1_554 S
C599 C603 1.385 . S
C600 H581 0.951 . S
C600 C598 1.388 . S
C600 C601 1.366 1_556 S
C601 C600 1.366 1_554 S
C601 C602 1.414 . S
C601 C604 1.499 . S
C602 H582 0.950 . S
C602 C601 1.414 . S
C602 C603 1.374 . S
C603 H583 0.950 . S
C603 C599 1.385 . S
C603 C602 1.374 . S
C604 C601 1.499 . S
C604 C605 1.373 . S
C604 C606 1.389 1_554 S
C605 H584 0.950 . S
C605 C604 1.373 . S
C605 C621 1.377 . S
C606 C604 1.389 1_556 S
C606 C607 1.524 . S
C606 C620 1.377 . S
C607 C606 1.524 . S
C607 C608 1.397 . S
C607 C612 1.363 . S
C608 H585 0.950 . S
C608 C607 1.397 . S
C608 C609 1.334 . S
C609 H586 0.950 . S
C609 C608 1.334 . S
C609 C610 1.287 . S
C610 C609 1.287 . S
C610 C611 1.524 . S
C610 H629 0.913 . S
C611 H587 0.950 . S
C611 C610 1.524 . S
C611 C612 1.415 . S
C612 H588 0.950 . S
C612 C607 1.363 . S
C612 C611 1.415 . S
C613 H589 0.951 . S
C613 C614 1.366 1_554 S
C613 C615 1.388 . S
C614 C613 1.366 1_556 S
C614 C618 1.385 . S
C615 H590 0.951 . S
C615 C613 1.388 . S
C615 C616 1.366 1_554 S
C616 C615 1.366 1_556 S
C616 C617 1.414 . S
C616 C619 1.499 . S
C617 H591 0.950 . S
C617 C616 1.414 . S
C617 C618 1.374 . S
C618 H592 0.950 . S
C618 C614 1.385 . S
C618 C617 1.374 . S
C619 C616 1.499 . S
C619 C620 1.373 . S
C619 C621 1.389 1_556 S
C620 H593 0.950 . S
C620 C606 1.377 . S
C620 C619 1.373 . S
C621 C605 1.377 . S
C621 C619 1.389 1_554 S
C621 C622 1.524 . S
C622 C621 1.524 . S
C622 C623 1.397 . S
C622 C627 1.363 . S
C623 H594 0.950 . S
C623 C622 1.397 . S
C623 C624 1.334 . S
C624 H595 0.950 . S
C624 C623 1.334 . S
C624 C625 1.287 . S
C625 C624 1.287 . S
C625 C626 1.524 . S
C625 H628 0.999 . S
C626 H596 0.950 . S
C626 C625 1.524 . S
C626 C627 1.415 . S
C627 H597 0.950 . S
C627 C622 1.363 . S
C627 C626 1.415 . S
H628 C625 0.999 . S
H629 C610 0.913 . S
H630 C648 0.951 1_556 S
H631 C650 0.951 . S
H632 C652 0.950 . S
H633 C653 0.950 . S
H634 C655 0.950 . S
H635 C658 0.950 . S
H636 C659 0.950 . S
H637 C661 0.950 . S
H638 C662 0.950 . S
H639 C663 0.951 . S
H640 C665 0.951 1_554 S
H641 C667 0.950 . S
H642 C668 0.950 . S
H643 C670 0.950 . S
H644 C673 0.950 . S
H645 C674 0.950 . S
H646 C676 0.950 . S
H647 C677 0.950 . S
C648 H630 0.951 1_554 S
C648 C649 1.366 . S
C648 C650 1.388 1_554 S
C649 C648 1.366 . S
C649 C653 1.385 . S
C650 H631 0.951 . S
C650 C648 1.388 1_556 S
C650 C651 1.366 1_556 S
C651 C650 1.366 1_554 S
C651 C652 1.414 . S
C651 C654 1.499 1_554 S
C652 H632 0.950 . S
C652 C651 1.414 . S
C652 C653 1.374 . S
C653 H633 0.950 . S
C653 C649 1.385 . S
C653 C652 1.374 . S
C654 C651 1.499 1_556 S
C654 C655 1.373 1_556 S
C654 C656 1.389 . S
C655 H634 0.950 . S
C655 C654 1.373 1_554 S
C655 C671 1.377 . S
C656 C654 1.389 . S
C656 C657 1.524 . S
C656 C670 1.377 . S
C657 C656 1.524 . S
C657 C658 1.397 . S
C657 C662 1.363 . S
C658 H635 0.950 . S
C658 C657 1.397 . S
C658 C659 1.334 . S
C659 H636 0.950 . S
C659 C658 1.334 . S
C659 C660 1.287 . S
C660 C659 1.287 . S
C660 C661 1.524 . S
C660 H679 0.913 . S
C661 H637 0.950 . S
C661 C660 1.524 . S
C661 C662 1.415 . S
C662 H638 0.950 . S
C662 C657 1.363 . S
C662 C661 1.415 . S
C663 H639 0.951 . S
C663 C664 1.366 . S
C663 C665 1.388 . S
C664 C663 1.366 . S
C664 C668 1.385 . S
C665 H640 0.951 1_556 S
C665 C663 1.388 . S
C665 C666 1.366 . S
C666 C665 1.366 . S
C666 C667 1.414 . S
C666 C669 1.499 . S
C667 H641 0.950 . S
C667 C666 1.414 . S
C667 C668 1.374 . S
C668 H642 0.950 . S
C668 C664 1.385 . S
C668 C667 1.374 . S
C669 C666 1.499 . S
C669 C670 1.373 . S
C669 C671 1.389 1_556 S
C670 H643 0.950 . S
C670 C656 1.377 . S
C670 C669 1.373 . S
C671 C655 1.377 . S
C671 C669 1.389 1_554 S
C671 C672 1.524 . S
C672 C671 1.524 . S
C672 C673 1.397 . S
C672 C677 1.363 . S
C673 H644 0.950 . S
C673 C672 1.397 . S
C673 C674 1.334 . S
C674 H645 0.950 . S
C674 C673 1.334 . S
C674 C675 1.287 . S
C675 C674 1.287 . S
C675 C676 1.524 . S
C675 H678 0.999 . S
C676 H646 0.950 . S
C676 C675 1.524 . S
C676 C677 1.415 . S
C677 H647 0.950 . S
C677 C672 1.363 . S
C677 C676 1.415 . S
H678 C675 0.999 . S
H679 C660 0.913 . S
C99 C59 1.751 . S
C114 C19 1.751 . S
C149 C38 2.271 . S
C164 C78 2.272 . S
C199 C79 1.749 . S
C214 C39 1.749 . S
C249 C18 2.271 1_655 S
C264 C58 2.271 1_655 S
C299 C62 1.462 . S
C314 C12 1.513 . S
C349 C52 1.512 . S
C364 C22 1.461 . S
C399 C42 1.461 . S
C414 C32 1.512 . S
C449 C2 1.461 . S
C464 C72 1.512 . S
C499 C69 0.708 . S
C514 C4 0.722 . S
C549 C44 0.721 . S
C564 C29 0.708 . S
C599 C24 0.721 . S
C614 C49 0.708 . S
C649 C9 0.707 . S
C664 C64 0.720 . S
