# Generated by pormake.
# Topology sxc, (6)-cn, num edge types: 1
# Building blocks:
#     Node 0, Type 0, BuildingBlock: INOVEN_clean_sbu_0, # of connection points: 6
#     Node 1, Type 0, BuildingBlock: INOVEN_clean_sbu_0, # of connection points: 6
#     Node 2, Type 0, BuildingBlock: INOVEN_clean_sbu_0, # of connection points: 6
#     Edge 3, Type (0, 0), BuildingBlock: EZIPEK_clean_linker_0, # of connection points: 2
#     Edge 4, Type (0, 0), BuildingBlock: EZIPEK_clean_linker_0, # of connection points: 2
#     Edge 5, Type (0, 0), BuildingBlock: EZIPEK_clean_linker_0, # of connection points: 2
#     Edge 6, Type (0, 0), BuildingBlock: EZIPEK_clean_linker_0, # of connection points: 2
#     Edge 7, Type (0, 0), BuildingBlock: EZIPEK_clean_linker_0, # of connection points: 2
#     Edge 8, Type (0, 0), BuildingBlock: EZIPEK_clean_linker_0, # of connection points: 2
#     Edge 9, Type (0, 0), BuildingBlock: EZIPEK_clean_linker_0, # of connection points: 2
#     Edge 10, Type (0, 0), BuildingBlock: EZIPEK_clean_linker_0, # of connection points: 2
#     Edge 11, Type (0, 0), BuildingBlock: EZIPEK_clean_linker_0, # of connection points: 2
# Relax obj value: 0.489
# Max RMSD: 0.193
# Mean RMSD: 0.107
data_MOF--net-sxc--node1-INOVEN_clean_sbu_0--edge1-EZIPEK_clean_linker_0
_symmetry_space_group_name_H-M    P1
_symmetry_Int_Tables_number       1
_symmetry_cell_setting            triclinic
loop_
_symmetry_equiv_pos_as_xyz
'x, y, z'
_cell_length_a     13.025404
_cell_length_b     11.878983
_cell_length_c     33.279746
_cell_angle_alpha  90.84477
_cell_angle_beta   95.201022
_cell_angle_gamma 84.110111
loop_
_atom_site_label
_atom_site_type_symbol
_atom_site_fract_x
_atom_site_fract_y
_atom_site_fract_z
_atom_type_partial_charge
Gd0 Gd 0.27943 0.14209 0.97763 0.0
Gd1 Gd 1.06938 0.18593 0.96697 0.0
C2 C 1.17782 0.41175 0.97245 0.0
C3 C 0.47578 0.13867 0.974 0.0
C4 C 0.53851 0.23283 0.98078 0.0
C5 C 0.52621 0.30336 0.01464 0.0
C6 C 0.59586 0.26464 0.94991 0.0
C7 C 0.61696 0.44188 -0.01562 0.0
C8 C 0.63612 0.36879 0.95191 0.0
C9 C 0.56505 0.40773 0.0163 0.0
C10 C 0.1987 0.14502 0.05093 0.0
C11 C 1.16629 0.91683 0.96909 0.0
C12 C 0.87413 0.18976 0.97408 0.0
C13 C 0.808 0.09776 0.97219 0.0
C14 C 0.81551 1.01571 0.94152 0.0
C15 C 0.74976 1.08167 0.00468 0.0
C16 C 0.71536 0.89829 0.97778 0.0
C17 C 0.70185 0.98281 0.00713 0.0
C18 C 0.76959 0.91621 0.94443 0.0
C19 C 1.15386 0.18485 0.89433 0.0
O20 O 0.26259 0.33934 0.9703 0.0
O21 O 1.08905 0.37073 0.97538 0.0
O22 O 0.43555 0.10369 0.00547 0.0
O23 O 0.40949 0.15009 0.94222 0.0
O24 O 0.26938 1.07006 0.03942 0.0
O25 O 1.1724 0.21592 0.02255 0.0
O26 O 1.08256 0.99004 0.97106 0.0
O27 O 0.25613 0.95722 0.96724 0.0
O28 O 0.91104 0.21468 0.94046 0.0
O29 O 0.94383 0.18394 0.00493 0.0
O30 O 1.08152 0.25895 0.9053 0.0
O31 O 1.17746 0.11266 0.92236 0.0
H32 H 0.48088 0.28159 0.03859 0.0
H33 H 0.60489 0.2115 0.92345 0.0
H34 H 0.67652 0.39524 0.92716 0.0
H35 H 0.55007 0.46429 0.04143 0.0
H36 H 0.86166 1.02524 0.91653 0.0
H37 H 0.74456 0.14374 0.0288 0.0
H38 H 0.65972 0.96924 0.03296 0.0
H39 H 0.78027 0.85094 0.92165 0.0
Gd40 Gd 1.07545 0.17586 0.30276 0.0
Gd41 Gd 0.29623 0.13491 0.2973 0.0
C42 C 0.19108 0.40144 0.29629 0.0
C43 C 0.90436 0.19384 0.337 0.0
C44 C 0.88581 0.146 0.37584 0.0
C45 C 0.79305 0.17405 0.39337 0.0
C46 C 0.96251 1.07021 0.39567 0.0
C47 C 0.84224 1.02392 0.44346 0.0
C48 C 0.9418 1.01116 0.42944 0.0
C49 C 0.77176 0.11479 0.42723 0.0
C50 C 1.12176 0.18986 0.22407 0.0
C51 C 1.17494 0.90949 0.29828 0.0
C52 C 0.48726 1.087 0.2843 0.0
C53 C 0.55441 0.98987 0.30256 0.0
C54 C 0.50974 0.89324 0.31395 0.0
C55 C 0.65512 1.00506 0.31846 0.0
C56 C 0.64828 0.85451 0.36668 0.0
C57 C 0.70303 0.93504 0.34952 0.0
C58 C 0.55519 0.82732 0.34655 0.0
C59 C 0.24433 0.10897 0.37461 0.0
O60 O 1.10383 0.3604 0.30289 0.0
O61 O 0.27476 0.33044 0.29038 0.0
O62 O 0.96919 0.27058 0.34011 0.0
O63 O 0.92312 0.12078 0.30802 0.0
O64 O 1.04199 0.24473 0.23892 0.0
O65 O 1.16591 0.12094 0.25058 0.0
O66 O 0.26125 0.95217 0.29176 0.0
O67 O 1.09292 0.98022 0.30572 0.0
O68 O 0.45749 0.16434 0.3104 0.0
O69 O 0.41123 1.06285 0.2582 0.0
O70 O 0.31651 1.04743 0.35802 0.0
O71 O 0.20623 0.18512 0.34972 0.0
H72 H 0.73448 0.23627 0.37943 0.0
H73 H 1.03652 1.0517 0.38347 0.0
H74 H 1.00092 0.94769 0.44178 0.0
H75 H 0.69551 0.13332 0.43759 0.0
H76 H 0.43538 0.87434 0.30041 0.0
H77 H 0.6926 1.07702 0.30967 0.0
H78 H 0.77837 0.95188 0.36305 0.0
H79 H 0.51351 0.76216 0.35806 0.0
Gd80 Gd 0.20096 1.09179 0.63226 0.0
Gd81 Gd 0.18827 0.197 0.6369 0.0
C82 C 0.94218 0.12375 0.64541 0.0
C83 C 1.17111 0.88252 0.64646 0.0
C84 C 1.08219 0.81525 0.64024 0.0
C85 C 1.03954 0.78697 0.60152 0.0
C86 C 1.03235 0.78935 0.67413 0.0
C87 C 0.89216 0.72218 0.63078 0.0
C88 C 0.93756 0.74451 0.66941 0.0
C89 C 0.94532 0.73927 0.59685 0.0
C90 C 0.22118 0.10495 0.55138 0.0
C91 C 0.44537 0.16209 0.6201 0.0
C92 C 0.20622 0.41235 0.62713 0.0
C93 C 0.29502 0.48054 0.62901 0.0
C94 C 0.34625 0.51093 0.66598 0.0
C95 C 0.33495 0.50703 0.59283 0.0
C96 C 0.48319 0.57693 0.6304 0.0
C97 C 0.42912 0.55294 0.59353 0.0
C98 C 0.43936 0.5603 0.66662 0.0
C99 C 0.18275 0.17015 0.71852 0.0
O100 O 1.01617 0.15626 0.62304 0.0
O101 O 1.01261 0.15758 0.62199 0.0
O102 O 0.21479 0.91233 0.6153 0.0
O103 O 1.15822 0.96542 0.67171 0.0
O104 O 0.28671 1.04561 0.57629 0.0
O105 O 1.15239 0.15824 0.57089 0.0
O106 O 0.3732 0.13424 0.64405 0.0
O107 O 0.37656 0.13291 0.64523 0.0
O108 O 0.18114 0.37115 0.66025 0.0
O109 O 0.20499 0.33765 0.59864 0.0
O110 O 1.10445 0.21414 0.69489 0.0
O111 O 0.25376 0.13298 0.69673 0.0
H112 H 1.07676 0.80501 0.5749 0.0
H113 H 1.06421 0.80929 0.70431 0.0
H114 H 0.89813 0.72996 0.69588 0.0
H115 H 0.91166 0.72037 0.56685 0.0
H116 H 0.31664 0.49293 0.69433 0.0
H117 H 0.29564 0.48737 0.5639 0.0
H118 H 0.46124 0.56703 0.56532 0.0
H119 H 0.47992 0.58008 0.69531 0.0
C120 C 0.20774 0.59764 0.93734 0.0
C121 C 1.17898 0.54125 0.97162 0.0
C122 C 1.12108 0.73078 -0.00027 0.0
C123 C 1.16122 0.78761 0.96798 0.0
N124 N 0.23961 0.77283 0.90509 0.0
N125 N 1.11782 0.55769 0.03776 0.0
C126 C 0.20466 0.71982 0.93662 0.0
C127 C 1.1385 0.60934 0.00339 0.0
N128 N 0.23172 0.53455 0.90423 0.0
N129 N 1.06252 0.79222 0.0259 0.0
H130 H 1.12526 0.47022 0.04108 0.0
H131 H 1.10185 0.60061 0.06432 0.0
H132 H 1.03799 0.87765 0.02206 0.0
H133 H 1.02964 0.7576 0.04951 0.0
H134 H 0.24468 0.56803 0.87667 0.0
H135 H 0.23027 0.44723 0.90326 0.0
H136 H 0.28122 0.73141 0.88305 0.0
H137 H 0.22825 0.86025 0.90107 0.0
C138 C 0.78081 0.77168 0.41919 0.0
C139 C 0.67864 0.82245 0.40935 0.0
C140 C 0.69749 0.9381 0.47008 0.0
C141 C 0.80448 0.92712 0.46529 0.0
N142 N 0.93492 0.76815 0.4658 0.0
N143 N 0.52727 0.9184 0.43727 0.0
C144 C 0.84106 0.81886 0.45129 0.0
C145 C 0.63163 0.89095 0.43953 0.0
N146 N 0.82292 0.68535 0.3969 0.0
N147 N 0.65801 1.00691 0.49901 0.0
H148 H 0.47718 0.88359 0.4154 0.0
H149 H 0.49229 0.97265 0.45819 0.0
H150 H 0.70564 1.04744 0.52035 0.0
H151 H 0.70564 1.04744 0.52035 0.0
H152 H 0.78088 0.64974 0.37257 0.0
H153 H 0.78088 0.64974 0.37257 0.0
H154 H 0.96521 0.69007 0.4548 0.0
H155 H 0.97784 0.80433 0.48976 0.0
C156 C 0.70008 0.75781 0.61383 0.0
C157 C 0.78793 0.68191 0.62682 0.0
C158 C 0.67623 0.53778 0.64265 0.0
C159 C 0.58818 0.61451 0.63051 0.0
N160 N 0.5129 0.8005 0.60948 0.0
N161 N 0.86354 0.49572 0.64715 0.0
C162 C 0.59916 0.7251 0.61702 0.0
C163 C 0.77702 0.57079 0.63964 0.0
N164 N 0.71346 0.86058 0.59813 0.0
N165 N 0.66314 0.43417 0.65774 0.0
H166 H 0.93827 0.51637 0.64387 0.0
H167 H 0.86241 0.41077 0.65394 0.0
H168 H 0.59126 0.40284 0.65754 0.0
H169 H 0.72247 0.38018 0.67222 0.0
H170 H 0.65406 0.91456 0.58369 0.0
H171 H 0.78563 0.89068 0.59746 0.0
H172 H 0.51455 0.88552 0.60288 0.0
H173 H 0.43798 0.78022 0.61256 0.0
C174 C 0.75327 1.07266 0.66139 0.0
C175 C 0.81435 0.13392 0.63603 0.0
C176 C 0.63418 0.20921 0.60219 0.0
C177 C 0.57326 0.15057 0.62839 0.0
N178 N 0.59062 1.00122 0.67725 0.0
N179 N 0.79683 0.27917 0.5855 0.0
C180 C 0.63788 1.07692 0.65673 0.0
C181 C 0.74964 0.20588 0.60708 0.0
N182 N 0.80667 1.00888 0.69171 0.0
N183 N 0.5808 0.26763 0.57049 0.0
H184 H 0.8766 0.28094 0.58723 0.0
H185 H 0.75707 0.34602 0.56884 0.0
H186 H 0.50012 0.27903 0.56641 0.0
H187 H 0.61577 0.29727 0.54638 0.0
H188 H 0.77256 0.97817 0.71586 0.0
H189 H 0.88689 0.99153 0.69407 0.0
H190 H 0.63019 0.93337 0.69343 0.0
H191 H 0.511 0.99772 0.67471 0.0
C192 C 0.74406 0.70836 0.00948 0.0
C193 C 0.68189 0.78593 -0.01678 0.0
C194 C 0.57529 0.63778 0.95875 0.0
C195 C 0.64115 0.55913 -0.01666 0.0
N196 N 0.79066 0.51925 0.03201 0.0
N197 N 0.53267 0.82577 0.93442 0.0
C198 C 0.72519 0.59396 0.00875 0.0
C199 C 0.5964 0.75148 0.95844 0.0
N200 N 0.82325 0.74266 0.03492 0.0
N201 N 0.49141 0.60468 0.9356 0.0
H202 H 0.54072 0.91209 0.93286 0.0
H203 H 0.54072 0.91209 0.93286 0.0
H204 H 0.46926 0.52277 0.93561 0.0
H205 H 0.44348 0.66034 0.9165 0.0
H206 H 0.86836 0.6875 0.05515 0.0
H207 H 0.84252 0.82568 0.03652 0.0
H208 H 0.78504 0.43227 0.03265 0.0
H209 H 0.78504 0.43227 0.03265 0.0
C210 C 1.14834 0.59649 0.32888 0.0
C211 C 0.19277 0.53123 0.29717 0.0
C212 C 0.22433 0.71334 0.26604 0.0
C213 C 1.17333 0.77907 0.2965 0.0
N214 N 1.06972 0.77528 0.35333 0.0
N215 N 0.26537 0.53139 0.2332 0.0
C216 C 1.12987 0.71821 0.32658 0.0
C217 C 0.22968 0.591 0.26542 0.0
N218 N 1.12967 0.54252 0.3631 0.0
N219 N 0.26686 0.76779 0.23671 0.0
H220 H 0.27501 0.44346 0.23199 0.0
H221 H 0.27928 0.56814 0.20629 0.0
H222 H 0.24999 0.85374 0.23079 0.0
H223 H 0.32081 0.72824 0.2185 0.0
H224 H 1.11004 0.58472 0.38941 0.0
H225 H 1.14526 0.45545 0.36706 0.0
H226 H 1.02407 0.73546 0.37174 0.0
H227 H 1.05845 0.86268 0.35554 0.0
C228 C 1.13081 1.07297 0.15862 0.0
C229 C 1.13332 0.17934 0.1789 0.0
C230 C 0.18187 0.26225 0.11615 0.0
C231 C 1.17441 0.15806 0.09497 0.0
N232 N 1.13567 0.96427 0.09612 0.0
N233 N 1.13246 0.38136 0.17244 0.0
C234 C 1.14778 1.06336 0.11646 0.0
C235 C 1.14944 0.2757 0.15617 0.0
N236 N 1.10932 0.9811 0.17943 0.0
N237 N 0.22864 0.34599 0.09963 0.0
H238 H 1.10903 0.39557 0.20134 0.0
H239 H 1.13204 0.45509 0.1558 0.0
H240 H 0.2607 0.33684 0.07204 0.0
H241 H 0.24626 0.41915 0.11531 0.0
H242 H 1.12001 0.89804 0.16911 0.0
H243 H 1.08155 0.98726 0.20785 0.0
H244 H 1.10456 0.89563 0.1076 0.0
H245 H 1.15259 0.95203 0.06639 0.0
C246 C 0.25013 0.20916 0.44371 0.0
C247 C 0.2364 0.10992 0.41995 0.0
C248 C 0.20959 1.00859 0.48241 0.0
C249 C 0.22593 0.10679 0.50605 0.0
N250 N 0.29236 0.28829 0.51015 0.0
N251 N 0.22358 0.90834 0.41866 0.0
C252 C 0.25344 0.20419 0.48688 0.0
C253 C 0.22288 1.00756 0.44002 0.0
N254 N 0.26464 0.30784 0.42548 0.0
N255 N 1.17859 0.91658 0.50037 0.0
H256 H 0.22725 0.90367 0.38758 0.0
H257 H 0.22733 0.82904 0.4319 0.0
H258 H 1.16814 0.91435 0.53101 0.0
H259 H 1.15609 0.84545 0.48472 0.0
H260 H 0.25858 0.38612 0.44006 0.0
H261 H 0.27969 0.31285 0.39544 0.0
H262 H 0.32421 0.35656 0.49864 0.0
H263 H 0.30472 0.28252 0.5414 0.0
C264 C 0.26134 0.20979 0.79021 0.0
C265 C 0.18458 0.16098 0.76419 0.0
C266 C 1.10262 0.10594 0.82472 0.0
C267 C 1.17226 0.1655 0.85024 0.0
N268 N 0.3179 0.27525 0.85761 0.0
N269 N 1.03218 1.06086 0.75691 0.0
C270 C 0.2523 0.21657 0.83301 0.0
C271 C 1.10551 0.10839 0.78167 0.0
N272 N 0.34271 0.25086 0.774 0.0
N273 N 1.03494 1.04445 0.84187 0.0
H274 H 1.03747 1.05033 0.72606 0.0
H275 H 0.96441 1.03515 0.76644 0.0
H276 H 1.03014 1.04167 0.87295 0.0
H277 H 0.98901 0.98916 0.82599 0.0
H278 H 0.40762 0.27572 0.79099 0.0
H279 H 0.34874 0.25463 0.74306 0.0
H280 H 0.37009 0.32658 0.84744 0.0
H281 H 0.31653 0.27695 0.88883 0.0
loop_
_geom_bond_atom_site_label_1
_geom_bond_atom_site_label_2
_geom_bond_distance
_geom_bond_site_symmetry_2
_ccdc_geom_bond_type
Gd0 C3 2.818 . S
Gd0 O20 2.377 . S
Gd0 O22 2.448 . S
Gd0 O23 2.506 1_554 S
Gd0 O24 2.435 . S
Gd0 O25 2.717 1_545 S
Gd0 O27 2.395 1_545 S
Gd0 O31 2.327 1_554 S
Gd1 C12 2.818 . S
Gd1 O21 2.395 1_565 S
Gd1 O25 2.327 1_656 S
Gd1 O26 2.377 . S
Gd1 O28 2.448 . S
Gd1 O29 2.506 1_556 S
Gd1 O30 2.435 . S
Gd1 O31 2.717 1_665 S
C2 O20 1.240 . S
C2 O21 1.240 1_454 S
C3 Gd0 2.818 . S
C3 C4 1.510 . S
C3 O22 1.249 . S
C3 O23 1.252 1_554 S
C4 C3 1.510 . S
C4 C5 1.404 . S
C4 C6 1.352 1_554 S
C5 C4 1.404 . S
C5 C9 1.389 . S
C5 H32 0.930 . S
C6 C4 1.352 1_556 S
C6 C8 1.374 . S
C6 H33 0.931 . S
C7 C8 1.359 1_554 S
C7 C9 1.364 . S
C8 C6 1.374 . S
C8 C7 1.359 1_556 S
C8 H34 0.931 . S
C9 C5 1.389 . S
C9 C7 1.364 . S
C9 H35 0.931 . S
C10 O24 1.256 . S
C10 O25 1.257 1_545 S
C11 O26 1.241 1_454 S
C11 O27 1.240 . S
C12 Gd1 2.818 . S
C12 C13 1.510 . S
C12 O28 1.249 . S
C12 O29 1.252 1_556 S
C13 C12 1.510 . S
C13 C14 1.404 . S
C13 C15 1.352 1_556 S
C14 C13 1.404 . S
C14 C18 1.389 . S
C14 H36 0.930 . S
C15 C13 1.352 1_554 S
C15 C17 1.374 . S
C15 H37 0.931 . S
C16 C17 1.358 1_556 S
C16 C18 1.365 . S
C17 C15 1.374 . S
C17 C16 1.358 1_554 S
C17 H38 0.931 . S
C18 C14 1.389 . S
C18 C16 1.365 . S
C18 H39 0.931 . S
C19 O30 1.256 1_445 S
C19 O31 1.257 . S
O20 Gd0 2.377 . S
O20 C2 1.240 . S
O21 Gd1 2.395 1_545 S
O21 C2 1.240 1_656 S
O22 Gd0 2.448 . S
O22 C3 1.249 . S
O23 Gd0 2.506 1_556 S
O23 C3 1.252 1_556 S
O24 Gd0 2.435 . S
O24 C10 1.256 . S
O25 Gd0 2.717 1_565 S
O25 Gd1 2.327 1_454 S
O25 C10 1.257 1_565 S
O26 Gd1 2.377 . S
O26 C11 1.241 1_656 S
O27 Gd0 2.395 1_565 S
O27 C11 1.240 . S
O28 Gd1 2.448 . S
O28 C12 1.249 . S
O29 Gd1 2.506 1_554 S
O29 C12 1.252 1_554 S
O30 Gd1 2.435 . S
O30 C19 1.256 1_665 S
O31 Gd0 2.327 1_556 S
O31 Gd1 2.717 1_445 S
O31 C19 1.257 . S
H32 C5 0.930 . S
H33 C6 0.931 . S
H34 C8 0.931 . S
H35 C9 0.931 . S
H36 C14 0.930 . S
H37 C15 0.931 . S
H38 C17 0.931 . S
H39 C18 0.931 . S
Gd40 C43 2.818 1_565 S
Gd40 O60 2.377 1_565 S
Gd40 O62 2.448 1_565 S
Gd40 O63 2.506 1_565 S
Gd40 O64 2.435 . S
Gd40 O65 2.717 1_665 S
Gd40 O67 2.395 . S
Gd40 O71 2.327 1_565 S
Gd41 C52 2.818 . S
Gd41 O61 2.395 . S
Gd41 O65 2.327 . S
Gd41 O66 2.377 1_545 S
Gd41 O68 2.448 . S
Gd41 O69 2.506 . S
Gd41 O70 2.435 . S
Gd41 O71 2.717 1_455 S
C42 O60 1.240 . S
C42 O61 1.240 1_655 S
C43 Gd40 2.818 1_545 S
C43 C44 1.510 . S
C43 O62 1.249 . S
C43 O63 1.252 . S
C44 C43 1.510 . S
C44 C45 1.404 . S
C44 C46 1.352 . S
C45 C44 1.404 . S
C45 C49 1.389 . S
C45 H72 0.930 . S
C46 C44 1.352 . S
C46 C48 1.374 . S
C46 H73 0.931 . S
C47 C48 1.359 . S
C47 C49 1.364 . S
C48 C46 1.374 . S
C48 C47 1.359 . S
C48 H74 0.931 . S
C49 C45 1.389 . S
C49 C47 1.364 . S
C49 H75 0.931 . S
C50 O64 1.256 1_545 S
C50 O65 1.257 1_655 S
C51 O66 1.240 . S
C51 O67 1.240 1_455 S
C52 Gd41 2.818 . S
C52 C53 1.510 1_545 S
C52 O68 1.249 . S
C52 O69 1.252 . S
C53 C52 1.510 1_565 S
C53 C54 1.404 . S
C53 C55 1.352 . S
C54 C53 1.404 . S
C54 C58 1.389 . S
C54 H76 0.930 1_565 S
C55 C53 1.352 . S
C55 C57 1.374 . S
C55 H77 0.931 . S
C56 C57 1.359 . S
C56 C58 1.364 . S
C57 C55 1.374 . S
C57 C56 1.359 . S
C57 H78 0.931 . S
C58 C54 1.389 . S
C58 C56 1.364 . S
C58 H79 0.931 . S
C59 O70 1.256 . S
C59 O71 1.257 1_455 S
O60 Gd40 2.377 1_545 S
O60 C42 1.240 . S
O61 Gd41 2.395 . S
O61 C42 1.240 1_455 S
O62 Gd40 2.448 1_545 S
O62 C43 1.249 . S
O63 Gd40 2.506 1_545 S
O63 C43 1.252 . S
O64 Gd40 2.435 . S
O64 C50 1.256 1_565 S
O65 Gd40 2.717 1_445 S
O65 Gd41 2.327 . S
O65 C50 1.257 1_455 S
O66 Gd41 2.377 1_565 S
O66 C51 1.240 . S
O67 Gd40 2.395 . S
O67 C51 1.240 1_655 S
O68 Gd41 2.448 . S
O68 C52 1.249 . S
O69 Gd41 2.506 . S
O69 C52 1.252 . S
O70 Gd41 2.435 . S
O70 C59 1.256 . S
O71 Gd40 2.327 1_545 S
O71 Gd41 2.717 1_655 S
O71 C59 1.257 1_655 S
H72 C45 0.930 . S
H73 C46 0.931 . S
H74 C48 0.931 . S
H75 C49 0.931 . S
H76 C54 0.930 1_545 S
H77 C55 0.931 . S
H78 C57 0.931 . S
H79 C58 0.931 . S
Gd80 C83 2.818 . S
Gd80 O100 2.377 1_565 S
Gd80 O102 2.448 . S
Gd80 O103 2.506 . S
Gd80 O104 2.435 . S
Gd80 O105 2.717 1_665 S
Gd80 O107 2.395 1_655 S
Gd80 O111 2.327 1_565 S
Gd81 C92 2.818 . S
Gd81 O101 2.395 1_455 S
Gd81 O105 2.327 . S
Gd81 O106 2.377 . S
Gd81 O108 2.448 . S
Gd81 O109 2.506 . S
Gd81 O110 2.435 . S
Gd81 O111 2.717 1_455 S
C82 O100 1.240 . S
C82 O101 1.240 . S
C83 Gd80 2.818 . S
C83 C84 1.510 . S
C83 O102 1.249 . S
C83 O103 1.252 . S
C84 C83 1.510 . S
C84 C85 1.404 . S
C84 C86 1.352 . S
C85 C84 1.404 . S
C85 C89 1.389 . S
C85 H112 0.930 . S
C86 C84 1.352 . S
C86 C88 1.374 . S
C86 H113 0.931 . S
C87 C88 1.359 . S
C87 C89 1.364 . S
C88 C86 1.374 . S
C88 C87 1.359 . S
C88 H114 0.931 . S
C89 C85 1.389 . S
C89 C87 1.364 . S
C89 H115 0.931 . S
C90 O104 1.256 1_545 S
C90 O105 1.257 1_655 S
C91 O106 1.240 . S
C91 O107 1.240 1_545 S
C92 Gd81 2.818 . S
C92 C93 1.510 . S
C92 O108 1.249 . S
C92 O109 1.252 . S
C93 C92 1.510 . S
C93 C94 1.404 . S
C93 C95 1.352 . S
C94 C93 1.404 . S
C94 C98 1.389 . S
C94 H116 0.930 . S
C95 C93 1.352 . S
C95 C97 1.374 . S
C95 H117 0.931 . S
C96 C97 1.359 . S
C96 C98 1.364 . S
C97 C95 1.374 . S
C97 C96 1.359 . S
C97 H118 0.931 . S
C98 C94 1.389 . S
C98 C96 1.364 . S
C98 H119 0.931 . S
C99 O110 1.256 . S
C99 O111 1.257 1_455 S
O100 Gd80 2.377 1_545 S
O100 C82 1.240 . S
O101 Gd81 2.395 1_655 S
O101 C82 1.240 . S
O102 Gd80 2.448 . S
O102 C83 1.249 . S
O103 Gd80 2.506 . S
O103 C83 1.252 . S
O104 Gd80 2.435 . S
O104 C90 1.256 1_565 S
O105 Gd80 2.717 1_445 S
O105 Gd81 2.327 . S
O105 C90 1.257 1_455 S
O106 Gd81 2.377 . S
O106 C91 1.240 . S
O107 Gd80 2.395 1_455 S
O107 C91 1.240 1_565 S
O108 Gd81 2.448 . S
O108 C92 1.249 . S
O109 Gd81 2.506 . S
O109 C92 1.252 . S
O110 Gd81 2.435 . S
O110 C99 1.256 . S
O111 Gd80 2.327 1_545 S
O111 Gd81 2.717 1_655 S
O111 C99 1.257 1_655 S
H112 C85 0.930 . S
H113 C86 0.931 . S
H114 C88 0.931 . S
H115 C89 0.931 . S
H116 C94 0.930 . S
H117 C95 0.931 . S
H118 C97 0.931 . S
H119 C98 0.931 . S
C120 C121 1.353 1_556 S
C120 C126 1.379 . S
C120 N128 1.356 . S
C121 C120 1.353 1_554 S
C121 C127 1.373 1_455 S
C122 C123 1.363 1_655 S
C122 C127 1.379 . S
C122 N129 1.356 . S
C123 C122 1.363 1_455 S
C123 C126 1.363 1_554 S
N124 C126 1.356 . S
N124 H136 0.984 . S
N124 H137 0.985 . S
N125 C127 1.356 . S
N125 H130 0.984 . S
N125 H131 0.985 . S
C126 C120 1.379 . S
C126 C123 1.363 1_556 S
C126 N124 1.356 . S
C127 C121 1.373 1_655 S
C127 C122 1.379 . S
C127 N125 1.356 . S
N128 C120 1.356 . S
N128 H134 0.984 . S
N128 H135 0.984 . S
N129 C122 1.356 . S
N129 H132 0.984 . S
N129 H133 0.985 . S
H130 N125 0.984 . S
H131 N125 0.985 . S
H132 N129 0.984 . S
H133 N129 0.985 . S
H134 N128 0.984 . S
H135 N128 0.984 . S
H136 N124 0.984 . S
H137 N124 0.985 . S
C138 C139 1.363 . S
C138 C144 1.379 1_565 S
C138 N146 1.356 . S
C139 C138 1.363 . S
C139 C145 1.363 . S
C140 C141 1.363 . S
C140 C145 1.379 1_545 S
C140 N147 1.356 . S
C141 C140 1.363 . S
C141 C144 1.363 . S
N142 C144 1.356 . S
N142 H154 0.984 . S
N142 H155 0.985 . S
N143 C145 1.356 . S
N143 H148 0.984 . S
N143 H149 0.985 . S
C144 C138 1.379 1_545 S
C144 C141 1.363 . S
C144 N142 1.356 . S
C145 C139 1.363 . S
C145 C140 1.379 1_565 S
C145 N143 1.356 . S
N146 C138 1.356 . S
N146 H152 0.984 . S
N146 H153 0.984 . S
N147 C140 1.356 . S
N147 H150 0.984 . S
N147 H151 0.985 . S
H148 N143 0.984 . S
H149 N143 0.985 . S
H150 N147 0.984 . S
H151 N147 0.985 . S
H152 N146 0.984 . S
H153 N146 0.984 . S
H154 N142 0.984 . S
H155 N142 0.985 . S
C156 C157 1.363 . S
C156 C162 1.379 . S
C156 N164 1.356 . S
C157 C156 1.363 . S
C157 C163 1.363 . S
C158 C159 1.363 . S
C158 C163 1.379 . S
C158 N165 1.356 . S
C159 C158 1.363 . S
C159 C162 1.363 . S
N160 C162 1.356 . S
N160 H172 0.984 . S
N160 H173 0.985 . S
N161 C163 1.356 . S
N161 H166 0.984 . S
N161 H167 0.985 . S
C162 C156 1.379 . S
C162 C159 1.363 . S
C162 N160 1.356 . S
C163 C157 1.363 . S
C163 C158 1.379 . S
C163 N161 1.356 . S
N164 C156 1.356 . S
N164 H170 0.984 . S
N164 H171 0.984 . S
N165 C158 1.356 . S
N165 H168 0.984 . S
N165 H169 0.985 . S
H166 N161 0.984 . S
H167 N161 0.985 . S
H168 N165 0.984 . S
H169 N165 0.985 . S
H170 N164 0.984 . S
H171 N164 0.984 . S
H172 N160 0.984 . S
H173 N160 0.985 . S
C174 C175 1.363 1_565 S
C174 C180 1.379 . S
C174 N182 1.356 . S
C175 C174 1.363 1_545 S
C175 C181 1.363 . S
C176 C177 1.363 . S
C176 C181 1.379 . S
C176 N183 1.356 . S
C177 C176 1.363 . S
C177 C180 1.363 1_545 S
N178 C180 1.356 . S
N178 H190 0.984 . S
N178 H191 0.985 . S
N179 C181 1.356 . S
N179 H184 0.984 . S
N179 H185 0.985 . S
C180 C174 1.379 . S
C180 C177 1.363 1_565 S
C180 N178 1.356 . S
C181 C175 1.363 . S
C181 C176 1.379 . S
C181 N179 1.356 . S
N182 C174 1.356 . S
N182 H188 0.984 . S
N182 H189 0.984 . S
N183 C176 1.356 . S
N183 H186 0.984 . S
N183 H187 0.985 . S
H184 N179 0.984 . S
H185 N179 0.985 . S
H186 N183 0.984 . S
H187 N183 0.985 . S
H188 N182 0.984 . S
H189 N182 0.984 . S
H190 N178 0.984 . S
H191 N178 0.985 . S
C192 C193 1.363 1_554 S
C192 C198 1.379 . S
C192 N200 1.356 . S
C193 C192 1.363 1_556 S
C193 C199 1.363 . S
C194 C195 1.363 1_556 S
C194 C199 1.379 . S
C194 N201 1.356 . S
C195 C194 1.363 1_554 S
C195 C198 1.363 . S
N196 C198 1.356 . S
N196 H208 0.984 . S
N196 H209 0.985 . S
N197 C199 1.356 . S
N197 H202 0.984 . S
N197 H203 0.985 . S
C198 C192 1.379 . S
C198 C195 1.363 . S
C198 N196 1.356 . S
C199 C193 1.363 . S
C199 C194 1.379 . S
C199 N197 1.356 . S
N200 C192 1.356 . S
N200 H206 0.984 . S
N200 H207 0.984 . S
N201 C194 1.356 . S
N201 H204 0.984 . S
N201 H205 0.985 . S
H202 N197 0.984 . S
H203 N197 0.985 . S
H204 N201 0.984 . S
H205 N201 0.985 . S
H206 N200 0.984 . S
H207 N200 0.984 . S
H208 N196 0.984 . S
H209 N196 0.985 . S
C210 C211 1.363 . S
C210 C216 1.379 . S
C210 N218 1.356 . S
C211 C210 1.363 . S
C211 C217 1.363 1_655 S
C212 C213 1.363 . S
C212 C217 1.379 . S
C212 N219 1.356 . S
C213 C212 1.363 . S
C213 C216 1.363 1_455 S
N214 C216 1.356 . S
N214 H226 0.984 . S
N214 H227 0.985 . S
N215 C217 1.356 . S
N215 H220 0.984 . S
N215 H221 0.985 . S
C216 C210 1.379 . S
C216 C213 1.363 1_655 S
C216 N214 1.356 . S
C217 C211 1.363 1_455 S
C217 C212 1.379 . S
C217 N215 1.356 . S
N218 C210 1.356 . S
N218 H224 0.984 . S
N218 H225 0.984 . S
N219 C212 1.356 . S
N219 H222 0.984 . S
N219 H223 0.985 . S
H220 N215 0.984 . S
H221 N215 0.985 . S
H222 N219 0.984 . S
H223 N219 0.985 . S
H224 N218 0.984 . S
H225 N218 0.984 . S
H226 N214 0.984 . S
H227 N214 0.985 . S
C228 C229 1.363 1_565 S
C228 C234 1.379 . S
C228 N236 1.356 . S
C229 C228 1.363 1_545 S
C229 C235 1.363 1_455 S
C230 C231 1.363 . S
C230 C235 1.379 1_455 S
C230 N237 1.356 1_455 S
C231 C230 1.363 . S
C231 C234 1.363 1_545 S
N232 C234 1.356 . S
N232 H244 0.984 . S
N232 H245 0.985 . S
N233 C235 1.356 . S
N233 H238 0.984 . S
N233 H239 0.985 . S
C234 C228 1.379 . S
C234 C231 1.363 1_565 S
C234 N232 1.356 . S
C235 C229 1.363 1_655 S
C235 C230 1.379 1_655 S
C235 N233 1.356 . S
N236 C228 1.356 . S
N236 H242 0.984 . S
N236 H243 0.984 . S
N237 C230 1.356 1_655 S
N237 H240 0.984 1_655 S
N237 H241 0.985 . S
H238 N233 0.984 . S
H239 N233 0.985 . S
H240 N237 0.984 1_455 S
H241 N237 0.985 . S
H242 N236 0.984 . S
H243 N236 0.984 . S
H244 N232 0.984 . S
H245 N232 0.985 . S
C246 C247 1.363 . S
C246 C252 1.379 . S
C246 N254 1.356 . S
C247 C246 1.363 . S
C247 C253 1.363 1_445 S
C248 C249 1.360 1_665 S
C248 C253 1.379 . S
C248 N255 1.356 . S
C249 C248 1.360 1_445 S
C249 C252 1.366 . S
N250 C252 1.356 . S
N250 H262 0.984 . S
N250 H263 0.985 . S
N251 C253 1.356 . S
N251 H256 0.984 . S
N251 H257 0.985 . S
C252 C246 1.379 . S
C252 C249 1.366 . S
C252 N250 1.356 . S
C253 C247 1.363 1_665 S
C253 C248 1.379 . S
C253 N251 1.356 . S
N254 C246 1.356 . S
N254 H260 0.984 . S
N254 H261 0.984 . S
N255 C248 1.356 . S
N255 H258 0.984 . S
N255 H259 0.985 . S
H256 N251 0.984 . S
H257 N251 0.985 . S
H258 N255 0.984 . S
H259 N255 0.985 . S
H260 N254 0.984 . S
H261 N254 0.984 . S
H262 N250 0.984 . S
H263 N250 0.985 . S
C264 C265 1.363 . S
C264 C270 1.379 . S
C264 N272 1.356 . S
C265 C264 1.363 . S
C265 C271 1.363 1_445 S
C266 C267 1.363 1_665 S
C266 C271 1.379 . S
C266 N273 1.356 . S
C267 C266 1.363 1_445 S
C267 C270 1.363 . S
N268 C270 1.356 . S
N268 H280 0.984 . S
N268 H281 0.985 . S
N269 C271 1.356 . S
N269 H274 0.984 . S
N269 H275 0.985 . S
C270 C264 1.379 . S
C270 C267 1.363 . S
C270 N268 1.356 . S
C271 C265 1.363 1_665 S
C271 C266 1.379 . S
C271 N269 1.356 . S
N272 C264 1.356 . S
N272 H278 0.984 . S
N272 H279 0.984 . S
N273 C266 1.356 . S
N273 H276 0.984 . S
N273 H277 0.985 . S
H274 N269 0.984 . S
H275 N269 0.985 . S
H276 N273 0.984 . S
H277 N273 0.985 . S
H278 N272 0.984 . S
H279 N272 0.984 . S
H280 N268 0.984 . S
H281 N268 0.985 . S
C121 C2 3.009 . S
C123 C11 3.008 . S
C139 C56 0.875 . S
C141 C47 0.875 . S
C157 C87 0.895 . S
C159 C96 0.895 . S
C175 C82 4.912 . S
C177 C91 4.912 . S
C193 C16 0.605 . S
C195 C7 0.605 . S
C211 C42 3.114 . S
C213 C51 3.114 . S
C229 C50 1.485 1_455 S
C231 C10 1.484 . S
C247 C59 1.466 . S
C249 C90 1.450 1_455 S
C265 C99 1.486 . S
C267 C19 1.462 . S
