# Generated by pormake.
# Topology whz, (6)-cn, num edge types: 1
# Building blocks:
#     Node 0, Type 0, BuildingBlock: BETDEL_clean_sbu_0, # of connection points: 6
#     Node 1, Type 0, BuildingBlock: BETDEL_clean_sbu_0, # of connection points: 6
#     Node 2, Type 0, BuildingBlock: BETDEL_clean_sbu_0, # of connection points: 6
#     Node 3, Type 0, BuildingBlock: BETDEL_clean_sbu_0, # of connection points: 6
#     Node 4, Type 0, BuildingBlock: BETDEL_clean_sbu_0, # of connection points: 6
#     Node 5, Type 0, BuildingBlock: BETDEL_clean_sbu_0, # of connection points: 6
#     Node 6, Type 0, BuildingBlock: BETDEL_clean_sbu_0, # of connection points: 6
#     Node 7, Type 0, BuildingBlock: BETDEL_clean_sbu_0, # of connection points: 6
#     Node 8, Type 0, BuildingBlock: BETDEL_clean_sbu_0, # of connection points: 6
#     Node 9, Type 0, BuildingBlock: BETDEL_clean_sbu_0, # of connection points: 6
#     Node 10, Type 0, BuildingBlock: BETDEL_clean_sbu_0, # of connection points: 6
#     Node 11, Type 0, BuildingBlock: BETDEL_clean_sbu_0, # of connection points: 6
#     Node 12, Type 0, BuildingBlock: BETDEL_clean_sbu_0, # of connection points: 6
#     Node 13, Type 0, BuildingBlock: BETDEL_clean_sbu_0, # of connection points: 6
#     Node 14, Type 0, BuildingBlock: BETDEL_clean_sbu_0, # of connection points: 6
#     Node 15, Type 0, BuildingBlock: BETDEL_clean_sbu_0, # of connection points: 6
#     Edge 16, Type (0, 0), BuildingBlock: CIFDUS_clean_linker_0, # of connection points: 2
#     Edge 17, Type (0, 0), BuildingBlock: CIFDUS_clean_linker_0, # of connection points: 2
#     Edge 18, Type (0, 0), BuildingBlock: CIFDUS_clean_linker_0, # of connection points: 2
#     Edge 19, Type (0, 0), BuildingBlock: CIFDUS_clean_linker_0, # of connection points: 2
#     Edge 20, Type (0, 0), BuildingBlock: CIFDUS_clean_linker_0, # of connection points: 2
#     Edge 21, Type (0, 0), BuildingBlock: CIFDUS_clean_linker_0, # of connection points: 2
#     Edge 22, Type (0, 0), BuildingBlock: CIFDUS_clean_linker_0, # of connection points: 2
#     Edge 23, Type (0, 0), BuildingBlock: CIFDUS_clean_linker_0, # of connection points: 2
#     Edge 24, Type (0, 0), BuildingBlock: CIFDUS_clean_linker_0, # of connection points: 2
#     Edge 25, Type (0, 0), BuildingBlock: CIFDUS_clean_linker_0, # of connection points: 2
#     Edge 26, Type (0, 0), BuildingBlock: CIFDUS_clean_linker_0, # of connection points: 2
#     Edge 27, Type (0, 0), BuildingBlock: CIFDUS_clean_linker_0, # of connection points: 2
#     Edge 28, Type (0, 0), BuildingBlock: CIFDUS_clean_linker_0, # of connection points: 2
#     Edge 29, Type (0, 0), BuildingBlock: CIFDUS_clean_linker_0, # of connection points: 2
#     Edge 30, Type (0, 0), BuildingBlock: CIFDUS_clean_linker_0, # of connection points: 2
#     Edge 31, Type (0, 0), BuildingBlock: CIFDUS_clean_linker_0, # of connection points: 2
#     Edge 32, Type (0, 0), BuildingBlock: CIFDUS_clean_linker_0, # of connection points: 2
#     Edge 33, Type (0, 0), BuildingBlock: CIFDUS_clean_linker_0, # of connection points: 2
#     Edge 34, Type (0, 0), BuildingBlock: CIFDUS_clean_linker_0, # of connection points: 2
#     Edge 35, Type (0, 0), BuildingBlock: CIFDUS_clean_linker_0, # of connection points: 2
#     Edge 36, Type (0, 0), BuildingBlock: CIFDUS_clean_linker_0, # of connection points: 2
#     Edge 37, Type (0, 0), BuildingBlock: CIFDUS_clean_linker_0, # of connection points: 2
#     Edge 38, Type (0, 0), BuildingBlock: CIFDUS_clean_linker_0, # of connection points: 2
#     Edge 39, Type (0, 0), BuildingBlock: CIFDUS_clean_linker_0, # of connection points: 2
#     Edge 40, Type (0, 0), BuildingBlock: CIFDUS_clean_linker_0, # of connection points: 2
#     Edge 41, Type (0, 0), BuildingBlock: CIFDUS_clean_linker_0, # of connection points: 2
#     Edge 42, Type (0, 0), BuildingBlock: CIFDUS_clean_linker_0, # of connection points: 2
#     Edge 43, Type (0, 0), BuildingBlock: CIFDUS_clean_linker_0, # of connection points: 2
#     Edge 44, Type (0, 0), BuildingBlock: CIFDUS_clean_linker_0, # of connection points: 2
#     Edge 45, Type (0, 0), BuildingBlock: CIFDUS_clean_linker_0, # of connection points: 2
#     Edge 46, Type (0, 0), BuildingBlock: CIFDUS_clean_linker_0, # of connection points: 2
#     Edge 47, Type (0, 0), BuildingBlock: CIFDUS_clean_linker_0, # of connection points: 2
#     Edge 48, Type (0, 0), BuildingBlock: CIFDUS_clean_linker_0, # of connection points: 2
#     Edge 49, Type (0, 0), BuildingBlock: CIFDUS_clean_linker_0, # of connection points: 2
#     Edge 50, Type (0, 0), BuildingBlock: CIFDUS_clean_linker_0, # of connection points: 2
#     Edge 51, Type (0, 0), BuildingBlock: CIFDUS_clean_linker_0, # of connection points: 2
#     Edge 52, Type (0, 0), BuildingBlock: CIFDUS_clean_linker_0, # of connection points: 2
#     Edge 53, Type (0, 0), BuildingBlock: CIFDUS_clean_linker_0, # of connection points: 2
#     Edge 54, Type (0, 0), BuildingBlock: CIFDUS_clean_linker_0, # of connection points: 2
#     Edge 55, Type (0, 0), BuildingBlock: CIFDUS_clean_linker_0, # of connection points: 2
#     Edge 56, Type (0, 0), BuildingBlock: CIFDUS_clean_linker_0, # of connection points: 2
#     Edge 57, Type (0, 0), BuildingBlock: CIFDUS_clean_linker_0, # of connection points: 2
#     Edge 58, Type (0, 0), BuildingBlock: CIFDUS_clean_linker_0, # of connection points: 2
#     Edge 59, Type (0, 0), BuildingBlock: CIFDUS_clean_linker_0, # of connection points: 2
#     Edge 60, Type (0, 0), BuildingBlock: CIFDUS_clean_linker_0, # of connection points: 2
#     Edge 61, Type (0, 0), BuildingBlock: CIFDUS_clean_linker_0, # of connection points: 2
#     Edge 62, Type (0, 0), BuildingBlock: CIFDUS_clean_linker_0, # of connection points: 2
#     Edge 63, Type (0, 0), BuildingBlock: CIFDUS_clean_linker_0, # of connection points: 2
# Relax obj value: 0.493
# Max RMSD: 0.276
# Mean RMSD: 0.276
data_MOF--net-whz--node1-BETDEL_clean_sbu_0--edge1-CIFDUS_clean_linker_0
_symmetry_space_group_name_H-M    P1
_symmetry_Int_Tables_number       1
_symmetry_cell_setting            triclinic
loop_
_symmetry_equiv_pos_as_xyz
'x, y, z'
_cell_length_a     29.237544
_cell_length_b     29.292117
_cell_length_c     48.269425
_cell_angle_alpha  89.846605
_cell_angle_beta   90.518984
_cell_angle_gamma 89.867984
loop_
_atom_site_label
_atom_site_type_symbol
_atom_site_fract_x
_atom_site_fract_y
_atom_site_fract_z
_atom_type_partial_charge
Dy0 Dy 0.30544 0.19724 0.15489 0.0
C1 C 0.28878 0.13269 0.04683 0.0
C2 C 0.31622 0.23513 0.2052 0.0
Dy3 Dy 0.30934 0.15813 0.10102 0.0
O4 O 0.28896 0.24983 0.18599 0.0
O5 O 0.33724 0.1983 0.19747 0.0
O6 O 0.2426 0.23329 0.14175 0.0
O7 O 0.29698 0.23038 0.11408 0.0
C8 C 0.25783 0.24835 0.11842 0.0
C9 C 0.34936 0.10731 0.14255 0.0
O10 O 0.37462 0.1978 0.09664 0.0
O11 O 0.37725 0.21703 0.14283 0.0
O12 O 0.29877 0.10513 0.0672 0.0
O13 O 0.29082 0.17419 0.05603 0.0
O14 O 0.36801 0.11287 0.11835 0.0
O15 O 0.31194 0.12765 0.1424 0.0
O16 O 0.24975 0.14738 0.16206 0.0
O17 O 0.23571 0.14487 0.1152 0.0
C18 C 0.39598 0.21688 0.11794 0.0
C19 C 0.22248 0.13702 0.14116 0.0
Dy20 Dy 0.6254 0.57735 0.41313 0.0
C21 C 0.66902 0.53966 0.30113 0.0
C22 C 0.59068 0.59409 0.46389 0.0
Dy23 Dy 0.66239 0.57252 0.3551 0.0
O24 O 0.56837 0.59784 0.44075 0.0
O25 O 0.63275 0.58228 0.45923 0.0
O26 O 0.59021 0.51276 0.40487 0.0
O27 O 0.59218 0.56147 0.37313 0.0
C28 C 0.57488 0.52325 0.38049 0.0
C29 C 0.71602 0.61698 0.39352 0.0
O30 O 0.61738 0.63415 0.35009 0.0
O31 O 0.61224 0.64869 0.39704 0.0
O32 O 0.68526 0.57868 0.30978 0.0
O33 O 0.65096 0.51884 0.32216 0.0
O34 O 0.7197 0.62464 0.36692 0.0
O35 O 0.69077 0.58341 0.39598 0.0
O36 O 0.67323 0.5188 0.4204 0.0
O37 O 0.69104 0.50695 0.37406 0.0
C38 C 0.60514 0.66083 0.37084 0.0
C39 C 0.69275 0.49433 0.40066 0.0
Dy40 Dy 0.2426 0.87559 0.66232 0.0
C41 C 0.27749 0.92231 0.55147 0.0
C42 C 0.23114 0.84086 0.71363 0.0
Dy43 Dy 0.24488 0.90963 0.60476 0.0
O44 O 0.23951 0.81729 0.69162 0.0
O45 O 0.22772 0.88398 0.7076 0.0
O46 O 0.30996 0.84618 0.65488 0.0
O47 O 0.26058 0.84068 0.62327 0.0
C48 C 0.30019 0.82723 0.63147 0.0
C49 C 0.19707 0.96168 0.64116 0.0
O50 O 0.18516 0.86156 0.59996 0.0
O51 O 0.1721 0.85698 0.64694 0.0
O52 O 0.23969 0.93982 0.56096 0.0
O53 O 0.29679 0.89865 0.57112 0.0
O54 O 0.18565 0.95943 0.61502 0.0
O55 O 0.23367 0.94096 0.64454 0.0
O56 O 0.2985 0.92543 0.66995 0.0
O57 O 0.3097 0.94174 0.62344 0.0
C58 C 0.1593 0.84875 0.62103 0.0
C59 C 0.32255 0.94472 0.65003 0.0
Dy60 Dy 0.93431 0.47574 0.91304 0.0
C61 C 0.8932 0.49872 0.79958 0.0
C62 C 0.96753 0.46922 0.96539 0.0
Dy63 Dy 0.89877 0.46967 0.8545 0.0
O64 O 0.9904 0.46006 0.94326 0.0
O65 O 0.92596 0.48111 0.95898 0.0
O66 O 0.97702 0.53277 0.89882 0.0
O67 O 0.96877 0.47684 0.87262 0.0
C68 C 0.9896 0.51461 0.87574 0.0
C69 C 0.8409 0.43919 0.89451 0.0
O70 O 0.93919 0.4033 0.85671 0.0
O71 O 0.93726 0.4005 0.90452 0.0
O72 O 0.86988 0.46477 0.80998 0.0
O73 O 0.91886 0.51541 0.81912 0.0
O74 O 0.83923 0.42368 0.86915 0.0
O75 O 0.86798 0.47191 0.89506 0.0
O76 O 0.89299 0.53917 0.91483 0.0
O77 O 0.87974 0.54263 0.86744 0.0
C78 C 0.94588 0.3808 0.88044 0.0
C79 C 0.87844 0.56149 0.89261 0.0
Dy80 Dy 0.7284 0.88764 0.95706 0.0
C81 C 0.71773 0.82764 0.84573 0.0
C82 C 0.75197 0.88918 1.01321 0.0
Dy83 Dy 0.71558 0.85149 0.89997 0.0
O84 O 0.72246 0.91664 1.00121 0.0
O85 O 0.76728 0.86132 0.99456 0.0
O86 O 0.72492 0.95997 0.93834 0.0
O87 O 0.68584 0.90735 0.92187 0.0
C88 C 0.69696 0.94814 0.9184 0.0
C89 C 0.74979 0.78897 0.93551 0.0
O90 O 0.77973 0.89229 0.89392 0.0
O91 O 0.79438 0.91298 0.93945 0.0
O92 O 0.71188 0.79983 0.86626 0.0
O93 O 0.71965 0.86933 0.85472 0.0
O94 O 0.71485 0.783 0.91935 0.0
O95 O 0.76135 0.83069 0.93414 0.0
O96 O 0.65935 0.84861 0.95883 0.0
O97 O 0.64302 0.85029 0.91178 0.0
C98 C 0.80531 0.91277 0.91286 0.0
C99 C 0.6303 0.84209 0.93751 0.0
Dy100 Dy 0.41769 0.48691 0.70403 0.0
C101 C 0.47801 0.48264 0.59382 0.0
C102 C 0.41212 0.51161 0.75953 0.0
Dy103 Dy 0.44683 0.49164 0.64615 0.0
O104 O 0.38977 0.47794 0.74806 0.0
O105 O 0.43688 0.53084 0.74068 0.0
O106 O 0.35848 0.43929 0.6902 0.0
O107 O 0.38121 0.49109 0.66484 0.0
C108 C 0.35497 0.45793 0.66571 0.0
C109 C 0.50794 0.52978 0.68114 0.0
O110 O 0.40526 0.55486 0.64363 0.0
O111 O 0.40206 0.56122 0.69132 0.0
O112 O 0.49993 0.47046 0.61601 0.0
O113 O 0.43792 0.49837 0.60016 0.0
O114 O 0.49248 0.54802 0.65853 0.0
O115 O 0.48677 0.4925 0.68527 0.0
O116 O 0.45905 0.42163 0.70155 0.0
O117 O 0.44703 0.41626 0.65458 0.0
C118 C 0.39604 0.57884 0.66596 0.0
C119 C 0.46098 0.39774 0.67823 0.0
Dy120 Dy 0.8272 0.16034 0.45901 0.0
C121 C 0.82503 0.23487 0.35199 0.0
C122 C 0.80929 0.13909 0.51396 0.0
Dy123 Dy 0.82056 0.20269 0.40417 0.0
O124 O 0.82325 0.1105 0.49518 0.0
O125 O 0.8059 0.17922 0.50273 0.0
O126 O 0.87901 0.10987 0.4396 0.0
O127 O 0.82333 0.13346 0.41722 0.0
C128 C 0.85816 0.10921 0.41557 0.0
C129 C 0.77993 0.25333 0.44291 0.0
O130 O 0.75786 0.16113 0.39976 0.0
O131 O 0.75223 0.14706 0.44666 0.0
O132 O 0.81591 0.25913 0.37361 0.0
O133 O 0.83299 0.19278 0.35894 0.0
O134 O 0.76167 0.24172 0.41947 0.0
O135 O 0.81824 0.23287 0.44575 0.0
O136 O 0.89402 0.19844 0.46101 0.0
O137 O 0.89491 0.21557 0.41428 0.0
C138 C 0.73427 0.14629 0.42111 0.0
C139 C 0.9149 0.2157 0.43905 0.0
Dy140 Dy 0.14598 0.56628 0.20895 0.0
C141 C 0.06172 0.57328 0.10449 0.0
C142 C 0.16624 0.55263 0.2648 0.0
Dy143 Dy 0.09887 0.57477 0.15604 0.0
O144 O 0.1942 0.56814 0.24615 0.0
O145 O 0.1268 0.54563 0.25297 0.0
O146 O 0.21367 0.57033 0.18519 0.0
O147 O 0.15772 0.60881 0.17252 0.0
C148 C 0.1978 0.59818 0.16637 0.0
C149 C 0.04507 0.53805 0.19508 0.0
O150 O 0.14227 0.51255 0.14718 0.0
O151 O 0.16519 0.49766 0.19221 0.0
O152 O 0.04016 0.58453 0.12671 0.0
O153 O 0.10422 0.56431 0.11023 0.0
O154 O 0.03535 0.57386 0.18059 0.0
O155 O 0.0868 0.52825 0.19111 0.0
O156 O 0.10622 0.63457 0.21324 0.0
O157 O 0.09811 0.6481 0.16641 0.0
C158 C 0.16404 0.48668 0.1656 0.0
C159 C 0.09426 0.66216 0.19222 0.0
Dy160 Dy 0.83114 0.6849 0.66561 0.0
C161 C 0.80469 0.65894 0.54992 0.0
C162 C 0.83932 0.71199 0.71904 0.0
Dy163 Dy 0.83097 0.65816 0.6056 0.0
O164 O 0.841 0.73868 0.69761 0.0
O165 O 0.83548 0.66977 0.71115 0.0
O166 O 0.76296 0.71519 0.65709 0.0
O167 O 0.81302 0.7229 0.62743 0.0
C168 C 0.7732 0.73584 0.63434 0.0
C169 C 0.86125 0.5934 0.64286 0.0
O170 O 0.89852 0.69778 0.60615 0.0
O171 O 0.9006 0.70923 0.65389 0.0
O172 O 0.84265 0.64077 0.5596 0.0
O173 O 0.78273 0.67665 0.57061 0.0
O174 O 0.83861 0.5834 0.62027 0.0
O175 O 0.86839 0.63545 0.64246 0.0
O176 O 0.78064 0.62845 0.6681 0.0
O177 O 0.76326 0.6314 0.62137 0.0
C178 C 0.91954 0.71294 0.62909 0.0
C179 C 0.75412 0.61743 0.64695 0.0
Dy180 Dy 0.09326 0.04514 0.90742 0.0
C181 C 0.14721 1.02543 0.79793 0.0
C182 C 0.05243 0.04878 0.95736 0.0
Dy183 Dy 0.13474 0.05171 0.8524 0.0
O184 O 0.03156 0.05274 0.93378 0.0
O185 O 0.09618 0.04443 0.95377 0.0
O186 O 0.05958 0.98258 0.89206 0.0
O187 O 0.06322 0.03857 0.86571 0.0
C188 C 0.04581 0.99909 0.8686 0.0
C189 C 0.18432 0.09085 0.8941 0.0
O190 O 0.08863 0.11332 0.84991 0.0
O191 O 0.08143 0.11967 0.89724 0.0
O192 O 0.1621 0.06361 0.80861 0.0
O193 O 0.12718 1.00207 0.81718 0.0
O194 O 0.18478 0.10662 0.86875 0.0
O195 O 0.16198 0.05473 0.8942 0.0
O196 O 0.13913 0.98525 0.91382 0.0
O197 O 0.16467 0.98366 0.86854 0.0
C198 C 0.07559 0.13676 0.87195 0.0
C199 C 0.16256 0.96529 0.89393 0.0
Dy200 Dy 0.72872 0.36509 0.16476 0.0
C201 C 0.7581 0.40197 0.05144 0.0
C202 C 0.71693 0.34205 0.2183 0.0
Dy203 Dy 0.7284 0.39529 0.10593 0.0
O204 O 0.71579 0.31384 0.19769 0.0
O205 O 0.72336 0.38338 0.20953 0.0
O206 O 0.78683 0.32046 0.1565 0.0
O207 O 0.73588 0.32644 0.12547 0.0
C208 C 0.77385 0.30743 0.13211 0.0
C209 C 0.69691 0.45729 0.14377 0.0
O210 O 0.66322 0.35301 0.10605 0.0
O211 O 0.65471 0.36003 0.1532 0.0
O212 O 0.71875 0.41683 0.06033 0.0
O213 O 0.78022 0.3843 0.07226 0.0
O214 O 0.68179 0.45639 0.11827 0.0
O215 O 0.72918 0.42994 0.14551 0.0
O216 O 0.79333 0.40427 0.16779 0.0
O217 O 0.80154 0.412 0.12036 0.0
C218 C 0.63789 0.34879 0.12865 0.0
C219 C 0.81833 0.41521 0.14612 0.0
Dy220 Dy 0.45615 0.98213 0.4062 0.0
C221 C 0.39396 1.0028 0.29544 0.0
C222 C 0.49165 0.98389 0.45818 0.0
Dy223 Dy 0.41273 0.98892 0.35158 0.0
O224 O 0.51353 0.97136 0.43634 0.0
O225 O 0.44966 0.99416 0.45186 0.0
O226 O 0.52115 0.98071 0.38301 0.0
O227 O 0.47126 0.02658 0.37057 0.0
C228 C 0.51317 1.01634 0.36797 0.0
C229 C 0.35637 0.96226 0.39335 0.0
O230 O 0.45163 0.91995 0.34965 0.0
O231 O 0.4542 0.90846 0.39687 0.0
O232 O 0.36642 0.98504 0.31355 0.0
O233 O 0.43252 1.01166 0.30791 0.0
O234 O 0.34292 0.9875 0.37259 0.0
O235 O 0.39676 0.94985 0.38902 0.0
O236 O 0.41394 0.04533 0.41322 0.0
O237 O 0.39329 0.05812 0.36747 0.0
C238 C 0.46029 0.89299 0.37152 0.0
C239 C 0.39349 0.07032 0.3939 0.0
Dy240 Dy 0.24353 0.39637 0.45775 0.0
C241 C 0.26661 0.35257 0.34637 0.0
C242 C 0.25859 0.40041 0.51456 0.0
Dy243 Dy 0.24879 0.36759 0.39993 0.0
O244 O 0.25852 0.36381 0.49945 0.0
O245 O 0.2494 0.43532 0.4986 0.0
O246 O 0.18755 0.44674 0.4426 0.0
O247 O 0.24422 0.43313 0.41869 0.0
C248 C 0.20796 0.45543 0.41922 0.0
C249 C 0.26072 0.29671 0.43445 0.0
O250 O 0.31643 0.40183 0.40177 0.0
O251 O 0.31404 0.42508 0.44751 0.0
O252 O 0.28773 0.33334 0.36699 0.0
O253 O 0.23432 0.37965 0.35481 0.0
O254 O 0.23246 0.2978 0.41369 0.0
O255 O 0.27742 0.33646 0.43795 0.0
O256 O 0.17807 0.35494 0.45296 0.0
O257 O 0.173 0.36475 0.40569 0.0
C258 C 0.33525 0.42267 0.42317 0.0
C259 C 0.1543 0.35211 0.42938 0.0
Dy260 Dy 0.8961 0.98527 0.20503 0.0
C261 C 0.95984 0.95062 0.09643 0.0
C262 C 0.87886 1.01357 0.25909 0.0
Dy263 Dy 0.93096 0.97458 0.14744 0.0
O264 O 0.84881 1.00981 0.23915 0.0
O265 O 0.9184 1.00154 0.24946 0.0
O266 O 0.84146 0.93025 0.19416 0.0
O267 O 0.86504 0.97415 0.1645 0.0
C268 C 0.84088 0.94001 0.16778 0.0
C269 C 0.98246 0.0328 0.17609 0.0
O270 O 0.88558 0.03507 0.13995 0.0
O271 O 0.8849 0.05571 0.18628 0.0
O272 O 0.98545 0.95313 0.11837 0.0
O273 O 0.91779 0.96072 0.10243 0.0
O274 O 0.97012 0.03716 0.15043 0.0
O275 O 0.96585 0.99592 0.18634 0.0
O276 O 0.93506 0.92011 0.21211 0.0
O277 O 0.94524 0.90496 0.16557 0.0
C278 C 0.87695 0.06516 0.15966 0.0
C279 C 0.94944 0.89323 0.192 0.0
Dy280 Dy 0.31479 0.63595 0.95638 0.0
C281 C 0.31105 0.71561 0.84992 0.0
C282 C 0.29481 0.61548 1.01104 0.0
Dy283 Dy 0.30793 0.67871 0.9012 0.0
O284 O 0.32536 0.59471 0.99613 0.0
O285 O 0.27525 0.64677 0.99593 0.0
O286 O 0.37178 0.58867 0.94027 0.0
O287 O 0.31969 0.61042 0.9142 0.0
C288 C 0.35706 0.59005 0.9147 0.0
C289 C 0.25934 0.72448 0.93873 0.0
O290 O 0.25127 0.62887 0.89491 0.0
O291 O 0.24666 0.60758 0.94103 0.0
O292 O 0.2977 0.7364 0.87197 0.0
O293 O 0.32394 0.67422 0.85579 0.0
O294 O 0.24343 0.7092 0.91548 0.0
O295 O 0.29938 0.70789 0.94273 0.0
O296 O 0.37601 0.68083 0.96085 0.0
O297 O 0.3796 0.6995 0.91429 0.0
C298 C 0.2303 0.60706 0.91517 0.0
C299 C 0.39724 0.70007 0.93977 0.0
Dy300 Dy 0.65821 0.07493 0.71011 0.0
C301 C 0.57892 0.07127 0.60335 0.0
C302 C 0.6779 0.05633 0.76537 0.0
Dy303 Dy 0.61661 0.06612 0.65468 0.0
O304 O 0.70197 0.0827 0.74933 0.0
O305 O 0.6435 0.04071 0.75115 0.0
O306 O 0.70706 0.12856 0.69167 0.0
O307 O 0.68573 0.07304 0.66848 0.0
C308 C 0.70839 0.10893 0.66746 0.0
C309 C 0.56649 1.02525 0.69385 0.0
O310 O 0.65959 1.00367 0.65122 0.0
O311 O 0.67949 1.00271 0.69773 0.0
O312 O 0.55637 0.07124 0.62623 0.0
O313 O 0.62257 0.06895 0.60836 0.0
O314 O 0.57942 1.00652 0.67098 0.0
O315 O 0.58608 0.06388 0.69608 0.0
O316 O 0.61489 0.13812 0.71135 0.0
O317 O 0.6047 0.14105 0.66391 0.0
C318 C 0.67886 0.98316 0.67278 0.0
C319 C 0.60045 0.15982 0.68878 0.0
H320 H 0.27432 0.31181 0.22018 0.0
H321 H 0.36593 0.20641 0.25 0.0
H322 H 0.36265 0.23848 0.29677 0.0
H323 H 0.32663 0.29051 0.32923 0.0
H324 H 0.22995 0.39177 0.29999 0.0
H325 H 0.24256 0.36732 0.25215 0.0
C326 C 0.2939 0.29612 0.2369 0.0
C327 C 0.31972 0.2566 0.23217 0.0
C328 C 0.29063 0.31374 0.26349 0.0
C329 C 0.34556 0.23673 0.25358 0.0
C330 C 0.34357 0.25493 0.28015 0.0
C331 C 0.30867 0.30752 0.31233 0.0
C332 C 0.27694 0.34221 0.31774 0.0
C333 C 0.31508 0.29248 0.28538 0.0
C334 C 0.25408 0.36451 0.29597 0.0
C335 C 0.26129 0.35059 0.26881 0.0
H336 H 0.44993 0.5412 0.55422 0.0
H337 H 0.56041 0.45079 0.57782 0.0
H338 H 0.60845 0.48321 0.54166 0.0
H339 H 0.61925 0.53819 0.50432 0.0
H340 H 0.5083 0.62697 0.47949 0.0
H341 H 0.46053 0.59585 0.51636 0.0
C342 C 0.48415 0.52794 0.55097 0.0
C343 C 0.50173 0.49358 0.56827 0.0
C344 C 0.51187 0.54766 0.53084 0.0
C345 C 0.54624 0.47698 0.56434 0.0
C346 C 0.57387 0.49594 0.54405 0.0
C347 C 0.58504 0.55153 0.50751 0.0
C348 C 0.56725 0.58513 0.48977 0.0
C349 C 0.5573 0.53189 0.52761 0.0
C350 C 0.52262 0.60153 0.49343 0.0
C351 C 0.49519 0.58325 0.5141 0.0
H352 H 0.26387 0.75819 0.72621 0.0
H353 H 0.21592 0.88364 0.76277 0.0
H354 H 0.2395 0.85611 0.80874 0.0
H355 H 0.27586 0.79756 0.83762 0.0
H356 H 0.32563 0.67307 0.8007 0.0
H357 H 0.30063 0.70006 0.75494 0.0
C358 C 0.25798 0.77926 0.7443 0.0
C359 C 0.23801 0.8226 0.74144 0.0
C360 C 0.27302 0.76397 0.77016 0.0
C361 C 0.23096 0.84994 0.76479 0.0
C362 C 0.24482 0.83444 0.79088 0.0
C363 C 0.28163 0.77654 0.81949 0.0
C364 C 0.30252 0.73358 0.8222 0.0
C365 C 0.26651 0.79185 0.79364 0.0
C366 C 0.30982 0.70644 0.79881 0.0
C367 C 0.29517 0.72162 0.77283 0.0
H368 H 0.93057 0.51397 1.0082 0.0
H369 H 0.05369 0.44641 0.98135 0.0
H370 H 0.09509 0.47551 1.02179 0.0
H371 H 0.09692 0.52336 0.06323 0.0
H372 H 0.97405 0.59176 0.08972 0.0
H373 H 0.93191 0.56027 0.05024 0.0
C374 C 0.96622 0.50496 1.01154 0.0
C375 C 0.98924 0.47819 0.99212 0.0
C376 C 0.99001 0.52302 0.03417 0.0
C377 C 0.03543 0.46688 0.99632 0.0
C378 C 0.05917 0.48389 1.01918 0.0
C379 C 0.0611 0.53186 0.06006 0.0
C380 C 0.03855 0.56016 0.07888 0.0
C381 C 0.03703 0.51286 0.03783 0.0
C382 C 0.99202 0.5704 0.07509 0.0
C383 C 0.96788 0.55207 0.05278 0.0
H384 H 0.74755 0.74358 0.83348 0.0
H385 H 0.73233 0.87937 0.79967 0.0
H386 H 0.77468 0.85643 0.75837 0.0
H387 H 0.81541 0.7977 0.7323 0.0
H388 H 0.83017 0.66188 0.76618 0.0
H389 H 0.79021 0.68563 0.80811 0.0
C390 C 0.75287 0.76797 0.81687 0.0
C391 C 0.73633 0.81283 0.81919 0.0
C392 C 0.77829 0.75495 0.79384 0.0
C393 C 0.74424 0.84444 0.79793 0.0
C394 C 0.76886 0.8315 0.77459 0.0
C395 C 0.8107 0.77356 0.74911 0.0
C396 C 0.82567 0.7282 0.74639 0.0
C397 C 0.78635 0.78698 0.7725 0.0
C398 C 0.8191 0.69706 0.76808 0.0
C399 C 0.7958 0.71046 0.7918 0.0
H400 H 0.74412 0.25876 0.23349 0.0
H401 H 0.71771 0.39407 0.26481 0.0
H402 H 0.75384 0.37341 0.30906 0.0
H403 H 0.7956 0.31796 0.33741 0.0
H404 H 0.82446 0.18362 0.3052 0.0
H405 H 0.78679 0.2039 0.26144 0.0
C406 C 0.74544 0.28342 0.25021 0.0
C407 C 0.72804 0.32758 0.24634 0.0
C408 C 0.76824 0.27213 0.27468 0.0
C409 C 0.73046 0.35964 0.26778 0.0
C410 C 0.7517 0.3481 0.29276 0.0
C411 C 0.79425 0.29341 0.32061 0.0
C412 C 0.81259 0.24955 0.32418 0.0
C413 C 0.77156 0.3048 0.2961 0.0
C414 C 0.81078 0.21779 0.30255 0.0
C415 C 0.78871 0.22909 0.27782 0.0
H416 H 0.92028 0.98936 0.05179 0.0
H417 H 0.04332 0.92197 0.08041 0.0
H418 H 0.08441 0.94948 0.03985 0.0
H419 H 0.08691 0.99866 0.999 0.0
H420 H 0.96427 0.06659 0.97026 0.0
H421 H 0.92145 0.0344 1.00901 0.0
C422 C 0.95568 0.97961 0.04864 0.0
C423 C 0.97903 0.95393 0.06879 0.0
C424 C 0.97945 0.99723 1.02607 0.0
C425 C 1.02491 0.94168 0.06487 0.0
C426 C 0.04851 0.95796 0.04201 0.0
C427 C 0.05099 1.00695 1.00154 0.0
C428 C 0.02875 0.03564 0.98251 0.0
C429 C 1.02654 0.98719 1.02313 0.0
C430 C 0.982 0.04522 0.98527 0.0
C431 C 0.95749 0.02638 1.00708 0.0
H432 H 0.45286 1.02283 0.50258 0.0
H433 H 0.58103 0.97178 0.47148 0.0
H434 H 0.6208 0.99937 0.51284 0.0
H435 H 0.61876 0.03737 0.55789 0.0
H436 H 0.49028 0.08626 0.58967 0.0
H437 H 0.45091 0.06136 0.54748 0.0
C438 C 0.48939 1.01736 0.50508 0.0
C439 C 0.51408 0.99513 0.48438 0.0
C440 C 0.51198 0.03375 0.52863 0.0
C441 C 0.56141 0.98847 0.48748 0.0
C442 C 0.58419 1.00458 0.51092 0.0
C443 C 0.58232 0.04328 0.55526 0.0
C444 C 0.5573 0.06375 0.57645 0.0
C445 C 0.55983 0.0275 0.53151 0.0
C446 C 0.51005 0.07074 0.57329 0.0
C447 C 0.48753 0.05618 0.54939 0.0
H448 H 0.20879 0.04027 0.93848 0.0
H449 H 0.2162 0.17767 0.90682 0.0
H450 H 0.24999 0.20311 0.95114 0.0
H451 H 0.27393 0.18617 1.00021 0.0
H452 H 0.26776 0.04717 1.02972 0.0
H453 H 0.23698 1.02258 0.98507 0.0
C454 C 0.21807 0.07583 0.94108 0.0
C455 C 0.20974 0.10706 0.91925 0.0
C456 C 0.23752 0.08993 0.96645 0.0
C457 C 0.22242 0.15286 0.9231 0.0
C458 C 0.2415 0.16738 0.94856 0.0
C459 C 0.26615 0.15047 0.99675 0.0
C460 C 0.27306 0.11856 1.01853 0.0
C461 C 0.2487 0.13628 0.97059 0.0
C462 C 0.26292 0.07245 1.01353 0.0
C463 C 0.24518 0.05834 0.98794 0.0
H464 H 0.69767 0.58015 0.25167 0.0
H465 H 0.63722 0.45744 0.28459 0.0
H466 H 0.63334 0.42469 0.23836 0.0
H467 H 0.65087 0.42804 0.18875 0.0
H468 H 0.71498 0.5474 0.15484 0.0
H469 H 0.71214 0.58465 0.20042 0.0
C470 C 0.68362 0.5463 0.24869 0.0
C471 C 0.66805 0.52134 0.27198 0.0
C472 C 0.68136 0.5272 0.22155 0.0
C473 C 0.64968 0.47759 0.2674 0.0
C474 C 0.6472 0.45875 0.24079 0.0
C475 C 0.66316 0.46268 0.19113 0.0
C476 C 0.68211 0.48515 0.16807 0.0
C477 C 0.6632 0.48296 0.21772 0.0
C478 C 0.69877 0.52974 0.17187 0.0
C479 C 0.69793 0.55073 0.19817 0.0
H480 H 0.24161 0.96771 0.50541 0.0
H481 H 0.35687 0.88679 0.53307 0.0
H482 H 0.39024 0.89107 0.48714 0.0
H483 H 0.38748 0.91707 0.43893 0.0
H484 H 0.2743 0.99926 0.41003 0.0
H485 H 0.23939 0.99487 0.4561 0.0
C486 C 0.27401 0.95108 0.50134 0.0
C487 C 0.29655 0.92685 0.52289 0.0
C488 C 0.29338 0.95362 0.47446 0.0
C489 C 0.33858 0.90559 0.51708 0.0
C490 C 0.3578 0.90795 0.4907 0.0
C491 C 0.35506 0.93393 0.4426 0.0
C492 C 0.33349 0.95823 0.42087 0.0
C493 C 0.33554 0.93168 0.46921 0.0
C494 C 0.29155 0.98 0.42623 0.0
C495 C 0.27166 0.97763 0.45267 0.0
H496 H 0.91067 0.61364 0.68861 0.0
H497 H 0.81867 0.51166 0.65663 0.0
H498 H 0.81974 0.47252 0.7019 0.0
H499 H 0.84553 0.46907 0.752 0.0
H500 H 0.9372 0.57367 0.78191 0.0
H501 H 0.93697 0.60973 0.73663 0.0
C502 C 0.8911 0.58255 0.69137 0.0
C503 C 0.86484 0.56562 0.66903 0.0
C504 C 0.89147 0.56073 0.71749 0.0
C505 C 0.83965 0.52532 0.67323 0.0
C506 C 0.84001 0.50312 0.69928 0.0
C507 C 0.86551 0.49963 0.74853 0.0
C508 C 0.89141 0.51837 0.77073 0.0
C509 C 0.86553 0.52071 0.72181 0.0
C510 C 0.917 0.55812 0.76556 0.0
C511 C 0.91699 0.57897 0.7395 0.0
H512 H 0.86433 0.8816 0.12679 0.0
H513 H 0.75352 0.96583 0.15482 0.0
H514 H 0.71523 0.95844 0.10956 0.0
H515 H 0.71678 0.93332 0.05986 0.0
H516 H 0.8282 0.84782 0.03314 0.0
H517 H 0.86229 0.85055 0.07932 0.0
C518 C 0.83083 0.8967 0.12339 0.0
C519 C 0.81106 0.92272 0.14476 0.0
C520 C 0.8095 0.89305 0.09698 0.0
C521 C 0.76867 0.94396 0.13933 0.0
C522 C 0.74715 0.94042 0.11314 0.0
C523 C 0.7483 0.91502 0.06422 0.0
C524 C 0.76986 0.89063 0.04262 0.0
C525 C 0.76774 0.91596 0.09145 0.0
C526 C 0.81064 0.86696 0.04902 0.0
C527 C 0.83031 0.86841 0.0756 0.0
H528 H 0.41555 0.61691 0.87457 0.0
H529 H 0.32884 0.50564 0.89879 0.0
H530 H 0.33807 0.47025 0.85313 0.0
H531 H 0.36632 0.47416 0.80446 0.0
H532 H 0.4526 0.58677 0.78094 0.0
H533 H 0.44811 0.618 0.82756 0.0
C534 C 0.40012 0.58404 0.87016 0.0
C535 C 0.37297 0.56308 0.89049 0.0
C536 C 0.40473 0.56449 0.84352 0.0
C537 C 0.35136 0.52159 0.88394 0.0
C538 C 0.35608 0.5017 0.85761 0.0
C539 C 0.38437 0.50532 0.80962 0.0
C540 C 0.40957 0.52808 0.78891 0.0
C541 C 0.38194 0.52329 0.83692 0.0
C542 C 0.4328 0.56844 0.7962 0.0
C543 C 0.43034 0.58644 0.823 0.0
H544 H 0.7914 0.19646 0.55782 0.0
H545 H 0.79404 0.05431 0.53477 0.0
H546 H 0.76483 0.03308 0.58026 0.0
H547 H 0.73545 0.05452 0.62579 0.0
H548 H 0.73515 0.19552 0.65093 0.0
H549 H 0.767 0.2176 0.60575 0.0
C550 C 0.78592 0.16083 0.56288 0.0
C551 C 0.79481 0.12699 0.54271 0.0
C552 C 0.76957 0.14868 0.5895 0.0
C553 C 0.78767 0.08101 0.54974 0.0
C554 C 0.77082 0.06884 0.5758 0.0
C555 C 0.74272 0.09015 0.62155 0.0
C556 C 0.73276 0.12337 0.64179 0.0
C557 C 0.76124 0.10233 0.59571 0.0
C558 C 0.74272 0.16924 0.6359 0.0
C559 C 0.76068 0.18182 0.60995 0.0
H560 H 0.25815 0.49198 0.37852 0.0
H561 H 0.11809 0.4703 0.40195 0.0
H562 H 0.09225 0.4992 0.35639 0.0
H563 H 0.11051 0.52673 0.30836 0.0
H564 H 0.25164 0.54949 0.28701 0.0
H565 H 0.27588 0.52406 0.333 0.0
C566 C 0.22182 0.4942 0.37388 0.0
C567 C 0.1901 0.47918 0.3938 0.0
C568 C 0.20746 0.5107 0.34773 0.0
C569 C 0.14324 0.48219 0.38728 0.0
C570 C 0.12856 0.49835 0.36106 0.0
C571 C 0.14652 0.5265 0.3139 0.0
C572 C 0.17923 0.54002 0.29399 0.0
C573 C 0.16042 0.51213 0.34088 0.0
C574 C 0.22569 0.5395 0.3017 0.0
C575 C 0.23964 0.52483 0.32808 0.0
H576 H 0.84668 0.63743 0.49914 0.0
H577 H 0.71755 0.67639 0.53484 0.0
H578 H 0.68065 0.67204 0.48967 0.0
H579 H 0.68269 0.65337 0.44023 0.0
H580 H 0.80973 0.61531 0.40251 0.0
H581 H 0.84962 0.62441 0.44736 0.0
C582 C 0.81058 0.64521 0.49697 0.0
C583 C 0.78512 0.65698 0.52085 0.0
C584 C 0.78906 0.64343 0.47025 0.0
C585 C 0.73833 0.66721 0.51724 0.0
C586 C 0.71696 0.66481 0.49122 0.0
C587 C 0.71937 0.64819 0.44164 0.0
C588 C 0.74318 0.63461 0.41774 0.0
C589 C 0.74173 0.65269 0.46762 0.0
C590 C 0.79063 0.62721 0.42021 0.0
C591 C 0.81331 0.63168 0.4461 0.0
H592 H 0.17248 0.07393 0.75081 0.0
H593 H 0.12775 0.94135 0.77862 0.0
H594 H 0.13081 0.91252 0.73147 0.0
H595 H 0.15119 0.92255 0.68278 0.0
H596 H 0.19927 0.05262 0.65388 0.0
H597 H 0.18821 0.08524 0.70023 0.0
C598 C 0.16336 0.03881 0.74648 0.0
C599 C 0.15027 1.00982 0.76849 0.0
C600 C 0.16485 1.02217 0.71885 0.0
C601 C 0.13814 0.96449 0.76231 0.0
C602 C 0.13964 0.9479 0.73522 0.0
C603 C 0.15768 0.95847 0.68637 0.0
C604 C 0.17471 0.98539 0.66462 0.0
C605 C 0.15324 0.97621 0.71336 0.0
C606 C 0.18443 0.03155 0.66992 0.0
C607 C 0.17904 0.04992 0.69666 0.0
H608 H 0.7141 0.41656 1.00034 0.0
H609 H 0.84685 0.39485 0.03803 0.0
H610 H 0.88289 0.39981 0.99296 0.0
H611 H 0.87811 0.41252 0.94303 0.0
H612 H 0.74767 0.43398 0.90332 0.0
H613 H 0.70931 0.4253 0.94832 0.0
C614 C 0.75086 0.41293 0.99861 0.0
C615 C 0.77764 0.40565 1.02286 0.0
C616 C 0.77182 0.41501 0.97207 0.0
C617 C 0.82523 0.40052 1.02 0.0
C618 C 0.84603 0.40324 0.9941 0.0
C619 C 0.84125 0.41483 0.94411 0.0
C620 C 0.81594 0.42364 0.91973 0.0
C621 C 0.81982 0.41061 0.97004 0.0
C622 C 0.76803 0.42626 0.9216 0.0
C623 C 0.74618 0.42194 0.94748 0.0
H624 H 0.29983 0.06865 0.18322 0.0
H625 H 0.4393 0.09293 0.15949 0.0
H626 H 0.46609 0.06234 0.20443 0.0
H627 H 0.44891 0.0322 0.2521 0.0
H628 H 0.30851 1.00517 0.27332 0.0
H629 H 0.28327 0.03311 0.22807 0.0
C630 C 0.33622 0.06681 0.18768 0.0
C631 C 0.36748 0.08319 0.16785 0.0
C632 C 0.35121 0.04885 0.21341 0.0
C633 C 0.41445 0.08025 0.17411 0.0
C634 C 0.42971 0.06302 0.19998 0.0
C635 C 0.41285 0.03205 0.24668 0.0
C636 C 0.38065 1.01663 0.26642 0.0
C637 C 0.39834 0.04773 0.22004 0.0
C638 C 0.33412 1.01662 0.25881 0.0
C639 C 0.31957 0.03277 0.23283 0.0
H640 H 0.34265 0.37823 0.63608 0.0
H641 H 0.29933 0.51859 0.64092 0.0
H642 H 0.26406 0.51356 0.59506 0.0
H643 H 0.25237 0.47195 0.55112 0.0
H644 H 0.29522 0.33146 0.5457 0.0
H645 H 0.32337 0.33377 0.59355 0.0
C646 C 0.32384 0.40702 0.62752 0.0
C647 C 0.32274 0.44844 0.64233 0.0
C648 C 0.30438 0.40425 0.60048 0.0
C649 C 0.29982 0.48601 0.63032 0.0
C650 C 0.28009 0.48336 0.60384 0.0
C651 C 0.26739 0.4417 0.56051 0.0
C652 C 0.2719 0.40172 0.5446 0.0
C653 C 0.2833 0.44312 0.58832 0.0
C654 C 0.29133 0.36281 0.5573 0.0
C655 C 0.30752 0.36407 0.58479 0.0
H656 H 0.93721 1.01926 0.30484 0.0
H657 H 0.79852 0.04663 0.27821 0.0
H658 H 0.78054 0.07648 0.32393 0.0
H659 H 0.80344 0.09601 0.3711 0.0
H660 H 0.94107 0.07002 0.39971 0.0
H661 H 0.95999 0.03781 0.35402 0.0
C662 C 0.90304 0.03163 0.30911 0.0
C663 C 0.86923 0.0306 0.28782 0.0
C664 C 0.89266 0.04881 0.33592 0.0
C665 C 0.82519 0.04681 0.29393 0.0
C666 C 0.81484 0.06395 0.32018 0.0
C667 C 0.83772 0.08328 0.36754 0.0
C668 C 0.87082 0.08575 0.38903 0.0
C669 C 0.84821 0.06525 0.34128 0.0
C670 C 0.9148 0.0685 0.38378 0.0
C671 C 0.92562 0.05029 0.35751 0.0
H672 H 0.2632 0.55094 0.13604 0.0
H673 H 0.17442 0.66876 0.13356 0.0
H674 H 0.19624 0.68429 0.08598 0.0
H675 H 0.23794 0.6636 0.04412 0.0
H676 H 0.32747 0.54665 0.04493 0.0
H677 H 0.30819 0.53167 0.09358 0.0
C678 C 0.24937 0.58041 0.12519 0.0
C679 C 0.21728 0.60877 0.13857 0.0
C680 C 0.26183 0.5891 0.09726 0.0
C681 C 0.19912 0.64635 0.12393 0.0
C682 C 0.21149 0.65527 0.09658 0.0
C683 C 0.25337 0.63484 0.05491 0.0
C684 C 0.28398 0.60621 0.04076 0.0
C685 C 0.24231 0.62665 0.08288 0.0
C686 C 0.30372 0.56923 0.05524 0.0
C687 C 0.2927 0.56069 0.08313 0.0
H688 H 0.62429 1.00811 0.80032 0.0
H689 H 0.75406 0.07705 0.79714 0.0
H690 H 0.77083 0.05346 0.84513 0.0
H691 H 0.74966 1.00909 0.88778 0.0
H692 H 0.6194 0.94036 0.889 0.0
H693 H 0.60174 0.96826 0.8426 0.0
C694 C 0.65618 1.01829 0.81013 0.0
C695 C 0.68789 0.04424 0.795 0.0
C696 C 0.66547 1.00467 0.83769 0.0
C697 C 0.72898 0.05709 0.80822 0.0
C698 C 0.73858 0.04355 0.83572 0.0
C699 C 0.71702 1.00127 0.87809 0.0
C700 C 0.68564 0.97297 0.89213 0.0
C701 C 0.70719 1.01695 0.85073 0.0
C702 C 0.64402 0.96223 0.87887 0.0
C703 C 0.63393 0.978 0.85218 0.0
H704 H 0.43944 0.2743 0.15368 0.0
H705 H 0.45537 0.21122 0.07376 0.0
H706 H 0.53038 0.24773 0.0688 0.0
H707 H 0.59349 0.29639 0.08827 0.0
H708 H 0.57372 0.35928 0.16814 0.0
H709 H 0.4989 0.32455 0.17169 0.0
C710 C 0.45917 0.26833 0.13511 0.0
C711 C 0.44155 0.23953 0.11427 0.0
C712 C 0.50206 0.28974 0.1323 0.0
C713 C 0.46783 0.23301 0.09026 0.0
C714 C 0.51089 0.25397 0.0874 0.0
C715 C 0.57256 0.30292 0.10625 0.0
C716 C 0.58997 0.33043 0.12796 0.0
C717 C 0.52865 0.28236 0.10838 0.0
C718 C 0.56201 0.3381 0.15114 0.0
C719 C 0.51888 0.31816 0.15328 0.0
H720 H 0.53452 0.69661 0.39934 0.0
H721 H 0.619 0.72202 0.3284 0.0
H722 H 0.57892 0.7947 0.31989 0.0
H723 H 0.52229 0.85405 0.33498 0.0
H724 H 0.43605 0.8237 0.4047 0.0
H725 H 0.47332 0.75015 0.41082 0.0
C726 C 0.54419 0.71807 0.382 0.0
C727 C 0.58032 0.70434 0.36488 0.0
C728 C 0.52018 0.75902 0.37682 0.0
C729 C 0.59159 0.73201 0.34207 0.0
C730 C 0.56857 0.77357 0.33718 0.0
C731 C 0.51087 0.83074 0.35095 0.0
C732 C 0.4764 0.84475 0.36942 0.0
C733 C 0.53295 0.78782 0.35461 0.0
C734 C 0.46254 0.81412 0.39025 0.0
C735 C 0.48407 0.77199 0.39394 0.0
H736 H 0.96774 0.75769 0.58672 0.0
H737 H 0.97933 0.71255 0.67184 0.0
H738 H 0.05258 0.74973 0.67648 0.0
H739 H 0.1127 0.79757 0.65805 0.0
H740 H 0.10646 0.84282 0.5731 0.0
H741 H 0.03286 0.80342 0.56686 0.0
C742 C 0.98657 0.75561 0.60613 0.0
C743 C 0.96701 0.73259 0.62897 0.0
C744 C 0.02987 0.77754 0.60891 0.0
C745 C 0.99244 0.73046 0.65393 0.0
C746 C 0.03476 0.75176 0.65671 0.0
C747 C 0.09541 0.79901 0.63808 0.0
C748 C 0.11519 0.82373 0.61621 0.0
C749 C 0.05351 0.77599 0.6346 0.0
C750 C 0.09221 0.82426 0.59042 0.0
C751 C 0.04995 0.80168 0.58685 0.0
H752 H 0.98847 0.33033 0.83898 0.0
H753 H 0.94749 0.32323 0.92463 0.0
H754 H 0.98387 0.24916 0.92956 0.0
H755 H 0.02916 0.18634 0.9106 0.0
H756 H 0.06984 0.19039 0.82501 0.0
H757 H 0.03224 0.26471 0.81923 0.0
C758 C 0.98707 0.31237 0.85862 0.0
C759 C 0.96511 0.33311 0.88138 0.0
C760 C 1.00853 0.26895 0.86153 0.0
C761 C 0.96413 0.3089 0.90667 0.0
C762 C 0.9851 0.26621 0.90962 0.0
C763 C 0.03002 0.2034 0.89064 0.0
C764 C 0.05283 0.18249 0.86837 0.0
C765 C 1.00785 0.24604 0.88735 0.0
C766 C 0.05281 0.20536 0.84263 0.0
C767 C 0.03117 0.24804 0.83928 0.0
H768 H 0.59537 0.77448 0.97159 0.0
H769 H 0.55731 0.87363 0.90926 0.0
H770 H 0.48238 0.83864 0.90419 0.0
H771 H 0.42949 0.77602 0.91418 0.0
H772 H 0.46398 0.67805 0.97773 0.0
H773 H 0.53779 0.71584 0.98547 0.0
C774 C 0.57013 0.78914 0.95756 0.0
C775 C 0.58214 0.82669 0.94082 0.0
C776 C 0.5266 0.76831 0.95443 0.0
C777 C 0.54912 0.84475 0.92238 0.0
C778 C 0.50623 0.82454 0.91928 0.0
C779 C 0.45316 0.76295 0.92973 0.0
C780 C 0.44152 0.72381 0.945 0.0
C781 C 0.49503 0.78552 0.93453 0.0
C782 C 0.4722 0.70797 0.96553 0.0
C783 C 0.51446 0.72964 0.97 0.0
H784 H 0.50974 0.35146 0.71907 0.0
H785 H 0.4603 0.33838 0.63491 0.0
H786 H 0.4994 0.26545 0.63057 0.0
H787 H 0.54914 0.2054 0.64984 0.0
H788 H 0.59808 0.21636 0.73411 0.0
H789 H 0.55819 0.28939 0.73902 0.0
C790 C 0.50712 0.33246 0.69989 0.0
C791 C 0.48189 0.35095 0.67738 0.0
C792 C 0.53013 0.28999 0.69735 0.0
C793 C 0.47935 0.32555 0.65265 0.0
C794 C 0.5019 0.28363 0.65005 0.0
C795 C 0.55138 0.22378 0.66928 0.0
C796 C 0.57711 0.20521 0.69147 0.0
C797 C 0.5278 0.26566 0.67211 0.0
C798 C 0.57881 0.2296 0.71657 0.0
C799 C 0.55585 0.2715 0.71944 0.0
H800 H 0.10901 0.30274 0.46985 0.0
H801 H 0.09362 0.35408 0.38634 0.0
H802 H 1.02006 0.31614 0.38192 0.0
H803 H 0.96016 0.26724 0.40089 0.0
H804 H 0.97309 0.21579 0.48441 0.0
H805 H 0.04694 0.25446 0.48951 0.0
C806 C 0.08937 0.30599 0.45079 0.0
C807 C 0.10739 0.33144 0.42846 0.0
C808 C 0.04653 0.28359 0.44821 0.0
C809 C 0.0812 0.33479 0.4039 0.0
C810 C 0.0389 0.31294 0.40127 0.0
C811 C 0.97907 0.26415 0.42024 0.0
C812 C 0.9608 0.2381 0.44214 0.0
C813 C 1.02136 0.28691 0.42314 0.0
C814 C 0.98604 0.23529 0.46709 0.0
C815 C 0.0284 0.25757 0.47005 0.0
H816 H 0.02748 0.69762 0.22671 0.0
H817 H 0.12494 0.73439 0.16398 0.0
H818 H 0.08904 0.8089 0.15858 0.0
H819 H 1.02566 0.86102 0.16791 0.0
H820 H 0.92911 0.82878 0.2318 0.0
H821 H 0.96837 0.75559 0.24046 0.0
C822 C 0.04166 0.72258 0.21259 0.0
C823 C 0.07907 0.71033 0.19582 0.0
C824 C 1.02021 0.76587 0.20925 0.0
C825 C 0.09638 0.74287 0.17719 0.0
C826 C 0.07559 0.78546 0.17388 0.0
C827 C 1.01327 0.83803 0.18381 0.0
C828 C 0.97399 0.8499 0.19879 0.0
C829 C 0.03666 0.79678 0.18909 0.0
C830 C 0.95904 0.82025 0.21979 0.0
C831 C 0.98157 0.77839 0.22475 0.0
H832 H 0.29418 0.31736 0.14701 0.0
H833 H 0.19473 0.28757 0.08345 0.0
H834 H 0.15821 0.36216 0.09086 0.0
H835 H 0.14783 0.43082 0.12067 0.0
H836 H 0.24103 0.45205 0.18923 0.0
H837 H 0.28574 0.38577 0.17535 0.0
C838 C 0.26558 0.32804 0.13404 0.0
C839 C 0.248 0.2975 0.11414 0.0
C840 C 0.24242 0.36888 0.14024 0.0
C841 C 0.20987 0.31102 0.09821 0.0
C842 C 0.18838 0.35328 0.10294 0.0
C843 C 0.17811 0.42103 0.13241 0.0
C844 C 0.19071 0.44623 0.15619 0.0
C845 C 0.20315 0.38166 0.12475 0.0
C846 C 0.23002 0.43298 0.17117 0.0
C847 C 0.25592 0.39524 0.16309 0.0
H848 H 0.3938 0.41146 0.38003 0.0
H849 H 0.37329 0.49214 0.45365 0.0
H850 H 0.44065 0.53783 0.44237 0.0
H851 H 0.50732 0.55197 0.41318 0.0
H852 H 0.53407 0.46527 0.34329 0.0
H853 H 0.46056 0.42653 0.35037 0.0
C854 C 0.40399 0.43902 0.39369 0.0
C855 C 0.37845 0.44807 0.41787 0.0
C856 C 0.44304 0.4649 0.38717 0.0
C857 C 0.39244 0.48391 0.43522 0.0
C858 C 0.43068 0.5104 0.42856 0.0
C859 C 0.49634 0.5256 0.39892 0.0
C860 C 0.52569 0.51226 0.37728 0.0
C861 C 0.45623 0.5011 0.40466 0.0
C862 C 0.51161 0.47713 0.35949 0.0
C863 C 0.47008 0.45433 0.364 0.0
H864 H 0.37114 0.79113 0.65954 0.0
H865 H 0.26867 0.75567 0.59841 0.0
H866 H 0.29056 0.67464 0.60314 0.0
H867 H 0.33534 0.61355 0.62788 0.0
H868 H 0.42613 0.65174 0.69481 0.0
H869 H 0.41056 0.73235 0.68559 0.0
C870 C 0.35337 0.76595 0.64702 0.0
C871 C 0.31807 0.77975 0.62861 0.0
C872 C 0.36319 0.71978 0.65165 0.0
C873 C 0.29615 0.74628 0.61252 0.0
C874 C 0.30824 0.6999 0.61558 0.0
C875 C 0.35128 0.6397 0.64054 0.0
C876 C 0.38175 0.62689 0.66213 0.0
C877 C 0.3409 0.68617 0.63566 0.0
C878 C 0.40216 0.6608 0.67843 0.0
C879 C 0.39364 0.70683 0.67294 0.0
H880 H 0.05782 0.47943 0.90574 0.0
H881 H 0.02949 0.56748 0.83616 0.0
H882 H 0.10564 0.60187 0.84099 0.0
H883 H 0.1741 0.61566 0.87014 0.0
H884 H 0.19545 0.53526 0.94423 0.0
H885 H 0.12763 0.49002 0.9332 0.0
C886 C 0.06922 0.50481 0.89093 0.0
C887 C 0.03865 0.5203 0.87024 0.0
C888 C 0.11098 0.52716 0.89554 0.0
C889 C 0.05296 0.5542 0.85171 0.0
C890 C 0.09606 0.57453 0.85493 0.0
C891 C 0.16415 0.58794 0.88373 0.0
C892 C 0.18961 0.57912 0.90815 0.0
C893 C 0.12434 0.56282 0.87762 0.0
C894 C 0.17615 0.54321 0.92557 0.0
C895 C 0.13759 0.51707 0.91913 0.0
H896 H 0.78963 0.75842 0.88951 0.0
H897 H 0.78364 0.73503 0.97752 0.0
H898 H 0.82582 0.66289 0.97195 0.0
H899 H 0.85704 0.60336 0.9413 0.0
H900 H 0.8564 0.62472 0.8527 0.0
H901 H 0.82335 0.70065 0.85915 0.0
C902 C 0.79851 0.73792 0.90754 0.0
C903 C 0.78416 0.75207 0.93397 0.0
C904 C 0.82049 0.69574 0.90391 0.0
C905 C 0.7951 0.72513 0.95712 0.0
C906 C 0.81863 0.68368 0.95381 0.0
C907 C 0.84995 0.62464 0.92335 0.0
C908 C 0.859 0.60803 0.89647 0.0
C909 C 0.83028 0.66806 0.9272 0.0
C910 C 0.84946 0.63626 0.87355 0.0
C911 C 0.83073 0.67981 0.87724 0.0
H912 H 0.70224 0.61556 0.69368 0.0
H913 H 0.71234 0.55833 0.61168 0.0
H914 H 0.64085 0.51694 0.61848 0.0
H915 H 0.57161 0.50436 0.64522 0.0
H916 H 0.55469 0.57001 0.72413 0.0
H917 H 0.63338 0.59933 0.72179 0.0
C918 C 0.68902 0.59351 0.67748 0.0
C919 C 0.7124 0.59018 0.6521 0.0
C920 C 0.64691 0.57102 0.6812 0.0
C921 C 0.69475 0.56184 0.63122 0.0
C922 C 0.654 0.538 0.63516 0.0
C923 C 0.58576 0.52383 0.66234 0.0
C924 C 0.55784 0.5344 0.68506 0.0
C925 C 0.62934 0.54319 0.65977 0.0
C926 C 0.57596 0.56059 0.70678 0.0
C927 C 0.62062 0.57797 0.70515 0.0
H928 H 0.8191 0.32138 0.41545 0.0
H929 H 0.72316 0.29344 0.48035 0.0
H930 H 0.68986 0.36994 0.47454 0.0
H931 H 0.67955 0.43883 0.44526 0.0
H932 H 0.767 0.45868 0.37473 0.0
H933 H 0.8111 0.3908 0.38762 0.0
C934 C 0.79212 0.33289 0.42907 0.0
C935 C 0.77421 0.30232 0.44872 0.0
C936 C 0.77029 0.37472 0.4236 0.0
C937 C 0.73833 0.31686 0.46567 0.0
C938 C 0.71863 0.36018 0.46184 0.0
C939 C 0.70857 0.42848 0.4329 0.0
C940 C 0.71982 0.45358 0.40894 0.0
C941 C 0.73285 0.38842 0.43993 0.0
C942 C 0.75727 0.43964 0.39302 0.0
C943 C 0.78274 0.40104 0.40053 0.0
H944 H 0.85735 0.43704 0.19584 0.0
H945 H 0.88585 0.43161 0.10825 0.0
H946 H 0.96284 0.46107 0.11708 0.0
H947 H 1.01947 0.49416 0.14912 0.0
H948 H 0.98809 0.5074 0.23572 0.0
H949 H 0.91539 0.46719 0.22814 0.0
C950 C 0.88041 0.44194 0.17862 0.0
C951 C 0.86553 0.43233 0.15131 0.0
C952 C 0.9244 0.45951 0.18383 0.0
C953 C 0.89608 0.43904 0.12939 0.0
C954 C 0.94024 0.45564 0.13446 0.0
C955 C 0.99726 0.48682 0.16647 0.0
C956 C 1.00939 0.50267 0.1931 0.0
C957 C 0.9545 0.4665 0.16153 0.0
C958 C 0.97993 0.49444 0.21527 0.0
C959 C 0.93811 0.47217 0.21078 0.0
H960 H 0.78486 0.79557 0.6755 0.0
H961 H 0.72956 0.78485 0.59281 0.0
H962 H 0.69644 0.86202 0.59704 0.0
H963 H 0.67887 0.92983 0.62605 0.0
H964 H 0.73169 0.93584 0.70989 0.0
H965 H 0.76979 0.86264 0.70352 0.0
C966 C 0.76623 0.81033 0.65817 0.0
C967 C 0.75995 0.78472 0.63377 0.0
C968 C 0.74621 0.85349 0.66123 0.0
C969 C 0.73534 0.80415 0.61162 0.0
C970 C 0.71607 0.848 0.61422 0.0
C971 C 0.69883 0.91522 0.64293 0.0
C972 C 0.70211 0.93847 0.66854 0.0
C973 C 0.72048 0.87258 0.63921 0.0
C974 C 0.72819 0.91885 0.69008 0.0
C975 C 0.75018 0.87699 0.68643 0.0
H976 H 0.863 0.89241 0.87038 0.0
H977 H 0.83834 0.99158 0.93446 0.0
H978 H 0.9054 0.03487 0.92004 0.0
H979 H 0.97519 0.04018 0.89275 0.0
H980 H 1.00858 0.93372 0.83512 0.0
H981 H 0.93304 0.89914 0.84193 0.0
C982 C 0.87226 0.92367 0.88101 0.0
C983 C 0.84604 0.93855 0.90367 0.0
C984 C 0.91196 0.9476 0.87321 0.0
C985 C 0.8584 0.97902 0.91731 0.0
C986 C 0.89649 1.00402 0.90889 0.0
C987 C 0.96523 1.01027 0.881 0.0
C988 C 0.99699 0.99 0.86305 0.0
C989 C 0.92397 0.9882 0.88724 0.0
C990 C 0.98422 0.95063 0.84843 0.0
C991 C 0.94144 0.93033 0.85285 0.0
H992 H 0.8014 0.09576 0.13106 0.0
H993 H 0.92754 0.13949 0.16945 0.0
H994 H 0.91109 0.21852 0.15652 0.0
H995 H 0.85776 0.27558 0.13939 0.0
H996 H 0.72509 0.2359 0.10849 0.0
H997 H 0.74758 0.15497 0.1119 0.0
C998 C 0.82512 0.12281 0.13642 0.0
C999 C 0.86541 0.11228 0.15143 0.0
C1000 C 0.81443 0.16867 0.12984 0.0
C1001 C 0.89611 0.14717 0.15829 0.0
C1002 C 0.88686 0.1922 0.15072 0.0
C1003 C 0.83414 0.2492 0.13264 0.0
C1004 C 0.7899 0.26162 0.1237 0.0
C1005 C 0.84579 0.20339 0.13706 0.0
C1006 C 0.75955 0.22726 0.11509 0.0
C1007 C 0.77216 0.181 0.11762 0.0
H1008 H 0.53741 0.05742 0.41524 0.0
H1009 H 0.57087 0.0505 0.32863 0.0
H1010 H 0.64169 0.09331 0.33764 0.0
H1011 H 0.69731 0.12484 0.37091 0.0
H1012 H 0.66721 0.12421 0.45836 0.0
H1013 H 0.59201 0.09101 0.44841 0.0
C1014 C 0.55975 0.06639 0.39824 0.0
C1015 C 0.54874 0.05167 0.37119 0.0
C1016 C 0.6014 0.08841 0.40393 0.0
C1017 C 0.57822 0.0624 0.34943 0.0
C1018 C 0.61893 0.08623 0.35471 0.0
C1019 C 0.67425 0.11789 0.38787 0.0
C1020 C 0.68808 0.12702 0.41546 0.0
C1021 C 0.63146 0.09815 0.382 0.0
C1022 C 0.65769 0.11736 0.43703 0.0
C1023 C 0.6146 0.09858 0.43131 0.0
H1024 H 0.23797 0.21363 0.41539 0.0
H1025 H 0.34658 0.28417 0.45837 0.0
H1026 H 0.39738 0.21814 0.45146 0.0
H1027 H 0.41308 0.14326 0.42812 0.0
H1028 H 0.30572 0.08149 0.37926 0.0
H1029 H 0.25271 0.14147 0.39287 0.0
C1030 C 0.2726 0.21459 0.42364 0.0
C1031 C 0.2884 0.2541 0.43726 0.0
C1032 C 0.30228 0.17829 0.41778 0.0
C1033 C 0.33334 0.25424 0.44793 0.0
C1034 C 0.36258 0.21668 0.44361 0.0
C1035 C 0.37807 0.14322 0.42052 0.0
C1036 C 0.36337 0.10836 0.4024 0.0
C1037 C 0.3479 0.17911 0.42769 0.0
C1038 C 0.31797 0.10841 0.39276 0.0
C1039 C 0.28754 0.14249 0.40073 0.0
H1040 H 1.01133 0.11261 0.15744 0.0
H1041 H 0.05574 0.99796 0.20698 0.0
H1042 H 0.13584 1.0224 0.20173 0.0
H1043 H 0.19345 0.07104 0.17723 0.0
H1044 H 0.14558 0.17441 0.12008 0.0
H1045 H 0.06656 0.15865 0.13296 0.0
C1046 C 0.03847 0.0934 0.16767 0.0
C1047 C 0.02752 0.05356 0.18264 0.0
C1048 C 0.08393 0.10467 0.16204 0.0
C1049 C 0.06303 0.02909 0.19572 0.0
C1050 C 0.10888 0.04254 0.19213 0.0
C1051 C 0.1655 0.0897 0.16752 0.0
C1052 C 0.17505 0.12343 0.14741 0.0
C1053 C 0.11979 0.07912 0.17429 0.0
C1054 C 0.13888 0.1477 0.13508 0.0
C1055 C 0.09382 0.13909 0.14272 0.0
H1056 H 0.14778 0.90601 0.93666 0.0
H1057 H 0.23845 0.9308 0.86823 0.0
H1058 H 0.28375 0.8636 0.88136 0.0
H1059 H 0.29449 0.79497 0.91022 0.0
H1060 H 0.19629 0.76278 0.97314 0.0
H1061 H 0.15893 0.83704 0.96572 0.0
C1062 C 0.17759 0.89687 0.92466 0.0
C1063 C 0.18952 0.92355 0.90134 0.0
C1064 C 0.20286 0.85741 0.93195 0.0
C1065 C 0.22811 0.91084 0.88601 0.0
C1066 C 0.25429 0.87258 0.8937 0.0
C1067 C 0.26556 0.80471 0.92276 0.0
C1068 C 0.24873 0.7736 0.9426 0.0
C1069 C 0.24174 0.84538 0.91645 0.0
C1070 C 0.2108 0.7865 0.95839 0.0
C1071 C 0.18883 0.82857 0.95365 0.0
H1072 H 0.37837 0.92881 0.69423 0.0
H1073 H 0.35978 1.01879 0.62412 0.0
H1074 H 0.4291 0.06055 0.63732 0.0
H1075 H 0.49869 0.06628 0.66582 0.0
H1076 H 0.5249 0.96714 0.72998 0.0
H1077 H 0.44767 0.93593 0.72354 0.0
C1078 C 0.38927 0.9579 0.68201 0.0
C1079 C 0.36403 0.97068 0.65815 0.0
C1080 C 0.43004 0.98064 0.68918 0.0
C1081 C 0.37881 1.00804 0.64237 0.0
C1082 C 0.41824 0.0321 0.65005 0.0
C1083 C 0.48688 0.03875 0.67895 0.0
C1084 C 0.5171 1.0195 0.69869 0.0
C1085 C 0.44452 1.01818 0.67311 0.0
C1086 C 0.50183 0.98329 0.71523 0.0
C1087 C 0.45808 0.96485 0.71106 0.0
loop_
_geom_bond_atom_site_label_1
_geom_bond_atom_site_label_2
_geom_bond_distance
_geom_bond_site_symmetry_2
_ccdc_geom_bond_type
Dy0 O4 2.398 . S
Dy0 O5 2.491 . S
Dy0 O6 2.403 . S
Dy0 O7 2.664 . S
Dy0 O11 2.326 . S
Dy0 O15 2.310 . S
Dy0 O16 2.351 . S
C1 O12 1.185 . S
C1 O13 1.355 . S
C2 O4 1.185 . S
C2 O5 1.355 . S
Dy3 O7 2.310 . S
Dy3 O10 2.351 . S
Dy3 O12 2.398 . S
Dy3 O13 2.491 . S
Dy3 O14 2.403 . S
Dy3 O15 2.664 . S
Dy3 O17 2.326 . S
O4 Dy0 2.398 . S
O4 C2 1.185 . S
O5 Dy0 2.491 . S
O5 C2 1.355 . S
O6 Dy0 2.403 . S
O6 C8 1.254 . S
O7 Dy0 2.664 . S
O7 Dy3 2.310 . S
O7 C8 1.268 . S
C8 O6 1.254 . S
C8 O7 1.268 . S
C9 O14 1.254 . S
C9 O15 1.268 . S
O10 Dy3 2.351 . S
O10 C18 1.249 . S
O11 Dy0 2.326 . S
O11 C18 1.267 . S
O12 C1 1.185 . S
O12 Dy3 2.398 . S
O13 C1 1.355 . S
O13 Dy3 2.491 . S
O14 Dy3 2.403 . S
O14 C9 1.254 . S
O15 Dy0 2.310 . S
O15 Dy3 2.664 . S
O15 C9 1.268 . S
O16 Dy0 2.351 . S
O16 C19 1.249 . S
O17 Dy3 2.326 . S
O17 C19 1.267 . S
C18 O10 1.249 . S
C18 O11 1.267 . S
C19 O16 1.249 . S
C19 O17 1.267 . S
Dy20 O24 2.398 . S
Dy20 O25 2.491 . S
Dy20 O26 2.403 . S
Dy20 O27 2.664 . S
Dy20 O31 2.326 . S
Dy20 O35 2.310 . S
Dy20 O36 2.351 . S
C21 O32 1.185 . S
C21 O33 1.355 . S
C22 O24 1.185 . S
C22 O25 1.355 . S
Dy23 O27 2.310 . S
Dy23 O30 2.351 . S
Dy23 O32 2.398 . S
Dy23 O33 2.491 . S
Dy23 O34 2.403 . S
Dy23 O35 2.664 . S
Dy23 O37 2.326 . S
O24 Dy20 2.398 . S
O24 C22 1.185 . S
O25 Dy20 2.491 . S
O25 C22 1.355 . S
O26 Dy20 2.403 . S
O26 C28 1.254 . S
O27 Dy20 2.664 . S
O27 Dy23 2.310 . S
O27 C28 1.268 . S
C28 O26 1.254 . S
C28 O27 1.268 . S
C29 O34 1.254 . S
C29 O35 1.268 . S
O30 Dy23 2.351 . S
O30 C38 1.249 . S
O31 Dy20 2.326 . S
O31 C38 1.267 . S
O32 C21 1.185 . S
O32 Dy23 2.398 . S
O33 C21 1.355 . S
O33 Dy23 2.491 . S
O34 Dy23 2.403 . S
O34 C29 1.254 . S
O35 Dy20 2.310 . S
O35 Dy23 2.664 . S
O35 C29 1.268 . S
O36 Dy20 2.351 . S
O36 C39 1.249 . S
O37 Dy23 2.326 . S
O37 C39 1.267 . S
C38 O30 1.249 . S
C38 O31 1.267 . S
C39 O36 1.249 . S
C39 O37 1.267 . S
Dy40 O44 2.398 . S
Dy40 O45 2.491 . S
Dy40 O46 2.403 . S
Dy40 O47 2.664 . S
Dy40 O51 2.326 . S
Dy40 O55 2.310 . S
Dy40 O56 2.351 . S
C41 O52 1.185 . S
C41 O53 1.355 . S
C42 O44 1.185 . S
C42 O45 1.355 . S
Dy43 O47 2.310 . S
Dy43 O50 2.351 . S
Dy43 O52 2.398 . S
Dy43 O53 2.491 . S
Dy43 O54 2.403 . S
Dy43 O55 2.664 . S
Dy43 O57 2.326 . S
O44 Dy40 2.398 . S
O44 C42 1.185 . S
O45 Dy40 2.491 . S
O45 C42 1.355 . S
O46 Dy40 2.403 . S
O46 C48 1.254 . S
O47 Dy40 2.664 . S
O47 Dy43 2.310 . S
O47 C48 1.268 . S
C48 O46 1.254 . S
C48 O47 1.268 . S
C49 O54 1.254 . S
C49 O55 1.268 . S
O50 Dy43 2.351 . S
O50 C58 1.249 . S
O51 Dy40 2.326 . S
O51 C58 1.267 . S
O52 C41 1.185 . S
O52 Dy43 2.398 . S
O53 C41 1.355 . S
O53 Dy43 2.491 . S
O54 Dy43 2.403 . S
O54 C49 1.254 . S
O55 Dy40 2.310 . S
O55 Dy43 2.664 . S
O55 C49 1.268 . S
O56 Dy40 2.351 . S
O56 C59 1.249 . S
O57 Dy43 2.326 . S
O57 C59 1.267 . S
C58 O50 1.249 . S
C58 O51 1.267 . S
C59 O56 1.249 . S
C59 O57 1.267 . S
Dy60 O64 2.398 . S
Dy60 O65 2.491 . S
Dy60 O66 2.403 . S
Dy60 O67 2.664 . S
Dy60 O71 2.326 . S
Dy60 O75 2.310 . S
Dy60 O76 2.351 . S
C61 O72 1.185 . S
C61 O73 1.355 . S
C62 O64 1.185 . S
C62 O65 1.355 . S
Dy63 O67 2.310 . S
Dy63 O70 2.351 . S
Dy63 O72 2.398 . S
Dy63 O73 2.491 . S
Dy63 O74 2.403 . S
Dy63 O75 2.664 . S
Dy63 O77 2.326 . S
O64 Dy60 2.398 . S
O64 C62 1.185 . S
O65 Dy60 2.491 . S
O65 C62 1.355 . S
O66 Dy60 2.403 . S
O66 C68 1.254 . S
O67 Dy60 2.664 . S
O67 Dy63 2.310 . S
O67 C68 1.268 . S
C68 O66 1.254 . S
C68 O67 1.268 . S
C69 O74 1.254 . S
C69 O75 1.268 . S
O70 Dy63 2.351 . S
O70 C78 1.249 . S
O71 Dy60 2.326 . S
O71 C78 1.267 . S
O72 C61 1.185 . S
O72 Dy63 2.398 . S
O73 C61 1.355 . S
O73 Dy63 2.491 . S
O74 Dy63 2.403 . S
O74 C69 1.254 . S
O75 Dy60 2.310 . S
O75 Dy63 2.664 . S
O75 C69 1.268 . S
O76 Dy60 2.351 . S
O76 C79 1.249 . S
O77 Dy63 2.326 . S
O77 C79 1.267 . S
C78 O70 1.249 . S
C78 O71 1.267 . S
C79 O76 1.249 . S
C79 O77 1.267 . S
Dy80 O84 2.398 . S
Dy80 O85 2.491 . S
Dy80 O86 2.403 . S
Dy80 O87 2.664 . S
Dy80 O91 2.326 . S
Dy80 O95 2.310 . S
Dy80 O96 2.351 . S
C81 O92 1.185 . S
C81 O93 1.355 . S
C82 O84 1.185 . S
C82 O85 1.355 . S
Dy83 O87 2.310 . S
Dy83 O90 2.351 . S
Dy83 O92 2.398 . S
Dy83 O93 2.491 . S
Dy83 O94 2.403 . S
Dy83 O95 2.664 . S
Dy83 O97 2.326 . S
O84 Dy80 2.398 . S
O84 C82 1.185 . S
O85 Dy80 2.491 . S
O85 C82 1.355 . S
O86 Dy80 2.403 . S
O86 C88 1.254 . S
O87 Dy80 2.664 . S
O87 Dy83 2.310 . S
O87 C88 1.268 . S
C88 O86 1.254 . S
C88 O87 1.268 . S
C89 O94 1.254 . S
C89 O95 1.268 . S
O90 Dy83 2.351 . S
O90 C98 1.249 . S
O91 Dy80 2.326 . S
O91 C98 1.267 . S
O92 C81 1.185 . S
O92 Dy83 2.398 . S
O93 C81 1.355 . S
O93 Dy83 2.491 . S
O94 Dy83 2.403 . S
O94 C89 1.254 . S
O95 Dy80 2.310 . S
O95 Dy83 2.664 . S
O95 C89 1.268 . S
O96 Dy80 2.351 . S
O96 C99 1.249 . S
O97 Dy83 2.326 . S
O97 C99 1.267 . S
C98 O90 1.249 . S
C98 O91 1.267 . S
C99 O96 1.249 . S
C99 O97 1.267 . S
Dy100 O104 2.398 . S
Dy100 O105 2.491 . S
Dy100 O106 2.403 . S
Dy100 O107 2.664 . S
Dy100 O111 2.326 . S
Dy100 O115 2.310 . S
Dy100 O116 2.351 . S
C101 O112 1.185 . S
C101 O113 1.355 . S
C102 O104 1.185 . S
C102 O105 1.355 . S
Dy103 O107 2.310 . S
Dy103 O110 2.351 . S
Dy103 O112 2.398 . S
Dy103 O113 2.491 . S
Dy103 O114 2.403 . S
Dy103 O115 2.664 . S
Dy103 O117 2.326 . S
O104 Dy100 2.398 . S
O104 C102 1.185 . S
O105 Dy100 2.491 . S
O105 C102 1.355 . S
O106 Dy100 2.403 . S
O106 C108 1.254 . S
O107 Dy100 2.664 . S
O107 Dy103 2.310 . S
O107 C108 1.268 . S
C108 O106 1.254 . S
C108 O107 1.268 . S
C109 O114 1.254 . S
C109 O115 1.268 . S
O110 Dy103 2.351 . S
O110 C118 1.249 . S
O111 Dy100 2.326 . S
O111 C118 1.267 . S
O112 C101 1.185 . S
O112 Dy103 2.398 . S
O113 C101 1.355 . S
O113 Dy103 2.491 . S
O114 Dy103 2.403 . S
O114 C109 1.254 . S
O115 Dy100 2.310 . S
O115 Dy103 2.664 . S
O115 C109 1.268 . S
O116 Dy100 2.351 . S
O116 C119 1.249 . S
O117 Dy103 2.326 . S
O117 C119 1.267 . S
C118 O110 1.249 . S
C118 O111 1.267 . S
C119 O116 1.249 . S
C119 O117 1.267 . S
Dy120 O124 2.398 . S
Dy120 O125 2.491 . S
Dy120 O126 2.403 . S
Dy120 O127 2.664 . S
Dy120 O131 2.326 . S
Dy120 O135 2.310 . S
Dy120 O136 2.351 . S
C121 O132 1.185 . S
C121 O133 1.355 . S
C122 O124 1.185 . S
C122 O125 1.355 . S
Dy123 O127 2.310 . S
Dy123 O130 2.351 . S
Dy123 O132 2.398 . S
Dy123 O133 2.491 . S
Dy123 O134 2.403 . S
Dy123 O135 2.664 . S
Dy123 O137 2.326 . S
O124 Dy120 2.398 . S
O124 C122 1.185 . S
O125 Dy120 2.491 . S
O125 C122 1.355 . S
O126 Dy120 2.403 . S
O126 C128 1.254 . S
O127 Dy120 2.664 . S
O127 Dy123 2.310 . S
O127 C128 1.268 . S
C128 O126 1.254 . S
C128 O127 1.268 . S
C129 O134 1.254 . S
C129 O135 1.268 . S
O130 Dy123 2.351 . S
O130 C138 1.249 . S
O131 Dy120 2.326 . S
O131 C138 1.267 . S
O132 C121 1.185 . S
O132 Dy123 2.398 . S
O133 C121 1.355 . S
O133 Dy123 2.491 . S
O134 Dy123 2.403 . S
O134 C129 1.254 . S
O135 Dy120 2.310 . S
O135 Dy123 2.664 . S
O135 C129 1.268 . S
O136 Dy120 2.351 . S
O136 C139 1.249 . S
O137 Dy123 2.326 . S
O137 C139 1.267 . S
C138 O130 1.249 . S
C138 O131 1.267 . S
C139 O136 1.249 . S
C139 O137 1.267 . S
Dy140 O144 2.398 . S
Dy140 O145 2.491 . S
Dy140 O146 2.403 . S
Dy140 O147 2.664 . S
Dy140 O151 2.326 . S
Dy140 O155 2.310 . S
Dy140 O156 2.351 . S
C141 O152 1.185 . S
C141 O153 1.355 . S
C142 O144 1.185 . S
C142 O145 1.355 . S
Dy143 O147 2.310 . S
Dy143 O150 2.351 . S
Dy143 O152 2.398 . S
Dy143 O153 2.491 . S
Dy143 O154 2.403 . S
Dy143 O155 2.664 . S
Dy143 O157 2.326 . S
O144 Dy140 2.398 . S
O144 C142 1.185 . S
O145 Dy140 2.491 . S
O145 C142 1.355 . S
O146 Dy140 2.403 . S
O146 C148 1.254 . S
O147 Dy140 2.664 . S
O147 Dy143 2.310 . S
O147 C148 1.268 . S
C148 O146 1.254 . S
C148 O147 1.268 . S
C149 O154 1.254 . S
C149 O155 1.268 . S
O150 Dy143 2.351 . S
O150 C158 1.249 . S
O151 Dy140 2.326 . S
O151 C158 1.267 . S
O152 C141 1.185 . S
O152 Dy143 2.398 . S
O153 C141 1.355 . S
O153 Dy143 2.491 . S
O154 Dy143 2.403 . S
O154 C149 1.254 . S
O155 Dy140 2.310 . S
O155 Dy143 2.664 . S
O155 C149 1.268 . S
O156 Dy140 2.351 . S
O156 C159 1.249 . S
O157 Dy143 2.326 . S
O157 C159 1.267 . S
C158 O150 1.249 . S
C158 O151 1.267 . S
C159 O156 1.249 . S
C159 O157 1.267 . S
Dy160 O164 2.398 . S
Dy160 O165 2.491 . S
Dy160 O166 2.403 . S
Dy160 O167 2.664 . S
Dy160 O171 2.326 . S
Dy160 O175 2.310 . S
Dy160 O176 2.351 . S
C161 O172 1.185 . S
C161 O173 1.355 . S
C162 O164 1.185 . S
C162 O165 1.355 . S
Dy163 O167 2.310 . S
Dy163 O170 2.351 . S
Dy163 O172 2.398 . S
Dy163 O173 2.491 . S
Dy163 O174 2.403 . S
Dy163 O175 2.664 . S
Dy163 O177 2.326 . S
O164 Dy160 2.398 . S
O164 C162 1.185 . S
O165 Dy160 2.491 . S
O165 C162 1.355 . S
O166 Dy160 2.403 . S
O166 C168 1.254 . S
O167 Dy160 2.664 . S
O167 Dy163 2.310 . S
O167 C168 1.268 . S
C168 O166 1.254 . S
C168 O167 1.268 . S
C169 O174 1.254 . S
C169 O175 1.268 . S
O170 Dy163 2.351 . S
O170 C178 1.249 . S
O171 Dy160 2.326 . S
O171 C178 1.267 . S
O172 C161 1.185 . S
O172 Dy163 2.398 . S
O173 C161 1.355 . S
O173 Dy163 2.491 . S
O174 Dy163 2.403 . S
O174 C169 1.254 . S
O175 Dy160 2.310 . S
O175 Dy163 2.664 . S
O175 C169 1.268 . S
O176 Dy160 2.351 . S
O176 C179 1.249 . S
O177 Dy163 2.326 . S
O177 C179 1.267 . S
C178 O170 1.249 . S
C178 O171 1.267 . S
C179 O176 1.249 . S
C179 O177 1.267 . S
Dy180 O184 2.398 . S
Dy180 O185 2.491 . S
Dy180 O186 2.403 1_545 S
Dy180 O187 2.664 . S
Dy180 O191 2.326 . S
Dy180 O195 2.310 . S
Dy180 O196 2.351 1_545 S
C181 O192 1.185 . S
C181 O193 1.355 1_545 S
C182 O184 1.185 . S
C182 O185 1.355 . S
Dy183 O187 2.310 . S
Dy183 O190 2.351 . S
Dy183 O192 2.398 . S
Dy183 O193 2.491 1_545 S
Dy183 O194 2.403 . S
Dy183 O195 2.664 . S
Dy183 O197 2.326 1_545 S
O184 Dy180 2.398 . S
O184 C182 1.185 . S
O185 Dy180 2.491 . S
O185 C182 1.355 . S
O186 Dy180 2.403 1_565 S
O186 C188 1.254 . S
O187 Dy180 2.664 . S
O187 Dy183 2.310 . S
O187 C188 1.268 1_545 S
C188 O186 1.254 . S
C188 O187 1.268 1_565 S
C189 O194 1.254 . S
C189 O195 1.268 . S
O190 Dy183 2.351 . S
O190 C198 1.249 . S
O191 Dy180 2.326 . S
O191 C198 1.267 . S
O192 C181 1.185 . S
O192 Dy183 2.398 . S
O193 C181 1.355 1_565 S
O193 Dy183 2.491 1_565 S
O194 Dy183 2.403 . S
O194 C189 1.254 . S
O195 Dy180 2.310 . S
O195 Dy183 2.664 . S
O195 C189 1.268 . S
O196 Dy180 2.351 1_565 S
O196 C199 1.249 . S
O197 Dy183 2.326 1_565 S
O197 C199 1.267 . S
C198 O190 1.249 . S
C198 O191 1.267 . S
C199 O196 1.249 . S
C199 O197 1.267 . S
Dy200 O204 2.398 . S
Dy200 O205 2.491 . S
Dy200 O206 2.403 . S
Dy200 O207 2.664 . S
Dy200 O211 2.326 . S
Dy200 O215 2.310 . S
Dy200 O216 2.351 . S
C201 O212 1.185 . S
C201 O213 1.355 . S
C202 O204 1.185 . S
C202 O205 1.355 . S
Dy203 O207 2.310 . S
Dy203 O210 2.351 . S
Dy203 O212 2.398 . S
Dy203 O213 2.491 . S
Dy203 O214 2.403 . S
Dy203 O215 2.664 . S
Dy203 O217 2.326 . S
O204 Dy200 2.398 . S
O204 C202 1.185 . S
O205 Dy200 2.491 . S
O205 C202 1.355 . S
O206 Dy200 2.403 . S
O206 C208 1.254 . S
O207 Dy200 2.664 . S
O207 Dy203 2.310 . S
O207 C208 1.268 . S
C208 O206 1.254 . S
C208 O207 1.268 . S
C209 O214 1.254 . S
C209 O215 1.268 . S
O210 Dy203 2.351 . S
O210 C218 1.249 . S
O211 Dy200 2.326 . S
O211 C218 1.267 . S
O212 C201 1.185 . S
O212 Dy203 2.398 . S
O213 C201 1.355 . S
O213 Dy203 2.491 . S
O214 Dy203 2.403 . S
O214 C209 1.254 . S
O215 Dy200 2.310 . S
O215 Dy203 2.664 . S
O215 C209 1.268 . S
O216 Dy200 2.351 . S
O216 C219 1.249 . S
O217 Dy203 2.326 . S
O217 C219 1.267 . S
C218 O210 1.249 . S
C218 O211 1.267 . S
C219 O216 1.249 . S
C219 O217 1.267 . S
Dy220 O224 2.398 . S
Dy220 O225 2.491 . S
Dy220 O226 2.403 1_565 S
Dy220 O227 2.664 . S
Dy220 O231 2.326 . S
Dy220 O235 2.310 . S
Dy220 O236 2.351 1_565 S
C221 O232 1.185 . S
C221 O233 1.355 1_565 S
C222 O224 1.185 . S
C222 O225 1.355 . S
Dy223 O227 2.310 . S
Dy223 O230 2.351 . S
Dy223 O232 2.398 . S
Dy223 O233 2.491 1_565 S
Dy223 O234 2.403 . S
Dy223 O235 2.664 . S
Dy223 O237 2.326 1_565 S
O224 Dy220 2.398 . S
O224 C222 1.185 . S
O225 Dy220 2.491 . S
O225 C222 1.355 . S
O226 Dy220 2.403 1_545 S
O226 C228 1.254 . S
O227 Dy220 2.664 . S
O227 Dy223 2.310 . S
O227 C228 1.268 1_565 S
C228 O226 1.254 . S
C228 O227 1.268 1_545 S
C229 O234 1.254 . S
C229 O235 1.268 . S
O230 Dy223 2.351 . S
O230 C238 1.249 . S
O231 Dy220 2.326 . S
O231 C238 1.267 . S
O232 C221 1.185 . S
O232 Dy223 2.398 . S
O233 C221 1.355 1_545 S
O233 Dy223 2.491 1_545 S
O234 Dy223 2.403 . S
O234 C229 1.254 . S
O235 Dy220 2.310 . S
O235 Dy223 2.664 . S
O235 C229 1.268 . S
O236 Dy220 2.351 1_545 S
O236 C239 1.249 . S
O237 Dy223 2.326 1_545 S
O237 C239 1.267 . S
C238 O230 1.249 . S
C238 O231 1.267 . S
C239 O236 1.249 . S
C239 O237 1.267 . S
Dy240 O244 2.398 . S
Dy240 O245 2.491 . S
Dy240 O246 2.403 . S
Dy240 O247 2.664 . S
Dy240 O251 2.326 . S
Dy240 O255 2.310 . S
Dy240 O256 2.351 . S
C241 O252 1.185 . S
C241 O253 1.355 . S
C242 O244 1.185 . S
C242 O245 1.355 . S
Dy243 O247 2.310 . S
Dy243 O250 2.351 . S
Dy243 O252 2.398 . S
Dy243 O253 2.491 . S
Dy243 O254 2.403 . S
Dy243 O255 2.664 . S
Dy243 O257 2.326 . S
O244 Dy240 2.398 . S
O244 C242 1.185 . S
O245 Dy240 2.491 . S
O245 C242 1.355 . S
O246 Dy240 2.403 . S
O246 C248 1.254 . S
O247 Dy240 2.664 . S
O247 Dy243 2.310 . S
O247 C248 1.268 . S
C248 O246 1.254 . S
C248 O247 1.268 . S
C249 O254 1.254 . S
C249 O255 1.268 . S
O250 Dy243 2.351 . S
O250 C258 1.249 . S
O251 Dy240 2.326 . S
O251 C258 1.267 . S
O252 C241 1.185 . S
O252 Dy243 2.398 . S
O253 C241 1.355 . S
O253 Dy243 2.491 . S
O254 Dy243 2.403 . S
O254 C249 1.254 . S
O255 Dy240 2.310 . S
O255 Dy243 2.664 . S
O255 C249 1.268 . S
O256 Dy240 2.351 . S
O256 C259 1.249 . S
O257 Dy243 2.326 . S
O257 C259 1.267 . S
C258 O250 1.249 . S
C258 O251 1.267 . S
C259 O256 1.249 . S
C259 O257 1.267 . S
Dy260 O264 2.398 . S
Dy260 O265 2.491 1_565 S
Dy260 O266 2.403 . S
Dy260 O267 2.664 . S
Dy260 O271 2.326 1_565 S
Dy260 O275 2.310 . S
Dy260 O276 2.351 . S
C261 O272 1.185 . S
C261 O273 1.355 . S
C262 O264 1.185 . S
C262 O265 1.355 1_565 S
Dy263 O267 2.310 . S
Dy263 O270 2.351 1_565 S
Dy263 O272 2.398 . S
Dy263 O273 2.491 . S
Dy263 O274 2.403 1_565 S
Dy263 O275 2.664 . S
Dy263 O277 2.326 . S
O264 Dy260 2.398 . S
O264 C262 1.185 . S
O265 Dy260 2.491 1_545 S
O265 C262 1.355 1_545 S
O266 Dy260 2.403 . S
O266 C268 1.254 . S
O267 Dy260 2.664 . S
O267 Dy263 2.310 . S
O267 C268 1.268 . S
C268 O266 1.254 . S
C268 O267 1.268 . S
C269 O274 1.254 . S
C269 O275 1.268 1_545 S
O270 Dy263 2.351 1_545 S
O270 C278 1.249 . S
O271 Dy260 2.326 1_545 S
O271 C278 1.267 . S
O272 C261 1.185 . S
O272 Dy263 2.398 . S
O273 C261 1.355 . S
O273 Dy263 2.491 . S
O274 Dy263 2.403 1_545 S
O274 C269 1.254 . S
O275 Dy260 2.310 . S
O275 Dy263 2.664 . S
O275 C269 1.268 1_565 S
O276 Dy260 2.351 . S
O276 C279 1.249 . S
O277 Dy263 2.326 . S
O277 C279 1.267 . S
C278 O270 1.249 . S
C278 O271 1.267 . S
C279 O276 1.249 . S
C279 O277 1.267 . S
Dy280 O284 2.398 . S
Dy280 O285 2.491 . S
Dy280 O286 2.403 . S
Dy280 O287 2.664 . S
Dy280 O291 2.326 . S
Dy280 O295 2.310 . S
Dy280 O296 2.351 . S
C281 O292 1.185 . S
C281 O293 1.355 . S
C282 O284 1.185 . S
C282 O285 1.355 . S
Dy283 O287 2.310 . S
Dy283 O290 2.351 . S
Dy283 O292 2.398 . S
Dy283 O293 2.491 . S
Dy283 O294 2.403 . S
Dy283 O295 2.664 . S
Dy283 O297 2.326 . S
O284 Dy280 2.398 . S
O284 C282 1.185 . S
O285 Dy280 2.491 . S
O285 C282 1.355 . S
O286 Dy280 2.403 . S
O286 C288 1.254 . S
O287 Dy280 2.664 . S
O287 Dy283 2.310 . S
O287 C288 1.268 . S
C288 O286 1.254 . S
C288 O287 1.268 . S
C289 O294 1.254 . S
C289 O295 1.268 . S
O290 Dy283 2.351 . S
O290 C298 1.249 . S
O291 Dy280 2.326 . S
O291 C298 1.267 . S
O292 C281 1.185 . S
O292 Dy283 2.398 . S
O293 C281 1.355 . S
O293 Dy283 2.491 . S
O294 Dy283 2.403 . S
O294 C289 1.254 . S
O295 Dy280 2.310 . S
O295 Dy283 2.664 . S
O295 C289 1.268 . S
O296 Dy280 2.351 . S
O296 C299 1.249 . S
O297 Dy283 2.326 . S
O297 C299 1.267 . S
C298 O290 1.249 . S
C298 O291 1.267 . S
C299 O296 1.249 . S
C299 O297 1.267 . S
Dy300 O304 2.398 . S
Dy300 O305 2.491 1_545 S
Dy300 O306 2.403 . S
Dy300 O307 2.664 . S
Dy300 O311 2.326 1_545 S
Dy300 O315 2.310 . S
Dy300 O316 2.351 . S
C301 O312 1.185 . S
C301 O313 1.355 . S
C302 O304 1.185 . S
C302 O305 1.355 1_545 S
Dy303 O307 2.310 . S
Dy303 O310 2.351 1_545 S
Dy303 O312 2.398 . S
Dy303 O313 2.491 . S
Dy303 O314 2.403 1_545 S
Dy303 O315 2.664 . S
Dy303 O317 2.326 . S
O304 Dy300 2.398 . S
O304 C302 1.185 . S
O305 Dy300 2.491 1_565 S
O305 C302 1.355 1_565 S
O306 Dy300 2.403 . S
O306 C308 1.254 . S
O307 Dy300 2.664 . S
O307 Dy303 2.310 . S
O307 C308 1.268 . S
C308 O306 1.254 . S
C308 O307 1.268 . S
C309 O314 1.254 . S
C309 O315 1.268 1_565 S
O310 Dy303 2.351 1_565 S
O310 C318 1.249 . S
O311 Dy300 2.326 1_565 S
O311 C318 1.267 . S
O312 C301 1.185 . S
O312 Dy303 2.398 . S
O313 C301 1.355 . S
O313 Dy303 2.491 . S
O314 Dy303 2.403 1_565 S
O314 C309 1.254 . S
O315 Dy300 2.310 . S
O315 Dy303 2.664 . S
O315 C309 1.268 1_545 S
O316 Dy300 2.351 . S
O316 C319 1.249 . S
O317 Dy303 2.326 . S
O317 C319 1.267 . S
C318 O310 1.249 . S
C318 O311 1.267 . S
C319 O316 1.249 . S
C319 O317 1.267 . S
H320 C326 0.930 . S
H321 C329 0.930 . S
H322 C330 0.930 . S
H323 C331 0.930 . S
H324 C334 0.930 . S
H325 C335 0.930 . S
C326 H320 0.930 . S
C326 C327 1.355 . S
C326 C328 1.415 . S
C327 C326 1.355 . S
C327 C329 1.419 . S
C328 C326 1.415 . S
C328 C333 1.425 . S
C328 C335 1.409 . S
C329 H321 0.930 . S
C329 C327 1.419 . S
C329 C330 1.362 . S
C330 H322 0.930 . S
C330 C329 1.362 . S
C330 C333 1.409 . S
C331 H323 0.930 . S
C331 C332 1.355 . S
C331 C333 1.415 . S
C332 C331 1.355 . S
C332 C334 1.419 . S
C333 C328 1.425 . S
C333 C330 1.409 . S
C333 C331 1.415 . S
C334 H324 0.930 . S
C334 C332 1.419 . S
C334 C335 1.362 . S
C335 H325 0.930 . S
C335 C328 1.409 . S
C335 C334 1.362 . S
H336 C342 0.930 . S
H337 C345 0.930 . S
H338 C346 0.930 . S
H339 C347 0.930 . S
H340 C350 0.930 . S
H341 C351 0.930 . S
C342 H336 0.930 . S
C342 C343 1.355 . S
C342 C344 1.415 . S
C343 C342 1.355 . S
C343 C345 1.419 . S
C344 C342 1.415 . S
C344 C349 1.425 . S
C344 C351 1.409 . S
C345 H337 0.930 . S
C345 C343 1.419 . S
C345 C346 1.362 . S
C346 H338 0.930 . S
C346 C345 1.362 . S
C346 C349 1.409 . S
C347 H339 0.930 . S
C347 C348 1.355 . S
C347 C349 1.415 . S
C348 C347 1.355 . S
C348 C350 1.419 . S
C349 C344 1.425 . S
C349 C346 1.409 . S
C349 C347 1.415 . S
C350 H340 0.930 . S
C350 C348 1.419 . S
C350 C351 1.362 . S
C351 H341 0.930 . S
C351 C344 1.409 . S
C351 C350 1.362 . S
H352 C358 0.930 . S
H353 C361 0.930 . S
H354 C362 0.930 . S
H355 C363 0.930 . S
H356 C366 0.930 . S
H357 C367 0.930 . S
C358 H352 0.930 . S
C358 C359 1.355 . S
C358 C360 1.415 . S
C359 C358 1.355 . S
C359 C361 1.419 . S
C360 C358 1.415 . S
C360 C365 1.425 . S
C360 C367 1.409 . S
C361 H353 0.930 . S
C361 C359 1.419 . S
C361 C362 1.362 . S
C362 H354 0.930 . S
C362 C361 1.362 . S
C362 C365 1.409 . S
C363 H355 0.930 . S
C363 C364 1.355 . S
C363 C365 1.415 . S
C364 C363 1.355 . S
C364 C366 1.419 . S
C365 C360 1.425 . S
C365 C362 1.409 . S
C365 C363 1.415 . S
C366 H356 0.930 . S
C366 C364 1.419 . S
C366 C367 1.362 . S
C367 H357 0.930 . S
C367 C360 1.409 . S
C367 C366 1.362 . S
H368 C374 0.930 . S
H369 C377 0.930 . S
H370 C378 0.930 . S
H371 C379 0.930 . S
H372 C382 0.930 . S
H373 C383 0.930 . S
C374 H368 0.930 . S
C374 C375 1.355 . S
C374 C376 1.415 . S
C375 C374 1.355 . S
C375 C377 1.419 1_655 S
C376 C374 1.415 . S
C376 C381 1.425 1_656 S
C376 C383 1.409 1_556 S
C377 H369 0.930 . S
C377 C375 1.419 1_455 S
C377 C378 1.362 . S
C378 H370 0.930 . S
C378 C377 1.362 . S
C378 C381 1.409 1_556 S
C379 H371 0.930 . S
C379 C380 1.355 . S
C379 C381 1.415 . S
C380 C379 1.355 . S
C380 C382 1.419 1_455 S
C381 C376 1.425 1_454 S
C381 C378 1.409 1_554 S
C381 C379 1.415 . S
C382 H372 0.930 . S
C382 C380 1.419 1_655 S
C382 C383 1.362 . S
C383 H373 0.930 . S
C383 C376 1.409 1_554 S
C383 C382 1.362 . S
H384 C390 0.930 . S
H385 C393 0.930 . S
H386 C394 0.930 . S
H387 C395 0.930 . S
H388 C398 0.930 . S
H389 C399 0.930 . S
C390 H384 0.930 . S
C390 C391 1.355 . S
C390 C392 1.415 . S
C391 C390 1.355 . S
C391 C393 1.419 . S
C392 C390 1.415 . S
C392 C397 1.425 . S
C392 C399 1.409 . S
C393 H385 0.930 . S
C393 C391 1.419 . S
C393 C394 1.362 . S
C394 H386 0.930 . S
C394 C393 1.362 . S
C394 C397 1.409 . S
C395 H387 0.930 . S
C395 C396 1.355 . S
C395 C397 1.415 . S
C396 C395 1.355 . S
C396 C398 1.419 . S
C397 C392 1.425 . S
C397 C394 1.409 . S
C397 C395 1.415 . S
C398 H388 0.930 . S
C398 C396 1.419 . S
C398 C399 1.362 . S
C399 H389 0.930 . S
C399 C392 1.409 . S
C399 C398 1.362 . S
H400 C406 0.930 . S
H401 C409 0.930 . S
H402 C410 0.930 . S
H403 C411 0.930 . S
H404 C414 0.930 . S
H405 C415 0.930 . S
C406 H400 0.930 . S
C406 C407 1.355 . S
C406 C408 1.415 . S
C407 C406 1.355 . S
C407 C409 1.419 . S
C408 C406 1.415 . S
C408 C413 1.425 . S
C408 C415 1.409 . S
C409 H401 0.930 . S
C409 C407 1.419 . S
C409 C410 1.362 . S
C410 H402 0.930 . S
C410 C409 1.362 . S
C410 C413 1.409 . S
C411 H403 0.930 . S
C411 C412 1.355 . S
C411 C413 1.415 . S
C412 C411 1.355 . S
C412 C414 1.419 . S
C413 C408 1.425 . S
C413 C410 1.409 . S
C413 C411 1.415 . S
C414 H404 0.930 . S
C414 C412 1.419 . S
C414 C415 1.362 . S
C415 H405 0.930 . S
C415 C408 1.409 . S
C415 C414 1.362 . S
H416 C422 0.930 . S
H417 C425 0.930 . S
H418 C426 0.930 . S
H419 C427 0.930 . S
H420 C430 0.930 . S
H421 C431 0.930 . S
C422 H416 0.930 . S
C422 C423 1.355 . S
C422 C424 1.415 1_565 S
C423 C422 1.355 . S
C423 C425 1.419 1_655 S
C424 C422 1.415 1_545 S
C424 C429 1.425 1_644 S
C424 C431 1.409 . S
C425 H417 0.930 . S
C425 C423 1.419 1_455 S
C425 C426 1.362 1_554 S
C426 H418 0.930 . S
C426 C425 1.362 1_556 S
C426 C429 1.409 . S
C427 H419 0.930 . S
C427 C428 1.355 . S
C427 C429 1.415 1_545 S
C428 C427 1.355 . S
C428 C430 1.419 1_455 S
C429 C424 1.425 1_466 S
C429 C426 1.409 . S
C429 C427 1.415 1_565 S
C430 H420 0.930 . S
C430 C428 1.419 1_655 S
C430 C431 1.362 1_556 S
C431 H421 0.930 . S
C431 C424 1.409 . S
C431 C430 1.362 1_554 S
H432 C438 0.930 . S
H433 C441 0.930 . S
H434 C442 0.930 . S
H435 C443 0.930 . S
H436 C446 0.930 . S
H437 C447 0.930 . S
C438 H432 0.930 . S
C438 C439 1.355 . S
C438 C440 1.415 1_565 S
C439 C438 1.355 . S
C439 C441 1.419 . S
C440 C438 1.415 1_545 S
C440 C445 1.425 1_545 S
C440 C447 1.409 . S
C441 H433 0.930 . S
C441 C439 1.419 . S
C441 C442 1.362 . S
C442 H434 0.930 . S
C442 C441 1.362 . S
C442 C445 1.409 . S
C443 H435 0.930 . S
C443 C444 1.355 . S
C443 C445 1.415 1_545 S
C444 C443 1.355 . S
C444 C446 1.419 . S
C445 C440 1.425 1_565 S
C445 C442 1.409 . S
C445 C443 1.415 1_565 S
C446 H436 0.930 . S
C446 C444 1.419 . S
C446 C447 1.362 . S
C447 H437 0.930 . S
C447 C440 1.409 . S
C447 C446 1.362 . S
H448 C454 0.930 . S
H449 C457 0.930 . S
H450 C458 0.930 . S
H451 C459 0.930 . S
H452 C462 0.930 . S
H453 C463 0.930 . S
C454 H448 0.930 . S
C454 C455 1.355 . S
C454 C456 1.415 . S
C455 C454 1.355 . S
C455 C457 1.419 . S
C456 C454 1.415 . S
C456 C461 1.425 . S
C456 C463 1.409 . S
C457 H449 0.930 . S
C457 C455 1.419 . S
C457 C458 1.362 . S
C458 H450 0.930 . S
C458 C457 1.362 . S
C458 C461 1.409 . S
C459 H451 0.930 . S
C459 C460 1.355 . S
C459 C461 1.415 1_554 S
C460 C459 1.355 . S
C460 C462 1.419 . S
C461 C456 1.425 . S
C461 C458 1.409 . S
C461 C459 1.415 1_556 S
C462 H452 0.930 . S
C462 C460 1.419 . S
C462 C463 1.362 1_554 S
C463 H453 0.930 . S
C463 C456 1.409 . S
C463 C462 1.362 1_556 S
H464 C470 0.930 . S
H465 C473 0.930 . S
H466 C474 0.930 . S
H467 C475 0.930 . S
H468 C478 0.930 . S
H469 C479 0.930 . S
C470 H464 0.930 . S
C470 C471 1.355 . S
C470 C472 1.415 . S
C471 C470 1.355 . S
C471 C473 1.419 . S
C472 C470 1.415 . S
C472 C477 1.425 . S
C472 C479 1.409 . S
C473 H465 0.930 . S
C473 C471 1.419 . S
C473 C474 1.362 . S
C474 H466 0.930 . S
C474 C473 1.362 . S
C474 C477 1.409 . S
C475 H467 0.930 . S
C475 C476 1.355 . S
C475 C477 1.415 . S
C476 C475 1.355 . S
C476 C478 1.419 . S
C477 C472 1.425 . S
C477 C474 1.409 . S
C477 C475 1.415 . S
C478 H468 0.930 . S
C478 C476 1.419 . S
C478 C479 1.362 . S
C479 H469 0.930 . S
C479 C472 1.409 . S
C479 C478 1.362 . S
H480 C486 0.930 . S
H481 C489 0.930 . S
H482 C490 0.930 . S
H483 C491 0.930 . S
H484 C494 0.930 1_545 S
H485 C495 0.930 1_545 S
C486 H480 0.930 . S
C486 C487 1.355 . S
C486 C488 1.415 . S
C487 C486 1.355 . S
C487 C489 1.419 . S
C488 C486 1.415 . S
C488 C493 1.425 . S
C488 C495 1.409 . S
C489 H481 0.930 . S
C489 C487 1.419 . S
C489 C490 1.362 . S
C490 H482 0.930 . S
C490 C489 1.362 . S
C490 C493 1.409 . S
C491 H483 0.930 . S
C491 C492 1.355 . S
C491 C493 1.415 . S
C492 C491 1.355 . S
C492 C494 1.419 . S
C493 C488 1.425 . S
C493 C490 1.409 . S
C493 C491 1.415 . S
C494 H484 0.930 1_565 S
C494 C492 1.419 . S
C494 C495 1.362 . S
C495 H485 0.930 1_565 S
C495 C488 1.409 . S
C495 C494 1.362 . S
H496 C502 0.930 . S
H497 C505 0.930 . S
H498 C506 0.930 . S
H499 C507 0.930 . S
H500 C510 0.930 . S
H501 C511 0.930 . S
C502 H496 0.930 . S
C502 C503 1.355 . S
C502 C504 1.415 . S
C503 C502 1.355 . S
C503 C505 1.419 . S
C504 C502 1.415 . S
C504 C509 1.425 . S
C504 C511 1.409 . S
C505 H497 0.930 . S
C505 C503 1.419 . S
C505 C506 1.362 . S
C506 H498 0.930 . S
C506 C505 1.362 . S
C506 C509 1.409 . S
C507 H499 0.930 . S
C507 C508 1.355 . S
C507 C509 1.415 . S
C508 C507 1.355 . S
C508 C510 1.419 . S
C509 C504 1.425 . S
C509 C506 1.409 . S
C509 C507 1.415 . S
C510 H500 0.930 . S
C510 C508 1.419 . S
C510 C511 1.362 . S
C511 H501 0.930 . S
C511 C504 1.409 . S
C511 C510 1.362 . S
H512 C518 0.930 . S
H513 C521 0.930 . S
H514 C522 0.930 . S
H515 C523 0.930 . S
H516 C526 0.930 . S
H517 C527 0.930 . S
C518 H512 0.930 . S
C518 C519 1.355 . S
C518 C520 1.415 . S
C519 C518 1.355 . S
C519 C521 1.419 . S
C520 C518 1.415 . S
C520 C525 1.425 . S
C520 C527 1.409 . S
C521 H513 0.930 . S
C521 C519 1.419 . S
C521 C522 1.362 . S
C522 H514 0.930 . S
C522 C521 1.362 . S
C522 C525 1.409 . S
C523 H515 0.930 . S
C523 C524 1.355 . S
C523 C525 1.415 1_556 S
C524 C523 1.355 . S
C524 C526 1.419 . S
C525 C520 1.425 . S
C525 C522 1.409 . S
C525 C523 1.415 1_554 S
C526 H516 0.930 . S
C526 C524 1.419 . S
C526 C527 1.362 1_556 S
C527 H517 0.930 . S
C527 C520 1.409 . S
C527 C526 1.362 1_554 S
H528 C534 0.930 . S
H529 C537 0.930 . S
H530 C538 0.930 . S
H531 C539 0.930 . S
H532 C542 0.930 . S
H533 C543 0.930 . S
C534 H528 0.930 . S
C534 C535 1.355 . S
C534 C536 1.415 . S
C535 C534 1.355 . S
C535 C537 1.419 . S
C536 C534 1.415 . S
C536 C541 1.425 . S
C536 C543 1.409 . S
C537 H529 0.930 . S
C537 C535 1.419 . S
C537 C538 1.362 . S
C538 H530 0.930 . S
C538 C537 1.362 . S
C538 C541 1.409 . S
C539 H531 0.930 . S
C539 C540 1.355 . S
C539 C541 1.415 . S
C540 C539 1.355 . S
C540 C542 1.419 . S
C541 C536 1.425 . S
C541 C538 1.409 . S
C541 C539 1.415 . S
C542 H532 0.930 . S
C542 C540 1.419 . S
C542 C543 1.362 . S
C543 H533 0.930 . S
C543 C536 1.409 . S
C543 C542 1.362 . S
H544 C550 0.930 . S
H545 C553 0.920 1_565 S
H546 C554 0.930 1_565 S
H547 C555 0.930 . S
H548 C558 0.930 . S
H549 C559 0.930 . S
C550 H544 0.930 . S
C550 C551 1.355 . S
C550 C552 1.415 . S
C551 C550 1.355 . S
C551 C553 1.419 . S
C552 C550 1.415 . S
C552 C557 1.425 . S
C552 C559 1.409 . S
C553 H545 0.920 1_545 S
C553 C551 1.419 . S
C553 C554 1.362 . S
C554 H546 0.930 1_545 S
C554 C553 1.362 . S
C554 C557 1.409 . S
C555 H547 0.930 . S
C555 C556 1.355 . S
C555 C557 1.415 . S
C556 C555 1.355 . S
C556 C558 1.419 . S
C557 C552 1.425 . S
C557 C554 1.409 . S
C557 C555 1.415 . S
C558 H548 0.930 . S
C558 C556 1.419 . S
C558 C559 1.362 . S
C559 H549 0.930 . S
C559 C552 1.409 . S
C559 C558 1.362 . S
H560 C566 0.930 . S
H561 C569 0.930 . S
H562 C570 0.930 . S
H563 C571 0.930 . S
H564 C574 0.930 . S
H565 C575 0.930 . S
C566 H560 0.930 . S
C566 C567 1.355 . S
C566 C568 1.415 . S
C567 C566 1.355 . S
C567 C569 1.419 . S
C568 C566 1.415 . S
C568 C573 1.425 . S
C568 C575 1.409 . S
C569 H561 0.930 . S
C569 C567 1.419 . S
C569 C570 1.362 . S
C570 H562 0.930 . S
C570 C569 1.362 . S
C570 C573 1.409 . S
C571 H563 0.930 . S
C571 C572 1.355 . S
C571 C573 1.415 . S
C572 C571 1.355 . S
C572 C574 1.419 . S
C573 C568 1.425 . S
C573 C570 1.409 . S
C573 C571 1.415 . S
C574 H564 0.930 . S
C574 C572 1.419 . S
C574 C575 1.362 . S
C575 H565 0.930 . S
C575 C568 1.409 . S
C575 C574 1.362 . S
H576 C582 0.930 . S
H577 C585 0.930 . S
H578 C586 0.930 . S
H579 C587 0.930 . S
H580 C590 0.930 . S
H581 C591 0.930 . S
C582 H576 0.930 . S
C582 C583 1.355 . S
C582 C584 1.415 . S
C583 C582 1.355 . S
C583 C585 1.419 . S
C584 C582 1.415 . S
C584 C589 1.425 . S
C584 C591 1.409 . S
C585 H577 0.930 . S
C585 C583 1.419 . S
C585 C586 1.362 . S
C586 H578 0.930 . S
C586 C585 1.362 . S
C586 C589 1.409 . S
C587 H579 0.930 . S
C587 C588 1.355 . S
C587 C589 1.415 . S
C588 C587 1.355 . S
C588 C590 1.419 . S
C589 C584 1.425 . S
C589 C586 1.409 . S
C589 C587 1.415 . S
C590 H580 0.930 . S
C590 C588 1.419 . S
C590 C591 1.362 . S
C591 H581 0.930 . S
C591 C584 1.409 . S
C591 C590 1.362 . S
H592 C598 0.930 . S
H593 C601 0.930 . S
H594 C602 0.930 . S
H595 C603 0.930 . S
H596 C606 0.930 1_545 S
H597 C607 0.930 . S
C598 H592 0.930 . S
C598 C599 1.355 1_545 S
C598 C600 1.415 1_545 S
C599 C598 1.355 1_565 S
C599 C601 1.419 . S
C600 C598 1.415 1_565 S
C600 C605 1.425 . S
C600 C607 1.409 1_565 S
C601 H593 0.930 . S
C601 C599 1.419 . S
C601 C602 1.362 . S
C602 H594 0.930 . S
C602 C601 1.362 . S
C602 C605 1.409 . S
C603 H595 0.930 . S
C603 C604 1.355 . S
C603 C605 1.415 . S
C604 C603 1.355 . S
C604 C606 1.419 . S
C605 C600 1.425 . S
C605 C602 1.409 . S
C605 C603 1.415 . S
C606 H596 0.930 1_565 S
C606 C604 1.419 . S
C606 C607 1.362 1_565 S
C607 H597 0.930 . S
C607 C600 1.409 1_545 S
C607 C606 1.362 1_545 S
H608 C614 0.930 . S
H609 C617 0.930 . S
H610 C618 0.930 1_556 S
H611 C619 0.930 . S
H612 C622 0.930 . S
H613 C623 0.930 . S
C614 H608 0.930 . S
C614 C615 1.355 . S
C614 C616 1.415 1_554 S
C615 C614 1.355 . S
C615 C617 1.419 . S
C616 C614 1.415 1_556 S
C616 C621 1.425 . S
C616 C623 1.409 . S
C617 H609 0.930 . S
C617 C615 1.419 . S
C617 C618 1.362 . S
C618 H610 0.930 1_554 S
C618 C617 1.362 . S
C618 C621 1.409 1_554 S
C619 H611 0.930 . S
C619 C620 1.355 . S
C619 C621 1.415 . S
C620 C619 1.355 . S
C620 C622 1.419 . S
C621 C616 1.425 . S
C621 C618 1.409 1_556 S
C621 C619 1.415 . S
C622 H612 0.930 . S
C622 C620 1.419 . S
C622 C623 1.362 . S
C623 H613 0.930 . S
C623 C616 1.409 . S
C623 C622 1.362 . S
H624 C630 0.930 . S
H625 C633 0.930 1_565 S
H626 C634 0.930 . S
H627 C635 0.930 . S
H628 C638 0.930 . S
H629 C639 0.930 . S
C630 H624 0.930 . S
C630 C631 1.355 . S
C630 C632 1.415 . S
C631 C630 1.355 . S
C631 C633 1.419 . S
C632 C630 1.415 . S
C632 C637 1.425 . S
C632 C639 1.409 . S
C633 H625 0.930 1_545 S
C633 C631 1.419 . S
C633 C634 1.362 1_545 S
C634 H626 0.930 . S
C634 C633 1.362 1_565 S
C634 C637 1.409 1_565 S
C635 H627 0.930 . S
C635 C636 1.355 1_565 S
C635 C637 1.415 1_565 S
C636 C635 1.355 1_545 S
C636 C638 1.419 . S
C637 C632 1.425 . S
C637 C634 1.409 1_545 S
C637 C635 1.415 1_545 S
C638 H628 0.930 . S
C638 C636 1.419 . S
C638 C639 1.362 . S
C639 H629 0.930 . S
C639 C632 1.409 . S
C639 C638 1.362 . S
H640 C646 0.930 . S
H641 C649 0.930 . S
H642 C650 0.930 . S
H643 C651 0.930 . S
H644 C654 0.930 . S
H645 C655 0.930 . S
C646 H640 0.930 . S
C646 C647 1.355 . S
C646 C648 1.415 . S
C647 C646 1.355 . S
C647 C649 1.419 . S
C648 C646 1.415 . S
C648 C653 1.425 . S
C648 C655 1.409 . S
C649 H641 0.930 . S
C649 C647 1.419 . S
C649 C650 1.362 . S
C650 H642 0.930 . S
C650 C649 1.362 . S
C650 C653 1.409 . S
C651 H643 0.930 . S
C651 C652 1.355 . S
C651 C653 1.415 . S
C652 C651 1.355 . S
C652 C654 1.419 . S
C653 C648 1.425 . S
C653 C650 1.409 . S
C653 C651 1.415 . S
C654 H644 0.930 . S
C654 C652 1.419 . S
C654 C655 1.362 . S
C655 H645 0.930 . S
C655 C648 1.409 . S
C655 C654 1.362 . S
H656 C662 0.930 . S
H657 C665 0.930 . S
H658 C666 0.930 . S
H659 C667 0.930 1_565 S
H660 C670 0.930 . S
H661 C671 0.930 . S
C662 H656 0.930 . S
C662 C663 1.355 . S
C662 C664 1.415 . S
C663 C662 1.355 . S
C663 C665 1.419 1_545 S
C664 C662 1.415 . S
C664 C669 1.425 . S
C664 C671 1.409 . S
C665 H657 0.930 . S
C665 C663 1.419 1_565 S
C665 C666 1.362 . S
C666 H658 0.930 . S
C666 C665 1.362 . S
C666 C669 1.409 1_565 S
C667 H659 0.930 1_545 S
C667 C668 1.355 . S
C667 C669 1.415 . S
C668 C667 1.355 . S
C668 C670 1.419 . S
C669 C664 1.425 . S
C669 C666 1.409 1_545 S
C669 C667 1.415 . S
C670 H660 0.930 . S
C670 C668 1.419 . S
C670 C671 1.362 . S
C671 H661 0.930 . S
C671 C664 1.409 . S
C671 C670 1.362 . S
H672 C678 0.930 . S
H673 C681 0.930 . S
H674 C682 0.930 . S
H675 C683 0.930 . S
H676 C686 0.930 . S
H677 C687 0.930 . S
C678 H672 0.930 . S
C678 C679 1.355 . S
C678 C680 1.415 . S
C679 C678 1.355 . S
C679 C681 1.419 . S
C680 C678 1.415 . S
C680 C685 1.425 . S
C680 C687 1.409 . S
C681 H673 0.930 . S
C681 C679 1.419 . S
C681 C682 1.362 . S
C682 H674 0.930 . S
C682 C681 1.362 . S
C682 C685 1.409 . S
C683 H675 0.930 . S
C683 C684 1.355 . S
C683 C685 1.415 1_556 S
C684 C683 1.355 . S
C684 C686 1.419 . S
C685 C680 1.425 . S
C685 C682 1.409 . S
C685 C683 1.415 1_554 S
C686 H676 0.930 . S
C686 C684 1.419 . S
C686 C687 1.362 1_556 S
C687 H677 0.930 . S
C687 C680 1.409 . S
C687 C686 1.362 1_554 S
H688 C694 0.930 . S
H689 C697 0.930 . S
H690 C698 0.930 . S
H691 C699 0.930 . S
H692 C702 0.930 . S
H693 C703 0.930 . S
C694 H688 0.930 . S
C694 C695 1.355 . S
C694 C696 1.415 . S
C695 C694 1.355 . S
C695 C697 1.419 1_565 S
C696 C694 1.415 . S
C696 C701 1.425 . S
C696 C703 1.409 . S
C697 H689 0.930 . S
C697 C695 1.419 1_545 S
C697 C698 1.362 . S
C698 H690 0.930 . S
C698 C697 1.362 . S
C698 C701 1.409 1_545 S
C699 H691 0.930 . S
C699 C700 1.355 . S
C699 C701 1.415 . S
C700 C699 1.355 . S
C700 C702 1.419 . S
C701 C696 1.425 . S
C701 C698 1.409 1_565 S
C701 C699 1.415 . S
C702 H692 0.930 . S
C702 C700 1.419 . S
C702 C703 1.362 . S
C703 H693 0.930 . S
C703 C696 1.409 . S
C703 C702 1.362 . S
H704 C710 0.930 . S
H705 C713 0.930 . S
H706 C714 0.930 . S
H707 C715 0.930 . S
H708 C718 0.930 . S
H709 C719 0.930 . S
C710 H704 0.930 . S
C710 C711 1.355 . S
C710 C712 1.415 . S
C711 C710 1.355 . S
C711 C713 1.419 . S
C712 C710 1.415 . S
C712 C717 1.425 . S
C712 C719 1.409 . S
C713 H705 0.930 . S
C713 C711 1.419 . S
C713 C714 1.362 . S
C714 H706 0.930 . S
C714 C713 1.362 . S
C714 C717 1.409 . S
C715 H707 0.930 . S
C715 C716 1.355 . S
C715 C717 1.415 . S
C716 C715 1.355 . S
C716 C718 1.419 . S
C717 C712 1.425 . S
C717 C714 1.409 . S
C717 C715 1.415 . S
C718 H708 0.930 . S
C718 C716 1.419 . S
C718 C719 1.362 . S
C719 H709 0.930 . S
C719 C712 1.409 . S
C719 C718 1.362 . S
H720 C726 0.930 . S
H721 C729 0.930 . S
H722 C730 0.930 . S
H723 C731 0.930 . S
H724 C734 0.930 . S
H725 C735 0.930 . S
C726 H720 0.930 . S
C726 C727 1.355 . S
C726 C728 1.415 . S
C727 C726 1.355 . S
C727 C729 1.419 . S
C728 C726 1.415 . S
C728 C733 1.425 . S
C728 C735 1.409 . S
C729 H721 0.930 . S
C729 C727 1.419 . S
C729 C730 1.362 . S
C730 H722 0.930 . S
C730 C729 1.362 . S
C730 C733 1.409 . S
C731 H723 0.930 . S
C731 C732 1.355 . S
C731 C733 1.415 . S
C732 C731 1.355 . S
C732 C734 1.419 . S
C733 C728 1.425 . S
C733 C730 1.409 . S
C733 C731 1.415 . S
C734 H724 0.930 . S
C734 C732 1.419 . S
C734 C735 1.362 . S
C735 H725 0.930 . S
C735 C728 1.409 . S
C735 C734 1.362 . S
H736 C742 0.930 . S
H737 C745 0.930 . S
H738 C746 0.930 . S
H739 C747 0.930 . S
H740 C750 0.930 . S
H741 C751 0.930 . S
C742 H736 0.930 . S
C742 C743 1.355 . S
C742 C744 1.392 1_655 S
C743 C742 1.355 . S
C743 C745 1.419 . S
C744 C742 1.392 1_455 S
C744 C749 1.424 1_455 S
C744 C751 1.433 . S
C745 H737 0.930 . S
C745 C743 1.419 . S
C745 C746 1.362 . S
C746 H738 0.930 . S
C746 C745 1.362 . S
C746 C749 1.433 . S
C747 H739 0.930 . S
C747 C748 1.355 . S
C747 C749 1.392 1_455 S
C748 C747 1.355 . S
C748 C750 1.419 . S
C749 C744 1.424 1_655 S
C749 C746 1.433 . S
C749 C747 1.392 1_655 S
C750 H740 0.930 . S
C750 C748 1.419 . S
C750 C751 1.362 . S
C751 H741 0.930 . S
C751 C744 1.433 . S
C751 C750 1.362 . S
H752 C758 0.930 . S
H753 C761 0.930 . S
H754 C762 0.930 . S
H755 C763 0.930 . S
H756 C766 0.930 . S
H757 C767 0.930 . S
C758 H752 0.930 . S
C758 C759 1.355 1_455 S
C758 C760 1.415 . S
C759 C758 1.355 1_655 S
C759 C761 1.419 . S
C760 C758 1.415 . S
C760 C765 1.425 1_455 S
C760 C767 1.409 . S
C761 H753 0.930 . S
C761 C759 1.419 . S
C761 C762 1.362 . S
C762 H754 0.930 . S
C762 C761 1.362 . S
C762 C765 1.409 . S
C763 H755 0.930 . S
C763 C764 1.355 1_655 S
C763 C765 1.415 . S
C764 C763 1.355 1_455 S
C764 C766 1.419 . S
C765 C760 1.425 1_655 S
C765 C762 1.409 . S
C765 C763 1.415 . S
C766 H756 0.930 . S
C766 C764 1.419 . S
C766 C767 1.362 . S
C767 H757 0.930 . S
C767 C760 1.409 . S
C767 C766 1.362 . S
H768 C774 0.930 . S
H769 C777 0.930 . S
H770 C778 0.930 . S
H771 C779 0.930 . S
H772 C782 0.930 . S
H773 C783 0.930 . S
C774 H768 0.930 . S
C774 C775 1.355 . S
C774 C776 1.415 . S
C775 C774 1.355 . S
C775 C777 1.419 . S
C776 C774 1.415 . S
C776 C781 1.425 . S
C776 C783 1.409 . S
C777 H769 0.930 . S
C777 C775 1.419 . S
C777 C778 1.362 . S
C778 H770 0.930 . S
C778 C777 1.362 . S
C778 C781 1.409 . S
C779 H771 0.930 . S
C779 C780 1.355 . S
C779 C781 1.415 . S
C780 C779 1.355 . S
C780 C782 1.419 . S
C781 C776 1.425 . S
C781 C778 1.409 . S
C781 C779 1.415 . S
C782 H772 0.930 . S
C782 C780 1.419 . S
C782 C783 1.362 . S
C783 H773 0.930 . S
C783 C776 1.409 . S
C783 C782 1.362 . S
H784 C790 0.930 . S
H785 C793 0.930 . S
H786 C794 0.930 . S
H787 C795 0.930 . S
H788 C798 0.930 . S
H789 C799 0.930 . S
C790 H784 0.930 . S
C790 C791 1.355 . S
C790 C792 1.415 . S
C791 C790 1.355 . S
C791 C793 1.419 . S
C792 C790 1.415 . S
C792 C797 1.425 . S
C792 C799 1.409 . S
C793 H785 0.930 . S
C793 C791 1.419 . S
C793 C794 1.362 . S
C794 H786 0.930 . S
C794 C793 1.362 . S
C794 C797 1.409 . S
C795 H787 0.930 . S
C795 C796 1.355 . S
C795 C797 1.415 . S
C796 C795 1.355 . S
C796 C798 1.419 . S
C797 C792 1.425 . S
C797 C794 1.409 . S
C797 C795 1.415 . S
C798 H788 0.930 . S
C798 C796 1.419 . S
C798 C799 1.362 . S
C799 H789 0.930 . S
C799 C792 1.409 . S
C799 C798 1.362 . S
H800 C806 0.930 . S
H801 C809 0.930 . S
H802 C810 0.930 1_655 S
H803 C811 0.930 . S
H804 C814 0.930 . S
H805 C815 0.930 1_455 S
C806 H800 0.930 . S
C806 C807 1.355 . S
C806 C808 1.415 . S
C807 C806 1.355 . S
C807 C809 1.419 . S
C808 C806 1.415 . S
C808 C813 1.425 1_455 S
C808 C815 1.409 1_455 S
C809 H801 0.930 . S
C809 C807 1.419 . S
C809 C810 1.362 . S
C810 H802 0.930 1_455 S
C810 C809 1.362 . S
C810 C813 1.409 1_455 S
C811 H803 0.930 . S
C811 C812 1.355 . S
C811 C813 1.415 . S
C812 C811 1.355 . S
C812 C814 1.419 . S
C813 C808 1.425 1_655 S
C813 C810 1.409 1_655 S
C813 C811 1.415 . S
C814 H804 0.930 . S
C814 C812 1.419 . S
C814 C815 1.362 . S
C815 H805 0.930 1_655 S
C815 C808 1.409 1_655 S
C815 C814 1.362 . S
H816 C822 0.930 . S
H817 C825 0.930 . S
H818 C826 0.930 . S
H819 C827 0.930 . S
H820 C830 0.930 . S
H821 C831 0.930 . S
C822 H816 0.930 . S
C822 C823 1.355 . S
C822 C824 1.415 . S
C823 C822 1.355 . S
C823 C825 1.419 1_455 S
C824 C822 1.415 . S
C824 C829 1.425 1_455 S
C824 C831 1.409 . S
C825 H817 0.930 . S
C825 C823 1.419 1_655 S
C825 C826 1.362 . S
C826 H818 0.930 . S
C826 C825 1.362 . S
C826 C829 1.409 . S
C827 H819 0.930 . S
C827 C828 1.355 . S
C827 C829 1.415 . S
C828 C827 1.355 . S
C828 C830 1.419 1_655 S
C829 C824 1.425 1_655 S
C829 C826 1.409 . S
C829 C827 1.415 . S
C830 H820 0.930 . S
C830 C828 1.419 1_455 S
C830 C831 1.362 . S
C831 H821 0.930 . S
C831 C824 1.409 . S
C831 C830 1.362 . S
H832 C838 0.930 . S
H833 C841 0.930 . S
H834 C842 0.930 . S
H835 C843 0.930 . S
H836 C846 0.930 . S
H837 C847 0.930 . S
C838 H832 0.930 . S
C838 C839 1.355 . S
C838 C840 1.415 . S
C839 C838 1.355 . S
C839 C841 1.419 . S
C840 C838 1.415 . S
C840 C845 1.425 . S
C840 C847 1.409 . S
C841 H833 0.930 . S
C841 C839 1.419 . S
C841 C842 1.362 . S
C842 H834 0.930 . S
C842 C841 1.362 . S
C842 C845 1.409 . S
C843 H835 0.930 . S
C843 C844 1.355 . S
C843 C845 1.415 . S
C844 C843 1.355 . S
C844 C846 1.419 . S
C845 C840 1.425 . S
C845 C842 1.409 . S
C845 C843 1.415 . S
C846 H836 0.930 . S
C846 C844 1.419 . S
C846 C847 1.362 . S
C847 H837 0.930 . S
C847 C840 1.409 . S
C847 C846 1.362 . S
H848 C854 0.930 . S
H849 C857 0.930 . S
H850 C858 0.930 . S
H851 C859 0.930 . S
H852 C862 0.930 . S
H853 C863 0.930 . S
C854 H848 0.930 . S
C854 C855 1.355 . S
C854 C856 1.415 . S
C855 C854 1.355 . S
C855 C857 1.419 . S
C856 C854 1.415 . S
C856 C861 1.425 . S
C856 C863 1.409 . S
C857 H849 0.930 . S
C857 C855 1.419 . S
C857 C858 1.362 . S
C858 H850 0.930 . S
C858 C857 1.362 . S
C858 C861 1.409 . S
C859 H851 0.930 . S
C859 C860 1.355 . S
C859 C861 1.415 . S
C860 C859 1.355 . S
C860 C862 1.419 . S
C861 C856 1.425 . S
C861 C858 1.409 . S
C861 C859 1.415 . S
C862 H852 0.930 . S
C862 C860 1.419 . S
C862 C863 1.362 . S
C863 H853 0.930 . S
C863 C856 1.409 . S
C863 C862 1.362 . S
H864 C870 0.930 . S
H865 C873 0.930 . S
H866 C874 0.930 . S
H867 C875 0.930 . S
H868 C878 0.930 . S
H869 C879 0.930 . S
C870 H864 0.930 . S
C870 C871 1.355 . S
C870 C872 1.415 . S
C871 C870 1.355 . S
C871 C873 1.419 . S
C872 C870 1.415 . S
C872 C877 1.425 . S
C872 C879 1.409 . S
C873 H865 0.930 . S
C873 C871 1.419 . S
C873 C874 1.362 . S
C874 H866 0.930 . S
C874 C873 1.362 . S
C874 C877 1.409 . S
C875 H867 0.930 . S
C875 C876 1.355 . S
C875 C877 1.415 . S
C876 C875 1.355 . S
C876 C878 1.419 . S
C877 C872 1.425 . S
C877 C874 1.409 . S
C877 C875 1.415 . S
C878 H868 0.930 . S
C878 C876 1.419 . S
C878 C879 1.362 . S
C879 H869 0.930 . S
C879 C872 1.409 . S
C879 C878 1.362 . S
H880 C886 0.930 . S
H881 C889 0.930 . S
H882 C890 0.930 . S
H883 C891 0.930 . S
H884 C894 0.930 . S
H885 C895 0.930 . S
C886 H880 0.930 . S
C886 C887 1.355 . S
C886 C888 1.415 . S
C887 C886 1.355 . S
C887 C889 1.419 . S
C888 C886 1.415 . S
C888 C893 1.425 . S
C888 C895 1.409 . S
C889 H881 0.930 . S
C889 C887 1.419 . S
C889 C890 1.362 . S
C890 H882 0.930 . S
C890 C889 1.362 . S
C890 C893 1.409 . S
C891 H883 0.930 . S
C891 C892 1.355 . S
C891 C893 1.415 . S
C892 C891 1.355 . S
C892 C894 1.419 . S
C893 C888 1.425 . S
C893 C890 1.409 . S
C893 C891 1.415 . S
C894 H884 0.930 . S
C894 C892 1.419 . S
C894 C895 1.362 . S
C895 H885 0.930 . S
C895 C888 1.409 . S
C895 C894 1.362 . S
H896 C902 0.930 . S
H897 C905 0.930 . S
H898 C906 0.930 . S
H899 C907 0.930 . S
H900 C910 0.930 . S
H901 C911 0.930 . S
C902 H896 0.930 . S
C902 C903 1.355 . S
C902 C904 1.415 . S
C903 C902 1.355 . S
C903 C905 1.419 . S
C904 C902 1.415 . S
C904 C909 1.425 . S
C904 C911 1.409 . S
C905 H897 0.930 . S
C905 C903 1.419 . S
C905 C906 1.362 . S
C906 H898 0.930 . S
C906 C905 1.362 . S
C906 C909 1.409 . S
C907 H899 0.930 . S
C907 C908 1.355 . S
C907 C909 1.415 . S
C908 C907 1.355 . S
C908 C910 1.419 . S
C909 C904 1.425 . S
C909 C906 1.409 . S
C909 C907 1.415 . S
C910 H900 0.930 . S
C910 C908 1.419 . S
C910 C911 1.362 . S
C911 H901 0.930 . S
C911 C904 1.409 . S
C911 C910 1.362 . S
H912 C918 0.930 . S
H913 C921 0.930 . S
H914 C922 0.930 . S
H915 C923 0.930 . S
H916 C926 0.930 . S
H917 C927 0.930 . S
C918 H912 0.930 . S
C918 C919 1.355 . S
C918 C920 1.415 . S
C919 C918 1.355 . S
C919 C921 1.419 . S
C920 C918 1.415 . S
C920 C925 1.425 . S
C920 C927 1.409 . S
C921 H913 0.930 . S
C921 C919 1.419 . S
C921 C922 1.362 . S
C922 H914 0.930 . S
C922 C921 1.362 . S
C922 C925 1.409 . S
C923 H915 0.930 . S
C923 C924 1.355 . S
C923 C925 1.415 . S
C924 C923 1.355 . S
C924 C926 1.419 . S
C925 C920 1.425 . S
C925 C922 1.409 . S
C925 C923 1.415 . S
C926 H916 0.930 . S
C926 C924 1.419 . S
C926 C927 1.362 . S
C927 H917 0.930 . S
C927 C920 1.409 . S
C927 C926 1.362 . S
H928 C934 0.930 . S
H929 C937 0.930 . S
H930 C938 0.930 . S
H931 C939 0.930 . S
H932 C942 0.930 . S
H933 C943 0.930 . S
C934 H928 0.930 . S
C934 C935 1.355 . S
C934 C936 1.415 . S
C935 C934 1.355 . S
C935 C937 1.419 . S
C936 C934 1.415 . S
C936 C941 1.425 . S
C936 C943 1.409 . S
C937 H929 0.930 . S
C937 C935 1.419 . S
C937 C938 1.362 . S
C938 H930 0.930 . S
C938 C937 1.362 . S
C938 C941 1.409 . S
C939 H931 0.930 . S
C939 C940 1.355 . S
C939 C941 1.415 . S
C940 C939 1.355 . S
C940 C942 1.419 . S
C941 C936 1.425 . S
C941 C938 1.409 . S
C941 C939 1.415 . S
C942 H932 0.930 . S
C942 C940 1.419 . S
C942 C943 1.362 . S
C943 H933 0.930 . S
C943 C936 1.409 . S
C943 C942 1.362 . S
H944 C950 0.930 . S
H945 C953 0.930 . S
H946 C954 0.930 . S
H947 C955 0.930 . S
H948 C958 0.930 1_455 S
H949 C959 0.930 . S
C950 H944 0.930 . S
C950 C951 1.355 . S
C950 C952 1.415 . S
C951 C950 1.355 . S
C951 C953 1.419 . S
C952 C950 1.415 . S
C952 C957 1.425 . S
C952 C959 1.409 . S
C953 H945 0.930 . S
C953 C951 1.419 . S
C953 C954 1.362 . S
C954 H946 0.930 . S
C954 C953 1.362 . S
C954 C957 1.409 . S
C955 H947 0.930 . S
C955 C956 1.355 . S
C955 C957 1.415 . S
C956 C955 1.355 . S
C956 C958 1.419 . S
C957 C952 1.425 . S
C957 C954 1.409 . S
C957 C955 1.415 . S
C958 H948 0.930 1_655 S
C958 C956 1.419 . S
C958 C959 1.362 . S
C959 H949 0.930 . S
C959 C952 1.409 . S
C959 C958 1.362 . S
H960 C966 0.930 . S
H961 C969 0.930 . S
H962 C970 0.930 . S
H963 C971 0.930 . S
H964 C974 0.930 . S
H965 C975 0.930 . S
C966 H960 0.930 . S
C966 C967 1.355 . S
C966 C968 1.415 . S
C967 C966 1.355 . S
C967 C969 1.419 . S
C968 C966 1.415 . S
C968 C973 1.425 . S
C968 C975 1.409 . S
C969 H961 0.930 . S
C969 C967 1.419 . S
C969 C970 1.362 . S
C970 H962 0.930 . S
C970 C969 1.362 . S
C970 C973 1.409 . S
C971 H963 0.930 . S
C971 C972 1.355 . S
C971 C973 1.415 . S
C972 C971 1.355 . S
C972 C974 1.419 . S
C973 C968 1.425 . S
C973 C970 1.409 . S
C973 C971 1.415 . S
C974 H964 0.930 . S
C974 C972 1.419 . S
C974 C975 1.362 . S
C975 H965 0.930 . S
C975 C968 1.409 . S
C975 C974 1.362 . S
H976 C982 0.930 . S
H977 C985 0.930 . S
H978 C986 0.930 1_545 S
H979 C987 0.930 1_545 S
H980 C990 0.930 1_455 S
H981 C991 0.930 . S
C982 H976 0.930 . S
C982 C983 1.355 . S
C982 C984 1.415 . S
C983 C982 1.355 . S
C983 C985 1.419 . S
C984 C982 1.415 . S
C984 C989 1.425 . S
C984 C991 1.409 . S
C985 H977 0.930 . S
C985 C983 1.419 . S
C985 C986 1.362 . S
C986 H978 0.930 1_565 S
C986 C985 1.362 . S
C986 C989 1.409 . S
C987 H979 0.930 1_565 S
C987 C988 1.355 . S
C987 C989 1.415 . S
C988 C987 1.355 . S
C988 C990 1.419 . S
C989 C984 1.425 . S
C989 C986 1.409 . S
C989 C987 1.415 . S
C990 H980 0.930 1_655 S
C990 C988 1.419 . S
C990 C991 1.362 . S
C991 H981 0.930 . S
C991 C984 1.409 . S
C991 C990 1.362 . S
H992 C998 0.930 . S
H993 C1001 0.930 . S
H994 C1002 0.930 . S
H995 C1003 0.930 . S
H996 C1006 0.930 . S
H997 C1007 0.930 . S
C998 H992 0.930 . S
C998 C999 1.355 . S
C998 C1000 1.415 . S
C999 C998 1.355 . S
C999 C1001 1.419 . S
C1000 C998 1.415 . S
C1000 C1005 1.425 . S
C1000 C1007 1.409 . S
C1001 H993 0.930 . S
C1001 C999 1.419 . S
C1001 C1002 1.362 . S
C1002 H994 0.930 . S
C1002 C1001 1.362 . S
C1002 C1005 1.409 . S
C1003 H995 0.930 . S
C1003 C1004 1.355 . S
C1003 C1005 1.415 . S
C1004 C1003 1.355 . S
C1004 C1006 1.419 . S
C1005 C1000 1.425 . S
C1005 C1002 1.409 . S
C1005 C1003 1.415 . S
C1006 H996 0.930 . S
C1006 C1004 1.419 . S
C1006 C1007 1.362 . S
C1007 H997 0.930 . S
C1007 C1000 1.409 . S
C1007 C1006 1.362 . S
H1008 C1014 0.930 1_565 S
H1009 C1017 0.930 . S
H1010 C1018 0.930 . S
H1011 C1019 0.930 . S
H1012 C1022 0.930 . S
H1013 C1023 0.930 1_565 S
C1014 H1008 0.930 1_545 S
C1014 C1015 1.355 . S
C1014 C1016 1.415 . S
C1015 C1014 1.355 . S
C1015 C1017 1.419 . S
C1016 C1014 1.415 . S
C1016 C1021 1.425 . S
C1016 C1023 1.409 . S
C1017 H1009 0.930 . S
C1017 C1015 1.419 . S
C1017 C1018 1.362 . S
C1018 H1010 0.930 . S
C1018 C1017 1.362 . S
C1018 C1021 1.409 . S
C1019 H1011 0.930 . S
C1019 C1020 1.355 . S
C1019 C1021 1.415 . S
C1020 C1019 1.355 . S
C1020 C1022 1.419 . S
C1021 C1016 1.425 . S
C1021 C1018 1.409 . S
C1021 C1019 1.415 . S
C1022 H1012 0.930 . S
C1022 C1020 1.419 . S
C1022 C1023 1.362 . S
C1023 H1013 0.930 1_545 S
C1023 C1016 1.409 . S
C1023 C1022 1.362 . S
H1024 C1030 0.930 . S
H1025 C1033 0.930 . S
H1026 C1034 0.930 . S
H1027 C1035 0.930 . S
H1028 C1038 0.930 . S
H1029 C1039 0.930 . S
C1030 H1024 0.930 . S
C1030 C1031 1.355 . S
C1030 C1032 1.415 . S
C1031 C1030 1.355 . S
C1031 C1033 1.419 . S
C1032 C1030 1.415 . S
C1032 C1037 1.425 . S
C1032 C1039 1.409 . S
C1033 H1025 0.930 . S
C1033 C1031 1.419 . S
C1033 C1034 1.362 . S
C1034 H1026 0.930 . S
C1034 C1033 1.362 . S
C1034 C1037 1.409 . S
C1035 H1027 0.930 . S
C1035 C1036 1.355 . S
C1035 C1037 1.415 . S
C1036 C1035 1.355 . S
C1036 C1038 1.419 . S
C1037 C1032 1.425 . S
C1037 C1034 1.409 . S
C1037 C1035 1.415 . S
C1038 H1028 0.930 . S
C1038 C1036 1.419 . S
C1038 C1039 1.362 . S
C1039 H1029 0.930 . S
C1039 C1032 1.409 . S
C1039 C1038 1.362 . S
H1040 C1046 0.919 1_655 S
H1041 C1049 0.930 . S
H1042 C1050 0.930 . S
H1043 C1051 0.930 . S
H1044 C1054 0.930 . S
H1045 C1055 0.930 . S
C1046 H1040 0.919 1_455 S
C1046 C1047 1.355 . S
C1046 C1048 1.415 . S
C1047 C1046 1.355 . S
C1047 C1049 1.419 1_545 S
C1048 C1046 1.415 . S
C1048 C1053 1.425 . S
C1048 C1055 1.409 . S
C1049 H1041 0.930 . S
C1049 C1047 1.419 1_565 S
C1049 C1050 1.362 . S
C1050 H1042 0.930 . S
C1050 C1049 1.362 . S
C1050 C1053 1.409 1_565 S
C1051 H1043 0.930 . S
C1051 C1052 1.355 . S
C1051 C1053 1.415 . S
C1052 C1051 1.355 . S
C1052 C1054 1.419 . S
C1053 C1048 1.425 . S
C1053 C1050 1.409 1_545 S
C1053 C1051 1.415 . S
C1054 H1044 0.930 . S
C1054 C1052 1.419 . S
C1054 C1055 1.362 . S
C1055 H1045 0.930 . S
C1055 C1048 1.409 . S
C1055 C1054 1.362 . S
H1056 C1062 0.930 . S
H1057 C1065 0.930 . S
H1058 C1066 0.930 . S
H1059 C1067 0.930 . S
H1060 C1070 0.930 . S
H1061 C1071 0.930 . S
C1062 H1056 0.930 . S
C1062 C1063 1.355 . S
C1062 C1064 1.415 . S
C1063 C1062 1.355 . S
C1063 C1065 1.419 . S
C1064 C1062 1.415 . S
C1064 C1069 1.425 . S
C1064 C1071 1.409 . S
C1065 H1057 0.930 . S
C1065 C1063 1.419 . S
C1065 C1066 1.362 . S
C1066 H1058 0.930 . S
C1066 C1065 1.362 . S
C1066 C1069 1.409 . S
C1067 H1059 0.930 . S
C1067 C1068 1.355 . S
C1067 C1069 1.415 . S
C1068 C1067 1.355 . S
C1068 C1070 1.419 . S
C1069 C1064 1.425 . S
C1069 C1066 1.409 . S
C1069 C1067 1.415 . S
C1070 H1060 0.930 . S
C1070 C1068 1.419 . S
C1070 C1071 1.362 . S
C1071 H1061 0.930 . S
C1071 C1064 1.409 . S
C1071 C1070 1.362 . S
H1072 C1078 0.930 . S
H1073 C1081 0.930 . S
H1074 C1082 0.930 1_545 S
H1075 C1083 0.930 1_545 S
H1076 C1086 0.930 . S
H1077 C1087 0.930 . S
C1078 H1072 0.930 . S
C1078 C1079 1.355 . S
C1078 C1080 1.415 . S
C1079 C1078 1.355 . S
C1079 C1081 1.419 . S
C1080 C1078 1.415 . S
C1080 C1085 1.425 . S
C1080 C1087 1.409 . S
C1081 H1073 0.930 . S
C1081 C1079 1.419 . S
C1081 C1082 1.362 . S
C1082 H1074 0.930 1_565 S
C1082 C1081 1.362 . S
C1082 C1085 1.409 . S
C1083 H1075 0.930 1_565 S
C1083 C1084 1.355 . S
C1083 C1085 1.415 . S
C1084 C1083 1.355 . S
C1084 C1086 1.419 . S
C1085 C1080 1.425 . S
C1085 C1082 1.409 . S
C1085 C1083 1.415 . S
C1086 H1076 0.930 . S
C1086 C1084 1.419 . S
C1086 C1087 1.362 . S
C1087 H1077 0.930 . S
C1087 C1080 1.409 . S
C1087 C1086 1.362 . S
C327 C2 0.724 . S
C332 C241 0.724 . S
C343 C101 0.880 . S
C348 C22 0.880 . S
C359 C42 0.756 . S
C364 C281 0.756 . S
C375 C62 0.807 . S
C380 C141 0.807 . S
C391 C81 0.630 . S
C396 C162 0.630 . S
C407 C202 0.873 . S
C412 C121 0.873 . S
C423 C261 0.887 . S
C428 C182 0.887 . S
C439 C222 0.883 . S
C444 C301 0.883 . S
C455 C189 1.782 . S
C460 C1 1.748 . S
C471 C21 1.729 . S
C476 C209 1.790 . S
C487 C41 1.724 . S
C492 C229 1.783 . S
C503 C169 1.811 . S
C508 C61 1.763 . S
C519 C268 1.782 . S
C524 C82 1.748 . S
C535 C288 1.777 . S
C540 C102 1.726 . S
C551 C122 1.768 . S
C556 C308 1.792 . S
C567 C248 1.811 . S
C572 C142 1.784 . S
C583 C161 1.723 . S
C588 C29 1.780 . S
C599 C181 1.754 1_565 S
C604 C49 1.807 . S
C615 C201 1.726 . S
C620 C69 1.787 . S
C631 C9 1.815 . S
C636 C221 1.777 1_545 S
C647 C108 1.779 . S
C652 C242 1.742 . S
C663 C262 1.733 1_545 S
C668 C128 1.777 . S
C679 C148 1.793 . S
C684 C282 1.768 . S
C695 C302 1.751 1_565 S
C700 C88 1.783 . S
C711 C18 2.374 . S
C716 C218 2.398 . S
C727 C38 2.378 . S
C732 C238 2.400 . S
C743 C178 2.392 . S
C748 C58 2.378 . S
C759 C78 2.389 . S
C764 C198 2.392 . S
C775 C99 2.394 . S
C780 C299 2.377 . S
C791 C119 2.401 . S
C796 C319 2.376 . S
C807 C259 2.401 . S
C812 C139 2.377 . S
C823 C159 2.388 . S
C828 C279 2.382 . S
C839 C8 1.383 . S
C844 C158 1.566 . S
C855 C258 1.592 . S
C860 C28 1.442 . S
C871 C48 1.373 . S
C876 C118 1.569 . S
C887 C68 1.442 1_455 S
C892 C298 1.592 . S
C903 C89 1.348 . S
C908 C79 1.553 . S
C919 C179 1.554 . S
C924 C109 1.351 . S
C935 C129 1.449 . S
C940 C39 1.596 . S
C951 C219 1.547 . S
C956 C149 1.329 1_655 S
C967 C168 1.443 . S
C972 C318 1.593 . S
C983 C98 1.590 . S
C988 C188 1.439 1_655 S
C999 C278 1.572 . S
C1004 C208 1.381 . S
C1015 C228 1.340 . S
C1020 C138 1.550 . S
C1031 C249 1.378 . S
C1036 C239 1.564 . S
C1047 C269 1.384 1_455 S
C1052 C19 1.573 . S
C1063 C199 1.561 . S
C1068 C289 1.370 . S
C1079 C59 1.553 . S
C1084 C309 1.349 . S
