# Generated by pormake.
# Topology smk, (6)-cn, num edge types: 1
# Building blocks:
#     Node 0, Type 0, BuildingBlock: OJICUG_clean_sbu_0, # of connection points: 6
#     Node 1, Type 0, BuildingBlock: OJICUG_clean_sbu_0, # of connection points: 6
#     Node 2, Type 0, BuildingBlock: OJICUG_clean_sbu_0, # of connection points: 6
#     Node 3, Type 0, BuildingBlock: OJICUG_clean_sbu_0, # of connection points: 6
#     Node 4, Type 0, BuildingBlock: OJICUG_clean_sbu_0, # of connection points: 6
#     Node 5, Type 0, BuildingBlock: OJICUG_clean_sbu_0, # of connection points: 6
#     Edge 6, Type (0, 0), BuildingBlock: EZIPEK_clean_linker_0, # of connection points: 2
#     Edge 7, Type (0, 0), BuildingBlock: EZIPEK_clean_linker_0, # of connection points: 2
#     Edge 8, Type (0, 0), BuildingBlock: EZIPEK_clean_linker_0, # of connection points: 2
#     Edge 9, Type (0, 0), BuildingBlock: EZIPEK_clean_linker_0, # of connection points: 2
#     Edge 10, Type (0, 0), BuildingBlock: EZIPEK_clean_linker_0, # of connection points: 2
#     Edge 11, Type (0, 0), BuildingBlock: EZIPEK_clean_linker_0, # of connection points: 2
#     Edge 12, Type (0, 0), BuildingBlock: EZIPEK_clean_linker_0, # of connection points: 2
#     Edge 13, Type (0, 0), BuildingBlock: EZIPEK_clean_linker_0, # of connection points: 2
#     Edge 14, Type (0, 0), BuildingBlock: EZIPEK_clean_linker_0, # of connection points: 2
#     Edge 15, Type (0, 0), BuildingBlock: EZIPEK_clean_linker_0, # of connection points: 2
#     Edge 16, Type (0, 0), BuildingBlock: EZIPEK_clean_linker_0, # of connection points: 2
#     Edge 17, Type (0, 0), BuildingBlock: EZIPEK_clean_linker_0, # of connection points: 2
#     Edge 18, Type (0, 0), BuildingBlock: EZIPEK_clean_linker_0, # of connection points: 2
#     Edge 19, Type (0, 0), BuildingBlock: EZIPEK_clean_linker_0, # of connection points: 2
#     Edge 20, Type (0, 0), BuildingBlock: EZIPEK_clean_linker_0, # of connection points: 2
#     Edge 21, Type (0, 0), BuildingBlock: EZIPEK_clean_linker_0, # of connection points: 2
#     Edge 22, Type (0, 0), BuildingBlock: EZIPEK_clean_linker_0, # of connection points: 2
#     Edge 23, Type (0, 0), BuildingBlock: EZIPEK_clean_linker_0, # of connection points: 2
# Relax obj value: 0.194
# Max RMSD: 0.221
# Mean RMSD: 0.221
data_MOF--net-smk--node1-OJICUG_clean_sbu_0--edge1-EZIPEK_clean_linker_0
_symmetry_space_group_name_H-M    P1
_symmetry_Int_Tables_number       1
_symmetry_cell_setting            triclinic
loop_
_symmetry_equiv_pos_as_xyz
'x, y, z'
_cell_length_a     33.265739
_cell_length_b     33.144488
_cell_length_c     11.872557
_cell_angle_alpha  90.009646
_cell_angle_beta   89.978003
_cell_angle_gamma 119.90653
loop_
_atom_site_label
_atom_site_type_symbol
_atom_site_fract_x
_atom_site_fract_y
_atom_site_fract_z
_atom_type_partial_charge
Sc0 Sc 0.45327 0.19903 0.46805 0.0
Sc1 Sc 0.3465 0.18066 0.57733 0.0
Sc2 Sc 0.4525 0.26173 0.70509 0.0
O3 O 0.41731 0.2138 0.58339 0.0
C4 C 0.51226 0.21133 0.68899 0.0
C5 C 0.36634 0.09859 0.52429 0.0
C6 C 0.36385 0.18998 0.8434 0.0
C7 C 0.37186 0.19018 0.31338 0.0
C8 C 0.51947 0.30792 0.49563 0.0
C9 C 0.3735 0.28487 0.63663 0.0
O10 O 0.4995 0.19673 0.58946 0.0
O11 O 0.3407 0.11336 0.56492 0.0
O12 O 0.40613 0.22088 0.83542 0.0
O13 O 0.41351 0.20046 0.32944 0.0
O14 O 0.50443 0.30961 0.59249 0.0
O15 O 0.34643 0.24547 0.5919 0.0
O16 O 0.50298 0.27109 0.43651 0.0
O17 O 0.34341 0.18245 0.39361 0.0
O18 O 0.41307 0.29609 0.67738 0.0
O19 O 0.40719 0.12496 0.48692 0.0
O20 O 0.49587 0.23243 0.74568 0.0
O21 O 0.3376 0.17144 0.75873 0.0
Sc22 Sc 0.24886 0.4596 0.63603 0.0
Sc23 Sc 0.16983 0.35332 0.76357 0.0
Sc24 Sc 0.17917 0.45654 0.85798 0.0
O25 O 0.19944 0.42308 0.75109 0.0
C26 C 0.28711 0.5204 0.85931 0.0
C27 C 0.27407 0.38259 0.69774 0.0
C28 C 0.17265 0.37736 0.01834 0.0
C29 C 0.17623 0.36972 0.49851 0.0
C30 C 0.20458 0.52276 0.6458 0.0
C31 C 0.08465 0.3723 0.8006 0.0
O32 O 0.29004 0.51188 0.75628 0.0
O33 O 0.23315 0.35302 0.7282 0.0
O34 O 0.16011 0.40603 0.98875 0.0
O35 O 0.21158 0.41 0.50849 0.0
O36 O 0.19289 0.51229 0.74733 0.0
O37 O 0.10245 0.34593 0.79932 0.0
O38 O 0.21746 0.50013 0.58343 0.0
O39 O 0.1532 0.34469 0.58275 0.0
O40 O 0.10885 0.4166 0.79914 0.0
O41 O 0.28676 0.42441 0.67212 0.0
O42 O 0.25008 0.4984 0.91814 0.0
O43 O 0.18568 0.35804 0.9451 0.0
Sc44 Sc 0.78759 0.25423 0.80715 0.0
Sc45 Sc 0.80363 0.1653 0.91785 0.0
Sc46 Sc 0.7231 0.19183 0.0398 0.0
O47 O 0.77133 0.2035 0.92137 0.0
C48 C 0.77669 0.30362 0.0162 0.0
C49 C 0.88667 0.26419 0.86259 0.0
C50 C 0.79389 0.17772 0.18288 0.0
C51 C 0.79325 0.18137 0.65334 0.0
C52 C 0.67698 0.20971 0.83401 0.0
C53 C 0.70241 0.08848 0.98108 0.0
O54 O 0.80091 0.30469 0.93308 0.0
O55 O 0.87129 0.22633 0.91707 0.0
O56 O 0.76868 0.19626 0.17147 0.0
O57 O 0.77756 0.2088 0.66962 0.0
O58 O 0.67306 0.18487 0.91868 0.0
O59 O 0.73856 0.10097 0.92124 0.0
O60 O 0.71591 0.23873 0.79033 0.0
O61 O 0.8059 0.16441 0.73336 0.0
O62 O 0.69386 0.11723 0.0317 0.0
O63 O 0.86073 0.27668 0.81321 0.0
O64 O 0.74536 0.26574 0.06025 0.0
O65 O 0.80719 0.16256 0.10062 0.0
Sc66 Sc 0.52475 0.78876 0.96879 0.0
Sc67 Sc 0.62974 0.81178 0.0948 0.0
Sc68 Sc 0.52587 0.71968 0.18802 0.0
O69 O 0.56017 0.7736 0.0823 0.0
C70 C 0.46437 0.76638 0.19256 0.0
C71 C 0.60353 0.88985 0.03313 0.0
C72 C 0.6055 0.79029 0.34927 0.0
C73 C 0.61325 0.80321 0.82988 0.0
C74 C 0.45969 0.68143 0.9754 0.0
C75 C 0.6077 0.70603 0.12914 0.0
O76 O 0.47293 0.77827 0.08976 0.0
O77 O 0.63223 0.87695 0.06147 0.0
O78 O 0.57653 0.7493 0.31906 0.0
O79 O 0.57385 0.80023 0.84037 0.0
O80 O 0.4699 0.6794 0.07676 0.0
O81 O 0.63497 0.75007 0.129 0.0
O82 O 0.48276 0.71718 0.91404 0.0
O83 O 0.63769 0.80364 0.91373 0.0
O84 O 0.56371 0.68733 0.12678 0.0
O85 O 0.56154 0.86181 0.00777 0.0
O86 O 0.48607 0.75068 0.25038 0.0
O87 O 0.62526 0.82272 0.27648 0.0
Sc88 Sc 0.73428 0.53094 0.14541 0.0
Sc89 Sc 0.81721 0.64007 0.25491 0.0
Sc90 Sc 0.79846 0.53623 0.38398 0.0
O91 O 0.78323 0.56918 0.26157 0.0
C92 C 0.68881 0.47108 0.36358 0.0
C93 C 0.71498 0.61529 0.19824 0.0
C94 C 0.80782 0.62145 0.5216 0.0
C95 C 0.80293 0.61359 0.99073 0.0
C96 C 0.78781 0.473 0.174 0.0
C97 C 0.89821 0.62054 0.316 0.0
O98 O 0.68564 0.48644 0.26837 0.0
O99 O 0.75337 0.64135 0.24742 0.0
O100 O 0.79489 0.57858 0.51346 0.0
O101 O 0.77617 0.57043 0.00673 0.0
O102 O 0.80467 0.49072 0.26856 0.0
O103 O 0.88382 0.64419 0.2624 0.0
O104 O 0.75991 0.48245 0.12202 0.0
O105 O 0.8198 0.64298 0.07095 0.0
O106 O 0.87161 0.58241 0.36569 0.0
O107 O 0.70401 0.57574 0.1558 0.0
O108 O 0.72691 0.48506 0.41546 0.0
O109 O 0.81852 0.64857 0.43718 0.0
Sc110 Sc 0.19435 0.73128 0.30145 0.0
Sc111 Sc 0.17525 0.81983 0.39746 0.0
Sc112 Sc 0.26222 0.804 0.51872 0.0
O113 O 0.21065 0.78504 0.40581 0.0
C114 C 0.21679 0.69564 0.52799 0.0
C115 C 0.09593 0.71494 0.35139 0.0
C116 C 0.18642 0.81499 0.65889 0.0
C117 C 0.18432 0.80315 0.14023 0.0
C118 C 0.30202 0.77537 0.30909 0.0
C119 C 0.27858 0.90122 0.45293 0.0
O120 O 0.20495 0.69145 0.42556 0.0
O121 O 0.11036 0.75826 0.35923 0.0
O122 O 0.2266 0.8203 0.64439 0.0
O123 O 0.18037 0.76411 0.16519 0.0
O124 O 0.30427 0.78987 0.40879 0.0
O125 O 0.23548 0.88555 0.43711 0.0
O126 O 0.26575 0.75974 0.24814 0.0
O127 O 0.18984 0.83298 0.21597 0.0
O128 O 0.2963 0.87516 0.46268 0.0
O129 O 0.12249 0.69776 0.34658 0.0
O130 O 0.23261 0.73361 0.58296 0.0
O131 O 0.15852 0.80782 0.57743 0.0
C132 C 0.36379 0.14725 0.13379 0.0
C133 C 0.35529 0.1794 0.19484 0.0
C134 C 0.32852 0.19802 0.02046 0.0
C135 C 0.34666 0.17417 0.95874 0.0
N136 N 0.37716 0.12222 0.95216 0.0
N137 N 0.32833 0.23484 0.19715 0.0
C138 C 0.36187 0.14664 0.01446 0.0
C139 C 0.33606 0.20377 0.13902 0.0
N140 N 0.37414 0.1176 0.19007 0.0
N141 N 0.3048 0.21562 0.96463 0.0
H142 H 0.33359 0.24003 0.28369 0.0
H143 H 0.31935 0.25748 0.15882 0.0
H144 H 0.2992 0.21143 0.87782 0.0
H145 H 0.28739 0.23037 0.00477 0.0
H146 H 0.37562 0.09008 0.15201 0.0
H147 H 0.37771 0.11801 0.27711 0.0
H148 H 0.39489 0.10651 0.98562 0.0
H149 H 0.37337 0.11913 0.86474 0.0
C150 C 0.15549 0.39317 0.32486 0.0
C151 C 0.15913 0.35786 0.38106 0.0
C152 C 0.16413 0.32712 0.19569 0.0
C153 C 0.17165 0.3693 0.14372 0.0
N154 N 0.19461 0.45015 0.18214 0.0
N155 N 0.17114 0.29216 0.3699 0.0
C156 C 0.17277 0.40457 0.21478 0.0
C157 C 0.16437 0.32469 0.31653 0.0
N158 N 0.14049 0.41918 0.38082 0.0
N159 N 0.15559 0.28932 0.13244 0.0
H160 H 0.17003 0.28906 0.45749 0.0
H161 H 0.18023 0.27037 0.32727 0.0
H162 H 0.15307 0.28855 0.04511 0.0
H163 H 0.1465 0.25715 0.16814 0.0
H164 H 0.13609 0.44472 0.34059 0.0
H165 H 0.12843 0.41168 0.46375 0.0
H166 H 0.19802 0.47677 0.23524 0.0
H167 H 0.21533 0.46192 0.11036 0.0
C168 C 0.7872 0.13305 0.35845 0.0
C169 C 0.80902 0.17577 0.29868 0.0
C170 C 0.83605 0.21803 0.4757 0.0
C171 C 0.80479 0.17678 0.53492 0.0
N172 N 0.75178 0.09407 0.5344 0.0
N173 N 0.85869 0.25877 0.29694 0.0
C174 C 0.7815 0.13367 0.47728 0.0
C175 C 0.83559 0.21816 0.35654 0.0
N176 N 0.77186 0.09222 0.30151 0.0
N177 N 0.86634 0.25697 0.53382 0.0
H178 H 0.86153 0.25932 0.20927 0.0
H179 H 0.8734 0.29168 0.33336 0.0
H180 H 0.86772 0.25766 0.62106 0.0
H181 H 0.89296 0.28673 0.49636 0.0
H182 H 0.75904 0.0601 0.34119 0.0
H183 H 0.77605 0.09118 0.21471 0.0
H184 H 0.72968 0.06259 0.49488 0.0
H185 H 0.74737 0.09341 0.6215 0.0
C186 C 0.65578 0.8312 0.52641 0.0
C187 C 0.61343 0.79721 0.47469 0.0
C188 C 0.58846 0.75831 0.65701 0.0
C189 C 0.6243 0.79698 0.71236 0.0
N190 N 0.69123 0.87354 0.69971 0.0
N191 N 0.53241 0.74092 0.51258 0.0
C192 C 0.65811 0.83448 0.64714 0.0
C193 C 0.57773 0.76395 0.546 0.0
N194 N 0.69387 0.85914 0.463 0.0
N195 N 0.56164 0.71784 0.71422 0.0
H196 H 0.52119 0.74991 0.4399 0.0
H197 H 0.50549 0.71844 0.56567 0.0
H198 H 0.56871 0.71341 0.79763 0.0
H199 H 0.53581 0.688 0.67469 0.0
H200 H 0.72608 0.88165 0.49862 0.0
H201 H 0.69476 0.85664 0.37584 0.0
H202 H 0.71364 0.90394 0.65636 0.0
H203 H 0.69424 0.87591 0.7873 0.0
C204 C 0.76557 0.61994 0.69387 0.0
C205 C 0.80831 0.63854 0.6367 0.0
C206 C 0.84999 0.65276 0.81565 0.0
C207 C 0.80674 0.62997 0.87252 0.0
N208 N 0.72494 0.60526 0.87096 0.0
N209 N 0.89101 0.6875 0.6409 0.0
C210 C 0.76504 0.6182 0.81311 0.0
C211 C 0.85058 0.6603 0.69729 0.0
N212 N 0.72535 0.60153 0.633 0.0
N213 N 0.88991 0.6642 0.87277 0.0
H214 H 0.89162 0.6934 0.5544 0.0
H215 H 0.92288 0.70734 0.68062 0.0
H216 H 0.89062 0.6593 0.95934 0.0
H217 H 0.92187 0.67604 0.83361 0.0
H218 H 0.69245 0.58142 0.66764 0.0
H219 H 0.72526 0.6052 0.54562 0.0
H220 H 0.69467 0.60093 0.83401 0.0
H221 H 0.72302 0.60279 0.95815 0.0
C222 C 0.16483 0.83698 0.96362 0.0
C223 C 0.18434 0.81168 0.01566 0.0
C224 C 0.18021 0.77514 0.83509 0.0
C225 C 0.17111 0.80694 0.7784 0.0
N226 N 0.15845 0.87225 0.78898 0.0
N227 N 0.22941 0.77368 0.97937 0.0
C228 C 0.16426 0.83918 0.84263 0.0
C229 C 0.19765 0.78572 0.94488 0.0
N230 N 0.14578 0.85747 0.02702 0.0
N231 N 0.17556 0.73674 0.78105 0.0
H232 H 0.24832 0.78661 0.05363 0.0
H233 H 0.24129 0.75663 0.92665 0.0
H234 H 0.16164 0.72796 0.69997 0.0
H235 H 0.18085 0.71186 0.8218 0.0
H236 H 0.12788 0.87271 0.99157 0.0
H237 H 0.14433 0.85591 0.1145 0.0
H238 H 0.15802 0.89958 0.83137 0.0
H239 H 0.15651 0.87329 0.70136 0.0
C240 C 0.31572 0.02701 0.41376 0.0
C241 C 0.34555 0.04804 0.5071 0.0
C242 C 0.33382 0.97211 0.5655 0.0
C243 C 0.30793 0.95221 0.46513 0.0
N244 N 0.28538 0.96363 0.28021 0.0
N245 N 0.38763 0.04243 0.66564 0.0
C246 C 0.30254 0.9807 0.38488 0.0
C247 C 0.35654 0.02121 0.58031 0.0
N248 N 0.29829 0.05037 0.35518 0.0
N249 N 0.33391 0.94424 0.6503 0.0
H250 H 0.4018 0.07769 0.68436 0.0
H251 H 0.40122 0.02567 0.71339 0.0
H252 H 0.3168 0.90809 0.64551 0.0
H253 H 0.34774 0.95675 0.72981 0.0
H254 H 0.27278 0.03464 0.29358 0.0
H255 H 0.30609 0.08415 0.37477 0.0
H256 H 0.28465 0.98435 0.21511 0.0
H257 H 0.27676 0.93008 0.25507 0.0
C258 C 0.34991 0.33086 0.76123 0.0
C259 C 0.35595 0.31766 0.65097 0.0
C260 C 0.31286 0.35258 0.57003 0.0
C261 C 0.30697 0.36574 0.67996 0.0
N262 N 0.3286 0.3781 0.87537 0.0
N263 N 0.35421 0.32621 0.44995 0.0
C264 C 0.32859 0.35852 0.774 0.0
C265 C 0.34088 0.33184 0.55505 0.0
N266 N 0.36155 0.3145 0.85416 0.0
N267 N 0.29001 0.35802 0.48078 0.0
H268 H 0.37552 0.31186 0.43679 0.0
H269 H 0.34797 0.33969 0.37706 0.0
H270 H 0.27029 0.3744 0.48755 0.0
H271 H 0.28818 0.34378 0.40147 0.0
H272 H 0.35295 0.31857 0.93606 0.0
H273 H 0.37656 0.29349 0.85036 0.0
H274 H 0.34801 0.37843 0.94451 0.0
H275 H 0.31237 0.39781 0.8873 0.0
C276 C 0.96329 0.333 0.91462 0.0
C277 C 0.93723 0.29321 0.84643 0.0
C278 C 0.00609 0.31326 0.73301 0.0
C279 C 0.03351 0.34931 0.80997 0.0
N280 N 0.03916 0.38872 0.98606 0.0
N281 N 0.93511 0.24053 0.70286 0.0
C282 C 0.01241 0.35835 0.90364 0.0
C283 C 0.95898 0.28187 0.75906 0.0
N284 N 0.94118 0.34638 0.99026 0.0
N285 N 0.02482 0.30985 0.63339 0.0
H286 H 0.90052 0.21635 0.71966 0.0
H287 H 0.95071 0.22843 0.64649 0.0
H288 H 0.05893 0.33333 0.61 0.0
H289 H 0.00529 0.28701 0.56923 0.0
H290 H 0.95779 0.37796 0.03332 0.0
H291 H 0.90544 0.32746 0.00388 0.0
H292 H 0.02572 0.3925 0.06203 0.0
H293 H 0.07525 0.4073 0.98364 0.0
C294 C 0.62909 0.96834 0.11474 0.0
C295 C 0.62139 0.94016 0.01884 0.0
C296 C 0.65434 0.00915 0.89772 0.0
C297 C 0.6696 0.03783 0.99491 0.0
N298 N 0.67341 0.04447 0.19886 0.0
N299 N 0.62859 0.9328 0.81857 0.0
C300 C 0.65684 0.01749 0.10441 0.0
C301 C 0.63411 0.96023 0.90991 0.0
N302 N 0.60967 0.94797 0.21555 0.0
N303 N 0.65796 0.02867 0.79405 0.0
H304 H 0.61276 0.89665 0.82332 0.0
H305 H 0.64252 0.94608 0.73955 0.0
H306 H 0.67103 0.06429 0.78277 0.0
H307 H 0.6436 0.00924 0.72117 0.0
H308 H 0.60958 0.96658 0.28613 0.0
H309 H 0.58981 0.91196 0.22566 0.0
H310 H 0.66975 0.03087 0.27967 0.0
H311 H 0.6941 0.08049 0.19746 0.0
C312 C 0.64366 0.62051 0.24049 0.0
C313 C 0.6844 0.63492 0.17593 0.0
C314 C 0.66552 0.68478 0.06202 0.0
C315 C 0.62921 0.67631 0.13749 0.0
N316 N 0.58759 0.64074 0.30994 0.0
N317 N 0.73845 0.68691 0.03624 0.0
C318 C 0.61875 0.6449 0.22918 0.0
C319 C 0.69657 0.66876 0.08963 0.0
N320 N 0.62922 0.58411 0.31375 0.0
N321 N 0.66972 0.70737 0.9626 0.0
H322 H 0.7625 0.67634 0.05329 0.0
H323 H 0.75092 0.71521 0.98154 0.0
H324 H 0.64652 0.71831 0.93826 0.0
H325 H 0.69289 0.71061 0.89938 0.0
H326 H 0.5972 0.56884 0.35437 0.0
H327 H 0.6478 0.56685 0.32699 0.0
H328 H 0.58273 0.62248 0.38479 0.0
H329 H 0.56935 0.6587 0.30755 0.0
C330 C 0.97561 0.64996 0.22511 0.0
C331 C 0.94869 0.63912 0.32476 0.0
C332 C 0.01878 0.66646 0.43969 0.0
C333 C 0.04573 0.68377 0.34096 0.0
N334 N 0.05147 0.69447 0.13943 0.0
N335 N 0.94449 0.64024 0.52854 0.0
C336 C 0.02464 0.67594 0.23334 0.0
C337 C 0.97009 0.64754 0.43274 0.0
N338 N 0.95429 0.63408 0.12324 0.0
N339 N 0.03987 0.6683 0.53995 0.0
H340 H 0.90878 0.62684 0.52857 0.0
H341 H 0.95905 0.65098 0.60819 0.0
H342 H 0.07571 0.68289 0.54775 0.0
H343 H 0.02179 0.65181 0.61299 0.0
H344 H 0.97212 0.63707 0.04879 0.0
H345 H 0.91837 0.61384 0.11463 0.0
H346 H 0.03808 0.69505 0.06057 0.0
H347 H 0.0876 0.71171 0.14153 0.0
C348 C 0.56409 0.39299 0.45078 0.0
C349 C 0.56243 0.34947 0.45833 0.0
C350 C 0.64409 0.38606 0.40418 0.0
C351 C 0.64678 0.43013 0.40646 0.0
N352 N 0.61252 0.47707 0.45258 0.0
N353 N 0.6039 0.30677 0.47049 0.0
C354 C 0.60763 0.43407 0.43583 0.0
C355 C 0.60325 0.34651 0.44293 0.0
N356 N 0.52397 0.39485 0.45462 0.0
N357 N 0.67969 0.38144 0.36072 0.0
H358 H 0.57521 0.27694 0.50167 0.0
H359 H 0.63428 0.30495 0.47321 0.0
H360 H 0.71053 0.40938 0.33113 0.0
H361 H 0.67697 0.34924 0.34488 0.0
H362 H 0.52258 0.42503 0.43887 0.0
H363 H 0.49138 0.36522 0.46346 0.0
H364 H 0.58618 0.48228 0.48368 0.0
H365 H 0.64454 0.50758 0.446 0.0
C366 C 0.25174 0.60683 0.59541 0.0
C367 C 0.20735 0.56628 0.60624 0.0
C368 C 0.16954 0.61337 0.58856 0.0
C369 C 0.21385 0.65381 0.57919 0.0
N370 N 0.29714 0.69128 0.58843 0.0
N371 N 0.12424 0.53001 0.62115 0.0
C372 C 0.25499 0.65118 0.58758 0.0
C373 C 0.16628 0.56936 0.60521 0.0
N374 N 0.29074 0.60282 0.59167 0.0
N375 N 0.13067 0.61734 0.57852 0.0
H376 H 0.12034 0.49677 0.62412 0.0
H377 H 0.09331 0.52994 0.63444 0.0
H378 H 0.13214 0.64952 0.57478 0.0
H379 H 0.09715 0.5893 0.57114 0.0
H380 H 0.32367 0.63 0.57219 0.0
H381 H 0.29024 0.57136 0.60074 0.0
H382 H 0.3285 0.6927 0.60501 0.0
H383 H 0.30082 0.72427 0.58088 0.0
C384 C 0.6297 0.24869 0.81952 0.0
C385 C 0.63458 0.20945 0.79677 0.0
C386 C 0.5548 0.16771 0.72674 0.0
C387 C 0.55298 0.20962 0.73318 0.0
N388 N 0.59526 0.29359 0.7578 0.0
N389 N 0.60357 0.13246 0.71884 0.0
C390 C 0.59219 0.25119 0.77187 0.0
C391 C 0.59758 0.16906 0.74748 0.0
N392 N 0.65945 0.28261 0.8914 0.0
N393 N 0.51542 0.12653 0.70466 0.0
H394 H 0.63447 0.1324 0.73358 0.0
H395 H 0.5794 0.10397 0.67246 0.0
H396 H 0.48332 0.12424 0.69292 0.0
H397 H 0.51367 0.09431 0.70906 0.0
H398 H 0.65463 0.30989 0.91806 0.0
H399 H 0.68542 0.28029 0.93474 0.0
H400 H 0.62545 0.32482 0.77545 0.0
H401 H 0.57027 0.29825 0.71654 0.0
C402 C 0.41378 0.5969 0.9303 0.0
C403 C 0.41646 0.64099 0.93423 0.0
C404 C 0.33176 0.60368 0.91613 0.0
C405 C 0.32941 0.55986 0.9069 0.0
N406 N 0.36647 0.5134 0.90168 0.0
N407 N 0.37964 0.68789 0.92425 0.0
C408 C 0.37003 0.55613 0.91374 0.0
C409 C 0.37586 0.64482 0.92502 0.0
N410 N 0.45328 0.59429 0.9439 0.0
N411 N 0.29163 0.60569 0.91662 0.0
H412 H 0.41102 0.71875 0.93361 0.0
H413 H 0.35242 0.69393 0.90763 0.0
H414 H 0.25888 0.57638 0.90828 0.0
H415 H 0.28988 0.63561 0.93254 0.0
H416 H 0.45374 0.56342 0.95524 0.0
H417 H 0.48628 0.6237 0.94681 0.0
H418 H 0.39457 0.50809 0.89231 0.0
H419 H 0.33458 0.48261 0.89816 0.0
C420 C 0.8101 0.41003 0.1994 0.0
C421 C 0.79719 0.43626 0.12779 0.0
C422 C 0.77859 0.37906 0.97755 0.0
C423 C 0.78357 0.34907 0.05564 0.0
N424 N 0.80344 0.3354 0.24172 0.0
N425 N 0.79387 0.45706 0.93575 0.0
C426 C 0.79893 0.3643 0.167 0.0
C427 C 0.78851 0.42403 0.01269 0.0
N428 N 0.83783 0.43042 0.29099 0.0
N429 N 0.76224 0.3639 0.87114 0.0
H430 H 0.80619 0.49171 0.95833 0.0
H431 H 0.79244 0.4521 0.84895 0.0
H432 H 0.75492 0.33164 0.83963 0.0
H433 H 0.75193 0.38162 0.81652 0.0
H434 H 0.85046 0.41374 0.3422 0.0
H435 H 0.85545 0.46622 0.30434 0.0
H436 H 0.80826 0.3421 0.32784 0.0
H437 H 0.79949 0.30321 0.21927 0.0
C438 C 0.42735 0.8128 0.24523 0.0
C439 C 0.42481 0.7688 0.24083 0.0
C440 C 0.34034 0.72893 0.26482 0.0
C441 C 0.34292 0.77304 0.26996 0.0
N442 N 0.38755 0.85681 0.27202 0.0
N443 N 0.38111 0.68519 0.25766 0.0
C444 C 0.38616 0.81498 0.26212 0.0
C445 C 0.38191 0.72689 0.25444 0.0
N446 N 0.46935 0.85237 0.23076 0.0
N447 N 0.29805 0.68902 0.26933 0.0
H448 H 0.41053 0.6821 0.24721 0.0
H449 H 0.35211 0.65351 0.27777 0.0
H450 H 0.26695 0.68874 0.28162 0.0
H451 H 0.29276 0.6558 0.2549 0.0
H452 H 0.47379 0.88548 0.21995 0.0
H453 H 0.50049 0.85195 0.2272 0.0
H454 H 0.41785 0.88874 0.27986 0.0
H455 H 0.35771 0.85967 0.27511 0.0
loop_
_geom_bond_atom_site_label_1
_geom_bond_atom_site_label_2
_geom_bond_distance
_geom_bond_site_symmetry_2
_ccdc_geom_bond_type
Sc0 O3 2.025 . S
Sc0 O10 2.105 . S
Sc0 O13 2.105 . S
Sc0 O16 2.105 . S
Sc0 O19 2.105 . S
Sc1 O3 2.025 . S
Sc1 O11 2.105 . S
Sc1 O15 2.105 . S
Sc1 O17 2.105 . S
Sc1 O21 2.105 . S
Sc2 O3 2.025 . S
Sc2 O12 2.105 . S
Sc2 O14 2.105 . S
Sc2 O18 2.105 . S
Sc2 O20 2.105 . S
O3 Sc0 2.025 . S
O3 Sc1 2.025 . S
O3 Sc2 2.025 . S
C4 O10 1.268 . S
C4 O20 1.268 . S
C5 O11 1.268 . S
C5 O19 1.268 . S
C6 O12 1.268 . S
C6 O21 1.268 . S
C7 O13 1.268 . S
C7 O17 1.268 . S
C8 O14 1.268 . S
C8 O16 1.268 . S
C9 O15 1.268 . S
C9 O18 1.268 . S
O10 Sc0 2.105 . S
O10 C4 1.268 . S
O11 Sc1 2.105 . S
O11 C5 1.268 . S
O12 Sc2 2.105 . S
O12 C6 1.268 . S
O13 Sc0 2.105 . S
O13 C7 1.268 . S
O14 Sc2 2.105 . S
O14 C8 1.268 . S
O15 Sc1 2.105 . S
O15 C9 1.268 . S
O16 Sc0 2.105 . S
O16 C8 1.268 . S
O17 Sc1 2.105 . S
O17 C7 1.268 . S
O18 Sc2 2.105 . S
O18 C9 1.268 . S
O19 Sc0 2.105 . S
O19 C5 1.268 . S
O20 Sc2 2.105 . S
O20 C4 1.268 . S
O21 Sc1 2.105 . S
O21 C6 1.268 . S
Sc22 O25 2.025 . S
Sc22 O32 2.105 . S
Sc22 O35 2.105 . S
Sc22 O38 2.105 . S
Sc22 O41 2.105 . S
Sc23 O25 2.025 . S
Sc23 O33 2.105 . S
Sc23 O37 2.105 . S
Sc23 O39 2.105 . S
Sc23 O43 2.105 . S
Sc24 O25 2.025 . S
Sc24 O34 2.105 . S
Sc24 O36 2.105 . S
Sc24 O40 2.105 . S
Sc24 O42 2.105 . S
O25 Sc22 2.025 . S
O25 Sc23 2.025 . S
O25 Sc24 2.025 . S
C26 O32 1.268 . S
C26 O42 1.268 . S
C27 O33 1.268 . S
C27 O41 1.268 . S
C28 O34 1.268 1_554 S
C28 O43 1.268 1_554 S
C29 O35 1.268 . S
C29 O39 1.268 . S
C30 O36 1.268 . S
C30 O38 1.268 . S
C31 O37 1.268 . S
C31 O40 1.268 . S
O32 Sc22 2.105 . S
O32 C26 1.268 . S
O33 Sc23 2.105 . S
O33 C27 1.268 . S
O34 Sc24 2.105 . S
O34 C28 1.268 1_556 S
O35 Sc22 2.105 . S
O35 C29 1.268 . S
O36 Sc24 2.105 . S
O36 C30 1.268 . S
O37 Sc23 2.105 . S
O37 C31 1.268 . S
O38 Sc22 2.105 . S
O38 C30 1.268 . S
O39 Sc23 2.105 . S
O39 C29 1.268 . S
O40 Sc24 2.105 . S
O40 C31 1.268 . S
O41 Sc22 2.105 . S
O41 C27 1.268 . S
O42 Sc24 2.105 . S
O42 C26 1.268 . S
O43 Sc23 2.105 . S
O43 C28 1.268 1_556 S
Sc44 O47 2.025 . S
Sc44 O54 2.105 . S
Sc44 O57 2.105 . S
Sc44 O60 2.105 . S
Sc44 O63 2.105 . S
Sc45 O47 2.025 . S
Sc45 O55 2.105 . S
Sc45 O59 2.105 . S
Sc45 O61 2.105 . S
Sc45 O65 2.105 1_556 S
Sc46 O47 2.025 1_554 S
Sc46 O56 2.105 . S
Sc46 O58 2.105 1_554 S
Sc46 O62 2.105 . S
Sc46 O64 2.105 . S
O47 Sc44 2.025 . S
O47 Sc45 2.025 . S
O47 Sc46 2.025 1_556 S
C48 O54 1.268 1_554 S
C48 O64 1.268 . S
C49 O55 1.268 . S
C49 O63 1.268 . S
C50 O56 1.268 . S
C50 O65 1.268 . S
C51 O57 1.268 . S
C51 O61 1.268 . S
C52 O58 1.268 . S
C52 O60 1.268 . S
C53 O59 1.268 . S
C53 O62 1.268 1_556 S
O54 Sc44 2.105 . S
O54 C48 1.268 1_556 S
O55 Sc45 2.105 . S
O55 C49 1.268 . S
O56 Sc46 2.105 . S
O56 C50 1.268 . S
O57 Sc44 2.105 . S
O57 C51 1.268 . S
O58 Sc46 2.105 1_556 S
O58 C52 1.268 . S
O59 Sc45 2.105 . S
O59 C53 1.268 . S
O60 Sc44 2.105 . S
O60 C52 1.268 . S
O61 Sc45 2.105 . S
O61 C51 1.268 . S
O62 Sc46 2.105 . S
O62 C53 1.268 1_554 S
O63 Sc44 2.105 . S
O63 C49 1.268 . S
O64 Sc46 2.105 . S
O64 C48 1.268 . S
O65 Sc45 2.105 1_554 S
O65 C50 1.268 . S
Sc66 O69 2.025 1_556 S
Sc66 O76 2.105 1_556 S
Sc66 O79 2.105 . S
Sc66 O82 2.105 . S
Sc66 O85 2.105 . S
Sc67 O69 2.025 . S
Sc67 O77 2.105 . S
Sc67 O81 2.105 . S
Sc67 O83 2.105 1_554 S
Sc67 O87 2.105 . S
Sc68 O69 2.025 . S
Sc68 O78 2.105 . S
Sc68 O80 2.105 . S
Sc68 O84 2.105 . S
Sc68 O86 2.105 . S
O69 Sc66 2.025 1_554 S
O69 Sc67 2.025 . S
O69 Sc68 2.025 . S
C70 O76 1.268 . S
C70 O86 1.268 . S
C71 O77 1.268 . S
C71 O85 1.268 1_554 S
C72 O78 1.268 . S
C72 O87 1.268 . S
C73 O79 1.268 . S
C73 O83 1.268 . S
C74 O80 1.268 1_556 S
C74 O82 1.268 . S
C75 O81 1.268 . S
C75 O84 1.268 . S
O76 Sc66 2.105 1_554 S
O76 C70 1.268 . S
O77 Sc67 2.105 . S
O77 C71 1.268 . S
O78 Sc68 2.105 . S
O78 C72 1.268 . S
O79 Sc66 2.105 . S
O79 C73 1.268 . S
O80 Sc68 2.105 . S
O80 C74 1.268 1_554 S
O81 Sc67 2.105 . S
O81 C75 1.268 . S
O82 Sc66 2.105 . S
O82 C74 1.268 . S
O83 Sc67 2.105 1_556 S
O83 C73 1.268 . S
O84 Sc68 2.105 . S
O84 C75 1.268 . S
O85 Sc66 2.105 . S
O85 C71 1.268 1_556 S
O86 Sc68 2.105 . S
O86 C70 1.268 . S
O87 Sc67 2.105 . S
O87 C72 1.268 . S
Sc88 O91 2.025 . S
Sc88 O98 2.105 . S
Sc88 O101 2.105 . S
Sc88 O104 2.105 . S
Sc88 O107 2.105 . S
Sc89 O91 2.025 . S
Sc89 O99 2.105 . S
Sc89 O103 2.105 . S
Sc89 O105 2.105 . S
Sc89 O109 2.105 . S
Sc90 O91 2.025 . S
Sc90 O100 2.105 . S
Sc90 O102 2.105 . S
Sc90 O106 2.105 . S
Sc90 O108 2.105 . S
O91 Sc88 2.025 . S
O91 Sc89 2.025 . S
O91 Sc90 2.025 . S
C92 O98 1.268 . S
C92 O108 1.268 . S
C93 O99 1.268 . S
C93 O107 1.268 . S
C94 O100 1.268 . S
C94 O109 1.268 . S
C95 O101 1.268 1_556 S
C95 O105 1.268 1_556 S
C96 O102 1.268 . S
C96 O104 1.268 . S
C97 O103 1.268 . S
C97 O106 1.268 . S
O98 Sc88 2.105 . S
O98 C92 1.268 . S
O99 Sc89 2.105 . S
O99 C93 1.268 . S
O100 Sc90 2.105 . S
O100 C94 1.268 . S
O101 Sc88 2.105 . S
O101 C95 1.268 1_554 S
O102 Sc90 2.105 . S
O102 C96 1.268 . S
O103 Sc89 2.105 . S
O103 C97 1.268 . S
O104 Sc88 2.105 . S
O104 C96 1.268 . S
O105 Sc89 2.105 . S
O105 C95 1.268 1_554 S
O106 Sc90 2.105 . S
O106 C97 1.268 . S
O107 Sc88 2.105 . S
O107 C93 1.268 . S
O108 Sc90 2.105 . S
O108 C92 1.268 . S
O109 Sc89 2.105 . S
O109 C94 1.268 . S
Sc110 O113 2.025 . S
Sc110 O120 2.105 . S
Sc110 O123 2.105 . S
Sc110 O126 2.105 . S
Sc110 O129 2.105 . S
Sc111 O113 2.025 . S
Sc111 O121 2.105 . S
Sc111 O125 2.105 . S
Sc111 O127 2.105 . S
Sc111 O131 2.105 . S
Sc112 O113 2.025 . S
Sc112 O122 2.105 . S
Sc112 O124 2.105 . S
Sc112 O128 2.105 . S
Sc112 O130 2.105 . S
O113 Sc110 2.025 . S
O113 Sc111 2.025 . S
O113 Sc112 2.025 . S
C114 O120 1.268 . S
C114 O130 1.268 . S
C115 O121 1.268 . S
C115 O129 1.268 . S
C116 O122 1.268 . S
C116 O131 1.268 . S
C117 O123 1.268 . S
C117 O127 1.268 . S
C118 O124 1.268 . S
C118 O126 1.268 . S
C119 O125 1.268 . S
C119 O128 1.268 . S
O120 Sc110 2.105 . S
O120 C114 1.268 . S
O121 Sc111 2.105 . S
O121 C115 1.268 . S
O122 Sc112 2.105 . S
O122 C116 1.268 . S
O123 Sc110 2.105 . S
O123 C117 1.268 . S
O124 Sc112 2.105 . S
O124 C118 1.268 . S
O125 Sc111 2.105 . S
O125 C119 1.268 . S
O126 Sc110 2.105 . S
O126 C118 1.268 . S
O127 Sc111 2.105 . S
O127 C117 1.268 . S
O128 Sc112 2.105 . S
O128 C119 1.268 . S
O129 Sc110 2.105 . S
O129 C115 1.268 . S
O130 Sc112 2.105 . S
O130 C114 1.268 . S
O131 Sc111 2.105 . S
O131 C116 1.268 . S
C132 C133 1.363 . S
C132 C138 1.379 . S
C132 N140 1.356 . S
C133 C132 1.363 . S
C133 C139 1.363 . S
C134 C135 1.363 1_554 S
C134 C139 1.379 . S
C134 N141 1.356 1_554 S
C135 C134 1.363 1_556 S
C135 C138 1.363 1_556 S
N136 C138 1.356 1_556 S
N136 H148 0.984 1_556 S
N136 H149 0.985 . S
N137 C139 1.356 . S
N137 H142 0.984 . S
N137 H143 0.985 . S
C138 C132 1.379 . S
C138 C135 1.363 1_554 S
C138 N136 1.356 1_554 S
C139 C133 1.363 . S
C139 C134 1.379 . S
C139 N137 1.356 . S
N140 C132 1.356 . S
N140 H146 0.984 . S
N140 H147 0.984 . S
N141 C134 1.356 1_556 S
N141 H144 0.984 . S
N141 H145 0.985 . S
H142 N137 0.984 . S
H143 N137 0.985 . S
H144 N141 0.984 . S
H145 N141 0.985 . S
H146 N140 0.984 . S
H147 N140 0.984 . S
H148 N136 0.984 1_554 S
H149 N136 0.985 . S
C150 C151 1.363 . S
C150 C156 1.379 . S
C150 N158 1.356 . S
C151 C150 1.363 . S
C151 C157 1.363 . S
C152 C153 1.363 . S
C152 C157 1.379 . S
C152 N159 1.356 . S
C153 C152 1.363 . S
C153 C156 1.363 . S
N154 C156 1.356 . S
N154 H166 0.984 . S
N154 H167 0.985 . S
N155 C157 1.356 . S
N155 H160 0.984 . S
N155 H161 0.985 . S
C156 C150 1.379 . S
C156 C153 1.363 . S
C156 N154 1.356 . S
C157 C151 1.363 . S
C157 C152 1.379 . S
C157 N155 1.356 . S
N158 C150 1.356 . S
N158 H164 0.984 . S
N158 H165 0.984 . S
N159 C152 1.356 . S
N159 H162 0.984 . S
N159 H163 0.985 . S
H160 N155 0.984 . S
H161 N155 0.985 . S
H162 N159 0.984 . S
H163 N159 0.985 . S
H164 N158 0.984 . S
H165 N158 0.984 . S
H166 N154 0.984 . S
H167 N154 0.985 . S
C168 C169 1.363 . S
C168 C174 1.379 . S
C168 N176 1.356 . S
C169 C168 1.363 . S
C169 C175 1.363 . S
C170 C171 1.363 . S
C170 C175 1.379 . S
C170 N177 1.356 . S
C171 C170 1.363 . S
C171 C174 1.363 . S
N172 C174 1.356 . S
N172 H184 0.984 . S
N172 H185 0.985 . S
N173 C175 1.356 . S
N173 H178 0.984 . S
N173 H179 0.985 . S
C174 C168 1.379 . S
C174 C171 1.363 . S
C174 N172 1.356 . S
C175 C169 1.363 . S
C175 C170 1.379 . S
C175 N173 1.356 . S
N176 C168 1.356 . S
N176 H182 0.984 . S
N176 H183 0.984 . S
N177 C170 1.356 . S
N177 H180 0.984 . S
N177 H181 0.985 . S
H178 N173 0.984 . S
H179 N173 0.985 . S
H180 N177 0.984 . S
H181 N177 0.985 . S
H182 N176 0.984 . S
H183 N176 0.984 . S
H184 N172 0.984 . S
H185 N172 0.985 . S
C186 C187 1.363 . S
C186 C192 1.379 . S
C186 N194 1.356 . S
C187 C186 1.363 . S
C187 C193 1.363 . S
C188 C189 1.363 . S
C188 C193 1.379 . S
C188 N195 1.356 . S
C189 C188 1.363 . S
C189 C192 1.363 . S
N190 C192 1.356 . S
N190 H202 0.984 . S
N190 H203 0.985 . S
N191 C193 1.356 . S
N191 H196 0.984 . S
N191 H197 0.985 . S
C192 C186 1.379 . S
C192 C189 1.363 . S
C192 N190 1.356 . S
C193 C187 1.363 . S
C193 C188 1.379 . S
C193 N191 1.356 . S
N194 C186 1.356 . S
N194 H200 0.984 . S
N194 H201 0.984 . S
N195 C188 1.356 . S
N195 H198 0.984 . S
N195 H199 0.985 . S
H196 N191 0.984 . S
H197 N191 0.985 . S
H198 N195 0.984 . S
H199 N195 0.985 . S
H200 N194 0.984 . S
H201 N194 0.984 . S
H202 N190 0.984 . S
H203 N190 0.985 . S
C204 C205 1.363 . S
C204 C210 1.379 . S
C204 N212 1.356 . S
C205 C204 1.363 . S
C205 C211 1.363 . S
C206 C207 1.363 . S
C206 C211 1.379 . S
C206 N213 1.356 . S
C207 C206 1.363 . S
C207 C210 1.363 . S
N208 C210 1.356 . S
N208 H220 0.984 . S
N208 H221 0.985 . S
N209 C211 1.356 . S
N209 H214 0.984 . S
N209 H215 0.985 . S
C210 C204 1.379 . S
C210 C207 1.363 . S
C210 N208 1.356 . S
C211 C205 1.363 . S
C211 C206 1.379 . S
C211 N209 1.356 . S
N212 C204 1.356 . S
N212 H218 0.984 . S
N212 H219 0.984 . S
N213 C206 1.356 . S
N213 H216 0.984 . S
N213 H217 0.985 . S
H214 N209 0.984 . S
H215 N209 0.985 . S
H216 N213 0.984 . S
H217 N213 0.985 . S
H218 N212 0.984 . S
H219 N212 0.984 . S
H220 N208 0.984 . S
H221 N208 0.985 . S
C222 C223 1.363 1_556 S
C222 C228 1.379 . S
C222 N230 1.356 1_556 S
C223 C222 1.363 1_554 S
C223 C229 1.363 1_554 S
C224 C225 1.363 . S
C224 C229 1.379 . S
C224 N231 1.356 . S
C225 C224 1.363 . S
C225 C228 1.363 . S
N226 C228 1.356 . S
N226 H238 0.984 . S
N226 H239 0.985 . S
N227 C229 1.356 1_554 S
N227 H232 0.984 . S
N227 H233 0.985 . S
C228 C222 1.379 . S
C228 C225 1.363 . S
C228 N226 1.356 . S
C229 C223 1.363 1_556 S
C229 C224 1.379 . S
C229 N227 1.356 1_556 S
N230 C222 1.356 1_554 S
N230 H236 0.984 . S
N230 H237 0.984 . S
N231 C224 1.356 . S
N231 H234 0.984 . S
N231 H235 0.985 . S
H232 N227 0.984 . S
H233 N227 0.985 . S
H234 N231 0.984 . S
H235 N231 0.985 . S
H236 N230 0.984 . S
H237 N230 0.984 . S
H238 N226 0.984 . S
H239 N226 0.985 . S
C240 C241 1.363 . S
C240 C246 1.379 1_545 S
C240 N248 1.356 . S
C241 C240 1.363 . S
C241 C247 1.363 . S
C242 C243 1.363 . S
C242 C247 1.379 1_565 S
C242 N249 1.356 . S
C243 C242 1.363 . S
C243 C246 1.363 . S
N244 C246 1.356 . S
N244 H256 0.984 . S
N244 H257 0.985 . S
N245 C247 1.356 . S
N245 H250 0.984 . S
N245 H251 0.985 . S
C246 C240 1.379 1_565 S
C246 C243 1.363 . S
C246 N244 1.356 . S
C247 C241 1.363 . S
C247 C242 1.379 1_545 S
C247 N245 1.356 . S
N248 C240 1.356 . S
N248 H254 0.984 . S
N248 H255 0.984 . S
N249 C242 1.356 . S
N249 H252 0.984 . S
N249 H253 0.985 . S
H250 N245 0.984 . S
H251 N245 0.985 . S
H252 N249 0.984 . S
H253 N249 0.985 . S
H254 N248 0.984 . S
H255 N248 0.984 . S
H256 N244 0.984 . S
H257 N244 0.985 . S
C258 C259 1.363 . S
C258 C264 1.379 . S
C258 N266 1.356 . S
C259 C258 1.363 . S
C259 C265 1.363 . S
C260 C261 1.363 . S
C260 C265 1.379 . S
C260 N267 1.356 . S
C261 C260 1.363 . S
C261 C264 1.363 . S
N262 C264 1.356 . S
N262 H274 0.984 . S
N262 H275 0.985 . S
N263 C265 1.356 . S
N263 H268 0.984 . S
N263 H269 0.985 . S
C264 C258 1.379 . S
C264 C261 1.363 . S
C264 N262 1.356 . S
C265 C259 1.363 . S
C265 C260 1.379 . S
C265 N263 1.356 . S
N266 C258 1.356 . S
N266 H272 0.984 . S
N266 H273 0.984 . S
N267 C260 1.356 . S
N267 H270 0.984 . S
N267 H271 0.985 . S
H268 N263 0.984 . S
H269 N263 0.985 . S
H270 N267 0.984 . S
H271 N267 0.985 . S
H272 N266 0.984 . S
H273 N266 0.984 . S
H274 N262 0.984 . S
H275 N262 0.985 . S
C276 C277 1.363 . S
C276 C282 1.379 1_655 S
C276 N284 1.356 1_556 S
C277 C276 1.363 . S
C277 C283 1.363 . S
C278 C279 1.363 . S
C278 C283 1.379 1_455 S
C278 N285 1.356 . S
C279 C278 1.363 . S
C279 C282 1.363 . S
N280 C282 1.356 . S
N280 H292 0.984 1_556 S
N280 H293 0.985 . S
N281 C283 1.356 . S
N281 H286 0.984 . S
N281 H287 0.985 . S
C282 C276 1.379 1_455 S
C282 C279 1.363 . S
C282 N280 1.356 . S
C283 C277 1.363 . S
C283 C278 1.379 1_655 S
C283 N281 1.356 . S
N284 C276 1.356 1_554 S
N284 H290 0.984 . S
N284 H291 0.984 . S
N285 C278 1.356 . S
N285 H288 0.984 . S
N285 H289 0.985 . S
H286 N281 0.984 . S
H287 N281 0.985 . S
H288 N285 0.984 . S
H289 N285 0.985 . S
H290 N284 0.984 . S
H291 N284 0.984 . S
H292 N280 0.984 1_554 S
H293 N280 0.985 . S
C294 C295 1.363 . S
C294 C300 1.379 1_565 S
C294 N302 1.356 . S
C295 C294 1.363 . S
C295 C301 1.363 1_554 S
C296 C297 1.363 . S
C296 C301 1.379 1_545 S
C296 N303 1.356 . S
C297 C296 1.363 . S
C297 C300 1.363 1_556 S
N298 C300 1.356 . S
N298 H310 0.984 . S
N298 H311 0.985 . S
N299 C301 1.356 . S
N299 H304 0.984 . S
N299 H305 0.985 . S
C300 C294 1.379 1_545 S
C300 C297 1.363 1_554 S
C300 N298 1.356 . S
C301 C295 1.363 1_556 S
C301 C296 1.379 1_565 S
C301 N299 1.356 . S
N302 C294 1.356 . S
N302 H308 0.984 . S
N302 H309 0.984 . S
N303 C296 1.356 . S
N303 H306 0.984 . S
N303 H307 0.985 . S
H304 N299 0.984 . S
H305 N299 0.985 . S
H306 N303 0.984 . S
H307 N303 0.985 . S
H308 N302 0.984 . S
H309 N302 0.984 . S
H310 N298 0.984 . S
H311 N298 0.985 . S
C312 C313 1.363 . S
C312 C318 1.379 . S
C312 N320 1.356 . S
C313 C312 1.363 . S
C313 C319 1.363 . S
C314 C315 1.363 . S
C314 C319 1.379 . S
C314 N321 1.356 . S
C315 C314 1.363 . S
C315 C318 1.363 . S
N316 C318 1.356 . S
N316 H328 0.984 . S
N316 H329 0.985 . S
N317 C319 1.356 . S
N317 H322 0.984 . S
N317 H323 0.985 . S
C318 C312 1.379 . S
C318 C315 1.363 . S
C318 N316 1.356 . S
C319 C313 1.363 . S
C319 C314 1.379 . S
C319 N317 1.356 . S
N320 C312 1.356 . S
N320 H326 0.984 . S
N320 H327 0.984 . S
N321 C314 1.356 . S
N321 H324 0.984 . S
N321 H325 0.985 . S
H322 N317 0.984 . S
H323 N317 0.985 . S
H324 N321 0.984 . S
H325 N321 0.985 . S
H326 N320 0.984 . S
H327 N320 0.984 . S
H328 N316 0.984 . S
H329 N316 0.985 . S
C330 C331 1.363 . S
C330 C336 1.379 1_655 S
C330 N338 1.356 . S
C331 C330 1.363 . S
C331 C337 1.363 . S
C332 C333 1.363 . S
C332 C337 1.379 1_455 S
C332 N339 1.356 . S
C333 C332 1.363 . S
C333 C336 1.363 . S
N334 C336 1.356 . S
N334 H346 0.984 . S
N334 H347 0.985 . S
N335 C337 1.356 . S
N335 H340 0.984 . S
N335 H341 0.985 . S
C336 C330 1.379 1_455 S
C336 C333 1.363 . S
C336 N334 1.356 . S
C337 C331 1.363 . S
C337 C332 1.379 1_655 S
C337 N335 1.356 . S
N338 C330 1.356 . S
N338 H344 0.984 . S
N338 H345 0.984 . S
N339 C332 1.356 . S
N339 H342 0.984 . S
N339 H343 0.985 . S
H340 N335 0.984 . S
H341 N335 0.985 . S
H342 N339 0.984 . S
H343 N339 0.985 . S
H344 N338 0.984 . S
H345 N338 0.984 . S
H346 N334 0.984 . S
H347 N334 0.985 . S
C348 C349 1.363 . S
C348 C354 1.379 . S
C348 N356 1.356 . S
C349 C348 1.363 . S
C349 C355 1.363 . S
C350 C351 1.363 . S
C350 C355 1.379 . S
C350 N357 1.356 . S
C351 C350 1.363 . S
C351 C354 1.363 . S
N352 C354 1.356 . S
N352 H364 0.984 . S
N352 H365 0.985 . S
N353 C355 1.356 . S
N353 H358 0.984 . S
N353 H359 0.985 . S
C354 C348 1.379 . S
C354 C351 1.363 . S
C354 N352 1.356 . S
C355 C349 1.363 . S
C355 C350 1.379 . S
C355 N353 1.356 . S
N356 C348 1.356 . S
N356 H362 0.984 . S
N356 H363 0.984 . S
N357 C350 1.356 . S
N357 H360 0.984 . S
N357 H361 0.985 . S
H358 N353 0.984 . S
H359 N353 0.985 . S
H360 N357 0.984 . S
H361 N357 0.985 . S
H362 N356 0.984 . S
H363 N356 0.984 . S
H364 N352 0.984 . S
H365 N352 0.985 . S
C366 C367 1.363 . S
C366 C372 1.379 . S
C366 N374 1.356 . S
C367 C366 1.363 . S
C367 C373 1.363 . S
C368 C369 1.363 . S
C368 C373 1.379 . S
C368 N375 1.356 . S
C369 C368 1.363 . S
C369 C372 1.363 . S
N370 C372 1.356 . S
N370 H382 0.984 . S
N370 H383 0.985 . S
N371 C373 1.356 . S
N371 H376 0.984 . S
N371 H377 0.985 . S
C372 C366 1.379 . S
C372 C369 1.363 . S
C372 N370 1.356 . S
C373 C367 1.363 . S
C373 C368 1.379 . S
C373 N371 1.356 . S
N374 C366 1.356 . S
N374 H380 0.984 . S
N374 H381 0.984 . S
N375 C368 1.356 . S
N375 H378 0.984 . S
N375 H379 0.985 . S
H376 N371 0.984 . S
H377 N371 0.985 . S
H378 N375 0.984 . S
H379 N375 0.985 . S
H380 N374 0.984 . S
H381 N374 0.984 . S
H382 N370 0.984 . S
H383 N370 0.985 . S
C384 C385 1.363 . S
C384 C390 1.379 . S
C384 N392 1.356 . S
C385 C384 1.363 . S
C385 C391 1.363 . S
C386 C387 1.363 . S
C386 C391 1.379 . S
C386 N393 1.356 . S
C387 C386 1.363 . S
C387 C390 1.363 . S
N388 C390 1.356 . S
N388 H400 0.984 . S
N388 H401 0.985 . S
N389 C391 1.356 . S
N389 H394 0.984 . S
N389 H395 0.985 . S
C390 C384 1.379 . S
C390 C387 1.363 . S
C390 N388 1.356 . S
C391 C385 1.363 . S
C391 C386 1.379 . S
C391 N389 1.356 . S
N392 C384 1.356 . S
N392 H398 0.984 . S
N392 H399 0.984 . S
N393 C386 1.356 . S
N393 H396 0.984 . S
N393 H397 0.985 . S
H394 N389 0.984 . S
H395 N389 0.985 . S
H396 N393 0.984 . S
H397 N393 0.985 . S
H398 N392 0.984 . S
H399 N392 0.984 . S
H400 N388 0.984 . S
H401 N388 0.985 . S
C402 C403 1.363 . S
C402 C408 1.379 . S
C402 N410 1.356 . S
C403 C402 1.363 . S
C403 C409 1.363 . S
C404 C405 1.363 . S
C404 C409 1.379 . S
C404 N411 1.356 . S
C405 C404 1.363 . S
C405 C408 1.363 . S
N406 C408 1.356 . S
N406 H418 0.984 . S
N406 H419 0.985 . S
N407 C409 1.356 . S
N407 H412 0.984 . S
N407 H413 0.985 . S
C408 C402 1.379 . S
C408 C405 1.363 . S
C408 N406 1.356 . S
C409 C403 1.363 . S
C409 C404 1.379 . S
C409 N407 1.356 . S
N410 C402 1.356 . S
N410 H416 0.984 . S
N410 H417 0.984 . S
N411 C404 1.356 . S
N411 H414 0.984 . S
N411 H415 0.985 . S
H412 N407 0.984 . S
H413 N407 0.985 . S
H414 N411 0.984 . S
H415 N411 0.985 . S
H416 N410 0.984 . S
H417 N410 0.984 . S
H418 N406 0.984 . S
H419 N406 0.985 . S
C420 C421 1.363 . S
C420 C426 1.379 . S
C420 N428 1.356 . S
C421 C420 1.363 . S
C421 C427 1.363 . S
C422 C423 1.363 1_556 S
C422 C427 1.379 1_556 S
C422 N429 1.356 . S
C423 C422 1.363 1_554 S
C423 C426 1.363 . S
N424 C426 1.356 . S
N424 H436 0.984 . S
N424 H437 0.985 . S
N425 C427 1.356 1_556 S
N425 H430 0.984 . S
N425 H431 0.985 . S
C426 C420 1.379 . S
C426 C423 1.363 . S
C426 N424 1.356 . S
C427 C421 1.363 . S
C427 C422 1.379 1_554 S
C427 N425 1.356 1_554 S
N428 C420 1.356 . S
N428 H434 0.984 . S
N428 H435 0.984 . S
N429 C422 1.356 . S
N429 H432 0.984 . S
N429 H433 0.985 . S
H430 N425 0.984 . S
H431 N425 0.985 . S
H432 N429 0.984 . S
H433 N429 0.985 . S
H434 N428 0.984 . S
H435 N428 0.984 . S
H436 N424 0.984 . S
H437 N424 0.985 . S
C438 C439 1.363 . S
C438 C444 1.379 . S
C438 N446 1.356 . S
C439 C438 1.363 . S
C439 C445 1.363 . S
C440 C441 1.363 . S
C440 C445 1.379 . S
C440 N447 1.356 . S
C441 C440 1.363 . S
C441 C444 1.363 . S
N442 C444 1.356 . S
N442 H454 0.984 . S
N442 H455 0.985 . S
N443 C445 1.356 . S
N443 H448 0.984 . S
N443 H449 0.985 . S
C444 C438 1.379 . S
C444 C441 1.363 . S
C444 N442 1.356 . S
C445 C439 1.363 . S
C445 C440 1.379 . S
C445 N443 1.356 . S
N446 C438 1.356 . S
N446 H452 0.984 . S
N446 H453 0.984 . S
N447 C440 1.356 . S
N447 H450 0.984 . S
N447 H451 0.985 . S
H448 N443 0.984 . S
H449 N443 0.985 . S
H450 N447 0.984 . S
H451 N447 0.985 . S
H452 N446 0.984 . S
H453 N446 0.984 . S
H454 N442 0.984 . S
H455 N442 0.985 . S
C133 C7 1.550 . S
C135 C6 1.550 . S
C151 C29 1.550 . S
C153 C28 1.550 . S
C169 C50 1.550 . S
C171 C51 1.550 . S
C187 C72 1.550 . S
C189 C73 1.550 . S
C205 C94 1.550 . S
C207 C95 1.550 . S
C223 C117 1.550 . S
C225 C116 1.550 . S
C241 C5 1.614 . S
C243 C119 1.614 . S
C259 C9 1.614 . S
C261 C27 1.614 . S
C277 C49 1.614 . S
C279 C31 1.614 . S
C295 C71 1.614 . S
C297 C53 1.614 . S
C313 C93 1.614 . S
C315 C75 1.614 . S
C331 C97 1.614 . S
C333 C115 1.614 . S
C349 C8 1.320 . S
C351 C92 1.320 . S
C367 C30 1.320 . S
C369 C114 1.320 . S
C385 C52 1.320 . S
C387 C4 1.320 . S
C403 C74 1.320 . S
C405 C26 1.320 . S
C421 C96 1.320 . S
C423 C48 1.320 . S
C439 C70 1.320 . S
C441 C118 1.320 . S
