# Generated by pormake.
# Topology wna, (6)-cn, num edge types: 1
# Building blocks:
#     Node 0, Type 0, BuildingBlock: BETFEN_clean_sbu_0, # of connection points: 6
#     Node 1, Type 0, BuildingBlock: BETFEN_clean_sbu_0, # of connection points: 6
#     Node 2, Type 0, BuildingBlock: BETFEN_clean_sbu_0, # of connection points: 6
#     Node 3, Type 0, BuildingBlock: BETFEN_clean_sbu_0, # of connection points: 6
#     Node 4, Type 0, BuildingBlock: BETFEN_clean_sbu_0, # of connection points: 6
#     Node 5, Type 0, BuildingBlock: BETFEN_clean_sbu_0, # of connection points: 6
#     Node 6, Type 0, BuildingBlock: BETFEN_clean_sbu_0, # of connection points: 6
#     Node 7, Type 0, BuildingBlock: BETFEN_clean_sbu_0, # of connection points: 6
#     Node 8, Type 0, BuildingBlock: BETFEN_clean_sbu_0, # of connection points: 6
#     Node 9, Type 0, BuildingBlock: BETFEN_clean_sbu_0, # of connection points: 6
#     Node 10, Type 0, BuildingBlock: BETFEN_clean_sbu_0, # of connection points: 6
#     Node 11, Type 0, BuildingBlock: BETFEN_clean_sbu_0, # of connection points: 6
#     Node 12, Type 0, BuildingBlock: BETFEN_clean_sbu_0, # of connection points: 6
#     Node 13, Type 0, BuildingBlock: BETFEN_clean_sbu_0, # of connection points: 6
#     Node 14, Type 0, BuildingBlock: BETFEN_clean_sbu_0, # of connection points: 6
#     Node 15, Type 0, BuildingBlock: BETFEN_clean_sbu_0, # of connection points: 6
#     Node 16, Type 0, BuildingBlock: BETFEN_clean_sbu_0, # of connection points: 6
#     Node 17, Type 0, BuildingBlock: BETFEN_clean_sbu_0, # of connection points: 6
#     Node 18, Type 0, BuildingBlock: BETFEN_clean_sbu_0, # of connection points: 6
#     Node 19, Type 0, BuildingBlock: BETFEN_clean_sbu_0, # of connection points: 6
#     Node 20, Type 0, BuildingBlock: BETFEN_clean_sbu_0, # of connection points: 6
#     Node 21, Type 0, BuildingBlock: BETFEN_clean_sbu_0, # of connection points: 6
#     Node 22, Type 0, BuildingBlock: BETFEN_clean_sbu_0, # of connection points: 6
#     Node 23, Type 0, BuildingBlock: BETFEN_clean_sbu_0, # of connection points: 6
#     Node 24, Type 0, BuildingBlock: BETFEN_clean_sbu_0, # of connection points: 6
#     Node 25, Type 0, BuildingBlock: BETFEN_clean_sbu_0, # of connection points: 6
#     Node 26, Type 0, BuildingBlock: BETFEN_clean_sbu_0, # of connection points: 6
#     Node 27, Type 0, BuildingBlock: BETFEN_clean_sbu_0, # of connection points: 6
#     Node 28, Type 0, BuildingBlock: BETFEN_clean_sbu_0, # of connection points: 6
#     Node 29, Type 0, BuildingBlock: BETFEN_clean_sbu_0, # of connection points: 6
#     Node 30, Type 0, BuildingBlock: BETFEN_clean_sbu_0, # of connection points: 6
#     Node 31, Type 0, BuildingBlock: BETFEN_clean_sbu_0, # of connection points: 6
#     Node 32, Type 0, BuildingBlock: BETFEN_clean_sbu_0, # of connection points: 6
#     Node 33, Type 0, BuildingBlock: BETFEN_clean_sbu_0, # of connection points: 6
#     Node 34, Type 0, BuildingBlock: BETFEN_clean_sbu_0, # of connection points: 6
#     Node 35, Type 0, BuildingBlock: BETFEN_clean_sbu_0, # of connection points: 6
#     Edge 36, Type (0, 0), BuildingBlock: TEMPAE_clean_linker_10, # of connection points: 2
#     Edge 37, Type (0, 0), BuildingBlock: TEMPAE_clean_linker_10, # of connection points: 2
#     Edge 38, Type (0, 0), BuildingBlock: TEMPAE_clean_linker_10, # of connection points: 2
#     Edge 39, Type (0, 0), BuildingBlock: TEMPAE_clean_linker_10, # of connection points: 2
#     Edge 40, Type (0, 0), BuildingBlock: TEMPAE_clean_linker_10, # of connection points: 2
#     Edge 41, Type (0, 0), BuildingBlock: TEMPAE_clean_linker_10, # of connection points: 2
#     Edge 42, Type (0, 0), BuildingBlock: TEMPAE_clean_linker_10, # of connection points: 2
#     Edge 43, Type (0, 0), BuildingBlock: TEMPAE_clean_linker_10, # of connection points: 2
#     Edge 44, Type (0, 0), BuildingBlock: TEMPAE_clean_linker_10, # of connection points: 2
#     Edge 45, Type (0, 0), BuildingBlock: TEMPAE_clean_linker_10, # of connection points: 2
#     Edge 46, Type (0, 0), BuildingBlock: TEMPAE_clean_linker_10, # of connection points: 2
#     Edge 47, Type (0, 0), BuildingBlock: TEMPAE_clean_linker_10, # of connection points: 2
#     Edge 48, Type (0, 0), BuildingBlock: TEMPAE_clean_linker_10, # of connection points: 2
#     Edge 49, Type (0, 0), BuildingBlock: TEMPAE_clean_linker_10, # of connection points: 2
#     Edge 50, Type (0, 0), BuildingBlock: TEMPAE_clean_linker_10, # of connection points: 2
#     Edge 51, Type (0, 0), BuildingBlock: TEMPAE_clean_linker_10, # of connection points: 2
#     Edge 52, Type (0, 0), BuildingBlock: TEMPAE_clean_linker_10, # of connection points: 2
#     Edge 53, Type (0, 0), BuildingBlock: TEMPAE_clean_linker_10, # of connection points: 2
#     Edge 54, Type (0, 0), BuildingBlock: TEMPAE_clean_linker_10, # of connection points: 2
#     Edge 55, Type (0, 0), BuildingBlock: TEMPAE_clean_linker_10, # of connection points: 2
#     Edge 56, Type (0, 0), BuildingBlock: TEMPAE_clean_linker_10, # of connection points: 2
#     Edge 57, Type (0, 0), BuildingBlock: TEMPAE_clean_linker_10, # of connection points: 2
#     Edge 58, Type (0, 0), BuildingBlock: TEMPAE_clean_linker_10, # of connection points: 2
#     Edge 59, Type (0, 0), BuildingBlock: TEMPAE_clean_linker_10, # of connection points: 2
#     Edge 60, Type (0, 0), BuildingBlock: TEMPAE_clean_linker_10, # of connection points: 2
#     Edge 61, Type (0, 0), BuildingBlock: TEMPAE_clean_linker_10, # of connection points: 2
#     Edge 62, Type (0, 0), BuildingBlock: TEMPAE_clean_linker_10, # of connection points: 2
#     Edge 63, Type (0, 0), BuildingBlock: TEMPAE_clean_linker_10, # of connection points: 2
#     Edge 64, Type (0, 0), BuildingBlock: TEMPAE_clean_linker_10, # of connection points: 2
#     Edge 65, Type (0, 0), BuildingBlock: TEMPAE_clean_linker_10, # of connection points: 2
#     Edge 66, Type (0, 0), BuildingBlock: TEMPAE_clean_linker_10, # of connection points: 2
#     Edge 67, Type (0, 0), BuildingBlock: TEMPAE_clean_linker_10, # of connection points: 2
#     Edge 68, Type (0, 0), BuildingBlock: TEMPAE_clean_linker_10, # of connection points: 2
#     Edge 69, Type (0, 0), BuildingBlock: TEMPAE_clean_linker_10, # of connection points: 2
#     Edge 70, Type (0, 0), BuildingBlock: TEMPAE_clean_linker_10, # of connection points: 2
#     Edge 71, Type (0, 0), BuildingBlock: TEMPAE_clean_linker_10, # of connection points: 2
#     Edge 72, Type (0, 0), BuildingBlock: TEMPAE_clean_linker_10, # of connection points: 2
#     Edge 73, Type (0, 0), BuildingBlock: TEMPAE_clean_linker_10, # of connection points: 2
#     Edge 74, Type (0, 0), BuildingBlock: TEMPAE_clean_linker_10, # of connection points: 2
#     Edge 75, Type (0, 0), BuildingBlock: TEMPAE_clean_linker_10, # of connection points: 2
#     Edge 76, Type (0, 0), BuildingBlock: TEMPAE_clean_linker_10, # of connection points: 2
#     Edge 77, Type (0, 0), BuildingBlock: TEMPAE_clean_linker_10, # of connection points: 2
#     Edge 78, Type (0, 0), BuildingBlock: TEMPAE_clean_linker_10, # of connection points: 2
#     Edge 79, Type (0, 0), BuildingBlock: TEMPAE_clean_linker_10, # of connection points: 2
#     Edge 80, Type (0, 0), BuildingBlock: TEMPAE_clean_linker_10, # of connection points: 2
#     Edge 81, Type (0, 0), BuildingBlock: TEMPAE_clean_linker_10, # of connection points: 2
#     Edge 82, Type (0, 0), BuildingBlock: TEMPAE_clean_linker_10, # of connection points: 2
#     Edge 83, Type (0, 0), BuildingBlock: TEMPAE_clean_linker_10, # of connection points: 2
#     Edge 84, Type (0, 0), BuildingBlock: TEMPAE_clean_linker_10, # of connection points: 2
#     Edge 85, Type (0, 0), BuildingBlock: TEMPAE_clean_linker_10, # of connection points: 2
#     Edge 86, Type (0, 0), BuildingBlock: TEMPAE_clean_linker_10, # of connection points: 2
#     Edge 87, Type (0, 0), BuildingBlock: TEMPAE_clean_linker_10, # of connection points: 2
#     Edge 88, Type (0, 0), BuildingBlock: TEMPAE_clean_linker_10, # of connection points: 2
#     Edge 89, Type (0, 0), BuildingBlock: TEMPAE_clean_linker_10, # of connection points: 2
#     Edge 90, Type (0, 0), BuildingBlock: TEMPAE_clean_linker_10, # of connection points: 2
#     Edge 91, Type (0, 0), BuildingBlock: TEMPAE_clean_linker_10, # of connection points: 2
#     Edge 92, Type (0, 0), BuildingBlock: TEMPAE_clean_linker_10, # of connection points: 2
#     Edge 93, Type (0, 0), BuildingBlock: TEMPAE_clean_linker_10, # of connection points: 2
#     Edge 94, Type (0, 0), BuildingBlock: TEMPAE_clean_linker_10, # of connection points: 2
#     Edge 95, Type (0, 0), BuildingBlock: TEMPAE_clean_linker_10, # of connection points: 2
#     Edge 96, Type (0, 0), BuildingBlock: TEMPAE_clean_linker_10, # of connection points: 2
#     Edge 97, Type (0, 0), BuildingBlock: TEMPAE_clean_linker_10, # of connection points: 2
#     Edge 98, Type (0, 0), BuildingBlock: TEMPAE_clean_linker_10, # of connection points: 2
#     Edge 99, Type (0, 0), BuildingBlock: TEMPAE_clean_linker_10, # of connection points: 2
#     Edge 100, Type (0, 0), BuildingBlock: TEMPAE_clean_linker_10, # of connection points: 2
#     Edge 101, Type (0, 0), BuildingBlock: TEMPAE_clean_linker_10, # of connection points: 2
#     Edge 102, Type (0, 0), BuildingBlock: TEMPAE_clean_linker_10, # of connection points: 2
#     Edge 103, Type (0, 0), BuildingBlock: TEMPAE_clean_linker_10, # of connection points: 2
#     Edge 104, Type (0, 0), BuildingBlock: TEMPAE_clean_linker_10, # of connection points: 2
#     Edge 105, Type (0, 0), BuildingBlock: TEMPAE_clean_linker_10, # of connection points: 2
#     Edge 106, Type (0, 0), BuildingBlock: TEMPAE_clean_linker_10, # of connection points: 2
#     Edge 107, Type (0, 0), BuildingBlock: TEMPAE_clean_linker_10, # of connection points: 2
#     Edge 108, Type (0, 0), BuildingBlock: TEMPAE_clean_linker_10, # of connection points: 2
#     Edge 109, Type (0, 0), BuildingBlock: TEMPAE_clean_linker_10, # of connection points: 2
#     Edge 110, Type (0, 0), BuildingBlock: TEMPAE_clean_linker_10, # of connection points: 2
#     Edge 111, Type (0, 0), BuildingBlock: TEMPAE_clean_linker_10, # of connection points: 2
#     Edge 112, Type (0, 0), BuildingBlock: TEMPAE_clean_linker_10, # of connection points: 2
#     Edge 113, Type (0, 0), BuildingBlock: TEMPAE_clean_linker_10, # of connection points: 2
#     Edge 114, Type (0, 0), BuildingBlock: TEMPAE_clean_linker_10, # of connection points: 2
#     Edge 115, Type (0, 0), BuildingBlock: TEMPAE_clean_linker_10, # of connection points: 2
#     Edge 116, Type (0, 0), BuildingBlock: TEMPAE_clean_linker_10, # of connection points: 2
#     Edge 117, Type (0, 0), BuildingBlock: TEMPAE_clean_linker_10, # of connection points: 2
#     Edge 118, Type (0, 0), BuildingBlock: TEMPAE_clean_linker_10, # of connection points: 2
#     Edge 119, Type (0, 0), BuildingBlock: TEMPAE_clean_linker_10, # of connection points: 2
#     Edge 120, Type (0, 0), BuildingBlock: TEMPAE_clean_linker_10, # of connection points: 2
#     Edge 121, Type (0, 0), BuildingBlock: TEMPAE_clean_linker_10, # of connection points: 2
#     Edge 122, Type (0, 0), BuildingBlock: TEMPAE_clean_linker_10, # of connection points: 2
#     Edge 123, Type (0, 0), BuildingBlock: TEMPAE_clean_linker_10, # of connection points: 2
#     Edge 124, Type (0, 0), BuildingBlock: TEMPAE_clean_linker_10, # of connection points: 2
#     Edge 125, Type (0, 0), BuildingBlock: TEMPAE_clean_linker_10, # of connection points: 2
#     Edge 126, Type (0, 0), BuildingBlock: TEMPAE_clean_linker_10, # of connection points: 2
#     Edge 127, Type (0, 0), BuildingBlock: TEMPAE_clean_linker_10, # of connection points: 2
#     Edge 128, Type (0, 0), BuildingBlock: TEMPAE_clean_linker_10, # of connection points: 2
#     Edge 129, Type (0, 0), BuildingBlock: TEMPAE_clean_linker_10, # of connection points: 2
#     Edge 130, Type (0, 0), BuildingBlock: TEMPAE_clean_linker_10, # of connection points: 2
#     Edge 131, Type (0, 0), BuildingBlock: TEMPAE_clean_linker_10, # of connection points: 2
#     Edge 132, Type (0, 0), BuildingBlock: TEMPAE_clean_linker_10, # of connection points: 2
#     Edge 133, Type (0, 0), BuildingBlock: TEMPAE_clean_linker_10, # of connection points: 2
#     Edge 134, Type (0, 0), BuildingBlock: TEMPAE_clean_linker_10, # of connection points: 2
#     Edge 135, Type (0, 0), BuildingBlock: TEMPAE_clean_linker_10, # of connection points: 2
#     Edge 136, Type (0, 0), BuildingBlock: TEMPAE_clean_linker_10, # of connection points: 2
#     Edge 137, Type (0, 0), BuildingBlock: TEMPAE_clean_linker_10, # of connection points: 2
#     Edge 138, Type (0, 0), BuildingBlock: TEMPAE_clean_linker_10, # of connection points: 2
#     Edge 139, Type (0, 0), BuildingBlock: TEMPAE_clean_linker_10, # of connection points: 2
#     Edge 140, Type (0, 0), BuildingBlock: TEMPAE_clean_linker_10, # of connection points: 2
#     Edge 141, Type (0, 0), BuildingBlock: TEMPAE_clean_linker_10, # of connection points: 2
#     Edge 142, Type (0, 0), BuildingBlock: TEMPAE_clean_linker_10, # of connection points: 2
#     Edge 143, Type (0, 0), BuildingBlock: TEMPAE_clean_linker_10, # of connection points: 2
# Relax obj value: 0.158
# Max RMSD: 0.224
# Mean RMSD: 0.208
data_MOF--net-wna--node1-BETFEN_clean_sbu_0--edge1-TEMPAE_clean_linker_10
_symmetry_space_group_name_H-M    P1
_symmetry_Int_Tables_number       1
_symmetry_cell_setting            triclinic
loop_
_symmetry_equiv_pos_as_xyz
'x, y, z'
_cell_length_a     41.868779
_cell_length_b     41.857798
_cell_length_c     153.60119
_cell_angle_alpha  89.97691
_cell_angle_beta   89.993668
_cell_angle_gamma 119.98267
loop_
_atom_site_label
_atom_site_type_symbol
_atom_site_fract_x
_atom_site_fract_y
_atom_site_fract_z
_atom_type_partial_charge
Pr0 Pr 0.11487 0.25257 0.17132 0.0
Pr1 Pr 0.12343 0.24646 0.19216 0.0
C2 C 0.11003 0.27412 0.155 0.0
C3 C 0.12609 0.28577 0.14613 0.0
C4 C 0.11889 0.25934 0.13963 0.0
C5 C 0.12916 0.27002 0.13097 0.0
C6 C 0.14677 0.30745 0.12854 0.0
C7 C 0.15503 0.33396 0.13511 0.0
C8 C 0.1447 0.32326 0.14378 0.0
C9 C 0.12641 0.19525 0.17648 0.0
C10 C 0.1999 0.29787 0.18042 0.0
C11 C 0.1274 0.22524 0.20852 0.0
C12 C 0.10955 0.21993 0.21716 0.0
C13 C 0.10074 0.24568 0.22062 0.0
C14 C 0.08418 0.24003 0.22885 0.0
C15 C 0.07584 0.2084 0.23379 0.0
C16 C 0.08458 0.18266 0.23026 0.0
C17 C 0.10126 0.1884 0.22206 0.0
C18 C 0.09409 0.29338 0.18843 0.0
C19 C 0.04444 0.1909 0.18224 0.0
O20 O 0.12424 0.29727 0.16152 0.0
O21 O 0.09709 0.23967 0.15728 0.0
O22 O 0.14182 0.227 0.17994 0.0
O23 O 0.10703 0.1937 0.16971 0.0
O24 O 0.18556 0.28253 0.18805 0.0
O25 O 0.1792 0.29234 0.17339 0.0
O26 O 0.10775 0.20192 0.20238 0.0
O27 O 0.14802 0.25916 0.2057 0.0
O28 O 0.10295 0.2761 0.18323 0.0
O29 O 0.10182 0.28766 0.19624 0.0
O30 O 0.05362 0.21601 0.17604 0.0
O31 O 0.0681 0.19385 0.18831 0.0
H32 H 0.10408 0.23017 0.14116 0.0
H33 H 0.12184 0.24873 0.12611 0.0
H34 H 0.169 0.36306 0.13352 0.0
H35 H 0.15031 0.34434 0.14859 0.0
H36 H 0.10657 0.27013 0.21696 0.0
H37 H 0.07747 0.26022 0.2313 0.0
H38 H 0.07904 0.15825 0.2339 0.0
H39 H 0.10784 0.16819 0.21955 0.0
Pr40 Pr 0.76343 0.8679 0.17103 0.0
Pr41 Pr 0.77291 0.88386 0.19173 0.0
C42 C 0.73851 0.83331 0.15556 0.0
C43 C 0.73162 0.83719 0.14621 0.0
C44 C 0.75442 0.83515 0.13977 0.0
C45 C 0.74616 0.83467 0.13091 0.0
C46 C 0.71468 0.83597 0.12822 0.0
C47 C 0.6923 0.83886 0.13466 0.0
C48 C 0.70058 0.83934 0.14354 0.0
C49 C 0.81783 0.94151 0.17384 0.0
C50 C 0.72264 0.91089 0.17988 0.0
C51 C 0.7834 0.90401 0.20865 0.0
C52 C 0.79289 0.89327 0.21708 0.0
C53 C 0.77099 0.85789 0.22067 0.0
C54 C 0.77991 0.84886 0.22877 0.0
C55 C 0.81104 0.87488 0.23345 0.0
C56 C 0.83307 0.91011 0.22979 0.0
C57 C 0.82403 0.91919 0.22173 0.0
C58 C 0.73368 0.80951 0.18667 0.0
C59 C 0.83107 0.86537 0.1819 0.0
O60 O 0.71708 0.83561 0.16145 0.0
O61 O 0.77271 0.8471 0.15817 0.0
O62 O 0.79921 0.9178 0.17956 0.0
O63 O 0.80815 0.92706 0.16611 0.0
O64 O 0.73613 0.90943 0.18759 0.0
O65 O 0.7281 0.89668 0.17272 0.0
O66 O 0.8096 0.91898 0.20279 0.0
O67 O 0.75082 0.88191 0.20529 0.0
O68 O 0.73112 0.83544 0.18317 0.0
O69 O 0.75585 0.82149 0.19329 0.0
O70 O 0.80653 0.85022 0.17553 0.0
O71 O 0.82718 0.88469 0.18819 0.0
H72 H 0.77833 0.83308 0.14159 0.0
H73 H 0.76437 0.83298 0.12616 0.0
H74 H 0.66761 0.83949 0.13287 0.0
H75 H 0.6821 0.84047 0.1483 0.0
H76 H 0.74687 0.83716 0.21726 0.0
H77 H 0.76257 0.82133 0.23133 0.0
H78 H 0.85697 0.931 0.23324 0.0
H79 H 0.84129 0.94672 0.21914 0.0
Pr80 Pr 0.1517 0.9056 0.17115 0.0
Pr81 Pr 0.13668 0.8941 0.1919 0.0
C82 C 0.17838 0.91175 0.15481 0.0
C83 C 0.17447 0.89748 0.14577 0.0
C84 C 0.16638 0.9149 0.13899 0.0
C85 C 0.1674 0.90558 0.13029 0.0
C86 C 0.17673 0.87864 0.12809 0.0
C87 C 0.1837 0.8603 0.13488 0.0
C88 C 0.18278 0.86974 0.14362 0.0
C89 C 0.08373 0.89511 0.17645 0.0
C90 C 0.11145 0.81919 0.17963 0.0
C91 C 0.10988 0.88812 0.20818 0.0
C92 C 0.12126 0.90654 0.21677 0.0
C93 C 0.15791 0.92282 0.21969 0.0
C94 C 0.1679 0.94009 0.22786 0.0
C95 C 0.14149 0.94158 0.23329 0.0
C96 C 0.10489 0.92543 0.23027 0.0
C97 C 0.09495 0.90813 0.22212 0.0
C98 C 0.21275 0.92354 0.18833 0.0
C99 C 0.16242 0.97581 0.18277 0.0
O100 O 0.18627 0.89598 0.16119 0.0
O101 O 0.15745 0.92519 0.15721 0.0
O102 O 0.09905 0.87819 0.17967 0.0
O103 O 0.10212 0.91559 0.16986 0.0
O104 O 0.11353 0.83253 0.18757 0.0
O105 O 0.12324 0.84049 0.17259 0.0
O106 O 0.10468 0.90648 0.20196 0.0
O107 O 0.12574 0.86968 0.20547 0.0
O108 O 0.18709 0.91563 0.18303 0.0
O109 O 0.19894 0.91482 0.1961 0.0
O110 O 0.17618 0.96655 0.1761 0.0
O111 O 0.14283 0.9518 0.18891 0.0
H112 H 0.16028 0.93666 0.1404 0.0
H113 H 0.16134 0.91991 0.12526 0.0
H114 H 0.19126 0.83963 0.13343 0.0
H115 H 0.18962 0.85606 0.14866 0.0
H116 H 0.17881 0.92213 0.21567 0.0
H117 H 0.19624 0.95184 0.22997 0.0
H118 H 0.08389 0.92655 0.23415 0.0
H119 H 0.06658 0.89602 0.21998 0.0
Pr120 Pr 0.25187 0.10967 0.35471 0.0
Pr121 Pr 0.2473 0.11816 0.33388 0.0
C122 C 0.27314 0.10526 0.37109 0.0
C123 C 0.28328 0.12037 0.38007 0.0
C124 C 0.25663 0.1062 0.38672 0.0
C125 C 0.26661 0.11588 0.39543 0.0
C126 C 0.30357 0.1399 0.39775 0.0
C127 C 0.33009 0.15514 0.39107 0.0
C128 C 0.32011 0.14533 0.38234 0.0
C129 C 0.19443 0.12003 0.34928 0.0
C130 C 0.29799 0.1947 0.34564 0.0
C131 C 0.22683 0.12287 0.31749 0.0
C132 C 0.21947 0.10372 0.30896 0.0
C133 C 0.24526 0.09622 0.30497 0.0
C134 C 0.23779 0.07875 0.29682 0.0
C135 C 0.20432 0.06826 0.29247 0.0
C136 C 0.17849 0.07554 0.29655 0.0
C137 C 0.18603 0.09309 0.30467 0.0
C138 C 0.29297 0.08775 0.33781 0.0
C139 C 0.19091 0.03843 0.34359 0.0
O140 O 0.29659 0.12112 0.36468 0.0
O141 O 0.23865 0.09075 0.36869 0.0
O142 O 0.22643 0.13613 0.34593 0.0
O143 O 0.19268 0.10069 0.35608 0.0
O144 O 0.2867 0.18025 0.33779 0.0
O145 O 0.28844 0.17437 0.35285 0.0
O146 O 0.20312 0.10544 0.32375 0.0
O147 O 0.26111 0.1414 0.3202 0.0
O148 O 0.27635 0.09755 0.34299 0.0
O149 O 0.28596 0.09359 0.32993 0.0
O150 O 0.21451 0.04817 0.35015 0.0
O151 O 0.19509 0.06186 0.33733 0.0
H152 H 0.22809 0.08659 0.38525 0.0
H153 H 0.24537 0.10401 0.40038 0.0
H154 H 0.35886 0.17347 0.39263 0.0
H155 H 0.34146 0.15636 0.37741 0.0
H156 H 0.2713 0.10401 0.30811 0.0
H157 H 0.25855 0.07403 0.29387 0.0
H158 H 0.15217 0.06735 0.29351 0.0
H159 H 0.16562 0.09842 0.30761 0.0
Pr160 Pr 0.90241 0.14761 0.35574 0.0
Pr161 Pr 0.89488 0.13696 0.33523 0.0
C162 C 0.91158 0.1788 0.37161 0.0
C163 C 0.89846 0.17435 0.38077 0.0
C164 C 0.91819 0.16854 0.38739 0.0
C165 C 0.90906 0.16847 0.39616 0.0
C166 C 0.88005 0.17445 0.39857 0.0
C167 C 0.85963 0.17931 0.39194 0.0
C168 C 0.86882 0.17942 0.38314 0.0
C169 C 0.87701 0.07308 0.35221 0.0
C170 C 0.81891 0.1072 0.34651 0.0
C171 C 0.8967 0.12281 0.31808 0.0
C172 C 0.91906 0.13629 0.30997 0.0
C173 C 0.92365 0.16768 0.3055 0.0
C174 C 0.9424 0.17808 0.29751 0.0
C175 C 0.957 0.15735 0.29377 0.0
C176 C 0.95279 0.12629 0.29832 0.0
C177 C 0.93401 0.11588 0.30629 0.0
C178 C 0.91446 0.20782 0.34158 0.0
C179 C 0.97412 0.15466 0.34476 0.0
O180 O 0.89208 0.18251 0.3654 0.0
O181 O 0.92795 0.16055 0.36916 0.0
O182 O 0.88373 0.09799 0.34668 0.0
O183 O 0.88389 0.08681 0.36003 0.0
O184 O 0.83352 0.1008 0.33957 0.0
O185 O 0.83989 0.12994 0.35277 0.0
O186 O 0.9085 0.10962 0.32422 0.0
O187 O 0.88099 0.14081 0.32112 0.0
O188 O 0.92684 0.1876 0.34418 0.0
O189 O 0.89093 0.19158 0.33533 0.0
O190 O 0.96243 0.16077 0.35225 0.0
O191 O 0.95364 0.14487 0.33764 0.0
H192 H 0.94141 0.16492 0.38581 0.0
H193 H 0.92506 0.1641 0.40107 0.0
H194 H 0.83736 0.18435 0.39355 0.0
H195 H 0.85329 0.18444 0.37823 0.0
H196 H 0.91239 0.184 0.30811 0.0
H197 H 0.94544 0.20239 0.29424 0.0
H198 H 0.96312 0.1093 0.29561 0.0
H199 H 0.93053 0.09128 0.3095 0.0
Pr200 Pr 0.86593 0.76278 0.35525 0.0
Pr201 Pr 0.88115 0.77049 0.33441 0.0
C202 C 0.83979 0.74001 0.37155 0.0
C203 C 0.8452 0.72973 0.38049 0.0
C204 C 0.86382 0.75703 0.38686 0.0
C205 C 0.86402 0.7474 0.39559 0.0
C206 C 0.84552 0.7102 0.39821 0.0
C207 C 0.82804 0.68284 0.39179 0.0
C208 C 0.82772 0.69249 0.38305 0.0
C209 C 0.93477 0.82066 0.35027 0.0
C210 C 0.90696 0.71906 0.34586 0.0
C211 C 0.90688 0.79391 0.31817 0.0
C212 C 0.89514 0.80124 0.30962 0.0
C213 C 0.86539 0.77338 0.30492 0.0
C214 C 0.85564 0.78089 0.29675 0.0
C215 C 0.87527 0.81645 0.29308 0.0
C216 C 0.90484 0.84428 0.29783 0.0
C217 C 0.91468 0.83673 0.30597 0.0
C218 C 0.80506 0.72221 0.33799 0.0
C219 C 0.85456 0.82374 0.34442 0.0
O220 O 0.83307 0.71707 0.36508 0.0
O221 O 0.85884 0.77469 0.36923 0.0
O222 O 0.9185 0.7892 0.34669 0.0
O223 O 0.9169 0.82158 0.3571 0.0
O224 O 0.90861 0.73546 0.33834 0.0
O225 O 0.8908 0.72322 0.35289 0.0
O226 O 0.91109 0.81643 0.32457 0.0
O227 O 0.89291 0.75947 0.32068 0.0
O228 O 0.83093 0.73954 0.34326 0.0
O229 O 0.81878 0.72833 0.3302 0.0
O230 O 0.84036 0.79901 0.35076 0.0
O231 O 0.87528 0.82136 0.33826 0.0
H232 H 0.87732 0.78601 0.38517 0.0
H233 H 0.87818 0.76919 0.40032 0.0
H234 H 0.81321 0.65394 0.39357 0.0
H235 H 0.81261 0.67077 0.37835 0.0
H236 H 0.84965 0.74574 0.30755 0.0
H237 H 0.83246 0.75888 0.29333 0.0
H238 H 0.9209 0.87184 0.29518 0.0
H239 H 0.93787 0.85867 0.30941 0.0
Pr240 Pr 0.89622 0.76997 0.83418 0.0
Pr241 Pr 0.90478 0.76006 0.85492 0.0
C242 C 0.89098 0.79267 0.81809 0.0
C243 C 0.90862 0.79831 0.80945 0.0
C244 C 0.92591 0.77845 0.80688 0.0
C245 C 0.94237 0.78416 0.79864 0.0
C246 C 0.94198 0.80996 0.7928 0.0
C247 C 0.92482 0.82995 0.79546 0.0
C248 C 0.90834 0.82416 0.80369 0.0
C249 C 0.92474 0.72174 0.83717 0.0
C250 C 0.97615 0.82209 0.84393 0.0
C251 C 0.90957 0.73578 0.87094 0.0
C252 C 0.89493 0.72603 0.87998 0.0
C253 C 0.90627 0.75344 0.88643 0.0
C254 C 0.897 0.74392 0.89518 0.0
C255 C 0.87622 0.70674 0.89774 0.0
C256 C 0.86379 0.67936 0.89125 0.0
C257 C 0.8732 0.68889 0.88248 0.0
C258 C 0.89526 0.81951 0.85059 0.0
C259 C 0.81989 0.71763 0.84588 0.0
O260 O 0.91105 0.81546 0.82428 0.0
O261 O 0.87066 0.75848 0.82076 0.0
O262 O 0.91541 0.73777 0.84263 0.0
O263 O 0.91888 0.73036 0.82947 0.0
O264 O 0.96616 0.79675 0.85013 0.0
O265 O 0.95261 0.82055 0.838 0.0
O266 O 0.89129 0.71344 0.86452 0.0
O267 O 0.92661 0.77058 0.86868 0.0
O268 O 0.87933 0.78844 0.84681 0.0
O269 O 0.91336 0.81881 0.8574 0.0
O270 O 0.83414 0.73454 0.83839 0.0
O271 O 0.84047 0.72115 0.8528 0.0
H272 H 0.9266 0.75843 0.81123 0.0
H273 H 0.95495 0.76798 0.7968 0.0
H274 H 0.92449 0.85049 0.79123 0.0
H275 H 0.89539 0.83998 0.80556 0.0
H276 H 0.92333 0.78232 0.88478 0.0
H277 H 0.90663 0.76575 0.89998 0.0
H278 H 0.84806 0.65045 0.89298 0.0
H279 H 0.86451 0.66705 0.87771 0.0
Pr280 Pr 0.24594 0.13172 0.83529 0.0
Pr281 Pr 0.25118 0.14442 0.85616 0.0
C282 C 0.22448 0.107 0.81891 0.0
C283 C 0.21827 0.11955 0.81032 0.0
C284 C 0.24761 0.14674 0.80538 0.0
C285 C 0.24122 0.15715 0.79717 0.0
C286 C 0.20535 0.14067 0.79367 0.0
C287 C 0.17605 0.11366 0.79866 0.0
C288 C 0.18246 0.1032 0.80685 0.0
C289 C 0.29426 0.20701 0.83921 0.0
C290 C 0.19206 0.15818 0.84533 0.0
C291 C 0.2733 0.16909 0.87254 0.0
C292 C 0.28433 0.16325 0.88133 0.0
C293 C 0.25754 0.14124 0.88754 0.0
C294 C 0.26743 0.14056 0.89621 0.0
C295 C 0.30432 0.16187 0.89892 0.0
C296 C 0.33132 0.18269 0.89264 0.0
C297 C 0.3214 0.18351 0.88396 0.0
C298 C 0.19329 0.07691 0.85063 0.0
C299 C 0.29561 0.10416 0.84697 0.0
O300 O 0.20118 0.10211 0.82518 0.0
O301 O 0.25857 0.12081 0.82164 0.0
O302 O 0.27637 0.18097 0.84442 0.0
O303 O 0.28841 0.19398 0.83135 0.0
O304 O 0.21498 0.16984 0.85202 0.0
O305 O 0.19562 0.13976 0.83876 0.0
O306 O 0.29642 0.17774 0.86602 0.0
O307 O 0.23871 0.14887 0.87024 0.0
O308 O 0.22531 0.09292 0.84732 0.0
O309 O 0.19155 0.09447 0.85744 0.0
O310 O 0.28372 0.10694 0.83916 0.0
O311 O 0.28708 0.11574 0.85419 0.0
H312 H 0.27561 0.15982 0.80781 0.0
H313 H 0.26457 0.17767 0.79349 0.0
H314 H 0.14799 0.1007 0.79627 0.0
H315 H 0.15931 0.08209 0.81048 0.0
H316 H 0.22867 0.12548 0.88578 0.0
H317 H 0.24601 0.12387 0.90085 0.0
H318 H 0.35993 0.19973 0.89451 0.0
H319 H 0.34263 0.20118 0.87939 0.0
Pr320 Pr 0.88094 0.12007 0.83436 0.0
Pr321 Pr 0.86945 0.11541 0.85508 0.0
C322 C 0.89723 0.12966 0.81721 0.0
C323 C 0.88621 0.10896 0.80885 0.0
C324 C 0.86998 0.11943 0.80226 0.0
C325 C 0.86089 0.10137 0.7942 0.0
C326 C 0.86808 0.07252 0.79249 0.0
C327 C 0.88412 0.0619 0.79911 0.0
C328 C 0.89303 0.07983 0.80719 0.0
C329 C 0.80747 0.08264 0.84011 0.0
C330 C 0.86933 0.04601 0.84435 0.0
C331 C 0.83727 0.10534 0.87089 0.0
C332 C 0.8413 0.1178 0.88012 0.0
C333 C 0.85746 0.10585 0.88642 0.0
C334 C 0.85717 0.11417 0.89526 0.0
C335 C 0.8405 0.13445 0.89805 0.0
C336 C 0.82514 0.1471 0.89171 0.0
C337 C 0.82543 0.13879 0.88288 0.0
C338 C 0.94316 0.13737 0.85135 0.0
C339 C 0.90849 0.1984 0.84602 0.0
O340 O 0.91516 0.12104 0.82287 0.0
O341 O 0.87376 0.13768 0.82085 0.0
O342 O 0.83298 0.11223 0.84337 0.0
O343 O 0.81961 0.0721 0.83359 0.0
O344 O 0.85419 0.0549 0.85083 0.0
O345 O 0.88623 0.06883 0.83781 0.0
O346 O 0.83524 0.12627 0.86482 0.0
O347 O 0.85431 0.08788 0.86833 0.0
O348 O 0.9178 0.13042 0.84599 0.0
O349 O 0.93092 0.13421 0.85928 0.0
O350 O 0.90597 0.18291 0.83832 0.0
O351 O 0.89587 0.17915 0.8533 0.0
H352 H 0.86471 0.14198 0.80332 0.0
H353 H 0.84897 0.11058 0.78923 0.0
H354 H 0.88965 0.03953 0.79806 0.0
H355 H 0.90549 0.07097 0.81211 0.0
H356 H 0.86949 0.08918 0.88456 0.0
H357 H 0.86889 0.10355 0.89994 0.0
H358 H 0.81252 0.16322 0.89358 0.0
H359 H 0.81237 0.1481 0.87824 0.0
Pr360 Pr 0.77525 0.89871 0.69132 0.0
Pr361 Pr 0.76926 0.90345 0.6703 0.0
C362 C 0.79584 0.89659 0.70785 0.0
C363 C 0.80172 0.91589 0.71635 0.0
C364 C 0.7751 0.90036 0.72298 0.0
C365 C 0.78116 0.91746 0.73114 0.0
C366 C 0.81415 0.95045 0.73291 0.0
C367 C 0.84073 0.96602 0.72626 0.0
C368 C 0.83464 0.94896 0.7181 0.0
C369 C 0.72522 0.92318 0.68689 0.0
C370 C 0.83076 0.97758 0.6807 0.0
C371 C 0.75082 0.9057 0.65357 0.0
C372 C 0.72947 0.88786 0.64557 0.0
C373 C 0.73741 0.8647 0.6405 0.0
C374 C 0.7223 0.8537 0.63217 0.0
C375 C 0.69892 0.86563 0.62869 0.0
C376 C 0.68952 0.88723 0.63396 0.0
C377 C 0.70475 0.89833 0.64228 0.0
C378 C 0.82785 0.89598 0.67638 0.0
C379 C 0.72433 0.82058 0.68011 0.0
O380 O 0.81937 0.91432 0.70156 0.0
O381 O 0.76177 0.87624 0.70509 0.0
O382 O 0.74376 0.91505 0.6819 0.0
O383 O 0.7312 0.91715 0.69484 0.0
O384 O 0.80942 0.96539 0.67372 0.0
O385 O 0.82541 0.95695 0.68768 0.0
O386 O 0.73491 0.91249 0.66011 0.0
O387 O 0.77664 0.89857 0.65595 0.0
O388 O 0.79557 0.87944 0.67951 0.0
O389 O 0.83001 0.91567 0.66961 0.0
O390 O 0.7421 0.83589 0.68745 0.0
O391 O 0.72702 0.84034 0.67309 0.0
H392 H 0.74959 0.87476 0.72189 0.0
H393 H 0.75985 0.90483 0.73605 0.0
H394 H 0.86671 0.99104 0.7274 0.0
H395 H 0.85602 0.96155 0.7132 0.0
H396 H 0.75661 0.85636 0.64279 0.0
H397 H 0.73046 0.83737 0.62829 0.0
H398 H 0.67111 0.8964 0.63156 0.0
H399 H 0.69834 0.91641 0.646 0.0
Pr400 Pr 0.12393 0.87783 0.69166 0.0
Pr401 Pr 0.11471 0.86395 0.67249 0.0
C402 C 0.12285 0.89431 0.70868 0.0
C403 C 0.10091 0.8819 0.71685 0.0
C404 C 0.09562 0.85048 0.72142 0.0
C405 C 0.07728 0.84112 0.72948 0.0
C406 C 0.06393 0.86301 0.73317 0.0
C407 C 0.0687 0.894 0.72848 0.0
C408 C 0.08701 0.90335 0.72045 0.0
C409 C 0.10313 0.80492 0.68675 0.0
C410 C 0.04303 0.85483 0.68284 0.0
C411 C 0.11034 0.83876 0.65605 0.0
C412 C 0.1272 0.84273 0.6473 0.0
C413 C 0.1241 0.86512 0.6409 0.0
C414 C 0.1347 0.86452 0.63228 0.0
C415 C 0.14859 0.84143 0.62979 0.0
C416 C 0.15287 0.81998 0.63626 0.0
C417 C 0.14217 0.82052 0.64489 0.0
C418 C 0.12703 0.93388 0.67668 0.0
C419 C 0.20013 0.90506 0.68097 0.0
O420 O 0.11066 0.90654 0.70241 0.0
O421 O 0.13843 0.87594 0.70581 0.0
O422 O 0.08952 0.82362 0.68387 0.0
O423 O 0.12909 0.82396 0.6923 0.0
O424 O 0.05273 0.84151 0.6762 0.0
O425 O 0.0667 0.87314 0.68909 0.0
O426 O 0.12192 0.82732 0.66263 0.0
O427 O 0.0999 0.86226 0.65831 0.0
O428 O 0.14413 0.91929 0.68017 0.0
O429 O 0.10517 0.91346 0.67052 0.0
O430 O 0.18594 0.91196 0.68788 0.0
O431 O 0.17841 0.88333 0.67469 0.0
H432 H 0.10617 0.83344 0.71887 0.0
H433 H 0.07448 0.81727 0.73292 0.0
H434 H 0.05831 0.9112 0.73103 0.0
H435 H 0.09082 0.92782 0.71712 0.0
H436 H 0.11215 0.88215 0.64246 0.0
H437 H 0.13047 0.88104 0.62749 0.0
H438 H 0.16394 0.80225 0.63463 0.0
H439 H 0.14456 0.80261 0.64962 0.0
Pr440 Pr 0.14342 0.24801 0.69211 0.0
Pr441 Pr 0.15522 0.25617 0.67131 0.0
C442 C 0.12628 0.24037 0.70922 0.0
C443 C 0.13715 0.23119 0.71763 0.0
C444 C 0.13777 0.2504 0.72517 0.0
C445 C 0.14636 0.24126 0.73328 0.0
C446 C 0.15449 0.21253 0.73406 0.0
C447 C 0.15439 0.19367 0.72645 0.0
C448 C 0.14585 0.2029 0.71833 0.0
C449 C 0.21685 0.28526 0.68634 0.0
C450 C 0.1569 0.1874 0.68196 0.0
C451 C 0.18733 0.2783 0.65547 0.0
C452 C 0.1834 0.28568 0.64613 0.0
C453 C 0.17755 0.25931 0.63972 0.0
C454 C 0.1784 0.26761 0.63084 0.0
C455 C 0.18537 0.30264 0.6281 0.0
C456 C 0.19035 0.32874 0.63453 0.0
C457 C 0.18952 0.32043 0.64341 0.0
C458 C 0.08142 0.20412 0.67497 0.0
C459 C 0.11698 0.30023 0.68068 0.0
O460 O 0.10969 0.21368 0.70353 0.0
O461 O 0.14934 0.27218 0.70566 0.0
O462 O 0.19099 0.28882 0.68312 0.0
O463 O 0.2052 0.26271 0.69289 0.0
O464 O 0.17161 0.21168 0.67551 0.0
O465 O 0.13936 0.19238 0.68849 0.0
O466 O 0.18805 0.30111 0.66141 0.0
O467 O 0.1715 0.24401 0.65815 0.0
O468 O 0.10677 0.22215 0.68036 0.0
O469 O 0.09372 0.21399 0.66707 0.0
O470 O 0.11822 0.28562 0.68826 0.0
O471 O 0.1306 0.29484 0.67341 0.0
H472 H 0.13128 0.27239 0.7248 0.0
H473 H 0.14677 0.25687 0.73894 0.0
H474 H 0.16013 0.17118 0.72678 0.0
H475 H 0.14563 0.18762 0.71262 0.0
H476 H 0.1732 0.23242 0.64155 0.0
H477 H 0.17392 0.24658 0.62611 0.0
H478 H 0.19623 0.35614 0.6327 0.0
H479 H 0.19474 0.34168 0.64814 0.0
Pr480 Pr 0.77875 0.58367 0.50497 0.0
Pr481 Pr 0.78863 0.57576 0.52579 0.0
C482 C 0.77349 0.60658 0.48882 0.0
C483 C 0.78817 0.61635 0.47978 0.0
C484 C 0.77379 0.5895 0.47318 0.0
C485 C 0.78331 0.59921 0.46445 0.0
C486 C 0.80738 0.63608 0.46205 0.0
C487 C 0.82276 0.66281 0.46868 0.0
C488 C 0.81311 0.65309 0.47743 0.0
C489 C 0.79031 0.5259 0.50962 0.0
C490 C 0.86436 0.62696 0.51387 0.0
C491 C 0.79297 0.55251 0.54188 0.0
C492 C 0.77473 0.5455 0.55053 0.0
C493 C 0.77219 0.57323 0.55512 0.0
C494 C 0.75541 0.56594 0.56335 0.0
C495 C 0.74061 0.53074 0.56715 0.0
C496 C 0.74304 0.50305 0.56251 0.0
C497 C 0.75998 0.51039 0.55432 0.0
C498 C 0.76075 0.62421 0.52259 0.0
C499 C 0.70789 0.52217 0.51617 0.0
O500 O 0.79092 0.62945 0.49523 0.0
O501 O 0.75755 0.57189 0.49115 0.0
O502 O 0.80565 0.55727 0.51323 0.0
O503 O 0.77128 0.5251 0.50285 0.0
O504 O 0.85047 0.61035 0.52141 0.0
O505 O 0.84337 0.62314 0.50699 0.0
O506 O 0.77386 0.5299 0.53557 0.0
O507 O 0.81324 0.5869 0.53932 0.0
O508 O 0.76854 0.60667 0.51721 0.0
O509 O 0.76909 0.6181 0.5303 0.0
O510 O 0.71755 0.54672 0.5098 0.0
O511 O 0.73161 0.5249 0.52221 0.0
H512 H 0.75419 0.561 0.47471 0.0
H513 H 0.77133 0.5778 0.45954 0.0
H514 H 0.84112 0.69152 0.46707 0.0
H515 H 0.8243 0.6746 0.48232 0.0
H516 H 0.78313 0.60056 0.55237 0.0
H517 H 0.75367 0.5878 0.56669 0.0
H518 H 0.73239 0.47578 0.56528 0.0
H519 H 0.76172 0.48857 0.55095 0.0
Pr520 Pr 0.4318 0.19825 0.50428 0.0
Pr521 Pr 0.43714 0.21378 0.52502 0.0
C522 C 0.41048 0.17197 0.48795 0.0
C523 C 0.39978 0.1772 0.47904 0.0
C524 C 0.42686 0.19598 0.47263 0.0
C525 C 0.41695 0.19624 0.46394 0.0
C526 C 0.37969 0.17765 0.46139 0.0
C527 C 0.35253 0.15996 0.46785 0.0
C528 C 0.36247 0.15959 0.47656 0.0
C529 C 0.48909 0.26714 0.50936 0.0
C530 C 0.3864 0.23869 0.51308 0.0
C531 C 0.45926 0.24068 0.54121 0.0
C532 C 0.46664 0.22918 0.54974 0.0
C533 C 0.44205 0.19479 0.55347 0.0
C534 C 0.44979 0.18472 0.56157 0.0
C535 C 0.4824 0.20869 0.56609 0.0
C536 C 0.50698 0.24299 0.5623 0.0
C537 C 0.49913 0.2531 0.55424 0.0
C538 C 0.38945 0.13764 0.52155 0.0
C539 C 0.49151 0.18691 0.51569 0.0
O540 O 0.38713 0.16382 0.4944 0.0
O541 O 0.44494 0.19244 0.49031 0.0
O542 O 0.45719 0.25108 0.51273 0.0
O543 O 0.4909 0.24892 0.5027 0.0
O544 O 0.40117 0.23955 0.52077 0.0
O545 O 0.39242 0.2236 0.5061 0.0
O546 O 0.48234 0.2455 0.53489 0.0
O547 O 0.42482 0.22544 0.53863 0.0
O548 O 0.4072 0.16326 0.51623 0.0
O549 O 0.39494 0.15162 0.5293 0.0
O550 O 0.46804 0.17319 0.50909 0.0
O551 O 0.48807 0.20727 0.52177 0.0
H552 H 0.45589 0.20956 0.47426 0.0
H553 H 0.43858 0.21055 0.45916 0.0
H554 H 0.32359 0.14504 0.46612 0.0
H555 H 0.34091 0.14437 0.48129 0.0
H556 H 0.41691 0.17563 0.55012 0.0
H557 H 0.43046 0.15795 0.56425 0.0
H558 H 0.53211 0.2623 0.56564 0.0
H559 H 0.5185 0.27976 0.55151 0.0
Pr560 Pr 0.81569 0.23553 0.50525 0.0
Pr561 Pr 0.80026 0.22579 0.52608 0.0
C562 C 0.84305 0.24112 0.48902 0.0
C563 C 0.83868 0.2254 0.48012 0.0
C564 C 0.8153 0.22825 0.47398 0.0
C565 C 0.81552 0.21852 0.46526 0.0
C566 C 0.83914 0.20573 0.46245 0.0
C567 C 0.86153 0.20161 0.46866 0.0
C568 C 0.86142 0.21149 0.47738 0.0
C569 C 0.7464 0.22267 0.51027 0.0
C570 C 0.77871 0.15046 0.51414 0.0
C571 C 0.77346 0.21921 0.54238 0.0
C572 C 0.78475 0.23723 0.55102 0.0
C573 C 0.8212 0.25266 0.55404 0.0
C574 C 0.83101 0.26904 0.56231 0.0
C575 C 0.80463 0.27048 0.56775 0.0
C576 C 0.76825 0.25529 0.56463 0.0
C577 C 0.75848 0.23887 0.55638 0.0
C578 C 0.87671 0.25746 0.52249 0.0
C579 C 0.8242 0.30574 0.5165 0.0
O580 O 0.85113 0.22604 0.49551 0.0
O581 O 0.822 0.2546 0.49129 0.0
O582 O 0.7629 0.20744 0.51376 0.0
O583 O 0.76432 0.24247 0.50355 0.0
O584 O 0.77902 0.1642 0.52194 0.0
O585 O 0.79099 0.17136 0.50705 0.0
O586 O 0.76805 0.23765 0.53621 0.0
O587 O 0.78947 0.201 0.5396 0.0
O588 O 0.85055 0.24737 0.51724 0.0
O589 O 0.86337 0.25122 0.53032 0.0
O590 O 0.83914 0.29653 0.51007 0.0
O591 O 0.80381 0.2818 0.52257 0.0
H592 H 0.79758 0.23908 0.47582 0.0
H593 H 0.79757 0.22159 0.46068 0.0
H594 H 0.88035 0.19223 0.46672 0.0
H595 H 0.88018 0.2095 0.48191 0.0
H596 H 0.84208 0.25189 0.55002 0.0
H597 H 0.85918 0.28006 0.56449 0.0
H598 H 0.74727 0.2564 0.56853 0.0
H599 H 0.73025 0.22737 0.55418 0.0
Pr600 Pr 0.92404 0.44325 0.68968 0.0
Pr601 Pr 0.91738 0.45042 0.66921 0.0
C602 C 0.94866 0.43242 0.705 0.0
C603 C 0.96083 0.44662 0.71391 0.0
C604 C 0.94313 0.46148 0.71886 0.0
C605 C 0.95285 0.47121 0.7276 0.0
C606 C 0.98049 0.46634 0.73156 0.0
C607 C 0.99879 0.45243 0.72647 0.0
C608 C 0.98903 0.44267 0.71776 0.0
C609 C 0.8772 0.4719 0.68692 0.0
C610 C 0.96939 0.52644 0.68036 0.0
C611 C 0.89848 0.44924 0.65229 0.0
C612 C 0.88818 0.42708 0.64413 0.0
C613 C 0.91268 0.41835 0.63991 0.0
C614 C 0.90346 0.4001 0.63185 0.0
C615 C 0.86956 0.39016 0.62778 0.0
C616 C 0.84485 0.3983 0.63213 0.0
C617 C 0.85409 0.41657 0.64017 0.0
C618 C 0.96881 0.43021 0.67477 0.0
C619 C 0.85599 0.37233 0.67931 0.0
O620 O 0.97079 0.4503 0.69849 0.0
O621 O 0.91363 0.41871 0.70316 0.0
O622 O 0.89318 0.46374 0.68107 0.0
O623 O 0.88605 0.4658 0.69462 0.0
O624 O 0.94861 0.51266 0.67334 0.0
O625 O 0.96898 0.50515 0.68681 0.0
O626 O 0.87451 0.43778 0.65865 0.0
O627 O 0.9326 0.46424 0.655 0.0
O628 O 0.93685 0.41825 0.67778 0.0
O629 O 0.97501 0.4531 0.66843 0.0
O630 O 0.87322 0.38524 0.6868 0.0
O631 O 0.86749 0.39088 0.67192 0.0
H632 H 0.92132 0.46489 0.71603 0.0
H633 H 0.93852 0.4823 0.73128 0.0
H634 H 0.01984 0.44782 0.72931 0.0
H635 H 1.00287 0.43103 0.71409 0.0
H636 H 0.93928 0.42619 0.64274 0.0
H637 H 0.92341 0.39471 0.62868 0.0
H638 H 0.81826 0.3906 0.62931 0.0
H639 H 0.83471 0.42304 0.64324 0.0
Pr640 Pr 0.57665 0.48485 0.68897 0.0
Pr641 Pr 0.57201 0.46687 0.66825 0.0
C642 C 0.57957 0.51445 0.70479 0.0
C643 C 0.56328 0.51186 0.71352 0.0
C644 C 0.55109 0.48042 0.7188 0.0
C645 C 0.54093 0.48083 0.7275 0.0
C646 C 0.54293 0.51273 0.73111 0.0
C647 C 0.55375 0.54356 0.72567 0.0
C648 C 0.56381 0.54311 0.717 0.0
C649 C 0.56557 0.41517 0.68487 0.0
C650 C 0.49358 0.44442 0.67897 0.0
C651 C 0.56901 0.43874 0.65228 0.0
C652 C 0.58759 0.45009 0.64371 0.0
C653 C 0.59953 0.48541 0.64027 0.0
C654 C 0.61664 0.49527 0.63208 0.0
C655 C 0.6224 0.47013 0.62719 0.0
C656 C 0.61063 0.43491 0.63071 0.0
C657 C 0.5934 0.42503 0.63887 0.0
C658 C 0.60175 0.54375 0.67116 0.0
C659 C 0.64869 0.49118 0.67912 0.0
O660 O 0.56508 0.52127 0.69798 0.0
O661 O 0.59319 0.49297 0.70312 0.0
O662 O 0.55128 0.43126 0.68079 0.0
O663 O 0.58322 0.43363 0.69176 0.0
O664 O 0.50937 0.44274 0.67163 0.0
O665 O 0.51285 0.45998 0.68616 0.0
O666 O 0.58816 0.43604 0.65871 0.0
O667 O 0.54837 0.45268 0.65464 0.0
O668 O 0.59081 0.51826 0.67664 0.0
O669 O 0.59747 0.52942 0.66347 0.0
O670 O 0.63867 0.50826 0.68483 0.0
O671 O 0.62588 0.46916 0.67308 0.0
H672 H 0.55055 0.45595 0.71631 0.0
H673 H 0.53296 0.45666 0.73149 0.0
H674 H 0.55503 0.56837 0.72817 0.0
H675 H 0.57324 0.56774 0.71308 0.0
H676 H 0.59567 0.50539 0.6439 0.0
H677 H 0.62574 0.52276 0.62963 0.0
H678 H 0.61419 0.41469 0.6271 0.0
H679 H 0.5844 0.39763 0.64139 0.0
Pr680 Pr 0.53537 0.09144 0.68822 0.0
Pr681 Pr 0.55148 0.10269 0.66638 0.0
C682 C 0.50157 0.06654 0.70373 0.0
C683 C 0.5054 0.05708 0.71289 0.0
C684 C 0.52144 0.08464 0.71931 0.0
C685 C 0.52121 0.07533 0.72809 0.0
C686 C 0.5048 0.03819 0.73071 0.0
C687 C 0.48948 0.01068 0.72425 0.0
C688 C 0.48965 0.02 0.71547 0.0
C689 C 0.60914 0.14182 0.68421 0.0
C690 C 0.57482 0.0487 0.67806 0.0
C691 C 0.57857 0.12535 0.65024 0.0
C692 C 0.56686 0.13231 0.64168 0.0
C693 C 0.53429 0.10574 0.63757 0.0
C694 C 0.52404 0.11308 0.62945 0.0
C695 C 0.54598 0.14721 0.62528 0.0
C696 C 0.57845 0.17375 0.62943 0.0
C697 C 0.58878 0.16632 0.63752 0.0
C698 C 0.47584 0.05626 0.67046 0.0
C699 C 0.53401 0.16092 0.67764 0.0
O700 O 0.49985 0.04442 0.69745 0.0
O701 O 0.51885 0.10147 0.70149 0.0
O702 O 0.58287 0.12346 0.67907 0.0
O703 O 0.59756 0.13332 0.69222 0.0
O704 O 0.57705 0.0659 0.67061 0.0
O705 O 0.55832 0.05149 0.68519 0.0
O706 O 0.58268 0.14823 0.65655 0.0
O707 O 0.56419 0.09095 0.65283 0.0
O708 O 0.5028 0.07139 0.67558 0.0
O709 O 0.48813 0.06536 0.66256 0.0
O710 O 0.52171 0.13811 0.68443 0.0
O711 O 0.54874 0.15479 0.67066 0.0
H712 H 0.53336 0.11349 0.71761 0.0
H713 H 0.5328 0.0973 0.73286 0.0
H714 H 0.47702 0.98181 0.72598 0.0
H715 H 0.47668 0.99805 0.71072 0.0
H716 H 0.51665 0.07934 0.64064 0.0
H717 H 0.49867 0.09218 0.62648 0.0
H718 H 0.59622 0.20013 0.62637 0.0
H719 H 0.61405 0.18723 0.64053 0.0
Pr720 Pr 0.5649 0.10584 0.16811 0.0
Pr721 Pr 0.57605 0.10056 0.189 0.0
C722 C 0.55936 0.12695 0.15182 0.0
C723 C 0.577 0.1325 0.14316 0.0
C724 C 0.59095 0.11008 0.1402 0.0
C725 C 0.60742 0.11588 0.13195 0.0
C726 C 0.61051 0.14437 0.12649 0.0
C727 C 0.59662 0.16682 0.12952 0.0
C728 C 0.58007 0.16092 0.13774 0.0
C729 C 0.59427 0.05906 0.17166 0.0
C730 C 0.64549 0.16148 0.17757 0.0
C731 C 0.58169 0.07821 0.20517 0.0
C732 C 0.56632 0.06662 0.21411 0.0
C733 C 0.56963 0.09274 0.22035 0.0
C734 C 0.56029 0.08258 0.22908 0.0
C735 C 0.54744 0.04606 0.23182 0.0
C736 C 0.54288 0.01968 0.22552 0.0
C737 C 0.55236 0.02988 0.21679 0.0
C738 C 0.56534 0.15824 0.18394 0.0
C739 C 0.48998 0.0552 0.18034 0.0
O740 O 0.57903 0.15035 0.15795 0.0
O741 O 0.53949 0.09294 0.15464 0.0
O742 O 0.58619 0.0768 0.1769 0.0
O743 O 0.58601 0.06446 0.16387 0.0
O744 O 0.63684 0.1371 0.18393 0.0
O745 O 0.62131 0.15802 0.17158 0.0
O746 O 0.56653 0.05523 0.19865 0.0
O747 O 0.59517 0.11282 0.20297 0.0
O748 O 0.54896 0.1263 0.18056 0.0
O749 O 0.58507 0.15972 0.19064 0.0
O750 O 0.50335 0.06763 0.17246 0.0
O751 O 0.51117 0.06363 0.18739 0.0
H752 H 0.58922 0.08814 0.14428 0.0
H753 H 0.61818 0.09834 0.1299 0.0
H754 H 0.59805 0.1887 0.12548 0.0
H755 H 0.56952 0.17856 0.13987 0.0
H756 H 0.58052 0.12136 0.21856 0.0
H757 H 0.56369 0.10354 0.23372 0.0
H758 H 0.53344 0.9914 0.2274 0.0
H759 H 0.55002 0.0092 0.21219 0.0
Pr760 Pr 0.91296 0.46665 0.16766 0.0
Pr761 Pr 0.92506 0.48447 0.18933 0.0
C762 C 0.88833 0.43849 0.15167 0.0
C763 C 0.88147 0.44979 0.14306 0.0
C764 C 0.90323 0.48596 0.13993 0.0
C765 C 0.89627 0.49588 0.13172 0.0
C766 C 0.86731 0.46987 0.12646 0.0
C767 C 0.84543 0.43376 0.1297 0.0
C768 C 0.85247 0.42389 0.13789 0.0
C769 C 0.96302 0.54195 0.17143 0.0
C770 C 0.85833 0.49037 0.1787 0.0
C771 C 0.95286 0.52016 0.20446 0.0
C772 C 0.96263 0.51634 0.21354 0.0
C773 C 0.93565 0.49311 0.21956 0.0
C774 C 0.94476 0.49303 0.22834 0.0
C775 C 0.98104 0.51615 0.2313 0.0
C776 C 1.00818 0.53848 0.22519 0.0
C777 C 0.99903 0.53865 0.21643 0.0
C778 C 0.87193 0.41093 0.18596 0.0
C779 C 0.96464 0.44096 0.17951 0.0
O780 O 0.86633 0.43608 0.15803 0.0
O781 O 0.92282 0.45231 0.1541 0.0
O782 O 0.94521 0.5157 0.1766 0.0
O783 O 0.95568 0.52897 0.16355 0.0
O784 O 0.87979 0.49967 0.18569 0.0
O785 O 0.86403 0.4762 0.17154 0.0
O786 O 0.97379 0.51986 0.19813 0.0
O787 O 0.91775 0.50411 0.20244 0.0
O788 O 0.89114 0.43578 0.18051 0.0
O789 O 0.88079 0.42431 0.19383 0.0
O790 O 0.94751 0.43878 0.17205 0.0
O791 O 0.96268 0.45847 0.18653 0.0
H792 H 0.92569 0.50652 0.14382 0.0
H793 H 0.91395 0.52381 0.12944 0.0
H794 H 0.8225 0.41313 0.12594 0.0
H795 H 0.83517 0.3959 0.1402 0.0
H796 H 0.90726 0.47567 0.21757 0.0
H797 H 0.92303 0.47576 0.23285 0.0
H798 H 0.03651 0.55619 0.22719 0.0
H799 H 0.02034 0.55694 0.21194 0.0
Pr800 Pr 0.55101 0.45534 0.1662 0.0
Pr801 Pr 0.53569 0.45141 0.18682 0.0
C802 C 0.5713 0.46669 0.14932 0.0
C803 C 0.55987 0.4477 0.14085 0.0
C804 C 0.52301 0.42105 0.13918 0.0
C805 C 0.51289 0.40328 0.13109 0.0
C806 C 0.53949 0.41167 0.12454 0.0
C807 C 0.57639 0.43832 0.12628 0.0
C808 C 0.58643 0.45613 0.13435 0.0
C809 C 0.47659 0.41968 0.17126 0.0
C810 C 0.53597 0.38123 0.17646 0.0
C811 C 0.50081 0.44077 0.20227 0.0
C812 C 0.50397 0.45243 0.21153 0.0
C813 C 0.52245 0.44279 0.21773 0.0
C814 C 0.5216 0.4505 0.22659 0.0
C815 C 0.50212 0.46788 0.22947 0.0
C816 C 0.48446 0.4783 0.22322 0.0
C817 C 0.48527 0.47056 0.21438 0.0
C818 C 0.60987 0.47258 0.1839 0.0
C819 C 0.57685 0.53378 0.17758 0.0
O820 O 0.58493 0.4532 0.15496 0.0
O821 O 0.5497 0.47743 0.15285 0.0
O822 O 0.50215 0.44883 0.17463 0.0
O823 O 0.489 0.40893 0.16483 0.0
O824 O 0.52 0.39061 0.18266 0.0
O825 O 0.55464 0.40387 0.17004 0.0
O826 O 0.50103 0.46307 0.19626 0.0
O827 O 0.51696 0.42232 0.19982 0.0
O828 O 0.58536 0.46563 0.17831 0.0
O829 O 0.59655 0.47029 0.19168 0.0
O830 O 0.57903 0.51795 0.17031 0.0
O831 O 0.55915 0.51458 0.18458 0.0
H832 H 0.50211 0.41389 0.14414 0.0
H833 H 0.48432 0.38259 0.13 0.0
H834 H 0.59749 0.44575 0.12136 0.0
H835 H 0.61502 0.4766 0.13552 0.0
H836 H 0.53682 0.42845 0.21578 0.0
H837 H 0.53518 0.44169 0.2312 0.0
H838 H 0.46965 0.49221 0.22516 0.0
H839 H 0.47049 0.47806 0.20978 0.0
Pr840 Pr 0.43547 0.22644 0.02424 0.0
Pr841 Pr 0.43345 0.23726 1.00519 0.0
C842 C 0.45018 0.22565 0.04137 0.0
C843 C 0.45771 0.24743 0.04951 0.0
C844 C 0.43041 0.23611 0.05597 0.0
C845 C 0.43795 0.25478 0.06393 0.0
C846 C 0.4731 0.28509 0.06566 0.0
C847 C 0.50028 0.29669 0.05914 0.0
C848 C 0.49272 0.27808 0.05117 0.0
C849 C 0.38397 0.24772 0.01915 0.0
C850 C 0.49502 0.30798 0.01595 0.0
C851 C 0.41556 0.24347 0.9886 0.0
C852 C 0.40432 0.22765 0.97973 0.0
C853 C 0.42972 0.24322 0.97287 0.0
C854 C 0.4189 0.23245 0.96426 0.0
C855 C 0.38229 0.20591 0.96227 0.0
C856 C 0.35707 0.18933 0.96916 0.0
C857 C 0.36792 0.20022 0.9778 0.0
C858 C 0.48949 0.223 1.0098 0.0
C859 C 0.38732 0.15124 1.01318 0.0
O860 O 0.47553 0.2384 0.03531 0.0
O861 O 0.4167 0.20984 0.03821 0.0
O862 O 0.41659 0.26169 0.01644 0.0
O863 O 0.37657 0.22126 0.0246 0.0
O864 O 0.47266 0.2989 1.0092 0.0
O865 O 0.48884 0.28372 0.02213 0.0
O866 O 0.39145 0.23103 0.99496 0.0
O867 O 0.44911 0.25366 0.99113 0.0
O868 O 0.45727 0.20622 1.01296 0.0
O869 O 0.4926 0.24591 1.00373 0.0
O870 O 0.40799 0.16476 0.02017 0.0
O871 O 0.388 0.17361 1.00697 0.0
H872 H 0.40327 0.21244 0.05492 0.0
H873 H 0.41618 0.24536 0.06874 0.0
H874 H 0.5278 0.31957 0.06028 0.0
H875 H 0.51457 0.28737 0.04638 0.0
H876 H 0.45786 0.26466 0.97412 0.0
H877 H 0.43916 0.2454 0.95913 0.0
H878 H 0.3286 0.16898 0.96784 0.0
H879 H 0.34756 0.18791 0.98293 0.0
Pr880 Pr 0.78833 0.20767 0.02467 0.0
Pr881 Pr 0.77806 0.19577 1.00524 0.0
C882 C 0.7875 0.22299 0.04181 0.0
C883 C 0.76522 0.21044 0.04997 0.0
C884 C 0.76595 0.18364 0.05538 0.0
C885 C 0.74772 0.17449 0.06344 0.0
C886 C 0.72837 0.19197 0.06635 0.0
C887 C 0.72717 0.21833 0.06087 0.0
C888 C 0.74543 0.22752 0.05281 0.0
C889 C 0.76804 0.13566 0.01929 0.0
C890 C 0.7066 0.18464 0.01597 0.0
C891 C 0.77307 0.17147 0.98869 0.0
C892 C 0.78941 0.17432 0.9799 0.0
C893 C 0.78502 0.19511 0.97329 0.0
C894 C 0.79519 0.19345 0.96468 0.0
C895 C 0.80987 0.17079 0.9624 0.0
C896 C 0.81531 0.15087 0.96907 0.0
C897 C 0.8051 0.15251 0.97769 0.0
C898 C 0.79166 0.26542 1.01022 0.0
C899 C 0.86401 0.23455 0.01352 0.0
O900 O 0.77682 0.23702 0.03563 0.0
O901 O 0.8017 0.20358 0.03881 0.0
O902 O 0.75423 0.15445 0.01655 0.0
O903 O 0.79331 0.15397 0.02504 0.0
O904 O 0.71642 0.17276 1.00908 0.0
O905 O 0.73021 0.20198 0.02232 0.0
O906 O 0.78342 0.15863 0.99523 0.0
O907 O 0.76438 0.19625 0.991 0.0
O908 O 0.80838 0.24979 0.01336 0.0
O909 O 0.76904 0.24604 1.00404 0.0
O910 O 0.85079 0.23828 0.021 0.0
O911 O 0.84208 0.21728 1.00684 0.0
H912 H 0.78113 0.1701 0.05346 0.0
H913 H 0.74892 0.15373 0.06741 0.0
H914 H 0.71304 0.23278 0.06291 0.0
H915 H 0.74474 0.24869 0.0489 0.0
H916 H 0.77243 0.2117 0.97469 0.0
H917 H 0.79006 0.2088 0.95974 0.0
H918 H 0.82698 0.1335 0.96761 0.0
H919 H 0.80847 0.13576 0.98258 0.0
Pr920 Pr 0.80514 0.57681 0.02533 0.0
Pr921 Pr 0.82018 0.58064 1.00448 0.0
C922 C 0.77809 0.5556 0.04155 0.0
C923 C 0.78903 0.5482 0.05018 0.0
C924 C 0.8228 0.57315 0.0541 0.0
C925 C 0.8321 0.56564 0.06233 0.0
C926 C 0.80791 0.53295 0.06682 0.0
C927 C 0.7743 0.50794 0.06281 0.0
C928 C 0.765 0.51553 0.05461 0.0
C929 C 0.88099 0.62387 0.02164 0.0
C930 C 0.83196 0.52195 0.01611 0.0
C931 C 0.84606 0.60073 0.98808 0.0
C932 C 0.84111 0.61129 0.97913 0.0
C933 C 0.82601 0.58438 0.97255 0.0
C934 C 0.82601 0.59441 0.96386 0.0
C935 C 0.84127 0.63168 0.96147 0.0
C936 C 0.85527 0.65855 0.96809 0.0
C937 C 0.85537 0.6485 0.97681 0.0
C938 C 0.75164 0.52386 1.00991 0.0
C939 C 0.7817 0.62809 1.0131 0.0
O940 O 0.77288 0.53215 0.03531 0.0
O941 O 0.79388 0.58996 0.03889 0.0
O942 O 0.85518 0.6057 0.01641 0.0
O943 O 0.86744 0.61883 0.02944 0.0
O944 O 0.84559 0.54513 1.00946 0.0
O945 O 0.81187 0.52574 0.02222 0.0
O946 O 0.85494 0.62448 0.99447 0.0
O947 O 0.82493 0.56646 0.99053 0.0
O948 O 0.76782 0.55616 1.01307 0.0
O949 O 0.76953 0.52132 1.00327 0.0
O950 O 0.78199 0.61505 0.02095 0.0
O951 O 0.79451 0.61959 1.00608 0.0
H952 H 0.84199 0.59855 0.05083 0.0
H953 H 0.85802 0.58576 0.06522 0.0
H954 H 0.75523 0.48221 0.06596 0.0
H955 H 0.73888 0.49577 0.05171 0.0
H956 H 0.81517 0.55549 0.97407 0.0
H957 H 0.81454 0.57293 0.95896 0.0
H958 H 0.86756 0.68754 0.96649 0.0
H959 H 0.86773 0.67003 0.98167 0.0
Pr960 Pr 0.44495 0.91665 0.83788 0.0
Pr961 Pr 0.45271 0.90786 0.85874 0.0
C962 C 0.44062 0.94047 0.82178 0.0
C963 C 0.4563 0.95259 0.81289 0.0
C964 C 0.45269 0.92679 0.80653 0.0
C965 C 0.46229 0.93753 0.79783 0.0
C966 C 0.47567 0.97434 0.79524 0.0
C967 C 0.48047 1.00035 0.80168 0.0
C968 C 0.47078 0.98958 0.81037 0.0
C969 C 0.45707 0.85936 0.84259 0.0
C970 C 0.52968 0.96105 0.84733 0.0
C971 C 0.4558 0.88446 0.87492 0.0
C972 C 0.43696 0.87737 0.8835 0.0
C973 C 0.43899 0.90617 0.88864 0.0
C974 C 0.4218 0.89881 0.89682 0.0
C975 C 0.40206 0.8625 0.90005 0.0
C976 C 0.39998 0.83377 0.89488 0.0
C977 C 0.41731 0.84115 0.88673 0.0
C978 C 0.42335 0.95495 0.85533 0.0
C979 C 0.37414 0.85298 0.84854 0.0
O980 O 0.45563 0.9629 0.8284 0.0
O981 O 0.42676 0.90567 0.82384 0.0
O982 O 0.47178 0.89056 0.8463 0.0
O983 O 0.43835 0.85852 0.83574 0.0
O984 O 0.51487 0.94485 0.85486 0.0
O985 O 0.50939 0.95614 0.84024 0.0
O986 O 0.4372 0.86195 0.86854 0.0
O987 O 0.47637 0.91884 0.87238 0.0
O988 O 0.43243 0.93819 0.85003 0.0
O989 O 0.43078 0.94851 0.86311 0.0
O990 O 0.38342 0.87847 0.84242 0.0
O991 O 0.39763 0.85565 0.85463 0.0
H992 H 0.44118 0.89795 0.80818 0.0
H993 H 0.45773 0.91656 0.79308 0.0
H994 H 0.4912 0.02904 0.79998 0.0
H995 H 0.47354 0.01008 0.81508 0.0
H996 H 0.4539 0.93443 0.88637 0.0
H997 H 0.42368 0.92157 0.90058 0.0
H998 H 0.38549 0.80556 0.8972 0.0
H999 H 0.41554 0.81843 0.88297 0.0
Pr1000 Pr 0.09357 0.52944 0.83792 0.0
Pr1001 Pr 0.10524 0.55041 0.85954 0.0
C1002 C 0.06626 0.49106 0.82308 0.0
C1003 C 0.0552 0.49255 0.81402 0.0
C1004 C 0.07456 0.52424 0.80884 0.0
C1005 C 0.06547 0.52364 0.80002 0.0
C1006 C 0.03691 0.49131 0.79622 0.0
C1007 C 0.01696 0.46004 0.80153 0.0
C1008 C 0.02605 0.46069 0.81032 0.0
C1009 C 0.14596 0.60375 0.84084 0.0
C1010 C 0.0534 0.57355 0.84721 0.0
C1011 C 0.12932 0.57863 0.87554 0.0
C1012 C 0.13605 0.56695 0.88413 0.0
C1013 C 0.112 0.53185 0.8876 0.0
C1014 C 0.11928 0.52141 0.89572 0.0
C1015 C 0.1509 0.54572 0.90052 0.0
C1016 C 0.17491 0.58079 0.89699 0.0
C1017 C 0.16752 0.59125 0.8889 0.0
C1018 C 0.05582 0.47451 0.85589 0.0
C1019 C 0.16024 0.52572 0.84921 0.0
O1020 O 0.04509 0.49102 0.82939 0.0
O1021 O 0.10159 0.50971 0.82489 0.0
O1022 O 0.12686 0.57957 0.84645 0.0
O1023 O 0.13715 0.58926 0.83307 0.0
O1024 O 0.0734 0.57974 0.85439 0.0
O1025 O 0.05268 0.552 0.84073 0.0
O1026 O 0.15156 0.58133 0.86921 0.0
O1027 O 0.0949 0.56498 0.87304 0.0
O1028 O 0.07444 0.50072 0.85083 0.0
O1029 O 0.06193 0.48782 0.86374 0.0
O1030 O 0.13778 0.5134 0.84237 0.0
O1031 O 0.15513 0.54276 0.85588 0.0
H1032 H 0.09721 0.54918 0.81155 0.0
H1033 H 0.08158 0.54813 0.79612 0.0
H1034 H 0.9944 0.43489 0.79888 0.0
H1035 H 0.01073 0.43594 0.8142 0.0
H1036 H 0.08769 0.5124 0.88402 0.0
H1037 H 0.10042 0.49406 0.89817 0.0
H1038 H 0.19926 0.6004 0.90053 0.0
H1039 H 0.18649 0.61844 0.88637 0.0
Pr1040 Pr 0.48269 0.5688 0.83826 0.0
Pr1041 Pr 0.46717 0.55939 0.85904 0.0
C1042 C 0.51061 0.57406 0.82212 0.0
C1043 C 0.50835 0.55807 0.81337 0.0
C1044 C 0.47597 0.54307 0.80835 0.0
C1045 C 0.47617 0.53292 0.79965 0.0
C1046 C 0.50875 0.5376 0.79576 0.0
C1047 C 0.54074 0.55149 0.80093 0.0
C1048 C 0.5405 0.56158 0.80961 0.0
C1049 C 0.41417 0.55792 0.84328 0.0
C1050 C 0.44349 0.48363 0.84717 0.0
C1051 C 0.44049 0.55341 0.87531 0.0
C1052 C 0.4524 0.57138 0.88397 0.0
C1053 C 0.48433 0.57576 0.8881 0.0
C1054 C 0.49453 0.59217 0.89636 0.0
C1055 C 0.47321 0.6048 0.90065 0.0
C1056 C 0.44143 0.6006 0.89645 0.0
C1057 C 0.43114 0.58402 0.88823 0.0
C1058 C 0.54356 0.59004 0.85563 0.0
C1059 C 0.49145 0.63946 0.8494 0.0
O1060 O 0.52059 0.56155 0.82879 0.0
O1061 O 0.48678 0.58449 0.82409 0.0
O1062 O 0.42986 0.5418 0.84674 0.0
O1063 O 0.4326 0.57786 0.83661 0.0
O1064 O 0.44527 0.49765 0.85501 0.0
O1065 O 0.45521 0.50421 0.84002 0.0
O1066 O 0.4358 0.57239 0.86915 0.0
O1067 O 0.4551 0.53395 0.8725 0.0
O1068 O 0.51776 0.58036 0.85027 0.0
O1069 O 0.52984 0.58394 0.86342 0.0
O1070 O 0.50591 0.63002 0.8429 0.0
O1071 O 0.47144 0.61572 0.85555 0.0
H1072 H 0.45074 0.54006 0.81107 0.0
H1073 H 0.45087 0.52182 0.79593 0.0
H1074 H 0.56648 0.556 0.79817 0.0
H1075 H 0.56593 0.57346 0.81331 0.0
H1076 H 0.50147 0.56652 0.88497 0.0
H1077 H 0.5194 0.59534 0.89934 0.0
H1078 H 0.42411 0.60959 0.89959 0.0
H1079 H 0.40634 0.58087 0.88521 0.0
Pr1080 Pr 0.58638 0.77163 0.02138 0.0
Pr1081 Pr 0.58489 0.78254 1.00214 0.0
C1082 C 0.60527 0.76592 0.03794 0.0
C1083 C 0.61884 0.78238 0.0467 0.0
C1084 C 0.59523 0.78532 0.05277 0.0
C1085 C 0.60636 0.79538 0.06143 0.0
C1086 C 0.64135 0.80269 0.06427 0.0
C1087 C 0.66541 0.80101 0.05812 0.0
C1088 C 0.65423 0.79084 0.04947 0.0
C1089 C 0.53113 0.78686 0.01664 0.0
C1090 C 0.63558 0.8576 1.0132 0.0
C1091 C 0.56913 0.78283 0.98502 0.0
C1092 C 0.55878 0.7605 0.97691 0.0
C1093 C 0.58255 0.75014 0.97294 0.0
C1094 C 0.57333 0.73155 0.96493 0.0
C1095 C 0.54011 0.72282 0.96069 0.0
C1096 C 0.51613 0.73267 0.96475 0.0
C1097 C 0.52542 0.75135 0.97274 0.0
C1098 C 0.63572 0.76075 1.00737 0.0
C1099 C 0.52484 0.70103 1.0106 0.0
O1100 O 0.62849 0.77594 0.03141 0.0
O1101 O 0.57201 0.75778 0.03559 0.0
O1102 O 0.5634 0.80323 0.01345 0.0
O1103 O 0.52764 0.76377 0.02272 0.0
O1104 O 0.61761 0.84476 1.00582 0.0
O1105 O 0.63093 0.83523 0.01979 0.0
O1106 O 0.54438 0.77259 0.99118 0.0
O1107 O 0.60258 0.79594 0.98804 0.0
O1108 O 0.60308 0.74711 1.01007 0.0
O1109 O 0.64318 0.78668 1.00176 0.0
O1110 O 0.54645 0.71014 0.01749 0.0
O1111 O 0.5317 0.72508 1.00432 0.0
H1112 H 0.56765 0.77875 0.05091 0.0
H1113 H 0.58726 0.79688 0.06594 0.0
H1114 H 0.69238 0.80602 0.06007 0.0
H1115 H 0.67288 0.78827 0.04501 0.0
H1116 H 0.60851 0.75677 0.97597 0.0
H1117 H 0.59225 0.72401 0.96206 0.0
H1118 H 0.49057 0.72688 0.96165 0.0
H1119 H 0.50673 0.7593 0.97558 0.0
Pr1120 Pr 0.24259 0.81465 0.0215 0.0
Pr1121 Pr 0.23246 0.79814 1.00082 0.0
C1122 C 0.24736 0.84216 0.0377 0.0
C1123 C 0.23195 0.83779 0.04664 0.0
C1124 C 0.23733 0.81645 0.05293 0.0
C1125 C 0.22778 0.81686 0.06166 0.0
C1126 C 0.21266 0.83865 0.06436 0.0
C1127 C 0.20612 0.85899 0.05801 0.0
C1128 C 0.21581 0.8587 0.04928 0.0
C1129 C 0.23072 0.74546 0.01664 0.0
C1130 C 0.15706 0.77476 1.01278 0.0
C1131 C 0.22629 0.76978 0.98474 0.0
C1132 C 0.24486 0.78085 0.97617 0.0
C1133 C 0.26154 0.81752 0.97323 0.0
C1134 C 0.27895 0.82733 0.96508 0.0
C1135 C 0.2803 0.80073 0.95971 0.0
C1136 C 0.2637 0.76408 0.96272 0.0
C1137 C 0.24618 0.7543 0.97085 0.0
C1138 C 0.26221 0.8746 1.00388 0.0
C1139 C 0.31339 0.82462 1.01028 0.0
O1140 O 0.23147 0.84918 0.0312 0.0
O1141 O 0.26195 0.82205 0.03546 0.0
O1142 O 0.21501 0.76152 1.0132 0.0
O1143 O 0.25091 0.76392 0.02326 0.0
O1144 O 0.17076 0.77615 1.00492 0.0
O1145 O 0.17795 0.78692 0.01987 0.0
O1146 O 0.24469 0.7651 0.99104 0.0
O1147 O 0.20777 0.78575 0.9873 0.0
O1148 O 0.25344 0.8495 1.00942 0.0
O1149 O 0.25559 0.8601 0.99617 0.0
O1150 O 0.30373 0.839 0.01675 0.0
O1151 O 0.28959 0.80394 1.00423 0.0
H1152 H 0.24997 0.80023 0.05118 0.0
H1153 H 0.23278 0.80048 0.06634 0.0
H1154 H 0.19491 0.87639 0.05985 0.0
H1155 H 0.21186 0.87592 0.04464 0.0
H1156 H 0.2612 0.83862 0.97725 0.0
H1157 H 0.29182 0.85586 0.96303 0.0
H1158 H 0.26379 0.74279 0.95874 0.0
H1159 H 0.23353 0.72586 0.97298 0.0
Pr1160 Pr 0.19992 0.42844 0.02156 0.0
Pr1161 Pr 0.21561 0.43264 1.00071 0.0
C1162 C 0.17332 0.40767 0.03789 0.0
C1163 C 0.17793 0.39601 0.04674 0.0
C1164 C 0.1971 0.42248 0.05324 0.0
C1165 C 0.19717 0.41181 0.06188 0.0
C1166 C 0.17793 0.37436 0.06429 0.0
C1167 C 0.15965 0.34782 0.05773 0.0
C1168 C 0.15954 0.35851 0.04908 0.0
C1169 C 0.26878 0.48481 0.01631 0.0
C1170 C 0.2383 0.38075 1.01295 0.0
C1171 C 0.24239 0.45433 0.98448 0.0
C1172 C 0.23102 0.46231 0.97596 0.0
C1173 C 0.20003 0.4354 0.9714 0.0
C1174 C 0.19027 0.4436 0.96331 0.0
C1175 C 0.21112 0.47893 0.95959 0.0
C1176 C 0.24201 0.50579 0.96418 0.0
C1177 C 0.25186 0.49753 0.97224 0.0
C1178 C 0.13958 0.38621 1.0043 0.0
C1179 C 0.19023 0.48864 1.01003 0.0
O1180 O 0.16382 0.38433 0.03139 0.0
O1181 O 0.19529 0.44197 0.03557 0.0
O1182 O 0.25251 0.4527 1.01304 0.0
O1183 O 0.25086 0.48729 0.02296 0.0
O1184 O 0.2384 0.39402 1.0051 0.0
O1185 O 0.22529 0.38921 0.01995 0.0
O1186 O 0.24822 0.47757 0.99083 0.0
O1187 O 0.22658 0.41985 0.98708 0.0
O1188 O 0.16535 0.40412 1.00955 0.0
O1189 O 0.15327 0.39114 0.99652 0.0
O1190 O 0.17596 0.46532 0.01663 0.0
O1191 O 0.20998 0.48432 1.00391 0.0
H1192 H 0.21107 0.45166 0.05173 0.0
H1193 H 0.21111 0.43311 0.06674 0.0
H1194 H 0.14493 0.3187 0.05931 0.0
H1195 H 0.14413 0.33739 0.04428 0.0
H1196 H 0.18326 0.408 0.97409 0.0
H1197 H 0.1661 0.42236 0.96001 0.0
H1198 H 0.259 0.53311 0.96148 0.0
H1199 H 0.27599 0.51874 0.97557 0.0
Pr1200 Pr 0.23019 0.43511 0.50055 0.0
Pr1201 Pr 0.2349 0.42047 0.52103 0.0
C1202 C 0.22128 0.44804 0.48376 0.0
C1203 C 0.24087 0.45686 0.47524 0.0
C1204 C 0.25212 0.43355 0.47141 0.0
C1205 C 0.26955 0.44204 0.46325 0.0
C1206 C 0.27625 0.47408 0.4587 0.0
C1207 C 0.26524 0.49749 0.46262 0.0
C1208 C 0.24772 0.48892 0.47075 0.0
C1209 C 0.26438 0.39399 0.50486 0.0
C1210 C 0.30593 0.49032 0.51085 0.0
C1211 C 0.24401 0.39316 0.53624 0.0
C1212 C 0.23305 0.38509 0.54556 0.0
C1213 C 0.24051 0.41325 0.5516 0.0
C1214 C 0.23301 0.40512 0.5605 0.0
C1215 C 0.21788 0.36867 0.56358 0.0
C1216 C 0.20983 0.34053 0.55748 0.0
C1217 C 0.2174 0.34867 0.54861 0.0
C1218 C 0.21572 0.47562 0.519 0.0
C1219 C 0.1521 0.38249 0.51191 0.0
O1220 O 0.23456 0.47394 0.48971 0.0
O1221 O 0.20867 0.41479 0.48696 0.0
O1222 O 0.23575 0.39075 0.50844 0.0
O1223 O 0.27536 0.41805 0.49863 0.0
O1224 O 0.29612 0.46391 0.51679 0.0
O1225 O 0.28296 0.48848 0.50473 0.0
O1226 O 0.22006 0.37263 0.5303 0.0
O1227 O 0.26474 0.42758 0.53382 0.0
O1228 O 0.22146 0.45827 0.51309 0.0
O1229 O 0.2194 0.46387 0.52658 0.0
O1230 O 0.16762 0.40191 0.50476 0.0
O1231 O 0.17151 0.38197 0.51866 0.0
H1232 H 0.24724 0.40858 0.47468 0.0
H1233 H 0.27717 0.42308 0.46043 0.0
H1234 H 0.27041 0.5227 0.45943 0.0
H1235 H 0.23939 0.50741 0.47354 0.0
H1236 H 0.25267 0.44165 0.54949 0.0
H1237 H 0.23917 0.42748 0.56496 0.0
H1238 H 0.19869 0.31224 0.55959 0.0
H1239 H 0.21178 0.32645 0.54414 0.0
Pr1240 Pr 0.58405 0.79911 0.50251 0.0
Pr1241 Pr 0.58522 0.81239 0.52168 0.0
C1242 C 0.56829 0.78249 0.48543 0.0
C1243 C 0.55785 0.79432 0.47732 0.0
C1244 C 0.58101 0.82889 0.47347 0.0
C1245 C 0.57163 0.83823 0.46547 0.0
C1246 C 0.53892 0.81323 0.46112 0.0
C1247 C 0.51551 0.77898 0.46509 0.0
C1248 C 0.52492 0.76964 0.47306 0.0
C1249 C 0.63495 0.87196 0.50764 0.0
C1250 C 0.52446 0.8218 0.51071 0.0
C1251 C 0.60433 0.83814 0.53809 0.0
C1252 C 0.61637 0.83374 0.54686 0.0
C1253 C 0.59396 0.80302 0.55212 0.0
C1254 C 0.60318 0.80206 0.56084 0.0
C1255 C 0.635 0.83174 0.5645 0.0
C1256 C 0.6581 0.86175 0.55912 0.0
C1257 C 0.6488 0.86276 0.55042 0.0
C1258 C 0.52898 0.7425 0.51714 0.0
C1259 C 0.63286 0.77309 0.51391 0.0
O1260 O 0.54356 0.76812 0.4916 0.0
O1261 O 0.60175 0.80293 0.48843 0.0
O1262 O 0.6023 0.85297 0.5103 0.0
O1263 O 0.64256 0.85339 0.50209 0.0
O1264 O 0.54642 0.83486 0.51753 0.0
O1265 O 0.53091 0.80386 0.50454 0.0
O1266 O 0.62809 0.8494 0.53166 0.0
O1267 O 0.57055 0.81471 0.53569 0.0
O1268 O 0.56126 0.75738 0.51394 0.0
O1269 O 0.52616 0.76271 0.52316 0.0
O1270 O 0.61643 0.76924 0.50636 0.0
O1271 O 0.62762 0.79039 0.52049 0.0
H1272 H 0.60668 0.84853 0.47656 0.0
H1273 H 0.59054 0.86469 0.46259 0.0
H1274 H 0.48981 0.75925 0.46203 0.0
H1275 H 0.50659 0.74279 0.47586 0.0
H1276 H 0.56872 0.78018 0.54958 0.0
H1277 H 0.58505 0.77832 0.56477 0.0
H1278 H 0.68258 0.88525 0.56174 0.0
H1279 H 0.66632 0.88696 0.54654 0.0
Pr1280 Pr 0.21823 0.78397 0.50205 0.0
Pr1281 Pr 0.20149 0.77515 0.52277 0.0
C1282 C 0.24629 0.78968 0.48595 0.0
C1283 C 0.235 0.77147 0.47733 0.0
C1284 C 0.20078 0.7622 0.47359 0.0
C1285 C 0.19092 0.74518 0.4654 0.0
C1286 C 0.21491 0.73681 0.4608 0.0
C1287 C 0.24903 0.74596 0.4646 0.0
C1288 C 0.25895 0.76315 0.47276 0.0
C1289 C 0.14143 0.75262 0.50512 0.0
C1290 C 0.19546 0.70517 0.51208 0.0
C1291 C 0.17363 0.77044 0.53891 0.0
C1292 C 0.17889 0.78612 0.54784 0.0
C1293 C 0.19525 0.77545 0.55437 0.0
C1294 C 0.19574 0.78592 0.56305 0.0
C1295 C 0.17976 0.80726 0.56547 0.0
C1296 C 0.16432 0.81881 0.55889 0.0
C1297 C 0.16376 0.80825 0.5502 0.0
C1298 C 0.27092 0.7876 0.51801 0.0
C1299 C 0.24079 0.86019 0.51372 0.0
O1300 O 0.25033 0.7707 0.49222 0.0
O1301 O 0.23136 0.80912 0.48857 0.0
O1302 O 0.16676 0.76262 0.51063 0.0
O1303 O 0.15584 0.75857 0.4974 0.0
O1304 O 0.17863 0.71394 0.51813 0.0
O1305 O 0.21642 0.72907 0.50606 0.0
O1306 O 0.16739 0.78698 0.53242 0.0
O1307 O 0.19285 0.7549 0.53666 0.0
O1308 O 0.25442 0.80259 0.51445 0.0
O1309 O 0.25301 0.76826 0.52479 0.0
O1310 O 0.23967 0.84596 0.50593 0.0
O1311 O 0.2286 0.83972 0.52088 0.0
H1312 H 0.1816 0.768 0.477 0.0
H1313 H 0.16427 0.73813 0.46272 0.0
H1314 H 0.26836 0.74032 0.46121 0.0
H1315 H 0.28549 0.77006 0.4755 0.0
H1316 H 0.20662 0.75787 0.55285 0.0
H1317 H 0.20738 0.77598 0.56792 0.0
H1318 H 0.15216 0.83564 0.56047 0.0
H1319 H 0.15055 0.81661 0.54536 0.0
Pr1320 Pr 0.10519 0.56518 0.35997 0.0
Pr1321 Pr 0.09307 0.56754 0.33819 0.0
C1322 C 0.12767 0.56106 0.37615 0.0
C1323 C 0.1356 0.58026 0.38467 0.0
C1324 C 0.10948 0.5865 0.38894 0.0
C1325 C 0.11745 0.60397 0.39708 0.0
C1326 C 0.15177 0.61582 0.40112 0.0
C1327 C 0.17791 0.60977 0.39679 0.0
C1328 C 0.16986 0.59213 0.38868 0.0
C1329 C 0.05881 0.59434 0.3557 0.0
C1330 C 0.16242 0.64025 0.34839 0.0
C1331 C 0.06806 0.57623 0.3227 0.0
C1332 C 0.05862 0.56253 0.31361 0.0
C1333 C 0.08608 0.57472 0.30715 0.0
C1334 C 0.07671 0.56522 0.29841 0.0
C1335 C 0.03962 0.54337 0.29588 0.0
C1336 C 0.01223 0.53044 0.30237 0.0
C1337 C 0.02161 0.54002 0.31112 0.0
C1338 C 0.14319 0.54383 0.34225 0.0
C1339 C 0.04945 0.48651 0.34866 0.0
O1340 O 0.15068 0.57865 0.36976 0.0
O1341 O 0.09309 0.54204 0.37364 0.0
O1342 O 0.07342 0.58159 0.35067 0.0
O1343 O 0.06824 0.59192 0.36362 0.0
O1344 O 0.14096 0.62759 0.3414 0.0
O1345 O 0.15605 0.62156 0.35576 0.0
O1346 O 0.046 0.55604 0.32901 0.0
O1347 O 0.103 0.59389 0.32492 0.0
O1348 O 0.1257 0.55286 0.34741 0.0
O1349 O 0.13375 0.54572 0.33425 0.0
O1350 O 0.06738 0.50217 0.35601 0.0
O1351 O 0.05201 0.50546 0.34149 0.0
H1352 H 0.08288 0.57787 0.386 0.0
H1353 H 0.09684 0.60855 0.40018 0.0
H1354 H 0.20442 0.61811 0.39974 0.0
H1355 H 0.19041 0.58753 0.38555 0.0
H1356 H 0.11485 0.59255 0.30879 0.0
H1357 H 0.09853 0.57618 0.29359 0.0
H1358 H 0.98342 0.5132 0.30069 0.0
H1359 H 0.99974 0.53048 0.31591 0.0
Pr1360 Pr 0.4503 0.54662 0.35784 0.0
Pr1361 Pr 0.44434 0.52982 0.33607 0.0
C1362 C 0.4532 0.57344 0.37397 0.0
C1363 C 0.43468 0.56165 0.38255 0.0
C1364 C 0.42174 0.52582 0.38578 0.0
C1365 C 0.40471 0.51557 0.39398 0.0
C1366 C 0.40012 0.54087 0.39914 0.0
C1367 C 0.41285 0.57661 0.3958 0.0
C1368 C 0.42992 0.58683 0.38763 0.0
C1369 C 0.42551 0.47166 0.35376 0.0
C1370 C 0.37169 0.52297 0.34694 0.0
C1371 C 0.43679 0.49467 0.32084 0.0
C1372 C 0.4505 0.49806 0.31176 0.0
C1373 C 0.44275 0.51733 0.30537 0.0
C1374 C 0.45209 0.51671 0.29663 0.0
C1375 C 0.46936 0.49675 0.29404 0.0
C1376 C 0.47796 0.47831 0.30049 0.0
C1377 C 0.46852 0.47886 0.30922 0.0
C1378 C 0.464 0.60299 0.33965 0.0
C1379 C 0.5276 0.57329 0.34591 0.0
O1380 O 0.43407 0.57663 0.36761 0.0
O1381 O 0.47384 0.55966 0.37148 0.0
O1382 O 0.43354 0.49818 0.34872 0.0
O1383 O 0.43128 0.48413 0.36169 0.0
O1384 O 0.38382 0.51433 0.33983 0.0
O1385 O 0.39163 0.53669 0.35411 0.0
O1386 O 0.45745 0.49433 0.32724 0.0
O1387 O 0.41818 0.51125 0.32283 0.0
O1388 O 0.4589 0.57812 0.34506 0.0
O1389 O 0.45947 0.58986 0.33175 0.0
O1390 O 0.51266 0.57471 0.35344 0.0
O1391 O 0.50811 0.5564 0.33883 0.0
H1392 H 0.42493 0.50579 0.38198 0.0
H1393 H 0.39565 0.48795 0.39633 0.0
H1394 H 0.40928 0.59669 0.39947 0.0
H1395 H 0.43946 0.61454 0.38526 0.0
H1396 H 0.42855 0.53213 0.30706 0.0
H1397 H 0.44457 0.53086 0.29186 0.0
H1398 H 0.49171 0.46309 0.29878 0.0
H1399 H 0.4746 0.46348 0.31397 0.0
Pr1400 Pr 0.46601 0.90761 0.36009 0.0
Pr1401 Pr 0.48441 0.92233 0.33841 0.0
C1402 C 0.43798 0.88449 0.37615 0.0
C1403 C 0.44968 0.87947 0.38489 0.0
C1404 C 0.4853 0.90334 0.38808 0.0
C1405 C 0.49571 0.89779 0.39637 0.0
C1406 C 0.47077 0.86816 0.40164 0.0
C1407 C 0.4352 0.84426 0.39836 0.0
C1408 C 0.42482 0.8499 0.39009 0.0
C1409 C 0.54221 0.9553 0.35643 0.0
C1410 C 0.48498 0.85178 0.3486 0.0
C1411 C 0.51904 0.94774 0.32299 0.0
C1412 C 0.51525 0.95602 0.31373 0.0
C1413 C 0.51002 0.9304 0.30717 0.0
C1414 C 0.51035 0.93925 0.29836 0.0
C1415 C 0.51615 0.97408 0.29584 0.0
C1416 C 0.52059 0.99946 0.3024 0.0
C1417 C 0.52031 0.99062 0.31123 0.0
C1418 C 0.41011 0.87066 0.34189 0.0
C1419 C 0.44381 0.96301 0.34871 0.0
O1420 O 0.43675 0.86204 0.37003 0.0
O1421 O 0.45047 0.91847 0.37342 0.0
O1422 O 0.51553 0.94096 0.35123 0.0
O1423 O 0.52925 0.94494 0.36424 0.0
O1424 O 0.49964 0.87665 0.34225 0.0
O1425 O 0.46765 0.85559 0.35538 0.0
O1426 O 0.51881 0.96948 0.32913 0.0
O1427 O 0.50327 0.913 0.32535 0.0
O1428 O 0.43591 0.88824 0.34719 0.0
O1429 O 0.42245 0.88093 0.33399 0.0
O1430 O 0.4377 0.9416 0.35564 0.0
O1431 O 0.46484 0.96461 0.34205 0.0
H1432 H 0.50507 0.92628 0.38417 0.0
H1433 H 0.52318 0.91698 0.3987 0.0
H1434 H 0.41544 0.82078 0.40213 0.0
H1435 H 0.3973 0.83098 0.38773 0.0
H1436 H 0.50645 0.90365 0.30882 0.0
H1437 H 0.50633 0.91879 0.29351 0.0
H1438 H 0.52555 0.0267 0.30072 0.0
H1439 H 0.52498 0.01126 0.31609 0.0
C1440 C 0.1659 0.17194 0.18315 0.0
C1441 C 0.13397 0.16515 0.17866 0.0
C1442 C 0.17436 0.14358 0.18441 0.0
C1443 C 0.15 0.10758 0.18122 0.0
C1444 C 0.11707 0.10049 0.17697 0.0
C1445 C 0.10966 0.12937 0.17569 0.0
C1446 C 0.20972 0.15229 0.18897 0.0
C1447 C 0.08981 0.06245 0.17364 0.0
C1448 C 0.17963 0.03714 0.17591 0.0
C1449 C 0.16477 0.01258 0.18295 0.0
C1450 C 0.1768 0.06927 0.17549 0.0
C1451 C 0.15857 0.07706 0.18224 0.0
C1452 C 0.14524 0.0534 0.18956 0.0
C1453 C 0.14857 0.02161 0.18983 0.0
C1454 C 0.19164 0.09389 0.1676 0.0
C1455 C 0.12552 0.06045 0.19689 0.0
H1456 H 0.18481 0.19961 0.18544 0.0
H1457 H 0.08474 0.12393 0.17228 0.0
H1458 H 0.20373 0.13365 0.19463 0.0
H1459 H 0.22761 0.14747 0.18447 0.0
H1460 H 0.2252 0.1813 0.19128 0.0
H1461 H 0.06489 0.06124 0.17076 0.0
H1462 H 0.1031 0.05392 0.16862 0.0
H1463 H 0.08098 0.04206 0.17901 0.0
H1464 H 0.19224 0.03059 0.17056 0.0
H1465 H 0.13709 1.00308 0.19534 0.0
H1466 H 0.20878 0.12313 0.16961 0.0
H1467 H 0.16835 0.09171 0.16369 0.0
H1468 H 0.20847 0.08639 0.16339 0.0
H1469 H 0.14175 0.08944 0.19915 0.0
H1470 H 0.12039 0.04186 0.20253 0.0
H1471 H 0.0986 0.05612 0.19453 0.0
C1472 C 1.00729 0.12301 0.1844 0.0
C1473 C 1.00883 0.15584 0.18175 0.0
C1474 C 0.97496 0.08878 0.18347 0.0
C1475 C 0.94287 0.08729 0.18003 0.0
C1476 C 0.94388 0.1205 0.1776 0.0
C1477 C 0.97709 0.15439 0.17835 0.0
C1478 C 0.97565 0.0541 0.18585 0.0
C1479 C 0.91005 0.12014 0.17409 0.0
C1480 C 0.87426 0.99803 0.16884 0.0
C1481 C 0.84871 0.97923 0.17549 0.0
C1482 C 0.90472 0.03329 0.17022 0.0
C1483 C 0.90931 0.05072 0.17839 0.0
C1484 C 0.883 0.03223 0.18507 0.0
C1485 C 0.85321 0.99642 0.18358 0.0
C1486 C 0.9326 0.0514 0.163 0.0
C1487 C 0.8865 0.05015 0.19381 0.0
H1488 H 0.03193 0.12389 0.18691 0.0
H1489 H 0.97818 0.17972 0.17631 0.0
H1490 H 0.95379 0.03782 0.19069 0.0
H1491 H 0.96989 0.03655 0.17999 0.0
H1492 H 1.00265 0.06007 0.18859 0.0
H1493 H 0.91434 0.1484 0.17329 0.0
H1494 H 0.90262 0.10616 0.16767 0.0
H1495 H 0.88627 0.10429 0.17851 0.0
H1496 H 0.87097 0.98473 0.16259 0.0
H1497 H 0.83334 0.98199 0.18871 0.0
H1498 H 0.96002 0.05656 0.1652 0.0
H1499 H 0.93552 0.07852 0.16133 0.0
H1500 H 0.92485 0.03425 0.15701 0.0
H1501 H 0.91177 0.05432 0.19716 0.0
H1502 H 0.8624 0.03332 0.19808 0.0
H1503 H 0.8893 0.07776 0.19292 0.0
C1504 C 0.01932 0.85428 0.18206 0.0
C1505 C 0.04632 0.88805 0.17858 0.0
C1506 C 0.98265 0.84655 0.18305 0.0
C1507 C 0.97316 0.87352 0.18066 0.0
C1508 C 1.00086 0.90817 0.17748 0.0
C1509 C 0.03693 0.91483 0.17641 0.0
C1510 C 0.95389 0.80925 0.18643 0.0
C1511 C 0.99232 0.93809 0.17505 0.0
C1512 C 0.87594 0.85085 0.17447 0.0
C1513 C 0.8651 0.86253 0.1819 0.0
C1514 C 0.91034 0.85247 0.17414 0.0
C1515 C 0.93441 0.86595 0.1814 0.0
C1516 C 0.92274 0.8759 0.18907 0.0
C1517 C 0.88836 0.87412 0.18922 0.0
C1518 C 0.92169 0.8415 0.16584 0.0
C1519 C 0.94739 0.89031 0.19697 0.0
H1520 H 0.02652 0.83345 0.18368 0.0
H1521 H 0.0579 0.94109 0.17379 0.0
H1522 H 0.93963 0.81251 0.19216 0.0
H1523 H 0.93268 0.79456 0.18135 0.0
H1524 H 0.96593 0.79186 0.18831 0.0
H1525 H 0.0173 0.96397 0.17298 0.0
H1526 H 0.97202 0.92845 0.16965 0.0
H1527 H 0.9797 0.94441 0.18065 0.0
H1528 H 0.85822 0.8418 0.16879 0.0
H1529 H 0.88017 0.88283 0.19504 0.0
H1530 H 0.93216 0.8224 0.16729 0.0
H1531 H 0.94448 0.86637 0.16272 0.0
H1532 H 0.89856 0.82802 0.16113 0.0
H1533 H 0.95824 0.87179 0.1987 0.0
H1534 H 0.93278 0.89304 0.20271 0.0
H1535 H 0.97142 0.9178 0.19549 0.0
C1536 C 0.17084 0.16015 0.34317 0.0
C1537 C 0.16411 0.12703 0.34704 0.0
C1538 C 0.1421 0.16817 0.34213 0.0
C1539 C 0.10585 0.14214 0.34487 0.0
C1540 C 0.09885 0.10797 0.34841 0.0
C1541 C 0.12808 0.10104 0.34952 0.0
C1542 C 0.15073 0.20495 0.33838 0.0
C1543 C 0.06059 0.07901 0.35125 0.0
C1544 C 0.03421 0.16804 0.35161 0.0
C1545 C 0.01048 0.1563 0.34439 0.0
C1546 C 0.0665 0.16553 0.35165 0.0
C1547 C 0.07518 0.15057 0.34435 0.0
C1548 C 0.05221 0.14019 0.33691 0.0
C1549 C 0.02031 0.14332 0.337 0.0
C1550 C 0.09045 0.17733 0.35969 0.0
C1551 C 0.06018 0.12382 0.32901 0.0
H1552 H 0.19875 0.18037 0.3413 0.0
H1553 H 0.12278 0.07525 0.35244 0.0
H1554 H 0.13208 0.20095 0.33284 0.0
H1555 H 0.14592 0.22115 0.3434 0.0
H1556 H 0.17973 0.22127 0.3361 0.0
H1557 H 0.0594 0.05305 0.35337 0.0
H1558 H 0.05139 0.08971 0.35673 0.0
H1559 H 0.04072 0.07252 0.34584 0.0
H1560 H 0.0271 0.17832 0.35733 0.0
H1561 H 1.00231 0.13415 0.33137 0.0
H1562 H 0.11979 0.19564 0.35789 0.0
H1563 H 0.0884 0.1527 0.36295 0.0
H1564 H 0.08226 0.19201 0.36442 0.0
H1565 H 0.08932 0.14119 0.32695 0.0
H1566 H 0.04201 0.12081 0.32343 0.0
H1567 H 0.05599 0.09618 0.33067 0.0
C1568 C 0.87016 0.88569 0.3385 0.0
C1569 C 0.8508 0.85735 0.34459 0.0
C1570 C 0.87127 0.91971 0.33912 0.0
C1571 C 0.85214 0.92567 0.34595 0.0
C1572 C 0.83082 0.89653 0.35184 0.0
C1573 C 0.83058 0.86282 0.35113 0.0
C1574 C 0.89479 0.95002 0.33277 0.0
C1575 C 0.80952 0.90152 0.35912 0.0
C1576 C 0.89217 0.02356 0.35451 0.0
C1577 C 0.87074 0.03584 0.35024 0.0
C1578 C 0.88663 0.98804 0.35306 0.0
C1579 C 0.85789 0.96352 0.34747 0.0
C1580 C 0.83575 0.97569 0.34321 0.0
C1581 C 0.84292 0.01207 0.34452 0.0
C1582 C 0.91182 0.97691 0.35749 0.0
C1583 C 0.80423 0.95014 0.33739 0.0
H1584 H 0.88585 0.88196 0.33339 0.0
H1585 H 0.81537 0.84117 0.35585 0.0
H1586 H 0.87889 0.96211 0.32991 0.0
H1587 H 0.9187 0.97247 0.33625 0.0
H1588 H 0.90535 0.94006 0.3274 0.0
H1589 H 0.79067 0.87506 0.36244 0.0
H1590 H 0.82903 0.92094 0.36402 0.0
H1591 H 0.79311 0.91369 0.35659 0.0
H1592 H 0.91381 0.04211 0.3589 0.0
H1593 H 0.82611 0.02153 0.3413 0.0
H1594 H 0.92539 0.96833 0.35255 0.0
H1595 H 0.89557 0.95292 0.36182 0.0
H1596 H 0.93356 0.99964 0.36143 0.0
H1597 H 0.8148 0.94141 0.33179 0.0
H1598 H 0.78868 0.96327 0.33486 0.0
H1599 H 0.78494 0.92483 0.34103 0.0
C1600 C 0.9974 0.84354 0.34358 0.0
C1601 C 0.9728 0.8504 0.34831 0.0
C1602 C 0.0344 0.87148 0.34239 0.0
C1603 C 0.04677 0.90717 0.34588 0.0
C1604 C 0.02162 0.91429 0.35046 0.0
C1605 C 0.98513 0.8858 0.35167 0.0
C1606 C 0.06037 0.8627 0.33752 0.0
C1607 C 0.03325 0.95206 0.35412 0.0
C1608 C 0.14755 0.97715 0.35059 0.0
C1609 C 0.15632 1.00187 0.34362 0.0
C1610 C 0.11263 0.94503 0.35117 0.0
C1611 C 0.08572 0.93756 0.34466 0.0
C1612 C 0.09507 0.96146 0.33742 0.0
C1613 C 0.13016 0.9931 0.33697 0.0
C1614 C 0.10394 0.92002 0.35895 0.0
C1615 C 0.06727 0.95485 0.33037 0.0
H1616 H 0.988 0.81613 0.34101 0.0
H1617 H 0.96612 0.89125 0.35528 0.0
H1618 H 0.07194 0.8811 0.33179 0.0
H1619 H 0.08388 0.86783 0.34177 0.0
H1620 H 0.04658 0.8336 0.33526 0.0
H1621 H 0.01015 0.95323 0.35737 0.0
H1622 H 0.05577 0.95992 0.35892 0.0
H1623 H 0.04417 0.97296 0.34884 0.0
H1624 H 0.16746 0.98347 0.35576 0.0
H1625 H 0.13648 0.01176 0.33151 0.0
H1626 H 0.09126 0.89085 0.35684 0.0
H1627 H 0.08364 0.92226 0.36317 0.0
H1628 H 0.12889 0.92713 0.36289 0.0
H1629 H 0.05432 0.92604 0.32797 0.0
H1630 H 0.07986 0.97386 0.32475 0.0
H1631 H 0.04496 0.95887 0.33307 0.0
C1632 C 0.9137 0.88546 0.85253 0.0
C1633 C 0.89 0.85129 0.84865 0.0
C1634 C 0.90865 0.9159 0.85137 0.0
C1635 C 0.87881 0.91216 0.84626 0.0
C1636 C 0.85506 0.87784 0.84219 0.0
C1637 C 0.86108 0.84781 0.84338 0.0
C1638 C 0.93511 0.95201 0.85571 0.0
C1639 C 0.823 0.87273 0.83668 0.0
C1640 C 0.85022 0.9839 0.85104 0.0
C1641 C 0.86887 0.01014 0.84449 0.0
C1642 C 0.8519 0.95112 0.85147 0.0
C1643 C 0.87289 0.94442 0.84525 0.0
C1644 C 0.89092 0.97031 0.83849 0.0
C1645 C 0.88864 1.00269 0.83818 0.0
C1646 C 0.83219 0.92422 0.85878 0.0
C1647 C 0.9139 0.96458 0.83176 0.0
H1648 H 0.93633 0.88842 0.85654 0.0
H1649 H 0.84266 0.82143 0.84038 0.0
H1650 H 0.94777 0.97432 0.85078 0.0
H1651 H 0.91997 0.9598 0.86039 0.0
H1652 H 0.95752 0.95064 0.85925 0.0
H1653 H 0.80738 0.84456 0.83387 0.0
H1654 H 0.80391 0.87781 0.84068 0.0
H1655 H 0.83299 0.89311 0.8313 0.0
H1656 H 0.83478 0.9892 0.85592 0.0
H1657 H 0.90327 0.02265 0.83308 0.0
H1658 H 0.85271 0.92334 0.86319 0.0
H1659 H 0.81472 0.89601 0.85613 0.0
H1660 H 0.81456 0.93181 0.86265 0.0
H1661 H 0.93837 0.966 0.83494 0.0
H1662 H 0.92357 0.98564 0.82651 0.0
H1663 H 0.89785 0.93684 0.82878 0.0
C1664 C 0.12813 0.02662 0.8516 0.0
C1665 C 0.16405 0.03881 0.84863 0.0
C1666 C 0.10006 0.98994 0.85045 0.0
C1667 C 0.1082 0.96453 0.84635 0.0
C1668 C 0.14445 0.97677 0.84327 0.0
C1669 C 0.17195 0.01394 0.84438 0.0
C1670 C 0.06165 0.97839 0.85365 0.0
C1671 C 0.15426 0.95047 0.83892 0.0
C1672 C 0.0369 0.86449 0.85121 0.0
C1673 C 0.01338 0.85564 0.84401 0.0
C1674 C 0.06928 0.89914 0.85183 0.0
C1675 C 0.07818 0.92556 0.84511 0.0
C1676 C 0.05571 0.91588 0.8376 0.0
C1677 C 0.0238 0.88109 0.83713 0.0
C1678 C 0.09282 0.90825 0.85989 0.0
C1679 C 0.06395 0.94313 0.8303 0.0
H1680 H 0.12194 0.04588 0.85486 0.0
H1681 H 0.19982 0.02328 0.84215 0.0
H1682 H 0.04175 0.96709 0.84818 0.0
H1683 H 0.05297 0.95619 0.85858 0.0
H1684 H 0.05982 1.00165 0.85661 0.0
H1685 H 0.18369 0.96423 0.83694 0.0
H1686 H 0.14862 0.92751 0.84343 0.0
H1687 H 0.13681 0.93811 0.83308 0.0
H1688 H 0.02923 0.84506 0.85655 0.0
H1689 H 1.00614 0.87452 0.83147 0.0
H1690 H 0.08961 0.92857 0.86388 0.0
H1691 H 0.12238 0.92105 0.85811 0.0
H1692 H 0.0851 0.88345 0.86395 0.0
H1693 H 0.05941 0.96567 0.83261 0.0
H1694 H 0.04617 0.93011 0.82452 0.0
H1695 H 0.09322 0.95588 0.82827 0.0
C1696 C 0.0115 0.17686 0.85199 0.0
C1697 C 0.98041 0.14454 0.84913 0.0
C1698 C 0.04718 0.18236 0.8507 0.0
C1699 C 0.05166 0.15407 0.84684 0.0
C1700 C 0.02011 0.12146 0.84387 0.0
C1701 C 0.98489 0.11742 0.84491 0.0
C1702 C 0.08 0.21806 0.85367 0.0
C1703 C 0.02332 0.08998 0.84002 0.0
C1704 C 0.14495 0.1709 0.83859 0.0
C1705 C 0.15808 0.16065 0.84584 0.0
C1706 C 0.111 0.17026 0.83891 0.0
C1707 C 0.08891 0.15735 0.84652 0.0
C1708 C 0.10212 0.14671 0.85383 0.0
C1709 C 0.13683 0.14921 0.85345 0.0
C1710 C 0.09866 0.18319 0.8311 0.0
C1711 C 0.07902 0.13143 0.86195 0.0
H1712 H 1.00785 0.19775 0.85527 0.0
H1713 H 0.96066 0.09218 0.84283 0.0
H1714 H 0.09285 0.21286 0.85941 0.0
H1715 H 0.10116 0.22964 0.84846 0.0
H1716 H 0.07222 0.23896 0.8555 0.0
H1717 H 0.99625 0.06689 0.83785 0.0
H1718 H 0.04242 0.0997 0.83439 0.0
H1719 H 0.03504 0.07929 0.84495 0.0
H1720 H 0.16134 0.17956 0.83268 0.0
H1721 H 0.14664 0.14053 0.859 0.0
H1722 H 0.0913 0.20417 0.83311 0.0
H1723 H 0.07359 0.15973 0.82824 0.0
H1724 H 0.12028 0.19527 0.82599 0.0
H1725 H 0.07301 0.15217 0.86481 0.0
H1726 H 0.09283 0.1234 0.86696 0.0
H1727 H 0.05218 0.10684 0.86028 0.0
C1728 C 0.84952 0.85532 0.68301 0.0
C1729 C 0.85733 0.88777 0.6786 0.0
C1730 C 0.8771 0.84587 0.68426 0.0
C1731 C 0.91332 0.86976 0.68115 0.0
C1732 C 0.92146 0.90316 0.67697 0.0
C1733 C 0.89332 0.91159 0.67569 0.0
C1734 C 0.86732 0.80998 0.68872 0.0
C1735 C 0.95982 0.92982 0.6737 0.0
C1736 C 0.99763 0.86892 0.6899 0.0
C1737 C 1.00663 0.85295 0.68297 0.0
C1738 C 0.96626 0.87283 0.6896 0.0
C1739 C 0.94303 0.86026 0.68221 0.0
C1740 C 0.95065 0.84207 0.67543 0.0
C1741 C 0.98242 0.83871 0.67587 0.0
C1742 C 0.95929 0.89248 0.69696 0.0
C1743 C 0.92633 0.82793 0.66747 0.0
H1744 H 0.82162 0.83676 0.68522 0.0
H1745 H 0.89944 0.93682 0.67233 0.0
H1746 H 0.87206 0.79209 0.6842 0.0
H1747 H 0.88541 0.81522 0.69445 0.0
H1748 H 0.83812 0.79481 0.6909 0.0
H1749 H 0.96181 0.95513 0.67084 0.0
H1750 H 0.97997 0.93805 0.67912 0.0
H1751 H 0.96804 0.91626 0.66869 0.0
H1752 H 0.01595 0.87985 0.69545 0.0
H1753 H 0.98899 0.82622 0.6705 0.0
H1754 H 0.93015 0.8766 0.69913 0.0
H1755 H 0.96433 0.91975 0.69466 0.0
H1756 H 0.97744 0.89691 0.70265 0.0
H1757 H 0.89693 0.81134 0.66941 0.0
H1758 H 0.93344 0.81076 0.66328 0.0
H1759 H 0.92934 0.8516 0.66357 0.0
C1760 C 0.17487 0.14435 0.67486 0.0
C1761 C 0.15863 0.15272 0.68183 0.0
C1762 C 0.1736 0.11012 0.67441 0.0
C1763 C 0.15557 0.08357 0.68107 0.0
C1764 C 0.14044 0.09246 0.68828 0.0
C1765 C 0.1422 0.12681 0.68857 0.0
C1766 C 0.19019 0.10176 0.66663 0.0
C1767 C 0.12076 0.06498 0.69549 0.0
C1768 C 0.11012 0.98244 0.67481 0.0
C1769 C 0.13472 0.97202 0.67817 0.0
C1770 C 0.11666 0.01854 0.67573 0.0
C1771 C 0.1489 0.04521 0.68006 0.0
C1772 C 0.17384 0.03485 0.68352 0.0
C1773 C 0.16632 0.9982 0.68259 0.0
C1774 C 0.08895 0.02806 0.67207 0.0
C1775 C 0.20849 0.06249 0.68816 0.0
H1776 H 0.18777 0.16413 0.66963 0.0
H1777 H 0.12967 0.13288 0.69403 0.0
H1778 H 0.20827 0.09091 0.66876 0.0
H1779 H 0.16788 0.08009 0.6626 0.0
H1780 H 0.20652 0.12648 0.66249 0.0
H1781 H 0.11365 0.07733 0.70104 0.0
H1782 H 0.09491 0.04145 0.69293 0.0
H1783 H 0.13805 0.05372 0.69795 0.0
H1784 H 0.08546 0.9622 0.67145 0.0
H1785 H 0.18543 0.99023 0.68517 0.0
H1786 H 0.10242 0.05039 0.66716 0.0
H1787 H 0.07837 0.03846 0.67732 0.0
H1788 H 0.06514 1.00401 0.66894 0.0
H1789 H 0.22549 0.08611 0.68379 0.0
H1790 H 0.22535 0.05027 0.69036 0.0
H1791 H 0.20129 0.07363 0.69392 0.0
C1792 C 0.87569 0.03981 0.68677 0.0
C1793 C 0.86536 0.01345 0.68015 0.0
C1794 C 0.90992 0.07288 0.68647 0.0
C1795 C 0.93504 0.07877 0.67963 0.0
C1796 C 0.92476 0.05174 0.67302 0.0
C1797 C 0.88979 0.01982 0.67327 0.0
C1798 C 0.91916 0.1015 0.69347 0.0
C1799 C 0.95107 0.05602 0.66578 0.0
C1800 C 0.01343 0.17318 0.67283 0.0
C1801 C 0.04367 0.17455 0.67709 0.0
C1802 C 0.97758 0.14323 0.67405 0.0
C1803 C 0.97211 0.11303 0.6793 0.0
C1804 C 1.00269 0.1146 0.68369 0.0
C1805 C 0.03801 0.14575 0.68268 0.0
C1806 C 0.94572 0.14347 0.66951 0.0
C1807 C 0.99852 0.08251 0.68906 0.0
H1808 H 0.85685 0.0347 0.69212 0.0
H1809 H 0.8821 0.999 0.66826 0.0
H1810 H 0.94336 0.10533 0.69725 0.0
H1811 H 0.92672 0.12848 0.69045 0.0
H1812 H 0.89581 0.09375 0.69803 0.0
H1813 H 0.93956 0.03164 0.66141 0.0
H1814 H 0.95774 0.08075 0.66183 0.0
H1815 H 0.97732 0.06018 0.66858 0.0
H1816 H 0.0179 0.19554 0.66851 0.0
H1817 H 0.06155 0.14661 0.68585 0.0
H1818 H 0.92271 0.13597 0.67415 0.0
H1819 H 0.93519 0.12262 0.66424 0.0
H1820 H 0.9538 0.17082 0.66663 0.0
H1821 H 0.97707 0.07512 0.69413 0.0
H1822 H 0.0247 0.08853 0.69229 0.0
H1823 H 0.98933 0.058 0.68482 0.0
C1824 C 0.80902 0.35127 0.5231 0.0
C1825 C 0.8267 0.34251 0.51652 0.0
C1826 C 0.80629 0.38333 0.52267 0.0
C1827 C 0.82183 0.40756 0.51551 0.0
C1828 C 0.84157 0.40006 0.5091 0.0
C1829 C 0.8437 0.36759 0.50966 0.0
C1830 C 0.78484 0.39006 0.52963 0.0
C1831 C 0.85886 0.4254 0.50141 0.0
C1832 C 0.77477 0.46058 0.50821 0.0
C1833 C 0.79797 0.49581 0.51163 0.0
C1834 C 0.78212 0.43171 0.50951 0.0
C1835 C 0.81386 0.43828 0.51425 0.0
C1836 C 0.83727 0.47379 0.51781 0.0
C1837 C 0.82886 0.50213 0.51652 0.0
C1838 C 0.75594 0.39416 0.50575 0.0
C1839 C 0.87142 0.48194 0.52286 0.0
H1840 H 0.79594 0.33233 0.52848 0.0
H1841 H 0.85755 0.36126 0.50456 0.0
H1842 H 0.80078 0.41877 0.53209 0.0
H1843 H 0.75884 0.38646 0.52682 0.0
H1844 H 0.77782 0.37083 0.53522 0.0
H1845 H 0.87681 0.41815 0.49756 0.0
H1846 H 0.83686 0.42371 0.49707 0.0
H1847 H 0.87547 0.45444 0.50361 0.0
H1848 H 0.75071 0.45555 0.50448 0.0
H1849 H 0.84693 0.52941 0.51914 0.0
H1850 H 0.74533 0.37311 0.511 0.0
H1851 H 0.77075 0.38616 0.50102 0.0
H1852 H 0.73208 0.39343 0.50239 0.0
H1853 H 0.86384 0.46332 0.52858 0.0
H1854 H 0.88684 0.51096 0.52517 0.0
H1855 H 0.88997 0.4766 0.51872 0.0
C1856 C 0.51164 0.32995 0.51594 0.0
C1857 C 0.51873 0.30519 0.51136 0.0
C1858 C 0.5396 0.36693 0.51716 0.0
C1859 C 0.57551 0.37914 0.51384 0.0
C1860 C 0.58285 0.35383 0.50941 0.0
C1861 C 0.55437 0.31736 0.50817 0.0
C1862 C 0.53061 0.39306 0.52189 0.0
C1863 C 0.62083 0.36527 0.50592 0.0
C1864 C 0.64652 0.47962 0.50912 0.0
C1865 C 0.67088 0.48815 0.51615 0.0
C1866 C 0.61412 0.44493 0.50853 0.0
C1867 C 0.60595 0.41805 0.51509 0.0
C1868 C 0.62938 0.42728 0.52242 0.0
C1869 C 0.66134 0.46212 0.52288 0.0
C1870 C 0.58965 0.43636 0.50065 0.0
C1871 C 0.62197 0.39956 0.52955 0.0
H1872 H 0.48407 0.32067 0.51838 0.0
H1873 H 0.56003 0.29823 0.50467 0.0
H1874 H 0.54877 0.40484 0.52765 0.0
H1875 H 0.53592 0.41644 0.51756 0.0
H1876 H 0.50143 0.37934 0.52408 0.0
H1877 H 0.62213 0.34206 0.50276 0.0
H1878 H 0.62915 0.38777 0.50108 0.0
H1879 H 0.64132 0.37614 0.51128 0.0
H1880 H 0.65344 0.49944 0.5039 0.0
H1881 H 0.67967 0.46832 0.52839 0.0
H1882 H 0.56035 0.4238 0.50265 0.0
H1883 H 0.59206 0.416 0.49649 0.0
H1884 H 0.59714 0.46136 0.49669 0.0
H1885 H 0.59299 0.38678 0.53181 0.0
H1886 H 0.64051 0.41217 0.53524 0.0
H1887 H 0.62608 0.37709 0.52698 0.0
C1888 C 0.53474 0.16843 0.50887 0.0
C1889 C 0.52518 0.18334 0.51591 0.0
C1890 C 0.56934 0.17043 0.50855 0.0
C1891 C 0.59506 0.1879 0.51539 0.0
C1892 C 0.58467 0.201 0.52273 0.0
C1893 C 0.54994 0.19844 0.52292 0.0
C1894 C 0.57915 0.1557 0.50064 0.0
C1895 C 0.61115 0.21999 0.53016 0.0
C1896 C 0.68313 0.1817 0.51657 0.0
C1897 C 0.70832 0.21416 0.51225 0.0
C1898 C 0.64601 0.1725 0.51762 0.0
C1899 C 0.63416 0.19667 0.5144 0.0
C1900 C 0.65995 0.22999 0.51028 0.0
C1901 C 0.69652 0.23813 0.50921 0.0
C1902 C 0.61934 0.13666 0.522 0.0
C1903 C 0.6489 0.25704 0.50693 0.0
H1904 H 0.51588 0.15658 0.50344 0.0
H1905 H 0.54289 0.20978 0.52845 0.0
H1906 H 0.60007 0.17907 0.49671 0.0
H1907 H 0.59148 0.13872 0.50263 0.0
H1908 H 0.55479 0.13876 0.49646 0.0
H1909 H 0.59753 0.22476 0.53582 0.0
H1910 H 0.62369 0.20347 0.53235 0.0
H1911 H 0.63391 0.24706 0.52791 0.0
H1912 H 0.69214 0.16301 0.51888 0.0
H1913 H 0.71601 0.26339 0.50592 0.0
H1914 H 0.59693 0.11904 0.51741 0.0
H1915 H 0.60628 0.14202 0.52767 0.0
H1916 H 0.63295 0.12118 0.52426 0.0
H1917 H 0.62724 0.24369 0.50188 0.0
H1918 H 0.67252 0.28213 0.50408 0.0
H1919 H 0.63707 0.26562 0.51229 0.0
C1920 C 0.84047 0.49013 0.67721 0.0
C1921 C 0.84773 0.4811 0.68548 0.0
C1922 C 0.8106 0.49621 0.67588 0.0
C1923 C 0.78703 0.49223 0.68295 0.0
C1924 C 0.79488 0.4839 0.69134 0.0
C1925 C 0.82532 0.4789 0.69251 0.0
C1926 C 0.80366 0.50587 0.66688 0.0
C1927 C 0.77004 0.47837 0.69901 0.0
C1928 C 0.71677 0.52514 0.68237 0.0
C1929 C 0.68465 0.49273 0.67997 0.0
C1930 C 0.75077 0.52593 0.683 0.0
C1931 C 0.75225 0.49323 0.6815 0.0
C1932 C 0.71966 0.46041 0.67916 0.0
C1933 C 0.6865 0.46074 0.6783 0.0
C1934 C 0.78505 0.56163 0.68531 0.0
C1935 C 0.71951 0.42458 0.6778 0.0
H1936 H 0.85785 0.49203 0.67177 0.0
H1937 H 0.83071 0.47183 0.69892 0.0
H1938 H 0.7781 0.48245 0.66418 0.0
H1939 H 0.79946 0.53001 0.66718 0.0
H1940 H 0.82677 0.5122 0.66235 0.0
H1941 H 0.78086 0.47355 0.70517 0.0
H1942 H 0.76661 0.50278 0.69987 0.0
H1943 H 0.74226 0.4543 0.69779 0.0
H1944 H 0.71542 0.54993 0.6836 0.0
H1945 H 0.66158 0.43548 0.67655 0.0
H1946 H 0.80706 0.5679 0.68046 0.0
H1947 H 0.79559 0.55897 0.69174 0.0
H1948 H 0.77989 0.5852 0.68559 0.0
H1949 H 0.73916 0.42783 0.67257 0.0
H1950 H 0.69177 0.40149 0.67603 0.0
H1951 H 0.72871 0.41697 0.68384 0.0
C1952 C 0.5537 0.22401 0.67175 0.0
C1953 C 0.53387 0.19647 0.67799 0.0
C1954 C 0.55695 0.25902 0.67232 0.0
C1955 C 0.53971 0.26689 0.67925 0.0
C1956 C 0.51856 0.23889 0.68541 0.0
C1957 C 0.51606 0.20412 0.68474 0.0
C1958 C 0.58019 0.28809 0.66568 0.0
C1959 C 0.49952 0.24606 0.69287 0.0
C1960 C 0.58251 0.36651 0.68679 0.0
C1961 C 0.55941 0.37783 0.68295 0.0
C1962 C 0.57656 0.33072 0.68556 0.0
C1963 C 0.54636 0.30522 0.68045 0.0
C1964 C 0.52312 0.31662 0.67646 0.0
C1965 C 0.53013 0.35296 0.67769 0.0
C1966 C 0.60259 0.32017 0.68978 0.0
C1967 C 0.49061 0.29029 0.67098 0.0
H1968 H 0.56782 0.21873 0.66652 0.0
H1969 H 0.50061 0.18315 0.68958 0.0
H1970 H 0.5644 0.30026 0.66279 0.0
H1971 H 0.60478 0.31077 0.66891 0.0
H1972 H 0.58969 0.27689 0.66035 0.0
H1973 H 0.48163 0.22067 0.69666 0.0
H1974 H 0.52045 0.26686 0.69732 0.0
H1975 H 0.48245 0.25756 0.69039 0.0
H1976 H 0.60542 0.38579 0.6908 0.0
H1977 H 0.51217 0.36161 0.67473 0.0
H1978 H 0.61492 0.31055 0.68476 0.0
H1979 H 0.5872 0.29701 0.69438 0.0
H1980 H 0.62526 0.34351 0.69338 0.0
H1981 H 0.50008 0.27996 0.66548 0.0
H1982 H 0.47518 0.30334 0.66833 0.0
H1983 H 0.47148 0.266 0.67495 0.0
C1984 C 0.81177 0.31151 0.67248 0.0
C1985 C 0.82097 0.33668 0.67934 0.0
C1986 C 0.77805 0.27793 0.67247 0.0
C1987 C 0.75239 0.27014 0.6793 0.0
C1988 C 0.76138 0.29599 0.68614 0.0
C1989 C 0.79581 0.32855 0.68616 0.0
C1990 C 0.7701 0.25059 0.66523 0.0
C1991 C 0.73444 0.2895 0.69339 0.0
C1992 C 0.6503 0.20031 0.67634 0.0
C1993 C 0.6462 0.17169 0.68179 0.0
C1994 C 0.68494 0.23226 0.67526 0.0
C1995 C 0.71633 0.23484 0.67946 0.0
C1996 C 0.71247 0.20473 0.6845 0.0
C1997 C 0.67727 0.1739 0.68578 0.0
C1998 C 0.68742 0.26414 0.6701 0.0
C1999 C 0.74527 0.20566 0.68884 0.0
H2000 H 0.83125 0.31779 0.6672 0.0
H2001 H 0.80263 0.34828 0.69139 0.0
H2002 H 0.76474 0.22387 0.66801 0.0
H2003 H 0.74489 0.24529 0.66166 0.0
H2004 H 0.79326 0.26038 0.66052 0.0
H2005 H 0.74474 0.31334 0.69791 0.0
H2006 H 0.7077 0.28414 0.69064 0.0
H2007 H 0.72906 0.26476 0.69719 0.0
H2008 H 0.62606 0.19874 0.67338 0.0
H2009 H 0.67393 0.15165 0.69 0.0
H2010 H 0.70947 0.27348 0.66512 0.0
H2011 H 0.6948 0.28778 0.67453 0.0
H2012 H 0.66103 0.25692 0.66681 0.0
H2013 H 0.76844 0.21492 0.68416 0.0
H2014 H 0.73854 0.17825 0.69146 0.0
H2015 H 0.75494 0.22569 0.69429 0.0
C2016 C 0.58416 0.22451 0.1847 0.0
C2017 C 0.55905 0.18901 0.1817 0.0
C2018 C 0.578 0.25414 0.1834 0.0
C2019 C 0.54563 0.24814 0.17906 0.0
C2020 C 0.52047 0.21245 0.17584 0.0
C2021 C 0.52761 0.18325 0.17715 0.0
C2022 C 0.60601 0.29181 0.18678 0.0
C2023 C 0.48575 0.20501 0.17115 0.0
C2024 C 0.51877 0.32095 0.18386 0.0
C2025 C 0.53454 0.34499 0.17677 0.0
C2026 C 0.52063 0.28835 0.1845 0.0
C2027 C 0.53869 0.27957 0.1779 0.0
C2028 C 0.55332 0.30296 0.17057 0.0
C2029 C 0.55106 0.33526 0.1701 0.0
C2030 C 0.50464 0.26408 0.19241 0.0
C2031 C 0.57295 0.29483 0.1634 0.0
H2032 H 0.60872 0.22912 0.18815 0.0
H2033 H 0.50812 0.15579 0.17485 0.0
H2034 H 0.61602 0.3122 0.18139 0.0
H2035 H 0.59296 0.30116 0.19168 0.0
H2036 H 0.63016 0.29199 0.18983 0.0
H2037 H 0.46941 0.176 0.16888 0.0
H2038 H 0.4683 0.21092 0.17555 0.0
H2039 H 0.49272 0.22361 0.16545 0.0
H2040 H 0.50589 0.32808 0.18904 0.0
H2041 H 0.56323 0.3534 0.16455 0.0
H2042 H 0.52727 0.26513 0.19639 0.0
H2043 H 0.48649 0.23497 0.19042 0.0
H2044 H 0.48853 0.27275 0.19655 0.0
H2045 H 0.59908 0.29778 0.16596 0.0
H2046 H 0.57954 0.31369 0.15775 0.0
H2047 H 0.55586 0.26599 0.16111 0.0
C2048 C 0.81463 0.35449 0.19052 0.0
C2049 C 0.84093 0.37355 0.18403 0.0
C2050 C 0.78432 0.3193 0.189 0.0
C2051 C 0.78059 0.3021 0.18084 0.0
C2052 C 0.80753 0.3209 0.17429 0.0
C2053 C 0.83719 0.35671 0.17592 0.0
C2054 C 0.75579 0.30093 0.19609 0.0
C2055 C 0.80495 0.30321 0.16557 0.0
C2056 C 0.71318 0.19835 0.18119 0.0
C2057 C 0.68129 0.19652 0.17777 0.0
C2058 C 0.74643 0.23232 0.18176 0.0
C2059 C 0.74737 0.2653 0.17912 0.0
C2060 C 0.71522 0.26338 0.17559 0.0
C2061 C 0.68284 0.22905 0.17485 0.0
C2062 C 0.78029 0.23306 0.18537 0.0
C2063 C 0.7144 0.29779 0.17299 0.0
H2064 H 0.8173 0.36749 0.19679 0.0
H2065 H 0.85762 0.37133 0.17091 0.0
H2066 H 0.72842 0.2952 0.1937 0.0
H2067 H 0.75327 0.27409 0.19787 0.0
H2068 H 0.76264 0.31816 0.20205 0.0
H2069 H 0.82916 0.32049 0.16136 0.0
H2070 H 0.8028 0.27591 0.1665 0.0
H2071 H 0.77965 0.29842 0.16212 0.0
H2072 H 0.71212 0.17328 0.18343 0.0
H2073 H 0.65813 0.22793 0.17231 0.0
H2074 H 0.78715 0.2468 0.19182 0.0
H2075 H 0.80429 0.24928 0.18104 0.0
H2076 H 0.77631 0.20491 0.18615 0.0
H2077 H 0.71915 0.31531 0.17882 0.0
H2078 H 0.68768 0.29145 0.17002 0.0
H2079 H 0.73683 0.31425 0.1683 0.0
C2080 C 0.80295 0.48155 0.18685 0.0
C2081 C 0.82414 0.49261 0.17922 0.0
C2082 C 0.76838 0.47943 0.18723 0.0
C2083 C 0.75521 0.48997 0.17989 0.0
C2084 C 0.77719 0.50248 0.17227 0.0
C2085 C 0.81103 0.50288 0.17195 0.0
C2086 C 0.74541 0.46468 0.19538 0.0
C2087 C 0.76487 0.51523 0.16442 0.0
C2088 C 0.65137 0.45114 0.17804 0.0
C2089 C 0.64713 0.47879 0.18207 0.0
C2090 C 0.6864 0.45451 0.17722 0.0
C2091 C 0.71807 0.487 0.18019 0.0
C2092 C 0.71387 0.51573 0.1839 0.0
C2093 C 0.67833 0.51088 0.18498 0.0
C2094 C 0.68926 0.42258 0.17355 0.0
C2095 C 0.74686 0.55132 0.18686 0.0
H2096 H 0.81271 0.47296 0.19242 0.0
H2097 H 0.82736 0.51142 0.16604 0.0
H2098 H 0.73954 0.48564 0.19816 0.0
H2099 H 0.7185 0.44006 0.19377 0.0
H2100 H 0.75925 0.45686 0.20043 0.0
H2101 H 0.78636 0.52686 0.15927 0.0
H2102 H 0.73958 0.4918 0.16163 0.0
H2103 H 0.75787 0.53653 0.16638 0.0
H2104 H 0.62706 0.42607 0.17592 0.0
H2105 H 0.67488 0.5322 0.1881 0.0
H2106 H 0.70113 0.41225 0.17852 0.0
H2107 H 0.70812 0.43175 0.16786 0.0
H2108 H 0.66206 0.39938 0.17148 0.0
H2109 H 0.75969 0.54604 0.19259 0.0
H2110 H 0.73932 0.57239 0.18868 0.0
H2111 H 0.76797 0.56272 0.18163 0.0
C2112 C 0.64523 0.16667 1.00921 0.0
C2113 C 0.6699 0.18212 0.0162 0.0
C2114 C 0.61301 0.16919 1.00877 0.0
C2115 C 0.6053 0.18772 0.01545 0.0
C2116 C 0.62897 0.20145 0.02275 0.0
C2117 C 0.6609 0.19843 0.02305 0.0
C2118 C 0.58835 0.1539 1.0009 0.0
C2119 C 0.62187 0.22143 0.03001 0.0
C2120 C 0.55458 0.23762 1.0086 0.0
C2121 C 0.51873 0.2139 1.01162 0.0
C2122 C 0.58293 0.22955 1.00992 0.0
C2123 C 0.57522 0.19664 0.01428 0.0
C2124 C 0.53909 0.17266 0.01743 0.0
C2125 C 0.51124 0.18172 0.01611 0.0
C2126 C 0.62113 0.2562 1.00656 0.0
C2127 C 0.52978 0.1373 0.02208 0.0
H2128 H 0.65175 0.15383 1.00391 0.0
H2129 H 0.6796 0.21033 0.02851 0.0
H2130 H 0.55906 0.13723 1.00291 0.0
H2131 H 0.59088 0.177 0.99684 0.0
H2132 H 0.59556 0.13649 0.99682 0.0
H2133 H 0.64021 0.22649 0.03569 0.0
H2134 H 0.62655 0.24842 0.02759 0.0
H2135 H 0.59279 0.20545 0.03222 0.0
H2136 H 0.56055 0.26271 1.0052 0.0
H2137 H 0.48352 0.16332 0.01844 0.0
H2138 H 0.62956 0.24229 1.00168 0.0
H2139 H 0.64136 0.26532 1.01197 0.0
H2140 H 0.62272 0.281 1.00349 0.0
H2141 H 0.53549 0.11949 0.01777 0.0
H2142 H 0.50042 0.12167 0.02413 0.0
H2143 H 0.54747 0.14342 0.02792 0.0
C2144 C 0.83394 0.32876 0.01628 0.0
C2145 C 0.8014 0.30408 1.01193 0.0
C2146 C 0.8437 0.36598 0.01742 0.0
C2147 C 0.8201 0.37853 0.01422 0.0
C2148 C 0.7869 0.35339 1.00996 0.0
C2149 C 0.77811 0.31664 1.00884 0.0
C2150 C 0.87936 0.39194 0.02197 0.0
C2151 C 0.76056 0.3653 1.00657 0.0
C2152 C 0.81895 0.46256 0.02311 0.0
C2153 C 0.83501 0.48799 0.01626 0.0
C2154 C 0.81582 0.42759 0.02276 0.0
C2155 C 0.82928 0.41765 0.01541 0.0
C2156 C 0.8477 0.444 1.00873 0.0
C2157 C 0.85029 0.47882 1.00922 0.0
C2158 C 0.79591 0.40043 0.03002 0.0
C2159 C 0.86279 0.43466 1.00081 0.0
H2160 H 0.85208 0.31917 0.01866 0.0
H2161 H 0.75278 0.29759 1.00551 0.0
H2162 H 0.89718 0.41514 0.01757 0.0
H2163 H 0.8737 0.404 0.02779 0.0
H2164 H 0.89476 0.37798 0.02403 0.0
H2165 H 0.7357 0.34225 1.0035 0.0
H2166 H 0.75154 0.37656 1.01197 0.0
H2167 H 0.77469 0.38763 1.0017 0.0
H2168 H 0.80726 0.46929 0.02863 0.0
H2169 H 0.86289 0.4982 1.00391 0.0
H2170 H 0.81192 0.38732 0.0322 0.0
H2171 H 0.76892 0.37815 0.0276 0.0
H2172 H 0.79088 0.41365 0.03572 0.0
H2173 H 0.8792 0.42168 1.00277 0.0
H2174 H 0.88038 0.45938 0.99678 0.0
H2175 H 0.83959 0.41442 0.99674 0.0
C2176 C 0.55459 0.35257 0.02317 0.0
C2177 C 0.52968 0.34433 0.01626 0.0
C2178 C 0.58986 0.38407 0.023 0.0
C2179 C 0.60063 0.40818 0.01576 0.0
C2180 C 0.57488 0.40124 1.00901 0.0
C2181 C 0.53976 0.36938 1.00932 0.0
C2182 C 0.61637 0.39026 0.03034 0.0
C2183 C 0.58511 0.42642 1.00121 0.0
C2184 C 0.68933 0.50184 0.01671 0.0
C2185 C 0.71383 0.49437 1.01213 0.0
C2186 C 0.65236 0.47406 0.01802 0.0
C2187 C 0.63991 0.438 0.01477 0.0
C2188 C 0.66506 0.4302 1.01041 0.0
C2189 C 0.70154 0.45849 1.00911 0.0
C2190 C 0.62641 0.48347 0.02268 0.0
C2191 C 0.65331 0.39206 1.00698 0.0
H2192 H 0.54714 0.33359 0.0286 0.0
H2193 H 0.52077 0.36344 1.00396 0.0
H2194 H 0.63848 0.3852 0.02796 0.0
H2195 H 0.62979 0.41924 0.03263 0.0
H2196 H 0.60251 0.37167 0.03596 0.0
H2197 H 0.56088 0.41972 0.99703 0.0
H2198 H 0.59782 0.4556 1.00332 0.0
H2199 H 0.60584 0.42388 0.99722 0.0
H2200 H 0.69874 0.52959 0.01904 0.0
H2201 H 0.7205 0.45253 1.00562 0.0
H2202 H 0.61327 0.46453 0.02826 0.0
H2203 H 0.60401 0.4797 0.0182 0.0
H2204 H 0.64065 0.51232 0.02511 0.0
H2205 H 0.64139 0.37151 1.01232 0.0
H2206 H 0.6766 0.39024 1.00404 0.0
H2207 H 0.63154 0.38426 1.00198 0.0
C2208 C 0.49575 0.83567 0.84946 0.0
C2209 C 0.46459 0.82924 0.84467 0.0
C2210 C 0.50415 0.80732 0.85073 0.0
C2211 C 0.48045 0.77169 0.84727 0.0
C2212 C 0.44835 0.76497 0.84267 0.0
C2213 C 0.44102 0.79386 0.84138 0.0
C2214 C 0.53867 0.81561 0.85564 0.0
C2215 C 0.42181 0.72727 0.83904 0.0
C2216 C 0.51018 0.70102 0.84249 0.0
C2217 C 0.49386 0.67619 0.84942 0.0
C2218 C 0.50784 0.73339 0.84196 0.0
C2219 C 0.48857 0.74103 0.84847 0.0
C2220 C 0.4737 0.71704 0.85569 0.0
C2221 C 0.47664 0.68509 0.85609 0.0
C2222 C 0.5244 0.75846 0.83419 0.0
C2223 C 0.45274 0.7239 0.86275 0.0
H2224 H 0.51409 0.86307 0.85198 0.0
H2225 H 0.41671 0.78874 0.83774 0.0
H2226 H 0.53159 0.79679 0.8613 0.0
H2227 H 0.55713 0.81067 0.85137 0.0
H2228 H 0.55398 0.84454 0.85801 0.0
H2229 H 0.39766 0.72642 0.83581 0.0
H2230 H 0.43617 0.71905 0.83424 0.0
H2231 H 0.41167 0.70644 0.84434 0.0
H2232 H 0.52364 0.69457 0.83732 0.0
H2233 H 0.46407 0.66635 0.86152 0.0
H2234 H 0.54121 0.78757 0.83633 0.0
H2235 H 0.50201 0.75663 0.82998 0.0
H2236 H 0.542 0.7511 0.83023 0.0
H2237 H 0.46879 0.75269 0.86515 0.0
H2238 H 0.4462 0.70485 0.86836 0.0
H2239 H 0.42648 0.72014 0.86006 0.0
C2240 C 0.18138 0.65905 0.85057 0.0
C2241 C 0.17689 0.6415 0.84253 0.0
C2242 C 0.21125 0.69497 0.852 0.0
C2243 C 0.23763 0.71319 0.8453 0.0
C2244 C 0.23301 0.69537 0.83719 0.0
C2245 C 0.20254 0.66007 0.83588 0.0
C2246 C 0.21475 0.7133 0.86067 0.0
C2247 C 0.26089 0.71309 0.82994 0.0
C2248 C 0.30647 0.81675 0.84476 0.0
C2249 C 0.33822 0.81807 0.84812 0.0
C2250 C 0.27289 0.78303 0.84423 0.0
C2251 C 0.27143 0.74979 0.84685 0.0
C2252 C 0.3035 0.75117 0.85027 0.0
C2253 C 0.33622 0.78523 0.85096 0.0
C2254 C 0.23914 0.78287 0.84073 0.0
C2255 C 0.30377 0.71646 0.85285 0.0
H2256 H 0.16146 0.64484 0.85571 0.0
H2257 H 0.1993 0.64656 0.82966 0.0
H2258 H 0.23993 0.71746 0.86407 0.0
H2259 H 0.21774 0.74094 0.85969 0.0
H2260 H 0.19057 0.69674 0.86495 0.0
H2261 H 0.2531 0.69566 0.824 0.0
H2262 H 0.26386 0.74015 0.82819 0.0
H2263 H 0.28829 0.71828 0.83217 0.0
H2264 H 0.30783 0.84205 0.84259 0.0
H2265 H 0.36079 0.78593 0.85346 0.0
H2266 H 0.21545 0.76742 0.84521 0.0
H2267 H 0.23141 0.76858 0.83435 0.0
H2268 H 0.2437 0.8112 0.83986 0.0
H2269 H 0.28183 0.70069 0.85771 0.0
H2270 H 0.33066 0.72236 0.85564 0.0
H2271 H 0.29788 0.69846 0.84707 0.0
C2272 C 0.35071 0.51833 0.84958 0.0
C2273 C 0.37653 0.55058 0.8453 0.0
C2274 C 0.31396 0.51024 0.85069 0.0
C2275 C 0.30312 0.53533 0.84756 0.0
C2276 C 0.32958 0.56847 0.84349 0.0
C2277 C 0.36577 0.5755 0.84236 0.0
C2278 C 0.28657 0.47457 0.85503 0.0
C2279 C 0.31961 0.59645 0.84023 0.0
C2280 C 0.20402 0.50862 0.84211 0.0
C2281 C 0.19452 0.52313 0.84925 0.0
C2282 C 0.23855 0.51051 0.84169 0.0
C2283 C 0.26433 0.52752 0.84854 0.0
C2284 C 0.25421 0.54057 0.85594 0.0
C2285 C 0.21951 0.5381 0.85622 0.0
C2286 C 0.24811 0.4959 0.83373 0.0
C2287 C 0.28082 0.5591 0.86337 0.0
H2288 H 0.35893 0.49893 0.85182 0.0
H2289 H 0.38576 0.60062 0.8391 0.0
H2290 H 0.27388 0.48027 0.86072 0.0
H2291 H 0.26397 0.45753 0.85042 0.0
H2292 H 0.29945 0.45834 0.85724 0.0
H2293 H 0.34371 0.62135 0.83746 0.0
H2294 H 0.29802 0.58383 0.83514 0.0
H2295 H 0.30808 0.6052 0.84563 0.0
H2296 H 0.18501 0.49684 0.8367 0.0
H2297 H 0.21262 0.54926 0.86181 0.0
H2298 H 0.25959 0.4781 0.83565 0.0
H2299 H 0.26964 0.51928 0.82991 0.0
H2300 H 0.22382 0.47981 0.82945 0.0
H2301 H 0.29269 0.54198 0.86556 0.0
H2302 H 0.26752 0.56432 0.86903 0.0
H2303 H 0.30404 0.58589 0.86112 0.0
C2304 C 0.50979 0.82898 1.01055 0.0
C2305 C 0.50212 0.79645 0.0149 0.0
C2306 C 0.48208 0.83839 1.00936 0.0
C2307 C 0.44587 0.81441 1.01247 0.0
C2308 C 0.43802 0.78122 0.01672 0.0
C2309 C 0.46622 0.77281 0.01791 0.0
C2310 C 0.49157 0.87405 1.00483 0.0
C2311 C 0.39975 0.75446 0.02002 0.0
C2312 C 0.37463 0.84325 0.01733 0.0
C2313 C 0.35049 0.82787 1.01025 0.0
C2314 C 0.40712 0.84115 0.01789 0.0
C2315 C 0.41565 0.82315 1.01123 0.0
C2316 C 0.39253 0.80957 1.00383 0.0
C2317 C 0.36039 0.81217 1.00342 0.0
C2318 C 0.43119 0.8563 0.02586 0.0
C2319 C 0.40041 0.79012 0.99658 0.0
H2320 H 0.53754 0.84737 1.00823 0.0
H2321 H 0.46006 0.74746 0.02121 0.0
H2322 H 0.47403 0.86834 0.99897 0.0
H2323 H 0.48578 0.89161 1.00922 0.0
H2324 H 0.52097 0.88975 1.00282 0.0
H2325 H 0.39813 0.72965 0.02309 0.0
H2326 H 0.39108 0.76825 0.02487 0.0
H2327 H 0.3797 0.74535 0.01457 0.0
H2328 H 0.36743 0.85556 0.02263 0.0
H2329 H 0.34223 0.80044 0.99786 0.0
H2330 H 0.4606 0.87311 0.02395 0.0
H2331 H 0.42845 0.83313 0.02992 0.0
H2332 H 0.42356 0.87352 0.02988 0.0
H2333 H 0.42958 0.80651 0.99446 0.0
H2334 H 0.38234 0.78502 0.99084 0.0
H2335 H 0.39599 0.76319 0.99897 0.0
C2336 C 0.19072 0.68306 1.0099 0.0
C2337 C 0.22215 0.70735 0.01467 0.0
C2338 C 0.18145 0.64604 1.00864 0.0
C2339 C 0.20449 0.63331 1.01211 0.0
C2340 C 0.23677 0.65815 0.01673 0.0
C2341 C 0.24501 0.69469 0.018 0.0
C2342 C 0.14676 0.62042 1.00371 0.0
C2343 C 0.26257 0.64609 0.02039 0.0
C2344 C 0.17238 0.53229 0.01684 0.0
C2345 C 0.18836 0.52328 1.00993 0.0
C2346 C 0.17561 0.56739 0.01739 0.0
C2347 C 0.19547 0.59422 1.0109 0.0
C2348 C 0.20993 0.58461 1.00368 0.0
C2349 C 0.20609 0.54933 1.00327 0.0
C2350 C 0.15941 0.57638 0.02515 0.0
C2351 C 0.23143 0.6123 0.99663 0.0
H2352 H 0.17291 0.69272 1.00734 0.0
H2353 H 0.26949 0.71347 0.02164 0.0
H2354 H 0.15351 0.60851 0.99803 0.0
H2355 H 0.12794 0.5971 1.00796 0.0
H2356 H 0.13195 0.63461 1.00136 0.0
H2357 H 0.28696 0.66902 0.02365 0.0
H2358 H 0.24771 0.62358 0.02519 0.0
H2359 H 0.27237 0.63502 0.01511 0.0
H2360 H 0.15853 0.51246 0.02202 0.0
H2361 H 0.21843 0.54279 0.99786 0.0
H2362 H 0.14326 0.58941 0.023 0.0
H2363 H 0.182 0.5965 0.02938 0.0
H2364 H 0.14127 0.55151 0.02908 0.0
H2365 H 0.21601 0.62571 0.99424 0.0
H2366 H 0.23755 0.59947 0.99102 0.0
H2367 H 0.25793 0.6343 0.99934 0.0
C2368 C 0.31861 0.5502 0.01713 0.0
C2369 C 0.30647 0.51439 0.01409 0.0
C2370 C 0.35502 0.57857 0.01584 0.0
C2371 C 0.38022 0.57091 1.01146 0.0
C2372 C 0.3679 0.53494 1.00817 0.0
C2373 C 0.33099 0.50707 1.00948 0.0
C2374 C 0.36666 0.61664 0.0193 0.0
C2375 C 0.39393 0.5257 1.00349 0.0
C2376 C 0.46556 0.65666 1.00325 0.0
C2377 C 0.49024 0.6647 1.01021 0.0
C2378 C 0.43035 0.62509 1.00334 0.0
C2379 C 0.41947 0.60073 1.01053 0.0
C2380 C 0.44503 0.60747 0.01732 0.0
C2381 C 0.48006 0.63941 0.01709 0.0
C2382 C 0.40401 0.61909 0.99598 0.0
C2383 C 0.43465 0.58201 0.02507 0.0
H2384 H 0.2996 0.55603 0.02063 0.0
H2385 H 0.32166 0.47936 1.00713 0.0
H2386 H 0.38832 0.62435 0.02433 0.0
H2387 H 0.37869 0.63731 0.014 0.0
H2388 H 0.3433 0.61837 0.02223 0.0
H2389 H 0.37973 0.49697 1.00098 0.0
H2390 H 0.40723 0.5449 0.99795 0.0
H2391 H 0.41622 0.52924 1.00798 0.0
H2392 H 0.47309 0.67584 0.99786 0.0
H2393 H 0.49892 0.64519 0.02247 0.0
H2394 H 0.38186 0.62411 0.99835 0.0
H2395 H 0.39062 0.59017 0.99364 0.0
H2396 H 0.418 0.63782 0.99039 0.0
H2397 H 0.41379 0.58436 0.02905 0.0
H2398 H 0.45878 0.5886 0.02926 0.0
H2399 H 0.42204 0.55291 0.0229 0.0
C2400 C 0.198 0.51363 0.50964 0.0
C2401 C 0.20925 0.50705 0.51771 0.0
C2402 C 0.19267 0.54405 0.50844 0.0
C2403 C 0.19973 0.56898 0.51541 0.0
C2404 C 0.21105 0.56226 0.52357 0.0
C2405 C 0.21518 0.53118 0.52464 0.0
C2406 C 0.17983 0.54971 0.4997 0.0
C2407 C 0.21992 0.58855 0.53111 0.0
C2408 C 0.2268 0.6683 0.51019 0.0
C2409 C 0.19511 0.66957 0.5126 0.0
C2410 C 0.22852 0.63578 0.51102 0.0
C2411 C 0.19737 0.60319 0.51409 0.0
C2412 C 0.16488 0.60403 0.51632 0.0
C2413 C 0.16435 0.6374 0.51569 0.0
C2414 C 0.26416 0.63667 0.50885 0.0
C2415 C 0.1308 0.56974 0.51943 0.0
H2416 H 0.19321 0.4949 0.50428 0.0
H2417 H 0.22408 0.52632 0.53089 0.0
H2418 H 0.15519 0.55282 0.50052 0.0
H2419 H 0.2017 0.57549 0.49668 0.0
H2420 H 0.17288 0.52645 0.49517 0.0
H2421 H 0.22806 0.57921 0.53705 0.0
H2422 H 0.24281 0.61627 0.52928 0.0
H2423 H 0.19572 0.59156 0.53269 0.0
H2424 H 0.2509 0.69324 0.50792 0.0
H2425 H 0.13979 0.63823 0.51754 0.0
H2426 H 0.25937 0.6161 0.50373 0.0
H2427 H 0.27457 0.62911 0.51469 0.0
H2428 H 0.2859 0.66426 0.50656 0.0
H2429 H 0.12315 0.54689 0.51474 0.0
H2430 H 0.10696 0.57421 0.52026 0.0
H2431 H 0.13644 0.56078 0.52576 0.0
C2432 C 0.4636 0.69333 0.5186 0.0
C2433 C 0.49917 0.70415 0.51557 0.0
C2434 C 0.43456 0.65706 0.5176 0.0
C2435 C 0.44116 0.63062 0.5135 0.0
C2436 C 0.47705 0.64134 0.51038 0.0
C2437 C 0.50568 0.67816 0.5114 0.0
C2438 C 0.39668 0.64715 0.52089 0.0
C2439 C 0.48515 0.61393 0.50599 0.0
C2440 C 0.36665 0.53162 0.51828 0.0
C2441 C 0.3431 0.52393 0.51112 0.0
C2442 C 0.39991 0.5655 0.51892 0.0
C2443 C 0.40981 0.59228 0.51225 0.0
C2444 C 0.3871 0.58382 0.50481 0.0
C2445 C 0.35417 0.54986 0.50433 0.0
C2446 C 0.42348 0.57339 0.52694 0.0
C2447 C 0.39644 0.61148 0.49755 0.0
H2448 H 0.45835 0.7134 0.52177 0.0
H2449 H 0.53319 0.68643 0.50907 0.0
H2450 H 0.37666 0.63703 0.51543 0.0
H2451 H 0.38706 0.62453 0.52573 0.0
H2452 H 0.39623 0.67094 0.52396 0.0
H2453 H 0.51461 0.62637 0.50411 0.0
H2454 H 0.47791 0.59028 0.51041 0.0
H2455 H 0.4679 0.60277 0.50007 0.0
H2456 H 0.35851 0.51179 0.52354 0.0
H2457 H 0.33651 0.54418 0.49871 0.0
H2458 H 0.42182 0.59457 0.53095 0.0
H2459 H 0.45281 0.58467 0.5251 0.0
H2460 H 0.41455 0.54835 0.531 0.0
H2461 H 0.39361 0.63496 0.49994 0.0
H2462 H 0.37817 0.59928 0.49181 0.0
H2463 H 0.42546 0.62277 0.49544 0.0
C2464 C 0.48123 0.84085 0.51708 0.0
C2465 C 0.48987 0.82356 0.51041 0.0
C2466 C 0.44636 0.83804 0.51752 0.0
C2467 C 0.41935 0.81729 0.51115 0.0
C2468 C 0.42856 0.80144 0.50414 0.0
C2469 C 0.46368 0.80483 0.50384 0.0
C2470 C 0.43778 0.85562 0.52506 0.0
C2471 C 0.40063 0.77903 0.49723 0.0
C2472 C 0.32005 0.77097 0.51895 0.0
C2473 C 0.30799 0.79432 0.51562 0.0
C2474 C 0.35585 0.77769 0.51734 0.0
C2475 C 0.38051 0.80887 0.51236 0.0
C2476 C 0.3682 0.83209 0.50879 0.0
C2477 C 0.3319 0.82438 0.51042 0.0
C2478 C 0.36748 0.75174 0.52112 0.0
C2479 C 0.39362 0.86555 0.50345 0.0
H2480 H 0.50125 0.85553 0.52216 0.0
H2481 H 0.46998 0.7914 0.49863 0.0
H2482 H 0.42519 0.87187 0.52269 0.0
H2483 H 0.41743 0.83379 0.52943 0.0
H2484 H 0.46274 0.87401 0.52893 0.0
H2485 H 0.41329 0.77227 0.49169 0.0
H2486 H 0.3788 0.75284 0.50011 0.0
H2487 H 0.38705 0.79409 0.49469 0.0
H2488 H 0.30145 0.74742 0.52288 0.0
H2489 H 0.32259 0.84245 0.50783 0.0
H2490 H 0.39028 0.76677 0.52583 0.0
H2491 H 0.378 0.74112 0.5159 0.0
H2492 H 0.34448 0.72787 0.52451 0.0
H2493 H 0.41707 0.88533 0.50753 0.0
H2494 H 0.37936 0.87979 0.50079 0.0
H2495 H 0.40535 0.8575 0.49796 0.0
C2496 C 0.2044 0.56289 0.3489 0.0
C2497 C 0.17287 0.53615 0.34458 0.0
C2498 C 0.23578 0.55899 0.34972 0.0
C2499 C 0.235 0.5269 0.34644 0.0
C2500 C 0.20221 0.49884 0.34255 0.0
C2501 C 0.17188 0.50425 0.34147 0.0
C2502 C 0.27045 0.5902 0.35363 0.0
C2503 C 0.19955 0.46361 0.33926 0.0
C2504 C 0.32501 0.53297 0.33921 0.0
C2505 C 0.33519 0.52064 0.34662 0.0
C2506 C 0.29271 0.53542 0.33911 0.0
C2507 C 0.26918 0.52391 0.34648 0.0
C2508 C 0.27869 0.5101 0.35387 0.0
C2509 C 0.31199 0.5094 0.35392 0.0
C2510 C 0.28442 0.55148 0.3312 0.0
C2511 C 0.25378 0.49624 0.36174 0.0
H2512 H 0.2053 0.58789 0.35115 0.0
H2513 H 0.14747 0.4837 0.33809 0.0
H2514 H 0.28047 0.57993 0.35903 0.0
H2515 H 0.29251 0.60189 0.34862 0.0
H2516 H 0.26618 0.61268 0.35614 0.0
H2517 H 0.17085 0.44267 0.33749 0.0
H2518 H 0.21724 0.46953 0.33343 0.0
H2519 H 0.20968 0.45172 0.34428 0.0
H2520 H 0.34325 0.54234 0.33361 0.0
H2521 H 0.31985 0.49992 0.35967 0.0
H2522 H 0.28195 0.57571 0.33313 0.0
H2523 H 0.25765 0.5309 0.32832 0.0
H2524 H 0.30609 0.56025 0.32612 0.0
H2525 H 0.25201 0.51926 0.36481 0.0
H2526 H 0.26373 0.48385 0.36668 0.0
H2527 H 0.22545 0.47525 0.35974 0.0
C2528 C 0.48406 0.65778 0.34956 0.0
C2529 C 0.46931 0.63995 0.34163 0.0
C2530 C 0.48969 0.69345 0.35114 0.0
C2531 C 0.47927 0.71103 0.34474 0.0
C2532 C 0.46388 0.69269 0.33679 0.0
C2533 C 0.45963 0.65773 0.33529 0.0
C2534 C 0.50691 0.71241 0.35962 0.0
C2535 C 0.45119 0.70966 0.3299 0.0
C2536 C 0.45527 0.78414 0.35127 0.0
C2537 C 0.4852 0.81652 0.34793 0.0
C2538 C 0.4534 0.74986 0.35044 0.0
C2539 C 0.48274 0.74785 0.3464 0.0
C2540 C 0.51369 0.78065 0.34328 0.0
C2541 C 0.51427 0.81454 0.34394 0.0
C2542 C 0.41924 0.71559 0.35357 0.0
C2543 C 0.54591 0.77983 0.33912 0.0
H2544 H 0.49176 0.64414 0.35444 0.0
H2545 H 0.44796 0.64393 0.32917 0.0
H2546 H 0.53159 0.73968 0.35831 0.0
H2547 H 0.48719 0.71747 0.36335 0.0
H2548 H 0.51519 0.6959 0.36372 0.0
H2549 H 0.43922 0.69149 0.32413 0.0
H2550 H 0.43009 0.71543 0.33266 0.0
H2551 H 0.47466 0.73635 0.3277 0.0
H2552 H 0.4325 0.78538 0.35428 0.0
H2553 H 0.53757 0.83951 0.34141 0.0
H2554 H 0.4268 0.70024 0.35824 0.0
H2555 H 0.40528 0.69699 0.34798 0.0
H2556 H 0.3993 0.72199 0.35678 0.0
H2557 H 0.55545 0.76475 0.34335 0.0
H2558 H 0.56944 0.80798 0.33788 0.0
H2559 H 0.53723 0.76485 0.33283 0.0
C2560 C 0.22208 0.68156 0.34101 0.0
C2561 C 0.19712 0.67598 0.34771 0.0
C2562 C 0.25665 0.71398 0.34061 0.0
C2563 C 0.26593 0.74221 0.34686 0.0
C2564 C 0.2403 0.73697 0.35353 0.0
C2565 C 0.20652 0.70353 0.35399 0.0
C2566 C 0.28355 0.71767 0.33359 0.0
C2567 C 0.24845 0.76679 0.36013 0.0
C2568 C 0.36788 0.81295 0.34999 0.0
C2569 C 0.37272 0.84034 0.34403 0.0
C2570 C 0.33322 0.78096 0.35106 0.0
C2571 C 0.30235 0.77716 0.34634 0.0
C2572 C 0.30689 0.80595 0.3407 0.0
C2573 C 0.34219 0.83673 0.33945 0.0
C2574 C 0.33013 0.75041 0.35686 0.0
C2575 C 0.27462 0.80384 0.33581 0.0
H2576 H 0.21502 0.6599 0.33625 0.0
H2577 H 0.1872 0.69909 0.35918 0.0
H2578 H 0.28956 0.7413 0.32928 0.0
H2579 H 0.31004 0.72338 0.33657 0.0
H2580 H 0.27291 0.69243 0.32953 0.0
H2581 H 0.22496 0.75915 0.36464 0.0
H2582 H 0.27303 0.77247 0.36403 0.0
H2583 H 0.25494 0.79279 0.35675 0.0
H2584 H 0.39162 0.81555 0.35345 0.0
H2585 H 0.346 0.858 0.33484 0.0
H2586 H 0.32237 0.72544 0.35288 0.0
H2587 H 0.3081 0.74289 0.36177 0.0
H2588 H 0.35638 0.75816 0.36029 0.0
H2589 H 0.26502 0.78191 0.33079 0.0
H2590 H 0.28184 0.83029 0.33253 0.0
H2591 H 0.25121 0.79649 0.34031 0.0
C2592 C 0.25817 0.34239 0.17243 0.0
C2593 C 0.24095 0.3191 0.17958 0.0
C2594 C 0.29682 0.3608 0.1714 0.0
C2595 C 0.3189 0.35529 0.17755 0.0
C2596 C 0.30168 0.33215 0.18483 0.0
C2597 C 0.26312 0.31468 0.18579 0.0
C2598 C 0.314 0.38567 0.16362 0.0
C2599 C 0.32386 0.3248 0.19146 0.0
C2600 C 0.41133 0.36869 0.16969 0.0
C2601 C 0.43661 0.40303 0.17326 0.0
C2602 C 0.37318 0.35281 0.17111 0.0
C2603 C 0.35965 0.37192 0.17613 0.0
C2604 C 0.38511 0.40659 0.17981 0.0
C2605 C 0.42329 0.42158 0.17839 0.0
C2606 C 0.3473 0.31551 0.16721 0.0
C2607 C 0.37196 0.4281 0.18512 0.0
H2608 H 0.24143 0.34616 0.16762 0.0
H2609 H 0.25025 0.29653 0.1913 0.0
H2610 H 0.33623 0.41319 0.16577 0.0
H2611 H 0.3268 0.37396 0.1593 0.0
H2612 H 0.29351 0.38925 0.15979 0.0
H2613 H 0.30659 0.30725 0.19692 0.0
H2614 H 0.33732 0.31078 0.18827 0.0
H2615 H 0.34609 0.35116 0.19416 0.0
H2616 H 0.42141 0.3541 0.16575 0.0
H2617 H 0.44265 0.44818 0.18115 0.0
H2618 H 0.32812 0.31778 0.16261 0.0
H2619 H 0.33032 0.29593 0.17241 0.0
H2620 H 0.36222 0.30376 0.16367 0.0
H2621 H 0.35338 0.43396 0.18113 0.0
H2622 H 0.39514 0.45463 0.18752 0.0
H2623 H 0.35577 0.41152 0.1908 0.0
C2624 C 0.60056 1.0038 0.16884 0.0
C2625 C 0.61012 0.03534 0.17382 0.0
C2626 C 0.61696 0.98205 0.17036 0.0
C2627 C 0.64494 0.99305 0.17675 0.0
C2628 C 0.65457 0.02493 0.18183 0.0
C2629 C 0.63646 0.04525 0.18043 0.0
C2630 C 0.60468 0.94757 0.16502 0.0
C2631 C 0.68516 0.03853 0.18848 0.0
C2632 C 0.67347 0.92442 0.18481 0.0
C2633 C 0.70248 0.93148 0.17914 0.0
C2634 C 0.65419 0.9439 0.18407 0.0
C2635 C 0.66529 0.97226 0.17775 0.0
C2636 C 0.69536 0.98009 0.17218 0.0
C2637 C 0.71303 0.95909 0.17282 0.0
C2638 C 0.62143 0.93359 0.1899 0.0
C2639 C 0.70909 0.01089 0.16557 0.0
H2640 H 0.58005 0.99602 0.16375 0.0
H2641 H 0.64415 0.06988 0.18423 0.0
H2642 H 0.62725 0.95128 0.1606 0.0
H2643 H 0.59827 0.92384 0.16934 0.0
H2644 H 0.57996 0.94066 0.16101 0.0
H2645 H 0.68883 0.06328 0.19202 0.0
H2646 H 0.67951 0.01655 0.19328 0.0
H2647 H 0.71147 0.04557 0.18518 0.0
H2648 H 0.66529 0.903 0.18969 0.0
H2649 H 0.73582 0.9649 0.16851 0.0
H2650 H 0.5965 0.9254 0.18587 0.0
H2651 H 0.62603 0.95768 0.19385 0.0
H2652 H 0.6159 0.91049 0.19436 0.0
H2653 H 0.68755 1.00449 0.16059 0.0
H2654 H 0.73453 0.01536 0.16222 0.0
H2655 H 0.71491 0.03698 0.1688 0.0
C2656 C 0.06323 0.76111 0.17253 0.0
C2657 C 0.09196 0.77843 0.17857 0.0
C2658 C 0.04243 0.72235 0.17191 0.0
C2659 C 0.05151 0.70022 0.1772 0.0
C2660 C 0.08118 0.71775 0.18318 0.0
C2661 C 0.10044 0.75655 0.18393 0.0
C2662 C 0.0103 0.70506 0.16567 0.0
C2663 C 0.09293 0.69556 0.18869 0.0
C2664 C 0.97929 0.59817 0.18048 0.0
C2665 C 0.98769 0.58145 0.17363 0.0
C2666 C 0.99987 0.63673 0.18176 0.0
C2667 C 0.0305 0.65889 0.1763 0.0
C2668 C 0.04009 0.64161 0.16968 0.0
C2669 C 0.01812 0.60336 0.16831 0.0
C2670 C 0.98775 0.65392 0.1887 0.0
C2671 C 0.07326 0.66363 0.16392 0.0
H2672 H 0.05618 0.77793 0.16848 0.0
H2673 H 0.12262 0.76987 0.18862 0.0
H2674 H 0.01549 0.68948 0.16056 0.0
H2675 H 0.9849 0.68511 0.16919 0.0
H2676 H 1.00526 0.72591 0.16245 0.0
H2677 H 0.11736 0.71334 0.19278 0.0
H2678 H 0.07001 0.67662 0.19301 0.0
H2679 H 0.09964 0.67826 0.18445 0.0
H2680 H 0.95548 0.58136 0.18454 0.0
H2681 H 0.02473 0.5905 0.16302 0.0
H2682 H 0.97972 0.67287 0.18562 0.0
H2683 H 0.01083 0.67063 0.19322 0.0
H2684 H 0.964 0.63294 0.19254 0.0
H2685 H 0.06842 0.68217 0.15965 0.0
H2686 H 0.07934 0.64567 0.15974 0.0
H2687 H 0.09791 0.68125 0.16795 0.0
C2688 C 0.34819 0.25732 0.3408 0.0
C2689 C 0.319 0.23557 0.34647 0.0
C2690 C 0.36765 0.29616 0.34147 0.0
C2691 C 0.35659 0.31382 0.34768 0.0
C2692 C 0.32649 0.29182 0.35327 0.0
C2693 C 0.30862 0.25307 0.35272 0.0
C2694 C 0.40045 0.31826 0.33562 0.0
C2695 C 0.31277 0.30922 0.35979 0.0
C2696 C 0.42088 0.41067 0.35642 0.0
C2697 C 0.4111 0.43241 0.35139 0.0
C2698 C 0.40487 0.37251 0.35495 0.0
C2699 C 0.37697 0.35514 0.34855 0.0
C2700 C 0.36729 0.37716 0.34337 0.0
C2701 C 0.38503 0.41565 0.34474 0.0
C2702 C 0.41728 0.35066 0.36039 0.0
C2703 C 0.33685 0.35984 0.3367 0.0
H2704 H 0.35628 0.24388 0.33596 0.0
H2705 H 0.28567 0.23637 0.35702 0.0
H2706 H 0.39573 0.33731 0.33152 0.0
H2707 H 0.4253 0.33545 0.33963 0.0
H2708 H 0.40617 0.30042 0.3313 0.0
H2709 H 0.28744 0.28844 0.3632 0.0
H2710 H 0.33439 0.32477 0.36472 0.0
H2711 H 0.3068 0.32921 0.35646 0.0
H2712 H 0.44109 0.42358 0.36157 0.0
H2713 H 0.37705 0.43234 0.34092 0.0
H2714 H 0.4235 0.33298 0.35615 0.0
H2715 H 0.39485 0.3322 0.36488 0.0
H2716 H 0.44215 0.36875 0.36432 0.0
H2717 H 0.34237 0.34293 0.33205 0.0
H2718 H 0.33352 0.38076 0.33299 0.0
H2719 H 0.31041 0.34107 0.34002 0.0
C2720 C 0.6081 0.9789 0.36032 0.0
C2721 C 0.58219 0.97739 0.3543 0.0
C2722 C 0.64623 1.00021 0.35875 0.0
C2723 C 0.65915 0.02169 0.35106 0.0
C2724 C 0.63305 0.02046 0.34496 0.0
C2725 C 0.59488 0.99791 0.34659 0.0
C2726 C 0.67271 0.99952 0.36532 0.0
C2727 C 0.64547 0.0435 0.33678 0.0
C2728 C 0.75929 0.10085 0.35214 0.0
C2729 C 0.77795 0.08638 0.34745 0.0
C2730 C 0.72053 0.0808 0.35304 0.0
C2731 C 0.69994 0.04486 0.34944 0.0
C2732 C 0.71879 0.03014 0.34474 0.0
C2733 C 0.75732 0.05123 0.3437 0.0
C2734 C 0.70162 0.098 0.35792 0.0
C2735 C 0.69842 0.99159 0.34104 0.0
H2736 H 0.59849 0.96298 0.36628 0.0
H2737 H 0.575 0.99712 0.34195 0.0
H2738 H 0.69116 0.99118 0.36211 0.0
H2739 H 0.69043 0.02752 0.36804 0.0
H2740 H 0.65826 0.98022 0.37079 0.0
H2741 H 0.62187 0.03996 0.33275 0.0
H2742 H 0.6627 0.07308 0.33852 0.0
H2743 H 0.66283 0.036 0.3328 0.0
H2744 H 0.77495 0.12804 0.35501 0.0
H2745 H 0.7715 0.03961 0.34015 0.0
H2746 H 0.68913 0.0823 0.36399 0.0
H2747 H 0.67892 0.09673 0.35393 0.0
H2748 H 0.72095 0.12723 0.35967 0.0
H2749 H 0.68477 0.97137 0.34638 0.0
H2750 H 0.71699 0.98429 0.33748 0.0
H2751 H 0.67647 0.98874 0.33653 0.0
C2752 C 0.91535 0.66794 0.35212 0.0
C2753 C 0.92747 0.69851 0.34659 0.0
C2754 C 0.93542 0.6492 0.35294 0.0
C2755 C 0.96921 0.66213 0.34838 0.0
C2756 C 0.98151 0.69307 0.3428 0.0
C2757 C 0.96025 0.71042 0.34187 0.0
C2758 C 0.92066 0.61578 0.35878 0.0
C2759 C 0.0179 0.70883 0.33807 0.0
C2760 C 0.03903 0.64033 0.35875 0.0
C2761 C 0.03739 0.61266 0.35331 0.0
C2762 C 0.01777 0.65714 0.35709 0.0
C2763 C 0.99299 0.64513 0.34995 0.0
C2764 C 0.99119 0.61708 0.34441 0.0
C2765 C 0.01387 0.6016 0.34607 0.0
C2766 C 0.02185 0.68779 0.363 0.0
C2767 C 0.96453 0.60268 0.33688 0.0
H2768 H 0.88999 0.65845 0.35575 0.0
H2769 H 0.9701 0.73432 0.33766 0.0
H2770 H 0.92022 0.59245 0.35524 0.0
H2771 H 0.93902 0.62198 0.36449 0.0
H2772 H 0.89238 0.60697 0.36115 0.0
H2773 H 0.02319 0.73246 0.33382 0.0
H2774 H 0.04067 0.71832 0.34287 0.0
H2775 H 0.01863 0.68729 0.33402 0.0
H2776 H 0.05729 0.64911 0.36434 0.0
H2777 H 0.01219 0.57992 0.3419 0.0
H2778 H 0.99554 0.67919 0.36646 0.0
H2779 H 0.02822 0.71261 0.35909 0.0
H2780 H 0.04398 0.69551 0.36791 0.0
H2781 H 0.93591 0.59099 0.33934 0.0
H2782 H 0.96655 0.58102 0.33315 0.0
H2783 H 0.96972 0.62552 0.33239 0.0
C2784 C 0.59657 0.60074 0.84595 0.0
C2785 C 0.58358 0.60829 0.85364 0.0
C2786 C 0.63476 0.61674 0.84436 0.0
C2787 C 0.6605 0.64193 0.85047 0.0
C2788 C 0.64727 0.65027 0.85813 0.0
C2789 C 0.6091 0.63283 0.8597 0.0
C2790 C 0.64755 0.60612 0.83625 0.0
C2791 C 0.67343 0.67793 0.86467 0.0
C2792 C 0.76094 0.66439 0.85163 0.0
C2793 C 0.77905 0.69702 0.84676 0.0
C2794 C 0.72224 0.6453 0.85257 0.0
C2795 C 0.70125 0.65999 0.84885 0.0
C2796 C 0.71959 0.69313 0.84398 0.0
C2797 C 0.75807 0.7108 0.84286 0.0
C2798 C 0.70382 0.60949 0.85758 0.0
C2799 C 0.69875 0.71069 0.84019 0.0
H2800 H 0.57691 0.58147 0.84131 0.0
H2801 H 0.59914 0.63889 0.86563 0.0
H2802 H 0.66456 0.63089 0.8322 0.0
H2803 H 0.66523 0.59436 0.83806 0.0
H2804 H 0.62415 0.5856 0.83225 0.0
H2805 H 0.65869 0.68279 0.87006 0.0
H2806 H 0.69136 0.66812 0.86749 0.0
H2807 H 0.69168 0.70463 0.86139 0.0
H2808 H 0.77702 0.65354 0.85462 0.0
H2809 H 0.77199 0.73629 0.83917 0.0
H2810 H 0.68111 0.58768 0.85366 0.0
H2811 H 0.69143 0.6129 0.86364 0.0
H2812 H 0.72346 0.6 0.85935 0.0
H2813 H 0.67685 0.69118 0.83573 0.0
H2814 H 0.71702 0.73644 0.83655 0.0
H2815 H 0.68498 0.71729 0.8455 0.0
C2816 C 0.34632 0.09202 0.84249 0.0
C2817 C 0.31592 0.08367 0.84781 0.0
C2818 C 0.36558 0.07249 0.84329 0.0
C2819 C 0.3531 0.04278 0.84928 0.0
C2820 C 0.32169 0.0337 0.85449 0.0
C2821 C 0.30402 0.05472 0.85381 0.0
C2822 C 0.39971 0.08413 0.83787 0.0
C2823 C 0.30648 1.00151 0.86073 0.0
C2824 C 0.38291 0.97053 0.84633 0.0
C2825 C 0.40772 0.97899 0.85324 0.0
C2826 C 0.365 0.99108 0.84492 0.0
C2827 C 0.3733 0.02178 0.85033 0.0
C2828 C 0.39975 0.03136 0.85705 0.0
C2829 C 0.41594 0.00938 0.85854 0.0
C2830 C 0.33603 0.97892 0.8379 0.0
C2831 C 0.41064 0.06459 0.86276 0.0
H2832 H 0.35556 0.11443 0.83784 0.0
H2833 H 0.28015 0.04786 0.85784 0.0
H2834 H 0.42361 0.09129 0.84219 0.0
H2835 H 0.39607 0.06101 0.83367 0.0
H2836 H 0.40631 0.10827 0.83367 0.0
H2837 H 0.28029 0.99632 0.8638 0.0
H2838 H 0.30145 0.97616 0.85725 0.0
H2839 H 0.32684 0.0068 0.86594 0.0
H2840 H 0.37622 0.9468 0.84227 0.0
H2841 H 0.43526 0.01608 0.86387 0.0
H2842 H 0.34283 1.00189 0.83331 0.0
H2843 H 0.30898 0.97127 0.84088 0.0
H2844 H 0.33319 0.95492 0.83416 0.0
H2845 H 0.41805 0.08925 0.85869 0.0
H2846 H 0.43434 0.07059 0.86706 0.0
H2847 H 0.387 0.05989 0.86691 0.0
C2848 C 0.96079 0.25637 0.85198 0.0
C2849 C 0.92932 0.23923 0.84671 0.0
C2850 C 0.98131 0.29503 0.85281 0.0
C2851 C 0.96932 0.31721 0.84853 0.0
C2852 C 0.93731 0.29988 0.84321 0.0
C2853 C 0.91811 0.26113 0.84223 0.0
C2854 C 0.01584 0.31209 0.8583 0.0
C2855 C 0.92275 0.32216 0.83876 0.0
C2856 C 1.00335 0.41132 0.85914 0.0
C2857 C 0.03175 0.43507 0.85352 0.0
C2858 C 0.98174 0.37333 0.85736 0.0
C2859 C 0.98954 0.35827 0.84993 0.0
C2860 C 0.01804 0.38231 0.84418 0.0
C2861 C 0.03837 0.42048 0.84596 0.0
C2862 C 0.95093 0.3492 0.86353 0.0
C2863 C 0.0282 0.36752 0.83634 0.0
H2864 H 0.96969 0.23944 0.85538 0.0
H2865 H 0.89369 0.24785 0.83817 0.0
H2866 H 0.03934 0.33372 0.85453 0.0
H2867 H 0.01193 0.3256 0.86409 0.0
H2868 H 0.02321 0.29138 0.86056 0.0
H2869 H 0.89775 0.30468 0.83481 0.0
H2870 H 0.91583 0.33704 0.84372 0.0
H2871 H 0.94419 0.34327 0.83446 0.0
H2872 H 0.99801 0.4225 0.86497 0.0
H2873 H 0.06052 0.43869 0.84164 0.0
H2874 H 0.95781 0.33013 0.86697 0.0
H2875 H 0.92503 0.33205 0.85985 0.0
H2876 H 0.94588 0.36557 0.86847 0.0
H2877 H 0.0386 0.3491 0.83852 0.0
H2878 H 0.04974 0.38989 0.83228 0.0
H2879 H 1.00357 0.35077 0.83224 0.0
C2880 C 0.64348 0.6095 0.66693 0.0
C2881 C 0.61898 0.58389 0.67299 0.0
C2882 C 0.66015 0.64772 0.66841 0.0
C2883 C 0.65114 0.6609 0.67598 0.0
C2884 C 0.62597 0.63505 0.68208 0.0
C2885 C 0.6107 0.59688 0.68058 0.0
C2886 C 0.68777 0.674 0.66188 0.0
C2887 C 0.61465 0.64771 0.69011 0.0
C2888 C 0.71833 0.75927 0.68348 0.0
C2889 C 0.70406 0.77961 0.67945 0.0
C2890 C 0.70136 0.72076 0.68244 0.0
C2891 C 0.66844 0.70169 0.67752 0.0
C2892 C 0.65322 0.72201 0.67369 0.0
C2893 C 0.67161 0.76075 0.67455 0.0
C2894 C 0.71946 0.70068 0.68636 0.0
C2895 C 0.61764 0.70284 0.66861 0.0
H2896 H 0.65013 0.5996 0.66107 0.0
H2897 H 0.59152 0.57717 0.68524 0.0
H2898 H 0.67761 0.6915 0.65896 0.0
H2899 H 0.71425 0.69267 0.66518 0.0
H2900 H 0.69313 0.65936 0.65654 0.0
H2901 H 0.59419 0.62423 0.6941 0.0
H2902 H 0.63914 0.6651 0.69419 0.0
H2903 H 0.60256 0.66499 0.68819 0.0
H2904 H 0.74371 0.77373 0.68718 0.0
H2905 H 0.6604 0.77629 0.67145 0.0
H2906 H 0.72663 0.68707 0.68113 0.0
H2907 H 0.70008 0.67872 0.69084 0.0
H2908 H 0.74495 0.71945 0.69002 0.0
H2909 H 0.62165 0.69058 0.6626 0.0
H2910 H 0.60764 0.72197 0.66674 0.0
H2911 H 0.59598 0.67995 0.67252 0.0
C2912 C 0.4099 0.03279 0.66679 0.0
C2913 C 0.43608 0.03422 0.67272 0.0
C2914 C 0.37189 0.01126 0.66843 0.0
C2915 C 0.35943 0.98948 0.67608 0.0
C2916 C 0.38579 0.9906 0.68208 0.0
C2917 C 0.42385 0.0134 0.68039 0.0
C2918 C 0.34506 0.01207 0.66199 0.0
C2919 C 0.37379 0.96721 0.69021 0.0
C2920 C 0.26196 0.96038 0.68376 0.0
C2921 C 0.24097 0.92543 0.67993 0.0
C2922 C 0.30041 0.9812 0.68265 0.0
C2923 C 0.3188 0.9664 0.67781 0.0
C2924 C 0.29788 0.93063 0.67414 0.0
C2925 C 0.25916 0.91084 0.67511 0.0
C2926 C 0.32118 0.01962 0.68643 0.0
C2927 C 0.31638 0.91339 0.66911 0.0
H2928 H 0.41921 0.04894 0.66086 0.0
H2929 H 0.44399 0.01409 0.68493 0.0
H2930 H 0.32722 0.98414 0.65925 0.0
H2931 H 0.32678 0.02033 0.66532 0.0
H2932 H 0.35922 0.03151 0.65653 0.0
H2933 H 0.39759 0.97067 0.69414 0.0
H2934 H 0.35654 0.97445 0.69431 0.0
H2935 H 0.35656 0.9377 0.68841 0.0
H2936 H 0.2481 0.97209 0.68741 0.0
H2937 H 0.24317 0.88379 0.67219 0.0
H2938 H 0.33451 0.04002 0.6811 0.0
H2939 H 0.34341 0.02223 0.6908 0.0
H2940 H 0.30294 0.0269 0.69014 0.0
H2941 H 0.32856 0.92918 0.66304 0.0
H2942 H 0.29684 0.88422 0.66736 0.0
H2943 H 0.33926 0.91449 0.673 0.0
C2944 C 0.02943 0.43183 0.67419 0.0
C2945 C 0.99214 0.41349 0.6766 0.0
C2946 C 0.05132 0.41532 0.67537 0.0
C2947 C 0.03529 0.37908 0.6788 0.0
C2948 C 0.9977 0.36065 0.68135 0.0
C2949 C 0.97676 0.37828 0.68034 0.0
C2950 C 0.09147 0.43642 0.67279 0.0
C2951 C 0.97918 0.32173 0.68484 0.0
C2952 C 0.07957 0.32184 0.67247 0.0
C2953 C 0.09745 0.3217 0.68019 0.0
C2954 C 0.05912 0.34011 0.67197 0.0
C2955 C 0.05723 0.35973 0.67929 0.0
C2956 C 0.07593 0.3604 0.68704 0.0
C2957 C 0.09531 0.34091 0.68745 0.0
C2958 C 0.03888 0.33777 0.66364 0.0
C2959 C 0.07553 0.38178 0.69491 0.0
H2960 H 0.04149 0.45915 0.67134 0.0
H2961 H 0.9479 0.36389 0.68218 0.0
H2962 H 0.10895 0.43649 0.67823 0.0
H2963 H 0.09629 0.42272 0.66717 0.0
H2964 H 0.10055 0.46541 0.67096 0.0
H2965 H 0.95002 0.31152 0.68671 0.0
H2966 H 0.97988 0.30299 0.67983 0.0
H2967 H 0.99427 0.32019 0.69061 0.0
H2968 H 0.08066 0.30667 0.66687 0.0
H2969 H 0.10915 0.34104 0.69342 0.0
H2970 H 0.04892 0.36579 0.66095 0.0
H2971 H 1.00899 0.32567 0.665 0.0
H2972 H 0.04243 0.32074 0.65861 0.0
H2973 H 0.08575 0.41098 0.69311 0.0
H2974 H 0.0928 0.38097 0.7003 0.0
H2975 H 0.04689 0.37037 0.69732 0.0
C2976 C 0.92372 0.67987 0.50811 0.0
C2977 C 0.90517 0.64703 0.5129 0.0
C2978 C 0.96249 0.6987 0.50727 0.0
C2979 C 0.98308 0.68354 0.51098 0.0
C2980 C 0.96425 0.65007 0.51572 0.0
C2981 C 0.92574 0.63267 0.51675 0.0
C2982 C 0.98144 0.73482 0.50239 0.0
C2983 C 0.98461 0.632 0.5195 0.0
C2984 C 0.07619 0.71075 0.50064 0.0
C2985 C 0.10121 0.73459 0.50687 0.0
C2986 C 0.03787 0.69364 0.50196 0.0
C2987 C 0.02398 0.70157 0.50957 0.0
C2988 C 0.04922 0.72607 0.51586 0.0
C2989 C 0.08754 0.74175 0.51451 0.0
C2990 C 0.01226 0.66668 0.49524 0.0
C2991 C 0.03576 0.73621 0.52394 0.0
H2992 H 0.90797 0.69117 0.50516 0.0
H2993 H 0.91149 0.60702 0.52037 0.0
H2994 H 1.0037 0.75635 0.50646 0.0
H2995 H 0.99451 0.73183 0.4964 0.0
H2996 H 0.962 0.74443 0.50051 0.0
H2997 H 0.9659 0.60576 0.52291 0.0
H2998 H 0.99909 0.62613 0.51423 0.0
H2999 H 1.0059 0.6509 0.52416 0.0
H3000 H 0.08665 0.70498 0.49474 0.0
H3001 H 0.10681 0.76043 0.5193 0.0
H3002 H 0.99465 0.67686 0.4924 0.0
H3003 H 0.99365 0.6397 0.49836 0.0
H3004 H 0.02743 0.66226 0.48988 0.0
H3005 H 0.01801 0.74784 0.52208 0.0
H3006 H 0.05882 0.75667 0.52802 0.0
H3007 H 0.01864 0.71123 0.52791 0.0
C3008 C 0.34257 0.25309 0.50495 0.0
C3009 C 0.36519 0.25853 0.51219 0.0
C3010 C 0.32395 0.27318 0.50396 0.0
C3011 C 0.32857 0.29994 0.51027 0.0
C3012 C 0.35108 0.30526 0.51762 0.0
C3013 C 0.36877 0.28437 0.51853 0.0
C3014 C 0.29976 0.26617 0.49609 0.0
C3015 C 0.3575 0.33392 0.52442 0.0
C3016 C 0.31525 0.37973 0.50301 0.0
C3017 C 0.28076 0.37019 0.50657 0.0
C3018 C 0.33106 0.35726 0.5042 0.0
C3019 C 0.31169 0.3239 0.50895 0.0
C3020 C 0.27678 0.31409 0.51258 0.0
C3021 C 0.26189 0.33752 0.51142 0.0
C3022 C 0.36866 0.36936 0.50038 0.0
C3023 C 0.25498 0.27864 0.51761 0.0
H3024 H 0.33945 0.23316 0.50003 0.0
H3025 H 0.38637 0.28916 0.52412 0.0
H3026 H 0.27193 0.26029 0.49815 0.0
H3027 H 0.31159 0.29117 0.49193 0.0
H3028 H 0.29685 0.24269 0.49212 0.0
H3029 H 0.3748 0.33389 0.5299 0.0
H3030 H 0.37137 0.36173 0.5214 0.0
H3031 H 0.3308 0.32907 0.52708 0.0
H3032 H 0.33008 0.40503 0.49929 0.0
H3033 H 0.23515 0.32991 0.51416 0.0
H3034 H 0.36691 0.34845 0.49568 0.0
H3035 H 0.38797 0.37162 0.50561 0.0
H3036 H 0.38041 0.39636 0.49699 0.0
H3037 H 0.24998 0.25487 0.51346 0.0
H3038 H 0.228 0.27459 0.51988 0.0
H3039 H 0.27096 0.27851 0.52335 0.0
C3040 C 0.642 0.9326 0.51225 0.0
C3041 C 0.65793 0.91246 0.50899 0.0
C3042 C 0.66274 0.97121 0.51312 0.0
C3043 C 0.70069 0.99026 0.5109 0.0
C3044 C 0.71715 0.96988 0.50783 0.0
C3045 C 0.69549 0.93133 0.5068 0.0
C3046 C 0.64377 0.99173 0.51625 0.0
C3047 C 0.75764 0.98885 0.50558 0.0
C3048 C 0.74533 0.09261 0.50521 0.0
C3049 C 0.76102 0.10964 0.51318 0.0
C3050 C 0.72592 0.05393 0.50437 0.0
C3051 C 0.72278 0.03151 0.51161 0.0
C3052 C 0.7396 0.0486 0.5196 0.0
C3053 C 0.75805 0.08734 0.52032 0.0
C3054 C 0.70777 0.03702 0.49578 0.0
C3055 C 0.73777 0.02591 0.52742 0.0
H3056 H 0.61295 0.91824 0.51392 0.0
H3057 H 0.708 0.91589 0.50432 0.0
H3058 H 0.65731 0.00743 0.52225 0.0
H3059 H 0.64629 0.012 0.51125 0.0
H3060 H 0.61406 0.97295 0.51765 0.0
H3061 H 0.76672 0.96896 0.50374 0.0
H3062 H 0.76357 0.00824 0.50009 0.0
H3063 H 0.77432 1.00535 0.51122 0.0
H3064 H 0.74712 0.10951 0.49968 0.0
H3065 H 0.77023 0.10021 0.52649 0.0
H3066 H 0.67752 0.01973 0.49671 0.0
H3067 H 0.71784 0.01871 0.49333 0.0
H3068 H 0.71314 0.05818 0.49075 0.0
H3069 H 0.70875 0.00887 0.5296 0.0
H3070 H 0.75442 0.04333 0.53296 0.0
H3071 H 0.7478 0.00671 0.52567 0.0
C3072 C 0.04825 0.74356 0.68325 0.0
C3073 C 0.08557 0.76432 0.68559 0.0
C3074 C 0.03049 0.70493 0.68247 0.0
C3075 C 0.05078 0.6865 0.68375 0.0
C3076 C 0.08877 0.70749 0.68589 0.0
C3077 C 0.10554 0.74605 0.68694 0.0
C3078 C 0.98976 0.68376 0.68043 0.0
C3079 C 0.11176 0.68923 0.68704 0.0
C3080 C 0.99752 0.58387 0.68947 0.0
C3081 C 0.99224 0.56722 0.68127 0.0
C3082 C 0.01662 0.62254 0.69038 0.0
C3083 C 0.03196 0.64528 0.68294 0.0
C3084 C 0.02783 0.62851 0.67468 0.0
C3085 C 1.00747 0.58977 0.67392 0.0
C3086 C 0.01924 0.63906 0.69927 0.0
C3087 C 0.04464 0.6515 0.66661 0.0
H3088 H 0.03258 0.75748 0.68225 0.0
H3089 H 0.13444 0.76201 0.68869 0.0
H3090 H 0.98497 0.66857 0.67422 0.0
H3091 H 0.97484 0.663 0.6856 0.0
H3092 H 0.97768 0.70204 0.6799 0.0
H3093 H 0.14127 0.70954 0.68825 0.0
H3094 H 0.10112 0.66964 0.69258 0.0
H3095 H 0.10973 0.67304 0.68113 0.0
H3096 H 0.98548 0.56663 0.69517 0.0
H3097 H 1.00367 0.57708 0.66757 0.0
H3098 H 1.00561 0.65598 0.69916 0.0
H3099 H 0.04852 0.65766 0.70104 0.0
H3100 H 1.00611 0.61768 0.70441 0.0
H3101 H 0.03117 0.66796 0.66518 0.0
H3102 H 0.04172 0.63432 0.66083 0.0
H3103 H 0.07437 0.67123 0.66769 0.0
C3104 C 0.28228 0.30011 0.68771 0.0
C3105 C 0.25669 0.30915 0.68431 0.0
C3106 C 0.32039 0.32323 0.68645 0.0
C3107 C 0.33355 0.3567 0.68177 0.0
C3108 C 0.30779 0.3658 0.67823 0.0
C3109 C 0.26964 0.34176 0.67948 0.0
C3110 C 0.34664 0.31193 0.69019 0.0
C3111 C 0.32056 0.4013 0.67329 0.0
C3112 C 0.43386 0.42914 0.68645 0.0
C3113 C 0.45241 0.42468 0.67935 0.0
C3114 C 0.39511 0.40833 0.68714 0.0
C3115 C 0.37427 0.38192 0.68065 0.0
C3116 C 0.39277 0.37791 0.67338 0.0
C3117 C 0.43142 0.39942 0.67279 0.0
C3118 C 0.37654 0.41393 0.69494 0.0
C3119 C 0.37188 0.34978 0.66637 0.0
H3120 H 0.27246 0.27486 0.69141 0.0
H3121 H 0.25003 0.34899 0.67687 0.0
H3122 H 0.36451 0.31109 0.68497 0.0
H3123 H 0.36494 0.33258 0.69505 0.0
H3124 H 0.33198 0.28447 0.69339 0.0
H3125 H 0.29715 0.40417 0.67084 0.0
H3126 H 0.33791 0.42512 0.67757 0.0
H3127 H 0.3379 0.40271 0.66767 0.0
H3128 H 0.44964 0.44861 0.69154 0.0
H3129 H 0.44527 0.39545 0.66729 0.0
H3130 H 0.36394 0.38867 0.69902 0.0
H3131 H 0.35398 0.41875 0.6928 0.0
H3132 H 0.39612 0.43757 0.69902 0.0
H3133 H 0.35898 0.32162 0.66919 0.0
H3134 H 0.38996 0.35148 0.66089 0.0
H3135 H 0.3493 0.35361 0.66377 0.0
C3136 C 0.70976 0.96296 0.67759 0.0
C3137 C 0.70041 0.93739 0.68437 0.0
C3138 C 0.68885 0.98036 0.67601 0.0
C3139 C 0.65701 0.97085 0.68111 0.0
C3140 C 0.64645 0.94343 0.68764 0.0
C3141 C 0.66871 0.92772 0.68931 0.0
C3142 C 0.70197 0.01031 0.6692 0.0
C3143 C 0.61208 0.93129 0.69301 0.0
C3144 C 0.62335 0.0393 0.68495 0.0
C3145 C 0.59521 0.02831 0.67876 0.0
C3146 C 0.64439 0.02165 0.68556 0.0
C3147 C 0.63617 0.99121 0.68008 0.0
C3148 C 0.60735 0.97973 0.67388 0.0
C3149 C 0.58774 0.99895 0.67317 0.0
C3150 C 0.67558 0.03577 0.69206 0.0
C3151 C 0.59669 0.94667 0.66814 0.0
H3152 H 0.73453 0.97081 0.67384 0.0
H3153 H 0.66136 0.90785 0.69455 0.0
H3154 H 0.67949 1.0046 0.66455 0.0
H3155 H 0.70987 0.03704 0.6724 0.0
H3156 H 0.72608 0.01321 0.6655 0.0
H3157 H 0.60528 0.90668 0.69706 0.0
H3158 H 0.61592 0.954 0.69739 0.0
H3159 H 0.58825 0.92475 0.68872 0.0
H3160 H 0.6295 0.0624 0.68919 0.0
H3161 H 0.56598 0.9905 0.66837 0.0
H3162 H 0.70144 0.04126 0.68876 0.0
H3163 H 0.6694 0.01456 0.69712 0.0
H3164 H 0.68035 0.06149 0.69532 0.0
H3165 H 0.6206 0.95098 0.66415 0.0
H3166 H 0.57345 0.94102 0.66371 0.0
H3167 H 0.58857 0.92192 0.67223 0.0
C3168 C 0.27404 0.92902 0.19108 0.0
C3169 C 0.25249 0.93973 0.18627 0.0
C3170 C 0.31233 0.94577 0.18973 0.0
C3171 C 0.32994 0.97528 0.18372 0.0
C3172 C 0.30817 0.98615 0.17883 0.0
C3173 C 0.26958 0.96769 0.18003 0.0
C3174 C 0.33399 0.93212 0.19483 0.0
C3175 C 0.32577 0.0183 0.1726 0.0
C3176 C 0.43208 0.04262 0.18802 0.0
C3177 C 0.44928 0.03369 0.18139 0.0
C3178 C 0.39337 0.02449 0.18871 0.0
C3179 C 0.3712 0.99561 0.18285 0.0
C3180 C 0.38859 0.98589 0.17627 0.0
C3181 C 0.42734 1.0056 0.1755 0.0
C3182 C 0.37617 0.03675 0.19563 0.0
C3183 C 0.36629 0.95436 0.17011 0.0
H3184 H 0.26083 0.90731 0.19589 0.0
H3185 H 0.25301 0.97632 0.17639 0.0
H3186 H 0.35149 0.92652 0.19037 0.0
H3187 H 0.35264 0.95363 0.19948 0.0
H3188 H 0.31581 0.90657 0.19854 0.0
H3189 H 0.30508 0.0232 0.16925 0.0
H3190 H 0.34519 0.04367 0.1762 0.0
H3191 H 0.34203 0.0135 0.16761 0.0
H3192 H 0.44895 0.06473 0.1925 0.0
H3193 H 0.44058 0.99864 0.17037 0.0
H3194 H 0.36034 0.01394 0.20028 0.0
H3195 H 0.35647 0.04388 0.19259 0.0
H3196 H 0.39709 0.06105 0.19932 0.0
H3197 H 0.34873 0.92879 0.17387 0.0
H3198 H 0.384 0.94921 0.16561 0.0
H3199 H 0.34762 0.96027 0.16619 0.0
C3200 C 0.97175 0.39023 0.18602 0.0
C3201 C 0.98464 0.42015 0.18028 0.0
C3202 C 0.98962 0.3694 0.18677 0.0
C3203 C 0.02208 0.3795 0.18188 0.0
C3204 C 0.03535 0.41003 0.17611 0.0
C3205 C 0.01606 0.42954 0.17525 0.0
C3206 C 0.97366 0.33647 0.19279 0.0
C3207 C 0.07042 0.42265 0.17099 0.0
C3208 C 0.08476 0.34673 0.19162 0.0
C3209 C 0.07797 0.31698 0.18622 0.0
C3210 C 0.0681 0.36823 0.19003 0.0
C3211 C 0.04266 0.35889 0.18308 0.0
C3212 C 0.03582 0.32885 0.17758 0.0
C3213 C 0.05411 0.30872 0.17911 0.0
C3214 C 0.07739 0.40071 0.19588 0.0
C3215 C 1.00804 0.31699 0.17029 0.0
H3216 H 0.94719 0.38272 0.18984 0.0
H3217 H 0.02604 0.45271 0.17081 0.0
H3218 H 0.9697 0.31168 0.18922 0.0
H3219 H 0.99311 0.34142 0.1982 0.0
H3220 H 0.94679 0.33053 0.1956 0.0
H3221 H 0.07723 0.44695 0.16683 0.0
H3222 H 0.09371 0.42996 0.17553 0.0
H3223 H 0.06793 0.39998 0.16679 0.0
H3224 H 0.10332 0.35331 0.19711 0.0
H3225 H 0.04849 0.2855 0.17498 0.0
H3226 H 0.05284 0.39521 0.19977 0.0
H3227 H 0.08526 0.42574 0.19192 0.0
H3228 H 0.10032 0.40655 0.20043 0.0
H3229 H 0.98037 0.30846 0.17302 0.0
H3230 H 1.00639 0.29365 0.16648 0.0
H3231 H 0.01516 0.34039 0.16581 0.0
C3232 C 0.62719 0.59569 0.1725 0.0
C3233 C 0.59725 0.57483 0.17808 0.0
C3234 C 0.64877 0.63426 0.17334 0.0
C3235 C 0.6399 0.65269 0.17981 0.0
C3236 C 0.60888 0.63193 0.18524 0.0
C3237 C 0.58821 0.59328 0.18438 0.0
C3238 C 0.68195 0.6551 0.16751 0.0
C3239 C 0.59803 0.65046 0.19212 0.0
C3240 C 0.71628 0.74369 0.18891 0.0
C3241 C 0.71046 0.76975 0.18452 0.0
C3242 C 0.69382 0.70571 0.18735 0.0
C3243 C 0.6645 0.69323 0.18129 0.0
C3244 C 0.65874 0.71946 0.17675 0.0
C3245 C 0.68188 0.75743 0.1784 0.0
C3246 C 0.70134 0.67889 0.19227 0.0
C3247 C 0.62776 0.70737 0.17026 0.0
H3248 H 0.63465 0.58173 0.16766 0.0
H3249 H 0.56502 0.57747 0.18869 0.0
H3250 H 0.68081 0.67805 0.16419 0.0
H3251 H 0.70745 0.6675 0.1715 0.0
H3252 H 0.684 0.63709 0.1625 0.0
H3253 H 0.57156 0.63094 0.19534 0.0
H3254 H 0.61985 0.66272 0.19717 0.0
H3255 H 0.59539 0.67329 0.1892 0.0
H3256 H 0.7384 0.753 0.19363 0.0
H3257 H 0.67721 0.77742 0.17499 0.0
H3258 H 0.7058 0.66118 0.18762 0.0
H3259 H 0.67711 0.66045 0.19633 0.0
H3260 H 0.72587 0.69306 0.19656 0.0
H3261 H 0.63035 0.69025 0.1651 0.0
H3262 H 0.62738 0.73113 0.16714 0.0
H3263 H 0.60093 0.68998 0.17356 0.0
C3264 C 0.27438 0.92834 0.01348 0.0
C3265 C 0.27951 0.9148 1.00558 0.0
C3266 C 0.28976 0.96661 0.01486 0.0
C3267 C 0.31182 0.99194 1.00828 0.0
C3268 C 0.3175 0.9782 1.00035 0.0
C3269 C 0.30078 0.93991 0.99905 0.0
C3270 C 0.28215 0.97992 0.02331 0.0
C3271 C 0.34183 1.00397 0.99328 0.0
C3272 C 0.33292 0.09219 1.00774 0.0
C3273 C 0.36723 0.11058 1.01192 0.0
C3274 C 0.31392 0.05345 1.00678 0.0
C3275 C 0.33027 0.03279 1.00977 0.0
C3276 C 0.36523 0.0515 0.01387 0.0
C3277 C 0.38289 0.08992 0.01502 0.0
C3278 C 0.27629 0.03459 1.00259 0.0
C3279 C 0.38447 0.03106 0.01686 0.0
H3280 H 0.25768 0.909 0.01851 0.0
H3281 H 0.30497 0.92957 0.99294 0.0
H3282 H 0.30828 0.99683 0.02691 0.0
H3283 H 0.27017 0.99784 0.02197 0.0
H3284 H 0.26288 0.95677 0.02756 0.0
H3285 H 0.34411 0.98891 0.98758 0.0
H3286 H 0.33077 0.02172 0.99103 0.0
H3287 H 0.3699 0.02244 0.99589 0.0
H3288 H 0.32062 0.10801 1.00538 0.0
H3289 H 0.40963 0.10402 0.01817 0.0
H3290 H 0.25612 0.01245 1.00692 0.0
H3291 H 0.27714 0.02135 0.99641 0.0
H3292 H 0.26626 0.05411 1.00117 0.0
H3293 H 0.36731 0.00982 0.02174 0.0
H3294 H 0.41189 0.04974 0.01979 0.0
H3295 H 0.38828 0.01651 1.01127 0.0
C3296 C 0.08309 0.37159 1.01296 0.0
C3297 C 0.10016 0.36183 1.00648 0.0
C3298 C 0.04472 0.35044 0.01436 0.0
C3299 C 0.02324 0.31792 1.00941 0.0
C3300 C 0.0409 0.30715 1.00315 0.0
C3301 C 0.07892 0.32968 1.00162 0.0
C3302 C 0.02695 0.36376 0.02087 0.0
C3303 C 0.01955 0.27202 0.99798 0.0
C3304 C 0.92727 0.24849 0.01794 0.0
C3305 C 0.90446 0.25432 1.01227 0.0
C3306 C 0.96593 0.2684 0.01699 0.0
C3307 C 0.98217 0.29604 1.01048 0.0
C3308 C 0.95905 0.30242 1.00486 0.0
C3309 C 0.92049 0.28096 1.00571 0.0
C3310 C 0.98934 0.25959 0.02288 0.0
C3311 C 0.97503 0.33241 0.99804 0.0
H3312 H 0.09946 0.39668 0.01665 0.0
H3313 H 0.09216 0.32203 0.99663 0.0
H3314 H 1.00672 0.36924 0.0175 0.0
H3315 H 0.01155 0.34218 0.02583 0.0
H3316 H 0.04745 0.38936 0.02424 0.0
H3317 H 0.0379 0.26562 0.99404 0.0
H3318 H 1.00297 0.24849 1.00241 0.0
H3319 H 1.00006 0.27449 0.99352 0.0
H3320 H 0.9148 0.22793 0.02303 0.0
H3321 H 0.9028 0.2859 1.00143 0.0
H3322 H 1.00781 0.28408 0.02685 0.0
H3323 H 1.00715 0.25258 0.01892 0.0
H3324 H 0.97243 0.2362 0.02734 0.0
H3325 H 0.99444 0.35921 1.00112 0.0
H3326 H 0.95339 0.33534 0.99455 0.0
H3327 H 0.99092 0.32635 0.9932 0.0
C3328 C 0.76068 0.67013 0.01924 0.0
C3329 C 0.7636 0.65079 1.01211 0.0
C3330 C 0.74162 0.68981 0.01859 0.0
C3331 C 0.72416 0.68948 1.01066 0.0
C3332 C 0.72731 0.67028 1.0034 0.0
C3333 C 0.74732 0.65157 1.00418 0.0
C3334 C 0.7398 0.7106 0.02642 0.0
C3335 C 0.70858 0.66857 0.99488 0.0
C3336 C 0.64306 0.70704 1.01177 0.0
C3337 C 0.65872 0.74319 1.00857 0.0
C3338 C 0.66394 0.68922 1.01242 0.0
C3339 C 0.70172 0.70828 1.01003 0.0
C3340 C 0.71788 0.74515 1.00701 0.0
C3341 C 0.69609 0.76198 1.00622 0.0
C3342 C 0.64536 0.64972 0.01553 0.0
C3343 C 0.75819 0.76682 1.0046 0.0
H3344 H 0.77334 0.66989 0.02538 0.0
H3345 H 0.74911 0.63645 0.99865 0.0
H3346 H 0.74947 0.73974 0.02466 0.0
H3347 H 0.71083 0.69838 0.02866 0.0
H3348 H 0.75676 0.71011 0.03193 0.0
H3349 H 0.71402 0.65292 0.98982 0.0
H3350 H 0.67834 0.65522 0.99589 0.0
H3351 H 0.71809 0.69682 0.99241 0.0
H3352 H 0.61414 0.69229 0.01356 0.0
H3353 H 0.70838 0.78998 1.00379 0.0
H3354 H 0.65922 0.64763 0.02147 0.0
H3355 H 0.64785 0.63212 1.01048 0.0
H3356 H 0.61567 0.63858 0.017 0.0
H3357 H 0.77534 0.76736 1.01017 0.0
H3358 H 0.76694 0.79566 1.00271 0.0
H3359 H 0.76387 0.75324 0.9991 0.0
C3360 C 0.74242 0.03124 0.83862 0.0
C3361 C 0.76737 0.06616 0.84198 0.0
C3362 C 0.70413 0.01563 0.83973 0.0
C3363 C 0.69007 0.03561 0.84419 0.0
C3364 C 0.71517 0.07084 0.84768 0.0
C3365 C 0.75352 0.08556 0.8466 0.0
C3366 C 0.67867 0.97772 0.83607 0.0
C3367 C 0.70146 0.09325 0.85241 0.0
C3368 C 0.58887 1.00489 0.83949 0.0
C3369 C 0.57087 0.98255 0.84672 0.0
C3370 C 0.62768 0.02344 0.83874 0.0
C3371 C 0.64914 0.01913 0.84529 0.0
C3372 C 0.63113 0.99706 0.85266 0.0
C3373 C 0.59246 0.97936 0.85331 0.0
C3374 C 0.64568 0.04708 0.83083 0.0
C3375 C 0.65262 0.99104 0.85974 0.0
H3376 H 0.7529 0.016 0.83508 0.0
H3377 H 0.7726 0.11264 0.84917 0.0
H3378 H 0.66105 0.95901 0.84132 0.0
H3379 H 0.66008 0.97924 0.83115 0.0
H3380 H 0.69396 0.96538 0.83296 0.0
H3381 H 0.72438 0.12013 0.85472 0.0
H3382 H 0.68349 0.09851 0.84803 0.0
H3383 H 0.68448 0.07762 0.85809 0.0
H3384 H 0.57264 0.00774 0.83437 0.0
H3385 H 0.57908 0.96205 0.85892 0.0
H3386 H 0.65895 0.03474 0.82688 0.0
H3387 H 0.66767 0.07495 0.83285 0.0
H3388 H 0.6256 0.05 0.82666 0.0
H3389 H 0.66645 0.97654 0.857 0.0
H3390 H 0.63478 0.97447 0.86523 0.0
H3391 H 0.67452 0.0179 0.8623 0.0
C3392 C 0.9647 0.69599 0.83266 0.0
C3393 C 0.94248 0.69929 0.83902 0.0
C3394 C 0.9823 0.67534 0.83419 0.0
C3395 C 0.97658 0.65628 0.84219 0.0
C3396 C 0.95358 0.65902 0.84859 0.0
C3397 C 0.93735 0.68101 0.84699 0.0
C3398 C 1.00751 0.67442 0.82729 0.0
C3399 C 0.94578 0.63837 0.85709 0.0
C3400 C 0.9986 0.57775 0.84191 0.0
C3401 C 0.03278 0.5938 0.84618 0.0
C3402 C 0.97936 0.5972 0.84087 0.0
C3403 C 0.99527 0.63414 0.84385 0.0
C3404 C 0.02997 0.6505 0.8481 0.0
C3405 C 0.04791 0.62997 0.84934 0.0
C3406 C 0.94199 0.57822 0.83655 0.0
C3407 C 0.04873 0.69012 0.85111 0.0
H3408 H 0.96897 0.71027 0.8265 0.0
H3409 H 0.92 0.68328 0.8519 0.0
H3410 H 0.03537 0.68423 0.83006 0.0
H3411 H 0.99696 0.64571 0.82503 0.0
H3412 H 0.01013 0.69181 0.82156 0.0
H3413 H 0.92617 0.64213 0.86124 0.0
H3414 H 0.93412 0.60848 0.85581 0.0
H3415 H 0.97178 0.64791 0.86077 0.0
H3416 H 0.98666 0.54976 0.8395 0.0
H3417 H 0.07453 0.64273 0.85255 0.0
H3418 H 0.94326 0.59204 0.83029 0.0
H3419 H 0.92151 0.58033 0.84073 0.0
H3420 H 0.93209 0.54862 0.83523 0.0
H3421 H 0.05327 0.70851 0.84547 0.0
H3422 H 0.07574 0.69885 0.85426 0.0
H3423 H 0.03089 0.69413 0.85579 0.0
C3424 C 0.35082 0.26769 0.83654 0.0
C3425 C 0.31878 0.24639 0.84143 0.0
C3426 C 0.37303 0.30584 0.83796 0.0
C3427 C 0.36204 0.32357 0.84416 0.0
C3428 C 0.32974 0.30201 0.84918 0.0
C3429 C 0.30891 0.26352 0.84788 0.0
C3430 C 0.40793 0.32727 0.83271 0.0
C3431 C 0.31618 0.3198 0.85561 0.0
C3432 C 0.43056 0.42102 0.85207 0.0
C3433 C 0.42392 0.44288 0.84626 0.0
C3434 C 0.41115 0.38223 0.85139 0.0
C3435 C 0.38322 0.36481 0.84499 0.0
C3436 C 0.37599 0.38692 0.83923 0.0
C3437 C 0.39692 0.42563 0.83982 0.0
C3438 C 0.42088 0.35993 0.85743 0.0
C3439 C 0.34569 0.36971 0.83251 0.0
H3440 H 0.35853 0.25443 0.83157 0.0
H3441 H 0.28387 0.24713 0.85159 0.0
H3442 H 0.40477 0.34591 0.8281 0.0
H3443 H 0.43144 0.34475 0.83706 0.0
H3444 H 0.4148 0.3089 0.82892 0.0
H3445 H 0.29118 0.29919 0.85916 0.0
H3446 H 0.33802 0.33631 0.86042 0.0
H3447 H 0.30957 0.33903 0.85213 0.0
H3448 H 0.45143 0.43434 0.85706 0.0
H3449 H 0.3913 0.44246 0.83541 0.0
H3450 H 0.4285 0.34231 0.85357 0.0
H3451 H 0.39666 0.34128 0.86146 0.0
H3452 H 0.44416 0.37764 0.86183 0.0
H3453 H 0.35207 0.3538 0.82774 0.0
H3454 H 0.34193 0.39063 0.82892 0.0
H3455 H 0.31924 0.35008 0.8357 0.0
C3456 C 0.66136 0.91488 0.02235 0.0
C3457 C 0.65884 0.89819 0.01427 0.0
C3458 C 0.68016 0.95357 0.02321 0.0
C3459 C 0.69785 0.97617 0.01587 0.0
C3460 C 0.69663 0.95932 1.00778 0.0
C3461 C 0.67666 0.92064 1.00705 0.0
C3462 C 0.6799 0.97028 0.0319 0.0
C3463 C 0.71598 0.98218 0.99985 0.0
C3464 C 0.71417 0.07441 0.01518 0.0
C3465 C 0.75076 0.09517 0.01806 0.0
C3466 C 0.69658 0.03573 0.01453 0.0
C3467 C 0.71635 0.01734 0.01656 0.0
C3468 C 0.75366 0.03835 0.01924 0.0
C3469 C 0.77023 0.07692 0.02008 0.0
C3470 C 0.65658 0.01449 1.01183 0.0
C3471 C 0.7761 0.02007 0.02122 0.0
H3472 H 0.64731 0.89769 0.02794 0.0
H3473 H 0.67497 0.90788 1.0008 0.0
H3474 H 0.70852 0.98922 0.0341 0.0
H3475 H 0.66604 0.98687 0.03124 0.0
H3476 H 0.66542 0.94901 0.037 0.0
H3477 H 0.71497 0.96492 0.99425 0.0
H3478 H 0.70296 0.99852 0.99786 0.0
H3479 H 0.74526 1.00202 1.00139 0.0
H3480 H 0.69889 0.08832 0.01366 0.0
H3481 H 0.79856 0.09289 0.02227 0.0
H3482 H 0.64008 0.99408 0.01693 0.0
H3483 H 0.65362 0.9989 1.00576 0.0
H3484 H 0.64481 0.03277 1.01071 0.0
H3485 H 0.76369 1.00072 0.02676 0.0
H3486 H 0.80517 0.04039 0.02286 0.0
H3487 H 0.77585 1.00363 0.01552 0.0
C3488 C 0.94188 0.68013 0.02436 0.0
C3489 C 0.92041 0.64825 0.01943 0.0
C3490 C 0.97992 0.70255 0.02282 0.0
C3491 C 0.99736 0.69197 0.01646 0.0
C3492 C 0.97565 0.65979 1.01142 0.0
C3493 C 0.93728 0.63874 1.01284 0.0
C3494 C 1.00152 0.73731 0.02811 0.0
C3495 C 0.99316 0.64665 1.0048 0.0
C3496 C 0.09396 0.76136 1.0082 0.0
C3497 C 0.1164 0.7548 0.01383 0.0
C3498 C 0.05523 0.74164 1.00906 0.0
C3499 C 0.0385 0.71349 0.01544 0.0
C3500 C 0.06121 0.70631 0.02101 0.0
C3501 C 0.09982 0.72755 0.02025 0.0
C3502 C 0.03228 0.75128 1.00322 0.0
C3503 C 0.04473 0.67577 0.02769 0.0
H3504 H 0.92882 0.68762 0.02944 0.0
H3505 H 0.92074 0.61388 1.00909 0.0
H3506 H 0.02073 0.73425 0.03254 0.0
H3507 H 0.01841 0.76105 0.02375 0.0
H3508 H 0.98332 0.74379 0.03209 0.0
H3509 H 0.97246 0.62153 1.0013 0.0
H3510 H 1.00897 0.66861 0.99995 0.0
H3511 H 0.01298 0.64039 1.0081 0.0
H3512 H 0.10677 0.78242 1.00322 0.0
H3513 H 0.11712 0.722 0.02452 0.0
H3514 H 0.01483 0.7586 1.00724 0.0
H3515 H 0.01345 0.72711 0.99921 0.0
H3516 H 0.0495 0.77474 0.99882 0.0
H3517 H 0.02907 0.68181 0.0326 0.0
H3518 H 0.06605 0.67211 0.03111 0.0
H3519 H 0.02501 0.64935 0.0245 0.0
C3520 C 0.25927 0.33842 1.00693 0.0
C3521 C 0.25618 0.35785 0.01402 0.0
C3522 C 0.27804 0.31846 1.00769 0.0
C3523 C 0.29508 0.31861 0.01567 0.0
C3524 C 0.29175 0.33791 0.02289 0.0
C3525 C 0.27201 0.35688 0.022 0.0
C3526 C 0.28006 0.29758 0.99989 0.0
C3527 C 0.31007 0.33954 0.03147 0.0
C3528 C 0.32334 0.24626 0.02028 0.0
C3529 C 0.36078 0.26514 0.01798 0.0
C3530 C 0.30146 0.263 0.01942 0.0
C3531 C 0.31757 0.29986 0.01639 0.0
C3532 C 0.35543 0.31901 0.01407 0.0
C3533 C 0.37639 0.3013 0.01479 0.0
C3534 C 0.26108 0.24122 0.02176 0.0
C3535 C 0.37401 0.35851 1.01097 0.0
H3536 H 0.24697 0.33879 1.00075 0.0
H3537 H 0.2701 0.37206 0.0275 0.0
H3538 H 0.30908 0.30984 0.99769 0.0
H3539 H 0.27041 0.26848 1.00169 0.0
H3540 H 0.26319 0.29798 0.99435 0.0
H3541 H 0.30436 0.35511 0.03649 0.0
H3542 H 0.30049 0.31127 0.03393 0.0
H3543 H 0.34035 0.35295 0.03053 0.0
H3544 H 0.31108 0.21825 0.02271 0.0
H3545 H 0.40535 0.31615 1.01304 0.0
H3546 H 0.24409 0.24056 0.01614 0.0
H3547 H 0.25514 0.25479 0.02722 0.0
H3548 H 0.25238 0.21242 0.02368 0.0
H3549 H 0.36041 0.36054 1.00496 0.0
H3550 H 0.40379 0.36979 1.00958 0.0
H3551 H 0.37119 0.37607 0.01597 0.0
C3552 C 0.09092 0.37776 0.50911 0.0
C3553 C 0.11121 0.36239 0.5126 0.0
C3554 C 0.05248 0.36067 0.51031 0.0
C3555 C 0.03357 0.32667 0.51484 0.0
C3556 C 0.05384 0.31035 0.51808 0.0
C3557 C 0.09245 0.32875 0.51707 0.0
C3558 C 0.03236 0.37978 0.50701 0.0
C3559 C 0.03478 0.27363 0.52271 0.0
C3560 C 0.94273 0.29915 0.5264 0.0
C3561 C 0.91653 0.27567 0.52032 0.0
C3562 C 0.98072 0.31654 0.5246 0.0
C3563 C 0.99303 0.30926 0.51664 0.0
C3564 C 0.96659 0.28524 0.5105 0.0
C3565 C 0.92863 0.26923 0.51235 0.0
C3566 C 1.00769 0.34286 0.53122 0.0
C3567 C 0.9784 0.27578 0.50206 0.0
H3568 H 0.10534 0.404 0.50574 0.0
H3569 H 0.10798 0.31666 0.51974 0.0
H3570 H 0.00964 0.36129 0.50259 0.0
H3571 H 0.01973 0.38638 0.51257 0.0
H3572 H 0.05089 0.40574 0.50348 0.0
H3573 H 0.05383 0.263 0.52409 0.0
H3574 H 0.02314 0.27637 0.52897 0.0
H3575 H 0.01147 0.253 0.51873 0.0
H3576 H 0.93346 0.30438 0.53254 0.0
H3577 H 0.90844 0.25083 0.50767 0.0
H3578 H 0.02616 0.36993 0.52812 0.0
H3579 H 0.02532 0.33203 0.5337 0.0
H3580 H 0.99363 0.34727 0.53684 0.0
H3581 H 0.9957 0.3012 0.49824 0.0
H3582 H 0.95451 0.2565 0.498 0.0
H3583 H 0.99551 0.26296 0.50345 0.0
C3584 C 0.68427 0.7616 0.5099 0.0
C3585 C 0.65422 0.75399 0.51526 0.0
C3586 C 0.70361 0.74224 0.51086 0.0
C3587 C 0.69151 0.71337 0.51707 0.0
C3588 C 0.66069 0.70529 0.52241 0.0
C3589 C 0.64292 0.72618 0.52155 0.0
C3590 C 0.73712 0.75287 0.50528 0.0
C3591 C 0.64593 0.67399 0.52889 0.0
C3592 C 0.7194 0.63976 0.51396 0.0
C3593 C 0.74527 0.64851 0.52064 0.0
C3594 C 0.70163 0.66053 0.51272 0.0
C3595 C 0.71111 0.69174 0.51805 0.0
C3596 C 0.73852 0.70154 0.52454 0.0
C3597 C 0.75458 0.67934 0.52589 0.0
C3598 C 0.67167 0.64818 0.50594 0.0
C3599 C 0.75069 0.73532 0.53014 0.0
H3600 H 0.69291 0.78305 0.50501 0.0
H3601 H 0.61926 0.71987 0.5256 0.0
H3602 H 0.76117 0.75915 0.50946 0.0
H3603 H 0.73226 0.7295 0.50101 0.0
H3604 H 0.7442 0.77725 0.50112 0.0
H3605 H 0.62067 0.67006 0.53223 0.0
H3606 H 0.63941 0.64793 0.52554 0.0
H3607 H 0.66713 0.6793 0.53388 0.0
H3608 H 0.71185 0.61569 0.50996 0.0
H3609 H 0.77468 0.68623 0.53104 0.0
H3610 H 0.67849 0.67064 0.50119 0.0
H3611 H 0.64531 0.64182 0.50911 0.0
H3612 H 0.66747 0.62334 0.50235 0.0
H3613 H 0.75814 0.75977 0.52598 0.0
H3614 H 0.77472 0.74116 0.53429 0.0
H3615 H 0.7277 0.73148 0.53442 0.0
C3616 C 0.28781 0.91829 0.52098 0.0
C3617 C 0.26046 0.90101 0.51461 0.0
C3618 C 0.3087 0.95701 0.5216 0.0
C3619 C 0.30108 0.9792 0.51595 0.0
C3620 C 0.27283 0.96176 0.50962 0.0
C3621 C 0.25348 0.92294 0.50889 0.0
C3622 C 0.33936 0.97418 0.52823 0.0
C3623 C 0.26265 0.98407 0.5037 0.0
C3624 C 0.33368 0.0764 0.52451 0.0
C3625 C 0.36527 0.09792 0.51948 0.0
C3626 C 0.3116 0.03816 0.52312 0.0
C3627 C 0.32226 0.02051 0.51682 0.0
C3628 C 0.35419 0.04227 0.5117 0.0
C3629 C 0.37485 0.08081 0.51296 0.0
C3630 C 0.2771 0.01657 0.52849 0.0
C3631 C 0.3675 0.02465 0.50515 0.0
H3632 H 0.29371 0.90143 0.52531 0.0
H3633 H 0.23236 0.90965 0.50395 0.0
H3634 H 0.3656 0.99396 0.52498 0.0
H3635 H 0.33317 0.9899 0.53309 0.0
H3636 H 0.34344 0.95324 0.53172 0.0
H3637 H 0.23912 0.96637 0.49936 0.0
H3638 H 0.25521 1.00159 0.50765 0.0
H3639 H 0.2866 1.00281 0.49961 0.0
H3640 H 0.32612 0.08958 0.52954 0.0
H3641 H 0.39951 0.09733 0.50914 0.0
H3642 H 0.28061 0.99787 0.533 0.0
H3643 H 0.2533 0.99914 0.52421 0.0
H3644 H 0.27043 0.03482 0.5324 0.0
H3645 H 0.37411 1.00522 0.50853 0.0
H3646 H 0.39243 0.04533 0.50159 0.0
H3647 H 0.34551 0.00838 0.50035 0.0
C3648 C 0.02516 0.42766 0.3402 0.0
C3649 C 0.02743 0.44541 0.34812 0.0
C3650 C 1.00616 0.38892 0.33953 0.0
C3651 C 0.98782 0.36699 0.34691 0.0
C3652 C 0.98935 0.38476 0.3549 0.0
C3653 C 0.00964 0.42367 0.35545 0.0
C3654 C 1.00638 0.37145 0.33095 0.0
C3655 C 0.96939 0.36266 0.36286 0.0
C3656 C 0.91368 0.26756 0.34173 0.0
C3657 C 0.93195 0.24795 0.34358 0.0
C3658 C 0.93088 0.30596 0.34315 0.0
C3659 C 0.96775 0.32558 0.34623 0.0
C3660 C 0.98613 0.30573 0.34819 0.0
C3661 C 0.96786 0.2672 0.34697 0.0
C3662 C 0.90975 0.32563 0.34122 0.0
C3663 C 0.02569 0.32538 0.35125 0.0
H3664 H 0.03922 0.44413 0.33452 0.0
H3665 H 0.01114 0.4371 0.36159 0.0
H3666 H 0.01815 0.35308 0.33185 0.0
H3667 H 0.97778 0.35413 0.32854 0.0
H3668 H 0.02268 0.39227 0.32589 0.0
H3669 H 0.97163 0.38051 0.36845 0.0
H3670 H 0.93978 0.34414 0.36134 0.0
H3671 H 0.98084 0.34491 0.36485 0.0
H3672 H 0.88587 0.25285 0.33915 0.0
H3673 H 0.98227 0.2523 0.34838 0.0
H3674 H 0.92242 0.34447 0.33559 0.0
H3675 H 0.91111 0.34278 0.34687 0.0
H3676 H 0.88034 0.30613 0.33968 0.0
H3677 H 0.04359 0.34514 0.34618 0.0
H3678 H 0.03587 0.30598 0.35267 0.0
H3679 H 0.02861 0.34156 0.35721 0.0
C3680 C 0.74857 0.70789 0.34669 0.0
C3681 C 0.76536 0.69819 0.34012 0.0
C3682 C 0.71004 0.68752 0.34801 0.0
C3683 C 0.68794 0.65572 0.34288 0.0
C3684 C 0.70526 0.64493 0.33652 0.0
C3685 C 0.7435 0.66675 0.33508 0.0
C3686 C 0.6928 0.701 0.35462 0.0
C3687 C 0.68331 0.61055 0.33114 0.0
C3688 C 0.5904 0.58684 0.35086 0.0
C3689 C 0.56846 0.59391 0.34518 0.0
C3690 C 0.62922 0.60634 0.35013 0.0
C3691 C 0.64663 0.63475 0.34383 0.0
C3692 C 0.62438 0.64255 0.33824 0.0
C3693 C 0.58565 0.62155 0.33886 0.0
C3694 C 0.65157 0.59598 0.35599 0.0
C3695 C 0.64149 0.67336 0.33164 0.0
H3696 H 0.76532 0.73246 0.35052 0.0
H3697 H 0.75642 0.6591 0.33001 0.0
H3698 H 0.6735 0.70793 0.35129 0.0
H3699 H 0.67646 0.67899 0.35941 0.0
H3700 H 0.71372 0.72579 0.35818 0.0
H3701 H 0.70131 0.60374 0.32717 0.0
H3702 H 0.66587 0.58673 0.33542 0.0
H3703 H 0.6646 0.61432 0.32669 0.0
H3704 H 0.57712 0.56543 0.35574 0.0
H3705 H 0.56872 0.62737 0.33454 0.0
H3706 H 0.67077 0.61998 0.36001 0.0
H3707 H 0.6686 0.58809 0.35198 0.0
H3708 H 0.63392 0.57269 0.3604 0.0
H3709 H 0.66162 0.69946 0.33488 0.0
H3710 H 0.62055 0.67777 0.32826 0.0
H3711 H 0.6568 0.66704 0.32669 0.0
C3712 C 0.3189 0.04729 0.33396 0.0
C3713 C 0.31504 0.07002 0.34007 0.0
C3714 C 0.33988 0.03033 0.33581 0.0
C3715 C 0.35873 0.03724 0.34387 0.0
C3716 C 0.35522 0.06056 0.35004 0.0
C3717 C 0.33291 0.07616 0.34813 0.0
C3718 C 0.34165 1.00477 0.32914 0.0
C3719 C 0.37561 0.06958 0.3586 0.0
C3720 C 0.38741 0.96807 0.35134 0.0
C3721 C 0.42345 0.98365 0.34806 0.0
C3722 C 0.36626 0.98537 0.35013 0.0
C3723 C 0.38182 0.01981 0.34577 0.0
C3724 C 0.41876 0.03636 0.34275 0.0
C3725 C 0.43884 0.01778 0.34378 0.0
C3726 C 0.32668 0.96597 0.35318 0.0
C3727 C 0.43691 0.07349 0.33831 0.0
H3728 H 0.30495 0.04228 0.32774 0.0
H3729 H 0.33025 0.09396 0.35284 0.0
H3730 H 0.37044 0.01597 0.32687 0.0
H3731 H 0.33282 0.97743 0.33212 0.0
H3732 H 0.32393 1.00079 0.32339 0.0
H3733 H 0.37059 0.08867 0.36263 0.0
H3734 H 0.36709 0.04396 0.36236 0.0
H3735 H 0.40568 0.08245 0.35738 0.0
H3736 H 0.37513 0.94146 0.35455 0.0
H3737 H 0.4667 0.03004 0.34126 0.0
H3738 H 0.30807 0.9597 0.3475 0.0
H3739 H 0.32189 0.98412 0.35759 0.0
H3740 H 0.31894 0.93979 0.35665 0.0
H3741 H 0.42337 0.07127 0.33195 0.0
H3742 H 0.46677 0.08432 0.33715 0.0
H3743 H 0.43359 0.09371 0.34231 0.0
C3744 C 0.14202 0.33532 0.07712 0.0
C3745 C 0.17543 0.36332 0.07365 0.0
C3746 C 0.13857 0.32596 0.086 0.0
C3747 C 0.1692 0.3451 0.09163 0.0
C3748 C 0.20316 0.37298 0.08817 0.0
C3749 C 0.20588 0.3817 0.07924 0.0
C3750 C 0.10185 0.29605 0.0894 0.0
C3751 C 0.23652 0.39402 0.09392 0.0
C3752 C 0.14848 0.34613 0.11578 0.0
C3753 C 0.1546 0.31846 0.11917 0.0
C3754 C 0.15373 0.35546 0.10689 0.0
C3755 C 0.16529 0.33663 0.10117 0.0
C3756 C 0.17209 0.30909 0.10455 0.0
C3757 C 0.16673 0.30038 0.11349 0.0
C3758 C 0.14616 0.38501 0.10358 0.0
C3759 C 0.18452 0.2884 0.0987 0.0
H3760 H 0.11812 0.32129 0.07292 0.0
H3761 H 0.23196 0.40302 0.07664 0.0
H3762 H 0.10527 0.27451 0.09278 0.0
H3763 H 0.09094 0.30783 0.09425 0.0
H3764 H 0.08112 0.28279 0.08414 0.0
H3765 H 0.26121 0.41415 0.0902 0.0
H3766 H 0.23054 0.40914 0.099 0.0
H3767 H 0.24308 0.3746 0.09731 0.0
H3768 H 0.13855 0.35991 0.12004 0.0
H3769 H 0.17203 0.27933 0.11602 0.0
H3770 H 0.12323 0.37295 0.0988 0.0
H3771 H 0.17077 0.40677 0.10015 0.0
H3772 H 0.1387 0.39804 0.1089 0.0
H3773 H 0.16323 0.27308 0.09368 0.0
H3774 H 0.18964 0.2685 0.10237 0.0
H3775 H 0.21019 0.30807 0.09524 0.0
C3776 C 0.68789 0.83678 0.07615 0.0
C3777 C 0.65198 0.81011 0.07368 0.0
C3778 C 0.69855 0.84271 0.08497 0.0
C3779 C 0.67281 0.82137 0.09153 0.0
C3780 C 0.6364 0.79478 0.08909 0.0
C3781 C 0.62645 0.78951 0.08023 0.0
C3782 C 0.73757 0.87151 0.08727 0.0
C3783 C 0.60809 0.77126 0.09583 0.0
C3784 C 0.70866 0.80828 0.11332 0.0
C3785 C 0.70459 0.83296 0.11877 0.0
C3786 C 0.69873 0.8045 0.10447 0.0
C3787 C 0.68426 0.82586 0.1009 0.0
C3788 C 0.6802 0.85096 0.10635 0.0
C3789 C 0.69035 0.85417 0.11519 0.0
C3790 C 0.70337 0.77726 0.09894 0.0
C3791 C 0.66501 0.87435 0.10283 0.0
H3792 H 0.70772 0.85316 0.07117 0.0
H3793 H 0.59882 0.76845 0.07841 0.0
H3794 H 0.73739 0.89159 0.09195 0.0
H3795 H 0.75164 0.85821 0.0905 0.0
H3796 H 0.75387 0.88675 0.08146 0.0
H3797 H 0.58061 0.75275 0.09291 0.0
H3798 H 0.61736 0.75411 0.09931 0.0
H3799 H 0.60517 0.78903 0.10075 0.0
H3800 H 0.719 0.79125 0.11601 0.0
H3801 H 0.68743 0.87361 0.11929 0.0
H3802 H 0.72133 0.79155 0.09327 0.0
H3803 H 0.67621 0.75606 0.09634 0.0
H3804 H 0.71559 0.76316 0.10264 0.0
H3805 H 0.68221 0.89138 0.09731 0.0
H3806 H 0.66402 0.89292 0.10785 0.0
H3807 H 0.63673 0.85639 0.10028 0.0
C3808 C 0.16725 0.83489 0.11573 0.0
C3809 C 0.18072 0.87107 0.11874 0.0
C3810 C 0.17105 0.82775 0.10693 0.0
C3811 C 0.18901 0.85748 0.10099 0.0
C3812 C 0.20276 0.89403 0.10401 0.0
C3813 C 0.19841 0.90034 0.11281 0.0
C3814 C 0.1558 0.78837 0.10399 0.0
C3815 C 0.22241 0.92661 0.09794 0.0
C3816 C 0.23132 0.84525 0.08013 0.0
C3817 C 0.20554 0.84163 0.07379 0.0
C3818 C 0.22599 0.84979 0.08899 0.0
C3819 C 0.19399 0.85061 0.09164 0.0
C3820 C 0.16753 0.84632 0.0853 0.0
C3821 C 0.17367 0.84203 0.07647 0.0
C3822 C 0.25509 0.85458 0.0955 0.0
C3823 C 0.13292 0.84676 0.08784 0.0
H3824 H 0.15329 0.81207 0.12024 0.0
H3825 H 0.2095 0.92843 0.11508 0.0
H3826 H 0.13549 0.78192 0.09869 0.0
H3827 H 0.17832 0.78461 0.10132 0.0
H3828 H 0.14217 0.76831 0.10937 0.0
H3829 H 0.23128 0.95329 0.10128 0.0
H3830 H 0.24709 0.92715 0.09513 0.0
H3831 H 0.20407 0.92397 0.09244 0.0
H3832 H 0.2563 0.84555 0.07814 0.0
H3833 H 0.15339 0.83887 0.07165 0.0
H3834 H 0.24256 0.83372 0.10076 0.0
H3835 H 0.26707 0.88214 0.0986 0.0
H3836 H 0.27774 0.85196 0.09245 0.0
H3837 H 0.11767 0.82557 0.09289 0.0
H3838 H 0.11431 0.84153 0.0822 0.0
H3839 H 0.14027 0.87393 0.09069 0.0
C3840 C 0.38915 0.16776 0.44566 0.0
C3841 C 0.36936 0.175 0.45199 0.0
C3842 C 0.37901 0.1636 0.43683 0.0
C3843 C 0.34834 0.16685 0.43419 0.0
C3844 C 0.32858 0.17475 0.44051 0.0
C3845 C 0.33922 0.17858 0.44932 0.0
C3846 C 0.40067 0.15485 0.43034 0.0
C3847 C 0.2959 0.17872 0.43798 0.0
C3848 C 0.34008 0.18298 0.41 0.0
C3849 C 0.31451 0.14735 0.40712 0.0
C3850 C 0.35091 0.18989 0.41881 0.0
C3851 C 0.3361 0.16043 0.42488 0.0
C3852 C 0.31022 0.12445 0.42201 0.0
C3853 C 0.29973 0.11839 0.4132 0.0
C3854 C 0.37835 0.2287 0.4216 0.0
C3855 C 0.294 0.09216 0.42822 0.0
H3856 H 0.41211 0.16437 0.44765 0.0
H3857 H 0.32397 0.18452 0.45414 0.0
H3858 H 0.38245 0.12752 0.42734 0.0
H3859 H 0.41097 0.17553 0.42502 0.0
H3860 H 0.42453 0.15444 0.43338 0.0
H3861 H 0.28445 0.18647 0.44359 0.0
H3862 H 0.30397 0.19999 0.43283 0.0
H3863 H 0.27383 0.15234 0.43524 0.0
H3864 H 0.35142 0.20558 0.40538 0.0
H3865 H 0.28043 0.09066 0.41103 0.0
H3866 H 0.4035 0.22961 0.42421 0.0
H3867 H 0.36653 0.23753 0.42691 0.0
H3868 H 0.38648 0.24875 0.41615 0.0
H3869 H 0.31631 0.08842 0.43104 0.0
H3870 H 0.2737 0.06603 0.425 0.0
H3871 H 0.28014 0.09761 0.4337 0.0
C3872 C 0.9015 0.19644 0.41384 0.0
C3873 C 0.8723 0.17715 0.40797 0.0
C3874 C 0.89495 0.19984 0.42267 0.0
C3875 C 0.85826 0.18356 0.42578 0.0
C3876 C 0.82862 0.16389 0.41992 0.0
C3877 C 0.83597 0.16101 0.41109 0.0
C3878 C 0.9274 0.2213 0.42867 0.0
C3879 C 0.7891 0.14597 0.42297 0.0
C3880 C 0.84472 0.16813 0.45033 0.0
C3881 C 0.84195 0.19872 0.45301 0.0
C3882 C 0.84913 0.16235 0.44148 0.0
C3883 C 0.8511 0.18789 0.43514 0.0
C3884 C 0.84778 0.21851 0.43779 0.0
C3885 C 0.84319 0.2235 0.44667 0.0
C3886 C 0.85226 0.12919 0.43893 0.0
C3887 C 0.85002 0.24659 0.43128 0.0
H3888 H 0.92966 0.20957 0.41148 0.0
H3889 H 0.81323 0.14576 0.40664 0.0
H3890 H 0.92616 0.24507 0.43147 0.0
H3891 H 0.92628 0.2036 0.43417 0.0
H3892 H 0.95424 0.2318 0.42527 0.0
H3893 H 0.76918 0.13106 0.41764 0.0
H3894 H 0.78441 0.12619 0.4283 0.0
H3895 H 0.78334 0.16719 0.42564 0.0
H3896 H 0.8434 0.14862 0.45516 0.0
H3897 H 0.84164 0.24751 0.44867 0.0
H3898 H 0.87977 0.13838 0.43603 0.0
H3899 H 0.83135 0.11284 0.43392 0.0
H3900 H 0.84848 0.11101 0.44457 0.0
H3901 H 0.87753 0.26031 0.42811 0.0
H3902 H 0.8455 0.26806 0.43434 0.0
H3903 H 0.82918 0.23275 0.42608 0.0
C3904 C 0.84642 0.67016 0.41041 0.0
C3905 C 0.84276 0.70016 0.40764 0.0
C3906 C 0.84251 0.6598 0.41924 0.0
C3907 C 0.83441 0.67967 0.42549 0.0
C3908 C 0.83106 0.71018 0.42275 0.0
C3909 C 0.83533 0.72007 0.4139 0.0
C3910 C 0.84662 0.6273 0.42188 0.0
C3911 C 0.82211 0.73196 0.42916 0.0
C3912 C 0.78593 0.63164 0.44656 0.0
C3913 C 0.81483 0.64673 0.45265 0.0
C3914 C 0.79202 0.64184 0.43773 0.0
C3915 C 0.82797 0.66775 0.43484 0.0
C3916 C 0.85737 0.68287 0.44092 0.0
C3917 C 0.85044 0.67232 0.44974 0.0
C3918 C 0.75978 0.62526 0.43151 0.0
C3919 C 0.89614 0.71035 0.43811 0.0
H3920 H 0.85252 0.65483 0.40565 0.0
H3921 H 0.83187 0.74291 0.41183 0.0
H3922 H 0.86786 0.63563 0.42704 0.0
H3923 H 0.82027 0.60525 0.42464 0.0
H3924 H 0.85448 0.61571 0.41632 0.0
H3925 H 0.82157 0.75565 0.42604 0.0
H3926 H 0.79479 0.71374 0.43217 0.0
H3927 H 0.84274 0.74255 0.43449 0.0
H3928 H 0.75821 0.61233 0.44875 0.0
H3929 H 0.87301 0.68389 0.45436 0.0
H3930 H 0.76535 0.61127 0.42608 0.0
H3931 H 0.75593 0.64741 0.42862 0.0
H3932 H 0.73367 0.60499 0.43475 0.0
H3933 H 0.90511 0.69841 0.43285 0.0
H3934 H 0.91615 0.71876 0.44357 0.0
H3935 H 0.89695 0.73534 0.43542 0.0
C3936 C 0.83478 0.66833 0.91004 0.0
C3937 C 0.86928 0.69658 0.90716 0.0
C3938 C 0.8285 0.65788 0.91887 0.0
C3939 C 0.85748 0.67585 0.92499 0.0
C3940 C 0.89224 0.70457 0.92214 0.0
C3941 C 0.89767 0.7146 0.91329 0.0
C3942 C 0.79095 0.62733 0.92164 0.0
C3943 C 0.92402 0.72425 0.9284 0.0
C3944 C 0.83681 0.67009 0.94936 0.0
C3945 C 0.84426 0.64245 0.9521 0.0
C3946 C 0.84039 0.68083 0.94056 0.0
C3947 C 0.85198 0.66377 0.93432 0.0
C3948 C 0.85936 0.63576 0.93704 0.0
C3949 C 0.85537 0.62544 0.94586 0.0
C3950 C 0.832 0.71062 0.93794 0.0
C3951 C 0.87211 0.61705 0.93064 0.0
H3952 H 0.81257 0.65449 0.90538 0.0
H3953 H 0.92459 0.73605 0.91113 0.0
H3954 H 0.79324 0.6039 0.92429 0.0
H3955 H 0.77989 0.63716 0.92692 0.0
H3956 H 0.77092 0.61711 0.91617 0.0
H3957 H 0.94899 0.7467 0.92521 0.0
H3958 H 0.916 0.73622 0.93384 0.0
H3959 H 0.93115 0.70429 0.93128 0.0
H3960 H 0.8279 0.68316 0.95411 0.0
H3961 H 0.86178 0.6045 0.9479 0.0
H3962 H 0.8106 0.70021 0.93278 0.0
H3963 H 0.85707 0.73449 0.93518 0.0
H3964 H 0.82222 0.72039 0.9435 0.0
H3965 H 0.85177 0.60443 0.92529 0.0
H3966 H 0.87596 0.59524 0.93375 0.0
H3967 H 0.89863 0.63774 0.92766 0.0
C3968 C 0.29247 0.16854 0.91466 0.0
C3969 C 0.31425 0.1643 0.90832 0.0
C3970 C 0.30251 0.17322 0.9235 0.0
C3971 C 0.33509 0.17352 0.92611 0.0
C3972 C 0.35673 0.16832 0.91979 0.0
C3973 C 0.34616 0.16394 0.91098 0.0
C3974 C 0.27881 0.17901 0.93 0.0
C3975 C 0.39149 0.16815 0.92231 0.0
C3976 C 0.38199 0.22565 0.94685 0.0
C3977 C 0.37029 0.19713 0.953 0.0
C3978 C 0.37091 0.21827 0.9381 0.0
C3979 C 0.34757 0.1814 0.93538 0.0
C3980 C 0.33572 0.15241 0.94153 0.0
C3981 C 0.34708 0.16063 0.95028 0.0
C3982 C 0.38391 0.25006 0.93179 0.0
C3983 C 0.31102 0.11274 0.93888 0.0
H3984 H 0.26807 0.1694 0.91267 0.0
H3985 H 0.36293 0.16031 0.90614 0.0
H3986 H 0.27077 0.15882 0.9354 0.0
H3987 H 0.29477 0.20695 0.93289 0.0
H3988 H 0.2534 0.17621 0.92699 0.0
H3989 H 0.40403 0.16156 0.91672 0.0
H3990 H 0.41201 0.19558 0.92491 0.0
H3991 H 0.38551 0.14767 0.92755 0.0
H3992 H 0.3994 0.25398 0.94892 0.0
H3993 H 0.33815 0.13842 0.95497 0.0
H3994 H 0.35983 0.25071 0.92898 0.0
H3995 H 0.39903 0.24635 0.92632 0.0
H3996 H 0.40227 0.2771 0.93493 0.0
H3997 H 0.28466 0.10898 0.93626 0.0
H3998 H 0.30479 0.09334 0.9444 0.0
H3999 H 0.32427 0.10536 0.93361 0.0
C4000 C 0.80539 0.13832 0.91097 0.0
C4001 C 0.83784 0.14116 0.90754 0.0
C4002 C 0.80204 0.14381 0.91988 0.0
C4003 C 0.83181 0.15231 0.9256 0.0
C4004 C 0.8647 0.15536 0.9222 0.0
C4005 C 0.86732 0.14975 0.91324 0.0
C4006 C 0.76641 0.14013 0.92321 0.0
C4007 C 0.89713 0.16444 0.92804 0.0
C4008 C 0.83253 0.19689 0.94736 0.0
C4009 C 0.81761 0.16657 0.95307 0.0
C4010 C 0.8379 0.1928 0.93847 0.0
C4011 C 0.8282 0.15752 0.93514 0.0
C4012 C 0.81382 0.12693 0.94088 0.0
C4013 C 0.80867 0.1318 0.94974 0.0
C4014 C 0.8534 0.22618 0.9326 0.0
C4015 C 0.80307 0.08882 0.93763 0.0
H4016 H 0.78218 0.13108 0.90669 0.0
H4017 H 0.89266 0.15243 0.91068 0.0
H4018 H 0.75392 0.11772 0.92811 0.0
H4019 H 0.7719 0.166 0.92649 0.0
H4020 H 0.74607 0.13401 0.91791 0.0
H4021 H 0.92086 0.16615 0.9244 0.0
H4022 H 0.90627 0.19116 0.93137 0.0
H4023 H 0.88884 0.1431 0.93318 0.0
H4024 H 0.84004 0.22397 0.94985 0.0
H4025 H 0.79661 0.10802 0.95401 0.0
H4026 H 0.8329 0.22217 0.92751 0.0
H4027 H 0.87836 0.22969 0.92921 0.0
H4028 H 0.86074 0.2519 0.93623 0.0
H4029 H 0.7804 0.07967 0.93282 0.0
H4030 H 0.79383 0.06822 0.94298 0.0
H4031 H 0.82672 0.08928 0.93425 0.0
C4032 C 0.67917 0.84551 0.57693 0.0
C4033 C 0.64301 0.83253 0.57399 0.0
C4034 C 0.68739 0.84877 0.58587 0.0
C4035 C 0.65881 0.83898 0.59205 0.0
C4036 C 0.62213 0.82507 0.58912 0.0
C4037 C 0.61468 0.82198 0.58014 0.0
C4038 C 0.72681 0.86344 0.58871 0.0
C4039 C 0.5909 0.81452 0.59548 0.0
C4040 C 0.67667 0.82358 0.61561 0.0
C4041 C 0.68661 0.85781 0.61942 0.0
C4042 C 0.66724 0.8169 0.60674 0.0
C4043 C 0.66761 0.84504 0.60154 0.0
C4044 C 0.67701 0.8794 0.60537 0.0
C4045 C 0.68647 0.88538 0.61423 0.0
C4046 C 0.6573 0.77987 0.6029 0.0
C4047 C 0.67773 0.91015 0.60007 0.0
H4048 H 0.70114 0.85331 0.57223 0.0
H4049 H 0.58675 0.8124 0.57794 0.0
H4050 H 0.73683 0.88994 0.59222 0.0
H4051 H 0.72852 0.84389 0.59331 0.0
H4052 H 0.74552 0.8681 0.58313 0.0
H4053 H 0.56367 0.8022 0.59219 0.0
H4054 H 0.5902 0.7945 0.60032 0.0
H4055 H 0.59537 0.83931 0.59912 0.0
H4056 H 0.67628 0.80195 0.61956 0.0
H4057 H 0.69474 0.91215 0.61704 0.0
H4058 H 0.67696 0.78352 0.59763 0.0
H4059 H 0.62942 0.76698 0.59994 0.0
H4060 H 0.65769 0.76067 0.60784 0.0
H4061 H 0.69853 0.91848 0.5948 0.0
H4062 H 0.68444 0.9348 0.60409 0.0
H4063 H 0.65056 0.90046 0.59692 0.0
C4064 C 0.20689 0.82398 0.58058 0.0
C4065 C 0.17759 0.81569 0.57485 0.0
C4066 C 0.20421 0.82965 0.58953 0.0
C4067 C 0.17149 0.82714 0.59286 0.0
C4068 C 0.14213 0.81958 0.5871 0.0
C4069 C 0.14548 0.81388 0.5782 0.0
C4070 C 0.23619 0.8377 0.59543 0.0
C4071 C 0.10677 0.81672 0.59036 0.0
C4072 C 0.14682 0.80373 0.61682 0.0
C4073 C 0.15654 0.83826 0.62042 0.0
C4074 C 0.15214 0.79987 0.60792 0.0
C4075 C 0.16741 0.83125 0.60242 0.0
C4076 C 0.17782 0.86628 0.60602 0.0
C4077 C 0.17235 0.86937 0.61496 0.0
C4078 C 0.14069 0.76201 0.60437 0.0
C4079 C 0.19424 0.90045 0.60041 0.0
H4080 H 0.23202 0.82599 0.57808 0.0
H4081 H 0.12242 0.80695 0.57389 0.0
H4082 H 0.2452 0.86387 0.599 0.0
H4083 H 0.22741 0.8155 0.60037 0.0
H4084 H 0.26013 0.83985 0.5918 0.0
H4085 H 0.08715 0.81224 0.585 0.0
H4086 H 0.09315 0.79348 0.59503 0.0
H4087 H 0.11281 0.84223 0.5939 0.0
H4088 H 0.13405 0.77938 0.62091 0.0
H4089 H 0.18045 0.89626 0.61767 0.0
H4090 H 0.16428 0.76229 0.60101 0.0
H4091 H 0.11847 0.75407 0.59948 0.0
H4092 H 0.13058 0.74063 0.60955 0.0
H4093 H 0.21923 0.90393 0.59704 0.0
H4094 H 0.20181 0.92578 0.60423 0.0
H4095 H 0.17421 0.89752 0.5953 0.0
C4096 C 0.18015 0.3279 0.57608 0.0
C4097 C 0.21157 0.36004 0.57313 0.0
C4098 C 0.17471 0.31864 0.58499 0.0
C4099 C 0.2013 0.34198 0.59117 0.0
C4100 C 0.23278 0.37473 0.58826 0.0
C4101 C 0.23751 0.38334 0.57931 0.0
C4102 C 0.14066 0.28357 0.58778 0.0
C4103 C 0.2619 0.40039 0.59459 0.0
C4104 C 0.17444 0.33377 0.61523 0.0
C4105 C 0.1888 0.3123 0.6186 0.0
C4106 C 0.17814 0.3435 0.60635 0.0
C4107 C 0.19674 0.33161 0.60064 0.0
C4108 C 0.21121 0.30989 0.60399 0.0
C4109 C 0.20709 0.30056 0.61289 0.0
C4110 C 0.16216 0.36655 0.60307 0.0
C4111 C 0.23136 0.2967 0.59817 0.0
H4112 H 0.15963 0.30992 0.57141 0.0
H4113 H 0.26213 0.40797 0.57714 0.0
H4114 H 0.14871 0.26475 0.59091 0.0
H4115 H 0.12511 0.28985 0.59268 0.0
H4116 H 0.12206 0.26891 0.58222 0.0
H4117 H 0.28413 0.42538 0.59135 0.0
H4118 H 0.24924 0.40917 0.59972 0.0
H4119 H 0.27446 0.38574 0.59789 0.0
H4120 H 0.1599 0.3427 0.61953 0.0
H4121 H 0.21889 0.28453 0.61541 0.0
H4122 H 0.14181 0.35157 0.59784 0.0
H4123 H 0.1843 0.39257 0.60019 0.0
H4124 H 0.14836 0.37349 0.60831 0.0
H4125 H 0.21318 0.28004 0.59274 0.0
H4126 H 0.24068 0.27974 0.60174 0.0
H4127 H 0.25579 0.3207 0.59524 0.0
C4128 C 0.96078 0.4635 0.74716 0.0
C4129 C 0.98919 0.47407 0.74102 0.0
C4130 C 0.96831 0.46812 0.75614 0.0
C4131 C 1.00516 0.48368 0.7591 0.0
C4132 C 0.03406 0.49533 0.75294 0.0
C4133 C 0.02574 0.49041 0.744 0.0
C4134 C 0.93667 0.45527 0.76248 0.0
C4135 C 0.07374 0.5122 0.7558 0.0
C4136 C 0.02847 0.51921 0.78245 0.0
C4137 C 0.02868 0.48961 0.78671 0.0
C4138 C 0.02083 0.51771 0.77348 0.0
C4139 C 0.01328 0.4859 0.76863 0.0
C4140 C 0.01356 0.45602 0.77289 0.0
C4141 C 0.02125 0.45825 0.78184 0.0
C4142 C 0.02069 0.55011 0.7692 0.0
C4143 C 1.00587 0.42166 0.76797 0.0
H4144 H 0.93242 0.45044 0.74496 0.0
H4145 H 0.04795 0.49919 0.73931 0.0
H4146 H 0.93454 0.43208 0.76643 0.0
H4147 H 0.94169 0.47783 0.76705 0.0
H4148 H 0.90989 0.44592 0.75914 0.0
H4149 H 0.09314 0.5215 0.7502 0.0
H4150 H 0.0812 0.53613 0.76013 0.0
H4151 H 0.07741 0.49172 0.7596 0.0
H4152 H 0.03382 0.54341 0.78616 0.0
H4153 H 0.02199 0.4355 0.78502 0.0
H4154 H 0.99323 0.54115 0.7663 0.0
H4155 H 0.04111 0.56089 0.76383 0.0
H4156 H 0.02728 0.57288 0.77386 0.0
H4157 H 0.97823 0.40906 0.76489 0.0
H4158 H 1.00689 0.40076 0.77224 0.0
H4159 H 0.02635 0.42888 0.76266 0.0
C4160 C 0.50626 0.48466 0.74485 0.0
C4161 C 0.53563 0.51461 0.74058 0.0
C4162 C 0.49971 0.4862 0.75381 0.0
C4163 C 0.52319 0.51838 0.75864 0.0
C4164 C 0.55286 0.54866 0.75436 0.0
C4165 C 0.55868 0.54642 0.74542 0.0
C4166 C 0.46764 0.4534 0.75809 0.0
C4167 C 0.57875 0.58341 0.75925 0.0
C4168 C 0.49183 0.53985 0.7801 0.0
C4169 C 0.51008 0.52993 0.78628 0.0
C4170 C 0.495 0.53528 0.77112 0.0
C4171 C 0.51707 0.52054 0.76819 0.0
C4172 C 0.5348 0.50959 0.77439 0.0
C4173 C 0.53106 0.51435 0.78333 0.0
C4174 C 0.47557 0.54729 0.76475 0.0
C4175 C 0.55851 0.49366 0.77157 0.0
H4176 H 0.4881 0.46009 0.74117 0.0
H4177 H 0.58184 0.56948 0.74224 0.0
H4178 H 0.47772 0.44301 0.76346 0.0
H4179 H 0.44868 0.46176 0.761 0.0
H4180 H 0.45184 0.4305 0.75343 0.0
H4181 H 0.60033 0.60461 0.75497 0.0
H4182 H 0.56302 0.59534 0.7623 0.0
H4183 H 0.59246 0.57685 0.76458 0.0
H4184 H 0.47596 0.55237 0.78226 0.0
H4185 H 0.54482 0.50602 0.78802 0.0
H4186 H 0.45856 0.52452 0.76018 0.0
H4187 H 0.49625 0.57076 0.76081 0.0
H4188 H 0.45752 0.55594 0.76806 0.0
H4189 H 0.54255 0.46949 0.76727 0.0
H4190 H 0.56911 0.48498 0.77718 0.0
H4191 H 0.58235 0.51448 0.76774 0.0
C4192 C 0.47028 0.99811 0.74356 0.0
C4193 C 0.5024 0.02825 0.74016 0.0
C4194 C 0.467 0.98924 0.75248 0.0
C4195 C 0.49644 0.01106 0.75822 0.0
C4196 C 0.5291 0.04126 0.75484 0.0
C4197 C 0.5317 0.04943 0.74588 0.0
C4198 C 0.43168 0.9568 0.75578 0.0
C4199 C 0.56117 0.06523 0.76071 0.0
C4200 C 0.47274 0.00976 0.78226 0.0
C4201 C 0.48274 0.98505 0.78582 0.0
C4202 C 0.47757 0.01884 0.77335 0.0
C4203 C 0.49264 1.00277 0.76778 0.0
C4204 C 0.50322 0.97817 0.77133 0.0
C4205 C 0.49821 0.96968 0.78028 0.0
C4206 C 0.46591 0.04521 0.76987 0.0
C4207 C 0.51942 0.96044 0.76564 0.0
H4208 H 0.44721 0.98185 0.73927 0.0
H4209 H 0.55685 0.07245 0.74335 0.0
H4210 H 0.43776 0.93719 0.75925 0.0
H4211 H 0.41832 0.96642 0.76052 0.0
H4212 H 0.41184 0.94181 0.75044 0.0
H4213 H 0.58492 0.08723 0.75707 0.0
H4214 H 0.55239 0.07838 0.76572 0.0
H4215 H 0.57049 0.04813 0.7642 0.0
H4216 H 0.4602 0.02139 0.78641 0.0
H4217 H 0.50652 0.95096 0.78294 0.0
H4218 H 0.4436 0.03095 0.76501 0.0
H4219 H 0.48939 0.06861 0.7665 0.0
H4220 H 0.45587 0.05637 0.77509 0.0
H4221 H 0.49929 0.94351 0.76053 0.0
H4222 H 0.52699 0.94254 0.76941 0.0
H4223 H 0.54438 0.98197 0.76227 0.0
C4224 C 0.51019 1.00256 0.24396 0.0
C4225 C 0.54069 0.03598 0.24127 0.0
C4226 C 0.50451 0.99226 0.25281 0.0
C4227 C 0.53005 0.01577 0.25915 0.0
C4228 C 0.56065 0.04971 0.25649 0.0
C4229 C 0.56555 0.05939 0.24761 0.0
C4230 C 0.47138 0.95598 0.25536 0.0
C4231 C 0.58873 0.07552 0.26299 0.0
C4232 C 0.50285 1.00441 0.2832 0.0
C4233 C 0.51894 0.98426 0.2864 0.0
C4234 C 0.50585 0.01449 0.27436 0.0
C4235 C 0.52557 1.00438 0.26853 0.0
C4236 C 0.54175 0.98395 0.27171 0.0
C4237 C 0.53824 0.97417 0.28057 0.0
C4238 C 0.48802 0.03609 0.27124 0.0
C4239 C 0.56323 0.97279 0.26577 0.0
H4240 H 0.49061 0.98444 0.23914 0.0
H4241 H 0.5895 0.085 0.24561 0.0
H4242 H 0.48055 0.93775 0.25833 0.0
H4243 H 0.45487 0.96058 0.26033 0.0
H4244 H 0.45334 0.94146 0.24971 0.0
H4245 H 0.61034 0.10139 0.25992 0.0
H4246 H 0.57492 0.08273 0.26816 0.0
H4247 H 0.60226 0.06162 0.2662 0.0
H4248 H 0.48756 0.01203 0.28761 0.0
H4249 H 0.55131 0.95915 0.28297 0.0
H4250 H 0.46833 0.02097 0.26591 0.0
H4251 H 0.5093 0.06303 0.26856 0.0
H4252 H 0.47304 0.04121 0.27654 0.0
H4253 H 0.54562 0.95621 0.26026 0.0
H4254 H 0.5736 0.95642 0.26921 0.0
H4255 H 0.5871 0.99773 0.26296 0.0
C4256 C 0.05123 0.52836 0.28072 0.0
C4257 C 0.02959 0.53571 0.28646 0.0
C4258 C 0.04337 0.52342 0.27175 0.0
C4259 C 0.01304 0.52573 0.26842 0.0
C4260 C 0.99057 0.53226 0.27421 0.0
C4261 C 0.99914 0.53724 0.28313 0.0
C4262 C 0.06799 0.51646 0.26581 0.0
C4263 C 0.95795 0.5349 0.27094 0.0
C4264 C 0.01398 0.55234 0.24467 0.0
C4265 C 0.99018 0.51819 0.24077 0.0
C4266 C 0.02199 0.55505 0.25362 0.0
C4267 C 1.00567 0.52288 0.25885 0.0
C4268 C 0.98185 0.48828 0.25496 0.0
C4269 C 0.97445 0.48634 0.24598 0.0
C4270 C 0.04754 0.5925 0.25749 0.0
C4271 C 0.9639 0.45333 0.26031 0.0
H4272 H 0.07447 0.52658 0.28322 0.0
H4273 H 0.98253 0.54343 0.28747 0.0
H4274 H 0.05133 0.49075 0.26204 0.0
H4275 H 0.08163 0.53935 0.26106 0.0
H4276 H 0.08961 0.51404 0.26945 0.0
H4277 H 0.94212 0.53823 0.27632 0.0
H4278 H 0.96756 0.55877 0.26646 0.0
H4279 H 0.93912 0.50979 0.26718 0.0
H4280 H 0.02581 0.57723 0.24077 0.0
H4281 H 0.9564 0.45976 0.24303 0.0
H4282 H 0.07087 0.59221 0.26084 0.0
H4283 H 0.03259 0.59929 0.26245 0.0
H4284 H 0.05885 0.61469 0.2525 0.0
H4285 H 0.98529 0.44954 0.26363 0.0
H4286 H 0.94653 0.42852 0.25629 0.0
H4287 H 0.9464 0.45541 0.26545 0.0
C4288 C 0.46536 0.46765 0.24248 0.0
C4289 C 0.49898 0.47383 0.23897 0.0
C4290 C 0.46158 0.47231 0.25142 0.0
C4291 C 0.49209 0.48333 0.25705 0.0
C4292 C 0.52617 0.48982 0.25357 0.0
C4293 C 0.52921 0.485 0.24459 0.0
C4294 C 0.42471 0.465 0.25484 0.0
C4295 C 0.5594 0.50165 0.25934 0.0
C4296 C 0.48904 0.52437 0.27902 0.0
C4297 C 0.4769 0.49392 0.28462 0.0
C4298 C 0.49462 0.5215 0.27008 0.0
C4299 C 0.48801 0.48737 0.26661 0.0
C4300 C 0.47636 0.4567 0.27224 0.0
C4301 C 0.47088 0.4603 0.28114 0.0
C4302 C 0.5071 0.5549 0.26433 0.0
C4303 C 0.46896 0.41979 0.26883 0.0
H4304 H 0.44163 0.45841 0.23826 0.0
H4305 H 0.55541 0.49028 0.24196 0.0
H4306 H 0.41403 0.44224 0.25967 0.0
H4307 H 0.42788 0.48979 0.25824 0.0
H4308 H 0.40393 0.45743 0.24959 0.0
H4309 H 0.58404 0.50606 0.25562 0.0
H4310 H 0.56614 0.52761 0.26276 0.0
H4311 H 0.55317 0.48039 0.2644 0.0
H4312 H 0.49429 0.55061 0.28164 0.0
H4313 H 0.46095 0.4364 0.28534 0.0
H4314 H 0.48593 0.54913 0.25928 0.0
H4315 H 0.53289 0.56116 0.26089 0.0
H4316 H 0.51203 0.5797 0.26805 0.0
H4317 H 0.4461 0.40909 0.26403 0.0
H4318 H 0.46148 0.39904 0.2741 0.0
H4319 H 0.49366 0.42287 0.26539 0.0
C4320 C 0.96126 0.17864 0.27822 0.0
C4321 C 0.97561 0.16732 0.28506 0.0
C4322 C 0.97752 0.18651 0.26989 0.0
C4323 C 1.00903 0.18307 0.26831 0.0
C4324 C 0.02401 0.17223 0.27522 0.0
C4325 C 1.00717 0.1645 0.28348 0.0
C4326 C 0.96055 0.19785 0.26272 0.0
C4327 C 0.05766 0.16841 0.27386 0.0
C4328 C 0.03011 0.16694 0.24507 0.0
C4329 C 0.05822 0.2022 0.24258 0.0
C4330 C 0.01375 0.16044 0.25336 0.0
C4331 C 0.02576 0.18986 0.25939 0.0
C4332 C 0.05396 0.22558 0.25691 0.0
C4333 C 0.06975 0.23133 0.24855 0.0
C4334 C 0.98362 0.12199 0.25569 0.0
C4335 C 0.06775 0.25769 0.26313 0.0
H4336 H 0.93665 0.18047 0.27931 0.0
H4337 H 0.01885 0.15631 0.28873 0.0
H4338 H 0.98148 0.22467 0.25991 0.0
H4339 H 0.95095 0.17723 0.25739 0.0
H4340 H 0.93681 0.20041 0.26505 0.0
H4341 H 0.06654 0.1607 0.27994 0.0
H4342 H 0.0518 0.14704 0.26886 0.0
H4343 H 0.08087 0.19474 0.2714 0.0
H4344 H 0.02058 0.14434 0.24047 0.0
H4345 H 0.09171 0.25857 0.24675 0.0
H4346 H 0.95818 0.12237 0.25752 0.0
H4347 H 0.99205 0.11182 0.26142 0.0
H4348 H 0.97706 0.1022 0.25025 0.0
H4349 H 0.04456 0.26155 0.26525 0.0
H4350 H 0.08945 0.28384 0.26019 0.0
H4351 H 0.07917 0.25188 0.26906 0.0
C4352 C 0.85628 0.79944 0.27741 0.0
C4353 C 0.86522 0.82449 0.28431 0.0
C4354 C 0.8474 0.80697 0.2691 0.0
C4355 C 0.84722 0.84031 0.26761 0.0
C4356 C 0.85602 0.86562 0.27457 0.0
C4357 C 0.86497 0.85747 0.2828 0.0
C4358 C 0.83849 0.77934 0.26187 0.0
C4359 C 0.85593 0.90135 0.27331 0.0
C4360 C 0.85694 0.87671 0.24438 0.0
C4361 C 0.82027 0.86552 0.24216 0.0
C4362 C 0.86604 0.8685 0.25259 0.0
C4363 C 0.83789 0.84876 0.2588 0.0
C4364 C 0.80082 0.83732 0.2566 0.0
C4365 C 0.79247 0.84573 0.24833 0.0
C4366 C 0.90587 0.881 0.25461 0.0
C4367 C 0.76996 0.81648 0.26303 0.0
H4368 H 0.85686 0.77413 0.27846 0.0
H4369 H 0.87136 0.87681 0.2881 0.0
H4370 H 0.81047 0.77018 0.25929 0.0
H4371 H 0.85816 0.79242 0.25641 0.0
H4372 H 0.83973 0.75469 0.26407 0.0
H4373 H 0.86316 0.918 0.27937 0.0
H4374 H 0.87593 0.91806 0.26816 0.0
H4375 H 0.8283 0.89555 0.27111 0.0
H4376 H 0.87858 0.89159 0.23964 0.0
H4377 H 0.76413 0.83736 0.24674 0.0
H4378 H 0.90885 0.85687 0.25633 0.0
H4379 H 0.91502 0.89965 0.26033 0.0
H4380 H 0.92446 0.8957 0.24905 0.0
H4381 H 0.76926 0.79067 0.26503 0.0
H4382 H 0.74258 0.80932 0.26032 0.0
H4383 H 0.77486 0.8333 0.26899 0.0
C4384 C 0.17787 0.05853 0.27729 0.0
C4385 C 0.19634 0.04996 0.28371 0.0
C4386 C 0.16955 0.04115 0.2691 0.0
C4387 C 0.18009 0.0146 0.26719 0.0
C4388 C 0.19908 1.00607 0.27359 0.0
C4389 C 0.20687 0.02373 0.28175 0.0
C4390 C 0.14928 0.05113 0.26249 0.0
C4391 C 0.2109 0.978 0.27183 0.0
C4392 C 0.12792 0.94486 0.24917 0.0
C4393 C 0.15191 0.95991 0.24203 0.0
C4394 C 0.13684 0.96218 0.25737 0.0
C4395 C 0.17073 0.9954 0.25854 0.0
C4396 C 0.19531 0.01054 0.25141 0.0
C4397 C 0.18561 0.99272 0.24326 0.0
C4398 C 0.1098 0.94501 0.26479 0.0
C4399 C 0.23174 0.04585 0.25235 0.0
H4400 H 0.17013 0.07917 0.27864 0.0
H4401 H 0.2207 0.01645 0.28667 0.0
H4402 H 0.16593 0.06161 0.25646 0.0
H4403 H 0.12294 0.02622 0.26069 0.0
H4404 H 0.14312 0.07243 0.26495 0.0
H4405 H 0.22627 0.97513 0.27739 0.0
H4406 H 0.18634 0.9507 0.2705 0.0
H4407 H 0.22865 0.98598 0.26596 0.0
H4408 H 0.10212 0.91924 0.24838 0.0
H4409 H 0.20421 1.00495 0.2378 0.0
H4410 H 0.10122 0.96461 0.26717 0.0
H4411 H 0.12313 0.93913 0.27031 0.0
H4412 H 0.08477 0.91895 0.26285 0.0
H4413 H 0.22691 0.06874 0.25417 0.0
H4414 H 0.24827 0.0535 0.24627 0.0
H4415 H 0.24811 0.04301 0.25767 0.0
C4416 C 0.9427 0.82188 0.77668 0.0
C4417 C 0.95943 0.81614 0.78398 0.0
C4418 C 0.95915 0.8286 0.76839 0.0
C4419 C 0.9932 0.82951 0.76731 0.0
C4420 C 0.01004 0.82329 0.77462 0.0
C4421 C 0.99303 0.81675 0.78284 0.0
C4422 C 0.94019 0.83503 0.76078 0.0
C4423 C 0.04632 0.82402 0.77377 0.0
C4424 C 0.02136 0.81756 0.74441 0.0
C4425 C 0.04589 0.85418 0.74194 0.0
C4426 C 1.00418 0.8091 0.75263 0.0
C4427 C 0.01161 0.83789 0.75858 0.0
C4428 C 0.03645 0.87486 0.75615 0.0
C4429 C 0.05326 0.88252 0.74789 0.0
C4430 C 0.97787 0.76932 0.75495 0.0
C4431 C 0.04528 0.90643 0.76227 0.0
H4432 H 0.91647 0.82087 0.77742 0.0
H4433 H 1.0065 0.81283 0.78843 0.0
H4434 H 0.95833 0.86286 0.758 0.0
H4435 H 0.93497 0.81469 0.75556 0.0
H4436 H 0.91354 0.83284 0.76266 0.0
H4437 H 0.05526 0.81749 0.78 0.0
H4438 H 0.04409 0.80386 0.76877 0.0
H4439 H 0.06803 0.8517 0.77156 0.0
H4440 H 0.01511 0.79545 0.73984 0.0
H4441 H 0.07263 0.91085 0.74615 0.0
H4442 H 0.95011 0.76541 0.75629 0.0
H4443 H 0.98725 0.76182 0.76097 0.0
H4444 H 0.97545 0.75008 0.74967 0.0
H4445 H 0.01965 0.90668 0.76398 0.0
H4446 H 0.06523 0.93362 0.75942 0.0
H4447 H 0.05697 0.90275 0.76842 0.0
C4448 C 0.14256 0.20166 0.7502 0.0
C4449 C 0.16249 0.20206 0.74279 0.0
C4450 C 0.14968 0.19193 0.75844 0.0
C4451 C 0.17739 0.18216 0.75938 0.0
C4452 C 0.19759 0.18243 0.75194 0.0
C4453 C 0.18994 0.19236 0.74377 0.0
C4454 C 0.12736 0.19191 0.76617 0.0
C4455 C 0.2274 0.17229 0.75263 0.0
C4456 C 0.21768 0.18825 0.78204 0.0
C4457 C 0.1985 0.15133 0.78483 0.0
C4458 C 0.21133 0.1986 0.77378 0.0
C4459 C 0.18503 0.17148 0.76812 0.0
C4460 C 0.16566 0.13417 0.77087 0.0
C4461 C 0.17265 0.12458 0.77915 0.0
C4462 C 0.23257 0.23868 0.77113 0.0
C4463 C 0.13744 0.10433 0.76506 0.0
H4464 H 0.12087 0.20846 0.74953 0.0
H4465 H 0.20588 0.193 0.73814 0.0
H4466 H 0.11225 0.16388 0.76906 0.0
H4467 H 0.14595 0.21077 0.77128 0.0
H4468 H 0.10712 0.20061 0.76439 0.0
H4469 H 0.24053 0.17369 0.74625 0.0
H4470 H 0.24902 0.19114 0.75725 0.0
H4471 H 0.21569 0.14392 0.75526 0.0
H4472 H 0.23734 0.20928 0.78639 0.0
H4473 H 0.15808 0.0959 0.78114 0.0
H4474 H 0.21319 0.24898 0.76989 0.0
H4475 H 0.24773 0.24172 0.76498 0.0
H4476 H 0.25264 0.25631 0.77619 0.0
H4477 H 0.11523 0.11047 0.76344 0.0
H4478 H 0.12478 0.07662 0.76813 0.0
H4479 H 0.15048 0.10354 0.75883 0.0
C4480 C 0.88464 0.04604 0.77969 0.0
C4481 C 0.85947 0.05405 0.78379 0.0
C4482 C 0.8772 0.02917 0.77144 0.0
C4483 C 0.84367 0.01983 0.76717 0.0
C4484 C 0.81804 0.02765 0.77128 0.0
C4485 C 0.82628 0.04472 0.77951 0.0
C4486 C 0.90543 0.02162 0.76727 0.0
C4487 C 0.78184 0.01789 0.767 0.0
C4488 C 0.83885 0.0068 0.74251 0.0
C4489 C 0.8211 0.96824 0.7417 0.0
C4490 C 0.84622 0.02389 0.75073 0.0
C4491 C 0.83549 1.002 0.75838 0.0
C4492 C 0.81731 0.96309 0.75761 0.0
C4493 C 0.81043 0.94673 0.74931 0.0
C4494 C 0.86563 0.06545 0.75123 0.0
C4495 C 0.80539 0.93869 0.76558 0.0
H4496 H 0.91056 0.05357 0.78287 0.0
H4497 H 0.80647 0.05039 0.78266 0.0
H4498 H 0.89297 0.99173 0.76589 0.0
H4499 H 0.91448 0.03637 0.76096 0.0
H4500 H 0.93007 0.03038 0.77146 0.0
H4501 H 0.76481 0.02562 0.77106 0.0
H4502 H 0.78697 0.03211 0.76062 0.0
H4503 H 0.76584 0.9878 0.76571 0.0
H4504 H 0.84675 0.02373 0.7367 0.0
H4505 H 0.79722 0.91698 0.7488 0.0
H4506 H 0.89168 0.07596 0.75496 0.0
H4507 H 0.84816 0.07418 0.75477 0.0
H4508 H 0.87216 0.07856 0.7447 0.0
H4509 H 0.82983 0.94486 0.7696 0.0
H4510 H 0.79075 0.9089 0.76389 0.0
H4511 H 0.78692 0.94438 0.76966 0.0
C4512 C 0.63106 0.49971 0.61242 0.0
C4513 C 0.64038 0.48039 0.61843 0.0
C4514 C 0.64713 0.50873 0.60408 0.0
C4515 C 0.67338 0.49839 0.60166 0.0
C4516 C 0.6832 0.47924 0.60772 0.0
C4517 C 0.66658 0.47043 0.616 0.0
C4518 C 0.63567 0.52894 0.59781 0.0
C4519 C 0.71125 0.46794 0.60545 0.0
C4520 C 0.69021 0.48961 0.57758 0.0
C4521 C 0.72294 0.52289 0.57595 0.0
C4522 C 0.67365 0.48149 0.58587 0.0
C4523 C 0.69022 0.50714 0.59275 0.0
C4524 C 0.72314 0.54087 0.59114 0.0
C4525 C 0.739 0.54837 0.58277 0.0
C4526 C 0.63843 0.44534 0.58727 0.0
C4527 C 0.74187 0.56888 0.59829 0.0
H4528 H 0.61056 0.50717 0.61418 0.0
H4529 H 0.67437 0.45597 0.62062 0.0
H4530 H 0.66015 0.55505 0.59569 0.0
H4531 H 0.62336 0.51195 0.59189 0.0
H4532 H 0.61532 0.5355 0.60071 0.0
H4533 H 0.71636 0.45375 0.61094 0.0
H4534 H 0.70162 0.44916 0.59975 0.0
H4535 H 0.73775 0.49256 0.6036 0.0
H4536 H 0.67729 0.46996 0.57234 0.0
H4537 H 0.76449 0.57395 0.58162 0.0
H4538 H 0.61644 0.45053 0.58967 0.0
H4539 H 0.64274 0.42893 0.59232 0.0
H4540 H 0.62864 0.42865 0.58122 0.0
H4541 H 0.72256 0.57715 0.60104 0.0
H4542 H 0.767 0.594 0.59597 0.0
H4543 H 0.74974 0.55648 0.60367 0.0
C4544 C 0.53849 0.18966 0.61493 0.0
C4545 C 0.53522 0.15518 0.61662 0.0
C4546 C 0.52915 0.19786 0.60676 0.0
C4547 C 0.51638 0.17103 0.60006 0.0
C4548 C 0.5128 0.13609 0.60173 0.0
C4549 C 0.52213 0.12855 0.60998 0.0
C4550 C 0.53309 0.23534 0.60529 0.0
C4551 C 0.49956 0.1068 0.59476 0.0
C4552 C 0.46327 0.18139 0.5811 0.0
C4553 C 0.4908 0.19815 0.57473 0.0
C4554 C 0.47112 0.17225 0.58935 0.0
C4555 C 0.50735 0.1798 0.59127 0.0
C4556 C 0.53514 0.19629 0.58482 0.0
C4557 C 0.52658 0.20533 0.57666 0.0
C4558 C 0.44073 0.15495 0.59604 0.0
C4559 C 0.57403 0.20454 0.58656 0.0
H4560 H 0.54808 0.21023 0.62005 0.0
H4561 H 0.51989 0.10199 0.61119 0.0
H4562 H 0.55304 0.24985 0.59996 0.0
H4563 H 0.50626 0.23222 0.60325 0.0
H4564 H 0.54267 0.25287 0.61122 0.0
H4565 H 0.49776 0.08086 0.59712 0.0
H4566 H 0.47199 0.10048 0.59239 0.0
H4567 H 0.51861 0.1171 0.58911 0.0
H4568 H 0.43567 0.1761 0.57972 0.0
H4569 H 0.54791 0.21779 0.57174 0.0
H4570 H 0.44821 0.17299 0.60186 0.0
H4571 H 0.43728 0.12813 0.59822 0.0
H4572 H 0.41391 0.15031 0.59349 0.0
H4573 H 0.58592 0.22404 0.59209 0.0
H4574 H 0.59228 0.21672 0.58081 0.0
H4575 H 0.5739 0.17888 0.58843 0.0
C4576 C 0.84213 0.38198 0.61275 0.0
C4577 C 0.86032 0.37219 0.61898 0.0
C4578 C 0.83332 0.36551 0.60445 0.0
C4579 C 0.84298 0.33855 0.60224 0.0
C4580 C 0.86145 0.3286 0.60848 0.0
C4581 C 0.86983 0.34544 0.61675 0.0
C4582 C 0.81367 0.37704 0.59803 0.0
C4583 C 0.87224 0.3 0.60642 0.0
C4584 C 0.79041 0.27204 0.58368 0.0
C4585 C 0.81484 0.28764 0.57663 0.0
C4586 C 0.79927 0.28814 0.59202 0.0
C4587 C 0.83354 0.32068 0.59343 0.0
C4588 C 0.8585 0.33641 0.58638 0.0
C4589 C 0.84887 0.3198 0.5781 0.0
C4590 C 0.77181 0.27036 0.59933 0.0
C4591 C 0.89532 0.37106 0.58757 0.0
H4592 H 0.83517 0.40301 0.61431 0.0
H4593 H 0.88346 0.33725 0.62151 0.0
H4594 H 0.8306 0.38827 0.59206 0.0
H4595 H 0.78717 0.35272 0.59605 0.0
H4596 H 0.80792 0.39825 0.60074 0.0
H4597 H 0.88685 0.29559 0.61192 0.0
H4598 H 0.84731 0.27333 0.60483 0.0
H4599 H 0.89041 0.30856 0.60061 0.0
H4600 H 0.76432 0.2469 0.58271 0.0
H4601 H 0.86783 0.33248 0.57271 0.0
H4602 H 0.76382 0.2901 0.60194 0.0
H4603 H 0.78454 0.26315 0.60476 0.0
H4604 H 0.74648 0.24498 0.59721 0.0
H4605 H 0.89108 0.39404 0.58966 0.0
H4606 H 0.91204 0.37938 0.58151 0.0
H4607 H 0.91124 0.3669 0.59279 0.0
C4608 C 0.72811 0.17872 0.08239 0.0
C4609 C 0.71046 0.18356 0.07515 0.0
C4610 C 0.71211 0.17175 0.09075 0.0
C4611 C 0.67748 0.1695 0.09195 0.0
C4612 C 0.65935 0.17406 0.08466 0.0
C4613 C 0.67601 0.18103 0.07638 0.0
C4614 C 0.73252 0.16724 0.09831 0.0
C4615 C 0.62237 0.17173 0.08562 0.0
C4616 C 0.62096 0.1209 0.11223 0.0
C4617 C 0.62805 0.15071 0.11767 0.0
C4618 C 0.6368 0.12657 0.10388 0.0
C4619 C 0.66051 0.16295 0.10084 0.0
C4620 C 0.66797 0.19314 0.10632 0.0
C4621 C 0.65168 0.18668 0.11463 0.0
C4622 C 0.62795 0.09357 0.09826 0.0
C4623 C 0.69323 0.23237 0.1034 0.0
H4624 H 0.75495 0.18114 0.08158 0.0
H4625 H 0.66184 0.18423 0.07084 0.0
H4626 H 0.73868 0.1889 0.10325 0.0
H4627 H 0.71503 0.14019 0.10152 0.0
H4628 H 0.75884 0.16902 0.09629 0.0
H4629 H 0.61158 0.17537 0.07931 0.0
H4630 H 0.60203 0.14461 0.08841 0.0
H4631 H 0.62466 0.19325 0.09021 0.0
H4632 H 0.60244 0.09302 0.11445 0.0
H4633 H 0.65783 0.20993 0.11881 0.0
H4634 H 0.65372 0.09379 0.09646 0.0
H4635 H 0.61475 0.09496 0.09212 0.0
H4636 H 0.60922 0.06707 0.10157 0.0
H4637 H 0.72089 0.23642 0.10184 0.0
H4638 H 0.69638 0.25281 0.10843 0.0
H4639 H 0.68233 0.23803 0.09737 0.0
C4640 C 0.86268 0.51468 0.11624 0.0
C4641 C 0.85985 0.48019 0.11766 0.0
C4642 C 0.85515 0.52439 0.10802 0.0
C4643 C 0.84433 0.49901 0.10103 0.0
C4644 C 0.84163 0.46427 0.1024 0.0
C4645 C 0.84949 0.45536 0.11066 0.0
C4646 C 0.85841 0.56172 0.10685 0.0
C4647 C 0.83023 0.43637 0.09514 0.0
C4648 C 0.79032 0.50816 0.08211 0.0
C4649 C 0.81752 0.52491 0.07565 0.0
C4650 C 0.79869 0.49977 0.09038 0.0
C4651 C 0.83526 0.50849 0.09231 0.0
C4652 C 0.86295 0.52576 0.08586 0.0
C4653 C 0.85377 0.53366 0.07763 0.0
C4654 C 0.76828 0.48136 0.09704 0.0
C4655 C 0.90229 0.5356 0.08764 0.0
H4656 H 0.87017 0.53395 0.12159 0.0
H4657 H 0.84779 0.4289 0.11161 0.0
H4658 H 0.87795 0.57696 0.1015 0.0
H4659 H 0.83127 0.55828 0.10499 0.0
H4660 H 0.86807 0.57872 0.11286 0.0
H4661 H 0.82964 0.41068 0.09723 0.0
H4662 H 0.80241 0.42912 0.09274 0.0
H4663 H 0.84955 0.44838 0.08957 0.0
H4664 H 0.76237 0.50182 0.08074 0.0
H4665 H 0.87496 0.54615 0.07268 0.0
H4666 H 0.77539 0.49865 0.10298 0.0
H4667 H 0.76528 0.45448 0.09899 0.0
H4668 H 0.74131 0.47652 0.09454 0.0
H4669 H 0.91294 0.5538 0.09343 0.0
H4670 H 0.9208 0.5498 0.08204 0.0
H4671 H 0.90344 0.51026 0.08913 0.0
C4672 C 0.49689 0.38707 0.11165 0.0
C4673 C 0.52893 0.39274 0.11593 0.0
C4674 C 0.48698 0.36975 0.10346 0.0
C4675 C 0.50955 0.35766 0.09946 0.0
C4676 C 0.54182 0.36313 0.10376 0.0
C4677 C 0.55112 0.3806 0.11193 0.0
C4678 C 0.45243 0.36457 0.09908 0.0
C4679 C 0.56654 0.35046 0.09975 0.0
C4680 C 0.46844 0.28321 0.08201 0.0
C4681 C 0.48169 0.30388 0.07431 0.0
C4682 C 0.47696 0.30036 0.09021 0.0
C4683 C 0.49943 0.33918 0.09077 0.0
C4684 C 0.51273 0.36026 0.08304 0.0
C4685 C 0.50368 0.34239 0.07492 0.0
C4686 C 0.46226 0.27686 0.09829 0.0
C4687 C 0.53674 0.40171 0.08335 0.0
H4688 H 0.47982 0.39675 0.11464 0.0
H4689 H 0.57564 0.3844 0.11523 0.0
H4690 H 0.45946 0.37884 0.09269 0.0
H4691 H 0.43335 0.33485 0.09781 0.0
H4692 H 0.43779 0.37541 0.10306 0.0
H4693 H 0.59064 0.3568 0.10393 0.0
H4694 H 0.55069 0.32027 0.0986 0.0
H4695 H 0.57674 0.36395 0.09333 0.0
H4696 H 0.45193 0.25342 0.08164 0.0
H4697 H 0.51366 0.35868 0.06902 0.0
H4698 H 0.4461 0.28605 0.10223 0.0
H4699 H 0.48552 0.28016 0.10239 0.0
H4700 H 0.4444 0.24714 0.09674 0.0
H4701 H 0.52215 0.41393 0.08682 0.0
H4702 H 0.54448 0.41416 0.07676 0.0
H4703 H 0.56233 0.40933 0.08705 0.0
C4704 C 0.40223 0.87722 0.91598 0.0
C4705 C 0.384 0.85455 0.90881 0.0
C4706 C 0.38591 0.86948 0.9243 0.0
C4707 C 0.35033 0.8384 0.92551 0.0
C4708 C 0.33162 0.81565 0.91828 0.0
C4709 C 0.34866 0.82392 0.91005 0.0
C4710 C 0.40696 0.89434 0.93182 0.0
C4711 C 0.29357 0.78242 0.91925 0.0
C4712 C 0.32104 0.79663 0.94821 0.0
C4713 C 0.29881 0.81101 0.95101 0.0
C4714 C 0.33815 0.80554 0.93999 0.0
C4715 C 0.33289 0.82934 0.93435 0.0
C4716 C 0.31064 0.8441 0.93715 0.0
C4717 C 0.29398 0.83486 0.94543 0.0
C4718 C 0.36184 0.78939 0.93732 0.0
C4719 C 0.30409 0.86938 0.93134 0.0
H4720 H 0.42969 0.90067 0.91512 0.0
H4721 H 0.33411 0.80652 0.90454 0.0
H4722 H 0.39061 0.90562 0.93485 0.0
H4723 H 0.41159 0.87824 0.9369 0.0
H4724 H 0.4341 0.91771 0.92979 0.0
H4725 H 0.28242 0.76789 0.91298 0.0
H4726 H 0.29433 0.76272 0.92396 0.0
H4727 H 0.27431 0.79096 0.9219 0.0
H4728 H 0.3254 0.77862 0.95251 0.0
H4729 H 0.27654 0.84578 0.94747 0.0
H4730 H 0.39012 0.81185 0.93574 0.0
H4731 H 0.35046 0.77253 0.93134 0.0
H4732 H 0.36364 0.77178 0.94248 0.0
H4733 H 0.33079 0.89386 0.92954 0.0
H4734 H 0.28647 0.87893 0.9345 0.0
H4735 H 0.29062 0.85489 0.92521 0.0
C4736 C 0.19008 0.46257 0.94402 0.0
C4737 C 0.20093 0.48777 0.95094 0.0
C4738 C 0.18129 0.47095 0.93579 0.0
C4739 C 0.18314 0.50533 0.93442 0.0
C4740 C 0.19366 0.53072 0.94141 0.0
C4741 C 0.20249 0.5217 0.94955 0.0
C4742 C 0.17048 0.44317 0.92852 0.0
C4743 C 0.19572 0.56754 0.94028 0.0
C4744 C 0.19501 0.54342 0.91132 0.0
C4745 C 0.15894 0.53468 0.90915 0.0
C4746 C 0.20316 0.53377 0.91947 0.0
C4747 C 0.17464 0.51502 0.92566 0.0
C4748 C 0.13814 0.50594 0.9235 0.0
C4749 C 0.13073 0.51576 0.91528 0.0
C4750 C 0.24238 0.54374 0.92145 0.0
C4751 C 0.10695 0.4862 0.92991 0.0
H4752 H 0.18919 0.43648 0.94498 0.0
H4753 H 0.21032 0.54117 0.95488 0.0
H4754 H 0.14287 0.43591 0.92598 0.0
H4755 H 0.19029 0.45535 0.92305 0.0
H4756 H 0.1698 0.41748 0.93066 0.0
H4757 H 0.20368 0.58393 0.94639 0.0
H4758 H 0.21615 0.58377 0.93516 0.0
H4759 H 0.16864 0.56336 0.9381 0.0
H4760 H 0.21692 0.55754 0.9066 0.0
H4761 H 0.10287 0.50923 0.91372 0.0
H4762 H 0.24353 0.51852 0.9231 0.0
H4763 H 0.25256 0.56218 0.92721 0.0
H4764 H 0.2613 0.5578 0.9159 0.0
H4765 H 0.1046 0.45956 0.93184 0.0
H4766 H 0.08005 0.4807 0.92721 0.0
H4767 H 0.11275 0.50298 0.9359 0.0
C4768 C 0.49614 0.60701 0.91594 0.0
C4769 C 0.48386 0.62209 0.90948 0.0
C4770 C 0.50564 0.62265 0.92432 0.0
C4771 C 0.50306 0.65435 0.92631 0.0
C4772 C 0.49096 0.66987 0.9198 0.0
C4773 C 0.48145 0.65354 0.91149 0.0
C4774 C 0.51816 0.60504 0.93107 0.0
C4775 C 0.48807 0.70379 0.9216 0.0
C4776 C 0.4947 0.67664 0.95002 0.0
C4777 C 0.53086 0.70439 0.95197 0.0
C4778 C 0.48538 0.65991 0.94175 0.0
C4779 C 0.51281 0.67119 0.93521 0.0
C4780 C 0.54942 0.69894 0.93715 0.0
C4781 C 0.55799 0.71512 0.94548 0.0
C4782 C 0.44608 0.63027 0.94001 0.0
C4783 C 0.57949 0.71196 0.93037 0.0
H4784 H 0.49768 0.58247 0.9145 0.0
H4785 H 0.47248 0.66572 0.90652 0.0
H4786 H 0.54608 0.62538 0.93345 0.0
H4787 H 0.49933 0.5963 0.93677 0.0
H4788 H 0.51891 0.58063 0.9285 0.0
H4789 H 0.47855 0.71271 0.91582 0.0
H4790 H 0.46853 0.69829 0.92703 0.0
H4791 H 0.51529 0.72686 0.92365 0.0
H4792 H 0.47361 0.66777 0.955 0.0
H4793 H 0.58589 0.73685 0.94686 0.0
H4794 H 0.44528 0.60453 0.9379 0.0
H4795 H 0.43446 0.63899 0.93462 0.0
H4796 H 0.42814 0.6241 0.94582 0.0
H4797 H 0.58198 0.68833 0.92795 0.0
H4798 H 0.6067 0.73327 0.93294 0.0
H4799 H 0.57232 0.72363 0.92471 0.0
C4800 C 0.28278 0.49845 0.44337 0.0
C4801 C 0.29436 0.483 0.44991 0.0
C4802 C 0.29977 0.50744 0.43512 0.0
C4803 C 0.32904 0.50068 0.43329 0.0
C4804 C 0.34069 0.48482 0.43982 0.0
C4805 C 0.32334 0.47628 0.44803 0.0
C4806 C 0.28641 0.5243 0.42837 0.0
C4807 C 0.37174 0.4771 0.43816 0.0
C4808 C 0.35174 0.49497 0.40942 0.0
C4809 C 0.38223 0.53022 0.40794 0.0
C4810 C 0.33442 0.48489 0.41763 0.0
C4811 C 0.3477 0.51064 0.42457 0.0
C4812 C 0.37856 0.54616 0.42314 0.0
C4813 C 0.39543 0.55545 0.41488 0.0
C4814 C 0.30165 0.44673 0.41885 0.0
C4815 C 0.39369 0.57451 0.43033 0.0
H4816 H 0.26006 0.50322 0.44465 0.0
H4817 H 0.33295 0.46485 0.45303 0.0
H4818 H 0.30939 0.55167 0.42637 0.0
H4819 H 0.27702 0.50668 0.42247 0.0
H4820 H 0.26335 0.5278 0.4308 0.0
H4821 H 0.37704 0.46394 0.44383 0.0
H4822 H 0.36519 0.45873 0.43243 0.0
H4823 H 0.39741 0.5032 0.43662 0.0
H4824 H 0.3409 0.47534 0.40411 0.0
H4825 H 0.4193 0.58252 0.4139 0.0
H4826 H 0.27703 0.44869 0.42065 0.0
H4827 H 0.30696 0.43246 0.42427 0.0
H4828 H 0.29522 0.42958 0.41289 0.0
H4829 H 0.37203 0.58034 0.43265 0.0
H4830 H 0.41795 0.60084 0.4282 0.0
H4831 H 0.40192 0.5636 0.43596 0.0
C4832 C 0.51713 0.86716 0.41199 0.0
C4833 C 0.48172 0.86193 0.41049 0.0
C4834 C 0.52738 0.86047 0.42022 0.0
C4835 C 0.50163 0.84807 0.42716 0.0
C4836 C 0.466 0.84309 0.42573 0.0
C4837 C 0.45654 0.85016 0.41744 0.0
C4838 C 0.56566 0.86618 0.42146 0.0
C4839 C 0.43768 0.82993 0.43293 0.0
C4840 C 0.51406 0.79537 0.44588 0.0
C4841 C 0.52956 0.8224 0.45241 0.0
C4842 C 0.50495 0.80338 0.43766 0.0
C4843 C 0.51158 0.83938 0.43586 0.0
C4844 C 0.52741 0.86688 0.44239 0.0
C4845 C 0.53615 0.85808 0.45057 0.0
C4846 C 0.48817 0.77322 0.4309 0.0
C4847 C 0.53495 0.9056 0.44074 0.0
H4848 H 0.53669 0.87578 0.40666 0.0
H4849 H 0.42935 0.84661 0.41643 0.0
H4850 H 0.5797 0.88563 0.42691 0.0
H4851 H 0.56391 0.83964 0.42322 0.0
H4852 H 0.58289 0.87717 0.41551 0.0
H4853 H 0.4114 0.82798 0.43081 0.0
H4854 H 0.43176 0.80238 0.43523 0.0
H4855 H 0.44863 0.84899 0.43856 0.0
H4856 H 0.50942 0.76791 0.44715 0.0
H4857 H 0.5477 0.87908 0.45558 0.0
H4858 H 0.50583 0.78152 0.425 0.0
H4859 H 0.4608 0.76881 0.4289 0.0
H4860 H 0.48471 0.74665 0.43332 0.0
H4861 H 0.55343 0.91758 0.43503 0.0
H4862 H 0.54791 0.92399 0.44643 0.0
H4863 H 0.50882 0.90507 0.43918 0.0
C4864 C 0.18801 0.73019 0.44579 0.0
C4865 C 0.20455 0.71872 0.45206 0.0
C4866 C 0.17882 0.71388 0.43747 0.0
C4867 C 0.18609 0.68515 0.43537 0.0
C4868 C 0.20246 0.6732 0.4417 0.0
C4869 C 0.21156 0.69016 0.44994 0.0
C4870 C 0.16169 0.72766 0.43091 0.0
C4871 C 0.2104 0.64248 0.43977 0.0
C4872 C 0.13385 0.62041 0.41654 0.0
C4873 C 0.16023 0.63409 0.40985 0.0
C4874 C 0.1418 0.6368 0.42485 0.0
C4875 C 0.17695 0.66783 0.42652 0.0
C4876 C 0.20356 0.68201 0.41977 0.0
C4877 C 0.19494 0.66495 0.41154 0.0
C4878 C 0.11272 0.6206 0.43187 0.0
C4879 C 0.24123 0.71521 0.42124 0.0
H4880 H 0.18287 0.7525 0.44732 0.0
H4881 H 0.22386 0.68074 0.45477 0.0
H4882 H 0.17957 0.7383 0.42506 0.0
H4883 H 0.13466 0.70464 0.42874 0.0
H4884 H 0.15748 0.74996 0.43357 0.0
H4885 H 0.2227 0.63601 0.44544 0.0
H4886 H 0.18458 0.61715 0.43789 0.0
H4887 H 0.22967 0.65024 0.43419 0.0
H4888 H 0.10713 0.59634 0.41533 0.0
H4889 H 0.21534 0.67604 0.40639 0.0
H4890 H 0.1067 0.6419 0.43436 0.0
H4891 H 0.12306 0.61143 0.43743 0.0
H4892 H 0.08662 0.59673 0.4295 0.0
H4893 H 0.23847 0.73899 0.42341 0.0
H4894 H 0.25859 0.72329 0.41528 0.0
H4895 H 0.25573 0.70927 0.42649 0.0
loop_
_geom_bond_atom_site_label_1
_geom_bond_atom_site_label_2
_geom_bond_distance
_geom_bond_site_symmetry_2
_ccdc_geom_bond_type
Pr0 C2 2.880 . S
Pr0 O20 2.562 . S
Pr0 O21 2.490 . S
Pr0 O22 2.695 . S
Pr0 O23 2.512 . S
Pr0 O25 2.437 . S
Pr0 O28 2.436 . S
Pr0 O30 2.438 . S
Pr1 C11 2.880 . S
Pr1 O22 2.436 . S
Pr1 O24 2.438 . S
Pr1 O26 2.562 . S
Pr1 O27 2.490 . S
Pr1 O28 2.695 . S
Pr1 O29 2.512 . S
Pr1 O31 2.437 . S
C2 Pr0 2.880 . S
C2 C3 1.491 . S
C2 O20 1.254 . S
C2 O21 1.225 . S
C3 C2 1.491 . S
C3 C4 1.392 . S
C3 C8 1.356 . S
C4 C3 1.392 . S
C4 C5 1.368 . S
C4 H32 0.929 . S
C5 C4 1.368 . S
C5 C6 1.386 . S
C5 H33 0.929 . S
C6 C5 1.386 . S
C6 C7 1.373 . S
C7 C6 1.373 . S
C7 C8 1.409 . S
C7 H34 0.931 . S
C8 C3 1.356 . S
C8 C7 1.409 . S
C8 H35 0.930 . S
C9 O22 1.270 . S
C9 O23 1.248 . S
C10 O24 1.267 . S
C10 O25 1.278 . S
C11 Pr1 2.880 . S
C11 C12 1.491 . S
C11 O26 1.254 . S
C11 O27 1.225 . S
C12 C11 1.491 . S
C12 C13 1.392 . S
C12 C17 1.356 . S
C13 C12 1.392 . S
C13 C14 1.368 . S
C13 H36 0.929 . S
C14 C13 1.368 . S
C14 C15 1.386 . S
C14 H37 0.929 . S
C15 C14 1.386 . S
C15 C16 1.373 . S
C16 C15 1.373 . S
C16 C17 1.409 . S
C16 H38 0.931 . S
C17 C12 1.356 . S
C17 C16 1.409 . S
C17 H39 0.930 . S
C18 O28 1.270 . S
C18 O29 1.248 . S
C19 O30 1.267 . S
C19 O31 1.278 . S
O20 Pr0 2.562 . S
O20 C2 1.254 . S
O21 Pr0 2.490 . S
O21 C2 1.225 . S
O22 Pr0 2.695 . S
O22 Pr1 2.436 . S
O22 C9 1.270 . S
O23 Pr0 2.512 . S
O23 C9 1.248 . S
O24 Pr1 2.438 . S
O24 C10 1.267 . S
O25 Pr0 2.437 . S
O25 C10 1.278 . S
O26 Pr1 2.562 . S
O26 C11 1.254 . S
O27 Pr1 2.490 . S
O27 C11 1.225 . S
O28 Pr0 2.436 . S
O28 Pr1 2.695 . S
O28 C18 1.270 . S
O29 Pr1 2.512 . S
O29 C18 1.248 . S
O30 Pr0 2.438 . S
O30 C19 1.267 . S
O31 Pr1 2.437 . S
O31 C19 1.278 . S
H32 C4 0.929 . S
H33 C5 0.929 . S
H34 C7 0.931 . S
H35 C8 0.930 . S
H36 C13 0.929 . S
H37 C14 0.929 . S
H38 C16 0.931 . S
H39 C17 0.930 . S
Pr40 C42 2.880 . S
Pr40 O60 2.562 . S
Pr40 O61 2.490 . S
Pr40 O62 2.695 . S
Pr40 O63 2.512 . S
Pr40 O65 2.437 . S
Pr40 O68 2.436 . S
Pr40 O70 2.438 . S
Pr41 C51 2.880 . S
Pr41 O62 2.436 . S
Pr41 O64 2.438 . S
Pr41 O66 2.562 . S
Pr41 O67 2.490 . S
Pr41 O68 2.695 . S
Pr41 O69 2.512 . S
Pr41 O71 2.437 . S
C42 Pr40 2.880 . S
C42 C43 1.491 . S
C42 O60 1.254 . S
C42 O61 1.225 . S
C43 C42 1.491 . S
C43 C44 1.392 . S
C43 C48 1.356 . S
C44 C43 1.392 . S
C44 C45 1.368 . S
C44 H72 0.929 . S
C45 C44 1.368 . S
C45 C46 1.386 . S
C45 H73 0.929 . S
C46 C45 1.386 . S
C46 C47 1.373 . S
C47 C46 1.373 . S
C47 C48 1.409 . S
C47 H74 0.931 . S
C48 C43 1.356 . S
C48 C47 1.409 . S
C48 H75 0.930 . S
C49 O62 1.270 . S
C49 O63 1.248 . S
C50 O64 1.267 . S
C50 O65 1.278 . S
C51 Pr41 2.880 . S
C51 C52 1.491 . S
C51 O66 1.254 . S
C51 O67 1.225 . S
C52 C51 1.491 . S
C52 C53 1.392 . S
C52 C57 1.356 . S
C53 C52 1.392 . S
C53 C54 1.368 . S
C53 H76 0.929 . S
C54 C53 1.368 . S
C54 C55 1.386 . S
C54 H77 0.929 . S
C55 C54 1.386 . S
C55 C56 1.373 . S
C56 C55 1.373 . S
C56 C57 1.409 . S
C56 H78 0.931 . S
C57 C52 1.356 . S
C57 C56 1.409 . S
C57 H79 0.930 . S
C58 O68 1.270 . S
C58 O69 1.248 . S
C59 O70 1.267 . S
C59 O71 1.278 . S
O60 Pr40 2.562 . S
O60 C42 1.254 . S
O61 Pr40 2.490 . S
O61 C42 1.225 . S
O62 Pr40 2.695 . S
O62 Pr41 2.436 . S
O62 C49 1.270 . S
O63 Pr40 2.512 . S
O63 C49 1.248 . S
O64 Pr41 2.438 . S
O64 C50 1.267 . S
O65 Pr40 2.437 . S
O65 C50 1.278 . S
O66 Pr41 2.562 . S
O66 C51 1.254 . S
O67 Pr41 2.490 . S
O67 C51 1.225 . S
O68 Pr40 2.436 . S
O68 Pr41 2.695 . S
O68 C58 1.270 . S
O69 Pr41 2.512 . S
O69 C58 1.248 . S
O70 Pr40 2.438 . S
O70 C59 1.267 . S
O71 Pr41 2.437 . S
O71 C59 1.278 . S
H72 C44 0.929 . S
H73 C45 0.929 . S
H74 C47 0.931 . S
H75 C48 0.930 . S
H76 C53 0.929 . S
H77 C54 0.929 . S
H78 C56 0.931 . S
H79 C57 0.930 . S
Pr80 C82 2.880 . S
Pr80 O100 2.562 . S
Pr80 O101 2.490 . S
Pr80 O102 2.695 . S
Pr80 O103 2.512 . S
Pr80 O105 2.437 . S
Pr80 O108 2.436 . S
Pr80 O110 2.438 . S
Pr81 C91 2.880 . S
Pr81 O102 2.436 . S
Pr81 O104 2.438 . S
Pr81 O106 2.562 . S
Pr81 O107 2.490 . S
Pr81 O108 2.695 . S
Pr81 O109 2.512 . S
Pr81 O111 2.437 . S
C82 Pr80 2.880 . S
C82 C83 1.491 . S
C82 O100 1.254 . S
C82 O101 1.225 . S
C83 C82 1.491 . S
C83 C84 1.392 . S
C83 C88 1.356 . S
C84 C83 1.392 . S
C84 C85 1.368 . S
C84 H112 0.929 . S
C85 C84 1.368 . S
C85 C86 1.386 . S
C85 H113 0.929 . S
C86 C85 1.386 . S
C86 C87 1.373 . S
C87 C86 1.373 . S
C87 C88 1.409 . S
C87 H114 0.931 . S
C88 C83 1.356 . S
C88 C87 1.409 . S
C88 H115 0.930 . S
C89 O102 1.270 . S
C89 O103 1.248 . S
C90 O104 1.267 . S
C90 O105 1.278 . S
C91 Pr81 2.880 . S
C91 C92 1.491 . S
C91 O106 1.254 . S
C91 O107 1.225 . S
C92 C91 1.491 . S
C92 C93 1.392 . S
C92 C97 1.356 . S
C93 C92 1.392 . S
C93 C94 1.368 . S
C93 H116 0.929 . S
C94 C93 1.368 . S
C94 C95 1.386 . S
C94 H117 0.929 . S
C95 C94 1.386 . S
C95 C96 1.373 . S
C96 C95 1.373 . S
C96 C97 1.409 . S
C96 H118 0.931 . S
C97 C92 1.356 . S
C97 C96 1.409 . S
C97 H119 0.930 . S
C98 O108 1.270 . S
C98 O109 1.248 . S
C99 O110 1.267 . S
C99 O111 1.278 . S
O100 Pr80 2.562 . S
O100 C82 1.254 . S
O101 Pr80 2.490 . S
O101 C82 1.225 . S
O102 Pr80 2.695 . S
O102 Pr81 2.436 . S
O102 C89 1.270 . S
O103 Pr80 2.512 . S
O103 C89 1.248 . S
O104 Pr81 2.438 . S
O104 C90 1.267 . S
O105 Pr80 2.437 . S
O105 C90 1.278 . S
O106 Pr81 2.562 . S
O106 C91 1.254 . S
O107 Pr81 2.490 . S
O107 C91 1.225 . S
O108 Pr80 2.436 . S
O108 Pr81 2.695 . S
O108 C98 1.270 . S
O109 Pr81 2.512 . S
O109 C98 1.248 . S
O110 Pr80 2.438 . S
O110 C99 1.267 . S
O111 Pr81 2.437 . S
O111 C99 1.278 . S
H112 C84 0.929 . S
H113 C85 0.929 . S
H114 C87 0.931 . S
H115 C88 0.930 . S
H116 C93 0.929 . S
H117 C94 0.929 . S
H118 C96 0.931 . S
H119 C97 0.930 . S
Pr120 C122 2.880 . S
Pr120 O140 2.562 . S
Pr120 O141 2.490 . S
Pr120 O142 2.695 . S
Pr120 O143 2.512 . S
Pr120 O145 2.437 . S
Pr120 O148 2.436 . S
Pr120 O150 2.438 . S
Pr121 C131 2.880 . S
Pr121 O142 2.436 . S
Pr121 O144 2.438 . S
Pr121 O146 2.562 . S
Pr121 O147 2.490 . S
Pr121 O148 2.695 . S
Pr121 O149 2.512 . S
Pr121 O151 2.437 . S
C122 Pr120 2.880 . S
C122 C123 1.491 . S
C122 O140 1.254 . S
C122 O141 1.225 . S
C123 C122 1.491 . S
C123 C124 1.392 . S
C123 C128 1.356 . S
C124 C123 1.392 . S
C124 C125 1.368 . S
C124 H152 0.929 . S
C125 C124 1.368 . S
C125 C126 1.386 . S
C125 H153 0.929 . S
C126 C125 1.386 . S
C126 C127 1.373 . S
C127 C126 1.373 . S
C127 C128 1.409 . S
C127 H154 0.931 . S
C128 C123 1.356 . S
C128 C127 1.409 . S
C128 H155 0.930 . S
C129 O142 1.270 . S
C129 O143 1.248 . S
C130 O144 1.267 . S
C130 O145 1.278 . S
C131 Pr121 2.880 . S
C131 C132 1.491 . S
C131 O146 1.254 . S
C131 O147 1.225 . S
C132 C131 1.491 . S
C132 C133 1.392 . S
C132 C137 1.356 . S
C133 C132 1.392 . S
C133 C134 1.368 . S
C133 H156 0.929 . S
C134 C133 1.368 . S
C134 C135 1.386 . S
C134 H157 0.929 . S
C135 C134 1.386 . S
C135 C136 1.373 . S
C136 C135 1.373 . S
C136 C137 1.409 . S
C136 H158 0.931 . S
C137 C132 1.356 . S
C137 C136 1.409 . S
C137 H159 0.930 . S
C138 O148 1.270 . S
C138 O149 1.248 . S
C139 O150 1.267 . S
C139 O151 1.278 . S
O140 Pr120 2.562 . S
O140 C122 1.254 . S
O141 Pr120 2.490 . S
O141 C122 1.225 . S
O142 Pr120 2.695 . S
O142 Pr121 2.436 . S
O142 C129 1.270 . S
O143 Pr120 2.512 . S
O143 C129 1.248 . S
O144 Pr121 2.438 . S
O144 C130 1.267 . S
O145 Pr120 2.437 . S
O145 C130 1.278 . S
O146 Pr121 2.562 . S
O146 C131 1.254 . S
O147 Pr121 2.490 . S
O147 C131 1.225 . S
O148 Pr120 2.436 . S
O148 Pr121 2.695 . S
O148 C138 1.270 . S
O149 Pr121 2.512 . S
O149 C138 1.248 . S
O150 Pr120 2.438 . S
O150 C139 1.267 . S
O151 Pr121 2.437 . S
O151 C139 1.278 . S
H152 C124 0.929 . S
H153 C125 0.929 . S
H154 C127 0.931 . S
H155 C128 0.930 . S
H156 C133 0.929 . S
H157 C134 0.929 . S
H158 C136 0.931 . S
H159 C137 0.930 . S
Pr160 C162 2.880 . S
Pr160 O180 2.562 . S
Pr160 O181 2.490 . S
Pr160 O182 2.695 . S
Pr160 O183 2.512 . S
Pr160 O185 2.437 . S
Pr160 O188 2.436 . S
Pr160 O190 2.438 . S
Pr161 C171 2.880 . S
Pr161 O182 2.436 . S
Pr161 O184 2.438 . S
Pr161 O186 2.562 . S
Pr161 O187 2.490 . S
Pr161 O188 2.695 . S
Pr161 O189 2.512 . S
Pr161 O191 2.437 . S
C162 Pr160 2.880 . S
C162 C163 1.491 . S
C162 O180 1.254 . S
C162 O181 1.225 . S
C163 C162 1.491 . S
C163 C164 1.392 . S
C163 C168 1.356 . S
C164 C163 1.392 . S
C164 C165 1.368 . S
C164 H192 0.929 . S
C165 C164 1.368 . S
C165 C166 1.386 . S
C165 H193 0.929 . S
C166 C165 1.386 . S
C166 C167 1.373 . S
C167 C166 1.373 . S
C167 C168 1.409 . S
C167 H194 0.931 . S
C168 C163 1.356 . S
C168 C167 1.409 . S
C168 H195 0.930 . S
C169 O182 1.270 . S
C169 O183 1.248 . S
C170 O184 1.267 . S
C170 O185 1.278 . S
C171 Pr161 2.880 . S
C171 C172 1.491 . S
C171 O186 1.254 . S
C171 O187 1.225 . S
C172 C171 1.491 . S
C172 C173 1.392 . S
C172 C177 1.356 . S
C173 C172 1.392 . S
C173 C174 1.368 . S
C173 H196 0.929 . S
C174 C173 1.368 . S
C174 C175 1.386 . S
C174 H197 0.929 . S
C175 C174 1.386 . S
C175 C176 1.373 . S
C176 C175 1.373 . S
C176 C177 1.409 . S
C176 H198 0.931 . S
C177 C172 1.356 . S
C177 C176 1.409 . S
C177 H199 0.930 . S
C178 O188 1.270 . S
C178 O189 1.248 . S
C179 O190 1.267 . S
C179 O191 1.278 . S
O180 Pr160 2.562 . S
O180 C162 1.254 . S
O181 Pr160 2.490 . S
O181 C162 1.225 . S
O182 Pr160 2.695 . S
O182 Pr161 2.436 . S
O182 C169 1.270 . S
O183 Pr160 2.512 . S
O183 C169 1.248 . S
O184 Pr161 2.438 . S
O184 C170 1.267 . S
O185 Pr160 2.437 . S
O185 C170 1.278 . S
O186 Pr161 2.562 . S
O186 C171 1.254 . S
O187 Pr161 2.490 . S
O187 C171 1.225 . S
O188 Pr160 2.436 . S
O188 Pr161 2.695 . S
O188 C178 1.270 . S
O189 Pr161 2.512 . S
O189 C178 1.248 . S
O190 Pr160 2.438 . S
O190 C179 1.267 . S
O191 Pr161 2.437 . S
O191 C179 1.278 . S
H192 C164 0.929 . S
H193 C165 0.929 . S
H194 C167 0.931 . S
H195 C168 0.930 . S
H196 C173 0.929 . S
H197 C174 0.929 . S
H198 C176 0.931 . S
H199 C177 0.930 . S
Pr200 C202 2.880 . S
Pr200 O220 2.562 . S
Pr200 O221 2.490 . S
Pr200 O222 2.695 . S
Pr200 O223 2.512 . S
Pr200 O225 2.437 . S
Pr200 O228 2.436 . S
Pr200 O230 2.438 . S
Pr201 C211 2.880 . S
Pr201 O222 2.436 . S
Pr201 O224 2.438 . S
Pr201 O226 2.562 . S
Pr201 O227 2.490 . S
Pr201 O228 2.695 . S
Pr201 O229 2.512 . S
Pr201 O231 2.437 . S
C202 Pr200 2.880 . S
C202 C203 1.491 . S
C202 O220 1.254 . S
C202 O221 1.225 . S
C203 C202 1.491 . S
C203 C204 1.392 . S
C203 C208 1.356 . S
C204 C203 1.392 . S
C204 C205 1.368 . S
C204 H232 0.929 . S
C205 C204 1.368 . S
C205 C206 1.386 . S
C205 H233 0.929 . S
C206 C205 1.386 . S
C206 C207 1.373 . S
C207 C206 1.373 . S
C207 C208 1.409 . S
C207 H234 0.931 . S
C208 C203 1.356 . S
C208 C207 1.409 . S
C208 H235 0.930 . S
C209 O222 1.270 . S
C209 O223 1.248 . S
C210 O224 1.267 . S
C210 O225 1.278 . S
C211 Pr201 2.880 . S
C211 C212 1.491 . S
C211 O226 1.254 . S
C211 O227 1.225 . S
C212 C211 1.491 . S
C212 C213 1.392 . S
C212 C217 1.356 . S
C213 C212 1.392 . S
C213 C214 1.368 . S
C213 H236 0.929 . S
C214 C213 1.368 . S
C214 C215 1.386 . S
C214 H237 0.929 . S
C215 C214 1.386 . S
C215 C216 1.373 . S
C216 C215 1.373 . S
C216 C217 1.409 . S
C216 H238 0.931 . S
C217 C212 1.356 . S
C217 C216 1.409 . S
C217 H239 0.930 . S
C218 O228 1.270 . S
C218 O229 1.248 . S
C219 O230 1.267 . S
C219 O231 1.278 . S
O220 Pr200 2.562 . S
O220 C202 1.254 . S
O221 Pr200 2.490 . S
O221 C202 1.225 . S
O222 Pr200 2.695 . S
O222 Pr201 2.436 . S
O222 C209 1.270 . S
O223 Pr200 2.512 . S
O223 C209 1.248 . S
O224 Pr201 2.438 . S
O224 C210 1.267 . S
O225 Pr200 2.437 . S
O225 C210 1.278 . S
O226 Pr201 2.562 . S
O226 C211 1.254 . S
O227 Pr201 2.490 . S
O227 C211 1.225 . S
O228 Pr200 2.436 . S
O228 Pr201 2.695 . S
O228 C218 1.270 . S
O229 Pr201 2.512 . S
O229 C218 1.248 . S
O230 Pr200 2.438 . S
O230 C219 1.267 . S
O231 Pr201 2.437 . S
O231 C219 1.278 . S
H232 C204 0.929 . S
H233 C205 0.929 . S
H234 C207 0.931 . S
H235 C208 0.930 . S
H236 C213 0.929 . S
H237 C214 0.929 . S
H238 C216 0.931 . S
H239 C217 0.930 . S
Pr240 C242 2.880 . S
Pr240 O260 2.562 . S
Pr240 O261 2.490 . S
Pr240 O262 2.695 . S
Pr240 O263 2.512 . S
Pr240 O265 2.437 . S
Pr240 O268 2.436 . S
Pr240 O270 2.438 . S
Pr241 C251 2.880 . S
Pr241 O262 2.436 . S
Pr241 O264 2.438 . S
Pr241 O266 2.562 . S
Pr241 O267 2.490 . S
Pr241 O268 2.695 . S
Pr241 O269 2.512 . S
Pr241 O271 2.437 . S
C242 Pr240 2.880 . S
C242 C243 1.491 . S
C242 O260 1.254 . S
C242 O261 1.225 . S
C243 C242 1.491 . S
C243 C244 1.392 . S
C243 C248 1.356 . S
C244 C243 1.392 . S
C244 C245 1.368 . S
C244 H272 0.929 . S
C245 C244 1.368 . S
C245 C246 1.386 . S
C245 H273 0.929 . S
C246 C245 1.386 . S
C246 C247 1.373 . S
C247 C246 1.373 . S
C247 C248 1.409 . S
C247 H274 0.931 . S
C248 C243 1.356 . S
C248 C247 1.409 . S
C248 H275 0.930 . S
C249 O262 1.270 . S
C249 O263 1.248 . S
C250 O264 1.267 . S
C250 O265 1.278 . S
C251 Pr241 2.880 . S
C251 C252 1.491 . S
C251 O266 1.254 . S
C251 O267 1.225 . S
C252 C251 1.491 . S
C252 C253 1.392 . S
C252 C257 1.356 . S
C253 C252 1.392 . S
C253 C254 1.368 . S
C253 H276 0.929 . S
C254 C253 1.368 . S
C254 C255 1.386 . S
C254 H277 0.929 . S
C255 C254 1.386 . S
C255 C256 1.373 . S
C256 C255 1.373 . S
C256 C257 1.409 . S
C256 H278 0.931 . S
C257 C252 1.356 . S
C257 C256 1.409 . S
C257 H279 0.930 . S
C258 O268 1.270 . S
C258 O269 1.248 . S
C259 O270 1.267 . S
C259 O271 1.278 . S
O260 Pr240 2.562 . S
O260 C242 1.254 . S
O261 Pr240 2.490 . S
O261 C242 1.225 . S
O262 Pr240 2.695 . S
O262 Pr241 2.436 . S
O262 C249 1.270 . S
O263 Pr240 2.512 . S
O263 C249 1.248 . S
O264 Pr241 2.438 . S
O264 C250 1.267 . S
O265 Pr240 2.437 . S
O265 C250 1.278 . S
O266 Pr241 2.562 . S
O266 C251 1.254 . S
O267 Pr241 2.490 . S
O267 C251 1.225 . S
O268 Pr240 2.436 . S
O268 Pr241 2.695 . S
O268 C258 1.270 . S
O269 Pr241 2.512 . S
O269 C258 1.248 . S
O270 Pr240 2.438 . S
O270 C259 1.267 . S
O271 Pr241 2.437 . S
O271 C259 1.278 . S
H272 C244 0.929 . S
H273 C245 0.929 . S
H274 C247 0.931 . S
H275 C248 0.930 . S
H276 C253 0.929 . S
H277 C254 0.929 . S
H278 C256 0.931 . S
H279 C257 0.930 . S
Pr280 C282 2.880 . S
Pr280 O300 2.562 . S
Pr280 O301 2.490 . S
Pr280 O302 2.695 . S
Pr280 O303 2.512 . S
Pr280 O305 2.437 . S
Pr280 O308 2.436 . S
Pr280 O310 2.438 . S
Pr281 C291 2.880 . S
Pr281 O302 2.436 . S
Pr281 O304 2.438 . S
Pr281 O306 2.562 . S
Pr281 O307 2.490 . S
Pr281 O308 2.695 . S
Pr281 O309 2.512 . S
Pr281 O311 2.437 . S
C282 Pr280 2.880 . S
C282 C283 1.491 . S
C282 O300 1.254 . S
C282 O301 1.225 . S
C283 C282 1.491 . S
C283 C284 1.392 . S
C283 C288 1.356 . S
C284 C283 1.392 . S
C284 C285 1.368 . S
C284 H312 0.929 . S
C285 C284 1.368 . S
C285 C286 1.386 . S
C285 H313 0.929 . S
C286 C285 1.386 . S
C286 C287 1.373 . S
C287 C286 1.373 . S
C287 C288 1.409 . S
C287 H314 0.931 . S
C288 C283 1.356 . S
C288 C287 1.409 . S
C288 H315 0.930 . S
C289 O302 1.270 . S
C289 O303 1.248 . S
C290 O304 1.267 . S
C290 O305 1.278 . S
C291 Pr281 2.880 . S
C291 C292 1.491 . S
C291 O306 1.254 . S
C291 O307 1.225 . S
C292 C291 1.491 . S
C292 C293 1.392 . S
C292 C297 1.356 . S
C293 C292 1.392 . S
C293 C294 1.368 . S
C293 H316 0.929 . S
C294 C293 1.368 . S
C294 C295 1.386 . S
C294 H317 0.929 . S
C295 C294 1.386 . S
C295 C296 1.373 . S
C296 C295 1.373 . S
C296 C297 1.409 . S
C296 H318 0.931 . S
C297 C292 1.356 . S
C297 C296 1.409 . S
C297 H319 0.930 . S
C298 O308 1.270 . S
C298 O309 1.248 . S
C299 O310 1.267 . S
C299 O311 1.278 . S
O300 Pr280 2.562 . S
O300 C282 1.254 . S
O301 Pr280 2.490 . S
O301 C282 1.225 . S
O302 Pr280 2.695 . S
O302 Pr281 2.436 . S
O302 C289 1.270 . S
O303 Pr280 2.512 . S
O303 C289 1.248 . S
O304 Pr281 2.438 . S
O304 C290 1.267 . S
O305 Pr280 2.437 . S
O305 C290 1.278 . S
O306 Pr281 2.562 . S
O306 C291 1.254 . S
O307 Pr281 2.490 . S
O307 C291 1.225 . S
O308 Pr280 2.436 . S
O308 Pr281 2.695 . S
O308 C298 1.270 . S
O309 Pr281 2.512 . S
O309 C298 1.248 . S
O310 Pr280 2.438 . S
O310 C299 1.267 . S
O311 Pr281 2.437 . S
O311 C299 1.278 . S
H312 C284 0.929 . S
H313 C285 0.929 . S
H314 C287 0.931 . S
H315 C288 0.930 . S
H316 C293 0.929 . S
H317 C294 0.929 . S
H318 C296 0.931 . S
H319 C297 0.930 . S
Pr320 C322 2.880 . S
Pr320 O340 2.562 . S
Pr320 O341 2.490 . S
Pr320 O342 2.695 . S
Pr320 O343 2.512 . S
Pr320 O345 2.437 . S
Pr320 O348 2.436 . S
Pr320 O350 2.438 . S
Pr321 C331 2.880 . S
Pr321 O342 2.436 . S
Pr321 O344 2.438 . S
Pr321 O346 2.562 . S
Pr321 O347 2.490 . S
Pr321 O348 2.695 . S
Pr321 O349 2.512 . S
Pr321 O351 2.437 . S
C322 Pr320 2.880 . S
C322 C323 1.491 . S
C322 O340 1.254 . S
C322 O341 1.225 . S
C323 C322 1.491 . S
C323 C324 1.392 . S
C323 C328 1.356 . S
C324 C323 1.392 . S
C324 C325 1.368 . S
C324 H352 0.929 . S
C325 C324 1.368 . S
C325 C326 1.386 . S
C325 H353 0.929 . S
C326 C325 1.386 . S
C326 C327 1.373 . S
C327 C326 1.373 . S
C327 C328 1.409 . S
C327 H354 0.931 . S
C328 C323 1.356 . S
C328 C327 1.409 . S
C328 H355 0.930 . S
C329 O342 1.270 . S
C329 O343 1.248 . S
C330 O344 1.267 . S
C330 O345 1.278 . S
C331 Pr321 2.880 . S
C331 C332 1.491 . S
C331 O346 1.254 . S
C331 O347 1.225 . S
C332 C331 1.491 . S
C332 C333 1.392 . S
C332 C337 1.356 . S
C333 C332 1.392 . S
C333 C334 1.368 . S
C333 H356 0.929 . S
C334 C333 1.368 . S
C334 C335 1.386 . S
C334 H357 0.929 . S
C335 C334 1.386 . S
C335 C336 1.373 . S
C336 C335 1.373 . S
C336 C337 1.409 . S
C336 H358 0.931 . S
C337 C332 1.356 . S
C337 C336 1.409 . S
C337 H359 0.930 . S
C338 O348 1.270 . S
C338 O349 1.248 . S
C339 O350 1.267 . S
C339 O351 1.278 . S
O340 Pr320 2.562 . S
O340 C322 1.254 . S
O341 Pr320 2.490 . S
O341 C322 1.225 . S
O342 Pr320 2.695 . S
O342 Pr321 2.436 . S
O342 C329 1.270 . S
O343 Pr320 2.512 . S
O343 C329 1.248 . S
O344 Pr321 2.438 . S
O344 C330 1.267 . S
O345 Pr320 2.437 . S
O345 C330 1.278 . S
O346 Pr321 2.562 . S
O346 C331 1.254 . S
O347 Pr321 2.490 . S
O347 C331 1.225 . S
O348 Pr320 2.436 . S
O348 Pr321 2.695 . S
O348 C338 1.270 . S
O349 Pr321 2.512 . S
O349 C338 1.248 . S
O350 Pr320 2.438 . S
O350 C339 1.267 . S
O351 Pr321 2.437 . S
O351 C339 1.278 . S
H352 C324 0.929 . S
H353 C325 0.929 . S
H354 C327 0.931 . S
H355 C328 0.930 . S
H356 C333 0.929 . S
H357 C334 0.929 . S
H358 C336 0.931 . S
H359 C337 0.930 . S
Pr360 C362 2.880 . S
Pr360 O380 2.562 . S
Pr360 O381 2.490 . S
Pr360 O382 2.695 . S
Pr360 O383 2.512 . S
Pr360 O385 2.437 . S
Pr360 O388 2.436 . S
Pr360 O390 2.438 . S
Pr361 C371 2.880 . S
Pr361 O382 2.436 . S
Pr361 O384 2.438 . S
Pr361 O386 2.562 . S
Pr361 O387 2.490 . S
Pr361 O388 2.695 . S
Pr361 O389 2.512 . S
Pr361 O391 2.437 . S
C362 Pr360 2.880 . S
C362 C363 1.491 . S
C362 O380 1.254 . S
C362 O381 1.225 . S
C363 C362 1.491 . S
C363 C364 1.392 . S
C363 C368 1.356 . S
C364 C363 1.392 . S
C364 C365 1.368 . S
C364 H392 0.929 . S
C365 C364 1.368 . S
C365 C366 1.386 . S
C365 H393 0.929 . S
C366 C365 1.386 . S
C366 C367 1.373 . S
C367 C366 1.373 . S
C367 C368 1.409 . S
C367 H394 0.931 . S
C368 C363 1.356 . S
C368 C367 1.409 . S
C368 H395 0.930 . S
C369 O382 1.270 . S
C369 O383 1.248 . S
C370 O384 1.267 . S
C370 O385 1.278 . S
C371 Pr361 2.880 . S
C371 C372 1.491 . S
C371 O386 1.254 . S
C371 O387 1.225 . S
C372 C371 1.491 . S
C372 C373 1.392 . S
C372 C377 1.356 . S
C373 C372 1.392 . S
C373 C374 1.368 . S
C373 H396 0.929 . S
C374 C373 1.368 . S
C374 C375 1.386 . S
C374 H397 0.929 . S
C375 C374 1.386 . S
C375 C376 1.373 . S
C376 C375 1.373 . S
C376 C377 1.409 . S
C376 H398 0.931 . S
C377 C372 1.356 . S
C377 C376 1.409 . S
C377 H399 0.930 . S
C378 O388 1.270 . S
C378 O389 1.248 . S
C379 O390 1.267 . S
C379 O391 1.278 . S
O380 Pr360 2.562 . S
O380 C362 1.254 . S
O381 Pr360 2.490 . S
O381 C362 1.225 . S
O382 Pr360 2.695 . S
O382 Pr361 2.436 . S
O382 C369 1.270 . S
O383 Pr360 2.512 . S
O383 C369 1.248 . S
O384 Pr361 2.438 . S
O384 C370 1.267 . S
O385 Pr360 2.437 . S
O385 C370 1.278 . S
O386 Pr361 2.562 . S
O386 C371 1.254 . S
O387 Pr361 2.490 . S
O387 C371 1.225 . S
O388 Pr360 2.436 . S
O388 Pr361 2.695 . S
O388 C378 1.270 . S
O389 Pr361 2.512 . S
O389 C378 1.248 . S
O390 Pr360 2.438 . S
O390 C379 1.267 . S
O391 Pr361 2.437 . S
O391 C379 1.278 . S
H392 C364 0.929 . S
H393 C365 0.929 . S
H394 C367 0.931 . S
H395 C368 0.930 . S
H396 C373 0.929 . S
H397 C374 0.929 . S
H398 C376 0.931 . S
H399 C377 0.930 . S
Pr400 C402 2.880 . S
Pr400 O420 2.562 . S
Pr400 O421 2.490 . S
Pr400 O422 2.695 . S
Pr400 O423 2.512 . S
Pr400 O425 2.437 . S
Pr400 O428 2.436 . S
Pr400 O430 2.438 . S
Pr401 C411 2.880 . S
Pr401 O422 2.436 . S
Pr401 O424 2.438 . S
Pr401 O426 2.562 . S
Pr401 O427 2.490 . S
Pr401 O428 2.695 . S
Pr401 O429 2.512 . S
Pr401 O431 2.437 . S
C402 Pr400 2.880 . S
C402 C403 1.491 . S
C402 O420 1.254 . S
C402 O421 1.225 . S
C403 C402 1.491 . S
C403 C404 1.392 . S
C403 C408 1.356 . S
C404 C403 1.392 . S
C404 C405 1.368 . S
C404 H432 0.929 . S
C405 C404 1.368 . S
C405 C406 1.386 . S
C405 H433 0.929 . S
C406 C405 1.386 . S
C406 C407 1.373 . S
C407 C406 1.373 . S
C407 C408 1.409 . S
C407 H434 0.931 . S
C408 C403 1.356 . S
C408 C407 1.409 . S
C408 H435 0.930 . S
C409 O422 1.270 . S
C409 O423 1.248 . S
C410 O424 1.267 . S
C410 O425 1.278 . S
C411 Pr401 2.880 . S
C411 C412 1.491 . S
C411 O426 1.254 . S
C411 O427 1.225 . S
C412 C411 1.491 . S
C412 C413 1.392 . S
C412 C417 1.356 . S
C413 C412 1.392 . S
C413 C414 1.368 . S
C413 H436 0.929 . S
C414 C413 1.368 . S
C414 C415 1.386 . S
C414 H437 0.929 . S
C415 C414 1.386 . S
C415 C416 1.373 . S
C416 C415 1.373 . S
C416 C417 1.409 . S
C416 H438 0.931 . S
C417 C412 1.356 . S
C417 C416 1.409 . S
C417 H439 0.930 . S
C418 O428 1.270 . S
C418 O429 1.248 . S
C419 O430 1.267 . S
C419 O431 1.278 . S
O420 Pr400 2.562 . S
O420 C402 1.254 . S
O421 Pr400 2.490 . S
O421 C402 1.225 . S
O422 Pr400 2.695 . S
O422 Pr401 2.436 . S
O422 C409 1.270 . S
O423 Pr400 2.512 . S
O423 C409 1.248 . S
O424 Pr401 2.438 . S
O424 C410 1.267 . S
O425 Pr400 2.437 . S
O425 C410 1.278 . S
O426 Pr401 2.562 . S
O426 C411 1.254 . S
O427 Pr401 2.490 . S
O427 C411 1.225 . S
O428 Pr400 2.436 . S
O428 Pr401 2.695 . S
O428 C418 1.270 . S
O429 Pr401 2.512 . S
O429 C418 1.248 . S
O430 Pr400 2.438 . S
O430 C419 1.267 . S
O431 Pr401 2.437 . S
O431 C419 1.278 . S
H432 C404 0.929 . S
H433 C405 0.929 . S
H434 C407 0.931 . S
H435 C408 0.930 . S
H436 C413 0.929 . S
H437 C414 0.929 . S
H438 C416 0.931 . S
H439 C417 0.930 . S
Pr440 C442 2.880 . S
Pr440 O460 2.562 . S
Pr440 O461 2.490 . S
Pr440 O462 2.695 . S
Pr440 O463 2.512 . S
Pr440 O465 2.437 . S
Pr440 O468 2.436 . S
Pr440 O470 2.438 . S
Pr441 C451 2.880 . S
Pr441 O462 2.436 . S
Pr441 O464 2.438 . S
Pr441 O466 2.562 . S
Pr441 O467 2.490 . S
Pr441 O468 2.695 . S
Pr441 O469 2.512 . S
Pr441 O471 2.437 . S
C442 Pr440 2.880 . S
C442 C443 1.491 . S
C442 O460 1.254 . S
C442 O461 1.225 . S
C443 C442 1.491 . S
C443 C444 1.392 . S
C443 C448 1.356 . S
C444 C443 1.392 . S
C444 C445 1.368 . S
C444 H472 0.929 . S
C445 C444 1.368 . S
C445 C446 1.386 . S
C445 H473 0.929 . S
C446 C445 1.386 . S
C446 C447 1.373 . S
C447 C446 1.373 . S
C447 C448 1.409 . S
C447 H474 0.931 . S
C448 C443 1.356 . S
C448 C447 1.409 . S
C448 H475 0.930 . S
C449 O462 1.270 . S
C449 O463 1.248 . S
C450 O464 1.267 . S
C450 O465 1.278 . S
C451 Pr441 2.880 . S
C451 C452 1.491 . S
C451 O466 1.254 . S
C451 O467 1.225 . S
C452 C451 1.491 . S
C452 C453 1.392 . S
C452 C457 1.356 . S
C453 C452 1.392 . S
C453 C454 1.368 . S
C453 H476 0.929 . S
C454 C453 1.368 . S
C454 C455 1.386 . S
C454 H477 0.929 . S
C455 C454 1.386 . S
C455 C456 1.373 . S
C456 C455 1.373 . S
C456 C457 1.409 . S
C456 H478 0.931 . S
C457 C452 1.356 . S
C457 C456 1.409 . S
C457 H479 0.930 . S
C458 O468 1.270 . S
C458 O469 1.248 . S
C459 O470 1.267 . S
C459 O471 1.278 . S
O460 Pr440 2.562 . S
O460 C442 1.254 . S
O461 Pr440 2.490 . S
O461 C442 1.225 . S
O462 Pr440 2.695 . S
O462 Pr441 2.436 . S
O462 C449 1.270 . S
O463 Pr440 2.512 . S
O463 C449 1.248 . S
O464 Pr441 2.438 . S
O464 C450 1.267 . S
O465 Pr440 2.437 . S
O465 C450 1.278 . S
O466 Pr441 2.562 . S
O466 C451 1.254 . S
O467 Pr441 2.490 . S
O467 C451 1.225 . S
O468 Pr440 2.436 . S
O468 Pr441 2.695 . S
O468 C458 1.270 . S
O469 Pr441 2.512 . S
O469 C458 1.248 . S
O470 Pr440 2.438 . S
O470 C459 1.267 . S
O471 Pr441 2.437 . S
O471 C459 1.278 . S
H472 C444 0.929 . S
H473 C445 0.929 . S
H474 C447 0.931 . S
H475 C448 0.930 . S
H476 C453 0.929 . S
H477 C454 0.929 . S
H478 C456 0.931 . S
H479 C457 0.930 . S
Pr480 C482 2.880 . S
Pr480 O500 2.562 . S
Pr480 O501 2.490 . S
Pr480 O502 2.695 . S
Pr480 O503 2.512 . S
Pr480 O505 2.437 . S
Pr480 O508 2.436 . S
Pr480 O510 2.438 . S
Pr481 C491 2.880 . S
Pr481 O502 2.436 . S
Pr481 O504 2.438 . S
Pr481 O506 2.562 . S
Pr481 O507 2.490 . S
Pr481 O508 2.695 . S
Pr481 O509 2.512 . S
Pr481 O511 2.437 . S
C482 Pr480 2.880 . S
C482 C483 1.491 . S
C482 O500 1.254 . S
C482 O501 1.225 . S
C483 C482 1.491 . S
C483 C484 1.392 . S
C483 C488 1.356 . S
C484 C483 1.392 . S
C484 C485 1.368 . S
C484 H512 0.929 . S
C485 C484 1.368 . S
C485 C486 1.386 . S
C485 H513 0.929 . S
C486 C485 1.386 . S
C486 C487 1.373 . S
C487 C486 1.373 . S
C487 C488 1.409 . S
C487 H514 0.931 . S
C488 C483 1.356 . S
C488 C487 1.409 . S
C488 H515 0.930 . S
C489 O502 1.270 . S
C489 O503 1.248 . S
C490 O504 1.267 . S
C490 O505 1.278 . S
C491 Pr481 2.880 . S
C491 C492 1.491 . S
C491 O506 1.254 . S
C491 O507 1.225 . S
C492 C491 1.491 . S
C492 C493 1.392 . S
C492 C497 1.356 . S
C493 C492 1.392 . S
C493 C494 1.368 . S
C493 H516 0.929 . S
C494 C493 1.368 . S
C494 C495 1.386 . S
C494 H517 0.929 . S
C495 C494 1.386 . S
C495 C496 1.373 . S
C496 C495 1.373 . S
C496 C497 1.409 . S
C496 H518 0.931 . S
C497 C492 1.356 . S
C497 C496 1.409 . S
C497 H519 0.930 . S
C498 O508 1.270 . S
C498 O509 1.248 . S
C499 O510 1.267 . S
C499 O511 1.278 . S
O500 Pr480 2.562 . S
O500 C482 1.254 . S
O501 Pr480 2.490 . S
O501 C482 1.225 . S
O502 Pr480 2.695 . S
O502 Pr481 2.436 . S
O502 C489 1.270 . S
O503 Pr480 2.512 . S
O503 C489 1.248 . S
O504 Pr481 2.438 . S
O504 C490 1.267 . S
O505 Pr480 2.437 . S
O505 C490 1.278 . S
O506 Pr481 2.562 . S
O506 C491 1.254 . S
O507 Pr481 2.490 . S
O507 C491 1.225 . S
O508 Pr480 2.436 . S
O508 Pr481 2.695 . S
O508 C498 1.270 . S
O509 Pr481 2.512 . S
O509 C498 1.248 . S
O510 Pr480 2.438 . S
O510 C499 1.267 . S
O511 Pr481 2.437 . S
O511 C499 1.278 . S
H512 C484 0.929 . S
H513 C485 0.929 . S
H514 C487 0.931 . S
H515 C488 0.930 . S
H516 C493 0.929 . S
H517 C494 0.929 . S
H518 C496 0.931 . S
H519 C497 0.930 . S
Pr520 C522 2.880 . S
Pr520 O540 2.562 . S
Pr520 O541 2.490 . S
Pr520 O542 2.695 . S
Pr520 O543 2.512 . S
Pr520 O545 2.437 . S
Pr520 O548 2.436 . S
Pr520 O550 2.438 . S
Pr521 C531 2.880 . S
Pr521 O542 2.436 . S
Pr521 O544 2.438 . S
Pr521 O546 2.562 . S
Pr521 O547 2.490 . S
Pr521 O548 2.695 . S
Pr521 O549 2.512 . S
Pr521 O551 2.437 . S
C522 Pr520 2.880 . S
C522 C523 1.491 . S
C522 O540 1.254 . S
C522 O541 1.225 . S
C523 C522 1.491 . S
C523 C524 1.392 . S
C523 C528 1.356 . S
C524 C523 1.392 . S
C524 C525 1.368 . S
C524 H552 0.929 . S
C525 C524 1.368 . S
C525 C526 1.386 . S
C525 H553 0.929 . S
C526 C525 1.386 . S
C526 C527 1.373 . S
C527 C526 1.373 . S
C527 C528 1.409 . S
C527 H554 0.931 . S
C528 C523 1.356 . S
C528 C527 1.409 . S
C528 H555 0.930 . S
C529 O542 1.270 . S
C529 O543 1.248 . S
C530 O544 1.267 . S
C530 O545 1.278 . S
C531 Pr521 2.880 . S
C531 C532 1.491 . S
C531 O546 1.254 . S
C531 O547 1.225 . S
C532 C531 1.491 . S
C532 C533 1.392 . S
C532 C537 1.356 . S
C533 C532 1.392 . S
C533 C534 1.368 . S
C533 H556 0.929 . S
C534 C533 1.368 . S
C534 C535 1.386 . S
C534 H557 0.929 . S
C535 C534 1.386 . S
C535 C536 1.373 . S
C536 C535 1.373 . S
C536 C537 1.409 . S
C536 H558 0.931 . S
C537 C532 1.356 . S
C537 C536 1.409 . S
C537 H559 0.930 . S
C538 O548 1.270 . S
C538 O549 1.248 . S
C539 O550 1.267 . S
C539 O551 1.278 . S
O540 Pr520 2.562 . S
O540 C522 1.254 . S
O541 Pr520 2.490 . S
O541 C522 1.225 . S
O542 Pr520 2.695 . S
O542 Pr521 2.436 . S
O542 C529 1.270 . S
O543 Pr520 2.512 . S
O543 C529 1.248 . S
O544 Pr521 2.438 . S
O544 C530 1.267 . S
O545 Pr520 2.437 . S
O545 C530 1.278 . S
O546 Pr521 2.562 . S
O546 C531 1.254 . S
O547 Pr521 2.490 . S
O547 C531 1.225 . S
O548 Pr520 2.436 . S
O548 Pr521 2.695 . S
O548 C538 1.270 . S
O549 Pr521 2.512 . S
O549 C538 1.248 . S
O550 Pr520 2.438 . S
O550 C539 1.267 . S
O551 Pr521 2.437 . S
O551 C539 1.278 . S
H552 C524 0.929 . S
H553 C525 0.929 . S
H554 C527 0.931 . S
H555 C528 0.930 . S
H556 C533 0.929 . S
H557 C534 0.929 . S
H558 C536 0.931 . S
H559 C537 0.930 . S
Pr560 C562 2.880 . S
Pr560 O580 2.562 . S
Pr560 O581 2.490 . S
Pr560 O582 2.695 . S
Pr560 O583 2.512 . S
Pr560 O585 2.437 . S
Pr560 O588 2.436 . S
Pr560 O590 2.438 . S
Pr561 C571 2.880 . S
Pr561 O582 2.436 . S
Pr561 O584 2.438 . S
Pr561 O586 2.562 . S
Pr561 O587 2.490 . S
Pr561 O588 2.695 . S
Pr561 O589 2.512 . S
Pr561 O591 2.437 . S
C562 Pr560 2.880 . S
C562 C563 1.491 . S
C562 O580 1.254 . S
C562 O581 1.225 . S
C563 C562 1.491 . S
C563 C564 1.392 . S
C563 C568 1.356 . S
C564 C563 1.392 . S
C564 C565 1.368 . S
C564 H592 0.929 . S
C565 C564 1.368 . S
C565 C566 1.386 . S
C565 H593 0.929 . S
C566 C565 1.386 . S
C566 C567 1.373 . S
C567 C566 1.373 . S
C567 C568 1.409 . S
C567 H594 0.931 . S
C568 C563 1.356 . S
C568 C567 1.409 . S
C568 H595 0.930 . S
C569 O582 1.270 . S
C569 O583 1.248 . S
C570 O584 1.267 . S
C570 O585 1.278 . S
C571 Pr561 2.880 . S
C571 C572 1.491 . S
C571 O586 1.254 . S
C571 O587 1.225 . S
C572 C571 1.491 . S
C572 C573 1.392 . S
C572 C577 1.356 . S
C573 C572 1.392 . S
C573 C574 1.368 . S
C573 H596 0.929 . S
C574 C573 1.368 . S
C574 C575 1.386 . S
C574 H597 0.929 . S
C575 C574 1.386 . S
C575 C576 1.373 . S
C576 C575 1.373 . S
C576 C577 1.409 . S
C576 H598 0.931 . S
C577 C572 1.356 . S
C577 C576 1.409 . S
C577 H599 0.930 . S
C578 O588 1.270 . S
C578 O589 1.248 . S
C579 O590 1.267 . S
C579 O591 1.278 . S
O580 Pr560 2.562 . S
O580 C562 1.254 . S
O581 Pr560 2.490 . S
O581 C562 1.225 . S
O582 Pr560 2.695 . S
O582 Pr561 2.436 . S
O582 C569 1.270 . S
O583 Pr560 2.512 . S
O583 C569 1.248 . S
O584 Pr561 2.438 . S
O584 C570 1.267 . S
O585 Pr560 2.437 . S
O585 C570 1.278 . S
O586 Pr561 2.562 . S
O586 C571 1.254 . S
O587 Pr561 2.490 . S
O587 C571 1.225 . S
O588 Pr560 2.436 . S
O588 Pr561 2.695 . S
O588 C578 1.270 . S
O589 Pr561 2.512 . S
O589 C578 1.248 . S
O590 Pr560 2.438 . S
O590 C579 1.267 . S
O591 Pr561 2.437 . S
O591 C579 1.278 . S
H592 C564 0.929 . S
H593 C565 0.929 . S
H594 C567 0.931 . S
H595 C568 0.930 . S
H596 C573 0.929 . S
H597 C574 0.929 . S
H598 C576 0.931 . S
H599 C577 0.930 . S
Pr600 C602 2.880 . S
Pr600 O620 2.562 . S
Pr600 O621 2.490 . S
Pr600 O622 2.695 . S
Pr600 O623 2.512 . S
Pr600 O625 2.437 . S
Pr600 O628 2.436 . S
Pr600 O630 2.438 . S
Pr601 C611 2.880 . S
Pr601 O622 2.436 . S
Pr601 O624 2.438 . S
Pr601 O626 2.562 . S
Pr601 O627 2.490 . S
Pr601 O628 2.695 . S
Pr601 O629 2.512 . S
Pr601 O631 2.437 . S
C602 Pr600 2.880 . S
C602 C603 1.491 . S
C602 O620 1.254 . S
C602 O621 1.225 . S
C603 C602 1.491 . S
C603 C604 1.392 . S
C603 C608 1.356 . S
C604 C603 1.392 . S
C604 C605 1.368 . S
C604 H632 0.929 . S
C605 C604 1.368 . S
C605 C606 1.386 . S
C605 H633 0.929 . S
C606 C605 1.386 . S
C606 C607 1.373 1_655 S
C607 C606 1.373 1_455 S
C607 C608 1.409 1_455 S
C607 H634 0.931 . S
C608 C603 1.356 . S
C608 C607 1.409 1_655 S
C608 H635 0.930 1_655 S
C609 O622 1.270 . S
C609 O623 1.248 . S
C610 O624 1.267 . S
C610 O625 1.278 . S
C611 Pr601 2.880 . S
C611 C612 1.491 . S
C611 O626 1.254 . S
C611 O627 1.225 . S
C612 C611 1.491 . S
C612 C613 1.392 . S
C612 C617 1.356 . S
C613 C612 1.392 . S
C613 C614 1.368 . S
C613 H636 0.929 . S
C614 C613 1.368 . S
C614 C615 1.386 . S
C614 H637 0.929 . S
C615 C614 1.386 . S
C615 C616 1.373 . S
C616 C615 1.373 . S
C616 C617 1.409 . S
C616 H638 0.931 . S
C617 C612 1.356 . S
C617 C616 1.409 . S
C617 H639 0.930 . S
C618 O628 1.270 . S
C618 O629 1.248 . S
C619 O630 1.267 . S
C619 O631 1.278 . S
O620 Pr600 2.562 . S
O620 C602 1.254 . S
O621 Pr600 2.490 . S
O621 C602 1.225 . S
O622 Pr600 2.695 . S
O622 Pr601 2.436 . S
O622 C609 1.270 . S
O623 Pr600 2.512 . S
O623 C609 1.248 . S
O624 Pr601 2.438 . S
O624 C610 1.267 . S
O625 Pr600 2.437 . S
O625 C610 1.278 . S
O626 Pr601 2.562 . S
O626 C611 1.254 . S
O627 Pr601 2.490 . S
O627 C611 1.225 . S
O628 Pr600 2.436 . S
O628 Pr601 2.695 . S
O628 C618 1.270 . S
O629 Pr601 2.512 . S
O629 C618 1.248 . S
O630 Pr600 2.438 . S
O630 C619 1.267 . S
O631 Pr601 2.437 . S
O631 C619 1.278 . S
H632 C604 0.929 . S
H633 C605 0.929 . S
H634 C607 0.931 . S
H635 C608 0.930 1_455 S
H636 C613 0.929 . S
H637 C614 0.929 . S
H638 C616 0.931 . S
H639 C617 0.930 . S
Pr640 C642 2.880 . S
Pr640 O660 2.562 . S
Pr640 O661 2.490 . S
Pr640 O662 2.695 . S
Pr640 O663 2.512 . S
Pr640 O665 2.437 . S
Pr640 O668 2.436 . S
Pr640 O670 2.438 . S
Pr641 C651 2.880 . S
Pr641 O662 2.436 . S
Pr641 O664 2.438 . S
Pr641 O666 2.562 . S
Pr641 O667 2.490 . S
Pr641 O668 2.695 . S
Pr641 O669 2.512 . S
Pr641 O671 2.437 . S
C642 Pr640 2.880 . S
C642 C643 1.491 . S
C642 O660 1.254 . S
C642 O661 1.225 . S
C643 C642 1.491 . S
C643 C644 1.392 . S
C643 C648 1.356 . S
C644 C643 1.392 . S
C644 C645 1.368 . S
C644 H672 0.929 . S
C645 C644 1.368 . S
C645 C646 1.386 . S
C645 H673 0.929 . S
C646 C645 1.386 . S
C646 C647 1.373 . S
C647 C646 1.373 . S
C647 C648 1.409 . S
C647 H674 0.931 . S
C648 C643 1.356 . S
C648 C647 1.409 . S
C648 H675 0.930 . S
C649 O662 1.270 . S
C649 O663 1.248 . S
C650 O664 1.267 . S
C650 O665 1.278 . S
C651 Pr641 2.880 . S
C651 C652 1.491 . S
C651 O666 1.254 . S
C651 O667 1.225 . S
C652 C651 1.491 . S
C652 C653 1.392 . S
C652 C657 1.356 . S
C653 C652 1.392 . S
C653 C654 1.368 . S
C653 H676 0.929 . S
C654 C653 1.368 . S
C654 C655 1.386 . S
C654 H677 0.929 . S
C655 C654 1.386 . S
C655 C656 1.373 . S
C656 C655 1.373 . S
C656 C657 1.409 . S
C656 H678 0.931 . S
C657 C652 1.356 . S
C657 C656 1.409 . S
C657 H679 0.930 . S
C658 O668 1.270 . S
C658 O669 1.248 . S
C659 O670 1.267 . S
C659 O671 1.278 . S
O660 Pr640 2.562 . S
O660 C642 1.254 . S
O661 Pr640 2.490 . S
O661 C642 1.225 . S
O662 Pr640 2.695 . S
O662 Pr641 2.436 . S
O662 C649 1.270 . S
O663 Pr640 2.512 . S
O663 C649 1.248 . S
O664 Pr641 2.438 . S
O664 C650 1.267 . S
O665 Pr640 2.437 . S
O665 C650 1.278 . S
O666 Pr641 2.562 . S
O666 C651 1.254 . S
O667 Pr641 2.490 . S
O667 C651 1.225 . S
O668 Pr640 2.436 . S
O668 Pr641 2.695 . S
O668 C658 1.270 . S
O669 Pr641 2.512 . S
O669 C658 1.248 . S
O670 Pr640 2.438 . S
O670 C659 1.267 . S
O671 Pr641 2.437 . S
O671 C659 1.278 . S
H672 C644 0.929 . S
H673 C645 0.929 . S
H674 C647 0.931 . S
H675 C648 0.930 . S
H676 C653 0.929 . S
H677 C654 0.929 . S
H678 C656 0.931 . S
H679 C657 0.930 . S
Pr680 C682 2.880 . S
Pr680 O700 2.562 . S
Pr680 O701 2.490 . S
Pr680 O702 2.695 . S
Pr680 O703 2.512 . S
Pr680 O705 2.437 . S
Pr680 O708 2.436 . S
Pr680 O710 2.438 . S
Pr681 C691 2.880 . S
Pr681 O702 2.436 . S
Pr681 O704 2.438 . S
Pr681 O706 2.562 . S
Pr681 O707 2.490 . S
Pr681 O708 2.695 . S
Pr681 O709 2.512 . S
Pr681 O711 2.437 . S
C682 Pr680 2.880 . S
C682 C683 1.491 . S
C682 O700 1.254 . S
C682 O701 1.225 . S
C683 C682 1.491 . S
C683 C684 1.392 . S
C683 C688 1.356 . S
C684 C683 1.392 . S
C684 C685 1.368 . S
C684 H712 0.929 . S
C685 C684 1.368 . S
C685 C686 1.386 . S
C685 H713 0.929 . S
C686 C685 1.386 . S
C686 C687 1.373 1_545 S
C687 C686 1.373 1_565 S
C687 C688 1.409 1_565 S
C687 H714 0.931 . S
C688 C683 1.356 . S
C688 C687 1.409 1_545 S
C688 H715 0.930 1_545 S
C689 O702 1.270 . S
C689 O703 1.248 . S
C690 O704 1.267 . S
C690 O705 1.278 . S
C691 Pr681 2.880 . S
C691 C692 1.491 . S
C691 O706 1.254 . S
C691 O707 1.225 . S
C692 C691 1.491 . S
C692 C693 1.392 . S
C692 C697 1.356 . S
C693 C692 1.392 . S
C693 C694 1.368 . S
C693 H716 0.929 . S
C694 C693 1.368 . S
C694 C695 1.386 . S
C694 H717 0.929 . S
C695 C694 1.386 . S
C695 C696 1.373 . S
C696 C695 1.373 . S
C696 C697 1.409 . S
C696 H718 0.931 . S
C697 C692 1.356 . S
C697 C696 1.409 . S
C697 H719 0.930 . S
C698 O708 1.270 . S
C698 O709 1.248 . S
C699 O710 1.267 . S
C699 O711 1.278 . S
O700 Pr680 2.562 . S
O700 C682 1.254 . S
O701 Pr680 2.490 . S
O701 C682 1.225 . S
O702 Pr680 2.695 . S
O702 Pr681 2.436 . S
O702 C689 1.270 . S
O703 Pr680 2.512 . S
O703 C689 1.248 . S
O704 Pr681 2.438 . S
O704 C690 1.267 . S
O705 Pr680 2.437 . S
O705 C690 1.278 . S
O706 Pr681 2.562 . S
O706 C691 1.254 . S
O707 Pr681 2.490 . S
O707 C691 1.225 . S
O708 Pr680 2.436 . S
O708 Pr681 2.695 . S
O708 C698 1.270 . S
O709 Pr681 2.512 . S
O709 C698 1.248 . S
O710 Pr680 2.438 . S
O710 C699 1.267 . S
O711 Pr681 2.437 . S
O711 C699 1.278 . S
H712 C684 0.929 . S
H713 C685 0.929 . S
H714 C687 0.931 . S
H715 C688 0.930 1_565 S
H716 C693 0.929 . S
H717 C694 0.929 . S
H718 C696 0.931 . S
H719 C697 0.930 . S
Pr720 C722 2.880 . S
Pr720 O740 2.562 . S
Pr720 O741 2.490 . S
Pr720 O742 2.695 . S
Pr720 O743 2.512 . S
Pr720 O745 2.437 . S
Pr720 O748 2.436 . S
Pr720 O750 2.438 . S
Pr721 C731 2.880 . S
Pr721 O742 2.436 . S
Pr721 O744 2.438 . S
Pr721 O746 2.562 . S
Pr721 O747 2.490 . S
Pr721 O748 2.695 . S
Pr721 O749 2.512 . S
Pr721 O751 2.437 . S
C722 Pr720 2.880 . S
C722 C723 1.491 . S
C722 O740 1.254 . S
C722 O741 1.225 . S
C723 C722 1.491 . S
C723 C724 1.392 . S
C723 C728 1.356 . S
C724 C723 1.392 . S
C724 C725 1.368 . S
C724 H752 0.929 . S
C725 C724 1.368 . S
C725 C726 1.386 . S
C725 H753 0.929 . S
C726 C725 1.386 . S
C726 C727 1.373 . S
C727 C726 1.373 . S
C727 C728 1.409 . S
C727 H754 0.931 . S
C728 C723 1.356 . S
C728 C727 1.409 . S
C728 H755 0.930 . S
C729 O742 1.270 . S
C729 O743 1.248 . S
C730 O744 1.267 . S
C730 O745 1.278 . S
C731 Pr721 2.880 . S
C731 C732 1.491 . S
C731 O746 1.254 . S
C731 O747 1.225 . S
C732 C731 1.491 . S
C732 C733 1.392 . S
C732 C737 1.356 . S
C733 C732 1.392 . S
C733 C734 1.368 . S
C733 H756 0.929 . S
C734 C733 1.368 . S
C734 C735 1.386 . S
C734 H757 0.929 . S
C735 C734 1.386 . S
C735 C736 1.373 1_545 S
C736 C735 1.373 1_565 S
C736 C737 1.409 1_565 S
C736 H758 0.931 . S
C737 C732 1.356 . S
C737 C736 1.409 1_545 S
C737 H759 0.925 1_545 S
C738 O748 1.270 . S
C738 O749 1.248 . S
C739 O750 1.267 . S
C739 O751 1.278 . S
O740 Pr720 2.562 . S
O740 C722 1.254 . S
O741 Pr720 2.490 . S
O741 C722 1.225 . S
O742 Pr720 2.695 . S
O742 Pr721 2.436 . S
O742 C729 1.270 . S
O743 Pr720 2.512 . S
O743 C729 1.248 . S
O744 Pr721 2.438 . S
O744 C730 1.267 . S
O745 Pr720 2.437 . S
O745 C730 1.278 . S
O746 Pr721 2.562 . S
O746 C731 1.254 . S
O747 Pr721 2.490 . S
O747 C731 1.225 . S
O748 Pr720 2.436 . S
O748 Pr721 2.695 . S
O748 C738 1.270 . S
O749 Pr721 2.512 . S
O749 C738 1.248 . S
O750 Pr720 2.438 . S
O750 C739 1.267 . S
O751 Pr721 2.437 . S
O751 C739 1.278 . S
H752 C724 0.929 . S
H753 C725 0.929 . S
H754 C727 0.931 . S
H755 C728 0.930 . S
H756 C733 0.929 . S
H757 C734 0.929 . S
H758 C736 0.931 . S
H759 C737 0.925 1_565 S
Pr760 C762 2.880 . S
Pr760 O780 2.562 . S
Pr760 O781 2.490 . S
Pr760 O782 2.695 . S
Pr760 O783 2.512 . S
Pr760 O785 2.437 . S
Pr760 O788 2.436 . S
Pr760 O790 2.438 . S
Pr761 C771 2.880 . S
Pr761 O782 2.436 . S
Pr761 O784 2.438 . S
Pr761 O786 2.562 . S
Pr761 O787 2.490 . S
Pr761 O788 2.695 . S
Pr761 O789 2.512 . S
Pr761 O791 2.437 . S
C762 Pr760 2.880 . S
C762 C763 1.491 . S
C762 O780 1.254 . S
C762 O781 1.225 . S
C763 C762 1.491 . S
C763 C764 1.392 . S
C763 C768 1.356 . S
C764 C763 1.392 . S
C764 C765 1.368 . S
C764 H792 0.929 . S
C765 C764 1.368 . S
C765 C766 1.386 . S
C765 H793 0.929 . S
C766 C765 1.386 . S
C766 C767 1.373 . S
C767 C766 1.373 . S
C767 C768 1.409 . S
C767 H794 0.931 . S
C768 C763 1.356 . S
C768 C767 1.409 . S
C768 H795 0.930 . S
C769 O782 1.270 . S
C769 O783 1.248 . S
C770 O784 1.267 . S
C770 O785 1.278 . S
C771 Pr761 2.880 . S
C771 C772 1.491 . S
C771 O786 1.254 . S
C771 O787 1.225 . S
C772 C771 1.491 . S
C772 C773 1.392 . S
C772 C777 1.356 . S
C773 C772 1.392 . S
C773 C774 1.368 . S
C773 H796 0.929 . S
C774 C773 1.368 . S
C774 C775 1.386 . S
C774 H797 0.929 . S
C775 C774 1.386 . S
C775 C776 1.373 1_655 S
C776 C775 1.373 1_455 S
C776 C777 1.409 1_455 S
C776 H798 0.931 . S
C777 C772 1.356 . S
C777 C776 1.409 1_655 S
C777 H799 0.929 1_655 S
C778 O788 1.270 . S
C778 O789 1.248 . S
C779 O790 1.267 . S
C779 O791 1.278 . S
O780 Pr760 2.562 . S
O780 C762 1.254 . S
O781 Pr760 2.490 . S
O781 C762 1.225 . S
O782 Pr760 2.695 . S
O782 Pr761 2.436 . S
O782 C769 1.270 . S
O783 Pr760 2.512 . S
O783 C769 1.248 . S
O784 Pr761 2.438 . S
O784 C770 1.267 . S
O785 Pr760 2.437 . S
O785 C770 1.278 . S
O786 Pr761 2.562 . S
O786 C771 1.254 . S
O787 Pr761 2.490 . S
O787 C771 1.225 . S
O788 Pr760 2.436 . S
O788 Pr761 2.695 . S
O788 C778 1.270 . S
O789 Pr761 2.512 . S
O789 C778 1.248 . S
O790 Pr760 2.438 . S
O790 C779 1.267 . S
O791 Pr761 2.437 . S
O791 C779 1.278 . S
H792 C764 0.929 . S
H793 C765 0.929 . S
H794 C767 0.931 . S
H795 C768 0.930 . S
H796 C773 0.929 . S
H797 C774 0.929 . S
H798 C776 0.931 . S
H799 C777 0.929 1_455 S
Pr800 C802 2.880 . S
Pr800 O820 2.562 . S
Pr800 O821 2.490 . S
Pr800 O822 2.695 . S
Pr800 O823 2.512 . S
Pr800 O825 2.437 . S
Pr800 O828 2.436 . S
Pr800 O830 2.438 . S
Pr801 C811 2.880 . S
Pr801 O822 2.436 . S
Pr801 O824 2.438 . S
Pr801 O826 2.562 . S
Pr801 O827 2.490 . S
Pr801 O828 2.695 . S
Pr801 O829 2.512 . S
Pr801 O831 2.437 . S
C802 Pr800 2.880 . S
C802 C803 1.491 . S
C802 O820 1.254 . S
C802 O821 1.225 . S
C803 C802 1.491 . S
C803 C804 1.392 . S
C803 C808 1.356 . S
C804 C803 1.392 . S
C804 C805 1.368 . S
C804 H832 0.929 . S
C805 C804 1.368 . S
C805 C806 1.386 . S
C805 H833 0.929 . S
C806 C805 1.386 . S
C806 C807 1.373 . S
C807 C806 1.373 . S
C807 C808 1.409 . S
C807 H834 0.931 . S
C808 C803 1.356 . S
C808 C807 1.409 . S
C808 H835 0.930 . S
C809 O822 1.270 . S
C809 O823 1.248 . S
C810 O824 1.267 . S
C810 O825 1.278 . S
C811 Pr801 2.880 . S
C811 C812 1.491 . S
C811 O826 1.254 . S
C811 O827 1.225 . S
C812 C811 1.491 . S
C812 C813 1.392 . S
C812 C817 1.356 . S
C813 C812 1.392 . S
C813 C814 1.368 . S
C813 H836 0.929 . S
C814 C813 1.368 . S
C814 C815 1.386 . S
C814 H837 0.929 . S
C815 C814 1.386 . S
C815 C816 1.373 . S
C816 C815 1.373 . S
C816 C817 1.409 . S
C816 H838 0.931 . S
C817 C812 1.356 . S
C817 C816 1.409 . S
C817 H839 0.930 . S
C818 O828 1.270 . S
C818 O829 1.248 . S
C819 O830 1.267 . S
C819 O831 1.278 . S
O820 Pr800 2.562 . S
O820 C802 1.254 . S
O821 Pr800 2.490 . S
O821 C802 1.225 . S
O822 Pr800 2.695 . S
O822 Pr801 2.436 . S
O822 C809 1.270 . S
O823 Pr800 2.512 . S
O823 C809 1.248 . S
O824 Pr801 2.438 . S
O824 C810 1.267 . S
O825 Pr800 2.437 . S
O825 C810 1.278 . S
O826 Pr801 2.562 . S
O826 C811 1.254 . S
O827 Pr801 2.490 . S
O827 C811 1.225 . S
O828 Pr800 2.436 . S
O828 Pr801 2.695 . S
O828 C818 1.270 . S
O829 Pr801 2.512 . S
O829 C818 1.248 . S
O830 Pr800 2.438 . S
O830 C819 1.267 . S
O831 Pr801 2.437 . S
O831 C819 1.278 . S
H832 C804 0.929 . S
H833 C805 0.929 . S
H834 C807 0.931 . S
H835 C808 0.930 . S
H836 C813 0.929 . S
H837 C814 0.929 . S
H838 C816 0.931 . S
H839 C817 0.930 . S
Pr840 C842 2.880 . S
Pr840 O860 2.562 . S
Pr840 O861 2.490 . S
Pr840 O862 2.695 1_554 S
Pr840 O863 2.512 . S
Pr840 O865 2.437 . S
Pr840 O868 2.436 . S
Pr840 O870 2.438 . S
Pr841 C851 2.880 . S
Pr841 O862 2.436 . S
Pr841 O864 2.438 . S
Pr841 O866 2.562 . S
Pr841 O867 2.490 . S
Pr841 O868 2.695 1_556 S
Pr841 O869 2.512 . S
Pr841 O871 2.437 . S
C842 Pr840 2.880 . S
C842 C843 1.491 . S
C842 O860 1.254 . S
C842 O861 1.225 . S
C843 C842 1.491 . S
C843 C844 1.392 . S
C843 C848 1.356 . S
C844 C843 1.392 . S
C844 C845 1.368 . S
C844 H872 0.929 . S
C845 C844 1.368 . S
C845 C846 1.386 . S
C845 H873 0.929 . S
C846 C845 1.386 . S
C846 C847 1.373 . S
C847 C846 1.373 . S
C847 C848 1.409 . S
C847 H874 0.931 . S
C848 C843 1.356 . S
C848 C847 1.409 . S
C848 H875 0.930 . S
C849 O862 1.270 1_554 S
C849 O863 1.248 . S
C850 O864 1.267 1_554 S
C850 O865 1.278 . S
C851 Pr841 2.880 . S
C851 C852 1.491 . S
C851 O866 1.254 . S
C851 O867 1.225 . S
C852 C851 1.491 . S
C852 C853 1.392 . S
C852 C857 1.356 . S
C853 C852 1.392 . S
C853 C854 1.368 . S
C853 H876 0.929 . S
C854 C853 1.368 . S
C854 C855 1.386 . S
C854 H877 0.929 . S
C855 C854 1.386 . S
C855 C856 1.373 . S
C856 C855 1.373 . S
C856 C857 1.409 . S
C856 H878 0.931 . S
C857 C852 1.356 . S
C857 C856 1.409 . S
C857 H879 0.930 . S
C858 O868 1.270 1_556 S
C858 O869 1.248 . S
C859 O870 1.267 1_556 S
C859 O871 1.278 . S
O860 Pr840 2.562 . S
O860 C842 1.254 . S
O861 Pr840 2.490 . S
O861 C842 1.225 . S
O862 Pr840 2.695 1_556 S
O862 Pr841 2.436 . S
O862 C849 1.270 1_556 S
O863 Pr840 2.512 . S
O863 C849 1.248 . S
O864 Pr841 2.438 . S
O864 C850 1.267 1_556 S
O865 Pr840 2.437 . S
O865 C850 1.278 . S
O866 Pr841 2.562 . S
O866 C851 1.254 . S
O867 Pr841 2.490 . S
O867 C851 1.225 . S
O868 Pr840 2.436 . S
O868 Pr841 2.695 1_554 S
O868 C858 1.270 1_554 S
O869 Pr841 2.512 . S
O869 C858 1.248 . S
O870 Pr840 2.438 . S
O870 C859 1.267 1_554 S
O871 Pr841 2.437 . S
O871 C859 1.278 . S
H872 C844 0.929 . S
H873 C845 0.929 . S
H874 C847 0.931 . S
H875 C848 0.930 . S
H876 C853 0.929 . S
H877 C854 0.929 . S
H878 C856 0.931 . S
H879 C857 0.930 . S
Pr880 C882 2.880 . S
Pr880 O900 2.562 . S
Pr880 O901 2.490 . S
Pr880 O902 2.695 1_554 S
Pr880 O903 2.512 . S
Pr880 O905 2.437 . S
Pr880 O908 2.436 . S
Pr880 O910 2.438 . S
Pr881 C891 2.880 . S
Pr881 O902 2.436 . S
Pr881 O904 2.438 . S
Pr881 O906 2.562 . S
Pr881 O907 2.490 . S
Pr881 O908 2.695 1_556 S
Pr881 O909 2.512 . S
Pr881 O911 2.437 . S
C882 Pr880 2.880 . S
C882 C883 1.491 . S
C882 O900 1.254 . S
C882 O901 1.225 . S
C883 C882 1.491 . S
C883 C884 1.392 . S
C883 C888 1.356 . S
C884 C883 1.392 . S
C884 C885 1.368 . S
C884 H912 0.929 . S
C885 C884 1.368 . S
C885 C886 1.386 . S
C885 H913 0.929 . S
C886 C885 1.386 . S
C886 C887 1.373 . S
C887 C886 1.373 . S
C887 C888 1.409 . S
C887 H914 0.931 . S
C888 C883 1.356 . S
C888 C887 1.409 . S
C888 H915 0.930 . S
C889 O902 1.270 1_554 S
C889 O903 1.248 . S
C890 O904 1.267 1_554 S
C890 O905 1.278 . S
C891 Pr881 2.880 . S
C891 C892 1.491 . S
C891 O906 1.254 . S
C891 O907 1.225 . S
C892 C891 1.491 . S
C892 C893 1.392 . S
C892 C897 1.356 . S
C893 C892 1.392 . S
C893 C894 1.368 . S
C893 H916 0.929 . S
C894 C893 1.368 . S
C894 C895 1.386 . S
C894 H917 0.929 . S
C895 C894 1.386 . S
C895 C896 1.373 . S
C896 C895 1.373 . S
C896 C897 1.409 . S
C896 H918 0.931 . S
C897 C892 1.356 . S
C897 C896 1.409 . S
C897 H919 0.930 . S
C898 O908 1.270 1_556 S
C898 O909 1.248 . S
C899 O910 1.267 1_556 S
C899 O911 1.278 . S
O900 Pr880 2.562 . S
O900 C882 1.254 . S
O901 Pr880 2.490 . S
O901 C882 1.225 . S
O902 Pr880 2.695 1_556 S
O902 Pr881 2.436 . S
O902 C889 1.270 1_556 S
O903 Pr880 2.512 . S
O903 C889 1.248 . S
O904 Pr881 2.438 . S
O904 C890 1.267 1_556 S
O905 Pr880 2.437 . S
O905 C890 1.278 . S
O906 Pr881 2.562 . S
O906 C891 1.254 . S
O907 Pr881 2.490 . S
O907 C891 1.225 . S
O908 Pr880 2.436 . S
O908 Pr881 2.695 1_554 S
O908 C898 1.270 1_554 S
O909 Pr881 2.512 . S
O909 C898 1.248 . S
O910 Pr880 2.438 . S
O910 C899 1.267 1_554 S
O911 Pr881 2.437 . S
O911 C899 1.278 . S
H912 C884 0.929 . S
H913 C885 0.929 . S
H914 C887 0.931 . S
H915 C888 0.930 . S
H916 C893 0.929 . S
H917 C894 0.929 . S
H918 C896 0.931 . S
H919 C897 0.930 . S
Pr920 C922 2.880 . S
Pr920 O940 2.562 . S
Pr920 O941 2.490 . S
Pr920 O942 2.695 1_554 S
Pr920 O943 2.512 . S
Pr920 O945 2.437 . S
Pr920 O948 2.436 . S
Pr920 O950 2.438 . S
Pr921 C931 2.880 . S
Pr921 O942 2.436 . S
Pr921 O944 2.438 . S
Pr921 O946 2.562 . S
Pr921 O947 2.490 . S
Pr921 O948 2.695 1_556 S
Pr921 O949 2.512 . S
Pr921 O951 2.437 . S
C922 Pr920 2.880 . S
C922 C923 1.491 . S
C922 O940 1.254 . S
C922 O941 1.225 . S
C923 C922 1.491 . S
C923 C924 1.392 . S
C923 C928 1.356 . S
C924 C923 1.392 . S
C924 C925 1.368 . S
C924 H952 0.929 . S
C925 C924 1.368 . S
C925 C926 1.386 . S
C925 H953 0.929 . S
C926 C925 1.386 . S
C926 C927 1.373 . S
C927 C926 1.373 . S
C927 C928 1.409 . S
C927 H954 0.931 . S
C928 C923 1.356 . S
C928 C927 1.409 . S
C928 H955 0.930 . S
C929 O942 1.270 1_554 S
C929 O943 1.248 . S
C930 O944 1.267 1_554 S
C930 O945 1.278 . S
C931 Pr921 2.880 . S
C931 C932 1.491 . S
C931 O946 1.254 . S
C931 O947 1.225 . S
C932 C931 1.491 . S
C932 C933 1.392 . S
C932 C937 1.356 . S
C933 C932 1.392 . S
C933 C934 1.368 . S
C933 H956 0.929 . S
C934 C933 1.368 . S
C934 C935 1.386 . S
C934 H957 0.929 . S
C935 C934 1.386 . S
C935 C936 1.373 . S
C936 C935 1.373 . S
C936 C937 1.409 . S
C936 H958 0.931 . S
C937 C932 1.356 . S
C937 C936 1.409 . S
C937 H959 0.930 . S
C938 O948 1.270 1_556 S
C938 O949 1.248 . S
C939 O950 1.267 1_556 S
C939 O951 1.278 . S
O940 Pr920 2.562 . S
O940 C922 1.254 . S
O941 Pr920 2.490 . S
O941 C922 1.225 . S
O942 Pr920 2.695 1_556 S
O942 Pr921 2.436 . S
O942 C929 1.270 1_556 S
O943 Pr920 2.512 . S
O943 C929 1.248 . S
O944 Pr921 2.438 . S
O944 C930 1.267 1_556 S
O945 Pr920 2.437 . S
O945 C930 1.278 . S
O946 Pr921 2.562 . S
O946 C931 1.254 . S
O947 Pr921 2.490 . S
O947 C931 1.225 . S
O948 Pr920 2.436 . S
O948 Pr921 2.695 1_554 S
O948 C938 1.270 1_554 S
O949 Pr921 2.512 . S
O949 C938 1.248 . S
O950 Pr920 2.438 . S
O950 C939 1.267 1_554 S
O951 Pr921 2.437 . S
O951 C939 1.278 . S
H952 C924 0.929 . S
H953 C925 0.929 . S
H954 C927 0.931 . S
H955 C928 0.930 . S
H956 C933 0.929 . S
H957 C934 0.929 . S
H958 C936 0.931 . S
H959 C937 0.930 . S
Pr960 C962 2.880 . S
Pr960 O980 2.562 . S
Pr960 O981 2.490 . S
Pr960 O982 2.695 . S
Pr960 O983 2.512 . S
Pr960 O985 2.437 . S
Pr960 O988 2.436 . S
Pr960 O990 2.438 . S
Pr961 C971 2.880 . S
Pr961 O982 2.436 . S
Pr961 O984 2.438 . S
Pr961 O986 2.562 . S
Pr961 O987 2.490 . S
Pr961 O988 2.695 . S
Pr961 O989 2.512 . S
Pr961 O991 2.437 . S
C962 Pr960 2.880 . S
C962 C963 1.491 . S
C962 O980 1.254 . S
C962 O981 1.225 . S
C963 C962 1.491 . S
C963 C964 1.392 . S
C963 C968 1.356 . S
C964 C963 1.392 . S
C964 C965 1.368 . S
C964 H992 0.929 . S
C965 C964 1.368 . S
C965 C966 1.386 . S
C965 H993 0.929 . S
C966 C965 1.386 . S
C966 C967 1.373 1_565 S
C967 C966 1.373 1_545 S
C967 C968 1.409 1_545 S
C967 H994 0.931 . S
C968 C963 1.356 . S
C968 C967 1.409 1_565 S
C968 H995 0.925 1_565 S
C969 O982 1.270 . S
C969 O983 1.248 . S
C970 O984 1.267 . S
C970 O985 1.278 . S
C971 Pr961 2.880 . S
C971 C972 1.491 . S
C971 O986 1.254 . S
C971 O987 1.225 . S
C972 C971 1.491 . S
C972 C973 1.392 . S
C972 C977 1.356 . S
C973 C972 1.392 . S
C973 C974 1.368 . S
C973 H996 0.929 . S
C974 C973 1.368 . S
C974 C975 1.386 . S
C974 H997 0.929 . S
C975 C974 1.386 . S
C975 C976 1.373 . S
C976 C975 1.373 . S
C976 C977 1.409 . S
C976 H998 0.931 . S
C977 C972 1.356 . S
C977 C976 1.409 . S
C977 H999 0.930 . S
C978 O988 1.270 . S
C978 O989 1.248 . S
C979 O990 1.267 . S
C979 O991 1.278 . S
O980 Pr960 2.562 . S
O980 C962 1.254 . S
O981 Pr960 2.490 . S
O981 C962 1.225 . S
O982 Pr960 2.695 . S
O982 Pr961 2.436 . S
O982 C969 1.270 . S
O983 Pr960 2.512 . S
O983 C969 1.248 . S
O984 Pr961 2.438 . S
O984 C970 1.267 . S
O985 Pr960 2.437 . S
O985 C970 1.278 . S
O986 Pr961 2.562 . S
O986 C971 1.254 . S
O987 Pr961 2.490 . S
O987 C971 1.225 . S
O988 Pr960 2.436 . S
O988 Pr961 2.695 . S
O988 C978 1.270 . S
O989 Pr961 2.512 . S
O989 C978 1.248 . S
O990 Pr960 2.438 . S
O990 C979 1.267 . S
O991 Pr961 2.437 . S
O991 C979 1.278 . S
H992 C964 0.929 . S
H993 C965 0.929 . S
H994 C967 0.931 . S
H995 C968 0.925 1_545 S
H996 C973 0.929 . S
H997 C974 0.929 . S
H998 C976 0.931 . S
H999 C977 0.930 . S
Pr1000 C1002 2.880 . S
Pr1000 O1020 2.562 . S
Pr1000 O1021 2.490 . S
Pr1000 O1022 2.695 . S
Pr1000 O1023 2.512 . S
Pr1000 O1025 2.437 . S
Pr1000 O1028 2.436 . S
Pr1000 O1030 2.438 . S
Pr1001 C1011 2.880 . S
Pr1001 O1022 2.436 . S
Pr1001 O1024 2.438 . S
Pr1001 O1026 2.562 . S
Pr1001 O1027 2.490 . S
Pr1001 O1028 2.695 . S
Pr1001 O1029 2.512 . S
Pr1001 O1031 2.437 . S
C1002 Pr1000 2.880 . S
C1002 C1003 1.491 . S
C1002 O1020 1.254 . S
C1002 O1021 1.225 . S
C1003 C1002 1.491 . S
C1003 C1004 1.392 . S
C1003 C1008 1.356 . S
C1004 C1003 1.392 . S
C1004 C1005 1.368 . S
C1004 H1032 0.929 . S
C1005 C1004 1.368 . S
C1005 C1006 1.386 . S
C1005 H1033 0.929 . S
C1006 C1005 1.386 . S
C1006 C1007 1.373 1_455 S
C1007 C1006 1.373 1_655 S
C1007 C1008 1.409 1_655 S
C1007 H1034 0.931 . S
C1008 C1003 1.356 . S
C1008 C1007 1.409 1_455 S
C1008 H1035 0.929 1_455 S
C1009 O1022 1.270 . S
C1009 O1023 1.248 . S
C1010 O1024 1.267 . S
C1010 O1025 1.278 . S
C1011 Pr1001 2.880 . S
C1011 C1012 1.491 . S
C1011 O1026 1.254 . S
C1011 O1027 1.225 . S
C1012 C1011 1.491 . S
C1012 C1013 1.392 . S
C1012 C1017 1.356 . S
C1013 C1012 1.392 . S
C1013 C1014 1.368 . S
C1013 H1036 0.929 . S
C1014 C1013 1.368 . S
C1014 C1015 1.386 . S
C1014 H1037 0.929 . S
C1015 C1014 1.386 . S
C1015 C1016 1.373 . S
C1016 C1015 1.373 . S
C1016 C1017 1.409 . S
C1016 H1038 0.931 . S
C1017 C1012 1.356 . S
C1017 C1016 1.409 . S
C1017 H1039 0.930 . S
C1018 O1028 1.270 . S
C1018 O1029 1.248 . S
C1019 O1030 1.267 . S
C1019 O1031 1.278 . S
O1020 Pr1000 2.562 . S
O1020 C1002 1.254 . S
O1021 Pr1000 2.490 . S
O1021 C1002 1.225 . S
O1022 Pr1000 2.695 . S
O1022 Pr1001 2.436 . S
O1022 C1009 1.270 . S
O1023 Pr1000 2.512 . S
O1023 C1009 1.248 . S
O1024 Pr1001 2.438 . S
O1024 C1010 1.267 . S
O1025 Pr1000 2.437 . S
O1025 C1010 1.278 . S
O1026 Pr1001 2.562 . S
O1026 C1011 1.254 . S
O1027 Pr1001 2.490 . S
O1027 C1011 1.225 . S
O1028 Pr1000 2.436 . S
O1028 Pr1001 2.695 . S
O1028 C1018 1.270 . S
O1029 Pr1001 2.512 . S
O1029 C1018 1.248 . S
O1030 Pr1000 2.438 . S
O1030 C1019 1.267 . S
O1031 Pr1001 2.437 . S
O1031 C1019 1.278 . S
H1032 C1004 0.929 . S
H1033 C1005 0.929 . S
H1034 C1007 0.931 . S
H1035 C1008 0.929 1_655 S
H1036 C1013 0.929 . S
H1037 C1014 0.929 . S
H1038 C1016 0.931 . S
H1039 C1017 0.930 . S
Pr1040 C1042 2.880 . S
Pr1040 O1060 2.562 . S
Pr1040 O1061 2.490 . S
Pr1040 O1062 2.695 . S
Pr1040 O1063 2.512 . S
Pr1040 O1065 2.437 . S
Pr1040 O1068 2.436 . S
Pr1040 O1070 2.438 . S
Pr1041 C1051 2.880 . S
Pr1041 O1062 2.436 . S
Pr1041 O1064 2.438 . S
Pr1041 O1066 2.562 . S
Pr1041 O1067 2.490 . S
Pr1041 O1068 2.695 . S
Pr1041 O1069 2.512 . S
Pr1041 O1071 2.437 . S
C1042 Pr1040 2.880 . S
C1042 C1043 1.491 . S
C1042 O1060 1.254 . S
C1042 O1061 1.225 . S
C1043 C1042 1.491 . S
C1043 C1044 1.392 . S
C1043 C1048 1.356 . S
C1044 C1043 1.392 . S
C1044 C1045 1.368 . S
C1044 H1072 0.929 . S
C1045 C1044 1.368 . S
C1045 C1046 1.386 . S
C1045 H1073 0.929 . S
C1046 C1045 1.386 . S
C1046 C1047 1.373 . S
C1047 C1046 1.373 . S
C1047 C1048 1.409 . S
C1047 H1074 0.931 . S
C1048 C1043 1.356 . S
C1048 C1047 1.409 . S
C1048 H1075 0.930 . S
C1049 O1062 1.270 . S
C1049 O1063 1.248 . S
C1050 O1064 1.267 . S
C1050 O1065 1.278 . S
C1051 Pr1041 2.880 . S
C1051 C1052 1.491 . S
C1051 O1066 1.254 . S
C1051 O1067 1.225 . S
C1052 C1051 1.491 . S
C1052 C1053 1.392 . S
C1052 C1057 1.356 . S
C1053 C1052 1.392 . S
C1053 C1054 1.368 . S
C1053 H1076 0.929 . S
C1054 C1053 1.368 . S
C1054 C1055 1.386 . S
C1054 H1077 0.929 . S
C1055 C1054 1.386 . S
C1055 C1056 1.373 . S
C1056 C1055 1.373 . S
C1056 C1057 1.409 . S
C1056 H1078 0.931 . S
C1057 C1052 1.356 . S
C1057 C1056 1.409 . S
C1057 H1079 0.930 . S
C1058 O1068 1.270 . S
C1058 O1069 1.248 . S
C1059 O1070 1.267 . S
C1059 O1071 1.278 . S
O1060 Pr1040 2.562 . S
O1060 C1042 1.254 . S
O1061 Pr1040 2.490 . S
O1061 C1042 1.225 . S
O1062 Pr1040 2.695 . S
O1062 Pr1041 2.436 . S
O1062 C1049 1.270 . S
O1063 Pr1040 2.512 . S
O1063 C1049 1.248 . S
O1064 Pr1041 2.438 . S
O1064 C1050 1.267 . S
O1065 Pr1040 2.437 . S
O1065 C1050 1.278 . S
O1066 Pr1041 2.562 . S
O1066 C1051 1.254 . S
O1067 Pr1041 2.490 . S
O1067 C1051 1.225 . S
O1068 Pr1040 2.436 . S
O1068 Pr1041 2.695 . S
O1068 C1058 1.270 . S
O1069 Pr1041 2.512 . S
O1069 C1058 1.248 . S
O1070 Pr1040 2.438 . S
O1070 C1059 1.267 . S
O1071 Pr1041 2.437 . S
O1071 C1059 1.278 . S
H1072 C1044 0.929 . S
H1073 C1045 0.929 . S
H1074 C1047 0.931 . S
H1075 C1048 0.930 . S
H1076 C1053 0.929 . S
H1077 C1054 0.929 . S
H1078 C1056 0.931 . S
H1079 C1057 0.930 . S
Pr1080 C1082 2.880 . S
Pr1080 O1100 2.562 . S
Pr1080 O1101 2.490 . S
Pr1080 O1102 2.695 1_554 S
Pr1080 O1103 2.512 . S
Pr1080 O1105 2.437 . S
Pr1080 O1108 2.436 . S
Pr1080 O1110 2.438 . S
Pr1081 C1091 2.880 . S
Pr1081 O1102 2.436 . S
Pr1081 O1104 2.438 . S
Pr1081 O1106 2.562 . S
Pr1081 O1107 2.490 . S
Pr1081 O1108 2.695 1_556 S
Pr1081 O1109 2.512 . S
Pr1081 O1111 2.437 . S
C1082 Pr1080 2.880 . S
C1082 C1083 1.491 . S
C1082 O1100 1.254 . S
C1082 O1101 1.225 . S
C1083 C1082 1.491 . S
C1083 C1084 1.392 . S
C1083 C1088 1.356 . S
C1084 C1083 1.392 . S
C1084 C1085 1.368 . S
C1084 H1112 0.929 . S
C1085 C1084 1.368 . S
C1085 C1086 1.386 . S
C1085 H1113 0.929 . S
C1086 C1085 1.386 . S
C1086 C1087 1.373 . S
C1087 C1086 1.373 . S
C1087 C1088 1.409 . S
C1087 H1114 0.931 . S
C1088 C1083 1.356 . S
C1088 C1087 1.409 . S
C1088 H1115 0.930 . S
C1089 O1102 1.270 1_554 S
C1089 O1103 1.248 . S
C1090 O1104 1.267 1_554 S
C1090 O1105 1.278 . S
C1091 Pr1081 2.880 . S
C1091 C1092 1.491 . S
C1091 O1106 1.254 . S
C1091 O1107 1.225 . S
C1092 C1091 1.491 . S
C1092 C1093 1.392 . S
C1092 C1097 1.356 . S
C1093 C1092 1.392 . S
C1093 C1094 1.368 . S
C1093 H1116 0.929 . S
C1094 C1093 1.368 . S
C1094 C1095 1.386 . S
C1094 H1117 0.929 . S
C1095 C1094 1.386 . S
C1095 C1096 1.373 . S
C1096 C1095 1.373 . S
C1096 C1097 1.409 . S
C1096 H1118 0.931 . S
C1097 C1092 1.356 . S
C1097 C1096 1.409 . S
C1097 H1119 0.930 . S
C1098 O1108 1.270 1_556 S
C1098 O1109 1.248 . S
C1099 O1110 1.267 1_556 S
C1099 O1111 1.278 . S
O1100 Pr1080 2.562 . S
O1100 C1082 1.254 . S
O1101 Pr1080 2.490 . S
O1101 C1082 1.225 . S
O1102 Pr1080 2.695 1_556 S
O1102 Pr1081 2.436 . S
O1102 C1089 1.270 1_556 S
O1103 Pr1080 2.512 . S
O1103 C1089 1.248 . S
O1104 Pr1081 2.438 . S
O1104 C1090 1.267 1_556 S
O1105 Pr1080 2.437 . S
O1105 C1090 1.278 . S
O1106 Pr1081 2.562 . S
O1106 C1091 1.254 . S
O1107 Pr1081 2.490 . S
O1107 C1091 1.225 . S
O1108 Pr1080 2.436 . S
O1108 Pr1081 2.695 1_554 S
O1108 C1098 1.270 1_554 S
O1109 Pr1081 2.512 . S
O1109 C1098 1.248 . S
O1110 Pr1080 2.438 . S
O1110 C1099 1.267 1_554 S
O1111 Pr1081 2.437 . S
O1111 C1099 1.278 . S
H1112 C1084 0.929 . S
H1113 C1085 0.929 . S
H1114 C1087 0.931 . S
H1115 C1088 0.930 . S
H1116 C1093 0.929 . S
H1117 C1094 0.929 . S
H1118 C1096 0.931 . S
H1119 C1097 0.930 . S
Pr1120 C1122 2.880 . S
Pr1120 O1140 2.562 . S
Pr1120 O1141 2.490 . S
Pr1120 O1142 2.695 1_554 S
Pr1120 O1143 2.512 . S
Pr1120 O1145 2.437 . S
Pr1120 O1148 2.436 . S
Pr1120 O1150 2.438 . S
Pr1121 C1131 2.880 . S
Pr1121 O1142 2.436 . S
Pr1121 O1144 2.438 . S
Pr1121 O1146 2.562 . S
Pr1121 O1147 2.490 . S
Pr1121 O1148 2.695 1_556 S
Pr1121 O1149 2.512 . S
Pr1121 O1151 2.437 . S
C1122 Pr1120 2.880 . S
C1122 C1123 1.491 . S
C1122 O1140 1.254 . S
C1122 O1141 1.225 . S
C1123 C1122 1.491 . S
C1123 C1124 1.392 . S
C1123 C1128 1.356 . S
C1124 C1123 1.392 . S
C1124 C1125 1.368 . S
C1124 H1152 0.929 . S
C1125 C1124 1.368 . S
C1125 C1126 1.386 . S
C1125 H1153 0.929 . S
C1126 C1125 1.386 . S
C1126 C1127 1.373 . S
C1127 C1126 1.373 . S
C1127 C1128 1.409 . S
C1127 H1154 0.931 . S
C1128 C1123 1.356 . S
C1128 C1127 1.409 . S
C1128 H1155 0.930 . S
C1129 O1142 1.270 1_554 S
C1129 O1143 1.248 . S
C1130 O1144 1.267 1_554 S
C1130 O1145 1.278 . S
C1131 Pr1121 2.880 . S
C1131 C1132 1.491 . S
C1131 O1146 1.254 . S
C1131 O1147 1.225 . S
C1132 C1131 1.491 . S
C1132 C1133 1.392 . S
C1132 C1137 1.356 . S
C1133 C1132 1.392 . S
C1133 C1134 1.368 . S
C1133 H1156 0.929 . S
C1134 C1133 1.368 . S
C1134 C1135 1.386 . S
C1134 H1157 0.929 . S
C1135 C1134 1.386 . S
C1135 C1136 1.373 . S
C1136 C1135 1.373 . S
C1136 C1137 1.409 . S
C1136 H1158 0.931 . S
C1137 C1132 1.356 . S
C1137 C1136 1.409 . S
C1137 H1159 0.930 . S
C1138 O1148 1.270 1_556 S
C1138 O1149 1.248 . S
C1139 O1150 1.267 1_556 S
C1139 O1151 1.278 . S
O1140 Pr1120 2.562 . S
O1140 C1122 1.254 . S
O1141 Pr1120 2.490 . S
O1141 C1122 1.225 . S
O1142 Pr1120 2.695 1_556 S
O1142 Pr1121 2.436 . S
O1142 C1129 1.270 1_556 S
O1143 Pr1120 2.512 . S
O1143 C1129 1.248 . S
O1144 Pr1121 2.438 . S
O1144 C1130 1.267 1_556 S
O1145 Pr1120 2.437 . S
O1145 C1130 1.278 . S
O1146 Pr1121 2.562 . S
O1146 C1131 1.254 . S
O1147 Pr1121 2.490 . S
O1147 C1131 1.225 . S
O1148 Pr1120 2.436 . S
O1148 Pr1121 2.695 1_554 S
O1148 C1138 1.270 1_554 S
O1149 Pr1121 2.512 . S
O1149 C1138 1.248 . S
O1150 Pr1120 2.438 . S
O1150 C1139 1.267 1_554 S
O1151 Pr1121 2.437 . S
O1151 C1139 1.278 . S
H1152 C1124 0.929 . S
H1153 C1125 0.929 . S
H1154 C1127 0.931 . S
H1155 C1128 0.930 . S
H1156 C1133 0.929 . S
H1157 C1134 0.929 . S
H1158 C1136 0.931 . S
H1159 C1137 0.930 . S
Pr1160 C1162 2.880 . S
Pr1160 O1180 2.562 . S
Pr1160 O1181 2.490 . S
Pr1160 O1182 2.695 1_554 S
Pr1160 O1183 2.512 . S
Pr1160 O1185 2.437 . S
Pr1160 O1188 2.436 . S
Pr1160 O1190 2.438 . S
Pr1161 C1171 2.880 . S
Pr1161 O1182 2.436 . S
Pr1161 O1184 2.438 . S
Pr1161 O1186 2.562 . S
Pr1161 O1187 2.490 . S
Pr1161 O1188 2.695 1_556 S
Pr1161 O1189 2.512 . S
Pr1161 O1191 2.437 . S
C1162 Pr1160 2.880 . S
C1162 C1163 1.491 . S
C1162 O1180 1.254 . S
C1162 O1181 1.225 . S
C1163 C1162 1.491 . S
C1163 C1164 1.392 . S
C1163 C1168 1.356 . S
C1164 C1163 1.392 . S
C1164 C1165 1.368 . S
C1164 H1192 0.929 . S
C1165 C1164 1.368 . S
C1165 C1166 1.386 . S
C1165 H1193 0.929 . S
C1166 C1165 1.386 . S
C1166 C1167 1.373 . S
C1167 C1166 1.373 . S
C1167 C1168 1.409 . S
C1167 H1194 0.931 . S
C1168 C1163 1.356 . S
C1168 C1167 1.409 . S
C1168 H1195 0.930 . S
C1169 O1182 1.270 1_554 S
C1169 O1183 1.248 . S
C1170 O1184 1.267 1_554 S
C1170 O1185 1.278 . S
C1171 Pr1161 2.880 . S
C1171 C1172 1.491 . S
C1171 O1186 1.254 . S
C1171 O1187 1.225 . S
C1172 C1171 1.491 . S
C1172 C1173 1.392 . S
C1172 C1177 1.356 . S
C1173 C1172 1.392 . S
C1173 C1174 1.368 . S
C1173 H1196 0.929 . S
C1174 C1173 1.368 . S
C1174 C1175 1.386 . S
C1174 H1197 0.929 . S
C1175 C1174 1.386 . S
C1175 C1176 1.373 . S
C1176 C1175 1.373 . S
C1176 C1177 1.409 . S
C1176 H1198 0.931 . S
C1177 C1172 1.356 . S
C1177 C1176 1.409 . S
C1177 H1199 0.930 . S
C1178 O1188 1.270 1_556 S
C1178 O1189 1.248 . S
C1179 O1190 1.267 1_556 S
C1179 O1191 1.278 . S
O1180 Pr1160 2.562 . S
O1180 C1162 1.254 . S
O1181 Pr1160 2.490 . S
O1181 C1162 1.225 . S
O1182 Pr1160 2.695 1_556 S
O1182 Pr1161 2.436 . S
O1182 C1169 1.270 1_556 S
O1183 Pr1160 2.512 . S
O1183 C1169 1.248 . S
O1184 Pr1161 2.438 . S
O1184 C1170 1.267 1_556 S
O1185 Pr1160 2.437 . S
O1185 C1170 1.278 . S
O1186 Pr1161 2.562 . S
O1186 C1171 1.254 . S
O1187 Pr1161 2.490 . S
O1187 C1171 1.225 . S
O1188 Pr1160 2.436 . S
O1188 Pr1161 2.695 1_554 S
O1188 C1178 1.270 1_554 S
O1189 Pr1161 2.512 . S
O1189 C1178 1.248 . S
O1190 Pr1160 2.438 . S
O1190 C1179 1.267 1_554 S
O1191 Pr1161 2.437 . S
O1191 C1179 1.278 . S
H1192 C1164 0.929 . S
H1193 C1165 0.929 . S
H1194 C1167 0.931 . S
H1195 C1168 0.930 . S
H1196 C1173 0.929 . S
H1197 C1174 0.929 . S
H1198 C1176 0.931 . S
H1199 C1177 0.930 . S
Pr1200 C1202 2.880 . S
Pr1200 O1220 2.562 . S
Pr1200 O1221 2.490 . S
Pr1200 O1222 2.695 . S
Pr1200 O1223 2.512 . S
Pr1200 O1225 2.437 . S
Pr1200 O1228 2.436 . S
Pr1200 O1230 2.438 . S
Pr1201 C1211 2.880 . S
Pr1201 O1222 2.436 . S
Pr1201 O1224 2.438 . S
Pr1201 O1226 2.562 . S
Pr1201 O1227 2.490 . S
Pr1201 O1228 2.695 . S
Pr1201 O1229 2.512 . S
Pr1201 O1231 2.437 . S
C1202 Pr1200 2.880 . S
C1202 C1203 1.491 . S
C1202 O1220 1.254 . S
C1202 O1221 1.225 . S
C1203 C1202 1.491 . S
C1203 C1204 1.392 . S
C1203 C1208 1.356 . S
C1204 C1203 1.392 . S
C1204 C1205 1.368 . S
C1204 H1232 0.929 . S
C1205 C1204 1.368 . S
C1205 C1206 1.386 . S
C1205 H1233 0.929 . S
C1206 C1205 1.386 . S
C1206 C1207 1.373 . S
C1207 C1206 1.373 . S
C1207 C1208 1.409 . S
C1207 H1234 0.931 . S
C1208 C1203 1.356 . S
C1208 C1207 1.409 . S
C1208 H1235 0.930 . S
C1209 O1222 1.270 . S
C1209 O1223 1.248 . S
C1210 O1224 1.267 . S
C1210 O1225 1.278 . S
C1211 Pr1201 2.880 . S
C1211 C1212 1.491 . S
C1211 O1226 1.254 . S
C1211 O1227 1.225 . S
C1212 C1211 1.491 . S
C1212 C1213 1.392 . S
C1212 C1217 1.356 . S
C1213 C1212 1.392 . S
C1213 C1214 1.368 . S
C1213 H1236 0.929 . S
C1214 C1213 1.368 . S
C1214 C1215 1.386 . S
C1214 H1237 0.929 . S
C1215 C1214 1.386 . S
C1215 C1216 1.373 . S
C1216 C1215 1.373 . S
C1216 C1217 1.409 . S
C1216 H1238 0.931 . S
C1217 C1212 1.356 . S
C1217 C1216 1.409 . S
C1217 H1239 0.930 . S
C1218 O1228 1.270 . S
C1218 O1229 1.248 . S
C1219 O1230 1.267 . S
C1219 O1231 1.278 . S
O1220 Pr1200 2.562 . S
O1220 C1202 1.254 . S
O1221 Pr1200 2.490 . S
O1221 C1202 1.225 . S
O1222 Pr1200 2.695 . S
O1222 Pr1201 2.436 . S
O1222 C1209 1.270 . S
O1223 Pr1200 2.512 . S
O1223 C1209 1.248 . S
O1224 Pr1201 2.438 . S
O1224 C1210 1.267 . S
O1225 Pr1200 2.437 . S
O1225 C1210 1.278 . S
O1226 Pr1201 2.562 . S
O1226 C1211 1.254 . S
O1227 Pr1201 2.490 . S
O1227 C1211 1.225 . S
O1228 Pr1200 2.436 . S
O1228 Pr1201 2.695 . S
O1228 C1218 1.270 . S
O1229 Pr1201 2.512 . S
O1229 C1218 1.248 . S
O1230 Pr1200 2.438 . S
O1230 C1219 1.267 . S
O1231 Pr1201 2.437 . S
O1231 C1219 1.278 . S
H1232 C1204 0.929 . S
H1233 C1205 0.929 . S
H1234 C1207 0.931 . S
H1235 C1208 0.930 . S
H1236 C1213 0.929 . S
H1237 C1214 0.929 . S
H1238 C1216 0.931 . S
H1239 C1217 0.930 . S
Pr1240 C1242 2.880 . S
Pr1240 O1260 2.562 . S
Pr1240 O1261 2.490 . S
Pr1240 O1262 2.695 . S
Pr1240 O1263 2.512 . S
Pr1240 O1265 2.437 . S
Pr1240 O1268 2.436 . S
Pr1240 O1270 2.438 . S
Pr1241 C1251 2.880 . S
Pr1241 O1262 2.436 . S
Pr1241 O1264 2.438 . S
Pr1241 O1266 2.562 . S
Pr1241 O1267 2.490 . S
Pr1241 O1268 2.695 . S
Pr1241 O1269 2.512 . S
Pr1241 O1271 2.437 . S
C1242 Pr1240 2.880 . S
C1242 C1243 1.491 . S
C1242 O1260 1.254 . S
C1242 O1261 1.225 . S
C1243 C1242 1.491 . S
C1243 C1244 1.392 . S
C1243 C1248 1.356 . S
C1244 C1243 1.392 . S
C1244 C1245 1.368 . S
C1244 H1272 0.929 . S
C1245 C1244 1.368 . S
C1245 C1246 1.386 . S
C1245 H1273 0.929 . S
C1246 C1245 1.386 . S
C1246 C1247 1.373 . S
C1247 C1246 1.373 . S
C1247 C1248 1.409 . S
C1247 H1274 0.931 . S
C1248 C1243 1.356 . S
C1248 C1247 1.409 . S
C1248 H1275 0.930 . S
C1249 O1262 1.270 . S
C1249 O1263 1.248 . S
C1250 O1264 1.267 . S
C1250 O1265 1.278 . S
C1251 Pr1241 2.880 . S
C1251 C1252 1.491 . S
C1251 O1266 1.254 . S
C1251 O1267 1.225 . S
C1252 C1251 1.491 . S
C1252 C1253 1.392 . S
C1252 C1257 1.356 . S
C1253 C1252 1.392 . S
C1253 C1254 1.368 . S
C1253 H1276 0.929 . S
C1254 C1253 1.368 . S
C1254 C1255 1.386 . S
C1254 H1277 0.929 . S
C1255 C1254 1.386 . S
C1255 C1256 1.373 . S
C1256 C1255 1.373 . S
C1256 C1257 1.409 . S
C1256 H1278 0.931 . S
C1257 C1252 1.356 . S
C1257 C1256 1.409 . S
C1257 H1279 0.930 . S
C1258 O1268 1.270 . S
C1258 O1269 1.248 . S
C1259 O1270 1.267 . S
C1259 O1271 1.278 . S
O1260 Pr1240 2.562 . S
O1260 C1242 1.254 . S
O1261 Pr1240 2.490 . S
O1261 C1242 1.225 . S
O1262 Pr1240 2.695 . S
O1262 Pr1241 2.436 . S
O1262 C1249 1.270 . S
O1263 Pr1240 2.512 . S
O1263 C1249 1.248 . S
O1264 Pr1241 2.438 . S
O1264 C1250 1.267 . S
O1265 Pr1240 2.437 . S
O1265 C1250 1.278 . S
O1266 Pr1241 2.562 . S
O1266 C1251 1.254 . S
O1267 Pr1241 2.490 . S
O1267 C1251 1.225 . S
O1268 Pr1240 2.436 . S
O1268 Pr1241 2.695 . S
O1268 C1258 1.270 . S
O1269 Pr1241 2.512 . S
O1269 C1258 1.248 . S
O1270 Pr1240 2.438 . S
O1270 C1259 1.267 . S
O1271 Pr1241 2.437 . S
O1271 C1259 1.278 . S
H1272 C1244 0.929 . S
H1273 C1245 0.929 . S
H1274 C1247 0.931 . S
H1275 C1248 0.930 . S
H1276 C1253 0.929 . S
H1277 C1254 0.929 . S
H1278 C1256 0.931 . S
H1279 C1257 0.930 . S
Pr1280 C1282 2.880 . S
Pr1280 O1300 2.562 . S
Pr1280 O1301 2.490 . S
Pr1280 O1302 2.695 . S
Pr1280 O1303 2.512 . S
Pr1280 O1305 2.437 . S
Pr1280 O1308 2.436 . S
Pr1280 O1310 2.438 . S
Pr1281 C1291 2.880 . S
Pr1281 O1302 2.436 . S
Pr1281 O1304 2.438 . S
Pr1281 O1306 2.562 . S
Pr1281 O1307 2.490 . S
Pr1281 O1308 2.695 . S
Pr1281 O1309 2.512 . S
Pr1281 O1311 2.437 . S
C1282 Pr1280 2.880 . S
C1282 C1283 1.491 . S
C1282 O1300 1.254 . S
C1282 O1301 1.225 . S
C1283 C1282 1.491 . S
C1283 C1284 1.392 . S
C1283 C1288 1.356 . S
C1284 C1283 1.392 . S
C1284 C1285 1.368 . S
C1284 H1312 0.929 . S
C1285 C1284 1.368 . S
C1285 C1286 1.386 . S
C1285 H1313 0.929 . S
C1286 C1285 1.386 . S
C1286 C1287 1.373 . S
C1287 C1286 1.373 . S
C1287 C1288 1.409 . S
C1287 H1314 0.931 . S
C1288 C1283 1.356 . S
C1288 C1287 1.409 . S
C1288 H1315 0.930 . S
C1289 O1302 1.270 . S
C1289 O1303 1.248 . S
C1290 O1304 1.267 . S
C1290 O1305 1.278 . S
C1291 Pr1281 2.880 . S
C1291 C1292 1.491 . S
C1291 O1306 1.254 . S
C1291 O1307 1.225 . S
C1292 C1291 1.491 . S
C1292 C1293 1.392 . S
C1292 C1297 1.356 . S
C1293 C1292 1.392 . S
C1293 C1294 1.368 . S
C1293 H1316 0.929 . S
C1294 C1293 1.368 . S
C1294 C1295 1.386 . S
C1294 H1317 0.929 . S
C1295 C1294 1.386 . S
C1295 C1296 1.373 . S
C1296 C1295 1.373 . S
C1296 C1297 1.409 . S
C1296 H1318 0.931 . S
C1297 C1292 1.356 . S
C1297 C1296 1.409 . S
C1297 H1319 0.930 . S
C1298 O1308 1.270 . S
C1298 O1309 1.248 . S
C1299 O1310 1.267 . S
C1299 O1311 1.278 . S
O1300 Pr1280 2.562 . S
O1300 C1282 1.254 . S
O1301 Pr1280 2.490 . S
O1301 C1282 1.225 . S
O1302 Pr1280 2.695 . S
O1302 Pr1281 2.436 . S
O1302 C1289 1.270 . S
O1303 Pr1280 2.512 . S
O1303 C1289 1.248 . S
O1304 Pr1281 2.438 . S
O1304 C1290 1.267 . S
O1305 Pr1280 2.437 . S
O1305 C1290 1.278 . S
O1306 Pr1281 2.562 . S
O1306 C1291 1.254 . S
O1307 Pr1281 2.490 . S
O1307 C1291 1.225 . S
O1308 Pr1280 2.436 . S
O1308 Pr1281 2.695 . S
O1308 C1298 1.270 . S
O1309 Pr1281 2.512 . S
O1309 C1298 1.248 . S
O1310 Pr1280 2.438 . S
O1310 C1299 1.267 . S
O1311 Pr1281 2.437 . S
O1311 C1299 1.278 . S
H1312 C1284 0.929 . S
H1313 C1285 0.929 . S
H1314 C1287 0.931 . S
H1315 C1288 0.930 . S
H1316 C1293 0.929 . S
H1317 C1294 0.929 . S
H1318 C1296 0.931 . S
H1319 C1297 0.930 . S
Pr1320 C1322 2.880 . S
Pr1320 O1340 2.562 . S
Pr1320 O1341 2.490 . S
Pr1320 O1342 2.695 . S
Pr1320 O1343 2.512 . S
Pr1320 O1345 2.437 . S
Pr1320 O1348 2.436 . S
Pr1320 O1350 2.438 . S
Pr1321 C1331 2.880 . S
Pr1321 O1342 2.436 . S
Pr1321 O1344 2.438 . S
Pr1321 O1346 2.562 . S
Pr1321 O1347 2.490 . S
Pr1321 O1348 2.695 . S
Pr1321 O1349 2.512 . S
Pr1321 O1351 2.437 . S
C1322 Pr1320 2.880 . S
C1322 C1323 1.491 . S
C1322 O1340 1.254 . S
C1322 O1341 1.225 . S
C1323 C1322 1.491 . S
C1323 C1324 1.392 . S
C1323 C1328 1.356 . S
C1324 C1323 1.392 . S
C1324 C1325 1.368 . S
C1324 H1352 0.929 . S
C1325 C1324 1.368 . S
C1325 C1326 1.386 . S
C1325 H1353 0.929 . S
C1326 C1325 1.386 . S
C1326 C1327 1.373 . S
C1327 C1326 1.373 . S
C1327 C1328 1.409 . S
C1327 H1354 0.931 . S
C1328 C1323 1.356 . S
C1328 C1327 1.409 . S
C1328 H1355 0.930 . S
C1329 O1342 1.270 . S
C1329 O1343 1.248 . S
C1330 O1344 1.267 . S
C1330 O1345 1.278 . S
C1331 Pr1321 2.880 . S
C1331 C1332 1.491 . S
C1331 O1346 1.254 . S
C1331 O1347 1.225 . S
C1332 C1331 1.491 . S
C1332 C1333 1.392 . S
C1332 C1337 1.356 . S
C1333 C1332 1.392 . S
C1333 C1334 1.368 . S
C1333 H1356 0.929 . S
C1334 C1333 1.368 . S
C1334 C1335 1.386 . S
C1334 H1357 0.929 . S
C1335 C1334 1.386 . S
C1335 C1336 1.373 1_455 S
C1336 C1335 1.373 1_655 S
C1336 C1337 1.409 1_655 S
C1336 H1358 0.931 . S
C1337 C1332 1.356 . S
C1337 C1336 1.409 1_455 S
C1337 H1359 0.930 1_455 S
C1338 O1348 1.270 . S
C1338 O1349 1.248 . S
C1339 O1350 1.267 . S
C1339 O1351 1.278 . S
O1340 Pr1320 2.562 . S
O1340 C1322 1.254 . S
O1341 Pr1320 2.490 . S
O1341 C1322 1.225 . S
O1342 Pr1320 2.695 . S
O1342 Pr1321 2.436 . S
O1342 C1329 1.270 . S
O1343 Pr1320 2.512 . S
O1343 C1329 1.248 . S
O1344 Pr1321 2.438 . S
O1344 C1330 1.267 . S
O1345 Pr1320 2.437 . S
O1345 C1330 1.278 . S
O1346 Pr1321 2.562 . S
O1346 C1331 1.254 . S
O1347 Pr1321 2.490 . S
O1347 C1331 1.225 . S
O1348 Pr1320 2.436 . S
O1348 Pr1321 2.695 . S
O1348 C1338 1.270 . S
O1349 Pr1321 2.512 . S
O1349 C1338 1.248 . S
O1350 Pr1320 2.438 . S
O1350 C1339 1.267 . S
O1351 Pr1321 2.437 . S
O1351 C1339 1.278 . S
H1352 C1324 0.929 . S
H1353 C1325 0.929 . S
H1354 C1327 0.931 . S
H1355 C1328 0.930 . S
H1356 C1333 0.929 . S
H1357 C1334 0.929 . S
H1358 C1336 0.931 . S
H1359 C1337 0.930 1_655 S
Pr1360 C1362 2.880 . S
Pr1360 O1380 2.562 . S
Pr1360 O1381 2.490 . S
Pr1360 O1382 2.695 . S
Pr1360 O1383 2.512 . S
Pr1360 O1385 2.437 . S
Pr1360 O1388 2.436 . S
Pr1360 O1390 2.438 . S
Pr1361 C1371 2.880 . S
Pr1361 O1382 2.436 . S
Pr1361 O1384 2.438 . S
Pr1361 O1386 2.562 . S
Pr1361 O1387 2.490 . S
Pr1361 O1388 2.695 . S
Pr1361 O1389 2.512 . S
Pr1361 O1391 2.437 . S
C1362 Pr1360 2.880 . S
C1362 C1363 1.491 . S
C1362 O1380 1.254 . S
C1362 O1381 1.225 . S
C1363 C1362 1.491 . S
C1363 C1364 1.392 . S
C1363 C1368 1.356 . S
C1364 C1363 1.392 . S
C1364 C1365 1.368 . S
C1364 H1392 0.929 . S
C1365 C1364 1.368 . S
C1365 C1366 1.386 . S
C1365 H1393 0.929 . S
C1366 C1365 1.386 . S
C1366 C1367 1.373 . S
C1367 C1366 1.373 . S
C1367 C1368 1.409 . S
C1367 H1394 0.931 . S
C1368 C1363 1.356 . S
C1368 C1367 1.409 . S
C1368 H1395 0.930 . S
C1369 O1382 1.270 . S
C1369 O1383 1.248 . S
C1370 O1384 1.267 . S
C1370 O1385 1.278 . S
C1371 Pr1361 2.880 . S
C1371 C1372 1.491 . S
C1371 O1386 1.254 . S
C1371 O1387 1.225 . S
C1372 C1371 1.491 . S
C1372 C1373 1.392 . S
C1372 C1377 1.356 . S
C1373 C1372 1.392 . S
C1373 C1374 1.368 . S
C1373 H1396 0.929 . S
C1374 C1373 1.368 . S
C1374 C1375 1.386 . S
C1374 H1397 0.929 . S
C1375 C1374 1.386 . S
C1375 C1376 1.373 . S
C1376 C1375 1.373 . S
C1376 C1377 1.409 . S
C1376 H1398 0.931 . S
C1377 C1372 1.356 . S
C1377 C1376 1.409 . S
C1377 H1399 0.930 . S
C1378 O1388 1.270 . S
C1378 O1389 1.248 . S
C1379 O1390 1.267 . S
C1379 O1391 1.278 . S
O1380 Pr1360 2.562 . S
O1380 C1362 1.254 . S
O1381 Pr1360 2.490 . S
O1381 C1362 1.225 . S
O1382 Pr1360 2.695 . S
O1382 Pr1361 2.436 . S
O1382 C1369 1.270 . S
O1383 Pr1360 2.512 . S
O1383 C1369 1.248 . S
O1384 Pr1361 2.438 . S
O1384 C1370 1.267 . S
O1385 Pr1360 2.437 . S
O1385 C1370 1.278 . S
O1386 Pr1361 2.562 . S
O1386 C1371 1.254 . S
O1387 Pr1361 2.490 . S
O1387 C1371 1.225 . S
O1388 Pr1360 2.436 . S
O1388 Pr1361 2.695 . S
O1388 C1378 1.270 . S
O1389 Pr1361 2.512 . S
O1389 C1378 1.248 . S
O1390 Pr1360 2.438 . S
O1390 C1379 1.267 . S
O1391 Pr1361 2.437 . S
O1391 C1379 1.278 . S
H1392 C1364 0.929 . S
H1393 C1365 0.929 . S
H1394 C1367 0.931 . S
H1395 C1368 0.930 . S
H1396 C1373 0.929 . S
H1397 C1374 0.929 . S
H1398 C1376 0.931 . S
H1399 C1377 0.930 . S
Pr1400 C1402 2.880 . S
Pr1400 O1420 2.562 . S
Pr1400 O1421 2.490 . S
Pr1400 O1422 2.695 . S
Pr1400 O1423 2.512 . S
Pr1400 O1425 2.437 . S
Pr1400 O1428 2.436 . S
Pr1400 O1430 2.438 . S
Pr1401 C1411 2.880 . S
Pr1401 O1422 2.436 . S
Pr1401 O1424 2.438 . S
Pr1401 O1426 2.562 . S
Pr1401 O1427 2.490 . S
Pr1401 O1428 2.695 . S
Pr1401 O1429 2.512 . S
Pr1401 O1431 2.437 . S
C1402 Pr1400 2.880 . S
C1402 C1403 1.491 . S
C1402 O1420 1.254 . S
C1402 O1421 1.225 . S
C1403 C1402 1.491 . S
C1403 C1404 1.392 . S
C1403 C1408 1.356 . S
C1404 C1403 1.392 . S
C1404 C1405 1.368 . S
C1404 H1432 0.929 . S
C1405 C1404 1.368 . S
C1405 C1406 1.386 . S
C1405 H1433 0.929 . S
C1406 C1405 1.386 . S
C1406 C1407 1.373 . S
C1407 C1406 1.373 . S
C1407 C1408 1.409 . S
C1407 H1434 0.931 . S
C1408 C1403 1.356 . S
C1408 C1407 1.409 . S
C1408 H1435 0.930 . S
C1409 O1422 1.270 . S
C1409 O1423 1.248 . S
C1410 O1424 1.267 . S
C1410 O1425 1.278 . S
C1411 Pr1401 2.880 . S
C1411 C1412 1.491 . S
C1411 O1426 1.254 . S
C1411 O1427 1.225 . S
C1412 C1411 1.491 . S
C1412 C1413 1.392 . S
C1412 C1417 1.356 . S
C1413 C1412 1.392 . S
C1413 C1414 1.368 . S
C1413 H1436 0.929 . S
C1414 C1413 1.368 . S
C1414 C1415 1.386 . S
C1414 H1437 0.929 . S
C1415 C1414 1.386 . S
C1415 C1416 1.373 1_565 S
C1416 C1415 1.373 1_545 S
C1416 C1417 1.409 1_545 S
C1416 H1438 0.931 . S
C1417 C1412 1.356 . S
C1417 C1416 1.409 1_565 S
C1417 H1439 0.930 1_565 S
C1418 O1428 1.270 . S
C1418 O1429 1.248 . S
C1419 O1430 1.267 . S
C1419 O1431 1.278 . S
O1420 Pr1400 2.562 . S
O1420 C1402 1.254 . S
O1421 Pr1400 2.490 . S
O1421 C1402 1.225 . S
O1422 Pr1400 2.695 . S
O1422 Pr1401 2.436 . S
O1422 C1409 1.270 . S
O1423 Pr1400 2.512 . S
O1423 C1409 1.248 . S
O1424 Pr1401 2.438 . S
O1424 C1410 1.267 . S
O1425 Pr1400 2.437 . S
O1425 C1410 1.278 . S
O1426 Pr1401 2.562 . S
O1426 C1411 1.254 . S
O1427 Pr1401 2.490 . S
O1427 C1411 1.225 . S
O1428 Pr1400 2.436 . S
O1428 Pr1401 2.695 . S
O1428 C1418 1.270 . S
O1429 Pr1401 2.512 . S
O1429 C1418 1.248 . S
O1430 Pr1400 2.438 . S
O1430 C1419 1.267 . S
O1431 Pr1401 2.437 . S
O1431 C1419 1.278 . S
H1432 C1404 0.929 . S
H1433 C1405 0.929 . S
H1434 C1407 0.931 . S
H1435 C1408 0.930 . S
H1436 C1413 0.929 . S
H1437 C1414 0.929 . S
H1438 C1416 0.931 . S
H1439 C1417 0.930 1_545 S
C1440 C1441 1.391 . S
C1440 C1442 1.394 . S
C1440 H1456 0.931 . S
C1441 C1440 1.391 . S
C1441 C1445 1.376 . S
C1442 C1440 1.394 . S
C1442 C1443 1.369 . S
C1442 C1446 1.531 . S
C1443 C1442 1.369 . S
C1443 C1444 1.410 . S
C1443 C1451 1.503 . S
C1444 C1443 1.410 . S
C1444 C1445 1.392 . S
C1444 C1447 1.511 . S
C1445 C1441 1.376 . S
C1445 C1444 1.392 . S
C1445 H1457 0.929 . S
C1446 C1442 1.531 . S
C1446 H1458 0.960 . S
C1446 H1459 0.962 . S
C1446 H1460 0.960 . S
C1447 C1444 1.511 . S
C1447 H1461 0.961 . S
C1447 H1462 0.961 . S
C1447 H1463 0.961 . S
C1448 C1449 1.371 1_545 S
C1448 C1450 1.360 . S
C1448 H1464 0.932 1_545 S
C1449 C1448 1.371 1_565 S
C1449 C1453 1.408 . S
C1450 C1448 1.360 . S
C1450 C1451 1.370 . S
C1450 C1454 1.524 . S
C1451 C1443 1.503 . S
C1451 C1450 1.370 . S
C1451 C1452 1.403 . S
C1452 C1451 1.403 . S
C1452 C1453 1.404 1_545 S
C1452 C1455 1.539 . S
C1453 C1449 1.408 . S
C1453 C1452 1.404 1_565 S
C1453 H1465 0.930 . S
C1454 C1450 1.524 . S
C1454 H1466 0.956 . S
C1454 H1467 0.961 . S
C1454 H1468 0.961 . S
C1455 C1452 1.539 . S
C1455 H1469 0.958 . S
C1455 H1470 0.961 . S
C1455 H1471 0.960 . S
H1456 C1440 0.931 . S
H1457 C1445 0.929 . S
H1458 C1446 0.960 . S
H1459 C1446 0.962 . S
H1460 C1446 0.960 . S
H1461 C1447 0.961 . S
H1462 C1447 0.961 . S
H1463 C1447 0.961 . S
H1464 C1448 0.932 1_565 S
H1465 C1453 0.930 . S
H1466 C1454 0.956 . S
H1467 C1454 0.961 . S
H1468 C1454 0.961 . S
H1469 C1455 0.958 . S
H1470 C1455 0.961 . S
H1471 C1455 0.960 . S
C1472 C1473 1.391 . S
C1472 C1474 1.394 1_455 S
C1472 H1488 0.931 . S
C1473 C1472 1.391 . S
C1473 C1477 1.376 1_455 S
C1474 C1472 1.394 1_655 S
C1474 C1475 1.369 . S
C1474 C1478 1.531 . S
C1475 C1474 1.369 . S
C1475 C1476 1.410 . S
C1475 C1483 1.503 . S
C1476 C1475 1.410 . S
C1476 C1477 1.392 . S
C1476 C1479 1.511 . S
C1477 C1473 1.376 1_655 S
C1477 C1476 1.392 . S
C1477 H1489 0.935 1_655 S
C1478 C1474 1.531 . S
C1478 H1490 0.960 . S
C1478 H1491 0.962 . S
C1478 H1492 0.960 . S
C1479 C1476 1.511 . S
C1479 H1493 0.961 . S
C1479 H1494 0.961 . S
C1479 H1495 0.961 . S
C1480 C1481 1.370 . S
C1480 C1482 1.363 . S
C1480 H1496 0.931 . S
C1481 C1480 1.370 . S
C1481 C1485 1.408 . S
C1482 C1480 1.363 . S
C1482 C1483 1.370 . S
C1482 C1486 1.524 . S
C1483 C1475 1.503 . S
C1483 C1482 1.370 . S
C1483 C1484 1.403 . S
C1484 C1483 1.403 . S
C1484 C1485 1.404 . S
C1484 C1487 1.539 . S
C1485 C1481 1.408 . S
C1485 C1484 1.404 . S
C1485 H1497 0.930 . S
C1486 C1482 1.524 . S
C1486 H1498 0.956 . S
C1486 H1499 0.961 . S
C1486 H1500 0.961 . S
C1487 C1484 1.539 . S
C1487 H1501 0.958 . S
C1487 H1502 0.961 . S
C1487 H1503 0.960 . S
H1488 C1472 0.931 . S
H1489 C1477 0.935 1_455 S
H1490 C1478 0.960 . S
H1491 C1478 0.962 . S
H1492 C1478 0.960 . S
H1493 C1479 0.961 . S
H1494 C1479 0.961 . S
H1495 C1479 0.961 . S
H1496 C1480 0.931 . S
H1497 C1485 0.930 . S
H1498 C1486 0.956 . S
H1499 C1486 0.961 . S
H1500 C1486 0.961 . S
H1501 C1487 0.958 . S
H1502 C1487 0.961 . S
H1503 C1487 0.960 . S
C1504 C1505 1.391 . S
C1504 C1506 1.394 . S
C1504 H1520 0.931 . S
C1505 C1504 1.391 . S
C1505 C1509 1.376 . S
C1506 C1504 1.394 . S
C1506 C1507 1.369 . S
C1506 C1510 1.531 . S
C1507 C1506 1.369 . S
C1507 C1508 1.410 . S
C1507 C1515 1.503 . S
C1508 C1507 1.410 . S
C1508 C1509 1.392 . S
C1508 C1511 1.511 . S
C1509 C1505 1.376 . S
C1509 C1508 1.392 . S
C1509 H1521 0.929 1_655 S
C1510 C1506 1.531 . S
C1510 H1522 0.960 . S
C1510 H1523 0.962 . S
C1510 H1524 0.960 . S
C1511 C1508 1.511 . S
C1511 H1525 0.961 . S
C1511 H1526 0.961 . S
C1511 H1527 0.961 . S
C1512 C1513 1.370 . S
C1512 C1514 1.363 . S
C1512 H1528 0.931 . S
C1513 C1512 1.370 . S
C1513 C1517 1.408 . S
C1514 C1512 1.363 . S
C1514 C1515 1.370 . S
C1514 C1518 1.524 . S
C1515 C1507 1.503 . S
C1515 C1514 1.370 . S
C1515 C1516 1.403 . S
C1516 C1515 1.403 . S
C1516 C1517 1.404 . S
C1516 C1519 1.539 . S
C1517 C1513 1.408 . S
C1517 C1516 1.404 . S
C1517 H1529 0.930 . S
C1518 C1514 1.524 . S
C1518 H1530 0.956 . S
C1518 H1531 0.961 . S
C1518 H1532 0.961 . S
C1519 C1516 1.539 . S
C1519 H1533 0.958 . S
C1519 H1534 0.961 . S
C1519 H1535 0.960 . S
H1520 C1504 0.931 . S
H1521 C1509 0.929 1_455 S
H1522 C1510 0.960 . S
H1523 C1510 0.962 . S
H1524 C1510 0.960 . S
H1525 C1511 0.961 . S
H1526 C1511 0.961 . S
H1527 C1511 0.961 . S
H1528 C1512 0.931 . S
H1529 C1517 0.930 . S
H1530 C1518 0.956 . S
H1531 C1518 0.961 . S
H1532 C1518 0.961 . S
H1533 C1519 0.958 . S
H1534 C1519 0.961 . S
H1535 C1519 0.960 . S
C1536 C1537 1.391 . S
C1536 C1538 1.394 . S
C1536 H1552 0.931 . S
C1537 C1536 1.391 . S
C1537 C1541 1.376 . S
C1538 C1536 1.394 . S
C1538 C1539 1.369 . S
C1538 C1542 1.531 . S
C1539 C1538 1.369 . S
C1539 C1540 1.410 . S
C1539 C1547 1.503 . S
C1540 C1539 1.410 . S
C1540 C1541 1.392 . S
C1540 C1543 1.511 . S
C1541 C1537 1.376 . S
C1541 C1540 1.392 . S
C1541 H1553 0.929 . S
C1542 C1538 1.531 . S
C1542 H1554 0.960 . S
C1542 H1555 0.962 . S
C1542 H1556 0.960 . S
C1543 C1540 1.511 . S
C1543 H1557 0.961 . S
C1543 H1558 0.961 . S
C1543 H1559 0.961 . S
C1544 C1545 1.370 . S
C1544 C1546 1.363 1_655 S
C1544 H1560 0.931 . S
C1545 C1544 1.370 . S
C1545 C1549 1.408 . S
C1546 C1544 1.363 1_455 S
C1546 C1547 1.370 . S
C1546 C1550 1.524 . S
C1547 C1539 1.503 . S
C1547 C1546 1.370 . S
C1547 C1548 1.403 . S
C1548 C1547 1.403 . S
C1548 C1549 1.404 1_455 S
C1548 C1551 1.539 . S
C1549 C1545 1.408 . S
C1549 C1548 1.404 1_655 S
C1549 H1561 0.930 . S
C1550 C1546 1.524 . S
C1550 H1562 0.956 . S
C1550 H1563 0.961 . S
C1550 H1564 0.961 . S
C1551 C1548 1.539 . S
C1551 H1565 0.958 . S
C1551 H1566 0.961 . S
C1551 H1567 0.960 . S
H1552 C1536 0.931 . S
H1553 C1541 0.929 . S
H1554 C1542 0.960 . S
H1555 C1542 0.962 . S
H1556 C1542 0.960 . S
H1557 C1543 0.961 . S
H1558 C1543 0.961 . S
H1559 C1543 0.961 . S
H1560 C1544 0.931 . S
H1561 C1549 0.930 . S
H1562 C1550 0.956 . S
H1563 C1550 0.961 . S
H1564 C1550 0.961 . S
H1565 C1551 0.958 . S
H1566 C1551 0.961 . S
H1567 C1551 0.960 . S
C1568 C1569 1.391 . S
C1568 C1570 1.394 . S
C1568 H1584 0.931 . S
C1569 C1568 1.391 . S
C1569 C1573 1.376 . S
C1570 C1568 1.394 . S
C1570 C1571 1.369 . S
C1570 C1574 1.531 . S
C1571 C1570 1.369 . S
C1571 C1572 1.410 . S
C1571 C1579 1.503 . S
C1572 C1571 1.410 . S
C1572 C1573 1.392 . S
C1572 C1575 1.511 . S
C1573 C1569 1.376 . S
C1573 C1572 1.392 . S
C1573 H1585 0.929 . S
C1574 C1570 1.531 . S
C1574 H1586 0.960 . S
C1574 H1587 0.962 . S
C1574 H1588 0.960 . S
C1575 C1572 1.511 . S
C1575 H1589 0.961 . S
C1575 H1590 0.961 . S
C1575 H1591 0.961 . S
C1576 C1577 1.370 . S
C1576 C1578 1.363 . S
C1576 H1592 0.931 1_565 S
C1577 C1576 1.370 . S
C1577 C1581 1.408 . S
C1578 C1576 1.363 . S
C1578 C1579 1.370 . S
C1578 C1582 1.524 . S
C1579 C1571 1.503 . S
C1579 C1578 1.370 . S
C1579 C1580 1.403 . S
C1580 C1579 1.403 . S
C1580 C1581 1.404 . S
C1580 C1583 1.539 . S
C1581 C1577 1.408 . S
C1581 C1580 1.404 . S
C1581 H1593 0.930 . S
C1582 C1578 1.524 . S
C1582 H1594 0.956 . S
C1582 H1595 0.961 . S
C1582 H1596 0.961 . S
C1583 C1580 1.539 . S
C1583 H1597 0.958 . S
C1583 H1598 0.961 . S
C1583 H1599 0.960 . S
H1584 C1568 0.931 . S
H1585 C1573 0.929 . S
H1586 C1574 0.960 . S
H1587 C1574 0.962 . S
H1588 C1574 0.960 . S
H1589 C1575 0.961 . S
H1590 C1575 0.961 . S
H1591 C1575 0.961 . S
H1592 C1576 0.931 1_545 S
H1593 C1581 0.930 . S
H1594 C1582 0.956 . S
H1595 C1582 0.961 . S
H1596 C1582 0.961 . S
H1597 C1583 0.958 . S
H1598 C1583 0.961 . S
H1599 C1583 0.960 . S
C1600 C1601 1.391 . S
C1600 C1602 1.394 . S
C1600 H1616 0.931 . S
C1601 C1600 1.391 . S
C1601 C1605 1.382 . S
C1602 C1600 1.394 . S
C1602 C1603 1.369 . S
C1602 C1606 1.531 . S
C1603 C1602 1.369 . S
C1603 C1604 1.410 . S
C1603 C1611 1.503 . S
C1604 C1603 1.410 . S
C1604 C1605 1.396 . S
C1604 C1607 1.511 . S
C1605 C1601 1.382 . S
C1605 C1604 1.396 . S
C1605 H1617 0.919 1_455 S
C1606 C1602 1.531 . S
C1606 H1618 0.960 . S
C1606 H1619 0.962 . S
C1606 H1620 0.960 . S
C1607 C1604 1.511 . S
C1607 H1621 0.939 1_455 S
C1607 H1622 0.961 . S
C1607 H1623 0.961 . S
C1608 C1609 1.370 . S
C1608 C1610 1.363 1_545 S
C1608 H1624 0.931 . S
C1609 C1608 1.370 . S
C1609 C1613 1.408 . S
C1610 C1608 1.363 1_565 S
C1610 C1611 1.370 . S
C1610 C1614 1.524 . S
C1611 C1603 1.503 . S
C1611 C1610 1.370 . S
C1611 C1612 1.403 . S
C1612 C1611 1.403 . S
C1612 C1613 1.404 1_565 S
C1612 C1615 1.539 . S
C1613 C1609 1.408 . S
C1613 C1612 1.404 1_545 S
C1613 H1625 0.930 . S
C1614 C1610 1.524 . S
C1614 H1626 0.956 . S
C1614 H1627 0.961 . S
C1614 H1628 0.961 . S
C1615 C1612 1.539 . S
C1615 H1629 0.958 . S
C1615 H1630 0.961 . S
C1615 H1631 0.960 . S
H1616 C1600 0.931 . S
H1617 C1605 0.919 1_655 S
H1618 C1606 0.960 . S
H1619 C1606 0.962 . S
H1620 C1606 0.960 . S
H1621 C1607 0.939 1_655 S
H1622 C1607 0.961 . S
H1623 C1607 0.961 . S
H1624 C1608 0.931 . S
H1625 C1613 0.930 . S
H1626 C1614 0.956 . S
H1627 C1614 0.961 . S
H1628 C1614 0.961 . S
H1629 C1615 0.958 . S
H1630 C1615 0.961 . S
H1631 C1615 0.960 . S
C1632 C1633 1.391 . S
C1632 C1634 1.394 . S
C1632 H1648 0.931 . S
C1633 C1632 1.391 . S
C1633 C1637 1.376 . S
C1634 C1632 1.394 . S
C1634 C1635 1.369 . S
C1634 C1638 1.531 . S
C1635 C1634 1.369 . S
C1635 C1636 1.410 . S
C1635 C1643 1.503 . S
C1636 C1635 1.410 . S
C1636 C1637 1.392 . S
C1636 C1639 1.511 . S
C1637 C1633 1.376 . S
C1637 C1636 1.392 . S
C1637 H1649 0.929 . S
C1638 C1634 1.531 . S
C1638 H1650 0.960 . S
C1638 H1651 0.962 . S
C1638 H1652 0.960 . S
C1639 C1636 1.511 . S
C1639 H1653 0.961 . S
C1639 H1654 0.961 . S
C1639 H1655 0.961 . S
C1640 C1641 1.370 . S
C1640 C1642 1.363 1_545 S
C1640 H1656 0.931 . S
C1641 C1640 1.370 . S
C1641 C1645 1.408 . S
C1642 C1640 1.363 1_565 S
C1642 C1643 1.370 . S
C1642 C1646 1.524 . S
C1643 C1635 1.503 . S
C1643 C1642 1.370 . S
C1643 C1644 1.403 . S
C1644 C1643 1.403 . S
C1644 C1645 1.404 1_565 S
C1644 C1647 1.539 . S
C1645 C1641 1.408 . S
C1645 C1644 1.404 1_545 S
C1645 H1657 0.930 . S
C1646 C1642 1.524 . S
C1646 H1658 0.956 . S
C1646 H1659 0.961 . S
C1646 H1660 0.961 . S
C1647 C1644 1.539 . S
C1647 H1661 0.958 . S
C1647 H1662 0.961 . S
C1647 H1663 0.960 . S
H1648 C1632 0.931 . S
H1649 C1637 0.929 . S
H1650 C1638 0.960 . S
H1651 C1638 0.962 . S
H1652 C1638 0.960 . S
H1653 C1639 0.961 . S
H1654 C1639 0.961 . S
H1655 C1639 0.961 . S
H1656 C1640 0.931 . S
H1657 C1645 0.930 . S
H1658 C1646 0.956 . S
H1659 C1646 0.961 . S
H1660 C1646 0.961 . S
H1661 C1647 0.958 . S
H1662 C1647 0.961 . S
H1663 C1647 0.960 . S
C1664 C1665 1.373 1_545 S
C1664 C1666 1.383 1_545 S
C1664 H1680 0.959 . S
C1665 C1664 1.373 1_565 S
C1665 C1669 1.376 . S
C1666 C1664 1.383 1_565 S
C1666 C1667 1.369 . S
C1666 C1670 1.531 . S
C1667 C1666 1.369 . S
C1667 C1668 1.410 . S
C1667 C1675 1.503 . S
C1668 C1667 1.410 . S
C1668 C1669 1.392 . S
C1668 C1671 1.511 . S
C1669 C1665 1.376 . S
C1669 C1668 1.392 . S
C1669 H1681 0.929 . S
C1670 C1666 1.531 . S
C1670 H1682 0.960 . S
C1670 H1683 0.962 . S
C1670 H1684 0.960 1_565 S
C1671 C1668 1.511 . S
C1671 H1685 0.961 . S
C1671 H1686 0.961 . S
C1671 H1687 0.961 . S
C1672 C1673 1.370 . S
C1672 C1674 1.363 1_655 S
C1672 H1688 0.931 . S
C1673 C1672 1.370 . S
C1673 C1677 1.408 . S
C1674 C1672 1.363 1_455 S
C1674 C1675 1.370 . S
C1674 C1678 1.524 . S
C1675 C1667 1.503 . S
C1675 C1674 1.370 . S
C1675 C1676 1.403 . S
C1676 C1675 1.403 . S
C1676 C1677 1.404 1_455 S
C1676 C1679 1.539 . S
C1677 C1673 1.408 . S
C1677 C1676 1.404 1_655 S
C1677 H1689 0.930 . S
C1678 C1674 1.524 . S
C1678 H1690 0.956 . S
C1678 H1691 0.961 . S
C1678 H1692 0.961 . S
C1679 C1676 1.539 . S
C1679 H1693 0.958 . S
C1679 H1694 0.961 . S
C1679 H1695 0.960 . S
H1680 C1664 0.959 . S
H1681 C1669 0.929 . S
H1682 C1670 0.960 . S
H1683 C1670 0.962 . S
H1684 C1670 0.960 1_545 S
H1685 C1671 0.961 . S
H1686 C1671 0.961 . S
H1687 C1671 0.961 . S
H1688 C1672 0.931 . S
H1689 C1677 0.930 . S
H1690 C1678 0.956 . S
H1691 C1678 0.961 . S
H1692 C1678 0.961 . S
H1693 C1679 0.958 . S
H1694 C1679 0.961 . S
H1695 C1679 0.960 . S
C1696 C1697 1.391 . S
C1696 C1698 1.394 . S
C1696 H1712 0.931 . S
C1697 C1696 1.391 . S
C1697 C1701 1.376 . S
C1698 C1696 1.394 . S
C1698 C1699 1.369 . S
C1698 C1702 1.531 . S
C1699 C1698 1.369 . S
C1699 C1700 1.410 . S
C1699 C1707 1.503 . S
C1700 C1699 1.410 . S
C1700 C1701 1.392 . S
C1700 C1703 1.511 . S
C1701 C1697 1.376 . S
C1701 C1700 1.392 . S
C1701 H1713 0.929 1_455 S
C1702 C1698 1.531 . S
C1702 H1714 0.960 . S
C1702 H1715 0.962 . S
C1702 H1716 0.960 . S
C1703 C1700 1.511 . S
C1703 H1717 0.961 . S
C1703 H1718 0.961 . S
C1703 H1719 0.961 . S
C1704 C1705 1.370 . S
C1704 C1706 1.363 . S
C1704 H1720 0.931 . S
C1705 C1704 1.370 . S
C1705 C1709 1.408 . S
C1706 C1704 1.363 . S
C1706 C1707 1.370 . S
C1706 C1710 1.524 . S
C1707 C1699 1.503 . S
C1707 C1706 1.370 . S
C1707 C1708 1.403 . S
C1708 C1707 1.403 . S
C1708 C1709 1.404 . S
C1708 C1711 1.539 . S
C1709 C1705 1.408 . S
C1709 C1708 1.404 . S
C1709 H1721 0.930 . S
C1710 C1706 1.524 . S
C1710 H1722 0.956 . S
C1710 H1723 0.961 . S
C1710 H1724 0.961 . S
C1711 C1708 1.539 . S
C1711 H1725 0.958 . S
C1711 H1726 0.961 . S
C1711 H1727 0.960 . S
H1712 C1696 0.931 . S
H1713 C1701 0.929 1_655 S
H1714 C1702 0.960 . S
H1715 C1702 0.962 . S
H1716 C1702 0.960 . S
H1717 C1703 0.961 . S
H1718 C1703 0.961 . S
H1719 C1703 0.961 . S
H1720 C1704 0.931 . S
H1721 C1709 0.930 . S
H1722 C1710 0.956 . S
H1723 C1710 0.961 . S
H1724 C1710 0.961 . S
H1725 C1711 0.958 . S
H1726 C1711 0.961 . S
H1727 C1711 0.960 . S
C1728 C1729 1.391 . S
C1728 C1730 1.394 . S
C1728 H1744 0.931 . S
C1729 C1728 1.391 . S
C1729 C1733 1.376 . S
C1730 C1728 1.394 . S
C1730 C1731 1.369 . S
C1730 C1734 1.531 . S
C1731 C1730 1.369 . S
C1731 C1732 1.410 . S
C1731 C1739 1.503 . S
C1732 C1731 1.410 . S
C1732 C1733 1.392 . S
C1732 C1735 1.511 . S
C1733 C1729 1.376 . S
C1733 C1732 1.392 . S
C1733 H1745 0.929 . S
C1734 C1730 1.531 . S
C1734 H1746 0.960 . S
C1734 H1747 0.962 . S
C1734 H1748 0.960 . S
C1735 C1732 1.511 . S
C1735 H1749 0.961 . S
C1735 H1750 0.961 . S
C1735 H1751 0.961 . S
C1736 C1737 1.370 . S
C1736 C1738 1.363 1_455 S
C1736 H1752 0.931 . S
C1737 C1736 1.370 . S
C1737 C1741 1.408 . S
C1738 C1736 1.363 1_655 S
C1738 C1739 1.370 . S
C1738 C1742 1.524 . S
C1739 C1731 1.503 . S
C1739 C1738 1.370 . S
C1739 C1740 1.403 . S
C1740 C1739 1.403 . S
C1740 C1741 1.404 1_655 S
C1740 C1743 1.539 . S
C1741 C1737 1.408 . S
C1741 C1740 1.404 1_455 S
C1741 H1753 0.930 . S
C1742 C1738 1.524 . S
C1742 H1754 0.956 . S
C1742 H1755 0.961 . S
C1742 H1756 0.961 . S
C1743 C1740 1.539 . S
C1743 H1757 0.958 . S
C1743 H1758 0.961 . S
C1743 H1759 0.960 . S
H1744 C1728 0.931 . S
H1745 C1733 0.929 . S
H1746 C1734 0.960 . S
H1747 C1734 0.962 . S
H1748 C1734 0.960 . S
H1749 C1735 0.961 . S
H1750 C1735 0.961 . S
H1751 C1735 0.961 . S
H1752 C1736 0.931 . S
H1753 C1741 0.930 . S
H1754 C1742 0.956 . S
H1755 C1742 0.961 . S
H1756 C1742 0.961 . S
H1757 C1743 0.958 . S
H1758 C1743 0.961 . S
H1759 C1743 0.960 . S
C1760 C1761 1.391 . S
C1760 C1762 1.394 . S
C1760 H1776 0.931 . S
C1761 C1760 1.391 . S
C1761 C1765 1.376 . S
C1762 C1760 1.394 . S
C1762 C1763 1.369 . S
C1762 C1766 1.531 . S
C1763 C1762 1.369 . S
C1763 C1764 1.410 . S
C1763 C1771 1.503 . S
C1764 C1763 1.410 . S
C1764 C1765 1.392 . S
C1764 C1767 1.511 . S
C1765 C1761 1.376 . S
C1765 C1764 1.392 . S
C1765 H1777 0.929 . S
C1766 C1762 1.531 . S
C1766 H1778 0.960 . S
C1766 H1779 0.962 . S
C1766 H1780 0.960 . S
C1767 C1764 1.511 . S
C1767 H1781 0.961 . S
C1767 H1782 0.961 . S
C1767 H1783 0.961 . S
C1768 C1769 1.370 . S
C1768 C1770 1.363 . S
C1768 H1784 0.931 1_545 S
C1769 C1768 1.370 . S
C1769 C1773 1.408 . S
C1770 C1768 1.363 . S
C1770 C1771 1.370 . S
C1770 C1774 1.524 . S
C1771 C1763 1.503 . S
C1771 C1770 1.370 . S
C1771 C1772 1.403 . S
C1772 C1771 1.403 . S
C1772 C1773 1.404 . S
C1772 C1775 1.539 . S
C1773 C1769 1.408 . S
C1773 C1772 1.404 . S
C1773 H1785 0.930 . S
C1774 C1770 1.524 . S
C1774 H1786 0.956 . S
C1774 H1787 0.961 . S
C1774 H1788 0.961 . S
C1775 C1772 1.539 . S
C1775 H1789 0.958 . S
C1775 H1790 0.961 . S
C1775 H1791 0.960 . S
H1776 C1760 0.931 . S
H1777 C1765 0.929 . S
H1778 C1766 0.960 . S
H1779 C1766 0.962 . S
H1780 C1766 0.960 . S
H1781 C1767 0.961 . S
H1782 C1767 0.961 . S
H1783 C1767 0.961 . S
H1784 C1768 0.931 1_565 S
H1785 C1773 0.930 . S
H1786 C1774 0.956 . S
H1787 C1774 0.961 . S
H1788 C1774 0.961 . S
H1789 C1775 0.958 . S
H1790 C1775 0.961 . S
H1791 C1775 0.960 . S
C1792 C1793 1.391 1_545 S
C1792 C1794 1.394 . S
C1792 H1808 0.941 1_545 S
C1793 C1792 1.391 1_565 S
C1793 C1797 1.376 . S
C1794 C1792 1.394 . S
C1794 C1795 1.369 . S
C1794 C1798 1.531 . S
C1795 C1794 1.369 . S
C1795 C1796 1.410 . S
C1795 C1803 1.503 . S
C1796 C1795 1.410 . S
C1796 C1797 1.392 1_545 S
C1796 C1799 1.511 . S
C1797 C1793 1.376 . S
C1797 C1796 1.392 1_565 S
C1797 H1809 0.929 . S
C1798 C1794 1.531 . S
C1798 H1810 0.960 . S
C1798 H1811 0.962 . S
C1798 H1812 0.960 . S
C1799 C1796 1.511 . S
C1799 H1813 0.961 . S
C1799 H1814 0.961 . S
C1799 H1815 0.961 . S
C1800 C1801 1.370 . S
C1800 C1802 1.363 . S
C1800 H1816 0.931 . S
C1801 C1800 1.370 . S
C1801 C1805 1.408 . S
C1802 C1800 1.363 . S
C1802 C1803 1.370 . S
C1802 C1806 1.524 . S
C1803 C1795 1.503 . S
C1803 C1802 1.370 . S
C1803 C1804 1.403 . S
C1804 C1803 1.403 . S
C1804 C1805 1.404 . S
C1804 C1807 1.539 . S
C1805 C1801 1.408 . S
C1805 C1804 1.404 . S
C1805 H1817 0.930 1_655 S
C1806 C1802 1.524 . S
C1806 H1818 0.956 . S
C1806 H1819 0.961 . S
C1806 H1820 0.961 . S
C1807 C1804 1.539 . S
C1807 H1821 0.958 . S
C1807 H1822 0.961 . S
C1807 H1823 0.960 . S
H1808 C1792 0.941 1_565 S
H1809 C1797 0.929 . S
H1810 C1798 0.960 . S
H1811 C1798 0.962 . S
H1812 C1798 0.960 . S
H1813 C1799 0.961 . S
H1814 C1799 0.961 . S
H1815 C1799 0.961 . S
H1816 C1800 0.931 . S
H1817 C1805 0.930 1_455 S
H1818 C1806 0.956 . S
H1819 C1806 0.961 . S
H1820 C1806 0.961 . S
H1821 C1807 0.958 . S
H1822 C1807 0.961 . S
H1823 C1807 0.960 . S
C1824 C1825 1.391 . S
C1824 C1826 1.394 . S
C1824 H1840 0.931 . S
C1825 C1824 1.391 . S
C1825 C1829 1.376 . S
C1826 C1824 1.394 . S
C1826 C1827 1.369 . S
C1826 C1830 1.531 . S
C1827 C1826 1.369 . S
C1827 C1828 1.410 . S
C1827 C1835 1.503 . S
C1828 C1827 1.410 . S
C1828 C1829 1.392 . S
C1828 C1831 1.511 . S
C1829 C1825 1.376 . S
C1829 C1828 1.392 . S
C1829 H1841 0.929 . S
C1830 C1826 1.531 . S
C1830 H1842 0.960 . S
C1830 H1843 0.962 . S
C1830 H1844 0.960 . S
C1831 C1828 1.511 . S
C1831 H1845 0.961 . S
C1831 H1846 0.961 . S
C1831 H1847 0.961 . S
C1832 C1833 1.370 . S
C1832 C1834 1.363 . S
C1832 H1848 0.931 . S
C1833 C1832 1.370 . S
C1833 C1837 1.408 . S
C1834 C1832 1.363 . S
C1834 C1835 1.370 . S
C1834 C1838 1.524 . S
C1835 C1827 1.503 . S
C1835 C1834 1.370 . S
C1835 C1836 1.403 . S
C1836 C1835 1.403 . S
C1836 C1837 1.404 . S
C1836 C1839 1.539 . S
C1837 C1833 1.408 . S
C1837 C1836 1.404 . S
C1837 H1849 0.930 . S
C1838 C1834 1.524 . S
C1838 H1850 0.956 . S
C1838 H1851 0.961 . S
C1838 H1852 0.961 . S
C1839 C1836 1.539 . S
C1839 H1853 0.958 . S
C1839 H1854 0.961 . S
C1839 H1855 0.960 . S
H1840 C1824 0.931 . S
H1841 C1829 0.929 . S
H1842 C1830 0.960 . S
H1843 C1830 0.962 . S
H1844 C1830 0.960 . S
H1845 C1831 0.961 . S
H1846 C1831 0.961 . S
H1847 C1831 0.961 . S
H1848 C1832 0.931 . S
H1849 C1837 0.930 . S
H1850 C1838 0.956 . S
H1851 C1838 0.961 . S
H1852 C1838 0.961 . S
H1853 C1839 0.958 . S
H1854 C1839 0.961 . S
H1855 C1839 0.960 . S
C1856 C1857 1.391 . S
C1856 C1858 1.394 . S
C1856 H1872 0.931 . S
C1857 C1856 1.391 . S
C1857 C1861 1.376 . S
C1858 C1856 1.394 . S
C1858 C1859 1.369 . S
C1858 C1862 1.531 . S
C1859 C1858 1.369 . S
C1859 C1860 1.410 . S
C1859 C1867 1.503 . S
C1860 C1859 1.410 . S
C1860 C1861 1.392 . S
C1860 C1863 1.511 . S
C1861 C1857 1.376 . S
C1861 C1860 1.392 . S
C1861 H1873 0.929 . S
C1862 C1858 1.531 . S
C1862 H1874 0.960 . S
C1862 H1875 0.962 . S
C1862 H1876 0.960 . S
C1863 C1860 1.511 . S
C1863 H1877 0.961 . S
C1863 H1878 0.961 . S
C1863 H1879 0.961 . S
C1864 C1865 1.370 . S
C1864 C1866 1.363 . S
C1864 H1880 0.931 . S
C1865 C1864 1.370 . S
C1865 C1869 1.408 . S
C1866 C1864 1.363 . S
C1866 C1867 1.370 . S
C1866 C1870 1.524 . S
C1867 C1859 1.503 . S
C1867 C1866 1.370 . S
C1867 C1868 1.403 . S
C1868 C1867 1.403 . S
C1868 C1869 1.404 . S
C1868 C1871 1.539 . S
C1869 C1865 1.408 . S
C1869 C1868 1.404 . S
C1869 H1881 0.930 . S
C1870 C1866 1.524 . S
C1870 H1882 0.956 . S
C1870 H1883 0.961 . S
C1870 H1884 0.961 . S
C1871 C1868 1.539 . S
C1871 H1885 0.958 . S
C1871 H1886 0.961 . S
C1871 H1887 0.960 . S
H1872 C1856 0.931 . S
H1873 C1861 0.929 . S
H1874 C1862 0.960 . S
H1875 C1862 0.962 . S
H1876 C1862 0.960 . S
H1877 C1863 0.961 . S
H1878 C1863 0.961 . S
H1879 C1863 0.961 . S
H1880 C1864 0.931 . S
H1881 C1869 0.930 . S
H1882 C1870 0.956 . S
H1883 C1870 0.961 . S
H1884 C1870 0.961 . S
H1885 C1871 0.958 . S
H1886 C1871 0.961 . S
H1887 C1871 0.960 . S
C1888 C1889 1.391 . S
C1888 C1890 1.394 . S
C1888 H1904 0.931 . S
C1889 C1888 1.391 . S
C1889 C1893 1.376 . S
C1890 C1888 1.394 . S
C1890 C1891 1.369 . S
C1890 C1894 1.531 . S
C1891 C1890 1.369 . S
C1891 C1892 1.410 . S
C1891 C1899 1.503 . S
C1892 C1891 1.410 . S
C1892 C1893 1.392 . S
C1892 C1895 1.511 . S
C1893 C1889 1.376 . S
C1893 C1892 1.392 . S
C1893 H1905 0.929 . S
C1894 C1890 1.531 . S
C1894 H1906 0.960 . S
C1894 H1907 0.962 . S
C1894 H1908 0.960 . S
C1895 C1892 1.511 . S
C1895 H1909 0.961 . S
C1895 H1910 0.961 . S
C1895 H1911 0.961 . S
C1896 C1897 1.370 . S
C1896 C1898 1.363 . S
C1896 H1912 0.931 . S
C1897 C1896 1.370 . S
C1897 C1901 1.408 . S
C1898 C1896 1.363 . S
C1898 C1899 1.370 . S
C1898 C1902 1.524 . S
C1899 C1891 1.503 . S
C1899 C1898 1.370 . S
C1899 C1900 1.403 . S
C1900 C1899 1.403 . S
C1900 C1901 1.404 . S
C1900 C1903 1.539 . S
C1901 C1897 1.408 . S
C1901 C1900 1.404 . S
C1901 H1913 0.930 . S
C1902 C1898 1.524 . S
C1902 H1914 0.956 . S
C1902 H1915 0.961 . S
C1902 H1916 0.961 . S
C1903 C1900 1.539 . S
C1903 H1917 0.958 . S
C1903 H1918 0.961 . S
C1903 H1919 0.960 . S
H1904 C1888 0.931 . S
H1905 C1893 0.929 . S
H1906 C1894 0.960 . S
H1907 C1894 0.962 . S
H1908 C1894 0.960 . S
H1909 C1895 0.961 . S
H1910 C1895 0.961 . S
H1911 C1895 0.961 . S
H1912 C1896 0.931 . S
H1913 C1901 0.930 . S
H1914 C1902 0.956 . S
H1915 C1902 0.961 . S
H1916 C1902 0.961 . S
H1917 C1903 0.958 . S
H1918 C1903 0.961 . S
H1919 C1903 0.960 . S
C1920 C1921 1.391 . S
C1920 C1922 1.394 . S
C1920 H1936 0.931 . S
C1921 C1920 1.391 . S
C1921 C1925 1.376 . S
C1922 C1920 1.394 . S
C1922 C1923 1.369 . S
C1922 C1926 1.531 . S
C1923 C1922 1.369 . S
C1923 C1924 1.410 . S
C1923 C1931 1.503 . S
C1924 C1923 1.410 . S
C1924 C1925 1.392 . S
C1924 C1927 1.511 . S
C1925 C1921 1.376 . S
C1925 C1924 1.392 . S
C1925 H1937 0.929 . S
C1926 C1922 1.531 . S
C1926 H1938 0.960 . S
C1926 H1939 0.962 . S
C1926 H1940 0.960 . S
C1927 C1924 1.511 . S
C1927 H1941 0.961 . S
C1927 H1942 0.961 . S
C1927 H1943 0.961 . S
C1928 C1929 1.370 . S
C1928 C1930 1.363 . S
C1928 H1944 0.931 . S
C1929 C1928 1.370 . S
C1929 C1933 1.408 . S
C1930 C1928 1.363 . S
C1930 C1931 1.370 . S
C1930 C1934 1.524 . S
C1931 C1923 1.503 . S
C1931 C1930 1.370 . S
C1931 C1932 1.403 . S
C1932 C1931 1.403 . S
C1932 C1933 1.404 . S
C1932 C1935 1.539 . S
C1933 C1929 1.408 . S
C1933 C1932 1.404 . S
C1933 H1945 0.930 . S
C1934 C1930 1.524 . S
C1934 H1946 0.956 . S
C1934 H1947 0.961 . S
C1934 H1948 0.961 . S
C1935 C1932 1.539 . S
C1935 H1949 0.958 . S
C1935 H1950 0.961 . S
C1935 H1951 0.960 . S
H1936 C1920 0.931 . S
H1937 C1925 0.929 . S
H1938 C1926 0.960 . S
H1939 C1926 0.962 . S
H1940 C1926 0.960 . S
H1941 C1927 0.961 . S
H1942 C1927 0.961 . S
H1943 C1927 0.961 . S
H1944 C1928 0.931 . S
H1945 C1933 0.930 . S
H1946 C1934 0.956 . S
H1947 C1934 0.961 . S
H1948 C1934 0.961 . S
H1949 C1935 0.958 . S
H1950 C1935 0.961 . S
H1951 C1935 0.960 . S
C1952 C1953 1.391 . S
C1952 C1954 1.394 . S
C1952 H1968 0.931 . S
C1953 C1952 1.391 . S
C1953 C1957 1.376 . S
C1954 C1952 1.394 . S
C1954 C1955 1.369 . S
C1954 C1958 1.531 . S
C1955 C1954 1.369 . S
C1955 C1956 1.410 . S
C1955 C1963 1.503 . S
C1956 C1955 1.410 . S
C1956 C1957 1.392 . S
C1956 C1959 1.511 . S
C1957 C1953 1.376 . S
C1957 C1956 1.392 . S
C1957 H1969 0.929 . S
C1958 C1954 1.531 . S
C1958 H1970 0.960 . S
C1958 H1971 0.962 . S
C1958 H1972 0.960 . S
C1959 C1956 1.511 . S
C1959 H1973 0.961 . S
C1959 H1974 0.961 . S
C1959 H1975 0.961 . S
C1960 C1961 1.370 . S
C1960 C1962 1.363 . S
C1960 H1976 0.931 . S
C1961 C1960 1.370 . S
C1961 C1965 1.408 . S
C1962 C1960 1.363 . S
C1962 C1963 1.370 . S
C1962 C1966 1.524 . S
C1963 C1955 1.503 . S
C1963 C1962 1.370 . S
C1963 C1964 1.403 . S
C1964 C1963 1.403 . S
C1964 C1965 1.404 . S
C1964 C1967 1.539 . S
C1965 C1961 1.408 . S
C1965 C1964 1.404 . S
C1965 H1977 0.930 . S
C1966 C1962 1.524 . S
C1966 H1978 0.956 . S
C1966 H1979 0.961 . S
C1966 H1980 0.961 . S
C1967 C1964 1.539 . S
C1967 H1981 0.958 . S
C1967 H1982 0.961 . S
C1967 H1983 0.960 . S
H1968 C1952 0.931 . S
H1969 C1957 0.929 . S
H1970 C1958 0.960 . S
H1971 C1958 0.962 . S
H1972 C1958 0.960 . S
H1973 C1959 0.961 . S
H1974 C1959 0.961 . S
H1975 C1959 0.961 . S
H1976 C1960 0.931 . S
H1977 C1965 0.930 . S
H1978 C1966 0.956 . S
H1979 C1966 0.961 . S
H1980 C1966 0.961 . S
H1981 C1967 0.958 . S
H1982 C1967 0.961 . S
H1983 C1967 0.960 . S
C1984 C1985 1.391 . S
C1984 C1986 1.394 . S
C1984 H2000 0.931 . S
C1985 C1984 1.391 . S
C1985 C1989 1.376 . S
C1986 C1984 1.394 . S
C1986 C1987 1.369 . S
C1986 C1990 1.531 . S
C1987 C1986 1.369 . S
C1987 C1988 1.410 . S
C1987 C1995 1.503 . S
C1988 C1987 1.410 . S
C1988 C1989 1.392 . S
C1988 C1991 1.511 . S
C1989 C1985 1.376 . S
C1989 C1988 1.392 . S
C1989 H2001 0.929 . S
C1990 C1986 1.531 . S
C1990 H2002 0.960 . S
C1990 H2003 0.962 . S
C1990 H2004 0.960 . S
C1991 C1988 1.511 . S
C1991 H2005 0.961 . S
C1991 H2006 0.961 . S
C1991 H2007 0.961 . S
C1992 C1993 1.370 . S
C1992 C1994 1.363 . S
C1992 H2008 0.931 . S
C1993 C1992 1.370 . S
C1993 C1997 1.408 . S
C1994 C1992 1.363 . S
C1994 C1995 1.370 . S
C1994 C1998 1.524 . S
C1995 C1987 1.503 . S
C1995 C1994 1.370 . S
C1995 C1996 1.403 . S
C1996 C1995 1.403 . S
C1996 C1997 1.404 . S
C1996 C1999 1.539 . S
C1997 C1993 1.408 . S
C1997 C1996 1.404 . S
C1997 H2009 0.930 . S
C1998 C1994 1.524 . S
C1998 H2010 0.956 . S
C1998 H2011 0.961 . S
C1998 H2012 0.961 . S
C1999 C1996 1.539 . S
C1999 H2013 0.958 . S
C1999 H2014 0.961 . S
C1999 H2015 0.960 . S
H2000 C1984 0.931 . S
H2001 C1989 0.929 . S
H2002 C1990 0.960 . S
H2003 C1990 0.962 . S
H2004 C1990 0.960 . S
H2005 C1991 0.961 . S
H2006 C1991 0.961 . S
H2007 C1991 0.961 . S
H2008 C1992 0.931 . S
H2009 C1997 0.930 . S
H2010 C1998 0.956 . S
H2011 C1998 0.961 . S
H2012 C1998 0.961 . S
H2013 C1999 0.958 . S
H2014 C1999 0.961 . S
H2015 C1999 0.960 . S
C2016 C2017 1.391 . S
C2016 C2018 1.394 . S
C2016 H2032 0.931 . S
C2017 C2016 1.391 . S
C2017 C2021 1.376 . S
C2018 C2016 1.394 . S
C2018 C2019 1.369 . S
C2018 C2022 1.531 . S
C2019 C2018 1.369 . S
C2019 C2020 1.410 . S
C2019 C2027 1.503 . S
C2020 C2019 1.410 . S
C2020 C2021 1.392 . S
C2020 C2023 1.511 . S
C2021 C2017 1.376 . S
C2021 C2020 1.392 . S
C2021 H2033 0.929 . S
C2022 C2018 1.531 . S
C2022 H2034 0.960 . S
C2022 H2035 0.962 . S
C2022 H2036 0.960 . S
C2023 C2020 1.511 . S
C2023 H2037 0.961 . S
C2023 H2038 0.961 . S
C2023 H2039 0.961 . S
C2024 C2025 1.370 . S
C2024 C2026 1.363 . S
C2024 H2040 0.931 . S
C2025 C2024 1.370 . S
C2025 C2029 1.408 . S
C2026 C2024 1.363 . S
C2026 C2027 1.370 . S
C2026 C2030 1.524 . S
C2027 C2019 1.503 . S
C2027 C2026 1.370 . S
C2027 C2028 1.403 . S
C2028 C2027 1.403 . S
C2028 C2029 1.404 . S
C2028 C2031 1.539 . S
C2029 C2025 1.408 . S
C2029 C2028 1.404 . S
C2029 H2041 0.930 . S
C2030 C2026 1.524 . S
C2030 H2042 0.956 . S
C2030 H2043 0.961 . S
C2030 H2044 0.961 . S
C2031 C2028 1.539 . S
C2031 H2045 0.958 . S
C2031 H2046 0.961 . S
C2031 H2047 0.960 . S
H2032 C2016 0.931 . S
H2033 C2021 0.929 . S
H2034 C2022 0.960 . S
H2035 C2022 0.962 . S
H2036 C2022 0.960 . S
H2037 C2023 0.961 . S
H2038 C2023 0.961 . S
H2039 C2023 0.961 . S
H2040 C2024 0.931 . S
H2041 C2029 0.930 . S
H2042 C2030 0.956 . S
H2043 C2030 0.961 . S
H2044 C2030 0.961 . S
H2045 C2031 0.958 . S
H2046 C2031 0.961 . S
H2047 C2031 0.960 . S
C2048 C2049 1.391 . S
C2048 C2050 1.394 . S
C2048 H2064 0.931 . S
C2049 C2048 1.391 . S
C2049 C2053 1.376 . S
C2050 C2048 1.394 . S
C2050 C2051 1.369 . S
C2050 C2054 1.531 . S
C2051 C2050 1.369 . S
C2051 C2052 1.410 . S
C2051 C2059 1.503 . S
C2052 C2051 1.410 . S
C2052 C2053 1.392 . S
C2052 C2055 1.511 . S
C2053 C2049 1.376 . S
C2053 C2052 1.392 . S
C2053 H2065 0.929 . S
C2054 C2050 1.531 . S
C2054 H2066 0.960 . S
C2054 H2067 0.962 . S
C2054 H2068 0.960 . S
C2055 C2052 1.511 . S
C2055 H2069 0.961 . S
C2055 H2070 0.961 . S
C2055 H2071 0.961 . S
C2056 C2057 1.370 . S
C2056 C2058 1.363 . S
C2056 H2072 0.931 . S
C2057 C2056 1.370 . S
C2057 C2061 1.408 . S
C2058 C2056 1.363 . S
C2058 C2059 1.370 . S
C2058 C2062 1.524 . S
C2059 C2051 1.503 . S
C2059 C2058 1.370 . S
C2059 C2060 1.403 . S
C2060 C2059 1.403 . S
C2060 C2061 1.404 . S
C2060 C2063 1.539 . S
C2061 C2057 1.408 . S
C2061 C2060 1.404 . S
C2061 H2073 0.930 . S
C2062 C2058 1.524 . S
C2062 H2074 0.956 . S
C2062 H2075 0.961 . S
C2062 H2076 0.961 . S
C2063 C2060 1.539 . S
C2063 H2077 0.958 . S
C2063 H2078 0.961 . S
C2063 H2079 0.960 . S
H2064 C2048 0.931 . S
H2065 C2053 0.929 . S
H2066 C2054 0.960 . S
H2067 C2054 0.962 . S
H2068 C2054 0.960 . S
H2069 C2055 0.961 . S
H2070 C2055 0.961 . S
H2071 C2055 0.961 . S
H2072 C2056 0.931 . S
H2073 C2061 0.930 . S
H2074 C2062 0.956 . S
H2075 C2062 0.961 . S
H2076 C2062 0.961 . S
H2077 C2063 0.958 . S
H2078 C2063 0.961 . S
H2079 C2063 0.960 . S
C2080 C2081 1.391 . S
C2080 C2082 1.394 . S
C2080 H2096 0.931 . S
C2081 C2080 1.391 . S
C2081 C2085 1.376 . S
C2082 C2080 1.394 . S
C2082 C2083 1.369 . S
C2082 C2086 1.531 . S
C2083 C2082 1.369 . S
C2083 C2084 1.410 . S
C2083 C2091 1.503 . S
C2084 C2083 1.410 . S
C2084 C2085 1.392 . S
C2084 C2087 1.511 . S
C2085 C2081 1.376 . S
C2085 C2084 1.392 . S
C2085 H2097 0.929 . S
C2086 C2082 1.531 . S
C2086 H2098 0.960 . S
C2086 H2099 0.962 . S
C2086 H2100 0.960 . S
C2087 C2084 1.511 . S
C2087 H2101 0.961 . S
C2087 H2102 0.961 . S
C2087 H2103 0.961 . S
C2088 C2089 1.370 . S
C2088 C2090 1.363 . S
C2088 H2104 0.931 . S
C2089 C2088 1.370 . S
C2089 C2093 1.408 . S
C2090 C2088 1.363 . S
C2090 C2091 1.370 . S
C2090 C2094 1.524 . S
C2091 C2083 1.503 . S
C2091 C2090 1.370 . S
C2091 C2092 1.403 . S
C2092 C2091 1.403 . S
C2092 C2093 1.404 . S
C2092 C2095 1.539 . S
C2093 C2089 1.408 . S
C2093 C2092 1.404 . S
C2093 H2105 0.930 . S
C2094 C2090 1.524 . S
C2094 H2106 0.956 . S
C2094 H2107 0.961 . S
C2094 H2108 0.961 . S
C2095 C2092 1.539 . S
C2095 H2109 0.958 . S
C2095 H2110 0.961 . S
C2095 H2111 0.960 . S
H2096 C2080 0.931 . S
H2097 C2085 0.929 . S
H2098 C2086 0.960 . S
H2099 C2086 0.962 . S
H2100 C2086 0.960 . S
H2101 C2087 0.961 . S
H2102 C2087 0.961 . S
H2103 C2087 0.961 . S
H2104 C2088 0.931 . S
H2105 C2093 0.930 . S
H2106 C2094 0.956 . S
H2107 C2094 0.961 . S
H2108 C2094 0.961 . S
H2109 C2095 0.958 . S
H2110 C2095 0.961 . S
H2111 C2095 0.960 . S
C2112 C2113 1.391 . S
C2112 C2114 1.394 . S
C2112 H2128 0.931 . S
C2113 C2112 1.391 . S
C2113 C2117 1.376 . S
C2114 C2112 1.394 . S
C2114 C2115 1.369 . S
C2114 C2118 1.531 . S
C2115 C2114 1.369 . S
C2115 C2116 1.410 . S
C2115 C2123 1.503 . S
C2116 C2115 1.410 . S
C2116 C2117 1.392 . S
C2116 C2119 1.511 . S
C2117 C2113 1.376 . S
C2117 C2116 1.392 . S
C2117 H2129 0.929 . S
C2118 C2114 1.531 . S
C2118 H2130 0.960 . S
C2118 H2131 0.962 1_554 S
C2118 H2132 0.960 . S
C2119 C2116 1.511 . S
C2119 H2133 0.961 . S
C2119 H2134 0.961 . S
C2119 H2135 0.961 . S
C2120 C2121 1.370 1_556 S
C2120 C2122 1.363 . S
C2120 H2136 0.931 . S
C2121 C2120 1.370 1_554 S
C2121 C2125 1.408 . S
C2122 C2120 1.363 . S
C2122 C2123 1.370 1_556 S
C2122 C2126 1.524 . S
C2123 C2115 1.503 . S
C2123 C2122 1.370 1_554 S
C2123 C2124 1.403 . S
C2124 C2123 1.403 . S
C2124 C2125 1.404 . S
C2124 C2127 1.539 . S
C2125 C2121 1.408 . S
C2125 C2124 1.404 . S
C2125 H2137 0.930 . S
C2126 C2122 1.524 . S
C2126 H2138 0.956 . S
C2126 H2139 0.961 . S
C2126 H2140 0.961 . S
C2127 C2124 1.539 . S
C2127 H2141 0.958 . S
C2127 H2142 0.961 . S
C2127 H2143 0.960 . S
H2128 C2112 0.931 . S
H2129 C2117 0.929 . S
H2130 C2118 0.960 . S
H2131 C2118 0.962 1_556 S
H2132 C2118 0.960 . S
H2133 C2119 0.961 . S
H2134 C2119 0.961 . S
H2135 C2119 0.961 . S
H2136 C2120 0.931 . S
H2137 C2125 0.930 . S
H2138 C2126 0.956 . S
H2139 C2126 0.961 . S
H2140 C2126 0.961 . S
H2141 C2127 0.958 . S
H2142 C2127 0.961 . S
H2143 C2127 0.960 . S
C2144 C2145 1.391 1_556 S
C2144 C2146 1.394 . S
C2144 H2160 0.931 . S
C2145 C2144 1.391 1_554 S
C2145 C2149 1.375 . S
C2146 C2144 1.394 . S
C2146 C2147 1.366 . S
C2146 C2150 1.531 . S
C2147 C2146 1.366 . S
C2147 C2148 1.413 1_556 S
C2147 C2155 1.504 1_556 S
C2148 C2147 1.413 1_554 S
C2148 C2149 1.392 . S
C2148 C2151 1.511 . S
C2149 C2145 1.375 . S
C2149 C2148 1.392 . S
C2149 H2161 0.929 . S
C2150 C2146 1.531 . S
C2150 H2162 0.960 . S
C2150 H2163 0.962 . S
C2150 H2164 0.960 . S
C2151 C2148 1.511 . S
C2151 H2165 0.961 . S
C2151 H2166 0.961 . S
C2151 H2167 0.961 . S
C2152 C2153 1.370 . S
C2152 C2154 1.363 . S
C2152 H2168 0.931 . S
C2153 C2152 1.370 . S
C2153 C2157 1.408 1_554 S
C2154 C2152 1.363 . S
C2154 C2155 1.370 . S
C2154 C2158 1.524 . S
C2155 C2147 1.504 1_554 S
C2155 C2154 1.370 . S
C2155 C2156 1.403 1_554 S
C2156 C2155 1.403 1_556 S
C2156 C2157 1.404 . S
C2156 C2159 1.539 . S
C2157 C2153 1.408 1_556 S
C2157 C2156 1.404 . S
C2157 H2169 0.930 . S
C2158 C2154 1.524 . S
C2158 H2170 0.956 . S
C2158 H2171 0.961 . S
C2158 H2172 0.961 . S
C2159 C2156 1.539 . S
C2159 H2173 0.958 . S
C2159 H2174 0.961 . S
C2159 H2175 0.960 . S
H2160 C2144 0.931 . S
H2161 C2149 0.929 . S
H2162 C2150 0.960 . S
H2163 C2150 0.962 . S
H2164 C2150 0.960 . S
H2165 C2151 0.961 . S
H2166 C2151 0.961 . S
H2167 C2151 0.961 . S
H2168 C2152 0.931 . S
H2169 C2157 0.930 . S
H2170 C2158 0.956 . S
H2171 C2158 0.961 . S
H2172 C2158 0.961 . S
H2173 C2159 0.958 . S
H2174 C2159 0.961 . S
H2175 C2159 0.960 . S
C2176 C2177 1.391 . S
C2176 C2178 1.394 . S
C2176 H2192 0.931 . S
C2177 C2176 1.391 . S
C2177 C2181 1.376 1_554 S
C2178 C2176 1.394 . S
C2178 C2179 1.443 . S
C2178 C2182 1.531 . S
C2179 C2178 1.443 . S
C2179 C2180 1.354 1_554 S
C2179 C2187 1.503 . S
C2180 C2179 1.354 1_556 S
C2180 C2181 1.392 . S
C2180 C2183 1.511 . S
C2181 C2177 1.376 1_556 S
C2181 C2180 1.392 . S
C2181 H2193 0.929 . S
C2182 C2178 1.531 . S
C2182 H2194 0.960 . S
C2182 H2195 0.962 . S
C2182 H2196 0.960 . S
C2183 C2180 1.511 . S
C2183 H2197 0.961 . S
C2183 H2198 0.961 . S
C2183 H2199 0.961 . S
C2184 C2185 1.416 . S
C2184 C2186 1.363 . S
C2184 H2200 0.931 . S
C2185 C2184 1.416 . S
C2185 C2189 1.365 1_554 S
C2186 C2184 1.363 . S
C2186 C2187 1.440 . S
C2186 C2190 1.524 . S
C2187 C2179 1.503 . S
C2187 C2186 1.440 . S
C2187 C2188 1.335 1_554 S
C2188 C2187 1.335 1_556 S
C2188 C2189 1.404 . S
C2188 C2191 1.539 . S
C2189 C2185 1.365 1_556 S
C2189 C2188 1.404 . S
C2189 H2201 0.930 . S
C2190 C2186 1.524 . S
C2190 H2202 0.956 . S
C2190 H2203 0.961 . S
C2190 H2204 0.961 . S
C2191 C2188 1.539 . S
C2191 H2205 0.958 . S
C2191 H2206 0.961 . S
C2191 H2207 0.960 . S
H2192 C2176 0.931 . S
H2193 C2181 0.929 . S
H2194 C2182 0.960 . S
H2195 C2182 0.962 . S
H2196 C2182 0.960 . S
H2197 C2183 0.961 . S
H2198 C2183 0.961 . S
H2199 C2183 0.961 . S
H2200 C2184 0.931 . S
H2201 C2189 0.930 . S
H2202 C2190 0.956 . S
H2203 C2190 0.961 . S
H2204 C2190 0.961 . S
H2205 C2191 0.958 . S
H2206 C2191 0.961 . S
H2207 C2191 0.960 . S
C2208 C2209 1.391 . S
C2208 C2210 1.394 . S
C2208 H2224 0.931 . S
C2209 C2208 1.391 . S
C2209 C2213 1.376 . S
C2210 C2208 1.394 . S
C2210 C2211 1.369 . S
C2210 C2214 1.531 . S
C2211 C2210 1.369 . S
C2211 C2212 1.410 . S
C2211 C2219 1.503 . S
C2212 C2211 1.410 . S
C2212 C2213 1.392 . S
C2212 C2215 1.511 . S
C2213 C2209 1.376 . S
C2213 C2212 1.392 . S
C2213 H2225 0.929 . S
C2214 C2210 1.531 . S
C2214 H2226 0.960 . S
C2214 H2227 0.962 . S
C2214 H2228 0.960 . S
C2215 C2212 1.511 . S
C2215 H2229 0.961 . S
C2215 H2230 0.961 . S
C2215 H2231 0.961 . S
C2216 C2217 1.370 . S
C2216 C2218 1.363 . S
C2216 H2232 0.931 . S
C2217 C2216 1.370 . S
C2217 C2221 1.408 . S
C2218 C2216 1.363 . S
C2218 C2219 1.370 . S
C2218 C2222 1.524 . S
C2219 C2211 1.503 . S
C2219 C2218 1.370 . S
C2219 C2220 1.403 . S
C2220 C2219 1.403 . S
C2220 C2221 1.404 . S
C2220 C2223 1.539 . S
C2221 C2217 1.408 . S
C2221 C2220 1.404 . S
C2221 H2233 0.930 . S
C2222 C2218 1.524 . S
C2222 H2234 0.956 . S
C2222 H2235 0.961 . S
C2222 H2236 0.961 . S
C2223 C2220 1.539 . S
C2223 H2237 0.958 . S
C2223 H2238 0.961 . S
C2223 H2239 0.960 . S
H2224 C2208 0.931 . S
H2225 C2213 0.929 . S
H2226 C2214 0.960 . S
H2227 C2214 0.962 . S
H2228 C2214 0.960 . S
H2229 C2215 0.961 . S
H2230 C2215 0.961 . S
H2231 C2215 0.961 . S
H2232 C2216 0.931 . S
H2233 C2221 0.930 . S
H2234 C2222 0.956 . S
H2235 C2222 0.961 . S
H2236 C2222 0.961 . S
H2237 C2223 0.958 . S
H2238 C2223 0.961 . S
H2239 C2223 0.960 . S
C2240 C2241 1.391 . S
C2240 C2242 1.394 . S
C2240 H2256 0.931 . S
C2241 C2240 1.391 . S
C2241 C2245 1.376 . S
C2242 C2240 1.394 . S
C2242 C2243 1.369 . S
C2242 C2246 1.531 . S
C2243 C2242 1.369 . S
C2243 C2244 1.410 . S
C2243 C2251 1.503 . S
C2244 C2243 1.410 . S
C2244 C2245 1.392 . S
C2244 C2247 1.511 . S
C2245 C2241 1.376 . S
C2245 C2244 1.392 . S
C2245 H2257 0.929 . S
C2246 C2242 1.531 . S
C2246 H2258 0.960 . S
C2246 H2259 0.962 . S
C2246 H2260 0.960 . S
C2247 C2244 1.511 . S
C2247 H2261 0.961 . S
C2247 H2262 0.961 . S
C2247 H2263 0.961 . S
C2248 C2249 1.370 . S
C2248 C2250 1.363 . S
C2248 H2264 0.931 . S
C2249 C2248 1.370 . S
C2249 C2253 1.408 . S
C2250 C2248 1.363 . S
C2250 C2251 1.370 . S
C2250 C2254 1.524 . S
C2251 C2243 1.503 . S
C2251 C2250 1.370 . S
C2251 C2252 1.403 . S
C2252 C2251 1.403 . S
C2252 C2253 1.404 . S
C2252 C2255 1.539 . S
C2253 C2249 1.408 . S
C2253 C2252 1.404 . S
C2253 H2265 0.930 . S
C2254 C2250 1.524 . S
C2254 H2266 0.956 . S
C2254 H2267 0.961 . S
C2254 H2268 0.961 . S
C2255 C2252 1.539 . S
C2255 H2269 0.958 . S
C2255 H2270 0.961 . S
C2255 H2271 0.960 . S
H2256 C2240 0.931 . S
H2257 C2245 0.929 . S
H2258 C2246 0.960 . S
H2259 C2246 0.962 . S
H2260 C2246 0.960 . S
H2261 C2247 0.961 . S
H2262 C2247 0.961 . S
H2263 C2247 0.961 . S
H2264 C2248 0.931 . S
H2265 C2253 0.930 . S
H2266 C2254 0.956 . S
H2267 C2254 0.961 . S
H2268 C2254 0.961 . S
H2269 C2255 0.958 . S
H2270 C2255 0.961 . S
H2271 C2255 0.960 . S
C2272 C2273 1.391 . S
C2272 C2274 1.394 . S
C2272 H2288 0.931 . S
C2273 C2272 1.391 . S
C2273 C2277 1.376 . S
C2274 C2272 1.394 . S
C2274 C2275 1.369 . S
C2274 C2278 1.531 . S
C2275 C2274 1.369 . S
C2275 C2276 1.410 . S
C2275 C2283 1.503 . S
C2276 C2275 1.410 . S
C2276 C2277 1.392 . S
C2276 C2279 1.511 . S
C2277 C2273 1.376 . S
C2277 C2276 1.392 . S
C2277 H2289 0.929 . S
C2278 C2274 1.531 . S
C2278 H2290 0.960 . S
C2278 H2291 0.962 . S
C2278 H2292 0.960 . S
C2279 C2276 1.511 . S
C2279 H2293 0.961 . S
C2279 H2294 0.961 . S
C2279 H2295 0.961 . S
C2280 C2281 1.370 . S
C2280 C2282 1.363 . S
C2280 H2296 0.931 . S
C2281 C2280 1.370 . S
C2281 C2285 1.408 . S
C2282 C2280 1.363 . S
C2282 C2283 1.370 . S
C2282 C2286 1.524 . S
C2283 C2275 1.503 . S
C2283 C2282 1.370 . S
C2283 C2284 1.403 . S
C2284 C2283 1.403 . S
C2284 C2285 1.404 . S
C2284 C2287 1.539 . S
C2285 C2281 1.408 . S
C2285 C2284 1.404 . S
C2285 H2297 0.930 . S
C2286 C2282 1.524 . S
C2286 H2298 0.956 . S
C2286 H2299 0.961 . S
C2286 H2300 0.961 . S
C2287 C2284 1.539 . S
C2287 H2301 0.958 . S
C2287 H2302 0.961 . S
C2287 H2303 0.960 . S
H2288 C2272 0.931 . S
H2289 C2277 0.929 . S
H2290 C2278 0.960 . S
H2291 C2278 0.962 . S
H2292 C2278 0.960 . S
H2293 C2279 0.961 . S
H2294 C2279 0.961 . S
H2295 C2279 0.961 . S
H2296 C2280 0.931 . S
H2297 C2285 0.930 . S
H2298 C2286 0.956 . S
H2299 C2286 0.961 . S
H2300 C2286 0.961 . S
H2301 C2287 0.958 . S
H2302 C2287 0.961 . S
H2303 C2287 0.960 . S
C2304 C2305 1.460 . S
C2304 C2306 1.394 . S
C2304 H2320 0.931 . S
C2305 C2304 1.460 . S
C2305 C2309 1.312 1_556 S
C2306 C2304 1.394 . S
C2306 C2307 1.369 . S
C2306 C2310 1.531 . S
C2307 C2306 1.369 . S
C2307 C2308 1.410 1_556 S
C2307 C2315 1.503 . S
C2308 C2307 1.410 1_554 S
C2308 C2309 1.392 . S
C2308 C2311 1.511 . S
C2309 C2305 1.312 1_554 S
C2309 C2308 1.392 . S
C2309 H2321 0.929 . S
C2310 C2306 1.531 . S
C2310 H2322 0.960 . S
C2310 H2323 0.962 . S
C2310 H2324 0.960 . S
C2311 C2308 1.511 . S
C2311 H2325 0.961 . S
C2311 H2326 0.961 . S
C2311 H2327 0.961 . S
C2312 C2313 1.370 . S
C2312 C2314 1.363 . S
C2312 H2328 0.931 . S
C2313 C2312 1.370 . S
C2313 C2317 1.408 . S
C2314 C2312 1.363 . S
C2314 C2315 1.370 . S
C2314 C2318 1.524 . S
C2315 C2307 1.503 . S
C2315 C2314 1.370 . S
C2315 C2316 1.424 . S
C2316 C2315 1.424 . S
C2316 C2317 1.415 . S
C2316 C2319 1.511 1_556 S
C2317 C2313 1.408 . S
C2317 C2316 1.415 . S
C2317 H2329 0.938 . S
C2318 C2314 1.524 . S
C2318 H2330 0.956 . S
C2318 H2331 1.058 . S
C2318 H2332 0.961 . S
C2319 C2316 1.511 1_554 S
C2319 H2333 0.958 1_554 S
C2319 H2334 0.961 . S
C2319 H2335 0.960 . S
H2320 C2304 0.931 . S
H2321 C2309 0.929 . S
H2322 C2310 0.960 . S
H2323 C2310 0.962 . S
H2324 C2310 0.960 . S
H2325 C2311 0.961 . S
H2326 C2311 0.961 . S
H2327 C2311 0.961 . S
H2328 C2312 0.931 . S
H2329 C2317 0.938 . S
H2330 C2318 0.956 . S
H2331 C2318 1.058 . S
H2332 C2318 0.961 . S
H2333 C2319 0.958 1_556 S
H2334 C2319 0.961 . S
H2335 C2319 0.960 . S
C2336 C2337 1.391 . S
C2336 C2338 1.394 . S
C2336 H2352 0.931 . S
C2337 C2336 1.391 . S
C2337 C2341 1.376 1_556 S
C2338 C2336 1.394 . S
C2338 C2339 1.369 . S
C2338 C2342 1.531 . S
C2339 C2338 1.369 . S
C2339 C2340 1.410 . S
C2339 C2347 1.503 . S
C2340 C2339 1.410 . S
C2340 C2341 1.392 1_556 S
C2340 C2343 1.495 1_556 S
C2341 C2337 1.376 1_554 S
C2341 C2340 1.392 1_554 S
C2341 H2353 0.929 . S
C2342 C2338 1.531 . S
C2342 H2354 0.960 . S
C2342 H2355 0.962 . S
C2342 H2356 0.960 . S
C2343 C2340 1.495 1_554 S
C2343 H2357 1.037 . S
C2343 H2358 1.004 . S
C2343 H2359 0.872 1_554 S
C2344 C2345 1.370 1_554 S
C2344 C2346 1.363 . S
C2344 H2360 0.931 . S
C2345 C2344 1.370 1_556 S
C2345 C2349 1.408 . S
C2346 C2344 1.363 . S
C2346 C2347 1.370 1_554 S
C2346 C2350 1.524 . S
C2347 C2339 1.503 . S
C2347 C2346 1.370 1_556 S
C2347 C2348 1.403 . S
C2348 C2347 1.403 . S
C2348 C2349 1.404 . S
C2348 C2351 1.539 . S
C2349 C2345 1.408 . S
C2349 C2348 1.404 . S
C2349 H2361 0.930 . S
C2350 C2346 1.524 . S
C2350 H2362 0.956 . S
C2350 H2363 0.961 . S
C2350 H2364 0.961 . S
C2351 C2348 1.539 . S
C2351 H2365 0.958 . S
C2351 H2366 0.961 . S
C2351 H2367 0.960 . S
H2352 C2336 0.931 . S
H2353 C2341 0.929 . S
H2354 C2342 0.960 . S
H2355 C2342 0.962 . S
H2356 C2342 0.960 . S
H2357 C2343 1.037 . S
H2358 C2343 1.004 . S
H2359 C2343 0.872 1_556 S
H2360 C2344 0.931 . S
H2361 C2349 0.930 . S
H2362 C2350 0.956 . S
H2363 C2350 0.961 . S
H2364 C2350 0.961 . S
H2365 C2351 0.958 . S
H2366 C2351 0.961 . S
H2367 C2351 0.960 . S
C2368 C2369 1.369 1_554 S
C2368 C2370 1.394 . S
C2368 H2384 0.931 . S
C2369 C2368 1.369 1_556 S
C2369 C2373 1.398 . S
C2370 C2368 1.394 . S
C2370 C2371 1.329 1_554 S
C2370 C2374 1.531 . S
C2371 C2370 1.329 1_556 S
C2371 C2372 1.449 . S
C2371 C2379 1.511 . S
C2372 C2371 1.449 . S
C2372 C2373 1.392 . S
C2372 C2375 1.511 . S
C2373 C2369 1.398 . S
C2373 C2372 1.392 . S
C2373 H2385 0.929 . S
C2374 C2370 1.531 . S
C2374 H2386 0.960 . S
C2374 H2387 0.962 . S
C2374 H2388 0.960 . S
C2375 C2372 1.511 . S
C2375 H2389 0.961 . S
C2375 H2390 0.961 . S
C2375 H2391 0.961 . S
C2376 C2377 1.370 . S
C2376 C2378 1.363 . S
C2376 H2392 0.931 . S
C2377 C2376 1.370 . S
C2377 C2381 1.408 1_556 S
C2378 C2376 1.363 . S
C2378 C2379 1.370 . S
C2378 C2382 1.524 . S
C2379 C2371 1.511 . S
C2379 C2378 1.370 . S
C2379 C2380 1.403 1_556 S
C2380 C2379 1.403 1_554 S
C2380 C2381 1.404 . S
C2380 C2383 1.539 . S
C2381 C2377 1.408 1_554 S
C2381 C2380 1.404 . S
C2381 H2393 0.930 . S
C2382 C2378 1.524 . S
C2382 H2394 0.956 . S
C2382 H2395 0.961 . S
C2382 H2396 0.961 . S
C2383 C2380 1.539 . S
C2383 H2397 0.958 . S
C2383 H2398 0.961 . S
C2383 H2399 0.960 . S
H2384 C2368 0.931 . S
H2385 C2373 0.929 . S
H2386 C2374 0.960 . S
H2387 C2374 0.962 . S
H2388 C2374 0.960 . S
H2389 C2375 0.961 . S
H2390 C2375 0.961 . S
H2391 C2375 0.961 . S
H2392 C2376 0.931 . S
H2393 C2381 0.930 . S
H2394 C2382 0.956 . S
H2395 C2382 0.961 . S
H2396 C2382 0.961 . S
H2397 C2383 0.958 . S
H2398 C2383 0.961 . S
H2399 C2383 0.960 . S
C2400 C2401 1.391 . S
C2400 C2402 1.394 . S
C2400 H2416 0.931 . S
C2401 C2400 1.391 . S
C2401 C2405 1.376 . S
C2402 C2400 1.394 . S
C2402 C2403 1.369 . S
C2402 C2406 1.531 . S
C2403 C2402 1.369 . S
C2403 C2404 1.410 . S
C2403 C2411 1.503 . S
C2404 C2403 1.410 . S
C2404 C2405 1.392 . S
C2404 C2407 1.511 . S
C2405 C2401 1.376 . S
C2405 C2404 1.392 . S
C2405 H2417 0.929 . S
C2406 C2402 1.531 . S
C2406 H2418 0.960 . S
C2406 H2419 0.962 . S
C2406 H2420 0.960 . S
C2407 C2404 1.511 . S
C2407 H2421 0.961 . S
C2407 H2422 0.961 . S
C2407 H2423 0.961 . S
C2408 C2409 1.370 . S
C2408 C2410 1.363 . S
C2408 H2424 0.931 . S
C2409 C2408 1.370 . S
C2409 C2413 1.408 . S
C2410 C2408 1.363 . S
C2410 C2411 1.370 . S
C2410 C2414 1.524 . S
C2411 C2403 1.503 . S
C2411 C2410 1.370 . S
C2411 C2412 1.403 . S
C2412 C2411 1.403 . S
C2412 C2413 1.404 . S
C2412 C2415 1.539 . S
C2413 C2409 1.408 . S
C2413 C2412 1.404 . S
C2413 H2425 0.930 . S
C2414 C2410 1.524 . S
C2414 H2426 0.956 . S
C2414 H2427 0.961 . S
C2414 H2428 0.961 . S
C2415 C2412 1.539 . S
C2415 H2429 0.958 . S
C2415 H2430 0.961 . S
C2415 H2431 0.960 . S
H2416 C2400 0.931 . S
H2417 C2405 0.929 . S
H2418 C2406 0.960 . S
H2419 C2406 0.962 . S
H2420 C2406 0.960 . S
H2421 C2407 0.961 . S
H2422 C2407 0.961 . S
H2423 C2407 0.961 . S
H2424 C2408 0.931 . S
H2425 C2413 0.930 . S
H2426 C2414 0.956 . S
H2427 C2414 0.961 . S
H2428 C2414 0.961 . S
H2429 C2415 0.958 . S
H2430 C2415 0.961 . S
H2431 C2415 0.960 . S
C2432 C2433 1.391 . S
C2432 C2434 1.394 . S
C2432 H2448 0.931 . S
C2433 C2432 1.391 . S
C2433 C2437 1.376 . S
C2434 C2432 1.394 . S
C2434 C2435 1.369 . S
C2434 C2438 1.531 . S
C2435 C2434 1.369 . S
C2435 C2436 1.410 . S
C2435 C2443 1.503 . S
C2436 C2435 1.410 . S
C2436 C2437 1.392 . S
C2436 C2439 1.511 . S
C2437 C2433 1.376 . S
C2437 C2436 1.392 . S
C2437 H2449 0.929 . S
C2438 C2434 1.531 . S
C2438 H2450 0.960 . S
C2438 H2451 0.962 . S
C2438 H2452 0.960 . S
C2439 C2436 1.511 . S
C2439 H2453 0.961 . S
C2439 H2454 0.961 . S
C2439 H2455 0.961 . S
C2440 C2441 1.370 . S
C2440 C2442 1.363 . S
C2440 H2456 0.931 . S
C2441 C2440 1.370 . S
C2441 C2445 1.408 . S
C2442 C2440 1.363 . S
C2442 C2443 1.370 . S
C2442 C2446 1.524 . S
C2443 C2435 1.503 . S
C2443 C2442 1.370 . S
C2443 C2444 1.403 . S
C2444 C2443 1.403 . S
C2444 C2445 1.404 . S
C2444 C2447 1.539 . S
C2445 C2441 1.408 . S
C2445 C2444 1.404 . S
C2445 H2457 0.930 . S
C2446 C2442 1.524 . S
C2446 H2458 0.956 . S
C2446 H2459 0.961 . S
C2446 H2460 0.961 . S
C2447 C2444 1.539 . S
C2447 H2461 0.958 . S
C2447 H2462 0.961 . S
C2447 H2463 0.960 . S
H2448 C2432 0.931 . S
H2449 C2437 0.929 . S
H2450 C2438 0.960 . S
H2451 C2438 0.962 . S
H2452 C2438 0.960 . S
H2453 C2439 0.961 . S
H2454 C2439 0.961 . S
H2455 C2439 0.961 . S
H2456 C2440 0.931 . S
H2457 C2445 0.930 . S
H2458 C2446 0.956 . S
H2459 C2446 0.961 . S
H2460 C2446 0.961 . S
H2461 C2447 0.958 . S
H2462 C2447 0.961 . S
H2463 C2447 0.960 . S
C2464 C2465 1.391 . S
C2464 C2466 1.394 . S
C2464 H2480 0.931 . S
C2465 C2464 1.391 . S
C2465 C2469 1.376 . S
C2466 C2464 1.394 . S
C2466 C2467 1.369 . S
C2466 C2470 1.531 . S
C2467 C2466 1.369 . S
C2467 C2468 1.410 . S
C2467 C2475 1.503 . S
C2468 C2467 1.410 . S
C2468 C2469 1.392 . S
C2468 C2471 1.511 . S
C2469 C2465 1.376 . S
C2469 C2468 1.392 . S
C2469 H2481 0.929 . S
C2470 C2466 1.531 . S
C2470 H2482 0.960 . S
C2470 H2483 0.962 . S
C2470 H2484 0.960 . S
C2471 C2468 1.511 . S
C2471 H2485 0.961 . S
C2471 H2486 0.961 . S
C2471 H2487 0.961 . S
C2472 C2473 1.370 . S
C2472 C2474 1.363 . S
C2472 H2488 0.931 . S
C2473 C2472 1.370 . S
C2473 C2477 1.408 . S
C2474 C2472 1.363 . S
C2474 C2475 1.370 . S
C2474 C2478 1.524 . S
C2475 C2467 1.503 . S
C2475 C2474 1.370 . S
C2475 C2476 1.403 . S
C2476 C2475 1.403 . S
C2476 C2477 1.404 . S
C2476 C2479 1.539 . S
C2477 C2473 1.408 . S
C2477 C2476 1.404 . S
C2477 H2489 0.930 . S
C2478 C2474 1.524 . S
C2478 H2490 0.956 . S
C2478 H2491 0.961 . S
C2478 H2492 0.961 . S
C2479 C2476 1.539 . S
C2479 H2493 0.958 . S
C2479 H2494 0.961 . S
C2479 H2495 0.960 . S
H2480 C2464 0.931 . S
H2481 C2469 0.929 . S
H2482 C2470 0.960 . S
H2483 C2470 0.962 . S
H2484 C2470 0.960 . S
H2485 C2471 0.961 . S
H2486 C2471 0.961 . S
H2487 C2471 0.961 . S
H2488 C2472 0.931 . S
H2489 C2477 0.930 . S
H2490 C2478 0.956 . S
H2491 C2478 0.961 . S
H2492 C2478 0.961 . S
H2493 C2479 0.958 . S
H2494 C2479 0.961 . S
H2495 C2479 0.960 . S
C2496 C2497 1.391 . S
C2496 C2498 1.394 . S
C2496 H2512 0.931 . S
C2497 C2496 1.391 . S
C2497 C2501 1.376 . S
C2498 C2496 1.394 . S
C2498 C2499 1.369 . S
C2498 C2502 1.531 . S
C2499 C2498 1.369 . S
C2499 C2500 1.410 . S
C2499 C2507 1.503 . S
C2500 C2499 1.410 . S
C2500 C2501 1.392 . S
C2500 C2503 1.511 . S
C2501 C2497 1.376 . S
C2501 C2500 1.392 . S
C2501 H2513 0.929 . S
C2502 C2498 1.531 . S
C2502 H2514 0.960 . S
C2502 H2515 0.962 . S
C2502 H2516 0.960 . S
C2503 C2500 1.511 . S
C2503 H2517 0.961 . S
C2503 H2518 0.961 . S
C2503 H2519 0.961 . S
C2504 C2505 1.370 . S
C2504 C2506 1.363 . S
C2504 H2520 0.931 . S
C2505 C2504 1.370 . S
C2505 C2509 1.408 . S
C2506 C2504 1.363 . S
C2506 C2507 1.370 . S
C2506 C2510 1.524 . S
C2507 C2499 1.503 . S
C2507 C2506 1.370 . S
C2507 C2508 1.403 . S
C2508 C2507 1.403 . S
C2508 C2509 1.404 . S
C2508 C2511 1.539 . S
C2509 C2505 1.408 . S
C2509 C2508 1.404 . S
C2509 H2521 0.930 . S
C2510 C2506 1.524 . S
C2510 H2522 0.956 . S
C2510 H2523 0.961 . S
C2510 H2524 0.961 . S
C2511 C2508 1.539 . S
C2511 H2525 0.958 . S
C2511 H2526 0.961 . S
C2511 H2527 0.960 . S
H2512 C2496 0.931 . S
H2513 C2501 0.929 . S
H2514 C2502 0.960 . S
H2515 C2502 0.962 . S
H2516 C2502 0.960 . S
H2517 C2503 0.961 . S
H2518 C2503 0.961 . S
H2519 C2503 0.961 . S
H2520 C2504 0.931 . S
H2521 C2509 0.930 . S
H2522 C2510 0.956 . S
H2523 C2510 0.961 . S
H2524 C2510 0.961 . S
H2525 C2511 0.958 . S
H2526 C2511 0.961 . S
H2527 C2511 0.960 . S
C2528 C2529 1.391 . S
C2528 C2530 1.394 . S
C2528 H2544 0.931 . S
C2529 C2528 1.391 . S
C2529 C2533 1.376 . S
C2530 C2528 1.394 . S
C2530 C2531 1.369 . S
C2530 C2534 1.531 . S
C2531 C2530 1.369 . S
C2531 C2532 1.410 . S
C2531 C2539 1.503 . S
C2532 C2531 1.410 . S
C2532 C2533 1.392 . S
C2532 C2535 1.511 . S
C2533 C2529 1.376 . S
C2533 C2532 1.392 . S
C2533 H2545 0.929 . S
C2534 C2530 1.531 . S
C2534 H2546 0.960 . S
C2534 H2547 0.962 . S
C2534 H2548 0.960 . S
C2535 C2532 1.511 . S
C2535 H2549 0.961 . S
C2535 H2550 0.961 . S
C2535 H2551 0.961 . S
C2536 C2537 1.370 . S
C2536 C2538 1.363 . S
C2536 H2552 0.931 . S
C2537 C2536 1.370 . S
C2537 C2541 1.408 . S
C2538 C2536 1.363 . S
C2538 C2539 1.370 . S
C2538 C2542 1.524 . S
C2539 C2531 1.503 . S
C2539 C2538 1.370 . S
C2539 C2540 1.403 . S
C2540 C2539 1.403 . S
C2540 C2541 1.404 . S
C2540 C2543 1.539 . S
C2541 C2537 1.408 . S
C2541 C2540 1.404 . S
C2541 H2553 0.930 . S
C2542 C2538 1.524 . S
C2542 H2554 0.956 . S
C2542 H2555 0.961 . S
C2542 H2556 0.961 . S
C2543 C2540 1.539 . S
C2543 H2557 0.958 . S
C2543 H2558 0.961 . S
C2543 H2559 0.960 . S
H2544 C2528 0.931 . S
H2545 C2533 0.929 . S
H2546 C2534 0.960 . S
H2547 C2534 0.962 . S
H2548 C2534 0.960 . S
H2549 C2535 0.961 . S
H2550 C2535 0.961 . S
H2551 C2535 0.961 . S
H2552 C2536 0.931 . S
H2553 C2541 0.930 . S
H2554 C2542 0.956 . S
H2555 C2542 0.961 . S
H2556 C2542 0.961 . S
H2557 C2543 0.958 . S
H2558 C2543 0.961 . S
H2559 C2543 0.960 . S
C2560 C2561 1.391 . S
C2560 C2562 1.394 . S
C2560 H2576 0.931 . S
C2561 C2560 1.391 . S
C2561 C2565 1.376 . S
C2562 C2560 1.394 . S
C2562 C2563 1.369 . S
C2562 C2566 1.531 . S
C2563 C2562 1.369 . S
C2563 C2564 1.410 . S
C2563 C2571 1.503 . S
C2564 C2563 1.410 . S
C2564 C2565 1.392 . S
C2564 C2567 1.511 . S
C2565 C2561 1.376 . S
C2565 C2564 1.392 . S
C2565 H2577 0.929 . S
C2566 C2562 1.531 . S
C2566 H2578 0.960 . S
C2566 H2579 0.962 . S
C2566 H2580 0.960 . S
C2567 C2564 1.511 . S
C2567 H2581 0.961 . S
C2567 H2582 0.961 . S
C2567 H2583 0.961 . S
C2568 C2569 1.370 . S
C2568 C2570 1.363 . S
C2568 H2584 0.931 . S
C2569 C2568 1.370 . S
C2569 C2573 1.408 . S
C2570 C2568 1.363 . S
C2570 C2571 1.370 . S
C2570 C2574 1.524 . S
C2571 C2563 1.503 . S
C2571 C2570 1.370 . S
C2571 C2572 1.403 . S
C2572 C2571 1.403 . S
C2572 C2573 1.404 . S
C2572 C2575 1.539 . S
C2573 C2569 1.408 . S
C2573 C2572 1.404 . S
C2573 H2585 0.930 . S
C2574 C2570 1.524 . S
C2574 H2586 0.956 . S
C2574 H2587 0.961 . S
C2574 H2588 0.961 . S
C2575 C2572 1.539 . S
C2575 H2589 0.958 . S
C2575 H2590 0.961 . S
C2575 H2591 0.960 . S
H2576 C2560 0.931 . S
H2577 C2565 0.929 . S
H2578 C2566 0.960 . S
H2579 C2566 0.962 . S
H2580 C2566 0.960 . S
H2581 C2567 0.961 . S
H2582 C2567 0.961 . S
H2583 C2567 0.961 . S
H2584 C2568 0.931 . S
H2585 C2573 0.930 . S
H2586 C2574 0.956 . S
H2587 C2574 0.961 . S
H2588 C2574 0.961 . S
H2589 C2575 0.958 . S
H2590 C2575 0.961 . S
H2591 C2575 0.960 . S
C2592 C2593 1.391 . S
C2592 C2594 1.394 . S
C2592 H2608 0.931 . S
C2593 C2592 1.391 . S
C2593 C2597 1.376 . S
C2594 C2592 1.394 . S
C2594 C2595 1.369 . S
C2594 C2598 1.531 . S
C2595 C2594 1.369 . S
C2595 C2596 1.410 . S
C2595 C2603 1.503 . S
C2596 C2595 1.410 . S
C2596 C2597 1.392 . S
C2596 C2599 1.511 . S
C2597 C2593 1.376 . S
C2597 C2596 1.392 . S
C2597 H2609 0.929 . S
C2598 C2594 1.531 . S
C2598 H2610 0.960 . S
C2598 H2611 0.962 . S
C2598 H2612 0.960 . S
C2599 C2596 1.511 . S
C2599 H2613 0.961 . S
C2599 H2614 0.961 . S
C2599 H2615 0.961 . S
C2600 C2601 1.370 . S
C2600 C2602 1.363 . S
C2600 H2616 0.931 . S
C2601 C2600 1.370 . S
C2601 C2605 1.408 . S
C2602 C2600 1.363 . S
C2602 C2603 1.370 . S
C2602 C2606 1.524 . S
C2603 C2595 1.503 . S
C2603 C2602 1.370 . S
C2603 C2604 1.403 . S
C2604 C2603 1.403 . S
C2604 C2605 1.404 . S
C2604 C2607 1.539 . S
C2605 C2601 1.408 . S
C2605 C2604 1.404 . S
C2605 H2617 0.930 . S
C2606 C2602 1.524 . S
C2606 H2618 0.956 . S
C2606 H2619 0.961 . S
C2606 H2620 0.961 . S
C2607 C2604 1.539 . S
C2607 H2621 0.958 . S
C2607 H2622 0.961 . S
C2607 H2623 0.960 . S
H2608 C2592 0.931 . S
H2609 C2597 0.929 . S
H2610 C2598 0.960 . S
H2611 C2598 0.962 . S
H2612 C2598 0.960 . S
H2613 C2599 0.961 . S
H2614 C2599 0.961 . S
H2615 C2599 0.961 . S
H2616 C2600 0.931 . S
H2617 C2605 0.930 . S
H2618 C2606 0.956 . S
H2619 C2606 0.961 . S
H2620 C2606 0.961 . S
H2621 C2607 0.958 . S
H2622 C2607 0.961 . S
H2623 C2607 0.960 . S
C2624 C2625 1.391 1_565 S
C2624 C2626 1.394 . S
C2624 H2640 0.931 . S
C2625 C2624 1.391 1_545 S
C2625 C2629 1.376 . S
C2626 C2624 1.394 . S
C2626 C2627 1.369 . S
C2626 C2630 1.531 . S
C2627 C2626 1.369 . S
C2627 C2628 1.410 1_565 S
C2627 C2635 1.503 . S
C2628 C2627 1.410 1_545 S
C2628 C2629 1.392 . S
C2628 C2631 1.511 . S
C2629 C2625 1.376 . S
C2629 C2628 1.392 . S
C2629 H2641 0.929 . S
C2630 C2626 1.531 . S
C2630 H2642 0.960 . S
C2630 H2643 0.962 . S
C2630 H2644 0.960 . S
C2631 C2628 1.511 . S
C2631 H2645 0.961 . S
C2631 H2646 0.961 . S
C2631 H2647 0.961 . S
C2632 C2633 1.370 . S
C2632 C2634 1.363 . S
C2632 H2648 0.931 . S
C2633 C2632 1.370 . S
C2633 C2637 1.408 . S
C2634 C2632 1.363 . S
C2634 C2635 1.370 . S
C2634 C2638 1.524 . S
C2635 C2627 1.503 . S
C2635 C2634 1.370 . S
C2635 C2636 1.403 . S
C2636 C2635 1.403 . S
C2636 C2637 1.404 . S
C2636 C2639 1.539 . S
C2637 C2633 1.408 . S
C2637 C2636 1.404 . S
C2637 H2649 0.930 . S
C2638 C2634 1.524 . S
C2638 H2650 0.956 . S
C2638 H2651 0.961 . S
C2638 H2652 0.961 . S
C2639 C2636 1.539 . S
C2639 H2653 0.958 . S
C2639 H2654 0.961 1_565 S
C2639 H2655 0.960 1_565 S
H2640 C2624 0.931 . S
H2641 C2629 0.929 . S
H2642 C2630 0.960 . S
H2643 C2630 0.962 . S
H2644 C2630 0.960 . S
H2645 C2631 0.961 . S
H2646 C2631 0.961 . S
H2647 C2631 0.961 . S
H2648 C2632 0.931 . S
H2649 C2637 0.930 . S
H2650 C2638 0.956 . S
H2651 C2638 0.961 . S
H2652 C2638 0.961 . S
H2653 C2639 0.958 . S
H2654 C2639 0.961 1_545 S
H2655 C2639 0.960 1_545 S
C2656 C2657 1.391 . S
C2656 C2658 1.394 . S
C2656 H2672 0.931 . S
C2657 C2656 1.391 . S
C2657 C2661 1.376 . S
C2658 C2656 1.394 . S
C2658 C2659 1.369 . S
C2658 C2662 1.531 . S
C2659 C2658 1.369 . S
C2659 C2660 1.410 . S
C2659 C2667 1.503 . S
C2660 C2659 1.410 . S
C2660 C2661 1.392 . S
C2660 C2663 1.511 . S
C2661 C2657 1.376 . S
C2661 C2660 1.392 . S
C2661 H2673 0.929 . S
C2662 C2658 1.531 . S
C2662 H2674 0.960 . S
C2662 H2675 0.962 1_455 S
C2662 H2676 0.960 . S
C2663 C2660 1.511 . S
C2663 H2677 0.961 . S
C2663 H2678 0.961 . S
C2663 H2679 0.961 . S
C2664 C2665 1.370 . S
C2664 C2666 1.363 . S
C2664 H2680 0.931 . S
C2665 C2664 1.370 . S
C2665 C2669 1.408 1_655 S
C2666 C2664 1.363 . S
C2666 C2667 1.370 1_655 S
C2666 C2670 1.524 . S
C2667 C2659 1.503 . S
C2667 C2666 1.370 1_455 S
C2667 C2668 1.403 . S
C2668 C2667 1.403 . S
C2668 C2669 1.404 . S
C2668 C2671 1.539 . S
C2669 C2665 1.408 1_455 S
C2669 C2668 1.404 . S
C2669 H2681 0.930 . S
C2670 C2666 1.524 . S
C2670 H2682 0.956 . S
C2670 H2683 0.961 . S
C2670 H2684 0.961 . S
C2671 C2668 1.539 . S
C2671 H2685 0.958 . S
C2671 H2686 0.961 . S
C2671 H2687 0.960 . S
H2672 C2656 0.931 . S
H2673 C2661 0.929 . S
H2674 C2662 0.960 . S
H2675 C2662 0.962 1_655 S
H2676 C2662 0.960 . S
H2677 C2663 0.961 . S
H2678 C2663 0.961 . S
H2679 C2663 0.961 . S
H2680 C2664 0.931 . S
H2681 C2669 0.930 . S
H2682 C2670 0.956 . S
H2683 C2670 0.961 . S
H2684 C2670 0.961 . S
H2685 C2671 0.958 . S
H2686 C2671 0.961 . S
H2687 C2671 0.960 . S
C2688 C2689 1.391 . S
C2688 C2690 1.394 . S
C2688 H2704 0.931 . S
C2689 C2688 1.391 . S
C2689 C2693 1.376 . S
C2690 C2688 1.394 . S
C2690 C2691 1.369 . S
C2690 C2694 1.531 . S
C2691 C2690 1.369 . S
C2691 C2692 1.410 . S
C2691 C2699 1.503 . S
C2692 C2691 1.410 . S
C2692 C2693 1.392 . S
C2692 C2695 1.511 . S
C2693 C2689 1.376 . S
C2693 C2692 1.392 . S
C2693 H2705 0.929 . S
C2694 C2690 1.531 . S
C2694 H2706 0.960 . S
C2694 H2707 0.962 . S
C2694 H2708 0.960 . S
C2695 C2692 1.511 . S
C2695 H2709 0.961 . S
C2695 H2710 0.961 . S
C2695 H2711 0.961 . S
C2696 C2697 1.370 . S
C2696 C2698 1.363 . S
C2696 H2712 0.931 . S
C2697 C2696 1.370 . S
C2697 C2701 1.408 . S
C2698 C2696 1.363 . S
C2698 C2699 1.370 . S
C2698 C2702 1.524 . S
C2699 C2691 1.503 . S
C2699 C2698 1.370 . S
C2699 C2700 1.403 . S
C2700 C2699 1.403 . S
C2700 C2701 1.404 . S
C2700 C2703 1.539 . S
C2701 C2697 1.408 . S
C2701 C2700 1.404 . S
C2701 H2713 0.930 . S
C2702 C2698 1.524 . S
C2702 H2714 0.956 . S
C2702 H2715 0.961 . S
C2702 H2716 0.961 . S
C2703 C2700 1.539 . S
C2703 H2717 0.958 . S
C2703 H2718 0.961 . S
C2703 H2719 0.960 . S
H2704 C2688 0.931 . S
H2705 C2693 0.929 . S
H2706 C2694 0.960 . S
H2707 C2694 0.962 . S
H2708 C2694 0.960 . S
H2709 C2695 0.961 . S
H2710 C2695 0.961 . S
H2711 C2695 0.961 . S
H2712 C2696 0.931 . S
H2713 C2701 0.930 . S
H2714 C2702 0.956 . S
H2715 C2702 0.961 . S
H2716 C2702 0.961 . S
H2717 C2703 0.958 . S
H2718 C2703 0.961 . S
H2719 C2703 0.960 . S
C2720 C2721 1.391 1_545 S
C2720 C2722 1.394 . S
C2720 H2736 0.931 . S
C2721 C2720 1.391 1_565 S
C2721 C2725 1.376 . S
C2722 C2720 1.394 . S
C2722 C2723 1.369 . S
C2722 C2726 1.531 . S
C2723 C2722 1.369 . S
C2723 C2724 1.410 1_545 S
C2723 C2731 1.503 . S
C2724 C2723 1.410 1_565 S
C2724 C2725 1.392 . S
C2724 C2727 1.511 . S
C2725 C2721 1.376 . S
C2725 C2724 1.392 . S
C2725 H2737 0.929 . S
C2726 C2722 1.531 . S
C2726 H2738 0.960 . S
C2726 H2739 0.962 . S
C2726 H2740 0.960 . S
C2727 C2724 1.511 . S
C2727 H2741 0.961 . S
C2727 H2742 0.961 1_565 S
C2727 H2743 0.961 . S
C2728 C2729 1.370 . S
C2728 C2730 1.363 . S
C2728 H2744 0.931 . S
C2729 C2728 1.370 . S
C2729 C2733 1.408 . S
C2730 C2728 1.363 . S
C2730 C2731 1.370 . S
C2730 C2734 1.524 . S
C2731 C2723 1.503 . S
C2731 C2730 1.370 . S
C2731 C2732 1.403 . S
C2732 C2731 1.403 . S
C2732 C2733 1.404 . S
C2732 C2735 1.539 1_545 S
C2733 C2729 1.408 . S
C2733 C2732 1.404 . S
C2733 H2745 0.930 . S
C2734 C2730 1.524 . S
C2734 H2746 0.956 . S
C2734 H2747 0.961 . S
C2734 H2748 0.961 . S
C2735 C2732 1.539 1_565 S
C2735 H2749 0.958 . S
C2735 H2750 0.961 . S
C2735 H2751 0.960 . S
H2736 C2720 0.931 . S
H2737 C2725 0.929 . S
H2738 C2726 0.960 . S
H2739 C2726 0.962 . S
H2740 C2726 0.960 . S
H2741 C2727 0.961 . S
H2742 C2727 0.961 1_545 S
H2743 C2727 0.961 . S
H2744 C2728 0.931 . S
H2745 C2733 0.930 . S
H2746 C2734 0.956 . S
H2747 C2734 0.961 . S
H2748 C2734 0.961 . S
H2749 C2735 0.958 . S
H2750 C2735 0.961 . S
H2751 C2735 0.960 . S
C2752 C2753 1.391 . S
C2752 C2754 1.394 . S
C2752 H2768 0.931 . S
C2753 C2752 1.391 . S
C2753 C2757 1.376 . S
C2754 C2752 1.394 . S
C2754 C2755 1.369 . S
C2754 C2758 1.531 . S
C2755 C2754 1.369 . S
C2755 C2756 1.410 . S
C2755 C2763 1.503 . S
C2756 C2755 1.410 . S
C2756 C2757 1.392 . S
C2756 C2759 1.511 . S
C2757 C2753 1.376 . S
C2757 C2756 1.392 . S
C2757 H2769 0.929 . S
C2758 C2754 1.531 . S
C2758 H2770 0.960 . S
C2758 H2771 0.962 . S
C2758 H2772 0.960 . S
C2759 C2756 1.511 . S
C2759 H2773 0.961 . S
C2759 H2774 0.961 . S
C2759 H2775 0.961 . S
C2760 C2761 1.370 . S
C2760 C2762 1.363 . S
C2760 H2776 0.931 . S
C2761 C2760 1.370 . S
C2761 C2765 1.408 1_455 S
C2762 C2760 1.363 . S
C2762 C2763 1.370 1_455 S
C2762 C2766 1.524 . S
C2763 C2755 1.503 . S
C2763 C2762 1.370 1_655 S
C2763 C2764 1.403 . S
C2764 C2763 1.403 . S
C2764 C2765 1.404 . S
C2764 C2767 1.539 . S
C2765 C2761 1.408 1_655 S
C2765 C2764 1.404 . S
C2765 H2777 0.930 . S
C2766 C2762 1.524 . S
C2766 H2778 0.956 . S
C2766 H2779 0.961 . S
C2766 H2780 0.961 . S
C2767 C2764 1.539 . S
C2767 H2781 0.958 . S
C2767 H2782 0.961 . S
C2767 H2783 0.960 . S
H2768 C2752 0.931 . S
H2769 C2757 0.929 . S
H2770 C2758 0.960 . S
H2771 C2758 0.962 . S
H2772 C2758 0.960 . S
H2773 C2759 0.961 . S
H2774 C2759 0.961 . S
H2775 C2759 0.961 . S
H2776 C2760 0.931 . S
H2777 C2765 0.930 . S
H2778 C2766 0.956 . S
H2779 C2766 0.961 . S
H2780 C2766 0.961 . S
H2781 C2767 0.958 . S
H2782 C2767 0.961 . S
H2783 C2767 0.960 . S
C2784 C2785 1.391 . S
C2784 C2786 1.394 . S
C2784 H2800 0.931 . S
C2785 C2784 1.391 . S
C2785 C2789 1.376 . S
C2786 C2784 1.394 . S
C2786 C2787 1.369 . S
C2786 C2790 1.531 . S
C2787 C2786 1.369 . S
C2787 C2788 1.410 . S
C2787 C2795 1.503 . S
C2788 C2787 1.410 . S
C2788 C2789 1.392 . S
C2788 C2791 1.511 . S
C2789 C2785 1.376 . S
C2789 C2788 1.392 . S
C2789 H2801 0.929 . S
C2790 C2786 1.531 . S
C2790 H2802 0.960 . S
C2790 H2803 0.962 . S
C2790 H2804 0.960 . S
C2791 C2788 1.511 . S
C2791 H2805 0.961 . S
C2791 H2806 0.961 . S
C2791 H2807 0.961 . S
C2792 C2793 1.370 . S
C2792 C2794 1.363 . S
C2792 H2808 0.931 . S
C2793 C2792 1.370 . S
C2793 C2797 1.408 . S
C2794 C2792 1.363 . S
C2794 C2795 1.370 . S
C2794 C2798 1.524 . S
C2795 C2787 1.503 . S
C2795 C2794 1.370 . S
C2795 C2796 1.403 . S
C2796 C2795 1.403 . S
C2796 C2797 1.404 . S
C2796 C2799 1.539 . S
C2797 C2793 1.408 . S
C2797 C2796 1.404 . S
C2797 H2809 0.930 . S
C2798 C2794 1.524 . S
C2798 H2810 0.956 . S
C2798 H2811 0.961 . S
C2798 H2812 0.961 . S
C2799 C2796 1.539 . S
C2799 H2813 0.958 . S
C2799 H2814 0.961 . S
C2799 H2815 0.960 . S
H2800 C2784 0.931 . S
H2801 C2789 0.929 . S
H2802 C2790 0.960 . S
H2803 C2790 0.962 . S
H2804 C2790 0.960 . S
H2805 C2791 0.961 . S
H2806 C2791 0.961 . S
H2807 C2791 0.961 . S
H2808 C2792 0.931 . S
H2809 C2797 0.930 . S
H2810 C2798 0.956 . S
H2811 C2798 0.961 . S
H2812 C2798 0.961 . S
H2813 C2799 0.958 . S
H2814 C2799 0.961 . S
H2815 C2799 0.960 . S
C2816 C2817 1.391 . S
C2816 C2818 1.394 . S
C2816 H2832 0.931 . S
C2817 C2816 1.391 . S
C2817 C2821 1.376 . S
C2818 C2816 1.394 . S
C2818 C2819 1.369 . S
C2818 C2822 1.531 . S
C2819 C2818 1.369 . S
C2819 C2820 1.410 . S
C2819 C2827 1.503 . S
C2820 C2819 1.410 . S
C2820 C2821 1.392 . S
C2820 C2823 1.511 1_545 S
C2821 C2817 1.376 . S
C2821 C2820 1.392 . S
C2821 H2833 0.929 . S
C2822 C2818 1.531 . S
C2822 H2834 0.960 . S
C2822 H2835 0.962 . S
C2822 H2836 0.960 . S
C2823 C2820 1.511 1_565 S
C2823 H2837 0.961 . S
C2823 H2838 0.961 . S
C2823 H2839 0.957 1_565 S
C2824 C2825 1.370 . S
C2824 C2826 1.363 . S
C2824 H2840 0.931 . S
C2825 C2824 1.370 . S
C2825 C2829 1.408 1_565 S
C2826 C2824 1.363 . S
C2826 C2827 1.370 1_565 S
C2826 C2830 1.524 . S
C2827 C2819 1.503 . S
C2827 C2826 1.370 1_545 S
C2827 C2828 1.403 . S
C2828 C2827 1.403 . S
C2828 C2829 1.404 . S
C2828 C2831 1.539 . S
C2829 C2825 1.408 1_545 S
C2829 C2828 1.404 . S
C2829 H2841 0.930 . S
C2830 C2826 1.524 . S
C2830 H2842 0.956 1_565 S
C2830 H2843 0.961 . S
C2830 H2844 0.961 . S
C2831 C2828 1.539 . S
C2831 H2845 0.958 . S
C2831 H2846 0.961 . S
C2831 H2847 0.960 . S
H2832 C2816 0.931 . S
H2833 C2821 0.929 . S
H2834 C2822 0.960 . S
H2835 C2822 0.962 . S
H2836 C2822 0.960 . S
H2837 C2823 0.961 . S
H2838 C2823 0.961 . S
H2839 C2823 0.957 1_545 S
H2840 C2824 0.931 . S
H2841 C2829 0.930 . S
H2842 C2830 0.956 1_545 S
H2843 C2830 0.961 . S
H2844 C2830 0.961 . S
H2845 C2831 0.958 . S
H2846 C2831 0.961 . S
H2847 C2831 0.960 . S
C2848 C2849 1.391 . S
C2848 C2850 1.394 . S
C2848 H2864 0.931 . S
C2849 C2848 1.391 . S
C2849 C2853 1.376 . S
C2850 C2848 1.394 . S
C2850 C2851 1.369 . S
C2850 C2854 1.531 1_655 S
C2851 C2850 1.369 . S
C2851 C2852 1.410 . S
C2851 C2859 1.503 . S
C2852 C2851 1.410 . S
C2852 C2853 1.392 . S
C2852 C2855 1.511 . S
C2853 C2849 1.376 . S
C2853 C2852 1.392 . S
C2853 H2865 0.929 . S
C2854 C2850 1.531 1_455 S
C2854 H2866 0.960 . S
C2854 H2867 0.962 . S
C2854 H2868 0.960 . S
C2855 C2852 1.511 . S
C2855 H2869 0.961 . S
C2855 H2870 0.961 . S
C2855 H2871 0.961 . S
C2856 C2857 1.370 1_655 S
C2856 C2858 1.363 . S
C2856 H2872 0.931 . S
C2857 C2856 1.370 1_455 S
C2857 C2861 1.408 . S
C2858 C2856 1.363 . S
C2858 C2859 1.370 . S
C2858 C2862 1.524 . S
C2859 C2851 1.503 . S
C2859 C2858 1.370 . S
C2859 C2860 1.403 1_655 S
C2860 C2859 1.403 1_455 S
C2860 C2861 1.404 . S
C2860 C2863 1.539 . S
C2861 C2857 1.408 . S
C2861 C2860 1.404 . S
C2861 H2873 0.930 . S
C2862 C2858 1.524 . S
C2862 H2874 0.956 . S
C2862 H2875 0.961 . S
C2862 H2876 0.961 . S
C2863 C2860 1.539 . S
C2863 H2877 0.958 . S
C2863 H2878 0.961 . S
C2863 H2879 0.960 1_455 S
H2864 C2848 0.931 . S
H2865 C2853 0.929 . S
H2866 C2854 0.960 . S
H2867 C2854 0.962 . S
H2868 C2854 0.960 . S
H2869 C2855 0.961 . S
H2870 C2855 0.961 . S
H2871 C2855 0.961 . S
H2872 C2856 0.931 . S
H2873 C2861 0.930 . S
H2874 C2862 0.956 . S
H2875 C2862 0.961 . S
H2876 C2862 0.961 . S
H2877 C2863 0.958 . S
H2878 C2863 0.961 . S
H2879 C2863 0.960 1_655 S
C2880 C2881 1.391 . S
C2880 C2882 1.394 . S
C2880 H2896 0.931 . S
C2881 C2880 1.391 . S
C2881 C2885 1.376 . S
C2882 C2880 1.394 . S
C2882 C2883 1.369 . S
C2882 C2886 1.531 . S
C2883 C2882 1.369 . S
C2883 C2884 1.410 . S
C2883 C2891 1.503 . S
C2884 C2883 1.410 . S
C2884 C2885 1.392 . S
C2884 C2887 1.511 . S
C2885 C2881 1.376 . S
C2885 C2884 1.392 . S
C2885 H2897 0.929 . S
C2886 C2882 1.531 . S
C2886 H2898 0.960 . S
C2886 H2899 0.962 . S
C2886 H2900 0.960 . S
C2887 C2884 1.511 . S
C2887 H2901 0.961 . S
C2887 H2902 0.961 . S
C2887 H2903 0.961 . S
C2888 C2889 1.370 . S
C2888 C2890 1.363 . S
C2888 H2904 0.931 . S
C2889 C2888 1.370 . S
C2889 C2893 1.408 . S
C2890 C2888 1.363 . S
C2890 C2891 1.370 . S
C2890 C2894 1.524 . S
C2891 C2883 1.503 . S
C2891 C2890 1.370 . S
C2891 C2892 1.403 . S
C2892 C2891 1.403 . S
C2892 C2893 1.404 . S
C2892 C2895 1.539 . S
C2893 C2889 1.408 . S
C2893 C2892 1.404 . S
C2893 H2905 0.930 . S
C2894 C2890 1.524 . S
C2894 H2906 0.956 . S
C2894 H2907 0.961 . S
C2894 H2908 0.961 . S
C2895 C2892 1.539 . S
C2895 H2909 0.958 . S
C2895 H2910 0.961 . S
C2895 H2911 0.960 . S
H2896 C2880 0.931 . S
H2897 C2885 0.929 . S
H2898 C2886 0.960 . S
H2899 C2886 0.962 . S
H2900 C2886 0.960 . S
H2901 C2887 0.961 . S
H2902 C2887 0.961 . S
H2903 C2887 0.961 . S
H2904 C2888 0.931 . S
H2905 C2893 0.930 . S
H2906 C2894 0.956 . S
H2907 C2894 0.961 . S
H2908 C2894 0.961 . S
H2909 C2895 0.958 . S
H2910 C2895 0.961 . S
H2911 C2895 0.960 . S
C2912 C2913 1.391 1_565 S
C2912 C2914 1.394 . S
C2912 H2928 0.932 1_565 S
C2913 C2912 1.391 1_545 S
C2913 C2917 1.376 1_545 S
C2914 C2912 1.394 . S
C2914 C2915 1.369 . S
C2914 C2918 1.531 . S
C2915 C2914 1.369 . S
C2915 C2916 1.410 . S
C2915 C2923 1.503 . S
C2916 C2915 1.410 . S
C2916 C2917 1.392 . S
C2916 C2919 1.511 . S
C2917 C2913 1.376 1_565 S
C2917 C2916 1.392 . S
C2917 H2929 0.929 1_565 S
C2918 C2914 1.531 . S
C2918 H2930 0.960 . S
C2918 H2931 0.962 . S
C2918 H2932 0.960 . S
C2919 C2916 1.511 . S
C2919 H2933 0.961 . S
C2919 H2934 0.961 . S
C2919 H2935 0.961 . S
C2920 C2921 1.370 . S
C2920 C2922 1.363 . S
C2920 H2936 0.931 . S
C2921 C2920 1.370 . S
C2921 C2925 1.408 . S
C2922 C2920 1.363 . S
C2922 C2923 1.370 . S
C2922 C2926 1.524 1_565 S
C2923 C2915 1.503 . S
C2923 C2922 1.370 . S
C2923 C2924 1.403 . S
C2924 C2923 1.403 . S
C2924 C2925 1.404 . S
C2924 C2927 1.539 . S
C2925 C2921 1.408 . S
C2925 C2924 1.404 . S
C2925 H2937 0.930 . S
C2926 C2922 1.524 1_545 S
C2926 H2938 0.956 . S
C2926 H2939 0.961 . S
C2926 H2940 0.961 . S
C2927 C2924 1.539 . S
C2927 H2941 0.958 . S
C2927 H2942 0.961 . S
C2927 H2943 0.960 . S
H2928 C2912 0.932 1_545 S
H2929 C2917 0.929 1_545 S
H2930 C2918 0.960 . S
H2931 C2918 0.962 . S
H2932 C2918 0.960 . S
H2933 C2919 0.961 . S
H2934 C2919 0.961 . S
H2935 C2919 0.961 . S
H2936 C2920 0.931 . S
H2937 C2925 0.930 . S
H2938 C2926 0.956 . S
H2939 C2926 0.961 . S
H2940 C2926 0.961 . S
H2941 C2927 0.958 . S
H2942 C2927 0.961 . S
H2943 C2927 0.960 . S
C2944 C2945 1.391 1_455 S
C2944 C2946 1.394 . S
C2944 H2960 0.931 . S
C2945 C2944 1.391 1_655 S
C2945 C2949 1.376 . S
C2946 C2944 1.394 . S
C2946 C2947 1.369 . S
C2946 C2950 1.531 . S
C2947 C2946 1.369 . S
C2947 C2948 1.410 1_455 S
C2947 C2955 1.503 . S
C2948 C2947 1.410 1_655 S
C2948 C2949 1.392 . S
C2948 C2951 1.511 . S
C2949 C2945 1.376 . S
C2949 C2948 1.392 . S
C2949 H2961 0.929 . S
C2950 C2946 1.531 . S
C2950 H2962 0.960 . S
C2950 H2963 0.962 . S
C2950 H2964 0.960 . S
C2951 C2948 1.511 . S
C2951 H2965 0.961 . S
C2951 H2966 0.961 . S
C2951 H2967 0.961 . S
C2952 C2953 1.370 . S
C2952 C2954 1.363 . S
C2952 H2968 0.931 . S
C2953 C2952 1.370 . S
C2953 C2957 1.408 . S
C2954 C2952 1.363 . S
C2954 C2955 1.370 . S
C2954 C2958 1.524 . S
C2955 C2947 1.503 . S
C2955 C2954 1.370 . S
C2955 C2956 1.403 . S
C2956 C2955 1.403 . S
C2956 C2957 1.404 . S
C2956 C2959 1.539 1_455 S
C2957 C2953 1.408 . S
C2957 C2956 1.404 . S
C2957 H2969 0.930 . S
C2958 C2954 1.524 . S
C2958 H2970 0.956 . S
C2958 H2971 0.961 . S
C2958 H2972 0.961 . S
C2959 C2956 1.539 1_655 S
C2959 H2973 0.958 . S
C2959 H2974 0.961 . S
C2959 H2975 0.960 . S
H2960 C2944 0.931 . S
H2961 C2949 0.929 . S
H2962 C2950 0.960 . S
H2963 C2950 0.962 . S
H2964 C2950 0.960 . S
H2965 C2951 0.961 . S
H2966 C2951 0.961 . S
H2967 C2951 0.961 . S
H2968 C2952 0.931 . S
H2969 C2957 0.930 . S
H2970 C2958 0.956 . S
H2971 C2958 0.961 . S
H2972 C2958 0.961 . S
H2973 C2959 0.958 . S
H2974 C2959 0.961 . S
H2975 C2959 0.960 . S
C2976 C2977 1.391 . S
C2976 C2978 1.394 . S
C2976 H2992 0.931 . S
C2977 C2976 1.391 . S
C2977 C2981 1.376 . S
C2978 C2976 1.394 . S
C2978 C2979 1.369 1_655 S
C2978 C2982 1.531 . S
C2979 C2978 1.369 1_455 S
C2979 C2980 1.410 1_455 S
C2979 C2987 1.503 . S
C2980 C2979 1.410 1_655 S
C2980 C2981 1.392 . S
C2980 C2983 1.511 1_655 S
C2981 C2977 1.376 . S
C2981 C2980 1.392 . S
C2981 H2993 0.929 . S
C2982 C2978 1.531 . S
C2982 H2994 0.960 1_655 S
C2982 H2995 0.963 1_655 S
C2982 H2996 0.960 . S
C2983 C2980 1.511 1_455 S
C2983 H2997 0.961 1_455 S
C2983 H2998 0.961 . S
C2983 H2999 0.961 . S
C2984 C2985 1.370 . S
C2984 C2986 1.363 . S
C2984 H3000 0.931 . S
C2985 C2984 1.370 . S
C2985 C2989 1.408 . S
C2986 C2984 1.363 . S
C2986 C2987 1.370 . S
C2986 C2990 1.524 . S
C2987 C2979 1.503 . S
C2987 C2986 1.370 . S
C2987 C2988 1.403 . S
C2988 C2987 1.403 . S
C2988 C2989 1.404 . S
C2988 C2991 1.539 . S
C2989 C2985 1.408 . S
C2989 C2988 1.404 . S
C2989 H3001 0.930 . S
C2990 C2986 1.524 . S
C2990 H3002 0.956 . S
C2990 H3003 0.961 . S
C2990 H3004 0.961 . S
C2991 C2988 1.539 . S
C2991 H3005 0.958 . S
C2991 H3006 0.961 . S
C2991 H3007 0.960 . S
H2992 C2976 0.931 . S
H2993 C2981 0.929 . S
H2994 C2982 0.960 1_455 S
H2995 C2982 0.963 1_455 S
H2996 C2982 0.960 . S
H2997 C2983 0.961 1_655 S
H2998 C2983 0.961 . S
H2999 C2983 0.961 . S
H3000 C2984 0.931 . S
H3001 C2989 0.930 . S
H3002 C2990 0.956 . S
H3003 C2990 0.961 . S
H3004 C2990 0.961 . S
H3005 C2991 0.958 . S
H3006 C2991 0.961 . S
H3007 C2991 0.960 . S
C3008 C3009 1.391 . S
C3008 C3010 1.394 . S
C3008 H3024 0.931 . S
C3009 C3008 1.391 . S
C3009 C3013 1.376 . S
C3010 C3008 1.394 . S
C3010 C3011 1.369 . S
C3010 C3014 1.531 . S
C3011 C3010 1.369 . S
C3011 C3012 1.410 . S
C3011 C3019 1.503 . S
C3012 C3011 1.410 . S
C3012 C3013 1.392 . S
C3012 C3015 1.511 . S
C3013 C3009 1.376 . S
C3013 C3012 1.392 . S
C3013 H3025 0.929 . S
C3014 C3010 1.531 . S
C3014 H3026 0.960 . S
C3014 H3027 0.962 . S
C3014 H3028 0.960 . S
C3015 C3012 1.511 . S
C3015 H3029 0.961 . S
C3015 H3030 0.961 . S
C3015 H3031 0.961 . S
C3016 C3017 1.370 . S
C3016 C3018 1.363 . S
C3016 H3032 0.931 . S
C3017 C3016 1.370 . S
C3017 C3021 1.408 . S
C3018 C3016 1.363 . S
C3018 C3019 1.370 . S
C3018 C3022 1.524 . S
C3019 C3011 1.503 . S
C3019 C3018 1.370 . S
C3019 C3020 1.403 . S
C3020 C3019 1.403 . S
C3020 C3021 1.404 . S
C3020 C3023 1.539 . S
C3021 C3017 1.408 . S
C3021 C3020 1.404 . S
C3021 H3033 0.930 . S
C3022 C3018 1.524 . S
C3022 H3034 0.956 . S
C3022 H3035 0.961 . S
C3022 H3036 0.961 . S
C3023 C3020 1.539 . S
C3023 H3037 0.958 . S
C3023 H3038 0.961 . S
C3023 H3039 0.960 . S
H3024 C3008 0.931 . S
H3025 C3013 0.929 . S
H3026 C3014 0.960 . S
H3027 C3014 0.962 . S
H3028 C3014 0.960 . S
H3029 C3015 0.961 . S
H3030 C3015 0.961 . S
H3031 C3015 0.961 . S
H3032 C3016 0.931 . S
H3033 C3021 0.930 . S
H3034 C3022 0.956 . S
H3035 C3022 0.961 . S
H3036 C3022 0.961 . S
H3037 C3023 0.958 . S
H3038 C3023 0.961 . S
H3039 C3023 0.960 . S
C3040 C3041 1.391 . S
C3040 C3042 1.394 . S
C3040 H3056 0.931 . S
C3041 C3040 1.391 . S
C3041 C3045 1.376 . S
C3042 C3040 1.394 . S
C3042 C3043 1.369 . S
C3042 C3046 1.531 . S
C3043 C3042 1.369 . S
C3043 C3044 1.410 . S
C3043 C3051 1.503 . S
C3044 C3043 1.410 . S
C3044 C3045 1.392 . S
C3044 C3047 1.511 . S
C3045 C3041 1.376 . S
C3045 C3044 1.392 . S
C3045 H3057 0.929 . S
C3046 C3042 1.531 . S
C3046 H3058 0.960 . S
C3046 H3059 0.962 . S
C3046 H3060 0.960 . S
C3047 C3044 1.511 . S
C3047 H3061 0.961 . S
C3047 H3062 0.961 . S
C3047 H3063 0.961 . S
C3048 C3049 1.370 . S
C3048 C3050 1.363 . S
C3048 H3064 0.931 . S
C3049 C3048 1.370 . S
C3049 C3053 1.408 . S
C3050 C3048 1.363 . S
C3050 C3051 1.370 1_545 S
C3050 C3054 1.542 . S
C3051 C3043 1.503 . S
C3051 C3050 1.370 1_565 S
C3051 C3052 1.403 1_565 S
C3052 C3051 1.403 1_545 S
C3052 C3053 1.404 . S
C3052 C3055 1.539 1_545 S
C3053 C3049 1.408 . S
C3053 C3052 1.404 . S
C3053 H3065 0.930 . S
C3054 C3050 1.542 . S
C3054 H3066 0.952 1_545 S
C3054 H3067 0.939 1_545 S
C3054 H3068 0.969 . S
C3055 C3052 1.539 1_565 S
C3055 H3069 0.958 . S
C3055 H3070 0.961 1_565 S
C3055 H3071 0.960 . S
H3056 C3040 0.931 . S
H3057 C3045 0.929 . S
H3058 C3046 0.960 . S
H3059 C3046 0.962 . S
H3060 C3046 0.960 . S
H3061 C3047 0.961 . S
H3062 C3047 0.961 . S
H3063 C3047 0.961 . S
H3064 C3048 0.931 . S
H3065 C3053 0.930 . S
H3066 C3054 0.952 1_565 S
H3067 C3054 0.939 1_565 S
H3068 C3054 0.969 . S
H3069 C3055 0.958 . S
H3070 C3055 0.961 1_545 S
H3071 C3055 0.960 . S
C3072 C3073 1.391 . S
C3072 C3074 1.394 . S
C3072 H3088 0.931 . S
C3073 C3072 1.391 . S
C3073 C3077 1.376 . S
C3074 C3072 1.394 . S
C3074 C3075 1.369 . S
C3074 C3078 1.531 . S
C3075 C3074 1.369 . S
C3075 C3076 1.410 . S
C3075 C3083 1.503 . S
C3076 C3075 1.410 . S
C3076 C3077 1.392 . S
C3076 C3079 1.511 . S
C3077 C3073 1.376 . S
C3077 C3076 1.392 . S
C3077 H3089 0.929 . S
C3078 C3074 1.531 . S
C3078 H3090 0.960 . S
C3078 H3091 0.962 . S
C3078 H3092 0.960 . S
C3079 C3076 1.511 . S
C3079 H3093 0.961 . S
C3079 H3094 0.961 . S
C3079 H3095 0.961 . S
C3080 C3081 1.370 1_455 S
C3080 C3082 1.363 . S
C3080 H3096 0.931 . S
C3081 C3080 1.370 1_655 S
C3081 C3085 1.408 . S
C3082 C3080 1.363 . S
C3082 C3083 1.370 . S
C3082 C3086 1.524 . S
C3083 C3075 1.503 . S
C3083 C3082 1.370 . S
C3083 C3084 1.403 . S
C3084 C3083 1.403 . S
C3084 C3085 1.404 1_455 S
C3084 C3087 1.539 1_455 S
C3085 C3081 1.408 . S
C3085 C3084 1.404 1_655 S
C3085 H3097 0.930 . S
C3086 C3082 1.524 . S
C3086 H3098 0.956 . S
C3086 H3099 0.961 . S
C3086 H3100 0.961 . S
C3087 C3084 1.539 1_655 S
C3087 H3101 0.958 . S
C3087 H3102 0.961 . S
C3087 H3103 0.960 1_655 S
H3088 C3072 0.931 . S
H3089 C3077 0.929 . S
H3090 C3078 0.960 . S
H3091 C3078 0.962 . S
H3092 C3078 0.960 . S
H3093 C3079 0.961 . S
H3094 C3079 0.961 . S
H3095 C3079 0.961 . S
H3096 C3080 0.931 . S
H3097 C3085 0.930 . S
H3098 C3086 0.956 . S
H3099 C3086 0.961 . S
H3100 C3086 0.961 . S
H3101 C3087 0.958 . S
H3102 C3087 0.961 . S
H3103 C3087 0.960 1_455 S
C3104 C3105 1.391 . S
C3104 C3106 1.394 . S
C3104 H3120 0.931 . S
C3105 C3104 1.391 . S
C3105 C3109 1.376 . S
C3106 C3104 1.394 . S
C3106 C3107 1.369 . S
C3106 C3110 1.531 . S
C3107 C3106 1.369 . S
C3107 C3108 1.410 . S
C3107 C3115 1.503 . S
C3108 C3107 1.410 . S
C3108 C3109 1.392 . S
C3108 C3111 1.511 . S
C3109 C3105 1.376 . S
C3109 C3108 1.392 . S
C3109 H3121 0.929 . S
C3110 C3106 1.531 . S
C3110 H3122 0.960 . S
C3110 H3123 0.962 . S
C3110 H3124 0.960 . S
C3111 C3108 1.511 . S
C3111 H3125 0.961 . S
C3111 H3126 0.961 . S
C3111 H3127 0.961 . S
C3112 C3113 1.370 . S
C3112 C3114 1.363 . S
C3112 H3128 0.931 . S
C3113 C3112 1.370 . S
C3113 C3117 1.408 . S
C3114 C3112 1.363 . S
C3114 C3115 1.370 . S
C3114 C3118 1.524 . S
C3115 C3107 1.503 . S
C3115 C3114 1.370 . S
C3115 C3116 1.403 . S
C3116 C3115 1.403 . S
C3116 C3117 1.404 . S
C3116 C3119 1.539 . S
C3117 C3113 1.408 . S
C3117 C3116 1.404 . S
C3117 H3129 0.930 . S
C3118 C3114 1.524 . S
C3118 H3130 0.956 . S
C3118 H3131 0.961 . S
C3118 H3132 0.961 . S
C3119 C3116 1.539 . S
C3119 H3133 0.958 . S
C3119 H3134 0.961 . S
C3119 H3135 0.960 . S
H3120 C3104 0.931 . S
H3121 C3109 0.929 . S
H3122 C3110 0.960 . S
H3123 C3110 0.962 . S
H3124 C3110 0.960 . S
H3125 C3111 0.961 . S
H3126 C3111 0.961 . S
H3127 C3111 0.961 . S
H3128 C3112 0.931 . S
H3129 C3117 0.930 . S
H3130 C3118 0.956 . S
H3131 C3118 0.961 . S
H3132 C3118 0.961 . S
H3133 C3119 0.958 . S
H3134 C3119 0.961 . S
H3135 C3119 0.960 . S
C3136 C3137 1.391 . S
C3136 C3138 1.394 . S
C3136 H3152 0.931 . S
C3137 C3136 1.391 . S
C3137 C3141 1.376 . S
C3138 C3136 1.394 . S
C3138 C3139 1.369 . S
C3138 C3142 1.531 . S
C3139 C3138 1.369 . S
C3139 C3140 1.410 . S
C3139 C3147 1.503 . S
C3140 C3139 1.410 . S
C3140 C3141 1.392 . S
C3140 C3143 1.511 . S
C3141 C3137 1.376 . S
C3141 C3140 1.392 . S
C3141 H3153 0.929 . S
C3142 C3138 1.531 . S
C3142 H3154 0.960 . S
C3142 H3155 0.962 1_565 S
C3142 H3156 0.960 . S
C3143 C3140 1.511 . S
C3143 H3157 0.961 . S
C3143 H3158 0.961 . S
C3143 H3159 0.961 . S
C3144 C3145 1.367 1_565 S
C3144 C3146 1.373 . S
C3144 H3160 0.925 1_565 S
C3145 C3144 1.367 1_545 S
C3145 C3149 1.408 1_545 S
C3146 C3144 1.373 . S
C3146 C3147 1.370 . S
C3146 C3150 1.524 . S
C3147 C3139 1.503 . S
C3147 C3146 1.370 . S
C3147 C3148 1.403 . S
C3148 C3147 1.403 . S
C3148 C3149 1.404 . S
C3148 C3151 1.539 . S
C3149 C3145 1.408 1_565 S
C3149 C3148 1.404 . S
C3149 H3161 0.930 . S
C3150 C3146 1.524 . S
C3150 H3162 0.956 . S
C3150 H3163 0.961 . S
C3150 H3164 0.961 . S
C3151 C3148 1.539 . S
C3151 H3165 0.958 . S
C3151 H3166 0.961 . S
C3151 H3167 0.960 . S
H3152 C3136 0.931 . S
H3153 C3141 0.929 . S
H3154 C3142 0.960 . S
H3155 C3142 0.962 1_545 S
H3156 C3142 0.960 . S
H3157 C3143 0.961 . S
H3158 C3143 0.961 . S
H3159 C3143 0.961 . S
H3160 C3144 0.925 1_545 S
H3161 C3149 0.930 . S
H3162 C3150 0.956 . S
H3163 C3150 0.961 . S
H3164 C3150 0.961 . S
H3165 C3151 0.958 . S
H3166 C3151 0.961 . S
H3167 C3151 0.960 . S
C3168 C3169 1.391 . S
C3168 C3170 1.394 . S
C3168 H3184 0.931 . S
C3169 C3168 1.391 . S
C3169 C3173 1.376 . S
C3170 C3168 1.394 . S
C3170 C3171 1.369 . S
C3170 C3174 1.531 . S
C3171 C3170 1.369 . S
C3171 C3172 1.410 . S
C3171 C3179 1.503 . S
C3172 C3171 1.410 . S
C3172 C3173 1.392 . S
C3172 C3175 1.511 . S
C3173 C3169 1.376 . S
C3173 C3172 1.392 . S
C3173 H3185 0.929 . S
C3174 C3170 1.531 . S
C3174 H3186 0.960 . S
C3174 H3187 0.962 . S
C3174 H3188 0.960 . S
C3175 C3172 1.511 . S
C3175 H3189 0.961 1_565 S
C3175 H3190 0.961 1_565 S
C3175 H3191 0.960 1_565 S
C3176 C3177 1.370 1_565 S
C3176 C3178 1.363 . S
C3176 H3192 0.931 1_565 S
C3177 C3176 1.370 1_545 S
C3177 C3181 1.408 1_545 S
C3178 C3176 1.363 . S
C3178 C3179 1.370 . S
C3178 C3182 1.524 . S
C3179 C3171 1.503 . S
C3179 C3178 1.370 . S
C3179 C3180 1.403 . S
C3180 C3179 1.403 . S
C3180 C3181 1.404 . S
C3180 C3183 1.539 . S
C3181 C3177 1.408 1_565 S
C3181 C3180 1.404 . S
C3181 H3193 0.930 . S
C3182 C3178 1.524 . S
C3182 H3194 0.956 . S
C3182 H3195 0.961 . S
C3182 H3196 0.961 . S
C3183 C3180 1.539 . S
C3183 H3197 0.958 . S
C3183 H3198 0.961 . S
C3183 H3199 0.960 . S
H3184 C3168 0.931 . S
H3185 C3173 0.929 . S
H3186 C3174 0.960 . S
H3187 C3174 0.962 . S
H3188 C3174 0.960 . S
H3189 C3175 0.961 1_545 S
H3190 C3175 0.961 1_545 S
H3191 C3175 0.960 1_545 S
H3192 C3176 0.931 1_545 S
H3193 C3181 0.930 . S
H3194 C3182 0.956 . S
H3195 C3182 0.961 . S
H3196 C3182 0.961 . S
H3197 C3183 0.958 . S
H3198 C3183 0.961 . S
H3199 C3183 0.960 . S
C3200 C3201 1.391 . S
C3200 C3202 1.394 1_655 S
C3200 H3216 0.931 . S
C3201 C3200 1.391 . S
C3201 C3205 1.376 1_655 S
C3202 C3200 1.394 1_455 S
C3202 C3203 1.369 . S
C3202 C3206 1.531 1_455 S
C3203 C3202 1.369 . S
C3203 C3204 1.410 . S
C3203 C3211 1.503 . S
C3204 C3203 1.410 . S
C3204 C3205 1.392 . S
C3204 C3207 1.511 . S
C3205 C3201 1.376 1_455 S
C3205 C3204 1.392 . S
C3205 H3217 0.929 . S
C3206 C3202 1.531 1_655 S
C3206 H3218 0.968 . S
C3206 H3219 0.962 1_655 S
C3206 H3220 0.960 . S
C3207 C3204 1.511 . S
C3207 H3221 0.961 . S
C3207 H3222 0.961 . S
C3207 H3223 0.961 . S
C3208 C3209 1.370 . S
C3208 C3210 1.363 . S
C3208 H3224 0.931 . S
C3209 C3208 1.370 . S
C3209 C3213 1.408 . S
C3210 C3208 1.363 . S
C3210 C3211 1.370 . S
C3210 C3214 1.524 . S
C3211 C3203 1.503 . S
C3211 C3210 1.370 . S
C3211 C3212 1.403 . S
C3212 C3211 1.403 . S
C3212 C3213 1.404 . S
C3212 C3215 1.539 . S
C3213 C3209 1.408 . S
C3213 C3212 1.404 . S
C3213 H3225 0.930 . S
C3214 C3210 1.524 . S
C3214 H3226 0.956 . S
C3214 H3227 0.961 . S
C3214 H3228 0.961 . S
C3215 C3212 1.539 . S
C3215 H3229 0.958 1_455 S
C3215 H3230 0.961 . S
C3215 H3231 0.960 . S
H3216 C3200 0.931 . S
H3217 C3205 0.929 . S
H3218 C3206 0.968 . S
H3219 C3206 0.962 1_455 S
H3220 C3206 0.960 . S
H3221 C3207 0.961 . S
H3222 C3207 0.961 . S
H3223 C3207 0.961 . S
H3224 C3208 0.931 . S
H3225 C3213 0.930 . S
H3226 C3214 0.956 . S
H3227 C3214 0.961 . S
H3228 C3214 0.961 . S
H3229 C3215 0.958 1_655 S
H3230 C3215 0.961 . S
H3231 C3215 0.960 . S
C3232 C3233 1.391 . S
C3232 C3234 1.394 . S
C3232 H3248 0.931 . S
C3233 C3232 1.391 . S
C3233 C3237 1.376 . S
C3234 C3232 1.394 . S
C3234 C3235 1.369 . S
C3234 C3238 1.531 . S
C3235 C3234 1.369 . S
C3235 C3236 1.410 . S
C3235 C3243 1.503 . S
C3236 C3235 1.410 . S
C3236 C3237 1.392 . S
C3236 C3239 1.511 . S
C3237 C3233 1.376 . S
C3237 C3236 1.392 . S
C3237 H3249 0.929 . S
C3238 C3234 1.531 . S
C3238 H3250 0.960 . S
C3238 H3251 0.962 . S
C3238 H3252 0.960 . S
C3239 C3236 1.511 . S
C3239 H3253 0.961 . S
C3239 H3254 0.961 . S
C3239 H3255 0.961 . S
C3240 C3241 1.370 . S
C3240 C3242 1.363 . S
C3240 H3256 0.931 . S
C3241 C3240 1.370 . S
C3241 C3245 1.408 . S
C3242 C3240 1.363 . S
C3242 C3243 1.370 . S
C3242 C3246 1.524 . S
C3243 C3235 1.503 . S
C3243 C3242 1.370 . S
C3243 C3244 1.403 . S
C3244 C3243 1.403 . S
C3244 C3245 1.404 . S
C3244 C3247 1.539 . S
C3245 C3241 1.408 . S
C3245 C3244 1.404 . S
C3245 H3257 0.930 . S
C3246 C3242 1.524 . S
C3246 H3258 0.956 . S
C3246 H3259 0.961 . S
C3246 H3260 0.961 . S
C3247 C3244 1.539 . S
C3247 H3261 0.958 . S
C3247 H3262 0.961 . S
C3247 H3263 0.960 . S
H3248 C3232 0.931 . S
H3249 C3237 0.929 . S
H3250 C3238 0.960 . S
H3251 C3238 0.962 . S
H3252 C3238 0.960 . S
H3253 C3239 0.961 . S
H3254 C3239 0.961 . S
H3255 C3239 0.961 . S
H3256 C3240 0.931 . S
H3257 C3245 0.930 . S
H3258 C3246 0.956 . S
H3259 C3246 0.961 . S
H3260 C3246 0.961 . S
H3261 C3247 0.958 . S
H3262 C3247 0.961 . S
H3263 C3247 0.960 . S
C3264 C3265 1.419 . S
C3264 C3266 1.394 . S
C3264 H3280 0.931 . S
C3265 C3264 1.419 . S
C3265 C3269 1.353 1_554 S
C3266 C3264 1.394 . S
C3266 C3267 1.391 . S
C3266 C3270 1.531 . S
C3267 C3266 1.391 . S
C3267 C3268 1.389 1_554 S
C3267 C3275 1.490 1_564 S
C3268 C3267 1.389 1_556 S
C3268 C3269 1.392 . S
C3268 C3271 1.537 . S
C3269 C3265 1.353 1_556 S
C3269 C3268 1.392 . S
C3269 H3281 0.955 . S
C3270 C3266 1.531 . S
C3270 H3282 0.960 . S
C3270 H3283 0.875 1_554 S
C3270 H3284 0.960 . S
C3271 C3268 1.537 . S
C3271 H3285 0.961 . S
C3271 H3286 0.961 . S
C3271 H3287 0.961 1_556 S
C3272 C3273 1.370 . S
C3272 C3274 1.363 . S
C3272 H3288 0.931 . S
C3273 C3272 1.370 . S
C3273 C3277 1.408 1_556 S
C3274 C3272 1.363 . S
C3274 C3275 1.441 . S
C3274 C3278 1.524 1_545 S
C3275 C3267 1.490 1_546 S
C3275 C3274 1.441 . S
C3275 C3276 1.344 1_556 S
C3276 C3275 1.344 1_554 S
C3276 C3277 1.404 . S
C3276 C3279 1.539 . S
C3277 C3273 1.408 1_554 S
C3277 C3276 1.404 . S
C3277 H3289 0.930 . S
C3278 C3274 1.524 1_565 S
C3278 H3290 0.956 . S
C3278 H3291 0.961 . S
C3278 H3292 0.961 1_565 S
C3279 C3276 1.539 . S
C3279 H3293 0.958 . S
C3279 H3294 0.961 . S
C3279 H3295 0.960 1_545 S
H3280 C3264 0.931 . S
H3281 C3269 0.955 . S
H3282 C3270 0.960 . S
H3283 C3270 0.875 1_556 S
H3284 C3270 0.960 . S
H3285 C3271 0.961 . S
H3286 C3271 0.961 . S
H3287 C3271 0.961 1_554 S
H3288 C3272 0.931 . S
H3289 C3277 0.930 . S
H3290 C3278 0.956 . S
H3291 C3278 0.961 . S
H3292 C3278 0.961 1_545 S
H3293 C3279 0.958 . S
H3294 C3279 0.961 . S
H3295 C3279 0.960 1_565 S
C3296 C3297 1.385 1_554 S
C3296 C3298 1.392 1_554 S
C3296 H3312 0.934 . S
C3297 C3296 1.385 1_556 S
C3297 C3301 1.402 . S
C3298 C3296 1.392 1_556 S
C3298 C3299 1.369 . S
C3298 C3302 1.529 . S
C3299 C3298 1.369 . S
C3299 C3300 1.410 . S
C3299 C3307 1.503 1_455 S
C3300 C3299 1.410 . S
C3300 C3301 1.392 . S
C3300 C3303 1.511 . S
C3301 C3297 1.402 . S
C3301 C3300 1.392 . S
C3301 H3313 0.929 . S
C3302 C3298 1.529 . S
C3302 H3314 0.952 . S
C3302 H3315 0.975 1_556 S
C3302 H3316 0.957 . S
C3303 C3300 1.511 . S
C3303 H3317 0.961 . S
C3303 H3318 0.961 . S
C3303 H3319 0.961 . S
C3304 C3305 1.370 1_554 S
C3304 C3306 1.363 . S
C3304 H3320 0.931 . S
C3305 C3304 1.370 1_556 S
C3305 C3309 1.408 . S
C3306 C3304 1.363 . S
C3306 C3307 1.370 1_554 S
C3306 C3310 1.524 . S
C3307 C3299 1.503 1_655 S
C3307 C3306 1.370 1_556 S
C3307 C3308 1.403 . S
C3308 C3307 1.403 . S
C3308 C3309 1.404 . S
C3308 C3311 1.539 1_655 S
C3309 C3305 1.408 . S
C3309 C3308 1.404 . S
C3309 H3321 0.930 . S
C3310 C3306 1.524 . S
C3310 H3322 0.956 1_655 S
C3310 H3323 0.961 1_655 S
C3310 H3324 0.961 . S
C3311 C3308 1.539 1_455 S
C3311 H3325 0.958 . S
C3311 H3326 0.961 1_455 S
C3311 H3327 0.960 . S
H3312 C3296 0.934 . S
H3313 C3301 0.929 . S
H3314 C3302 0.952 . S
H3315 C3302 0.975 1_554 S
H3316 C3302 0.957 . S
H3317 C3303 0.961 . S
H3318 C3303 0.961 . S
H3319 C3303 0.961 . S
H3320 C3304 0.931 . S
H3321 C3309 0.930 . S
H3322 C3310 0.956 1_455 S
H3323 C3310 0.961 1_455 S
H3324 C3310 0.961 . S
H3325 C3311 0.958 . S
H3326 C3311 0.961 1_655 S
H3327 C3311 0.960 . S
C3328 C3329 1.391 1_554 S
C3328 C3330 1.394 . S
C3328 H3344 0.931 . S
C3329 C3328 1.391 1_556 S
C3329 C3333 1.376 . S
C3330 C3328 1.394 . S
C3330 C3331 1.344 1_554 S
C3330 C3334 1.531 . S
C3331 C3330 1.344 1_556 S
C3331 C3332 1.444 . S
C3331 C3339 1.503 . S
C3332 C3331 1.444 . S
C3332 C3333 1.392 . S
C3332 C3335 1.511 . S
C3333 C3329 1.376 . S
C3333 C3332 1.392 . S
C3333 H3345 0.929 . S
C3334 C3330 1.531 . S
C3334 H3346 0.960 . S
C3334 H3347 0.962 . S
C3334 H3348 0.960 . S
C3335 C3332 1.511 . S
C3335 H3349 0.961 . S
C3335 H3350 0.961 . S
C3335 H3351 0.961 . S
C3336 C3337 1.370 1_556 S
C3336 C3338 1.363 . S
C3336 H3352 0.931 . S
C3337 C3336 1.370 1_554 S
C3337 C3341 1.409 . S
C3338 C3336 1.363 . S
C3338 C3339 1.387 . S
C3338 C3342 1.524 . S
C3339 C3331 1.503 . S
C3339 C3338 1.387 . S
C3339 C3340 1.385 1_556 S
C3340 C3339 1.385 1_554 S
C3340 C3341 1.404 . S
C3340 C3343 1.539 . S
C3341 C3337 1.409 . S
C3341 C3340 1.404 . S
C3341 H3353 0.930 . S
C3342 C3338 1.524 . S
C3342 H3354 0.956 . S
C3342 H3355 0.961 . S
C3342 H3356 0.961 . S
C3343 C3340 1.539 . S
C3343 H3357 0.958 . S
C3343 H3358 0.961 . S
C3343 H3359 0.960 . S
H3344 C3328 0.931 . S
H3345 C3333 0.929 . S
H3346 C3334 0.960 . S
H3347 C3334 0.962 . S
H3348 C3334 0.960 . S
H3349 C3335 0.961 . S
H3350 C3335 0.961 . S
H3351 C3335 0.961 . S
H3352 C3336 0.931 . S
H3353 C3341 0.930 . S
H3354 C3342 0.956 . S
H3355 C3342 0.961 . S
H3356 C3342 0.961 . S
H3357 C3343 0.958 . S
H3358 C3343 0.961 . S
H3359 C3343 0.960 . S
C3360 C3361 1.391 . S
C3360 C3362 1.394 . S
C3360 H3376 0.931 . S
C3361 C3360 1.391 . S
C3361 C3365 1.376 . S
C3362 C3360 1.394 . S
C3362 C3363 1.369 . S
C3362 C3366 1.531 . S
C3363 C3362 1.369 . S
C3363 C3364 1.410 . S
C3363 C3371 1.503 . S
C3364 C3363 1.410 . S
C3364 C3365 1.392 . S
C3364 C3367 1.511 . S
C3365 C3361 1.376 . S
C3365 C3364 1.392 . S
C3365 H3377 0.929 . S
C3366 C3362 1.531 . S
C3366 H3378 0.960 1_545 S
C3366 H3379 0.962 1_545 S
C3366 H3380 0.960 1_545 S
C3367 C3364 1.511 . S
C3367 H3381 0.961 . S
C3367 H3382 0.961 . S
C3367 H3383 0.961 . S
C3368 C3369 1.370 1_545 S
C3368 C3370 1.363 . S
C3368 H3384 0.931 . S
C3369 C3368 1.370 1_565 S
C3369 C3373 1.408 1_565 S
C3370 C3368 1.363 . S
C3370 C3371 1.370 . S
C3370 C3374 1.524 . S
C3371 C3363 1.503 . S
C3371 C3370 1.370 . S
C3371 C3372 1.403 . S
C3372 C3371 1.403 . S
C3372 C3373 1.404 . S
C3372 C3375 1.539 . S
C3373 C3369 1.408 1_545 S
C3373 C3372 1.404 . S
C3373 H3385 0.930 1_545 S
C3374 C3370 1.524 . S
C3374 H3386 0.956 . S
C3374 H3387 0.961 . S
C3374 H3388 0.961 . S
C3375 C3372 1.539 . S
C3375 H3389 0.958 . S
C3375 H3390 0.961 . S
C3375 H3391 0.960 . S
H3376 C3360 0.931 . S
H3377 C3365 0.929 . S
H3378 C3366 0.960 1_565 S
H3379 C3366 0.962 1_565 S
H3380 C3366 0.960 1_565 S
H3381 C3367 0.961 . S
H3382 C3367 0.961 . S
H3383 C3367 0.961 . S
H3384 C3368 0.931 . S
H3385 C3373 0.930 1_565 S
H3386 C3374 0.956 . S
H3387 C3374 0.961 . S
H3388 C3374 0.961 . S
H3389 C3375 0.958 . S
H3390 C3375 0.961 . S
H3391 C3375 0.960 . S
C3392 C3393 1.391 . S
C3392 C3394 1.394 . S
C3392 H3408 0.931 . S
C3393 C3392 1.391 . S
C3393 C3397 1.376 . S
C3394 C3392 1.394 . S
C3394 C3395 1.369 . S
C3394 C3398 1.531 . S
C3395 C3394 1.369 . S
C3395 C3396 1.410 . S
C3395 C3403 1.503 . S
C3396 C3395 1.410 . S
C3396 C3397 1.392 . S
C3396 C3399 1.511 . S
C3397 C3393 1.376 . S
C3397 C3396 1.392 . S
C3397 H3409 0.929 . S
C3398 C3394 1.531 . S
C3398 H3410 0.960 . S
C3398 H3411 0.962 . S
C3398 H3412 0.960 . S
C3399 C3396 1.511 . S
C3399 H3413 0.961 . S
C3399 H3414 0.961 . S
C3399 H3415 0.961 . S
C3400 C3401 1.370 1_655 S
C3400 C3402 1.363 . S
C3400 H3416 0.931 . S
C3401 C3400 1.370 1_455 S
C3401 C3405 1.408 . S
C3402 C3400 1.363 . S
C3402 C3403 1.370 . S
C3402 C3406 1.524 . S
C3403 C3395 1.503 . S
C3403 C3402 1.370 . S
C3403 C3404 1.403 1_655 S
C3404 C3403 1.403 1_455 S
C3404 C3405 1.404 . S
C3404 C3407 1.539 . S
C3405 C3401 1.408 . S
C3405 C3404 1.404 . S
C3405 H3417 0.930 . S
C3406 C3402 1.524 . S
C3406 H3418 0.956 . S
C3406 H3419 0.961 . S
C3406 H3420 0.961 . S
C3407 C3404 1.539 . S
C3407 H3421 0.958 . S
C3407 H3422 0.961 . S
C3407 H3423 0.960 . S
H3408 C3392 0.931 . S
H3409 C3397 0.929 . S
H3410 C3398 0.960 . S
H3411 C3398 0.962 . S
H3412 C3398 0.960 . S
H3413 C3399 0.961 . S
H3414 C3399 0.961 . S
H3415 C3399 0.961 . S
H3416 C3400 0.931 . S
H3417 C3405 0.930 . S
H3418 C3406 0.956 . S
H3419 C3406 0.961 . S
H3420 C3406 0.961 . S
H3421 C3407 0.958 . S
H3422 C3407 0.961 . S
H3423 C3407 0.960 . S
C3424 C3425 1.391 . S
C3424 C3426 1.394 . S
C3424 H3440 0.931 . S
C3425 C3424 1.391 . S
C3425 C3429 1.376 . S
C3426 C3424 1.394 . S
C3426 C3427 1.369 . S
C3426 C3430 1.531 . S
C3427 C3426 1.369 . S
C3427 C3428 1.410 . S
C3427 C3435 1.503 . S
C3428 C3427 1.410 . S
C3428 C3429 1.392 . S
C3428 C3431 1.511 . S
C3429 C3425 1.376 . S
C3429 C3428 1.392 . S
C3429 H3441 0.929 . S
C3430 C3426 1.531 . S
C3430 H3442 0.960 . S
C3430 H3443 0.962 . S
C3430 H3444 0.960 . S
C3431 C3428 1.511 . S
C3431 H3445 0.961 . S
C3431 H3446 0.961 . S
C3431 H3447 0.961 . S
C3432 C3433 1.370 . S
C3432 C3434 1.363 . S
C3432 H3448 0.931 . S
C3433 C3432 1.370 . S
C3433 C3437 1.408 . S
C3434 C3432 1.363 . S
C3434 C3435 1.370 . S
C3434 C3438 1.524 . S
C3435 C3427 1.503 . S
C3435 C3434 1.370 . S
C3435 C3436 1.403 . S
C3436 C3435 1.403 . S
C3436 C3437 1.404 . S
C3436 C3439 1.539 . S
C3437 C3433 1.408 . S
C3437 C3436 1.404 . S
C3437 H3449 0.930 . S
C3438 C3434 1.524 . S
C3438 H3450 0.956 . S
C3438 H3451 0.961 . S
C3438 H3452 0.961 . S
C3439 C3436 1.539 . S
C3439 H3453 0.958 . S
C3439 H3454 0.961 . S
C3439 H3455 0.960 . S
H3440 C3424 0.931 . S
H3441 C3429 0.929 . S
H3442 C3430 0.960 . S
H3443 C3430 0.962 . S
H3444 C3430 0.960 . S
H3445 C3431 0.961 . S
H3446 C3431 0.961 . S
H3447 C3431 0.961 . S
H3448 C3432 0.931 . S
H3449 C3437 0.930 . S
H3450 C3438 0.956 . S
H3451 C3438 0.961 . S
H3452 C3438 0.961 . S
H3453 C3439 0.958 . S
H3454 C3439 0.961 . S
H3455 C3439 0.960 . S
C3456 C3457 1.391 . S
C3456 C3458 1.394 . S
C3456 H3472 0.931 . S
C3457 C3456 1.391 . S
C3457 C3461 1.376 1_554 S
C3458 C3456 1.394 . S
C3458 C3459 1.369 . S
C3458 C3462 1.531 1_565 S
C3459 C3458 1.369 . S
C3459 C3460 1.410 1_554 S
C3459 C3467 1.503 1_565 S
C3460 C3459 1.410 1_556 S
C3460 C3461 1.392 . S
C3460 C3463 1.511 . S
C3461 C3457 1.376 1_556 S
C3461 C3460 1.392 . S
C3461 H3473 0.929 . S
C3462 C3458 1.531 1_545 S
C3462 H3474 0.960 . S
C3462 H3475 0.962 . S
C3462 H3476 0.960 1_545 S
C3463 C3460 1.511 . S
C3463 H3477 0.961 . S
C3463 H3478 0.961 1_565 S
C3463 H3479 0.961 . S
C3464 C3465 1.364 1_556 S
C3464 C3466 1.363 . S
C3464 H3480 0.931 . S
C3465 C3464 1.364 1_554 S
C3465 C3469 1.417 . S
C3466 C3464 1.363 . S
C3466 C3467 1.370 1_556 S
C3466 C3470 1.524 . S
C3467 C3459 1.503 1_545 S
C3467 C3466 1.370 1_554 S
C3467 C3468 1.403 . S
C3468 C3467 1.403 . S
C3468 C3469 1.404 . S
C3468 C3471 1.539 . S
C3469 C3465 1.417 . S
C3469 C3468 1.404 . S
C3469 H3481 0.930 . S
C3470 C3466 1.524 . S
C3470 H3482 1.038 . S
C3470 H3483 0.961 . S
C3470 H3484 0.961 . S
C3471 C3468 1.539 . S
C3471 H3485 0.958 . S
C3471 H3486 0.961 . S
C3471 H3487 0.960 . S
H3472 C3456 0.931 . S
H3473 C3461 0.929 . S
H3474 C3462 0.960 . S
H3475 C3462 0.962 . S
H3476 C3462 0.960 1_565 S
H3477 C3463 0.961 . S
H3478 C3463 0.961 1_545 S
H3479 C3463 0.961 . S
H3480 C3464 0.931 . S
H3481 C3469 0.930 . S
H3482 C3470 1.038 . S
H3483 C3470 0.961 . S
H3484 C3470 0.961 . S
H3485 C3471 0.958 . S
H3486 C3471 0.961 . S
H3487 C3471 0.960 . S
C3488 C3489 1.431 . S
C3488 C3490 1.394 . S
C3488 H3504 0.931 . S
C3489 C3488 1.431 . S
C3489 C3493 1.350 1_554 S
C3490 C3488 1.394 . S
C3490 C3491 1.369 . S
C3490 C3494 1.531 . S
C3491 C3490 1.369 . S
C3491 C3492 1.410 1_554 S
C3491 C3499 1.503 1_655 S
C3492 C3491 1.410 1_556 S
C3492 C3493 1.392 . S
C3492 C3495 1.511 . S
C3493 C3489 1.350 1_556 S
C3493 C3492 1.392 . S
C3493 H3505 0.929 . S
C3494 C3490 1.531 . S
C3494 H3506 0.960 . S
C3494 H3507 0.962 . S
C3494 H3508 0.960 . S
C3495 C3492 1.511 . S
C3495 H3509 0.961 . S
C3495 H3510 0.961 . S
C3495 H3511 0.961 . S
C3496 C3497 1.370 1_556 S
C3496 C3498 1.363 . S
C3496 H3512 0.931 . S
C3497 C3496 1.370 1_554 S
C3497 C3501 1.408 . S
C3498 C3496 1.363 . S
C3498 C3499 1.370 1_556 S
C3498 C3502 1.524 . S
C3499 C3491 1.503 1_455 S
C3499 C3498 1.370 1_554 S
C3499 C3500 1.403 . S
C3500 C3499 1.403 . S
C3500 C3501 1.404 . S
C3500 C3503 1.539 1_455 S
C3501 C3497 1.408 . S
C3501 C3500 1.404 . S
C3501 H3513 0.930 . S
C3502 C3498 1.524 . S
C3502 H3514 0.956 1_455 S
C3502 H3515 0.961 1_455 S
C3502 H3516 0.961 . S
C3503 C3500 1.539 1_655 S
C3503 H3517 0.958 . S
C3503 H3518 0.961 1_655 S
C3503 H3519 0.960 . S
H3504 C3488 0.931 . S
H3505 C3493 0.929 . S
H3506 C3494 0.960 . S
H3507 C3494 0.962 . S
H3508 C3494 0.960 . S
H3509 C3495 0.961 . S
H3510 C3495 0.961 . S
H3511 C3495 0.961 . S
H3512 C3496 0.931 . S
H3513 C3501 0.930 . S
H3514 C3502 0.956 1_655 S
H3515 C3502 0.961 1_655 S
H3516 C3502 0.961 . S
H3517 C3503 0.958 . S
H3518 C3503 0.961 1_455 S
H3519 C3503 0.960 . S
C3520 C3521 1.391 1_556 S
C3520 C3522 1.394 . S
C3520 H3536 0.931 . S
C3521 C3520 1.391 1_554 S
C3521 C3525 1.376 . S
C3522 C3520 1.394 . S
C3522 C3523 1.369 1_556 S
C3522 C3526 1.531 . S
C3523 C3522 1.369 1_554 S
C3523 C3524 1.410 . S
C3523 C3531 1.503 . S
C3524 C3523 1.410 . S
C3524 C3525 1.392 . S
C3524 C3527 1.511 . S
C3525 C3521 1.376 . S
C3525 C3524 1.392 . S
C3525 H3537 0.929 . S
C3526 C3522 1.531 . S
C3526 H3538 0.960 . S
C3526 H3539 0.962 . S
C3526 H3540 0.960 . S
C3527 C3524 1.511 . S
C3527 H3541 0.961 . S
C3527 H3542 0.961 . S
C3527 H3543 0.961 . S
C3528 C3529 1.364 1_556 S
C3528 C3530 1.384 . S
C3528 H3544 0.931 . S
C3529 C3528 1.364 1_554 S
C3529 C3533 1.417 . S
C3530 C3528 1.384 . S
C3530 C3531 1.333 1_556 S
C3530 C3534 1.559 . S
C3531 C3523 1.503 . S
C3531 C3530 1.333 1_554 S
C3531 C3532 1.403 . S
C3532 C3531 1.403 . S
C3532 C3533 1.404 . S
C3532 C3535 1.539 . S
C3533 C3529 1.417 . S
C3533 C3532 1.404 . S
C3533 H3545 0.930 . S
C3534 C3530 1.559 . S
C3534 H3546 0.956 . S
C3534 H3547 0.961 1_556 S
C3534 H3548 0.961 . S
C3535 C3532 1.539 . S
C3535 H3549 0.958 . S
C3535 H3550 0.961 . S
C3535 H3551 0.960 . S
H3536 C3520 0.931 . S
H3537 C3525 0.929 . S
H3538 C3526 0.960 . S
H3539 C3526 0.962 . S
H3540 C3526 0.960 . S
H3541 C3527 0.961 . S
H3542 C3527 0.961 . S
H3543 C3527 0.961 . S
H3544 C3528 0.931 . S
H3545 C3533 0.930 . S
H3546 C3534 0.956 . S
H3547 C3534 0.961 1_554 S
H3548 C3534 0.961 . S
H3549 C3535 0.958 . S
H3550 C3535 0.961 . S
H3551 C3535 0.960 . S
C3552 C3553 1.391 . S
C3552 C3554 1.394 . S
C3552 H3568 0.931 . S
C3553 C3552 1.391 . S
C3553 C3557 1.376 . S
C3554 C3552 1.394 . S
C3554 C3555 1.369 1_455 S
C3554 C3558 1.531 1_455 S
C3555 C3554 1.369 1_655 S
C3555 C3556 1.410 1_655 S
C3555 C3563 1.503 . S
C3556 C3555 1.410 1_455 S
C3556 C3557 1.392 . S
C3556 C3559 1.511 . S
C3557 C3553 1.376 . S
C3557 C3556 1.392 . S
C3557 H3569 0.929 . S
C3558 C3554 1.531 1_655 S
C3558 H3570 0.960 . S
C3558 H3571 0.962 . S
C3558 H3572 0.960 1_655 S
C3559 C3556 1.511 . S
C3559 H3573 0.961 . S
C3559 H3574 0.961 1_455 S
C3559 H3575 0.961 1_455 S
C3560 C3561 1.370 . S
C3560 C3562 1.363 . S
C3560 H3576 0.931 . S
C3561 C3560 1.370 . S
C3561 C3565 1.408 . S
C3562 C3560 1.363 . S
C3562 C3563 1.370 . S
C3562 C3566 1.524 . S
C3563 C3555 1.503 . S
C3563 C3562 1.370 . S
C3563 C3564 1.403 . S
C3564 C3563 1.403 . S
C3564 C3565 1.404 . S
C3564 C3567 1.539 . S
C3565 C3561 1.408 . S
C3565 C3564 1.404 . S
C3565 H3577 0.930 . S
C3566 C3562 1.524 . S
C3566 H3578 0.956 . S
C3566 H3579 0.961 . S
C3566 H3580 0.961 . S
C3567 C3564 1.539 . S
C3567 H3581 0.958 . S
C3567 H3582 0.961 . S
C3567 H3583 0.960 . S
H3568 C3552 0.931 . S
H3569 C3557 0.929 . S
H3570 C3558 0.960 . S
H3571 C3558 0.962 . S
H3572 C3558 0.960 1_455 S
H3573 C3559 0.961 . S
H3574 C3559 0.961 1_655 S
H3575 C3559 0.961 1_655 S
H3576 C3560 0.931 . S
H3577 C3565 0.930 . S
H3578 C3566 0.956 . S
H3579 C3566 0.961 . S
H3580 C3566 0.961 . S
H3581 C3567 0.958 . S
H3582 C3567 0.961 . S
H3583 C3567 0.960 . S
C3584 C3585 1.391 . S
C3584 C3586 1.394 . S
C3584 H3600 0.931 . S
C3585 C3584 1.391 . S
C3585 C3589 1.376 . S
C3586 C3584 1.394 . S
C3586 C3587 1.369 . S
C3586 C3590 1.531 . S
C3587 C3586 1.369 . S
C3587 C3588 1.410 . S
C3587 C3595 1.503 . S
C3588 C3587 1.410 . S
C3588 C3589 1.392 . S
C3588 C3591 1.511 . S
C3589 C3585 1.376 . S
C3589 C3588 1.392 . S
C3589 H3601 0.929 . S
C3590 C3586 1.531 . S
C3590 H3602 0.960 . S
C3590 H3603 0.962 . S
C3590 H3604 0.960 . S
C3591 C3588 1.511 . S
C3591 H3605 0.961 . S
C3591 H3606 0.961 . S
C3591 H3607 0.961 . S
C3592 C3593 1.370 . S
C3592 C3594 1.363 . S
C3592 H3608 0.931 . S
C3593 C3592 1.370 . S
C3593 C3597 1.408 . S
C3594 C3592 1.363 . S
C3594 C3595 1.370 . S
C3594 C3598 1.524 . S
C3595 C3587 1.503 . S
C3595 C3594 1.370 . S
C3595 C3596 1.403 . S
C3596 C3595 1.403 . S
C3596 C3597 1.404 . S
C3596 C3599 1.539 . S
C3597 C3593 1.408 . S
C3597 C3596 1.404 . S
C3597 H3609 0.930 . S
C3598 C3594 1.524 . S
C3598 H3610 0.956 . S
C3598 H3611 0.961 . S
C3598 H3612 0.961 . S
C3599 C3596 1.539 . S
C3599 H3613 0.958 . S
C3599 H3614 0.961 . S
C3599 H3615 0.960 . S
H3600 C3584 0.931 . S
H3601 C3589 0.929 . S
H3602 C3590 0.960 . S
H3603 C3590 0.962 . S
H3604 C3590 0.960 . S
H3605 C3591 0.961 . S
H3606 C3591 0.961 . S
H3607 C3591 0.961 . S
H3608 C3592 0.931 . S
H3609 C3597 0.930 . S
H3610 C3598 0.956 . S
H3611 C3598 0.961 . S
H3612 C3598 0.961 . S
H3613 C3599 0.958 . S
H3614 C3599 0.961 . S
H3615 C3599 0.960 . S
C3616 C3617 1.391 . S
C3616 C3618 1.394 . S
C3616 H3632 0.931 . S
C3617 C3616 1.391 . S
C3617 C3621 1.376 . S
C3618 C3616 1.394 . S
C3618 C3619 1.369 1_565 S
C3618 C3622 1.531 1_565 S
C3619 C3618 1.369 1_545 S
C3619 C3620 1.410 1_545 S
C3619 C3627 1.503 . S
C3620 C3619 1.410 1_565 S
C3620 C3621 1.392 . S
C3620 C3623 1.511 1_565 S
C3621 C3617 1.376 . S
C3621 C3620 1.392 . S
C3621 H3633 0.929 . S
C3622 C3618 1.531 1_545 S
C3622 H3634 0.960 . S
C3622 H3635 0.962 . S
C3622 H3636 0.960 1_545 S
C3623 C3620 1.511 1_545 S
C3623 H3637 0.961 1_545 S
C3623 H3638 0.961 . S
C3623 H3639 0.961 . S
C3624 C3625 1.370 . S
C3624 C3626 1.363 . S
C3624 H3640 0.931 . S
C3625 C3624 1.370 . S
C3625 C3629 1.408 . S
C3626 C3624 1.363 . S
C3626 C3627 1.370 . S
C3626 C3630 1.524 . S
C3627 C3619 1.503 . S
C3627 C3626 1.370 . S
C3627 C3628 1.403 . S
C3628 C3627 1.403 . S
C3628 C3629 1.404 . S
C3628 C3631 1.539 . S
C3629 C3625 1.408 . S
C3629 C3628 1.404 . S
C3629 H3641 0.930 . S
C3630 C3626 1.524 . S
C3630 H3642 0.956 . S
C3630 H3643 0.961 . S
C3630 H3644 0.961 . S
C3631 C3628 1.539 . S
C3631 H3645 0.958 . S
C3631 H3646 0.961 . S
C3631 H3647 0.960 . S
H3632 C3616 0.931 . S
H3633 C3621 0.929 . S
H3634 C3622 0.960 . S
H3635 C3622 0.962 . S
H3636 C3622 0.960 1_565 S
H3637 C3623 0.961 1_565 S
H3638 C3623 0.961 . S
H3639 C3623 0.961 . S
H3640 C3624 0.931 . S
H3641 C3629 0.930 . S
H3642 C3630 0.956 . S
H3643 C3630 0.961 . S
H3644 C3630 0.961 . S
H3645 C3631 0.958 . S
H3646 C3631 0.961 . S
H3647 C3631 0.960 . S
C3648 C3649 1.391 1_655 S
C3648 C3650 1.394 . S
C3648 H3664 0.931 . S
C3649 C3648 1.391 1_455 S
C3649 C3653 1.376 . S
C3650 C3648 1.394 . S
C3650 C3651 1.369 . S
C3650 C3654 1.531 . S
C3651 C3650 1.369 . S
C3651 C3652 1.410 . S
C3651 C3659 1.503 . S
C3652 C3651 1.410 . S
C3652 C3653 1.392 1_655 S
C3652 C3655 1.511 1_655 S
C3653 C3649 1.376 . S
C3653 C3652 1.392 1_455 S
C3653 H3665 0.929 . S
C3654 C3650 1.531 . S
C3654 H3666 0.960 . S
C3654 H3667 0.962 . S
C3654 H3668 0.960 . S
C3655 C3652 1.511 1_455 S
C3655 H3669 0.961 . S
C3655 H3670 0.961 1_455 S
C3655 H3671 0.961 . S
C3656 C3657 1.370 . S
C3656 C3658 1.363 . S
C3656 H3672 0.931 . S
C3657 C3656 1.370 . S
C3657 C3661 1.408 . S
C3658 C3656 1.363 . S
C3658 C3659 1.370 . S
C3658 C3662 1.524 . S
C3659 C3651 1.503 . S
C3659 C3658 1.370 . S
C3659 C3660 1.403 . S
C3660 C3659 1.403 . S
C3660 C3661 1.404 . S
C3660 C3663 1.539 . S
C3661 C3657 1.408 . S
C3661 C3660 1.404 . S
C3661 H3673 0.930 . S
C3662 C3658 1.524 . S
C3662 H3674 0.956 . S
C3662 H3675 0.961 . S
C3662 H3676 0.961 . S
C3663 C3660 1.539 . S
C3663 H3677 0.958 . S
C3663 H3678 0.961 . S
C3663 H3679 0.960 . S
H3664 C3648 0.931 . S
H3665 C3653 0.929 . S
H3666 C3654 0.960 . S
H3667 C3654 0.962 . S
H3668 C3654 0.960 . S
H3669 C3655 0.961 . S
H3670 C3655 0.961 1_655 S
H3671 C3655 0.961 . S
H3672 C3656 0.931 . S
H3673 C3661 0.930 . S
H3674 C3662 0.956 . S
H3675 C3662 0.961 . S
H3676 C3662 0.961 . S
H3677 C3663 0.958 . S
H3678 C3663 0.961 . S
H3679 C3663 0.960 . S
C3680 C3681 1.391 . S
C3680 C3682 1.394 . S
C3680 H3696 0.931 . S
C3681 C3680 1.391 . S
C3681 C3685 1.376 . S
C3682 C3680 1.394 . S
C3682 C3683 1.369 . S
C3682 C3686 1.531 . S
C3683 C3682 1.369 . S
C3683 C3684 1.410 . S
C3683 C3691 1.503 . S
C3684 C3683 1.410 . S
C3684 C3685 1.392 . S
C3684 C3687 1.511 . S
C3685 C3681 1.376 . S
C3685 C3684 1.392 . S
C3685 H3697 0.929 . S
C3686 C3682 1.531 . S
C3686 H3698 0.960 . S
C3686 H3699 0.962 . S
C3686 H3700 0.960 . S
C3687 C3684 1.511 . S
C3687 H3701 0.961 . S
C3687 H3702 0.961 . S
C3687 H3703 0.961 . S
C3688 C3689 1.370 . S
C3688 C3690 1.363 . S
C3688 H3704 0.931 . S
C3689 C3688 1.370 . S
C3689 C3693 1.408 . S
C3690 C3688 1.363 . S
C3690 C3691 1.370 . S
C3690 C3694 1.524 . S
C3691 C3683 1.503 . S
C3691 C3690 1.370 . S
C3691 C3692 1.403 . S
C3692 C3691 1.403 . S
C3692 C3693 1.404 . S
C3692 C3695 1.539 . S
C3693 C3689 1.408 . S
C3693 C3692 1.404 . S
C3693 H3705 0.930 . S
C3694 C3690 1.524 . S
C3694 H3706 0.956 . S
C3694 H3707 0.961 . S
C3694 H3708 0.961 . S
C3695 C3692 1.539 . S
C3695 H3709 0.958 . S
C3695 H3710 0.961 . S
C3695 H3711 0.960 . S
H3696 C3680 0.931 . S
H3697 C3685 0.929 . S
H3698 C3686 0.960 . S
H3699 C3686 0.962 . S
H3700 C3686 0.960 . S
H3701 C3687 0.961 . S
H3702 C3687 0.961 . S
H3703 C3687 0.961 . S
H3704 C3688 0.931 . S
H3705 C3693 0.930 . S
H3706 C3694 0.956 . S
H3707 C3694 0.961 . S
H3708 C3694 0.961 . S
H3709 C3695 0.958 . S
H3710 C3695 0.961 . S
H3711 C3695 0.960 . S
C3712 C3713 1.391 . S
C3712 C3714 1.394 . S
C3712 H3728 0.931 . S
C3713 C3712 1.391 . S
C3713 C3717 1.376 . S
C3714 C3712 1.394 . S
C3714 C3715 1.369 . S
C3714 C3718 1.531 . S
C3715 C3714 1.369 . S
C3715 C3716 1.410 . S
C3715 C3723 1.503 . S
C3716 C3715 1.410 . S
C3716 C3717 1.392 . S
C3716 C3719 1.511 . S
C3717 C3713 1.376 . S
C3717 C3716 1.392 . S
C3717 H3729 0.929 . S
C3718 C3714 1.531 . S
C3718 H3730 0.960 . S
C3718 H3731 0.962 . S
C3718 H3732 0.960 . S
C3719 C3716 1.511 . S
C3719 H3733 0.961 . S
C3719 H3734 0.961 . S
C3719 H3735 0.961 . S
C3720 C3721 1.365 . S
C3720 C3722 1.363 1_565 S
C3720 H3736 0.931 . S
C3721 C3720 1.365 . S
C3721 C3725 1.392 1_565 S
C3722 C3720 1.363 1_545 S
C3722 C3723 1.370 . S
C3722 C3726 1.525 1_545 S
C3723 C3715 1.503 . S
C3723 C3722 1.370 . S
C3723 C3724 1.403 . S
C3724 C3723 1.403 . S
C3724 C3725 1.404 . S
C3724 C3727 1.539 . S
C3725 C3721 1.392 1_545 S
C3725 C3724 1.404 . S
C3725 H3737 0.930 . S
C3726 C3722 1.525 1_565 S
C3726 H3738 0.955 . S
C3726 H3739 0.957 1_565 S
C3726 H3740 0.964 . S
C3727 C3724 1.539 . S
C3727 H3741 0.958 . S
C3727 H3742 0.961 . S
C3727 H3743 0.960 . S
H3728 C3712 0.931 . S
H3729 C3717 0.929 . S
H3730 C3718 0.960 . S
H3731 C3718 0.962 . S
H3732 C3718 0.960 . S
H3733 C3719 0.961 . S
H3734 C3719 0.961 . S
H3735 C3719 0.961 . S
H3736 C3720 0.931 . S
H3737 C3725 0.930 . S
H3738 C3726 0.955 . S
H3739 C3726 0.957 1_545 S
H3740 C3726 0.964 . S
H3741 C3727 0.958 . S
H3742 C3727 0.961 . S
H3743 C3727 0.960 . S
C3744 C3745 1.391 . S
C3744 C3746 1.394 . S
C3744 H3760 0.931 . S
C3745 C3744 1.391 . S
C3745 C3749 1.376 . S
C3746 C3744 1.394 . S
C3746 C3747 1.369 . S
C3746 C3750 1.531 . S
C3747 C3746 1.369 . S
C3747 C3748 1.410 . S
C3747 C3755 1.503 . S
C3748 C3747 1.410 . S
C3748 C3749 1.392 . S
C3748 C3751 1.511 . S
C3749 C3745 1.376 . S
C3749 C3748 1.392 . S
C3749 H3761 0.929 . S
C3750 C3746 1.531 . S
C3750 H3762 0.960 . S
C3750 H3763 0.962 . S
C3750 H3764 0.960 . S
C3751 C3748 1.511 . S
C3751 H3765 0.961 . S
C3751 H3766 0.961 . S
C3751 H3767 0.961 . S
C3752 C3753 1.370 . S
C3752 C3754 1.363 . S
C3752 H3768 0.931 . S
C3753 C3752 1.370 . S
C3753 C3757 1.408 . S
C3754 C3752 1.363 . S
C3754 C3755 1.370 . S
C3754 C3758 1.524 . S
C3755 C3747 1.503 . S
C3755 C3754 1.370 . S
C3755 C3756 1.403 . S
C3756 C3755 1.403 . S
C3756 C3757 1.404 . S
C3756 C3759 1.539 . S
C3757 C3753 1.408 . S
C3757 C3756 1.404 . S
C3757 H3769 0.930 . S
C3758 C3754 1.524 . S
C3758 H3770 0.956 . S
C3758 H3771 0.961 . S
C3758 H3772 0.961 . S
C3759 C3756 1.539 . S
C3759 H3773 0.958 . S
C3759 H3774 0.961 . S
C3759 H3775 0.960 . S
H3760 C3744 0.931 . S
H3761 C3749 0.929 . S
H3762 C3750 0.960 . S
H3763 C3750 0.962 . S
H3764 C3750 0.960 . S
H3765 C3751 0.961 . S
H3766 C3751 0.961 . S
H3767 C3751 0.961 . S
H3768 C3752 0.931 . S
H3769 C3757 0.930 . S
H3770 C3758 0.956 . S
H3771 C3758 0.961 . S
H3772 C3758 0.961 . S
H3773 C3759 0.958 . S
H3774 C3759 0.961 . S
H3775 C3759 0.960 . S
C3776 C3777 1.391 . S
C3776 C3778 1.394 . S
C3776 H3792 0.931 . S
C3777 C3776 1.391 . S
C3777 C3781 1.376 . S
C3778 C3776 1.394 . S
C3778 C3779 1.369 . S
C3778 C3782 1.531 . S
C3779 C3778 1.369 . S
C3779 C3780 1.410 . S
C3779 C3787 1.503 . S
C3780 C3779 1.410 . S
C3780 C3781 1.392 . S
C3780 C3783 1.511 . S
C3781 C3777 1.376 . S
C3781 C3780 1.392 . S
C3781 H3793 0.929 . S
C3782 C3778 1.531 . S
C3782 H3794 0.960 . S
C3782 H3795 0.962 . S
C3782 H3796 0.960 . S
C3783 C3780 1.511 . S
C3783 H3797 0.961 . S
C3783 H3798 0.961 . S
C3783 H3799 0.961 . S
C3784 C3785 1.370 . S
C3784 C3786 1.363 . S
C3784 H3800 0.931 . S
C3785 C3784 1.370 . S
C3785 C3789 1.408 . S
C3786 C3784 1.363 . S
C3786 C3787 1.370 . S
C3786 C3790 1.524 . S
C3787 C3779 1.503 . S
C3787 C3786 1.370 . S
C3787 C3788 1.403 . S
C3788 C3787 1.403 . S
C3788 C3789 1.404 . S
C3788 C3791 1.539 . S
C3789 C3785 1.408 . S
C3789 C3788 1.404 . S
C3789 H3801 0.930 . S
C3790 C3786 1.524 . S
C3790 H3802 0.956 . S
C3790 H3803 0.961 . S
C3790 H3804 0.961 . S
C3791 C3788 1.539 . S
C3791 H3805 0.958 . S
C3791 H3806 0.961 . S
C3791 H3807 0.960 . S
H3792 C3776 0.931 . S
H3793 C3781 0.929 . S
H3794 C3782 0.960 . S
H3795 C3782 0.962 . S
H3796 C3782 0.960 . S
H3797 C3783 0.961 . S
H3798 C3783 0.961 . S
H3799 C3783 0.961 . S
H3800 C3784 0.931 . S
H3801 C3789 0.930 . S
H3802 C3790 0.956 . S
H3803 C3790 0.961 . S
H3804 C3790 0.961 . S
H3805 C3791 0.958 . S
H3806 C3791 0.961 . S
H3807 C3791 0.960 . S
C3808 C3809 1.391 . S
C3808 C3810 1.394 . S
C3808 H3824 0.931 . S
C3809 C3808 1.391 . S
C3809 C3813 1.376 . S
C3810 C3808 1.394 . S
C3810 C3811 1.369 . S
C3810 C3814 1.531 . S
C3811 C3810 1.369 . S
C3811 C3812 1.410 . S
C3811 C3819 1.503 . S
C3812 C3811 1.410 . S
C3812 C3813 1.392 . S
C3812 C3815 1.511 . S
C3813 C3809 1.376 . S
C3813 C3812 1.392 . S
C3813 H3825 0.929 . S
C3814 C3810 1.531 . S
C3814 H3826 0.960 . S
C3814 H3827 0.962 . S
C3814 H3828 0.960 . S
C3815 C3812 1.511 . S
C3815 H3829 0.961 . S
C3815 H3830 0.961 . S
C3815 H3831 0.961 . S
C3816 C3817 1.370 . S
C3816 C3818 1.363 . S
C3816 H3832 0.931 . S
C3817 C3816 1.370 . S
C3817 C3821 1.408 . S
C3818 C3816 1.363 . S
C3818 C3819 1.370 . S
C3818 C3822 1.524 . S
C3819 C3811 1.503 . S
C3819 C3818 1.370 . S
C3819 C3820 1.403 . S
C3820 C3819 1.403 . S
C3820 C3821 1.404 . S
C3820 C3823 1.539 . S
C3821 C3817 1.408 . S
C3821 C3820 1.404 . S
C3821 H3833 0.930 . S
C3822 C3818 1.524 . S
C3822 H3834 0.956 . S
C3822 H3835 0.961 . S
C3822 H3836 0.961 . S
C3823 C3820 1.539 . S
C3823 H3837 0.958 . S
C3823 H3838 0.966 . S
C3823 H3839 0.960 . S
H3824 C3808 0.931 . S
H3825 C3813 0.929 . S
H3826 C3814 0.960 . S
H3827 C3814 0.962 . S
H3828 C3814 0.960 . S
H3829 C3815 0.961 . S
H3830 C3815 0.961 . S
H3831 C3815 0.961 . S
H3832 C3816 0.931 . S
H3833 C3821 0.930 . S
H3834 C3822 0.956 . S
H3835 C3822 0.961 . S
H3836 C3822 0.961 . S
H3837 C3823 0.958 . S
H3838 C3823 0.966 . S
H3839 C3823 0.960 . S
C3840 C3841 1.391 . S
C3840 C3842 1.394 . S
C3840 H3856 0.931 . S
C3841 C3840 1.391 . S
C3841 C3845 1.376 . S
C3842 C3840 1.394 . S
C3842 C3843 1.369 . S
C3842 C3846 1.531 . S
C3843 C3842 1.369 . S
C3843 C3844 1.410 . S
C3843 C3851 1.503 . S
C3844 C3843 1.410 . S
C3844 C3845 1.392 . S
C3844 C3847 1.511 . S
C3845 C3841 1.376 . S
C3845 C3844 1.392 . S
C3845 H3857 0.929 . S
C3846 C3842 1.531 . S
C3846 H3858 0.960 . S
C3846 H3859 0.962 . S
C3846 H3860 0.960 . S
C3847 C3844 1.511 . S
C3847 H3861 0.961 . S
C3847 H3862 0.961 . S
C3847 H3863 0.961 . S
C3848 C3849 1.370 . S
C3848 C3850 1.363 . S
C3848 H3864 0.931 . S
C3849 C3848 1.370 . S
C3849 C3853 1.408 . S
C3850 C3848 1.363 . S
C3850 C3851 1.370 . S
C3850 C3854 1.524 . S
C3851 C3843 1.503 . S
C3851 C3850 1.370 . S
C3851 C3852 1.403 . S
C3852 C3851 1.403 . S
C3852 C3853 1.404 . S
C3852 C3855 1.539 . S
C3853 C3849 1.408 . S
C3853 C3852 1.404 . S
C3853 H3865 0.930 . S
C3854 C3850 1.524 . S
C3854 H3866 0.956 . S
C3854 H3867 0.961 . S
C3854 H3868 0.961 . S
C3855 C3852 1.539 . S
C3855 H3869 0.958 . S
C3855 H3870 0.961 . S
C3855 H3871 0.960 . S
H3856 C3840 0.931 . S
H3857 C3845 0.929 . S
H3858 C3846 0.960 . S
H3859 C3846 0.962 . S
H3860 C3846 0.960 . S
H3861 C3847 0.961 . S
H3862 C3847 0.961 . S
H3863 C3847 0.961 . S
H3864 C3848 0.931 . S
H3865 C3853 0.930 . S
H3866 C3854 0.956 . S
H3867 C3854 0.961 . S
H3868 C3854 0.961 . S
H3869 C3855 0.958 . S
H3870 C3855 0.961 . S
H3871 C3855 0.960 . S
C3872 C3873 1.391 . S
C3872 C3874 1.394 . S
C3872 H3888 0.931 . S
C3873 C3872 1.391 . S
C3873 C3877 1.376 . S
C3874 C3872 1.394 . S
C3874 C3875 1.369 . S
C3874 C3878 1.531 . S
C3875 C3874 1.369 . S
C3875 C3876 1.410 . S
C3875 C3883 1.503 . S
C3876 C3875 1.410 . S
C3876 C3877 1.392 . S
C3876 C3879 1.511 . S
C3877 C3873 1.376 . S
C3877 C3876 1.392 . S
C3877 H3889 0.929 . S
C3878 C3874 1.531 . S
C3878 H3890 0.960 . S
C3878 H3891 0.962 . S
C3878 H3892 0.960 . S
C3879 C3876 1.511 . S
C3879 H3893 0.961 . S
C3879 H3894 0.961 . S
C3879 H3895 0.961 . S
C3880 C3881 1.370 . S
C3880 C3882 1.363 . S
C3880 H3896 0.931 . S
C3881 C3880 1.370 . S
C3881 C3885 1.408 . S
C3882 C3880 1.363 . S
C3882 C3883 1.370 . S
C3882 C3886 1.524 . S
C3883 C3875 1.503 . S
C3883 C3882 1.370 . S
C3883 C3884 1.403 . S
C3884 C3883 1.403 . S
C3884 C3885 1.404 . S
C3884 C3887 1.539 . S
C3885 C3881 1.408 . S
C3885 C3884 1.404 . S
C3885 H3897 0.930 . S
C3886 C3882 1.524 . S
C3886 H3898 0.956 . S
C3886 H3899 0.961 . S
C3886 H3900 0.961 . S
C3887 C3884 1.539 . S
C3887 H3901 0.958 . S
C3887 H3902 0.961 . S
C3887 H3903 0.960 . S
H3888 C3872 0.931 . S
H3889 C3877 0.929 . S
H3890 C3878 0.960 . S
H3891 C3878 0.962 . S
H3892 C3878 0.960 . S
H3893 C3879 0.961 . S
H3894 C3879 0.961 . S
H3895 C3879 0.961 . S
H3896 C3880 0.931 . S
H3897 C3885 0.930 . S
H3898 C3886 0.956 . S
H3899 C3886 0.961 . S
H3900 C3886 0.961 . S
H3901 C3887 0.958 . S
H3902 C3887 0.961 . S
H3903 C3887 0.960 . S
C3904 C3905 1.391 . S
C3904 C3906 1.394 . S
C3904 H3920 0.931 . S
C3905 C3904 1.391 . S
C3905 C3909 1.376 . S
C3906 C3904 1.394 . S
C3906 C3907 1.369 . S
C3906 C3910 1.531 . S
C3907 C3906 1.369 . S
C3907 C3908 1.410 . S
C3907 C3915 1.503 . S
C3908 C3907 1.410 . S
C3908 C3909 1.392 . S
C3908 C3911 1.511 . S
C3909 C3905 1.376 . S
C3909 C3908 1.392 . S
C3909 H3921 0.929 . S
C3910 C3906 1.531 . S
C3910 H3922 0.960 . S
C3910 H3923 0.962 . S
C3910 H3924 0.960 . S
C3911 C3908 1.511 . S
C3911 H3925 0.961 . S
C3911 H3926 0.961 . S
C3911 H3927 0.961 . S
C3912 C3913 1.370 . S
C3912 C3914 1.363 . S
C3912 H3928 0.931 . S
C3913 C3912 1.370 . S
C3913 C3917 1.408 . S
C3914 C3912 1.363 . S
C3914 C3915 1.370 . S
C3914 C3918 1.524 . S
C3915 C3907 1.503 . S
C3915 C3914 1.370 . S
C3915 C3916 1.403 . S
C3916 C3915 1.403 . S
C3916 C3917 1.404 . S
C3916 C3919 1.539 . S
C3917 C3913 1.408 . S
C3917 C3916 1.404 . S
C3917 H3929 0.930 . S
C3918 C3914 1.524 . S
C3918 H3930 0.956 . S
C3918 H3931 0.961 . S
C3918 H3932 0.961 . S
C3919 C3916 1.539 . S
C3919 H3933 0.973 . S
C3919 H3934 0.961 . S
C3919 H3935 0.960 . S
H3920 C3904 0.931 . S
H3921 C3909 0.929 . S
H3922 C3910 0.960 . S
H3923 C3910 0.962 . S
H3924 C3910 0.960 . S
H3925 C3911 0.961 . S
H3926 C3911 0.961 . S
H3927 C3911 0.961 . S
H3928 C3912 0.931 . S
H3929 C3917 0.930 . S
H3930 C3918 0.956 . S
H3931 C3918 0.961 . S
H3932 C3918 0.961 . S
H3933 C3919 0.973 . S
H3934 C3919 0.961 . S
H3935 C3919 0.960 . S
C3936 C3937 1.391 . S
C3936 C3938 1.394 . S
C3936 H3952 0.931 . S
C3937 C3936 1.391 . S
C3937 C3941 1.376 . S
C3938 C3936 1.394 . S
C3938 C3939 1.369 . S
C3938 C3942 1.531 . S
C3939 C3938 1.369 . S
C3939 C3940 1.410 . S
C3939 C3947 1.503 . S
C3940 C3939 1.410 . S
C3940 C3941 1.392 . S
C3940 C3943 1.511 . S
C3941 C3937 1.376 . S
C3941 C3940 1.392 . S
C3941 H3953 0.929 . S
C3942 C3938 1.531 . S
C3942 H3954 0.960 . S
C3942 H3955 0.962 . S
C3942 H3956 0.960 . S
C3943 C3940 1.511 . S
C3943 H3957 0.961 . S
C3943 H3958 0.961 . S
C3943 H3959 0.961 . S
C3944 C3945 1.370 . S
C3944 C3946 1.363 . S
C3944 H3960 0.931 . S
C3945 C3944 1.370 . S
C3945 C3949 1.408 . S
C3946 C3944 1.363 . S
C3946 C3947 1.370 . S
C3946 C3950 1.524 . S
C3947 C3939 1.503 . S
C3947 C3946 1.370 . S
C3947 C3948 1.403 . S
C3948 C3947 1.403 . S
C3948 C3949 1.404 . S
C3948 C3951 1.539 . S
C3949 C3945 1.408 . S
C3949 C3948 1.404 . S
C3949 H3961 0.930 . S
C3950 C3946 1.524 . S
C3950 H3962 0.956 . S
C3950 H3963 0.961 . S
C3950 H3964 0.961 . S
C3951 C3948 1.539 . S
C3951 H3965 0.958 . S
C3951 H3966 0.961 . S
C3951 H3967 0.960 . S
H3952 C3936 0.931 . S
H3953 C3941 0.929 . S
H3954 C3942 0.960 . S
H3955 C3942 0.962 . S
H3956 C3942 0.960 . S
H3957 C3943 0.961 . S
H3958 C3943 0.961 . S
H3959 C3943 0.961 . S
H3960 C3944 0.931 . S
H3961 C3949 0.930 . S
H3962 C3950 0.956 . S
H3963 C3950 0.961 . S
H3964 C3950 0.961 . S
H3965 C3951 0.958 . S
H3966 C3951 0.961 . S
H3967 C3951 0.960 . S
C3968 C3969 1.391 . S
C3968 C3970 1.394 . S
C3968 H3984 0.931 . S
C3969 C3968 1.391 . S
C3969 C3973 1.376 . S
C3970 C3968 1.394 . S
C3970 C3971 1.369 . S
C3970 C3974 1.531 . S
C3971 C3970 1.369 . S
C3971 C3972 1.410 . S
C3971 C3979 1.503 . S
C3972 C3971 1.410 . S
C3972 C3973 1.392 . S
C3972 C3975 1.511 . S
C3973 C3969 1.376 . S
C3973 C3972 1.392 . S
C3973 H3985 0.929 . S
C3974 C3970 1.531 . S
C3974 H3986 0.960 . S
C3974 H3987 0.962 . S
C3974 H3988 0.960 . S
C3975 C3972 1.511 . S
C3975 H3989 0.961 . S
C3975 H3990 0.961 . S
C3975 H3991 0.961 . S
C3976 C3977 1.370 . S
C3976 C3978 1.363 . S
C3976 H3992 0.931 . S
C3977 C3976 1.370 . S
C3977 C3981 1.408 . S
C3978 C3976 1.363 . S
C3978 C3979 1.370 . S
C3978 C3982 1.524 . S
C3979 C3971 1.503 . S
C3979 C3978 1.370 . S
C3979 C3980 1.403 . S
C3980 C3979 1.403 . S
C3980 C3981 1.404 . S
C3980 C3983 1.539 . S
C3981 C3977 1.408 . S
C3981 C3980 1.404 . S
C3981 H3993 0.930 . S
C3982 C3978 1.524 . S
C3982 H3994 0.956 . S
C3982 H3995 0.961 . S
C3982 H3996 0.961 . S
C3983 C3980 1.539 . S
C3983 H3997 0.958 . S
C3983 H3998 0.961 1_545 S
C3983 H3999 0.960 . S
H3984 C3968 0.931 . S
H3985 C3973 0.929 . S
H3986 C3974 0.960 . S
H3987 C3974 0.962 . S
H3988 C3974 0.960 . S
H3989 C3975 0.961 . S
H3990 C3975 0.961 . S
H3991 C3975 0.961 . S
H3992 C3976 0.931 . S
H3993 C3981 0.930 . S
H3994 C3982 0.956 . S
H3995 C3982 0.961 . S
H3996 C3982 0.961 . S
H3997 C3983 0.958 . S
H3998 C3983 0.961 1_565 S
H3999 C3983 0.960 . S
C4000 C4001 1.391 . S
C4000 C4002 1.394 . S
C4000 H4016 0.931 . S
C4001 C4000 1.391 . S
C4001 C4005 1.376 . S
C4002 C4000 1.394 . S
C4002 C4003 1.369 . S
C4002 C4006 1.531 . S
C4003 C4002 1.369 . S
C4003 C4004 1.410 . S
C4003 C4011 1.503 . S
C4004 C4003 1.410 . S
C4004 C4005 1.392 . S
C4004 C4007 1.511 . S
C4005 C4001 1.376 . S
C4005 C4004 1.392 . S
C4005 H4017 0.929 . S
C4006 C4002 1.531 . S
C4006 H4018 0.960 . S
C4006 H4019 0.962 . S
C4006 H4020 0.960 . S
C4007 C4004 1.511 . S
C4007 H4021 0.949 1_655 S
C4007 H4022 0.961 . S
C4007 H4023 0.961 . S
C4008 C4009 1.370 . S
C4008 C4010 1.363 . S
C4008 H4024 0.931 . S
C4009 C4008 1.370 . S
C4009 C4013 1.408 . S
C4010 C4008 1.363 . S
C4010 C4011 1.370 . S
C4010 C4014 1.524 . S
C4011 C4003 1.503 . S
C4011 C4010 1.370 . S
C4011 C4012 1.403 . S
C4012 C4011 1.403 . S
C4012 C4013 1.404 . S
C4012 C4015 1.539 . S
C4013 C4009 1.408 . S
C4013 C4012 1.404 . S
C4013 H4025 0.930 . S
C4014 C4010 1.524 . S
C4014 H4026 0.956 . S
C4014 H4027 0.961 . S
C4014 H4028 0.961 . S
C4015 C4012 1.539 . S
C4015 H4029 0.958 . S
C4015 H4030 0.961 . S
C4015 H4031 0.960 . S
H4016 C4000 0.931 . S
H4017 C4005 0.929 . S
H4018 C4006 0.960 . S
H4019 C4006 0.962 . S
H4020 C4006 0.960 . S
H4021 C4007 0.949 1_455 S
H4022 C4007 0.961 . S
H4023 C4007 0.961 . S
H4024 C4008 0.931 . S
H4025 C4013 0.930 . S
H4026 C4014 0.956 . S
H4027 C4014 0.961 . S
H4028 C4014 0.961 . S
H4029 C4015 0.958 . S
H4030 C4015 0.961 . S
H4031 C4015 0.960 . S
C4032 C4033 1.391 . S
C4032 C4034 1.394 . S
C4032 H4048 0.931 . S
C4033 C4032 1.391 . S
C4033 C4037 1.376 . S
C4034 C4032 1.394 . S
C4034 C4035 1.369 . S
C4034 C4038 1.531 . S
C4035 C4034 1.369 . S
C4035 C4036 1.410 . S
C4035 C4043 1.503 . S
C4036 C4035 1.410 . S
C4036 C4037 1.392 . S
C4036 C4039 1.511 . S
C4037 C4033 1.376 . S
C4037 C4036 1.392 . S
C4037 H4049 0.929 . S
C4038 C4034 1.531 . S
C4038 H4050 0.960 . S
C4038 H4051 0.962 . S
C4038 H4052 0.960 . S
C4039 C4036 1.511 . S
C4039 H4053 0.961 . S
C4039 H4054 0.961 . S
C4039 H4055 0.961 . S
C4040 C4041 1.370 . S
C4040 C4042 1.363 . S
C4040 H4056 0.931 . S
C4041 C4040 1.370 . S
C4041 C4045 1.408 . S
C4042 C4040 1.363 . S
C4042 C4043 1.370 . S
C4042 C4046 1.524 . S
C4043 C4035 1.503 . S
C4043 C4042 1.370 . S
C4043 C4044 1.403 . S
C4044 C4043 1.403 . S
C4044 C4045 1.404 . S
C4044 C4047 1.539 . S
C4045 C4041 1.408 . S
C4045 C4044 1.404 . S
C4045 H4057 0.930 . S
C4046 C4042 1.524 . S
C4046 H4058 0.956 . S
C4046 H4059 0.961 . S
C4046 H4060 0.961 . S
C4047 C4044 1.539 . S
C4047 H4061 0.958 . S
C4047 H4062 0.961 . S
C4047 H4063 0.960 . S
H4048 C4032 0.931 . S
H4049 C4037 0.929 . S
H4050 C4038 0.960 . S
H4051 C4038 0.962 . S
H4052 C4038 0.960 . S
H4053 C4039 0.961 . S
H4054 C4039 0.961 . S
H4055 C4039 0.961 . S
H4056 C4040 0.931 . S
H4057 C4045 0.930 . S
H4058 C4046 0.956 . S
H4059 C4046 0.961 . S
H4060 C4046 0.961 . S
H4061 C4047 0.958 . S
H4062 C4047 0.961 . S
H4063 C4047 0.960 . S
C4064 C4065 1.391 . S
C4064 C4066 1.394 . S
C4064 H4080 0.931 . S
C4065 C4064 1.391 . S
C4065 C4069 1.376 . S
C4066 C4064 1.394 . S
C4066 C4067 1.369 . S
C4066 C4070 1.531 . S
C4067 C4066 1.369 . S
C4067 C4068 1.410 . S
C4067 C4075 1.503 . S
C4068 C4067 1.410 . S
C4068 C4069 1.392 . S
C4068 C4071 1.511 . S
C4069 C4065 1.376 . S
C4069 C4068 1.392 . S
C4069 H4081 0.929 . S
C4070 C4066 1.531 . S
C4070 H4082 0.960 . S
C4070 H4083 0.962 . S
C4070 H4084 0.960 . S
C4071 C4068 1.511 . S
C4071 H4085 0.961 . S
C4071 H4086 0.961 . S
C4071 H4087 0.961 . S
C4072 C4073 1.370 . S
C4072 C4074 1.363 . S
C4072 H4088 0.931 . S
C4073 C4072 1.370 . S
C4073 C4077 1.408 . S
C4074 C4072 1.363 . S
C4074 C4075 1.370 . S
C4074 C4078 1.524 . S
C4075 C4067 1.503 . S
C4075 C4074 1.370 . S
C4075 C4076 1.403 . S
C4076 C4075 1.403 . S
C4076 C4077 1.404 . S
C4076 C4079 1.539 . S
C4077 C4073 1.408 . S
C4077 C4076 1.404 . S
C4077 H4089 0.930 . S
C4078 C4074 1.524 . S
C4078 H4090 0.956 . S
C4078 H4091 0.961 . S
C4078 H4092 0.961 . S
C4079 C4076 1.539 . S
C4079 H4093 0.958 . S
C4079 H4094 0.961 1_565 S
C4079 H4095 0.960 . S
H4080 C4064 0.931 . S
H4081 C4069 0.929 . S
H4082 C4070 0.960 . S
H4083 C4070 0.962 . S
H4084 C4070 0.960 . S
H4085 C4071 0.961 . S
H4086 C4071 0.961 . S
H4087 C4071 0.961 . S
H4088 C4072 0.931 . S
H4089 C4077 0.930 . S
H4090 C4078 0.956 . S
H4091 C4078 0.961 . S
H4092 C4078 0.961 . S
H4093 C4079 0.958 . S
H4094 C4079 0.961 1_545 S
H4095 C4079 0.960 . S
C4096 C4097 1.391 . S
C4096 C4098 1.394 . S
C4096 H4112 0.931 . S
C4097 C4096 1.391 . S
C4097 C4101 1.376 . S
C4098 C4096 1.394 . S
C4098 C4099 1.369 . S
C4098 C4102 1.531 . S
C4099 C4098 1.369 . S
C4099 C4100 1.410 . S
C4099 C4107 1.503 . S
C4100 C4099 1.410 . S
C4100 C4101 1.392 . S
C4100 C4103 1.511 . S
C4101 C4097 1.376 . S
C4101 C4100 1.392 . S
C4101 H4113 0.929 . S
C4102 C4098 1.531 . S
C4102 H4114 0.960 . S
C4102 H4115 0.962 . S
C4102 H4116 0.960 . S
C4103 C4100 1.511 . S
C4103 H4117 0.961 . S
C4103 H4118 0.961 . S
C4103 H4119 0.961 . S
C4104 C4105 1.370 . S
C4104 C4106 1.363 . S
C4104 H4120 0.931 . S
C4105 C4104 1.370 . S
C4105 C4109 1.408 . S
C4106 C4104 1.363 . S
C4106 C4107 1.370 . S
C4106 C4110 1.524 . S
C4107 C4099 1.503 . S
C4107 C4106 1.370 . S
C4107 C4108 1.403 . S
C4108 C4107 1.403 . S
C4108 C4109 1.404 . S
C4108 C4111 1.539 . S
C4109 C4105 1.408 . S
C4109 C4108 1.404 . S
C4109 H4121 0.930 . S
C4110 C4106 1.524 . S
C4110 H4122 0.956 . S
C4110 H4123 0.961 . S
C4110 H4124 0.961 . S
C4111 C4108 1.539 . S
C4111 H4125 0.958 . S
C4111 H4126 0.961 . S
C4111 H4127 0.960 . S
H4112 C4096 0.931 . S
H4113 C4101 0.929 . S
H4114 C4102 0.960 . S
H4115 C4102 0.962 . S
H4116 C4102 0.960 . S
H4117 C4103 0.961 . S
H4118 C4103 0.961 . S
H4119 C4103 0.961 . S
H4120 C4104 0.931 . S
H4121 C4109 0.930 . S
H4122 C4110 0.956 . S
H4123 C4110 0.961 . S
H4124 C4110 0.961 . S
H4125 C4111 0.958 . S
H4126 C4111 0.961 . S
H4127 C4111 0.960 . S
C4128 C4129 1.391 . S
C4128 C4130 1.394 . S
C4128 H4144 0.931 . S
C4129 C4128 1.391 . S
C4129 C4133 1.376 1_655 S
C4130 C4128 1.394 . S
C4130 C4131 1.369 1_655 S
C4130 C4134 1.531 . S
C4131 C4130 1.369 1_455 S
C4131 C4132 1.410 . S
C4131 C4139 1.503 . S
C4132 C4131 1.410 . S
C4132 C4133 1.392 . S
C4132 C4135 1.511 . S
C4133 C4129 1.376 1_455 S
C4133 C4132 1.392 . S
C4133 H4145 0.929 . S
C4134 C4130 1.531 . S
C4134 H4146 0.960 . S
C4134 H4147 0.962 . S
C4134 H4148 0.960 . S
C4135 C4132 1.511 . S
C4135 H4149 0.961 . S
C4135 H4150 0.961 . S
C4135 H4151 0.961 . S
C4136 C4137 1.370 . S
C4136 C4138 1.363 . S
C4136 H4152 0.931 . S
C4137 C4136 1.370 . S
C4137 C4141 1.408 . S
C4138 C4136 1.363 . S
C4138 C4139 1.370 . S
C4138 C4142 1.510 1_455 S
C4139 C4131 1.503 . S
C4139 C4138 1.370 . S
C4139 C4140 1.403 . S
C4140 C4139 1.403 . S
C4140 C4141 1.404 . S
C4140 C4143 1.539 . S
C4141 C4137 1.408 . S
C4141 C4140 1.404 . S
C4141 H4153 0.930 . S
C4142 C4138 1.510 1_655 S
C4142 H4154 0.979 . S
C4142 H4155 0.943 1_655 S
C4142 H4156 0.971 1_655 S
C4143 C4140 1.539 . S
C4143 H4157 0.958 1_455 S
C4143 H4158 0.961 . S
C4143 H4159 0.960 . S
H4144 C4128 0.931 . S
H4145 C4133 0.929 . S
H4146 C4134 0.960 . S
H4147 C4134 0.962 . S
H4148 C4134 0.960 . S
H4149 C4135 0.961 . S
H4150 C4135 0.961 . S
H4151 C4135 0.961 . S
H4152 C4136 0.931 . S
H4153 C4141 0.930 . S
H4154 C4142 0.979 . S
H4155 C4142 0.943 1_455 S
H4156 C4142 0.971 1_455 S
H4157 C4143 0.958 1_655 S
H4158 C4143 0.961 . S
H4159 C4143 0.960 . S
C4160 C4161 1.391 . S
C4160 C4162 1.394 . S
C4160 H4176 0.931 . S
C4161 C4160 1.391 . S
C4161 C4165 1.376 . S
C4162 C4160 1.394 . S
C4162 C4163 1.369 . S
C4162 C4166 1.531 . S
C4163 C4162 1.369 . S
C4163 C4164 1.410 . S
C4163 C4171 1.503 . S
C4164 C4163 1.410 . S
C4164 C4165 1.392 . S
C4164 C4167 1.511 . S
C4165 C4161 1.376 . S
C4165 C4164 1.392 . S
C4165 H4177 0.929 . S
C4166 C4162 1.531 . S
C4166 H4178 0.960 . S
C4166 H4179 0.962 . S
C4166 H4180 0.960 . S
C4167 C4164 1.511 . S
C4167 H4181 0.961 . S
C4167 H4182 0.961 . S
C4167 H4183 0.961 . S
C4168 C4169 1.370 . S
C4168 C4170 1.363 . S
C4168 H4184 0.931 . S
C4169 C4168 1.370 . S
C4169 C4173 1.408 . S
C4170 C4168 1.363 . S
C4170 C4171 1.370 . S
C4170 C4174 1.524 . S
C4171 C4163 1.503 . S
C4171 C4170 1.370 . S
C4171 C4172 1.403 . S
C4172 C4171 1.403 . S
C4172 C4173 1.404 . S
C4172 C4175 1.539 . S
C4173 C4169 1.408 . S
C4173 C4172 1.404 . S
C4173 H4185 0.930 . S
C4174 C4170 1.524 . S
C4174 H4186 0.956 . S
C4174 H4187 0.961 . S
C4174 H4188 0.961 . S
C4175 C4172 1.539 . S
C4175 H4189 0.958 . S
C4175 H4190 0.961 . S
C4175 H4191 0.960 . S
H4176 C4160 0.931 . S
H4177 C4165 0.929 . S
H4178 C4166 0.960 . S
H4179 C4166 0.962 . S
H4180 C4166 0.960 . S
H4181 C4167 0.961 . S
H4182 C4167 0.961 . S
H4183 C4167 0.961 . S
H4184 C4168 0.931 . S
H4185 C4173 0.930 . S
H4186 C4174 0.956 . S
H4187 C4174 0.961 . S
H4188 C4174 0.961 . S
H4189 C4175 0.958 . S
H4190 C4175 0.961 . S
H4191 C4175 0.960 . S
C4192 C4193 1.389 1_565 S
C4192 C4194 1.394 . S
C4192 H4208 0.931 . S
C4193 C4192 1.389 1_545 S
C4193 C4197 1.377 . S
C4194 C4192 1.394 . S
C4194 C4195 1.369 . S
C4194 C4198 1.531 . S
C4195 C4194 1.369 . S
C4195 C4196 1.410 1_565 S
C4195 C4203 1.503 . S
C4196 C4195 1.410 1_545 S
C4196 C4197 1.392 . S
C4196 C4199 1.511 . S
C4197 C4193 1.377 . S
C4197 C4196 1.392 . S
C4197 H4209 0.929 . S
C4198 C4194 1.531 . S
C4198 H4210 0.960 . S
C4198 H4211 0.962 . S
C4198 H4212 0.960 . S
C4199 C4196 1.511 . S
C4199 H4213 0.961 . S
C4199 H4214 0.961 . S
C4199 H4215 0.961 . S
C4200 C4201 1.370 1_545 S
C4200 C4202 1.363 . S
C4200 H4216 0.931 . S
C4201 C4200 1.370 1_565 S
C4201 C4205 1.408 . S
C4202 C4200 1.363 . S
C4202 C4203 1.370 1_545 S
C4202 C4206 1.524 . S
C4203 C4195 1.503 . S
C4203 C4202 1.370 1_565 S
C4203 C4204 1.403 . S
C4204 C4203 1.403 . S
C4204 C4205 1.404 . S
C4204 C4207 1.539 . S
C4205 C4201 1.408 . S
C4205 C4204 1.404 . S
C4205 H4217 0.930 . S
C4206 C4202 1.524 . S
C4206 H4218 0.956 . S
C4206 H4219 0.961 . S
C4206 H4220 0.961 . S
C4207 C4204 1.539 . S
C4207 H4221 0.958 . S
C4207 H4222 0.961 . S
C4207 H4223 0.960 . S
H4208 C4192 0.931 . S
H4209 C4197 0.929 . S
H4210 C4198 0.960 . S
H4211 C4198 0.962 . S
H4212 C4198 0.960 . S
H4213 C4199 0.961 . S
H4214 C4199 0.961 . S
H4215 C4199 0.961 . S
H4216 C4200 0.931 . S
H4217 C4205 0.930 . S
H4218 C4206 0.956 . S
H4219 C4206 0.961 . S
H4220 C4206 0.961 . S
H4221 C4207 0.958 . S
H4222 C4207 0.961 . S
H4223 C4207 0.960 . S
C4224 C4225 1.391 1_565 S
C4224 C4226 1.394 . S
C4224 H4240 0.931 . S
C4225 C4224 1.391 1_545 S
C4225 C4229 1.376 . S
C4226 C4224 1.394 . S
C4226 C4227 1.369 . S
C4226 C4230 1.531 . S
C4227 C4226 1.369 . S
C4227 C4228 1.410 1_565 S
C4227 C4235 1.503 . S
C4228 C4227 1.410 1_545 S
C4228 C4229 1.392 . S
C4228 C4231 1.511 . S
C4229 C4225 1.376 . S
C4229 C4228 1.392 . S
C4229 H4241 0.929 . S
C4230 C4226 1.531 . S
C4230 H4242 0.960 . S
C4230 H4243 0.962 . S
C4230 H4244 0.960 . S
C4231 C4228 1.511 . S
C4231 H4245 0.961 . S
C4231 H4246 0.961 . S
C4231 H4247 0.961 . S
C4232 C4233 1.370 1_545 S
C4232 C4234 1.363 . S
C4232 H4248 0.931 . S
C4233 C4232 1.370 1_565 S
C4233 C4237 1.408 . S
C4234 C4232 1.363 . S
C4234 C4235 1.370 1_545 S
C4234 C4238 1.524 . S
C4235 C4227 1.503 . S
C4235 C4234 1.370 1_565 S
C4235 C4236 1.403 . S
C4236 C4235 1.403 . S
C4236 C4237 1.404 . S
C4236 C4239 1.539 . S
C4237 C4233 1.408 . S
C4237 C4236 1.404 . S
C4237 H4249 0.930 . S
C4238 C4234 1.524 . S
C4238 H4250 0.956 . S
C4238 H4251 0.961 . S
C4238 H4252 0.961 . S
C4239 C4236 1.539 . S
C4239 H4253 0.958 . S
C4239 H4254 0.961 . S
C4239 H4255 0.960 . S
H4240 C4224 0.931 . S
H4241 C4229 0.929 . S
H4242 C4230 0.960 . S
H4243 C4230 0.962 . S
H4244 C4230 0.960 . S
H4245 C4231 0.961 . S
H4246 C4231 0.961 . S
H4247 C4231 0.961 . S
H4248 C4232 0.931 . S
H4249 C4237 0.930 . S
H4250 C4238 0.956 . S
H4251 C4238 0.961 . S
H4252 C4238 0.961 . S
H4253 C4239 0.958 . S
H4254 C4239 0.961 . S
H4255 C4239 0.960 . S
C4256 C4257 1.418 . S
C4256 C4258 1.394 . S
C4256 H4272 0.931 . S
C4257 C4256 1.418 . S
C4257 C4261 1.348 1_455 S
C4258 C4256 1.394 . S
C4258 C4259 1.369 1_455 S
C4258 C4262 1.531 . S
C4259 C4258 1.369 1_655 S
C4259 C4260 1.410 . S
C4259 C4267 1.503 . S
C4260 C4259 1.410 . S
C4260 C4261 1.392 . S
C4260 C4263 1.511 . S
C4261 C4257 1.348 1_655 S
C4261 C4260 1.392 . S
C4261 H4273 0.929 . S
C4262 C4258 1.531 . S
C4262 H4274 0.960 . S
C4262 H4275 0.962 . S
C4262 H4276 0.960 . S
C4263 C4260 1.511 . S
C4263 H4277 0.961 . S
C4263 H4278 0.961 . S
C4263 H4279 0.961 . S
C4264 C4265 1.370 1_455 S
C4264 C4266 1.363 . S
C4264 H4280 0.931 . S
C4265 C4264 1.370 1_655 S
C4265 C4269 1.408 . S
C4266 C4264 1.363 . S
C4266 C4267 1.370 1_455 S
C4266 C4270 1.524 . S
C4267 C4259 1.503 . S
C4267 C4266 1.370 1_655 S
C4267 C4268 1.403 . S
C4268 C4267 1.403 . S
C4268 C4269 1.404 . S
C4268 C4271 1.539 . S
C4269 C4265 1.408 . S
C4269 C4268 1.404 . S
C4269 H4281 0.930 . S
C4270 C4266 1.524 . S
C4270 H4282 0.956 . S
C4270 H4283 0.961 . S
C4270 H4284 0.961 . S
C4271 C4268 1.539 . S
C4271 H4285 0.958 . S
C4271 H4286 0.961 . S
C4271 H4287 0.960 . S
H4272 C4256 0.931 . S
H4273 C4261 0.929 . S
H4274 C4262 0.960 . S
H4275 C4262 0.962 . S
H4276 C4262 0.960 . S
H4277 C4263 0.961 . S
H4278 C4263 0.961 . S
H4279 C4263 0.961 . S
H4280 C4264 0.931 . S
H4281 C4269 0.930 . S
H4282 C4270 0.956 . S
H4283 C4270 0.961 . S
H4284 C4270 0.961 . S
H4285 C4271 0.958 . S
H4286 C4271 0.961 . S
H4287 C4271 0.960 . S
C4288 C4289 1.391 . S
C4288 C4290 1.394 . S
C4288 H4304 0.931 . S
C4289 C4288 1.391 . S
C4289 C4293 1.376 . S
C4290 C4288 1.394 . S
C4290 C4291 1.369 . S
C4290 C4294 1.531 . S
C4291 C4290 1.369 . S
C4291 C4292 1.410 . S
C4291 C4299 1.503 . S
C4292 C4291 1.410 . S
C4292 C4293 1.392 . S
C4292 C4295 1.511 . S
C4293 C4289 1.376 . S
C4293 C4292 1.392 . S
C4293 H4305 0.929 . S
C4294 C4290 1.531 . S
C4294 H4306 0.960 . S
C4294 H4307 0.962 . S
C4294 H4308 0.960 . S
C4295 C4292 1.511 . S
C4295 H4309 0.961 . S
C4295 H4310 0.961 . S
C4295 H4311 0.961 . S
C4296 C4297 1.370 . S
C4296 C4298 1.363 . S
C4296 H4312 0.931 . S
C4297 C4296 1.370 . S
C4297 C4301 1.408 . S
C4298 C4296 1.363 . S
C4298 C4299 1.370 . S
C4298 C4302 1.524 . S
C4299 C4291 1.503 . S
C4299 C4298 1.370 . S
C4299 C4300 1.403 . S
C4300 C4299 1.403 . S
C4300 C4301 1.404 . S
C4300 C4303 1.539 . S
C4301 C4297 1.408 . S
C4301 C4300 1.404 . S
C4301 H4313 0.930 . S
C4302 C4298 1.524 . S
C4302 H4314 0.956 . S
C4302 H4315 0.961 . S
C4302 H4316 0.961 . S
C4303 C4300 1.539 . S
C4303 H4317 0.958 . S
C4303 H4318 0.961 . S
C4303 H4319 0.960 . S
H4304 C4288 0.931 . S
H4305 C4293 0.929 . S
H4306 C4294 0.960 . S
H4307 C4294 0.962 . S
H4308 C4294 0.960 . S
H4309 C4295 0.961 . S
H4310 C4295 0.961 . S
H4311 C4295 0.961 . S
H4312 C4296 0.931 . S
H4313 C4301 0.930 . S
H4314 C4302 0.956 . S
H4315 C4302 0.961 . S
H4316 C4302 0.961 . S
H4317 C4303 0.958 . S
H4318 C4303 0.961 . S
H4319 C4303 0.960 . S
C4320 C4321 1.391 . S
C4320 C4322 1.394 . S
C4320 H4336 0.931 . S
C4321 C4320 1.391 . S
C4321 C4325 1.376 . S
C4322 C4320 1.394 . S
C4322 C4323 1.369 . S
C4322 C4326 1.531 . S
C4323 C4322 1.369 . S
C4323 C4324 1.410 1_655 S
C4323 C4331 1.503 1_655 S
C4324 C4323 1.410 1_455 S
C4324 C4325 1.392 1_455 S
C4324 C4327 1.511 . S
C4325 C4321 1.376 . S
C4325 C4324 1.392 1_655 S
C4325 H4337 0.929 . S
C4326 C4322 1.531 . S
C4326 H4338 0.960 . S
C4326 H4339 0.962 . S
C4326 H4340 0.960 . S
C4327 C4324 1.511 . S
C4327 H4341 0.961 . S
C4327 H4342 0.961 . S
C4327 H4343 0.961 . S
C4328 C4329 1.370 . S
C4328 C4330 1.363 1_455 S
C4328 H4344 0.931 1_455 S
C4329 C4328 1.370 . S
C4329 C4333 1.408 . S
C4330 C4328 1.363 1_655 S
C4330 C4331 1.370 1_655 S
C4330 C4334 1.524 . S
C4331 C4323 1.503 1_455 S
C4331 C4330 1.370 1_455 S
C4331 C4332 1.403 . S
C4332 C4331 1.403 . S
C4332 C4333 1.404 . S
C4332 C4335 1.539 . S
C4333 C4329 1.408 . S
C4333 C4332 1.404 . S
C4333 H4345 0.930 . S
C4334 C4330 1.524 . S
C4334 H4346 0.956 . S
C4334 H4347 0.961 . S
C4334 H4348 0.961 . S
C4335 C4332 1.539 . S
C4335 H4349 0.958 . S
C4335 H4350 0.961 . S
C4335 H4351 0.960 . S
H4336 C4320 0.931 . S
H4337 C4325 0.929 . S
H4338 C4326 0.960 . S
H4339 C4326 0.962 . S
H4340 C4326 0.960 . S
H4341 C4327 0.961 . S
H4342 C4327 0.961 . S
H4343 C4327 0.961 . S
H4344 C4328 0.931 1_655 S
H4345 C4333 0.930 . S
H4346 C4334 0.956 . S
H4347 C4334 0.961 . S
H4348 C4334 0.961 . S
H4349 C4335 0.958 . S
H4350 C4335 0.961 . S
H4351 C4335 0.960 . S
C4352 C4353 1.391 . S
C4352 C4354 1.394 . S
C4352 H4368 0.931 . S
C4353 C4352 1.391 . S
C4353 C4357 1.376 . S
C4354 C4352 1.394 . S
C4354 C4355 1.369 . S
C4354 C4358 1.531 . S
C4355 C4354 1.369 . S
C4355 C4356 1.410 . S
C4355 C4363 1.503 . S
C4356 C4355 1.410 . S
C4356 C4357 1.392 . S
C4356 C4359 1.511 . S
C4357 C4353 1.376 . S
C4357 C4356 1.392 . S
C4357 H4369 0.929 . S
C4358 C4354 1.531 . S
C4358 H4370 0.960 . S
C4358 H4371 0.962 . S
C4358 H4372 0.960 . S
C4359 C4356 1.511 . S
C4359 H4373 0.961 . S
C4359 H4374 0.961 . S
C4359 H4375 0.961 . S
C4360 C4361 1.370 . S
C4360 C4362 1.363 . S
C4360 H4376 0.931 . S
C4361 C4360 1.370 . S
C4361 C4365 1.408 . S
C4362 C4360 1.363 . S
C4362 C4363 1.370 . S
C4362 C4366 1.524 . S
C4363 C4355 1.503 . S
C4363 C4362 1.370 . S
C4363 C4364 1.403 . S
C4364 C4363 1.403 . S
C4364 C4365 1.404 . S
C4364 C4367 1.539 . S
C4365 C4361 1.408 . S
C4365 C4364 1.404 . S
C4365 H4377 0.930 . S
C4366 C4362 1.524 . S
C4366 H4378 0.956 . S
C4366 H4379 0.961 . S
C4366 H4380 0.961 . S
C4367 C4364 1.539 . S
C4367 H4381 0.958 . S
C4367 H4382 0.961 . S
C4367 H4383 0.960 . S
H4368 C4352 0.931 . S
H4369 C4357 0.929 . S
H4370 C4358 0.960 . S
H4371 C4358 0.962 . S
H4372 C4358 0.960 . S
H4373 C4359 0.961 . S
H4374 C4359 0.961 . S
H4375 C4359 0.961 . S
H4376 C4360 0.931 . S
H4377 C4365 0.930 . S
H4378 C4366 0.956 . S
H4379 C4366 0.961 . S
H4380 C4366 0.961 . S
H4381 C4367 0.958 . S
H4382 C4367 0.961 . S
H4383 C4367 0.960 . S
C4384 C4385 1.391 . S
C4384 C4386 1.394 . S
C4384 H4400 0.931 . S
C4385 C4384 1.391 . S
C4385 C4389 1.376 . S
C4386 C4384 1.394 . S
C4386 C4387 1.369 . S
C4386 C4390 1.531 . S
C4387 C4386 1.369 . S
C4387 C4388 1.410 . S
C4387 C4395 1.503 1_545 S
C4388 C4387 1.410 . S
C4388 C4389 1.392 . S
C4388 C4391 1.511 1_545 S
C4389 C4385 1.376 . S
C4389 C4388 1.392 . S
C4389 H4401 0.929 . S
C4390 C4386 1.531 . S
C4390 H4402 0.960 . S
C4390 H4403 0.962 . S
C4390 H4404 0.960 . S
C4391 C4388 1.511 1_565 S
C4391 H4405 0.961 . S
C4391 H4406 0.961 . S
C4391 H4407 0.961 1_565 S
C4392 C4393 1.370 . S
C4392 C4394 1.363 . S
C4392 H4408 0.931 . S
C4393 C4392 1.370 . S
C4393 C4397 1.408 . S
C4394 C4392 1.363 . S
C4394 C4395 1.370 . S
C4394 C4398 1.524 . S
C4395 C4387 1.503 1_565 S
C4395 C4394 1.370 . S
C4395 C4396 1.403 1_565 S
C4396 C4395 1.403 1_545 S
C4396 C4397 1.404 1_545 S
C4396 C4399 1.539 . S
C4397 C4393 1.408 . S
C4397 C4396 1.404 1_565 S
C4397 H4409 0.930 1_565 S
C4398 C4394 1.524 . S
C4398 H4410 0.956 . S
C4398 H4411 0.961 . S
C4398 H4412 0.961 . S
C4399 C4396 1.539 . S
C4399 H4413 0.958 . S
C4399 H4414 0.961 . S
C4399 H4415 0.960 . S
H4400 C4384 0.931 . S
H4401 C4389 0.929 . S
H4402 C4390 0.960 . S
H4403 C4390 0.962 . S
H4404 C4390 0.960 . S
H4405 C4391 0.961 . S
H4406 C4391 0.961 . S
H4407 C4391 0.961 1_545 S
H4408 C4392 0.931 . S
H4409 C4397 0.930 1_545 S
H4410 C4398 0.956 . S
H4411 C4398 0.961 . S
H4412 C4398 0.961 . S
H4413 C4399 0.958 . S
H4414 C4399 0.961 . S
H4415 C4399 0.960 . S
C4416 C4417 1.391 . S
C4416 C4418 1.394 . S
C4416 H4432 0.931 . S
C4417 C4416 1.391 . S
C4417 C4421 1.376 . S
C4418 C4416 1.394 . S
C4418 C4419 1.369 . S
C4418 C4422 1.531 . S
C4419 C4418 1.369 . S
C4419 C4420 1.410 1_655 S
C4419 C4427 1.503 1_655 S
C4420 C4419 1.410 1_455 S
C4420 C4421 1.392 1_455 S
C4420 C4423 1.511 . S
C4421 C4417 1.376 . S
C4421 C4420 1.392 1_655 S
C4421 H4433 0.929 1_655 S
C4422 C4418 1.531 . S
C4422 H4434 0.960 . S
C4422 H4435 0.962 . S
C4422 H4436 0.960 . S
C4423 C4420 1.511 . S
C4423 H4437 0.961 . S
C4423 H4438 0.961 . S
C4423 H4439 0.961 . S
C4424 C4425 1.370 . S
C4424 C4426 1.363 1_455 S
C4424 H4440 0.930 1_455 S
C4425 C4424 1.370 . S
C4425 C4429 1.408 . S
C4426 C4424 1.363 1_655 S
C4426 C4427 1.370 1_655 S
C4426 C4430 1.524 . S
C4427 C4419 1.503 1_455 S
C4427 C4426 1.370 1_455 S
C4427 C4428 1.403 . S
C4428 C4427 1.403 . S
C4428 C4429 1.404 . S
C4428 C4431 1.539 . S
C4429 C4425 1.408 . S
C4429 C4428 1.404 . S
C4429 H4441 0.930 . S
C4430 C4426 1.524 . S
C4430 H4442 0.956 . S
C4430 H4443 0.961 . S
C4430 H4444 0.961 . S
C4431 C4428 1.539 . S
C4431 H4445 0.958 . S
C4431 H4446 0.961 . S
C4431 H4447 0.960 . S
H4432 C4416 0.931 . S
H4433 C4421 0.929 1_455 S
H4434 C4422 0.960 . S
H4435 C4422 0.962 . S
H4436 C4422 0.960 . S
H4437 C4423 0.961 . S
H4438 C4423 0.961 . S
H4439 C4423 0.961 . S
H4440 C4424 0.930 1_655 S
H4441 C4429 0.930 . S
H4442 C4430 0.956 . S
H4443 C4430 0.961 . S
H4444 C4430 0.961 . S
H4445 C4431 0.958 . S
H4446 C4431 0.961 . S
H4447 C4431 0.960 . S
C4448 C4449 1.391 . S
C4448 C4450 1.394 . S
C4448 H4464 0.931 . S
C4449 C4448 1.391 . S
C4449 C4453 1.376 . S
C4450 C4448 1.394 . S
C4450 C4451 1.369 . S
C4450 C4454 1.531 . S
C4451 C4450 1.369 . S
C4451 C4452 1.410 . S
C4451 C4459 1.503 . S
C4452 C4451 1.410 . S
C4452 C4453 1.392 . S
C4452 C4455 1.511 . S
C4453 C4449 1.376 . S
C4453 C4452 1.392 . S
C4453 H4465 0.929 . S
C4454 C4450 1.531 . S
C4454 H4466 0.960 . S
C4454 H4467 0.962 . S
C4454 H4468 0.960 . S
C4455 C4452 1.511 . S
C4455 H4469 0.961 . S
C4455 H4470 0.961 . S
C4455 H4471 0.961 . S
C4456 C4457 1.370 . S
C4456 C4458 1.363 . S
C4456 H4472 0.931 . S
C4457 C4456 1.370 . S
C4457 C4461 1.408 . S
C4458 C4456 1.363 . S
C4458 C4459 1.370 . S
C4458 C4462 1.524 . S
C4459 C4451 1.503 . S
C4459 C4458 1.370 . S
C4459 C4460 1.403 . S
C4460 C4459 1.403 . S
C4460 C4461 1.404 . S
C4460 C4463 1.539 . S
C4461 C4457 1.408 . S
C4461 C4460 1.404 . S
C4461 H4473 0.930 . S
C4462 C4458 1.524 . S
C4462 H4474 0.956 . S
C4462 H4475 0.961 . S
C4462 H4476 0.961 . S
C4463 C4460 1.539 . S
C4463 H4477 0.958 . S
C4463 H4478 0.961 . S
C4463 H4479 0.960 . S
H4464 C4448 0.931 . S
H4465 C4453 0.929 . S
H4466 C4454 0.960 . S
H4467 C4454 0.962 . S
H4468 C4454 0.960 . S
H4469 C4455 0.961 . S
H4470 C4455 0.961 . S
H4471 C4455 0.961 . S
H4472 C4456 0.931 . S
H4473 C4461 0.930 . S
H4474 C4462 0.956 . S
H4475 C4462 0.961 . S
H4476 C4462 0.961 . S
H4477 C4463 0.958 . S
H4478 C4463 0.961 . S
H4479 C4463 0.960 . S
C4480 C4481 1.391 . S
C4480 C4482 1.394 . S
C4480 H4496 0.931 . S
C4481 C4480 1.391 . S
C4481 C4485 1.376 . S
C4482 C4480 1.394 . S
C4482 C4483 1.367 . S
C4482 C4486 1.531 . S
C4483 C4482 1.367 . S
C4483 C4484 1.422 . S
C4483 C4491 1.496 1_545 S
C4484 C4483 1.422 . S
C4484 C4485 1.392 . S
C4484 C4487 1.511 1_545 S
C4485 C4481 1.376 . S
C4485 C4484 1.392 . S
C4485 H4497 0.929 . S
C4486 C4482 1.531 . S
C4486 H4498 0.960 1_545 S
C4486 H4499 0.962 . S
C4486 H4500 0.960 . S
C4487 C4484 1.511 1_565 S
C4487 H4501 0.961 1_565 S
C4487 H4502 0.961 . S
C4487 H4503 0.961 . S
C4488 C4489 1.370 . S
C4488 C4490 1.363 1_565 S
C4488 H4504 0.931 1_565 S
C4489 C4488 1.370 . S
C4489 C4493 1.408 . S
C4490 C4488 1.363 1_545 S
C4490 C4491 1.370 1_545 S
C4490 C4494 1.524 . S
C4491 C4483 1.496 1_565 S
C4491 C4490 1.370 1_565 S
C4491 C4492 1.403 . S
C4492 C4491 1.403 . S
C4492 C4493 1.404 . S
C4492 C4495 1.539 . S
C4493 C4489 1.408 . S
C4493 C4492 1.404 . S
C4493 H4505 0.930 . S
C4494 C4490 1.524 . S
C4494 H4506 0.956 . S
C4494 H4507 0.961 . S
C4494 H4508 0.961 . S
C4495 C4492 1.539 . S
C4495 H4509 0.958 . S
C4495 H4510 0.961 . S
C4495 H4511 0.960 . S
H4496 C4480 0.931 . S
H4497 C4485 0.929 . S
H4498 C4486 0.960 1_565 S
H4499 C4486 0.962 . S
H4500 C4486 0.960 . S
H4501 C4487 0.961 1_545 S
H4502 C4487 0.961 . S
H4503 C4487 0.961 . S
H4504 C4488 0.931 1_545 S
H4505 C4493 0.930 . S
H4506 C4494 0.956 . S
H4507 C4494 0.961 . S
H4508 C4494 0.961 . S
H4509 C4495 0.958 . S
H4510 C4495 0.961 . S
H4511 C4495 0.960 . S
C4512 C4513 1.391 . S
C4512 C4514 1.394 . S
C4512 H4528 0.931 . S
C4513 C4512 1.391 . S
C4513 C4517 1.376 . S
C4514 C4512 1.394 . S
C4514 C4515 1.369 . S
C4514 C4518 1.531 . S
C4515 C4514 1.369 . S
C4515 C4516 1.410 . S
C4515 C4523 1.503 . S
C4516 C4515 1.410 . S
C4516 C4517 1.392 . S
C4516 C4519 1.511 . S
C4517 C4513 1.376 . S
C4517 C4516 1.392 . S
C4517 H4529 0.929 . S
C4518 C4514 1.531 . S
C4518 H4530 0.960 . S
C4518 H4531 0.962 . S
C4518 H4532 0.960 . S
C4519 C4516 1.511 . S
C4519 H4533 0.961 . S
C4519 H4534 0.961 . S
C4519 H4535 0.961 . S
C4520 C4521 1.370 . S
C4520 C4522 1.363 . S
C4520 H4536 0.931 . S
C4521 C4520 1.370 . S
C4521 C4525 1.408 . S
C4522 C4520 1.363 . S
C4522 C4523 1.370 . S
C4522 C4526 1.524 . S
C4523 C4515 1.503 . S
C4523 C4522 1.370 . S
C4523 C4524 1.403 . S
C4524 C4523 1.403 . S
C4524 C4525 1.404 . S
C4524 C4527 1.539 . S
C4525 C4521 1.408 . S
C4525 C4524 1.404 . S
C4525 H4537 0.930 . S
C4526 C4522 1.524 . S
C4526 H4538 0.956 . S
C4526 H4539 0.961 . S
C4526 H4540 0.961 . S
C4527 C4524 1.539 . S
C4527 H4541 0.958 . S
C4527 H4542 0.961 . S
C4527 H4543 0.960 . S
H4528 C4512 0.931 . S
H4529 C4517 0.929 . S
H4530 C4518 0.960 . S
H4531 C4518 0.962 . S
H4532 C4518 0.960 . S
H4533 C4519 0.961 . S
H4534 C4519 0.961 . S
H4535 C4519 0.961 . S
H4536 C4520 0.931 . S
H4537 C4525 0.930 . S
H4538 C4526 0.956 . S
H4539 C4526 0.961 . S
H4540 C4526 0.961 . S
H4541 C4527 0.958 . S
H4542 C4527 0.961 . S
H4543 C4527 0.960 . S
C4544 C4545 1.391 . S
C4544 C4546 1.394 . S
C4544 H4560 0.931 . S
C4545 C4544 1.391 . S
C4545 C4549 1.376 . S
C4546 C4544 1.394 . S
C4546 C4547 1.369 . S
C4546 C4550 1.531 . S
C4547 C4546 1.369 . S
C4547 C4548 1.410 . S
C4547 C4555 1.503 . S
C4548 C4547 1.410 . S
C4548 C4549 1.392 . S
C4548 C4551 1.511 . S
C4549 C4545 1.376 . S
C4549 C4548 1.392 . S
C4549 H4561 0.929 . S
C4550 C4546 1.531 . S
C4550 H4562 0.960 . S
C4550 H4563 0.962 . S
C4550 H4564 0.960 . S
C4551 C4548 1.511 . S
C4551 H4565 0.961 . S
C4551 H4566 0.961 . S
C4551 H4567 0.961 . S
C4552 C4553 1.370 . S
C4552 C4554 1.363 . S
C4552 H4568 0.931 . S
C4553 C4552 1.370 . S
C4553 C4557 1.408 . S
C4554 C4552 1.363 . S
C4554 C4555 1.370 . S
C4554 C4558 1.524 . S
C4555 C4547 1.503 . S
C4555 C4554 1.370 . S
C4555 C4556 1.403 . S
C4556 C4555 1.403 . S
C4556 C4557 1.404 . S
C4556 C4559 1.539 . S
C4557 C4553 1.408 . S
C4557 C4556 1.404 . S
C4557 H4569 0.930 . S
C4558 C4554 1.524 . S
C4558 H4570 0.956 . S
C4558 H4571 0.961 . S
C4558 H4572 0.961 . S
C4559 C4556 1.539 . S
C4559 H4573 0.958 . S
C4559 H4574 0.961 . S
C4559 H4575 0.960 . S
H4560 C4544 0.931 . S
H4561 C4549 0.929 . S
H4562 C4550 0.960 . S
H4563 C4550 0.962 . S
H4564 C4550 0.960 . S
H4565 C4551 0.961 . S
H4566 C4551 0.961 . S
H4567 C4551 0.961 . S
H4568 C4552 0.931 . S
H4569 C4557 0.930 . S
H4570 C4558 0.956 . S
H4571 C4558 0.961 . S
H4572 C4558 0.961 . S
H4573 C4559 0.958 . S
H4574 C4559 0.961 . S
H4575 C4559 0.960 . S
C4576 C4577 1.391 . S
C4576 C4578 1.394 . S
C4576 H4592 0.931 . S
C4577 C4576 1.391 . S
C4577 C4581 1.376 . S
C4578 C4576 1.394 . S
C4578 C4579 1.369 . S
C4578 C4582 1.531 . S
C4579 C4578 1.369 . S
C4579 C4580 1.410 . S
C4579 C4587 1.503 . S
C4580 C4579 1.410 . S
C4580 C4581 1.392 . S
C4580 C4583 1.511 . S
C4581 C4577 1.376 . S
C4581 C4580 1.392 . S
C4581 H4593 0.929 . S
C4582 C4578 1.531 . S
C4582 H4594 0.960 . S
C4582 H4595 0.962 . S
C4582 H4596 0.960 . S
C4583 C4580 1.511 . S
C4583 H4597 0.961 . S
C4583 H4598 0.961 . S
C4583 H4599 0.961 . S
C4584 C4585 1.370 . S
C4584 C4586 1.363 . S
C4584 H4600 0.931 . S
C4585 C4584 1.370 . S
C4585 C4589 1.408 . S
C4586 C4584 1.363 . S
C4586 C4587 1.370 . S
C4586 C4590 1.524 . S
C4587 C4579 1.503 . S
C4587 C4586 1.370 . S
C4587 C4588 1.403 . S
C4588 C4587 1.403 . S
C4588 C4589 1.404 . S
C4588 C4591 1.539 . S
C4589 C4585 1.408 . S
C4589 C4588 1.404 . S
C4589 H4601 0.930 . S
C4590 C4586 1.524 . S
C4590 H4602 0.956 . S
C4590 H4603 0.961 . S
C4590 H4604 0.961 . S
C4591 C4588 1.539 . S
C4591 H4605 0.958 . S
C4591 H4606 0.961 . S
C4591 H4607 0.960 . S
H4592 C4576 0.931 . S
H4593 C4581 0.929 . S
H4594 C4582 0.960 . S
H4595 C4582 0.962 . S
H4596 C4582 0.960 . S
H4597 C4583 0.961 . S
H4598 C4583 0.961 . S
H4599 C4583 0.961 . S
H4600 C4584 0.931 . S
H4601 C4589 0.930 . S
H4602 C4590 0.956 . S
H4603 C4590 0.961 . S
H4604 C4590 0.961 . S
H4605 C4591 0.958 . S
H4606 C4591 0.961 . S
H4607 C4591 0.960 . S
C4608 C4609 1.391 . S
C4608 C4610 1.394 . S
C4608 H4624 0.931 . S
C4609 C4608 1.391 . S
C4609 C4613 1.376 . S
C4610 C4608 1.394 . S
C4610 C4611 1.369 . S
C4610 C4614 1.531 . S
C4611 C4610 1.369 . S
C4611 C4612 1.410 . S
C4611 C4619 1.503 . S
C4612 C4611 1.410 . S
C4612 C4613 1.392 . S
C4612 C4615 1.511 . S
C4613 C4609 1.376 . S
C4613 C4612 1.392 . S
C4613 H4625 0.929 . S
C4614 C4610 1.531 . S
C4614 H4626 0.960 . S
C4614 H4627 0.962 . S
C4614 H4628 0.960 . S
C4615 C4612 1.511 . S
C4615 H4629 0.961 . S
C4615 H4630 0.961 . S
C4615 H4631 0.961 . S
C4616 C4617 1.370 . S
C4616 C4618 1.363 . S
C4616 H4632 0.931 . S
C4617 C4616 1.370 . S
C4617 C4621 1.408 . S
C4618 C4616 1.363 . S
C4618 C4619 1.370 . S
C4618 C4622 1.524 . S
C4619 C4611 1.503 . S
C4619 C4618 1.370 . S
C4619 C4620 1.403 . S
C4620 C4619 1.403 . S
C4620 C4621 1.404 . S
C4620 C4623 1.539 . S
C4621 C4617 1.408 . S
C4621 C4620 1.404 . S
C4621 H4633 0.930 . S
C4622 C4618 1.524 . S
C4622 H4634 0.956 . S
C4622 H4635 0.961 . S
C4622 H4636 0.961 . S
C4623 C4620 1.539 . S
C4623 H4637 0.958 . S
C4623 H4638 0.961 . S
C4623 H4639 0.960 . S
H4624 C4608 0.931 . S
H4625 C4613 0.929 . S
H4626 C4614 0.960 . S
H4627 C4614 0.962 . S
H4628 C4614 0.960 . S
H4629 C4615 0.961 . S
H4630 C4615 0.961 . S
H4631 C4615 0.961 . S
H4632 C4616 0.931 . S
H4633 C4621 0.930 . S
H4634 C4622 0.956 . S
H4635 C4622 0.961 . S
H4636 C4622 0.961 . S
H4637 C4623 0.958 . S
H4638 C4623 0.961 . S
H4639 C4623 0.960 . S
C4640 C4641 1.391 . S
C4640 C4642 1.394 . S
C4640 H4656 0.931 . S
C4641 C4640 1.391 . S
C4641 C4645 1.376 . S
C4642 C4640 1.394 . S
C4642 C4643 1.369 . S
C4642 C4646 1.531 . S
C4643 C4642 1.369 . S
C4643 C4644 1.410 . S
C4643 C4651 1.503 . S
C4644 C4643 1.410 . S
C4644 C4645 1.392 . S
C4644 C4647 1.511 . S
C4645 C4641 1.376 . S
C4645 C4644 1.392 . S
C4645 H4657 0.929 . S
C4646 C4642 1.531 . S
C4646 H4658 0.960 . S
C4646 H4659 0.962 . S
C4646 H4660 0.960 . S
C4647 C4644 1.511 . S
C4647 H4661 0.961 . S
C4647 H4662 0.961 . S
C4647 H4663 0.961 . S
C4648 C4649 1.370 . S
C4648 C4650 1.363 . S
C4648 H4664 0.931 . S
C4649 C4648 1.370 . S
C4649 C4653 1.408 . S
C4650 C4648 1.363 . S
C4650 C4651 1.370 . S
C4650 C4654 1.524 . S
C4651 C4643 1.503 . S
C4651 C4650 1.370 . S
C4651 C4652 1.403 . S
C4652 C4651 1.403 . S
C4652 C4653 1.404 . S
C4652 C4655 1.539 . S
C4653 C4649 1.408 . S
C4653 C4652 1.404 . S
C4653 H4665 0.930 . S
C4654 C4650 1.524 . S
C4654 H4666 0.956 . S
C4654 H4667 0.961 . S
C4654 H4668 0.961 . S
C4655 C4652 1.539 . S
C4655 H4669 0.958 . S
C4655 H4670 0.961 . S
C4655 H4671 0.960 . S
H4656 C4640 0.931 . S
H4657 C4645 0.929 . S
H4658 C4646 0.960 . S
H4659 C4646 0.962 . S
H4660 C4646 0.960 . S
H4661 C4647 0.961 . S
H4662 C4647 0.961 . S
H4663 C4647 0.961 . S
H4664 C4648 0.931 . S
H4665 C4653 0.930 . S
H4666 C4654 0.956 . S
H4667 C4654 0.961 . S
H4668 C4654 0.961 . S
H4669 C4655 0.958 . S
H4670 C4655 0.961 . S
H4671 C4655 0.960 . S
C4672 C4673 1.391 . S
C4672 C4674 1.394 . S
C4672 H4688 0.931 . S
C4673 C4672 1.391 . S
C4673 C4677 1.376 . S
C4674 C4672 1.394 . S
C4674 C4675 1.369 . S
C4674 C4678 1.531 . S
C4675 C4674 1.369 . S
C4675 C4676 1.410 . S
C4675 C4683 1.503 . S
C4676 C4675 1.410 . S
C4676 C4677 1.392 . S
C4676 C4679 1.511 . S
C4677 C4673 1.376 . S
C4677 C4676 1.392 . S
C4677 H4689 0.929 . S
C4678 C4674 1.531 . S
C4678 H4690 0.960 . S
C4678 H4691 0.962 . S
C4678 H4692 0.960 . S
C4679 C4676 1.511 . S
C4679 H4693 0.961 . S
C4679 H4694 0.961 . S
C4679 H4695 0.961 . S
C4680 C4681 1.370 . S
C4680 C4682 1.363 . S
C4680 H4696 0.931 . S
C4681 C4680 1.370 . S
C4681 C4685 1.408 . S
C4682 C4680 1.363 . S
C4682 C4683 1.370 . S
C4682 C4686 1.524 . S
C4683 C4675 1.503 . S
C4683 C4682 1.370 . S
C4683 C4684 1.403 . S
C4684 C4683 1.403 . S
C4684 C4685 1.404 . S
C4684 C4687 1.539 . S
C4685 C4681 1.408 . S
C4685 C4684 1.404 . S
C4685 H4697 0.930 . S
C4686 C4682 1.524 . S
C4686 H4698 0.956 . S
C4686 H4699 0.961 . S
C4686 H4700 0.961 . S
C4687 C4684 1.539 . S
C4687 H4701 0.958 . S
C4687 H4702 0.961 . S
C4687 H4703 0.960 . S
H4688 C4672 0.931 . S
H4689 C4677 0.929 . S
H4690 C4678 0.960 . S
H4691 C4678 0.962 . S
H4692 C4678 0.960 . S
H4693 C4679 0.961 . S
H4694 C4679 0.961 . S
H4695 C4679 0.961 . S
H4696 C4680 0.931 . S
H4697 C4685 0.930 . S
H4698 C4686 0.956 . S
H4699 C4686 0.961 . S
H4700 C4686 0.961 . S
H4701 C4687 0.958 . S
H4702 C4687 0.961 . S
H4703 C4687 0.960 . S
C4704 C4705 1.391 . S
C4704 C4706 1.394 . S
C4704 H4720 0.931 . S
C4705 C4704 1.391 . S
C4705 C4709 1.376 . S
C4706 C4704 1.394 . S
C4706 C4707 1.369 . S
C4706 C4710 1.531 . S
C4707 C4706 1.369 . S
C4707 C4708 1.410 . S
C4707 C4715 1.503 . S
C4708 C4707 1.410 . S
C4708 C4709 1.392 . S
C4708 C4711 1.511 . S
C4709 C4705 1.376 . S
C4709 C4708 1.392 . S
C4709 H4721 0.929 . S
C4710 C4706 1.531 . S
C4710 H4722 0.960 . S
C4710 H4723 0.962 . S
C4710 H4724 0.960 . S
C4711 C4708 1.511 . S
C4711 H4725 0.961 . S
C4711 H4726 0.961 . S
C4711 H4727 0.961 . S
C4712 C4713 1.370 . S
C4712 C4714 1.363 . S
C4712 H4728 0.931 . S
C4713 C4712 1.370 . S
C4713 C4717 1.408 . S
C4714 C4712 1.363 . S
C4714 C4715 1.370 . S
C4714 C4718 1.524 . S
C4715 C4707 1.503 . S
C4715 C4714 1.370 . S
C4715 C4716 1.403 . S
C4716 C4715 1.403 . S
C4716 C4717 1.404 . S
C4716 C4719 1.539 . S
C4717 C4713 1.408 . S
C4717 C4716 1.404 . S
C4717 H4729 0.930 . S
C4718 C4714 1.524 . S
C4718 H4730 0.956 . S
C4718 H4731 0.961 . S
C4718 H4732 0.961 . S
C4719 C4716 1.539 . S
C4719 H4733 0.958 . S
C4719 H4734 0.961 . S
C4719 H4735 0.960 . S
H4720 C4704 0.931 . S
H4721 C4709 0.929 . S
H4722 C4710 0.960 . S
H4723 C4710 0.962 . S
H4724 C4710 0.960 . S
H4725 C4711 0.961 . S
H4726 C4711 0.961 . S
H4727 C4711 0.961 . S
H4728 C4712 0.931 . S
H4729 C4717 0.930 . S
H4730 C4718 0.956 . S
H4731 C4718 0.961 . S
H4732 C4718 0.961 . S
H4733 C4719 0.958 . S
H4734 C4719 0.961 . S
H4735 C4719 0.960 . S
C4736 C4737 1.391 . S
C4736 C4738 1.394 . S
C4736 H4752 0.931 . S
C4737 C4736 1.391 . S
C4737 C4741 1.376 . S
C4738 C4736 1.394 . S
C4738 C4739 1.369 . S
C4738 C4742 1.531 . S
C4739 C4738 1.369 . S
C4739 C4740 1.410 . S
C4739 C4747 1.503 . S
C4740 C4739 1.410 . S
C4740 C4741 1.392 . S
C4740 C4743 1.511 . S
C4741 C4737 1.376 . S
C4741 C4740 1.392 . S
C4741 H4753 0.929 . S
C4742 C4738 1.531 . S
C4742 H4754 0.960 . S
C4742 H4755 0.962 . S
C4742 H4756 0.960 . S
C4743 C4740 1.511 . S
C4743 H4757 0.961 . S
C4743 H4758 0.961 . S
C4743 H4759 0.961 . S
C4744 C4745 1.370 . S
C4744 C4746 1.363 . S
C4744 H4760 0.931 . S
C4745 C4744 1.370 . S
C4745 C4749 1.408 . S
C4746 C4744 1.363 . S
C4746 C4747 1.370 . S
C4746 C4750 1.524 . S
C4747 C4739 1.503 . S
C4747 C4746 1.370 . S
C4747 C4748 1.403 . S
C4748 C4747 1.403 . S
C4748 C4749 1.404 . S
C4748 C4751 1.539 . S
C4749 C4745 1.408 . S
C4749 C4748 1.404 . S
C4749 H4761 0.930 . S
C4750 C4746 1.524 . S
C4750 H4762 0.956 . S
C4750 H4763 0.961 . S
C4750 H4764 0.961 . S
C4751 C4748 1.539 . S
C4751 H4765 0.958 . S
C4751 H4766 0.961 . S
C4751 H4767 0.960 . S
H4752 C4736 0.931 . S
H4753 C4741 0.929 . S
H4754 C4742 0.960 . S
H4755 C4742 0.962 . S
H4756 C4742 0.960 . S
H4757 C4743 0.961 . S
H4758 C4743 0.961 . S
H4759 C4743 0.961 . S
H4760 C4744 0.931 . S
H4761 C4749 0.930 . S
H4762 C4750 0.956 . S
H4763 C4750 0.961 . S
H4764 C4750 0.961 . S
H4765 C4751 0.958 . S
H4766 C4751 0.961 . S
H4767 C4751 0.960 . S
C4768 C4769 1.391 . S
C4768 C4770 1.394 . S
C4768 H4784 0.931 . S
C4769 C4768 1.391 . S
C4769 C4773 1.376 . S
C4770 C4768 1.394 . S
C4770 C4771 1.369 . S
C4770 C4774 1.531 . S
C4771 C4770 1.369 . S
C4771 C4772 1.410 . S
C4771 C4779 1.503 . S
C4772 C4771 1.410 . S
C4772 C4773 1.392 . S
C4772 C4775 1.511 . S
C4773 C4769 1.376 . S
C4773 C4772 1.392 . S
C4773 H4785 0.929 . S
C4774 C4770 1.531 . S
C4774 H4786 0.960 . S
C4774 H4787 0.962 . S
C4774 H4788 0.960 . S
C4775 C4772 1.511 . S
C4775 H4789 0.961 . S
C4775 H4790 0.961 . S
C4775 H4791 0.961 . S
C4776 C4777 1.370 . S
C4776 C4778 1.363 . S
C4776 H4792 0.931 . S
C4777 C4776 1.370 . S
C4777 C4781 1.408 . S
C4778 C4776 1.363 . S
C4778 C4779 1.370 . S
C4778 C4782 1.524 . S
C4779 C4771 1.503 . S
C4779 C4778 1.370 . S
C4779 C4780 1.403 . S
C4780 C4779 1.403 . S
C4780 C4781 1.404 . S
C4780 C4783 1.539 . S
C4781 C4777 1.408 . S
C4781 C4780 1.404 . S
C4781 H4793 0.930 . S
C4782 C4778 1.524 . S
C4782 H4794 0.956 . S
C4782 H4795 0.961 . S
C4782 H4796 0.961 . S
C4783 C4780 1.539 . S
C4783 H4797 0.958 . S
C4783 H4798 0.961 . S
C4783 H4799 0.960 . S
H4784 C4768 0.931 . S
H4785 C4773 0.929 . S
H4786 C4774 0.960 . S
H4787 C4774 0.962 . S
H4788 C4774 0.960 . S
H4789 C4775 0.961 . S
H4790 C4775 0.961 . S
H4791 C4775 0.961 . S
H4792 C4776 0.931 . S
H4793 C4781 0.930 . S
H4794 C4782 0.956 . S
H4795 C4782 0.961 . S
H4796 C4782 0.961 . S
H4797 C4783 0.958 . S
H4798 C4783 0.961 . S
H4799 C4783 0.960 . S
C4800 C4801 1.391 . S
C4800 C4802 1.394 . S
C4800 H4816 0.931 . S
C4801 C4800 1.391 . S
C4801 C4805 1.376 . S
C4802 C4800 1.394 . S
C4802 C4803 1.369 . S
C4802 C4806 1.531 . S
C4803 C4802 1.369 . S
C4803 C4804 1.410 . S
C4803 C4811 1.503 . S
C4804 C4803 1.410 . S
C4804 C4805 1.392 . S
C4804 C4807 1.511 . S
C4805 C4801 1.376 . S
C4805 C4804 1.392 . S
C4805 H4817 0.929 . S
C4806 C4802 1.531 . S
C4806 H4818 0.960 . S
C4806 H4819 0.962 . S
C4806 H4820 0.960 . S
C4807 C4804 1.511 . S
C4807 H4821 0.961 . S
C4807 H4822 0.961 . S
C4807 H4823 0.961 . S
C4808 C4809 1.370 . S
C4808 C4810 1.363 . S
C4808 H4824 0.931 . S
C4809 C4808 1.370 . S
C4809 C4813 1.408 . S
C4810 C4808 1.363 . S
C4810 C4811 1.370 . S
C4810 C4814 1.524 . S
C4811 C4803 1.503 . S
C4811 C4810 1.370 . S
C4811 C4812 1.403 . S
C4812 C4811 1.403 . S
C4812 C4813 1.404 . S
C4812 C4815 1.539 . S
C4813 C4809 1.408 . S
C4813 C4812 1.404 . S
C4813 H4825 0.930 . S
C4814 C4810 1.524 . S
C4814 H4826 0.956 . S
C4814 H4827 0.961 . S
C4814 H4828 0.961 . S
C4815 C4812 1.539 . S
C4815 H4829 0.958 . S
C4815 H4830 0.961 . S
C4815 H4831 0.960 . S
H4816 C4800 0.931 . S
H4817 C4805 0.929 . S
H4818 C4806 0.960 . S
H4819 C4806 0.962 . S
H4820 C4806 0.960 . S
H4821 C4807 0.961 . S
H4822 C4807 0.961 . S
H4823 C4807 0.961 . S
H4824 C4808 0.931 . S
H4825 C4813 0.930 . S
H4826 C4814 0.956 . S
H4827 C4814 0.961 . S
H4828 C4814 0.961 . S
H4829 C4815 0.958 . S
H4830 C4815 0.961 . S
H4831 C4815 0.960 . S
C4832 C4833 1.391 . S
C4832 C4834 1.394 . S
C4832 H4848 0.931 . S
C4833 C4832 1.391 . S
C4833 C4837 1.376 . S
C4834 C4832 1.394 . S
C4834 C4835 1.369 . S
C4834 C4838 1.531 . S
C4835 C4834 1.369 . S
C4835 C4836 1.410 . S
C4835 C4843 1.503 . S
C4836 C4835 1.410 . S
C4836 C4837 1.392 . S
C4836 C4839 1.511 . S
C4837 C4833 1.376 . S
C4837 C4836 1.392 . S
C4837 H4849 0.929 . S
C4838 C4834 1.531 . S
C4838 H4850 0.960 . S
C4838 H4851 0.962 . S
C4838 H4852 0.960 . S
C4839 C4836 1.511 . S
C4839 H4853 0.961 . S
C4839 H4854 0.961 . S
C4839 H4855 0.961 . S
C4840 C4841 1.370 . S
C4840 C4842 1.363 . S
C4840 H4856 0.931 . S
C4841 C4840 1.370 . S
C4841 C4845 1.408 . S
C4842 C4840 1.363 . S
C4842 C4843 1.370 . S
C4842 C4846 1.524 . S
C4843 C4835 1.503 . S
C4843 C4842 1.370 . S
C4843 C4844 1.403 . S
C4844 C4843 1.403 . S
C4844 C4845 1.404 . S
C4844 C4847 1.539 . S
C4845 C4841 1.408 . S
C4845 C4844 1.404 . S
C4845 H4857 0.930 . S
C4846 C4842 1.524 . S
C4846 H4858 0.956 . S
C4846 H4859 0.961 . S
C4846 H4860 0.961 . S
C4847 C4844 1.539 . S
C4847 H4861 0.958 . S
C4847 H4862 0.961 . S
C4847 H4863 0.960 . S
H4848 C4832 0.931 . S
H4849 C4837 0.929 . S
H4850 C4838 0.960 . S
H4851 C4838 0.962 . S
H4852 C4838 0.960 . S
H4853 C4839 0.961 . S
H4854 C4839 0.961 . S
H4855 C4839 0.961 . S
H4856 C4840 0.931 . S
H4857 C4845 0.930 . S
H4858 C4846 0.956 . S
H4859 C4846 0.961 . S
H4860 C4846 0.961 . S
H4861 C4847 0.958 . S
H4862 C4847 0.961 . S
H4863 C4847 0.960 . S
C4864 C4865 1.391 . S
C4864 C4866 1.394 . S
C4864 H4880 0.931 . S
C4865 C4864 1.391 . S
C4865 C4869 1.376 . S
C4866 C4864 1.394 . S
C4866 C4867 1.369 . S
C4866 C4870 1.531 . S
C4867 C4866 1.369 . S
C4867 C4868 1.410 . S
C4867 C4875 1.503 . S
C4868 C4867 1.410 . S
C4868 C4869 1.392 . S
C4868 C4871 1.511 . S
C4869 C4865 1.376 . S
C4869 C4868 1.392 . S
C4869 H4881 0.929 . S
C4870 C4866 1.531 . S
C4870 H4882 0.960 . S
C4870 H4883 0.962 . S
C4870 H4884 0.960 . S
C4871 C4868 1.511 . S
C4871 H4885 0.961 . S
C4871 H4886 0.961 . S
C4871 H4887 0.961 . S
C4872 C4873 1.370 . S
C4872 C4874 1.363 . S
C4872 H4888 0.931 . S
C4873 C4872 1.370 . S
C4873 C4877 1.408 . S
C4874 C4872 1.363 . S
C4874 C4875 1.370 . S
C4874 C4878 1.524 . S
C4875 C4867 1.503 . S
C4875 C4874 1.370 . S
C4875 C4876 1.403 . S
C4876 C4875 1.403 . S
C4876 C4877 1.404 . S
C4876 C4879 1.539 . S
C4877 C4873 1.408 . S
C4877 C4876 1.404 . S
C4877 H4889 0.930 . S
C4878 C4874 1.524 . S
C4878 H4890 0.956 . S
C4878 H4891 0.961 . S
C4878 H4892 0.961 . S
C4879 C4876 1.539 . S
C4879 H4893 0.958 . S
C4879 H4894 0.961 . S
C4879 H4895 0.960 . S
H4880 C4864 0.931 . S
H4881 C4869 0.929 . S
H4882 C4870 0.960 . S
H4883 C4870 0.962 . S
H4884 C4870 0.960 . S
H4885 C4871 0.961 . S
H4886 C4871 0.961 . S
H4887 C4871 0.961 . S
H4888 C4872 0.931 . S
H4889 C4877 0.930 . S
H4890 C4878 0.956 . S
H4891 C4878 0.961 . S
H4892 C4878 0.961 . S
H4893 C4879 0.958 . S
H4894 C4879 0.961 . S
H4895 C4879 0.960 . S
C1441 C9 1.719 . S
C1449 C99 1.792 . S
C1473 C19 1.795 . S
C1481 C49 1.726 1_545 S
C1505 C89 1.742 1_655 S
C1513 C59 1.790 . S
C1537 C129 1.814 . S
C1545 C179 1.866 . S
C1569 C219 1.842 . S
C1577 C169 1.789 1_565 S
C1601 C209 1.812 1_455 S
C1609 C139 1.866 . S
C1633 C258 1.740 . S
C1641 C330 1.790 . S
C1665 C298 1.724 1_565 S
C1673 C250 1.792 . S
C1697 C338 1.677 1_455 S
C1705 C290 1.784 . S
C1729 C378 1.760 . S
C1737 C410 1.853 . S
C1761 C450 1.846 . S
C1769 C418 1.797 1_545 S
C1793 C370 1.872 . S
C1801 C458 1.791 1_655 S
C1825 C579 1.853 . S
C1833 C489 1.791 . S
C1857 C529 1.792 . S
C1865 C499 1.858 . S
C1889 C539 1.847 . S
C1897 C569 1.769 . S
C1921 C609 1.779 . S
C1929 C659 1.878 . S
C1953 C699 1.875 . S
C1961 C649 1.818 . S
C1985 C619 1.857 . S
C1993 C689 1.802 . S
C2017 C738 1.745 . S
C2025 C810 1.826 . S
C2049 C778 1.732 . S
C2057 C730 1.824 . S
C2081 C770 1.797 . S
C2089 C818 1.749 . S
C2113 C890 1.723 . S
C2121 C858 1.662 1_554 S
C2145 C898 1.618 1_554 S
C2153 C930 1.706 . S
C2177 C850 1.696 . S
C2185 C938 1.625 1_554 S
C2209 C969 1.756 . S
C2217 C1059 1.826 . S
C2241 C1009 1.717 . S
C2249 C979 1.818 . S
C2273 C1049 1.774 . S
C2281 C1019 1.825 . S
C2305 C1089 1.604 1_556 S
C2313 C1139 1.710 . S
C2337 C1129 1.666 1_556 S
C2345 C1179 1.719 . S
C2369 C1169 1.642 1_556 S
C2377 C1099 1.706 . S
C2401 C1218 1.792 . S
C2409 C1290 1.846 . S
C2433 C1258 1.787 . S
C2441 C1210 1.858 . S
C2465 C1250 1.837 . S
C2473 C1298 1.787 . S
C2497 C1338 1.834 . S
C2505 C1370 1.882 . S
C2529 C1378 1.826 . S
C2537 C1410 1.877 . S
C2561 C1330 1.856 . S
C2569 C1418 1.805 . S
C2593 C10 1.772 . S
C2601 C809 1.784 . S
C2625 C729 1.747 . S
C2633 C50 1.784 . S
C2657 C90 1.802 . S
C2665 C769 1.775 . S
C2689 C130 1.659 . S
C2697 C1369 1.672 . S
C2721 C1409 1.645 . S
C2729 C170 1.677 . S
C2753 C210 1.698 . S
C2761 C1329 1.676 . S
C2785 C1058 1.769 . S
C2793 C259 1.778 . S
C2817 C299 1.800 . S
C2825 C978 1.769 . S
C2849 C339 1.763 . S
C2857 C1018 1.781 . S
C2881 C658 1.651 . S
C2889 C379 1.695 . S
C2913 C698 1.676 . S
C2921 C419 1.692 . S
C2945 C618 1.671 . S
C2953 C459 1.675 . S
C2977 C490 1.720 . S
C2985 C1289 1.730 . S
C3009 C530 1.721 . S
C3017 C1209 1.731 . S
C3041 C1249 1.726 . S
C3049 C570 1.727 . S
C3073 C409 1.710 . S
C3081 C610 1.716 . S
C3105 C449 1.727 . S
C3113 C650 1.719 . S
C3137 C369 1.732 . S
C3145 C690 1.724 . S
C3169 C98 1.789 . S
C3177 C739 1.775 . S
C3201 C779 1.754 . S
C3209 C18 1.775 . S
C3233 C819 1.771 . S
C3241 C58 1.781 . S
C3265 C1138 1.726 1_554 S
C3273 C859 1.741 . S
C3297 C1178 1.703 . S
C3305 C899 1.756 . S
C3329 C939 1.746 . S
C3337 C1098 1.733 1_554 S
C3361 C329 1.786 . S
C3369 C970 1.776 . S
C3393 C249 1.748 . S
C3401 C1010 1.772 . S
C3425 C289 1.744 . S
C3433 C1050 1.775 . S
C3457 C1090 1.774 . S
C3465 C889 1.726 . S
C3489 C929 1.701 . S
C3497 C1130 1.749 . S
C3521 C1170 1.734 . S
C3529 C849 1.716 . S
C3553 C1219 1.717 . S
C3561 C578 1.731 . S
C3585 C1259 1.753 . S
C3593 C498 1.717 . S
C3617 C1299 1.713 . S
C3625 C538 1.730 . S
C3649 C1339 1.722 . S
C3657 C178 1.699 . S
C3681 C218 1.678 . S
C3689 C1379 1.726 . S
C3713 C138 1.704 . S
C3721 C1419 1.757 . S
C3745 C1166 2.302 . S
C3753 C6 2.278 . S
C3777 C1086 2.287 . S
C3785 C46 2.284 . S
C3809 C86 2.289 . S
C3817 C1126 2.281 . S
C3841 C526 2.520 . S
C3849 C126 2.521 . S
C3873 C166 2.524 . S
C3881 C566 2.522 . S
C3905 C206 2.520 . S
C3913 C486 2.535 . S
C3937 C255 2.288 . S
C3945 C935 2.267 . S
C3969 C295 2.290 . S
C3977 C855 2.281 . S
C4001 C335 2.271 . S
C4009 C895 2.278 . S
C4033 C1255 2.515 . S
C4041 C375 2.523 . S
C4065 C1295 2.537 . S
C4073 C415 2.527 . S
C4097 C1215 2.521 . S
C4105 C455 2.521 . S
C4129 C606 2.568 . S
C4137 C1006 2.580 . S
C4161 C646 2.571 . S
C4169 C1046 2.590 . S
C4193 C686 2.592 . S
C4201 C966 2.586 . S
C4225 C735 2.579 . S
C4233 C1415 2.576 . S
C4257 C1335 2.593 . S
C4265 C775 2.585 . S
C4289 C815 2.565 . S
C4297 C1375 2.584 . S
C4321 C175 1.146 . S
C4329 C15 1.151 . S
C4353 C215 1.140 . S
C4361 C55 1.149 . S
C4385 C135 1.143 . S
C4393 C95 1.151 . S
C4417 C246 1.160 . S
C4425 C406 1.155 . S
C4449 C446 1.163 . S
C4457 C286 1.158 . S
C4481 C326 1.154 . S
C4489 C366 1.152 . S
C4513 C655 1.230 . S
C4521 C495 1.235 . S
C4545 C695 1.244 . S
C4553 C535 1.243 . S
C4577 C615 1.223 . S
C4585 C575 1.235 . S
C4609 C886 1.506 . S
C4617 C726 1.527 . S
C4641 C766 1.497 . S
C4649 C926 1.510 . S
C4673 C806 1.503 . S
C4681 C846 1.519 . S
C4705 C975 1.501 . S
C4713 C1135 1.507 . S
C4737 C1175 1.487 . S
C4745 C1015 1.521 . S
C4769 C1055 1.501 . S
C4777 C1095 1.507 . S
C4801 C1206 1.243 . S
C4809 C1366 1.239 . S
C4833 C1406 1.227 . S
C4841 C1246 1.238 . S
C4865 C1286 1.241 . S
C4873 C1326 1.242 . S
