# Generated by pormake.
# Topology umb, (4)-cn, num edge types: 1
# Building blocks:
#     Node 0, Type 0, BuildingBlock: ESEHIV_clean_sbu_0, # of connection points: 4
#     Node 1, Type 0, BuildingBlock: ESEHIV_clean_sbu_0, # of connection points: 4
#     Node 2, Type 0, BuildingBlock: ESEHIV_clean_sbu_0, # of connection points: 4
#     Node 3, Type 0, BuildingBlock: ESEHIV_clean_sbu_0, # of connection points: 4
#     Node 4, Type 0, BuildingBlock: ESEHIV_clean_sbu_0, # of connection points: 4
#     Node 5, Type 0, BuildingBlock: ESEHIV_clean_sbu_0, # of connection points: 4
#     Node 6, Type 0, BuildingBlock: ESEHIV_clean_sbu_0, # of connection points: 4
#     Node 7, Type 0, BuildingBlock: ESEHIV_clean_sbu_0, # of connection points: 4
#     Node 8, Type 0, BuildingBlock: ESEHIV_clean_sbu_0, # of connection points: 4
#     Node 9, Type 0, BuildingBlock: ESEHIV_clean_sbu_0, # of connection points: 4
#     Node 10, Type 0, BuildingBlock: ESEHIV_clean_sbu_0, # of connection points: 4
#     Node 11, Type 0, BuildingBlock: ESEHIV_clean_sbu_0, # of connection points: 4
#     Edge 12, Type (0, 0), BuildingBlock: XUDNAN_clean_linker_2, # of connection points: 2
#     Edge 13, Type (0, 0), BuildingBlock: XUDNAN_clean_linker_2, # of connection points: 2
#     Edge 14, Type (0, 0), BuildingBlock: XUDNAN_clean_linker_2, # of connection points: 2
#     Edge 15, Type (0, 0), BuildingBlock: XUDNAN_clean_linker_2, # of connection points: 2
#     Edge 16, Type (0, 0), BuildingBlock: XUDNAN_clean_linker_2, # of connection points: 2
#     Edge 17, Type (0, 0), BuildingBlock: XUDNAN_clean_linker_2, # of connection points: 2
#     Edge 18, Type (0, 0), BuildingBlock: XUDNAN_clean_linker_2, # of connection points: 2
#     Edge 19, Type (0, 0), BuildingBlock: XUDNAN_clean_linker_2, # of connection points: 2
#     Edge 20, Type (0, 0), BuildingBlock: XUDNAN_clean_linker_2, # of connection points: 2
#     Edge 21, Type (0, 0), BuildingBlock: XUDNAN_clean_linker_2, # of connection points: 2
#     Edge 22, Type (0, 0), BuildingBlock: XUDNAN_clean_linker_2, # of connection points: 2
#     Edge 23, Type (0, 0), BuildingBlock: XUDNAN_clean_linker_2, # of connection points: 2
#     Edge 24, Type (0, 0), BuildingBlock: XUDNAN_clean_linker_2, # of connection points: 2
#     Edge 25, Type (0, 0), BuildingBlock: XUDNAN_clean_linker_2, # of connection points: 2
#     Edge 26, Type (0, 0), BuildingBlock: XUDNAN_clean_linker_2, # of connection points: 2
#     Edge 27, Type (0, 0), BuildingBlock: XUDNAN_clean_linker_2, # of connection points: 2
#     Edge 28, Type (0, 0), BuildingBlock: XUDNAN_clean_linker_2, # of connection points: 2
#     Edge 29, Type (0, 0), BuildingBlock: XUDNAN_clean_linker_2, # of connection points: 2
#     Edge 30, Type (0, 0), BuildingBlock: XUDNAN_clean_linker_2, # of connection points: 2
#     Edge 31, Type (0, 0), BuildingBlock: XUDNAN_clean_linker_2, # of connection points: 2
#     Edge 32, Type (0, 0), BuildingBlock: XUDNAN_clean_linker_2, # of connection points: 2
#     Edge 33, Type (0, 0), BuildingBlock: XUDNAN_clean_linker_2, # of connection points: 2
#     Edge 34, Type (0, 0), BuildingBlock: XUDNAN_clean_linker_2, # of connection points: 2
#     Edge 35, Type (0, 0), BuildingBlock: XUDNAN_clean_linker_2, # of connection points: 2
# Relax obj value: 0.174
# Max RMSD: 0.161
# Mean RMSD: 0.145
data_MOF--net-umb--node1-ESEHIV_clean_sbu_0--edge1-XUDNAN_clean_linker_2
_symmetry_space_group_name_H-M    P1
_symmetry_Int_Tables_number       1
_symmetry_cell_setting            triclinic
loop_
_symmetry_equiv_pos_as_xyz
'x, y, z'
_cell_length_a     50.783565
_cell_length_b     54.060853
_cell_length_c     40.323799
_cell_angle_alpha  89.982196
_cell_angle_beta   89.838593
_cell_angle_gamma 117.6077
loop_
_atom_site_label
_atom_site_type_symbol
_atom_site_fract_x
_atom_site_fract_y
_atom_site_fract_z
_atom_type_partial_charge
Cu0 Cu 0.56282 0.17226 0.34497 0.0
N1 N 0.5981 0.17526 0.32712 0.0
N2 N 0.64515 0.19704 0.3098 0.0
C3 C 0.61963 0.19866 0.31367 0.0
C4 C 0.63954 0.17166 0.32122 0.0
C5 C 0.6104 0.15815 0.33169 0.0
O6 O 0.55626 0.20182 0.32505 0.0
C7 C 0.57081 0.15772 0.40899 0.0
O8 O 0.56582 0.13466 0.39337 0.0
H9 H 0.61766 0.21761 0.3103 0.0
H10 H 0.59985 0.13823 0.34425 0.0
N11 N 0.53172 0.13688 0.33586 0.0
N12 N 0.50919 0.09145 0.32322 0.0
C13 C 0.53441 0.11585 0.32111 0.0
C14 C 0.50363 0.1256 0.34728 0.0
C15 C 0.48965 0.09753 0.33955 0.0
C16 C 0.54667 0.19957 0.29546 0.0
O17 O 0.53896 0.17609 0.27939 0.0
H18 H 0.55507 0.118 0.31098 0.0
H19 H 0.4945 0.13668 0.36173 0.0
O20 O 0.56895 0.17712 0.39286 0.0
H21 H 0.65601 0.16443 0.3244 0.0
H22 H 0.46725 0.08263 0.34655 0.0
Cu23 Cu 0.363 0.54874 0.68544 0.0
N24 N 0.39618 0.58229 0.6761 0.0
N25 N 0.43071 0.6264 0.68302 0.0
C26 C 0.40722 0.60438 0.69649 0.0
C27 C 0.43461 0.61776 0.65283 0.0
C28 C 0.41329 0.59035 0.64871 0.0
O29 O 0.33473 0.54105 0.64991 0.0
C30 C 0.35102 0.54155 0.75514 0.0
O31 O 0.35398 0.51877 0.7523 0.0
H32 H 0.39729 0.60466 0.72017 0.0
H33 H 0.41005 0.57744 0.62708 0.0
N34 N 0.37538 0.52144 0.68565 0.0
N35 N 0.40613 0.50296 0.69148 0.0
C36 C 0.39953 0.52322 0.70128 0.0
C37 C 0.36646 0.49936 0.6652 0.0
C38 C 0.38561 0.48796 0.66861 0.0
C39 C 0.32521 0.55812 0.64153 0.0
O40 O 0.33226 0.58055 0.65956 0.0
H41 H 0.41327 0.54027 0.71755 0.0
H42 H 0.34855 0.4932 0.64751 0.0
O43 O 0.34997 0.55432 0.72903 0.0
H44 H 0.45126 0.63045 0.63482 0.0
H45 H 0.38544 0.47093 0.65432 0.0
Cu46 Cu 0.83352 0.40811 0.99311 0.0
N47 N 0.82707 0.39533 0.03694 0.0
N48 N 0.81671 0.39504 0.09086 0.0
C49 C 0.83056 0.41095 0.06424 0.0
C50 C 0.8042 0.36845 0.08003 0.0
C51 C 0.81064 0.36868 0.04679 0.0
O52 O 0.87457 0.43579 0.98563 0.0
C53 C 0.81255 0.44793 0.99864 0.0
O54 O 0.83921 0.46422 1.01022 0.0
H55 H 0.84079 0.43352 0.06398 0.0
H56 H 0.80197 0.35083 1.03044 0.0
N57 N 0.82255 0.37802 0.96399 0.0
N58 N 0.79864 0.34668 0.92437 0.0
C59 C 0.80343 0.37113 0.93836 0.0
C60 C 0.8303 0.3574 0.96603 0.0
C61 C 0.81547 0.33797 0.94175 0.0
C62 C 0.89623 0.43422 0.99951 0.0
O63 O 0.89082 0.41321 1.01953 0.0
H64 H 0.79246 0.38328 0.93087 0.0
H65 H 0.84513 0.35627 0.98448 0.0
O66 O 0.80687 0.42406 0.9872 0.0
H67 H 0.79014 0.35029 0.09472 0.0
H68 H 0.81685 0.31886 0.93728 0.0
Cu69 Cu 0.42876 0.8216 0.34653 0.0
N70 N 0.39416 0.81945 0.32818 0.0
N71 N 0.34594 0.80688 0.32304 0.0
C72 C 0.36775 0.8092 0.34366 0.0
C73 C 0.35895 0.81569 0.29318 0.0
C74 C 0.38892 0.8238 0.29653 0.0
O75 O 0.43519 0.79212 0.32585 0.0
C76 C 0.41513 0.8336 0.4093 0.0
O77 O 0.41356 0.85341 0.39188 0.0
H78 H 0.3641 0.80147 0.3689 0.0
H79 H 0.40538 0.83091 0.27694 0.0
N80 N 0.4601 0.85675 0.33728 0.0
N81 N 0.48454 0.90207 0.32477 0.0
C82 C 0.45795 0.88032 0.332 0.0
C83 C 0.48906 0.86382 0.33341 0.0
C84 C 0.50422 0.89181 0.32548 0.0
C85 C 0.44515 0.79527 0.29624 0.0
O86 O 0.45267 0.81909 0.28098 0.0
H87 H 0.43718 0.88138 0.33278 0.0
H88 H 0.49839 0.84953 0.33582 0.0
O89 O 0.42268 0.81696 0.39459 0.0
H90 H 0.34739 0.81494 0.27039 0.0
H91 H 0.52786 0.90375 0.32093 0.0
Cu92 Cu 0.64645 0.46578 0.69115 0.0
N93 N 0.6148 0.43154 0.68063 0.0
N94 N 0.58133 0.38685 0.68621 0.0
C95 C 0.60408 0.40898 0.7004 0.0
C96 C 0.57762 0.3959 0.65622 0.0
C97 C 0.59827 0.42364 0.65292 0.0
O98 O 0.67628 0.47552 0.65671 0.0
C99 C 0.65585 0.47251 0.76125 0.0
O100 O 0.65049 0.49394 0.75825 0.0
H101 H 0.61358 0.40859 0.72425 0.0
H102 H 0.60133 0.43699 0.63174 0.0
N103 N 0.63211 0.49167 0.69069 0.0
N104 N 0.59946 0.50814 0.69504 0.0
C105 C 0.60677 0.48838 0.70502 0.0
C106 C 0.64109 0.51421 0.67091 0.0
C107 C 0.62078 0.52438 0.67342 0.0
C108 C 0.68633 0.45908 0.64727 0.0
O109 O 0.6787 0.43568 0.66357 0.0
H110 H 0.59289 0.47072 0.72054 0.0
H111 H 0.66 0.5216 0.65431 0.0
O112 O 0.65879 0.46064 0.73523 0.0
H113 H 0.56142 0.38333 0.63787 0.0
H114 H 0.62088 0.54151 0.65942 0.0
Cu115 Cu 0.16806 0.60826 0.98734 0.0
N116 N 0.17089 0.61986 1.03133 0.0
N117 N 0.17847 0.62127 0.08608 0.0
C118 C 0.17928 0.60922 0.05702 0.0
C119 C 0.1692 0.64028 0.07823 0.0
C120 C 0.16459 0.63938 0.04442 0.0
O121 O 0.12654 0.5836 0.97776 0.0
C122 C 0.20721 0.5865 0.96206 0.0
O123 O 0.20781 0.59769 0.93299 0.0
H124 H 0.18509 0.59242 0.05446 0.0
H125 H 0.15699 0.6519 1.03041 0.0
N126 N 0.18149 0.63945 0.95919 0.0
N127 N 0.2078 0.67592 0.926 0.0
C128 C 0.2076 0.65429 0.9431 0.0
C129 C 0.16495 0.65226 0.95198 0.0
C130 C 0.18107 0.67473 0.93169 0.0
C131 C 0.11118 0.56189 0.99504 0.0
O132 O 0.12411 0.55522 1.01912 0.0
H133 H 0.22631 0.64993 0.94454 0.0
H134 H 0.14266 0.64571 0.96115 0.0
O135 O 0.19142 0.58841 0.9854 0.0
H136 H 0.16603 0.65393 0.0956 0.0
H137 H 0.17366 0.68901 0.92164 0.0
Cu138 Cu 0.81759 0.45547 0.38416 0.0
N139 N 0.81061 0.41849 0.38689 0.0
N140 N 0.79593 0.37469 0.37019 0.0
C141 C 0.79612 0.39922 0.36359 0.0
C142 C 0.81076 0.37865 0.39905 0.0
C143 C 0.81984 0.40571 0.40927 0.0
O144 O 0.79271 0.46199 0.41614 0.0
C145 C 0.8282 0.46345 0.31587 0.0
O146 O 0.855 0.46836 0.32496 0.0
H147 H 0.78566 0.40319 0.34236 0.0
H148 H 0.83285 0.41545 0.43107 0.0
N149 N 0.85724 0.47898 0.39378 0.0
N150 N 0.90498 0.49275 0.40445 0.0
C151 C 0.87822 0.47089 0.39894 0.0
C152 C 0.87123 0.50701 0.39594 0.0
C153 C 0.90091 0.51564 0.40236 0.0
C154 C 0.79589 0.45787 0.44664 0.0
O155 O 0.81573 0.44984 0.45494 0.0
H156 H 0.8743 0.44951 0.39737 0.0
H157 H 0.86064 0.52019 0.39264 0.0
O158 O 0.80891 0.45994 0.33816 0.0
H159 H 0.81514 0.36328 0.4117 0.0
H160 H 0.91811 0.53696 0.40524 0.0
Cu161 Cu 0.39515 0.83289 0.71591 0.0
N162 N 0.42953 0.82891 0.72006 0.0
N163 N 0.45867 0.80857 0.72576 0.0
C164 C 0.43233 0.80751 0.73357 0.0
C165 C 0.47308 0.83156 0.70685 0.0
C166 C 0.45512 0.8442 0.70359 0.0
O167 O 0.36562 0.81183 0.74975 0.0
C168 C 0.38801 0.80967 0.65059 0.0
O169 O 0.40283 0.797 0.66192 0.0
H170 H 0.41442 0.79006 0.74597 0.0
H171 H 0.45935 0.86197 0.68805 0.0
N172 N 0.40577 0.87048 0.72208 0.0
N173 N 0.43294 0.91593 0.73279 0.0
C174 C 0.43152 0.89038 0.73433 0.0
C175 C 0.39021 0.88375 0.71274 0.0
C176 C 0.40693 0.91182 0.71927 0.0
C177 C 0.35223 0.78549 0.75418 0.0
O178 O 0.35722 0.76917 0.73379 0.0
H179 H 0.44931 0.88634 0.74296 0.0
H180 H 0.36854 0.87377 0.70124 0.0
O181 O 0.38071 0.82385 0.67044 0.0
H182 H 0.49402 0.83752 0.69425 0.0
H183 H 0.40054 0.92795 0.71411 0.0
Cu184 Cu 0.5646 0.39709 0.07144 0.0
N185 N 0.55932 0.3859 1.02708 0.0
N186 N 0.57141 0.38639 0.97365 0.0
C187 C 0.57596 0.40154 1.00161 0.0
C188 C 0.55095 0.36025 0.98179 0.0
C189 C 0.54357 0.36 1.01477 0.0
O190 O 0.55077 0.42465 0.07957 0.0
C191 C 0.62464 0.43866 0.07138 0.0
O192 O 0.61397 0.45632 0.06643 0.0
H193 H 0.59257 0.42312 1.00413 0.0
H194 H 0.52904 0.34187 1.02914 0.0
N195 N 0.54546 0.36624 0.09962 0.0
N196 N 0.53749 0.33412 0.13874 0.0
C197 C 0.55747 0.35835 0.12472 0.0
C198 C 0.51692 0.34652 0.098 0.0
C199 C 0.51198 0.32661 0.12193 0.0
C200 C 0.52963 0.42512 0.06314 0.0
O201 O 0.51615 0.40603 0.04037 0.0
H202 H 0.58053 0.36978 0.13202 0.0
H203 H 0.50092 0.3465 0.08033 0.0
O204 O 0.60698 0.41314 0.0773 0.0
H205 H 0.54263 0.34241 0.96536 0.0
H206 H 0.49118 0.30813 0.12676 0.0
Cu207 Cu 0.18804 0.5648 0.38547 0.0
N208 N 0.18467 0.59674 0.39681 0.0
N209 N 0.19131 0.64041 0.39289 0.0
C210 C 0.19959 0.62155 0.38167 0.0
C211 C 0.17061 0.62708 0.41644 0.0
C212 C 0.16639 0.60002 0.41865 0.0
O213 O 0.21728 0.56174 0.414 0.0
C214 C 0.18043 0.57335 0.31977 0.0
O215 O 0.15741 0.57435 0.33337 0.0
H216 H 0.21629 0.62563 0.36278 0.0
H217 H 0.15083 0.58382 0.43478 0.0
N218 N 0.15176 0.53345 0.39215 0.0
N219 N 0.10297 0.5072 0.39922 0.0
C220 C 0.12508 0.53291 0.39251 0.0
C221 C 0.14655 0.50719 0.39871 0.0
C222 C 0.11637 0.49088 0.40314 0.0
C223 C 0.21481 0.56458 0.44505 0.0
O224 O 0.19331 0.56955 0.45581 0.0
H225 H 0.12214 0.55125 0.38871 0.0
H226 H 0.16353 0.5005 0.40051 0.0
O227 O 0.19763 0.56816 0.33824 0.0
H228 H 0.15911 0.63611 0.43067 0.0
H229 H 0.10528 0.46879 0.4088 0.0
Cu230 Cu 0.61981 0.18417 0.71357 0.0
N231 N 0.58408 0.18542 0.7191 0.0
N232 N 0.55385 0.20448 0.72587 0.0
C233 C 0.58071 0.20646 0.73273 0.0
C234 C 0.53975 0.18135 0.70722 0.0
C235 C 0.55842 0.16949 0.70328 0.0
O236 O 0.65145 0.21585 0.73635 0.0
C237 C 0.61981 0.19794 0.64527 0.0
O238 O 0.61011 0.21518 0.65609 0.0
H239 H 0.59869 0.22444 0.74422 0.0
H240 H 0.55465 0.15203 0.68742 0.0
N241 N 0.61593 0.15055 0.73049 0.0
N242 N 0.59557 0.10548 0.74462 0.0
C243 C 0.59063 0.12642 0.73313 0.0
C244 C 0.63771 0.14476 0.74057 0.0
C245 C 0.6252 0.11698 0.74946 0.0
C246 C 0.65484 0.21493 0.76756 0.0
O247 O 0.637 0.19235 0.78406 0.0
H248 H 0.56904 0.12426 0.7266 0.0
H249 H 0.66107 0.15961 0.74088 0.0
O250 O 0.62691 0.18434 0.66613 0.0
H251 H 0.51857 0.17487 0.6951 0.0
H252 H 0.63712 0.10595 0.75783 0.0
Cu253 Cu 0.44448 0.61016 0.06317 0.0
N254 N 0.45395 0.62168 1.01895 0.0
N255 N 0.44363 0.62293 0.96525 0.0
C256 C 0.43683 0.60742 0.99315 0.0
C257 C 0.46619 0.64792 0.97365 0.0
C258 C 0.47249 0.64711 1.00681 0.0
O259 O 0.45942 0.58398 0.07444 0.0
C260 C 0.39084 0.60796 0.05157 0.0
O261 O 0.40898 0.63418 0.04449 0.0
H262 H 0.41788 0.58697 0.99557 0.0
H263 H 0.48795 0.66451 1.02142 0.0
N264 N 0.46039 0.64064 0.09228 0.0
N265 N 0.46483 0.67063 0.13278 0.0
C266 C 0.44638 0.64678 0.11698 0.0
C267 C 0.48865 0.66104 0.09285 0.0
C268 C 0.4914 0.67967 0.11759 0.0
C269 C 0.45178 0.56136 0.05852 0.0
O270 O 0.43232 0.55489 0.03447 0.0
H271 H 0.4231 0.63423 0.12296 0.0
H272 H 0.50612 0.66219 0.07654 0.0
O273 O 0.40149 0.59289 0.06405 0.0
H274 H 0.47651 0.66587 0.95741 0.0
H275 H 0.51154 0.69815 0.1243 0.0
H276 H 0.57111 0.19554 0.45571 0.0
H277 H 0.59438 0.12848 0.44103 0.0
H278 H 0.61267 0.13409 0.49832 0.0
H279 H 0.63317 0.23851 0.50981 0.0
H280 H 0.61115 0.24852 0.53642 0.0
H281 H 0.60129 0.24064 0.4934 0.0
H282 H 0.54841 0.20349 0.51054 0.0
H283 H 0.55807 0.21139 0.55355 0.0
H284 H 0.54416 0.17607 0.53888 0.0
H285 H 0.62771 0.14592 0.55702 0.0
H286 H 0.63504 0.16094 0.61541 0.0
H287 H 0.60083 0.21946 0.59393 0.0
C288 C 0.58024 0.1822 0.46455 0.0
C289 C 0.58135 0.1616 0.44379 0.0
C290 C 0.59314 0.14432 0.45641 0.0
C291 C 0.60379 0.14745 0.48892 0.0
C292 C 0.60237 0.16783 0.50875 0.0
C293 C 0.59067 0.18478 0.49729 0.0
C294 C 0.5903 0.20395 0.52462 0.0
C295 C 0.61017 0.23473 0.51551 0.0
C296 C 0.55834 0.19838 0.53235 0.0
C297 C 0.60338 0.1949 0.55313 0.0
C298 C 0.61049 0.17428 0.54322 0.0
C299 C 0.62231 0.16212 0.56512 0.0
C300 C 0.62644 0.17085 0.59827 0.0
C301 C 0.61857 0.19141 0.60938 0.0
C302 C 0.60728 0.20384 0.58625 0.0
H303 H 0.35965 0.52285 0.81542 0.0
H304 H 0.35728 0.59389 0.76795 0.0
H305 H 0.37747 0.62166 0.81868 0.0
H306 H 0.34171 0.53774 0.90145 0.0
H307 H 0.36632 0.52606 0.91985 0.0
H308 H 0.34734 0.51062 0.88174 0.0
H309 H 0.39804 0.52299 0.85391 0.0
H310 H 0.41717 0.53891 0.89164 0.0
H311 H 0.42671 0.55878 0.85364 0.0
H312 H 0.40488 0.64375 0.87133 0.0
H313 H 0.43313 0.657 0.92384 0.0
H314 H 0.41696 0.57156 0.93727 0.0
C315 C 0.36244 0.54396 0.816 0.0
C316 C 0.3568 0.5561 0.7876 0.0
C317 C 0.36122 0.58397 0.78936 0.0
C318 C 0.37277 0.59999 0.8181 0.0
C319 C 0.37934 0.58774 0.84511 0.0
C320 C 0.37378 0.56018 0.84456 0.0
C321 C 0.38462 0.55254 0.87602 0.0
C322 C 0.35843 0.53043 0.89594 0.0
C323 C 0.40802 0.54274 0.86832 0.0
C324 C 0.3983 0.58039 0.89369 0.0
C325 C 0.39483 0.6004 0.87561 0.0
C326 C 0.40732 0.62814 0.88593 0.0
C327 C 0.42361 0.63555 0.91558 0.0
C328 C 0.42725 0.61531 0.93459 0.0
C329 C 0.41419 0.58737 0.92347 0.0
H330 H 0.86452 0.47634 0.26151 0.0
H331 H 0.77195 0.43225 0.29154 0.0
H332 H 0.75842 0.41226 0.2353 0.0
H333 H 0.85044 0.49078 0.17444 0.0
H334 H 0.88089 0.48581 0.15864 0.0
H335 H 0.8826 0.49923 0.19993 0.0
H336 H 0.89199 0.45941 0.22339 0.0
H337 H 0.88988 0.44562 0.18234 0.0
H338 H 0.8658 0.42365 0.21467 0.0
H339 H 0.75616 0.39169 0.17874 0.0
H340 H 0.76459 0.37609 0.12381 0.0
H341 H 0.85807 0.43518 0.12938 0.0
C342 C 0.84128 0.46311 0.25598 0.0
C343 C 0.81926 0.45598 0.28088 0.0
C344 C 0.78915 0.43832 0.27278 0.0
C345 C 0.78128 0.42674 0.24093 0.0
C346 C 0.80369 0.43343 0.21731 0.0
C347 C 0.83301 0.45168 0.22423 0.0
C348 C 0.85304 0.45441 0.195 0.0
C349 C 0.86759 0.48434 0.18118 0.0
C350 C 0.87655 0.44522 0.20443 0.0
C351 C 0.83057 0.43415 0.17091 0.0
C352 C 0.80223 0.42224 0.18429 0.0
C353 C 0.77814 0.40128 0.16778 0.0
C354 C 0.78314 0.39239 0.13679 0.0
C355 C 0.81191 0.40459 0.1225 0.0
C356 C 0.83582 0.42592 0.13966 0.0
H357 H 0.42737 0.80492 0.45899 0.0
H358 H 0.38132 0.8539 0.43946 0.0
H359 H 0.3657 0.84928 0.49787 0.0
H360 H 0.37435 0.75753 0.52067 0.0
H361 H 0.40301 0.7571 0.54657 0.0
H362 H 0.40878 0.76212 0.50243 0.0
H363 H 0.457 0.80818 0.51246 0.0
H364 H 0.45142 0.80319 0.55655 0.0
H365 H 0.45553 0.83503 0.5377 0.0
H366 H 0.35694 0.84169 0.5586 0.0
H367 H 0.358 0.83366 0.61867 0.0
H368 H 0.41017 0.79015 0.60022 0.0
C369 C 0.41371 0.81435 0.46699 0.0
C370 C 0.40555 0.82974 0.44456 0.0
C371 C 0.388 0.84212 0.45611 0.0
C372 C 0.37882 0.83948 0.48927 0.0
C373 C 0.38739 0.82445 0.51081 0.0
C374 C 0.40455 0.81217 0.5003 0.0
C375 C 0.4122 0.79871 0.52924 0.0
C376 C 0.39878 0.76698 0.52443 0.0
C377 C 0.44604 0.81209 0.53428 0.0
C378 C 0.39707 0.80577 0.55757 0.0
C379 C 0.3826 0.82033 0.54625 0.0
C380 C 0.368 0.83012 0.56778 0.0
C381 C 0.36871 0.82542 0.6019 0.0
C382 C 0.38404 0.81117 0.61429 0.0
C383 C 0.39793 0.80082 0.59161 0.0
H384 H 0.59127 0.43732 0.94485 0.0
H385 H 0.58775 0.35621 0.93253 0.0
H386 H 0.6146 0.37164 0.8792 0.0
H387 H 0.57718 0.44589 0.86129 0.0
H388 H 0.60151 0.48295 0.86009 0.0
H389 H 0.58467 0.46634 0.89865 0.0
H390 H 0.6368 0.48608 0.92553 0.0
H391 H 0.65383 0.5026 0.88689 0.0
H392 H 0.66483 0.47896 0.90674 0.0
H393 H 0.6394 0.39502 0.82588 0.0
H394 H 0.65644 0.423 0.77465 0.0
H395 H 0.64319 0.48885 0.82117 0.0
C396 C 0.59659 0.42301 0.93112 0.0
C397 C 0.58747 0.39559 0.94281 0.0
C398 C 0.59428 0.37721 0.92387 0.0
C399 C 0.60979 0.38589 0.89373 0.0
C400 C 0.61831 0.41302 0.8828 0.0
C401 C 0.61179 0.43126 0.90081 0.0
C402 C 0.62139 0.45852 0.88232 0.0
C403 C 0.59459 0.46371 0.87516 0.0
C404 C 0.64566 0.48299 0.90152 0.0
C405 C 0.63371 0.45254 0.85078 0.0
C406 C 0.63219 0.42636 0.85179 0.0
C407 C 0.64096 0.41566 0.82493 0.0
C408 C 0.65071 0.43179 0.79592 0.0
C409 C 0.6513 0.45823 0.7938 0.0
C410 C 0.64337 0.4689 0.82201 0.0
H411 H 0.15713 0.59909 0.28045 0.0
H412 H 0.2175 0.56282 0.27836 0.0
H413 H 0.22536 0.57284 0.21801 0.0
H414 H 0.1223 0.57337 0.20376 0.0
H415 H 0.11957 0.60448 0.19309 0.0
H416 H 0.11999 0.59542 0.23596 0.0
H417 H 0.16508 0.64383 0.24661 0.0
H418 H 0.16479 0.65307 0.20373 0.0
H419 H 0.19812 0.65488 0.22163 0.0
H420 H 0.22403 0.58483 0.15687 0.0
H421 H 0.21512 0.5988 0.10137 0.0
H422 H 0.15596 0.6275 0.14501 0.0
C423 C 0.17208 0.59324 0.26741 0.0
C424 C 0.18654 0.57995 0.28404 0.0
C425 C 0.20619 0.573 0.26608 0.0
C426 C 0.21075 0.57861 0.23184 0.0
C427 C 0.19581 0.59151 0.21618 0.0
C428 C 0.17708 0.59894 0.23356 0.0
C429 C 0.1634 0.61235 0.21123 0.0
C430 C 0.1293 0.59538 0.211 0.0
C431 C 0.17345 0.64284 0.22141 0.0
C432 C 0.17669 0.61071 0.17822 0.0
C433 C 0.19545 0.59876 0.18152 0.0
C434 C 0.20951 0.59433 0.15412 0.0
C435 C 0.20413 0.60217 0.12262 0.0
C436 C 0.18482 0.61429 0.11868 0.0
C437 C 0.17119 0.61873 0.14707 0.0
H438 H 0.77673 0.3217 0.3926 0.0
H439 H 0.78119 0.36993 0.30476 0.0
H440 H 0.74909 0.32661 0.27513 0.0
H441 H 0.77294 0.25867 0.34636 0.0
H442 H 0.74771 0.23531 0.37695 0.0
H443 H 0.77579 0.26953 0.38904 0.0
H444 H 0.73507 0.28 0.41445 0.0
H445 H 0.70701 0.24603 0.40244 0.0
H446 H 0.70452 0.27665 0.38889 0.0
H447 H 0.70823 0.28026 0.25976 0.0
H448 H 0.66378 0.23383 0.25934 0.0
H449 H 0.68878 0.21488 0.35467 0.0
C450 C 0.77198 0.32316 0.36676 0.0
C451 C 0.78128 0.34932 0.35124 0.0
C452 C 0.77389 0.35023 0.31753 0.0
C453 C 0.75596 0.32566 0.30027 0.0
C454 C 0.74615 0.30028 0.31678 0.0
C455 C 0.75434 0.29882 0.34911 0.0
C456 C 0.73817 0.26934 0.36249 0.0
C457 C 0.75996 0.25752 0.36909 0.0
C458 C 0.72012 0.26795 0.39389 0.0
C459 C 0.71817 0.25485 0.33344 0.0
C460 C 0.72341 0.27295 0.30707 0.0
C461 C 0.70465 0.26555 0.2796 0.0
C462 C 0.67953 0.23928 0.2795 0.0
C463 C 0.67372 0.22079 0.30646 0.0
C464 C 0.69374 0.22833 0.33317 0.0
H465 H 0.4725 0.78462 0.675 0.0
H466 H 0.45615 0.77922 0.78066 0.0
H467 H 0.45795 0.7342 0.78244 0.0
H468 H 0.42387 0.71809 0.65927 0.0
H469 H 0.44431 0.71207 0.62636 0.0
H470 H 0.45019 0.74686 0.63469 0.0
H471 H 0.50653 0.76343 0.64242 0.0
H472 H 0.50085 0.72855 0.63389 0.0
H473 H 0.51879 0.74578 0.67174 0.0
H474 H 0.45296 0.68714 0.77127 0.0
H475 H 0.43807 0.64038 0.74807 0.0
H476 H 0.45453 0.67517 0.64874 0.0
C477 C 0.47083 0.77452 0.69867 0.0
C478 C 0.46506 0.78547 0.72791 0.0
C479 C 0.46121 0.77119 0.75827 0.0
C480 C 0.46233 0.74577 0.75943 0.0
C481 C 0.46708 0.73496 0.7299 0.0
C482 C 0.47126 0.7489 0.70002 0.0
C483 C 0.47058 0.73075 0.67111 0.0
C484 C 0.44576 0.7267 0.64644 0.0
C485 C 0.501 0.74285 0.65377 0.0
C486 C 0.46386 0.70394 0.68919 0.0
C487 C 0.46282 0.70707 0.72314 0.0
C488 C 0.45422 0.68456 0.74479 0.0
C489 C 0.44557 0.65805 0.73136 0.0
C490 C 0.44506 0.65415 0.69658 0.0
C491 C 0.45533 0.67759 0.6754 0.0
H492 H 0.64545 0.40525 0.04422 0.0
H493 H 0.67343 0.49019 0.07684 0.0
H494 H 0.72495 0.50329 0.05839 0.0
H495 H 0.71005 0.39975 0.0667 0.0
H496 H 0.70905 0.37981 1.03048 0.0
H497 H 0.67513 0.37782 0.04685 0.0
H498 H 0.66373 0.3922 0.98935 0.0
H499 H 0.69788 0.39462 0.97294 0.0
H500 H 0.6906 0.42417 0.97027 0.0
H501 H 0.77404 0.50579 0.03868 0.0
H502 H 0.81571 0.49776 1.01906 0.0
H503 H 0.75328 0.41196 0.99575 0.0
C504 C 0.66248 0.42654 0.04792 0.0
C505 C 0.65574 0.44664 0.06254 0.0
C506 C 0.67837 0.47447 0.066 0.0
C507 C 0.70756 0.48207 0.05548 0.0
C508 C 0.7134 0.4617 0.04088 0.0
C509 C 0.69135 0.43456 0.0369 0.0
C510 C 0.70292 0.4166 1.01998 0.0
C511 C 0.69906 0.39206 0.04235 0.0
C512 C 0.68789 0.4063 0.98613 0.0
C513 C 0.73524 0.43759 1.01594 0.0
C514 C 0.74096 0.46353 1.02803 0.0
C515 C 0.76971 0.48567 1.02874 0.0
C516 C 0.79322 0.48094 1.0175 0.0
C517 C 0.78774 0.45433 1.00556 0.0
C518 C 0.75823 0.43269 1.00414 0.0
H519 H 0.30611 0.76303 0.28886 0.0
H520 H 0.31755 0.81371 0.37569 0.0
H521 H 0.26895 0.77862 0.39733 0.0
H522 H 0.21911 0.72618 0.28702 0.0
H523 H 0.2189 0.69396 0.27507 0.0
H524 H 0.24818 0.72686 0.26069 0.0
H525 H 0.28718 0.71366 0.28489 0.0
H526 H 0.25824 0.68114 0.29972 0.0
H527 H 0.28545 0.7049 0.32829 0.0
H528 H 0.2279 0.7342 0.41622 0.0
H529 H 0.19829 0.68445 0.43077 0.0
H530 H 0.21315 0.66131 0.33228 0.0
C531 C 0.29727 0.76737 0.31131 0.0
C532 C 0.31491 0.79114 0.33037 0.0
C533 C 0.30382 0.79576 0.36062 0.0
C534 C 0.27627 0.77597 0.37297 0.0
C535 C 0.26012 0.75169 0.35469 0.0
C536 C 0.27002 0.74746 0.32418 0.0
C537 C 0.25199 0.71756 0.31275 0.0
C538 C 0.23344 0.71606 0.28207 0.0
C539 C 0.27191 0.70352 0.30607 0.0
C540 C 0.23232 0.70517 0.3428 0.0
C541 C 0.23651 0.72533 0.3662 0.0
C542 C 0.22369 0.71833 0.3977 0.0
C543 C 0.20692 0.69001 0.40581 0.0
C544 C 0.2036 0.66911 0.38269 0.0
C545 C 0.21546 0.67691 0.35044 0.0
H546 H 0.55855 0.33869 0.65095 0.0
H547 H 0.57299 0.37167 0.75097 0.0
H548 H 0.55766 0.32452 0.77325 0.0
H549 H 0.49379 0.26744 0.67225 0.0
H550 H 0.50675 0.25055 0.6426 0.0
H551 H 0.5124 0.28554 0.63492 0.0
H552 H 0.5689 0.30238 0.62797 0.0
H553 H 0.56349 0.26766 0.63578 0.0
H554 H 0.58908 0.29621 0.66094 0.0
H555 H 0.55235 0.27729 0.78368 0.0
H556 H 0.55458 0.23249 0.78123 0.0
H557 H 0.54037 0.22885 0.67534 0.0
C558 C 0.55721 0.33578 0.67756 0.0
C559 C 0.56706 0.35885 0.6992 0.0
C560 C 0.56586 0.35433 0.7339 0.0
C561 C 0.55689 0.32756 0.74681 0.0
C562 C 0.54865 0.30543 0.72473 0.0
C563 C 0.54821 0.30914 0.69083 0.0
C564 C 0.54204 0.28266 0.67228 0.0
C565 C 0.51195 0.27085 0.65447 0.0
C566 C 0.56739 0.28754 0.64784 0.0
C567 C 0.54099 0.2641 0.70089 0.0
C568 C 0.54438 0.27746 0.73102 0.0
C569 C 0.54853 0.26615 0.76045 0.0
C570 C 0.54984 0.24084 0.75892 0.0
C571 C 0.54674 0.22712 0.7283 0.0
C572 C 0.54146 0.2385 0.69917 0.0
H573 H 0.26395 0.60726 0.93893 0.0
H574 H 0.20098 0.54681 1.00729 0.0
H575 H 0.24135 0.53999 0.03258 0.0
H576 H 0.31785 0.57549 0.93375 0.0
H577 H 0.34922 0.60984 0.93312 0.0
H578 H 0.3147 0.60398 0.91416 0.0
H579 H 0.31422 0.6434 0.95031 0.0
H580 H 0.34829 0.64903 0.96977 0.0
H581 H 0.31593 0.64132 0.99484 0.0
H582 H 0.28928 0.54579 0.05676 0.0
H583 H 0.34088 0.56433 0.07775 0.0
H584 H 0.3723 0.6232 0.99603 0.0
C585 C 0.25849 0.59151 0.958 0.0
C586 C 0.22937 0.57716 0.9708 0.0
C587 C 0.22316 0.55768 0.99688 0.0
C588 C 0.24594 0.55364 1.01134 0.0
C589 C 0.2748 0.56927 0.99946 0.0
C590 C 0.28113 0.58763 0.97307 0.0
C591 C 0.31434 0.60513 0.96845 0.0
C592 C 0.32462 0.59818 0.93541 0.0
C593 C 0.32371 0.63656 0.97102 0.0
C594 C 0.32552 0.59507 0.99758 0.0
C595 C 0.30254 0.57374 1.01453 0.0
C596 C 0.30751 0.5622 0.04337 0.0
C597 C 0.33675 0.57289 0.05524 0.0
C598 C 0.36028 0.59538 0.03875 0.0
C599 C 0.35456 0.60621 1.00935 0.0
H600 H 0.47202 0.04153 0.35192 0.0
H601 H 0.5398 0.07959 0.27594 0.0
H602 H 0.53948 0.0344 0.26655 0.0
H603 H 0.4992 0.99881 0.3865 0.0
H604 H 0.46339 0.96938 0.39415 0.0
H605 H 0.46706 1.00412 0.39321 0.0
H606 H 0.42668 0.98929 0.3477 0.0
H607 H 0.42264 0.95437 0.34873 0.0
H608 H 0.43091 0.97337 0.31014 0.0
H609 H 0.53541 0.98636 0.26929 0.0
H610 H 0.52473 0.93763 0.28095 0.0
H611 H 0.45822 0.9304 0.35326 0.0
C612 C 0.48624 0.04028 0.33269 0.0
C613 C 0.50607 0.06427 0.31481 0.0
C614 C 0.52472 0.06167 0.29031 0.0
C615 C 0.5246 0.03603 0.28466 0.0
C616 C 0.50543 0.01305 0.30341 0.0
C617 C 0.48627 0.0148 0.32659 0.0
C618 C 0.46864 0.98718 0.34425 0.0
C619 C 0.47497 0.99006 0.38174 0.0
C620 C 0.43524 0.97535 0.33728 0.0
C621 C 0.48128 0.96979 0.32779 0.0
C622 C 0.50252 0.98511 0.30434 0.0
C623 C 0.51851 0.97402 0.28725 0.0
C624 C 0.51248 0.94645 0.29417 0.0
C625 C 0.49053 0.93029 0.31777 0.0
C626 C 0.47471 0.94215 0.33463 0.0
H627 H 0.44558 0.50229 0.64732 0.0
H628 H 0.42758 0.50233 0.75224 0.0
H629 H 0.47582 0.50326 0.76521 0.0
H630 H 0.48433 0.46037 0.65019 0.0
H631 H 0.51108 0.48089 0.61902 0.0
H632 H 0.47431 0.47802 0.61856 0.0
H633 H 0.49711 0.53198 0.6199 0.0
H634 H 0.53394 0.53501 0.6207 0.0
H635 H 0.52236 0.55116 0.65274 0.0
H636 H 0.52551 0.50311 0.7661 0.0
H637 H 0.57467 0.5053 0.75492 0.0
H638 H 0.56175 0.51001 0.64954 0.0
C639 C 0.4517 0.50195 0.67295 0.0
C640 C 0.43297 0.50164 0.69892 0.0
C641 C 0.44178 0.5022 0.73223 0.0
C642 C 0.469 0.50275 0.73972 0.0
C643 C 0.48722 0.50332 0.71348 0.0
C644 C 0.47905 0.50321 0.68077 0.0
C645 C 0.50334 0.50565 0.65718 0.0
C646 C 0.49262 0.47968 0.63494 0.0
C647 C 0.51486 0.53255 0.63642 0.0
C648 C 0.52641 0.50698 0.6817 0.0
C649 C 0.51658 0.50525 0.71405 0.0
C650 C 0.53358 0.50481 0.74091 0.0
C651 C 0.56133 0.50607 0.73444 0.0
C652 C 0.57186 0.50834 0.70153 0.0
C653 C 0.55429 0.50897 0.67492 0.0
H654 H 0.94713 0.43977 1.02969 0.0
H655 H 0.91559 0.47775 0.95528 0.0
H656 H 0.96723 0.51377 0.94494 0.0
H657 H 0.00349 0.50371 0.06325 0.0
H658 H 0.02945 0.49019 0.07035 0.0
H659 H 0.99011 0.46701 0.07121 0.0
H660 H 0.99689 0.43611 1.02633 0.0
H661 H 0.03626 0.45923 1.02528 0.0
H662 H 0.01484 0.45166 0.98766 0.0
H663 H 0.02246 0.54589 0.94292 0.0
H664 H 0.07677 0.57243 0.95061 0.0
H665 H 0.07205 0.51377 1.02687 0.0
C666 C 0.95104 0.45558 1.01111 0.0
C667 C 0.92725 0.45584 0.99322 0.0
C668 C 0.9334 0.47707 0.9693 0.0
C669 C 0.96268 0.49761 0.9632 0.0
C670 C 0.98559 0.49672 0.98127 0.0
C671 C 0.98009 0.4763 1.00482 0.0
C672 C 0.00858 0.48038 1.02135 0.0
C673 C 0.00786 0.48564 0.05876 0.0
C674 C 0.01448 0.45536 1.01475 0.0
C675 C 0.03098 0.50631 1.00349 0.0
C676 C 0.0173 0.51534 0.98036 0.0
C677 C 0.03341 0.53898 0.96094 0.0
C678 C 0.06428 0.55391 0.96547 0.0
C679 C 0.07876 0.54522 0.98933 0.0
C680 C 0.06174 0.52098 1.00839 0.0
H681 H 0.07416 0.53462 0.37386 0.0
H682 H 0.06106 0.46273 0.43327 0.0
H683 H 0.00856 0.45151 0.44181 0.0
H684 H 0.02982 0.55528 0.42443 0.0
H685 H 0.01554 0.5664 0.38978 0.0
H686 H 0.05173 0.56805 0.38717 0.0
H687 H 0.03593 0.53774 0.33398 0.0
H688 H 0.99977 0.53615 0.33628 0.0
H689 H 0.00306 0.50437 0.33481 0.0
H690 H 0.95762 0.4484 0.44397 0.0
H691 H 0.9117 0.45324 0.43887 0.0
H692 H 0.95935 0.52855 0.3806 0.0
C693 C 0.06049 0.51664 0.38894 0.0
C694 C 0.07194 0.49965 0.40301 0.0
C695 C 0.05284 0.47593 0.42191 0.0
C696 C 0.02303 0.4695 0.42712 0.0
C697 C 0.01276 0.48707 0.41339 0.0
C698 C 0.03092 0.51012 0.39466 0.0
C699 C 0.01463 0.52584 0.38283 0.0
C700 C 0.02878 0.55566 0.3969 0.0
C701 C 0.01326 0.52602 0.34472 0.0
C702 C 0.98435 0.508 0.39785 0.0
C703 C 0.9837 0.48568 0.41527 0.0
C704 C 0.95789 0.46583 0.43049 0.0
C705 C 0.93199 0.46871 0.42743 0.0
C706 C 0.93219 0.49133 0.40949 0.0
C707 C 0.95881 0.51137 0.39491 0.0
H708 H 0.54313 0.07739 0.71196 0.0
H709 H 0.59891 0.0679 0.78698 0.0
H710 H 0.5623 0.01823 0.7935 0.0
H711 H 0.47238 0.03215 0.7507 0.0
H712 H 0.45422 0.01832 0.71173 0.0
H713 H 0.48452 0.05324 0.71368 0.0
H714 H 0.51253 0.04095 0.668 0.0
H715 H 0.48235 0.00603 0.66589 0.0
H716 H 0.51956 0.01147 0.67383 0.0
H717 H 0.51992 0.96925 0.7908 0.0
H718 H 0.47545 0.92473 0.77867 0.0
H719 H 0.4477 0.96676 0.70556 0.0
C720 C 0.54751 0.06507 0.73016 0.0
C721 C 0.57392 0.07665 0.74905 0.0
C722 C 0.579 0.05947 0.77201 0.0
C723 C 0.55824 0.03128 0.77604 0.0
C724 C 0.53249 0.02058 0.75694 0.0
C725 C 0.52708 0.03697 0.73446 0.0
C726 C 0.49811 0.02028 0.71629 0.0
C727 C 0.476 0.03168 0.72355 0.0
C728 C 0.50347 0.01965 0.67879 0.0
C729 C 0.48811 0.99188 0.73193 0.0
C730 C 0.50818 0.99248 0.75538 0.0
C731 C 0.50402 0.96856 0.77254 0.0
C732 C 0.47878 0.94334 0.76535 0.0
C733 C 0.45802 0.94219 0.74118 0.0
C734 C 0.4628 0.96694 0.72454 0.0
H735 H 0.44435 0.51436 1.02505 0.0
H736 H 0.49093 0.56723 0.10843 0.0
H737 H 0.51524 0.53767 0.11945 0.0
H738 H 0.43165 0.44877 0.06176 0.0
H739 H 0.4377 0.43498 1.02342 0.0
H740 H 0.42346 0.45992 1.02272 0.0
H741 H 0.46674 0.49203 0.98406 0.0
H742 H 0.48114 0.46723 0.98469 0.0
H743 H 0.50453 0.50291 0.99674 0.0
H744 H 0.53553 0.50286 0.12039 0.0
H745 H 0.54975 0.46539 0.1115 0.0
H746 H 0.4897 0.43539 1.0276 0.0
C747 C 0.45949 0.51966 0.0458 0.0
C748 C 0.46564 0.54312 0.06594 0.0
C749 C 0.4858 0.54937 0.09267 0.0
C750 C 0.49973 0.53269 0.09913 0.0
C751 C 0.4933 0.50984 0.07865 0.0
C752 C 0.47363 0.5033 0.05255 0.0
C753 C 0.47098 0.47796 0.03384 0.0
C754 C 0.43905 0.45399 0.03556 0.0
C755 C 0.48148 0.48549 0.9977 0.0
C756 C 0.49219 0.47119 0.05352 0.0
C757 C 0.50489 0.48984 0.07923 0.0
C758 C 0.52562 0.48808 0.10041 0.0
C759 C 0.53358 0.46673 0.09514 0.0
C760 C 0.52078 0.44735 0.06894 0.0
C761 C 0.49976 0.44971 0.04799 0.0
H762 H 0.51825 0.19938 0.23766 0.0
H763 H 0.57625 0.2548 0.31328 0.0
H764 H 0.5801 0.29551 0.28149 0.0
H765 H 0.55473 0.24154 0.16794 0.0
H766 H 0.52105 0.23326 0.14544 0.0
H767 H 0.52219 0.20853 0.17458 0.0
H768 H 0.47703 0.20728 0.20607 0.0
H769 H 0.47563 0.23188 0.17689 0.0
H770 H 0.47857 0.23945 0.22065 0.0
H771 H 0.58023 0.33041 0.23911 0.0
H772 H 0.57285 0.35626 0.19231 0.0
H773 H 0.51313 0.27788 0.14595 0.0
C774 C 0.53156 0.22006 0.24771 0.0
C775 C 0.54696 0.22388 0.27799 0.0
C776 C 0.5641 0.25132 0.29027 0.0
C777 C 0.56653 0.27458 0.2723 0.0
C778 C 0.5514 0.27008 0.24228 0.0
C779 C 0.53392 0.24345 0.23033 0.0
C780 C 0.51982 0.24421 0.19752 0.0
C781 C 0.53007 0.23111 0.16974 0.0
C782 C 0.48574 0.22986 0.20048 0.0
C783 C 0.5323 0.27543 0.19267 0.0
C784 C 0.55068 0.29003 0.21859 0.0
C785 C 0.56565 0.31915 0.21887 0.0
C786 C 0.56149 0.33367 0.19213 0.0
C787 C 0.54226 0.31909 0.16568 0.0
C788 C 0.52756 0.28958 0.1661 0.0
H789 H 0.22823 0.5872 0.50675 0.0
H790 H 0.246 0.53469 0.43851 0.0
H791 H 0.27561 0.52645 0.4819 0.0
H792 H 0.30136 0.61934 0.54465 0.0
H793 H 0.28698 0.62081 0.58511 0.0
H794 H 0.26767 0.62251 0.54848 0.0
H795 H 0.21963 0.58033 0.56979 0.0
H796 H 0.23887 0.5783 0.6063 0.0
H797 H 0.22036 0.54818 0.57998 0.0
H798 H 0.30045 0.52173 0.53443 0.0
H799 H 0.32356 0.52519 0.58922 0.0
H800 H 0.29149 0.58299 0.62164 0.0
C801 C 0.23849 0.57408 0.50085 0.0
C802 C 0.23476 0.56144 0.46938 0.0
C803 C 0.24874 0.54465 0.46245 0.0
C804 C 0.26541 0.53975 0.48699 0.0
C805 C 0.2682 0.55217 0.51802 0.0
C806 C 0.25554 0.56939 0.52476 0.0
C807 C 0.26229 0.58075 0.55974 0.0
C808 C 0.28067 0.61275 0.55946 0.0
C809 C 0.23358 0.57132 0.58014 0.0
C810 C 0.28045 0.56697 0.57191 0.0
C811 C 0.28339 0.55035 0.54762 0.0
C812 C 0.29852 0.53489 0.55349 0.0
C813 C 0.31141 0.53686 0.58477 0.0
C814 C 0.30939 0.55443 0.60968 0.0
C815 C 0.29355 0.56951 0.60307 0.0
H816 H 0.76424 0.29079 0.9184 0.0
H817 H 0.78784 0.36979 0.86975 0.0
H818 H 0.75442 0.34476 0.82303 0.0
H819 H 0.75866 0.25046 0.8454 0.0
H820 H 0.727 0.21956 0.86046 0.0
H821 H 0.75332 0.24376 0.88935 0.0
H822 H 0.71079 0.24865 0.9194 0.0
H823 H 0.68434 0.2244 0.89067 0.0
H824 H 0.68699 0.25859 0.89597 0.0
H825 H 0.71936 0.31034 0.78058 0.0
H826 H 0.68231 0.27009 0.74873 0.0
H827 H 0.67985 0.21416 0.82721 0.0
C828 C 0.76252 0.30277 0.89777 0.0
C829 C 0.7788 0.3322 0.89747 0.0
C830 C 0.77549 0.34724 0.87042 0.0
C831 C 0.7567 0.33318 0.84376 0.0
C832 C 0.74105 0.30409 0.84476 0.0
C833 C 0.7435 0.28911 0.87132 0.0
C834 C 0.72345 0.25811 0.86713 0.0
C835 C 0.7417 0.24203 0.86548 0.0
C836 C 0.7 0.24678 0.89494 0.0
C837 C 0.70941 0.2579 0.83398 0.0
C838 C 0.72006 0.28456 0.82123 0.0
C839 C 0.71075 0.2894 0.79046 0.0
C840 C 0.68981 0.26643 0.77248 0.0
C841 C 0.67809 0.23903 0.78556 0.0
C842 C 0.68819 0.23487 0.81667 0.0
H843 H 0.48742 0.7262 0.14389 0.0
H844 H 0.42672 0.64504 0.18375 0.0
H845 H 0.41639 0.66788 0.23179 0.0
H846 H 0.51789 0.76036 0.22139 0.0
H847 H 0.51968 0.7931 0.20877 0.0
H848 H 0.52269 0.77023 0.17822 0.0
H849 H 0.47863 0.76996 0.14565 0.0
H850 H 0.47562 0.79296 0.17597 0.0
H851 H 0.44379 0.76014 0.16664 0.0
H852 H 0.41389 0.7003 0.27645 0.0
H853 H 0.41559 0.73912 0.31058 0.0
H854 H 0.47647 0.79869 0.23968 0.0
C855 C 0.47212 0.71324 0.16286 0.0
C856 C 0.45802 0.68383 0.16025 0.0
C857 C 0.43764 0.66759 0.18522 0.0
C858 C 0.43181 0.6804 0.21266 0.0
C859 C 0.44631 0.70948 0.21459 0.0
C860 C 0.46577 0.72568 0.19008 0.0
C861 C 0.47754 0.7565 0.19714 0.0
C862 C 0.51146 0.77088 0.20165 0.0
C863 C 0.46833 0.77072 0.16973 0.0
C864 C 0.46177 0.75521 0.22951 0.0
C865 C 0.4441 0.72795 0.23944 0.0
C866 C 0.4276 0.72171 0.2688 0.0
C867 C 0.42881 0.74389 0.28813 0.0
C868 C 0.4461 0.77194 0.2778 0.0
C869 C 0.46294 0.77749 0.24823 0.0
H870 H 0.71978 0.43454 0.62498 0.0
H871 H 0.69068 0.49573 0.59811 0.0
H872 H 0.71511 0.50197 0.54351 0.0
H873 H 0.79217 0.47017 0.58476 0.0
H874 H 0.79187 0.4381 0.57197 0.0
H875 H 0.77237 0.43885 0.60903 0.0
H876 H 0.72388 0.3986 0.58587 0.0
H877 H 0.74316 0.39789 0.54863 0.0
H878 H 0.71032 0.40256 0.54598 0.0
H879 H 0.73997 0.49906 0.49007 0.0
H880 H 0.76803 0.49094 0.4446 0.0
H881 H 0.78302 0.43381 0.50788 0.0
C882 C 0.71876 0.44942 0.60772 0.0
C883 C 0.70328 0.4646 0.61581 0.0
C884 C 0.70254 0.48395 0.59256 0.0
C885 C 0.71622 0.48755 0.56139 0.0
C886 C 0.7309 0.47192 0.55399 0.0
C887 C 0.73266 0.45358 0.5767 0.0
C888 C 0.75013 0.43959 0.56283 0.0
C889 C 0.77831 0.44714 0.58337 0.0
C890 C 0.73071 0.40778 0.5607 0.0
C891 C 0.75768 0.45273 0.52868 0.0
C892 C 0.74615 0.47111 0.52385 0.0
C893 C 0.74938 0.48494 0.4937 0.0
C894 C 0.76519 0.48012 0.46798 0.0
C895 C 0.77786 0.46195 0.47284 0.0
C896 C 0.77389 0.44809 0.50358 0.0
H897 H 0.24266 0.66714 0.88086 0.0
H898 H 0.22501 0.73106 0.9249 0.0
H899 H 0.26154 0.76626 0.88704 0.0
H900 H 0.32268 0.71151 0.86475 0.0
H901 H 0.32177 0.69518 0.82551 0.0
H902 H 0.29624 0.67547 0.85806 0.0
H903 H 0.25205 0.66337 0.81822 0.0
H904 H 0.27739 0.68323 0.78565 0.0
H905 H 0.24801 0.69118 0.79801 0.0
H906 H 0.29796 0.79403 0.84327 0.0
H907 H 0.33204 0.81298 0.79568 0.0
H908 H 0.32548 0.7311 0.77762 0.0
C909 C 0.24707 0.68868 0.88288 0.0
C910 C 0.23124 0.69653 0.90594 0.0
C911 C 0.23694 0.72473 0.9074 0.0
C912 C 0.25767 0.74483 0.88606 0.0
C913 C 0.27244 0.7364 0.86313 0.0
C914 C 0.26748 0.70903 0.86131 0.0
C915 C 0.28517 0.70537 0.83297 0.0
C916 C 0.30781 0.69635 0.84612 0.0
C917 C 0.26441 0.68455 0.80719 0.0
C918 C 0.30056 0.73487 0.81906 0.0
C919 C 0.29304 0.75241 0.83708 0.0
C920 C 0.30412 0.78053 0.82901 0.0
C921 C 0.32347 0.7911 0.80185 0.0
C922 C 0.33149 0.77359 0.78275 0.0
C923 C 0.31977 0.74505 0.79159 0.0
loop_
_geom_bond_atom_site_label_1
_geom_bond_atom_site_label_2
_geom_bond_distance
_geom_bond_site_symmetry_2
_ccdc_geom_bond_type
Cu0 N1 1.999 . S
Cu0 O6 1.974 . S
Cu0 N11 1.985 . S
Cu0 O20 1.959 . S
N1 Cu0 1.999 . S
N1 C3 1.263 . S
N1 C5 1.389 . S
N2 C3 1.358 . S
N2 C4 1.400 . S
C3 N1 1.263 . S
C3 N2 1.358 . S
C3 H9 0.930 . S
C4 N2 1.400 . S
C4 C5 1.351 . S
C4 H21 0.930 . S
C5 N1 1.389 . S
C5 C4 1.351 . S
C5 H10 0.930 . S
O6 Cu0 1.974 . S
O6 C16 1.282 . S
C7 O8 1.261 . S
C7 O20 1.251 . S
O8 C7 1.261 . S
H9 C3 0.930 . S
H10 C5 0.930 . S
N11 Cu0 1.985 . S
N11 C13 1.335 . S
N11 C14 1.390 . S
N12 C13 1.345 . S
N12 C15 1.336 . S
C13 N11 1.335 . S
C13 N12 1.345 . S
C13 H18 0.930 . S
C14 N11 1.390 . S
C14 C15 1.346 . S
C14 H19 0.930 . S
C15 N12 1.336 . S
C15 C14 1.346 . S
C15 H22 0.929 . S
C16 O6 1.282 . S
C16 O17 1.216 . S
O17 C16 1.216 . S
H18 C13 0.930 . S
H19 C14 0.930 . S
O20 Cu0 1.959 . S
O20 C7 1.251 . S
H21 C4 0.930 . S
H22 C15 0.929 . S
Cu23 N24 1.999 . S
Cu23 O29 1.974 . S
Cu23 N34 1.985 . S
Cu23 O43 1.959 . S
N24 Cu23 1.999 . S
N24 C26 1.263 . S
N24 C28 1.389 . S
N25 C26 1.358 . S
N25 C27 1.400 . S
C26 N24 1.263 . S
C26 N25 1.358 . S
C26 H32 0.930 . S
C27 N25 1.400 . S
C27 C28 1.351 . S
C27 H44 0.930 . S
C28 N24 1.389 . S
C28 C27 1.351 . S
C28 H33 0.930 . S
O29 Cu23 1.974 . S
O29 C39 1.282 . S
C30 O31 1.261 . S
C30 O43 1.251 . S
O31 C30 1.261 . S
H32 C26 0.930 . S
H33 C28 0.930 . S
N34 Cu23 1.985 . S
N34 C36 1.335 . S
N34 C37 1.390 . S
N35 C36 1.345 . S
N35 C38 1.336 . S
C36 N34 1.335 . S
C36 N35 1.345 . S
C36 H41 0.930 . S
C37 N34 1.390 . S
C37 C38 1.346 . S
C37 H42 0.930 . S
C38 N35 1.336 . S
C38 C37 1.346 . S
C38 H45 0.929 . S
C39 O29 1.282 . S
C39 O40 1.216 . S
O40 C39 1.216 . S
H41 C36 0.930 . S
H42 C37 0.930 . S
O43 Cu23 1.959 . S
O43 C30 1.251 . S
H44 C27 0.930 . S
H45 C38 0.929 . S
Cu46 N47 1.999 . S
Cu46 O52 1.974 . S
Cu46 N57 1.985 1_554 S
Cu46 O66 1.959 . S
N47 Cu46 1.999 . S
N47 C49 1.263 . S
N47 C51 1.389 . S
N48 C49 1.358 . S
N48 C50 1.400 . S
C49 N47 1.263 . S
C49 N48 1.358 . S
C49 H55 0.930 . S
C50 N48 1.400 . S
C50 C51 1.351 . S
C50 H67 0.930 . S
C51 N47 1.389 . S
C51 C50 1.351 . S
C51 H56 0.930 . S
O52 Cu46 1.974 . S
O52 C62 1.282 1_554 S
C53 O54 1.261 . S
C53 O66 1.251 1_556 S
O54 C53 1.261 . S
H55 C49 0.930 . S
H56 C51 0.930 . S
N57 Cu46 1.985 1_556 S
N57 C59 1.335 . S
N57 C60 1.390 . S
N58 C59 1.345 . S
N58 C61 1.336 . S
C59 N57 1.335 . S
C59 N58 1.345 . S
C59 H64 0.930 . S
C60 N57 1.390 . S
C60 C61 1.346 . S
C60 H65 0.930 . S
C61 N58 1.336 . S
C61 C60 1.346 . S
C61 H68 0.929 . S
C62 O52 1.282 1_556 S
C62 O63 1.216 . S
O63 C62 1.216 . S
H64 C59 0.930 . S
H65 C60 0.930 . S
O66 Cu46 1.959 . S
O66 C53 1.251 1_554 S
H67 C50 0.930 . S
H68 C61 0.929 . S
Cu69 N70 1.999 . S
Cu69 O75 1.974 . S
Cu69 N80 1.985 . S
Cu69 O89 1.959 . S
N70 Cu69 1.999 . S
N70 C72 1.263 . S
N70 C74 1.389 . S
N71 C72 1.358 . S
N71 C73 1.400 . S
C72 N70 1.263 . S
C72 N71 1.358 . S
C72 H78 0.930 . S
C73 N71 1.400 . S
C73 C74 1.351 . S
C73 H90 0.930 . S
C74 N70 1.389 . S
C74 C73 1.351 . S
C74 H79 0.930 . S
O75 Cu69 1.974 . S
O75 C85 1.282 . S
C76 O77 1.261 . S
C76 O89 1.251 . S
O77 C76 1.261 . S
H78 C72 0.930 . S
H79 C74 0.930 . S
N80 Cu69 1.985 . S
N80 C82 1.335 . S
N80 C83 1.390 . S
N81 C82 1.345 . S
N81 C84 1.336 . S
C82 N80 1.335 . S
C82 N81 1.345 . S
C82 H87 0.930 . S
C83 N80 1.390 . S
C83 C84 1.346 . S
C83 H88 0.930 . S
C84 N81 1.336 . S
C84 C83 1.346 . S
C84 H91 0.929 . S
C85 O75 1.282 . S
C85 O86 1.216 . S
O86 C85 1.216 . S
H87 C82 0.930 . S
H88 C83 0.930 . S
O89 Cu69 1.959 . S
O89 C76 1.251 . S
H90 C73 0.930 . S
H91 C84 0.929 . S
Cu92 N93 1.999 . S
Cu92 O98 1.974 . S
Cu92 N103 1.985 . S
Cu92 O112 1.959 . S
N93 Cu92 1.999 . S
N93 C95 1.263 . S
N93 C97 1.389 . S
N94 C95 1.358 . S
N94 C96 1.400 . S
C95 N93 1.263 . S
C95 N94 1.358 . S
C95 H101 0.930 . S
C96 N94 1.400 . S
C96 C97 1.351 . S
C96 H113 0.930 . S
C97 N93 1.389 . S
C97 C96 1.351 . S
C97 H102 0.930 . S
O98 Cu92 1.974 . S
O98 C108 1.282 . S
C99 O100 1.261 . S
C99 O112 1.251 . S
O100 C99 1.261 . S
H101 C95 0.930 . S
H102 C97 0.930 . S
N103 Cu92 1.985 . S
N103 C105 1.335 . S
N103 C106 1.390 . S
N104 C105 1.345 . S
N104 C107 1.336 . S
C105 N103 1.335 . S
C105 N104 1.345 . S
C105 H110 0.930 . S
C106 N103 1.390 . S
C106 C107 1.346 . S
C106 H111 0.930 . S
C107 N104 1.336 . S
C107 C106 1.346 . S
C107 H114 0.929 . S
C108 O98 1.282 . S
C108 O109 1.216 . S
O109 C108 1.216 . S
H110 C105 0.930 . S
H111 C106 0.930 . S
O112 Cu92 1.959 . S
O112 C99 1.251 . S
H113 C96 0.930 . S
H114 C107 0.929 . S
Cu115 N116 1.999 . S
Cu115 O121 1.974 . S
Cu115 N126 1.985 1_554 S
Cu115 O135 1.959 . S
N116 Cu115 1.999 . S
N116 C118 1.263 . S
N116 C120 1.389 . S
N117 C118 1.358 . S
N117 C119 1.400 . S
C118 N116 1.263 . S
C118 N117 1.358 . S
C118 H124 0.930 . S
C119 N117 1.400 . S
C119 C120 1.351 . S
C119 H136 0.930 . S
C120 N116 1.389 . S
C120 C119 1.351 . S
C120 H125 0.930 . S
O121 Cu115 1.974 . S
O121 C131 1.282 1_554 S
C122 O123 1.261 . S
C122 O135 1.251 1_556 S
O123 C122 1.261 . S
H124 C118 0.930 . S
H125 C120 0.930 . S
N126 Cu115 1.985 1_556 S
N126 C128 1.335 . S
N126 C129 1.390 . S
N127 C128 1.345 . S
N127 C130 1.336 . S
C128 N126 1.335 . S
C128 N127 1.345 . S
C128 H133 0.930 . S
C129 N126 1.390 . S
C129 C130 1.346 . S
C129 H134 0.930 . S
C130 N127 1.336 . S
C130 C129 1.346 . S
C130 H137 0.929 . S
C131 O121 1.282 1_556 S
C131 O132 1.216 . S
O132 C131 1.216 . S
H133 C128 0.930 . S
H134 C129 0.930 . S
O135 Cu115 1.959 . S
O135 C122 1.251 1_554 S
H136 C119 0.930 . S
H137 C130 0.929 . S
Cu138 N139 1.999 . S
Cu138 O144 1.974 . S
Cu138 N149 1.985 . S
Cu138 O158 1.959 . S
N139 Cu138 1.999 . S
N139 C141 1.263 . S
N139 C143 1.389 . S
N140 C141 1.358 . S
N140 C142 1.400 . S
C141 N139 1.263 . S
C141 N140 1.358 . S
C141 H147 0.930 . S
C142 N140 1.400 . S
C142 C143 1.351 . S
C142 H159 0.930 . S
C143 N139 1.389 . S
C143 C142 1.351 . S
C143 H148 0.930 . S
O144 Cu138 1.974 . S
O144 C154 1.282 . S
C145 O146 1.261 . S
C145 O158 1.251 . S
O146 C145 1.261 . S
H147 C141 0.930 . S
H148 C143 0.930 . S
N149 Cu138 1.985 . S
N149 C151 1.335 . S
N149 C152 1.390 . S
N150 C151 1.345 . S
N150 C153 1.336 . S
C151 N149 1.335 . S
C151 N150 1.345 . S
C151 H156 0.930 . S
C152 N149 1.390 . S
C152 C153 1.346 . S
C152 H157 0.930 . S
C153 N150 1.336 . S
C153 C152 1.346 . S
C153 H160 0.929 . S
C154 O144 1.282 . S
C154 O155 1.216 . S
O155 C154 1.216 . S
H156 C151 0.930 . S
H157 C152 0.930 . S
O158 Cu138 1.959 . S
O158 C145 1.251 . S
H159 C142 0.930 . S
H160 C153 0.929 . S
Cu161 N162 1.999 . S
Cu161 O167 1.974 . S
Cu161 N172 1.985 . S
Cu161 O181 1.959 . S
N162 Cu161 1.999 . S
N162 C164 1.263 . S
N162 C166 1.389 . S
N163 C164 1.358 . S
N163 C165 1.400 . S
C164 N162 1.263 . S
C164 N163 1.358 . S
C164 H170 0.930 . S
C165 N163 1.400 . S
C165 C166 1.351 . S
C165 H182 0.930 . S
C166 N162 1.389 . S
C166 C165 1.351 . S
C166 H171 0.930 . S
O167 Cu161 1.974 . S
O167 C177 1.282 . S
C168 O169 1.261 . S
C168 O181 1.251 . S
O169 C168 1.261 . S
H170 C164 0.930 . S
H171 C166 0.930 . S
N172 Cu161 1.985 . S
N172 C174 1.335 . S
N172 C175 1.390 . S
N173 C174 1.345 . S
N173 C176 1.336 . S
C174 N172 1.335 . S
C174 N173 1.345 . S
C174 H179 0.930 . S
C175 N172 1.390 . S
C175 C176 1.346 . S
C175 H180 0.930 . S
C176 N173 1.336 . S
C176 C175 1.346 . S
C176 H183 0.929 . S
C177 O167 1.282 . S
C177 O178 1.216 . S
O178 C177 1.216 . S
H179 C174 0.930 . S
H180 C175 0.930 . S
O181 Cu161 1.959 . S
O181 C168 1.251 . S
H182 C165 0.930 . S
H183 C176 0.929 . S
Cu184 N185 1.999 . S
Cu184 O190 1.974 . S
Cu184 N195 1.985 1_556 S
Cu184 O204 1.959 . S
N185 Cu184 1.999 . S
N185 C187 1.263 . S
N185 C189 1.389 . S
N186 C187 1.358 . S
N186 C188 1.400 . S
C187 N185 1.263 . S
C187 N186 1.358 . S
C187 H193 0.930 . S
C188 N186 1.400 . S
C188 C189 1.351 . S
C188 H205 0.930 . S
C189 N185 1.389 . S
C189 C188 1.351 . S
C189 H194 0.930 . S
O190 Cu184 1.974 . S
O190 C200 1.282 1_556 S
C191 O192 1.261 . S
C191 O204 1.251 1_554 S
O192 C191 1.261 . S
H193 C187 0.930 . S
H194 C189 0.930 . S
N195 Cu184 1.985 1_554 S
N195 C197 1.335 . S
N195 C198 1.390 . S
N196 C197 1.345 . S
N196 C199 1.336 . S
C197 N195 1.335 . S
C197 N196 1.345 . S
C197 H202 0.930 . S
C198 N195 1.390 . S
C198 C199 1.346 . S
C198 H203 0.930 . S
C199 N196 1.336 . S
C199 C198 1.346 . S
C199 H206 0.929 . S
C200 O190 1.282 1_554 S
C200 O201 1.216 . S
O201 C200 1.216 . S
H202 C197 0.930 . S
H203 C198 0.930 . S
O204 Cu184 1.959 . S
O204 C191 1.251 1_556 S
H205 C188 0.930 . S
H206 C199 0.929 . S
Cu207 N208 1.999 . S
Cu207 O213 1.974 . S
Cu207 N218 1.985 . S
Cu207 O227 1.959 . S
N208 Cu207 1.999 . S
N208 C210 1.263 . S
N208 C212 1.389 . S
N209 C210 1.358 . S
N209 C211 1.400 . S
C210 N208 1.263 . S
C210 N209 1.358 . S
C210 H216 0.930 . S
C211 N209 1.400 . S
C211 C212 1.351 . S
C211 H228 0.930 . S
C212 N208 1.389 . S
C212 C211 1.351 . S
C212 H217 0.930 . S
O213 Cu207 1.974 . S
O213 C223 1.282 . S
C214 O215 1.261 . S
C214 O227 1.251 . S
O215 C214 1.261 . S
H216 C210 0.930 . S
H217 C212 0.930 . S
N218 Cu207 1.985 . S
N218 C220 1.335 . S
N218 C221 1.390 . S
N219 C220 1.345 . S
N219 C222 1.336 . S
C220 N218 1.335 . S
C220 N219 1.345 . S
C220 H225 0.930 . S
C221 N218 1.390 . S
C221 C222 1.346 . S
C221 H226 0.930 . S
C222 N219 1.336 . S
C222 C221 1.346 . S
C222 H229 0.929 . S
C223 O213 1.282 . S
C223 O224 1.216 . S
O224 C223 1.216 . S
H225 C220 0.930 . S
H226 C221 0.930 . S
O227 Cu207 1.959 . S
O227 C214 1.251 . S
H228 C211 0.930 . S
H229 C222 0.929 . S
Cu230 N231 1.999 . S
Cu230 O236 1.974 . S
Cu230 N241 1.985 . S
Cu230 O250 1.959 . S
N231 Cu230 1.999 . S
N231 C233 1.263 . S
N231 C235 1.389 . S
N232 C233 1.358 . S
N232 C234 1.400 . S
C233 N231 1.263 . S
C233 N232 1.358 . S
C233 H239 0.930 . S
C234 N232 1.400 . S
C234 C235 1.351 . S
C234 H251 0.930 . S
C235 N231 1.389 . S
C235 C234 1.351 . S
C235 H240 0.930 . S
O236 Cu230 1.974 . S
O236 C246 1.282 . S
C237 O238 1.261 . S
C237 O250 1.251 . S
O238 C237 1.261 . S
H239 C233 0.930 . S
H240 C235 0.930 . S
N241 Cu230 1.985 . S
N241 C243 1.335 . S
N241 C244 1.390 . S
N242 C243 1.345 . S
N242 C245 1.336 . S
C243 N241 1.335 . S
C243 N242 1.345 . S
C243 H248 0.930 . S
C244 N241 1.390 . S
C244 C245 1.346 . S
C244 H249 0.930 . S
C245 N242 1.336 . S
C245 C244 1.346 . S
C245 H252 0.929 . S
C246 O236 1.282 . S
C246 O247 1.216 . S
O247 C246 1.216 . S
H248 C243 0.930 . S
H249 C244 0.930 . S
O250 Cu230 1.959 . S
O250 C237 1.251 . S
H251 C234 0.930 . S
H252 C245 0.929 . S
Cu253 N254 1.999 . S
Cu253 O259 1.974 . S
Cu253 N264 1.985 1_556 S
Cu253 O273 1.959 . S
N254 Cu253 1.999 . S
N254 C256 1.263 . S
N254 C258 1.389 . S
N255 C256 1.358 . S
N255 C257 1.400 . S
C256 N254 1.263 . S
C256 N255 1.358 . S
C256 H262 0.930 . S
C257 N255 1.400 . S
C257 C258 1.351 . S
C257 H274 0.930 . S
C258 N254 1.389 . S
C258 C257 1.351 . S
C258 H263 0.930 . S
O259 Cu253 1.974 . S
O259 C269 1.282 1_556 S
C260 O261 1.261 . S
C260 O273 1.251 1_554 S
O261 C260 1.261 . S
H262 C256 0.930 . S
H263 C258 0.930 . S
N264 Cu253 1.985 1_554 S
N264 C266 1.335 . S
N264 C267 1.390 . S
N265 C266 1.345 . S
N265 C268 1.336 . S
C266 N264 1.335 . S
C266 N265 1.345 . S
C266 H271 0.930 . S
C267 N264 1.390 . S
C267 C268 1.346 . S
C267 H272 0.930 . S
C268 N265 1.336 . S
C268 C267 1.346 . S
C268 H275 0.929 . S
C269 O259 1.282 1_554 S
C269 O270 1.216 . S
O270 C269 1.216 . S
H271 C266 0.930 . S
H272 C267 0.930 . S
O273 Cu253 1.959 . S
O273 C260 1.251 1_556 S
H274 C257 0.930 . S
H275 C268 0.929 . S
H276 C288 0.930 . S
H277 C290 0.930 . S
H278 C291 0.930 . S
H279 C295 0.959 . S
H280 C295 0.959 . S
H281 C295 0.961 . S
H282 C296 0.960 . S
H283 C296 0.961 . S
H284 C296 0.959 . S
H285 C299 0.929 . S
H286 C300 0.931 . S
H287 C302 0.930 . S
C288 H276 0.930 . S
C288 C289 1.399 . S
C288 C293 1.399 . S
C289 C288 1.399 . S
C289 C290 1.376 . S
C290 H277 0.930 . S
C290 C289 1.376 . S
C290 C291 1.388 . S
C291 H278 0.930 . S
C291 C290 1.388 . S
C291 C292 1.390 . S
C292 C291 1.390 . S
C292 C293 1.394 . S
C292 C298 1.465 . S
C293 C288 1.399 . S
C293 C292 1.394 . S
C293 C294 1.516 . S
C294 C293 1.516 . S
C294 C295 1.502 . S
C294 C296 1.561 . S
C294 C297 1.526 . S
C295 H279 0.959 . S
C295 H280 0.959 . S
C295 H281 0.961 . S
C295 C294 1.502 . S
C296 H282 0.960 . S
C296 H283 0.961 . S
C296 H284 0.959 . S
C296 C294 1.561 . S
C297 C294 1.526 . S
C297 C298 1.396 . S
C297 C302 1.390 . S
C298 C292 1.465 . S
C298 C297 1.396 . S
C298 C299 1.399 . S
C299 H285 0.929 . S
C299 C298 1.399 . S
C299 C300 1.385 . S
C300 H286 0.931 . S
C300 C299 1.385 . S
C300 C301 1.389 . S
C301 C300 1.389 . S
C301 C302 1.387 . S
C302 H287 0.930 . S
C302 C297 1.390 . S
C302 C301 1.387 . S
H303 C315 0.930 . S
H304 C317 0.930 . S
H305 C318 0.930 . S
H306 C322 0.959 . S
H307 C322 0.959 . S
H308 C322 0.961 . S
H309 C323 0.960 . S
H310 C323 0.961 . S
H311 C323 0.959 . S
H312 C326 0.929 . S
H313 C327 0.931 . S
H314 C329 0.930 . S
C315 H303 0.930 . S
C315 C316 1.399 . S
C315 C320 1.399 . S
C316 C315 1.399 . S
C316 C317 1.376 . S
C317 H304 0.930 . S
C317 C316 1.376 . S
C317 C318 1.388 . S
C318 H305 0.930 . S
C318 C317 1.388 . S
C318 C319 1.390 . S
C319 C318 1.390 . S
C319 C320 1.394 . S
C319 C325 1.465 . S
C320 C315 1.399 . S
C320 C319 1.394 . S
C320 C321 1.516 . S
C321 C320 1.516 . S
C321 C322 1.502 . S
C321 C323 1.561 . S
C321 C324 1.526 . S
C322 H306 0.959 . S
C322 H307 0.959 . S
C322 H308 0.961 . S
C322 C321 1.502 . S
C323 H309 0.960 . S
C323 H310 0.961 . S
C323 H311 0.959 . S
C323 C321 1.561 . S
C324 C321 1.526 . S
C324 C325 1.396 . S
C324 C329 1.390 . S
C325 C319 1.465 . S
C325 C324 1.396 . S
C325 C326 1.399 . S
C326 H312 0.929 . S
C326 C325 1.399 . S
C326 C327 1.385 . S
C327 H313 0.931 . S
C327 C326 1.385 . S
C327 C328 1.389 . S
C328 C327 1.389 . S
C328 C329 1.387 . S
C329 H314 0.930 . S
C329 C324 1.390 . S
C329 C328 1.387 . S
H330 C342 0.930 . S
H331 C344 0.930 . S
H332 C345 0.930 . S
H333 C349 0.959 . S
H334 C349 0.959 . S
H335 C349 0.961 . S
H336 C350 0.960 . S
H337 C350 0.961 . S
H338 C350 0.959 . S
H339 C353 0.929 . S
H340 C354 0.931 . S
H341 C356 0.930 . S
C342 H330 0.930 . S
C342 C343 1.399 . S
C342 C347 1.399 . S
C343 C342 1.399 . S
C343 C344 1.376 . S
C344 H331 0.930 . S
C344 C343 1.376 . S
C344 C345 1.388 . S
C345 H332 0.930 . S
C345 C344 1.388 . S
C345 C346 1.390 . S
C346 C345 1.390 . S
C346 C347 1.394 . S
C346 C352 1.465 . S
C347 C342 1.399 . S
C347 C346 1.394 . S
C347 C348 1.516 . S
C348 C347 1.516 . S
C348 C349 1.502 . S
C348 C350 1.561 . S
C348 C351 1.526 . S
C349 H333 0.959 . S
C349 H334 0.959 . S
C349 H335 0.961 . S
C349 C348 1.502 . S
C350 H336 0.960 . S
C350 H337 0.961 . S
C350 H338 0.959 . S
C350 C348 1.561 . S
C351 C348 1.526 . S
C351 C352 1.396 . S
C351 C356 1.390 . S
C352 C346 1.465 . S
C352 C351 1.396 . S
C352 C353 1.399 . S
C353 H339 0.929 . S
C353 C352 1.399 . S
C353 C354 1.385 . S
C354 H340 0.931 . S
C354 C353 1.385 . S
C354 C355 1.389 . S
C355 C354 1.389 . S
C355 C356 1.387 . S
C356 H341 0.930 . S
C356 C351 1.390 . S
C356 C355 1.387 . S
H357 C369 0.930 . S
H358 C371 0.930 . S
H359 C372 0.930 . S
H360 C376 0.959 . S
H361 C376 0.959 . S
H362 C376 0.961 . S
H363 C377 0.960 . S
H364 C377 0.961 . S
H365 C377 0.959 . S
H366 C380 0.929 . S
H367 C381 0.931 . S
H368 C383 0.930 . S
C369 H357 0.930 . S
C369 C370 1.399 . S
C369 C374 1.399 . S
C370 C369 1.399 . S
C370 C371 1.376 . S
C371 H358 0.930 . S
C371 C370 1.376 . S
C371 C372 1.388 . S
C372 H359 0.930 . S
C372 C371 1.388 . S
C372 C373 1.390 . S
C373 C372 1.390 . S
C373 C374 1.394 . S
C373 C379 1.465 . S
C374 C369 1.399 . S
C374 C373 1.394 . S
C374 C375 1.516 . S
C375 C374 1.516 . S
C375 C376 1.502 . S
C375 C377 1.561 . S
C375 C378 1.526 . S
C376 H360 0.959 . S
C376 H361 0.959 . S
C376 H362 0.961 . S
C376 C375 1.502 . S
C377 H363 0.960 . S
C377 H364 0.961 . S
C377 H365 0.959 . S
C377 C375 1.561 . S
C378 C375 1.526 . S
C378 C379 1.396 . S
C378 C383 1.390 . S
C379 C373 1.465 . S
C379 C378 1.396 . S
C379 C380 1.399 . S
C380 H366 0.929 . S
C380 C379 1.399 . S
C380 C381 1.385 . S
C381 H367 0.931 . S
C381 C380 1.385 . S
C381 C382 1.389 . S
C382 C381 1.389 . S
C382 C383 1.387 . S
C383 H368 0.930 . S
C383 C378 1.390 . S
C383 C382 1.387 . S
H384 C396 0.930 . S
H385 C398 0.930 . S
H386 C399 0.930 . S
H387 C403 0.959 . S
H388 C403 0.959 . S
H389 C403 0.961 . S
H390 C404 0.960 . S
H391 C404 0.961 . S
H392 C404 0.959 . S
H393 C407 0.929 . S
H394 C408 0.931 . S
H395 C410 0.930 . S
C396 H384 0.930 . S
C396 C397 1.399 . S
C396 C401 1.399 . S
C397 C396 1.399 . S
C397 C398 1.376 . S
C398 H385 0.930 . S
C398 C397 1.376 . S
C398 C399 1.388 . S
C399 H386 0.930 . S
C399 C398 1.388 . S
C399 C400 1.390 . S
C400 C399 1.390 . S
C400 C401 1.394 . S
C400 C406 1.465 . S
C401 C396 1.399 . S
C401 C400 1.394 . S
C401 C402 1.516 . S
C402 C401 1.516 . S
C402 C403 1.502 . S
C402 C404 1.561 . S
C402 C405 1.526 . S
C403 H387 0.959 . S
C403 H388 0.959 . S
C403 H389 0.961 . S
C403 C402 1.502 . S
C404 H390 0.960 . S
C404 H391 0.961 . S
C404 H392 0.959 . S
C404 C402 1.561 . S
C405 C402 1.526 . S
C405 C406 1.396 . S
C405 C410 1.390 . S
C406 C400 1.465 . S
C406 C405 1.396 . S
C406 C407 1.399 . S
C407 H393 0.929 . S
C407 C406 1.399 . S
C407 C408 1.385 . S
C408 H394 0.931 . S
C408 C407 1.385 . S
C408 C409 1.389 . S
C409 C408 1.389 . S
C409 C410 1.387 . S
C410 H395 0.930 . S
C410 C405 1.390 . S
C410 C409 1.387 . S
H411 C423 0.930 . S
H412 C425 0.930 . S
H413 C426 0.930 . S
H414 C430 0.959 . S
H415 C430 0.959 . S
H416 C430 0.961 . S
H417 C431 0.960 . S
H418 C431 0.961 . S
H419 C431 0.959 . S
H420 C434 0.929 . S
H421 C435 0.931 . S
H422 C437 0.930 . S
C423 H411 0.930 . S
C423 C424 1.399 . S
C423 C428 1.399 . S
C424 C423 1.399 . S
C424 C425 1.376 . S
C425 H412 0.930 . S
C425 C424 1.376 . S
C425 C426 1.388 . S
C426 H413 0.930 . S
C426 C425 1.388 . S
C426 C427 1.390 . S
C427 C426 1.390 . S
C427 C428 1.394 . S
C427 C433 1.465 . S
C428 C423 1.399 . S
C428 C427 1.394 . S
C428 C429 1.516 . S
C429 C428 1.516 . S
C429 C430 1.502 . S
C429 C431 1.561 . S
C429 C432 1.526 . S
C430 H414 0.959 . S
C430 H415 0.959 . S
C430 H416 0.961 . S
C430 C429 1.502 . S
C431 H417 0.960 . S
C431 H418 0.961 . S
C431 H419 0.959 . S
C431 C429 1.561 . S
C432 C429 1.526 . S
C432 C433 1.396 . S
C432 C437 1.390 . S
C433 C427 1.465 . S
C433 C432 1.396 . S
C433 C434 1.399 . S
C434 H420 0.929 . S
C434 C433 1.399 . S
C434 C435 1.385 . S
C435 H421 0.931 . S
C435 C434 1.385 . S
C435 C436 1.389 . S
C436 C435 1.389 . S
C436 C437 1.387 . S
C437 H422 0.930 . S
C437 C432 1.390 . S
C437 C436 1.387 . S
H438 C450 0.930 . S
H439 C452 0.930 . S
H440 C453 0.930 . S
H441 C457 0.959 . S
H442 C457 0.959 . S
H443 C457 0.961 . S
H444 C458 0.960 . S
H445 C458 0.961 . S
H446 C458 0.959 . S
H447 C461 0.929 . S
H448 C462 0.931 . S
H449 C464 0.930 . S
C450 H438 0.930 . S
C450 C451 1.399 . S
C450 C455 1.399 . S
C451 C450 1.399 . S
C451 C452 1.376 . S
C452 H439 0.930 . S
C452 C451 1.376 . S
C452 C453 1.388 . S
C453 H440 0.930 . S
C453 C452 1.388 . S
C453 C454 1.390 . S
C454 C453 1.390 . S
C454 C455 1.394 . S
C454 C460 1.465 . S
C455 C450 1.399 . S
C455 C454 1.394 . S
C455 C456 1.516 . S
C456 C455 1.516 . S
C456 C457 1.502 . S
C456 C458 1.561 . S
C456 C459 1.526 . S
C457 H441 0.959 . S
C457 H442 0.959 . S
C457 H443 0.961 . S
C457 C456 1.502 . S
C458 H444 0.960 . S
C458 H445 0.961 . S
C458 H446 0.959 . S
C458 C456 1.561 . S
C459 C456 1.526 . S
C459 C460 1.396 . S
C459 C464 1.390 . S
C460 C454 1.465 . S
C460 C459 1.396 . S
C460 C461 1.399 . S
C461 H447 0.929 . S
C461 C460 1.399 . S
C461 C462 1.385 . S
C462 H448 0.931 . S
C462 C461 1.385 . S
C462 C463 1.389 . S
C463 C462 1.389 . S
C463 C464 1.387 . S
C464 H449 0.930 . S
C464 C459 1.390 . S
C464 C463 1.387 . S
H465 C477 0.930 . S
H466 C479 0.930 . S
H467 C480 0.930 . S
H468 C484 0.959 . S
H469 C484 0.959 . S
H470 C484 0.961 . S
H471 C485 0.960 . S
H472 C485 0.961 . S
H473 C485 0.959 . S
H474 C488 0.929 . S
H475 C489 0.931 . S
H476 C491 0.930 . S
C477 H465 0.930 . S
C477 C478 1.399 . S
C477 C482 1.399 . S
C478 C477 1.399 . S
C478 C479 1.376 . S
C479 H466 0.930 . S
C479 C478 1.376 . S
C479 C480 1.388 . S
C480 H467 0.930 . S
C480 C479 1.388 . S
C480 C481 1.390 . S
C481 C480 1.390 . S
C481 C482 1.394 . S
C481 C487 1.465 . S
C482 C477 1.399 . S
C482 C481 1.394 . S
C482 C483 1.516 . S
C483 C482 1.516 . S
C483 C484 1.502 . S
C483 C485 1.561 . S
C483 C486 1.526 . S
C484 H468 0.959 . S
C484 H469 0.959 . S
C484 H470 0.961 . S
C484 C483 1.502 . S
C485 H471 0.960 . S
C485 H472 0.961 . S
C485 H473 0.959 . S
C485 C483 1.561 . S
C486 C483 1.526 . S
C486 C487 1.396 . S
C486 C491 1.390 . S
C487 C481 1.465 . S
C487 C486 1.396 . S
C487 C488 1.399 . S
C488 H474 0.929 . S
C488 C487 1.399 . S
C488 C489 1.385 . S
C489 H475 0.931 . S
C489 C488 1.385 . S
C489 C490 1.389 . S
C490 C489 1.389 . S
C490 C491 1.387 . S
C491 H476 0.930 . S
C491 C486 1.390 . S
C491 C490 1.387 . S
H492 C504 0.930 . S
H493 C506 0.930 . S
H494 C507 0.930 . S
H495 C511 0.959 . S
H496 C511 0.959 . S
H497 C511 0.961 . S
H498 C512 0.960 . S
H499 C512 0.961 . S
H500 C512 0.959 . S
H501 C515 0.929 . S
H502 C516 0.931 . S
H503 C518 0.930 . S
C504 H492 0.930 . S
C504 C505 1.399 1_556 S
C504 C509 1.400 . S
C505 C504 1.399 1_554 S
C505 C506 1.376 . S
C506 H493 0.930 . S
C506 C505 1.376 . S
C506 C507 1.388 . S
C507 H494 0.930 . S
C507 C506 1.388 . S
C507 C508 1.390 . S
C508 C507 1.390 . S
C508 C509 1.387 1_554 S
C508 C514 1.465 . S
C509 C504 1.400 . S
C509 C508 1.387 1_556 S
C509 C510 1.521 . S
C510 C509 1.521 . S
C510 C511 1.502 . S
C510 C512 1.561 1_556 S
C510 C513 1.526 . S
C511 H495 0.959 . S
C511 H496 0.959 . S
C511 H497 0.961 . S
C511 C510 1.502 . S
C512 H498 0.960 . S
C512 H499 0.961 . S
C512 H500 0.959 . S
C512 C510 1.561 1_554 S
C513 C510 1.526 . S
C513 C514 1.396 1_556 S
C513 C518 1.390 . S
C514 C508 1.465 . S
C514 C513 1.396 1_554 S
C514 C515 1.399 . S
C515 H501 0.929 . S
C515 C514 1.399 . S
C515 C516 1.385 . S
C516 H502 0.931 . S
C516 C515 1.385 . S
C516 C517 1.389 1_554 S
C517 C516 1.389 1_556 S
C517 C518 1.387 . S
C518 H503 0.930 . S
C518 C513 1.390 . S
C518 C517 1.387 . S
H519 C531 0.930 . S
H520 C533 0.930 . S
H521 C534 0.930 . S
H522 C538 0.959 . S
H523 C538 0.959 . S
H524 C538 0.961 . S
H525 C539 0.960 . S
H526 C539 0.961 . S
H527 C539 0.959 . S
H528 C542 0.929 . S
H529 C543 0.931 . S
H530 C545 0.930 . S
C531 H519 0.930 . S
C531 C532 1.399 . S
C531 C536 1.399 . S
C532 C531 1.399 . S
C532 C533 1.376 . S
C533 H520 0.930 . S
C533 C532 1.376 . S
C533 C534 1.388 . S
C534 H521 0.930 . S
C534 C533 1.388 . S
C534 C535 1.390 . S
C535 C534 1.390 . S
C535 C536 1.394 . S
C535 C541 1.465 . S
C536 C531 1.399 . S
C536 C535 1.394 . S
C536 C537 1.516 . S
C537 C536 1.516 . S
C537 C538 1.502 . S
C537 C539 1.561 . S
C537 C540 1.526 . S
C538 H522 0.959 . S
C538 H523 0.959 . S
C538 H524 0.961 . S
C538 C537 1.502 . S
C539 H525 0.960 . S
C539 H526 0.961 . S
C539 H527 0.959 . S
C539 C537 1.561 . S
C540 C537 1.526 . S
C540 C541 1.396 . S
C540 C545 1.390 . S
C541 C535 1.465 . S
C541 C540 1.396 . S
C541 C542 1.399 . S
C542 H528 0.929 . S
C542 C541 1.399 . S
C542 C543 1.385 . S
C543 H529 0.931 . S
C543 C542 1.385 . S
C543 C544 1.389 . S
C544 C543 1.389 . S
C544 C545 1.387 . S
C545 H530 0.930 . S
C545 C540 1.390 . S
C545 C544 1.387 . S
H546 C558 0.930 . S
H547 C560 0.930 . S
H548 C561 0.930 . S
H549 C565 0.959 . S
H550 C565 0.959 . S
H551 C565 0.961 . S
H552 C566 0.960 . S
H553 C566 0.961 . S
H554 C566 0.959 . S
H555 C569 0.929 . S
H556 C570 0.931 . S
H557 C572 0.930 . S
C558 H546 0.930 . S
C558 C559 1.399 . S
C558 C563 1.399 . S
C559 C558 1.399 . S
C559 C560 1.376 . S
C560 H547 0.930 . S
C560 C559 1.376 . S
C560 C561 1.388 . S
C561 H548 0.930 . S
C561 C560 1.388 . S
C561 C562 1.390 . S
C562 C561 1.390 . S
C562 C563 1.394 . S
C562 C568 1.465 . S
C563 C558 1.399 . S
C563 C562 1.394 . S
C563 C564 1.516 . S
C564 C563 1.516 . S
C564 C565 1.502 . S
C564 C566 1.561 . S
C564 C567 1.526 . S
C565 H549 0.959 . S
C565 H550 0.959 . S
C565 H551 0.961 . S
C565 C564 1.502 . S
C566 H552 0.960 . S
C566 H553 0.961 . S
C566 H554 0.959 . S
C566 C564 1.561 . S
C567 C564 1.526 . S
C567 C568 1.396 . S
C567 C572 1.390 . S
C568 C562 1.465 . S
C568 C567 1.396 . S
C568 C569 1.399 . S
C569 H555 0.929 . S
C569 C568 1.399 . S
C569 C570 1.385 . S
C570 H556 0.931 . S
C570 C569 1.385 . S
C570 C571 1.389 . S
C571 C570 1.389 . S
C571 C572 1.387 . S
C572 H557 0.930 . S
C572 C567 1.390 . S
C572 C571 1.387 . S
H573 C585 0.930 . S
H574 C587 0.930 . S
H575 C588 0.930 . S
H576 C592 0.959 . S
H577 C592 0.959 . S
H578 C592 0.961 . S
H579 C593 0.960 . S
H580 C593 0.961 . S
H581 C593 0.959 . S
H582 C596 0.929 . S
H583 C597 0.931 . S
H584 C599 0.930 . S
C585 H573 0.930 . S
C585 C586 1.399 . S
C585 C590 1.399 . S
C586 C585 1.399 . S
C586 C587 1.376 1_556 S
C587 H574 0.930 . S
C587 C586 1.376 1_554 S
C587 C588 1.388 . S
C588 H575 0.930 . S
C588 C587 1.388 . S
C588 C589 1.390 . S
C589 C588 1.390 . S
C589 C590 1.394 1_554 S
C589 C595 1.465 . S
C590 C585 1.399 . S
C590 C589 1.394 1_556 S
C590 C591 1.516 . S
C591 C590 1.516 . S
C591 C592 1.502 . S
C591 C593 1.561 . S
C591 C594 1.526 . S
C592 H576 0.959 . S
C592 H577 0.959 . S
C592 H578 0.961 . S
C592 C591 1.502 . S
C593 H579 0.960 . S
C593 H580 0.961 . S
C593 H581 0.959 . S
C593 C591 1.561 . S
C594 C591 1.526 . S
C594 C595 1.396 1_556 S
C594 C599 1.390 . S
C595 C589 1.465 . S
C595 C594 1.396 1_554 S
C595 C596 1.399 . S
C596 H582 0.929 . S
C596 C595 1.399 . S
C596 C597 1.385 . S
C597 H583 0.931 . S
C597 C596 1.385 . S
C597 C598 1.389 . S
C598 C597 1.389 . S
C598 C599 1.387 1_554 S
C599 H584 0.930 . S
C599 C594 1.390 . S
C599 C598 1.387 1_556 S
H600 C612 0.930 . S
H601 C614 0.930 . S
H602 C615 0.930 . S
H603 C619 0.959 1_545 S
H604 C619 0.959 . S
H605 C619 0.961 . S
H606 C620 0.960 . S
H607 C620 0.961 . S
H608 C620 0.959 . S
H609 C623 0.929 . S
H610 C624 0.931 . S
H611 C626 0.930 . S
C612 H600 0.930 . S
C612 C613 1.399 . S
C612 C617 1.399 . S
C613 C612 1.399 . S
C613 C614 1.376 . S
C614 H601 0.930 . S
C614 C613 1.376 . S
C614 C615 1.388 . S
C615 H602 0.930 . S
C615 C614 1.388 . S
C615 C616 1.390 . S
C616 C615 1.390 . S
C616 C617 1.394 . S
C616 C622 1.465 1_545 S
C617 C612 1.399 . S
C617 C616 1.394 . S
C617 C618 1.516 1_545 S
C618 C617 1.516 1_565 S
C618 C619 1.502 . S
C618 C620 1.561 . S
C618 C621 1.526 . S
C619 H603 0.959 1_565 S
C619 H604 0.959 . S
C619 H605 0.961 . S
C619 C618 1.502 . S
C620 H606 0.960 . S
C620 H607 0.961 . S
C620 H608 0.959 . S
C620 C618 1.561 . S
C621 C618 1.526 . S
C621 C622 1.396 . S
C621 C626 1.390 . S
C622 C616 1.465 1_565 S
C622 C621 1.396 . S
C622 C623 1.399 . S
C623 H609 0.929 . S
C623 C622 1.399 . S
C623 C624 1.385 . S
C624 H610 0.931 . S
C624 C623 1.385 . S
C624 C625 1.389 . S
C625 C624 1.389 . S
C625 C626 1.387 . S
C626 H611 0.930 . S
C626 C621 1.390 . S
C626 C625 1.387 . S
H627 C639 0.930 . S
H628 C641 0.930 . S
H629 C642 0.930 . S
H630 C646 0.959 . S
H631 C646 0.959 . S
H632 C646 0.961 . S
H633 C647 0.960 . S
H634 C647 0.961 . S
H635 C647 0.959 . S
H636 C650 0.929 . S
H637 C651 0.931 . S
H638 C653 0.930 . S
C639 H627 0.930 . S
C639 C640 1.399 . S
C639 C644 1.399 . S
C640 C639 1.399 . S
C640 C641 1.376 . S
C641 H628 0.930 . S
C641 C640 1.376 . S
C641 C642 1.388 . S
C642 H629 0.930 . S
C642 C641 1.388 . S
C642 C643 1.390 . S
C643 C642 1.390 . S
C643 C644 1.394 . S
C643 C649 1.465 . S
C644 C639 1.399 . S
C644 C643 1.394 . S
C644 C645 1.516 . S
C645 C644 1.516 . S
C645 C646 1.502 . S
C645 C647 1.561 . S
C645 C648 1.526 . S
C646 H630 0.959 . S
C646 H631 0.959 . S
C646 H632 0.961 . S
C646 C645 1.502 . S
C647 H633 0.960 . S
C647 H634 0.961 . S
C647 H635 0.959 . S
C647 C645 1.561 . S
C648 C645 1.526 . S
C648 C649 1.396 . S
C648 C653 1.390 . S
C649 C643 1.465 . S
C649 C648 1.396 . S
C649 C650 1.399 . S
C650 H636 0.929 . S
C650 C649 1.399 . S
C650 C651 1.385 . S
C651 H637 0.931 . S
C651 C650 1.385 . S
C651 C652 1.389 . S
C652 C651 1.389 . S
C652 C653 1.387 . S
C653 H638 0.930 . S
C653 C648 1.390 . S
C653 C652 1.387 . S
H654 C666 0.930 . S
H655 C668 0.930 . S
H656 C669 0.930 . S
H657 C673 0.959 . S
H658 C673 0.959 . S
H659 C673 0.961 . S
H660 C674 0.960 . S
H661 C674 0.961 1_455 S
H662 C674 0.959 . S
H663 C677 0.929 . S
H664 C678 0.931 . S
H665 C680 0.930 . S
C666 H654 0.930 . S
C666 C667 1.399 1_556 S
C666 C671 1.399 . S
C667 C666 1.399 1_554 S
C667 C668 1.376 . S
C668 H655 0.930 . S
C668 C667 1.376 . S
C668 C669 1.388 . S
C669 H656 0.930 . S
C669 C668 1.388 . S
C669 C670 1.390 . S
C670 C669 1.390 . S
C670 C671 1.394 1_554 S
C670 C676 1.465 1_655 S
C671 C666 1.399 . S
C671 C670 1.394 1_556 S
C671 C672 1.516 1_655 S
C672 C671 1.516 1_455 S
C672 C673 1.502 . S
C672 C674 1.561 1_455 S
C672 C675 1.526 . S
C673 H657 0.959 . S
C673 H658 0.959 . S
C673 H659 0.961 . S
C673 C672 1.502 . S
C674 H660 0.960 . S
C674 H661 0.961 1_655 S
C674 H662 0.959 . S
C674 C672 1.561 1_655 S
C675 C672 1.526 . S
C675 C676 1.396 1_556 S
C675 C680 1.390 . S
C676 C670 1.465 1_455 S
C676 C675 1.396 1_554 S
C676 C677 1.399 . S
C677 H663 0.929 . S
C677 C676 1.399 . S
C677 C678 1.385 . S
C678 H664 0.931 . S
C678 C677 1.385 . S
C678 C679 1.389 . S
C679 C678 1.389 . S
C679 C680 1.387 1_554 S
C680 H665 0.930 . S
C680 C675 1.390 . S
C680 C679 1.387 1_556 S
H681 C693 0.930 . S
H682 C695 0.930 . S
H683 C696 0.930 . S
H684 C700 0.959 . S
H685 C700 0.959 . S
H686 C700 0.961 . S
H687 C701 0.960 1_455 S
H688 C701 0.961 . S
H689 C701 0.959 . S
H690 C704 0.929 . S
H691 C705 0.931 . S
H692 C707 0.930 . S
C693 H681 0.930 . S
C693 C694 1.399 . S
C693 C698 1.399 . S
C694 C693 1.399 . S
C694 C695 1.376 . S
C695 H682 0.930 . S
C695 C694 1.376 . S
C695 C696 1.388 . S
C696 H683 0.930 . S
C696 C695 1.388 . S
C696 C697 1.390 . S
C697 C696 1.390 . S
C697 C698 1.394 . S
C697 C703 1.465 1_455 S
C698 C693 1.399 . S
C698 C697 1.394 . S
C698 C699 1.516 . S
C699 C698 1.516 . S
C699 C700 1.502 . S
C699 C701 1.561 1_455 S
C699 C702 1.526 1_455 S
C700 H684 0.959 . S
C700 H685 0.959 . S
C700 H686 0.961 . S
C700 C699 1.502 . S
C701 H687 0.960 1_655 S
C701 H688 0.961 . S
C701 H689 0.959 . S
C701 C699 1.561 1_655 S
C702 C699 1.526 1_655 S
C702 C703 1.396 . S
C702 C707 1.390 . S
C703 C697 1.465 1_655 S
C703 C702 1.396 . S
C703 C704 1.399 . S
C704 H690 0.929 . S
C704 C703 1.399 . S
C704 C705 1.385 . S
C705 H691 0.931 . S
C705 C704 1.385 . S
C705 C706 1.389 . S
C706 C705 1.389 . S
C706 C707 1.387 . S
C707 H692 0.930 . S
C707 C702 1.390 . S
C707 C706 1.387 . S
H708 C720 0.930 . S
H709 C722 0.930 . S
H710 C723 0.930 . S
H711 C727 0.959 . S
H712 C727 0.959 . S
H713 C727 0.961 . S
H714 C728 0.960 1_545 S
H715 C728 0.961 . S
H716 C728 0.959 . S
H717 C731 0.929 . S
H718 C732 0.931 . S
H719 C734 0.930 . S
C720 H708 0.930 . S
C720 C721 1.399 . S
C720 C725 1.399 . S
C721 C720 1.399 . S
C721 C722 1.376 . S
C722 H709 0.930 . S
C722 C721 1.376 . S
C722 C723 1.388 . S
C723 H710 0.930 . S
C723 C722 1.388 . S
C723 C724 1.390 . S
C724 C723 1.390 . S
C724 C725 1.394 . S
C724 C730 1.465 1_545 S
C725 C720 1.399 . S
C725 C724 1.394 . S
C725 C726 1.516 . S
C726 C725 1.516 . S
C726 C727 1.502 . S
C726 C728 1.561 1_545 S
C726 C729 1.526 1_545 S
C727 H711 0.959 . S
C727 H712 0.959 . S
C727 H713 0.961 . S
C727 C726 1.502 . S
C728 H714 0.960 1_565 S
C728 H715 0.961 . S
C728 H716 0.959 . S
C728 C726 1.561 1_565 S
C729 C726 1.526 1_565 S
C729 C730 1.396 . S
C729 C734 1.390 . S
C730 C724 1.465 1_565 S
C730 C729 1.396 . S
C730 C731 1.399 . S
C731 H717 0.929 . S
C731 C730 1.399 . S
C731 C732 1.385 . S
C732 H718 0.931 . S
C732 C731 1.385 . S
C732 C733 1.389 . S
C733 C732 1.389 . S
C733 C734 1.387 . S
C734 H719 0.930 . S
C734 C729 1.390 . S
C734 C733 1.387 . S
H735 C747 0.930 . S
H736 C749 0.930 . S
H737 C750 0.930 . S
H738 C754 0.959 . S
H739 C754 0.959 . S
H740 C754 0.961 . S
H741 C755 0.960 . S
H742 C755 0.961 . S
H743 C755 0.959 . S
H744 C758 0.929 . S
H745 C759 0.931 . S
H746 C761 0.930 . S
C747 H735 0.930 . S
C747 C748 1.399 1_556 S
C747 C752 1.399 . S
C748 C747 1.399 1_554 S
C748 C749 1.376 . S
C749 H736 0.930 . S
C749 C748 1.376 . S
C749 C750 1.388 . S
C750 H737 0.930 . S
C750 C749 1.388 . S
C750 C751 1.390 . S
C751 C750 1.390 . S
C751 C752 1.394 1_554 S
C751 C757 1.465 . S
C752 C747 1.399 . S
C752 C751 1.394 1_556 S
C752 C753 1.516 . S
C753 C752 1.516 . S
C753 C754 1.502 . S
C753 C755 1.561 . S
C753 C756 1.526 . S
C754 H738 0.959 . S
C754 H739 0.959 . S
C754 H740 0.961 . S
C754 C753 1.502 . S
C755 H741 0.960 . S
C755 H742 0.961 . S
C755 H743 0.959 . S
C755 C753 1.561 . S
C756 C753 1.526 . S
C756 C757 1.396 1_556 S
C756 C761 1.390 . S
C757 C751 1.465 . S
C757 C756 1.396 1_554 S
C757 C758 1.399 . S
C758 H744 0.929 . S
C758 C757 1.399 . S
C758 C759 1.385 . S
C759 H745 0.931 . S
C759 C758 1.385 . S
C759 C760 1.389 . S
C760 C759 1.389 . S
C760 C761 1.387 1_554 S
C761 H746 0.930 . S
C761 C756 1.390 . S
C761 C760 1.387 1_556 S
H762 C774 0.930 . S
H763 C776 0.930 . S
H764 C777 0.930 . S
H765 C781 0.959 . S
H766 C781 0.959 . S
H767 C781 0.961 . S
H768 C782 0.960 . S
H769 C782 0.961 . S
H770 C782 0.959 . S
H771 C785 0.929 . S
H772 C786 0.931 . S
H773 C788 0.930 . S
C774 H762 0.930 . S
C774 C775 1.399 . S
C774 C779 1.399 . S
C775 C774 1.399 . S
C775 C776 1.376 . S
C776 H763 0.930 . S
C776 C775 1.376 . S
C776 C777 1.388 . S
C777 H764 0.930 . S
C777 C776 1.388 . S
C777 C778 1.390 . S
C778 C777 1.390 . S
C778 C779 1.394 . S
C778 C784 1.465 . S
C779 C774 1.399 . S
C779 C778 1.394 . S
C779 C780 1.516 . S
C780 C779 1.516 . S
C780 C781 1.502 . S
C780 C782 1.561 . S
C780 C783 1.526 . S
C781 H765 0.959 . S
C781 H766 0.959 . S
C781 H767 0.961 . S
C781 C780 1.502 . S
C782 H768 0.960 . S
C782 H769 0.961 . S
C782 H770 0.959 . S
C782 C780 1.561 . S
C783 C780 1.526 . S
C783 C784 1.396 . S
C783 C788 1.390 . S
C784 C778 1.465 . S
C784 C783 1.396 . S
C784 C785 1.399 . S
C785 H771 0.929 . S
C785 C784 1.399 . S
C785 C786 1.385 . S
C786 H772 0.931 . S
C786 C785 1.385 . S
C786 C787 1.389 . S
C787 C786 1.389 . S
C787 C788 1.387 . S
C788 H773 0.930 . S
C788 C783 1.390 . S
C788 C787 1.387 . S
H789 C801 0.930 . S
H790 C803 0.930 . S
H791 C804 0.930 . S
H792 C808 0.959 . S
H793 C808 0.959 . S
H794 C808 0.961 . S
H795 C809 0.960 . S
H796 C809 0.961 . S
H797 C809 0.959 . S
H798 C812 0.929 . S
H799 C813 0.931 . S
H800 C815 0.930 . S
C801 H789 0.930 . S
C801 C802 1.399 . S
C801 C806 1.399 . S
C802 C801 1.399 . S
C802 C803 1.376 . S
C803 H790 0.930 . S
C803 C802 1.376 . S
C803 C804 1.388 . S
C804 H791 0.930 . S
C804 C803 1.388 . S
C804 C805 1.390 . S
C805 C804 1.390 . S
C805 C806 1.394 . S
C805 C811 1.465 . S
C806 C801 1.399 . S
C806 C805 1.394 . S
C806 C807 1.516 . S
C807 C806 1.516 . S
C807 C808 1.502 . S
C807 C809 1.561 . S
C807 C810 1.526 . S
C808 H792 0.959 . S
C808 H793 0.959 . S
C808 H794 0.961 . S
C808 C807 1.502 . S
C809 H795 0.960 . S
C809 H796 0.961 . S
C809 H797 0.959 . S
C809 C807 1.561 . S
C810 C807 1.526 . S
C810 C811 1.396 . S
C810 C815 1.390 . S
C811 C805 1.465 . S
C811 C810 1.396 . S
C811 C812 1.399 . S
C812 H798 0.929 . S
C812 C811 1.399 . S
C812 C813 1.385 . S
C813 H799 0.931 . S
C813 C812 1.385 . S
C813 C814 1.389 . S
C814 C813 1.389 . S
C814 C815 1.387 . S
C815 H800 0.930 . S
C815 C810 1.390 . S
C815 C814 1.387 . S
H816 C828 0.930 . S
H817 C830 0.930 . S
H818 C831 0.930 . S
H819 C835 0.959 . S
H820 C835 0.959 . S
H821 C835 0.961 . S
H822 C836 0.960 . S
H823 C836 0.961 . S
H824 C836 0.959 . S
H825 C839 0.929 . S
H826 C840 0.931 . S
H827 C842 0.930 . S
C828 H816 0.930 . S
C828 C829 1.399 . S
C828 C833 1.399 . S
C829 C828 1.399 . S
C829 C830 1.376 . S
C830 H817 0.930 . S
C830 C829 1.376 . S
C830 C831 1.388 . S
C831 H818 0.930 . S
C831 C830 1.388 . S
C831 C832 1.390 . S
C832 C831 1.390 . S
C832 C833 1.394 . S
C832 C838 1.465 . S
C833 C828 1.399 . S
C833 C832 1.394 . S
C833 C834 1.516 . S
C834 C833 1.516 . S
C834 C835 1.502 . S
C834 C836 1.561 . S
C834 C837 1.526 . S
C835 H819 0.959 . S
C835 H820 0.959 . S
C835 H821 0.961 . S
C835 C834 1.502 . S
C836 H822 0.960 . S
C836 H823 0.961 . S
C836 H824 0.959 . S
C836 C834 1.561 . S
C837 C834 1.526 . S
C837 C838 1.396 . S
C837 C842 1.390 . S
C838 C832 1.465 . S
C838 C837 1.396 . S
C838 C839 1.399 . S
C839 H825 0.929 . S
C839 C838 1.399 . S
C839 C840 1.385 . S
C840 H826 0.931 . S
C840 C839 1.385 . S
C840 C841 1.389 . S
C841 C840 1.389 . S
C841 C842 1.387 . S
C842 H827 0.930 . S
C842 C837 1.390 . S
C842 C841 1.387 . S
H843 C855 0.930 . S
H844 C857 0.930 . S
H845 C858 0.930 . S
H846 C862 0.959 . S
H847 C862 0.959 . S
H848 C862 0.961 . S
H849 C863 0.960 . S
H850 C863 0.961 . S
H851 C863 0.959 . S
H852 C866 0.929 . S
H853 C867 0.931 . S
H854 C869 0.930 . S
C855 H843 0.930 . S
C855 C856 1.399 . S
C855 C860 1.399 . S
C856 C855 1.399 . S
C856 C857 1.376 . S
C857 H844 0.930 . S
C857 C856 1.376 . S
C857 C858 1.388 . S
C858 H845 0.930 . S
C858 C857 1.388 . S
C858 C859 1.390 . S
C859 C858 1.390 . S
C859 C860 1.394 . S
C859 C865 1.465 . S
C860 C855 1.399 . S
C860 C859 1.394 . S
C860 C861 1.516 . S
C861 C860 1.516 . S
C861 C862 1.502 . S
C861 C863 1.561 . S
C861 C864 1.526 . S
C862 H846 0.959 . S
C862 H847 0.959 . S
C862 H848 0.961 . S
C862 C861 1.502 . S
C863 H849 0.960 . S
C863 H850 0.961 . S
C863 H851 0.959 . S
C863 C861 1.561 . S
C864 C861 1.526 . S
C864 C865 1.396 . S
C864 C869 1.390 . S
C865 C859 1.465 . S
C865 C864 1.396 . S
C865 C866 1.399 . S
C866 H852 0.929 . S
C866 C865 1.399 . S
C866 C867 1.385 . S
C867 H853 0.931 . S
C867 C866 1.385 . S
C867 C868 1.389 . S
C868 C867 1.389 . S
C868 C869 1.387 . S
C869 H854 0.930 . S
C869 C864 1.390 . S
C869 C868 1.387 . S
H870 C882 0.930 . S
H871 C884 0.930 . S
H872 C885 0.930 . S
H873 C889 0.959 . S
H874 C889 0.959 . S
H875 C889 0.961 . S
H876 C890 0.960 . S
H877 C890 0.961 . S
H878 C890 0.959 . S
H879 C893 0.929 . S
H880 C894 0.931 . S
H881 C896 0.930 . S
C882 H870 0.930 . S
C882 C883 1.399 . S
C882 C887 1.399 . S
C883 C882 1.399 . S
C883 C884 1.376 . S
C884 H871 0.930 . S
C884 C883 1.376 . S
C884 C885 1.388 . S
C885 H872 0.930 . S
C885 C884 1.388 . S
C885 C886 1.390 . S
C886 C885 1.390 . S
C886 C887 1.394 . S
C886 C892 1.465 . S
C887 C882 1.399 . S
C887 C886 1.394 . S
C887 C888 1.516 . S
C888 C887 1.516 . S
C888 C889 1.502 . S
C888 C890 1.561 . S
C888 C891 1.526 . S
C889 H873 0.959 . S
C889 H874 0.959 . S
C889 H875 0.961 . S
C889 C888 1.502 . S
C890 H876 0.960 . S
C890 H877 0.961 . S
C890 H878 0.959 . S
C890 C888 1.561 . S
C891 C888 1.526 . S
C891 C892 1.396 . S
C891 C896 1.390 . S
C892 C886 1.465 . S
C892 C891 1.396 . S
C892 C893 1.399 . S
C893 H879 0.929 . S
C893 C892 1.399 . S
C893 C894 1.385 . S
C894 H880 0.931 . S
C894 C893 1.385 . S
C894 C895 1.389 . S
C895 C894 1.389 . S
C895 C896 1.387 . S
C896 H881 0.930 . S
C896 C891 1.390 . S
C896 C895 1.387 . S
H897 C909 0.930 . S
H898 C911 0.930 . S
H899 C912 0.930 . S
H900 C916 0.959 . S
H901 C916 0.959 . S
H902 C916 0.961 . S
H903 C917 0.960 . S
H904 C917 0.961 . S
H905 C917 0.959 . S
H906 C920 0.929 . S
H907 C921 0.931 . S
H908 C923 0.930 . S
C909 H897 0.930 . S
C909 C910 1.399 . S
C909 C914 1.399 . S
C910 C909 1.399 . S
C910 C911 1.376 . S
C911 H898 0.930 . S
C911 C910 1.376 . S
C911 C912 1.388 . S
C912 H899 0.930 . S
C912 C911 1.388 . S
C912 C913 1.390 . S
C913 C912 1.390 . S
C913 C914 1.394 . S
C913 C919 1.465 . S
C914 C909 1.399 . S
C914 C913 1.394 . S
C914 C915 1.516 . S
C915 C914 1.516 . S
C915 C916 1.502 . S
C915 C917 1.561 . S
C915 C918 1.526 . S
C916 H900 0.959 . S
C916 H901 0.959 . S
C916 H902 0.961 . S
C916 C915 1.502 . S
C917 H903 0.960 . S
C917 H904 0.961 . S
C917 H905 0.959 . S
C917 C915 1.561 . S
C918 C915 1.526 . S
C918 C919 1.396 . S
C918 C923 1.390 . S
C919 C913 1.465 . S
C919 C918 1.396 . S
C919 C920 1.399 . S
C920 H906 0.929 . S
C920 C919 1.399 . S
C920 C921 1.385 . S
C921 H907 0.931 . S
C921 C920 1.385 . S
C921 C922 1.389 . S
C922 C921 1.389 . S
C922 C923 1.387 . S
C923 H908 0.930 . S
C923 C918 1.390 . S
C923 C922 1.387 . S
C289 C7 1.789 . S
C301 C237 1.767 . S
C316 C30 1.361 . S
C328 N255 1.310 . S
C343 C145 1.349 . S
C355 N48 1.270 . S
C370 C76 1.789 . S
C382 C168 1.767 . S
C397 N186 1.264 . S
C409 C99 1.351 . S
C424 C214 1.391 . S
C436 N117 1.325 . S
C451 N140 1.004 . S
C463 N2 1.028 . S
C478 N163 0.913 . S
C490 N25 0.877 . S
C505 C191 1.558 . S
C517 C53 1.550 . S
C532 N71 1.028 . S
C544 N209 1.024 . S
C559 N94 0.993 . S
C571 N232 1.019 . S
C586 C122 1.515 . S
C598 C260 1.529 . S
C613 N12 2.442 . S
C625 N81 2.456 . S
C640 N35 2.227 . S
C652 N104 2.263 . S
C667 C62 2.463 1_554 S
C679 C131 2.509 1_554 S
C694 N219 2.239 . S
C706 N150 2.207 . S
C721 N242 2.466 . S
C733 N173 2.437 . S
C748 C269 2.490 . S
C760 C200 2.468 . S
C775 C16 2.199 . S
C787 N196 2.213 . S
C802 C223 1.926 . S
C814 C39 1.943 . S
C829 N58 2.229 . S
C841 C246 2.220 . S
C856 N265 2.220 . S
C868 C85 2.199 . S
C883 C108 1.937 . S
C895 C154 1.928 . S
C910 N127 2.212 . S
C922 C177 2.211 . S
