# Generated by pormake.
# Topology neb, (4)-cn, num edge types: 1
# Building blocks:
#     Node 0, Type 0, BuildingBlock: GALJAG_clean_sbu_0, # of connection points: 4
#     Node 1, Type 0, BuildingBlock: GALJAG_clean_sbu_0, # of connection points: 4
#     Node 2, Type 0, BuildingBlock: GALJAG_clean_sbu_0, # of connection points: 4
#     Node 3, Type 0, BuildingBlock: GALJAG_clean_sbu_0, # of connection points: 4
#     Node 4, Type 0, BuildingBlock: GALJAG_clean_sbu_0, # of connection points: 4
#     Node 5, Type 0, BuildingBlock: GALJAG_clean_sbu_0, # of connection points: 4
#     Node 6, Type 0, BuildingBlock: GALJAG_clean_sbu_0, # of connection points: 4
#     Node 7, Type 0, BuildingBlock: GALJAG_clean_sbu_0, # of connection points: 4
#     Node 8, Type 0, BuildingBlock: GALJAG_clean_sbu_0, # of connection points: 4
#     Node 9, Type 0, BuildingBlock: GALJAG_clean_sbu_0, # of connection points: 4
#     Node 10, Type 0, BuildingBlock: GALJAG_clean_sbu_0, # of connection points: 4
#     Node 11, Type 0, BuildingBlock: GALJAG_clean_sbu_0, # of connection points: 4
#     Node 12, Type 0, BuildingBlock: GALJAG_clean_sbu_0, # of connection points: 4
#     Node 13, Type 0, BuildingBlock: GALJAG_clean_sbu_0, # of connection points: 4
#     Node 14, Type 0, BuildingBlock: GALJAG_clean_sbu_0, # of connection points: 4
#     Node 15, Type 0, BuildingBlock: GALJAG_clean_sbu_0, # of connection points: 4
#     Edge 16, Type (0, 0), BuildingBlock: CIFDUS_clean_linker_0, # of connection points: 2
#     Edge 17, Type (0, 0), BuildingBlock: CIFDUS_clean_linker_0, # of connection points: 2
#     Edge 18, Type (0, 0), BuildingBlock: CIFDUS_clean_linker_0, # of connection points: 2
#     Edge 19, Type (0, 0), BuildingBlock: CIFDUS_clean_linker_0, # of connection points: 2
#     Edge 20, Type (0, 0), BuildingBlock: CIFDUS_clean_linker_0, # of connection points: 2
#     Edge 21, Type (0, 0), BuildingBlock: CIFDUS_clean_linker_0, # of connection points: 2
#     Edge 22, Type (0, 0), BuildingBlock: CIFDUS_clean_linker_0, # of connection points: 2
#     Edge 23, Type (0, 0), BuildingBlock: CIFDUS_clean_linker_0, # of connection points: 2
#     Edge 24, Type (0, 0), BuildingBlock: CIFDUS_clean_linker_0, # of connection points: 2
#     Edge 25, Type (0, 0), BuildingBlock: CIFDUS_clean_linker_0, # of connection points: 2
#     Edge 26, Type (0, 0), BuildingBlock: CIFDUS_clean_linker_0, # of connection points: 2
#     Edge 27, Type (0, 0), BuildingBlock: CIFDUS_clean_linker_0, # of connection points: 2
#     Edge 28, Type (0, 0), BuildingBlock: CIFDUS_clean_linker_0, # of connection points: 2
#     Edge 29, Type (0, 0), BuildingBlock: CIFDUS_clean_linker_0, # of connection points: 2
#     Edge 30, Type (0, 0), BuildingBlock: CIFDUS_clean_linker_0, # of connection points: 2
#     Edge 31, Type (0, 0), BuildingBlock: CIFDUS_clean_linker_0, # of connection points: 2
#     Edge 32, Type (0, 0), BuildingBlock: CIFDUS_clean_linker_0, # of connection points: 2
#     Edge 33, Type (0, 0), BuildingBlock: CIFDUS_clean_linker_0, # of connection points: 2
#     Edge 34, Type (0, 0), BuildingBlock: CIFDUS_clean_linker_0, # of connection points: 2
#     Edge 35, Type (0, 0), BuildingBlock: CIFDUS_clean_linker_0, # of connection points: 2
#     Edge 36, Type (0, 0), BuildingBlock: CIFDUS_clean_linker_0, # of connection points: 2
#     Edge 37, Type (0, 0), BuildingBlock: CIFDUS_clean_linker_0, # of connection points: 2
#     Edge 38, Type (0, 0), BuildingBlock: CIFDUS_clean_linker_0, # of connection points: 2
#     Edge 39, Type (0, 0), BuildingBlock: CIFDUS_clean_linker_0, # of connection points: 2
#     Edge 40, Type (0, 0), BuildingBlock: CIFDUS_clean_linker_0, # of connection points: 2
#     Edge 41, Type (0, 0), BuildingBlock: CIFDUS_clean_linker_0, # of connection points: 2
#     Edge 42, Type (0, 0), BuildingBlock: CIFDUS_clean_linker_0, # of connection points: 2
#     Edge 43, Type (0, 0), BuildingBlock: CIFDUS_clean_linker_0, # of connection points: 2
#     Edge 44, Type (0, 0), BuildingBlock: CIFDUS_clean_linker_0, # of connection points: 2
#     Edge 45, Type (0, 0), BuildingBlock: CIFDUS_clean_linker_0, # of connection points: 2
#     Edge 46, Type (0, 0), BuildingBlock: CIFDUS_clean_linker_0, # of connection points: 2
#     Edge 47, Type (0, 0), BuildingBlock: CIFDUS_clean_linker_0, # of connection points: 2
# Relax obj value: 0.003
# Max RMSD: 0.033
# Mean RMSD: 0.033
data_MOF--net-neb--node1-GALJAG_clean_sbu_0--edge1-CIFDUS_clean_linker_0
_symmetry_space_group_name_H-M    P1
_symmetry_Int_Tables_number       1
_symmetry_cell_setting            triclinic
loop_
_symmetry_equiv_pos_as_xyz
'x, y, z'
_cell_length_a     37.071029
_cell_length_b     21.736429
_cell_length_c     62.025452
_cell_angle_alpha  89.899306
_cell_angle_beta   90.529935
_cell_angle_gamma 89.928514
loop_
_atom_site_label
_atom_site_type_symbol
_atom_site_fract_x
_atom_site_fract_y
_atom_site_fract_z
_atom_type_partial_charge
In0 In 0.1393 0.13502 0.43637 0.0
O1 O 0.17265 0.06864 0.41575 0.0
O2 O 0.11561 0.06396 0.41343 0.0
C3 C 0.19211 0.17631 0.46276 0.0
C4 C 0.09591 0.08374 0.46611 0.0
C5 C 0.12482 0.23431 0.41123 0.0
O6 O 0.19689 0.13321 0.44946 0.0
O7 O 0.16056 0.19827 0.46287 0.0
O8 O 0.1003 0.20494 0.42073 0.0
O9 O 0.15612 0.21317 0.4142 0.0
C10 C 0.14549 0.04243 0.40754 0.0
O11 O 0.08688 0.13086 0.45538 0.0
O12 O 0.12701 0.0634 0.46212 0.0
In13 In 0.1095 0.11541 0.81409 0.0
O14 O 0.07771 0.04003 0.83148 0.0
O15 O 0.13405 0.0463 0.83761 0.0
C16 C 0.05934 0.15743 0.78592 0.0
C17 C 0.15838 0.06904 0.7866 0.0
C18 C 0.11324 0.21277 0.84107 0.0
O19 O 0.05411 0.11145 0.79797 0.0
O20 O 0.09013 0.18171 0.78785 0.0
O21 O 0.13956 0.19715 0.82949 0.0
O22 O 0.08591 0.17869 0.8393 0.0
C23 C 0.10497 0.01827 0.84119 0.0
O24 O 0.16618 0.11157 0.79973 0.0
O25 O 0.12599 0.05143 0.78709 0.0
In26 In 0.88634 0.88084 0.55902 0.0
O27 O 0.85573 0.96707 0.56947 0.0
O28 O 0.89308 0.92756 0.59171 0.0
C29 C 0.84096 0.83019 0.5298 0.0
C30 C 0.93623 0.9403 0.53539 0.0
C31 C 0.89437 0.78005 0.58383 0.0
O32 O 0.83031 0.86542 0.54462 0.0
O33 O 0.87461 0.82155 0.52945 0.0
O34 O 0.92116 0.80606 0.57516 0.0
O35 O 0.86431 0.80537 0.58007 0.0
C36 C 0.8707 0.96987 0.58778 0.0
O37 O 0.9443 0.89402 0.54685 0.0
O38 O 0.90345 0.95545 0.53585 0.0
In39 In 0.8633 0.87489 0.18834 0.0
O40 O 0.80777 0.89019 0.20293 0.0
O41 O 0.85184 0.94173 0.21566 0.0
C42 C 0.85106 0.77482 0.16349 0.0
C43 C 0.86666 0.97088 0.16075 0.0
C44 C 0.91346 0.82351 0.21458 0.0
O45 O 0.83262 0.78662 0.17998 0.0
O46 O 0.87483 0.81432 0.15916 0.0
O47 O 0.922 0.86143 0.19998 0.0
O48 O 0.88016 0.81303 0.21592 0.0
C49 C 0.81851 0.93018 0.21631 0.0
O50 O 0.89377 0.95417 0.1719 0.0
O51 O 0.83886 0.93823 0.16321 0.0
In52 In 0.13456 0.61502 0.93807 0.0
O53 O 0.16676 0.53762 0.9219 0.0
O54 O 0.11083 0.54474 0.9148 0.0
C55 C 0.18497 0.65683 0.96605 0.0
C56 C 0.08141 0.57715 0.96447 0.0
C57 C 0.13195 0.71173 0.91053 0.0
O58 O 0.18906 0.60803 0.95531 0.0
O59 O 0.15506 0.68345 0.96311 0.0
O60 O 0.10587 0.69777 0.9225 0.0
O61 O 0.15873 0.67621 0.9121 0.0
C62 C 0.1399 0.51602 0.91185 0.0
O63 O 0.0765 0.61641 0.9497 0.0
O64 O 0.11342 0.55781 0.96627 0.0
In65 In 0.12418 0.6361 0.31244 0.0
O66 O 0.09828 0.55306 0.32947 0.0
O67 O 0.15134 0.58068 0.33866 0.0
C68 C 0.07666 0.68174 0.28354 0.0
C69 C 0.17114 0.58434 0.28528 0.0
C70 C 0.12537 0.73514 0.33834 0.0
O71 O 0.06775 0.64126 0.29723 0.0
O72 O 0.10936 0.69777 0.28434 0.0
O73 O 0.15218 0.72066 0.32691 0.0
O74 O 0.09883 0.699 0.33694 0.0
C75 C 0.1259 0.54292 0.34114 0.0
O76 O 0.17967 0.63004 0.29691 0.0
O77 O 0.13897 0.5662 0.28717 0.0
In78 In 0.88214 0.37749 0.06509 0.0
O79 O 0.86562 0.47877 0.06612 0.0
O80 O 0.87362 0.43426 0.09609 0.0
C81 C 0.83422 0.32785 0.037 0.0
C82 C 0.94022 0.41388 0.04233 0.0
C83 C 0.88902 0.27963 0.0918 0.0
O84 O 0.8252 0.3667 0.05109 0.0
O85 O 0.86736 0.31456 0.037 0.0
O86 O 0.91613 0.30703 0.08414 0.0
O87 O 0.85897 0.30257 0.0864 0.0
C88 C 0.86604 0.48349 0.0863 0.0
O89 O 0.94344 0.38637 0.06022 0.0
O90 O 0.90815 0.42116 0.03593 0.0
In91 In 0.87015 0.37716 0.68092 0.0
O92 O 0.81332 0.37855 0.69492 0.0
O93 O 0.85257 0.43814 0.70874 0.0
C94 C 0.86075 0.28315 0.65294 0.0
C95 C 0.87145 0.47734 0.65543 0.0
C96 C 0.9253 0.33409 0.70553 0.0
O97 O 0.84815 0.28226 0.67173 0.0
O98 O 0.87773 0.33136 0.64817 0.0
O99 O 0.92916 0.37908 0.69283 0.0
O100 O 0.89396 0.31191 0.7058 0.0
C101 C 0.82034 0.41964 0.70869 0.0
O102 O 0.89976 0.45687 0.66452 0.0
O103 O 0.84318 0.4468 0.65907 0.0
In104 In 0.62201 0.15715 0.93662 0.0
O105 O 0.65273 0.08008 0.91927 0.0
O106 O 0.59863 0.09907 0.90973 0.0
C107 C 0.67019 0.20211 0.96527 0.0
C108 C 0.5766 0.09982 0.96364 0.0
C109 C 0.61435 0.25851 0.91184 0.0
O110 O 0.67897 0.16388 0.95087 0.0
O111 O 0.63721 0.21672 0.96528 0.0
O112 O 0.58812 0.23556 0.92194 0.0
O113 O 0.64377 0.22988 0.91406 0.0
C114 C 0.62622 0.06597 0.9073 0.0
O115 O 0.56708 0.14645 0.95274 0.0
O116 O 0.60897 0.08351 0.96121 0.0
In117 In 0.61257 0.11709 0.31621 0.0
O118 O 0.66974 0.10984 0.30202 0.0
O119 O 0.62837 0.05193 0.28964 0.0
C120 C 0.61586 0.21806 0.34111 0.0
C121 C 0.60598 0.02488 0.34509 0.0
C122 C 0.56093 0.16212 0.28978 0.0
O123 O 0.64332 0.19875 0.33114 0.0
O124 O 0.58778 0.18597 0.33865 0.0
O125 O 0.55466 0.12112 0.30373 0.0
O126 O 0.59338 0.17953 0.28896 0.0
C127 C 0.66096 0.06787 0.28887 0.0
O128 O 0.58769 0.02693 0.32787 0.0
O129 O 0.62736 0.06924 0.34784 0.0
In130 In 0.37784 0.89415 0.06276 0.0
O131 O 0.43045 0.90022 0.04402 0.0
O132 O 0.38822 0.96247 0.03573 0.0
C133 C 0.38909 0.79501 0.08808 0.0
C134 C 0.37895 0.9877 0.09128 0.0
C135 C 0.32353 0.84833 0.03858 0.0
O136 O 0.4131 0.81521 0.0756 0.0
O137 O 0.36014 0.82555 0.08806 0.0
O138 O 0.3192 0.89359 0.05109 0.0
O139 O 0.35529 0.82745 0.03798 0.0
C140 C 0.42014 0.94492 0.03245 0.0
O141 O 0.35027 0.97143 0.08174 0.0
O142 O 0.40627 0.95575 0.08687 0.0
In143 In 0.37184 0.88194 0.69355 0.0
O144 O 0.3166 0.88754 0.70928 0.0
O145 O 0.35694 0.95081 0.71964 0.0
C146 C 0.36372 0.78194 0.66823 0.0
C147 C 0.37397 0.97642 0.6652 0.0
C148 C 0.42235 0.83571 0.72068 0.0
O149 O 0.33835 0.80255 0.67959 0.0
O150 O 0.39261 0.81236 0.66937 0.0
O151 O 0.42985 0.87495 0.70632 0.0
O152 O 0.38944 0.82121 0.72158 0.0
C153 C 0.32477 0.93249 0.72126 0.0
O154 O 0.40089 0.96246 0.67688 0.0
O155 O 0.34702 0.94185 0.66747 0.0
In156 In 0.62976 0.61915 0.43822 0.0
O157 O 0.66507 0.54451 0.42283 0.0
O158 O 0.60858 0.54579 0.41593 0.0
C159 C 0.67967 0.67527 0.46333 0.0
C160 C 0.58414 0.5647 0.46593 0.0
C161 C 0.6132 0.71118 0.41048 0.0
O162 O 0.68854 0.63754 0.44881 0.0
O163 O 0.64622 0.6835 0.4651 0.0
O164 O 0.60065 0.7088 0.42927 0.0
O165 O 0.63363 0.66719 0.40559 0.0
C166 C 0.63865 0.51985 0.41305 0.0
O167 O 0.57362 0.60345 0.452 0.0
O168 O 0.61763 0.55417 0.46599 0.0
In169 In 0.64247 0.65814 0.81347 0.0
O170 O 0.69777 0.65836 0.7977 0.0
O171 O 0.66102 0.58751 0.78883 0.0
C172 C 0.64923 0.75857 0.83876 0.0
C173 C 0.63819 0.56423 0.84202 0.0
C174 C 0.59257 0.70168 0.78536 0.0
O175 O 0.67587 0.73463 0.82942 0.0
O176 O 0.61966 0.73129 0.83565 0.0
O177 O 0.58488 0.66341 0.79998 0.0
O178 O 0.62544 0.71655 0.78466 0.0
C179 C 0.69203 0.61051 0.78667 0.0
O180 O 0.61246 0.5773 0.82932 0.0
O181 O 0.66511 0.59925 0.84059 0.0
In182 In 0.38314 0.38257 0.56945 0.0
O183 O 0.35488 0.45988 0.58809 0.0
O184 O 0.41101 0.4465 0.59322 0.0
C185 C 0.32917 0.34195 0.54385 0.0
C186 C 0.42714 0.42906 0.53914 0.0
C187 C 0.39228 0.2825 0.59488 0.0
O188 O 0.32488 0.38508 0.55724 0.0
O189 O 0.36068 0.31988 0.54332 0.0
O190 O 0.41757 0.30417 0.5837 0.0
O191 O 0.36299 0.31181 0.59348 0.0
C192 C 0.38332 0.4776 0.59753 0.0
O193 O 0.43648 0.3849 0.55124 0.0
O194 O 0.39557 0.44876 0.54212 0.0
In195 In 0.37506 0.39376 0.18629 0.0
O196 O 0.32189 0.39847 0.20431 0.0
O197 O 0.36295 0.46253 0.21286 0.0
C198 C 0.3647 0.29396 0.16125 0.0
C199 C 0.37469 0.48788 0.15788 0.0
C200 C 0.4281 0.34896 0.21175 0.0
O201 O 0.34015 0.31523 0.17309 0.0
O202 O 0.39387 0.32374 0.16175 0.0
O203 O 0.43363 0.39106 0.19807 0.0
O204 O 0.39587 0.33064 0.21274 0.0
C205 C 0.33121 0.44365 0.21587 0.0
O206 O 0.403 0.4721 0.16796 0.0
O207 O 0.34746 0.45515 0.1617 0.0
H208 H 0.33241 0.24828 0.51514 0.0
H209 H 0.25951 0.38263 0.54167 0.0
H210 H 0.21049 0.34287 0.51904 0.0
H211 H 0.18843 0.26991 0.49166 0.0
H212 H 0.26156 0.13569 0.46524 0.0
H213 H 0.3104 0.17536 0.48793 0.0
C214 C 0.3058 0.26892 0.51595 0.0
C215 C 0.2996 0.31836 0.53003 0.0
C216 C 0.27779 0.24578 0.50295 0.0
C217 C 0.26497 0.34454 0.53094 0.0
C218 C 0.23694 0.32181 0.51802 0.0
C219 C 0.21504 0.2493 0.49091 0.0
C220 C 0.22137 0.19993 0.4768 0.0
C221 C 0.24304 0.27243 0.50397 0.0
C222 C 0.25599 0.17372 0.47597 0.0
C223 C 0.28395 0.1964 0.48893 0.0
H224 H 0.00783 0.91561 0.53 0.0
H225 H 0.9235 0.04263 0.51138 0.0
H226 H 0.96571 0.09964 0.4891 0.0
H227 H 0.02608 0.11221 0.47407 0.0
H228 H 0.11058 0.98483 0.49192 0.0
H229 H 0.06898 0.92959 0.51538 0.0
C230 C 0.99879 0.95584 0.5211 0.0
C231 C 0.96257 0.97468 0.5223 0.0
C232 C 0.02323 0.98847 0.50818 0.0
C233 C 0.95121 0.02697 0.51069 0.0
C234 C 0.97533 0.05972 0.49794 0.0
C235 C 0.03545 0.07262 0.4832 0.0
C236 C 0.07131 0.05266 0.48126 0.0
C237 C 0.01133 0.04072 0.49646 0.0
C238 C 0.08305 1.00113 0.49314 0.0
C239 C 0.05927 0.96943 0.50653 0.0
H240 H 0.2529 0.9107 0.72339 0.0
H241 H 0.33731 0.02408 0.7504 0.0
H242 H 0.29325 0.07753 0.77273 0.0
H243 H 0.23053 0.09206 0.78457 0.0
H244 H 0.14636 0.97882 0.75712 0.0
H245 H 0.19045 0.92574 0.7349 0.0
C246 C 0.26168 0.94691 0.73424 0.0
C247 C 0.29831 0.96322 0.73531 0.0
C248 C 0.23619 0.97778 0.74686 0.0
C249 C 0.30924 0.01055 0.74933 0.0
C250 C 0.28406 0.04123 0.76206 0.0
C251 C 0.22186 0.05598 0.77364 0.0
C252 C 0.18523 0.03948 0.77249 0.0
C253 C 0.24743 0.02535 0.76093 0.0
C254 C 0.1744 0.99249 0.75831 0.0
C255 C 0.1996 0.96196 0.74561 0.0
H256 H 0.06402 0.25646 0.75911 0.0
H257 H 0.99126 0.11376 0.77993 0.0
H258 H 0.94367 0.15589 0.75682 0.0
H259 H 0.92235 0.23381 0.73124 0.0
H260 H 0.99448 0.37679 0.71002 0.0
H261 H 0.04276 0.334 0.73277 0.0
C262 C 0.03778 0.2345 0.75851 0.0
C263 C 0.03117 0.18208 0.77124 0.0
C264 C 0.01044 0.25909 0.74519 0.0
C265 C 0.99705 0.15412 0.7703 0.0
C266 C 0.96979 0.17823 0.75711 0.0
C267 C 0.94864 0.25569 0.73157 0.0
C268 C 0.95482 0.30852 0.71902 0.0
C269 C 0.97613 0.23081 0.74459 0.0
C270 C 0.98906 0.33612 0.71956 0.0
C271 C 0.01664 0.31167 0.73256 0.0
H272 H 0.76803 0.83583 0.52973 0.0
H273 H 0.85757 0.75358 0.49643 0.0
H274 H 0.81573 0.69798 0.47278 0.0
H275 H 0.75334 0.67143 0.46196 0.0
H276 H 0.66439 0.7541 0.49581 0.0
H277 H 0.70631 0.81048 0.51883 0.0
C278 C 0.77841 0.80599 0.51722 0.0
C279 C 0.8158 0.79889 0.51482 0.0
C280 C 0.75426 0.7739 0.50383 0.0
C281 C 0.82884 0.75988 0.49859 0.0
C282 C 0.80495 0.72797 0.48509 0.0
C283 C 0.74322 0.70174 0.47439 0.0
C284 C 0.70582 0.7084 0.47718 0.0
C285 C 0.76756 0.73433 0.48764 0.0
C286 C 0.69306 0.74802 0.49332 0.0
C287 C 0.717 0.78041 0.5065 0.0
H288 H 0.73363 0.08665 0.28527 0.0
H289 H 0.64494 0.98212 0.25862 0.0
H290 H 0.68567 0.93049 0.23397 0.0
H291 H 0.74637 0.91404 0.22 0.0
H292 H 0.83566 0.0174 0.24634 0.0
H293 H 0.79495 0.07018 0.27103 0.0
C294 C 0.72329 0.05269 0.27402 0.0
C295 C 0.68632 0.03831 0.2738 0.0
C296 C 0.74697 0.02275 0.25984 0.0
C297 C 0.67329 0.99408 0.25916 0.0
C298 C 0.69656 0.96442 0.24503 0.0
C299 C 0.75694 0.94808 0.23115 0.0
C300 C 0.79394 0.96169 0.23136 0.0
C301 C 0.73343 0.97822 0.24526 0.0
C302 C 0.80723 1.006 0.24588 0.0
C303 C 0.78397 0.03626 0.26 0.0
H304 H 0.98684 0.83447 0.21482 0.0
H305 H 0.89908 0.74157 0.24643 0.0
H306 H 0.94164 0.68791 0.27001 0.0
H307 H 0.00379 0.66788 0.28208 0.0
H308 H 0.09172 0.76144 0.25094 0.0
H309 H 0.04928 0.81374 0.22678 0.0
C310 C 0.9771 0.80254 0.22689 0.0
C311 C 0.93987 0.79221 0.22888 0.0
C312 C 0.00177 0.77166 0.24048 0.0
C313 C 0.92762 0.75054 0.24457 0.0
C314 C 0.95194 0.71967 0.25807 0.0
C315 C 0.01364 0.69942 0.26992 0.0
C316 C 0.05081 0.71067 0.2683 0.0
C317 C 0.98907 0.72987 0.25619 0.0
C318 C 0.06319 0.75195 0.25253 0.0
C319 C 0.03894 0.78201 0.23871 0.0
H320 H 0.325 0.74166 0.01613 0.0
H321 H 0.25484 0.89186 0.0334 0.0
H322 H 0.20531 0.84477 0.01299 0.0
H323 H 0.18232 0.7616 0.98981 0.0
H324 H 0.25253 0.61094 0.97299 0.0
H325 H 0.30163 0.65731 0.99384 0.0
C326 C 0.29889 0.76418 0.01538 0.0
C327 C 0.29363 0.82035 0.02612 0.0
C328 C 0.27053 0.73661 0.00381 0.0
C329 C 0.25957 0.84869 0.0252 0.0
C330 C 0.23125 0.82176 0.01356 0.0
C331 C 0.2083 0.73874 0.99082 0.0
C332 C 0.2138 0.68295 0.97985 0.0
C333 C 0.23645 0.76578 0.00277 0.0
C334 C 0.2476 0.65388 0.98131 0.0
C335 C 0.27572 0.68045 0.99317 0.0
H336 H 0.08564 0.49836 0.9987 0.0
H337 H 0.00996 0.60251 0.95986 0.0
H338 H 0.95987 0.56023 0.98032 0.0
H339 H 0.93738 0.49298 0.00878 0.0
H340 H 0.01225 0.39064 0.04863 0.0
H341 H 0.0629 0.43275 0.0282 0.0
C342 C 0.05818 0.51193 0.99479 0.0
C343 C 0.05153 0.55345 0.97775 0.0
C344 C 0.0294 0.48756 0.00671 0.0
C345 C 0.01584 0.57074 0.97291 0.0
C346 C 0.98715 0.54646 0.98456 0.0
C347 C 0.96478 0.47968 0.01297 0.0
C348 C 0.97108 0.43841 0.03008 0.0
C349 C 0.9936 0.50463 0.00139 0.0
C350 C 0.00673 0.4222 0.03547 0.0
C351 C 0.03566 0.44631 0.02381 0.0
H352 H 0.26028 0.41933 0.22149 0.0
H353 H 0.34626 0.53784 0.24352 0.0
H354 H 0.30429 0.59257 0.26686 0.0
H355 H 0.24281 0.60762 0.28063 0.0
H356 H 0.15704 0.48911 0.2582 0.0
H357 H 0.19922 0.43385 0.23532 0.0
C358 C 0.26987 0.4569 0.2315 0.0
C359 C 0.30628 0.47445 0.23082 0.0
C360 C 0.24557 0.48848 0.2447 0.0
C361 C 0.31831 0.52341 0.24378 0.0
C362 C 0.29433 0.55483 0.25709 0.0
C363 C 0.23338 0.56984 0.27067 0.0
C364 C 0.19687 0.55262 0.27106 0.0
C365 C 0.25783 0.53801 0.25758 0.0
C366 C 0.18503 0.50338 0.25816 0.0
C367 C 0.20912 0.47163 0.2451 0.0
H368 H 0.74282 0.18362 0.96707 0.0
H369 H 0.65634 0.28224 0.99783 0.0
H370 H 0.69936 0.33002 0.02265 0.0
H371 H 0.76161 0.34465 0.03548 0.0
H372 H 0.84823 0.24626 0.0048 0.0
H373 H 0.80518 0.19778 0.9801 0.0
C374 C 0.73341 0.21542 0.97925 0.0
C375 C 0.69645 0.22932 0.9806 0.0
C376 C 0.75834 0.24299 0.99345 0.0
C377 C 0.68466 0.27072 0.99644 0.0
C378 C 0.70924 0.29816 0.01064 0.0
C379 C 0.77106 0.31266 0.02336 0.0
C380 C 0.80805 0.29918 0.02195 0.0
C381 C 0.74615 0.28482 0.00925 0.0
C382 C 0.81988 0.25748 0.00622 0.0
C383 C 0.79528 0.22968 0.99209 0.0
H384 H 0.68534 0.50894 0.76149 0.0
H385 H 0.76133 0.64871 0.78118 0.0
H386 H 0.80802 0.60076 0.7593 0.0
H387 H 0.82722 0.51942 0.73453 0.0
H388 H 0.75108 0.38068 0.71423 0.0
H389 H 0.70451 0.42771 0.73653 0.0
C390 C 0.7121 0.52897 0.76095 0.0
C391 C 0.71985 0.58234 0.77291 0.0
C392 C 0.73881 0.50119 0.74832 0.0
C393 C 0.75465 0.60773 0.77207 0.0
C394 C 0.78139 0.58027 0.75961 0.0
C395 C 0.80049 0.49928 0.73508 0.0
C396 C 0.79262 0.44654 0.72282 0.0
C397 C 0.77378 0.52697 0.7477 0.0
C398 C 0.7578 0.42123 0.72356 0.0
C399 C 0.73116 0.44815 0.73626 0.0
H400 H 0.50447 0.1179 0.96853 0.0
H401 H 0.593 1.00322 0.98988 0.0
H402 H 0.5522 0.94352 0.01234 0.0
H403 H 0.49152 0.92442 0.02628 0.0
H404 H 0.40287 0.03912 0.00518 0.0
H405 H 0.44345 0.09779 0.98214 0.0
C406 C 0.51481 0.07997 0.97816 0.0
C407 C 0.5517 0.0652 0.97761 0.0
C408 C 0.49114 0.04555 0.99098 0.0
C409 C 0.5647 0.01567 0.99006 0.0
C410 C 0.54139 0.98138 0.00288 0.0
C411 C 0.48104 0.96195 0.01651 0.0
C412 C 0.44427 0.97733 0.0174 0.0
C413 C 0.50457 0.99588 0.00347 0.0
C414 C 0.4311 0.0263 0.00474 0.0
C415 C 0.45429 0.06001 0.99161 0.0
H416 H 0.42201 0.25513 0.24023 0.0
H417 H 0.49939 0.38068 0.21299 0.0
H418 H 0.54756 0.33305 0.23449 0.0
H419 H 0.56756 0.25568 0.26103 0.0
H420 H 0.48989 0.13044 0.28818 0.0
H421 H 0.44193 0.17787 0.26658 0.0
C422 C 0.4494 0.27221 0.23903 0.0
C423 C 0.45714 0.32143 0.22509 0.0
C424 C 0.47689 0.2445 0.25134 0.0
C425 C 0.49276 0.34291 0.22365 0.0
C426 C 0.5203 0.31564 0.23591 0.0
C427 C 0.54015 0.23863 0.26215 0.0
C428 C 0.53227 0.18956 0.27614 0.0
C429 C 0.51268 0.26633 0.24977 0.0
C430 C 0.49664 0.1681 0.2775 0.0
C431 C 0.4692 0.19525 0.26519 0.0
H432 H 0.49525 0.84957 0.71907 0.0
H433 H 0.41122 0.75594 0.75383 0.0
H434 H 0.45636 0.70489 0.77652 0.0
H435 H 0.51978 0.68678 0.78659 0.0
H436 H 0.60387 0.7804 0.75188 0.0
H437 H 0.55874 0.831 0.72902 0.0
C438 C 0.48684 0.81819 0.73167 0.0
C439 C 0.44994 0.80675 0.7348 0.0
C440 C 0.51298 0.78863 0.7446 0.0
C441 C 0.43947 0.76566 0.75111 0.0
C442 C 0.46527 0.73632 0.76408 0.0
C443 C 0.52822 0.718 0.77394 0.0
C444 C 0.56511 0.72971 0.77092 0.0
C445 C 0.5021 0.74733 0.76094 0.0
C446 C 0.57562 0.77052 0.75453 0.0
C447 C 0.54983 0.79961 0.74147 0.0
H448 H 0.4988 0.40748 0.5342 0.0
H449 H 0.4103 0.51545 0.50885 0.0
H450 H 0.45095 0.56662 0.4838 0.0
H451 H 0.51188 0.58223 0.46957 0.0
H452 H 0.60065 0.47587 0.49545 0.0
H453 H 0.55972 0.42273 0.51983 0.0
C454 C 0.4884 0.44193 0.5231 0.0
C455 C 0.45162 0.45759 0.52335 0.0
C456 C 0.51201 0.47173 0.50891 0.0
C457 C 0.43854 0.50259 0.50897 0.0
C458 C 0.46176 0.53195 0.49466 0.0
C459 C 0.52224 0.54742 0.48055 0.0
C460 C 0.55922 0.53311 0.48073 0.0
C461 C 0.49859 0.51719 0.49458 0.0
C462 C 0.57228 0.48787 0.49504 0.0
C463 C 0.54889 0.45737 0.50897 0.0
H464 H 0.18035 0.81438 0.34802 0.0
H465 H 0.06703 0.78181 0.35864 0.0
H466 H 0.06316 0.87512 0.38015 0.0
H467 H 0.09165 0.96541 0.3962 0.0
H468 H 0.20533 0.99745 0.38732 0.0
H469 H 0.20937 0.90518 0.36479 0.0
C470 C 0.15488 0.8278 0.35507 0.0
C471 C 0.12405 0.79122 0.35174 0.0
C472 C 0.15285 0.88148 0.36766 0.0
C473 C 0.09121 0.80901 0.36102 0.0
C474 C 0.08891 0.86248 0.37329 0.0
C475 C 0.11729 0.95246 0.38922 0.0
C476 C 0.14809 0.9883 0.39328 0.0
C477 C 0.1195 0.89901 0.3767 0.0
C478 C 0.18121 0.97057 0.38436 0.0
C479 C 0.18353 0.91782 0.37152 0.0
H480 H 0.17358 0.31945 0.3995 0.0
H481 H 0.06066 0.27456 0.39388 0.0
H482 H 0.05043 0.36667 0.37171 0.0
H483 H 0.07433 0.4596 0.35337 0.0
H484 H 0.18716 0.50454 0.361 0.0
H485 H 0.19657 0.41314 0.38298 0.0
C486 C 0.14672 0.32973 0.3934 0.0
C487 C 0.11799 0.29009 0.39813 0.0
C488 C 0.14101 0.38299 0.38105 0.0
C489 C 0.08324 0.30443 0.39039 0.0
C490 C 0.0774 0.35703 0.37771 0.0
C491 C 0.10087 0.4494 0.35995 0.0
C492 C 0.12998 0.48881 0.35548 0.0
C493 C 0.10615 0.39664 0.37287 0.0
C494 C 0.16423 0.47517 0.3642 0.0
C495 C 0.16973 0.42273 0.37674 0.0
H496 H 0.17079 0.28302 0.85377 0.0
H497 H 0.05518 0.26696 0.85921 0.0
H498 H 0.05331 0.35992 0.88103 0.0
H499 H 0.08409 0.44597 0.89848 0.0
H500 H 0.19985 0.46091 0.89507 0.0
H501 H 0.20216 0.36838 0.87256 0.0
C502 C 0.14526 0.29995 0.85978 0.0
C503 C 0.11318 0.26822 0.85484 0.0
C504 C 0.14438 0.35326 0.87264 0.0
C505 C 0.08028 0.29039 0.86283 0.0
C506 C 0.07914 0.34367 0.87527 0.0
C507 C 0.10983 0.4291 0.89275 0.0
C508 C 0.14172 0.46036 0.89827 0.0
C509 C 0.11096 0.37551 0.88023 0.0
C510 C 0.17492 0.43757 0.89099 0.0
C511 C 0.17623 0.38473 0.87812 0.0
H512 H 0.07501 0.78506 0.89937 0.0
H513 H 0.18968 0.76282 0.89075 0.0
H514 H 0.1915 0.85667 0.86918 0.0
H515 H 0.16082 0.94536 0.85292 0.0
H516 H 0.04576 0.96584 0.85963 0.0
H517 H 0.04374 0.87256 0.88184 0.0
C518 C 0.10034 0.80076 0.8927 0.0
C519 C 0.13217 0.76713 0.89668 0.0
C520 C 0.10114 0.85454 0.88006 0.0
C521 C 0.16478 0.78776 0.88786 0.0
C522 C 0.16589 0.84155 0.87558 0.0
C523 C 0.13532 0.92955 0.85934 0.0
C524 C 0.10353 0.96259 0.85484 0.0
C525 C 0.13429 0.87539 0.87165 0.0
C526 C 0.0706 0.94115 0.86295 0.0
C527 C 0.06945 0.88786 0.87563 0.0
H528 H 0.8604 0.16236 0.66328 0.0
H529 H 0.85546 0.28726 0.60929 0.0
H530 H 0.85419 0.20032 0.58424 0.0
H531 H 0.85823 0.08889 0.5777 0.0
H532 H 0.87095 0.96489 0.63153 0.0
H533 H 0.86523 0.05095 0.65673 0.0
C534 C 0.8586 0.17028 0.64603 0.0
C535 C 0.85772 0.23075 0.63804 0.0
C536 C 0.85944 0.12022 0.63176 0.0
C537 C 0.85613 0.24087 0.6157 0.0
C538 C 0.85541 0.19127 0.60142 0.0
C539 C 0.85925 0.08085 0.59497 0.0
C540 C 0.86463 0.02094 0.60286 0.0
C541 C 0.85755 0.13078 0.60925 0.0
C542 C 0.86672 0.01084 0.62519 0.0
C543 C 0.8635 0.05995 0.63956 0.0
H544 H 0.92861 0.54527 0.64111 0.0
H545 H 0.8123 0.53489 0.63926 0.0
H546 H 0.80947 0.62745 0.6172 0.0
H547 H 0.83948 0.71126 0.59853 0.0
H548 H 0.95562 0.72269 0.59904 0.0
H549 H 0.95911 0.62978 0.6215 0.0
C550 C 0.90271 0.56338 0.63585 0.0
C551 C 0.87072 0.53325 0.64184 0.0
C552 C 0.90122 0.61673 0.62295 0.0
C553 C 0.83733 0.55705 0.63485 0.0
C554 C 0.83565 0.61008 0.62225 0.0
C555 C 0.86561 0.69357 0.60356 0.0
C556 C 0.89723 0.72388 0.59722 0.0
C557 C 0.86736 0.64025 0.61623 0.0
C558 C 0.93087 0.7001 0.60374 0.0
C559 C 0.93286 0.64706 0.61658 0.0
H560 H 0.84316 0.50394 0.12731 0.0
H561 H 0.87864 0.59679 0.0698 0.0
H562 H 0.87625 0.69567 0.08836 0.0
H563 H 0.8672 0.75526 0.12156 0.0
H564 H 0.82731 0.66433 0.17834 0.0
H565 H 0.82792 0.56544 0.1595 0.0
C566 C 0.85009 0.54596 0.11886 0.0
C567 C 0.86136 0.54314 0.09731 0.0
C568 C 0.84789 0.60296 0.12951 0.0
C569 C 0.86985 0.59787 0.0864 0.0
C570 C 0.86861 0.65441 0.09702 0.0
C571 C 0.85832 0.71381 0.12969 0.0
C572 C 0.84749 0.71681 0.1513 0.0
C573 C 0.85813 0.65743 0.11865 0.0
C574 C 0.83566 0.66306 0.16166 0.0
C575 C 0.83619 0.6065 0.15093 0.0
H576 H 0.92295 0.04718 0.15052 0.0
H577 H 0.80895 0.01916 0.13959 0.0
H578 H 0.80593 0.11223 0.11782 0.0
H579 H 0.83499 0.20222 0.10214 0.0
H580 H 0.94915 0.23064 0.11149 0.0
H581 H 0.95278 0.13711 0.1336 0.0
C582 C 0.89753 0.06142 0.14329 0.0
C583 C 0.86623 0.0262 0.14674 0.0
C584 C 0.89594 0.11524 0.13057 0.0
C585 C 0.83349 0.0452 0.13721 0.0
C586 C 0.83167 0.0986 0.12477 0.0
C587 C 0.86069 0.18813 0.10907 0.0
C588 C 0.89169 0.22355 0.10533 0.0
C589 C 0.86262 0.1341 0.12144 0.0
C590 C 0.92485 0.20422 0.1142 0.0
C591 C 0.92693 0.15074 0.12683 0.0
H592 H 0.59496 0.83548 0.84882 0.0
H593 H 0.70949 0.8092 0.85731 0.0
H594 H 0.71299 0.90309 0.87911 0.0
H595 H 0.68281 0.9918 0.89634 0.0
H596 H 0.56854 0.01872 0.88597 0.0
H597 H 0.56569 0.9258 0.86419 0.0
C598 C 0.62068 0.85024 0.85549 0.0
C599 C 0.65185 0.81533 0.8517 0.0
C600 C 0.62254 0.90456 0.86758 0.0
C601 C 0.68511 0.8354 0.86011 0.0
C602 C 0.6871 0.889 0.87255 0.0
C603 C 0.65739 0.97743 0.88918 0.0
C604 C 0.62593 0.01202 0.89283 0.0
C605 C 0.65593 0.92389 0.87646 0.0
C606 C 0.59318 0.99303 0.88339 0.0
C607 C 0.59146 0.93973 0.87098 0.0
H608 H 0.66879 0.33386 0.90104 0.0
H609 H 0.55382 0.31096 0.8939 0.0
H610 H 0.5506 0.4042 0.87157 0.0
H611 H 0.58123 0.49137 0.85346 0.0
H612 H 0.69592 0.5151 0.86279 0.0
H613 H 0.69846 0.42265 0.88495 0.0
C614 C 0.64301 0.34924 0.89457 0.0
C615 C 0.61165 0.31542 0.89889 0.0
C616 C 0.64134 0.40314 0.88218 0.0
C617 C 0.57835 0.33632 0.89072 0.0
C618 C 0.57653 0.38951 0.87795 0.0
C619 C 0.60668 0.47631 0.86044 0.0
C620 C 0.63836 0.50991 0.8564 0.0
C621 C 0.60793 0.4232 0.87348 0.0
C622 C 0.67113 0.49018 0.86567 0.0
C623 C 0.67267 0.43717 0.8783 0.0
H624 H 0.67337 0.2854 0.3562 0.0
H625 H 0.55696 0.27759 0.35559 0.0
H626 H 0.55414 0.37027 0.37735 0.0
H627 H 0.58402 0.4529 0.39673 0.0
H628 H 0.70018 0.4618 0.39917 0.0
H629 H 0.70386 0.36937 0.37657 0.0
C630 C 0.64748 0.30421 0.36084 0.0
C631 C 0.61544 0.27463 0.35429 0.0
C632 C 0.64596 0.35757 0.37369 0.0
C633 C 0.58204 0.29924 0.36049 0.0
C634 C 0.58034 0.35235 0.37291 0.0
C635 C 0.61022 0.43481 0.3923 0.0
C636 C 0.64177 0.46421 0.39952 0.0
C637 C 0.61205 0.38174 0.37963 0.0
C638 C 0.67548 0.43989 0.39378 0.0
C639 C 0.67757 0.38713 0.38086 0.0
H640 H 0.61096 0.83154 0.42086 0.0
H641 H 0.6022 0.70653 0.36724 0.0
H642 H 0.59548 0.79337 0.34227 0.0
H643 H 0.59576 0.90503 0.33558 0.0
H644 H 0.61274 0.02962 0.38866 0.0
H645 H 0.61253 0.9432 0.41407 0.0
C646 C 0.60709 0.8236 0.40372 0.0
C647 C 0.60662 0.76319 0.39579 0.0
C648 C 0.60498 0.87368 0.38944 0.0
C649 C 0.60247 0.75294 0.37358 0.0
C650 C 0.59869 0.80246 0.35936 0.0
C651 C 0.599 0.91306 0.35275 0.0
C652 C 0.60394 0.97324 0.36038 0.0
C653 C 0.60042 0.86304 0.36707 0.0
C654 C 0.60886 0.98343 0.38254 0.0
C655 C 0.60873 0.93414 0.39702 0.0
H656 H 0.41793 0.22287 0.14567 0.0
H657 H 0.30209 0.23727 0.14869 0.0
H658 H 0.2959 0.14286 0.12739 0.0
H659 H 0.32388 0.05685 0.10743 0.0
H660 H 0.43998 0.04159 0.10636 0.0
H661 H 0.44559 0.13543 0.1275 0.0
C662 C 0.39132 0.20545 0.1416 0.0
C663 C 0.36052 0.23715 0.14849 0.0
C664 C 0.38804 0.15084 0.12978 0.0
C665 C 0.3262 0.21362 0.14345 0.0
C666 C 0.32266 0.15971 0.13129 0.0
C667 C 0.35035 0.07402 0.11194 0.0
C668 C 0.38145 0.04245 0.10528 0.0
C669 C 0.35344 0.12797 0.12432 0.0
C670 C 0.4156 0.06495 0.11132 0.0
C671 C 0.41888 0.11876 0.12334 0.0
H672 H 0.42992 0.55739 0.14206 0.0
H673 H 0.31382 0.54224 0.14272 0.0
H674 H 0.30829 0.63648 0.12169 0.0
H675 H 0.33598 0.72404 0.10365 0.0
H676 H 0.45181 0.73821 0.10074 0.0
H677 H 0.45799 0.64364 0.12214 0.0
C678 C 0.40348 0.5747 0.13749 0.0
C679 C 0.37234 0.543 0.14399 0.0
C680 C 0.40044 0.62883 0.12511 0.0
C681 C 0.33823 0.56566 0.13787 0.0
C682 C 0.33499 0.6197 0.12591 0.0
C683 C 0.36259 0.70655 0.10777 0.0
C684 C 0.39339 0.7382 0.10089 0.0
C685 C 0.36586 0.65182 0.11958 0.0
C686 C 0.42771 0.71456 0.10598 0.0
C687 C 0.43123 0.66058 0.11819 0.0
H688 H 0.41827 0.71357 0.65261 0.0
H689 H 0.30219 0.7231 0.65499 0.0
H690 H 0.2977 0.62915 0.63332 0.0
H691 H 0.32717 0.54466 0.61338 0.0
H692 H 0.44345 0.53417 0.6128 0.0
H693 H 0.44745 0.62787 0.63419 0.0
C694 C 0.39197 0.69519 0.64833 0.0
C695 C 0.36061 0.72538 0.65519 0.0
C696 C 0.38966 0.64083 0.63627 0.0
C697 C 0.32672 0.70063 0.64981 0.0
C698 C 0.32416 0.64698 0.63744 0.0
C699 C 0.35333 0.56286 0.61803 0.0
C700 C 0.38495 0.53261 0.61147 0.0
C701 C 0.35548 0.61668 0.63055 0.0
C702 C 0.41869 0.55648 0.61768 0.0
C703 C 0.42104 0.61019 0.62986 0.0
H704 H 0.33846 0.20913 0.60825 0.0
H705 H 0.45413 0.22869 0.61044 0.0
H706 H 0.45913 0.13523 0.63252 0.0
H707 H 0.43001 0.04837 0.65165 0.0
H708 H 0.31438 0.0277 0.64718 0.0
H709 H 0.31 0.12086 0.62548 0.0
C710 C 0.36477 0.19302 0.61362 0.0
C711 C 0.39584 0.22594 0.60796 0.0
C712 C 0.36743 0.13889 0.62584 0.0
C713 C 0.42981 0.20407 0.61468 0.0
C714 C 0.43265 0.15072 0.6273 0.0
C715 C 0.40394 0.06427 0.64583 0.0
C716 C 0.37257 0.03128 0.65109 0.0
C717 C 0.40159 0.11777 0.63304 0.0
C718 C 0.33896 0.05211 0.64333 0.0
C719 C 0.33637 0.10554 0.63097 0.0
loop_
_geom_bond_atom_site_label_1
_geom_bond_atom_site_label_2
_geom_bond_distance
_geom_bond_site_symmetry_2
_ccdc_geom_bond_type
In0 O1 2.294 . S
In0 O2 2.326 . S
In0 O6 2.266 . S
In0 O7 2.326 . S
In0 O8 2.266 . S
In0 O9 2.326 . S
In0 O11 2.294 . S
In0 O12 2.326 . S
O1 In0 2.294 . S
O1 C10 1.240 . S
O2 In0 2.326 . S
O2 C10 1.252 . S
C3 O6 1.252 . S
C3 O7 1.260 . S
C4 O11 1.240 . S
C4 O12 1.252 . S
C5 O8 1.252 . S
C5 O9 1.260 . S
O6 In0 2.266 . S
O6 C3 1.252 . S
O7 In0 2.326 . S
O7 C3 1.260 . S
O8 In0 2.266 . S
O8 C5 1.252 . S
O9 In0 2.326 . S
O9 C5 1.260 . S
C10 O1 1.240 . S
C10 O2 1.252 . S
O11 In0 2.294 . S
O11 C4 1.240 . S
O12 In0 2.326 . S
O12 C4 1.252 . S
In13 O14 2.294 . S
In13 O15 2.326 . S
In13 O19 2.266 . S
In13 O20 2.326 . S
In13 O21 2.266 . S
In13 O22 2.326 . S
In13 O24 2.294 . S
In13 O25 2.326 . S
O14 In13 2.294 . S
O14 C23 1.240 . S
O15 In13 2.326 . S
O15 C23 1.252 . S
C16 O19 1.252 . S
C16 O20 1.260 . S
C17 O24 1.240 . S
C17 O25 1.252 . S
C18 O21 1.252 . S
C18 O22 1.260 . S
O19 In13 2.266 . S
O19 C16 1.252 . S
O20 In13 2.326 . S
O20 C16 1.260 . S
O21 In13 2.266 . S
O21 C18 1.252 . S
O22 In13 2.326 . S
O22 C18 1.260 . S
C23 O14 1.240 . S
C23 O15 1.252 . S
O24 In13 2.294 . S
O24 C17 1.240 . S
O25 In13 2.326 . S
O25 C17 1.252 . S
In26 O27 2.294 . S
In26 O28 2.326 . S
In26 O32 2.266 . S
In26 O33 2.326 . S
In26 O34 2.266 . S
In26 O35 2.326 . S
In26 O37 2.294 . S
In26 O38 2.326 . S
O27 In26 2.294 . S
O27 C36 1.240 . S
O28 In26 2.326 . S
O28 C36 1.252 . S
C29 O32 1.252 . S
C29 O33 1.260 . S
C30 O37 1.240 . S
C30 O38 1.252 . S
C31 O34 1.252 . S
C31 O35 1.260 . S
O32 In26 2.266 . S
O32 C29 1.252 . S
O33 In26 2.326 . S
O33 C29 1.260 . S
O34 In26 2.266 . S
O34 C31 1.252 . S
O35 In26 2.326 . S
O35 C31 1.260 . S
C36 O27 1.240 . S
C36 O28 1.252 . S
O37 In26 2.294 . S
O37 C30 1.240 . S
O38 In26 2.326 . S
O38 C30 1.252 . S
In39 O40 2.294 . S
In39 O41 2.326 . S
In39 O45 2.266 . S
In39 O46 2.326 . S
In39 O47 2.266 . S
In39 O48 2.326 . S
In39 O50 2.294 . S
In39 O51 2.326 . S
O40 In39 2.294 . S
O40 C49 1.240 . S
O41 In39 2.326 . S
O41 C49 1.252 . S
C42 O45 1.252 . S
C42 O46 1.260 . S
C43 O50 1.240 . S
C43 O51 1.252 . S
C44 O47 1.252 . S
C44 O48 1.260 . S
O45 In39 2.266 . S
O45 C42 1.252 . S
O46 In39 2.326 . S
O46 C42 1.260 . S
O47 In39 2.266 . S
O47 C44 1.252 . S
O48 In39 2.326 . S
O48 C44 1.260 . S
C49 O40 1.240 . S
C49 O41 1.252 . S
O50 In39 2.294 . S
O50 C43 1.240 . S
O51 In39 2.326 . S
O51 C43 1.252 . S
In52 O53 2.294 . S
In52 O54 2.326 . S
In52 O58 2.266 . S
In52 O59 2.326 . S
In52 O60 2.266 . S
In52 O61 2.326 . S
In52 O63 2.294 . S
In52 O64 2.326 . S
O53 In52 2.294 . S
O53 C62 1.240 . S
O54 In52 2.326 . S
O54 C62 1.252 . S
C55 O58 1.252 . S
C55 O59 1.260 . S
C56 O63 1.240 . S
C56 O64 1.252 . S
C57 O60 1.252 . S
C57 O61 1.260 . S
O58 In52 2.266 . S
O58 C55 1.252 . S
O59 In52 2.326 . S
O59 C55 1.260 . S
O60 In52 2.266 . S
O60 C57 1.252 . S
O61 In52 2.326 . S
O61 C57 1.260 . S
C62 O53 1.240 . S
C62 O54 1.252 . S
O63 In52 2.294 . S
O63 C56 1.240 . S
O64 In52 2.326 . S
O64 C56 1.252 . S
In65 O66 2.294 . S
In65 O67 2.326 . S
In65 O71 2.266 . S
In65 O72 2.326 . S
In65 O73 2.266 . S
In65 O74 2.326 . S
In65 O76 2.294 . S
In65 O77 2.326 . S
O66 In65 2.294 . S
O66 C75 1.240 . S
O67 In65 2.326 . S
O67 C75 1.252 . S
C68 O71 1.252 . S
C68 O72 1.260 . S
C69 O76 1.240 . S
C69 O77 1.252 . S
C70 O73 1.252 . S
C70 O74 1.260 . S
O71 In65 2.266 . S
O71 C68 1.252 . S
O72 In65 2.326 . S
O72 C68 1.260 . S
O73 In65 2.266 . S
O73 C70 1.252 . S
O74 In65 2.326 . S
O74 C70 1.260 . S
C75 O66 1.240 . S
C75 O67 1.252 . S
O76 In65 2.294 . S
O76 C69 1.240 . S
O77 In65 2.326 . S
O77 C69 1.252 . S
In78 O79 2.294 . S
In78 O80 2.326 . S
In78 O84 2.266 . S
In78 O85 2.326 . S
In78 O86 2.266 . S
In78 O87 2.326 . S
In78 O89 2.294 . S
In78 O90 2.326 . S
O79 In78 2.294 . S
O79 C88 1.240 . S
O80 In78 2.326 . S
O80 C88 1.252 . S
C81 O84 1.252 . S
C81 O85 1.260 . S
C82 O89 1.240 . S
C82 O90 1.252 . S
C83 O86 1.252 . S
C83 O87 1.260 . S
O84 In78 2.266 . S
O84 C81 1.252 . S
O85 In78 2.326 . S
O85 C81 1.260 . S
O86 In78 2.266 . S
O86 C83 1.252 . S
O87 In78 2.326 . S
O87 C83 1.260 . S
C88 O79 1.240 . S
C88 O80 1.252 . S
O89 In78 2.294 . S
O89 C82 1.240 . S
O90 In78 2.326 . S
O90 C82 1.252 . S
In91 O92 2.294 . S
In91 O93 2.326 . S
In91 O97 2.266 . S
In91 O98 2.326 . S
In91 O99 2.266 . S
In91 O100 2.326 . S
In91 O102 2.294 . S
In91 O103 2.326 . S
O92 In91 2.294 . S
O92 C101 1.240 . S
O93 In91 2.326 . S
O93 C101 1.252 . S
C94 O97 1.252 . S
C94 O98 1.260 . S
C95 O102 1.240 . S
C95 O103 1.252 . S
C96 O99 1.252 . S
C96 O100 1.260 . S
O97 In91 2.266 . S
O97 C94 1.252 . S
O98 In91 2.326 . S
O98 C94 1.260 . S
O99 In91 2.266 . S
O99 C96 1.252 . S
O100 In91 2.326 . S
O100 C96 1.260 . S
C101 O92 1.240 . S
C101 O93 1.252 . S
O102 In91 2.294 . S
O102 C95 1.240 . S
O103 In91 2.326 . S
O103 C95 1.252 . S
In104 O105 2.294 . S
In104 O106 2.326 . S
In104 O110 2.266 . S
In104 O111 2.326 . S
In104 O112 2.266 . S
In104 O113 2.326 . S
In104 O115 2.294 . S
In104 O116 2.326 . S
O105 In104 2.294 . S
O105 C114 1.240 . S
O106 In104 2.326 . S
O106 C114 1.252 . S
C107 O110 1.252 . S
C107 O111 1.260 . S
C108 O115 1.240 . S
C108 O116 1.252 . S
C109 O112 1.252 . S
C109 O113 1.260 . S
O110 In104 2.266 . S
O110 C107 1.252 . S
O111 In104 2.326 . S
O111 C107 1.260 . S
O112 In104 2.266 . S
O112 C109 1.252 . S
O113 In104 2.326 . S
O113 C109 1.260 . S
C114 O105 1.240 . S
C114 O106 1.252 . S
O115 In104 2.294 . S
O115 C108 1.240 . S
O116 In104 2.326 . S
O116 C108 1.252 . S
In117 O118 2.294 . S
In117 O119 2.326 . S
In117 O123 2.266 . S
In117 O124 2.326 . S
In117 O125 2.266 . S
In117 O126 2.326 . S
In117 O128 2.294 . S
In117 O129 2.326 . S
O118 In117 2.294 . S
O118 C127 1.240 . S
O119 In117 2.326 . S
O119 C127 1.252 . S
C120 O123 1.252 . S
C120 O124 1.260 . S
C121 O128 1.240 . S
C121 O129 1.252 . S
C122 O125 1.252 . S
C122 O126 1.260 . S
O123 In117 2.266 . S
O123 C120 1.252 . S
O124 In117 2.326 . S
O124 C120 1.260 . S
O125 In117 2.266 . S
O125 C122 1.252 . S
O126 In117 2.326 . S
O126 C122 1.260 . S
C127 O118 1.240 . S
C127 O119 1.252 . S
O128 In117 2.294 . S
O128 C121 1.240 . S
O129 In117 2.326 . S
O129 C121 1.252 . S
In130 O131 2.294 . S
In130 O132 2.326 . S
In130 O136 2.266 . S
In130 O137 2.326 . S
In130 O138 2.266 . S
In130 O139 2.326 . S
In130 O141 2.294 . S
In130 O142 2.326 . S
O131 In130 2.294 . S
O131 C140 1.240 . S
O132 In130 2.326 . S
O132 C140 1.252 . S
C133 O136 1.252 . S
C133 O137 1.260 . S
C134 O141 1.240 . S
C134 O142 1.252 . S
C135 O138 1.252 . S
C135 O139 1.260 . S
O136 In130 2.266 . S
O136 C133 1.252 . S
O137 In130 2.326 . S
O137 C133 1.260 . S
O138 In130 2.266 . S
O138 C135 1.252 . S
O139 In130 2.326 . S
O139 C135 1.260 . S
C140 O131 1.240 . S
C140 O132 1.252 . S
O141 In130 2.294 . S
O141 C134 1.240 . S
O142 In130 2.326 . S
O142 C134 1.252 . S
In143 O144 2.294 . S
In143 O145 2.326 . S
In143 O149 2.266 . S
In143 O150 2.326 . S
In143 O151 2.266 . S
In143 O152 2.326 . S
In143 O154 2.294 . S
In143 O155 2.326 . S
O144 In143 2.294 . S
O144 C153 1.240 . S
O145 In143 2.326 . S
O145 C153 1.252 . S
C146 O149 1.252 . S
C146 O150 1.260 . S
C147 O154 1.240 . S
C147 O155 1.252 . S
C148 O151 1.252 . S
C148 O152 1.260 . S
O149 In143 2.266 . S
O149 C146 1.252 . S
O150 In143 2.326 . S
O150 C146 1.260 . S
O151 In143 2.266 . S
O151 C148 1.252 . S
O152 In143 2.326 . S
O152 C148 1.260 . S
C153 O144 1.240 . S
C153 O145 1.252 . S
O154 In143 2.294 . S
O154 C147 1.240 . S
O155 In143 2.326 . S
O155 C147 1.252 . S
In156 O157 2.294 . S
In156 O158 2.326 . S
In156 O162 2.266 . S
In156 O163 2.326 . S
In156 O164 2.266 . S
In156 O165 2.326 . S
In156 O167 2.294 . S
In156 O168 2.326 . S
O157 In156 2.294 . S
O157 C166 1.240 . S
O158 In156 2.326 . S
O158 C166 1.252 . S
C159 O162 1.252 . S
C159 O163 1.260 . S
C160 O167 1.240 . S
C160 O168 1.252 . S
C161 O164 1.252 . S
C161 O165 1.260 . S
O162 In156 2.266 . S
O162 C159 1.252 . S
O163 In156 2.326 . S
O163 C159 1.260 . S
O164 In156 2.266 . S
O164 C161 1.252 . S
O165 In156 2.326 . S
O165 C161 1.260 . S
C166 O157 1.240 . S
C166 O158 1.252 . S
O167 In156 2.294 . S
O167 C160 1.240 . S
O168 In156 2.326 . S
O168 C160 1.252 . S
In169 O170 2.294 . S
In169 O171 2.326 . S
In169 O175 2.266 . S
In169 O176 2.326 . S
In169 O177 2.266 . S
In169 O178 2.326 . S
In169 O180 2.294 . S
In169 O181 2.326 . S
O170 In169 2.294 . S
O170 C179 1.240 . S
O171 In169 2.326 . S
O171 C179 1.252 . S
C172 O175 1.252 . S
C172 O176 1.260 . S
C173 O180 1.240 . S
C173 O181 1.252 . S
C174 O177 1.252 . S
C174 O178 1.260 . S
O175 In169 2.266 . S
O175 C172 1.252 . S
O176 In169 2.326 . S
O176 C172 1.260 . S
O177 In169 2.266 . S
O177 C174 1.252 . S
O178 In169 2.326 . S
O178 C174 1.260 . S
C179 O170 1.240 . S
C179 O171 1.252 . S
O180 In169 2.294 . S
O180 C173 1.240 . S
O181 In169 2.326 . S
O181 C173 1.252 . S
In182 O183 2.294 . S
In182 O184 2.326 . S
In182 O188 2.266 . S
In182 O189 2.326 . S
In182 O190 2.266 . S
In182 O191 2.326 . S
In182 O193 2.294 . S
In182 O194 2.326 . S
O183 In182 2.294 . S
O183 C192 1.240 . S
O184 In182 2.326 . S
O184 C192 1.252 . S
C185 O188 1.252 . S
C185 O189 1.260 . S
C186 O193 1.240 . S
C186 O194 1.252 . S
C187 O190 1.252 . S
C187 O191 1.260 . S
O188 In182 2.266 . S
O188 C185 1.252 . S
O189 In182 2.326 . S
O189 C185 1.260 . S
O190 In182 2.266 . S
O190 C187 1.252 . S
O191 In182 2.326 . S
O191 C187 1.260 . S
C192 O183 1.240 . S
C192 O184 1.252 . S
O193 In182 2.294 . S
O193 C186 1.240 . S
O194 In182 2.326 . S
O194 C186 1.252 . S
In195 O196 2.294 . S
In195 O197 2.326 . S
In195 O201 2.266 . S
In195 O202 2.326 . S
In195 O203 2.266 . S
In195 O204 2.326 . S
In195 O206 2.294 . S
In195 O207 2.326 . S
O196 In195 2.294 . S
O196 C205 1.240 . S
O197 In195 2.326 . S
O197 C205 1.252 . S
C198 O201 1.252 . S
C198 O202 1.260 . S
C199 O206 1.240 . S
C199 O207 1.252 . S
C200 O203 1.252 . S
C200 O204 1.260 . S
O201 In195 2.266 . S
O201 C198 1.252 . S
O202 In195 2.326 . S
O202 C198 1.260 . S
O203 In195 2.266 . S
O203 C200 1.252 . S
O204 In195 2.326 . S
O204 C200 1.260 . S
C205 O196 1.240 . S
C205 O197 1.252 . S
O206 In195 2.294 . S
O206 C199 1.240 . S
O207 In195 2.326 . S
O207 C199 1.252 . S
H208 C214 0.930 . S
H209 C217 0.930 . S
H210 C218 0.930 . S
H211 C219 0.930 . S
H212 C222 0.930 . S
H213 C223 0.930 . S
C214 H208 0.930 . S
C214 C215 1.355 . S
C214 C216 1.415 . S
C215 C214 1.355 . S
C215 C217 1.419 . S
C216 C214 1.415 . S
C216 C221 1.425 . S
C216 C223 1.409 . S
C217 H209 0.930 . S
C217 C215 1.419 . S
C217 C218 1.362 . S
C218 H210 0.930 . S
C218 C217 1.362 . S
C218 C221 1.409 . S
C219 H211 0.930 . S
C219 C220 1.355 . S
C219 C221 1.415 . S
C220 C219 1.355 . S
C220 C222 1.419 . S
C221 C216 1.425 . S
C221 C218 1.409 . S
C221 C219 1.415 . S
C222 H212 0.930 . S
C222 C220 1.419 . S
C222 C223 1.362 . S
C223 H213 0.930 . S
C223 C216 1.409 . S
C223 C222 1.362 . S
H224 C230 0.930 . S
H225 C233 0.930 . S
H226 C234 0.930 . S
H227 C235 0.930 . S
H228 C238 0.930 . S
H229 C239 0.930 . S
C230 H224 0.930 . S
C230 C231 1.355 . S
C230 C232 1.415 1_655 S
C231 C230 1.355 . S
C231 C233 1.419 1_565 S
C232 C230 1.415 1_455 S
C232 C237 1.425 1_465 S
C232 C239 1.409 . S
C233 H225 0.930 . S
C233 C231 1.419 1_545 S
C233 C234 1.362 . S
C234 H226 0.930 . S
C234 C233 1.362 . S
C234 C237 1.409 . S
C235 H227 0.930 . S
C235 C236 1.355 . S
C235 C237 1.415 1_455 S
C236 C235 1.355 . S
C236 C238 1.419 1_545 S
C237 C232 1.425 1_645 S
C237 C234 1.409 . S
C237 C235 1.415 1_655 S
C238 H228 0.930 . S
C238 C236 1.419 1_565 S
C238 C239 1.362 . S
C239 H229 0.930 . S
C239 C232 1.409 . S
C239 C238 1.362 . S
H240 C246 0.930 . S
H241 C249 0.930 . S
H242 C250 0.930 . S
H243 C251 0.930 . S
H244 C254 0.930 . S
H245 C255 0.930 . S
C246 H240 0.930 . S
C246 C247 1.355 . S
C246 C248 1.415 . S
C247 C246 1.355 . S
C247 C249 1.419 1_565 S
C248 C246 1.415 . S
C248 C253 1.425 1_565 S
C248 C255 1.409 . S
C249 H241 0.930 . S
C249 C247 1.419 1_545 S
C249 C250 1.362 . S
C250 H242 0.930 . S
C250 C249 1.362 . S
C250 C253 1.409 . S
C251 H243 0.930 . S
C251 C252 1.355 . S
C251 C253 1.415 . S
C252 C251 1.355 . S
C252 C254 1.419 1_545 S
C253 C248 1.425 1_545 S
C253 C250 1.409 . S
C253 C251 1.415 . S
C254 H244 0.930 . S
C254 C252 1.419 1_565 S
C254 C255 1.362 . S
C255 H245 0.930 . S
C255 C248 1.409 . S
C255 C254 1.362 . S
H256 C262 0.930 . S
H257 C265 0.930 . S
H258 C266 0.930 . S
H259 C267 0.930 . S
H260 C270 0.930 . S
H261 C271 0.930 . S
C262 H256 0.930 . S
C262 C263 1.355 . S
C262 C264 1.415 . S
C263 C262 1.355 . S
C263 C265 1.419 . S
C264 C262 1.415 . S
C264 C269 1.425 1_455 S
C264 C271 1.409 . S
C265 H257 0.930 . S
C265 C263 1.419 . S
C265 C266 1.362 1_455 S
C266 H258 0.930 . S
C266 C265 1.362 1_655 S
C266 C269 1.409 . S
C267 H259 0.930 . S
C267 C268 1.355 . S
C267 C269 1.415 . S
C268 C267 1.355 . S
C268 C270 1.419 . S
C269 C264 1.425 1_655 S
C269 C266 1.409 . S
C269 C267 1.415 . S
C270 H260 0.930 . S
C270 C268 1.419 . S
C270 C271 1.362 1_655 S
C271 H261 0.930 . S
C271 C264 1.409 . S
C271 C270 1.362 1_455 S
H272 C278 0.930 . S
H273 C281 0.930 . S
H274 C282 0.930 . S
H275 C283 0.930 . S
H276 C286 0.930 . S
H277 C287 0.930 . S
C278 H272 0.930 . S
C278 C279 1.355 . S
C278 C280 1.415 . S
C279 C278 1.355 . S
C279 C281 1.419 . S
C280 C278 1.415 . S
C280 C285 1.425 . S
C280 C287 1.409 . S
C281 H273 0.930 . S
C281 C279 1.419 . S
C281 C282 1.362 . S
C282 H274 0.930 . S
C282 C281 1.362 . S
C282 C285 1.409 . S
C283 H275 0.930 . S
C283 C284 1.355 . S
C283 C285 1.415 . S
C284 C283 1.355 . S
C284 C286 1.419 . S
C285 C280 1.425 . S
C285 C282 1.409 . S
C285 C283 1.415 . S
C286 H276 0.930 . S
C286 C284 1.419 . S
C286 C287 1.362 . S
C287 H277 0.930 . S
C287 C280 1.409 . S
C287 C286 1.362 . S
H288 C294 0.930 . S
H289 C297 0.930 . S
H290 C298 0.930 . S
H291 C299 0.930 . S
H292 C302 0.930 . S
H293 C303 0.930 . S
C294 H288 0.930 . S
C294 C295 1.355 . S
C294 C296 1.415 . S
C295 C294 1.355 . S
C295 C297 1.419 1_545 S
C296 C294 1.415 . S
C296 C301 1.425 1_545 S
C296 C303 1.409 . S
C297 H289 0.930 . S
C297 C295 1.419 1_565 S
C297 C298 1.362 . S
C298 H290 0.930 . S
C298 C297 1.362 . S
C298 C301 1.409 . S
C299 H291 0.930 . S
C299 C300 1.355 . S
C299 C301 1.415 . S
C300 C299 1.355 . S
C300 C302 1.419 1_565 S
C301 C296 1.425 1_565 S
C301 C298 1.409 . S
C301 C299 1.415 . S
C302 H292 0.930 . S
C302 C300 1.419 1_545 S
C302 C303 1.362 . S
C303 H293 0.930 . S
C303 C296 1.409 . S
C303 C302 1.362 . S
H304 C310 0.930 . S
H305 C313 0.930 . S
H306 C314 0.930 . S
H307 C315 0.930 . S
H308 C318 0.930 . S
H309 C319 0.930 . S
C310 H304 0.930 . S
C310 C311 1.355 . S
C310 C312 1.415 1_655 S
C311 C310 1.355 . S
C311 C313 1.419 . S
C312 C310 1.415 1_455 S
C312 C317 1.425 1_455 S
C312 C319 1.409 . S
C313 H305 0.930 . S
C313 C311 1.419 . S
C313 C314 1.362 . S
C314 H306 0.930 . S
C314 C313 1.362 . S
C314 C317 1.409 . S
C315 H307 0.930 . S
C315 C316 1.355 . S
C315 C317 1.415 1_455 S
C316 C315 1.355 . S
C316 C318 1.419 . S
C317 C312 1.425 1_655 S
C317 C314 1.409 . S
C317 C315 1.415 1_655 S
C318 H308 0.930 . S
C318 C316 1.419 . S
C318 C319 1.362 . S
C319 H309 0.930 . S
C319 C312 1.409 . S
C319 C318 1.362 . S
H320 C326 0.930 . S
H321 C329 0.930 . S
H322 C330 0.930 . S
H323 C331 0.930 . S
H324 C334 0.930 . S
H325 C335 0.930 . S
C326 H320 0.930 . S
C326 C327 1.355 . S
C326 C328 1.415 . S
C327 C326 1.355 . S
C327 C329 1.419 . S
C328 C326 1.415 . S
C328 C333 1.425 1_554 S
C328 C335 1.409 . S
C329 H321 0.930 . S
C329 C327 1.419 . S
C329 C330 1.362 1_554 S
C330 H322 0.930 . S
C330 C329 1.362 1_556 S
C330 C333 1.409 . S
C331 H323 0.930 . S
C331 C332 1.355 . S
C331 C333 1.415 . S
C332 C331 1.355 . S
C332 C334 1.419 . S
C333 C328 1.425 1_556 S
C333 C330 1.409 . S
C333 C331 1.415 . S
C334 H324 0.930 . S
C334 C332 1.419 . S
C334 C335 1.362 1_556 S
C335 H325 0.930 . S
C335 C328 1.409 . S
C335 C334 1.362 1_554 S
H336 C342 0.930 1_554 S
H337 C345 0.930 . S
H338 C346 0.930 . S
H339 C347 0.930 1_556 S
H340 C350 0.930 . S
H341 C351 0.930 . S
C342 H336 0.930 1_556 S
C342 C343 1.355 . S
C342 C344 1.415 1_556 S
C343 C342 1.355 . S
C343 C345 1.419 . S
C344 C342 1.415 1_554 S
C344 C349 1.425 1_454 S
C344 C351 1.409 . S
C345 H337 0.930 . S
C345 C343 1.419 . S
C345 C346 1.362 1_455 S
C346 H338 0.930 . S
C346 C345 1.362 1_655 S
C346 C349 1.409 . S
C347 H339 0.930 1_554 S
C347 C348 1.355 . S
C347 C349 1.415 1_554 S
C348 C347 1.355 . S
C348 C350 1.419 . S
C349 C344 1.425 1_656 S
C349 C346 1.409 . S
C349 C347 1.415 1_556 S
C350 H340 0.930 . S
C350 C348 1.419 . S
C350 C351 1.362 1_655 S
C351 H341 0.930 . S
C351 C344 1.409 . S
C351 C350 1.362 1_455 S
H352 C358 0.930 . S
H353 C361 0.930 . S
H354 C362 0.930 . S
H355 C363 0.930 . S
H356 C366 0.930 . S
H357 C367 0.930 . S
C358 H352 0.930 . S
C358 C359 1.355 . S
C358 C360 1.415 . S
C359 C358 1.355 . S
C359 C361 1.419 . S
C360 C358 1.415 . S
C360 C365 1.425 . S
C360 C367 1.409 . S
C361 H353 0.930 . S
C361 C359 1.419 . S
C361 C362 1.362 . S
C362 H354 0.930 . S
C362 C361 1.362 . S
C362 C365 1.409 . S
C363 H355 0.930 . S
C363 C364 1.355 . S
C363 C365 1.415 . S
C364 C363 1.355 . S
C364 C366 1.419 . S
C365 C360 1.425 . S
C365 C362 1.409 . S
C365 C363 1.415 . S
C366 H356 0.930 . S
C366 C364 1.419 . S
C366 C367 1.362 . S
C367 H357 0.930 . S
C367 C360 1.409 . S
C367 C366 1.362 . S
H368 C374 0.930 . S
H369 C377 0.927 1_554 S
H370 C378 0.930 . S
H371 C379 0.930 . S
H372 C382 0.927 1_556 S
H373 C383 0.930 . S
C374 H368 0.930 . S
C374 C375 1.355 . S
C374 C376 1.415 . S
C375 C374 1.355 . S
C375 C377 1.432 . S
C376 C374 1.415 . S
C376 C381 1.425 1_556 S
C376 C383 1.409 . S
C377 H369 0.927 1_556 S
C377 C375 1.432 . S
C377 C378 1.353 1_556 S
C378 H370 0.930 . S
C378 C377 1.353 1_554 S
C378 C381 1.409 . S
C379 H371 0.930 . S
C379 C380 1.355 . S
C379 C381 1.415 . S
C380 C379 1.355 . S
C380 C382 1.432 . S
C381 C376 1.425 1_554 S
C381 C378 1.409 . S
C381 C379 1.415 . S
C382 H372 0.927 1_554 S
C382 C380 1.432 . S
C382 C383 1.353 1_554 S
C383 H373 0.930 . S
C383 C376 1.409 . S
C383 C382 1.353 1_556 S
H384 C390 0.930 . S
H385 C393 0.930 . S
H386 C394 0.930 . S
H387 C395 0.930 . S
H388 C398 0.930 . S
H389 C399 0.930 . S
C390 H384 0.930 . S
C390 C391 1.355 . S
C390 C392 1.415 . S
C391 C390 1.355 . S
C391 C393 1.419 . S
C392 C390 1.415 . S
C392 C397 1.425 . S
C392 C399 1.409 . S
C393 H385 0.930 . S
C393 C391 1.419 . S
C393 C394 1.362 . S
C394 H386 0.930 . S
C394 C393 1.362 . S
C394 C397 1.409 . S
C395 H387 0.930 . S
C395 C396 1.355 . S
C395 C397 1.415 . S
C396 C395 1.355 . S
C396 C398 1.419 . S
C397 C392 1.425 . S
C397 C394 1.409 . S
C397 C395 1.415 . S
C398 H388 0.930 . S
C398 C396 1.419 . S
C398 C399 1.362 . S
C399 H389 0.930 . S
C399 C392 1.409 . S
C399 C398 1.362 . S
H400 C406 0.930 . S
H401 C409 0.930 . S
H402 C410 0.930 . S
H403 C411 0.930 . S
H404 C414 0.930 . S
H405 C415 0.930 . S
C406 H400 0.930 . S
C406 C407 1.355 . S
C406 C408 1.415 . S
C407 C406 1.355 . S
C407 C409 1.419 . S
C408 C406 1.415 . S
C408 C413 1.425 1_546 S
C408 C415 1.409 . S
C409 H401 0.930 . S
C409 C407 1.419 . S
C409 C410 1.362 1_546 S
C410 H402 0.930 . S
C410 C409 1.362 1_564 S
C410 C413 1.409 . S
C411 H403 0.930 . S
C411 C412 1.355 . S
C411 C413 1.415 . S
C412 C411 1.355 . S
C412 C414 1.419 . S
C413 C408 1.425 1_564 S
C413 C410 1.409 . S
C413 C411 1.415 . S
C414 H404 0.930 . S
C414 C412 1.419 . S
C414 C415 1.362 1_564 S
C415 H405 0.930 . S
C415 C408 1.409 . S
C415 C414 1.362 1_546 S
H416 C422 0.930 . S
H417 C425 0.930 . S
H418 C426 0.930 . S
H419 C427 0.930 . S
H420 C430 0.930 . S
H421 C431 0.930 . S
C422 H416 0.930 . S
C422 C423 1.355 . S
C422 C424 1.415 . S
C423 C422 1.355 . S
C423 C425 1.419 . S
C424 C422 1.415 . S
C424 C429 1.425 . S
C424 C431 1.409 . S
C425 H417 0.930 . S
C425 C423 1.419 . S
C425 C426 1.362 . S
C426 H418 0.930 . S
C426 C425 1.362 . S
C426 C429 1.409 . S
C427 H419 0.930 . S
C427 C428 1.355 . S
C427 C429 1.415 . S
C428 C427 1.355 . S
C428 C430 1.419 . S
C429 C424 1.425 . S
C429 C426 1.409 . S
C429 C427 1.415 . S
C430 H420 0.930 . S
C430 C428 1.419 . S
C430 C431 1.362 . S
C431 H421 0.930 . S
C431 C424 1.409 . S
C431 C430 1.362 . S
H432 C438 0.930 . S
H433 C441 0.930 . S
H434 C442 0.930 . S
H435 C443 0.930 . S
H436 C446 0.930 . S
H437 C447 0.930 . S
C438 H432 0.930 . S
C438 C439 1.355 . S
C438 C440 1.415 . S
C439 C438 1.355 . S
C439 C441 1.419 . S
C440 C438 1.415 . S
C440 C445 1.425 . S
C440 C447 1.409 . S
C441 H433 0.930 . S
C441 C439 1.419 . S
C441 C442 1.362 . S
C442 H434 0.930 . S
C442 C441 1.362 . S
C442 C445 1.409 . S
C443 H435 0.930 . S
C443 C444 1.355 . S
C443 C445 1.415 . S
C444 C443 1.355 . S
C444 C446 1.419 . S
C445 C440 1.425 . S
C445 C442 1.409 . S
C445 C443 1.415 . S
C446 H436 0.930 . S
C446 C444 1.419 . S
C446 C447 1.362 . S
C447 H437 0.930 . S
C447 C440 1.409 . S
C447 C446 1.362 . S
H448 C454 0.930 . S
H449 C457 0.930 . S
H450 C458 0.930 . S
H451 C459 0.930 . S
H452 C462 0.930 . S
H453 C463 0.930 . S
C454 H448 0.930 . S
C454 C455 1.355 . S
C454 C456 1.415 . S
C455 C454 1.355 . S
C455 C457 1.419 . S
C456 C454 1.415 . S
C456 C461 1.425 . S
C456 C463 1.409 . S
C457 H449 0.930 . S
C457 C455 1.419 . S
C457 C458 1.362 . S
C458 H450 0.930 . S
C458 C457 1.362 . S
C458 C461 1.409 . S
C459 H451 0.930 . S
C459 C460 1.355 . S
C459 C461 1.415 . S
C460 C459 1.355 . S
C460 C462 1.419 . S
C461 C456 1.425 . S
C461 C458 1.409 . S
C461 C459 1.415 . S
C462 H452 0.930 . S
C462 C460 1.419 . S
C462 C463 1.362 . S
C463 H453 0.930 . S
C463 C456 1.409 . S
C463 C462 1.362 . S
H464 C470 0.930 . S
H465 C473 0.930 . S
H466 C474 0.930 . S
H467 C475 0.930 . S
H468 C478 0.930 . S
H469 C479 0.930 . S
C470 H464 0.930 . S
C470 C471 1.355 . S
C470 C472 1.415 . S
C471 C470 1.355 . S
C471 C473 1.419 . S
C472 C470 1.415 . S
C472 C477 1.425 . S
C472 C479 1.409 . S
C473 H465 0.930 . S
C473 C471 1.419 . S
C473 C474 1.362 . S
C474 H466 0.930 . S
C474 C473 1.362 . S
C474 C477 1.409 . S
C475 H467 0.930 . S
C475 C476 1.355 . S
C475 C477 1.415 . S
C476 C475 1.355 . S
C476 C478 1.419 . S
C477 C472 1.425 . S
C477 C474 1.409 . S
C477 C475 1.415 . S
C478 H468 0.930 . S
C478 C476 1.419 . S
C478 C479 1.362 . S
C479 H469 0.930 . S
C479 C472 1.409 . S
C479 C478 1.362 . S
H480 C486 0.930 . S
H481 C489 0.930 . S
H482 C490 0.930 . S
H483 C491 0.930 . S
H484 C494 0.930 . S
H485 C495 0.930 . S
C486 H480 0.930 . S
C486 C487 1.355 . S
C486 C488 1.415 . S
C487 C486 1.355 . S
C487 C489 1.419 . S
C488 C486 1.415 . S
C488 C493 1.425 . S
C488 C495 1.409 . S
C489 H481 0.930 . S
C489 C487 1.419 . S
C489 C490 1.362 . S
C490 H482 0.930 . S
C490 C489 1.362 . S
C490 C493 1.409 . S
C491 H483 0.930 . S
C491 C492 1.355 . S
C491 C493 1.415 . S
C492 C491 1.355 . S
C492 C494 1.419 . S
C493 C488 1.425 . S
C493 C490 1.409 . S
C493 C491 1.415 . S
C494 H484 0.930 . S
C494 C492 1.419 . S
C494 C495 1.362 . S
C495 H485 0.930 . S
C495 C488 1.409 . S
C495 C494 1.362 . S
H496 C502 0.930 . S
H497 C505 0.930 . S
H498 C506 0.930 . S
H499 C507 0.930 . S
H500 C510 0.930 . S
H501 C511 0.930 . S
C502 H496 0.930 . S
C502 C503 1.355 . S
C502 C504 1.415 . S
C503 C502 1.355 . S
C503 C505 1.419 . S
C504 C502 1.415 . S
C504 C509 1.425 . S
C504 C511 1.409 . S
C505 H497 0.930 . S
C505 C503 1.419 . S
C505 C506 1.362 . S
C506 H498 0.930 . S
C506 C505 1.362 . S
C506 C509 1.409 . S
C507 H499 0.930 . S
C507 C508 1.355 . S
C507 C509 1.415 . S
C508 C507 1.355 . S
C508 C510 1.419 . S
C509 C504 1.425 . S
C509 C506 1.409 . S
C509 C507 1.415 . S
C510 H500 0.930 . S
C510 C508 1.419 . S
C510 C511 1.362 . S
C511 H501 0.930 . S
C511 C504 1.409 . S
C511 C510 1.362 . S
H512 C518 0.930 . S
H513 C521 0.930 . S
H514 C522 0.930 . S
H515 C523 0.930 . S
H516 C526 0.930 . S
H517 C527 0.930 . S
C518 H512 0.930 . S
C518 C519 1.355 . S
C518 C520 1.415 . S
C519 C518 1.355 . S
C519 C521 1.419 . S
C520 C518 1.415 . S
C520 C525 1.425 . S
C520 C527 1.409 . S
C521 H513 0.930 . S
C521 C519 1.419 . S
C521 C522 1.362 . S
C522 H514 0.930 . S
C522 C521 1.362 . S
C522 C525 1.409 . S
C523 H515 0.930 . S
C523 C524 1.355 . S
C523 C525 1.415 . S
C524 C523 1.355 . S
C524 C526 1.419 . S
C525 C520 1.425 . S
C525 C522 1.409 . S
C525 C523 1.415 . S
C526 H516 0.930 . S
C526 C524 1.419 . S
C526 C527 1.362 . S
C527 H517 0.930 . S
C527 C520 1.409 . S
C527 C526 1.362 . S
H528 C534 0.930 . S
H529 C537 0.930 . S
H530 C538 0.930 . S
H531 C539 0.930 . S
H532 C542 0.930 1_565 S
H533 C543 0.930 . S
C534 H528 0.930 . S
C534 C535 1.355 . S
C534 C536 1.415 . S
C535 C534 1.355 . S
C535 C537 1.419 . S
C536 C534 1.415 . S
C536 C541 1.425 . S
C536 C543 1.409 . S
C537 H529 0.930 . S
C537 C535 1.419 . S
C537 C538 1.362 . S
C538 H530 0.930 . S
C538 C537 1.362 . S
C538 C541 1.409 . S
C539 H531 0.930 . S
C539 C540 1.355 . S
C539 C541 1.415 . S
C540 C539 1.355 . S
C540 C542 1.419 . S
C541 C536 1.425 . S
C541 C538 1.409 . S
C541 C539 1.415 . S
C542 H532 0.930 1_545 S
C542 C540 1.419 . S
C542 C543 1.362 . S
C543 H533 0.930 . S
C543 C536 1.409 . S
C543 C542 1.362 . S
H544 C550 0.930 . S
H545 C553 0.930 . S
H546 C554 0.930 . S
H547 C555 0.930 . S
H548 C558 0.930 . S
H549 C559 0.930 . S
C550 H544 0.930 . S
C550 C551 1.355 . S
C550 C552 1.415 . S
C551 C550 1.355 . S
C551 C553 1.419 . S
C552 C550 1.415 . S
C552 C557 1.425 . S
C552 C559 1.409 . S
C553 H545 0.930 . S
C553 C551 1.419 . S
C553 C554 1.362 . S
C554 H546 0.930 . S
C554 C553 1.362 . S
C554 C557 1.409 . S
C555 H547 0.930 . S
C555 C556 1.355 . S
C555 C557 1.415 . S
C556 C555 1.355 . S
C556 C558 1.419 . S
C557 C552 1.425 . S
C557 C554 1.409 . S
C557 C555 1.415 . S
C558 H548 0.930 . S
C558 C556 1.419 . S
C558 C559 1.362 . S
C559 H549 0.930 . S
C559 C552 1.409 . S
C559 C558 1.362 . S
H560 C566 0.930 . S
H561 C569 0.930 . S
H562 C570 0.930 . S
H563 C571 0.930 . S
H564 C574 0.930 . S
H565 C575 0.930 . S
C566 H560 0.930 . S
C566 C567 1.355 . S
C566 C568 1.415 . S
C567 C566 1.355 . S
C567 C569 1.419 . S
C568 C566 1.415 . S
C568 C573 1.425 . S
C568 C575 1.409 . S
C569 H561 0.930 . S
C569 C567 1.419 . S
C569 C570 1.362 . S
C570 H562 0.930 . S
C570 C569 1.362 . S
C570 C573 1.409 . S
C571 H563 0.930 . S
C571 C572 1.355 . S
C571 C573 1.415 . S
C572 C571 1.355 . S
C572 C574 1.419 . S
C573 C568 1.425 . S
C573 C570 1.409 . S
C573 C571 1.415 . S
C574 H564 0.930 . S
C574 C572 1.419 . S
C574 C575 1.362 . S
C575 H565 0.930 . S
C575 C568 1.409 . S
C575 C574 1.362 . S
H576 C582 0.930 . S
H577 C585 0.930 . S
H578 C586 0.930 . S
H579 C587 0.930 . S
H580 C590 0.930 . S
H581 C591 0.930 . S
C582 H576 0.930 . S
C582 C583 1.355 . S
C582 C584 1.415 . S
C583 C582 1.355 . S
C583 C585 1.419 . S
C584 C582 1.415 . S
C584 C589 1.425 . S
C584 C591 1.409 . S
C585 H577 0.930 . S
C585 C583 1.419 . S
C585 C586 1.362 . S
C586 H578 0.930 . S
C586 C585 1.362 . S
C586 C589 1.409 . S
C587 H579 0.930 . S
C587 C588 1.355 . S
C587 C589 1.415 . S
C588 C587 1.355 . S
C588 C590 1.419 . S
C589 C584 1.425 . S
C589 C586 1.409 . S
C589 C587 1.415 . S
C590 H580 0.930 . S
C590 C588 1.419 . S
C590 C591 1.362 . S
C591 H581 0.930 . S
C591 C584 1.409 . S
C591 C590 1.362 . S
H592 C598 0.930 . S
H593 C601 0.930 . S
H594 C602 0.930 . S
H595 C603 0.930 . S
H596 C606 0.930 1_545 S
H597 C607 0.930 . S
C598 H592 0.930 . S
C598 C599 1.355 . S
C598 C600 1.415 . S
C599 C598 1.355 . S
C599 C601 1.419 . S
C600 C598 1.415 . S
C600 C605 1.425 . S
C600 C607 1.409 . S
C601 H593 0.930 . S
C601 C599 1.419 . S
C601 C602 1.362 . S
C602 H594 0.930 . S
C602 C601 1.362 . S
C602 C605 1.409 . S
C603 H595 0.930 . S
C603 C604 1.355 . S
C603 C605 1.415 . S
C604 C603 1.355 . S
C604 C606 1.419 . S
C605 C600 1.425 . S
C605 C602 1.409 . S
C605 C603 1.415 . S
C606 H596 0.930 1_565 S
C606 C604 1.419 . S
C606 C607 1.362 . S
C607 H597 0.930 . S
C607 C600 1.409 . S
C607 C606 1.362 . S
H608 C614 0.930 . S
H609 C617 0.930 . S
H610 C618 0.930 . S
H611 C619 0.930 . S
H612 C622 0.930 . S
H613 C623 0.930 . S
C614 H608 0.930 . S
C614 C615 1.355 . S
C614 C616 1.415 . S
C615 C614 1.355 . S
C615 C617 1.419 . S
C616 C614 1.415 . S
C616 C621 1.425 . S
C616 C623 1.409 . S
C617 H609 0.930 . S
C617 C615 1.419 . S
C617 C618 1.362 . S
C618 H610 0.930 . S
C618 C617 1.362 . S
C618 C621 1.409 . S
C619 H611 0.930 . S
C619 C620 1.355 . S
C619 C621 1.415 . S
C620 C619 1.355 . S
C620 C622 1.419 . S
C621 C616 1.425 . S
C621 C618 1.409 . S
C621 C619 1.415 . S
C622 H612 0.930 . S
C622 C620 1.419 . S
C622 C623 1.362 . S
C623 H613 0.930 . S
C623 C616 1.409 . S
C623 C622 1.362 . S
H624 C630 0.930 . S
H625 C633 0.930 . S
H626 C634 0.930 . S
H627 C635 0.930 . S
H628 C638 0.930 . S
H629 C639 0.930 . S
C630 H624 0.930 . S
C630 C631 1.355 . S
C630 C632 1.415 . S
C631 C630 1.355 . S
C631 C633 1.419 . S
C632 C630 1.415 . S
C632 C637 1.425 . S
C632 C639 1.409 . S
C633 H625 0.930 . S
C633 C631 1.419 . S
C633 C634 1.362 . S
C634 H626 0.930 . S
C634 C633 1.362 . S
C634 C637 1.409 . S
C635 H627 0.930 . S
C635 C636 1.355 . S
C635 C637 1.415 . S
C636 C635 1.355 . S
C636 C638 1.419 . S
C637 C632 1.425 . S
C637 C634 1.409 . S
C637 C635 1.415 . S
C638 H628 0.930 . S
C638 C636 1.419 . S
C638 C639 1.362 . S
C639 H629 0.930 . S
C639 C632 1.409 . S
C639 C638 1.362 . S
H640 C646 0.930 . S
H641 C649 0.930 . S
H642 C650 0.930 . S
H643 C651 0.930 . S
H644 C654 0.930 1_545 S
H645 C655 0.930 . S
C646 H640 0.930 . S
C646 C647 1.355 . S
C646 C648 1.415 . S
C647 C646 1.355 . S
C647 C649 1.419 . S
C648 C646 1.415 . S
C648 C653 1.425 . S
C648 C655 1.409 . S
C649 H641 0.930 . S
C649 C647 1.419 . S
C649 C650 1.362 . S
C650 H642 0.930 . S
C650 C649 1.362 . S
C650 C653 1.409 . S
C651 H643 0.930 . S
C651 C652 1.355 . S
C651 C653 1.415 . S
C652 C651 1.355 . S
C652 C654 1.419 . S
C653 C648 1.425 . S
C653 C650 1.409 . S
C653 C651 1.415 . S
C654 H644 0.930 1_565 S
C654 C652 1.419 . S
C654 C655 1.362 . S
C655 H645 0.930 . S
C655 C648 1.409 . S
C655 C654 1.362 . S
H656 C662 0.930 . S
H657 C665 0.930 . S
H658 C666 0.930 . S
H659 C667 0.930 . S
H660 C670 0.930 . S
H661 C671 0.930 . S
C662 H656 0.930 . S
C662 C663 1.355 . S
C662 C664 1.415 . S
C663 C662 1.355 . S
C663 C665 1.419 . S
C664 C662 1.415 . S
C664 C669 1.425 . S
C664 C671 1.409 . S
C665 H657 0.930 . S
C665 C663 1.419 . S
C665 C666 1.362 . S
C666 H658 0.930 . S
C666 C665 1.362 . S
C666 C669 1.409 . S
C667 H659 0.930 . S
C667 C668 1.355 . S
C667 C669 1.415 . S
C668 C667 1.355 . S
C668 C670 1.419 . S
C669 C664 1.425 . S
C669 C666 1.409 . S
C669 C667 1.415 . S
C670 H660 0.930 . S
C670 C668 1.419 . S
C670 C671 1.362 . S
C671 H661 0.930 . S
C671 C664 1.409 . S
C671 C670 1.362 . S
H672 C678 0.930 . S
H673 C681 0.930 . S
H674 C682 0.930 . S
H675 C683 0.930 . S
H676 C686 0.930 . S
H677 C687 0.930 . S
C678 H672 0.930 . S
C678 C679 1.355 . S
C678 C680 1.415 . S
C679 C678 1.355 . S
C679 C681 1.419 . S
C680 C678 1.415 . S
C680 C685 1.425 . S
C680 C687 1.409 . S
C681 H673 0.930 . S
C681 C679 1.419 . S
C681 C682 1.362 . S
C682 H674 0.930 . S
C682 C681 1.362 . S
C682 C685 1.409 . S
C683 H675 0.930 . S
C683 C684 1.355 . S
C683 C685 1.415 . S
C684 C683 1.355 . S
C684 C686 1.419 . S
C685 C680 1.425 . S
C685 C682 1.409 . S
C685 C683 1.415 . S
C686 H676 0.930 . S
C686 C684 1.419 . S
C686 C687 1.362 . S
C687 H677 0.930 . S
C687 C680 1.409 . S
C687 C686 1.362 . S
H688 C694 0.930 . S
H689 C697 0.930 . S
H690 C698 0.930 . S
H691 C699 0.930 . S
H692 C702 0.930 . S
H693 C703 0.930 . S
C694 H688 0.930 . S
C694 C695 1.355 . S
C694 C696 1.415 . S
C695 C694 1.355 . S
C695 C697 1.419 . S
C696 C694 1.415 . S
C696 C701 1.425 . S
C696 C703 1.409 . S
C697 H689 0.930 . S
C697 C695 1.419 . S
C697 C698 1.362 . S
C698 H690 0.930 . S
C698 C697 1.362 . S
C698 C701 1.409 . S
C699 H691 0.930 . S
C699 C700 1.355 . S
C699 C701 1.415 . S
C700 C699 1.355 . S
C700 C702 1.419 . S
C701 C696 1.425 . S
C701 C698 1.409 . S
C701 C699 1.415 . S
C702 H692 0.930 . S
C702 C700 1.419 . S
C702 C703 1.362 . S
C703 H693 0.930 . S
C703 C696 1.409 . S
C703 C702 1.362 . S
H704 C710 0.930 . S
H705 C713 0.930 . S
H706 C714 0.930 . S
H707 C715 0.930 . S
H708 C718 0.930 1_565 S
H709 C719 0.930 . S
C710 H704 0.930 . S
C710 C711 1.355 . S
C710 C712 1.415 . S
C711 C710 1.355 . S
C711 C713 1.419 . S
C712 C710 1.415 . S
C712 C717 1.425 . S
C712 C719 1.409 . S
C713 H705 0.930 . S
C713 C711 1.419 . S
C713 C714 1.362 . S
C714 H706 0.930 . S
C714 C713 1.362 . S
C714 C717 1.409 . S
C715 H707 0.930 . S
C715 C716 1.355 . S
C715 C717 1.415 . S
C716 C715 1.355 . S
C716 C718 1.419 . S
C717 C712 1.425 . S
C717 C714 1.409 . S
C717 C715 1.415 . S
C718 H708 0.930 1_545 S
C718 C716 1.419 . S
C718 C719 1.362 . S
C719 H709 0.930 . S
C719 C712 1.409 . S
C719 C718 1.362 . S
C215 C185 1.500 . S
C220 C3 1.500 . S
C231 C30 1.503 . S
C236 C4 1.503 . S
C247 C153 1.504 . S
C252 C17 1.504 . S
C263 C16 1.501 . S
C268 C96 1.501 . S
C279 C29 1.502 . S
C284 C159 1.502 . S
C295 C127 1.504 . S
C300 C49 1.504 . S
C311 C44 1.502 . S
C316 C68 1.502 . S
C327 C135 1.500 . S
C332 C55 1.500 . S
C343 C56 1.499 . S
C348 C82 1.499 . S
C359 C205 1.501 . S
C364 C69 1.501 . S
C375 C107 1.501 . S
C380 C81 1.501 . S
C391 C179 1.498 . S
C396 C101 1.498 . S
C407 C108 1.504 . S
C412 C140 1.504 . S
C423 C200 1.501 . S
C428 C122 1.501 . S
C439 C148 1.502 . S
C444 C174 1.502 . S
C455 C186 1.504 . S
C460 C160 1.504 . S
C471 C70 1.560 . S
C476 C10 1.561 1_565 S
C487 C5 1.560 . S
C492 C75 1.556 . S
C503 C18 1.559 . S
C508 C62 1.559 . S
C519 C57 1.560 . S
C524 C23 1.560 1_565 S
C535 C94 1.562 . S
C540 C36 1.564 1_545 S
C551 C95 1.558 . S
C556 C31 1.560 . S
C567 C88 1.555 . S
C572 C42 1.558 . S
C583 C43 1.559 1_545 S
C588 C83 1.561 . S
C599 C172 1.562 . S
C604 C114 1.563 1_565 S
C615 C109 1.563 . S
C620 C173 1.563 . S
C631 C120 1.559 . S
C636 C166 1.557 . S
C647 C161 1.563 . S
C652 C121 1.564 1_565 S
C663 C198 1.561 . S
C668 C134 1.558 1_545 S
C679 C199 1.560 . S
C684 C133 1.561 . S
C695 C146 1.562 . S
C700 C192 1.562 . S
C711 C187 1.562 . S
C716 C147 1.563 1_545 S
