# Generated by pormake.
# Topology wlb, (5)-cn, num edge types: 1
# Building blocks:
#     Node 0, Type 0, BuildingBlock: XOMCOT_clean_sbu_0, # of connection points: 5
#     Node 1, Type 0, BuildingBlock: XOMCOT_clean_sbu_0, # of connection points: 5
#     Node 2, Type 0, BuildingBlock: XOMCOT_clean_sbu_0, # of connection points: 5
#     Node 3, Type 0, BuildingBlock: XOMCOT_clean_sbu_0, # of connection points: 5
#     Node 4, Type 0, BuildingBlock: XOMCOT_clean_sbu_0, # of connection points: 5
#     Node 5, Type 0, BuildingBlock: XOMCOT_clean_sbu_0, # of connection points: 5
#     Node 6, Type 0, BuildingBlock: XOMCOT_clean_sbu_0, # of connection points: 5
#     Node 7, Type 0, BuildingBlock: XOMCOT_clean_sbu_0, # of connection points: 5
#     Node 8, Type 0, BuildingBlock: XOMCOT_clean_sbu_0, # of connection points: 5
#     Node 9, Type 0, BuildingBlock: XOMCOT_clean_sbu_0, # of connection points: 5
#     Node 10, Type 0, BuildingBlock: XOMCOT_clean_sbu_0, # of connection points: 5
#     Node 11, Type 0, BuildingBlock: XOMCOT_clean_sbu_0, # of connection points: 5
#     Node 12, Type 0, BuildingBlock: XOMCOT_clean_sbu_0, # of connection points: 5
#     Node 13, Type 0, BuildingBlock: XOMCOT_clean_sbu_0, # of connection points: 5
#     Node 14, Type 0, BuildingBlock: XOMCOT_clean_sbu_0, # of connection points: 5
#     Node 15, Type 0, BuildingBlock: XOMCOT_clean_sbu_0, # of connection points: 5
#     Node 16, Type 0, BuildingBlock: XOMCOT_clean_sbu_0, # of connection points: 5
#     Node 17, Type 0, BuildingBlock: XOMCOT_clean_sbu_0, # of connection points: 5
#     Edge 18, Type (0, 0), BuildingBlock: KIFKEQ_clean_linker_1, # of connection points: 2
#     Edge 19, Type (0, 0), BuildingBlock: KIFKEQ_clean_linker_1, # of connection points: 2
#     Edge 20, Type (0, 0), BuildingBlock: KIFKEQ_clean_linker_1, # of connection points: 2
#     Edge 21, Type (0, 0), BuildingBlock: KIFKEQ_clean_linker_1, # of connection points: 2
#     Edge 22, Type (0, 0), BuildingBlock: KIFKEQ_clean_linker_1, # of connection points: 2
#     Edge 23, Type (0, 0), BuildingBlock: KIFKEQ_clean_linker_1, # of connection points: 2
#     Edge 24, Type (0, 0), BuildingBlock: KIFKEQ_clean_linker_1, # of connection points: 2
#     Edge 25, Type (0, 0), BuildingBlock: KIFKEQ_clean_linker_1, # of connection points: 2
#     Edge 26, Type (0, 0), BuildingBlock: KIFKEQ_clean_linker_1, # of connection points: 2
#     Edge 27, Type (0, 0), BuildingBlock: KIFKEQ_clean_linker_1, # of connection points: 2
#     Edge 28, Type (0, 0), BuildingBlock: KIFKEQ_clean_linker_1, # of connection points: 2
#     Edge 29, Type (0, 0), BuildingBlock: KIFKEQ_clean_linker_1, # of connection points: 2
#     Edge 30, Type (0, 0), BuildingBlock: KIFKEQ_clean_linker_1, # of connection points: 2
#     Edge 31, Type (0, 0), BuildingBlock: KIFKEQ_clean_linker_1, # of connection points: 2
#     Edge 32, Type (0, 0), BuildingBlock: KIFKEQ_clean_linker_1, # of connection points: 2
#     Edge 33, Type (0, 0), BuildingBlock: KIFKEQ_clean_linker_1, # of connection points: 2
#     Edge 34, Type (0, 0), BuildingBlock: KIFKEQ_clean_linker_1, # of connection points: 2
#     Edge 35, Type (0, 0), BuildingBlock: KIFKEQ_clean_linker_1, # of connection points: 2
#     Edge 36, Type (0, 0), BuildingBlock: KIFKEQ_clean_linker_1, # of connection points: 2
#     Edge 37, Type (0, 0), BuildingBlock: KIFKEQ_clean_linker_1, # of connection points: 2
#     Edge 38, Type (0, 0), BuildingBlock: KIFKEQ_clean_linker_1, # of connection points: 2
#     Edge 39, Type (0, 0), BuildingBlock: KIFKEQ_clean_linker_1, # of connection points: 2
#     Edge 40, Type (0, 0), BuildingBlock: KIFKEQ_clean_linker_1, # of connection points: 2
#     Edge 41, Type (0, 0), BuildingBlock: KIFKEQ_clean_linker_1, # of connection points: 2
#     Edge 42, Type (0, 0), BuildingBlock: KIFKEQ_clean_linker_1, # of connection points: 2
#     Edge 43, Type (0, 0), BuildingBlock: KIFKEQ_clean_linker_1, # of connection points: 2
#     Edge 44, Type (0, 0), BuildingBlock: KIFKEQ_clean_linker_1, # of connection points: 2
#     Edge 45, Type (0, 0), BuildingBlock: KIFKEQ_clean_linker_1, # of connection points: 2
#     Edge 46, Type (0, 0), BuildingBlock: KIFKEQ_clean_linker_1, # of connection points: 2
#     Edge 47, Type (0, 0), BuildingBlock: KIFKEQ_clean_linker_1, # of connection points: 2
#     Edge 48, Type (0, 0), BuildingBlock: KIFKEQ_clean_linker_1, # of connection points: 2
#     Edge 49, Type (0, 0), BuildingBlock: KIFKEQ_clean_linker_1, # of connection points: 2
#     Edge 50, Type (0, 0), BuildingBlock: KIFKEQ_clean_linker_1, # of connection points: 2
#     Edge 51, Type (0, 0), BuildingBlock: KIFKEQ_clean_linker_1, # of connection points: 2
#     Edge 52, Type (0, 0), BuildingBlock: KIFKEQ_clean_linker_1, # of connection points: 2
#     Edge 53, Type (0, 0), BuildingBlock: KIFKEQ_clean_linker_1, # of connection points: 2
#     Edge 54, Type (0, 0), BuildingBlock: KIFKEQ_clean_linker_1, # of connection points: 2
#     Edge 55, Type (0, 0), BuildingBlock: KIFKEQ_clean_linker_1, # of connection points: 2
#     Edge 56, Type (0, 0), BuildingBlock: KIFKEQ_clean_linker_1, # of connection points: 2
#     Edge 57, Type (0, 0), BuildingBlock: KIFKEQ_clean_linker_1, # of connection points: 2
#     Edge 58, Type (0, 0), BuildingBlock: KIFKEQ_clean_linker_1, # of connection points: 2
#     Edge 59, Type (0, 0), BuildingBlock: KIFKEQ_clean_linker_1, # of connection points: 2
#     Edge 60, Type (0, 0), BuildingBlock: KIFKEQ_clean_linker_1, # of connection points: 2
#     Edge 61, Type (0, 0), BuildingBlock: KIFKEQ_clean_linker_1, # of connection points: 2
#     Edge 62, Type (0, 0), BuildingBlock: KIFKEQ_clean_linker_1, # of connection points: 2
# Relax obj value: 0.325
# Max RMSD: 0.198
# Mean RMSD: 0.198
data_MOF--net-wlb--node1-XOMCOT_clean_sbu_0--edge1-KIFKEQ_clean_linker_1
_symmetry_space_group_name_H-M    P1
_symmetry_Int_Tables_number       1
_symmetry_cell_setting            triclinic
loop_
_symmetry_equiv_pos_as_xyz
'x, y, z'
_cell_length_a     53.031276
_cell_length_b     53.033534
_cell_length_c     40.362047
_cell_angle_alpha  90.05524
_cell_angle_beta   89.976827
_cell_angle_gamma 120.01986
loop_
_atom_site_label
_atom_site_type_symbol
_atom_site_fract_x
_atom_site_fract_y
_atom_site_fract_z
_atom_type_partial_charge
Co0 Co 0.05289 0.20218 0.24074 0.0
C1 C 0.01935 0.23069 0.2233 0.0
C2 C 0.99996 0.2012 0.26414 0.0
C3 C 0.98226 0.21236 0.25582 0.0
N4 N 0.02296 0.21254 0.24348 0.0
N5 N 0.99449 0.2308 0.23008 0.0
H6 H 0.03388 0.24241 0.20301 0.0
H7 H 0.99595 0.18537 0.28329 0.0
C8 C 0.0191 0.13728 0.23625 0.0
O9 O 0.0366 0.13961 0.21188 0.0
N10 N 0.08334 0.19177 0.23928 0.0
C11 C 0.1085 0.20409 0.22199 0.0
C12 C 0.12242 0.1884 0.22731 0.0
C13 C 0.08357 0.17011 0.25664 0.0
N14 N 0.10641 0.16667 0.24872 0.0
C15 C 0.06554 0.2131 0.17073 0.0
C16 C 0.01028 0.17329 0.14886 0.0
C17 C 0.03161 0.18995 0.12532 0.0
C18 C 0.05953 0.2103 0.13674 0.0
C19 C 0.01716 0.177 0.1825 0.0
N20 N 0.04493 0.1956 0.19318 0.0
H21 H 0.08631 0.23048 0.1789 0.0
H22 H 0.99971 0.16536 0.19999 0.0
H23 H 0.1166 0.22314 0.20658 0.0
H24 H 0.06682 0.15652 0.27417 0.0
O25 O 0.08205 0.24298 0.23968 0.0
O26 O 0.06497 0.21668 0.28541 0.0
O27 O 0.02264 0.1602 0.2511 0.0
C28 C 0.08209 0.24192 0.27186 0.0
H29 H 0.96181 0.20701 0.26751 0.0
H30 H 0.14214 0.19202 0.21514 0.0
H31 H 0.98825 0.1576 0.14151 0.0
H32 H 0.07635 0.22475 0.1197 0.0
Co33 Co 0.80546 0.85037 0.23963 0.0
C34 C 0.77589 0.78821 0.22223 0.0
C35 C 0.80541 0.7979 0.263 0.0
C36 C 0.79375 0.76897 0.25471 0.0
N37 N 0.79441 0.80988 0.24232 0.0
N38 N 0.7753 0.76302 0.22904 0.0
H39 H 0.76435 0.79125 0.20193 0.0
H40 H 0.82137 0.80956 0.28211 0.0
C41 C 0.87023 0.87971 0.23526 0.0
O42 O 0.8683 0.89461 0.21034 0.0
N43 N 0.81638 0.89143 0.23848 0.0
C44 C 0.80235 0.90393 0.22414 0.0
C45 C 0.81824 0.9336 0.22907 0.0
C46 C 0.83923 0.91358 0.25423 0.0
N47 N 0.84177 0.93971 0.24761 0.0
C48 C 0.79936 0.85679 0.16891 0.0
C49 C 0.83423 0.83455 0.14885 0.0
C50 C 0.82145 0.84349 0.12473 0.0
C51 C 0.8038 0.85473 0.13504 0.0
C52 C 0.82965 0.83745 0.18232 0.0
N53 N 0.81314 0.84936 0.19224 0.0
H54 H 0.78389 0.86319 0.17609 0.0
H55 H 0.83907 0.82954 0.20037 0.0
H56 H 0.78173 0.89255 0.21141 0.0
H57 H 0.8539 0.91073 0.27028 0.0
O58 O 0.76477 0.83915 0.23739 0.0
O59 O 0.79004 0.84774 0.28386 0.0
O60 O 0.84716 0.86135 0.25076 0.0
C61 C 0.7651 0.83989 0.26961 0.0
H62 H 0.79879 0.75362 0.26632 0.0
H63 H 0.81321 0.94943 0.21886 0.0
H64 H 0.84765 0.82531 0.14193 0.0
H65 H 0.79265 0.86085 0.11707 0.0
Co66 Co 0.15724 0.95572 0.24266 0.0
C67 C 0.21981 0.99054 0.2278 0.0
C68 C 0.20833 0.00737 0.27004 0.0
C69 C 0.23752 0.02534 0.26346 0.0
N70 N 0.19733 0.9858 0.24745 0.0
N71 N 0.24464 0.01474 0.23683 0.0
H72 H 0.21767 0.97722 0.20648 0.0
H73 H 0.19588 0.01013 0.28949 0.0
C74 C 0.12592 0.98932 0.23921 0.0
O75 O 0.11152 0.97274 0.21387 0.0
N76 N 0.11652 0.92502 0.23922 0.0
C77 C 0.10447 0.90021 0.22127 0.0
C78 C 0.07469 0.88582 0.22552 0.0
C79 C 0.09396 0.92403 0.25596 0.0
N80 N 0.06806 0.90113 0.24697 0.0
C81 C 0.15686 0.94578 0.17216 0.0
C82 C 0.17313 1.00188 0.15296 0.0
C83 C 0.16843 0.98125 0.12844 0.0
C84 C 0.16048 0.95292 0.1385 0.0
C85 C 0.16939 0.99383 0.18628 0.0
N86 N 0.15985 0.96566 0.1956 0.0
H87 H 0.15313 0.92467 0.17929 0.0
H88 H 0.17491 0.01061 0.20464 0.0
H89 H 0.11609 0.89259 0.20624 0.0
H90 H 0.09637 0.94018 0.27398 0.0
O91 O 0.16962 0.92723 0.24007 0.0
O92 O 0.1584 0.94157 0.28664 0.0
O93 O 0.14483 0.98524 0.25432 0.0
C94 C 0.16755 0.92561 0.27217 0.0
H95 H 0.25227 0.04481 0.27707 0.0
H96 H 0.05913 0.8662 0.2127 0.0
H97 H 0.17981 0.02419 0.14659 0.0
H98 H 0.15807 0.93662 0.12061 0.0
Co99 Co 0.20888 0.05808 0.77046 0.0
C100 C 0.23556 0.0227 0.78743 0.0
C101 C 0.20645 0.00481 0.74598 0.0
C102 C 0.21687 0.98641 0.75373 0.0
N103 N 0.218 0.02732 0.76735 0.0
N104 N 0.23509 0.99769 0.77984 0.0
H105 H 0.24734 0.03669 0.80809 0.0
H106 H 0.19103 1.00169 0.72664 0.0
C107 C 0.14394 0.02638 0.77436 0.0
O108 O 0.1469 0.04419 0.79865 0.0
N109 N 0.19959 0.08926 0.7721 0.0
C110 C 0.21049 0.11325 0.79138 0.0
C111 C 0.19497 0.12729 0.78568 0.0
C112 C 0.17907 0.09037 0.7534 0.0
N113 N 0.17478 0.1125 0.76221 0.0
C114 C 0.22037 0.06997 0.84043 0.0
C115 C 0.17828 0.01557 0.86215 0.0
C116 C 0.19559 0.03657 0.88565 0.0
C117 C 0.21719 0.06396 0.87439 0.0
C118 C 0.18236 0.02243 0.8285 0.0
N119 N 0.20204 0.04992 0.81793 0.0
H120 H 0.23849 0.09029 0.8323 0.0
H121 H 0.17022 0.00517 0.81095 0.0
H122 H 0.22811 0.12024 0.80879 0.0
H123 H 0.16645 0.07434 0.73472 0.0
O124 O 0.2499 0.08634 0.77193 0.0
O125 O 0.2238 0.07028 0.72592 0.0
O126 O 0.16659 0.02887 0.75983 0.0
C127 C 0.24908 0.08677 0.73977 0.0
H128 H 0.21126 0.96616 0.74132 0.0
H129 H 0.19727 0.14594 0.79925 0.0
H130 H 0.16237 0.99364 0.8696 0.0
H131 H 0.23174 0.08055 0.89163 0.0
Co132 Co 0.9595 0.15593 0.76589 0.0
C133 C 0.99351 0.21798 0.78328 0.0
C134 C 0.01248 0.20782 0.74206 0.0
C135 C 0.02996 0.23683 0.74993 0.0
N136 N 0.98985 0.19611 0.7632 0.0
N137 N 0.01806 0.24314 0.77599 0.0
H138 H 0.97863 0.21526 0.80313 0.0
H139 H 0.01633 0.19596 0.72279 0.0
C140 C 0.99396 0.1255 0.77029 0.0
O141 O 0.9772 0.11059 0.79526 0.0
N142 N 0.92834 0.11521 0.76742 0.0
C143 C 0.90126 0.10466 0.77992 0.0
C144 C 0.88552 0.07505 0.77489 0.0
C145 C 0.92785 0.09182 0.75318 0.0
N146 N 0.90241 0.06697 0.7584 0.0
C147 C 0.94645 0.15121 0.83605 0.0
C148 C 1.00277 0.17063 0.85733 0.0
C149 C 0.98109 0.16406 0.88111 0.0
C150 C 0.95259 0.15431 0.87001 0.0
C151 C 0.99575 0.16747 0.82373 0.0
N152 N 0.96767 0.15685 0.81329 0.0
H153 H 0.9249 0.14557 0.82822 0.0
H154 H 0.01324 0.17426 0.80602 0.0
H155 H 0.89293 0.11747 0.79123 0.0
H156 H 0.94543 0.09276 0.7387 0.0
O157 O 0.93102 0.1684 0.76772 0.0
O158 O 0.94724 0.15881 0.72149 0.0
O159 O 0.98934 0.14391 0.75492 0.0
C160 C 0.93066 0.16739 0.73552 0.0
H161 H 0.05035 0.25179 0.73804 0.0
H162 H 0.86351 0.06051 0.78329 0.0
H163 H 0.02515 0.17837 0.86448 0.0
H164 H 0.93529 0.15008 0.8873 0.0
Co165 Co 0.85614 0.8055 0.76617 0.0
C166 C 0.79259 0.77289 0.78329 0.0
C167 C 0.80142 0.79625 0.73758 0.0
C168 C 0.77198 0.78276 0.74364 0.0
N169 N 0.81448 0.79066 0.76287 0.0
N170 N 0.76642 0.76812 0.77255 0.0
H171 H 0.79543 0.76317 0.80521 0.0
H172 H 0.81271 0.80988 0.71653 0.0
C173 C 0.84851 0.8574 0.7678 0.0
O174 O 0.82688 0.84226 0.78835 0.0
N175 N 0.89749 0.82 0.76841 0.0
C176 C 0.91059 0.8078 0.7852 0.0
C177 C 0.94027 0.82588 0.78311 0.0
C178 C 0.91925 0.84528 0.75633 0.0
N179 N 0.94572 0.84951 0.76505 0.0
C180 C 0.84472 0.78787 0.83464 0.0
C181 C 0.86957 0.84298 0.86173 0.0
C182 C 0.85417 0.81888 0.88267 0.0
C183 C 0.84277 0.791 0.86876 0.0
C184 C 0.87134 0.83875 0.82779 0.0
N185 N 0.85659 0.8115 0.81415 0.0
H186 H 0.83615 0.76621 0.8247 0.0
H187 H 0.8844 0.8576 0.81259 0.0
H188 H 0.89933 0.78767 0.79899 0.0
H189 H 0.91579 0.86046 0.74192 0.0
O190 O 0.84853 0.76587 0.76611 0.0
O191 O 0.85518 0.79216 0.721 0.0
O192 O 0.86349 0.84634 0.75655 0.0
C193 C 0.84914 0.76725 0.73398 0.0
H194 H 0.75618 0.78435 0.7282 0.0
H195 H 0.95649 0.82247 0.79529 0.0
H196 H 0.87972 0.86503 0.87114 0.0
H197 H 0.83235 0.77165 0.88402 0.0
Co198 Co 0.72972 0.54303 0.56577 0.0
C199 C 0.69463 0.57061 0.55126 0.0
C200 C 0.67741 0.5412 0.59251 0.0
C201 C 0.65915 0.55206 0.58604 0.0
N202 N 0.69935 0.55261 0.57042 0.0
N203 N 0.66999 0.57044 0.56003 0.0
H204 H 0.70815 0.58237 0.5303 0.0
H205 H 0.67453 0.52558 0.61146 0.0
C206 C 0.69579 0.47825 0.56011 0.0
O207 O 0.71237 0.48077 0.53466 0.0
N208 N 0.76081 0.5335 0.56304 0.0
C209 C 0.78755 0.54877 0.54921 0.0
C210 C 0.80226 0.53364 0.55357 0.0
C211 C 0.76084 0.51068 0.57785 0.0
N212 N 0.7852 0.50968 0.57147 0.0
C213 C 0.74111 0.54961 0.49481 0.0
C214 C 0.6837 0.51448 0.47585 0.0
C215 C 0.705 0.52752 0.4513 0.0
C216 C 0.73405 0.54528 0.46105 0.0
C217 C 0.69174 0.51893 0.50916 0.0
N218 N 0.72028 0.5357 0.5185 0.0
H219 H 0.76314 0.56496 0.50165 0.0
H220 H 0.67473 0.50912 0.52758 0.0
H221 H 0.79617 0.56956 0.537 0.0
H222 H 0.74325 0.49455 0.59276 0.0
O223 O 0.75794 0.58409 0.56384 0.0
O224 O 0.74317 0.55804 0.61003 0.0
O225 O 0.70015 0.50087 0.57634 0.0
C226 C 0.7591 0.58334 0.59599 0.0
H227 H 0.63925 0.54657 0.59916 0.0
H228 H 0.82326 0.53916 0.5433 0.0
H229 H 0.66095 0.50087 0.46938 0.0
H230 H 0.75102 0.5565 0.44276 0.0
Co231 Co 0.47532 0.189 0.57689 0.0
C232 C 0.44507 0.12652 0.55454 0.0
C233 C 0.46289 0.13271 0.60348 0.0
C234 C 0.44954 0.10355 0.59592 0.0
N235 N 0.46037 0.14723 0.57742 0.0
N236 N 0.43849 0.09978 0.5651 0.0
H237 H 0.43838 0.13041 0.53086 0.0
H238 H 0.47407 0.14278 0.62633 0.0
C239 C 0.52693 0.18069 0.57607 0.0
O240 O 0.51222 0.15941 0.55496 0.0
N241 N 0.49005 0.23072 0.57772 0.0
C242 C 0.47432 0.24437 0.5792 0.0
C243 C 0.49303 0.27394 0.58112 0.0
C244 C 0.51816 0.25236 0.5783 0.0
N245 N 0.5205 0.27884 0.58046 0.0
C246 C 0.45856 0.1814 0.50822 0.0
C247 C 0.51353 0.20341 0.4815 0.0
C248 C 0.48936 0.18968 0.4603 0.0
C249 C 0.46166 0.1798 0.47403 0.0
C250 C 0.5094 0.20487 0.51553 0.0
N251 N 0.48203 0.19158 0.5289 0.0
H252 H 0.43692 0.17303 0.51812 0.0
H253 H 0.52845 0.21629 0.53088 0.0
H254 H 0.45083 0.23381 0.57905 0.0
H255 H 0.53665 0.24899 0.57764 0.0
O256 O 0.43557 0.18119 0.57699 0.0
O257 O 0.46122 0.18568 0.62206 0.0
O258 O 0.51583 0.19572 0.587 0.0
C259 C 0.43647 0.18016 0.60911 0.0
H260 H 0.44863 0.08657 0.61161 0.0
H261 H 0.48696 0.29061 0.5824 0.0
H262 H 0.5355 0.21224 0.47223 0.0
H263 H 0.44236 0.17047 0.45863 0.0
Co264 Co 0.82506 0.29121 0.57772 0.0
C265 C 0.88716 0.32449 0.55983 0.0
C266 C 0.8774 0.34387 0.601 0.0
C267 C 0.90644 0.36097 0.5932 0.0
N268 N 0.86541 0.32123 0.57985 0.0
N269 N 0.91251 0.34882 0.5672 0.0
H270 H 0.88423 0.30951 0.54001 0.0
H271 H 0.86572 0.34796 0.62027 0.0
C272 C 0.7955 0.3264 0.57315 0.0
O273 O 0.77972 0.30916 0.5489 0.0
N274 N 0.78418 0.26028 0.57707 0.0
C275 C 0.77348 0.23271 0.56605 0.0
C276 C 0.74397 0.21713 0.57171 0.0
C277 C 0.761 0.26027 0.59123 0.0
N278 N 0.73611 0.23461 0.58724 0.0
C279 C 0.81673 0.27722 0.5075 0.0
C280 C 0.8401 0.33413 0.48614 0.0
C281 C 0.83057 0.3119 0.46256 0.0
C282 C 0.81862 0.2831 0.4735 0.0
C283 C 0.83733 0.32729 0.51976 0.0
N284 N 0.82523 0.29904 0.5303 0.0
H285 H 0.80944 0.25527 0.51519 0.0
H286 H 0.8456 0.34497 0.53742 0.0
H287 H 0.78615 0.22397 0.55529 0.0
H288 H 0.76214 0.27832 0.60491 0.0
O289 O 0.83708 0.26239 0.57572 0.0
O290 O 0.82844 0.27926 0.62208 0.0
O291 O 0.81386 0.32168 0.58847 0.0
C292 C 0.83657 0.26235 0.60794 0.0
H293 H 0.92162 0.38127 0.60512 0.0
H294 H 0.72935 0.19479 0.56442 0.0
H295 H 0.84974 0.35671 0.47867 0.0
H296 H 0.8118 0.26541 0.45593 0.0
Co297 Co 0.87009 0.3832 0.10368 0.0
C298 C 0.90088 0.34968 0.11726 0.0
C299 C 0.87875 0.33891 0.07054 0.0
C300 C 0.89149 0.32199 0.07469 0.0
N301 N 0.88411 0.35588 0.09756 0.0
N302 N 0.90538 0.32888 0.10408 0.0
H303 H 0.90922 0.35935 0.14105 0.0
H304 H 0.86589 0.33847 0.04952 0.0
C305 C 0.81796 0.32428 0.10376 0.0
O306 O 0.83344 0.31749 0.12338 0.0
N307 N 0.8567 0.41078 0.10886 0.0
C308 C 0.86856 0.4336 0.12973 0.0
C309 C 0.85283 0.44768 0.12809 0.0
C310 C 0.83385 0.41122 0.09463 0.0
N311 N 0.83101 0.43377 0.10595 0.0
C312 C 0.88782 0.38618 0.17177 0.0
C313 C 0.83268 0.35787 0.19897 0.0
C314 C 0.85665 0.36549 0.21978 0.0
C315 C 0.88459 0.38081 0.20581 0.0
C316 C 0.83701 0.36411 0.16514 0.0
N317 N 0.86416 0.37578 0.15138 0.0
H318 H 0.90956 0.39859 0.1618 0.0
H319 H 0.81834 0.35942 0.15012 0.0
H320 H 0.88708 0.43928 0.1456 0.0
H321 H 0.81972 0.39543 0.07649 0.0
O322 O 0.91001 0.41459 0.10452 0.0
O323 O 0.88362 0.39742 0.05897 0.0
O324 O 0.82883 0.35059 0.09341 0.0
C325 C 0.90872 0.41524 0.07244 0.0
H326 H 0.89054 0.30585 0.05752 0.0
H327 H 0.85686 0.46635 0.14288 0.0
H328 H 0.81064 0.34682 0.20847 0.0
H329 H 0.90393 0.38883 0.221 0.0
Co330 Co 0.62177 0.48841 0.09549 0.0
C331 C 0.65598 0.55201 0.112 0.0
C332 C 0.66495 0.54249 0.06324 0.0
C333 C 0.68189 0.572 0.06861 0.0
N334 N 0.6491 0.52983 0.09072 0.0
N335 N 0.6761 0.57783 0.09926 0.0
H336 H 0.64716 0.54972 0.1365 0.0
H337 H 0.66458 0.5309 0.04101 0.0
C338 C 0.68095 0.49452 0.09039 0.0
O339 O 0.69103 0.51862 0.1077 0.0
N340 N 0.59429 0.44732 0.09932 0.0
C341 C 0.5697 0.43501 0.11747 0.0
C342 C 0.55749 0.40521 0.11605 0.0
C343 C 0.59676 0.42498 0.08709 0.0
N344 N 0.57461 0.39893 0.09706 0.0
C345 C 0.61827 0.50067 0.16443 0.0
C346 C 0.65097 0.47758 0.18912 0.0
C347 C 0.64205 0.49224 0.21079 0.0
C348 C 0.6246 0.50297 0.1983 0.0
C349 C 0.64372 0.47537 0.15554 0.0
N350 N 0.62963 0.48896 0.14302 0.0
H351 H 0.60499 0.5093 0.15529 0.0
H352 H 0.64935 0.46244 0.13995 0.0
H353 H 0.56175 0.44688 0.13171 0.0
H354 H 0.61463 0.42771 0.07167 0.0
O355 O 0.59026 0.49691 0.09721 0.0
O356 O 0.60765 0.48874 0.05117 0.0
O357 O 0.65373 0.47935 0.08371 0.0
C358 C 0.58965 0.49552 0.06506 0.0
H359 H 0.69722 0.58791 0.05137 0.0
H360 H 0.53826 0.38948 0.12931 0.0
H361 H 0.66319 0.46763 0.19812 0.0
H362 H 0.6166 0.5138 0.21436 0.0
Co363 Co 0.52009 0.1356 0.10471 0.0
C364 C 0.4576 0.10852 0.12012 0.0
C365 C 0.46934 0.13747 0.0785 0.0
C366 C 0.44023 0.12654 0.08531 0.0
N367 N 0.48014 0.12636 0.1006 0.0
N368 N 0.43295 0.10844 0.11156 0.0
H369 H 0.45961 0.09694 0.14109 0.0
H370 H 0.48186 0.15283 0.05922 0.0
C371 C 0.55148 0.20035 0.10966 0.0
O372 O 0.56518 0.19754 0.13529 0.0
N373 N 0.5606 0.14463 0.10717 0.0
C374 C 0.57103 0.12805 0.11978 0.0
C375 C 0.6007 0.14188 0.11483 0.0
C376 C 0.58402 0.16732 0.09275 0.0
N377 N 0.60883 0.16678 0.09818 0.0
C378 C 0.52617 0.13026 0.17565 0.0
C379 C 0.50401 0.16551 0.19453 0.0
C380 C 0.51281 0.15297 0.21912 0.0
C381 C 0.52404 0.13515 0.20939 0.0
C382 C 0.50693 0.16045 0.16122 0.0
N383 N 0.51861 0.14359 0.1519 0.0
H384 H 0.53303 0.11503 0.16889 0.0
H385 H 0.49946 0.16998 0.14279 0.0
H386 H 0.55808 0.10693 0.13111 0.0
H387 H 0.58312 0.18375 0.07785 0.0
O388 O 0.50665 0.0944 0.10728 0.0
O389 O 0.5178 0.11981 0.06066 0.0
O390 O 0.53318 0.17774 0.0934 0.0
C391 C 0.50822 0.09464 0.07512 0.0
H392 H 0.42565 0.13173 0.0721 0.0
H393 H 0.61522 0.13443 0.12332 0.0
H394 H 0.49498 0.17922 0.20097 0.0
H395 H 0.53024 0.12433 0.2277 0.0
Co396 Co 0.38412 0.86917 0.90848 0.0
C397 C 0.35022 0.89928 0.89229 0.0
C398 C 0.33747 0.87583 0.93811 0.0
C399 C 0.32045 0.88831 0.93307 0.0
N400 N 0.35578 0.88217 0.9122 0.0
N401 N 0.32857 0.90304 0.90425 0.0
H402 H 0.3611 0.90859 0.86932 0.0
H403 H 0.33633 0.86261 0.95908 0.0
C404 C 0.32593 0.81634 0.90512 0.0
O405 O 0.32006 0.83153 0.88398 0.0
N406 N 0.41259 0.8566 0.9061 0.0
C407 C 0.43911 0.87176 0.89208 0.0
C408 C 0.45302 0.85588 0.89467 0.0
C409 C 0.41051 0.83145 0.91672 0.0
N410 N 0.43507 0.83056 0.9101 0.0
C411 C 0.38822 0.88649 0.83999 0.0
C412 C 0.3635 0.83128 0.81307 0.0
C413 C 0.36921 0.8547 0.79227 0.0
C414 C 0.38276 0.88276 0.80596 0.0
C415 C 0.36916 0.83606 0.84701 0.0
N416 N 0.37886 0.86306 0.86054 0.0
H417 H 0.3996 0.90833 0.84985 0.0
H418 H 0.36521 0.81782 0.86242 0.0
H419 H 0.44763 0.89276 0.88027 0.0
H420 H 0.39159 0.81421 0.92898 0.0
O421 O 0.41477 0.90944 0.90846 0.0
O422 O 0.3963 0.88297 0.95368 0.0
O423 O 0.35157 0.82763 0.9177 0.0
C424 C 0.41424 0.9082 0.94059 0.0
H425 H 0.30351 0.88675 0.94936 0.0
H426 H 0.47442 0.86211 0.88507 0.0
H427 H 0.35403 0.80934 0.80343 0.0
H428 H 0.38911 0.90169 0.79051 0.0
Co429 Co 0.13481 0.51949 0.90726 0.0
C430 C 0.10786 0.45716 0.89203 0.0
C431 C 0.1373 0.46891 0.93319 0.0
C432 C 0.12656 0.43988 0.92599 0.0
N433 N 0.12569 0.47963 0.91165 0.0
N434 N 0.1082 0.43259 0.89994 0.0
H435 H 0.09548 0.4591 0.8719 0.0
H436 H 0.15308 0.4815 0.9521 0.0
C437 C 0.19957 0.55155 0.9021 0.0
O438 O 0.19651 0.56529 0.87669 0.0
N439 N 0.14383 0.55993 0.90421 0.0
C440 C 0.12818 0.57056 0.88957 0.0
C441 C 0.14216 0.60029 0.89424 0.0
C442 C 0.16601 0.58326 0.91939 0.0
N443 N 0.16618 0.60823 0.91263 0.0
C444 C 0.12589 0.52139 0.83661 0.0
C445 C 0.16421 0.50315 0.81723 0.0
C446 C 0.14868 0.50839 0.79275 0.0
C447 C 0.12916 0.5175 0.80289 0.0
C448 C 0.16011 0.50707 0.85055 0.0
N449 N 0.14201 0.51723 0.86003 0.0
H450 H 0.10939 0.52642 0.84379 0.0
H451 H 0.17119 0.50128 0.86885 0.0
H452 H 0.10764 0.55782 0.87702 0.0
H453 H 0.18178 0.58217 0.93537 0.0
O454 O 0.09364 0.50611 0.90523 0.0
O455 O 0.1196 0.5178 0.9515 0.0
O456 O 0.17708 0.53283 0.91815 0.0
C457 C 0.09428 0.50815 0.93736 0.0
H458 H 0.13277 0.42564 0.93818 0.0
H459 H 0.13549 0.61498 0.88424 0.0
H460 H 0.1794 0.4959 0.81087 0.0
H461 H 0.11574 0.52065 0.78506 0.0
Co462 Co 0.48584 0.61786 0.90199 0.0
C463 C 0.54932 0.64988 0.88343 0.0
C464 C 0.54022 0.66563 0.92809 0.0
C465 C 0.56952 0.68215 0.92157 0.0
N466 N 0.52735 0.64585 0.90371 0.0
N467 N 0.57525 0.67231 0.89333 0.0
H468 H 0.54684 0.63652 0.86236 0.0
H469 H 0.52888 0.66827 0.94889 0.0
C470 C 0.49087 0.67624 0.89879 0.0
O471 O 0.51186 0.68279 0.87727 0.0
N472 N 0.4447 0.59008 0.90165 0.0
C473 C 0.43131 0.56477 0.88483 0.0
C474 C 0.40166 0.55283 0.88834 0.0
C475 C 0.4232 0.5932 0.91525 0.0
N476 N 0.39658 0.57081 0.90733 0.0
C477 C 0.49691 0.61265 0.8329 0.0
C478 C 0.46716 0.63864 0.80754 0.0
C479 C 0.48435 0.63275 0.78599 0.0
C480 C 0.49837 0.61841 0.79894 0.0
C481 C 0.46651 0.63261 0.84133 0.0
N482 N 0.48359 0.6224 0.85409 0.0
H483 H 0.50702 0.60077 0.84218 0.0
H484 H 0.45252 0.63663 0.85722 0.0
H485 H 0.4423 0.55622 0.86995 0.0
H486 H 0.42695 0.61178 0.93001 0.0
O487 O 0.49441 0.58645 0.90187 0.0
O488 O 0.48881 0.60679 0.94708 0.0
O489 O 0.47741 0.65067 0.91153 0.0
C490 C 0.49475 0.58785 0.93403 0.0
H491 H 0.5851 0.70039 0.93624 0.0
H492 H 0.38516 0.5332 0.87635 0.0
H493 H 0.45439 0.64795 0.79845 0.0
H494 H 0.51107 0.61237 0.78326 0.0
Co495 Co 0.53806 0.71682 0.4316 0.0
C496 C 0.56873 0.68366 0.44888 0.0
C497 C 0.54554 0.67043 0.40288 0.0
C498 C 0.55833 0.65375 0.4083 0.0
N499 N 0.55152 0.68882 0.42865 0.0
N500 N 0.57288 0.66216 0.43723 0.0
H501 H 0.57787 0.69475 0.47182 0.0
H502 H 0.53239 0.66902 0.38171 0.0
C503 C 0.48552 0.65835 0.43464 0.0
O504 O 0.50055 0.65255 0.45612 0.0
N505 N 0.52505 0.74496 0.43317 0.0
C506 C 0.53992 0.77164 0.44694 0.0
C507 C 0.52407 0.78548 0.4432 0.0
C508 C 0.50007 0.74271 0.4216 0.0
N509 N 0.49906 0.76732 0.42734 0.0
C510 C 0.55471 0.72126 0.50049 0.0
C511 C 0.49908 0.69583 0.5263 0.0
C512 C 0.52224 0.7016 0.5476 0.0
C513 C 0.55052 0.71554 0.53448 0.0
C514 C 0.50433 0.70179 0.49248 0.0
N515 N 0.53155 0.7118 0.4795 0.0
H516 H 0.57668 0.73286 0.49101 0.0
H517 H 0.48625 0.69773 0.4767 0.0
H518 H 0.56076 0.78037 0.4592 0.0
H519 H 0.4831 0.72368 0.40917 0.0
O520 O 0.57818 0.74799 0.43167 0.0
O521 O 0.55189 0.72848 0.38648 0.0
O522 O 0.49679 0.68398 0.4221 0.0
C523 C 0.57693 0.74703 0.39951 0.0
H524 H 0.55712 0.63686 0.39217 0.0
H525 H 0.53012 0.80702 0.4522 0.0
H526 H 0.47695 0.68602 0.53541 0.0
H527 H 0.56925 0.72195 0.55031 0.0
Co528 Co 0.28915 0.82123 0.43597 0.0
C529 C 0.32359 0.88472 0.4543 0.0
C530 C 0.33443 0.87533 0.40649 0.0
C531 C 0.35105 0.9048 0.412 0.0
N532 N 0.31745 0.8626 0.43318 0.0
N533 N 0.34418 0.91064 0.44211 0.0
H534 H 0.3137 0.88232 0.47815 0.0
H535 H 0.33471 0.86386 0.38444 0.0
C536 C 0.34757 0.82627 0.43603 0.0
O537 O 0.3552 0.84806 0.45672 0.0
N538 N 0.26076 0.77992 0.43717 0.0
C539 C 0.23146 0.76723 0.43882 0.0
C540 C 0.21946 0.73744 0.43699 0.0
C541 C 0.2661 0.75762 0.43477 0.0
N542 N 0.24134 0.7316 0.43462 0.0
C543 C 0.28441 0.83268 0.50478 0.0
C544 C 0.31249 0.80518 0.53075 0.0
C545 C 0.30533 0.82159 0.55196 0.0
C546 C 0.29015 0.83457 0.53874 0.0
C547 C 0.3065 0.80408 0.49686 0.0
N548 N 0.29482 0.8198 0.4838 0.0
H549 H 0.27242 0.84261 0.49527 0.0
H550 H 0.31177 0.79084 0.4813 0.0
H551 H 0.2194 0.77861 0.44096 0.0
H552 H 0.28755 0.76011 0.43269 0.0
O553 O 0.25863 0.83099 0.4371 0.0
O554 O 0.27684 0.82356 0.3912 0.0
O555 O 0.32136 0.81228 0.42512 0.0
C556 C 0.25909 0.83078 0.40493 0.0
H557 H 0.36667 0.92069 0.39497 0.0
H558 H 0.19651 0.72131 0.43779 0.0
H559 H 0.32339 0.79395 0.54001 0.0
H560 H 0.28292 0.84628 0.55447 0.0
Co561 Co 0.18915 0.46872 0.43533 0.0
C562 C 0.12696 0.44122 0.45173 0.0
C563 C 0.13811 0.47109 0.41113 0.0
C564 C 0.10906 0.45985 0.41851 0.0
N565 N 0.14921 0.45951 0.43218 0.0
N566 N 0.10213 0.44117 0.44417 0.0
H567 H 0.12918 0.42862 0.47139 0.0
H568 H 0.15042 0.48708 0.3923 0.0
C569 C 0.22154 0.53352 0.44056 0.0
O570 O 0.23666 0.53086 0.46472 0.0
N571 N 0.22962 0.47775 0.43711 0.0
C572 C 0.24049 0.46218 0.4514 0.0
C573 C 0.27002 0.47585 0.44566 0.0
C574 C 0.25258 0.4996 0.42109 0.0
N575 N 0.27761 0.49961 0.42695 0.0
C576 C 0.19152 0.45863 0.50565 0.0
C577 C 0.17434 0.49739 0.52661 0.0
C578 C 0.17901 0.48099 0.55047 0.0
C579 C 0.18768 0.46133 0.53955 0.0
C580 C 0.17817 0.49383 0.49313 0.0
N581 N 0.18774 0.47545 0.48285 0.0
H582 H 0.19603 0.44191 0.49783 0.0
H583 H 0.17244 0.50534 0.47536 0.0
H584 H 0.22801 0.44186 0.4644 0.0
H585 H 0.25116 0.51528 0.40527 0.0
O586 O 0.17621 0.42762 0.43633 0.0
O587 O 0.18657 0.45419 0.39065 0.0
O588 O 0.20201 0.51094 0.42538 0.0
C589 C 0.17756 0.42875 0.40415 0.0
H590 H 0.09451 0.46582 0.40662 0.0
H591 H 0.28487 0.46919 0.4552 0.0
H592 H 0.16744 0.51273 0.53358 0.0
H593 H 0.19042 0.44731 0.55689 0.0
H594 H 0.89204 0.27271 0.09856 0.0
H595 H 0.95167 0.35445 0.14535 0.0
H596 H 0.91468 0.24902 0.1283 0.0
H597 H 0.97404 0.33072 0.17548 0.0
H598 H 0.02411 0.28223 0.19786 0.0
H599 H 1.00353 0.30635 0.16509 0.0
H600 H 0.91683 0.23664 0.18791 0.0
H601 H 0.93741 0.21237 0.22018 0.0
C602 C 0.91019 0.28566 0.1149 0.0
C603 C 0.92003 0.3154 0.11973 0.0
C604 C 0.92294 0.27206 0.13217 0.0
C605 C 0.94599 0.288 0.15435 0.0
C606 C 0.95639 0.31792 0.15844 0.0
C607 C 0.94346 0.33145 0.14142 0.0
C608 C 1.00068 0.27205 0.19574 0.0
C609 C 0.98237 0.24546 0.21165 0.0
C610 C 0.98891 0.28592 0.17718 0.0
C611 C 0.95859 0.27332 0.17387 0.0
C612 C 0.94029 0.24671 0.18975 0.0
C613 C 0.95206 0.233 0.20856 0.0
H614 H 0.7319 0.62123 0.09308 0.0
H615 H 0.65115 0.59679 0.14366 0.0
H616 H 0.75583 0.66693 0.12425 0.0
H617 H 0.67509 0.64232 0.17505 0.0
H618 H 0.72336 0.74129 0.19808 0.0
H619 H 0.6988 0.69676 0.16485 0.0
H620 H 0.76908 0.67999 0.18476 0.0
H621 H 0.79368 0.72458 0.21767 0.0
C622 C 0.71923 0.6258 0.11058 0.0
C623 C 0.68972 0.60547 0.11604 0.0
C624 C 0.73296 0.65177 0.12863 0.0
C625 C 0.71732 0.65804 0.15215 0.0
C626 C 0.68762 0.63807 0.15697 0.0
C627 C 0.67399 0.61196 0.13921 0.0
C628 C 0.73352 0.72808 0.19526 0.0
C629 C 0.76036 0.73632 0.2105 0.0
C630 C 0.71943 0.70257 0.17644 0.0
C631 C 0.73211 0.68503 0.17217 0.0
C632 C 0.75895 0.69327 0.18741 0.0
C633 C 0.77286 0.71858 0.20654 0.0
H634 H 0.41061 0.0585 0.14711 0.0
H635 H 0.39293 0.12585 0.11525 0.0
H636 H 0.36513 0.03547 0.17844 0.0
H637 H 0.34716 0.10242 0.14575 0.0
H638 H 0.28545 0.072 0.23439 0.0
H639 H 0.3313 0.09417 0.20403 0.0
H640 H 0.31189 0.0093 0.16917 0.0
H641 H 0.26635 0.98701 0.20035 0.0
C642 C 0.39701 0.06835 0.14674 0.0
C643 C 0.40544 0.09404 0.12872 0.0
C644 C 0.37084 0.05502 0.16444 0.0
C645 C 0.35261 0.06719 0.16466 0.0
C646 C 0.3609 0.09271 0.14638 0.0
C647 C 0.38697 0.10594 0.12857 0.0
C648 C 0.29111 0.05802 0.22063 0.0
C649 C 0.27222 0.02772 0.2198 0.0
C650 C 0.31723 0.07076 0.2029 0.0
C651 C 0.32513 0.0535 0.18404 0.0
C652 C 0.30649 0.02316 0.18362 0.0
C653 C 0.28028 0.01042 0.20123 0.0
H654 H 0.2158 0.94017 0.7872 0.0
H655 H 0.28608 0.02567 0.81329 0.0
H656 H 0.23902 0.91803 0.81855 0.0
H657 H 0.30909 1.00349 0.84524 0.0
H658 H 0.35561 0.95035 0.86459 0.0
H659 H 0.33307 0.97389 0.83445 0.0
H660 H 0.24984 0.9136 0.87783 0.0
H661 H 0.2723 0.88972 0.90745 0.0
C662 C 0.2363 0.95423 0.79946 0.0
C663 C 0.24916 0.98466 0.79771 0.0
C664 C 0.24941 0.94155 0.81773 0.0
C665 C 0.27579 0.95904 0.83445 0.0
C666 C 0.28883 0.98948 0.83246 0.0
C667 C 0.27557 1.00216 0.8144 0.0
C668 C 0.33251 0.94212 0.86763 0.0
C669 C 0.31568 0.91812 0.88826 0.0
C670 C 0.31967 0.95575 0.85062 0.0
C671 C 0.28969 0.94548 0.85369 0.0
C672 C 0.27295 0.92178 0.87473 0.0
C673 C 0.28584 0.90831 0.89196 0.0
H674 H 0.08978 0.42329 0.83593 0.0
H675 H 0.09455 0.37943 0.92386 0.0
H676 H 0.06649 0.37729 0.80627 0.0
H677 H 0.07266 0.33359 0.89359 0.0
H678 H 0.00733 0.25141 0.83978 0.0
H679 H 0.02773 0.29727 0.86962 0.0
H680 H 0.07793 0.34272 0.78312 0.0
H681 H 0.0563 0.29701 0.75267 0.0
C682 C 0.08575 0.40386 0.84908 0.0
C683 C 0.09399 0.40516 0.88245 0.0
C684 C 0.07275 0.37747 0.83185 0.0
C685 C 0.06778 0.3517 0.84746 0.0
C686 C 0.07585 0.35294 0.88087 0.0
C687 C 0.08875 0.37933 0.89816 0.0
C688 C 0.02233 0.27118 0.82687 0.0
C689 C 0.03003 0.27042 0.79367 0.0
C690 C 0.03438 0.2975 0.8442 0.0
C691 C 0.05455 0.32373 0.82884 0.0
C692 C 0.06219 0.323 0.79563 0.0
C693 C 0.05004 0.29669 0.77825 0.0
H694 H 0.58476 0.66213 0.82947 0.0
H695 H 0.62915 0.71001 0.91788 0.0
H696 H 0.63084 0.68285 0.80071 0.0
H697 H 0.67493 0.73238 0.8882 0.0
H698 H 0.75691 0.74961 0.83688 0.0
H699 H 0.71085 0.72412 0.86545 0.0
H700 H 0.66646 0.72677 0.7769 0.0
H701 H 0.71234 0.75037 0.74738 0.0
C702 C 0.6042 0.67694 0.843 0.0
C703 C 0.60288 0.6842 0.87629 0.0
C704 C 0.63074 0.68925 0.82618 0.0
C705 C 0.6567 0.70947 0.84197 0.0
C706 C 0.65548 0.71659 0.87528 0.0
C707 C 0.62899 0.70399 0.89226 0.0
C708 C 0.73746 0.74437 0.82305 0.0
C709 C 0.73874 0.75225 0.7895 0.0
C710 C 0.71089 0.73004 0.83978 0.0
C711 C 0.68484 0.72352 0.82366 0.0
C712 C 0.686 0.73109 0.79008 0.0
C713 C 0.71254 0.74508 0.77319 0.0
H714 H 0.69731 0.62162 0.52698 0.0
H715 H 0.61235 0.55104 0.55417 0.0
H716 H 0.67445 0.64446 0.4959 0.0
H717 H 0.58956 0.57405 0.52367 0.0
H718 H 0.56025 0.60612 0.43445 0.0
H719 H 0.58473 0.58435 0.46416 0.0
H720 H 0.64424 0.668 0.50729 0.0
H721 H 0.62005 0.68987 0.47707 0.0
C722 C 0.67379 0.61104 0.52633 0.0
C723 C 0.65662 0.58457 0.54301 0.0
C724 C 0.66073 0.62419 0.50877 0.0
C725 C 0.63025 0.61094 0.50728 0.0
C726 C 0.6131 0.58458 0.52412 0.0
C727 C 0.62615 0.57159 0.5419 0.0
C728 C 0.57878 0.61991 0.44993 0.0
C729 C 0.5882 0.64967 0.4535 0.0
C730 C 0.59258 0.6074 0.4672 0.0
C731 C 0.61626 0.62446 0.48817 0.0
C732 C 0.62611 0.65436 0.49118 0.0
C733 C 0.61213 0.66682 0.47413 0.0
H734 H 0.31924 0.92726 0.48966 0.0
H735 H 0.39771 0.95753 0.43169 0.0
H736 H 0.3414 0.97358 0.51903 0.0
H737 H 0.41966 1.00398 0.46083 0.0
H738 H 0.43842 0.09312 0.49858 0.0
H739 H 0.41422 0.04751 0.46758 0.0
H740 H 0.38168 0.9999 0.55913 0.0
H741 H 0.40525 0.04558 0.59004 0.0
C742 C 0.34124 0.94368 0.48325 0.0
C743 C 0.35674 0.93854 0.45841 0.0
C744 C 0.3539 0.97025 0.50006 0.0
C745 C 0.38228 0.99235 0.49229 0.0
C746 C 0.3976 0.98747 0.46707 0.0
C747 C 0.385 0.96085 0.45034 0.0
C748 C 0.42579 0.07296 0.51204 0.0
C749 C 0.4237 0.07293 0.54676 0.0
C750 C 0.4122 0.04683 0.49432 0.0
C751 C 0.3961 0.02016 0.51094 0.0
C752 C 0.39373 0.02015 0.54562 0.0
C753 C 0.40746 0.04626 0.56335 0.0
H754 H 0.04877 0.42691 0.42028 0.0
H755 H 0.09288 0.42129 0.50757 0.0
H756 H 1.00286 0.40385 0.45033 0.0
H757 H 0.04679 0.39681 0.53696 0.0
H758 H 0.96644 0.38624 0.59096 0.0
H759 H 0.01216 0.40786 0.56067 0.0
H760 H 0.96669 0.3585 0.47366 0.0
H761 H 0.92076 0.3381 0.5034 0.0
C762 C 0.04871 0.42066 0.44579 0.0
C763 C 0.07465 0.42609 0.46143 0.0
C764 C 0.02228 0.40708 0.46293 0.0
C765 C 0.0211 0.39847 0.4961 0.0
C766 C 0.04695 0.40349 0.51158 0.0
C767 C 0.07339 0.41719 0.4945 0.0
C768 C 0.96611 0.38014 0.56532 0.0
C769 C 0.93981 0.36045 0.54969 0.0
C770 C 0.99243 0.39227 0.54803 0.0
C771 C 0.99315 0.38491 0.5147 0.0
C772 C 0.9669 0.36492 0.49918 0.0
C773 C 0.94056 0.35289 0.51643 0.0
H774 H 0.16647 0.37536 0.42544 0.0
H775 H 0.16535 0.42139 0.33782 0.0
H776 H 0.14648 0.3303 0.39375 0.0
H777 H 0.1442 0.37613 0.30628 0.0
H778 H 0.12534 0.29484 0.25049 0.0
H779 H 0.15138 0.33985 0.28213 0.0
H780 H 0.10257 0.29484 0.36964 0.0
H781 H 0.07748 0.24962 0.33815 0.0
C782 C 0.16197 0.37584 0.39934 0.0
C783 C 0.16747 0.40194 0.38414 0.0
C784 C 0.15026 0.34991 0.38118 0.0
C785 C 0.1434 0.34931 0.34739 0.0
C786 C 0.14952 0.37566 0.33208 0.0
C787 C 0.16156 0.40167 0.35019 0.0
C788 C 0.12041 0.29452 0.27659 0.0
C789 C 0.09933 0.26866 0.29182 0.0
C790 C 0.13519 0.32043 0.29472 0.0
C791 C 0.12904 0.32125 0.32851 0.0
C792 C 0.10831 0.29513 0.34384 0.0
C793 C 0.09376 0.26914 0.32576 0.0
H794 H 0.585 0.7407 0.33363 0.0
H795 H 0.62926 0.79199 0.41988 0.0
H796 H 0.63043 0.76527 0.30238 0.0
H797 H 0.67443 0.81734 0.38848 0.0
H798 H 0.75664 0.82932 0.33623 0.0
H799 H 0.71094 0.80903 0.36674 0.0
H800 H 0.66631 0.80869 0.277 0.0
H801 H 0.71188 0.82799 0.24637 0.0
C802 C 0.60431 0.75764 0.34572 0.0
C803 C 0.60352 0.7643 0.37926 0.0
C804 C 0.63043 0.77185 0.32778 0.0
C805 C 0.65637 0.79327 0.34286 0.0
C806 C 0.65518 0.80059 0.37613 0.0
C807 C 0.62915 0.78621 0.39411 0.0
C808 C 0.73711 0.82515 0.32309 0.0
C809 C 0.73792 0.83021 0.28886 0.0
C810 C 0.71083 0.81362 0.34063 0.0
C811 C 0.68469 0.80704 0.32443 0.0
C812 C 0.68577 0.81291 0.29029 0.0
C813 C 0.712 0.82423 0.27273 0.0
H814 H 0.20413 0.90696 0.25124 0.0
H815 H 0.15365 0.9054 0.33585 0.0
H816 H 0.22395 0.88203 0.28294 0.0
H817 H 0.1719 0.87857 0.3673 0.0
H818 H 0.23605 0.86337 0.42674 0.0
H819 H 0.21213 0.884 0.39468 0.0
H820 H 0.21843 0.8404 0.30702 0.0
H821 H 0.24425 0.82136 0.33912 0.0
C822 C 0.1968 0.9007 0.27652 0.0
C823 C 0.17741 0.90823 0.29111 0.0
C824 C 0.20802 0.88613 0.29475 0.0
C825 C 0.19972 0.87811 0.32795 0.0
C826 C 0.17948 0.88488 0.34213 0.0
C827 C 0.16874 0.90007 0.32405 0.0
C828 C 0.23213 0.85801 0.40064 0.0
C829 C 0.2421 0.84079 0.38542 0.0
C830 C 0.21815 0.86972 0.38217 0.0
C831 C 0.21316 0.86406 0.34799 0.0
C832 C 0.22235 0.84592 0.33304 0.0
C833 C 0.23695 0.83472 0.35147 0.0
H834 H 0.42815 0.1647 0.67454 0.0
H835 H 0.38456 0.17397 0.58907 0.0
H836 H 0.38279 0.14417 0.70582 0.0
H837 H 0.33941 0.1544 0.62055 0.0
H838 H 0.25681 0.08435 0.67298 0.0
H839 H 0.30239 0.10929 0.64204 0.0
H840 H 0.34794 0.15325 0.73158 0.0
H841 H 0.30258 0.12754 0.76256 0.0
C842 C 0.409 0.16287 0.66264 0.0
C843 C 0.40994 0.17089 0.62932 0.0
C844 C 0.38294 0.15117 0.6806 0.0
C845 C 0.35723 0.14741 0.66574 0.0
C846 C 0.35854 0.15639 0.63268 0.0
C847 C 0.38452 0.16786 0.61468 0.0
C848 C 0.27653 0.09954 0.68595 0.0
C849 C 0.27609 0.10386 0.72022 0.0
C850 C 0.30271 0.11399 0.6682 0.0
C851 C 0.32904 0.13328 0.68427 0.0
C852 C 0.3283 0.13818 0.71843 0.0
C853 C 0.3022 0.12358 0.73618 0.0
H854 H 0.84984 0.26678 0.67395 0.0
H855 H 0.84636 0.21951 0.58533 0.0
H856 H 0.87067 0.2418 0.70428 0.0
H857 H 0.86607 0.19362 0.61581 0.0
H858 H 0.93488 0.18019 0.66938 0.0
H859 H 0.91014 0.20124 0.63895 0.0
H860 H 0.86253 0.19762 0.7275 0.0
H861 H 0.88818 0.1777 0.75806 0.0
C862 C 0.85306 0.25066 0.6611 0.0
C863 C 0.84656 0.24521 0.62723 0.0
C864 C 0.8649 0.23618 0.67852 0.0
C865 C 0.87026 0.21566 0.66256 0.0
C866 C 0.86286 0.20965 0.62885 0.0
C867 C 0.85132 0.22435 0.61139 0.0
C868 C 0.91893 0.18366 0.68222 0.0
C869 C 0.91359 0.1774 0.71614 0.0
C870 C 0.9046 0.19563 0.66475 0.0
C871 C 0.88433 0.20136 0.68071 0.0
C872 C 0.87838 0.19415 0.71446 0.0
C873 C 0.89293 0.18248 0.73196 0.0
H874 H 0.85901 0.7636 0.66781 0.0
H875 H 0.8182 0.71098 0.75423 0.0
H876 H 0.84122 0.71956 0.63434 0.0
H877 H 0.79874 0.6672 0.72086 0.0
H878 H 0.77919 0.58907 0.65963 0.0
H879 H 0.80499 0.63364 0.6922 0.0
H880 H 0.80056 0.68302 0.60932 0.0
H881 H 0.7767 0.63877 0.57646 0.0
C882 C 0.84621 0.74259 0.67962 0.0
C883 C 0.84012 0.74078 0.71365 0.0
C884 C 0.83569 0.71723 0.66039 0.0
C885 C 0.81821 0.68943 0.67458 0.0
C886 C 0.81255 0.68788 0.70885 0.0
C887 C 0.82359 0.71314 0.72811 0.0
C888 C 0.78409 0.60957 0.64838 0.0
C889 C 0.77596 0.61042 0.61551 0.0
C890 C 0.79868 0.63521 0.66713 0.0
C891 C 0.80486 0.66231 0.65375 0.0
C892 C 0.7969 0.66296 0.62058 0.0
C893 C 0.78295 0.63744 0.60167 0.0
H894 H 0.91342 0.43006 0.00653 0.0
H895 H 0.96469 0.43947 0.0935 0.0
H896 H 0.95798 0.45609 0.97385 0.0
H897 H 0.00888 0.46359 0.06092 0.0
H898 H 0.08822 0.52194 1.00124 0.0
H899 H 0.04335 0.50356 0.03314 0.0
H900 H 0.99427 0.45118 0.94918 0.0
H901 H 0.03885 0.47113 0.91702 0.0
C902 C 0.93423 0.43772 0.01865 0.0
C903 C 0.9355 0.4328 0.0526 0.0
C904 C 0.95988 0.45243 0.99987 0.0
C905 C 0.98742 0.462 0.01445 0.0
C906 C 0.98844 0.45731 0.04864 0.0
C907 C 0.96292 0.4432 0.06744 0.0
C908 C 0.06774 0.50672 0.98962 0.0
C909 C 0.06709 0.498 0.95665 0.0
C910 C 0.04192 0.49591 0.00797 0.0
C911 C 0.0148 0.47552 0.99407 0.0
C912 C 0.01436 0.46718 0.96083 0.0
C913 C 0.04007 0.47848 0.94233 0.0
H914 H 0.50887 0.59397 0.99997 0.0
H915 H 0.50213 0.54289 0.91361 0.0
H916 H 0.52923 0.56905 0.03137 0.0
H917 H 0.5215 0.51722 0.94517 0.0
H918 H 0.59166 0.50541 0.99831 0.0
H919 H 0.56618 0.52536 0.9674 0.0
H920 H 0.52103 0.52527 0.05662 0.0
H921 H 0.54733 0.50625 0.08765 0.0
C922 C 0.51122 0.57702 0.98787 0.0
C923 C 0.50397 0.57051 0.95426 0.0
C924 C 0.52282 0.56259 0.00591 0.0
C925 C 0.52727 0.54112 0.99086 0.0
C926 C 0.519 0.53398 0.9575 0.0
C927 C 0.50764 0.54856 0.93943 0.0
C928 C 0.57603 0.50931 0.01123 0.0
C929 C 0.57159 0.50428 0.04546 0.0
C930 C 0.56128 0.52069 0.99347 0.0
C931 C 0.54153 0.52716 0.00943 0.0
C932 C 0.53642 0.52115 0.04352 0.0
C933 C 0.55133 0.50997 0.0613 0.0
H934 H 0.52137 0.08779 0.01127 0.0
H935 H 0.4707 0.03947 0.09598 0.0
H936 H 0.50218 0.04267 0.97969 0.0
H937 H 0.4499 0.99461 0.06411 0.0
H938 H 0.42794 0.91304 0.00692 0.0
H939 H 0.45381 0.95768 0.03958 0.0
H940 H 0.46205 0.0084 0.95212 0.0
H941 H 0.43809 0.96413 0.91961 0.0
C942 C 0.506 0.06748 0.02307 0.0
C943 C 0.49759 0.0672 0.05609 0.0
C944 C 0.4947 0.0415 0.00489 0.0
C945 C 0.47409 0.01459 0.01899 0.0
C946 C 0.46603 0.01451 0.05229 0.0
C947 C 0.47783 0.04039 0.07063 0.0
C948 C 0.43567 0.93382 0.99474 0.0
C949 C 0.43109 0.93502 0.96067 0.0
C950 C 0.45031 0.95953 0.0135 0.0
C951 C 0.46016 0.98707 0.99878 0.0
C952 C 0.4556 0.98798 0.96453 0.0
C953 C 0.44157 0.96241 0.94576 0.0
H954 H 0.98079 0.18011 0.09581 0.0
H955 H 0.06611 0.19295 0.073 0.0
H956 H 0.96854 0.17361 0.03711 0.0
H957 H 0.05397 0.18727 0.01412 0.0
H958 H 0.03044 0.20743 0.91073 0.0
H959 H 0.04285 0.21364 0.96941 0.0
H960 H 0.96051 0.13721 0.99207 0.0
H961 H 0.94829 0.13035 0.93324 0.0
C962 C 0.99689 0.18132 0.07839 0.0
C963 C 0.02441 0.18684 0.08931 0.0
C964 C 0.98985 0.17769 0.04471 0.0
C965 C 0.01025 0.17984 0.02106 0.0
C966 C 0.0379 0.18577 0.03179 0.0
C967 C 0.04486 0.1891 0.06554 0.0
C968 C 0.0151 0.19164 0.92808 0.0
C969 C 0.98839 0.16824 0.91709 0.0
C970 C 0.02222 0.19531 0.96174 0.0
C971 C 1.00269 0.17589 0.9853 0.0
C972 C 0.97587 0.1527 0.97448 0.0
C973 C 0.96885 0.14884 0.94076 0.0
H974 H 0.80663 0.78419 0.9213 0.0
H975 H 0.89129 0.86223 0.92566 0.0
H976 H 0.79894 0.79016 0.97956 0.0
H977 H 0.88271 0.86872 0.98363 0.0
H978 H 0.83777 0.88415 0.0756 0.0
H979 H 0.84613 0.87853 0.01693 0.0
H980 H 0.82293 0.78927 0.03501 0.0
H981 H 0.81486 0.79496 0.09356 0.0
C982 C 0.82376 0.80248 0.9346 0.0
C983 C 0.84971 0.82261 0.91851 0.0
C984 C 0.81919 0.80597 0.96798 0.0
C985 C 0.84019 0.82992 0.98605 0.0
C986 C 0.86601 0.85023 0.97013 0.0
C987 C 0.87083 0.84651 0.93683 0.0
C988 C 0.83438 0.86334 0.06692 0.0
C989 C 0.82574 0.84 0.08906 0.0
C990 C 0.83935 0.86019 0.03349 0.0
C991 C 0.83521 0.83348 0.0215 0.0
C992 C 0.82616 0.81005 0.04358 0.0
C993 C 0.82169 0.81335 0.07706 0.0
H994 H 0.23803 0.04932 0.932 0.0
H995 H 0.14471 0.00718 0.92024 0.0
H996 H 0.2317 0.03589 0.99045 0.0
H997 H 0.1383 0.99411 0.97876 0.0
H998 H 0.1361 0.94895 0.07545 0.0
H999 H 0.14322 0.96233 0.01707 0.0
H1000 H 0.21683 0.04615 0.04241 0.0
H1001 H 0.21065 0.03219 0.10053 0.0
C1002 C 0.21617 0.03752 0.94202 0.0
C1003 C 0.19187 0.02932 0.92151 0.0
C1004 C 0.21252 0.02981 0.97554 0.0
C1005 C 0.18447 0.01384 0.98936 0.0
C1006 C 0.16019 0.00593 0.96885 0.0
C1007 C 0.16385 0.0135 0.93532 0.0
C1008 C 0.15401 0.97011 0.06854 0.0
C1009 C 0.17274 0.98949 0.09277 0.0
C1010 C 0.15788 0.97794 0.03507 0.0
C1011 C 0.18052 0.0054 0.02498 0.0
C1012 C 0.19933 0.02473 0.0492 0.0
C1013 C 0.19553 0.01686 0.08265 0.0
H1014 H 0.60809 0.48199 0.26576 0.0
H1015 H 0.69672 0.51262 0.23527 0.0
H1016 H 0.62342 0.48998 0.32359 0.0
H1017 H 0.71252 0.52202 0.29286 0.0
H1018 H 0.72848 0.51108 0.40136 0.0
H1019 H 0.71296 0.50141 0.34358 0.0
H1020 H 0.6478 0.5258 0.36342 0.0
H1021 H 0.66254 0.53396 0.42137 0.0
C1022 C 0.63092 0.49068 0.2715 0.0
C1023 C 0.6512 0.49662 0.24607 0.0
C1024 C 0.63982 0.49547 0.30466 0.0
C1025 C 0.66933 0.50684 0.31318 0.0
C1026 C 0.68956 0.51276 0.28753 0.0
C1027 C 0.68056 0.50749 0.25444 0.0
C1028 C 0.71091 0.51442 0.39319 0.0
C1029 C 0.69662 0.52313 0.4158 0.0
C1030 C 0.70203 0.50901 0.36002 0.0
C1031 C 0.67896 0.51268 0.34856 0.0
C1032 C 0.66513 0.522 0.37128 0.0
C1033 C 0.67369 0.52691 0.40451 0.0
H1034 H 0.45294 0.14294 0.42157 0.0
H1035 H 0.53382 0.22512 0.41759 0.0
H1036 H 0.45864 0.13436 0.36354 0.0
H1037 H 0.53992 0.21571 0.35977 0.0
H1038 H 0.55317 0.16882 0.26862 0.0
H1039 H 0.54777 0.17824 0.32696 0.0
H1040 H 0.45939 0.15765 0.30783 0.0
H1041 H 0.46481 0.14836 0.24966 0.0
C1042 C 0.47179 0.15938 0.40836 0.0
C1043 C 0.4928 0.18487 0.42449 0.0
C1044 C 0.47511 0.1543 0.3751 0.0
C1045 C 0.49974 0.17433 0.35718 0.0
C1046 C 0.52088 0.19973 0.37313 0.0
C1047 C 0.51737 0.20505 0.40633 0.0
C1048 C 0.53259 0.16619 0.27699 0.0
C1049 C 0.50943 0.15791 0.25465 0.0
C1050 C 0.52958 0.1718 0.31024 0.0
C1051 C 0.50318 0.16873 0.32187 0.0
C1052 C 0.47993 0.16006 0.29959 0.0
C1053 C 0.48308 0.15491 0.26629 0.0
H1054 H 0.88946 0.35031 0.25855 0.0
H1055 H 0.81465 0.36242 0.26267 0.0
H1056 H 0.88315 0.3374 0.31706 0.0
H1057 H 0.80774 0.34808 0.32086 0.0
H1058 H 0.78953 0.28815 0.41378 0.0
H1059 H 0.79552 0.30107 0.35478 0.0
H1060 H 0.88594 0.36436 0.37201 0.0
H1061 H 0.87987 0.35169 0.4309 0.0
C1062 C 0.8718 0.35047 0.27184 0.0
C1063 C 0.85266 0.35759 0.25565 0.0
C1064 C 0.86811 0.34285 0.30535 0.0
C1065 C 0.84493 0.34169 0.32338 0.0
C1066 C 0.8256 0.3485 0.30736 0.0
C1067 C 0.82955 0.35659 0.27395 0.0
C1068 C 0.81065 0.30473 0.40483 0.0
C1069 C 0.83422 0.319 0.42678 0.0
C1070 C 0.81403 0.31224 0.37123 0.0
C1071 C 0.84118 0.33372 0.35895 0.0
C1072 C 0.86483 0.34764 0.38085 0.0
C1073 C 0.86132 0.34052 0.41449 0.0
H1074 H 0.34302 0.87912 0.75716 0.0
H1075 H 0.37528 0.81917 0.74732 0.0
H1076 H 0.32713 0.87051 0.69967 0.0
H1077 H 0.35996 0.81094 0.68937 0.0
H1078 H 0.30246 0.78105 0.59643 0.0
H1079 H 0.31798 0.78882 0.65432 0.0
H1080 H 0.34509 0.8801 0.64474 0.0
H1081 H 0.32901 0.87211 0.58732 0.0
C1082 C 0.34709 0.86439 0.74253 0.0
C1083 C 0.36052 0.84993 0.75677 0.0
C1084 C 0.338 0.85945 0.7095 0.0
C1085 C 0.34231 0.84007 0.6897 0.0
C1086 C 0.35586 0.82566 0.70395 0.0
C1087 C 0.36476 0.83045 0.73714 0.0
C1088 C 0.31178 0.80276 0.60675 0.0
C1089 C 0.31432 0.82591 0.58736 0.0
C1090 C 0.3208 0.80727 0.6399 0.0
C1091 C 0.33277 0.8351 0.65435 0.0
C1092 C 0.33545 0.85825 0.63476 0.0
C1093 C 0.32624 0.85369 0.60177 0.0
H1094 H 0.20988 0.47917 0.6042 0.0
H1095 H 0.1361 0.48884 0.57806 0.0
H1096 H 0.20186 0.48495 0.66264 0.0
H1097 H 0.12875 0.49539 0.63627 0.0
H1098 H 0.14869 0.54024 0.73914 0.0
H1099 H 0.15528 0.53268 0.68086 0.0
H1100 H 0.16416 0.45862 0.7071 0.0
H1101 H 0.15675 0.46553 0.76524 0.0
C1102 C 0.19185 0.48232 0.61085 0.0
C1103 C 0.17382 0.48377 0.58626 0.0
C1104 C 0.18732 0.4857 0.64434 0.0
C1105 C 0.1648 0.49083 0.65399 0.0
C1106 C 0.14659 0.49198 0.62953 0.0
C1107 C 0.15093 0.48832 0.59613 0.0
C1108 C 0.15165 0.5221 0.73251 0.0
C1109 C 0.1523 0.50361 0.75705 0.0
C1110 C 0.15552 0.51784 0.6991 0.0
C1111 C 0.16036 0.49513 0.68944 0.0
C1112 C 0.16092 0.47658 0.71386 0.0
C1113 C 0.15677 0.48065 0.74721 0.0
H1114 H 0.48945 0.68297 0.76061 0.0
H1115 H 0.48824 0.604 0.73106 0.0
H1116 H 0.49809 0.69965 0.70335 0.0
H1117 H 0.49736 0.62102 0.67385 0.0
H1118 H 0.54729 0.67645 0.58378 0.0
H1119 H 0.53736 0.65967 0.64106 0.0
H1120 H 0.47431 0.68829 0.64846 0.0
H1121 H 0.48474 0.70573 0.59132 0.0
C1122 C 0.49062 0.66895 0.74189 0.0
C1123 C 0.48814 0.64209 0.75061 0.0
C1124 C 0.49567 0.6786 0.70904 0.0
C1125 C 0.49856 0.66174 0.68405 0.0
C1126 C 0.49573 0.63475 0.69261 0.0
C1127 C 0.49052 0.62501 0.72546 0.0
C1128 C 0.53156 0.67949 0.59774 0.0
C1129 C 0.51686 0.6925 0.58297 0.0
C1130 C 0.5256 0.66953 0.63045 0.0
C1131 C 0.50492 0.67248 0.64928 0.0
C1132 C 0.49048 0.68583 0.63468 0.0
C1133 C 0.4963 0.69563 0.60187 0.0
H1134 H 0.08148 0.99778 0.22047 0.0
H1135 H 0.16133 0.03729 0.27706 0.0
H1136 H 0.07702 0.04073 0.22897 0.0
H1137 H 0.15661 0.08043 0.28608 0.0
H1138 H 0.15642 0.16428 0.24799 0.0
H1139 H 0.16063 0.12058 0.25146 0.0
H1140 H 0.06821 0.06886 0.26994 0.0
H1141 H 0.06378 0.11211 0.26521 0.0
C1142 C 0.09792 0.01552 0.23512 0.0
C1143 C 0.12186 0.01419 0.2479 0.0
C1144 C 0.09524 0.0401 0.24023 0.0
C1145 C 0.11647 0.06407 0.2582 0.0
C1146 C 0.14002 0.06243 0.27189 0.0
C1147 C 0.14261 0.03765 0.26693 0.0
C1148 C 0.13705 0.14363 0.25305 0.0
C1149 C 0.10975 0.14181 0.25599 0.0
C1150 C 0.1395 0.1186 0.25538 0.0
C1151 C 0.11469 0.09116 0.26065 0.0
C1152 C 0.08768 0.08959 0.26538 0.0
C1153 C 0.08523 0.11456 0.26307 0.0
H1154 H 0.01006 0.08455 0.21568 0.0
H1155 H 0.9713 0.12437 0.2746 0.0
H1156 H 0.96719 0.03711 0.22396 0.0
H1157 H 0.92828 0.07643 0.28352 0.0
H1158 H 0.84381 0.99205 0.24815 0.0
H1159 H 0.88738 0.04009 0.25038 0.0
H1160 H 0.9402 1.00001 0.26459 0.0
H1161 H 0.89712 0.95223 0.26086 0.0
C1162 C 0.99249 0.08314 0.23076 0.0
C1163 C 0.99404 0.10828 0.2443 0.0
C1164 C 0.96795 0.05584 0.23575 0.0
C1165 C 0.94425 0.0529 0.25444 0.0
C1166 C 0.94606 0.07797 0.26874 0.0
C1167 C 0.97077 0.1054 0.26383 0.0
C1168 C 0.86467 0.99346 0.25191 0.0
C1169 C 0.86678 0.96808 0.25395 0.0
C1170 C 0.88966 0.02105 0.25355 0.0
C1171 C 0.91735 0.02392 0.2573 0.0
C1172 C 0.91927 0.9986 0.26113 0.0
C1173 C 0.89438 0.97108 0.25941 0.0
H1174 H 0.92324 0.92441 0.21745 0.0
H1175 H 0.88249 0.8435 0.27196 0.0
H1176 H 0.97064 0.92899 0.22621 0.0
H1177 H 0.93041 0.84831 0.2812 0.0
H1178 H 0.01603 0.85069 0.24395 0.0
H1179 H 0.9677 0.84562 0.24664 0.0
H1180 H 0.00679 0.9374 0.26823 0.0
H1181 H 0.05488 0.94272 0.26433 0.0
C1182 C 0.92444 0.90772 0.23166 0.0
C1183 C 0.89908 0.88351 0.24385 0.0
C1184 C 0.95171 0.91048 0.23693 0.0
C1185 C 0.95437 0.88903 0.25444 0.0
C1186 C 0.92906 0.8651 0.2674 0.0
C1187 C 0.90167 0.86245 0.26232 0.0
C1188 C 0.0143 0.86973 0.24951 0.0
C1189 C 0.03948 0.89714 0.25359 0.0
C1190 C 0.98657 0.86677 0.2514 0.0
C1191 C 0.98338 0.89117 0.25732 0.0
C1192 C 0.00848 0.91824 0.26315 0.0
C1193 C 0.03614 0.9212 0.2613 0.0
H1194 H 1.00419 0.08222 0.78927 0.0
H1195 H 0.04175 0.16229 0.73322 0.0
H1196 H 0.04821 0.07956 0.78101 0.0
H1197 H 0.08597 0.15944 0.72463 0.0
H1198 H 0.17084 0.16157 0.76462 0.0
H1199 H 0.12633 0.16439 0.76083 0.0
H1200 H 0.0772 0.07245 0.73865 0.0
H1201 H 0.1212 0.0694 0.74342 0.0
C1202 C 0.02173 0.09909 0.77482 0.0
C1203 C 0.01953 0.12253 0.76203 0.0
C1204 C 0.04691 0.09745 0.76987 0.0
C1205 C 0.0706 0.1193 0.75215 0.0
C1206 C 0.06815 0.14239 0.73858 0.0
C1207 C 0.04277 0.14391 0.74331 0.0
C1208 C 0.15059 0.14206 0.75858 0.0
C1209 C 0.14968 0.11527 0.75458 0.0
C1210 C 0.12513 0.14371 0.75612 0.0
C1211 C 0.09819 0.11857 0.74976 0.0
C1212 C 0.09755 0.09214 0.74399 0.0
C1213 C 0.12295 0.09049 0.74635 0.0
H1214 H 0.84983 0.02106 0.74295 0.0
H1215 H 0.93981 0.04617 0.75899 0.0
H1216 H 0.83713 0.97017 0.73904 0.0
H1217 H 0.92713 0.99515 0.75603 0.0
H1218 H 0.8962 0.89933 0.73351 0.0
H1219 H 0.90974 0.95034 0.72483 0.0
H1220 H 0.83298 0.93538 0.77863 0.0
H1221 H 0.81922 0.88492 0.78634 0.0
C1222 C 0.86691 0.01566 0.74545 0.0
C1223 C 0.89573 0.03755 0.75161 0.0
C1224 C 0.85967 0.98649 0.74335 0.0
C1225 C 0.88101 0.9784 0.74783 0.0
C1226 C 0.91015 1.00051 0.75222 0.0
C1227 C 0.91743 0.02978 0.75397 0.0
C1228 C 0.88211 0.90695 0.74309 0.0
C1229 C 0.85663 0.88799 0.76063 0.0
C1230 C 0.88994 0.93621 0.7383 0.0
C1231 C 0.87239 0.94704 0.75085 0.0
C1232 C 0.84677 0.92783 0.76795 0.0
C1233 C 0.83899 0.8988 0.77268 0.0
H1234 H 0.09188 0.01882 0.7956 0.0
H1235 H 0.12939 0.97855 0.73535 0.0
H1236 H 0.04384 0.97651 0.78807 0.0
H1237 H 0.08092 0.93623 0.7271 0.0
H1238 H 0.99828 0.8525 0.76389 0.0
H1239 H 0.04597 0.89623 0.76106 0.0
H1240 H 1.00495 0.94849 0.74963 0.0
H1241 H 0.95723 0.90485 0.75389 0.0
C1242 C 0.08983 1.00106 0.78036 0.0
C1243 C 0.11453 1.00194 0.76636 0.0
C1244 C 0.06217 0.97685 0.77578 0.0
C1245 C 0.05846 0.95286 0.75707 0.0
C1246 C 0.08306 0.95418 0.74202 0.0
C1247 C 0.1108 0.97851 0.74655 0.0
C1248 C 0.99939 0.87329 0.76077 0.0
C1249 C 0.97383 0.87509 0.75956 0.0
C1250 C 0.02679 0.89838 0.7587 0.0
C1251 C 0.02935 0.92595 0.75532 0.0
C1252 C 1.00378 0.92765 0.75269 0.0
C1253 C 0.97636 0.90254 0.75479 0.0
H1254 H 0.7472 0.33152 0.57336 0.0
H1255 H 0.84022 0.38073 0.58756 0.0
H1256 H 0.74475 0.376 0.57756 0.0
H1257 H 0.8384 0.42581 0.58932 0.0
H1258 H 0.82396 0.5028 0.60821 0.0
H1259 H 0.82605 0.45778 0.61435 0.0
H1260 H 0.75478 0.415 0.54467 0.0
H1261 H 0.75204 0.45926 0.54064 0.0
C1262 C 0.76713 0.35198 0.57747 0.0
C1263 C 0.79387 0.35281 0.58005 0.0
C1264 C 0.76586 0.3776 0.57948 0.0
C1265 C 0.79148 0.40484 0.58294 0.0
C1266 C 0.81816 0.40539 0.5869 0.0
C1267 C 0.81928 0.37957 0.58581 0.0
C1268 C 0.80886 0.48354 0.59447 0.0
C1269 C 0.78774 0.4841 0.57415 0.0
C1270 C 0.81002 0.4578 0.59779 0.0
C1271 C 0.79035 0.43238 0.58033 0.0
C1272 C 0.7697 0.43358 0.55942 0.0
C1273 C 0.76825 0.459 0.55671 0.0
H1274 H 0.64185 0.4642 0.5825 0.0
H1275 H 0.69512 0.42686 0.55652 0.0
H1276 H 0.59993 0.41555 0.58943 0.0
H1277 H 0.65405 0.37821 0.56574 0.0
H1278 H 0.56864 0.29563 0.54359 0.0
H1279 H 0.61173 0.34389 0.54152 0.0
H1280 H 0.57515 0.37287 0.61852 0.0
H1281 H 0.53135 0.32494 0.61858 0.0
C1282 C 0.64468 0.44549 0.57915 0.0
C1283 C 0.67155 0.44916 0.56879 0.0
C1284 C 0.62069 0.4175 0.58325 0.0
C1285 C 0.62326 0.39258 0.57786 0.0
C1286 C 0.65077 0.39661 0.56914 0.0
C1287 C 0.67448 0.42454 0.56419 0.0
C1288 C 0.57006 0.31239 0.56013 0.0
C1289 C 0.54675 0.30673 0.5811 0.0
C1290 C 0.59485 0.34009 0.5592 0.0
C1291 C 0.59723 0.36265 0.57988 0.0
C1292 C 0.57405 0.35649 0.60162 0.0
C1293 C 0.54898 0.32897 0.60191 0.0
H1294 H 0.69047 0.18249 0.60465 0.0
H1295 H 0.71522 0.2719 0.58513 0.0
H1296 H 0.63957 0.16976 0.60844 0.0
H1297 H 0.6642 0.25918 0.58808 0.0
H1298 H 0.56854 0.22864 0.61025 0.0
H1299 H 0.61949 0.24228 0.6197 0.0
H1300 H 0.60478 0.1647 0.56791 0.0
H1301 H 0.55436 0.15088 0.55934 0.0
C1302 C 0.685 0.19945 0.6014 0.0
C1303 C 0.70679 0.22809 0.59423 0.0
C1304 C 0.65583 0.19219 0.60345 0.0
C1305 C 0.64765 0.21333 0.59796 0.0
C1306 C 0.66966 0.24236 0.59266 0.0
C1307 C 0.69893 0.24967 0.59093 0.0
C1308 C 0.5762 0.21439 0.60128 0.0
C1309 C 0.55736 0.18871 0.58397 0.0
C1310 C 0.60541 0.22227 0.60652 0.0
C1311 C 0.61629 0.20454 0.5947 0.0
C1312 C 0.59717 0.17865 0.57798 0.0
C1313 C 0.56818 0.17084 0.57276 0.0
H1314 H 0.77719 0.39907 0.07867 0.0
H1315 H 0.83509 0.48644 0.11382 0.0
H1316 H 0.73997 0.41232 0.06748 0.0
H1317 H 0.7978 0.49889 0.10513 0.0
H1318 H 0.73696 0.5257 0.07042 0.0
H1319 H 0.77261 0.50974 0.06692 0.0
H1320 H 0.70611 0.42247 0.09391 0.0
H1321 H 0.67004 0.43839 0.09503 0.0
C1322 C 0.7821 0.42108 0.08392 0.0
C1323 C 0.80922 0.44154 0.0975 0.0
C1324 C 0.76059 0.42861 0.07786 0.0
C1325 C 0.76568 0.45676 0.08529 0.0
C1326 C 0.793 0.47719 0.09834 0.0
C1327 C 0.81443 0.46981 0.104 0.0
C1328 C 0.72991 0.50297 0.07487 0.0
C1329 C 0.70088 0.48333 0.08319 0.0
C1330 C 0.75039 0.4938 0.07327 0.0
C1331 C 0.7426 0.46491 0.08108 0.0
C1332 C 0.71305 0.44484 0.0876 0.0
C1333 C 0.69232 0.45393 0.08834 0.0
H1334 H 0.5957 0.25249 0.13082 0.0
H1335 H 0.51846 0.21447 0.0697 0.0
H1336 H 0.60161 0.30048 0.12234 0.0
H1337 H 0.52468 0.26294 0.06072 0.0
H1338 H 0.52458 0.34676 0.09759 0.0
H1339 H 0.51991 0.29866 0.09525 0.0
H1340 H 0.6129 0.3385 0.08172 0.0
H1341 H 0.61769 0.38654 0.08523 0.0
C1342 C 0.58016 0.25443 0.1152 0.0
C1343 C 0.55649 0.22964 0.10112 0.0
C1344 C 0.58369 0.28203 0.1101 0.0
C1345 C 0.5636 0.28558 0.09089 0.0
C1346 C 0.54038 0.26088 0.07591 0.0
C1347 C 0.53693 0.23317 0.08086 0.0
C1348 C 0.54401 0.34526 0.09403 0.0
C1349 C 0.57153 0.37057 0.09197 0.0
C1350 C 0.54129 0.31766 0.09228 0.0
C1351 C 0.56605 0.31472 0.08849 0.0
C1352 C 0.59343 0.34002 0.08504 0.0
C1353 C 0.59614 0.3676 0.08673 0.0
H1354 H 0.79143 0.26743 0.12151 0.0
H1355 H 0.77502 0.32953 0.07081 0.0
H1356 H 0.74115 0.23031 0.11481 0.0
H1357 H 0.72402 0.29144 0.06292 0.0
H1358 H 0.6292 0.22487 0.09855 0.0
H1359 H 0.67993 0.26357 0.09436 0.0
H1360 H 0.70555 0.19905 0.07705 0.0
H1361 H 0.65492 0.16047 0.08246 0.0
C1362 C 0.77714 0.27314 0.10848 0.0
C1363 C 0.78736 0.30161 0.09683 0.0
C1364 C 0.74816 0.25158 0.10429 0.0
C1365 C 0.72836 0.25763 0.08805 0.0
C1366 C 0.7386 0.28602 0.07577 0.0
C1367 C 0.76784 0.30782 0.08009 0.0
C1368 C 0.64566 0.21904 0.09327 0.0
C1369 C 0.63816 0.18961 0.09121 0.0
C1370 C 0.67478 0.24125 0.09076 0.0
C1371 C 0.69703 0.23453 0.08585 0.0
C1372 C 0.68916 0.20509 0.08175 0.0
C1373 C 0.66014 0.18292 0.08472 0.0
H1374 H 0.39717 0.77235 0.90653 0.0
H1375 H 0.48666 0.83614 0.92712 0.0
H1376 H 0.40962 0.73359 0.90847 0.0
H1377 H 0.49905 0.79777 0.92983 0.0
H1378 H 0.51872 0.7329 0.87994 0.0
H1379 H 0.50363 0.76864 0.88748 0.0
H1380 H 0.42726 0.70553 0.94071 0.0
H1381 H 0.44226 0.66901 0.93245 0.0
C1382 C 0.41933 0.77796 0.91222 0.0
C1383 C 0.44107 0.80728 0.91612 0.0
C1384 C 0.42648 0.7558 0.91338 0.0
C1385 C 0.45547 0.76261 0.91867 0.0
C1386 C 0.47668 0.79179 0.92479 0.0
C1387 C 0.4696 0.8138 0.92333 0.0
C1388 C 0.49876 0.7265 0.89344 0.0
C1389 C 0.48175 0.69803 0.90564 0.0
C1390 C 0.49019 0.74718 0.89801 0.0
C1391 C 0.46435 0.74014 0.91502 0.0
C1392 C 0.44725 0.71165 0.92741 0.0
C1393 C 0.45593 0.69081 0.92289 0.0
H1394 H 0.27006 0.78953 0.88366 0.0
H1395 H 0.3294 0.77397 0.94168 0.0
H1396 H 0.23231 0.7396 0.89099 0.0
H1397 H 0.29062 0.72329 0.95003 0.0
H1398 H 0.22406 0.62762 0.91568 0.0
H1399 H 0.26327 0.67819 0.91934 0.0
H1400 H 0.19948 0.70572 0.92952 0.0
H1401 H 0.16043 0.65522 0.92476 0.0
C1402 C 0.27503 0.77551 0.89839 0.0
C1403 C 0.30291 0.78587 0.912 0.0
C1404 C 0.2531 0.74675 0.90291 0.0
C1405 C 0.25816 0.7273 0.92141 0.0
C1406 C 0.28598 0.73763 0.93549 0.0
C1407 C 0.30815 0.76668 0.93087 0.0
C1408 C 0.21848 0.64447 0.91934 0.0
C1409 C 0.18915 0.63751 0.91955 0.0
C1410 C 0.24098 0.6735 0.92151 0.0
C1411 C 0.23463 0.6962 0.92421 0.0
C1412 C 0.20524 0.68893 0.92655 0.0
C1413 C 0.1828 0.65999 0.92395 0.0
H1414 H 0.25158 0.5952 0.87982 0.0
H1415 H 0.21385 0.5184 0.94158 0.0
H1416 H 0.29936 0.60026 0.88675 0.0
H1417 H 0.26213 0.52382 0.94908 0.0
H1418 H 0.34388 0.52137 0.90938 0.0
H1419 H 0.29637 0.51781 0.91371 0.0
H1420 H 0.3383 0.61115 0.92553 0.0
H1421 H 0.38569 0.61485 0.91986 0.0
C1422 C 0.25355 0.5796 0.89529 0.0
C1423 C 0.22888 0.55627 0.90994 0.0
C1424 C 0.28105 0.58265 0.89949 0.0
C1425 C 0.28461 0.56241 0.91842 0.0
C1426 C 0.26007 0.5396 0.93407 0.0
C1427 C 0.23246 0.53662 0.92998 0.0
C1428 C 0.34298 0.54113 0.91297 0.0
C1429 C 0.36868 0.56841 0.91385 0.0
C1430 C 0.31572 0.53905 0.91589 0.0
C1431 C 0.31351 0.56422 0.91974 0.0
C1432 C 0.33923 0.59137 0.92214 0.0
C1433 C 0.36647 0.59345 0.91923 0.0
H1434 H 0.4051 0.85481 0.45102 0.0
H1435 H 0.33839 0.77589 0.4049 0.0
H1436 H 0.44005 0.83873 0.44343 0.0
H1437 H 0.37409 0.75985 0.39651 0.0
H1438 H 0.44088 0.73024 0.43254 0.0
H1439 H 0.40263 0.74336 0.42925 0.0
H1440 H 0.4673 0.83103 0.40163 0.0
H1441 H 0.50519 0.81803 0.40597 0.0
C1442 C 0.39791 0.83409 0.43887 0.0
C1443 C 0.36886 0.81665 0.42862 0.0
C1444 C 0.41813 0.82494 0.43424 0.0
C1445 C 0.41004 0.79808 0.41907 0.0
C1446 C 0.38102 0.78062 0.4084 0.0
C1447 C 0.36063 0.78988 0.41301 0.0
C1448 C 0.44666 0.75211 0.42516 0.0
C1449 C 0.47598 0.77329 0.42004 0.0
C1450 C 0.42481 0.75964 0.42321 0.0
C1451 C 0.43196 0.78843 0.41583 0.0
C1452 C 0.46109 0.80889 0.40831 0.0
C1453 C 0.48281 0.80147 0.41065 0.0
H1454 H 0.17957 0.54646 0.42387 0.0
H1455 H 0.27165 0.58558 0.44277 0.0
H1456 H 0.18451 0.59459 0.42083 0.0
H1457 H 0.27736 0.63381 0.43717 0.0
H1458 H 0.27403 0.71416 0.46734 0.0
H1459 H 0.26944 0.66619 0.46595 0.0
H1460 H 0.19966 0.63806 0.39429 0.0
H1461 H 0.20329 0.68573 0.3979 0.0
C1462 C 0.20102 0.56548 0.42642 0.0
C1463 C 0.22521 0.56243 0.43371 0.0
C1464 C 0.20397 0.59317 0.42456 0.0
C1465 C 0.23134 0.61842 0.42914 0.0
C1466 C 0.25575 0.61508 0.43458 0.0
C1467 C 0.25263 0.58742 0.43739 0.0
C1468 C 0.25779 0.6976 0.45133 0.0
C1469 C 0.23896 0.70344 0.43282 0.0
C1470 C 0.25525 0.67011 0.4502 0.0
C1471 C 0.23426 0.64796 0.42978 0.0
C1472 C 0.21571 0.65417 0.41081 0.0
C1473 C 0.21782 0.68151 0.41266 0.0
H1474 H 0.44362 0.66204 0.39753 0.0
H1475 H 0.45857 0.60232 0.45559 0.0
H1476 H 0.393 0.62343 0.38855 0.0
H1477 H 0.40863 0.56467 0.44761 0.0
H1478 H 0.32413 0.49333 0.41377 0.0
H1479 H 0.37472 0.53209 0.40867 0.0
H1480 H 0.34792 0.5964 0.41928 0.0
H1481 H 0.29727 0.55748 0.42327 0.0
C1482 C 0.43621 0.64073 0.4082 0.0
C1483 C 0.45518 0.63534 0.42731 0.0
C1484 C 0.4072 0.61865 0.40322 0.0
C1485 C 0.39669 0.59078 0.41716 0.0
C1486 C 0.41594 0.58553 0.43582 0.0
C1487 C 0.44469 0.60738 0.44072 0.0
C1488 C 0.32908 0.51576 0.41454 0.0
C1489 C 0.3068 0.52235 0.41927 0.0
C1490 C 0.35806 0.53802 0.41175 0.0
C1491 C 0.36555 0.56746 0.4142 0.0
C1492 C 0.34303 0.57405 0.41704 0.0
C1493 C 0.31396 0.55173 0.41941 0.0
loop_
_geom_bond_atom_site_label_1
_geom_bond_atom_site_label_2
_geom_bond_distance
_geom_bond_site_symmetry_2
_ccdc_geom_bond_type
Co0 N4 2.148 1_455 S
Co0 N10 2.128 . S
Co0 N20 2.194 . S
Co0 O25 2.351 . S
Co0 O26 2.155 . S
Co0 O27 2.096 1_455 S
C1 N4 1.301 . S
C1 N5 1.328 . S
C1 H6 0.930 1_655 S
C2 C3 1.333 . S
C2 N4 1.317 . S
C2 H7 0.930 . S
C3 C2 1.333 . S
C3 N5 1.350 . S
C3 H29 0.931 . S
N4 Co0 2.148 1_655 S
N4 C1 1.301 . S
N4 C2 1.317 . S
N5 C1 1.328 . S
N5 C3 1.350 . S
H6 C1 0.930 1_455 S
H7 C2 0.930 . S
C8 O9 1.224 . S
C8 O27 1.247 . S
O9 C8 1.224 . S
N10 Co0 2.128 . S
N10 C11 1.355 . S
N10 C13 1.311 . S
C11 N10 1.355 . S
C11 C12 1.363 . S
C11 H23 0.929 . S
C12 C11 1.363 . S
C12 N14 1.375 . S
C12 H30 0.931 . S
C13 N10 1.311 . S
C13 N14 1.347 . S
C13 H24 0.929 . S
N14 C12 1.375 . S
N14 C13 1.347 . S
C15 C18 1.365 . S
C15 N20 1.328 . S
C15 H21 0.929 . S
C16 C17 1.362 . S
C16 C19 1.378 . S
C16 H31 0.929 . S
C17 C16 1.362 . S
C17 C18 1.366 . S
C18 C15 1.365 . S
C18 C17 1.366 . S
C18 H32 0.930 . S
C19 C16 1.378 . S
C19 N20 1.315 . S
C19 H22 0.937 . S
N20 Co0 2.194 . S
N20 C15 1.328 . S
N20 C19 1.315 . S
H21 C15 0.929 . S
H22 C19 0.937 . S
H23 C11 0.929 . S
H24 C13 0.929 . S
O25 Co0 2.351 . S
O25 C28 1.244 . S
O26 Co0 2.155 . S
O26 C28 1.240 . S
O27 Co0 2.096 1_655 S
O27 C8 1.247 . S
C28 O25 1.244 . S
C28 O26 1.240 . S
H29 C3 0.931 . S
H30 C12 0.931 . S
H31 C16 0.929 . S
H32 C18 0.930 . S
Co33 N37 2.148 . S
Co33 N43 2.128 . S
Co33 N53 2.194 . S
Co33 O58 2.351 . S
Co33 O59 2.155 . S
Co33 O60 2.096 . S
C34 N37 1.301 . S
C34 N38 1.328 . S
C34 H39 0.930 . S
C35 C36 1.333 . S
C35 N37 1.317 . S
C35 H40 0.930 . S
C36 C35 1.333 . S
C36 N38 1.350 . S
C36 H62 0.931 . S
N37 Co33 2.148 . S
N37 C34 1.301 . S
N37 C35 1.317 . S
N38 C34 1.328 . S
N38 C36 1.350 . S
H39 C34 0.930 . S
H40 C35 0.930 . S
C41 O42 1.224 . S
C41 O60 1.247 . S
O42 C41 1.224 . S
N43 Co33 2.128 . S
N43 C44 1.355 . S
N43 C46 1.311 . S
C44 N43 1.355 . S
C44 C45 1.363 . S
C44 H56 0.929 . S
C45 C44 1.363 . S
C45 N47 1.375 . S
C45 H63 0.931 . S
C46 N43 1.311 . S
C46 N47 1.347 . S
C46 H57 0.929 . S
N47 C45 1.375 . S
N47 C46 1.347 . S
C48 C51 1.365 . S
C48 N53 1.328 . S
C48 H54 0.929 . S
C49 C50 1.362 . S
C49 C52 1.378 . S
C49 H64 0.929 . S
C50 C49 1.362 . S
C50 C51 1.366 . S
C51 C48 1.365 . S
C51 C50 1.366 . S
C51 H65 0.930 . S
C52 C49 1.378 . S
C52 N53 1.315 . S
C52 H55 0.930 . S
N53 Co33 2.194 . S
N53 C48 1.328 . S
N53 C52 1.315 . S
H54 C48 0.929 . S
H55 C52 0.930 . S
H56 C44 0.929 . S
H57 C46 0.929 . S
O58 Co33 2.351 . S
O58 C61 1.244 . S
O59 Co33 2.155 . S
O59 C61 1.240 . S
O60 Co33 2.096 . S
O60 C41 1.247 . S
C61 O58 1.244 . S
C61 O59 1.240 . S
H62 C36 0.931 . S
H63 C45 0.931 . S
H64 C49 0.929 . S
H65 C51 0.930 . S
Co66 N70 2.148 1_565 S
Co66 N76 2.128 . S
Co66 N86 2.194 . S
Co66 O91 2.351 . S
Co66 O92 2.155 . S
Co66 O93 2.096 1_565 S
C67 N70 1.301 . S
C67 N71 1.328 . S
C67 H72 0.930 1_545 S
C68 C69 1.333 . S
C68 N70 1.317 . S
C68 H73 0.930 . S
C69 C68 1.333 . S
C69 N71 1.350 . S
C69 H95 0.931 . S
N70 Co66 2.148 1_545 S
N70 C67 1.301 . S
N70 C68 1.317 . S
N71 C67 1.328 . S
N71 C69 1.350 . S
H72 C67 0.930 1_565 S
H73 C68 0.930 . S
C74 O75 1.224 . S
C74 O93 1.247 . S
O75 C74 1.224 . S
N76 Co66 2.128 . S
N76 C77 1.355 . S
N76 C79 1.311 . S
C77 N76 1.355 . S
C77 C78 1.363 . S
C77 H89 0.929 . S
C78 C77 1.363 . S
C78 N80 1.375 . S
C78 H96 0.931 . S
C79 N76 1.311 . S
C79 N80 1.347 . S
C79 H90 0.929 . S
N80 C78 1.375 . S
N80 C79 1.347 . S
C81 C84 1.365 . S
C81 N86 1.328 . S
C81 H87 0.929 . S
C82 C83 1.362 . S
C82 C85 1.378 . S
C82 H97 0.929 . S
C83 C82 1.362 . S
C83 C84 1.366 . S
C84 C81 1.365 . S
C84 C83 1.366 . S
C84 H98 0.930 . S
C85 C82 1.378 . S
C85 N86 1.315 . S
C85 H88 0.956 . S
N86 Co66 2.194 . S
N86 C81 1.328 . S
N86 C85 1.315 . S
H87 C81 0.929 . S
H88 C85 0.956 . S
H89 C77 0.929 . S
H90 C79 0.929 . S
O91 Co66 2.351 . S
O91 C94 1.244 . S
O92 Co66 2.155 . S
O92 C94 1.240 . S
O93 Co66 2.096 1_545 S
O93 C74 1.247 . S
C94 O91 1.244 . S
C94 O92 1.240 . S
H95 C69 0.931 . S
H96 C78 0.931 . S
H97 C82 0.929 . S
H98 C84 0.930 . S
Co99 N103 2.148 1_545 S
Co99 N109 2.128 . S
Co99 N119 2.194 . S
Co99 O124 2.351 . S
Co99 O125 2.155 . S
Co99 O126 2.096 1_545 S
C100 N103 1.301 . S
C100 N104 1.328 . S
C100 H105 0.930 1_565 S
C101 C102 1.333 . S
C101 N103 1.317 . S
C101 H106 0.930 . S
C102 C101 1.333 . S
C102 N104 1.350 . S
C102 H128 0.931 . S
N103 Co99 2.148 1_565 S
N103 C100 1.301 . S
N103 C101 1.317 . S
N104 C100 1.328 . S
N104 C102 1.350 . S
H105 C100 0.930 1_545 S
H106 C101 0.930 . S
C107 O108 1.224 . S
C107 O126 1.247 . S
O108 C107 1.224 . S
N109 Co99 2.128 . S
N109 C110 1.355 . S
N109 C112 1.311 . S
C110 N109 1.355 . S
C110 C111 1.363 . S
C110 H122 0.929 . S
C111 C110 1.363 . S
C111 N113 1.375 . S
C111 H129 0.931 . S
C112 N109 1.311 . S
C112 N113 1.347 . S
C112 H123 0.929 . S
N113 C111 1.375 . S
N113 C112 1.347 . S
C114 C117 1.365 . S
C114 N119 1.328 . S
C114 H120 0.929 . S
C115 C116 1.362 . S
C115 C118 1.378 . S
C115 H130 0.929 . S
C116 C115 1.362 . S
C116 C117 1.366 . S
C117 C114 1.365 . S
C117 C116 1.366 . S
C117 H131 0.930 . S
C118 C115 1.378 . S
C118 N119 1.315 . S
C118 H121 0.937 . S
N119 Co99 2.194 . S
N119 C114 1.328 . S
N119 C118 1.315 . S
H120 C114 0.929 . S
H121 C118 0.937 . S
H122 C110 0.929 . S
H123 C112 0.929 . S
O124 Co99 2.351 . S
O124 C127 1.244 . S
O125 Co99 2.155 . S
O125 C127 1.240 . S
O126 Co99 2.096 1_565 S
O126 C107 1.247 . S
C127 O124 1.244 . S
C127 O125 1.240 . S
H128 C102 0.931 . S
H129 C111 0.931 . S
H130 C115 0.929 . S
H131 C117 0.930 . S
Co132 N136 2.148 1_655 S
Co132 N142 2.128 . S
Co132 N152 2.194 . S
Co132 O157 2.351 . S
Co132 O158 2.155 . S
Co132 O159 2.096 1_655 S
C133 N136 1.301 . S
C133 N137 1.328 . S
C133 H138 0.930 1_455 S
C134 C135 1.333 . S
C134 N136 1.317 . S
C134 H139 0.930 . S
C135 C134 1.333 . S
C135 N137 1.350 . S
C135 H161 0.931 . S
N136 Co132 2.148 1_455 S
N136 C133 1.301 . S
N136 C134 1.317 . S
N137 C133 1.328 . S
N137 C135 1.350 . S
H138 C133 0.930 1_655 S
H139 C134 0.930 . S
C140 O141 1.224 . S
C140 O159 1.247 . S
O141 C140 1.224 . S
N142 Co132 2.128 . S
N142 C143 1.355 . S
N142 C145 1.311 . S
C143 N142 1.355 . S
C143 C144 1.363 . S
C143 H155 0.929 . S
C144 C143 1.363 . S
C144 N146 1.375 . S
C144 H162 0.931 . S
C145 N142 1.311 . S
C145 N146 1.347 . S
C145 H156 0.929 . S
N146 C144 1.375 . S
N146 C145 1.347 . S
C147 C150 1.365 . S
C147 N152 1.328 . S
C147 H153 0.929 . S
C148 C149 1.362 . S
C148 C151 1.378 . S
C148 H163 0.929 . S
C149 C148 1.362 . S
C149 C150 1.366 . S
C150 C147 1.365 . S
C150 C149 1.366 . S
C150 H164 0.930 . S
C151 C148 1.378 . S
C151 N152 1.315 . S
C151 H154 0.956 . S
N152 Co132 2.194 . S
N152 C147 1.328 . S
N152 C151 1.315 . S
H153 C147 0.929 . S
H154 C151 0.956 . S
H155 C143 0.929 . S
H156 C145 0.929 . S
O157 Co132 2.351 . S
O157 C160 1.244 . S
O158 Co132 2.155 . S
O158 C160 1.240 . S
O159 Co132 2.096 1_455 S
O159 C140 1.247 . S
C160 O157 1.244 . S
C160 O158 1.240 . S
H161 C135 0.931 . S
H162 C144 0.931 . S
H163 C148 0.929 . S
H164 C150 0.930 . S
Co165 N169 2.148 . S
Co165 N175 2.128 . S
Co165 N185 2.194 . S
Co165 O190 2.351 . S
Co165 O191 2.155 . S
Co165 O192 2.096 . S
C166 N169 1.301 . S
C166 N170 1.328 . S
C166 H171 0.930 . S
C167 C168 1.333 . S
C167 N169 1.317 . S
C167 H172 0.930 . S
C168 C167 1.333 . S
C168 N170 1.350 . S
C168 H194 0.931 . S
N169 Co165 2.148 . S
N169 C166 1.301 . S
N169 C167 1.317 . S
N170 C166 1.328 . S
N170 C168 1.350 . S
H171 C166 0.930 . S
H172 C167 0.930 . S
C173 O174 1.224 . S
C173 O192 1.247 . S
O174 C173 1.224 . S
N175 Co165 2.128 . S
N175 C176 1.355 . S
N175 C178 1.311 . S
C176 N175 1.355 . S
C176 C177 1.363 . S
C176 H188 0.929 . S
C177 C176 1.363 . S
C177 N179 1.375 . S
C177 H195 0.931 . S
C178 N175 1.311 . S
C178 N179 1.347 . S
C178 H189 0.929 . S
N179 C177 1.375 . S
N179 C178 1.347 . S
C180 C183 1.365 . S
C180 N185 1.328 . S
C180 H186 0.929 . S
C181 C182 1.362 . S
C181 C184 1.378 . S
C181 H196 0.929 . S
C182 C181 1.362 . S
C182 C183 1.366 . S
C183 C180 1.365 . S
C183 C182 1.366 . S
C183 H197 0.930 . S
C184 C181 1.378 . S
C184 N185 1.315 . S
C184 H187 0.930 . S
N185 Co165 2.194 . S
N185 C180 1.328 . S
N185 C184 1.315 . S
H186 C180 0.929 . S
H187 C184 0.930 . S
H188 C176 0.929 . S
H189 C178 0.929 . S
O190 Co165 2.351 . S
O190 C193 1.244 . S
O191 Co165 2.155 . S
O191 C193 1.240 . S
O192 Co165 2.096 . S
O192 C173 1.247 . S
C193 O190 1.244 . S
C193 O191 1.240 . S
H194 C168 0.931 . S
H195 C177 0.931 . S
H196 C181 0.929 . S
H197 C183 0.930 . S
Co198 N202 2.148 . S
Co198 N208 2.128 . S
Co198 N218 2.194 . S
Co198 O223 2.351 . S
Co198 O224 2.155 . S
Co198 O225 2.096 . S
C199 N202 1.301 . S
C199 N203 1.328 . S
C199 H204 0.930 . S
C200 C201 1.333 . S
C200 N202 1.317 . S
C200 H205 0.930 . S
C201 C200 1.333 . S
C201 N203 1.350 . S
C201 H227 0.931 . S
N202 Co198 2.148 . S
N202 C199 1.301 . S
N202 C200 1.317 . S
N203 C199 1.328 . S
N203 C201 1.350 . S
H204 C199 0.930 . S
H205 C200 0.930 . S
C206 O207 1.224 . S
C206 O225 1.247 . S
O207 C206 1.224 . S
N208 Co198 2.128 . S
N208 C209 1.355 . S
N208 C211 1.311 . S
C209 N208 1.355 . S
C209 C210 1.363 . S
C209 H221 0.929 . S
C210 C209 1.363 . S
C210 N212 1.375 . S
C210 H228 0.931 . S
C211 N208 1.311 . S
C211 N212 1.347 . S
C211 H222 0.929 . S
N212 C210 1.375 . S
N212 C211 1.347 . S
C213 C216 1.365 . S
C213 N218 1.328 . S
C213 H219 0.929 . S
C214 C215 1.362 . S
C214 C217 1.378 . S
C214 H229 0.929 . S
C215 C214 1.362 . S
C215 C216 1.366 . S
C216 C213 1.365 . S
C216 C215 1.366 . S
C216 H230 0.930 . S
C217 C214 1.378 . S
C217 N218 1.315 . S
C217 H220 0.930 . S
N218 Co198 2.194 . S
N218 C213 1.328 . S
N218 C217 1.315 . S
H219 C213 0.929 . S
H220 C217 0.930 . S
H221 C209 0.929 . S
H222 C211 0.929 . S
O223 Co198 2.351 . S
O223 C226 1.244 . S
O224 Co198 2.155 . S
O224 C226 1.240 . S
O225 Co198 2.096 . S
O225 C206 1.247 . S
C226 O223 1.244 . S
C226 O224 1.240 . S
H227 C201 0.931 . S
H228 C210 0.931 . S
H229 C214 0.929 . S
H230 C216 0.930 . S
Co231 N235 2.148 . S
Co231 N241 2.128 . S
Co231 N251 2.194 . S
Co231 O256 2.351 . S
Co231 O257 2.155 . S
Co231 O258 2.096 . S
C232 N235 1.301 . S
C232 N236 1.328 . S
C232 H237 0.930 . S
C233 C234 1.333 . S
C233 N235 1.317 . S
C233 H238 0.930 . S
C234 C233 1.333 . S
C234 N236 1.350 . S
C234 H260 0.931 . S
N235 Co231 2.148 . S
N235 C232 1.301 . S
N235 C233 1.317 . S
N236 C232 1.328 . S
N236 C234 1.350 . S
H237 C232 0.930 . S
H238 C233 0.930 . S
C239 O240 1.224 . S
C239 O258 1.247 . S
O240 C239 1.224 . S
N241 Co231 2.128 . S
N241 C242 1.355 . S
N241 C244 1.311 . S
C242 N241 1.355 . S
C242 C243 1.363 . S
C242 H254 0.929 . S
C243 C242 1.363 . S
C243 N245 1.375 . S
C243 H261 0.931 . S
C244 N241 1.311 . S
C244 N245 1.347 . S
C244 H255 0.929 . S
N245 C243 1.375 . S
N245 C244 1.347 . S
C246 C249 1.365 . S
C246 N251 1.328 . S
C246 H252 0.929 . S
C247 C248 1.362 . S
C247 C250 1.378 . S
C247 H262 0.929 . S
C248 C247 1.362 . S
C248 C249 1.366 . S
C249 C246 1.365 . S
C249 C248 1.366 . S
C249 H263 0.930 . S
C250 C247 1.378 . S
C250 N251 1.315 . S
C250 H253 0.930 . S
N251 Co231 2.194 . S
N251 C246 1.328 . S
N251 C250 1.315 . S
H252 C246 0.929 . S
H253 C250 0.930 . S
H254 C242 0.929 . S
H255 C244 0.929 . S
O256 Co231 2.351 . S
O256 C259 1.244 . S
O257 Co231 2.155 . S
O257 C259 1.240 . S
O258 Co231 2.096 . S
O258 C239 1.247 . S
C259 O256 1.244 . S
C259 O257 1.240 . S
H260 C234 0.931 . S
H261 C243 0.931 . S
H262 C247 0.929 . S
H263 C249 0.930 . S
Co264 N268 2.148 . S
Co264 N274 2.128 . S
Co264 N284 2.194 . S
Co264 O289 2.351 . S
Co264 O290 2.155 . S
Co264 O291 2.096 . S
C265 N268 1.301 . S
C265 N269 1.328 . S
C265 H270 0.930 . S
C266 C267 1.333 . S
C266 N268 1.317 . S
C266 H271 0.930 . S
C267 C266 1.333 . S
C267 N269 1.350 . S
C267 H293 0.931 . S
N268 Co264 2.148 . S
N268 C265 1.301 . S
N268 C266 1.317 . S
N269 C265 1.328 . S
N269 C267 1.350 . S
H270 C265 0.930 . S
H271 C266 0.930 . S
C272 O273 1.224 . S
C272 O291 1.247 . S
O273 C272 1.224 . S
N274 Co264 2.128 . S
N274 C275 1.355 . S
N274 C277 1.311 . S
C275 N274 1.355 . S
C275 C276 1.363 . S
C275 H287 0.929 . S
C276 C275 1.363 . S
C276 N278 1.375 . S
C276 H294 0.931 . S
C277 N274 1.311 . S
C277 N278 1.347 . S
C277 H288 0.929 . S
N278 C276 1.375 . S
N278 C277 1.347 . S
C279 C282 1.365 . S
C279 N284 1.328 . S
C279 H285 0.929 . S
C280 C281 1.362 . S
C280 C283 1.378 . S
C280 H295 0.929 . S
C281 C280 1.362 . S
C281 C282 1.366 . S
C282 C279 1.365 . S
C282 C281 1.366 . S
C282 H296 0.930 . S
C283 C280 1.378 . S
C283 N284 1.315 . S
C283 H286 0.930 . S
N284 Co264 2.194 . S
N284 C279 1.328 . S
N284 C283 1.315 . S
H285 C279 0.929 . S
H286 C283 0.930 . S
H287 C275 0.929 . S
H288 C277 0.929 . S
O289 Co264 2.351 . S
O289 C292 1.244 . S
O290 Co264 2.155 . S
O290 C292 1.240 . S
O291 Co264 2.096 . S
O291 C272 1.247 . S
C292 O289 1.244 . S
C292 O290 1.240 . S
H293 C267 0.931 . S
H294 C276 0.931 . S
H295 C280 0.929 . S
H296 C282 0.930 . S
Co297 N301 2.148 . S
Co297 N307 2.128 . S
Co297 N317 2.194 . S
Co297 O322 2.351 . S
Co297 O323 2.155 . S
Co297 O324 2.096 . S
C298 N301 1.301 . S
C298 N302 1.328 . S
C298 H303 0.930 . S
C299 C300 1.333 . S
C299 N301 1.317 . S
C299 H304 0.930 . S
C300 C299 1.333 . S
C300 N302 1.350 . S
C300 H326 0.931 . S
N301 Co297 2.148 . S
N301 C298 1.301 . S
N301 C299 1.317 . S
N302 C298 1.328 . S
N302 C300 1.350 . S
H303 C298 0.930 . S
H304 C299 0.930 . S
C305 O306 1.224 . S
C305 O324 1.247 . S
O306 C305 1.224 . S
N307 Co297 2.128 . S
N307 C308 1.355 . S
N307 C310 1.311 . S
C308 N307 1.355 . S
C308 C309 1.363 . S
C308 H320 0.929 . S
C309 C308 1.363 . S
C309 N311 1.375 . S
C309 H327 0.931 . S
C310 N307 1.311 . S
C310 N311 1.347 . S
C310 H321 0.929 . S
N311 C309 1.375 . S
N311 C310 1.347 . S
C312 C315 1.365 . S
C312 N317 1.328 . S
C312 H318 0.929 . S
C313 C314 1.362 . S
C313 C316 1.378 . S
C313 H328 0.929 . S
C314 C313 1.362 . S
C314 C315 1.366 . S
C315 C312 1.365 . S
C315 C314 1.366 . S
C315 H329 0.930 . S
C316 C313 1.378 . S
C316 N317 1.315 . S
C316 H319 0.930 . S
N317 Co297 2.194 . S
N317 C312 1.328 . S
N317 C316 1.315 . S
H318 C312 0.929 . S
H319 C316 0.930 . S
H320 C308 0.929 . S
H321 C310 0.929 . S
O322 Co297 2.351 . S
O322 C325 1.244 . S
O323 Co297 2.155 . S
O323 C325 1.240 . S
O324 Co297 2.096 . S
O324 C305 1.247 . S
C325 O322 1.244 . S
C325 O323 1.240 . S
H326 C300 0.931 . S
H327 C309 0.931 . S
H328 C313 0.929 . S
H329 C315 0.930 . S
Co330 N334 2.148 . S
Co330 N340 2.128 . S
Co330 N350 2.194 . S
Co330 O355 2.351 . S
Co330 O356 2.155 . S
Co330 O357 2.096 . S
C331 N334 1.301 . S
C331 N335 1.328 . S
C331 H336 0.930 . S
C332 C333 1.333 . S
C332 N334 1.317 . S
C332 H337 0.930 . S
C333 C332 1.333 . S
C333 N335 1.350 . S
C333 H359 0.931 . S
N334 Co330 2.148 . S
N334 C331 1.301 . S
N334 C332 1.317 . S
N335 C331 1.328 . S
N335 C333 1.350 . S
H336 C331 0.930 . S
H337 C332 0.930 . S
C338 O339 1.224 . S
C338 O357 1.247 . S
O339 C338 1.224 . S
N340 Co330 2.128 . S
N340 C341 1.355 . S
N340 C343 1.311 . S
C341 N340 1.355 . S
C341 C342 1.363 . S
C341 H353 0.929 . S
C342 C341 1.363 . S
C342 N344 1.375 . S
C342 H360 0.931 . S
C343 N340 1.311 . S
C343 N344 1.347 . S
C343 H354 0.929 . S
N344 C342 1.375 . S
N344 C343 1.347 . S
C345 C348 1.365 . S
C345 N350 1.328 . S
C345 H351 0.929 . S
C346 C347 1.362 . S
C346 C349 1.378 . S
C346 H361 0.929 . S
C347 C346 1.362 . S
C347 C348 1.366 . S
C348 C345 1.365 . S
C348 C347 1.366 . S
C348 H362 0.930 . S
C349 C346 1.378 . S
C349 N350 1.315 . S
C349 H352 0.930 . S
N350 Co330 2.194 . S
N350 C345 1.328 . S
N350 C349 1.315 . S
H351 C345 0.929 . S
H352 C349 0.930 . S
H353 C341 0.929 . S
H354 C343 0.929 . S
O355 Co330 2.351 . S
O355 C358 1.244 . S
O356 Co330 2.155 . S
O356 C358 1.240 . S
O357 Co330 2.096 . S
O357 C338 1.247 . S
C358 O355 1.244 . S
C358 O356 1.240 . S
H359 C333 0.931 . S
H360 C342 0.931 . S
H361 C346 0.929 . S
H362 C348 0.930 . S
Co363 N367 2.148 . S
Co363 N373 2.128 . S
Co363 N383 2.194 . S
Co363 O388 2.351 . S
Co363 O389 2.155 . S
Co363 O390 2.096 . S
C364 N367 1.301 . S
C364 N368 1.328 . S
C364 H369 0.930 . S
C365 C366 1.333 . S
C365 N367 1.317 . S
C365 H370 0.930 . S
C366 C365 1.333 . S
C366 N368 1.350 . S
C366 H392 0.931 . S
N367 Co363 2.148 . S
N367 C364 1.301 . S
N367 C365 1.317 . S
N368 C364 1.328 . S
N368 C366 1.350 . S
H369 C364 0.930 . S
H370 C365 0.930 . S
C371 O372 1.224 . S
C371 O390 1.247 . S
O372 C371 1.224 . S
N373 Co363 2.128 . S
N373 C374 1.355 . S
N373 C376 1.311 . S
C374 N373 1.355 . S
C374 C375 1.363 . S
C374 H386 0.929 . S
C375 C374 1.363 . S
C375 N377 1.375 . S
C375 H393 0.931 . S
C376 N373 1.311 . S
C376 N377 1.347 . S
C376 H387 0.929 . S
N377 C375 1.375 . S
N377 C376 1.347 . S
C378 C381 1.365 . S
C378 N383 1.328 . S
C378 H384 0.929 . S
C379 C380 1.362 . S
C379 C382 1.378 . S
C379 H394 0.929 . S
C380 C379 1.362 . S
C380 C381 1.366 . S
C381 C378 1.365 . S
C381 C380 1.366 . S
C381 H395 0.930 . S
C382 C379 1.378 . S
C382 N383 1.315 . S
C382 H385 0.930 . S
N383 Co363 2.194 . S
N383 C378 1.328 . S
N383 C382 1.315 . S
H384 C378 0.929 . S
H385 C382 0.930 . S
H386 C374 0.929 . S
H387 C376 0.929 . S
O388 Co363 2.351 . S
O388 C391 1.244 . S
O389 Co363 2.155 . S
O389 C391 1.240 . S
O390 Co363 2.096 . S
O390 C371 1.247 . S
C391 O388 1.244 . S
C391 O389 1.240 . S
H392 C366 0.931 . S
H393 C375 0.931 . S
H394 C379 0.929 . S
H395 C381 0.930 . S
Co396 N400 2.148 . S
Co396 N406 2.128 . S
Co396 N416 2.194 . S
Co396 O421 2.351 . S
Co396 O422 2.155 . S
Co396 O423 2.096 . S
C397 N400 1.301 . S
C397 N401 1.328 . S
C397 H402 0.930 . S
C398 C399 1.333 . S
C398 N400 1.317 . S
C398 H403 0.930 . S
C399 C398 1.333 . S
C399 N401 1.350 . S
C399 H425 0.931 . S
N400 Co396 2.148 . S
N400 C397 1.301 . S
N400 C398 1.317 . S
N401 C397 1.328 . S
N401 C399 1.350 . S
H402 C397 0.930 . S
H403 C398 0.930 . S
C404 O405 1.224 . S
C404 O423 1.247 . S
O405 C404 1.224 . S
N406 Co396 2.128 . S
N406 C407 1.355 . S
N406 C409 1.311 . S
C407 N406 1.355 . S
C407 C408 1.363 . S
C407 H419 0.929 . S
C408 C407 1.363 . S
C408 N410 1.375 . S
C408 H426 0.931 . S
C409 N406 1.311 . S
C409 N410 1.347 . S
C409 H420 0.929 . S
N410 C408 1.375 . S
N410 C409 1.347 . S
C411 C414 1.365 . S
C411 N416 1.328 . S
C411 H417 0.929 . S
C412 C413 1.362 . S
C412 C415 1.378 . S
C412 H427 0.929 . S
C413 C412 1.362 . S
C413 C414 1.366 . S
C414 C411 1.365 . S
C414 C413 1.366 . S
C414 H428 0.930 . S
C415 C412 1.378 . S
C415 N416 1.315 . S
C415 H418 0.930 . S
N416 Co396 2.194 . S
N416 C411 1.328 . S
N416 C415 1.315 . S
H417 C411 0.929 . S
H418 C415 0.930 . S
H419 C407 0.929 . S
H420 C409 0.929 . S
O421 Co396 2.351 . S
O421 C424 1.244 . S
O422 Co396 2.155 . S
O422 C424 1.240 . S
O423 Co396 2.096 . S
O423 C404 1.247 . S
C424 O421 1.244 . S
C424 O422 1.240 . S
H425 C399 0.931 . S
H426 C408 0.931 . S
H427 C412 0.929 . S
H428 C414 0.930 . S
Co429 N433 2.148 . S
Co429 N439 2.128 . S
Co429 N449 2.194 . S
Co429 O454 2.351 . S
Co429 O455 2.155 . S
Co429 O456 2.096 . S
C430 N433 1.301 . S
C430 N434 1.328 . S
C430 H435 0.930 . S
C431 C432 1.333 . S
C431 N433 1.317 . S
C431 H436 0.930 . S
C432 C431 1.333 . S
C432 N434 1.350 . S
C432 H458 0.931 . S
N433 Co429 2.148 . S
N433 C430 1.301 . S
N433 C431 1.317 . S
N434 C430 1.328 . S
N434 C432 1.350 . S
H435 C430 0.930 . S
H436 C431 0.930 . S
C437 O438 1.224 . S
C437 O456 1.247 . S
O438 C437 1.224 . S
N439 Co429 2.128 . S
N439 C440 1.355 . S
N439 C442 1.311 . S
C440 N439 1.355 . S
C440 C441 1.363 . S
C440 H452 0.929 . S
C441 C440 1.363 . S
C441 N443 1.375 . S
C441 H459 0.931 . S
C442 N439 1.311 . S
C442 N443 1.347 . S
C442 H453 0.929 . S
N443 C441 1.375 . S
N443 C442 1.347 . S
C444 C447 1.365 . S
C444 N449 1.328 . S
C444 H450 0.929 . S
C445 C446 1.362 . S
C445 C448 1.378 . S
C445 H460 0.929 . S
C446 C445 1.362 . S
C446 C447 1.366 . S
C447 C444 1.365 . S
C447 C446 1.366 . S
C447 H461 0.930 . S
C448 C445 1.378 . S
C448 N449 1.315 . S
C448 H451 0.930 . S
N449 Co429 2.194 . S
N449 C444 1.328 . S
N449 C448 1.315 . S
H450 C444 0.929 . S
H451 C448 0.930 . S
H452 C440 0.929 . S
H453 C442 0.929 . S
O454 Co429 2.351 . S
O454 C457 1.244 . S
O455 Co429 2.155 . S
O455 C457 1.240 . S
O456 Co429 2.096 . S
O456 C437 1.247 . S
C457 O454 1.244 . S
C457 O455 1.240 . S
H458 C432 0.931 . S
H459 C441 0.931 . S
H460 C445 0.929 . S
H461 C447 0.930 . S
Co462 N466 2.148 . S
Co462 N472 2.128 . S
Co462 N482 2.194 . S
Co462 O487 2.351 . S
Co462 O488 2.155 . S
Co462 O489 2.096 . S
C463 N466 1.301 . S
C463 N467 1.328 . S
C463 H468 0.930 . S
C464 C465 1.333 . S
C464 N466 1.317 . S
C464 H469 0.930 . S
C465 C464 1.333 . S
C465 N467 1.350 . S
C465 H491 0.931 . S
N466 Co462 2.148 . S
N466 C463 1.301 . S
N466 C464 1.317 . S
N467 C463 1.328 . S
N467 C465 1.350 . S
H468 C463 0.930 . S
H469 C464 0.930 . S
C470 O471 1.224 . S
C470 O489 1.247 . S
O471 C470 1.224 . S
N472 Co462 2.128 . S
N472 C473 1.355 . S
N472 C475 1.311 . S
C473 N472 1.355 . S
C473 C474 1.363 . S
C473 H485 0.929 . S
C474 C473 1.363 . S
C474 N476 1.375 . S
C474 H492 0.931 . S
C475 N472 1.311 . S
C475 N476 1.347 . S
C475 H486 0.929 . S
N476 C474 1.375 . S
N476 C475 1.347 . S
C477 C480 1.365 . S
C477 N482 1.328 . S
C477 H483 0.929 . S
C478 C479 1.362 . S
C478 C481 1.378 . S
C478 H493 0.929 . S
C479 C478 1.362 . S
C479 C480 1.366 . S
C480 C477 1.365 . S
C480 C479 1.366 . S
C480 H494 0.930 . S
C481 C478 1.378 . S
C481 N482 1.315 . S
C481 H484 0.930 . S
N482 Co462 2.194 . S
N482 C477 1.328 . S
N482 C481 1.315 . S
H483 C477 0.929 . S
H484 C481 0.930 . S
H485 C473 0.929 . S
H486 C475 0.929 . S
O487 Co462 2.351 . S
O487 C490 1.244 . S
O488 Co462 2.155 . S
O488 C490 1.240 . S
O489 Co462 2.096 . S
O489 C470 1.247 . S
C490 O487 1.244 . S
C490 O488 1.240 . S
H491 C465 0.931 . S
H492 C474 0.931 . S
H493 C478 0.929 . S
H494 C480 0.930 . S
Co495 N499 2.148 . S
Co495 N505 2.128 . S
Co495 N515 2.194 . S
Co495 O520 2.351 . S
Co495 O521 2.155 . S
Co495 O522 2.096 . S
C496 N499 1.301 . S
C496 N500 1.328 . S
C496 H501 0.930 . S
C497 C498 1.333 . S
C497 N499 1.317 . S
C497 H502 0.930 . S
C498 C497 1.333 . S
C498 N500 1.350 . S
C498 H524 0.931 . S
N499 Co495 2.148 . S
N499 C496 1.301 . S
N499 C497 1.317 . S
N500 C496 1.328 . S
N500 C498 1.350 . S
H501 C496 0.930 . S
H502 C497 0.930 . S
C503 O504 1.224 . S
C503 O522 1.247 . S
O504 C503 1.224 . S
N505 Co495 2.128 . S
N505 C506 1.355 . S
N505 C508 1.311 . S
C506 N505 1.355 . S
C506 C507 1.363 . S
C506 H518 0.929 . S
C507 C506 1.363 . S
C507 N509 1.375 . S
C507 H525 0.931 . S
C508 N505 1.311 . S
C508 N509 1.347 . S
C508 H519 0.929 . S
N509 C507 1.375 . S
N509 C508 1.347 . S
C510 C513 1.365 . S
C510 N515 1.328 . S
C510 H516 0.929 . S
C511 C512 1.362 . S
C511 C514 1.378 . S
C511 H526 0.929 . S
C512 C511 1.362 . S
C512 C513 1.366 . S
C513 C510 1.365 . S
C513 C512 1.366 . S
C513 H527 0.930 . S
C514 C511 1.378 . S
C514 N515 1.315 . S
C514 H517 0.930 . S
N515 Co495 2.194 . S
N515 C510 1.328 . S
N515 C514 1.315 . S
H516 C510 0.929 . S
H517 C514 0.930 . S
H518 C506 0.929 . S
H519 C508 0.929 . S
O520 Co495 2.351 . S
O520 C523 1.244 . S
O521 Co495 2.155 . S
O521 C523 1.240 . S
O522 Co495 2.096 . S
O522 C503 1.247 . S
C523 O520 1.244 . S
C523 O521 1.240 . S
H524 C498 0.931 . S
H525 C507 0.931 . S
H526 C511 0.929 . S
H527 C513 0.930 . S
Co528 N532 2.148 . S
Co528 N538 2.128 . S
Co528 N548 2.194 . S
Co528 O553 2.351 . S
Co528 O554 2.155 . S
Co528 O555 2.096 . S
C529 N532 1.301 . S
C529 N533 1.328 . S
C529 H534 0.930 . S
C530 C531 1.333 . S
C530 N532 1.317 . S
C530 H535 0.930 . S
C531 C530 1.333 . S
C531 N533 1.350 . S
C531 H557 0.931 . S
N532 Co528 2.148 . S
N532 C529 1.301 . S
N532 C530 1.317 . S
N533 C529 1.328 . S
N533 C531 1.350 . S
H534 C529 0.930 . S
H535 C530 0.930 . S
C536 O537 1.224 . S
C536 O555 1.247 . S
O537 C536 1.224 . S
N538 Co528 2.128 . S
N538 C539 1.355 . S
N538 C541 1.311 . S
C539 N538 1.355 . S
C539 C540 1.363 . S
C539 H551 0.929 . S
C540 C539 1.363 . S
C540 N542 1.375 . S
C540 H558 0.931 . S
C541 N538 1.311 . S
C541 N542 1.347 . S
C541 H552 0.929 . S
N542 C540 1.375 . S
N542 C541 1.347 . S
C543 C546 1.365 . S
C543 N548 1.328 . S
C543 H549 0.929 . S
C544 C545 1.362 . S
C544 C547 1.378 . S
C544 H559 0.929 . S
C545 C544 1.362 . S
C545 C546 1.366 . S
C546 C543 1.365 . S
C546 C545 1.366 . S
C546 H560 0.930 . S
C547 C544 1.378 . S
C547 N548 1.315 . S
C547 H550 0.930 . S
N548 Co528 2.194 . S
N548 C543 1.328 . S
N548 C547 1.315 . S
H549 C543 0.929 . S
H550 C547 0.930 . S
H551 C539 0.929 . S
H552 C541 0.929 . S
O553 Co528 2.351 . S
O553 C556 1.244 . S
O554 Co528 2.155 . S
O554 C556 1.240 . S
O555 Co528 2.096 . S
O555 C536 1.247 . S
C556 O553 1.244 . S
C556 O554 1.240 . S
H557 C531 0.931 . S
H558 C540 0.931 . S
H559 C544 0.929 . S
H560 C546 0.930 . S
Co561 N565 2.148 . S
Co561 N571 2.128 . S
Co561 N581 2.194 . S
Co561 O586 2.351 . S
Co561 O587 2.155 . S
Co561 O588 2.096 . S
C562 N565 1.301 . S
C562 N566 1.328 . S
C562 H567 0.930 . S
C563 C564 1.333 . S
C563 N565 1.317 . S
C563 H568 0.930 . S
C564 C563 1.333 . S
C564 N566 1.350 . S
C564 H590 0.931 . S
N565 Co561 2.148 . S
N565 C562 1.301 . S
N565 C563 1.317 . S
N566 C562 1.328 . S
N566 C564 1.350 . S
H567 C562 0.930 . S
H568 C563 0.930 . S
C569 O570 1.224 . S
C569 O588 1.247 . S
O570 C569 1.224 . S
N571 Co561 2.128 . S
N571 C572 1.355 . S
N571 C574 1.311 . S
C572 N571 1.355 . S
C572 C573 1.363 . S
C572 H584 0.929 . S
C573 C572 1.363 . S
C573 N575 1.375 . S
C573 H591 0.931 . S
C574 N571 1.311 . S
C574 N575 1.347 . S
C574 H585 0.929 . S
N575 C573 1.375 . S
N575 C574 1.347 . S
C576 C579 1.365 . S
C576 N581 1.328 . S
C576 H582 0.929 . S
C577 C578 1.362 . S
C577 C580 1.378 . S
C577 H592 0.929 . S
C578 C577 1.362 . S
C578 C579 1.366 . S
C579 C576 1.365 . S
C579 C578 1.366 . S
C579 H593 0.930 . S
C580 C577 1.378 . S
C580 N581 1.315 . S
C580 H583 0.930 . S
N581 Co561 2.194 . S
N581 C576 1.328 . S
N581 C580 1.315 . S
H582 C576 0.929 . S
H583 C580 0.930 . S
H584 C572 0.929 . S
H585 C574 0.929 . S
O586 Co561 2.351 . S
O586 C589 1.244 . S
O587 Co561 2.155 . S
O587 C589 1.240 . S
O588 Co561 2.096 . S
O588 C569 1.247 . S
C589 O586 1.244 . S
C589 O587 1.240 . S
H590 C564 0.931 . S
H591 C573 0.931 . S
H592 C577 0.929 . S
H593 C579 0.930 . S
H594 C602 0.950 . S
H595 C607 0.950 . S
H596 C604 0.950 . S
H597 C606 0.950 . S
H598 C608 0.950 . S
H599 C610 0.950 . S
H600 C612 0.950 . S
H601 C613 0.950 . S
C602 H594 0.950 . S
C602 C603 1.386 . S
C602 C604 1.391 . S
C603 C602 1.386 . S
C603 C607 1.393 . S
C604 H596 0.950 . S
C604 C602 1.391 . S
C604 C605 1.400 . S
C605 C604 1.400 . S
C605 C606 1.398 . S
C605 C611 1.491 . S
C606 H597 0.950 . S
C606 C605 1.398 . S
C606 C607 1.391 . S
C607 H595 0.950 . S
C607 C603 1.393 . S
C607 C606 1.391 . S
C608 H598 0.950 . S
C608 C609 1.386 . S
C608 C610 1.391 . S
C609 C608 1.386 . S
C609 C613 1.393 . S
C610 H599 0.950 . S
C610 C608 1.391 . S
C610 C611 1.400 . S
C611 C605 1.491 . S
C611 C610 1.400 . S
C611 C612 1.398 . S
C612 H600 0.950 . S
C612 C611 1.398 . S
C612 C613 1.391 . S
C613 H601 0.950 . S
C613 C609 1.393 . S
C613 C612 1.391 . S
H614 C622 0.950 . S
H615 C627 0.950 . S
H616 C624 0.950 . S
H617 C626 0.950 . S
H618 C628 0.950 . S
H619 C630 0.950 . S
H620 C632 0.950 . S
H621 C633 0.950 . S
C622 H614 0.950 . S
C622 C623 1.386 . S
C622 C624 1.391 . S
C623 C622 1.386 . S
C623 C627 1.393 . S
C624 H616 0.950 . S
C624 C622 1.391 . S
C624 C625 1.400 . S
C625 C624 1.400 . S
C625 C626 1.398 . S
C625 C631 1.491 . S
C626 H617 0.950 . S
C626 C625 1.398 . S
C626 C627 1.391 . S
C627 H615 0.950 . S
C627 C623 1.393 . S
C627 C626 1.391 . S
C628 H618 0.950 . S
C628 C629 1.386 . S
C628 C630 1.391 . S
C629 C628 1.386 . S
C629 C633 1.393 . S
C630 H619 0.950 . S
C630 C628 1.391 . S
C630 C631 1.400 . S
C631 C625 1.491 . S
C631 C630 1.400 . S
C631 C632 1.398 . S
C632 H620 0.950 . S
C632 C631 1.398 . S
C632 C633 1.391 . S
C633 H621 0.950 . S
C633 C629 1.393 . S
C633 C632 1.391 . S
H634 C642 0.950 . S
H635 C647 0.950 . S
H636 C644 0.950 . S
H637 C646 0.950 . S
H638 C648 0.950 . S
H639 C650 0.950 . S
H640 C652 0.950 . S
H641 C653 0.950 . S
C642 H634 0.950 . S
C642 C643 1.386 . S
C642 C644 1.391 . S
C643 C642 1.386 . S
C643 C647 1.393 . S
C644 H636 0.950 . S
C644 C642 1.391 . S
C644 C645 1.400 . S
C645 C644 1.400 . S
C645 C646 1.398 . S
C645 C651 1.491 . S
C646 H637 0.950 . S
C646 C645 1.398 . S
C646 C647 1.391 . S
C647 H635 0.950 . S
C647 C643 1.393 . S
C647 C646 1.391 . S
C648 H638 0.950 . S
C648 C649 1.386 . S
C648 C650 1.391 . S
C649 C648 1.386 . S
C649 C653 1.393 . S
C650 H639 0.950 . S
C650 C648 1.391 . S
C650 C651 1.400 . S
C651 C645 1.491 . S
C651 C650 1.400 . S
C651 C652 1.398 . S
C652 H640 0.950 . S
C652 C651 1.398 . S
C652 C653 1.391 . S
C653 H641 0.950 . S
C653 C649 1.393 . S
C653 C652 1.391 . S
H654 C662 0.950 . S
H655 C667 0.950 . S
H656 C664 0.950 . S
H657 C666 0.950 . S
H658 C668 0.950 . S
H659 C670 0.950 . S
H660 C672 0.950 . S
H661 C673 0.950 . S
C662 H654 0.950 . S
C662 C663 1.386 . S
C662 C664 1.391 . S
C663 C662 1.386 . S
C663 C667 1.393 . S
C664 H656 0.950 . S
C664 C662 1.391 . S
C664 C665 1.400 . S
C665 C664 1.400 . S
C665 C666 1.398 . S
C665 C671 1.491 . S
C666 H657 0.950 . S
C666 C665 1.398 . S
C666 C667 1.391 . S
C667 H655 0.950 . S
C667 C663 1.393 . S
C667 C666 1.391 . S
C668 H658 0.950 . S
C668 C669 1.386 . S
C668 C670 1.391 . S
C669 C668 1.386 . S
C669 C673 1.393 . S
C670 H659 0.950 . S
C670 C668 1.391 . S
C670 C671 1.400 . S
C671 C665 1.491 . S
C671 C670 1.400 . S
C671 C672 1.398 . S
C672 H660 0.950 . S
C672 C671 1.398 . S
C672 C673 1.391 . S
C673 H661 0.950 . S
C673 C669 1.393 . S
C673 C672 1.391 . S
H674 C682 0.950 . S
H675 C687 0.950 . S
H676 C684 0.950 . S
H677 C686 0.950 . S
H678 C688 0.950 . S
H679 C690 0.950 . S
H680 C692 0.950 . S
H681 C693 0.950 . S
C682 H674 0.950 . S
C682 C683 1.386 . S
C682 C684 1.391 . S
C683 C682 1.386 . S
C683 C687 1.393 . S
C684 H676 0.950 . S
C684 C682 1.391 . S
C684 C685 1.400 . S
C685 C684 1.400 . S
C685 C686 1.398 . S
C685 C691 1.491 . S
C686 H677 0.950 . S
C686 C685 1.398 . S
C686 C687 1.391 . S
C687 H675 0.950 . S
C687 C683 1.393 . S
C687 C686 1.391 . S
C688 H678 0.950 . S
C688 C689 1.386 . S
C688 C690 1.391 . S
C689 C688 1.386 . S
C689 C693 1.393 . S
C690 H679 0.950 . S
C690 C688 1.391 . S
C690 C691 1.400 . S
C691 C685 1.491 . S
C691 C690 1.400 . S
C691 C692 1.398 . S
C692 H680 0.950 . S
C692 C691 1.398 . S
C692 C693 1.391 . S
C693 H681 0.950 . S
C693 C689 1.393 . S
C693 C692 1.391 . S
H694 C702 0.950 . S
H695 C707 0.950 . S
H696 C704 0.950 . S
H697 C706 0.950 . S
H698 C708 0.950 . S
H699 C710 0.950 . S
H700 C712 0.950 . S
H701 C713 0.950 . S
C702 H694 0.950 . S
C702 C703 1.386 . S
C702 C704 1.391 . S
C703 C702 1.386 . S
C703 C707 1.393 . S
C704 H696 0.950 . S
C704 C702 1.391 . S
C704 C705 1.400 . S
C705 C704 1.400 . S
C705 C706 1.398 . S
C705 C711 1.491 . S
C706 H697 0.950 . S
C706 C705 1.398 . S
C706 C707 1.391 . S
C707 H695 0.950 . S
C707 C703 1.393 . S
C707 C706 1.391 . S
C708 H698 0.950 . S
C708 C709 1.386 . S
C708 C710 1.391 . S
C709 C708 1.386 . S
C709 C713 1.393 . S
C710 H699 0.950 . S
C710 C708 1.391 . S
C710 C711 1.400 . S
C711 C705 1.491 . S
C711 C710 1.400 . S
C711 C712 1.398 . S
C712 H700 0.950 . S
C712 C711 1.398 . S
C712 C713 1.391 . S
C713 H701 0.950 . S
C713 C709 1.393 . S
C713 C712 1.391 . S
H714 C722 0.950 . S
H715 C727 0.950 . S
H716 C724 0.950 . S
H717 C726 0.950 . S
H718 C728 0.950 . S
H719 C730 0.950 . S
H720 C732 0.950 . S
H721 C733 0.950 . S
C722 H714 0.950 . S
C722 C723 1.386 . S
C722 C724 1.391 . S
C723 C722 1.386 . S
C723 C727 1.393 . S
C724 H716 0.950 . S
C724 C722 1.391 . S
C724 C725 1.400 . S
C725 C724 1.400 . S
C725 C726 1.398 . S
C725 C731 1.491 . S
C726 H717 0.950 . S
C726 C725 1.398 . S
C726 C727 1.391 . S
C727 H715 0.950 . S
C727 C723 1.393 . S
C727 C726 1.391 . S
C728 H718 0.950 . S
C728 C729 1.386 . S
C728 C730 1.391 . S
C729 C728 1.386 . S
C729 C733 1.393 . S
C730 H719 0.950 . S
C730 C728 1.391 . S
C730 C731 1.400 . S
C731 C725 1.491 . S
C731 C730 1.400 . S
C731 C732 1.398 . S
C732 H720 0.950 . S
C732 C731 1.398 . S
C732 C733 1.391 . S
C733 H721 0.950 . S
C733 C729 1.393 . S
C733 C732 1.391 . S
H734 C742 0.950 . S
H735 C747 0.950 . S
H736 C744 0.950 . S
H737 C746 0.950 . S
H738 C748 0.950 . S
H739 C750 0.950 . S
H740 C752 0.950 . S
H741 C753 0.950 . S
C742 H734 0.950 . S
C742 C743 1.386 . S
C742 C744 1.391 . S
C743 C742 1.386 . S
C743 C747 1.393 . S
C744 H736 0.950 . S
C744 C742 1.391 . S
C744 C745 1.400 . S
C745 C744 1.400 . S
C745 C746 1.398 . S
C745 C751 1.491 1_565 S
C746 H737 0.950 . S
C746 C745 1.398 . S
C746 C747 1.391 . S
C747 H735 0.950 . S
C747 C743 1.393 . S
C747 C746 1.391 . S
C748 H738 0.950 . S
C748 C749 1.386 . S
C748 C750 1.391 . S
C749 C748 1.386 . S
C749 C753 1.393 . S
C750 H739 0.950 . S
C750 C748 1.391 . S
C750 C751 1.400 . S
C751 C745 1.491 1_545 S
C751 C750 1.400 . S
C751 C752 1.398 . S
C752 H740 0.950 . S
C752 C751 1.398 . S
C752 C753 1.391 . S
C753 H741 0.950 . S
C753 C749 1.393 . S
C753 C752 1.391 . S
H754 C762 0.950 . S
H755 C767 0.950 . S
H756 C764 0.950 1_655 S
H757 C766 0.950 . S
H758 C768 0.950 . S
H759 C770 0.950 1_455 S
H760 C772 0.950 . S
H761 C773 0.950 . S
C762 H754 0.950 . S
C762 C763 1.386 . S
C762 C764 1.391 . S
C763 C762 1.386 . S
C763 C767 1.393 . S
C764 H756 0.950 1_455 S
C764 C762 1.391 . S
C764 C765 1.400 . S
C765 C764 1.400 . S
C765 C766 1.398 . S
C765 C771 1.491 1_455 S
C766 H757 0.950 . S
C766 C765 1.398 . S
C766 C767 1.391 . S
C767 H755 0.950 . S
C767 C763 1.393 . S
C767 C766 1.391 . S
C768 H758 0.950 . S
C768 C769 1.386 . S
C768 C770 1.391 . S
C769 C768 1.386 . S
C769 C773 1.393 . S
C770 H759 0.950 1_655 S
C770 C768 1.391 . S
C770 C771 1.400 . S
C771 C765 1.491 1_655 S
C771 C770 1.400 . S
C771 C772 1.398 . S
C772 H760 0.950 . S
C772 C771 1.398 . S
C772 C773 1.391 . S
C773 H761 0.950 . S
C773 C769 1.393 . S
C773 C772 1.391 . S
H774 C782 0.950 . S
H775 C787 0.950 . S
H776 C784 0.950 . S
H777 C786 0.950 . S
H778 C788 0.950 . S
H779 C790 0.950 . S
H780 C792 0.950 . S
H781 C793 0.950 . S
C782 H774 0.950 . S
C782 C783 1.386 . S
C782 C784 1.391 . S
C783 C782 1.386 . S
C783 C787 1.393 . S
C784 H776 0.950 . S
C784 C782 1.391 . S
C784 C785 1.400 . S
C785 C784 1.400 . S
C785 C786 1.398 . S
C785 C791 1.491 . S
C786 H777 0.950 . S
C786 C785 1.398 . S
C786 C787 1.391 . S
C787 H775 0.950 . S
C787 C783 1.393 . S
C787 C786 1.391 . S
C788 H778 0.950 . S
C788 C789 1.386 . S
C788 C790 1.391 . S
C789 C788 1.386 . S
C789 C793 1.393 . S
C790 H779 0.950 . S
C790 C788 1.391 . S
C790 C791 1.400 . S
C791 C785 1.491 . S
C791 C790 1.400 . S
C791 C792 1.398 . S
C792 H780 0.950 . S
C792 C791 1.398 . S
C792 C793 1.391 . S
C793 H781 0.950 . S
C793 C789 1.393 . S
C793 C792 1.391 . S
H794 C802 0.950 . S
H795 C807 0.950 . S
H796 C804 0.950 . S
H797 C806 0.950 . S
H798 C808 0.950 . S
H799 C810 0.950 . S
H800 C812 0.950 . S
H801 C813 0.950 . S
C802 H794 0.950 . S
C802 C803 1.386 . S
C802 C804 1.391 . S
C803 C802 1.386 . S
C803 C807 1.393 . S
C804 H796 0.950 . S
C804 C802 1.391 . S
C804 C805 1.400 . S
C805 C804 1.400 . S
C805 C806 1.398 . S
C805 C811 1.491 . S
C806 H797 0.950 . S
C806 C805 1.398 . S
C806 C807 1.391 . S
C807 H795 0.950 . S
C807 C803 1.393 . S
C807 C806 1.391 . S
C808 H798 0.950 . S
C808 C809 1.386 . S
C808 C810 1.391 . S
C809 C808 1.386 . S
C809 C813 1.393 . S
C810 H799 0.950 . S
C810 C808 1.391 . S
C810 C811 1.400 . S
C811 C805 1.491 . S
C811 C810 1.400 . S
C811 C812 1.398 . S
C812 H800 0.950 . S
C812 C811 1.398 . S
C812 C813 1.391 . S
C813 H801 0.950 . S
C813 C809 1.393 . S
C813 C812 1.391 . S
H814 C822 0.950 . S
H815 C827 0.950 . S
H816 C824 0.950 . S
H817 C826 0.950 . S
H818 C828 0.950 . S
H819 C830 0.950 . S
H820 C832 0.950 . S
H821 C833 0.950 . S
C822 H814 0.950 . S
C822 C823 1.386 . S
C822 C824 1.391 . S
C823 C822 1.386 . S
C823 C827 1.393 . S
C824 H816 0.950 . S
C824 C822 1.391 . S
C824 C825 1.400 . S
C825 C824 1.400 . S
C825 C826 1.398 . S
C825 C831 1.491 . S
C826 H817 0.950 . S
C826 C825 1.398 . S
C826 C827 1.391 . S
C827 H815 0.950 . S
C827 C823 1.393 . S
C827 C826 1.391 . S
C828 H818 0.950 . S
C828 C829 1.386 . S
C828 C830 1.391 . S
C829 C828 1.386 . S
C829 C833 1.393 . S
C830 H819 0.950 . S
C830 C828 1.391 . S
C830 C831 1.400 . S
C831 C825 1.491 . S
C831 C830 1.400 . S
C831 C832 1.398 . S
C832 H820 0.950 . S
C832 C831 1.398 . S
C832 C833 1.391 . S
C833 H821 0.950 . S
C833 C829 1.393 . S
C833 C832 1.391 . S
H834 C842 0.950 . S
H835 C847 0.950 . S
H836 C844 0.950 . S
H837 C846 0.950 . S
H838 C848 0.950 . S
H839 C850 0.950 . S
H840 C852 0.950 . S
H841 C853 0.950 . S
C842 H834 0.950 . S
C842 C843 1.386 . S
C842 C844 1.391 . S
C843 C842 1.386 . S
C843 C847 1.393 . S
C844 H836 0.950 . S
C844 C842 1.391 . S
C844 C845 1.400 . S
C845 C844 1.400 . S
C845 C846 1.398 . S
C845 C851 1.491 . S
C846 H837 0.950 . S
C846 C845 1.398 . S
C846 C847 1.391 . S
C847 H835 0.950 . S
C847 C843 1.393 . S
C847 C846 1.391 . S
C848 H838 0.950 . S
C848 C849 1.386 . S
C848 C850 1.391 . S
C849 C848 1.386 . S
C849 C853 1.393 . S
C850 H839 0.950 . S
C850 C848 1.391 . S
C850 C851 1.400 . S
C851 C845 1.491 . S
C851 C850 1.400 . S
C851 C852 1.398 . S
C852 H840 0.950 . S
C852 C851 1.398 . S
C852 C853 1.391 . S
C853 H841 0.950 . S
C853 C849 1.393 . S
C853 C852 1.391 . S
H854 C862 0.950 . S
H855 C867 0.950 . S
H856 C864 0.950 . S
H857 C866 0.950 . S
H858 C868 0.950 . S
H859 C870 0.950 . S
H860 C872 0.950 . S
H861 C873 0.950 . S
C862 H854 0.950 . S
C862 C863 1.386 . S
C862 C864 1.391 . S
C863 C862 1.386 . S
C863 C867 1.393 . S
C864 H856 0.950 . S
C864 C862 1.391 . S
C864 C865 1.400 . S
C865 C864 1.400 . S
C865 C866 1.398 . S
C865 C871 1.491 . S
C866 H857 0.950 . S
C866 C865 1.398 . S
C866 C867 1.391 . S
C867 H855 0.950 . S
C867 C863 1.393 . S
C867 C866 1.391 . S
C868 H858 0.950 . S
C868 C869 1.386 . S
C868 C870 1.391 . S
C869 C868 1.386 . S
C869 C873 1.393 . S
C870 H859 0.950 . S
C870 C868 1.391 . S
C870 C871 1.400 . S
C871 C865 1.491 . S
C871 C870 1.400 . S
C871 C872 1.398 . S
C872 H860 0.950 . S
C872 C871 1.398 . S
C872 C873 1.391 . S
C873 H861 0.950 . S
C873 C869 1.393 . S
C873 C872 1.391 . S
H874 C882 0.950 . S
H875 C887 0.950 . S
H876 C884 0.950 . S
H877 C886 0.950 . S
H878 C888 0.950 . S
H879 C890 0.950 . S
H880 C892 0.950 . S
H881 C893 0.950 . S
C882 H874 0.950 . S
C882 C883 1.386 . S
C882 C884 1.391 . S
C883 C882 1.386 . S
C883 C887 1.393 . S
C884 H876 0.950 . S
C884 C882 1.391 . S
C884 C885 1.400 . S
C885 C884 1.400 . S
C885 C886 1.398 . S
C885 C891 1.491 . S
C886 H877 0.950 . S
C886 C885 1.398 . S
C886 C887 1.391 . S
C887 H875 0.950 . S
C887 C883 1.393 . S
C887 C886 1.391 . S
C888 H878 0.950 . S
C888 C889 1.386 . S
C888 C890 1.391 . S
C889 C888 1.386 . S
C889 C893 1.393 . S
C890 H879 0.950 . S
C890 C888 1.391 . S
C890 C891 1.400 . S
C891 C885 1.491 . S
C891 C890 1.400 . S
C891 C892 1.398 . S
C892 H880 0.950 . S
C892 C891 1.398 . S
C892 C893 1.391 . S
C893 H881 0.950 . S
C893 C889 1.393 . S
C893 C892 1.391 . S
H894 C902 0.950 . S
H895 C907 0.950 . S
H896 C904 0.950 . S
H897 C906 0.950 . S
H898 C908 0.950 . S
H899 C910 0.950 . S
H900 C912 0.950 . S
H901 C913 0.950 . S
C902 H894 0.950 . S
C902 C903 1.386 . S
C902 C904 1.391 . S
C903 C902 1.386 . S
C903 C907 1.393 . S
C904 H896 0.950 . S
C904 C902 1.391 . S
C904 C905 1.400 . S
C905 C904 1.400 . S
C905 C906 1.398 . S
C905 C911 1.491 1_654 S
C906 H897 0.950 . S
C906 C905 1.398 . S
C906 C907 1.391 . S
C907 H895 0.950 . S
C907 C903 1.393 . S
C907 C906 1.391 . S
C908 H898 0.950 . S
C908 C909 1.386 . S
C908 C910 1.391 . S
C909 C908 1.386 . S
C909 C913 1.393 . S
C910 H899 0.950 . S
C910 C908 1.391 . S
C910 C911 1.400 . S
C911 C905 1.491 1_456 S
C911 C910 1.400 . S
C911 C912 1.398 . S
C912 H900 0.950 . S
C912 C911 1.398 . S
C912 C913 1.391 . S
C913 H901 0.950 . S
C913 C909 1.393 . S
C913 C912 1.391 . S
H914 C922 0.956 . S
H915 C927 0.950 . S
H916 C924 0.950 . S
H917 C926 0.950 . S
H918 C928 0.956 . S
H919 C930 0.950 . S
H920 C932 0.950 . S
H921 C933 0.950 . S
C922 H914 0.956 . S
C922 C923 1.386 . S
C922 C924 1.391 1_556 S
C923 C922 1.386 . S
C923 C927 1.393 . S
C924 H916 0.950 . S
C924 C922 1.391 1_554 S
C924 C925 1.400 1_554 S
C925 C924 1.400 1_556 S
C925 C926 1.398 . S
C925 C931 1.491 1_556 S
C926 H917 0.950 . S
C926 C925 1.398 . S
C926 C927 1.391 . S
C927 H915 0.950 . S
C927 C923 1.393 . S
C927 C926 1.391 . S
C928 H918 0.956 . S
C928 C929 1.386 . S
C928 C930 1.391 1_554 S
C929 C928 1.386 . S
C929 C933 1.393 . S
C930 H919 0.950 . S
C930 C928 1.391 1_556 S
C930 C931 1.400 1_556 S
C931 C925 1.491 1_554 S
C931 C930 1.400 1_554 S
C931 C932 1.398 . S
C932 H920 0.950 . S
C932 C931 1.398 . S
C932 C933 1.391 . S
C933 H921 0.950 . S
C933 C929 1.393 . S
C933 C932 1.391 . S
H934 C942 0.950 . S
H935 C947 0.950 . S
H936 C944 0.950 . S
H937 C946 0.950 . S
H938 C948 0.950 . S
H939 C950 0.950 . S
H940 C952 0.950 . S
H941 C953 0.950 . S
C942 H934 0.950 . S
C942 C943 1.386 . S
C942 C944 1.391 . S
C943 C942 1.386 . S
C943 C947 1.393 . S
C944 H936 0.950 . S
C944 C942 1.391 . S
C944 C945 1.400 . S
C945 C944 1.400 . S
C945 C946 1.398 . S
C945 C951 1.491 1_544 S
C946 H937 0.950 . S
C946 C945 1.398 . S
C946 C947 1.391 . S
C947 H935 0.950 . S
C947 C943 1.393 . S
C947 C946 1.391 . S
C948 H938 0.950 . S
C948 C949 1.386 . S
C948 C950 1.391 . S
C949 C948 1.386 . S
C949 C953 1.393 . S
C950 H939 0.950 . S
C950 C948 1.391 . S
C950 C951 1.400 . S
C951 C945 1.491 1_566 S
C951 C950 1.400 . S
C951 C952 1.398 . S
C952 H940 0.950 . S
C952 C951 1.398 . S
C952 C953 1.391 . S
C953 H941 0.950 . S
C953 C949 1.393 . S
C953 C952 1.391 . S
H954 C962 0.950 1_655 S
H955 C967 0.950 . S
H956 C964 0.950 . S
H957 C966 0.975 . S
H958 C968 0.950 1_455 S
H959 C970 0.950 . S
H960 C972 0.975 . S
H961 C973 0.950 . S
C962 H954 0.950 1_455 S
C962 C963 1.386 . S
C962 C964 1.391 1_455 S
C963 C962 1.386 . S
C963 C967 1.393 . S
C964 H956 0.950 . S
C964 C962 1.391 1_655 S
C964 C965 1.400 1_655 S
C965 C964 1.400 1_455 S
C965 C966 1.398 . S
C965 C971 1.491 1_454 S
C966 H957 0.975 . S
C966 C965 1.398 . S
C966 C967 1.391 . S
C967 H955 0.950 . S
C967 C963 1.393 . S
C967 C966 1.391 . S
C968 H958 0.950 1_655 S
C968 C969 1.386 . S
C968 C970 1.391 1_655 S
C969 C968 1.386 . S
C969 C973 1.393 . S
C970 H959 0.950 . S
C970 C968 1.391 1_455 S
C970 C971 1.400 1_455 S
C971 C965 1.491 1_656 S
C971 C970 1.400 1_655 S
C971 C972 1.398 . S
C972 H960 0.975 . S
C972 C971 1.398 . S
C972 C973 1.391 . S
C973 H961 0.950 . S
C973 C969 1.393 . S
C973 C972 1.391 . S
H974 C982 0.950 . S
H975 C987 0.950 . S
H976 C984 0.950 . S
H977 C986 0.950 . S
H978 C988 0.950 . S
H979 C990 0.950 . S
H980 C992 0.950 . S
H981 C993 0.950 . S
C982 H974 0.950 . S
C982 C983 1.386 . S
C982 C984 1.391 . S
C983 C982 1.386 . S
C983 C987 1.393 . S
C984 H976 0.950 . S
C984 C982 1.391 . S
C984 C985 1.400 . S
C985 C984 1.400 . S
C985 C986 1.398 . S
C985 C991 1.491 1_556 S
C986 H977 0.950 . S
C986 C985 1.398 . S
C986 C987 1.391 . S
C987 H975 0.950 . S
C987 C983 1.393 . S
C987 C986 1.391 . S
C988 H978 0.950 . S
C988 C989 1.386 . S
C988 C990 1.391 . S
C989 C988 1.386 . S
C989 C993 1.393 . S
C990 H979 0.950 . S
C990 C988 1.391 . S
C990 C991 1.400 . S
C991 C985 1.491 1_554 S
C991 C990 1.400 . S
C991 C992 1.398 . S
C992 H980 0.950 . S
C992 C991 1.398 . S
C992 C993 1.391 . S
C993 H981 0.950 . S
C993 C989 1.393 . S
C993 C992 1.391 . S
H994 C1002 0.950 . S
H995 C1007 0.950 . S
H996 C1004 0.950 . S
H997 C1006 0.950 1_565 S
H998 C1008 0.950 . S
H999 C1010 0.950 . S
H1000 C1012 0.950 1_545 S
H1001 C1013 0.950 . S
C1002 H994 0.950 . S
C1002 C1003 1.386 . S
C1002 C1004 1.391 . S
C1003 C1002 1.386 . S
C1003 C1007 1.393 . S
C1004 H996 0.950 . S
C1004 C1002 1.391 . S
C1004 C1005 1.400 . S
C1005 C1004 1.400 . S
C1005 C1006 1.398 . S
C1005 C1011 1.491 1_546 S
C1006 H997 0.950 1_545 S
C1006 C1005 1.398 . S
C1006 C1007 1.391 . S
C1007 H995 0.950 . S
C1007 C1003 1.393 . S
C1007 C1006 1.391 . S
C1008 H998 0.950 . S
C1008 C1009 1.386 . S
C1008 C1010 1.391 . S
C1009 C1008 1.386 . S
C1009 C1013 1.393 . S
C1010 H999 0.950 . S
C1010 C1008 1.391 . S
C1010 C1011 1.400 . S
C1011 C1005 1.491 1_564 S
C1011 C1010 1.400 . S
C1011 C1012 1.398 . S
C1012 H1000 0.950 1_565 S
C1012 C1011 1.398 . S
C1012 C1013 1.391 . S
C1013 H1001 0.950 . S
C1013 C1009 1.393 . S
C1013 C1012 1.391 . S
H1014 C1022 0.950 . S
H1015 C1027 0.950 . S
H1016 C1024 0.950 . S
H1017 C1026 0.950 . S
H1018 C1028 0.950 . S
H1019 C1030 0.950 . S
H1020 C1032 0.950 . S
H1021 C1033 0.950 . S
C1022 H1014 0.950 . S
C1022 C1023 1.386 . S
C1022 C1024 1.391 . S
C1023 C1022 1.386 . S
C1023 C1027 1.393 . S
C1024 H1016 0.950 . S
C1024 C1022 1.391 . S
C1024 C1025 1.400 . S
C1025 C1024 1.400 . S
C1025 C1026 1.398 . S
C1025 C1031 1.491 . S
C1026 H1017 0.950 . S
C1026 C1025 1.398 . S
C1026 C1027 1.391 . S
C1027 H1015 0.950 . S
C1027 C1023 1.393 . S
C1027 C1026 1.391 . S
C1028 H1018 0.950 . S
C1028 C1029 1.386 . S
C1028 C1030 1.391 . S
C1029 C1028 1.386 . S
C1029 C1033 1.393 . S
C1030 H1019 0.950 . S
C1030 C1028 1.391 . S
C1030 C1031 1.400 . S
C1031 C1025 1.491 . S
C1031 C1030 1.400 . S
C1031 C1032 1.398 . S
C1032 H1020 0.950 . S
C1032 C1031 1.398 . S
C1032 C1033 1.391 . S
C1033 H1021 0.950 . S
C1033 C1029 1.393 . S
C1033 C1032 1.391 . S
H1034 C1042 0.950 . S
H1035 C1047 0.950 . S
H1036 C1044 0.950 . S
H1037 C1046 0.950 . S
H1038 C1048 0.950 . S
H1039 C1050 0.950 . S
H1040 C1052 0.950 . S
H1041 C1053 0.950 . S
C1042 H1034 0.950 . S
C1042 C1043 1.386 . S
C1042 C1044 1.391 . S
C1043 C1042 1.386 . S
C1043 C1047 1.393 . S
C1044 H1036 0.950 . S
C1044 C1042 1.391 . S
C1044 C1045 1.400 . S
C1045 C1044 1.400 . S
C1045 C1046 1.398 . S
C1045 C1051 1.491 . S
C1046 H1037 0.950 . S
C1046 C1045 1.398 . S
C1046 C1047 1.391 . S
C1047 H1035 0.950 . S
C1047 C1043 1.393 . S
C1047 C1046 1.391 . S
C1048 H1038 0.950 . S
C1048 C1049 1.386 . S
C1048 C1050 1.391 . S
C1049 C1048 1.386 . S
C1049 C1053 1.393 . S
C1050 H1039 0.950 . S
C1050 C1048 1.391 . S
C1050 C1051 1.400 . S
C1051 C1045 1.491 . S
C1051 C1050 1.400 . S
C1051 C1052 1.398 . S
C1052 H1040 0.950 . S
C1052 C1051 1.398 . S
C1052 C1053 1.391 . S
C1053 H1041 0.950 . S
C1053 C1049 1.393 . S
C1053 C1052 1.391 . S
H1054 C1062 0.950 . S
H1055 C1067 0.950 . S
H1056 C1064 0.950 . S
H1057 C1066 0.950 . S
H1058 C1068 0.950 . S
H1059 C1070 0.950 . S
H1060 C1072 0.950 . S
H1061 C1073 0.950 . S
C1062 H1054 0.950 . S
C1062 C1063 1.386 . S
C1062 C1064 1.391 . S
C1063 C1062 1.386 . S
C1063 C1067 1.393 . S
C1064 H1056 0.950 . S
C1064 C1062 1.391 . S
C1064 C1065 1.400 . S
C1065 C1064 1.400 . S
C1065 C1066 1.398 . S
C1065 C1071 1.491 . S
C1066 H1057 0.950 . S
C1066 C1065 1.398 . S
C1066 C1067 1.391 . S
C1067 H1055 0.950 . S
C1067 C1063 1.393 . S
C1067 C1066 1.391 . S
C1068 H1058 0.950 . S
C1068 C1069 1.386 . S
C1068 C1070 1.391 . S
C1069 C1068 1.386 . S
C1069 C1073 1.393 . S
C1070 H1059 0.950 . S
C1070 C1068 1.391 . S
C1070 C1071 1.400 . S
C1071 C1065 1.491 . S
C1071 C1070 1.400 . S
C1071 C1072 1.398 . S
C1072 H1060 0.950 . S
C1072 C1071 1.398 . S
C1072 C1073 1.391 . S
C1073 H1061 0.950 . S
C1073 C1069 1.393 . S
C1073 C1072 1.391 . S
H1074 C1082 0.950 . S
H1075 C1087 0.950 . S
H1076 C1084 0.950 . S
H1077 C1086 0.950 . S
H1078 C1088 0.950 . S
H1079 C1090 0.950 . S
H1080 C1092 0.950 . S
H1081 C1093 0.950 . S
C1082 H1074 0.950 . S
C1082 C1083 1.386 . S
C1082 C1084 1.391 . S
C1083 C1082 1.386 . S
C1083 C1087 1.393 . S
C1084 H1076 0.950 . S
C1084 C1082 1.391 . S
C1084 C1085 1.400 . S
C1085 C1084 1.400 . S
C1085 C1086 1.398 . S
C1085 C1091 1.491 . S
C1086 H1077 0.950 . S
C1086 C1085 1.398 . S
C1086 C1087 1.391 . S
C1087 H1075 0.950 . S
C1087 C1083 1.393 . S
C1087 C1086 1.391 . S
C1088 H1078 0.950 . S
C1088 C1089 1.386 . S
C1088 C1090 1.391 . S
C1089 C1088 1.386 . S
C1089 C1093 1.393 . S
C1090 H1079 0.950 . S
C1090 C1088 1.391 . S
C1090 C1091 1.400 . S
C1091 C1085 1.491 . S
C1091 C1090 1.400 . S
C1091 C1092 1.398 . S
C1092 H1080 0.950 . S
C1092 C1091 1.398 . S
C1092 C1093 1.391 . S
C1093 H1081 0.950 . S
C1093 C1089 1.393 . S
C1093 C1092 1.391 . S
H1094 C1102 0.950 . S
H1095 C1107 0.950 . S
H1096 C1104 0.950 . S
H1097 C1106 0.950 . S
H1098 C1108 0.950 . S
H1099 C1110 0.950 . S
H1100 C1112 0.950 . S
H1101 C1113 0.950 . S
C1102 H1094 0.950 . S
C1102 C1103 1.386 . S
C1102 C1104 1.391 . S
C1103 C1102 1.386 . S
C1103 C1107 1.393 . S
C1104 H1096 0.950 . S
C1104 C1102 1.391 . S
C1104 C1105 1.400 . S
C1105 C1104 1.400 . S
C1105 C1106 1.398 . S
C1105 C1111 1.491 . S
C1106 H1097 0.950 . S
C1106 C1105 1.398 . S
C1106 C1107 1.391 . S
C1107 H1095 0.950 . S
C1107 C1103 1.393 . S
C1107 C1106 1.391 . S
C1108 H1098 0.950 . S
C1108 C1109 1.386 . S
C1108 C1110 1.391 . S
C1109 C1108 1.386 . S
C1109 C1113 1.393 . S
C1110 H1099 0.950 . S
C1110 C1108 1.391 . S
C1110 C1111 1.400 . S
C1111 C1105 1.491 . S
C1111 C1110 1.400 . S
C1111 C1112 1.398 . S
C1112 H1100 0.950 . S
C1112 C1111 1.398 . S
C1112 C1113 1.391 . S
C1113 H1101 0.950 . S
C1113 C1109 1.393 . S
C1113 C1112 1.391 . S
H1114 C1122 0.950 . S
H1115 C1127 0.950 . S
H1116 C1124 0.950 . S
H1117 C1126 0.950 . S
H1118 C1128 0.950 . S
H1119 C1130 0.950 . S
H1120 C1132 0.950 . S
H1121 C1133 0.950 . S
C1122 H1114 0.950 . S
C1122 C1123 1.386 . S
C1122 C1124 1.391 . S
C1123 C1122 1.386 . S
C1123 C1127 1.393 . S
C1124 H1116 0.950 . S
C1124 C1122 1.391 . S
C1124 C1125 1.400 . S
C1125 C1124 1.400 . S
C1125 C1126 1.398 . S
C1125 C1131 1.491 . S
C1126 H1117 0.950 . S
C1126 C1125 1.398 . S
C1126 C1127 1.391 . S
C1127 H1115 0.950 . S
C1127 C1123 1.393 . S
C1127 C1126 1.391 . S
C1128 H1118 0.950 . S
C1128 C1129 1.386 . S
C1128 C1130 1.391 . S
C1129 C1128 1.386 . S
C1129 C1133 1.393 . S
C1130 H1119 0.950 . S
C1130 C1128 1.391 . S
C1130 C1131 1.400 . S
C1131 C1125 1.491 . S
C1131 C1130 1.400 . S
C1131 C1132 1.398 . S
C1132 H1120 0.950 . S
C1132 C1131 1.398 . S
C1132 C1133 1.391 . S
C1133 H1121 0.950 . S
C1133 C1129 1.393 . S
C1133 C1132 1.391 . S
H1134 C1142 0.950 . S
H1135 C1147 0.950 . S
H1136 C1144 0.950 . S
H1137 C1146 0.950 . S
H1138 C1148 0.950 . S
H1139 C1150 0.950 . S
H1140 C1152 0.950 . S
H1141 C1153 0.950 . S
C1142 H1134 0.950 . S
C1142 C1143 1.386 . S
C1142 C1144 1.391 . S
C1143 C1142 1.386 . S
C1143 C1147 1.393 . S
C1144 H1136 0.950 . S
C1144 C1142 1.391 . S
C1144 C1145 1.400 . S
C1145 C1144 1.400 . S
C1145 C1146 1.398 . S
C1145 C1151 1.491 . S
C1146 H1137 0.950 . S
C1146 C1145 1.398 . S
C1146 C1147 1.391 . S
C1147 H1135 0.950 . S
C1147 C1143 1.393 . S
C1147 C1146 1.391 . S
C1148 H1138 0.950 . S
C1148 C1149 1.386 . S
C1148 C1150 1.391 . S
C1149 C1148 1.386 . S
C1149 C1153 1.393 . S
C1150 H1139 0.950 . S
C1150 C1148 1.391 . S
C1150 C1151 1.400 . S
C1151 C1145 1.491 . S
C1151 C1150 1.400 . S
C1151 C1152 1.398 . S
C1152 H1140 0.950 . S
C1152 C1151 1.398 . S
C1152 C1153 1.391 . S
C1153 H1141 0.950 . S
C1153 C1149 1.393 . S
C1153 C1152 1.391 . S
H1154 C1162 0.950 . S
H1155 C1167 0.950 . S
H1156 C1164 0.950 . S
H1157 C1166 0.950 . S
H1158 C1168 0.950 . S
H1159 C1170 0.978 . S
H1160 C1172 0.949 . S
H1161 C1173 0.950 . S
C1162 H1154 0.950 . S
C1162 C1163 1.386 . S
C1162 C1164 1.391 . S
C1163 C1162 1.386 . S
C1163 C1167 1.393 . S
C1164 H1156 0.950 . S
C1164 C1162 1.391 . S
C1164 C1165 1.400 . S
C1165 C1164 1.400 . S
C1165 C1166 1.398 . S
C1165 C1171 1.491 . S
C1166 H1157 0.950 . S
C1166 C1165 1.398 . S
C1166 C1167 1.391 . S
C1167 H1155 0.950 . S
C1167 C1163 1.393 . S
C1167 C1166 1.391 . S
C1168 H1158 0.950 . S
C1168 C1169 1.386 . S
C1168 C1170 1.365 1_565 S
C1169 C1168 1.386 . S
C1169 C1173 1.393 . S
C1170 H1159 0.978 . S
C1170 C1168 1.365 1_545 S
C1170 C1171 1.399 . S
C1171 C1165 1.491 . S
C1171 C1170 1.399 . S
C1171 C1172 1.398 1_545 S
C1172 H1160 0.949 . S
C1172 C1171 1.398 1_565 S
C1172 C1173 1.391 . S
C1173 H1161 0.950 . S
C1173 C1169 1.393 . S
C1173 C1172 1.391 . S
H1174 C1182 0.950 . S
H1175 C1187 0.950 . S
H1176 C1184 0.950 . S
H1177 C1186 0.950 . S
H1178 C1188 0.950 . S
H1179 C1190 0.958 . S
H1180 C1192 0.961 . S
H1181 C1193 0.950 . S
C1182 H1174 0.950 . S
C1182 C1183 1.386 . S
C1182 C1184 1.391 . S
C1183 C1182 1.386 . S
C1183 C1187 1.393 . S
C1184 H1176 0.950 . S
C1184 C1182 1.391 . S
C1184 C1185 1.400 . S
C1185 C1184 1.400 . S
C1185 C1186 1.398 . S
C1185 C1191 1.491 . S
C1186 H1177 0.950 . S
C1186 C1185 1.398 . S
C1186 C1187 1.391 . S
C1187 H1175 0.950 . S
C1187 C1183 1.393 . S
C1187 C1186 1.391 . S
C1188 H1178 0.950 . S
C1188 C1189 1.386 . S
C1188 C1190 1.353 1_455 S
C1189 C1188 1.386 . S
C1189 C1193 1.393 . S
C1190 H1179 0.958 . S
C1190 C1188 1.353 1_655 S
C1190 C1191 1.432 . S
C1191 C1185 1.491 . S
C1191 C1190 1.432 . S
C1191 C1192 1.398 1_655 S
C1192 H1180 0.961 . S
C1192 C1191 1.398 1_455 S
C1192 C1193 1.391 . S
C1193 H1181 0.950 . S
C1193 C1189 1.393 . S
C1193 C1192 1.391 . S
H1194 C1202 0.950 . S
H1195 C1207 0.950 . S
H1196 C1204 0.950 . S
H1197 C1206 0.950 . S
H1198 C1208 0.950 . S
H1199 C1210 0.950 . S
H1200 C1212 0.950 . S
H1201 C1213 0.950 . S
C1202 H1194 0.950 . S
C1202 C1203 1.386 . S
C1202 C1204 1.391 . S
C1203 C1202 1.386 . S
C1203 C1207 1.393 . S
C1204 H1196 0.950 . S
C1204 C1202 1.391 . S
C1204 C1205 1.400 . S
C1205 C1204 1.400 . S
C1205 C1206 1.398 . S
C1205 C1211 1.491 . S
C1206 H1197 0.950 . S
C1206 C1205 1.398 . S
C1206 C1207 1.391 . S
C1207 H1195 0.950 . S
C1207 C1203 1.393 . S
C1207 C1206 1.391 . S
C1208 H1198 0.950 . S
C1208 C1209 1.386 . S
C1208 C1210 1.391 . S
C1209 C1208 1.386 . S
C1209 C1213 1.393 . S
C1210 H1199 0.950 . S
C1210 C1208 1.391 . S
C1210 C1211 1.400 . S
C1211 C1205 1.491 . S
C1211 C1210 1.400 . S
C1211 C1212 1.398 . S
C1212 H1200 0.950 . S
C1212 C1211 1.398 . S
C1212 C1213 1.391 . S
C1213 H1201 0.950 . S
C1213 C1209 1.393 . S
C1213 C1212 1.391 . S
H1214 C1222 0.950 . S
H1215 C1227 0.950 . S
H1216 C1224 0.944 1_565 S
H1217 C1226 0.950 1_565 S
H1218 C1228 0.950 . S
H1219 C1230 0.950 . S
H1220 C1232 0.950 . S
H1221 C1233 0.950 . S
C1222 H1214 0.950 . S
C1222 C1223 1.386 . S
C1222 C1224 1.435 . S
C1223 C1222 1.386 . S
C1223 C1227 1.393 . S
C1224 H1216 0.944 1_545 S
C1224 C1222 1.435 . S
C1224 C1225 1.364 1_545 S
C1225 C1224 1.364 1_565 S
C1225 C1226 1.398 1_565 S
C1225 C1231 1.491 . S
C1226 H1217 0.950 1_545 S
C1226 C1225 1.398 1_545 S
C1226 C1227 1.391 . S
C1227 H1215 0.950 . S
C1227 C1223 1.393 . S
C1227 C1226 1.391 . S
C1228 H1218 0.950 . S
C1228 C1229 1.386 . S
C1228 C1230 1.391 . S
C1229 C1228 1.386 . S
C1229 C1233 1.393 . S
C1230 H1219 0.950 . S
C1230 C1228 1.391 . S
C1230 C1231 1.400 . S
C1231 C1225 1.491 . S
C1231 C1230 1.400 . S
C1231 C1232 1.398 . S
C1232 H1220 0.950 . S
C1232 C1231 1.398 . S
C1232 C1233 1.391 . S
C1233 H1221 0.950 . S
C1233 C1229 1.393 . S
C1233 C1232 1.391 . S
H1234 C1242 0.950 . S
H1235 C1247 0.950 . S
H1236 C1244 0.950 . S
H1237 C1246 0.950 . S
H1238 C1248 0.950 . S
H1239 C1250 0.947 1_455 S
H1240 C1252 0.947 1_455 S
H1241 C1253 0.950 . S
C1242 H1234 0.950 . S
C1242 C1243 1.386 . S
C1242 C1244 1.391 . S
C1243 C1242 1.386 . S
C1243 C1247 1.393 . S
C1244 H1236 0.950 . S
C1244 C1242 1.391 . S
C1244 C1245 1.400 . S
C1245 C1244 1.400 . S
C1245 C1246 1.398 . S
C1245 C1251 1.491 . S
C1246 H1237 0.950 . S
C1246 C1245 1.398 . S
C1246 C1247 1.391 . S
C1247 H1235 0.950 . S
C1247 C1243 1.393 . S
C1247 C1246 1.391 . S
C1248 H1238 0.950 . S
C1248 C1249 1.386 . S
C1248 C1250 1.394 . S
C1249 C1248 1.386 . S
C1249 C1253 1.393 . S
C1250 H1239 0.947 1_655 S
C1250 C1248 1.394 . S
C1250 C1251 1.400 1_655 S
C1251 C1245 1.491 . S
C1251 C1250 1.400 1_455 S
C1251 C1252 1.398 1_455 S
C1252 H1240 0.947 1_655 S
C1252 C1251 1.398 1_655 S
C1252 C1253 1.391 . S
C1253 H1241 0.950 . S
C1253 C1249 1.393 . S
C1253 C1252 1.391 . S
H1254 C1262 0.950 . S
H1255 C1267 0.950 . S
H1256 C1264 0.950 . S
H1257 C1266 0.950 . S
H1258 C1268 0.950 . S
H1259 C1270 0.950 . S
H1260 C1272 0.950 . S
H1261 C1273 0.950 . S
C1262 H1254 0.950 . S
C1262 C1263 1.386 . S
C1262 C1264 1.391 . S
C1263 C1262 1.386 . S
C1263 C1267 1.393 . S
C1264 H1256 0.950 . S
C1264 C1262 1.391 . S
C1264 C1265 1.400 . S
C1265 C1264 1.400 . S
C1265 C1266 1.398 . S
C1265 C1271 1.491 . S
C1266 H1257 0.950 . S
C1266 C1265 1.398 . S
C1266 C1267 1.391 . S
C1267 H1255 0.950 . S
C1267 C1263 1.393 . S
C1267 C1266 1.391 . S
C1268 H1258 0.950 . S
C1268 C1269 1.386 . S
C1268 C1270 1.391 . S
C1269 C1268 1.386 . S
C1269 C1273 1.393 . S
C1270 H1259 0.950 . S
C1270 C1268 1.391 . S
C1270 C1271 1.400 . S
C1271 C1265 1.491 . S
C1271 C1270 1.400 . S
C1271 C1272 1.398 . S
C1272 H1260 0.950 . S
C1272 C1271 1.398 . S
C1272 C1273 1.391 . S
C1273 H1261 0.950 . S
C1273 C1269 1.393 . S
C1273 C1272 1.391 . S
H1274 C1282 0.950 . S
H1275 C1287 0.950 . S
H1276 C1284 0.950 . S
H1277 C1286 0.950 . S
H1278 C1288 0.950 . S
H1279 C1290 0.950 . S
H1280 C1292 0.950 . S
H1281 C1293 0.950 . S
C1282 H1274 0.950 . S
C1282 C1283 1.386 . S
C1282 C1284 1.391 . S
C1283 C1282 1.386 . S
C1283 C1287 1.393 . S
C1284 H1276 0.950 . S
C1284 C1282 1.391 . S
C1284 C1285 1.400 . S
C1285 C1284 1.400 . S
C1285 C1286 1.398 . S
C1285 C1291 1.491 . S
C1286 H1277 0.950 . S
C1286 C1285 1.398 . S
C1286 C1287 1.391 . S
C1287 H1275 0.950 . S
C1287 C1283 1.393 . S
C1287 C1286 1.391 . S
C1288 H1278 0.950 . S
C1288 C1289 1.386 . S
C1288 C1290 1.391 . S
C1289 C1288 1.386 . S
C1289 C1293 1.393 . S
C1290 H1279 0.950 . S
C1290 C1288 1.391 . S
C1290 C1291 1.400 . S
C1291 C1285 1.491 . S
C1291 C1290 1.400 . S
C1291 C1292 1.398 . S
C1292 H1280 0.950 . S
C1292 C1291 1.398 . S
C1292 C1293 1.391 . S
C1293 H1281 0.950 . S
C1293 C1289 1.393 . S
C1293 C1292 1.391 . S
H1294 C1302 0.950 . S
H1295 C1307 0.950 . S
H1296 C1304 0.950 . S
H1297 C1306 0.950 . S
H1298 C1308 0.950 . S
H1299 C1310 0.950 . S
H1300 C1312 0.950 . S
H1301 C1313 0.950 . S
C1302 H1294 0.950 . S
C1302 C1303 1.386 . S
C1302 C1304 1.391 . S
C1303 C1302 1.386 . S
C1303 C1307 1.393 . S
C1304 H1296 0.950 . S
C1304 C1302 1.391 . S
C1304 C1305 1.400 . S
C1305 C1304 1.400 . S
C1305 C1306 1.398 . S
C1305 C1311 1.491 . S
C1306 H1297 0.950 . S
C1306 C1305 1.398 . S
C1306 C1307 1.391 . S
C1307 H1295 0.950 . S
C1307 C1303 1.393 . S
C1307 C1306 1.391 . S
C1308 H1298 0.950 . S
C1308 C1309 1.386 . S
C1308 C1310 1.391 . S
C1309 C1308 1.386 . S
C1309 C1313 1.393 . S
C1310 H1299 0.950 . S
C1310 C1308 1.391 . S
C1310 C1311 1.400 . S
C1311 C1305 1.491 . S
C1311 C1310 1.400 . S
C1311 C1312 1.398 . S
C1312 H1300 0.950 . S
C1312 C1311 1.398 . S
C1312 C1313 1.391 . S
C1313 H1301 0.950 . S
C1313 C1309 1.393 . S
C1313 C1312 1.391 . S
H1314 C1322 0.950 . S
H1315 C1327 0.950 . S
H1316 C1324 0.950 . S
H1317 C1326 0.950 . S
H1318 C1328 0.950 . S
H1319 C1330 0.950 . S
H1320 C1332 0.950 . S
H1321 C1333 0.950 . S
C1322 H1314 0.950 . S
C1322 C1323 1.386 . S
C1322 C1324 1.391 . S
C1323 C1322 1.386 . S
C1323 C1327 1.393 . S
C1324 H1316 0.950 . S
C1324 C1322 1.391 . S
C1324 C1325 1.400 . S
C1325 C1324 1.400 . S
C1325 C1326 1.398 . S
C1325 C1331 1.491 . S
C1326 H1317 0.950 . S
C1326 C1325 1.398 . S
C1326 C1327 1.391 . S
C1327 H1315 0.950 . S
C1327 C1323 1.393 . S
C1327 C1326 1.391 . S
C1328 H1318 0.950 . S
C1328 C1329 1.386 . S
C1328 C1330 1.391 . S
C1329 C1328 1.386 . S
C1329 C1333 1.393 . S
C1330 H1319 0.950 . S
C1330 C1328 1.391 . S
C1330 C1331 1.400 . S
C1331 C1325 1.491 . S
C1331 C1330 1.400 . S
C1331 C1332 1.398 . S
C1332 H1320 0.950 . S
C1332 C1331 1.398 . S
C1332 C1333 1.391 . S
C1333 H1321 0.950 . S
C1333 C1329 1.393 . S
C1333 C1332 1.391 . S
H1334 C1342 0.950 . S
H1335 C1347 0.950 . S
H1336 C1344 0.950 . S
H1337 C1346 0.950 . S
H1338 C1348 0.950 . S
H1339 C1350 0.950 . S
H1340 C1352 0.950 . S
H1341 C1353 0.950 . S
C1342 H1334 0.950 . S
C1342 C1343 1.386 . S
C1342 C1344 1.391 . S
C1343 C1342 1.386 . S
C1343 C1347 1.393 . S
C1344 H1336 0.950 . S
C1344 C1342 1.391 . S
C1344 C1345 1.400 . S
C1345 C1344 1.400 . S
C1345 C1346 1.398 . S
C1345 C1351 1.491 . S
C1346 H1337 0.950 . S
C1346 C1345 1.398 . S
C1346 C1347 1.391 . S
C1347 H1335 0.950 . S
C1347 C1343 1.393 . S
C1347 C1346 1.391 . S
C1348 H1338 0.950 . S
C1348 C1349 1.386 . S
C1348 C1350 1.391 . S
C1349 C1348 1.386 . S
C1349 C1353 1.393 . S
C1350 H1339 0.950 . S
C1350 C1348 1.391 . S
C1350 C1351 1.400 . S
C1351 C1345 1.491 . S
C1351 C1350 1.400 . S
C1351 C1352 1.398 . S
C1352 H1340 0.950 . S
C1352 C1351 1.398 . S
C1352 C1353 1.391 . S
C1353 H1341 0.950 . S
C1353 C1349 1.393 . S
C1353 C1352 1.391 . S
H1354 C1362 0.950 . S
H1355 C1367 0.950 . S
H1356 C1364 0.950 . S
H1357 C1366 0.950 . S
H1358 C1368 0.950 . S
H1359 C1370 0.950 . S
H1360 C1372 0.950 . S
H1361 C1373 0.950 . S
C1362 H1354 0.950 . S
C1362 C1363 1.386 . S
C1362 C1364 1.391 . S
C1363 C1362 1.386 . S
C1363 C1367 1.393 . S
C1364 H1356 0.950 . S
C1364 C1362 1.391 . S
C1364 C1365 1.400 . S
C1365 C1364 1.400 . S
C1365 C1366 1.398 . S
C1365 C1371 1.491 . S
C1366 H1357 0.950 . S
C1366 C1365 1.398 . S
C1366 C1367 1.391 . S
C1367 H1355 0.950 . S
C1367 C1363 1.393 . S
C1367 C1366 1.391 . S
C1368 H1358 0.950 . S
C1368 C1369 1.386 . S
C1368 C1370 1.391 . S
C1369 C1368 1.386 . S
C1369 C1373 1.393 . S
C1370 H1359 0.950 . S
C1370 C1368 1.391 . S
C1370 C1371 1.400 . S
C1371 C1365 1.491 . S
C1371 C1370 1.400 . S
C1371 C1372 1.398 . S
C1372 H1360 0.950 . S
C1372 C1371 1.398 . S
C1372 C1373 1.391 . S
C1373 H1361 0.950 . S
C1373 C1369 1.393 . S
C1373 C1372 1.391 . S
H1374 C1382 0.950 . S
H1375 C1387 0.950 . S
H1376 C1384 0.950 . S
H1377 C1386 0.950 . S
H1378 C1388 0.950 . S
H1379 C1390 0.950 . S
H1380 C1392 0.950 . S
H1381 C1393 0.950 . S
C1382 H1374 0.950 . S
C1382 C1383 1.386 . S
C1382 C1384 1.391 . S
C1383 C1382 1.386 . S
C1383 C1387 1.393 . S
C1384 H1376 0.950 . S
C1384 C1382 1.391 . S
C1384 C1385 1.400 . S
C1385 C1384 1.400 . S
C1385 C1386 1.398 . S
C1385 C1391 1.491 . S
C1386 H1377 0.950 . S
C1386 C1385 1.398 . S
C1386 C1387 1.391 . S
C1387 H1375 0.950 . S
C1387 C1383 1.393 . S
C1387 C1386 1.391 . S
C1388 H1378 0.950 . S
C1388 C1389 1.386 . S
C1388 C1390 1.391 . S
C1389 C1388 1.386 . S
C1389 C1393 1.393 . S
C1390 H1379 0.950 . S
C1390 C1388 1.391 . S
C1390 C1391 1.400 . S
C1391 C1385 1.491 . S
C1391 C1390 1.400 . S
C1391 C1392 1.398 . S
C1392 H1380 0.950 . S
C1392 C1391 1.398 . S
C1392 C1393 1.391 . S
C1393 H1381 0.950 . S
C1393 C1389 1.393 . S
C1393 C1392 1.391 . S
H1394 C1402 0.950 . S
H1395 C1407 0.950 . S
H1396 C1404 0.950 . S
H1397 C1406 0.950 . S
H1398 C1408 0.950 . S
H1399 C1410 0.950 . S
H1400 C1412 0.950 . S
H1401 C1413 0.950 . S
C1402 H1394 0.950 . S
C1402 C1403 1.386 . S
C1402 C1404 1.391 . S
C1403 C1402 1.386 . S
C1403 C1407 1.393 . S
C1404 H1396 0.950 . S
C1404 C1402 1.391 . S
C1404 C1405 1.400 . S
C1405 C1404 1.400 . S
C1405 C1406 1.398 . S
C1405 C1411 1.491 . S
C1406 H1397 0.950 . S
C1406 C1405 1.398 . S
C1406 C1407 1.391 . S
C1407 H1395 0.950 . S
C1407 C1403 1.393 . S
C1407 C1406 1.391 . S
C1408 H1398 0.950 . S
C1408 C1409 1.386 . S
C1408 C1410 1.391 . S
C1409 C1408 1.386 . S
C1409 C1413 1.393 . S
C1410 H1399 0.950 . S
C1410 C1408 1.391 . S
C1410 C1411 1.400 . S
C1411 C1405 1.491 . S
C1411 C1410 1.400 . S
C1411 C1412 1.398 . S
C1412 H1400 0.950 . S
C1412 C1411 1.398 . S
C1412 C1413 1.391 . S
C1413 H1401 0.950 . S
C1413 C1409 1.393 . S
C1413 C1412 1.391 . S
H1414 C1422 0.950 . S
H1415 C1427 0.950 . S
H1416 C1424 0.950 . S
H1417 C1426 0.950 . S
H1418 C1428 0.950 . S
H1419 C1430 0.950 . S
H1420 C1432 0.950 . S
H1421 C1433 0.950 . S
C1422 H1414 0.950 . S
C1422 C1423 1.386 . S
C1422 C1424 1.391 . S
C1423 C1422 1.386 . S
C1423 C1427 1.393 . S
C1424 H1416 0.950 . S
C1424 C1422 1.391 . S
C1424 C1425 1.400 . S
C1425 C1424 1.400 . S
C1425 C1426 1.398 . S
C1425 C1431 1.491 . S
C1426 H1417 0.950 . S
C1426 C1425 1.398 . S
C1426 C1427 1.391 . S
C1427 H1415 0.950 . S
C1427 C1423 1.393 . S
C1427 C1426 1.391 . S
C1428 H1418 0.950 . S
C1428 C1429 1.386 . S
C1428 C1430 1.391 . S
C1429 C1428 1.386 . S
C1429 C1433 1.393 . S
C1430 H1419 0.950 . S
C1430 C1428 1.391 . S
C1430 C1431 1.400 . S
C1431 C1425 1.491 . S
C1431 C1430 1.400 . S
C1431 C1432 1.398 . S
C1432 H1420 0.950 . S
C1432 C1431 1.398 . S
C1432 C1433 1.391 . S
C1433 H1421 0.950 . S
C1433 C1429 1.393 . S
C1433 C1432 1.391 . S
H1434 C1442 0.950 . S
H1435 C1447 0.950 . S
H1436 C1444 0.950 . S
H1437 C1446 0.950 . S
H1438 C1448 0.950 . S
H1439 C1450 0.950 . S
H1440 C1452 0.950 . S
H1441 C1453 0.950 . S
C1442 H1434 0.950 . S
C1442 C1443 1.386 . S
C1442 C1444 1.391 . S
C1443 C1442 1.386 . S
C1443 C1447 1.393 . S
C1444 H1436 0.950 . S
C1444 C1442 1.391 . S
C1444 C1445 1.400 . S
C1445 C1444 1.400 . S
C1445 C1446 1.398 . S
C1445 C1451 1.491 . S
C1446 H1437 0.950 . S
C1446 C1445 1.398 . S
C1446 C1447 1.391 . S
C1447 H1435 0.950 . S
C1447 C1443 1.393 . S
C1447 C1446 1.391 . S
C1448 H1438 0.950 . S
C1448 C1449 1.386 . S
C1448 C1450 1.391 . S
C1449 C1448 1.386 . S
C1449 C1453 1.393 . S
C1450 H1439 0.950 . S
C1450 C1448 1.391 . S
C1450 C1451 1.400 . S
C1451 C1445 1.491 . S
C1451 C1450 1.400 . S
C1451 C1452 1.398 . S
C1452 H1440 0.950 . S
C1452 C1451 1.398 . S
C1452 C1453 1.391 . S
C1453 H1441 0.950 . S
C1453 C1449 1.393 . S
C1453 C1452 1.391 . S
H1454 C1462 0.950 . S
H1455 C1467 0.950 . S
H1456 C1464 0.950 . S
H1457 C1466 0.950 . S
H1458 C1468 0.950 . S
H1459 C1470 0.950 . S
H1460 C1472 0.950 . S
H1461 C1473 0.950 . S
C1462 H1454 0.950 . S
C1462 C1463 1.386 . S
C1462 C1464 1.391 . S
C1463 C1462 1.386 . S
C1463 C1467 1.393 . S
C1464 H1456 0.950 . S
C1464 C1462 1.391 . S
C1464 C1465 1.400 . S
C1465 C1464 1.400 . S
C1465 C1466 1.398 . S
C1465 C1471 1.491 . S
C1466 H1457 0.950 . S
C1466 C1465 1.398 . S
C1466 C1467 1.391 . S
C1467 H1455 0.950 . S
C1467 C1463 1.393 . S
C1467 C1466 1.391 . S
C1468 H1458 0.950 . S
C1468 C1469 1.386 . S
C1468 C1470 1.391 . S
C1469 C1468 1.386 . S
C1469 C1473 1.393 . S
C1470 H1459 0.950 . S
C1470 C1468 1.391 . S
C1470 C1471 1.400 . S
C1471 C1465 1.491 . S
C1471 C1470 1.400 . S
C1471 C1472 1.398 . S
C1472 H1460 0.950 . S
C1472 C1471 1.398 . S
C1472 C1473 1.391 . S
C1473 H1461 0.950 . S
C1473 C1469 1.393 . S
C1473 C1472 1.391 . S
H1474 C1482 0.950 . S
H1475 C1487 0.950 . S
H1476 C1484 0.950 . S
H1477 C1486 0.950 . S
H1478 C1488 0.950 . S
H1479 C1490 0.950 . S
H1480 C1492 0.950 . S
H1481 C1493 0.950 . S
C1482 H1474 0.950 . S
C1482 C1483 1.386 . S
C1482 C1484 1.391 . S
C1483 C1482 1.386 . S
C1483 C1487 1.393 . S
C1484 H1476 0.950 . S
C1484 C1482 1.391 . S
C1484 C1485 1.400 . S
C1485 C1484 1.400 . S
C1485 C1486 1.398 . S
C1485 C1491 1.491 . S
C1486 H1477 0.950 . S
C1486 C1485 1.398 . S
C1486 C1487 1.391 . S
C1487 H1475 0.950 . S
C1487 C1483 1.393 . S
C1487 C1486 1.391 . S
C1488 H1478 0.950 . S
C1488 C1489 1.386 . S
C1488 C1490 1.391 . S
C1489 C1488 1.386 . S
C1489 C1493 1.393 . S
C1490 H1479 0.950 . S
C1490 C1488 1.391 . S
C1490 C1491 1.400 . S
C1491 C1485 1.491 . S
C1491 C1490 1.400 . S
C1491 C1492 1.398 . S
C1492 H1480 0.950 . S
C1492 C1491 1.398 . S
C1492 C1493 1.391 . S
C1493 H1481 0.950 . S
C1493 C1489 1.393 . S
C1493 C1492 1.391 . S
C603 N302 0.880 . S
C609 N5 0.868 . S
C623 N335 0.874 . S
C629 N38 0.879 . S
C643 N368 0.845 . S
C649 N71 0.834 . S
C663 N104 0.871 . S
C669 N401 0.880 . S
C683 N434 0.853 . S
C689 N137 0.876 . S
C703 N467 0.846 . S
C709 N170 0.872 . S
C723 N203 0.851 . S
C729 N500 0.834 . S
C743 N533 0.834 . S
C749 N236 0.848 . S
C763 N566 0.861 . S
C769 N269 0.837 . S
C783 C589 1.866 . S
C789 C28 1.868 . S
C803 C523 1.865 . S
C809 C61 1.862 . S
C823 C94 1.862 . S
C829 C556 1.865 . S
C843 C259 1.868 . S
C849 C127 1.864 . S
C863 C292 1.867 . S
C869 C160 1.863 . S
C883 C193 1.868 . S
C889 C226 1.867 . S
C903 C325 1.868 . S
C909 C457 1.867 . S
C923 C490 1.866 . S
C929 C358 1.862 . S
C943 C391 1.868 . S
C949 C424 1.867 . S
C963 C17 1.327 . S
C969 C149 1.328 . S
C983 C182 1.338 . S
C989 C50 1.338 . S
C1003 C116 1.339 . S
C1009 C83 1.338 . S
C1023 C347 1.324 . S
C1029 C215 1.323 . S
C1043 C248 1.340 . S
C1049 C380 1.340 . S
C1063 C314 1.338 . S
C1069 C281 1.339 . S
C1083 C413 1.341 . S
C1089 C545 1.341 . S
C1103 C578 1.314 . S
C1109 C446 1.313 . S
C1123 C479 1.321 . S
C1129 C512 1.323 . S
C1143 C74 1.148 . S
C1149 N14 1.164 . S
C1163 C8 1.150 . S
C1169 N47 1.162 . S
C1183 C41 1.152 . S
C1189 N80 1.160 . S
C1203 C140 1.146 . S
C1209 N113 1.165 . S
C1223 N146 1.168 . S
C1229 C173 1.128 . S
C1243 C107 1.145 . S
C1249 N179 1.165 . S
C1263 C272 1.152 . S
C1269 N212 1.158 . S
C1283 C206 1.122 . S
C1289 N245 1.164 . S
C1303 N278 1.168 . S
C1309 C239 1.127 . S
C1323 N311 1.156 . S
C1329 C338 1.150 . S
C1343 C371 1.149 . S
C1349 N344 1.163 . S
C1363 C305 1.131 . S
C1369 N377 1.169 . S
C1383 N410 1.168 . S
C1389 C470 1.139 . S
C1403 C404 1.125 . S
C1409 N443 1.168 . S
C1423 C437 1.150 . S
C1429 N476 1.162 . S
C1443 C536 1.124 . S
C1449 N509 1.167 . S
C1463 C569 1.122 . S
C1469 N542 1.162 . S
C1483 C503 1.133 . S
C1489 N575 1.168 . S
