# Generated by pormake.
# Topology cha, (4)-cn, num edge types: 1
# Building blocks:
#     Node 0, Type 0, BuildingBlock: NAHDIM_clean_sbu_0, # of connection points: 4
#     Node 1, Type 0, BuildingBlock: NAHDIM_clean_sbu_0, # of connection points: 4
#     Node 2, Type 0, BuildingBlock: NAHDIM_clean_sbu_0, # of connection points: 4
#     Node 3, Type 0, BuildingBlock: NAHDIM_clean_sbu_0, # of connection points: 4
#     Node 4, Type 0, BuildingBlock: NAHDIM_clean_sbu_0, # of connection points: 4
#     Node 5, Type 0, BuildingBlock: NAHDIM_clean_sbu_0, # of connection points: 4
#     Node 6, Type 0, BuildingBlock: NAHDIM_clean_sbu_0, # of connection points: 4
#     Node 7, Type 0, BuildingBlock: NAHDIM_clean_sbu_0, # of connection points: 4
#     Node 8, Type 0, BuildingBlock: NAHDIM_clean_sbu_0, # of connection points: 4
#     Node 9, Type 0, BuildingBlock: NAHDIM_clean_sbu_0, # of connection points: 4
#     Node 10, Type 0, BuildingBlock: NAHDIM_clean_sbu_0, # of connection points: 4
#     Node 11, Type 0, BuildingBlock: NAHDIM_clean_sbu_0, # of connection points: 4
#     Node 12, Type 0, BuildingBlock: NAHDIM_clean_sbu_0, # of connection points: 4
#     Node 13, Type 0, BuildingBlock: NAHDIM_clean_sbu_0, # of connection points: 4
#     Node 14, Type 0, BuildingBlock: NAHDIM_clean_sbu_0, # of connection points: 4
#     Node 15, Type 0, BuildingBlock: NAHDIM_clean_sbu_0, # of connection points: 4
#     Node 16, Type 0, BuildingBlock: NAHDIM_clean_sbu_0, # of connection points: 4
#     Node 17, Type 0, BuildingBlock: NAHDIM_clean_sbu_0, # of connection points: 4
#     Node 18, Type 0, BuildingBlock: NAHDIM_clean_sbu_0, # of connection points: 4
#     Node 19, Type 0, BuildingBlock: NAHDIM_clean_sbu_0, # of connection points: 4
#     Node 20, Type 0, BuildingBlock: NAHDIM_clean_sbu_0, # of connection points: 4
#     Node 21, Type 0, BuildingBlock: NAHDIM_clean_sbu_0, # of connection points: 4
#     Node 22, Type 0, BuildingBlock: NAHDIM_clean_sbu_0, # of connection points: 4
#     Node 23, Type 0, BuildingBlock: NAHDIM_clean_sbu_0, # of connection points: 4
#     Node 24, Type 0, BuildingBlock: NAHDIM_clean_sbu_0, # of connection points: 4
#     Node 25, Type 0, BuildingBlock: NAHDIM_clean_sbu_0, # of connection points: 4
#     Node 26, Type 0, BuildingBlock: NAHDIM_clean_sbu_0, # of connection points: 4
#     Node 27, Type 0, BuildingBlock: NAHDIM_clean_sbu_0, # of connection points: 4
#     Node 28, Type 0, BuildingBlock: NAHDIM_clean_sbu_0, # of connection points: 4
#     Node 29, Type 0, BuildingBlock: NAHDIM_clean_sbu_0, # of connection points: 4
#     Node 30, Type 0, BuildingBlock: NAHDIM_clean_sbu_0, # of connection points: 4
#     Node 31, Type 0, BuildingBlock: NAHDIM_clean_sbu_0, # of connection points: 4
#     Node 32, Type 0, BuildingBlock: NAHDIM_clean_sbu_0, # of connection points: 4
#     Node 33, Type 0, BuildingBlock: NAHDIM_clean_sbu_0, # of connection points: 4
#     Node 34, Type 0, BuildingBlock: NAHDIM_clean_sbu_0, # of connection points: 4
#     Node 35, Type 0, BuildingBlock: NAHDIM_clean_sbu_0, # of connection points: 4
#     Edge 36, Type (0, 0), BuildingBlock: OJICUG_clean_linker_0, # of connection points: 2
#     Edge 37, Type (0, 0), BuildingBlock: OJICUG_clean_linker_0, # of connection points: 2
#     Edge 38, Type (0, 0), BuildingBlock: OJICUG_clean_linker_0, # of connection points: 2
#     Edge 39, Type (0, 0), BuildingBlock: OJICUG_clean_linker_0, # of connection points: 2
#     Edge 40, Type (0, 0), BuildingBlock: OJICUG_clean_linker_0, # of connection points: 2
#     Edge 41, Type (0, 0), BuildingBlock: OJICUG_clean_linker_0, # of connection points: 2
#     Edge 42, Type (0, 0), BuildingBlock: OJICUG_clean_linker_0, # of connection points: 2
#     Edge 43, Type (0, 0), BuildingBlock: OJICUG_clean_linker_0, # of connection points: 2
#     Edge 44, Type (0, 0), BuildingBlock: OJICUG_clean_linker_0, # of connection points: 2
#     Edge 45, Type (0, 0), BuildingBlock: OJICUG_clean_linker_0, # of connection points: 2
#     Edge 46, Type (0, 0), BuildingBlock: OJICUG_clean_linker_0, # of connection points: 2
#     Edge 47, Type (0, 0), BuildingBlock: OJICUG_clean_linker_0, # of connection points: 2
#     Edge 48, Type (0, 0), BuildingBlock: OJICUG_clean_linker_0, # of connection points: 2
#     Edge 49, Type (0, 0), BuildingBlock: OJICUG_clean_linker_0, # of connection points: 2
#     Edge 50, Type (0, 0), BuildingBlock: OJICUG_clean_linker_0, # of connection points: 2
#     Edge 51, Type (0, 0), BuildingBlock: OJICUG_clean_linker_0, # of connection points: 2
#     Edge 52, Type (0, 0), BuildingBlock: OJICUG_clean_linker_0, # of connection points: 2
#     Edge 53, Type (0, 0), BuildingBlock: OJICUG_clean_linker_0, # of connection points: 2
#     Edge 54, Type (0, 0), BuildingBlock: OJICUG_clean_linker_0, # of connection points: 2
#     Edge 55, Type (0, 0), BuildingBlock: OJICUG_clean_linker_0, # of connection points: 2
#     Edge 56, Type (0, 0), BuildingBlock: OJICUG_clean_linker_0, # of connection points: 2
#     Edge 57, Type (0, 0), BuildingBlock: OJICUG_clean_linker_0, # of connection points: 2
#     Edge 58, Type (0, 0), BuildingBlock: OJICUG_clean_linker_0, # of connection points: 2
#     Edge 59, Type (0, 0), BuildingBlock: OJICUG_clean_linker_0, # of connection points: 2
#     Edge 60, Type (0, 0), BuildingBlock: OJICUG_clean_linker_0, # of connection points: 2
#     Edge 61, Type (0, 0), BuildingBlock: OJICUG_clean_linker_0, # of connection points: 2
#     Edge 62, Type (0, 0), BuildingBlock: OJICUG_clean_linker_0, # of connection points: 2
#     Edge 63, Type (0, 0), BuildingBlock: OJICUG_clean_linker_0, # of connection points: 2
#     Edge 64, Type (0, 0), BuildingBlock: OJICUG_clean_linker_0, # of connection points: 2
#     Edge 65, Type (0, 0), BuildingBlock: OJICUG_clean_linker_0, # of connection points: 2
#     Edge 66, Type (0, 0), BuildingBlock: OJICUG_clean_linker_0, # of connection points: 2
#     Edge 67, Type (0, 0), BuildingBlock: OJICUG_clean_linker_0, # of connection points: 2
#     Edge 68, Type (0, 0), BuildingBlock: OJICUG_clean_linker_0, # of connection points: 2
#     Edge 69, Type (0, 0), BuildingBlock: OJICUG_clean_linker_0, # of connection points: 2
#     Edge 70, Type (0, 0), BuildingBlock: OJICUG_clean_linker_0, # of connection points: 2
#     Edge 71, Type (0, 0), BuildingBlock: OJICUG_clean_linker_0, # of connection points: 2
#     Edge 72, Type (0, 0), BuildingBlock: OJICUG_clean_linker_0, # of connection points: 2
#     Edge 73, Type (0, 0), BuildingBlock: OJICUG_clean_linker_0, # of connection points: 2
#     Edge 74, Type (0, 0), BuildingBlock: OJICUG_clean_linker_0, # of connection points: 2
#     Edge 75, Type (0, 0), BuildingBlock: OJICUG_clean_linker_0, # of connection points: 2
#     Edge 76, Type (0, 0), BuildingBlock: OJICUG_clean_linker_0, # of connection points: 2
#     Edge 77, Type (0, 0), BuildingBlock: OJICUG_clean_linker_0, # of connection points: 2
#     Edge 78, Type (0, 0), BuildingBlock: OJICUG_clean_linker_0, # of connection points: 2
#     Edge 79, Type (0, 0), BuildingBlock: OJICUG_clean_linker_0, # of connection points: 2
#     Edge 80, Type (0, 0), BuildingBlock: OJICUG_clean_linker_0, # of connection points: 2
#     Edge 81, Type (0, 0), BuildingBlock: OJICUG_clean_linker_0, # of connection points: 2
#     Edge 82, Type (0, 0), BuildingBlock: OJICUG_clean_linker_0, # of connection points: 2
#     Edge 83, Type (0, 0), BuildingBlock: OJICUG_clean_linker_0, # of connection points: 2
#     Edge 84, Type (0, 0), BuildingBlock: OJICUG_clean_linker_0, # of connection points: 2
#     Edge 85, Type (0, 0), BuildingBlock: OJICUG_clean_linker_0, # of connection points: 2
#     Edge 86, Type (0, 0), BuildingBlock: OJICUG_clean_linker_0, # of connection points: 2
#     Edge 87, Type (0, 0), BuildingBlock: OJICUG_clean_linker_0, # of connection points: 2
#     Edge 88, Type (0, 0), BuildingBlock: OJICUG_clean_linker_0, # of connection points: 2
#     Edge 89, Type (0, 0), BuildingBlock: OJICUG_clean_linker_0, # of connection points: 2
#     Edge 90, Type (0, 0), BuildingBlock: OJICUG_clean_linker_0, # of connection points: 2
#     Edge 91, Type (0, 0), BuildingBlock: OJICUG_clean_linker_0, # of connection points: 2
#     Edge 92, Type (0, 0), BuildingBlock: OJICUG_clean_linker_0, # of connection points: 2
#     Edge 93, Type (0, 0), BuildingBlock: OJICUG_clean_linker_0, # of connection points: 2
#     Edge 94, Type (0, 0), BuildingBlock: OJICUG_clean_linker_0, # of connection points: 2
#     Edge 95, Type (0, 0), BuildingBlock: OJICUG_clean_linker_0, # of connection points: 2
#     Edge 96, Type (0, 0), BuildingBlock: OJICUG_clean_linker_0, # of connection points: 2
#     Edge 97, Type (0, 0), BuildingBlock: OJICUG_clean_linker_0, # of connection points: 2
#     Edge 98, Type (0, 0), BuildingBlock: OJICUG_clean_linker_0, # of connection points: 2
#     Edge 99, Type (0, 0), BuildingBlock: OJICUG_clean_linker_0, # of connection points: 2
#     Edge 100, Type (0, 0), BuildingBlock: OJICUG_clean_linker_0, # of connection points: 2
#     Edge 101, Type (0, 0), BuildingBlock: OJICUG_clean_linker_0, # of connection points: 2
#     Edge 102, Type (0, 0), BuildingBlock: OJICUG_clean_linker_0, # of connection points: 2
#     Edge 103, Type (0, 0), BuildingBlock: OJICUG_clean_linker_0, # of connection points: 2
#     Edge 104, Type (0, 0), BuildingBlock: OJICUG_clean_linker_0, # of connection points: 2
#     Edge 105, Type (0, 0), BuildingBlock: OJICUG_clean_linker_0, # of connection points: 2
#     Edge 106, Type (0, 0), BuildingBlock: OJICUG_clean_linker_0, # of connection points: 2
#     Edge 107, Type (0, 0), BuildingBlock: OJICUG_clean_linker_0, # of connection points: 2
# Relax obj value: 0.157
# Max RMSD: 0.150
# Mean RMSD: 0.150
data_MOF--net-cha--node1-NAHDIM_clean_sbu_0--edge1-OJICUG_clean_linker_0
_symmetry_space_group_name_H-M    P1
_symmetry_Int_Tables_number       1
_symmetry_cell_setting            triclinic
loop_
_symmetry_equiv_pos_as_xyz
'x, y, z'
_cell_length_a     45.682064
_cell_length_b     45.774321
_cell_length_c     56.972937
_cell_angle_alpha  90.111346
_cell_angle_beta   90.018856
_cell_angle_gamma 119.89642
loop_
_atom_site_label
_atom_site_type_symbol
_atom_site_fract_x
_atom_site_fract_y
_atom_site_fract_z
_atom_type_partial_charge
C0 C 0.01589 0.28163 0.12968 0.0
O1 O 0.02203 0.25878 0.13861 0.0
O2 O 0.05981 0.25066 0.08903 0.0
Zn3 Zn 0.01497 0.24875 0.0865 0.0
O4 O 0.97672 0.20261 0.09419 0.0
C5 C 0.03092 0.27317 0.0386 0.0
O6 O 0.06239 0.28607 0.0456 0.0
O7 O 0.01274 0.28264 0.1076 0.0
C8 C 0.97146 0.17826 0.08077 0.0
O9 O -0.00739 0.18371 0.06348 0.0
C10 C 0.0647 0.23079 0.10184 0.0
O11 O 0.03978 0.20828 0.11467 0.0
O12 O 0.0072 0.25736 0.0532 0.0
C13 C 0.74745 0.74623 0.13344 0.0
O14 O 0.76397 0.77584 0.14371 0.0
O15 O 0.77707 0.82385 0.09855 0.0
Zn16 Zn 0.78344 0.78404 0.09279 0.0
O17 O 0.83081 0.79508 0.10025 0.0
C18 C 0.75853 0.77904 0.04539 0.0
O19 O 0.74292 0.79405 0.05432 0.0
O20 O 0.75126 0.74396 0.11158 0.0
C21 C 0.85491 0.81632 0.08758 0.0
O22 O 0.84837 0.83211 0.07095 0.0
C23 C 0.79525 0.84763 0.11263 0.0
O24 O 0.81888 0.8461 0.1248 0.0
O25 O 0.77637 0.77188 0.05868 0.0
C26 C 0.2998 0.02077 0.1368 0.0
O27 O 0.26907 0.00858 0.14509 0.0
O28 O 0.22421 0.97425 0.1006 0.0
Zn29 Zn 0.26658 0.01769 0.09343 0.0
O30 O 0.25804 0.05654 0.09619 0.0
C31 C 0.27234 0.9893 0.04941 0.0
O32 O 0.25887 0.96102 0.06134 0.0
O33 O 0.30471 0.02578 0.11488 0.0
C34 C 0.23732 0.05808 0.08207 0.0
O35 O 0.22116 0.03352 0.06687 0.0
C36 C 0.20041 0.97251 0.11316 0.0
O37 O 0.20385 -1e-05 0.12307 0.0
O38 O 0.279 0.01647 0.05985 0.0
C39 C 0.29712 0.01268 0.86289 0.0
O40 O 0.28817 0.03409 0.85512 0.0
O41 O 0.2586 0.05238 0.8953 0.0
Zn42 Zn 0.25804 0.00957 0.90396 0.0
O43 O 0.21069 0.9707 0.90114 0.0
C44 C 0.2677 0.98645 0.94839 0.0
O45 O 0.25501 0.95772 0.93694 0.0
O46 O 0.28797 0.00021 0.88326 0.0
C47 C 0.18761 0.96888 0.91453 0.0
O48 O 0.19505 0.99299 0.92995 0.0
C49 C 0.23802 0.05267 0.88041 0.0
O50 O 0.21682 0.02457 0.86961 0.0
O51 O 0.27227 0.01264 0.93757 0.0
C52 C 0.01586 0.2954 0.85059 0.0
O53 O 0.00148 0.26595 0.84003 0.0
O54 O 0.96594 0.21841 0.88667 0.0
Zn55 Zn 0.01342 0.25646 0.89113 0.0
O56 O 0.04666 0.24176 0.88227 0.0
C57 C -0.00133 0.26245 0.93999 0.0
O58 O 0.96711 0.24736 0.93288 0.0
O59 O 0.02252 0.29706 0.87236 0.0
C60 C 0.04752 0.21902 0.89452 0.0
O61 O 0.02545 0.20474 0.91151 0.0
C62 C 0.95872 0.19508 0.87179 0.0
O63 O 0.98269 0.19641 0.85832 0.0
O64 O 0.02194 0.26926 0.92517 0.0
C65 C 0.74188 0.75227 0.85866 0.0
O66 O 0.77236 0.76539 0.84973 0.0
O67 O 0.81849 0.79224 0.89376 0.0
Zn68 Zn 0.77661 0.79554 0.89825 0.0
O69 O 0.78469 0.84173 0.89062 0.0
C70 C 0.77005 0.76966 0.94533 0.0
O71 O 0.78499 0.75399 0.9364 0.0
O72 O 0.73813 0.76125 0.87902 0.0
C73 C 0.8047 0.86616 0.90365 0.0
O74 O 0.82111 0.86067 0.92042 0.0
C75 C 0.84349 0.81228 0.88123 0.0
O76 O 0.84229 0.83645 0.86966 0.0
O77 O 0.76347 0.78797 0.93214 0.0
C78 C 0.01075 0.75081 0.85994 0.0
O79 O 0.00493 0.77453 0.85235 0.0
O80 O 0.96649 0.7817 0.89731 0.0
Zn81 Zn 0.00866 0.77958 0.90378 0.0
O82 O 0.04998 0.82507 0.89977 0.0
C83 C 0.03449 0.77006 0.94724 0.0
O84 O 0.06204 0.78079 0.93463 0.0
O85 O 0.01247 0.74719 0.88192 0.0
C86 C 0.0562 0.84879 0.91409 0.0
O87 O 0.03436 0.84369 0.93081 0.0
C88 C 0.96593 0.80477 0.88527 0.0
O89 O -0.00596 0.82844 0.87586 0.0
O90 O 0.00776 0.76611 0.93742 0.0
C91 C 0.29754 0.29551 0.86326 0.0
O92 O 0.31221 0.29864 0.88367 0.0
O93 O 0.24393 0.19718 0.88329 0.0
Zn94 Zn 0.23871 0.23811 0.88434 0.0
O95 O 0.19092 0.22638 0.87803 0.0
C96 C 0.26888 0.25368 0.93074 0.0
O97 O 0.28393 0.23731 0.92329 0.0
O98 O 0.26752 0.27165 0.86007 0.0
C99 C 0.16733 0.20769 0.89202 0.0
O100 O 0.17415 0.19379 0.90979 0.0
C101 C 0.2272 0.17237 0.86961 0.0
O102 O 0.20544 0.17317 0.85493 0.0
O103 O 0.24973 0.25811 0.91681 0.0
C104 C 0.72788 0.02057 0.8568 0.0
O105 O 0.75797 0.03249 0.84745 0.0
O106 O 0.80638 0.07211 0.89024 0.0
Zn107 Zn 0.76552 0.02765 0.89828 0.0
O108 O 0.77547 0.9902 0.89264 0.0
C109 C 0.76361 0.05294 0.9447 0.0
O110 O 0.77756 0.08238 0.93421 0.0
O111 O 0.7249 0.01783 0.87896 0.0
C112 C 0.79805 0.98861 0.90466 0.0
O113 O 0.81538 0.01234 0.92018 0.0
C114 C 0.82856 0.07416 0.87583 0.0
O115 O 0.82395 0.04684 0.86496 0.0
O116 O 0.75551 0.02662 0.93263 0.0
C117 C 0.73609 0.01894 0.13067 0.0
O118 O 0.7511 0.00378 0.14025 0.0
O119 O 0.76761 0.97217 0.09637 0.0
Zn120 Zn 0.77091 0.01669 0.08907 0.0
O121 O 0.81848 0.05433 0.09407 0.0
C122 C 0.76586 0.04486 0.04563 0.0
O123 O 0.77822 0.07226 0.05858 0.0
O124 O 0.74008 0.02575 0.10891 0.0
C125 C 0.84214 0.05604 0.08138 0.0
O126 O 0.83512 0.03236 0.06569 0.0
C127 C 0.78769 0.96974 0.11064 0.0
O128 O 0.81024 -0.00325 0.12186 0.0
O129 O 0.75974 0.01728 0.05511 0.0
C130 C 0.03045 0.75155 0.1341 0.0
O131 O 0.05465 0.78193 0.13973 0.0
O132 O 0.06668 0.82622 0.09911 0.0
Zn133 Zn 0.02138 0.7851 0.09384 0.0
O134 O 0.98417 0.79539 0.09988 0.0
C135 C 0.04271 0.77439 0.04828 0.0
O136 O 0.07195 0.78552 0.05886 0.0
O137 O 0.01413 0.74719 0.11511 0.0
C138 C 0.98116 0.8166 0.08727 0.0
O139 O 0.00372 0.83297 0.0709 0.0
C140 C 0.07133 0.84986 0.11305 0.0
O141 O 0.04572 0.8474 0.12515 0.0
O142 O 0.01764 0.77122 0.06001 0.0
C143 C 0.29057 0.28841 0.12016 0.0
O144 O 0.26009 0.26919 0.12862 0.0
O145 O 0.21507 0.25291 0.08324 0.0
Zn146 Zn 0.2584 0.2522 0.07823 0.0
O147 O 0.25206 0.2067 0.0862 0.0
C148 C 0.26082 0.27373 0.02989 0.0
O149 O 0.24154 0.28538 0.03769 0.0
O150 O 0.29581 0.28647 0.09846 0.0
C151 C 0.23275 0.18134 0.07363 0.0
O152 O 0.21608 0.18521 0.05624 0.0
C153 C 0.19188 0.23237 0.09683 0.0
O154 O 0.19632 0.21017 0.10853 0.0
O155 O 0.27158 0.25994 0.04417 0.0
C156 C 0.69531 0.63123 0.46277 0.0
O157 O 0.70532 0.61079 0.47087 0.0
O158 O 0.74158 0.60256 0.42532 0.0
Zn159 Zn 0.69747 0.60098 0.41947 0.0
O160 O 0.65831 0.55415 0.42389 0.0
C161 C 0.66906 0.60679 0.37609 0.0
O162 O 0.64155 0.59494 0.38888 0.0
O163 O 0.69121 0.63231 0.4408 0.0
C164 C 0.65375 0.53098 0.40953 0.0
O165 O 0.67608 0.53764 0.39286 0.0
C166 C 0.74448 0.58131 0.43797 0.0
O167 O 0.71773 0.55749 0.44863 0.0
O168 O 0.69659 0.61295 0.38581 0.0
C169 C 0.4054 0.07235 0.45459 0.0
O170 O 0.3924 0.06809 0.43344 0.0
O171 O 0.46117 0.17259 0.43587 0.0
Zn172 Zn 0.46426 0.13046 0.43446 0.0
O173 O 0.51164 0.14061 0.44036 0.0
C174 C 0.43433 0.11686 0.38808 0.0
O175 O 0.42056 0.13434 0.39574 0.0
O176 O 0.43461 0.0972 0.45861 0.0
C177 C 0.53515 0.15981 0.42649 0.0
O178 O 0.52833 0.17465 0.40934 0.0
C179 C 0.48021 0.1978 0.44863 0.0
O180 O 0.50275 0.19644 0.46221 0.0
O181 O 0.4526 0.111 0.4019 0.0
C182 C 0.97175 0.35648 0.46425 0.0
O183 O 0.94205 0.34005 0.47435 0.0
O184 O 0.89186 0.30989 0.43111 0.0
Zn185 Zn 0.93228 0.35524 0.42411 0.0
O186 O 0.92349 0.39361 0.43099 0.0
C187 C 0.91927 0.3562 0.37608 0.0
O188 O 0.89116 0.35176 0.38551 0.0
O189 O 0.97344 0.36406 0.44266 0.0
C190 C 0.89536 0.39304 0.43029 0.0
O191 O 0.86747 0.36455 0.42604 0.0
C192 C 0.87138 0.30352 0.44799 0.0
O193 O 0.87667 0.32749 0.46302 0.0
O194 O 0.94219 0.35739 0.38937 0.0
C195 C 0.97008 0.35288 0.18876 0.0
O196 O 0.95797 0.37062 0.17898 0.0
O197 O 0.93712 0.40003 0.21865 0.0
Zn198 Zn 0.93249 0.35558 0.22824 0.0
O199 O 0.88495 0.31791 0.2224 0.0
C200 C 0.93304 0.37456 0.27583 0.0
O201 O 0.92259 0.39342 0.26563 0.0
O202 O 0.96372 0.34475 0.21023 0.0
C203 C 0.85933 0.31859 0.23041 0.0
O204 O 0.86367 0.34526 0.24203 0.0
C205 C 0.91833 0.40313 0.20358 0.0
O206 O 0.89614 0.3765 0.19182 0.0
O207 O 0.94077 0.3565 0.26317 0.0
C208 C 0.68579 0.62512 0.18875 0.0
O209 O 0.67422 0.59562 0.17854 0.0
O210 O 0.63622 0.54725 0.22274 0.0
Zn211 Zn 0.68165 0.58727 0.22982 0.0
O212 O 0.71871 0.57688 0.22333 0.0
C213 C 0.65939 0.59702 0.27527 0.0
O214 O 0.6307 0.58755 0.26432 0.0
O215 O 0.69006 0.62738 0.21083 0.0
C216 C 0.72223 0.5562 0.2362 0.0
O217 O 0.70043 0.54067 0.25315 0.0
C218 C 0.6322 0.52375 0.20887 0.0
O219 O 0.65853 0.52577 0.19805 0.0
O220 O 0.68418 0.59888 0.26392 0.0
C221 C 0.41373 0.08354 0.19937 0.0
O222 O 0.44432 0.10113 0.19071 0.0
O223 O 0.48968 0.12014 0.23562 0.0
Zn224 Zn 0.44671 0.12152 0.24069 0.0
O225 O 0.45339 0.16711 0.23255 0.0
C226 C 0.44247 0.09836 0.28876 0.0
O227 O 0.45976 0.08458 0.28072 0.0
O228 O 0.40882 0.08719 0.22085 0.0
C229 C 0.4729 0.1925 0.24502 0.0
O230 O 0.48967 0.18862 0.26234 0.0
C231 C 0.51242 0.13986 0.22143 0.0
O232 O 0.50772 0.16158 0.20932 0.0
O233 O 0.43371 0.11414 0.27472 0.0
C234 C 0.68619 0.08711 0.18907 0.0
O235 O 0.67704 0.10749 0.17959 0.0
O236 O 0.64443 0.12132 0.22851 0.0
Zn237 Zn 0.68969 0.12399 0.23071 0.0
O238 O 0.72721 0.16957 0.22121 0.0
C239 C 0.67631 0.10022 0.27878 0.0
O240 O 0.64474 0.08325 0.27173 0.0
O241 O 0.69187 0.08891 0.21098 0.0
C242 C 0.73125 0.19534 0.23242 0.0
O243 O 0.70921 0.19161 0.24864 0.0
C244 C 0.63865 0.13976 0.21481 0.0
O245 O 0.66272 0.1609 0.20079 0.0
O246 O 0.69917 0.11831 0.26417 0.0
C247 C 0.97599 0.64623 0.20346 0.0
O248 O 0.99006 0.65004 0.22419 0.0
O249 O 0.92403 0.54589 0.21969 0.0
Zn250 Zn 0.91865 0.58647 0.22361 0.0
O251 O 0.87043 0.57431 0.21859 0.0
C252 C 0.94649 0.5958 0.27068 0.0
O253 O 0.95777 0.57613 0.26307 0.0
O254 O 0.94669 0.62133 0.19979 0.0
C255 C 0.84767 0.55492 0.23286 0.0
O256 O 0.85577 0.54116 0.25005 0.0
C257 C 0.91019 0.52489 0.20305 0.0
O258 O 0.89144 0.52961 0.18773 0.0
O259 O 0.93056 0.60445 0.25663 0.0
C260 C 0.4036 0.35197 0.18352 0.0
O261 O 0.43444 0.36496 0.17528 0.0
O262 O 0.47931 0.39898 0.21908 0.0
Zn263 Zn 0.43738 0.3553 0.22658 0.0
O264 O 0.44643 0.31679 0.22352 0.0
C265 C 0.43375 0.38403 0.27102 0.0
O266 O 0.4473 0.41228 0.25905 0.0
O267 O 0.3987 0.3466 0.20542 0.0
C268 C 0.46745 0.31537 0.23742 0.0
O269 O 0.48365 0.33988 0.25265 0.0
C270 C 0.50334 0.40104 0.20663 0.0
O271 O 0.50041 0.37368 0.19688 0.0
O272 O 0.42592 0.35663 0.26044 0.0
C273 C 0.41887 0.36251 0.45847 0.0
O274 O 0.43375 0.34645 0.46676 0.0
O275 O 0.45445 0.32178 0.42415 0.0
Zn276 Zn 0.45455 0.36457 0.41621 0.0
O277 O 0.50135 0.40421 0.41981 0.0
C278 C 0.4442 0.38805 0.37191 0.0
O279 O 0.45673 0.41676 0.38336 0.0
O280 O 0.42341 0.37179 0.43715 0.0
C281 C 0.52522 0.40755 0.4066 0.0
O282 O 0.51908 0.38439 0.39066 0.0
C283 C 0.47596 0.32106 0.43795 0.0
O284 O 0.49874 0.34909 0.44805 0.0
O285 O 0.44032 0.36202 0.38261 0.0
C286 C 0.69408 0.07777 0.46614 0.0
O287 O 0.71107 0.10749 0.47619 0.0
O288 O 0.73956 0.15595 0.43175 0.0
Zn289 Zn 0.69316 0.11636 0.42635 0.0
O290 O 0.65816 0.12877 0.43486 0.0
C291 C 0.70967 0.1143 0.37729 0.0
O292 O 0.74107 0.13304 0.38432 0.0
O293 O 0.68487 0.07587 0.4449 0.0
C294 C 0.65664 0.15142 0.42296 0.0
O295 O 0.67903 0.16701 0.40635 0.0
C296 C 0.74506 0.17797 0.44737 0.0
O297 O 0.72013 0.1741 0.46095 0.0
O298 O 0.68597 0.10405 0.39222 0.0
C299 C 0.96899 0.6337 0.45886 0.0
O300 O 0.9384 0.61798 0.46771 0.0
O301 O 0.89252 0.5968 0.4233 0.0
Zn302 Zn 0.93448 0.59342 0.41863 0.0
O303 O 0.92636 0.5478 0.42829 0.0
C304 C 0.93956 0.61533 0.37016 0.0
O305 O 0.92485 0.63178 0.37811 0.0
O306 O 0.97334 0.62812 0.43765 0.0
C307 C 0.90098 0.52094 0.42081 0.0
O308 O 0.87891 0.52309 0.40719 0.0
C309 C 0.86998 0.57952 0.4384 0.0
O310 O 0.87416 0.55895 0.45222 0.0
O311 O 0.94658 0.59835 0.38437 0.0
C312 C 0.34469 0.94812 0.79897 0.0
O313 O 0.34956 0.92376 0.80648 0.0
O314 O 0.38766 0.91692 0.75925 0.0
Zn315 Zn 0.34482 0.91867 0.75497 0.0
O316 O 0.30428 0.87322 0.7606 0.0
C317 C 0.36664 0.94653 0.70837 0.0
O318 O 0.39706 0.95737 0.71693 0.0
O319 O 0.34283 0.95177 0.77702 0.0
C320 C 0.29859 0.84897 0.74695 0.0
O321 O 0.32039 0.8539 0.73023 0.0
C322 C 0.38934 0.89485 0.77178 0.0
O323 O 0.36232 0.87243 0.783 0.0
O324 O 0.34121 0.93062 0.72165 0.0
C325 C 0.07657 0.41816 0.79702 0.0
O326 O 0.09629 0.4468 0.80778 0.0
O327 O 0.10567 0.49815 0.76519 0.0
Zn328 Zn 0.11171 0.45846 0.75788 0.0
O329 O 0.15786 0.46617 0.76679 0.0
C330 C 0.12299 0.47667 0.71022 0.0
O331 O 0.13872 0.50644 0.72029 0.0
O332 O 0.07756 0.41703 0.77478 0.0
C333 C 0.18591 0.49286 0.76321 0.0
O334 O 0.18618 0.51952 0.75449 0.0
C335 C 0.12139 0.52043 0.78081 0.0
O336 O 0.14307 0.51783 0.79455 0.0
O337 O 0.10721 0.45061 0.72293 0.0
C338 C 0.62378 0.67981 0.80085 0.0
O339 O 0.59423 0.67231 0.80955 0.0
O340 O 0.54617 0.62597 0.765 0.0
Zn341 Zn 0.58778 0.67038 0.75823 0.0
O342 O 0.57813 0.70817 0.76336 0.0
C343 C 0.62186 0.6992 0.71514 0.0
O344 O 0.63678 0.72638 0.72832 0.0
O345 O 0.62693 0.67903 0.77875 0.0
C346 C 0.55624 0.71034 0.75089 0.0
O347 O 0.53931 0.68697 0.73506 0.0
C348 C 0.52335 0.62356 0.77894 0.0
O349 O 0.52765 0.6505 0.79019 0.0
O350 O 0.60025 0.67149 0.72437 0.0
C351 C 0.63835 0.68766 0.52608 0.0
O352 O 0.62218 0.70235 0.51764 0.0
O353 O 0.60444 0.72985 0.56156 0.0
Zn354 Zn 0.60258 0.68576 0.56796 0.0
O355 O 0.55575 0.64734 0.56222 0.0
C356 C 0.63119 0.70951 0.61428 0.0
O357 O 0.6467 0.7392 0.60413 0.0
O358 O 0.63471 0.67927 0.54758 0.0
C359 C 0.53179 0.64413 0.57528 0.0
O360 O 0.53812 0.6669 0.59158 0.0
C361 C 0.58387 0.7323 0.5478 0.0
O362 O 0.56114 0.7054 0.53657 0.0
O363 O 0.61241 0.68359 0.60202 0.0
C364 C 0.3512 0.96541 0.5225 0.0
O365 O 0.32579 0.93554 0.51719 0.0
O366 O 0.31636 0.88994 0.55722 0.0
Zn367 Zn 0.36233 0.93066 0.56126 0.0
O368 O 0.39827 0.91906 0.55388 0.0
C369 C 0.34493 0.94015 0.60846 0.0
O370 O 0.3142 0.92645 0.59985 0.0
O371 O 0.369 0.96882 0.54055 0.0
C372 C 0.39987 0.89658 0.56593 0.0
O373 O 0.37681 0.88031 0.58203 0.0
C374 C 0.31058 0.867 0.54231 0.0
O375 O 0.33509 0.87032 0.52852 0.0
O376 O 0.36914 0.94518 0.595 0.0
C377 C 0.09112 0.42658 0.52134 0.0
O378 O 0.12035 0.44706 0.51157 0.0
O379 O 0.16873 0.45875 0.55602 0.0
Zn380 Zn 0.12712 0.4619 0.56253 0.0
O381 O 0.13354 0.50809 0.55576 0.0
C382 C 0.14147 0.46705 0.61108 0.0
O383 O 0.17222 0.48273 0.60251 0.0
O384 O 0.08804 0.42777 0.54343 0.0
C385 C 0.15919 0.53543 0.56239 0.0
O386 O 0.18453 0.53443 0.57244 0.0
C387 C 0.19217 0.47676 0.54172 0.0
O388 O 0.18973 0.4993 0.52892 0.0
O389 O 0.11651 0.45372 0.59706 0.0
C390 C 0.36243 0.41938 0.52181 0.0
O391 O 0.35301 0.44029 0.51373 0.0
O392 O 0.31729 0.44968 0.55839 0.0
Zn393 Zn 0.36057 0.44973 0.56511 0.0
O394 O 0.40021 0.49604 0.56046 0.0
C395 C 0.33618 0.42543 0.61216 0.0
O396 O 0.30676 0.41821 0.60332 0.0
O397 O 0.36625 0.41802 0.54379 0.0
C398 C 0.40422 0.51987 0.57397 0.0
O399 O 0.38139 0.51392 0.59012 0.0
C400 C 0.31565 0.47132 0.54533 0.0
O401 O 0.34314 0.49458 0.53502 0.0
O402 O 0.36194 0.43779 0.59891 0.0
C403 C 0.62971 0.95748 0.52196 0.0
O404 O 0.60954 0.92825 0.51204 0.0
O405 O 0.59878 0.88032 0.55825 0.0
Zn406 Zn 0.59449 0.92153 0.56295 0.0
O407 O 0.54811 0.91243 0.55431 0.0
C408 C 0.61397 0.92373 0.61159 0.0
O409 O 0.62669 0.90524 0.60407 0.0
O410 O 0.62848 0.9604 0.54404 0.0
C411 C 0.52319 0.89137 0.56646 0.0
O412 O 0.52837 0.87462 0.58311 0.0
C413 C 0.57994 0.85634 0.54449 0.0
O414 O 0.557 0.85855 0.53195 0.0
O415 O 0.60026 0.93418 0.59701 0.0
C416 C 0.08379 0.69443 0.52066 0.0
O417 O 0.11412 0.70471 0.51221 0.0
O418 O 0.15933 0.74026 0.55779 0.0
Zn419 Zn 0.11688 0.69616 0.56376 0.0
O420 O 0.125 0.65738 0.5581 0.0
C421 C 0.08287 0.66748 0.60734 0.0
O422 O 0.06886 0.63963 0.59482 0.0
O423 O 0.07905 0.69013 0.54265 0.0
C424 C 0.1495 0.65626 0.56774 0.0
O425 O 0.17028 0.68129 0.58135 0.0
C426 C 0.18227 0.74336 0.54369 0.0
O427 O 0.17806 0.71701 0.53166 0.0
O428 O 0.10378 0.69504 0.59757 0.0
C429 C 0.05988 0.68778 0.79572 0.0
O430 O 0.07211 0.66928 0.80398 0.0
O431 O 0.0945 0.6449 0.7626 0.0
Zn432 Zn 0.09708 0.68891 0.7546 0.0
O433 O 0.14446 0.72669 0.75961 0.0
C434 C 0.07043 0.66232 0.70827 0.0
O435 O 0.05649 0.63309 0.71905 0.0
O436 O 0.06612 0.69794 0.7746 0.0
C437 C 0.16803 0.72812 0.74695 0.0
O438 O 0.16087 0.70418 0.73144 0.0
C439 C 0.11436 0.64268 0.77718 0.0
O440 O 0.13666 0.66979 0.78844 0.0
O441 O 0.08729 0.68917 0.72017 0.0
C442 C 0.35087 0.40356 0.79612 0.0
O443 O 0.37843 0.43226 0.80057 0.0
O444 O 0.38559 0.48087 0.76404 0.0
Zn445 Zn 0.33892 0.44127 0.75977 0.0
O446 O 0.30383 0.45357 0.76855 0.0
C447 C 0.35511 0.43082 0.71249 0.0
O448 O 0.38515 0.44098 0.72152 0.0
O449 O 0.33158 0.40191 0.77946 0.0
C450 C 0.30508 0.48017 0.7608 0.0
O451 O 0.33076 0.50083 0.74768 0.0
C452 C 0.39305 0.50243 0.78035 0.0
O453 O 0.3697 0.49861 0.79548 0.0
O454 O 0.33158 0.42828 0.72571 0.0
C455 C 0.61098 0.9448 0.79851 0.0
O456 O 0.58043 0.92877 0.80745 0.0
O457 O 0.53651 0.90678 0.76009 0.0
Zn458 Zn 0.57882 0.90382 0.75741 0.0
O459 O 0.57034 0.85756 0.76539 0.0
C460 C 0.59159 0.93162 0.71032 0.0
O461 O 0.57791 0.94912 0.71809 0.0
O462 O 0.61572 0.93825 0.77766 0.0
C463 C 0.55069 0.8334 0.75203 0.0
O464 O 0.53501 0.83934 0.73496 0.0
C465 C 0.51212 0.8877 0.77342 0.0
O466 O 0.51448 0.86528 0.78641 0.0
O467 O 0.59469 0.9116 0.72411 0.0
C468 C 0.10304 0.20936 0.11473 0.0
C469 C 0.0977 0.23207 0.10138 0.0
H470 H 0.13697 0.19166 0.12382 0.0
C471 C 0.12394 0.2555 0.08704 0.0
H472 H 0.08336 0.19102 0.12597 0.0
C473 C 0.15465 0.25586 0.0858 0.0
C474 C 0.15982 0.23281 0.09887 0.0
H475 H 0.12068 0.27337 0.07653 0.0
H476 H 0.17419 0.27401 0.07438 0.0
C477 C 0.13378 0.20972 0.11349 0.0
C478 C 0.81153 0.93528 0.12719 0.0
C479 C 0.78765 0.93754 0.11289 0.0
H480 H 0.8326 0.90504 0.13843 0.0
C481 C 0.76491 0.90923 0.09973 0.0
H482 H 0.82934 0.9566 0.13761 0.0
C483 C 0.7668 0.87973 0.10018 0.0
C484 C 0.79145 0.87785 0.11382 0.0
H485 H 0.74611 0.91006 0.0886 0.0
H486 H 0.74937 0.85865 0.0894 0.0
C487 C 0.8134 0.90572 0.12766 0.0
C488 C 0.10967 0.90857 0.1277 0.0
C489 C 0.10494 0.88047 0.11462 0.0
H490 H 0.14365 0.95976 0.13757 0.0
C491 C 0.1324 0.8823 0.10224 0.0
H492 H 0.08902 0.90792 0.13747 0.0
C493 C 0.16365 0.91189 0.10236 0.0
C494 C 0.16814 0.94038 0.1148 0.0
H495 H 0.12966 0.86104 0.0921 0.0
H496 H 0.18408 0.91262 0.09225 0.0
C497 C 0.14097 0.93828 0.12776 0.0
C498 C 0.25779 0.11323 0.88922 0.0
C499 C 0.23665 0.08387 0.87641 0.0
H500 H 0.27143 0.16411 0.8971 0.0
C501 C 0.21332 0.08429 0.86051 0.0
H502 H 0.27609 0.1138 0.90159 0.0
C503 C 0.21066 0.11325 0.8579 0.0
C504 C 0.23122 0.14231 0.87119 0.0
H505 H 0.19672 0.06209 0.85033 0.0
H506 H 0.19208 0.11264 0.84578 0.0
C507 C 0.25508 0.1421 0.88666 0.0
C508 C 0.89894 0.16366 0.8859 0.0
C509 C 0.92438 0.16537 0.87113 0.0
H510 H 0.84863 0.13363 0.89885 0.0
C511 C 0.91719 0.13768 0.85667 0.0
H512 H 0.90362 0.18463 0.89719 0.0
C513 C 0.88565 0.10839 0.85765 0.0
C514 C 0.86065 0.10623 0.87306 0.0
H515 H 0.9362 0.13824 0.84502 0.0
H516 H 0.8812 0.08716 0.84672 0.0
C517 C 0.86739 0.13442 0.88683 0.0
C518 C 0.87509 0.78312 0.89313 0.0
C519 C 0.87432 0.80939 0.88093 0.0
H520 H 0.90443 0.76097 0.90396 0.0
C521 C 0.9036 0.83341 0.86929 0.0
H522 H 0.85295 0.76413 0.90223 0.0
C523 C 0.93327 0.83163 0.87032 0.0
C524 C 0.93419 0.80576 0.88297 0.0
H525 H 0.90382 0.85394 0.85972 0.0
H526 H 0.95558 0.85081 0.86148 0.0
C527 C 0.90465 0.7813 0.89411 0.0
C528 C 0.80465 0.60517 0.4256 0.0
C529 C 0.77723 0.58218 0.43931 0.0
H530 H 0.85537 0.62236 0.41456 0.0
C531 C 0.78108 0.5593 0.45356 0.0
H532 H 0.80256 0.62318 0.41445 0.0
C533 C 0.8115 0.55892 0.45369 0.0
C534 C 0.83858 0.5813 0.43948 0.0
H535 H 0.76047 0.54133 0.46438 0.0
H536 H 0.81351 0.54063 0.46457 0.0
C537 C 0.83495 0.60467 0.42564 0.0
C538 C 0.50009 0.28809 0.4566 0.0
C539 C 0.47605 0.28918 0.44177 0.0
H540 H 0.52021 0.25829 0.47051 0.0
C541 C 0.45261 0.25966 0.43003 0.0
H542 H 0.51846 0.3104 0.46594 0.0
C543 C 0.45365 0.22989 0.43262 0.0
C544 C 0.4781 0.22893 0.44706 0.0
H545 H 0.4337 0.25959 0.41852 0.0
H546 H 0.43549 0.20774 0.42304 0.0
C547 C 0.50109 0.25823 0.45923 0.0
C548 C 0.83466 0.2448 0.43312 0.0
C549 C 0.84027 0.27029 0.44931 0.0
H550 H 0.80034 0.19561 0.4199 0.0
C551 C 0.81511 0.26429 0.46587 0.0
H552 H 0.8536 0.24854 0.42018 0.0
C553 C 0.78447 0.23389 0.46568 0.0
C554 C 0.77845 0.20888 0.44895 0.0
H555 H 0.81868 0.28338 0.47862 0.0
H556 H 0.76526 0.23033 0.47831 0.0
C557 C 0.80411 0.21441 0.43296 0.0
C558 C 0.93875 0.46223 0.2169 0.0
C559 C 0.91858 0.43546 0.20165 0.0
H560 H 0.95184 0.51133 0.22932 0.0
C561 C 0.89702 0.43913 0.18583 0.0
H562 H 0.95566 0.46028 0.2293 0.0
C563 C 0.89488 0.46857 0.18581 0.0
C564 C 0.91411 0.49477 0.20171 0.0
H565 H 0.88121 0.41898 0.17383 0.0
H566 H 0.87752 0.4704 0.17377 0.0
C567 C 0.93646 0.4915 0.21697 0.0
C568 C 0.59445 0.46534 0.19351 0.0
C569 C 0.59857 0.49334 0.20642 0.0
H570 H 0.56102 0.41415 0.18334 0.0
C571 C 0.5705 0.49146 0.21797 0.0
H572 H 0.61556 0.46604 0.18435 0.0
C573 C 0.5393 0.46182 0.21734 0.0
C574 C 0.53546 0.43336 0.2052 0.0
H575 H 0.57276 0.51265 0.22796 0.0
H576 H 0.51841 0.46099 0.22691 0.0
C577 C 0.56319 0.4356 0.19293 0.0
C578 C 0.56941 0.16064 0.20336 0.0
C579 C 0.54418 0.13891 0.21902 0.0
H580 H 0.61896 0.17786 0.18964 0.0
C581 C 0.54986 0.1167 0.23272 0.0
H582 H 0.5658 0.178 0.19251 0.0
C583 C 0.58033 0.11662 0.23107 0.0
C584 C 0.60578 0.13872 0.21567 0.0
H585 H 0.53093 0.0996 0.24494 0.0
H586 H 0.58403 0.09947 0.24209 0.0
C587 C 0.59988 0.16053 0.20169 0.0
C588 C 0.42335 0.86956 0.78681 0.0
C589 C 0.4211 0.89372 0.77293 0.0
H590 H 0.45389 0.84874 0.79792 0.0
C591 C 0.4493 0.91638 0.7597 0.0
H592 H 0.40208 0.85176 0.79723 0.0
C593 C 0.47893 0.91461 0.76007 0.0
C594 C 0.48106 0.89019 0.77371 0.0
H595 H 0.44843 0.93532 0.74883 0.0
H596 H 0.50007 0.93226 0.74949 0.0
C597 C 0.45305 0.86783 0.78722 0.0
C598 C 0.13868 0.57827 0.79603 0.0
C599 C 0.11749 0.55059 0.78178 0.0
H600 H 0.15431 0.62917 0.80581 0.0
C601 C 0.0937 0.5527 0.76729 0.0
H602 H 0.15723 0.5774 0.80741 0.0
C603 C 0.09199 0.58226 0.7664 0.0
C604 C 0.11409 0.61043 0.77992 0.0
H605 H 0.07684 0.53177 0.75619 0.0
H606 H 0.07389 0.58326 0.75462 0.0
C607 C 0.13703 0.60794 0.79508 0.0
C608 C 0.43425 0.55915 0.79674 0.0
C609 C 0.42718 0.53238 0.78137 0.0
H610 H 0.47025 0.60899 0.80808 0.0
C611 C 0.4527 0.53505 0.76625 0.0
H612 H 0.41514 0.55782 0.80864 0.0
C613 C 0.4843 0.56426 0.76601 0.0
C614 C 0.49101 0.59152 0.78078 0.0
H615 H 0.44813 0.51478 0.75429 0.0
H616 H 0.50317 0.56575 0.7538 0.0
C617 C 0.46583 0.58848 0.7964 0.0
C618 C 0.60749 0.79292 0.55864 0.0
C619 C 0.58431 0.76469 0.54561 0.0
H620 H 0.62438 0.84397 0.56844 0.0
C621 C 0.56075 0.76738 0.53123 0.0
H622 H 0.62603 0.79174 0.56984 0.0
C623 C 0.55982 0.79743 0.53041 0.0
C624 C 0.5824 0.82534 0.54396 0.0
H625 H 0.54261 0.74611 0.52092 0.0
H626 H 0.54097 0.79852 0.5195 0.0
C627 C 0.60654 0.8229 0.55784 0.0
C628 C 0.24021 0.77922 0.52703 0.0
C629 C 0.21431 0.77574 0.54209 0.0
H630 H 0.29094 0.81086 0.51519 0.0
C631 C 0.21981 0.8031 0.55636 0.0
H632 H 0.23674 0.75864 0.51577 0.0
C633 C 0.25085 0.83296 0.55606 0.0
C634 C 0.27706 0.83616 0.54144 0.0
H635 H 0.20035 0.8013 0.56812 0.0
H636 H 0.25444 0.85335 0.56758 0.0
C637 C 0.27128 0.80916 0.52669 0.0
C638 C 0.25479 0.44795 0.55543 0.0
C639 C 0.28345 0.47137 0.54295 0.0
H640 H 0.20356 0.4312 0.56472 0.0
C641 C 0.28131 0.49551 0.52897 0.0
H642 H 0.25552 0.42895 0.56631 0.0
C643 C 0.25136 0.49676 0.528 0.0
C644 C 0.22303 0.47396 0.54106 0.0
H645 H 0.30293 0.51384 0.51907 0.0
H646 H 0.25067 0.51607 0.51744 0.0
C647 C 0.22495 0.44925 0.55451 0.0
C648 C 0.00091 0.3268 0.13551 0.0
C649 C 0.0087 0.30326 0.14517 0.0
H650 H 0.98297 0.36125 0.14174 0.0
C651 C 0.00712 0.29889 0.16963 0.0
H652 H 0.00216 0.331 0.11674 0.0
C653 C -0.0039 0.31626 0.18399 0.0
C654 C 0.98647 0.33838 0.17416 0.0
H655 H 0.01318 0.28111 0.17765 0.0
H656 H -0.00608 0.31138 0.20269 0.0
C657 C 0.98994 0.3442 0.14986 0.0
C658 C 0.72706 0.71714 0.17206 0.0
C659 C 0.72788 0.71534 0.14748 0.0
H660 H 0.71288 0.68998 0.20442 0.0
C661 C 0.71184 0.68355 0.13653 0.0
H662 H 0.739 0.74124 0.18103 0.0
C663 C 0.69685 0.65415 0.14993 0.0
C664 C 0.69763 0.65595 0.17455 0.0
H665 H 0.71179 0.6813 0.1176 0.0
H666 H 0.6857 0.63006 0.14098 0.0
C667 C 0.71209 0.68773 0.18547 0.0
C668 C 0.36194 0.04763 0.14417 0.0
C669 C 0.32885 0.0326 0.15298 0.0
H670 H 0.41476 0.07524 0.15195 0.0
C671 C 0.32398 0.0314 0.17739 0.0
H672 H 0.36657 0.04874 0.12546 0.0
C673 C 0.35163 0.04664 0.19259 0.0
C674 C 0.38471 0.06334 0.18368 0.0
H675 H 0.2988 0.0198 0.18476 0.0
H676 H 0.34701 0.04636 0.21125 0.0
C677 C 0.38959 0.06282 0.15937 0.0
C678 C 0.31846 0.00862 0.82324 0.0
C679 C 0.31378 -0.00024 0.8471 0.0
H680 H 0.3321 -0.00066 0.78927 0.0
C681 C 0.3227 0.97632 0.85535 0.0
H682 H 0.31201 0.02674 0.81635 0.0
C683 C 0.33427 0.96068 0.83984 0.0
C684 C 0.33707 0.96807 0.81575 0.0
H685 H 0.31967 0.96916 0.87368 0.0
H686 H 0.3398 0.94186 0.84664 0.0
C687 C 0.32994 0.99288 0.80771 0.0
C688 C 0.05844 0.38795 0.83535 0.0
C689 C 0.05712 0.3869 0.81072 0.0
H690 H 0.04624 0.3599 0.86728 0.0
C691 C 0.03931 0.35548 0.79938 0.0
H692 H 0.07175 0.41175 0.84464 0.0
C693 C 0.02465 0.32567 0.81239 0.0
C694 C 0.02755 0.32672 0.83697 0.0
H695 H 0.03768 0.35383 0.78041 0.0
H696 H 0.01209 0.30183 0.80311 0.0
C697 C 0.04382 0.35819 0.84834 0.0
C698 C 0.65073 0.69811 0.8403 0.0
C699 C 0.65389 0.694 0.81618 0.0
H700 H 0.67606 0.71958 0.87267 0.0
C701 C 0.6863 0.70636 0.80659 0.0
H702 H 0.62614 0.68869 0.84828 0.0
C703 C 0.71502 0.72413 0.82061 0.0
C704 C 0.71183 0.72991 0.84445 0.0
H705 H 0.68958 0.70344 0.78806 0.0
H706 H 0.73967 0.7344 0.81254 0.0
C707 C 0.67939 0.7159 0.85428 0.0
C708 C 0.02067 0.73792 0.81898 0.0
C709 C 0.01911 0.73136 0.84317 0.0
H710 H 0.03452 0.72909 0.78494 0.0
C711 C 0.02794 0.7078 0.85128 0.0
H712 H 0.01384 0.75577 0.81213 0.0
C713 C 0.03976 0.69244 0.83567 0.0
C714 C 0.04304 0.70038 0.81164 0.0
H715 H 0.0268 0.702 0.86979 0.0
H716 H 0.04744 0.67527 0.8426 0.0
C717 C 0.03253 0.7226 0.80337 0.0
C718 C 0.31047 0.34393 0.80703 0.0
C719 C 0.34001 0.37446 0.81199 0.0
H720 H 0.27414 0.295 0.8192 0.0
C721 C 0.35743 0.37758 0.83304 0.0
H722 H 0.29661 0.34056 0.79087 0.0
C723 C 0.34447 0.35133 0.84939 0.0
C724 C 0.31389 0.32153 0.84494 0.0
H725 H 0.38038 0.40074 0.83731 0.0
H726 H 0.35774 0.35491 0.86584 0.0
C727 C 0.29757 0.31777 0.8233 0.0
C728 C 0.66503 0.9891 0.85155 0.0
C729 C 0.69754 0.00545 0.84166 0.0
H730 H 0.61201 0.95716 0.84562 0.0
C731 C 0.70091 0.00444 0.81722 0.0
H732 H 0.66158 0.98956 0.87033 0.0
C733 C 0.67257 0.98579 0.80311 0.0
C734 C 0.64024 0.96785 0.81313 0.0
H735 H 0.72556 0.01695 0.80901 0.0
H736 H 0.67618 0.98459 0.78442 0.0
C737 C 0.63662 0.9705 0.8374 0.0
C738 C 0.70489 0.05062 0.13537 0.0
C739 C 0.71875 0.0322 0.14548 0.0
H740 H 0.68343 0.08221 0.14122 0.0
C741 C 0.71837 0.02902 0.17001 0.0
H742 H 0.70455 0.05334 0.1165 0.0
C743 C 0.70628 0.04562 0.18418 0.0
C744 C 0.69428 0.06568 0.1741 0.0
H745 H 0.72863 0.01481 0.17834 0.0
H746 H 0.70752 0.0437 0.20306 0.0
C747 C 0.69276 0.06718 0.14954 0.0
C748 C 0.03481 0.72853 0.17305 0.0
C749 C 0.01931 0.72345 0.15093 0.0
H750 H 0.0334 0.70796 0.20706 0.0
C751 C 0.9913 0.69184 0.14566 0.0
H752 H 0.05654 0.75256 0.17761 0.0
C753 C 0.97803 0.66643 0.16251 0.0
C754 C -0.00749 0.67199 0.185 0.0
H755 H 0.97888 0.68698 0.12874 0.0
H756 H 0.95583 0.6427 0.15805 0.0
C757 C 0.02156 0.70298 0.18993 0.0
C758 C 0.31394 0.30781 0.16052 0.0
C759 C 0.31919 0.30862 0.13617 0.0
H760 H 0.3365 0.32111 0.19461 0.0
C761 C 0.35232 0.32675 0.12747 0.0
H762 H 0.28872 0.29426 0.16779 0.0
C763 C 0.37974 0.34217 0.14286 0.0
C764 C 0.37458 0.33975 0.16726 0.0
H765 H 0.35722 0.32806 0.10879 0.0
H766 H 0.40501 0.35493 0.13561 0.0
C767 C 0.34136 0.32321 0.17591 0.0
C768 C 0.67205 0.65903 0.51886 0.0
C769 C 0.65698 0.67713 0.51018 0.0
H770 H 0.69625 0.63055 0.5107 0.0
C771 C 0.65765 0.6828 0.4859 0.0
H772 H 0.67217 0.65441 0.53749 0.0
C773 C 0.67144 0.66909 0.47053 0.0
C774 C 0.68487 0.64946 0.47913 0.0
H775 H 0.64645 0.69683 0.47865 0.0
H776 H 0.67051 0.67294 0.45185 0.0
C777 C 0.68587 0.64534 0.50349 0.0
C778 C 0.40267 0.05156 0.49543 0.0
C779 C 0.3884 0.04646 0.4729 0.0
H780 H 0.4019 0.03011 0.52882 0.0
C781 C 0.35947 0.01551 0.46764 0.0
H782 H 0.42475 0.07524 0.50015 0.0
C783 C 0.3463 0.98949 0.48417 0.0
C784 C 0.36185 -0.00598 0.50621 0.0
H785 H 0.34778 0.01087 0.45047 0.0
H786 H 0.32478 0.96547 0.47931 0.0
C787 C 0.38954 0.02565 0.5119 0.0
C788 C 0.00084 0.36683 0.50311 0.0
C789 C 0.00286 0.37047 0.47858 0.0
H790 H 0.02716 0.38162 0.53589 0.0
C791 C 0.03469 0.39012 0.46813 0.0
H792 H 0.97673 0.35173 0.51171 0.0
C793 C 0.06363 0.40723 0.48201 0.0
C794 C 0.06131 0.40512 0.50661 0.0
H795 H 0.03715 0.39327 0.44927 0.0
H796 H 0.08761 0.42308 0.47346 0.0
C797 C 0.02976 0.38402 0.51699 0.0
C798 C 0.38547 0.38083 0.51398 0.0
C799 C 0.37269 0.40106 0.50543 0.0
H800 H 0.40987 0.35253 0.50581 0.0
C801 C 0.37225 0.40571 0.48109 0.0
H802 H 0.38596 0.37656 0.53263 0.0
C803 C 0.38601 0.39197 0.46572 0.0
C804 C 0.40043 0.37325 0.47437 0.0
H805 H 0.36238 0.42097 0.47391 0.0
H806 H 0.38632 0.39699 0.44712 0.0
C807 C 0.39918 0.36704 0.4986 0.0
C808 C 0.67067 0.01918 0.5181 0.0
C809 C 0.65019 0.98764 0.50746 0.0
H810 H 0.70095 0.07246 0.51334 0.0
C811 C 0.64733 0.9857 0.48289 0.0
H812 H 0.67363 0.02147 0.53699 0.0
C813 C 0.66294 0.01494 0.46934 0.0
C814 C 0.6818 0.04668 0.4801 0.0
H815 H 0.63194 0.96176 0.47414 0.0
H816 H 0.65919 0.01272 0.45051 0.0
C817 C 0.68638 0.04842 0.50454 0.0
C818 C -0.006 0.65557 0.4985 0.0
C819 C -0.00156 0.65373 0.47424 0.0
H820 H 0.01755 0.6701 0.53224 0.0
C821 C 0.03138 0.66875 0.46517 0.0
H822 H 0.96896 0.64445 0.50604 0.0
C823 C 0.05925 0.68353 0.4802 0.0
C824 C 0.05473 0.68349 0.5046 0.0
H825 H 0.03567 0.66801 0.44654 0.0
H826 H 0.08426 0.69374 0.47273 0.0
C827 C 0.02187 0.67026 0.51354 0.0
C828 C 0.04871 0.28691 -0.00335 0.0
C829 C 0.0229 0.27378 0.01352 0.0
H830 H 0.06131 0.29376 0.96017 0.0
C831 C 0.98913 0.25925 0.00605 0.0
H832 H 0.07497 0.29836 0.00181 0.0
C833 C 0.98128 0.25666 0.98216 0.0
C834 C 0.00702 0.26844 0.96525 0.0
H835 H 0.96864 0.24904 0.01862 0.0
H836 H 0.95498 0.24449 0.97697 0.0
C837 C 0.04085 0.28422 0.97276 0.0
C838 C 0.74696 0.78479 0.98018 0.0
C839 C 0.76393 0.76886 0.97084 0.0
H840 H 0.73164 0.80022 0.01108 0.0
C841 C 0.77676 0.75403 0.98622 0.0
H842 H 0.73659 0.79629 0.96878 0.0
C843 C 0.77404 0.75641 0.01047 0.0
C844 C 0.75825 0.7735 0.01982 0.0
H845 H 0.78987 0.74149 0.97958 0.0
H846 H 0.78505 0.74554 0.02188 0.0
C847 C 0.74406 0.78699 0.00443 0.0
C848 C 0.28577 0.0183 0.98627 0.0
C849 C 0.27294 0.98763 0.97406 0.0
H850 H 0.29601 0.04293 0.01961 0.0
C851 C 0.26298 0.95788 0.98682 0.0
H852 H 0.29391 0.04172 0.97697 0.0
C853 C 0.26416 0.95856 0.01135 0.0
C854 C 0.27538 0.98902 0.02357 0.0
H855 H 0.25312 0.93385 0.97792 0.0
H856 H 0.25518 0.93505 0.02071 0.0
C857 C 0.28701 0.01899 0.01075 0.0
C858 C 0.00683 0.75811 0.9867 0.0
C859 C 0.03568 0.76702 0.97304 0.0
H860 H 0.98636 0.75321 0.02114 0.0
C861 C 0.06624 0.77549 0.9844 0.0
H862 H 0.98285 0.7513 0.97851 0.0
C863 C 0.06826 0.7766 0.00891 0.0
C864 C 0.03977 0.76928 0.02254 0.0
H865 H 0.08891 0.78236 0.97439 0.0
H866 H 0.09242 0.78428 0.01712 0.0
C867 C 0.00886 0.75923 0.01117 0.0
C868 C 0.25068 0.28336 0.98812 0.0
C869 C 0.26654 0.27274 0.0044 0.0
H870 H 0.23915 0.2859 0.95205 0.0
C871 C 0.28589 0.25878 -0.00396 0.0
H872 H 0.23572 0.29436 -0.00604 0.0
C873 C 0.28791 0.25397 0.972 0.0
C874 C 0.27057 0.26295 0.9558 0.0
H875 H 0.29862 0.25052 0.0081 0.0
H876 H 0.30209 0.24211 0.96621 0.0
C877 C 0.25265 0.27849 0.96407 0.0
C878 C 0.74854 0.0193 0.98174 0.0
C879 C 0.76083 0.05062 0.97058 0.0
H880 H 0.74034 0.9929 0.01415 0.0
C881 C 0.77246 0.07978 0.98442 0.0
H882 H 0.73925 -0.0037 0.97161 0.0
C883 C 0.77304 0.0778 0.00889 0.0
C884 C 0.76207 0.04663 0.01998 0.0
H885 H 0.78199 0.10428 0.97637 0.0
H886 H 0.783 0.10084 0.01905 0.0
C887 C 0.74919 0.01733 0.00616 0.0
C888 C 0.69359 0.61463 0.31214 0.0
C889 C 0.66232 0.60299 0.30088 0.0
H890 H 0.72033 0.62542 0.34465 0.0
C891 C 0.63378 0.59549 0.31449 0.0
H892 H 0.71614 0.62092 0.30215 0.0
C893 C 0.63618 0.59804 0.33896 0.0
C894 C 0.66719 0.60826 0.35025 0.0
H895 H 0.60935 0.58659 0.30633 0.0
H896 H 0.61352 0.59099 0.34904 0.0
C897 C 0.69601 0.6173 0.33653 0.0
C898 C 0.41664 0.11892 0.34682 0.0
C899 C 0.43246 0.10803 0.36292 0.0
H900 H 0.40724 0.12425 0.31077 0.0
C901 C 0.44885 0.09101 0.35449 0.0
H902 H 0.40367 0.13196 0.35273 0.0
C903 C 0.45087 0.08654 0.33039 0.0
C904 C 0.43662 0.09907 0.31424 0.0
H905 H 0.46113 0.08211 0.36644 0.0
H906 H 0.46466 0.07434 0.32443 0.0
C907 C 0.41874 0.11453 0.32274 0.0
C908 C 0.90701 0.3752 0.33848 0.0
C909 C 0.92445 0.36189 0.3506 0.0
H910 H 0.89665 0.39023 0.30553 0.0
C911 C 0.94608 0.35391 0.33812 0.0
H912 H 0.89041 0.38187 0.34769 0.0
C913 C 0.94927 0.3582 0.31371 0.0
C914 C 0.93154 0.37134 0.30163 0.0
H915 H 0.95981 0.34361 0.34711 0.0
H916 H 0.96547 0.3512 0.30432 0.0
C917 C 0.91078 0.3802 0.31433 0.0
C918 C 0.66777 0.08827 0.3446 0.0
C919 C 0.7015 0.10787 0.35203 0.0
H920 H 0.63334 0.07027 0.31563 0.0
C921 C 0.72705 0.12284 0.33508 0.0
H922 H 0.64747 0.07624 0.35723 0.0
C923 C 0.71891 0.11945 0.31123 0.0
C924 C 0.68506 0.10095 0.30384 0.0
H925 H 0.75329 0.13798 0.34021 0.0
H926 H 0.73915 0.13205 0.29862 0.0
C927 C 0.65963 0.08481 0.32075 0.0
C928 C 0.96002 0.59553 0.3362 0.0
C929 C 0.94482 0.61368 0.34466 0.0
H930 H 0.9728 0.57594 0.30623 0.0
C931 C 0.93285 0.62839 0.32845 0.0
H932 H 0.96971 0.58404 0.34821 0.0
C933 C 0.9346 0.6237 0.30434 0.0
C934 C 0.94843 0.60427 0.29593 0.0
H935 H 0.92114 0.64265 0.33436 0.0
H936 H 0.92417 0.63449 0.29234 0.0
C937 C 0.96185 0.59092 0.31211 0.0
C938 C 0.4469 0.41618 0.33362 0.0
C939 C 0.43777 0.3866 0.34637 0.0
H940 H 0.45255 0.43858 0.29976 0.0
C941 C 0.42432 0.3558 0.33425 0.0
H942 H 0.45719 0.4403 0.34244 0.0
C943 C 0.42155 0.35479 0.30983 0.0
C944 C 0.43227 0.38459 0.29695 0.0
H945 H 0.41679 0.3325 0.34356 0.0
H946 H 0.41209 0.33075 0.30101 0.0
C947 C 0.44421 0.41519 0.30914 0.0
C948 C 0.32892 0.93663 0.67381 0.0
C949 C 0.36161 0.949 0.68296 0.0
H950 H 0.29802 0.92443 0.64308 0.0
C951 C 0.38907 0.96138 0.66742 0.0
H952 H 0.30722 0.9271 0.68532 0.0
C953 C 0.38376 0.95976 0.64319 0.0
C954 C 0.35089 0.94584 0.63401 0.0
H955 H 0.41458 0.97121 0.6739 0.0
H956 H 0.40536 0.96847 0.63167 0.0
C957 C 0.32362 0.93513 0.64958 0.0
C958 C 0.15589 0.49856 0.67346 0.0
C959 C 0.12691 0.47369 0.68482 0.0
H960 H 0.18339 0.51543 0.64136 0.0
C961 C 0.10258 0.4461 0.67182 0.0
H962 H 0.17518 0.51996 0.68309 0.0
C963 C 0.10702 0.44383 0.64769 0.0
C964 C 0.1363 0.46858 0.63647 0.0
H965 H 0.08003 0.42661 0.68023 0.0
H966 H 0.08782 0.4226 0.63788 0.0
C967 C 0.16072 0.49582 0.6496 0.0
C968 C 0.64773 0.73281 0.67867 0.0
C969 C 0.62741 0.70145 0.68947 0.0
H970 H 0.66506 0.75999 0.64639 0.0
C971 C 0.61071 0.67248 0.67536 0.0
H972 H 0.66105 0.7556 0.68905 0.0
C973 C 0.61306 0.67499 0.65095 0.0
C974 C 0.63212 0.70654 0.64009 0.0
H975 H 0.59502 0.64791 0.68313 0.0
H976 H 0.59906 0.65226 0.6406 0.0
C977 C 0.65004 0.73533 0.65421 0.0
C978 C 0.37653 0.43329 0.67165 0.0
C979 C 0.34949 0.42576 0.68687 0.0
H980 H 0.39352 0.43892 0.63609 0.0
C981 C 0.31741 0.41538 0.67726 0.0
H982 H 0.40153 0.44123 0.67847 0.0
C983 C 0.31278 0.41396 0.65296 0.0
C984 C 0.34016 0.42301 0.63774 0.0
H985 H 0.29598 0.40919 0.6885 0.0
H986 H 0.28795 0.40681 0.64615 0.0
C987 C 0.37192 0.43198 0.64734 0.0
C988 C 0.61611 0.91457 0.67738 0.0
C989 C 0.60064 0.93272 0.68531 0.0
H990 H 0.63281 0.89779 0.6479 0.0
C991 C 0.59222 0.95023 0.66894 0.0
H992 H 0.62315 0.90099 0.68958 0.0
C993 C 0.59771 0.94832 0.645 0.0
C994 C 0.61186 0.92898 0.637 0.0
H995 H 0.5804 0.96455 0.67449 0.0
H996 H 0.58999 0.96127 0.63274 0.0
C997 C 0.62174 0.91279 0.65348 0.0
C998 C 0.05393 0.63421 0.66885 0.0
C999 C 0.07033 0.66388 0.68232 0.0
H1000 H 0.04485 0.61205 0.63459 0.0
C1001 C 0.08878 0.69495 0.67073 0.0
H1002 H 0.03943 0.60988 0.67721 0.0
C1003 C 0.09197 0.69618 0.64632 0.0
C1004 C 0.07672 0.6664 0.63292 0.0
H1005 H 0.10166 0.71831 0.68055 0.0
H1006 H 0.10712 0.72046 0.63802 0.0
C1007 C 0.05705 0.63546 0.6444 0.0
C1008 C 0.90172 0.08961 0.06708 0.0
C1009 C 0.87645 0.08576 0.08289 0.0
H1010 H 0.95167 0.12176 0.05411 0.0
C1011 C 0.88374 0.11146 0.09932 0.0
H1012 H 0.89698 0.07021 0.05427 0.0
C1013 C 0.91514 0.14099 0.09928 0.0
C1014 C 0.93988 0.14548 0.08275 0.0
H1015 H 0.86489 0.10919 0.11186 0.0
H1016 H 0.9196 0.1607 0.11172 0.0
C1017 C 0.9331 0.11917 0.06699 0.0
C1018 C 0.92561 0.80083 0.10591 0.0
C1019 C 0.95065 0.81991 0.08929 0.0
H1020 H 0.87585 0.78496 0.11857 0.0
C1021 C 0.94515 0.84033 0.07358 0.0
H1022 H 0.92915 0.78502 0.11838 0.0
C1023 C 0.91454 0.84031 0.0737 0.0
C1024 C 0.88883 0.81987 0.08952 0.0
H1025 H 0.96401 0.85549 0.06065 0.0
H1026 H 0.91064 0.85544 0.06084 0.0
C1027 C 0.89504 0.80082 0.10603 0.0
C1028 C 0.21296 0.09138 0.06441 0.0
C1029 C 0.23365 0.0884 0.08138 0.0
H1030 H 0.1963 0.123 0.04871 0.0
C1031 C 0.2522 0.11542 0.09685 0.0
H1032 H 0.19823 0.07097 0.05228 0.0
C1033 C 0.25107 0.14525 0.09481 0.0
C1034 C 0.23139 0.1487 0.07725 0.0
H1035 H 0.26826 0.11388 0.1102 0.0
H1036 H 0.2663 0.16589 0.10665 0.0
C1037 C 0.21185 0.12122 0.06236 0.0
C1038 C 0.12843 0.93545 0.9297 0.0
C1039 C 0.15325 0.9392 0.91349 0.0
H1040 H 0.07824 0.90401 0.94256 0.0
C1041 C 0.14525 0.91376 0.8967 0.0
H1042 H 0.13377 0.95464 0.94281 0.0
C1043 C 0.11341 0.88481 0.89651 0.0
C1044 C 0.0889 0.88061 0.91314 0.0
H1045 H 0.16374 0.91593 0.88389 0.0
H1046 H 0.10829 0.86543 0.8836 0.0
C1047 C 0.09659 0.90643 0.92954 0.0
C1048 C 0.10915 0.18857 0.90731 0.0
C1049 C 0.13429 0.20621 0.89044 0.0
H1050 H 0.06179 0.17853 0.92172 0.0
C1051 C 0.12879 0.22506 0.87333 0.0
H1052 H 0.1125 0.17365 0.92064 0.0
C1053 C 0.09979 0.22797 0.87399 0.0
C1054 C 0.07561 0.21198 0.89172 0.0
H1055 H 0.14753 0.23877 0.85997 0.0
H1056 H 0.09695 0.24376 0.86111 0.0
C1057 C 0.08006 0.19139 0.90793 0.0
C1058 C 0.78536 0.90369 0.88594 0.0
C1059 C 0.80613 0.89908 0.90194 0.0
H1060 H 0.76659 0.93563 0.87419 0.0
C1061 C 0.82635 0.92537 0.91751 0.0
H1062 H 0.76957 0.88399 0.87364 0.0
C1063 C 0.82465 0.95501 0.91783 0.0
C1064 C 0.80264 0.95893 0.90261 0.0
H1065 H 0.84276 0.92269 0.92998 0.0
H1066 H 0.83981 0.97439 0.93051 0.0
C1067 C 0.7836 0.93329 0.88629 0.0
C1068 C 0.56551 0.46253 0.42563 0.0
C1069 C 0.55899 0.43798 0.40842 0.0
H1070 H 0.60061 0.51098 0.43963 0.0
C1071 C 0.58468 0.44337 0.39248 0.0
H1072 H 0.54633 0.45909 0.43826 0.0
C1073 C 0.61586 0.47317 0.39327 0.0
C1074 C 0.622 0.49817 0.41004 0.0
H1075 H 0.58052 0.42489 0.37906 0.0
H1076 H 0.63486 0.47689 0.38041 0.0
C1077 C 0.59668 0.49228 0.42645 0.0
C1078 C 0.62298 0.17815 0.4102 0.0
C1079 C 0.62778 0.15723 0.42588 0.0
H1080 H 0.58997 0.19557 0.39818 0.0
C1081 C 0.60341 0.13995 0.44328 0.0
H1082 H 0.64138 0.19196 0.39667 0.0
C1083 C 0.57401 0.1421 0.44419 0.0
C1084 C 0.5683 0.1615 0.42766 0.0
H1085 H 0.60649 0.12384 0.45576 0.0
H1086 H 0.5552 0.12753 0.45732 0.0
C1087 C 0.59349 0.18023 0.41107 0.0
C1088 C 0.86706 0.42676 0.42206 0.0
C1089 C 0.89501 0.42514 0.43075 0.0
H1090 H 0.84706 0.45842 0.41199 0.0
C1091 C 0.9238 0.45501 0.43798 0.0
H1092 H 0.8445 0.40418 0.41633 0.0
C1093 C 0.92517 0.48602 0.43564 0.0
C1094 C 0.89792 0.48785 0.42577 0.0
H1095 H 0.94566 0.45455 0.44488 0.0
H1096 H 0.9481 0.50866 0.44078 0.0
C1097 C 0.86858 0.45785 0.41947 0.0
C1098 C 0.78922 0.23054 0.21573 0.0
C1099 C 0.76254 0.22812 0.22945 0.0
H1100 H 0.84076 0.26105 0.20524 0.0
C1101 C 0.76709 0.25669 0.24181 0.0
H1102 H 0.78651 0.20902 0.20592 0.0
C1103 C 0.79817 0.28658 0.24133 0.0
C1104 C 0.82539 0.28842 0.22862 0.0
H1105 H 0.74696 0.25571 0.25243 0.0
H1106 H 0.80116 0.30782 0.25163 0.0
C1107 C 0.82037 0.26034 0.21538 0.0
C1108 C 0.80633 0.56917 0.21493 0.0
C1109 C 0.81377 0.55162 0.23195 0.0
H1110 H 0.77153 0.58424 0.20285 0.0
C1111 C 0.78947 0.53307 0.24912 0.0
H1112 H 0.8244 0.58356 0.20136 0.0
C1113 C 0.75907 0.53344 0.24996 0.0
C1114 C 0.7524 0.55242 0.23366 0.0
H1115 H 0.79434 0.51914 0.26241 0.0
H1116 H 0.74133 0.51977 0.26387 0.0
C1117 C 0.776 0.5696 0.2158 0.0
C1118 C 0.45283 0.25824 0.22233 0.0
C1119 C 0.47141 0.28522 0.23782 0.0
H1120 H 0.4389 0.20789 0.21232 0.0
C1121 C 0.49241 0.28232 0.25458 0.0
H1122 H 0.43654 0.25972 0.20913 0.0
C1123 C 0.49376 0.25257 0.25641 0.0
C1124 C 0.47415 0.22511 0.24152 0.0
H1125 H 0.50718 0.3027 0.26671 0.0
H1126 H 0.50952 0.25084 0.26991 0.0
C1127 C 0.4542 0.22851 0.22415 0.0
C1128 C 0.24163 0.81265 0.76483 0.0
C1129 C 0.26639 0.81671 0.74845 0.0
H1130 H 0.19119 0.78146 0.77725 0.0
C1131 C 0.25929 0.79038 0.73265 0.0
H1132 H 0.24634 0.8324 0.77732 0.0
C1133 C 0.22765 0.76113 0.73263 0.0
C1134 C 0.20245 0.75764 0.74839 0.0
H1135 H 0.27787 0.79265 0.71988 0.0
H1136 H 0.22271 0.74164 0.71985 0.0
C1137 C 0.20998 0.78344 0.76478 0.0
C1138 C 0.24646 0.46089 0.77512 0.0
C1139 C 0.27609 0.48569 0.76426 0.0
H1140 H 0.19479 0.44382 0.78347 0.0
C1141 C 0.27681 0.51461 0.75526 0.0
H1142 H 0.24511 0.4384 0.78238 0.0
C1143 C 0.24794 0.51781 0.75601 0.0
C1144 C 0.21774 0.49205 0.76564 0.0
H1145 H 0.29933 0.53431 0.74694 0.0
H1146 H 0.24894 0.53982 0.74815 0.0
C1147 C 0.21757 0.46399 0.77574 0.0
C1148 C 0.53055 0.74462 0.7374 0.0
C1149 C 0.55199 0.74023 0.75288 0.0
H1150 H 0.5131 0.77741 0.72511 0.0
C1151 C 0.57072 0.76556 0.76948 0.0
H1152 H 0.51563 0.7255 0.7245 0.0
C1153 C 0.56921 0.79529 0.76988 0.0
C1154 C 0.54898 0.80034 0.75366 0.0
H1155 H 0.5873 0.76285 0.78178 0.0
H1156 H 0.58475 0.81473 0.78241 0.0
C1157 C 0.52908 0.77438 0.73777 0.0
C1158 C 0.47228 0.60865 0.58929 0.0
C1159 C 0.49802 0.61374 0.57349 0.0
H1160 H 0.42237 0.57505 0.60177 0.0
C1161 C 0.49173 0.58865 0.55678 0.0
H1162 H 0.47626 0.62754 0.60232 0.0
C1163 C 0.46084 0.55857 0.55645 0.0
C1164 C 0.43558 0.55294 0.57285 0.0
H1165 H 0.51096 0.59185 0.54427 0.0
H1166 H 0.45712 0.53943 0.54371 0.0
C1167 C 0.44137 0.57854 0.58898 0.0
C1168 C 0.43334 0.86982 0.57907 0.0
C1169 C 0.42949 0.89181 0.56385 0.0
H1170 H 0.46589 0.85221 0.5917 0.0
C1171 C 0.45543 0.91106 0.54784 0.0
H1172 H 0.41374 0.85447 0.59152 0.0
C1173 C 0.48532 0.90975 0.54793 0.0
C1174 C 0.48991 0.88916 0.56405 0.0
H1175 H 0.45316 0.92807 0.53575 0.0
H1176 H 0.50528 0.9258 0.53593 0.0
C1177 C 0.46325 0.86852 0.57917 0.0
C1178 C 0.12891 0.59783 0.55249 0.0
C1179 C 0.15353 0.62637 0.56458 0.0
H1180 H 0.11147 0.54679 0.54216 0.0
C1181 C 0.18135 0.62555 0.57436 0.0
H1182 H 0.10723 0.59768 0.54465 0.0
C1183 C 0.18389 0.59642 0.5728 0.0
C1184 C 0.15856 0.56742 0.56155 0.0
H1185 H 0.20087 0.64719 0.58364 0.0
H1186 H 0.20521 0.59635 0.58106 0.0
C1187 C 0.13135 0.56865 0.55104 0.0
loop_
_geom_bond_atom_site_label_1
_geom_bond_atom_site_label_2
_geom_bond_distance
_geom_bond_site_symmetry_2
_ccdc_geom_bond_type
C0 O1 1.160 . S
C0 O7 1.185 . S
O1 C0 1.160 . S
O2 Zn3 1.899 . S
O2 C10 1.284 . S
Zn3 O2 1.899 . S
Zn3 O4 2.032 1_455 S
Zn3 O7 2.086 . S
Zn3 O12 1.977 . S
O4 Zn3 2.032 1_655 S
O4 C8 1.278 . S
C5 O6 1.203 . S
C5 O12 1.267 . S
O6 C5 1.203 . S
O7 C0 1.185 . S
O7 Zn3 2.086 . S
C8 O4 1.278 . S
C8 O9 1.211 . S
O9 C8 1.211 . S
C10 O2 1.284 . S
C10 O11 1.273 . S
O11 C10 1.273 . S
O12 Zn3 1.977 . S
O12 C5 1.267 . S
C13 O14 1.160 . S
C13 O20 1.185 . S
O14 C13 1.160 . S
O15 Zn16 1.899 . S
O15 C23 1.284 . S
Zn16 O15 1.899 . S
Zn16 O17 2.032 . S
Zn16 O20 2.086 . S
Zn16 O25 1.977 . S
O17 Zn16 2.032 . S
O17 C21 1.278 . S
C18 O19 1.203 . S
C18 O25 1.267 . S
O19 C18 1.203 . S
O20 C13 1.185 . S
O20 Zn16 2.086 . S
C21 O17 1.278 . S
C21 O22 1.211 . S
O22 C21 1.211 . S
C23 O15 1.284 . S
C23 O24 1.273 . S
O24 C23 1.273 . S
O25 Zn16 1.977 . S
O25 C18 1.267 . S
C26 O27 1.160 . S
C26 O33 1.185 . S
O27 C26 1.160 . S
O28 Zn29 1.899 1_565 S
O28 C36 1.284 . S
Zn29 O28 1.899 1_545 S
Zn29 O30 2.032 . S
Zn29 O33 2.086 . S
Zn29 O38 1.977 . S
O30 Zn29 2.032 . S
O30 C34 1.278 . S
C31 O32 1.203 . S
C31 O38 1.267 . S
O32 C31 1.203 . S
O33 C26 1.185 . S
O33 Zn29 2.086 . S
C34 O30 1.278 . S
C34 O35 1.211 . S
O35 C34 1.211 . S
C36 O28 1.284 . S
C36 O37 1.273 . S
O37 C36 1.273 . S
O38 Zn29 1.977 . S
O38 C31 1.267 . S
C39 O40 1.160 . S
C39 O46 1.185 . S
O40 C39 1.160 . S
O41 Zn42 1.899 . S
O41 C49 1.284 . S
Zn42 O41 1.899 . S
Zn42 O43 2.032 1_545 S
Zn42 O46 2.086 . S
Zn42 O51 1.977 . S
O43 Zn42 2.032 1_565 S
O43 C47 1.278 . S
C44 O45 1.203 . S
C44 O51 1.267 . S
O45 C44 1.203 . S
O46 C39 1.185 . S
O46 Zn42 2.086 . S
C47 O43 1.278 . S
C47 O48 1.211 . S
O48 C47 1.211 . S
C49 O41 1.284 . S
C49 O50 1.273 . S
O50 C49 1.273 . S
O51 Zn42 1.977 . S
O51 C44 1.267 . S
C52 O53 1.160 . S
C52 O59 1.185 . S
O53 C52 1.160 . S
O54 Zn55 1.899 1_655 S
O54 C62 1.284 . S
Zn55 O54 1.899 1_455 S
Zn55 O56 2.032 . S
Zn55 O59 2.086 . S
Zn55 O64 1.977 . S
O56 Zn55 2.032 . S
O56 C60 1.278 . S
C57 O58 1.203 . S
C57 O64 1.267 . S
O58 C57 1.203 . S
O59 C52 1.185 . S
O59 Zn55 2.086 . S
C60 O56 1.278 . S
C60 O61 1.211 . S
O61 C60 1.211 . S
C62 O54 1.284 . S
C62 O63 1.273 . S
O63 C62 1.273 . S
O64 Zn55 1.977 . S
O64 C57 1.267 . S
C65 O66 1.160 . S
C65 O72 1.185 . S
O66 C65 1.160 . S
O67 Zn68 1.899 . S
O67 C75 1.284 . S
Zn68 O67 1.899 . S
Zn68 O69 2.032 . S
Zn68 O72 2.086 . S
Zn68 O77 1.977 . S
O69 Zn68 2.032 . S
O69 C73 1.278 . S
C70 O71 1.203 . S
C70 O77 1.267 . S
O71 C70 1.203 . S
O72 C65 1.185 . S
O72 Zn68 2.086 . S
C73 O69 1.278 . S
C73 O74 1.211 . S
O74 C73 1.211 . S
C75 O67 1.284 . S
C75 O76 1.273 . S
O76 C75 1.273 . S
O77 Zn68 1.977 . S
O77 C70 1.267 . S
C78 O79 1.160 . S
C78 O85 1.185 . S
O79 C78 1.160 . S
O80 Zn81 1.899 1_655 S
O80 C88 1.284 . S
Zn81 O80 1.899 1_455 S
Zn81 O82 2.032 . S
Zn81 O85 2.086 . S
Zn81 O90 1.977 . S
O82 Zn81 2.032 . S
O82 C86 1.278 . S
C83 O84 1.208 . S
C83 O90 1.267 . S
O84 C83 1.208 . S
O85 C78 1.185 . S
O85 Zn81 2.086 . S
C86 O82 1.278 . S
C86 O87 1.211 . S
O87 C86 1.211 . S
C88 O80 1.284 . S
C88 O89 1.273 . S
O89 C88 1.273 . S
O90 Zn81 1.977 . S
O90 C83 1.267 . S
C91 O92 1.160 . S
C91 O98 1.185 . S
O92 C91 1.160 . S
O93 Zn94 1.899 . S
O93 C101 1.284 . S
Zn94 O93 1.899 . S
Zn94 O95 2.032 . S
Zn94 O98 2.086 . S
Zn94 O103 1.977 . S
O95 Zn94 2.032 . S
O95 C99 1.278 . S
C96 O97 1.203 . S
C96 O103 1.267 . S
O97 C96 1.203 . S
O98 C91 1.185 . S
O98 Zn94 2.086 . S
C99 O95 1.278 . S
C99 O100 1.211 . S
O100 C99 1.211 . S
C101 O93 1.284 . S
C101 O102 1.273 . S
O102 C101 1.273 . S
O103 Zn94 1.977 . S
O103 C96 1.267 . S
C104 O105 1.160 . S
C104 O111 1.185 . S
O105 C104 1.160 . S
O106 Zn107 1.899 . S
O106 C114 1.284 . S
Zn107 O106 1.899 . S
Zn107 O108 2.032 1_545 S
Zn107 O111 2.086 . S
Zn107 O116 1.977 . S
O108 Zn107 2.032 1_565 S
O108 C112 1.278 . S
C109 O110 1.203 . S
C109 O116 1.267 . S
O110 C109 1.203 . S
O111 C104 1.185 . S
O111 Zn107 2.086 . S
C112 O108 1.278 . S
C112 O113 1.211 . S
O113 C112 1.211 . S
C114 O106 1.284 . S
C114 O115 1.273 . S
O115 C114 1.273 . S
O116 Zn107 1.977 . S
O116 C109 1.267 . S
C117 O118 1.160 . S
C117 O124 1.185 . S
O118 C117 1.160 . S
O119 Zn120 1.899 1_565 S
O119 C127 1.284 . S
Zn120 O119 1.899 1_545 S
Zn120 O121 2.032 . S
Zn120 O124 2.086 . S
Zn120 O129 1.977 . S
O121 Zn120 2.032 . S
O121 C125 1.278 . S
C122 O123 1.208 . S
C122 O129 1.267 . S
O123 C122 1.208 . S
O124 C117 1.185 . S
O124 Zn120 2.086 . S
C125 O121 1.278 . S
C125 O126 1.211 . S
O126 C125 1.211 . S
C127 O119 1.284 . S
C127 O128 1.273 . S
O128 C127 1.273 . S
O129 Zn120 1.977 . S
O129 C122 1.267 . S
C130 O131 1.160 . S
C130 O137 1.185 . S
O131 C130 1.160 . S
O132 Zn133 1.899 . S
O132 C140 1.284 . S
Zn133 O132 1.899 . S
Zn133 O134 2.032 1_455 S
Zn133 O137 2.086 . S
Zn133 O142 1.977 . S
O134 Zn133 2.032 1_655 S
O134 C138 1.278 . S
C135 O136 1.203 . S
C135 O142 1.267 . S
O136 C135 1.203 . S
O137 C130 1.185 . S
O137 Zn133 2.086 . S
C138 O134 1.278 . S
C138 O139 1.211 . S
O139 C138 1.211 . S
C140 O132 1.284 . S
C140 O141 1.273 . S
O141 C140 1.273 . S
O142 Zn133 1.977 . S
O142 C135 1.267 . S
C143 O144 1.160 . S
C143 O150 1.185 . S
O144 C143 1.160 . S
O145 Zn146 1.899 . S
O145 C153 1.284 . S
Zn146 O145 1.899 . S
Zn146 O147 2.032 . S
Zn146 O150 2.086 . S
Zn146 O155 1.977 . S
O147 Zn146 2.032 . S
O147 C151 1.278 . S
C148 O149 1.203 . S
C148 O155 1.267 . S
O149 C148 1.203 . S
O150 C143 1.185 . S
O150 Zn146 2.086 . S
C151 O147 1.278 . S
C151 O152 1.211 . S
O152 C151 1.211 . S
C153 O145 1.284 . S
C153 O154 1.273 . S
O154 C153 1.273 . S
O155 Zn146 1.977 . S
O155 C148 1.267 . S
C156 O157 1.160 . S
C156 O163 1.185 . S
O157 C156 1.160 . S
O158 Zn159 1.899 . S
O158 C166 1.284 . S
Zn159 O158 1.899 . S
Zn159 O160 2.032 . S
Zn159 O163 2.086 . S
Zn159 O168 1.977 . S
O160 Zn159 2.032 . S
O160 C164 1.278 . S
C161 O162 1.203 . S
C161 O168 1.267 . S
O162 C161 1.203 . S
O163 C156 1.185 . S
O163 Zn159 2.086 . S
C164 O160 1.278 . S
C164 O165 1.211 . S
O165 C164 1.211 . S
C166 O158 1.284 . S
C166 O167 1.273 . S
O167 C166 1.273 . S
O168 Zn159 1.977 . S
O168 C161 1.267 . S
C169 O170 1.160 . S
C169 O176 1.185 . S
O170 C169 1.160 . S
O171 Zn172 1.899 . S
O171 C179 1.284 . S
Zn172 O171 1.899 . S
Zn172 O173 2.032 . S
Zn172 O176 2.086 . S
Zn172 O181 1.977 . S
O173 Zn172 2.032 . S
O173 C177 1.278 . S
C174 O175 1.203 . S
C174 O181 1.267 . S
O175 C174 1.203 . S
O176 C169 1.185 . S
O176 Zn172 2.086 . S
C177 O173 1.278 . S
C177 O178 1.211 . S
O178 C177 1.211 . S
C179 O171 1.284 . S
C179 O180 1.273 . S
O180 C179 1.273 . S
O181 Zn172 1.977 . S
O181 C174 1.267 . S
C182 O183 1.160 . S
C182 O189 1.185 . S
O183 C182 1.160 . S
O184 Zn185 1.899 . S
O184 C192 1.284 . S
Zn185 O184 1.899 . S
Zn185 O186 2.032 . S
Zn185 O189 2.086 . S
Zn185 O194 1.977 . S
O186 Zn185 2.032 . S
O186 C190 1.278 . S
C187 O188 1.203 . S
C187 O194 1.267 . S
O188 C187 1.203 . S
O189 C182 1.185 . S
O189 Zn185 2.086 . S
C190 O186 1.278 . S
C190 O191 1.211 . S
O191 C190 1.211 . S
C192 O184 1.284 . S
C192 O193 1.273 . S
O193 C192 1.273 . S
O194 Zn185 1.977 . S
O194 C187 1.267 . S
C195 O196 1.160 . S
C195 O202 1.185 . S
O196 C195 1.160 . S
O197 Zn198 1.899 . S
O197 C205 1.284 . S
Zn198 O197 1.899 . S
Zn198 O199 2.032 . S
Zn198 O202 2.086 . S
Zn198 O207 1.977 . S
O199 Zn198 2.032 . S
O199 C203 1.278 . S
C200 O201 1.203 . S
C200 O207 1.267 . S
O201 C200 1.203 . S
O202 C195 1.185 . S
O202 Zn198 2.086 . S
C203 O199 1.278 . S
C203 O204 1.211 . S
O204 C203 1.211 . S
C205 O197 1.284 . S
C205 O206 1.273 . S
O206 C205 1.273 . S
O207 Zn198 1.977 . S
O207 C200 1.267 . S
C208 O209 1.160 . S
C208 O215 1.185 . S
O209 C208 1.160 . S
O210 Zn211 1.899 . S
O210 C218 1.284 . S
Zn211 O210 1.899 . S
Zn211 O212 2.032 . S
Zn211 O215 2.086 . S
Zn211 O220 1.977 . S
O212 Zn211 2.032 . S
O212 C216 1.278 . S
C213 O214 1.203 . S
C213 O220 1.267 . S
O214 C213 1.203 . S
O215 C208 1.185 . S
O215 Zn211 2.086 . S
C216 O212 1.278 . S
C216 O217 1.211 . S
O217 C216 1.211 . S
C218 O210 1.284 . S
C218 O219 1.273 . S
O219 C218 1.273 . S
O220 Zn211 1.977 . S
O220 C213 1.267 . S
C221 O222 1.160 . S
C221 O228 1.185 . S
O222 C221 1.160 . S
O223 Zn224 1.899 . S
O223 C231 1.284 . S
Zn224 O223 1.899 . S
Zn224 O225 2.032 . S
Zn224 O228 2.086 . S
Zn224 O233 1.977 . S
O225 Zn224 2.032 . S
O225 C229 1.278 . S
C226 O227 1.203 . S
C226 O233 1.267 . S
O227 C226 1.203 . S
O228 C221 1.185 . S
O228 Zn224 2.086 . S
C229 O225 1.278 . S
C229 O230 1.211 . S
O230 C229 1.211 . S
C231 O223 1.284 . S
C231 O232 1.273 . S
O232 C231 1.273 . S
O233 Zn224 1.977 . S
O233 C226 1.267 . S
C234 O235 1.160 . S
C234 O241 1.185 . S
O235 C234 1.160 . S
O236 Zn237 1.899 . S
O236 C244 1.284 . S
Zn237 O236 1.899 . S
Zn237 O238 2.032 . S
Zn237 O241 2.086 . S
Zn237 O246 1.977 . S
O238 Zn237 2.032 . S
O238 C242 1.278 . S
C239 O240 1.203 . S
C239 O246 1.267 . S
O240 C239 1.203 . S
O241 C234 1.185 . S
O241 Zn237 2.086 . S
C242 O238 1.278 . S
C242 O243 1.211 . S
O243 C242 1.211 . S
C244 O236 1.284 . S
C244 O245 1.273 . S
O245 C244 1.273 . S
O246 Zn237 1.977 . S
O246 C239 1.267 . S
C247 O248 1.160 . S
C247 O254 1.185 . S
O248 C247 1.160 . S
O249 Zn250 1.899 . S
O249 C257 1.284 . S
Zn250 O249 1.899 . S
Zn250 O251 2.032 . S
Zn250 O254 2.086 . S
Zn250 O259 1.977 . S
O251 Zn250 2.032 . S
O251 C255 1.278 . S
C252 O253 1.203 . S
C252 O259 1.267 . S
O253 C252 1.203 . S
O254 C247 1.185 . S
O254 Zn250 2.086 . S
C255 O251 1.278 . S
C255 O256 1.211 . S
O256 C255 1.211 . S
C257 O249 1.284 . S
C257 O258 1.273 . S
O258 C257 1.273 . S
O259 Zn250 1.977 . S
O259 C252 1.267 . S
C260 O261 1.160 . S
C260 O267 1.185 . S
O261 C260 1.160 . S
O262 Zn263 1.899 . S
O262 C270 1.284 . S
Zn263 O262 1.899 . S
Zn263 O264 2.032 . S
Zn263 O267 2.086 . S
Zn263 O272 1.977 . S
O264 Zn263 2.032 . S
O264 C268 1.278 . S
C265 O266 1.203 . S
C265 O272 1.267 . S
O266 C265 1.203 . S
O267 C260 1.185 . S
O267 Zn263 2.086 . S
C268 O264 1.278 . S
C268 O269 1.211 . S
O269 C268 1.211 . S
C270 O262 1.284 . S
C270 O271 1.273 . S
O271 C270 1.273 . S
O272 Zn263 1.977 . S
O272 C265 1.267 . S
C273 O274 1.160 . S
C273 O280 1.185 . S
O274 C273 1.160 . S
O275 Zn276 1.899 . S
O275 C283 1.284 . S
Zn276 O275 1.899 . S
Zn276 O277 2.032 . S
Zn276 O280 2.086 . S
Zn276 O285 1.977 . S
O277 Zn276 2.032 . S
O277 C281 1.278 . S
C278 O279 1.203 . S
C278 O285 1.267 . S
O279 C278 1.203 . S
O280 C273 1.185 . S
O280 Zn276 2.086 . S
C281 O277 1.278 . S
C281 O282 1.211 . S
O282 C281 1.211 . S
C283 O275 1.284 . S
C283 O284 1.273 . S
O284 C283 1.273 . S
O285 Zn276 1.977 . S
O285 C278 1.267 . S
C286 O287 1.160 . S
C286 O293 1.185 . S
O287 C286 1.160 . S
O288 Zn289 1.899 . S
O288 C296 1.284 . S
Zn289 O288 1.899 . S
Zn289 O290 2.032 . S
Zn289 O293 2.086 . S
Zn289 O298 1.977 . S
O290 Zn289 2.032 . S
O290 C294 1.278 . S
C291 O292 1.203 . S
C291 O298 1.267 . S
O292 C291 1.203 . S
O293 C286 1.185 . S
O293 Zn289 2.086 . S
C294 O290 1.278 . S
C294 O295 1.211 . S
O295 C294 1.211 . S
C296 O288 1.284 . S
C296 O297 1.273 . S
O297 C296 1.273 . S
O298 Zn289 1.977 . S
O298 C291 1.267 . S
C299 O300 1.160 . S
C299 O306 1.185 . S
O300 C299 1.160 . S
O301 Zn302 1.899 . S
O301 C309 1.284 . S
Zn302 O301 1.899 . S
Zn302 O303 2.032 . S
Zn302 O306 2.086 . S
Zn302 O311 1.977 . S
O303 Zn302 2.032 . S
O303 C307 1.278 . S
C304 O305 1.203 . S
C304 O311 1.267 . S
O305 C304 1.203 . S
O306 C299 1.185 . S
O306 Zn302 2.086 . S
C307 O303 1.278 . S
C307 O308 1.211 . S
O308 C307 1.211 . S
C309 O301 1.284 . S
C309 O310 1.273 . S
O310 C309 1.273 . S
O311 Zn302 1.977 . S
O311 C304 1.267 . S
C312 O313 1.160 . S
C312 O319 1.185 . S
O313 C312 1.160 . S
O314 Zn315 1.899 . S
O314 C322 1.284 . S
Zn315 O314 1.899 . S
Zn315 O316 2.032 . S
Zn315 O319 2.086 . S
Zn315 O324 1.977 . S
O316 Zn315 2.032 . S
O316 C320 1.278 . S
C317 O318 1.203 . S
C317 O324 1.267 . S
O318 C317 1.203 . S
O319 C312 1.185 . S
O319 Zn315 2.086 . S
C320 O316 1.278 . S
C320 O321 1.211 . S
O321 C320 1.211 . S
C322 O314 1.284 . S
C322 O323 1.273 . S
O323 C322 1.273 . S
O324 Zn315 1.977 . S
O324 C317 1.267 . S
C325 O326 1.160 . S
C325 O332 1.185 . S
O326 C325 1.160 . S
O327 Zn328 1.899 . S
O327 C335 1.284 . S
Zn328 O327 1.899 . S
Zn328 O329 2.032 . S
Zn328 O332 2.086 . S
Zn328 O337 1.977 . S
O329 Zn328 2.032 . S
O329 C333 1.278 . S
C330 O331 1.203 . S
C330 O337 1.267 . S
O331 C330 1.203 . S
O332 C325 1.185 . S
O332 Zn328 2.086 . S
C333 O329 1.278 . S
C333 O334 1.211 . S
O334 C333 1.211 . S
C335 O327 1.284 . S
C335 O336 1.273 . S
O336 C335 1.273 . S
O337 Zn328 1.977 . S
O337 C330 1.267 . S
C338 O339 1.160 . S
C338 O345 1.185 . S
O339 C338 1.160 . S
O340 Zn341 1.899 . S
O340 C348 1.284 . S
Zn341 O340 1.899 . S
Zn341 O342 2.032 . S
Zn341 O345 2.086 . S
Zn341 O350 1.977 . S
O342 Zn341 2.032 . S
O342 C346 1.278 . S
C343 O344 1.203 . S
C343 O350 1.267 . S
O344 C343 1.203 . S
O345 C338 1.185 . S
O345 Zn341 2.086 . S
C346 O342 1.278 . S
C346 O347 1.211 . S
O347 C346 1.211 . S
C348 O340 1.284 . S
C348 O349 1.273 . S
O349 C348 1.273 . S
O350 Zn341 1.977 . S
O350 C343 1.267 . S
C351 O352 1.160 . S
C351 O358 1.185 . S
O352 C351 1.160 . S
O353 Zn354 1.899 . S
O353 C361 1.284 . S
Zn354 O353 1.899 . S
Zn354 O355 2.032 . S
Zn354 O358 2.086 . S
Zn354 O363 1.977 . S
O355 Zn354 2.032 . S
O355 C359 1.278 . S
C356 O357 1.203 . S
C356 O363 1.267 . S
O357 C356 1.203 . S
O358 C351 1.185 . S
O358 Zn354 2.086 . S
C359 O355 1.278 . S
C359 O360 1.211 . S
O360 C359 1.211 . S
C361 O353 1.284 . S
C361 O362 1.273 . S
O362 C361 1.273 . S
O363 Zn354 1.977 . S
O363 C356 1.267 . S
C364 O365 1.160 . S
C364 O371 1.185 . S
O365 C364 1.160 . S
O366 Zn367 1.899 . S
O366 C374 1.284 . S
Zn367 O366 1.899 . S
Zn367 O368 2.032 . S
Zn367 O371 2.086 . S
Zn367 O376 1.977 . S
O368 Zn367 2.032 . S
O368 C372 1.278 . S
C369 O370 1.203 . S
C369 O376 1.267 . S
O370 C369 1.203 . S
O371 C364 1.185 . S
O371 Zn367 2.086 . S
C372 O368 1.278 . S
C372 O373 1.211 . S
O373 C372 1.211 . S
C374 O366 1.284 . S
C374 O375 1.273 . S
O375 C374 1.273 . S
O376 Zn367 1.977 . S
O376 C369 1.267 . S
C377 O378 1.160 . S
C377 O384 1.185 . S
O378 C377 1.160 . S
O379 Zn380 1.899 . S
O379 C387 1.284 . S
Zn380 O379 1.899 . S
Zn380 O381 2.032 . S
Zn380 O384 2.086 . S
Zn380 O389 1.977 . S
O381 Zn380 2.032 . S
O381 C385 1.278 . S
C382 O383 1.203 . S
C382 O389 1.267 . S
O383 C382 1.203 . S
O384 C377 1.185 . S
O384 Zn380 2.086 . S
C385 O381 1.278 . S
C385 O386 1.211 . S
O386 C385 1.211 . S
C387 O379 1.284 . S
C387 O388 1.273 . S
O388 C387 1.273 . S
O389 Zn380 1.977 . S
O389 C382 1.267 . S
C390 O391 1.160 . S
C390 O397 1.185 . S
O391 C390 1.160 . S
O392 Zn393 1.899 . S
O392 C400 1.284 . S
Zn393 O392 1.899 . S
Zn393 O394 2.032 . S
Zn393 O397 2.086 . S
Zn393 O402 1.977 . S
O394 Zn393 2.032 . S
O394 C398 1.278 . S
C395 O396 1.203 . S
C395 O402 1.267 . S
O396 C395 1.203 . S
O397 C390 1.185 . S
O397 Zn393 2.086 . S
C398 O394 1.278 . S
C398 O399 1.211 . S
O399 C398 1.211 . S
C400 O392 1.284 . S
C400 O401 1.273 . S
O401 C400 1.273 . S
O402 Zn393 1.977 . S
O402 C395 1.267 . S
C403 O404 1.160 . S
C403 O410 1.185 . S
O404 C403 1.160 . S
O405 Zn406 1.899 . S
O405 C413 1.284 . S
Zn406 O405 1.899 . S
Zn406 O407 2.032 . S
Zn406 O410 2.086 . S
Zn406 O415 1.977 . S
O407 Zn406 2.032 . S
O407 C411 1.278 . S
C408 O409 1.203 . S
C408 O415 1.267 . S
O409 C408 1.203 . S
O410 C403 1.185 . S
O410 Zn406 2.086 . S
C411 O407 1.278 . S
C411 O412 1.211 . S
O412 C411 1.211 . S
C413 O405 1.284 . S
C413 O414 1.273 . S
O414 C413 1.273 . S
O415 Zn406 1.977 . S
O415 C408 1.267 . S
C416 O417 1.160 . S
C416 O423 1.185 . S
O417 C416 1.160 . S
O418 Zn419 1.899 . S
O418 C426 1.284 . S
Zn419 O418 1.899 . S
Zn419 O420 2.032 . S
Zn419 O423 2.086 . S
Zn419 O428 1.977 . S
O420 Zn419 2.032 . S
O420 C424 1.278 . S
C421 O422 1.203 . S
C421 O428 1.267 . S
O422 C421 1.203 . S
O423 C416 1.185 . S
O423 Zn419 2.086 . S
C424 O420 1.278 . S
C424 O425 1.211 . S
O425 C424 1.211 . S
C426 O418 1.284 . S
C426 O427 1.273 . S
O427 C426 1.273 . S
O428 Zn419 1.977 . S
O428 C421 1.267 . S
C429 O430 1.160 . S
C429 O436 1.185 . S
O430 C429 1.160 . S
O431 Zn432 1.899 . S
O431 C439 1.284 . S
Zn432 O431 1.899 . S
Zn432 O433 2.032 . S
Zn432 O436 2.086 . S
Zn432 O441 1.977 . S
O433 Zn432 2.032 . S
O433 C437 1.278 . S
C434 O435 1.203 . S
C434 O441 1.267 . S
O435 C434 1.203 . S
O436 C429 1.185 . S
O436 Zn432 2.086 . S
C437 O433 1.278 . S
C437 O438 1.211 . S
O438 C437 1.211 . S
C439 O431 1.284 . S
C439 O440 1.273 . S
O440 C439 1.273 . S
O441 Zn432 1.977 . S
O441 C434 1.267 . S
C442 O443 1.160 . S
C442 O449 1.185 . S
O443 C442 1.160 . S
O444 Zn445 1.899 . S
O444 C452 1.284 . S
Zn445 O444 1.899 . S
Zn445 O446 2.032 . S
Zn445 O449 2.086 . S
Zn445 O454 1.977 . S
O446 Zn445 2.032 . S
O446 C450 1.278 . S
C447 O448 1.203 . S
C447 O454 1.267 . S
O448 C447 1.203 . S
O449 C442 1.185 . S
O449 Zn445 2.086 . S
C450 O446 1.278 . S
C450 O451 1.211 . S
O451 C450 1.211 . S
C452 O444 1.284 . S
C452 O453 1.273 . S
O453 C452 1.273 . S
O454 Zn445 1.977 . S
O454 C447 1.267 . S
C455 O456 1.160 . S
C455 O462 1.185 . S
O456 C455 1.160 . S
O457 Zn458 1.899 . S
O457 C465 1.284 . S
Zn458 O457 1.899 . S
Zn458 O459 2.032 . S
Zn458 O462 2.086 . S
Zn458 O467 1.977 . S
O459 Zn458 2.032 . S
O459 C463 1.278 . S
C460 O461 1.203 . S
C460 O467 1.267 . S
O461 C460 1.203 . S
O462 C455 1.185 . S
O462 Zn458 2.086 . S
C463 O459 1.278 . S
C463 O464 1.211 . S
O464 C463 1.211 . S
C465 O457 1.284 . S
C465 O466 1.273 . S
O466 C465 1.273 . S
O467 Zn458 1.977 . S
O467 C460 1.267 . S
C468 C469 1.387 . S
C468 H472 0.950 . S
C468 C477 1.390 . S
C469 C468 1.387 . S
C469 C471 1.387 . S
H470 C477 0.950 . S
C471 C469 1.387 . S
C471 C473 1.390 . S
C471 H475 0.950 . S
H472 C468 0.950 . S
C473 C471 1.390 . S
C473 C474 1.387 . S
C473 H476 0.950 . S
C474 C473 1.387 . S
C474 C477 1.387 . S
H475 C471 0.950 . S
H476 C473 0.950 . S
C477 C468 1.390 . S
C477 H470 0.950 . S
C477 C474 1.387 . S
C478 C479 1.387 . S
C478 H482 0.950 . S
C478 C487 1.390 . S
C479 C478 1.387 . S
C479 C481 1.387 . S
H480 C487 0.950 . S
C481 C479 1.387 . S
C481 C483 1.390 . S
C481 H485 0.950 . S
H482 C478 0.950 . S
C483 C481 1.390 . S
C483 C484 1.387 . S
C483 H486 0.950 . S
C484 C483 1.387 . S
C484 C487 1.387 . S
H485 C481 0.950 . S
H486 C483 0.950 . S
C487 C478 1.390 . S
C487 H480 0.950 . S
C487 C484 1.387 . S
C488 C489 1.387 . S
C488 H492 0.950 . S
C488 C497 1.390 . S
C489 C488 1.387 . S
C489 C491 1.387 . S
H490 C497 0.950 . S
C491 C489 1.387 . S
C491 C493 1.390 . S
C491 H495 0.950 . S
H492 C488 0.950 . S
C493 C491 1.390 . S
C493 C494 1.387 . S
C493 H496 0.950 . S
C494 C493 1.387 . S
C494 C497 1.387 . S
H495 C491 0.950 . S
H496 C493 0.950 . S
C497 C488 1.390 . S
C497 H490 0.950 . S
C497 C494 1.387 . S
C498 C499 1.387 . S
C498 H502 0.950 . S
C498 C507 1.390 . S
C499 C498 1.387 . S
C499 C501 1.387 . S
H500 C507 0.950 . S
C501 C499 1.387 . S
C501 C503 1.390 . S
C501 H505 0.950 . S
H502 C498 0.950 . S
C503 C501 1.390 . S
C503 C504 1.387 . S
C503 H506 0.950 . S
C504 C503 1.387 . S
C504 C507 1.387 . S
H505 C501 0.950 . S
H506 C503 0.950 . S
C507 C498 1.390 . S
C507 H500 0.950 . S
C507 C504 1.387 . S
C508 C509 1.387 . S
C508 H512 0.950 . S
C508 C517 1.390 . S
C509 C508 1.387 . S
C509 C511 1.387 . S
H510 C517 0.950 . S
C511 C509 1.387 . S
C511 C513 1.390 . S
C511 H515 0.950 . S
H512 C508 0.950 . S
C513 C511 1.390 . S
C513 C514 1.387 . S
C513 H516 0.950 . S
C514 C513 1.387 . S
C514 C517 1.387 . S
H515 C511 0.950 . S
H516 C513 0.950 . S
C517 C508 1.390 . S
C517 H510 0.950 . S
C517 C514 1.387 . S
C518 C519 1.387 . S
C518 H522 0.950 . S
C518 C527 1.390 . S
C519 C518 1.387 . S
C519 C521 1.387 . S
H520 C527 0.950 . S
C521 C519 1.387 . S
C521 C523 1.390 . S
C521 H525 0.950 . S
H522 C518 0.950 . S
C523 C521 1.390 . S
C523 C524 1.387 . S
C523 H526 0.950 . S
C524 C523 1.387 . S
C524 C527 1.387 . S
H525 C521 0.950 . S
H526 C523 0.950 . S
C527 C518 1.390 . S
C527 H520 0.950 . S
C527 C524 1.387 . S
C528 C529 1.387 . S
C528 H532 0.950 . S
C528 C537 1.390 . S
C529 C528 1.387 . S
C529 C531 1.387 . S
H530 C537 0.950 . S
C531 C529 1.387 . S
C531 C533 1.390 . S
C531 H535 0.950 . S
H532 C528 0.950 . S
C533 C531 1.390 . S
C533 C534 1.387 . S
C533 H536 0.950 . S
C534 C533 1.387 . S
C534 C537 1.387 . S
H535 C531 0.950 . S
H536 C533 0.950 . S
C537 C528 1.390 . S
C537 H530 0.950 . S
C537 C534 1.387 . S
C538 C539 1.387 . S
C538 H542 0.950 . S
C538 C547 1.390 . S
C539 C538 1.387 . S
C539 C541 1.387 . S
H540 C547 0.950 . S
C541 C539 1.387 . S
C541 C543 1.390 . S
C541 H545 0.950 . S
H542 C538 0.950 . S
C543 C541 1.390 . S
C543 C544 1.387 . S
C543 H546 0.950 . S
C544 C543 1.387 . S
C544 C547 1.387 . S
H545 C541 0.950 . S
H546 C543 0.950 . S
C547 C538 1.390 . S
C547 H540 0.950 . S
C547 C544 1.387 . S
C548 C549 1.387 . S
C548 H552 0.950 . S
C548 C557 1.390 . S
C549 C548 1.387 . S
C549 C551 1.387 . S
H550 C557 0.950 . S
C551 C549 1.387 . S
C551 C553 1.390 . S
C551 H555 0.950 . S
H552 C548 0.950 . S
C553 C551 1.390 . S
C553 C554 1.387 . S
C553 H556 0.950 . S
C554 C553 1.387 . S
C554 C557 1.387 . S
H555 C551 0.950 . S
H556 C553 0.950 . S
C557 C548 1.390 . S
C557 H550 0.950 . S
C557 C554 1.387 . S
C558 C559 1.387 . S
C558 H562 0.950 . S
C558 C567 1.390 . S
C559 C558 1.387 . S
C559 C561 1.387 . S
H560 C567 0.950 . S
C561 C559 1.387 . S
C561 C563 1.390 . S
C561 H565 0.950 . S
H562 C558 0.950 . S
C563 C561 1.390 . S
C563 C564 1.387 . S
C563 H566 0.950 . S
C564 C563 1.387 . S
C564 C567 1.387 . S
H565 C561 0.950 . S
H566 C563 0.950 . S
C567 C558 1.390 . S
C567 H560 0.950 . S
C567 C564 1.387 . S
C568 C569 1.387 . S
C568 H572 0.950 . S
C568 C577 1.390 . S
C569 C568 1.387 . S
C569 C571 1.387 . S
H570 C577 0.950 . S
C571 C569 1.387 . S
C571 C573 1.390 . S
C571 H575 0.950 . S
H572 C568 0.950 . S
C573 C571 1.390 . S
C573 C574 1.387 . S
C573 H576 0.950 . S
C574 C573 1.387 . S
C574 C577 1.387 . S
H575 C571 0.950 . S
H576 C573 0.950 . S
C577 C568 1.390 . S
C577 H570 0.950 . S
C577 C574 1.387 . S
C578 C579 1.387 . S
C578 H582 0.950 . S
C578 C587 1.390 . S
C579 C578 1.387 . S
C579 C581 1.387 . S
H580 C587 0.950 . S
C581 C579 1.387 . S
C581 C583 1.390 . S
C581 H585 0.950 . S
H582 C578 0.950 . S
C583 C581 1.390 . S
C583 C584 1.387 . S
C583 H586 0.950 . S
C584 C583 1.387 . S
C584 C587 1.387 . S
H585 C581 0.950 . S
H586 C583 0.950 . S
C587 C578 1.390 . S
C587 H580 0.950 . S
C587 C584 1.387 . S
C588 C589 1.387 . S
C588 H592 0.950 . S
C588 C597 1.390 . S
C589 C588 1.387 . S
C589 C591 1.387 . S
H590 C597 0.950 . S
C591 C589 1.387 . S
C591 C593 1.390 . S
C591 H595 0.950 . S
H592 C588 0.950 . S
C593 C591 1.390 . S
C593 C594 1.387 . S
C593 H596 0.950 . S
C594 C593 1.387 . S
C594 C597 1.387 . S
H595 C591 0.950 . S
H596 C593 0.950 . S
C597 C588 1.390 . S
C597 H590 0.950 . S
C597 C594 1.387 . S
C598 C599 1.387 . S
C598 H602 0.950 . S
C598 C607 1.390 . S
C599 C598 1.387 . S
C599 C601 1.387 . S
H600 C607 0.950 . S
C601 C599 1.387 . S
C601 C603 1.390 . S
C601 H605 0.950 . S
H602 C598 0.950 . S
C603 C601 1.390 . S
C603 C604 1.387 . S
C603 H606 0.950 . S
C604 C603 1.387 . S
C604 C607 1.387 . S
H605 C601 0.950 . S
H606 C603 0.950 . S
C607 C598 1.390 . S
C607 H600 0.950 . S
C607 C604 1.387 . S
C608 C609 1.387 . S
C608 H612 0.950 . S
C608 C617 1.390 . S
C609 C608 1.387 . S
C609 C611 1.387 . S
H610 C617 0.950 . S
C611 C609 1.387 . S
C611 C613 1.390 . S
C611 H615 0.950 . S
H612 C608 0.950 . S
C613 C611 1.390 . S
C613 C614 1.387 . S
C613 H616 0.950 . S
C614 C613 1.387 . S
C614 C617 1.387 . S
H615 C611 0.950 . S
H616 C613 0.950 . S
C617 C608 1.390 . S
C617 H610 0.950 . S
C617 C614 1.387 . S
C618 C619 1.387 . S
C618 H622 0.950 . S
C618 C627 1.390 . S
C619 C618 1.387 . S
C619 C621 1.387 . S
H620 C627 0.950 . S
C621 C619 1.387 . S
C621 C623 1.390 . S
C621 H625 0.950 . S
H622 C618 0.950 . S
C623 C621 1.390 . S
C623 C624 1.387 . S
C623 H626 0.950 . S
C624 C623 1.387 . S
C624 C627 1.387 . S
H625 C621 0.950 . S
H626 C623 0.950 . S
C627 C618 1.390 . S
C627 H620 0.950 . S
C627 C624 1.387 . S
C628 C629 1.387 . S
C628 H632 0.950 . S
C628 C637 1.390 . S
C629 C628 1.387 . S
C629 C631 1.387 . S
H630 C637 0.950 . S
C631 C629 1.387 . S
C631 C633 1.390 . S
C631 H635 0.950 . S
H632 C628 0.950 . S
C633 C631 1.390 . S
C633 C634 1.387 . S
C633 H636 0.950 . S
C634 C633 1.387 . S
C634 C637 1.387 . S
H635 C631 0.950 . S
H636 C633 0.950 . S
C637 C628 1.390 . S
C637 H630 0.950 . S
C637 C634 1.387 . S
C638 C639 1.387 . S
C638 H642 0.950 . S
C638 C647 1.390 . S
C639 C638 1.387 . S
C639 C641 1.387 . S
H640 C647 0.950 . S
C641 C639 1.387 . S
C641 C643 1.390 . S
C641 H645 0.950 . S
H642 C638 0.950 . S
C643 C641 1.390 . S
C643 C644 1.387 . S
C643 H646 0.950 . S
C644 C643 1.387 . S
C644 C647 1.387 . S
H645 C641 0.950 . S
H646 C643 0.950 . S
C647 C638 1.390 . S
C647 H640 0.950 . S
C647 C644 1.387 . S
C648 C649 1.387 . S
C648 H652 0.950 . S
C648 C657 1.390 . S
C649 C648 1.387 . S
C649 C651 1.387 1_455 S
H650 C657 0.950 . S
C651 C649 1.387 1_655 S
C651 C653 1.390 . S
C651 H655 0.950 . S
H652 C648 0.950 . S
C653 C651 1.390 . S
C653 C654 1.387 . S
C653 H656 0.950 . S
C654 C653 1.387 . S
C654 C657 1.387 1_655 S
H655 C651 0.950 . S
H656 C653 0.950 . S
C657 C648 1.390 . S
C657 H650 0.950 . S
C657 C654 1.387 1_455 S
C658 C659 1.387 . S
C658 H662 0.950 . S
C658 C667 1.390 . S
C659 C658 1.387 . S
C659 C661 1.387 . S
H660 C667 0.950 . S
C661 C659 1.387 . S
C661 C663 1.390 . S
C661 H665 0.950 . S
H662 C658 0.950 . S
C663 C661 1.390 . S
C663 C664 1.387 . S
C663 H666 0.950 . S
C664 C663 1.387 . S
C664 C667 1.387 . S
H665 C661 0.950 . S
H666 C663 0.950 . S
C667 C658 1.390 . S
C667 H660 0.950 . S
C667 C664 1.387 . S
C668 C669 1.387 . S
C668 H672 0.950 . S
C668 C677 1.390 . S
C669 C668 1.387 . S
C669 C671 1.387 . S
H670 C677 0.950 . S
C671 C669 1.387 . S
C671 C673 1.390 . S
C671 H675 0.950 . S
H672 C668 0.950 . S
C673 C671 1.390 . S
C673 C674 1.387 . S
C673 H676 0.950 . S
C674 C673 1.387 . S
C674 C677 1.387 . S
H675 C671 0.950 . S
H676 C673 0.950 . S
C677 C668 1.390 . S
C677 H670 0.950 . S
C677 C674 1.387 . S
C678 C679 1.387 . S
C678 H682 0.950 . S
C678 C687 1.390 . S
C679 C678 1.387 . S
C679 C681 1.387 1_545 S
H680 C687 0.950 . S
C681 C679 1.387 1_565 S
C681 C683 1.390 . S
C681 H685 0.950 . S
H682 C678 0.950 . S
C683 C681 1.390 . S
C683 C684 1.387 . S
C683 H686 0.950 . S
C684 C683 1.387 . S
C684 C687 1.387 1_565 S
H685 C681 0.950 . S
H686 C683 0.950 . S
C687 C678 1.390 . S
C687 H680 0.950 . S
C687 C684 1.387 1_545 S
C688 C689 1.387 . S
C688 H692 0.950 . S
C688 C697 1.390 . S
C689 C688 1.387 . S
C689 C691 1.387 . S
H690 C697 0.950 . S
C691 C689 1.387 . S
C691 C693 1.390 . S
C691 H695 0.950 . S
H692 C688 0.950 . S
C693 C691 1.390 . S
C693 C694 1.387 . S
C693 H696 0.950 . S
C694 C693 1.387 . S
C694 C697 1.387 . S
H695 C691 0.950 . S
H696 C693 0.950 . S
C697 C688 1.390 . S
C697 H690 0.950 . S
C697 C694 1.387 . S
C698 C699 1.387 . S
C698 H702 0.950 . S
C698 C707 1.390 . S
C699 C698 1.387 . S
C699 C701 1.387 . S
H700 C707 0.950 . S
C701 C699 1.387 . S
C701 C703 1.390 . S
C701 H705 0.950 . S
H702 C698 0.950 . S
C703 C701 1.390 . S
C703 C704 1.387 . S
C703 H706 0.950 . S
C704 C703 1.387 . S
C704 C707 1.387 . S
H705 C701 0.950 . S
H706 C703 0.950 . S
C707 C698 1.390 . S
C707 H700 0.950 . S
C707 C704 1.387 . S
C708 C709 1.387 . S
C708 H712 0.950 . S
C708 C717 1.390 . S
C709 C708 1.387 . S
C709 C711 1.387 . S
H710 C717 0.950 . S
C711 C709 1.387 . S
C711 C713 1.390 . S
C711 H715 0.950 . S
H712 C708 0.950 . S
C713 C711 1.390 . S
C713 C714 1.387 . S
C713 H716 0.950 . S
C714 C713 1.387 . S
C714 C717 1.387 . S
H715 C711 0.950 . S
H716 C713 0.950 . S
C717 C708 1.390 . S
C717 H710 0.950 . S
C717 C714 1.387 . S
C718 C719 1.387 . S
C718 H722 0.950 . S
C718 C727 1.390 . S
C719 C718 1.387 . S
C719 C721 1.387 . S
H720 C727 0.950 . S
C721 C719 1.387 . S
C721 C723 1.390 . S
C721 H725 0.950 . S
H722 C718 0.950 . S
C723 C721 1.390 . S
C723 C724 1.387 . S
C723 H726 0.950 . S
C724 C723 1.387 . S
C724 C727 1.387 . S
H725 C721 0.950 . S
H726 C723 0.950 . S
C727 C718 1.390 . S
C727 H720 0.950 . S
C727 C724 1.387 . S
C728 C729 1.387 . S
C728 H732 0.950 . S
C728 C737 1.390 1_545 S
C729 C728 1.387 . S
C729 C731 1.387 . S
H730 C737 0.950 . S
C731 C729 1.387 . S
C731 C733 1.390 1_545 S
C731 H735 0.950 . S
H732 C728 0.950 . S
C733 C731 1.390 1_565 S
C733 C734 1.387 . S
C733 H736 0.950 . S
C734 C733 1.387 . S
C734 C737 1.387 . S
H735 C731 0.950 . S
H736 C733 0.950 . S
C737 C728 1.390 1_565 S
C737 H730 0.950 . S
C737 C734 1.387 . S
C738 C739 1.387 . S
C738 H742 0.950 . S
C738 C747 1.390 . S
C739 C738 1.387 . S
C739 C741 1.387 . S
H740 C747 0.950 . S
C741 C739 1.387 . S
C741 C743 1.390 . S
C741 H745 0.921 1_545 S
H742 C738 0.950 . S
C743 C741 1.390 . S
C743 C744 1.387 . S
C743 H746 0.950 . S
C744 C743 1.387 . S
C744 C747 1.387 . S
H745 C741 0.921 1_565 S
H746 C743 0.950 . S
C747 C738 1.390 . S
C747 H740 0.950 . S
C747 C744 1.387 . S
C748 C749 1.387 . S
C748 H752 0.950 . S
C748 C757 1.390 . S
C749 C748 1.387 . S
C749 C751 1.387 1_455 S
H750 C757 0.950 . S
C751 C749 1.387 1_655 S
C751 C753 1.390 . S
C751 H755 0.950 . S
H752 C748 0.950 . S
C753 C751 1.390 . S
C753 C754 1.387 . S
C753 H756 0.950 . S
C754 C753 1.387 . S
C754 C757 1.387 1_655 S
H755 C751 0.950 . S
H756 C753 0.950 . S
C757 C748 1.390 . S
C757 H750 0.950 . S
C757 C754 1.387 1_455 S
C758 C759 1.387 . S
C758 H762 0.950 . S
C758 C767 1.390 . S
C759 C758 1.387 . S
C759 C761 1.387 . S
H760 C767 0.950 . S
C761 C759 1.387 . S
C761 C763 1.390 . S
C761 H765 0.950 . S
H762 C758 0.950 . S
C763 C761 1.390 . S
C763 C764 1.387 . S
C763 H766 0.950 . S
C764 C763 1.387 . S
C764 C767 1.387 . S
H765 C761 0.950 . S
H766 C763 0.950 . S
C767 C758 1.390 . S
C767 H760 0.950 . S
C767 C764 1.387 . S
C768 C769 1.387 . S
C768 H772 0.950 . S
C768 C777 1.390 . S
C769 C768 1.387 . S
C769 C771 1.387 . S
H770 C777 0.950 . S
C771 C769 1.387 . S
C771 C773 1.390 . S
C771 H775 0.950 . S
H772 C768 0.950 . S
C773 C771 1.390 . S
C773 C774 1.387 . S
C773 H776 0.950 . S
C774 C773 1.387 . S
C774 C777 1.387 . S
H775 C771 0.950 . S
H776 C773 0.950 . S
C777 C768 1.390 . S
C777 H770 0.950 . S
C777 C774 1.387 . S
C778 C779 1.387 . S
C778 H782 0.950 . S
C778 C787 1.390 . S
C779 C778 1.387 . S
C779 C781 1.387 . S
H780 C787 0.950 . S
C781 C779 1.387 . S
C781 C783 1.390 . S
C781 H785 0.950 . S
H782 C778 0.950 . S
C783 C781 1.390 . S
C783 C784 1.387 . S
C783 H786 0.950 . S
C784 C783 1.387 . S
C784 C787 1.387 . S
H785 C781 0.950 . S
H786 C783 0.950 . S
C787 C778 1.390 . S
C787 H780 0.950 . S
C787 C784 1.387 . S
C788 C789 1.387 1_655 S
C788 H792 0.950 . S
C788 C797 1.390 1_655 S
C789 C788 1.387 1_455 S
C789 C791 1.387 . S
H790 C797 0.950 . S
C791 C789 1.387 . S
C791 C793 1.390 . S
C791 H795 0.950 . S
H792 C788 0.950 . S
C793 C791 1.390 . S
C793 C794 1.387 . S
C793 H796 0.950 . S
C794 C793 1.387 . S
C794 C797 1.387 . S
H795 C791 0.950 . S
H796 C793 0.950 . S
C797 C788 1.390 1_455 S
C797 H790 0.950 . S
C797 C794 1.387 . S
C798 C799 1.387 . S
C798 H802 0.950 . S
C798 C807 1.390 . S
C799 C798 1.387 . S
C799 C801 1.387 . S
H800 C807 0.950 . S
C801 C799 1.387 . S
C801 C803 1.390 . S
C801 H805 0.950 . S
H802 C798 0.950 . S
C803 C801 1.390 . S
C803 C804 1.387 . S
C803 H806 0.950 . S
C804 C803 1.387 . S
C804 C807 1.387 . S
H805 C801 0.950 . S
H806 C803 0.950 . S
C807 C798 1.390 . S
C807 H800 0.950 . S
C807 C804 1.387 . S
C808 C809 1.387 . S
C808 H812 0.950 . S
C808 C817 1.390 . S
C809 C808 1.387 . S
C809 C811 1.387 . S
H810 C817 0.950 . S
C811 C809 1.387 . S
C811 C813 1.390 . S
C811 H815 0.950 . S
H812 C808 0.950 . S
C813 C811 1.390 . S
C813 C814 1.387 . S
C813 H816 0.950 . S
C814 C813 1.387 . S
C814 C817 1.387 . S
H815 C811 0.950 . S
H816 C813 0.950 . S
C817 C808 1.390 . S
C817 H810 0.950 . S
C817 C814 1.387 . S
C818 C819 1.387 . S
C818 H822 0.950 1_455 S
C818 C827 1.390 . S
C819 C818 1.387 . S
C819 C821 1.387 . S
H820 C827 0.950 . S
C821 C819 1.387 . S
C821 C823 1.390 . S
C821 H825 0.950 . S
H822 C818 0.950 1_655 S
C823 C821 1.390 . S
C823 C824 1.387 . S
C823 H826 0.950 . S
C824 C823 1.387 . S
C824 C827 1.387 . S
H825 C821 0.950 . S
H826 C823 0.950 . S
C827 C818 1.390 . S
C827 H820 0.950 . S
C827 C824 1.387 . S
C828 C829 1.387 . S
C828 H832 0.950 . S
C828 C837 1.390 1_554 S
C829 C828 1.387 . S
C829 C831 1.387 . S
H830 C837 0.950 . S
C831 C829 1.387 . S
C831 C833 1.388 1_454 S
C831 H835 0.950 1_455 S
H832 C828 0.950 . S
C833 C831 1.388 1_656 S
C833 C834 1.381 1_655 S
C833 H836 0.958 . S
C834 C833 1.381 1_455 S
C834 C837 1.387 . S
H835 C831 0.950 1_655 S
H836 C833 0.958 . S
C837 C828 1.390 1_556 S
C837 H830 0.950 . S
C837 C834 1.387 . S
C838 C839 1.387 . S
C838 H842 0.950 . S
C838 C847 1.390 1_556 S
C839 C838 1.387 . S
C839 C841 1.387 . S
H840 C847 0.950 . S
C841 C839 1.387 . S
C841 C843 1.390 1_556 S
C841 H845 0.950 . S
H842 C838 0.950 . S
C843 C841 1.390 1_554 S
C843 C844 1.387 . S
C843 H846 0.950 . S
C844 C843 1.387 . S
C844 C847 1.387 . S
H845 C841 0.950 . S
H846 C843 0.950 . S
C847 C838 1.390 1_554 S
C847 H840 0.950 . S
C847 C844 1.387 . S
C848 C849 1.387 . S
C848 H852 0.950 . S
C848 C857 1.390 1_556 S
C849 C848 1.387 . S
C849 C851 1.387 . S
H850 C857 0.950 . S
C851 C849 1.387 . S
C851 C853 1.390 1_556 S
C851 H855 0.950 . S
H852 C848 0.950 . S
C853 C851 1.390 1_554 S
C853 C854 1.387 . S
C853 H856 0.950 . S
C854 C853 1.387 . S
C854 C857 1.387 . S
H855 C851 0.950 . S
H856 C853 0.950 . S
C857 C848 1.390 1_554 S
C857 H850 0.950 . S
C857 C854 1.387 . S
C858 C859 1.387 . S
C858 H862 0.950 . S
C858 C867 1.390 1_556 S
C859 C858 1.387 . S
C859 C861 1.387 . S
H860 C867 0.950 . S
C861 C859 1.387 . S
C861 C863 1.390 1_556 S
C861 H865 0.950 . S
H862 C858 0.950 . S
C863 C861 1.390 1_554 S
C863 C864 1.387 . S
C863 H866 0.950 . S
C864 C863 1.387 . S
C864 C867 1.387 . S
H865 C861 0.950 . S
H866 C863 0.950 . S
C867 C858 1.390 1_554 S
C867 H860 0.950 . S
C867 C864 1.387 . S
C868 C869 1.387 . S
C868 H872 0.950 . S
C868 C877 1.390 1_554 S
C869 C868 1.387 . S
C869 C871 1.387 . S
H870 C877 0.950 . S
C871 C869 1.387 . S
C871 C873 1.390 1_554 S
C871 H875 0.950 . S
H872 C868 0.950 . S
C873 C871 1.390 1_556 S
C873 C874 1.387 . S
C873 H876 0.950 . S
C874 C873 1.387 . S
C874 C877 1.387 . S
H875 C871 0.950 . S
H876 C873 0.950 . S
C877 C868 1.390 1_556 S
C877 H870 0.950 . S
C877 C874 1.387 . S
C878 C879 1.387 . S
C878 H882 0.950 . S
C878 C887 1.390 1_556 S
C879 C878 1.387 . S
C879 C881 1.387 . S
H880 C887 0.950 . S
C881 C879 1.387 . S
C881 C883 1.390 1_556 S
C881 H885 0.950 . S
H882 C878 0.950 . S
C883 C881 1.390 1_554 S
C883 C884 1.387 . S
C883 H886 0.950 . S
C884 C883 1.387 . S
C884 C887 1.387 . S
H885 C881 0.950 . S
H886 C883 0.950 . S
C887 C878 1.390 1_554 S
C887 H880 0.950 . S
C887 C884 1.387 . S
C888 C889 1.387 . S
C888 H892 0.950 . S
C888 C897 1.390 . S
C889 C888 1.387 . S
C889 C891 1.387 . S
H890 C897 0.950 . S
C891 C889 1.387 . S
C891 C893 1.390 . S
C891 H895 0.950 . S
H892 C888 0.950 . S
C893 C891 1.390 . S
C893 C894 1.387 . S
C893 H896 0.950 . S
C894 C893 1.387 . S
C894 C897 1.387 . S
H895 C891 0.950 . S
H896 C893 0.950 . S
C897 C888 1.390 . S
C897 H890 0.950 . S
C897 C894 1.387 . S
C898 C899 1.387 . S
C898 H902 0.950 . S
C898 C907 1.390 . S
C899 C898 1.387 . S
C899 C901 1.387 . S
H900 C907 0.950 . S
C901 C899 1.387 . S
C901 C903 1.390 . S
C901 H905 0.950 . S
H902 C898 0.950 . S
C903 C901 1.390 . S
C903 C904 1.387 . S
C903 H906 0.950 . S
C904 C903 1.387 . S
C904 C907 1.387 . S
H905 C901 0.950 . S
H906 C903 0.950 . S
C907 C898 1.390 . S
C907 H900 0.950 . S
C907 C904 1.387 . S
C908 C909 1.387 . S
C908 H912 0.950 . S
C908 C917 1.390 . S
C909 C908 1.387 . S
C909 C911 1.387 . S
H910 C917 0.950 . S
C911 C909 1.387 . S
C911 C913 1.390 . S
C911 H915 0.950 . S
H912 C908 0.950 . S
C913 C911 1.390 . S
C913 C914 1.387 . S
C913 H916 0.950 . S
C914 C913 1.387 . S
C914 C917 1.387 . S
H915 C911 0.950 . S
H916 C913 0.950 . S
C917 C908 1.390 . S
C917 H910 0.950 . S
C917 C914 1.387 . S
C918 C919 1.387 . S
C918 H922 0.950 . S
C918 C927 1.390 . S
C919 C918 1.387 . S
C919 C921 1.387 . S
H920 C927 0.950 . S
C921 C919 1.387 . S
C921 C923 1.390 . S
C921 H925 0.950 . S
H922 C918 0.950 . S
C923 C921 1.390 . S
C923 C924 1.387 . S
C923 H926 0.950 . S
C924 C923 1.387 . S
C924 C927 1.387 . S
H925 C921 0.950 . S
H926 C923 0.950 . S
C927 C918 1.390 . S
C927 H920 0.950 . S
C927 C924 1.387 . S
C928 C929 1.387 . S
C928 H932 0.950 . S
C928 C937 1.390 . S
C929 C928 1.387 . S
C929 C931 1.387 . S
H930 C937 0.950 . S
C931 C929 1.387 . S
C931 C933 1.390 . S
C931 H935 0.950 . S
H932 C928 0.950 . S
C933 C931 1.390 . S
C933 C934 1.387 . S
C933 H936 0.950 . S
C934 C933 1.387 . S
C934 C937 1.387 . S
H935 C931 0.950 . S
H936 C933 0.950 . S
C937 C928 1.390 . S
C937 H930 0.950 . S
C937 C934 1.387 . S
C938 C939 1.387 . S
C938 H942 0.950 . S
C938 C947 1.390 . S
C939 C938 1.387 . S
C939 C941 1.387 . S
H940 C947 0.950 . S
C941 C939 1.387 . S
C941 C943 1.390 . S
C941 H945 0.950 . S
H942 C938 0.950 . S
C943 C941 1.390 . S
C943 C944 1.387 . S
C943 H946 0.950 . S
C944 C943 1.387 . S
C944 C947 1.387 . S
H945 C941 0.950 . S
H946 C943 0.950 . S
C947 C938 1.390 . S
C947 H940 0.950 . S
C947 C944 1.387 . S
C948 C949 1.387 . S
C948 H952 0.950 . S
C948 C957 1.390 . S
C949 C948 1.387 . S
C949 C951 1.387 . S
H950 C957 0.950 . S
C951 C949 1.387 . S
C951 C953 1.390 . S
C951 H955 0.950 . S
H952 C948 0.950 . S
C953 C951 1.390 . S
C953 C954 1.387 . S
C953 H956 0.950 . S
C954 C953 1.387 . S
C954 C957 1.387 . S
H955 C951 0.950 . S
H956 C953 0.950 . S
C957 C948 1.390 . S
C957 H950 0.950 . S
C957 C954 1.387 . S
C958 C959 1.387 . S
C958 H962 0.950 . S
C958 C967 1.390 . S
C959 C958 1.387 . S
C959 C961 1.387 . S
H960 C967 0.950 . S
C961 C959 1.387 . S
C961 C963 1.390 . S
C961 H965 0.950 . S
H962 C958 0.950 . S
C963 C961 1.390 . S
C963 C964 1.387 . S
C963 H966 0.950 . S
C964 C963 1.387 . S
C964 C967 1.387 . S
H965 C961 0.950 . S
H966 C963 0.950 . S
C967 C958 1.390 . S
C967 H960 0.950 . S
C967 C964 1.387 . S
C968 C969 1.387 . S
C968 H972 0.950 . S
C968 C977 1.390 . S
C969 C968 1.387 . S
C969 C971 1.387 . S
H970 C977 0.950 . S
C971 C969 1.387 . S
C971 C973 1.390 . S
C971 H975 0.950 . S
H972 C968 0.950 . S
C973 C971 1.390 . S
C973 C974 1.387 . S
C973 H976 0.950 . S
C974 C973 1.387 . S
C974 C977 1.387 . S
H975 C971 0.950 . S
H976 C973 0.950 . S
C977 C968 1.390 . S
C977 H970 0.950 . S
C977 C974 1.387 . S
C978 C979 1.387 . S
C978 H982 0.950 . S
C978 C987 1.390 . S
C979 C978 1.387 . S
C979 C981 1.387 . S
H980 C987 0.950 . S
C981 C979 1.387 . S
C981 C983 1.390 . S
C981 H985 0.950 . S
H982 C978 0.950 . S
C983 C981 1.390 . S
C983 C984 1.387 . S
C983 H986 0.950 . S
C984 C983 1.387 . S
C984 C987 1.387 . S
H985 C981 0.950 . S
H986 C983 0.950 . S
C987 C978 1.390 . S
C987 H980 0.950 . S
C987 C984 1.387 . S
C988 C989 1.387 . S
C988 H992 0.950 . S
C988 C997 1.390 . S
C989 C988 1.387 . S
C989 C991 1.387 . S
H990 C997 0.950 . S
C991 C989 1.387 . S
C991 C993 1.390 . S
C991 H995 0.950 . S
H992 C988 0.950 . S
C993 C991 1.390 . S
C993 C994 1.387 . S
C993 H996 0.950 . S
C994 C993 1.387 . S
C994 C997 1.387 . S
H995 C991 0.950 . S
H996 C993 0.950 . S
C997 C988 1.390 . S
C997 H990 0.950 . S
C997 C994 1.387 . S
C998 C999 1.387 . S
C998 H1002 0.950 . S
C998 C1007 1.390 . S
C999 C998 1.387 . S
C999 C1001 1.387 . S
H1000 C1007 0.950 . S
C1001 C999 1.387 . S
C1001 C1003 1.390 . S
C1001 H1005 0.950 . S
H1002 C998 0.950 . S
C1003 C1001 1.390 . S
C1003 C1004 1.387 . S
C1003 H1006 0.950 . S
C1004 C1003 1.387 . S
C1004 C1007 1.387 . S
H1005 C1001 0.950 . S
H1006 C1003 0.950 . S
C1007 C998 1.390 . S
C1007 H1000 0.950 . S
C1007 C1004 1.387 . S
C1008 C1009 1.387 . S
C1008 H1012 0.950 . S
C1008 C1017 1.390 . S
C1009 C1008 1.387 . S
C1009 C1011 1.387 . S
H1010 C1017 0.950 . S
C1011 C1009 1.387 . S
C1011 C1013 1.390 . S
C1011 H1015 0.950 . S
H1012 C1008 0.950 . S
C1013 C1011 1.390 . S
C1013 C1014 1.387 . S
C1013 H1016 0.950 . S
C1014 C1013 1.387 . S
C1014 C1017 1.387 . S
H1015 C1011 0.950 . S
H1016 C1013 0.950 . S
C1017 C1008 1.390 . S
C1017 H1010 0.950 . S
C1017 C1014 1.387 . S
C1018 C1019 1.387 . S
C1018 H1022 0.950 . S
C1018 C1027 1.390 . S
C1019 C1018 1.387 . S
C1019 C1021 1.387 . S
H1020 C1027 0.950 . S
C1021 C1019 1.387 . S
C1021 C1023 1.390 . S
C1021 H1025 0.950 . S
H1022 C1018 0.950 . S
C1023 C1021 1.390 . S
C1023 C1024 1.387 . S
C1023 H1026 0.950 . S
C1024 C1023 1.387 . S
C1024 C1027 1.387 . S
H1025 C1021 0.950 . S
H1026 C1023 0.950 . S
C1027 C1018 1.390 . S
C1027 H1020 0.950 . S
C1027 C1024 1.387 . S
C1028 C1029 1.387 . S
C1028 H1032 0.950 . S
C1028 C1037 1.390 . S
C1029 C1028 1.387 . S
C1029 C1031 1.387 . S
H1030 C1037 0.950 . S
C1031 C1029 1.387 . S
C1031 C1033 1.390 . S
C1031 H1035 0.950 . S
H1032 C1028 0.950 . S
C1033 C1031 1.390 . S
C1033 C1034 1.387 . S
C1033 H1036 0.950 . S
C1034 C1033 1.387 . S
C1034 C1037 1.387 . S
H1035 C1031 0.950 . S
H1036 C1033 0.950 . S
C1037 C1028 1.390 . S
C1037 H1030 0.950 . S
C1037 C1034 1.387 . S
C1038 C1039 1.387 . S
C1038 H1042 0.950 . S
C1038 C1047 1.390 . S
C1039 C1038 1.387 . S
C1039 C1041 1.387 . S
H1040 C1047 0.950 . S
C1041 C1039 1.387 . S
C1041 C1043 1.390 . S
C1041 H1045 0.950 . S
H1042 C1038 0.950 . S
C1043 C1041 1.390 . S
C1043 C1044 1.387 . S
C1043 H1046 0.950 . S
C1044 C1043 1.387 . S
C1044 C1047 1.387 . S
H1045 C1041 0.950 . S
H1046 C1043 0.950 . S
C1047 C1038 1.390 . S
C1047 H1040 0.950 . S
C1047 C1044 1.387 . S
C1048 C1049 1.387 . S
C1048 H1052 0.950 . S
C1048 C1057 1.390 . S
C1049 C1048 1.387 . S
C1049 C1051 1.387 . S
H1050 C1057 0.950 . S
C1051 C1049 1.387 . S
C1051 C1053 1.390 . S
C1051 H1055 0.950 . S
H1052 C1048 0.950 . S
C1053 C1051 1.390 . S
C1053 C1054 1.387 . S
C1053 H1056 0.950 . S
C1054 C1053 1.387 . S
C1054 C1057 1.387 . S
H1055 C1051 0.950 . S
H1056 C1053 0.950 . S
C1057 C1048 1.390 . S
C1057 H1050 0.950 . S
C1057 C1054 1.387 . S
C1058 C1059 1.387 . S
C1058 H1062 0.950 . S
C1058 C1067 1.390 . S
C1059 C1058 1.387 . S
C1059 C1061 1.387 . S
H1060 C1067 0.950 . S
C1061 C1059 1.387 . S
C1061 C1063 1.390 . S
C1061 H1065 0.950 . S
H1062 C1058 0.950 . S
C1063 C1061 1.390 . S
C1063 C1064 1.387 . S
C1063 H1066 0.950 . S
C1064 C1063 1.387 . S
C1064 C1067 1.387 . S
H1065 C1061 0.950 . S
H1066 C1063 0.950 . S
C1067 C1058 1.390 . S
C1067 H1060 0.950 . S
C1067 C1064 1.387 . S
C1068 C1069 1.387 . S
C1068 H1072 0.950 . S
C1068 C1077 1.390 . S
C1069 C1068 1.387 . S
C1069 C1071 1.387 . S
H1070 C1077 0.950 . S
C1071 C1069 1.387 . S
C1071 C1073 1.390 . S
C1071 H1075 0.950 . S
H1072 C1068 0.950 . S
C1073 C1071 1.390 . S
C1073 C1074 1.387 . S
C1073 H1076 0.950 . S
C1074 C1073 1.387 . S
C1074 C1077 1.387 . S
H1075 C1071 0.950 . S
H1076 C1073 0.950 . S
C1077 C1068 1.390 . S
C1077 H1070 0.950 . S
C1077 C1074 1.387 . S
C1078 C1079 1.387 . S
C1078 H1082 0.950 . S
C1078 C1087 1.390 . S
C1079 C1078 1.387 . S
C1079 C1081 1.387 . S
H1080 C1087 0.950 . S
C1081 C1079 1.387 . S
C1081 C1083 1.390 . S
C1081 H1085 0.950 . S
H1082 C1078 0.950 . S
C1083 C1081 1.390 . S
C1083 C1084 1.387 . S
C1083 H1086 0.950 . S
C1084 C1083 1.387 . S
C1084 C1087 1.387 . S
H1085 C1081 0.950 . S
H1086 C1083 0.950 . S
C1087 C1078 1.390 . S
C1087 H1080 0.950 . S
C1087 C1084 1.387 . S
C1088 C1089 1.387 . S
C1088 H1092 0.950 . S
C1088 C1097 1.390 . S
C1089 C1088 1.387 . S
C1089 C1091 1.387 . S
H1090 C1097 0.950 . S
C1091 C1089 1.387 . S
C1091 C1093 1.390 . S
C1091 H1095 0.950 . S
H1092 C1088 0.950 . S
C1093 C1091 1.390 . S
C1093 C1094 1.387 . S
C1093 H1096 0.950 . S
C1094 C1093 1.387 . S
C1094 C1097 1.387 . S
H1095 C1091 0.950 . S
H1096 C1093 0.950 . S
C1097 C1088 1.390 . S
C1097 H1090 0.950 . S
C1097 C1094 1.387 . S
C1098 C1099 1.387 . S
C1098 H1102 0.950 . S
C1098 C1107 1.390 . S
C1099 C1098 1.387 . S
C1099 C1101 1.387 . S
H1100 C1107 0.950 . S
C1101 C1099 1.387 . S
C1101 C1103 1.390 . S
C1101 H1105 0.950 . S
H1102 C1098 0.950 . S
C1103 C1101 1.390 . S
C1103 C1104 1.387 . S
C1103 H1106 0.950 . S
C1104 C1103 1.387 . S
C1104 C1107 1.387 . S
H1105 C1101 0.950 . S
H1106 C1103 0.950 . S
C1107 C1098 1.390 . S
C1107 H1100 0.950 . S
C1107 C1104 1.387 . S
C1108 C1109 1.387 . S
C1108 H1112 0.950 . S
C1108 C1117 1.390 . S
C1109 C1108 1.387 . S
C1109 C1111 1.387 . S
H1110 C1117 0.950 . S
C1111 C1109 1.387 . S
C1111 C1113 1.390 . S
C1111 H1115 0.950 . S
H1112 C1108 0.950 . S
C1113 C1111 1.390 . S
C1113 C1114 1.387 . S
C1113 H1116 0.950 . S
C1114 C1113 1.387 . S
C1114 C1117 1.387 . S
H1115 C1111 0.950 . S
H1116 C1113 0.950 . S
C1117 C1108 1.390 . S
C1117 H1110 0.950 . S
C1117 C1114 1.387 . S
C1118 C1119 1.387 . S
C1118 H1122 0.950 . S
C1118 C1127 1.390 . S
C1119 C1118 1.387 . S
C1119 C1121 1.387 . S
H1120 C1127 0.950 . S
C1121 C1119 1.387 . S
C1121 C1123 1.390 . S
C1121 H1125 0.950 . S
H1122 C1118 0.950 . S
C1123 C1121 1.390 . S
C1123 C1124 1.387 . S
C1123 H1126 0.950 . S
C1124 C1123 1.387 . S
C1124 C1127 1.387 . S
H1125 C1121 0.950 . S
H1126 C1123 0.950 . S
C1127 C1118 1.390 . S
C1127 H1120 0.950 . S
C1127 C1124 1.387 . S
C1128 C1129 1.387 . S
C1128 H1132 0.950 . S
C1128 C1137 1.390 . S
C1129 C1128 1.387 . S
C1129 C1131 1.387 . S
H1130 C1137 0.950 . S
C1131 C1129 1.387 . S
C1131 C1133 1.390 . S
C1131 H1135 0.950 . S
H1132 C1128 0.950 . S
C1133 C1131 1.390 . S
C1133 C1134 1.387 . S
C1133 H1136 0.950 . S
C1134 C1133 1.387 . S
C1134 C1137 1.387 . S
H1135 C1131 0.950 . S
H1136 C1133 0.950 . S
C1137 C1128 1.390 . S
C1137 H1130 0.950 . S
C1137 C1134 1.387 . S
C1138 C1139 1.387 . S
C1138 H1142 0.950 . S
C1138 C1147 1.390 . S
C1139 C1138 1.387 . S
C1139 C1141 1.387 . S
H1140 C1147 0.950 . S
C1141 C1139 1.387 . S
C1141 C1143 1.390 . S
C1141 H1145 0.950 . S
H1142 C1138 0.950 . S
C1143 C1141 1.390 . S
C1143 C1144 1.387 . S
C1143 H1146 0.950 . S
C1144 C1143 1.387 . S
C1144 C1147 1.387 . S
H1145 C1141 0.950 . S
H1146 C1143 0.950 . S
C1147 C1138 1.390 . S
C1147 H1140 0.950 . S
C1147 C1144 1.387 . S
C1148 C1149 1.387 . S
C1148 H1152 0.950 . S
C1148 C1157 1.390 . S
C1149 C1148 1.387 . S
C1149 C1151 1.387 . S
H1150 C1157 0.950 . S
C1151 C1149 1.387 . S
C1151 C1153 1.390 . S
C1151 H1155 0.950 . S
H1152 C1148 0.950 . S
C1153 C1151 1.390 . S
C1153 C1154 1.387 . S
C1153 H1156 0.950 . S
C1154 C1153 1.387 . S
C1154 C1157 1.387 . S
H1155 C1151 0.950 . S
H1156 C1153 0.950 . S
C1157 C1148 1.390 . S
C1157 H1150 0.950 . S
C1157 C1154 1.387 . S
C1158 C1159 1.387 . S
C1158 H1162 0.950 . S
C1158 C1167 1.390 . S
C1159 C1158 1.387 . S
C1159 C1161 1.387 . S
H1160 C1167 0.950 . S
C1161 C1159 1.387 . S
C1161 C1163 1.390 . S
C1161 H1165 0.950 . S
H1162 C1158 0.950 . S
C1163 C1161 1.390 . S
C1163 C1164 1.387 . S
C1163 H1166 0.950 . S
C1164 C1163 1.387 . S
C1164 C1167 1.387 . S
H1165 C1161 0.950 . S
H1166 C1163 0.950 . S
C1167 C1158 1.390 . S
C1167 H1160 0.950 . S
C1167 C1164 1.387 . S
C1168 C1169 1.387 . S
C1168 H1172 0.950 . S
C1168 C1177 1.390 . S
C1169 C1168 1.387 . S
C1169 C1171 1.387 . S
H1170 C1177 0.950 . S
C1171 C1169 1.387 . S
C1171 C1173 1.390 . S
C1171 H1175 0.950 . S
H1172 C1168 0.950 . S
C1173 C1171 1.390 . S
C1173 C1174 1.387 . S
C1173 H1176 0.950 . S
C1174 C1173 1.387 . S
C1174 C1177 1.387 . S
H1175 C1171 0.950 . S
H1176 C1173 0.950 . S
C1177 C1168 1.390 . S
C1177 H1170 0.950 . S
C1177 C1174 1.387 . S
C1178 C1179 1.387 . S
C1178 H1182 0.950 . S
C1178 C1187 1.390 . S
C1179 C1178 1.387 . S
C1179 C1181 1.387 . S
H1180 C1187 0.950 . S
C1181 C1179 1.387 . S
C1181 C1183 1.390 . S
C1181 H1185 0.950 . S
H1182 C1178 0.950 . S
C1183 C1181 1.390 . S
C1183 C1184 1.387 . S
C1183 H1186 0.950 . S
C1184 C1183 1.387 . S
C1184 C1187 1.387 . S
H1185 C1181 0.950 . S
H1186 C1183 0.950 . S
C1187 C1178 1.390 . S
C1187 H1180 0.950 . S
C1187 C1184 1.387 . S
C469 C10 1.284 . S
C474 C153 1.282 . S
C479 C127 1.282 . S
C484 C23 1.284 . S
C489 C140 1.282 . S
C494 C36 1.284 . S
C499 C49 1.282 . S
C504 C101 1.284 . S
C509 C62 1.282 . S
C514 C114 1.284 . S
C519 C75 1.283 . S
C524 C88 1.283 . S
C529 C166 1.282 . S
C534 C309 1.283 . S
C539 C283 1.282 . S
C544 C179 1.284 . S
C549 C192 1.282 . S
C554 C296 1.284 . S
C559 C205 1.282 . S
C564 C257 1.284 . S
C569 C218 1.284 . S
C574 C270 1.282 . S
C579 C231 1.284 . S
C584 C244 1.282 . S
C589 C322 1.284 . S
C594 C465 1.282 . S
C599 C335 1.284 . S
C604 C439 1.282 . S
C609 C452 1.282 . S
C614 C348 1.284 . S
C619 C361 1.282 . S
C624 C413 1.284 . S
C629 C426 1.282 . S
C634 C374 1.284 . S
C639 C400 1.284 . S
C644 C387 1.282 . S
C649 C0 1.274 . S
C654 C195 1.274 . S
C659 C13 1.274 . S
C664 C208 1.274 . S
C669 C26 1.274 . S
C674 C221 1.274 . S
C679 C39 1.274 . S
C684 C312 1.274 . S
C689 C325 1.276 . S
C694 C52 1.276 . S
C699 C338 1.275 . S
C704 C65 1.274 . S
C709 C78 1.274 . S
C714 C429 1.274 . S
C719 C442 1.274 . S
C724 C91 1.274 . S
C729 C104 1.276 . S
C734 C455 1.276 . S
C739 C117 1.274 . S
C744 C234 1.274 . S
C749 C130 1.276 . S
C754 C247 1.276 . S
C759 C143 1.275 . S
C764 C260 1.275 . S
C769 C351 1.276 . S
C774 C156 1.276 . S
C779 C169 1.276 . S
C784 C364 1.276 1_545 S
C789 C182 1.274 1_455 S
C794 C377 1.274 . S
C799 C390 1.276 . S
C804 C273 1.276 . S
C809 C403 1.276 1_545 S
C814 C286 1.276 . S
C819 C299 1.276 1_455 S
C824 C416 1.276 . S
C829 C5 1.414 . S
C834 C57 1.412 . S
C839 C70 1.412 . S
C844 C18 1.414 . S
C849 C44 1.413 . S
C854 C31 1.413 . S
C859 C83 1.412 . S
C864 C135 1.414 . S
C869 C148 1.412 . S
C874 C96 1.414 . S
C879 C109 1.413 . S
C884 C122 1.413 . S
C889 C213 1.413 . S
C894 C161 1.413 . S
C899 C174 1.414 . S
C904 C226 1.412 . S
C909 C187 1.413 . S
C914 C200 1.413 . S
C919 C291 1.414 . S
C924 C239 1.411 . S
C929 C304 1.414 . S
C934 C252 1.412 . S
C939 C278 1.413 . S
C944 C265 1.413 . S
C949 C317 1.412 . S
C954 C369 1.414 . S
C959 C330 1.413 . S
C964 C382 1.414 . S
C969 C343 1.413 . S
C974 C356 1.413 . S
C979 C447 1.412 . S
C984 C395 1.414 . S
C989 C460 1.414 . S
C994 C408 1.412 . S
C999 C434 1.413 . S
C1004 C421 1.413 . S
C1009 C125 1.411 . S
C1014 C8 1.411 . S
C1019 C138 1.410 . S
C1024 C21 1.412 . S
C1029 C34 1.411 . S
C1034 C151 1.411 . S
C1039 C47 1.411 . S
C1044 C86 1.411 . S
C1049 C99 1.413 . S
C1054 C60 1.409 . S
C1059 C73 1.411 . S
C1064 C112 1.411 . S
C1069 C281 1.411 . S
C1074 C164 1.411 . S
C1079 C294 1.413 . S
C1084 C177 1.410 . S
C1089 C190 1.411 . S
C1094 C307 1.411 . S
C1099 C242 1.411 . S
C1104 C203 1.411 . S
C1109 C255 1.410 . S
C1114 C216 1.413 . S
C1119 C268 1.411 . S
C1124 C229 1.411 . S
C1129 C320 1.411 . S
C1134 C437 1.411 . S
C1139 C450 1.410 . S
C1144 C333 1.413 . S
C1149 C346 1.411 . S
C1154 C463 1.412 . S
C1159 C359 1.411 . S
C1164 C398 1.411 . S
C1169 C372 1.410 . S
C1174 C411 1.413 . S
C1179 C424 1.411 . S
C1184 C385 1.411 . S
