# Generated by pormake.
# Topology vme, (6)-cn, num edge types: 1
# Building blocks:
#     Node 0, Type 0, BuildingBlock: MIDCAF_clean_sbu_0, # of connection points: 6
#     Node 1, Type 0, BuildingBlock: MIDCAF_clean_sbu_0, # of connection points: 6
#     Node 2, Type 0, BuildingBlock: MIDCAF_clean_sbu_0, # of connection points: 6
#     Node 3, Type 0, BuildingBlock: MIDCAF_clean_sbu_0, # of connection points: 6
#     Edge 4, Type (0, 0), BuildingBlock: FUNLAD_clean_linker_0, # of connection points: 2
#     Edge 5, Type (0, 0), BuildingBlock: FUNLAD_clean_linker_0, # of connection points: 2
#     Edge 6, Type (0, 0), BuildingBlock: FUNLAD_clean_linker_0, # of connection points: 2
#     Edge 7, Type (0, 0), BuildingBlock: FUNLAD_clean_linker_0, # of connection points: 2
#     Edge 8, Type (0, 0), BuildingBlock: FUNLAD_clean_linker_0, # of connection points: 2
#     Edge 9, Type (0, 0), BuildingBlock: FUNLAD_clean_linker_0, # of connection points: 2
#     Edge 10, Type (0, 0), BuildingBlock: FUNLAD_clean_linker_0, # of connection points: 2
#     Edge 11, Type (0, 0), BuildingBlock: FUNLAD_clean_linker_0, # of connection points: 2
#     Edge 12, Type (0, 0), BuildingBlock: FUNLAD_clean_linker_0, # of connection points: 2
#     Edge 13, Type (0, 0), BuildingBlock: FUNLAD_clean_linker_0, # of connection points: 2
#     Edge 14, Type (0, 0), BuildingBlock: FUNLAD_clean_linker_0, # of connection points: 2
#     Edge 15, Type (0, 0), BuildingBlock: FUNLAD_clean_linker_0, # of connection points: 2
# Relax obj value: 0.251
# Max RMSD: 0.207
# Mean RMSD: 0.207
data_MOF--net-vme--node1-MIDCAF_clean_sbu_0--edge1-FUNLAD_clean_linker_0
_symmetry_space_group_name_H-M    P1
_symmetry_Int_Tables_number       1
_symmetry_cell_setting            triclinic
loop_
_symmetry_equiv_pos_as_xyz
'x, y, z'
_cell_length_a     27.274489
_cell_length_b     29.087627
_cell_length_c     30.910111
_cell_angle_alpha  89.749977
_cell_angle_beta   105.41727
_cell_angle_gamma 90.011473
loop_
_atom_site_label
_atom_site_type_symbol
_atom_site_fract_x
_atom_site_fract_y
_atom_site_fract_z
_atom_type_partial_charge
Zn0 Zn 0.20582 0.43367 0.28809 0.0
Zn1 Zn 0.17124 0.30875 0.39109 0.0
Zn2 Zn 0.1839 0.37583 0.34601 0.0
C3 C 0.25926 0.33662 0.43863 0.0
C4 C 0.14128 0.27283 0.31039 0.0
O5 O 0.1262 0.43121 0.33418 0.0
O6 O 0.14229 0.47095 0.27825 0.0
C7 C 0.28486 0.4354 0.36954 0.0
O8 O 0.24173 0.37083 0.41239 0.0
O9 O 0.24102 0.29712 0.42832 0.0
O10 O 0.13929 0.26088 0.34906 0.0
O11 O 0.16016 0.31229 0.30421 0.0
O12 O 0.26957 0.45515 0.33182 0.0
O13 O 0.25806 0.40352 0.38093 0.0
O14 O 0.19517 0.33775 0.28678 0.0
O15 O 0.2161 0.38972 0.24249 0.0
C16 C 0.21003 0.3481 0.25159 0.0
O17 O 0.11744 0.39834 0.36588 0.0
O18 O 0.12568 0.34588 0.41921 0.0
C19 C 0.11563 0.46435 0.30546 0.0
C20 C 0.1047 0.38207 0.40008 0.0
Zn21 Zn 0.86907 0.84831 0.10951 0.0
Zn22 Zn 0.72325 0.97144 0.1977 0.0
Zn23 Zn 0.80661 0.8843 0.14321 0.0
C24 C 0.77363 0.86645 0.22592 0.0
C25 C 0.70518 0.90963 0.11697 0.0
O26 O 0.86003 0.93665 0.13509 0.0
O27 O 0.92285 0.89553 0.12317 0.0
C28 C 0.86265 0.78902 0.17754 0.0
O29 O 0.80157 0.8489 0.20287 0.0
O30 O 0.75463 0.90617 0.21517 0.0
O31 O 0.72639 0.92081 0.15682 0.0
O32 O 0.73153 0.88384 0.09881 0.0
O33 O 0.87922 0.78977 0.14314 0.0
O34 O 0.83663 0.82315 0.18608 0.0
O35 O 0.76192 0.86441 0.07566 0.0
O36 O 0.82532 0.84807 0.04636 0.0
C37 C 0.77835 0.85394 0.04171 0.0
O38 O 0.82689 0.9588 0.16313 0.0
O39 O 0.78166 0.01134 0.19096 0.0
C40 C 0.9039 0.93431 0.12729 0.0
C41 C 0.82064 0.99972 0.17786 0.0
Zn42 Zn 0.76722 0.54878 0.69257 0.0
Zn43 Zn 0.82125 0.74419 0.58272 0.0
Zn44 Zn 0.80714 0.6119 0.64744 0.0
C45 C 0.74563 0.67217 0.5714 0.0
C46 C 0.83957 0.70769 0.67706 0.0
O47 O 0.8589 0.55439 0.65816 0.0
O48 O 0.83183 0.51252 0.70677 0.0
C49 C 0.69889 0.56082 0.60917 0.0
O50 O 0.75191 0.6298 0.58351 0.0
O51 O 0.76701 0.70192 0.60051 0.0
O52 O 0.80976 0.71281 0.63823 0.0
O53 O 0.8365 0.66894 0.69603 0.0
O54 O 0.70845 0.533 0.64183 0.0
O55 O 0.73037 0.59303 0.60706 0.0
O56 O 0.79758 0.64215 0.70971 0.0
O57 O 0.75195 0.59207 0.73668 0.0
C58 C 0.77229 0.63114 0.73786 0.0
O59 O 0.84354 0.6441 0.59943 0.0
O60 O 0.86458 0.69849 0.55704 0.0
C61 C 0.86448 0.52032 0.68525 0.0
C62 C 0.86662 0.65647 0.57011 0.0
Zn63 Zn 0.15023 0.17557 0.87774 0.0
Zn64 Zn 0.23845 0.06588 0.79574 0.0
Zn65 Zn 0.19803 0.11962 0.84192 0.0
C66 C 0.24144 0.15212 0.75937 0.0
C67 C 0.30186 0.06743 0.88402 0.0
O68 O 0.12975 0.08475 0.85151 0.0
O69 O 0.08654 0.14137 0.87149 0.0
C70 C 0.15772 0.22432 0.80714 0.0
O71 O 0.21168 0.15962 0.78476 0.0
O72 O 0.26134 0.11305 0.75904 0.0
O73 O 0.29175 0.04339 0.84879 0.0
O74 O 0.27272 0.10135 0.88736 0.0
O75 O 0.146 0.23203 0.84315 0.0
O76 O 0.17627 0.18482 0.80052 0.0
O77 O 0.24798 0.13142 0.91046 0.0
O78 O 0.19734 0.17523 0.938 0.0
C79 C 0.2386 0.15372 0.94324 0.0
O80 O 0.15105 0.05592 0.82314 0.0
O81 O 0.17972 0.02474 0.76947 0.0
C82 C 0.09049 0.09937 0.86315 0.0
C83 C 0.14819 0.02483 0.79288 0.0
C84 C 0.91135 0.02542 0.19543 0.0
C85 C 0.85941 0.03542 0.17905 0.0
C86 C 0.94776 0.05994 0.19821 0.0
C87 C 0.93276 0.10542 0.18507 0.0
C88 C 0.88066 0.11522 0.16891 0.0
C89 C 0.84437 0.08063 0.1659 0.0
C90 C 0.96953 0.14429 0.19274 0.0
C91 C 0.01993 0.13918 0.19819 0.0
C92 C 0.05687 0.17572 0.21842 0.0
C93 C 0.10239 0.16251 0.24929 0.0
C94 C 0.13276 0.19515 0.2769 0.0
C95 C 0.11904 0.24174 0.27299 0.0
H96 H 0.01136 0.23429 0.18727 0.0
C97 C 0.0767 0.25578 0.23875 0.0
C98 C 0.0455 0.22291 0.21174 0.0
H99 H 0.06535 0.29159 0.23542 0.0
H100 H 0.92378 0.99112 0.20717 0.0
H101 H 0.98725 0.05105 0.21252 0.0
H102 H 0.86789 0.14997 0.15928 0.0
H103 H 0.80443 0.08931 0.15357 0.0
H104 H 0.95459 0.178 0.1974 0.0
H105 H 0.03526 0.10562 0.19381 0.0
H106 H 0.11233 0.12648 0.25472 0.0
H107 H 0.16529 0.18368 0.30322 0.0
C108 C 0.03931 0.50792 0.26403 0.0
C109 C 0.07422 0.49695 0.3049 0.0
C110 C 0.00481 0.54391 0.26139 0.0
C111 C 0.00495 0.57019 0.29961 0.0
C112 C 0.03942 0.55863 0.34074 0.0
C113 C 0.0736 0.52206 0.34345 0.0
C114 C 0.97435 0.61313 0.29545 0.0
C115 C 0.92914 0.61761 0.26474 0.0
C116 C 0.90528 0.66251 0.24774 0.0
C117 C 0.87218 0.6633 0.20436 0.0
C118 C 0.85567 0.70487 0.1829 0.0
C119 C 0.87078 0.74669 0.20469 0.0
H120 H 0.94232 0.70534 0.30465 0.0
C121 C 0.90064 0.74636 0.24931 0.0
C122 C 0.9179 0.70448 0.2708 0.0
H123 H 0.91298 0.77839 0.26653 0.0
H124 H 0.0399 0.4896 0.23371 0.0
H125 H 0.98018 0.55271 0.22876 0.0
H126 H 0.04086 0.57871 0.37049 0.0
H127 H 0.10107 0.51475 0.37514 0.0
H128 H 0.99206 0.6424 0.31513 0.0
H129 H 0.91201 0.58711 0.2467 0.0
H130 H 0.86157 0.6317 0.18576 0.0
H131 H 0.83293 0.7044 0.14832 0.0
C132 C 0.08505 0.97303 0.74269 0.0
C133 C 0.10998 0.98763 0.7862 0.0
C134 C 0.0517 0.93558 0.73613 0.0
C135 C 0.04306 0.91149 0.77306 0.0
C136 C 0.06778 0.9264 0.81654 0.0
C137 C 0.1015 0.96362 0.82299 0.0
C138 C 0.00743 0.8717 0.7671 0.0
C139 C -0.00022 0.84313 0.73164 0.0
C140 C 0.96104 0.80563 0.72104 0.0
C141 C 0.95073 0.78563 0.6783 0.0
C142 C 0.91223 0.75302 0.66476 0.0
C143 C 0.88319 0.73905 0.69368 0.0
H144 H 0.94025 0.80388 0.78442 0.0
C145 C 0.89468 0.75728 0.73718 0.0
C146 C 0.9332 0.7903 0.75085 0.0
H147 H 0.87267 0.74752 0.76003 0.0
H148 H 0.09137 0.99065 0.71369 0.0
H149 H 0.03232 0.92604 0.70207 0.0
H150 H 0.06211 0.90842 0.8456 0.0
H151 H 0.12275 0.97223 0.85664 0.0
H152 H 0.98753 0.86631 0.79273 0.0
H153 H 0.02201 0.84851 0.70764 0.0
H154 H 0.97174 0.79609 0.65468 0.0
H155 H 0.90517 0.7389 0.63145 0.0
C156 C 0.93508 0.48001 0.66175 0.0
C157 C 0.91059 0.49134 0.69493 0.0
C158 C 0.97777 0.45091 0.67202 0.0
C159 C 0.99687 0.43354 0.71588 0.0
C160 C 0.97286 0.44589 0.74899 0.0
C161 C 0.92995 0.47394 0.73857 0.0
C162 C 0.04168 0.40266 0.72925 0.0
C163 C 0.05356 0.37056 0.70236 0.0
C164 C 0.09059 0.33345 0.72157 0.0
C165 C 0.07931 0.28791 0.70742 0.0
C166 C 0.10577 0.25128 0.73278 0.0
C167 C 0.14434 0.25989 0.7721 0.0
H168 H 0.14377 0.37665 0.76897 0.0
C169 C 0.15928 0.30537 0.78337 0.0
C170 C 0.13304 0.34188 0.75805 0.0
H171 H 0.18867 0.31274 0.81381 0.0
H172 H 0.9205 0.49267 0.62781 0.0
H173 H 0.99593 0.44246 0.6459 0.0
H174 H 0.98682 0.43311 0.78305 0.0
H175 H 0.91208 0.48234 0.76494 0.0
H176 H 0.06171 0.40246 0.76472 0.0
H177 H 0.03038 0.36715 0.66802 0.0
H178 H 0.04707 0.28052 0.6792 0.0
H179 H 0.09306 0.21643 0.72395 0.0
C180 C 0.90941 0.58102 0.56675 0.0
C181 C 0.88788 0.62175 0.54565 0.0
C182 C 0.92875 0.54808 0.54285 0.0
C183 C 0.92673 0.55539 0.4973 0.0
C184 C 0.90402 0.59571 0.4761 0.0
C185 C 0.88522 0.62876 0.50009 0.0
C186 C 0.94798 0.52207 0.4708 0.0
C187 C 0.98742 0.49427 0.48956 0.0
C188 C 0.013 0.46327 0.46415 0.0
C189 C 0.04919 0.43217 0.48883 0.0
C190 C 0.07751 0.40475 0.46756 0.0
C191 C 0.07056 0.40792 0.42097 0.0
H192 H 0.97759 0.48872 0.39645 0.0
C193 C 0.03311 0.43752 0.39579 0.0
C194 C 0.0047 0.46524 0.4171 0.0
H195 H 0.02618 0.43958 0.3597 0.0
H196 H 0.91196 0.57502 0.60182 0.0
H197 H 0.94471 0.51687 0.56005 0.0
H198 H 0.90148 0.60201 0.44099 0.0
H199 H 0.86794 0.65957 0.48276 0.0
H200 H 0.93213 0.52272 0.43473 0.0
H201 H 0.00342 0.49516 0.52569 0.0
H202 H 0.05647 0.42973 0.52499 0.0
H203 H 0.1062 0.3822 0.48795 0.0
C204 C 0.97553 0.97289 0.10679 0.0
C205 C 0.92471 0.9742 0.10864 0.0
C206 C 0.99039 0.99724 0.07351 0.0
C207 C 0.95464 0.02333 0.0418 0.0
C208 C 0.90612 0.03034 0.04794 0.0
C209 C 0.89107 0.00571 0.08119 0.0
C210 C 0.96611 0.03923 9e-05 0.0
C211 C 0.98983 0.01119 0.9775 0.0
C212 C 0.00889 0.02682 0.93947 0.0
C213 C 0.05619 0.01029 0.93666 0.0
C214 C 0.08094 0.03108 0.90769 0.0
C215 C 0.05782 0.06737 0.87963 0.0
H216 H 0.94651 0.07297 0.90949 0.0
C217 C 0.00804 0.08054 0.87897 0.0
C218 C 0.98372 0.06052 0.90886 0.0
H219 H 0.98972 0.10893 0.85803 0.0
H220 H 0.00239 0.94941 0.12801 0.0
H221 H 0.02883 0.99298 0.07057 0.0
H222 H 0.87841 0.05127 0.02443 0.0
H223 H 0.85162 0.0075 0.08188 0.0
H224 H 0.9544 0.07362 0.98779 0.0
H225 H 0.00061 0.97674 0.99039 0.0
H226 H 0.07622 0.98428 0.95993 0.0
H227 H 0.12031 0.02221 0.91107 0.0
C228 C 0.26489 0.1302 0.02257 0.0
C229 C 0.27467 0.15645 0.98764 0.0
C230 C 0.27894 0.14665 0.06661 0.0
C231 C 0.30224 0.19004 0.07592 0.0
C232 C 0.31864 0.21258 0.04195 0.0
C233 C 0.30461 0.19607 -0.002 0.0
C234 C 0.3021 0.21665 0.11694 0.0
C235 C 0.26898 0.20878 0.14174 0.0
C236 C 0.25595 0.24463 0.17086 0.0
C237 C 0.24346 0.2321 0.21051 0.0
C238 C 0.22814 0.26548 0.23676 0.0
C239 C 0.22318 0.3118 0.22296 0.0
H240 H 0.2587 0.30149 0.12586 0.0
C241 C 0.2348 0.32399 0.18273 0.0
C242 C 0.25112 0.2909 0.15709 0.0
H243 H 0.23153 0.35929 0.17099 0.0
H244 H 0.2415 0.09962 0.01515 0.0
H245 H 0.26777 0.12703 0.09221 0.0
H246 H 0.33744 0.24566 0.04822 0.0
H247 H 0.31195 0.21714 0.97141 0.0
H248 H 0.32412 0.24828 0.1226 0.0
H249 H 0.24707 0.17726 0.13801 0.0
H250 H 0.24625 0.19655 0.2215 0.0
H251 H 0.22126 0.25503 0.26821 0.0
C252 C 0.78049 0.79666 0.27542 0.0
C253 C 0.76222 0.84138 0.26376 0.0
C254 C 0.76823 0.7731 0.31073 0.0
C255 C 0.73707 0.7939 0.33493 0.0
C256 C 0.7186 0.83847 0.32276 0.0
C257 C 0.73105 0.86193 0.28778 0.0
C258 C 0.72397 0.77198 0.37402 0.0
C259 C 0.74275 0.73163 0.39302 0.0
C260 C 0.73542 0.71532 0.4366 0.0
C261 C 0.74325 0.66864 0.44843 0.0
C262 C 0.74314 0.6534 0.49145 0.0
C263 C 0.73577 0.68483 0.52354 0.0
H264 H 0.72119 0.78265 0.4616 0.0
C265 C 0.7256 0.73099 0.51106 0.0
C266 C 0.72578 0.74619 0.46834 0.0
H267 H 0.72008 0.75601 0.53523 0.0
H268 H 0.80398 0.77969 0.25717 0.0
H269 H 0.78333 0.73885 0.31848 0.0
H270 H 0.69468 0.85557 0.34068 0.0
H271 H 0.716 0.89628 0.27955 0.0
H272 H 0.69853 0.79135 0.38877 0.0
H273 H 0.76585 0.71025 0.37762 0.0
H274 H 0.75124 0.64418 0.42485 0.0
H275 H 0.75175 0.61768 0.50028 0.0
C276 C 0.70679 0.81132 0.99171 0.0
C277 C 0.74333 0.84628 -0.00244 0.0
C278 C 0.68682 0.79245 0.94911 0.0
C279 C 0.70333 0.80874 0.91253 0.0
C280 C 0.73291 0.84893 0.91748 0.0
C281 C 0.7537 0.867 0.96 0.0
C282 C 0.6994 0.77819 0.87361 0.0
C283 C 0.74068 0.77152 0.85815 0.0
C284 C 0.74674 0.73456 0.82715 0.0
C285 C 0.79586 0.72642 0.82237 0.0
C286 C 0.80438 0.69198 0.79406 0.0
C287 C 0.76396 0.66524 0.76983 0.0
H288 H 0.66775 0.71228 0.80549 0.0
C289 C 0.71494 0.67242 0.77496 0.0
C290 C 0.7062 0.70705 0.80321 0.0
H291 H 0.68316 0.65203 0.75622 0.0
H292 H 0.6981 0.79527 0.0205 0.0
H293 H 0.66322 0.76202 0.94584 0.0
H294 H 0.7444 0.86336 0.88932 0.0
H295 H 0.78116 0.89465 0.96398 0.0
H296 H 0.6664 0.75605 0.86339 0.0
H297 H 0.77451 0.79195 0.87222 0.0
H298 H 0.82797 0.74663 0.84081 0.0
H299 H 0.84262 0.68572 0.79149 0.0
C300 C 0.22289 0.2191 0.70582 0.0
C301 C 0.25784 0.18983 0.73445 0.0
C302 C 0.2396 0.25171 0.67936 0.0
C303 C 0.29181 0.25555 0.68139 0.0
C304 C 0.32661 0.2273 0.71153 0.0
C305 C 0.30985 0.19477 0.73762 0.0
C306 C 0.31079 0.28275 0.64824 0.0
C307 C 0.28384 0.31575 0.62158 0.0
C308 C 0.29433 0.33074 0.5787 0.0
C309 C 0.26821 0.36914 0.55605 0.0
C310 C 0.26377 0.37589 0.51032 0.0
C311 C 0.28491 0.34393 0.48642 0.0
H312 H 0.34176 0.27238 0.57153 0.0
C313 C 0.31658 0.30917 0.51021 0.0
C314 C 0.32136 0.30257 0.55592 0.0
H315 H 0.33284 0.28384 0.49243 0.0
H316 H 0.18259 0.21486 0.70189 0.0
H317 H 0.2112 0.27173 0.65571 0.0
H318 H 0.36687 0.22912 0.71367 0.0
H319 H 0.33761 0.17264 0.75969 0.0
H320 H 0.34735 0.27255 0.64366 0.0
H321 H 0.24972 0.32921 0.62875 0.0
H322 H 0.24721 0.39154 0.57263 0.0
H323 H 0.2385 0.40266 0.49272 0.0
C324 C 0.37155 0.46934 0.38196 0.0
C325 C 0.334 0.44967 0.3998 0.0
C326 C 0.41773 0.48412 0.41021 0.0
C327 C 0.42707 0.4799 0.45704 0.0
C328 C 0.3896 0.45989 0.47472 0.0
C329 C 0.34349 0.44511 0.44642 0.0
C330 C 0.47556 0.49457 0.48872 0.0
C331 C 0.5084 0.52512 0.47895 0.0
C332 C 0.55619 0.53863 0.51244 0.0
C333 C 0.59876 0.55238 0.498 0.0
C334 C 0.64526 0.56166 0.52932 0.0
C335 C 0.64964 0.55695 0.57539 0.0
H336 H 0.52764 0.52962 0.57132 0.0
C337 C 0.60646 0.54581 0.58974 0.0
C338 C 0.56011 0.53741 0.55872 0.0
H339 H 0.60865 0.54325 0.6252 0.0
H340 H 0.36544 0.47295 0.34601 0.0
H341 H 0.44601 0.49803 0.39504 0.0
H342 H 0.39574 0.45617 0.51067 0.0
H343 H 0.31486 0.43125 0.46109 0.0
H344 H 0.48405 0.47938 0.52203 0.0
H345 H 0.50118 0.53989 0.44556 0.0
H346 H 0.5965 0.55442 0.46251 0.0
H347 H 0.67811 0.57048 0.51757 0.0
C348 C 0.3693 0.01163 0.92053 0.0
C349 C 0.34727 0.05526 0.92063 0.0
C350 C 0.41396 0.99993 0.95249 0.0
C351 C 0.43837 0.03175 0.98525 0.0
C352 C 0.41538 0.07474 0.98677 0.0
C353 C 0.37031 0.08658 0.95446 0.0
C354 C 0.48759 0.01997 0.01782 0.0
C355 C 0.52187 0.99302 0.00564 0.0
C356 C 0.56969 0.97457 0.03595 0.0
C357 C 0.60063 0.94736 0.01656 0.0
C358 C 0.64424 0.92631 0.04301 0.0
C359 C 0.65846 0.93211 0.08973 0.0
H360 H 0.56116 1.00102 0.09938 0.0
C361 C 0.62811 0.95977 0.10944 0.0
C362 C 0.58397 0.98076 0.08285 0.0
H363 H 0.63801 0.96471 0.14541 0.0
H364 H 0.35218 0.98631 0.89545 0.0
H365 H 0.42926 0.96573 0.95139 0.0
H366 H 0.43309 0.09965 0.01207 0.0
H367 H 0.35456 0.12059 0.95513 0.0
H368 H 0.49535 0.03409 0.05135 0.0
H369 H 0.51401 0.98288 0.97066 0.0
H370 H 0.59073 0.94177 0.98064 0.0
H371 H 0.6668 0.90546 0.02662 0.0
loop_
_geom_bond_atom_site_label_1
_geom_bond_atom_site_label_2
_geom_bond_distance
_geom_bond_site_symmetry_2
_ccdc_geom_bond_type
Zn0 O6 1.920 . S
Zn0 O12 1.898 . S
Zn0 O15 1.905 . S
Zn1 O9 1.905 . S
Zn1 O10 1.898 . S
Zn1 O18 1.920 . S
Zn2 O5 2.080 . S
Zn2 O8 2.114 . S
Zn2 O11 2.120 . S
Zn2 O13 2.120 . S
Zn2 O14 2.114 . S
Zn2 O17 2.080 . S
C3 O8 1.166 . S
C3 O9 1.182 . S
C4 O10 1.167 . S
C4 O11 1.299 . S
O5 Zn2 2.080 . S
O5 C19 1.305 . S
O6 Zn0 1.920 . S
O6 C19 1.234 . S
C7 O12 1.167 . S
C7 O13 1.299 . S
O8 Zn2 2.114 . S
O8 C3 1.166 . S
O9 Zn1 1.905 . S
O9 C3 1.182 . S
O10 Zn1 1.898 . S
O10 C4 1.167 . S
O11 Zn2 2.120 . S
O11 C4 1.299 . S
O12 Zn0 1.898 . S
O12 C7 1.167 . S
O13 Zn2 2.120 . S
O13 C7 1.299 . S
O14 Zn2 2.114 . S
O14 C16 1.166 . S
O15 Zn0 1.905 . S
O15 C16 1.182 . S
C16 O14 1.166 . S
C16 O15 1.182 . S
O17 Zn2 2.080 . S
O17 C20 1.305 . S
O18 Zn1 1.920 . S
O18 C20 1.234 . S
C19 O5 1.305 . S
C19 O6 1.234 . S
C20 O17 1.305 . S
C20 O18 1.234 . S
Zn21 O27 1.920 . S
Zn21 O33 1.898 . S
Zn21 O36 1.905 . S
Zn22 O30 1.905 . S
Zn22 O31 1.898 . S
Zn22 O39 1.920 . S
Zn23 O26 2.080 . S
Zn23 O29 2.114 . S
Zn23 O32 2.120 . S
Zn23 O34 2.120 . S
Zn23 O35 2.114 . S
Zn23 O38 2.080 . S
C24 O29 1.166 . S
C24 O30 1.182 . S
C25 O31 1.167 . S
C25 O32 1.299 . S
O26 Zn23 2.080 . S
O26 C40 1.305 . S
O27 Zn21 1.920 . S
O27 C40 1.234 . S
C28 O33 1.167 . S
C28 O34 1.299 . S
O29 Zn23 2.114 . S
O29 C24 1.166 . S
O30 Zn22 1.905 . S
O30 C24 1.182 . S
O31 Zn22 1.898 . S
O31 C25 1.167 . S
O32 Zn23 2.120 . S
O32 C25 1.299 . S
O33 Zn21 1.898 . S
O33 C28 1.167 . S
O34 Zn23 2.120 . S
O34 C28 1.299 . S
O35 Zn23 2.114 . S
O35 C37 1.166 . S
O36 Zn21 1.905 . S
O36 C37 1.182 . S
C37 O35 1.166 . S
C37 O36 1.182 . S
O38 Zn23 2.080 . S
O38 C41 1.305 . S
O39 Zn22 1.920 . S
O39 C41 1.234 . S
C40 O26 1.305 . S
C40 O27 1.234 . S
C41 O38 1.305 . S
C41 O39 1.234 . S
Zn42 O48 1.920 . S
Zn42 O54 1.898 . S
Zn42 O57 1.905 . S
Zn43 O51 1.905 . S
Zn43 O52 1.898 . S
Zn43 O60 1.920 . S
Zn44 O47 2.080 . S
Zn44 O50 2.114 . S
Zn44 O53 2.120 . S
Zn44 O55 2.120 . S
Zn44 O56 2.114 . S
Zn44 O59 2.080 . S
C45 O50 1.166 . S
C45 O51 1.182 . S
C46 O52 1.167 . S
C46 O53 1.299 . S
O47 Zn44 2.080 . S
O47 C61 1.305 . S
O48 Zn42 1.920 . S
O48 C61 1.234 . S
C49 O54 1.167 . S
C49 O55 1.299 . S
O50 Zn44 2.114 . S
O50 C45 1.166 . S
O51 Zn43 1.905 . S
O51 C45 1.182 . S
O52 Zn43 1.898 . S
O52 C46 1.167 . S
O53 Zn44 2.120 . S
O53 C46 1.299 . S
O54 Zn42 1.898 . S
O54 C49 1.167 . S
O55 Zn44 2.120 . S
O55 C49 1.299 . S
O56 Zn44 2.114 . S
O56 C58 1.166 . S
O57 Zn42 1.905 . S
O57 C58 1.182 . S
C58 O56 1.166 . S
C58 O57 1.182 . S
O59 Zn44 2.080 . S
O59 C62 1.305 . S
O60 Zn43 1.920 . S
O60 C62 1.234 . S
C61 O47 1.305 . S
C61 O48 1.234 . S
C62 O59 1.305 . S
C62 O60 1.234 . S
Zn63 O69 1.920 . S
Zn63 O75 1.898 . S
Zn63 O78 1.905 . S
Zn64 O72 1.905 . S
Zn64 O73 1.898 . S
Zn64 O81 1.920 . S
Zn65 O68 2.080 . S
Zn65 O71 2.114 . S
Zn65 O74 2.120 . S
Zn65 O76 2.120 . S
Zn65 O77 2.114 . S
Zn65 O80 2.080 . S
C66 O71 1.166 . S
C66 O72 1.182 . S
C67 O73 1.167 . S
C67 O74 1.299 . S
O68 Zn65 2.080 . S
O68 C82 1.305 . S
O69 Zn63 1.920 . S
O69 C82 1.234 . S
C70 O75 1.167 . S
C70 O76 1.299 . S
O71 Zn65 2.114 . S
O71 C66 1.166 . S
O72 Zn64 1.905 . S
O72 C66 1.182 . S
O73 Zn64 1.898 . S
O73 C67 1.167 . S
O74 Zn65 2.120 . S
O74 C67 1.299 . S
O75 Zn63 1.898 . S
O75 C70 1.167 . S
O76 Zn65 2.120 . S
O76 C70 1.299 . S
O77 Zn65 2.114 . S
O77 C79 1.166 . S
O78 Zn63 1.905 . S
O78 C79 1.182 . S
C79 O77 1.166 . S
C79 O78 1.182 . S
O80 Zn65 2.080 . S
O80 C83 1.305 . S
O81 Zn64 1.920 . S
O81 C83 1.234 . S
C82 O68 1.305 . S
C82 O69 1.234 . S
C83 O80 1.305 . S
C83 O81 1.234 . S
C84 C85 1.386 . S
C84 C86 1.383 . S
C84 H100 0.951 1_545 S
C85 C84 1.386 . S
C85 C89 1.383 . S
C86 C84 1.383 . S
C86 C87 1.402 . S
C86 H101 0.951 . S
C87 C86 1.402 . S
C87 C88 1.375 . S
C87 C90 1.481 . S
C88 C87 1.375 . S
C88 C89 1.367 . S
C88 H102 0.951 . S
C89 C85 1.383 . S
C89 C88 1.367 . S
C89 H103 0.950 . S
C90 C87 1.481 . S
C90 C91 1.297 . S
C90 H104 0.950 . S
C91 C90 1.297 . S
C91 C92 1.479 1_655 S
C91 H105 0.950 1_655 S
C92 C91 1.479 1_455 S
C92 C93 1.375 . S
C92 C98 1.414 . S
C93 C92 1.375 . S
C93 C94 1.369 . S
C93 H106 0.950 . S
C94 C93 1.369 . S
C94 C95 1.392 . S
C94 H107 0.951 . S
C95 C94 1.392 . S
C95 C97 1.384 . S
H96 C98 0.931 1_655 S
C97 C95 1.384 . S
C97 C98 1.393 . S
C97 H99 0.950 . S
C98 C92 1.414 . S
C98 H96 0.931 1_455 S
C98 C97 1.393 . S
H99 C97 0.950 . S
H100 C84 0.951 1_565 S
H101 C86 0.951 . S
H102 C88 0.951 . S
H103 C89 0.950 . S
H104 C90 0.950 . S
H105 C91 0.950 1_455 S
H106 C93 0.950 . S
H107 C94 0.951 . S
C108 C109 1.386 . S
C108 C110 1.383 . S
C108 H124 0.951 . S
C109 C108 1.386 . S
C109 C113 1.383 . S
C110 C108 1.383 . S
C110 C111 1.402 . S
C110 H125 0.951 . S
C111 C110 1.402 . S
C111 C112 1.375 . S
C111 C114 1.481 . S
C112 C111 1.375 . S
C112 C113 1.367 . S
C112 H126 0.951 . S
C113 C109 1.383 . S
C113 C112 1.367 . S
C113 H127 0.950 . S
C114 C111 1.481 . S
C114 C115 1.297 1_455 S
C114 H128 0.950 . S
C115 C114 1.297 1_655 S
C115 C116 1.479 . S
C115 H129 0.950 . S
C116 C115 1.479 . S
C116 C117 1.375 . S
C116 C122 1.404 . S
C117 C116 1.375 . S
C117 C118 1.369 . S
C117 H130 0.950 . S
C118 C117 1.369 . S
C118 C119 1.392 . S
C118 H131 0.951 . S
C119 C118 1.392 . S
C119 C121 1.384 . S
H120 C122 0.949 . S
C121 C119 1.384 . S
C121 C122 1.385 . S
C121 H123 0.950 . S
C122 C116 1.404 . S
C122 H120 0.949 . S
C122 C121 1.385 . S
H123 C121 0.950 . S
H124 C108 0.951 . S
H125 C110 0.951 . S
H126 C112 0.951 . S
H127 C113 0.950 . S
H128 C114 0.950 . S
H129 C115 0.950 . S
H130 C117 0.950 . S
H131 C118 0.951 . S
C132 C133 1.386 . S
C132 C134 1.383 . S
C132 H148 0.951 . S
C133 C132 1.386 . S
C133 C137 1.383 . S
C134 C132 1.383 . S
C134 C135 1.402 . S
C134 H149 0.951 . S
C135 C134 1.402 . S
C135 C136 1.375 . S
C135 C138 1.481 . S
C136 C135 1.375 . S
C136 C137 1.367 . S
C136 H150 0.951 . S
C137 C133 1.383 . S
C137 C136 1.367 . S
C137 H151 0.950 . S
C138 C135 1.481 . S
C138 C139 1.297 . S
C138 H152 0.950 . S
C139 C138 1.297 . S
C139 C140 1.472 1_455 S
C139 H153 0.950 . S
C140 C139 1.472 1_655 S
C140 C141 1.374 . S
C140 C146 1.413 . S
C141 C140 1.374 . S
C141 C142 1.369 . S
C141 H154 0.950 1_655 S
C142 C141 1.369 . S
C142 C143 1.392 . S
C142 H155 0.951 . S
C143 C142 1.392 . S
C143 C145 1.384 . S
H144 C146 0.949 . S
C145 C143 1.384 . S
C145 C146 1.385 . S
C145 H147 0.950 . S
C146 C140 1.413 . S
C146 H144 0.949 . S
C146 C145 1.385 . S
H147 C145 0.950 . S
H148 C132 0.951 . S
H149 C134 0.951 . S
H150 C136 0.951 . S
H151 C137 0.950 . S
H152 C138 0.950 . S
H153 C139 0.950 . S
H154 C141 0.950 1_455 S
H155 C142 0.951 . S
C156 C157 1.386 . S
C156 C158 1.383 . S
C156 H172 0.951 . S
C157 C156 1.386 . S
C157 C161 1.383 . S
C158 C156 1.383 . S
C158 C159 1.402 . S
C158 H173 0.951 . S
C159 C158 1.402 . S
C159 C160 1.375 . S
C159 C162 1.481 . S
C160 C159 1.375 . S
C160 C161 1.367 . S
C160 H174 0.951 . S
C161 C157 1.383 . S
C161 C160 1.367 . S
C161 H175 0.950 . S
C162 C159 1.481 . S
C162 C163 1.297 1_655 S
C162 H176 0.950 . S
C163 C162 1.297 1_455 S
C163 C164 1.479 . S
C163 H177 0.950 1_455 S
C164 C163 1.479 . S
C164 C165 1.375 . S
C164 C170 1.404 . S
C165 C164 1.375 . S
C165 C166 1.369 . S
C165 H178 0.950 . S
C166 C165 1.369 . S
C166 C167 1.392 . S
C166 H179 0.951 . S
C167 C166 1.392 . S
C167 C169 1.384 . S
H168 C170 0.949 . S
C169 C167 1.384 . S
C169 C170 1.385 . S
C169 H171 0.950 . S
C170 C164 1.404 . S
C170 H168 0.949 . S
C170 C169 1.385 . S
H171 C169 0.950 . S
H172 C156 0.951 . S
H173 C158 0.951 . S
H174 C160 0.951 . S
H175 C161 0.950 . S
H176 C162 0.950 . S
H177 C163 0.950 1_655 S
H178 C165 0.950 . S
H179 C166 0.951 . S
C180 C181 1.386 . S
C180 C182 1.383 . S
C180 H196 0.951 . S
C181 C180 1.386 . S
C181 C185 1.383 . S
C182 C180 1.383 . S
C182 C183 1.402 . S
C182 H197 0.951 . S
C183 C182 1.402 . S
C183 C184 1.375 . S
C183 C186 1.481 . S
C184 C183 1.375 . S
C184 C185 1.367 . S
C184 H198 0.951 . S
C185 C181 1.383 . S
C185 C184 1.367 . S
C185 H199 0.950 . S
C186 C183 1.481 . S
C186 C187 1.297 1_655 S
C186 H200 0.950 . S
C187 C186 1.297 1_455 S
C187 C188 1.479 . S
C187 H201 0.950 . S
C188 C187 1.479 . S
C188 C189 1.375 . S
C188 C194 1.404 . S
C189 C188 1.375 . S
C189 C190 1.369 . S
C189 H202 0.950 . S
C190 C189 1.369 . S
C190 C191 1.392 . S
C190 H203 0.951 . S
C191 C190 1.392 . S
C191 C193 1.384 . S
H192 C194 0.949 1_655 S
C193 C191 1.384 . S
C193 C194 1.385 . S
C193 H195 0.950 . S
C194 C188 1.404 . S
C194 H192 0.949 1_455 S
C194 C193 1.385 . S
H195 C193 0.950 . S
H196 C180 0.951 . S
H197 C182 0.951 . S
H198 C184 0.951 . S
H199 C185 0.950 . S
H200 C186 0.950 . S
H201 C187 0.950 . S
H202 C189 0.950 . S
H203 C190 0.951 . S
C204 C205 1.386 . S
C204 C206 1.383 . S
C204 H220 0.951 . S
C205 C204 1.386 . S
C205 C209 1.383 . S
C206 C204 1.383 . S
C206 C207 1.402 . S
C206 H221 0.951 . S
C207 C206 1.402 . S
C207 C208 1.375 . S
C207 C210 1.479 1_564 S
C208 C207 1.375 . S
C208 C209 1.367 . S
C208 H222 0.951 1_564 S
C209 C205 1.383 . S
C209 C208 1.367 . S
C209 H223 0.950 . S
C210 C207 1.479 1_546 S
C210 C211 1.295 1_645 S
C210 H224 0.954 . S
C211 C210 1.295 1_465 S
C211 C212 1.479 1_565 S
C211 H225 0.950 . S
C212 C211 1.479 1_545 S
C212 C213 1.375 1_545 S
C212 C218 1.404 . S
C213 C212 1.375 1_565 S
C213 C214 1.369 1_565 S
C213 H226 0.950 . S
C214 C213 1.369 1_545 S
C214 C215 1.392 . S
C214 H227 0.951 . S
C215 C214 1.392 . S
C215 C217 1.384 . S
H216 C218 0.949 1_655 S
C217 C215 1.384 . S
C217 C218 1.385 . S
C217 H219 0.950 . S
C218 C212 1.404 . S
C218 H216 0.949 1_455 S
C218 C217 1.385 . S
H219 C217 0.950 . S
H220 C204 0.951 . S
H221 C206 0.951 . S
H222 C208 0.951 1_546 S
H223 C209 0.950 . S
H224 C210 0.954 . S
H225 C211 0.950 . S
H226 C213 0.950 . S
H227 C214 0.951 . S
C228 C229 1.386 1_554 S
C228 C230 1.383 . S
C228 H244 0.951 . S
C229 C228 1.386 1_556 S
C229 C233 1.383 . S
C230 C228 1.383 . S
C230 C231 1.402 . S
C230 H245 0.951 . S
C231 C230 1.402 . S
C231 C232 1.375 . S
C231 C234 1.481 . S
C232 C231 1.375 . S
C232 C233 1.367 1_554 S
C232 H246 0.951 . S
C233 C229 1.383 . S
C233 C232 1.367 1_556 S
C233 H247 0.950 . S
C234 C231 1.481 . S
C234 C235 1.297 . S
C234 H248 0.950 . S
C235 C234 1.297 . S
C235 C236 1.479 . S
C235 H249 0.950 . S
C236 C235 1.479 . S
C236 C237 1.375 . S
C236 C242 1.404 . S
C237 C236 1.375 . S
C237 C238 1.369 . S
C237 H250 0.950 . S
C238 C237 1.369 . S
C238 C239 1.392 . S
C238 H251 0.951 . S
C239 C238 1.392 . S
C239 C241 1.384 . S
H240 C242 0.949 . S
C241 C239 1.384 . S
C241 C242 1.385 . S
C241 H243 0.950 . S
C242 C236 1.404 . S
C242 H240 0.949 . S
C242 C241 1.385 . S
H243 C241 0.950 . S
H244 C228 0.951 . S
H245 C230 0.951 . S
H246 C232 0.951 . S
H247 C233 0.950 . S
H248 C234 0.950 . S
H249 C235 0.950 . S
H250 C237 0.950 . S
H251 C238 0.951 . S
C252 C253 1.386 . S
C252 C254 1.383 . S
C252 H268 0.951 . S
C253 C252 1.386 . S
C253 C257 1.383 . S
C254 C252 1.383 . S
C254 C255 1.402 . S
C254 H269 0.951 . S
C255 C254 1.402 . S
C255 C256 1.375 . S
C255 C258 1.481 . S
C256 C255 1.375 . S
C256 C257 1.367 . S
C256 H270 0.951 . S
C257 C253 1.383 . S
C257 C256 1.367 . S
C257 H271 0.950 . S
C258 C255 1.481 . S
C258 C259 1.297 . S
C258 H272 0.950 . S
C259 C258 1.297 . S
C259 C260 1.479 . S
C259 H273 0.950 . S
C260 C259 1.479 . S
C260 C261 1.375 . S
C260 C266 1.404 . S
C261 C260 1.375 . S
C261 C262 1.369 . S
C261 H274 0.950 . S
C262 C261 1.369 . S
C262 C263 1.392 . S
C262 H275 0.951 . S
C263 C262 1.392 . S
C263 C265 1.384 . S
H264 C266 0.949 . S
C265 C263 1.384 . S
C265 C266 1.385 . S
C265 H267 0.950 . S
C266 C260 1.404 . S
C266 H264 0.949 . S
C266 C265 1.385 . S
H267 C265 0.950 . S
H268 C252 0.951 . S
H269 C254 0.951 . S
H270 C256 0.951 . S
H271 C257 0.950 . S
H272 C258 0.950 . S
H273 C259 0.950 . S
H274 C261 0.950 . S
H275 C262 0.951 . S
C276 C277 1.386 1_556 S
C276 C278 1.383 . S
C276 H292 0.951 1_556 S
C277 C276 1.386 1_554 S
C277 C281 1.383 1_554 S
C278 C276 1.383 . S
C278 C279 1.402 . S
C278 H293 0.951 . S
C279 C278 1.402 . S
C279 C280 1.375 . S
C279 C282 1.481 . S
C280 C279 1.375 . S
C280 C281 1.367 . S
C280 H294 0.951 . S
C281 C277 1.383 1_556 S
C281 C280 1.367 . S
C281 H295 0.950 . S
C282 C279 1.481 . S
C282 C283 1.297 . S
C282 H296 0.950 . S
C283 C282 1.297 . S
C283 C284 1.479 . S
C283 H297 0.950 . S
C284 C283 1.479 . S
C284 C285 1.375 . S
C284 C290 1.404 . S
C285 C284 1.375 . S
C285 C286 1.369 . S
C285 H298 0.950 . S
C286 C285 1.369 . S
C286 C287 1.392 . S
C286 H299 0.951 . S
C287 C286 1.392 . S
C287 C289 1.384 . S
H288 C290 0.949 . S
C289 C287 1.384 . S
C289 C290 1.385 . S
C289 H291 0.950 . S
C290 C284 1.404 . S
C290 H288 0.949 . S
C290 C289 1.385 . S
H291 C289 0.950 . S
H292 C276 0.951 1_554 S
H293 C278 0.951 . S
H294 C280 0.951 . S
H295 C281 0.950 . S
H296 C282 0.950 . S
H297 C283 0.950 . S
H298 C285 0.950 . S
H299 C286 0.951 . S
C300 C301 1.386 . S
C300 C302 1.383 . S
C300 H316 0.951 . S
C301 C300 1.386 . S
C301 C305 1.383 . S
C302 C300 1.383 . S
C302 C303 1.402 . S
C302 H317 0.951 . S
C303 C302 1.402 . S
C303 C304 1.375 . S
C303 C306 1.481 . S
C304 C303 1.375 . S
C304 C305 1.367 . S
C304 H318 0.951 . S
C305 C301 1.383 . S
C305 C304 1.367 . S
C305 H319 0.950 . S
C306 C303 1.481 . S
C306 C307 1.297 . S
C306 H320 0.950 . S
C307 C306 1.297 . S
C307 C308 1.479 . S
C307 H321 0.950 . S
C308 C307 1.479 . S
C308 C309 1.375 . S
C308 C314 1.404 . S
C309 C308 1.375 . S
C309 C310 1.369 . S
C309 H322 0.950 . S
C310 C309 1.369 . S
C310 C311 1.392 . S
C310 H323 0.951 . S
C311 C310 1.392 . S
C311 C313 1.384 . S
H312 C314 0.949 . S
C313 C311 1.384 . S
C313 C314 1.385 . S
C313 H315 0.950 . S
C314 C308 1.404 . S
C314 H312 0.949 . S
C314 C313 1.385 . S
H315 C313 0.950 . S
H316 C300 0.951 . S
H317 C302 0.951 . S
H318 C304 0.951 . S
H319 C305 0.950 . S
H320 C306 0.950 . S
H321 C307 0.950 . S
H322 C309 0.950 . S
H323 C310 0.951 . S
C324 C325 1.386 . S
C324 C326 1.383 . S
C324 H340 0.951 . S
C325 C324 1.386 . S
C325 C329 1.383 . S
C326 C324 1.383 . S
C326 C327 1.402 . S
C326 H341 0.951 . S
C327 C326 1.402 . S
C327 C328 1.375 . S
C327 C330 1.481 . S
C328 C327 1.375 . S
C328 C329 1.367 . S
C328 H342 0.951 . S
C329 C325 1.383 . S
C329 C328 1.367 . S
C329 H343 0.950 . S
C330 C327 1.481 . S
C330 C331 1.297 . S
C330 H344 0.950 . S
C331 C330 1.297 . S
C331 C332 1.479 . S
C331 H345 0.950 . S
C332 C331 1.479 . S
C332 C333 1.375 . S
C332 C338 1.404 . S
C333 C332 1.375 . S
C333 C334 1.369 . S
C333 H346 0.950 . S
C334 C333 1.369 . S
C334 C335 1.392 . S
C334 H347 0.951 . S
C335 C334 1.392 . S
C335 C337 1.384 . S
H336 C338 0.949 . S
C337 C335 1.384 . S
C337 C338 1.385 . S
C337 H339 0.950 . S
C338 C332 1.404 . S
C338 H336 0.949 . S
C338 C337 1.385 . S
H339 C337 0.950 . S
H340 C324 0.951 . S
H341 C326 0.951 . S
H342 C328 0.951 . S
H343 C329 0.950 . S
H344 C330 0.950 . S
H345 C331 0.950 . S
H346 C333 0.950 . S
H347 C334 0.951 . S
C348 C349 1.386 . S
C348 C350 1.383 . S
C348 H364 0.951 . S
C349 C348 1.386 . S
C349 C353 1.383 . S
C350 C348 1.383 . S
C350 C351 1.402 . S
C350 H365 0.951 . S
C351 C350 1.402 . S
C351 C352 1.375 1_556 S
C351 C354 1.481 1_556 S
C352 C351 1.375 1_554 S
C352 C353 1.367 1_554 S
C352 H366 0.951 . S
C353 C349 1.383 . S
C353 C352 1.367 1_556 S
C353 H367 0.950 . S
C354 C351 1.481 1_554 S
C354 C355 1.297 1_554 S
C354 H368 0.950 . S
C355 C354 1.297 1_556 S
C355 C356 1.479 1_546 S
C355 H369 0.950 . S
C356 C355 1.479 1_564 S
C356 C357 1.375 1_554 S
C356 C362 1.408 . S
C357 C356 1.375 1_556 S
C357 C358 1.369 1_556 S
C357 H370 0.950 . S
C358 C357 1.369 1_554 S
C358 C359 1.392 . S
C358 H371 0.949 1_554 S
C359 C358 1.392 . S
C359 C361 1.384 . S
H360 C362 0.935 1_545 S
C361 C359 1.384 . S
C361 C362 1.395 . S
C361 H363 0.950 . S
C362 C356 1.408 . S
C362 H360 0.935 1_565 S
C362 C361 1.395 . S
H363 C361 0.950 . S
H364 C348 0.951 . S
H365 C350 0.951 . S
H366 C352 0.951 . S
H367 C353 0.950 . S
H368 C354 0.950 . S
H369 C355 0.950 . S
H370 C357 0.950 . S
H371 C358 0.949 1_556 S
C85 C41 1.703 1_545 S
C95 C4 1.670 . S
C109 C19 1.724 . S
C119 C28 1.643 . S
C133 C83 1.713 1_565 S
C143 C46 1.607 . S
C157 C61 1.717 . S
C167 C70 1.641 . S
C181 C62 0.617 . S
C191 C20 0.439 . S
C205 C40 0.607 . S
C215 C82 0.753 . S
C229 C79 1.157 . S
C239 C16 1.295 . S
C253 C24 1.324 . S
C263 C45 1.042 . S
C277 C37 1.221 . S
C287 C58 1.297 . S
C301 C66 1.360 . S
C311 C3 1.183 . S
C325 C7 1.261 . S
C335 C49 1.281 . S
C349 C67 1.278 . S
C359 C25 1.246 . S
