# Generated by pormake.
# Topology umx, (4)-cn, num edge types: 1
# Building blocks:
#     Node 0, Type 0, BuildingBlock: TATPOV_clean_sbu_0, # of connection points: 4
#     Node 1, Type 0, BuildingBlock: TATPOV_clean_sbu_0, # of connection points: 4
#     Node 2, Type 0, BuildingBlock: TATPOV_clean_sbu_0, # of connection points: 4
#     Node 3, Type 0, BuildingBlock: TATPOV_clean_sbu_0, # of connection points: 4
#     Node 4, Type 0, BuildingBlock: TATPOV_clean_sbu_0, # of connection points: 4
#     Node 5, Type 0, BuildingBlock: TATPOV_clean_sbu_0, # of connection points: 4
#     Node 6, Type 0, BuildingBlock: TATPOV_clean_sbu_0, # of connection points: 4
#     Node 7, Type 0, BuildingBlock: TATPOV_clean_sbu_0, # of connection points: 4
#     Edge 8, Type (0, 0), BuildingBlock: TEMPAE_clean_linker_10, # of connection points: 2
#     Edge 9, Type (0, 0), BuildingBlock: TEMPAE_clean_linker_10, # of connection points: 2
#     Edge 10, Type (0, 0), BuildingBlock: TEMPAE_clean_linker_10, # of connection points: 2
#     Edge 11, Type (0, 0), BuildingBlock: TEMPAE_clean_linker_10, # of connection points: 2
#     Edge 12, Type (0, 0), BuildingBlock: TEMPAE_clean_linker_10, # of connection points: 2
#     Edge 13, Type (0, 0), BuildingBlock: TEMPAE_clean_linker_10, # of connection points: 2
#     Edge 14, Type (0, 0), BuildingBlock: TEMPAE_clean_linker_10, # of connection points: 2
#     Edge 15, Type (0, 0), BuildingBlock: TEMPAE_clean_linker_10, # of connection points: 2
#     Edge 16, Type (0, 0), BuildingBlock: TEMPAE_clean_linker_10, # of connection points: 2
#     Edge 17, Type (0, 0), BuildingBlock: TEMPAE_clean_linker_10, # of connection points: 2
#     Edge 18, Type (0, 0), BuildingBlock: TEMPAE_clean_linker_10, # of connection points: 2
#     Edge 19, Type (0, 0), BuildingBlock: TEMPAE_clean_linker_10, # of connection points: 2
#     Edge 20, Type (0, 0), BuildingBlock: TEMPAE_clean_linker_10, # of connection points: 2
#     Edge 21, Type (0, 0), BuildingBlock: TEMPAE_clean_linker_10, # of connection points: 2
#     Edge 22, Type (0, 0), BuildingBlock: TEMPAE_clean_linker_10, # of connection points: 2
#     Edge 23, Type (0, 0), BuildingBlock: TEMPAE_clean_linker_10, # of connection points: 2
# Relax obj value: 0.211
# Max RMSD: 0.756
# Mean RMSD: 0.325
data_MOF--net-umx--node1-TATPOV_clean_sbu_0--edge1-TEMPAE_clean_linker_10
_symmetry_space_group_name_H-M    P1
_symmetry_Int_Tables_number       1
_symmetry_cell_setting            triclinic
loop_
_symmetry_equiv_pos_as_xyz
'x, y, z'
_cell_length_a     44.168463
_cell_length_b     20.328465
_cell_length_c     28.336639
_cell_angle_alpha  89.706151
_cell_angle_beta   90.31032
_cell_angle_gamma 102.47539
loop_
_atom_site_label
_atom_site_type_symbol
_atom_site_fract_x
_atom_site_fract_y
_atom_site_fract_z
_atom_type_partial_charge
Zn0 Zn 0.16503 0.40137 0.03479 0.0
Zn1 Zn 0.12456 0.27744 0.0264 0.0
O2 O 0.14808 0.29844 0.96567 0.0
O3 O 0.18574 0.38862 0.97234 0.0
O4 O 0.10015 0.18259 0.01462 0.0
O5 O 0.17901 0.36784 0.09769 0.0
O6 O 0.14873 0.26789 0.08606 0.0
C7 C 0.17104 0.3397 0.94819 0.0
C8 C 0.098 0.40217 0.03375 0.0
O9 O 0.09339 0.33801 0.03453 0.0
O10 O 0.12533 0.43807 0.03193 0.0
C11 C 0.11254 0.13388 0.00306 0.0
O12 O 0.09482 0.07423 -0.00475 0.0
C13 C 0.16871 0.3075 0.1109 0.0
Zn14 Zn 0.43569 0.32678 0.4723 0.0
Zn15 Zn 0.49854 0.38144 0.4802 0.0
O16 O 0.48753 0.39701 0.41112 0.0
O17 O 0.43657 0.3634 0.40643 0.0
O18 O 0.54477 0.42055 0.48645 0.0
O19 O 0.42857 0.38454 0.52709 0.0
O20 O 0.47879 0.42767 0.53165 0.0
C21 C 0.46231 0.38953 0.38772 0.0
C22 C 0.47365 0.23026 0.49502 0.0
O23 O 0.49538 0.28266 0.49628 0.0
O24 O 0.44629 0.23442 0.48376 0.0
C25 C 0.56361 0.38671 0.47063 0.0
O26 O 0.55245 0.33005 0.44838 0.0
C27 C 0.45131 0.42358 0.54675 0.0
Zn28 Zn 0.84639 0.60461 0.04046 0.0
Zn29 Zn 0.87959 0.73569 0.03057 0.0
O30 O 0.84978 0.71693 0.97451 0.0
O31 O 0.82127 0.61427 0.98213 0.0
O32 O 0.9013 0.83343 0.01919 0.0
O33 O 0.83422 0.62935 0.10597 0.0
O34 O 0.86102 0.73316 0.09602 0.0
C35 C 0.82847 0.66911 0.95936 0.0
C36 C 0.91311 0.61848 0.02876 0.0
O37 O 0.91418 0.68173 0.02901 0.0
O38 O 0.88739 0.57649 0.03165 0.0
C39 C 0.88846 0.88247 0.00961 0.0
O40 O 0.90591 0.94112 -0.00191 0.0
C41 C 0.84394 0.68856 0.12148 0.0
Zn42 Zn 0.57952 0.69567 0.53172 0.0
Zn43 Zn 0.51754 0.63542 0.52271 0.0
O44 O 0.5372 0.61109 0.4613 0.0
O45 O 0.58638 0.66347 0.46675 0.0
O46 O 0.47148 0.59707 0.51667 0.0
O47 O 0.58055 0.63434 0.58825 0.0
O48 O 0.53014 0.59293 0.58306 0.0
C49 C 0.56437 0.62705 0.44387 0.0
C50 C 0.53878 0.78912 0.53444 0.0
O51 O 0.51802 0.73554 0.5292 0.0
O52 O 0.56716 0.78651 0.53704 0.0
C53 C 0.45724 0.57531 0.47883 0.0
O54 O 0.47308 0.57303 0.44 0.0
C55 C 0.55609 0.5959 0.6036 0.0
Zn56 Zn 0.12609 0.22834 0.53396 0.0
Zn57 Zn 0.16542 0.34856 0.51076 0.0
O58 O 0.17476 0.32507 0.57789 0.0
O59 O 0.1507 0.22142 0.59455 0.0
O60 O 0.2051 0.41732 0.4961 0.0
O61 O 0.13477 0.18406 0.4726 0.0
O62 O 0.16655 0.28136 0.45874 0.0
C63 C 0.16947 0.27533 0.60613 0.0
C64 C 0.09865 0.35157 0.52054 0.0
O65 O 0.12547 0.3848 0.50831 0.0
O66 O 0.09476 0.29007 0.53295 0.0
C67 C 0.22737 0.38682 0.50079 0.0
O68 O 0.22068 0.32251 0.51204 0.0
C69 C 0.15471 0.22128 0.44669 0.0
Zn70 Zn 0.4681 0.3276 0.94757 0.0
Zn71 Zn 0.40873 0.26018 0.9593 0.0
O72 O 0.41983 0.31134 0.02154 0.0
O73 O 0.46893 0.36184 0.01386 0.0
O74 O 0.36308 0.2166 0.96687 0.0
O75 O 0.45574 0.38269 0.89491 0.0
O76 O 0.40909 0.31684 0.89861 0.0
C77 C 0.44454 0.34805 0.03847 0.0
C78 C 0.45926 0.18194 0.94236 0.0
O79 O 0.43137 0.18252 0.95342 0.0
O80 O 0.47877 0.23671 0.93521 0.0
C81 C 0.34513 0.25589 0.9765 0.0
O82 O 0.3572 0.32054 0.98116 0.0
C83 C 0.42844 0.36461 0.87895 0.0
Zn84 Zn 0.90257 0.71874 0.54604 0.0
Zn85 Zn 0.85341 0.60926 0.53189 0.0
O86 O 0.84608 0.64739 0.596 0.0
O87 O 0.8834 0.7372 0.60771 0.0
O88 O 0.81245 0.54379 0.51837 0.0
O89 O 0.89264 0.76066 0.48437 0.0
O90 O 0.85336 0.67366 0.47738 0.0
C91 C 0.85887 0.69722 0.62128 0.0
C92 C 0.91943 0.58634 0.5373 0.0
O93 O 0.89062 0.56136 0.53 0.0
O94 O 0.92884 0.64875 0.54539 0.0
C95 C 0.79232 0.52152 0.54988 0.0
O96 O 0.79996 0.53108 0.59457 0.0
C97 C 0.869 0.72949 0.4621 0.0
Zn98 Zn 0.53564 0.62106 0.0025 0.0
Zn99 Zn 0.59513 0.69087 0.00626 0.0
O100 O 0.58769 0.65102 0.07256 0.0
O101 O 0.53776 0.60395 0.07263 0.0
O102 O 0.64095 0.73178 0.00589 0.0
O103 O 0.54632 0.55632 0.95448 0.0
O104 O 0.59214 0.62484 0.95176 0.0
C105 C 0.5635 0.62026 0.09407 0.0
C106 C 0.54431 0.76438 0.98081 0.0
O107 O 0.57241 0.76714 -0.00707 0.0
O108 O 0.52497 0.70833 0.97958 0.0
C109 C 0.65494 0.79119 0.01681 0.0
O110 O 0.63881 0.83487 0.03048 0.0
C111 C 0.57286 0.57392 0.93588 0.0
C112 C 0.18039 0.33126 0.19575 0.0
C113 C 0.17605 0.28536 0.15841 0.0
C114 C 0.1803 0.30877 0.24259 0.0
C115 C 0.1771 0.23901 0.252 0.0
C116 C 0.17573 0.19339 0.21422 0.0
C117 C 0.17435 0.21694 0.16786 0.0
C118 C 0.18119 0.35906 0.28194 0.0
C119 C 0.17396 0.11929 0.22267 0.0
C120 C 0.19071 0.21345 0.38148 0.0
C121 C 0.16029 0.20179 0.39841 0.0
C122 C 0.19658 0.21781 0.33287 0.0
C123 C 0.17145 0.21391 0.30111 0.0
C124 C 0.14059 0.19641 0.31804 0.0
C125 C 0.1354 0.18927 0.36672 0.0
C126 C 0.22971 0.23255 0.31599 0.0
C127 C 0.1131 0.19302 0.2855 0.0
H128 H 0.18144 0.38414 0.18858 0.0
H129 H 0.17089 0.18143 0.13914 0.0
H130 H 0.15924 0.34644 0.30222 0.0
H131 H 0.20039 0.35676 0.3068 0.0
H132 H 0.18427 0.41156 0.26859 0.0
H133 H 0.18036 0.09419 0.19064 0.0
H134 H 0.18949 0.11155 0.25215 0.0
H135 H 0.14995 0.09426 0.23247 0.0
H136 H 0.20993 0.22339 0.4063 0.0
H137 H 0.11192 0.18133 0.38012 0.0
H138 H 0.23764 0.2874 0.30948 0.0
H139 H 0.23176 0.20609 0.28237 0.0
H140 H 0.24544 0.21729 0.34265 0.0
H141 H 0.11313 0.24419 0.27157 0.0
H142 H 0.0907 0.17368 0.3037 0.0
H143 H 0.11458 0.16022 0.25487 0.0
C144 C 0.46937 0.44835 0.62834 0.0
C145 C 0.44677 0.44978 0.59387 0.0
C146 C 0.46192 0.4476 0.67619 0.0
C147 C 0.4318 0.45349 0.68992 0.0
C148 C 0.41027 0.4645 0.65517 0.0
C149 C 0.41778 0.46077 0.60733 0.0
C150 C 0.48513 0.43222 0.71151 0.0
C151 C 0.37858 0.47557 0.66754 0.0
C152 C 0.40721 0.34774 0.79798 0.0
C153 C 0.42112 0.39206 0.8333 0.0
C154 C 0.40799 0.3689 0.7508 0.0
C155 C 0.42206 0.4365 0.73934 0.0
C156 C 0.43216 0.48346 0.77578 0.0
C157 C 0.4324 0.46027 0.82248 0.0
C158 C 0.39634 0.31746 0.71296 0.0
C159 C 0.44401 0.55723 0.76495 0.0
H160 H 0.49182 0.43976 0.61809 0.0
H161 H 0.40034 0.46246 0.58065 0.0
H162 H 0.48872 0.46996 0.74008 0.0
H163 H 0.47602 0.38215 0.72785 0.0
H164 H 0.50792 0.43175 0.69527 0.0
H165 H 0.37604 0.52482 0.65294 0.0
H166 H 0.36046 0.43617 0.65065 0.0
H167 H 0.37427 0.4756 0.70605 0.0
H168 H 0.39833 0.29507 0.80658 0.0
H169 H 0.44251 0.49478 0.85022 0.0
H170 H 0.4158 0.31212 0.68968 0.0
H171 H 0.37876 0.33455 0.69073 0.0
H172 H 0.38575 0.26717 0.7279 0.0
H173 H 0.46339 0.56422 0.73943 0.0
H174 H 0.45199 0.58708 0.79714 0.0
H175 H 0.4252 0.57743 0.74792 0.0
C176 C 0.8313 0.74234 0.39948 0.0
C177 C 0.86215 0.7507 0.41449 0.0
C178 C 0.82408 0.74462 0.35139 0.0
C179 C 0.84826 0.75214 0.31798 0.0
C180 C 0.87959 0.76585 0.3333 0.0
C181 C 0.88617 0.76622 0.38168 0.0
C182 C 0.79054 0.73371 0.33638 0.0
C183 C 0.90605 0.77301 0.29875 0.0
C184 C 0.83526 0.65226 0.20504 0.0
C185 C 0.83903 0.70383 0.17126 0.0
C186 C 0.83689 0.66722 0.25327 0.0
C187 C 0.84105 0.73518 0.26786 0.0
C188 C 0.84194 0.78673 0.23397 0.0
C189 C 0.84184 0.77063 0.18598 0.0
C190 C 0.83652 0.6108 0.28835 0.0
C191 C 0.84472 0.85928 0.24812 0.0
H192 H 0.81278 0.7307 0.42517 0.0
H193 H 0.90999 0.77207 0.39353 0.0
H194 H 0.78788 0.76593 0.30555 0.0
H195 H 0.78203 0.68045 0.32577 0.0
H196 H 0.77567 0.74469 0.36552 0.0
H197 H 0.92904 0.78771 0.31634 0.0
H198 H 0.90479 0.72433 0.28043 0.0
H199 H 0.90432 0.81123 0.27144 0.0
H200 H 0.83331 0.60058 0.19383 0.0
H201 H 0.84491 0.81076 0.16016 0.0
H202 H 0.8182 0.61003 0.31504 0.0
H203 H 0.85906 0.61921 0.30739 0.0
H204 H 0.83242 0.56062 0.27118 0.0
H205 H 0.83082 0.86303 0.28013 0.0
H206 H 0.83698 0.88913 0.21927 0.0
H207 H 0.86928 0.8823 0.25636 0.0
C208 C 0.60188 0.58174 0.86048 0.0
C209 C 0.5789 0.54499 0.89007 0.0
C210 C 0.60103 0.56989 0.81183 0.0
C211 C 0.57707 0.51903 0.79282 0.0
C212 C 0.55754 0.47405 0.82369 0.0
C213 C 0.5583 0.48826 0.87211 0.0
C214 C 0.62293 0.6182 0.78045 0.0
C215 C 0.53352 0.41509 0.80588 0.0
C216 C 0.54063 0.5849 0.68693 0.0
C217 C 0.55707 0.56421 0.64994 0.0
C218 C 0.54613 0.56795 0.73361 0.0
C219 C 0.56742 0.52625 0.74312 0.0
C220 C 0.58198 0.50022 0.70524 0.0
C221 C 0.57733 0.52128 0.65894 0.0
C222 C 0.5306 0.5983 0.77288 0.0
C223 C 0.60362 0.45314 0.71342 0.0
H224 H 0.61849 0.6246 0.87432 0.0
H225 H 0.54119 0.45792 0.89512 0.0
H226 H 0.63245 0.59059 0.75255 0.0
H227 H 0.6101 0.65285 0.76281 0.0
H228 H 0.64256 0.64895 0.80066 0.0
H229 H 0.51021 0.4268 0.80885 0.0
H230 H 0.53766 0.40224 0.76881 0.0
H231 H 0.53342 0.37018 0.82843 0.0
H232 H 0.52512 0.61847 0.6796 0.0
H233 H 0.58999 0.50538 0.62997 0.0
H234 H 0.54838 0.62931 0.7961 0.0
H235 H 0.5166 0.55778 0.79495 0.0
H236 H 0.51526 0.63089 0.75935 0.0
H237 H 0.59708 0.4214 0.7453 0.0
H238 H 0.62758 0.48295 0.71838 0.0
H239 H 0.60374 0.41983 0.68248 0.0
C240 C 0.81522 0.68578 0.67829 0.0
C241 C 0.84709 0.70337 0.66898 0.0
C242 C 0.80427 0.68432 0.72477 0.0
C243 C 0.82587 0.69726 0.7624 0.0
C244 C 0.85802 0.71722 0.75285 0.0
C245 C 0.86817 0.72124 0.7061 0.0
C246 C 0.7698 0.66864 0.7337 0.0
C247 C 0.88185 0.732 0.79203 0.0
C248 C 0.81663 0.73518 0.8901 0.0
C249 C 0.81738 0.67275 0.91056 0.0
C250 C 0.81487 0.74233 0.84106 0.0
C251 C 0.81565 0.68632 0.81204 0.0
C252 C 0.8135 0.62184 0.83267 0.0
C253 C 0.81368 0.61564 0.88191 0.0
C254 C 0.81517 0.81141 0.82106 0.0
C255 C 0.81525 0.56106 0.8032 0.0
H256 H 0.79894 0.67289 0.64927 0.0
H257 H 0.89282 0.7347 0.69873 0.0
H258 H 0.76279 0.61945 0.75204 0.0
H259 H 0.76379 0.70746 0.75716 0.0
H260 H 0.75617 0.66671 0.70048 0.0
H261 H 0.90599 0.74279 0.77851 0.0
H262 H 0.8785 0.77628 0.81244 0.0
H263 H 0.87894 0.68855 0.81673 0.0
H264 H 0.81917 0.77921 0.91221 0.0
H265 H 0.8144 0.56727 0.89766 0.0
H266 H 0.81212 0.81175 0.7822 0.0
H267 H 0.83732 0.84629 0.83062 0.0
H268 H 0.79619 0.83141 0.83717 0.0
H269 H 0.79947 0.55685 0.77232 0.0
H270 H 0.80931 0.51348 0.82389 0.0
H271 H 0.8392 0.56669 0.78958 0.0
C272 C 0.58956 0.58644 0.16566 0.0
C273 C 0.56477 0.60921 0.14517 0.0
C274 C 0.59125 0.57837 0.21477 0.0
C275 C 0.56821 0.59594 0.2437 0.0
C276 C 0.54296 0.61828 0.22289 0.0
C277 C 0.5414 0.62393 0.17375 0.0
C278 C 0.61801 0.55269 0.23573 0.0
C279 C 0.51795 0.63771 0.25252 0.0
C280 C 0.55397 0.55278 0.37294 0.0
C281 C 0.56921 0.61308 0.394 0.0
C282 C 0.55581 0.54385 0.324 0.0
C283 C 0.57178 0.59785 0.29574 0.0
C284 C 0.5882 0.6577 0.31729 0.0
C285 C 0.58718 0.664 0.36632 0.0
C286 C 0.53953 0.47803 0.30237 0.0
C287 C 0.60488 0.71714 0.28842 0.0
H288 H 0.60751 0.57479 0.14326 0.0
H289 H 0.52229 0.64169 0.15766 0.0
H290 H 0.63388 0.59413 0.25452 0.0
H291 H 0.60947 0.51237 0.262 0.0
H292 H 0.63147 0.53266 0.20835 0.0
H293 H 0.49969 0.65315 0.23067 0.0
H294 H 0.5068 0.59476 0.2752 0.0
H295 H 0.52835 0.68004 0.27616 0.0
H296 H 0.54033 0.51318 0.39458 0.0
H297 H 0.5988 0.71085 0.38268 0.0
H298 H 0.55406 0.462 0.27472 0.0
H299 H 0.51781 0.48467 0.28522 0.0
H300 H 0.5337 0.43739 0.32927 0.0
H301 H 0.61818 0.75823 0.31079 0.0
H302 H 0.58773 0.73757 0.2673 0.0
H303 H 0.62108 0.70133 0.2633 0.0
C304 C 0.15355 0.31061 0.86698 0.0
C305 C 0.17822 0.33244 0.89826 0.0
C306 C 0.15878 0.30184 0.8192 0.0
C307 C 0.18962 0.31231 0.80253 0.0
C308 C 0.2148 0.33349 0.83411 0.0
C309 C 0.20874 0.34505 0.88171 0.0
C310 C 0.13112 0.28227 0.78652 0.0
C311 C 0.24794 0.34102 0.8183 0.0
C312 C 0.18366 0.22974 0.68363 0.0
C313 C 0.18212 0.28481 0.65451 0.0
C314 C 0.19056 0.23913 0.7319 0.0
C315 C 0.19452 0.30449 0.75137 0.0
C316 C 0.19574 0.36069 0.72129 0.0
C317 C 0.19001 0.35018 0.67305 0.0
C318 C 0.1912 0.17871 0.76271 0.0
C319 C 0.19942 0.43114 0.7406 0.0
H320 H 0.12991 0.30164 0.87984 0.0
H321 H 0.22779 0.36105 0.90625 0.0
H322 H 0.13307 0.3185 0.75668 0.0
H323 H 0.13038 0.23171 0.77147 0.0
H324 H 0.1088 0.28093 0.80481 0.0
H325 H 0.26465 0.36843 0.84468 0.0
H326 H 0.25279 0.29016 0.81341 0.0
H327 H 0.25198 0.36767 0.78392 0.0
H328 H 0.17837 0.17928 0.66914 0.0
H329 H 0.18921 0.39312 0.65059 0.0
H330 H 0.16953 0.1656 0.78359 0.0
H331 H 0.21089 0.1904 0.788 0.0
H332 H 0.19328 0.13406 0.74155 0.0
H333 H 0.1779 0.43522 0.75936 0.0
H334 H 0.20378 0.46997 0.71226 0.0
H335 H 0.21877 0.44236 0.76643 0.0
C336 C 0.45229 0.4485 0.31404 0.0
C337 C 0.46322 0.39677 0.3365 0.0
C338 C 0.44953 0.44961 0.26466 0.0
C339 C 0.45678 0.39632 0.23798 0.0
C340 C 0.4682 0.3445 0.26089 0.0
C341 C 0.47156 0.34582 0.30997 0.0
C342 C 0.43846 0.50693 0.24114 0.0
C343 C 0.47577 0.28628 0.23383 0.0
C344 C 0.42056 0.3469 0.11839 0.0
C345 C 0.4459 0.36923 0.08841 0.0
C346 C 0.42328 0.35842 0.16716 0.0
C347 C 0.45196 0.39324 0.18615 0.0
C348 C 0.47705 0.41879 0.15579 0.0
C349 C 0.47369 0.40684 0.10726 0.0
C350 C 0.39613 0.32957 0.19862 0.0
C351 C 0.50798 0.45556 0.17484 0.0
H352 H 0.4457 0.48751 0.33506 0.0
H353 H 0.47957 0.30544 0.32794 0.0
H354 H 0.45493 0.52975 0.21311 0.0
H355 H 0.41567 0.48764 0.22394 0.0
H356 H 0.43604 0.54684 0.26659 0.0
H357 H 0.48461 0.25043 0.25712 0.0
H358 H 0.45471 0.25847 0.21528 0.0
H359 H 0.49347 0.30515 0.20657 0.0
H360 H 0.39898 0.31793 0.1041 0.0
H361 H 0.49336 0.42473 0.08436 0.0
H362 H 0.39128 0.36885 0.2227 0.0
H363 H 0.40188 0.28887 0.22092 0.0
H364 H 0.37476 0.30844 0.17811 0.0
H365 H 0.50457 0.49499 0.19981 0.0
H366 H 0.52392 0.47887 0.14633 0.0
H367 H 0.51919 0.4201 0.19473 0.0
C368 C 0.94298 0.53775 -0.00252 0.0
C369 C 0.94181 0.59269 0.02651 0.0
C370 C 0.96909 0.50883 -0.00263 0.0
C371 C 0.99408 0.53373 0.02851 0.0
C372 C 0.99301 0.58946 0.05786 0.0
C373 C 0.96706 0.61914 0.05585 0.0
C374 C 0.96979 0.45123 0.96423 0.0
C375 C 0.01873 0.61617 0.09255 0.0
C376 C 0.04495 0.41055 0.05992 0.0
C377 C 0.07147 0.43568 0.03305 0.0
C378 C 0.01994 0.44318 0.05986 0.0
C379 C 0.02106 0.50064 0.03078 0.0
C380 C 0.04765 0.52543 0.00299 0.0
C381 C 0.07277 0.49337 0.00515 0.0
C382 C 0.9924 0.41642 0.09109 0.0
C383 C 0.04931 0.58489 0.9702 0.0
H384 H 0.92341 0.5175 0.9747 0.0
H385 H 0.96589 0.66108 0.07874 0.0
H386 H 0.99139 0.46231 0.94308 0.0
H387 H 0.9698 0.40466 -0.01523 0.0
H388 H 0.9496 0.44134 0.93975 0.0
H389 H 0.01434 0.65969 0.11292 0.0
H390 H 0.0213 0.57564 0.11768 0.0
H391 H 0.04111 0.63202 0.0738 0.0
H392 H 0.04407 0.36623 0.08176 0.0
H393 H 0.09319 0.51244 0.984 0.0
H394 H 0.9714 0.39864 0.06913 0.0
H395 H 0.98779 0.45725 0.114 0.0
H396 H 0.99599 0.37404 0.11382 0.0
H397 H 0.0298 0.5741 0.94457 0.0
H398 H 0.07144 0.59713 0.95031 0.0
H399 H 0.04693 0.62996 -0.0095 0.0
C400 C 0.50213 0.86182 0.55581 0.0
C401 C 0.52972 0.8548 0.53424 0.0
C402 C 0.49232 0.92302 0.55334 0.0
C403 C 0.50988 0.97734 0.52701 0.0
C404 C 0.53782 0.97037 0.50523 0.0
C405 C 0.5477 0.90951 0.50988 0.0
C406 C 0.46307 0.92938 0.57858 0.0
C407 C 0.55672 0.02635 0.47565 0.0
C408 C 0.46872 0.10854 0.47712 0.0
C409 C 0.48088 0.16428 0.50545 0.0
C410 C 0.47788 0.04716 0.48388 0.0
C411 C 0.49872 0.04092 0.52101 0.0
C412 C 0.50991 0.09638 0.55105 0.0
C413 C 0.50136 0.15791 0.54225 0.0
C414 C 0.46622 0.98992 0.45014 0.0
C415 C 0.5312 0.09102 0.5921 0.0
H416 H 0.48831 0.81947 0.57483 0.0
H417 H 0.56885 0.90372 0.49273 0.0
H418 H 0.46774 0.97462 0.60148 0.0
H419 H 0.44516 0.93609 0.55252 0.0
H420 H 0.45351 0.88444 0.60065 0.0
H421 H 0.57761 0.01246 0.46047 0.0
H422 H 0.54225 0.03925 0.44631 0.0
H423 H 0.56425 0.07238 0.49723 0.0
H424 H 0.45311 0.11387 0.44837 0.0
H425 H 0.51059 0.20111 0.56431 0.0
H426 H 0.45407 0.94462 0.46975 0.0
H427 H 0.48614 0.97628 0.43182 0.0
H428 H 0.4501 0.00292 0.42317 0.0
H429 H 0.52123 0.04633 0.61409 0.0
H430 H 0.53532 0.13655 0.61476 0.0
H431 H 0.55388 0.08406 0.57885 0.0
C432 C 0.07089 0.44172 0.49468 0.0
C433 C 0.07145 0.38368 0.5213 0.0
C434 C 0.04478 0.4711 0.49515 0.0
C435 C 0.01894 0.44262 0.52372 0.0
C436 C 0.01944 0.38405 0.55061 0.0
C437 C 0.04549 0.35503 0.54873 0.0
C438 C 0.04495 0.53301 0.46544 0.0
C439 C 0.99279 0.35301 0.58246 0.0
C440 C 0.9692 0.56155 0.56538 0.0
C441 C 0.94295 0.54432 0.53618 0.0
C442 C 0.99369 0.52797 0.56221 0.0
C443 C 0.99234 0.47669 0.5282 0.0
C444 C 0.96566 0.45821 0.49902 0.0
C445 C 0.94105 0.49179 0.50374 0.0
C446 C 0.02121 0.54807 0.59497 0.0
C447 C 0.96356 0.40442 0.46191 0.0
H448 H 0.09071 0.46379 0.47311 0.0
H449 H 0.04575 0.31037 0.56966 0.0
H450 H 0.02389 0.52507 0.44283 0.0
H451 H 0.04445 0.57657 0.48861 0.0
H452 H 0.06575 0.54603 0.44254 0.0
H453 H 0.99634 0.30618 0.59992 0.0
H454 H 0.98996 0.38958 0.61015 0.0
H455 H 0.97083 0.34104 0.56199 0.0
H456 H 0.97068 0.60193 0.59072 0.0
H457 H 0.92096 0.47891 0.48077 0.0
H458 H 0.04242 0.56831 0.57419 0.0
H459 H 0.02522 0.50334 0.61461 0.0
H460 H 0.01803 0.58686 0.62085 0.0
H461 H 0.98272 0.41954 0.43624 0.0
H462 H 0.94115 0.39529 0.44245 0.0
H463 H 0.96631 0.35644 0.47839 0.0
C464 C 0.50907 0.82456 0.93747 0.0
C465 C 0.53352 0.82653 0.96959 0.0
C466 C 0.49702 0.88191 0.92866 0.0
C467 C 0.50907 0.94198 0.95371 0.0
C468 C 0.53407 0.94448 -0.01428 0.0
C469 C 0.54632 0.8869 -0.00726 0.0
C470 C 0.47108 0.87786 0.89314 0.0
C471 C 0.54711 0.00719 0.01385 0.0
C472 C 0.49495 0.11127 0.91319 0.0
C473 C 0.4699 0.11788 0.94162 0.0
C474 C 0.50721 0.05311 0.91543 0.0
C475 C 0.49474 0.0014 0.94796 0.0
C476 C 0.4691 0.00739 0.97619 0.0
C477 C 0.45669 0.06519 0.97216 0.0
C478 C 0.53386 0.04757 0.88362 0.0
C479 C 0.45554 0.95396 0.01198 0.0
H480 H 0.49934 0.778 0.9192 0.0
H481 H 0.56508 0.88831 0.01781 0.0
H482 H 0.4496 0.8834 0.91133 0.0
H483 H 0.477 0.9197 0.86721 0.0
H484 H 0.46617 0.82931 0.87376 0.0
H485 H 0.56676 0.00112 0.03689 0.0
H486 H 0.55521 0.05054 -0.01021 0.0
H487 H 0.52865 0.01984 0.03627 0.0
H488 H 0.50508 0.15185 0.88934 0.0
H489 H 0.43752 0.0705 -0.00548 0.0
H490 H 0.52847 -0.00091 0.86426 0.0
H491 H 0.55495 0.048 0.90513 0.0
H492 H 0.53914 0.08949 0.85759 0.0
H493 H 0.44786 0.90451 -0.00559 0.0
H494 H 0.43548 0.96601 0.03094 0.0
H495 H 0.47356 0.94853 0.03828 0.0
C496 C 0.16432 0.13504 0.0384 0.0
C497 C 0.14644 0.14318 -0.00118 0.0
C498 C 0.19674 0.14456 0.03525 0.0
C499 C 0.21151 0.1629 -0.00861 0.0
C500 C 0.19316 0.16671 0.95063 0.0
C501 C 0.16076 0.15661 0.95487 0.0
C502 C 0.21513 0.13629 0.0791 0.0
C503 C 0.20765 0.18132 0.90256 0.0
C504 C 0.29238 0.27485 -0.00545 0.0
C505 C 0.31113 0.23038 0.98163 0.0
C506 C 0.26014 0.25302 -0.0016 0.0
C507 C 0.24601 0.18491 -0.0109 0.0
C508 C 0.26482 0.13917 0.9772 0.0
C509 C 0.29716 0.16252 0.97335 0.0
C510 C 0.24114 0.30318 0.01226 0.0
C511 C 0.25086 0.0657 0.96848 0.0
H512 H 0.15284 0.12132 0.07182 0.0
H513 H 0.14664 0.16034 0.92395 0.0
H514 H 0.23542 0.11446 0.07082 0.0
H515 H 0.22387 0.18639 0.09533 0.0
H516 H 0.20063 0.10334 0.10549 0.0
H517 H 0.19088 0.19279 0.87608 0.0
H518 H 0.22808 0.22398 0.9041 0.0
H519 H 0.21588 0.13663 0.89017 0.0
H520 H 0.30288 0.3272 0.00151 0.0
H521 H 0.31146 0.12765 0.96361 0.0
H522 H 0.2219 0.30105 -0.0132 0.0
H523 H 0.25509 0.35563 0.0135 0.0
H524 H 0.23071 0.28985 0.04749 0.0
H525 H 0.23366 0.04525 -0.00384 0.0
H526 H 0.26878 0.03487 0.96765 0.0
H527 H 0.23851 0.06017 0.93409 0.0
C528 C 0.73749 0.46653 0.57041 0.0
C529 C 0.75928 0.49623 0.53645 0.0
C530 C 0.70567 0.44869 0.55954 0.0
C531 C 0.69527 0.46165 0.51373 0.0
C532 C 0.71717 0.49097 0.47915 0.0
C533 C 0.74889 0.50738 0.49079 0.0
C534 C 0.68314 0.41655 0.59722 0.0
C535 C 0.70702 0.50632 0.43008 0.0
C536 C 0.61675 0.3624 0.4718 0.0
C537 C 0.59741 0.40753 0.48019 0.0
C538 C 0.64853 0.37937 0.48263 0.0
C539 C 0.66153 0.44349 0.50177 0.0
C540 C 0.64224 0.48978 0.50971 0.0
C541 C 0.61037 0.4711 0.4991 0.0
C542 C 0.66812 0.32819 0.47423 0.0
C543 C 0.65522 0.5589 0.52964 0.0
H544 H 0.74526 0.45782 0.60579 0.0
H545 H 0.76546 0.53099 0.46441 0.0
H546 H 0.66651 0.44899 0.60466 0.0
H547 H 0.66944 0.36739 0.58468 0.0
H548 H 0.695 0.40821 0.63069 0.0
H549 H 0.72689 0.52986 0.40738 0.0
H550 H 0.69438 0.45936 0.41294 0.0
H551 H 0.69077 0.5409 0.43209 0.0
H552 H 0.60695 0.313 0.4575 0.0
H553 H 0.59562 0.50631 0.50564 0.0
H554 H 0.67887 0.31669 0.5079 0.0
H555 H 0.68724 0.34906 0.44957 0.0
H556 H 0.65445 0.2804 0.45934 0.0
H557 H 0.67456 0.58589 0.50731 0.0
H558 H 0.66479 0.55421 0.56546 0.0
H559 H 0.63741 0.58988 0.53196 0.0
C560 C 0.83856 0.89145 0.97101 0.0
C561 C 0.85448 0.87436 0.01046 0.0
C562 C 0.80611 0.88331 0.97163 0.0
C563 C 0.7894 0.85797 0.01277 0.0
C564 C 0.80577 0.84441 0.05356 0.0
C565 C 0.83814 0.8534 0.05182 0.0
C566 C 0.78962 0.90052 0.92803 0.0
C567 C 0.78968 0.81944 0.09919 0.0
C568 C 0.70566 0.87416 0.02789 0.0
C569 C 0.68931 0.80972 0.01476 0.0
C570 C 0.73827 0.891 0.0269 0.0
C571 C 0.75486 0.84233 0.01232 0.0
C572 C 0.73845 0.77726 -0.00081 0.0
C573 C 0.70596 0.76195 0.00022 0.0
C574 C 0.75503 0.96003 0.04287 0.0
C575 C 0.75515 0.72359 0.98395 0.0
H576 H 0.85141 0.9097 0.93935 0.0
H577 H 0.85088 0.84565 0.08321 0.0
H578 H 0.77367 0.85455 0.91457 0.0
H579 H 0.77527 0.93729 0.93682 0.0
H580 H 0.80603 0.92217 0.89958 0.0
H581 H 0.80097 0.85104 0.1289 0.0
H582 H 0.76464 0.81979 0.0995 0.0
H583 H 0.79233 0.76715 0.10597 0.0
H584 H 0.69303 0.91129 0.03944 0.0
H585 H 0.69362 0.71202 -0.01008 0.0
H586 H 0.77151 0.98444 0.01533 0.0
H587 H 0.76881 0.95511 0.07508 0.0
H588 H 0.73884 -0.00666 0.05088 0.0
H589 H 0.76607 0.73792 0.94926 0.0
H590 H 0.73929 0.67338 0.98045 0.0
H591 H 0.77381 0.71939 0.00947 0.0
C592 C 0.40737 0.51662 0.44103 0.0
C593 C 0.42296 0.55445 0.4785 0.0
C594 C 0.37494 0.49467 0.44123 0.0
C595 C 0.35771 0.51116 0.47979 0.0
C596 C 0.37327 0.55131 0.5169 0.0
C597 C 0.40568 0.57243 0.51583 0.0
C598 C 0.3593 0.45129 0.40124 0.0
C599 C 0.35576 0.56994 0.5586 0.0
C600 C 0.26947 0.48373 0.47296 0.0
C601 C 0.26041 0.42087 0.49524 0.0
C602 C 0.30114 0.51365 0.46696 0.0
C603 C 0.32405 0.48014 0.4841 0.0
C604 C 0.31488 0.41687 0.50676 0.0
C605 C 0.28331 0.38823 0.512 0.0
C606 C 0.31011 0.58083 0.44214 0.0
C607 C 0.33831 0.37985 0.52681 0.0
H608 H 0.42055 0.50266 0.41205 0.0
H609 H 0.41753 0.60229 0.5447 0.0
H610 H 0.35003 0.39939 0.41444 0.0
H611 H 0.33939 0.47093 0.38748 0.0
H612 H 0.37546 0.44872 0.37173 0.0
H613 H 0.37114 0.60369 0.58365 0.0
H614 H 0.33732 0.59544 0.54637 0.0
H615 H 0.34421 0.52364 0.57774 0.0
H616 H 0.2519 0.50903 0.45975 0.0
H617 H 0.2766 0.33998 0.5298 0.0
H618 H 0.32467 0.57639 0.41102 0.0
H619 H 0.32423 0.61854 0.46607 0.0
H620 H 0.28958 0.5999 0.43022 0.0
H621 H 0.35759 0.38043 0.50179 0.0
H622 H 0.32767 0.32661 0.5357 0.0
H623 H 0.34836 0.40531 0.55959 0.0
loop_
_geom_bond_atom_site_label_1
_geom_bond_atom_site_label_2
_geom_bond_distance
_geom_bond_site_symmetry_2
_ccdc_geom_bond_type
Zn0 O3 2.031 1_554 S
Zn0 O5 2.049 . S
Zn0 O10 2.067 . S
Zn1 O2 1.962 1_554 S
Zn1 O4 1.986 . S
Zn1 O6 1.996 . S
Zn1 O9 1.943 . S
O2 Zn1 1.962 1_556 S
O2 C7 1.254 . S
O3 Zn0 2.031 1_556 S
O3 C7 1.269 . S
O4 Zn1 1.986 . S
O4 C11 1.262 . S
O5 Zn0 2.049 . S
O5 C13 1.260 . S
O6 Zn1 1.996 . S
O6 C13 1.257 . S
C7 O2 1.254 . S
C7 O3 1.269 . S
C8 O9 1.249 . S
C8 O10 1.270 . S
O9 Zn1 1.943 . S
O9 C8 1.249 . S
O10 Zn0 2.067 . S
O10 C8 1.270 . S
C11 O4 1.262 . S
C11 O12 1.232 1_554 S
O12 C11 1.232 1_556 S
C13 O5 1.260 . S
C13 O6 1.257 . S
Zn14 O17 2.031 . S
Zn14 O19 2.049 . S
Zn14 O24 2.067 . S
Zn15 O16 1.962 . S
Zn15 O18 1.986 . S
Zn15 O20 1.996 . S
Zn15 O23 1.943 . S
O16 Zn15 1.962 . S
O16 C21 1.254 . S
O17 Zn14 2.031 . S
O17 C21 1.269 . S
O18 Zn15 1.986 . S
O18 C25 1.262 . S
O19 Zn14 2.049 . S
O19 C27 1.260 . S
O20 Zn15 1.996 . S
O20 C27 1.257 . S
C21 O16 1.254 . S
C21 O17 1.269 . S
C22 O23 1.249 . S
C22 O24 1.270 . S
O23 Zn15 1.943 . S
O23 C22 1.249 . S
O24 Zn14 2.067 . S
O24 C22 1.270 . S
C25 O18 1.262 . S
C25 O26 1.232 . S
O26 C25 1.232 . S
C27 O19 1.260 . S
C27 O20 1.257 . S
Zn28 O31 2.031 1_554 S
Zn28 O33 2.049 . S
Zn28 O38 2.067 . S
Zn29 O30 1.962 1_554 S
Zn29 O32 1.986 . S
Zn29 O34 1.996 . S
Zn29 O37 1.943 . S
O30 Zn29 1.962 1_556 S
O30 C35 1.254 . S
O31 Zn28 2.031 1_556 S
O31 C35 1.269 . S
O32 Zn29 1.986 . S
O32 C39 1.262 . S
O33 Zn28 2.049 . S
O33 C41 1.260 . S
O34 Zn29 1.996 . S
O34 C41 1.257 . S
C35 O30 1.254 . S
C35 O31 1.269 . S
C36 O37 1.249 . S
C36 O38 1.270 . S
O37 Zn29 1.943 . S
O37 C36 1.249 . S
O38 Zn28 2.067 . S
O38 C36 1.270 . S
C39 O32 1.262 . S
C39 O40 1.232 1_554 S
O40 C39 1.232 1_556 S
C41 O33 1.260 . S
C41 O34 1.257 . S
Zn42 O45 2.031 . S
Zn42 O47 2.049 . S
Zn42 O52 2.067 . S
Zn43 O44 1.962 . S
Zn43 O46 1.986 . S
Zn43 O48 1.996 . S
Zn43 O51 1.943 . S
O44 Zn43 1.962 . S
O44 C49 1.254 . S
O45 Zn42 2.031 . S
O45 C49 1.269 . S
O46 Zn43 1.986 . S
O46 C53 1.262 . S
O47 Zn42 2.049 . S
O47 C55 1.260 . S
O48 Zn43 1.996 . S
O48 C55 1.257 . S
C49 O44 1.254 . S
C49 O45 1.269 . S
C50 O51 1.249 . S
C50 O52 1.270 . S
O51 Zn43 1.943 . S
O51 C50 1.249 . S
O52 Zn42 2.067 . S
O52 C50 1.270 . S
C53 O46 1.262 . S
C53 O54 1.232 . S
O54 C53 1.232 . S
C55 O47 1.260 . S
C55 O48 1.257 . S
Zn56 O59 2.031 . S
Zn56 O61 2.049 . S
Zn56 O66 2.067 . S
Zn57 O58 1.962 . S
Zn57 O60 1.986 . S
Zn57 O62 1.996 . S
Zn57 O65 1.943 . S
O58 Zn57 1.962 . S
O58 C63 1.254 . S
O59 Zn56 2.031 . S
O59 C63 1.269 . S
O60 Zn57 1.986 . S
O60 C67 1.262 . S
O61 Zn56 2.049 . S
O61 C69 1.260 . S
O62 Zn57 1.996 . S
O62 C69 1.257 . S
C63 O58 1.254 . S
C63 O59 1.269 . S
C64 O65 1.249 . S
C64 O66 1.270 . S
O65 Zn57 1.943 . S
O65 C64 1.249 . S
O66 Zn56 2.067 . S
O66 C64 1.270 . S
C67 O60 1.262 . S
C67 O68 1.232 . S
O68 C67 1.232 . S
C69 O61 1.260 . S
C69 O62 1.257 . S
Zn70 O73 2.031 . S
Zn70 O75 2.049 1_554 S
Zn70 O80 2.067 . S
Zn71 O72 1.962 . S
Zn71 O74 1.986 1_554 S
Zn71 O76 1.996 1_554 S
Zn71 O79 1.943 . S
O72 Zn71 1.962 . S
O72 C77 1.254 . S
O73 Zn70 2.031 . S
O73 C77 1.269 . S
O74 Zn71 1.986 1_556 S
O74 C81 1.262 1_556 S
O75 Zn70 2.049 1_556 S
O75 C83 1.260 . S
O76 Zn71 1.996 1_556 S
O76 C83 1.257 . S
C77 O72 1.254 . S
C77 O73 1.269 . S
C78 O79 1.249 . S
C78 O80 1.270 . S
O79 Zn71 1.943 . S
O79 C78 1.249 . S
O80 Zn70 2.067 . S
O80 C78 1.270 . S
C81 O74 1.262 1_554 S
C81 O82 1.232 . S
O82 C81 1.232 . S
C83 O75 1.260 . S
C83 O76 1.257 . S
Zn84 O87 2.031 . S
Zn84 O89 2.049 . S
Zn84 O94 2.067 . S
Zn85 O86 1.962 . S
Zn85 O88 1.986 . S
Zn85 O90 1.996 . S
Zn85 O93 1.943 . S
O86 Zn85 1.962 . S
O86 C91 1.254 . S
O87 Zn84 2.031 . S
O87 C91 1.269 . S
O88 Zn85 1.986 . S
O88 C95 1.262 . S
O89 Zn84 2.049 . S
O89 C97 1.260 . S
O90 Zn85 1.996 . S
O90 C97 1.257 . S
C91 O86 1.254 . S
C91 O87 1.269 . S
C92 O93 1.249 . S
C92 O94 1.270 . S
O93 Zn85 1.943 . S
O93 C92 1.249 . S
O94 Zn84 2.067 . S
O94 C92 1.270 . S
C95 O88 1.262 . S
C95 O96 1.232 . S
O96 C95 1.232 . S
C97 O89 1.260 . S
C97 O90 1.257 . S
Zn98 O101 2.031 . S
Zn98 O103 2.049 1_554 S
Zn98 O108 2.067 . S
Zn99 O100 1.962 . S
Zn99 O102 1.986 1_554 S
Zn99 O104 1.996 1_554 S
Zn99 O107 1.943 . S
O100 Zn99 1.962 . S
O100 C105 1.254 . S
O101 Zn98 2.031 . S
O101 C105 1.269 . S
O102 Zn99 1.986 1_556 S
O102 C109 1.262 1_556 S
O103 Zn98 2.049 1_556 S
O103 C111 1.260 . S
O104 Zn99 1.996 1_556 S
O104 C111 1.257 . S
C105 O100 1.254 . S
C105 O101 1.269 . S
C106 O107 1.249 . S
C106 O108 1.270 . S
O107 Zn99 1.943 . S
O107 C106 1.249 . S
O108 Zn98 2.067 . S
O108 C106 1.270 . S
C109 O102 1.262 1_554 S
C109 O110 1.232 . S
O110 C109 1.232 . S
C111 O103 1.260 . S
C111 O104 1.257 . S
C112 C113 1.391 . S
C112 C114 1.394 . S
C112 H128 0.931 . S
C113 C112 1.391 . S
C113 C117 1.376 . S
C114 C112 1.394 . S
C114 C115 1.369 . S
C114 C118 1.531 . S
C115 C114 1.369 . S
C115 C116 1.410 . S
C115 C123 1.503 . S
C116 C115 1.410 . S
C116 C117 1.392 . S
C116 C119 1.511 . S
C117 C113 1.376 . S
C117 C116 1.392 . S
C117 H129 0.929 . S
C118 C114 1.531 . S
C118 H130 0.960 . S
C118 H131 0.962 . S
C118 H132 0.960 . S
C119 C116 1.511 . S
C119 H133 0.961 . S
C119 H134 0.961 . S
C119 H135 0.961 . S
C120 C121 1.370 . S
C120 C122 1.363 . S
C120 H136 0.931 . S
C121 C120 1.370 . S
C121 C125 1.408 . S
C122 C120 1.363 . S
C122 C123 1.370 . S
C122 C126 1.524 . S
C123 C115 1.503 . S
C123 C122 1.370 . S
C123 C124 1.403 . S
C124 C123 1.403 . S
C124 C125 1.404 . S
C124 C127 1.539 . S
C125 C121 1.408 . S
C125 C124 1.404 . S
C125 H137 0.930 . S
C126 C122 1.524 . S
C126 H138 0.956 . S
C126 H139 0.961 . S
C126 H140 0.961 . S
C127 C124 1.539 . S
C127 H141 0.958 . S
C127 H142 0.961 . S
C127 H143 0.960 . S
H128 C112 0.931 . S
H129 C117 0.929 . S
H130 C118 0.960 . S
H131 C118 0.962 . S
H132 C118 0.960 . S
H133 C119 0.961 . S
H134 C119 0.961 . S
H135 C119 0.961 . S
H136 C120 0.931 . S
H137 C125 0.930 . S
H138 C126 0.956 . S
H139 C126 0.961 . S
H140 C126 0.961 . S
H141 C127 0.958 . S
H142 C127 0.961 . S
H143 C127 0.960 . S
C144 C145 1.391 . S
C144 C146 1.394 . S
C144 H160 0.931 . S
C145 C144 1.391 . S
C145 C149 1.376 . S
C146 C144 1.394 . S
C146 C147 1.369 . S
C146 C150 1.531 . S
C147 C146 1.369 . S
C147 C148 1.410 . S
C147 C155 1.503 . S
C148 C147 1.410 . S
C148 C149 1.392 . S
C148 C151 1.511 . S
C149 C145 1.376 . S
C149 C148 1.392 . S
C149 H161 0.929 . S
C150 C146 1.531 . S
C150 H162 0.960 . S
C150 H163 0.962 . S
C150 H164 0.960 . S
C151 C148 1.511 . S
C151 H165 0.961 . S
C151 H166 0.961 . S
C151 H167 0.961 . S
C152 C153 1.370 . S
C152 C154 1.363 . S
C152 H168 0.931 . S
C153 C152 1.370 . S
C153 C157 1.408 . S
C154 C152 1.363 . S
C154 C155 1.370 . S
C154 C158 1.524 . S
C155 C147 1.503 . S
C155 C154 1.370 . S
C155 C156 1.403 . S
C156 C155 1.403 . S
C156 C157 1.404 . S
C156 C159 1.539 . S
C157 C153 1.408 . S
C157 C156 1.404 . S
C157 H169 0.930 . S
C158 C154 1.524 . S
C158 H170 0.956 . S
C158 H171 0.961 . S
C158 H172 0.961 . S
C159 C156 1.539 . S
C159 H173 0.958 . S
C159 H174 0.961 . S
C159 H175 0.960 . S
H160 C144 0.931 . S
H161 C149 0.929 . S
H162 C150 0.960 . S
H163 C150 0.962 . S
H164 C150 0.960 . S
H165 C151 0.961 . S
H166 C151 0.961 . S
H167 C151 0.961 . S
H168 C152 0.931 . S
H169 C157 0.930 . S
H170 C158 0.956 . S
H171 C158 0.961 . S
H172 C158 0.961 . S
H173 C159 0.958 . S
H174 C159 0.961 . S
H175 C159 0.960 . S
C176 C177 1.391 . S
C176 C178 1.394 . S
C176 H192 0.931 . S
C177 C176 1.391 . S
C177 C181 1.376 . S
C178 C176 1.394 . S
C178 C179 1.369 . S
C178 C182 1.531 . S
C179 C178 1.369 . S
C179 C180 1.410 . S
C179 C187 1.503 . S
C180 C179 1.410 . S
C180 C181 1.392 . S
C180 C183 1.511 . S
C181 C177 1.376 . S
C181 C180 1.392 . S
C181 H193 0.929 . S
C182 C178 1.531 . S
C182 H194 0.960 . S
C182 H195 0.962 . S
C182 H196 0.960 . S
C183 C180 1.511 . S
C183 H197 0.961 . S
C183 H198 0.961 . S
C183 H199 0.961 . S
C184 C185 1.370 . S
C184 C186 1.363 . S
C184 H200 0.931 . S
C185 C184 1.370 . S
C185 C189 1.408 . S
C186 C184 1.363 . S
C186 C187 1.370 . S
C186 C190 1.524 . S
C187 C179 1.503 . S
C187 C186 1.370 . S
C187 C188 1.403 . S
C188 C187 1.403 . S
C188 C189 1.404 . S
C188 C191 1.539 . S
C189 C185 1.408 . S
C189 C188 1.404 . S
C189 H201 0.930 . S
C190 C186 1.524 . S
C190 H202 0.956 . S
C190 H203 0.961 . S
C190 H204 0.961 . S
C191 C188 1.539 . S
C191 H205 0.958 . S
C191 H206 0.961 . S
C191 H207 0.960 . S
H192 C176 0.931 . S
H193 C181 0.929 . S
H194 C182 0.960 . S
H195 C182 0.962 . S
H196 C182 0.960 . S
H197 C183 0.961 . S
H198 C183 0.961 . S
H199 C183 0.961 . S
H200 C184 0.931 . S
H201 C189 0.930 . S
H202 C190 0.956 . S
H203 C190 0.961 . S
H204 C190 0.961 . S
H205 C191 0.958 . S
H206 C191 0.961 . S
H207 C191 0.960 . S
C208 C209 1.391 . S
C208 C210 1.394 . S
C208 H224 0.931 . S
C209 C208 1.391 . S
C209 C213 1.376 . S
C210 C208 1.394 . S
C210 C211 1.369 . S
C210 C214 1.531 . S
C211 C210 1.369 . S
C211 C212 1.410 . S
C211 C219 1.503 . S
C212 C211 1.410 . S
C212 C213 1.392 . S
C212 C215 1.511 . S
C213 C209 1.376 . S
C213 C212 1.392 . S
C213 H225 0.929 . S
C214 C210 1.531 . S
C214 H226 0.960 . S
C214 H227 0.962 . S
C214 H228 0.960 . S
C215 C212 1.511 . S
C215 H229 0.961 . S
C215 H230 0.961 . S
C215 H231 0.961 . S
C216 C217 1.370 . S
C216 C218 1.363 . S
C216 H232 0.931 . S
C217 C216 1.370 . S
C217 C221 1.408 . S
C218 C216 1.363 . S
C218 C219 1.370 . S
C218 C222 1.524 . S
C219 C211 1.503 . S
C219 C218 1.370 . S
C219 C220 1.403 . S
C220 C219 1.403 . S
C220 C221 1.404 . S
C220 C223 1.539 . S
C221 C217 1.408 . S
C221 C220 1.404 . S
C221 H233 0.930 . S
C222 C218 1.524 . S
C222 H234 0.956 . S
C222 H235 0.961 . S
C222 H236 0.961 . S
C223 C220 1.539 . S
C223 H237 0.958 . S
C223 H238 0.961 . S
C223 H239 0.960 . S
H224 C208 0.931 . S
H225 C213 0.929 . S
H226 C214 0.960 . S
H227 C214 0.962 . S
H228 C214 0.960 . S
H229 C215 0.961 . S
H230 C215 0.961 . S
H231 C215 0.961 . S
H232 C216 0.931 . S
H233 C221 0.930 . S
H234 C222 0.956 . S
H235 C222 0.961 . S
H236 C222 0.961 . S
H237 C223 0.958 . S
H238 C223 0.961 . S
H239 C223 0.960 . S
C240 C241 1.391 . S
C240 C242 1.394 . S
C240 H256 0.931 . S
C241 C240 1.391 . S
C241 C245 1.376 . S
C242 C240 1.394 . S
C242 C243 1.369 . S
C242 C246 1.531 . S
C243 C242 1.369 . S
C243 C244 1.410 . S
C243 C251 1.503 . S
C244 C243 1.410 . S
C244 C245 1.392 . S
C244 C247 1.511 . S
C245 C241 1.376 . S
C245 C244 1.392 . S
C245 H257 0.929 . S
C246 C242 1.531 . S
C246 H258 0.960 . S
C246 H259 0.962 . S
C246 H260 0.960 . S
C247 C244 1.511 . S
C247 H261 0.961 . S
C247 H262 0.961 . S
C247 H263 0.961 . S
C248 C249 1.370 . S
C248 C250 1.363 . S
C248 H264 0.931 . S
C249 C248 1.370 . S
C249 C253 1.408 . S
C250 C248 1.363 . S
C250 C251 1.370 . S
C250 C254 1.524 . S
C251 C243 1.503 . S
C251 C250 1.370 . S
C251 C252 1.403 . S
C252 C251 1.403 . S
C252 C253 1.404 . S
C252 C255 1.539 . S
C253 C249 1.408 . S
C253 C252 1.404 . S
C253 H265 0.930 . S
C254 C250 1.524 . S
C254 H266 0.956 . S
C254 H267 0.961 . S
C254 H268 0.961 . S
C255 C252 1.539 . S
C255 H269 0.958 . S
C255 H270 0.961 . S
C255 H271 0.960 . S
H256 C240 0.931 . S
H257 C245 0.929 . S
H258 C246 0.960 . S
H259 C246 0.962 . S
H260 C246 0.960 . S
H261 C247 0.961 . S
H262 C247 0.961 . S
H263 C247 0.961 . S
H264 C248 0.931 . S
H265 C253 0.930 . S
H266 C254 0.956 . S
H267 C254 0.961 . S
H268 C254 0.961 . S
H269 C255 0.958 . S
H270 C255 0.961 . S
H271 C255 0.960 . S
C272 C273 1.391 . S
C272 C274 1.394 . S
C272 H288 0.931 . S
C273 C272 1.391 . S
C273 C277 1.376 . S
C274 C272 1.394 . S
C274 C275 1.369 . S
C274 C278 1.531 . S
C275 C274 1.369 . S
C275 C276 1.410 . S
C275 C283 1.503 . S
C276 C275 1.410 . S
C276 C277 1.392 . S
C276 C279 1.511 . S
C277 C273 1.376 . S
C277 C276 1.392 . S
C277 H289 0.929 . S
C278 C274 1.531 . S
C278 H290 0.960 . S
C278 H291 0.962 . S
C278 H292 0.960 . S
C279 C276 1.511 . S
C279 H293 0.961 . S
C279 H294 0.961 . S
C279 H295 0.961 . S
C280 C281 1.370 . S
C280 C282 1.363 . S
C280 H296 0.931 . S
C281 C280 1.370 . S
C281 C285 1.408 . S
C282 C280 1.363 . S
C282 C283 1.370 . S
C282 C286 1.524 . S
C283 C275 1.503 . S
C283 C282 1.370 . S
C283 C284 1.403 . S
C284 C283 1.403 . S
C284 C285 1.404 . S
C284 C287 1.539 . S
C285 C281 1.408 . S
C285 C284 1.404 . S
C285 H297 0.930 . S
C286 C282 1.524 . S
C286 H298 0.956 . S
C286 H299 0.961 . S
C286 H300 0.961 . S
C287 C284 1.539 . S
C287 H301 0.958 . S
C287 H302 0.961 . S
C287 H303 0.960 . S
H288 C272 0.931 . S
H289 C277 0.929 . S
H290 C278 0.960 . S
H291 C278 0.962 . S
H292 C278 0.960 . S
H293 C279 0.961 . S
H294 C279 0.961 . S
H295 C279 0.961 . S
H296 C280 0.931 . S
H297 C285 0.930 . S
H298 C286 0.956 . S
H299 C286 0.961 . S
H300 C286 0.961 . S
H301 C287 0.958 . S
H302 C287 0.961 . S
H303 C287 0.960 . S
C304 C305 1.391 . S
C304 C306 1.394 . S
C304 H320 0.931 . S
C305 C304 1.391 . S
C305 C309 1.376 . S
C306 C304 1.394 . S
C306 C307 1.369 . S
C306 C310 1.531 . S
C307 C306 1.369 . S
C307 C308 1.410 . S
C307 C315 1.503 . S
C308 C307 1.410 . S
C308 C309 1.392 . S
C308 C311 1.511 . S
C309 C305 1.376 . S
C309 C308 1.392 . S
C309 H321 0.929 . S
C310 C306 1.531 . S
C310 H322 0.960 . S
C310 H323 0.962 . S
C310 H324 0.960 . S
C311 C308 1.511 . S
C311 H325 0.961 . S
C311 H326 0.961 . S
C311 H327 0.961 . S
C312 C313 1.370 . S
C312 C314 1.363 . S
C312 H328 0.931 . S
C313 C312 1.370 . S
C313 C317 1.408 . S
C314 C312 1.363 . S
C314 C315 1.370 . S
C314 C318 1.524 . S
C315 C307 1.503 . S
C315 C314 1.370 . S
C315 C316 1.403 . S
C316 C315 1.403 . S
C316 C317 1.404 . S
C316 C319 1.539 . S
C317 C313 1.408 . S
C317 C316 1.404 . S
C317 H329 0.930 . S
C318 C314 1.524 . S
C318 H330 0.956 . S
C318 H331 0.961 . S
C318 H332 0.961 . S
C319 C316 1.539 . S
C319 H333 0.958 . S
C319 H334 0.961 . S
C319 H335 0.960 . S
H320 C304 0.931 . S
H321 C309 0.929 . S
H322 C310 0.960 . S
H323 C310 0.962 . S
H324 C310 0.960 . S
H325 C311 0.961 . S
H326 C311 0.961 . S
H327 C311 0.961 . S
H328 C312 0.931 . S
H329 C317 0.930 . S
H330 C318 0.956 . S
H331 C318 0.961 . S
H332 C318 0.961 . S
H333 C319 0.958 . S
H334 C319 0.961 . S
H335 C319 0.960 . S
C336 C337 1.391 . S
C336 C338 1.394 . S
C336 H352 0.931 . S
C337 C336 1.391 . S
C337 C341 1.376 . S
C338 C336 1.394 . S
C338 C339 1.369 . S
C338 C342 1.531 . S
C339 C338 1.369 . S
C339 C340 1.410 . S
C339 C347 1.503 . S
C340 C339 1.410 . S
C340 C341 1.392 . S
C340 C343 1.511 . S
C341 C337 1.376 . S
C341 C340 1.392 . S
C341 H353 0.929 . S
C342 C338 1.531 . S
C342 H354 0.960 . S
C342 H355 0.962 . S
C342 H356 0.960 . S
C343 C340 1.511 . S
C343 H357 0.961 . S
C343 H358 0.961 . S
C343 H359 0.961 . S
C344 C345 1.370 . S
C344 C346 1.363 . S
C344 H360 0.931 . S
C345 C344 1.370 . S
C345 C349 1.408 . S
C346 C344 1.363 . S
C346 C347 1.370 . S
C346 C350 1.524 . S
C347 C339 1.503 . S
C347 C346 1.370 . S
C347 C348 1.403 . S
C348 C347 1.403 . S
C348 C349 1.404 . S
C348 C351 1.539 . S
C349 C345 1.408 . S
C349 C348 1.404 . S
C349 H361 0.930 . S
C350 C346 1.524 . S
C350 H362 0.956 . S
C350 H363 0.961 . S
C350 H364 0.961 . S
C351 C348 1.539 . S
C351 H365 0.958 . S
C351 H366 0.961 . S
C351 H367 0.960 . S
H352 C336 0.931 . S
H353 C341 0.929 . S
H354 C342 0.960 . S
H355 C342 0.962 . S
H356 C342 0.960 . S
H357 C343 0.961 . S
H358 C343 0.961 . S
H359 C343 0.961 . S
H360 C344 0.931 . S
H361 C349 0.930 . S
H362 C350 0.956 . S
H363 C350 0.961 . S
H364 C350 0.961 . S
H365 C351 0.958 . S
H366 C351 0.961 . S
H367 C351 0.960 . S
C368 C369 1.398 1_556 S
C368 C370 1.394 . S
C368 H384 0.931 . S
C369 C368 1.398 1_554 S
C369 C373 1.366 1_655 S
C370 C368 1.394 . S
C370 C371 1.369 1_656 S
C370 C374 1.531 . S
C371 C370 1.369 1_454 S
C371 C372 1.410 . S
C371 C379 1.503 . S
C372 C371 1.410 . S
C372 C373 1.392 . S
C372 C375 1.511 . S
C373 C369 1.366 1_455 S
C373 C372 1.392 . S
C373 H385 0.929 . S
C374 C370 1.531 . S
C374 H386 0.960 . S
C374 H387 0.962 . S
C374 H388 0.960 . S
C375 C372 1.511 . S
C375 H389 0.961 . S
C375 H390 0.961 . S
C375 H391 0.961 . S
C376 C377 1.370 1_655 S
C376 C378 1.363 . S
C376 H392 0.931 . S
C377 C376 1.370 1_455 S
C377 C381 1.408 1_554 S
C378 C376 1.363 . S
C378 C379 1.370 1_655 S
C378 C382 1.524 . S
C379 C371 1.503 . S
C379 C378 1.370 1_455 S
C379 C380 1.403 1_554 S
C380 C379 1.403 1_556 S
C380 C381 1.404 . S
C380 C383 1.539 . S
C381 C377 1.408 1_556 S
C381 C380 1.404 . S
C381 H393 0.930 . S
C382 C378 1.524 . S
C382 H394 0.956 . S
C382 H395 0.961 . S
C382 H396 0.961 . S
C383 C380 1.539 . S
C383 H397 0.958 . S
C383 H398 0.961 . S
C383 H399 0.960 . S
H384 C368 0.931 . S
H385 C373 0.929 . S
H386 C374 0.960 . S
H387 C374 0.962 . S
H388 C374 0.960 . S
H389 C375 0.961 . S
H390 C375 0.961 . S
H391 C375 0.961 . S
H392 C376 0.931 . S
H393 C381 0.930 . S
H394 C382 0.956 . S
H395 C382 0.961 . S
H396 C382 0.961 . S
H397 C383 0.958 . S
H398 C383 0.961 . S
H399 C383 0.960 . S
C400 C401 1.391 . S
C400 C402 1.394 . S
C400 H416 0.931 . S
C401 C400 1.391 . S
C401 C405 1.376 . S
C402 C400 1.394 . S
C402 C403 1.369 . S
C402 C406 1.531 . S
C403 C402 1.369 . S
C403 C404 1.410 . S
C403 C411 1.503 1_565 S
C404 C403 1.410 . S
C404 C405 1.392 . S
C404 C407 1.511 . S
C405 C401 1.376 . S
C405 C404 1.392 . S
C405 H417 0.929 . S
C406 C402 1.531 . S
C406 H418 0.960 . S
C406 H419 0.962 . S
C406 H420 0.960 . S
C407 C404 1.511 . S
C407 H421 0.961 . S
C407 H422 0.961 1_565 S
C407 H423 0.961 . S
C408 C409 1.370 . S
C408 C410 1.363 . S
C408 H424 0.931 . S
C409 C408 1.370 . S
C409 C413 1.408 . S
C410 C408 1.363 . S
C410 C411 1.370 . S
C410 C414 1.524 . S
C411 C403 1.503 1_545 S
C411 C410 1.370 . S
C411 C412 1.403 . S
C412 C411 1.403 . S
C412 C413 1.404 . S
C412 C415 1.539 . S
C413 C409 1.408 . S
C413 C412 1.404 . S
C413 H425 0.930 . S
C414 C410 1.524 . S
C414 H426 0.956 . S
C414 H427 0.961 . S
C414 H428 0.961 . S
C415 C412 1.539 . S
C415 H429 0.958 . S
C415 H430 0.961 . S
C415 H431 0.960 1_545 S
H416 C400 0.931 . S
H417 C405 0.929 . S
H418 C406 0.960 . S
H419 C406 0.962 . S
H420 C406 0.960 . S
H421 C407 0.961 . S
H422 C407 0.961 1_545 S
H423 C407 0.961 . S
H424 C408 0.931 . S
H425 C413 0.930 . S
H426 C414 0.956 . S
H427 C414 0.961 . S
H428 C414 0.961 . S
H429 C415 0.958 . S
H430 C415 0.961 . S
H431 C415 0.960 1_565 S
C432 C433 1.391 . S
C432 C434 1.394 . S
C432 H448 0.931 . S
C433 C432 1.391 . S
C433 C437 1.376 . S
C434 C432 1.394 . S
C434 C435 1.369 . S
C434 C438 1.531 . S
C435 C434 1.369 . S
C435 C436 1.410 . S
C435 C443 1.503 1_455 S
C436 C435 1.410 . S
C436 C437 1.392 . S
C436 C439 1.511 1_455 S
C437 C433 1.376 . S
C437 C436 1.392 . S
C437 H449 0.929 . S
C438 C434 1.531 . S
C438 H450 0.960 . S
C438 H451 0.962 . S
C438 H452 0.960 . S
C439 C436 1.511 1_655 S
C439 H453 0.961 . S
C439 H454 0.961 . S
C439 H455 0.961 . S
C440 C441 1.370 . S
C440 C442 1.363 . S
C440 H456 0.931 . S
C441 C440 1.370 . S
C441 C445 1.408 . S
C442 C440 1.363 . S
C442 C443 1.370 . S
C442 C446 1.524 1_655 S
C443 C435 1.503 1_655 S
C443 C442 1.370 . S
C443 C444 1.403 . S
C444 C443 1.403 . S
C444 C445 1.404 . S
C444 C447 1.539 . S
C445 C441 1.408 . S
C445 C444 1.404 . S
C445 H457 0.930 . S
C446 C442 1.524 1_455 S
C446 H458 0.956 . S
C446 H459 0.961 . S
C446 H460 0.961 . S
C447 C444 1.539 . S
C447 H461 0.958 . S
C447 H462 0.961 . S
C447 H463 0.960 . S
H448 C432 0.931 . S
H449 C437 0.929 . S
H450 C438 0.960 . S
H451 C438 0.962 . S
H452 C438 0.960 . S
H453 C439 0.961 . S
H454 C439 0.961 . S
H455 C439 0.961 . S
H456 C440 0.931 . S
H457 C445 0.930 . S
H458 C446 0.956 . S
H459 C446 0.961 . S
H460 C446 0.961 . S
H461 C447 0.958 . S
H462 C447 0.961 . S
H463 C447 0.960 . S
C464 C465 1.391 1_556 S
C464 C466 1.394 . S
C464 H480 0.931 . S
C465 C464 1.391 1_554 S
C465 C469 1.376 . S
C466 C464 1.394 . S
C466 C467 1.369 1_556 S
C466 C470 1.531 . S
C467 C466 1.369 1_554 S
C467 C468 1.410 . S
C467 C475 1.503 1_565 S
C468 C467 1.410 . S
C468 C469 1.392 . S
C468 C471 1.511 . S
C469 C465 1.376 . S
C469 C468 1.392 . S
C469 H481 0.929 . S
C470 C466 1.531 . S
C470 H482 0.960 1_565 S
C470 H483 0.962 1_565 S
C470 H484 0.960 . S
C471 C468 1.511 . S
C471 H485 0.961 . S
C471 H486 0.961 . S
C471 H487 0.961 . S
C472 C473 1.370 . S
C472 C474 1.363 . S
C472 H488 0.931 . S
C473 C472 1.370 . S
C473 C477 1.408 . S
C474 C472 1.363 . S
C474 C475 1.370 . S
C474 C478 1.524 . S
C475 C467 1.503 1_545 S
C475 C474 1.370 . S
C475 C476 1.403 . S
C476 C475 1.403 . S
C476 C477 1.404 . S
C476 C479 1.537 1_544 S
C477 C473 1.408 . S
C477 C476 1.404 . S
C477 H489 0.930 . S
C478 C474 1.524 . S
C478 H490 0.956 . S
C478 H491 0.961 . S
C478 H492 0.961 . S
C479 C476 1.537 1_566 S
C479 H493 0.965 . S
C479 H494 0.960 1_556 S
C479 H495 0.957 1_556 S
H480 C464 0.931 . S
H481 C469 0.929 . S
H482 C470 0.960 1_545 S
H483 C470 0.962 1_545 S
H484 C470 0.960 . S
H485 C471 0.961 . S
H486 C471 0.961 . S
H487 C471 0.961 . S
H488 C472 0.931 . S
H489 C477 0.930 . S
H490 C478 0.956 . S
H491 C478 0.961 . S
H492 C478 0.961 . S
H493 C479 0.965 . S
H494 C479 0.960 1_554 S
H495 C479 0.957 1_554 S
C496 C497 1.391 . S
C496 C498 1.394 . S
C496 H512 0.931 . S
C497 C496 1.391 . S
C497 C501 1.376 1_554 S
C498 C496 1.394 . S
C498 C499 1.369 . S
C498 C502 1.531 . S
C499 C498 1.369 . S
C499 C500 1.410 1_554 S
C499 C507 1.503 . S
C500 C499 1.410 1_556 S
C500 C501 1.392 . S
C500 C503 1.511 . S
C501 C497 1.376 1_556 S
C501 C500 1.392 . S
C501 H513 0.929 . S
C502 C498 1.531 . S
C502 H514 0.960 . S
C502 H515 0.962 . S
C502 H516 0.960 . S
C503 C500 1.511 . S
C503 H517 0.961 . S
C503 H518 0.961 . S
C503 H519 0.961 . S
C504 C505 1.370 . S
C504 C506 1.363 . S
C504 H520 0.931 . S
C505 C504 1.370 . S
C505 C509 1.408 . S
C506 C504 1.363 . S
C506 C507 1.370 . S
C506 C510 1.524 . S
C507 C499 1.503 . S
C507 C506 1.370 . S
C507 C508 1.403 . S
C508 C507 1.403 . S
C508 C509 1.404 . S
C508 C511 1.539 . S
C509 C505 1.408 . S
C509 C508 1.404 . S
C509 H521 0.930 . S
C510 C506 1.524 . S
C510 H522 0.956 . S
C510 H523 0.952 1_554 S
C510 H524 0.961 . S
C511 C508 1.539 . S
C511 H525 0.958 . S
C511 H526 0.969 . S
C511 H527 0.960 . S
H512 C496 0.931 . S
H513 C501 0.929 . S
H514 C502 0.960 . S
H515 C502 0.962 . S
H516 C502 0.960 . S
H517 C503 0.961 . S
H518 C503 0.961 . S
H519 C503 0.961 . S
H520 C504 0.931 . S
H521 C509 0.930 . S
H522 C510 0.956 . S
H523 C510 0.952 1_556 S
H524 C510 0.961 . S
H525 C511 0.958 . S
H526 C511 0.969 . S
H527 C511 0.960 . S
C528 C529 1.391 . S
C528 C530 1.394 . S
C528 H544 0.931 . S
C529 C528 1.391 . S
C529 C533 1.376 . S
C530 C528 1.394 . S
C530 C531 1.369 . S
C530 C534 1.531 . S
C531 C530 1.369 . S
C531 C532 1.410 . S
C531 C539 1.503 . S
C532 C531 1.410 . S
C532 C533 1.392 . S
C532 C535 1.511 . S
C533 C529 1.376 . S
C533 C532 1.392 . S
C533 H545 0.929 . S
C534 C530 1.531 . S
C534 H546 0.960 . S
C534 H547 0.962 . S
C534 H548 0.960 . S
C535 C532 1.511 . S
C535 H549 0.961 . S
C535 H550 0.961 . S
C535 H551 0.961 . S
C536 C537 1.370 . S
C536 C538 1.363 . S
C536 H552 0.931 . S
C537 C536 1.370 . S
C537 C541 1.408 . S
C538 C536 1.363 . S
C538 C539 1.370 . S
C538 C542 1.524 . S
C539 C531 1.503 . S
C539 C538 1.370 . S
C539 C540 1.403 . S
C540 C539 1.403 . S
C540 C541 1.404 . S
C540 C543 1.539 . S
C541 C537 1.408 . S
C541 C540 1.404 . S
C541 H553 0.930 . S
C542 C538 1.524 . S
C542 H554 0.956 . S
C542 H555 0.961 . S
C542 H556 0.961 . S
C543 C540 1.539 . S
C543 H557 0.958 . S
C543 H558 0.961 . S
C543 H559 0.960 . S
H544 C528 0.931 . S
H545 C533 0.929 . S
H546 C534 0.960 . S
H547 C534 0.962 . S
H548 C534 0.960 . S
H549 C535 0.961 . S
H550 C535 0.961 . S
H551 C535 0.961 . S
H552 C536 0.931 . S
H553 C541 0.930 . S
H554 C542 0.956 . S
H555 C542 0.961 . S
H556 C542 0.961 . S
H557 C543 0.958 . S
H558 C543 0.961 . S
H559 C543 0.960 . S
C560 C561 1.391 1_556 S
C560 C562 1.394 . S
C560 H576 0.931 . S
C561 C560 1.391 1_554 S
C561 C565 1.376 . S
C562 C560 1.394 . S
C562 C563 1.369 1_556 S
C562 C566 1.531 . S
C563 C562 1.369 1_554 S
C563 C564 1.410 . S
C563 C571 1.503 . S
C564 C563 1.410 . S
C564 C565 1.392 . S
C564 C567 1.511 . S
C565 C561 1.376 . S
C565 C564 1.392 . S
C565 H577 0.929 . S
C566 C562 1.531 . S
C566 H578 0.960 . S
C566 H579 0.962 . S
C566 H580 0.960 . S
C567 C564 1.511 . S
C567 H581 0.961 . S
C567 H582 0.961 . S
C567 H583 0.961 . S
C568 C569 1.370 . S
C568 C570 1.363 . S
C568 H584 0.931 . S
C569 C568 1.370 . S
C569 C573 1.408 . S
C570 C568 1.363 . S
C570 C571 1.370 . S
C570 C574 1.524 . S
C571 C563 1.503 . S
C571 C570 1.370 . S
C571 C572 1.403 . S
C572 C571 1.403 . S
C572 C573 1.404 . S
C572 C575 1.539 1_554 S
C573 C569 1.408 . S
C573 C572 1.404 . S
C573 H585 0.930 . S
C574 C570 1.524 . S
C574 H586 0.956 . S
C574 H587 0.961 . S
C574 H588 0.961 . S
C575 C572 1.539 1_556 S
C575 H589 0.958 . S
C575 H590 0.961 1_556 S
C575 H591 0.960 1_556 S
H576 C560 0.931 . S
H577 C565 0.929 . S
H578 C566 0.960 . S
H579 C566 0.962 . S
H580 C566 0.960 . S
H581 C567 0.961 . S
H582 C567 0.961 . S
H583 C567 0.961 . S
H584 C568 0.931 . S
H585 C573 0.930 . S
H586 C574 0.956 . S
H587 C574 0.961 . S
H588 C574 0.961 . S
H589 C575 0.958 . S
H590 C575 0.961 1_554 S
H591 C575 0.960 1_554 S
C592 C593 1.391 . S
C592 C594 1.394 . S
C592 H608 0.931 . S
C593 C592 1.391 . S
C593 C597 1.376 . S
C594 C592 1.394 . S
C594 C595 1.369 . S
C594 C598 1.531 . S
C595 C594 1.369 . S
C595 C596 1.410 . S
C595 C603 1.503 . S
C596 C595 1.410 . S
C596 C597 1.392 . S
C596 C599 1.511 . S
C597 C593 1.376 . S
C597 C596 1.392 . S
C597 H609 0.929 . S
C598 C594 1.531 . S
C598 H610 0.960 . S
C598 H611 0.962 . S
C598 H612 0.960 . S
C599 C596 1.511 . S
C599 H613 0.961 . S
C599 H614 0.961 . S
C599 H615 0.961 . S
C600 C601 1.370 . S
C600 C602 1.363 . S
C600 H616 0.931 . S
C601 C600 1.370 . S
C601 C605 1.408 . S
C602 C600 1.363 . S
C602 C603 1.370 . S
C602 C606 1.524 . S
C603 C595 1.503 . S
C603 C602 1.370 . S
C603 C604 1.403 . S
C604 C603 1.403 . S
C604 C605 1.404 . S
C604 C607 1.539 . S
C605 C601 1.408 . S
C605 C604 1.404 . S
C605 H617 0.930 . S
C606 C602 1.524 . S
C606 H618 0.956 . S
C606 H619 0.961 . S
C606 H620 0.961 . S
C607 C604 1.539 . S
C607 H621 0.958 . S
C607 H622 0.961 . S
C607 H623 0.960 . S
H608 C592 0.931 . S
H609 C597 0.929 . S
H610 C598 0.960 . S
H611 C598 0.962 . S
H612 C598 0.960 . S
H613 C599 0.961 . S
H614 C599 0.961 . S
H615 C599 0.961 . S
H616 C600 0.931 . S
H617 C605 0.930 . S
H618 C606 0.956 . S
H619 C606 0.961 . S
H620 C606 0.961 . S
H621 C607 0.958 . S
H622 C607 0.961 . S
H623 C607 0.960 . S
C113 C13 1.302 . S
C121 C69 1.287 . S
C145 C27 1.308 . S
C153 C83 1.310 . S
C177 C97 1.314 . S
C185 C41 1.318 . S
C209 C111 1.297 . S
C217 C55 1.278 . S
C241 C91 1.166 . S
C249 C35 1.209 . S
C273 C105 1.189 . S
C281 C49 1.202 . S
C305 C7 1.235 . S
C313 C63 1.184 . S
C337 C21 1.227 . S
C345 C77 1.218 . S
C369 C36 3.177 . S
C377 C8 3.153 . S
C401 C50 1.425 . S
C409 C22 1.461 . S
C433 C64 1.131 . S
C441 C92 1.171 . S
C465 C106 1.414 . S
C473 C78 1.460 . S
C497 C11 2.153 . S
C505 C81 2.585 . S
C529 C95 1.543 . S
C537 C25 1.563 . S
C561 C39 2.071 . S
C569 C109 2.593 . S
C593 C53 1.564 . S
C601 C67 1.553 . S
