# Generated by pormake.
# Topology noy, (5)-cn, num edge types: 1
# Building blocks:
#     Node 0, Type 0, BuildingBlock: XOMCOT_clean_sbu_0, # of connection points: 5
#     Node 1, Type 0, BuildingBlock: XOMCOT_clean_sbu_0, # of connection points: 5
#     Node 2, Type 0, BuildingBlock: XOMCOT_clean_sbu_0, # of connection points: 5
#     Node 3, Type 0, BuildingBlock: XOMCOT_clean_sbu_0, # of connection points: 5
#     Node 4, Type 0, BuildingBlock: XOMCOT_clean_sbu_0, # of connection points: 5
#     Node 5, Type 0, BuildingBlock: XOMCOT_clean_sbu_0, # of connection points: 5
#     Node 6, Type 0, BuildingBlock: XOMCOT_clean_sbu_0, # of connection points: 5
#     Node 7, Type 0, BuildingBlock: XOMCOT_clean_sbu_0, # of connection points: 5
#     Edge 8, Type (0, 0), BuildingBlock: OJICUG_clean_linker_0, # of connection points: 2
#     Edge 9, Type (0, 0), BuildingBlock: OJICUG_clean_linker_0, # of connection points: 2
#     Edge 10, Type (0, 0), BuildingBlock: OJICUG_clean_linker_0, # of connection points: 2
#     Edge 11, Type (0, 0), BuildingBlock: OJICUG_clean_linker_0, # of connection points: 2
#     Edge 12, Type (0, 0), BuildingBlock: OJICUG_clean_linker_0, # of connection points: 2
#     Edge 13, Type (0, 0), BuildingBlock: OJICUG_clean_linker_0, # of connection points: 2
#     Edge 14, Type (0, 0), BuildingBlock: OJICUG_clean_linker_0, # of connection points: 2
#     Edge 15, Type (0, 0), BuildingBlock: OJICUG_clean_linker_0, # of connection points: 2
#     Edge 16, Type (0, 0), BuildingBlock: OJICUG_clean_linker_0, # of connection points: 2
#     Edge 17, Type (0, 0), BuildingBlock: OJICUG_clean_linker_0, # of connection points: 2
#     Edge 18, Type (0, 0), BuildingBlock: OJICUG_clean_linker_0, # of connection points: 2
#     Edge 19, Type (0, 0), BuildingBlock: OJICUG_clean_linker_0, # of connection points: 2
#     Edge 20, Type (0, 0), BuildingBlock: OJICUG_clean_linker_0, # of connection points: 2
#     Edge 21, Type (0, 0), BuildingBlock: OJICUG_clean_linker_0, # of connection points: 2
#     Edge 22, Type (0, 0), BuildingBlock: OJICUG_clean_linker_0, # of connection points: 2
#     Edge 23, Type (0, 0), BuildingBlock: OJICUG_clean_linker_0, # of connection points: 2
#     Edge 24, Type (0, 0), BuildingBlock: OJICUG_clean_linker_0, # of connection points: 2
#     Edge 25, Type (0, 0), BuildingBlock: OJICUG_clean_linker_0, # of connection points: 2
#     Edge 26, Type (0, 0), BuildingBlock: OJICUG_clean_linker_0, # of connection points: 2
#     Edge 27, Type (0, 0), BuildingBlock: OJICUG_clean_linker_0, # of connection points: 2
# Relax obj value: 0.208
# Max RMSD: 0.213
# Mean RMSD: 0.213
data_MOF--net-noy--node1-XOMCOT_clean_sbu_0--edge1-OJICUG_clean_linker_0
_symmetry_space_group_name_H-M    P1
_symmetry_Int_Tables_number       1
_symmetry_cell_setting            triclinic
loop_
_symmetry_equiv_pos_as_xyz
'x, y, z'
_cell_length_a     37.503045
_cell_length_b     35.267493
_cell_length_c     14.993836
_cell_angle_alpha  89.987955
_cell_angle_beta   89.916209
_cell_angle_gamma 90.04163
loop_
_atom_site_label
_atom_site_type_symbol
_atom_site_fract_x
_atom_site_fract_y
_atom_site_fract_z
_atom_type_partial_charge
Co0 Co 0.31779 0.39358 0.35867 0.0
C1 C 0.33372 0.44968 0.21132 0.0
C2 C 0.31251 0.39756 0.16125 0.0
C3 C 0.31763 0.42169 0.09071 0.0
N4 N 0.3229 0.41462 0.23767 0.0
N5 N 0.33076 0.4546 0.12185 0.0
H6 H 0.34276 0.47156 0.25633 0.0
H7 H 0.30139 0.3695 0.15571 0.0
C8 C 0.29856 0.3136 0.31123 0.0
O9 O 0.32471 0.30238 0.36316 0.0
N10 N 0.31054 0.37306 0.47997 0.0
C11 C 0.32397 0.38678 0.55744 0.0
C12 C 0.3116 0.3655 0.6279 0.0
C13 C 0.28762 0.34545 0.50676 0.0
N14 N 0.28881 0.33959 0.59572 0.0
C15 C 0.38851 0.37422 0.4127 0.0
C16 C 0.41196 0.34445 0.25313 0.0
C17 C 0.43712 0.35301 0.31954 0.0
C18 C 0.42435 0.36549 0.40211 0.0
C19 C 0.37559 0.3519 0.26829 0.0
N20 N 0.36431 0.36834 0.34624 0.0
H21 H 0.38136 0.3888 0.4724 0.0
H22 H 0.35704 0.34611 0.2153 0.0
H23 H 0.34098 0.41138 0.56377 0.0
H24 H 0.26962 0.33033 0.46336 0.0
O25 O 0.336 0.4396 0.40792 0.0
O26 O 0.27867 0.42938 0.38248 0.0
O27 O 0.29089 0.34891 0.30585 0.0
C28 C 0.3036 0.45222 0.41141 0.0
H29 H 0.31033 0.41608 0.02213 0.0
H30 H 0.31787 0.36954 0.69773 0.0
H31 H 0.42033 0.33438 0.18821 0.0
H32 H 0.44232 0.37142 0.45685 0.0
Co33 Co 0.70217 0.65428 0.85354 0.0
C34 C 0.68644 0.602 0.69979 0.0
C35 C 0.70323 0.65671 0.65509 0.0
C36 C 0.69868 0.63396 0.58179 0.0
N37 N 0.6954 0.63698 0.73 0.0
N38 N 0.68847 0.59943 0.60984 0.0
H39 H 0.67946 0.57848 0.74215 0.0
H40 H 0.71234 0.68564 0.65242 0.0
C41 C 0.71672 0.73664 0.81089 0.0
O42 O 0.6906 0.74677 0.86432 0.0
N43 N 0.71077 0.67128 0.97709 0.0
C44 C 0.70331 0.65168 0.05261 0.0
C45 C 0.71667 0.67073 0.12532 0.0
C46 C 0.72987 0.70156 1.00629 0.0
N47 N 0.73313 0.70222 0.09603 0.0
C48 C 0.63218 0.66797 0.92232 0.0
C49 C 0.60425 0.70351 0.77432 0.0
C50 C 0.58096 0.69334 0.84401 0.0
C51 C 0.59597 0.67684 0.9203 0.0
C52 C 0.64073 0.6953 0.78046 0.0
N53 N 0.65433 0.67678 0.85301 0.0
H54 H 0.64172 0.65197 0.97829 0.0
H55 H 0.6576 0.703 0.72527 0.0
H56 H 0.68952 0.62479 0.05562 0.0
H57 H 0.74314 0.72176 0.96381 0.0
O58 O 0.68809 0.60516 0.89627 0.0
O59 O 0.74387 0.62112 0.86453 0.0
O60 O 0.72573 0.70175 0.80467 0.0
C61 C 0.7214 0.59538 0.89242 0.0
H62 H 0.70468 0.64157 0.51343 0.0
H63 H 0.71456 0.66205 0.19439 0.0
H64 H 0.59443 0.71606 0.71329 0.0
H65 H 0.57976 0.66923 0.97732 0.0
Co66 Co 0.31622 0.64931 0.67045 0.0
C67 C 0.33028 0.59511 0.8216 0.0
C68 C 0.28423 0.63012 0.84278 0.0
C69 C 0.2882 0.60685 0.91535 0.0
N70 N 0.31078 0.6233 0.78424 0.0
N71 N 0.31707 0.58479 0.90243 0.0
H72 H 0.35336 0.58235 0.79032 0.0
H73 H 0.26275 0.65008 0.83297 0.0
C74 C 0.29885 0.72814 0.73073 0.0
O75 O 0.32896 0.73945 0.69449 0.0
N76 N 0.31908 0.67536 0.55445 0.0
C77 C 0.33574 0.66288 0.47981 0.0
C78 C 0.32563 0.68463 0.40807 0.0
C79 C 0.29799 0.704 0.52491 0.0
N80 N 0.30201 0.71056 0.43665 0.0
C81 C 0.39031 0.66863 0.65394 0.0
C82 C 0.40079 0.69222 0.82755 0.0
C83 C 0.42995 0.69087 0.76908 0.0
C84 C 0.42428 0.6795 0.68114 0.0
C85 C 0.36677 0.68218 0.79665 0.0
N86 N 0.36176 0.67051 0.7104 0.0
H87 H 0.38771 0.65678 0.58854 0.0
H88 H 0.34461 0.68295 0.84277 0.0
H89 H 0.35282 0.63832 0.47576 0.0
H90 H 0.27798 0.71804 0.56481 0.0
O91 O 0.33526 0.6042 0.61826 0.0
O92 O 0.27766 0.61788 0.62122 0.0
O93 O 0.28864 0.69366 0.7222 0.0
C94 C 0.30304 0.59475 0.59633 0.0
H95 H 0.27021 0.60512 0.97175 0.0
H96 H 0.33418 0.68095 0.33962 0.0
H97 H 0.40441 0.70022 0.89669 0.0
H98 H 0.44642 0.67678 0.63504 0.0
Co99 Co 0.70561 0.40491 0.15335 0.0
C100 C 0.69356 0.46162 0.3042 0.0
C101 C 0.74496 0.43511 0.3036 0.0
C102 C 0.74323 0.45894 0.37569 0.0
N103 N 0.7136 0.43578 0.25957 0.0
N104 N 0.71096 0.47554 0.37618 0.0
H105 H 0.6672 0.47061 0.28545 0.0
H106 H 0.76776 0.41821 0.28432 0.0
C107 C 0.72319 0.34919 0.29511 0.0
O108 O 0.69969 0.36715 0.34464 0.0
N109 N 0.7003 0.37386 0.0482 0.0
C110 C 0.67138 0.36868 0.99634 0.0
C111 C 0.67969 0.34234 0.93131 0.0
C112 C 0.7258 0.35133 1.01364 0.0
N113 N 0.71396 0.33167 0.94238 0.0
C114 C 0.63222 0.41656 0.19341 0.0
C115 C 0.61306 0.34209 0.22469 0.0
C116 C 0.58712 0.37055 0.2328 0.0
C117 C 0.59709 0.408 0.21461 0.0
C118 C 0.64833 0.35203 0.20283 0.0
N119 N 0.65797 0.38926 0.1922 0.0
H120 H 0.6383 0.44536 0.1752 0.0
H121 H 0.6676 0.32968 0.19287 0.0
H122 H 0.646 0.38269 1.00564 0.0
H123 H 0.75234 0.34887 0.04132 0.0
O124 O 0.69122 0.44853 0.0866 0.0
O125 O 0.74726 0.42968 0.09882 0.0
O126 O 0.72932 0.36049 0.21541 0.0
C127 C 0.72436 0.45384 0.06625 0.0
H128 H 0.76445 0.46453 0.42277 0.0
H129 H 0.66209 0.33214 0.87942 0.0
H130 H 0.60627 0.3126 0.23555 0.0
H131 H 0.57765 0.43071 0.2152 0.0
Co132 Co 0.81998 0.89697 0.35431 0.0
C133 C 0.83804 0.94942 0.20218 0.0
C134 C 0.81977 0.8955 0.15583 0.0
C135 C 0.82528 0.91846 0.08322 0.0
N136 N 0.82787 0.91459 0.23131 0.0
N137 N 0.83647 0.95255 0.11212 0.0
H138 H 0.8454 0.9725 0.24559 0.0
H139 H 0.80975 0.86691 0.15235 0.0
C140 C 0.80408 0.81499 0.31024 0.0
O141 O 0.82984 0.80441 0.36408 0.0
N142 N 0.81036 0.87999 0.47752 0.0
C143 C 0.81741 0.89968 0.55317 0.0
C144 C 0.80348 0.88087 0.62556 0.0
C145 C 0.79094 0.84988 0.50636 0.0
N146 N 0.78709 0.84947 0.59597 0.0
C147 C 0.88888 0.88117 0.42578 0.0
C148 C 0.91759 0.84583 0.27822 0.0
C149 C 0.94029 0.85533 0.34939 0.0
C150 C 0.92489 0.87163 0.42538 0.0
C151 C 0.8812 0.85486 0.28253 0.0
N152 N 0.86727 0.87328 0.35496 0.0
H153 H 0.87918 0.89712 0.48164 0.0
H154 H 0.8647 0.84796 0.22615 0.0
H155 H 0.83145 0.92641 0.55658 0.0
H156 H 0.77795 0.82958 0.46372 0.0
O157 O 0.83503 0.94542 0.3982 0.0
O158 O 0.779 0.93125 0.36516 0.0
O159 O 0.79563 0.85008 0.30405 0.0
C160 C 0.802 0.95616 0.3944 0.0
H161 H 0.81924 0.91127 1.01469 0.0
H162 H 0.80527 0.88958 0.69465 0.0
H163 H 0.92798 0.83338 0.21756 0.0
H164 H 0.94081 0.87881 0.48313 0.0
Co165 Co 0.19939 0.14928 0.86181 0.0
C166 C 0.18287 0.09704 0.70872 0.0
C167 C 0.21185 0.1463 0.66673 0.0
C168 C 0.20667 0.12342 0.59393 0.0
N169 N 0.19662 0.13018 0.73922 0.0
N170 N 0.18871 0.09232 0.62019 0.0
H171 H 0.16983 0.07623 0.75046 0.0
H172 H 0.2268 0.17244 0.66585 0.0
C173 C 0.21223 0.23062 0.8067 0.0
O174 O 0.18218 0.24076 0.84476 0.0
N175 N 0.20453 0.16818 0.98477 0.0
C176 C 0.1979 0.14849 0.06063 0.0
C177 C 0.2098 0.1688 0.13295 0.0
C178 C 0.22119 0.20012 1.01338 0.0
N179 N 0.22437 0.20126 0.10314 0.0
C180 C 0.12872 0.16703 0.92186 0.0
C181 C 0.1019 0.19193 0.76105 0.0
C182 C 0.07824 0.18712 0.83307 0.0
C183 C 0.09261 0.17582 0.91505 0.0
C184 C 0.13826 0.18387 0.77148 0.0
N185 N 0.15139 0.17097 0.85105 0.0
H186 H 0.13769 0.15509 0.98368 0.0
H187 H 0.15556 0.18739 0.71461 0.0
H188 H 0.18577 0.12073 0.06404 0.0
H189 H 0.23296 0.22117 0.97038 0.0
O190 O 0.1842 0.10079 0.90519 0.0
O191 O 0.24077 0.11637 0.88274 0.0
O192 O 0.22389 0.19663 0.81424 0.0
C193 C 0.21746 0.09084 0.90748 0.0
H194 H 0.21742 0.12815 0.52779 0.0
H195 H 0.20839 0.16007 0.20209 0.0
H196 H 0.0924 0.20022 0.6958 0.0
H197 H 0.07596 0.17232 0.97348 0.0
Co198 Co 0.81172 0.14809 0.6627 0.0
C199 C 0.82882 0.09185 0.8081 0.0
C200 C 0.77962 0.12188 0.82793 0.0
C201 C 0.78476 0.09824 0.8992 0.0
N202 N 0.80736 0.11848 0.7713 0.0
N203 N 0.81562 0.0794 0.8872 0.0
H204 H 0.85347 0.0821 0.77833 0.0
H205 H 0.75681 0.14009 0.81781 0.0
C206 C 0.79578 0.22507 0.73638 0.0
O207 O 0.82553 0.23672 0.69889 0.0
N208 N 0.81301 0.17818 0.55242 0.0
C209 C 0.83011 0.17101 0.47477 0.0
C210 C 0.81947 0.19696 0.41136 0.0
C211 C 0.79058 0.20695 0.53222 0.0
N212 N 0.79457 0.21976 0.44781 0.0
C213 C 0.88596 0.16564 0.64439 0.0
C214 C 0.89844 0.18658 0.81898 0.0
C215 C 0.92703 0.18581 0.75855 0.0
C216 C 0.92032 0.17561 0.67023 0.0
C217 C 0.864 0.17737 0.7895 0.0
N218 N 0.85798 0.16737 0.70253 0.0
H219 H 0.88256 0.15454 0.57853 0.0
H220 H 0.84232 0.17747 0.83707 0.0
H221 H 0.8478 0.14744 0.46251 0.0
H222 H 0.77054 0.21739 0.57732 0.0
O223 O 0.82969 0.10495 0.60003 0.0
O224 O 0.77223 0.1188 0.61121 0.0
O225 O 0.78526 0.19081 0.72538 0.0
C226 C 0.79708 0.09649 0.57973 0.0
H227 H 0.76654 0.09427 0.95452 0.0
H228 H 0.82837 0.19777 0.34274 0.0
H229 H 0.90278 0.1936 0.88844 0.0
H230 H 0.94192 0.17312 0.62249 0.0
Co231 Co 0.20496 0.89758 0.17116 0.0
C232 C 0.19041 0.95294 0.31824 0.0
C233 C 0.23739 0.91945 0.34032 0.0
C234 C 0.23261 0.94279 0.41248 0.0
N235 N 0.2108 0.92537 0.28161 0.0
N236 N 0.20316 0.96383 0.39884 0.0
H237 H 0.16689 0.96469 0.28693 0.0
H238 H 0.25924 0.89988 0.33106 0.0
C239 C 0.22573 0.81778 0.21977 0.0
O240 O 0.19987 0.80526 0.16861 0.0
N241 N 0.20086 0.8692 0.05965 0.0
C242 C 0.17243 0.86343 1.00599 0.0
C243 C 0.18224 0.83996 0.93692 0.0
C244 C 0.22787 0.85016 0.0198 0.0
N245 N 0.21703 0.8315 0.9459 0.0
C246 C 0.12896 0.89406 0.17467 0.0
C247 C 0.12105 0.84716 0.32075 0.0
C248 C 0.09068 0.86021 0.27605 0.0
C249 C 0.09492 0.88412 0.20288 0.0
C250 C 0.15501 0.85755 0.28933 0.0
N251 N 0.1587 0.87939 0.21429 0.0
H252 H 0.13107 0.91432 0.12121 0.0
H253 H 0.17802 0.84914 0.32757 0.0
H254 H 0.14618 0.87506 1.0143 0.0
H255 H 0.25461 0.84873 0.04665 0.0
O256 O 0.18823 0.94235 0.11188 0.0
O257 O 0.24503 0.926 0.11882 0.0
O258 O 0.23139 0.85342 0.22741 0.0
C259 C 0.22089 0.94968 0.0901 0.0
H260 H 0.25024 0.94516 0.46933 0.0
H261 H 0.16509 0.82995 0.88387 0.0
H262 H 0.11854 0.8301 0.3805 0.0
H263 H 0.07195 0.89613 0.16942 0.0
C264 C 0.49677 0.38369 0.33896 0.0
C265 C 0.47627 0.35443 0.30093 0.0
H266 H 0.54746 0.41047 0.35036 0.0
C267 C 0.49332 0.32858 0.24328 0.0
H268 H 0.48481 0.40491 0.38169 0.0
C269 C 0.52982 0.33254 0.22328 0.0
C270 C 0.54973 0.36251 0.26021 0.0
H271 H 0.47847 0.30562 0.21305 0.0
H272 H 0.5421 0.31303 0.17671 0.0
C273 C 0.53286 0.38735 0.31983 0.0
C274 C 0.52577 0.72415 0.77839 0.0
C275 C 0.54127 0.69657 0.83428 0.0
H276 H 0.47815 0.74394 0.7138 0.0
C277 C 0.51847 0.67006 0.87611 0.0
H278 H 0.54196 0.74561 0.74636 0.0
C279 C 0.48178 0.67027 0.86007 0.0
C280 C 0.46696 0.69635 0.80036 0.0
H281 H 0.52891 0.64766 0.91781 0.0
H282 H 0.4653 0.64844 0.89 0.0
C283 C 0.4891 0.72366 0.76061 0.0
C284 C 0.03306 0.82462 0.27323 0.0
C285 C 0.0543 0.85347 0.30967 0.0
H286 H 0.98043 0.80164 0.25927 0.0
C287 C 0.0386 0.88075 0.36481 0.0
H288 H 0.0447 0.80372 0.229 0.0
C289 C 1.00191 0.88037 0.38019 0.0
C290 C 0.97996 0.85241 0.34127 0.0
H291 H 0.05444 0.9038 0.39158 0.0
H292 H 0.99069 0.90345 0.41853 0.0
C293 C 0.99623 0.82388 0.28949 0.0
C294 C 0.01528 0.1671 0.87024 0.0
C295 C 0.03872 0.19063 0.82145 0.0
H296 H 0.96158 0.14797 0.88992 0.0
C297 C 0.02403 0.21563 0.75815 0.0
H298 H 0.02523 0.14675 0.91809 0.0
C299 C 0.98735 0.21554 0.7408 0.0
C300 C 0.96443 0.19107 0.78763 0.0
H301 H 0.04087 0.23477 0.72049 0.0
H302 H 0.97697 0.23388 0.68902 0.0
C303 C 0.9786 0.16763 0.85412 0.0
C304 C 0.33943 0.51939 0.924 0.0
C305 C 0.32763 0.55391 0.95993 0.0
H306 H 0.3501 0.46057 0.94815 0.0
C307 C 0.32196 0.55632 0.05269 0.0
H308 H 0.34396 0.51659 0.85298 0.0
C309 C 0.32545 0.52431 0.10728 0.0
C310 C 0.3344 0.48903 0.07019 0.0
H311 H 0.31332 0.58273 0.08249 0.0
H312 H 0.31888 0.5267 0.17738 0.0
C313 C 0.34263 0.48726 0.97849 0.0
C314 C 0.70907 0.5016 0.52867 0.0
C315 C 0.69947 0.50422 0.43825 0.0
H316 H 0.7124 0.52976 0.65501 0.0
C317 C 0.68192 0.53693 0.40822 0.0
H318 H 0.72239 0.4765 0.55348 0.0
C319 C 0.67648 0.56756 0.46614 0.0
C320 C 0.68789 0.56573 0.55545 0.0
H321 H 0.67442 0.5397 0.33883 0.0
H322 H 0.66457 0.59328 0.44039 0.0
C323 C 0.70307 0.5319 0.5869 0.0
C324 C 0.75644 0.54987 0.98782 0.0
C325 C 0.73155 0.55654 0.91941 0.0
H326 H 0.77421 0.51082 0.08935 0.0
C327 C 0.71019 0.5264 0.8899 0.0
H328 H 0.77271 0.57289 1.0129 0.0
C329 C 0.7113 0.49135 0.93237 0.0
C330 C 0.73349 0.48555 1.0062 0.0
H331 H 0.69055 0.53056 0.83815 0.0
H332 H 0.69253 0.46963 0.91194 0.0
C333 C 0.75734 0.51442 0.03139 0.0
C334 C 0.26824 0.50146 0.49898 0.0
C335 C 0.29764 0.49117 0.44557 0.0
H336 H 0.24644 0.54312 0.58989 0.0
C337 C 0.3255 0.51729 0.43445 0.0
H338 H 0.24651 0.4817 0.50923 0.0
C339 C 0.32563 0.55147 0.48024 0.0
C340 C 0.29778 0.56104 0.53857 0.0
H341 H 0.34841 0.51054 0.3933 0.0
H342 H 0.34857 0.56984 0.47241 0.0
C343 C 0.26827 0.53644 0.54526 0.0
C344 C 0.82336 0.05299 0.03809 0.0
C345 C 0.82859 0.04995 0.94541 0.0
H346 H 0.822 0.02458 0.16407 0.0
C347 C 0.84171 1.01577 0.91061 0.0
H348 H 0.81361 0.07919 0.06673 0.0
C349 C 0.84653 0.98431 0.96654 0.0
C350 C 0.83859 0.98653 0.05839 0.0
H351 H 0.84588 1.01263 0.83953 0.0
H352 H 0.85494 0.95773 0.93725 0.0
C353 C 0.82843 1.02174 0.09401 0.0
C354 C 0.1908 1.02267 0.60417 0.0
C355 C 0.18424 0.05854 0.56711 0.0
H356 H 0.20182 0.96403 0.57861 0.0
C357 C 0.17845 0.06136 0.47454 0.0
H358 H 0.19558 1.0196 0.675 0.0
C359 C 0.18179 0.02949 0.41939 0.0
C360 C 0.19148 0.99433 0.45576 0.0
H361 H 0.17309 0.08866 0.44437 0.0
H362 H 0.17936 0.03289 0.34789 0.0
C363 C 0.19462 0.99095 0.54894 0.0
C364 C 0.20334 1.02261 0.91459 0.0
C365 C 0.22647 0.05216 0.93851 0.0
H366 H 0.18435 0.96683 0.94298 0.0
C367 C 0.25266 0.04531 1.00377 0.0
H368 H 0.18293 0.02698 0.86458 0.0
C369 C 0.25346 1.01029 0.04949 0.0
C370 C 0.22806 0.9821 0.03001 0.0
H371 H 0.27046 0.06786 0.02432 0.0
H372 H 0.27191 1.00647 0.10425 0.0
C373 C 0.20412 0.98812 0.95965 0.0
C374 C 0.81575 0.05825 0.45045 0.0
C375 C 0.79067 0.0643 0.51845 0.0
H376 H 0.83822 1.01962 0.35694 0.0
C377 C 0.76443 0.03652 0.53406 0.0
H378 H 0.83618 0.07916 0.43646 0.0
C379 C 0.76552 1.00179 0.48721 0.0
C380 C 0.79281 0.99485 0.42465 0.0
H381 H 0.745 0.04038 0.58679 0.0
H382 H 0.74702 0.97944 0.50506 0.0
C383 C 0.81684 1.02407 0.40441 0.0
C384 C 0.25659 0.29578 0.18682 0.0
C385 C 0.27809 0.28503 0.25943 0.0
H386 H 0.22314 0.27728 0.0789 0.0
C387 C 0.28099 0.24628 0.28033 0.0
H388 H 0.25351 0.32534 0.16914 0.0
C389 C 0.26303 0.21897 0.22976 0.0
C390 C 0.24229 0.22963 0.15596 0.0
H391 H 0.2972 0.23694 0.33586 0.0
H392 H 0.266 0.18935 0.24721 0.0
C393 C 0.23927 0.26831 0.13491 0.0
C394 C 0.75766 0.7551 0.6851 0.0
C395 C 0.73569 0.76576 0.75708 0.0
H396 H 0.79047 0.77363 0.57593 0.0
C397 C 0.73113 0.80459 0.77517 0.0
H398 H 0.7622 0.72552 0.66972 0.0
C399 C 0.74812 0.83203 0.72258 0.0
C400 C 0.7693 0.82128 0.6495 0.0
H401 H 0.71454 0.81384 0.83019 0.0
H402 H 0.74427 0.86173 0.73809 0.0
C403 C 0.77382 0.78258 0.63111 0.0
C404 C 0.22146 0.77334 0.85453 0.0
C405 C 0.23748 0.8059 0.89104 0.0
H406 H 0.22831 0.72301 0.77612 0.0
C407 C 0.27366 0.81289 0.87345 0.0
H408 H 0.1937 0.76704 0.86781 0.0
C409 C 0.29334 0.78802 0.8198 0.0
C410 C 0.27743 0.75521 0.78412 0.0
H411 H 0.28658 0.83784 0.90038 0.0
H412 H 0.32123 0.79418 0.80758 0.0
C413 C 0.2413 0.74807 0.80238 0.0
C414 C 0.72807 0.298 0.40941 0.0
C415 C 0.74116 0.31511 0.33141 0.0
H416 H 0.73347 0.25415 0.50543 0.0
C417 C 0.77137 0.29946 0.28988 0.0
H418 H 0.70455 0.30896 0.44252 0.0
C419 C 0.78863 0.26795 0.32714 0.0
C420 C 0.77584 0.2511 0.4063 0.0
H421 H 0.78209 0.312 0.22957 0.0
H422 H 0.8124 0.25741 0.29469 0.0
C423 C 0.74496 0.26638 0.44594 0.0
C424 C 0.74727 0.76916 0.12969 0.0
C425 C 0.75082 0.73045 0.1497 0.0
H426 H 0.75992 0.82625 0.16651 0.0
C427 C 0.77119 0.71978 0.22415 0.0
H428 H 0.7313 0.77812 0.07339 0.0
C429 C 0.78832 0.74721 0.27639 0.0
C430 C 0.78478 0.78603 0.25663 0.0
H431 H 0.77437 0.69011 0.24096 0.0
H432 H 0.80428 0.73794 0.33245 0.0
C433 C 0.76361 0.79668 0.1833 0.0
C434 C 0.21366 0.28513 0.69995 0.0
C435 C 0.23217 0.25864 0.75258 0.0
H436 H 0.21754 0.33117 0.60614 0.0
C437 C 0.26962 0.25881 0.75133 0.0
H438 H 0.18478 0.28536 0.69904 0.0
C439 C 0.28817 0.28562 0.70011 0.0
C440 C 0.26962 0.31177 0.64691 0.0
H441 H 0.28452 0.23869 0.79115 0.0
H442 H 0.31704 0.2858 0.70115 0.0
C443 C 0.23225 0.31109 0.64648 0.0
C444 C 0.73783 0.24588 0.80578 0.0
C445 C 0.77424 0.25228 0.78899 0.0
H446 H 0.68985 0.26665 0.86712 0.0
C447 C 0.79023 0.28532 0.82292 0.0
H448 H 0.72474 0.22072 0.78034 0.0
C449 C 0.77045 0.31117 0.87328 0.0
C450 C 0.73404 0.30499 0.88963 0.0
H451 H 0.81825 0.29105 0.81145 0.0
H452 H 0.78354 0.33631 0.89863 0.0
C453 C 0.71782 0.27222 0.85486 0.0
C454 C 0.25188 0.75335 0.2447 0.0
C455 C 0.24617 0.79056 0.2749 0.0
H456 H 0.27462 0.69881 0.27242 0.0
C457 C 0.25903 0.80101 0.3595 0.0
H458 H 0.24222 0.74449 0.1799 0.0
C459 C 0.27682 0.77457 0.41325 0.0
C460 C 0.28291 0.73752 0.38248 0.0
H461 H 0.25468 0.82938 0.38493 0.0
H462 H 0.2863 0.78317 0.47837 0.0
C463 C 0.27047 0.72726 0.29744 0.0
loop_
_geom_bond_atom_site_label_1
_geom_bond_atom_site_label_2
_geom_bond_distance
_geom_bond_site_symmetry_2
_ccdc_geom_bond_type
Co0 N4 2.148 . S
Co0 N10 2.128 . S
Co0 N20 2.194 . S
Co0 O25 2.351 . S
Co0 O26 2.155 . S
Co0 O27 2.096 . S
C1 N4 1.301 . S
C1 N5 1.328 . S
C1 H6 0.930 . S
C2 C3 1.333 . S
C2 N4 1.317 . S
C2 H7 0.930 . S
C3 C2 1.333 . S
C3 N5 1.350 . S
C3 H29 0.931 . S
N4 Co0 2.148 . S
N4 C1 1.301 . S
N4 C2 1.317 . S
N5 C1 1.328 . S
N5 C3 1.350 . S
H6 C1 0.930 . S
H7 C2 0.930 . S
C8 O9 1.224 . S
C8 O27 1.247 . S
O9 C8 1.224 . S
N10 Co0 2.128 . S
N10 C11 1.355 . S
N10 C13 1.311 . S
C11 N10 1.355 . S
C11 C12 1.363 . S
C11 H23 0.929 . S
C12 C11 1.363 . S
C12 N14 1.375 . S
C12 H30 0.931 . S
C13 N10 1.311 . S
C13 N14 1.347 . S
C13 H24 0.929 . S
N14 C12 1.375 . S
N14 C13 1.347 . S
C15 C18 1.365 . S
C15 N20 1.328 . S
C15 H21 0.929 . S
C16 C17 1.362 . S
C16 C19 1.378 . S
C16 H31 0.929 . S
C17 C16 1.362 . S
C17 C18 1.366 . S
C18 C15 1.365 . S
C18 C17 1.366 . S
C18 H32 0.930 . S
C19 C16 1.378 . S
C19 N20 1.315 . S
C19 H22 0.930 . S
N20 Co0 2.194 . S
N20 C15 1.328 . S
N20 C19 1.315 . S
H21 C15 0.929 . S
H22 C19 0.930 . S
H23 C11 0.929 . S
H24 C13 0.929 . S
O25 Co0 2.351 . S
O25 C28 1.244 . S
O26 Co0 2.155 . S
O26 C28 1.240 . S
O27 Co0 2.096 . S
O27 C8 1.247 . S
C28 O25 1.244 . S
C28 O26 1.240 . S
H29 C3 0.931 . S
H30 C12 0.931 . S
H31 C16 0.929 . S
H32 C18 0.930 . S
Co33 N37 2.148 . S
Co33 N43 2.128 . S
Co33 N53 2.194 . S
Co33 O58 2.351 . S
Co33 O59 2.155 . S
Co33 O60 2.096 . S
C34 N37 1.301 . S
C34 N38 1.328 . S
C34 H39 0.930 . S
C35 C36 1.333 . S
C35 N37 1.317 . S
C35 H40 0.930 . S
C36 C35 1.333 . S
C36 N38 1.350 . S
C36 H62 0.931 . S
N37 Co33 2.148 . S
N37 C34 1.301 . S
N37 C35 1.317 . S
N38 C34 1.328 . S
N38 C36 1.350 . S
H39 C34 0.930 . S
H40 C35 0.930 . S
C41 O42 1.224 . S
C41 O60 1.247 . S
O42 C41 1.224 . S
N43 Co33 2.128 . S
N43 C44 1.355 . S
N43 C46 1.311 . S
C44 N43 1.355 . S
C44 C45 1.363 1_556 S
C44 H56 0.929 . S
C45 C44 1.363 1_554 S
C45 N47 1.375 1_554 S
C45 H63 0.931 . S
C46 N43 1.311 . S
C46 N47 1.347 . S
C46 H57 0.929 . S
N47 C45 1.375 1_556 S
N47 C46 1.347 . S
C48 C51 1.365 . S
C48 N53 1.328 . S
C48 H54 0.929 . S
C49 C50 1.362 . S
C49 C52 1.378 . S
C49 H64 0.929 . S
C50 C49 1.362 . S
C50 C51 1.366 . S
C51 C48 1.365 . S
C51 C50 1.366 . S
C51 H65 0.930 . S
C52 C49 1.378 . S
C52 N53 1.315 . S
C52 H55 0.930 . S
N53 Co33 2.194 . S
N53 C48 1.328 . S
N53 C52 1.315 . S
H54 C48 0.929 . S
H55 C52 0.930 . S
H56 C44 0.929 . S
H57 C46 0.929 . S
O58 Co33 2.351 . S
O58 C61 1.244 . S
O59 Co33 2.155 . S
O59 C61 1.240 . S
O60 Co33 2.096 . S
O60 C41 1.247 . S
C61 O58 1.244 . S
C61 O59 1.240 . S
H62 C36 0.931 . S
H63 C45 0.931 . S
H64 C49 0.929 . S
H65 C51 0.930 . S
Co66 N70 2.148 . S
Co66 N76 2.128 . S
Co66 N86 2.194 . S
Co66 O91 2.351 . S
Co66 O92 2.155 . S
Co66 O93 2.096 . S
C67 N70 1.301 . S
C67 N71 1.328 . S
C67 H72 0.930 . S
C68 C69 1.333 . S
C68 N70 1.317 . S
C68 H73 0.930 . S
C69 C68 1.333 . S
C69 N71 1.350 . S
C69 H95 0.931 . S
N70 Co66 2.148 . S
N70 C67 1.301 . S
N70 C68 1.317 . S
N71 C67 1.328 . S
N71 C69 1.350 . S
H72 C67 0.930 . S
H73 C68 0.930 . S
C74 O75 1.224 . S
C74 O93 1.247 . S
O75 C74 1.224 . S
N76 Co66 2.128 . S
N76 C77 1.355 . S
N76 C79 1.311 . S
C77 N76 1.355 . S
C77 C78 1.363 . S
C77 H89 0.929 . S
C78 C77 1.363 . S
C78 N80 1.375 . S
C78 H96 0.931 . S
C79 N76 1.311 . S
C79 N80 1.347 . S
C79 H90 0.929 . S
N80 C78 1.375 . S
N80 C79 1.347 . S
C81 C84 1.365 . S
C81 N86 1.328 . S
C81 H87 0.929 . S
C82 C83 1.362 . S
C82 C85 1.378 . S
C82 H97 0.929 . S
C83 C82 1.362 . S
C83 C84 1.366 . S
C84 C81 1.365 . S
C84 C83 1.366 . S
C84 H98 0.930 . S
C85 C82 1.378 . S
C85 N86 1.315 . S
C85 H88 0.930 . S
N86 Co66 2.194 . S
N86 C81 1.328 . S
N86 C85 1.315 . S
H87 C81 0.929 . S
H88 C85 0.930 . S
H89 C77 0.929 . S
H90 C79 0.929 . S
O91 Co66 2.351 . S
O91 C94 1.244 . S
O92 Co66 2.155 . S
O92 C94 1.240 . S
O93 Co66 2.096 . S
O93 C74 1.247 . S
C94 O91 1.244 . S
C94 O92 1.240 . S
H95 C69 0.931 . S
H96 C78 0.931 . S
H97 C82 0.929 . S
H98 C84 0.930 . S
Co99 N103 2.148 . S
Co99 N109 2.128 . S
Co99 N119 2.194 . S
Co99 O124 2.351 . S
Co99 O125 2.155 . S
Co99 O126 2.096 . S
C100 N103 1.301 . S
C100 N104 1.328 . S
C100 H105 0.930 . S
C101 C102 1.333 . S
C101 N103 1.317 . S
C101 H106 0.930 . S
C102 C101 1.333 . S
C102 N104 1.350 . S
C102 H128 0.931 . S
N103 Co99 2.148 . S
N103 C100 1.301 . S
N103 C101 1.317 . S
N104 C100 1.328 . S
N104 C102 1.350 . S
H105 C100 0.930 . S
H106 C101 0.930 . S
C107 O108 1.224 . S
C107 O126 1.247 . S
O108 C107 1.224 . S
N109 Co99 2.128 . S
N109 C110 1.355 . S
N109 C112 1.311 . S
C110 N109 1.355 . S
C110 C111 1.363 1_554 S
C110 H122 0.929 . S
C111 C110 1.363 1_556 S
C111 N113 1.375 1_556 S
C111 H129 0.931 . S
C112 N109 1.311 . S
C112 N113 1.347 . S
C112 H123 0.929 . S
N113 C111 1.375 1_554 S
N113 C112 1.347 . S
C114 C117 1.365 . S
C114 N119 1.328 . S
C114 H120 0.929 . S
C115 C116 1.362 . S
C115 C118 1.378 . S
C115 H130 0.929 . S
C116 C115 1.362 . S
C116 C117 1.366 . S
C117 C114 1.365 . S
C117 C116 1.366 . S
C117 H131 0.930 . S
C118 C115 1.378 . S
C118 N119 1.315 . S
C118 H121 0.930 . S
N119 Co99 2.194 . S
N119 C114 1.328 . S
N119 C118 1.315 . S
H120 C114 0.929 . S
H121 C118 0.930 . S
H122 C110 0.929 . S
H123 C112 0.929 . S
O124 Co99 2.351 . S
O124 C127 1.244 . S
O125 Co99 2.155 . S
O125 C127 1.240 . S
O126 Co99 2.096 . S
O126 C107 1.247 . S
C127 O124 1.244 . S
C127 O125 1.240 . S
H128 C102 0.931 . S
H129 C111 0.931 . S
H130 C115 0.929 . S
H131 C117 0.930 . S
Co132 N136 2.148 . S
Co132 N142 2.128 . S
Co132 N152 2.194 . S
Co132 O157 2.351 . S
Co132 O158 2.155 . S
Co132 O159 2.096 . S
C133 N136 1.301 . S
C133 N137 1.328 . S
C133 H138 0.930 . S
C134 C135 1.333 . S
C134 N136 1.317 . S
C134 H139 0.930 . S
C135 C134 1.333 . S
C135 N137 1.350 . S
C135 H161 0.931 . S
N136 Co132 2.148 . S
N136 C133 1.301 . S
N136 C134 1.317 . S
N137 C133 1.328 . S
N137 C135 1.350 . S
H138 C133 0.930 . S
H139 C134 0.930 . S
C140 O141 1.224 . S
C140 O159 1.247 . S
O141 C140 1.224 . S
N142 Co132 2.128 . S
N142 C143 1.355 . S
N142 C145 1.311 . S
C143 N142 1.355 . S
C143 C144 1.363 . S
C143 H155 0.929 . S
C144 C143 1.363 . S
C144 N146 1.375 . S
C144 H162 0.931 . S
C145 N142 1.311 . S
C145 N146 1.347 . S
C145 H156 0.929 . S
N146 C144 1.375 . S
N146 C145 1.347 . S
C147 C150 1.365 . S
C147 N152 1.328 . S
C147 H153 0.929 . S
C148 C149 1.362 . S
C148 C151 1.378 . S
C148 H163 0.929 . S
C149 C148 1.362 . S
C149 C150 1.366 . S
C150 C147 1.365 . S
C150 C149 1.366 . S
C150 H164 0.930 . S
C151 C148 1.378 . S
C151 N152 1.315 . S
C151 H154 0.930 . S
N152 Co132 2.194 . S
N152 C147 1.328 . S
N152 C151 1.315 . S
H153 C147 0.929 . S
H154 C151 0.930 . S
H155 C143 0.929 . S
H156 C145 0.929 . S
O157 Co132 2.351 . S
O157 C160 1.244 . S
O158 Co132 2.155 . S
O158 C160 1.240 . S
O159 Co132 2.096 . S
O159 C140 1.247 . S
C160 O157 1.244 . S
C160 O158 1.240 . S
H161 C135 0.931 . S
H162 C144 0.931 . S
H163 C148 0.929 . S
H164 C150 0.930 . S
Co165 N169 2.148 . S
Co165 N175 2.128 . S
Co165 N185 2.194 . S
Co165 O190 2.351 . S
Co165 O191 2.155 . S
Co165 O192 2.096 . S
C166 N169 1.301 . S
C166 N170 1.328 . S
C166 H171 0.930 . S
C167 C168 1.333 . S
C167 N169 1.317 . S
C167 H172 0.930 . S
C168 C167 1.333 . S
C168 N170 1.350 . S
C168 H194 0.931 . S
N169 Co165 2.148 . S
N169 C166 1.301 . S
N169 C167 1.317 . S
N170 C166 1.328 . S
N170 C168 1.350 . S
H171 C166 0.930 . S
H172 C167 0.930 . S
C173 O174 1.224 . S
C173 O192 1.247 . S
O174 C173 1.224 . S
N175 Co165 2.128 . S
N175 C176 1.355 . S
N175 C178 1.311 . S
C176 N175 1.355 . S
C176 C177 1.363 1_556 S
C176 H188 0.929 . S
C177 C176 1.363 1_554 S
C177 N179 1.375 1_554 S
C177 H195 0.931 . S
C178 N175 1.311 . S
C178 N179 1.347 . S
C178 H189 0.929 . S
N179 C177 1.375 1_556 S
N179 C178 1.347 . S
C180 C183 1.365 . S
C180 N185 1.328 . S
C180 H186 0.929 . S
C181 C182 1.362 . S
C181 C184 1.378 . S
C181 H196 0.929 . S
C182 C181 1.362 . S
C182 C183 1.366 . S
C183 C180 1.365 . S
C183 C182 1.366 . S
C183 H197 0.930 . S
C184 C181 1.378 . S
C184 N185 1.315 . S
C184 H187 0.930 . S
N185 Co165 2.194 . S
N185 C180 1.328 . S
N185 C184 1.315 . S
H186 C180 0.929 . S
H187 C184 0.930 . S
H188 C176 0.929 . S
H189 C178 0.929 . S
O190 Co165 2.351 . S
O190 C193 1.244 . S
O191 Co165 2.155 . S
O191 C193 1.240 . S
O192 Co165 2.096 . S
O192 C173 1.247 . S
C193 O190 1.244 . S
C193 O191 1.240 . S
H194 C168 0.931 . S
H195 C177 0.931 . S
H196 C181 0.929 . S
H197 C183 0.930 . S
Co198 N202 2.148 . S
Co198 N208 2.128 . S
Co198 N218 2.194 . S
Co198 O223 2.351 . S
Co198 O224 2.155 . S
Co198 O225 2.096 . S
C199 N202 1.301 . S
C199 N203 1.328 . S
C199 H204 0.930 . S
C200 C201 1.333 . S
C200 N202 1.317 . S
C200 H205 0.930 . S
C201 C200 1.333 . S
C201 N203 1.350 . S
C201 H227 0.931 . S
N202 Co198 2.148 . S
N202 C199 1.301 . S
N202 C200 1.317 . S
N203 C199 1.328 . S
N203 C201 1.350 . S
H204 C199 0.930 . S
H205 C200 0.930 . S
C206 O207 1.224 . S
C206 O225 1.247 . S
O207 C206 1.224 . S
N208 Co198 2.128 . S
N208 C209 1.355 . S
N208 C211 1.311 . S
C209 N208 1.355 . S
C209 C210 1.363 . S
C209 H221 0.929 . S
C210 C209 1.363 . S
C210 N212 1.375 . S
C210 H228 0.931 . S
C211 N208 1.311 . S
C211 N212 1.347 . S
C211 H222 0.929 . S
N212 C210 1.375 . S
N212 C211 1.347 . S
C213 C216 1.365 . S
C213 N218 1.328 . S
C213 H219 0.929 . S
C214 C215 1.362 . S
C214 C217 1.378 . S
C214 H229 0.929 . S
C215 C214 1.362 . S
C215 C216 1.366 . S
C216 C213 1.365 . S
C216 C215 1.366 . S
C216 H230 0.930 . S
C217 C214 1.378 . S
C217 N218 1.315 . S
C217 H220 0.930 . S
N218 Co198 2.194 . S
N218 C213 1.328 . S
N218 C217 1.315 . S
H219 C213 0.929 . S
H220 C217 0.930 . S
H221 C209 0.929 . S
H222 C211 0.929 . S
O223 Co198 2.351 . S
O223 C226 1.244 . S
O224 Co198 2.155 . S
O224 C226 1.240 . S
O225 Co198 2.096 . S
O225 C206 1.247 . S
C226 O223 1.244 . S
C226 O224 1.240 . S
H227 C201 0.931 . S
H228 C210 0.931 . S
H229 C214 0.929 . S
H230 C216 0.930 . S
Co231 N235 2.148 . S
Co231 N241 2.128 . S
Co231 N251 2.194 . S
Co231 O256 2.351 . S
Co231 O257 2.155 . S
Co231 O258 2.096 . S
C232 N235 1.301 . S
C232 N236 1.328 . S
C232 H237 0.930 . S
C233 C234 1.333 . S
C233 N235 1.317 . S
C233 H238 0.930 . S
C234 C233 1.333 . S
C234 N236 1.350 . S
C234 H260 0.931 . S
N235 Co231 2.148 . S
N235 C232 1.301 . S
N235 C233 1.317 . S
N236 C232 1.328 . S
N236 C234 1.350 . S
H237 C232 0.930 . S
H238 C233 0.930 . S
C239 O240 1.224 . S
C239 O258 1.247 . S
O240 C239 1.224 . S
N241 Co231 2.128 . S
N241 C242 1.355 . S
N241 C244 1.311 . S
C242 N241 1.355 . S
C242 C243 1.363 1_554 S
C242 H254 0.929 . S
C243 C242 1.363 1_556 S
C243 N245 1.375 1_556 S
C243 H261 0.931 . S
C244 N241 1.311 . S
C244 N245 1.347 . S
C244 H255 0.929 . S
N245 C243 1.375 1_554 S
N245 C244 1.347 . S
C246 C249 1.365 . S
C246 N251 1.328 . S
C246 H252 0.929 . S
C247 C248 1.362 . S
C247 C250 1.378 . S
C247 H262 0.929 . S
C248 C247 1.362 . S
C248 C249 1.366 . S
C249 C246 1.365 . S
C249 C248 1.366 . S
C249 H263 0.930 . S
C250 C247 1.378 . S
C250 N251 1.315 . S
C250 H253 0.930 . S
N251 Co231 2.194 . S
N251 C246 1.328 . S
N251 C250 1.315 . S
H252 C246 0.929 . S
H253 C250 0.930 . S
H254 C242 0.929 . S
H255 C244 0.929 . S
O256 Co231 2.351 . S
O256 C259 1.244 . S
O257 Co231 2.155 . S
O257 C259 1.240 . S
O258 Co231 2.096 . S
O258 C239 1.247 . S
C259 O256 1.244 . S
C259 O257 1.240 . S
H260 C234 0.931 . S
H261 C243 0.931 . S
H262 C247 0.929 . S
H263 C249 0.930 . S
C264 C265 1.387 . S
C264 H268 0.950 . S
C264 C273 1.390 . S
C265 C264 1.387 . S
C265 C267 1.387 . S
H266 C273 0.950 . S
C267 C265 1.387 . S
C267 C269 1.390 . S
C267 H271 0.950 . S
H268 C264 0.950 . S
C269 C267 1.390 . S
C269 C270 1.387 . S
C269 H272 0.950 . S
C270 C269 1.387 . S
C270 C273 1.387 . S
H271 C267 0.950 . S
H272 C269 0.950 . S
C273 C264 1.390 . S
C273 H266 0.950 . S
C273 C270 1.387 . S
C274 C275 1.387 . S
C274 H278 0.950 . S
C274 C283 1.390 . S
C275 C274 1.387 . S
C275 C277 1.387 . S
H276 C283 0.950 . S
C277 C275 1.387 . S
C277 C279 1.390 . S
C277 H281 0.950 . S
H278 C274 0.950 . S
C279 C277 1.390 . S
C279 C280 1.387 . S
C279 H282 0.950 . S
C280 C279 1.387 . S
C280 C283 1.387 . S
H281 C277 0.950 . S
H282 C279 0.950 . S
C283 C274 1.390 . S
C283 H276 0.950 . S
C283 C280 1.387 . S
C284 C285 1.387 . S
C284 H288 0.950 . S
C284 C293 1.390 1_455 S
C285 C284 1.387 . S
C285 C287 1.387 . S
H286 C293 0.950 . S
C287 C285 1.387 . S
C287 C289 1.390 1_455 S
C287 H291 0.950 . S
H288 C284 0.950 . S
C289 C287 1.390 1_655 S
C289 C290 1.387 . S
C289 H292 0.950 . S
C290 C289 1.387 . S
C290 C293 1.387 . S
H291 C287 0.950 . S
H292 C289 0.950 . S
C293 C284 1.390 1_655 S
C293 H286 0.950 . S
C293 C290 1.387 . S
C294 C295 1.387 . S
C294 H298 0.950 . S
C294 C303 1.390 1_455 S
C295 C294 1.387 . S
C295 C297 1.387 . S
H296 C303 0.950 . S
C297 C295 1.387 . S
C297 C299 1.390 1_455 S
C297 H301 0.950 . S
H298 C294 0.950 . S
C299 C297 1.390 1_655 S
C299 C300 1.387 . S
C299 H302 0.950 . S
C300 C299 1.387 . S
C300 C303 1.387 . S
H301 C297 0.950 . S
H302 C299 0.950 . S
C303 C294 1.390 1_655 S
C303 H296 0.950 . S
C303 C300 1.387 . S
C304 C305 1.387 . S
C304 H308 0.950 . S
C304 C313 1.390 1_556 S
C305 C304 1.387 . S
C305 C307 1.387 . S
H306 C313 0.950 . S
C307 C305 1.387 . S
C307 C309 1.390 1_556 S
C307 H311 0.950 . S
H308 C304 0.950 . S
C309 C307 1.390 1_554 S
C309 C310 1.387 . S
C309 H312 0.950 . S
C310 C309 1.387 . S
C310 C313 1.387 . S
H311 C307 0.950 . S
H312 C309 0.950 . S
C313 C304 1.390 1_554 S
C313 H306 0.950 . S
C313 C310 1.387 . S
C314 C315 1.387 . S
C314 H318 0.950 . S
C314 C323 1.390 . S
C315 C314 1.387 . S
C315 C317 1.387 . S
H316 C323 0.950 . S
C317 C315 1.387 . S
C317 C319 1.390 . S
C317 H321 0.950 . S
H318 C314 0.950 . S
C319 C317 1.390 . S
C319 C320 1.387 . S
C319 H322 0.950 . S
C320 C319 1.387 . S
C320 C323 1.387 . S
H321 C317 0.950 . S
H322 C319 0.950 . S
C323 C314 1.390 . S
C323 H316 0.950 . S
C323 C320 1.387 . S
C324 C325 1.387 . S
C324 H328 0.950 . S
C324 C333 1.390 1_556 S
C325 C324 1.387 . S
C325 C327 1.387 . S
H326 C333 0.950 . S
C327 C325 1.387 . S
C327 C329 1.390 1_556 S
C327 H331 0.950 . S
H328 C324 0.950 . S
C329 C327 1.390 1_554 S
C329 C330 1.387 . S
C329 H332 0.950 . S
C330 C329 1.387 . S
C330 C333 1.387 . S
H331 C327 0.950 . S
H332 C329 0.950 . S
C333 C324 1.390 1_554 S
C333 H326 0.950 . S
C333 C330 1.387 . S
C334 C335 1.387 . S
C334 H338 0.950 . S
C334 C343 1.390 . S
C335 C334 1.387 . S
C335 C337 1.387 . S
H336 C343 0.950 . S
C337 C335 1.387 . S
C337 C339 1.390 . S
C337 H341 0.950 . S
H338 C334 0.950 . S
C339 C337 1.390 . S
C339 C340 1.387 . S
C339 H342 0.950 . S
C340 C339 1.387 . S
C340 C343 1.387 . S
H341 C337 0.950 . S
H342 C339 0.950 . S
C343 C334 1.390 . S
C343 H336 0.950 . S
C343 C340 1.387 . S
C344 C345 1.387 . S
C344 H348 0.950 . S
C344 C353 1.390 1_546 S
C345 C344 1.387 . S
C345 C347 1.387 . S
H346 C353 0.950 . S
C347 C345 1.387 . S
C347 C349 1.390 1_546 S
C347 H351 0.950 . S
H348 C344 0.950 . S
C349 C347 1.390 1_564 S
C349 C350 1.387 . S
C349 H352 0.950 . S
C350 C349 1.387 . S
C350 C353 1.387 . S
H351 C347 0.950 . S
H352 C349 0.950 . S
C353 C344 1.390 1_564 S
C353 H346 0.950 . S
C353 C350 1.387 . S
C354 C355 1.387 . S
C354 H358 0.950 . S
C354 C363 1.390 1_545 S
C355 C354 1.387 . S
C355 C357 1.387 . S
H356 C363 0.950 . S
C357 C355 1.387 . S
C357 C359 1.390 1_545 S
C357 H361 0.950 . S
H358 C354 0.950 . S
C359 C357 1.390 1_565 S
C359 C360 1.387 . S
C359 H362 0.950 . S
C360 C359 1.387 . S
C360 C363 1.387 . S
H361 C357 0.950 . S
H362 C359 0.950 . S
C363 C354 1.390 1_565 S
C363 H356 0.950 . S
C363 C360 1.387 . S
C364 C365 1.387 . S
C364 H368 0.950 . S
C364 C373 1.390 1_546 S
C365 C364 1.387 . S
C365 C367 1.387 . S
H366 C373 0.950 . S
C367 C365 1.387 . S
C367 C369 1.390 1_546 S
C367 H371 0.950 . S
H368 C364 0.950 . S
C369 C367 1.390 1_564 S
C369 C370 1.387 . S
C369 H372 0.950 . S
C370 C369 1.387 . S
C370 C373 1.387 . S
H371 C367 0.950 . S
H372 C369 0.950 . S
C373 C364 1.390 1_564 S
C373 H366 0.950 . S
C373 C370 1.387 . S
C374 C375 1.387 . S
C374 H378 0.950 . S
C374 C383 1.390 1_545 S
C375 C374 1.387 . S
C375 C377 1.387 . S
H376 C383 0.950 . S
C377 C375 1.387 . S
C377 C379 1.390 1_545 S
C377 H381 0.950 . S
H378 C374 0.950 . S
C379 C377 1.390 1_565 S
C379 C380 1.387 . S
C379 H382 0.950 . S
C380 C379 1.387 . S
C380 C383 1.387 . S
H381 C377 0.950 . S
H382 C379 0.950 . S
C383 C374 1.390 1_565 S
C383 H376 0.950 . S
C383 C380 1.387 . S
C384 C385 1.387 . S
C384 H388 0.950 . S
C384 C393 1.390 . S
C385 C384 1.387 . S
C385 C387 1.387 . S
H386 C393 0.950 1_556 S
C387 C385 1.387 . S
C387 C389 1.390 . S
C387 H391 0.950 . S
H388 C384 0.950 . S
C389 C387 1.390 . S
C389 C390 1.387 . S
C389 H392 0.950 . S
C390 C389 1.387 . S
C390 C393 1.387 . S
H391 C387 0.950 . S
H392 C389 0.950 . S
C393 C384 1.390 . S
C393 H386 0.950 1_554 S
C393 C390 1.387 . S
C394 C395 1.387 . S
C394 H398 0.950 . S
C394 C403 1.390 . S
C395 C394 1.387 . S
C395 C397 1.387 . S
H396 C403 0.950 . S
C397 C395 1.387 . S
C397 C399 1.390 . S
C397 H401 0.950 . S
H398 C394 0.950 . S
C399 C397 1.390 . S
C399 C400 1.387 . S
C399 H402 0.950 . S
C400 C399 1.387 . S
C400 C403 1.387 . S
H401 C397 0.950 . S
H402 C399 0.950 . S
C403 C394 1.390 . S
C403 H396 0.950 . S
C403 C400 1.387 . S
C404 C405 1.387 . S
C404 H408 0.950 . S
C404 C413 1.390 . S
C405 C404 1.387 . S
C405 C407 1.387 . S
H406 C413 0.950 . S
C407 C405 1.387 . S
C407 C409 1.390 . S
C407 H411 0.950 1_556 S
H408 C404 0.950 . S
C409 C407 1.390 . S
C409 C410 1.387 . S
C409 H412 0.950 . S
C410 C409 1.387 . S
C410 C413 1.387 . S
H411 C407 0.950 1_554 S
H412 C409 0.950 . S
C413 C404 1.390 . S
C413 H406 0.950 . S
C413 C410 1.387 . S
C414 C415 1.387 . S
C414 H418 0.950 . S
C414 C423 1.390 . S
C415 C414 1.387 . S
C415 C417 1.387 . S
H416 C423 0.950 . S
C417 C415 1.387 . S
C417 C419 1.390 . S
C417 H421 0.950 . S
H418 C414 0.950 . S
C419 C417 1.390 . S
C419 C420 1.387 . S
C419 H422 0.950 . S
C420 C419 1.387 . S
C420 C423 1.387 . S
H421 C417 0.950 . S
H422 C419 0.950 . S
C423 C414 1.390 . S
C423 H416 0.950 . S
C423 C420 1.387 . S
C424 C425 1.387 . S
C424 H428 0.950 1_554 S
C424 C433 1.390 . S
C425 C424 1.387 . S
C425 C427 1.387 . S
H426 C433 0.950 . S
C427 C425 1.387 . S
C427 C429 1.390 . S
C427 H431 0.950 . S
H428 C424 0.950 1_556 S
C429 C427 1.390 . S
C429 C430 1.387 . S
C429 H432 0.950 . S
C430 C429 1.387 . S
C430 C433 1.387 . S
H431 C427 0.950 . S
H432 C429 0.950 . S
C433 C424 1.390 . S
C433 H426 0.950 . S
C433 C430 1.387 . S
C434 C435 1.387 . S
C434 H438 0.950 . S
C434 C443 1.390 . S
C435 C434 1.387 . S
C435 C437 1.387 . S
H436 C443 0.950 . S
C437 C435 1.387 . S
C437 C439 1.390 . S
C437 H441 0.950 . S
H438 C434 0.950 . S
C439 C437 1.390 . S
C439 C440 1.387 . S
C439 H442 0.950 . S
C440 C439 1.387 . S
C440 C443 1.387 . S
H441 C437 0.950 . S
H442 C439 0.950 . S
C443 C434 1.390 . S
C443 H436 0.950 . S
C443 C440 1.387 . S
C444 C445 1.387 . S
C444 H448 0.950 . S
C444 C453 1.390 . S
C445 C444 1.387 . S
C445 C447 1.387 . S
H446 C453 0.950 . S
C447 C445 1.387 . S
C447 C449 1.390 . S
C447 H451 0.950 . S
H448 C444 0.950 . S
C449 C447 1.390 . S
C449 C450 1.387 . S
C449 H452 0.950 1_556 S
C450 C449 1.387 . S
C450 C453 1.387 . S
H451 C447 0.950 . S
H452 C449 0.950 1_554 S
C453 C444 1.390 . S
C453 H446 0.950 . S
C453 C450 1.387 . S
C454 C455 1.387 . S
C454 H458 0.950 . S
C454 C463 1.390 . S
C455 C454 1.387 . S
C455 C457 1.387 . S
H456 C463 0.950 . S
C457 C455 1.387 . S
C457 C459 1.390 . S
C457 H461 0.950 . S
H458 C454 0.950 . S
C459 C457 1.390 . S
C459 C460 1.387 . S
C459 H462 0.950 . S
C460 C459 1.387 . S
C460 C463 1.387 . S
H461 C457 0.950 . S
H462 C459 0.950 . S
C463 C454 1.390 . S
C463 H456 0.950 . S
C463 C460 1.387 . S
C265 C17 1.529 . S
C270 C116 1.529 . S
C275 C50 1.530 . S
C280 C83 1.530 . S
C285 C248 1.530 . S
C290 C149 1.530 . S
C295 C182 1.529 . S
C300 C215 1.529 . S
C305 N71 1.133 . S
C310 N5 1.133 . S
C315 N104 1.129 . S
C320 N38 1.129 . S
C325 C61 1.719 . S
C330 C127 1.719 . S
C335 C28 1.719 . S
C340 C94 1.719 . S
C345 N203 1.129 . S
C350 N137 1.129 . S
C355 N170 1.129 . S
C360 N236 1.129 . S
C365 C193 1.719 . S
C370 C259 1.719 . S
C375 C226 1.719 . S
C380 C160 1.719 . S
C385 C8 1.423 . S
C390 N179 1.425 1_554 S
C395 C41 1.423 . S
C400 N146 1.425 . S
C405 N245 1.425 1_556 S
C410 C74 1.421 . S
C415 C107 1.421 . S
C420 N212 1.424 . S
C425 N47 1.425 1_554 S
C430 C140 1.423 . S
C435 C173 1.423 . S
C440 N14 1.424 . S
C445 C206 1.422 . S
C450 N113 1.426 1_556 S
C455 C239 1.421 . S
C460 N80 1.425 . S
