# Generated by pormake.
# Topology whp, (6)-cn, num edge types: 1
# Building blocks:
#     Node 0, Type 0, BuildingBlock: OJICUG_clean_sbu_0, # of connection points: 6
#     Node 1, Type 0, BuildingBlock: OJICUG_clean_sbu_0, # of connection points: 6
#     Node 2, Type 0, BuildingBlock: OJICUG_clean_sbu_0, # of connection points: 6
#     Node 3, Type 0, BuildingBlock: OJICUG_clean_sbu_0, # of connection points: 6
#     Node 4, Type 0, BuildingBlock: OJICUG_clean_sbu_0, # of connection points: 6
#     Node 5, Type 0, BuildingBlock: OJICUG_clean_sbu_0, # of connection points: 6
#     Node 6, Type 0, BuildingBlock: OJICUG_clean_sbu_0, # of connection points: 6
#     Node 7, Type 0, BuildingBlock: OJICUG_clean_sbu_0, # of connection points: 6
#     Node 8, Type 0, BuildingBlock: OJICUG_clean_sbu_0, # of connection points: 6
#     Node 9, Type 0, BuildingBlock: OJICUG_clean_sbu_0, # of connection points: 6
#     Node 10, Type 0, BuildingBlock: OJICUG_clean_sbu_0, # of connection points: 6
#     Node 11, Type 0, BuildingBlock: OJICUG_clean_sbu_0, # of connection points: 6
#     Node 12, Type 0, BuildingBlock: OJICUG_clean_sbu_0, # of connection points: 6
#     Node 13, Type 0, BuildingBlock: OJICUG_clean_sbu_0, # of connection points: 6
#     Node 14, Type 0, BuildingBlock: OJICUG_clean_sbu_0, # of connection points: 6
#     Node 15, Type 0, BuildingBlock: OJICUG_clean_sbu_0, # of connection points: 6
#     Edge 16, Type (0, 0), None
#     Edge 17, Type (0, 0), None
#     Edge 18, Type (0, 0), None
#     Edge 19, Type (0, 0), None
#     Edge 20, Type (0, 0), None
#     Edge 21, Type (0, 0), None
#     Edge 22, Type (0, 0), None
#     Edge 23, Type (0, 0), None
#     Edge 24, Type (0, 0), None
#     Edge 25, Type (0, 0), None
#     Edge 26, Type (0, 0), None
#     Edge 27, Type (0, 0), None
#     Edge 28, Type (0, 0), None
#     Edge 29, Type (0, 0), None
#     Edge 30, Type (0, 0), None
#     Edge 31, Type (0, 0), None
#     Edge 32, Type (0, 0), None
#     Edge 33, Type (0, 0), None
#     Edge 34, Type (0, 0), None
#     Edge 35, Type (0, 0), None
#     Edge 36, Type (0, 0), None
#     Edge 37, Type (0, 0), None
#     Edge 38, Type (0, 0), None
#     Edge 39, Type (0, 0), None
#     Edge 40, Type (0, 0), None
#     Edge 41, Type (0, 0), None
#     Edge 42, Type (0, 0), None
#     Edge 43, Type (0, 0), None
#     Edge 44, Type (0, 0), None
#     Edge 45, Type (0, 0), None
#     Edge 46, Type (0, 0), None
#     Edge 47, Type (0, 0), None
#     Edge 48, Type (0, 0), None
#     Edge 49, Type (0, 0), None
#     Edge 50, Type (0, 0), None
#     Edge 51, Type (0, 0), None
#     Edge 52, Type (0, 0), None
#     Edge 53, Type (0, 0), None
#     Edge 54, Type (0, 0), None
#     Edge 55, Type (0, 0), None
#     Edge 56, Type (0, 0), None
#     Edge 57, Type (0, 0), None
#     Edge 58, Type (0, 0), None
#     Edge 59, Type (0, 0), None
#     Edge 60, Type (0, 0), None
#     Edge 61, Type (0, 0), None
#     Edge 62, Type (0, 0), None
#     Edge 63, Type (0, 0), None
# Relax obj value: 0.276
# Max RMSD: 0.243
# Mean RMSD: 0.243
data_MOF--net-whp--node1-OJICUG_clean_sbu_0--edge1-none
_symmetry_space_group_name_H-M    P1
_symmetry_Int_Tables_number       1
_symmetry_cell_setting            triclinic
loop_
_symmetry_equiv_pos_as_xyz
'x, y, z'
_cell_length_a     23.878324
_cell_length_b     23.87769
_cell_length_c     14.330785
_cell_angle_alpha  90.000918
_cell_angle_beta   90.000856
_cell_angle_gamma 90.000126
loop_
_atom_site_label
_atom_site_type_symbol
_atom_site_fract_x
_atom_site_fract_y
_atom_site_fract_z
_atom_type_partial_charge
Sc0 Sc 0.28391 0.58136 0.42685 0.0
Sc1 Sc 0.37334 0.51369 0.27876 0.0
Sc2 Sc 0.23971 0.45766 0.32402 0.0
O3 O 0.29884 0.51685 0.34236 0.0
C4 C 0.21247 0.48499 0.52846 0.0
C5 C 0.40155 0.55254 0.49161 0.0
C6 C 0.35422 0.38683 0.32744 0.0
C7 C 0.36868 0.63741 0.27796 0.0
C8 C 0.17536 0.57736 0.31536 0.0
C9 C 0.28611 0.47957 0.12033 0.0
O10 O 0.22302 0.53637 0.51236 0.0
O11 O 0.41666 0.54441 0.40654 0.0
O12 O 0.30056 0.3869 0.32574 0.0
O13 O 0.34298 0.63846 0.35606 0.0
O14 O 0.17468 0.52358 0.32006 0.0
O15 O 0.33586 0.49025 0.14689 0.0
O16 O 0.2176 0.60705 0.33731 0.0
O17 O 0.36931 0.59498 0.2268 0.0
O18 O 0.2463 0.46765 0.17569 0.0
O19 O 0.35023 0.5522 0.51517 0.0
O20 O 0.22799 0.4467 0.47254 0.0
O21 O 0.38312 0.43095 0.31998 0.0
Sc22 Sc 0.90788 0.28393 0.92685 0.0
Sc23 Sc 0.97555 0.37336 0.77878 0.0
Sc24 Sc 0.03157 0.23972 0.82403 0.0
O25 O 0.97238 0.29886 0.84237 0.0
C26 C 0.00424 0.21248 0.02847 0.0
C27 C 0.9367 0.40156 0.99162 0.0
C28 C 0.1024 0.35423 0.82745 0.0
C29 C 0.85183 0.3687 0.77796 0.0
C30 C 0.91187 0.17537 0.81537 0.0
C31 C 0.00966 0.28612 0.62034 0.0
O32 O 0.95286 0.22303 1.01237 0.0
O33 O 0.94483 0.41668 0.90656 0.0
O34 O 0.10233 0.30057 0.82574 0.0
O35 O 0.85078 0.343 0.85606 0.0
O36 O 0.96564 0.17469 0.82007 0.0
O37 O -0.00101 0.33588 0.6469 0.0
O38 O 0.88218 0.21762 0.83731 0.0
O39 O 0.89425 0.36934 0.72681 0.0
O40 O 0.02158 0.24631 0.6757 0.0
O41 O 0.93703 0.35024 1.01518 0.0
O42 O 0.04253 0.228 0.97255 0.0
O43 O 0.05828 0.38314 0.82 0.0
Sc44 Sc 0.24951 0.03159 0.32404 0.0
Sc45 Sc 0.11588 0.97556 0.27877 0.0
Sc46 Sc 0.20531 0.90789 0.42685 0.0
O47 O 0.19038 0.9724 0.34237 0.0
C48 C 0.31387 0.91189 0.31537 0.0
C49 C 0.20312 0.00968 0.12034 0.0
C50 C 0.12054 0.85184 0.27795 0.0
C51 C 0.135 0.10242 0.32745 0.0
C52 C 0.27675 0.00426 0.52848 0.0
C53 C 0.08768 0.93671 0.49161 0.0
O54 O 0.31455 0.96567 0.32008 0.0
O55 O 0.15336 -0.001 0.1469 0.0
O56 O 0.14624 0.85079 0.35605 0.0
O57 O 0.18866 0.10235 0.32575 0.0
O58 O 0.2662 0.95288 0.51237 0.0
O59 O 0.07256 0.94484 0.40655 0.0
O60 O 0.26123 0.04255 0.47256 0.0
O61 O 0.1061 0.0583 0.31999 0.0
O62 O 0.139 0.93705 0.51517 0.0
O63 O 0.24292 0.0216 0.1757 0.0
O64 O 0.27162 0.8822 0.33731 0.0
O65 O 0.11991 0.89427 0.2268 0.0
Sc66 Sc 0.45765 0.24953 0.82402 0.0
Sc67 Sc 0.51368 0.11589 0.77876 0.0
Sc68 Sc 0.58135 0.20532 0.92684 0.0
O69 O 0.51684 0.19039 0.84236 0.0
C70 C 0.57735 0.31388 0.81536 0.0
C71 C 0.47956 0.20313 0.62033 0.0
C72 C 0.63739 0.12055 0.77795 0.0
C73 C 0.38682 0.13502 0.82744 0.0
C74 C 0.48498 0.27677 0.02846 0.0
C75 C 0.55252 0.08769 0.9916 0.0
O76 O 0.52358 0.31456 0.82006 0.0
O77 O 0.49023 0.15337 0.64689 0.0
O78 O 0.63845 0.14625 0.85605 0.0
O79 O 0.38689 0.18868 0.82574 0.0
O80 O 0.53636 0.26622 1.01236 0.0
O81 O 0.5444 0.07257 0.90654 0.0
O82 O 0.4467 0.26125 0.97254 0.0
O83 O 0.43094 0.10611 0.81998 0.0
O84 O 0.55219 0.13901 1.01517 0.0
O85 O 0.46764 0.24294 0.67569 0.0
O86 O 0.60704 0.27163 0.8373 0.0
O87 O 0.59497 0.11991 0.72679 0.0
Sc88 Sc 0.7839 0.4079 0.11706 0.0
Sc89 Sc 0.87334 0.47556 0.26514 0.0
Sc90 Sc 0.73971 0.5316 0.21988 0.0
O91 O 0.79884 0.4724 0.20155 0.0
C92 C 0.71246 0.50426 1.01545 0.0
C93 C 0.90151 0.43679 0.05228 0.0
C94 C 0.85422 0.60242 0.21647 0.0
C95 C 0.86869 0.35185 0.26592 0.0
C96 C 0.67536 0.41189 0.22858 0.0
C97 C 0.7861 0.50969 0.42358 0.0
O98 O 0.72298 0.45288 0.03158 0.0
O99 O 0.91665 0.44485 0.13735 0.0
O100 O 0.80056 0.60236 0.21816 0.0
O101 O 0.84299 0.3508 0.18782 0.0
O102 O 0.67468 0.46566 0.22386 0.0
O103 O 0.83585 0.49899 0.39702 0.0
O104 O 0.71761 0.3822 0.20663 0.0
O105 O 0.86931 0.39426 0.31709 0.0
O106 O 0.7463 0.52162 0.36822 0.0
O107 O 0.85019 0.43707 0.02872 0.0
O108 O 0.728 0.54255 0.07136 0.0
O109 O 0.88312 0.5583 0.22395 0.0
Sc110 Sc 0.95765 0.73972 0.71987 0.0
Sc111 Sc 0.01368 0.87336 0.76513 0.0
Sc112 Sc 0.08134 0.78391 0.61706 0.0
O113 O 0.01684 0.79885 0.70154 0.0
C114 C 0.07735 0.67538 0.72857 0.0
C115 C 0.97956 0.78612 0.92356 0.0
C116 C 0.13739 0.86871 0.76591 0.0
C117 C 0.88682 0.85423 0.71646 0.0
C118 C 0.98498 0.71247 0.51544 0.0
C119 C 0.05245 0.90152 0.55227 0.0
O120 O 0.02358 0.67469 0.72384 0.0
O121 O 0.99025 0.83587 0.89701 0.0
O122 O 0.13844 0.84301 0.68782 0.0
O123 O 0.88689 0.80057 0.71815 0.0
O124 O 0.03636 0.723 0.53157 0.0
O125 O 0.04439 0.91667 0.63733 0.0
O126 O 0.9467 0.72801 0.57135 0.0
O127 O 0.93094 0.88313 0.72393 0.0
O128 O 0.05217 0.8502 0.52871 0.0
O129 O 0.96763 0.74631 0.8682 0.0
O130 O 0.10704 0.71762 0.70663 0.0
O131 O 0.09498 0.86933 0.81709 0.0
Sc132 Sc 0.74952 0.95765 0.21987 0.0
Sc133 Sc 0.61589 0.01369 0.26513 0.0
Sc134 Sc 0.70532 0.08135 0.11705 0.0
O135 O 0.69039 0.01685 0.20153 0.0
C136 C 0.81386 0.07736 0.22857 0.0
C137 C 0.70312 0.97957 0.42356 0.0
C138 C 0.62054 0.1374 0.26591 0.0
C139 C 0.635 0.88683 0.21646 0.0
C140 C 0.77676 0.98498 1.01544 0.0
C141 C 0.58771 0.05246 0.05226 0.0
O142 O 0.81455 0.02359 0.22384 0.0
O143 O 0.65337 0.99026 0.397 0.0
O144 O 0.64624 0.13845 0.1878 0.0
O145 O 0.68866 0.8869 0.21815 0.0
O146 O 0.76624 0.03637 0.03157 0.0
O147 O 0.57257 0.0444 0.13733 0.0
O148 O 0.76122 0.9467 0.07135 0.0
O149 O 0.6061 0.93095 0.22393 0.0
O150 O 0.63903 0.05217 0.0287 0.0
O151 O 0.74293 0.96764 0.3682 0.0
O152 O 0.77162 0.10705 0.20662 0.0
O153 O 0.61992 0.09499 0.31708 0.0
Sc154 Sc 0.40788 0.70534 0.61706 0.0
Sc155 Sc 0.47554 0.61589 0.76513 0.0
Sc156 Sc 0.53157 0.74953 0.71989 0.0
O157 O 0.47238 0.6904 0.70155 0.0
C158 C 0.50424 0.77678 0.51545 0.0
C159 C 0.43678 0.58773 0.55227 0.0
C160 C 0.6024 0.63502 0.71647 0.0
C161 C 0.35183 0.62054 0.76591 0.0
C162 C 0.41187 0.81387 0.72858 0.0
C163 C 0.50966 0.70313 0.92357 0.0
O164 O 0.45286 0.76625 0.53158 0.0
O165 O 0.44483 0.57258 0.63733 0.0
O166 O 0.60233 0.68868 0.71817 0.0
O167 O 0.35078 0.64624 0.68781 0.0
O168 O 0.46564 0.81456 0.72385 0.0
O169 O 0.49898 0.65338 0.89701 0.0
O170 O 0.38218 0.77163 0.70664 0.0
O171 O 0.39425 0.61992 0.81708 0.0
O172 O 0.52159 0.74294 0.86822 0.0
O173 O 0.43706 0.63905 0.52871 0.0
O174 O 0.54253 0.76124 0.57136 0.0
O175 O 0.55828 0.60612 0.72394 0.0
Sc176 Sc 0.75277 0.52507 0.72341 0.0
Sc177 Sc 0.61498 0.48791 0.74831 0.0
Sc178 Sc 0.7003 0.40317 0.627 0.0
O179 O 0.69079 0.46809 0.70883 0.0
C180 C 0.77078 0.49618 0.51952 0.0
C181 C 0.65096 0.60047 0.69001 0.0
C182 C 0.58735 0.43747 0.55021 0.0
C183 C 0.70284 0.51777 0.91694 0.0
C184 C 0.8043 0.40148 0.74613 0.0
C185 C 0.60649 0.36292 0.7785 0.0
O186 O 0.75898 0.53548 0.57552 0.0
O187 O 0.6366 0.55472 0.6554 0.0
O188 O 0.63897 0.43402 0.53137 0.0
O189 O 0.74655 0.51508 0.86755 0.0
O190 O 0.76111 0.37427 0.72264 0.0
O191 O 0.59869 0.41041 0.81721 0.0
O192 O 0.81168 0.45352 0.72539 0.0
O193 O 0.65296 0.51897 0.88203 0.0
O194 O 0.63793 0.35576 0.70696 0.0
O195 O 0.69699 0.60037 0.7343 0.0
O196 O 0.76347 0.44456 0.53994 0.0
O197 O 0.57061 0.45113 0.63103 0.0
Sc198 Sc 0.96417 0.75278 0.22339 0.0
Sc199 Sc 0.00133 0.61499 0.2483 0.0
Sc200 Sc 0.08608 0.70031 0.12699 0.0
O201 O 0.02115 0.6908 0.20882 0.0
C202 C 0.99307 0.7708 1.01951 0.0
C203 C 0.88877 0.65098 0.19 0.0
C204 C 0.05177 0.58736 0.0502 0.0
C205 C 0.97148 0.70285 0.41692 0.0
C206 C 0.08777 0.80431 0.24612 0.0
C207 C 0.12632 0.60649 0.27849 0.0
O208 O 0.95377 0.759 0.07551 0.0
O209 O 0.93452 0.63661 0.15539 0.0
O210 O 0.05522 0.63898 0.03136 0.0
O211 O 0.97417 0.74656 0.36754 0.0
O212 O 0.11497 0.76112 0.22263 0.0
O213 O 0.07883 0.5987 0.3172 0.0
O214 O 0.03573 0.81169 0.22537 0.0
O215 O 0.97027 0.65298 0.38201 0.0
O216 O 0.13348 0.63794 0.20695 0.0
O217 O 0.88888 0.69701 0.23429 0.0
O218 O 0.04468 0.76348 0.03993 0.0
O219 O 0.03811 0.57062 0.13102 0.0
Sc220 Sc 0.78892 0.08609 0.627 0.0
Sc221 Sc 0.87424 0.00134 0.74831 0.0
Sc222 Sc 0.73646 0.96418 0.72339 0.0
O223 O 0.79843 0.02116 0.70882 0.0
C224 C 0.68492 0.08777 0.74612 0.0
C225 C 0.88274 0.12633 0.77851 0.0
C226 C 0.78639 0.97148 0.91692 0.0
C227 C 0.90188 0.05178 0.55021 0.0
C228 C 0.71844 0.99308 0.51951 0.0
C229 C 0.83826 0.88878 0.68999 0.0
O230 O 0.72811 0.11498 0.72263 0.0
O231 O 0.89054 0.07884 0.81721 0.0
O232 O 0.74267 0.97416 0.86754 0.0
O233 O 0.85025 0.05523 0.53136 0.0
O234 O 0.73024 0.95377 0.5755 0.0
O235 O 0.85262 0.93453 0.65539 0.0
O236 O 0.72575 0.04469 0.53993 0.0
O237 O 0.91861 0.03812 0.63103 0.0
O238 O 0.79223 0.88888 0.73428 0.0
O239 O 0.85129 0.13349 0.70696 0.0
O240 O 0.67755 0.03573 0.72537 0.0
O241 O 0.83626 0.97028 0.88202 0.0
Sc242 Sc 0.40315 0.78894 0.127 0.0
Sc243 Sc 0.48789 0.87426 0.24832 0.0
Sc244 Sc 0.52505 0.73647 0.22341 0.0
O245 O 0.46807 0.79845 0.20883 0.0
C246 C 0.40146 0.68494 0.24613 0.0
C247 C 0.3629 0.88276 0.27851 0.0
C248 C 0.51775 0.7864 0.41694 0.0
C249 C 0.43746 0.90189 0.05021 0.0
C250 C 0.49615 0.71845 1.01952 0.0
C251 C 0.60045 0.83827 0.19 0.0
O252 O 0.37425 0.72813 0.22264 0.0
O253 O 0.41039 0.89056 0.31721 0.0
O254 O 0.51506 0.74269 0.36755 0.0
O255 O 0.43401 0.85027 0.03137 0.0
O256 O 0.53545 0.73025 0.07552 0.0
O257 O 0.5547 0.85264 0.1554 0.0
O258 O 0.44454 0.72577 0.03994 0.0
O259 O 0.45111 0.91863 0.13104 0.0
O260 O 0.60035 0.79224 0.2343 0.0
O261 O 0.35574 0.85131 0.20696 0.0
O262 O 0.4535 0.67756 0.22539 0.0
O263 O 0.51895 0.83627 0.38203 0.0
Sc264 Sc 0.25277 0.46417 0.8205 0.0
Sc265 Sc 0.11498 0.50134 0.7956 0.0
Sc266 Sc 0.20033 0.58608 0.9169 0.0
O267 O 0.1908 0.52116 0.83508 0.0
C268 C 0.27079 0.49307 0.02438 0.0
C269 C 0.15097 0.38878 0.85391 0.0
C270 C 0.0874 0.5517 0.99374 0.0
C271 C 0.20284 0.47148 0.62697 0.0
C272 C 0.3043 0.58776 0.79774 0.0
C273 C 0.10649 0.62634 0.76543 0.0
O274 O 0.25899 0.45377 0.96839 0.0
O275 O 0.13661 0.43453 0.88851 0.0
O276 O 0.13902 0.55523 1.01257 0.0
O277 O 0.24655 0.47415 0.67636 0.0
O278 O 0.26111 0.61497 0.82123 0.0
O279 O 0.09869 0.57885 0.72671 0.0
O280 O 0.31168 0.53572 0.81851 0.0
O281 O 0.15297 0.47029 0.66187 0.0
O282 O 0.13794 0.63349 0.83697 0.0
O283 O 0.19699 0.38887 0.80961 0.0
O284 O 0.26351 0.54469 1.00393 0.0
O285 O 0.07063 0.53812 0.9129 0.0
Sc286 Sc 0.90315 0.20034 0.4169 0.0
Sc287 Sc 0.98789 0.115 0.29561 0.0
Sc288 Sc 0.02506 0.25279 0.32051 0.0
O289 O 0.96807 0.19081 0.33509 0.0
C290 C 0.90147 0.30431 0.29774 0.0
C291 C 0.8629 0.1065 0.26543 0.0
C292 C 0.01775 0.20285 0.12698 0.0
C293 C 0.93753 0.08741 0.49375 0.0
C294 C -0.00384 0.27081 0.52439 0.0
C295 C 0.10045 0.15098 0.35391 0.0
O296 O 0.87426 0.26112 0.32123 0.0
O297 O 0.91039 0.0987 0.22672 0.0
O298 O 0.01508 0.24657 0.17637 0.0
O299 O 0.93401 0.13903 0.51258 0.0
O300 O 0.03546 0.259 0.4684 0.0
O301 O 0.05471 0.13662 0.38852 0.0
O302 O 0.94454 0.26352 0.50394 0.0
O303 O 0.95111 0.07064 0.41291 0.0
O304 O 0.10035 0.19701 0.30963 0.0
O305 O 0.85574 0.13795 0.33697 0.0
O306 O 0.9535 0.3117 0.31852 0.0
O307 O 0.01894 0.15298 0.16189 0.0
Sc308 Sc 0.2889 0.90317 0.91691 0.0
Sc309 Sc 0.37424 0.98791 0.79561 0.0
Sc310 Sc 0.23645 0.02508 0.82051 0.0
O311 O 0.29842 0.96809 0.83509 0.0
C312 C 0.18492 0.90149 0.79775 0.0
C313 C 0.38274 0.86291 0.76544 0.0
C314 C 0.28638 0.01777 0.62699 0.0
C315 C 0.40183 0.93755 0.99376 0.0
C316 C 0.21843 -0.00382 0.02439 0.0
C317 C 0.33826 0.10048 0.85391 0.0
O318 O 0.22811 0.87428 0.82123 0.0
O319 O 0.39053 0.9104 0.72673 0.0
O320 O 0.24267 0.0151 0.67637 0.0
O321 O 0.3502 0.93402 1.01258 0.0
O322 O 0.23024 0.03548 0.9684 0.0
O323 O 0.35262 0.05473 0.88852 0.0
O324 O 0.22572 0.94456 1.00394 0.0
O325 O 0.41859 0.95113 0.91292 0.0
O326 O 0.29223 0.10038 0.80962 0.0
O327 O 0.35129 0.85576 0.83698 0.0
O328 O 0.17754 0.95353 0.81852 0.0
O329 O 0.33626 0.01896 0.66189 0.0
Sc330 Sc 0.46416 0.23646 0.3205 0.0
Sc331 Sc 0.50134 0.37426 0.2956 0.0
Sc332 Sc 0.58607 0.28891 0.4169 0.0
O333 O 0.52115 0.29844 0.33508 0.0
C334 C 0.49307 0.21844 0.52438 0.0
C335 C 0.38877 0.33827 0.3539 0.0
C336 C 0.55169 0.40184 0.49375 0.0
C337 C 0.47147 0.2864 0.12697 0.0
C338 C 0.58776 0.18494 0.29773 0.0
C339 C 0.62633 0.38275 0.26544 0.0
O340 O 0.45377 0.23025 0.46839 0.0
O341 O 0.43452 0.35263 0.38851 0.0
O342 O 0.55521 0.35022 0.51257 0.0
O343 O 0.47415 0.24268 0.17635 0.0
O344 O 0.61496 0.22813 0.32123 0.0
O345 O 0.57884 0.39055 0.22672 0.0
O346 O 0.53572 0.17755 0.3185 0.0
O347 O 0.47029 0.33627 0.16188 0.0
O348 O 0.63348 0.3513 0.33698 0.0
O349 O 0.38887 0.29224 0.30961 0.0
O350 O 0.54468 0.22573 0.50394 0.0
O351 O 0.53811 0.41861 0.41291 0.0
loop_
_geom_bond_atom_site_label_1
_geom_bond_atom_site_label_2
_geom_bond_distance
_geom_bond_site_symmetry_2
_ccdc_geom_bond_type
Sc0 O3 2.025 . S
Sc0 O10 2.105 . S
Sc0 O13 2.105 . S
Sc0 O16 2.105 . S
Sc0 O19 2.105 . S
Sc1 O3 2.025 . S
Sc1 O11 2.105 . S
Sc1 O15 2.105 . S
Sc1 O17 2.105 . S
Sc1 O21 2.105 . S
Sc2 O3 2.025 . S
Sc2 O12 2.105 . S
Sc2 O14 2.105 . S
Sc2 O18 2.105 . S
Sc2 O20 2.105 . S
O3 Sc0 2.025 . S
O3 Sc1 2.025 . S
O3 Sc2 2.025 . S
C4 O10 1.268 . S
C4 O20 1.268 . S
C5 O11 1.268 . S
C5 O19 1.268 . S
C6 O12 1.268 . S
C6 O21 1.268 . S
C7 O13 1.268 . S
C7 O17 1.268 . S
C8 O14 1.268 . S
C8 O16 1.268 . S
C9 O15 1.268 . S
C9 O18 1.268 . S
O10 Sc0 2.105 . S
O10 C4 1.268 . S
O11 Sc1 2.105 . S
O11 C5 1.268 . S
O12 Sc2 2.105 . S
O12 C6 1.268 . S
O13 Sc0 2.105 . S
O13 C7 1.268 . S
O14 Sc2 2.105 . S
O14 C8 1.268 . S
O15 Sc1 2.105 . S
O15 C9 1.268 . S
O16 Sc0 2.105 . S
O16 C8 1.268 . S
O17 Sc1 2.105 . S
O17 C7 1.268 . S
O18 Sc2 2.105 . S
O18 C9 1.268 . S
O19 Sc0 2.105 . S
O19 C5 1.268 . S
O20 Sc2 2.105 . S
O20 C4 1.268 . S
O21 Sc1 2.105 . S
O21 C6 1.268 . S
Sc22 O25 2.025 . S
Sc22 O32 2.105 1_556 S
Sc22 O35 2.105 . S
Sc22 O38 2.105 . S
Sc22 O41 2.105 . S
Sc23 O25 2.025 . S
Sc23 O33 2.105 . S
Sc23 O37 2.105 . S
Sc23 O39 2.105 . S
Sc23 O43 2.105 1_655 S
Sc24 O25 2.025 1_455 S
Sc24 O34 2.105 . S
Sc24 O36 2.105 1_455 S
Sc24 O40 2.105 . S
Sc24 O42 2.105 . S
O25 Sc22 2.025 . S
O25 Sc23 2.025 . S
O25 Sc24 2.025 1_655 S
C26 O32 1.268 . S
C26 O42 1.268 1_654 S
C27 O33 1.268 . S
C27 O41 1.268 . S
C28 O34 1.268 . S
C28 O43 1.268 . S
C29 O35 1.268 . S
C29 O39 1.268 . S
C30 O36 1.268 . S
C30 O38 1.268 . S
C31 O37 1.268 1_455 S
C31 O40 1.268 . S
O32 Sc22 2.105 1_554 S
O32 C26 1.268 . S
O33 Sc23 2.105 . S
O33 C27 1.268 . S
O34 Sc24 2.105 . S
O34 C28 1.268 . S
O35 Sc22 2.105 . S
O35 C29 1.268 . S
O36 Sc24 2.105 1_655 S
O36 C30 1.268 . S
O37 Sc23 2.105 . S
O37 C31 1.268 1_655 S
O38 Sc22 2.105 . S
O38 C30 1.268 . S
O39 Sc23 2.105 . S
O39 C29 1.268 . S
O40 Sc24 2.105 . S
O40 C31 1.268 . S
O41 Sc22 2.105 . S
O41 C27 1.268 . S
O42 Sc24 2.105 . S
O42 C26 1.268 1_456 S
O43 Sc23 2.105 1_455 S
O43 C28 1.268 . S
Sc44 O47 2.025 1_545 S
Sc44 O54 2.105 1_545 S
Sc44 O57 2.105 . S
Sc44 O60 2.105 . S
Sc44 O63 2.105 . S
Sc45 O47 2.025 . S
Sc45 O55 2.105 . S
Sc45 O59 2.105 . S
Sc45 O61 2.105 1_565 S
Sc45 O65 2.105 . S
Sc46 O47 2.025 . S
Sc46 O56 2.105 . S
Sc46 O58 2.105 . S
Sc46 O62 2.105 . S
Sc46 O64 2.105 . S
O47 Sc44 2.025 1_565 S
O47 Sc45 2.025 . S
O47 Sc46 2.025 . S
C48 O54 1.268 . S
C48 O64 1.268 . S
C49 O55 1.268 1_545 S
C49 O63 1.268 . S
C50 O56 1.268 . S
C50 O65 1.268 . S
C51 O57 1.268 . S
C51 O61 1.268 . S
C52 O58 1.268 . S
C52 O60 1.268 1_565 S
C53 O59 1.268 . S
C53 O62 1.268 . S
O54 Sc44 2.105 1_565 S
O54 C48 1.268 . S
O55 Sc45 2.105 . S
O55 C49 1.268 1_565 S
O56 Sc46 2.105 . S
O56 C50 1.268 . S
O57 Sc44 2.105 . S
O57 C51 1.268 . S
O58 Sc46 2.105 . S
O58 C52 1.268 . S
O59 Sc45 2.105 . S
O59 C53 1.268 . S
O60 Sc44 2.105 . S
O60 C52 1.268 1_545 S
O61 Sc45 2.105 1_545 S
O61 C51 1.268 . S
O62 Sc46 2.105 . S
O62 C53 1.268 . S
O63 Sc44 2.105 . S
O63 C49 1.268 . S
O64 Sc46 2.105 . S
O64 C48 1.268 . S
O65 Sc45 2.105 . S
O65 C50 1.268 . S
Sc66 O69 2.025 . S
Sc66 O76 2.105 . S
Sc66 O79 2.105 . S
Sc66 O82 2.105 . S
Sc66 O85 2.105 . S
Sc67 O69 2.025 . S
Sc67 O77 2.105 . S
Sc67 O81 2.105 . S
Sc67 O83 2.105 . S
Sc67 O87 2.105 . S
Sc68 O69 2.025 . S
Sc68 O78 2.105 . S
Sc68 O80 2.105 1_556 S
Sc68 O84 2.105 . S
Sc68 O86 2.105 . S
O69 Sc66 2.025 . S
O69 Sc67 2.025 . S
O69 Sc68 2.025 . S
C70 O76 1.268 . S
C70 O86 1.268 . S
C71 O77 1.268 . S
C71 O85 1.268 . S
C72 O78 1.268 . S
C72 O87 1.268 . S
C73 O79 1.268 . S
C73 O83 1.268 . S
C74 O80 1.268 . S
C74 O82 1.268 1_554 S
C75 O81 1.268 . S
C75 O84 1.268 . S
O76 Sc66 2.105 . S
O76 C70 1.268 . S
O77 Sc67 2.105 . S
O77 C71 1.268 . S
O78 Sc68 2.105 . S
O78 C72 1.268 . S
O79 Sc66 2.105 . S
O79 C73 1.268 . S
O80 Sc68 2.105 1_554 S
O80 C74 1.268 . S
O81 Sc67 2.105 . S
O81 C75 1.268 . S
O82 Sc66 2.105 . S
O82 C74 1.268 1_556 S
O83 Sc67 2.105 . S
O83 C73 1.268 . S
O84 Sc68 2.105 . S
O84 C75 1.268 . S
O85 Sc66 2.105 . S
O85 C71 1.268 . S
O86 Sc68 2.105 . S
O86 C70 1.268 . S
O87 Sc67 2.105 . S
O87 C72 1.268 . S
Sc88 O91 2.025 . S
Sc88 O98 2.105 1_554 S
Sc88 O101 2.105 . S
Sc88 O104 2.105 . S
Sc88 O107 2.105 . S
Sc89 O91 2.025 . S
Sc89 O99 2.105 . S
Sc89 O103 2.105 . S
Sc89 O105 2.105 . S
Sc89 O109 2.105 . S
Sc90 O91 2.025 . S
Sc90 O100 2.105 . S
Sc90 O102 2.105 . S
Sc90 O106 2.105 . S
Sc90 O108 2.105 . S
O91 Sc88 2.025 . S
O91 Sc89 2.025 . S
O91 Sc90 2.025 . S
C92 O98 1.268 . S
C92 O108 1.268 1_556 S
C93 O99 1.268 . S
C93 O107 1.268 . S
C94 O100 1.268 . S
C94 O109 1.268 . S
C95 O101 1.268 . S
C95 O105 1.268 . S
C96 O102 1.268 . S
C96 O104 1.268 . S
C97 O103 1.268 . S
C97 O106 1.268 . S
O98 Sc88 2.105 1_556 S
O98 C92 1.268 . S
O99 Sc89 2.105 . S
O99 C93 1.268 . S
O100 Sc90 2.105 . S
O100 C94 1.268 . S
O101 Sc88 2.105 . S
O101 C95 1.268 . S
O102 Sc90 2.105 . S
O102 C96 1.268 . S
O103 Sc89 2.105 . S
O103 C97 1.268 . S
O104 Sc88 2.105 . S
O104 C96 1.268 . S
O105 Sc89 2.105 . S
O105 C95 1.268 . S
O106 Sc90 2.105 . S
O106 C97 1.268 . S
O107 Sc88 2.105 . S
O107 C93 1.268 . S
O108 Sc90 2.105 . S
O108 C92 1.268 1_554 S
O109 Sc89 2.105 . S
O109 C94 1.268 . S
Sc110 O113 2.025 1_655 S
Sc110 O120 2.105 1_655 S
Sc110 O123 2.105 . S
Sc110 O126 2.105 . S
Sc110 O129 2.105 . S
Sc111 O113 2.025 . S
Sc111 O121 2.105 . S
Sc111 O125 2.105 . S
Sc111 O127 2.105 1_455 S
Sc111 O131 2.105 . S
Sc112 O113 2.025 . S
Sc112 O122 2.105 . S
Sc112 O124 2.105 . S
Sc112 O128 2.105 . S
Sc112 O130 2.105 . S
O113 Sc110 2.025 1_455 S
O113 Sc111 2.025 . S
O113 Sc112 2.025 . S
C114 O120 1.268 . S
C114 O130 1.268 . S
C115 O121 1.268 1_655 S
C115 O129 1.268 . S
C116 O122 1.268 . S
C116 O131 1.268 . S
C117 O123 1.268 . S
C117 O127 1.268 . S
C118 O124 1.268 . S
C118 O126 1.268 1_455 S
C119 O125 1.268 . S
C119 O128 1.268 . S
O120 Sc110 2.105 1_455 S
O120 C114 1.268 . S
O121 Sc111 2.105 . S
O121 C115 1.268 1_455 S
O122 Sc112 2.105 . S
O122 C116 1.268 . S
O123 Sc110 2.105 . S
O123 C117 1.268 . S
O124 Sc112 2.105 . S
O124 C118 1.268 . S
O125 Sc111 2.105 . S
O125 C119 1.268 . S
O126 Sc110 2.105 . S
O126 C118 1.268 1_655 S
O127 Sc111 2.105 1_655 S
O127 C117 1.268 . S
O128 Sc112 2.105 . S
O128 C119 1.268 . S
O129 Sc110 2.105 . S
O129 C115 1.268 . S
O130 Sc112 2.105 . S
O130 C114 1.268 . S
O131 Sc111 2.105 . S
O131 C116 1.268 . S
Sc132 O135 2.025 1_565 S
Sc132 O142 2.105 1_565 S
Sc132 O145 2.105 . S
Sc132 O148 2.105 . S
Sc132 O151 2.105 . S
Sc133 O135 2.025 . S
Sc133 O143 2.105 . S
Sc133 O147 2.105 . S
Sc133 O149 2.105 1_545 S
Sc133 O153 2.105 . S
Sc134 O135 2.025 . S
Sc134 O144 2.105 . S
Sc134 O146 2.105 1_554 S
Sc134 O150 2.105 . S
Sc134 O152 2.105 . S
O135 Sc132 2.025 1_545 S
O135 Sc133 2.025 . S
O135 Sc134 2.025 . S
C136 O142 1.268 . S
C136 O152 1.268 . S
C137 O143 1.268 1_565 S
C137 O151 1.268 . S
C138 O144 1.268 . S
C138 O153 1.268 . S
C139 O145 1.268 . S
C139 O149 1.268 . S
C140 O146 1.268 . S
C140 O148 1.268 1_546 S
C141 O147 1.268 . S
C141 O150 1.268 . S
O142 Sc132 2.105 1_545 S
O142 C136 1.268 . S
O143 Sc133 2.105 . S
O143 C137 1.268 1_545 S
O144 Sc134 2.105 . S
O144 C138 1.268 . S
O145 Sc132 2.105 . S
O145 C139 1.268 . S
O146 Sc134 2.105 1_556 S
O146 C140 1.268 . S
O147 Sc133 2.105 . S
O147 C141 1.268 . S
O148 Sc132 2.105 . S
O148 C140 1.268 1_564 S
O149 Sc133 2.105 1_565 S
O149 C139 1.268 . S
O150 Sc134 2.105 . S
O150 C141 1.268 . S
O151 Sc132 2.105 . S
O151 C137 1.268 . S
O152 Sc134 2.105 . S
O152 C136 1.268 . S
O153 Sc133 2.105 . S
O153 C138 1.268 . S
Sc154 O157 2.025 . S
Sc154 O164 2.105 . S
Sc154 O167 2.105 . S
Sc154 O170 2.105 . S
Sc154 O173 2.105 . S
Sc155 O157 2.025 . S
Sc155 O165 2.105 . S
Sc155 O169 2.105 . S
Sc155 O171 2.105 . S
Sc155 O175 2.105 . S
Sc156 O157 2.025 . S
Sc156 O166 2.105 . S
Sc156 O168 2.105 . S
Sc156 O172 2.105 . S
Sc156 O174 2.105 . S
O157 Sc154 2.025 . S
O157 Sc155 2.025 . S
O157 Sc156 2.025 . S
C158 O164 1.268 . S
C158 O174 1.268 . S
C159 O165 1.268 . S
C159 O173 1.268 . S
C160 O166 1.268 . S
C160 O175 1.268 . S
C161 O167 1.268 . S
C161 O171 1.268 . S
C162 O168 1.268 . S
C162 O170 1.268 . S
C163 O169 1.268 . S
C163 O172 1.268 . S
O164 Sc154 2.105 . S
O164 C158 1.268 . S
O165 Sc155 2.105 . S
O165 C159 1.268 . S
O166 Sc156 2.105 . S
O166 C160 1.268 . S
O167 Sc154 2.105 . S
O167 C161 1.268 . S
O168 Sc156 2.105 . S
O168 C162 1.268 . S
O169 Sc155 2.105 . S
O169 C163 1.268 . S
O170 Sc154 2.105 . S
O170 C162 1.268 . S
O171 Sc155 2.105 . S
O171 C161 1.268 . S
O172 Sc156 2.105 . S
O172 C163 1.268 . S
O173 Sc154 2.105 . S
O173 C159 1.268 . S
O174 Sc156 2.105 . S
O174 C158 1.268 . S
O175 Sc155 2.105 . S
O175 C160 1.268 . S
Sc176 O179 2.025 . S
Sc176 O186 2.105 . S
Sc176 O189 2.105 . S
Sc176 O192 2.105 . S
Sc176 O195 2.105 . S
Sc177 O179 2.025 . S
Sc177 O187 2.105 . S
Sc177 O191 2.105 . S
Sc177 O193 2.105 . S
Sc177 O197 2.105 . S
Sc178 O179 2.025 . S
Sc178 O188 2.105 . S
Sc178 O190 2.105 . S
Sc178 O194 2.105 . S
Sc178 O196 2.105 . S
O179 Sc176 2.025 . S
O179 Sc177 2.025 . S
O179 Sc178 2.025 . S
C180 O186 1.268 . S
C180 O196 1.268 . S
C181 O187 1.268 . S
C181 O195 1.268 . S
C182 O188 1.268 . S
C182 O197 1.268 . S
C183 O189 1.268 . S
C183 O193 1.268 . S
C184 O190 1.268 . S
C184 O192 1.268 . S
C185 O191 1.268 . S
C185 O194 1.268 . S
O186 Sc176 2.105 . S
O186 C180 1.268 . S
O187 Sc177 2.105 . S
O187 C181 1.268 . S
O188 Sc178 2.105 . S
O188 C182 1.268 . S
O189 Sc176 2.105 . S
O189 C183 1.268 . S
O190 Sc178 2.105 . S
O190 C184 1.268 . S
O191 Sc177 2.105 . S
O191 C185 1.268 . S
O192 Sc176 2.105 . S
O192 C184 1.268 . S
O193 Sc177 2.105 . S
O193 C183 1.268 . S
O194 Sc178 2.105 . S
O194 C185 1.268 . S
O195 Sc176 2.105 . S
O195 C181 1.268 . S
O196 Sc178 2.105 . S
O196 C180 1.268 . S
O197 Sc177 2.105 . S
O197 C182 1.268 . S
Sc198 O201 2.025 1_655 S
Sc198 O208 2.105 . S
Sc198 O211 2.105 . S
Sc198 O214 2.105 1_655 S
Sc198 O217 2.105 . S
Sc199 O201 2.025 . S
Sc199 O209 2.105 1_455 S
Sc199 O213 2.105 . S
Sc199 O215 2.105 . S
Sc199 O219 2.105 . S
Sc200 O201 2.025 . S
Sc200 O210 2.105 . S
Sc200 O212 2.105 . S
Sc200 O216 2.105 . S
Sc200 O218 2.105 1_554 S
O201 Sc198 2.025 1_455 S
O201 Sc199 2.025 . S
O201 Sc200 2.025 . S
C202 O208 1.268 1_456 S
C202 O218 1.268 . S
C203 O209 1.268 . S
C203 O217 1.268 . S
C204 O210 1.268 . S
C204 O219 1.268 . S
C205 O211 1.268 . S
C205 O215 1.268 1_655 S
C206 O212 1.268 . S
C206 O214 1.268 . S
C207 O213 1.268 . S
C207 O216 1.268 . S
O208 Sc198 2.105 . S
O208 C202 1.268 1_654 S
O209 Sc199 2.105 1_655 S
O209 C203 1.268 . S
O210 Sc200 2.105 . S
O210 C204 1.268 . S
O211 Sc198 2.105 . S
O211 C205 1.268 . S
O212 Sc200 2.105 . S
O212 C206 1.268 . S
O213 Sc199 2.105 . S
O213 C207 1.268 . S
O214 Sc198 2.105 1_455 S
O214 C206 1.268 . S
O215 Sc199 2.105 . S
O215 C205 1.268 1_455 S
O216 Sc200 2.105 . S
O216 C207 1.268 . S
O217 Sc198 2.105 . S
O217 C203 1.268 . S
O218 Sc200 2.105 1_556 S
O218 C202 1.268 . S
O219 Sc199 2.105 . S
O219 C204 1.268 . S
Sc220 O223 2.025 . S
Sc220 O230 2.105 . S
Sc220 O233 2.105 . S
Sc220 O236 2.105 . S
Sc220 O239 2.105 . S
Sc221 O223 2.025 . S
Sc221 O231 2.105 . S
Sc221 O235 2.105 1_545 S
Sc221 O237 2.105 . S
Sc221 O241 2.105 . S
Sc222 O223 2.025 1_565 S
Sc222 O232 2.105 . S
Sc222 O234 2.105 . S
Sc222 O238 2.105 . S
Sc222 O240 2.105 1_565 S
O223 Sc220 2.025 . S
O223 Sc221 2.025 . S
O223 Sc222 2.025 1_545 S
C224 O230 1.268 . S
C224 O240 1.268 . S
C225 O231 1.268 . S
C225 O239 1.268 . S
C226 O232 1.268 . S
C226 O241 1.268 1_565 S
C227 O233 1.268 . S
C227 O237 1.268 . S
C228 O234 1.268 1_545 S
C228 O236 1.268 . S
C229 O235 1.268 . S
C229 O238 1.268 . S
O230 Sc220 2.105 . S
O230 C224 1.268 . S
O231 Sc221 2.105 . S
O231 C225 1.268 . S
O232 Sc222 2.105 . S
O232 C226 1.268 . S
O233 Sc220 2.105 . S
O233 C227 1.268 . S
O234 Sc222 2.105 . S
O234 C228 1.268 1_565 S
O235 Sc221 2.105 1_565 S
O235 C229 1.268 . S
O236 Sc220 2.105 . S
O236 C228 1.268 . S
O237 Sc221 2.105 . S
O237 C227 1.268 . S
O238 Sc222 2.105 . S
O238 C229 1.268 . S
O239 Sc220 2.105 . S
O239 C225 1.268 . S
O240 Sc222 2.105 1_545 S
O240 C224 1.268 . S
O241 Sc221 2.105 . S
O241 C226 1.268 1_545 S
Sc242 O245 2.025 . S
Sc242 O252 2.105 . S
Sc242 O255 2.105 . S
Sc242 O258 2.105 1_554 S
Sc242 O261 2.105 . S
Sc243 O245 2.025 . S
Sc243 O253 2.105 . S
Sc243 O257 2.105 . S
Sc243 O259 2.105 . S
Sc243 O263 2.105 . S
Sc244 O245 2.025 . S
Sc244 O254 2.105 . S
Sc244 O256 2.105 . S
Sc244 O260 2.105 . S
Sc244 O262 2.105 . S
O245 Sc242 2.025 . S
O245 Sc243 2.025 . S
O245 Sc244 2.025 . S
C246 O252 1.268 . S
C246 O262 1.268 . S
C247 O253 1.268 . S
C247 O261 1.268 . S
C248 O254 1.268 . S
C248 O263 1.268 . S
C249 O255 1.268 . S
C249 O259 1.268 . S
C250 O256 1.268 1_556 S
C250 O258 1.268 . S
C251 O257 1.268 . S
C251 O260 1.268 . S
O252 Sc242 2.105 . S
O252 C246 1.268 . S
O253 Sc243 2.105 . S
O253 C247 1.268 . S
O254 Sc244 2.105 . S
O254 C248 1.268 . S
O255 Sc242 2.105 . S
O255 C249 1.268 . S
O256 Sc244 2.105 . S
O256 C250 1.268 1_554 S
O257 Sc243 2.105 . S
O257 C251 1.268 . S
O258 Sc242 2.105 1_556 S
O258 C250 1.268 . S
O259 Sc243 2.105 . S
O259 C249 1.268 . S
O260 Sc244 2.105 . S
O260 C251 1.268 . S
O261 Sc242 2.105 . S
O261 C247 1.268 . S
O262 Sc244 2.105 . S
O262 C246 1.268 . S
O263 Sc243 2.105 . S
O263 C248 1.268 . S
Sc264 O267 2.025 . S
Sc264 O274 2.105 . S
Sc264 O277 2.105 . S
Sc264 O280 2.105 . S
Sc264 O283 2.105 . S
Sc265 O267 2.025 . S
Sc265 O275 2.105 . S
Sc265 O279 2.105 . S
Sc265 O281 2.105 . S
Sc265 O285 2.105 . S
Sc266 O267 2.025 . S
Sc266 O276 2.105 . S
Sc266 O278 2.105 . S
Sc266 O282 2.105 . S
Sc266 O284 2.105 1_556 S
O267 Sc264 2.025 . S
O267 Sc265 2.025 . S
O267 Sc266 2.025 . S
C268 O274 1.268 1_554 S
C268 O284 1.268 . S
C269 O275 1.268 . S
C269 O283 1.268 . S
C270 O276 1.268 . S
C270 O285 1.268 . S
C271 O277 1.268 . S
C271 O281 1.268 . S
C272 O278 1.268 . S
C272 O280 1.268 . S
C273 O279 1.268 . S
C273 O282 1.268 . S
O274 Sc264 2.105 . S
O274 C268 1.268 1_556 S
O275 Sc265 2.105 . S
O275 C269 1.268 . S
O276 Sc266 2.105 . S
O276 C270 1.268 . S
O277 Sc264 2.105 . S
O277 C271 1.268 . S
O278 Sc266 2.105 . S
O278 C272 1.268 . S
O279 Sc265 2.105 . S
O279 C273 1.268 . S
O280 Sc264 2.105 . S
O280 C272 1.268 . S
O281 Sc265 2.105 . S
O281 C271 1.268 . S
O282 Sc266 2.105 . S
O282 C273 1.268 . S
O283 Sc264 2.105 . S
O283 C269 1.268 . S
O284 Sc266 2.105 1_554 S
O284 C268 1.268 . S
O285 Sc265 2.105 . S
O285 C270 1.268 . S
Sc286 O289 2.025 . S
Sc286 O296 2.105 . S
Sc286 O299 2.105 . S
Sc286 O302 2.105 . S
Sc286 O305 2.105 . S
Sc287 O289 2.025 . S
Sc287 O297 2.105 . S
Sc287 O301 2.105 1_655 S
Sc287 O303 2.105 . S
Sc287 O307 2.105 . S
Sc288 O289 2.025 1_455 S
Sc288 O298 2.105 . S
Sc288 O300 2.105 . S
Sc288 O304 2.105 . S
Sc288 O306 2.105 1_455 S
O289 Sc286 2.025 . S
O289 Sc287 2.025 . S
O289 Sc288 2.025 1_655 S
C290 O296 1.268 . S
C290 O306 1.268 . S
C291 O297 1.268 . S
C291 O305 1.268 . S
C292 O298 1.268 . S
C292 O307 1.268 1_455 S
C293 O299 1.268 . S
C293 O303 1.268 . S
C294 O300 1.268 1_655 S
C294 O302 1.268 . S
C295 O301 1.268 . S
C295 O304 1.268 . S
O296 Sc286 2.105 . S
O296 C290 1.268 . S
O297 Sc287 2.105 . S
O297 C291 1.268 . S
O298 Sc288 2.105 . S
O298 C292 1.268 . S
O299 Sc286 2.105 . S
O299 C293 1.268 . S
O300 Sc288 2.105 . S
O300 C294 1.268 1_455 S
O301 Sc287 2.105 1_455 S
O301 C295 1.268 . S
O302 Sc286 2.105 . S
O302 C294 1.268 . S
O303 Sc287 2.105 . S
O303 C293 1.268 . S
O304 Sc288 2.105 . S
O304 C295 1.268 . S
O305 Sc286 2.105 . S
O305 C291 1.268 . S
O306 Sc288 2.105 1_655 S
O306 C290 1.268 . S
O307 Sc287 2.105 . S
O307 C292 1.268 1_655 S
Sc308 O311 2.025 . S
Sc308 O318 2.105 . S
Sc308 O321 2.105 . S
Sc308 O324 2.105 1_556 S
Sc308 O327 2.105 . S
Sc309 O311 2.025 . S
Sc309 O319 2.105 . S
Sc309 O323 2.105 1_565 S
Sc309 O325 2.105 . S
Sc309 O329 2.105 . S
Sc310 O311 2.025 1_545 S
Sc310 O320 2.105 . S
Sc310 O322 2.105 . S
Sc310 O326 2.105 . S
Sc310 O328 2.105 1_545 S
O311 Sc308 2.025 . S
O311 Sc309 2.025 . S
O311 Sc310 2.025 1_565 S
C312 O318 1.268 . S
C312 O328 1.268 . S
C313 O319 1.268 . S
C313 O327 1.268 . S
C314 O320 1.268 . S
C314 O329 1.268 1_545 S
C315 O321 1.268 . S
C315 O325 1.268 . S
C316 O322 1.268 1_564 S
C316 O324 1.268 . S
C317 O323 1.268 . S
C317 O326 1.268 . S
O318 Sc308 2.105 . S
O318 C312 1.268 . S
O319 Sc309 2.105 . S
O319 C313 1.268 . S
O320 Sc310 2.105 . S
O320 C314 1.268 . S
O321 Sc308 2.105 . S
O321 C315 1.268 . S
O322 Sc310 2.105 . S
O322 C316 1.268 1_546 S
O323 Sc309 2.105 1_545 S
O323 C317 1.268 . S
O324 Sc308 2.105 1_554 S
O324 C316 1.268 . S
O325 Sc309 2.105 . S
O325 C315 1.268 . S
O326 Sc310 2.105 . S
O326 C317 1.268 . S
O327 Sc308 2.105 . S
O327 C313 1.268 . S
O328 Sc310 2.105 1_565 S
O328 C312 1.268 . S
O329 Sc309 2.105 . S
O329 C314 1.268 1_565 S
Sc330 O333 2.025 . S
Sc330 O340 2.105 . S
Sc330 O343 2.105 . S
Sc330 O346 2.105 . S
Sc330 O349 2.105 . S
Sc331 O333 2.025 . S
Sc331 O341 2.105 . S
Sc331 O345 2.105 . S
Sc331 O347 2.105 . S
Sc331 O351 2.105 . S
Sc332 O333 2.025 . S
Sc332 O342 2.105 . S
Sc332 O344 2.105 . S
Sc332 O348 2.105 . S
Sc332 O350 2.105 . S
O333 Sc330 2.025 . S
O333 Sc331 2.025 . S
O333 Sc332 2.025 . S
C334 O340 1.268 . S
C334 O350 1.268 . S
C335 O341 1.268 . S
C335 O349 1.268 . S
C336 O342 1.268 . S
C336 O351 1.268 . S
C337 O343 1.268 . S
C337 O347 1.268 . S
C338 O344 1.268 . S
C338 O346 1.268 . S
C339 O345 1.268 . S
C339 O348 1.268 . S
O340 Sc330 2.105 . S
O340 C334 1.268 . S
O341 Sc331 2.105 . S
O341 C335 1.268 . S
O342 Sc332 2.105 . S
O342 C336 1.268 . S
O343 Sc330 2.105 . S
O343 C337 1.268 . S
O344 Sc332 2.105 . S
O344 C338 1.268 . S
O345 Sc331 2.105 . S
O345 C339 1.268 . S
O346 Sc330 2.105 . S
O346 C338 1.268 . S
O347 Sc331 2.105 . S
O347 C337 1.268 . S
O348 Sc332 2.105 . S
O348 C339 1.268 . S
O349 Sc330 2.105 . S
O349 C335 1.268 . S
O350 Sc332 2.105 . S
O350 C334 1.268 . S
O351 Sc331 2.105 . S
O351 C336 1.268 . S
C5 C159 1.014 . S
C93 C27 1.014 1_554 S
C119 C53 1.014 . S
C75 C141 1.014 1_556 S
C336 C182 1.014 . S
C270 C204 1.014 1_556 S
C293 C227 1.014 . S
C315 C249 1.014 1_556 S
C6 C335 1.492 . S
C28 C269 1.492 . S
C51 C295 1.493 . S
C317 C73 1.492 . S
C203 C94 1.492 . S
C117 C229 1.493 . S
C251 C139 1.492 . S
C160 C181 1.492 . S
C268 C9 1.859 . S
C31 C294 1.859 1_455 S
C316 C49 1.858 1_565 S
C334 C71 1.859 . S
C97 C180 1.859 . S
C115 C202 1.858 1_655 S
C137 C228 1.859 1_565 S
C250 C163 1.859 . S
C183 C92 1.859 . S
C205 C118 1.859 1_655 S
C140 C226 1.858 1_545 S
C248 C158 1.859 . S
C271 C4 1.859 . S
C292 C26 1.858 1_455 S
C52 C314 1.859 1_565 S
C74 C337 1.859 . S
C8 C207 1.894 . S
C225 C30 1.894 . S
C48 C247 1.894 . S
C70 C185 1.894 . S
C96 C339 1.894 . S
C114 C273 1.894 . S
C136 C291 1.894 . S
C313 C162 1.894 . S
C29 C184 1.894 . S
C50 C206 1.894 . S
C224 C72 1.894 . S
C246 C7 1.894 . S
C161 C272 1.894 . S
C95 C290 1.894 . S
C116 C312 1.894 . S
C138 C338 1.894 . S
