# Generated by pormake.
# Topology ecv, (8)-cn, num edge types: 1
# Building blocks:
#     Node 0, Type 0, BuildingBlock: TAGTUT_clean_sbu_1, # of connection points: 8
#     Node 1, Type 0, BuildingBlock: TAGTUT_clean_sbu_1, # of connection points: 8
#     Node 2, Type 0, BuildingBlock: TAGTUT_clean_sbu_1, # of connection points: 8
#     Node 3, Type 0, BuildingBlock: TAGTUT_clean_sbu_1, # of connection points: 8
#     Node 4, Type 0, BuildingBlock: TAGTUT_clean_sbu_1, # of connection points: 8
#     Node 5, Type 0, BuildingBlock: TAGTUT_clean_sbu_1, # of connection points: 8
#     Node 6, Type 0, BuildingBlock: TAGTUT_clean_sbu_1, # of connection points: 8
#     Node 7, Type 0, BuildingBlock: TAGTUT_clean_sbu_1, # of connection points: 8
#     Node 8, Type 0, BuildingBlock: TAGTUT_clean_sbu_1, # of connection points: 8
#     Node 9, Type 0, BuildingBlock: TAGTUT_clean_sbu_1, # of connection points: 8
#     Node 10, Type 0, BuildingBlock: TAGTUT_clean_sbu_1, # of connection points: 8
#     Node 11, Type 0, BuildingBlock: TAGTUT_clean_sbu_1, # of connection points: 8
#     Node 12, Type 0, BuildingBlock: TAGTUT_clean_sbu_1, # of connection points: 8
#     Node 13, Type 0, BuildingBlock: TAGTUT_clean_sbu_1, # of connection points: 8
#     Node 14, Type 0, BuildingBlock: TAGTUT_clean_sbu_1, # of connection points: 8
#     Node 15, Type 0, BuildingBlock: TAGTUT_clean_sbu_1, # of connection points: 8
#     Edge 16, Type (0, 0), BuildingBlock: UVAHIK_clean_linker_0, # of connection points: 2
#     Edge 17, Type (0, 0), BuildingBlock: UVAHIK_clean_linker_0, # of connection points: 2
#     Edge 18, Type (0, 0), BuildingBlock: UVAHIK_clean_linker_0, # of connection points: 2
#     Edge 19, Type (0, 0), BuildingBlock: UVAHIK_clean_linker_0, # of connection points: 2
#     Edge 20, Type (0, 0), BuildingBlock: UVAHIK_clean_linker_0, # of connection points: 2
#     Edge 21, Type (0, 0), BuildingBlock: UVAHIK_clean_linker_0, # of connection points: 2
#     Edge 22, Type (0, 0), BuildingBlock: UVAHIK_clean_linker_0, # of connection points: 2
#     Edge 23, Type (0, 0), BuildingBlock: UVAHIK_clean_linker_0, # of connection points: 2
#     Edge 24, Type (0, 0), BuildingBlock: UVAHIK_clean_linker_0, # of connection points: 2
#     Edge 25, Type (0, 0), BuildingBlock: UVAHIK_clean_linker_0, # of connection points: 2
#     Edge 26, Type (0, 0), BuildingBlock: UVAHIK_clean_linker_0, # of connection points: 2
#     Edge 27, Type (0, 0), BuildingBlock: UVAHIK_clean_linker_0, # of connection points: 2
#     Edge 28, Type (0, 0), BuildingBlock: UVAHIK_clean_linker_0, # of connection points: 2
#     Edge 29, Type (0, 0), BuildingBlock: UVAHIK_clean_linker_0, # of connection points: 2
#     Edge 30, Type (0, 0), BuildingBlock: UVAHIK_clean_linker_0, # of connection points: 2
#     Edge 31, Type (0, 0), BuildingBlock: UVAHIK_clean_linker_0, # of connection points: 2
#     Edge 32, Type (0, 0), BuildingBlock: UVAHIK_clean_linker_0, # of connection points: 2
#     Edge 33, Type (0, 0), BuildingBlock: UVAHIK_clean_linker_0, # of connection points: 2
#     Edge 34, Type (0, 0), BuildingBlock: UVAHIK_clean_linker_0, # of connection points: 2
#     Edge 35, Type (0, 0), BuildingBlock: UVAHIK_clean_linker_0, # of connection points: 2
#     Edge 36, Type (0, 0), BuildingBlock: UVAHIK_clean_linker_0, # of connection points: 2
#     Edge 37, Type (0, 0), BuildingBlock: UVAHIK_clean_linker_0, # of connection points: 2
#     Edge 38, Type (0, 0), BuildingBlock: UVAHIK_clean_linker_0, # of connection points: 2
#     Edge 39, Type (0, 0), BuildingBlock: UVAHIK_clean_linker_0, # of connection points: 2
#     Edge 40, Type (0, 0), BuildingBlock: UVAHIK_clean_linker_0, # of connection points: 2
#     Edge 41, Type (0, 0), BuildingBlock: UVAHIK_clean_linker_0, # of connection points: 2
#     Edge 42, Type (0, 0), BuildingBlock: UVAHIK_clean_linker_0, # of connection points: 2
#     Edge 43, Type (0, 0), BuildingBlock: UVAHIK_clean_linker_0, # of connection points: 2
#     Edge 44, Type (0, 0), BuildingBlock: UVAHIK_clean_linker_0, # of connection points: 2
#     Edge 45, Type (0, 0), BuildingBlock: UVAHIK_clean_linker_0, # of connection points: 2
#     Edge 46, Type (0, 0), BuildingBlock: UVAHIK_clean_linker_0, # of connection points: 2
#     Edge 47, Type (0, 0), BuildingBlock: UVAHIK_clean_linker_0, # of connection points: 2
#     Edge 48, Type (0, 0), BuildingBlock: UVAHIK_clean_linker_0, # of connection points: 2
#     Edge 49, Type (0, 0), BuildingBlock: UVAHIK_clean_linker_0, # of connection points: 2
#     Edge 50, Type (0, 0), BuildingBlock: UVAHIK_clean_linker_0, # of connection points: 2
#     Edge 51, Type (0, 0), BuildingBlock: UVAHIK_clean_linker_0, # of connection points: 2
#     Edge 52, Type (0, 0), BuildingBlock: UVAHIK_clean_linker_0, # of connection points: 2
#     Edge 53, Type (0, 0), BuildingBlock: UVAHIK_clean_linker_0, # of connection points: 2
#     Edge 54, Type (0, 0), BuildingBlock: UVAHIK_clean_linker_0, # of connection points: 2
#     Edge 55, Type (0, 0), BuildingBlock: UVAHIK_clean_linker_0, # of connection points: 2
#     Edge 56, Type (0, 0), BuildingBlock: UVAHIK_clean_linker_0, # of connection points: 2
#     Edge 57, Type (0, 0), BuildingBlock: UVAHIK_clean_linker_0, # of connection points: 2
#     Edge 58, Type (0, 0), BuildingBlock: UVAHIK_clean_linker_0, # of connection points: 2
#     Edge 59, Type (0, 0), BuildingBlock: UVAHIK_clean_linker_0, # of connection points: 2
#     Edge 60, Type (0, 0), BuildingBlock: UVAHIK_clean_linker_0, # of connection points: 2
#     Edge 61, Type (0, 0), BuildingBlock: UVAHIK_clean_linker_0, # of connection points: 2
#     Edge 62, Type (0, 0), BuildingBlock: UVAHIK_clean_linker_0, # of connection points: 2
#     Edge 63, Type (0, 0), BuildingBlock: UVAHIK_clean_linker_0, # of connection points: 2
#     Edge 64, Type (0, 0), BuildingBlock: UVAHIK_clean_linker_0, # of connection points: 2
#     Edge 65, Type (0, 0), BuildingBlock: UVAHIK_clean_linker_0, # of connection points: 2
#     Edge 66, Type (0, 0), BuildingBlock: UVAHIK_clean_linker_0, # of connection points: 2
#     Edge 67, Type (0, 0), BuildingBlock: UVAHIK_clean_linker_0, # of connection points: 2
#     Edge 68, Type (0, 0), BuildingBlock: UVAHIK_clean_linker_0, # of connection points: 2
#     Edge 69, Type (0, 0), BuildingBlock: UVAHIK_clean_linker_0, # of connection points: 2
#     Edge 70, Type (0, 0), BuildingBlock: UVAHIK_clean_linker_0, # of connection points: 2
#     Edge 71, Type (0, 0), BuildingBlock: UVAHIK_clean_linker_0, # of connection points: 2
#     Edge 72, Type (0, 0), BuildingBlock: UVAHIK_clean_linker_0, # of connection points: 2
#     Edge 73, Type (0, 0), BuildingBlock: UVAHIK_clean_linker_0, # of connection points: 2
#     Edge 74, Type (0, 0), BuildingBlock: UVAHIK_clean_linker_0, # of connection points: 2
#     Edge 75, Type (0, 0), BuildingBlock: UVAHIK_clean_linker_0, # of connection points: 2
#     Edge 76, Type (0, 0), BuildingBlock: UVAHIK_clean_linker_0, # of connection points: 2
#     Edge 77, Type (0, 0), BuildingBlock: UVAHIK_clean_linker_0, # of connection points: 2
#     Edge 78, Type (0, 0), BuildingBlock: UVAHIK_clean_linker_0, # of connection points: 2
#     Edge 79, Type (0, 0), BuildingBlock: UVAHIK_clean_linker_0, # of connection points: 2
# Relax obj value: 0.100
# Max RMSD: 0.178
# Mean RMSD: 0.178
data_MOF--net-ecv--node1-TAGTUT_clean_sbu_1--edge1-UVAHIK_clean_linker_0
_symmetry_space_group_name_H-M    P1
_symmetry_Int_Tables_number       1
_symmetry_cell_setting            triclinic
loop_
_symmetry_equiv_pos_as_xyz
'x, y, z'
_cell_length_a     24.883098
_cell_length_b     33.497913
_cell_length_c     147.30314
_cell_angle_alpha  91.716664
_cell_angle_beta   90.000026
_cell_angle_gamma 90.014472
loop_
_atom_site_label
_atom_site_type_symbol
_atom_site_fract_x
_atom_site_fract_y
_atom_site_fract_z
_atom_type_partial_charge
C0 C 0.10693 0.06971 0.46776 0.0
C1 C 0.13715 0.04099 0.43948 0.0
C2 C 0.33474 0.0897 0.44487 0.0
Mg3 Mg 0.10444 0.11788 0.45013 0.0
O4 O 0.17657 0.12462 0.45331 0.0
Mg5 Mg 0.22153 0.07566 0.45566 0.0
Mg6 Mg 0.22486 0.1489 0.44442 0.0
O7 O 0.2737 0.17196 0.43541 0.0
Mg8 Mg 0.34484 0.17938 0.43918 0.0
Mg9 Mg 0.23072 0.22006 0.4321 0.0
C10 C 0.11648 0.20835 0.4439 0.0
C11 C 0.16968 0.14077 0.42417 0.0
O12 O 0.15598 0.06066 0.46596 0.0
O13 O 0.07899 0.0926 0.46276 0.0
O14 O 0.17753 0.03794 0.44479 0.0
O15 O 0.10565 0.07107 0.43995 0.0
O16 O 0.08606 0.17947 0.44634 0.0
O17 O 0.16799 0.2038 0.44332 0.0
C18 C 0.27262 0.15591 0.46522 0.0
O19 O 0.26544 0.1743 0.45774 0.0
O20 O 0.26174 0.11863 0.46584 0.0
O21 O 0.29885 0.22973 0.42112 0.0
O22 O 0.37408 0.20226 0.42672 0.0
O23 O 0.27608 0.26002 0.44251 0.0
C24 C 0.34915 0.22061 0.42048 0.0
O25 O 0.34105 0.22597 0.44927 0.0
O26 O 0.36579 0.11873 0.44285 0.0
C27 C 0.31254 0.25737 0.44859 0.0
O28 O 0.2833 0.0947 0.44519 0.0
O29 O 0.17938 0.12403 0.43173 0.0
O30 O 0.18564 0.17628 0.42258 0.0
C31 C 0.10204 0.18439 0.80232 0.0
C32 C 0.13628 0.20872 0.83077 0.0
C33 C 0.33241 0.16018 0.82424 0.0
Mg34 Mg 0.10097 0.13376 0.81958 0.0
O35 O 0.17282 0.12708 0.81617 0.0
Mg36 Mg 0.21797 0.17615 0.814 0.0
Mg37 Mg 0.222 0.10163 0.82477 0.0
O38 O 0.27176 0.07737 0.83348 0.0
Mg39 Mg 0.34227 0.0697 0.82936 0.0
Mg40 Mg 0.22854 0.02921 0.83669 0.0
C41 C 0.11311 0.04254 0.82529 0.0
C42 C 0.16924 0.10797 0.84521 0.0
O43 O 0.15132 0.19297 0.80405 0.0
O44 O 0.07442 0.16082 0.80721 0.0
O45 O 0.176 0.2125 0.82535 0.0
O46 O 0.104 0.17914 0.83008 0.0
O47 O 0.08259 0.0717 0.82306 0.0
O48 O 0.16467 0.047 0.82579 0.0
C49 C 0.26735 0.09666 0.80381 0.0
O50 O 0.26092 0.07759 0.81121 0.0
O51 O 0.25646 0.13404 0.8034 0.0
O52 O 0.29797 0.01813 0.84738 0.0
O53 O 0.37289 0.04523 0.84155 0.0
O54 O 0.27147 0.99017 0.82581 0.0
C55 C 0.3485 0.02672 0.84783 0.0
O56 O 0.33615 0.02438 0.81899 0.0
O57 O 0.36342 0.13073 0.82597 0.0
C58 C 0.30671 0.99338 0.81954 0.0
O59 O 0.2809 0.15549 0.82408 0.0
O60 O 0.17826 0.12534 0.83771 0.0
O61 O 0.1851 0.07225 0.8466 0.0
C62 C 0.65795 0.77831 0.59827 0.0
C63 C 0.69899 0.74424 0.56991 0.0
C64 C 0.8925 0.79426 0.57546 0.0
Mg65 Mg 0.66299 0.82062 0.57971 0.0
O66 O 0.73372 0.82857 0.58368 0.0
Mg67 Mg 0.77745 0.78073 0.58694 0.0
Mg68 Mg 0.7831 0.85289 0.57492 0.0
O69 O 0.83216 0.87841 0.56631 0.0
Mg70 Mg 0.90383 0.88561 0.56982 0.0
Mg71 Mg 0.78656 0.9272 0.56412 0.0
C72 C 0.67214 0.91088 0.57438 0.0
C73 C 0.73805 0.84728 0.55395 0.0
O74 O 0.7084 0.76959 0.59769 0.0
O75 O 0.63312 0.79675 0.59203 0.0
O76 O 0.73464 0.74135 0.57612 0.0
O77 O 0.66903 0.77498 0.56941 0.0
O78 O 0.6414 0.8814 0.5762 0.0
O79 O 0.72368 0.90643 0.57419 0.0
C80 C 0.83625 0.85987 0.59534 0.0
O81 O 0.82676 0.87704 0.58783 0.0
O82 O 0.82081 0.8241 0.59678 0.0
O83 O 0.85328 0.94444 0.55424 0.0
O84 O 0.93058 0.9131 0.55752 0.0
O85 O 0.82778 0.96379 0.57551 0.0
C86 C 0.90279 0.93639 0.55259 0.0
O87 O 0.89994 0.93094 0.58034 0.0
O88 O 0.92287 0.82356 0.57324 0.0
C89 C 0.86725 0.96027 0.58099 0.0
O90 O 0.84096 0.79866 0.576 0.0
O91 O 0.74435 0.82839 0.56138 0.0
O92 O 0.74874 0.88469 0.55351 0.0
C93 C 0.66232 0.97496 0.17114 0.0
C94 C 0.69919 0.00763 0.19974 0.0
C95 C 0.89503 0.96046 0.19432 0.0
Mg96 Mg 0.66646 0.93153 0.18958 0.0
O97 O 0.73761 0.92492 0.18576 0.0
Mg98 Mg 0.78081 0.97369 0.18284 0.0
Mg99 Mg 0.78687 0.89992 0.19438 0.0
O100 O 0.83677 0.87396 0.20279 0.0
Mg101 Mg 0.90865 0.86862 0.1992 0.0
Mg102 Mg 0.79282 0.82408 0.2045 0.0
C103 C 0.67705 0.84093 0.19456 0.0
C104 C 0.74279 0.90196 0.21537 0.0
O105 O 0.71255 0.98432 0.17186 0.0
O106 O 0.63736 0.95595 0.17727 0.0
O107 O 0.73527 0.01151 0.19363 0.0
O108 O 0.67039 0.97623 0.2001 0.0
O109 O 0.64595 0.87029 0.19282 0.0
O110 O 0.72853 0.84577 0.19478 0.0
C111 C 0.84197 0.89605 0.17416 0.0
O112 O 0.82957 0.87717 0.18132 0.0
O113 O 0.82825 0.9325 0.17311 0.0
O114 O 0.86051 0.80585 0.21417 0.0
O115 O 0.93673 0.83909 0.21116 0.0
O116 O 0.83466 0.79086 0.19255 0.0
C117 C 0.90982 0.81445 0.21588 0.0
O118 O 0.90556 0.82629 0.18808 0.0
O119 O 0.92616 0.93135 0.19634 0.0
C120 C 0.8735 0.79674 0.18704 0.0
O121 O 0.8436 0.95539 0.19376 0.0
O122 O 0.74801 0.92195 0.20806 0.0
O123 O 0.75452 0.86459 0.21554 0.0
C124 C 0.10045 0.5639 0.96673 0.0
C125 C 0.13739 0.54133 0.93828 0.0
C126 C 0.33284 0.58978 0.9455 0.0
Mg127 Mg 0.10078 0.61548 0.94962 0.0
O128 O 0.17232 0.62219 0.95323 0.0
Mg129 Mg 0.21742 0.57313 0.95539 0.0
Mg130 Mg 0.22223 0.64798 0.9448 0.0
O131 O 0.27263 0.6726 0.93626 0.0
Mg132 Mg 0.34294 0.68038 0.94046 0.0
Mg133 Mg 0.22949 0.72056 0.93291 0.0
C134 C 0.11327 0.70694 0.9441 0.0
C135 C 0.17141 0.64167 0.92421 0.0
O136 O 0.14991 0.55559 0.9651 0.0
O137 O 0.07313 0.58768 0.96185 0.0
O138 O 0.1766 0.53734 0.9438 0.0
O139 O 0.10486 0.57074 0.93898 0.0
O140 O 0.08266 0.67765 0.94623 0.0
O141 O 0.16488 0.7026 0.9437 0.0
C142 C 0.26567 0.65238 0.96589 0.0
O143 O 0.25991 0.67174 0.9585 0.0
O144 O 0.25478 0.61495 0.96619 0.0
O145 O 0.29952 0.73156 0.92233 0.0
O146 O 0.37412 0.7045 0.92826 0.0
O147 O 0.27178 0.75978 0.94382 0.0
C148 C 0.35004 0.72289 0.92193 0.0
O149 O 0.33634 0.72603 0.95077 0.0
O150 O 0.3639 0.61935 0.94389 0.0
C151 C 0.3069 0.75698 0.95011 0.0
O152 O 0.28131 0.59435 0.94555 0.0
O153 O 0.17983 0.62418 0.93172 0.0
O154 O 0.18707 0.6775 0.92293 0.0
C155 C 0.10331 0.68562 0.30176 0.0
C156 C 0.13647 0.71095 0.33033 0.0
C157 C 0.33319 0.66364 0.32403 0.0
Mg158 Mg 0.10205 0.6357 0.31914 0.0
O159 O 0.17416 0.6294 0.31587 0.0
Mg160 Mg 0.21885 0.67864 0.31365 0.0
Mg161 Mg 0.22327 0.6046 0.32458 0.0
O162 O 0.27289 0.58097 0.3334 0.0
Mg163 Mg 0.34376 0.57363 0.32947 0.0
Mg164 Mg 0.23016 0.53272 0.3367 0.0
C165 C 0.11509 0.5448 0.32507 0.0
C166 C 0.16975 0.61149 0.34501 0.0
O167 O 0.15236 0.69469 0.30356 0.0
O168 O 0.07576 0.66205 0.30666 0.0
O169 O 0.17626 0.71491 0.32493 0.0
O170 O 0.10431 0.68131 0.32961 0.0
O171 O 0.08439 0.57366 0.32272 0.0
O172 O 0.16656 0.54961 0.32566 0.0
C173 C 0.26933 0.59915 0.30365 0.0
O174 O 0.26287 0.58026 0.31109 0.0
O175 O 0.25813 0.63645 0.30318 0.0
O176 O 0.29921 0.52266 0.34752 0.0
O177 O 0.374 0.55041 0.34182 0.0
O178 O 0.27435 0.49332 0.32605 0.0
C179 C 0.34951 0.53187 0.34808 0.0
O180 O 0.3391 0.52754 0.31926 0.0
O181 O 0.36434 0.63445 0.32588 0.0
C182 C 0.31023 0.49628 0.31987 0.0
O183 O 0.28171 0.65875 0.32384 0.0
O184 O 0.17882 0.62864 0.33747 0.0
O185 O 0.18586 0.57591 0.34646 0.0
C186 C 0.65574 0.27615 0.098 0.0
C187 C 0.69422 0.24221 0.06958 0.0
C188 C 0.8901 0.28857 0.07492 0.0
Mg189 Mg 0.66159 0.31903 0.07952 0.0
O190 O 0.73268 0.32553 0.0834 0.0
Mg191 Mg 0.77485 0.27675 0.08653 0.0
Mg192 Mg 0.78246 0.34926 0.07463 0.0
O193 O 0.83185 0.37407 0.06596 0.0
Mg194 Mg 0.90412 0.37957 0.06921 0.0
Mg195 Mg 0.78797 0.42383 0.06393 0.0
C196 C 0.67343 0.40925 0.0743 0.0
C197 C 0.73616 0.34514 0.05375 0.0
O198 O 0.70585 0.26652 0.09733 0.0
O199 O 0.6313 0.2953 0.09183 0.0
O200 O 0.73013 0.23842 0.07572 0.0
O201 O 0.6656 0.27368 0.06914 0.0
O202 O 0.64192 0.38022 0.07612 0.0
O203 O 0.72484 0.40399 0.07406 0.0
C204 C 0.83585 0.35489 0.09499 0.0
O205 O 0.82697 0.37246 0.08751 0.0
O206 O 0.81954 0.31927 0.09636 0.0
O207 O 0.85444 0.43997 0.05389 0.0
O208 O 0.93071 0.40669 0.05683 0.0
O209 O 0.83161 0.45908 0.0753 0.0
C210 C 0.90336 0.43077 0.05204 0.0
O211 O 0.90286 0.42432 0.07985 0.0
O212 O 0.92112 0.31727 0.07258 0.0
C213 C 0.87141 0.45433 0.08067 0.0
O214 O 0.83872 0.29385 0.07557 0.0
O215 O 0.7424 0.3259 0.06114 0.0
O216 O 0.74789 0.38239 0.05335 0.0
C217 C 0.6556 0.47124 0.67126 0.0
C218 C 0.69549 0.50567 0.69959 0.0
C219 C 0.89053 0.45765 0.69408 0.0
Mg220 Mg 0.66155 0.42878 0.6898 0.0
O221 O 0.7324 0.42169 0.68583 0.0
Mg222 Mg 0.77508 0.4701 0.68261 0.0
Mg223 Mg 0.78233 0.39767 0.69454 0.0
O224 O 0.83188 0.37261 0.70314 0.0
Mg225 Mg 0.90386 0.36656 0.69974 0.0
Mg226 Mg 0.78745 0.32323 0.70528 0.0
C227 C 0.67253 0.33854 0.69507 0.0
C228 C 0.73721 0.40241 0.71551 0.0
O229 O 0.70583 0.48061 0.67187 0.0
O230 O 0.63115 0.45236 0.67747 0.0
O231 O 0.73129 0.50896 0.69342 0.0
O232 O 0.66644 0.47444 0.70011 0.0
O233 O 0.6413 0.36778 0.69329 0.0
O234 O 0.72403 0.34341 0.69522 0.0
C235 C 0.83481 0.39153 0.67409 0.0
O236 O 0.82607 0.37402 0.68158 0.0
O237 O 0.81881 0.42724 0.67275 0.0
O238 O 0.85435 0.30674 0.71521 0.0
O239 O 0.93088 0.33939 0.71208 0.0
O240 O 0.82998 0.28749 0.69386 0.0
C241 C 0.90353 0.31558 0.71694 0.0
O242 O 0.90141 0.32162 0.68915 0.0
O243 O 0.92144 0.42877 0.69634 0.0
C244 C 0.86955 0.2918 0.68842 0.0
O245 O 0.83909 0.45264 0.69351 0.0
O246 O 0.74323 0.42151 0.7081 0.0
O247 O 0.74855 0.36509 0.71591 0.0
C248 C 0.59941 0.06665 0.96689 0.0
C249 C 0.63327 0.04169 0.9384 0.0
C250 C 0.8308 0.08826 0.94505 0.0
Mg251 Mg 0.59964 0.11699 0.94958 0.0
O252 O 0.67161 0.12288 0.95299 0.0
Mg253 Mg 0.71566 0.0734 0.9552 0.0
Mg254 Mg 0.72136 0.14763 0.94437 0.0
O255 O 0.77158 0.17132 0.93567 0.0
Mg256 Mg 0.84231 0.1784 0.9397 0.0
Mg257 Mg 0.7293 0.21975 0.93236 0.0
C258 C 0.61363 0.20793 0.94381 0.0
C259 C 0.6691 0.14113 0.92391 0.0
O260 O 0.64854 0.05753 0.96518 0.0
O261 O 0.57229 0.09033 0.96196 0.0
O262 O 0.67282 0.03744 0.94384 0.0
O263 O 0.60172 0.0717 0.93906 0.0
O264 O 0.58257 0.17912 0.94607 0.0
O265 O 0.6651 0.20293 0.9433 0.0
C266 C 0.7666 0.15255 0.96531 0.0
O267 O 0.76064 0.17156 0.95789 0.0
O268 O 0.75495 0.1153 0.96576 0.0
O269 O 0.79878 0.2297 0.92164 0.0
O270 O 0.87314 0.20152 0.92737 0.0
O271 O 0.77345 0.25896 0.94305 0.0
C272 C 0.84901 0.22025 0.92111 0.0
O273 O 0.83779 0.22461 0.9499 0.0
O274 O 0.86219 0.11746 0.9433 0.0
C275 C 0.80925 0.256 0.94923 0.0
O276 O 0.77931 0.09319 0.94513 0.0
O277 O 0.67758 0.12378 0.93144 0.0
O278 O 0.68536 0.17675 0.92254 0.0
C279 C 0.60705 0.18525 0.30194 0.0
C280 C 0.64085 0.21055 0.33035 0.0
C281 C 0.83654 0.16173 0.32422 0.0
Mg282 Mg 0.60547 0.13526 0.3193 0.0
O283 O 0.6773 0.12818 0.31591 0.0
Mg284 Mg 0.7227 0.17706 0.31369 0.0
Mg285 Mg 0.72603 0.10309 0.32464 0.0
O286 O 0.77518 0.07928 0.33351 0.0
Mg287 Mg 0.84619 0.0717 0.32965 0.0
Mg288 Mg 0.73178 0.03124 0.33673 0.0
C289 C 0.617 0.04424 0.32516 0.0
C290 C 0.67198 0.11025 0.34498 0.0
O291 O 0.65642 0.19361 0.30365 0.0
O292 O 0.57917 0.16208 0.30689 0.0
O293 O 0.68058 0.21404 0.32492 0.0
O294 O 0.60853 0.18098 0.32973 0.0
O295 O 0.58667 0.07342 0.32287 0.0
O296 O 0.66857 0.04857 0.32569 0.0
C297 C 0.77218 0.09695 0.30375 0.0
O298 O 0.76562 0.07833 0.31121 0.0
O299 O 0.76131 0.1343 0.30323 0.0
O300 O 0.80042 0.02053 0.34758 0.0
O301 O 0.8757 0.04804 0.34202 0.0
O302 O 0.77552 0.99196 0.326 0.0
C303 C 0.85078 0.02948 0.34822 0.0
O304 O 0.84108 0.02597 0.31937 0.0
O305 O 0.86749 0.13253 0.32615 0.0
C306 C 0.81146 0.99502 0.31985 0.0
O307 O 0.78509 0.15683 0.32391 0.0
O308 O 0.6816 0.12734 0.33746 0.0
O309 O 0.68765 0.07458 0.34646 0.0
C310 C 0.16857 0.77525 0.09995 0.0
C311 C 0.20201 0.74051 0.07142 0.0
C312 C 0.39596 0.7927 0.0754 0.0
Mg313 Mg 0.16682 0.81702 0.08131 0.0
O314 O 0.23861 0.8259 0.08459 0.0
Mg315 Mg 0.28442 0.77882 0.08767 0.0
Mg316 Mg 0.28545 0.85033 0.07543 0.0
O317 O 0.33209 0.87583 0.06644 0.0
Mg318 Mg 0.40437 0.88376 0.06948 0.0
Mg319 Mg 0.2851 0.92399 0.06437 0.0
C320 C 0.17315 0.90706 0.07547 0.0
C321 C 0.23637 0.84305 0.05471 0.0
O322 O 0.21902 0.76753 0.09893 0.0
O323 O 0.14093 0.79305 0.09394 0.0
O324 O 0.23959 0.73831 0.07732 0.0
O325 O 0.17131 0.77093 0.07109 0.0
O326 O 0.14351 0.87754 0.07771 0.0
O327 O 0.22467 0.90304 0.07488 0.0
C328 C 0.34284 0.85914 0.09553 0.0
O329 O 0.33122 0.87589 0.08805 0.0
O330 O 0.32892 0.82316 0.0971 0.0
O331 O 0.34944 0.94135 0.054 0.0
O332 O 0.42783 0.91081 0.05694 0.0
O333 O 0.32792 0.96148 0.07542 0.0
C334 C 0.39872 0.93351 0.05209 0.0
O335 O 0.40162 0.92952 0.07993 0.0
O336 O 0.42548 0.82202 0.07292 0.0
C337 C 0.36847 0.95854 0.0807 0.0
O338 O 0.34458 0.7969 0.07628 0.0
O339 O 0.24453 0.82458 0.06215 0.0
O340 O 0.24606 0.88055 0.05413 0.0
C341 C 0.15872 0.97099 0.67093 0.0
C342 C 0.19817 0.0063 0.69913 0.0
C343 C 0.39234 0.95633 0.69405 0.0
Mg344 Mg 0.1635 0.92916 0.68955 0.0
O345 O 0.23426 0.92119 0.68561 0.0
Mg346 Mg 0.27786 0.9691 0.68233 0.0
Mg347 Mg 0.28337 0.89717 0.69445 0.0
O348 O 0.33206 0.87207 0.70318 0.0
Mg349 Mg 0.40417 0.86533 0.69993 0.0
Mg350 Mg 0.28674 0.82314 0.70536 0.0
C351 C 0.17272 0.83901 0.69498 0.0
C352 C 0.23703 0.90299 0.71534 0.0
O353 O 0.20915 0.97978 0.67151 0.0
O354 O 0.13385 0.95265 0.67718 0.0
O355 O 0.23417 0.00886 0.69297 0.0
O356 O 0.16874 0.97533 0.69975 0.0
O357 O 0.142 0.86847 0.69315 0.0
O358 O 0.22428 0.84341 0.69515 0.0
C359 C 0.33734 0.88987 0.67409 0.0
O360 O 0.32778 0.87283 0.68162 0.0
O361 O 0.32175 0.92556 0.67261 0.0
O362 O 0.35282 0.80652 0.71545 0.0
O363 O 0.42995 0.83853 0.71238 0.0
O364 O 0.32916 0.7866 0.6941 0.0
C365 C 0.40201 0.8151 0.71725 0.0
O366 O 0.40156 0.81976 0.68945 0.0
O367 O 0.42279 0.92735 0.69642 0.0
C368 C 0.36911 0.79029 0.68872 0.0
O369 O 0.3409 0.9516 0.69339 0.0
O370 O 0.2438 0.92181 0.70791 0.0
O371 O 0.24781 0.86562 0.71583 0.0
C372 C 0.6021 0.56491 0.46635 0.0
C373 C 0.63987 0.54202 0.43789 0.0
C374 C 0.83455 0.58984 0.44493 0.0
Mg375 Mg 0.60287 0.61623 0.44919 0.0
O376 O 0.67435 0.62301 0.45285 0.0
Mg377 Mg 0.71931 0.57386 0.45504 0.0
Mg378 Mg 0.72422 0.64862 0.44437 0.0
O379 O 0.77443 0.67293 0.43574 0.0
Mg380 Mg 0.84521 0.68015 0.43975 0.0
Mg381 Mg 0.73156 0.72124 0.43252 0.0
C382 C 0.61549 0.70775 0.44371 0.0
C383 C 0.67224 0.64282 0.42385 0.0
O384 O 0.65162 0.55653 0.46477 0.0
O385 O 0.57498 0.58855 0.4614 0.0
O386 O 0.6788 0.53801 0.44346 0.0
O387 O 0.6072 0.57135 0.43857 0.0
O388 O 0.5848 0.67846 0.44581 0.0
O389 O 0.66708 0.70332 0.44331 0.0
C390 C 0.76794 0.6532 0.46544 0.0
O391 O 0.76237 0.67235 0.45803 0.0
O392 O 0.75676 0.61584 0.46581 0.0
O393 O 0.80132 0.73232 0.42188 0.0
O394 O 0.876 0.70427 0.42752 0.0
O395 O 0.774 0.75976 0.44358 0.0
C396 C 0.85164 0.72315 0.42131 0.0
O397 O 0.839 0.72506 0.45019 0.0
O398 O 0.86576 0.61909 0.44315 0.0
C399 C 0.80911 0.75589 0.44984 0.0
O400 O 0.78308 0.59478 0.44513 0.0
O401 O 0.68109 0.62529 0.43134 0.0
O402 O 0.68821 0.67856 0.42251 0.0
C403 C 0.59858 0.68362 0.80271 0.0
C404 C 0.63399 0.70875 0.83104 0.0
C405 C 0.83082 0.66116 0.82422 0.0
Mg406 Mg 0.59934 0.63327 0.82002 0.0
O407 O 0.67103 0.62702 0.81649 0.0
Mg408 Mg 0.71539 0.67628 0.81418 0.0
Mg409 Mg 0.72106 0.60209 0.82503 0.0
O410 O 0.77162 0.57826 0.83367 0.0
Mg411 Mg 0.84198 0.5709 0.82947 0.0
Mg412 Mg 0.72921 0.52996 0.83704 0.0
C413 C 0.61298 0.54223 0.82576 0.0
C414 C 0.66989 0.60871 0.84559 0.0
O415 O 0.64791 0.69244 0.80433 0.0
O416 O 0.57153 0.66003 0.80768 0.0
O417 O 0.6733 0.71263 0.82554 0.0
O418 O 0.60235 0.67874 0.83051 0.0
O419 O 0.58199 0.57116 0.82355 0.0
O420 O 0.6645 0.54706 0.82621 0.0
C421 C 0.76513 0.59684 0.80399 0.0
O422 O 0.75941 0.57791 0.81143 0.0
O423 O 0.75379 0.63414 0.80356 0.0
O424 O 0.79929 0.51969 0.84765 0.0
O425 O 0.87353 0.5472 0.84169 0.0
O426 O 0.77227 0.49072 0.82622 0.0
C427 C 0.84972 0.52869 0.84803 0.0
O428 O 0.83616 0.52501 0.81923 0.0
O429 O 0.86215 0.63188 0.82592 0.0
C430 C 0.80741 0.49373 0.81993 0.0
O431 O 0.77932 0.65631 0.82418 0.0
O432 O 0.67804 0.62606 0.83805 0.0
O433 O 0.6861 0.57306 0.84693 0.0
C434 C 0.15766 0.27983 0.59804 0.0
C435 C 0.19672 0.24472 0.56991 0.0
C436 C 0.3918 0.29303 0.575 0.0
Mg437 Mg 0.16363 0.32209 0.57947 0.0
O438 O 0.23431 0.32949 0.58347 0.0
Mg439 Mg 0.27702 0.28112 0.58673 0.0
Mg440 Mg 0.2838 0.35317 0.57463 0.0
O441 O 0.33278 0.37789 0.5659 0.0
Mg442 Mg 0.40507 0.38384 0.56907 0.0
Mg443 Mg 0.28836 0.42725 0.56372 0.0
C444 C 0.17409 0.4123 0.57413 0.0
C445 C 0.23738 0.34789 0.55373 0.0
O446 O 0.20808 0.27094 0.59756 0.0
O447 O 0.13328 0.29829 0.59176 0.0
O448 O 0.23246 0.24172 0.5761 0.0
O449 O 0.16839 0.27619 0.56922 0.0
O450 O 0.14302 0.38299 0.57593 0.0
O451 O 0.22561 0.40758 0.57396 0.0
C452 C 0.3377 0.35986 0.59501 0.0
O453 O 0.32853 0.37707 0.58749 0.0
O454 O 0.32154 0.32428 0.59647 0.0
O455 O 0.35456 0.44311 0.55358 0.0
O456 O 0.43107 0.41024 0.55659 0.0
O457 O 0.33182 0.46345 0.57493 0.0
C458 C 0.4035 0.43394 0.55173 0.0
O459 O 0.40361 0.42945 0.57953 0.0
O460 O 0.42263 0.32174 0.5726 0.0
C461 C 0.3719 0.45934 0.58027 0.0
O462 O 0.34043 0.29816 0.57568 0.0
O463 O 0.24396 0.32894 0.56115 0.0
O464 O 0.24854 0.3852 0.55327 0.0
C465 C 0.16071 0.47332 0.17021 0.0
C466 C 0.19897 0.5122 0.19794 0.0
C467 C 0.39355 0.46029 0.19353 0.0
Mg468 Mg 0.1651 0.4335 0.1891 0.0
O469 O 0.23567 0.4248 0.18515 0.0
Mg470 Mg 0.27961 0.47212 0.1816 0.0
Mg471 Mg 0.28443 0.40144 0.19414 0.0
O472 O 0.33276 0.37698 0.20301 0.0
Mg473 Mg 0.40484 0.36983 0.1998 0.0
Mg474 Mg 0.28724 0.32831 0.20535 0.0
C475 C 0.17363 0.34367 0.19486 0.0
C476 C 0.2374 0.40888 0.21497 0.0
O477 O 0.21133 0.48163 0.17064 0.0
O478 O 0.1358 0.456 0.17661 0.0
O479 O 0.23523 0.51344 0.1918 0.0
O480 O 0.17022 0.48112 0.19897 0.0
O481 O 0.14308 0.37316 0.19296 0.0
O482 O 0.22521 0.34787 0.195 0.0
C483 C 0.33892 0.39194 0.17383 0.0
O484 O 0.32909 0.37569 0.18144 0.0
O485 O 0.32362 0.4275 0.17217 0.0
O486 O 0.35297 0.31255 0.21556 0.0
O487 O 0.4303 0.34404 0.21237 0.0
O488 O 0.33007 0.29062 0.19433 0.0
C489 C 0.40217 0.32117 0.21735 0.0
O490 O 0.40258 0.32325 0.18956 0.0
O491 O 0.42378 0.43141 0.19602 0.0
C492 C 0.37028 0.29365 0.18899 0.0
O493 O 0.34207 0.45573 0.19287 0.0
O494 O 0.24454 0.42726 0.20749 0.0
O495 O 0.24802 0.37155 0.21559 0.0
C496 C 0.31339 0.33113 0.44988 0.0
C497 C 0.3327 0.29453 0.45297 0.0
C498 C 0.34921 0.36253 0.44876 0.0
C499 C 0.49357 0.39018 0.44986 0.0
H500 H 0.47333 0.40288 0.42394 0.0
C501 C 0.65029 0.47061 0.43329 0.0
C502 C 0.62457 0.50741 0.43205 0.0
C503 C 0.62043 0.43547 0.43257 0.0
C504 C 0.4797 0.39895 0.43113 0.0
H505 H 0.39789 0.26652 0.46022 0.0
H506 H 0.46031 0.32082 0.45817 0.0
H507 H 0.4027 0.37229 0.43286 0.0
H508 H 0.55422 0.53541 0.42631 0.0
H509 H 0.50283 0.47467 0.425 0.0
H510 H 0.57026 0.41717 0.44817 0.0
C511 C 0.41888 0.32499 0.45615 0.0
C512 C 0.43892 0.38243 0.4363 0.0
C513 C 0.38292 0.29373 0.45733 0.0
C514 C 0.57443 0.50766 0.42767 0.0
C515 C 0.54478 0.47253 0.42689 0.0
C516 C 0.5344 0.40654 0.44469 0.0
C517 C 0.40371 0.35737 0.45089 0.0
C518 C 0.44516 0.37848 0.44574 0.0
C519 C 0.5654 0.43749 0.43054 0.0
C520 C 0.52761 0.41151 0.4353 0.0
H521 H 0.27367 0.33339 0.44692 0.0
H522 H 0.33602 0.38834 0.4451 0.0
H523 H 0.49957 0.38715 0.45709 0.0
H524 H 0.69009 0.46931 0.43625 0.0
H525 H 0.63774 0.40819 0.43505 0.0
C526 C 0.13762 0.96753 0.43746 0.0
C527 C 0.1174 0.0045 0.43475 0.0
C528 C 0.10237 0.93567 0.43848 0.0
C529 C 0.96656 0.94021 0.44634 0.0
H530 H 0.9807 0.82628 0.44919 0.0
C531 C 0.80552 0.82893 0.45289 0.0
C532 C 0.82435 0.79133 0.45541 0.0
C533 C 0.83933 0.86191 0.45378 0.0
C534 C 0.97711 0.85835 0.44867 0.0
H535 H 0.0508 0.03306 0.428 0.0
H536 H 0.99015 0.97706 0.42942 0.0
H537 H 0.04416 0.8607 0.4396 0.0
H538 H 0.88355 0.76102 0.46355 0.0
H539 H 0.94252 0.81865 0.46508 0.0
H540 H 0.89882 0.93769 0.45527 0.0
C541 C 0.03171 0.97353 0.43144 0.0
C542 C 0.01279 0.87778 0.44302 0.0
C543 C 0.06677 0.00552 0.43054 0.0
C544 C 0.86964 0.78935 0.46108 0.0
C545 C 0.90339 0.82238 0.46199 0.0
C546 C 0.93081 0.92077 0.45198 0.0
C547 C 0.04768 0.94064 0.43646 0.0
C548 C 0.00733 0.91876 0.44169 0.0
C549 C 0.89138 0.85702 0.45726 0.0
C550 C 0.93539 0.87959 0.45312 0.0
H551 H 0.17756 0.96518 0.44033 0.0
H552 H 0.11629 0.90995 0.44209 0.0
H553 H 0.96264 0.97222 0.44571 0.0
H554 H 0.7692 0.83175 0.4489 0.0
H555 H 0.82818 0.88885 0.45035 0.0
C556 C 0.30372 0.91997 0.81722 0.0
C557 C 0.32349 0.95697 0.81445 0.0
C558 C 0.33811 0.88721 0.81727 0.0
C559 C 0.4746 0.89098 0.82375 0.0
H560 H 0.46005 0.7772 0.82682 0.0
C561 C 0.63541 0.78184 0.83385 0.0
C562 C 0.61561 0.74434 0.83628 0.0
C563 C 0.60019 0.81406 0.83349 0.0
C564 C 0.46389 0.80921 0.8262 0.0
H565 H 0.38619 0.9855 0.8067 0.0
H566 H 0.446 0.92821 0.80678 0.0
H567 H 0.39721 0.81131 0.81703 0.0
H568 H 0.55067 0.71455 0.84321 0.0
H569 H 0.49021 0.77108 0.84291 0.0
H570 H 0.54099 0.88899 0.83297 0.0
C571 C 0.40561 0.92501 0.80941 0.0
C572 C 0.42867 0.82842 0.82043 0.0
C573 C 0.37125 0.95781 0.80937 0.0
C574 C 0.56621 0.7426 0.84088 0.0
C575 C 0.53126 0.77497 0.84064 0.0
C576 C 0.50976 0.8718 0.82954 0.0
C577 C 0.39154 0.89158 0.81441 0.0
C578 C 0.43372 0.86946 0.81914 0.0
C579 C 0.546 0.80879 0.83583 0.0
C580 C 0.5046 0.83076 0.83085 0.0
H581 H 0.26566 0.91791 0.82075 0.0
H582 H 0.32554 0.86113 0.8209 0.0
H583 H 0.47834 0.92301 0.82313 0.0
H584 H 0.67452 0.78467 0.8307 0.0
H585 H 0.61332 0.84046 0.83004 0.0
C586 C 0.06863 0.24314 0.84053 0.0
C587 C 0.1191 0.24393 0.83626 0.0
C588 C 0.03684 0.27729 0.84076 0.0
C589 C 0.96887 0.3489 0.83604 0.0
H590 H 0.98851 0.36081 0.81008 0.0
C591 C 0.87541 0.45723 0.81068 0.0
C592 C 0.82556 0.45688 0.81516 0.0
C593 C 0.90983 0.42473 0.81142 0.0
C594 C 0.98251 0.35762 0.8173 0.0
H595 H 0.18267 0.28299 0.83169 0.0
H596 H 0.12677 0.34242 0.83199 0.0
H597 H 0.0594 0.33085 0.819 0.0
H598 H 0.76504 0.41841 0.82092 0.0
H599 H 0.82474 0.36141 0.82201 0.0
H600 H 0.89189 0.37555 0.83434 0.0
C601 C 0.11079 0.31527 0.83476 0.0
C602 C 0.02343 0.34131 0.82246 0.0
C603 C 0.14275 0.28112 0.83459 0.0
C604 C 0.80462 0.42017 0.81789 0.0
C605 C 0.83889 0.38755 0.81857 0.0
C606 C 0.92799 0.36532 0.83088 0.0
C607 C 0.05581 0.31202 0.83673 0.0
C608 C 0.01689 0.33665 0.83187 0.0
C609 C 0.89348 0.39175 0.81639 0.0
C610 C 0.93424 0.3695 0.82145 0.0
H611 H 0.04995 0.21518 0.84222 0.0
H612 H 0.99491 0.27429 0.8426 0.0
H613 H 0.96268 0.3452 0.84324 0.0
H614 H 0.89156 0.48462 0.80805 0.0
H615 H 0.95132 0.42824 0.80936 0.0
C616 C 0.36738 0.53187 0.58399 0.0
C617 C 0.39016 0.49442 0.58569 0.0
C618 C 0.40024 0.56555 0.58406 0.0
C619 C 0.54273 0.59756 0.58515 0.0
H620 H 0.52264 0.60907 0.55918 0.0
C621 C 0.70482 0.67101 0.56736 0.0
C622 C 0.68248 0.70763 0.56488 0.0
C623 C 0.67191 0.63747 0.5677 0.0
C624 C 0.5288 0.60591 0.56641 0.0
H625 H 0.45884 0.4649 0.5916 0.0
H626 H 0.51537 0.52322 0.59182 0.0
H627 H 0.45177 0.57942 0.56818 0.0
H628 H 0.61594 0.73489 0.55783 0.0
H629 H 0.55845 0.67698 0.55859 0.0
H630 H 0.61971 0.62407 0.5834 0.0
C631 C 0.47344 0.52675 0.59003 0.0
C632 C 0.4879 0.58982 0.57161 0.0
C633 C 0.44077 0.49306 0.5899 0.0
C634 C 0.633 0.70748 0.56029 0.0
C635 C 0.59994 0.67407 0.56069 0.0
C636 C 0.58358 0.61377 0.57996 0.0
C637 C 0.4552 0.56157 0.58597 0.0
C638 C 0.49451 0.58549 0.58102 0.0
C639 C 0.61726 0.64082 0.56548 0.0
C640 C 0.57711 0.61792 0.57052 0.0
H641 H 0.3274 0.53421 0.58114 0.0
H642 H 0.38486 0.59282 0.58125 0.0
H643 H 0.54898 0.59403 0.59236 0.0
H644 H 0.74423 0.66971 0.57047 0.0
H645 H 0.68685 0.6112 0.571 0.0
C646 C 0.85846 0.03234 0.58505 0.0
C647 C 0.88336 0.99548 0.58658 0.0
C648 C 0.88916 0.06714 0.58543 0.0
C649 C 0.03031 0.10278 0.58683 0.0
H650 H 0.01086 0.11442 0.56086 0.0
C651 C 0.19659 0.17102 0.56832 0.0
C652 C 0.17705 0.20778 0.56536 0.0
C653 C 0.161 0.13934 0.56927 0.0
C654 C 0.01677 0.11138 0.56809 0.0
H655 H 0.95326 0.96756 0.59249 0.0
H656 H 0.00612 0.02774 0.59323 0.0
H657 H 0.93995 0.08449 0.56977 0.0
H658 H 0.11187 0.23603 0.55816 0.0
H659 H 0.04985 0.18125 0.55993 0.0
H660 H 0.10737 0.12936 0.58513 0.0
C661 C 0.96417 0.03009 0.59135 0.0
C662 C 0.97582 0.09507 0.57325 0.0
C663 C 0.93366 0.9953 0.59091 0.0
C664 C 0.12699 0.20866 0.56095 0.0
C665 C 0.09126 0.17712 0.56196 0.0
C666 C 0.07121 0.11919 0.58168 0.0
C667 C 0.94417 0.0648 0.58746 0.0
C668 C 0.98241 0.09026 0.58265 0.0
C669 C 0.10652 0.14443 0.56712 0.0
C670 C 0.06511 0.12311 0.57224 0.0
H671 H 0.81859 0.03369 0.58211 0.0
H672 H 0.87234 0.09422 0.58276 0.0
H673 H 0.03652 0.09902 0.59404 0.0
H674 H 0.23621 0.16874 0.57131 0.0
H675 H 0.17426 0.11333 0.57286 0.0
C676 C 0.63063 0.04254 0.20919 0.0
C677 C 0.68056 0.04373 0.20474 0.0
C678 C 0.59616 0.07515 0.20873 0.0
C679 C 0.52352 0.14314 0.20317 0.0
H680 H 0.54385 0.15616 0.17726 0.0
C681 C 0.43857 0.25799 0.1796 0.0
C682 C 0.38785 0.25775 0.18379 0.0
C683 C 0.47019 0.22378 0.1796 0.0
C684 C 0.53753 0.15235 0.18446 0.0
H685 H 0.74108 0.08327 0.19935 0.0
H686 H 0.6812 0.14035 0.19872 0.0
H687 H 0.61443 0.12562 0.18616 0.0
H688 H 0.32393 0.21937 0.18851 0.0
H689 H 0.37952 0.15979 0.18859 0.0
H690 H 0.44674 0.17011 0.20148 0.0
C691 C 0.66714 0.11364 0.20195 0.0
C692 C 0.57828 0.1358 0.18961 0.0
C693 C 0.70147 0.08093 0.20235 0.0
C694 C 0.364 0.22084 0.18566 0.0
C695 C 0.3958 0.18663 0.18571 0.0
C696 C 0.48275 0.15969 0.19802 0.0
C697 C 0.61252 0.10895 0.20405 0.0
C698 C 0.57186 0.1314 0.19903 0.0
C699 C 0.45083 0.18948 0.18375 0.0
C700 C 0.4895 0.16464 0.18862 0.0
H701 H 0.61452 0.01467 0.21156 0.0
H702 H 0.55463 0.07125 0.21072 0.0
H703 H 0.51738 0.13963 0.21038 0.0
H704 H 0.45747 0.28569 0.17778 0.0
H705 H 0.51218 0.22649 0.17777 0.0
C706 C 0.86506 0.72647 0.18146 0.0
C707 C 0.88928 0.76409 0.18067 0.0
C708 C 0.89634 0.69222 0.18028 0.0
C709 C 0.0383 0.65898 0.17916 0.0
H710 H 0.0159 0.64609 0.20503 0.0
C711 C 0.20023 0.58608 0.19853 0.0
C712 C 0.17906 0.55042 0.20184 0.0
C713 C 0.16594 0.61805 0.19701 0.0
C714 C 0.02265 0.64932 0.19782 0.0
H715 H 0.95753 0.7952 0.175 0.0
H716 H 0.01207 0.73581 0.17317 0.0
H717 H 0.94635 0.67661 0.19601 0.0
H718 H 0.11139 0.52478 0.20891 0.0
H719 H 0.05175 0.58004 0.20623 0.0
H720 H 0.11477 0.63157 0.18101 0.0
C721 C 0.97026 0.73231 0.17504 0.0
C722 C 0.98248 0.66607 0.1926 0.0
C723 C 0.93898 0.76654 0.17618 0.0
C724 C 0.12799 0.55122 0.2059 0.0
C725 C 0.0936 0.58305 0.20435 0.0
C726 C 0.07841 0.64183 0.18439 0.0
C727 C 0.95135 0.69612 0.17838 0.0
C728 C 0.98991 0.67113 0.18323 0.0
C729 C 0.11099 0.61455 0.19899 0.0
C730 C 0.07108 0.63709 0.19379 0.0
H731 H 0.82552 0.72357 0.18445 0.0
H732 H 0.88032 0.66403 0.18249 0.0
H733 H 0.04527 0.66325 0.172 0.0
H734 H 0.24055 0.58711 0.19577 0.0
H735 H 0.18089 0.64313 0.19328 0.0
C736 C 0.56441 0.00796 0.92877 0.0
C737 C 0.6151 0.00661 0.93296 0.0
C738 C 0.53137 0.97445 0.92881 0.0
C739 C 0.46174 0.90413 0.93402 0.0
H740 H 0.48404 0.89276 0.95994 0.0
C741 C 0.37405 0.79434 0.95938 0.0
C742 C 0.32393 0.7939 0.95498 0.0
C743 C 0.40708 0.82767 0.95871 0.0
C744 C 0.47726 0.89586 0.95273 0.0
H745 H 0.67775 0.96679 0.93753 0.0
H746 H 0.61987 0.90845 0.93764 0.0
H747 H 0.55403 0.92247 0.95077 0.0
H748 H 0.26151 0.83144 0.94947 0.0
H749 H 0.31885 0.88983 0.94849 0.0
H750 H 0.38501 0.87743 0.93596 0.0
C751 C 0.60455 0.93565 0.93479 0.0
C752 C 0.51765 0.91202 0.94743 0.0
C753 C 0.63768 0.96916 0.93472 0.0
C754 C 0.30134 0.83034 0.95243 0.0
C755 C 0.33424 0.86379 0.95182 0.0
C756 C 0.42139 0.88782 0.93931 0.0
C757 C 0.54951 0.93979 0.93296 0.0
C758 C 0.5103 0.91623 0.93803 0.0
C759 C 0.38913 0.86062 0.95388 0.0
C760 C 0.42869 0.88365 0.94873 0.0
H761 H 0.5466 0.0361 0.92697 0.0
H762 H 0.4894 0.97806 0.92706 0.0
H763 H 0.4549 0.90757 0.92682 0.0
H764 H 0.39146 0.76712 0.96187 0.0
H765 H 0.44882 0.82489 0.96068 0.0
C766 C 0.80798 0.32967 0.95101 0.0
C767 C 0.8285 0.29297 0.95383 0.0
C768 C 0.84275 0.3619 0.95013 0.0
C769 C 0.98655 0.39135 0.95122 0.0
H770 H 0.96573 0.4045 0.92533 0.0
C771 C 0.14534 0.46935 0.93413 0.0
C772 C 0.1211 0.50646 0.9326 0.0
C773 C 0.11394 0.4349 0.93378 0.0
C774 C 0.9722 0.40057 0.93252 0.0
H775 H 0.89469 0.26507 0.96084 0.0
H776 H 0.95526 0.32081 0.95921 0.0
H777 H 0.89531 0.37377 0.93427 0.0
H778 H 0.0518 0.53505 0.92664 0.0
H779 H 0.99764 0.47545 0.92602 0.0
H780 H 0.06327 0.41832 0.9495 0.0
C781 C 0.91368 0.32454 0.95723 0.0
C782 C 0.93155 0.38393 0.93769 0.0
C783 C 0.87879 0.29243 0.95816 0.0
C784 C 0.07083 0.50711 0.92826 0.0
C785 C 0.03956 0.47267 0.92788 0.0
C786 C 0.02724 0.40787 0.94605 0.0
C787 C 0.89742 0.3574 0.95221 0.0
C788 C 0.93814 0.37954 0.94711 0.0
C789 C 0.05892 0.43784 0.93181 0.0
C790 C 0.02034 0.41283 0.93666 0.0
H791 H 0.76817 0.33163 0.94808 0.0
H792 H 0.82871 0.38797 0.94665 0.0
H793 H 0.9928 0.38802 0.95844 0.0
H794 H 0.18519 0.46762 0.93705 0.0
H795 H 0.13028 0.40768 0.93646 0.0
C796 C 0.64745 0.28307 0.33401 0.0
C797 C 0.62378 0.24598 0.33577 0.0
C798 C 0.61564 0.3173 0.33421 0.0
C799 C 0.52764 0.34394 0.32211 0.0
H800 H 0.39697 0.37819 0.33426 0.0
C801 C 0.30836 0.42267 0.31793 0.0
C802 C 0.32887 0.45944 0.31516 0.0
C803 C 0.3429 0.39019 0.31858 0.0
C804 C 0.43283 0.36798 0.33073 0.0
H805 H 0.55484 0.21747 0.34185 0.0
H806 H 0.50004 0.27671 0.34227 0.0
H807 H 0.46825 0.34757 0.34301 0.0
H808 H 0.39442 0.48747 0.308 0.0
H809 H 0.45468 0.43132 0.30925 0.0
H810 H 0.49198 0.36375 0.30981 0.0
C811 C 0.54187 0.27959 0.34035 0.0
C812 C 0.47398 0.3514 0.33579 0.0
C813 C 0.57351 0.24537 0.34011 0.0
C814 C 0.37862 0.46001 0.31065 0.0
C815 C 0.4133 0.42765 0.31135 0.0
C816 C 0.48645 0.36043 0.31705 0.0
C817 C 0.56077 0.31423 0.33629 0.0
C818 C 0.52169 0.33909 0.33152 0.0
C819 C 0.39736 0.39458 0.31633 0.0
C820 C 0.43847 0.37229 0.32129 0.0
H821 H 0.68723 0.28482 0.33106 0.0
H822 H 0.63159 0.34439 0.3314 0.0
H823 H 0.56335 0.33346 0.31857 0.0
H824 H 0.2689 0.42072 0.321 0.0
H825 H 0.32909 0.36398 0.32203 0.0
C826 C 0.87852 0.95878 0.31035 0.0
C827 C 0.82883 0.95847 0.31488 0.0
C828 C 0.91246 0.92594 0.31093 0.0
C829 C 0.92939 0.86703 0.33041 0.0
H830 H 0.06172 0.8325 0.31884 0.0
C831 C 0.06889 0.74508 0.34015 0.0
C832 C 0.11942 0.7459 0.33591 0.0
C833 C 0.03751 0.77942 0.34051 0.0
C834 C 0.02549 0.84301 0.32221 0.0
H835 H 0.76776 0.91999 0.32048 0.0
H836 H 0.82666 0.86244 0.3213 0.0
H837 H 0.99122 0.86178 0.30972 0.0
H838 H 0.18358 0.78492 0.33155 0.0
H839 H 0.12827 0.84466 0.33202 0.0
H840 H 0.96343 0.84764 0.34288 0.0
C841 C 0.84108 0.88871 0.31794 0.0
C842 C 0.98478 0.85887 0.31694 0.0
C843 C 0.80729 0.92168 0.31743 0.0
C844 C 0.14357 0.78307 0.33441 0.0
C845 C 0.11198 0.81741 0.3347 0.0
C846 C 0.97005 0.85106 0.33568 0.0
C847 C 0.89575 0.89277 0.3158 0.0
C848 C 0.93618 0.87073 0.32097 0.0
C849 C 0.0569 0.81428 0.3366 0.0
C850 C 0.01839 0.83879 0.33163 0.0
H851 H 0.895 0.98628 0.30784 0.0
H852 H 0.95399 0.92934 0.30889 0.0
H853 H 0.89303 0.87729 0.33378 0.0
H854 H 0.0498 0.7171 0.3417 0.0
H855 H 0.9955 0.77651 0.3423 0.0
C856 C 0.43537 0.99424 0.09038 0.0
C857 C 0.38471 0.994 0.08618 0.0
C858 C 0.46541 0.02924 0.09074 0.0
C859 C 0.47476 0.09363 0.07251 0.0
H860 H 0.6076 0.12789 0.08396 0.0
C861 C 0.62518 0.20734 0.06024 0.0
C862 C 0.67518 0.20598 0.06466 0.0
C863 C 0.58966 0.17551 0.06101 0.0
C864 C 0.57106 0.11771 0.08063 0.0
H865 H 0.31908 0.03167 0.08183 0.0
H866 H 0.3721 0.09257 0.08229 0.0
H867 H 0.53743 0.09829 0.09313 0.0
H868 H 0.73477 0.16623 0.07024 0.0
H869 H 0.67316 0.11039 0.07138 0.0
H870 H 0.50874 0.11243 0.05998 0.0
C871 C 0.38947 0.06567 0.08496 0.0
C872 C 0.53055 0.10175 0.08593 0.0
C873 C 0.35921 0.03066 0.08467 0.0
C874 C 0.69512 0.1688 0.06727 0.0
C875 C 0.65977 0.13683 0.06798 0.0
C876 C 0.51531 0.10957 0.06721 0.0
C877 C 0.44466 0.06373 0.08685 0.0
C878 C 0.48225 0.08916 0.08191 0.0
C879 C 0.60518 0.14221 0.06594 0.0
C880 C 0.56413 0.12118 0.07119 0.0
H881 H 0.45551 0.96667 0.09193 0.0
H882 H 0.50753 0.02719 0.09253 0.0
H883 H 0.43852 0.08302 0.06915 0.0
H884 H 0.60983 0.23511 0.05768 0.0
H885 H 0.54816 0.17985 0.05906 0.0
C886 C 0.93983 0.48677 0.09063 0.0
C887 C 0.88957 0.48878 0.08631 0.0
C888 C 0.97252 0.52044 0.09109 0.0
C889 C 0.98859 0.58542 0.07312 0.0
H890 H 0.11923 0.61901 0.08538 0.0
C891 C 0.13492 0.70335 0.0621 0.0
C892 C 0.18448 0.70348 0.06667 0.0
C893 C 0.10142 0.67023 0.06263 0.0
C894 C 0.08343 0.60893 0.08181 0.0
H895 H 0.82729 0.52927 0.0819 0.0
H896 H 0.88481 0.58784 0.08259 0.0
H897 H 0.04786 0.5879 0.09403 0.0
H898 H 0.24558 0.66562 0.07247 0.0
H899 H 0.18744 0.60758 0.07322 0.0
H900 H 0.02433 0.60574 0.06088 0.0
C901 C 0.89989 0.56016 0.08523 0.0
C902 C 0.04222 0.5921 0.08682 0.0
C903 C 0.86701 0.52649 0.08482 0.0
C904 C 0.20619 0.66696 0.06936 0.0
C905 C 0.17282 0.63372 0.06983 0.0
C906 C 0.02987 0.60206 0.0681 0.0
C907 C 0.95467 0.55587 0.08725 0.0
C908 C 0.9944 0.5803 0.08253 0.0
C909 C 0.11831 0.63716 0.06753 0.0
C910 C 0.07774 0.6139 0.07239 0.0
H911 H 0.95768 0.45834 0.09218 0.0
H912 H 0.01429 0.51665 0.09296 0.0
H913 H 0.95282 0.57522 0.06956 0.0
H914 H 0.11827 0.73065 0.05951 0.0
H915 H 0.06002 0.67324 0.06048 0.0
C916 C 0.43657 0.75566 0.67896 0.0
C917 C 0.38595 0.75516 0.68318 0.0
C918 C 0.46754 0.7211 0.67861 0.0
C919 C 0.47865 0.65663 0.6968 0.0
H920 H 0.61109 0.62252 0.6852 0.0
C921 C 0.62712 0.54155 0.70887 0.0
C922 C 0.67711 0.54225 0.70444 0.0
C923 C 0.59237 0.57384 0.70811 0.0
C924 C 0.5747 0.63269 0.68858 0.0
H925 H 0.32131 0.71656 0.68753 0.0
H926 H 0.37586 0.65643 0.68705 0.0
H927 H 0.54082 0.65263 0.67614 0.0
H928 H 0.73752 0.58118 0.6988 0.0
H929 H 0.67726 0.63782 0.69768 0.0
H930 H 0.51281 0.63736 0.70926 0.0
C931 C 0.39254 0.68359 0.68439 0.0
C932 C 0.53413 0.64895 0.68333 0.0
C933 C 0.36138 0.71815 0.68468 0.0
C934 C 0.69785 0.57913 0.70179 0.0
C935 C 0.66326 0.61156 0.70109 0.0
C936 C 0.51926 0.64046 0.70205 0.0
C937 C 0.44766 0.68632 0.68249 0.0
C938 C 0.48586 0.66128 0.6874 0.0
C939 C 0.60859 0.60694 0.70317 0.0
C940 C 0.56789 0.62874 0.698 0.0
H941 H 0.45599 0.78352 0.67741 0.0
H942 H 0.50959 0.72374 0.67682 0.0
H943 H 0.44246 0.66712 0.70019 0.0
H944 H 0.61115 0.51401 0.71146 0.0
H945 H 0.55082 0.57003 0.7101 0.0
C946 C 0.86396 0.21955 0.68443 0.0
C947 C 0.88708 0.25699 0.68283 0.0
C948 C 0.89642 0.18566 0.68419 0.0
C949 C 0.03867 0.15302 0.68295 0.0
H950 H 0.01869 0.14059 0.70888 0.0
C951 C 0.20175 0.07989 0.70108 0.0
C952 C 0.18019 0.04338 0.70382 0.0
C953 C 0.16804 0.11282 0.70038 0.0
C954 C 0.0248 0.14393 0.70166 0.0
H955 H 0.95566 0.28651 0.67688 0.0
H956 H 0.01166 0.22784 0.67642 0.0
H957 H 0.94797 0.17077 0.69997 0.0
H958 H 0.11359 0.01623 0.71088 0.0
H959 H 0.0548 0.07314 0.70955 0.0
H960 H 0.11554 0.12618 0.68463 0.0
C961 C 0.96978 0.22445 0.67826 0.0
C962 C 0.98398 0.16037 0.69651 0.0
C963 C 0.93746 0.25833 0.67854 0.0
C964 C 0.13021 0.04347 0.70825 0.0
C965 C 0.09637 0.07629 0.70751 0.0
C966 C 0.07945 0.13641 0.68809 0.0
C967 C 0.95136 0.18946 0.68224 0.0
C968 C 0.99056 0.16511 0.68711 0.0
C969 C 0.11336 0.10915 0.70255 0.0
C970 C 0.07302 0.13193 0.69752 0.0
H971 H 0.8241 0.21725 0.68733 0.0
H972 H 0.88086 0.15829 0.68692 0.0
H973 H 0.04492 0.15686 0.67574 0.0
H974 H 0.24142 0.08131 0.69807 0.0
H975 H 0.18269 0.13885 0.69695 0.0
C976 C 0.33147 0.01367 0.44516 0.0
C977 C 0.36036 0.04968 0.44618 0.0
C978 C 0.35834 0.97652 0.44505 0.0
C979 C 0.49092 0.92828 0.45061 0.0
H980 H 0.44452 0.84639 0.43322 0.0
C981 C 0.61797 0.78378 0.44349 0.0
C982 C 0.58934 0.74764 0.44249 0.0
C983 C 0.59082 0.82081 0.44365 0.0
C984 C 0.45795 0.86868 0.43819 0.0
H985 H 0.44036 0.07415 0.44825 0.0
H986 H 0.4864 0.0104 0.44805 0.0
H987 H 0.39415 0.90863 0.43477 0.0
H988 H 0.50947 0.72282 0.44052 0.0
H989 H 0.46291 0.78643 0.44078 0.0
H990 H 0.55475 0.88835 0.45403 0.0
C991 C 0.44307 0.01038 0.44738 0.0
C992 C 0.42872 0.90455 0.4391 0.0
C993 C 0.41642 0.04726 0.44745 0.0
C994 C 0.5332 0.74982 0.4413 0.0
C995 C 0.50626 0.7866 0.44141 0.0
C996 C 0.52016 0.89243 0.4497 0.0
C997 C 0.4148 0.9743 0.44602 0.0
C998 C 0.44469 0.93506 0.44532 0.0
C999 C 0.53431 0.82279 0.44274 0.0
C1000 C 0.50422 0.86193 0.44347 0.0
H1001 H 0.28842 0.01419 0.44411 0.0
H1002 H 0.33482 0.94952 0.44411 0.0
H1003 H 0.50435 0.95055 0.45558 0.0
H1004 H 0.66109 0.78345 0.44449 0.0
H1005 H 0.61417 0.84791 0.44457 0.0
C1006 C 0.03402 0.24985 0.44127 0.0
C1007 C 0.09012 0.24803 0.44252 0.0
C1008 C 0.00669 0.28646 0.44135 0.0
C1009 C 0.02504 0.39725 0.44003 0.0
H1010 H 0.88508 0.40025 0.45164 0.0
C1011 C 0.91609 0.54735 0.44754 0.0
C1012 C 0.86014 0.54973 0.44613 0.0
C1013 C 0.94293 0.51055 0.44734 0.0
C1014 C 0.92377 0.40002 0.44827 0.0
H1015 H 0.16146 0.28424 0.44454 0.0
H1016 H 0.11382 0.34835 0.44472 0.0
H1017 H 0.93487 0.33765 0.45051 0.0
H1018 H 0.78858 0.51422 0.44369 0.0
H1019 H 0.83541 0.4497 0.44335 0.0
H1020 H 0.014 0.45967 0.43783 0.0
C1021 C 0.09085 0.3212 0.4436 0.0
C1022 C 0.95257 0.36389 0.44761 0.0
C1023 C 0.11839 0.28433 0.44348 0.0
C1024 C 0.83151 0.51372 0.44488 0.0
C1025 C 0.85857 0.47663 0.44466 0.0
C1026 C 0.99628 0.43338 0.44071 0.0
C1027 C 0.03428 0.32282 0.44273 0.0
C1028 C 0.00374 0.36179 0.44347 0.0
C1029 C 0.915 0.47454 0.44569 0.0
C1030 C 0.94518 0.43548 0.44486 0.0
H1031 H 0.01066 0.2227 0.44043 0.0
H1032 H 0.96355 0.28611 0.44039 0.0
H1033 H 0.06371 0.39707 0.43666 0.0
H1034 H 0.93975 0.57423 0.44861 0.0
H1035 H 0.98597 0.51047 0.44841 0.0
C1036 C 0.41419 0.20267 0.82174 0.0
C1037 C 0.35818 0.20026 0.82307 0.0
C1038 C 0.44096 0.23952 0.82189 0.0
C1039 C 0.42726 0.34498 0.83048 0.0
H1040 H 0.55243 0.3619 0.81539 0.0
C1041 C 0.53115 0.49993 0.82835 0.0
C1042 C 0.5872 0.50227 0.82706 0.0
C1043 C 0.50436 0.46309 0.82825 0.0
C1044 C 0.51809 0.3576 0.81977 0.0
H1045 H 0.28647 0.23575 0.82537 0.0
H1046 H 0.33306 0.30036 0.82551 0.0
H1047 H 0.50195 0.29973 0.81377 0.0
H1048 H 0.65899 0.46669 0.82492 0.0
H1049 H 0.61233 0.4021 0.82486 0.0
H1050 H 0.44337 0.40289 0.83646 0.0
C1051 C 0.35645 0.27337 0.82445 0.0
C1052 C 0.48881 0.32178 0.81882 0.0
C1053 C 0.32947 0.23626 0.82426 0.0
C1054 C 0.61594 0.46623 0.82599 0.0
C1055 C 0.58894 0.42913 0.82584 0.0
C1056 C 0.45653 0.38082 0.83143 0.0
C1057 C 0.41286 0.27557 0.8234 0.0
C1058 C 0.44287 0.31475 0.82416 0.0
C1059 C 0.53249 0.42699 0.82683 0.0
C1060 C 0.50248 0.38783 0.82608 0.0
H1061 H 0.43799 0.17579 0.82081 0.0
H1062 H 0.48424 0.23949 0.82115 0.0
H1063 H 0.39293 0.34069 0.83486 0.0
H1064 H 0.50736 0.52686 0.82919 0.0
H1065 H 0.46105 0.46314 0.82895 0.0
C1066 C 0.91223 0.70371 0.8215 0.0
C1067 C 0.85633 0.70127 0.82296 0.0
C1068 C 0.93897 0.74057 0.82159 0.0
C1069 C 0.9257 0.84616 0.83014 0.0
H1070 H 0.05059 0.86256 0.81496 0.0
C1071 C 0.03071 0.00074 0.82783 0.0
C1072 C 0.08681 0.00275 0.82657 0.0
C1073 C 1.00356 0.96404 0.82776 0.0
C1074 C 0.01632 0.85841 0.81936 0.0
H1075 H 0.78474 0.73674 0.82539 0.0
H1076 H 0.83125 0.80138 0.8254 0.0
H1077 H 0.99976 0.80055 0.8134 0.0
H1078 H 0.15828 0.96674 0.8245 0.0
H1079 H 0.11098 0.90242 0.82447 0.0
H1080 H 0.94222 0.90414 0.83607 0.0
C1081 C 0.85461 0.7744 0.82431 0.0
C1082 C 0.98684 0.82267 0.81845 0.0
C1083 C 0.82766 0.73727 0.82419 0.0
C1084 C 0.11521 0.96653 0.82555 0.0
C1085 C 0.08784 0.92959 0.82542 0.0
C1086 C 0.95515 0.88195 0.83104 0.0
C1087 C 0.91095 0.77662 0.82315 0.0
C1088 C 0.94103 0.8158 0.82384 0.0
C1089 C 0.03136 0.92777 0.82639 0.0
C1090 C 1.00103 0.88874 0.82567 0.0
H1091 H 0.93602 0.67685 0.82054 0.0
H1092 H 0.9822 0.74051 0.82077 0.0
H1093 H 0.89148 0.84202 0.83456 0.0
H1094 H 0.00718 0.02782 0.82864 0.0
H1095 H 0.96024 0.96431 0.82844 0.0
C1096 C 0.4738 0.25079 0.57746 0.0
C1097 C 0.4176 0.25312 0.57637 0.0
C1098 C 0.50045 0.21391 0.57746 0.0
C1099 C 0.48548 0.10765 0.56961 0.0
H1100 H 0.61239 0.09225 0.58438 0.0
C1101 C 0.58991 0.95306 0.57198 0.0
C1102 C 0.64608 0.95082 0.57315 0.0
C1103 C 0.56306 0.98987 0.57206 0.0
C1104 C 0.57755 0.0961 0.58009 0.0
H1105 H 0.34544 0.21753 0.57467 0.0
H1106 H 0.3919 0.15287 0.57478 0.0
H1107 H 0.56218 0.15459 0.58582 0.0
H1108 H 0.71791 0.98659 0.57507 0.0
H1109 H 0.67119 0.05108 0.57507 0.0
H1110 H 0.50091 0.04921 0.56387 0.0
C1111 C 0.41549 0.17993 0.57553 0.0
C1112 C 0.54842 0.13202 0.58094 0.0
C1113 C 0.38862 0.21707 0.57559 0.0
C1114 C 0.67479 0.98694 0.5741 0.0
C1115 C 0.64774 0.02401 0.57421 0.0
C1116 C 0.51464 0.07174 0.56876 0.0
C1117 C 0.47205 0.17777 0.57634 0.0
C1118 C 0.50186 0.13851 0.57571 0.0
C1119 C 0.59122 0.02605 0.57332 0.0
C1120 C 0.56122 0.06525 0.57398 0.0
H1121 H 0.49779 0.27772 0.57808 0.0
H1122 H 0.54384 0.21395 0.57801 0.0
H1123 H 0.45064 0.11152 0.56533 0.0
H1124 H 0.56608 0.92609 0.57125 0.0
H1125 H 0.5197 0.98971 0.57146 0.0
C1126 C 0.09229 0.45474 0.57164 0.0
C1127 C 0.14833 0.45238 0.57294 0.0
C1128 C 0.06545 0.49154 0.57183 0.0
C1129 C 0.08465 0.60209 0.57071 0.0
H1130 H 0.94527 0.60545 0.58251 0.0
C1131 C 0.97514 0.75255 0.57784 0.0
C1132 C 0.91896 0.75449 0.57669 0.0
C1133 C 1.00238 0.71589 0.57769 0.0
C1134 C 0.98378 0.60515 0.57909 0.0
H1135 H 0.22004 0.48796 0.57518 0.0
H1136 H 0.17322 0.55247 0.57552 0.0
H1137 H 0.9948 0.54277 0.58134 0.0
H1138 H 0.84744 0.71838 0.57476 0.0
H1139 H 0.8949 0.65419 0.57448 0.0
H1140 H 0.07358 0.66444 0.56843 0.0
C1141 C 0.14997 0.52553 0.57429 0.0
C1142 C 0.01244 0.56897 0.57841 0.0
C1143 C 0.17703 0.48843 0.57408 0.0
C1144 C 0.89057 0.71822 0.57575 0.0
C1145 C 0.91801 0.6813 0.57557 0.0
C1146 C 0.05596 0.63827 0.57138 0.0
C1147 C 0.09347 0.52761 0.57337 0.0
C1148 C 0.06336 0.56672 0.57419 0.0
C1149 C 0.97462 0.67957 0.57635 0.0
C1150 C 0.005 0.64053 0.57559 0.0
H1151 H 0.06855 0.42784 0.57065 0.0
H1152 H 0.02234 0.49159 0.57084 0.0
H1153 H 0.12318 0.60175 0.5673 0.0
H1154 H 0.99862 0.77965 0.57867 0.0
H1155 H 0.04557 0.71616 0.57858 0.0
C1156 C 0.4762 0.50172 0.19096 0.0
C1157 C 0.42001 0.4999 0.19212 0.0
C1158 C 0.50349 0.53836 0.19099 0.0
C1159 C 0.4906 0.64417 0.19918 0.0
H1160 H 0.61652 0.65991 0.18419 0.0
C1161 C 0.59528 0.79852 0.19706 0.0
C1162 C 0.65131 0.80086 0.19574 0.0
C1163 C 0.56846 0.76172 0.19693 0.0
C1164 C 0.58198 0.65595 0.18855 0.0
H1165 H 0.34853 0.53611 0.19395 0.0
H1166 H 0.39609 0.60032 0.1939 0.0
H1167 H 0.5656 0.59786 0.18266 0.0
H1168 H 0.72301 0.76529 0.1935 0.0
H1169 H 0.67629 0.7007 0.19343 0.0
H1170 H 0.50703 0.70211 0.2051 0.0
C1171 C 0.41918 0.57307 0.19307 0.0
C1172 C 0.55244 0.62021 0.18764 0.0
C1173 C 0.39167 0.53619 0.19298 0.0
C1174 C 0.67998 0.76482 0.1946 0.0
C1175 C 0.65293 0.72773 0.19444 0.0
C1176 C 0.52018 0.67985 0.2001 0.0
C1177 C 0.47573 0.57471 0.19222 0.0
C1178 C 0.50617 0.61367 0.19293 0.0
C1179 C 0.5965 0.72561 0.19548 0.0
C1180 C 0.56636 0.68649 0.19478 0.0
H1181 H 0.49966 0.47456 0.19028 0.0
H1182 H 0.54686 0.53797 0.1904 0.0
H1183 H 0.45603 0.6402 0.20352 0.0
H1184 H 0.57149 0.82543 0.19795 0.0
H1185 H 0.52516 0.76184 0.19765 0.0
C1186 C 0.09121 0.30175 0.19735 0.0
C1187 C 0.14737 0.30386 0.19617 0.0
C1188 C 0.06423 0.26498 0.1973 0.0
C1189 C 0.08359 0.15457 0.19903 0.0
H1190 H 0.94463 0.14966 0.18711 0.0
C1191 C 0.97677 0.00317 0.192 0.0
C1192 C 0.92064 0.0006 0.19316 0.0
C1193 C 1.00327 0.04011 0.19213 0.0
C1194 C 0.98303 0.15042 0.19057 0.0
H1195 H 0.21907 0.26794 0.19427 0.0
H1196 H 0.17206 0.2036 0.19417 0.0
H1197 H 0.99364 0.21266 0.18809 0.0
H1198 H 0.84842 0.03589 0.19509 0.0
H1199 H 0.89467 0.10065 0.19534 0.0
H1200 H 0.07301 0.09235 0.2015 0.0
C1201 C 0.1488 0.23066 0.19521 0.0
C1202 C 0.01137 0.18678 0.19114 0.0
C1203 C 0.17597 0.26768 0.19528 0.0
C1204 C 0.89154 0.03654 0.19411 0.0
C1205 C 0.91826 0.07377 0.19427 0.0
C1206 C 0.05526 0.11823 0.19846 0.0
C1207 C 0.09224 0.22874 0.19603 0.0
C1208 C 0.06218 0.18956 0.19539 0.0
C1209 C 0.97481 0.0761 0.19347 0.0
C1210 C 0.00451 0.11542 0.19419 0.0
H1211 H 0.06754 0.32877 0.19813 0.0
H1212 H 0.02105 0.26509 0.1982 0.0
H1213 H 0.12199 0.15531 0.20249 0.0
H1214 H 1.00079 0.97635 0.19115 0.0
H1215 H 0.04645 0.04032 0.19123 0.0
C1216 C 0.33006 0.51368 0.94537 0.0
C1217 C 0.35863 0.5497 0.94666 0.0
C1218 C 0.35712 0.47661 0.94515 0.0
C1219 C 0.4894 0.42823 0.95085 0.0
H1220 H 0.44456 0.34749 0.93307 0.0
C1221 C 0.61675 0.28394 0.94362 0.0
C1222 C 0.58798 0.24792 0.94251 0.0
C1223 C 0.58978 0.32105 0.94378 0.0
C1224 C 0.45756 0.36947 0.93814 0.0
H1225 H 0.43829 0.57422 0.94906 0.0
H1226 H 0.48469 0.51061 0.94867 0.0
H1227 H 0.39403 0.40962 0.93471 0.0
H1228 H 0.50815 0.22337 0.94032 0.0
H1229 H 0.46192 0.2871 0.94057 0.0
H1230 H 0.55297 0.38808 0.95428 0.0
C1231 C 0.44143 0.51052 0.94788 0.0
C1232 C 0.42823 0.40526 0.93911 0.0
C1233 C 0.41458 0.54733 0.94806 0.0
C1234 C 0.53196 0.25029 0.94119 0.0
C1235 C 0.50522 0.28714 0.94129 0.0
C1236 C 0.51876 0.39245 0.94988 0.0
C1237 C 0.41349 0.47447 0.94627 0.0
C1238 C 0.4436 0.43535 0.94548 0.0
C1239 C 0.53335 0.32321 0.94275 0.0
C1240 C 0.50335 0.36236 0.94351 0.0
H1241 H 0.2871 0.51415 0.94421 0.0
H1242 H 0.33382 0.44962 0.94402 0.0
H1243 H 0.50237 0.45016 0.95594 0.0
H1244 H 0.65977 0.28345 0.94472 0.0
H1245 H 0.61318 0.34807 0.94479 0.0
C1246 C 0.03093 0.74857 0.94145 0.0
C1247 C 0.08693 0.74671 0.94283 0.0
C1248 C 1.00357 0.78518 0.94156 0.0
C1249 C 0.02198 0.89602 0.94052 0.0
H1250 H 0.88092 0.89853 0.95174 0.0
C1251 C 0.91208 0.04583 0.94789 0.0
C1252 C 0.85628 0.04818 0.94632 0.0
C1253 C 0.93898 0.00907 0.94774 0.0
C1254 C 0.91994 0.89844 0.94849 0.0
H1255 H 0.15804 0.78288 0.94514 0.0
H1256 H 0.11034 0.84697 0.94537 0.0
H1257 H 0.9309 0.836 0.95066 0.0
H1258 H 0.78499 0.01262 0.94367 0.0
H1259 H 0.83195 0.94815 0.94341 0.0
H1260 H 0.01106 0.9585 0.93838 0.0
C1261 C 0.08749 0.81986 0.94412 0.0
C1262 C 0.94884 0.86235 0.94785 0.0
C1263 C 0.11507 0.78299 0.94397 0.0
C1264 C 0.8278 0.01214 0.94498 0.0
C1265 C 0.85494 0.97508 0.94481 0.0
C1266 C 0.99311 0.93211 0.94117 0.0
C1267 C 0.03101 0.82149 0.94311 0.0
C1268 C 1.00039 0.86043 0.94384 0.0
C1269 C 0.91128 0.97304 0.94598 0.0
C1270 C 0.9416 0.93403 0.94519 0.0
H1271 H 0.00767 0.72145 0.94046 0.0
H1272 H 0.96052 0.78485 0.94049 0.0
H1273 H 0.06096 0.89598 0.93726 0.0
H1274 H 0.9356 0.07272 0.94904 0.0
H1275 H 0.98192 0.00902 0.94893 0.0
C1276 C 0.41483 0.70598 0.32135 0.0
C1277 C 0.35886 0.70366 0.32275 0.0
C1278 C 0.44169 0.74277 0.32145 0.0
C1279 C 0.42855 0.84841 0.32995 0.0
H1280 H 0.55399 0.86445 0.31487 0.0
C1281 C 0.53436 0.0027 0.32769 0.0
C1282 C 0.5905 0.00455 0.32647 0.0
C1283 C 0.50704 0.96606 0.32761 0.0
C1284 C 0.51957 0.8604 0.31924 0.0
H1285 H 0.2873 0.73928 0.32507 0.0
H1286 H 0.33405 0.80383 0.3251 0.0
H1287 H 0.50292 0.80256 0.31328 0.0
H1288 H 0.66187 0.96835 0.32447 0.0
H1289 H 0.61427 0.90415 0.32443 0.0
H1290 H 0.44516 0.90636 0.33588 0.0
C1291 C 0.35735 0.7768 0.32405 0.0
C1292 C 0.48995 0.82473 0.31831 0.0
C1293 C 0.33026 0.73972 0.32392 0.0
C1294 C 0.61876 0.96826 0.32548 0.0
C1295 C 0.59123 0.93139 0.32535 0.0
C1296 C 0.45814 0.88412 0.33087 0.0
C1297 C 0.41374 0.77889 0.32295 0.0
C1298 C 0.44394 0.81799 0.32366 0.0
C1299 C 0.53472 0.92973 0.32627 0.0
C1300 C 0.50422 0.89078 0.32553 0.0
H1301 H 0.43855 0.67905 0.32044 0.0
H1302 H 0.48496 0.74263 0.32068 0.0
H1303 H 0.39417 0.84436 0.33433 0.0
H1304 H 0.51094 0.02984 0.32846 0.0
H1305 H 0.4637 0.96645 0.32826 0.0
C1306 C 0.11792 0.46883 0.32553 0.0
C1307 C 0.08911 0.50492 0.32639 0.0
C1308 C 0.09089 0.43173 0.32541 0.0
C1309 C 0.95361 0.38781 0.32114 0.0
H1310 H 0.01495 0.29306 0.33141 0.0
C1311 C 0.83334 0.23778 0.32399 0.0
C1312 C 0.86226 0.20178 0.32299 0.0
C1313 C 0.86022 0.27494 0.32416 0.0
C1314 C 0.99729 0.31904 0.32839 0.0
H1315 H 0.00914 0.52964 0.32827 0.0
H1316 H 0.96289 0.46587 0.32828 0.0
H1317 H 0.06397 0.35601 0.33251 0.0
H1318 H 0.94227 0.17736 0.32093 0.0
H1319 H 0.98822 0.24124 0.32103 0.0
H1320 H 0.8869 0.35082 0.31703 0.0
C1321 C 0.0061 0.46585 0.32742 0.0
C1322 C 0.02564 0.35537 0.32903 0.0
C1323 C 0.03293 0.50267 0.32751 0.0
C1324 C 0.91838 0.20423 0.32179 0.0
C1325 C 0.94504 0.24111 0.32195 0.0
C1326 C 0.92524 0.35148 0.3205 0.0
C1327 C 0.03429 0.42969 0.32615 0.0
C1328 C 0.00431 0.39048 0.32543 0.0
C1329 C 0.91676 0.27715 0.32334 0.0
C1330 C 0.9466 0.31638 0.3241 0.0
H1331 H 0.16107 0.46923 0.32457 0.0
H1332 H 0.11429 0.40474 0.32439 0.0
H1333 H 0.93595 0.41376 0.31811 0.0
H1334 H 0.79026 0.23724 0.32501 0.0
H1335 H 0.83677 0.30186 0.32527 0.0
C1336 C 0.39411 0.71686 0.07614 0.0
C1337 C 0.42287 0.75308 0.07661 0.0
C1338 C 0.42128 0.67987 0.07599 0.0
C1339 C 0.55518 0.63238 0.08069 0.0
H1340 H 0.50418 0.54897 0.06408 0.0
C1341 C 0.67798 0.4853 0.07392 0.0
C1342 C 0.64833 0.44955 0.0731 0.0
C1343 C 0.6518 0.52273 0.07402 0.0
C1344 C 0.51891 0.57164 0.06884 0.0
H1345 H 0.50314 0.77814 0.07764 0.0
H1346 H 0.54983 0.71447 0.07743 0.0
H1347 H 0.45472 0.61154 0.0656 0.0
H1348 H 0.56758 0.42588 0.07143 0.0
H1349 H 0.52277 0.49001 0.07167 0.0
H1350 H 0.61923 0.59239 0.08397 0.0
C1351 C 0.50634 0.71429 0.0772 0.0
C1352 C 0.49023 0.60773 0.06973 0.0
C1353 C 0.47934 0.75107 0.07728 0.0
C1354 C 0.59214 0.45252 0.07207 0.0
C1355 C 0.56618 0.48965 0.07216 0.0
C1356 C 0.5838 0.59621 0.07982 0.0
C1357 C 0.47798 0.67799 0.07639 0.0
C1358 C 0.50779 0.63877 0.07568 0.0
C1359 C 0.59526 0.52551 0.07326 0.0
C1360 C 0.56613 0.56509 0.0739 0.0
H1361 H 0.35073 0.71704 0.07556 0.0
H1362 H 0.39778 0.65269 0.07549 0.0
H1363 H 0.5699 0.65518 0.08543 0.0
H1364 H 0.72117 0.48439 0.07478 0.0
H1365 H 0.67596 0.54951 0.07476 0.0
C1366 C 0.08956 0.9481 0.0733 0.0
C1367 C 0.14596 0.94655 0.07416 0.0
C1368 C 0.06201 0.98463 0.07327 0.0
C1369 C 0.07958 0.09495 0.07075 0.0
H1370 H 0.94192 0.10027 0.08309 0.0
C1371 C 0.9721 0.24633 0.07736 0.0
C1372 C 0.91587 0.24862 0.07629 0.0
C1373 C 0.99884 0.20951 0.07735 0.0
C1374 C 0.97994 0.09937 0.07951 0.0
H1375 H 0.21741 0.98321 0.07543 0.0
H1376 H 0.16943 0.04712 0.07541 0.0
H1377 H 0.99166 0.03756 0.08232 0.0
H1378 H 0.84374 0.21292 0.07469 0.0
H1379 H 0.89045 0.14831 0.07468 0.0
H1380 H 0.06794 0.15678 0.06796 0.0
C1381 C 0.14638 0.01981 0.07468 0.0
C1382 C 0.00872 0.06317 0.07906 0.0
C1383 C 0.17413 0.98302 0.07467 0.0
C1384 C 0.88693 0.21251 0.07559 0.0
C1385 C 0.91391 0.17537 0.07556 0.0
C1386 C 0.05085 0.13114 0.07121 0.0
C1387 C 0.08965 0.02122 0.07415 0.0
C1388 C 0.0591 0.06025 0.07466 0.0
C1389 C 0.97055 0.17331 0.07624 0.0
C1390 C 1.00057 0.1341 0.07563 0.0
H1391 H 0.06618 0.92085 0.07281 0.0
H1392 H 0.01869 0.98405 0.0726 0.0
H1393 H 0.11757 0.09411 0.06717 0.0
H1394 H 0.99603 0.27328 0.07801 0.0
H1395 H 0.04209 0.20954 0.07815 0.0
C1396 C 0.47475 0.99828 0.69165 0.0
C1397 C 0.41853 0.99613 0.69274 0.0
C1398 C 0.50166 0.03508 0.69171 0.0
C1399 C 0.48736 0.14104 0.69977 0.0
H1400 H 0.61374 0.15708 0.68491 0.0
C1401 C 0.59093 0.29589 0.69757 0.0
C1402 C 0.64699 0.29843 0.6963 0.0
C1403 C 0.56437 0.25897 0.69747 0.0
C1404 C 0.57907 0.15304 0.68923 0.0
H1405 H 0.34663 0.03195 0.69448 0.0
H1406 H 0.39352 0.09643 0.69448 0.0
H1407 H 0.56351 0.09472 0.68341 0.0
H1408 H 0.71899 0.26306 0.69419 0.0
H1409 H 0.67275 0.19832 0.69416 0.0
H1410 H 0.50297 0.19924 0.70562 0.0
C1411 C 0.41693 0.06931 0.69368 0.0
C1412 C 0.54992 0.11712 0.68833 0.0
C1413 C 0.3898 0.03227 0.69357 0.0
C1414 C 0.67594 0.26247 0.69524 0.0
C1415 C 0.64916 0.22527 0.69511 0.0
C1416 C 0.51655 0.17692 0.70067 0.0
C1417 C 0.47349 0.07129 0.69288 0.0
C1418 C 0.5035 0.11045 0.69358 0.0
C1419 C 0.59271 0.22295 0.69609 0.0
C1420 C 0.5629 0.18366 0.6954 0.0
H1421 H 0.49853 0.97127 0.691 0.0
H1422 H 0.54505 0.03494 0.69116 0.0
H1423 H 0.45265 0.137 0.70407 0.0
H1424 H 0.56693 0.32272 0.6984 0.0
H1425 H 0.52104 0.25893 0.69815 0.0
C1426 C 0.88761 0.53366 0.69371 0.0
C1427 C 0.91636 0.49757 0.69275 0.0
C1428 C 0.91466 0.57074 0.69381 0.0
C1429 C 0.04737 0.61861 0.68822 0.0
H1430 H 1.00171 0.70063 0.70563 0.0
C1431 C 0.17507 0.76296 0.69517 0.0
C1432 C 0.14659 0.79912 0.69623 0.0
C1433 C 0.14782 0.72596 0.69504 0.0
C1434 C 0.01493 0.67831 0.70065 0.0
H1435 H 0.99626 0.47287 0.69076 0.0
H1436 H 0.04262 0.53653 0.69091 0.0
H1437 H 0.95099 0.63852 0.70411 0.0
H1438 H 0.06687 0.824 0.69834 0.0
H1439 H 0.02016 0.76049 0.69811 0.0
H1440 H 0.11129 0.65839 0.68475 0.0
C1441 C 0.99928 0.53665 0.69156 0.0
C1442 C 0.9855 0.64253 0.69976 0.0
C1443 C 0.97246 0.49983 0.69152 0.0
C1444 C 0.0905 0.79699 0.69751 0.0
C1445 C 0.06347 0.76025 0.69742 0.0
C1446 C 0.07678 0.6544 0.68911 0.0
C1447 C 0.97115 0.5728 0.69286 0.0
C1448 C 1.00121 0.61196 0.69353 0.0
C1449 C 0.09136 0.72404 0.69603 0.0
C1450 C 0.06111 0.68495 0.69534 0.0
H1451 H 0.84452 0.53325 0.69474 0.0
H1452 H 0.89127 0.59782 0.6947 0.0
H1453 H 0.0606 0.59627 0.68325 0.0
H1454 H 0.21812 0.76324 0.69411 0.0
H1455 H 0.17106 0.69884 0.69408 0.0
C1456 C 0.43579 0.22641 0.41212 0.0
C1457 C 0.37929 0.22714 0.41196 0.0
C1458 C 0.46529 0.22361 0.40407 0.0
C1459 C 0.45064 0.18449 0.3806 0.0
H1460 H 0.59647 0.22403 0.37844 0.0
C1461 C 0.58666 0.14356 0.34976 0.0
C1462 C 0.6388 0.13109 0.35192 0.0
C1463 C 0.55358 0.1612 0.35643 0.0
C1464 C 0.55583 0.21271 0.37895 0.0
H1465 H 0.30959 0.22848 0.40316 0.0
H1466 H 0.36133 0.22434 0.38901 0.0
H1467 H 0.53994 0.24815 0.39098 0.0
H1468 H 0.69735 0.12649 0.36268 0.0
H1469 H 0.63992 0.15805 0.37437 0.0
H1470 H 0.46689 0.14878 0.3686 0.0
C1471 C 0.38274 0.22513 0.39542 0.0
C1472 C 0.52336 0.22651 0.38614 0.0
C1473 C 0.35306 0.22801 0.40352 0.0
C1474 C 0.65747 0.13644 0.36085 0.0
C1475 C 0.6247 0.15464 0.36751 0.0
C1476 C 0.48298 0.17098 0.37336 0.0
C1477 C 0.4392 0.22155 0.39561 0.0
C1478 C 0.47076 0.21182 0.3872 0.0
C1479 C 0.57221 0.16699 0.36538 0.0
C1480 C 0.53636 0.18421 0.37258 0.0
H1481 H 0.45736 0.22595 0.4185 0.0
H1482 H 0.50851 0.2206 0.40455 0.0
H1483 H 0.41074 0.17199 0.38124 0.0
H1484 H 0.57089 0.13859 0.34297 0.0
H1485 H 0.51337 0.17031 0.35458 0.0
C1486 C 0.93736 0.0243 0.35665 0.0
C1487 C 0.88087 0.02282 0.35675 0.0
C1488 C 0.96658 0.0271 0.36473 0.0
C1489 C 0.95039 0.06436 0.38837 0.0
H1490 H 0.09744 0.0273 0.39041 0.0
C1491 C 0.08553 0.10551 0.41937 0.0
C1492 C 0.13699 0.11949 0.41721 0.0
C1493 C 0.05294 0.08755 0.41266 0.0
C1494 C 0.05644 0.03791 0.38993 0.0
H1495 H 0.81101 0.02014 0.36549 0.0
H1496 H 0.86228 0.02418 0.37969 0.0
H1497 H 0.04179 0.00317 0.37776 0.0
H1498 H 0.19478 0.12631 0.4064 0.0
H1499 H 0.1383 0.09424 0.39466 0.0
H1500 H 0.96542 0.09931 0.40053 0.0
C1501 C 0.88388 0.02403 0.37331 0.0
C1502 C 0.02447 0.02411 0.38267 0.0
C1503 C 0.85447 0.02119 0.36517 0.0
C1504 C 0.15546 0.11523 0.40824 0.0
C1505 C 0.12323 0.09673 0.40155 0.0
C1506 C 0.98224 0.07782 0.39568 0.0
C1507 C 0.94026 0.02837 0.37318 0.0
C1508 C 0.97143 0.03797 0.38165 0.0
C1509 C 0.07141 0.08294 0.40367 0.0
C1510 C 0.03603 0.06551 0.39642 0.0
H1511 H 0.95909 0.02538 0.35029 0.0
H1512 H 0.00973 0.03071 0.36429 0.0
H1513 H 0.91012 0.07621 0.38777 0.0
H1514 H 0.06978 0.10966 0.42618 0.0
H1515 H 0.01321 0.07735 0.4145 0.0
C1516 C 0.58566 0.10717 0.91829 0.0
C1517 C 0.63825 0.12023 0.91667 0.0
C1518 C 0.55473 0.09026 0.91122 0.0
C1519 C 0.54782 0.0864 0.88598 0.0
H1520 H 0.44082 0.00419 0.88967 0.0
C1521 C 0.43595 0.01781 0.85572 0.0
C1522 C 0.37961 0.02005 0.85624 0.0
C1523 C 0.46742 0.0225 0.86352 0.0
C1524 C 0.4705 0.0272 0.88857 0.0
H1525 H 0.70037 0.12559 0.90653 0.0
H1526 H 0.64767 0.09461 0.89424 0.0
H1527 H 0.49737 0.02733 0.9024 0.0
H1528 H 0.31198 0.02546 0.86546 0.0
H1529 H 0.36737 0.03346 0.87919 0.0
H1530 H 0.52147 0.08609 0.87218 0.0
C1531 C 0.62936 0.09816 0.90088 0.0
C1532 C 0.5028 0.04063 0.89586 0.0
C1533 C 0.65986 0.11561 0.90792 0.0
C1534 C 0.35527 0.02339 0.86485 0.0
C1535 C 0.387 0.02813 0.8727 0.0
C1536 C 0.51617 0.07268 0.87872 0.0
C1537 C 0.57595 0.08586 0.90238 0.0
C1538 C 0.54198 0.07047 0.89466 0.0
C1539 C 0.44341 0.02958 0.87204 0.0
C1540 C 0.47721 0.0429 0.8799 0.0
H1541 H 0.56769 0.11154 0.92494 0.0
H1542 H 0.51361 0.08192 0.91263 0.0
H1543 H 0.57621 0.11018 0.8848 0.0
H1544 H 0.45595 0.0148 0.8492 0.0
H1545 H 0.51076 0.02257 0.86282 0.0
C1546 C 0.85392 0.22818 0.90417 0.0
C1547 C 0.87978 0.22652 0.91263 0.0
C1548 C 0.88378 0.2249 0.89609 0.0
C1549 C 0.02466 0.22361 0.88691 0.0
H1550 H 0.96552 0.14797 0.86916 0.0
C1551 C 0.15578 0.13314 0.8612 0.0
C1552 C 0.13667 0.1286 0.85228 0.0
C1553 C 0.12367 0.15131 0.86796 0.0
C1554 C 0.98239 0.16957 0.87398 0.0
H1555 H 0.95753 0.22348 0.91924 0.0
H1556 H 0.00898 0.21745 0.90532 0.0
H1557 H 0.91014 0.17162 0.88185 0.0
H1558 H 0.06854 0.13746 0.84345 0.0
H1559 H 0.01225 0.16922 0.85522 0.0
H1560 H 0.09768 0.22014 0.8792 0.0
C1561 C 0.96591 0.22138 0.90481 0.0
C1562 C 0.95049 0.18335 0.88125 0.0
C1563 C 0.93623 0.22459 0.91284 0.0
C1564 C 0.08472 0.14184 0.85023 0.0
C1565 C 0.0523 0.15949 0.857 0.0
C1566 C 0.05667 0.20956 0.87969 0.0
C1567 C 0.94006 0.2201 0.89632 0.0
C1568 C 0.9715 0.20997 0.88792 0.0
C1569 C 0.07139 0.16448 0.86594 0.0
C1570 C 0.03621 0.18183 0.87323 0.0
H1571 H 0.8105 0.22957 0.90377 0.0
H1572 H 0.86258 0.22476 0.88967 0.0
H1573 H 0.04196 0.24467 0.89181 0.0
H1574 H 0.19551 0.1226 0.86295 0.0
H1575 H 0.13923 0.15409 0.87481 0.0
C1576 C 0.3511 0.86375 0.65818 0.0
C1577 C 0.37012 0.8689 0.6671 0.0
C1578 C 0.38347 0.84551 0.65147 0.0
C1579 C 0.52497 0.82841 0.64546 0.0
H1580 H 0.46658 0.75211 0.62778 0.0
C1581 C 0.65386 0.77067 0.61523 0.0
C1582 C 0.62767 0.77169 0.60678 0.0
C1583 C 0.62422 0.77379 0.62333 0.0
C1584 C 0.48356 0.77351 0.63264 0.0
H1585 H 0.43832 0.86095 0.67596 0.0
H1586 H 0.49513 0.82911 0.66426 0.0
H1587 H 0.41064 0.7764 0.64039 0.0
H1588 H 0.54961 0.77341 0.60025 0.0
H1589 H 0.49852 0.77915 0.6142 0.0
H1590 H 0.59707 0.82697 0.63755 0.0
C1591 C 0.45494 0.83843 0.66246 0.0
C1592 C 0.45142 0.78742 0.63986 0.0
C1593 C 0.42224 0.85614 0.66919 0.0
C1594 C 0.57117 0.77279 0.60663 0.0
C1595 C 0.5417 0.77584 0.61468 0.0
C1596 C 0.55699 0.81479 0.63819 0.0
C1597 C 0.43595 0.83287 0.65352 0.0
C1598 C 0.47141 0.81558 0.64627 0.0
C1599 C 0.56781 0.77778 0.62315 0.0
C1600 C 0.53639 0.78776 0.63157 0.0
H1601 H 0.31124 0.87393 0.6564 0.0
H1602 H 0.36797 0.84229 0.64462 0.0
H1603 H 0.54149 0.85035 0.65024 0.0
H1604 H 0.69733 0.76994 0.61559 0.0
H1605 H 0.64565 0.77445 0.62973 0.0
C1606 C 0.85023 0.88616 0.61123 0.0
C1607 C 0.86922 0.88069 0.60232 0.0
C1608 C 0.88284 0.90434 0.61792 0.0
C1609 C 0.02458 0.9207 0.62388 0.0
H1610 H 0.96727 0.99782 0.64147 0.0
C1611 C 0.15448 0.97842 0.65397 0.0
C1612 C 0.1284 0.9776 0.66243 0.0
C1613 C 0.12469 0.97538 0.64588 0.0
C1614 C 0.98395 0.9762 0.63664 0.0
H1615 H 0.93754 0.88798 0.59345 0.0
H1616 H 0.99471 0.91971 0.60511 0.0
H1617 H 0.91089 0.97352 0.62892 0.0
H1618 H 0.05042 0.97636 0.669 0.0
H1619 H 0.99907 0.97074 0.65507 0.0
H1620 H 0.0968 0.92196 0.63175 0.0
C1621 C 0.9544 0.91068 0.60692 0.0
C1622 C 0.95155 0.96228 0.62945 0.0
C1623 C 0.92151 0.89304 0.60022 0.0
C1624 C 0.07189 0.9768 0.6626 0.0
C1625 C 0.04228 0.97383 0.65457 0.0
C1626 C 0.05685 0.93435 0.63111 0.0
C1627 C 0.93547 0.91658 0.61585 0.0
C1628 C 0.97116 0.93382 0.62308 0.0
C1629 C 0.06825 0.97166 0.6461 0.0
C1630 C 0.03663 0.96168 0.6377 0.0
H1631 H 0.81024 0.8763 0.61302 0.0
H1632 H 0.86737 0.90783 0.62477 0.0
H1633 H 0.04079 0.89853 0.61912 0.0
H1634 H 0.19795 0.97894 0.65359 0.0
H1635 H 0.14602 0.97453 0.63947 0.0
C1636 C 0.57598 0.98049 0.16266 0.0
C1637 C 0.63248 0.98146 0.16257 0.0
C1638 C 0.54678 0.97704 0.15458 0.0
C1639 C 0.56264 0.93701 0.13114 0.0
H1640 H 0.41623 0.97507 0.12882 0.0
C1641 C 0.42753 0.89388 0.10023 0.0
C1642 C 0.37562 0.88091 0.1024 0.0
C1643 C 0.46032 0.91208 0.10688 0.0
C1644 C 0.45704 0.96415 0.12937 0.0
H1645 H 0.70247 0.98253 0.15383 0.0
H1646 H 0.65129 0.97737 0.13963 0.0
H1647 H 0.47201 0.99998 0.14138 0.0
H1648 H 0.31721 0.87608 0.11318 0.0
H1649 H 0.37399 0.90862 0.12482 0.0
H1650 H 0.54729 0.90096 0.11915 0.0
C1651 C 0.62962 0.97844 0.14601 0.0
C1652 C 0.48909 0.9784 0.13658 0.0
C1653 C 0.65899 0.98196 0.15414 0.0
C1654 C 0.35687 0.88642 0.11133 0.0
C1655 C 0.3893 0.90517 0.11796 0.0
C1656 C 0.53071 0.92306 0.12388 0.0
C1657 C 0.57316 0.97457 0.14614 0.0
C1658 C 0.54192 0.96425 0.13771 0.0
C1659 C 0.44161 0.91796 0.11583 0.0
C1660 C 0.47711 0.93574 0.12303 0.0
H1661 H 0.55418 0.98022 0.16902 0.0
H1662 H 0.50358 0.97384 0.15503 0.0
H1663 H 0.60273 0.9249 0.13182 0.0
H1664 H 0.44335 0.88891 0.09344 0.0
H1665 H 0.50036 0.92153 0.10503 0.0
C1666 C 0.92531 0.89669 0.16495 0.0
C1667 C 0.87814 0.87692 0.16741 0.0
C1668 C 0.96083 0.87912 0.15868 0.0
C1669 C 0.99109 0.78326 0.1456 0.0
H1670 H 0.06949 0.85593 0.13044 0.0
C1671 C 0.08694 0.76084 0.10915 0.0
C1672 C 0.14229 0.76923 0.10881 0.0
C1673 C 0.05855 0.76543 0.11732 0.0
C1674 C 0.04825 0.83532 0.1347 0.0
H1675 H 0.83108 0.82312 0.16543 0.0
H1676 H 0.89095 0.79336 0.15391 0.0
H1677 H 0.01069 0.88265 0.14226 0.0
H1678 H 0.21183 0.78687 0.11682 0.0
H1679 H 0.16159 0.79621 0.13106 0.0
H1680 H 0.02659 0.73605 0.13736 0.0
C1681 C 0.90191 0.82187 0.15703 0.0
C1682 C 0.01467 0.85055 0.14155 0.0
C1683 C 0.86714 0.83902 0.16355 0.0
C1684 C 0.16939 0.77964 0.11691 0.0
C1685 C 0.1407 0.78517 0.12504 0.0
C1686 C 0.02383 0.76805 0.13855 0.0
C1687 C 0.94925 0.84182 0.15444 0.0
C1688 C 0.9856 0.82486 0.14717 0.0
C1689 C 0.08482 0.77924 0.12523 0.0
C1690 C 0.0528 0.79406 0.13308 0.0
H1691 H 0.93524 0.92557 0.16801 0.0
H1692 H 0.99753 0.895 0.15721 0.0
H1693 H 0.97028 0.76233 0.14982 0.0
H1694 H 0.06504 0.75298 0.103 0.0
H1695 H 0.0154 0.7611 0.1173 0.0
C1696 C 0.58655 0.6425 0.85131 0.0
C1697 C 0.63924 0.62954 0.85287 0.0
C1698 C 0.55572 0.65919 0.85842 0.0
C1699 C 0.54931 0.66266 0.88366 0.0
H1700 H 0.44231 0.74495 0.8801 0.0
C1701 C 0.43778 0.73084 0.91405 0.0
C1702 C 0.38139 0.72919 0.91353 0.0
C1703 C 0.46921 0.72598 0.90625 0.0
C1704 C 0.47197 0.72191 0.88117 0.0
H1705 H 0.70158 0.62404 0.86297 0.0
H1706 H 0.64905 0.65466 0.87532 0.0
H1707 H 0.49856 0.72198 0.86732 0.0
H1708 H 0.31375 0.72457 0.90429 0.0
H1709 H 0.36907 0.71627 0.89056 0.0
H1710 H 0.52321 0.66272 0.89748 0.0
C1711 C 0.63061 0.65123 0.86869 0.0
C1712 C 0.50411 0.70858 0.87385 0.0
C1713 C 0.66101 0.634 0.86161 0.0
C1714 C 0.35707 0.72619 0.90491 0.0
C1715 C 0.38876 0.72127 0.89706 0.0
C1716 C 0.51778 0.67626 0.89095 0.0
C1717 C 0.57713 0.66347 0.86725 0.0
C1718 C 0.5433 0.67871 0.875 0.0
C1719 C 0.44515 0.71931 0.89771 0.0
C1720 C 0.47882 0.70606 0.88982 0.0
H1721 H 0.56844 0.63825 0.84466 0.0
H1722 H 0.51454 0.66747 0.85704 0.0
H1723 H 0.57772 0.63887 0.88481 0.0
H1724 H 0.4578 0.73359 0.92057 0.0
H1725 H 0.51255 0.72555 0.90696 0.0
C1726 C 0.16243 0.61652 0.90818 0.0
C1727 C 0.14076 0.62087 0.91693 0.0
C1728 C 0.13195 0.59932 0.90111 0.0
C1729 C 0.00539 0.54199 0.89597 0.0
H1730 H 0.02372 0.58849 0.87239 0.0
C1731 C 0.8573 0.52522 0.86504 0.0
C1732 C 0.88134 0.52239 0.8564 0.0
C1733 C 0.88925 0.52996 0.87287 0.0
C1734 C 0.01851 0.57478 0.8789 0.0
H1735 H 0.07006 0.61204 0.92516 0.0
H1736 H 0.01606 0.58284 0.91279 0.0
H1737 H 0.07867 0.61201 0.88504 0.0
H1738 H 0.95751 0.51814 0.84928 0.0
H1739 H 0.01271 0.52589 0.86285 0.0
H1740 H 0.94337 0.50578 0.88973 0.0
C1741 C 0.05722 0.59117 0.9114 0.0
C1742 C 0.05028 0.58818 0.88618 0.0
C1743 C 0.08811 0.60784 0.91851 0.0
C1744 C 0.93771 0.52077 0.85583 0.0
C1745 C 0.9694 0.52544 0.8636 0.0
C1746 C 0.973 0.52886 0.88866 0.0
C1747 C 0.07851 0.58702 0.90257 0.0
C1748 C 0.04454 0.5719 0.89482 0.0
C1749 C 0.94561 0.53192 0.87216 0.0
C1750 C 0.97955 0.54495 0.88003 0.0
H1751 H 0.20296 0.62654 0.90682 0.0
H1752 H 0.15028 0.59599 0.89446 0.0
H1753 H 1.00004 0.52842 0.90248 0.0
H1754 H 0.81399 0.5268 0.8657 0.0
H1755 H 0.86978 0.53482 0.87938 0.0
C1756 C 0.35416 0.52476 0.36505 0.0
C1757 C 0.38007 0.52556 0.35658 0.0
C1758 C 0.38409 0.5281 0.37312 0.0
C1759 C 0.52497 0.52787 0.3823 0.0
H1760 H 0.46785 0.60534 0.39984 0.0
C1761 C 0.6585 0.6172 0.40789 0.0
C1762 C 0.63926 0.6225 0.41679 0.0
C1763 C 0.62596 0.59934 0.40115 0.0
C1764 C 0.48415 0.58323 0.39508 0.0
H1765 H 0.45789 0.52711 0.34996 0.0
H1766 H 0.50948 0.53319 0.36386 0.0
H1767 H 0.41191 0.58185 0.3872 0.0
H1768 H 0.57055 0.61532 0.42558 0.0
H1769 H 0.51353 0.58415 0.41384 0.0
H1770 H 0.598 0.53062 0.39002 0.0
C1771 C 0.46631 0.52991 0.36438 0.0
C1772 C 0.45192 0.56955 0.38784 0.0
C1773 C 0.43656 0.52666 0.35637 0.0
C1774 C 0.58677 0.61038 0.41882 0.0
C1775 C 0.55396 0.59306 0.41207 0.0
C1776 C 0.55732 0.54181 0.3895 0.0
C1777 C 0.44049 0.53208 0.37287 0.0
C1778 C 0.4722 0.54225 0.38125 0.0
C1779 C 0.57315 0.58726 0.40315 0.0
C1780 C 0.5376 0.57018 0.39588 0.0
H1781 H 0.31071 0.52404 0.36545 0.0
H1782 H 0.36288 0.52895 0.37954 0.0
H1783 H 0.5417 0.50629 0.37747 0.0
H1784 H 0.69865 0.62689 0.40616 0.0
H1785 H 0.64165 0.59593 0.39431 0.0
C1786 C 0.93862 0.72765 0.41295 0.0
C1787 C 0.88215 0.7296 0.4128 0.0
C1788 C 0.96804 0.72439 0.40489 0.0
C1789 C 0.9519 0.68666 0.38128 0.0
H1790 H 0.09907 0.72336 0.37915 0.0
C1791 C 0.08531 0.64554 0.35009 0.0
C1792 C 0.13734 0.63231 0.35208 0.0
C1793 C 0.05304 0.66312 0.35689 0.0
C1794 C 0.05806 0.7128 0.37965 0.0
H1795 H 0.81261 0.73261 0.404 0.0
H1796 H 0.86421 0.72777 0.38985 0.0
H1797 H 0.04382 0.74758 0.39184 0.0
H1798 H 0.19646 0.62629 0.36271 0.0
H1799 H 0.14051 0.65764 0.37463 0.0
H1800 H 0.96647 0.65162 0.36912 0.0
C1801 C 0.88564 0.72791 0.39625 0.0
C1802 C 0.02631 0.72667 0.38693 0.0
C1803 C 0.85605 0.73123 0.40436 0.0
C1804 C 0.15668 0.63683 0.36099 0.0
C1805 C 0.12473 0.65492 0.36778 0.0
C1806 C 0.98354 0.67306 0.37396 0.0
C1807 C 0.94194 0.7231 0.39642 0.0
C1808 C 0.97315 0.71306 0.38798 0.0
C1809 C 0.07236 0.66806 0.36583 0.0
C1810 C 0.03737 0.68528 0.37317 0.0
H1811 H 0.96014 0.72651 0.41933 0.0
H1812 H 0.01113 0.72045 0.40536 0.0
H1813 H 0.91154 0.67496 0.3819 0.0
H1814 H 0.06894 0.64117 0.34332 0.0
H1815 H 0.01292 0.67283 0.35516 0.0
C1816 C 0.35197 0.36465 0.15801 0.0
C1817 C 0.37121 0.37009 0.16692 0.0
C1818 C 0.38391 0.34575 0.15134 0.0
C1819 C 0.52504 0.3271 0.14531 0.0
H1820 H 0.46484 0.25141 0.12768 0.0
C1821 C 0.65197 0.26819 0.11495 0.0
C1822 C 0.62555 0.26972 0.10653 0.0
C1823 C 0.62264 0.2715 0.12308 0.0
C1824 C 0.48233 0.27262 0.13252 0.0
H1825 H 0.43939 0.36194 0.17576 0.0
H1826 H 0.49541 0.32884 0.16413 0.0
H1827 H 0.40965 0.27625 0.14032 0.0
H1828 H 0.54737 0.27254 0.10006 0.0
H1829 H 0.4968 0.27854 0.11408 0.0
H1830 H 0.59691 0.32492 0.13734 0.0
C1831 C 0.45536 0.33847 0.16232 0.0
C1832 C 0.45062 0.28684 0.13977 0.0
C1833 C 0.4231 0.35688 0.16901 0.0
C1834 C 0.56909 0.27151 0.10643 0.0
C1835 C 0.53992 0.27471 0.11451 0.0
C1836 C 0.55663 0.31314 0.13802 0.0
C1837 C 0.43618 0.33269 0.1534 0.0
C1838 C 0.47126 0.31484 0.14615 0.0
C1839 C 0.56632 0.27616 0.12295 0.0
C1840 C 0.53536 0.28635 0.13141 0.0
H1841 H 0.3123 0.37516 0.15622 0.0
H1842 H 0.36826 0.34239 0.1445 0.0
H1843 H 0.54205 0.34891 0.15007 0.0
H1844 H 0.69542 0.26694 0.11526 0.0
H1845 H 0.64426 0.27179 0.12946 0.0
C1846 C 0.07367 0.48278 0.16226 0.0
C1847 C 0.1299 0.47924 0.16175 0.0
C1848 C 0.04202 0.47758 0.1545 0.0
C1849 C 0.03851 0.46907 0.12951 0.0
H1850 H 0.93029 0.38863 0.13396 0.0
C1851 C 0.92073 0.38701 0.10043 0.0
C1852 C 0.8676 0.3755 0.10214 0.0
C1853 C 0.95233 0.40408 0.10739 0.0
C1854 C 0.95941 0.41169 0.13258 0.0
H1855 H 0.19729 0.47098 0.15257 0.0
H1856 H 0.14154 0.46203 0.1389 0.0
H1857 H 0.98596 0.41362 0.14638 0.0
H1858 H 0.80519 0.37291 0.1123 0.0
H1859 H 0.85916 0.40425 0.12439 0.0
H1860 H 0.01144 0.46733 0.11568 0.0
C1861 C 0.12217 0.46879 0.14535 0.0
C1862 C 0.99158 0.42592 0.13973 0.0
C1863 C 0.15409 0.47407 0.15317 0.0
C1864 C 0.84614 0.3817 0.11085 0.0
C1865 C 0.87733 0.39936 0.11778 0.0
C1866 C 0.00571 0.45513 0.12233 0.0
C1867 C 0.06574 0.46866 0.14603 0.0
C1868 C 0.03143 0.45479 0.1383 0.0
C1869 C 0.9312 0.41026 0.11619 0.0
C1870 C 0.96567 0.42618 0.12378 0.0
H1871 H 0.05384 0.48724 0.16876 0.0
H1872 H 0.99869 0.47854 0.1552 0.0
H1873 H 0.06888 0.49136 0.12821 0.0
H1874 H 0.93844 0.38153 0.0938 0.0
H1875 H 0.99378 0.4113 0.10593 0.0
C1876 C 0.35097 0.38533 0.61098 0.0
C1877 C 0.37025 0.38063 0.60206 0.0
C1878 C 0.38302 0.40348 0.61775 0.0
C1879 C 0.52423 0.42139 0.62389 0.0
H1880 H 0.46428 0.49638 0.6417 0.0
C1881 C 0.65156 0.47932 0.65432 0.0
C1882 C 0.62527 0.47765 0.66275 0.0
C1883 C 0.62212 0.47614 0.64619 0.0
C1884 C 0.4817 0.47535 0.63681 0.0
H1885 H 0.43861 0.38924 0.59328 0.0
H1886 H 0.49485 0.42097 0.60508 0.0
H1887 H 0.409 0.47218 0.62901 0.0
H1888 H 0.54717 0.47465 0.66923 0.0
H1889 H 0.49642 0.46884 0.65524 0.0
H1890 H 0.59614 0.42314 0.63185 0.0
C1891 C 0.45469 0.41136 0.60683 0.0
C1892 C 0.44993 0.46149 0.62953 0.0
C1893 C 0.42232 0.39373 0.60005 0.0
C1894 C 0.56881 0.47579 0.66286 0.0
C1895 C 0.53953 0.4727 0.65479 0.0
C1896 C 0.55588 0.43498 0.63121 0.0
C1897 C 0.43543 0.41649 0.61576 0.0
C1898 C 0.47049 0.43378 0.62308 0.0
C1899 C 0.5658 0.47145 0.64634 0.0
C1900 C 0.53471 0.46153 0.63788 0.0
H1901 H 0.31115 0.3749 0.61271 0.0
H1902 H 0.3673 0.40635 0.62459 0.0
H1903 H 0.54118 0.3998 0.61908 0.0
H1904 H 0.69501 0.48063 0.65398 0.0
H1905 H 0.64365 0.476 0.63981 0.0
C1906 C 0.15089 0.27671 0.61507 0.0
C1907 C 0.12659 0.27327 0.60646 0.0
C1908 C 0.11912 0.28129 0.62292 0.0
C1909 C 0.98943 0.32498 0.62895 0.0
H1910 H 0.00842 0.27931 0.65259 0.0
C1911 C 0.84456 0.36611 0.6581 0.0
C1912 C 0.86596 0.37083 0.66686 0.0
C1913 C 0.87544 0.34901 0.65106 0.0
C1914 C 1.00293 0.29269 0.64606 0.0
H1915 H 0.05029 0.26769 0.59942 0.0
H1916 H 0.99541 0.27516 0.61303 0.0
H1917 H 0.06547 0.25683 0.63987 0.0
H1918 H 0.9365 0.36266 0.67516 0.0
H1919 H 0.99125 0.33368 0.66286 0.0
H1920 H 0.92879 0.36189 0.63503 0.0
C1921 C 0.03875 0.27531 0.61373 0.0
C1922 C 0.03552 0.27965 0.63877 0.0
C1923 C 0.07026 0.27081 0.60594 0.0
C1924 C 0.91872 0.35823 0.6685 0.0
C1925 C 0.95002 0.34167 0.66143 0.0
C1926 C 0.95747 0.33831 0.63621 0.0
C1927 C 0.0627 0.28245 0.62226 0.0
C1928 C 0.02873 0.29546 0.63012 0.0
C1929 C 0.92902 0.33719 0.65258 0.0
C1930 C 0.96337 0.32224 0.64487 0.0
H1931 H 0.19418 0.27894 0.61568 0.0
H1932 H 0.13869 0.28666 0.62941 0.0
H1933 H 0.98405 0.33848 0.62242 0.0
H1934 H 0.80392 0.37577 0.65669 0.0
H1935 H 0.8573 0.34538 0.64441 0.0
C1936 C 0.23842 0.28451 0.54402 0.0
C1937 C 0.22687 0.32555 0.54499 0.0
C1938 C 0.24198 0.26595 0.53535 0.0
C1939 C 0.26858 0.29227 0.51135 0.0
H1940 H 0.22933 0.18218 0.50602 0.0
C1941 C 0.27113 0.21976 0.47477 0.0
C1942 C 0.2834 0.17881 0.47388 0.0
C1943 C 0.26755 0.23864 0.48341 0.0
C1944 C 0.24128 0.21284 0.50741 0.0
H1945 H 0.20547 0.37824 0.53758 0.0
H1946 H 0.21009 0.34582 0.52261 0.0
H1947 H 0.2112 0.21159 0.52104 0.0
H1948 H 0.30619 0.12669 0.48138 0.0
H1949 H 0.30137 0.15964 0.49629 0.0
H1950 H 0.29856 0.29351 0.49771 0.0
C1951 C 0.21828 0.32816 0.52849 0.0
C1952 C 0.23069 0.22977 0.51605 0.0
C1953 C 0.21494 0.34668 0.53712 0.0
C1954 C 0.29613 0.15816 0.48178 0.0
C1955 C 0.29269 0.17697 0.49037 0.0
C1956 C 0.27912 0.27535 0.50271 0.0
C1957 C 0.23383 0.28791 0.52745 0.0
C1958 C 0.24412 0.26977 0.51817 0.0
C1959 C 0.27634 0.21706 0.49135 0.0
C1960 C 0.26579 0.23533 0.50061 0.0
H1961 H 0.24824 0.26729 0.54991 0.0
H1962 H 0.25403 0.23491 0.53486 0.0
H1963 H 0.28059 0.32291 0.51274 0.0
H1964 H 0.26071 0.23661 0.46886 0.0
H1965 H 0.25494 0.26957 0.48386 0.0
C1966 C 0.97747 0.94022 0.54122 0.0
C1967 C 0.9271 0.95332 0.54442 0.0
C1968 C 0.99774 0.95401 0.53305 0.0
C1969 C 0.95165 0.99537 0.51164 0.0
H1970 H 0.10128 0.02419 0.50855 0.0
C1971 C 0.03327 0.06818 0.47936 0.0
C1972 C 0.08335 0.05443 0.47616 0.0
C1973 C 0.01342 0.0557 0.48768 0.0
C1974 C 0.05949 0.01584 0.5093 0.0
H1975 H 0.85972 0.99264 0.54178 0.0
H1976 H 0.89539 0.01677 0.52763 0.0
H1977 H 0.0696 0.00362 0.52337 0.0
H1978 H 0.15085 0.01555 0.47902 0.0
H1979 H 0.11586 0.99361 0.49341 0.0
H1980 H 0.94154 0.00744 0.49756 0.0
C1981 C 0.91863 0.99526 0.53133 0.0
C1982 C 0.04143 0.00411 0.51777 0.0
C1983 C 0.89839 0.98153 0.53947 0.0
C1984 C 0.11236 0.02709 0.48132 0.0
C1985 C 0.09252 0.01464 0.4896 0.0
C1986 C 0.96971 0.00708 0.50317 0.0
C1987 C 0.96799 0.98112 0.52796 0.0
C1988 C 0.98735 0.99377 0.51901 0.0
C1989 C 0.04329 0.02925 0.49292 0.0
C1990 C 0.02382 0.01732 0.50191 0.0
H1991 H 1.00055 0.91851 0.54488 0.0
H1992 H 0.03585 0.94249 0.53057 0.0
H1993 H 0.90988 0.98694 0.51238 0.0
H1994 H 0.00999 0.08929 0.47556 0.0
H1995 H 0.97541 0.06757 0.49011 0.0
C1996 C 0.21513 0.90449 0.73197 0.0
C1997 C 0.22642 0.9255 0.72405 0.0
C1998 C 0.21806 0.92338 0.74056 0.0
C1999 C 0.22692 0.02217 0.75284 0.0
H2000 H 0.29799 0.96053 0.77122 0.0
C2001 C 0.28872 0.09565 0.78716 0.0
C2002 C 0.2778 0.07442 0.79506 0.0
C2003 C 0.28586 0.0769 0.77855 0.0
C2004 C 0.27762 0.9781 0.76622 0.0
H2005 H 0.24616 0.98387 0.71902 0.0
H2006 H 0.25109 0.01692 0.73401 0.0
H2007 H 0.2812 0.93045 0.75622 0.0
H2008 H 0.25872 0.01583 0.80004 0.0
H2009 H 0.25386 0.98304 0.78502 0.0
H2010 H 0.22329 0.06981 0.76284 0.0
C2011 C 0.23996 0.98568 0.73357 0.0
C2012 C 0.26779 0.96079 0.75759 0.0
C2013 C 0.2369 0.96673 0.72494 0.0
C2014 C 0.2677 0.03315 0.79413 0.0
C2015 C 0.2647 0.01434 0.78548 0.0
C2016 C 0.23673 0.03948 0.76147 0.0
C2017 C 0.23245 0.96389 0.74152 0.0
C2018 C 0.24218 0.98252 0.75077 0.0
C2019 C 0.2719 0.03631 0.77755 0.0
C2020 C 0.26231 0.01775 0.7683 0.0
H2021 H 0.20646 0.87279 0.73158 0.0
H2022 H 0.21042 0.90584 0.74648 0.0
H2023 H 0.20657 0.03973 0.74783 0.0
H2024 H 0.29709 0.12739 0.78758 0.0
H2025 H 0.29327 0.09459 0.77265 0.0
C2026 C 0.02904 0.18602 0.7906 0.0
C2027 C 0.07802 0.20077 0.79406 0.0
C2028 C 0.00952 0.19903 0.7823 0.0
C2029 C 0.05721 0.24195 0.76112 0.0
H2030 H 0.90655 0.26502 0.75715 0.0
C2031 C 0.97661 0.31411 0.72865 0.0
C2032 C 0.9277 0.29923 0.72519 0.0
C2033 C 0.9962 0.30116 0.73695 0.0
C2034 C 0.94867 0.25824 0.75814 0.0
H2035 H 0.14348 0.24226 0.79177 0.0
H2036 H 0.10906 0.2651 0.77741 0.0
H2037 H 0.93655 0.24546 0.77213 0.0
H2038 H 0.86246 0.25755 0.72748 0.0
H2039 H 0.897 0.23481 0.74184 0.0
H2040 H 0.06933 0.25474 0.74712 0.0
C2041 C 0.08642 0.24286 0.78099 0.0
C2042 C 0.96578 0.24709 0.76671 0.0
C2043 C 0.10593 0.22988 0.78925 0.0
C2044 C 0.89995 0.27003 0.73 0.0
C2045 C 0.91953 0.25711 0.73826 0.0
C2046 C 0.0401 0.25311 0.75255 0.0
C2047 C 0.03861 0.22702 0.77735 0.0
C2048 C 0.02022 0.23889 0.76828 0.0
C2049 C 0.96724 0.27309 0.7419 0.0
C2050 C 0.98566 0.26129 0.75097 0.0
H2051 H 0.00663 0.16355 0.79414 0.0
H2052 H 0.97262 0.18619 0.77963 0.0
H2053 H 0.09933 0.23516 0.76211 0.0
H2054 H 0.9989 0.33665 0.72511 0.0
H2055 H 0.03304 0.31409 0.73963 0.0
C2056 C 0.7693 0.71684 0.47509 0.0
C2057 C 0.77801 0.67538 0.47422 0.0
C2058 C 0.76642 0.73591 0.48371 0.0
C2059 C 0.79454 0.72244 0.50842 0.0
H2060 H 0.67789 0.79802 0.51189 0.0
C2061 C 0.73686 0.78338 0.54439 0.0
C2062 C 0.7278 0.82481 0.54521 0.0
C2063 C 0.73965 0.76414 0.53579 0.0
C2064 C 0.71096 0.77723 0.51105 0.0
H2065 H 0.79424 0.62218 0.48181 0.0
H2066 H 0.78948 0.65518 0.4967 0.0
H2067 H 0.69551 0.76908 0.49681 0.0
H2068 H 0.71082 0.87774 0.53757 0.0
H2069 H 0.71549 0.84448 0.52273 0.0
H2070 H 0.81004 0.73062 0.52267 0.0
C2071 C 0.78474 0.67315 0.49076 0.0
C2072 C 0.72128 0.76073 0.50236 0.0
C2073 C 0.78741 0.65413 0.48218 0.0
C2074 C 0.71794 0.84583 0.53724 0.0
C2075 C 0.72055 0.82665 0.52868 0.0
C2076 C 0.78425 0.73896 0.51712 0.0
C2077 C 0.77253 0.71408 0.49168 0.0
C2078 C 0.76324 0.73307 0.5009 0.0
C2079 C 0.73312 0.78577 0.52779 0.0
C2080 C 0.74231 0.76664 0.51857 0.0
H2081 H 0.76166 0.73424 0.46914 0.0
H2082 H 0.75804 0.76763 0.48412 0.0
H2083 H 0.82759 0.70163 0.50758 0.0
H2084 H 0.74482 0.76616 0.55035 0.0
H2085 H 0.7483 0.73246 0.5354 0.0
C2086 C 0.7396 0.96502 0.22518 0.0
C2087 C 0.73281 0.92337 0.22425 0.0
C2088 C 0.74269 0.98378 0.23382 0.0
C2089 C 0.71784 0.9692 0.25855 0.0
H2090 H 0.83221 0.04692 0.26176 0.0
C2091 C 0.77466 0.03261 0.29436 0.0
C2092 C 0.78284 0.07417 0.29507 0.0
C2093 C 0.7722 0.01292 0.2858 0.0
C2094 C 0.79976 0.02555 0.261 0.0
H2095 H 0.72016 0.86942 0.23176 0.0
H2096 H 0.72512 0.90199 0.24671 0.0
H2097 H 0.81445 0.01756 0.24673 0.0
H2098 H 0.79861 0.1269 0.28728 0.0
H2099 H 0.79432 0.09291 0.27253 0.0
H2100 H 0.70291 0.97735 0.27281 0.0
C2101 C 0.72828 0.92027 0.24079 0.0
C2102 C 0.78939 0.00878 0.25234 0.0
C2103 C 0.72547 0.90152 0.23218 0.0
C2104 C 0.79217 0.0949 0.28704 0.0
C2105 C 0.7898 0.07528 0.27853 0.0
C2106 C 0.72811 0.98606 0.26721 0.0
C2107 C 0.73866 0.96147 0.24176 0.0
C2108 C 0.74821 0.98041 0.25097 0.0
C2109 C 0.77812 0.03422 0.27775 0.0
C2110 C 0.76917 0.01457 0.26858 0.0
H2111 H 0.74553 0.9829 0.21925 0.0
H2112 H 0.74961 0.01569 0.23428 0.0
H2113 H 0.68547 0.94776 0.25777 0.0
H2114 H 0.76714 0.0156 0.30036 0.0
H2115 H 0.76427 0.98112 0.2855 0.0
C2116 C 0.03118 0.68579 0.28986 0.0
C2117 C 0.07956 0.7013 0.2934 0.0
C2118 C 0.01203 0.69813 0.28148 0.0
C2119 C 0.02498 0.7777 0.26483 0.0
H2120 H 0.97751 0.69553 0.24752 0.0
C2121 C 0.98341 0.81212 0.22748 0.0
C2122 C 0.93457 0.79722 0.22399 0.0
C2123 C 1.00317 0.79886 0.23573 0.0
C2124 C 0.99035 0.71881 0.25231 0.0
H2125 H 0.14456 0.74316 0.2911 0.0
H2126 H 0.1113 0.76435 0.27654 0.0
H2127 H 0.00409 0.67715 0.26279 0.0
H2128 H 0.86966 0.7552 0.2262 0.0
H2129 H 0.90399 0.7324 0.24056 0.0
H2130 H 0.0112 0.81937 0.25436 0.0
C2131 C 0.08806 0.74281 0.28022 0.0
C2132 C 0.00528 0.70833 0.26105 0.0
C2133 C 0.10726 0.73043 0.28856 0.0
C2134 C 0.90726 0.76751 0.22871 0.0
C2135 C 0.92708 0.75421 0.23693 0.0
C2136 C 0.01007 0.78817 0.25609 0.0
C2137 C 0.04074 0.72636 0.27653 0.0
C2138 C 0.02278 0.73768 0.26739 0.0
C2139 C 0.97462 0.77033 0.24062 0.0
C2140 C 0.99262 0.75884 0.24974 0.0
H2141 H 0.00887 0.66335 0.29343 0.0
H2142 H 0.97502 0.68535 0.27883 0.0
H2143 H 0.03773 0.80101 0.26961 0.0
H2144 H 0.00551 0.83493 0.22399 0.0
H2145 H 0.04039 0.81135 0.23837 0.0
C2146 C 0.21304 0.84083 0.03813 0.0
C2147 C 0.22536 0.82016 0.04605 0.0
C2148 C 0.21545 0.82175 0.02956 0.0
C2149 C 0.28239 0.736 0.01773 0.0
H2150 H 0.19056 0.76458 0.99769 0.0
C2151 C 0.28613 0.65275 0.98258 0.0
C2152 C 0.27559 0.67427 0.97471 0.0
C2153 C 0.28332 0.67125 0.99122 0.0
C2154 C 0.21715 0.75668 1.00317 0.0
H2155 H 0.24637 0.76208 0.05111 0.0
H2156 H 0.2494 0.72848 0.03614 0.0
H2157 H 0.17283 0.79245 0.01287 0.0
H2158 H 0.257 0.7331 0.96982 0.0
H2159 H 0.25289 0.76557 0.9849 0.0
H2160 H 0.32656 0.7001 1.00802 0.0
C2161 C 0.23904 0.75988 0.03657 0.0
C2162 C 0.2068 0.77256 0.01192 0.0
C2163 C 0.2365 0.77902 0.04519 0.0
C2164 C 0.26552 0.71552 0.9757 0.0
C2165 C 0.2624 0.73404 0.98438 0.0
C2166 C 0.29266 0.72004 1.00899 0.0
C2167 C 0.2302 0.7813 0.0286 0.0
C2168 C 0.23932 0.76257 0.01934 0.0
C2169 C 0.26971 0.71188 0.99228 0.0
C2170 C 0.26027 0.73019 1.00156 0.0
H2171 H 0.20425 0.87251 0.0385 0.0
H2172 H 0.20857 0.83946 0.02364 0.0
H2173 H 0.30908 0.72815 0.0232 0.0
H2174 H 0.29403 0.62095 0.98212 0.0
H2175 H 0.28904 0.65307 0.9971 0.0
C2176 C 0.10323 0.51711 0.97956 0.0
C2177 C 0.07592 0.54696 0.97488 0.0
C2178 C 0.0836 0.50374 0.98777 0.0
C2179 C 0.96357 0.50016 1.00223 0.0
H2180 H 0.06804 0.49062 0.02162 0.0
C2181 C 0.8995 0.47651 0.03901 0.0
C2182 C 0.92716 0.44702 0.04375 0.0
C2183 C 0.91869 0.48942 0.03073 0.0
C2184 C 0.03854 0.49277 0.01624 0.0
H2185 H 0.00533 0.58499 0.97498 0.0
H2186 H 0.97108 0.56166 0.98943 0.0
H2187 H 0.09758 0.51049 1.00663 0.0
H2188 H 0.99778 0.40901 0.04365 0.0
H2189 H 0.03124 0.43154 0.02908 0.0
H2190 H 0.90453 0.48246 0.01185 0.0
C2191 C 0.00763 0.54857 0.98668 0.0
C2192 C 0.0554 0.50409 1.00767 0.0
C2193 C 0.02727 0.56196 0.97842 0.0
C2194 C 0.97558 0.43179 0.04017 0.0
C2195 C 0.99478 0.44472 0.03184 0.0
C2196 C 0.94672 0.48883 0.0108 0.0
C2197 C 0.03626 0.51992 0.99151 0.0
C2198 C 0.01808 0.50784 1.00058 0.0
C2199 C 0.96593 0.47314 0.02698 0.0
C2200 C 0.98404 0.48508 0.0179 0.0
H2201 H 0.14048 0.5045 0.97697 0.0
H2202 H 0.10585 0.481 0.99126 0.0
H2203 H 0.93408 0.50235 0.99686 0.0
H2204 H 0.86238 0.48926 0.04162 0.0
H2205 H 0.89626 0.51198 0.02722 0.0
C2206 C 0.2919 0.5979 0.28705 0.0
C2207 C 0.28003 0.57678 0.29493 0.0
C2208 C 0.28903 0.57925 0.27843 0.0
C2209 C 0.22019 0.49493 0.26653 0.0
H2210 H 0.31301 0.52189 0.24648 0.0
C2211 C 0.21386 0.41112 0.23153 0.0
C2212 C 0.22657 0.43178 0.22362 0.0
C2213 C 0.2167 0.43005 0.24012 0.0
C2214 C 0.2861 0.5145 0.25196 0.0
H2215 H 0.25932 0.51843 0.29987 0.0
H2216 H 0.2552 0.48564 0.28482 0.0
H2217 H 0.33151 0.5495 0.26167 0.0
H2218 H 0.24868 0.48968 0.21859 0.0
H2219 H 0.25258 0.52303 0.23359 0.0
H2220 H 0.17469 0.46002 0.25683 0.0
C2221 C 0.26572 0.517 0.28532 0.0
C2222 C 0.29694 0.53019 0.26071 0.0
C2223 C 0.26887 0.53568 0.29398 0.0
C2224 C 0.23848 0.47279 0.22451 0.0
C2225 C 0.24152 0.49177 0.23314 0.0
C2226 C 0.2093 0.47928 0.25778 0.0
C2227 C 0.27411 0.53886 0.27741 0.0
C2228 C 0.26419 0.52062 0.26813 0.0
C2229 C 0.23234 0.47031 0.24109 0.0
C2230 C 0.24212 0.48877 0.25035 0.0
H2231 H 0.30068 0.62958 0.28749 0.0
H2232 H 0.29564 0.5972 0.27254 0.0
H2233 H 0.19332 0.48751 0.27201 0.0
H2234 H 0.20448 0.37953 0.23114 0.0
H2235 H 0.2095 0.41235 0.24603 0.0
C2236 C 0.76851 0.21631 0.97488 0.0
C2237 C 0.77731 0.17486 0.97404 0.0
C2238 C 0.76559 0.23542 0.98349 0.0
C2239 C 0.79328 0.22201 1.00822 0.0
H2240 H 0.67577 0.29691 0.01162 0.0
C2241 C 0.73369 0.28156 0.04413 0.0
C2242 C 0.72516 0.32304 0.04501 0.0
C2243 C 0.73649 0.26258 0.03551 0.0
C2244 C 0.70904 0.27629 0.0108 0.0
H2245 H 0.79395 0.12176 0.98165 0.0
H2246 H 0.78912 0.15484 0.99651 0.0
H2247 H 0.69418 0.26826 0.99653 0.0
H2248 H 0.70881 0.37632 0.03745 0.0
H2249 H 0.71341 0.34343 0.02256 0.0
H2250 H 0.80812 0.23002 0.02248 0.0
C2251 C 0.78429 0.17276 0.99057 0.0
C2252 C 0.71983 0.25998 1.00211 0.0
C2253 C 0.78701 0.15369 0.982 0.0
C2254 C 0.71555 0.34436 0.03707 0.0
C2255 C 0.71814 0.32541 0.02848 0.0
C2256 C 0.78248 0.23831 0.01691 0.0
C2257 C 0.77178 0.21363 0.99147 0.0
C2258 C 0.76211 0.23257 1.00068 0.0
C2259 C 0.73046 0.28452 0.02755 0.0
C2260 C 0.74018 0.26569 0.01834 0.0
H2261 H 0.76072 0.23363 0.96893 0.0
H2262 H 0.757 0.26711 0.9839 0.0
H2263 H 0.82657 0.2014 1.0074 0.0
H2264 H 0.7414 0.26411 0.05007 0.0
H2265 H 0.74491 0.23087 0.03508 0.0
C2266 C 0.78501 0.59559 0.78727 0.0
C2267 C 0.77551 0.57447 0.79524 0.0
C2268 C 0.78251 0.57641 0.77871 0.0
C2269 C 0.71961 0.48841 0.76715 0.0
H2270 H 0.80815 0.5189 0.74684 0.0
C2271 C 0.71721 0.40341 0.73223 0.0
C2272 C 0.72664 0.42464 0.72427 0.0
C2273 C 0.71963 0.42251 0.74081 0.0
C2274 C 0.78243 0.51044 0.75239 0.0
H2275 H 0.75923 0.51569 0.80038 0.0
H2276 H 0.75589 0.48202 0.78542 0.0
H2277 H 0.82549 0.54798 0.76192 0.0
H2278 H 0.74266 0.48352 0.71917 0.0
H2279 H 0.74588 0.51703 0.73414 0.0
H2280 H 0.67658 0.45086 0.75761 0.0
C2281 C 0.7642 0.51376 0.78581 0.0
C2282 C 0.7926 0.52702 0.76108 0.0
C2283 C 0.7669 0.53299 0.79442 0.0
C2284 C 0.73506 0.46614 0.72512 0.0
C2285 C 0.73769 0.48528 0.73373 0.0
C2286 C 0.70946 0.47182 0.75845 0.0
C2287 C 0.7704 0.53545 0.77782 0.0
C2288 C 0.76134 0.51629 0.7686 0.0
C2289 C 0.7316 0.46348 0.74172 0.0
C2290 C 0.7407 0.48258 0.75093 0.0
H2291 H 0.79177 0.62754 0.78761 0.0
H2292 H 0.7873 0.59429 0.77276 0.0
H2293 H 0.69389 0.47996 0.7727 0.0
H2294 H 0.71059 0.37144 0.73188 0.0
H2295 H 0.71491 0.40457 0.74675 0.0
C2296 C 0.60329 0.02285 0.98027 0.0
C2297 C 0.57494 0.05075 0.97517 0.0
C2298 C 0.58307 0.01025 0.98852 0.0
C2299 C 0.46056 0.00349 1.00221 0.0
H2300 H 0.56121 1.00022 0.02231 0.0
C2301 C 0.39122 0.97724 0.03871 0.0
C2302 C 0.42131 0.94998 0.04372 0.0
C2303 C 0.41035 0.99078 0.03047 0.0
C2304 C 0.53279 0.00062 0.01674 0.0
H2305 H 0.50208 0.0862 0.97459 0.0
H2306 H 0.46676 0.06412 0.98908 0.0
H2307 H 0.59235 0.02046 1.00744 0.0
H2308 H 0.49582 0.91639 0.04409 0.0
H2309 H 0.52906 0.93989 0.02962 0.0
H2310 H 0.40104 0.98345 0.0115 0.0
C2311 C 0.50462 0.05201 0.98663 0.0
C2312 C 0.55056 0.01218 1.00824 0.0
C2313 C 0.5249 0.06469 0.97836 0.0
C2314 C 0.4717 0.93742 0.04041 0.0
C2315 C 0.49081 0.95097 0.03214 0.0
C2316 C 0.44278 0.99186 0.01072 0.0
C2317 C 0.53406 0.02522 0.99186 0.0
C2318 C 0.51468 0.01355 1.00089 0.0
C2319 C 0.45995 0.97737 0.02704 0.0
C2320 C 0.47876 0.99023 0.01806 0.0
H2321 H 0.6417 0.01113 0.97799 0.0
H2322 H 0.60606 0.98894 0.99231 0.0
H2323 H 0.43221 0.00387 0.99663 0.0
H2324 H 0.35244 0.98785 0.0411 0.0
H2325 H 0.38618 0.01172 0.02677 0.0
C2326 C 0.53248 0.18872 0.29054 0.0
C2327 C 0.58298 0.20174 0.29371 0.0
C2328 C 0.51222 0.20229 0.28235 0.0
C2329 C 0.55791 0.24339 0.26086 0.0
H2330 H 0.40853 0.27331 0.25799 0.0
C2331 C 0.47617 0.31844 0.22887 0.0
C2332 C 0.42576 0.30528 0.22569 0.0
C2333 C 0.49614 0.30529 0.23712 0.0
C2334 C 0.45024 0.26464 0.25867 0.0
H2335 H 0.65071 0.24057 0.29095 0.0
H2336 H 0.61507 0.26435 0.27677 0.0
H2337 H 0.44051 0.25208 0.27273 0.0
H2338 H 0.35778 0.26678 0.22851 0.0
H2339 H 0.39295 0.2437 0.24278 0.0
H2340 H 0.56765 0.25589 0.2468 0.0
C2341 C 0.5917 0.24307 0.28051 0.0
C2342 C 0.46847 0.25252 0.2671 0.0
C2343 C 0.61192 0.22955 0.28867 0.0
C2344 C 0.39653 0.27787 0.23079 0.0
C2345 C 0.41647 0.26476 0.23901 0.0
C2346 C 0.53968 0.2555 0.25243 0.0
C2347 C 0.5421 0.22911 0.2772 0.0
C2348 C 0.52249 0.24184 0.26827 0.0
C2349 C 0.46606 0.27876 0.24232 0.0
C2350 C 0.48566 0.26618 0.25125 0.0
H2351 H 0.50922 0.1673 0.29426 0.0
H2352 H 0.47393 0.19091 0.27991 0.0
H2353 H 0.59961 0.2347 0.26154 0.0
H2354 H 0.49963 0.33958 0.22511 0.0
H2355 H 0.53441 0.31671 0.23955 0.0
C2356 C 0.52464 0.68497 0.79114 0.0
C2357 C 0.5737 0.69996 0.79452 0.0
C2358 C 0.50426 0.6981 0.78291 0.0
C2359 C 0.51566 0.7787 0.76647 0.0
H2360 H 0.46657 0.69751 0.74906 0.0
C2361 C 0.47434 0.81366 0.72909 0.0
C2362 C 0.42557 0.79884 0.72556 0.0
C2363 C 0.49347 0.80069 0.73742 0.0
C2364 C 0.47981 0.72052 0.75388 0.0
H2365 H 0.63862 0.74176 0.7921 0.0
H2366 H 0.60327 0.76427 0.7778 0.0
H2367 H 0.49396 0.67829 0.76422 0.0
H2368 H 0.35985 0.75753 0.72781 0.0
H2369 H 0.39312 0.73524 0.74228 0.0
H2370 H 0.50165 0.82092 0.75612 0.0
C2371 C 0.58043 0.74255 0.7815 0.0
C2372 C 0.4952 0.70956 0.76256 0.0
C2373 C 0.60084 0.72939 0.78968 0.0
C2374 C 0.39744 0.76975 0.73035 0.0
C2375 C 0.41663 0.75673 0.73863 0.0
C2376 C 0.5003 0.78966 0.75779 0.0
C2377 C 0.53243 0.7266 0.77796 0.0
C2378 C 0.5134 0.73854 0.76893 0.0
C2379 C 0.46435 0.77252 0.74231 0.0
C2380 C 0.48231 0.76066 0.75141 0.0
H2381 H 0.50272 0.66234 0.79472 0.0
H2382 H 0.46677 0.68569 0.78038 0.0
H2383 H 0.52899 0.80171 0.77128 0.0
H2384 H 0.49699 0.83603 0.72556 0.0
H2385 H 0.5308 0.81294 0.74006 0.0
C2386 C 0.39915 0.47872 0.53852 0.0
C2387 C 0.42717 0.44982 0.54338 0.0
C2388 C 0.41853 0.49145 0.53023 0.0
C2389 C 0.50314 0.45831 0.51118 0.0
H2390 H 0.49642 0.56953 0.50466 0.0
C2391 C 0.60435 0.51887 0.47934 0.0
C2392 C 0.57707 0.54817 0.47448 0.0
C2393 C 0.58378 0.50553 0.48749 0.0
C2394 C 0.49778 0.53829 0.50634 0.0
H2395 H 0.49855 0.41261 0.54349 0.0
H2396 H 0.53271 0.43524 0.52897 0.0
H2397 H 0.46857 0.55046 0.51979 0.0
H2398 H 0.50565 0.58529 0.47421 0.0
H2399 H 0.46946 0.56165 0.4885 0.0
H2400 H 0.53249 0.44616 0.49773 0.0
C2401 C 0.49531 0.44755 0.53156 0.0
C2402 C 0.48211 0.52742 0.51501 0.0
C2403 C 0.47597 0.43485 0.5399 0.0
C2404 C 0.52769 0.56278 0.4778 0.0
C2405 C 0.50717 0.54948 0.48601 0.0
C2406 C 0.51882 0.46919 0.50251 0.0
C2407 C 0.46636 0.47558 0.5266 0.0
C2408 C 0.48469 0.48733 0.51752 0.0
C2409 C 0.5355 0.52119 0.49099 0.0
C2410 C 0.51637 0.50929 0.50002 0.0
H2411 H 0.36152 0.49103 0.54102 0.0
H2412 H 0.39512 0.51282 0.52653 0.0
H2413 H 0.5046 0.42708 0.51288 0.0
H2414 H 0.64236 0.50679 0.47695 0.0
H2415 H 0.60672 0.48395 0.49122 0.0
loop_
_geom_bond_atom_site_label_1
_geom_bond_atom_site_label_2
_geom_bond_distance
_geom_bond_site_symmetry_2
_ccdc_geom_bond_type
C0 O12 1.241 . S
C0 O13 1.280 . S
C1 O14 1.277 . S
C1 O15 1.245 . S
C2 O26 1.247 . S
C2 O28 1.289 . S
Mg3 O4 1.926 . S
Mg3 O13 1.984 . S
Mg3 O15 1.988 . S
Mg3 O16 2.061 . S
O4 Mg3 1.926 . S
O4 Mg5 1.986 . S
O4 Mg6 1.917 . S
Mg5 O4 1.986 . S
Mg5 O12 2.042 . S
Mg5 O14 2.041 . S
Mg5 O20 2.038 . S
Mg5 O28 2.238 . S
Mg6 O4 1.917 . S
Mg6 O7 1.917 . S
Mg6 O17 2.106 . S
Mg6 O19 2.079 . S
Mg6 O28 2.106 . S
Mg6 O29 2.079 . S
O7 Mg6 1.917 . S
O7 Mg8 1.926 . S
O7 Mg9 1.986 . S
Mg8 O7 1.926 . S
Mg8 O22 1.984 . S
Mg8 O25 1.988 . S
Mg8 O26 2.061 . S
Mg9 O7 1.986 . S
Mg9 O17 2.238 . S
Mg9 O21 2.042 . S
Mg9 O23 2.041 . S
Mg9 O30 2.038 . S
C10 O16 1.247 . S
C10 O17 1.289 . S
C11 O29 1.245 . S
C11 O30 1.274 . S
O12 C0 1.241 . S
O12 Mg5 2.042 . S
O13 C0 1.280 . S
O13 Mg3 1.984 . S
O14 C1 1.277 . S
O14 Mg5 2.041 . S
O15 C1 1.245 . S
O15 Mg3 1.988 . S
O16 Mg3 2.061 . S
O16 C10 1.247 . S
O17 Mg6 2.106 . S
O17 Mg9 2.238 . S
O17 C10 1.289 . S
C18 O19 1.245 . S
C18 O20 1.274 . S
O19 Mg6 2.079 . S
O19 C18 1.245 . S
O20 Mg5 2.038 . S
O20 C18 1.274 . S
O21 Mg9 2.042 . S
O21 C24 1.241 . S
O22 Mg8 1.984 . S
O22 C24 1.280 . S
O23 Mg9 2.041 . S
O23 C27 1.277 . S
C24 O21 1.241 . S
C24 O22 1.280 . S
O25 Mg8 1.988 . S
O25 C27 1.245 . S
O26 C2 1.247 . S
O26 Mg8 2.061 . S
C27 O23 1.277 . S
C27 O25 1.245 . S
O28 C2 1.289 . S
O28 Mg5 2.238 . S
O28 Mg6 2.106 . S
O29 Mg6 2.079 . S
O29 C11 1.245 . S
O30 Mg9 2.038 . S
O30 C11 1.274 . S
C31 O43 1.241 . S
C31 O44 1.280 . S
C32 O45 1.277 . S
C32 O46 1.245 . S
C33 O57 1.247 . S
C33 O59 1.289 . S
Mg34 O35 1.926 . S
Mg34 O44 1.984 . S
Mg34 O46 1.988 . S
Mg34 O47 2.061 . S
O35 Mg34 1.926 . S
O35 Mg36 1.986 . S
O35 Mg37 1.917 . S
Mg36 O35 1.986 . S
Mg36 O43 2.042 . S
Mg36 O45 2.041 . S
Mg36 O51 2.038 . S
Mg36 O59 2.238 . S
Mg37 O35 1.917 . S
Mg37 O38 1.917 . S
Mg37 O48 2.106 . S
Mg37 O50 2.079 . S
Mg37 O59 2.106 . S
Mg37 O60 2.079 . S
O38 Mg37 1.917 . S
O38 Mg39 1.926 . S
O38 Mg40 1.986 . S
Mg39 O38 1.926 . S
Mg39 O53 1.984 . S
Mg39 O56 1.988 . S
Mg39 O57 2.061 . S
Mg40 O38 1.986 . S
Mg40 O48 2.238 . S
Mg40 O52 2.042 . S
Mg40 O54 2.041 . S
Mg40 O61 2.038 . S
C41 O47 1.247 . S
C41 O48 1.289 . S
C42 O60 1.245 . S
C42 O61 1.274 . S
O43 C31 1.241 . S
O43 Mg36 2.042 . S
O44 C31 1.280 . S
O44 Mg34 1.984 . S
O45 C32 1.277 . S
O45 Mg36 2.041 . S
O46 C32 1.245 . S
O46 Mg34 1.988 . S
O47 Mg34 2.061 . S
O47 C41 1.247 . S
O48 Mg37 2.106 . S
O48 Mg40 2.238 . S
O48 C41 1.289 . S
C49 O50 1.245 . S
C49 O51 1.274 . S
O50 Mg37 2.079 . S
O50 C49 1.245 . S
O51 Mg36 2.038 . S
O51 C49 1.274 . S
O52 Mg40 2.042 . S
O52 C55 1.241 . S
O53 Mg39 1.984 . S
O53 C55 1.280 . S
O54 Mg40 2.041 . S
O54 C58 1.277 . S
C55 O52 1.241 . S
C55 O53 1.280 . S
O56 Mg39 1.988 . S
O56 C58 1.245 . S
O57 C33 1.247 . S
O57 Mg39 2.061 . S
C58 O54 1.277 . S
C58 O56 1.245 . S
O59 C33 1.289 . S
O59 Mg36 2.238 . S
O59 Mg37 2.106 . S
O60 Mg37 2.079 . S
O60 C42 1.245 . S
O61 Mg40 2.038 . S
O61 C42 1.274 . S
C62 O74 1.241 . S
C62 O75 1.280 . S
C63 O76 1.277 . S
C63 O77 1.245 . S
C64 O88 1.247 . S
C64 O90 1.289 . S
Mg65 O66 1.926 . S
Mg65 O75 1.984 . S
Mg65 O77 1.988 . S
Mg65 O78 2.061 . S
O66 Mg65 1.926 . S
O66 Mg67 1.986 . S
O66 Mg68 1.917 . S
Mg67 O66 1.986 . S
Mg67 O74 2.042 . S
Mg67 O76 2.041 . S
Mg67 O82 2.038 . S
Mg67 O90 2.238 . S
Mg68 O66 1.917 . S
Mg68 O69 1.917 . S
Mg68 O79 2.106 . S
Mg68 O81 2.079 . S
Mg68 O90 2.106 . S
Mg68 O91 2.079 . S
O69 Mg68 1.917 . S
O69 Mg70 1.926 . S
O69 Mg71 1.986 . S
Mg70 O69 1.926 . S
Mg70 O84 1.984 . S
Mg70 O87 1.988 . S
Mg70 O88 2.061 . S
Mg71 O69 1.986 . S
Mg71 O79 2.238 . S
Mg71 O83 2.042 . S
Mg71 O85 2.041 . S
Mg71 O92 2.038 . S
C72 O78 1.247 . S
C72 O79 1.289 . S
C73 O91 1.245 . S
C73 O92 1.274 . S
O74 C62 1.241 . S
O74 Mg67 2.042 . S
O75 C62 1.280 . S
O75 Mg65 1.984 . S
O76 C63 1.277 . S
O76 Mg67 2.041 . S
O77 C63 1.245 . S
O77 Mg65 1.988 . S
O78 Mg65 2.061 . S
O78 C72 1.247 . S
O79 Mg68 2.106 . S
O79 Mg71 2.238 . S
O79 C72 1.289 . S
C80 O81 1.245 . S
C80 O82 1.274 . S
O81 Mg68 2.079 . S
O81 C80 1.245 . S
O82 Mg67 2.038 . S
O82 C80 1.274 . S
O83 Mg71 2.042 . S
O83 C86 1.241 . S
O84 Mg70 1.984 . S
O84 C86 1.280 . S
O85 Mg71 2.041 . S
O85 C89 1.277 . S
C86 O83 1.241 . S
C86 O84 1.280 . S
O87 Mg70 1.988 . S
O87 C89 1.245 . S
O88 C64 1.247 . S
O88 Mg70 2.061 . S
C89 O85 1.277 . S
C89 O87 1.245 . S
O90 C64 1.289 . S
O90 Mg67 2.238 . S
O90 Mg68 2.106 . S
O91 Mg68 2.079 . S
O91 C73 1.245 . S
O92 Mg71 2.038 . S
O92 C73 1.274 . S
C93 O105 1.241 . S
C93 O106 1.280 . S
C94 O107 1.277 . S
C94 O108 1.245 . S
C95 O119 1.247 . S
C95 O121 1.289 . S
Mg96 O97 1.926 . S
Mg96 O106 1.984 . S
Mg96 O108 1.988 . S
Mg96 O109 2.061 . S
O97 Mg96 1.926 . S
O97 Mg98 1.986 . S
O97 Mg99 1.917 . S
Mg98 O97 1.986 . S
Mg98 O105 2.042 . S
Mg98 O107 2.041 . S
Mg98 O113 2.038 . S
Mg98 O121 2.238 . S
Mg99 O97 1.917 . S
Mg99 O100 1.917 . S
Mg99 O110 2.106 . S
Mg99 O112 2.079 . S
Mg99 O121 2.106 . S
Mg99 O122 2.079 . S
O100 Mg99 1.917 . S
O100 Mg101 1.926 . S
O100 Mg102 1.986 . S
Mg101 O100 1.926 . S
Mg101 O115 1.984 . S
Mg101 O118 1.988 . S
Mg101 O119 2.061 . S
Mg102 O100 1.986 . S
Mg102 O110 2.238 . S
Mg102 O114 2.042 . S
Mg102 O116 2.041 . S
Mg102 O123 2.038 . S
C103 O109 1.247 . S
C103 O110 1.289 . S
C104 O122 1.245 . S
C104 O123 1.274 . S
O105 C93 1.241 . S
O105 Mg98 2.042 . S
O106 C93 1.280 . S
O106 Mg96 1.984 . S
O107 C94 1.277 . S
O107 Mg98 2.041 . S
O108 C94 1.245 . S
O108 Mg96 1.988 . S
O109 Mg96 2.061 . S
O109 C103 1.247 . S
O110 Mg99 2.106 . S
O110 Mg102 2.238 . S
O110 C103 1.289 . S
C111 O112 1.245 . S
C111 O113 1.274 . S
O112 Mg99 2.079 . S
O112 C111 1.245 . S
O113 Mg98 2.038 . S
O113 C111 1.274 . S
O114 Mg102 2.042 . S
O114 C117 1.241 . S
O115 Mg101 1.984 . S
O115 C117 1.280 . S
O116 Mg102 2.041 . S
O116 C120 1.277 . S
C117 O114 1.241 . S
C117 O115 1.280 . S
O118 Mg101 1.988 . S
O118 C120 1.245 . S
O119 C95 1.247 . S
O119 Mg101 2.061 . S
C120 O116 1.277 . S
C120 O118 1.245 . S
O121 C95 1.289 . S
O121 Mg98 2.238 . S
O121 Mg99 2.106 . S
O122 Mg99 2.079 . S
O122 C104 1.245 . S
O123 Mg102 2.038 . S
O123 C104 1.274 . S
C124 O136 1.241 . S
C124 O137 1.280 . S
C125 O138 1.277 . S
C125 O139 1.245 . S
C126 O150 1.247 . S
C126 O152 1.289 . S
Mg127 O128 1.926 . S
Mg127 O137 1.984 . S
Mg127 O139 1.988 . S
Mg127 O140 2.061 . S
O128 Mg127 1.926 . S
O128 Mg129 1.986 . S
O128 Mg130 1.917 . S
Mg129 O128 1.986 . S
Mg129 O136 2.042 . S
Mg129 O138 2.041 . S
Mg129 O144 2.038 . S
Mg129 O152 2.238 . S
Mg130 O128 1.917 . S
Mg130 O131 1.917 . S
Mg130 O141 2.106 . S
Mg130 O143 2.079 . S
Mg130 O152 2.106 . S
Mg130 O153 2.079 . S
O131 Mg130 1.917 . S
O131 Mg132 1.926 . S
O131 Mg133 1.986 . S
Mg132 O131 1.926 . S
Mg132 O146 1.984 . S
Mg132 O149 1.988 . S
Mg132 O150 2.061 . S
Mg133 O131 1.986 . S
Mg133 O141 2.238 . S
Mg133 O145 2.042 . S
Mg133 O147 2.041 . S
Mg133 O154 2.038 . S
C134 O140 1.247 . S
C134 O141 1.289 . S
C135 O153 1.245 . S
C135 O154 1.274 . S
O136 C124 1.241 . S
O136 Mg129 2.042 . S
O137 C124 1.280 . S
O137 Mg127 1.984 . S
O138 C125 1.277 . S
O138 Mg129 2.041 . S
O139 C125 1.245 . S
O139 Mg127 1.988 . S
O140 Mg127 2.061 . S
O140 C134 1.247 . S
O141 Mg130 2.106 . S
O141 Mg133 2.238 . S
O141 C134 1.289 . S
C142 O143 1.245 . S
C142 O144 1.274 . S
O143 Mg130 2.079 . S
O143 C142 1.245 . S
O144 Mg129 2.038 . S
O144 C142 1.274 . S
O145 Mg133 2.042 . S
O145 C148 1.241 . S
O146 Mg132 1.984 . S
O146 C148 1.280 . S
O147 Mg133 2.041 . S
O147 C151 1.277 . S
C148 O145 1.241 . S
C148 O146 1.280 . S
O149 Mg132 1.988 . S
O149 C151 1.245 . S
O150 C126 1.247 . S
O150 Mg132 2.061 . S
C151 O147 1.277 . S
C151 O149 1.245 . S
O152 C126 1.289 . S
O152 Mg129 2.238 . S
O152 Mg130 2.106 . S
O153 Mg130 2.079 . S
O153 C135 1.245 . S
O154 Mg133 2.038 . S
O154 C135 1.274 . S
C155 O167 1.241 . S
C155 O168 1.280 . S
C156 O169 1.277 . S
C156 O170 1.245 . S
C157 O181 1.247 . S
C157 O183 1.289 . S
Mg158 O159 1.926 . S
Mg158 O168 1.984 . S
Mg158 O170 1.988 . S
Mg158 O171 2.061 . S
O159 Mg158 1.926 . S
O159 Mg160 1.986 . S
O159 Mg161 1.917 . S
Mg160 O159 1.986 . S
Mg160 O167 2.042 . S
Mg160 O169 2.041 . S
Mg160 O175 2.038 . S
Mg160 O183 2.238 . S
Mg161 O159 1.917 . S
Mg161 O162 1.917 . S
Mg161 O172 2.106 . S
Mg161 O174 2.079 . S
Mg161 O183 2.106 . S
Mg161 O184 2.079 . S
O162 Mg161 1.917 . S
O162 Mg163 1.926 . S
O162 Mg164 1.986 . S
Mg163 O162 1.926 . S
Mg163 O177 1.984 . S
Mg163 O180 1.988 . S
Mg163 O181 2.061 . S
Mg164 O162 1.986 . S
Mg164 O172 2.238 . S
Mg164 O176 2.042 . S
Mg164 O178 2.041 . S
Mg164 O185 2.038 . S
C165 O171 1.247 . S
C165 O172 1.289 . S
C166 O184 1.245 . S
C166 O185 1.274 . S
O167 C155 1.241 . S
O167 Mg160 2.042 . S
O168 C155 1.280 . S
O168 Mg158 1.984 . S
O169 C156 1.277 . S
O169 Mg160 2.041 . S
O170 C156 1.245 . S
O170 Mg158 1.988 . S
O171 Mg158 2.061 . S
O171 C165 1.247 . S
O172 Mg161 2.106 . S
O172 Mg164 2.238 . S
O172 C165 1.289 . S
C173 O174 1.245 . S
C173 O175 1.274 . S
O174 Mg161 2.079 . S
O174 C173 1.245 . S
O175 Mg160 2.038 . S
O175 C173 1.274 . S
O176 Mg164 2.042 . S
O176 C179 1.241 . S
O177 Mg163 1.984 . S
O177 C179 1.280 . S
O178 Mg164 2.041 . S
O178 C182 1.277 . S
C179 O176 1.241 . S
C179 O177 1.280 . S
O180 Mg163 1.988 . S
O180 C182 1.245 . S
O181 C157 1.247 . S
O181 Mg163 2.061 . S
C182 O178 1.277 . S
C182 O180 1.245 . S
O183 C157 1.289 . S
O183 Mg160 2.238 . S
O183 Mg161 2.106 . S
O184 Mg161 2.079 . S
O184 C166 1.245 . S
O185 Mg164 2.038 . S
O185 C166 1.274 . S
C186 O198 1.241 . S
C186 O199 1.280 . S
C187 O200 1.277 . S
C187 O201 1.245 . S
C188 O212 1.247 . S
C188 O214 1.289 . S
Mg189 O190 1.926 . S
Mg189 O199 1.984 . S
Mg189 O201 1.988 . S
Mg189 O202 2.061 . S
O190 Mg189 1.926 . S
O190 Mg191 1.986 . S
O190 Mg192 1.917 . S
Mg191 O190 1.986 . S
Mg191 O198 2.042 . S
Mg191 O200 2.041 . S
Mg191 O206 2.038 . S
Mg191 O214 2.238 . S
Mg192 O190 1.917 . S
Mg192 O193 1.917 . S
Mg192 O203 2.106 . S
Mg192 O205 2.079 . S
Mg192 O214 2.106 . S
Mg192 O215 2.079 . S
O193 Mg192 1.917 . S
O193 Mg194 1.926 . S
O193 Mg195 1.986 . S
Mg194 O193 1.926 . S
Mg194 O208 1.984 . S
Mg194 O211 1.988 . S
Mg194 O212 2.061 . S
Mg195 O193 1.986 . S
Mg195 O203 2.238 . S
Mg195 O207 2.042 . S
Mg195 O209 2.041 . S
Mg195 O216 2.038 . S
C196 O202 1.247 . S
C196 O203 1.289 . S
C197 O215 1.245 . S
C197 O216 1.274 . S
O198 C186 1.241 . S
O198 Mg191 2.042 . S
O199 C186 1.280 . S
O199 Mg189 1.984 . S
O200 C187 1.277 . S
O200 Mg191 2.041 . S
O201 C187 1.245 . S
O201 Mg189 1.988 . S
O202 Mg189 2.061 . S
O202 C196 1.247 . S
O203 Mg192 2.106 . S
O203 Mg195 2.238 . S
O203 C196 1.289 . S
C204 O205 1.245 . S
C204 O206 1.274 . S
O205 Mg192 2.079 . S
O205 C204 1.245 . S
O206 Mg191 2.038 . S
O206 C204 1.274 . S
O207 Mg195 2.042 . S
O207 C210 1.241 . S
O208 Mg194 1.984 . S
O208 C210 1.280 . S
O209 Mg195 2.041 . S
O209 C213 1.277 . S
C210 O207 1.241 . S
C210 O208 1.280 . S
O211 Mg194 1.988 . S
O211 C213 1.245 . S
O212 C188 1.247 . S
O212 Mg194 2.061 . S
C213 O209 1.277 . S
C213 O211 1.245 . S
O214 C188 1.289 . S
O214 Mg191 2.238 . S
O214 Mg192 2.106 . S
O215 Mg192 2.079 . S
O215 C197 1.245 . S
O216 Mg195 2.038 . S
O216 C197 1.274 . S
C217 O229 1.241 . S
C217 O230 1.280 . S
C218 O231 1.277 . S
C218 O232 1.245 . S
C219 O243 1.247 . S
C219 O245 1.289 . S
Mg220 O221 1.926 . S
Mg220 O230 1.984 . S
Mg220 O232 1.988 . S
Mg220 O233 2.061 . S
O221 Mg220 1.926 . S
O221 Mg222 1.986 . S
O221 Mg223 1.917 . S
Mg222 O221 1.986 . S
Mg222 O229 2.042 . S
Mg222 O231 2.041 . S
Mg222 O237 2.038 . S
Mg222 O245 2.238 . S
Mg223 O221 1.917 . S
Mg223 O224 1.917 . S
Mg223 O234 2.106 . S
Mg223 O236 2.079 . S
Mg223 O245 2.106 . S
Mg223 O246 2.079 . S
O224 Mg223 1.917 . S
O224 Mg225 1.926 . S
O224 Mg226 1.986 . S
Mg225 O224 1.926 . S
Mg225 O239 1.984 . S
Mg225 O242 1.988 . S
Mg225 O243 2.061 . S
Mg226 O224 1.986 . S
Mg226 O234 2.238 . S
Mg226 O238 2.042 . S
Mg226 O240 2.041 . S
Mg226 O247 2.038 . S
C227 O233 1.247 . S
C227 O234 1.289 . S
C228 O246 1.245 . S
C228 O247 1.274 . S
O229 C217 1.241 . S
O229 Mg222 2.042 . S
O230 C217 1.280 . S
O230 Mg220 1.984 . S
O231 C218 1.277 . S
O231 Mg222 2.041 . S
O232 C218 1.245 . S
O232 Mg220 1.988 . S
O233 Mg220 2.061 . S
O233 C227 1.247 . S
O234 Mg223 2.106 . S
O234 Mg226 2.238 . S
O234 C227 1.289 . S
C235 O236 1.245 . S
C235 O237 1.274 . S
O236 Mg223 2.079 . S
O236 C235 1.245 . S
O237 Mg222 2.038 . S
O237 C235 1.274 . S
O238 Mg226 2.042 . S
O238 C241 1.241 . S
O239 Mg225 1.984 . S
O239 C241 1.280 . S
O240 Mg226 2.041 . S
O240 C244 1.277 . S
C241 O238 1.241 . S
C241 O239 1.280 . S
O242 Mg225 1.988 . S
O242 C244 1.245 . S
O243 C219 1.247 . S
O243 Mg225 2.061 . S
C244 O240 1.277 . S
C244 O242 1.245 . S
O245 C219 1.289 . S
O245 Mg222 2.238 . S
O245 Mg223 2.106 . S
O246 Mg223 2.079 . S
O246 C228 1.245 . S
O247 Mg226 2.038 . S
O247 C228 1.274 . S
C248 O260 1.241 . S
C248 O261 1.280 . S
C249 O262 1.277 . S
C249 O263 1.245 . S
C250 O274 1.247 . S
C250 O276 1.289 . S
Mg251 O252 1.926 . S
Mg251 O261 1.984 . S
Mg251 O263 1.988 . S
Mg251 O264 2.061 . S
O252 Mg251 1.926 . S
O252 Mg253 1.986 . S
O252 Mg254 1.917 . S
Mg253 O252 1.986 . S
Mg253 O260 2.042 . S
Mg253 O262 2.041 . S
Mg253 O268 2.038 . S
Mg253 O276 2.238 . S
Mg254 O252 1.917 . S
Mg254 O255 1.917 . S
Mg254 O265 2.106 . S
Mg254 O267 2.079 . S
Mg254 O276 2.106 . S
Mg254 O277 2.079 . S
O255 Mg254 1.917 . S
O255 Mg256 1.926 . S
O255 Mg257 1.986 . S
Mg256 O255 1.926 . S
Mg256 O270 1.984 . S
Mg256 O273 1.988 . S
Mg256 O274 2.061 . S
Mg257 O255 1.986 . S
Mg257 O265 2.238 . S
Mg257 O269 2.042 . S
Mg257 O271 2.041 . S
Mg257 O278 2.038 . S
C258 O264 1.247 . S
C258 O265 1.289 . S
C259 O277 1.245 . S
C259 O278 1.274 . S
O260 C248 1.241 . S
O260 Mg253 2.042 . S
O261 C248 1.280 . S
O261 Mg251 1.984 . S
O262 C249 1.277 . S
O262 Mg253 2.041 . S
O263 C249 1.245 . S
O263 Mg251 1.988 . S
O264 Mg251 2.061 . S
O264 C258 1.247 . S
O265 Mg254 2.106 . S
O265 Mg257 2.238 . S
O265 C258 1.289 . S
C266 O267 1.245 . S
C266 O268 1.274 . S
O267 Mg254 2.079 . S
O267 C266 1.245 . S
O268 Mg253 2.038 . S
O268 C266 1.274 . S
O269 Mg257 2.042 . S
O269 C272 1.241 . S
O270 Mg256 1.984 . S
O270 C272 1.280 . S
O271 Mg257 2.041 . S
O271 C275 1.277 . S
C272 O269 1.241 . S
C272 O270 1.280 . S
O273 Mg256 1.988 . S
O273 C275 1.245 . S
O274 C250 1.247 . S
O274 Mg256 2.061 . S
C275 O271 1.277 . S
C275 O273 1.245 . S
O276 C250 1.289 . S
O276 Mg253 2.238 . S
O276 Mg254 2.106 . S
O277 Mg254 2.079 . S
O277 C259 1.245 . S
O278 Mg257 2.038 . S
O278 C259 1.274 . S
C279 O291 1.241 . S
C279 O292 1.280 . S
C280 O293 1.277 . S
C280 O294 1.245 . S
C281 O305 1.247 . S
C281 O307 1.289 . S
Mg282 O283 1.926 . S
Mg282 O292 1.984 . S
Mg282 O294 1.988 . S
Mg282 O295 2.061 . S
O283 Mg282 1.926 . S
O283 Mg284 1.986 . S
O283 Mg285 1.917 . S
Mg284 O283 1.986 . S
Mg284 O291 2.042 . S
Mg284 O293 2.041 . S
Mg284 O299 2.038 . S
Mg284 O307 2.238 . S
Mg285 O283 1.917 . S
Mg285 O286 1.917 . S
Mg285 O296 2.106 . S
Mg285 O298 2.079 . S
Mg285 O307 2.106 . S
Mg285 O308 2.079 . S
O286 Mg285 1.917 . S
O286 Mg287 1.926 . S
O286 Mg288 1.986 . S
Mg287 O286 1.926 . S
Mg287 O301 1.984 . S
Mg287 O304 1.988 . S
Mg287 O305 2.061 . S
Mg288 O286 1.986 . S
Mg288 O296 2.238 . S
Mg288 O300 2.042 . S
Mg288 O302 2.041 . S
Mg288 O309 2.038 . S
C289 O295 1.247 . S
C289 O296 1.289 . S
C290 O308 1.245 . S
C290 O309 1.274 . S
O291 C279 1.241 . S
O291 Mg284 2.042 . S
O292 C279 1.280 . S
O292 Mg282 1.984 . S
O293 C280 1.277 . S
O293 Mg284 2.041 . S
O294 C280 1.245 . S
O294 Mg282 1.988 . S
O295 Mg282 2.061 . S
O295 C289 1.247 . S
O296 Mg285 2.106 . S
O296 Mg288 2.238 . S
O296 C289 1.289 . S
C297 O298 1.245 . S
C297 O299 1.274 . S
O298 Mg285 2.079 . S
O298 C297 1.245 . S
O299 Mg284 2.038 . S
O299 C297 1.274 . S
O300 Mg288 2.042 . S
O300 C303 1.241 . S
O301 Mg287 1.984 . S
O301 C303 1.280 . S
O302 Mg288 2.041 . S
O302 C306 1.277 . S
C303 O300 1.241 . S
C303 O301 1.280 . S
O304 Mg287 1.988 . S
O304 C306 1.245 . S
O305 C281 1.247 . S
O305 Mg287 2.061 . S
C306 O302 1.277 . S
C306 O304 1.245 . S
O307 C281 1.289 . S
O307 Mg284 2.238 . S
O307 Mg285 2.106 . S
O308 Mg285 2.079 . S
O308 C290 1.245 . S
O309 Mg288 2.038 . S
O309 C290 1.274 . S
C310 O322 1.241 . S
C310 O323 1.280 . S
C311 O324 1.277 . S
C311 O325 1.245 . S
C312 O336 1.247 . S
C312 O338 1.289 . S
Mg313 O314 1.926 . S
Mg313 O323 1.984 . S
Mg313 O325 1.988 . S
Mg313 O326 2.061 . S
O314 Mg313 1.926 . S
O314 Mg315 1.986 . S
O314 Mg316 1.917 . S
Mg315 O314 1.986 . S
Mg315 O322 2.042 . S
Mg315 O324 2.041 . S
Mg315 O330 2.038 . S
Mg315 O338 2.238 . S
Mg316 O314 1.917 . S
Mg316 O317 1.917 . S
Mg316 O327 2.106 . S
Mg316 O329 2.079 . S
Mg316 O338 2.106 . S
Mg316 O339 2.079 . S
O317 Mg316 1.917 . S
O317 Mg318 1.926 . S
O317 Mg319 1.986 . S
Mg318 O317 1.926 . S
Mg318 O332 1.984 . S
Mg318 O335 1.988 . S
Mg318 O336 2.061 . S
Mg319 O317 1.986 . S
Mg319 O327 2.238 . S
Mg319 O331 2.042 . S
Mg319 O333 2.041 . S
Mg319 O340 2.038 . S
C320 O326 1.247 . S
C320 O327 1.289 . S
C321 O339 1.245 . S
C321 O340 1.274 . S
O322 C310 1.241 . S
O322 Mg315 2.042 . S
O323 C310 1.280 . S
O323 Mg313 1.984 . S
O324 C311 1.277 . S
O324 Mg315 2.041 . S
O325 C311 1.245 . S
O325 Mg313 1.988 . S
O326 Mg313 2.061 . S
O326 C320 1.247 . S
O327 Mg316 2.106 . S
O327 Mg319 2.238 . S
O327 C320 1.289 . S
C328 O329 1.245 . S
C328 O330 1.274 . S
O329 Mg316 2.079 . S
O329 C328 1.245 . S
O330 Mg315 2.038 . S
O330 C328 1.274 . S
O331 Mg319 2.042 . S
O331 C334 1.241 . S
O332 Mg318 1.984 . S
O332 C334 1.280 . S
O333 Mg319 2.041 . S
O333 C337 1.277 . S
C334 O331 1.241 . S
C334 O332 1.280 . S
O335 Mg318 1.988 . S
O335 C337 1.245 . S
O336 C312 1.247 . S
O336 Mg318 2.061 . S
C337 O333 1.277 . S
C337 O335 1.245 . S
O338 C312 1.289 . S
O338 Mg315 2.238 . S
O338 Mg316 2.106 . S
O339 Mg316 2.079 . S
O339 C321 1.245 . S
O340 Mg319 2.038 . S
O340 C321 1.274 . S
C341 O353 1.241 . S
C341 O354 1.280 . S
C342 O355 1.277 . S
C342 O356 1.245 . S
C343 O367 1.247 . S
C343 O369 1.289 . S
Mg344 O345 1.926 . S
Mg344 O354 1.984 . S
Mg344 O356 1.988 . S
Mg344 O357 2.061 . S
O345 Mg344 1.926 . S
O345 Mg346 1.986 . S
O345 Mg347 1.917 . S
Mg346 O345 1.986 . S
Mg346 O353 2.042 . S
Mg346 O355 2.041 . S
Mg346 O361 2.038 . S
Mg346 O369 2.238 . S
Mg347 O345 1.917 . S
Mg347 O348 1.917 . S
Mg347 O358 2.106 . S
Mg347 O360 2.079 . S
Mg347 O369 2.106 . S
Mg347 O370 2.079 . S
O348 Mg347 1.917 . S
O348 Mg349 1.926 . S
O348 Mg350 1.986 . S
Mg349 O348 1.926 . S
Mg349 O363 1.984 . S
Mg349 O366 1.988 . S
Mg349 O367 2.061 . S
Mg350 O348 1.986 . S
Mg350 O358 2.238 . S
Mg350 O362 2.042 . S
Mg350 O364 2.041 . S
Mg350 O371 2.038 . S
C351 O357 1.247 . S
C351 O358 1.289 . S
C352 O370 1.245 . S
C352 O371 1.274 . S
O353 C341 1.241 . S
O353 Mg346 2.042 . S
O354 C341 1.280 . S
O354 Mg344 1.984 . S
O355 C342 1.277 . S
O355 Mg346 2.041 . S
O356 C342 1.245 . S
O356 Mg344 1.988 . S
O357 Mg344 2.061 . S
O357 C351 1.247 . S
O358 Mg347 2.106 . S
O358 Mg350 2.238 . S
O358 C351 1.289 . S
C359 O360 1.245 . S
C359 O361 1.274 . S
O360 Mg347 2.079 . S
O360 C359 1.245 . S
O361 Mg346 2.038 . S
O361 C359 1.274 . S
O362 Mg350 2.042 . S
O362 C365 1.241 . S
O363 Mg349 1.984 . S
O363 C365 1.280 . S
O364 Mg350 2.041 . S
O364 C368 1.277 . S
C365 O362 1.241 . S
C365 O363 1.280 . S
O366 Mg349 1.988 . S
O366 C368 1.245 . S
O367 C343 1.247 . S
O367 Mg349 2.061 . S
C368 O364 1.277 . S
C368 O366 1.245 . S
O369 C343 1.289 . S
O369 Mg346 2.238 . S
O369 Mg347 2.106 . S
O370 Mg347 2.079 . S
O370 C352 1.245 . S
O371 Mg350 2.038 . S
O371 C352 1.274 . S
C372 O384 1.241 . S
C372 O385 1.280 . S
C373 O386 1.277 . S
C373 O387 1.245 . S
C374 O398 1.247 . S
C374 O400 1.289 . S
Mg375 O376 1.926 . S
Mg375 O385 1.984 . S
Mg375 O387 1.988 . S
Mg375 O388 2.061 . S
O376 Mg375 1.926 . S
O376 Mg377 1.986 . S
O376 Mg378 1.917 . S
Mg377 O376 1.986 . S
Mg377 O384 2.042 . S
Mg377 O386 2.041 . S
Mg377 O392 2.038 . S
Mg377 O400 2.238 . S
Mg378 O376 1.917 . S
Mg378 O379 1.917 . S
Mg378 O389 2.106 . S
Mg378 O391 2.079 . S
Mg378 O400 2.106 . S
Mg378 O401 2.079 . S
O379 Mg378 1.917 . S
O379 Mg380 1.926 . S
O379 Mg381 1.986 . S
Mg380 O379 1.926 . S
Mg380 O394 1.984 . S
Mg380 O397 1.988 . S
Mg380 O398 2.061 . S
Mg381 O379 1.986 . S
Mg381 O389 2.238 . S
Mg381 O393 2.042 . S
Mg381 O395 2.041 . S
Mg381 O402 2.038 . S
C382 O388 1.247 . S
C382 O389 1.289 . S
C383 O401 1.245 . S
C383 O402 1.274 . S
O384 C372 1.241 . S
O384 Mg377 2.042 . S
O385 C372 1.280 . S
O385 Mg375 1.984 . S
O386 C373 1.277 . S
O386 Mg377 2.041 . S
O387 C373 1.245 . S
O387 Mg375 1.988 . S
O388 Mg375 2.061 . S
O388 C382 1.247 . S
O389 Mg378 2.106 . S
O389 Mg381 2.238 . S
O389 C382 1.289 . S
C390 O391 1.245 . S
C390 O392 1.274 . S
O391 Mg378 2.079 . S
O391 C390 1.245 . S
O392 Mg377 2.038 . S
O392 C390 1.274 . S
O393 Mg381 2.042 . S
O393 C396 1.241 . S
O394 Mg380 1.984 . S
O394 C396 1.280 . S
O395 Mg381 2.041 . S
O395 C399 1.277 . S
C396 O393 1.241 . S
C396 O394 1.280 . S
O397 Mg380 1.988 . S
O397 C399 1.245 . S
O398 C374 1.247 . S
O398 Mg380 2.061 . S
C399 O395 1.277 . S
C399 O397 1.245 . S
O400 C374 1.289 . S
O400 Mg377 2.238 . S
O400 Mg378 2.106 . S
O401 Mg378 2.079 . S
O401 C383 1.245 . S
O402 Mg381 2.038 . S
O402 C383 1.274 . S
C403 O415 1.241 . S
C403 O416 1.280 . S
C404 O417 1.277 . S
C404 O418 1.245 . S
C405 O429 1.247 . S
C405 O431 1.289 . S
Mg406 O407 1.926 . S
Mg406 O416 1.984 . S
Mg406 O418 1.988 . S
Mg406 O419 2.061 . S
O407 Mg406 1.926 . S
O407 Mg408 1.986 . S
O407 Mg409 1.917 . S
Mg408 O407 1.986 . S
Mg408 O415 2.042 . S
Mg408 O417 2.041 . S
Mg408 O423 2.038 . S
Mg408 O431 2.238 . S
Mg409 O407 1.917 . S
Mg409 O410 1.917 . S
Mg409 O420 2.106 . S
Mg409 O422 2.079 . S
Mg409 O431 2.106 . S
Mg409 O432 2.079 . S
O410 Mg409 1.917 . S
O410 Mg411 1.926 . S
O410 Mg412 1.986 . S
Mg411 O410 1.926 . S
Mg411 O425 1.984 . S
Mg411 O428 1.988 . S
Mg411 O429 2.061 . S
Mg412 O410 1.986 . S
Mg412 O420 2.238 . S
Mg412 O424 2.042 . S
Mg412 O426 2.041 . S
Mg412 O433 2.038 . S
C413 O419 1.247 . S
C413 O420 1.289 . S
C414 O432 1.245 . S
C414 O433 1.274 . S
O415 C403 1.241 . S
O415 Mg408 2.042 . S
O416 C403 1.280 . S
O416 Mg406 1.984 . S
O417 C404 1.277 . S
O417 Mg408 2.041 . S
O418 C404 1.245 . S
O418 Mg406 1.988 . S
O419 Mg406 2.061 . S
O419 C413 1.247 . S
O420 Mg409 2.106 . S
O420 Mg412 2.238 . S
O420 C413 1.289 . S
C421 O422 1.245 . S
C421 O423 1.274 . S
O422 Mg409 2.079 . S
O422 C421 1.245 . S
O423 Mg408 2.038 . S
O423 C421 1.274 . S
O424 Mg412 2.042 . S
O424 C427 1.241 . S
O425 Mg411 1.984 . S
O425 C427 1.280 . S
O426 Mg412 2.041 . S
O426 C430 1.277 . S
C427 O424 1.241 . S
C427 O425 1.280 . S
O428 Mg411 1.988 . S
O428 C430 1.245 . S
O429 C405 1.247 . S
O429 Mg411 2.061 . S
C430 O426 1.277 . S
C430 O428 1.245 . S
O431 C405 1.289 . S
O431 Mg408 2.238 . S
O431 Mg409 2.106 . S
O432 Mg409 2.079 . S
O432 C414 1.245 . S
O433 Mg412 2.038 . S
O433 C414 1.274 . S
C434 O446 1.241 . S
C434 O447 1.280 . S
C435 O448 1.277 . S
C435 O449 1.245 . S
C436 O460 1.247 . S
C436 O462 1.289 . S
Mg437 O438 1.926 . S
Mg437 O447 1.984 . S
Mg437 O449 1.988 . S
Mg437 O450 2.061 . S
O438 Mg437 1.926 . S
O438 Mg439 1.986 . S
O438 Mg440 1.917 . S
Mg439 O438 1.986 . S
Mg439 O446 2.042 . S
Mg439 O448 2.041 . S
Mg439 O454 2.038 . S
Mg439 O462 2.238 . S
Mg440 O438 1.917 . S
Mg440 O441 1.917 . S
Mg440 O451 2.106 . S
Mg440 O453 2.079 . S
Mg440 O462 2.106 . S
Mg440 O463 2.079 . S
O441 Mg440 1.917 . S
O441 Mg442 1.926 . S
O441 Mg443 1.986 . S
Mg442 O441 1.926 . S
Mg442 O456 1.984 . S
Mg442 O459 1.988 . S
Mg442 O460 2.061 . S
Mg443 O441 1.986 . S
Mg443 O451 2.238 . S
Mg443 O455 2.042 . S
Mg443 O457 2.041 . S
Mg443 O464 2.038 . S
C444 O450 1.247 . S
C444 O451 1.289 . S
C445 O463 1.245 . S
C445 O464 1.274 . S
O446 C434 1.241 . S
O446 Mg439 2.042 . S
O447 C434 1.280 . S
O447 Mg437 1.984 . S
O448 C435 1.277 . S
O448 Mg439 2.041 . S
O449 C435 1.245 . S
O449 Mg437 1.988 . S
O450 Mg437 2.061 . S
O450 C444 1.247 . S
O451 Mg440 2.106 . S
O451 Mg443 2.238 . S
O451 C444 1.289 . S
C452 O453 1.245 . S
C452 O454 1.274 . S
O453 Mg440 2.079 . S
O453 C452 1.245 . S
O454 Mg439 2.038 . S
O454 C452 1.274 . S
O455 Mg443 2.042 . S
O455 C458 1.241 . S
O456 Mg442 1.984 . S
O456 C458 1.280 . S
O457 Mg443 2.041 . S
O457 C461 1.277 . S
C458 O455 1.241 . S
C458 O456 1.280 . S
O459 Mg442 1.988 . S
O459 C461 1.245 . S
O460 C436 1.247 . S
O460 Mg442 2.061 . S
C461 O457 1.277 . S
C461 O459 1.245 . S
O462 C436 1.289 . S
O462 Mg439 2.238 . S
O462 Mg440 2.106 . S
O463 Mg440 2.079 . S
O463 C445 1.245 . S
O464 Mg443 2.038 . S
O464 C445 1.274 . S
C465 O477 1.241 . S
C465 O478 1.280 . S
C466 O479 1.277 . S
C466 O480 1.245 . S
C467 O491 1.247 . S
C467 O493 1.289 . S
Mg468 O469 1.926 . S
Mg468 O478 1.984 . S
Mg468 O480 1.988 . S
Mg468 O481 2.061 . S
O469 Mg468 1.926 . S
O469 Mg470 1.986 . S
O469 Mg471 1.917 . S
Mg470 O469 1.986 . S
Mg470 O477 2.042 . S
Mg470 O479 2.041 . S
Mg470 O485 2.038 . S
Mg470 O493 2.238 . S
Mg471 O469 1.917 . S
Mg471 O472 1.917 . S
Mg471 O482 2.106 . S
Mg471 O484 2.079 . S
Mg471 O493 2.106 . S
Mg471 O494 2.079 . S
O472 Mg471 1.917 . S
O472 Mg473 1.926 . S
O472 Mg474 1.986 . S
Mg473 O472 1.926 . S
Mg473 O487 1.984 . S
Mg473 O490 1.988 . S
Mg473 O491 2.061 . S
Mg474 O472 1.986 . S
Mg474 O482 2.238 . S
Mg474 O486 2.042 . S
Mg474 O488 2.041 . S
Mg474 O495 2.038 . S
C475 O481 1.247 . S
C475 O482 1.289 . S
C476 O494 1.245 . S
C476 O495 1.274 . S
O477 C465 1.241 . S
O477 Mg470 2.042 . S
O478 C465 1.280 . S
O478 Mg468 1.984 . S
O479 C466 1.277 . S
O479 Mg470 2.041 . S
O480 C466 1.245 . S
O480 Mg468 1.988 . S
O481 Mg468 2.061 . S
O481 C475 1.247 . S
O482 Mg471 2.106 . S
O482 Mg474 2.238 . S
O482 C475 1.289 . S
C483 O484 1.245 . S
C483 O485 1.274 . S
O484 Mg471 2.079 . S
O484 C483 1.245 . S
O485 Mg470 2.038 . S
O485 C483 1.274 . S
O486 Mg474 2.042 . S
O486 C489 1.241 . S
O487 Mg473 1.984 . S
O487 C489 1.280 . S
O488 Mg474 2.041 . S
O488 C492 1.277 . S
C489 O486 1.241 . S
C489 O487 1.280 . S
O490 Mg473 1.988 . S
O490 C492 1.245 . S
O491 C467 1.247 . S
O491 Mg473 2.061 . S
C492 O488 1.277 . S
C492 O490 1.245 . S
O493 C467 1.289 . S
O493 Mg470 2.238 . S
O493 Mg471 2.106 . S
O494 Mg471 2.079 . S
O494 C476 1.245 . S
O495 Mg474 2.038 . S
O495 C476 1.274 . S
C496 C497 1.349 . S
C496 C498 1.327 . S
C496 H521 0.950 . S
C497 C496 1.349 . S
C497 C513 1.349 . S
C498 C496 1.327 . S
C498 C517 1.429 . S
C498 H522 0.950 . S
C499 C516 1.574 . S
C499 C518 1.368 . S
C499 H523 0.949 . S
H500 C504 0.949 . S
C501 C502 1.349 . S
C501 C503 1.327 . S
C501 H524 0.950 . S
C502 C501 1.349 . S
C502 C514 1.349 . S
C503 C501 1.327 . S
C503 C519 1.429 . S
C503 H525 0.950 . S
C504 H500 0.949 . S
C504 C512 1.574 . S
C504 C520 1.368 . S
H505 C513 0.950 . S
H506 C511 0.950 . S
H507 C512 0.949 . S
H508 C514 0.950 . S
H509 C515 0.950 . S
H510 C516 0.949 . S
C511 H506 0.950 . S
C511 C513 1.327 . S
C511 C517 1.429 . S
C512 C504 1.574 . S
C512 H507 0.949 . S
C512 C518 1.368 . S
C513 C497 1.349 . S
C513 H505 0.950 . S
C513 C511 1.327 . S
C514 C502 1.349 . S
C514 H508 0.950 . S
C514 C515 1.327 . S
C515 H509 0.950 . S
C515 C514 1.327 . S
C515 C519 1.429 . S
C516 C499 1.574 . S
C516 H510 0.949 . S
C516 C520 1.368 . S
C517 C498 1.429 . S
C517 C511 1.429 . S
C517 C518 1.523 . S
C518 C499 1.368 . S
C518 C512 1.368 . S
C518 C517 1.523 . S
C519 C503 1.429 . S
C519 C515 1.429 . S
C519 C520 1.523 . S
C520 C504 1.368 . S
C520 C516 1.368 . S
C520 C519 1.523 . S
H521 C496 0.950 . S
H522 C498 0.950 . S
H523 C499 0.949 . S
H524 C501 0.950 . S
H525 C503 0.950 . S
C526 C527 1.349 1_565 S
C526 C528 1.327 . S
C526 H551 0.950 . S
C527 C526 1.349 1_545 S
C527 C543 1.349 . S
C528 C526 1.327 . S
C528 C547 1.429 . S
C528 H552 0.950 . S
C529 C546 1.574 . S
C529 C548 1.368 . S
C529 H553 0.949 . S
H530 C534 0.949 . S
C531 C532 1.349 . S
C531 C533 1.327 . S
C531 H554 0.950 . S
C532 C531 1.349 . S
C532 C544 1.349 . S
C533 C531 1.327 . S
C533 C549 1.429 . S
C533 H555 0.950 . S
C534 H530 0.949 . S
C534 C542 1.574 . S
C534 C550 1.368 . S
H535 C543 0.950 . S
H536 C541 0.950 1_655 S
H537 C542 0.949 1_455 S
H538 C544 0.950 . S
H539 C545 0.950 . S
H540 C546 0.949 . S
C541 H536 0.950 1_455 S
C541 C543 1.327 1_565 S
C541 C547 1.429 . S
C542 C534 1.574 . S
C542 H537 0.949 1_655 S
C542 C548 1.368 . S
C543 C527 1.349 . S
C543 H535 0.950 . S
C543 C541 1.327 1_545 S
C544 C532 1.349 . S
C544 H538 0.950 . S
C544 C545 1.327 . S
C545 H539 0.950 . S
C545 C544 1.327 . S
C545 C549 1.429 . S
C546 C529 1.574 . S
C546 H540 0.949 . S
C546 C550 1.368 . S
C547 C528 1.429 . S
C547 C541 1.429 . S
C547 C548 1.523 1_455 S
C548 C529 1.368 . S
C548 C542 1.368 . S
C548 C547 1.523 1_655 S
C549 C533 1.429 . S
C549 C545 1.429 . S
C549 C550 1.523 . S
C550 C534 1.368 . S
C550 C546 1.368 . S
C550 C549 1.523 . S
H551 C526 0.950 . S
H552 C528 0.950 . S
H553 C529 0.949 . S
H554 C531 0.950 . S
H555 C533 0.950 . S
C556 C557 1.349 1_565 S
C556 C558 1.327 . S
C556 H581 0.950 . S
C557 C556 1.349 1_545 S
C557 C573 1.349 . S
C558 C556 1.327 . S
C558 C577 1.429 . S
C558 H582 0.950 . S
C559 C576 1.574 . S
C559 C578 1.368 . S
C559 H583 0.949 . S
H560 C564 0.949 . S
C561 C562 1.349 . S
C561 C563 1.327 . S
C561 H584 0.950 . S
C562 C561 1.349 . S
C562 C574 1.349 . S
C563 C561 1.327 . S
C563 C579 1.429 . S
C563 H585 0.950 . S
C564 H560 0.949 . S
C564 C572 1.574 . S
C564 C580 1.368 . S
H565 C573 0.950 . S
H566 C571 0.950 . S
H567 C572 0.949 . S
H568 C574 0.950 . S
H569 C575 0.950 . S
H570 C576 0.949 . S
C571 H566 0.950 . S
C571 C573 1.327 1_565 S
C571 C577 1.429 . S
C572 C564 1.574 . S
C572 H567 0.949 . S
C572 C578 1.368 . S
C573 C557 1.349 . S
C573 H565 0.950 . S
C573 C571 1.327 1_545 S
C574 C562 1.349 . S
C574 H568 0.950 . S
C574 C575 1.327 . S
C575 H569 0.950 . S
C575 C574 1.327 . S
C575 C579 1.429 . S
C576 C559 1.574 . S
C576 H570 0.949 . S
C576 C580 1.368 . S
C577 C558 1.429 . S
C577 C571 1.429 . S
C577 C578 1.523 . S
C578 C559 1.368 . S
C578 C572 1.368 . S
C578 C577 1.523 . S
C579 C563 1.429 . S
C579 C575 1.429 . S
C579 C580 1.523 . S
C580 C564 1.368 . S
C580 C576 1.368 . S
C580 C579 1.523 . S
H581 C556 0.950 . S
H582 C558 0.950 . S
H583 C559 0.949 . S
H584 C561 0.950 . S
H585 C563 0.950 . S
C586 C587 1.349 . S
C586 C588 1.327 . S
C586 H611 0.950 . S
C587 C586 1.349 . S
C587 C603 1.349 . S
C588 C586 1.327 . S
C588 C607 1.429 . S
C588 H612 0.950 1_455 S
C589 C606 1.574 . S
C589 C608 1.368 . S
C589 H613 0.949 1_655 S
H590 C594 0.949 . S
C591 C592 1.349 . S
C591 C593 1.327 . S
C591 H614 0.950 . S
C592 C591 1.349 . S
C592 C604 1.349 . S
C593 C591 1.327 . S
C593 C609 1.429 . S
C593 H615 0.950 . S
C594 H590 0.949 . S
C594 C602 1.574 . S
C594 C610 1.368 . S
H595 C603 0.950 . S
H596 C601 0.950 . S
H597 C602 0.949 . S
H598 C604 0.950 . S
H599 C605 0.950 . S
H600 C606 0.949 . S
C601 H596 0.950 . S
C601 C603 1.327 . S
C601 C607 1.429 . S
C602 C594 1.574 . S
C602 H597 0.949 . S
C602 C608 1.368 . S
C603 C587 1.349 . S
C603 H595 0.950 . S
C603 C601 1.327 . S
C604 C592 1.349 . S
C604 H598 0.950 . S
C604 C605 1.327 . S
C605 H599 0.950 . S
C605 C604 1.327 . S
C605 C609 1.429 . S
C606 C589 1.574 . S
C606 H600 0.949 . S
C606 C610 1.368 . S
C607 C588 1.429 . S
C607 C601 1.429 . S
C607 C608 1.523 1_455 S
C608 C589 1.368 . S
C608 C602 1.368 . S
C608 C607 1.523 1_655 S
C609 C593 1.429 . S
C609 C605 1.429 . S
C609 C610 1.523 . S
C610 C594 1.368 . S
C610 C606 1.368 . S
C610 C609 1.523 . S
H611 C586 0.950 . S
H612 C588 0.950 1_655 S
H613 C589 0.949 1_455 S
H614 C591 0.950 . S
H615 C593 0.950 . S
C616 C617 1.349 . S
C616 C618 1.327 . S
C616 H641 0.950 . S
C617 C616 1.349 . S
C617 C633 1.349 . S
C618 C616 1.327 . S
C618 C637 1.429 . S
C618 H642 0.950 . S
C619 C636 1.574 . S
C619 C638 1.368 . S
C619 H643 0.949 . S
H620 C624 0.949 . S
C621 C622 1.349 . S
C621 C623 1.327 . S
C621 H644 0.950 . S
C622 C621 1.349 . S
C622 C634 1.349 . S
C623 C621 1.327 . S
C623 C639 1.429 . S
C623 H645 0.950 . S
C624 H620 0.949 . S
C624 C632 1.574 . S
C624 C640 1.368 . S
H625 C633 0.950 . S
H626 C631 0.950 . S
H627 C632 0.949 . S
H628 C634 0.950 . S
H629 C635 0.950 . S
H630 C636 0.949 . S
C631 H626 0.950 . S
C631 C633 1.327 . S
C631 C637 1.429 . S
C632 C624 1.574 . S
C632 H627 0.949 . S
C632 C638 1.368 . S
C633 C617 1.349 . S
C633 H625 0.950 . S
C633 C631 1.327 . S
C634 C622 1.349 . S
C634 H628 0.950 . S
C634 C635 1.327 . S
C635 H629 0.950 . S
C635 C634 1.327 . S
C635 C639 1.429 . S
C636 C619 1.574 . S
C636 H630 0.949 . S
C636 C640 1.368 . S
C637 C618 1.429 . S
C637 C631 1.429 . S
C637 C638 1.523 . S
C638 C619 1.368 . S
C638 C632 1.368 . S
C638 C637 1.523 . S
C639 C623 1.429 . S
C639 C635 1.429 . S
C639 C640 1.523 . S
C640 C624 1.368 . S
C640 C636 1.368 . S
C640 C639 1.523 . S
H641 C616 0.950 . S
H642 C618 0.950 . S
H643 C619 0.949 . S
H644 C621 0.950 . S
H645 C623 0.950 . S
C646 C647 1.349 1_545 S
C646 C648 1.327 . S
C646 H671 0.950 . S
C647 C646 1.349 1_565 S
C647 C663 1.349 . S
C648 C646 1.327 . S
C648 C667 1.429 . S
C648 H672 0.950 . S
C649 C666 1.574 . S
C649 C668 1.368 . S
C649 H673 0.949 . S
H650 C654 0.949 . S
C651 C652 1.349 . S
C651 C653 1.327 . S
C651 H674 0.950 . S
C652 C651 1.349 . S
C652 C664 1.349 . S
C653 C651 1.327 . S
C653 C669 1.429 . S
C653 H675 0.950 . S
C654 H650 0.949 . S
C654 C662 1.574 . S
C654 C670 1.368 . S
H655 C663 0.950 . S
H656 C661 0.950 1_455 S
H657 C662 0.949 1_655 S
H658 C664 0.950 . S
H659 C665 0.950 . S
H660 C666 0.949 . S
C661 H656 0.950 1_655 S
C661 C663 1.327 1_545 S
C661 C667 1.429 . S
C662 C654 1.574 . S
C662 H657 0.949 1_455 S
C662 C668 1.368 . S
C663 C647 1.349 . S
C663 H655 0.950 . S
C663 C661 1.327 1_565 S
C664 C652 1.349 . S
C664 H658 0.950 . S
C664 C665 1.327 . S
C665 H659 0.950 . S
C665 C664 1.327 . S
C665 C669 1.429 . S
C666 C649 1.574 . S
C666 H660 0.949 . S
C666 C670 1.368 . S
C667 C648 1.429 . S
C667 C661 1.429 . S
C667 C668 1.523 1_655 S
C668 C649 1.368 . S
C668 C662 1.368 . S
C668 C667 1.523 1_455 S
C669 C653 1.429 . S
C669 C665 1.429 . S
C669 C670 1.523 . S
C670 C654 1.368 . S
C670 C666 1.368 . S
C670 C669 1.523 . S
H671 C646 0.950 . S
H672 C648 0.950 . S
H673 C649 0.949 . S
H674 C651 0.950 . S
H675 C653 0.950 . S
C676 C677 1.349 1_545 S
C676 C678 1.327 . S
C676 H701 0.950 1_545 S
C677 C676 1.349 1_565 S
C677 C693 1.349 1_565 S
C678 C676 1.327 . S
C678 C697 1.429 . S
C678 H702 0.950 . S
C679 C696 1.574 . S
C679 C698 1.368 . S
C679 H703 0.949 . S
H680 C684 0.949 . S
C681 C682 1.349 . S
C681 C683 1.327 . S
C681 H704 0.950 . S
C682 C681 1.349 . S
C682 C694 1.349 . S
C683 C681 1.327 . S
C683 C699 1.429 . S
C683 H705 0.950 . S
C684 H680 0.949 . S
C684 C692 1.574 . S
C684 C700 1.368 . S
H685 C693 0.950 . S
H686 C691 0.950 . S
H687 C692 0.949 . S
H688 C694 0.950 . S
H689 C695 0.950 . S
H690 C696 0.949 . S
C691 H686 0.950 . S
C691 C693 1.327 . S
C691 C697 1.429 . S
C692 C684 1.574 . S
C692 H687 0.949 . S
C692 C698 1.368 . S
C693 C677 1.349 1_545 S
C693 H685 0.950 . S
C693 C691 1.327 . S
C694 C682 1.349 . S
C694 H688 0.950 . S
C694 C695 1.327 . S
C695 H689 0.950 . S
C695 C694 1.327 . S
C695 C699 1.429 . S
C696 C679 1.574 . S
C696 H690 0.949 . S
C696 C700 1.368 . S
C697 C678 1.429 . S
C697 C691 1.429 . S
C697 C698 1.523 . S
C698 C679 1.368 . S
C698 C692 1.368 . S
C698 C697 1.523 . S
C699 C683 1.429 . S
C699 C695 1.429 . S
C699 C700 1.523 . S
C700 C684 1.368 . S
C700 C696 1.368 . S
C700 C699 1.523 . S
H701 C676 0.950 1_565 S
H702 C678 0.950 . S
H703 C679 0.949 . S
H704 C681 0.950 . S
H705 C683 0.950 . S
C706 C707 1.349 . S
C706 C708 1.327 . S
C706 H731 0.950 . S
C707 C706 1.349 . S
C707 C723 1.349 . S
C708 C706 1.327 . S
C708 C727 1.429 . S
C708 H732 0.950 . S
C709 C726 1.574 . S
C709 C728 1.368 . S
C709 H733 0.949 . S
H710 C714 0.949 . S
C711 C712 1.349 . S
C711 C713 1.327 . S
C711 H734 0.950 . S
C712 C711 1.349 . S
C712 C724 1.349 . S
C713 C711 1.327 . S
C713 C729 1.429 . S
C713 H735 0.950 . S
C714 H710 0.949 . S
C714 C722 1.574 . S
C714 C730 1.368 . S
H715 C723 0.950 . S
H716 C721 0.950 1_455 S
H717 C722 0.949 1_655 S
H718 C724 0.950 . S
H719 C725 0.950 . S
H720 C726 0.949 . S
C721 H716 0.950 1_655 S
C721 C723 1.327 . S
C721 C727 1.429 . S
C722 C714 1.574 . S
C722 H717 0.949 1_455 S
C722 C728 1.368 . S
C723 C707 1.349 . S
C723 H715 0.950 . S
C723 C721 1.327 . S
C724 C712 1.349 . S
C724 H718 0.950 . S
C724 C725 1.327 . S
C725 H719 0.950 . S
C725 C724 1.327 . S
C725 C729 1.429 . S
C726 C709 1.574 . S
C726 H720 0.949 . S
C726 C730 1.368 . S
C727 C708 1.429 . S
C727 C721 1.429 . S
C727 C728 1.523 1_655 S
C728 C709 1.368 . S
C728 C722 1.368 . S
C728 C727 1.523 1_455 S
C729 C713 1.429 . S
C729 C725 1.429 . S
C729 C730 1.523 . S
C730 C714 1.368 . S
C730 C726 1.368 . S
C730 C729 1.523 . S
H731 C706 0.950 . S
H732 C708 0.950 . S
H733 C709 0.949 . S
H734 C711 0.950 . S
H735 C713 0.950 . S
C736 C737 1.349 . S
C736 C738 1.327 1_545 S
C736 H761 0.950 . S
C737 C736 1.349 . S
C737 C753 1.349 1_545 S
C738 C736 1.327 1_565 S
C738 C757 1.429 . S
C738 H762 0.950 . S
C739 C756 1.574 . S
C739 C758 1.368 . S
C739 H763 0.949 . S
H740 C744 0.949 . S
C741 C742 1.349 . S
C741 C743 1.327 . S
C741 H764 0.950 . S
C742 C741 1.349 . S
C742 C754 1.349 . S
C743 C741 1.327 . S
C743 C759 1.429 . S
C743 H765 0.950 . S
C744 H740 0.949 . S
C744 C752 1.574 . S
C744 C760 1.368 . S
H745 C753 0.950 . S
H746 C751 0.950 . S
H747 C752 0.949 . S
H748 C754 0.950 . S
H749 C755 0.950 . S
H750 C756 0.949 . S
C751 H746 0.950 . S
C751 C753 1.327 . S
C751 C757 1.429 . S
C752 C744 1.574 . S
C752 H747 0.949 . S
C752 C758 1.368 . S
C753 C737 1.349 1_565 S
C753 H745 0.950 . S
C753 C751 1.327 . S
C754 C742 1.349 . S
C754 H748 0.950 . S
C754 C755 1.327 . S
C755 H749 0.950 . S
C755 C754 1.327 . S
C755 C759 1.429 . S
C756 C739 1.574 . S
C756 H750 0.949 . S
C756 C760 1.368 . S
C757 C738 1.429 . S
C757 C751 1.429 . S
C757 C758 1.523 . S
C758 C739 1.368 . S
C758 C752 1.368 . S
C758 C757 1.523 . S
C759 C743 1.429 . S
C759 C755 1.429 . S
C759 C760 1.523 . S
C760 C744 1.368 . S
C760 C756 1.368 . S
C760 C759 1.523 . S
H761 C736 0.950 . S
H762 C738 0.950 . S
H763 C739 0.949 . S
H764 C741 0.950 . S
H765 C743 0.950 . S
C766 C767 1.349 . S
C766 C768 1.327 . S
C766 H791 0.950 . S
C767 C766 1.349 . S
C767 C783 1.349 . S
C768 C766 1.327 . S
C768 C787 1.429 . S
C768 H792 0.950 . S
C769 C786 1.574 . S
C769 C788 1.368 . S
C769 H793 0.949 . S
H770 C774 0.949 . S
C771 C772 1.349 . S
C771 C773 1.327 . S
C771 H794 0.950 . S
C772 C771 1.349 . S
C772 C784 1.349 . S
C773 C771 1.327 . S
C773 C789 1.429 . S
C773 H795 0.950 . S
C774 H770 0.949 . S
C774 C782 1.574 . S
C774 C790 1.368 . S
H775 C783 0.950 . S
H776 C781 0.950 . S
H777 C782 0.949 . S
H778 C784 0.950 . S
H779 C785 0.950 1_655 S
H780 C786 0.949 1_455 S
C781 H776 0.950 . S
C781 C783 1.327 . S
C781 C787 1.429 . S
C782 C774 1.574 . S
C782 H777 0.949 . S
C782 C788 1.368 . S
C783 C767 1.349 . S
C783 H775 0.950 . S
C783 C781 1.327 . S
C784 C772 1.349 . S
C784 H778 0.950 . S
C784 C785 1.327 . S
C785 H779 0.950 1_455 S
C785 C784 1.327 . S
C785 C789 1.429 . S
C786 C769 1.574 . S
C786 H780 0.949 1_655 S
C786 C790 1.368 . S
C787 C768 1.429 . S
C787 C781 1.429 . S
C787 C788 1.523 . S
C788 C769 1.368 . S
C788 C782 1.368 . S
C788 C787 1.523 . S
C789 C773 1.429 . S
C789 C785 1.429 . S
C789 C790 1.523 1_455 S
C790 C774 1.368 . S
C790 C786 1.368 . S
C790 C789 1.523 1_655 S
H791 C766 0.950 . S
H792 C768 0.950 . S
H793 C769 0.949 . S
H794 C771 0.950 . S
H795 C773 0.950 . S
C796 C797 1.349 . S
C796 C798 1.327 . S
C796 H821 0.950 . S
C797 C796 1.349 . S
C797 C813 1.349 . S
C798 C796 1.327 . S
C798 C817 1.429 . S
C798 H822 0.950 . S
C799 C816 1.574 . S
C799 C818 1.368 . S
C799 H823 0.949 . S
H800 C804 0.949 . S
C801 C802 1.349 . S
C801 C803 1.327 . S
C801 H824 0.950 . S
C802 C801 1.349 . S
C802 C814 1.349 . S
C803 C801 1.327 . S
C803 C819 1.429 . S
C803 H825 0.950 . S
C804 H800 0.949 . S
C804 C812 1.574 . S
C804 C820 1.368 . S
H805 C813 0.950 . S
H806 C811 0.950 . S
H807 C812 0.949 . S
H808 C814 0.950 . S
H809 C815 0.950 . S
H810 C816 0.949 . S
C811 H806 0.950 . S
C811 C813 1.327 . S
C811 C817 1.429 . S
C812 C804 1.574 . S
C812 H807 0.949 . S
C812 C818 1.368 . S
C813 C797 1.349 . S
C813 H805 0.950 . S
C813 C811 1.327 . S
C814 C802 1.349 . S
C814 H808 0.950 . S
C814 C815 1.327 . S
C815 H809 0.950 . S
C815 C814 1.327 . S
C815 C819 1.429 . S
C816 C799 1.574 . S
C816 H810 0.949 . S
C816 C820 1.368 . S
C817 C798 1.429 . S
C817 C811 1.429 . S
C817 C818 1.523 . S
C818 C799 1.368 . S
C818 C812 1.368 . S
C818 C817 1.523 . S
C819 C803 1.429 . S
C819 C815 1.429 . S
C819 C820 1.523 . S
C820 C804 1.368 . S
C820 C816 1.368 . S
C820 C819 1.523 . S
H821 C796 0.950 . S
H822 C798 0.950 . S
H823 C799 0.949 . S
H824 C801 0.950 . S
H825 C803 0.950 . S
C826 C827 1.349 1_565 S
C826 C828 1.327 . S
C826 H851 0.950 1_565 S
C827 C826 1.349 1_545 S
C827 C843 1.349 1_545 S
C828 C826 1.327 . S
C828 C847 1.429 . S
C828 H852 0.950 . S
C829 C846 1.574 . S
C829 C848 1.368 . S
C829 H853 0.949 . S
H830 C834 0.949 . S
C831 C832 1.349 . S
C831 C833 1.327 . S
C831 H854 0.950 . S
C832 C831 1.349 . S
C832 C844 1.349 . S
C833 C831 1.327 . S
C833 C849 1.429 . S
C833 H855 0.950 1_455 S
C834 H830 0.949 . S
C834 C842 1.574 . S
C834 C850 1.368 . S
H835 C843 0.950 . S
H836 C841 0.950 . S
H837 C842 0.949 . S
H838 C844 0.950 . S
H839 C845 0.950 . S
H840 C846 0.949 . S
C841 H836 0.950 . S
C841 C843 1.327 . S
C841 C847 1.429 . S
C842 C834 1.574 . S
C842 H837 0.949 . S
C842 C848 1.368 . S
C843 C827 1.349 1_565 S
C843 H835 0.950 . S
C843 C841 1.327 . S
C844 C832 1.349 . S
C844 H838 0.950 . S
C844 C845 1.327 . S
C845 H839 0.950 . S
C845 C844 1.327 . S
C845 C849 1.429 . S
C846 C829 1.574 . S
C846 H840 0.949 . S
C846 C850 1.368 . S
C847 C828 1.429 . S
C847 C841 1.429 . S
C847 C848 1.523 . S
C848 C829 1.368 . S
C848 C842 1.368 . S
C848 C847 1.523 . S
C849 C833 1.429 . S
C849 C845 1.429 . S
C849 C850 1.523 1_455 S
C850 C834 1.368 . S
C850 C846 1.368 . S
C850 C849 1.523 1_655 S
H851 C826 0.950 1_545 S
H852 C828 0.950 . S
H853 C829 0.949 . S
H854 C831 0.950 . S
H855 C833 0.950 1_655 S
C856 C857 1.349 . S
C856 C858 1.327 1_565 S
C856 H881 0.950 . S
C857 C856 1.349 . S
C857 C873 1.349 1_565 S
C858 C856 1.327 1_545 S
C858 C877 1.429 . S
C858 H882 0.950 . S
C859 C876 1.574 . S
C859 C878 1.368 . S
C859 H883 0.949 . S
H860 C864 0.949 . S
C861 C862 1.349 . S
C861 C863 1.327 . S
C861 H884 0.950 . S
C862 C861 1.349 . S
C862 C874 1.349 . S
C863 C861 1.327 . S
C863 C879 1.429 . S
C863 H885 0.950 . S
C864 H860 0.949 . S
C864 C872 1.574 . S
C864 C880 1.368 . S
H865 C873 0.950 . S
H866 C871 0.950 . S
H867 C872 0.949 . S
H868 C874 0.950 . S
H869 C875 0.950 . S
H870 C876 0.949 . S
C871 H866 0.950 . S
C871 C873 1.327 . S
C871 C877 1.429 . S
C872 C864 1.574 . S
C872 H867 0.949 . S
C872 C878 1.368 . S
C873 C857 1.349 1_545 S
C873 H865 0.950 . S
C873 C871 1.327 . S
C874 C862 1.349 . S
C874 H868 0.950 . S
C874 C875 1.327 . S
C875 H869 0.950 . S
C875 C874 1.327 . S
C875 C879 1.429 . S
C876 C859 1.574 . S
C876 H870 0.949 . S
C876 C880 1.368 . S
C877 C858 1.429 . S
C877 C871 1.429 . S
C877 C878 1.523 . S
C878 C859 1.368 . S
C878 C872 1.368 . S
C878 C877 1.523 . S
C879 C863 1.429 . S
C879 C875 1.429 . S
C879 C880 1.523 . S
C880 C864 1.368 . S
C880 C876 1.368 . S
C880 C879 1.523 . S
H881 C856 0.950 . S
H882 C858 0.950 . S
H883 C859 0.949 . S
H884 C861 0.950 . S
H885 C863 0.950 . S
C886 C887 1.349 . S
C886 C888 1.327 . S
C886 H911 0.950 . S
C887 C886 1.349 . S
C887 C903 1.349 . S
C888 C886 1.327 . S
C888 C907 1.429 . S
C888 H912 0.950 1_655 S
C889 C906 1.574 . S
C889 C908 1.368 . S
C889 H913 0.949 1_455 S
H890 C894 0.949 . S
C891 C892 1.349 . S
C891 C893 1.327 . S
C891 H914 0.950 . S
C892 C891 1.349 . S
C892 C904 1.349 . S
C893 C891 1.327 . S
C893 C909 1.429 . S
C893 H915 0.950 . S
C894 H890 0.949 . S
C894 C902 1.574 . S
C894 C910 1.368 . S
H895 C903 0.950 . S
H896 C901 0.950 . S
H897 C902 0.949 . S
H898 C904 0.950 . S
H899 C905 0.950 . S
H900 C906 0.949 . S
C901 H896 0.950 . S
C901 C903 1.327 . S
C901 C907 1.429 . S
C902 C894 1.574 . S
C902 H897 0.949 . S
C902 C908 1.368 . S
C903 C887 1.349 . S
C903 H895 0.950 . S
C903 C901 1.327 . S
C904 C892 1.349 . S
C904 H898 0.950 . S
C904 C905 1.327 . S
C905 H899 0.950 . S
C905 C904 1.327 . S
C905 C909 1.429 . S
C906 C889 1.574 . S
C906 H900 0.949 . S
C906 C910 1.368 . S
C907 C888 1.429 . S
C907 C901 1.429 . S
C907 C908 1.523 1_655 S
C908 C889 1.368 . S
C908 C902 1.368 . S
C908 C907 1.523 1_455 S
C909 C893 1.429 . S
C909 C905 1.429 . S
C909 C910 1.523 . S
C910 C894 1.368 . S
C910 C906 1.368 . S
C910 C909 1.523 . S
H911 C886 0.950 . S
H912 C888 0.950 1_455 S
H913 C889 0.949 1_655 S
H914 C891 0.950 . S
H915 C893 0.950 . S
C916 C917 1.349 . S
C916 C918 1.327 . S
C916 H941 0.950 . S
C917 C916 1.349 . S
C917 C933 1.349 . S
C918 C916 1.327 . S
C918 C937 1.429 . S
C918 H942 0.950 . S
C919 C936 1.574 . S
C919 C938 1.368 . S
C919 H943 0.949 . S
H920 C924 0.949 . S
C921 C922 1.349 . S
C921 C923 1.327 . S
C921 H944 0.950 . S
C922 C921 1.349 . S
C922 C934 1.349 . S
C923 C921 1.327 . S
C923 C939 1.429 . S
C923 H945 0.950 . S
C924 H920 0.949 . S
C924 C932 1.574 . S
C924 C940 1.368 . S
H925 C933 0.950 . S
H926 C931 0.950 . S
H927 C932 0.949 . S
H928 C934 0.950 . S
H929 C935 0.950 . S
H930 C936 0.949 . S
C931 H926 0.950 . S
C931 C933 1.327 . S
C931 C937 1.429 . S
C932 C924 1.574 . S
C932 H927 0.949 . S
C932 C938 1.368 . S
C933 C917 1.349 . S
C933 H925 0.950 . S
C933 C931 1.327 . S
C934 C922 1.349 . S
C934 H928 0.950 . S
C934 C935 1.327 . S
C935 H929 0.950 . S
C935 C934 1.327 . S
C935 C939 1.429 . S
C936 C919 1.574 . S
C936 H930 0.949 . S
C936 C940 1.368 . S
C937 C918 1.429 . S
C937 C931 1.429 . S
C937 C938 1.523 . S
C938 C919 1.368 . S
C938 C932 1.368 . S
C938 C937 1.523 . S
C939 C923 1.429 . S
C939 C935 1.429 . S
C939 C940 1.523 . S
C940 C924 1.368 . S
C940 C936 1.368 . S
C940 C939 1.523 . S
H941 C916 0.950 . S
H942 C918 0.950 . S
H943 C919 0.949 . S
H944 C921 0.950 . S
H945 C923 0.950 . S
C946 C947 1.349 . S
C946 C948 1.327 . S
C946 H971 0.950 . S
C947 C946 1.349 . S
C947 C963 1.349 . S
C948 C946 1.327 . S
C948 C967 1.429 . S
C948 H972 0.950 . S
C949 C966 1.574 . S
C949 C968 1.368 . S
C949 H973 0.949 . S
H950 C954 0.949 . S
C951 C952 1.349 1_545 S
C951 C953 1.327 . S
C951 H974 0.950 . S
C952 C951 1.349 1_565 S
C952 C964 1.349 . S
C953 C951 1.327 . S
C953 C969 1.429 . S
C953 H975 0.950 . S
C954 H950 0.949 . S
C954 C962 1.574 . S
C954 C970 1.368 . S
H955 C963 0.950 . S
H956 C961 0.950 1_455 S
H957 C962 0.949 1_655 S
H958 C964 0.950 . S
H959 C965 0.950 . S
H960 C966 0.949 . S
C961 H956 0.950 1_655 S
C961 C963 1.327 . S
C961 C967 1.429 . S
C962 C954 1.574 . S
C962 H957 0.949 1_455 S
C962 C968 1.368 . S
C963 C947 1.349 . S
C963 H955 0.950 . S
C963 C961 1.327 . S
C964 C952 1.349 . S
C964 H958 0.950 . S
C964 C965 1.327 1_565 S
C965 H959 0.950 . S
C965 C964 1.327 1_545 S
C965 C969 1.429 . S
C966 C949 1.574 . S
C966 H960 0.949 . S
C966 C970 1.368 . S
C967 C948 1.429 . S
C967 C961 1.429 . S
C967 C968 1.523 1_655 S
C968 C949 1.368 . S
C968 C962 1.368 . S
C968 C967 1.523 1_455 S
C969 C953 1.429 . S
C969 C965 1.429 . S
C969 C970 1.523 . S
C970 C954 1.368 . S
C970 C966 1.368 . S
C970 C969 1.523 . S
H971 C946 0.950 . S
H972 C948 0.950 . S
H973 C949 0.949 . S
H974 C951 0.950 . S
H975 C953 0.950 . S
C976 C977 1.349 . S
C976 C978 1.327 1_545 S
C976 H1001 0.950 . S
C977 C976 1.349 . S
C977 C993 1.349 1_545 S
C978 C976 1.327 1_565 S
C978 C997 1.429 . S
C978 H1002 0.950 . S
C979 C996 1.574 . S
C979 C998 1.368 . S
C979 H1003 0.949 . S
H980 C984 0.949 . S
C981 C982 1.349 . S
C981 C983 1.327 . S
C981 H1004 0.950 . S
C982 C981 1.349 . S
C982 C994 1.349 . S
C983 C981 1.327 . S
C983 C999 1.429 . S
C983 H1005 0.950 . S
C984 H980 0.949 . S
C984 C992 1.574 . S
C984 C1000 1.368 . S
H985 C993 0.950 . S
H986 C991 0.950 . S
H987 C992 0.949 . S
H988 C994 0.950 . S
H989 C995 0.950 . S
H990 C996 0.949 . S
C991 H986 0.950 . S
C991 C993 1.327 . S
C991 C997 1.429 . S
C992 C984 1.574 . S
C992 H987 0.949 . S
C992 C998 1.368 . S
C993 C977 1.349 1_565 S
C993 H985 0.950 . S
C993 C991 1.327 . S
C994 C982 1.349 . S
C994 H988 0.950 . S
C994 C995 1.327 . S
C995 H989 0.950 . S
C995 C994 1.327 . S
C995 C999 1.429 . S
C996 C979 1.574 . S
C996 H990 0.949 . S
C996 C1000 1.368 . S
C997 C978 1.429 . S
C997 C991 1.429 . S
C997 C998 1.523 . S
C998 C979 1.368 . S
C998 C992 1.368 . S
C998 C997 1.523 . S
C999 C983 1.429 . S
C999 C995 1.429 . S
C999 C1000 1.523 . S
C1000 C984 1.368 . S
C1000 C996 1.368 . S
C1000 C999 1.523 . S
H1001 C976 0.950 . S
H1002 C978 0.950 . S
H1003 C979 0.949 . S
H1004 C981 0.950 . S
H1005 C983 0.950 . S
C1006 C1007 1.349 . S
C1006 C1008 1.327 . S
C1006 H1031 0.950 . S
C1007 C1006 1.349 . S
C1007 C1023 1.349 . S
C1008 C1006 1.327 . S
C1008 C1027 1.429 . S
C1008 H1032 0.950 1_455 S
C1009 C1026 1.574 . S
C1009 C1028 1.368 . S
C1009 H1033 0.949 1_655 S
H1010 C1014 0.949 . S
C1011 C1012 1.349 . S
C1011 C1013 1.327 . S
C1011 H1034 0.950 . S
C1012 C1011 1.349 . S
C1012 C1024 1.349 . S
C1013 C1011 1.327 . S
C1013 C1029 1.429 . S
C1013 H1035 0.950 . S
C1014 H1010 0.949 . S
C1014 C1022 1.574 . S
C1014 C1030 1.368 . S
H1015 C1023 0.950 . S
H1016 C1021 0.950 . S
H1017 C1022 0.949 . S
H1018 C1024 0.950 . S
H1019 C1025 0.950 . S
H1020 C1026 0.949 . S
C1021 H1016 0.950 . S
C1021 C1023 1.327 . S
C1021 C1027 1.429 . S
C1022 C1014 1.574 . S
C1022 H1017 0.949 . S
C1022 C1028 1.368 . S
C1023 C1007 1.349 . S
C1023 H1015 0.950 . S
C1023 C1021 1.327 . S
C1024 C1012 1.349 . S
C1024 H1018 0.950 . S
C1024 C1025 1.327 . S
C1025 H1019 0.950 . S
C1025 C1024 1.327 . S
C1025 C1029 1.429 . S
C1026 C1009 1.574 . S
C1026 H1020 0.949 . S
C1026 C1030 1.368 . S
C1027 C1008 1.429 . S
C1027 C1021 1.429 . S
C1027 C1028 1.523 1_455 S
C1028 C1009 1.368 . S
C1028 C1022 1.368 . S
C1028 C1027 1.523 1_655 S
C1029 C1013 1.429 . S
C1029 C1025 1.429 . S
C1029 C1030 1.523 . S
C1030 C1014 1.368 . S
C1030 C1026 1.368 . S
C1030 C1029 1.523 . S
H1031 C1006 0.950 . S
H1032 C1008 0.950 1_655 S
H1033 C1009 0.949 1_455 S
H1034 C1011 0.950 . S
H1035 C1013 0.950 . S
C1036 C1037 1.349 . S
C1036 C1038 1.327 . S
C1036 H1061 0.950 . S
C1037 C1036 1.349 . S
C1037 C1053 1.349 . S
C1038 C1036 1.327 . S
C1038 C1057 1.429 . S
C1038 H1062 0.950 . S
C1039 C1056 1.574 . S
C1039 C1058 1.368 . S
C1039 H1063 0.949 . S
H1040 C1044 0.949 . S
C1041 C1042 1.349 . S
C1041 C1043 1.327 . S
C1041 H1064 0.950 . S
C1042 C1041 1.349 . S
C1042 C1054 1.349 . S
C1043 C1041 1.327 . S
C1043 C1059 1.429 . S
C1043 H1065 0.950 . S
C1044 H1040 0.949 . S
C1044 C1052 1.574 . S
C1044 C1060 1.368 . S
H1045 C1053 0.950 . S
H1046 C1051 0.950 . S
H1047 C1052 0.949 . S
H1048 C1054 0.950 . S
H1049 C1055 0.950 . S
H1050 C1056 0.949 . S
C1051 H1046 0.950 . S
C1051 C1053 1.327 . S
C1051 C1057 1.429 . S
C1052 C1044 1.574 . S
C1052 H1047 0.949 . S
C1052 C1058 1.368 . S
C1053 C1037 1.349 . S
C1053 H1045 0.950 . S
C1053 C1051 1.327 . S
C1054 C1042 1.349 . S
C1054 H1048 0.950 . S
C1054 C1055 1.327 . S
C1055 H1049 0.950 . S
C1055 C1054 1.327 . S
C1055 C1059 1.429 . S
C1056 C1039 1.574 . S
C1056 H1050 0.949 . S
C1056 C1060 1.368 . S
C1057 C1038 1.429 . S
C1057 C1051 1.429 . S
C1057 C1058 1.523 . S
C1058 C1039 1.368 . S
C1058 C1052 1.368 . S
C1058 C1057 1.523 . S
C1059 C1043 1.429 . S
C1059 C1055 1.429 . S
C1059 C1060 1.523 . S
C1060 C1044 1.368 . S
C1060 C1056 1.368 . S
C1060 C1059 1.523 . S
H1061 C1036 0.950 . S
H1062 C1038 0.950 . S
H1063 C1039 0.949 . S
H1064 C1041 0.950 . S
H1065 C1043 0.950 . S
C1066 C1067 1.349 . S
C1066 C1068 1.327 . S
C1066 H1091 0.950 . S
C1067 C1066 1.349 . S
C1067 C1083 1.349 . S
C1068 C1066 1.327 . S
C1068 C1087 1.429 . S
C1068 H1092 0.950 . S
C1069 C1086 1.574 . S
C1069 C1088 1.368 . S
C1069 H1093 0.949 . S
H1070 C1074 0.949 . S
C1071 C1072 1.349 1_565 S
C1071 C1073 1.327 . S
C1071 H1094 0.950 . S
C1072 C1071 1.349 1_545 S
C1072 C1084 1.349 1_545 S
C1073 C1071 1.327 . S
C1073 C1089 1.429 . S
C1073 H1095 0.950 . S
C1074 H1070 0.949 . S
C1074 C1082 1.574 . S
C1074 C1090 1.368 . S
H1075 C1083 0.950 . S
H1076 C1081 0.950 . S
H1077 C1082 0.949 . S
H1078 C1084 0.952 1_545 S
H1079 C1085 0.950 1_655 S
H1080 C1086 0.949 1_455 S
C1081 H1076 0.950 . S
C1081 C1083 1.327 . S
C1081 C1087 1.429 . S
C1082 C1074 1.574 . S
C1082 H1077 0.949 . S
C1082 C1088 1.368 . S
C1083 C1067 1.349 . S
C1083 H1075 0.950 . S
C1083 C1081 1.327 . S
C1084 C1072 1.349 1_565 S
C1084 H1078 0.952 1_565 S
C1084 C1085 1.325 . S
C1085 H1079 0.950 1_455 S
C1085 C1084 1.325 . S
C1085 C1089 1.429 . S
C1086 C1069 1.574 . S
C1086 H1080 0.949 1_655 S
C1086 C1090 1.368 . S
C1087 C1068 1.429 . S
C1087 C1081 1.429 . S
C1087 C1088 1.523 . S
C1088 C1069 1.368 . S
C1088 C1082 1.368 . S
C1088 C1087 1.523 . S
C1089 C1073 1.429 . S
C1089 C1085 1.429 . S
C1089 C1090 1.523 1_455 S
C1090 C1074 1.368 . S
C1090 C1086 1.368 . S
C1090 C1089 1.523 1_655 S
H1091 C1066 0.950 . S
H1092 C1068 0.950 . S
H1093 C1069 0.949 . S
H1094 C1071 0.950 . S
H1095 C1073 0.950 . S
C1096 C1097 1.349 . S
C1096 C1098 1.327 . S
C1096 H1121 0.950 . S
C1097 C1096 1.349 . S
C1097 C1113 1.349 . S
C1098 C1096 1.327 . S
C1098 C1117 1.429 . S
C1098 H1122 0.950 . S
C1099 C1116 1.574 . S
C1099 C1118 1.368 . S
C1099 H1123 0.949 . S
H1100 C1104 0.949 . S
C1101 C1102 1.349 . S
C1101 C1103 1.327 1_565 S
C1101 H1124 0.950 . S
C1102 C1101 1.349 . S
C1102 C1114 1.349 1_565 S
C1103 C1101 1.327 1_545 S
C1103 C1119 1.429 . S
C1103 H1125 0.950 . S
C1104 H1100 0.949 . S
C1104 C1112 1.574 . S
C1104 C1120 1.368 . S
H1105 C1113 0.950 . S
H1106 C1111 0.950 . S
H1107 C1112 0.949 . S
H1108 C1114 0.950 . S
H1109 C1115 0.950 . S
H1110 C1116 0.949 . S
C1111 H1106 0.950 . S
C1111 C1113 1.327 . S
C1111 C1117 1.429 . S
C1112 C1104 1.574 . S
C1112 H1107 0.949 . S
C1112 C1118 1.368 . S
C1113 C1097 1.349 . S
C1113 H1105 0.950 . S
C1113 C1111 1.327 . S
C1114 C1102 1.349 1_545 S
C1114 H1108 0.950 . S
C1114 C1115 1.327 . S
C1115 H1109 0.950 . S
C1115 C1114 1.327 . S
C1115 C1119 1.429 . S
C1116 C1099 1.574 . S
C1116 H1110 0.949 . S
C1116 C1120 1.368 . S
C1117 C1098 1.429 . S
C1117 C1111 1.429 . S
C1117 C1118 1.523 . S
C1118 C1099 1.368 . S
C1118 C1112 1.368 . S
C1118 C1117 1.523 . S
C1119 C1103 1.429 . S
C1119 C1115 1.429 . S
C1119 C1120 1.523 . S
C1120 C1104 1.368 . S
C1120 C1116 1.368 . S
C1120 C1119 1.523 . S
H1121 C1096 0.950 . S
H1122 C1098 0.950 . S
H1123 C1099 0.949 . S
H1124 C1101 0.950 . S
H1125 C1103 0.950 . S
C1126 C1127 1.349 . S
C1126 C1128 1.327 . S
C1126 H1151 0.950 . S
C1127 C1126 1.349 . S
C1127 C1143 1.349 . S
C1128 C1126 1.327 . S
C1128 C1147 1.429 . S
C1128 H1152 0.950 . S
C1129 C1146 1.574 . S
C1129 C1148 1.368 . S
C1129 H1153 0.949 . S
H1130 C1134 0.949 1_655 S
C1131 C1132 1.349 . S
C1131 C1133 1.327 . S
C1131 H1154 0.950 . S
C1132 C1131 1.349 . S
C1132 C1144 1.349 . S
C1133 C1131 1.327 . S
C1133 C1149 1.429 . S
C1133 H1155 0.950 1_655 S
C1134 H1130 0.949 1_455 S
C1134 C1142 1.574 . S
C1134 C1150 1.368 . S
H1135 C1143 0.950 . S
H1136 C1141 0.950 . S
H1137 C1142 0.949 . S
H1138 C1144 0.950 . S
H1139 C1145 0.950 . S
H1140 C1146 0.949 . S
C1141 H1136 0.950 . S
C1141 C1143 1.327 . S
C1141 C1147 1.429 . S
C1142 C1134 1.574 . S
C1142 H1137 0.949 . S
C1142 C1148 1.368 . S
C1143 C1127 1.349 . S
C1143 H1135 0.950 . S
C1143 C1141 1.327 . S
C1144 C1132 1.349 . S
C1144 H1138 0.950 . S
C1144 C1145 1.327 . S
C1145 H1139 0.950 . S
C1145 C1144 1.327 . S
C1145 C1149 1.429 . S
C1146 C1129 1.574 . S
C1146 H1140 0.949 . S
C1146 C1150 1.368 . S
C1147 C1128 1.429 . S
C1147 C1141 1.429 . S
C1147 C1148 1.523 . S
C1148 C1129 1.368 . S
C1148 C1142 1.368 . S
C1148 C1147 1.523 . S
C1149 C1133 1.429 . S
C1149 C1145 1.429 . S
C1149 C1150 1.523 1_655 S
C1150 C1134 1.368 . S
C1150 C1146 1.368 . S
C1150 C1149 1.523 1_455 S
H1151 C1126 0.950 . S
H1152 C1128 0.950 . S
H1153 C1129 0.949 . S
H1154 C1131 0.950 . S
H1155 C1133 0.950 1_455 S
C1156 C1157 1.349 . S
C1156 C1158 1.327 . S
C1156 H1181 0.950 . S
C1157 C1156 1.349 . S
C1157 C1173 1.349 . S
C1158 C1156 1.327 . S
C1158 C1177 1.429 . S
C1158 H1182 0.950 . S
C1159 C1176 1.574 . S
C1159 C1178 1.368 . S
C1159 H1183 0.949 . S
H1160 C1164 0.949 . S
C1161 C1162 1.349 . S
C1161 C1163 1.327 . S
C1161 H1184 0.950 . S
C1162 C1161 1.349 . S
C1162 C1174 1.349 . S
C1163 C1161 1.327 . S
C1163 C1179 1.429 . S
C1163 H1185 0.950 . S
C1164 H1160 0.949 . S
C1164 C1172 1.574 . S
C1164 C1180 1.368 . S
H1165 C1173 0.950 . S
H1166 C1171 0.950 . S
H1167 C1172 0.949 . S
H1168 C1174 0.950 . S
H1169 C1175 0.950 . S
H1170 C1176 0.949 . S
C1171 H1166 0.950 . S
C1171 C1173 1.327 . S
C1171 C1177 1.429 . S
C1172 C1164 1.574 . S
C1172 H1167 0.949 . S
C1172 C1178 1.368 . S
C1173 C1157 1.349 . S
C1173 H1165 0.950 . S
C1173 C1171 1.327 . S
C1174 C1162 1.349 . S
C1174 H1168 0.950 . S
C1174 C1175 1.327 . S
C1175 H1169 0.950 . S
C1175 C1174 1.327 . S
C1175 C1179 1.429 . S
C1176 C1159 1.574 . S
C1176 H1170 0.949 . S
C1176 C1180 1.368 . S
C1177 C1158 1.429 . S
C1177 C1171 1.429 . S
C1177 C1178 1.523 . S
C1178 C1159 1.368 . S
C1178 C1172 1.368 . S
C1178 C1177 1.523 . S
C1179 C1163 1.429 . S
C1179 C1175 1.429 . S
C1179 C1180 1.523 . S
C1180 C1164 1.368 . S
C1180 C1176 1.368 . S
C1180 C1179 1.523 . S
H1181 C1156 0.950 . S
H1182 C1158 0.950 . S
H1183 C1159 0.949 . S
H1184 C1161 0.950 . S
H1185 C1163 0.950 . S
C1186 C1187 1.349 . S
C1186 C1188 1.327 . S
C1186 H1211 0.950 . S
C1187 C1186 1.349 . S
C1187 C1203 1.349 . S
C1188 C1186 1.327 . S
C1188 C1207 1.429 . S
C1188 H1212 0.950 . S
C1189 C1206 1.574 . S
C1189 C1208 1.368 . S
C1189 H1213 0.949 . S
H1190 C1194 0.949 1_655 S
C1191 C1192 1.351 . S
C1191 C1193 1.306 1_565 S
C1191 H1214 0.969 . S
C1192 C1191 1.351 . S
C1192 C1204 1.349 1_565 S
C1193 C1191 1.306 1_545 S
C1193 C1209 1.429 . S
C1193 H1215 0.950 1_655 S
C1194 H1190 0.949 1_455 S
C1194 C1202 1.574 . S
C1194 C1210 1.368 . S
H1195 C1203 0.950 . S
H1196 C1201 0.950 . S
H1197 C1202 0.949 . S
H1198 C1204 0.950 . S
H1199 C1205 0.950 . S
H1200 C1206 0.949 . S
C1201 H1196 0.950 . S
C1201 C1203 1.327 . S
C1201 C1207 1.429 . S
C1202 C1194 1.574 . S
C1202 H1197 0.949 . S
C1202 C1208 1.368 . S
C1203 C1187 1.349 . S
C1203 H1195 0.950 . S
C1203 C1201 1.327 . S
C1204 C1192 1.349 1_545 S
C1204 H1198 0.950 . S
C1204 C1205 1.327 . S
C1205 H1199 0.950 . S
C1205 C1204 1.327 . S
C1205 C1209 1.429 . S
C1206 C1189 1.574 . S
C1206 H1200 0.949 . S
C1206 C1210 1.368 . S
C1207 C1188 1.429 . S
C1207 C1201 1.429 . S
C1207 C1208 1.523 . S
C1208 C1189 1.368 . S
C1208 C1202 1.368 . S
C1208 C1207 1.523 . S
C1209 C1193 1.429 . S
C1209 C1205 1.429 . S
C1209 C1210 1.523 1_655 S
C1210 C1194 1.368 . S
C1210 C1206 1.368 . S
C1210 C1209 1.523 1_455 S
H1211 C1186 0.950 . S
H1212 C1188 0.950 . S
H1213 C1189 0.949 . S
H1214 C1191 0.969 . S
H1215 C1193 0.950 1_455 S
C1216 C1217 1.349 . S
C1216 C1218 1.327 . S
C1216 H1241 0.950 . S
C1217 C1216 1.349 . S
C1217 C1233 1.349 . S
C1218 C1216 1.327 . S
C1218 C1237 1.429 . S
C1218 H1242 0.950 . S
C1219 C1236 1.574 . S
C1219 C1238 1.368 . S
C1219 H1243 0.949 . S
H1220 C1224 0.949 . S
C1221 C1222 1.349 . S
C1221 C1223 1.327 . S
C1221 H1244 0.950 . S
C1222 C1221 1.349 . S
C1222 C1234 1.349 . S
C1223 C1221 1.327 . S
C1223 C1239 1.429 . S
C1223 H1245 0.950 . S
C1224 H1220 0.949 . S
C1224 C1232 1.574 . S
C1224 C1240 1.368 . S
H1225 C1233 0.950 . S
H1226 C1231 0.950 . S
H1227 C1232 0.949 . S
H1228 C1234 0.950 . S
H1229 C1235 0.950 . S
H1230 C1236 0.949 . S
C1231 H1226 0.950 . S
C1231 C1233 1.327 . S
C1231 C1237 1.429 . S
C1232 C1224 1.574 . S
C1232 H1227 0.949 . S
C1232 C1238 1.368 . S
C1233 C1217 1.349 . S
C1233 H1225 0.950 . S
C1233 C1231 1.327 . S
C1234 C1222 1.349 . S
C1234 H1228 0.950 . S
C1234 C1235 1.327 . S
C1235 H1229 0.950 . S
C1235 C1234 1.327 . S
C1235 C1239 1.429 . S
C1236 C1219 1.574 . S
C1236 H1230 0.949 . S
C1236 C1240 1.368 . S
C1237 C1218 1.429 . S
C1237 C1231 1.429 . S
C1237 C1238 1.523 . S
C1238 C1219 1.368 . S
C1238 C1232 1.368 . S
C1238 C1237 1.523 . S
C1239 C1223 1.429 . S
C1239 C1235 1.429 . S
C1239 C1240 1.523 . S
C1240 C1224 1.368 . S
C1240 C1236 1.368 . S
C1240 C1239 1.523 . S
H1241 C1216 0.950 . S
H1242 C1218 0.950 . S
H1243 C1219 0.949 . S
H1244 C1221 0.950 . S
H1245 C1223 0.950 . S
C1246 C1247 1.349 . S
C1246 C1248 1.327 . S
C1246 H1271 0.950 . S
C1247 C1246 1.349 . S
C1247 C1263 1.349 . S
C1248 C1246 1.327 . S
C1248 C1267 1.429 . S
C1248 H1272 0.950 1_455 S
C1249 C1266 1.574 . S
C1249 C1268 1.368 . S
C1249 H1273 0.949 1_655 S
H1250 C1254 0.949 . S
C1251 C1252 1.349 . S
C1251 C1253 1.327 1_545 S
C1251 H1274 0.950 . S
C1252 C1251 1.349 . S
C1252 C1264 1.349 1_545 S
C1253 C1251 1.327 1_565 S
C1253 C1269 1.429 . S
C1253 H1275 0.950 . S
C1254 H1250 0.949 . S
C1254 C1262 1.574 . S
C1254 C1270 1.368 . S
H1255 C1263 0.950 . S
H1256 C1261 0.950 . S
H1257 C1262 0.949 . S
H1258 C1264 0.950 . S
H1259 C1265 0.950 . S
H1260 C1266 0.949 . S
C1261 H1256 0.950 . S
C1261 C1263 1.327 . S
C1261 C1267 1.429 . S
C1262 C1254 1.574 . S
C1262 H1257 0.949 . S
C1262 C1268 1.368 . S
C1263 C1247 1.349 . S
C1263 H1255 0.950 . S
C1263 C1261 1.327 . S
C1264 C1252 1.349 1_565 S
C1264 H1258 0.950 . S
C1264 C1265 1.327 . S
C1265 H1259 0.950 . S
C1265 C1264 1.327 . S
C1265 C1269 1.429 . S
C1266 C1249 1.574 . S
C1266 H1260 0.949 . S
C1266 C1270 1.368 . S
C1267 C1248 1.429 . S
C1267 C1261 1.429 . S
C1267 C1268 1.523 1_455 S
C1268 C1249 1.368 . S
C1268 C1262 1.368 . S
C1268 C1267 1.523 1_655 S
C1269 C1253 1.429 . S
C1269 C1265 1.429 . S
C1269 C1270 1.523 . S
C1270 C1254 1.368 . S
C1270 C1266 1.368 . S
C1270 C1269 1.523 . S
H1271 C1246 0.950 . S
H1272 C1248 0.950 1_655 S
H1273 C1249 0.949 1_455 S
H1274 C1251 0.950 . S
H1275 C1253 0.950 . S
C1276 C1277 1.349 . S
C1276 C1278 1.327 . S
C1276 H1301 0.950 . S
C1277 C1276 1.349 . S
C1277 C1293 1.349 . S
C1278 C1276 1.327 . S
C1278 C1297 1.429 . S
C1278 H1302 0.950 . S
C1279 C1296 1.574 . S
C1279 C1298 1.368 . S
C1279 H1303 0.949 . S
H1280 C1284 0.949 . S
C1281 C1282 1.349 1_565 S
C1281 C1283 1.327 . S
C1281 H1304 0.950 . S
C1282 C1281 1.349 1_545 S
C1282 C1294 1.351 . S
C1283 C1281 1.327 . S
C1283 C1299 1.429 . S
C1283 H1305 0.950 . S
C1284 H1280 0.949 . S
C1284 C1292 1.574 . S
C1284 C1300 1.368 . S
H1285 C1293 0.950 . S
H1286 C1291 0.950 . S
H1287 C1292 0.949 . S
H1288 C1294 0.963 . S
H1289 C1295 0.950 . S
H1290 C1296 0.949 . S
C1291 H1286 0.950 . S
C1291 C1293 1.327 . S
C1291 C1297 1.429 . S
C1292 C1284 1.574 . S
C1292 H1287 0.949 . S
C1292 C1298 1.368 . S
C1293 C1277 1.349 . S
C1293 H1285 0.950 . S
C1293 C1291 1.327 . S
C1294 C1282 1.351 . S
C1294 H1288 0.963 . S
C1294 C1295 1.312 1_545 S
C1295 H1289 0.950 . S
C1295 C1294 1.312 1_565 S
C1295 C1299 1.429 . S
C1296 C1279 1.574 . S
C1296 H1290 0.949 . S
C1296 C1300 1.368 . S
C1297 C1278 1.429 . S
C1297 C1291 1.429 . S
C1297 C1298 1.523 . S
C1298 C1279 1.368 . S
C1298 C1292 1.368 . S
C1298 C1297 1.523 . S
C1299 C1283 1.429 . S
C1299 C1295 1.429 . S
C1299 C1300 1.523 . S
C1300 C1284 1.368 . S
C1300 C1296 1.368 . S
C1300 C1299 1.523 . S
H1301 C1276 0.950 . S
H1302 C1278 0.950 . S
H1303 C1279 0.949 . S
H1304 C1281 0.950 . S
H1305 C1283 0.950 . S
C1306 C1307 1.349 . S
C1306 C1308 1.327 . S
C1306 H1331 0.950 . S
C1307 C1306 1.349 . S
C1307 C1323 1.349 . S
C1308 C1306 1.327 . S
C1308 C1327 1.429 . S
C1308 H1332 0.950 . S
C1309 C1326 1.574 . S
C1309 C1328 1.368 . S
C1309 H1333 0.949 . S
H1310 C1314 0.949 . S
C1311 C1312 1.349 . S
C1311 C1313 1.327 . S
C1311 H1334 0.950 . S
C1312 C1311 1.349 . S
C1312 C1324 1.349 . S
C1313 C1311 1.327 . S
C1313 C1329 1.429 . S
C1313 H1335 0.950 . S
C1314 H1310 0.949 . S
C1314 C1322 1.574 . S
C1314 C1330 1.368 . S
H1315 C1323 0.950 . S
H1316 C1321 0.950 1_655 S
H1317 C1322 0.949 1_455 S
H1318 C1324 0.950 . S
H1319 C1325 0.950 . S
H1320 C1326 0.949 . S
C1321 H1316 0.950 1_455 S
C1321 C1323 1.327 . S
C1321 C1327 1.429 . S
C1322 C1314 1.574 . S
C1322 H1317 0.949 1_655 S
C1322 C1328 1.368 . S
C1323 C1307 1.349 . S
C1323 H1315 0.950 . S
C1323 C1321 1.327 . S
C1324 C1312 1.349 . S
C1324 H1318 0.950 . S
C1324 C1325 1.327 . S
C1325 H1319 0.950 . S
C1325 C1324 1.327 . S
C1325 C1329 1.429 . S
C1326 C1309 1.574 . S
C1326 H1320 0.949 . S
C1326 C1330 1.368 . S
C1327 C1308 1.429 . S
C1327 C1321 1.429 . S
C1327 C1328 1.523 1_455 S
C1328 C1309 1.368 . S
C1328 C1322 1.368 . S
C1328 C1327 1.523 1_655 S
C1329 C1313 1.429 . S
C1329 C1325 1.429 . S
C1329 C1330 1.523 . S
C1330 C1314 1.368 . S
C1330 C1326 1.368 . S
C1330 C1329 1.523 . S
H1331 C1306 0.950 . S
H1332 C1308 0.950 . S
H1333 C1309 0.949 . S
H1334 C1311 0.950 . S
H1335 C1313 0.950 . S
C1336 C1337 1.349 . S
C1336 C1338 1.327 . S
C1336 H1361 0.950 . S
C1337 C1336 1.349 . S
C1337 C1353 1.349 . S
C1338 C1336 1.327 . S
C1338 C1357 1.429 . S
C1338 H1362 0.950 . S
C1339 C1356 1.574 . S
C1339 C1358 1.368 . S
C1339 H1363 0.949 . S
H1340 C1344 0.949 . S
C1341 C1342 1.349 . S
C1341 C1343 1.327 . S
C1341 H1364 0.950 . S
C1342 C1341 1.349 . S
C1342 C1354 1.349 . S
C1343 C1341 1.327 . S
C1343 C1359 1.429 . S
C1343 H1365 0.950 . S
C1344 H1340 0.949 . S
C1344 C1352 1.574 . S
C1344 C1360 1.368 . S
H1345 C1353 0.950 . S
H1346 C1351 0.950 . S
H1347 C1352 0.949 . S
H1348 C1354 0.950 . S
H1349 C1355 0.950 . S
H1350 C1356 0.949 . S
C1351 H1346 0.950 . S
C1351 C1353 1.327 . S
C1351 C1357 1.429 . S
C1352 C1344 1.574 . S
C1352 H1347 0.949 . S
C1352 C1358 1.368 . S
C1353 C1337 1.349 . S
C1353 H1345 0.950 . S
C1353 C1351 1.327 . S
C1354 C1342 1.349 . S
C1354 H1348 0.950 . S
C1354 C1355 1.327 . S
C1355 H1349 0.950 . S
C1355 C1354 1.327 . S
C1355 C1359 1.429 . S
C1356 C1339 1.574 . S
C1356 H1350 0.949 . S
C1356 C1360 1.368 . S
C1357 C1338 1.429 . S
C1357 C1351 1.429 . S
C1357 C1358 1.523 . S
C1358 C1339 1.368 . S
C1358 C1352 1.368 . S
C1358 C1357 1.523 . S
C1359 C1343 1.429 . S
C1359 C1355 1.429 . S
C1359 C1360 1.523 . S
C1360 C1344 1.368 . S
C1360 C1356 1.368 . S
C1360 C1359 1.523 . S
H1361 C1336 0.950 . S
H1362 C1338 0.950 . S
H1363 C1339 0.949 . S
H1364 C1341 0.950 . S
H1365 C1343 0.950 . S
C1366 C1367 1.349 . S
C1366 C1368 1.327 1_565 S
C1366 H1391 0.950 . S
C1367 C1366 1.349 . S
C1367 C1383 1.349 1_565 S
C1368 C1366 1.327 1_545 S
C1368 C1387 1.429 . S
C1368 H1392 0.950 . S
C1369 C1386 1.574 . S
C1369 C1388 1.368 . S
C1369 H1393 0.949 . S
H1370 C1374 0.949 1_655 S
C1371 C1372 1.349 . S
C1371 C1373 1.327 . S
C1371 H1394 0.950 . S
C1372 C1371 1.349 . S
C1372 C1384 1.349 . S
C1373 C1371 1.327 . S
C1373 C1389 1.429 . S
C1373 H1395 0.950 1_655 S
C1374 H1370 0.949 1_455 S
C1374 C1382 1.574 . S
C1374 C1390 1.368 . S
H1375 C1383 0.950 . S
H1376 C1381 0.950 . S
H1377 C1382 0.949 . S
H1378 C1384 0.950 . S
H1379 C1385 0.950 . S
H1380 C1386 0.949 . S
C1381 H1376 0.950 . S
C1381 C1383 1.327 . S
C1381 C1387 1.429 . S
C1382 C1374 1.574 . S
C1382 H1377 0.949 . S
C1382 C1388 1.368 . S
C1383 C1367 1.349 1_545 S
C1383 H1375 0.950 . S
C1383 C1381 1.327 . S
C1384 C1372 1.349 . S
C1384 H1378 0.950 . S
C1384 C1385 1.327 . S
C1385 H1379 0.950 . S
C1385 C1384 1.327 . S
C1385 C1389 1.429 . S
C1386 C1369 1.574 . S
C1386 H1380 0.949 . S
C1386 C1390 1.368 . S
C1387 C1368 1.429 . S
C1387 C1381 1.429 . S
C1387 C1388 1.523 . S
C1388 C1369 1.368 . S
C1388 C1382 1.368 . S
C1388 C1387 1.523 . S
C1389 C1373 1.429 . S
C1389 C1385 1.429 . S
C1389 C1390 1.523 1_655 S
C1390 C1374 1.368 . S
C1390 C1386 1.368 . S
C1390 C1389 1.523 1_455 S
H1391 C1366 0.950 . S
H1392 C1368 0.950 . S
H1393 C1369 0.949 . S
H1394 C1371 0.950 . S
H1395 C1373 0.950 1_455 S
C1396 C1397 1.350 . S
C1396 C1398 1.322 1_565 S
C1396 H1421 0.954 . S
C1397 C1396 1.350 . S
C1397 C1413 1.349 1_565 S
C1398 C1396 1.322 1_545 S
C1398 C1417 1.429 . S
C1398 H1422 0.950 . S
C1399 C1416 1.574 . S
C1399 C1418 1.368 . S
C1399 H1423 0.949 . S
H1400 C1404 0.949 . S
C1401 C1402 1.349 . S
C1401 C1403 1.327 . S
C1401 H1424 0.950 . S
C1402 C1401 1.349 . S
C1402 C1414 1.349 . S
C1403 C1401 1.327 . S
C1403 C1419 1.429 . S
C1403 H1425 0.950 . S
C1404 H1400 0.949 . S
C1404 C1412 1.574 . S
C1404 C1420 1.368 . S
H1405 C1413 0.950 . S
H1406 C1411 0.950 . S
H1407 C1412 0.949 . S
H1408 C1414 0.950 . S
H1409 C1415 0.950 . S
H1410 C1416 0.949 . S
C1411 H1406 0.950 . S
C1411 C1413 1.327 . S
C1411 C1417 1.429 . S
C1412 C1404 1.574 . S
C1412 H1407 0.949 . S
C1412 C1418 1.368 . S
C1413 C1397 1.349 1_545 S
C1413 H1405 0.950 . S
C1413 C1411 1.327 . S
C1414 C1402 1.349 . S
C1414 H1408 0.950 . S
C1414 C1415 1.327 . S
C1415 H1409 0.950 . S
C1415 C1414 1.327 . S
C1415 C1419 1.429 . S
C1416 C1399 1.574 . S
C1416 H1410 0.949 . S
C1416 C1420 1.368 . S
C1417 C1398 1.429 . S
C1417 C1411 1.429 . S
C1417 C1418 1.523 . S
C1418 C1399 1.368 . S
C1418 C1412 1.368 . S
C1418 C1417 1.523 . S
C1419 C1403 1.429 . S
C1419 C1415 1.429 . S
C1419 C1420 1.523 . S
C1420 C1404 1.368 . S
C1420 C1416 1.368 . S
C1420 C1419 1.523 . S
H1421 C1396 0.954 . S
H1422 C1398 0.950 . S
H1423 C1399 0.949 . S
H1424 C1401 0.950 . S
H1425 C1403 0.950 . S
C1426 C1427 1.349 . S
C1426 C1428 1.327 . S
C1426 H1451 0.950 . S
C1427 C1426 1.349 . S
C1427 C1443 1.349 . S
C1428 C1426 1.327 . S
C1428 C1447 1.429 . S
C1428 H1452 0.950 . S
C1429 C1446 1.574 . S
C1429 C1448 1.368 . S
C1429 H1453 0.949 . S
H1430 C1434 0.949 . S
C1431 C1432 1.349 . S
C1431 C1433 1.327 . S
C1431 H1454 0.950 . S
C1432 C1431 1.349 . S
C1432 C1444 1.349 . S
C1433 C1431 1.327 . S
C1433 C1449 1.429 . S
C1433 H1455 0.950 . S
C1434 H1430 0.949 . S
C1434 C1442 1.574 . S
C1434 C1450 1.368 . S
H1435 C1443 0.950 . S
H1436 C1441 0.950 1_455 S
H1437 C1442 0.949 1_655 S
H1438 C1444 0.950 . S
H1439 C1445 0.950 . S
H1440 C1446 0.949 . S
C1441 H1436 0.950 1_655 S
C1441 C1443 1.327 . S
C1441 C1447 1.429 . S
C1442 C1434 1.574 . S
C1442 H1437 0.949 1_455 S
C1442 C1448 1.368 . S
C1443 C1427 1.349 . S
C1443 H1435 0.950 . S
C1443 C1441 1.327 . S
C1444 C1432 1.349 . S
C1444 H1438 0.950 . S
C1444 C1445 1.327 . S
C1445 H1439 0.950 . S
C1445 C1444 1.327 . S
C1445 C1449 1.429 . S
C1446 C1429 1.574 . S
C1446 H1440 0.949 . S
C1446 C1450 1.368 . S
C1447 C1428 1.429 . S
C1447 C1441 1.429 . S
C1447 C1448 1.523 1_655 S
C1448 C1429 1.368 . S
C1448 C1442 1.368 . S
C1448 C1447 1.523 1_455 S
C1449 C1433 1.429 . S
C1449 C1445 1.429 . S
C1449 C1450 1.523 . S
C1450 C1434 1.368 . S
C1450 C1446 1.368 . S
C1450 C1449 1.523 . S
H1451 C1426 0.950 . S
H1452 C1428 0.950 . S
H1453 C1429 0.949 . S
H1454 C1431 0.950 . S
H1455 C1433 0.950 . S
C1456 C1457 1.349 . S
C1456 C1458 1.327 . S
C1456 H1481 0.950 . S
C1457 C1456 1.349 . S
C1457 C1473 1.349 . S
C1458 C1456 1.327 . S
C1458 C1477 1.429 . S
C1458 H1482 0.950 . S
C1459 C1476 1.574 . S
C1459 C1478 1.368 . S
C1459 H1483 0.949 . S
H1460 C1464 0.949 . S
C1461 C1462 1.349 . S
C1461 C1463 1.327 . S
C1461 H1484 0.950 . S
C1462 C1461 1.349 . S
C1462 C1474 1.349 . S
C1463 C1461 1.327 . S
C1463 C1479 1.429 . S
C1463 H1485 0.950 . S
C1464 H1460 0.949 . S
C1464 C1472 1.574 . S
C1464 C1480 1.368 . S
H1465 C1473 0.950 . S
H1466 C1471 0.950 . S
H1467 C1472 0.949 . S
H1468 C1474 0.950 . S
H1469 C1475 0.950 . S
H1470 C1476 0.949 . S
C1471 H1466 0.950 . S
C1471 C1473 1.327 . S
C1471 C1477 1.429 . S
C1472 C1464 1.574 . S
C1472 H1467 0.949 . S
C1472 C1478 1.368 . S
C1473 C1457 1.349 . S
C1473 H1465 0.950 . S
C1473 C1471 1.327 . S
C1474 C1462 1.349 . S
C1474 H1468 0.950 . S
C1474 C1475 1.327 . S
C1475 H1469 0.950 . S
C1475 C1474 1.327 . S
C1475 C1479 1.429 . S
C1476 C1459 1.574 . S
C1476 H1470 0.949 . S
C1476 C1480 1.368 . S
C1477 C1458 1.429 . S
C1477 C1471 1.429 . S
C1477 C1478 1.523 . S
C1478 C1459 1.368 . S
C1478 C1472 1.368 . S
C1478 C1477 1.523 . S
C1479 C1463 1.429 . S
C1479 C1475 1.429 . S
C1479 C1480 1.523 . S
C1480 C1464 1.368 . S
C1480 C1476 1.368 . S
C1480 C1479 1.523 . S
H1481 C1456 0.950 . S
H1482 C1458 0.950 . S
H1483 C1459 0.949 . S
H1484 C1461 0.950 . S
H1485 C1463 0.950 . S
C1486 C1487 1.349 . S
C1486 C1488 1.327 . S
C1486 H1511 0.950 . S
C1487 C1486 1.349 . S
C1487 C1503 1.349 . S
C1488 C1486 1.327 . S
C1488 C1507 1.429 . S
C1488 H1512 0.950 . S
C1489 C1506 1.574 . S
C1489 C1508 1.368 . S
C1489 H1513 0.949 . S
H1490 C1494 0.949 . S
C1491 C1492 1.349 . S
C1491 C1493 1.327 . S
C1491 H1514 0.950 . S
C1492 C1491 1.349 . S
C1492 C1504 1.349 . S
C1493 C1491 1.327 . S
C1493 C1509 1.429 . S
C1493 H1515 0.950 . S
C1494 H1490 0.949 . S
C1494 C1502 1.574 1_455 S
C1494 C1510 1.368 . S
H1495 C1503 0.950 . S
H1496 C1501 0.950 . S
H1497 C1502 0.949 . S
H1498 C1504 0.950 . S
H1499 C1505 0.950 . S
H1500 C1506 0.949 . S
C1501 H1496 0.950 . S
C1501 C1503 1.327 . S
C1501 C1507 1.429 . S
C1502 C1494 1.574 1_655 S
C1502 H1497 0.949 . S
C1502 C1508 1.368 . S
C1503 C1487 1.349 . S
C1503 H1495 0.950 . S
C1503 C1501 1.327 . S
C1504 C1492 1.349 . S
C1504 H1498 0.950 . S
C1504 C1505 1.327 . S
C1505 H1499 0.950 . S
C1505 C1504 1.327 . S
C1505 C1509 1.429 . S
C1506 C1489 1.574 . S
C1506 H1500 0.949 . S
C1506 C1510 1.368 1_655 S
C1507 C1488 1.429 . S
C1507 C1501 1.429 . S
C1507 C1508 1.523 . S
C1508 C1489 1.368 . S
C1508 C1502 1.368 . S
C1508 C1507 1.523 . S
C1509 C1493 1.429 . S
C1509 C1505 1.429 . S
C1509 C1510 1.523 . S
C1510 C1494 1.368 . S
C1510 C1506 1.368 1_455 S
C1510 C1509 1.523 . S
H1511 C1486 0.950 . S
H1512 C1488 0.950 . S
H1513 C1489 0.949 . S
H1514 C1491 0.950 . S
H1515 C1493 0.950 . S
C1516 C1517 1.349 . S
C1516 C1518 1.327 . S
C1516 H1541 0.950 . S
C1517 C1516 1.349 . S
C1517 C1533 1.349 . S
C1518 C1516 1.327 . S
C1518 C1537 1.429 . S
C1518 H1542 0.950 . S
C1519 C1536 1.574 . S
C1519 C1538 1.368 . S
C1519 H1543 0.949 . S
H1520 C1524 0.949 . S
C1521 C1522 1.349 . S
C1521 C1523 1.327 . S
C1521 H1544 0.950 . S
C1522 C1521 1.349 . S
C1522 C1534 1.349 . S
C1523 C1521 1.327 . S
C1523 C1539 1.429 . S
C1523 H1545 0.950 . S
C1524 H1520 0.949 . S
C1524 C1532 1.574 . S
C1524 C1540 1.368 . S
H1525 C1533 0.950 . S
H1526 C1531 0.950 . S
H1527 C1532 0.949 . S
H1528 C1534 0.950 . S
H1529 C1535 0.950 . S
H1530 C1536 0.949 . S
C1531 H1526 0.950 . S
C1531 C1533 1.327 . S
C1531 C1537 1.429 . S
C1532 C1524 1.574 . S
C1532 H1527 0.949 . S
C1532 C1538 1.368 . S
C1533 C1517 1.349 . S
C1533 H1525 0.950 . S
C1533 C1531 1.327 . S
C1534 C1522 1.349 . S
C1534 H1528 0.950 . S
C1534 C1535 1.327 . S
C1535 H1529 0.950 . S
C1535 C1534 1.327 . S
C1535 C1539 1.429 . S
C1536 C1519 1.574 . S
C1536 H1530 0.949 . S
C1536 C1540 1.368 . S
C1537 C1518 1.429 . S
C1537 C1531 1.429 . S
C1537 C1538 1.523 . S
C1538 C1519 1.368 . S
C1538 C1532 1.368 . S
C1538 C1537 1.523 . S
C1539 C1523 1.429 . S
C1539 C1535 1.429 . S
C1539 C1540 1.523 . S
C1540 C1524 1.368 . S
C1540 C1536 1.368 . S
C1540 C1539 1.523 . S
H1541 C1516 0.950 . S
H1542 C1518 0.950 . S
H1543 C1519 0.949 . S
H1544 C1521 0.950 . S
H1545 C1523 0.950 . S
C1546 C1547 1.349 . S
C1546 C1548 1.327 . S
C1546 H1571 0.950 . S
C1547 C1546 1.349 . S
C1547 C1563 1.349 . S
C1548 C1546 1.327 . S
C1548 C1567 1.429 . S
C1548 H1572 0.950 . S
C1549 C1566 1.574 1_655 S
C1549 C1568 1.368 . S
C1549 H1573 0.949 . S
H1550 C1554 0.949 . S
C1551 C1552 1.349 . S
C1551 C1553 1.327 . S
C1551 H1574 0.950 . S
C1552 C1551 1.349 . S
C1552 C1564 1.349 . S
C1553 C1551 1.327 . S
C1553 C1569 1.429 . S
C1553 H1575 0.950 . S
C1554 H1550 0.949 . S
C1554 C1562 1.574 . S
C1554 C1570 1.368 1_655 S
H1555 C1563 0.950 . S
H1556 C1561 0.950 . S
H1557 C1562 0.949 . S
H1558 C1564 0.950 . S
H1559 C1565 0.950 . S
H1560 C1566 0.949 . S
C1561 H1556 0.950 . S
C1561 C1563 1.327 . S
C1561 C1567 1.429 . S
C1562 C1554 1.574 . S
C1562 H1557 0.949 . S
C1562 C1568 1.368 . S
C1563 C1547 1.349 . S
C1563 H1555 0.950 . S
C1563 C1561 1.327 . S
C1564 C1552 1.349 . S
C1564 H1558 0.950 . S
C1564 C1565 1.327 . S
C1565 H1559 0.950 . S
C1565 C1564 1.327 . S
C1565 C1569 1.429 . S
C1566 C1549 1.574 1_455 S
C1566 H1560 0.949 . S
C1566 C1570 1.368 . S
C1567 C1548 1.429 . S
C1567 C1561 1.429 . S
C1567 C1568 1.523 . S
C1568 C1549 1.368 . S
C1568 C1562 1.368 . S
C1568 C1567 1.523 . S
C1569 C1553 1.429 . S
C1569 C1565 1.429 . S
C1569 C1570 1.523 . S
C1570 C1554 1.368 1_455 S
C1570 C1566 1.368 . S
C1570 C1569 1.523 . S
H1571 C1546 0.950 . S
H1572 C1548 0.950 . S
H1573 C1549 0.949 . S
H1574 C1551 0.950 . S
H1575 C1553 0.950 . S
C1576 C1577 1.349 . S
C1576 C1578 1.327 . S
C1576 H1601 0.950 . S
C1577 C1576 1.349 . S
C1577 C1593 1.349 . S
C1578 C1576 1.327 . S
C1578 C1597 1.429 . S
C1578 H1602 0.950 . S
C1579 C1596 1.574 . S
C1579 C1598 1.368 . S
C1579 H1603 0.949 . S
H1580 C1584 0.949 . S
C1581 C1582 1.349 . S
C1581 C1583 1.327 . S
C1581 H1604 0.950 . S
C1582 C1581 1.349 . S
C1582 C1594 1.349 . S
C1583 C1581 1.327 . S
C1583 C1599 1.429 . S
C1583 H1605 0.950 . S
C1584 H1580 0.949 . S
C1584 C1592 1.574 . S
C1584 C1600 1.368 . S
H1585 C1593 0.950 . S
H1586 C1591 0.950 . S
H1587 C1592 0.949 . S
H1588 C1594 0.950 . S
H1589 C1595 0.950 . S
H1590 C1596 0.949 . S
C1591 H1586 0.950 . S
C1591 C1593 1.327 . S
C1591 C1597 1.429 . S
C1592 C1584 1.574 . S
C1592 H1587 0.949 . S
C1592 C1598 1.368 . S
C1593 C1577 1.349 . S
C1593 H1585 0.950 . S
C1593 C1591 1.327 . S
C1594 C1582 1.349 . S
C1594 H1588 0.950 . S
C1594 C1595 1.327 . S
C1595 H1589 0.950 . S
C1595 C1594 1.327 . S
C1595 C1599 1.429 . S
C1596 C1579 1.574 . S
C1596 H1590 0.949 . S
C1596 C1600 1.368 . S
C1597 C1578 1.429 . S
C1597 C1591 1.429 . S
C1597 C1598 1.523 . S
C1598 C1579 1.368 . S
C1598 C1592 1.368 . S
C1598 C1597 1.523 . S
C1599 C1583 1.429 . S
C1599 C1595 1.429 . S
C1599 C1600 1.523 . S
C1600 C1584 1.368 . S
C1600 C1596 1.368 . S
C1600 C1599 1.523 . S
H1601 C1576 0.950 . S
H1602 C1578 0.950 . S
H1603 C1579 0.949 . S
H1604 C1581 0.950 . S
H1605 C1583 0.950 . S
C1606 C1607 1.349 . S
C1606 C1608 1.327 . S
C1606 H1631 0.950 . S
C1607 C1606 1.349 . S
C1607 C1623 1.349 . S
C1608 C1606 1.327 . S
C1608 C1627 1.429 . S
C1608 H1632 0.950 . S
C1609 C1626 1.574 . S
C1609 C1628 1.368 1_455 S
C1609 H1633 0.949 . S
H1610 C1614 0.949 . S
C1611 C1612 1.349 . S
C1611 C1613 1.327 . S
C1611 H1634 0.950 . S
C1612 C1611 1.349 . S
C1612 C1624 1.349 . S
C1613 C1611 1.327 . S
C1613 C1629 1.429 . S
C1613 H1635 0.950 . S
C1614 H1610 0.949 . S
C1614 C1622 1.574 1_455 S
C1614 C1630 1.368 . S
H1615 C1623 0.950 . S
H1616 C1621 0.950 . S
H1617 C1622 0.949 . S
H1618 C1624 0.950 . S
H1619 C1625 0.950 . S
H1620 C1626 0.949 . S
C1621 H1616 0.950 . S
C1621 C1623 1.327 . S
C1621 C1627 1.429 . S
C1622 C1614 1.574 1_655 S
C1622 H1617 0.949 . S
C1622 C1628 1.368 . S
C1623 C1607 1.349 . S
C1623 H1615 0.950 . S
C1623 C1621 1.327 . S
C1624 C1612 1.349 . S
C1624 H1618 0.950 . S
C1624 C1625 1.327 . S
C1625 H1619 0.950 . S
C1625 C1624 1.327 . S
C1625 C1629 1.429 . S
C1626 C1609 1.574 . S
C1626 H1620 0.949 . S
C1626 C1630 1.368 . S
C1627 C1608 1.429 . S
C1627 C1621 1.429 . S
C1627 C1628 1.523 . S
C1628 C1609 1.368 1_655 S
C1628 C1622 1.368 . S
C1628 C1627 1.523 . S
C1629 C1613 1.429 . S
C1629 C1625 1.429 . S
C1629 C1630 1.523 . S
C1630 C1614 1.368 . S
C1630 C1626 1.368 . S
C1630 C1629 1.523 . S
H1631 C1606 0.950 . S
H1632 C1608 0.950 . S
H1633 C1609 0.949 . S
H1634 C1611 0.950 . S
H1635 C1613 0.950 . S
C1636 C1637 1.349 . S
C1636 C1638 1.327 . S
C1636 H1661 0.950 . S
C1637 C1636 1.349 . S
C1637 C1653 1.349 . S
C1638 C1636 1.327 . S
C1638 C1657 1.429 . S
C1638 H1662 0.950 . S
C1639 C1656 1.574 . S
C1639 C1658 1.368 . S
C1639 H1663 0.949 . S
H1640 C1644 0.949 . S
C1641 C1642 1.349 . S
C1641 C1643 1.327 . S
C1641 H1664 0.950 . S
C1642 C1641 1.349 . S
C1642 C1654 1.349 . S
C1643 C1641 1.327 . S
C1643 C1659 1.429 . S
C1643 H1665 0.950 . S
C1644 H1640 0.949 . S
C1644 C1652 1.574 . S
C1644 C1660 1.368 . S
H1645 C1653 0.950 . S
H1646 C1651 0.950 . S
H1647 C1652 0.949 . S
H1648 C1654 0.950 . S
H1649 C1655 0.950 . S
H1650 C1656 0.949 . S
C1651 H1646 0.950 . S
C1651 C1653 1.327 . S
C1651 C1657 1.429 . S
C1652 C1644 1.574 . S
C1652 H1647 0.949 . S
C1652 C1658 1.368 . S
C1653 C1637 1.349 . S
C1653 H1645 0.950 . S
C1653 C1651 1.327 . S
C1654 C1642 1.349 . S
C1654 H1648 0.950 . S
C1654 C1655 1.327 . S
C1655 H1649 0.950 . S
C1655 C1654 1.327 . S
C1655 C1659 1.429 . S
C1656 C1639 1.574 . S
C1656 H1650 0.949 . S
C1656 C1660 1.368 . S
C1657 C1638 1.429 . S
C1657 C1651 1.429 . S
C1657 C1658 1.523 . S
C1658 C1639 1.368 . S
C1658 C1652 1.368 . S
C1658 C1657 1.523 . S
C1659 C1643 1.429 . S
C1659 C1655 1.429 . S
C1659 C1660 1.523 . S
C1660 C1644 1.368 . S
C1660 C1656 1.368 . S
C1660 C1659 1.523 . S
H1661 C1636 0.950 . S
H1662 C1638 0.950 . S
H1663 C1639 0.949 . S
H1664 C1641 0.950 . S
H1665 C1643 0.950 . S
C1666 C1667 1.349 . S
C1666 C1668 1.327 . S
C1666 H1691 0.950 . S
C1667 C1666 1.349 . S
C1667 C1683 1.349 . S
C1668 C1666 1.327 . S
C1668 C1687 1.429 . S
C1668 H1692 0.950 . S
C1669 C1686 1.574 1_655 S
C1669 C1688 1.368 . S
C1669 H1693 0.949 . S
H1670 C1674 0.949 . S
C1671 C1672 1.349 . S
C1671 C1673 1.327 . S
C1671 H1694 0.950 . S
C1672 C1671 1.349 . S
C1672 C1684 1.349 . S
C1673 C1671 1.327 . S
C1673 C1689 1.429 . S
C1673 H1695 0.950 . S
C1674 H1670 0.949 . S
C1674 C1682 1.574 . S
C1674 C1690 1.368 . S
H1675 C1683 0.950 . S
H1676 C1681 0.950 . S
H1677 C1682 0.949 . S
H1678 C1684 0.950 . S
H1679 C1685 0.950 . S
H1680 C1686 0.949 . S
C1681 H1676 0.950 . S
C1681 C1683 1.327 . S
C1681 C1687 1.429 . S
C1682 C1674 1.574 . S
C1682 H1677 0.949 . S
C1682 C1688 1.368 1_455 S
C1683 C1667 1.349 . S
C1683 H1675 0.950 . S
C1683 C1681 1.327 . S
C1684 C1672 1.349 . S
C1684 H1678 0.950 . S
C1684 C1685 1.327 . S
C1685 H1679 0.950 . S
C1685 C1684 1.327 . S
C1685 C1689 1.429 . S
C1686 C1669 1.574 1_455 S
C1686 H1680 0.949 . S
C1686 C1690 1.368 . S
C1687 C1668 1.429 . S
C1687 C1681 1.429 . S
C1687 C1688 1.523 . S
C1688 C1669 1.368 . S
C1688 C1682 1.368 1_655 S
C1688 C1687 1.523 . S
C1689 C1673 1.429 . S
C1689 C1685 1.429 . S
C1689 C1690 1.523 . S
C1690 C1674 1.368 . S
C1690 C1686 1.368 . S
C1690 C1689 1.523 . S
H1691 C1666 0.950 . S
H1692 C1668 0.950 . S
H1693 C1669 0.949 . S
H1694 C1671 0.950 . S
H1695 C1673 0.950 . S
C1696 C1697 1.349 . S
C1696 C1698 1.327 . S
C1696 H1721 0.950 . S
C1697 C1696 1.349 . S
C1697 C1713 1.349 . S
C1698 C1696 1.327 . S
C1698 C1717 1.429 . S
C1698 H1722 0.950 . S
C1699 C1716 1.574 . S
C1699 C1718 1.368 . S
C1699 H1723 0.949 . S
H1700 C1704 0.949 . S
C1701 C1702 1.349 . S
C1701 C1703 1.327 . S
C1701 H1724 0.950 . S
C1702 C1701 1.349 . S
C1702 C1714 1.349 . S
C1703 C1701 1.327 . S
C1703 C1719 1.429 . S
C1703 H1725 0.950 . S
C1704 H1700 0.949 . S
C1704 C1712 1.574 . S
C1704 C1720 1.368 . S
H1705 C1713 0.950 . S
H1706 C1711 0.950 . S
H1707 C1712 0.949 . S
H1708 C1714 0.950 . S
H1709 C1715 0.950 . S
H1710 C1716 0.949 . S
C1711 H1706 0.950 . S
C1711 C1713 1.327 . S
C1711 C1717 1.429 . S
C1712 C1704 1.574 . S
C1712 H1707 0.949 . S
C1712 C1718 1.368 . S
C1713 C1697 1.349 . S
C1713 H1705 0.950 . S
C1713 C1711 1.327 . S
C1714 C1702 1.349 . S
C1714 H1708 0.950 . S
C1714 C1715 1.327 . S
C1715 H1709 0.950 . S
C1715 C1714 1.327 . S
C1715 C1719 1.429 . S
C1716 C1699 1.574 . S
C1716 H1710 0.949 . S
C1716 C1720 1.368 . S
C1717 C1698 1.429 . S
C1717 C1711 1.429 . S
C1717 C1718 1.523 . S
C1718 C1699 1.368 . S
C1718 C1712 1.368 . S
C1718 C1717 1.523 . S
C1719 C1703 1.429 . S
C1719 C1715 1.429 . S
C1719 C1720 1.523 . S
C1720 C1704 1.368 . S
C1720 C1716 1.368 . S
C1720 C1719 1.523 . S
H1721 C1696 0.950 . S
H1722 C1698 0.950 . S
H1723 C1699 0.949 . S
H1724 C1701 0.950 . S
H1725 C1703 0.950 . S
C1726 C1727 1.349 . S
C1726 C1728 1.327 . S
C1726 H1751 0.950 . S
C1727 C1726 1.349 . S
C1727 C1743 1.349 . S
C1728 C1726 1.327 . S
C1728 C1747 1.429 . S
C1728 H1752 0.950 . S
C1729 C1746 1.574 . S
C1729 C1748 1.368 1_655 S
C1729 H1753 0.949 . S
H1730 C1734 0.949 . S
C1731 C1732 1.349 . S
C1731 C1733 1.327 . S
C1731 H1754 0.950 . S
C1732 C1731 1.349 . S
C1732 C1744 1.349 . S
C1733 C1731 1.327 . S
C1733 C1749 1.429 . S
C1733 H1755 0.950 . S
C1734 H1730 0.949 . S
C1734 C1742 1.574 1_655 S
C1734 C1750 1.368 . S
H1735 C1743 0.950 . S
H1736 C1741 0.950 . S
H1737 C1742 0.949 . S
H1738 C1744 0.950 . S
H1739 C1745 0.950 . S
H1740 C1746 0.949 . S
C1741 H1736 0.950 . S
C1741 C1743 1.327 . S
C1741 C1747 1.429 . S
C1742 C1734 1.574 1_455 S
C1742 H1737 0.949 . S
C1742 C1748 1.368 . S
C1743 C1727 1.349 . S
C1743 H1735 0.950 . S
C1743 C1741 1.327 . S
C1744 C1732 1.349 . S
C1744 H1738 0.950 . S
C1744 C1745 1.327 . S
C1745 H1739 0.950 . S
C1745 C1744 1.327 . S
C1745 C1749 1.429 . S
C1746 C1729 1.574 . S
C1746 H1740 0.949 . S
C1746 C1750 1.368 . S
C1747 C1728 1.429 . S
C1747 C1741 1.429 . S
C1747 C1748 1.523 . S
C1748 C1729 1.368 1_455 S
C1748 C1742 1.368 . S
C1748 C1747 1.523 . S
C1749 C1733 1.429 . S
C1749 C1745 1.429 . S
C1749 C1750 1.523 . S
C1750 C1734 1.368 . S
C1750 C1746 1.368 . S
C1750 C1749 1.523 . S
H1751 C1726 0.950 . S
H1752 C1728 0.950 . S
H1753 C1729 0.949 . S
H1754 C1731 0.950 . S
H1755 C1733 0.950 . S
C1756 C1757 1.349 . S
C1756 C1758 1.327 . S
C1756 H1781 0.950 . S
C1757 C1756 1.349 . S
C1757 C1773 1.349 . S
C1758 C1756 1.327 . S
C1758 C1777 1.429 . S
C1758 H1782 0.950 . S
C1759 C1776 1.574 . S
C1759 C1778 1.368 . S
C1759 H1783 0.949 . S
H1760 C1764 0.949 . S
C1761 C1762 1.349 . S
C1761 C1763 1.327 . S
C1761 H1784 0.950 . S
C1762 C1761 1.349 . S
C1762 C1774 1.349 . S
C1763 C1761 1.327 . S
C1763 C1779 1.429 . S
C1763 H1785 0.950 . S
C1764 H1760 0.949 . S
C1764 C1772 1.574 . S
C1764 C1780 1.368 . S
H1765 C1773 0.950 . S
H1766 C1771 0.950 . S
H1767 C1772 0.949 . S
H1768 C1774 0.950 . S
H1769 C1775 0.950 . S
H1770 C1776 0.949 . S
C1771 H1766 0.950 . S
C1771 C1773 1.327 . S
C1771 C1777 1.429 . S
C1772 C1764 1.574 . S
C1772 H1767 0.949 . S
C1772 C1778 1.368 . S
C1773 C1757 1.349 . S
C1773 H1765 0.950 . S
C1773 C1771 1.327 . S
C1774 C1762 1.349 . S
C1774 H1768 0.950 . S
C1774 C1775 1.327 . S
C1775 H1769 0.950 . S
C1775 C1774 1.327 . S
C1775 C1779 1.429 . S
C1776 C1759 1.574 . S
C1776 H1770 0.949 . S
C1776 C1780 1.368 . S
C1777 C1758 1.429 . S
C1777 C1771 1.429 . S
C1777 C1778 1.523 . S
C1778 C1759 1.368 . S
C1778 C1772 1.368 . S
C1778 C1777 1.523 . S
C1779 C1763 1.429 . S
C1779 C1775 1.429 . S
C1779 C1780 1.523 . S
C1780 C1764 1.368 . S
C1780 C1776 1.368 . S
C1780 C1779 1.523 . S
H1781 C1756 0.950 . S
H1782 C1758 0.950 . S
H1783 C1759 0.949 . S
H1784 C1761 0.950 . S
H1785 C1763 0.950 . S
C1786 C1787 1.349 . S
C1786 C1788 1.327 . S
C1786 H1811 0.950 . S
C1787 C1786 1.349 . S
C1787 C1803 1.349 . S
C1788 C1786 1.327 . S
C1788 C1807 1.429 . S
C1788 H1812 0.950 . S
C1789 C1806 1.574 . S
C1789 C1808 1.368 . S
C1789 H1813 0.949 . S
H1790 C1794 0.949 . S
C1791 C1792 1.349 . S
C1791 C1793 1.327 . S
C1791 H1814 0.950 . S
C1792 C1791 1.349 . S
C1792 C1804 1.349 . S
C1793 C1791 1.327 . S
C1793 C1809 1.429 . S
C1793 H1815 0.950 . S
C1794 H1790 0.949 . S
C1794 C1802 1.574 1_455 S
C1794 C1810 1.368 . S
H1795 C1803 0.950 . S
H1796 C1801 0.950 . S
H1797 C1802 0.949 . S
H1798 C1804 0.950 . S
H1799 C1805 0.950 . S
H1800 C1806 0.949 . S
C1801 H1796 0.950 . S
C1801 C1803 1.327 . S
C1801 C1807 1.429 . S
C1802 C1794 1.574 1_655 S
C1802 H1797 0.949 . S
C1802 C1808 1.368 . S
C1803 C1787 1.349 . S
C1803 H1795 0.950 . S
C1803 C1801 1.327 . S
C1804 C1792 1.349 . S
C1804 H1798 0.950 . S
C1804 C1805 1.327 . S
C1805 H1799 0.950 . S
C1805 C1804 1.327 . S
C1805 C1809 1.429 . S
C1806 C1789 1.574 . S
C1806 H1800 0.949 . S
C1806 C1810 1.368 1_655 S
C1807 C1788 1.429 . S
C1807 C1801 1.429 . S
C1807 C1808 1.523 . S
C1808 C1789 1.368 . S
C1808 C1802 1.368 . S
C1808 C1807 1.523 . S
C1809 C1793 1.429 . S
C1809 C1805 1.429 . S
C1809 C1810 1.523 . S
C1810 C1794 1.368 . S
C1810 C1806 1.368 1_455 S
C1810 C1809 1.523 . S
H1811 C1786 0.950 . S
H1812 C1788 0.950 . S
H1813 C1789 0.949 . S
H1814 C1791 0.950 . S
H1815 C1793 0.950 . S
C1816 C1817 1.349 . S
C1816 C1818 1.327 . S
C1816 H1841 0.950 . S
C1817 C1816 1.349 . S
C1817 C1833 1.349 . S
C1818 C1816 1.327 . S
C1818 C1837 1.429 . S
C1818 H1842 0.950 . S
C1819 C1836 1.574 . S
C1819 C1838 1.368 . S
C1819 H1843 0.949 . S
H1820 C1824 0.949 . S
C1821 C1822 1.349 . S
C1821 C1823 1.327 . S
C1821 H1844 0.950 . S
C1822 C1821 1.349 . S
C1822 C1834 1.349 . S
C1823 C1821 1.327 . S
C1823 C1839 1.429 . S
C1823 H1845 0.950 . S
C1824 H1820 0.949 . S
C1824 C1832 1.574 . S
C1824 C1840 1.368 . S
H1825 C1833 0.950 . S
H1826 C1831 0.950 . S
H1827 C1832 0.949 . S
H1828 C1834 0.950 . S
H1829 C1835 0.950 . S
H1830 C1836 0.949 . S
C1831 H1826 0.950 . S
C1831 C1833 1.327 . S
C1831 C1837 1.429 . S
C1832 C1824 1.574 . S
C1832 H1827 0.949 . S
C1832 C1838 1.368 . S
C1833 C1817 1.349 . S
C1833 H1825 0.950 . S
C1833 C1831 1.327 . S
C1834 C1822 1.349 . S
C1834 H1828 0.950 . S
C1834 C1835 1.327 . S
C1835 H1829 0.950 . S
C1835 C1834 1.327 . S
C1835 C1839 1.429 . S
C1836 C1819 1.574 . S
C1836 H1830 0.949 . S
C1836 C1840 1.368 . S
C1837 C1818 1.429 . S
C1837 C1831 1.429 . S
C1837 C1838 1.523 . S
C1838 C1819 1.368 . S
C1838 C1832 1.368 . S
C1838 C1837 1.523 . S
C1839 C1823 1.429 . S
C1839 C1835 1.429 . S
C1839 C1840 1.523 . S
C1840 C1824 1.368 . S
C1840 C1836 1.368 . S
C1840 C1839 1.523 . S
H1841 C1816 0.950 . S
H1842 C1818 0.950 . S
H1843 C1819 0.949 . S
H1844 C1821 0.950 . S
H1845 C1823 0.950 . S
C1846 C1847 1.349 . S
C1846 C1848 1.327 . S
C1846 H1871 0.950 . S
C1847 C1846 1.349 . S
C1847 C1863 1.349 . S
C1848 C1846 1.327 . S
C1848 C1867 1.429 . S
C1848 H1872 0.950 . S
C1849 C1866 1.574 . S
C1849 C1868 1.368 . S
C1849 H1873 0.949 . S
H1850 C1854 0.949 . S
C1851 C1852 1.349 . S
C1851 C1853 1.327 . S
C1851 H1874 0.950 . S
C1852 C1851 1.349 . S
C1852 C1864 1.349 . S
C1853 C1851 1.327 . S
C1853 C1869 1.429 . S
C1853 H1875 0.950 . S
C1854 H1850 0.949 . S
C1854 C1862 1.574 1_655 S
C1854 C1870 1.368 . S
H1855 C1863 0.950 . S
H1856 C1861 0.950 . S
H1857 C1862 0.949 . S
H1858 C1864 0.950 . S
H1859 C1865 0.950 . S
H1860 C1866 0.949 . S
C1861 H1856 0.950 . S
C1861 C1863 1.327 . S
C1861 C1867 1.429 . S
C1862 C1854 1.574 1_455 S
C1862 H1857 0.949 . S
C1862 C1868 1.368 . S
C1863 C1847 1.349 . S
C1863 H1855 0.950 . S
C1863 C1861 1.327 . S
C1864 C1852 1.349 . S
C1864 H1858 0.950 . S
C1864 C1865 1.327 . S
C1865 H1859 0.950 . S
C1865 C1864 1.327 . S
C1865 C1869 1.429 . S
C1866 C1849 1.574 . S
C1866 H1860 0.949 . S
C1866 C1870 1.368 1_455 S
C1867 C1848 1.429 . S
C1867 C1861 1.429 . S
C1867 C1868 1.523 . S
C1868 C1849 1.368 . S
C1868 C1862 1.368 . S
C1868 C1867 1.523 . S
C1869 C1853 1.429 . S
C1869 C1865 1.429 . S
C1869 C1870 1.523 . S
C1870 C1854 1.368 . S
C1870 C1866 1.368 1_655 S
C1870 C1869 1.523 . S
H1871 C1846 0.950 . S
H1872 C1848 0.950 . S
H1873 C1849 0.949 . S
H1874 C1851 0.950 . S
H1875 C1853 0.950 . S
C1876 C1877 1.349 . S
C1876 C1878 1.327 . S
C1876 H1901 0.950 . S
C1877 C1876 1.349 . S
C1877 C1893 1.349 . S
C1878 C1876 1.327 . S
C1878 C1897 1.429 . S
C1878 H1902 0.950 . S
C1879 C1896 1.574 . S
C1879 C1898 1.368 . S
C1879 H1903 0.949 . S
H1880 C1884 0.949 . S
C1881 C1882 1.349 . S
C1881 C1883 1.327 . S
C1881 H1904 0.950 . S
C1882 C1881 1.349 . S
C1882 C1894 1.349 . S
C1883 C1881 1.327 . S
C1883 C1899 1.429 . S
C1883 H1905 0.950 . S
C1884 H1880 0.949 . S
C1884 C1892 1.574 . S
C1884 C1900 1.368 . S
H1885 C1893 0.950 . S
H1886 C1891 0.950 . S
H1887 C1892 0.949 . S
H1888 C1894 0.950 . S
H1889 C1895 0.950 . S
H1890 C1896 0.949 . S
C1891 H1886 0.950 . S
C1891 C1893 1.327 . S
C1891 C1897 1.429 . S
C1892 C1884 1.574 . S
C1892 H1887 0.949 . S
C1892 C1898 1.368 . S
C1893 C1877 1.349 . S
C1893 H1885 0.950 . S
C1893 C1891 1.327 . S
C1894 C1882 1.349 . S
C1894 H1888 0.950 . S
C1894 C1895 1.327 . S
C1895 H1889 0.950 . S
C1895 C1894 1.327 . S
C1895 C1899 1.429 . S
C1896 C1879 1.574 . S
C1896 H1890 0.949 . S
C1896 C1900 1.368 . S
C1897 C1878 1.429 . S
C1897 C1891 1.429 . S
C1897 C1898 1.523 . S
C1898 C1879 1.368 . S
C1898 C1892 1.368 . S
C1898 C1897 1.523 . S
C1899 C1883 1.429 . S
C1899 C1895 1.429 . S
C1899 C1900 1.523 . S
C1900 C1884 1.368 . S
C1900 C1896 1.368 . S
C1900 C1899 1.523 . S
H1901 C1876 0.950 . S
H1902 C1878 0.950 . S
H1903 C1879 0.949 . S
H1904 C1881 0.950 . S
H1905 C1883 0.950 . S
C1906 C1907 1.349 . S
C1906 C1908 1.327 . S
C1906 H1931 0.950 . S
C1907 C1906 1.349 . S
C1907 C1923 1.349 . S
C1908 C1906 1.327 . S
C1908 C1927 1.429 . S
C1908 H1932 0.950 . S
C1909 C1926 1.574 1_455 S
C1909 C1928 1.368 . S
C1909 H1933 0.949 . S
H1910 C1914 0.949 . S
C1911 C1912 1.349 . S
C1911 C1913 1.327 . S
C1911 H1934 0.950 . S
C1912 C1911 1.349 . S
C1912 C1924 1.349 . S
C1913 C1911 1.327 . S
C1913 C1929 1.429 . S
C1913 H1935 0.950 . S
C1914 H1910 0.949 . S
C1914 C1922 1.574 . S
C1914 C1930 1.368 1_455 S
H1915 C1923 0.950 . S
H1916 C1921 0.950 . S
H1917 C1922 0.949 . S
H1918 C1924 0.950 . S
H1919 C1925 0.950 . S
H1920 C1926 0.949 . S
C1921 H1916 0.950 . S
C1921 C1923 1.327 . S
C1921 C1927 1.429 . S
C1922 C1914 1.574 . S
C1922 H1917 0.949 . S
C1922 C1928 1.368 . S
C1923 C1907 1.349 . S
C1923 H1915 0.950 . S
C1923 C1921 1.327 . S
C1924 C1912 1.349 . S
C1924 H1918 0.950 . S
C1924 C1925 1.327 . S
C1925 H1919 0.950 . S
C1925 C1924 1.327 . S
C1925 C1929 1.429 . S
C1926 C1909 1.574 1_655 S
C1926 H1920 0.949 . S
C1926 C1930 1.368 . S
C1927 C1908 1.429 . S
C1927 C1921 1.429 . S
C1927 C1928 1.523 . S
C1928 C1909 1.368 . S
C1928 C1922 1.368 . S
C1928 C1927 1.523 . S
C1929 C1913 1.429 . S
C1929 C1925 1.429 . S
C1929 C1930 1.523 . S
C1930 C1914 1.368 1_655 S
C1930 C1926 1.368 . S
C1930 C1929 1.523 . S
H1931 C1906 0.950 . S
H1932 C1908 0.950 . S
H1933 C1909 0.949 . S
H1934 C1911 0.950 . S
H1935 C1913 0.950 . S
C1936 C1937 1.349 . S
C1936 C1938 1.327 . S
C1936 H1961 0.950 . S
C1937 C1936 1.349 . S
C1937 C1953 1.349 . S
C1938 C1936 1.327 . S
C1938 C1957 1.429 . S
C1938 H1962 0.950 . S
C1939 C1956 1.574 . S
C1939 C1958 1.368 . S
C1939 H1963 0.949 . S
H1940 C1944 0.949 . S
C1941 C1942 1.349 . S
C1941 C1943 1.327 . S
C1941 H1964 0.950 . S
C1942 C1941 1.349 . S
C1942 C1954 1.349 . S
C1943 C1941 1.327 . S
C1943 C1959 1.429 . S
C1943 H1965 0.950 . S
C1944 H1940 0.949 . S
C1944 C1952 1.574 . S
C1944 C1960 1.368 . S
H1945 C1953 0.950 . S
H1946 C1951 0.950 . S
H1947 C1952 0.949 . S
H1948 C1954 0.950 . S
H1949 C1955 0.950 . S
H1950 C1956 0.949 . S
C1951 H1946 0.950 . S
C1951 C1953 1.327 . S
C1951 C1957 1.429 . S
C1952 C1944 1.574 . S
C1952 H1947 0.949 . S
C1952 C1958 1.368 . S
C1953 C1937 1.349 . S
C1953 H1945 0.950 . S
C1953 C1951 1.327 . S
C1954 C1942 1.349 . S
C1954 H1948 0.950 . S
C1954 C1955 1.327 . S
C1955 H1949 0.950 . S
C1955 C1954 1.327 . S
C1955 C1959 1.429 . S
C1956 C1939 1.574 . S
C1956 H1950 0.949 . S
C1956 C1960 1.368 . S
C1957 C1938 1.429 . S
C1957 C1951 1.429 . S
C1957 C1958 1.523 . S
C1958 C1939 1.368 . S
C1958 C1952 1.368 . S
C1958 C1957 1.523 . S
C1959 C1943 1.429 . S
C1959 C1955 1.429 . S
C1959 C1960 1.523 . S
C1960 C1944 1.368 . S
C1960 C1956 1.368 . S
C1960 C1959 1.523 . S
H1961 C1936 0.950 . S
H1962 C1938 0.950 . S
H1963 C1939 0.949 . S
H1964 C1941 0.950 . S
H1965 C1943 0.950 . S
C1966 C1967 1.349 . S
C1966 C1968 1.327 . S
C1966 H1991 0.950 . S
C1967 C1966 1.349 . S
C1967 C1983 1.349 . S
C1968 C1966 1.327 . S
C1968 C1987 1.429 . S
C1968 H1992 0.950 . S
C1969 C1986 1.574 . S
C1969 C1988 1.368 . S
C1969 H1993 0.949 . S
H1970 C1974 0.949 . S
C1971 C1972 1.349 . S
C1971 C1973 1.327 . S
C1971 H1994 0.950 . S
C1972 C1971 1.349 . S
C1972 C1984 1.349 . S
C1973 C1971 1.327 . S
C1973 C1989 1.429 . S
C1973 H1995 0.950 . S
C1974 H1970 0.949 . S
C1974 C1982 1.574 . S
C1974 C1990 1.368 . S
H1975 C1983 0.950 . S
H1976 C1981 0.950 . S
H1977 C1982 0.949 . S
H1978 C1984 0.950 . S
H1979 C1985 0.950 . S
H1980 C1986 0.949 . S
C1981 H1976 0.950 . S
C1981 C1983 1.327 . S
C1981 C1987 1.429 . S
C1982 C1974 1.574 . S
C1982 H1977 0.949 . S
C1982 C1988 1.368 1_445 S
C1983 C1967 1.349 . S
C1983 H1975 0.950 . S
C1983 C1981 1.327 . S
C1984 C1972 1.349 . S
C1984 H1978 0.950 . S
C1984 C1985 1.327 . S
C1985 H1979 0.950 . S
C1985 C1984 1.327 . S
C1985 C1989 1.429 . S
C1986 C1969 1.574 . S
C1986 H1980 0.949 . S
C1986 C1990 1.368 1_665 S
C1987 C1968 1.429 . S
C1987 C1981 1.429 . S
C1987 C1988 1.523 . S
C1988 C1969 1.368 . S
C1988 C1982 1.368 1_665 S
C1988 C1987 1.523 . S
C1989 C1973 1.429 . S
C1989 C1985 1.429 . S
C1989 C1990 1.523 . S
C1990 C1974 1.368 . S
C1990 C1986 1.368 1_445 S
C1990 C1989 1.523 . S
H1991 C1966 0.950 . S
H1992 C1968 0.950 . S
H1993 C1969 0.949 . S
H1994 C1971 0.950 . S
H1995 C1973 0.950 . S
C1996 C1997 1.349 . S
C1996 C1998 1.327 . S
C1996 H2021 0.950 . S
C1997 C1996 1.349 . S
C1997 C2013 1.349 . S
C1998 C1996 1.327 . S
C1998 C2017 1.429 . S
C1998 H2022 0.950 . S
C1999 C2016 1.574 . S
C1999 C2018 1.368 1_545 S
C1999 H2023 0.949 . S
H2000 C2004 0.949 . S
C2001 C2002 1.349 . S
C2001 C2003 1.327 . S
C2001 H2024 0.950 . S
C2002 C2001 1.349 . S
C2002 C2014 1.349 . S
C2003 C2001 1.327 . S
C2003 C2019 1.429 . S
C2003 H2025 0.950 . S
C2004 H2000 0.949 . S
C2004 C2012 1.574 . S
C2004 C2020 1.368 1_565 S
H2005 C2013 0.950 . S
H2006 C2011 0.950 1_545 S
H2007 C2012 0.949 . S
H2008 C2014 0.950 . S
H2009 C2015 0.950 1_565 S
H2010 C2016 0.949 . S
C2011 H2006 0.950 1_565 S
C2011 C2013 1.327 . S
C2011 C2017 1.429 . S
C2012 C2004 1.574 . S
C2012 H2007 0.949 . S
C2012 C2018 1.368 . S
C2013 C1997 1.349 . S
C2013 H2005 0.950 . S
C2013 C2011 1.327 . S
C2014 C2002 1.349 . S
C2014 H2008 0.950 . S
C2014 C2015 1.327 . S
C2015 H2009 0.950 1_545 S
C2015 C2014 1.327 . S
C2015 C2019 1.429 . S
C2016 C1999 1.574 . S
C2016 H2010 0.949 . S
C2016 C2020 1.368 . S
C2017 C1998 1.429 . S
C2017 C2011 1.429 . S
C2017 C2018 1.523 . S
C2018 C1999 1.368 1_565 S
C2018 C2012 1.368 . S
C2018 C2017 1.523 . S
C2019 C2003 1.429 . S
C2019 C2015 1.429 . S
C2019 C2020 1.523 . S
C2020 C2004 1.368 1_545 S
C2020 C2016 1.368 . S
C2020 C2019 1.523 . S
H2021 C1996 0.950 . S
H2022 C1998 0.950 . S
H2023 C1999 0.949 . S
H2024 C2001 0.950 . S
H2025 C2003 0.950 . S
C2026 C2027 1.349 . S
C2026 C2028 1.327 . S
C2026 H2051 0.950 . S
C2027 C2026 1.349 . S
C2027 C2043 1.349 . S
C2028 C2026 1.327 . S
C2028 C2047 1.429 . S
C2028 H2052 0.950 . S
C2029 C2046 1.574 1_455 S
C2029 C2048 1.368 . S
C2029 H2053 0.949 . S
H2030 C2034 0.949 . S
C2031 C2032 1.349 . S
C2031 C2033 1.327 . S
C2031 H2054 0.950 . S
C2032 C2031 1.349 . S
C2032 C2044 1.349 . S
C2033 C2031 1.327 . S
C2033 C2049 1.429 . S
C2033 H2055 0.950 . S
C2034 H2030 0.949 . S
C2034 C2042 1.574 1_655 S
C2034 C2050 1.368 . S
H2035 C2043 0.950 . S
H2036 C2041 0.950 . S
H2037 C2042 0.949 . S
H2038 C2044 0.950 . S
H2039 C2045 0.950 . S
H2040 C2046 0.949 . S
C2041 H2036 0.950 . S
C2041 C2043 1.327 . S
C2041 C2047 1.429 . S
C2042 C2034 1.574 1_455 S
C2042 H2037 0.949 . S
C2042 C2048 1.368 . S
C2043 C2027 1.349 . S
C2043 H2035 0.950 . S
C2043 C2041 1.327 . S
C2044 C2032 1.349 . S
C2044 H2038 0.950 . S
C2044 C2045 1.327 . S
C2045 H2039 0.950 . S
C2045 C2044 1.327 . S
C2045 C2049 1.429 . S
C2046 C2029 1.574 1_655 S
C2046 H2040 0.949 . S
C2046 C2050 1.368 . S
C2047 C2028 1.429 . S
C2047 C2041 1.429 . S
C2047 C2048 1.523 . S
C2048 C2029 1.368 . S
C2048 C2042 1.368 . S
C2048 C2047 1.523 . S
C2049 C2033 1.429 . S
C2049 C2045 1.429 . S
C2049 C2050 1.523 . S
C2050 C2034 1.368 . S
C2050 C2046 1.368 . S
C2050 C2049 1.523 . S
H2051 C2026 0.950 . S
H2052 C2028 0.950 . S
H2053 C2029 0.949 . S
H2054 C2031 0.950 . S
H2055 C2033 0.950 . S
C2056 C2057 1.349 . S
C2056 C2058 1.327 . S
C2056 H2081 0.950 . S
C2057 C2056 1.349 . S
C2057 C2073 1.349 . S
C2058 C2056 1.327 . S
C2058 C2077 1.429 . S
C2058 H2082 0.950 . S
C2059 C2076 1.574 . S
C2059 C2078 1.368 . S
C2059 H2083 0.949 . S
H2060 C2064 0.949 . S
C2061 C2062 1.349 . S
C2061 C2063 1.327 . S
C2061 H2084 0.950 . S
C2062 C2061 1.349 . S
C2062 C2074 1.349 . S
C2063 C2061 1.327 . S
C2063 C2079 1.429 . S
C2063 H2085 0.950 . S
C2064 H2060 0.949 . S
C2064 C2072 1.574 . S
C2064 C2080 1.368 . S
H2065 C2073 0.950 . S
H2066 C2071 0.950 . S
H2067 C2072 0.949 . S
H2068 C2074 0.950 . S
H2069 C2075 0.950 . S
H2070 C2076 0.949 . S
C2071 H2066 0.950 . S
C2071 C2073 1.327 . S
C2071 C2077 1.429 . S
C2072 C2064 1.574 . S
C2072 H2067 0.949 . S
C2072 C2078 1.368 . S
C2073 C2057 1.349 . S
C2073 H2065 0.950 . S
C2073 C2071 1.327 . S
C2074 C2062 1.349 . S
C2074 H2068 0.950 . S
C2074 C2075 1.327 . S
C2075 H2069 0.950 . S
C2075 C2074 1.327 . S
C2075 C2079 1.429 . S
C2076 C2059 1.574 . S
C2076 H2070 0.949 . S
C2076 C2080 1.368 . S
C2077 C2058 1.429 . S
C2077 C2071 1.429 . S
C2077 C2078 1.523 . S
C2078 C2059 1.368 . S
C2078 C2072 1.368 . S
C2078 C2077 1.523 . S
C2079 C2063 1.429 . S
C2079 C2075 1.429 . S
C2079 C2080 1.523 . S
C2080 C2064 1.368 . S
C2080 C2076 1.368 . S
C2080 C2079 1.523 . S
H2081 C2056 0.950 . S
H2082 C2058 0.950 . S
H2083 C2059 0.949 . S
H2084 C2061 0.950 . S
H2085 C2063 0.950 . S
C2086 C2087 1.349 . S
C2086 C2088 1.327 . S
C2086 H2111 0.950 . S
C2087 C2086 1.349 . S
C2087 C2103 1.349 . S
C2088 C2086 1.327 . S
C2088 C2107 1.429 . S
C2088 H2112 0.950 . S
C2089 C2106 1.574 . S
C2089 C2108 1.368 . S
C2089 H2113 0.949 . S
H2090 C2094 0.949 . S
C2091 C2092 1.349 . S
C2091 C2093 1.327 . S
C2091 H2114 0.950 . S
C2092 C2091 1.349 . S
C2092 C2104 1.349 . S
C2093 C2091 1.327 . S
C2093 C2109 1.429 . S
C2093 H2115 0.950 . S
C2094 H2090 0.949 . S
C2094 C2102 1.574 . S
C2094 C2110 1.368 . S
H2095 C2103 0.950 . S
H2096 C2101 0.950 . S
H2097 C2102 0.949 . S
H2098 C2104 0.950 . S
H2099 C2105 0.950 . S
H2100 C2106 0.949 . S
C2101 H2096 0.950 . S
C2101 C2103 1.327 . S
C2101 C2107 1.429 . S
C2102 C2094 1.574 . S
C2102 H2097 0.949 . S
C2102 C2108 1.368 1_545 S
C2103 C2087 1.349 . S
C2103 H2095 0.950 . S
C2103 C2101 1.327 . S
C2104 C2092 1.349 . S
C2104 H2098 0.950 . S
C2104 C2105 1.327 . S
C2105 H2099 0.950 . S
C2105 C2104 1.327 . S
C2105 C2109 1.429 . S
C2106 C2089 1.574 . S
C2106 H2100 0.949 . S
C2106 C2110 1.368 1_565 S
C2107 C2088 1.429 . S
C2107 C2101 1.429 . S
C2107 C2108 1.523 . S
C2108 C2089 1.368 . S
C2108 C2102 1.368 1_565 S
C2108 C2107 1.523 . S
C2109 C2093 1.429 . S
C2109 C2105 1.429 . S
C2109 C2110 1.523 . S
C2110 C2094 1.368 . S
C2110 C2106 1.368 1_545 S
C2110 C2109 1.523 . S
H2111 C2086 0.950 . S
H2112 C2088 0.950 . S
H2113 C2089 0.949 . S
H2114 C2091 0.950 . S
H2115 C2093 0.950 . S
C2116 C2117 1.349 . S
C2116 C2118 1.327 1_455 S
C2116 H2141 0.950 1_455 S
C2117 C2116 1.349 . S
C2117 C2133 1.349 . S
C2118 C2116 1.327 1_655 S
C2118 C2137 1.429 1_655 S
C2118 H2142 0.950 . S
C2119 C2136 1.574 . S
C2119 C2138 1.368 . S
C2119 H2143 0.949 . S
H2120 C2124 0.949 . S
C2121 C2122 1.349 . S
C2121 C2123 1.327 1_655 S
C2121 H2144 0.950 1_655 S
C2122 C2121 1.349 . S
C2122 C2134 1.349 . S
C2123 C2121 1.327 1_455 S
C2123 C2139 1.429 1_455 S
C2123 H2145 0.950 . S
C2124 H2120 0.949 . S
C2124 C2132 1.574 . S
C2124 C2140 1.368 . S
H2125 C2133 0.950 . S
H2126 C2131 0.950 . S
H2127 C2132 0.949 . S
H2128 C2134 0.950 . S
H2129 C2135 0.950 . S
H2130 C2136 0.949 . S
C2131 H2126 0.950 . S
C2131 C2133 1.327 . S
C2131 C2137 1.429 . S
C2132 C2124 1.574 . S
C2132 H2127 0.949 . S
C2132 C2138 1.368 1_655 S
C2133 C2117 1.349 . S
C2133 H2125 0.950 . S
C2133 C2131 1.327 . S
C2134 C2122 1.349 . S
C2134 H2128 0.950 . S
C2134 C2135 1.327 . S
C2135 H2129 0.950 . S
C2135 C2134 1.327 . S
C2135 C2139 1.429 . S
C2136 C2119 1.574 . S
C2136 H2130 0.949 . S
C2136 C2140 1.368 1_455 S
C2137 C2118 1.429 1_455 S
C2137 C2131 1.429 . S
C2137 C2138 1.523 . S
C2138 C2119 1.368 . S
C2138 C2132 1.368 1_455 S
C2138 C2137 1.523 . S
C2139 C2123 1.429 1_655 S
C2139 C2135 1.429 . S
C2139 C2140 1.523 . S
C2140 C2124 1.368 . S
C2140 C2136 1.368 1_655 S
C2140 C2139 1.523 . S
H2141 C2116 0.950 1_655 S
H2142 C2118 0.950 . S
H2143 C2119 0.949 . S
H2144 C2121 0.950 1_455 S
H2145 C2123 0.950 . S
C2146 C2147 1.349 . S
C2146 C2148 1.327 . S
C2146 H2171 0.950 . S
C2147 C2146 1.349 . S
C2147 C2163 1.349 . S
C2148 C2146 1.327 . S
C2148 C2167 1.429 . S
C2148 H2172 0.950 . S
C2149 C2166 1.574 1_554 S
C2149 C2168 1.368 . S
C2149 H2173 0.949 . S
H2150 C2154 0.949 . S
C2151 C2152 1.349 . S
C2151 C2153 1.327 . S
C2151 H2174 0.950 . S
C2152 C2151 1.349 . S
C2152 C2164 1.349 . S
C2153 C2151 1.327 . S
C2153 C2169 1.429 . S
C2153 H2175 0.950 . S
C2154 H2150 0.949 . S
C2154 C2162 1.574 1_556 S
C2154 C2170 1.368 . S
H2155 C2163 0.950 . S
H2156 C2161 0.950 . S
H2157 C2162 0.949 . S
H2158 C2164 0.950 . S
H2159 C2165 0.950 . S
H2160 C2166 0.949 . S
C2161 H2156 0.950 . S
C2161 C2163 1.327 . S
C2161 C2167 1.429 . S
C2162 C2154 1.574 1_554 S
C2162 H2157 0.949 . S
C2162 C2168 1.368 . S
C2163 C2147 1.349 . S
C2163 H2155 0.950 . S
C2163 C2161 1.327 . S
C2164 C2152 1.349 . S
C2164 H2158 0.950 . S
C2164 C2165 1.327 . S
C2165 H2159 0.950 . S
C2165 C2164 1.327 . S
C2165 C2169 1.429 . S
C2166 C2149 1.574 1_556 S
C2166 H2160 0.949 . S
C2166 C2170 1.368 . S
C2167 C2148 1.429 . S
C2167 C2161 1.429 . S
C2167 C2168 1.523 . S
C2168 C2149 1.368 . S
C2168 C2162 1.368 . S
C2168 C2167 1.523 . S
C2169 C2153 1.429 . S
C2169 C2165 1.429 . S
C2169 C2170 1.523 . S
C2170 C2154 1.368 . S
C2170 C2166 1.368 . S
C2170 C2169 1.523 . S
H2171 C2146 0.950 . S
H2172 C2148 0.950 . S
H2173 C2149 0.949 . S
H2174 C2151 0.950 . S
H2175 C2153 0.950 . S
C2176 C2177 1.349 . S
C2176 C2178 1.327 . S
C2176 H2201 0.950 . S
C2177 C2176 1.349 . S
C2177 C2193 1.349 . S
C2178 C2176 1.327 . S
C2178 C2197 1.429 . S
C2178 H2202 0.950 . S
C2179 C2196 1.653 . S
C2179 C2198 1.368 1_655 S
C2179 H2203 0.949 . S
H2180 C2184 0.949 . S
C2181 C2182 1.349 . S
C2181 C2183 1.327 . S
C2181 H2204 0.950 . S
C2182 C2181 1.349 . S
C2182 C2194 1.349 . S
C2183 C2181 1.327 . S
C2183 C2199 1.429 . S
C2183 H2205 0.950 . S
C2184 H2180 0.949 . S
C2184 C2192 1.653 . S
C2184 C2200 1.368 1_455 S
H2185 C2193 0.950 . S
H2186 C2191 0.950 1_655 S
H2187 C2192 0.960 . S
H2188 C2194 0.950 . S
H2189 C2195 0.950 1_455 S
H2190 C2196 0.960 . S
C2191 H2186 0.950 1_455 S
C2191 C2193 1.327 . S
C2191 C2197 1.429 . S
C2192 C2184 1.653 . S
C2192 H2187 0.960 . S
C2192 C2198 1.285 1_554 S
C2193 C2177 1.349 . S
C2193 H2185 0.950 . S
C2193 C2191 1.327 . S
C2194 C2182 1.349 . S
C2194 H2188 0.950 . S
C2194 C2195 1.327 . S
C2195 H2189 0.950 1_655 S
C2195 C2194 1.327 . S
C2195 C2199 1.429 . S
C2196 C2179 1.653 . S
C2196 H2190 0.960 . S
C2196 C2200 1.285 1_556 S
C2197 C2178 1.429 . S
C2197 C2191 1.429 . S
C2197 C2198 1.523 . S
C2198 C2179 1.368 1_455 S
C2198 C2192 1.285 1_556 S
C2198 C2197 1.523 . S
C2199 C2183 1.429 . S
C2199 C2195 1.429 . S
C2199 C2200 1.523 . S
C2200 C2184 1.368 1_655 S
C2200 C2196 1.285 1_554 S
C2200 C2199 1.523 . S
H2201 C2176 0.950 . S
H2202 C2178 0.950 . S
H2203 C2179 0.949 . S
H2204 C2181 0.950 . S
H2205 C2183 0.950 . S
C2206 C2207 1.349 . S
C2206 C2208 1.327 . S
C2206 H2231 0.950 . S
C2207 C2206 1.349 . S
C2207 C2223 1.349 . S
C2208 C2206 1.327 . S
C2208 C2227 1.429 . S
C2208 H2232 0.950 . S
C2209 C2226 1.574 . S
C2209 C2228 1.368 . S
C2209 H2233 0.949 . S
H2210 C2214 0.949 . S
C2211 C2212 1.349 . S
C2211 C2213 1.327 . S
C2211 H2234 0.950 . S
C2212 C2211 1.349 . S
C2212 C2224 1.349 . S
C2213 C2211 1.327 . S
C2213 C2229 1.429 . S
C2213 H2235 0.950 . S
C2214 H2210 0.949 . S
C2214 C2222 1.574 . S
C2214 C2230 1.368 . S
H2215 C2223 0.950 . S
H2216 C2221 0.950 . S
H2217 C2222 0.949 . S
H2218 C2224 0.950 . S
H2219 C2225 0.950 . S
H2220 C2226 0.949 . S
C2221 H2216 0.950 . S
C2221 C2223 1.327 . S
C2221 C2227 1.429 . S
C2222 C2214 1.574 . S
C2222 H2217 0.949 . S
C2222 C2228 1.368 . S
C2223 C2207 1.349 . S
C2223 H2215 0.950 . S
C2223 C2221 1.327 . S
C2224 C2212 1.349 . S
C2224 H2218 0.950 . S
C2224 C2225 1.327 . S
C2225 H2219 0.950 . S
C2225 C2224 1.327 . S
C2225 C2229 1.429 . S
C2226 C2209 1.574 . S
C2226 H2220 0.949 . S
C2226 C2230 1.368 . S
C2227 C2208 1.429 . S
C2227 C2221 1.429 . S
C2227 C2228 1.523 . S
C2228 C2209 1.368 . S
C2228 C2222 1.368 . S
C2228 C2227 1.523 . S
C2229 C2213 1.429 . S
C2229 C2225 1.429 . S
C2229 C2230 1.523 . S
C2230 C2214 1.368 . S
C2230 C2226 1.368 . S
C2230 C2229 1.523 . S
H2231 C2206 0.950 . S
H2232 C2208 0.950 . S
H2233 C2209 0.949 . S
H2234 C2211 0.950 . S
H2235 C2213 0.950 . S
C2236 C2237 1.349 . S
C2236 C2238 1.327 . S
C2236 H2261 0.950 . S
C2237 C2236 1.349 . S
C2237 C2253 1.349 . S
C2238 C2236 1.327 . S
C2238 C2257 1.429 . S
C2238 H2262 0.950 . S
C2239 C2256 1.574 1_556 S
C2239 C2258 1.368 . S
C2239 H2263 0.949 . S
H2240 C2244 0.949 . S
C2241 C2242 1.349 . S
C2241 C2243 1.327 . S
C2241 H2264 0.950 . S
C2242 C2241 1.349 . S
C2242 C2254 1.349 . S
C2243 C2241 1.327 . S
C2243 C2259 1.429 . S
C2243 H2265 0.950 . S
C2244 H2240 0.949 . S
C2244 C2252 1.574 1_554 S
C2244 C2260 1.368 . S
H2245 C2253 0.950 . S
H2246 C2251 0.950 . S
H2247 C2252 0.949 . S
H2248 C2254 0.950 . S
H2249 C2255 0.950 . S
H2250 C2256 0.949 . S
C2251 H2246 0.950 . S
C2251 C2253 1.327 . S
C2251 C2257 1.429 . S
C2252 C2244 1.574 1_556 S
C2252 H2247 0.949 . S
C2252 C2258 1.368 . S
C2253 C2237 1.349 . S
C2253 H2245 0.950 . S
C2253 C2251 1.327 . S
C2254 C2242 1.349 . S
C2254 H2248 0.950 . S
C2254 C2255 1.327 . S
C2255 H2249 0.950 . S
C2255 C2254 1.327 . S
C2255 C2259 1.429 . S
C2256 C2239 1.574 1_554 S
C2256 H2250 0.949 . S
C2256 C2260 1.368 . S
C2257 C2238 1.429 . S
C2257 C2251 1.429 . S
C2257 C2258 1.523 . S
C2258 C2239 1.368 . S
C2258 C2252 1.368 . S
C2258 C2257 1.523 . S
C2259 C2243 1.429 . S
C2259 C2255 1.429 . S
C2259 C2260 1.523 . S
C2260 C2244 1.368 . S
C2260 C2256 1.368 . S
C2260 C2259 1.523 . S
H2261 C2236 0.950 . S
H2262 C2238 0.950 . S
H2263 C2239 0.949 . S
H2264 C2241 0.950 . S
H2265 C2243 0.950 . S
C2266 C2267 1.349 . S
C2266 C2268 1.327 . S
C2266 H2291 0.950 . S
C2267 C2266 1.349 . S
C2267 C2283 1.349 . S
C2268 C2266 1.327 . S
C2268 C2287 1.429 . S
C2268 H2292 0.950 . S
C2269 C2286 1.574 . S
C2269 C2288 1.368 . S
C2269 H2293 0.949 . S
H2270 C2274 0.949 . S
C2271 C2272 1.349 . S
C2271 C2273 1.327 . S
C2271 H2294 0.950 . S
C2272 C2271 1.349 . S
C2272 C2284 1.349 . S
C2273 C2271 1.327 . S
C2273 C2289 1.429 . S
C2273 H2295 0.950 . S
C2274 H2270 0.949 . S
C2274 C2282 1.574 . S
C2274 C2290 1.368 . S
H2275 C2283 0.950 . S
H2276 C2281 0.950 . S
H2277 C2282 0.949 . S
H2278 C2284 0.950 . S
H2279 C2285 0.950 . S
H2280 C2286 0.949 . S
C2281 H2276 0.950 . S
C2281 C2283 1.327 . S
C2281 C2287 1.429 . S
C2282 C2274 1.574 . S
C2282 H2277 0.949 . S
C2282 C2288 1.368 . S
C2283 C2267 1.349 . S
C2283 H2275 0.950 . S
C2283 C2281 1.327 . S
C2284 C2272 1.349 . S
C2284 H2278 0.950 . S
C2284 C2285 1.327 . S
C2285 H2279 0.950 . S
C2285 C2284 1.327 . S
C2285 C2289 1.429 . S
C2286 C2269 1.574 . S
C2286 H2280 0.949 . S
C2286 C2290 1.368 . S
C2287 C2268 1.429 . S
C2287 C2281 1.429 . S
C2287 C2288 1.523 . S
C2288 C2269 1.368 . S
C2288 C2282 1.368 . S
C2288 C2287 1.523 . S
C2289 C2273 1.429 . S
C2289 C2285 1.429 . S
C2289 C2290 1.523 . S
C2290 C2274 1.368 . S
C2290 C2286 1.368 . S
C2290 C2289 1.523 . S
H2291 C2266 0.950 . S
H2292 C2268 0.950 . S
H2293 C2269 0.949 . S
H2294 C2271 0.950 . S
H2295 C2273 0.950 . S
C2296 C2297 1.349 . S
C2296 C2298 1.327 . S
C2296 H2321 0.950 . S
C2297 C2296 1.349 . S
C2297 C2313 1.349 . S
C2298 C2296 1.327 . S
C2298 C2317 1.429 . S
C2298 H2322 0.950 . S
C2299 C2316 1.592 . S
C2299 C2318 1.368 1_565 S
C2299 H2323 0.949 . S
H2300 C2304 0.949 . S
C2301 C2302 1.349 . S
C2301 C2303 1.327 . S
C2301 H2324 0.950 . S
C2302 C2301 1.349 . S
C2302 C2314 1.349 . S
C2303 C2301 1.327 . S
C2303 C2319 1.429 . S
C2303 H2325 0.950 . S
C2304 H2300 0.949 . S
C2304 C2312 1.592 . S
C2304 C2320 1.368 1_545 S
H2305 C2313 0.950 . S
H2306 C2311 0.930 1_565 S
H2307 C2312 0.949 . S
H2308 C2314 0.950 . S
H2309 C2315 0.931 1_545 S
H2310 C2316 0.949 . S
C2311 H2306 0.930 1_545 S
C2311 C2313 1.327 . S
C2311 C2317 1.429 . S
C2312 C2304 1.592 . S
C2312 H2307 0.949 . S
C2312 C2318 1.350 1_554 S
C2313 C2297 1.349 . S
C2313 H2305 0.950 . S
C2313 C2311 1.327 . S
C2314 C2302 1.349 . S
C2314 H2308 0.950 . S
C2314 C2315 1.327 . S
C2315 H2309 0.931 1_565 S
C2315 C2314 1.327 . S
C2315 C2319 1.429 . S
C2316 C2299 1.592 . S
C2316 H2310 0.949 . S
C2316 C2320 1.350 1_556 S
C2317 C2298 1.429 . S
C2317 C2311 1.429 . S
C2317 C2318 1.523 . S
C2318 C2299 1.368 1_545 S
C2318 C2312 1.350 1_556 S
C2318 C2317 1.523 . S
C2319 C2303 1.429 . S
C2319 C2315 1.429 . S
C2319 C2320 1.523 . S
C2320 C2304 1.368 1_565 S
C2320 C2316 1.350 1_554 S
C2320 C2319 1.523 . S
H2321 C2296 0.950 . S
H2322 C2298 0.950 . S
H2323 C2299 0.949 . S
H2324 C2301 0.950 . S
H2325 C2303 0.950 . S
C2326 C2327 1.349 . S
C2326 C2328 1.327 . S
C2326 H2351 0.950 . S
C2327 C2326 1.349 . S
C2327 C2343 1.349 . S
C2328 C2326 1.327 . S
C2328 C2347 1.429 . S
C2328 H2352 0.950 . S
C2329 C2346 1.574 . S
C2329 C2348 1.368 . S
C2329 H2353 0.949 . S
H2330 C2334 0.949 . S
C2331 C2332 1.349 . S
C2331 C2333 1.327 . S
C2331 H2354 0.950 . S
C2332 C2331 1.349 . S
C2332 C2344 1.349 . S
C2333 C2331 1.327 . S
C2333 C2349 1.429 . S
C2333 H2355 0.950 . S
C2334 H2330 0.949 . S
C2334 C2342 1.574 . S
C2334 C2350 1.368 . S
H2335 C2343 0.950 . S
H2336 C2341 0.950 . S
H2337 C2342 0.949 . S
H2338 C2344 0.950 . S
H2339 C2345 0.950 . S
H2340 C2346 0.949 . S
C2341 H2336 0.950 . S
C2341 C2343 1.327 . S
C2341 C2347 1.429 . S
C2342 C2334 1.574 . S
C2342 H2337 0.949 . S
C2342 C2348 1.368 . S
C2343 C2327 1.349 . S
C2343 H2335 0.950 . S
C2343 C2341 1.327 . S
C2344 C2332 1.349 . S
C2344 H2338 0.950 . S
C2344 C2345 1.327 . S
C2345 H2339 0.950 . S
C2345 C2344 1.327 . S
C2345 C2349 1.429 . S
C2346 C2329 1.574 . S
C2346 H2340 0.949 . S
C2346 C2350 1.368 . S
C2347 C2328 1.429 . S
C2347 C2341 1.429 . S
C2347 C2348 1.523 . S
C2348 C2329 1.368 . S
C2348 C2342 1.368 . S
C2348 C2347 1.523 . S
C2349 C2333 1.429 . S
C2349 C2345 1.429 . S
C2349 C2350 1.523 . S
C2350 C2334 1.368 . S
C2350 C2346 1.368 . S
C2350 C2349 1.523 . S
H2351 C2326 0.950 . S
H2352 C2328 0.950 . S
H2353 C2329 0.949 . S
H2354 C2331 0.950 . S
H2355 C2333 0.950 . S
C2356 C2357 1.349 . S
C2356 C2358 1.327 . S
C2356 H2381 0.950 . S
C2357 C2356 1.349 . S
C2357 C2373 1.349 . S
C2358 C2356 1.327 . S
C2358 C2377 1.429 . S
C2358 H2382 0.950 . S
C2359 C2376 1.574 . S
C2359 C2378 1.368 . S
C2359 H2383 0.949 . S
H2360 C2364 0.949 . S
C2361 C2362 1.349 . S
C2361 C2363 1.327 . S
C2361 H2384 0.950 . S
C2362 C2361 1.349 . S
C2362 C2374 1.349 . S
C2363 C2361 1.327 . S
C2363 C2379 1.429 . S
C2363 H2385 0.950 . S
C2364 H2360 0.949 . S
C2364 C2372 1.574 . S
C2364 C2380 1.368 . S
H2365 C2373 0.950 . S
H2366 C2371 0.950 . S
H2367 C2372 0.949 . S
H2368 C2374 0.950 . S
H2369 C2375 0.950 . S
H2370 C2376 0.949 . S
C2371 H2366 0.950 . S
C2371 C2373 1.327 . S
C2371 C2377 1.429 . S
C2372 C2364 1.574 . S
C2372 H2367 0.949 . S
C2372 C2378 1.368 . S
C2373 C2357 1.349 . S
C2373 H2365 0.950 . S
C2373 C2371 1.327 . S
C2374 C2362 1.349 . S
C2374 H2368 0.950 . S
C2374 C2375 1.327 . S
C2375 H2369 0.950 . S
C2375 C2374 1.327 . S
C2375 C2379 1.429 . S
C2376 C2359 1.574 . S
C2376 H2370 0.949 . S
C2376 C2380 1.368 . S
C2377 C2358 1.429 . S
C2377 C2371 1.429 . S
C2377 C2378 1.523 . S
C2378 C2359 1.368 . S
C2378 C2372 1.368 . S
C2378 C2377 1.523 . S
C2379 C2363 1.429 . S
C2379 C2375 1.429 . S
C2379 C2380 1.523 . S
C2380 C2364 1.368 . S
C2380 C2376 1.368 . S
C2380 C2379 1.523 . S
H2381 C2356 0.950 . S
H2382 C2358 0.950 . S
H2383 C2359 0.949 . S
H2384 C2361 0.950 . S
H2385 C2363 0.950 . S
C2386 C2387 1.349 . S
C2386 C2388 1.327 . S
C2386 H2411 0.950 . S
C2387 C2386 1.349 . S
C2387 C2403 1.349 . S
C2388 C2386 1.327 . S
C2388 C2407 1.429 . S
C2388 H2412 0.950 . S
C2389 C2406 1.574 . S
C2389 C2408 1.368 . S
C2389 H2413 0.949 . S
H2390 C2394 0.949 . S
C2391 C2392 1.349 . S
C2391 C2393 1.327 . S
C2391 H2414 0.950 . S
C2392 C2391 1.349 . S
C2392 C2404 1.349 . S
C2393 C2391 1.327 . S
C2393 C2409 1.429 . S
C2393 H2415 0.950 . S
C2394 H2390 0.949 . S
C2394 C2402 1.574 . S
C2394 C2410 1.368 . S
H2395 C2403 0.950 . S
H2396 C2401 0.950 . S
H2397 C2402 0.949 . S
H2398 C2404 0.950 . S
H2399 C2405 0.950 . S
H2400 C2406 0.949 . S
C2401 H2396 0.950 . S
C2401 C2403 1.327 . S
C2401 C2407 1.429 . S
C2402 C2394 1.574 . S
C2402 H2397 0.949 . S
C2402 C2408 1.368 . S
C2403 C2387 1.349 . S
C2403 H2395 0.950 . S
C2403 C2401 1.327 . S
C2404 C2392 1.349 . S
C2404 H2398 0.950 . S
C2404 C2405 1.327 . S
C2405 H2399 0.950 . S
C2405 C2404 1.327 . S
C2405 C2409 1.429 . S
C2406 C2389 1.574 . S
C2406 H2400 0.949 . S
C2406 C2410 1.368 . S
C2407 C2388 1.429 . S
C2407 C2401 1.429 . S
C2407 C2408 1.523 . S
C2408 C2389 1.368 . S
C2408 C2402 1.368 . S
C2408 C2407 1.523 . S
C2409 C2393 1.429 . S
C2409 C2405 1.429 . S
C2409 C2410 1.523 . S
C2410 C2394 1.368 . S
C2410 C2406 1.368 . S
C2410 C2409 1.523 . S
H2411 C2386 0.950 . S
H2412 C2388 0.950 . S
H2413 C2389 0.949 . S
H2414 C2391 0.950 . S
H2415 C2393 0.950 . S
C497 C27 0.663 . S
C502 C373 0.663 . S
C527 C1 0.663 . S
C532 C399 0.663 . S
C557 C58 0.663 . S
C562 C404 0.663 . S
C587 C32 0.663 . S
C592 C430 0.663 . S
C617 C461 0.663 . S
C622 C63 0.663 . S
C647 C89 0.663 . S
C652 C435 0.663 . S
C677 C94 0.663 . S
C682 C492 0.663 . S
C707 C120 0.663 . S
C712 C466 0.663 . S
C737 C249 0.663 . S
C742 C151 0.663 . S
C767 C275 0.663 . S
C772 C125 0.663 . S
C797 C280 0.663 . S
C802 C182 0.663 . S
C827 C306 0.663 . S
C832 C156 0.663 . S
C857 C337 0.663 . S
C862 C187 0.663 . S
C887 C213 0.663 . S
C892 C311 0.663 . S
C917 C368 0.663 . S
C922 C218 0.663 . S
C947 C244 0.663 . S
C952 C342 0.663 . S
C977 C2 1.895 . S
C982 C382 1.895 . S
C1007 C10 1.895 . S
C1012 C374 1.895 . S
C1037 C33 1.895 . S
C1042 C413 1.895 . S
C1067 C405 1.895 . S
C1072 C41 1.895 . S
C1097 C436 1.895 . S
C1102 C72 1.895 . S
C1127 C444 1.895 . S
C1132 C64 1.895 . S
C1157 C467 1.895 . S
C1162 C103 1.895 . S
C1187 C475 1.895 . S
C1192 C95 1.895 . S
C1217 C126 1.895 . S
C1222 C258 1.895 . S
C1247 C134 1.895 . S
C1252 C250 1.895 . S
C1277 C157 1.895 . S
C1282 C289 1.895 . S
C1307 C165 1.895 . S
C1312 C281 1.895 . S
C1337 C312 1.895 . S
C1342 C196 1.895 . S
C1367 C320 1.895 . S
C1372 C188 1.895 . S
C1397 C343 1.895 . S
C1402 C227 1.895 . S
C1427 C219 1.895 . S
C1432 C351 1.895 . S
C1457 C24 1.898 . S
C1462 C290 1.847 . S
C1487 C303 1.898 . S
C1492 C11 1.847 . S
C1517 C259 1.847 . S
C1522 C55 1.898 . S
C1547 C272 1.898 . S
C1552 C42 1.847 . S
C1577 C359 1.847 . S
C1582 C62 1.898 . S
C1607 C80 1.847 . S
C1612 C341 1.898 . S
C1637 C93 1.898 . S
C1642 C328 1.847 . S
C1667 C111 1.847 . S
C1672 C310 1.898 . S
C1697 C414 1.847 . S
C1702 C148 1.898 . S
C1727 C135 1.847 . S
C1732 C427 1.898 . S
C1757 C179 1.898 . S
C1762 C383 1.847 . S
C1787 C396 1.898 . S
C1792 C166 1.847 . S
C1817 C483 1.847 . S
C1822 C186 1.898 . S
C1847 C465 1.898 . S
C1852 C204 1.847 . S
C1877 C452 1.847 . S
C1882 C217 1.898 . S
C1907 C434 1.898 . S
C1912 C235 1.847 . S
C1937 C445 2.044 . S
C1942 C18 2.044 . S
C1967 C86 1.186 . S
C1972 C0 1.186 . S
C1997 C352 2.044 . S
C2002 C49 2.044 . S
C2027 C31 1.186 . S
C2032 C241 1.186 . S
C2057 C390 2.044 . S
C2062 C73 2.044 . S
C2087 C104 2.043 . S
C2092 C297 2.043 . S
C2117 C155 1.186 . S
C2122 C117 1.186 . S
C2147 C321 2.043 . S
C2152 C142 2.043 . S
C2177 C124 1.186 . S
C2182 C210 1.186 . S
C2207 C173 2.044 . S
C2212 C476 2.044 . S
C2237 C266 2.044 . S
C2242 C197 2.044 . S
C2267 C421 2.044 . S
C2272 C228 2.044 . S
C2297 C248 1.186 . S
C2302 C334 1.186 . S
C2327 C279 1.186 . S
C2332 C489 1.186 . S
C2357 C403 1.186 . S
C2362 C365 1.186 . S
C2387 C458 1.186 . S
C2392 C372 1.186 . S
