# Generated by pormake.
# Topology ukl, (4)-cn, num edge types: 1
# Building blocks:
#     Node 0, Type 0, BuildingBlock: KOZSID_clean_sbu_0, # of connection points: 4
#     Node 1, Type 0, BuildingBlock: KOZSID_clean_sbu_0, # of connection points: 4
#     Node 2, Type 0, BuildingBlock: KOZSID_clean_sbu_0, # of connection points: 4
#     Node 3, Type 0, BuildingBlock: KOZSID_clean_sbu_0, # of connection points: 4
#     Node 4, Type 0, BuildingBlock: KOZSID_clean_sbu_0, # of connection points: 4
#     Node 5, Type 0, BuildingBlock: KOZSID_clean_sbu_0, # of connection points: 4
#     Node 6, Type 0, BuildingBlock: KOZSID_clean_sbu_0, # of connection points: 4
#     Node 7, Type 0, BuildingBlock: KOZSID_clean_sbu_0, # of connection points: 4
#     Node 8, Type 0, BuildingBlock: KOZSID_clean_sbu_0, # of connection points: 4
#     Node 9, Type 0, BuildingBlock: KOZSID_clean_sbu_0, # of connection points: 4
#     Node 10, Type 0, BuildingBlock: KOZSID_clean_sbu_0, # of connection points: 4
#     Node 11, Type 0, BuildingBlock: KOZSID_clean_sbu_0, # of connection points: 4
#     Node 12, Type 0, BuildingBlock: KOZSID_clean_sbu_0, # of connection points: 4
#     Node 13, Type 0, BuildingBlock: KOZSID_clean_sbu_0, # of connection points: 4
#     Node 14, Type 0, BuildingBlock: KOZSID_clean_sbu_0, # of connection points: 4
#     Node 15, Type 0, BuildingBlock: KOZSID_clean_sbu_0, # of connection points: 4
#     Edge 16, Type (0, 0), BuildingBlock: XIVTED_clean_linker_0, # of connection points: 2
#     Edge 17, Type (0, 0), BuildingBlock: XIVTED_clean_linker_0, # of connection points: 2
#     Edge 18, Type (0, 0), BuildingBlock: XIVTED_clean_linker_0, # of connection points: 2
#     Edge 19, Type (0, 0), BuildingBlock: XIVTED_clean_linker_0, # of connection points: 2
#     Edge 20, Type (0, 0), BuildingBlock: XIVTED_clean_linker_0, # of connection points: 2
#     Edge 21, Type (0, 0), BuildingBlock: XIVTED_clean_linker_0, # of connection points: 2
#     Edge 22, Type (0, 0), BuildingBlock: XIVTED_clean_linker_0, # of connection points: 2
#     Edge 23, Type (0, 0), BuildingBlock: XIVTED_clean_linker_0, # of connection points: 2
#     Edge 24, Type (0, 0), BuildingBlock: XIVTED_clean_linker_0, # of connection points: 2
#     Edge 25, Type (0, 0), BuildingBlock: XIVTED_clean_linker_0, # of connection points: 2
#     Edge 26, Type (0, 0), BuildingBlock: XIVTED_clean_linker_0, # of connection points: 2
#     Edge 27, Type (0, 0), BuildingBlock: XIVTED_clean_linker_0, # of connection points: 2
#     Edge 28, Type (0, 0), BuildingBlock: XIVTED_clean_linker_0, # of connection points: 2
#     Edge 29, Type (0, 0), BuildingBlock: XIVTED_clean_linker_0, # of connection points: 2
#     Edge 30, Type (0, 0), BuildingBlock: XIVTED_clean_linker_0, # of connection points: 2
#     Edge 31, Type (0, 0), BuildingBlock: XIVTED_clean_linker_0, # of connection points: 2
#     Edge 32, Type (0, 0), BuildingBlock: XIVTED_clean_linker_0, # of connection points: 2
#     Edge 33, Type (0, 0), BuildingBlock: XIVTED_clean_linker_0, # of connection points: 2
#     Edge 34, Type (0, 0), BuildingBlock: XIVTED_clean_linker_0, # of connection points: 2
#     Edge 35, Type (0, 0), BuildingBlock: XIVTED_clean_linker_0, # of connection points: 2
#     Edge 36, Type (0, 0), BuildingBlock: XIVTED_clean_linker_0, # of connection points: 2
#     Edge 37, Type (0, 0), BuildingBlock: XIVTED_clean_linker_0, # of connection points: 2
#     Edge 38, Type (0, 0), BuildingBlock: XIVTED_clean_linker_0, # of connection points: 2
#     Edge 39, Type (0, 0), BuildingBlock: XIVTED_clean_linker_0, # of connection points: 2
#     Edge 40, Type (0, 0), BuildingBlock: XIVTED_clean_linker_0, # of connection points: 2
#     Edge 41, Type (0, 0), BuildingBlock: XIVTED_clean_linker_0, # of connection points: 2
#     Edge 42, Type (0, 0), BuildingBlock: XIVTED_clean_linker_0, # of connection points: 2
#     Edge 43, Type (0, 0), BuildingBlock: XIVTED_clean_linker_0, # of connection points: 2
#     Edge 44, Type (0, 0), BuildingBlock: XIVTED_clean_linker_0, # of connection points: 2
#     Edge 45, Type (0, 0), BuildingBlock: XIVTED_clean_linker_0, # of connection points: 2
#     Edge 46, Type (0, 0), BuildingBlock: XIVTED_clean_linker_0, # of connection points: 2
#     Edge 47, Type (0, 0), BuildingBlock: XIVTED_clean_linker_0, # of connection points: 2
# Relax obj value: 0.088
# Max RMSD: 0.113
# Mean RMSD: 0.085
data_MOF--net-ukl--node1-KOZSID_clean_sbu_0--edge1-XIVTED_clean_linker_0
_symmetry_space_group_name_H-M    P1
_symmetry_Int_Tables_number       1
_symmetry_cell_setting            triclinic
loop_
_symmetry_equiv_pos_as_xyz
'x, y, z'
_cell_length_a     37.207953
_cell_length_b     38.394495
_cell_length_c     28.551788
_cell_angle_alpha  90.119488
_cell_angle_beta   89.985025
_cell_angle_gamma 94.78548
loop_
_atom_site_label
_atom_site_type_symbol
_atom_site_fract_x
_atom_site_fract_y
_atom_site_fract_z
_atom_type_partial_charge
C0 C 0.38677 0.15508 0.02146 0.0
C1 C 0.39533 0.16687 0.97653 0.0
C2 C 0.37189 0.14871 0.94678 0.0
C3 C 0.35058 0.1268 0.97501 0.0
N4 N 0.35888 0.13004 0.02104 0.0
Co5 Co 0.33561 0.10226 0.07374 0.0
N6 N 0.29803 0.07916 0.03103 0.0
C7 C 0.29631 0.08201 0.98397 0.0
C8 C 0.26626 0.06439 0.96474 0.0
C9 C 0.24665 0.05104 0.00203 0.0
C10 C 0.26626 0.06096 0.04184 0.0
N11 N 0.31229 0.07367 0.12592 0.0
C12 C 0.27951 0.0552 0.12747 0.0
C13 C 0.27282 0.04051 0.17129 0.0
C14 C 0.302 0.05071 0.19852 0.0
C15 C 0.32467 0.07121 0.17016 0.0
N16 N 0.37186 0.12627 0.11732 0.0
C17 C 0.37486 0.12062 0.16386 0.0
C18 C 0.40129 0.1421 0.18503 0.0
C19 C 0.41599 0.16276 0.14991 0.0
C20 C 0.3978 0.1524 0.10905 0.0
N21 N 0.30343 0.14012 0.08614 0.0
C22 C 0.26887 0.20183 0.10365 0.0
C23 C 0.27932 0.1808 0.14047 0.0
C24 C 0.29637 0.15031 0.13104 0.0
C25 C 0.27407 0.19002 0.05786 0.0
C26 C 0.29086 0.15913 0.04998 0.0
N27 N 0.3699 0.06523 0.06094 0.0
C28 C 0.42501 0.03975 0.08382 0.0
C29 C 0.4323 0.03036 0.03764 0.0
C30 C 0.40569 0.03549 0.00422 0.0
C31 C 0.3749 0.05246 0.01659 0.0
C32 C 0.39379 0.05631 0.09465 0.0
H33 H 0.35625 0.05587 0.98913 0.0
H34 H 0.39037 0.06258 0.13052 0.0
H35 H 0.30471 0.13587 0.16056 0.0
H36 H 0.29443 0.15147 0.01434 0.0
C37 C 0.32135 0.10439 0.95971 0.0
C38 C 0.40638 0.16783 0.06323 0.0
C39 C 0.25312 0.05364 0.08932 0.0
C40 C 0.35306 0.09426 0.1863 0.0
H41 H 0.41641 0.18649 0.96625 0.0
H42 H 0.37037 0.15139 0.90911 0.0
H43 H 0.25874 0.06275 0.92815 0.0
H44 H 0.22049 0.03646 0.00034 0.0
H45 H 0.24878 0.0254 0.18328 0.0
H46 H 0.30504 0.04589 0.2355 0.0
H47 H 0.40902 0.14263 0.22159 0.0
H48 H 0.43774 0.18307 0.15398 0.0
H49 H 0.27574 0.18853 0.17657 0.0
H50 H 0.26553 0.20471 0.0281 0.0
H51 H 0.44365 0.03485 0.11172 0.0
H52 H 0.40924 0.02794 0.96806 0.0
C53 C 0.74381 0.64956 0.32498 0.0
C54 C 0.76266 0.66595 0.36182 0.0
C55 C 0.75105 0.64849 0.40185 0.0
C56 C 0.72597 0.62232 0.38724 0.0
N57 N 0.72161 0.62221 0.34052 0.0
Co58 Co 0.68544 0.59256 0.30456 0.0
N59 N 0.65484 0.58299 0.36056 0.0
C60 C 0.66578 0.58717 0.40531 0.0
C61 C 0.63849 0.57872 0.43673 0.0
C62 C 0.60877 0.56841 0.40995 0.0
C63 C 0.61961 0.57098 0.36343 0.0
N64 N 0.64956 0.5632 0.26782 0.0
C65 C 0.61492 0.55237 0.27826 0.0
C66 C 0.59977 0.5311 0.2428 0.0
C67 C 0.62608 0.52866 0.2094 0.0
C68 C 0.65583 0.54836 0.22618 0.0
N69 N 0.71619 0.6031 0.24904 0.0
C70 C 0.71578 0.58436 0.20923 0.0
C71 C 0.73801 0.6002 0.17561 0.0
C72 C 0.75282 0.63081 0.19561 0.0
C73 C 0.73895 0.63194 0.24062 0.0
N74 N 0.71031 0.54999 0.31814 0.0
C75 C 0.74054 0.48573 0.33189 0.0
C76 C 0.76204 0.51553 0.31686 0.0
C77 C 0.74644 0.54764 0.31073 0.0
C78 C 0.70415 0.48904 0.34045 0.0
C79 C 0.68965 0.52084 0.33297 0.0
N80 N 0.65935 0.63338 0.29123 0.0
C81 C 0.62035 0.6621 0.2395 0.0
C82 C 0.60841 0.68152 0.27709 0.0
C83 C 0.62486 0.6787 0.32083 0.0
C84 C 0.65053 0.65471 0.32706 0.0
C85 C 0.6459 0.63811 0.24734 0.0
H86 H 0.6616 0.65197 0.36158 0.0
H87 H 0.65313 0.62192 0.21852 0.0
H88 H 0.76327 0.57029 0.29912 0.0
H89 H 0.6611 0.52118 0.33809 0.0
C90 C 0.69953 0.60475 0.41575 0.0
C91 C 0.74757 0.65997 0.27546 0.0
C92 C 0.59701 0.55908 0.32307 0.0
C93 C 0.68757 0.55834 0.20099 0.0
H94 H 0.78187 0.68868 0.36002 0.0
H95 H 0.75789 0.65592 0.43752 0.0
H96 H 0.63962 0.58107 0.4745 0.0
H97 H 0.58228 0.55982 0.42323 0.0
H98 H 0.5727 0.51841 0.24143 0.0
H99 H 0.62339 0.51518 0.17616 0.0
H100 H 0.74093 0.59197 0.13962 0.0
H101 H 0.77084 0.65028 0.17841 0.0
H102 H 0.79042 0.51396 0.30961 0.0
H103 H 0.68653 0.46665 0.35149 0.0
H104 H 0.60838 0.66373 0.20508 0.0
H105 H 0.61685 0.69389 0.35051 0.0
C106 C 0.12989 0.86669 0.5133 0.0
C107 C 0.12442 0.85271 0.46871 0.0
C108 C 0.1497 0.86962 0.44029 0.0
C109 C 0.16906 0.8929 0.46896 0.0
N110 N 0.15757 0.89193 0.51396 0.0
Co111 Co 0.17867 0.9206 0.56745 0.0
N112 N 0.21825 0.94259 0.52692 0.0
C113 C 0.22112 0.93996 0.4799 0.0
C114 C 0.25187 0.95735 0.46223 0.0
C115 C 0.27049 0.97055 0.50046 0.0
C116 C 0.24979 0.96061 0.53932 0.0
N117 N 0.20104 0.94879 0.62094 0.0
C118 C 0.23455 0.96576 0.6246 0.0
C119 C 0.24067 0.97943 0.66922 0.0
C120 C 0.21034 0.97025 0.69478 0.0
C121 C 0.18765 0.95119 0.66472 0.0
N122 N 0.13932 0.89896 0.60837 0.0
C123 C 0.13315 0.90687 0.65369 0.0
C124 C 0.10422 0.88749 0.67278 0.0
C125 C 0.09114 0.86595 0.63751 0.0
C126 C 0.11285 0.87358 0.59867 0.0
N127 N 0.20893 0.88181 0.58313 0.0
C128 C 0.24053 0.81845 0.60151 0.0
C129 C 0.22462 0.83695 0.63736 0.0
C130 C 0.20937 0.86842 0.62759 0.0
C131 C 0.24221 0.83374 0.55687 0.0
C132 C 0.22662 0.8652 0.54862 0.0
N133 N 0.14608 0.95852 0.55119 0.0
C134 C 0.0957 0.99169 0.57417 0.0
C135 C 0.08405 0.99408 0.5277 0.0
C136 C 0.10643 0.98165 0.49313 0.0
C137 C 0.13725 0.96489 0.50545 0.0
C138 C 0.12659 0.97429 0.58494 0.0
H139 H 0.15272 0.95635 0.47706 0.0
H140 H 0.13329 0.97292 0.62104 0.0
H141 H 0.19716 0.88114 0.65618 0.0
H142 H 0.22803 0.87516 0.51365 0.0
C143 C 0.19818 0.91595 0.45484 0.0
C144 C 0.10761 0.85578 0.55361 0.0
C145 C 0.26188 0.96737 0.58746 0.0
C146 C 0.15627 0.93111 0.67808 0.0
H147 H 0.10411 0.8325 0.45779 0.0
H148 H 0.15354 0.86543 0.40319 0.0
H149 H 0.26073 0.95852 0.42614 0.0
H150 H 0.29685 0.9848 0.50003 0.0
H151 H 0.2649 0.9934 0.68269 0.0
H152 H 0.20622 0.97519 0.73163 0.0
H153 H 0.09425 0.88843 0.70834 0.0
H154 H 0.06839 0.84658 0.64029 0.0
H155 H 0.22359 0.82712 0.67289 0.0
H156 H 0.25425 0.82091 0.52771 0.0
H157 H 0.08015 1.00171 0.60251 0.0
H158 H 0.09994 0.98433 0.4564 0.0
C159 C 0.77191 0.37486 0.82928 0.0
C160 C 0.75315 0.36017 0.86727 0.0
C161 C 0.76638 0.37812 0.90629 0.0
C162 C 0.79233 0.40282 0.88997 0.0
N163 N 0.79562 0.40161 0.84318 0.0
Co164 Co 0.83222 0.42868 0.80496 0.0
N165 N 0.86471 0.43763 0.85929 0.0
C166 C 0.85466 0.43505 0.90456 0.0
C167 C 0.88298 0.44287 0.93467 0.0
C168 C 0.91241 0.45119 0.90649 0.0
C169 C 0.9004 0.44815 0.86046 0.0
N170 N 0.8686 0.45535 0.76582 0.0
C171 C 0.90392 0.46468 0.77448 0.0
C172 C 0.91908 0.48458 0.7378 0.0
C173 C 0.8921 0.48781 0.7056 0.0
C174 C 0.86195 0.46991 0.7242 0.0
N175 N 0.79943 0.41894 0.75126 0.0
C176 C 0.79961 0.43713 0.71113 0.0
C177 C 0.77586 0.42168 0.67882 0.0
C178 C 0.76033 0.39188 0.70004 0.0
C179 C 0.77532 0.39082 0.74442 0.0
N180 N 0.81042 0.4729 0.81862 0.0
C181 C 0.78451 0.5394 0.83098 0.0
C182 C 0.76061 0.50973 0.82178 0.0
C183 C 0.77418 0.47662 0.81552 0.0
C184 C 0.82106 0.53449 0.83575 0.0
C185 C 0.83329 0.50158 0.82956 0.0
N186 N 0.8551 0.38601 0.7914 0.0
C187 C 0.88772 0.35216 0.73768 0.0
C188 C 0.89813 0.33119 0.77453 0.0
C189 C 0.88446 0.33682 0.81943 0.0
C190 C 0.86291 0.36424 0.82705 0.0
C191 C 0.86617 0.37939 0.74685 0.0
H192 H 0.85395 0.36881 0.86225 0.0
H193 H 0.85968 0.396 0.7182 0.0
H194 H 0.75565 0.45425 0.80726 0.0
H195 H 0.86184 0.49986 0.83255 0.0
C196 C 0.82028 0.41971 0.91689 0.0
C197 C 0.76668 0.36356 0.78021 0.0
C198 C 0.92249 0.45863 0.81903 0.0
C199 C 0.82894 0.46151 0.70093 0.0
H200 H 0.73291 0.33822 0.86685 0.0
H201 H 0.75998 0.37188 0.94243 0.0
H202 H 0.88262 0.44154 0.97254 0.0
H203 H 0.93946 0.45894 0.91853 0.0
H204 H 0.94655 0.49608 0.73497 0.0
H205 H 0.89452 0.50075 0.67208 0.0
H206 H 0.77244 0.42943 0.64278 0.0
H207 H 0.74113 0.37285 0.68395 0.0
H208 H 0.732 0.51226 0.818 0.0
H209 H 0.84053 0.55629 0.84368 0.0
H210 H 0.89705 0.34829 0.70226 0.0
H211 H 0.89192 0.32147 0.84912 0.0
C212 C 0.69997 0.93195 0.9756 0.0
C213 C 0.70498 0.94423 0.02108 0.0
C214 C 0.73412 0.92871 0.03886 0.0
C215 C 0.74524 0.90761 0.00363 0.0
N216 N 0.72496 0.90932 0.96492 0.0
Co217 Co 0.72775 0.87964 0.90847 0.0
N218 N 0.75302 0.84401 0.94234 0.0
C219 C 0.77093 0.84922 0.98297 0.0
C220 C 0.78561 0.8196 0.99836 0.0
C221 C 0.77636 0.79441 0.96513 0.0
C222 C 0.75633 0.81004 0.93132 0.0
N223 N 0.7298 0.85007 0.85184 0.0
C224 C 0.73394 0.81538 0.84838 0.0
C225 C 0.72996 0.80426 0.80226 0.0
C226 C 0.72378 0.83316 0.77626 0.0
C227 C 0.7245 0.86044 0.80753 0.0
N228 N 0.70228 0.91518 0.87479 0.0
C229 C 0.70144 0.9198 0.82817 0.0
C230 C 0.6796 0.94546 0.81554 0.0
C231 C 0.66574 0.95719 0.85687 0.0
C232 C 0.67984 0.93792 0.89239 0.0
N233 N 0.7744 0.90433 0.89202 0.0
C234 C 0.8428 0.93916 0.87524 0.0
C235 C 0.81348 0.95769 0.88861 0.0
C236 C 0.77965 0.93986 0.89682 0.0
C237 C 0.83668 0.90283 0.86931 0.0
C238 C 0.80244 0.88602 0.87769 0.0
N239 N 0.68181 0.8556 0.92556 0.0
C240 C 0.61941 0.84211 0.90783 0.0
C241 C 0.61206 0.83639 0.95548 0.0
C242 C 0.64073 0.83748 0.98714 0.0
C243 C 0.67549 0.84669 0.97131 0.0
C244 C 0.65455 0.85174 0.89358 0.0
H245 H 0.6969 0.84872 0.99674 0.0
H246 H 0.65936 0.85785 0.85718 0.0
H247 H 0.75782 0.95478 0.90797 0.0
H248 H 0.7988 0.85804 0.87327 0.0
C249 C 0.76688 0.87957 0.00945 0.0
C250 C 0.67184 0.94163 0.94253 0.0
C251 C 0.74287 0.79284 0.88779 0.0
C252 C 0.7128 0.89369 0.79838 0.0
H253 H 0.68888 0.96153 0.04026 0.0
H254 H 0.74396 0.93042 0.07453 0.0
H255 H 0.79985 0.81621 0.03087 0.0
H256 H 0.78345 0.76764 0.96575 0.0
H257 H 0.73058 0.77797 0.7888 0.0
H258 H 0.71674 0.83343 0.73963 0.0
H259 H 0.67233 0.95286 0.78044 0.0
H260 H 0.64673 0.97686 0.86054 0.0
H261 H 0.8168 0.9857 0.894 0.0
H262 H 0.8582 0.88737 0.85819 0.0
H263 H 0.59808 0.84017 0.88192 0.0
H264 H 0.63627 0.83279 0.02416 0.0
C265 C 0.34669 0.4366 0.74379 0.0
C266 C 0.33332 0.43522 0.78909 0.0
C267 C 0.34912 0.46425 0.81207 0.0
C268 C 0.37118 0.4818 0.77958 0.0
N269 N 0.36962 0.46563 0.73781 0.0
Co270 Co 0.39957 0.47887 0.68273 0.0
N271 N 0.43692 0.50515 0.721 0.0
C272 C 0.43197 0.51733 0.76453 0.0
C273 C 0.46318 0.53352 0.78298 0.0
C274 C 0.48901 0.53142 0.74871 0.0
C275 C 0.47211 0.5142 0.71088 0.0
N276 N 0.42938 0.49135 0.62719 0.0
C277 C 0.46501 0.50163 0.62438 0.0
C278 C 0.47496 0.50821 0.57817 0.0
C279 C 0.4443 0.50164 0.55152 0.0
C280 C 0.41733 0.4916 0.58282 0.0
N281 N 0.36223 0.45231 0.64496 0.0
C282 C 0.35687 0.45624 0.59884 0.0
C283 C 0.33136 0.43163 0.58174 0.0
C284 C 0.32018 0.41106 0.61941 0.0
C285 C 0.33958 0.42441 0.65787 0.0
N286 N 0.37484 0.52197 0.67458 0.0
C287 C 0.3412 0.58412 0.65744 0.0
C288 C 0.32077 0.55255 0.66798 0.0
C289 C 0.33807 0.52188 0.67659 0.0
C290 C 0.37889 0.58369 0.65735 0.0
C291 C 0.39496 0.55267 0.6655 0.0
N292 N 0.42427 0.4367 0.69065 0.0
C293 C 0.44214 0.3828 0.65944 0.0
C294 C 0.45399 0.37355 0.70375 0.0
C295 C 0.45184 0.39673 0.74112 0.0
C296 C 0.43656 0.42814 0.73391 0.0
C297 C 0.42783 0.41482 0.65346 0.0
H298 H 0.43394 0.44513 0.76356 0.0
H299 H 0.41885 0.42157 0.61901 0.0
H300 H 0.32173 0.49795 0.68411 0.0
H301 H 0.42396 0.55361 0.66387 0.0
C302 C 0.40035 0.50649 0.78966 0.0
C303 C 0.33659 0.41094 0.7064 0.0
C304 C 0.48909 0.50801 0.66504 0.0
C305 C 0.38282 0.47593 0.5717 0.0
H306 H 0.31481 0.41501 0.80407 0.0
H307 H 0.34691 0.47023 0.84898 0.0
H308 H 0.46723 0.54389 0.81804 0.0
H309 H 0.51703 0.54118 0.75167 0.0
H310 H 0.50149 0.51701 0.56515 0.0
H311 H 0.44233 0.50265 0.51373 0.0
H312 H 0.32423 0.42742 0.54543 0.0
H313 H 0.30095 0.38839 0.61806 0.0
H314 H 0.2916 0.55119 0.66855 0.0
H315 H 0.39625 0.60725 0.65104 0.0
H316 H 0.44397 0.36542 0.62974 0.0
H317 H 0.46093 0.39017 0.7758 0.0
C318 C 0.81526 0.09081 0.45513 0.0
C319 C 0.807 0.07556 0.49812 0.0
C320 C 0.77481 0.08769 0.51224 0.0
C321 C 0.76507 0.10955 0.47704 0.0
N322 N 0.78917 0.11149 0.44197 0.0
Co323 Co 0.78862 0.14264 0.38713 0.0
N324 N 0.7573 0.17452 0.41866 0.0
C325 C 0.73575 0.166 0.45541 0.0
C326 C 0.71722 0.19359 0.47004 0.0
C327 C 0.72785 0.22086 0.44044 0.0
C328 C 0.75254 0.20849 0.40941 0.0
N329 N 0.78923 0.17415 0.33231 0.0
C330 C 0.7833 0.20855 0.33042 0.0
C331 C 0.79117 0.22174 0.28597 0.0
C332 C 0.80123 0.19443 0.25931 0.0
C333 C 0.79923 0.16603 0.2886 0.0
N334 N 0.81985 0.11052 0.35563 0.0
C335 C 0.82521 0.10811 0.30921 0.0
C336 C 0.85113 0.08586 0.29842 0.0
C337 C 0.86283 0.07404 0.34074 0.0
C338 C 0.84306 0.08935 0.37516 0.0
N339 N 0.74541 0.11564 0.36281 0.0
C340 C 0.67828 0.07901 0.34403 0.0
C341 C 0.68389 0.11513 0.33632 0.0
C342 C 0.71748 0.13283 0.34572 0.0
C343 C 0.70794 0.06129 0.35831 0.0
C344 C 0.74125 0.08005 0.36739 0.0
N345 N 0.83062 0.16924 0.41253 0.0
C346 C 0.89255 0.19086 0.40634 0.0
C347 C 0.89254 0.20018 0.45371 0.0
C348 C 0.861 0.19501 0.47975 0.0
C349 C 0.83034 0.17921 0.45856 0.0
C350 C 0.86098 0.17578 0.38612 0.0
H351 H 0.80671 0.17416 0.47997 0.0
H352 H 0.86129 0.1686 0.34961 0.0
H353 H 0.7203 0.16081 0.34115 0.0
H354 H 0.76321 0.06599 0.38016 0.0
C355 C 0.7399 0.13498 0.48059 0.0
C356 C 0.84687 0.0842 0.42607 0.0
C357 C 0.76922 0.2286 0.36976 0.0
C358 C 0.81432 0.13436 0.27958 0.0
H359 H 0.82283 0.05804 0.51744 0.0
H360 H 0.76161 0.08298 0.54567 0.0
H361 H 0.69951 0.19441 0.50003 0.0
H362 H 0.71859 0.24683 0.44161 0.0
H363 H 0.79086 0.24837 0.27395 0.0
H364 H 0.8116 0.19596 0.22395 0.0
H365 H 0.86266 0.08139 0.26433 0.0
H366 H 0.88454 0.05748 0.34561 0.0
H367 H 0.66219 0.1299 0.3241 0.0
H368 H 0.70508 0.03339 0.3646 0.0
H369 H 0.91668 0.19533 0.38521 0.0
H370 H 0.86033 0.2023 0.51641 0.0
C371 C 0.16922 0.58497 0.24764 0.0
C372 C 0.18158 0.5865 0.29348 0.0
C373 C 0.16465 0.55804 0.3163 0.0
C374 C 0.14275 0.54076 0.2834 0.0
N375 N 0.14543 0.55653 0.24147 0.0
Co376 Co 0.11588 0.54344 0.18571 0.0
N377 N 0.07737 0.51855 0.22345 0.0
C378 C 0.08121 0.50694 0.26743 0.0
C379 C 0.0494 0.49175 0.28533 0.0
C380 C 0.02429 0.49383 0.25021 0.0
C381 C 0.04224 0.51003 0.21245 0.0
N382 N 0.08681 0.53082 0.12951 0.0
C383 C 0.0511 0.52105 0.12581 0.0
C384 C 0.04186 0.51406 0.07943 0.0
C385 C 0.07304 0.51984 0.0536 0.0
C386 C 0.09962 0.52985 0.0855 0.0
N387 N 0.15418 0.56893 0.1486 0.0
C388 C 0.16026 0.56468 0.10268 0.0
C389 C 0.18645 0.58896 0.08619 0.0
C390 C 0.1972 0.6096 0.12412 0.0
C391 C 0.17671 0.59683 0.1618 0.0
N392 N 0.13955 0.49963 0.17906 0.0
C393 C 0.17157 0.43621 0.16636 0.0
C394 C 0.19274 0.46759 0.17553 0.0
C395 C 0.1762 0.49894 0.18212 0.0
C396 C 0.13412 0.43756 0.16389 0.0
C397 C 0.1188 0.46922 0.17011 0.0
N398 N 0.0922 0.58632 0.19196 0.0
C399 C 0.07541 0.63947 0.15777 0.0
C400 C 0.06601 0.65159 0.20198 0.0
C401 C 0.06829 0.62972 0.24079 0.0
C402 C 0.08135 0.59705 0.23498 0.0
C403 C 0.08838 0.60674 0.15351 0.0
H404 H 0.08377 0.58093 0.26548 0.0
H405 H 0.09635 0.5984 0.11928 0.0
H406 H 0.19298 0.52266 0.1894 0.0
H407 H 0.08992 0.46901 0.16707 0.0
C408 C 0.11268 0.51713 0.29315 0.0
C409 C 0.1797 0.61043 0.21017 0.0
C410 C 0.02627 0.51555 0.16585 0.0
C411 C 0.13452 0.54502 0.07506 0.0
H412 H 0.19985 0.60648 0.30934 0.0
H413 H 0.16586 0.55247 0.35339 0.0
H414 H 0.04451 0.48198 0.32049 0.0
H415 H 0.99607 0.48469 0.25255 0.0
H416 H 0.01544 0.50552 0.06577 0.0
H417 H 0.07562 0.51837 0.0159 0.0
H418 H 0.19459 0.59285 0.05018 0.0
H419 H 0.2171 0.63182 0.12391 0.0
H420 H 0.22179 0.46788 0.17819 0.0
H421 H 0.11657 0.41434 0.15612 0.0
H422 H 0.07316 0.65531 0.12672 0.0
H423 H 0.06115 0.63818 0.27554 0.0
C424 C 0.88364 0.65486 0.51101 0.0
C425 C 0.88737 0.66931 0.46655 0.0
C426 C 0.86168 0.65192 0.43903 0.0
C427 C 0.84379 0.62797 0.46812 0.0
N428 N 0.85666 0.62892 0.51244 0.0
Co429 Co 0.83719 0.60018 0.56652 0.0
N430 N 0.7974 0.57691 0.52728 0.0
C431 C 0.79419 0.57859 0.48025 0.0
C432 C 0.76369 0.56019 0.46343 0.0
C433 C 0.74556 0.54738 0.50223 0.0
C434 C 0.76642 0.55832 0.5406 0.0
N435 N 0.81594 0.57263 0.62095 0.0
C436 C 0.78256 0.55573 0.62567 0.0
C437 C 0.77706 0.54228 0.67036 0.0
C438 C 0.80764 0.55201 0.69525 0.0
C439 C 0.82983 0.57096 0.6645 0.0
N440 N 0.87724 0.62227 0.60597 0.0
C441 C 0.88479 0.61418 0.65081 0.0
C442 C 0.91423 0.63357 0.66868 0.0
C443 C 0.92622 0.65523 0.63308 0.0
C444 C 0.90334 0.64769 0.59528 0.0
N445 N 0.80671 0.63876 0.58269 0.0
C446 C 0.7761 0.70327 0.59839 0.0
C447 C 0.79607 0.68764 0.63325 0.0
C448 C 0.81026 0.65541 0.62512 0.0
C449 C 0.76948 0.68391 0.55691 0.0
C450 C 0.7851 0.65229 0.5497 0.0
N451 N 0.87 0.56261 0.54959 0.0
C452 C 0.9194 0.52839 0.57288 0.0
C453 C 0.93239 0.52734 0.52685 0.0
C454 C 0.91119 0.54104 0.49206 0.0
C455 C 0.88022 0.55772 0.50394 0.0
C456 C 0.8883 0.54562 0.58324 0.0
H457 H 0.86584 0.56748 0.47538 0.0
H458 H 0.88046 0.54593 0.61902 0.0
H459 H 0.82529 0.64496 0.65303 0.0
H460 H 0.78034 0.63964 0.51656 0.0
C461 C 0.81559 0.60353 0.45475 0.0
C462 C 0.907 0.6658 0.55036 0.0
C463 C 0.75491 0.5529 0.5892 0.0
C464 C 0.86185 0.5906 0.67643 0.0
H465 H 0.90685 0.69006 0.45512 0.0
H466 H 0.85676 0.65611 0.40219 0.0
H467 H 0.75447 0.55835 0.4275 0.0
H468 H 0.71933 0.53294 0.50227 0.0
H469 H 0.75307 0.52775 0.68376 0.0
H470 H 0.81247 0.54711 0.73189 0.0
H471 H 0.92511 0.63273 0.70377 0.0
H472 H 0.94894 0.6747 0.63503 0.0
H473 H 0.80215 0.70051 0.66635 0.0
H474 H 0.75281 0.69313 0.52932 0.0
H475 H 0.93405 0.51742 0.60128 0.0
H476 H 0.91875 0.53949 0.45552 0.0
C477 C 0.24062 0.14869 0.83666 0.0
C478 C 0.25855 0.164 0.87504 0.0
C479 C 0.24558 0.1458 0.91382 0.0
C480 C 0.22046 0.12046 0.89722 0.0
N481 N 0.2173 0.12149 0.85039 0.0
Co482 Co 0.18098 0.09363 0.81216 0.0
N483 N 0.14898 0.08354 0.86677 0.0
C484 C 0.15913 0.08638 0.91198 0.0
C485 C 0.13119 0.07761 0.9423 0.0
C486 C 0.10187 0.06838 0.91431 0.0
C487 C 0.11358 0.07188 0.8682 0.0
N488 N 0.1451 0.06616 0.77295 0.0
C489 C 0.11015 0.05543 0.78201 0.0
C490 C 0.09549 0.0351 0.74532 0.0
C491 C 0.12242 0.03297 0.71267 0.0
C492 C 0.15203 0.05199 0.73105 0.0
N493 N 0.21306 0.1046 0.75819 0.0
C494 C 0.21333 0.08664 0.7178 0.0
C495 C 0.23685 0.10271 0.68571 0.0
C496 C 0.25174 0.13266 0.7074 0.0
C497 C 0.2364 0.13325 0.75155 0.0
N498 N 0.20406 0.04994 0.82475 0.0
C499 C 0.23077 0.9836 0.83456 0.0
C500 C 0.25427 0.01349 0.82504 0.0
C501 C 0.24028 0.04656 0.82008 0.0
C502 C 0.19436 0.98822 0.8411 0.0
C503 C 0.18175 0.02099 0.83609 0.0
N504 N 0.15657 0.13555 0.79967 0.0
C505 C 0.11932 0.16615 0.74789 0.0
C506 C 0.10681 0.18475 0.7859 0.0
C507 C 0.12236 0.18077 0.82999 0.0
C508 C 0.14747 0.15623 0.83605 0.0
C509 C 0.14428 0.14162 0.75556 0.0
H510 H 0.15771 0.15244 0.87078 0.0
H511 H 0.15182 0.12596 0.72633 0.0
H512 H 0.25841 0.06913 0.81149 0.0
H513 H 0.15325 0.02223 0.84007 0.0
C514 C 0.19304 0.10279 0.92409 0.0
C515 C 0.24529 0.16025 0.78752 0.0
C516 C 0.09166 0.06054 0.82695 0.0
C517 C 0.18471 0.06145 0.70753 0.0
H518 H 0.27785 0.18665 0.87547 0.0
H519 H 0.25141 0.15236 0.95003 0.0
H520 H 0.13171 0.07887 0.98019 0.0
H521 H 0.0751 0.05965 0.92652 0.0
H522 H 0.06843 0.02252 0.74282 0.0
H523 H 0.12032 0.01985 0.67911 0.0
H524 H 0.24074 0.09505 0.64968 0.0
H525 H 0.27107 0.15211 0.69232 0.0
H526 H 0.28281 1.01117 0.81998 0.0
H527 H 0.17521 0.96626 0.84941 0.0
H528 H 0.10806 0.1687 0.7132 0.0
H529 H 0.11391 0.19533 0.86002 0.0
C530 C 0.62707 0.3711 0.01793 0.0
C531 C 0.61939 0.3594 0.9727 0.0
C532 C 0.64296 0.37814 0.94374 0.0
C533 C 0.66361 0.40012 0.97279 0.0
N534 N 0.65468 0.39641 0.01852 0.0
Co535 Co 0.67743 0.4233 0.07237 0.0
N536 N 0.71616 0.44636 0.03121 0.0
C537 C 0.71869 0.44373 0.98416 0.0
C538 C 0.74968 0.46041 0.96617 0.0
C539 C 0.7689 0.47304 0.00425 0.0
C540 C 0.74813 0.4638 0.04334 0.0
N541 N 0.70019 0.45088 0.12576 0.0
C542 C 0.73322 0.46864 0.12866 0.0
C543 C 0.73917 0.48359 0.1725 0.0
C544 C 0.70919 0.47394 0.19865 0.0
C545 C 0.68684 0.45364 0.16946 0.0
N546 N 0.64021 0.39933 0.11451 0.0
C547 C 0.63599 0.40507 0.1609 0.0
C548 C 0.60882 0.38378 0.1808 0.0
C549 C 0.59512 0.36299 0.14507 0.0
C550 C 0.61478 0.37294 0.10522 0.0
N551 N 0.70864 0.38476 0.08479 0.0
C552 C 0.74036 0.32129 0.10076 0.0
C553 C 0.7288 0.34138 0.1381 0.0
C554 C 0.71341 0.37291 0.12944 0.0
C555 C 0.7379 0.33509 0.05552 0.0
C556 C 0.72234 0.36668 0.04843 0.0
N557 N 0.64396 0.46106 0.05928 0.0
C558 C 0.58809 0.48632 0.07975 0.0
C559 C 0.58274 0.49699 0.03365 0.0
C560 C 0.61068 0.4926 0.0018 0.0
C561 C 0.64084 0.47509 0.01532 0.0
C562 C 0.61873 0.46926 0.09177 0.0
H563 H 0.66059 0.47235 0.98895 0.0
H564 H 0.62058 0.46207 0.12747 0.0
H565 H 0.70445 0.38689 0.15918 0.0
H566 H 0.72033 0.3755 0.01307 0.0
C567 C 0.69349 0.42218 0.95877 0.0
C568 C 0.60782 0.35714 0.05924 0.0
C569 C 0.76032 0.47031 0.09153 0.0
C570 C 0.65761 0.43115 0.18439 0.0
H571 H 0.59911 0.33915 0.96184 0.0
H572 H 0.64535 0.37545 0.90615 0.0
H573 H 0.75806 0.46179 0.92989 0.0
H574 H 0.79557 0.48657 0.00333 0.0
H575 H 0.76323 0.49868 0.18472 0.0
H576 H 0.70525 0.47908 0.23547 0.0
H577 H 0.59999 0.38342 0.21694 0.0
H578 H 0.57302 0.34292 0.14796 0.0
H579 H 0.73118 0.33269 0.17394 0.0
H580 H 0.74654 0.32096 0.02523 0.0
H581 H 0.56836 0.49061 0.10662 0.0
H582 H 0.60866 0.5012 0.96588 0.0
C583 C 0.27711 0.87435 0.32974 0.0
C584 C 0.25945 0.85937 0.36837 0.0
C585 C 0.27358 0.87722 0.40699 0.0
C586 C 0.29891 0.90219 0.38982 0.0
N587 N 0.30098 0.90122 0.34289 0.0
Co588 Co 0.33653 0.92858 0.30341 0.0
N589 N 0.37034 0.93746 0.35641 0.0
C590 C 0.36143 0.93471 0.40205 0.0
C591 C 0.39041 0.94275 0.43103 0.0
C592 C 0.41907 0.95142 0.40169 0.0
C593 C 0.40597 0.94833 0.35617 0.0
N594 N 0.37175 0.95556 0.26295 0.0
C595 C 0.40716 0.96529 0.27024 0.0
C596 C 0.42118 0.98554 0.23318 0.0
C597 C 0.39335 0.98862 0.20219 0.0
C598 C 0.3639 0.97027 0.22183 0.0
N599 N 0.30245 0.91881 0.25104 0.0
C600 C 0.30149 0.93716 0.21114 0.0
C601 C 0.27696 0.92176 0.17974 0.0
C602 C 0.26215 0.89181 0.20128 0.0
C603 C 0.2783 0.89063 0.24495 0.0
N604 N 0.31493 0.97274 0.31846 0.0
C605 C 0.28956 0.03936 0.33296 0.0
C606 C 0.26538 1.00984 0.32382 0.0
C607 C 0.27868 0.97667 0.31653 0.0
C608 C 0.32612 0.03414 0.33668 0.0
C609 C 0.33806 1.00126 0.32927 0.0
N610 N 0.35932 0.886 0.28859 0.0
C611 C 0.39109 0.85227 0.23369 0.0
C612 C 0.40191 0.83101 0.27004 0.0
C613 C 0.38904 0.83662 0.31534 0.0
C614 C 0.36775 0.86411 0.32381 0.0
C615 C 0.36971 0.87955 0.24369 0.0
H616 H 0.35946 0.86858 0.35931 0.0
H617 H 0.36274 0.89627 0.21539 0.0
H618 H 0.25991 0.95445 0.30841 0.0
H619 H 0.36664 0.99951 0.33118 0.0
C620 C 0.32741 0.91918 0.4157 0.0
C621 C 0.27066 0.8632 0.28078 0.0
C622 C 0.42689 0.95933 0.31396 0.0
C623 C 0.33036 0.96177 0.19995 0.0
H624 H 0.23936 0.8373 0.3686 0.0
H625 H 0.26818 0.87078 0.44332 0.0
H626 H 0.39097 0.94143 0.46889 0.0
H627 H 0.44632 0.95954 0.41263 0.0
H628 H 0.44843 0.99741 0.22936 0.0
H629 H 0.3947 1.00184 0.16878 0.0
H630 H 0.27253 0.92968 0.14398 0.0
H631 H 0.24261 0.87278 0.18584 0.0
H632 H 0.23675 0.01254 0.3208 0.0
H633 H 0.34588 0.05569 0.34463 0.0
H634 H 0.39983 0.84847 0.19799 0.0
H635 H 0.39687 0.82113 0.34471 0.0
C636 C 0.20251 0.43173 0.46838 0.0
C637 C 0.20772 0.44621 0.51258 0.0
C638 C 0.23838 0.43321 0.53044 0.0
C639 C 0.2503 0.41164 0.49615 0.0
N640 N 0.22906 0.41076 0.45809 0.0
Co641 Co 0.2331 0.38031 0.40295 0.0
N642 N 0.26151 0.34744 0.43741 0.0
C643 C 0.28 0.35484 0.47712 0.0
C644 C 0.29658 0.32653 0.49345 0.0
C645 C 0.28792 0.29997 0.46179 0.0
C646 C 0.26632 0.31351 0.4279 0.0
N647 N 0.23617 0.34984 0.34761 0.0
C648 C 0.24331 0.31584 0.34511 0.0
C649 C 0.24342 0.30475 0.2988 0.0
C650 C 0.23657 0.33307 0.27186 0.0
C651 C 0.23222 0.35975 0.3029 0.0
N652 N 0.20476 0.41319 0.36844 0.0
C653 C 0.2035 0.41667 0.32163 0.0
C654 C 0.17898 0.43958 0.30807 0.0
C655 C 0.16407 0.45089 0.34892 0.0
C656 C 0.18053 0.43447 0.38541 0.0
N657 N 0.27813 0.40704 0.38431 0.0
C658 C 0.34568 0.44352 0.36807 0.0
C659 C 0.34056 0.40722 0.36191 0.0
C660 C 0.30681 0.3896 0.37006 0.0
C661 C 0.31562 0.46139 0.38045 0.0
C662 C 0.28211 0.44268 0.38844 0.0
N663 N 0.18917 0.3539 0.42261 0.0
C664 C 0.12776 0.33287 0.4088 0.0
C665 C 0.12434 0.32307 0.45588 0.0
C666 C 0.15395 0.32782 0.48556 0.0
C667 C 0.18606 0.34348 0.4683 0.0
C668 C 0.16079 0.3479 0.39259 0.0
H669 H 0.20803 0.34808 0.49254 0.0
H670 H 0.16324 0.35548 0.35628 0.0
H671 H 0.30425 0.36157 0.3661 0.0
H672 H 0.25966 0.45687 0.39929 0.0
C673 C 0.27431 0.38547 0.50246 0.0
C674 C 0.17322 0.43908 0.43581 0.0
C675 C 0.25265 0.29459 0.38561 0.0
C676 C 0.21795 0.39168 0.29258 0.0
H677 H 0.1908 0.4637 0.53025 0.0
H678 H 0.24904 0.43709 0.5655 0.0
H679 H 0.31157 0.32477 0.52571 0.0
H680 H 0.29634 0.2737 0.46352 0.0
H681 H 0.2482 0.2791 0.28567 0.0
H682 H 0.23395 0.33366 0.23429 0.0
H683 H 0.17068 0.44525 0.27279 0.0
H684 H 0.14278 0.46823 0.35115 0.0
H685 H 0.36265 0.39231 0.35132 0.0
H686 H 0.3182 0.48944 0.38561 0.0
H687 H 0.10519 0.32883 0.38487 0.0
H688 H 0.15201 0.32034 0.52211 0.0
C689 C 0.84448 0.93871 0.23516 0.0
C690 C 0.83182 0.93794 0.28088 0.0
C691 C 0.84762 0.96743 0.30275 0.0
C692 C 0.86918 0.98455 0.26944 0.0
N693 N 0.86738 0.96766 0.22816 0.0
Co694 Co 0.89694 0.98033 0.17237 0.0
N695 N 0.93417 1.00753 0.20957 0.0
C696 C 0.9295 0.02042 0.25272 0.0
C697 C 0.96063 0.03765 0.27002 0.0
C698 C 0.98614 0.03535 0.23533 0.0
C699 C 0.96914 0.01671 0.19876 0.0
N700 N 0.92609 0.9926 0.11607 0.0
C701 C 0.96156 1.00335 0.11263 0.0
C702 C 0.97128 1.00876 0.0661 0.0
C703 C 0.94052 1.00129 0.03992 0.0
C704 C 0.91378 0.99173 0.07176 0.0
N705 N 0.86001 0.95254 0.13566 0.0
C706 C 0.85428 0.95529 0.08944 0.0
C707 C 0.82916 0.92979 0.07349 0.0
C708 C 0.81865 0.90992 0.11212 0.0
C709 C 0.83824 0.9244 0.14966 0.0
N710 N 0.87149 0.02286 0.16354 0.0
C711 C 0.83735 0.08484 0.14825 0.0
C712 C 0.87496 0.08449 0.14621 0.0
C713 C 0.89129 0.05358 0.15357 0.0
C714 C 0.81719 0.05327 0.15946 0.0
C715 C 0.83476 0.0226 0.16695 0.0
N716 N 0.92261 0.93891 0.18115 0.0
C717 C 0.94751 0.88831 0.14959 0.0
C718 C 0.95916 0.87952 0.19429 0.0
C719 C 0.95231 0.90099 0.23224 0.0
C720 C 0.93419 0.93071 0.22486 0.0
C721 C 0.92912 0.91809 0.14379 0.0
H722 H 0.92949 0.94703 0.25458 0.0
H723 H 0.92 0.92422 0.10918 0.0
H724 H 0.92024 0.05466 0.15091 0.0
H725 H 0.81872 0.9986 0.17506 0.0
C726 C 0.89826 1.00958 0.27848 0.0
C727 C 0.83508 0.91212 0.19855 0.0
C728 C 0.98574 1.01012 0.15304 0.0
C729 C 0.87957 0.97501 0.06139 0.0
H730 H 0.81409 0.91784 0.2973 0.0
H731 H 0.8459 0.97393 0.33954 0.0
H732 H 0.96481 0.04905 0.30449 0.0
H733 H 0.01395 0.04611 0.23672 0.0
H734 H 0.99774 0.01703 0.05245 0.0
H735 H 0.93842 1.00112 0.0021 0.0
H736 H 0.82176 0.92468 0.03741 0.0
H737 H 0.7995 0.8871 0.11251 0.0
H738 H 0.89205 0.10811 0.13913 0.0
H739 H 0.78806 0.05201 0.1615 0.0
H740 H 0.95205 0.872 0.11951 0.0
H741 H 0.96124 0.89508 0.26723 0.0
C742 C 0.31363 0.59166 0.96371 0.0
C743 C 0.30721 0.57716 0.00769 0.0
C744 C 0.27514 0.58862 0.02323 0.0
C745 C 0.26369 0.60965 0.98821 0.0
N746 N 0.28674 0.61184 0.95188 0.0
Co747 Co 0.28369 0.6427 0.89698 0.0
N748 N 0.25225 0.67369 0.92993 0.0
C749 C 0.23227 0.66516 0.96802 0.0
C750 C 0.21413 0.6927 0.98385 0.0
C751 C 0.22348 0.71996 0.95364 0.0
C752 C 0.24698 0.70757 0.92108 0.0
N753 N 0.28129 0.6735 0.8419 0.0
C754 C 0.27416 0.70749 0.8403 0.0
C755 C 0.27825 0.72034 0.79508 0.0
C756 C 0.28811 0.69322 0.76779 0.0
C757 C 0.28928 0.66521 0.79751 0.0
N758 N 0.3154 0.61202 0.86409 0.0
C759 C 0.31913 0.60915 0.81744 0.0
C760 C 0.34468 0.58673 0.80549 0.0
C761 C 0.35779 0.57528 0.84733 0.0
C762 C 0.33955 0.59141 0.8825 0.0
N763 N 0.24065 0.61423 0.87485 0.0
C764 C 0.17405 0.57614 0.85749 0.0
C765 C 0.1786 0.61232 0.85019 0.0
C766 C 0.21185 0.63073 0.85894 0.0
C767 C 0.20443 0.55908 0.87081 0.0
C768 C 0.2375 0.5786 0.87926 0.0
N769 N 0.32527 0.6714 0.91985 0.0
C770 C 0.37816 0.70945 0.90467 0.0
C771 C 0.37831 0.72081 0.9513 0.0
C772 C 0.35269 0.70587 0.9824 0.0
C773 C 0.32628 0.68129 0.96591 0.0
C774 C 0.35153 0.6843 0.88971 0.0
H775 H 0.30591 0.67129 0.99021 0.0
H776 H 0.35142 0.67609 0.85357 0.0
H777 H 0.21373 0.65872 0.8547 0.0
H778 H 0.26014 0.56511 0.89116 0.0
C779 C 0.23806 0.63452 0.99309 0.0
C780 C 0.34477 0.58609 0.93301 0.0
C781 C 0.26263 0.72757 0.88085 0.0
C782 C 0.30563 0.63421 0.7878 0.0
H783 H 0.32415 0.56096 0.02735 0.0
H784 H 0.26331 0.58434 0.05757 0.0
H785 H 0.19777 0.69357 0.01511 0.0
H786 H 0.2144 0.74598 0.95559 0.0
H787 H 0.27532 0.74669 0.78316 0.0
H788 H 0.29625 0.69481 0.73154 0.0
H789 H 0.35452 0.58128 0.77076 0.0
H790 H 0.37884 0.55778 0.85169 0.0
H791 H 0.15632 0.62661 0.83872 0.0
H792 H 0.20233 0.53113 0.87668 0.0
H793 H 0.39836 0.72 0.88004 0.0
H794 H 0.35238 0.71393 0.01879 0.0
C795 C 0.66814 0.08363 0.74116 0.0
C796 C 0.67964 0.08358 0.78736 0.0
C797 C 0.66372 0.05345 0.80739 0.0
C798 C 0.64322 0.03677 0.7726 0.0
N799 N 0.64577 0.05459 0.73213 0.0
Co800 Co 0.61783 0.04276 0.67467 0.0
N801 N 0.58007 0.01432 0.70931 0.0
C802 C 0.58407 1.00024 0.75187 0.0
C803 C 0.55284 0.98207 0.76719 0.0
C804 C 0.52802 0.98497 0.73185 0.0
C805 C 0.54547 1.0049 0.69688 0.0
N806 N 0.59002 0.03164 0.61689 0.0
C807 C 0.55467 0.0207 0.61179 0.0
C808 C 0.54604 0.01641 0.56472 0.0
C809 C 0.57734 0.02478 0.53995 0.0
C810 C 0.60331 0.03375 0.57309 0.0
N811 N 0.65558 0.07146 0.64054 0.0
C812 C 0.66245 0.06973 0.59445 0.0
C813 C 0.68798 0.0956 0.58059 0.0
C814 C 0.69753 0.11454 0.6204 0.0
C815 C 0.67697 0.09927 0.6565 0.0
N816 N 0.64403 1.00073 0.66507 0.0
C817 C 0.68002 0.93993 0.64869 0.0
C818 C 0.64259 0.93988 0.64306 0.0
C819 C 0.62527 0.97021 0.65145 0.0
C820 C 0.69899 0.97122 0.66364 0.0
C821 C 0.68056 1.00132 0.6714 0.0
N822 N 0.59166 0.08389 0.68405 0.0
C823 C 0.57302 0.13808 0.65512 0.0
C824 C 0.55977 0.14568 0.69939 0.0
C825 C 0.5615 0.12146 0.7355 0.0
C826 C 0.57786 0.09072 0.72717 0.0
C827 C 0.58846 0.10675 0.64799 0.0
H828 H 0.5801 0.07286 0.75588 0.0
H829 H 0.59865 0.1014 0.61362 0.0
H830 H 0.59645 0.96887 0.6467 0.0
H831 H 0.69581 0.02516 0.68222 0.0
C832 C 0.61456 1.01082 0.77937 0.0
C833 C 0.67855 0.11083 0.70581 0.0
C834 C 0.52964 0.01251 0.65105 0.0
C835 C 0.63775 0.05074 0.56467 0.0
H836 H 0.6968 0.10346 0.80521 0.0
H837 H 0.66476 0.04613 0.84393 0.0
H838 H 0.5481 0.96963 0.80086 0.0
H839 H 0.50035 0.97376 0.73178 0.0
H840 H 0.51997 1.00823 0.5498 0.0
H841 H 0.58029 0.02582 0.50225 0.0
H842 H 0.69633 0.10174 0.54517 0.0
H843 H 0.71656 0.13739 0.62245 0.0
H844 H 0.62648 0.91635 0.63266 0.0
H845 H 0.72794 0.97269 0.66847 0.0
H846 H 0.57161 0.1563 0.62637 0.0
H847 H 0.55132 0.12674 0.77013 0.0
H848 H 0.60418 0.91439 0.91936 0.0
H849 H 0.50009 0.05112 0.07121 0.0
H850 H 0.65856 0.99952 0.99664 0.0
H851 H 0.44602 0.97851 0.97368 0.0
H852 H 0.55776 0.02966 0.04896 0.0
H853 H 0.54594 0.93494 0.94228 0.0
C854 C 0.60385 0.93706 0.94186 0.0
C855 C 0.63642 0.95427 0.9577 0.0
C856 C 0.53332 0.01835 0.03241 0.0
C857 C 0.56959 0.97851 0.9837 0.0
C858 C 0.50018 0.03042 0.04539 0.0
C859 C 0.46774 0.01662 0.02456 0.0
C860 C 0.53446 0.99193 0.99841 0.0
C861 C 0.47011 0.99026 0.99057 0.0
C862 C 0.57057 0.94891 0.95478 0.0
C863 C 0.6343 0.98426 0.98556 0.0
N864 N 0.50271 0.97875 0.97877 0.0
N865 N 0.6016 0.99526 0.99783 0.0
H866 H 0.77176 0.88774 0.24291 0.0
H867 H 0.81075 0.68408 0.2301 0.0
H868 H 0.86643 0.85173 0.17827 0.0
H869 H 0.71557 0.72031 0.29314 0.0
H870 H 0.83144 0.74479 0.21042 0.0
H871 H 0.75076 0.82691 0.26136 0.0
C872 C 0.78834 0.86704 0.23304 0.0
C873 C 0.8213 0.87501 0.20982 0.0
C874 C 0.80589 0.73955 0.22826 0.0
C875 C 0.79701 0.80474 0.23009 0.0
C876 C 0.7939 0.70475 0.23914 0.0
C877 C 0.76088 0.69687 0.26231 0.0
C878 C 0.78495 0.76703 0.24092 0.0
C879 C 0.74098 0.72507 0.2748 0.0
C880 C 0.77621 0.83219 0.2433 0.0
C881 C 0.841 0.84686 0.19655 0.0
N882 N 0.75319 0.75867 0.2639 0.0
N883 N 0.82871 0.81319 0.20698 0.0
H884 H 0.05205 0.05088 0.56502 0.0
H885 H 0.86985 0.0185 0.41317 0.0
H886 H 0.03424 0.96895 0.46206 0.0
H887 H 0.89862 0.1157 0.48454 0.0
H888 H 0.9269 0.99692 0.43881 0.0
H889 H 0.99365 0.07216 0.54369 0.0
C890 C 0.03593 0.03726 0.53805 0.0
C891 C 0.04855 1.00809 0.51519 0.0
C892 C 0.92081 0.02294 0.44909 0.0
C893 C 0.98108 0.03228 0.49082 0.0
C894 C 0.88816 0.03525 0.43448 0.0
C895 C 0.87965 0.06916 0.44612 0.0
C896 C 0.94519 0.04438 0.47643 0.0
C897 C 0.90416 0.08944 0.47461 0.0
C898 C 1.00257 0.04955 0.52576 0.0
C899 C 0.0262 0.99179 0.48029 0.0
N900 N 0.93577 0.07684 0.48865 0.0
N901 N 0.99377 1.00393 0.46945 0.0
H902 H 0.74001 0.13513 0.75471 0.0
H903 H 0.70313 0.33901 0.73582 0.0
H904 H 0.64835 0.17124 0.68332 0.0
H905 H 0.79799 0.30324 0.80001 0.0
H906 H 0.68209 0.27811 0.71755 0.0
H907 H 0.76091 0.19606 0.77322 0.0
C908 C 0.72395 0.15585 0.74356 0.0
C909 C 0.69184 0.14789 0.7184 0.0
C910 C 0.70764 0.28348 0.73535 0.0
C911 C 0.71613 0.21827 0.73857 0.0
C912 C 0.71986 0.3184 0.74539 0.0
C913 C 0.75292 0.32647 0.76841 0.0
C914 C 0.72836 0.25606 0.74878 0.0
C915 C 0.77256 0.29833 0.78177 0.0
C916 C 0.73607 0.19076 0.75378 0.0
C917 C 0.67297 0.17609 0.70332 0.0
N918 N 0.76012 0.26461 0.7717 0.0
N919 N 0.68522 0.2098 0.71373 0.0
H920 H 0.31326 0.19334 0.80348 0.0
H921 H 0.2687 0.37764 0.69035 0.0
H922 H 0.21099 0.21037 0.74093 0.0
H923 H 0.37186 0.35997 0.74988 0.0
H924 H 0.24719 0.31685 0.70833 0.0
H925 H 0.33524 0.25381 0.78415 0.0
C926 C 0.29532 0.2099 0.78595 0.0
C927 C 0.25996 0.19684 0.77458 0.0
C928 C 0.2746 0.32611 0.71733 0.0
C929 C 0.28519 0.26645 0.75155 0.0
C930 C 0.28699 0.36085 0.70674 0.0
C931 C 0.32243 0.37389 0.71774 0.0
C932 C 0.29763 0.30392 0.73955 0.0
C933 C 0.34443 0.35106 0.74045 0.0
C934 C 0.30795 0.24447 0.77468 0.0
C935 C 0.23834 0.21935 0.75066 0.0
N936 N 0.3318 0.31738 0.75041 0.0
N937 N 0.25115 0.25289 0.74021 0.0
H938 H 0.20597 0.83879 0.23895 0.0
H939 H 0.24306 0.63479 0.25463 0.0
H940 H 0.30251 0.80275 0.29826 0.0
H941 H 0.14978 0.67105 0.18718 0.0
H942 H 0.26481 0.69573 0.27176 0.0
H943 H 0.1846 0.77798 0.22054 0.0
C944 C 0.22299 0.81815 0.24742 0.0
C945 C 0.2566 0.82614 0.26911 0.0
C946 C 0.23949 0.69048 0.25336 0.0
C947 C 0.23169 0.7558 0.24929 0.0
C948 C 0.22694 0.65557 0.24383 0.0
C949 C 0.19412 0.64763 0.22024 0.0
C950 C 0.21922 0.71802 0.23914 0.0
C951 C 0.17502 0.67587 0.20583 0.0
C952 C 0.21059 0.78328 0.23728 0.0
C953 C 0.27663 0.79793 0.28108 0.0
N954 N 0.18767 0.70959 0.21565 0.0
N955 N 0.264 0.76426 0.27097 0.0
H956 H 0.96315 0.46962 0.56317 0.0
H957 H 0.14935 0.5042 0.42035 0.0
H958 H 0.98392 0.55351 0.46408 0.0
H959 H 0.1195 0.40687 0.49039 0.0
H960 H 0.09114 0.52504 0.44257 0.0
H961 H 0.02197 0.44857 0.54351 0.0
C962 C 0.97999 0.48372 0.53739 0.0
C963 C 0.96809 0.51339 0.51515 0.0
C964 C 0.09719 0.4991 0.45317 0.0
C965 C 0.03604 0.4894 0.49262 0.0
C966 C 0.13045 0.48716 0.44034 0.0
C967 C 0.13905 0.45344 0.45265 0.0
C968 C 0.07229 0.47752 0.47947 0.0
C969 C 0.11389 0.43296 0.47989 0.0
C970 C 0.0136 0.47155 0.52602 0.0
C971 C 0.99137 0.53026 0.48175 0.0
N972 N 0.08172 0.44523 0.49227 0.0
N973 N 0.02401 0.51819 0.47177 0.0
H974 H 0.35561 0.52435 0.97916 0.0
H975 H 0.57216 0.55145 0.97281 0.0
H976 H 0.41326 0.61682 0.9229 0.0
H977 H 0.51345 0.47504 0.06045 0.0
H978 H 0.51469 0.57321 0.94896 0.0
H979 H 0.41312 0.50363 0.00458 0.0
C980 C 0.38028 0.54071 0.97314 0.0
C981 C 0.3794 0.57304 0.9504 0.0
C982 C 0.5144 0.55175 0.97354 0.0
C983 C 0.44588 0.5486 0.97747 0.0
C984 C 0.54728 0.53916 0.98704 0.0
C985 C 0.54798 0.51137 0.01902 0.0
C986 C 0.48165 0.53622 0.99149 0.0
C987 C 0.51457 0.4968 0.03632 0.0
C988 C 0.41324 0.52865 0.98715 0.0
C989 C 0.4126 0.59205 0.94109 0.0
N990 N 0.48299 0.50921 0.02223 0.0
N991 N 0.44435 0.57962 0.95457 0.0
H992 H 0.23278 0.42354 0.1165 0.0
H993 H 0.21982 0.21802 0.1711 0.0
H994 H 0.14725 0.37094 0.19833 0.0
H995 H 0.28392 0.26445 0.05798 0.0
H996 H 0.19707 0.27495 0.18697 0.0
H997 H 0.25628 0.36677 0.1006 0.0
C998 C 0.21907 0.40016 0.13143 0.0
C999 C 0.18782 0.4022 0.15867 0.0
C1000 C 0.21598 0.27265 0.15851 0.0
C1001 C 0.21442 0.33692 0.14009 0.0
C1002 C 0.22916 0.24014 0.14957 0.0
C1003 C 0.25378 0.2362 0.11296 0.0
C1004 C 0.22776 0.3018 0.1311 0.0
C1005 C 0.26463 0.26599 0.08613 0.0
C1006 C 0.23229 0.36769 0.1219 0.0
C1007 C 0.17106 0.37078 0.17657 0.0
N1008 N 0.25174 0.29745 0.09587 0.0
N1009 N 0.18449 0.33961 0.16696 0.0
H1010 H 0.4098 0.42188 0.39887 0.0
H1011 H 0.53402 0.58471 0.29458 0.0
H1012 H 0.36577 0.50737 0.32685 0.0
H1013 H 0.57487 0.49842 0.36783 0.0
H1014 H 0.47212 0.55799 0.30644 0.0
H1015 H 0.47015 0.4506 0.38867 0.0
C1016 C 0.4128 0.44665 0.3806 0.0
C1017 C 0.3825 0.46195 0.36322 0.0
C1018 C 0.49459 0.54498 0.32014 0.0
C1019 C 0.45212 0.49544 0.35172 0.0
C1020 C 0.5298 0.56023 0.31339 0.0
C1021 C 0.55931 0.54387 0.33085 0.0
C1022 C 0.48901 0.51304 0.34424 0.0
C1023 C 0.55269 0.51201 0.35444 0.0
C1024 C 0.44739 0.46318 0.37501 0.0
C1025 C 0.38825 0.49459 0.34093 0.0
N1026 N 0.51832 0.49769 0.36048 0.0
N1027 N 0.42234 0.51014 0.3356 0.0
H1028 H 0.21314 0.76543 0.66031 0.0
H1029 H 0.36524 0.63665 0.59641 0.0
H1030 H 0.29979 0.79052 0.56236 0.0
H1031 H 0.27735 0.60784 0.6912 0.0
H1032 H 0.34046 0.69235 0.58288 0.0
H1033 H 0.23551 0.70787 0.67215 0.0
C1034 C 0.23698 0.75909 0.64143 0.0
C1035 C 0.25446 0.7833 0.61015 0.0
C1036 C 0.32646 0.67388 0.60657 0.0
C1037 C 0.27993 0.71662 0.62309 0.0
C1038 C 0.34084 0.64194 0.6148 0.0
C1039 C 0.32409 0.61734 0.64613 0.0
C1040 C 0.29466 0.6817 0.62933 0.0
C1041 C 0.29152 0.62568 0.66691 0.0
C1042 C 0.24954 0.72594 0.64794 0.0
C1043 C 0.28492 0.77289 0.58629 0.0
N1044 N 0.27799 0.65706 0.65823 0.0
N1045 N 0.29659 0.74058 0.5933 0.0
H1046 H 0.98539 0.43254 0.79019 0.0
H1047 H 0.10991 0.59793 0.88787 0.0
H1048 H 0.94511 0.52026 0.86134 0.0
H1049 H 0.15413 0.51108 0.81873 0.0
H1050 H 0.04969 0.56875 0.87901 0.0
H1051 H 0.0474 0.45962 0.80034 0.0
C1052 C 0.98975 0.45741 0.80817 0.0
C1053 C 0.96034 0.47405 0.82557 0.0
C1054 C 0.07244 0.55595 0.86566 0.0
C1055 C 0.03079 0.5053 0.837 0.0
C1056 C 0.10698 0.57275 0.87048 0.0
C1057 C 0.13732 0.55724 0.85347 0.0
C1058 C 0.06774 0.52317 0.84356 0.0
C1059 C 0.13163 0.52406 0.83242 0.0
C1060 C 0.02502 0.47286 0.81395 0.0
C1061 C 0.96717 0.50642 0.84803 0.0
N1062 N 0.09754 0.50823 0.82782 0.0
N1063 N 1.00157 0.52091 0.85314 0.0
H1064 H 0.81448 0.59748 0.78648 0.0
H1065 H 0.7031 0.73591 0.92506 0.0
H1066 H 0.72962 0.56495 0.88366 0.0
H1067 H 0.79242 0.76337 0.83275 0.0
H1068 H 0.70954 0.67352 0.909 0.0
H1069 H 0.80285 0.65813 0.7995 0.0
C1070 C 0.79304 0.60307 0.8103 0.0
C1071 C 0.77312 0.57586 0.83414 0.0
C1072 C 0.72765 0.69319 0.89216 0.0
C1073 C 0.75988 0.64618 0.85004 0.0
C1074 C 0.72404 0.72873 0.90143 0.0
C1075 C 0.74701 0.75477 0.87977 0.0
C1076 C 0.75455 0.68365 0.86107 0.0
C1077 C 0.77388 0.74414 0.84973 0.0
C1078 C 0.7865 0.6379 0.81794 0.0
C1079 C 0.74554 0.58498 0.86437 0.0
N1080 N 0.77679 0.70958 0.84121 0.0
N1081 N 0.73995 0.61936 0.87181 0.0
H1082 H 0.53484 0.46086 0.63438 0.0
H1083 H 0.71122 0.59769 0.63039 0.0
H1084 H 0.53363 0.56877 0.6751 0.0
H1085 H 0.71023 0.49262 0.57733 0.0
H1086 H 0.64705 0.58686 0.65071 0.0
H1087 H 0.59952 0.47102 0.6167 0.0
C1088 C 0.54838 0.48659 0.64017 0.0
C1089 C 0.52904 0.51376 0.65736 0.0
C1090 C 0.66074 0.56612 0.63457 0.0
C1091 C 0.6031 0.52588 0.63655 0.0
C1092 C 0.69736 0.57233 0.62302 0.0
C1093 C 0.71585 0.54613 0.60174 0.0
C1094 C 0.64239 0.53329 0.62514 0.0
C1095 C 0.69679 0.51362 0.59323 0.0
C1096 C 0.58527 0.49245 0.62992 0.0
C1097 C 0.54772 0.54682 0.66327 0.0
N1098 N 0.66118 0.50814 0.60487 0.0
N1099 N 0.58361 0.55191 0.65302 0.0
H1100 H 0.797 0.28053 0.429 0.0
H1101 H 0.75023 0.4381 0.26269 0.0
H1102 H 0.73364 0.265 0.30333 0.0
H1103 H 0.75821 0.45192 0.41207 0.0
H1104 H 0.75776 0.37563 0.27261 0.0
H1105 H 0.79447 0.34425 0.42044 0.0
C1106 C 0.78272 0.29053 0.39953 0.0
C1107 C 0.76639 0.26739 0.36612 0.0
C1108 C 0.75845 0.39242 0.30319 0.0
C1109 C 0.76392 0.34019 0.35565 0.0
C1110 C 0.75451 0.42817 0.29747 0.0
C1111 C 0.75401 0.45036 0.33653 0.0
C1112 C 0.76242 0.37866 0.34834 0.0
C1113 C 0.75906 0.43581 0.38097 0.0
C1114 C 0.78136 0.32684 0.39461 0.0
C1115 C 0.74773 0.28182 0.32901 0.0
N1116 N 0.76314 0.40095 0.3857 0.0
N1117 N 0.74745 0.31714 0.32442 0.0
H1118 H 0.98094 0.56221 0.13277 0.0
H1119 H 0.80372 0.42655 0.13496 0.0
H1120 H 0.98169 0.45498 0.17627 0.0
H1121 H 0.80553 0.52963 0.07559 0.0
H1122 H 0.86807 0.43743 0.1542 0.0
H1123 H 0.91627 0.55191 0.11493 0.0
C1124 C 0.96731 0.53659 0.13904 0.0
C1125 C 0.98648 0.50967 0.15714 0.0
C1126 C 0.85453 0.4577 0.13685 0.0
C1127 C 0.91247 0.49742 0.13631 0.0
C1128 C 0.81782 0.45147 0.12592 0.0
C1129 C 0.79952 0.47707 0.10318 0.0
C1130 C 0.87314 0.48999 0.12538 0.0
C1131 C 0.81885 0.50906 0.09261 0.0
C1132 C 0.93044 0.53066 0.12873 0.0
C1133 C 0.96772 0.47675 0.16369 0.0
N1134 N 0.85454 0.51461 0.10374 0.0
N1135 N 0.93185 0.4716 0.15348 0.0
H1136 H 0.75925 0.75103 0.53009 0.0
H1137 H 0.73583 0.91305 0.69728 0.0
H1138 H 0.76391 0.74025 0.68082 0.0
H1139 H 0.66673 0.89225 0.57738 0.0
H1140 H 0.76215 0.85723 0.68317 0.0
H1141 H 0.73841 0.80894 0.54063 0.0
C1142 C 0.75575 0.76021 0.56547 0.0
C1143 C 0.76329 0.7395 0.60452 0.0
C1144 C 0.74105 0.86496 0.66025 0.0
C1145 C 0.74104 0.80768 0.61633 0.0
C1146 C 0.72626 0.89697 0.66793 0.0
C1147 C 0.69847 0.90732 0.639 0.0
C1148 C 0.72802 0.84303 0.6235 0.0
C1149 C 0.68737 0.88513 0.60141 0.0
C1150 C 0.74419 0.79376 0.57126 0.0
C1151 C 0.75926 0.75463 0.64924 0.0
N1152 N 0.70205 0.85413 0.59485 0.0
N1153 N 0.74871 0.78769 0.65382 0.0
H1154 H 0.90823 0.91665 0.90065 0.0
H1155 H 0.02731 0.08492 0.80142 0.0
H1156 H 0.86169 1.00337 0.83471 0.0
H1157 H 0.07199 0.99752 0.86737 0.0
H1158 H 0.96634 0.05602 0.81313 0.0
H1159 H 0.96818 0.9462 0.8888 0.0
C1160 C 0.91055 0.9418 0.88334 0.0
C1161 C 0.87963 0.95732 0.86842 0.0
C1162 C 0.98944 0.04318 0.82518 0.0
C1163 C 0.94872 0.99173 0.85508 0.0
C1164 C 0.02413 0.05967 0.81848 0.0
C1165 C 0.05445 0.04366 0.83395 0.0
C1166 C 0.98515 1.01033 0.84728 0.0
C1167 C 0.04914 1.01082 0.85545 0.0
C1168 C 0.94491 0.95882 0.87683 0.0
C1169 C 0.88459 0.99042 0.84715 0.0
N1170 N 0.01523 0.9953 0.86155 0.0
N1171 N 0.91838 1.00642 0.84101 0.0
H1172 H 0.85818 0.13569 0.08384 0.0
H1173 H 0.71722 0.27076 0.16553 0.0
H1174 H 0.77665 0.11015 0.18865 0.0
H1175 H 0.79439 0.29047 0.05382 0.0
H1176 H 0.73847 0.21253 0.1757 0.0
H1177 H 0.83423 0.19207 0.07256 0.0
C1178 C 0.8353 0.14189 0.10479 0.0
C1179 C 0.82012 0.11808 0.13821 0.0
C1180 C 0.75062 0.22957 0.14884 0.0
C1181 C 0.79177 0.1832 0.12447 0.0
C1182 C 0.73876 0.26308 0.14326 0.0
C1183 C 0.75388 0.28593 0.1086 0.0
C1184 C 0.77792 0.21857 0.11963 0.0
C1185 C 0.78138 0.2739 0.08051 0.0
C1186 C 0.82141 0.17419 0.09797 0.0
C1187 C 0.7895 0.12749 0.16267 0.0
N1188 N 0.79242 0.24127 0.08668 0.0
N1189 N 0.77649 0.15931 0.1555 0.0
H1190 H 0.48963 0.93382 0.28371 0.0
H1191 H 0.614 0.10259 0.37135 0.0
H1192 H 0.44934 0.02173 0.35441 0.0
H1193 H 0.6579 0.01335 0.3077 0.0
H1194 H 0.55367 0.07317 0.36417 0.0
H1195 H 0.5514 0.96199 0.29096 0.0
C1196 C 0.49395 0.95897 0.301 0.0
C1197 C 0.46463 0.97535 0.31908 0.0
C1198 C 0.57641 0.05993 0.35165 0.0
C1199 C 0.5348 1.00791 0.3271 0.0
C1200 C 0.61099 0.07689 0.35543 0.0
C1201 C 0.64129 0.06068 0.33967 0.0
C1202 C 0.57165 0.02633 0.33186 0.0
C1203 C 0.63547 0.02688 0.32049 0.0
C1204 C 0.52909 0.97505 0.3051 0.0
C1205 C 0.47138 1.0081 0.34059 0.0
N1206 N 0.60139 1.01091 0.31696 0.0
N1207 N 0.50567 0.02325 0.34403 0.0
H1208 H 0.23348 0.06468 0.38387 0.0
H1209 H 0.30722 0.26522 0.34017 0.0
H1210 H 0.32125 0.0981 0.29142 0.0
H1211 H 0.20908 0.2377 0.41615 0.0
H1212 H 0.31318 0.20316 0.32501 0.0
H1213 H 0.223 0.12661 0.39732 0.0
C1214 C 0.25016 0.0849 0.36588 0.0
C1215 C 0.27855 0.076 0.33686 0.0
C1216 C 0.29026 0.21047 0.34505 0.0
C1217 C 0.26716 0.14692 0.35265 0.0
C1218 C 0.28701 0.24594 0.35384 0.0
C1219 C 0.25756 0.25653 0.3792 0.0
C1220 C 0.26402 0.18505 0.36208 0.0
C1221 C 0.23216 0.23051 0.39635 0.0
C1222 C 0.24438 0.12027 0.37386 0.0
C1223 C 0.29943 0.1035 0.31471 0.0
N1224 N 0.23593 0.19597 0.3875 0.0
N1225 N 0.29351 0.13739 0.32332 0.0
H1226 H 0.03792 0.96589 0.17046 0.0
H1227 H 0.2011 0.09875 0.07691 0.0
H1228 H 0.02344 0.06904 0.11894 0.0
H1229 H 0.21496 0.9935 0.12084 0.0
H1230 H 0.13619 0.08869 0.09281 0.0
H1231 H 0.10301 0.97589 0.15484 0.0
C1232 C 0.04861 0.99072 0.15608 0.0
C1233 C 0.02548 0.01668 0.14591 0.0
C1234 C 0.15337 0.06779 0.09926 0.0
C1235 C 0.09977 0.02841 0.12763 0.0
C1236 C 0.19039 0.07355 0.09013 0.0
C1237 C 0.21349 0.04717 0.09853 0.0
C1238 C 0.13915 0.03529 0.11685 0.0
C1239 C 0.19821 0.01482 0.11501 0.0
C1240 C 0.08568 0.99642 0.14698 0.0
C1241 C 0.0405 0.04839 0.1272 0.0
N1242 N 0.16211 1.00985 0.12385 0.0
N1243 N 0.07662 0.05335 0.11861 0.0
H1244 H 0.21016 0.75838 0.83362 0.0
H1245 H 0.28594 0.95724 0.88566 0.0
H1246 H 0.30607 0.7832 0.91538 0.0
H1247 H 0.20018 0.92628 0.78892 0.0
H1248 H 0.29534 0.89491 0.89764 0.0
H1249 H 0.206 0.82078 0.81941 0.0
C1250 C 0.23015 0.77717 0.84892 0.0
C1251 C 0.25839 0.76576 0.87576 0.0
C1252 C 0.27475 0.90189 0.87342 0.0
C1253 C 0.25416 0.83755 0.85949 0.0
C1254 C 0.26964 0.93746 0.86624 0.0
C1255 C 0.24214 0.9471 0.83637 0.0
C1256 C 0.25213 0.87584 0.85061 0.0
C1257 C 0.22154 0.92023 0.81254 0.0
C1258 C 0.22799 0.81281 0.84061 0.0
C1259 C 0.28378 0.7911 0.89466 0.0
N1260 N 0.22674 0.88613 0.82045 0.0
N1261 N 0.2811 0.82583 0.88621 0.0
H1262 H 0.29795 0.02796 0.62143 0.0
H1263 H 0.49429 0.95431 0.61119 0.0
H1264 H 0.31574 0.92402 0.57507 0.0
H1265 H 0.47531 0.05389 0.67163 0.0
H1266 H 0.42932 0.94333 0.59573 0.0
H1267 H 0.36275 0.03879 0.63799 0.0
C1268 C 0.3155 1.0073 0.61523 0.0
C1269 C 0.30134 0.97476 0.5979 0.0
C1270 C 0.43923 0.96759 0.61244 0.0
C1271 C 0.37584 0.98718 0.61565 0.0
C1272 C 0.4763 0.97382 0.62121 0.0
C1273 C 0.49007 1.0051 0.64248 0.0
C1274 C 0.4156 0.99285 0.62499 0.0
C1275 C 0.46569 0.02949 0.65505 0.0
C1276 C 0.35254 0.01352 0.62444 0.0
C1277 C 0.32551 0.94931 0.58901 0.0
N1278 N 0.42973 0.02294 0.646 0.0
N1279 N 0.36143 0.956 0.59802 0.0
H1280 H 0.47799 0.15979 0.07294 0.0
H1281 H 0.53901 0.36251 0.02993 0.0
H1282 H 0.40354 0.23688 0.04299 0.0
H1283 H 0.61099 0.28808 0.07822 0.0
H1284 H 0.48982 0.31575 0.02697 0.0
H1285 H 0.52814 0.20536 0.06787 0.0
C1286 C 0.47241 0.18642 0.06519 0.0
C1287 C 0.43691 0.19495 0.05866 0.0
C1288 C 0.51639 0.30954 0.03796 0.0
C1289 C 0.49366 0.24698 0.05259 0.0
C1290 C 0.54432 0.33612 0.03945 0.0
C1291 C 0.57872 0.32874 0.05417 0.0
C1292 C 0.5231 0.27546 0.05135 0.0
C1293 C 0.58464 0.29446 0.06655 0.0
C1294 C 0.50087 0.21236 0.06229 0.0
C1295 C 0.43071 0.22956 0.04837 0.0
N1296 N 0.55702 0.269 0.06496 0.0
N1297 N 0.45886 0.25442 0.04574 0.0
H1298 H 0.46171 0.83759 0.21341 0.0
H1299 H 0.54948 0.67899 0.3333 0.0
H1300 H 0.40424 0.76599 0.30914 0.0
H1301 H 0.59461 0.72919 0.20906 0.0
H1302 H 0.49658 0.712 0.32554 0.0
H1303 H 0.51037 0.7987 0.20984 0.0
C1304 C 0.45893 0.81338 0.23297 0.0
C1305 C 0.42893 0.80526 0.26207 0.0
C1306 C 0.51793 0.71577 0.29981 0.0
C1307 C 0.48502 0.76116 0.259 0.0
C1308 C 0.54828 0.69722 0.30452 0.0
C1309 C 0.57659 0.70182 0.27213 0.0
C1310 C 0.51596 0.73945 0.26271 0.0
C1311 C 0.57335 0.72509 0.23485 0.0
C1312 C 0.48689 0.79133 0.23115 0.0
C1313 C 0.42717 0.77373 0.28709 0.0
N1314 N 0.54367 0.74338 0.23138 0.0
N1315 N 0.45502 0.75308 0.28541 0.0
H1316 H 0.11388 0.78597 0.54498 0.0
H1317 H 0.90029 0.73577 0.54684 0.0
H1318 H 0.0353 0.86212 0.54973 0.0
H1319 H 0.97898 0.65978 0.54062 0.0
H1320 H 0.94919 0.78275 0.54292 0.0
H1321 H 0.06482 0.73932 0.53873 0.0
C1322 C 0.08617 0.79268 0.54451 0.0
C1323 C 0.07827 0.82756 0.54816 0.0
C1324 C 0.95583 0.75583 0.54209 0.0
C1325 C 0.02222 0.77485 0.54113 0.0
C1326 C 0.92797 0.72918 0.54421 0.0
C1327 C 0.93598 0.69423 0.54421 0.0
C1328 C 0.99183 0.74728 0.54012 0.0
C1329 C 0.97203 0.68662 0.54082 0.0
C1330 C 0.05823 0.76621 0.54095 0.0
C1331 C 0.04218 0.83533 0.54726 0.0
N1332 N 0.99872 0.71297 0.53918 0.0
N1333 N 0.01539 0.80912 0.54405 0.0
H1334 H 0.04716 0.18111 0.84083 0.0
H1335 H 0.95876 0.33884 0.71969 0.0
H1336 H 0.09376 0.23334 0.71881 0.0
H1337 H 0.901 0.26638 0.8141 0.0
H1338 H 0.00816 0.30087 0.71745 0.0
H1339 H 0.9939 0.21344 0.83223 0.0
C1340 C 0.04624 0.19969 0.81243 0.0
C1341 C 0.07503 0.20504 0.78088 0.0
C1342 C 0.98447 0.29309 0.73817 0.0
C1343 C 0.01397 0.2418 0.7704 0.0
C1344 C 0.95608 0.31461 0.73922 0.0
C1345 C 0.92575 0.30595 0.76752 0.0
C1346 C 0.9827 0.26294 0.76601 0.0
C1347 C 0.92416 0.27448 0.79261 0.0
C1348 C 0.01567 0.21783 0.8072 0.0
C1349 C 0.07212 0.22868 0.74397 0.0
N1350 N 0.95242 0.25433 0.79169 0.0
N1351 N 0.04219 0.2465 0.73995 0.0
H1352 H 0.3951 0.78484 0.9134 0.0
H1353 H 0.58622 0.78971 0.02229 0.0
H1354 H 0.42286 0.71769 0.02633 0.0
H1355 H 0.55276 0.86778 0.92666 0.0
H1356 H 0.52321 0.77259 0.03965 0.0
H1357 H 0.44759 0.82477 0.93224 0.0
C1358 C 0.41216 0.77889 0.94259 0.0
C1359 C 0.40569 0.74769 0.96751 0.0
C1360 C 0.52962 0.79397 0.01558 0.0
C1361 C 0.46569 0.79254 0.98889 0.0
C1362 C 0.56564 0.80374 0.00564 0.0
C1363 C 0.57461 0.82938 0.97177 0.0
C1364 C 0.5026 0.80955 0.99078 0.0
C1365 C 0.54691 0.84692 0.95162 0.0
C1366 C 0.4419 0.8017 0.95362 0.0
C1367 C 0.42761 0.74134 0.00585 0.0
N1368 N 0.51206 0.83618 0.96071 0.0
N1369 N 0.4573 0.76322 0.01473 0.0
H1370 H 0.59465 0.21018 0.69178 0.0
H1371 H 0.41882 0.30947 0.69166 0.0
H1372 H 0.49142 0.1568 0.72566 0.0
H1373 H 0.5215 0.36129 0.73159 0.0
H1374 H 0.44454 0.25287 0.69849 0.0
H1375 H 0.56851 0.26632 0.70075 0.0
C1376 C 0.56651 0.21048 0.70141 0.0
C1377 C 0.5449 0.17926 0.70784 0.0
C1378 C 0.46129 0.27662 0.70627 0.0
C1379 C 0.51494 0.24268 0.71748 0.0
C1380 C 0.44674 0.3087 0.70211 0.0
C1381 C 0.46836 0.33962 0.71083 0.0
C1382 C 0.4978 0.2758 0.71815 0.0
C1383 C 0.50422 0.33775 0.72459 0.0
C1384 C 0.5517 0.24233 0.70675 0.0
C1385 C 0.50871 0.18059 0.72047 0.0
N1386 N 0.51809 0.30624 0.7272 0.0
N1387 N 0.49459 0.21195 0.72425 0.0
H1388 H 0.05956 0.35049 0.45403 0.0
H1389 H 0.95624 0.17178 0.46352 0.0
H1390 H 0.11229 0.26063 0.49959 0.0
H1391 H 0.90244 0.26463 0.49256 0.0
H1392 H 0.01363 0.20297 0.48599 0.0
H1393 H 1.0014 0.32071 0.47626 0.0
C1394 C 0.05869 0.32459 0.46924 0.0
C1395 C 0.0901 0.30737 0.47405 0.0
C1396 C 0.98917 0.21629 0.48874 0.0
C1397 C 0.02451 0.27337 0.49924 0.0
C1398 C 0.95666 0.1986 0.47559 0.0
C1399 C 0.92531 0.21622 0.47539 0.0
C1400 C 0.99006 0.25194 0.50015 0.0
C1401 C 0.92652 0.25062 0.49181 0.0
C1402 C 0.02576 0.30781 0.48246 0.0
C1403 C 0.08824 0.27429 0.49482 0.0
N1404 N 0.95875 0.26783 0.50246 0.0
N1405 N 0.0557 0.25788 0.50572 0.0
H1406 H 0.94578 0.82923 0.26073 0.0
H1407 H 0.09589 0.71149 0.16193 0.0
H1408 H 0.01541 0.85823 0.14384 0.0
H1409 H 0.01004 0.67238 0.25439 0.0
H1410 H 0.07334 0.76929 0.16555 0.0
H1411 H 0.97581 0.77523 0.26926 0.0
C1412 C 0.96765 0.82429 0.23721 0.0
C1413 C 0.97809 0.84785 0.20132 0.0
C1414 C 0.05953 0.7481 0.18521 0.0
C1415 C 0.01226 0.78656 0.21071 0.0
C1416 C 0.07226 0.71513 0.18299 0.0
C1417 C 0.05434 0.6871 0.20723 0.0
C1418 C 0.0287 0.75301 0.21188 0.0
C1419 C 0.02454 0.69336 0.23511 0.0
C1420 C 0.98462 0.79353 0.24194 0.0
C1421 C 1.00632 0.84035 0.17151 0.0
N1422 N 0.0124 0.72569 0.23638 0.0
N1423 N 0.02241 0.81023 0.17679 0.0
loop_
_geom_bond_atom_site_label_1
_geom_bond_atom_site_label_2
_geom_bond_distance
_geom_bond_site_symmetry_2
_ccdc_geom_bond_type
C0 C1 1.443 . S
C0 N4 1.376 . S
C0 C38 1.389 . S
C1 C0 1.443 . S
C1 C2 1.340 . S
C1 H41 0.951 . S
C2 C1 1.340 . S
C2 C3 1.439 . S
C2 H42 0.950 . S
C3 C2 1.439 . S
C3 N4 1.374 . S
C3 C37 1.395 . S
N4 C0 1.376 . S
N4 C3 1.374 . S
N4 Co5 2.008 1_556 S
Co5 N4 2.008 1_554 S
Co5 N6 1.995 1_554 S
Co5 N11 2.008 . S
Co5 N16 1.995 . S
Co5 N21 2.282 . S
Co5 N27 2.282 1_554 S
N6 Co5 1.995 1_556 S
N6 C7 1.376 . S
N6 C10 1.383 . S
C7 N6 1.376 . S
C7 C8 1.446 . S
C7 C37 1.391 . S
C8 C7 1.446 . S
C8 C9 1.339 . S
C8 H43 0.949 . S
C9 C8 1.339 . S
C9 C10 1.439 . S
C9 H44 0.950 . S
C10 N6 1.383 . S
C10 C9 1.439 . S
C10 C39 1.392 1_556 S
N11 Co5 2.008 . S
N11 C12 1.376 . S
N11 C15 1.374 . S
C12 N11 1.376 . S
C12 C13 1.443 . S
C12 C39 1.389 . S
C13 C12 1.443 . S
C13 C14 1.340 . S
C13 H45 0.951 . S
C14 C13 1.340 . S
C14 C15 1.439 . S
C14 H46 0.950 . S
C15 N11 1.374 . S
C15 C14 1.439 . S
C15 C40 1.395 . S
N16 Co5 1.995 . S
N16 C17 1.376 . S
N16 C20 1.383 . S
C17 N16 1.376 . S
C17 C18 1.446 . S
C17 C40 1.391 . S
C18 C17 1.446 . S
C18 C19 1.339 . S
C18 H47 0.949 . S
C19 C18 1.339 . S
C19 C20 1.439 . S
C19 H48 0.950 . S
C20 N16 1.383 . S
C20 C19 1.439 . S
C20 C38 1.392 1_554 S
N21 Co5 2.282 . S
N21 C24 1.332 . S
N21 C26 1.332 1_554 S
C22 C23 1.386 . S
C22 C25 1.388 1_554 S
C23 C22 1.386 . S
C23 C24 1.382 . S
C23 H49 0.950 . S
C24 N21 1.332 . S
C24 C23 1.382 . S
C24 H35 0.952 . S
C25 C22 1.388 1_556 S
C25 C26 1.382 . S
C25 H50 0.950 . S
C26 N21 1.332 1_556 S
C26 C25 1.382 . S
C26 H36 0.948 . S
N27 Co5 2.282 1_556 S
N27 C31 1.332 . S
N27 C32 1.332 1_556 S
C28 C29 1.388 1_554 S
C28 C32 1.382 . S
C28 H51 0.950 . S
C29 C28 1.388 1_556 S
C29 C30 1.386 . S
C30 C29 1.386 . S
C30 C31 1.382 . S
C30 H52 0.950 . S
C31 N27 1.332 . S
C31 C30 1.382 . S
C31 H33 0.952 . S
C32 N27 1.332 1_554 S
C32 C28 1.382 . S
C32 H34 0.948 . S
H33 C31 0.952 . S
H34 C32 0.948 . S
H35 C24 0.952 . S
H36 C26 0.948 . S
C37 C3 1.395 . S
C37 C7 1.391 . S
C38 C0 1.389 . S
C38 C20 1.392 1_556 S
C39 C10 1.392 1_554 S
C39 C12 1.389 . S
C40 C15 1.395 . S
C40 C17 1.391 . S
H41 C1 0.951 . S
H42 C2 0.950 . S
H43 C8 0.949 . S
H44 C9 0.950 . S
H45 C13 0.951 . S
H46 C14 0.950 . S
H47 C18 0.949 . S
H48 C19 0.950 . S
H49 C23 0.950 . S
H50 C25 0.950 . S
H51 C28 0.950 . S
H52 C30 0.950 . S
C53 C54 1.443 . S
C53 N57 1.376 . S
C53 C91 1.389 . S
C54 C53 1.443 . S
C54 C55 1.340 . S
C54 H94 0.951 . S
C55 C54 1.340 . S
C55 C56 1.439 . S
C55 H95 0.950 . S
C56 C55 1.439 . S
C56 N57 1.374 . S
C56 C90 1.395 . S
N57 C53 1.376 . S
N57 C56 1.374 . S
N57 Co58 2.008 . S
Co58 N57 2.008 . S
Co58 N59 1.995 . S
Co58 N64 2.008 . S
Co58 N69 1.995 . S
Co58 N74 2.282 . S
Co58 N80 2.282 . S
N59 Co58 1.995 . S
N59 C60 1.376 . S
N59 C63 1.383 . S
C60 N59 1.376 . S
C60 C61 1.446 . S
C60 C90 1.391 . S
C61 C60 1.446 . S
C61 C62 1.339 . S
C61 H96 0.949 . S
C62 C61 1.339 . S
C62 C63 1.439 . S
C62 H97 0.950 . S
C63 N59 1.383 . S
C63 C62 1.439 . S
C63 C92 1.392 . S
N64 Co58 2.008 . S
N64 C65 1.376 . S
N64 C68 1.374 . S
C65 N64 1.376 . S
C65 C66 1.443 . S
C65 C92 1.389 . S
C66 C65 1.443 . S
C66 C67 1.340 . S
C66 H98 0.951 . S
C67 C66 1.340 . S
C67 C68 1.439 . S
C67 H99 0.950 . S
C68 N64 1.374 . S
C68 C67 1.439 . S
C68 C93 1.395 . S
N69 Co58 1.995 . S
N69 C70 1.376 . S
N69 C73 1.383 . S
C70 N69 1.376 . S
C70 C71 1.446 . S
C70 C93 1.391 . S
C71 C70 1.446 . S
C71 C72 1.339 . S
C71 H100 0.949 . S
C72 C71 1.339 . S
C72 C73 1.439 . S
C72 H101 0.950 . S
C73 N69 1.383 . S
C73 C72 1.439 . S
C73 C91 1.392 . S
N74 Co58 2.282 . S
N74 C77 1.332 . S
N74 C79 1.332 . S
C75 C76 1.386 . S
C75 C78 1.388 . S
C76 C75 1.386 . S
C76 C77 1.382 . S
C76 H102 0.950 . S
C77 N74 1.332 . S
C77 C76 1.382 . S
C77 H88 0.952 . S
C78 C75 1.388 . S
C78 C79 1.382 . S
C78 H103 0.950 . S
C79 N74 1.332 . S
C79 C78 1.382 . S
C79 H89 0.948 . S
N80 Co58 2.282 . S
N80 C84 1.332 . S
N80 C85 1.332 . S
C81 C82 1.388 . S
C81 C85 1.382 . S
C81 H104 0.950 . S
C82 C81 1.388 . S
C82 C83 1.386 . S
C83 C82 1.386 . S
C83 C84 1.382 . S
C83 H105 0.950 . S
C84 N80 1.332 . S
C84 C83 1.382 . S
C84 H86 0.952 . S
C85 N80 1.332 . S
C85 C81 1.382 . S
C85 H87 0.948 . S
H86 C84 0.952 . S
H87 C85 0.948 . S
H88 C77 0.952 . S
H89 C79 0.948 . S
C90 C56 1.395 . S
C90 C60 1.391 . S
C91 C53 1.389 . S
C91 C73 1.392 . S
C92 C63 1.392 . S
C92 C65 1.389 . S
C93 C68 1.395 . S
C93 C70 1.391 . S
H94 C54 0.951 . S
H95 C55 0.950 . S
H96 C61 0.949 . S
H97 C62 0.950 . S
H98 C66 0.951 . S
H99 C67 0.950 . S
H100 C71 0.949 . S
H101 C72 0.950 . S
H102 C76 0.950 . S
H103 C78 0.950 . S
H104 C81 0.950 . S
H105 C83 0.950 . S
C106 C107 1.443 . S
C106 N110 1.376 . S
C106 C144 1.389 . S
C107 C106 1.443 . S
C107 C108 1.340 . S
C107 H147 0.951 . S
C108 C107 1.340 . S
C108 C109 1.439 . S
C108 H148 0.950 . S
C109 C108 1.439 . S
C109 N110 1.374 . S
C109 C143 1.395 . S
N110 C106 1.376 . S
N110 C109 1.374 . S
N110 Co111 2.008 . S
Co111 N110 2.008 . S
Co111 N112 1.995 . S
Co111 N117 2.008 . S
Co111 N122 1.995 . S
Co111 N127 2.282 . S
Co111 N133 2.282 . S
N112 Co111 1.995 . S
N112 C113 1.376 . S
N112 C116 1.383 . S
C113 N112 1.376 . S
C113 C114 1.446 . S
C113 C143 1.391 . S
C114 C113 1.446 . S
C114 C115 1.339 . S
C114 H149 0.949 . S
C115 C114 1.339 . S
C115 C116 1.439 . S
C115 H150 0.950 . S
C116 N112 1.383 . S
C116 C115 1.439 . S
C116 C145 1.392 . S
N117 Co111 2.008 . S
N117 C118 1.376 . S
N117 C121 1.374 . S
C118 N117 1.376 . S
C118 C119 1.443 . S
C118 C145 1.389 . S
C119 C118 1.443 . S
C119 C120 1.340 . S
C119 H151 0.951 . S
C120 C119 1.340 . S
C120 C121 1.439 . S
C120 H152 0.950 . S
C121 N117 1.374 . S
C121 C120 1.439 . S
C121 C146 1.395 . S
N122 Co111 1.995 . S
N122 C123 1.376 . S
N122 C126 1.383 . S
C123 N122 1.376 . S
C123 C124 1.446 . S
C123 C146 1.391 . S
C124 C123 1.446 . S
C124 C125 1.339 . S
C124 H153 0.949 . S
C125 C124 1.339 . S
C125 C126 1.439 . S
C125 H154 0.950 . S
C126 N122 1.383 . S
C126 C125 1.439 . S
C126 C144 1.392 . S
N127 Co111 2.282 . S
N127 C130 1.332 . S
N127 C132 1.332 . S
C128 C129 1.386 . S
C128 C131 1.388 . S
C129 C128 1.386 . S
C129 C130 1.382 . S
C129 H155 0.950 . S
C130 N127 1.332 . S
C130 C129 1.382 . S
C130 H141 0.952 . S
C131 C128 1.388 . S
C131 C132 1.382 . S
C131 H156 0.950 . S
C132 N127 1.332 . S
C132 C131 1.382 . S
C132 H142 0.948 . S
N133 Co111 2.282 . S
N133 C137 1.332 . S
N133 C138 1.332 . S
C134 C135 1.388 . S
C134 C138 1.382 . S
C134 H157 0.950 . S
C135 C134 1.388 . S
C135 C136 1.386 . S
C136 C135 1.386 . S
C136 C137 1.382 . S
C136 H158 0.950 . S
C137 N133 1.332 . S
C137 C136 1.382 . S
C137 H139 0.952 . S
C138 N133 1.332 . S
C138 C134 1.382 . S
C138 H140 0.948 . S
H139 C137 0.952 . S
H140 C138 0.948 . S
H141 C130 0.952 . S
H142 C132 0.948 . S
C143 C109 1.395 . S
C143 C113 1.391 . S
C144 C106 1.389 . S
C144 C126 1.392 . S
C145 C116 1.392 . S
C145 C118 1.389 . S
C146 C121 1.395 . S
C146 C123 1.391 . S
H147 C107 0.951 . S
H148 C108 0.950 . S
H149 C114 0.949 . S
H150 C115 0.950 . S
H151 C119 0.951 . S
H152 C120 0.950 . S
H153 C124 0.949 . S
H154 C125 0.950 . S
H155 C129 0.950 . S
H156 C131 0.950 . S
H157 C134 0.950 . S
H158 C136 0.950 . S
C159 C160 1.443 . S
C159 N163 1.376 . S
C159 C197 1.389 . S
C160 C159 1.443 . S
C160 C161 1.340 . S
C160 H200 0.951 . S
C161 C160 1.340 . S
C161 C162 1.439 . S
C161 H201 0.950 . S
C162 C161 1.439 . S
C162 N163 1.374 . S
C162 C196 1.395 . S
N163 C159 1.376 . S
N163 C162 1.374 . S
N163 Co164 2.008 . S
Co164 N163 2.008 . S
Co164 N165 1.995 . S
Co164 N170 2.008 . S
Co164 N175 1.995 . S
Co164 N180 2.282 . S
Co164 N186 2.282 . S
N165 Co164 1.995 . S
N165 C166 1.376 . S
N165 C169 1.383 . S
C166 N165 1.376 . S
C166 C167 1.446 . S
C166 C196 1.391 . S
C167 C166 1.446 . S
C167 C168 1.339 . S
C167 H202 0.949 . S
C168 C167 1.339 . S
C168 C169 1.439 . S
C168 H203 0.950 . S
C169 N165 1.383 . S
C169 C168 1.439 . S
C169 C198 1.392 . S
N170 Co164 2.008 . S
N170 C171 1.376 . S
N170 C174 1.374 . S
C171 N170 1.376 . S
C171 C172 1.443 . S
C171 C198 1.389 . S
C172 C171 1.443 . S
C172 C173 1.340 . S
C172 H204 0.951 . S
C173 C172 1.340 . S
C173 C174 1.439 . S
C173 H205 0.950 . S
C174 N170 1.374 . S
C174 C173 1.439 . S
C174 C199 1.395 . S
N175 Co164 1.995 . S
N175 C176 1.376 . S
N175 C179 1.383 . S
C176 N175 1.376 . S
C176 C177 1.446 . S
C176 C199 1.391 . S
C177 C176 1.446 . S
C177 C178 1.339 . S
C177 H206 0.949 . S
C178 C177 1.339 . S
C178 C179 1.439 . S
C178 H207 0.950 . S
C179 N175 1.383 . S
C179 C178 1.439 . S
C179 C197 1.392 . S
N180 Co164 2.282 . S
N180 C183 1.332 . S
N180 C185 1.332 . S
C181 C182 1.386 . S
C181 C184 1.388 . S
C182 C181 1.386 . S
C182 C183 1.382 . S
C182 H208 0.950 . S
C183 N180 1.332 . S
C183 C182 1.382 . S
C183 H194 0.952 . S
C184 C181 1.388 . S
C184 C185 1.382 . S
C184 H209 0.950 . S
C185 N180 1.332 . S
C185 C184 1.382 . S
C185 H195 0.948 . S
N186 Co164 2.282 . S
N186 C190 1.332 . S
N186 C191 1.332 . S
C187 C188 1.388 . S
C187 C191 1.382 . S
C187 H210 0.950 . S
C188 C187 1.388 . S
C188 C189 1.386 . S
C189 C188 1.386 . S
C189 C190 1.382 . S
C189 H211 0.950 . S
C190 N186 1.332 . S
C190 C189 1.382 . S
C190 H192 0.952 . S
C191 N186 1.332 . S
C191 C187 1.382 . S
C191 H193 0.948 . S
H192 C190 0.952 . S
H193 C191 0.948 . S
H194 C183 0.952 . S
H195 C185 0.948 . S
C196 C162 1.395 . S
C196 C166 1.391 . S
C197 C159 1.389 . S
C197 C179 1.392 . S
C198 C169 1.392 . S
C198 C171 1.389 . S
C199 C174 1.395 . S
C199 C176 1.391 . S
H200 C160 0.951 . S
H201 C161 0.950 . S
H202 C167 0.949 . S
H203 C168 0.950 . S
H204 C172 0.951 . S
H205 C173 0.950 . S
H206 C177 0.949 . S
H207 C178 0.950 . S
H208 C182 0.950 . S
H209 C184 0.950 . S
H210 C187 0.950 . S
H211 C189 0.950 . S
C212 C213 1.443 . S
C212 N216 1.376 . S
C212 C250 1.389 . S
C213 C212 1.443 . S
C213 C214 1.340 . S
C213 H253 0.951 . S
C214 C213 1.340 . S
C214 C215 1.439 . S
C214 H254 0.950 . S
C215 C214 1.439 . S
C215 N216 1.374 . S
C215 C249 1.395 . S
N216 C212 1.376 . S
N216 C215 1.374 . S
N216 Co217 2.008 1_554 S
Co217 N216 2.008 1_556 S
Co217 N218 1.995 1_556 S
Co217 N223 2.008 . S
Co217 N228 1.995 . S
Co217 N233 2.282 . S
Co217 N239 2.282 1_556 S
N218 Co217 1.995 1_554 S
N218 C219 1.376 . S
N218 C222 1.383 . S
C219 N218 1.376 . S
C219 C220 1.446 . S
C219 C249 1.391 . S
C220 C219 1.446 . S
C220 C221 1.339 . S
C220 H255 0.949 . S
C221 C220 1.339 . S
C221 C222 1.439 . S
C221 H256 0.950 . S
C222 N218 1.383 . S
C222 C221 1.439 . S
C222 C251 1.392 1_554 S
N223 Co217 2.008 . S
N223 C224 1.376 . S
N223 C227 1.374 . S
C224 N223 1.376 . S
C224 C225 1.443 . S
C224 C251 1.389 . S
C225 C224 1.443 . S
C225 C226 1.340 . S
C225 H257 0.951 . S
C226 C225 1.340 . S
C226 C227 1.439 . S
C226 H258 0.950 . S
C227 N223 1.374 . S
C227 C226 1.439 . S
C227 C252 1.395 . S
N228 Co217 1.995 . S
N228 C229 1.376 . S
N228 C232 1.383 . S
C229 N228 1.376 . S
C229 C230 1.446 . S
C229 C252 1.391 . S
C230 C229 1.446 . S
C230 C231 1.339 . S
C230 H259 0.949 . S
C231 C230 1.339 . S
C231 C232 1.439 . S
C231 H260 0.950 . S
C232 N228 1.383 . S
C232 C231 1.439 . S
C232 C250 1.392 1_556 S
N233 Co217 2.282 . S
N233 C236 1.332 . S
N233 C238 1.332 1_556 S
C234 C235 1.386 . S
C234 C237 1.388 1_556 S
C235 C234 1.386 . S
C235 C236 1.382 . S
C235 H261 0.950 . S
C236 N233 1.332 . S
C236 C235 1.382 . S
C236 H247 0.952 . S
C237 C234 1.388 1_554 S
C237 C238 1.382 . S
C237 H262 0.950 . S
C238 N233 1.332 1_554 S
C238 C237 1.382 . S
C238 H248 0.948 . S
N239 Co217 2.282 1_554 S
N239 C243 1.332 . S
N239 C244 1.332 1_554 S
C240 C241 1.388 1_556 S
C240 C244 1.382 . S
C240 H263 0.950 . S
C241 C240 1.388 1_554 S
C241 C242 1.386 . S
C242 C241 1.386 . S
C242 C243 1.382 . S
C242 H264 0.950 . S
C243 N239 1.332 . S
C243 C242 1.382 . S
C243 H245 0.952 . S
C244 N239 1.332 1_556 S
C244 C240 1.382 . S
C244 H246 0.948 . S
H245 C243 0.952 . S
H246 C244 0.948 . S
H247 C236 0.952 . S
H248 C238 0.948 . S
C249 C215 1.395 . S
C249 C219 1.391 . S
C250 C212 1.389 . S
C250 C232 1.392 1_554 S
C251 C222 1.392 1_556 S
C251 C224 1.389 . S
C252 C227 1.395 . S
C252 C229 1.391 . S
H253 C213 0.951 . S
H254 C214 0.950 . S
H255 C220 0.949 . S
H256 C221 0.950 . S
H257 C225 0.951 . S
H258 C226 0.950 . S
H259 C230 0.949 . S
H260 C231 0.950 . S
H261 C235 0.950 . S
H262 C237 0.950 . S
H263 C240 0.950 . S
H264 C242 0.950 . S
C265 C266 1.443 . S
C265 N269 1.376 . S
C265 C303 1.389 . S
C266 C265 1.443 . S
C266 C267 1.340 . S
C266 H306 0.951 . S
C267 C266 1.340 . S
C267 C268 1.439 . S
C267 H307 0.950 . S
C268 C267 1.439 . S
C268 N269 1.374 . S
C268 C302 1.395 . S
N269 C265 1.376 . S
N269 C268 1.374 . S
N269 Co270 2.008 . S
Co270 N269 2.008 . S
Co270 N271 1.995 . S
Co270 N276 2.008 . S
Co270 N281 1.995 . S
Co270 N286 2.282 . S
Co270 N292 2.282 . S
N271 Co270 1.995 . S
N271 C272 1.376 . S
N271 C275 1.383 . S
C272 N271 1.376 . S
C272 C273 1.446 . S
C272 C302 1.391 . S
C273 C272 1.446 . S
C273 C274 1.339 . S
C273 H308 0.949 . S
C274 C273 1.339 . S
C274 C275 1.439 . S
C274 H309 0.950 . S
C275 N271 1.383 . S
C275 C274 1.439 . S
C275 C304 1.392 . S
N276 Co270 2.008 . S
N276 C277 1.376 . S
N276 C280 1.374 . S
C277 N276 1.376 . S
C277 C278 1.443 . S
C277 C304 1.389 . S
C278 C277 1.443 . S
C278 C279 1.340 . S
C278 H310 0.951 . S
C279 C278 1.340 . S
C279 C280 1.439 . S
C279 H311 0.950 . S
C280 N276 1.374 . S
C280 C279 1.439 . S
C280 C305 1.395 . S
N281 Co270 1.995 . S
N281 C282 1.376 . S
N281 C285 1.383 . S
C282 N281 1.376 . S
C282 C283 1.446 . S
C282 C305 1.391 . S
C283 C282 1.446 . S
C283 C284 1.339 . S
C283 H312 0.949 . S
C284 C283 1.339 . S
C284 C285 1.439 . S
C284 H313 0.950 . S
C285 N281 1.383 . S
C285 C284 1.439 . S
C285 C303 1.392 . S
N286 Co270 2.282 . S
N286 C289 1.332 . S
N286 C291 1.332 . S
C287 C288 1.386 . S
C287 C290 1.388 . S
C288 C287 1.386 . S
C288 C289 1.382 . S
C288 H314 0.950 . S
C289 N286 1.332 . S
C289 C288 1.382 . S
C289 H300 0.952 . S
C290 C287 1.388 . S
C290 C291 1.382 . S
C290 H315 0.950 . S
C291 N286 1.332 . S
C291 C290 1.382 . S
C291 H301 0.948 . S
N292 Co270 2.282 . S
N292 C296 1.332 . S
N292 C297 1.332 . S
C293 C294 1.388 . S
C293 C297 1.382 . S
C293 H316 0.950 . S
C294 C293 1.388 . S
C294 C295 1.386 . S
C295 C294 1.386 . S
C295 C296 1.382 . S
C295 H317 0.950 . S
C296 N292 1.332 . S
C296 C295 1.382 . S
C296 H298 0.952 . S
C297 N292 1.332 . S
C297 C293 1.382 . S
C297 H299 0.948 . S
H298 C296 0.952 . S
H299 C297 0.948 . S
H300 C289 0.952 . S
H301 C291 0.948 . S
C302 C268 1.395 . S
C302 C272 1.391 . S
C303 C265 1.389 . S
C303 C285 1.392 . S
C304 C275 1.392 . S
C304 C277 1.389 . S
C305 C280 1.395 . S
C305 C282 1.391 . S
H306 C266 0.951 . S
H307 C267 0.950 . S
H308 C273 0.949 . S
H309 C274 0.950 . S
H310 C278 0.951 . S
H311 C279 0.950 . S
H312 C283 0.949 . S
H313 C284 0.950 . S
H314 C288 0.950 . S
H315 C290 0.950 . S
H316 C293 0.950 . S
H317 C295 0.950 . S
C318 C319 1.443 . S
C318 N322 1.376 . S
C318 C356 1.389 . S
C319 C318 1.443 . S
C319 C320 1.340 . S
C319 H359 0.951 . S
C320 C319 1.340 . S
C320 C321 1.439 . S
C320 H360 0.950 . S
C321 C320 1.439 . S
C321 N322 1.374 . S
C321 C355 1.395 . S
N322 C318 1.376 . S
N322 C321 1.374 . S
N322 Co323 2.008 . S
Co323 N322 2.008 . S
Co323 N324 1.995 . S
Co323 N329 2.008 . S
Co323 N334 1.995 . S
Co323 N339 2.282 . S
Co323 N345 2.282 . S
N324 Co323 1.995 . S
N324 C325 1.376 . S
N324 C328 1.383 . S
C325 N324 1.376 . S
C325 C326 1.446 . S
C325 C355 1.391 . S
C326 C325 1.446 . S
C326 C327 1.339 . S
C326 H361 0.949 . S
C327 C326 1.339 . S
C327 C328 1.439 . S
C327 H362 0.950 . S
C328 N324 1.383 . S
C328 C327 1.439 . S
C328 C357 1.392 . S
N329 Co323 2.008 . S
N329 C330 1.376 . S
N329 C333 1.374 . S
C330 N329 1.376 . S
C330 C331 1.443 . S
C330 C357 1.389 . S
C331 C330 1.443 . S
C331 C332 1.340 . S
C331 H363 0.951 . S
C332 C331 1.340 . S
C332 C333 1.439 . S
C332 H364 0.950 . S
C333 N329 1.374 . S
C333 C332 1.439 . S
C333 C358 1.395 . S
N334 Co323 1.995 . S
N334 C335 1.376 . S
N334 C338 1.383 . S
C335 N334 1.376 . S
C335 C336 1.446 . S
C335 C358 1.391 . S
C336 C335 1.446 . S
C336 C337 1.339 . S
C336 H365 0.949 . S
C337 C336 1.339 . S
C337 C338 1.439 . S
C337 H366 0.950 . S
C338 N334 1.383 . S
C338 C337 1.439 . S
C338 C356 1.392 . S
N339 Co323 2.282 . S
N339 C342 1.332 . S
N339 C344 1.332 . S
C340 C341 1.386 . S
C340 C343 1.388 . S
C341 C340 1.386 . S
C341 C342 1.382 . S
C341 H367 0.950 . S
C342 N339 1.332 . S
C342 C341 1.382 . S
C342 H353 0.952 . S
C343 C340 1.388 . S
C343 C344 1.382 . S
C343 H368 0.950 . S
C344 N339 1.332 . S
C344 C343 1.382 . S
C344 H354 0.948 . S
N345 Co323 2.282 . S
N345 C349 1.332 . S
N345 C350 1.332 . S
C346 C347 1.388 . S
C346 C350 1.382 . S
C346 H369 0.950 . S
C347 C346 1.388 . S
C347 C348 1.386 . S
C348 C347 1.386 . S
C348 C349 1.382 . S
C348 H370 0.950 . S
C349 N345 1.332 . S
C349 C348 1.382 . S
C349 H351 0.952 . S
C350 N345 1.332 . S
C350 C346 1.382 . S
C350 H352 0.948 . S
H351 C349 0.952 . S
H352 C350 0.948 . S
H353 C342 0.952 . S
H354 C344 0.948 . S
C355 C321 1.395 . S
C355 C325 1.391 . S
C356 C318 1.389 . S
C356 C338 1.392 . S
C357 C328 1.392 . S
C357 C330 1.389 . S
C358 C333 1.395 . S
C358 C335 1.391 . S
H359 C319 0.951 . S
H360 C320 0.950 . S
H361 C326 0.949 . S
H362 C327 0.950 . S
H363 C331 0.951 . S
H364 C332 0.950 . S
H365 C336 0.949 . S
H366 C337 0.950 . S
H367 C341 0.950 . S
H368 C343 0.950 . S
H369 C346 0.950 . S
H370 C348 0.950 . S
C371 C372 1.443 . S
C371 N375 1.376 . S
C371 C409 1.389 . S
C372 C371 1.443 . S
C372 C373 1.340 . S
C372 H412 0.951 . S
C373 C372 1.340 . S
C373 C374 1.439 . S
C373 H413 0.950 . S
C374 C373 1.439 . S
C374 N375 1.374 . S
C374 C408 1.395 . S
N375 C371 1.376 . S
N375 C374 1.374 . S
N375 Co376 2.008 . S
Co376 N375 2.008 . S
Co376 N377 1.995 . S
Co376 N382 2.008 . S
Co376 N387 1.995 . S
Co376 N392 2.282 . S
Co376 N398 2.282 . S
N377 Co376 1.995 . S
N377 C378 1.376 . S
N377 C381 1.383 . S
C378 N377 1.376 . S
C378 C379 1.446 . S
C378 C408 1.391 . S
C379 C378 1.446 . S
C379 C380 1.349 . S
C379 H414 0.949 . S
C380 C379 1.349 . S
C380 C381 1.448 . S
C380 H415 0.933 1_455 S
C381 N377 1.383 . S
C381 C380 1.448 . S
C381 C410 1.392 . S
N382 Co376 2.008 . S
N382 C383 1.376 . S
N382 C386 1.374 . S
C383 N382 1.376 . S
C383 C384 1.443 . S
C383 C410 1.389 . S
C384 C383 1.443 . S
C384 C385 1.340 . S
C384 H416 0.951 1_455 S
C385 C384 1.340 . S
C385 C386 1.439 . S
C385 H417 0.950 . S
C386 N382 1.374 . S
C386 C385 1.439 . S
C386 C411 1.395 . S
N387 Co376 1.995 . S
N387 C388 1.376 . S
N387 C391 1.383 . S
C388 N387 1.376 . S
C388 C389 1.446 . S
C388 C411 1.391 . S
C389 C388 1.446 . S
C389 C390 1.339 . S
C389 H418 0.949 . S
C390 C389 1.339 . S
C390 C391 1.439 . S
C390 H419 0.950 . S
C391 N387 1.383 . S
C391 C390 1.439 . S
C391 C409 1.392 . S
N392 Co376 2.282 . S
N392 C395 1.332 . S
N392 C397 1.332 . S
C393 C394 1.386 . S
C393 C396 1.388 . S
C394 C393 1.386 . S
C394 C395 1.382 . S
C394 H420 0.950 . S
C395 N392 1.332 . S
C395 C394 1.382 . S
C395 H406 0.952 . S
C396 C393 1.388 . S
C396 C397 1.382 . S
C396 H421 0.950 . S
C397 N392 1.332 . S
C397 C396 1.382 . S
C397 H407 0.948 . S
N398 Co376 2.282 . S
N398 C402 1.332 . S
N398 C403 1.332 . S
C399 C400 1.388 . S
C399 C403 1.382 . S
C399 H422 0.950 . S
C400 C399 1.388 . S
C400 C401 1.386 . S
C401 C400 1.386 . S
C401 C402 1.382 . S
C401 H423 0.950 . S
C402 N398 1.332 . S
C402 C401 1.382 . S
C402 H404 0.952 . S
C403 N398 1.332 . S
C403 C399 1.382 . S
C403 H405 0.948 . S
H404 C402 0.952 . S
H405 C403 0.948 . S
H406 C395 0.952 . S
H407 C397 0.948 . S
C408 C374 1.395 . S
C408 C378 1.391 . S
C409 C371 1.389 . S
C409 C391 1.392 . S
C410 C381 1.392 . S
C410 C383 1.389 . S
C411 C386 1.395 . S
C411 C388 1.391 . S
H412 C372 0.951 . S
H413 C373 0.950 . S
H414 C379 0.949 . S
H415 C380 0.933 1_655 S
H416 C384 0.951 1_655 S
H417 C385 0.950 . S
H418 C389 0.949 . S
H419 C390 0.950 . S
H420 C394 0.950 . S
H421 C396 0.950 . S
H422 C399 0.950 . S
H423 C401 0.950 . S
C424 C425 1.443 . S
C424 N428 1.376 . S
C424 C462 1.389 . S
C425 C424 1.443 . S
C425 C426 1.340 . S
C425 H465 0.951 . S
C426 C425 1.340 . S
C426 C427 1.439 . S
C426 H466 0.950 . S
C427 C426 1.439 . S
C427 N428 1.374 . S
C427 C461 1.395 . S
N428 C424 1.376 . S
N428 C427 1.374 . S
N428 Co429 2.008 . S
Co429 N428 2.008 . S
Co429 N430 1.995 . S
Co429 N435 2.008 . S
Co429 N440 1.995 . S
Co429 N445 2.282 . S
Co429 N451 2.282 . S
N430 Co429 1.995 . S
N430 C431 1.376 . S
N430 C434 1.383 . S
C431 N430 1.376 . S
C431 C432 1.446 . S
C431 C461 1.391 . S
C432 C431 1.446 . S
C432 C433 1.339 . S
C432 H467 0.949 . S
C433 C432 1.339 . S
C433 C434 1.439 . S
C433 H468 0.950 . S
C434 N430 1.383 . S
C434 C433 1.439 . S
C434 C463 1.392 . S
N435 Co429 2.008 . S
N435 C436 1.376 . S
N435 C439 1.374 . S
C436 N435 1.376 . S
C436 C437 1.443 . S
C436 C463 1.389 . S
C437 C436 1.443 . S
C437 C438 1.340 . S
C437 H469 0.951 . S
C438 C437 1.340 . S
C438 C439 1.439 . S
C438 H470 0.950 . S
C439 N435 1.374 . S
C439 C438 1.439 . S
C439 C464 1.395 . S
N440 Co429 1.995 . S
N440 C441 1.376 . S
N440 C444 1.383 . S
C441 N440 1.376 . S
C441 C442 1.446 . S
C441 C464 1.391 . S
C442 C441 1.446 . S
C442 C443 1.339 . S
C442 H471 0.949 . S
C443 C442 1.339 . S
C443 C444 1.439 . S
C443 H472 0.950 . S
C444 N440 1.383 . S
C444 C443 1.439 . S
C444 C462 1.392 . S
N445 Co429 2.282 . S
N445 C448 1.332 . S
N445 C450 1.332 . S
C446 C447 1.386 . S
C446 C449 1.388 . S
C447 C446 1.386 . S
C447 C448 1.382 . S
C447 H473 0.950 . S
C448 N445 1.332 . S
C448 C447 1.382 . S
C448 H459 0.952 . S
C449 C446 1.388 . S
C449 C450 1.382 . S
C449 H474 0.950 . S
C450 N445 1.332 . S
C450 C449 1.382 . S
C450 H460 0.948 . S
N451 Co429 2.282 . S
N451 C455 1.332 . S
N451 C456 1.332 . S
C452 C453 1.388 . S
C452 C456 1.382 . S
C452 H475 0.950 . S
C453 C452 1.388 . S
C453 C454 1.386 . S
C454 C453 1.386 . S
C454 C455 1.382 . S
C454 H476 0.950 . S
C455 N451 1.332 . S
C455 C454 1.382 . S
C455 H457 0.952 . S
C456 N451 1.332 . S
C456 C452 1.382 . S
C456 H458 0.948 . S
H457 C455 0.952 . S
H458 C456 0.948 . S
H459 C448 0.952 . S
H460 C450 0.948 . S
C461 C427 1.395 . S
C461 C431 1.391 . S
C462 C424 1.389 . S
C462 C444 1.392 . S
C463 C434 1.392 . S
C463 C436 1.389 . S
C464 C439 1.395 . S
C464 C441 1.391 . S
H465 C425 0.951 . S
H466 C426 0.950 . S
H467 C432 0.949 . S
H468 C433 0.950 . S
H469 C437 0.951 . S
H470 C438 0.950 . S
H471 C442 0.949 . S
H472 C443 0.950 . S
H473 C447 0.950 . S
H474 C449 0.950 . S
H475 C452 0.950 . S
H476 C454 0.950 . S
C477 C478 1.443 . S
C477 N481 1.376 . S
C477 C515 1.389 . S
C478 C477 1.443 . S
C478 C479 1.340 . S
C478 H518 0.951 . S
C479 C478 1.340 . S
C479 C480 1.439 . S
C479 H519 0.950 . S
C480 C479 1.439 . S
C480 N481 1.374 . S
C480 C514 1.395 . S
N481 C477 1.376 . S
N481 C480 1.374 . S
N481 Co482 2.008 . S
Co482 N481 2.008 . S
Co482 N483 1.995 . S
Co482 N488 2.008 . S
Co482 N493 1.995 . S
Co482 N498 2.282 . S
Co482 N504 2.282 . S
N483 Co482 1.995 . S
N483 C484 1.376 . S
N483 C487 1.383 . S
C484 N483 1.376 . S
C484 C485 1.446 . S
C484 C514 1.391 . S
C485 C484 1.446 . S
C485 C486 1.339 . S
C485 H520 0.949 . S
C486 C485 1.339 . S
C486 C487 1.439 . S
C486 H521 0.950 . S
C487 N483 1.383 . S
C487 C486 1.439 . S
C487 C516 1.392 1_545 S
N488 Co482 2.008 . S
N488 C489 1.376 1_545 S
N488 C492 1.374 . S
C489 N488 1.376 1_565 S
C489 C490 1.443 . S
C489 C516 1.389 . S
C490 C489 1.443 . S
C490 C491 1.340 . S
C490 H522 0.951 . S
C491 C490 1.340 . S
C491 C492 1.439 1_565 S
C491 H523 0.950 . S
C492 N488 1.374 . S
C492 C491 1.439 1_545 S
C492 C517 1.395 . S
N493 Co482 1.995 . S
N493 C494 1.376 . S
N493 C497 1.383 . S
C494 N493 1.376 . S
C494 C495 1.446 . S
C494 C517 1.391 . S
C495 C494 1.446 . S
C495 C496 1.339 . S
C495 H524 0.949 . S
C496 C495 1.339 . S
C496 C497 1.439 . S
C496 H525 0.950 . S
C497 N493 1.383 . S
C497 C496 1.439 . S
C497 C515 1.392 . S
N498 Co482 2.282 . S
N498 C501 1.332 1_545 S
N498 C503 1.332 1_545 S
C499 C500 1.386 . S
C499 C502 1.388 . S
C500 C499 1.386 . S
C500 C501 1.382 . S
C500 H526 0.950 . S
C501 N498 1.332 1_565 S
C501 C500 1.382 . S
C501 H512 0.952 . S
C502 C499 1.388 . S
C502 C503 1.382 . S
C502 H527 0.950 . S
C503 N498 1.332 1_565 S
C503 C502 1.382 . S
C503 H513 0.948 1_565 S
N504 Co482 2.282 . S
N504 C508 1.332 . S
N504 C509 1.332 . S
C505 C506 1.388 . S
C505 C509 1.382 . S
C505 H528 0.950 . S
C506 C505 1.388 . S
C506 C507 1.386 . S
C507 C506 1.386 . S
C507 C508 1.382 . S
C507 H529 0.950 . S
C508 N504 1.332 . S
C508 C507 1.382 . S
C508 H510 0.952 . S
C509 N504 1.332 . S
C509 C505 1.382 . S
C509 H511 0.948 . S
H510 C508 0.952 . S
H511 C509 0.948 . S
H512 C501 0.952 . S
H513 C503 0.948 1_545 S
C514 C480 1.395 . S
C514 C484 1.391 . S
C515 C477 1.389 . S
C515 C497 1.392 . S
C516 C487 1.392 1_565 S
C516 C489 1.389 . S
C517 C492 1.395 . S
C517 C494 1.391 . S
H518 C478 0.951 . S
H519 C479 0.950 . S
H520 C485 0.949 . S
H521 C486 0.950 . S
H522 C490 0.951 . S
H523 C491 0.950 . S
H524 C495 0.949 . S
H525 C496 0.950 . S
H526 C500 0.950 . S
H527 C502 0.950 . S
H528 C505 0.950 . S
H529 C507 0.950 . S
C530 C531 1.443 . S
C530 N534 1.376 . S
C530 C568 1.389 . S
C531 C530 1.443 . S
C531 C532 1.340 . S
C531 H571 0.951 . S
C532 C531 1.340 . S
C532 C533 1.439 . S
C532 H572 0.950 . S
C533 C532 1.439 . S
C533 N534 1.374 . S
C533 C567 1.395 . S
N534 C530 1.376 . S
N534 C533 1.374 . S
N534 Co535 2.008 1_556 S
Co535 N534 2.008 1_554 S
Co535 N536 1.995 1_554 S
Co535 N541 2.008 . S
Co535 N546 1.995 . S
Co535 N551 2.282 . S
Co535 N557 2.282 1_554 S
N536 Co535 1.995 1_556 S
N536 C537 1.376 . S
N536 C540 1.383 . S
C537 N536 1.376 . S
C537 C538 1.446 . S
C537 C567 1.391 . S
C538 C537 1.446 . S
C538 C539 1.339 . S
C538 H573 0.949 . S
C539 C538 1.339 . S
C539 C540 1.439 . S
C539 H574 0.950 . S
C540 N536 1.383 . S
C540 C539 1.439 . S
C540 C569 1.392 1_556 S
N541 Co535 2.008 . S
N541 C542 1.376 . S
N541 C545 1.374 . S
C542 N541 1.376 . S
C542 C543 1.443 . S
C542 C569 1.389 . S
C543 C542 1.443 . S
C543 C544 1.340 . S
C543 H575 0.951 . S
C544 C543 1.340 . S
C544 C545 1.439 . S
C544 H576 0.950 . S
C545 N541 1.374 . S
C545 C544 1.439 . S
C545 C570 1.395 . S
N546 Co535 1.995 . S
N546 C547 1.376 . S
N546 C550 1.383 . S
C547 N546 1.376 . S
C547 C548 1.446 . S
C547 C570 1.391 . S
C548 C547 1.446 . S
C548 C549 1.339 . S
C548 H577 0.949 . S
C549 C548 1.339 . S
C549 C550 1.439 . S
C549 H578 0.950 . S
C550 N546 1.383 . S
C550 C549 1.439 . S
C550 C568 1.392 1_554 S
N551 Co535 2.282 . S
N551 C554 1.332 . S
N551 C556 1.332 1_554 S
C552 C553 1.386 . S
C552 C555 1.388 1_554 S
C553 C552 1.386 . S
C553 C554 1.382 . S
C553 H579 0.950 . S
C554 N551 1.332 . S
C554 C553 1.382 . S
C554 H565 0.952 . S
C555 C552 1.388 1_556 S
C555 C556 1.382 . S
C555 H580 0.950 . S
C556 N551 1.332 1_556 S
C556 C555 1.382 . S
C556 H566 0.948 . S
N557 Co535 2.282 1_556 S
N557 C561 1.332 . S
N557 C562 1.332 1_556 S
C558 C559 1.388 1_554 S
C558 C562 1.382 . S
C558 H581 0.950 . S
C559 C558 1.388 1_556 S
C559 C560 1.386 . S
C560 C559 1.386 . S
C560 C561 1.382 . S
C560 H582 0.950 . S
C561 N557 1.332 . S
C561 C560 1.382 . S
C561 H563 0.952 . S
C562 N557 1.332 1_554 S
C562 C558 1.382 . S
C562 H564 0.948 . S
H563 C561 0.952 . S
H564 C562 0.948 . S
H565 C554 0.952 . S
H566 C556 0.948 . S
C567 C533 1.395 . S
C567 C537 1.391 . S
C568 C530 1.389 . S
C568 C550 1.392 1_556 S
C569 C540 1.392 1_554 S
C569 C542 1.389 . S
C570 C545 1.395 . S
C570 C547 1.391 . S
H571 C531 0.951 . S
H572 C532 0.950 . S
H573 C538 0.949 . S
H574 C539 0.950 . S
H575 C543 0.951 . S
H576 C544 0.950 . S
H577 C548 0.949 . S
H578 C549 0.950 . S
H579 C553 0.950 . S
H580 C555 0.950 . S
H581 C558 0.950 . S
H582 C560 0.950 . S
C583 C584 1.443 . S
C583 N587 1.376 . S
C583 C621 1.389 . S
C584 C583 1.443 . S
C584 C585 1.340 . S
C584 H624 0.951 . S
C585 C584 1.340 . S
C585 C586 1.439 . S
C585 H625 0.950 . S
C586 C585 1.439 . S
C586 N587 1.374 . S
C586 C620 1.395 . S
N587 C583 1.376 . S
N587 C586 1.374 . S
N587 Co588 2.008 . S
Co588 N587 2.008 . S
Co588 N589 1.995 . S
Co588 N594 2.008 . S
Co588 N599 1.995 . S
Co588 N604 2.282 . S
Co588 N610 2.282 . S
N589 Co588 1.995 . S
N589 C590 1.376 . S
N589 C593 1.383 . S
C590 N589 1.376 . S
C590 C591 1.446 . S
C590 C620 1.391 . S
C591 C590 1.446 . S
C591 C592 1.339 . S
C591 H626 0.949 . S
C592 C591 1.339 . S
C592 C593 1.439 . S
C592 H627 0.949 . S
C593 N589 1.383 . S
C593 C592 1.439 . S
C593 C622 1.392 1_565 S
N594 Co588 2.008 . S
N594 C595 1.376 1_565 S
N594 C598 1.374 . S
C595 N594 1.376 1_545 S
C595 C596 1.443 . S
C595 C622 1.389 . S
C596 C595 1.443 . S
C596 C597 1.340 . S
C596 H628 0.951 . S
C597 C596 1.340 . S
C597 C598 1.439 1_545 S
C597 H629 0.950 . S
C598 N594 1.374 . S
C598 C597 1.439 1_565 S
C598 C623 1.395 . S
N599 Co588 1.995 . S
N599 C600 1.376 . S
N599 C603 1.383 . S
C600 N599 1.376 . S
C600 C601 1.446 . S
C600 C623 1.391 . S
C601 C600 1.446 . S
C601 C602 1.339 . S
C601 H630 0.949 . S
C602 C601 1.339 . S
C602 C603 1.439 . S
C602 H631 0.950 . S
C603 N599 1.383 . S
C603 C602 1.439 . S
C603 C621 1.392 . S
N604 Co588 2.282 . S
N604 C607 1.332 1_565 S
N604 C609 1.332 1_565 S
C605 C606 1.386 . S
C605 C608 1.388 . S
C606 C605 1.386 . S
C606 C607 1.382 . S
C606 H632 0.950 . S
C607 N604 1.332 1_545 S
C607 C606 1.382 . S
C607 H618 0.952 . S
C608 C605 1.388 . S
C608 C609 1.382 . S
C608 H633 0.950 . S
C609 N604 1.332 1_545 S
C609 C608 1.382 . S
C609 H619 0.948 1_545 S
N610 Co588 2.282 . S
N610 C614 1.332 . S
N610 C615 1.332 . S
C611 C612 1.388 . S
C611 C615 1.382 . S
C611 H634 0.950 . S
C612 C611 1.388 . S
C612 C613 1.386 . S
C613 C612 1.386 . S
C613 C614 1.382 . S
C613 H635 0.950 . S
C614 N610 1.332 . S
C614 C613 1.382 . S
C614 H616 0.952 . S
C615 N610 1.332 . S
C615 C611 1.382 . S
C615 H617 0.948 . S
H616 C614 0.952 . S
H617 C615 0.948 . S
H618 C607 0.952 . S
H619 C609 0.948 1_565 S
C620 C586 1.395 . S
C620 C590 1.391 . S
C621 C583 1.389 . S
C621 C603 1.392 . S
C622 C593 1.392 1_545 S
C622 C595 1.389 . S
C623 C598 1.395 . S
C623 C600 1.391 . S
H624 C584 0.951 . S
H625 C585 0.950 . S
H626 C591 0.949 . S
H627 C592 0.949 . S
H628 C596 0.951 . S
H629 C597 0.950 . S
H630 C601 0.949 . S
H631 C602 0.950 . S
H632 C606 0.950 . S
H633 C608 0.950 . S
H634 C611 0.950 . S
H635 C613 0.950 . S
C636 C637 1.443 . S
C636 N640 1.376 . S
C636 C674 1.389 . S
C637 C636 1.443 . S
C637 C638 1.340 . S
C637 H677 0.951 . S
C638 C637 1.340 . S
C638 C639 1.439 . S
C638 H678 0.950 . S
C639 C638 1.439 . S
C639 N640 1.374 . S
C639 C673 1.395 . S
N640 C636 1.376 . S
N640 C639 1.374 . S
N640 Co641 2.008 . S
Co641 N640 2.008 . S
Co641 N642 1.995 . S
Co641 N647 2.008 . S
Co641 N652 1.995 . S
Co641 N657 2.282 . S
Co641 N663 2.282 . S
N642 Co641 1.995 . S
N642 C643 1.376 . S
N642 C646 1.383 . S
C643 N642 1.376 . S
C643 C644 1.446 . S
C643 C673 1.391 . S
C644 C643 1.446 . S
C644 C645 1.339 . S
C644 H679 0.949 . S
C645 C644 1.339 . S
C645 C646 1.439 . S
C645 H680 0.950 . S
C646 N642 1.383 . S
C646 C645 1.439 . S
C646 C675 1.392 . S
N647 Co641 2.008 . S
N647 C648 1.376 . S
N647 C651 1.374 . S
C648 N647 1.376 . S
C648 C649 1.443 . S
C648 C675 1.389 . S
C649 C648 1.443 . S
C649 C650 1.340 . S
C649 H681 0.951 . S
C650 C649 1.340 . S
C650 C651 1.439 . S
C650 H682 0.950 . S
C651 N647 1.374 . S
C651 C650 1.439 . S
C651 C676 1.395 . S
N652 Co641 1.995 . S
N652 C653 1.376 . S
N652 C656 1.383 . S
C653 N652 1.376 . S
C653 C654 1.446 . S
C653 C676 1.391 . S
C654 C653 1.446 . S
C654 C655 1.339 . S
C654 H683 0.949 . S
C655 C654 1.339 . S
C655 C656 1.439 . S
C655 H684 0.950 . S
C656 N652 1.383 . S
C656 C655 1.439 . S
C656 C674 1.392 . S
N657 Co641 2.282 . S
N657 C660 1.332 . S
N657 C662 1.332 . S
C658 C659 1.386 . S
C658 C661 1.388 . S
C659 C658 1.386 . S
C659 C660 1.382 . S
C659 H685 0.950 . S
C660 N657 1.332 . S
C660 C659 1.382 . S
C660 H671 0.952 . S
C661 C658 1.388 . S
C661 C662 1.382 . S
C661 H686 0.950 . S
C662 N657 1.332 . S
C662 C661 1.382 . S
C662 H672 0.948 . S
N663 Co641 2.282 . S
N663 C667 1.332 . S
N663 C668 1.332 . S
C664 C665 1.388 . S
C664 C668 1.382 . S
C664 H687 0.950 . S
C665 C664 1.388 . S
C665 C666 1.386 . S
C666 C665 1.386 . S
C666 C667 1.382 . S
C666 H688 0.950 . S
C667 N663 1.332 . S
C667 C666 1.382 . S
C667 H669 0.952 . S
C668 N663 1.332 . S
C668 C664 1.382 . S
C668 H670 0.948 . S
H669 C667 0.952 . S
H670 C668 0.948 . S
H671 C660 0.952 . S
H672 C662 0.948 . S
C673 C639 1.395 . S
C673 C643 1.391 . S
C674 C636 1.389 . S
C674 C656 1.392 . S
C675 C646 1.392 . S
C675 C648 1.389 . S
C676 C651 1.395 . S
C676 C653 1.391 . S
H677 C637 0.951 . S
H678 C638 0.950 . S
H679 C644 0.949 . S
H680 C645 0.950 . S
H681 C649 0.951 . S
H682 C650 0.950 . S
H683 C654 0.949 . S
H684 C655 0.950 . S
H685 C659 0.950 . S
H686 C661 0.950 . S
H687 C664 0.950 . S
H688 C666 0.950 . S
C689 C690 1.443 . S
C689 N693 1.376 . S
C689 C727 1.389 . S
C690 C689 1.443 . S
C690 C691 1.340 . S
C690 H730 0.951 . S
C691 C690 1.340 . S
C691 C692 1.439 . S
C691 H731 0.950 . S
C692 C691 1.439 . S
C692 N693 1.374 . S
C692 C726 1.395 . S
N693 C689 1.376 . S
N693 C692 1.374 . S
N693 Co694 2.008 . S
Co694 N693 2.008 . S
Co694 N695 1.995 . S
Co694 N700 2.008 . S
Co694 N705 1.995 . S
Co694 N710 2.282 . S
Co694 N716 2.282 . S
N695 Co694 1.995 . S
N695 C696 1.376 . S
N695 C699 1.383 . S
C696 N695 1.376 . S
C696 C697 1.446 1_565 S
C696 C726 1.391 . S
C697 C696 1.446 1_545 S
C697 C698 1.349 . S
C697 H732 0.949 . S
C698 C697 1.349 . S
C698 C699 1.449 1_545 S
C698 H733 0.933 1_655 S
C699 N695 1.383 . S
C699 C698 1.449 1_565 S
C699 C728 1.392 1_565 S
N700 Co694 2.008 . S
N700 C701 1.376 . S
N700 C704 1.374 . S
C701 N700 1.376 . S
C701 C702 1.443 . S
C701 C728 1.389 1_565 S
C702 C701 1.443 . S
C702 C703 1.340 . S
C702 H734 0.951 1_665 S
C703 C702 1.340 . S
C703 C704 1.439 . S
C703 H735 0.950 . S
C704 N700 1.374 . S
C704 C703 1.439 . S
C704 C729 1.395 . S
N705 Co694 1.995 . S
N705 C706 1.376 . S
N705 C709 1.383 . S
C706 N705 1.376 . S
C706 C707 1.446 . S
C706 C729 1.391 . S
C707 C706 1.446 . S
C707 C708 1.339 . S
C707 H736 0.949 . S
C708 C707 1.339 . S
C708 C709 1.439 . S
C708 H737 0.950 . S
C709 N705 1.383 . S
C709 C708 1.439 . S
C709 C727 1.392 . S
N710 Co694 2.282 . S
N710 C713 1.327 1_565 S
N710 C715 1.332 1_565 S
C711 C712 1.386 . S
C711 C714 1.388 . S
C712 C711 1.386 . S
C712 C713 1.406 . S
C712 H738 0.950 . S
C713 N710 1.327 1_545 S
C713 C712 1.406 . S
C713 H724 0.931 1_545 S
C714 C711 1.388 . S
C714 C715 1.382 . S
C714 H739 0.950 . S
C715 N710 1.332 1_545 S
C715 C714 1.382 . S
C715 H725 0.948 . S
N716 Co694 2.282 . S
N716 C720 1.332 . S
N716 C721 1.332 . S
C717 C718 1.388 . S
C717 C721 1.382 . S
C717 H740 0.950 . S
C718 C717 1.388 . S
C718 C719 1.386 . S
C719 C718 1.386 . S
C719 C720 1.382 . S
C719 H741 0.950 . S
C720 N716 1.332 . S
C720 C719 1.382 . S
C720 H722 0.952 . S
C721 N716 1.332 . S
C721 C717 1.382 . S
C721 H723 0.948 . S
H722 C720 0.952 . S
H723 C721 0.948 . S
H724 C713 0.931 1_565 S
H725 C715 0.948 . S
C726 C692 1.395 . S
C726 C696 1.391 . S
C727 C689 1.389 . S
C727 C709 1.392 . S
C728 C699 1.392 1_545 S
C728 C701 1.389 1_545 S
C729 C704 1.395 . S
C729 C706 1.391 . S
H730 C690 0.951 . S
H731 C691 0.950 . S
H732 C697 0.949 . S
H733 C698 0.933 1_455 S
H734 C702 0.951 1_445 S
H735 C703 0.950 . S
H736 C707 0.949 . S
H737 C708 0.950 . S
H738 C712 0.950 . S
H739 C714 0.950 . S
H740 C717 0.950 . S
H741 C719 0.950 . S
C742 C743 1.443 . S
C742 N746 1.376 . S
C742 C780 1.389 . S
C743 C742 1.443 . S
C743 C744 1.340 . S
C743 H783 0.951 . S
C744 C743 1.340 . S
C744 C745 1.439 . S
C744 H784 0.950 . S
C745 C744 1.439 . S
C745 N746 1.374 . S
C745 C779 1.395 . S
N746 C742 1.376 . S
N746 C745 1.374 . S
N746 Co747 2.008 1_554 S
Co747 N746 2.008 1_556 S
Co747 N748 1.995 1_556 S
Co747 N753 2.008 . S
Co747 N758 1.995 . S
Co747 N763 2.282 . S
Co747 N769 2.282 1_556 S
N748 Co747 1.995 1_554 S
N748 C749 1.376 . S
N748 C752 1.383 . S
C749 N748 1.376 . S
C749 C750 1.446 . S
C749 C779 1.391 . S
C750 C749 1.446 . S
C750 C751 1.339 . S
C750 H785 0.949 . S
C751 C750 1.339 . S
C751 C752 1.439 . S
C751 H786 0.950 . S
C752 N748 1.383 . S
C752 C751 1.439 . S
C752 C781 1.392 1_554 S
N753 Co747 2.008 . S
N753 C754 1.376 . S
N753 C757 1.374 . S
C754 N753 1.376 . S
C754 C755 1.443 . S
C754 C781 1.389 . S
C755 C754 1.443 . S
C755 C756 1.340 . S
C755 H787 0.951 . S
C756 C755 1.340 . S
C756 C757 1.439 . S
C756 H788 0.950 . S
C757 N753 1.374 . S
C757 C756 1.439 . S
C757 C782 1.395 . S
N758 Co747 1.995 . S
N758 C759 1.376 . S
N758 C762 1.383 . S
C759 N758 1.376 . S
C759 C760 1.446 . S
C759 C782 1.391 . S
C760 C759 1.446 . S
C760 C761 1.339 . S
C760 H789 0.949 . S
C761 C760 1.339 . S
C761 C762 1.439 . S
C761 H790 0.950 . S
C762 N758 1.383 . S
C762 C761 1.439 . S
C762 C780 1.392 1_556 S
N763 Co747 2.282 . S
N763 C766 1.332 . S
N763 C768 1.332 1_556 S
C764 C765 1.386 . S
C764 C767 1.388 1_556 S
C765 C764 1.386 . S
C765 C766 1.382 . S
C765 H791 0.950 . S
C766 N763 1.332 . S
C766 C765 1.382 . S
C766 H777 0.952 . S
C767 C764 1.388 1_554 S
C767 C768 1.382 . S
C767 H792 0.950 . S
C768 N763 1.332 1_554 S
C768 C767 1.382 . S
C768 H778 0.948 . S
N769 Co747 2.282 1_554 S
N769 C773 1.332 . S
N769 C774 1.332 1_554 S
C770 C771 1.388 1_556 S
C770 C774 1.382 . S
C770 H793 0.950 . S
C771 C770 1.388 1_554 S
C771 C772 1.386 . S
C772 C771 1.386 . S
C772 C773 1.382 . S
C772 H794 0.950 . S
C773 N769 1.332 . S
C773 C772 1.382 . S
C773 H775 0.952 . S
C774 N769 1.332 1_556 S
C774 C770 1.382 . S
C774 H776 0.948 . S
H775 C773 0.952 . S
H776 C774 0.948 . S
H777 C766 0.952 . S
H778 C768 0.948 . S
C779 C745 1.395 . S
C779 C749 1.391 . S
C780 C742 1.389 . S
C780 C762 1.392 1_554 S
C781 C752 1.392 1_556 S
C781 C754 1.389 . S
C782 C757 1.395 . S
C782 C759 1.391 . S
H783 C743 0.951 . S
H784 C744 0.950 . S
H785 C750 0.949 . S
H786 C751 0.950 . S
H787 C755 0.951 . S
H788 C756 0.950 . S
H789 C760 0.949 . S
H790 C761 0.950 . S
H791 C765 0.950 . S
H792 C767 0.950 . S
H793 C770 0.950 . S
H794 C772 0.950 . S
C795 C796 1.443 . S
C795 N799 1.376 . S
C795 C833 1.389 . S
C796 C795 1.443 . S
C796 C797 1.340 . S
C796 H836 0.951 . S
C797 C796 1.340 . S
C797 C798 1.439 . S
C797 H837 0.950 . S
C798 C797 1.439 . S
C798 N799 1.374 . S
C798 C832 1.395 . S
N799 C795 1.376 . S
N799 C798 1.374 . S
N799 Co800 2.008 . S
Co800 N799 2.008 . S
Co800 N801 1.995 . S
Co800 N806 2.008 . S
Co800 N811 1.995 . S
Co800 N816 2.282 . S
Co800 N822 2.282 . S
N801 Co800 1.995 . S
N801 C802 1.376 . S
N801 C805 1.382 . S
C802 N801 1.376 . S
C802 C803 1.446 1_545 S
C802 C832 1.391 . S
C803 C802 1.446 1_565 S
C803 C804 1.339 . S
C803 H838 0.949 . S
C804 C803 1.339 . S
C804 C805 1.439 1_565 S
C804 H839 0.950 . S
C805 N801 1.382 . S
C805 C804 1.439 1_545 S
C805 C834 1.392 1_545 S
N806 Co800 2.008 . S
N806 C807 1.376 . S
N806 C810 1.374 . S
C807 N806 1.376 . S
C807 C808 1.443 . S
C807 C834 1.389 1_545 S
C808 C807 1.443 . S
C808 C809 1.340 . S
C808 H840 0.951 1_545 S
C809 C808 1.340 . S
C809 C810 1.439 . S
C809 H841 0.950 . S
C810 N806 1.374 . S
C810 C809 1.439 . S
C810 C835 1.395 . S
N811 Co800 1.995 . S
N811 C812 1.376 . S
N811 C815 1.383 . S
C812 N811 1.376 . S
C812 C813 1.446 . S
C812 C835 1.391 . S
C813 C812 1.446 . S
C813 C814 1.339 . S
C813 H842 0.949 . S
C814 C813 1.339 . S
C814 C815 1.439 . S
C814 H843 0.950 . S
C815 N811 1.383 . S
C815 C814 1.439 . S
C815 C833 1.392 . S
N816 Co800 2.282 . S
N816 C819 1.327 1_545 S
N816 C821 1.332 1_545 S
C817 C818 1.386 . S
C817 C820 1.388 . S
C818 C817 1.386 . S
C818 C819 1.406 . S
C818 H844 0.950 . S
C819 N816 1.327 1_565 S
C819 C818 1.406 . S
C819 H830 0.932 1_565 S
C820 C817 1.388 . S
C820 C821 1.382 . S
C820 H845 0.950 . S
C821 N816 1.332 1_565 S
C821 C820 1.382 . S
C821 H831 0.948 . S
N822 Co800 2.282 . S
N822 C826 1.332 . S
N822 C827 1.332 . S
C823 C824 1.388 . S
C823 C827 1.382 . S
C823 H846 0.950 . S
C824 C823 1.388 . S
C824 C825 1.386 . S
C825 C824 1.386 . S
C825 C826 1.382 . S
C825 H847 0.950 . S
C826 N822 1.332 . S
C826 C825 1.382 . S
C826 H828 0.952 . S
C827 N822 1.332 . S
C827 C823 1.382 . S
C827 H829 0.948 . S
H828 C826 0.952 . S
H829 C827 0.948 . S
H830 C819 0.932 1_545 S
H831 C821 0.948 . S
C832 C798 1.395 . S
C832 C802 1.391 . S
C833 C795 1.389 . S
C833 C815 1.392 . S
C834 C805 1.392 1_565 S
C834 C807 1.389 1_565 S
C835 C810 1.395 . S
C835 C812 1.391 . S
H836 C796 0.951 . S
H837 C797 0.950 . S
H838 C803 0.949 . S
H839 C804 0.950 . S
H840 C808 0.951 1_565 S
H841 C809 0.950 . S
H842 C813 0.949 . S
H843 C814 0.950 . S
H844 C818 0.950 . S
H845 C820 0.950 . S
H846 C823 0.950 . S
H847 C825 0.950 . S
H848 C854 0.930 . S
H849 C858 0.930 . S
H850 C863 0.929 . S
H851 C861 0.930 . S
H852 C856 0.929 . S
H853 C862 0.929 . S
C854 H848 0.930 . S
C854 C855 1.367 1_556 S
C854 C862 1.378 . S
C855 C854 1.367 1_554 S
C855 C863 1.433 . S
C856 H852 0.929 . S
C856 C858 1.378 . S
C856 C860 1.350 1_544 S
C857 C860 1.462 1_554 S
C857 C862 1.348 1_554 S
C857 N865 1.429 . S
C858 H849 0.930 . S
C858 C856 1.378 . S
C858 C859 1.367 1_554 S
C859 C858 1.367 1_556 S
C859 C861 1.425 1_545 S
C860 C856 1.350 1_566 S
C860 C857 1.462 1_556 S
C860 N864 1.427 . S
C861 H851 0.930 . S
C861 C859 1.425 1_565 S
C861 N864 1.391 . S
C862 H853 0.929 . S
C862 C854 1.378 . S
C862 C857 1.348 1_556 S
C863 H850 0.929 . S
C863 C855 1.433 . S
C863 N865 1.384 . S
N864 C860 1.427 . S
N864 C861 1.391 . S
N865 C857 1.429 . S
N865 C863 1.384 . S
H866 C872 0.930 . S
H867 C876 0.930 . S
H868 C881 0.929 . S
H869 C879 0.929 . S
H870 C874 0.929 . S
H871 C880 0.929 . S
C872 H866 0.930 . S
C872 C873 1.367 . S
C872 C880 1.378 . S
C873 C872 1.367 . S
C873 C881 1.433 . S
C874 H870 0.929 . S
C874 C876 1.378 . S
C874 C878 1.350 . S
C875 C878 1.463 . S
C875 C880 1.350 . S
C875 N883 1.427 . S
C876 H867 0.930 . S
C876 C874 1.378 . S
C876 C877 1.367 . S
C877 C876 1.367 . S
C877 C879 1.433 . S
C878 C874 1.350 . S
C878 C875 1.463 . S
C878 N882 1.427 . S
C879 H869 0.929 . S
C879 C877 1.433 . S
C879 N882 1.384 . S
C880 H871 0.929 . S
C880 C872 1.378 . S
C880 C875 1.350 . S
C881 H868 0.929 . S
C881 C873 1.433 . S
C881 N883 1.384 . S
N882 C878 1.427 . S
N882 C879 1.384 . S
N883 C875 1.427 . S
N883 C881 1.384 . S
H884 C890 0.930 . S
H885 C894 0.930 . S
H886 C899 0.929 . S
H887 C897 0.929 . S
H888 C892 0.929 . S
H889 C898 0.929 . S
C890 H884 0.930 . S
C890 C891 1.367 1_545 S
C890 C898 1.378 . S
C891 C890 1.367 1_565 S
C891 C899 1.433 . S
C892 H888 0.929 . S
C892 C894 1.378 . S
C892 C896 1.350 . S
C893 C896 1.463 . S
C893 C898 1.350 1_655 S
C893 N901 1.427 1_545 S
C894 H885 0.930 . S
C894 C892 1.378 . S
C894 C895 1.367 . S
C895 C894 1.367 . S
C895 C897 1.433 . S
C896 C892 1.350 . S
C896 C893 1.463 . S
C896 N900 1.427 . S
C897 H887 0.929 . S
C897 C895 1.433 . S
C897 N900 1.384 . S
C898 H889 0.929 . S
C898 C890 1.378 . S
C898 C893 1.350 1_455 S
C899 H886 0.929 . S
C899 C891 1.433 . S
C899 N901 1.384 1_455 S
N900 C896 1.427 . S
N900 C897 1.384 . S
N901 C893 1.427 1_565 S
N901 C899 1.384 1_655 S
H902 C908 0.930 . S
H903 C912 0.930 . S
H904 C917 0.929 . S
H905 C915 0.929 . S
H906 C910 0.929 . S
H907 C916 0.929 . S
C908 H902 0.930 . S
C908 C909 1.367 . S
C908 C916 1.378 . S
C909 C908 1.367 . S
C909 C917 1.433 . S
C910 H906 0.929 . S
C910 C912 1.378 . S
C910 C914 1.350 . S
C911 C914 1.463 . S
C911 C916 1.350 . S
C911 N919 1.427 . S
C912 H903 0.930 . S
C912 C910 1.378 . S
C912 C913 1.367 . S
C913 C912 1.367 . S
C913 C915 1.433 . S
C914 C910 1.350 . S
C914 C911 1.463 . S
C914 N918 1.427 . S
C915 H905 0.929 . S
C915 C913 1.433 . S
C915 N918 1.384 . S
C916 H907 0.929 . S
C916 C908 1.378 . S
C916 C911 1.350 . S
C917 H904 0.929 . S
C917 C909 1.433 . S
C917 N919 1.384 . S
N918 C914 1.427 . S
N918 C915 1.384 . S
N919 C911 1.427 . S
N919 C917 1.384 . S
H920 C926 0.930 . S
H921 C930 0.930 . S
H922 C935 0.929 . S
H923 C933 0.929 . S
H924 C928 0.929 . S
H925 C934 0.929 . S
C926 H920 0.930 . S
C926 C927 1.367 . S
C926 C934 1.378 . S
C927 C926 1.367 . S
C927 C935 1.433 . S
C928 H924 0.929 . S
C928 C930 1.378 . S
C928 C932 1.350 . S
C929 C932 1.463 . S
C929 C934 1.350 . S
C929 N937 1.427 . S
C930 H921 0.930 . S
C930 C928 1.378 . S
C930 C931 1.367 . S
C931 C930 1.367 . S
C931 C933 1.433 . S
C932 C928 1.350 . S
C932 C929 1.463 . S
C932 N936 1.427 . S
C933 H923 0.929 . S
C933 C931 1.433 . S
C933 N936 1.384 . S
C934 H925 0.929 . S
C934 C926 1.378 . S
C934 C929 1.350 . S
C935 H922 0.929 . S
C935 C927 1.433 . S
C935 N937 1.384 . S
N936 C932 1.427 . S
N936 C933 1.384 . S
N937 C929 1.427 . S
N937 C935 1.384 . S
H938 C944 0.930 . S
H939 C948 0.930 . S
H940 C953 0.929 . S
H941 C951 0.929 . S
H942 C946 0.929 . S
H943 C952 0.929 . S
C944 H938 0.930 . S
C944 C945 1.367 . S
C944 C952 1.378 . S
C945 C944 1.367 . S
C945 C953 1.433 . S
C946 H942 0.929 . S
C946 C948 1.378 . S
C946 C950 1.350 . S
C947 C950 1.463 . S
C947 C952 1.350 . S
C947 N955 1.427 . S
C948 H939 0.930 . S
C948 C946 1.378 . S
C948 C949 1.367 . S
C949 C948 1.367 . S
C949 C951 1.433 . S
C950 C946 1.350 . S
C950 C947 1.463 . S
C950 N954 1.427 . S
C951 H941 0.929 . S
C951 C949 1.433 . S
C951 N954 1.384 . S
C952 H943 0.929 . S
C952 C944 1.378 . S
C952 C947 1.350 . S
C953 H940 0.929 . S
C953 C945 1.433 . S
C953 N955 1.384 . S
N954 C950 1.427 . S
N954 C951 1.384 . S
N955 C947 1.427 . S
N955 C953 1.384 . S
H956 C962 0.930 . S
H957 C966 0.930 . S
H958 C971 0.929 . S
H959 C969 0.929 . S
H960 C964 0.929 . S
H961 C970 0.929 . S
C962 H956 0.930 . S
C962 C963 1.367 . S
C962 C970 1.378 . S
C963 C962 1.367 . S
C963 C971 1.433 . S
C964 H960 0.929 . S
C964 C966 1.378 . S
C964 C968 1.350 . S
C965 C968 1.463 . S
C965 C970 1.350 1_455 S
C965 N973 1.427 . S
C966 H957 0.930 . S
C966 C964 1.378 . S
C966 C967 1.367 . S
C967 C966 1.367 . S
C967 C969 1.433 . S
C968 C964 1.350 . S
C968 C965 1.463 . S
C968 N972 1.427 . S
C969 H959 0.929 . S
C969 C967 1.433 . S
C969 N972 1.384 . S
C970 H961 0.929 . S
C970 C962 1.378 . S
C970 C965 1.350 1_655 S
C971 H958 0.929 . S
C971 C963 1.433 . S
C971 N973 1.384 1_655 S
N972 C968 1.427 . S
N972 C969 1.384 . S
N973 C965 1.427 . S
N973 C971 1.384 1_455 S
H974 C980 0.930 . S
H975 C984 0.930 . S
H976 C989 0.929 . S
H977 C987 0.929 . S
H978 C982 0.929 . S
H979 C988 0.928 1_556 S
C980 H974 0.930 . S
C980 C981 1.367 . S
C980 C988 1.378 . S
C981 C980 1.367 . S
C981 C989 1.433 . S
C982 H978 0.929 . S
C982 C984 1.378 . S
C982 C986 1.350 . S
C983 C986 1.463 1_554 S
C983 C988 1.350 . S
C983 N991 1.427 . S
C984 H975 0.930 . S
C984 C982 1.378 . S
C984 C985 1.367 . S
C985 C984 1.367 . S
C985 C987 1.433 . S
C986 C982 1.350 . S
C986 C983 1.463 1_556 S
C986 N990 1.427 . S
C987 H977 0.929 . S
C987 C985 1.433 . S
C987 N990 1.384 . S
C988 H979 0.928 1_554 S
C988 C980 1.378 . S
C988 C983 1.350 . S
C989 H976 0.929 . S
C989 C981 1.433 . S
C989 N991 1.384 . S
N990 C986 1.427 . S
N990 C987 1.384 . S
N991 C983 1.427 . S
N991 C989 1.384 . S
H992 C998 0.930 . S
H993 C1002 0.930 . S
H994 C1007 0.929 . S
H995 C1005 0.929 . S
H996 C1000 0.929 . S
H997 C1006 0.929 . S
C998 H992 0.930 . S
C998 C999 1.367 . S
C998 C1006 1.378 . S
C999 C998 1.367 . S
C999 C1007 1.433 . S
C1000 H996 0.929 . S
C1000 C1002 1.378 . S
C1000 C1004 1.350 . S
C1001 C1004 1.463 . S
C1001 C1006 1.350 . S
C1001 N1009 1.427 . S
C1002 H993 0.930 . S
C1002 C1000 1.378 . S
C1002 C1003 1.367 . S
C1003 C1002 1.367 . S
C1003 C1005 1.433 . S
C1004 C1000 1.350 . S
C1004 C1001 1.463 . S
C1004 N1008 1.427 . S
C1005 H995 0.929 . S
C1005 C1003 1.433 . S
C1005 N1008 1.384 . S
C1006 H997 0.929 . S
C1006 C998 1.378 . S
C1006 C1001 1.350 . S
C1007 H994 0.929 . S
C1007 C999 1.433 . S
C1007 N1009 1.384 . S
N1008 C1004 1.427 . S
N1008 C1005 1.384 . S
N1009 C1001 1.427 . S
N1009 C1007 1.384 . S
H1010 C1016 0.930 . S
H1011 C1020 0.930 . S
H1012 C1025 0.929 . S
H1013 C1023 0.929 . S
H1014 C1018 0.929 . S
H1015 C1024 0.929 . S
C1016 H1010 0.930 . S
C1016 C1017 1.367 . S
C1016 C1024 1.378 . S
C1017 C1016 1.367 . S
C1017 C1025 1.433 . S
C1018 H1014 0.929 . S
C1018 C1020 1.378 . S
C1018 C1022 1.350 . S
C1019 C1022 1.463 . S
C1019 C1024 1.350 . S
C1019 N1027 1.427 . S
C1020 H1011 0.930 . S
C1020 C1018 1.378 . S
C1020 C1021 1.367 . S
C1021 C1020 1.367 . S
C1021 C1023 1.433 . S
C1022 C1018 1.350 . S
C1022 C1019 1.463 . S
C1022 N1026 1.427 . S
C1023 H1013 0.929 . S
C1023 C1021 1.433 . S
C1023 N1026 1.384 . S
C1024 H1015 0.929 . S
C1024 C1016 1.378 . S
C1024 C1019 1.350 . S
C1025 H1012 0.929 . S
C1025 C1017 1.433 . S
C1025 N1027 1.384 . S
N1026 C1022 1.427 . S
N1026 C1023 1.384 . S
N1027 C1019 1.427 . S
N1027 C1025 1.384 . S
H1028 C1034 0.930 . S
H1029 C1038 0.930 . S
H1030 C1043 0.929 . S
H1031 C1041 0.929 . S
H1032 C1036 0.929 . S
H1033 C1042 0.929 . S
C1034 H1028 0.930 . S
C1034 C1035 1.367 . S
C1034 C1042 1.378 . S
C1035 C1034 1.367 . S
C1035 C1043 1.433 . S
C1036 H1032 0.929 . S
C1036 C1038 1.378 . S
C1036 C1040 1.350 . S
C1037 C1040 1.463 . S
C1037 C1042 1.350 . S
C1037 N1045 1.427 . S
C1038 H1029 0.930 . S
C1038 C1036 1.378 . S
C1038 C1039 1.367 . S
C1039 C1038 1.367 . S
C1039 C1041 1.433 . S
C1040 C1036 1.350 . S
C1040 C1037 1.463 . S
C1040 N1044 1.427 . S
C1041 H1031 0.929 . S
C1041 C1039 1.433 . S
C1041 N1044 1.384 . S
C1042 H1033 0.929 . S
C1042 C1034 1.378 . S
C1042 C1037 1.350 . S
C1043 H1030 0.929 . S
C1043 C1035 1.433 . S
C1043 N1045 1.384 . S
N1044 C1040 1.427 . S
N1044 C1041 1.384 . S
N1045 C1037 1.427 . S
N1045 C1043 1.384 . S
H1046 C1052 0.930 . S
H1047 C1056 0.930 . S
H1048 C1061 0.929 1_655 S
H1049 C1059 0.929 . S
H1050 C1054 0.929 . S
H1051 C1060 0.929 . S
C1052 H1046 0.930 . S
C1052 C1053 1.367 1_455 S
C1052 C1060 1.378 . S
C1053 C1052 1.367 1_655 S
C1053 C1061 1.433 1_655 S
C1054 H1050 0.929 . S
C1054 C1056 1.378 . S
C1054 C1058 1.350 . S
C1055 C1058 1.463 . S
C1055 C1060 1.350 . S
C1055 N1063 1.427 . S
C1056 H1047 0.930 . S
C1056 C1054 1.378 . S
C1056 C1057 1.367 . S
C1057 C1056 1.367 . S
C1057 C1059 1.433 . S
C1058 C1054 1.350 . S
C1058 C1055 1.463 . S
C1058 N1062 1.427 . S
C1059 H1049 0.929 . S
C1059 C1057 1.433 . S
C1059 N1062 1.384 . S
C1060 H1051 0.929 . S
C1060 C1052 1.378 . S
C1060 C1055 1.350 . S
C1061 H1048 0.929 1_455 S
C1061 C1053 1.433 1_455 S
C1061 N1063 1.384 . S
N1062 C1058 1.427 . S
N1062 C1059 1.384 . S
N1063 C1055 1.427 . S
N1063 C1061 1.384 . S
H1064 C1070 0.930 . S
H1065 C1074 0.930 . S
H1066 C1079 0.929 . S
H1067 C1077 0.929 . S
H1068 C1072 0.929 . S
H1069 C1078 0.929 . S
C1070 H1064 0.930 . S
C1070 C1071 1.367 . S
C1070 C1078 1.378 . S
C1071 C1070 1.367 . S
C1071 C1079 1.433 . S
C1072 H1068 0.929 . S
C1072 C1074 1.378 . S
C1072 C1076 1.350 . S
C1073 C1076 1.463 . S
C1073 C1078 1.350 . S
C1073 N1081 1.427 . S
C1074 H1065 0.930 . S
C1074 C1072 1.378 . S
C1074 C1075 1.367 . S
C1075 C1074 1.367 . S
C1075 C1077 1.433 . S
C1076 C1072 1.350 . S
C1076 C1073 1.463 . S
C1076 N1080 1.427 . S
C1077 H1067 0.929 . S
C1077 C1075 1.433 . S
C1077 N1080 1.384 . S
C1078 H1069 0.929 . S
C1078 C1070 1.378 . S
C1078 C1073 1.350 . S
C1079 H1066 0.929 . S
C1079 C1071 1.433 . S
C1079 N1081 1.384 . S
N1080 C1076 1.427 . S
N1080 C1077 1.384 . S
N1081 C1073 1.427 . S
N1081 C1079 1.384 . S
H1082 C1088 0.930 . S
H1083 C1092 0.930 . S
H1084 C1097 0.929 . S
H1085 C1095 0.929 . S
H1086 C1090 0.929 . S
H1087 C1096 0.929 . S
C1088 H1082 0.930 . S
C1088 C1089 1.367 . S
C1088 C1096 1.378 . S
C1089 C1088 1.367 . S
C1089 C1097 1.433 . S
C1090 H1086 0.929 . S
C1090 C1092 1.378 . S
C1090 C1094 1.350 . S
C1091 C1094 1.463 . S
C1091 C1096 1.350 . S
C1091 N1099 1.427 . S
C1092 H1083 0.930 . S
C1092 C1090 1.378 . S
C1092 C1093 1.367 . S
C1093 C1092 1.367 . S
C1093 C1095 1.433 . S
C1094 C1090 1.350 . S
C1094 C1091 1.463 . S
C1094 N1098 1.427 . S
C1095 H1085 0.929 . S
C1095 C1093 1.433 . S
C1095 N1098 1.384 . S
C1096 H1087 0.929 . S
C1096 C1088 1.378 . S
C1096 C1091 1.350 . S
C1097 H1084 0.929 . S
C1097 C1089 1.433 . S
C1097 N1099 1.384 . S
N1098 C1094 1.427 . S
N1098 C1095 1.384 . S
N1099 C1091 1.427 . S
N1099 C1097 1.384 . S
H1100 C1106 0.930 . S
H1101 C1110 0.930 . S
H1102 C1115 0.929 . S
H1103 C1113 0.929 . S
H1104 C1108 0.929 . S
H1105 C1114 0.929 . S
C1106 H1100 0.930 . S
C1106 C1107 1.367 . S
C1106 C1114 1.378 . S
C1107 C1106 1.367 . S
C1107 C1115 1.433 . S
C1108 H1104 0.929 . S
C1108 C1110 1.378 . S
C1108 C1112 1.350 . S
C1109 C1112 1.463 . S
C1109 C1114 1.350 . S
C1109 N1117 1.427 . S
C1110 H1101 0.930 . S
C1110 C1108 1.378 . S
C1110 C1111 1.367 . S
C1111 C1110 1.367 . S
C1111 C1113 1.433 . S
C1112 C1108 1.350 . S
C1112 C1109 1.463 . S
C1112 N1116 1.427 . S
C1113 H1103 0.929 . S
C1113 C1111 1.433 . S
C1113 N1116 1.384 . S
C1114 H1105 0.929 . S
C1114 C1106 1.378 . S
C1114 C1109 1.350 . S
C1115 H1102 0.929 . S
C1115 C1107 1.433 . S
C1115 N1117 1.384 . S
N1116 C1112 1.427 . S
N1116 C1113 1.384 . S
N1117 C1109 1.427 . S
N1117 C1115 1.384 . S
H1118 C1124 0.930 . S
H1119 C1128 0.930 . S
H1120 C1133 0.929 . S
H1121 C1131 0.929 . S
H1122 C1126 0.929 . S
H1123 C1132 0.929 . S
C1124 H1118 0.930 . S
C1124 C1125 1.367 . S
C1124 C1132 1.378 . S
C1125 C1124 1.367 . S
C1125 C1133 1.433 . S
C1126 H1122 0.929 . S
C1126 C1128 1.378 . S
C1126 C1130 1.350 . S
C1127 C1130 1.463 . S
C1127 C1132 1.350 . S
C1127 N1135 1.427 . S
C1128 H1119 0.930 . S
C1128 C1126 1.378 . S
C1128 C1129 1.367 . S
C1129 C1128 1.367 . S
C1129 C1131 1.433 . S
C1130 C1126 1.350 . S
C1130 C1127 1.463 . S
C1130 N1134 1.427 . S
C1131 H1121 0.929 . S
C1131 C1129 1.433 . S
C1131 N1134 1.384 . S
C1132 H1123 0.929 . S
C1132 C1124 1.378 . S
C1132 C1127 1.350 . S
C1133 H1120 0.929 . S
C1133 C1125 1.433 . S
C1133 N1135 1.384 . S
N1134 C1130 1.427 . S
N1134 C1131 1.384 . S
N1135 C1127 1.427 . S
N1135 C1133 1.384 . S
H1136 C1142 0.930 . S
H1137 C1146 0.930 . S
H1138 C1151 0.929 . S
H1139 C1149 0.929 . S
H1140 C1144 0.929 . S
H1141 C1150 0.929 . S
C1142 H1136 0.930 . S
C1142 C1143 1.367 . S
C1142 C1150 1.378 . S
C1143 C1142 1.367 . S
C1143 C1151 1.433 . S
C1144 H1140 0.929 . S
C1144 C1146 1.378 . S
C1144 C1148 1.350 . S
C1145 C1148 1.463 . S
C1145 C1150 1.350 . S
C1145 N1153 1.427 . S
C1146 H1137 0.930 . S
C1146 C1144 1.378 . S
C1146 C1147 1.367 . S
C1147 C1146 1.367 . S
C1147 C1149 1.433 . S
C1148 C1144 1.350 . S
C1148 C1145 1.463 . S
C1148 N1152 1.427 . S
C1149 H1139 0.929 . S
C1149 C1147 1.433 . S
C1149 N1152 1.384 . S
C1150 H1141 0.929 . S
C1150 C1142 1.378 . S
C1150 C1145 1.350 . S
C1151 H1138 0.929 . S
C1151 C1143 1.433 . S
C1151 N1153 1.384 . S
N1152 C1148 1.427 . S
N1152 C1149 1.384 . S
N1153 C1145 1.427 . S
N1153 C1151 1.384 . S
H1154 C1160 0.930 . S
H1155 C1164 0.930 . S
H1156 C1169 0.929 . S
H1157 C1167 0.929 . S
H1158 C1162 0.929 . S
H1159 C1168 0.929 . S
C1160 H1154 0.930 . S
C1160 C1161 1.367 . S
C1160 C1168 1.378 . S
C1161 C1160 1.367 . S
C1161 C1169 1.433 . S
C1162 H1158 0.929 . S
C1162 C1164 1.378 . S
C1162 C1166 1.350 . S
C1163 C1166 1.463 . S
C1163 C1168 1.350 . S
C1163 N1171 1.427 . S
C1164 H1155 0.930 . S
C1164 C1162 1.378 . S
C1164 C1165 1.367 1_655 S
C1165 C1164 1.367 1_455 S
C1165 C1167 1.433 . S
C1166 C1162 1.350 . S
C1166 C1163 1.463 . S
C1166 N1170 1.427 . S
C1167 H1157 0.929 . S
C1167 C1165 1.433 . S
C1167 N1170 1.384 1_455 S
C1168 H1159 0.929 . S
C1168 C1160 1.378 . S
C1168 C1163 1.350 . S
C1169 H1156 0.929 . S
C1169 C1161 1.433 . S
C1169 N1171 1.384 . S
N1170 C1166 1.427 . S
N1170 C1167 1.384 1_655 S
N1171 C1163 1.427 . S
N1171 C1169 1.384 . S
H1172 C1178 0.930 . S
H1173 C1182 0.930 . S
H1174 C1187 0.929 . S
H1175 C1185 0.929 . S
H1176 C1180 0.929 . S
H1177 C1186 0.929 . S
C1178 H1172 0.930 . S
C1178 C1179 1.367 . S
C1178 C1186 1.378 . S
C1179 C1178 1.367 . S
C1179 C1187 1.433 . S
C1180 H1176 0.929 . S
C1180 C1182 1.378 . S
C1180 C1184 1.350 . S
C1181 C1184 1.463 . S
C1181 C1186 1.350 . S
C1181 N1189 1.427 . S
C1182 H1173 0.930 . S
C1182 C1180 1.378 . S
C1182 C1183 1.367 . S
C1183 C1182 1.367 . S
C1183 C1185 1.433 . S
C1184 C1180 1.350 . S
C1184 C1181 1.463 . S
C1184 N1188 1.427 . S
C1185 H1175 0.929 . S
C1185 C1183 1.433 . S
C1185 N1188 1.384 . S
C1186 H1177 0.929 . S
C1186 C1178 1.378 . S
C1186 C1181 1.350 . S
C1187 H1174 0.929 . S
C1187 C1179 1.433 . S
C1187 N1189 1.384 . S
N1188 C1184 1.427 . S
N1188 C1185 1.384 . S
N1189 C1181 1.427 . S
N1189 C1187 1.384 . S
H1190 C1196 0.930 1_565 S
H1191 C1200 0.930 . S
H1192 C1205 0.929 . S
H1193 C1203 0.929 . S
H1194 C1198 0.929 . S
H1195 C1204 0.929 . S
C1196 H1190 0.930 1_545 S
C1196 C1197 1.367 . S
C1196 C1204 1.378 . S
C1197 C1196 1.367 . S
C1197 C1205 1.433 . S
C1198 H1194 0.929 . S
C1198 C1200 1.378 . S
C1198 C1202 1.350 . S
C1199 C1202 1.463 . S
C1199 C1204 1.350 . S
C1199 N1207 1.427 . S
C1200 H1191 0.930 . S
C1200 C1198 1.378 . S
C1200 C1201 1.367 . S
C1201 C1200 1.367 . S
C1201 C1203 1.433 . S
C1202 C1198 1.350 . S
C1202 C1199 1.463 . S
C1202 N1206 1.427 . S
C1203 H1193 0.929 . S
C1203 C1201 1.433 . S
C1203 N1206 1.384 . S
C1204 H1195 0.929 . S
C1204 C1196 1.378 . S
C1204 C1199 1.350 . S
C1205 H1192 0.929 . S
C1205 C1197 1.433 . S
C1205 N1207 1.384 . S
N1206 C1202 1.427 . S
N1206 C1203 1.384 . S
N1207 C1199 1.427 . S
N1207 C1205 1.384 . S
H1208 C1214 0.930 . S
H1209 C1218 0.930 . S
H1210 C1223 0.929 . S
H1211 C1221 0.929 . S
H1212 C1216 0.929 . S
H1213 C1222 0.929 . S
C1214 H1208 0.930 . S
C1214 C1215 1.367 . S
C1214 C1222 1.378 . S
C1215 C1214 1.367 . S
C1215 C1223 1.433 . S
C1216 H1212 0.929 . S
C1216 C1218 1.378 . S
C1216 C1220 1.350 . S
C1217 C1220 1.463 . S
C1217 C1222 1.350 . S
C1217 N1225 1.427 . S
C1218 H1209 0.930 . S
C1218 C1216 1.378 . S
C1218 C1219 1.367 . S
C1219 C1218 1.367 . S
C1219 C1221 1.433 . S
C1220 C1216 1.350 . S
C1220 C1217 1.463 . S
C1220 N1224 1.427 . S
C1221 H1211 0.929 . S
C1221 C1219 1.433 . S
C1221 N1224 1.384 . S
C1222 H1213 0.929 . S
C1222 C1214 1.378 . S
C1222 C1217 1.350 . S
C1223 H1210 0.929 . S
C1223 C1215 1.433 . S
C1223 N1225 1.384 . S
N1224 C1220 1.427 . S
N1224 C1221 1.384 . S
N1225 C1217 1.427 . S
N1225 C1223 1.384 . S
H1226 C1232 0.930 . S
H1227 C1236 0.930 . S
H1228 C1241 0.929 . S
H1229 C1239 0.929 . S
H1230 C1234 0.929 . S
H1231 C1240 0.929 . S
C1232 H1226 0.930 . S
C1232 C1233 1.367 . S
C1232 C1240 1.378 . S
C1233 C1232 1.367 . S
C1233 C1241 1.433 . S
C1234 H1230 0.929 . S
C1234 C1236 1.378 . S
C1234 C1238 1.350 . S
C1235 C1238 1.463 . S
C1235 C1240 1.350 . S
C1235 N1243 1.427 . S
C1236 H1227 0.930 . S
C1236 C1234 1.378 . S
C1236 C1237 1.367 . S
C1237 C1236 1.367 . S
C1237 C1239 1.433 . S
C1238 C1234 1.350 . S
C1238 C1235 1.463 . S
C1238 N1242 1.427 . S
C1239 H1229 0.929 . S
C1239 C1237 1.433 . S
C1239 N1242 1.384 . S
C1240 H1231 0.929 . S
C1240 C1232 1.378 . S
C1240 C1235 1.350 . S
C1241 H1228 0.929 . S
C1241 C1233 1.433 . S
C1241 N1243 1.384 . S
N1242 C1238 1.427 . S
N1242 C1239 1.384 . S
N1243 C1235 1.427 . S
N1243 C1241 1.384 . S
H1244 C1250 0.930 . S
H1245 C1254 0.930 . S
H1246 C1259 0.929 . S
H1247 C1257 0.929 . S
H1248 C1252 0.929 . S
H1249 C1258 0.929 . S
C1250 H1244 0.930 . S
C1250 C1251 1.367 . S
C1250 C1258 1.378 . S
C1251 C1250 1.367 . S
C1251 C1259 1.433 . S
C1252 H1248 0.929 . S
C1252 C1254 1.378 . S
C1252 C1256 1.350 . S
C1253 C1256 1.463 . S
C1253 C1258 1.350 . S
C1253 N1261 1.427 . S
C1254 H1245 0.930 . S
C1254 C1252 1.378 . S
C1254 C1255 1.367 . S
C1255 C1254 1.367 . S
C1255 C1257 1.433 . S
C1256 C1252 1.350 . S
C1256 C1253 1.463 . S
C1256 N1260 1.427 . S
C1257 H1247 0.929 . S
C1257 C1255 1.433 . S
C1257 N1260 1.384 . S
C1258 H1249 0.929 . S
C1258 C1250 1.378 . S
C1258 C1253 1.350 . S
C1259 H1246 0.929 . S
C1259 C1251 1.433 . S
C1259 N1261 1.384 . S
N1260 C1256 1.427 . S
N1260 C1257 1.384 . S
N1261 C1253 1.427 . S
N1261 C1259 1.384 . S
H1262 C1268 0.930 . S
H1263 C1272 0.930 . S
H1264 C1277 0.929 . S
H1265 C1275 0.929 1_545 S
H1266 C1270 0.929 . S
H1267 C1276 0.929 . S
C1268 H1262 0.930 . S
C1268 C1269 1.367 . S
C1268 C1276 1.378 . S
C1269 C1268 1.367 . S
C1269 C1277 1.433 . S
C1270 H1266 0.929 . S
C1270 C1272 1.378 . S
C1270 C1274 1.350 . S
C1271 C1274 1.463 . S
C1271 C1276 1.350 . S
C1271 N1279 1.427 . S
C1272 H1263 0.930 . S
C1272 C1270 1.378 . S
C1272 C1273 1.367 . S
C1273 C1272 1.367 . S
C1273 C1275 1.433 . S
C1274 C1270 1.350 . S
C1274 C1271 1.463 . S
C1274 N1278 1.427 . S
C1275 H1265 0.929 1_565 S
C1275 C1273 1.433 . S
C1275 N1278 1.384 . S
C1276 H1267 0.929 . S
C1276 C1268 1.378 . S
C1276 C1271 1.350 . S
C1277 H1264 0.929 . S
C1277 C1269 1.433 . S
C1277 N1279 1.384 . S
N1278 C1274 1.427 . S
N1278 C1275 1.384 . S
N1279 C1271 1.427 . S
N1279 C1277 1.384 . S
H1280 C1286 0.930 . S
H1281 C1290 0.930 . S
H1282 C1295 0.929 . S
H1283 C1293 0.929 . S
H1284 C1288 0.929 . S
H1285 C1294 0.929 . S
C1286 H1280 0.930 . S
C1286 C1287 1.367 . S
C1286 C1294 1.378 . S
C1287 C1286 1.367 . S
C1287 C1295 1.433 . S
C1288 H1284 0.929 . S
C1288 C1290 1.378 . S
C1288 C1292 1.350 . S
C1289 C1292 1.463 . S
C1289 C1294 1.350 . S
C1289 N1297 1.427 . S
C1290 H1281 0.930 . S
C1290 C1288 1.378 . S
C1290 C1291 1.367 . S
C1291 C1290 1.367 . S
C1291 C1293 1.433 . S
C1292 C1288 1.350 . S
C1292 C1289 1.463 . S
C1292 N1296 1.427 . S
C1293 H1283 0.929 . S
C1293 C1291 1.433 . S
C1293 N1296 1.384 . S
C1294 H1285 0.929 . S
C1294 C1286 1.378 . S
C1294 C1289 1.350 . S
C1295 H1282 0.929 . S
C1295 C1287 1.433 . S
C1295 N1297 1.384 . S
N1296 C1292 1.427 . S
N1296 C1293 1.384 . S
N1297 C1289 1.427 . S
N1297 C1295 1.384 . S
H1298 C1304 0.930 . S
H1299 C1308 0.930 . S
H1300 C1313 0.929 . S
H1301 C1311 0.929 . S
H1302 C1306 0.929 . S
H1303 C1312 0.929 . S
C1304 H1298 0.930 . S
C1304 C1305 1.367 . S
C1304 C1312 1.378 . S
C1305 C1304 1.367 . S
C1305 C1313 1.433 . S
C1306 H1302 0.929 . S
C1306 C1308 1.378 . S
C1306 C1310 1.350 . S
C1307 C1310 1.463 . S
C1307 C1312 1.350 . S
C1307 N1315 1.427 . S
C1308 H1299 0.930 . S
C1308 C1306 1.378 . S
C1308 C1309 1.367 . S
C1309 C1308 1.367 . S
C1309 C1311 1.433 . S
C1310 C1306 1.350 . S
C1310 C1307 1.463 . S
C1310 N1314 1.427 . S
C1311 H1301 0.929 . S
C1311 C1309 1.433 . S
C1311 N1314 1.384 . S
C1312 H1303 0.929 . S
C1312 C1304 1.378 . S
C1312 C1307 1.350 . S
C1313 H1300 0.929 . S
C1313 C1305 1.433 . S
C1313 N1315 1.384 . S
N1314 C1310 1.427 . S
N1314 C1311 1.384 . S
N1315 C1307 1.427 . S
N1315 C1313 1.384 . S
H1316 C1322 0.930 . S
H1317 C1326 0.930 . S
H1318 C1331 0.929 . S
H1319 C1329 0.929 . S
H1320 C1324 0.929 . S
H1321 C1330 0.929 . S
C1322 H1316 0.930 . S
C1322 C1323 1.367 . S
C1322 C1330 1.378 . S
C1323 C1322 1.367 . S
C1323 C1331 1.433 . S
C1324 H1320 0.929 . S
C1324 C1326 1.378 . S
C1324 C1328 1.350 . S
C1325 C1328 1.463 1_455 S
C1325 C1330 1.350 . S
C1325 N1333 1.427 . S
C1326 H1317 0.930 . S
C1326 C1324 1.378 . S
C1326 C1327 1.367 . S
C1327 C1326 1.367 . S
C1327 C1329 1.433 . S
C1328 C1324 1.350 . S
C1328 C1325 1.463 1_655 S
C1328 N1332 1.427 . S
C1329 H1319 0.929 . S
C1329 C1327 1.433 . S
C1329 N1332 1.384 . S
C1330 H1321 0.929 . S
C1330 C1322 1.378 . S
C1330 C1325 1.350 . S
C1331 H1318 0.929 . S
C1331 C1323 1.433 . S
C1331 N1333 1.384 . S
N1332 C1328 1.427 . S
N1332 C1329 1.384 . S
N1333 C1325 1.427 . S
N1333 C1331 1.384 . S
H1334 C1340 0.930 . S
H1335 C1344 0.930 . S
H1336 C1349 0.929 . S
H1337 C1347 0.929 . S
H1338 C1342 0.929 . S
H1339 C1348 0.929 . S
C1340 H1334 0.930 . S
C1340 C1341 1.367 . S
C1340 C1348 1.378 1_455 S
C1341 C1340 1.367 . S
C1341 C1349 1.433 . S
C1342 H1338 0.929 . S
C1342 C1344 1.378 1_455 S
C1342 C1346 1.350 1_455 S
C1343 C1346 1.463 1_455 S
C1343 C1348 1.350 1_455 S
C1343 N1351 1.427 . S
C1344 H1335 0.930 . S
C1344 C1342 1.378 1_655 S
C1344 C1345 1.367 . S
C1345 C1344 1.367 . S
C1345 C1347 1.433 . S
C1346 C1342 1.350 1_655 S
C1346 C1343 1.463 1_655 S
C1346 N1350 1.427 . S
C1347 H1337 0.929 . S
C1347 C1345 1.433 . S
C1347 N1350 1.384 . S
C1348 H1339 0.929 . S
C1348 C1340 1.378 1_655 S
C1348 C1343 1.350 1_655 S
C1349 H1336 0.929 . S
C1349 C1341 1.433 . S
C1349 N1351 1.384 . S
N1350 C1346 1.427 . S
N1350 C1347 1.384 . S
N1351 C1343 1.427 . S
N1351 C1349 1.384 . S
H1352 C1358 0.930 1_556 S
H1353 C1362 0.930 . S
H1354 C1367 0.929 . S
H1355 C1365 0.929 1_556 S
H1356 C1360 0.929 . S
H1357 C1366 0.929 1_556 S
C1358 H1352 0.930 1_554 S
C1358 C1359 1.367 . S
C1358 C1366 1.378 . S
C1359 C1358 1.367 . S
C1359 C1367 1.433 . S
C1360 H1356 0.929 . S
C1360 C1362 1.378 . S
C1360 C1364 1.350 . S
C1361 C1364 1.463 . S
C1361 C1366 1.350 . S
C1361 N1369 1.427 . S
C1362 H1353 0.930 . S
C1362 C1360 1.378 . S
C1362 C1363 1.367 . S
C1363 C1362 1.367 . S
C1363 C1365 1.433 . S
C1364 C1360 1.350 . S
C1364 C1361 1.463 . S
C1364 N1368 1.427 . S
C1365 H1355 0.929 1_554 S
C1365 C1363 1.433 . S
C1365 N1368 1.384 . S
C1366 H1357 0.929 1_554 S
C1366 C1358 1.378 . S
C1366 C1361 1.350 . S
C1367 H1354 0.929 . S
C1367 C1359 1.433 . S
C1367 N1369 1.384 . S
N1368 C1364 1.427 . S
N1368 C1365 1.384 . S
N1369 C1361 1.427 . S
N1369 C1367 1.384 . S
H1370 C1376 0.930 . S
H1371 C1380 0.930 . S
H1372 C1385 0.929 . S
H1373 C1383 0.929 . S
H1374 C1378 0.929 . S
H1375 C1384 0.929 . S
C1376 H1370 0.930 . S
C1376 C1377 1.367 . S
C1376 C1384 1.378 . S
C1377 C1376 1.367 . S
C1377 C1385 1.433 . S
C1378 H1374 0.929 . S
C1378 C1380 1.378 . S
C1378 C1382 1.350 . S
C1379 C1382 1.463 . S
C1379 C1384 1.350 . S
C1379 N1387 1.427 . S
C1380 H1371 0.930 . S
C1380 C1378 1.378 . S
C1380 C1381 1.367 . S
C1381 C1380 1.367 . S
C1381 C1383 1.433 . S
C1382 C1378 1.350 . S
C1382 C1379 1.463 . S
C1382 N1386 1.427 . S
C1383 H1373 0.929 . S
C1383 C1381 1.433 . S
C1383 N1386 1.384 . S
C1384 H1375 0.929 . S
C1384 C1376 1.378 . S
C1384 C1379 1.350 . S
C1385 H1372 0.929 . S
C1385 C1377 1.433 . S
C1385 N1387 1.384 . S
N1386 C1382 1.427 . S
N1386 C1383 1.384 . S
N1387 C1379 1.427 . S
N1387 C1385 1.384 . S
H1388 C1394 0.930 . S
H1389 C1398 0.930 . S
H1390 C1403 0.929 . S
H1391 C1401 0.929 . S
H1392 C1396 0.929 . S
H1393 C1402 0.929 . S
C1394 H1388 0.930 . S
C1394 C1395 1.367 . S
C1394 C1402 1.378 . S
C1395 C1394 1.367 . S
C1395 C1403 1.433 . S
C1396 H1392 0.929 . S
C1396 C1398 1.378 . S
C1396 C1400 1.350 . S
C1397 C1400 1.463 1_455 S
C1397 C1402 1.350 . S
C1397 N1405 1.427 . S
C1398 H1389 0.930 . S
C1398 C1396 1.378 . S
C1398 C1399 1.367 . S
C1399 C1398 1.367 . S
C1399 C1401 1.433 . S
C1400 C1396 1.350 . S
C1400 C1397 1.463 1_655 S
C1400 N1404 1.427 . S
C1401 H1391 0.929 . S
C1401 C1399 1.433 . S
C1401 N1404 1.384 . S
C1402 H1393 0.929 . S
C1402 C1394 1.378 . S
C1402 C1397 1.350 . S
C1403 H1390 0.929 . S
C1403 C1395 1.433 . S
C1403 N1405 1.384 . S
N1404 C1400 1.427 . S
N1404 C1401 1.384 . S
N1405 C1397 1.427 . S
N1405 C1403 1.384 . S
H1406 C1412 0.930 . S
H1407 C1416 0.930 . S
H1408 C1421 0.929 . S
H1409 C1419 0.929 . S
H1410 C1414 0.929 . S
H1411 C1420 0.929 . S
C1412 H1406 0.930 . S
C1412 C1413 1.367 . S
C1412 C1420 1.378 . S
C1413 C1412 1.367 . S
C1413 C1421 1.433 1_655 S
C1414 H1410 0.929 . S
C1414 C1416 1.378 . S
C1414 C1418 1.350 . S
C1415 C1418 1.463 1_655 S
C1415 C1420 1.350 . S
C1415 N1423 1.427 1_655 S
C1416 H1407 0.930 . S
C1416 C1414 1.378 . S
C1416 C1417 1.367 . S
C1417 C1416 1.367 . S
C1417 C1419 1.433 1_455 S
C1418 C1414 1.350 . S
C1418 C1415 1.463 1_455 S
C1418 N1422 1.427 1_455 S
C1419 H1409 0.929 . S
C1419 C1417 1.433 1_655 S
C1419 N1422 1.384 . S
C1420 H1411 0.929 . S
C1420 C1412 1.378 . S
C1420 C1415 1.350 . S
C1421 H1408 0.929 . S
C1421 C1413 1.433 1_455 S
C1421 N1423 1.384 . S
N1422 C1418 1.427 1_655 S
N1422 C1419 1.384 . S
N1423 C1415 1.427 1_455 S
N1423 C1421 1.384 . S
C855 C250 2.674 . S
C859 C29 2.676 . S
C873 C727 2.782 . S
C877 C91 2.766 . S
C891 C135 2.702 . S
C895 C356 2.699 . S
C909 C833 2.783 . S
C913 C197 2.767 . S
C927 C515 2.761 . S
C931 C303 2.778 . S
C945 C621 2.766 . S
C949 C409 2.783 . S
C963 C453 2.703 . S
C967 C674 2.700 . S
C981 C780 2.679 . S
C985 C559 2.682 . S
C999 C393 1.824 . S
C1003 C22 1.805 . S
C1017 C658 1.823 . S
C1021 C92 1.792 . S
C1035 C128 1.819 . S
C1039 C287 1.845 . S
C1053 C198 1.788 . S
C1057 C764 1.819 . S
C1071 C181 2.166 . S
C1075 C251 2.125 . S
C1089 C304 2.222 . S
C1093 C463 2.272 . S
C1107 C357 2.141 . S
C1111 C75 2.185 . S
C1125 C410 2.222 1_655 S
C1129 C569 2.271 . S
C1143 C446 1.828 . S
C1147 C817 1.850 . S
C1161 C234 1.827 . S
C1165 C516 1.795 . S
C1179 C711 1.825 . S
C1183 C552 1.808 . S
C1197 C622 1.786 . S
C1201 C340 1.818 . S
C1215 C605 2.183 . S
C1219 C675 2.144 . S
C1233 C728 2.228 1_455 S
C1237 C39 2.277 . S
C1251 C781 2.134 . S
C1255 C499 2.168 . S
C1269 C145 2.275 . S
C1273 C834 2.228 . S
C1287 C38 0.913 . S
C1291 C568 0.917 . S
C1305 C612 0.723 . S
C1309 C82 0.710 . S
C1323 C144 0.921 . S
C1327 C462 0.917 . S
C1341 C506 0.710 . S
C1345 C188 0.716 . S
C1359 C771 0.251 . S
C1363 C241 0.284 . S
C1377 C824 0.259 . S
C1381 C294 0.253 . S
C1395 C665 0.255 . S
C1399 C347 0.258 . S
C1413 C718 0.266 . S
C1417 C400 0.245 . S
