# Generated by pormake.
# Topology sml, (6)-cn, num edge types: 1
# Building blocks:
#     Node 0, Type 0, BuildingBlock: UKALOJ_clean_sbu_0, # of connection points: 6
#     Node 1, Type 0, BuildingBlock: UKALOJ_clean_sbu_0, # of connection points: 6
#     Node 2, Type 0, BuildingBlock: UKALOJ_clean_sbu_0, # of connection points: 6
#     Node 3, Type 0, BuildingBlock: UKALOJ_clean_sbu_0, # of connection points: 6
#     Node 4, Type 0, BuildingBlock: UKALOJ_clean_sbu_0, # of connection points: 6
#     Node 5, Type 0, BuildingBlock: UKALOJ_clean_sbu_0, # of connection points: 6
#     Edge 6, Type (0, 0), BuildingBlock: UVAHIK_clean_linker_0, # of connection points: 2
#     Edge 7, Type (0, 0), BuildingBlock: UVAHIK_clean_linker_0, # of connection points: 2
#     Edge 8, Type (0, 0), BuildingBlock: UVAHIK_clean_linker_0, # of connection points: 2
#     Edge 9, Type (0, 0), BuildingBlock: UVAHIK_clean_linker_0, # of connection points: 2
#     Edge 10, Type (0, 0), BuildingBlock: UVAHIK_clean_linker_0, # of connection points: 2
#     Edge 11, Type (0, 0), BuildingBlock: UVAHIK_clean_linker_0, # of connection points: 2
#     Edge 12, Type (0, 0), BuildingBlock: UVAHIK_clean_linker_0, # of connection points: 2
#     Edge 13, Type (0, 0), BuildingBlock: UVAHIK_clean_linker_0, # of connection points: 2
#     Edge 14, Type (0, 0), BuildingBlock: UVAHIK_clean_linker_0, # of connection points: 2
#     Edge 15, Type (0, 0), BuildingBlock: UVAHIK_clean_linker_0, # of connection points: 2
#     Edge 16, Type (0, 0), BuildingBlock: UVAHIK_clean_linker_0, # of connection points: 2
#     Edge 17, Type (0, 0), BuildingBlock: UVAHIK_clean_linker_0, # of connection points: 2
#     Edge 18, Type (0, 0), BuildingBlock: UVAHIK_clean_linker_0, # of connection points: 2
#     Edge 19, Type (0, 0), BuildingBlock: UVAHIK_clean_linker_0, # of connection points: 2
#     Edge 20, Type (0, 0), BuildingBlock: UVAHIK_clean_linker_0, # of connection points: 2
#     Edge 21, Type (0, 0), BuildingBlock: UVAHIK_clean_linker_0, # of connection points: 2
#     Edge 22, Type (0, 0), BuildingBlock: UVAHIK_clean_linker_0, # of connection points: 2
#     Edge 23, Type (0, 0), BuildingBlock: UVAHIK_clean_linker_0, # of connection points: 2
# Relax obj value: 0.277
# Max RMSD: 0.215
# Mean RMSD: 0.215
data_MOF--net-sml--node1-UKALOJ_clean_sbu_0--edge1-UVAHIK_clean_linker_0
_symmetry_space_group_name_H-M    P1
_symmetry_Int_Tables_number       1
_symmetry_cell_setting            triclinic
loop_
_symmetry_equiv_pos_as_xyz
'x, y, z'
_cell_length_a     48.191882
_cell_length_b     48.234609
_cell_length_c     23.523879
_cell_angle_alpha  90.020133
_cell_angle_beta   90.03361
_cell_angle_gamma 120.05147
loop_
_atom_site_label
_atom_site_type_symbol
_atom_site_fract_x
_atom_site_fract_y
_atom_site_fract_z
_atom_type_partial_charge
Zn0 Zn 0.20848 0.40826 0.02973 0.0
O1 O 0.20391 0.44733 0.05705 0.0
C2 C 0.1365 0.36747 0.02839 0.0
Zn3 Zn 0.1854 0.40968 0.94873 0.0
C4 C 0.19143 0.45993 0.02655 0.0
O5 O 0.18168 0.44923 0.97678 0.0
C6 C 0.20106 0.3572 0.95328 0.0
O7 O 0.23267 0.44088 0.91971 0.0
O8 O 0.2552 0.44071 0.00079 0.0
N9 N 0.16744 0.41152 0.87114 0.0
C10 C 0.17979 0.41378 0.81888 0.0
C11 C 0.13491 0.41187 0.80829 0.0
N12 N 0.13953 0.4103 0.86455 0.0
N13 N 0.16008 0.41444 0.77904 0.0
C14 C 0.21332 0.40261 0.15936 0.0
C15 C 0.25858 0.40533 0.17 0.0
N16 N 0.2262 0.40604 0.10724 0.0
N17 N 0.25434 0.40775 0.11387 0.0
N18 N 0.23294 0.4017 0.19912 0.0
H19 H 0.17625 0.41408 0.1389 0.0
H20 H 0.18397 0.41367 0.21352 0.0
H21 H 0.16281 0.37668 0.17498 0.0
C22 C 0.18244 0.40194 0.17212 0.0
C23 C 0.21025 0.41362 0.80607 0.0
H24 H 0.21633 0.40163 0.83973 0.0
H25 H 0.23014 0.43872 0.80223 0.0
H26 H 0.20824 0.4013 0.76515 0.0
O27 O 0.18838 0.36953 0.92262 0.0
O28 O 0.21266 0.3693 0.00151 0.0
C29 C 0.25767 0.4502 0.94977 0.0
O30 O 0.16167 0.37554 0.05723 0.0
O31 O 0.13883 0.37892 0.97892 0.0
Zn32 Zn 0.76879 0.1913 0.31775 0.0
O33 O 0.7767 0.23555 0.28625 0.0
C34 C 0.84015 0.2197 0.32431 0.0
Zn35 Zn 0.79068 0.21785 0.39793 0.0
C36 C 0.78909 0.26151 0.31441 0.0
O37 O 0.79764 0.26177 0.36564 0.0
C38 C 0.77071 0.14788 0.4011 0.0
O39 O 0.74324 0.20476 0.42237 0.0
O40 O 0.72224 0.18017 0.34157 0.0
N41 N 0.80865 0.23784 0.47567 0.0
C42 C 0.79686 0.22646 0.52772 0.0
C43 C 0.84427 0.26572 0.53914 0.0
N44 N 0.8381 0.26233 0.48278 0.0
N45 N 0.81872 0.24339 0.56804 0.0
C46 C 0.76497 0.18191 0.18799 0.0
C47 C 0.72651 0.13398 0.17702 0.0
N48 N 0.7529 0.1705 0.23995 0.0
N49 N 0.72901 0.14073 0.23313 0.0
N50 N 0.74896 0.15942 0.14808 0.0
H51 H 0.77831 0.23064 0.17288 0.0
H52 H 0.80235 0.21852 0.13456 0.0
H53 H 0.80843 0.22614 0.20945 0.0
C54 C 0.79013 0.21602 0.1756 0.0
C55 C 0.763 0.20066 0.53943 0.0
H56 H 0.7473 0.21107 0.53307 0.0
H57 H 0.75944 0.19178 0.58369 0.0
H58 H 0.75528 0.18024 0.50995 0.0
O59 O 0.78416 0.17395 0.42885 0.0
O60 O 0.76083 0.14756 0.35094 0.0
C61 C 0.71885 0.18909 0.39063 0.0
O62 O 0.81538 0.20226 0.29481 0.0
O63 O 0.83724 0.23061 0.37161 0.0
Zn64 Zn 0.56583 0.78561 0.69929 0.0
O65 O 0.53207 0.73833 0.72191 0.0
C66 C 0.61722 0.76833 0.70093 0.0
Zn67 Zn 0.57176 0.76674 0.61675 0.0
C68 C 0.5242 0.7148 0.68883 0.0
O69 O 0.53673 0.71931 0.63981 0.0
C70 C 0.61403 0.83755 0.62859 0.0
O71 O 0.53531 0.77388 0.58422 0.0
O72 O 0.52845 0.79181 0.66571 0.0
N73 N 0.57679 0.75062 0.53959 0.0
C74 C 0.58084 0.76356 0.4874 0.0
C75 C 0.5774 0.71798 0.47739 0.0
N76 N 0.57476 0.72234 0.53335 0.0
N77 N 0.58165 0.74374 0.44795 0.0
C78 C 0.55638 0.78824 0.82845 0.0
C79 C 0.56043 0.83402 0.83947 0.0
N80 N 0.56085 0.80163 0.77658 0.0
N81 N 0.56329 0.83004 0.78344 0.0
N82 N 0.55567 0.80791 0.86835 0.0
H83 H 0.56676 0.75043 0.80776 0.0
H84 H 0.52924 0.73769 0.84285 0.0
H85 H 0.56608 0.75778 0.88238 0.0
C86 C 0.55476 0.75688 0.84082 0.0
C87 C 0.58163 0.79439 0.47397 0.0
H88 H 0.57347 0.80325 0.50974 0.0
H89 H 0.56638 0.79117 0.43634 0.0
H90 H 0.60652 0.81287 0.46314 0.0
O91 O 0.60687 0.81412 0.59541 0.0
O92 O 0.59977 0.83262 0.67601 0.0
C93 C 0.52098 0.78491 0.6137 0.0
O94 O 0.60348 0.77976 0.7311 0.0
O95 O 0.60817 0.75993 0.65001 0.0
Zn96 Zn 0.79139 0.57187 0.95577 0.0
O97 O 0.74544 0.53663 0.92813 0.0
C98 C 0.76959 0.62042 0.95622 0.0
Zn99 Zn 0.76637 0.57255 0.03498 0.0
C100 C 0.71954 0.52667 0.95577 0.0
O101 O 0.7204 0.53766 0.00526 0.0
C102 C 0.83801 0.61843 0.03313 0.0
O103 O 0.77395 0.53566 0.06329 0.0
O104 O 0.79979 0.53538 0.98675 0.0
N105 N 0.74782 0.57357 0.11275 0.0
C106 C 0.76002 0.57581 0.16527 0.0
C107 C 0.71487 0.57336 0.17535 0.0
N108 N 0.71974 0.57202 0.1191 0.0
N109 N 0.74002 0.57604 0.20487 0.0
C110 C 0.79802 0.56965 0.82533 0.0
C111 C 0.84207 0.56982 0.81512 0.0
N112 N 0.80975 0.57072 0.87787 0.0
N113 N 0.83715 0.57084 0.87144 0.0
N114 N 0.81766 0.56883 0.78565 0.0
H115 H 0.75619 0.57335 0.84954 0.0
H116 H 0.75169 0.55056 0.78646 0.0
H117 H 0.7757 0.59314 0.78454 0.0
C118 C 0.76869 0.57178 0.81159 0.0
C119 C 0.79038 0.57567 0.17908 0.0
H120 H 0.78541 0.55729 0.21203 0.0
H121 H 0.80801 0.59916 0.19741 0.0
H122 H 0.8012 0.57089 0.14185 0.0
O123 O 0.81264 0.60799 0.06262 0.0
O124 O 0.83665 0.60693 0.98401 0.0
C125 C 0.78891 0.52451 0.03599 0.0
O126 O 0.78368 0.60883 0.92749 0.0
O127 O 0.75877 0.60924 0.00526 0.0
Zn128 Zn 0.183 0.76872 0.3643 0.0
O129 O 0.2278 0.77497 0.38989 0.0
C130 C 0.21096 0.84035 0.3665 0.0
Zn131 Zn 0.20808 0.79416 0.28497 0.0
C132 C 0.25336 0.78935 0.36074 0.0
O133 O 0.25266 0.8006 0.31228 0.0
C134 C 0.13813 0.77432 0.28912 0.0
O135 O 0.19608 0.74858 0.25491 0.0
O136 O 0.17038 0.72289 0.33181 0.0
N137 N 0.22682 0.81306 0.20696 0.0
C138 C 0.21333 0.80451 0.15495 0.0
C139 C 0.26137 0.84252 0.14327 0.0
N140 N 0.25668 0.8367 0.19963 0.0
N141 N 0.23434 0.82283 0.11462 0.0
C142 C 0.17637 0.75808 0.49454 0.0
C143 C 0.12878 0.7188 0.50406 0.0
N144 N 0.16382 0.7494 0.4419 0.0
N145 N 0.13425 0.72496 0.44791 0.0
N146 N 0.15504 0.73911 0.53391 0.0
H147 H 0.22424 0.77821 0.52636 0.0
H148 H 0.20542 0.80112 0.54204 0.0
H149 H 0.22035 0.80191 0.47158 0.0
C150 C 0.20841 0.78656 0.50863 0.0
C151 C 0.18042 0.77687 0.14251 0.0
H152 H 0.17038 0.75984 0.17813 0.0
H153 H 0.18109 0.76375 0.10424 0.0
H154 H 0.16407 0.78621 0.13321 0.0
O155 O 0.16357 0.78813 0.25967 0.0
O156 O 0.13865 0.76266 0.33724 0.0
C157 C 0.18014 0.72246 0.28181 0.0
O158 O 0.19547 0.81465 0.39482 0.0
O159 O 0.22012 0.83936 0.31632 0.0
Zn160 Zn 0.39891 0.21624 0.62611 0.0
O161 O 0.43671 0.21015 0.59592 0.0
C162 C 0.35718 0.14452 0.62969 0.0
Zn163 Zn 0.40248 0.19364 0.70616 0.0
C164 C 0.45046 0.19832 0.62505 0.0
O165 O 0.4415 0.18951 0.6759 0.0
C166 C 0.35014 0.21007 0.70616 0.0
O167 O 0.43476 0.241 0.73365 0.0
O168 O 0.43283 0.26291 0.65301 0.0
N169 N 0.40528 0.17608 0.7838 0.0
C170 C 0.40672 0.18789 0.83633 0.0
C171 C 0.40662 0.14391 0.8463 0.0
N172 N 0.40518 0.14871 0.79006 0.0
N173 N 0.40794 0.16841 0.87591 0.0
C174 C 0.39219 0.22036 0.4962 0.0
C175 C 0.39463 0.26542 0.48533 0.0
N176 N 0.39557 0.23329 0.54834 0.0
N177 N 0.39707 0.2613 0.54152 0.0
N178 N 0.39117 0.23982 0.4563 0.0
H179 H 0.40092 0.18152 0.51877 0.0
H180 H 0.40704 0.19305 0.44516 0.0
H181 H 0.36725 0.1708 0.473 0.0
C182 C 0.39205 0.18978 0.48316 0.0
C183 C 0.40497 0.21739 0.84999 0.0
H184 H 0.39699 0.22605 0.81365 0.0
H185 H 0.42901 0.2366 0.86358 0.0
H186 H 0.38834 0.21251 0.88612 0.0
O187 O 0.36304 0.19703 0.73422 0.0
O188 O 0.36121 0.222 0.65759 0.0
C189 C 0.44371 0.2658 0.70318 0.0
O190 O 0.36472 0.16956 0.60092 0.0
O191 O 0.37045 0.14701 0.67752 0.0
C192 C 0.31177 0.19909 0.78546 0.0
C193 C 0.32302 0.21179 0.73104 0.0
C194 C 0.28808 0.20306 0.81158 0.0
C195 C 0.22809 0.22833 0.78994 0.0
H196 H 0.26006 0.27134 0.9345 0.0
C197 C 0.20144 0.32347 0.87361 0.0
C198 C 0.2031 0.32963 0.93216 0.0
C199 C 0.20658 0.29934 0.85297 0.0
C200 C 0.25003 0.25856 0.89512 0.0
H201 H 0.31684 0.23674 0.65979 0.0
H202 H 0.27569 0.24417 0.70602 0.0
H203 H 0.28607 0.24538 0.88933 0.0
H204 H 0.20858 0.31381 0.01551 0.0
H205 H 0.2165 0.27085 0.97965 0.0
H206 H 0.19253 0.2424 0.79511 0.0
C207 C 0.28504 0.23088 0.72812 0.0
C208 C 0.2651 0.24374 0.86909 0.0
C209 C 0.30883 0.22695 0.70194 0.0
C210 C 0.20784 0.30992 0.97004 0.0
C211 C 0.21238 0.28536 0.94947 0.0
C212 C 0.2127 0.24287 0.81638 0.0
C213 C 0.27516 0.21977 0.78379 0.0
C214 C 0.25502 0.22954 0.81536 0.0
C215 C 0.21296 0.28055 0.8906 0.0
C216 C 0.22435 0.25926 0.86821 0.0
H217 H 0.32195 0.18692 0.80877 0.0
H218 H 0.28065 0.19406 0.85436 0.0
H219 H 0.21968 0.21715 0.74876 0.0
H220 H 0.19771 0.33828 0.84349 0.0
H221 H 0.2073 0.29669 0.80738 0.0
C222 C 0.07766 0.34675 0.03433 0.0
C223 C 0.10497 0.34637 0.05399 0.0
C224 C 0.04858 0.32956 0.06309 0.0
C225 C 0.00275 0.2637 0.1614 0.0
H226 H 0.96492 0.31437 0.20992 0.0
C227 C 0.87493 0.21336 0.25328 0.0
C228 C 0.87203 0.22929 0.30097 0.0
C229 C 0.90443 0.22498 0.22627 0.0
C230 C 0.97538 0.30004 0.19693 0.0
H231 H 0.12304 0.32635 0.11672 0.0
H232 H 0.07199 0.29592 0.16642 0.0
H233 H 0.01331 0.33899 0.15155 0.0
H234 H 0.89788 0.26892 0.35942 0.0
H235 H 0.94947 0.28953 0.31138 0.0
H236 H 0.9644 0.22459 0.20633 0.0
C237 C 0.0732 0.3097 0.1292 0.0
C238 C 0.00275 0.31398 0.16308 0.0
C239 C 0.10237 0.32725 0.101 0.0
C240 C 0.89943 0.25618 0.32274 0.0
C241 C 0.92885 0.26804 0.29521 0.0
C242 C 0.975 0.24958 0.19458 0.0
C243 C 0.04632 0.31135 0.11126 0.0
C244 C 0.01665 0.29594 0.14514 0.0
C245 C 0.93137 0.25291 0.24609 0.0
C246 C 0.96126 0.26773 0.21279 0.0
H247 H 0.07905 0.36132 -0.00179 0.0
H248 H 0.028 0.33093 0.04838 0.0
H249 H 0.01316 0.2494 0.14797 0.0
H250 H 0.85419 0.1925 0.23571 0.0
H251 H 0.90583 0.21304 0.18826 0.0
C252 C 0.75336 0.08967 0.39672 0.0
C253 C 0.76516 0.11805 0.42839 0.0
C254 C 0.74535 0.06088 0.42376 0.0
C255 C 0.71454 0.02192 0.55807 0.0
H256 H 0.73061 0.95641 0.49796 0.0
C257 C 0.65088 0.89522 0.65182 0.0
C258 C 0.63847 0.87024 0.61183 0.0
C259 C 0.67302 0.92642 0.63526 0.0
C260 C 0.72581 0.97442 0.51513 0.0
H261 H 0.77925 0.1389 0.51272 0.0
H262 H 0.76472 0.08841 0.55988 0.0
H263 H 0.75813 0.0101 0.45672 0.0
H264 H 0.64017 0.85809 0.52366 0.0
H265 H 0.67757 0.91252 0.4942 0.0
H266 H 0.68086 0.98617 0.61406 0.0
C267 C 0.76174 0.08854 0.51425 0.0
C268 C 0.74168 0.00512 0.4917 0.0
C269 C 0.77005 0.11737 0.48718 0.0
C270 C 0.64923 0.87685 0.55539 0.0
C271 C 0.67099 0.90807 0.53866 0.0
C272 C 0.69839 -0.00882 0.58101 0.0
C273 C 0.74875 0.05998 0.48291 0.0
C274 C 0.73565 0.0289 0.51225 0.0
C275 C 0.68284 0.93331 0.57823 0.0
C276 C 0.70326 0.96686 0.55894 0.0
H277 H 0.74951 0.08952 0.35132 0.0
H278 H 0.73508 0.03909 0.39877 0.0
H279 H 0.70918 0.03976 0.57419 0.0
H280 H 0.64336 0.89075 0.69586 0.0
H281 H 0.68211 0.9452 0.66703 0.0
C282 C 0.66371 0.75964 0.6896 0.0
C283 C 0.64298 0.76416 0.72528 0.0
C284 C 0.68665 0.75339 0.7127 0.0
C285 C 0.7248 0.75026 0.84877 0.0
H286 H 0.72544 0.67886 0.7743 0.0
C287 C 0.74848 0.65832 0.96143 0.0
C288 C 0.76509 0.64594 0.9315 0.0
C289 C 0.74189 0.68044 0.93563 0.0
C290 C 0.72613 0.69925 0.79505 0.0
H291 H 0.63075 0.7671 0.81294 0.0
H292 H 0.66982 0.75482 0.85329 0.0
H293 H 0.69868 0.70413 0.72897 0.0
H294 H 0.78957 0.64845 0.85247 0.0
H295 H 0.7779 0.68693 0.80759 0.0
H296 H 0.75079 0.7438 0.91654 0.0
C297 C 0.66904 0.7569 0.80756 0.0
C298 C 0.71084 0.71385 0.76898 0.0
C299 C 0.64642 0.76363 0.78445 0.0
C300 C 0.77638 0.65727 0.87645 0.0
C301 C 0.76975 0.6793 0.8507 0.0
C302 C 0.7399 0.73541 0.87515 0.0
C303 C 0.68892 0.751 0.77189 0.0
C304 C 0.70932 0.73902 0.7961 0.0
C305 C 0.75176 0.69045 0.8795 0.0
C306 C 0.74006 0.70933 0.84899 0.0
H307 H 0.66191 0.76049 0.64379 0.0
H308 H 0.70207 0.74962 0.68411 0.0
H309 H 0.72449 0.76996 0.8703 0.0
H310 H 0.73967 0.65017 0.00405 0.0
H311 H 0.72768 0.68844 0.95856 0.0
C312 C 0.0788 0.75193 0.29382 0.0
C313 C 0.1081 0.77058 0.26563 0.0
C314 C 0.05008 0.74523 0.26765 0.0
C315 C -0.00662 0.74411 0.20484 0.0
H316 H 0.98604 0.70099 0.06173 0.0
C317 C 0.89456 0.66237 0.01979 0.0
C318 C 0.86874 0.6437 0.05612 0.0
C319 C 0.92392 0.6857 0.0421 0.0
C320 C -0.01229 0.71369 0.1007 0.0
H321 H 0.13056 0.79926 0.19042 0.0
H322 H 0.08034 0.78663 0.14421 0.0
H323 H 0.03766 0.72975 0.10874 0.0
H324 H 0.85304 0.63527 0.14383 0.0
H325 H 0.90442 0.67441 0.18304 0.0
H326 H 0.94337 0.72795 0.1971 0.0
C327 C 0.07966 0.77715 0.18626 0.0
C328 C 0.01734 0.73005 0.12775 0.0
C329 C 0.10832 0.78413 0.21261 0.0
C330 C 0.87253 0.64925 0.11487 0.0
C331 C 0.90199 0.67207 0.13727 0.0
C332 C 0.96377 0.72822 0.17724 0.0
C333 C 0.05032 0.75692 0.21288 0.0
C334 C 0.02018 0.74454 0.18078 0.0
C335 C 0.92819 0.69033 0.10125 0.0
C336 C 0.96037 0.71185 0.12579 0.0
H337 H 0.07791 0.74141 0.33493 0.0
H338 H 0.02764 0.72937 0.28876 0.0
H339 H -0.00481 0.7554 0.24558 0.0
H340 H 0.89209 0.65894 0.97416 0.0
H341 H 0.94337 0.69978 0.01299 0.0
C342 C 0.31974 0.11087 0.55306 0.0
C343 C 0.33402 0.11293 0.6062 0.0
C344 C 0.30035 0.08121 0.52769 0.0
C345 C 0.25201 -0.00463 0.55074 0.0
H346 H 0.28492 0.9881 0.40444 0.0
C347 C 0.21931 0.87398 0.45199 0.0
C348 C 0.21885 0.8711 0.3926 0.0
C349 C 0.22853 0.90349 0.47715 0.0
C350 C 0.2748 0.98976 0.44451 0.0
H351 H 0.33736 0.0855 0.67629 0.0
H352 H 0.3029 0.03336 0.63184 0.0
H353 H 0.30864 0.03978 0.4516 0.0
H354 H 0.22591 0.89614 0.31273 0.0
H355 H 0.24076 0.94752 0.35655 0.0
H356 H 0.21793 0.94542 0.54363 0.0
C357 C 0.30711 0.05487 0.60992 0.0
C358 C 0.28857 0.01936 0.47162 0.0
C359 C 0.32691 0.08464 0.63509 0.0
C360 C 0.22654 0.89789 0.35868 0.0
C361 C 0.23515 0.92731 0.38384 0.0
C362 C 0.23779 0.96578 0.52314 0.0
C363 C 0.29443 0.05308 0.55543 0.0
C364 C 0.27764 0.02225 0.52529 0.0
C365 C 0.2369 0.93061 0.44338 0.0
C366 C 0.24947 0.96251 0.47018 0.0
H367 H 0.32413 0.13217 0.5303 0.0
H368 H 0.2905 0.08026 0.48584 0.0
H369 H 0.24313 -0.00274 0.59203 0.0
H370 H 0.21355 0.85367 0.47915 0.0
H371 H 0.23013 0.90519 0.52305 0.0
C372 C 0.19292 0.4401 0.69486 0.0
C373 C 0.16433 0.41594 0.7187 0.0
C374 C 0.19984 0.43863 0.63783 0.0
C375 C 0.16492 0.40011 0.50048 0.0
H376 H 0.25093 0.41603 0.47091 0.0
C377 C 0.19965 0.37452 0.28219 0.0
C378 C 0.22831 0.39916 0.25939 0.0
C379 C 0.19252 0.37492 0.33948 0.0
C380 C 0.22693 0.41175 0.47844 0.0
H381 H 0.11962 0.37251 0.70202 0.0
H382 H 0.13151 0.36972 0.60149 0.0
H383 H 0.23581 0.42181 0.56721 0.0
H384 H 0.27295 0.44226 0.27811 0.0
H385 H 0.26064 0.44322 0.37893 0.0
H386 H 0.15607 0.39016 0.41168 0.0
C387 C 0.14862 0.38983 0.62679 0.0
C388 C 0.21828 0.41516 0.53349 0.0
C389 C 0.14173 0.39138 0.68402 0.0
C390 C 0.25077 0.42305 0.29527 0.0
C391 C 0.24365 0.42354 0.3527 0.0
C392 C 0.17358 0.39672 0.44542 0.0
C393 C 0.17819 0.41295 0.60363 0.0
C394 C 0.18723 0.4095 0.54502 0.0
C395 C 0.214 0.39998 0.37493 0.0
C396 C 0.20468 0.40255 0.43382 0.0
H397 H 0.21037 0.45947 0.72107 0.0
H398 H 0.22245 0.4572 0.62081 0.0
H399 H 0.14094 0.3959 0.508 0.0
H400 H 0.18235 0.35559 0.25508 0.0
H401 H 0.16985 0.35603 0.35571 0.0
C402 C 0.78559 0.16844 0.06898 0.0
C403 C 0.75524 0.16138 0.08835 0.0
C404 C 0.79359 0.17517 0.01175 0.0
C405 C 0.7613 0.16652 0.86808 0.0
H406 H 0.83972 0.2467 0.83871 0.0
C407 C 0.81136 0.20506 0.64298 0.0
C408 C 0.81759 0.23567 0.62705 0.0
C409 C 0.80599 0.1957 0.69976 0.0
C410 C 0.8178 0.22429 0.84639 0.0
H411 H 0.70851 0.15306 0.06375 0.0
H412 H 0.72216 0.16426 0.96248 0.0
H413 H 0.82424 0.22842 0.93668 0.0
H414 H 0.8258 0.28146 0.65716 0.0
H415 H 0.8169 0.26533 0.75778 0.0
H416 H 0.75478 0.16244 0.77784 0.0
C417 C 0.73994 0.16508 0.99171 0.0
C418 C 0.80907 0.21371 0.90223 0.0
C419 C 0.73208 0.15866 0.04926 0.0
C420 C 0.82077 0.25769 0.66897 0.0
C421 C 0.81568 0.24844 0.72612 0.0
C422 C 0.77024 0.17688 0.81222 0.0
C423 C 0.77108 0.17433 0.97286 0.0
C424 C 0.78068 0.18481 0.91355 0.0
C425 C 0.80735 0.21704 0.74169 0.0
C426 C 0.79849 0.20592 0.80092 0.0
H427 H 0.80348 0.17001 0.09875 0.0
H428 H 0.81755 0.18165 -0.00194 0.0
H429 H 0.73935 0.14413 0.87575 0.0
H430 H 0.80948 0.18804 0.61098 0.0
H431 H 0.80023 0.17159 0.71081 0.0
C432 C 0.557 0.72419 0.35441 0.0
C433 C 0.5822 0.74724 0.38749 0.0
C434 C 0.55445 0.73021 0.29714 0.0
C435 C 0.5777 0.79825 0.20139 0.0
H436 H 0.55008 0.73424 0.08232 0.0
C437 C 0.57921 0.82698 0.96275 0.0
C438 C 0.55455 0.80394 0.92876 0.0
C439 C 0.58121 0.82071 0.02008 0.0
C440 C 0.55736 0.75223 0.11532 0.0
H441 H 0.62596 0.7931 0.38672 0.0
H442 H 0.62181 0.80376 0.28633 0.0
H443 H 0.55841 0.72077 0.17835 0.0
H444 H 0.51116 0.75776 0.92791 0.0
H445 H 0.51425 0.74672 0.02853 0.0
H446 H 0.57663 0.82971 0.13842 0.0
C447 C 0.60352 0.78146 0.30476 0.0
C448 C 0.56225 0.74454 0.17018 0.0
C449 C 0.60601 0.77539 0.3619 0.0
C450 C 0.53067 0.77552 0.9535 0.0
C451 C 0.53257 0.76921 0.01076 0.0
C452 C 0.57277 0.80593 0.14655 0.0
C453 C 0.5772 0.75936 0.27226 0.0
C454 C 0.57256 0.76751 0.21371 0.0
C455 C 0.5584 0.79134 0.04421 0.0
C456 C 0.56257 0.78301 0.10294 0.0
H457 H 0.53838 0.70239 0.37373 0.0
H458 H 0.53385 0.71278 0.27318 0.0
H459 H 0.58505 0.81626 0.23438 0.0
H460 H 0.59787 0.849 0.94412 0.0
H461 H 0.60147 0.83816 0.0447 0.0
C462 C 0.83381 0.5937 0.69138 0.0
C463 C 0.8134 0.56747 0.7253 0.0
C464 C 0.82637 0.59456 0.63414 0.0
C465 C 0.75631 0.56113 0.53891 0.0
H466 H 0.81981 0.59485 0.41883 0.0
C467 C 0.72394 0.55219 0.29991 0.0
C468 C 0.74445 0.57799 0.26523 0.0
C469 C 0.7315 0.55181 0.35723 0.0
C470 C 0.80185 0.58577 0.45205 0.0
H471 H 0.7707 0.52083 0.72661 0.0
H472 H 0.75771 0.52185 0.62632 0.0
H473 H 0.83619 0.59128 0.51538 0.0
H474 H 0.78738 0.62446 0.26278 0.0
H475 H 0.80053 0.62427 0.36318 0.0
H476 H 0.72197 0.55564 0.47563 0.0
C477 C 0.77901 0.54212 0.64382 0.0
C478 C 0.81124 0.58365 0.5073 0.0
C479 C 0.78649 0.54136 0.70085 0.0
C480 C 0.77156 0.6042 0.28904 0.0
C481 C 0.77911 0.60392 0.34619 0.0
C482 C 0.74692 0.56328 0.48367 0.0
C483 C 0.79839 0.56911 0.6102 0.0
C484 C 0.78856 0.57121 0.5513 0.0
C485 C 0.75965 0.57733 0.38057 0.0
C486 C 0.76957 0.57562 0.43961 0.0
H487 H 0.85454 0.61413 0.70997 0.0
H488 H 0.8417 0.61575 0.60942 0.0
H489 H 0.73835 0.552 0.57213 0.0
H490 H 0.70306 0.5317 0.28187 0.0
H491 H 0.71609 0.5309 0.3825 0.0
C492 C 0.18465 0.74073 0.61983 0.0
C493 C 0.1588 0.74162 0.59443 0.0
C494 C 0.19167 0.74835 0.67718 0.0
C495 C 0.18134 0.79527 0.7894 0.0
H496 H 0.21334 0.7529 0.88751 0.0
C497 C 0.20328 0.82037 0.03011 0.0
C498 C 0.22971 0.82003 0.05425 0.0
C499 C 0.19552 0.81243 0.97302 0.0
C500 C 0.20487 0.76525 0.86036 0.0
H501 H 0.11885 0.74924 0.60864 0.0
H502 H 0.13064 0.76214 0.70993 0.0
H503 H 0.19511 0.73245 0.79179 0.0
H504 H 0.2699 0.81308 0.03792 0.0
H505 H 0.25675 0.79953 0.9372 0.0
H506 H 0.19108 0.82804 0.85808 0.0
C507 C 0.14589 0.75615 0.6853 0.0
C508 C 0.19428 0.75344 0.80564 0.0
C509 C 0.13888 0.74843 0.62778 0.0
C510 C 0.24944 0.81347 0.01982 0.0
C511 C 0.24165 0.80538 0.96263 0.0
C512 C 0.19189 0.80705 0.84418 0.0
C513 C 0.17285 0.75694 0.71025 0.0
C514 C 0.18248 0.76837 0.76947 0.0
C515 C 0.21415 0.80402 0.93902 0.0
C516 C 0.20387 0.79223 0.88019 0.0
H517 H 0.20001 0.73512 0.59466 0.0
H518 H 0.21267 0.74887 0.6949 0.0
H519 H 0.17295 0.80768 0.76223 0.0
H520 H 0.18803 0.82575 0.05608 0.0
H521 H 0.17415 0.81151 0.95622 0.0
C522 C 0.36459 0.20687 0.37239 0.0
C523 C 0.38925 0.23529 0.39594 0.0
C524 C 0.36546 0.1998 0.31517 0.0
C525 C 0.40395 0.23447 0.17727 0.0
H526 H 0.38596 0.14797 0.14625 0.0
C527 C 0.43301 0.20061 0.96108 0.0
C528 C 0.40883 0.17234 0.93634 0.0
C529 C 0.43106 0.20735 0.01807 0.0
C530 C 0.39077 0.17211 0.15415 0.0
H531 H 0.43304 0.27949 0.37855 0.0
H532 H 0.43483 0.26731 0.27788 0.0
H533 H 0.37995 0.16286 0.24262 0.0
H534 H 0.36469 0.12807 0.95135 0.0
H535 H 0.36104 0.13964 0.05181 0.0
H536 H 0.41488 0.24375 0.08884 0.0
C537 C 0.41473 0.25046 0.30346 0.0
C538 C 0.38723 0.18063 0.20928 0.0
C539 C 0.41377 0.25752 0.36082 0.0
C540 C 0.38362 0.1499 0.97008 0.0
C541 C 0.38158 0.15662 0.02728 0.0
C542 C 0.4075 0.22595 0.12217 0.0
C543 C 0.39103 0.2211 0.28045 0.0
C544 C 0.39384 0.21193 0.22145 0.0
C545 C 0.40484 0.18586 0.05137 0.0
C546 C 0.40109 0.19472 0.11006 0.0
H547 H 0.34517 0.18975 0.39883 0.0
H548 H 0.34644 0.17736 0.29837 0.0
H549 H 0.40882 0.25863 0.18516 0.0
H550 H 0.45287 0.21793 0.93563 0.0
H551 H 0.44975 0.2297 0.03577 0.0
C552 C 0.20296 0.50145 0.10032 0.0
C553 C 0.18677 0.48555 0.05047 0.0
C554 C 0.19736 0.52445 0.12505 0.0
C555 C 0.1649 0.57785 0.09359 0.0
H556 H 0.16931 0.58731 0.25761 0.0
C557 C 0.18759 0.69341 0.20124 0.0
C558 C 0.17418 0.69234 0.25478 0.0
C559 C 0.18377 0.66561 0.17607 0.0
C560 C 0.16739 0.58467 0.21183 0.0
H561 H 0.15186 0.48106 0.98752 0.0
H562 H 0.14143 0.52072 0.03148 0.0
H563 H 0.17234 0.54308 0.21451 0.0
H564 H 0.14529 0.66106 0.32313 0.0
H565 H 0.13801 0.61204 0.27838 0.0
H566 H 0.15923 0.61899 0.09095 0.0
C567 C 0.15901 0.51595 0.05084 0.0
C568 C 0.16969 0.55961 0.18701 0.0
C569 C 0.16494 0.4932 0.02565 0.0
C570 C 0.15607 0.66264 0.28199 0.0
C571 C 0.15203 0.63463 0.25646 0.0
C572 C 0.16221 0.60265 0.11843 0.0
C573 C 0.17508 0.53178 0.10097 0.0
C574 C 0.16935 0.55642 0.12752 0.0
C575 C 0.16615 0.63589 0.20343 0.0
C576 C 0.16435 0.60692 0.17774 0.0
H577 H 0.22004 0.49615 0.12029 0.0
H578 H 0.21077 0.53671 0.16281 0.0
H579 H 0.16467 0.57625 0.04766 0.0
H580 H 0.20174 0.71589 0.17903 0.0
H581 H 0.19556 0.66767 0.13583 0.0
C582 C 0.66478 0.18227 0.37162 0.0
C583 C 0.68714 0.18254 0.41023 0.0
C584 C 0.63616 0.17958 0.39132 0.0
C585 C 0.58179 0.15581 0.51471 0.0
H586 H 0.56446 0.2218 0.46197 0.0
C587 C 0.49485 0.18567 0.63183 0.0
C588 C 0.4759 0.19406 0.59882 0.0
C589 C 0.51876 0.18158 0.60637 0.0
C590 C 0.56856 0.20284 0.47651 0.0
H591 H 0.69612 0.17763 0.4988 0.0
H592 H 0.64639 0.17311 0.5333 0.0
H593 H 0.6082 0.21736 0.4199 0.0
H594 H 0.46663 0.20408 0.5131 0.0
H595 H 0.50771 0.19628 0.46873 0.0
H596 H 0.54223 0.14132 0.57148 0.0
C597 C 0.651 0.17527 0.48799 0.0
C598 C 0.59363 0.20032 0.45233 0.0
C599 C 0.67968 0.17832 0.46836 0.0
C600 C 0.48107 0.19795 0.53985 0.0
C601 C 0.50473 0.19359 0.51439 0.0
C602 C 0.55652 0.15815 0.53861 0.0
C603 C 0.62929 0.1766 0.44982 0.0
C604 C 0.60075 0.17706 0.4717 0.0
C605 C 0.524 0.18554 0.54733 0.0
C606 C 0.54987 0.18197 0.52028 0.0
H607 H 0.66997 0.1854 0.32651 0.0
H608 H 0.61965 0.18036 0.36098 0.0
H609 H 0.58663 0.13747 0.53005 0.0
H610 H 0.49145 0.18256 0.67738 0.0
H611 H 0.5335 0.17586 0.63313 0.0
C612 C 0.29695 0.46667 0.87087 0.0
C613 C 0.28909 0.47241 0.92524 0.0
C614 C 0.3255 0.48912 0.84494 0.0
C615 C 0.40243 0.56598 0.872 0.0
H616 H 0.39865 0.57458 0.70885 0.0
C617 C 0.50811 0.66883 0.7536 0.0
C618 C 0.50066 0.68266 0.70813 0.0
C619 C 0.48463 0.63984 0.77677 0.0
C620 C 0.4001 0.57288 0.75451 0.0
H621 H 0.30461 0.50544 -0.00401 0.0
H622 H 0.35351 0.54576 0.94978 0.0
H623 H 0.35353 0.53157 0.75751 0.0
H624 H 0.4635 0.67789 0.65078 0.0
H625 H 0.42178 0.6283 0.69297 0.0
H626 H 0.44773 0.60899 0.86971 0.0
C627 C 0.33859 0.52349 0.92753 0.0
C628 C 0.37431 0.54761 0.78253 0.0
C629 C 0.31045 0.50052 0.95408 0.0
C630 C 0.46968 0.66715 0.68538 0.0
C631 C 0.4459 0.63861 0.70953 0.0
C632 C 0.42784 0.59176 0.8442 0.0
C633 C 0.34634 0.51833 0.87215 0.0
C634 C 0.37491 0.54395 0.84183 0.0
C635 C 0.45291 0.62473 0.75614 0.0
C636 C 0.42691 0.59583 0.78508 0.0
H637 H 0.28093 0.4448 0.84833 0.0
H638 H 0.33093 0.48364 0.80322 0.0
H639 H 0.4043 0.56372 0.91741 0.0
H640 H 0.53202 0.68069 0.77167 0.0
H641 H 0.49133 0.62966 0.81148 0.0
C642 C 0.77713 0.28874 0.23625 0.0
C643 C 0.79368 0.29095 0.28673 0.0
C644 C 0.78181 0.31627 0.20856 0.0
C645 C 0.80963 0.4016 0.23279 0.0
H646 H 0.80525 0.40247 0.06816 0.0
C647 C 0.77926 0.48659 0.11532 0.0
C648 C 0.79386 0.49965 0.06282 0.0
C649 C 0.78402 0.46358 0.14207 0.0
C650 C 0.80706 0.4029 0.11407 0.0
H651 H 0.82823 0.32373 0.34784 0.0
H652 H 0.83685 0.37212 0.29887 0.0
H653 H 0.806 0.35807 0.11583 0.0
H654 H 0.82518 0.49897 -0.00263 0.0
H655 H 0.83387 0.45877 0.04471 0.0
H656 H 0.8111 0.4466 0.23102 0.0
C657 C 0.8199 0.349 0.28112 0.0
C658 C 0.80704 0.37722 0.14148 0.0
C659 C 0.815 0.32132 0.30916 0.0
C660 C 0.81346 0.4892 0.03765 0.0
C661 C 0.81838 0.46616 0.06471 0.0
C662 C 0.80992 0.42739 0.20537 0.0
C663 C 0.80337 0.34675 0.2304 0.0
C664 C 0.80741 0.37584 0.20121 0.0
C665 C 0.80372 0.45315 0.11731 0.0
C666 C 0.80771 0.4279 0.14578 0.0
H667 H 0.76018 0.26566 0.21832 0.0
H668 H 0.76804 0.31358 0.17048 0.0
H669 H 0.80983 0.40129 0.27881 0.0
H670 H 0.76391 0.494 0.13587 0.0
H671 H 0.77174 0.45355 0.18182 0.0
C672 C 0.3106 0.80301 0.34931 0.0
C673 C 0.28349 0.79307 0.38396 0.0
C674 C 0.33875 0.80579 0.3719 0.0
C675 C 0.38263 0.81765 0.50459 0.0
H676 H 0.41732 0.76893 0.43386 0.0
C677 C 0.47308 0.79206 0.6196 0.0
C678 C 0.49622 0.78989 0.5868 0.0
C679 C 0.44896 0.79546 0.59322 0.0
C680 C 0.40844 0.78325 0.45363 0.0
H681 H 0.26477 0.77858 0.46934 0.0
H682 H 0.31395 0.78419 0.50876 0.0
H683 H 0.3727 0.77081 0.38912 0.0
H684 H 0.51319 0.79091 0.50098 0.0
H685 H 0.47207 0.7981 0.45523 0.0
H686 H 0.41839 0.83045 0.56884 0.0
C687 C 0.31342 0.78977 0.46429 0.0
C688 C 0.38282 0.7842 0.42797 0.0
C689 C 0.28522 0.78644 0.44159 0.0
C690 C 0.49539 0.79209 0.52736 0.0
C691 C 0.47167 0.79603 0.50109 0.0
C692 C 0.40857 0.81713 0.52986 0.0
C693 C 0.34033 0.79927 0.42963 0.0
C694 C 0.36942 0.80099 0.45371 0.0
C695 C 0.44786 0.79729 0.53357 0.0
C696 C 0.42149 0.7995 0.50515 0.0
H697 H 0.30995 0.80821 0.3047 0.0
H698 H 0.3593 0.81314 0.34442 0.0
H699 H 0.37274 0.83095 0.52495 0.0
H700 H 0.47313 0.79031 0.66551 0.0
H701 H 0.43076 0.79585 0.61959 0.0
C702 C 0.66088 0.48568 0.96125 0.0
C703 C 0.68895 0.5031 0.92908 0.0
C704 C 0.63247 0.4627 0.93505 0.0
C705 C 0.60454 0.41326 0.8039 0.0
H706 H 0.52062 0.39571 0.85385 0.0
C707 C 0.4896 0.32138 0.68932 0.0
C708 C 0.46761 0.29736 0.72571 0.0
C709 C 0.51475 0.34967 0.71185 0.0
C710 C 0.54397 0.40052 0.83945 0.0
H711 H 0.70894 0.51098 0.84411 0.0
H712 H 0.65958 0.47237 0.7984 0.0
H713 H 0.56868 0.43906 0.89853 0.0
H714 H 0.45302 0.28502 0.81341 0.0
H715 H 0.49671 0.33444 0.85273 0.0
H716 H 0.57983 0.37488 0.74471 0.0
C717 C 0.65949 0.47537 0.84401 0.0
C718 C 0.57146 0.42512 0.86526 0.0
C719 C 0.68785 0.49778 0.87023 0.0
C720 C 0.46999 0.3029 0.78457 0.0
C721 C 0.49477 0.33132 0.80701 0.0
C722 C 0.57715 0.38906 0.77767 0.0
C723 C 0.63155 0.45709 0.8761 0.0
C724 C 0.6021 0.43162 0.84806 0.0
C725 C 0.51787 0.35457 0.77097 0.0
C726 C 0.54663 0.38227 0.7955 0.0
H727 H 0.66105 0.48927 0.00673 0.0
H728 H 0.6115 0.44882 0.96122 0.0
H729 H 0.62763 0.41697 0.79037 0.0
H730 H 0.48824 0.31768 0.64374 0.0
H731 H 0.53221 0.3674 0.68321 0.0
loop_
_geom_bond_atom_site_label_1
_geom_bond_atom_site_label_2
_geom_bond_distance
_geom_bond_site_symmetry_2
_ccdc_geom_bond_type
Zn0 O1 2.055 . S
Zn0 O8 2.046 . S
Zn0 N16 2.036 . S
Zn0 O28 2.053 . S
Zn0 O30 2.066 . S
O1 Zn0 2.055 . S
O1 C4 1.259 . S
C2 O30 1.256 . S
C2 O31 1.244 1_554 S
Zn3 O5 2.046 . S
Zn3 O7 2.055 . S
Zn3 N9 2.036 . S
Zn3 O27 2.066 . S
Zn3 O31 2.053 . S
C4 O1 1.259 . S
C4 O5 1.254 1_554 S
O5 Zn3 2.046 . S
O5 C4 1.254 1_556 S
C6 O27 1.256 . S
C6 O28 1.244 1_556 S
O7 Zn3 2.055 . S
O7 C29 1.259 . S
O8 Zn0 2.046 . S
O8 C29 1.254 1_554 S
N9 Zn3 2.036 . S
N9 C10 1.298 . S
N9 N12 1.398 . S
C10 N9 1.298 . S
C10 N13 1.367 . S
C10 C23 1.481 . S
C11 N12 1.299 . S
C11 N13 1.379 . S
N12 N9 1.398 . S
N12 C11 1.299 . S
N13 C10 1.367 . S
N13 C11 1.379 . S
C14 N16 1.298 . S
C14 N18 1.367 . S
C14 C22 1.481 . S
C15 N17 1.299 . S
C15 N18 1.379 . S
N16 Zn0 2.036 . S
N16 C14 1.298 . S
N16 N17 1.398 . S
N17 C15 1.299 . S
N17 N16 1.398 . S
N18 C14 1.367 . S
N18 C15 1.379 . S
H19 C22 0.980 . S
H20 C22 0.981 . S
H21 C22 0.981 . S
C22 C14 1.481 . S
C22 H19 0.980 . S
C22 H20 0.981 . S
C22 H21 0.981 . S
C23 C10 1.481 . S
C23 H24 0.980 . S
C23 H25 0.981 . S
C23 H26 0.981 . S
H24 C23 0.980 . S
H25 C23 0.981 . S
H26 C23 0.981 . S
O27 Zn3 2.066 . S
O27 C6 1.256 . S
O28 Zn0 2.053 . S
O28 C6 1.244 1_554 S
C29 O7 1.259 . S
C29 O8 1.254 1_556 S
O30 Zn0 2.066 . S
O30 C2 1.256 . S
O31 C2 1.244 1_556 S
O31 Zn3 2.053 . S
Zn32 O33 2.055 . S
Zn32 O40 2.046 . S
Zn32 N48 2.036 . S
Zn32 O60 2.053 . S
Zn32 O62 2.066 . S
O33 Zn32 2.055 . S
O33 C36 1.259 . S
C34 O62 1.256 . S
C34 O63 1.244 . S
Zn35 O37 2.046 . S
Zn35 O39 2.055 . S
Zn35 N41 2.036 . S
Zn35 O59 2.066 . S
Zn35 O63 2.053 . S
C36 O33 1.259 . S
C36 O37 1.254 . S
O37 Zn35 2.046 . S
O37 C36 1.254 . S
C38 O59 1.256 . S
C38 O60 1.244 . S
O39 Zn35 2.055 . S
O39 C61 1.259 . S
O40 Zn32 2.046 . S
O40 C61 1.254 . S
N41 Zn35 2.036 . S
N41 C42 1.298 . S
N41 N44 1.398 . S
C42 N41 1.298 . S
C42 N45 1.367 . S
C42 C55 1.481 . S
C43 N44 1.299 . S
C43 N45 1.379 . S
N44 N41 1.398 . S
N44 C43 1.299 . S
N45 C42 1.367 . S
N45 C43 1.379 . S
C46 N48 1.298 . S
C46 N50 1.367 . S
C46 C54 1.481 . S
C47 N49 1.299 . S
C47 N50 1.379 . S
N48 Zn32 2.036 . S
N48 C46 1.298 . S
N48 N49 1.398 . S
N49 C47 1.299 . S
N49 N48 1.398 . S
N50 C46 1.367 . S
N50 C47 1.379 . S
H51 C54 0.980 . S
H52 C54 0.981 . S
H53 C54 0.981 . S
C54 C46 1.481 . S
C54 H51 0.980 . S
C54 H52 0.981 . S
C54 H53 0.981 . S
C55 C42 1.481 . S
C55 H56 0.980 . S
C55 H57 0.981 . S
C55 H58 0.981 . S
H56 C55 0.980 . S
H57 C55 0.981 . S
H58 C55 0.981 . S
O59 Zn35 2.066 . S
O59 C38 1.256 . S
O60 Zn32 2.053 . S
O60 C38 1.244 . S
C61 O39 1.259 . S
C61 O40 1.254 . S
O62 Zn32 2.066 . S
O62 C34 1.256 . S
O63 C34 1.244 . S
O63 Zn35 2.053 . S
Zn64 O65 2.055 . S
Zn64 O72 2.046 . S
Zn64 N80 2.036 . S
Zn64 O92 2.053 . S
Zn64 O94 2.066 . S
O65 Zn64 2.055 . S
O65 C68 1.259 . S
C66 O94 1.256 . S
C66 O95 1.244 . S
Zn67 O69 2.046 . S
Zn67 O71 2.055 . S
Zn67 N73 2.036 . S
Zn67 O91 2.066 . S
Zn67 O95 2.053 . S
C68 O65 1.259 . S
C68 O69 1.254 . S
O69 Zn67 2.046 . S
O69 C68 1.254 . S
C70 O91 1.256 . S
C70 O92 1.244 . S
O71 Zn67 2.055 . S
O71 C93 1.259 . S
O72 Zn64 2.046 . S
O72 C93 1.254 . S
N73 Zn67 2.036 . S
N73 C74 1.298 . S
N73 N76 1.398 . S
C74 N73 1.298 . S
C74 N77 1.367 . S
C74 C87 1.481 . S
C75 N76 1.299 . S
C75 N77 1.379 . S
N76 N73 1.398 . S
N76 C75 1.299 . S
N77 C74 1.367 . S
N77 C75 1.379 . S
C78 N80 1.298 . S
C78 N82 1.367 . S
C78 C86 1.481 . S
C79 N81 1.299 . S
C79 N82 1.379 . S
N80 Zn64 2.036 . S
N80 C78 1.298 . S
N80 N81 1.398 . S
N81 C79 1.299 . S
N81 N80 1.398 . S
N82 C78 1.367 . S
N82 C79 1.379 . S
H83 C86 0.980 . S
H84 C86 0.981 . S
H85 C86 0.981 . S
C86 C78 1.481 . S
C86 H83 0.980 . S
C86 H84 0.981 . S
C86 H85 0.981 . S
C87 C74 1.481 . S
C87 H88 0.980 . S
C87 H89 0.981 . S
C87 H90 0.981 . S
H88 C87 0.980 . S
H89 C87 0.981 . S
H90 C87 0.981 . S
O91 Zn67 2.066 . S
O91 C70 1.256 . S
O92 Zn64 2.053 . S
O92 C70 1.244 . S
C93 O71 1.259 . S
C93 O72 1.254 . S
O94 Zn64 2.066 . S
O94 C66 1.256 . S
O95 C66 1.244 . S
O95 Zn67 2.053 . S
Zn96 O97 2.055 . S
Zn96 O104 2.046 . S
Zn96 N112 2.036 . S
Zn96 O124 2.053 . S
Zn96 O126 2.066 . S
O97 Zn96 2.055 . S
O97 C100 1.259 . S
C98 O126 1.256 . S
C98 O127 1.244 1_556 S
Zn99 O101 2.046 . S
Zn99 O103 2.055 . S
Zn99 N105 2.036 . S
Zn99 O123 2.066 . S
Zn99 O127 2.053 . S
C100 O97 1.259 . S
C100 O101 1.254 1_556 S
O101 Zn99 2.046 . S
O101 C100 1.254 1_554 S
C102 O123 1.256 . S
C102 O124 1.244 1_554 S
O103 Zn99 2.055 . S
O103 C125 1.259 . S
O104 Zn96 2.046 . S
O104 C125 1.254 1_556 S
N105 Zn99 2.036 . S
N105 C106 1.298 . S
N105 N108 1.398 . S
C106 N105 1.298 . S
C106 N109 1.367 . S
C106 C119 1.481 . S
C107 N108 1.299 . S
C107 N109 1.379 . S
N108 N105 1.398 . S
N108 C107 1.299 . S
N109 C106 1.367 . S
N109 C107 1.379 . S
C110 N112 1.298 . S
C110 N114 1.367 . S
C110 C118 1.481 . S
C111 N113 1.299 . S
C111 N114 1.379 . S
N112 Zn96 2.036 . S
N112 C110 1.298 . S
N112 N113 1.398 . S
N113 C111 1.299 . S
N113 N112 1.398 . S
N114 C110 1.367 . S
N114 C111 1.379 . S
H115 C118 0.980 . S
H116 C118 0.981 . S
H117 C118 0.981 . S
C118 C110 1.481 . S
C118 H115 0.980 . S
C118 H116 0.981 . S
C118 H117 0.981 . S
C119 C106 1.481 . S
C119 H120 0.980 . S
C119 H121 0.981 . S
C119 H122 0.981 . S
H120 C119 0.980 . S
H121 C119 0.981 . S
H122 C119 0.981 . S
O123 Zn99 2.066 . S
O123 C102 1.256 . S
O124 Zn96 2.053 . S
O124 C102 1.244 1_556 S
C125 O103 1.259 . S
C125 O104 1.254 1_554 S
O126 Zn96 2.066 . S
O126 C98 1.256 . S
O127 C98 1.244 1_554 S
O127 Zn99 2.053 . S
Zn128 O129 2.055 . S
Zn128 O136 2.046 . S
Zn128 N144 2.036 . S
Zn128 O156 2.053 . S
Zn128 O158 2.066 . S
O129 Zn128 2.055 . S
O129 C132 1.259 . S
C130 O158 1.256 . S
C130 O159 1.244 . S
Zn131 O133 2.046 . S
Zn131 O135 2.055 . S
Zn131 N137 2.036 . S
Zn131 O155 2.066 . S
Zn131 O159 2.053 . S
C132 O129 1.259 . S
C132 O133 1.254 . S
O133 Zn131 2.046 . S
O133 C132 1.254 . S
C134 O155 1.256 . S
C134 O156 1.244 . S
O135 Zn131 2.055 . S
O135 C157 1.259 . S
O136 Zn128 2.046 . S
O136 C157 1.254 . S
N137 Zn131 2.036 . S
N137 C138 1.298 . S
N137 N140 1.398 . S
C138 N137 1.298 . S
C138 N141 1.367 . S
C138 C151 1.481 . S
C139 N140 1.299 . S
C139 N141 1.379 . S
N140 N137 1.398 . S
N140 C139 1.299 . S
N141 C138 1.367 . S
N141 C139 1.379 . S
C142 N144 1.298 . S
C142 N146 1.367 . S
C142 C150 1.481 . S
C143 N145 1.299 . S
C143 N146 1.379 . S
N144 Zn128 2.036 . S
N144 C142 1.298 . S
N144 N145 1.398 . S
N145 C143 1.299 . S
N145 N144 1.398 . S
N146 C142 1.367 . S
N146 C143 1.379 . S
H147 C150 0.980 . S
H148 C150 0.981 . S
H149 C150 0.981 . S
C150 C142 1.481 . S
C150 H147 0.980 . S
C150 H148 0.981 . S
C150 H149 0.981 . S
C151 C138 1.481 . S
C151 H152 0.980 . S
C151 H153 0.981 . S
C151 H154 0.981 . S
H152 C151 0.980 . S
H153 C151 0.981 . S
H154 C151 0.981 . S
O155 Zn131 2.066 . S
O155 C134 1.256 . S
O156 Zn128 2.053 . S
O156 C134 1.244 . S
C157 O135 1.259 . S
C157 O136 1.254 . S
O158 Zn128 2.066 . S
O158 C130 1.256 . S
O159 C130 1.244 . S
O159 Zn131 2.053 . S
Zn160 O161 2.055 . S
Zn160 O168 2.046 . S
Zn160 N176 2.036 . S
Zn160 O188 2.053 . S
Zn160 O190 2.066 . S
O161 Zn160 2.055 . S
O161 C164 1.259 . S
C162 O190 1.256 . S
C162 O191 1.244 . S
Zn163 O165 2.046 . S
Zn163 O167 2.055 . S
Zn163 N169 2.036 . S
Zn163 O187 2.066 . S
Zn163 O191 2.053 . S
C164 O161 1.259 . S
C164 O165 1.254 . S
O165 Zn163 2.046 . S
O165 C164 1.254 . S
C166 O187 1.256 . S
C166 O188 1.244 . S
O167 Zn163 2.055 . S
O167 C189 1.259 . S
O168 Zn160 2.046 . S
O168 C189 1.254 . S
N169 Zn163 2.036 . S
N169 C170 1.298 . S
N169 N172 1.398 . S
C170 N169 1.298 . S
C170 N173 1.367 . S
C170 C183 1.481 . S
C171 N172 1.299 . S
C171 N173 1.379 . S
N172 N169 1.398 . S
N172 C171 1.299 . S
N173 C170 1.367 . S
N173 C171 1.379 . S
C174 N176 1.298 . S
C174 N178 1.367 . S
C174 C182 1.481 . S
C175 N177 1.299 . S
C175 N178 1.379 . S
N176 Zn160 2.036 . S
N176 C174 1.298 . S
N176 N177 1.398 . S
N177 C175 1.299 . S
N177 N176 1.398 . S
N178 C174 1.367 . S
N178 C175 1.379 . S
H179 C182 0.980 . S
H180 C182 0.981 . S
H181 C182 0.981 . S
C182 C174 1.481 . S
C182 H179 0.980 . S
C182 H180 0.981 . S
C182 H181 0.981 . S
C183 C170 1.481 . S
C183 H184 0.980 . S
C183 H185 0.981 . S
C183 H186 0.981 . S
H184 C183 0.980 . S
H185 C183 0.981 . S
H186 C183 0.981 . S
O187 Zn163 2.066 . S
O187 C166 1.256 . S
O188 Zn160 2.053 . S
O188 C166 1.244 . S
C189 O167 1.259 . S
C189 O168 1.254 . S
O190 Zn160 2.066 . S
O190 C162 1.256 . S
O191 C162 1.244 . S
O191 Zn163 2.053 . S
C192 C193 1.349 . S
C192 C194 1.327 . S
C192 H217 0.950 . S
C193 C192 1.349 . S
C193 C209 1.349 . S
C194 C192 1.327 . S
C194 C213 1.429 . S
C194 H218 0.950 . S
C195 C212 1.574 . S
C195 C214 1.368 . S
C195 H219 0.949 . S
H196 C200 0.949 . S
C197 C198 1.349 . S
C197 C199 1.327 . S
C197 H220 0.950 . S
C198 C197 1.349 . S
C198 C210 1.349 . S
C199 C197 1.327 . S
C199 C215 1.429 . S
C199 H221 0.950 . S
C200 H196 0.949 . S
C200 C208 1.574 . S
C200 C216 1.368 . S
H201 C209 0.950 . S
H202 C207 0.950 . S
H203 C208 0.949 . S
H204 C210 0.950 1_554 S
H205 C211 0.950 . S
H206 C212 0.949 . S
C207 H202 0.950 . S
C207 C209 1.327 . S
C207 C213 1.429 . S
C208 C200 1.574 . S
C208 H203 0.949 . S
C208 C214 1.368 . S
C209 C193 1.349 . S
C209 H201 0.950 . S
C209 C207 1.327 . S
C210 C198 1.349 . S
C210 H204 0.950 1_556 S
C210 C211 1.327 . S
C211 H205 0.950 . S
C211 C210 1.327 . S
C211 C215 1.429 . S
C212 C195 1.574 . S
C212 H206 0.949 . S
C212 C216 1.368 . S
C213 C194 1.429 . S
C213 C207 1.429 . S
C213 C214 1.523 . S
C214 C195 1.368 . S
C214 C208 1.368 . S
C214 C213 1.523 . S
C215 C199 1.429 . S
C215 C211 1.429 . S
C215 C216 1.523 . S
C216 C200 1.368 . S
C216 C212 1.368 . S
C216 C215 1.523 . S
H217 C192 0.950 . S
H218 C194 0.950 . S
H219 C195 0.949 . S
H220 C197 0.950 . S
H221 C199 0.950 . S
C222 C223 1.349 . S
C222 C224 1.327 . S
C222 H247 0.950 . S
C223 C222 1.349 . S
C223 C239 1.349 . S
C224 C222 1.327 . S
C224 C243 1.429 . S
C224 H248 0.950 . S
C225 C242 1.574 1_455 S
C225 C244 1.368 . S
C225 H249 0.949 . S
H226 C230 0.949 . S
C227 C228 1.349 . S
C227 C229 1.327 . S
C227 H250 0.950 . S
C228 C227 1.349 . S
C228 C240 1.349 . S
C229 C227 1.327 . S
C229 C245 1.429 . S
C229 H251 0.950 . S
C230 H226 0.949 . S
C230 C238 1.574 1_655 S
C230 C246 1.368 . S
H231 C239 0.950 . S
H232 C237 0.950 . S
H233 C238 0.949 . S
H234 C240 0.950 . S
H235 C241 0.950 . S
H236 C242 0.949 . S
C237 H232 0.950 . S
C237 C239 1.327 . S
C237 C243 1.429 . S
C238 C230 1.574 1_455 S
C238 H233 0.949 . S
C238 C244 1.368 . S
C239 C223 1.349 . S
C239 H231 0.950 . S
C239 C237 1.327 . S
C240 C228 1.349 . S
C240 H234 0.950 . S
C240 C241 1.327 . S
C241 H235 0.950 . S
C241 C240 1.327 . S
C241 C245 1.429 . S
C242 C225 1.574 1_655 S
C242 H236 0.949 . S
C242 C246 1.368 . S
C243 C224 1.429 . S
C243 C237 1.429 . S
C243 C244 1.523 . S
C244 C225 1.368 . S
C244 C238 1.368 . S
C244 C243 1.523 . S
C245 C229 1.429 . S
C245 C241 1.429 . S
C245 C246 1.523 . S
C246 C230 1.368 . S
C246 C242 1.368 . S
C246 C245 1.523 . S
H247 C222 0.950 . S
H248 C224 0.950 . S
H249 C225 0.949 . S
H250 C227 0.950 . S
H251 C229 0.950 . S
C252 C253 1.349 . S
C252 C254 1.327 . S
C252 H277 0.950 . S
C253 C252 1.349 . S
C253 C269 1.349 . S
C254 C252 1.327 . S
C254 C273 1.429 . S
C254 H278 0.950 . S
C255 C272 1.574 1_545 S
C255 C274 1.368 . S
C255 H279 0.949 . S
H256 C260 0.949 . S
C257 C258 1.349 . S
C257 C259 1.327 . S
C257 H280 0.950 . S
C258 C257 1.349 . S
C258 C270 1.349 . S
C259 C257 1.327 . S
C259 C275 1.429 . S
C259 H281 0.950 . S
C260 H256 0.949 . S
C260 C268 1.574 1_565 S
C260 C276 1.368 . S
H261 C269 0.950 . S
H262 C267 0.950 . S
H263 C268 0.949 . S
H264 C270 0.950 . S
H265 C271 0.950 . S
H266 C272 0.949 . S
C267 H262 0.950 . S
C267 C269 1.327 . S
C267 C273 1.429 . S
C268 C260 1.574 1_545 S
C268 H263 0.949 . S
C268 C274 1.368 . S
C269 C253 1.349 . S
C269 H261 0.950 . S
C269 C267 1.327 . S
C270 C258 1.349 . S
C270 H264 0.950 . S
C270 C271 1.327 . S
C271 H265 0.950 . S
C271 C270 1.327 . S
C271 C275 1.429 . S
C272 C255 1.574 1_565 S
C272 H266 0.949 . S
C272 C276 1.368 . S
C273 C254 1.429 . S
C273 C267 1.429 . S
C273 C274 1.523 . S
C274 C255 1.368 . S
C274 C268 1.368 . S
C274 C273 1.523 . S
C275 C259 1.429 . S
C275 C271 1.429 . S
C275 C276 1.523 . S
C276 C260 1.368 . S
C276 C272 1.368 . S
C276 C275 1.523 . S
H277 C252 0.950 . S
H278 C254 0.950 . S
H279 C255 0.949 . S
H280 C257 0.950 . S
H281 C259 0.950 . S
C282 C283 1.349 . S
C282 C284 1.327 . S
C282 H307 0.950 . S
C283 C282 1.349 . S
C283 C299 1.349 . S
C284 C282 1.327 . S
C284 C303 1.429 . S
C284 H308 0.950 . S
C285 C302 1.574 . S
C285 C304 1.368 . S
C285 H309 0.949 . S
H286 C290 0.949 . S
C287 C288 1.349 . S
C287 C289 1.327 . S
C287 H310 0.950 1_556 S
C288 C287 1.349 . S
C288 C300 1.349 . S
C289 C287 1.327 . S
C289 C305 1.429 . S
C289 H311 0.950 . S
C290 H286 0.949 . S
C290 C298 1.574 . S
C290 C306 1.368 . S
H291 C299 0.950 . S
H292 C297 0.950 . S
H293 C298 0.949 . S
H294 C300 0.950 . S
H295 C301 0.950 . S
H296 C302 0.949 . S
C297 H292 0.950 . S
C297 C299 1.327 . S
C297 C303 1.429 . S
C298 C290 1.574 . S
C298 H293 0.949 . S
C298 C304 1.368 . S
C299 C283 1.349 . S
C299 H291 0.950 . S
C299 C297 1.327 . S
C300 C288 1.349 . S
C300 H294 0.950 . S
C300 C301 1.327 . S
C301 H295 0.950 . S
C301 C300 1.327 . S
C301 C305 1.429 . S
C302 C285 1.574 . S
C302 H296 0.949 . S
C302 C306 1.368 . S
C303 C284 1.429 . S
C303 C297 1.429 . S
C303 C304 1.523 . S
C304 C285 1.368 . S
C304 C298 1.368 . S
C304 C303 1.523 . S
C305 C289 1.429 . S
C305 C301 1.429 . S
C305 C306 1.523 . S
C306 C290 1.368 . S
C306 C302 1.368 . S
C306 C305 1.523 . S
H307 C282 0.950 . S
H308 C284 0.950 . S
H309 C285 0.949 . S
H310 C287 0.950 1_554 S
H311 C289 0.950 . S
C312 C313 1.349 . S
C312 C314 1.327 . S
C312 H337 0.950 . S
C313 C312 1.349 . S
C313 C329 1.349 . S
C314 C312 1.327 . S
C314 C333 1.429 . S
C314 H338 0.950 . S
C315 C332 1.574 1_455 S
C315 C334 1.368 . S
C315 H339 0.949 . S
H316 C320 0.949 . S
C317 C318 1.349 . S
C317 C319 1.327 . S
C317 H340 0.950 . S
C318 C317 1.349 . S
C318 C330 1.349 . S
C319 C317 1.327 . S
C319 C335 1.429 . S
C319 H341 0.950 . S
C320 H316 0.949 . S
C320 C328 1.574 1_655 S
C320 C336 1.368 . S
H321 C329 0.950 . S
H322 C327 0.950 . S
H323 C328 0.949 . S
H324 C330 0.950 . S
H325 C331 0.950 . S
H326 C332 0.949 . S
C327 H322 0.950 . S
C327 C329 1.327 . S
C327 C333 1.429 . S
C328 C320 1.574 1_455 S
C328 H323 0.949 . S
C328 C334 1.368 . S
C329 C313 1.349 . S
C329 H321 0.950 . S
C329 C327 1.327 . S
C330 C318 1.349 . S
C330 H324 0.950 . S
C330 C331 1.327 . S
C331 H325 0.950 . S
C331 C330 1.327 . S
C331 C335 1.429 . S
C332 C315 1.574 1_655 S
C332 H326 0.949 . S
C332 C336 1.368 . S
C333 C314 1.429 . S
C333 C327 1.429 . S
C333 C334 1.523 . S
C334 C315 1.368 . S
C334 C328 1.368 . S
C334 C333 1.523 . S
C335 C319 1.429 . S
C335 C331 1.429 . S
C335 C336 1.523 . S
C336 C320 1.368 . S
C336 C332 1.368 . S
C336 C335 1.523 . S
H337 C312 0.950 . S
H338 C314 0.950 . S
H339 C315 0.949 . S
H340 C317 0.950 . S
H341 C319 0.950 . S
C342 C343 1.349 . S
C342 C344 1.327 . S
C342 H367 0.950 . S
C343 C342 1.349 . S
C343 C359 1.349 . S
C344 C342 1.327 . S
C344 C363 1.429 . S
C344 H368 0.950 . S
C345 C362 1.574 1_545 S
C345 C364 1.368 . S
C345 H369 0.949 . S
H346 C350 0.949 . S
C347 C348 1.349 . S
C347 C349 1.327 . S
C347 H370 0.950 . S
C348 C347 1.349 . S
C348 C360 1.349 . S
C349 C347 1.327 . S
C349 C365 1.429 . S
C349 H371 0.950 . S
C350 H346 0.949 . S
C350 C358 1.574 1_565 S
C350 C366 1.368 . S
H351 C359 0.950 . S
H352 C357 0.950 . S
H353 C358 0.949 . S
H354 C360 0.950 . S
H355 C361 0.950 . S
H356 C362 0.949 . S
C357 H352 0.950 . S
C357 C359 1.327 . S
C357 C363 1.429 . S
C358 C350 1.574 1_545 S
C358 H353 0.949 . S
C358 C364 1.368 . S
C359 C343 1.349 . S
C359 H351 0.950 . S
C359 C357 1.327 . S
C360 C348 1.349 . S
C360 H354 0.950 . S
C360 C361 1.327 . S
C361 H355 0.950 . S
C361 C360 1.327 . S
C361 C365 1.429 . S
C362 C345 1.574 1_565 S
C362 H356 0.949 . S
C362 C366 1.368 . S
C363 C344 1.429 . S
C363 C357 1.429 . S
C363 C364 1.523 . S
C364 C345 1.368 . S
C364 C358 1.368 . S
C364 C363 1.523 . S
C365 C349 1.429 . S
C365 C361 1.429 . S
C365 C366 1.523 . S
C366 C350 1.368 . S
C366 C362 1.368 . S
C366 C365 1.523 . S
H367 C342 0.950 . S
H368 C344 0.950 . S
H369 C345 0.949 . S
H370 C347 0.950 . S
H371 C349 0.950 . S
C372 C373 1.349 . S
C372 C374 1.327 . S
C372 H397 0.950 . S
C373 C372 1.349 . S
C373 C389 1.349 . S
C374 C372 1.327 . S
C374 C393 1.429 . S
C374 H398 0.950 . S
C375 C392 1.574 . S
C375 C394 1.368 . S
C375 H399 0.949 . S
H376 C380 0.949 . S
C377 C378 1.349 . S
C377 C379 1.327 . S
C377 H400 0.950 . S
C378 C377 1.349 . S
C378 C390 1.349 . S
C379 C377 1.327 . S
C379 C395 1.429 . S
C379 H401 0.950 . S
C380 H376 0.949 . S
C380 C388 1.574 . S
C380 C396 1.368 . S
H381 C389 0.950 . S
H382 C387 0.950 . S
H383 C388 0.949 . S
H384 C390 0.950 . S
H385 C391 0.950 . S
H386 C392 0.949 . S
C387 H382 0.950 . S
C387 C389 1.327 . S
C387 C393 1.429 . S
C388 C380 1.574 . S
C388 H383 0.949 . S
C388 C394 1.368 . S
C389 C373 1.349 . S
C389 H381 0.950 . S
C389 C387 1.327 . S
C390 C378 1.349 . S
C390 H384 0.950 . S
C390 C391 1.327 . S
C391 H385 0.950 . S
C391 C390 1.327 . S
C391 C395 1.429 . S
C392 C375 1.574 . S
C392 H386 0.949 . S
C392 C396 1.368 . S
C393 C374 1.429 . S
C393 C387 1.429 . S
C393 C394 1.523 . S
C394 C375 1.368 . S
C394 C388 1.368 . S
C394 C393 1.523 . S
C395 C379 1.429 . S
C395 C391 1.429 . S
C395 C396 1.523 . S
C396 C380 1.368 . S
C396 C392 1.368 . S
C396 C395 1.523 . S
H397 C372 0.950 . S
H398 C374 0.950 . S
H399 C375 0.949 . S
H400 C377 0.950 . S
H401 C379 0.950 . S
C402 C403 1.349 . S
C402 C404 1.345 . S
C402 H427 0.950 . S
C403 C402 1.349 . S
C403 C419 1.349 . S
C404 C402 1.345 . S
C404 C423 1.415 1_554 S
C404 H428 0.945 1_554 S
C405 C422 1.574 . S
C405 C424 1.368 . S
C405 H429 0.949 . S
H406 C410 0.949 . S
C407 C408 1.349 . S
C407 C409 1.327 . S
C407 H430 0.950 . S
C408 C407 1.349 . S
C408 C420 1.349 . S
C409 C407 1.327 . S
C409 C425 1.429 . S
C409 H431 0.950 . S
C410 H406 0.949 . S
C410 C418 1.574 . S
C410 C426 1.368 . S
H411 C419 0.950 . S
H412 C417 0.950 . S
H413 C418 0.949 . S
H414 C420 0.950 . S
H415 C421 0.950 . S
H416 C422 0.949 . S
C417 H412 0.950 . S
C417 C419 1.327 1_556 S
C417 C423 1.429 . S
C418 C410 1.574 . S
C418 H413 0.949 . S
C418 C424 1.368 . S
C419 C403 1.349 . S
C419 H411 0.950 . S
C419 C417 1.327 1_554 S
C420 C408 1.349 . S
C420 H414 0.950 . S
C420 C421 1.327 . S
C421 H415 0.950 . S
C421 C420 1.327 . S
C421 C425 1.429 . S
C422 C405 1.574 . S
C422 H416 0.949 . S
C422 C426 1.368 . S
C423 C404 1.415 1_556 S
C423 C417 1.429 . S
C423 C424 1.523 . S
C424 C405 1.368 . S
C424 C418 1.368 . S
C424 C423 1.523 . S
C425 C409 1.429 . S
C425 C421 1.429 . S
C425 C426 1.523 . S
C426 C410 1.368 . S
C426 C422 1.368 . S
C426 C425 1.523 . S
H427 C402 0.950 . S
H428 C404 0.945 1_556 S
H429 C405 0.949 . S
H430 C407 0.950 . S
H431 C409 0.950 . S
C432 C433 1.349 . S
C432 C434 1.327 . S
C432 H457 0.950 . S
C433 C432 1.349 . S
C433 C449 1.349 . S
C434 C432 1.327 . S
C434 C453 1.429 . S
C434 H458 0.950 . S
C435 C452 1.574 . S
C435 C454 1.368 . S
C435 H459 0.949 . S
H436 C440 0.949 . S
C437 C438 1.349 . S
C437 C439 1.327 1_556 S
C437 H460 0.950 . S
C438 C437 1.349 . S
C438 C450 1.349 . S
C439 C437 1.327 1_554 S
C439 C455 1.429 . S
C439 H461 0.950 . S
C440 H436 0.949 . S
C440 C448 1.574 . S
C440 C456 1.368 . S
H441 C449 0.950 . S
H442 C447 0.950 . S
H443 C448 0.949 . S
H444 C450 0.950 . S
H445 C451 0.950 . S
H446 C452 0.949 . S
C447 H442 0.950 . S
C447 C449 1.327 . S
C447 C453 1.429 . S
C448 C440 1.574 . S
C448 H443 0.949 . S
C448 C454 1.368 . S
C449 C433 1.349 . S
C449 H441 0.950 . S
C449 C447 1.327 . S
C450 C438 1.349 . S
C450 H444 0.950 . S
C450 C451 1.327 1_556 S
C451 H445 0.950 . S
C451 C450 1.327 1_554 S
C451 C455 1.429 . S
C452 C435 1.574 . S
C452 H446 0.949 . S
C452 C456 1.368 . S
C453 C434 1.429 . S
C453 C447 1.429 . S
C453 C454 1.523 . S
C454 C435 1.368 . S
C454 C448 1.368 . S
C454 C453 1.523 . S
C455 C439 1.429 . S
C455 C451 1.429 . S
C455 C456 1.523 . S
C456 C440 1.368 . S
C456 C452 1.368 . S
C456 C455 1.523 . S
H457 C432 0.950 . S
H458 C434 0.950 . S
H459 C435 0.949 . S
H460 C437 0.950 . S
H461 C439 0.950 . S
C462 C463 1.349 . S
C462 C464 1.327 . S
C462 H487 0.950 . S
C463 C462 1.349 . S
C463 C479 1.349 . S
C464 C462 1.327 . S
C464 C483 1.429 . S
C464 H488 0.950 . S
C465 C482 1.574 . S
C465 C484 1.368 . S
C465 H489 0.949 . S
H466 C470 0.949 . S
C467 C468 1.349 . S
C467 C469 1.327 . S
C467 H490 0.950 . S
C468 C467 1.349 . S
C468 C480 1.349 . S
C469 C467 1.327 . S
C469 C485 1.429 . S
C469 H491 0.950 . S
C470 H466 0.949 . S
C470 C478 1.574 . S
C470 C486 1.368 . S
H471 C479 0.950 . S
H472 C477 0.950 . S
H473 C478 0.949 . S
H474 C480 0.950 . S
H475 C481 0.950 . S
H476 C482 0.949 . S
C477 H472 0.950 . S
C477 C479 1.327 . S
C477 C483 1.429 . S
C478 C470 1.574 . S
C478 H473 0.949 . S
C478 C484 1.368 . S
C479 C463 1.349 . S
C479 H471 0.950 . S
C479 C477 1.327 . S
C480 C468 1.349 . S
C480 H474 0.950 . S
C480 C481 1.327 . S
C481 H475 0.950 . S
C481 C480 1.327 . S
C481 C485 1.429 . S
C482 C465 1.574 . S
C482 H476 0.949 . S
C482 C486 1.368 . S
C483 C464 1.429 . S
C483 C477 1.429 . S
C483 C484 1.523 . S
C484 C465 1.368 . S
C484 C478 1.368 . S
C484 C483 1.523 . S
C485 C469 1.429 . S
C485 C481 1.429 . S
C485 C486 1.523 . S
C486 C470 1.368 . S
C486 C482 1.368 . S
C486 C485 1.523 . S
H487 C462 0.950 . S
H488 C464 0.950 . S
H489 C465 0.949 . S
H490 C467 0.950 . S
H491 C469 0.950 . S
C492 C493 1.349 . S
C492 C494 1.327 . S
C492 H517 0.950 . S
C493 C492 1.349 . S
C493 C509 1.349 . S
C494 C492 1.327 . S
C494 C513 1.429 . S
C494 H518 0.950 . S
C495 C512 1.574 . S
C495 C514 1.368 . S
C495 H519 0.949 . S
H496 C500 0.949 . S
C497 C498 1.349 . S
C497 C499 1.327 1_554 S
C497 H520 0.950 . S
C498 C497 1.349 . S
C498 C510 1.349 . S
C499 C497 1.327 1_556 S
C499 C515 1.429 . S
C499 H521 0.950 . S
C500 H496 0.949 . S
C500 C508 1.574 . S
C500 C516 1.368 . S
H501 C509 0.950 . S
H502 C507 0.950 . S
H503 C508 0.949 . S
H504 C510 0.950 . S
H505 C511 0.950 . S
H506 C512 0.949 . S
C507 H502 0.950 . S
C507 C509 1.327 . S
C507 C513 1.429 . S
C508 C500 1.574 . S
C508 H503 0.949 . S
C508 C514 1.368 . S
C509 C493 1.349 . S
C509 H501 0.950 . S
C509 C507 1.327 . S
C510 C498 1.349 . S
C510 H504 0.950 . S
C510 C511 1.327 1_554 S
C511 H505 0.950 . S
C511 C510 1.327 1_556 S
C511 C515 1.429 . S
C512 C495 1.574 . S
C512 H506 0.949 . S
C512 C516 1.368 . S
C513 C494 1.429 . S
C513 C507 1.429 . S
C513 C514 1.523 . S
C514 C495 1.368 . S
C514 C508 1.368 . S
C514 C513 1.523 . S
C515 C499 1.429 . S
C515 C511 1.429 . S
C515 C516 1.523 . S
C516 C500 1.368 . S
C516 C512 1.368 . S
C516 C515 1.523 . S
H517 C492 0.950 . S
H518 C494 0.950 . S
H519 C495 0.949 . S
H520 C497 0.950 . S
H521 C499 0.950 . S
C522 C523 1.349 . S
C522 C524 1.327 . S
C522 H547 0.950 . S
C523 C522 1.349 . S
C523 C539 1.349 . S
C524 C522 1.327 . S
C524 C543 1.429 . S
C524 H548 0.950 . S
C525 C542 1.574 . S
C525 C544 1.368 . S
C525 H549 0.949 . S
H526 C530 0.949 . S
C527 C528 1.349 . S
C527 C529 1.327 1_556 S
C527 H550 0.950 . S
C528 C527 1.349 . S
C528 C540 1.349 . S
C529 C527 1.327 1_554 S
C529 C545 1.429 . S
C529 H551 0.950 . S
C530 H526 0.949 . S
C530 C538 1.574 . S
C530 C546 1.368 . S
H531 C539 0.950 . S
H532 C537 0.950 . S
H533 C538 0.949 . S
H534 C540 0.950 . S
H535 C541 0.950 . S
H536 C542 0.949 . S
C537 H532 0.950 . S
C537 C539 1.327 . S
C537 C543 1.429 . S
C538 C530 1.574 . S
C538 H533 0.949 . S
C538 C544 1.368 . S
C539 C523 1.349 . S
C539 H531 0.950 . S
C539 C537 1.327 . S
C540 C528 1.349 . S
C540 H534 0.950 . S
C540 C541 1.327 1_556 S
C541 H535 0.950 . S
C541 C540 1.327 1_554 S
C541 C545 1.429 . S
C542 C525 1.574 . S
C542 H536 0.949 . S
C542 C546 1.368 . S
C543 C524 1.429 . S
C543 C537 1.429 . S
C543 C544 1.523 . S
C544 C525 1.368 . S
C544 C538 1.368 . S
C544 C543 1.523 . S
C545 C529 1.429 . S
C545 C541 1.429 . S
C545 C546 1.523 . S
C546 C530 1.368 . S
C546 C542 1.368 . S
C546 C545 1.523 . S
H547 C522 0.950 . S
H548 C524 0.950 . S
H549 C525 0.949 . S
H550 C527 0.950 . S
H551 C529 0.950 . S
C552 C553 1.349 . S
C552 C554 1.327 . S
C552 H577 0.950 . S
C553 C552 1.349 . S
C553 C569 1.349 . S
C554 C552 1.327 . S
C554 C573 1.429 . S
C554 H578 0.950 . S
C555 C572 1.574 . S
C555 C574 1.368 . S
C555 H579 0.949 . S
H556 C560 0.949 . S
C557 C558 1.349 . S
C557 C559 1.327 . S
C557 H580 0.950 . S
C558 C557 1.349 . S
C558 C570 1.349 . S
C559 C557 1.327 . S
C559 C575 1.429 . S
C559 H581 0.950 . S
C560 H556 0.949 . S
C560 C568 1.574 . S
C560 C576 1.368 . S
H561 C569 0.950 . S
H562 C567 0.950 . S
H563 C568 0.949 . S
H564 C570 0.950 . S
H565 C571 0.950 . S
H566 C572 0.949 . S
C567 H562 0.950 . S
C567 C569 1.327 . S
C567 C573 1.429 . S
C568 C560 1.574 . S
C568 H563 0.949 . S
C568 C574 1.368 . S
C569 C553 1.349 . S
C569 H561 0.950 . S
C569 C567 1.327 . S
C570 C558 1.349 . S
C570 H564 0.950 . S
C570 C571 1.327 . S
C571 H565 0.950 . S
C571 C570 1.327 . S
C571 C575 1.429 . S
C572 C555 1.574 . S
C572 H566 0.949 . S
C572 C576 1.368 . S
C573 C554 1.429 . S
C573 C567 1.429 . S
C573 C574 1.523 . S
C574 C555 1.368 . S
C574 C568 1.368 . S
C574 C573 1.523 . S
C575 C559 1.429 . S
C575 C571 1.429 . S
C575 C576 1.523 . S
C576 C560 1.368 . S
C576 C572 1.368 . S
C576 C575 1.523 . S
H577 C552 0.950 . S
H578 C554 0.950 . S
H579 C555 0.949 . S
H580 C557 0.950 . S
H581 C559 0.950 . S
C582 C583 1.349 . S
C582 C584 1.327 . S
C582 H607 0.950 . S
C583 C582 1.349 . S
C583 C599 1.349 . S
C584 C582 1.327 . S
C584 C603 1.429 . S
C584 H608 0.950 . S
C585 C602 1.574 . S
C585 C604 1.368 . S
C585 H609 0.949 . S
H586 C590 0.949 . S
C587 C588 1.349 . S
C587 C589 1.327 . S
C587 H610 0.950 . S
C588 C587 1.349 . S
C588 C600 1.349 . S
C589 C587 1.327 . S
C589 C605 1.429 . S
C589 H611 0.950 . S
C590 H586 0.949 . S
C590 C598 1.574 . S
C590 C606 1.368 . S
H591 C599 0.950 . S
H592 C597 0.950 . S
H593 C598 0.949 . S
H594 C600 0.950 . S
H595 C601 0.950 . S
H596 C602 0.949 . S
C597 H592 0.950 . S
C597 C599 1.327 . S
C597 C603 1.429 . S
C598 C590 1.574 . S
C598 H593 0.949 . S
C598 C604 1.368 . S
C599 C583 1.349 . S
C599 H591 0.950 . S
C599 C597 1.327 . S
C600 C588 1.349 . S
C600 H594 0.950 . S
C600 C601 1.327 . S
C601 H595 0.950 . S
C601 C600 1.327 . S
C601 C605 1.429 . S
C602 C585 1.574 . S
C602 H596 0.949 . S
C602 C606 1.368 . S
C603 C584 1.429 . S
C603 C597 1.429 . S
C603 C604 1.523 . S
C604 C585 1.368 . S
C604 C598 1.368 . S
C604 C603 1.523 . S
C605 C589 1.429 . S
C605 C601 1.429 . S
C605 C606 1.523 . S
C606 C590 1.368 . S
C606 C602 1.368 . S
C606 C605 1.523 . S
H607 C582 0.950 . S
H608 C584 0.950 . S
H609 C585 0.949 . S
H610 C587 0.950 . S
H611 C589 0.950 . S
C612 C613 1.349 . S
C612 C614 1.327 . S
C612 H637 0.950 . S
C613 C612 1.349 . S
C613 C629 1.349 . S
C614 C612 1.327 . S
C614 C633 1.429 . S
C614 H638 0.950 . S
C615 C632 1.574 . S
C615 C634 1.368 . S
C615 H639 0.949 . S
H616 C620 0.949 . S
C617 C618 1.349 . S
C617 C619 1.327 . S
C617 H640 0.950 . S
C618 C617 1.349 . S
C618 C630 1.349 . S
C619 C617 1.327 . S
C619 C635 1.429 . S
C619 H641 0.950 . S
C620 H616 0.949 . S
C620 C628 1.574 . S
C620 C636 1.368 . S
H621 C629 0.950 1_554 S
H622 C627 0.950 . S
H623 C628 0.949 . S
H624 C630 0.950 . S
H625 C631 0.950 . S
H626 C632 0.949 . S
C627 H622 0.950 . S
C627 C629 1.327 . S
C627 C633 1.429 . S
C628 C620 1.574 . S
C628 H623 0.949 . S
C628 C634 1.368 . S
C629 C613 1.349 . S
C629 H621 0.950 1_556 S
C629 C627 1.327 . S
C630 C618 1.349 . S
C630 H624 0.950 . S
C630 C631 1.327 . S
C631 H625 0.950 . S
C631 C630 1.327 . S
C631 C635 1.429 . S
C632 C615 1.574 . S
C632 H626 0.949 . S
C632 C636 1.368 . S
C633 C614 1.429 . S
C633 C627 1.429 . S
C633 C634 1.523 . S
C634 C615 1.368 . S
C634 C628 1.368 . S
C634 C633 1.523 . S
C635 C619 1.429 . S
C635 C631 1.429 . S
C635 C636 1.523 . S
C636 C620 1.368 . S
C636 C632 1.368 . S
C636 C635 1.523 . S
H637 C612 0.950 . S
H638 C614 0.950 . S
H639 C615 0.949 . S
H640 C617 0.950 . S
H641 C619 0.950 . S
C642 C643 1.349 . S
C642 C644 1.327 . S
C642 H667 0.950 . S
C643 C642 1.349 . S
C643 C659 1.349 . S
C644 C642 1.327 . S
C644 C663 1.429 . S
C644 H668 0.950 . S
C645 C662 1.574 . S
C645 C664 1.368 . S
C645 H669 0.949 . S
H646 C650 0.949 . S
C647 C648 1.349 . S
C647 C649 1.327 . S
C647 H670 0.950 . S
C648 C647 1.349 . S
C648 C660 1.349 . S
C649 C647 1.327 . S
C649 C665 1.429 . S
C649 H671 0.950 . S
C650 H646 0.949 . S
C650 C658 1.574 . S
C650 C666 1.368 . S
H651 C659 0.950 . S
H652 C657 0.950 . S
H653 C658 0.949 . S
H654 C660 0.950 . S
H655 C661 0.950 . S
H656 C662 0.949 . S
C657 H652 0.950 . S
C657 C659 1.327 . S
C657 C663 1.429 . S
C658 C650 1.574 . S
C658 H653 0.949 . S
C658 C664 1.368 . S
C659 C643 1.349 . S
C659 H651 0.950 . S
C659 C657 1.327 . S
C660 C648 1.349 . S
C660 H654 0.950 . S
C660 C661 1.327 . S
C661 H655 0.950 . S
C661 C660 1.327 . S
C661 C665 1.429 . S
C662 C645 1.574 . S
C662 H656 0.949 . S
C662 C666 1.368 . S
C663 C644 1.429 . S
C663 C657 1.429 . S
C663 C664 1.523 . S
C664 C645 1.368 . S
C664 C658 1.368 . S
C664 C663 1.523 . S
C665 C649 1.429 . S
C665 C661 1.429 . S
C665 C666 1.523 . S
C666 C650 1.368 . S
C666 C662 1.368 . S
C666 C665 1.523 . S
H667 C642 0.950 . S
H668 C644 0.950 . S
H669 C645 0.949 . S
H670 C647 0.950 . S
H671 C649 0.950 . S
C672 C673 1.349 . S
C672 C674 1.327 . S
C672 H697 0.950 . S
C673 C672 1.349 . S
C673 C689 1.349 . S
C674 C672 1.327 . S
C674 C693 1.429 . S
C674 H698 0.950 . S
C675 C692 1.574 . S
C675 C694 1.368 . S
C675 H699 0.949 . S
H676 C680 0.949 . S
C677 C678 1.349 . S
C677 C679 1.327 . S
C677 H700 0.950 . S
C678 C677 1.349 . S
C678 C690 1.349 . S
C679 C677 1.327 . S
C679 C695 1.429 . S
C679 H701 0.950 . S
C680 H676 0.949 . S
C680 C688 1.574 . S
C680 C696 1.368 . S
H681 C689 0.950 . S
H682 C687 0.950 . S
H683 C688 0.949 . S
H684 C690 0.950 . S
H685 C691 0.950 . S
H686 C692 0.949 . S
C687 H682 0.950 . S
C687 C689 1.327 . S
C687 C693 1.429 . S
C688 C680 1.574 . S
C688 H683 0.949 . S
C688 C694 1.368 . S
C689 C673 1.349 . S
C689 H681 0.950 . S
C689 C687 1.327 . S
C690 C678 1.349 . S
C690 H684 0.950 . S
C690 C691 1.327 . S
C691 H685 0.950 . S
C691 C690 1.327 . S
C691 C695 1.429 . S
C692 C675 1.574 . S
C692 H686 0.949 . S
C692 C696 1.368 . S
C693 C674 1.429 . S
C693 C687 1.429 . S
C693 C694 1.523 . S
C694 C675 1.368 . S
C694 C688 1.368 . S
C694 C693 1.523 . S
C695 C679 1.429 . S
C695 C691 1.429 . S
C695 C696 1.523 . S
C696 C680 1.368 . S
C696 C692 1.368 . S
C696 C695 1.523 . S
H697 C672 0.950 . S
H698 C674 0.950 . S
H699 C675 0.949 . S
H700 C677 0.950 . S
H701 C679 0.950 . S
C702 C703 1.349 . S
C702 C704 1.327 . S
C702 H727 0.950 . S
C703 C702 1.349 . S
C703 C719 1.349 . S
C704 C702 1.327 . S
C704 C723 1.429 . S
C704 H728 0.950 . S
C705 C722 1.574 . S
C705 C724 1.368 . S
C705 H729 0.949 . S
H706 C710 0.949 . S
C707 C708 1.349 . S
C707 C709 1.327 . S
C707 H730 0.950 . S
C708 C707 1.349 . S
C708 C720 1.349 . S
C709 C707 1.327 . S
C709 C725 1.429 . S
C709 H731 0.950 . S
C710 H706 0.949 . S
C710 C718 1.574 . S
C710 C726 1.368 . S
H711 C719 0.950 . S
H712 C717 0.950 . S
H713 C718 0.949 . S
H714 C720 0.950 . S
H715 C721 0.950 . S
H716 C722 0.949 . S
C717 H712 0.950 . S
C717 C719 1.327 . S
C717 C723 1.429 . S
C718 C710 1.574 . S
C718 H713 0.949 . S
C718 C724 1.368 . S
C719 C703 1.349 . S
C719 H711 0.950 . S
C719 C717 1.327 . S
C720 C708 1.349 . S
C720 H714 0.950 . S
C720 C721 1.327 . S
C721 H715 0.950 . S
C721 C720 1.327 . S
C721 C725 1.429 . S
C722 C705 1.574 . S
C722 H716 0.949 . S
C722 C726 1.368 . S
C723 C704 1.429 . S
C723 C717 1.429 . S
C723 C724 1.523 . S
C724 C705 1.368 . S
C724 C718 1.368 . S
C724 C723 1.523 . S
C725 C709 1.429 . S
C725 C721 1.429 . S
C725 C726 1.523 . S
C726 C710 1.368 . S
C726 C722 1.368 . S
C726 C725 1.523 . S
H727 C702 0.950 . S
H728 C704 0.950 . S
H729 C705 0.949 . S
H730 C707 0.950 . S
H731 C709 0.950 . S
C193 C166 1.446 . S
C198 C6 1.446 . S
C223 C2 1.446 . S
C228 C34 1.446 . S
C253 C38 1.446 . S
C258 C70 1.446 . S
C283 C66 1.446 . S
C288 C98 1.446 . S
C313 C134 1.446 . S
C318 C102 1.446 . S
C343 C162 1.446 . S
C348 C130 1.446 . S
C373 N13 0.784 . S
C378 N18 0.784 . S
C403 N50 0.784 . S
C408 N45 0.784 . S
C433 N77 0.784 . S
C438 N82 0.784 . S
C463 N114 0.784 . S
C468 N109 0.784 . S
C493 N146 0.784 . S
C498 N141 0.784 . S
C523 N178 0.784 . S
C528 N173 0.784 . S
C553 C4 1.484 . S
C558 C157 1.484 . S
C583 C61 1.484 . S
C588 C164 1.484 . S
C613 C29 1.484 . S
C618 C68 1.484 . S
C643 C36 1.484 . S
C648 C125 1.484 . S
C673 C132 1.484 . S
C678 C93 1.484 . S
C703 C100 1.484 . S
C708 C189 1.484 . S
