# Generated by pormake.
# Topology pcl, (4)-cn, num edge types: 1
# Building blocks:
#     Node 0, Type 0, BuildingBlock: QUQFOY_clean_sbu_1, # of connection points: 4
#     Node 1, Type 0, BuildingBlock: QUQFOY_clean_sbu_1, # of connection points: 4
#     Node 2, Type 0, BuildingBlock: QUQFOY_clean_sbu_1, # of connection points: 4
#     Node 3, Type 0, BuildingBlock: QUQFOY_clean_sbu_1, # of connection points: 4
#     Node 4, Type 0, BuildingBlock: QUQFOY_clean_sbu_1, # of connection points: 4
#     Node 5, Type 0, BuildingBlock: QUQFOY_clean_sbu_1, # of connection points: 4
#     Node 6, Type 0, BuildingBlock: QUQFOY_clean_sbu_1, # of connection points: 4
#     Node 7, Type 0, BuildingBlock: QUQFOY_clean_sbu_1, # of connection points: 4
#     Node 8, Type 0, BuildingBlock: QUQFOY_clean_sbu_1, # of connection points: 4
#     Node 9, Type 0, BuildingBlock: QUQFOY_clean_sbu_1, # of connection points: 4
#     Node 10, Type 0, BuildingBlock: QUQFOY_clean_sbu_1, # of connection points: 4
#     Node 11, Type 0, BuildingBlock: QUQFOY_clean_sbu_1, # of connection points: 4
#     Node 12, Type 0, BuildingBlock: QUQFOY_clean_sbu_1, # of connection points: 4
#     Node 13, Type 0, BuildingBlock: QUQFOY_clean_sbu_1, # of connection points: 4
#     Node 14, Type 0, BuildingBlock: QUQFOY_clean_sbu_1, # of connection points: 4
#     Node 15, Type 0, BuildingBlock: QUQFOY_clean_sbu_1, # of connection points: 4
#     Edge 16, Type (0, 0), BuildingBlock: MIFKUJ_clean_linker_0, # of connection points: 2
#     Edge 17, Type (0, 0), BuildingBlock: MIFKUJ_clean_linker_0, # of connection points: 2
#     Edge 18, Type (0, 0), BuildingBlock: MIFKUJ_clean_linker_0, # of connection points: 2
#     Edge 19, Type (0, 0), BuildingBlock: MIFKUJ_clean_linker_0, # of connection points: 2
#     Edge 20, Type (0, 0), BuildingBlock: MIFKUJ_clean_linker_0, # of connection points: 2
#     Edge 21, Type (0, 0), BuildingBlock: MIFKUJ_clean_linker_0, # of connection points: 2
#     Edge 22, Type (0, 0), BuildingBlock: MIFKUJ_clean_linker_0, # of connection points: 2
#     Edge 23, Type (0, 0), BuildingBlock: MIFKUJ_clean_linker_0, # of connection points: 2
#     Edge 24, Type (0, 0), BuildingBlock: MIFKUJ_clean_linker_0, # of connection points: 2
#     Edge 25, Type (0, 0), BuildingBlock: MIFKUJ_clean_linker_0, # of connection points: 2
#     Edge 26, Type (0, 0), BuildingBlock: MIFKUJ_clean_linker_0, # of connection points: 2
#     Edge 27, Type (0, 0), BuildingBlock: MIFKUJ_clean_linker_0, # of connection points: 2
#     Edge 28, Type (0, 0), BuildingBlock: MIFKUJ_clean_linker_0, # of connection points: 2
#     Edge 29, Type (0, 0), BuildingBlock: MIFKUJ_clean_linker_0, # of connection points: 2
#     Edge 30, Type (0, 0), BuildingBlock: MIFKUJ_clean_linker_0, # of connection points: 2
#     Edge 31, Type (0, 0), BuildingBlock: MIFKUJ_clean_linker_0, # of connection points: 2
#     Edge 32, Type (0, 0), BuildingBlock: MIFKUJ_clean_linker_0, # of connection points: 2
#     Edge 33, Type (0, 0), BuildingBlock: MIFKUJ_clean_linker_0, # of connection points: 2
#     Edge 34, Type (0, 0), BuildingBlock: MIFKUJ_clean_linker_0, # of connection points: 2
#     Edge 35, Type (0, 0), BuildingBlock: MIFKUJ_clean_linker_0, # of connection points: 2
#     Edge 36, Type (0, 0), BuildingBlock: MIFKUJ_clean_linker_0, # of connection points: 2
#     Edge 37, Type (0, 0), BuildingBlock: MIFKUJ_clean_linker_0, # of connection points: 2
#     Edge 38, Type (0, 0), BuildingBlock: MIFKUJ_clean_linker_0, # of connection points: 2
#     Edge 39, Type (0, 0), BuildingBlock: MIFKUJ_clean_linker_0, # of connection points: 2
#     Edge 40, Type (0, 0), BuildingBlock: MIFKUJ_clean_linker_0, # of connection points: 2
#     Edge 41, Type (0, 0), BuildingBlock: MIFKUJ_clean_linker_0, # of connection points: 2
#     Edge 42, Type (0, 0), BuildingBlock: MIFKUJ_clean_linker_0, # of connection points: 2
#     Edge 43, Type (0, 0), BuildingBlock: MIFKUJ_clean_linker_0, # of connection points: 2
#     Edge 44, Type (0, 0), BuildingBlock: MIFKUJ_clean_linker_0, # of connection points: 2
#     Edge 45, Type (0, 0), BuildingBlock: MIFKUJ_clean_linker_0, # of connection points: 2
#     Edge 46, Type (0, 0), BuildingBlock: MIFKUJ_clean_linker_0, # of connection points: 2
#     Edge 47, Type (0, 0), BuildingBlock: MIFKUJ_clean_linker_0, # of connection points: 2
# Relax obj value: 0.089
# Max RMSD: 0.137
# Mean RMSD: 0.119
data_MOF--net-pcl--node1-QUQFOY_clean_sbu_1--edge1-MIFKUJ_clean_linker_0
_symmetry_space_group_name_H-M    P1
_symmetry_Int_Tables_number       1
_symmetry_cell_setting            triclinic
loop_
_symmetry_equiv_pos_as_xyz
'x, y, z'
_cell_length_a     68.862778
_cell_length_b     57.180871
_cell_length_c     59.510794
_cell_angle_alpha  89.975182
_cell_angle_beta   89.975356
_cell_angle_gamma 89.968822
loop_
_atom_site_label
_atom_site_type_symbol
_atom_site_fract_x
_atom_site_fract_y
_atom_site_fract_z
_atom_type_partial_charge
O0 O 0.15232 0.32396 0.1236 0.0
Cd1 Cd 0.14523 0.31988 0.09006 0.0
Cd2 Cd 0.13847 0.36686 0.09163 0.0
O3 O 0.14806 0.36219 0.12431 0.0
O4 O 0.15824 0.29092 0.07888 0.0
O5 O 0.16576 0.3264 0.06678 0.0
C6 C 0.16883 0.3041 0.06621 0.0
C7 C 0.14956 0.39942 0.07149 0.0
C8 C 0.15259 0.34324 0.13423 0.0
C9 C 0.10445 0.33538 0.08059 0.0
O10 O 0.11066 0.35605 0.08383 0.0
O11 O 0.11596 0.31803 0.082 0.0
O12 O 0.1376 0.40154 0.088 0.0
O13 O 0.15565 0.37867 0.06656 0.0
O14 O 0.85633 0.68279 0.62304 0.0
Cd15 Cd 0.86257 0.68474 0.58896 0.0
Cd16 Cd 0.86864 0.63834 0.59392 0.0
O17 O 0.85676 0.64429 0.62528 0.0
O18 O 0.84976 0.71339 0.57681 0.0
O19 O 0.84133 0.67754 0.56675 0.0
C20 C 0.83865 0.69986 0.56516 0.0
C21 C 0.85939 0.60498 0.57374 0.0
C22 C 0.85392 0.66413 0.63436 0.0
C23 C 0.90329 0.66871 0.58234 0.0
O24 O 0.897 0.64891 0.58877 0.0
O25 O 0.89159 0.68572 0.57976 0.0
O26 O 0.87026 0.60363 0.5913 0.0
O27 O 0.85319 0.62541 0.56787 0.0
O28 O 0.15087 0.68247 0.88546 0.0
Cd29 Cd 0.14487 0.68396 0.91952 0.0
Cd30 Cd 0.14136 0.6374 0.91543 0.0
O31 O 0.15416 0.64412 0.88463 0.0
O32 O 0.15705 0.71274 0.93217 0.0
O33 O 0.16644 0.6769 0.94124 0.0
C34 C 0.16863 0.69926 0.9433 0.0
C35 C 0.15184 0.60488 0.93603 0.0
C36 C 0.15529 0.66388 0.87492 0.0
C37 C 0.10506 0.66524 0.92598 0.0
O38 O 0.1123 0.64591 0.91948 0.0
O39 O 0.11596 0.68294 0.92885 0.0
O40 O 0.14209 0.60259 0.9177 0.0
O41 O 0.15608 0.62579 0.94259 0.0
O42 O 0.85742 0.32349 0.38426 0.0
Cd43 Cd 0.86412 0.32038 0.41817 0.0
Cd44 Cd 0.87023 0.36724 0.41489 0.0
O45 O 0.85943 0.36197 0.383 0.0
O46 O 0.85119 0.29159 0.4298 0.0
O47 O 0.84314 0.32728 0.44082 0.0
C48 C 0.84026 0.30496 0.44187 0.0
C49 C 0.86095 0.40106 0.43446 0.0
C50 C 0.85594 0.34257 0.37338 0.0
C51 C 0.90483 0.33646 0.42574 0.0
O52 O 0.8984 0.35659 0.42057 0.0
O53 O 0.89331 0.31913 0.42705 0.0
O54 O 0.87222 0.40194 0.41722 0.0
O55 O 0.85441 0.38083 0.44044 0.0
O56 O 0.85181 0.63031 0.96203 0.0
Cd57 Cd 0.85708 0.66391 0.9506 0.0
Cd58 Cd 0.86204 0.63988 0.91076 0.0
O59 O 0.85105 0.61233 0.92925 0.0
O60 O 0.84629 0.68478 0.97441 0.0
O61 O 0.83417 0.68304 0.94005 0.0
C62 C 0.83324 0.69138 0.96022 0.0
C63 C 0.85308 0.64421 0.87293 0.0
C64 C 0.8491 0.61188 0.95049 0.0
C65 C 0.8971 0.66376 0.93173 0.0
O66 O 0.89032 0.64947 0.91739 0.0
O67 O 0.88589 0.67343 0.94596 0.0
O68 O 0.86422 0.62748 0.87955 0.0
O69 O 0.84629 0.65823 0.88803 0.0
O70 O 0.15729 0.36875 0.46356 0.0
Cd71 Cd 0.15227 0.3353 0.45159 0.0
Cd72 Cd 0.14754 0.35932 0.41162 0.0
O73 O 0.15828 0.38656 0.43068 0.0
O74 O 0.16323 0.31344 0.47451 0.0
O75 O 0.17546 0.31723 0.4403 0.0
C76 C 0.17639 0.30785 0.46005 0.0
C77 C 0.15698 0.35658 0.37378 0.0
C78 C 0.16006 0.38713 0.45194 0.0
C79 C 0.11239 0.33517 0.43201 0.0
O80 O 0.11921 0.34948 0.41768 0.0
O81 O 0.12353 0.3257 0.44644 0.0
O82 O 0.14592 0.37315 0.38089 0.0
O83 O 0.16323 0.34162 0.38835 0.0
O84 O 0.85174 0.3693 0.04346 0.0
Cd85 Cd 0.8571 0.33517 0.05267 0.0
Cd86 Cd 0.86161 0.35587 0.09532 0.0
O87 O 0.85218 0.38484 0.07739 0.0
O88 O 0.84602 0.31579 0.02795 0.0
O89 O 0.83455 0.31521 0.06266 0.0
C90 C 0.83329 0.30816 0.04207 0.0
C91 C 0.85241 0.35337 0.13329 0.0
C92 C 0.84979 0.38691 0.05628 0.0
C93 C 0.89648 0.33171 0.07337 0.0
O94 O 0.88941 0.34362 0.08946 0.0
O95 O 0.8859 0.32566 0.05686 0.0
O96 O 0.86427 0.36907 0.12616 0.0
O97 O 0.84517 0.33914 0.11869 0.0
O98 O 0.15509 0.6299 0.54533 0.0
Cd99 Cd 0.1503 0.66421 0.555 0.0
Cd100 Cd 0.14519 0.64241 0.59667 0.0
O101 O 0.15524 0.61376 0.57904 0.0
O102 O 0.16182 0.68396 0.53077 0.0
O103 O 0.17336 0.68304 0.56545 0.0
C104 C 0.17472 0.69073 0.54507 0.0
C105 C 0.15317 0.64553 0.63491 0.0
C106 C 0.15733 0.61207 0.55786 0.0
C107 C 0.11061 0.66693 0.57451 0.0
O108 O 0.11738 0.65365 0.58973 0.0
O109 O 0.12169 0.67483 0.55918 0.0
O110 O 0.14115 0.63009 0.62764 0.0
O111 O 0.16144 0.65893 0.62031 0.0
O112 O 0.65175 0.82426 0.11956 0.0
Cd113 Cd 0.64532 0.8206 0.08574 0.0
Cd114 Cd 0.63883 0.86738 0.0876 0.0
O115 O 0.64844 0.86262 0.12018 0.0
O116 O 0.65829 0.79164 0.07451 0.0
O117 O 0.66637 0.82719 0.06312 0.0
C118 C 0.66923 0.80485 0.0623 0.0
C119 C 0.65008 0.8997 0.06725 0.0
C120 C 0.65236 0.84353 0.13019 0.0
C121 C 0.60463 0.83648 0.07625 0.0
O122 O 0.61085 0.85698 0.08031 0.0
O123 O 0.6162 0.81913 0.07684 0.0
O124 O 0.6383 0.90206 0.0839 0.0
O125 O 0.65591 0.87886 0.0623 0.0
O126 O 0.35725 0.18102 0.6237 0.0
Cd127 Cd 0.36354 0.18395 0.58969 0.0
Cd128 Cd 0.37006 0.13709 0.59268 0.0
O129 O 0.36088 0.14268 0.62527 0.0
O130 O 0.35005 0.21189 0.57695 0.0
O131 O 0.34245 0.17545 0.56781 0.0
C132 C 0.33929 0.19763 0.56566 0.0
C133 C 0.36008 0.1031 0.57392 0.0
C134 C 0.35688 0.162 0.63482 0.0
C135 C 0.4041 0.16813 0.58017 0.0
O136 O 0.39778 0.14782 0.58477 0.0
O137 O 0.39262 0.18556 0.58037 0.0
O138 O 0.37248 0.10245 0.59009 0.0
O139 O 0.3527 0.12315 0.56872 0.0
O140 O 0.65237 0.18118 0.88049 0.0
Cd141 Cd 0.64509 0.18373 0.91418 0.0
Cd142 Cd 0.64 0.13698 0.91081 0.0
O143 O 0.65116 0.14269 0.87904 0.0
O144 O 0.65807 0.21222 0.92636 0.0
O145 O 0.66541 0.1763 0.93737 0.0
C146 C 0.66861 0.19855 0.9386 0.0
C147 C 0.6508 0.10444 0.93115 0.0
C148 C 0.65443 0.16223 0.86956 0.0
C149 C 0.60461 0.16658 0.92124 0.0
O150 O 0.61149 0.14655 0.9164 0.0
O151 O 0.61577 0.18428 0.92229 0.0
O152 O 0.64007 0.1022 0.91357 0.0
O153 O 0.65579 0.12529 0.93712 0.0
O154 O 0.35648 0.82139 0.38604 0.0
Cd155 Cd 0.36318 0.81896 0.41994 0.0
Cd156 Cd 0.36892 0.86556 0.4154 0.0
O157 O 0.35733 0.85989 0.38388 0.0
O158 O 0.35064 0.78999 0.43174 0.0
O159 O 0.34213 0.82558 0.44258 0.0
C160 C 0.33954 0.80322 0.44375 0.0
C161 C 0.35951 0.89888 0.43559 0.0
C162 C 0.35425 0.84012 0.37477 0.0
C163 C 0.40384 0.83516 0.42626 0.0
O164 O 0.39729 0.85506 0.42049 0.0
O165 O 0.39235 0.81791 0.42853 0.0
O166 O 0.37077 0.90021 0.41835 0.0
O167 O 0.353 0.8785 0.44114 0.0
O168 O 0.35236 0.13236 0.96403 0.0
Cd169 Cd 0.35706 0.16599 0.95218 0.0
Cd170 Cd 0.36052 0.14209 0.91268 0.0
O171 O 0.34836 0.11532 0.93113 0.0
O172 O 0.34646 0.18719 0.97583 0.0
O173 O 0.33369 0.18434 0.94185 0.0
C174 C 0.33302 0.19311 0.96185 0.0
C175 C 0.35223 0.14647 0.87462 0.0
C176 C 0.348 0.1144 0.95247 0.0
C177 C 0.39649 0.16453 0.9326 0.0
O178 O 0.38924 0.14949 0.91933 0.0
O179 O 0.38565 0.17575 0.94614 0.0
O180 O 0.36221 0.12894 0.88173 0.0
O181 O 0.34616 0.16136 0.88935 0.0
O182 O 0.65641 0.87186 0.46029 0.0
Cd183 Cd 0.65124 0.83805 0.44941 0.0
Cd184 Cd 0.64626 0.86155 0.40869 0.0
O185 O 0.65725 0.8891 0.42713 0.0
O186 O 0.66186 0.81758 0.47364 0.0
O187 O 0.67429 0.81887 0.43941 0.0
C188 C 0.67506 0.81083 0.4597 0.0
C189 C 0.65477 0.85869 0.37055 0.0
C190 C 0.65918 0.89002 0.44836 0.0
C191 C 0.61134 0.8374 0.42991 0.0
O192 O 0.61807 0.85154 0.41537 0.0
O193 O 0.62252 0.82823 0.44447 0.0
O194 O 0.64383 0.87521 0.37798 0.0
O195 O 0.6615 0.84387 0.38496 0.0
O196 O 0.35183 0.87183 0.04722 0.0
Cd197 Cd 0.35705 0.83761 0.05658 0.0
Cd198 Cd 0.36365 0.85935 0.09817 0.0
O199 O 0.35433 0.88848 0.08056 0.0
O200 O 0.34564 0.81826 0.03202 0.0
O201 O 0.33428 0.81805 0.06677 0.0
C202 C 0.33292 0.81086 0.04624 0.0
C203 C 0.35481 0.85573 0.13611 0.0
C204 C 0.35093 0.88992 0.0596 0.0
C205 C 0.39727 0.83398 0.07523 0.0
O206 O 0.39108 0.84675 0.09118 0.0
O207 O 0.38581 0.82735 0.05974 0.0
O208 O 0.3672 0.87108 0.12944 0.0
O209 O 0.34677 0.84269 0.12104 0.0
O210 O 0.65614 0.13286 0.54198 0.0
Cd211 Cd 0.65113 0.1666 0.55332 0.0
Cd212 Cd 0.64647 0.14358 0.59337 0.0
O213 O 0.65797 0.11611 0.57528 0.0
O214 O 0.66205 0.18754 0.52965 0.0
O215 O 0.67423 0.18524 0.56396 0.0
C216 C 0.67519 0.19378 0.54387 0.0
C217 C 0.65622 0.14831 0.63085 0.0
C218 C 0.65945 0.11492 0.55402 0.0
C219 C 0.61119 0.16671 0.5726 0.0
O220 O 0.61792 0.15228 0.58687 0.0
O221 O 0.62244 0.17647 0.55845 0.0
O222 O 0.64553 0.13103 0.62462 0.0
O223 O 0.66182 0.16294 0.61563 0.0
H224 H 0.07807 0.36727 0.0654 0.0
H225 H 0.04297 0.36256 0.06215 0.0
H226 H 0.04796 0.29084 0.08395 0.0
H227 H 0.08329 0.29521 0.08641 0.0
H228 H 0.02039 0.2938 0.05362 0.0
H229 H 0.03556 0.33518 0.12107 0.0
H230 H 0.05064 0.36597 0.14423 0.0
H231 H 0.01909 0.41857 0.10786 0.0
H232 H 1.00402 0.38809 0.08428 0.0
H233 H 0.92041 0.3293 0.10971 0.0
H234 H 0.95562 0.32474 0.10999 0.0
H235 H 0.95563 0.31888 0.03767 0.0
H236 H 0.9202 0.32244 0.03743 0.0
H237 H 0.98099 0.35229 0.09502 0.0
H238 H 0.99617 0.29098 0.01911 0.0
H239 H 0.98118 0.25712 1.00018 0.0
H240 H 0.95168 0.2386 0.06122 0.0
H241 H 0.96668 0.27215 0.08059 0.0
C242 C 0.07174 0.3504 0.06927 0.0
C243 C 0.08345 0.33168 0.07642 0.0
C244 C 0.05163 0.34775 0.06748 0.0
C245 C 0.04272 0.32651 0.07334 0.0
C246 C 0.05447 0.30744 0.07944 0.0
C247 C 0.07467 0.30997 0.08089 0.0
C248 C 0.02116 0.32471 0.07428 0.0
C249 C 0.01175 0.30658 0.06266 0.0
C250 C 0.00984 0.34099 0.08656 0.0
C251 C 0.0188 0.35937 0.10078 0.0
C252 C 0.03194 0.35332 0.11792 0.0
C253 C 0.04047 0.37072 0.13113 0.0
C254 C 0.03586 0.39421 0.12749 0.0
C255 C 0.02267 0.40036 0.11065 0.0
C256 C 0.01411 0.38304 0.09737 0.0
C257 C 0.92788 0.32665 0.09388 0.0
C258 C 0.91752 0.32628 0.07354 0.0
C259 C 0.94804 0.32411 0.09405 0.0
C260 C 0.9584 0.32146 0.07387 0.0
C261 C 0.94803 0.32048 0.05353 0.0
C262 C 0.92775 0.3226 0.05339 0.0
C263 C 0.98006 0.3215 0.07414 0.0
C264 C 0.98954 0.33941 0.08598 0.0
C265 C 0.99137 0.30458 0.06266 0.0
C266 C 0.9824 0.28423 0.05122 0.0
C267 C 0.98654 0.27963 0.02851 0.0
C268 C 0.97803 0.2605 0.0177 0.0
C269 C 0.96543 0.24577 0.02947 0.0
C270 C 0.96137 0.25008 0.0521 0.0
C271 C 0.96985 0.26918 0.06299 0.0
H272 H 0.95886 0.23097 0.02107 0.0
H273 H 0.04248 0.40765 0.13773 0.0
H274 H 0.93246 0.63943 0.59525 0.0
H275 H 0.96739 0.64553 0.59188 0.0
H276 H 0.95738 0.7113 0.55841 0.0
H277 H 0.92213 0.70554 0.56202 0.0
H278 H 0.98754 0.67918 0.53837 0.0
H279 H 0.97011 0.71737 0.6074 0.0
H280 H 0.95387 0.72031 0.64423 0.0
H281 H 0.98642 0.6613 0.66822 0.0
H282 H 1.00264 0.65777 0.63141 0.0
H283 H 0.09045 0.69889 0.5487 0.0
H284 H 0.05523 0.70557 0.54827 0.0
H285 H 0.04788 0.65208 0.59876 0.0
H286 H 0.08273 0.64602 0.59987 0.0
H287 H 0.02569 0.68634 0.60873 0.0
H288 H 0.0392 0.64366 0.54008 0.0
H289 H 0.05471 0.63736 0.5032 0.0
H290 H 0.02941 0.70104 0.47851 0.0
H291 H 0.01393 0.70784 0.51536 0.0
C292 C 0.9376 0.65516 0.58703 0.0
C293 C 0.92446 0.67205 0.57898 0.0
C294 C 0.95759 0.65862 0.58516 0.0
C295 C 0.96493 0.67891 0.57501 0.0
C296 C 0.95195 0.69553 0.56631 0.0
C297 C 0.93185 0.69224 0.56846 0.0
C298 C 0.98621 0.68274 0.57432 0.0
C299 C 0.99593 0.68126 0.55366 0.0
C300 C 0.99707 0.68501 0.59434 0.0
C301 C 0.98749 0.68722 0.61658 0.0
C302 C 0.9737 0.70491 0.62047 0.0
C303 C 0.96452 0.7067 0.64136 0.0
C304 C 0.96909 0.69098 0.65854 0.0
C305 C 0.98289 0.67347 0.65489 0.0
C306 C 0.9921 0.67158 0.63403 0.0
C307 C 0.0813 0.68869 0.55978 0.0
C308 C 0.08945 0.67193 0.57432 0.0
C309 C 0.06115 0.69242 0.55944 0.0
C310 C 0.04879 0.67916 0.57333 0.0
C311 C 0.05702 0.66265 0.58796 0.0
C312 C 0.07704 0.65915 0.58852 0.0
C313 C 0.02728 0.68195 0.57279 0.0
C314 C 0.01742 0.68471 0.5933 0.0
C315 C 0.01634 0.68048 0.55265 0.0
C316 C 0.02563 0.6764 0.53053 0.0
C317 C 0.03708 0.6564 0.52683 0.0
C318 C 0.04584 0.65272 0.50593 0.0
C319 C 0.04311 0.66883 0.48855 0.0
C320 C 0.03156 0.68861 0.49201 0.0
C321 C 0.02278 0.69238 0.51289 0.0
H322 H 0.0499 0.66595 0.47238 0.0
H323 H 0.96196 0.6924 0.6747 0.0
H324 H 0.92515 0.63882 0.91014 0.0
H325 H 0.96024 0.64304 0.91314 0.0
H326 H 0.95284 0.70167 0.95782 0.0
H327 H 0.91736 0.69736 0.95525 0.0
H328 H 0.98245 0.70628 0.92023 0.0
H329 H 0.96481 0.65749 0.98267 0.0
H330 H 0.9479 0.62463 1.00102 0.0
H331 H 0.97799 0.57596 0.95849 0.0
H332 H 0.99486 0.60857 0.93963 0.0
H333 H 0.0845 0.70221 0.94351 0.0
H334 H 0.04926 0.70542 0.94811 0.0
H335 H 0.04224 0.63628 0.92026 0.0
H336 H 0.07732 0.63269 0.91623 0.0
H337 H 0.01933 0.64085 0.95463 0.0
H338 H 0.03391 0.6878 0.88942 0.0
H339 H 0.04998 0.71951 0.86836 0.0
H340 H 0.02532 0.77035 0.91316 0.0
H341 H 0.0093 0.73888 0.93467 0.0
C342 C 0.93087 0.65277 0.9205 0.0
C343 C 0.91839 0.66773 0.93252 0.0
C344 C 0.95097 0.65509 0.92222 0.0
C345 C 0.95909 0.67255 0.93579 0.0
C346 C 0.94679 0.68807 0.94727 0.0
C347 C 0.92656 0.68554 0.94583 0.0
C348 C 0.98048 0.67377 0.93828 0.0
C349 C 0.99057 0.69228 0.92818 0.0
C350 C 0.99098 0.65519 0.94819 0.0
C351 C 0.98099 0.6355 0.95962 0.0
C352 C 0.9677 0.63979 0.9771 0.0
C353 C 0.95815 0.62121 0.98762 0.0
C354 C 0.96184 0.59822 0.9809 0.0
C355 C 0.97514 0.59377 0.96367 0.0
C356 C 0.98471 0.6123 0.95308 0.0
C357 C 0.07545 0.68765 0.93845 0.0
C358 C 0.08377 0.6672 0.92945 0.0
C359 C 0.05528 0.68956 0.94098 0.0
C360 C 0.04302 0.6712 0.93428 0.0
C361 C 0.05135 0.65068 0.9256 0.0
C362 C 0.07146 0.64868 0.92325 0.0
C363 C 0.02151 0.67314 0.93611 0.0
C364 C 0.01132 0.65514 0.94701 0.0
C365 C 0.01096 0.69206 0.92668 0.0
C366 C 0.02062 0.71098 0.91381 0.0
C367 C 0.03205 0.70573 0.89489 0.0
C368 C 0.04112 0.72366 0.88285 0.0
C369 C 0.03873 0.74692 0.88946 0.0
C370 C 0.0272 0.75231 0.90809 0.0
C371 C 0.01812 0.73444 0.92021 0.0
H372 H 0.04575 0.76078 0.88012 0.0
H373 H 0.95443 0.58385 0.98906 0.0
H374 H 0.09204 0.30245 0.45663 0.0
H375 H 0.05656 0.29818 0.45917 0.0
H376 H 0.04933 0.35471 0.41196 0.0
H377 H 0.08442 0.35888 0.40903 0.0
H378 H 0.02772 0.35907 0.45331 0.0
H379 H 0.04191 0.30259 0.39405 0.0
H380 H 0.05777 0.26721 0.37906 0.0
H381 H 0.03084 0.22565 0.43047 0.0
H382 H 0.01502 0.26089 0.44596 0.0
H383 H 0.93361 0.36633 0.41338 0.0
H384 H 0.9684 0.36179 0.41833 0.0
H385 H 0.95926 0.29555 0.45144 0.0
H386 H 0.92408 0.29959 0.44567 0.0
H387 H 0.98928 0.29206 0.42466 0.0
H388 H 0.97185 0.34597 0.48157 0.0
H389 H 0.9561 0.38048 0.49846 0.0
H390 H 0.98934 0.42572 0.4556 0.0
H391 H 0.0051 0.39148 0.43821 0.0
C392 C 0.08288 0.3138 0.44663 0.0
C393 C 0.09111 0.33103 0.43265 0.0
C394 C 0.06264 0.31132 0.4481 0.0
C395 C 0.05037 0.3262 0.43581 0.0
C396 C 0.05856 0.34312 0.42164 0.0
C397 C 0.07867 0.34539 0.41994 0.0
C398 C 0.02895 0.32502 0.43805 0.0
C399 C 0.01927 0.34448 0.44699 0.0
C400 C 0.01803 0.30554 0.4307 0.0
C401 C 0.02749 0.2844 0.42133 0.0
C402 C 0.03952 0.28595 0.40229 0.0
C403 C 0.04847 0.26591 0.39367 0.0
C404 C 0.04537 0.24421 0.40385 0.0
C405 C 0.03326 0.24248 0.42263 0.0
C406 C 0.0243 0.26248 0.43133 0.0
C407 C 0.93891 0.35081 0.42184 0.0
C408 C 0.92601 0.33342 0.42933 0.0
C409 C 0.95888 0.34829 0.42477 0.0
C410 C 0.96652 0.32861 0.43579 0.0
C411 C 0.95373 0.31099 0.44305 0.0
C412 C 0.93363 0.31334 0.4398 0.0
C413 C 0.9879 0.32659 0.43916 0.0
C414 C 0.99762 0.30653 0.43139 0.0
C415 C 0.99893 0.3454 0.44798 0.0
C416 C 0.98959 0.36611 0.4585 0.0
C417 C 0.97572 0.36327 0.47565 0.0
C418 C 0.9668 0.38279 0.48533 0.0
C419 C 0.97169 0.40527 0.47809 0.0
C420 C 0.98556 0.40829 0.46119 0.0
C421 C 0.99452 0.38883 0.45144 0.0
H422 H 0.96476 0.42036 0.4856 0.0
H423 H 0.0523 0.22871 0.39715 0.0
H424 H 0.42463 0.84199 0.10745 0.0
H425 H 0.45966 0.83702 0.10449 0.0
H426 H 0.45292 0.80816 0.03801 0.0
H427 H 0.41764 0.81338 0.0407 0.0
H428 H 0.484 0.80132 0.09874 0.0
H429 H 0.49139 0.82823 0.00599 0.0
H430 H 0.47354 0.85077 0.97724 0.0
H431 H 0.4476 0.89299 0.02883 0.0
H432 H 0.46548 0.8709 0.05782 0.0
H433 H 0.58485 0.79496 0.07187 0.0
H434 H 0.5497 0.78954 0.06813 0.0
H435 H 0.54168 0.86435 0.06774 0.0
H436 H 0.57664 0.86993 0.0712 0.0
H437 H 0.51804 0.84415 0.03783 0.0
H438 H 0.53554 0.8329 0.11566 0.0
H439 H 0.55324 0.81453 0.14708 0.0
H440 H 0.52914 0.7477 0.12969 0.0
H441 H 0.51148 0.76565 0.09798 0.0
C442 C 0.43051 0.83436 0.09224 0.0
C443 C 0.41829 0.82829 0.07421 0.0
C444 C 0.45058 0.83143 0.09063 0.0
C445 C 0.45896 0.82245 0.07095 0.0
C446 C 0.44679 0.81538 0.05326 0.0
C447 C 0.42662 0.81829 0.05486 0.0
C448 C 0.48047 0.82195 0.06872 0.0
C449 C 0.49144 0.81043 0.08525 0.0
C450 C 0.49022 0.83413 0.05133 0.0
C451 C 0.47958 0.84771 0.03405 0.0
C452 C 0.48191 0.84235 0.01116 0.0
C453 C 0.47179 0.85505 0.99484 0.0
C454 C 0.45939 0.87323 1.00121 0.0
C455 C 0.45715 0.87883 0.02392 0.0
C456 C 0.46725 0.86622 0.0403 0.0
C457 C 0.57562 0.81026 0.07073 0.0
C458 C 0.58359 0.83289 0.07202 0.0
C459 C 0.55553 0.80712 0.06866 0.0
C460 C 0.54302 0.82654 0.06789 0.0
C461 C 0.55102 0.8491 0.06828 0.0
C462 C 0.57104 0.85225 0.07038 0.0
C463 C 0.52157 0.82362 0.06792 0.0
C464 C 0.51062 0.83454 0.051 0.0
C465 C 0.51181 0.81136 0.08525 0.0
C466 C 0.52239 0.80056 0.1043 0.0
C467 C 0.53415 0.81426 0.11843 0.0
C468 C 0.54415 0.80393 0.13631 0.0
C469 C 0.54237 0.77995 0.14033 0.0
C470 C 0.53054 0.76626 0.12652 0.0
C471 C 0.52053 0.7765 0.1086 0.0
H472 H 0.55012 0.77198 0.15418 0.0
H473 H 0.45155 0.88302 0.98855 0.0
H474 H 0.5915 0.20359 0.55344 0.0
H475 H 0.55607 0.2089 0.55119 0.0
H476 H 0.54768 0.14394 0.58665 0.0
H477 H 0.58277 0.13881 0.58952 0.0
H478 H 0.52622 0.15127 0.54269 0.0
H479 H 0.54052 0.18633 0.61578 0.0
H480 H 0.55703 0.21486 0.64025 0.0
H481 H 0.5324 0.27141 0.60224 0.0
H482 H 0.51597 0.24315 0.57731 0.0
H483 H 0.43241 0.13489 0.58204 0.0
H484 H 0.46711 0.13969 0.57655 0.0
H485 H 0.45873 0.21298 0.56224 0.0
H486 H 0.42366 0.20841 0.56837 0.0
H487 H 0.48892 0.20756 0.58925 0.0
H488 H 0.47044 0.17403 0.5199 0.0
H489 H 0.45407 0.14676 0.49404 0.0
H490 H 0.48666 0.08948 0.52156 0.0
H491 H 0.50303 0.11635 0.54783 0.0
C492 C 0.58208 0.19055 0.56087 0.0
C493 C 0.58995 0.17081 0.57171 0.0
C494 C 0.56189 0.19361 0.55958 0.0
C495 C 0.54934 0.17676 0.56872 0.0
C496 C 0.55716 0.1571 0.57948 0.0
C497 C 0.57723 0.15428 0.58119 0.0
C498 C 0.52798 0.1791 0.56688 0.0
C499 C 0.518 0.16352 0.55287 0.0
C500 C 0.51742 0.19571 0.57951 0.0
C501 C 0.52725 0.21265 0.5945 0.0
C502 C 0.53881 0.20484 0.61248 0.0
C503 C 0.5481 0.22096 0.62647 0.0
C504 C 0.54583 0.24494 0.62275 0.0
C505 C 0.53419 0.25284 0.60507 0.0
C506 C 0.52488 0.23678 0.59101 0.0
C507 C 0.43782 0.15205 0.57756 0.0
C508 C 0.42515 0.17125 0.57555 0.0
C509 C 0.45774 0.15474 0.57429 0.0
C510 C 0.46557 0.17661 0.56856 0.0
C511 C 0.45303 0.1959 0.56653 0.0
C512 C 0.43298 0.19324 0.56996 0.0
C513 C 0.48695 0.1791 0.56557 0.0
C514 C 0.49701 0.19558 0.57865 0.0
C515 C 0.49764 0.16351 0.55177 0.0
C516 C 0.48789 0.14722 0.53594 0.0
C517 C 0.47403 0.1556 0.52055 0.0
C518 C 0.46476 0.14021 0.5058 0.0
C519 C 0.46931 0.1164 0.50618 0.0
C520 C 0.48316 0.10793 0.52128 0.0
C521 C 0.49246 0.12324 0.53608 0.0
H522 H 0.46211 0.10451 0.49474 0.0
H523 H 0.55303 0.25739 0.63361 0.0
H524 H 0.58393 0.20642 0.93159 0.0
H525 H 0.54854 0.21045 0.93468 0.0
H526 H 0.54193 0.13673 0.92148 0.0
H527 H 0.577 0.13254 0.91833 0.0
H528 H 0.51844 0.16332 0.89503 0.0
H529 H 0.53581 0.15844 0.97379 0.0
H530 H 0.55283 0.17107 0.00816 0.0
H531 H 0.5256 0.23849 0.00375 0.0
H532 H 0.50861 0.22634 0.96916 0.0
H533 H 0.42377 0.13252 0.92134 0.0
H534 H 0.45885 0.13713 0.92077 0.0
H535 H 0.45281 0.20871 0.94271 0.0
H536 H 0.41736 0.20367 0.94452 0.0
H537 H 0.48272 0.18989 0.96278 0.0
H538 H 0.46256 0.19303 0.88577 0.0
H539 H 0.44522 0.17956 0.85188 0.0
H540 H 0.47794 0.11562 0.85248 0.0
H541 H 0.49525 0.12852 0.88652 0.0
C542 C 0.57494 0.19104 0.92952 0.0
C543 C 0.58335 0.16917 0.92463 0.0
C544 C 0.55472 0.19337 0.93134 0.0
C545 C 0.5426 0.17388 0.9283 0.0
C546 C 0.55099 0.15203 0.92379 0.0
C547 C 0.5711 0.14967 0.92206 0.0
C548 C 0.5211 0.17605 0.9289 0.0
C549 C 0.51061 0.16902 0.90988 0.0
C550 C 0.51092 0.18429 0.94798 0.0
C551 C 0.52114 0.19158 0.96874 0.0
C552 C 0.5336 0.17603 0.98003 0.0
C553 C 0.54321 0.18308 0.99958 0.0
C554 C 0.54035 0.20559 0.00809 0.0
C555 C 0.52783 0.22108 0.99711 0.0
C556 C 0.51821 0.21411 0.97754 0.0
C557 C 0.42987 0.14929 0.92602 0.0
C558 C 0.4178 0.16785 0.93269 0.0
C559 C 0.44997 0.15196 0.92557 0.0
C560 C 0.45854 0.17351 0.93099 0.0
C561 C 0.44656 0.19198 0.93821 0.0
C562 C 0.42633 0.18912 0.9392 0.0
C563 C 0.47998 0.1764 0.9291 0.0
C564 C 0.49049 0.18452 0.94778 0.0
C565 C 0.49025 0.16923 0.90962 0.0
C566 C 0.48014 0.16171 0.88879 0.0
C567 C 0.46601 0.17607 0.87872 0.0
C568 C 0.45618 0.16852 0.85948 0.0
C569 C 0.46046 0.14673 0.85007 0.0
C570 C 0.47464 0.13249 0.85979 0.0
C571 C 0.48449 0.13993 0.87903 0.0
H572 H 0.4528 0.14083 0.83526 0.0
H573 H 0.5478 0.21102 0.02323 0.0
H574 H 0.42354 0.79806 0.44513 0.0
H575 H 0.45892 0.7928 0.44757 0.0
H576 H 0.46743 0.85954 0.41533 0.0
H577 H 0.43239 0.86514 0.41315 0.0
H578 H 0.4887 0.82095 0.39595 0.0
H579 H 0.47448 0.85687 0.46849 0.0
H580 H 0.45834 0.85837 0.50546 0.0
H581 H 0.4838 0.79234 0.52324 0.0
H582 H 0.49989 0.79031 0.48622 0.0
H583 H 0.58316 0.86073 0.407 0.0
H584 H 0.54833 0.85437 0.40795 0.0
H585 H 0.5562 0.79681 0.45398 0.0
H586 H 0.59142 0.80368 0.45373 0.0
H587 H 0.52642 0.82197 0.46696 0.0
H588 H 0.54413 0.78749 0.39768 0.0
H589 H 0.56028 0.78406 0.36084 0.0
H590 H 0.52812 0.84318 0.33643 0.0
H591 H 0.51197 0.8472 0.37322 0.0
C592 C 0.43297 0.81167 0.43871 0.0
C593 C 0.42512 0.83203 0.42895 0.0
C594 C 0.45315 0.80864 0.44014 0.0
C595 C 0.46575 0.82577 0.43157 0.0
C596 C 0.45794 0.84609 0.42197 0.0
C597 C 0.43788 0.84929 0.42084 0.0
C598 C 0.48712 0.82265 0.43201 0.0
C599 C 0.497 0.82124 0.41145 0.0
C600 C 0.49782 0.82201 0.45227 0.0
C601 C 0.48817 0.82329 0.47449 0.0
C602 C 0.47648 0.84256 0.4802 0.0
C603 C 0.46737 0.84354 0.50118 0.0
C604 C 0.46998 0.82542 0.51666 0.0
C605 C 0.48175 0.80633 0.51121 0.0
C606 C 0.49087 0.80526 0.49024 0.0
C607 C 0.5776 0.84657 0.41724 0.0
C608 C 0.59016 0.83259 0.43016 0.0
C609 C 0.5576 0.84287 0.41768 0.0
C610 C 0.54959 0.82476 0.43063 0.0
C611 C 0.56203 0.8108 0.44372 0.0
C612 C 0.58215 0.8147 0.44351 0.0
C613 C 0.52816 0.82115 0.43078 0.0
C614 C 0.51822 0.82121 0.45142 0.0
C615 C 0.51734 0.82013 0.41055 0.0
C616 C 0.52691 0.81771 0.38828 0.0
C617 C 0.54058 0.79985 0.3845 0.0
C618 C 0.54973 0.79779 0.36362 0.0
C619 C 0.54525 0.81341 0.34632 0.0
C620 C 0.53158 0.83109 0.34985 0.0
C621 C 0.52239 0.83325 0.37071 0.0
H622 H 0.55236 0.81179 0.33017 0.0
H623 H 0.46293 0.82622 0.5329 0.0
H624 H 0.14964 0.38012 0.16325 0.0
H625 H 0.15519 0.38023 0.20367 0.0
H626 H 0.17188 0.30754 0.20106 0.0
H627 H 0.1658 0.30711 0.16053 0.0
H628 H 0.14812 0.31418 0.23472 0.0
H629 H 0.2058 0.35213 0.20994 0.0
H630 H 0.22553 0.38067 0.18887 0.0
H631 H 0.19763 0.43716 0.22378 0.0
H632 H 0.17754 0.40898 0.24486 0.0
H633 H 0.17335 0.31942 0.35143 0.0
H634 H 0.17755 0.3151 0.31066 0.0
H635 H 0.15451 0.38448 0.30065 0.0
H636 H 0.15032 0.38892 0.34112 0.0
H637 H 0.18596 0.37592 0.27355 0.0
H638 H 0.12576 0.33759 0.29444 0.0
H639 H 0.10596 0.30896 0.31532 0.0
H640 H 0.13951 0.2527 0.2874 0.0
H641 H 0.15968 0.28105 0.26658 0.0
C642 C 0.15467 0.36418 0.17118 0.0
C643 C 0.1573 0.34361 0.15858 0.0
C644 C 0.15795 0.3643 0.19435 0.0
C645 C 0.16425 0.34398 0.20545 0.0
C646 C 0.16708 0.32346 0.19289 0.0
C647 C 0.16365 0.32326 0.1697 0.0
C648 C 0.16689 0.34399 0.23029 0.0
C649 C 0.15676 0.32738 0.24315 0.0
C650 C 0.17792 0.36139 0.24143 0.0
C651 C 0.19007 0.37842 0.22888 0.0
C652 C 0.20378 0.37064 0.21303 0.0
C653 C 0.21504 0.38676 0.20109 0.0
C654 C 0.21281 0.41071 0.20495 0.0
C655 C 0.19934 0.4186 0.2208 0.0
C656 C 0.18803 0.40256 0.23277 0.0
C657 C 0.16941 0.33384 0.34054 0.0
C658 C 0.1614 0.35446 0.34949 0.0
C659 C 0.17175 0.33132 0.31726 0.0
C660 C 0.16617 0.3494 0.3026 0.0
C661 C 0.15891 0.37031 0.31162 0.0
C662 C 0.15646 0.37277 0.33478 0.0
C663 C 0.16694 0.3464 0.27782 0.0
C664 C 0.17765 0.36248 0.26501 0.0
C665 C 0.15652 0.32847 0.26673 0.0
C666 C 0.14438 0.31144 0.27919 0.0
C667 C 0.12902 0.31912 0.29291 0.0
C668 C 0.1177 0.30295 0.30471 0.0
C669 C 0.12151 0.27903 0.30275 0.0
C670 C 0.1366 0.27123 0.28894 0.0
C671 C 0.14798 0.28734 0.27714 0.0
H672 H 0.11273 0.26653 0.31189 0.0
H673 H 0.22154 0.42316 0.19569 0.0
H674 H 0.84168 0.62866 0.66178 0.0
H675 H 0.83707 0.62982 0.70249 0.0
H676 H 0.85119 0.70328 0.70286 0.0
H677 H 0.85571 0.70234 0.66204 0.0
H678 H 0.8726 0.67777 0.73349 0.0
H679 H 0.806 0.68783 0.71359 0.0
H680 H 0.77546 0.67879 0.69383 0.0
H681 H 0.77353 0.61137 0.72554 0.0
H682 H 0.80422 0.61986 0.74526 0.0
H683 H 0.82813 0.67548 0.85284 0.0
H684 H 0.82425 0.68283 0.81237 0.0
H685 H 0.86605 0.62875 0.7979 0.0
H686 H 0.86985 0.62112 0.83797 0.0
H687 H 0.81412 0.65141 0.7752 0.0
H688 H 0.89662 0.65201 0.75805 0.0
H689 H 0.92707 0.66144 0.77789 0.0
H690 H 0.8965 0.70998 0.8201 0.0
H691 H 0.86594 0.7011 0.8003 0.0
C692 C 0.84355 0.64516 0.67045 0.0
C693 C 0.84912 0.6654 0.65864 0.0
C694 C 0.84083 0.6458 0.69372 0.0
C695 C 0.84372 0.66665 0.70569 0.0
C696 C 0.84884 0.68702 0.69392 0.0
C697 C 0.85136 0.68645 0.67059 0.0
C698 C 0.84282 0.66668 0.73063 0.0
C699 C 0.85975 0.67219 0.74259 0.0
C700 C 0.82601 0.65959 0.74253 0.0
C701 C 0.8075 0.65443 0.73079 0.0
C702 C 0.79915 0.671 0.71622 0.0
C703 C 0.78179 0.66599 0.70505 0.0
C704 C 0.77258 0.6445 0.70839 0.0
C705 C 0.78069 0.628 0.72296 0.0
C706 C 0.79805 0.63292 0.73416 0.0
C707 C 0.83632 0.665 0.841 0.0
C708 C 0.84934 0.64777 0.84864 0.0
C709 C 0.83406 0.66919 0.81792 0.0
C710 C 0.845 0.65646 0.80221 0.0
C711 C 0.85759 0.63887 0.80978 0.0
C712 C 0.8597 0.63452 0.83272 0.0
C713 C 0.84403 0.66194 0.77787 0.0
C714 C 0.82684 0.65731 0.76605 0.0
C715 C 0.86058 0.66993 0.76605 0.0
C716 C 0.87896 0.67573 0.7778 0.0
C717 C 0.89642 0.66478 0.77149 0.0
C718 C 0.91369 0.67002 0.78274 0.0
C719 C 0.91371 0.68625 0.80029 0.0
C720 C 0.89646 0.69735 0.80656 0.0
C721 C 0.87915 0.69219 0.79535 0.0
H722 H 0.9271 0.69026 0.80899 0.0
H723 H 0.75914 0.64065 0.69973 0.0
H724 H 0.14381 0.69653 0.8442 0.0
H725 H 0.1474 0.69461 0.80338 0.0
H726 H 0.18199 0.63202 0.81017 0.0
H727 H 0.17742 0.63315 0.85091 0.0
H728 H 0.1732 0.69577 0.77281 0.0
H729 H 0.17369 0.59453 0.76845 0.0
H730 H 0.1619 0.56071 0.79034 0.0
H731 H 0.11683 0.60316 0.81908 0.0
H732 H 0.1282 0.63712 0.79717 0.0
H733 H 0.18438 0.66519 0.65674 0.0
H734 H 0.18891 0.66916 0.69749 0.0
H735 H 0.13279 0.63747 0.70854 0.0
H736 H 0.12884 0.63228 0.66828 0.0
H737 H 0.15485 0.62066 0.73704 0.0
H738 H 0.14302 0.69953 0.71268 0.0
H739 H 0.14873 0.73547 0.69073 0.0
H740 H 0.20587 0.74145 0.71901 0.0
H741 H 0.20057 0.70537 0.74094 0.0
C742 C 0.15237 0.68252 0.83699 0.0
C743 C 0.16011 0.66481 0.8507 0.0
C744 C 0.15447 0.68146 0.81362 0.0
C745 C 0.16459 0.66286 0.80355 0.0
C746 C 0.1736 0.64616 0.81742 0.0
C747 C 0.17109 0.64688 0.84072 0.0
C748 C 0.16452 0.66008 0.77863 0.0
C749 C 0.16926 0.67932 0.76499 0.0
C750 C 0.159 0.63878 0.76828 0.0
C751 C 0.15196 0.61841 0.78139 0.0
C752 C 0.16124 0.59661 0.77941 0.0
C753 C 0.15463 0.57743 0.79182 0.0
C754 C 0.13868 0.57981 0.80616 0.0
C755 C 0.12924 0.60136 0.80804 0.0
C756 C 0.13576 0.62058 0.79565 0.0
C757 C 0.1731 0.65902 0.66795 0.0
C758 C 0.15631 0.64833 0.65935 0.0
C759 C 0.17562 0.66143 0.69124 0.0
C760 C 0.16111 0.65383 0.70625 0.0
C761 C 0.14432 0.64331 0.69748 0.0
C762 C 0.14203 0.64039 0.67438 0.0
C763 C 0.16317 0.65648 0.73108 0.0
C764 C 0.15894 0.63712 0.74477 0.0
C765 C 0.16826 0.67796 0.74141 0.0
C766 C 0.17149 0.69962 0.72824 0.0
C767 C 0.15686 0.70842 0.71408 0.0
C768 C 0.16001 0.72883 0.70167 0.0
C769 C 0.17768 0.7407 0.70342 0.0
C770 C 0.19221 0.73221 0.71764 0.0
C771 C 0.18914 0.71179 0.73007 0.0
H772 H 0.18009 0.7565 0.6938 0.0
H773 H 0.1336 0.56494 0.81577 0.0
H774 H 0.85955 0.38575 0.16561 0.0
H775 H 0.85674 0.38113 0.20616 0.0
H776 H 0.83391 0.31155 0.19706 0.0
H777 H 0.83628 0.31629 0.15609 0.0
H778 H 0.81592 0.33384 0.23192 0.0
H779 H 0.88103 0.31841 0.20986 0.0
H780 H 0.91219 0.32532 0.19055 0.0
H781 H 0.92038 0.38848 0.22838 0.0
H782 H 0.88911 0.38213 0.24768 0.0
H783 H 0.84386 0.30556 0.34734 0.0
H784 H 0.8397 0.30497 0.30636 0.0
H785 H 0.85457 0.37812 0.30326 0.0
H786 H 0.85851 0.37902 0.34395 0.0
H787 H 0.87666 0.34871 0.27442 0.0
H788 H 0.80979 0.36382 0.29503 0.0
H789 H 0.77896 0.35518 0.31438 0.0
H790 H 0.77502 0.28954 0.27965 0.0
H791 H 0.806 0.29766 0.26031 0.0
C792 C 0.85371 0.36953 0.17216 0.0
C793 C 0.84834 0.35127 0.15764 0.0
C794 C 0.85217 0.36689 0.19539 0.0
C795 C 0.84555 0.34579 0.20469 0.0
C796 C 0.83918 0.32793 0.19025 0.0
C797 C 0.84055 0.33065 0.16687 0.0
C798 C 0.84634 0.34227 0.22943 0.0
C799 C 0.82926 0.33671 0.24119 0.0
C800 C 0.86375 0.34603 0.24157 0.0
C801 C 0.88264 0.34988 0.2301 0.0
C802 C 0.8894 0.33386 0.21395 0.0
C803 C 0.9071 0.33767 0.20302 0.0
C804 C 0.91824 0.35735 0.20821 0.0
C805 C 0.91172 0.37325 0.22437 0.0
C806 C 0.89402 0.36954 0.23533 0.0
C807 C 0.846 0.32159 0.33795 0.0
C808 C 0.85159 0.34232 0.34895 0.0
C809 C 0.84358 0.32121 0.31456 0.0
C810 C 0.84687 0.3415 0.30181 0.0
C811 C 0.852 0.36228 0.3128 0.0
C812 C 0.85418 0.36275 0.33611 0.0
C813 C 0.84616 0.341 0.27691 0.0
C814 C 0.86335 0.34566 0.26512 0.0
C815 C 0.82895 0.33609 0.26484 0.0
C816 C 0.81033 0.33122 0.27644 0.0
C817 C 0.80245 0.34744 0.29169 0.0
C818 C 0.78493 0.34266 0.30262 0.0
C819 C 0.77507 0.32179 0.29831 0.0
C820 C 0.78269 0.30568 0.283 0.0
C821 C 0.80023 0.31037 0.27205 0.0
H822 H 0.76149 0.31812 0.30678 0.0
H823 H 0.93193 0.36026 0.19973 0.0
H824 H 0.67101 0.82169 0.34775 0.0
H825 H 0.67353 0.81689 0.30687 0.0
H826 H 0.64929 0.88579 0.29742 0.0
H827 H 0.64639 0.89047 0.33796 0.0
H828 H 0.63107 0.85552 0.2719 0.0
H829 H 0.69803 0.87328 0.28797 0.0
H830 H 0.72975 0.86792 0.30649 0.0
H831 H 0.7341 0.79871 0.27897 0.0
H832 H 0.70226 0.80355 0.26051 0.0
H833 H 0.64957 0.88065 0.15886 0.0
H834 H 0.65285 0.8805 0.19966 0.0
H835 H 0.66728 0.80715 0.19825 0.0
H836 H 0.66389 0.80702 0.15719 0.0
H837 H 0.69053 0.83524 0.22899 0.0
H838 H 0.62399 0.81872 0.21149 0.0
H839 H 0.59263 0.825 0.19243 0.0
H840 H 0.58782 0.89288 0.22277 0.0
H841 H 0.61932 0.88715 0.24174 0.0
C842 C 0.66646 0.83591 0.33693 0.0
C843 C 0.65842 0.85641 0.3461 0.0
C844 C 0.66794 0.83317 0.31357 0.0
C845 C 0.6616 0.851 0.29903 0.0
C846 C 0.65416 0.87173 0.30825 0.0
C847 C 0.65257 0.8744 0.33148 0.0
C848 C 0.66166 0.84785 0.2742 0.0
C849 C 0.64415 0.85132 0.26257 0.0
C850 C 0.67855 0.84163 0.26198 0.0
C851 C 0.69767 0.83868 0.27308 0.0
C852 C 0.70567 0.85684 0.28603 0.0
C853 C 0.72369 0.85392 0.29648 0.0
C854 C 0.73391 0.83296 0.29397 0.0
C855 C 0.72615 0.81491 0.28094 0.0
C856 C 0.70813 0.81775 0.27047 0.0
C857 C 0.65366 0.86449 0.16711 0.0
C858 C 0.65632 0.84379 0.15471 0.0
C859 C 0.6555 0.86446 0.19047 0.0
C860 C 0.66013 0.84378 0.20196 0.0
C861 C 0.66368 0.82329 0.18966 0.0
C862 C 0.66166 0.82324 0.16622 0.0
C863 C 0.66009 0.84351 0.22689 0.0
C864 C 0.67749 0.8393 0.23847 0.0
C865 C 0.64312 0.84913 0.23914 0.0
C866 C 0.6241 0.85258 0.22788 0.0
C867 C 0.61632 0.83507 0.21395 0.0
C868 C 0.59851 0.83851 0.20319 0.0
C869 C 0.58826 0.85935 0.20635 0.0
C870 C 0.59578 0.87676 0.22032 0.0
C871 C 0.61361 0.87341 0.2311 0.0
H872 H 0.57447 0.86198 0.198 0.0
H873 H 0.74786 0.83073 0.30206 0.0
H874 H 0.36367 0.11762 0.84079 0.0
H875 H 0.36169 0.12445 0.8005 0.0
H876 H 0.33203 0.18974 0.81228 0.0
H877 H 0.33393 0.18299 0.85303 0.0
H878 H 0.31641 0.16475 0.77603 0.0
H879 H 0.37766 0.1927 0.7994 0.0
H880 H 0.40945 0.19318 0.81842 0.0
H881 H 0.42782 0.13387 0.77963 0.0
H882 H 0.396 0.13277 0.76061 0.0
H883 H 0.34173 0.1977 0.66042 0.0
H884 H 0.33773 0.19847 0.70145 0.0
H885 H 0.35995 0.12812 0.70563 0.0
H886 H 0.36367 0.12699 0.66489 0.0
H887 H 0.37876 0.16257 0.73421 0.0
H888 H 0.31469 0.13444 0.71309 0.0
H889 H 0.28331 0.13734 0.69335 0.0
H890 H 0.2709 0.20172 0.72761 0.0
H891 H 0.30237 0.19936 0.74733 0.0
C892 C 0.35655 0.13337 0.83492 0.0
C893 C 0.34908 0.14985 0.85018 0.0
C894 C 0.35549 0.13728 0.81183 0.0
C895 C 0.34699 0.15777 0.80339 0.0
C896 C 0.33873 0.17385 0.81846 0.0
C897 C 0.33984 0.16997 0.84172 0.0
C898 C 0.34754 0.16243 0.77884 0.0
C899 C 0.33005 0.16471 0.76691 0.0
C900 C 0.36535 0.16241 0.76693 0.0
C901 C 0.38437 0.16256 0.77869 0.0
C902 C 0.38838 0.17959 0.7951 0.0
C903 C 0.40643 0.18001 0.80584 0.0
C904 C 0.42063 0.16358 0.80022 0.0
C905 C 0.41679 0.1466 0.78395 0.0
C906 C 0.39876 0.14608 0.77317 0.0
C907 C 0.34557 0.18232 0.67007 0.0
C908 C 0.35305 0.1623 0.65936 0.0
C909 C 0.34324 0.18279 0.69348 0.0
C910 C 0.34858 0.16336 0.70652 0.0
C911 C 0.35577 0.1433 0.69584 0.0
C912 C 0.35782 0.14267 0.67252 0.0
C913 C 0.34764 0.16405 0.73139 0.0
C914 C 0.36513 0.16287 0.74337 0.0
C915 C 0.32989 0.1655 0.74327 0.0
C916 C 0.31098 0.16687 0.73146 0.0
C917 C 0.30536 0.14934 0.71624 0.0
C918 C 0.28754 0.15085 0.7051 0.0
C919 C 0.27515 0.16974 0.70916 0.0
C920 C 0.28053 0.18712 0.72444 0.0
C921 C 0.29835 0.18569 0.73561 0.0
H922 H 0.26135 0.17088 0.70053 0.0
H923 H 0.43465 0.16411 0.80838 0.0
H924 H 0.65674 0.12532 0.84053 0.0
H925 H 0.66223 0.12639 0.80014 0.0
H926 H 0.66913 0.20132 0.8029 0.0
H927 H 0.66314 0.20048 0.84346 0.0
H928 H 0.64598 0.19017 0.7696 0.0
H929 H 0.70837 0.16436 0.79287 0.0
H930 H 0.73226 0.14044 0.81345 0.0
H931 H 0.71218 0.07883 0.77944 0.0
H932 H 0.68796 0.10232 0.75887 0.0
H933 H 0.66946 0.18788 0.652 0.0
H934 H 0.67429 0.19351 0.69255 0.0
H935 H 0.6587 0.1215 0.70434 0.0
H936 H 0.6537 0.11583 0.66411 0.0
H937 H 0.69071 0.13614 0.72986 0.0
H938 H 0.62551 0.16202 0.7111 0.0
H939 H 0.60165 0.18617 0.69067 0.0
H940 H 0.62817 0.24856 0.71649 0.0
H941 H 0.65237 0.22475 0.73684 0.0
C942 C 0.65964 0.14204 0.83266 0.0
C943 C 0.6595 0.16282 0.84531 0.0
C944 C 0.6629 0.1426 0.8095 0.0
C945 C 0.66637 0.1639 0.79844 0.0
C946 C 0.66655 0.18466 0.81105 0.0
C947 C 0.66317 0.18414 0.83426 0.0
C948 C 0.66862 0.16443 0.77356 0.0
C949 C 0.65611 0.17875 0.76096 0.0
C950 C 0.68164 0.14933 0.76217 0.0
C951 C 0.69626 0.13511 0.77442 0.0
C952 C 0.70895 0.14569 0.78988 0.0
C953 C 0.72257 0.13221 0.80153 0.0
C954 C 0.72372 0.10813 0.79778 0.0
C955 C 0.71127 0.09749 0.78233 0.0
C956 C 0.69762 0.11089 0.77064 0.0
C957 C 0.66731 0.1732 0.66323 0.0
C958 C 0.66109 0.15145 0.65489 0.0
C959 C 0.67002 0.17645 0.68637 0.0
C960 C 0.66674 0.15794 0.70144 0.0
C961 C 0.66133 0.136 0.69301 0.0
C962 C 0.6584 0.13282 0.67001 0.0
C963 C 0.66784 0.16149 0.72611 0.0
C964 C 0.68093 0.1479 0.73861 0.0
C965 C 0.65545 0.17734 0.73742 0.0
C966 C 0.64089 0.19163 0.72524 0.0
C967 C 0.62636 0.18089 0.71225 0.0
C968 C 0.61276 0.19451 0.70072 0.0
C969 C 0.61344 0.21889 0.70222 0.0
C970 C 0.62769 0.22968 0.71531 0.0
C971 C 0.64135 0.21614 0.72684 0.0
H972 H 0.60288 0.2294 0.69328 0.0
H973 H 0.73427 0.09772 0.80683 0.0
H974 H 0.37445 0.87539 0.17093 0.0
H975 H 0.36989 0.86859 0.21102 0.0
H976 H 0.32198 0.82242 0.19688 0.0
H977 H 0.32662 0.82888 0.15636 0.0
H978 H 0.31593 0.85629 0.23376 0.0
H979 H 0.36014 0.7966 0.20953 0.0
H980 H 0.38895 0.78129 0.1898 0.0
H981 H 0.42599 0.82386 0.23091 0.0
H982 H 0.39737 0.83972 0.25067 0.0
H983 H 0.3522 0.80123 0.34793 0.0
H984 H 0.34729 0.79991 0.30723 0.0
H985 H 0.34068 0.8749 0.30588 0.0
H986 H 0.34549 0.87641 0.34651 0.0
H987 H 0.37033 0.81986 0.27585 0.0
H988 H 0.31042 0.88998 0.26286 0.0
H989 H 0.28137 0.90485 0.28248 0.0
H990 H 0.27457 0.83883 0.31598 0.0
H991 H 0.30341 0.82346 0.29633 0.0
C992 C 0.36283 0.8639 0.17625 0.0
C993 C 0.35092 0.8526 0.16042 0.0
C994 C 0.36028 0.86001 0.1992 0.0
C995 C 0.34569 0.84491 0.20687 0.0
C996 C 0.33333 0.83414 0.19124 0.0
C997 C 0.33603 0.83779 0.16814 0.0
C998 C 0.34401 0.83998 0.23125 0.0
C999 C 0.32772 0.84818 0.24301 0.0
C1000 C 0.35931 0.8291 0.24318 0.0
C1001 C 0.37659 0.81947 0.23147 0.0
C1002 C 0.37442 0.80284 0.21425 0.0
C1003 C 0.39072 0.79403 0.20308 0.0
C1004 C 0.40929 0.80163 0.20907 0.0
C1005 C 0.4116 0.818 0.22628 0.0
C1006 C 0.39534 0.82688 0.23749 0.0
C1007 C 0.34941 0.81742 0.33905 0.0
C1008 C 0.34931 0.83894 0.35051 0.0
C1009 C 0.34667 0.81663 0.31576 0.0
C1010 C 0.34352 0.83728 0.30352 0.0
C1011 C 0.34282 0.8587 0.315 0.0
C1012 C 0.34568 0.85954 0.33825 0.0
C1013 C 0.34244 0.83672 0.27859 0.0
C1014 C 0.35834 0.82763 0.26668 0.0
C1015 C 0.32672 0.84666 0.26657 0.0
C1016 C 0.30917 0.85564 0.27823 0.0
C1017 C 0.30267 0.87859 0.27432 0.0
C1018 C 0.28625 0.88712 0.28547 0.0
C1019 C 0.27616 0.87281 0.30051 0.0
C1020 C 0.28244 0.84992 0.30438 0.0
C1021 C 0.29884 0.84131 0.29327 0.0
H1022 H 0.26347 0.87945 0.30914 0.0
H1023 H 0.42189 0.79479 0.2004 0.0
H1024 H 0.33029 0.21831 1.00064 0.0
H1025 H 0.30197 0.23902 0.01523 0.0
H1026 H 0.27001 0.22191 0.95512 0.0
H1027 H 0.29856 0.20156 0.94013 0.0
H1028 H 0.26061 0.26488 0.9689 0.0
H1029 H 0.26452 0.1893 1.0027 0.0
H1030 H 0.28 0.1566 0.02296 0.0
H1031 H 0.2885 0.2006 0.08057 0.0
H1032 H 0.27331 0.23367 0.06052 0.0
H1033 H 0.17469 0.25803 0.05641 0.0
H1034 H 0.20138 0.24066 0.03521 0.0
H1035 H 0.22556 0.30927 0.02385 0.0
H1036 H 0.19846 0.32683 0.04447 0.0
H1037 H 0.23755 0.23896 0.04387 0.0
H1038 H 0.25298 0.30987 0.97628 0.0
H1039 H 0.23499 0.33904 0.9539 0.0
H1040 H 0.18293 0.29825 0.9602 0.0
H1041 H 0.20066 0.26871 0.98235 0.0
C1042 C 0.31733 0.2192 0.99036 0.0
C1043 C 0.31663 0.20809 0.9693 0.0
C1044 C 0.3011 0.23098 0.99878 0.0
C1045 C 0.2837 0.23162 0.9865 0.0
C1046 C 0.28324 0.22158 0.96496 0.0
C1047 C 0.29957 0.20992 0.95642 0.0
C1048 C 0.26577 0.24161 0.99673 0.0
C1049 C 0.25557 0.25926 0.98531 0.0
C1050 C 0.25885 0.23387 0.01788 0.0
C1051 C 0.26794 0.21401 0.03003 0.0
C1052 C 0.26982 0.19204 0.01963 0.0
C1053 C 0.27852 0.17344 0.03108 0.0
C1054 C 0.28527 0.17654 0.05301 0.0
C1055 C 0.28329 0.19824 0.06356 0.0
C1056 C 0.27462 0.21691 0.05217 0.0
C1057 C 0.18557 0.26947 0.0492 0.0
C1058 C 0.18444 0.29383 0.05214 0.0
C1059 C 0.20088 0.25949 0.03711 0.0
C1060 C 0.21552 0.27359 0.02778 0.0
C1061 C 0.21431 0.29798 0.0305 0.0
C1062 C 0.19884 0.30802 0.04239 0.0
C1063 C 0.23246 0.26257 0.01626 0.0
C1064 C 0.24254 0.24468 0.02747 0.0
C1065 C 0.23888 0.26964 0.99466 0.0
C1066 C 0.22812 0.28721 0.98117 0.0
C1067 C 0.23772 0.30709 0.97282 0.0
C1068 C 0.22756 0.3237 0.96019 0.0
C1069 C 0.20782 0.32054 0.9557 0.0
C1070 C 0.19821 0.30073 0.96376 0.0
C1071 C 0.2083 0.28406 0.97639 0.0
H1072 H 0.19998 0.33342 0.94593 0.0
H1073 H 0.292 0.16211 0.06186 0.0
H1074 H 0.80797 0.67695 0.54569 0.0
H1075 H 0.78084 0.69423 0.5249 0.0
H1076 H 0.80696 0.76247 0.53153 0.0
H1077 H 0.83367 0.74543 0.55291 0.0
H1078 H 0.77106 0.76602 0.54122 0.0
H1079 H 0.80577 0.73109 0.48038 0.0
H1080 H 0.82214 0.69946 0.45953 0.0
H1081 H 0.76884 0.6606 0.45724 0.0
H1082 H 0.7522 0.69188 0.47834 0.0
H1083 H 0.70891 0.80018 0.43754 0.0
H1084 H 0.73724 0.77954 0.45273 0.0
H1085 H 0.70605 0.76652 0.51435 0.0
H1086 H 0.67796 0.78748 0.49953 0.0
H1087 H 0.74571 0.73669 0.46848 0.0
H1088 H 0.73581 0.77356 0.55854 0.0
H1089 H 0.72187 0.80826 0.57719 0.0
H1090 H 0.73024 0.84861 0.51709 0.0
H1091 H 0.74447 0.81426 0.49821 0.0
C1092 C 0.808 0.69561 0.54254 0.0
C1093 C 0.82295 0.70982 0.55102 0.0
C1094 C 0.79251 0.70547 0.53054 0.0
C1095 C 0.79185 0.72969 0.52645 0.0
C1096 C 0.80703 0.74378 0.53452 0.0
C1097 C 0.82235 0.73399 0.54671 0.0
C1098 C 0.77493 0.74063 0.51483 0.0
C1099 C 0.76558 0.75954 0.52531 0.0
C1100 C 0.76785 0.73255 0.49386 0.0
C1101 C 0.77779 0.71374 0.48112 0.0
C1102 C 0.79758 0.71572 0.47558 0.0
C1103 C 0.8069 0.69787 0.46369 0.0
C1104 C 0.79655 0.67801 0.45711 0.0
C1105 C 0.77684 0.67599 0.46236 0.0
C1106 C 0.76745 0.69378 0.47427 0.0
C1107 C 0.70802 0.79265 0.45421 0.0
C1108 C 0.69125 0.79571 0.46742 0.0
C1109 C 0.72421 0.78082 0.46287 0.0
C1110 C 0.72392 0.77184 0.48485 0.0
C1111 C 0.70679 0.77371 0.49752 0.0
C1112 C 0.69069 0.78565 0.48898 0.0
C1113 C 0.74179 0.76175 0.4951 0.0
C1114 C 0.75126 0.74306 0.4844 0.0
C1115 C 0.74935 0.77041 0.5156 0.0
C1116 C 0.74102 0.79126 0.52691 0.0
C1117 C 0.73474 0.78986 0.54935 0.0
C1118 C 0.72678 0.80947 0.55995 0.0
C1119 C 0.72511 0.8306 0.54831 0.0
C1120 C 0.73147 0.8322 0.52606 0.0
C1121 C 0.73947 0.81267 0.5154 0.0
H1122 H 0.71893 0.84575 0.55654 0.0
H1123 H 0.8038 0.6642 0.44791 0.0
H1124 H 0.32922 0.78859 0.00596 0.0
H1125 H 0.301 0.76761 0.9916 0.0
H1126 H 0.27118 0.7787 0.05446 0.0
H1127 H 0.29968 0.79934 0.06919 0.0
H1128 H 0.26283 0.73615 0.03818 0.0
H1129 H 0.2625 0.81434 0.00971 0.0
H1130 H 0.27596 0.8492 0.99093 0.0
H1131 H 0.28336 0.81002 0.92999 0.0
H1132 H 0.27019 0.77482 0.94851 0.0
H1133 H 0.17296 0.74468 0.95637 0.0
H1134 H 0.19978 0.76191 0.97741 0.0
H1135 H 0.22721 0.6942 0.98204 0.0
H1136 H 0.20001 0.67671 0.96161 0.0
H1137 H 0.23545 0.76645 0.96677 0.0
H1138 H 0.25676 0.69143 0.02764 0.0
H1139 H 0.24104 0.65931 0.04851 0.0
H1140 H 0.18714 0.69711 0.04858 0.0
H1141 H 0.20259 0.72957 0.02797 0.0
C1142 C 0.31676 0.78635 0.01686 0.0
C1143 C 0.31663 0.79584 0.03866 0.0
C1144 C 0.30059 0.77439 0.00859 0.0
C1145 C 0.28379 0.77198 0.02177 0.0
C1146 C 0.28394 0.78043 0.04394 0.0
C1147 C 0.30023 0.79225 0.05233 0.0
C1148 C 0.26581 0.76181 0.01191 0.0
C1149 C 0.25683 0.74274 0.02256 0.0
C1150 C 0.25767 0.77073 0.9918 0.0
C1151 C 0.26552 0.79189 0.98056 0.0
C1152 C 0.26712 0.81312 0.99235 0.0
C1153 C 0.27468 0.83294 0.98175 0.0
C1154 C 0.28055 0.83181 0.9593 0.0
C1155 C 0.27883 0.81086 0.94739 0.0
C1156 C 0.2713 0.79097 0.95792 0.0
C1157 C 0.18459 0.73339 0.96209 0.0
C1158 C 0.18435 0.70932 0.95731 0.0
C1159 C 0.19997 0.74329 0.97408 0.0
C1160 C 0.21555 0.72941 0.98147 0.0
C1161 C 0.21523 0.70527 0.97693 0.0
C1162 C 0.1997 0.69529 0.96514 0.0
C1163 C 0.23251 0.74049 0.99281 0.0
C1164 C 0.24137 0.75977 0.9824 0.0
C1165 C 0.24018 0.73212 0.01341 0.0
C1166 C 0.2308 0.71282 0.02607 0.0
C1167 C 0.24157 0.69293 0.03219 0.0
C1168 C 0.2327 0.67465 0.04396 0.0
C1169 C 0.21309 0.67613 0.0498 0.0
C1170 C 0.20231 0.69594 0.04397 0.0
C1171 C 0.21112 0.71427 0.03221 0.0
H1172 H 0.20625 0.66196 0.0589 0.0
H1173 H 0.2864 0.84718 0.95112 0.0
H1174 H 0.67829 0.21871 0.50494 0.0
H1175 H 0.70663 0.23968 0.4908 0.0
H1176 H 0.7378 0.22344 0.55169 0.0
H1177 H 0.70922 0.20283 0.56624 0.0
H1178 H 0.747 0.2665 0.53765 0.0
H1179 H 0.74421 0.19044 0.50456 0.0
H1180 H 0.72923 0.15746 0.48428 0.0
H1181 H 0.72138 0.2009 0.42611 0.0
H1182 H 0.73607 0.23425 0.44617 0.0
H1183 H 0.83456 0.25907 0.45249 0.0
H1184 H 0.8076 0.24188 0.47334 0.0
H1185 H 0.78275 0.31048 0.4828 0.0
H1186 H 0.81011 0.32788 0.4625 0.0
H1187 H 0.77157 0.23987 0.46357 0.0
H1188 H 0.75436 0.31152 0.52972 0.0
H1189 H 0.77168 0.34124 0.55209 0.0
H1190 H 0.82417 0.30093 0.54778 0.0
H1191 H 0.80712 0.27084 0.52564 0.0
C1192 C 0.69107 0.21984 0.51549 0.0
C1193 C 0.69155 0.20889 0.53664 0.0
C1194 C 0.70731 0.23178 0.50733 0.0
C1195 C 0.72451 0.23274 0.51996 0.0
C1196 C 0.72473 0.22287 0.54159 0.0
C1197 C 0.70838 0.21106 0.54987 0.0
C1198 C 0.74251 0.24283 0.51001 0.0
C1199 C 0.75237 0.26072 0.52144 0.0
C1200 C 0.74984 0.23493 0.4891 0.0
C1201 C 0.74107 0.21489 0.47694 0.0
C1202 C 0.73916 0.193 0.4875 0.0
C1203 C 0.73074 0.17424 0.47604 0.0
C1204 C 0.72432 0.1771 0.45394 0.0
C1205 C 0.72634 0.19872 0.44324 0.0
C1206 C 0.73473 0.21755 0.45464 0.0
C1207 C 0.82348 0.27055 0.45921 0.0
C1208 C 0.82449 0.29486 0.45581 0.0
C1209 C 0.80801 0.26068 0.4711 0.0
C1210 C 0.79311 0.27482 0.47978 0.0
C1211 C 0.7942 0.29917 0.47665 0.0
C1212 C 0.80982 0.30911 0.46494 0.0
C1213 C 0.77601 0.26386 0.49101 0.0
C1214 C 0.76625 0.24576 0.47977 0.0
C1215 C 0.76914 0.27117 0.51235 0.0
C1216 C 0.77949 0.28905 0.52583 0.0
C1217 C 0.76958 0.30897 0.53362 0.0
C1218 C 0.77936 0.32588 0.54624 0.0
C1219 C 0.79903 0.32301 0.55129 0.0
C1220 C 0.80896 0.30318 0.54378 0.0
C1221 C 0.79925 0.2862 0.53117 0.0
H1222 H 0.80657 0.33614 0.56105 0.0
H1223 H 0.7178 0.16255 0.44509 0.0
H1224 H 0.70024 0.82721 0.04295 0.0
H1225 H 0.72743 0.80942 0.02268 0.0
H1226 H 0.70064 0.74157 0.02955 0.0
H1227 H 0.6739 0.75912 0.05052 0.0
H1228 H 0.73623 0.73741 0.03953 0.0
H1229 H 0.70285 0.77294 0.97799 0.0
H1230 H 0.68718 0.80486 0.95681 0.0
H1231 H 0.74098 0.84278 0.95553 0.0
H1232 H 0.75691 0.81121 0.97697 0.0
H1233 H 0.79982 0.70226 0.93731 0.0
H1234 H 0.77138 0.72324 0.95181 0.0
H1235 H 0.80162 0.73613 0.01404 0.0
H1236 H 0.82981 0.71487 0.9999 0.0
H1237 H 0.76305 0.76634 0.9673 0.0
H1238 H 0.77104 0.72924 0.05758 0.0
H1239 H 0.78429 0.69429 0.07649 0.0
H1240 H 0.77654 0.65419 0.01617 0.0
H1241 H 0.76299 0.68879 0.99701 0.0
C1242 C 0.70008 0.80853 0.03995 0.0
C1243 C 0.68494 0.79457 0.0484 0.0
C1244 C 0.7156 0.79837 0.02825 0.0
C1245 C 0.71609 0.77411 0.02436 0.0
C1246 C 0.70071 0.76028 0.03237 0.0
C1247 C 0.68537 0.77036 0.04433 0.0
C1248 C 0.73304 0.76286 0.01305 0.0
C1249 C 0.74202 0.7438 0.02372 0.0
C1250 C 0.74054 0.77082 0.99221 0.0
C1251 C 0.73103 0.7898 0.97926 0.0
C1252 C 0.7113 0.78816 0.97333 0.0
C1253 C 0.70238 0.80618 0.96126 0.0
C1254 C 0.71306 0.82586 0.95488 0.0
C1255 C 0.73271 0.82754 0.96051 0.0
C1256 C 0.7417 0.80957 0.9726 0.0
C1257 C 0.80049 0.70983 0.95397 0.0
C1258 C 0.81701 0.70667 0.96754 0.0
C1259 C 0.78423 0.72185 0.96222 0.0
C1260 C 0.78422 0.7309 0.98417 0.0
C1261 C 0.80112 0.7289 0.99722 0.0
C1262 C 0.81728 0.71679 0.98907 0.0
C1263 C 0.76626 0.74122 0.994 0.0
C1264 C 0.75717 0.76005 0.9831 0.0
C1265 C 0.75827 0.73267 0.01434 0.0
C1266 C 0.7662 0.71168 0.02581 0.0
C1267 C 0.7721 0.71294 0.04839 0.0
C1268 C 0.77967 0.69319 0.05914 0.0
C1269 C 0.78131 0.67205 0.04752 0.0
C1270 C 0.77532 0.67059 0.02513 0.0
C1271 C 0.76772 0.69027 0.01431 0.0
H1272 H 0.78719 0.65679 0.05587 0.0
H1273 H 0.70613 0.8398 0.94554 0.0
H1274 H 0.30477 0.17656 0.55574 0.0
H1275 H 0.27754 0.19307 0.53467 0.0
H1276 H 0.31139 0.25504 0.52096 0.0
H1277 H 0.33802 0.2392 0.54342 0.0
H1278 H 0.27873 0.26897 0.53074 0.0
H1279 H 0.29908 0.2095 0.47982 0.0
H1280 H 0.3083 0.16988 0.46738 0.0
H1281 H 0.25154 0.14449 0.4846 0.0
H1282 H 0.24206 0.1839 0.49743 0.0
H1283 H 0.21271 0.30561 0.4415 0.0
H1284 H 0.24094 0.28415 0.45607 0.0
H1285 H 0.20524 0.2539 0.50796 0.0
H1286 H 0.17713 0.27581 0.494 0.0
H1287 H 0.23908 0.22432 0.47596 0.0
H1288 H 0.22339 0.28633 0.53291 0.0
H1289 H 0.21584 0.32759 0.54143 0.0
H1290 H 0.2673 0.34938 0.50644 0.0
H1291 H 0.27496 0.30822 0.49746 0.0
C1292 C 0.30641 0.19362 0.54804 0.0
C1293 C 0.32349 0.20662 0.5512 0.0
C1294 C 0.29087 0.20302 0.53582 0.0
C1295 C 0.29236 0.22526 0.52578 0.0
C1296 C 0.3097 0.23793 0.52853 0.0
C1297 C 0.32499 0.22884 0.54131 0.0
C1298 C 0.27557 0.2359 0.51353 0.0
C1299 C 0.27034 0.25911 0.51858 0.0
C1300 C 0.26432 0.22333 0.49758 0.0
C1301 C 0.26992 0.19962 0.48977 0.0
C1302 C 0.28861 0.19544 0.48109 0.0
C1303 C 0.29387 0.17302 0.47395 0.0
C1304 C 0.28053 0.15467 0.47525 0.0
C1305 C 0.26187 0.15871 0.48363 0.0
C1306 C 0.25653 0.18109 0.49081 0.0
C1307 C 0.2108 0.29407 0.45576 0.0
C1308 C 0.19272 0.29245 0.46666 0.0
C1309 C 0.22693 0.28185 0.46406 0.0
C1310 C 0.22511 0.26749 0.48307 0.0
C1311 C 0.20688 0.26488 0.49324 0.0
C1312 C 0.19087 0.27745 0.48528 0.0
C1313 C 0.24251 0.25687 0.49355 0.0
C1314 C 0.24774 0.23388 0.4881 0.0
C1315 C 0.2541 0.2697 0.50869 0.0
C1316 C 0.2496 0.29431 0.51431 0.0
C1317 C 0.23298 0.29996 0.52687 0.0
C1318 C 0.2287 0.3233 0.53182 0.0
C1319 C 0.24105 0.3411 0.52442 0.0
C1320 C 0.25773 0.33558 0.51212 0.0
C1321 C 0.26204 0.31226 0.50711 0.0
H1322 H 0.23772 0.35917 0.52826 0.0
H1323 H 0.28464 0.13732 0.46973 0.0
H1324 H 0.82683 0.29188 0.99966 0.0
H1325 H 0.79865 0.27051 0.98583 0.0
H1326 H 0.77488 0.26848 0.05288 0.0
H1327 H 0.80298 0.29041 0.06684 0.0
H1328 H 0.78298 0.22937 0.99295 0.0
H1329 H 0.72528 0.27309 0.04927 0.0
H1330 H 0.72026 0.30979 0.07032 0.0
H1331 H 0.75838 0.34594 0.02497 0.0
H1332 H 0.76342 0.30955 0.00351 0.0
H1333 H 0.6926 0.17494 0.96766 0.0
H1334 H 0.71993 0.19081 0.98913 0.0
H1335 H 0.70803 0.25953 0.96251 0.0
H1336 H 0.6805 0.24396 0.94155 0.0
H1337 H 0.71746 0.26332 0.00483 0.0
H1338 H 0.74415 0.22352 0.94046 0.0
H1339 H 0.74959 0.18985 0.91532 0.0
H1340 H 0.77441 0.15096 0.96998 0.0
H1341 H 0.7689 0.18433 0.9955 0.0
C1342 C 0.81571 0.28674 0.01156 0.0
C1343 C 0.81711 0.29302 0.03435 0.0
C1344 C 0.79961 0.27442 0.00361 0.0
C1345 C 0.78449 0.26809 0.01823 0.0
C1346 C 0.78621 0.27348 0.0412 0.0
C1347 C 0.80233 0.28592 0.04917 0.0
C1348 C 0.76668 0.25683 0.00904 0.0
C1349 C 0.76864 0.23669 0.99573 0.0
C1350 C 0.74795 0.26651 0.01233 0.0
C1351 C 0.74491 0.28854 0.02498 0.0
C1352 C 0.73255 0.28889 0.04378 0.0
C1353 C 0.72971 0.30964 0.05578 0.0
C1354 C 0.73906 0.33016 0.04904 0.0
C1355 C 0.75121 0.33001 0.03023 0.0
C1356 C 0.75408 0.30933 0.01816 0.0
C1357 C 0.69571 0.19346 0.96654 0.0
C1358 C 0.68442 0.20815 0.95279 0.0
C1359 C 0.7114 0.20251 0.97876 0.0
C1360 C 0.71624 0.22634 0.97723 0.0
C1361 C 0.70461 0.2411 0.96402 0.0
C1362 C 0.68888 0.23213 0.95195 0.0
C1363 C 0.73377 0.23592 0.98864 0.0
C1364 C 0.73176 0.25575 1.00237 0.0
C1365 C 0.75252 0.22632 0.98525 0.0
C1366 C 0.75592 0.2063 0.96993 0.0
C1367 C 0.75064 0.20772 0.94714 0.0
C1368 C 0.75376 0.18871 0.93282 0.0
C1369 C 0.76229 0.16825 0.94106 0.0
C1370 C 0.76778 0.1668 0.96363 0.0
C1371 C 0.76467 0.18576 0.97802 0.0
H1372 H 0.76469 0.15355 0.92995 0.0
H1373 H 0.73684 0.34619 0.05836 0.0
H1374 H 0.17836 0.71443 0.50552 0.0
H1375 H 0.20674 0.73539 0.49148 0.0
H1376 H 0.23704 0.72112 0.55342 0.0
H1377 H 0.20839 0.70057 0.56785 0.0
H1378 H 0.24604 0.76383 0.53882 0.0
H1379 H 0.24473 0.68725 0.50689 0.0
H1380 H 0.23055 0.65359 0.48687 0.0
H1381 H 0.22294 0.6958 0.42783 0.0
H1382 H 0.23684 0.72981 0.44761 0.0
H1383 H 0.33458 0.75733 0.45484 0.0
H1384 H 0.30776 0.73971 0.47561 0.0
H1385 H 0.28168 0.80778 0.48406 0.0
H1386 H 0.30889 0.82562 0.46387 0.0
H1387 H 0.27191 0.73661 0.46553 0.0
H1388 H 0.2529 0.80883 0.53054 0.0
H1389 H 0.26958 0.83922 0.55272 0.0
H1390 H 0.32269 0.79998 0.54956 0.0
H1391 H 0.30628 0.76922 0.52762 0.0
C1392 C 0.19096 0.71597 0.51629 0.0
C1393 C 0.19117 0.70564 0.53774 0.0
C1394 C 0.20723 0.7279 0.5082 0.0
C1395 C 0.22421 0.72943 0.52119 0.0
C1396 C 0.22415 0.7201 0.54304 0.0
C1397 C 0.20777 0.70832 0.55126 0.0
C1398 C 0.24224 0.73965 0.51144 0.0
C1399 C 0.2517 0.75791 0.52279 0.0
C1400 C 0.24996 0.73157 0.49079 0.0
C1401 C 0.24166 0.71113 0.4788 0.0
C1402 C 0.23991 0.68939 0.48969 0.0
C1403 C 0.23194 0.67024 0.47838 0.0
C1404 C 0.22581 0.67257 0.45611 0.0
C1405 C 0.22768 0.69403 0.44509 0.0
C1406 C 0.23561 0.71325 0.45633 0.0
C1407 C 0.32325 0.76861 0.46133 0.0
C1408 C 0.32387 0.79289 0.45768 0.0
C1409 C 0.30787 0.75849 0.47317 0.0
C1410 C 0.29266 0.77236 0.48154 0.0
C1411 C 0.29336 0.79669 0.47816 0.0
C1412 C 0.3089 0.80688 0.46652 0.0
C1413 C 0.27565 0.76112 0.49269 0.0
C1414 C 0.26631 0.74262 0.48157 0.0
C1415 C 0.26843 0.76857 0.51383 0.0
C1416 C 0.27839 0.78684 0.52724 0.0
C1417 C 0.26812 0.80665 0.53465 0.0
C1418 C 0.27753 0.82394 0.54717 0.0
C1419 C 0.29719 0.82157 0.55248 0.0
C1420 C 0.30748 0.80184 0.54536 0.0
C1421 C 0.29813 0.78449 0.53285 0.0
H1422 H 0.30446 0.83499 0.56216 0.0
H1423 H 0.21965 0.65772 0.44738 0.0
H1424 H 0.15792 0.60232 0.98134 0.0
H1425 H 0.16218 0.56694 0.00392 0.0
H1426 H 0.16223 0.52517 0.94347 0.0
H1427 H 0.15684 0.56037 0.92106 0.0
H1428 H 0.1401 0.50556 0.97094 0.0
H1429 H 0.20447 0.53558 0.97835 0.0
H1430 H 0.22975 0.5649 0.98649 0.0
H1431 H 0.21005 0.56952 0.05481 0.0
H1432 H 0.18448 0.54045 0.04701 0.0
H1433 H 0.1645 0.40049 0.02884 0.0
H1434 H 0.16987 0.43514 0.00529 0.0
H1435 H 0.15261 0.47964 0.06026 0.0
H1436 H 0.14693 0.44519 0.08373 0.0
H1437 H 0.18594 0.4962 0.0346 0.0
H1438 H 0.11994 0.46797 0.02468 0.0
H1439 H 0.09551 0.43785 0.01576 0.0
H1440 H 0.12054 0.42892 0.95022 0.0
H1441 H 0.14532 0.45877 0.9589 0.0
C1442 C 0.15914 0.5856 0.97289 0.0
C1443 C 0.15701 0.58406 0.94948 0.0
C1444 C 0.16168 0.56535 0.9858 0.0
C1445 C 0.16275 0.54325 0.97546 0.0
C1446 C 0.16138 0.54191 0.95193 0.0
C1447 C 0.15836 0.56206 0.93911 0.0
C1448 C 0.16381 0.5214 0.98913 0.0
C1449 C 0.15046 0.50344 0.98452 0.0
C1450 C 0.17701 0.51858 0.00723 0.0
C1451 C 0.19245 0.53597 0.01203 0.0
C1452 C 0.20544 0.54296 0.99507 0.0
C1453 C 0.21984 0.55952 0.99963 0.0
C1454 C 0.22148 0.56911 0.02114 0.0
C1455 C 0.20876 0.5621 0.03815 0.0
C1456 C 0.19432 0.54555 0.03368 0.0
C1457 C 0.16216 0.41767 0.036 0.0
C1458 C 0.15517 0.42013 0.05807 0.0
C1459 C 0.1652 0.43742 0.02253 0.0
C1460 C 0.16155 0.45991 0.03104 0.0
C1461 C 0.15556 0.46244 0.05342 0.0
C1462 C 0.15222 0.44273 0.06675 0.0
C1463 C 0.16237 0.4807 0.01617 0.0
C1464 C 0.17591 0.4984 0.0207 0.0
C1465 C 0.14956 0.48321 0.99779 0.0
C1466 C 0.13461 0.46538 0.99253 0.0
C1467 C 0.12034 0.45943 0.00844 0.0
C1468 C 0.10641 0.44244 0.00342 0.0
C1469 C 0.10651 0.43142 0.98247 0.0
C1470 C 0.12051 0.43743 0.96647 0.0
C1471 C 0.13449 0.45439 0.97142 0.0
H1472 H 0.09571 0.41828 0.97861 0.0
H1473 H 0.23262 0.58193 0.02463 0.0
H1474 H 0.8719 0.56052 0.58167 0.0
H1475 H 0.86834 0.52637 0.5575 0.0
H1476 H 0.83432 0.56698 0.51082 0.0
H1477 H 0.83783 0.60148 0.53503 0.0
H1478 H 0.82021 0.52046 0.51722 0.0
H1479 H 0.87964 0.56047 0.49917 0.0
H1480 H 0.91111 0.57901 0.50767 0.0
H1481 H 0.93244 0.51412 0.53437 0.0
H1482 H 0.90097 0.49528 0.52632 0.0
H1483 H 0.8716 0.44564 0.42416 0.0
H1484 H 0.86735 0.48076 0.44681 0.0
H1485 H 0.83686 0.44061 0.49704 0.0
H1486 H 0.84089 0.40521 0.47422 0.0
H1487 H 0.88205 0.4886 0.4872 0.0
H1488 H 0.80509 0.47798 0.52479 0.0
H1489 H 0.77345 0.46082 0.51453 0.0
H1490 H 0.78687 0.46934 0.44454 0.0
H1491 H 0.81847 0.48683 0.45438 0.0
C1492 C 0.86345 0.56221 0.56642 0.0
C1493 C 0.85529 0.58381 0.56018 0.0
C1494 C 0.86143 0.54263 0.55262 0.0
C1495 C 0.85124 0.54422 0.53228 0.0
C1496 C 0.84225 0.56542 0.52647 0.0
C1497 C 0.84432 0.58512 0.54027 0.0
C1498 C 0.85131 0.5242 0.51643 0.0
C1499 C 0.8337 0.51344 0.51063 0.0
C1500 C 0.8689 0.5153 0.50761 0.0
C1501 C 0.88789 0.52653 0.51233 0.0
C1502 C 0.89099 0.55021 0.50701 0.0
C1503 C 0.90883 0.56076 0.51173 0.0
C1504 C 0.92375 0.54777 0.52161 0.0
C1505 C 0.92087 0.52417 0.52674 0.0
C1506 C 0.90303 0.51354 0.52209 0.0
C1507 C 0.86378 0.44425 0.4399 0.0
C1508 C 0.85665 0.42258 0.44743 0.0
C1509 C 0.8614 0.46438 0.45286 0.0
C1510 C 0.85179 0.46336 0.47362 0.0
C1511 C 0.84415 0.44187 0.48096 0.0
C1512 C 0.84651 0.42165 0.46793 0.0
C1513 C 0.85095 0.48453 0.48808 0.0
C1514 C 0.8685 0.49552 0.49373 0.0
C1515 C 0.83328 0.49374 0.49646 0.0
C1516 C 0.81423 0.4835 0.49034 0.0
C1517 C 0.80126 0.47627 0.50721 0.0
C1518 C 0.78333 0.46647 0.50147 0.0
C1519 C 0.77818 0.46392 0.4789 0.0
C1520 C 0.79091 0.47124 0.46202 0.0
C1521 C 0.80884 0.48106 0.46767 0.0
H1522 H 0.76431 0.45632 0.47449 0.0
H1523 H 0.93756 0.55597 0.52524 0.0
H1524 H 0.84544 0.39806 0.01182 0.0
H1525 H 0.84178 0.43691 0.99533 0.0
H1526 H 0.84115 0.46747 0.06157 0.0
H1527 H 0.84514 0.42869 0.07826 0.0
H1528 H 0.81506 0.4712 0.99795 0.0
H1529 H 0.86552 0.5194 0.0599 0.0
H1530 H 0.89329 0.51103 0.08485 0.0
H1531 H 0.90998 0.45341 0.0428 0.0
H1532 H 0.88249 0.46164 0.01746 0.0
H1533 H 0.84459 0.60427 0.99563 0.0
H1534 H 0.84049 0.56684 0.01485 0.0
H1535 H 0.84057 0.53118 0.951 0.0
H1536 H 0.84441 0.56854 0.93161 0.0
H1537 H 0.86511 0.5309 0.01527 0.0
H1538 H 0.81381 0.48124 0.95455 0.0
H1539 H 0.7865 0.48964 0.92898 0.0
H1540 H 0.77188 0.55053 0.96766 0.0
H1541 H 0.79892 0.54232 0.99364 0.0
C1542 C 0.84438 0.413 0.02294 0.0
C1543 C 0.84578 0.41024 0.04639 0.0
C1544 C 0.84222 0.43521 0.01345 0.0
C1545 C 0.84146 0.45514 0.02718 0.0
C1546 C 0.84203 0.45238 0.05063 0.0
C1547 C 0.84425 0.43017 0.06014 0.0
C1548 C 0.84094 0.4788 0.01688 0.0
C1549 C 0.82608 0.48421 1.00159 0.0
C1550 C 0.8551 0.49595 0.02197 0.0
C1551 C 0.87181 0.49098 0.03696 0.0
C1552 C 0.87516 0.50499 0.05596 0.0
C1553 C 0.89084 0.50026 0.07017 0.0
C1554 C 0.90335 0.48164 0.06546 0.0
C1555 C 0.90024 0.46776 0.04648 0.0
C1556 C 0.88459 0.47243 0.03221 0.0
C1557 C 0.84348 0.58851 0.98563 0.0
C1558 C 0.84488 0.58944 0.96205 0.0
C1559 C 0.84119 0.56711 0.99667 0.0
C1560 C 0.84011 0.5462 0.98439 0.0
C1561 C 0.84106 0.5471 0.96083 0.0
C1562 C 0.84334 0.5685 0.94976 0.0
C1563 C 0.83926 0.52334 0.99625 0.0
C1564 C 0.85394 0.51803 0.01179 0.0
C1565 C 0.82497 0.5063 0.9913 0.0
C1566 C 0.80852 0.51127 0.97592 0.0
C1567 C 0.80472 0.49637 0.95765 0.0
C1568 C 0.78929 0.5011 0.94308 0.0
C1569 C 0.7775 0.52064 0.94665 0.0
C1570 C 0.78107 0.53545 0.96486 0.0
C1571 C 0.79647 0.53078 0.97949 0.0
H1572 H 0.76557 0.52429 0.93534 0.0
H1573 H 0.91547 0.478 0.07649 0.0
H1574 H 0.16556 0.39506 0.49693 0.0
H1575 H 0.169 0.43277 0.51583 0.0
H1576 H 0.16653 0.46807 0.45183 0.0
H1577 H 0.16346 0.43046 0.43275 0.0
H1578 H 0.19278 0.48846 0.47878 0.0
H1579 H 0.12626 0.46345 0.485 0.0
H1580 H 0.09976 0.43631 0.49485 0.0
H1581 H 0.11741 0.43785 0.56404 0.0
H1582 H 0.14419 0.46476 0.55453 0.0
H1583 H 0.16093 0.60135 0.51317 0.0
H1584 H 0.16519 0.56274 0.49637 0.0
H1585 H 0.16736 0.53171 0.56241 0.0
H1586 H 0.1628 0.57022 0.57938 0.0
H1587 H 0.14296 0.50846 0.5359 0.0
H1588 H 0.20832 0.53636 0.52955 0.0
H1589 H 0.23411 0.56421 0.51907 0.0
H1590 H 0.21807 0.55813 0.4496 0.0
H1591 H 0.192 0.53047 0.4597 0.0
C1592 C 0.16596 0.41081 0.48683 0.0
C1593 C 0.16404 0.40971 0.46331 0.0
C1594 C 0.16786 0.43238 0.49768 0.0
C1595 C 0.16769 0.45328 0.48528 0.0
C1596 C 0.16665 0.45218 0.46175 0.0
C1597 C 0.16483 0.43063 0.45087 0.0
C1598 C 0.1676 0.47633 0.49681 0.0
C1599 C 0.18181 0.49292 0.49115 0.0
C1600 C 0.15349 0.48201 0.51325 0.0
C1601 C 0.13735 0.46591 0.51901 0.0
C1602 C 0.12458 0.45785 0.50228 0.0
C1603 C 0.1095 0.44254 0.50781 0.0
C1604 C 0.10694 0.43531 0.53005 0.0
C1605 C 0.11943 0.44343 0.54681 0.0
C1606 C 0.13456 0.45872 0.54137 0.0
C1607 C 0.1625 0.58637 0.52416 0.0
C1608 C 0.16147 0.58892 0.54765 0.0
C1609 C 0.16503 0.56428 0.51451 0.0
C1610 C 0.16676 0.54432 0.52812 0.0
C1611 C 0.16608 0.54687 0.55157 0.0
C1612 C 0.16351 0.56893 0.56124 0.0
C1613 C 0.16814 0.52067 0.5179 0.0
C1614 C 0.15409 0.50396 0.52373 0.0
C1615 C 0.18234 0.51498 0.50156 0.0
C1616 C 0.1981 0.53148 0.49541 0.0
C1617 C 0.2102 0.54108 0.51205 0.0
C1618 C 0.22488 0.55682 0.50618 0.0
C1619 C 0.22769 0.56298 0.48369 0.0
C1620 C 0.21586 0.55336 0.46702 0.0
C1621 C 0.20114 0.53763 0.47281 0.0
H1622 H 0.23906 0.57517 0.47917 0.0
H1623 H 0.09525 0.42345 0.53429 0.0
H1624 H 0.65825 0.10204 0.97618 0.0
H1625 H 0.66292 0.06671 0.99873 0.0
H1626 H 0.66097 0.0247 0.93848 0.0
H1627 H 0.65509 0.05985 0.91617 0.0
H1628 H 0.63959 0.00536 0.96667 0.0
H1629 H 0.70424 0.03486 0.97197 0.0
H1630 H 0.72995 0.06389 0.97921 0.0
H1631 H 0.71197 0.0689 0.04814 0.0
H1632 H 0.68597 0.04012 0.04124 0.0
H1633 H 0.66451 0.90038 0.02437 0.0
H1634 H 0.6698 0.93485 1.00055 0.0
H1635 H 0.65368 0.97982 0.05562 0.0
H1636 H 0.64806 0.94556 0.07937 0.0
H1637 H 0.68676 0.99589 0.02899 0.0
H1638 H 0.62032 0.96821 0.02101 0.0
H1639 H 0.59561 0.93818 0.01289 0.0
H1640 H 0.61942 0.92862 0.94682 0.0
H1641 H 0.64446 0.95838 0.9547 0.0
C1642 C 0.65911 0.08527 0.96777 0.0
C1643 C 0.65627 0.08364 0.94446 0.0
C1644 C 0.6619 0.06505 0.98065 0.0
C1645 C 0.66253 0.04289 0.97037 0.0
C1646 C 0.66046 0.04148 0.94691 0.0
C1647 C 0.65717 0.06159 0.93414 0.0
C1648 C 0.66379 0.02109 0.98408 0.0
C1649 C 0.65024 0.00322 0.97995 0.0
C1650 C 0.67738 0.01822 1.00178 0.0
C1651 C 0.69305 0.03546 0.00603 0.0
C1652 C 0.70568 0.04226 0.98863 0.0
C1653 C 0.72032 0.05866 0.99269 0.0
C1654 C 0.72256 0.06827 0.01411 0.0
C1655 C 0.7102 0.06146 0.03155 0.0
C1656 C 0.69553 0.04508 0.02758 0.0
C1657 C 0.66241 0.91763 0.0315 0.0
C1658 C 0.65574 0.92028 0.05367 0.0
C1659 C 0.66541 0.93727 0.01788 0.0
C1660 C 0.66204 0.95984 0.02634 0.0
C1661 C 0.6564 0.96256 0.04882 0.0
C1662 C 0.65311 0.94296 0.06231 0.0
C1663 C 0.6627 0.98052 0.01134 0.0
C1664 C 0.67645 0.99812 0.01538 0.0
C1665 C 0.64952 0.98305 0.99331 0.0
C1666 C 0.63439 0.9653 0.98854 0.0
C1667 C 0.62039 0.95955 0.00483 0.0
C1668 C 0.6063 0.94261 1.00026 0.0
C1669 C 0.60598 0.93144 0.97938 0.0
C1670 C 0.61971 0.93725 0.963 0.0
C1671 C 0.63384 0.95415 0.96751 0.0
H1672 H 0.59506 0.91834 0.97587 0.0
H1673 H 0.7339 0.08097 0.01721 0.0
H1674 H 0.37755 0.94107 0.43324 0.0
H1675 H 0.37253 0.97514 0.457 0.0
H1676 H 0.32617 0.93932 0.49166 0.0
H1677 H 0.3318 0.90455 0.46842 0.0
H1678 H 0.34577 0.00472 0.46402 0.0
H1679 H 0.32389 0.95767 0.54584 0.0
H1680 H 0.32817 0.91942 0.56446 0.0
H1681 H 0.38182 0.90901 0.52904 0.0
H1682 H 0.37796 0.94728 0.51042 0.0
H1683 H 0.33062 0.09592 0.5435 0.0
H1684 H 0.32479 0.06077 0.52088 0.0
H1685 H 0.37416 0.02729 0.55196 0.0
H1686 H 0.37942 0.06169 0.57516 0.0
H1687 H 0.34818 0.99641 0.54692 0.0
H1688 H 0.37566 0.05536 0.49818 0.0
H1689 H 0.37701 0.09383 0.47945 0.0
H1690 H 0.32182 0.08069 0.44836 0.0
H1691 H 0.32007 0.04222 0.46711 0.0
C1692 C 0.36621 0.94042 0.44584 0.0
C1693 C 0.35516 0.92003 0.44905 0.0
C1694 C 0.36329 0.96001 0.45939 0.0
C1695 C 0.34911 0.95983 0.47636 0.0
C1696 C 0.33748 0.93978 0.47901 0.0
C1697 C 0.34064 0.91995 0.46566 0.0
C1698 C 0.34726 0.98037 0.49163 0.0
C1699 C 0.34615 0.00285 0.48215 0.0
C1700 C 0.34794 0.97812 0.51532 0.0
C1701 C 0.35049 0.95517 0.52654 0.0
C1702 C 0.33661 0.94721 0.54207 0.0
C1703 C 0.33896 0.92554 0.55262 0.0
C1704 C 0.35521 0.91175 0.54787 0.0
C1705 C 0.3692 0.91965 0.53263 0.0
C1706 C 0.36692 0.94132 0.52206 0.0
C1707 C 0.34007 0.08094 0.54564 0.0
C1708 C 0.35553 0.08162 0.56105 0.0
C1709 C 0.3368 0.06089 0.53263 0.0
C1710 C 0.34921 0.04141 0.53441 0.0
C1711 C 0.36431 0.04196 0.55025 0.0
C1712 C 0.36736 0.06175 0.56349 0.0
C1713 C 0.34725 0.02077 0.51929 0.0
C1714 C 0.3475 0.99827 0.52879 0.0
C1715 C 0.34656 0.02303 0.49559 0.0
C1716 C 0.34763 0.04607 0.48424 0.0
C1717 C 0.36376 0.06075 0.48746 0.0
C1718 C 0.36461 0.08254 0.47683 0.0
C1719 C 0.34948 0.08973 0.46278 0.0
C1720 C 0.33351 0.07512 0.45928 0.0
C1721 C 0.33258 0.05332 0.46989 0.0
H1722 H 0.35016 0.1066 0.45457 0.0
H1723 H 0.357 0.89497 0.55603 0.0
H1724 H 0.34117 0.8992 0.01592 0.0
H1725 H 0.3371 0.9374 0.99821 0.0
H1726 H 0.34778 0.97123 0.06177 0.0
H1727 H 0.35156 0.93304 0.07977 0.0
H1728 H 0.31913 0.9932 0.03882 0.0
H1729 H 0.38379 0.96616 0.02335 0.0
H1730 H 0.40854 0.93822 0.01003 0.0
H1731 H 0.38409 0.94052 0.9437 0.0
H1732 H 0.35902 0.96824 0.95672 0.0
H1733 H 0.34846 0.10507 0.99764 0.0
H1734 H 0.3453 0.06701 0.01593 0.0
H1735 H 0.33536 0.03453 0.95156 0.0
H1736 H 0.33878 0.07244 0.93307 0.0
H1737 H 0.36254 0.01164 0.97465 0.0
H1738 H 0.2986 0.04073 0.99026 0.0
H1739 H 0.27452 0.06923 0.00411 0.0
H1740 H 0.29825 0.06388 0.07063 0.0
H1741 H 0.32266 0.03558 0.05711 0.0
C1742 C 0.3425 0.91473 0.02622 0.0
C1743 C 0.34688 0.91303 0.04925 0.0
C1744 C 0.34021 0.93658 0.01603 0.0
C1745 C 0.34245 0.95718 0.02858 0.0
C1746 C 0.34604 0.95556 0.05175 0.0
C1747 C 0.34826 0.93369 0.06199 0.0
C1748 C 0.34194 0.98038 0.01734 0.0
C1749 C 0.32873 0.99734 0.02493 0.0
C1750 C 0.35427 0.98564 0.99898 0.0
C1751 C 0.36941 0.96909 0.99107 0.0
C1752 C 0.3836 0.96058 0.00597 0.0
C1753 C 0.3977 0.9448 0.99846 0.0
C1754 C 0.39785 0.93755 0.97604 0.0
C1755 C 0.38394 0.94613 0.96107 0.0
C1756 C 0.36979 0.96188 0.96849 0.0
C1757 C 0.34534 0.08989 0.98737 0.0
C1758 C 0.34395 0.09184 0.96385 0.0
C1759 C 0.34347 0.06813 0.99789 0.0
C1760 C 0.33999 0.04791 0.98514 0.0
C1761 C 0.33806 0.04989 0.96173 0.0
C1762 C 0.33997 0.07162 0.9512 0.0
C1763 C 0.33962 0.02451 0.996 0.0
C1764 C 0.35279 0.0075 0.98842 0.0
C1765 C 0.32733 0.0193 0.01442 0.0
C1766 C 0.31257 0.03619 0.02262 0.0
C1767 C 0.29878 0.04576 0.00781 0.0
C1768 C 0.28505 0.06185 0.0156 0.0
C1769 C 0.28489 0.0684 0.03822 0.0
C1770 C 0.29841 0.05881 0.05311 0.0
C1771 C 0.31218 0.04272 0.04539 0.0
H1772 H 0.27425 0.08087 0.04422 0.0
H1773 H 0.40878 0.92534 0.97027 0.0
H1774 H 0.66138 0.1049 0.50901 0.0
H1775 H 0.66503 0.06642 0.49154 0.0
H1776 H 0.67105 0.03488 0.55701 0.0
H1777 H 0.66717 0.07314 0.57463 0.0
H1778 H 0.69288 0.03231 0.49166 0.0
H1779 H 0.64653 0.98318 0.55726 0.0
H1780 H 0.62011 0.99112 0.58424 0.0
H1781 H 0.60048 0.04843 0.54348 0.0
H1782 H 0.6266 0.04062 0.51613 0.0
H1783 H 0.66519 0.89849 0.49313 0.0
H1784 H 0.6696 0.93633 0.51148 0.0
H1785 H 0.66669 0.97082 0.44708 0.0
H1786 H 0.66264 0.93307 0.42856 0.0
H1787 H 0.64483 0.97156 0.5129 0.0
H1788 H 0.69213 0.02179 0.44828 0.0
H1789 H 0.71832 0.01383 0.42104 0.0
H1790 H 0.73598 0.95385 0.45938 0.0
H1791 H 0.71008 0.96163 0.487 0.0
C1792 C 0.66367 0.08982 0.5197 0.0
C1793 C 0.66376 0.0921 0.54325 0.0
C1794 C 0.66581 0.06784 0.50967 0.0
C1795 C 0.66801 0.04774 0.52298 0.0
C1796 C 0.66905 0.05011 0.54642 0.0
C1797 C 0.66687 0.07203 0.55647 0.0
C1798 C 0.66819 0.02421 0.51244 0.0
C1799 C 0.68228 0.01907 0.49613 0.0
C1800 C 0.65459 0.00679 0.51862 0.0
C1801 C 0.63866 0.01147 0.5348 0.0
C1802 C 0.63654 0.99743 0.55403 0.0
C1803 C 0.62162 0.00191 0.56939 0.0
C1804 C 0.60867 0.02032 0.56562 0.0
C1805 C 0.61057 0.03423 0.54643 0.0
C1806 C 0.62544 0.0298 0.53101 0.0
C1807 C 0.66574 0.91408 0.48281 0.0
C1808 C 0.66351 0.91271 0.45935 0.0
C1809 C 0.66822 0.93573 0.49335 0.0
C1810 C 0.6686 0.95644 0.48068 0.0
C1811 C 0.66678 0.95508 0.45721 0.0
C1812 C 0.66437 0.93344 0.44664 0.0
C1813 C 0.66958 0.97953 0.4921 0.0
C1814 C 0.65559 0.98466 0.50854 0.0
C1815 C 0.68326 0.9969 0.48599 0.0
C1816 C 0.69903 0.99219 0.46959 0.0
C1817 C 0.70165 0.00696 0.45094 0.0
C1818 C 0.71644 0.00247 0.43543 0.0
C1819 C 0.72877 0.98331 0.43844 0.0
C1820 C 0.72638 0.96864 0.45702 0.0
C1821 C 0.71162 0.97306 0.47259 0.0
H1822 H 0.7402 0.97985 0.4264 0.0
H1823 H 0.59714 0.02378 0.57753 0.0
loop_
_geom_bond_atom_site_label_1
_geom_bond_atom_site_label_2
_geom_bond_distance
_geom_bond_site_symmetry_2
_ccdc_geom_bond_type
O0 Cd1 2.223 . S
O0 C8 1.315 . S
Cd1 O0 2.223 . S
Cd1 O4 2.297 . S
Cd1 O5 2.439 . S
Cd1 O11 2.240 . S
Cd2 O3 2.240 . S
Cd2 O10 2.223 . S
Cd2 O12 2.297 . S
Cd2 O13 2.439 . S
O3 Cd2 2.240 . S
O3 C8 1.279 . S
O4 Cd1 2.297 . S
O4 C6 1.247 . S
O5 Cd1 2.439 . S
O5 C6 1.208 . S
C6 O4 1.247 . S
C6 O5 1.208 . S
C7 O12 1.247 . S
C7 O13 1.208 . S
C8 O0 1.315 . S
C8 O3 1.279 . S
C9 O10 1.315 . S
C9 O11 1.279 . S
O10 Cd2 2.223 . S
O10 C9 1.315 . S
O11 Cd1 2.240 . S
O11 C9 1.279 . S
O12 Cd2 2.297 . S
O12 C7 1.247 . S
O13 Cd2 2.439 . S
O13 C7 1.208 . S
O14 Cd15 2.223 . S
O14 C22 1.315 . S
Cd15 O14 2.223 . S
Cd15 O18 2.297 . S
Cd15 O19 2.439 . S
Cd15 O25 2.240 . S
Cd16 O17 2.240 . S
Cd16 O24 2.223 . S
Cd16 O26 2.297 . S
Cd16 O27 2.439 . S
O17 Cd16 2.240 . S
O17 C22 1.279 . S
O18 Cd15 2.297 . S
O18 C20 1.247 . S
O19 Cd15 2.439 . S
O19 C20 1.208 . S
C20 O18 1.247 . S
C20 O19 1.208 . S
C21 O26 1.247 . S
C21 O27 1.208 . S
C22 O14 1.315 . S
C22 O17 1.279 . S
C23 O24 1.315 . S
C23 O25 1.279 . S
O24 Cd16 2.223 . S
O24 C23 1.315 . S
O25 Cd15 2.240 . S
O25 C23 1.279 . S
O26 Cd16 2.297 . S
O26 C21 1.247 . S
O27 Cd16 2.439 . S
O27 C21 1.208 . S
O28 Cd29 2.223 . S
O28 C36 1.315 . S
Cd29 O28 2.223 . S
Cd29 O32 2.297 . S
Cd29 O33 2.439 . S
Cd29 O39 2.240 . S
Cd30 O31 2.240 . S
Cd30 O38 2.223 . S
Cd30 O40 2.297 . S
Cd30 O41 2.439 . S
O31 Cd30 2.240 . S
O31 C36 1.279 . S
O32 Cd29 2.297 . S
O32 C34 1.247 . S
O33 Cd29 2.439 . S
O33 C34 1.208 . S
C34 O32 1.247 . S
C34 O33 1.208 . S
C35 O40 1.247 . S
C35 O41 1.208 . S
C36 O28 1.315 . S
C36 O31 1.279 . S
C37 O38 1.315 . S
C37 O39 1.279 . S
O38 Cd30 2.223 . S
O38 C37 1.315 . S
O39 Cd29 2.240 . S
O39 C37 1.279 . S
O40 Cd30 2.297 . S
O40 C35 1.247 . S
O41 Cd30 2.439 . S
O41 C35 1.208 . S
O42 Cd43 2.223 . S
O42 C50 1.315 . S
Cd43 O42 2.223 . S
Cd43 O46 2.297 . S
Cd43 O47 2.439 . S
Cd43 O53 2.240 . S
Cd44 O45 2.240 . S
Cd44 O52 2.223 . S
Cd44 O54 2.297 . S
Cd44 O55 2.439 . S
O45 Cd44 2.240 . S
O45 C50 1.279 . S
O46 Cd43 2.297 . S
O46 C48 1.247 . S
O47 Cd43 2.439 . S
O47 C48 1.208 . S
C48 O46 1.247 . S
C48 O47 1.208 . S
C49 O54 1.247 . S
C49 O55 1.208 . S
C50 O42 1.315 . S
C50 O45 1.279 . S
C51 O52 1.315 . S
C51 O53 1.279 . S
O52 Cd44 2.223 . S
O52 C51 1.315 . S
O53 Cd43 2.240 . S
O53 C51 1.279 . S
O54 Cd44 2.297 . S
O54 C49 1.247 . S
O55 Cd44 2.439 . S
O55 C49 1.208 . S
O56 Cd57 2.223 . S
O56 C64 1.315 . S
Cd57 O56 2.223 . S
Cd57 O60 2.297 . S
Cd57 O61 2.439 . S
Cd57 O67 2.240 . S
Cd58 O59 2.240 . S
Cd58 O66 2.223 . S
Cd58 O68 2.297 . S
Cd58 O69 2.439 . S
O59 Cd58 2.240 . S
O59 C64 1.279 . S
O60 Cd57 2.297 . S
O60 C62 1.247 . S
O61 Cd57 2.439 . S
O61 C62 1.208 . S
C62 O60 1.247 . S
C62 O61 1.208 . S
C63 O68 1.247 . S
C63 O69 1.208 . S
C64 O56 1.315 . S
C64 O59 1.279 . S
C65 O66 1.315 . S
C65 O67 1.279 . S
O66 Cd58 2.223 . S
O66 C65 1.315 . S
O67 Cd57 2.240 . S
O67 C65 1.279 . S
O68 Cd58 2.297 . S
O68 C63 1.247 . S
O69 Cd58 2.439 . S
O69 C63 1.208 . S
O70 Cd71 2.223 . S
O70 C78 1.315 . S
Cd71 O70 2.223 . S
Cd71 O74 2.297 . S
Cd71 O75 2.439 . S
Cd71 O81 2.240 . S
Cd72 O73 2.240 . S
Cd72 O80 2.223 . S
Cd72 O82 2.297 . S
Cd72 O83 2.439 . S
O73 Cd72 2.240 . S
O73 C78 1.279 . S
O74 Cd71 2.297 . S
O74 C76 1.247 . S
O75 Cd71 2.439 . S
O75 C76 1.208 . S
C76 O74 1.247 . S
C76 O75 1.208 . S
C77 O82 1.247 . S
C77 O83 1.208 . S
C78 O70 1.315 . S
C78 O73 1.279 . S
C79 O80 1.315 . S
C79 O81 1.279 . S
O80 Cd72 2.223 . S
O80 C79 1.315 . S
O81 Cd71 2.240 . S
O81 C79 1.279 . S
O82 Cd72 2.297 . S
O82 C77 1.247 . S
O83 Cd72 2.439 . S
O83 C77 1.208 . S
O84 Cd85 2.223 . S
O84 C92 1.315 . S
Cd85 O84 2.223 . S
Cd85 O88 2.297 . S
Cd85 O89 2.439 . S
Cd85 O95 2.240 . S
Cd86 O87 2.240 . S
Cd86 O94 2.223 . S
Cd86 O96 2.297 . S
Cd86 O97 2.439 . S
O87 Cd86 2.240 . S
O87 C92 1.279 . S
O88 Cd85 2.297 . S
O88 C90 1.247 . S
O89 Cd85 2.439 . S
O89 C90 1.208 . S
C90 O88 1.247 . S
C90 O89 1.208 . S
C91 O96 1.247 . S
C91 O97 1.208 . S
C92 O84 1.315 . S
C92 O87 1.279 . S
C93 O94 1.315 . S
C93 O95 1.279 . S
O94 Cd86 2.223 . S
O94 C93 1.315 . S
O95 Cd85 2.240 . S
O95 C93 1.279 . S
O96 Cd86 2.297 . S
O96 C91 1.247 . S
O97 Cd86 2.439 . S
O97 C91 1.208 . S
O98 Cd99 2.223 . S
O98 C106 1.315 . S
Cd99 O98 2.223 . S
Cd99 O102 2.297 . S
Cd99 O103 2.439 . S
Cd99 O109 2.240 . S
Cd100 O101 2.240 . S
Cd100 O108 2.223 . S
Cd100 O110 2.297 . S
Cd100 O111 2.439 . S
O101 Cd100 2.240 . S
O101 C106 1.279 . S
O102 Cd99 2.297 . S
O102 C104 1.247 . S
O103 Cd99 2.439 . S
O103 C104 1.208 . S
C104 O102 1.247 . S
C104 O103 1.208 . S
C105 O110 1.247 . S
C105 O111 1.208 . S
C106 O98 1.315 . S
C106 O101 1.279 . S
C107 O108 1.315 . S
C107 O109 1.279 . S
O108 Cd100 2.223 . S
O108 C107 1.315 . S
O109 Cd99 2.240 . S
O109 C107 1.279 . S
O110 Cd100 2.297 . S
O110 C105 1.247 . S
O111 Cd100 2.439 . S
O111 C105 1.208 . S
O112 Cd113 2.223 . S
O112 C120 1.315 . S
Cd113 O112 2.223 . S
Cd113 O116 2.297 . S
Cd113 O117 2.439 . S
Cd113 O123 2.240 . S
Cd114 O115 2.240 . S
Cd114 O122 2.223 . S
Cd114 O124 2.297 . S
Cd114 O125 2.439 . S
O115 Cd114 2.240 . S
O115 C120 1.279 . S
O116 Cd113 2.297 . S
O116 C118 1.247 . S
O117 Cd113 2.439 . S
O117 C118 1.208 . S
C118 O116 1.247 . S
C118 O117 1.208 . S
C119 O124 1.247 . S
C119 O125 1.208 . S
C120 O112 1.315 . S
C120 O115 1.279 . S
C121 O122 1.315 . S
C121 O123 1.279 . S
O122 Cd114 2.223 . S
O122 C121 1.315 . S
O123 Cd113 2.240 . S
O123 C121 1.279 . S
O124 Cd114 2.297 . S
O124 C119 1.247 . S
O125 Cd114 2.439 . S
O125 C119 1.208 . S
O126 Cd127 2.223 . S
O126 C134 1.315 . S
Cd127 O126 2.223 . S
Cd127 O130 2.297 . S
Cd127 O131 2.439 . S
Cd127 O137 2.240 . S
Cd128 O129 2.240 . S
Cd128 O136 2.223 . S
Cd128 O138 2.297 . S
Cd128 O139 2.439 . S
O129 Cd128 2.240 . S
O129 C134 1.279 . S
O130 Cd127 2.297 . S
O130 C132 1.247 . S
O131 Cd127 2.439 . S
O131 C132 1.208 . S
C132 O130 1.247 . S
C132 O131 1.208 . S
C133 O138 1.247 . S
C133 O139 1.208 . S
C134 O126 1.315 . S
C134 O129 1.279 . S
C135 O136 1.315 . S
C135 O137 1.279 . S
O136 Cd128 2.223 . S
O136 C135 1.315 . S
O137 Cd127 2.240 . S
O137 C135 1.279 . S
O138 Cd128 2.297 . S
O138 C133 1.247 . S
O139 Cd128 2.439 . S
O139 C133 1.208 . S
O140 Cd141 2.223 . S
O140 C148 1.315 . S
Cd141 O140 2.223 . S
Cd141 O144 2.297 . S
Cd141 O145 2.439 . S
Cd141 O151 2.240 . S
Cd142 O143 2.240 . S
Cd142 O150 2.223 . S
Cd142 O152 2.297 . S
Cd142 O153 2.439 . S
O143 Cd142 2.240 . S
O143 C148 1.279 . S
O144 Cd141 2.297 . S
O144 C146 1.247 . S
O145 Cd141 2.439 . S
O145 C146 1.208 . S
C146 O144 1.247 . S
C146 O145 1.208 . S
C147 O152 1.247 . S
C147 O153 1.208 . S
C148 O140 1.315 . S
C148 O143 1.279 . S
C149 O150 1.315 . S
C149 O151 1.279 . S
O150 Cd142 2.223 . S
O150 C149 1.315 . S
O151 Cd141 2.240 . S
O151 C149 1.279 . S
O152 Cd142 2.297 . S
O152 C147 1.247 . S
O153 Cd142 2.439 . S
O153 C147 1.208 . S
O154 Cd155 2.223 . S
O154 C162 1.315 . S
Cd155 O154 2.223 . S
Cd155 O158 2.297 . S
Cd155 O159 2.439 . S
Cd155 O165 2.240 . S
Cd156 O157 2.240 . S
Cd156 O164 2.223 . S
Cd156 O166 2.297 . S
Cd156 O167 2.439 . S
O157 Cd156 2.240 . S
O157 C162 1.279 . S
O158 Cd155 2.297 . S
O158 C160 1.247 . S
O159 Cd155 2.439 . S
O159 C160 1.208 . S
C160 O158 1.247 . S
C160 O159 1.208 . S
C161 O166 1.247 . S
C161 O167 1.208 . S
C162 O154 1.315 . S
C162 O157 1.279 . S
C163 O164 1.315 . S
C163 O165 1.279 . S
O164 Cd156 2.223 . S
O164 C163 1.315 . S
O165 Cd155 2.240 . S
O165 C163 1.279 . S
O166 Cd156 2.297 . S
O166 C161 1.247 . S
O167 Cd156 2.439 . S
O167 C161 1.208 . S
O168 Cd169 2.223 . S
O168 C176 1.315 . S
Cd169 O168 2.223 . S
Cd169 O172 2.297 . S
Cd169 O173 2.439 . S
Cd169 O179 2.240 . S
Cd170 O171 2.240 . S
Cd170 O178 2.223 . S
Cd170 O180 2.297 . S
Cd170 O181 2.439 . S
O171 Cd170 2.240 . S
O171 C176 1.279 . S
O172 Cd169 2.297 . S
O172 C174 1.247 . S
O173 Cd169 2.439 . S
O173 C174 1.208 . S
C174 O172 1.247 . S
C174 O173 1.208 . S
C175 O180 1.247 . S
C175 O181 1.208 . S
C176 O168 1.315 . S
C176 O171 1.279 . S
C177 O178 1.315 . S
C177 O179 1.279 . S
O178 Cd170 2.223 . S
O178 C177 1.315 . S
O179 Cd169 2.240 . S
O179 C177 1.279 . S
O180 Cd170 2.297 . S
O180 C175 1.247 . S
O181 Cd170 2.439 . S
O181 C175 1.208 . S
O182 Cd183 2.223 . S
O182 C190 1.315 . S
Cd183 O182 2.223 . S
Cd183 O186 2.297 . S
Cd183 O187 2.439 . S
Cd183 O193 2.240 . S
Cd184 O185 2.240 . S
Cd184 O192 2.223 . S
Cd184 O194 2.297 . S
Cd184 O195 2.439 . S
O185 Cd184 2.240 . S
O185 C190 1.279 . S
O186 Cd183 2.297 . S
O186 C188 1.247 . S
O187 Cd183 2.439 . S
O187 C188 1.208 . S
C188 O186 1.247 . S
C188 O187 1.208 . S
C189 O194 1.247 . S
C189 O195 1.208 . S
C190 O182 1.315 . S
C190 O185 1.279 . S
C191 O192 1.315 . S
C191 O193 1.279 . S
O192 Cd184 2.223 . S
O192 C191 1.315 . S
O193 Cd183 2.240 . S
O193 C191 1.279 . S
O194 Cd184 2.297 . S
O194 C189 1.247 . S
O195 Cd184 2.439 . S
O195 C189 1.208 . S
O196 Cd197 2.223 . S
O196 C204 1.315 . S
Cd197 O196 2.223 . S
Cd197 O200 2.297 . S
Cd197 O201 2.439 . S
Cd197 O207 2.240 . S
Cd198 O199 2.240 . S
Cd198 O206 2.223 . S
Cd198 O208 2.297 . S
Cd198 O209 2.439 . S
O199 Cd198 2.240 . S
O199 C204 1.279 . S
O200 Cd197 2.297 . S
O200 C202 1.247 . S
O201 Cd197 2.439 . S
O201 C202 1.208 . S
C202 O200 1.247 . S
C202 O201 1.208 . S
C203 O208 1.247 . S
C203 O209 1.208 . S
C204 O196 1.315 . S
C204 O199 1.279 . S
C205 O206 1.315 . S
C205 O207 1.279 . S
O206 Cd198 2.223 . S
O206 C205 1.315 . S
O207 Cd197 2.240 . S
O207 C205 1.279 . S
O208 Cd198 2.297 . S
O208 C203 1.247 . S
O209 Cd198 2.439 . S
O209 C203 1.208 . S
O210 Cd211 2.223 . S
O210 C218 1.315 . S
Cd211 O210 2.223 . S
Cd211 O214 2.297 . S
Cd211 O215 2.439 . S
Cd211 O221 2.240 . S
Cd212 O213 2.240 . S
Cd212 O220 2.223 . S
Cd212 O222 2.297 . S
Cd212 O223 2.439 . S
O213 Cd212 2.240 . S
O213 C218 1.279 . S
O214 Cd211 2.297 . S
O214 C216 1.247 . S
O215 Cd211 2.439 . S
O215 C216 1.208 . S
C216 O214 1.247 . S
C216 O215 1.208 . S
C217 O222 1.247 . S
C217 O223 1.208 . S
C218 O210 1.315 . S
C218 O213 1.279 . S
C219 O220 1.315 . S
C219 O221 1.279 . S
O220 Cd212 2.223 . S
O220 C219 1.315 . S
O221 Cd211 2.240 . S
O221 C219 1.279 . S
O222 Cd212 2.297 . S
O222 C217 1.247 . S
O223 Cd212 2.439 . S
O223 C217 1.208 . S
H224 C242 0.951 . S
H225 C244 0.951 . S
H226 C246 0.950 . S
H227 C247 0.950 . S
H228 C249 0.941 1_455 S
H229 C252 0.950 . S
H230 C253 0.950 . S
H231 C255 0.950 . S
H232 C256 0.950 1_655 S
H233 C257 0.951 . S
H234 C259 0.951 . S
H235 C261 0.950 . S
H236 C262 0.950 . S
H237 C264 0.950 . S
H238 C267 0.950 . S
H239 C268 0.950 . S
H240 C270 0.950 . S
H241 C271 0.950 . S
C242 H224 0.951 . S
C242 C243 1.366 . S
C242 C244 1.388 . S
C243 C242 1.366 . S
C243 C247 1.385 . S
C244 H225 0.951 . S
C244 C242 1.388 . S
C244 C245 1.366 . S
C245 C244 1.366 . S
C245 C246 1.414 . S
C245 C248 1.499 . S
C246 H226 0.950 . S
C246 C245 1.414 . S
C246 C247 1.374 . S
C247 H227 0.950 . S
C247 C243 1.385 . S
C247 C246 1.374 . S
C248 C245 1.499 . S
C248 C249 1.363 1_455 S
C248 C250 1.397 . S
C249 H228 0.941 1_655 S
C249 C248 1.363 1_655 S
C249 C265 1.396 . S
C250 C248 1.397 . S
C250 C251 1.532 . S
C250 C264 1.361 1_455 S
C251 C250 1.532 . S
C251 C252 1.397 . S
C251 C256 1.363 . S
C252 H229 0.950 . S
C252 C251 1.397 . S
C252 C253 1.334 . S
C253 H230 0.950 . S
C253 C252 1.334 . S
C253 C254 1.287 . S
C254 C253 1.287 . S
C254 C255 1.524 . S
C254 H273 0.913 . S
C255 H231 0.950 . S
C255 C254 1.524 . S
C255 C256 1.415 . S
C256 H232 0.950 1_455 S
C256 C251 1.363 . S
C256 C255 1.415 . S
C257 H233 0.951 . S
C257 C258 1.366 . S
C257 C259 1.388 . S
C258 C257 1.366 . S
C258 C262 1.385 . S
C259 H234 0.951 . S
C259 C257 1.388 . S
C259 C260 1.366 . S
C260 C259 1.366 . S
C260 C261 1.414 . S
C260 C263 1.499 . S
C261 H235 0.950 . S
C261 C260 1.414 . S
C261 C262 1.374 . S
C262 H236 0.950 . S
C262 C258 1.385 . S
C262 C261 1.374 . S
C263 C260 1.499 . S
C263 C264 1.373 . S
C263 C265 1.389 . S
C264 H237 0.950 . S
C264 C250 1.361 1_655 S
C264 C263 1.373 . S
C265 C249 1.396 . S
C265 C263 1.389 . S
C265 C266 1.524 . S
C266 C265 1.524 . S
C266 C267 1.397 . S
C266 C271 1.363 . S
C267 H238 0.950 . S
C267 C266 1.397 . S
C267 C268 1.334 . S
C268 H239 0.950 . S
C268 C267 1.334 . S
C268 C269 1.287 . S
C269 C268 1.287 . S
C269 C270 1.524 . S
C269 H272 0.999 . S
C270 H240 0.950 . S
C270 C269 1.524 . S
C270 C271 1.415 . S
C271 H241 0.950 . S
C271 C266 1.363 . S
C271 C270 1.415 . S
H272 C269 0.999 . S
H273 C254 0.913 . S
H274 C292 0.951 . S
H275 C294 0.951 . S
H276 C296 0.950 . S
H277 C297 0.950 . S
H278 C299 0.950 1_655 S
H279 C302 0.950 . S
H280 C303 0.950 . S
H281 C305 0.950 . S
H282 C306 0.950 1_455 S
H283 C307 0.951 . S
H284 C309 0.951 . S
H285 C311 0.950 . S
H286 C312 0.950 . S
H287 C314 0.950 . S
H288 C317 0.950 . S
H289 C318 0.950 . S
H290 C320 0.950 . S
H291 C321 0.950 . S
C292 H274 0.951 . S
C292 C293 1.366 . S
C292 C294 1.388 . S
C293 C292 1.366 . S
C293 C297 1.385 . S
C294 H275 0.951 . S
C294 C292 1.388 . S
C294 C295 1.366 . S
C295 C294 1.366 . S
C295 C296 1.414 . S
C295 C298 1.499 . S
C296 H276 0.950 . S
C296 C295 1.414 . S
C296 C297 1.374 . S
C297 H277 0.950 . S
C297 C293 1.385 . S
C297 C296 1.374 . S
C298 C295 1.499 . S
C298 C299 1.373 1_655 S
C298 C300 1.386 . S
C299 H278 0.950 1_455 S
C299 C298 1.373 1_455 S
C299 C315 1.377 . S
C300 C298 1.386 . S
C300 C301 1.521 . S
C300 C314 1.383 1_655 S
C301 C300 1.521 . S
C301 C302 1.397 . S
C301 C306 1.363 . S
C302 H279 0.950 . S
C302 C301 1.397 . S
C302 C303 1.334 . S
C303 H280 0.950 . S
C303 C302 1.334 . S
C303 C304 1.287 . S
C304 C303 1.287 . S
C304 C305 1.524 . S
C304 H323 0.913 . S
C305 H281 0.950 . S
C305 C304 1.524 . S
C305 C306 1.415 . S
C306 H282 0.950 1_655 S
C306 C301 1.363 . S
C306 C305 1.415 . S
C307 H283 0.951 . S
C307 C308 1.366 . S
C307 C309 1.388 . S
C308 C307 1.366 . S
C308 C312 1.385 . S
C309 H284 0.951 . S
C309 C307 1.388 . S
C309 C310 1.366 . S
C310 C309 1.366 . S
C310 C311 1.414 . S
C310 C313 1.499 . S
C311 H285 0.950 . S
C311 C310 1.414 . S
C311 C312 1.374 . S
C312 H286 0.950 . S
C312 C308 1.385 . S
C312 C311 1.374 . S
C313 C310 1.499 . S
C313 C314 1.373 . S
C313 C315 1.389 . S
C314 H287 0.950 . S
C314 C300 1.383 1_455 S
C314 C313 1.373 . S
C315 C299 1.377 . S
C315 C313 1.389 . S
C315 C316 1.524 . S
C316 C315 1.524 . S
C316 C317 1.397 . S
C316 C321 1.363 . S
C317 H288 0.950 . S
C317 C316 1.397 . S
C317 C318 1.334 . S
C318 H289 0.950 . S
C318 C317 1.334 . S
C318 C319 1.287 . S
C319 C318 1.287 . S
C319 C320 1.524 . S
C319 H322 0.999 . S
C320 H290 0.950 . S
C320 C319 1.524 . S
C320 C321 1.415 . S
C321 H291 0.950 . S
C321 C316 1.363 . S
C321 C320 1.415 . S
H322 C319 0.999 . S
H323 C304 0.913 . S
H324 C342 0.951 . S
H325 C344 0.951 . S
H326 C346 0.950 . S
H327 C347 0.950 . S
H328 C349 0.950 . S
H329 C352 0.950 . S
H330 C353 0.950 . S
H331 C355 0.950 . S
H332 C356 0.950 . S
H333 C357 0.951 . S
H334 C359 0.951 . S
H335 C361 0.950 . S
H336 C362 0.950 . S
H337 C364 0.950 . S
H338 C367 0.950 . S
H339 C368 0.950 . S
H340 C370 0.950 . S
H341 C371 0.950 1_655 S
C342 H324 0.951 . S
C342 C343 1.366 . S
C342 C344 1.388 . S
C343 C342 1.366 . S
C343 C347 1.385 . S
C344 H325 0.951 . S
C344 C342 1.388 . S
C344 C345 1.366 . S
C345 C344 1.366 . S
C345 C346 1.414 . S
C345 C348 1.499 . S
C346 H326 0.950 . S
C346 C345 1.414 . S
C346 C347 1.374 . S
C347 H327 0.950 . S
C347 C343 1.385 . S
C347 C346 1.374 . S
C348 C345 1.499 . S
C348 C349 1.373 . S
C348 C350 1.389 . S
C349 H328 0.950 . S
C349 C348 1.373 . S
C349 C365 1.377 . S
C350 C348 1.389 . S
C350 C351 1.524 . S
C350 C364 1.377 1_655 S
C351 C350 1.524 . S
C351 C352 1.397 . S
C351 C356 1.363 . S
C352 H329 0.950 . S
C352 C351 1.397 . S
C352 C353 1.334 . S
C353 H330 0.950 . S
C353 C352 1.334 . S
C353 C354 1.287 . S
C354 C353 1.287 . S
C354 C355 1.524 . S
C354 H373 0.913 1_556 S
C355 H331 0.950 . S
C355 C354 1.524 . S
C355 C356 1.415 . S
C356 H332 0.950 . S
C356 C351 1.363 . S
C356 C355 1.415 . S
C357 H333 0.951 . S
C357 C358 1.366 . S
C357 C359 1.388 . S
C358 C357 1.366 . S
C358 C362 1.385 . S
C359 H334 0.951 . S
C359 C357 1.388 . S
C359 C360 1.366 . S
C360 C359 1.366 . S
C360 C361 1.414 . S
C360 C363 1.499 . S
C361 H335 0.950 . S
C361 C360 1.414 . S
C361 C362 1.374 . S
C362 H336 0.950 . S
C362 C358 1.385 . S
C362 C361 1.374 . S
C363 C360 1.499 . S
C363 C364 1.373 . S
C363 C365 1.389 1_455 S
C364 H337 0.950 . S
C364 C350 1.377 1_455 S
C364 C363 1.373 . S
C365 C349 1.377 . S
C365 C363 1.389 1_655 S
C365 C366 1.524 1_655 S
C366 C365 1.524 1_455 S
C366 C367 1.397 . S
C366 C371 1.363 . S
C367 H338 0.950 . S
C367 C366 1.397 . S
C367 C368 1.334 . S
C368 H339 0.950 . S
C368 C367 1.334 . S
C368 C369 1.287 . S
C369 C368 1.287 . S
C369 C370 1.524 . S
C369 H372 0.999 . S
C370 H340 0.950 . S
C370 C369 1.524 . S
C370 C371 1.415 . S
C371 H341 0.950 1_455 S
C371 C366 1.363 . S
C371 C370 1.415 . S
H372 C369 0.999 . S
H373 C354 0.913 1_554 S
H374 C392 0.951 . S
H375 C394 0.951 . S
H376 C396 0.950 . S
H377 C397 0.950 . S
H378 C399 0.950 . S
H379 C402 0.950 . S
H380 C403 0.950 . S
H381 C405 0.950 . S
H382 C406 0.950 . S
H383 C407 0.951 . S
H384 C409 0.951 . S
H385 C411 0.950 . S
H386 C412 0.950 . S
H387 C414 0.945 1_655 S
H388 C417 0.950 . S
H389 C418 0.950 . S
H390 C420 0.950 . S
H391 C421 0.950 1_455 S
C392 H374 0.951 . S
C392 C393 1.366 . S
C392 C394 1.388 . S
C393 C392 1.366 . S
C393 C397 1.385 . S
C394 H375 0.951 . S
C394 C392 1.388 . S
C394 C395 1.366 . S
C395 C394 1.366 . S
C395 C396 1.414 . S
C395 C398 1.499 . S
C396 H376 0.950 . S
C396 C395 1.414 . S
C396 C397 1.374 . S
C397 H377 0.950 . S
C397 C393 1.385 . S
C397 C396 1.374 . S
C398 C395 1.499 . S
C398 C399 1.373 . S
C398 C400 1.389 . S
C399 H378 0.950 . S
C399 C398 1.373 . S
C399 C415 1.365 1_455 S
C400 C398 1.389 . S
C400 C401 1.524 . S
C400 C414 1.388 . S
C401 C400 1.524 . S
C401 C402 1.397 . S
C401 C406 1.363 . S
C402 H379 0.950 . S
C402 C401 1.397 . S
C402 C403 1.334 . S
C403 H380 0.950 . S
C403 C402 1.334 . S
C403 C404 1.287 . S
C404 C403 1.287 . S
C404 C405 1.524 . S
C404 H423 0.913 . S
C405 H381 0.950 . S
C405 C404 1.524 . S
C405 C406 1.415 . S
C406 H382 0.950 . S
C406 C401 1.363 . S
C406 C405 1.415 . S
C407 H383 0.951 . S
C407 C408 1.366 . S
C407 C409 1.388 . S
C408 C407 1.366 . S
C408 C412 1.385 . S
C409 H384 0.951 . S
C409 C407 1.388 . S
C409 C410 1.366 . S
C410 C409 1.366 . S
C410 C411 1.414 . S
C410 C413 1.499 . S
C411 H385 0.950 . S
C411 C410 1.414 . S
C411 C412 1.374 . S
C412 H386 0.950 . S
C412 C408 1.385 . S
C412 C411 1.374 . S
C413 C410 1.499 . S
C413 C414 1.367 1_655 S
C413 C415 1.395 . S
C414 H387 0.945 1_455 S
C414 C400 1.388 . S
C414 C413 1.367 1_455 S
C415 C399 1.365 1_655 S
C415 C413 1.395 . S
C415 C416 1.530 . S
C416 C415 1.530 . S
C416 C417 1.397 . S
C416 C421 1.363 . S
C417 H388 0.950 . S
C417 C416 1.397 . S
C417 C418 1.334 . S
C418 H389 0.950 . S
C418 C417 1.334 . S
C418 C419 1.287 . S
C419 C418 1.287 . S
C419 C420 1.524 . S
C419 H422 0.999 . S
C420 H390 0.950 . S
C420 C419 1.524 . S
C420 C421 1.415 . S
C421 H391 0.950 1_655 S
C421 C416 1.363 . S
C421 C420 1.415 . S
H422 C419 0.999 . S
H423 C404 0.913 . S
H424 C442 0.951 . S
H425 C444 0.951 . S
H426 C446 0.950 . S
H427 C447 0.950 . S
H428 C449 0.950 . S
H429 C452 0.950 . S
H430 C453 0.950 . S
H431 C455 0.950 . S
H432 C456 0.950 . S
H433 C457 0.951 . S
H434 C459 0.951 . S
H435 C461 0.950 . S
H436 C462 0.950 . S
H437 C464 0.950 . S
H438 C467 0.950 . S
H439 C468 0.950 . S
H440 C470 0.950 . S
H441 C471 0.950 . S
C442 H424 0.951 . S
C442 C443 1.366 . S
C442 C444 1.388 . S
C443 C442 1.366 . S
C443 C447 1.385 . S
C444 H425 0.951 . S
C444 C442 1.388 . S
C444 C445 1.366 . S
C445 C444 1.366 . S
C445 C446 1.414 . S
C445 C448 1.499 . S
C446 H426 0.950 . S
C446 C445 1.414 . S
C446 C447 1.374 . S
C447 H427 0.950 . S
C447 C443 1.385 . S
C447 C446 1.374 . S
C448 C445 1.499 . S
C448 C449 1.373 . S
C448 C450 1.389 . S
C449 H428 0.950 . S
C449 C448 1.373 . S
C449 C465 1.377 . S
C450 C448 1.389 . S
C450 C451 1.524 . S
C450 C464 1.377 . S
C451 C450 1.524 . S
C451 C452 1.397 . S
C451 C456 1.363 . S
C452 H429 0.950 . S
C452 C451 1.397 . S
C452 C453 1.334 . S
C453 H430 0.950 . S
C453 C452 1.334 . S
C453 C454 1.287 . S
C454 C453 1.287 . S
C454 C455 1.524 . S
C454 H473 0.913 1_554 S
C455 H431 0.950 . S
C455 C454 1.524 . S
C455 C456 1.415 . S
C456 H432 0.950 . S
C456 C451 1.363 . S
C456 C455 1.415 . S
C457 H433 0.951 . S
C457 C458 1.366 . S
C457 C459 1.388 . S
C458 C457 1.366 . S
C458 C462 1.385 . S
C459 H434 0.951 . S
C459 C457 1.388 . S
C459 C460 1.366 . S
C460 C459 1.366 . S
C460 C461 1.414 . S
C460 C463 1.499 . S
C461 H435 0.950 . S
C461 C460 1.414 . S
C461 C462 1.374 . S
C462 H436 0.950 . S
C462 C458 1.385 . S
C462 C461 1.374 . S
C463 C460 1.499 . S
C463 C464 1.373 . S
C463 C465 1.389 . S
C464 H437 0.950 . S
C464 C450 1.377 . S
C464 C463 1.373 . S
C465 C449 1.377 . S
C465 C463 1.389 . S
C465 C466 1.524 . S
C466 C465 1.524 . S
C466 C467 1.397 . S
C466 C471 1.363 . S
C467 H438 0.950 . S
C467 C466 1.397 . S
C467 C468 1.334 . S
C468 H439 0.950 . S
C468 C467 1.334 . S
C468 C469 1.287 . S
C469 C468 1.287 . S
C469 C470 1.524 . S
C469 H472 0.999 . S
C470 H440 0.950 . S
C470 C469 1.524 . S
C470 C471 1.415 . S
C471 H441 0.950 . S
C471 C466 1.363 . S
C471 C470 1.415 . S
H472 C469 0.999 . S
H473 C454 0.913 1_556 S
H474 C492 0.951 . S
H475 C494 0.951 . S
H476 C496 0.950 . S
H477 C497 0.950 . S
H478 C499 0.950 . S
H479 C502 0.950 . S
H480 C503 0.950 . S
H481 C505 0.950 . S
H482 C506 0.950 . S
H483 C507 0.951 . S
H484 C509 0.951 . S
H485 C511 0.950 . S
H486 C512 0.950 . S
H487 C514 0.950 . S
H488 C517 0.950 . S
H489 C518 0.950 . S
H490 C520 0.950 . S
H491 C521 0.950 . S
C492 H474 0.951 . S
C492 C493 1.366 . S
C492 C494 1.388 . S
C493 C492 1.366 . S
C493 C497 1.385 . S
C494 H475 0.951 . S
C494 C492 1.388 . S
C494 C495 1.366 . S
C495 C494 1.366 . S
C495 C496 1.414 . S
C495 C498 1.499 . S
C496 H476 0.950 . S
C496 C495 1.414 . S
C496 C497 1.374 . S
C497 H477 0.950 . S
C497 C493 1.385 . S
C497 C496 1.374 . S
C498 C495 1.499 . S
C498 C499 1.373 . S
C498 C500 1.389 . S
C499 H478 0.950 . S
C499 C498 1.373 . S
C499 C515 1.377 . S
C500 C498 1.389 . S
C500 C501 1.524 . S
C500 C514 1.377 . S
C501 C500 1.524 . S
C501 C502 1.397 . S
C501 C506 1.363 . S
C502 H479 0.950 . S
C502 C501 1.397 . S
C502 C503 1.334 . S
C503 H480 0.950 . S
C503 C502 1.334 . S
C503 C504 1.287 . S
C504 C503 1.287 . S
C504 C505 1.524 . S
C504 H523 0.913 . S
C505 H481 0.950 . S
C505 C504 1.524 . S
C505 C506 1.415 . S
C506 H482 0.950 . S
C506 C501 1.363 . S
C506 C505 1.415 . S
C507 H483 0.951 . S
C507 C508 1.366 . S
C507 C509 1.388 . S
C508 C507 1.366 . S
C508 C512 1.385 . S
C509 H484 0.951 . S
C509 C507 1.388 . S
C509 C510 1.366 . S
C510 C509 1.366 . S
C510 C511 1.414 . S
C510 C513 1.499 . S
C511 H485 0.950 . S
C511 C510 1.414 . S
C511 C512 1.374 . S
C512 H486 0.950 . S
C512 C508 1.385 . S
C512 C511 1.374 . S
C513 C510 1.499 . S
C513 C514 1.373 . S
C513 C515 1.389 . S
C514 H487 0.950 . S
C514 C500 1.377 . S
C514 C513 1.373 . S
C515 C499 1.377 . S
C515 C513 1.389 . S
C515 C516 1.524 . S
C516 C515 1.524 . S
C516 C517 1.397 . S
C516 C521 1.363 . S
C517 H488 0.950 . S
C517 C516 1.397 . S
C517 C518 1.334 . S
C518 H489 0.950 . S
C518 C517 1.334 . S
C518 C519 1.287 . S
C519 C518 1.287 . S
C519 C520 1.524 . S
C519 H522 0.999 . S
C520 H490 0.950 . S
C520 C519 1.524 . S
C520 C521 1.415 . S
C521 H491 0.950 . S
C521 C516 1.363 . S
C521 C520 1.415 . S
H522 C519 0.999 . S
H523 C504 0.913 . S
H524 C542 0.951 . S
H525 C544 0.951 . S
H526 C546 0.950 . S
H527 C547 0.950 . S
H528 C549 0.950 . S
H529 C552 0.950 . S
H530 C553 0.950 . S
H531 C555 0.950 . S
H532 C556 0.950 . S
H533 C557 0.951 . S
H534 C559 0.951 . S
H535 C561 0.950 . S
H536 C562 0.950 . S
H537 C564 0.950 . S
H538 C567 0.950 . S
H539 C568 0.950 . S
H540 C570 0.950 . S
H541 C571 0.950 . S
C542 H524 0.951 . S
C542 C543 1.366 . S
C542 C544 1.388 . S
C543 C542 1.366 . S
C543 C547 1.385 . S
C544 H525 0.951 . S
C544 C542 1.388 . S
C544 C545 1.366 . S
C545 C544 1.366 . S
C545 C546 1.414 . S
C545 C548 1.499 . S
C546 H526 0.950 . S
C546 C545 1.414 . S
C546 C547 1.374 . S
C547 H527 0.950 . S
C547 C543 1.385 . S
C547 C546 1.374 . S
C548 C545 1.499 . S
C548 C549 1.373 . S
C548 C550 1.389 . S
C549 H528 0.950 . S
C549 C548 1.373 . S
C549 C565 1.377 . S
C550 C548 1.389 . S
C550 C551 1.524 . S
C550 C564 1.377 . S
C551 C550 1.524 . S
C551 C552 1.397 . S
C551 C556 1.363 . S
C552 H529 0.950 . S
C552 C551 1.397 . S
C552 C553 1.334 . S
C553 H530 0.950 . S
C553 C552 1.334 . S
C553 C554 1.287 . S
C554 C553 1.287 . S
C554 C555 1.524 . S
C554 H573 0.913 1_556 S
C555 H531 0.950 . S
C555 C554 1.524 . S
C555 C556 1.415 . S
C556 H532 0.950 . S
C556 C551 1.363 . S
C556 C555 1.415 . S
C557 H533 0.951 . S
C557 C558 1.366 . S
C557 C559 1.388 . S
C558 C557 1.366 . S
C558 C562 1.385 . S
C559 H534 0.951 . S
C559 C557 1.388 . S
C559 C560 1.366 . S
C560 C559 1.366 . S
C560 C561 1.414 . S
C560 C563 1.499 . S
C561 H535 0.950 . S
C561 C560 1.414 . S
C561 C562 1.374 . S
C562 H536 0.950 . S
C562 C558 1.385 . S
C562 C561 1.374 . S
C563 C560 1.499 . S
C563 C564 1.373 . S
C563 C565 1.389 . S
C564 H537 0.950 . S
C564 C550 1.377 . S
C564 C563 1.373 . S
C565 C549 1.377 . S
C565 C563 1.389 . S
C565 C566 1.524 . S
C566 C565 1.524 . S
C566 C567 1.397 . S
C566 C571 1.363 . S
C567 H538 0.950 . S
C567 C566 1.397 . S
C567 C568 1.334 . S
C568 H539 0.950 . S
C568 C567 1.334 . S
C568 C569 1.287 . S
C569 C568 1.287 . S
C569 C570 1.524 . S
C569 H572 0.999 . S
C570 H540 0.950 . S
C570 C569 1.524 . S
C570 C571 1.415 . S
C571 H541 0.950 . S
C571 C566 1.363 . S
C571 C570 1.415 . S
H572 C569 0.999 . S
H573 C554 0.913 1_554 S
H574 C592 0.951 . S
H575 C594 0.951 . S
H576 C596 0.950 . S
H577 C597 0.950 . S
H578 C599 0.950 . S
H579 C602 0.950 . S
H580 C603 0.950 . S
H581 C605 0.950 . S
H582 C606 0.950 . S
H583 C607 0.951 . S
H584 C609 0.951 . S
H585 C611 0.950 . S
H586 C612 0.950 . S
H587 C614 0.950 . S
H588 C617 0.950 . S
H589 C618 0.950 . S
H590 C620 0.950 . S
H591 C621 0.950 . S
C592 H574 0.951 . S
C592 C593 1.366 . S
C592 C594 1.388 . S
C593 C592 1.366 . S
C593 C597 1.385 . S
C594 H575 0.951 . S
C594 C592 1.388 . S
C594 C595 1.366 . S
C595 C594 1.366 . S
C595 C596 1.414 . S
C595 C598 1.499 . S
C596 H576 0.950 . S
C596 C595 1.414 . S
C596 C597 1.374 . S
C597 H577 0.950 . S
C597 C593 1.385 . S
C597 C596 1.374 . S
C598 C595 1.499 . S
C598 C599 1.373 . S
C598 C600 1.389 . S
C599 H578 0.950 . S
C599 C598 1.373 . S
C599 C615 1.377 . S
C600 C598 1.389 . S
C600 C601 1.524 . S
C600 C614 1.377 . S
C601 C600 1.524 . S
C601 C602 1.397 . S
C601 C606 1.363 . S
C602 H579 0.950 . S
C602 C601 1.397 . S
C602 C603 1.334 . S
C603 H580 0.950 . S
C603 C602 1.334 . S
C603 C604 1.287 . S
C604 C603 1.287 . S
C604 C605 1.524 . S
C604 H623 0.913 . S
C605 H581 0.950 . S
C605 C604 1.524 . S
C605 C606 1.415 . S
C606 H582 0.950 . S
C606 C601 1.363 . S
C606 C605 1.415 . S
C607 H583 0.951 . S
C607 C608 1.366 . S
C607 C609 1.388 . S
C608 C607 1.366 . S
C608 C612 1.385 . S
C609 H584 0.951 . S
C609 C607 1.388 . S
C609 C610 1.366 . S
C610 C609 1.366 . S
C610 C611 1.414 . S
C610 C613 1.499 . S
C611 H585 0.950 . S
C611 C610 1.414 . S
C611 C612 1.374 . S
C612 H586 0.950 . S
C612 C608 1.385 . S
C612 C611 1.374 . S
C613 C610 1.499 . S
C613 C614 1.373 . S
C613 C615 1.389 . S
C614 H587 0.950 . S
C614 C600 1.377 . S
C614 C613 1.373 . S
C615 C599 1.377 . S
C615 C613 1.389 . S
C615 C616 1.524 . S
C616 C615 1.524 . S
C616 C617 1.397 . S
C616 C621 1.363 . S
C617 H588 0.950 . S
C617 C616 1.397 . S
C617 C618 1.334 . S
C618 H589 0.950 . S
C618 C617 1.334 . S
C618 C619 1.287 . S
C619 C618 1.287 . S
C619 C620 1.524 . S
C619 H622 0.999 . S
C620 H590 0.950 . S
C620 C619 1.524 . S
C620 C621 1.415 . S
C621 H591 0.950 . S
C621 C616 1.363 . S
C621 C620 1.415 . S
H622 C619 0.999 . S
H623 C604 0.913 . S
H624 C642 0.951 . S
H625 C644 0.951 . S
H626 C646 0.950 . S
H627 C647 0.950 . S
H628 C649 0.950 . S
H629 C652 0.950 . S
H630 C653 0.950 . S
H631 C655 0.950 . S
H632 C656 0.950 . S
H633 C657 0.951 . S
H634 C659 0.951 . S
H635 C661 0.950 . S
H636 C662 0.950 . S
H637 C664 0.950 . S
H638 C667 0.950 . S
H639 C668 0.950 . S
H640 C670 0.950 . S
H641 C671 0.950 . S
C642 H624 0.951 . S
C642 C643 1.366 . S
C642 C644 1.388 . S
C643 C642 1.366 . S
C643 C647 1.385 . S
C644 H625 0.951 . S
C644 C642 1.388 . S
C644 C645 1.366 . S
C645 C644 1.366 . S
C645 C646 1.414 . S
C645 C648 1.499 . S
C646 H626 0.950 . S
C646 C645 1.414 . S
C646 C647 1.374 . S
C647 H627 0.950 . S
C647 C643 1.385 . S
C647 C646 1.374 . S
C648 C645 1.499 . S
C648 C649 1.373 . S
C648 C650 1.389 . S
C649 H628 0.950 . S
C649 C648 1.373 . S
C649 C665 1.377 . S
C650 C648 1.389 . S
C650 C651 1.524 . S
C650 C664 1.377 . S
C651 C650 1.524 . S
C651 C652 1.397 . S
C651 C656 1.363 . S
C652 H629 0.950 . S
C652 C651 1.397 . S
C652 C653 1.334 . S
C653 H630 0.950 . S
C653 C652 1.334 . S
C653 C654 1.287 . S
C654 C653 1.287 . S
C654 C655 1.524 . S
C654 H673 0.913 . S
C655 H631 0.950 . S
C655 C654 1.524 . S
C655 C656 1.415 . S
C656 H632 0.950 . S
C656 C651 1.363 . S
C656 C655 1.415 . S
C657 H633 0.951 . S
C657 C658 1.366 . S
C657 C659 1.388 . S
C658 C657 1.366 . S
C658 C662 1.385 . S
C659 H634 0.951 . S
C659 C657 1.388 . S
C659 C660 1.366 . S
C660 C659 1.366 . S
C660 C661 1.414 . S
C660 C663 1.499 . S
C661 H635 0.950 . S
C661 C660 1.414 . S
C661 C662 1.374 . S
C662 H636 0.950 . S
C662 C658 1.385 . S
C662 C661 1.374 . S
C663 C660 1.499 . S
C663 C664 1.373 . S
C663 C665 1.389 . S
C664 H637 0.950 . S
C664 C650 1.377 . S
C664 C663 1.373 . S
C665 C649 1.377 . S
C665 C663 1.389 . S
C665 C666 1.524 . S
C666 C665 1.524 . S
C666 C667 1.397 . S
C666 C671 1.363 . S
C667 H638 0.950 . S
C667 C666 1.397 . S
C667 C668 1.334 . S
C668 H639 0.950 . S
C668 C667 1.334 . S
C668 C669 1.287 . S
C669 C668 1.287 . S
C669 C670 1.524 . S
C669 H672 0.999 . S
C670 H640 0.950 . S
C670 C669 1.524 . S
C670 C671 1.415 . S
C671 H641 0.950 . S
C671 C666 1.363 . S
C671 C670 1.415 . S
H672 C669 0.999 . S
H673 C654 0.913 . S
H674 C692 0.951 . S
H675 C694 0.951 . S
H676 C696 0.950 . S
H677 C697 0.950 . S
H678 C699 0.950 . S
H679 C702 0.950 . S
H680 C703 0.950 . S
H681 C705 0.950 . S
H682 C706 0.950 . S
H683 C707 0.951 . S
H684 C709 0.951 . S
H685 C711 0.950 . S
H686 C712 0.950 . S
H687 C714 0.950 . S
H688 C717 0.950 . S
H689 C718 0.950 . S
H690 C720 0.950 . S
H691 C721 0.950 . S
C692 H674 0.951 . S
C692 C693 1.366 . S
C692 C694 1.388 . S
C693 C692 1.366 . S
C693 C697 1.385 . S
C694 H675 0.951 . S
C694 C692 1.388 . S
C694 C695 1.366 . S
C695 C694 1.366 . S
C695 C696 1.414 . S
C695 C698 1.499 . S
C696 H676 0.950 . S
C696 C695 1.414 . S
C696 C697 1.374 . S
C697 H677 0.950 . S
C697 C693 1.385 . S
C697 C696 1.374 . S
C698 C695 1.499 . S
C698 C699 1.373 . S
C698 C700 1.389 . S
C699 H678 0.950 . S
C699 C698 1.373 . S
C699 C715 1.377 . S
C700 C698 1.389 . S
C700 C701 1.524 . S
C700 C714 1.377 . S
C701 C700 1.524 . S
C701 C702 1.397 . S
C701 C706 1.363 . S
C702 H679 0.950 . S
C702 C701 1.397 . S
C702 C703 1.334 . S
C703 H680 0.950 . S
C703 C702 1.334 . S
C703 C704 1.287 . S
C704 C703 1.287 . S
C704 C705 1.524 . S
C704 H723 0.913 . S
C705 H681 0.950 . S
C705 C704 1.524 . S
C705 C706 1.415 . S
C706 H682 0.950 . S
C706 C701 1.363 . S
C706 C705 1.415 . S
C707 H683 0.951 . S
C707 C708 1.366 . S
C707 C709 1.388 . S
C708 C707 1.366 . S
C708 C712 1.385 . S
C709 H684 0.951 . S
C709 C707 1.388 . S
C709 C710 1.366 . S
C710 C709 1.366 . S
C710 C711 1.414 . S
C710 C713 1.499 . S
C711 H685 0.950 . S
C711 C710 1.414 . S
C711 C712 1.374 . S
C712 H686 0.950 . S
C712 C708 1.385 . S
C712 C711 1.374 . S
C713 C710 1.499 . S
C713 C714 1.373 . S
C713 C715 1.389 . S
C714 H687 0.950 . S
C714 C700 1.377 . S
C714 C713 1.373 . S
C715 C699 1.377 . S
C715 C713 1.389 . S
C715 C716 1.524 . S
C716 C715 1.524 . S
C716 C717 1.397 . S
C716 C721 1.363 . S
C717 H688 0.950 . S
C717 C716 1.397 . S
C717 C718 1.334 . S
C718 H689 0.950 . S
C718 C717 1.334 . S
C718 C719 1.287 . S
C719 C718 1.287 . S
C719 C720 1.524 . S
C719 H722 0.999 . S
C720 H690 0.950 . S
C720 C719 1.524 . S
C720 C721 1.415 . S
C721 H691 0.950 . S
C721 C716 1.363 . S
C721 C720 1.415 . S
H722 C719 0.999 . S
H723 C704 0.913 . S
H724 C742 0.951 . S
H725 C744 0.951 . S
H726 C746 0.950 . S
H727 C747 0.950 . S
H728 C749 0.950 . S
H729 C752 0.950 . S
H730 C753 0.950 . S
H731 C755 0.950 . S
H732 C756 0.950 . S
H733 C757 0.951 . S
H734 C759 0.951 . S
H735 C761 0.950 . S
H736 C762 0.950 . S
H737 C764 0.950 . S
H738 C767 0.950 . S
H739 C768 0.950 . S
H740 C770 0.950 . S
H741 C771 0.950 . S
C742 H724 0.951 . S
C742 C743 1.366 . S
C742 C744 1.388 . S
C743 C742 1.366 . S
C743 C747 1.385 . S
C744 H725 0.951 . S
C744 C742 1.388 . S
C744 C745 1.366 . S
C745 C744 1.366 . S
C745 C746 1.414 . S
C745 C748 1.499 . S
C746 H726 0.950 . S
C746 C745 1.414 . S
C746 C747 1.374 . S
C747 H727 0.950 . S
C747 C743 1.385 . S
C747 C746 1.374 . S
C748 C745 1.499 . S
C748 C749 1.373 . S
C748 C750 1.389 . S
C749 H728 0.950 . S
C749 C748 1.373 . S
C749 C765 1.377 . S
C750 C748 1.389 . S
C750 C751 1.524 . S
C750 C764 1.377 . S
C751 C750 1.524 . S
C751 C752 1.397 . S
C751 C756 1.363 . S
C752 H729 0.950 . S
C752 C751 1.397 . S
C752 C753 1.334 . S
C753 H730 0.950 . S
C753 C752 1.334 . S
C753 C754 1.287 . S
C754 C753 1.287 . S
C754 C755 1.524 . S
C754 H773 0.913 . S
C755 H731 0.950 . S
C755 C754 1.524 . S
C755 C756 1.415 . S
C756 H732 0.950 . S
C756 C751 1.363 . S
C756 C755 1.415 . S
C757 H733 0.951 . S
C757 C758 1.366 . S
C757 C759 1.388 . S
C758 C757 1.366 . S
C758 C762 1.385 . S
C759 H734 0.951 . S
C759 C757 1.388 . S
C759 C760 1.366 . S
C760 C759 1.366 . S
C760 C761 1.414 . S
C760 C763 1.499 . S
C761 H735 0.950 . S
C761 C760 1.414 . S
C761 C762 1.374 . S
C762 H736 0.950 . S
C762 C758 1.385 . S
C762 C761 1.374 . S
C763 C760 1.499 . S
C763 C764 1.373 . S
C763 C765 1.389 . S
C764 H737 0.950 . S
C764 C750 1.377 . S
C764 C763 1.373 . S
C765 C749 1.377 . S
C765 C763 1.389 . S
C765 C766 1.524 . S
C766 C765 1.524 . S
C766 C767 1.397 . S
C766 C771 1.363 . S
C767 H738 0.950 . S
C767 C766 1.397 . S
C767 C768 1.334 . S
C768 H739 0.950 . S
C768 C767 1.334 . S
C768 C769 1.287 . S
C769 C768 1.287 . S
C769 C770 1.524 . S
C769 H772 0.999 . S
C770 H740 0.950 . S
C770 C769 1.524 . S
C770 C771 1.415 . S
C771 H741 0.950 . S
C771 C766 1.363 . S
C771 C770 1.415 . S
H772 C769 0.999 . S
H773 C754 0.913 . S
H774 C792 0.951 . S
H775 C794 0.951 . S
H776 C796 0.950 . S
H777 C797 0.950 . S
H778 C799 0.950 . S
H779 C802 0.950 . S
H780 C803 0.950 . S
H781 C805 0.950 . S
H782 C806 0.950 . S
H783 C807 0.951 . S
H784 C809 0.951 . S
H785 C811 0.950 . S
H786 C812 0.950 . S
H787 C814 0.950 . S
H788 C817 0.950 . S
H789 C818 0.950 . S
H790 C820 0.950 . S
H791 C821 0.950 . S
C792 H774 0.951 . S
C792 C793 1.366 . S
C792 C794 1.388 . S
C793 C792 1.366 . S
C793 C797 1.385 . S
C794 H775 0.951 . S
C794 C792 1.388 . S
C794 C795 1.366 . S
C795 C794 1.366 . S
C795 C796 1.414 . S
C795 C798 1.499 . S
C796 H776 0.950 . S
C796 C795 1.414 . S
C796 C797 1.374 . S
C797 H777 0.950 . S
C797 C793 1.385 . S
C797 C796 1.374 . S
C798 C795 1.499 . S
C798 C799 1.373 . S
C798 C800 1.389 . S
C799 H778 0.950 . S
C799 C798 1.373 . S
C799 C815 1.377 . S
C800 C798 1.389 . S
C800 C801 1.524 . S
C800 C814 1.377 . S
C801 C800 1.524 . S
C801 C802 1.397 . S
C801 C806 1.363 . S
C802 H779 0.950 . S
C802 C801 1.397 . S
C802 C803 1.334 . S
C803 H780 0.950 . S
C803 C802 1.334 . S
C803 C804 1.287 . S
C804 C803 1.287 . S
C804 C805 1.524 . S
C804 H823 0.913 . S
C805 H781 0.950 . S
C805 C804 1.524 . S
C805 C806 1.415 . S
C806 H782 0.950 . S
C806 C801 1.363 . S
C806 C805 1.415 . S
C807 H783 0.951 . S
C807 C808 1.366 . S
C807 C809 1.388 . S
C808 C807 1.366 . S
C808 C812 1.385 . S
C809 H784 0.951 . S
C809 C807 1.388 . S
C809 C810 1.366 . S
C810 C809 1.366 . S
C810 C811 1.414 . S
C810 C813 1.499 . S
C811 H785 0.950 . S
C811 C810 1.414 . S
C811 C812 1.374 . S
C812 H786 0.950 . S
C812 C808 1.385 . S
C812 C811 1.374 . S
C813 C810 1.499 . S
C813 C814 1.373 . S
C813 C815 1.389 . S
C814 H787 0.950 . S
C814 C800 1.377 . S
C814 C813 1.373 . S
C815 C799 1.377 . S
C815 C813 1.389 . S
C815 C816 1.524 . S
C816 C815 1.524 . S
C816 C817 1.397 . S
C816 C821 1.363 . S
C817 H788 0.950 . S
C817 C816 1.397 . S
C817 C818 1.334 . S
C818 H789 0.950 . S
C818 C817 1.334 . S
C818 C819 1.287 . S
C819 C818 1.287 . S
C819 C820 1.524 . S
C819 H822 0.999 . S
C820 H790 0.950 . S
C820 C819 1.524 . S
C820 C821 1.415 . S
C821 H791 0.950 . S
C821 C816 1.363 . S
C821 C820 1.415 . S
H822 C819 0.999 . S
H823 C804 0.913 . S
H824 C842 0.951 . S
H825 C844 0.951 . S
H826 C846 0.950 . S
H827 C847 0.950 . S
H828 C849 0.950 . S
H829 C852 0.950 . S
H830 C853 0.950 . S
H831 C855 0.950 . S
H832 C856 0.950 . S
H833 C857 0.951 . S
H834 C859 0.951 . S
H835 C861 0.950 . S
H836 C862 0.950 . S
H837 C864 0.950 . S
H838 C867 0.950 . S
H839 C868 0.950 . S
H840 C870 0.950 . S
H841 C871 0.950 . S
C842 H824 0.951 . S
C842 C843 1.366 . S
C842 C844 1.388 . S
C843 C842 1.366 . S
C843 C847 1.385 . S
C844 H825 0.951 . S
C844 C842 1.388 . S
C844 C845 1.366 . S
C845 C844 1.366 . S
C845 C846 1.414 . S
C845 C848 1.499 . S
C846 H826 0.950 . S
C846 C845 1.414 . S
C846 C847 1.374 . S
C847 H827 0.950 . S
C847 C843 1.385 . S
C847 C846 1.374 . S
C848 C845 1.499 . S
C848 C849 1.373 . S
C848 C850 1.389 . S
C849 H828 0.950 . S
C849 C848 1.373 . S
C849 C865 1.377 . S
C850 C848 1.389 . S
C850 C851 1.524 . S
C850 C864 1.377 . S
C851 C850 1.524 . S
C851 C852 1.397 . S
C851 C856 1.363 . S
C852 H829 0.950 . S
C852 C851 1.397 . S
C852 C853 1.334 . S
C853 H830 0.950 . S
C853 C852 1.334 . S
C853 C854 1.287 . S
C854 C853 1.287 . S
C854 C855 1.524 . S
C854 H873 0.913 . S
C855 H831 0.950 . S
C855 C854 1.524 . S
C855 C856 1.415 . S
C856 H832 0.950 . S
C856 C851 1.363 . S
C856 C855 1.415 . S
C857 H833 0.951 . S
C857 C858 1.366 . S
C857 C859 1.388 . S
C858 C857 1.366 . S
C858 C862 1.385 . S
C859 H834 0.951 . S
C859 C857 1.388 . S
C859 C860 1.366 . S
C860 C859 1.366 . S
C860 C861 1.414 . S
C860 C863 1.499 . S
C861 H835 0.950 . S
C861 C860 1.414 . S
C861 C862 1.374 . S
C862 H836 0.950 . S
C862 C858 1.385 . S
C862 C861 1.374 . S
C863 C860 1.499 . S
C863 C864 1.373 . S
C863 C865 1.389 . S
C864 H837 0.950 . S
C864 C850 1.377 . S
C864 C863 1.373 . S
C865 C849 1.377 . S
C865 C863 1.389 . S
C865 C866 1.524 . S
C866 C865 1.524 . S
C866 C867 1.397 . S
C866 C871 1.363 . S
C867 H838 0.950 . S
C867 C866 1.397 . S
C867 C868 1.334 . S
C868 H839 0.950 . S
C868 C867 1.334 . S
C868 C869 1.287 . S
C869 C868 1.287 . S
C869 C870 1.524 . S
C869 H872 0.999 . S
C870 H840 0.950 . S
C870 C869 1.524 . S
C870 C871 1.415 . S
C871 H841 0.950 . S
C871 C866 1.363 . S
C871 C870 1.415 . S
H872 C869 0.999 . S
H873 C854 0.913 . S
H874 C892 0.951 . S
H875 C894 0.951 . S
H876 C896 0.950 . S
H877 C897 0.950 . S
H878 C899 0.950 . S
H879 C902 0.950 . S
H880 C903 0.950 . S
H881 C905 0.950 . S
H882 C906 0.950 . S
H883 C907 0.951 . S
H884 C909 0.951 . S
H885 C911 0.950 . S
H886 C912 0.950 . S
H887 C914 0.950 . S
H888 C917 0.950 . S
H889 C918 0.950 . S
H890 C920 0.950 . S
H891 C921 0.950 . S
C892 H874 0.951 . S
C892 C893 1.366 . S
C892 C894 1.388 . S
C893 C892 1.366 . S
C893 C897 1.385 . S
C894 H875 0.951 . S
C894 C892 1.388 . S
C894 C895 1.366 . S
C895 C894 1.366 . S
C895 C896 1.414 . S
C895 C898 1.499 . S
C896 H876 0.950 . S
C896 C895 1.414 . S
C896 C897 1.374 . S
C897 H877 0.950 . S
C897 C893 1.385 . S
C897 C896 1.374 . S
C898 C895 1.499 . S
C898 C899 1.373 . S
C898 C900 1.389 . S
C899 H878 0.950 . S
C899 C898 1.373 . S
C899 C915 1.377 . S
C900 C898 1.389 . S
C900 C901 1.524 . S
C900 C914 1.377 . S
C901 C900 1.524 . S
C901 C902 1.397 . S
C901 C906 1.363 . S
C902 H879 0.950 . S
C902 C901 1.397 . S
C902 C903 1.334 . S
C903 H880 0.950 . S
C903 C902 1.334 . S
C903 C904 1.287 . S
C904 C903 1.287 . S
C904 C905 1.524 . S
C904 H923 0.913 . S
C905 H881 0.950 . S
C905 C904 1.524 . S
C905 C906 1.415 . S
C906 H882 0.950 . S
C906 C901 1.363 . S
C906 C905 1.415 . S
C907 H883 0.951 . S
C907 C908 1.366 . S
C907 C909 1.388 . S
C908 C907 1.366 . S
C908 C912 1.385 . S
C909 H884 0.951 . S
C909 C907 1.388 . S
C909 C910 1.366 . S
C910 C909 1.366 . S
C910 C911 1.414 . S
C910 C913 1.499 . S
C911 H885 0.950 . S
C911 C910 1.414 . S
C911 C912 1.374 . S
C912 H886 0.950 . S
C912 C908 1.385 . S
C912 C911 1.374 . S
C913 C910 1.499 . S
C913 C914 1.373 . S
C913 C915 1.389 . S
C914 H887 0.950 . S
C914 C900 1.377 . S
C914 C913 1.373 . S
C915 C899 1.377 . S
C915 C913 1.389 . S
C915 C916 1.524 . S
C916 C915 1.524 . S
C916 C917 1.397 . S
C916 C921 1.363 . S
C917 H888 0.950 . S
C917 C916 1.397 . S
C917 C918 1.334 . S
C918 H889 0.950 . S
C918 C917 1.334 . S
C918 C919 1.287 . S
C919 C918 1.287 . S
C919 C920 1.524 . S
C919 H922 0.999 . S
C920 H890 0.950 . S
C920 C919 1.524 . S
C920 C921 1.415 . S
C921 H891 0.950 . S
C921 C916 1.363 . S
C921 C920 1.415 . S
H922 C919 0.999 . S
H923 C904 0.913 . S
H924 C942 0.951 . S
H925 C944 0.951 . S
H926 C946 0.950 . S
H927 C947 0.950 . S
H928 C949 0.950 . S
H929 C952 0.950 . S
H930 C953 0.950 . S
H931 C955 0.950 . S
H932 C956 0.950 . S
H933 C957 0.951 . S
H934 C959 0.951 . S
H935 C961 0.950 . S
H936 C962 0.950 . S
H937 C964 0.950 . S
H938 C967 0.950 . S
H939 C968 0.950 . S
H940 C970 0.950 . S
H941 C971 0.950 . S
C942 H924 0.951 . S
C942 C943 1.366 . S
C942 C944 1.388 . S
C943 C942 1.366 . S
C943 C947 1.385 . S
C944 H925 0.951 . S
C944 C942 1.388 . S
C944 C945 1.366 . S
C945 C944 1.366 . S
C945 C946 1.414 . S
C945 C948 1.499 . S
C946 H926 0.950 . S
C946 C945 1.414 . S
C946 C947 1.374 . S
C947 H927 0.950 . S
C947 C943 1.385 . S
C947 C946 1.374 . S
C948 C945 1.499 . S
C948 C949 1.373 . S
C948 C950 1.389 . S
C949 H928 0.950 . S
C949 C948 1.373 . S
C949 C965 1.377 . S
C950 C948 1.389 . S
C950 C951 1.524 . S
C950 C964 1.377 . S
C951 C950 1.524 . S
C951 C952 1.397 . S
C951 C956 1.363 . S
C952 H929 0.950 . S
C952 C951 1.397 . S
C952 C953 1.334 . S
C953 H930 0.950 . S
C953 C952 1.334 . S
C953 C954 1.287 . S
C954 C953 1.287 . S
C954 C955 1.524 . S
C954 H973 0.913 . S
C955 H931 0.950 . S
C955 C954 1.524 . S
C955 C956 1.415 . S
C956 H932 0.950 . S
C956 C951 1.363 . S
C956 C955 1.415 . S
C957 H933 0.951 . S
C957 C958 1.366 . S
C957 C959 1.388 . S
C958 C957 1.366 . S
C958 C962 1.385 . S
C959 H934 0.951 . S
C959 C957 1.388 . S
C959 C960 1.366 . S
C960 C959 1.366 . S
C960 C961 1.414 . S
C960 C963 1.499 . S
C961 H935 0.950 . S
C961 C960 1.414 . S
C961 C962 1.374 . S
C962 H936 0.950 . S
C962 C958 1.385 . S
C962 C961 1.374 . S
C963 C960 1.499 . S
C963 C964 1.373 . S
C963 C965 1.389 . S
C964 H937 0.950 . S
C964 C950 1.377 . S
C964 C963 1.373 . S
C965 C949 1.377 . S
C965 C963 1.389 . S
C965 C966 1.524 . S
C966 C965 1.524 . S
C966 C967 1.397 . S
C966 C971 1.363 . S
C967 H938 0.950 . S
C967 C966 1.397 . S
C967 C968 1.334 . S
C968 H939 0.950 . S
C968 C967 1.334 . S
C968 C969 1.287 . S
C969 C968 1.287 . S
C969 C970 1.524 . S
C969 H972 0.999 . S
C970 H940 0.950 . S
C970 C969 1.524 . S
C970 C971 1.415 . S
C971 H941 0.950 . S
C971 C966 1.363 . S
C971 C970 1.415 . S
H972 C969 0.999 . S
H973 C954 0.913 . S
H974 C992 0.951 . S
H975 C994 0.951 . S
H976 C996 0.950 . S
H977 C997 0.950 . S
H978 C999 0.950 . S
H979 C1002 0.950 . S
H980 C1003 0.950 . S
H981 C1005 0.950 . S
H982 C1006 0.950 . S
H983 C1007 0.951 . S
H984 C1009 0.951 . S
H985 C1011 0.950 . S
H986 C1012 0.950 . S
H987 C1014 0.950 . S
H988 C1017 0.950 . S
H989 C1018 0.950 . S
H990 C1020 0.950 . S
H991 C1021 0.950 . S
C992 H974 0.951 . S
C992 C993 1.366 . S
C992 C994 1.388 . S
C993 C992 1.366 . S
C993 C997 1.385 . S
C994 H975 0.951 . S
C994 C992 1.388 . S
C994 C995 1.366 . S
C995 C994 1.366 . S
C995 C996 1.414 . S
C995 C998 1.499 . S
C996 H976 0.950 . S
C996 C995 1.414 . S
C996 C997 1.374 . S
C997 H977 0.950 . S
C997 C993 1.385 . S
C997 C996 1.374 . S
C998 C995 1.499 . S
C998 C999 1.373 . S
C998 C1000 1.389 . S
C999 H978 0.950 . S
C999 C998 1.373 . S
C999 C1015 1.377 . S
C1000 C998 1.389 . S
C1000 C1001 1.524 . S
C1000 C1014 1.377 . S
C1001 C1000 1.524 . S
C1001 C1002 1.397 . S
C1001 C1006 1.363 . S
C1002 H979 0.950 . S
C1002 C1001 1.397 . S
C1002 C1003 1.334 . S
C1003 H980 0.950 . S
C1003 C1002 1.334 . S
C1003 C1004 1.287 . S
C1004 C1003 1.287 . S
C1004 C1005 1.524 . S
C1004 H1023 0.913 . S
C1005 H981 0.950 . S
C1005 C1004 1.524 . S
C1005 C1006 1.415 . S
C1006 H982 0.950 . S
C1006 C1001 1.363 . S
C1006 C1005 1.415 . S
C1007 H983 0.951 . S
C1007 C1008 1.366 . S
C1007 C1009 1.388 . S
C1008 C1007 1.366 . S
C1008 C1012 1.385 . S
C1009 H984 0.951 . S
C1009 C1007 1.388 . S
C1009 C1010 1.366 . S
C1010 C1009 1.366 . S
C1010 C1011 1.414 . S
C1010 C1013 1.499 . S
C1011 H985 0.950 . S
C1011 C1010 1.414 . S
C1011 C1012 1.374 . S
C1012 H986 0.950 . S
C1012 C1008 1.385 . S
C1012 C1011 1.374 . S
C1013 C1010 1.499 . S
C1013 C1014 1.373 . S
C1013 C1015 1.389 . S
C1014 H987 0.950 . S
C1014 C1000 1.377 . S
C1014 C1013 1.373 . S
C1015 C999 1.377 . S
C1015 C1013 1.389 . S
C1015 C1016 1.524 . S
C1016 C1015 1.524 . S
C1016 C1017 1.397 . S
C1016 C1021 1.363 . S
C1017 H988 0.950 . S
C1017 C1016 1.397 . S
C1017 C1018 1.334 . S
C1018 H989 0.950 . S
C1018 C1017 1.334 . S
C1018 C1019 1.287 . S
C1019 C1018 1.287 . S
C1019 C1020 1.524 . S
C1019 H1022 0.999 . S
C1020 H990 0.950 . S
C1020 C1019 1.524 . S
C1020 C1021 1.415 . S
C1021 H991 0.950 . S
C1021 C1016 1.363 . S
C1021 C1020 1.415 . S
H1022 C1019 0.999 . S
H1023 C1004 0.913 . S
H1024 C1042 0.951 . S
H1025 C1044 0.951 . S
H1026 C1046 0.950 . S
H1027 C1047 0.950 . S
H1028 C1049 0.950 . S
H1029 C1052 0.950 . S
H1030 C1053 0.950 . S
H1031 C1055 0.950 . S
H1032 C1056 0.950 . S
H1033 C1057 0.951 . S
H1034 C1059 0.951 . S
H1035 C1061 0.950 . S
H1036 C1062 0.950 . S
H1037 C1064 0.950 . S
H1038 C1067 0.950 . S
H1039 C1068 0.950 . S
H1040 C1070 0.950 . S
H1041 C1071 0.950 . S
C1042 H1024 0.951 . S
C1042 C1043 1.366 . S
C1042 C1044 1.388 . S
C1043 C1042 1.366 . S
C1043 C1047 1.385 . S
C1044 H1025 0.951 . S
C1044 C1042 1.388 . S
C1044 C1045 1.366 . S
C1045 C1044 1.366 . S
C1045 C1046 1.414 . S
C1045 C1048 1.499 . S
C1046 H1026 0.950 . S
C1046 C1045 1.414 . S
C1046 C1047 1.374 . S
C1047 H1027 0.950 . S
C1047 C1043 1.385 . S
C1047 C1046 1.374 . S
C1048 C1045 1.499 . S
C1048 C1049 1.373 . S
C1048 C1050 1.389 1_556 S
C1049 H1028 0.950 . S
C1049 C1048 1.373 . S
C1049 C1065 1.377 . S
C1050 C1048 1.389 1_554 S
C1050 C1051 1.524 . S
C1050 C1064 1.377 . S
C1051 C1050 1.524 . S
C1051 C1052 1.397 . S
C1051 C1056 1.363 . S
C1052 H1029 0.950 . S
C1052 C1051 1.397 . S
C1052 C1053 1.334 . S
C1053 H1030 0.950 . S
C1053 C1052 1.334 . S
C1053 C1054 1.287 . S
C1054 C1053 1.287 . S
C1054 C1055 1.524 . S
C1054 H1073 0.913 . S
C1055 H1031 0.950 . S
C1055 C1054 1.524 . S
C1055 C1056 1.415 . S
C1056 H1032 0.950 . S
C1056 C1051 1.363 . S
C1056 C1055 1.415 . S
C1057 H1033 0.951 . S
C1057 C1058 1.366 . S
C1057 C1059 1.388 . S
C1058 C1057 1.366 . S
C1058 C1062 1.385 . S
C1059 H1034 0.951 . S
C1059 C1057 1.388 . S
C1059 C1060 1.366 . S
C1060 C1059 1.366 . S
C1060 C1061 1.414 . S
C1060 C1063 1.499 . S
C1061 H1035 0.950 . S
C1061 C1060 1.414 . S
C1061 C1062 1.374 . S
C1062 H1036 0.950 . S
C1062 C1058 1.385 . S
C1062 C1061 1.374 . S
C1063 C1060 1.499 . S
C1063 C1064 1.373 . S
C1063 C1065 1.389 1_554 S
C1064 H1037 0.950 . S
C1064 C1050 1.377 . S
C1064 C1063 1.373 . S
C1065 C1049 1.377 . S
C1065 C1063 1.389 1_556 S
C1065 C1066 1.524 . S
C1066 C1065 1.524 . S
C1066 C1067 1.397 . S
C1066 C1071 1.363 . S
C1067 H1038 0.950 . S
C1067 C1066 1.397 . S
C1067 C1068 1.334 . S
C1068 H1039 0.950 . S
C1068 C1067 1.334 . S
C1068 C1069 1.287 . S
C1069 C1068 1.287 . S
C1069 C1070 1.524 . S
C1069 H1072 0.999 . S
C1070 H1040 0.950 . S
C1070 C1069 1.524 . S
C1070 C1071 1.415 . S
C1071 H1041 0.950 . S
C1071 C1066 1.363 . S
C1071 C1070 1.415 . S
H1072 C1069 0.999 . S
H1073 C1054 0.913 . S
H1074 C1092 0.951 . S
H1075 C1094 0.951 . S
H1076 C1096 0.950 . S
H1077 C1097 0.950 . S
H1078 C1099 0.950 . S
H1079 C1102 0.950 . S
H1080 C1103 0.950 . S
H1081 C1105 0.950 . S
H1082 C1106 0.950 . S
H1083 C1107 0.951 . S
H1084 C1109 0.951 . S
H1085 C1111 0.950 . S
H1086 C1112 0.950 . S
H1087 C1114 0.950 . S
H1088 C1117 0.950 . S
H1089 C1118 0.950 . S
H1090 C1120 0.950 . S
H1091 C1121 0.950 . S
C1092 H1074 0.951 . S
C1092 C1093 1.366 . S
C1092 C1094 1.388 . S
C1093 C1092 1.366 . S
C1093 C1097 1.385 . S
C1094 H1075 0.951 . S
C1094 C1092 1.388 . S
C1094 C1095 1.366 . S
C1095 C1094 1.366 . S
C1095 C1096 1.414 . S
C1095 C1098 1.499 . S
C1096 H1076 0.950 . S
C1096 C1095 1.414 . S
C1096 C1097 1.374 . S
C1097 H1077 0.950 . S
C1097 C1093 1.385 . S
C1097 C1096 1.374 . S
C1098 C1095 1.499 . S
C1098 C1099 1.373 . S
C1098 C1100 1.389 . S
C1099 H1078 0.950 . S
C1099 C1098 1.373 . S
C1099 C1115 1.377 . S
C1100 C1098 1.389 . S
C1100 C1101 1.524 . S
C1100 C1114 1.377 . S
C1101 C1100 1.524 . S
C1101 C1102 1.397 . S
C1101 C1106 1.363 . S
C1102 H1079 0.950 . S
C1102 C1101 1.397 . S
C1102 C1103 1.334 . S
C1103 H1080 0.950 . S
C1103 C1102 1.334 . S
C1103 C1104 1.287 . S
C1104 C1103 1.287 . S
C1104 C1105 1.524 . S
C1104 H1123 0.913 . S
C1105 H1081 0.950 . S
C1105 C1104 1.524 . S
C1105 C1106 1.415 . S
C1106 H1082 0.950 . S
C1106 C1101 1.363 . S
C1106 C1105 1.415 . S
C1107 H1083 0.951 . S
C1107 C1108 1.366 . S
C1107 C1109 1.388 . S
C1108 C1107 1.366 . S
C1108 C1112 1.385 . S
C1109 H1084 0.951 . S
C1109 C1107 1.388 . S
C1109 C1110 1.366 . S
C1110 C1109 1.366 . S
C1110 C1111 1.414 . S
C1110 C1113 1.499 . S
C1111 H1085 0.950 . S
C1111 C1110 1.414 . S
C1111 C1112 1.374 . S
C1112 H1086 0.950 . S
C1112 C1108 1.385 . S
C1112 C1111 1.374 . S
C1113 C1110 1.499 . S
C1113 C1114 1.373 . S
C1113 C1115 1.389 . S
C1114 H1087 0.950 . S
C1114 C1100 1.377 . S
C1114 C1113 1.373 . S
C1115 C1099 1.377 . S
C1115 C1113 1.389 . S
C1115 C1116 1.524 . S
C1116 C1115 1.524 . S
C1116 C1117 1.397 . S
C1116 C1121 1.363 . S
C1117 H1088 0.950 . S
C1117 C1116 1.397 . S
C1117 C1118 1.334 . S
C1118 H1089 0.950 . S
C1118 C1117 1.334 . S
C1118 C1119 1.287 . S
C1119 C1118 1.287 . S
C1119 C1120 1.524 . S
C1119 H1122 0.999 . S
C1120 H1090 0.950 . S
C1120 C1119 1.524 . S
C1120 C1121 1.415 . S
C1121 H1091 0.950 . S
C1121 C1116 1.363 . S
C1121 C1120 1.415 . S
H1122 C1119 0.999 . S
H1123 C1104 0.913 . S
H1124 C1142 0.951 . S
H1125 C1144 0.951 . S
H1126 C1146 0.950 . S
H1127 C1147 0.950 . S
H1128 C1149 0.950 . S
H1129 C1152 0.950 . S
H1130 C1153 0.950 . S
H1131 C1155 0.950 . S
H1132 C1156 0.950 . S
H1133 C1157 0.951 . S
H1134 C1159 0.951 . S
H1135 C1161 0.950 . S
H1136 C1162 0.950 . S
H1137 C1164 0.950 . S
H1138 C1167 0.950 . S
H1139 C1168 0.950 . S
H1140 C1170 0.950 . S
H1141 C1171 0.950 . S
C1142 H1124 0.951 . S
C1142 C1143 1.366 . S
C1142 C1144 1.388 . S
C1143 C1142 1.366 . S
C1143 C1147 1.385 . S
C1144 H1125 0.951 . S
C1144 C1142 1.388 . S
C1144 C1145 1.366 . S
C1145 C1144 1.366 . S
C1145 C1146 1.414 . S
C1145 C1148 1.499 . S
C1146 H1126 0.950 . S
C1146 C1145 1.414 . S
C1146 C1147 1.374 . S
C1147 H1127 0.950 . S
C1147 C1143 1.385 . S
C1147 C1146 1.374 . S
C1148 C1145 1.499 . S
C1148 C1149 1.373 . S
C1148 C1150 1.389 1_554 S
C1149 H1128 0.950 . S
C1149 C1148 1.373 . S
C1149 C1165 1.377 . S
C1150 C1148 1.389 1_556 S
C1150 C1151 1.524 . S
C1150 C1164 1.377 . S
C1151 C1150 1.524 . S
C1151 C1152 1.397 . S
C1151 C1156 1.363 . S
C1152 H1129 0.950 . S
C1152 C1151 1.397 . S
C1152 C1153 1.334 . S
C1153 H1130 0.950 . S
C1153 C1152 1.334 . S
C1153 C1154 1.287 . S
C1154 C1153 1.287 . S
C1154 C1155 1.524 . S
C1154 H1173 0.913 . S
C1155 H1131 0.950 . S
C1155 C1154 1.524 . S
C1155 C1156 1.415 . S
C1156 H1132 0.950 . S
C1156 C1151 1.363 . S
C1156 C1155 1.415 . S
C1157 H1133 0.951 . S
C1157 C1158 1.366 . S
C1157 C1159 1.388 . S
C1158 C1157 1.366 . S
C1158 C1162 1.385 . S
C1159 H1134 0.951 . S
C1159 C1157 1.388 . S
C1159 C1160 1.366 . S
C1160 C1159 1.366 . S
C1160 C1161 1.414 . S
C1160 C1163 1.499 . S
C1161 H1135 0.950 . S
C1161 C1160 1.414 . S
C1161 C1162 1.374 . S
C1162 H1136 0.950 . S
C1162 C1158 1.385 . S
C1162 C1161 1.374 . S
C1163 C1160 1.499 . S
C1163 C1164 1.373 . S
C1163 C1165 1.389 1_556 S
C1164 H1137 0.950 . S
C1164 C1150 1.377 . S
C1164 C1163 1.373 . S
C1165 C1149 1.377 . S
C1165 C1163 1.389 1_554 S
C1165 C1166 1.524 . S
C1166 C1165 1.524 . S
C1166 C1167 1.397 . S
C1166 C1171 1.363 . S
C1167 H1138 0.950 . S
C1167 C1166 1.397 . S
C1167 C1168 1.334 . S
C1168 H1139 0.950 . S
C1168 C1167 1.334 . S
C1168 C1169 1.287 . S
C1169 C1168 1.287 . S
C1169 C1170 1.524 . S
C1169 H1172 0.999 . S
C1170 H1140 0.950 . S
C1170 C1169 1.524 . S
C1170 C1171 1.415 . S
C1171 H1141 0.950 . S
C1171 C1166 1.363 . S
C1171 C1170 1.415 . S
H1172 C1169 0.999 . S
H1173 C1154 0.913 . S
H1174 C1192 0.951 . S
H1175 C1194 0.951 . S
H1176 C1196 0.950 . S
H1177 C1197 0.950 . S
H1178 C1199 0.950 . S
H1179 C1202 0.950 . S
H1180 C1203 0.950 . S
H1181 C1205 0.950 . S
H1182 C1206 0.950 . S
H1183 C1207 0.951 . S
H1184 C1209 0.951 . S
H1185 C1211 0.950 . S
H1186 C1212 0.950 . S
H1187 C1214 0.950 . S
H1188 C1217 0.950 . S
H1189 C1218 0.950 . S
H1190 C1220 0.950 . S
H1191 C1221 0.950 . S
C1192 H1174 0.951 . S
C1192 C1193 1.366 . S
C1192 C1194 1.388 . S
C1193 C1192 1.366 . S
C1193 C1197 1.385 . S
C1194 H1175 0.951 . S
C1194 C1192 1.388 . S
C1194 C1195 1.366 . S
C1195 C1194 1.366 . S
C1195 C1196 1.414 . S
C1195 C1198 1.499 . S
C1196 H1176 0.950 . S
C1196 C1195 1.414 . S
C1196 C1197 1.374 . S
C1197 H1177 0.950 . S
C1197 C1193 1.385 . S
C1197 C1196 1.374 . S
C1198 C1195 1.499 . S
C1198 C1199 1.373 . S
C1198 C1200 1.389 . S
C1199 H1178 0.950 . S
C1199 C1198 1.373 . S
C1199 C1215 1.377 . S
C1200 C1198 1.389 . S
C1200 C1201 1.524 . S
C1200 C1214 1.377 . S
C1201 C1200 1.524 . S
C1201 C1202 1.397 . S
C1201 C1206 1.363 . S
C1202 H1179 0.950 . S
C1202 C1201 1.397 . S
C1202 C1203 1.334 . S
C1203 H1180 0.950 . S
C1203 C1202 1.334 . S
C1203 C1204 1.287 . S
C1204 C1203 1.287 . S
C1204 C1205 1.524 . S
C1204 H1223 0.913 . S
C1205 H1181 0.950 . S
C1205 C1204 1.524 . S
C1205 C1206 1.415 . S
C1206 H1182 0.950 . S
C1206 C1201 1.363 . S
C1206 C1205 1.415 . S
C1207 H1183 0.951 . S
C1207 C1208 1.366 . S
C1207 C1209 1.388 . S
C1208 C1207 1.366 . S
C1208 C1212 1.385 . S
C1209 H1184 0.951 . S
C1209 C1207 1.388 . S
C1209 C1210 1.366 . S
C1210 C1209 1.366 . S
C1210 C1211 1.414 . S
C1210 C1213 1.499 . S
C1211 H1185 0.950 . S
C1211 C1210 1.414 . S
C1211 C1212 1.374 . S
C1212 H1186 0.950 . S
C1212 C1208 1.385 . S
C1212 C1211 1.374 . S
C1213 C1210 1.499 . S
C1213 C1214 1.373 . S
C1213 C1215 1.389 . S
C1214 H1187 0.950 . S
C1214 C1200 1.377 . S
C1214 C1213 1.373 . S
C1215 C1199 1.377 . S
C1215 C1213 1.389 . S
C1215 C1216 1.524 . S
C1216 C1215 1.524 . S
C1216 C1217 1.397 . S
C1216 C1221 1.363 . S
C1217 H1188 0.950 . S
C1217 C1216 1.397 . S
C1217 C1218 1.334 . S
C1218 H1189 0.950 . S
C1218 C1217 1.334 . S
C1218 C1219 1.287 . S
C1219 C1218 1.287 . S
C1219 C1220 1.524 . S
C1219 H1222 0.999 . S
C1220 H1190 0.950 . S
C1220 C1219 1.524 . S
C1220 C1221 1.415 . S
C1221 H1191 0.950 . S
C1221 C1216 1.363 . S
C1221 C1220 1.415 . S
H1222 C1219 0.999 . S
H1223 C1204 0.913 . S
H1224 C1242 0.951 . S
H1225 C1244 0.951 . S
H1226 C1246 0.950 . S
H1227 C1247 0.950 . S
H1228 C1249 0.950 . S
H1229 C1252 0.950 . S
H1230 C1253 0.950 . S
H1231 C1255 0.950 . S
H1232 C1256 0.950 . S
H1233 C1257 0.951 . S
H1234 C1259 0.951 . S
H1235 C1261 0.950 . S
H1236 C1262 0.950 . S
H1237 C1264 0.950 . S
H1238 C1267 0.950 . S
H1239 C1268 0.950 . S
H1240 C1270 0.950 . S
H1241 C1271 0.950 . S
C1242 H1224 0.951 . S
C1242 C1243 1.366 . S
C1242 C1244 1.388 . S
C1243 C1242 1.366 . S
C1243 C1247 1.385 . S
C1244 H1225 0.951 . S
C1244 C1242 1.388 . S
C1244 C1245 1.366 . S
C1245 C1244 1.366 . S
C1245 C1246 1.414 . S
C1245 C1248 1.499 . S
C1246 H1226 0.950 . S
C1246 C1245 1.414 . S
C1246 C1247 1.374 . S
C1247 H1227 0.950 . S
C1247 C1243 1.385 . S
C1247 C1246 1.374 . S
C1248 C1245 1.499 . S
C1248 C1249 1.373 . S
C1248 C1250 1.389 1_554 S
C1249 H1228 0.950 . S
C1249 C1248 1.373 . S
C1249 C1265 1.377 . S
C1250 C1248 1.389 1_556 S
C1250 C1251 1.524 . S
C1250 C1264 1.377 . S
C1251 C1250 1.524 . S
C1251 C1252 1.397 . S
C1251 C1256 1.363 . S
C1252 H1229 0.950 . S
C1252 C1251 1.397 . S
C1252 C1253 1.334 . S
C1253 H1230 0.950 . S
C1253 C1252 1.334 . S
C1253 C1254 1.287 . S
C1254 C1253 1.287 . S
C1254 C1255 1.524 . S
C1254 H1273 0.913 . S
C1255 H1231 0.950 . S
C1255 C1254 1.524 . S
C1255 C1256 1.415 . S
C1256 H1232 0.950 . S
C1256 C1251 1.363 . S
C1256 C1255 1.415 . S
C1257 H1233 0.951 . S
C1257 C1258 1.366 . S
C1257 C1259 1.388 . S
C1258 C1257 1.366 . S
C1258 C1262 1.385 . S
C1259 H1234 0.951 . S
C1259 C1257 1.388 . S
C1259 C1260 1.366 . S
C1260 C1259 1.366 . S
C1260 C1261 1.414 . S
C1260 C1263 1.499 . S
C1261 H1235 0.950 . S
C1261 C1260 1.414 . S
C1261 C1262 1.374 . S
C1262 H1236 0.950 . S
C1262 C1258 1.385 . S
C1262 C1261 1.374 . S
C1263 C1260 1.499 . S
C1263 C1264 1.373 . S
C1263 C1265 1.389 1_556 S
C1264 H1237 0.950 . S
C1264 C1250 1.377 . S
C1264 C1263 1.373 . S
C1265 C1249 1.377 . S
C1265 C1263 1.389 1_554 S
C1265 C1266 1.524 . S
C1266 C1265 1.524 . S
C1266 C1267 1.397 . S
C1266 C1271 1.363 . S
C1267 H1238 0.950 . S
C1267 C1266 1.397 . S
C1267 C1268 1.334 . S
C1268 H1239 0.950 . S
C1268 C1267 1.334 . S
C1268 C1269 1.287 . S
C1269 C1268 1.287 . S
C1269 C1270 1.524 . S
C1269 H1272 0.999 . S
C1270 H1240 0.950 . S
C1270 C1269 1.524 . S
C1270 C1271 1.415 . S
C1271 H1241 0.950 . S
C1271 C1266 1.363 . S
C1271 C1270 1.415 . S
H1272 C1269 0.999 . S
H1273 C1254 0.913 . S
H1274 C1292 0.951 . S
H1275 C1294 0.951 . S
H1276 C1296 0.950 . S
H1277 C1297 0.950 . S
H1278 C1299 0.950 . S
H1279 C1302 0.950 . S
H1280 C1303 0.950 . S
H1281 C1305 0.950 . S
H1282 C1306 0.950 . S
H1283 C1307 0.951 . S
H1284 C1309 0.951 . S
H1285 C1311 0.950 . S
H1286 C1312 0.950 . S
H1287 C1314 0.950 . S
H1288 C1317 0.950 . S
H1289 C1318 0.950 . S
H1290 C1320 0.950 . S
H1291 C1321 0.950 . S
C1292 H1274 0.951 . S
C1292 C1293 1.366 . S
C1292 C1294 1.388 . S
C1293 C1292 1.366 . S
C1293 C1297 1.385 . S
C1294 H1275 0.951 . S
C1294 C1292 1.388 . S
C1294 C1295 1.366 . S
C1295 C1294 1.366 . S
C1295 C1296 1.414 . S
C1295 C1298 1.499 . S
C1296 H1276 0.950 . S
C1296 C1295 1.414 . S
C1296 C1297 1.374 . S
C1297 H1277 0.950 . S
C1297 C1293 1.385 . S
C1297 C1296 1.374 . S
C1298 C1295 1.499 . S
C1298 C1299 1.373 . S
C1298 C1300 1.389 . S
C1299 H1278 0.950 . S
C1299 C1298 1.373 . S
C1299 C1315 1.377 . S
C1300 C1298 1.389 . S
C1300 C1301 1.524 . S
C1300 C1314 1.377 . S
C1301 C1300 1.524 . S
C1301 C1302 1.397 . S
C1301 C1306 1.363 . S
C1302 H1279 0.950 . S
C1302 C1301 1.397 . S
C1302 C1303 1.334 . S
C1303 H1280 0.950 . S
C1303 C1302 1.334 . S
C1303 C1304 1.287 . S
C1304 C1303 1.287 . S
C1304 C1305 1.524 . S
C1304 H1323 0.913 . S
C1305 H1281 0.950 . S
C1305 C1304 1.524 . S
C1305 C1306 1.415 . S
C1306 H1282 0.950 . S
C1306 C1301 1.363 . S
C1306 C1305 1.415 . S
C1307 H1283 0.951 . S
C1307 C1308 1.366 . S
C1307 C1309 1.388 . S
C1308 C1307 1.366 . S
C1308 C1312 1.385 . S
C1309 H1284 0.951 . S
C1309 C1307 1.388 . S
C1309 C1310 1.366 . S
C1310 C1309 1.366 . S
C1310 C1311 1.414 . S
C1310 C1313 1.499 . S
C1311 H1285 0.950 . S
C1311 C1310 1.414 . S
C1311 C1312 1.374 . S
C1312 H1286 0.950 . S
C1312 C1308 1.385 . S
C1312 C1311 1.374 . S
C1313 C1310 1.499 . S
C1313 C1314 1.373 . S
C1313 C1315 1.389 . S
C1314 H1287 0.950 . S
C1314 C1300 1.377 . S
C1314 C1313 1.373 . S
C1315 C1299 1.377 . S
C1315 C1313 1.389 . S
C1315 C1316 1.524 . S
C1316 C1315 1.524 . S
C1316 C1317 1.397 . S
C1316 C1321 1.363 . S
C1317 H1288 0.950 . S
C1317 C1316 1.397 . S
C1317 C1318 1.334 . S
C1318 H1289 0.950 . S
C1318 C1317 1.334 . S
C1318 C1319 1.287 . S
C1319 C1318 1.287 . S
C1319 C1320 1.524 . S
C1319 H1322 0.999 . S
C1320 H1290 0.950 . S
C1320 C1319 1.524 . S
C1320 C1321 1.415 . S
C1321 H1291 0.950 . S
C1321 C1316 1.363 . S
C1321 C1320 1.415 . S
H1322 C1319 0.999 . S
H1323 C1304 0.913 . S
H1324 C1342 0.951 . S
H1325 C1344 0.951 . S
H1326 C1346 0.950 . S
H1327 C1347 0.950 . S
H1328 C1349 0.950 . S
H1329 C1352 0.950 . S
H1330 C1353 0.950 . S
H1331 C1355 0.950 . S
H1332 C1356 0.950 1_556 S
H1333 C1357 0.951 . S
H1334 C1359 0.951 . S
H1335 C1361 0.950 . S
H1336 C1362 0.950 . S
H1337 C1364 0.950 . S
H1338 C1367 0.950 . S
H1339 C1368 0.950 . S
H1340 C1370 0.950 . S
H1341 C1371 0.950 1_554 S
C1342 H1324 0.951 . S
C1342 C1343 1.366 . S
C1342 C1344 1.388 . S
C1343 C1342 1.366 . S
C1343 C1347 1.385 . S
C1344 H1325 0.951 . S
C1344 C1342 1.388 . S
C1344 C1345 1.366 . S
C1345 C1344 1.366 . S
C1345 C1346 1.414 . S
C1345 C1348 1.499 . S
C1346 H1326 0.950 . S
C1346 C1345 1.414 . S
C1346 C1347 1.374 . S
C1347 H1327 0.950 . S
C1347 C1343 1.385 . S
C1347 C1346 1.374 . S
C1348 C1345 1.499 . S
C1348 C1349 1.373 . S
C1348 C1350 1.389 . S
C1349 H1328 0.950 . S
C1349 C1348 1.373 . S
C1349 C1365 1.377 1_554 S
C1350 C1348 1.389 . S
C1350 C1351 1.524 . S
C1350 C1364 1.377 1_554 S
C1351 C1350 1.524 . S
C1351 C1352 1.397 . S
C1351 C1356 1.363 . S
C1352 H1329 0.950 . S
C1352 C1351 1.397 . S
C1352 C1353 1.334 . S
C1353 H1330 0.950 . S
C1353 C1352 1.334 . S
C1353 C1354 1.287 . S
C1354 C1353 1.287 . S
C1354 C1355 1.524 . S
C1354 H1373 0.913 . S
C1355 H1331 0.950 . S
C1355 C1354 1.524 . S
C1355 C1356 1.415 . S
C1356 H1332 0.950 1_554 S
C1356 C1351 1.363 . S
C1356 C1355 1.415 . S
C1357 H1333 0.951 . S
C1357 C1358 1.366 . S
C1357 C1359 1.388 . S
C1358 C1357 1.366 . S
C1358 C1362 1.385 . S
C1359 H1334 0.951 . S
C1359 C1357 1.388 . S
C1359 C1360 1.366 . S
C1360 C1359 1.366 . S
C1360 C1361 1.414 . S
C1360 C1363 1.499 . S
C1361 H1335 0.950 . S
C1361 C1360 1.414 . S
C1361 C1362 1.374 . S
C1362 H1336 0.950 . S
C1362 C1358 1.385 . S
C1362 C1361 1.374 . S
C1363 C1360 1.499 . S
C1363 C1364 1.373 . S
C1363 C1365 1.389 . S
C1364 H1337 0.950 . S
C1364 C1350 1.377 1_556 S
C1364 C1363 1.373 . S
C1365 C1349 1.377 1_556 S
C1365 C1363 1.389 . S
C1365 C1366 1.524 . S
C1366 C1365 1.524 . S
C1366 C1367 1.397 . S
C1366 C1371 1.363 . S
C1367 H1338 0.950 . S
C1367 C1366 1.397 . S
C1367 C1368 1.334 . S
C1368 H1339 0.950 . S
C1368 C1367 1.334 . S
C1368 C1369 1.287 . S
C1369 C1368 1.287 . S
C1369 C1370 1.524 . S
C1369 H1372 0.999 . S
C1370 H1340 0.950 . S
C1370 C1369 1.524 . S
C1370 C1371 1.415 . S
C1371 H1341 0.950 1_556 S
C1371 C1366 1.363 . S
C1371 C1370 1.415 . S
H1372 C1369 0.999 . S
H1373 C1354 0.913 . S
H1374 C1392 0.951 . S
H1375 C1394 0.951 . S
H1376 C1396 0.950 . S
H1377 C1397 0.950 . S
H1378 C1399 0.950 . S
H1379 C1402 0.950 . S
H1380 C1403 0.950 . S
H1381 C1405 0.950 . S
H1382 C1406 0.950 . S
H1383 C1407 0.951 . S
H1384 C1409 0.951 . S
H1385 C1411 0.950 . S
H1386 C1412 0.950 . S
H1387 C1414 0.950 . S
H1388 C1417 0.950 . S
H1389 C1418 0.950 . S
H1390 C1420 0.950 . S
H1391 C1421 0.950 . S
C1392 H1374 0.951 . S
C1392 C1393 1.366 . S
C1392 C1394 1.388 . S
C1393 C1392 1.366 . S
C1393 C1397 1.385 . S
C1394 H1375 0.951 . S
C1394 C1392 1.388 . S
C1394 C1395 1.366 . S
C1395 C1394 1.366 . S
C1395 C1396 1.414 . S
C1395 C1398 1.499 . S
C1396 H1376 0.950 . S
C1396 C1395 1.414 . S
C1396 C1397 1.374 . S
C1397 H1377 0.950 . S
C1397 C1393 1.385 . S
C1397 C1396 1.374 . S
C1398 C1395 1.499 . S
C1398 C1399 1.373 . S
C1398 C1400 1.389 . S
C1399 H1378 0.950 . S
C1399 C1398 1.373 . S
C1399 C1415 1.377 . S
C1400 C1398 1.389 . S
C1400 C1401 1.524 . S
C1400 C1414 1.377 . S
C1401 C1400 1.524 . S
C1401 C1402 1.397 . S
C1401 C1406 1.363 . S
C1402 H1379 0.950 . S
C1402 C1401 1.397 . S
C1402 C1403 1.334 . S
C1403 H1380 0.950 . S
C1403 C1402 1.334 . S
C1403 C1404 1.287 . S
C1404 C1403 1.287 . S
C1404 C1405 1.524 . S
C1404 H1423 0.913 . S
C1405 H1381 0.950 . S
C1405 C1404 1.524 . S
C1405 C1406 1.415 . S
C1406 H1382 0.950 . S
C1406 C1401 1.363 . S
C1406 C1405 1.415 . S
C1407 H1383 0.951 . S
C1407 C1408 1.366 . S
C1407 C1409 1.388 . S
C1408 C1407 1.366 . S
C1408 C1412 1.385 . S
C1409 H1384 0.951 . S
C1409 C1407 1.388 . S
C1409 C1410 1.366 . S
C1410 C1409 1.366 . S
C1410 C1411 1.414 . S
C1410 C1413 1.499 . S
C1411 H1385 0.950 . S
C1411 C1410 1.414 . S
C1411 C1412 1.374 . S
C1412 H1386 0.950 . S
C1412 C1408 1.385 . S
C1412 C1411 1.374 . S
C1413 C1410 1.499 . S
C1413 C1414 1.373 . S
C1413 C1415 1.389 . S
C1414 H1387 0.950 . S
C1414 C1400 1.377 . S
C1414 C1413 1.373 . S
C1415 C1399 1.377 . S
C1415 C1413 1.389 . S
C1415 C1416 1.524 . S
C1416 C1415 1.524 . S
C1416 C1417 1.397 . S
C1416 C1421 1.363 . S
C1417 H1388 0.950 . S
C1417 C1416 1.397 . S
C1417 C1418 1.334 . S
C1418 H1389 0.950 . S
C1418 C1417 1.334 . S
C1418 C1419 1.287 . S
C1419 C1418 1.287 . S
C1419 C1420 1.524 . S
C1419 H1422 0.999 . S
C1420 H1390 0.950 . S
C1420 C1419 1.524 . S
C1420 C1421 1.415 . S
C1421 H1391 0.950 . S
C1421 C1416 1.363 . S
C1421 C1420 1.415 . S
H1422 C1419 0.999 . S
H1423 C1404 0.913 . S
H1424 C1442 0.951 . S
H1425 C1444 0.951 1_554 S
H1426 C1446 0.950 . S
H1427 C1447 0.950 . S
H1428 C1449 0.950 . S
H1429 C1452 0.950 . S
H1430 C1453 0.950 . S
H1431 C1455 0.950 . S
H1432 C1456 0.950 . S
H1433 C1457 0.951 . S
H1434 C1459 0.951 1_556 S
H1435 C1461 0.950 . S
H1436 C1462 0.950 . S
H1437 C1464 0.950 . S
H1438 C1467 0.950 . S
H1439 C1468 0.950 . S
H1440 C1470 0.950 . S
H1441 C1471 0.950 . S
C1442 H1424 0.951 . S
C1442 C1443 1.366 . S
C1442 C1444 1.388 . S
C1443 C1442 1.366 . S
C1443 C1447 1.385 . S
C1444 H1425 0.951 1_556 S
C1444 C1442 1.388 . S
C1444 C1445 1.366 . S
C1445 C1444 1.366 . S
C1445 C1446 1.414 . S
C1445 C1448 1.499 . S
C1446 H1426 0.950 . S
C1446 C1445 1.414 . S
C1446 C1447 1.374 . S
C1447 H1427 0.950 . S
C1447 C1443 1.385 . S
C1447 C1446 1.374 . S
C1448 C1445 1.499 . S
C1448 C1449 1.373 . S
C1448 C1450 1.389 1_556 S
C1449 H1428 0.950 . S
C1449 C1448 1.373 . S
C1449 C1465 1.377 . S
C1450 C1448 1.389 1_554 S
C1450 C1451 1.524 . S
C1450 C1464 1.377 . S
C1451 C1450 1.524 . S
C1451 C1452 1.397 . S
C1451 C1456 1.363 . S
C1452 H1429 0.950 . S
C1452 C1451 1.397 . S
C1452 C1453 1.334 . S
C1453 H1430 0.950 . S
C1453 C1452 1.334 . S
C1453 C1454 1.287 . S
C1454 C1453 1.287 . S
C1454 C1455 1.524 . S
C1454 H1473 0.913 . S
C1455 H1431 0.950 . S
C1455 C1454 1.524 . S
C1455 C1456 1.415 . S
C1456 H1432 0.950 . S
C1456 C1451 1.363 . S
C1456 C1455 1.415 . S
C1457 H1433 0.951 . S
C1457 C1458 1.366 . S
C1457 C1459 1.388 . S
C1458 C1457 1.366 . S
C1458 C1462 1.385 . S
C1459 H1434 0.951 1_554 S
C1459 C1457 1.388 . S
C1459 C1460 1.366 . S
C1460 C1459 1.366 . S
C1460 C1461 1.414 . S
C1460 C1463 1.499 . S
C1461 H1435 0.950 . S
C1461 C1460 1.414 . S
C1461 C1462 1.374 . S
C1462 H1436 0.950 . S
C1462 C1458 1.385 . S
C1462 C1461 1.374 . S
C1463 C1460 1.499 . S
C1463 C1464 1.373 . S
C1463 C1465 1.389 1_554 S
C1464 H1437 0.950 . S
C1464 C1450 1.377 . S
C1464 C1463 1.373 . S
C1465 C1449 1.377 . S
C1465 C1463 1.389 1_556 S
C1465 C1466 1.524 . S
C1466 C1465 1.524 . S
C1466 C1467 1.397 . S
C1466 C1471 1.363 . S
C1467 H1438 0.950 . S
C1467 C1466 1.397 . S
C1467 C1468 1.334 . S
C1468 H1439 0.950 . S
C1468 C1467 1.334 . S
C1468 C1469 1.287 . S
C1469 C1468 1.287 . S
C1469 C1470 1.524 . S
C1469 H1472 0.999 . S
C1470 H1440 0.950 . S
C1470 C1469 1.524 . S
C1470 C1471 1.415 . S
C1471 H1441 0.950 . S
C1471 C1466 1.363 . S
C1471 C1470 1.415 . S
H1472 C1469 0.999 . S
H1473 C1454 0.913 . S
H1474 C1492 0.951 . S
H1475 C1494 0.951 . S
H1476 C1496 0.950 . S
H1477 C1497 0.950 . S
H1478 C1499 0.950 . S
H1479 C1502 0.950 . S
H1480 C1503 0.950 . S
H1481 C1505 0.950 . S
H1482 C1506 0.950 . S
H1483 C1507 0.951 . S
H1484 C1509 0.951 . S
H1485 C1511 0.950 . S
H1486 C1512 0.950 . S
H1487 C1514 0.950 . S
H1488 C1517 0.950 . S
H1489 C1518 0.950 . S
H1490 C1520 0.950 . S
H1491 C1521 0.950 . S
C1492 H1474 0.951 . S
C1492 C1493 1.366 . S
C1492 C1494 1.388 . S
C1493 C1492 1.366 . S
C1493 C1497 1.385 . S
C1494 H1475 0.951 . S
C1494 C1492 1.388 . S
C1494 C1495 1.366 . S
C1495 C1494 1.366 . S
C1495 C1496 1.414 . S
C1495 C1498 1.499 . S
C1496 H1476 0.950 . S
C1496 C1495 1.414 . S
C1496 C1497 1.374 . S
C1497 H1477 0.950 . S
C1497 C1493 1.385 . S
C1497 C1496 1.374 . S
C1498 C1495 1.499 . S
C1498 C1499 1.373 . S
C1498 C1500 1.389 . S
C1499 H1478 0.950 . S
C1499 C1498 1.373 . S
C1499 C1515 1.377 . S
C1500 C1498 1.389 . S
C1500 C1501 1.524 . S
C1500 C1514 1.377 . S
C1501 C1500 1.524 . S
C1501 C1502 1.397 . S
C1501 C1506 1.363 . S
C1502 H1479 0.950 . S
C1502 C1501 1.397 . S
C1502 C1503 1.334 . S
C1503 H1480 0.950 . S
C1503 C1502 1.334 . S
C1503 C1504 1.287 . S
C1504 C1503 1.287 . S
C1504 C1505 1.524 . S
C1504 H1523 0.913 . S
C1505 H1481 0.950 . S
C1505 C1504 1.524 . S
C1505 C1506 1.415 . S
C1506 H1482 0.950 . S
C1506 C1501 1.363 . S
C1506 C1505 1.415 . S
C1507 H1483 0.951 . S
C1507 C1508 1.366 . S
C1507 C1509 1.388 . S
C1508 C1507 1.366 . S
C1508 C1512 1.385 . S
C1509 H1484 0.951 . S
C1509 C1507 1.388 . S
C1509 C1510 1.366 . S
C1510 C1509 1.366 . S
C1510 C1511 1.414 . S
C1510 C1513 1.499 . S
C1511 H1485 0.950 . S
C1511 C1510 1.414 . S
C1511 C1512 1.374 . S
C1512 H1486 0.950 . S
C1512 C1508 1.385 . S
C1512 C1511 1.374 . S
C1513 C1510 1.499 . S
C1513 C1514 1.373 . S
C1513 C1515 1.389 . S
C1514 H1487 0.950 . S
C1514 C1500 1.377 . S
C1514 C1513 1.373 . S
C1515 C1499 1.377 . S
C1515 C1513 1.389 . S
C1515 C1516 1.524 . S
C1516 C1515 1.524 . S
C1516 C1517 1.397 . S
C1516 C1521 1.363 . S
C1517 H1488 0.950 . S
C1517 C1516 1.397 . S
C1517 C1518 1.334 . S
C1518 H1489 0.950 . S
C1518 C1517 1.334 . S
C1518 C1519 1.287 . S
C1519 C1518 1.287 . S
C1519 C1520 1.524 . S
C1519 H1522 0.999 . S
C1520 H1490 0.950 . S
C1520 C1519 1.524 . S
C1520 C1521 1.415 . S
C1521 H1491 0.950 . S
C1521 C1516 1.363 . S
C1521 C1520 1.415 . S
H1522 C1519 0.999 . S
H1523 C1504 0.913 . S
H1524 C1542 0.951 . S
H1525 C1544 0.951 . S
H1526 C1546 0.950 . S
H1527 C1547 0.950 . S
H1528 C1549 0.950 . S
H1529 C1552 0.950 . S
H1530 C1553 0.950 . S
H1531 C1555 0.950 . S
H1532 C1556 0.950 . S
H1533 C1557 0.951 . S
H1534 C1559 0.951 . S
H1535 C1561 0.950 . S
H1536 C1562 0.950 . S
H1537 C1564 0.950 . S
H1538 C1567 0.950 . S
H1539 C1568 0.950 . S
H1540 C1570 0.950 . S
H1541 C1571 0.950 . S
C1542 H1524 0.951 . S
C1542 C1543 1.366 . S
C1542 C1544 1.388 . S
C1543 C1542 1.366 . S
C1543 C1547 1.385 . S
C1544 H1525 0.951 . S
C1544 C1542 1.388 . S
C1544 C1545 1.366 . S
C1545 C1544 1.366 . S
C1545 C1546 1.414 . S
C1545 C1548 1.499 . S
C1546 H1526 0.950 . S
C1546 C1545 1.414 . S
C1546 C1547 1.374 . S
C1547 H1527 0.950 . S
C1547 C1543 1.385 . S
C1547 C1546 1.374 . S
C1548 C1545 1.499 . S
C1548 C1549 1.373 1_554 S
C1548 C1550 1.389 . S
C1549 H1528 0.950 . S
C1549 C1548 1.373 1_556 S
C1549 C1565 1.377 . S
C1550 C1548 1.389 . S
C1550 C1551 1.524 . S
C1550 C1564 1.377 . S
C1551 C1550 1.524 . S
C1551 C1552 1.397 . S
C1551 C1556 1.363 . S
C1552 H1529 0.950 . S
C1552 C1551 1.397 . S
C1552 C1553 1.334 . S
C1553 H1530 0.950 . S
C1553 C1552 1.334 . S
C1553 C1554 1.287 . S
C1554 C1553 1.287 . S
C1554 C1555 1.524 . S
C1554 H1573 0.913 . S
C1555 H1531 0.950 . S
C1555 C1554 1.524 . S
C1555 C1556 1.415 . S
C1556 H1532 0.950 . S
C1556 C1551 1.363 . S
C1556 C1555 1.415 . S
C1557 H1533 0.951 . S
C1557 C1558 1.366 . S
C1557 C1559 1.388 . S
C1558 C1557 1.366 . S
C1558 C1562 1.385 . S
C1559 H1534 0.951 . S
C1559 C1557 1.388 . S
C1559 C1560 1.366 . S
C1560 C1559 1.366 . S
C1560 C1561 1.414 . S
C1560 C1563 1.499 . S
C1561 H1535 0.950 . S
C1561 C1560 1.414 . S
C1561 C1562 1.374 . S
C1562 H1536 0.950 . S
C1562 C1558 1.385 . S
C1562 C1561 1.374 . S
C1563 C1560 1.499 . S
C1563 C1564 1.373 1_556 S
C1563 C1565 1.389 . S
C1564 H1537 0.950 . S
C1564 C1550 1.377 . S
C1564 C1563 1.373 1_554 S
C1565 C1549 1.377 . S
C1565 C1563 1.389 . S
C1565 C1566 1.524 . S
C1566 C1565 1.524 . S
C1566 C1567 1.397 . S
C1566 C1571 1.363 . S
C1567 H1538 0.950 . S
C1567 C1566 1.397 . S
C1567 C1568 1.334 . S
C1568 H1539 0.950 . S
C1568 C1567 1.334 . S
C1568 C1569 1.287 . S
C1569 C1568 1.287 . S
C1569 C1570 1.524 . S
C1569 H1572 0.999 . S
C1570 H1540 0.950 . S
C1570 C1569 1.524 . S
C1570 C1571 1.415 . S
C1571 H1541 0.950 . S
C1571 C1566 1.363 . S
C1571 C1570 1.415 . S
H1572 C1569 0.999 . S
H1573 C1554 0.913 . S
H1574 C1592 0.951 . S
H1575 C1594 0.951 . S
H1576 C1596 0.950 . S
H1577 C1597 0.950 . S
H1578 C1599 0.950 . S
H1579 C1602 0.950 . S
H1580 C1603 0.950 . S
H1581 C1605 0.950 . S
H1582 C1606 0.950 . S
H1583 C1607 0.951 . S
H1584 C1609 0.951 . S
H1585 C1611 0.950 . S
H1586 C1612 0.950 . S
H1587 C1614 0.950 . S
H1588 C1617 0.950 . S
H1589 C1618 0.950 . S
H1590 C1620 0.950 . S
H1591 C1621 0.950 . S
C1592 H1574 0.951 . S
C1592 C1593 1.366 . S
C1592 C1594 1.388 . S
C1593 C1592 1.366 . S
C1593 C1597 1.385 . S
C1594 H1575 0.951 . S
C1594 C1592 1.388 . S
C1594 C1595 1.366 . S
C1595 C1594 1.366 . S
C1595 C1596 1.414 . S
C1595 C1598 1.499 . S
C1596 H1576 0.950 . S
C1596 C1595 1.414 . S
C1596 C1597 1.374 . S
C1597 H1577 0.950 . S
C1597 C1593 1.385 . S
C1597 C1596 1.374 . S
C1598 C1595 1.499 . S
C1598 C1599 1.373 . S
C1598 C1600 1.389 . S
C1599 H1578 0.950 . S
C1599 C1598 1.373 . S
C1599 C1615 1.377 . S
C1600 C1598 1.389 . S
C1600 C1601 1.524 . S
C1600 C1614 1.377 . S
C1601 C1600 1.524 . S
C1601 C1602 1.397 . S
C1601 C1606 1.363 . S
C1602 H1579 0.950 . S
C1602 C1601 1.397 . S
C1602 C1603 1.334 . S
C1603 H1580 0.950 . S
C1603 C1602 1.334 . S
C1603 C1604 1.287 . S
C1604 C1603 1.287 . S
C1604 C1605 1.524 . S
C1604 H1623 0.913 . S
C1605 H1581 0.950 . S
C1605 C1604 1.524 . S
C1605 C1606 1.415 . S
C1606 H1582 0.950 . S
C1606 C1601 1.363 . S
C1606 C1605 1.415 . S
C1607 H1583 0.951 . S
C1607 C1608 1.366 . S
C1607 C1609 1.388 . S
C1608 C1607 1.366 . S
C1608 C1612 1.385 . S
C1609 H1584 0.951 . S
C1609 C1607 1.388 . S
C1609 C1610 1.366 . S
C1610 C1609 1.366 . S
C1610 C1611 1.414 . S
C1610 C1613 1.499 . S
C1611 H1585 0.950 . S
C1611 C1610 1.414 . S
C1611 C1612 1.374 . S
C1612 H1586 0.950 . S
C1612 C1608 1.385 . S
C1612 C1611 1.374 . S
C1613 C1610 1.499 . S
C1613 C1614 1.373 . S
C1613 C1615 1.389 . S
C1614 H1587 0.950 . S
C1614 C1600 1.377 . S
C1614 C1613 1.373 . S
C1615 C1599 1.377 . S
C1615 C1613 1.389 . S
C1615 C1616 1.524 . S
C1616 C1615 1.524 . S
C1616 C1617 1.397 . S
C1616 C1621 1.363 . S
C1617 H1588 0.950 . S
C1617 C1616 1.397 . S
C1617 C1618 1.334 . S
C1618 H1589 0.950 . S
C1618 C1617 1.334 . S
C1618 C1619 1.287 . S
C1619 C1618 1.287 . S
C1619 C1620 1.524 . S
C1619 H1622 0.999 . S
C1620 H1590 0.950 . S
C1620 C1619 1.524 . S
C1620 C1621 1.415 . S
C1621 H1591 0.950 . S
C1621 C1616 1.363 . S
C1621 C1620 1.415 . S
H1622 C1619 0.999 . S
H1623 C1604 0.913 . S
H1624 C1642 0.951 . S
H1625 C1644 0.934 1_554 S
H1626 C1646 0.950 . S
H1627 C1647 0.950 . S
H1628 C1649 0.950 . S
H1629 C1652 0.950 . S
H1630 C1653 0.950 . S
H1631 C1655 0.950 . S
H1632 C1656 0.950 . S
H1633 C1657 0.951 . S
H1634 C1659 0.934 1_556 S
H1635 C1661 0.950 . S
H1636 C1662 0.950 . S
H1637 C1664 0.950 . S
H1638 C1667 0.950 . S
H1639 C1668 0.950 . S
H1640 C1670 0.950 . S
H1641 C1671 0.950 . S
C1642 H1624 0.951 . S
C1642 C1643 1.366 . S
C1642 C1644 1.388 . S
C1643 C1642 1.366 . S
C1643 C1647 1.385 . S
C1644 H1625 0.934 1_556 S
C1644 C1642 1.388 . S
C1644 C1645 1.366 . S
C1645 C1644 1.366 . S
C1645 C1646 1.414 . S
C1645 C1648 1.499 . S
C1646 H1626 0.950 . S
C1646 C1645 1.414 . S
C1646 C1647 1.374 . S
C1647 H1627 0.950 . S
C1647 C1643 1.385 . S
C1647 C1646 1.374 . S
C1648 C1645 1.499 . S
C1648 C1649 1.373 . S
C1648 C1650 1.389 1_556 S
C1649 H1628 0.950 . S
C1649 C1648 1.373 . S
C1649 C1665 1.377 1_545 S
C1650 C1648 1.389 1_554 S
C1650 C1651 1.524 . S
C1650 C1664 1.377 1_545 S
C1651 C1650 1.524 . S
C1651 C1652 1.397 . S
C1651 C1656 1.363 . S
C1652 H1629 0.950 . S
C1652 C1651 1.397 . S
C1652 C1653 1.334 . S
C1653 H1630 0.950 . S
C1653 C1652 1.334 . S
C1653 C1654 1.287 . S
C1654 C1653 1.287 . S
C1654 C1655 1.524 . S
C1654 H1673 0.913 . S
C1655 H1631 0.950 . S
C1655 C1654 1.524 . S
C1655 C1656 1.415 . S
C1656 H1632 0.950 . S
C1656 C1651 1.363 . S
C1656 C1655 1.415 . S
C1657 H1633 0.951 . S
C1657 C1658 1.366 . S
C1657 C1659 1.388 . S
C1658 C1657 1.366 . S
C1658 C1662 1.385 . S
C1659 H1634 0.934 1_554 S
C1659 C1657 1.388 . S
C1659 C1660 1.366 . S
C1660 C1659 1.366 . S
C1660 C1661 1.414 . S
C1660 C1663 1.499 . S
C1661 H1635 0.950 . S
C1661 C1660 1.414 . S
C1661 C1662 1.374 . S
C1662 H1636 0.950 . S
C1662 C1658 1.385 . S
C1662 C1661 1.374 . S
C1663 C1660 1.499 . S
C1663 C1664 1.373 . S
C1663 C1665 1.389 1_554 S
C1664 H1637 0.950 . S
C1664 C1650 1.377 1_565 S
C1664 C1663 1.373 . S
C1665 C1649 1.377 1_565 S
C1665 C1663 1.389 1_556 S
C1665 C1666 1.524 . S
C1666 C1665 1.524 . S
C1666 C1667 1.397 . S
C1666 C1671 1.363 . S
C1667 H1638 0.950 . S
C1667 C1666 1.397 . S
C1667 C1668 1.334 . S
C1668 H1639 0.950 . S
C1668 C1667 1.334 . S
C1668 C1669 1.287 . S
C1669 C1668 1.287 . S
C1669 C1670 1.524 . S
C1669 H1672 0.999 . S
C1670 H1640 0.950 . S
C1670 C1669 1.524 . S
C1670 C1671 1.415 . S
C1671 H1641 0.950 . S
C1671 C1666 1.363 . S
C1671 C1670 1.415 . S
H1672 C1669 0.999 . S
H1673 C1654 0.913 . S
H1674 C1692 0.951 . S
H1675 C1694 0.951 . S
H1676 C1696 0.950 . S
H1677 C1697 0.950 . S
H1678 C1699 0.950 . S
H1679 C1702 0.950 . S
H1680 C1703 0.950 . S
H1681 C1705 0.950 . S
H1682 C1706 0.950 . S
H1683 C1707 0.951 . S
H1684 C1709 0.951 . S
H1685 C1711 0.950 . S
H1686 C1712 0.950 . S
H1687 C1714 0.950 . S
H1688 C1717 0.950 . S
H1689 C1718 0.950 . S
H1690 C1720 0.950 . S
H1691 C1721 0.950 . S
C1692 H1674 0.951 . S
C1692 C1693 1.366 . S
C1692 C1694 1.388 . S
C1693 C1692 1.366 . S
C1693 C1697 1.385 . S
C1694 H1675 0.951 . S
C1694 C1692 1.388 . S
C1694 C1695 1.366 . S
C1695 C1694 1.366 . S
C1695 C1696 1.414 . S
C1695 C1698 1.499 . S
C1696 H1676 0.950 . S
C1696 C1695 1.414 . S
C1696 C1697 1.374 . S
C1697 H1677 0.950 . S
C1697 C1693 1.385 . S
C1697 C1696 1.374 . S
C1698 C1695 1.499 . S
C1698 C1699 1.373 . S
C1698 C1700 1.389 . S
C1699 H1678 0.950 . S
C1699 C1698 1.373 . S
C1699 C1715 1.377 1_565 S
C1700 C1698 1.389 . S
C1700 C1701 1.524 . S
C1700 C1714 1.377 1_565 S
C1701 C1700 1.524 . S
C1701 C1702 1.397 . S
C1701 C1706 1.363 . S
C1702 H1679 0.950 . S
C1702 C1701 1.397 . S
C1702 C1703 1.334 . S
C1703 H1680 0.950 . S
C1703 C1702 1.334 . S
C1703 C1704 1.287 . S
C1704 C1703 1.287 . S
C1704 C1705 1.524 . S
C1704 H1723 0.913 . S
C1705 H1681 0.950 . S
C1705 C1704 1.524 . S
C1705 C1706 1.415 . S
C1706 H1682 0.950 . S
C1706 C1701 1.363 . S
C1706 C1705 1.415 . S
C1707 H1683 0.951 . S
C1707 C1708 1.366 . S
C1707 C1709 1.388 . S
C1708 C1707 1.366 . S
C1708 C1712 1.385 . S
C1709 H1684 0.951 . S
C1709 C1707 1.388 . S
C1709 C1710 1.366 . S
C1710 C1709 1.366 . S
C1710 C1711 1.414 . S
C1710 C1713 1.499 . S
C1711 H1685 0.950 . S
C1711 C1710 1.414 . S
C1711 C1712 1.374 . S
C1712 H1686 0.950 . S
C1712 C1708 1.385 . S
C1712 C1711 1.374 . S
C1713 C1710 1.499 . S
C1713 C1714 1.373 . S
C1713 C1715 1.389 . S
C1714 H1687 0.950 . S
C1714 C1700 1.377 1_545 S
C1714 C1713 1.373 . S
C1715 C1699 1.377 1_545 S
C1715 C1713 1.389 . S
C1715 C1716 1.524 . S
C1716 C1715 1.524 . S
C1716 C1717 1.397 . S
C1716 C1721 1.363 . S
C1717 H1688 0.950 . S
C1717 C1716 1.397 . S
C1717 C1718 1.334 . S
C1718 H1689 0.950 . S
C1718 C1717 1.334 . S
C1718 C1719 1.287 . S
C1719 C1718 1.287 . S
C1719 C1720 1.524 . S
C1719 H1722 0.999 . S
C1720 H1690 0.950 . S
C1720 C1719 1.524 . S
C1720 C1721 1.415 . S
C1721 H1691 0.950 . S
C1721 C1716 1.363 . S
C1721 C1720 1.415 . S
H1722 C1719 0.999 . S
H1723 C1704 0.913 . S
H1724 C1742 0.951 . S
H1725 C1744 0.951 . S
H1726 C1746 0.950 . S
H1727 C1747 0.950 . S
H1728 C1749 0.950 . S
H1729 C1752 0.950 . S
H1730 C1753 0.950 . S
H1731 C1755 0.950 . S
H1732 C1756 0.950 . S
H1733 C1757 0.951 . S
H1734 C1759 0.951 . S
H1735 C1761 0.950 . S
H1736 C1762 0.950 . S
H1737 C1764 0.950 . S
H1738 C1767 0.950 . S
H1739 C1768 0.950 . S
H1740 C1770 0.950 . S
H1741 C1771 0.950 . S
C1742 H1724 0.951 . S
C1742 C1743 1.366 . S
C1742 C1744 1.388 . S
C1743 C1742 1.366 . S
C1743 C1747 1.385 . S
C1744 H1725 0.951 . S
C1744 C1742 1.388 . S
C1744 C1745 1.366 . S
C1745 C1744 1.366 . S
C1745 C1746 1.414 . S
C1745 C1748 1.499 . S
C1746 H1726 0.950 . S
C1746 C1745 1.414 . S
C1746 C1747 1.374 . S
C1747 H1727 0.950 . S
C1747 C1743 1.385 . S
C1747 C1746 1.374 . S
C1748 C1745 1.499 . S
C1748 C1749 1.373 . S
C1748 C1750 1.389 1_554 S
C1749 H1728 0.950 . S
C1749 C1748 1.373 . S
C1749 C1765 1.377 1_565 S
C1750 C1748 1.389 1_556 S
C1750 C1751 1.524 . S
C1750 C1764 1.377 1_565 S
C1751 C1750 1.524 . S
C1751 C1752 1.397 . S
C1751 C1756 1.363 . S
C1752 H1729 0.950 . S
C1752 C1751 1.397 . S
C1752 C1753 1.334 . S
C1753 H1730 0.950 . S
C1753 C1752 1.334 . S
C1753 C1754 1.287 . S
C1754 C1753 1.287 . S
C1754 C1755 1.524 . S
C1754 H1773 0.913 . S
C1755 H1731 0.950 . S
C1755 C1754 1.524 . S
C1755 C1756 1.415 . S
C1756 H1732 0.950 . S
C1756 C1751 1.363 . S
C1756 C1755 1.415 . S
C1757 H1733 0.951 . S
C1757 C1758 1.366 . S
C1757 C1759 1.388 . S
C1758 C1757 1.366 . S
C1758 C1762 1.385 . S
C1759 H1734 0.951 . S
C1759 C1757 1.388 . S
C1759 C1760 1.366 . S
C1760 C1759 1.366 . S
C1760 C1761 1.414 . S
C1760 C1763 1.499 . S
C1761 H1735 0.950 . S
C1761 C1760 1.414 . S
C1761 C1762 1.374 . S
C1762 H1736 0.950 . S
C1762 C1758 1.385 . S
C1762 C1761 1.374 . S
C1763 C1760 1.499 . S
C1763 C1764 1.373 . S
C1763 C1765 1.389 1_556 S
C1764 H1737 0.950 . S
C1764 C1750 1.377 1_545 S
C1764 C1763 1.373 . S
C1765 C1749 1.377 1_545 S
C1765 C1763 1.389 1_554 S
C1765 C1766 1.524 . S
C1766 C1765 1.524 . S
C1766 C1767 1.397 . S
C1766 C1771 1.363 . S
C1767 H1738 0.950 . S
C1767 C1766 1.397 . S
C1767 C1768 1.334 . S
C1768 H1739 0.950 . S
C1768 C1767 1.334 . S
C1768 C1769 1.287 . S
C1769 C1768 1.287 . S
C1769 C1770 1.524 . S
C1769 H1772 0.999 . S
C1770 H1740 0.950 . S
C1770 C1769 1.524 . S
C1770 C1771 1.415 . S
C1771 H1741 0.950 . S
C1771 C1766 1.363 . S
C1771 C1770 1.415 . S
H1772 C1769 0.999 . S
H1773 C1754 0.913 . S
H1774 C1792 0.951 . S
H1775 C1794 0.951 . S
H1776 C1796 0.950 . S
H1777 C1797 0.950 . S
H1778 C1799 0.950 . S
H1779 C1802 0.950 . S
H1780 C1803 0.950 . S
H1781 C1805 0.953 . S
H1782 C1806 0.960 . S
H1783 C1807 0.951 . S
H1784 C1809 0.951 . S
H1785 C1811 0.950 . S
H1786 C1812 0.950 . S
H1787 C1814 0.950 . S
H1788 C1817 0.950 . S
H1789 C1818 0.950 . S
H1790 C1820 0.953 . S
H1791 C1821 0.960 . S
C1792 H1774 0.951 . S
C1792 C1793 1.366 . S
C1792 C1794 1.388 . S
C1793 C1792 1.366 . S
C1793 C1797 1.385 . S
C1794 H1775 0.951 . S
C1794 C1792 1.388 . S
C1794 C1795 1.366 . S
C1795 C1794 1.366 . S
C1795 C1796 1.414 . S
C1795 C1798 1.499 . S
C1796 H1776 0.950 . S
C1796 C1795 1.414 . S
C1796 C1797 1.374 . S
C1797 H1777 0.950 . S
C1797 C1793 1.385 . S
C1797 C1796 1.374 . S
C1798 C1795 1.499 . S
C1798 C1799 1.373 . S
C1798 C1800 1.389 . S
C1799 H1778 0.950 . S
C1799 C1798 1.373 . S
C1799 C1815 1.377 1_545 S
C1800 C1798 1.389 . S
C1800 C1801 1.524 . S
C1800 C1814 1.377 1_545 S
C1801 C1800 1.524 . S
C1801 C1802 1.397 . S
C1801 C1806 1.355 1_545 S
C1802 H1779 0.950 . S
C1802 C1801 1.397 . S
C1802 C1803 1.334 . S
C1803 H1780 0.950 . S
C1803 C1802 1.334 . S
C1803 C1804 1.287 . S
C1804 C1803 1.287 . S
C1804 C1805 1.520 1_545 S
C1804 H1823 0.913 . S
C1805 H1781 0.953 . S
C1805 C1804 1.520 1_565 S
C1805 C1806 1.415 . S
C1806 H1782 0.960 . S
C1806 C1801 1.355 1_565 S
C1806 C1805 1.415 . S
C1807 H1783 0.951 . S
C1807 C1808 1.366 . S
C1807 C1809 1.388 . S
C1808 C1807 1.366 . S
C1808 C1812 1.385 . S
C1809 H1784 0.951 . S
C1809 C1807 1.388 . S
C1809 C1810 1.366 . S
C1810 C1809 1.366 . S
C1810 C1811 1.414 . S
C1810 C1813 1.499 . S
C1811 H1785 0.950 . S
C1811 C1810 1.414 . S
C1811 C1812 1.374 . S
C1812 H1786 0.950 . S
C1812 C1808 1.385 . S
C1812 C1811 1.374 . S
C1813 C1810 1.499 . S
C1813 C1814 1.373 . S
C1813 C1815 1.389 . S
C1814 H1787 0.950 . S
C1814 C1800 1.377 1_565 S
C1814 C1813 1.373 . S
C1815 C1799 1.377 1_565 S
C1815 C1813 1.389 . S
C1815 C1816 1.524 . S
C1816 C1815 1.524 . S
C1816 C1817 1.397 . S
C1816 C1821 1.355 1_565 S
C1817 H1788 0.950 . S
C1817 C1816 1.397 . S
C1817 C1818 1.334 . S
C1818 H1789 0.950 . S
C1818 C1817 1.334 . S
C1818 C1819 1.287 . S
C1819 C1818 1.287 . S
C1819 C1820 1.520 1_565 S
C1819 H1822 0.999 . S
C1820 H1790 0.953 . S
C1820 C1819 1.520 1_545 S
C1820 C1821 1.415 . S
C1821 H1791 0.960 . S
C1821 C1816 1.355 1_545 S
C1821 C1820 1.415 . S
H1822 C1819 0.999 . S
H1823 C1804 0.913 . S
C243 C9 1.463 . S
C258 C93 1.474 . S
C293 C23 1.463 . S
C308 C107 1.474 . S
C343 C65 1.474 . S
C358 C37 1.462 . S
C393 C79 1.475 . S
C408 C51 1.463 . S
C443 C205 1.474 . S
C458 C121 1.462 . S
C493 C219 1.475 . S
C508 C135 1.463 . S
C543 C149 1.462 . S
C558 C177 1.475 . S
C593 C163 1.463 . S
C608 C191 1.475 . S
C643 C8 1.597 . S
C658 C77 1.549 . S
C693 C22 1.597 . S
C708 C63 1.550 . S
C743 C36 1.597 . S
C758 C105 1.549 . S
C793 C91 1.549 . S
C808 C50 1.597 . S
C843 C189 1.549 . S
C858 C120 1.597 . S
C893 C175 1.549 . S
C908 C134 1.597 . S
C943 C148 1.597 . S
C958 C217 1.549 . S
C993 C203 1.549 . S
C1008 C162 1.597 . S
C1043 C174 1.541 . S
C1058 C6 1.560 . S
C1093 C20 1.561 . S
C1108 C188 1.541 . S
C1143 C202 1.541 . S
C1158 C34 1.560 . S
C1193 C216 1.541 . S
C1208 C48 1.561 . S
C1243 C118 1.560 . S
C1258 C62 1.541 . S
C1293 C132 1.560 . S
C1308 C76 1.541 . S
C1343 C90 1.540 . S
C1358 C146 1.560 . S
C1393 C104 1.541 . S
C1408 C160 1.561 . S
C1443 C35 1.073 . S
C1458 C7 1.073 . S
C1493 C21 1.073 . S
C1508 C49 1.073 . S
C1543 C92 2.025 . S
C1558 C64 2.025 . S
C1593 C78 2.025 . S
C1608 C106 2.025 . S
C1643 C147 1.073 . S
C1658 C119 1.073 . S
C1693 C161 1.073 . S
C1708 C133 1.073 . S
C1743 C204 2.025 . S
C1758 C176 2.025 . S
C1793 C218 2.025 . S
C1808 C190 2.025 . S
