# Generated by pormake.
# Topology sxk, (6)-cn, num edge types: 1
# Building blocks:
#     Node 0, Type 0, BuildingBlock: MAKGUD_clean_sbu_1, # of connection points: 6
#     Node 1, Type 0, BuildingBlock: MAKGUD_clean_sbu_1, # of connection points: 6
#     Node 2, Type 0, BuildingBlock: MAKGUD_clean_sbu_1, # of connection points: 6
#     Node 3, Type 0, BuildingBlock: MAKGUD_clean_sbu_1, # of connection points: 6
#     Node 4, Type 0, BuildingBlock: MAKGUD_clean_sbu_1, # of connection points: 6
#     Node 5, Type 0, BuildingBlock: MAKGUD_clean_sbu_1, # of connection points: 6
#     Node 6, Type 0, BuildingBlock: MAKGUD_clean_sbu_1, # of connection points: 6
#     Node 7, Type 0, BuildingBlock: MAKGUD_clean_sbu_1, # of connection points: 6
#     Node 8, Type 0, BuildingBlock: MAKGUD_clean_sbu_1, # of connection points: 6
#     Node 9, Type 0, BuildingBlock: MAKGUD_clean_sbu_1, # of connection points: 6
#     Node 10, Type 0, BuildingBlock: MAKGUD_clean_sbu_1, # of connection points: 6
#     Node 11, Type 0, BuildingBlock: MAKGUD_clean_sbu_1, # of connection points: 6
#     Node 12, Type 0, BuildingBlock: MAKGUD_clean_sbu_1, # of connection points: 6
#     Node 13, Type 0, BuildingBlock: MAKGUD_clean_sbu_1, # of connection points: 6
#     Node 14, Type 0, BuildingBlock: MAKGUD_clean_sbu_1, # of connection points: 6
#     Node 15, Type 0, BuildingBlock: MAKGUD_clean_sbu_1, # of connection points: 6
#     Node 16, Type 0, BuildingBlock: MAKGUD_clean_sbu_1, # of connection points: 6
#     Node 17, Type 0, BuildingBlock: MAKGUD_clean_sbu_1, # of connection points: 6
#     Node 18, Type 0, BuildingBlock: MAKGUD_clean_sbu_1, # of connection points: 6
#     Node 19, Type 0, BuildingBlock: MAKGUD_clean_sbu_1, # of connection points: 6
#     Node 20, Type 0, BuildingBlock: MAKGUD_clean_sbu_1, # of connection points: 6
#     Node 21, Type 0, BuildingBlock: MAKGUD_clean_sbu_1, # of connection points: 6
#     Node 22, Type 0, BuildingBlock: MAKGUD_clean_sbu_1, # of connection points: 6
#     Node 23, Type 0, BuildingBlock: MAKGUD_clean_sbu_1, # of connection points: 6
#     Node 24, Type 0, BuildingBlock: MAKGUD_clean_sbu_1, # of connection points: 6
#     Node 25, Type 0, BuildingBlock: MAKGUD_clean_sbu_1, # of connection points: 6
#     Node 26, Type 0, BuildingBlock: MAKGUD_clean_sbu_1, # of connection points: 6
#     Node 27, Type 0, BuildingBlock: MAKGUD_clean_sbu_1, # of connection points: 6
#     Node 28, Type 0, BuildingBlock: MAKGUD_clean_sbu_1, # of connection points: 6
#     Node 29, Type 0, BuildingBlock: MAKGUD_clean_sbu_1, # of connection points: 6
#     Node 30, Type 0, BuildingBlock: MAKGUD_clean_sbu_1, # of connection points: 6
#     Node 31, Type 0, BuildingBlock: MAKGUD_clean_sbu_1, # of connection points: 6
#     Node 32, Type 0, BuildingBlock: MAKGUD_clean_sbu_1, # of connection points: 6
#     Node 33, Type 0, BuildingBlock: MAKGUD_clean_sbu_1, # of connection points: 6
#     Node 34, Type 0, BuildingBlock: MAKGUD_clean_sbu_1, # of connection points: 6
#     Node 35, Type 0, BuildingBlock: MAKGUD_clean_sbu_1, # of connection points: 6
#     Node 36, Type 0, BuildingBlock: MAKGUD_clean_sbu_1, # of connection points: 6
#     Node 37, Type 0, BuildingBlock: MAKGUD_clean_sbu_1, # of connection points: 6
#     Node 38, Type 0, BuildingBlock: MAKGUD_clean_sbu_1, # of connection points: 6
#     Node 39, Type 0, BuildingBlock: MAKGUD_clean_sbu_1, # of connection points: 6
#     Node 40, Type 0, BuildingBlock: MAKGUD_clean_sbu_1, # of connection points: 6
#     Node 41, Type 0, BuildingBlock: MAKGUD_clean_sbu_1, # of connection points: 6
#     Node 42, Type 0, BuildingBlock: MAKGUD_clean_sbu_1, # of connection points: 6
#     Node 43, Type 0, BuildingBlock: MAKGUD_clean_sbu_1, # of connection points: 6
#     Node 44, Type 0, BuildingBlock: MAKGUD_clean_sbu_1, # of connection points: 6
#     Node 45, Type 0, BuildingBlock: MAKGUD_clean_sbu_1, # of connection points: 6
#     Node 46, Type 0, BuildingBlock: MAKGUD_clean_sbu_1, # of connection points: 6
#     Node 47, Type 0, BuildingBlock: MAKGUD_clean_sbu_1, # of connection points: 6
#     Edge 48, Type (0, 0), None
#     Edge 49, Type (0, 0), None
#     Edge 50, Type (0, 0), None
#     Edge 51, Type (0, 0), None
#     Edge 52, Type (0, 0), None
#     Edge 53, Type (0, 0), None
#     Edge 54, Type (0, 0), None
#     Edge 55, Type (0, 0), None
#     Edge 56, Type (0, 0), None
#     Edge 57, Type (0, 0), None
#     Edge 58, Type (0, 0), None
#     Edge 59, Type (0, 0), None
#     Edge 60, Type (0, 0), None
#     Edge 61, Type (0, 0), None
#     Edge 62, Type (0, 0), None
#     Edge 63, Type (0, 0), None
#     Edge 64, Type (0, 0), None
#     Edge 65, Type (0, 0), None
#     Edge 66, Type (0, 0), None
#     Edge 67, Type (0, 0), None
#     Edge 68, Type (0, 0), None
#     Edge 69, Type (0, 0), None
#     Edge 70, Type (0, 0), None
#     Edge 71, Type (0, 0), None
#     Edge 72, Type (0, 0), None
#     Edge 73, Type (0, 0), None
#     Edge 74, Type (0, 0), None
#     Edge 75, Type (0, 0), None
#     Edge 76, Type (0, 0), None
#     Edge 77, Type (0, 0), None
#     Edge 78, Type (0, 0), None
#     Edge 79, Type (0, 0), None
#     Edge 80, Type (0, 0), None
#     Edge 81, Type (0, 0), None
#     Edge 82, Type (0, 0), None
#     Edge 83, Type (0, 0), None
#     Edge 84, Type (0, 0), None
#     Edge 85, Type (0, 0), None
#     Edge 86, Type (0, 0), None
#     Edge 87, Type (0, 0), None
#     Edge 88, Type (0, 0), None
#     Edge 89, Type (0, 0), None
#     Edge 90, Type (0, 0), None
#     Edge 91, Type (0, 0), None
#     Edge 92, Type (0, 0), None
#     Edge 93, Type (0, 0), None
#     Edge 94, Type (0, 0), None
#     Edge 95, Type (0, 0), None
#     Edge 96, Type (0, 0), None
#     Edge 97, Type (0, 0), None
#     Edge 98, Type (0, 0), None
#     Edge 99, Type (0, 0), None
#     Edge 100, Type (0, 0), None
#     Edge 101, Type (0, 0), None
#     Edge 102, Type (0, 0), None
#     Edge 103, Type (0, 0), None
#     Edge 104, Type (0, 0), None
#     Edge 105, Type (0, 0), None
#     Edge 106, Type (0, 0), None
#     Edge 107, Type (0, 0), None
#     Edge 108, Type (0, 0), None
#     Edge 109, Type (0, 0), None
#     Edge 110, Type (0, 0), None
#     Edge 111, Type (0, 0), None
#     Edge 112, Type (0, 0), None
#     Edge 113, Type (0, 0), None
#     Edge 114, Type (0, 0), None
#     Edge 115, Type (0, 0), None
#     Edge 116, Type (0, 0), None
#     Edge 117, Type (0, 0), None
#     Edge 118, Type (0, 0), None
#     Edge 119, Type (0, 0), None
#     Edge 120, Type (0, 0), None
#     Edge 121, Type (0, 0), None
#     Edge 122, Type (0, 0), None
#     Edge 123, Type (0, 0), None
#     Edge 124, Type (0, 0), None
#     Edge 125, Type (0, 0), None
#     Edge 126, Type (0, 0), None
#     Edge 127, Type (0, 0), None
#     Edge 128, Type (0, 0), None
#     Edge 129, Type (0, 0), None
#     Edge 130, Type (0, 0), None
#     Edge 131, Type (0, 0), None
#     Edge 132, Type (0, 0), None
#     Edge 133, Type (0, 0), None
#     Edge 134, Type (0, 0), None
#     Edge 135, Type (0, 0), None
#     Edge 136, Type (0, 0), None
#     Edge 137, Type (0, 0), None
#     Edge 138, Type (0, 0), None
#     Edge 139, Type (0, 0), None
#     Edge 140, Type (0, 0), None
#     Edge 141, Type (0, 0), None
#     Edge 142, Type (0, 0), None
#     Edge 143, Type (0, 0), None
#     Edge 144, Type (0, 0), None
#     Edge 145, Type (0, 0), None
#     Edge 146, Type (0, 0), None
#     Edge 147, Type (0, 0), None
#     Edge 148, Type (0, 0), None
#     Edge 149, Type (0, 0), None
#     Edge 150, Type (0, 0), None
#     Edge 151, Type (0, 0), None
#     Edge 152, Type (0, 0), None
#     Edge 153, Type (0, 0), None
#     Edge 154, Type (0, 0), None
#     Edge 155, Type (0, 0), None
#     Edge 156, Type (0, 0), None
#     Edge 157, Type (0, 0), None
#     Edge 158, Type (0, 0), None
#     Edge 159, Type (0, 0), None
#     Edge 160, Type (0, 0), None
#     Edge 161, Type (0, 0), None
#     Edge 162, Type (0, 0), None
#     Edge 163, Type (0, 0), None
#     Edge 164, Type (0, 0), None
#     Edge 165, Type (0, 0), None
#     Edge 166, Type (0, 0), None
#     Edge 167, Type (0, 0), None
#     Edge 168, Type (0, 0), None
#     Edge 169, Type (0, 0), None
#     Edge 170, Type (0, 0), None
#     Edge 171, Type (0, 0), None
#     Edge 172, Type (0, 0), None
#     Edge 173, Type (0, 0), None
#     Edge 174, Type (0, 0), None
#     Edge 175, Type (0, 0), None
#     Edge 176, Type (0, 0), None
#     Edge 177, Type (0, 0), None
#     Edge 178, Type (0, 0), None
#     Edge 179, Type (0, 0), None
#     Edge 180, Type (0, 0), None
#     Edge 181, Type (0, 0), None
#     Edge 182, Type (0, 0), None
#     Edge 183, Type (0, 0), None
#     Edge 184, Type (0, 0), None
#     Edge 185, Type (0, 0), None
#     Edge 186, Type (0, 0), None
#     Edge 187, Type (0, 0), None
#     Edge 188, Type (0, 0), None
#     Edge 189, Type (0, 0), None
#     Edge 190, Type (0, 0), None
#     Edge 191, Type (0, 0), None
# Relax obj value: 0.249
# Max RMSD: 0.250
# Mean RMSD: 0.250
data_MOF--net-sxk--node1-MAKGUD_clean_sbu_1--edge1-none
_symmetry_space_group_name_H-M    P1
_symmetry_Int_Tables_number       1
_symmetry_cell_setting            triclinic
loop_
_symmetry_equiv_pos_as_xyz
'x, y, z'
_cell_length_a     32.098377
_cell_length_b     32.097898
_cell_length_c     32.09803
_cell_angle_alpha  89.99921
_cell_angle_beta   89.999997
_cell_angle_gamma 90.000151
loop_
_atom_site_label
_atom_site_type_symbol
_atom_site_fract_x
_atom_site_fract_y
_atom_site_fract_z
_atom_type_partial_charge
O0 O 0.21029 0.09853 0.33085 0.0
Tb1 Tb 0.18361 0.1604 0.33468 0.0
C2 C 0.17205 0.24898 0.2902 0.0
O3 O 0.17702 0.22692 0.40445 0.0
Tb4 Tb 0.16003 0.28637 0.37749 0.0
C5 C 0.0803 0.30236 0.37099 0.0
O6 O 0.16097 0.16026 0.39857 0.0
O7 O 0.18196 0.34595 0.40218 0.0
C8 C 0.16602 0.3592 0.43777 0.0
O9 O 0.15151 0.33166 0.46416 0.0
O10 O 0.157 0.21051 0.29561 0.0
O11 O 0.19121 0.27034 0.3196 0.0
O12 O 0.24437 0.17559 0.30932 0.0
C13 C 0.1526 0.19589 0.41577 0.0
C14 C 0.17775 0.08059 0.31491 0.0
O15 O 0.10001 0.2944 0.40522 0.0
O16 O 0.1049 0.29896 0.339 0.0
C17 C 0.25026 0.165 0.26993 0.0
O18 O 0.2197 0.14728 0.24931 0.0
O19 O 0.14825 0.10794 0.30828 0.0
O20 O 0.34856 0.65718 1.0366 0.0
Tb21 Tb 0.41044 0.68383 1.03275 0.0
C22 C 0.49901 0.69535 0.07725 0.0
O23 O 0.47697 0.69042 0.96299 0.0
Tb24 Tb 0.53641 0.70742 0.98996 0.0
C25 C 0.55238 0.78717 0.9965 0.0
O26 O 0.41031 0.70644 0.96885 0.0
O27 O 0.59601 0.68553 0.96529 0.0
C28 C 0.60928 0.70148 0.92971 0.0
O29 O 0.58174 0.71597 0.90331 0.0
O30 O 0.46056 0.71045 0.07181 0.0
O31 O 0.5204 0.67622 1.04784 0.0
O32 O 0.4256 0.62308 1.05814 0.0
C33 C 0.44594 0.71484 0.95167 0.0
C34 C 0.33064 0.68974 1.05252 0.0
O35 O 0.54445 0.76746 0.96225 0.0
O36 O 0.54897 0.76255 1.02848 0.0
C37 C 0.41501 0.61721 0.09753 0.0
O38 O 0.3973 0.64778 0.11814 0.0
O39 O 0.358 0.71922 0.05914 0.0
O40 O 0.90723 0.51896 0.33088 0.0
Tb41 Tb 0.93391 0.45709 0.33472 0.0
C42 C 0.94541 0.36851 0.29024 0.0
O43 O 0.9405 0.39058 0.40451 0.0
Tb44 Tb 0.95746 0.33114 0.37753 0.0
C45 C 1.0372 0.31513 0.37099 0.0
O46 O 0.95658 0.45723 0.3986 0.0
O47 O 0.93555 0.27154 0.40219 0.0
C48 C 0.9515 0.25826 0.43776 0.0
O49 O 0.966 0.28579 0.46417 0.0
O50 O 0.96048 0.40698 0.29563 0.0
O51 O 0.92625 0.34717 0.31966 0.0
O52 O 0.87314 0.4419 0.30941 0.0
C53 C 0.96494 0.42161 0.41581 0.0
C54 C 0.93977 0.5369 0.31494 0.0
O55 O 1.01749 0.32307 0.40524 0.0
O56 O 1.01259 0.31858 0.33901 0.0
C57 C 0.86722 0.45245 0.27002 0.0
O58 O 0.89777 0.47015 0.24936 0.0
O59 O 0.96926 0.50954 0.3083 0.0
O60 O 0.56857 0.85486 1.0285 0.0
Tb61 Tb 0.58114 0.91001 0.99001 0.0
C62 C 0.67161 0.90258 0.95173 0.0
O63 O 0.65696 0.90697 0.07191 0.0
Tb64 Tb 0.70707 0.93358 1.03284 0.0
C65 C 0.78687 0.92775 1.05266 0.0
O66 O 0.59714 0.94119 1.0479 0.0
O67 O 0.69185 0.99434 1.05816 0.0
C68 C 0.7024 1.00026 0.09755 0.0
O69 O 0.7201 0.96971 0.11822 0.0
O70 O 0.64058 0.927 0.96305 0.0
O71 O 0.70724 0.91093 0.96896 0.0
O72 O 0.52155 0.93192 0.96534 0.0
C73 C 0.61849 0.92203 0.07731 0.0
C74 C 0.56514 0.83027 0.9965 0.0
O75 O 0.75953 0.89824 0.05926 0.0
O76 O 0.76892 0.96029 1.03671 0.0
C77 C 0.50828 0.91598 0.92975 0.0
O78 O 0.53581 0.90148 0.90335 0.0
O79 O 0.57309 0.84999 0.96227 0.0
O80 O 0.21038 1.01892 0.28662 0.0
Tb81 Tb 0.18376 0.95703 0.28269 0.0
C82 C 0.17219 0.86847 0.3272 0.0
O83 O 0.17716 0.89046 0.21298 0.0
Tb84 Tb 0.16009 0.83103 0.23994 0.0
C85 C 0.08033 0.81513 0.24646 0.0
O86 O 0.16127 0.95716 0.21875 0.0
O87 O 0.18195 0.77142 0.21529 0.0
C88 C 0.16599 0.75815 0.17971 0.0
O89 O 0.15151 0.78569 0.1533 0.0
O90 O 0.1571 0.90692 0.32173 0.0
O91 O 0.1913 0.84705 0.29781 0.0
O92 O 0.2445 0.94189 0.30813 0.0
C93 C 0.1528 0.92152 0.20161 0.0
C94 C 0.17779 1.03682 0.3025 0.0
O95 O 0.10005 0.82305 0.21222 0.0
O96 O 0.10494 0.81852 0.27845 0.0
C97 C 0.25035 0.95249 0.34752 0.0
O98 O 0.21978 0.97022 0.36811 0.0
O99 O 0.14829 1.00945 0.30902 0.0
O100 O 0.06855 0.76262 0.08903 0.0
Tb101 Tb 0.08106 0.70747 0.12753 0.0
C102 C 0.17154 0.7148 0.16581 0.0
O103 O 0.15698 0.71043 1.04568 0.0
Tb104 Tb 0.20707 0.6838 0.08475 0.0
C105 C 0.28687 0.68972 0.06493 0.0
O106 O 0.09713 0.67625 0.06967 0.0
O107 O 0.19189 0.62305 0.05936 0.0
C108 C 0.20248 0.61716 1.01998 0.0
O109 O 0.22021 0.64772 0.99936 0.0
O110 O 0.14047 0.69041 0.15454 0.0
O111 O 0.20718 0.70637 0.14866 0.0
O112 O 1.02144 0.68561 0.15217 0.0
C113 C 0.1185 0.69539 1.04027 0.0
C114 C 0.06515 0.78723 0.12101 0.0
O115 O 0.2595 0.71922 1.05838 0.0
O116 O 0.26896 0.65715 0.08085 0.0
C117 C 1.00817 0.70156 0.18775 0.0
O118 O 1.03571 0.71603 0.21416 0.0
O119 O 0.07308 0.7675 0.15525 0.0
O120 O 0.90718 0.59858 0.28662 0.0
Tb121 Tb 0.93381 0.66047 0.28272 0.0
C122 C 0.9454 0.74904 0.32719 0.0
O123 O 0.94042 0.72707 0.21291 0.0
Tb124 Tb 0.95746 0.78648 0.23994 0.0
C125 C 1.03722 0.8024 0.24646 0.0
O126 O 0.9564 0.66036 0.21882 0.0
O127 O 0.9356 0.8461 0.21531 0.0
C128 C 0.95157 0.85939 0.17974 0.0
O129 O 0.96605 0.83187 0.15332 0.0
O130 O 0.96042 0.71056 0.32181 0.0
O131 O 0.92623 0.77038 0.29778 0.0
O132 O 0.87305 0.67565 0.30809 0.0
C133 C 0.96482 0.696 0.20165 0.0
C134 C 0.93974 0.58067 0.30253 0.0
O135 O 1.0175 0.79446 0.21222 0.0
O136 O 1.0126 0.799 0.27845 0.0
C137 C 0.86716 0.66507 0.34747 0.0
O138 O 0.89771 0.64735 0.36811 0.0
O139 O 0.96924 0.60804 0.30909 0.0
O140 O 0.84855 0.96038 0.08095 0.0
Tb141 Tb 0.91045 0.93377 0.08483 0.0
C142 C 0.99901 0.92215 1.04034 0.0
O143 O 0.97711 0.92714 0.1546 0.0
Tb144 Tb 1.03651 0.9101 0.12757 0.0
C145 C 1.05243 0.83034 0.12102 0.0
O146 O 0.91038 0.91121 0.14874 0.0
O147 O 0.09614 0.93196 0.15219 0.0
C148 C 0.10943 0.916 0.18776 0.0
O149 O 0.08192 0.90149 0.21418 0.0
O150 O 0.96052 0.90714 1.04573 0.0
O151 O 1.02035 0.94133 0.06974 0.0
O152 O 0.9256 0.99451 0.05941 0.0
C153 C 0.94603 0.90275 0.16587 0.0
C154 C 0.83064 0.92779 0.06506 0.0
O155 O 1.04448 0.85005 0.15527 0.0
O156 O 1.04904 0.85497 0.08905 0.0
C157 C 0.91498 1.00039 1.02003 0.0
O158 O 0.89724 0.96982 0.99943 0.0
O159 O 0.85802 0.89831 1.0585 0.0
O160 O 0.33086 0.21028 0.09845 0.0
Tb161 Tb 0.33466 0.18361 0.16033 0.0
C162 C 0.29018 0.17208 0.24891 0.0
O163 O 0.40441 0.177 0.22686 0.0
Tb164 Tb 0.37746 0.16003 0.28632 0.0
C165 C 0.37095 0.08029 0.30233 0.0
O166 O 0.39853 0.16092 0.16021 0.0
O167 O 0.40214 0.18196 0.3459 0.0
C168 C 0.43773 0.16602 0.35917 0.0
O169 O 0.46412 0.15151 0.33163 0.0
O170 O 0.29558 0.15702 0.21044 0.0
O171 O 0.31959 0.19123 0.27027 0.0
O172 O 0.30934 0.24438 0.17553 0.0
C173 C 0.41573 0.15256 0.19584 0.0
C174 C 0.31488 0.17776 0.08051 0.0
O175 O 0.40518 0.10001 0.29438 0.0
O176 O 0.33896 0.10489 0.29891 0.0
C177 C 0.26996 0.25029 0.16495 0.0
O178 O 0.24932 0.21975 0.14722 0.0
O179 O 0.30822 0.14827 0.10787 0.0
O180 O 0.46026 0.53664 0.26902 0.0
Tb181 Tb 0.43357 0.53281 0.20715 0.0
C182 C 0.42207 0.57729 0.11857 0.0
O183 O 0.42697 0.46303 0.14064 0.0
Tb184 Tb 0.41001 0.49001 0.08119 0.0
C185 C 0.33027 0.49652 0.06519 0.0
O186 O 0.41086 0.46895 0.20729 0.0
O187 O 0.43193 0.46534 1.0216 0.0
C188 C 0.41598 0.42976 1.00832 0.0
O189 O 0.40147 0.40336 1.03585 0.0
O190 O 0.407 0.57191 0.15703 0.0
O191 O 0.44122 0.54787 0.09723 0.0
O192 O 0.49435 0.55809 0.19193 0.0
C193 C 0.40253 0.45172 0.17166 0.0
C194 C 0.42773 0.55261 0.28696 0.0
O195 O 0.34998 0.46228 0.07312 0.0
O196 O 0.35487 0.52851 0.06862 0.0
C197 C 0.50028 0.59748 0.20247 0.0
O198 O 0.46974 0.61816 0.22017 0.0
O199 O 0.39824 0.55926 0.25961 0.0
O200 O 0.78667 0.40719 0.09859 0.0
Tb201 Tb 0.78278 0.43386 0.16047 0.0
C202 C 0.82728 0.44539 0.24903 0.0
O203 O 0.71303 0.44046 0.22699 0.0
Tb204 Tb 0.73999 0.45749 0.28643 0.0
C205 C 0.74651 0.53724 0.30236 0.0
O206 O 0.71889 0.45648 0.16032 0.0
O207 O 0.71533 0.43562 0.34604 0.0
C208 C 0.67975 0.45157 0.35931 0.0
O209 O 0.65334 0.46605 0.33177 0.0
O210 O 0.82184 0.46048 0.21059 0.0
O211 O 0.79787 0.42628 0.27044 0.0
O212 O 0.80809 0.37309 0.17568 0.0
C213 C 0.7017 0.46487 0.19595 0.0
C214 C 0.8026 0.43975 0.08066 0.0
O215 O 0.71227 0.51752 0.29445 0.0
O216 O 0.7785 0.51264 0.29894 0.0
C217 C 0.84748 0.36717 0.16513 0.0
O218 O 0.86815 0.39771 0.14743 0.0
O219 O 0.8092 0.46924 0.10802 0.0
O220 O 0.76262 0.08898 0.0686 0.0
Tb221 Tb 0.70747 0.12748 0.08111 0.0
C222 C 0.71484 0.16578 0.17159 0.0
O223 O 0.71043 1.04566 0.15698 0.0
Tb224 Tb 0.68381 0.08472 0.20709 0.0
C225 C 0.68969 0.06492 0.2869 0.0
O226 O 0.67624 0.06961 0.09711 0.0
O227 O 0.62304 0.05937 0.19191 0.0
C228 C 0.61714 1.01998 0.2025 0.0
O229 O 0.6477 0.99935 0.22022 0.0
O230 O 0.69044 0.15444 0.14055 0.0
O231 O 0.70642 0.14861 0.20723 0.0
O232 O 0.6856 0.15215 1.02151 0.0
C233 C 0.69533 1.04021 0.11853 0.0
C234 C 0.78722 0.12096 0.06517 0.0
O235 O 0.71918 1.05831 0.25954 0.0
O236 O 0.65715 0.08086 0.26897 0.0
C237 C 0.70155 0.18774 1.00825 0.0
O238 O 0.71602 0.21414 1.0358 0.0
O239 O 0.7675 0.1552 0.07308 0.0
O240 O 0.33094 0.90724 0.51905 0.0
Tb241 Tb 0.33473 0.9339 0.45716 0.0
C242 C 0.29026 0.94542 0.36858 0.0
O243 O 0.40448 0.94051 0.39059 0.0
Tb244 Tb 0.37751 0.95747 0.33114 0.0
C245 C 0.37096 1.0372 0.31511 0.0
O246 O 0.39861 0.95658 0.45725 0.0
O247 O 0.40219 0.93554 0.27156 0.0
C248 C 0.43776 0.95151 0.25827 0.0
O249 O 0.46414 0.96604 0.2858 0.0
O250 O 0.29562 0.96046 0.40706 0.0
O251 O 0.31968 0.92623 0.34727 0.0
O252 O 0.30941 0.87313 0.44199 0.0
C253 C 0.41579 0.96495 0.42161 0.0
C254 C 0.31499 0.93979 0.53698 0.0
O255 O 0.4052 1.01751 0.32309 0.0
O256 O 0.33898 1.01257 0.31852 0.0
C257 C 0.27003 0.86722 0.45258 0.0
O258 O 0.24939 0.89777 0.47031 0.0
O259 O 0.30834 0.96927 0.50962 0.0
O260 O 0.15721 0.53657 0.84849 0.0
Tb261 Tb 0.18387 0.53275 0.91037 0.0
C262 C 0.1954 0.57724 0.99895 0.0
O263 O 0.19048 0.46302 0.97693 0.0
Tb264 Tb 0.20745 0.48998 1.03639 0.0
C265 C 0.28718 0.49652 1.05241 0.0
O266 O 0.20651 0.46887 0.91027 0.0
O267 O 0.18553 0.46529 0.09596 0.0
C268 C 0.20149 0.42971 0.10923 0.0
O269 O 0.21601 0.40333 0.08169 0.0
O270 O 0.21045 0.57185 0.96048 0.0
O271 O 0.17623 0.54783 1.02029 0.0
O272 O 0.12311 0.55811 0.92555 0.0
C273 C 0.2149 0.4517 0.94591 0.0
C274 C 0.18976 0.5525 0.83055 0.0
O275 O 0.26748 0.46228 1.04443 0.0
O276 O 0.26256 0.5285 1.049 0.0
C277 C 0.11721 0.59749 0.91496 0.0
O278 O 0.14776 0.61812 0.89722 0.0
O279 O 0.21924 0.55914 0.85791 0.0
O280 O 0.78663 0.71036 0.51895 0.0
Tb281 Tb 0.78275 0.68371 0.45707 0.0
C282 C 0.82723 0.67216 0.36849 0.0
O283 O 0.71302 0.67711 0.39052 0.0
Tb284 Tb 0.73997 0.66009 0.33107 0.0
C285 C 0.7465 0.58035 0.31511 0.0
O286 O 0.71884 0.66113 0.4572 0.0
O287 O 0.71529 0.68197 0.27147 0.0
C288 C 0.67972 0.66599 0.2582 0.0
O289 O 0.65333 0.65147 0.28573 0.0
O290 O 0.82182 0.6571 0.40696 0.0
O291 O 0.79783 0.6913 0.34712 0.0
O292 O 0.8081 0.74447 0.44188 0.0
C293 C 0.70168 0.65271 0.42156 0.0
C294 C 0.80253 0.67779 0.53688 0.0
O295 O 0.71226 0.60005 0.32308 0.0
O296 O 0.77848 0.60496 0.3185 0.0
C297 C 0.84748 0.75037 0.45246 0.0
O298 O 0.86813 0.71982 0.47018 0.0
O299 O 0.80912 0.6483 0.50951 0.0
O300 O 0.85495 0.08899 1.04905 0.0
Tb301 Tb 0.91006 0.12752 1.03644 0.0
C302 C 0.90265 0.16581 0.94596 0.0
O303 O 0.9071 1.04564 0.96047 0.0
Tb304 Tb 0.93368 0.08476 0.91039 0.0
C305 C 0.92777 0.06501 0.83057 0.0
O306 O 0.94129 0.06969 1.02028 0.0
O307 O 0.99445 0.05944 0.92557 0.0
C308 C 1.00036 1.02006 0.91498 0.0
O309 O 0.96982 0.99942 0.89725 0.0
O310 O 0.92706 0.15448 0.977 0.0
O311 O 0.91106 0.14866 0.91031 0.0
O312 O 0.93196 0.15218 0.09604 0.0
C313 C 0.92209 1.04028 0.99897 0.0
C314 C 0.83033 0.12097 1.05242 0.0
O315 O 0.89828 1.0584 0.85793 0.0
O316 O 0.96032 0.08092 0.8485 0.0
C317 C 0.91597 0.18773 0.10934 0.0
O318 O 0.90144 0.21413 0.08182 0.0
O319 O 0.85002 0.15521 1.04443 0.0
O320 O 0.0985 0.3309 0.21025 0.0
Tb321 Tb 0.16038 0.33471 0.1836 0.0
C322 C 0.24895 0.29022 0.17204 0.0
O323 O 0.22693 0.40451 0.177 0.0
Tb324 Tb 0.28636 0.3775 0.16002 0.0
C325 C 0.30236 0.37101 0.08028 0.0
O326 O 0.16026 0.39858 0.16092 0.0
O327 O 0.34594 0.40218 0.18195 0.0
C328 C 0.3592 0.43779 0.16604 0.0
O329 O 0.33166 0.46418 0.15154 0.0
O330 O 0.21048 0.29563 0.15698 0.0
O331 O 0.27031 0.31962 0.1912 0.0
O332 O 0.17557 0.30937 0.24436 0.0
C333 C 0.19589 0.41577 0.15256 0.0
C334 C 0.08057 0.31496 0.17771 0.0
O335 O 0.29441 0.40525 0.10001 0.0
O336 O 0.29894 0.33902 0.10488 0.0
C337 C 0.16498 0.26998 0.25027 0.0
O338 O 0.14726 0.24934 0.21972 0.0
O339 O 0.10793 0.3083 0.14823 0.0
O340 O 0.09858 0.78669 0.40716 0.0
Tb341 Tb 0.16045 0.78281 0.43384 0.0
C342 C 0.24901 0.82731 0.44546 0.0
O343 O 0.22704 0.7131 0.44046 0.0
Tb344 Tb 0.28648 0.74006 0.4575 0.0
C345 C 0.30238 0.74657 0.53726 0.0
O346 O 0.16035 0.7189 0.45642 0.0
O347 O 0.34609 0.71542 0.43562 0.0
C348 C 0.35938 0.67984 0.45158 0.0
O349 O 0.33185 0.65343 0.46608 0.0
O350 O 0.21052 0.8219 0.46048 0.0
O351 O 0.27037 0.79791 0.42629 0.0
O352 O 0.17567 0.80812 0.37308 0.0
C353 C 0.196 0.70175 0.46484 0.0
C354 C 0.08063 0.80259 0.43972 0.0
O355 O 0.29445 0.71233 0.51754 0.0
O356 O 0.29901 0.77856 0.51265 0.0
C357 C 0.16511 0.84751 0.36715 0.0
O358 O 0.1474 0.86818 0.39768 0.0
O359 O 0.10798 0.80917 0.46923 0.0
O360 O 1.03665 0.76896 0.96034 0.0
Tb361 Tb 1.0328 0.70708 0.93366 0.0
C362 C 0.07729 0.61852 0.92207 0.0
O363 O 0.96308 0.6405 0.92705 0.0
Tb364 Tb 0.99004 0.58106 0.91003 0.0
C365 C 0.99656 0.56512 0.83028 0.0
O366 O 0.9689 0.70718 0.91105 0.0
O367 O 0.9654 0.52146 0.93193 0.0
C368 C 0.92982 0.50818 0.91598 0.0
O369 O 0.90341 0.5357 0.90148 0.0
O370 O 0.0719 0.657 0.90705 0.0
O371 O 1.04789 0.59717 0.94124 0.0
O372 O 1.05812 0.69189 0.99443 0.0
C373 C 0.95174 0.67154 0.90265 0.0
C374 C 1.05257 0.7869 0.92779 0.0
O375 O 0.96232 0.57307 0.84999 0.0
O376 O 1.02854 0.56851 0.85489 0.0
C377 C 0.09751 0.70247 1.00034 0.0
O378 O 0.11815 0.72019 0.96979 0.0
O379 O 0.05918 0.75955 0.89829 0.0
O380 O 1.01894 0.8309 0.40713 0.0
Tb381 Tb 0.95705 0.8348 0.43377 0.0
C382 C 0.86849 0.79029 0.44536 0.0
O383 O 0.89044 0.9045 0.44039 0.0
Tb384 Tb 0.83101 0.87753 0.45744 0.0
C385 C 0.81509 0.87099 0.53719 0.0
O386 O 0.95714 0.89872 0.45632 0.0
O387 O 0.77139 0.90216 0.43556 0.0
C388 C 0.75809 0.93773 0.45152 0.0
O389 O 0.78561 0.96414 0.46603 0.0
O390 O 0.90697 0.79571 0.46039 0.0
O391 O 0.84712 0.81969 0.4262 0.0
O392 O 0.94188 0.80944 0.37301 0.0
C393 C 0.92149 0.91585 0.46477 0.0
C394 C 1.03686 0.81499 0.4397 0.0
O395 O 0.82303 0.90523 0.51748 0.0
O396 O 0.81847 0.83901 0.51257 0.0
C397 C 0.95247 0.77006 0.36712 0.0
O398 O 0.97018 0.74942 0.39768 0.0
O399 O 1.0095 0.80845 0.4692 0.0
O400 O 0.58091 0.34859 0.46033 0.0
Tb401 Tb 0.58477 0.41049 0.4337 0.0
C402 C 0.5403 0.49907 0.42214 0.0
O403 O 0.65461 0.47705 0.42708 0.0
Tb404 Tb 0.62757 0.53647 0.41009 0.0
C405 C 0.62103 0.5524 0.33034 0.0
O406 O 0.64865 0.41036 0.41103 0.0
O407 O 0.65222 0.59608 0.43196 0.0
C408 C 0.6878 0.60936 0.416 0.0
O409 O 0.71421 0.58184 0.4015 0.0
O410 O 0.54566 0.46058 0.40712 0.0
O411 O 0.56972 0.52039 0.44131 0.0
O412 O 0.55947 0.42567 0.49448 0.0
C413 C 0.66584 0.44599 0.40265 0.0
C414 C 0.56499 0.33068 0.42776 0.0
O415 O 0.65528 0.54447 0.35005 0.0
O416 O 0.58906 0.54901 0.35496 0.0
C417 C 0.52009 0.41512 0.5004 0.0
O418 O 0.49942 0.39741 0.46985 0.0
O419 O 0.55837 0.35806 0.39829 0.0
O420 O 0.51896 0.78659 0.71044 0.0
Tb421 Tb 0.45706 0.78273 0.68383 0.0
C422 C 0.36849 0.82724 0.67225 0.0
O423 O 0.39046 0.71303 0.67717 0.0
Tb424 Tb 0.33103 0.74 0.66013 0.0
C425 C 0.31511 0.74656 0.58037 0.0
O426 O 0.45716 0.71882 0.66127 0.0
O427 O 0.27142 0.71533 0.68198 0.0
C428 C 0.25815 0.67976 0.66599 0.0
O429 O 0.28569 0.65337 0.65149 0.0
O430 O 0.40697 0.82182 0.65721 0.0
O431 O 0.34711 0.79783 0.69138 0.0
O432 O 0.44192 0.80814 0.74458 0.0
C433 C 0.42152 0.70169 0.6528 0.0
C434 C 0.53688 0.80249 0.67787 0.0
O435 O 0.32306 0.71231 0.60007 0.0
O436 O 0.3185 0.77853 0.605 0.0
C437 C 0.45255 0.84751 0.75045 0.0
O438 O 0.47029 0.86811 0.71988 0.0
O439 O 0.5095 0.80909 0.64839 0.0
O440 O 1.03657 0.34853 0.6571 0.0
Tb441 Tb 1.03275 0.41041 0.68375 0.0
C442 C 0.07725 0.49899 0.69531 0.0
O443 O 0.96303 0.47699 0.69041 0.0
Tb444 Tb 0.99 0.53643 0.70742 0.0
C445 C 0.99655 0.55238 0.78717 0.0
O446 O 0.96885 0.41031 0.70637 0.0
O447 O 0.96533 0.59603 0.68554 0.0
C448 C 0.92975 0.6093 0.70151 0.0
O449 O 0.90336 0.58176 0.71601 0.0
O450 O 0.07184 0.46051 0.71036 0.0
O451 O 1.04784 0.52036 0.67618 0.0
O452 O 1.05814 0.42557 0.623 0.0
C453 C 0.95171 0.44595 0.7148 0.0
C454 C 1.0525 0.3306 0.68965 0.0
O455 O 0.9623 0.54444 0.76747 0.0
O456 O 1.02852 0.54898 0.76255 0.0
C457 C 0.09752 0.41496 0.61713 0.0
O458 O 0.11812 0.39723 0.6477 0.0
O459 O 0.05914 0.35796 0.71914 0.0
O460 O 0.08083 0.26893 0.65705 0.0
Tb461 Tb 0.08475 0.20703 0.68367 0.0
C462 C 1.04025 0.11846 0.69525 0.0
O463 O 0.15445 0.14045 0.69033 0.0
Tb464 Tb 0.1275 0.08103 0.70742 0.0
C465 C 0.12096 0.06516 0.78718 0.0
O466 O 0.14868 0.20716 0.70619 0.0
O467 O 0.15216 1.0214 0.68559 0.0
C468 C 0.18774 1.00815 0.70156 0.0
O469 O 0.21414 1.0357 0.71603 0.0
O470 O 1.04569 0.15693 0.71031 0.0
O471 O 0.06966 0.09705 0.67616 0.0
O472 O 0.05935 0.19188 0.62293 0.0
C473 C 0.1658 0.17152 0.71469 0.0
C474 C 0.06492 0.28683 0.68963 0.0
O475 O 0.1552 0.07307 0.76746 0.0
O476 O 0.08898 0.06854 0.76256 0.0
C477 C 1.01997 0.2025 0.61706 0.0
O478 O 0.99937 0.22022 0.64763 0.0
O479 O 1.05839 0.25946 0.71912 0.0
O480 O 0.71038 0.59847 0.83096 0.0
Tb481 Tb 0.68372 0.66035 0.83476 0.0
C482 C 0.6721 0.74893 0.7903 0.0
O483 O 0.67705 0.72696 0.90456 0.0
Tb484 Tb 0.66006 0.78639 0.87755 0.0
C485 C 0.58031 0.80235 0.87102 0.0
O486 O 0.66101 0.66026 0.89863 0.0
O487 O 0.68196 0.84598 0.90222 0.0
C488 C 0.66602 0.85924 0.93781 0.0
O489 O 0.6515 0.83171 0.9642 0.0
O490 O 0.65712 0.71042 0.79565 0.0
O491 O 0.69129 0.77024 0.81972 0.0
O492 O 0.74448 0.67555 0.80943 0.0
C493 C 0.65262 0.6959 0.9158 0.0
C494 C 0.67784 0.58053 0.81501 0.0
O495 O 0.60002 0.79439 0.90526 0.0
O496 O 0.60493 0.79897 0.83904 0.0
C497 C 0.75038 0.66497 0.77005 0.0
O498 O 0.71984 0.64724 0.74941 0.0
O499 O 0.64836 0.60789 0.80835 0.0
O500 O 0.84844 0.15717 0.53648 0.0
Tb501 Tb 0.91033 0.18382 0.53269 0.0
C502 C 0.9989 0.19541 0.57716 0.0
O503 O 0.97696 0.19048 0.4629 0.0
Tb504 Tb 1.03639 0.20744 0.48992 0.0
C505 C 1.05237 0.28718 0.49648 0.0
O506 O 0.91026 0.20653 0.46882 0.0
O507 O 0.09598 0.18552 0.46526 0.0
C508 C 0.10925 0.20147 0.42968 0.0
O509 O 0.08173 0.216 0.40328 0.0
O510 O 0.9604 0.2104 0.57182 0.0
O511 O 1.0202 0.1762 0.54774 0.0
O512 O 0.92552 0.12306 0.55803 0.0
C513 C 0.94591 0.21492 0.45167 0.0
C514 C 0.8305 0.18971 0.55242 0.0
O515 O 1.0444 0.26748 0.46223 0.0
O516 O 1.04899 0.26255 0.52845 0.0
C517 C 0.91494 0.11715 0.59741 0.0
O518 O 0.89721 0.14769 0.61805 0.0
O519 O 0.85786 0.21918 0.55909 0.0
O520 O 0.40717 1.01904 0.83103 0.0
Tb521 Tb 0.43383 0.95715 0.83482 0.0
C522 C 0.44545 0.86858 0.79034 0.0
O523 O 0.4405 0.89051 0.90461 0.0
Tb524 Tb 0.45747 0.83109 0.87757 0.0
C525 C 0.53721 0.81511 0.87102 0.0
O526 O 0.45655 0.95721 0.89868 0.0
O527 O 0.43556 0.77148 0.9022 0.0
C528 C 0.45151 0.75819 0.93778 0.0
O529 O 0.46603 0.7857 0.96419 0.0
O530 O 0.46042 0.9071 0.79567 0.0
O531 O 0.42623 0.84729 0.81976 0.0
O532 O 0.37306 0.94195 0.80951 0.0
C533 C 0.46494 0.92156 0.91584 0.0
C534 C 0.43971 1.03698 0.81508 0.0
O535 O 0.51751 0.82307 0.90527 0.0
O536 O 0.51259 0.81851 0.83904 0.0
C537 C 0.36715 0.95252 0.77012 0.0
O538 O 0.39768 0.97024 0.74947 0.0
O539 O 0.46919 1.00962 0.80842 0.0
O540 O 0.06857 0.35488 0.52847 0.0
Tb541 Tb 0.08115 0.41001 0.48996 0.0
C542 C 0.17163 0.40253 0.45172 0.0
O543 O 0.15708 0.40704 0.57189 0.0
Tb544 Tb 0.20716 0.43362 0.53277 0.0
C545 C 0.28698 0.42779 0.55256 0.0
O546 O 0.09728 0.44124 0.5478 0.0
O547 O 0.19193 0.4944 0.55806 0.0
C548 C 0.20247 0.50033 0.59745 0.0
O549 O 0.22019 0.4698 0.61812 0.0
O550 O 0.14059 0.42698 0.46294 0.0
O551 O 0.20727 0.41088 0.46892 0.0
O552 O 1.02156 0.43194 0.46531 0.0
C553 C 0.11858 0.42204 0.57723 0.0
C554 C 0.06514 0.33028 0.49648 0.0
O555 O 0.25963 0.3983 0.55921 0.0
O556 O 0.26903 0.46032 0.53658 0.0
C557 C 1.00828 0.416 0.42972 0.0
O558 O 1.0358 0.40148 0.40332 0.0
O559 O 0.0731 0.34999 0.46224 0.0
O560 O 0.71046 0.51886 0.7867 0.0
Tb561 Tb 0.68381 0.45697 0.78274 0.0
C562 C 0.67222 0.36841 0.82724 0.0
O563 O 0.67718 0.39043 0.71301 0.0
Tb564 Tb 0.6601 0.331 0.73997 0.0
C565 C 0.58034 0.31512 0.7465 0.0
O566 O 0.66129 0.45713 0.71881 0.0
O567 O 0.68194 0.27138 0.7153 0.0
C568 C 0.66596 0.25812 0.67972 0.0
O569 O 0.65148 0.28567 0.65332 0.0
O570 O 0.65715 0.40687 0.82178 0.0
O571 O 0.69132 0.34699 0.79784 0.0
O572 O 0.74456 0.44179 0.80811 0.0
C573 C 0.65282 0.42149 0.70166 0.0
C574 C 0.67788 0.53676 0.80259 0.0
O575 O 0.60006 0.32304 0.71226 0.0
O576 O 0.60496 0.3185 0.77848 0.0
C577 C 0.75045 0.45236 0.8475 0.0
O578 O 0.71989 0.47006 0.86813 0.0
O579 O 0.64837 0.5094 0.8091 0.0
O580 O 0.56852 0.26263 0.58906 0.0
Tb581 Tb 0.58101 0.20747 0.62755 0.0
C582 C 0.6715 0.21477 0.66581 0.0
O583 O 0.65684 0.21044 0.54569 0.0
Tb584 Tb 0.70695 0.18379 0.58472 0.0
C585 C 0.78673 0.18968 0.56483 0.0
O586 O 0.59697 0.17627 0.56965 0.0
O587 O 0.69173 0.12303 0.5594 0.0
C588 C 0.70227 0.11711 0.52 0.0
O589 O 0.71995 0.14766 0.49933 0.0
O590 O 0.64042 0.19039 0.65453 0.0
O591 O 0.70713 0.20635 0.64863 0.0
O592 O 0.52139 0.18563 0.65221 0.0
C593 C 0.61838 0.19537 0.54025 0.0
C594 C 0.56513 0.28723 0.62105 0.0
O595 O 0.75938 0.2192 0.55832 0.0
O596 O 0.76882 0.15712 0.58075 0.0
C597 C 0.50814 0.20158 0.6878 0.0
O598 O 0.53569 0.21605 0.7142 0.0
O599 O 0.57304 0.2675 0.65529 0.0
O600 O 0.40712 0.09867 0.78677 0.0
Tb601 Tb 0.4338 0.16054 0.7828 0.0
C602 C 0.44541 0.24911 0.82728 0.0
O603 O 0.44041 0.2271 0.71299 0.0
Tb604 Tb 0.45747 0.28651 0.74 0.0
C605 C 0.53723 0.30241 0.74651 0.0
O606 O 0.45639 0.1604 0.7189 0.0
O607 O 0.43562 0.34614 0.71536 0.0
C608 C 0.45159 0.35942 0.67978 0.0
O609 O 0.46606 0.33189 0.65337 0.0
O610 O 0.46044 0.21063 0.82187 0.0
O611 O 0.42627 0.27049 0.79787 0.0
O612 O 0.37303 0.17579 0.80809 0.0
C613 C 0.4648 0.19603 0.70172 0.0
C614 C 0.43968 0.08075 0.80268 0.0
O615 O 0.5175 0.29449 0.71227 0.0
O616 O 0.51262 0.29901 0.7785 0.0
C617 C 0.36709 0.16529 0.84748 0.0
O618 O 0.39761 0.1476 0.86819 0.0
O619 O 0.4692 0.10811 0.8092 0.0
O620 O 0.34865 0.46041 0.58087 0.0
Tb621 Tb 0.41054 0.43378 0.58482 0.0
C622 C 0.4991 0.4222 0.54034 0.0
O623 O 0.47712 0.42717 0.65462 0.0
Tb624 Tb 0.53652 0.41011 0.62761 0.0
C625 C 0.55242 0.33035 0.62107 0.0
O626 O 0.41041 0.41121 0.64873 0.0
O627 O 0.59616 0.43194 0.65224 0.0
C628 C 0.60945 0.41598 0.68781 0.0
O629 O 0.58194 0.40149 0.71423 0.0
O630 O 0.46064 0.40714 0.54577 0.0
O631 O 0.5205 0.44133 0.56974 0.0
O632 O 0.42573 0.49454 0.55947 0.0
C633 C 0.44604 0.40278 0.66589 0.0
C634 C 0.33075 0.42784 0.56497 0.0
O635 O 0.54451 0.35006 0.65531 0.0
O636 O 0.54901 0.35497 0.58909 0.0
C637 C 0.41518 0.50044 0.52008 0.0
O638 O 0.39749 0.46988 0.49943 0.0
O639 O 0.35812 0.39834 0.55844 0.0
O640 O 0.83088 0.71034 0.59857 0.0
Tb641 Tb 0.83477 0.68367 0.66045 0.0
C642 C 0.7903 0.67207 0.74903 0.0
O643 O 0.90458 0.67705 0.72702 0.0
Tb644 Tb 0.87758 0.66002 0.78644 0.0
C645 C 0.87108 0.58027 0.80238 0.0
O646 O 0.89866 0.66105 0.66032 0.0
O647 O 0.90224 0.68191 0.84604 0.0
C648 C 0.93783 0.66598 0.8593 0.0
O649 O 0.96424 0.65149 0.83177 0.0
O650 O 0.79571 0.65704 0.71055 0.0
O651 O 0.81971 0.69123 0.77039 0.0
O652 O 0.80942 0.74443 0.67565 0.0
C653 C 0.91584 0.65265 0.69595 0.0
C654 C 0.81494 0.67779 0.58065 0.0
O655 O 0.90531 0.6 0.79444 0.0
O656 O 0.83909 0.60487 0.79899 0.0
C657 C 0.77003 0.75033 0.66509 0.0
O658 O 0.74939 0.71977 0.64738 0.0
O659 O 0.80837 0.64828 0.60801 0.0
O660 O 0.96033 1.0367 0.76886 0.0
Tb661 Tb 0.93364 1.03275 0.707 0.0
C662 C 0.92205 0.07723 0.61842 0.0
O663 O 0.92706 0.963 0.64046 0.0
Tb664 Tb 0.91001 0.98995 0.58102 0.0
C665 C 0.83025 0.99645 0.5651 0.0
O666 O 0.91109 0.96883 0.70715 0.0
O667 O 0.93189 0.9653 0.52141 0.0
C668 C 0.91595 0.92972 0.50813 0.0
O669 O 0.90146 0.9033 0.53565 0.0
O670 O 0.907 0.07181 0.65689 0.0
O671 O 0.9412 1.04783 0.59705 0.0
O672 O 0.9944 1.05809 0.69178 0.0
C673 C 0.90268 0.95166 0.67151 0.0
C674 C 0.92777 1.05261 0.78679 0.0
O675 O 0.84998 0.96221 0.57304 0.0
O676 O 0.85485 1.02844 0.56849 0.0
C677 C 1.0003 0.09749 0.70232 0.0
O678 O 0.96976 0.11815 0.72001 0.0
O679 O 0.89824 0.05912 0.75945 0.0
O680 O 0.28669 0.90718 0.59867 0.0
Tb681 Tb 0.28275 0.93383 0.66055 0.0
C682 C 0.32721 0.94542 0.74912 0.0
O683 O 0.21293 0.94042 0.7271 0.0
Tb684 Tb 0.23992 0.9575 0.78651 0.0
C685 C 0.2464 1.03727 0.80239 0.0
O686 O 0.21883 0.95637 0.66039 0.0
O687 O 0.21528 0.93566 0.84614 0.0
C688 C 0.17969 0.95162 0.8594 0.0
O689 O 0.15328 0.96608 0.83186 0.0
O690 O 0.32178 0.96048 0.71066 0.0
O691 O 0.29781 0.9263 0.77052 0.0
O692 O 0.30811 0.87307 0.67574 0.0
C693 C 0.20166 0.9648 0.69602 0.0
C694 C 0.30259 0.93976 0.58076 0.0
O695 O 0.21218 1.01753 0.79447 0.0
O696 O 0.2784 1.01267 0.79902 0.0
C697 C 0.34749 0.86717 0.66518 0.0
O698 O 0.36814 0.89773 0.64748 0.0
O699 O 0.30912 0.96926 0.60812 0.0
O700 O 0.26265 0.5891 0.56855 0.0
Tb701 Tb 0.20748 0.62758 0.58105 0.0
C702 C 0.2148 0.66585 0.67154 0.0
O703 O 0.21048 0.54574 0.65687 0.0
Tb704 Tb 0.18383 0.58475 0.70699 0.0
C705 C 0.18974 0.5649 0.78678 0.0
O706 O 0.17629 0.56968 0.597 0.0
O707 O 0.12308 0.55938 0.6918 0.0
C708 C 0.11718 0.51999 0.70237 0.0
O709 O 0.14774 0.49935 0.72007 0.0
O710 O 0.19041 0.65457 0.64047 0.0
O711 O 0.20639 0.64867 0.70717 0.0
O712 O 0.18562 0.65225 0.52144 0.0
C713 C 0.19539 0.54028 0.61842 0.0
C714 C 0.28724 0.6211 0.56514 0.0
O715 O 0.21925 0.55837 0.75942 0.0
O716 O 0.15717 0.58081 0.76887 0.0
C717 C 0.20155 0.68784 0.50819 0.0
O718 O 0.21602 0.71425 0.53573 0.0
O719 O 0.2675 0.65533 0.57306 0.0
O720 O 0.83098 0.40717 1.01899 0.0
Tb721 Tb 0.83485 0.43379 0.9571 0.0
C722 C 0.79038 0.44531 0.86851 0.0
O723 O 0.90466 0.44041 0.89051 0.0
Tb724 Tb 0.87765 0.45742 0.83109 0.0
C725 C 0.8711 0.53716 0.81512 0.0
O726 O 0.89874 0.45643 0.9572 0.0
O727 O 0.90228 0.43554 0.77147 0.0
C728 C 0.93785 0.4515 0.75817 0.0
O729 O 0.96427 0.46601 0.78567 0.0
O730 O 0.79578 0.46039 0.90697 0.0
O731 O 0.8198 0.42618 0.84715 0.0
O732 O 0.80948 0.37303 0.94193 0.0
C733 C 0.91591 0.46483 0.92157 0.0
C734 C 0.81502 0.43973 1.03689 0.0
O735 O 0.90535 0.51746 0.82305 0.0
O736 O 0.83912 0.51255 0.81856 0.0
C737 C 0.77009 0.36715 0.95251 0.0
O738 O 0.74947 0.39772 0.97022 0.0
O739 O 0.80844 0.46921 1.00952 0.0
O740 O 0.6571 1.03657 0.34857 0.0
Tb741 Tb 0.68372 1.03267 0.41046 0.0
C742 C 0.69522 0.07716 0.49903 0.0
O743 O 0.69034 0.96287 0.47704 0.0
Tb744 Tb 0.70739 0.98988 0.53645 0.0
C745 C 0.78714 0.99643 0.55238 0.0
O746 O 0.7063 0.96876 0.41033 0.0
O747 O 0.68554 0.96524 0.59607 0.0
C748 C 0.70151 0.92967 0.60935 0.0
O749 O 0.716 0.90325 0.58183 0.0
O750 O 0.71035 0.0717 0.4606 0.0
O751 O 0.67614 1.04775 0.52046 0.0
O752 O 0.62297 1.05808 0.42561 0.0
C753 C 0.71473 0.95161 0.44597 0.0
C754 C 0.68967 1.0525 0.33067 0.0
O755 O 0.76743 0.96218 0.54447 0.0
O756 O 0.76253 1.02841 0.54894 0.0
C757 C 0.61712 0.09747 0.41502 0.0
O758 O 0.6477 0.11808 0.39732 0.0
O759 O 0.71915 0.05906 0.35805 0.0
O760 O 0.28656 0.21042 1.01887 0.0
Tb761 Tb 0.28259 0.18383 0.95696 0.0
C762 C 0.32711 0.17234 0.86841 0.0
O763 O 0.21287 0.17724 0.89042 0.0
Tb764 Tb 0.23983 0.16015 0.831 0.0
C765 C 0.24638 0.08039 0.8151 0.0
O766 O 0.21864 0.16136 0.95712 0.0
O767 O 0.2152 0.18198 0.77136 0.0
C768 C 0.17964 0.16601 0.75807 0.0
O769 O 0.1532 0.15152 0.78557 0.0
O770 O 0.32158 0.15716 0.90681 0.0
O771 O 0.29772 0.19137 0.84692 0.0
O772 O 0.30805 0.24456 0.94183 0.0
C773 C 0.2015 0.15289 0.92148 0.0
C774 C 0.30245 0.17782 1.03675 0.0
O775 O 0.21213 0.1001 0.82299 0.0
O776 O 0.27836 0.105 0.81855 0.0
C777 C 0.34744 0.2504 0.95243 0.0
O778 O 0.36803 0.21981 0.97014 0.0
O779 O 0.30895 0.14833 1.00936 0.0
O780 O 0.35496 0.58914 0.54898 0.0
Tb781 Tb 0.4101 0.62766 0.53649 0.0
C782 C 0.40273 0.66594 0.44602 0.0
O783 O 0.40713 0.54582 0.46064 0.0
Tb784 Tb 0.43374 0.58487 0.41051 0.0
C785 C 0.42777 0.56502 0.33073 0.0
O786 O 0.44134 0.5698 0.52049 0.0
O787 O 0.4945 0.55949 0.42567 0.0
C788 C 0.50038 0.5201 0.41508 0.0
O789 O 0.4698 0.49948 0.39739 0.0
O790 O 0.42713 0.65469 0.47708 0.0
O791 O 0.41114 0.64877 0.41038 0.0
O792 O 0.43195 0.65229 0.59612 0.0
C793 C 0.42223 0.54038 0.49909 0.0
C794 C 0.33035 0.62112 0.55242 0.0
O795 O 0.39829 0.55847 0.35811 0.0
O796 O 0.46035 0.58096 0.34861 0.0
C797 C 0.41599 0.68785 0.60942 0.0
O798 O 0.40149 0.71429 0.58192 0.0
O799 O 0.35006 0.65537 0.54451 0.0
O800 O 0.59856 0.83086 0.71041 0.0
Tb801 Tb 0.66044 0.83473 0.68376 0.0
C802 C 0.74902 0.79025 0.67218 0.0
O803 O 0.72703 0.90452 0.67711 0.0
Tb804 Tb 0.78644 0.87751 0.66006 0.0
C805 C 0.80237 0.87099 0.58031 0.0
O806 O 0.66032 0.89862 0.66114 0.0
O807 O 0.84606 0.90217 0.68192 0.0
C808 C 0.85932 0.93776 0.66597 0.0
O809 O 0.83179 0.96417 0.65147 0.0
O810 O 0.71055 0.79566 0.65713 0.0
O811 O 0.77039 0.81967 0.69131 0.0
O812 O 0.67561 0.80936 0.74451 0.0
C813 C 0.69596 0.91578 0.65271 0.0
C814 C 0.58064 0.81491 0.67786 0.0
O815 O 0.79443 0.90523 0.60002 0.0
O816 O 0.79896 0.839 0.60492 0.0
C817 C 0.66501 0.76997 0.75039 0.0
O818 O 0.64729 0.74936 0.71983 0.0
O819 O 0.608 0.80832 0.64836 0.0
O820 O 0.59859 0.28663 0.90724 0.0
Tb821 Tb 0.66048 0.28276 0.9339 0.0
C822 C 0.74905 0.32723 0.94543 0.0
O823 O 0.72701 0.21291 0.94048 0.0
Tb824 Tb 0.78643 0.23994 0.95748 0.0
C825 C 0.80237 0.24645 1.03722 0.0
O826 O 0.66033 0.21889 0.95656 0.0
O827 O 0.84603 0.21529 0.93559 0.0
C828 C 0.8593 0.1797 0.95153 0.0
O829 O 0.83178 0.15329 0.96602 0.0
O830 O 0.71058 0.32185 0.96049 0.0
O831 O 0.77039 0.29781 0.92627 0.0
O832 O 0.67568 0.30805 0.87312 0.0
C833 C 0.69596 0.20168 0.96492 0.0
C834 C 0.58067 0.30255 0.9398 0.0
O835 O 0.79444 0.21221 1.0175 0.0
O836 O 0.79897 0.27844 1.01262 0.0
C837 C 0.66514 0.34744 0.86719 0.0
O838 O 0.64744 0.36812 0.89773 0.0
O839 O 0.60804 0.30917 0.96928 0.0
O840 O 0.53659 0.26899 0.46026 0.0
Tb841 Tb 0.53275 0.20712 0.43358 0.0
C842 C 0.57721 0.11853 0.42208 0.0
O843 O 0.46287 0.1406 0.42696 0.0
Tb844 Tb 0.48992 0.08117 0.41003 0.0
C845 C 0.49645 0.06518 0.33029 0.0
O846 O 0.4689 0.20727 0.41082 0.0
O847 O 0.46526 1.02158 0.43195 0.0
C848 C 0.42968 1.0083 0.41601 0.0
O849 O 0.40327 1.03581 0.4015 0.0
O850 O 0.57185 0.15701 0.40703 0.0
O851 O 0.54777 0.09722 0.44125 0.0
O852 O 0.55802 0.1919 0.49437 0.0
C853 C 0.45167 0.17164 0.4025 0.0
C854 C 0.55259 0.28691 0.42774 0.0
O855 O 0.4622 0.0731 0.35 0.0
O856 O 0.52843 0.06861 0.3549 0.0
C857 C 0.59741 0.20244 0.5003 0.0
O858 O 0.61809 0.22012 0.46975 0.0
O859 O 0.55921 0.25956 0.39825 0.0
O860 O 0.51899 0.33094 0.90727 0.0
Tb861 Tb 0.4571 0.33477 0.93392 0.0
C862 C 0.36851 0.29031 0.94539 0.0
O863 O 0.39057 0.40463 0.94052 0.0
Tb864 Tb 0.33114 0.37759 0.95746 0.0
C865 C 0.31512 0.37103 1.03719 0.0
O866 O 0.45723 0.39862 0.95666 0.0
O867 O 0.27154 0.40224 0.93554 0.0
C868 C 0.25825 0.43782 0.95149 0.0
O869 O 0.28576 0.46423 0.96602 0.0
O870 O 0.40699 0.29565 0.96045 0.0
O871 O 0.34722 0.31975 0.92621 0.0
O872 O 0.44193 0.30949 0.87313 0.0
C873 C 0.4216 0.41584 0.96499 0.0
C874 C 0.5369 0.31495 0.9398 0.0
O875 O 0.32307 0.40528 1.01749 0.0
O876 O 0.31857 0.33906 1.01257 0.0
C877 C 0.45248 0.2701 0.86722 0.0
O878 O 0.47017 0.24944 0.89777 0.0
O879 O 0.50954 0.30832 0.96928 0.0
O880 O 0.08088 0.84858 0.96039 0.0
Tb881 Tb 0.08477 0.91048 0.93376 0.0
C882 C 1.04027 0.99904 0.92211 0.0
O883 O 0.15451 0.97716 0.92713 0.0
Tb884 Tb 0.12749 1.03656 0.91007 0.0
C885 C 0.12096 1.05245 0.8303 0.0
O886 O 0.14869 0.91043 0.91121 0.0
O887 O 0.1521 0.0962 0.93193 0.0
C888 C 0.18766 0.10951 0.91596 0.0
O889 O 0.21409 0.08201 0.90144 0.0
O890 O 1.04567 0.96054 0.90712 0.0
O891 O 0.06967 1.02039 0.94129 0.0
O892 O 0.05941 0.92566 0.99452 0.0
C893 C 0.1658 0.94608 0.90275 0.0
C894 C 0.06498 0.83067 0.92782 0.0
O895 O 0.1552 1.04451 0.85002 0.0
O896 O 0.08898 1.04908 0.85492 0.0
C897 C 1.02003 0.91506 1.00042 0.0
O898 O 0.9994 0.89733 0.96987 0.0
O899 O 1.05843 0.85804 0.89832 0.0
O900 O 1.0189 0.28662 0.2103 0.0
Tb901 Tb 0.95701 0.28272 0.18367 0.0
C902 C 0.86845 0.32721 0.17218 0.0
O903 O 0.89049 0.2129 0.1771 0.0
Tb904 Tb 0.83107 0.23991 0.16008 0.0
C905 C 0.81511 0.24644 0.08033 0.0
O906 O 0.95718 0.21882 0.16108 0.0
O907 O 0.77146 0.21526 0.18196 0.0
C908 C 0.75819 0.17967 0.16603 0.0
O909 O 0.78571 0.15326 0.15152 0.0
O910 O 0.90688 0.32174 0.15705 0.0
O911 O 0.84703 0.29781 0.19128 0.0
O912 O 0.94186 0.3081 0.24443 0.0
C913 C 0.92155 0.20164 0.15268 0.0
C914 C 1.0368 0.30255 0.17773 0.0
O915 O 0.82302 0.21219 0.10005 0.0
O916 O 0.81856 0.27842 0.10493 0.0
C917 C 0.95244 0.34749 0.25031 0.0
O918 O 0.97013 0.36812 0.21973 0.0
O919 O 1.00943 0.30912 0.14825 0.0
O920 O 0.53653 0.8485 0.15725 0.0
Tb921 Tb 0.53273 0.91039 0.1839 0.0
C922 C 0.57722 0.99897 0.19542 0.0
O923 O 0.46293 0.97695 0.1905 0.0
Tb924 Tb 0.48994 1.03639 0.20746 0.0
C925 C 0.49645 1.05241 0.28719 0.0
O926 O 0.46886 0.91027 0.20657 0.0
O927 O 0.46526 0.09597 0.18553 0.0
C928 C 0.42966 0.10923 0.20145 0.0
O929 O 0.40327 0.08169 0.21597 0.0
O930 O 0.57181 0.9605 0.21049 0.0
O931 O 0.54781 1.02032 0.17626 0.0
O932 O 0.55809 0.92556 0.12313 0.0
C933 C 0.45168 0.94591 0.21494 0.0
C934 C 0.55247 0.83058 0.1898 0.0
O935 O 0.46221 1.04445 0.26748 0.0
O936 O 0.52844 1.04898 0.26259 0.0
C937 C 0.59747 0.91497 0.11724 0.0
O938 O 0.6181 0.89726 0.1478 0.0
O939 O 0.55914 0.85794 0.21927 0.0
O940 O 0.58081 0.7689 0.15722 0.0
Tb941 Tb 0.58472 0.70702 0.18387 0.0
C942 C 0.54023 0.61845 0.1954 0.0
O943 O 0.65453 0.6405 0.19045 0.0
Tb944 Tb 0.62753 0.58108 0.20748 0.0
C945 C 0.62103 0.56513 0.28723 0.0
O946 O 0.64862 0.70719 0.20647 0.0
O947 O 0.65219 0.52147 0.1856 0.0
C948 C 0.68779 0.50822 0.20152 0.0
O949 O 0.7142 0.53575 0.21601 0.0
O950 O 0.54569 0.65689 0.2105 0.0
O951 O 0.56963 0.59704 0.17629 0.0
O952 O 0.55938 0.69183 0.1231 0.0
C953 C 0.6658 0.67156 0.21486 0.0
C954 C 0.56488 0.78681 0.18978 0.0
O955 O 0.65527 0.57304 0.2675 0.0
O956 O 0.58904 0.56857 0.26264 0.0
C957 C 0.51999 0.70239 0.1172 0.0
O958 O 0.49934 0.72009 0.14775 0.0
O959 O 0.55832 0.75944 0.21928 0.0
loop_
_geom_bond_atom_site_label_1
_geom_bond_atom_site_label_2
_geom_bond_distance
_geom_bond_site_symmetry_2
_ccdc_geom_bond_type
O0 Tb1 2.506 . S
O0 C14 1.265 . S
Tb1 O0 2.506 . S
Tb1 O6 2.312 . S
Tb1 O10 2.271 . S
Tb1 O12 2.338 . S
Tb1 O19 2.441 . S
C2 O10 1.252 . S
C2 O11 1.253 . S
O3 Tb4 2.271 . S
O3 C13 1.252 . S
Tb4 O3 2.271 . S
Tb4 O7 2.338 . S
Tb4 O11 2.312 . S
Tb4 O15 2.441 . S
Tb4 O16 2.506 . S
C5 O15 1.244 . S
C5 O16 1.265 . S
O6 Tb1 2.312 . S
O6 C13 1.253 . S
O7 Tb4 2.338 . S
O7 C8 1.258 . S
C8 O7 1.258 . S
C8 O9 1.251 . S
O9 C8 1.251 . S
O10 Tb1 2.271 . S
O10 C2 1.252 . S
O11 C2 1.253 . S
O11 Tb4 2.312 . S
O12 Tb1 2.338 . S
O12 C17 1.258 . S
C13 O3 1.252 . S
C13 O6 1.253 . S
C14 O0 1.265 . S
C14 O19 1.244 . S
O15 Tb4 2.441 . S
O15 C5 1.244 . S
O16 Tb4 2.506 . S
O16 C5 1.265 . S
C17 O12 1.258 . S
C17 O18 1.251 . S
O18 C17 1.251 . S
O19 Tb1 2.441 . S
O19 C14 1.244 . S
O20 Tb21 2.506 . S
O20 C34 1.265 1_556 S
Tb21 O20 2.506 . S
Tb21 O26 2.312 . S
Tb21 O30 2.271 . S
Tb21 O32 2.338 . S
Tb21 O39 2.441 1_556 S
C22 O30 1.252 1_554 S
C22 O31 1.253 1_554 S
O23 Tb24 2.271 . S
O23 C33 1.252 . S
Tb24 O23 2.271 . S
Tb24 O27 2.338 . S
Tb24 O31 2.312 . S
Tb24 O35 2.441 . S
Tb24 O36 2.506 . S
C25 O35 1.244 . S
C25 O36 1.265 . S
O26 Tb21 2.312 . S
O26 C33 1.253 . S
O27 Tb24 2.338 . S
O27 C28 1.258 . S
C28 O27 1.258 . S
C28 O29 1.251 . S
O29 C28 1.251 . S
O30 Tb21 2.271 . S
O30 C22 1.252 1_556 S
O31 C22 1.253 1_556 S
O31 Tb24 2.312 . S
O32 Tb21 2.338 . S
O32 C37 1.258 . S
C33 O23 1.252 . S
C33 O26 1.253 . S
C34 O20 1.265 1_554 S
C34 O39 1.244 . S
O35 Tb24 2.441 . S
O35 C25 1.244 . S
O36 Tb24 2.506 . S
O36 C25 1.265 . S
C37 O32 1.258 . S
C37 O38 1.251 . S
O38 C37 1.251 . S
O39 Tb21 2.441 1_554 S
O39 C34 1.244 . S
O40 Tb41 2.506 . S
O40 C54 1.265 . S
Tb41 O40 2.506 . S
Tb41 O46 2.312 . S
Tb41 O50 2.271 . S
Tb41 O52 2.338 . S
Tb41 O59 2.441 . S
C42 O50 1.252 . S
C42 O51 1.253 . S
O43 Tb44 2.271 . S
O43 C53 1.252 . S
Tb44 O43 2.271 . S
Tb44 O47 2.338 . S
Tb44 O51 2.312 . S
Tb44 O55 2.441 . S
Tb44 O56 2.506 . S
C45 O55 1.244 . S
C45 O56 1.265 . S
O46 Tb41 2.312 . S
O46 C53 1.253 . S
O47 Tb44 2.338 . S
O47 C48 1.258 . S
C48 O47 1.258 . S
C48 O49 1.251 . S
O49 C48 1.251 . S
O50 Tb41 2.271 . S
O50 C42 1.252 . S
O51 C42 1.253 . S
O51 Tb44 2.312 . S
O52 Tb41 2.338 . S
O52 C57 1.258 . S
C53 O43 1.252 . S
C53 O46 1.253 . S
C54 O40 1.265 . S
C54 O59 1.244 . S
O55 Tb44 2.441 . S
O55 C45 1.244 . S
O56 Tb44 2.506 . S
O56 C45 1.265 . S
C57 O52 1.258 . S
C57 O58 1.251 . S
O58 C57 1.251 . S
O59 Tb41 2.441 . S
O59 C54 1.244 . S
O60 Tb61 2.506 . S
O60 C74 1.265 . S
Tb61 O60 2.506 . S
Tb61 O66 2.312 . S
Tb61 O70 2.271 . S
Tb61 O72 2.338 . S
Tb61 O79 2.441 . S
C62 O70 1.252 . S
C62 O71 1.253 . S
O63 Tb64 2.271 . S
O63 C73 1.252 1_556 S
Tb64 O63 2.271 . S
Tb64 O67 2.338 . S
Tb64 O71 2.312 . S
Tb64 O75 2.441 1_556 S
Tb64 O76 2.506 . S
C65 O75 1.244 . S
C65 O76 1.265 1_554 S
O66 Tb61 2.312 . S
O66 C73 1.253 1_556 S
O67 Tb64 2.338 . S
O67 C68 1.258 . S
C68 O67 1.258 . S
C68 O69 1.251 . S
O69 C68 1.251 . S
O70 Tb61 2.271 . S
O70 C62 1.252 . S
O71 C62 1.253 . S
O71 Tb64 2.312 . S
O72 Tb61 2.338 . S
O72 C77 1.258 . S
C73 O63 1.252 1_554 S
C73 O66 1.253 1_554 S
C74 O60 1.265 . S
C74 O79 1.244 . S
O75 Tb64 2.441 1_554 S
O75 C65 1.244 . S
O76 Tb64 2.506 . S
O76 C65 1.265 1_556 S
C77 O72 1.258 . S
C77 O78 1.251 . S
O78 C77 1.251 . S
O79 Tb61 2.441 . S
O79 C74 1.244 . S
O80 Tb81 2.506 . S
O80 C94 1.265 . S
Tb81 O80 2.506 . S
Tb81 O86 2.312 . S
Tb81 O90 2.271 . S
Tb81 O92 2.338 . S
Tb81 O99 2.441 . S
C82 O90 1.252 . S
C82 O91 1.253 . S
O83 Tb84 2.271 . S
O83 C93 1.252 . S
Tb84 O83 2.271 . S
Tb84 O87 2.338 . S
Tb84 O91 2.312 . S
Tb84 O95 2.441 . S
Tb84 O96 2.506 . S
C85 O95 1.244 . S
C85 O96 1.265 . S
O86 Tb81 2.312 . S
O86 C93 1.253 . S
O87 Tb84 2.338 . S
O87 C88 1.258 . S
C88 O87 1.258 . S
C88 O89 1.251 . S
O89 C88 1.251 . S
O90 Tb81 2.271 . S
O90 C82 1.252 . S
O91 C82 1.253 . S
O91 Tb84 2.312 . S
O92 Tb81 2.338 . S
O92 C97 1.258 . S
C93 O83 1.252 . S
C93 O86 1.253 . S
C94 O80 1.265 . S
C94 O99 1.244 . S
O95 Tb84 2.441 . S
O95 C85 1.244 . S
O96 Tb84 2.506 . S
O96 C85 1.265 . S
C97 O92 1.258 . S
C97 O98 1.251 . S
O98 C97 1.251 . S
O99 Tb81 2.441 . S
O99 C94 1.244 . S
O100 Tb101 2.506 1_655 S
O100 C114 1.265 . S
Tb101 O100 2.506 1_455 S
Tb101 O106 2.312 . S
Tb101 O110 2.271 . S
Tb101 O112 2.338 1_455 S
Tb101 O119 2.441 . S
C102 O110 1.252 . S
C102 O111 1.253 . S
O103 Tb104 2.271 . S
O103 C113 1.252 1_554 S
Tb104 O103 2.271 . S
Tb104 O107 2.338 . S
Tb104 O111 2.312 . S
Tb104 O115 2.441 1_554 S
Tb104 O116 2.506 . S
C105 O115 1.244 . S
C105 O116 1.265 1_556 S
O106 Tb101 2.312 . S
O106 C113 1.253 1_554 S
O107 Tb104 2.338 . S
O107 C108 1.258 . S
C108 O107 1.258 . S
C108 O109 1.251 . S
O109 C108 1.251 . S
O110 Tb101 2.271 . S
O110 C102 1.252 . S
O111 C102 1.253 . S
O111 Tb104 2.312 . S
O112 Tb101 2.338 1_655 S
O112 C117 1.258 . S
C113 O103 1.252 1_556 S
C113 O106 1.253 1_556 S
C114 O100 1.265 . S
C114 O119 1.244 1_655 S
O115 Tb104 2.441 1_556 S
O115 C105 1.244 . S
O116 Tb104 2.506 . S
O116 C105 1.265 1_554 S
C117 O112 1.258 . S
C117 O118 1.251 1_655 S
O118 C117 1.251 1_455 S
O119 Tb101 2.441 . S
O119 C114 1.244 1_455 S
O120 Tb121 2.506 . S
O120 C134 1.265 . S
Tb121 O120 2.506 . S
Tb121 O126 2.312 . S
Tb121 O130 2.271 . S
Tb121 O132 2.338 . S
Tb121 O139 2.441 . S
C122 O130 1.252 . S
C122 O131 1.253 . S
O123 Tb124 2.271 . S
O123 C133 1.252 . S
Tb124 O123 2.271 . S
Tb124 O127 2.338 . S
Tb124 O131 2.312 . S
Tb124 O135 2.441 . S
Tb124 O136 2.506 . S
C125 O135 1.244 . S
C125 O136 1.265 . S
O126 Tb121 2.312 . S
O126 C133 1.253 . S
O127 Tb124 2.338 . S
O127 C128 1.258 . S
C128 O127 1.258 . S
C128 O129 1.251 . S
O129 C128 1.251 . S
O130 Tb121 2.271 . S
O130 C122 1.252 . S
O131 C122 1.253 . S
O131 Tb124 2.312 . S
O132 Tb121 2.338 . S
O132 C137 1.258 . S
C133 O123 1.252 . S
C133 O126 1.253 . S
C134 O120 1.265 . S
C134 O139 1.244 . S
O135 Tb124 2.441 . S
O135 C125 1.244 . S
O136 Tb124 2.506 . S
O136 C125 1.265 . S
C137 O132 1.258 . S
C137 O138 1.251 . S
O138 C137 1.251 . S
O139 Tb121 2.441 . S
O139 C134 1.244 . S
O140 Tb141 2.506 . S
O140 C154 1.265 1_554 S
Tb141 O140 2.506 . S
Tb141 O146 2.312 . S
Tb141 O150 2.271 . S
Tb141 O152 2.338 . S
Tb141 O159 2.441 1_554 S
C142 O150 1.252 1_556 S
C142 O151 1.253 1_556 S
O143 Tb144 2.271 . S
O143 C153 1.252 . S
Tb144 O143 2.271 . S
Tb144 O147 2.338 1_655 S
Tb144 O151 2.312 . S
Tb144 O155 2.441 . S
Tb144 O156 2.506 1_655 S
C145 O155 1.244 1_455 S
C145 O156 1.265 . S
O146 Tb141 2.312 . S
O146 C153 1.253 . S
O147 Tb144 2.338 1_455 S
O147 C148 1.258 . S
C148 O147 1.258 . S
C148 O149 1.251 1_455 S
O149 C148 1.251 1_655 S
O150 Tb141 2.271 . S
O150 C142 1.252 1_554 S
O151 C142 1.253 1_554 S
O151 Tb144 2.312 . S
O152 Tb141 2.338 . S
O152 C157 1.258 . S
C153 O143 1.252 . S
C153 O146 1.253 . S
C154 O140 1.265 1_556 S
C154 O159 1.244 . S
O155 Tb144 2.441 . S
O155 C145 1.244 1_655 S
O156 Tb144 2.506 1_455 S
O156 C145 1.265 . S
C157 O152 1.258 . S
C157 O158 1.251 . S
O158 C157 1.251 . S
O159 Tb141 2.441 1_556 S
O159 C154 1.244 . S
O160 Tb161 2.506 . S
O160 C174 1.265 . S
Tb161 O160 2.506 . S
Tb161 O166 2.312 . S
Tb161 O170 2.271 . S
Tb161 O172 2.338 . S
Tb161 O179 2.441 . S
C162 O170 1.252 . S
C162 O171 1.253 . S
O163 Tb164 2.271 . S
O163 C173 1.252 . S
Tb164 O163 2.271 . S
Tb164 O167 2.338 . S
Tb164 O171 2.312 . S
Tb164 O175 2.441 . S
Tb164 O176 2.506 . S
C165 O175 1.244 . S
C165 O176 1.265 . S
O166 Tb161 2.312 . S
O166 C173 1.253 . S
O167 Tb164 2.338 . S
O167 C168 1.258 . S
C168 O167 1.258 . S
C168 O169 1.251 . S
O169 C168 1.251 . S
O170 Tb161 2.271 . S
O170 C162 1.252 . S
O171 C162 1.253 . S
O171 Tb164 2.312 . S
O172 Tb161 2.338 . S
O172 C177 1.258 . S
C173 O163 1.252 . S
C173 O166 1.253 . S
C174 O160 1.265 . S
C174 O179 1.244 . S
O175 Tb164 2.441 . S
O175 C165 1.244 . S
O176 Tb164 2.506 . S
O176 C165 1.265 . S
C177 O172 1.258 . S
C177 O178 1.251 . S
O178 C177 1.251 . S
O179 Tb161 2.441 . S
O179 C174 1.244 . S
O180 Tb181 2.506 . S
O180 C194 1.265 . S
Tb181 O180 2.506 . S
Tb181 O186 2.312 . S
Tb181 O190 2.271 . S
Tb181 O192 2.338 . S
Tb181 O199 2.441 . S
C182 O190 1.252 . S
C182 O191 1.253 . S
O183 Tb184 2.271 . S
O183 C193 1.252 . S
Tb184 O183 2.271 . S
Tb184 O187 2.338 1_554 S
Tb184 O191 2.312 . S
Tb184 O195 2.441 . S
Tb184 O196 2.506 1_554 S
C185 O195 1.244 1_556 S
C185 O196 1.265 . S
O186 Tb181 2.312 . S
O186 C193 1.253 . S
O187 Tb184 2.338 1_556 S
O187 C188 1.258 . S
C188 O187 1.258 . S
C188 O189 1.251 1_556 S
O189 C188 1.251 1_554 S
O190 Tb181 2.271 . S
O190 C182 1.252 . S
O191 C182 1.253 . S
O191 Tb184 2.312 . S
O192 Tb181 2.338 . S
O192 C197 1.258 . S
C193 O183 1.252 . S
C193 O186 1.253 . S
C194 O180 1.265 . S
C194 O199 1.244 . S
O195 Tb184 2.441 . S
O195 C185 1.244 1_554 S
O196 Tb184 2.506 1_556 S
O196 C185 1.265 . S
C197 O192 1.258 . S
C197 O198 1.251 . S
O198 C197 1.251 . S
O199 Tb181 2.441 . S
O199 C194 1.244 . S
O200 Tb201 2.506 . S
O200 C214 1.265 . S
Tb201 O200 2.506 . S
Tb201 O206 2.312 . S
Tb201 O210 2.271 . S
Tb201 O212 2.338 . S
Tb201 O219 2.441 . S
C202 O210 1.252 . S
C202 O211 1.253 . S
O203 Tb204 2.271 . S
O203 C213 1.252 . S
Tb204 O203 2.271 . S
Tb204 O207 2.338 . S
Tb204 O211 2.312 . S
Tb204 O215 2.441 . S
Tb204 O216 2.506 . S
C205 O215 1.244 . S
C205 O216 1.265 . S
O206 Tb201 2.312 . S
O206 C213 1.253 . S
O207 Tb204 2.338 . S
O207 C208 1.258 . S
C208 O207 1.258 . S
C208 O209 1.251 . S
O209 C208 1.251 . S
O210 Tb201 2.271 . S
O210 C202 1.252 . S
O211 C202 1.253 . S
O211 Tb204 2.312 . S
O212 Tb201 2.338 . S
O212 C217 1.258 . S
C213 O203 1.252 . S
C213 O206 1.253 . S
C214 O200 1.265 . S
C214 O219 1.244 . S
O215 Tb204 2.441 . S
O215 C205 1.244 . S
O216 Tb204 2.506 . S
O216 C205 1.265 . S
C217 O212 1.258 . S
C217 O218 1.251 . S
O218 C217 1.251 . S
O219 Tb201 2.441 . S
O219 C214 1.244 . S
O220 Tb221 2.506 1_556 S
O220 C234 1.265 . S
Tb221 O220 2.506 1_554 S
Tb221 O226 2.312 . S
Tb221 O230 2.271 . S
Tb221 O232 2.338 1_554 S
Tb221 O239 2.441 . S
C222 O230 1.252 . S
C222 O231 1.253 . S
O223 Tb224 2.271 . S
O223 C233 1.252 1_545 S
Tb224 O223 2.271 . S
Tb224 O227 2.338 . S
Tb224 O231 2.312 . S
Tb224 O235 2.441 1_545 S
Tb224 O236 2.506 . S
C225 O235 1.244 . S
C225 O236 1.265 1_565 S
O226 Tb221 2.312 . S
O226 C233 1.253 1_545 S
O227 Tb224 2.338 . S
O227 C228 1.258 . S
C228 O227 1.258 . S
C228 O229 1.251 . S
O229 C228 1.251 . S
O230 Tb221 2.271 . S
O230 C222 1.252 . S
O231 C222 1.253 . S
O231 Tb224 2.312 . S
O232 Tb221 2.338 1_556 S
O232 C237 1.258 . S
C233 O223 1.252 1_565 S
C233 O226 1.253 1_565 S
C234 O220 1.265 . S
C234 O239 1.244 1_556 S
O235 Tb224 2.441 1_565 S
O235 C225 1.244 . S
O236 Tb224 2.506 . S
O236 C225 1.265 1_545 S
C237 O232 1.258 . S
C237 O238 1.251 1_556 S
O238 C237 1.251 1_554 S
O239 Tb221 2.441 . S
O239 C234 1.244 1_554 S
O240 Tb241 2.506 . S
O240 C254 1.265 . S
Tb241 O240 2.506 . S
Tb241 O246 2.312 . S
Tb241 O250 2.271 . S
Tb241 O252 2.338 . S
Tb241 O259 2.441 . S
C242 O250 1.252 . S
C242 O251 1.253 . S
O243 Tb244 2.271 . S
O243 C253 1.252 . S
Tb244 O243 2.271 . S
Tb244 O247 2.338 . S
Tb244 O251 2.312 . S
Tb244 O255 2.441 . S
Tb244 O256 2.506 . S
C245 O255 1.244 . S
C245 O256 1.265 . S
O246 Tb241 2.312 . S
O246 C253 1.253 . S
O247 Tb244 2.338 . S
O247 C248 1.258 . S
C248 O247 1.258 . S
C248 O249 1.251 . S
O249 C248 1.251 . S
O250 Tb241 2.271 . S
O250 C242 1.252 . S
O251 C242 1.253 . S
O251 Tb244 2.312 . S
O252 Tb241 2.338 . S
O252 C257 1.258 . S
C253 O243 1.252 . S
C253 O246 1.253 . S
C254 O240 1.265 . S
C254 O259 1.244 . S
O255 Tb244 2.441 . S
O255 C245 1.244 . S
O256 Tb244 2.506 . S
O256 C245 1.265 . S
C257 O252 1.258 . S
C257 O258 1.251 . S
O258 C257 1.251 . S
O259 Tb241 2.441 . S
O259 C254 1.244 . S
O260 Tb261 2.506 . S
O260 C274 1.265 . S
Tb261 O260 2.506 . S
Tb261 O266 2.312 . S
Tb261 O270 2.271 . S
Tb261 O272 2.338 . S
Tb261 O279 2.441 . S
C262 O270 1.252 . S
C262 O271 1.253 . S
O263 Tb264 2.271 . S
O263 C273 1.252 . S
Tb264 O263 2.271 . S
Tb264 O267 2.338 1_556 S
Tb264 O271 2.312 . S
Tb264 O275 2.441 . S
Tb264 O276 2.506 1_556 S
C265 O275 1.244 1_554 S
C265 O276 1.265 . S
O266 Tb261 2.312 . S
O266 C273 1.253 . S
O267 Tb264 2.338 1_554 S
O267 C268 1.258 . S
C268 O267 1.258 . S
C268 O269 1.251 1_554 S
O269 C268 1.251 1_556 S
O270 Tb261 2.271 . S
O270 C262 1.252 . S
O271 C262 1.253 . S
O271 Tb264 2.312 . S
O272 Tb261 2.338 . S
O272 C277 1.258 . S
C273 O263 1.252 . S
C273 O266 1.253 . S
C274 O260 1.265 . S
C274 O279 1.244 . S
O275 Tb264 2.441 . S
O275 C265 1.244 1_556 S
O276 Tb264 2.506 1_554 S
O276 C265 1.265 . S
C277 O272 1.258 . S
C277 O278 1.251 . S
O278 C277 1.251 . S
O279 Tb261 2.441 . S
O279 C274 1.244 . S
O280 Tb281 2.506 . S
O280 C294 1.265 . S
Tb281 O280 2.506 . S
Tb281 O286 2.312 . S
Tb281 O290 2.271 . S
Tb281 O292 2.338 . S
Tb281 O299 2.441 . S
C282 O290 1.252 . S
C282 O291 1.253 . S
O283 Tb284 2.271 . S
O283 C293 1.252 . S
Tb284 O283 2.271 . S
Tb284 O287 2.338 . S
Tb284 O291 2.312 . S
Tb284 O295 2.441 . S
Tb284 O296 2.506 . S
C285 O295 1.244 . S
C285 O296 1.265 . S
O286 Tb281 2.312 . S
O286 C293 1.253 . S
O287 Tb284 2.338 . S
O287 C288 1.258 . S
C288 O287 1.258 . S
C288 O289 1.251 . S
O289 C288 1.251 . S
O290 Tb281 2.271 . S
O290 C282 1.252 . S
O291 C282 1.253 . S
O291 Tb284 2.312 . S
O292 Tb281 2.338 . S
O292 C297 1.258 . S
C293 O283 1.252 . S
C293 O286 1.253 . S
C294 O280 1.265 . S
C294 O299 1.244 . S
O295 Tb284 2.441 . S
O295 C285 1.244 . S
O296 Tb284 2.506 . S
O296 C285 1.265 . S
C297 O292 1.258 . S
C297 O298 1.251 . S
O298 C297 1.251 . S
O299 Tb281 2.441 . S
O299 C294 1.244 . S
O300 Tb301 2.506 1_554 S
O300 C314 1.265 . S
Tb301 O300 2.506 1_556 S
Tb301 O306 2.312 . S
Tb301 O310 2.271 . S
Tb301 O312 2.338 1_556 S
Tb301 O319 2.441 . S
C302 O310 1.252 . S
C302 O311 1.253 . S
O303 Tb304 2.271 . S
O303 C313 1.252 1_545 S
Tb304 O303 2.271 . S
Tb304 O307 2.338 . S
Tb304 O311 2.312 . S
Tb304 O315 2.441 1_545 S
Tb304 O316 2.506 . S
C305 O315 1.244 . S
C305 O316 1.265 1_565 S
O306 Tb301 2.312 . S
O306 C313 1.253 1_545 S
O307 Tb304 2.338 . S
O307 C308 1.258 . S
C308 O307 1.258 . S
C308 O309 1.251 . S
O309 C308 1.251 . S
O310 Tb301 2.271 . S
O310 C302 1.252 . S
O311 C302 1.253 . S
O311 Tb304 2.312 . S
O312 Tb301 2.338 1_554 S
O312 C317 1.258 . S
C313 O303 1.252 1_565 S
C313 O306 1.253 1_565 S
C314 O300 1.265 . S
C314 O319 1.244 1_554 S
O315 Tb304 2.441 1_565 S
O315 C305 1.244 . S
O316 Tb304 2.506 . S
O316 C305 1.265 1_545 S
C317 O312 1.258 . S
C317 O318 1.251 1_554 S
O318 C317 1.251 1_556 S
O319 Tb301 2.441 . S
O319 C314 1.244 1_556 S
O320 Tb321 2.506 . S
O320 C334 1.265 . S
Tb321 O320 2.506 . S
Tb321 O326 2.312 . S
Tb321 O330 2.271 . S
Tb321 O332 2.338 . S
Tb321 O339 2.441 . S
C322 O330 1.252 . S
C322 O331 1.253 . S
O323 Tb324 2.271 . S
O323 C333 1.252 . S
Tb324 O323 2.271 . S
Tb324 O327 2.338 . S
Tb324 O331 2.312 . S
Tb324 O335 2.441 . S
Tb324 O336 2.506 . S
C325 O335 1.244 . S
C325 O336 1.265 . S
O326 Tb321 2.312 . S
O326 C333 1.253 . S
O327 Tb324 2.338 . S
O327 C328 1.258 . S
C328 O327 1.258 . S
C328 O329 1.251 . S
O329 C328 1.251 . S
O330 Tb321 2.271 . S
O330 C322 1.252 . S
O331 C322 1.253 . S
O331 Tb324 2.312 . S
O332 Tb321 2.338 . S
O332 C337 1.258 . S
C333 O323 1.252 . S
C333 O326 1.253 . S
C334 O320 1.265 . S
C334 O339 1.244 . S
O335 Tb324 2.441 . S
O335 C325 1.244 . S
O336 Tb324 2.506 . S
O336 C325 1.265 . S
C337 O332 1.258 . S
C337 O338 1.251 . S
O338 C337 1.251 . S
O339 Tb321 2.441 . S
O339 C334 1.244 . S
O340 Tb341 2.506 . S
O340 C354 1.265 . S
Tb341 O340 2.506 . S
Tb341 O346 2.312 . S
Tb341 O350 2.271 . S
Tb341 O352 2.338 . S
Tb341 O359 2.441 . S
C342 O350 1.252 . S
C342 O351 1.253 . S
O343 Tb344 2.271 . S
O343 C353 1.252 . S
Tb344 O343 2.271 . S
Tb344 O347 2.338 . S
Tb344 O351 2.312 . S
Tb344 O355 2.441 . S
Tb344 O356 2.506 . S
C345 O355 1.244 . S
C345 O356 1.265 . S
O346 Tb341 2.312 . S
O346 C353 1.253 . S
O347 Tb344 2.338 . S
O347 C348 1.258 . S
C348 O347 1.258 . S
C348 O349 1.251 . S
O349 C348 1.251 . S
O350 Tb341 2.271 . S
O350 C342 1.252 . S
O351 C342 1.253 . S
O351 Tb344 2.312 . S
O352 Tb341 2.338 . S
O352 C357 1.258 . S
C353 O343 1.252 . S
C353 O346 1.253 . S
C354 O340 1.265 . S
C354 O359 1.244 . S
O355 Tb344 2.441 . S
O355 C345 1.244 . S
O356 Tb344 2.506 . S
O356 C345 1.265 . S
C357 O352 1.258 . S
C357 O358 1.251 . S
O358 C357 1.251 . S
O359 Tb341 2.441 . S
O359 C354 1.244 . S
O360 Tb361 2.506 . S
O360 C374 1.265 1_655 S
Tb361 O360 2.506 . S
Tb361 O366 2.312 . S
Tb361 O370 2.271 . S
Tb361 O372 2.338 . S
Tb361 O379 2.441 1_655 S
C362 O370 1.252 1_455 S
C362 O371 1.253 1_455 S
O363 Tb364 2.271 . S
O363 C373 1.252 . S
Tb364 O363 2.271 . S
Tb364 O367 2.338 . S
Tb364 O371 2.312 . S
Tb364 O375 2.441 . S
Tb364 O376 2.506 . S
C365 O375 1.244 . S
C365 O376 1.265 . S
O366 Tb361 2.312 . S
O366 C373 1.253 . S
O367 Tb364 2.338 . S
O367 C368 1.258 . S
C368 O367 1.258 . S
C368 O369 1.251 . S
O369 C368 1.251 . S
O370 Tb361 2.271 . S
O370 C362 1.252 1_655 S
O371 C362 1.253 1_655 S
O371 Tb364 2.312 . S
O372 Tb361 2.338 . S
O372 C377 1.258 . S
C373 O363 1.252 . S
C373 O366 1.253 . S
C374 O360 1.265 1_455 S
C374 O379 1.244 . S
O375 Tb364 2.441 . S
O375 C365 1.244 . S
O376 Tb364 2.506 . S
O376 C365 1.265 . S
C377 O372 1.258 . S
C377 O378 1.251 . S
O378 C377 1.251 . S
O379 Tb361 2.441 1_455 S
O379 C374 1.244 . S
O380 Tb381 2.506 . S
O380 C394 1.265 . S
Tb381 O380 2.506 . S
Tb381 O386 2.312 . S
Tb381 O390 2.271 . S
Tb381 O392 2.338 . S
Tb381 O399 2.441 . S
C382 O390 1.252 . S
C382 O391 1.253 . S
O383 Tb384 2.271 . S
O383 C393 1.252 . S
Tb384 O383 2.271 . S
Tb384 O387 2.338 . S
Tb384 O391 2.312 . S
Tb384 O395 2.441 . S
Tb384 O396 2.506 . S
C385 O395 1.244 . S
C385 O396 1.265 . S
O386 Tb381 2.312 . S
O386 C393 1.253 . S
O387 Tb384 2.338 . S
O387 C388 1.258 . S
C388 O387 1.258 . S
C388 O389 1.251 . S
O389 C388 1.251 . S
O390 Tb381 2.271 . S
O390 C382 1.252 . S
O391 C382 1.253 . S
O391 Tb384 2.312 . S
O392 Tb381 2.338 . S
O392 C397 1.258 . S
C393 O383 1.252 . S
C393 O386 1.253 . S
C394 O380 1.265 . S
C394 O399 1.244 . S
O395 Tb384 2.441 . S
O395 C385 1.244 . S
O396 Tb384 2.506 . S
O396 C385 1.265 . S
C397 O392 1.258 . S
C397 O398 1.251 . S
O398 C397 1.251 . S
O399 Tb381 2.441 . S
O399 C394 1.244 . S
O400 Tb401 2.506 . S
O400 C414 1.265 . S
Tb401 O400 2.506 . S
Tb401 O406 2.312 . S
Tb401 O410 2.271 . S
Tb401 O412 2.338 . S
Tb401 O419 2.441 . S
C402 O410 1.252 . S
C402 O411 1.253 . S
O403 Tb404 2.271 . S
O403 C413 1.252 . S
Tb404 O403 2.271 . S
Tb404 O407 2.338 . S
Tb404 O411 2.312 . S
Tb404 O415 2.441 . S
Tb404 O416 2.506 . S
C405 O415 1.244 . S
C405 O416 1.265 . S
O406 Tb401 2.312 . S
O406 C413 1.253 . S
O407 Tb404 2.338 . S
O407 C408 1.258 . S
C408 O407 1.258 . S
C408 O409 1.251 . S
O409 C408 1.251 . S
O410 Tb401 2.271 . S
O410 C402 1.252 . S
O411 C402 1.253 . S
O411 Tb404 2.312 . S
O412 Tb401 2.338 . S
O412 C417 1.258 . S
C413 O403 1.252 . S
C413 O406 1.253 . S
C414 O400 1.265 . S
C414 O419 1.244 . S
O415 Tb404 2.441 . S
O415 C405 1.244 . S
O416 Tb404 2.506 . S
O416 C405 1.265 . S
C417 O412 1.258 . S
C417 O418 1.251 . S
O418 C417 1.251 . S
O419 Tb401 2.441 . S
O419 C414 1.244 . S
O420 Tb421 2.506 . S
O420 C434 1.265 . S
Tb421 O420 2.506 . S
Tb421 O426 2.312 . S
Tb421 O430 2.271 . S
Tb421 O432 2.338 . S
Tb421 O439 2.441 . S
C422 O430 1.252 . S
C422 O431 1.253 . S
O423 Tb424 2.271 . S
O423 C433 1.252 . S
Tb424 O423 2.271 . S
Tb424 O427 2.338 . S
Tb424 O431 2.312 . S
Tb424 O435 2.441 . S
Tb424 O436 2.506 . S
C425 O435 1.244 . S
C425 O436 1.265 . S
O426 Tb421 2.312 . S
O426 C433 1.253 . S
O427 Tb424 2.338 . S
O427 C428 1.258 . S
C428 O427 1.258 . S
C428 O429 1.251 . S
O429 C428 1.251 . S
O430 Tb421 2.271 . S
O430 C422 1.252 . S
O431 C422 1.253 . S
O431 Tb424 2.312 . S
O432 Tb421 2.338 . S
O432 C437 1.258 . S
C433 O423 1.252 . S
C433 O426 1.253 . S
C434 O420 1.265 . S
C434 O439 1.244 . S
O435 Tb424 2.441 . S
O435 C425 1.244 . S
O436 Tb424 2.506 . S
O436 C425 1.265 . S
C437 O432 1.258 . S
C437 O438 1.251 . S
O438 C437 1.251 . S
O439 Tb421 2.441 . S
O439 C434 1.244 . S
O440 Tb441 2.506 . S
O440 C454 1.265 1_655 S
Tb441 O440 2.506 . S
Tb441 O446 2.312 . S
Tb441 O450 2.271 . S
Tb441 O452 2.338 . S
Tb441 O459 2.441 1_655 S
C442 O450 1.252 1_455 S
C442 O451 1.253 1_455 S
O443 Tb444 2.271 . S
O443 C453 1.252 . S
Tb444 O443 2.271 . S
Tb444 O447 2.338 . S
Tb444 O451 2.312 . S
Tb444 O455 2.441 . S
Tb444 O456 2.506 . S
C445 O455 1.244 . S
C445 O456 1.265 . S
O446 Tb441 2.312 . S
O446 C453 1.253 . S
O447 Tb444 2.338 . S
O447 C448 1.258 . S
C448 O447 1.258 . S
C448 O449 1.251 . S
O449 C448 1.251 . S
O450 Tb441 2.271 . S
O450 C442 1.252 1_655 S
O451 C442 1.253 1_655 S
O451 Tb444 2.312 . S
O452 Tb441 2.338 . S
O452 C457 1.258 . S
C453 O443 1.252 . S
C453 O446 1.253 . S
C454 O440 1.265 1_455 S
C454 O459 1.244 . S
O455 Tb444 2.441 . S
O455 C445 1.244 . S
O456 Tb444 2.506 . S
O456 C445 1.265 . S
C457 O452 1.258 . S
C457 O458 1.251 . S
O458 C457 1.251 . S
O459 Tb441 2.441 1_455 S
O459 C454 1.244 . S
O460 Tb461 2.506 . S
O460 C474 1.265 1_455 S
Tb461 O460 2.506 . S
Tb461 O466 2.312 . S
Tb461 O470 2.271 . S
Tb461 O472 2.338 . S
Tb461 O479 2.441 1_455 S
C462 O470 1.252 1_655 S
C462 O471 1.253 1_655 S
O463 Tb464 2.271 . S
O463 C473 1.252 . S
Tb464 O463 2.271 . S
Tb464 O467 2.338 1_545 S
Tb464 O471 2.312 . S
Tb464 O475 2.441 . S
Tb464 O476 2.506 1_545 S
C465 O475 1.244 1_565 S
C465 O476 1.265 . S
O466 Tb461 2.312 . S
O466 C473 1.253 . S
O467 Tb464 2.338 1_565 S
O467 C468 1.258 . S
C468 O467 1.258 . S
C468 O469 1.251 1_565 S
O469 C468 1.251 1_545 S
O470 Tb461 2.271 . S
O470 C462 1.252 1_455 S
O471 C462 1.253 1_455 S
O471 Tb464 2.312 . S
O472 Tb461 2.338 . S
O472 C477 1.258 . S
C473 O463 1.252 . S
C473 O466 1.253 . S
C474 O460 1.265 1_655 S
C474 O479 1.244 . S
O475 Tb464 2.441 . S
O475 C465 1.244 1_545 S
O476 Tb464 2.506 1_565 S
O476 C465 1.265 . S
C477 O472 1.258 . S
C477 O478 1.251 . S
O478 C477 1.251 . S
O479 Tb461 2.441 1_655 S
O479 C474 1.244 . S
O480 Tb481 2.506 . S
O480 C494 1.265 . S
Tb481 O480 2.506 . S
Tb481 O486 2.312 . S
Tb481 O490 2.271 . S
Tb481 O492 2.338 . S
Tb481 O499 2.441 . S
C482 O490 1.252 . S
C482 O491 1.253 . S
O483 Tb484 2.271 . S
O483 C493 1.252 . S
Tb484 O483 2.271 . S
Tb484 O487 2.338 . S
Tb484 O491 2.312 . S
Tb484 O495 2.441 . S
Tb484 O496 2.506 . S
C485 O495 1.244 . S
C485 O496 1.265 . S
O486 Tb481 2.312 . S
O486 C493 1.253 . S
O487 Tb484 2.338 . S
O487 C488 1.258 . S
C488 O487 1.258 . S
C488 O489 1.251 . S
O489 C488 1.251 . S
O490 Tb481 2.271 . S
O490 C482 1.252 . S
O491 C482 1.253 . S
O491 Tb484 2.312 . S
O492 Tb481 2.338 . S
O492 C497 1.258 . S
C493 O483 1.252 . S
C493 O486 1.253 . S
C494 O480 1.265 . S
C494 O499 1.244 . S
O495 Tb484 2.441 . S
O495 C485 1.244 . S
O496 Tb484 2.506 . S
O496 C485 1.265 . S
C497 O492 1.258 . S
C497 O498 1.251 . S
O498 C497 1.251 . S
O499 Tb481 2.441 . S
O499 C494 1.244 . S
O500 Tb501 2.506 . S
O500 C514 1.265 . S
Tb501 O500 2.506 . S
Tb501 O506 2.312 . S
Tb501 O510 2.271 . S
Tb501 O512 2.338 . S
Tb501 O519 2.441 . S
C502 O510 1.252 . S
C502 O511 1.253 . S
O503 Tb504 2.271 . S
O503 C513 1.252 . S
Tb504 O503 2.271 . S
Tb504 O507 2.338 1_655 S
Tb504 O511 2.312 . S
Tb504 O515 2.441 . S
Tb504 O516 2.506 1_655 S
C505 O515 1.244 1_455 S
C505 O516 1.265 . S
O506 Tb501 2.312 . S
O506 C513 1.253 . S
O507 Tb504 2.338 1_455 S
O507 C508 1.258 . S
C508 O507 1.258 . S
C508 O509 1.251 1_455 S
O509 C508 1.251 1_655 S
O510 Tb501 2.271 . S
O510 C502 1.252 . S
O511 C502 1.253 . S
O511 Tb504 2.312 . S
O512 Tb501 2.338 . S
O512 C517 1.258 . S
C513 O503 1.252 . S
C513 O506 1.253 . S
C514 O500 1.265 . S
C514 O519 1.244 . S
O515 Tb504 2.441 . S
O515 C505 1.244 1_655 S
O516 Tb504 2.506 1_455 S
O516 C505 1.265 . S
C517 O512 1.258 . S
C517 O518 1.251 . S
O518 C517 1.251 . S
O519 Tb501 2.441 . S
O519 C514 1.244 . S
O520 Tb521 2.506 . S
O520 C534 1.265 . S
Tb521 O520 2.506 . S
Tb521 O526 2.312 . S
Tb521 O530 2.271 . S
Tb521 O532 2.338 . S
Tb521 O539 2.441 . S
C522 O530 1.252 . S
C522 O531 1.253 . S
O523 Tb524 2.271 . S
O523 C533 1.252 . S
Tb524 O523 2.271 . S
Tb524 O527 2.338 . S
Tb524 O531 2.312 . S
Tb524 O535 2.441 . S
Tb524 O536 2.506 . S
C525 O535 1.244 . S
C525 O536 1.265 . S
O526 Tb521 2.312 . S
O526 C533 1.253 . S
O527 Tb524 2.338 . S
O527 C528 1.258 . S
C528 O527 1.258 . S
C528 O529 1.251 . S
O529 C528 1.251 . S
O530 Tb521 2.271 . S
O530 C522 1.252 . S
O531 C522 1.253 . S
O531 Tb524 2.312 . S
O532 Tb521 2.338 . S
O532 C537 1.258 . S
C533 O523 1.252 . S
C533 O526 1.253 . S
C534 O520 1.265 . S
C534 O539 1.244 . S
O535 Tb524 2.441 . S
O535 C525 1.244 . S
O536 Tb524 2.506 . S
O536 C525 1.265 . S
C537 O532 1.258 . S
C537 O538 1.251 . S
O538 C537 1.251 . S
O539 Tb521 2.441 . S
O539 C534 1.244 . S
O540 Tb541 2.506 1_655 S
O540 C554 1.265 . S
Tb541 O540 2.506 1_455 S
Tb541 O546 2.312 . S
Tb541 O550 2.271 . S
Tb541 O552 2.338 1_455 S
Tb541 O559 2.441 . S
C542 O550 1.252 . S
C542 O551 1.253 . S
O543 Tb544 2.271 . S
O543 C553 1.252 . S
Tb544 O543 2.271 . S
Tb544 O547 2.338 . S
Tb544 O551 2.312 . S
Tb544 O555 2.441 . S
Tb544 O556 2.506 . S
C545 O555 1.244 . S
C545 O556 1.265 . S
O546 Tb541 2.312 . S
O546 C553 1.253 . S
O547 Tb544 2.338 . S
O547 C548 1.258 . S
C548 O547 1.258 . S
C548 O549 1.251 . S
O549 C548 1.251 . S
O550 Tb541 2.271 . S
O550 C542 1.252 . S
O551 C542 1.253 . S
O551 Tb544 2.312 . S
O552 Tb541 2.338 1_655 S
O552 C557 1.258 . S
C553 O543 1.252 . S
C553 O546 1.253 . S
C554 O540 1.265 . S
C554 O559 1.244 1_655 S
O555 Tb544 2.441 . S
O555 C545 1.244 . S
O556 Tb544 2.506 . S
O556 C545 1.265 . S
C557 O552 1.258 . S
C557 O558 1.251 1_655 S
O558 C557 1.251 1_455 S
O559 Tb541 2.441 . S
O559 C554 1.244 1_455 S
O560 Tb561 2.506 . S
O560 C574 1.265 . S
Tb561 O560 2.506 . S
Tb561 O566 2.312 . S
Tb561 O570 2.271 . S
Tb561 O572 2.338 . S
Tb561 O579 2.441 . S
C562 O570 1.252 . S
C562 O571 1.253 . S
O563 Tb564 2.271 . S
O563 C573 1.252 . S
Tb564 O563 2.271 . S
Tb564 O567 2.338 . S
Tb564 O571 2.312 . S
Tb564 O575 2.441 . S
Tb564 O576 2.506 . S
C565 O575 1.244 . S
C565 O576 1.265 . S
O566 Tb561 2.312 . S
O566 C573 1.253 . S
O567 Tb564 2.338 . S
O567 C568 1.258 . S
C568 O567 1.258 . S
C568 O569 1.251 . S
O569 C568 1.251 . S
O570 Tb561 2.271 . S
O570 C562 1.252 . S
O571 C562 1.253 . S
O571 Tb564 2.312 . S
O572 Tb561 2.338 . S
O572 C577 1.258 . S
C573 O563 1.252 . S
C573 O566 1.253 . S
C574 O560 1.265 . S
C574 O579 1.244 . S
O575 Tb564 2.441 . S
O575 C565 1.244 . S
O576 Tb564 2.506 . S
O576 C565 1.265 . S
C577 O572 1.258 . S
C577 O578 1.251 . S
O578 C577 1.251 . S
O579 Tb561 2.441 . S
O579 C574 1.244 . S
O580 Tb581 2.506 . S
O580 C594 1.265 . S
Tb581 O580 2.506 . S
Tb581 O586 2.312 . S
Tb581 O590 2.271 . S
Tb581 O592 2.338 . S
Tb581 O599 2.441 . S
C582 O590 1.252 . S
C582 O591 1.253 . S
O583 Tb584 2.271 . S
O583 C593 1.252 . S
Tb584 O583 2.271 . S
Tb584 O587 2.338 . S
Tb584 O591 2.312 . S
Tb584 O595 2.441 . S
Tb584 O596 2.506 . S
C585 O595 1.244 . S
C585 O596 1.265 . S
O586 Tb581 2.312 . S
O586 C593 1.253 . S
O587 Tb584 2.338 . S
O587 C588 1.258 . S
C588 O587 1.258 . S
C588 O589 1.251 . S
O589 C588 1.251 . S
O590 Tb581 2.271 . S
O590 C582 1.252 . S
O591 C582 1.253 . S
O591 Tb584 2.312 . S
O592 Tb581 2.338 . S
O592 C597 1.258 . S
C593 O583 1.252 . S
C593 O586 1.253 . S
C594 O580 1.265 . S
C594 O599 1.244 . S
O595 Tb584 2.441 . S
O595 C585 1.244 . S
O596 Tb584 2.506 . S
O596 C585 1.265 . S
C597 O592 1.258 . S
C597 O598 1.251 . S
O598 C597 1.251 . S
O599 Tb581 2.441 . S
O599 C594 1.244 . S
O600 Tb601 2.506 . S
O600 C614 1.265 . S
Tb601 O600 2.506 . S
Tb601 O606 2.312 . S
Tb601 O610 2.271 . S
Tb601 O612 2.338 . S
Tb601 O619 2.441 . S
C602 O610 1.252 . S
C602 O611 1.253 . S
O603 Tb604 2.271 . S
O603 C613 1.252 . S
Tb604 O603 2.271 . S
Tb604 O607 2.338 . S
Tb604 O611 2.312 . S
Tb604 O615 2.441 . S
Tb604 O616 2.506 . S
C605 O615 1.244 . S
C605 O616 1.265 . S
O606 Tb601 2.312 . S
O606 C613 1.253 . S
O607 Tb604 2.338 . S
O607 C608 1.258 . S
C608 O607 1.258 . S
C608 O609 1.251 . S
O609 C608 1.251 . S
O610 Tb601 2.271 . S
O610 C602 1.252 . S
O611 C602 1.253 . S
O611 Tb604 2.312 . S
O612 Tb601 2.338 . S
O612 C617 1.258 . S
C613 O603 1.252 . S
C613 O606 1.253 . S
C614 O600 1.265 . S
C614 O619 1.244 . S
O615 Tb604 2.441 . S
O615 C605 1.244 . S
O616 Tb604 2.506 . S
O616 C605 1.265 . S
C617 O612 1.258 . S
C617 O618 1.251 . S
O618 C617 1.251 . S
O619 Tb601 2.441 . S
O619 C614 1.244 . S
O620 Tb621 2.506 . S
O620 C634 1.265 . S
Tb621 O620 2.506 . S
Tb621 O626 2.312 . S
Tb621 O630 2.271 . S
Tb621 O632 2.338 . S
Tb621 O639 2.441 . S
C622 O630 1.252 . S
C622 O631 1.253 . S
O623 Tb624 2.271 . S
O623 C633 1.252 . S
Tb624 O623 2.271 . S
Tb624 O627 2.338 . S
Tb624 O631 2.312 . S
Tb624 O635 2.441 . S
Tb624 O636 2.506 . S
C625 O635 1.244 . S
C625 O636 1.265 . S
O626 Tb621 2.312 . S
O626 C633 1.253 . S
O627 Tb624 2.338 . S
O627 C628 1.258 . S
C628 O627 1.258 . S
C628 O629 1.251 . S
O629 C628 1.251 . S
O630 Tb621 2.271 . S
O630 C622 1.252 . S
O631 C622 1.253 . S
O631 Tb624 2.312 . S
O632 Tb621 2.338 . S
O632 C637 1.258 . S
C633 O623 1.252 . S
C633 O626 1.253 . S
C634 O620 1.265 . S
C634 O639 1.244 . S
O635 Tb624 2.441 . S
O635 C625 1.244 . S
O636 Tb624 2.506 . S
O636 C625 1.265 . S
C637 O632 1.258 . S
C637 O638 1.251 . S
O638 C637 1.251 . S
O639 Tb621 2.441 . S
O639 C634 1.244 . S
O640 Tb641 2.506 . S
O640 C654 1.265 . S
Tb641 O640 2.506 . S
Tb641 O646 2.312 . S
Tb641 O650 2.271 . S
Tb641 O652 2.338 . S
Tb641 O659 2.441 . S
C642 O650 1.252 . S
C642 O651 1.253 . S
O643 Tb644 2.271 . S
O643 C653 1.252 . S
Tb644 O643 2.271 . S
Tb644 O647 2.338 . S
Tb644 O651 2.312 . S
Tb644 O655 2.441 . S
Tb644 O656 2.506 . S
C645 O655 1.244 . S
C645 O656 1.265 . S
O646 Tb641 2.312 . S
O646 C653 1.253 . S
O647 Tb644 2.338 . S
O647 C648 1.258 . S
C648 O647 1.258 . S
C648 O649 1.251 . S
O649 C648 1.251 . S
O650 Tb641 2.271 . S
O650 C642 1.252 . S
O651 C642 1.253 . S
O651 Tb644 2.312 . S
O652 Tb641 2.338 . S
O652 C657 1.258 . S
C653 O643 1.252 . S
C653 O646 1.253 . S
C654 O640 1.265 . S
C654 O659 1.244 . S
O655 Tb644 2.441 . S
O655 C645 1.244 . S
O656 Tb644 2.506 . S
O656 C645 1.265 . S
C657 O652 1.258 . S
C657 O658 1.251 . S
O658 C657 1.251 . S
O659 Tb641 2.441 . S
O659 C654 1.244 . S
O660 Tb661 2.506 . S
O660 C674 1.265 1_565 S
Tb661 O660 2.506 . S
Tb661 O666 2.312 . S
Tb661 O670 2.271 . S
Tb661 O672 2.338 . S
Tb661 O679 2.441 1_565 S
C662 O670 1.252 1_545 S
C662 O671 1.253 1_545 S
O663 Tb664 2.271 . S
O663 C673 1.252 . S
Tb664 O663 2.271 . S
Tb664 O667 2.338 . S
Tb664 O671 2.312 . S
Tb664 O675 2.441 . S
Tb664 O676 2.506 . S
C665 O675 1.244 . S
C665 O676 1.265 . S
O666 Tb661 2.312 . S
O666 C673 1.253 . S
O667 Tb664 2.338 . S
O667 C668 1.258 . S
C668 O667 1.258 . S
C668 O669 1.251 . S
O669 C668 1.251 . S
O670 Tb661 2.271 . S
O670 C662 1.252 1_565 S
O671 C662 1.253 1_565 S
O671 Tb664 2.312 . S
O672 Tb661 2.338 . S
O672 C677 1.258 . S
C673 O663 1.252 . S
C673 O666 1.253 . S
C674 O660 1.265 1_545 S
C674 O679 1.244 . S
O675 Tb664 2.441 . S
O675 C665 1.244 . S
O676 Tb664 2.506 . S
O676 C665 1.265 . S
C677 O672 1.258 . S
C677 O678 1.251 . S
O678 C677 1.251 . S
O679 Tb661 2.441 1_545 S
O679 C674 1.244 . S
O680 Tb681 2.506 . S
O680 C694 1.265 . S
Tb681 O680 2.506 . S
Tb681 O686 2.312 . S
Tb681 O690 2.271 . S
Tb681 O692 2.338 . S
Tb681 O699 2.441 . S
C682 O690 1.252 . S
C682 O691 1.253 . S
O683 Tb684 2.271 . S
O683 C693 1.252 . S
Tb684 O683 2.271 . S
Tb684 O687 2.338 . S
Tb684 O691 2.312 . S
Tb684 O695 2.441 . S
Tb684 O696 2.506 . S
C685 O695 1.244 . S
C685 O696 1.265 . S
O686 Tb681 2.312 . S
O686 C693 1.253 . S
O687 Tb684 2.338 . S
O687 C688 1.258 . S
C688 O687 1.258 . S
C688 O689 1.251 . S
O689 C688 1.251 . S
O690 Tb681 2.271 . S
O690 C682 1.252 . S
O691 C682 1.253 . S
O691 Tb684 2.312 . S
O692 Tb681 2.338 . S
O692 C697 1.258 . S
C693 O683 1.252 . S
C693 O686 1.253 . S
C694 O680 1.265 . S
C694 O699 1.244 . S
O695 Tb684 2.441 . S
O695 C685 1.244 . S
O696 Tb684 2.506 . S
O696 C685 1.265 . S
C697 O692 1.258 . S
C697 O698 1.251 . S
O698 C697 1.251 . S
O699 Tb681 2.441 . S
O699 C694 1.244 . S
O700 Tb701 2.506 . S
O700 C714 1.265 . S
Tb701 O700 2.506 . S
Tb701 O706 2.312 . S
Tb701 O710 2.271 . S
Tb701 O712 2.338 . S
Tb701 O719 2.441 . S
C702 O710 1.252 . S
C702 O711 1.253 . S
O703 Tb704 2.271 . S
O703 C713 1.252 . S
Tb704 O703 2.271 . S
Tb704 O707 2.338 . S
Tb704 O711 2.312 . S
Tb704 O715 2.441 . S
Tb704 O716 2.506 . S
C705 O715 1.244 . S
C705 O716 1.265 . S
O706 Tb701 2.312 . S
O706 C713 1.253 . S
O707 Tb704 2.338 . S
O707 C708 1.258 . S
C708 O707 1.258 . S
C708 O709 1.251 . S
O709 C708 1.251 . S
O710 Tb701 2.271 . S
O710 C702 1.252 . S
O711 C702 1.253 . S
O711 Tb704 2.312 . S
O712 Tb701 2.338 . S
O712 C717 1.258 . S
C713 O703 1.252 . S
C713 O706 1.253 . S
C714 O700 1.265 . S
C714 O719 1.244 . S
O715 Tb704 2.441 . S
O715 C705 1.244 . S
O716 Tb704 2.506 . S
O716 C705 1.265 . S
C717 O712 1.258 . S
C717 O718 1.251 . S
O718 C717 1.251 . S
O719 Tb701 2.441 . S
O719 C714 1.244 . S
O720 Tb721 2.506 . S
O720 C734 1.265 . S
Tb721 O720 2.506 . S
Tb721 O726 2.312 . S
Tb721 O730 2.271 . S
Tb721 O732 2.338 . S
Tb721 O739 2.441 . S
C722 O730 1.252 . S
C722 O731 1.253 . S
O723 Tb724 2.271 . S
O723 C733 1.252 . S
Tb724 O723 2.271 . S
Tb724 O727 2.338 . S
Tb724 O731 2.312 . S
Tb724 O735 2.441 . S
Tb724 O736 2.506 . S
C725 O735 1.244 . S
C725 O736 1.265 . S
O726 Tb721 2.312 . S
O726 C733 1.253 . S
O727 Tb724 2.338 . S
O727 C728 1.258 . S
C728 O727 1.258 . S
C728 O729 1.251 . S
O729 C728 1.251 . S
O730 Tb721 2.271 . S
O730 C722 1.252 . S
O731 C722 1.253 . S
O731 Tb724 2.312 . S
O732 Tb721 2.338 . S
O732 C737 1.258 . S
C733 O723 1.252 . S
C733 O726 1.253 . S
C734 O720 1.265 . S
C734 O739 1.244 . S
O735 Tb724 2.441 . S
O735 C725 1.244 . S
O736 Tb724 2.506 . S
O736 C725 1.265 . S
C737 O732 1.258 . S
C737 O738 1.251 . S
O738 C737 1.251 . S
O739 Tb721 2.441 . S
O739 C734 1.244 . S
O740 Tb741 2.506 . S
O740 C754 1.265 1_565 S
Tb741 O740 2.506 . S
Tb741 O746 2.312 . S
Tb741 O750 2.271 . S
Tb741 O752 2.338 . S
Tb741 O759 2.441 1_565 S
C742 O750 1.252 1_545 S
C742 O751 1.253 1_545 S
O743 Tb744 2.271 . S
O743 C753 1.252 . S
Tb744 O743 2.271 . S
Tb744 O747 2.338 . S
Tb744 O751 2.312 . S
Tb744 O755 2.441 . S
Tb744 O756 2.506 . S
C745 O755 1.244 . S
C745 O756 1.265 . S
O746 Tb741 2.312 . S
O746 C753 1.253 . S
O747 Tb744 2.338 . S
O747 C748 1.258 . S
C748 O747 1.258 . S
C748 O749 1.251 . S
O749 C748 1.251 . S
O750 Tb741 2.271 . S
O750 C742 1.252 1_565 S
O751 C742 1.253 1_565 S
O751 Tb744 2.312 . S
O752 Tb741 2.338 . S
O752 C757 1.258 . S
C753 O743 1.252 . S
C753 O746 1.253 . S
C754 O740 1.265 1_545 S
C754 O759 1.244 . S
O755 Tb744 2.441 . S
O755 C745 1.244 . S
O756 Tb744 2.506 . S
O756 C745 1.265 . S
C757 O752 1.258 . S
C757 O758 1.251 . S
O758 C757 1.251 . S
O759 Tb741 2.441 1_545 S
O759 C754 1.244 . S
O760 Tb761 2.506 . S
O760 C774 1.265 . S
Tb761 O760 2.506 . S
Tb761 O766 2.312 . S
Tb761 O770 2.271 . S
Tb761 O772 2.338 . S
Tb761 O779 2.441 . S
C762 O770 1.252 . S
C762 O771 1.253 . S
O763 Tb764 2.271 . S
O763 C773 1.252 . S
Tb764 O763 2.271 . S
Tb764 O767 2.338 . S
Tb764 O771 2.312 . S
Tb764 O775 2.441 . S
Tb764 O776 2.506 . S
C765 O775 1.244 . S
C765 O776 1.265 . S
O766 Tb761 2.312 . S
O766 C773 1.253 . S
O767 Tb764 2.338 . S
O767 C768 1.258 . S
C768 O767 1.258 . S
C768 O769 1.251 . S
O769 C768 1.251 . S
O770 Tb761 2.271 . S
O770 C762 1.252 . S
O771 C762 1.253 . S
O771 Tb764 2.312 . S
O772 Tb761 2.338 . S
O772 C777 1.258 . S
C773 O763 1.252 . S
C773 O766 1.253 . S
C774 O760 1.265 . S
C774 O779 1.244 . S
O775 Tb764 2.441 . S
O775 C765 1.244 . S
O776 Tb764 2.506 . S
O776 C765 1.265 . S
C777 O772 1.258 . S
C777 O778 1.251 . S
O778 C777 1.251 . S
O779 Tb761 2.441 . S
O779 C774 1.244 . S
O780 Tb781 2.506 . S
O780 C794 1.265 . S
Tb781 O780 2.506 . S
Tb781 O786 2.312 . S
Tb781 O790 2.271 . S
Tb781 O792 2.338 . S
Tb781 O799 2.441 . S
C782 O790 1.252 . S
C782 O791 1.253 . S
O783 Tb784 2.271 . S
O783 C793 1.252 . S
Tb784 O783 2.271 . S
Tb784 O787 2.338 . S
Tb784 O791 2.312 . S
Tb784 O795 2.441 . S
Tb784 O796 2.506 . S
C785 O795 1.244 . S
C785 O796 1.265 . S
O786 Tb781 2.312 . S
O786 C793 1.253 . S
O787 Tb784 2.338 . S
O787 C788 1.258 . S
C788 O787 1.258 . S
C788 O789 1.251 . S
O789 C788 1.251 . S
O790 Tb781 2.271 . S
O790 C782 1.252 . S
O791 C782 1.253 . S
O791 Tb784 2.312 . S
O792 Tb781 2.338 . S
O792 C797 1.258 . S
C793 O783 1.252 . S
C793 O786 1.253 . S
C794 O780 1.265 . S
C794 O799 1.244 . S
O795 Tb784 2.441 . S
O795 C785 1.244 . S
O796 Tb784 2.506 . S
O796 C785 1.265 . S
C797 O792 1.258 . S
C797 O798 1.251 . S
O798 C797 1.251 . S
O799 Tb781 2.441 . S
O799 C794 1.244 . S
O800 Tb801 2.506 . S
O800 C814 1.265 . S
Tb801 O800 2.506 . S
Tb801 O806 2.312 . S
Tb801 O810 2.271 . S
Tb801 O812 2.338 . S
Tb801 O819 2.441 . S
C802 O810 1.252 . S
C802 O811 1.253 . S
O803 Tb804 2.271 . S
O803 C813 1.252 . S
Tb804 O803 2.271 . S
Tb804 O807 2.338 . S
Tb804 O811 2.312 . S
Tb804 O815 2.441 . S
Tb804 O816 2.506 . S
C805 O815 1.244 . S
C805 O816 1.265 . S
O806 Tb801 2.312 . S
O806 C813 1.253 . S
O807 Tb804 2.338 . S
O807 C808 1.258 . S
C808 O807 1.258 . S
C808 O809 1.251 . S
O809 C808 1.251 . S
O810 Tb801 2.271 . S
O810 C802 1.252 . S
O811 C802 1.253 . S
O811 Tb804 2.312 . S
O812 Tb801 2.338 . S
O812 C817 1.258 . S
C813 O803 1.252 . S
C813 O806 1.253 . S
C814 O800 1.265 . S
C814 O819 1.244 . S
O815 Tb804 2.441 . S
O815 C805 1.244 . S
O816 Tb804 2.506 . S
O816 C805 1.265 . S
C817 O812 1.258 . S
C817 O818 1.251 . S
O818 C817 1.251 . S
O819 Tb801 2.441 . S
O819 C814 1.244 . S
O820 Tb821 2.506 . S
O820 C834 1.265 . S
Tb821 O820 2.506 . S
Tb821 O826 2.312 . S
Tb821 O830 2.271 . S
Tb821 O832 2.338 . S
Tb821 O839 2.441 . S
C822 O830 1.252 . S
C822 O831 1.253 . S
O823 Tb824 2.271 . S
O823 C833 1.252 . S
Tb824 O823 2.271 . S
Tb824 O827 2.338 . S
Tb824 O831 2.312 . S
Tb824 O835 2.441 . S
Tb824 O836 2.506 . S
C825 O835 1.244 . S
C825 O836 1.265 . S
O826 Tb821 2.312 . S
O826 C833 1.253 . S
O827 Tb824 2.338 . S
O827 C828 1.258 . S
C828 O827 1.258 . S
C828 O829 1.251 . S
O829 C828 1.251 . S
O830 Tb821 2.271 . S
O830 C822 1.252 . S
O831 C822 1.253 . S
O831 Tb824 2.312 . S
O832 Tb821 2.338 . S
O832 C837 1.258 . S
C833 O823 1.252 . S
C833 O826 1.253 . S
C834 O820 1.265 . S
C834 O839 1.244 . S
O835 Tb824 2.441 . S
O835 C825 1.244 . S
O836 Tb824 2.506 . S
O836 C825 1.265 . S
C837 O832 1.258 . S
C837 O838 1.251 . S
O838 C837 1.251 . S
O839 Tb821 2.441 . S
O839 C834 1.244 . S
O840 Tb841 2.506 . S
O840 C854 1.265 . S
Tb841 O840 2.506 . S
Tb841 O846 2.312 . S
Tb841 O850 2.271 . S
Tb841 O852 2.338 . S
Tb841 O859 2.441 . S
C842 O850 1.252 . S
C842 O851 1.253 . S
O843 Tb844 2.271 . S
O843 C853 1.252 . S
Tb844 O843 2.271 . S
Tb844 O847 2.338 1_545 S
Tb844 O851 2.312 . S
Tb844 O855 2.441 . S
Tb844 O856 2.506 1_545 S
C845 O855 1.244 1_565 S
C845 O856 1.265 . S
O846 Tb841 2.312 . S
O846 C853 1.253 . S
O847 Tb844 2.338 1_565 S
O847 C848 1.258 . S
C848 O847 1.258 . S
C848 O849 1.251 1_565 S
O849 C848 1.251 1_545 S
O850 Tb841 2.271 . S
O850 C842 1.252 . S
O851 C842 1.253 . S
O851 Tb844 2.312 . S
O852 Tb841 2.338 . S
O852 C857 1.258 . S
C853 O843 1.252 . S
C853 O846 1.253 . S
C854 O840 1.265 . S
C854 O859 1.244 . S
O855 Tb844 2.441 . S
O855 C845 1.244 1_545 S
O856 Tb844 2.506 1_565 S
O856 C845 1.265 . S
C857 O852 1.258 . S
C857 O858 1.251 . S
O858 C857 1.251 . S
O859 Tb841 2.441 . S
O859 C854 1.244 . S
O860 Tb861 2.506 . S
O860 C874 1.265 . S
Tb861 O860 2.506 . S
Tb861 O866 2.312 . S
Tb861 O870 2.271 . S
Tb861 O872 2.338 . S
Tb861 O879 2.441 . S
C862 O870 1.252 . S
C862 O871 1.253 . S
O863 Tb864 2.271 . S
O863 C873 1.252 . S
Tb864 O863 2.271 . S
Tb864 O867 2.338 . S
Tb864 O871 2.312 . S
Tb864 O875 2.441 . S
Tb864 O876 2.506 . S
C865 O875 1.244 . S
C865 O876 1.265 . S
O866 Tb861 2.312 . S
O866 C873 1.253 . S
O867 Tb864 2.338 . S
O867 C868 1.258 . S
C868 O867 1.258 . S
C868 O869 1.251 . S
O869 C868 1.251 . S
O870 Tb861 2.271 . S
O870 C862 1.252 . S
O871 C862 1.253 . S
O871 Tb864 2.312 . S
O872 Tb861 2.338 . S
O872 C877 1.258 . S
C873 O863 1.252 . S
C873 O866 1.253 . S
C874 O860 1.265 . S
C874 O879 1.244 . S
O875 Tb864 2.441 . S
O875 C865 1.244 . S
O876 Tb864 2.506 . S
O876 C865 1.265 . S
C877 O872 1.258 . S
C877 O878 1.251 . S
O878 C877 1.251 . S
O879 Tb861 2.441 . S
O879 C874 1.244 . S
O880 Tb881 2.506 . S
O880 C894 1.265 1_455 S
Tb881 O880 2.506 . S
Tb881 O886 2.312 . S
Tb881 O890 2.271 . S
Tb881 O892 2.338 . S
Tb881 O899 2.441 1_455 S
C882 O890 1.252 1_655 S
C882 O891 1.253 1_655 S
O883 Tb884 2.271 . S
O883 C893 1.252 . S
Tb884 O883 2.271 . S
Tb884 O887 2.338 1_565 S
Tb884 O891 2.312 . S
Tb884 O895 2.441 . S
Tb884 O896 2.506 1_565 S
C885 O895 1.244 1_545 S
C885 O896 1.265 . S
O886 Tb881 2.312 . S
O886 C893 1.253 . S
O887 Tb884 2.338 1_545 S
O887 C888 1.258 . S
C888 O887 1.258 . S
C888 O889 1.251 1_545 S
O889 C888 1.251 1_565 S
O890 Tb881 2.271 . S
O890 C882 1.252 1_455 S
O891 C882 1.253 1_455 S
O891 Tb884 2.312 . S
O892 Tb881 2.338 . S
O892 C897 1.258 . S
C893 O883 1.252 . S
C893 O886 1.253 . S
C894 O880 1.265 1_655 S
C894 O899 1.244 . S
O895 Tb884 2.441 . S
O895 C885 1.244 1_565 S
O896 Tb884 2.506 1_545 S
O896 C885 1.265 . S
C897 O892 1.258 . S
C897 O898 1.251 . S
O898 C897 1.251 . S
O899 Tb881 2.441 1_655 S
O899 C894 1.244 . S
O900 Tb901 2.506 . S
O900 C914 1.265 . S
Tb901 O900 2.506 . S
Tb901 O906 2.312 . S
Tb901 O910 2.271 . S
Tb901 O912 2.338 . S
Tb901 O919 2.441 . S
C902 O910 1.252 . S
C902 O911 1.253 . S
O903 Tb904 2.271 . S
O903 C913 1.252 . S
Tb904 O903 2.271 . S
Tb904 O907 2.338 . S
Tb904 O911 2.312 . S
Tb904 O915 2.441 . S
Tb904 O916 2.506 . S
C905 O915 1.244 . S
C905 O916 1.265 . S
O906 Tb901 2.312 . S
O906 C913 1.253 . S
O907 Tb904 2.338 . S
O907 C908 1.258 . S
C908 O907 1.258 . S
C908 O909 1.251 . S
O909 C908 1.251 . S
O910 Tb901 2.271 . S
O910 C902 1.252 . S
O911 C902 1.253 . S
O911 Tb904 2.312 . S
O912 Tb901 2.338 . S
O912 C917 1.258 . S
C913 O903 1.252 . S
C913 O906 1.253 . S
C914 O900 1.265 . S
C914 O919 1.244 . S
O915 Tb904 2.441 . S
O915 C905 1.244 . S
O916 Tb904 2.506 . S
O916 C905 1.265 . S
C917 O912 1.258 . S
C917 O918 1.251 . S
O918 C917 1.251 . S
O919 Tb901 2.441 . S
O919 C914 1.244 . S
O920 Tb921 2.506 . S
O920 C934 1.265 . S
Tb921 O920 2.506 . S
Tb921 O926 2.312 . S
Tb921 O930 2.271 . S
Tb921 O932 2.338 . S
Tb921 O939 2.441 . S
C922 O930 1.252 . S
C922 O931 1.253 . S
O923 Tb924 2.271 . S
O923 C933 1.252 . S
Tb924 O923 2.271 . S
Tb924 O927 2.338 1_565 S
Tb924 O931 2.312 . S
Tb924 O935 2.441 . S
Tb924 O936 2.506 1_565 S
C925 O935 1.244 1_545 S
C925 O936 1.265 . S
O926 Tb921 2.312 . S
O926 C933 1.253 . S
O927 Tb924 2.338 1_545 S
O927 C928 1.258 . S
C928 O927 1.258 . S
C928 O929 1.251 1_545 S
O929 C928 1.251 1_565 S
O930 Tb921 2.271 . S
O930 C922 1.252 . S
O931 C922 1.253 . S
O931 Tb924 2.312 . S
O932 Tb921 2.338 . S
O932 C937 1.258 . S
C933 O923 1.252 . S
C933 O926 1.253 . S
C934 O920 1.265 . S
C934 O939 1.244 . S
O935 Tb924 2.441 . S
O935 C925 1.244 1_565 S
O936 Tb924 2.506 1_545 S
O936 C925 1.265 . S
C937 O932 1.258 . S
C937 O938 1.251 . S
O938 C937 1.251 . S
O939 Tb921 2.441 . S
O939 C934 1.244 . S
O940 Tb941 2.506 . S
O940 C954 1.265 . S
Tb941 O940 2.506 . S
Tb941 O946 2.312 . S
Tb941 O950 2.271 . S
Tb941 O952 2.338 . S
Tb941 O959 2.441 . S
C942 O950 1.252 . S
C942 O951 1.253 . S
O943 Tb944 2.271 . S
O943 C953 1.252 . S
Tb944 O943 2.271 . S
Tb944 O947 2.338 . S
Tb944 O951 2.312 . S
Tb944 O955 2.441 . S
Tb944 O956 2.506 . S
C945 O955 1.244 . S
C945 O956 1.265 . S
O946 Tb941 2.312 . S
O946 C953 1.253 . S
O947 Tb944 2.338 . S
O947 C948 1.258 . S
C948 O947 1.258 . S
C948 O949 1.251 . S
O949 C948 1.251 . S
O950 Tb941 2.271 . S
O950 C942 1.252 . S
O951 C942 1.253 . S
O951 Tb944 2.312 . S
O952 Tb941 2.338 . S
O952 C957 1.258 . S
C953 O943 1.252 . S
C953 O946 1.253 . S
C954 O940 1.265 . S
C954 O959 1.244 . S
O955 Tb944 2.441 . S
O955 C945 1.244 . S
O956 Tb944 2.506 . S
O956 C945 1.265 . S
C957 O952 1.258 . S
C957 O958 1.251 . S
O958 C957 1.251 . S
O959 Tb941 2.441 . S
O959 C954 1.244 . S
C5 C45 2.169 1_455 S
C25 C74 2.169 . S
C125 C85 2.169 1_655 S
C145 C114 2.169 1_455 S
C245 C165 2.169 1_565 S
C185 C265 2.169 1_556 S
C205 C285 2.169 . S
C234 C314 2.169 1_556 S
C325 C865 2.169 1_554 S
C345 C425 2.169 . S
C365 C445 2.169 . S
C385 C805 2.169 . S
C945 C405 2.169 . S
C885 C465 2.169 1_545 S
C525 C485 2.169 . S
C505 C554 2.169 1_455 S
C565 C605 2.169 . S
C594 C625 2.169 . S
C645 C725 2.169 . S
C665 C745 2.169 . S
C685 C765 2.169 1_565 S
C714 C794 2.169 . S
C905 C825 2.169 1_554 S
C845 C925 2.169 1_565 S
C94 C14 2.900 1_565 S
C105 C34 2.900 1_556 S
C54 C134 2.900 . S
C65 C154 2.900 1_554 S
C174 C774 2.900 1_554 S
C194 C785 2.900 . S
C214 C734 2.900 1_554 S
C225 C754 2.900 1_565 S
C694 C254 2.900 . S
C705 C274 2.899 . S
C294 C654 2.900 . S
C305 C674 2.900 1_565 S
C914 C334 2.900 1_655 S
C394 C354 2.900 1_655 S
C374 C894 2.900 1_455 S
C414 C854 2.900 . S
C434 C814 2.900 . S
C454 C474 2.900 1_455 S
C494 C574 2.900 . S
C514 C585 2.899 . S
C534 C614 2.900 1_565 S
C545 C634 2.900 . S
C874 C834 2.900 . S
C954 C934 2.899 . S
C2 C337 3.379 . S
C22 C957 3.379 . S
C42 C917 3.379 . S
C73 C937 3.379 . S
C82 C357 3.379 . S
C377 C113 3.379 1_655 S
C122 C397 3.379 . S
C897 C142 3.379 1_455 S
C162 C17 3.379 . S
C37 C182 3.379 1_556 S
C202 C57 3.379 . S
C233 C68 3.379 1_554 S
C97 C242 3.379 . S
C262 C108 3.379 1_556 S
C282 C137 3.379 . S
C313 C157 3.379 1_556 S
C177 C322 3.379 . S
C342 C257 3.379 . S
C277 C362 3.379 . S
C297 C382 3.379 . S
C402 C788 3.379 . S
C422 C697 3.379 . S
C442 C708 3.379 . S
C462 C677 3.379 1_545 S
C817 C482 3.379 . S
C502 C477 3.379 1_655 S
C522 C437 3.379 . S
C553 C457 3.379 1_455 S
C837 C562 3.379 . S
C593 C857 3.379 . S
C877 C602 3.379 . S
C417 C622 3.379 . S
C497 C642 3.379 . S
C517 C662 3.379 . S
C537 C682 3.379 . S
C548 C713 3.379 . S
C577 C722 3.379 . S
C742 C588 3.379 . S
C617 C762 3.379 . S
C793 C637 3.379 . S
C802 C657 3.379 . S
C822 C737 3.379 . S
C757 C842 3.379 1_565 S
C862 C777 3.379 . S
C308 C882 3.379 1_545 S
C902 C217 3.379 . S
C922 C228 3.379 1_565 S
C197 C942 3.379 . S
C8 C542 2.594 . S
C28 C493 2.595 . S
C513 C48 2.594 . S
C77 C533 2.594 . S
C102 C88 2.594 . S
C133 C117 2.595 . S
C153 C128 2.594 . S
C148 C93 2.594 . S
C853 C168 2.594 . S
C188 C873 2.595 . S
C208 C413 2.594 . S
C833 C237 2.595 . S
C248 C933 2.594 . S
C268 C333 2.594 . S
C288 C953 2.594 . S
C913 C317 2.594 . S
C328 C193 2.594 . S
C348 C782 2.594 . S
C733 C368 2.594 . S
C388 C753 2.594 . S
C408 C293 2.595 . S
C702 C428 2.594 . S
C448 C653 2.595 . S
C693 C468 2.595 . S
C62 C488 2.594 . S
C13 C508 2.594 . S
C33 C528 2.594 . S
C53 C557 2.595 . S
C582 C568 2.594 . S
C613 C597 2.594 . S
C633 C608 2.594 . S
C573 C628 2.595 . S
C373 C648 2.594 . S
C393 C668 2.594 . S
C688 C893 2.594 . S
C353 C717 2.594 . S
C728 C453 2.594 . S
C813 C748 2.595 . S
C768 C473 2.594 . S
C797 C433 2.595 . S
C673 C808 2.594 . S
C302 C828 2.594 . S
C253 C848 2.595 . S
C273 C868 2.594 . S
C773 C888 2.594 . S
C222 C908 2.594 . S
C928 C173 2.594 . S
C948 C213 2.594 . S
