# Generated by pormake.
# Topology bcg, (8)-cn, num edge types: 1
# Building blocks:
#     Node 0, Type 0, BuildingBlock: TAGTUT_clean_sbu_3, # of connection points: 8
#     Node 1, Type 0, BuildingBlock: TAGTUT_clean_sbu_3, # of connection points: 8
#     Node 2, Type 0, BuildingBlock: TAGTUT_clean_sbu_3, # of connection points: 8
#     Node 3, Type 0, BuildingBlock: TAGTUT_clean_sbu_3, # of connection points: 8
#     Edge 4, Type (0, 0), BuildingBlock: XIVTED_clean_linker_0, # of connection points: 2
#     Edge 5, Type (0, 0), BuildingBlock: XIVTED_clean_linker_0, # of connection points: 2
#     Edge 6, Type (0, 0), BuildingBlock: XIVTED_clean_linker_0, # of connection points: 2
#     Edge 7, Type (0, 0), BuildingBlock: XIVTED_clean_linker_0, # of connection points: 2
#     Edge 8, Type (0, 0), BuildingBlock: XIVTED_clean_linker_0, # of connection points: 2
#     Edge 9, Type (0, 0), BuildingBlock: XIVTED_clean_linker_0, # of connection points: 2
#     Edge 10, Type (0, 0), BuildingBlock: XIVTED_clean_linker_0, # of connection points: 2
#     Edge 11, Type (0, 0), BuildingBlock: XIVTED_clean_linker_0, # of connection points: 2
#     Edge 12, Type (0, 0), BuildingBlock: XIVTED_clean_linker_0, # of connection points: 2
#     Edge 13, Type (0, 0), BuildingBlock: XIVTED_clean_linker_0, # of connection points: 2
#     Edge 14, Type (0, 0), BuildingBlock: XIVTED_clean_linker_0, # of connection points: 2
#     Edge 15, Type (0, 0), BuildingBlock: XIVTED_clean_linker_0, # of connection points: 2
#     Edge 16, Type (0, 0), BuildingBlock: XIVTED_clean_linker_0, # of connection points: 2
#     Edge 17, Type (0, 0), BuildingBlock: XIVTED_clean_linker_0, # of connection points: 2
#     Edge 18, Type (0, 0), BuildingBlock: XIVTED_clean_linker_0, # of connection points: 2
#     Edge 19, Type (0, 0), BuildingBlock: XIVTED_clean_linker_0, # of connection points: 2
# Relax obj value: 0.117
# Max RMSD: 0.248
# Mean RMSD: 0.248
data_MOF--net-bcg--node1-TAGTUT_clean_sbu_3--edge1-XIVTED_clean_linker_0
_symmetry_space_group_name_H-M    P1
_symmetry_Int_Tables_number       1
_symmetry_cell_setting            triclinic
loop_
_symmetry_equiv_pos_as_xyz
'x, y, z'
_cell_length_a     15.050683
_cell_length_b     27.780975
_cell_length_c     33.191519
_cell_angle_alpha  90.973995
_cell_angle_beta   90.053772
_cell_angle_gamma 89.991245
loop_
_atom_site_label
_atom_site_type_symbol
_atom_site_fract_x
_atom_site_fract_y
_atom_site_fract_z
_atom_type_partial_charge
C0 C 0.42534 0.20672 0.01693 0.0
C1 C 0.27095 0.26545 0.15408 0.0
C2 C 0.03694 0.24273 0.0889 0.0
Mg3 Mg 0.34467 0.20213 0.92671 0.0
Mg4 Mg 0.20438 0.28603 0.89506 0.0
O5 O 0.23056 0.23897 0.933 0.0
Mg6 Mg 0.2397 0.25543 0.99209 0.0
O7 O 0.25499 0.26618 0.05157 0.0
Mg8 Mg 0.24239 0.19816 0.06957 0.0
Mg9 Mg 0.1893 0.31341 0.0785 0.0
C10 C 0.0475 0.29846 0.95933 0.0
O11 O 0.2848 0.33431 0.98565 0.0
O12 O 0.29833 0.18044 0.86218 0.0
O13 O 0.23346 0.37275 0.04149 0.0
O14 O 0.41526 0.26835 0.90153 0.0
O15 O 0.20324 0.23849 0.84296 0.0
O16 O 0.32279 0.32948 0.88951 0.0
O17 O 0.20007 0.17882 0.004 0.0
O18 O 0.26676 0.13931 0.95353 0.0
C19 C 0.21514 0.13977 0.98421 0.0
C20 C 0.24553 0.19908 0.83638 0.0
O21 O 0.09564 0.28127 0.98771 0.0
O22 O 0.27694 0.22537 0.13427 0.0
O23 O 0.07752 0.30612 0.92364 0.0
O24 O 0.09516 0.20914 0.08702 0.0
O25 O 0.24277 0.30422 0.13804 0.0
O26 O 0.05687 0.28639 0.08154 0.0
O27 O 0.3774 0.22786 0.99105 0.0
O28 O 0.39238 0.19317 0.05059 0.0
C29 C 0.40115 0.3117 0.89079 0.0
C30 C 0.27524 0.37258 0.00768 0.0
C31 C 0.93405 0.70213 0.01615 0.0
C32 C 0.78037 0.76202 0.15309 0.0
C33 C 0.54606 0.73862 0.08833 0.0
Mg34 Mg 0.85307 0.69774 0.92595 0.0
Mg35 Mg 0.71288 0.78181 0.89474 0.0
O36 O 0.73885 0.73444 0.93237 0.0
Mg37 Mg 0.74853 0.75105 0.99138 0.0
O38 O 0.76425 0.76195 0.05077 0.0
Mg39 Mg 0.75144 0.69401 0.069 0.0
Mg40 Mg 0.69818 0.80923 0.07735 0.0
C41 C 0.55618 0.79408 0.9589 0.0
O42 O 0.79365 0.82999 0.98466 0.0
O43 O 0.80656 0.67633 0.86131 0.0
O44 O 0.74163 0.86855 0.04028 0.0
O45 O 0.92374 0.7641 0.90094 0.0
O46 O 0.71203 0.73478 0.84236 0.0
O47 O 0.83099 0.82538 0.88992 0.0
O48 O 0.7088 0.67451 0.00345 0.0
O49 O 0.77489 0.63496 0.9528 0.0
C50 C 0.72341 0.63547 0.98355 0.0
C51 C 0.754 0.69533 0.83558 0.0
O52 O 0.60444 0.7769 0.98724 0.0
O53 O 0.7864 0.7217 0.13361 0.0
O54 O 0.58611 0.80181 0.92322 0.0
O55 O 0.60427 0.70502 0.08662 0.0
O56 O 0.75187 0.80055 0.13679 0.0
O57 O 0.56593 0.78217 0.08061 0.0
O58 O 0.88614 0.72332 0.99028 0.0
O59 O 0.90118 0.68875 0.04987 0.0
C60 C 0.90939 0.80764 0.89076 0.0
C61 C 0.78359 0.86834 0.00654 0.0
C62 C 0.43392 0.78468 0.4867 0.0
C63 C 0.27966 0.72645 0.34913 0.0
C64 C 0.04593 0.74794 0.41428 0.0
Mg65 Mg 0.35376 0.78776 0.57668 0.0
Mg66 Mg 0.21231 0.70412 0.60775 0.0
O67 O 0.23938 0.75123 0.57008 0.0
Mg68 Mg 0.2489 0.73515 0.51096 0.0
O69 O 0.26464 0.72488 0.4515 0.0
Mg70 Mg 0.25106 0.79303 0.43389 0.0
Mg71 Mg 0.19875 0.67782 0.42448 0.0
C72 C 0.05625 0.69226 0.54296 0.0
O73 O 0.29416 0.65615 0.51718 0.0
O74 O 0.30829 0.8088 0.64136 0.0
O75 O 0.24237 0.61818 0.46118 0.0
O76 O 0.42397 0.72094 0.60124 0.0
O77 O 0.21129 0.75145 0.66001 0.0
O78 O 0.33026 0.66024 0.61287 0.0
O79 O 0.2088 0.8118 0.49953 0.0
O80 O 0.27548 0.85095 0.55029 0.0
C81 C 0.2236 0.85069 0.51962 0.0
C82 C 0.25473 0.7904 0.66689 0.0
O83 O 0.10494 0.70927 0.51477 0.0
O84 O 0.28569 0.76638 0.36915 0.0
O85 O 0.08554 0.68466 0.5788 0.0
O86 O 0.10384 0.78169 0.41609 0.0
O87 O 0.2516 0.68753 0.36493 0.0
O88 O 0.06618 0.70444 0.422 0.0
O89 O 0.38634 0.76289 0.51227 0.0
O90 O 0.40097 0.79843 0.45306 0.0
C91 C 0.40898 0.67752 0.61162 0.0
C92 C 0.28405 0.61802 0.49502 0.0
C93 C 0.92761 0.28127 0.4865 0.0
C94 C 0.77271 0.22314 0.34913 0.0
C95 C 0.5391 0.24571 0.41411 0.0
Mg96 Mg 0.84722 0.28509 0.57675 0.0
Mg97 Mg 0.70679 0.20104 0.60781 0.0
O98 O 0.73299 0.24844 0.57018 0.0
Mg99 Mg 0.74211 0.23239 0.51105 0.0
O100 O 0.75725 0.22201 0.45157 0.0
Mg101 Mg 0.74453 0.29014 0.43383 0.0
Mg102 Mg 0.69144 0.17488 0.42455 0.0
C103 C 0.54998 0.18905 0.54343 0.0
O104 O 0.78746 0.15344 0.51719 0.0
O105 O 0.8006 0.30636 0.64136 0.0
O106 O 0.73594 0.11524 0.46125 0.0
O107 O 0.9176 0.21856 0.60159 0.0
O108 O 0.70546 0.24818 0.66014 0.0
O109 O 0.82496 0.15741 0.61309 0.0
O110 O 0.70241 0.30917 0.4995 0.0
O111 O 0.76979 0.34816 0.55015 0.0
C112 C 0.71801 0.34806 0.51948 0.0
C113 C 0.74765 0.28755 0.66698 0.0
O114 O 0.59805 0.2065 0.5152 0.0
O115 O 0.77882 0.26318 0.36901 0.0
O116 O 0.58005 0.18109 0.57908 0.0
O117 O 0.59727 0.27931 0.41624 0.0
O118 O 0.74466 0.18433 0.36511 0.0
O119 O 0.55903 0.20202 0.42136 0.0
O120 O 0.87984 0.25991 0.51228 0.0
O121 O 0.89451 0.29502 0.4529 0.0
C122 C 0.90337 0.17511 0.61198 0.0
C123 C 0.77794 0.11527 0.49503 0.0
H124 H 0.5549 0.2248 0.07317 0.0
H125 H 0.91874 0.27817 0.90375 0.0
H126 H 0.51395 0.19912 0.946 0.0
H127 H 0.95493 0.31537 0.02919 0.0
H128 H 0.7679 0.25175 0.91854 0.0
H129 H 0.70539 0.25365 0.05862 0.0
C130 C 0.57859 0.22379 0.04235 0.0
C131 C 0.52208 0.20958 0.01071 0.0
C132 C 0.8086 0.26588 0.94292 0.0
C133 C 0.69207 0.24418 0.99369 0.0
C134 C 0.89431 0.28185 0.93434 0.0
C135 C 0.95036 0.29778 0.96562 0.0
C136 C 0.77893 0.2657 0.98307 0.0
C137 C 0.91505 0.30146 0.00464 0.0
C138 C 0.66373 0.24116 0.03396 0.0
C139 C 0.55536 0.20996 0.97124 0.0
N140 N 0.83204 0.28484 0.01246 0.0
N141 N 0.63778 0.22738 0.96382 0.0
H142 H 0.06391 0.71936 0.07241 0.0
H143 H 0.42804 0.77308 0.90329 0.0
H144 H 0.02247 0.69478 0.94514 0.0
H145 H 0.46312 0.81094 0.02866 0.0
H146 H 0.27744 0.74624 0.91796 0.0
H147 H 0.21461 0.74791 0.05796 0.0
C148 C 0.08751 0.71854 0.04158 0.0
C149 C 0.03079 0.70478 0.00989 0.0
C150 C 0.31784 0.76061 0.94235 0.0
C151 C 0.20104 0.73901 0.993 0.0
C152 C 0.4034 0.77682 0.93384 0.0
C153 C 0.45907 0.79309 0.96513 0.0
C154 C 0.28792 0.76055 0.98246 0.0
C155 C 0.42355 0.79679 0.0041 0.0
C156 C 0.17279 0.73573 0.03326 0.0
C157 C 0.06401 0.70533 0.97041 0.0
N158 N 0.34066 0.77995 0.01186 0.0
N159 N 0.14657 0.72259 0.96306 0.0
H160 H 0.5214 0.79667 0.55755 0.0
H161 H 0.96401 0.67166 0.47358 0.0
H162 H 0.56393 0.7637 0.43165 0.0
H163 H 0.92826 0.71783 0.59704 0.0
H164 H 0.81408 0.70035 0.45805 0.0
H165 H 0.67103 0.76843 0.57238 0.0
C166 C 0.56337 0.78467 0.53286 0.0
C167 C 0.53053 0.78266 0.49331 0.0
C168 C 0.83886 0.70391 0.48858 0.0
C169 C 0.7008 0.74847 0.5102 0.0
C170 C 0.92417 0.6874 0.49742 0.0
C171 C 0.95934 0.69348 0.5363 0.0
C172 C 0.78833 0.72647 0.51901 0.0
C173 C 0.90386 0.71238 0.5666 0.0
C174 C 0.6484 0.76795 0.54139 0.0
C175 C 0.58726 0.76644 0.46247 0.0
N176 N 0.82153 0.72879 0.5572 0.0
N177 N 0.66944 0.74932 0.47164 0.0
H178 H 0.05697 0.26393 0.43013 0.0
H179 H 0.42147 0.20883 0.59912 0.0
H180 H 0.01649 0.28819 0.55747 0.0
H181 H 0.45715 0.17281 0.47345 0.0
H182 H 0.27061 0.23544 0.58452 0.0
H183 H 0.20759 0.235 0.44445 0.0
C184 C 0.08079 0.26461 0.46095 0.0
C185 C 0.02437 0.27842 0.4927 0.0
C186 C 0.31121 0.22153 0.56004 0.0
C187 C 0.19449 0.24374 0.50944 0.0
C188 C 0.39693 0.20545 0.56851 0.0
C189 C 0.45283 0.18981 0.53713 0.0
C190 C 0.28139 0.22211 0.5199 0.0
C191 C 0.41738 0.18651 0.49809 0.0
C192 C 0.166 0.2472 0.4692 0.0
C193 C 0.05781 0.27765 0.53215 0.0
N194 N 0.33435 0.20324 0.49039 0.0
N195 N 0.1403 0.26018 0.53943 0.0
H196 H 0.72326 0.54834 0.9434 0.0
H197 H 0.26589 0.46296 0.04216 0.0
H198 H 0.58491 0.6284 0.03674 0.0
H199 H 0.41132 0.37933 0.9535 0.0
H200 H 0.37696 0.5266 0.03714 0.0
H201 H 0.60819 0.48659 0.94574 0.0
C202 C 0.66952 0.55266 0.96485 0.0
C203 C 0.66388 0.59384 0.98985 0.0
C204 C 0.38393 0.49454 0.0184 0.0
C205 C 0.53077 0.5236 0.99207 0.0
C206 C 0.32003 0.45833 0.02097 0.0
C207 C 0.32901 0.41555 0.99815 0.0
C208 C 0.45759 0.48792 0.99295 0.0
C209 C 0.40081 0.41172 0.97129 0.0
C210 C 0.60334 0.51754 0.9659 0.0
C211 C 0.59234 0.59738 0.01692 0.0
N212 N 0.46273 0.44717 0.96972 0.0
N213 N 0.52835 0.56292 0.0171 0.0
H214 H 0.72536 0.4362 0.55773 0.0
H215 H 0.26799 0.52718 0.4622 0.0
H216 H 0.57633 0.35581 0.46797 0.0
H217 H 0.42323 0.61054 0.54762 0.0
H218 H 0.37547 0.46174 0.46726 0.0
H219 H 0.61415 0.50001 0.55528 0.0
C220 C 0.67001 0.4322 0.53706 0.0
C221 C 0.66029 0.3904 0.51307 0.0
C222 C 0.38543 0.49415 0.48529 0.0
C223 C 0.53165 0.46304 0.51073 0.0
C224 C 0.32362 0.53141 0.48268 0.0
C225 C 0.33634 0.57455 0.50461 0.0
C226 C 0.46079 0.50009 0.50985 0.0
C227 C 0.40987 0.57787 0.53059 0.0
C228 C 0.60608 0.46852 0.53594 0.0
C229 C 0.58692 0.38733 0.48695 0.0
N230 N 0.46972 0.54136 0.53219 0.0
N231 N 0.52517 0.42298 0.48669 0.0
H232 H 0.0781 0.13186 0.03809 0.0
H233 H 0.91917 0.87574 0.95215 0.0
H234 H 0.21634 0.05249 0.94432 0.0
H235 H 0.77282 0.95875 0.04084 0.0
H236 H 0.02529 0.94133 0.94683 0.0
H237 H 0.96723 0.06808 0.04038 0.0
C238 C 0.0861 0.10072 0.0184 0.0
C239 C 0.15683 0.09773 0.9909 0.0
C240 C 0.96936 0.94552 0.9671 0.0
C241 C 0.02868 0.02482 0.99283 0.0
C242 C 0.9077 0.90825 0.96965 0.0
C243 C 0.8364 0.9116 0.99679 0.0
C244 C 0.96023 0.98644 0.99214 0.0
C245 C 0.82677 0.95439 0.01955 0.0
C246 C 0.02207 0.06448 0.01944 0.0
C247 C 0.16304 0.05648 0.96599 0.0
N248 N 0.88845 0.98992 0.01698 0.0
N249 N 0.09955 0.02179 0.96742 0.0
H250 H 0.76783 0.02484 0.46065 0.0
H251 H 0.22405 0.9377 0.56002 0.0
H252 H 0.91498 0.10843 0.54883 0.0
H253 H 0.08514 0.85832 0.46636 0.0
H254 H 0.10987 -2e-05 0.55746 0.0
H255 H 0.87822 0.96082 0.46584 0.0
C256 C 0.82222 0.0294 0.48177 0.0
C257 C 0.83177 0.07223 0.50446 0.0
C258 C 0.1047 0.96906 0.53728 0.0
C259 C 0.9596 -0.00059 0.50986 0.0
C260 C 0.17037 0.93363 0.53847 0.0
C261 C 0.16436 0.89251 0.5134 0.0
C262 C 0.03224 0.96336 0.51093 0.0
C263 C 0.09288 0.88929 0.48622 0.0
C264 C 0.88573 0.99296 0.48444 0.0
C265 C 0.90394 0.07598 0.5312 0.0
N266 N 0.02939 0.92404 0.4859 0.0
N267 N 0.96543 0.0403 0.53288 0.0
H268 H 0.40889 0.1813 0.39193 0.0
H269 H 0.29185 0.34405 0.20436 0.0
H270 H 0.48004 0.33144 0.38401 0.0
H271 H 0.2901 0.18856 0.20378 0.0
H272 H 0.3205 0.34402 0.27693 0.0
H273 H 0.31611 0.18951 0.33223 0.0
C274 C 0.40287 0.21644 0.37852 0.0
C275 C 0.45592 0.25517 0.39182 0.0
C276 C 0.31306 0.30998 0.26089 0.0
C277 C 0.35101 0.26443 0.32325 0.0
C278 C 0.29742 0.3099 0.21944 0.0
C279 C 0.29036 0.26619 0.19776 0.0
C280 C 0.32093 0.26607 0.28087 0.0
C281 C 0.29693 0.22311 0.21904 0.0
C282 C 0.35049 0.22092 0.34413 0.0
C283 C 0.44293 0.3001 0.37391 0.0
N284 N 0.31228 0.22416 0.25935 0.0
N285 N 0.39377 0.30321 0.33973 0.0
H286 H 0.48564 0.6531 0.11828 0.0
H287 H 0.29469 0.80377 0.29975 0.0
H288 H 0.41765 0.80372 0.11104 0.0
H289 H 0.30399 0.64838 0.29865 0.0
H290 H 0.3222 0.80263 0.22743 0.0
H291 H 0.39353 0.6472 0.17828 0.0
C292 C 0.44904 0.68462 0.12844 0.0
C293 C 0.46304 0.72958 0.11077 0.0
C294 C 0.31742 0.76871 0.24288 0.0
C295 C 0.35931 0.72325 0.17989 0.0
C296 C 0.30294 0.76938 0.28434 0.0
C297 C 0.29874 0.72614 0.30547 0.0
C298 C 0.3292 0.72453 0.22237 0.0
C299 C 0.30787 0.68263 0.28368 0.0
C300 C 0.39692 0.68128 0.163 0.0
C301 C 0.41167 0.7687 0.12459 0.0
N302 N 0.32386 0.68295 0.2434 0.0
N303 N 0.36438 0.76504 0.15919 0.0
H304 H 0.58624 0.68914 0.59777 0.0
H305 H 0.67441 0.60859 0.82149 0.0
H306 H 0.40175 0.60706 0.6684 0.0
H307 H 0.79532 0.72848 0.76191 0.0
H308 H 0.61446 0.58019 0.75627 0.0
H309 H 0.7027 0.67228 0.64673 0.0
C310 C 0.57099 0.66614 0.62287 0.0
C311 C 0.48346 0.65113 0.63 0.0
C312 C 0.65667 0.61176 0.75733 0.0
C313 C 0.6157 0.63244 0.68629 0.0
C314 C 0.69092 0.62782 0.79437 0.0
C315 C 0.73874 0.67103 0.79667 0.0
C316 C 0.6713 0.63913 0.72273 0.0
C317 C 0.75797 0.69516 0.76111 0.0
C318 C 0.63744 0.65666 0.65087 0.0
C319 C 0.46793 0.62035 0.66232 0.0
N320 N 0.72333 0.67918 0.7256 0.0
N321 N 0.53286 0.61323 0.69011 0.0
H322 H 0.57818 0.29934 0.90492 0.0
H323 H 0.66995 0.37499 0.68008 0.0
H324 H 0.39518 0.38075 0.83277 0.0
H325 H 0.78561 0.25458 0.74116 0.0
H326 H 0.60959 0.40466 0.74481 0.0
H327 H 0.69477 0.31414 0.85564 0.0
C328 C 0.56333 0.32182 0.87942 0.0
C329 C 0.47609 0.33725 0.87202 0.0
C330 C 0.65073 0.37267 0.74418 0.0
C331 C 0.6085 0.35351 0.81535 0.0
C332 C 0.68521 0.35587 0.70742 0.0
C333 C 0.73172 0.31221 0.70568 0.0
C334 C 0.66396 0.34561 0.77908 0.0
C335 C 0.74931 0.28825 0.74152 0.0
C336 C 0.62985 0.33008 0.85122 0.0
C337 C 0.4611 0.36723 0.83911 0.0
N338 N 0.71461 0.30501 0.77676 0.0
N339 N 0.52608 0.37316 0.81118 0.0
H340 H 0.91763 0.68248 0.39217 0.0
H341 H 0.8007 0.84142 0.20242 0.0
H342 H 0.98607 0.83286 0.38293 0.0
H343 H 0.80084 0.68596 0.20363 0.0
H344 H 0.82894 0.84273 0.27498 0.0
H345 H 0.82603 0.68917 0.33202 0.0
C346 C 0.91119 0.71737 0.37838 0.0
C347 C 0.96309 0.75663 0.39153 0.0
C348 C 0.82204 0.8084 0.25934 0.0
C349 C 0.85968 0.76411 0.32234 0.0
C350 C 0.80663 0.80755 0.21789 0.0
C351 C 0.80008 0.76346 0.19673 0.0
C352 C 0.83025 0.76488 0.27985 0.0
C353 C 0.80718 0.72078 0.2185 0.0
C354 C 0.85952 0.72097 0.34371 0.0
C355 C 0.94974 0.80116 0.37302 0.0
N356 N 0.8223 0.72257 0.25882 0.0
N357 N 0.90133 0.8034 0.33856 0.0
H358 H 0.79231 0.14463 0.29872 0.0
H359 H 0.90713 0.30735 0.11109 0.0
H360 H 0.79166 0.30012 0.29949 0.0
H361 H 0.97719 0.15702 0.11866 0.0
H362 H 0.81495 0.29925 0.17089 0.0
H363 H 0.81932 0.14469 0.22607 0.0
C364 C 0.79781 0.17879 0.28366 0.0
C365 C 0.79151 0.22248 0.30541 0.0
C366 C 0.84894 0.26777 0.15889 0.0
C367 C 0.8202 0.22264 0.2222 0.0
C368 C 0.90096 0.2722 0.12443 0.0
C369 C 0.95367 0.23338 0.11106 0.0
C370 C 0.84945 0.22424 0.17973 0.0
C371 C 0.94043 0.18843 0.12887 0.0
C372 C 0.81249 0.17873 0.24217 0.0
C373 C 0.79793 0.26558 0.28416 0.0
N374 N 0.89165 0.18538 0.16312 0.0
N375 N 0.81237 0.26455 0.24379 0.0
H376 H 0.16887 0.11142 0.82298 0.0
H377 H 0.08045 0.18743 0.59809 0.0
H378 H 0.28472 0.23205 0.7624 0.0
H379 H 0.89713 0.10531 0.66933 0.0
H380 H 0.19674 0.17223 0.64751 0.0
H381 H 0.11044 0.08141 0.75794 0.0
C382 C 0.18455 0.13053 0.7957 0.0
C383 C 0.23047 0.17436 0.79764 0.0
C384 C 0.13183 0.15621 0.65168 0.0
C385 C 0.165 0.14056 0.7239 0.0
C386 C 0.06548 0.1647 0.6234 0.0
C387 C 0.97821 0.14925 0.63057 0.0
C388 C 0.11022 0.13256 0.6874 0.0
C389 C 0.96307 0.11892 0.66322 0.0
C390 C 0.15122 0.11353 0.75876 0.0
C391 C 0.24875 0.19828 0.76187 0.0
N392 N 0.02785 0.1128 0.69126 0.0
N393 N 0.21514 0.18133 0.72646 0.0
H394 H 0.31402 0.76303 0.73991 0.0
H395 H 0.90198 0.88164 0.83716 0.0
H396 H 0.15879 0.87167 0.68135 0.0
H397 H 0.0871 0.79249 0.90138 0.0
H398 H 0.01789 0.89906 0.78819 0.0
H399 H 0.2579 0.79143 0.80513 0.0
C400 C 0.26989 0.79385 0.74112 0.0
C401 C 0.24008 0.81496 0.70566 0.0
C402 C 0.03416 0.87687 0.81367 0.0
C403 C 0.17254 0.84647 0.77962 0.0
C404 C 0.96794 0.86717 0.84187 0.0
C405 C 0.98395 0.83383 0.8723 0.0
C406 C 0.11599 0.85259 0.81595 0.0
C407 C 0.07104 0.8169 0.87736 0.0
C408 C 0.23767 0.81012 0.77827 0.0
C409 C 0.18277 0.85455 0.70835 0.0
N410 N 0.13313 0.82528 0.84873 0.0
N411 N 0.14895 0.86836 0.74472 0.0
loop_
_geom_bond_atom_site_label_1
_geom_bond_atom_site_label_2
_geom_bond_distance
_geom_bond_site_symmetry_2
_ccdc_geom_bond_type
C0 O27 1.312 1_554 S
C0 O28 1.208 . S
C1 O22 1.331 . S
C1 O25 1.244 . S
C2 O24 1.264 . S
C2 O26 1.273 . S
Mg3 O5 1.936 . S
Mg3 O12 2.081 . S
Mg3 O14 2.023 . S
Mg3 O18 2.031 . S
Mg3 O27 2.291 . S
Mg4 O5 1.963 . S
Mg4 O15 1.942 . S
Mg4 O16 1.955 . S
Mg4 O23 1.986 . S
O5 Mg3 1.936 . S
O5 Mg4 1.963 . S
O5 Mg6 1.915 1_556 S
Mg6 O5 1.915 1_554 S
Mg6 O7 1.915 . S
Mg6 O11 2.013 1_554 S
Mg6 O17 2.114 . S
Mg6 O21 2.013 . S
Mg6 O27 2.114 1_554 S
O7 Mg6 1.915 . S
O7 Mg8 1.936 . S
O7 Mg9 1.963 . S
Mg8 O7 1.936 . S
Mg8 O17 2.291 . S
Mg8 O22 2.081 . S
Mg8 O24 2.023 . S
Mg8 O28 2.031 . S
Mg9 O7 1.963 . S
Mg9 O13 1.986 . S
Mg9 O25 1.942 . S
Mg9 O26 1.955 . S
C10 O21 1.191 1_556 S
C10 O23 1.307 . S
O11 Mg6 2.013 1_556 S
O11 C30 1.191 1_556 S
O12 Mg3 2.081 . S
O12 C20 1.331 . S
O13 Mg9 1.986 . S
O13 C30 1.307 . S
O14 Mg3 2.023 . S
O14 C29 1.264 . S
O15 Mg4 1.942 . S
O15 C20 1.244 . S
O16 Mg4 1.955 . S
O16 C29 1.273 . S
O17 Mg6 2.114 . S
O17 Mg8 2.291 . S
O17 C19 1.312 1_554 S
O18 Mg3 2.031 . S
O18 C19 1.208 . S
C19 O17 1.312 1_556 S
C19 O18 1.208 . S
C20 O12 1.331 . S
C20 O15 1.244 . S
O21 Mg6 2.013 . S
O21 C10 1.191 1_554 S
O22 C1 1.331 . S
O22 Mg8 2.081 . S
O23 Mg4 1.986 . S
O23 C10 1.307 . S
O24 C2 1.264 . S
O24 Mg8 2.023 . S
O25 C1 1.244 . S
O25 Mg9 1.942 . S
O26 C2 1.273 . S
O26 Mg9 1.955 . S
O27 C0 1.312 1_556 S
O27 Mg3 2.291 . S
O27 Mg6 2.114 1_556 S
O28 C0 1.208 . S
O28 Mg8 2.031 . S
C29 O14 1.264 . S
C29 O16 1.273 . S
C30 O11 1.191 1_554 S
C30 O13 1.307 . S
C31 O58 1.312 1_554 S
C31 O59 1.208 . S
C32 O53 1.331 . S
C32 O56 1.244 . S
C33 O55 1.264 . S
C33 O57 1.273 . S
Mg34 O36 1.936 . S
Mg34 O43 2.081 . S
Mg34 O45 2.023 . S
Mg34 O49 2.031 . S
Mg34 O58 2.291 . S
Mg35 O36 1.963 . S
Mg35 O46 1.942 . S
Mg35 O47 1.955 . S
Mg35 O54 1.986 . S
O36 Mg34 1.936 . S
O36 Mg35 1.963 . S
O36 Mg37 1.915 1_556 S
Mg37 O36 1.915 1_554 S
Mg37 O38 1.915 . S
Mg37 O42 2.013 1_554 S
Mg37 O48 2.114 . S
Mg37 O52 2.013 . S
Mg37 O58 2.114 1_554 S
O38 Mg37 1.915 . S
O38 Mg39 1.936 . S
O38 Mg40 1.963 . S
Mg39 O38 1.936 . S
Mg39 O48 2.291 . S
Mg39 O53 2.081 . S
Mg39 O55 2.023 . S
Mg39 O59 2.031 . S
Mg40 O38 1.963 . S
Mg40 O44 1.986 . S
Mg40 O56 1.942 . S
Mg40 O57 1.955 . S
C41 O52 1.191 1_556 S
C41 O54 1.307 . S
O42 Mg37 2.013 1_556 S
O42 C61 1.191 1_556 S
O43 Mg34 2.081 . S
O43 C51 1.331 . S
O44 Mg40 1.986 . S
O44 C61 1.307 . S
O45 Mg34 2.023 . S
O45 C60 1.264 . S
O46 Mg35 1.942 . S
O46 C51 1.244 . S
O47 Mg35 1.955 . S
O47 C60 1.273 . S
O48 Mg37 2.114 . S
O48 Mg39 2.291 . S
O48 C50 1.312 1_554 S
O49 Mg34 2.031 . S
O49 C50 1.208 . S
C50 O48 1.312 1_556 S
C50 O49 1.208 . S
C51 O43 1.331 . S
C51 O46 1.244 . S
O52 Mg37 2.013 . S
O52 C41 1.191 1_554 S
O53 C32 1.331 . S
O53 Mg39 2.081 . S
O54 Mg35 1.986 . S
O54 C41 1.307 . S
O55 C33 1.264 . S
O55 Mg39 2.023 . S
O56 C32 1.244 . S
O56 Mg40 1.942 . S
O57 C33 1.273 . S
O57 Mg40 1.955 . S
O58 C31 1.312 1_556 S
O58 Mg34 2.291 . S
O58 Mg37 2.114 1_556 S
O59 C31 1.208 . S
O59 Mg39 2.031 . S
C60 O45 1.264 . S
C60 O47 1.273 . S
C61 O42 1.191 1_554 S
C61 O44 1.307 . S
C62 O89 1.312 . S
C62 O90 1.208 . S
C63 O84 1.331 . S
C63 O87 1.244 . S
C64 O86 1.264 . S
C64 O88 1.273 . S
Mg65 O67 1.936 . S
Mg65 O74 2.081 . S
Mg65 O76 2.023 . S
Mg65 O80 2.031 . S
Mg65 O89 2.291 . S
Mg66 O67 1.963 . S
Mg66 O77 1.942 . S
Mg66 O78 1.955 . S
Mg66 O85 1.986 . S
O67 Mg65 1.936 . S
O67 Mg66 1.963 . S
O67 Mg68 1.915 . S
Mg68 O67 1.915 . S
Mg68 O69 1.915 . S
Mg68 O73 2.013 . S
Mg68 O79 2.114 . S
Mg68 O83 2.013 . S
Mg68 O89 2.114 . S
O69 Mg68 1.915 . S
O69 Mg70 1.936 . S
O69 Mg71 1.963 . S
Mg70 O69 1.936 . S
Mg70 O79 2.291 . S
Mg70 O84 2.081 . S
Mg70 O86 2.023 . S
Mg70 O90 2.031 . S
Mg71 O69 1.963 . S
Mg71 O75 1.986 . S
Mg71 O87 1.942 . S
Mg71 O88 1.955 . S
C72 O83 1.191 . S
C72 O85 1.307 . S
O73 Mg68 2.013 . S
O73 C92 1.191 . S
O74 Mg65 2.081 . S
O74 C82 1.331 . S
O75 Mg71 1.986 . S
O75 C92 1.307 . S
O76 Mg65 2.023 . S
O76 C91 1.264 . S
O77 Mg66 1.942 . S
O77 C82 1.244 . S
O78 Mg66 1.955 . S
O78 C91 1.273 . S
O79 Mg68 2.114 . S
O79 Mg70 2.291 . S
O79 C81 1.312 . S
O80 Mg65 2.031 . S
O80 C81 1.208 . S
C81 O79 1.312 . S
C81 O80 1.208 . S
C82 O74 1.331 . S
C82 O77 1.244 . S
O83 Mg68 2.013 . S
O83 C72 1.191 . S
O84 C63 1.331 . S
O84 Mg70 2.081 . S
O85 Mg66 1.986 . S
O85 C72 1.307 . S
O86 C64 1.264 . S
O86 Mg70 2.023 . S
O87 C63 1.244 . S
O87 Mg71 1.942 . S
O88 C64 1.273 . S
O88 Mg71 1.955 . S
O89 C62 1.312 . S
O89 Mg65 2.291 . S
O89 Mg68 2.114 . S
O90 C62 1.208 . S
O90 Mg70 2.031 . S
C91 O76 1.264 . S
C91 O78 1.273 . S
C92 O73 1.191 . S
C92 O75 1.307 . S
C93 O120 1.312 . S
C93 O121 1.208 . S
C94 O115 1.331 . S
C94 O118 1.244 . S
C95 O117 1.264 . S
C95 O119 1.273 . S
Mg96 O98 1.936 . S
Mg96 O105 2.081 . S
Mg96 O107 2.023 . S
Mg96 O111 2.031 . S
Mg96 O120 2.291 . S
Mg97 O98 1.963 . S
Mg97 O108 1.942 . S
Mg97 O109 1.955 . S
Mg97 O116 1.986 . S
O98 Mg96 1.936 . S
O98 Mg97 1.963 . S
O98 Mg99 1.915 . S
Mg99 O98 1.915 . S
Mg99 O100 1.915 . S
Mg99 O104 2.013 . S
Mg99 O110 2.114 . S
Mg99 O114 2.013 . S
Mg99 O120 2.114 . S
O100 Mg99 1.915 . S
O100 Mg101 1.936 . S
O100 Mg102 1.963 . S
Mg101 O100 1.936 . S
Mg101 O110 2.291 . S
Mg101 O115 2.081 . S
Mg101 O117 2.023 . S
Mg101 O121 2.031 . S
Mg102 O100 1.963 . S
Mg102 O106 1.986 . S
Mg102 O118 1.942 . S
Mg102 O119 1.955 . S
C103 O114 1.191 . S
C103 O116 1.307 . S
O104 Mg99 2.013 . S
O104 C123 1.191 . S
O105 Mg96 2.081 . S
O105 C113 1.331 . S
O106 Mg102 1.986 . S
O106 C123 1.307 . S
O107 Mg96 2.023 . S
O107 C122 1.264 . S
O108 Mg97 1.942 . S
O108 C113 1.244 . S
O109 Mg97 1.955 . S
O109 C122 1.273 . S
O110 Mg99 2.114 . S
O110 Mg101 2.291 . S
O110 C112 1.312 . S
O111 Mg96 2.031 . S
O111 C112 1.208 . S
C112 O110 1.312 . S
C112 O111 1.208 . S
C113 O105 1.331 . S
C113 O108 1.244 . S
O114 Mg99 2.013 . S
O114 C103 1.191 . S
O115 C94 1.331 . S
O115 Mg101 2.081 . S
O116 Mg97 1.986 . S
O116 C103 1.307 . S
O117 C95 1.264 . S
O117 Mg101 2.023 . S
O118 C94 1.244 . S
O118 Mg102 1.942 . S
O119 C95 1.273 . S
O119 Mg102 1.955 . S
O120 C93 1.312 . S
O120 Mg96 2.291 . S
O120 Mg99 2.114 . S
O121 C93 1.208 . S
O121 Mg101 2.031 . S
C122 O107 1.264 . S
C122 O109 1.273 . S
C123 O104 1.191 . S
C123 O106 1.307 . S
H124 C130 0.930 . S
H125 C134 0.930 . S
H126 C139 0.929 . S
H127 C137 0.929 . S
H128 C132 0.929 . S
H129 C138 0.929 . S
C130 H124 0.930 . S
C130 C131 1.367 . S
C130 C138 1.378 . S
C131 C130 1.367 . S
C131 C139 1.433 1_554 S
C132 H128 0.929 . S
C132 C134 1.378 . S
C132 C136 1.351 . S
C133 C136 1.462 1_554 S
C133 C138 1.350 . S
C133 N141 1.427 1_554 S
C134 H125 0.930 . S
C134 C132 1.378 . S
C134 C135 1.365 1_556 S
C135 C134 1.365 1_554 S
C135 C137 1.435 . S
C136 C132 1.351 . S
C136 C133 1.462 1_556 S
C136 N140 1.426 1_556 S
C137 H127 0.929 . S
C137 C135 1.435 . S
C137 N140 1.384 . S
C138 H129 0.929 . S
C138 C130 1.378 . S
C138 C133 1.350 . S
C139 H126 0.929 . S
C139 C131 1.433 1_556 S
C139 N141 1.384 . S
N140 C136 1.426 1_554 S
N140 C137 1.384 . S
N141 C133 1.427 1_556 S
N141 C139 1.384 . S
H142 C148 0.930 . S
H143 C152 0.930 . S
H144 C157 0.929 . S
H145 C155 0.929 . S
H146 C150 0.929 . S
H147 C156 0.929 . S
C148 H142 0.930 . S
C148 C149 1.367 . S
C148 C156 1.378 . S
C149 C148 1.367 . S
C149 C157 1.433 1_554 S
C150 H146 0.929 . S
C150 C152 1.378 . S
C150 C154 1.345 1_556 S
C151 C154 1.463 . S
C151 C156 1.350 . S
C151 N159 1.427 1_554 S
C152 H143 0.930 . S
C152 C150 1.378 . S
C152 C153 1.361 1_556 S
C153 C152 1.361 1_554 S
C153 C155 1.440 . S
C154 C150 1.345 1_554 S
C154 C151 1.463 . S
C154 N158 1.432 . S
C155 H145 0.929 . S
C155 C153 1.440 . S
C155 N158 1.384 . S
C156 H147 0.929 . S
C156 C148 1.378 . S
C156 C151 1.350 . S
C157 H144 0.929 . S
C157 C149 1.433 1_556 S
C157 N159 1.384 . S
N158 C154 1.432 . S
N158 C155 1.384 . S
N159 C151 1.427 1_556 S
N159 C157 1.384 . S
H160 C166 0.930 . S
H161 C170 0.930 . S
H162 C175 0.929 . S
H163 C173 0.929 . S
H164 C168 0.929 . S
H165 C174 0.929 . S
C166 H160 0.930 . S
C166 C167 1.367 . S
C166 C174 1.378 . S
C167 C166 1.367 . S
C167 C175 1.433 . S
C168 H164 0.929 . S
C168 C170 1.378 . S
C168 C172 1.350 . S
C169 C172 1.463 . S
C169 C174 1.350 . S
C169 N177 1.427 . S
C170 H161 0.930 . S
C170 C168 1.378 . S
C170 C171 1.367 . S
C171 C170 1.367 . S
C171 C173 1.433 . S
C172 C168 1.350 . S
C172 C169 1.463 . S
C172 N176 1.427 . S
C173 H163 0.929 . S
C173 C171 1.433 . S
C173 N176 1.384 . S
C174 H165 0.929 . S
C174 C166 1.378 . S
C174 C169 1.350 . S
C175 H162 0.929 . S
C175 C167 1.433 . S
C175 N177 1.384 . S
N176 C172 1.427 . S
N176 C173 1.384 . S
N177 C169 1.427 . S
N177 C175 1.384 . S
H178 C184 0.930 . S
H179 C188 0.930 . S
H180 C193 0.929 . S
H181 C191 0.929 . S
H182 C186 0.929 . S
H183 C192 0.929 . S
C184 H178 0.930 . S
C184 C185 1.367 . S
C184 C192 1.378 . S
C185 C184 1.367 . S
C185 C193 1.433 . S
C186 H182 0.929 . S
C186 C188 1.378 . S
C186 C190 1.350 . S
C187 C190 1.463 . S
C187 C192 1.350 . S
C187 N195 1.427 . S
C188 H179 0.930 . S
C188 C186 1.378 . S
C188 C189 1.367 . S
C189 C188 1.367 . S
C189 C191 1.433 . S
C190 C186 1.350 . S
C190 C187 1.463 . S
C190 N194 1.427 . S
C191 H181 0.929 . S
C191 C189 1.433 . S
C191 N194 1.384 . S
C192 H183 0.929 . S
C192 C184 1.378 . S
C192 C187 1.350 . S
C193 H180 0.929 . S
C193 C185 1.433 . S
C193 N195 1.384 . S
N194 C190 1.427 . S
N194 C191 1.384 . S
N195 C187 1.427 . S
N195 C193 1.384 . S
H196 C202 0.930 . S
H197 C206 0.930 . S
H198 C211 0.929 . S
H199 C209 0.929 . S
H200 C204 0.929 . S
H201 C210 0.929 . S
C202 H196 0.930 . S
C202 C203 1.367 1_556 S
C202 C210 1.378 . S
C203 C202 1.367 1_554 S
C203 C211 1.433 . S
C204 H200 0.929 . S
C204 C206 1.378 . S
C204 C208 1.350 . S
C205 C208 1.463 . S
C205 C210 1.350 1_554 S
C205 N213 1.427 . S
C206 H197 0.930 . S
C206 C204 1.378 . S
C206 C207 1.367 . S
C207 C206 1.367 . S
C207 C209 1.433 1_554 S
C208 C204 1.350 . S
C208 C205 1.463 . S
C208 N212 1.427 1_554 S
C209 H199 0.929 . S
C209 C207 1.433 1_556 S
C209 N212 1.384 . S
C210 H201 0.929 . S
C210 C202 1.378 . S
C210 C205 1.350 1_556 S
C211 H198 0.929 . S
C211 C203 1.433 . S
C211 N213 1.384 . S
N212 C208 1.427 1_556 S
N212 C209 1.384 . S
N213 C205 1.427 . S
N213 C211 1.384 . S
H214 C220 0.930 . S
H215 C224 0.930 . S
H216 C229 0.929 . S
H217 C227 0.929 . S
H218 C222 0.929 . S
H219 C228 0.929 . S
C220 H214 0.930 . S
C220 C221 1.367 . S
C220 C228 1.378 . S
C221 C220 1.367 . S
C221 C229 1.433 . S
C222 H218 0.929 . S
C222 C224 1.378 . S
C222 C226 1.350 . S
C223 C226 1.463 . S
C223 C228 1.350 . S
C223 N231 1.427 . S
C224 H215 0.930 . S
C224 C222 1.378 . S
C224 C225 1.367 . S
C225 C224 1.367 . S
C225 C227 1.433 . S
C226 C222 1.350 . S
C226 C223 1.463 . S
C226 N230 1.427 . S
C227 H217 0.929 . S
C227 C225 1.433 . S
C227 N230 1.384 . S
C228 H219 0.929 . S
C228 C220 1.378 . S
C228 C223 1.350 . S
C229 H216 0.929 . S
C229 C221 1.433 . S
C229 N231 1.384 . S
N230 C226 1.427 . S
N230 C227 1.384 . S
N231 C223 1.427 . S
N231 C229 1.384 . S
H232 C238 0.930 . S
H233 C242 0.932 . S
H234 C247 0.931 . S
H235 C245 0.929 . S
H236 C240 0.930 . S
H237 C246 0.929 . S
C238 H232 0.930 . S
C238 C239 1.367 . S
C238 C246 1.378 1_455 S
C239 C238 1.367 . S
C239 C247 1.432 1_554 S
C240 H236 0.930 . S
C240 C242 1.378 1_455 S
C240 C244 1.349 1_456 S
C241 C244 1.463 1_445 S
C241 C246 1.350 1_455 S
C241 N249 1.426 1_554 S
C242 H233 0.932 . S
C242 C240 1.378 1_655 S
C242 C243 1.366 1_556 S
C243 C242 1.366 1_554 S
C243 C245 1.433 . S
C244 C240 1.349 1_654 S
C244 C241 1.463 1_665 S
C244 N248 1.427 . S
C245 H235 0.929 . S
C245 C243 1.433 . S
C245 N248 1.384 . S
C246 H237 0.929 . S
C246 C238 1.378 1_655 S
C246 C241 1.350 1_655 S
C247 H234 0.931 . S
C247 C239 1.432 1_556 S
C247 N249 1.384 . S
N248 C244 1.427 . S
N248 C245 1.384 . S
N249 C241 1.426 1_556 S
N249 C247 1.384 . S
H250 C256 0.930 . S
H251 C260 0.930 . S
H252 C265 0.929 . S
H253 C263 0.929 . S
H254 C258 0.929 . S
H255 C264 0.924 1_455 S
C256 H250 0.930 . S
C256 C257 1.367 . S
C256 C264 1.378 . S
C257 C256 1.367 . S
C257 C265 1.433 . S
C258 H254 0.929 . S
C258 C260 1.378 . S
C258 C262 1.350 . S
C259 C262 1.463 1_645 S
C259 C264 1.350 . S
C259 N267 1.427 . S
C260 H251 0.930 . S
C260 C258 1.378 . S
C260 C261 1.367 . S
C261 C260 1.367 . S
C261 C263 1.433 . S
C262 C258 1.350 . S
C262 C259 1.463 1_465 S
C262 N266 1.427 . S
C263 H253 0.929 . S
C263 C261 1.433 . S
C263 N266 1.384 . S
C264 H255 0.924 1_655 S
C264 C256 1.378 . S
C264 C259 1.350 . S
C265 H252 0.929 . S
C265 C257 1.433 . S
C265 N267 1.384 . S
N266 C262 1.427 . S
N266 C263 1.384 . S
N267 C259 1.427 . S
N267 C265 1.384 . S
H268 C274 0.930 . S
H269 C278 0.930 . S
H270 C283 0.929 . S
H271 C281 0.929 . S
H272 C276 0.929 . S
H273 C282 0.929 . S
C274 H268 0.930 . S
C274 C275 1.367 . S
C274 C282 1.378 . S
C275 C274 1.367 . S
C275 C283 1.433 . S
C276 H272 0.929 . S
C276 C278 1.378 . S
C276 C280 1.350 . S
C277 C280 1.463 . S
C277 C282 1.350 . S
C277 N285 1.427 . S
C278 H269 0.930 . S
C278 C276 1.378 . S
C278 C279 1.367 . S
C279 C278 1.367 . S
C279 C281 1.433 . S
C280 C276 1.350 . S
C280 C277 1.463 . S
C280 N284 1.427 . S
C281 H271 0.929 . S
C281 C279 1.433 . S
C281 N284 1.384 . S
C282 H273 0.929 . S
C282 C274 1.378 . S
C282 C277 1.350 . S
C283 H270 0.929 . S
C283 C275 1.433 . S
C283 N285 1.384 . S
N284 C280 1.427 . S
N284 C281 1.384 . S
N285 C277 1.427 . S
N285 C283 1.384 . S
H286 C292 0.930 . S
H287 C296 0.930 . S
H288 C301 0.929 . S
H289 C299 0.929 . S
H290 C294 0.929 . S
H291 C300 0.929 . S
C292 H286 0.930 . S
C292 C293 1.367 . S
C292 C300 1.378 . S
C293 C292 1.367 . S
C293 C301 1.433 . S
C294 H290 0.929 . S
C294 C296 1.378 . S
C294 C298 1.350 . S
C295 C298 1.463 . S
C295 C300 1.350 . S
C295 N303 1.427 . S
C296 H287 0.930 . S
C296 C294 1.378 . S
C296 C297 1.367 . S
C297 C296 1.367 . S
C297 C299 1.433 . S
C298 C294 1.350 . S
C298 C295 1.463 . S
C298 N302 1.427 . S
C299 H289 0.929 . S
C299 C297 1.433 . S
C299 N302 1.384 . S
C300 H291 0.929 . S
C300 C292 1.378 . S
C300 C295 1.350 . S
C301 H288 0.929 . S
C301 C293 1.433 . S
C301 N303 1.384 . S
N302 C298 1.427 . S
N302 C299 1.384 . S
N303 C295 1.427 . S
N303 C301 1.384 . S
H304 C310 0.930 . S
H305 C314 0.930 . S
H306 C319 0.929 . S
H307 C317 0.929 . S
H308 C312 0.929 . S
H309 C318 0.929 . S
C310 H304 0.930 . S
C310 C311 1.367 . S
C310 C318 1.378 . S
C311 C310 1.367 . S
C311 C319 1.433 . S
C312 H308 0.929 . S
C312 C314 1.378 . S
C312 C316 1.350 . S
C313 C316 1.463 . S
C313 C318 1.350 . S
C313 N321 1.427 . S
C314 H305 0.930 . S
C314 C312 1.378 . S
C314 C315 1.367 . S
C315 C314 1.367 . S
C315 C317 1.433 . S
C316 C312 1.350 . S
C316 C313 1.463 . S
C316 N320 1.427 . S
C317 H307 0.929 . S
C317 C315 1.433 . S
C317 N320 1.384 . S
C318 H309 0.929 . S
C318 C310 1.378 . S
C318 C313 1.350 . S
C319 H306 0.929 . S
C319 C311 1.433 . S
C319 N321 1.384 . S
N320 C316 1.427 . S
N320 C317 1.384 . S
N321 C313 1.427 . S
N321 C319 1.384 . S
H322 C328 0.930 . S
H323 C332 0.930 . S
H324 C337 0.929 . S
H325 C335 0.929 . S
H326 C330 0.929 . S
H327 C336 0.929 . S
C328 H322 0.930 . S
C328 C329 1.367 . S
C328 C336 1.378 . S
C329 C328 1.367 . S
C329 C337 1.433 . S
C330 H326 0.929 . S
C330 C332 1.378 . S
C330 C334 1.350 . S
C331 C334 1.463 . S
C331 C336 1.350 . S
C331 N339 1.427 . S
C332 H323 0.930 . S
C332 C330 1.378 . S
C332 C333 1.367 . S
C333 C332 1.367 . S
C333 C335 1.433 . S
C334 C330 1.350 . S
C334 C331 1.463 . S
C334 N338 1.427 . S
C335 H325 0.929 . S
C335 C333 1.433 . S
C335 N338 1.384 . S
C336 H327 0.929 . S
C336 C328 1.378 . S
C336 C331 1.350 . S
C337 H324 0.929 . S
C337 C329 1.433 . S
C337 N339 1.384 . S
N338 C334 1.427 . S
N338 C335 1.384 . S
N339 C331 1.427 . S
N339 C337 1.384 . S
H340 C346 0.930 1_655 S
H341 C350 0.930 . S
H342 C355 0.929 . S
H343 C353 0.929 . S
H344 C348 0.929 . S
H345 C354 0.929 . S
C346 H340 0.930 1_455 S
C346 C347 1.367 . S
C346 C354 1.378 1_455 S
C347 C346 1.367 . S
C347 C355 1.433 . S
C348 H344 0.929 . S
C348 C350 1.378 . S
C348 C352 1.350 1_455 S
C349 C352 1.463 1_455 S
C349 C354 1.350 1_455 S
C349 N357 1.427 . S
C350 H341 0.930 . S
C350 C348 1.378 . S
C350 C351 1.367 1_455 S
C351 C350 1.367 1_655 S
C351 C353 1.433 . S
C352 C348 1.350 1_655 S
C352 C349 1.463 1_655 S
C352 N356 1.427 . S
C353 H343 0.929 . S
C353 C351 1.433 . S
C353 N356 1.384 . S
C354 H345 0.929 . S
C354 C346 1.378 1_655 S
C354 C349 1.350 1_655 S
C355 H342 0.929 . S
C355 C347 1.433 . S
C355 N357 1.384 . S
N356 C352 1.427 . S
N356 C353 1.384 . S
N357 C349 1.427 . S
N357 C355 1.384 . S
H358 C364 0.930 . S
H359 C368 0.930 . S
H360 C373 0.929 . S
H361 C371 0.929 . S
H362 C366 0.929 . S
H363 C372 0.929 . S
C364 H358 0.930 . S
C364 C365 1.367 . S
C364 C372 1.378 . S
C365 C364 1.367 . S
C365 C373 1.433 . S
C366 H362 0.929 . S
C366 C368 1.378 . S
C366 C370 1.350 . S
C367 C370 1.463 1_655 S
C367 C372 1.350 . S
C367 N375 1.427 . S
C368 H359 0.930 . S
C368 C366 1.378 . S
C368 C369 1.367 . S
C369 C368 1.367 . S
C369 C371 1.433 . S
C370 C366 1.350 . S
C370 C367 1.463 1_455 S
C370 N374 1.427 . S
C371 H361 0.929 . S
C371 C369 1.433 . S
C371 N374 1.384 . S
C372 H363 0.929 . S
C372 C364 1.378 . S
C372 C367 1.350 . S
C373 H360 0.929 . S
C373 C365 1.433 . S
C373 N375 1.384 . S
N374 C370 1.427 . S
N374 C371 1.384 . S
N375 C367 1.427 . S
N375 C373 1.384 . S
H376 C382 0.930 . S
H377 C386 0.930 1_455 S
H378 C391 0.929 . S
H379 C389 0.929 . S
H380 C384 0.929 . S
H381 C390 0.929 . S
C382 H376 0.930 . S
C382 C383 1.367 1_655 S
C382 C390 1.378 . S
C383 C382 1.367 1_455 S
C383 C391 1.433 . S
C384 H380 0.929 . S
C384 C386 1.378 1_455 S
C384 C388 1.350 1_455 S
C385 C388 1.463 1_455 S
C385 C390 1.350 1_455 S
C385 N393 1.427 . S
C386 H377 0.930 1_655 S
C386 C384 1.378 1_655 S
C386 C387 1.367 . S
C387 C386 1.367 . S
C387 C389 1.433 . S
C388 C384 1.350 1_655 S
C388 C385 1.463 1_655 S
C388 N392 1.427 . S
C389 H379 0.929 . S
C389 C387 1.433 . S
C389 N392 1.384 . S
C390 H381 0.929 . S
C390 C382 1.378 . S
C390 C385 1.350 1_655 S
C391 H378 0.929 . S
C391 C383 1.433 . S
C391 N393 1.384 . S
N392 C388 1.427 . S
N392 C389 1.384 . S
N393 C385 1.427 . S
N393 C391 1.384 . S
H394 C400 0.930 . S
H395 C404 0.930 . S
H396 C409 0.929 . S
H397 C407 0.929 . S
H398 C402 0.929 . S
H399 C408 0.929 . S
C400 H394 0.930 . S
C400 C401 1.367 . S
C400 C408 1.378 . S
C401 C400 1.367 . S
C401 C409 1.433 . S
C402 H398 0.929 . S
C402 C404 1.378 . S
C402 C406 1.350 . S
C403 C406 1.463 1_455 S
C403 C408 1.350 . S
C403 N411 1.427 1_455 S
C404 H395 0.930 . S
C404 C402 1.378 . S
C404 C405 1.367 . S
C405 C404 1.367 . S
C405 C407 1.433 . S
C406 C402 1.350 . S
C406 C403 1.463 1_655 S
C406 N410 1.427 . S
C407 H397 0.929 . S
C407 C405 1.433 . S
C407 N410 1.384 . S
C408 H399 0.929 . S
C408 C400 1.378 . S
C408 C403 1.350 . S
C409 H396 0.929 . S
C409 C401 1.433 . S
C409 N411 1.384 1_455 S
N410 C406 1.427 . S
N410 C407 1.384 . S
N411 C403 1.427 1_655 S
N411 C409 1.384 1_655 S
C131 C0 1.474 . S
C135 C10 1.456 1_654 S
C149 C31 1.478 1_455 S
C153 C41 1.459 1_554 S
C167 C62 1.483 . S
C171 C72 1.465 1_655 S
C185 C93 1.477 1_455 S
C189 C103 1.461 . S
C203 C50 1.554 1_554 S
C207 C30 1.555 . S
C221 C112 1.554 . S
C225 C92 1.556 . S
C239 C19 1.560 1_554 S
C243 C61 1.559 . S
C257 C123 1.555 . S
C261 C81 1.554 . S
C275 C95 1.156 . S
C279 C1 1.166 . S
C293 C33 1.154 . S
C297 C63 1.146 . S
C311 C91 1.241 . S
C315 C51 1.246 . S
C329 C29 1.253 . S
C333 C113 1.233 . S
C347 C64 1.159 . S
C351 C32 1.167 . S
C365 C94 1.159 . S
C369 C2 1.146 . S
C383 C20 1.245 . S
C387 C122 1.248 . S
C401 C82 1.224 . S
C405 C60 1.244 . S
