# Generated by pormake.
# Topology umk, (4)-cn, num edge types: 1
# Building blocks:
#     Node 0, Type 0, BuildingBlock: NAHDIM_clean_sbu_0, # of connection points: 4
#     Node 1, Type 0, BuildingBlock: NAHDIM_clean_sbu_0, # of connection points: 4
#     Node 2, Type 0, BuildingBlock: NAHDIM_clean_sbu_0, # of connection points: 4
#     Node 3, Type 0, BuildingBlock: NAHDIM_clean_sbu_0, # of connection points: 4
#     Node 4, Type 0, BuildingBlock: NAHDIM_clean_sbu_0, # of connection points: 4
#     Node 5, Type 0, BuildingBlock: NAHDIM_clean_sbu_0, # of connection points: 4
#     Node 6, Type 0, BuildingBlock: NAHDIM_clean_sbu_0, # of connection points: 4
#     Node 7, Type 0, BuildingBlock: NAHDIM_clean_sbu_0, # of connection points: 4
#     Node 8, Type 0, BuildingBlock: NAHDIM_clean_sbu_0, # of connection points: 4
#     Node 9, Type 0, BuildingBlock: NAHDIM_clean_sbu_0, # of connection points: 4
#     Node 10, Type 0, BuildingBlock: NAHDIM_clean_sbu_0, # of connection points: 4
#     Node 11, Type 0, BuildingBlock: NAHDIM_clean_sbu_0, # of connection points: 4
#     Node 12, Type 0, BuildingBlock: NAHDIM_clean_sbu_0, # of connection points: 4
#     Node 13, Type 0, BuildingBlock: NAHDIM_clean_sbu_0, # of connection points: 4
#     Node 14, Type 0, BuildingBlock: NAHDIM_clean_sbu_0, # of connection points: 4
#     Node 15, Type 0, BuildingBlock: NAHDIM_clean_sbu_0, # of connection points: 4
#     Node 16, Type 0, BuildingBlock: NAHDIM_clean_sbu_0, # of connection points: 4
#     Node 17, Type 0, BuildingBlock: NAHDIM_clean_sbu_0, # of connection points: 4
#     Node 18, Type 0, BuildingBlock: NAHDIM_clean_sbu_0, # of connection points: 4
#     Node 19, Type 0, BuildingBlock: NAHDIM_clean_sbu_0, # of connection points: 4
#     Node 20, Type 0, BuildingBlock: NAHDIM_clean_sbu_0, # of connection points: 4
#     Node 21, Type 0, BuildingBlock: NAHDIM_clean_sbu_0, # of connection points: 4
#     Node 22, Type 0, BuildingBlock: NAHDIM_clean_sbu_0, # of connection points: 4
#     Node 23, Type 0, BuildingBlock: NAHDIM_clean_sbu_0, # of connection points: 4
#     Edge 24, Type (0, 0), BuildingBlock: TEMPAE_clean_linker_10, # of connection points: 2
#     Edge 25, Type (0, 0), BuildingBlock: TEMPAE_clean_linker_10, # of connection points: 2
#     Edge 26, Type (0, 0), BuildingBlock: TEMPAE_clean_linker_10, # of connection points: 2
#     Edge 27, Type (0, 0), BuildingBlock: TEMPAE_clean_linker_10, # of connection points: 2
#     Edge 28, Type (0, 0), BuildingBlock: TEMPAE_clean_linker_10, # of connection points: 2
#     Edge 29, Type (0, 0), BuildingBlock: TEMPAE_clean_linker_10, # of connection points: 2
#     Edge 30, Type (0, 0), BuildingBlock: TEMPAE_clean_linker_10, # of connection points: 2
#     Edge 31, Type (0, 0), BuildingBlock: TEMPAE_clean_linker_10, # of connection points: 2
#     Edge 32, Type (0, 0), BuildingBlock: TEMPAE_clean_linker_10, # of connection points: 2
#     Edge 33, Type (0, 0), BuildingBlock: TEMPAE_clean_linker_10, # of connection points: 2
#     Edge 34, Type (0, 0), BuildingBlock: TEMPAE_clean_linker_10, # of connection points: 2
#     Edge 35, Type (0, 0), BuildingBlock: TEMPAE_clean_linker_10, # of connection points: 2
#     Edge 36, Type (0, 0), BuildingBlock: TEMPAE_clean_linker_10, # of connection points: 2
#     Edge 37, Type (0, 0), BuildingBlock: TEMPAE_clean_linker_10, # of connection points: 2
#     Edge 38, Type (0, 0), BuildingBlock: TEMPAE_clean_linker_10, # of connection points: 2
#     Edge 39, Type (0, 0), BuildingBlock: TEMPAE_clean_linker_10, # of connection points: 2
#     Edge 40, Type (0, 0), BuildingBlock: TEMPAE_clean_linker_10, # of connection points: 2
#     Edge 41, Type (0, 0), BuildingBlock: TEMPAE_clean_linker_10, # of connection points: 2
#     Edge 42, Type (0, 0), BuildingBlock: TEMPAE_clean_linker_10, # of connection points: 2
#     Edge 43, Type (0, 0), BuildingBlock: TEMPAE_clean_linker_10, # of connection points: 2
#     Edge 44, Type (0, 0), BuildingBlock: TEMPAE_clean_linker_10, # of connection points: 2
#     Edge 45, Type (0, 0), BuildingBlock: TEMPAE_clean_linker_10, # of connection points: 2
#     Edge 46, Type (0, 0), BuildingBlock: TEMPAE_clean_linker_10, # of connection points: 2
#     Edge 47, Type (0, 0), BuildingBlock: TEMPAE_clean_linker_10, # of connection points: 2
#     Edge 48, Type (0, 0), BuildingBlock: TEMPAE_clean_linker_10, # of connection points: 2
#     Edge 49, Type (0, 0), BuildingBlock: TEMPAE_clean_linker_10, # of connection points: 2
#     Edge 50, Type (0, 0), BuildingBlock: TEMPAE_clean_linker_10, # of connection points: 2
#     Edge 51, Type (0, 0), BuildingBlock: TEMPAE_clean_linker_10, # of connection points: 2
#     Edge 52, Type (0, 0), BuildingBlock: TEMPAE_clean_linker_10, # of connection points: 2
#     Edge 53, Type (0, 0), BuildingBlock: TEMPAE_clean_linker_10, # of connection points: 2
#     Edge 54, Type (0, 0), BuildingBlock: TEMPAE_clean_linker_10, # of connection points: 2
#     Edge 55, Type (0, 0), BuildingBlock: TEMPAE_clean_linker_10, # of connection points: 2
#     Edge 56, Type (0, 0), BuildingBlock: TEMPAE_clean_linker_10, # of connection points: 2
#     Edge 57, Type (0, 0), BuildingBlock: TEMPAE_clean_linker_10, # of connection points: 2
#     Edge 58, Type (0, 0), BuildingBlock: TEMPAE_clean_linker_10, # of connection points: 2
#     Edge 59, Type (0, 0), BuildingBlock: TEMPAE_clean_linker_10, # of connection points: 2
#     Edge 60, Type (0, 0), BuildingBlock: TEMPAE_clean_linker_10, # of connection points: 2
#     Edge 61, Type (0, 0), BuildingBlock: TEMPAE_clean_linker_10, # of connection points: 2
#     Edge 62, Type (0, 0), BuildingBlock: TEMPAE_clean_linker_10, # of connection points: 2
#     Edge 63, Type (0, 0), BuildingBlock: TEMPAE_clean_linker_10, # of connection points: 2
#     Edge 64, Type (0, 0), BuildingBlock: TEMPAE_clean_linker_10, # of connection points: 2
#     Edge 65, Type (0, 0), BuildingBlock: TEMPAE_clean_linker_10, # of connection points: 2
#     Edge 66, Type (0, 0), BuildingBlock: TEMPAE_clean_linker_10, # of connection points: 2
#     Edge 67, Type (0, 0), BuildingBlock: TEMPAE_clean_linker_10, # of connection points: 2
#     Edge 68, Type (0, 0), BuildingBlock: TEMPAE_clean_linker_10, # of connection points: 2
#     Edge 69, Type (0, 0), BuildingBlock: TEMPAE_clean_linker_10, # of connection points: 2
#     Edge 70, Type (0, 0), BuildingBlock: TEMPAE_clean_linker_10, # of connection points: 2
#     Edge 71, Type (0, 0), BuildingBlock: TEMPAE_clean_linker_10, # of connection points: 2
# Relax obj value: 0.112
# Max RMSD: 0.131
# Mean RMSD: 0.131
data_MOF--net-umk--node1-NAHDIM_clean_sbu_0--edge1-TEMPAE_clean_linker_10
_symmetry_space_group_name_H-M    P1
_symmetry_Int_Tables_number       1
_symmetry_cell_setting            triclinic
loop_
_symmetry_equiv_pos_as_xyz
'x, y, z'
_cell_length_a     67.398446
_cell_length_b     67.402641
_cell_length_c     42.441814
_cell_angle_alpha  89.973995
_cell_angle_beta   90.002592
_cell_angle_gamma 119.98174
loop_
_atom_site_label
_atom_site_type_symbol
_atom_site_fract_x
_atom_site_fract_y
_atom_site_fract_z
_atom_type_partial_charge
C0 C 0.28643 0.47297 0.06972 0.0
O1 O 0.30307 0.4928 0.07972 0.0
O2 O 0.30963 0.46163 0.1478 0.0
Zn3 Zn 0.31364 0.45826 0.10145 0.0
O4 O 0.34206 0.48567 0.0846 0.0
C5 C 0.33387 0.43093 0.10928 0.0
O6 O 0.34662 0.44818 0.12805 0.0
O7 O 0.28675 0.45485 0.07691 0.0
C8 C 0.35021 0.48381 0.05849 0.0
O9 O 0.33988 0.46413 0.04351 0.0
C10 C 0.32516 0.47771 0.16411 0.0
O11 O 0.34402 0.49312 0.15016 0.0
O12 O 0.31726 0.43078 0.09495 0.0
C13 C 0.83734 0.27325 0.55847 0.0
O14 O 0.85098 0.27335 0.58067 0.0
O15 O 0.86292 0.32261 0.60946 0.0
Zn16 Zn 0.86687 0.32164 0.56263 0.0
O17 O 0.86581 0.34779 0.54137 0.0
C18 C 0.90845 0.31954 0.57265 0.0
O19 O 0.89976 0.31199 0.60074 0.0
O20 O 0.84116 0.29214 0.5466 0.0
C21 C 0.8841 0.36675 0.53671 0.0
O22 O 0.90373 0.36924 0.54639 0.0
C23 C 0.87569 0.33994 0.62632 0.0
O24 O 0.89212 0.3584 0.61282 0.0
O25 O 0.89707 0.32389 0.55272 0.0
C26 C 0.53232 0.8335 0.03572 0.0
O27 O 0.51226 0.83062 0.044 0.0
O28 O 0.53924 0.86385 0.11336 0.0
Zn29 Zn 0.54583 0.87464 0.06829 0.0
O30 O 0.51946 0.87668 0.04968 0.0
C31 C 0.58391 0.91734 0.09046 0.0
O32 O 0.57694 0.90765 0.11819 0.0
O33 O 0.5503 0.8519 0.04346 0.0
C34 C 0.516 0.89302 0.05679 0.0
O35 O 0.52975 0.9086 0.07702 0.0
C36 C 0.52006 0.85683 0.12692 0.0
O37 O 0.50297 0.85611 0.11107 0.0
O38 O 0.57375 0.90609 0.06586 0.0
C39 C 0.69138 0.50917 0.56007 0.0
O40 O 0.67461 0.48783 0.56184 0.0
O41 O 0.66668 0.51086 0.64645 0.0
Zn42 Zn 0.66207 0.51654 0.60143 0.0
O43 O 0.63464 0.48919 0.58263 0.0
C44 C 0.66924 0.56242 0.58962 0.0
O45 O 0.68885 0.56675 0.57717 0.0
O46 O 0.68996 0.52449 0.57562 0.0
C47 C 0.62587 0.49254 0.55813 0.0
O48 O 0.63509 0.51334 0.54644 0.0
C49 C 0.64963 0.50378 0.66489 0.0
O50 O 0.62971 0.49914 0.6532 0.0
O51 O 0.65591 0.54271 0.60106 0.0
C52 C 0.15156 0.71402 0.02781 0.0
O53 O 0.14503 0.69509 0.01176 0.0
O54 O 0.12497 0.68429 0.12093 0.0
Zn55 Zn 0.12032 0.68271 0.0741 0.0
O56 O 0.1248 0.65726 0.05693 0.0
C57 C 0.0758 0.67982 0.08239 0.0
O58 O 0.08465 0.69158 0.10835 0.0
O59 O 0.14299 0.71288 0.05486 0.0
C60 C 0.11139 0.64381 0.03588 0.0
O61 O 0.09498 0.64704 0.02497 0.0
C62 C 0.11221 0.66689 0.13771 0.0
O63 O 0.09629 0.64825 0.12389 0.0
O64 O 0.08812 0.67519 0.06465 0.0
C65 C 0.44199 0.15402 0.54098 0.0
O66 O 0.43697 0.14997 0.57105 0.0
O67 O 0.45705 0.1228 0.59317 0.0
Zn68 Zn 0.45227 0.11739 0.54663 0.0
O69 O 0.47976 0.11765 0.52815 0.0
C70 C 0.40857 0.07796 0.5595 0.0
O71 O 0.40892 0.09072 0.58314 0.0
O72 O 0.44832 0.14185 0.52592 0.0
C73 C 0.48589 0.10395 0.5389 0.0
O74 O 0.47406 0.09002 0.56197 0.0
C75 C 0.47552 0.13839 0.60529 0.0
O76 O 0.4925 0.15215 0.58677 0.0
O77 O 0.42496 0.08627 0.5398 0.0
C78 C 0.53228 0.7011 0.92651 0.0
O79 O 0.53586 0.70108 0.89609 0.0
O80 O 0.51414 0.65505 0.87471 0.0
Zn81 Zn 0.51853 0.65329 0.92113 0.0
O82 O 0.49003 0.62729 0.94013 0.0
C83 C 0.56558 0.66291 0.92857 0.0
O84 O 0.571 0.68451 0.92727 0.0
O85 O 0.52519 0.68267 0.94209 0.0
C86 C 0.49154 0.61703 0.96436 0.0
O87 O 0.51181 0.62371 0.97662 0.0
C88 C 0.51033 0.63822 0.85725 0.0
O89 O 0.50836 0.61964 0.87032 0.0
O90 O 0.54467 0.64735 0.92685 0.0
C91 C 0.82903 0.54034 0.43117 0.0
O92 O 0.83005 0.54345 0.40052 0.0
O93 O 0.86093 0.52802 0.37527 0.0
Zn94 Zn 0.8675 0.53283 0.42159 0.0
O95 O 0.86852 0.50608 0.44048 0.0
C96 C 0.90347 0.57983 0.43775 0.0
O97 O 0.88703 0.58317 0.44825 0.0
O98 O 0.8435 0.5363 0.44451 0.0
C99 C 0.87923 0.49717 0.42762 0.0
O100 O 0.88978 0.50542 0.40068 0.0
C101 C 0.8486 0.50867 0.36225 0.0
O102 O 0.83839 0.49016 0.37979 0.0
O103 O 0.89856 0.56044 0.4265 0.0
C104 C 0.28886 0.8603 0.95528 0.0
O105 O 0.28869 0.871 0.9295 0.0
O106 O 0.33756 0.88747 0.90469 0.0
Zn107 Zn 0.33744 0.89135 0.95156 0.0
O108 O 0.36345 0.88908 0.97079 0.0
C109 C 0.33438 0.93209 0.94247 0.0
O110 O 0.32103 0.92017 0.91899 0.0
O111 O 0.30776 0.86655 0.96923 0.0
C112 C 0.38356 0.90122 0.95982 0.0
O113 O 0.38682 0.91489 0.93588 0.0
C114 C 0.34176 0.87292 0.89191 0.0
O115 O 0.34613 0.85967 0.90985 0.0
O116 O 0.34249 0.92279 0.96045 0.0
C117 C 0.46929 0.29899 0.4354 0.0
O118 O 0.4907 0.31547 0.4328 0.0
O119 O 0.46799 0.33042 0.35721 0.0
Zn120 Zn 0.46182 0.33178 0.40312 0.0
O121 O 0.48977 0.35711 0.42403 0.0
C122 C 0.41742 0.32596 0.42151 0.0
O123 O 0.41383 0.3067 0.43433 0.0
O124 O 0.45355 0.30193 0.42394 0.0
C125 C 0.48779 0.36419 0.45093 0.0
O126 O 0.46747 0.35487 0.4642 0.0
C127 C 0.47511 0.34848 0.34079 0.0
O128 O 0.47869 0.36742 0.35466 0.0
O129 O 0.43619 0.33865 0.40726 0.0
C130 C 0.16889 0.47392 0.92442 0.0
O131 O 0.17085 0.47337 0.89368 0.0
O132 O 0.14134 0.48789 0.86413 0.0
Zn133 Zn 0.13215 0.48312 0.90972 0.0
O134 O 0.13219 0.51093 0.9266 0.0
C135 C 0.0957 0.43602 0.91926 0.0
O136 O 0.11254 0.43205 0.92509 0.0
O137 O 0.15363 0.47759 0.93593 0.0
C138 C 0.12343 0.5099 0.95347 0.0
O139 O 0.11465 0.49065 0.96947 0.0
C140 C 0.13361 0.49768 0.84645 0.0
O141 O 0.12056 0.505 0.85883 0.0
O142 O 0.10025 0.45626 0.91261 0.0
C143 C 0.69497 0.13342 0.4834 0.0
O144 O 0.67584 0.12445 0.49969 0.0
O145 O 0.66718 0.11392 0.38785 0.0
Zn146 Zn 0.66488 0.10591 0.43371 0.0
O147 O 0.63897 0.10835 0.45317 0.0
C148 C 0.64901 0.0597 0.4154 0.0
O149 O 0.64414 0.06713 0.38956 0.0
O150 O 0.69439 0.12766 0.45478 0.0
C151 C 0.61898 0.09732 0.44145 0.0
O152 O 0.6156 0.08457 0.41641 0.0
C153 C 0.66514 0.13036 0.37694 0.0
O154 O 0.662 0.14366 0.39646 0.0
O155 O 0.65852 0.07351 0.43816 0.0
C156 C 0.70126 0.54748 0.98791 0.0
O157 O 0.68188 0.52799 0.99004 0.0
O158 O 0.67366 0.55179 0.90621 0.0
Zn159 Zn 0.67289 0.55919 0.95182 0.0
O160 O 0.64508 0.53262 0.97104 0.0
C161 C 0.67112 0.5993 0.93201 0.0
O162 O 0.67861 0.5957 0.90526 0.0
O163 O 0.70166 0.56402 0.97299 0.0
C164 C 0.62572 0.52638 0.95852 0.0
O165 O 0.62466 0.53768 0.93393 0.0
C166 C 0.67056 0.5324 0.89754 0.0
O167 O 0.66745 0.51706 0.91901 0.0
O168 O 0.66874 0.58663 0.95556 0.0
C169 C 0.15778 0.70997 0.45618 0.0
O170 O 0.16132 0.69545 0.43992 0.0
O171 O 0.11495 0.68029 0.39064 0.0
Zn172 Zn 0.11252 0.67837 0.43798 0.0
O173 O 0.11469 0.65137 0.45347 0.0
C174 C 0.07185 0.68227 0.43527 0.0
O175 O 0.08265 0.69614 0.41167 0.0
O176 O 0.13754 0.70662 0.45828 0.0
C177 C 0.10047 0.6312 0.44439 0.0
O178 O 0.08441 0.62819 0.42419 0.0
C179 C 0.12515 0.6721 0.3747 0.0
O180 O 0.13535 0.66251 0.38945 0.0
O181 O 0.08175 0.67345 0.45051 0.0
C182 C 0.45264 0.17278 0.91093 0.0
O183 O 0.44631 0.16682 0.88156 0.0
O184 O 0.47485 0.14831 0.85832 0.0
Zn185 Zn 0.46964 0.14143 0.90453 0.0
O186 O 0.49802 0.14387 0.92372 0.0
C187 C 0.42618 0.10244 0.92639 0.0
O188 O 0.42336 0.11763 0.94214 0.0
O189 O 0.46258 0.16376 0.92564 0.0
C190 C 0.49648 0.13292 0.94884 0.0
O191 O 0.47633 0.12066 0.9622 0.0
C192 C 0.48315 0.13842 0.84195 0.0
O193 O 0.48863 0.12443 0.85596 0.0
O194 O 0.44395 0.10905 0.90947 0.0
C195 C 0.29452 0.45363 0.49213 0.0
O196 O 0.31324 0.47356 0.4957 0.0
O197 O 0.32486 0.44909 0.41161 0.0
Zn198 Zn 0.32528 0.44374 0.45804 0.0
O199 O 0.3522 0.47133 0.47704 0.0
C200 C 0.32205 0.40028 0.4452 0.0
O201 O 0.30827 0.3994 0.42265 0.0
O202 O 0.29558 0.43783 0.47726 0.0
C203 C 0.37192 0.47707 0.46621 0.0
O204 O 0.37366 0.46494 0.44326 0.0
C205 C 0.31912 0.46294 0.40026 0.0
O206 O 0.31307 0.47428 0.41946 0.0
O207 O 0.33035 0.41714 0.4641 0.0
C208 C 0.84422 0.27623 0.92767 0.0
O209 O 0.84351 0.27835 0.89699 0.0
O210 O 0.881 0.32146 0.87645 0.0
Zn211 Zn 0.88458 0.32142 0.92352 0.0
O212 O 0.88149 0.34709 0.94216 0.0
C213 C 0.92807 0.32387 0.91353 0.0
O214 O 0.91831 0.31315 0.88724 0.0
O215 O 0.86061 0.29201 0.94325 0.0
C216 C 0.89321 0.36729 0.93135 0.0
O217 O 0.90709 0.37107 0.90749 0.0
C218 C 0.86785 0.32732 0.86306 0.0
O219 O 0.85521 0.33286 0.88043 0.0
O220 O 0.91642 0.32798 0.93329 0.0
C221 C 0.54833 0.81903 0.42441 0.0
O222 O 0.55941 0.83084 0.39939 0.0
O223 O 0.52591 0.84936 0.37813 0.0
Zn224 Zn 0.52898 0.84902 0.42509 0.0
O225 O 0.50055 0.84493 0.44612 0.0
C226 C 0.57393 0.88998 0.42533 0.0
O227 O 0.57883 0.87919 0.40366 0.0
O228 O 0.53483 0.82398 0.43875 0.0
C229 C 0.49107 0.85586 0.43577 0.0
O230 O 0.49936 0.8685 0.41034 0.0
C231 C 0.51445 0.83161 0.36135 0.0
O232 O 0.50373 0.81141 0.37497 0.0
O233 O 0.5543 0.87992 0.43821 0.0
C234 C 0.46011 0.31122 0.01145 0.0
O235 O 0.48074 0.32898 0.01497 0.0
O236 O 0.453 0.33769 0.09137 0.0
Zn237 Zn 0.44889 0.34066 0.04516 0.0
O238 O 0.4771 0.36809 0.02833 0.0
C239 C 0.40514 0.33621 0.05811 0.0
O240 O 0.40334 0.31994 0.07701 0.0
O241 O 0.44305 0.31211 0.02251 0.0
C242 C 0.48322 0.38772 0.03981 0.0
O243 O 0.47083 0.38952 0.06233 0.0
C244 C 0.47199 0.3426 0.10404 0.0
O245 O 0.49017 0.34931 0.08619 0.0
O246 O 0.42272 0.34654 0.04064 0.0
C247 C 0.14659 0.44514 0.55428 0.0
O248 O 0.13738 0.43815 0.58228 0.0
O249 O 0.11914 0.46779 0.59887 0.0
Zn250 Zn 0.11496 0.46166 0.55247 0.0
O251 O 0.11709 0.48912 0.53079 0.0
C252 C 0.07678 0.41422 0.54388 0.0
O253 O 0.09216 0.40769 0.5436 0.0
O254 O 0.13917 0.45519 0.53651 0.0
C255 C 0.10377 0.49604 0.54058 0.0
O256 O 0.08984 0.48515 0.5641 0.0
C257 C 0.13639 0.48511 0.61074 0.0
O258 O 0.15251 0.49998 0.59203 0.0
O259 O 0.08317 0.43536 0.54635 0.0
C260 C 0.70202 0.16925 0.04776 0.0
O261 O 0.68932 0.17791 0.05704 0.0
O262 O 0.67102 0.13995 0.12401 0.0
Zn263 Zn 0.66643 0.13067 0.07857 0.0
O264 O 0.6421 0.13603 0.05999 0.0
C265 C 0.6685 0.08856 0.07835 0.0
O266 O 0.69072 0.1023 0.08102 0.0
O267 O 0.69569 0.14858 0.05449 0.0
C268 C 0.63204 0.12553 0.03492 0.0
O269 O 0.6382 0.11186 0.02156 0.0
C270 C 0.65331 0.13196 0.14134 0.0
O271 O 0.63312 0.11883 0.12851 0.0
O272 O 0.65543 0.09706 0.07657 0.0
C273 C 0.55531 0.68479 0.51301 0.0
O274 O 0.54721 0.66533 0.49769 0.0
O275 O 0.54686 0.65815 0.61056 0.0
Zn276 Zn 0.55154 0.656 0.56426 0.0
O277 O 0.5227 0.63014 0.54607 0.0
C278 C 0.59426 0.65761 0.57621 0.0
O279 O 0.59638 0.67255 0.59773 0.0
O280 O 0.55904 0.68521 0.5424 0.0
C281 C 0.5148 0.61009 0.55719 0.0
O282 O 0.52576 0.60681 0.58039 0.0
C283 C 0.52762 0.65387 0.62166 0.0
O284 O 0.51056 0.64883 0.60224 0.0
O285 O 0.57673 0.64884 0.55849 0.0
C286 C 0.84088 0.544 0.06245 0.0
O287 O 0.84946 0.55064 0.09082 0.0
O288 O 0.85965 0.51393 0.10892 0.0
Zn289 Zn 0.86994 0.52479 0.06465 0.0
O290 O 0.87061 0.49981 0.03948 0.0
C291 C 0.90791 0.5722 0.05609 0.0
O292 O 0.89297 0.57625 0.04191 0.0
O293 O 0.84761 0.53282 0.04579 0.0
C294 C 0.8882 0.4975 0.04059 0.0
O295 O 0.90574 0.51169 0.05794 0.0
C296 C 0.87353 0.51386 0.12911 0.0
O297 O 0.89455 0.52016 0.12037 0.0
O298 O 0.90159 0.55226 0.06659 0.0
C299 C 0.29098 0.82741 0.58237 0.0
O300 O 0.29736 0.82042 0.60729 0.0
O301 O 0.33367 0.862 0.63802 0.0
Zn302 Zn 0.33465 0.86785 0.59143 0.0
O303 O 0.35752 0.86153 0.56995 0.0
C304 C 0.33011 0.90774 0.57664 0.0
O305 O 0.30842 0.89279 0.57168 0.0
O306 O 0.30408 0.84742 0.57177 0.0
C307 C 0.37825 0.87709 0.56606 0.0
O308 O 0.38517 0.89771 0.57722 0.0
C309 C 0.35054 0.87565 0.65502 0.0
O310 O 0.36837 0.89287 0.64152 0.0
O311 O 0.34373 0.90077 0.58482 0.0
C312 C 0.30292 0.46111 0.21378 0.0
C313 C 0.32293 0.47777 0.19881 0.0
C314 C 0.30139 0.45968 0.24675 0.0
C315 C 0.32034 0.47521 0.26516 0.0
C316 C 0.34026 0.4926 0.25024 0.0
C317 C 0.3413 0.4937 0.21723 0.0
C318 C 0.27981 0.44099 0.26184 0.0
C319 C 0.36082 0.50947 0.26911 0.0
C320 C 0.3119 0.48047 0.35269 0.0
C321 C 0.31937 0.46621 0.36575 0.0
C322 C 0.31207 0.48358 0.31994 0.0
C323 C 0.31998 0.47222 0.29988 0.0
C324 C 0.32759 0.45786 0.31294 0.0
C325 C 0.32715 0.455 0.34568 0.0
C326 C 0.30376 0.49896 0.30679 0.0
C327 C 0.33622 0.4455 0.29231 0.0
H328 H 0.2886 0.44882 0.19974 0.0
H329 H 0.3568 0.50667 0.20587 0.0
H330 H 0.28358 0.42866 0.27398 0.0
H331 H 0.27345 0.44834 0.27993 0.0
H332 H 0.26598 0.43147 0.24435 0.0
H333 H 0.3743 0.52297 0.25407 0.0
H334 H 0.35562 0.51781 0.28727 0.0
H335 H 0.3683 0.50028 0.28162 0.0
H336 H 0.30583 0.48917 0.36803 0.0
H337 H 0.333 0.44397 0.35555 0.0
H338 H 0.28922 0.48913 0.29048 0.0
H339 H 0.3176 0.51306 0.29297 0.0
H340 H 0.29813 0.50654 0.32557 0.0
H341 H 0.32261 0.43407 0.27562 0.0
H342 H 0.34164 0.43505 0.30621 0.0
H343 H 0.35099 0.45807 0.27807 0.0
C344 C 0.85595 0.31858 0.67535 0.0
C345 C 0.87294 0.33871 0.66099 0.0
C346 C 0.85395 0.31667 0.70824 0.0
C347 C 0.86929 0.33532 0.72723 0.0
C348 C 0.88611 0.35588 0.71292 0.0
C349 C 0.88774 0.35734 0.67995 0.0
C350 C 0.83578 0.29447 0.72267 0.0
C351 C 0.90275 0.37615 0.73245 0.0
C352 C 0.85439 0.33675 0.81323 0.0
C353 C 0.8676 0.32877 0.82828 0.0
C354 C 0.85469 0.33892 0.7803 0.0
C355 C 0.86849 0.33292 0.76207 0.0
C356 C 0.88168 0.32465 0.77711 0.0
C357 C 0.88108 0.32268 0.81001 0.0
C358 C 0.84041 0.3478 0.76503 0.0
C359 C 0.89656 0.31801 0.75844 0.0
H360 H 0.8444 0.30412 0.66089 0.0
H361 H 0.90087 0.37297 0.66906 0.0
H362 H 0.84402 0.28652 0.73639 0.0
H363 H 0.82507 0.29778 0.73929 0.0
H364 H 0.82445 0.28201 0.70463 0.0
H365 H 0.91404 0.39128 0.71771 0.0
H366 H 0.89331 0.38103 0.74925 0.0
H367 H 0.91365 0.37147 0.74657 0.0
H368 H 0.84395 0.34152 0.82717 0.0
H369 H 0.89133 0.31648 0.82143 0.0
H370 H 0.82836 0.33509 0.74784 0.0
H371 H 0.85164 0.36373 0.75177 0.0
H372 H 0.8304 0.35147 0.78252 0.0
H373 H 0.88596 0.30443 0.74119 0.0
H374 H 0.90561 0.31168 0.77371 0.0
H375 H 0.90951 0.33297 0.74486 0.0
C376 C 0.50298 0.81446 0.3074 0.0
C377 C 0.51363 0.83389 0.32676 0.0
C378 C 0.50271 0.81661 0.27449 0.0
C379 C 0.51326 0.8387 0.26074 0.0
C380 C 0.52374 0.85835 0.2802 0.0
C381 C 0.52384 0.85572 0.31293 0.0
C382 C 0.49146 0.79527 0.25442 0.0
C383 C 0.53508 0.88221 0.26642 0.0
C384 C 0.53454 0.84833 0.17637 0.0
C385 C 0.51745 0.85061 0.16071 0.0
C386 C 0.53297 0.84366 0.20875 0.0
C387 C 0.51398 0.84144 0.22595 0.0
C388 C 0.49641 0.84319 0.21018 0.0
C389 C 0.49831 0.84765 0.17767 0.0
C390 C 0.55195 0.8417 0.22471 0.0
C391 C 0.47599 0.8411 0.22781 0.0
H392 H 0.49506 0.79754 0.3179 0.0
H393 H 0.53203 0.87084 0.3277 0.0
H394 H 0.47806 0.79536 0.23935 0.0
H395 H 0.50434 0.79493 0.23848 0.0
H396 H 0.48352 0.77937 0.2688 0.0
H397 H 0.54185 0.8957 0.28487 0.0
H398 H 0.54945 0.8849 0.25088 0.0
H399 H 0.52268 0.88435 0.25169 0.0
H400 H 0.54931 0.85042 0.16337 0.0
H401 H 0.48505 0.84941 0.16574 0.0
H402 H 0.54475 0.82541 0.23811 0.0
H403 H 0.56088 0.85588 0.24186 0.0
H404 H 0.56477 0.84236 0.20765 0.0
H405 H 0.46749 0.82486 0.24137 0.0
H406 H 0.46319 0.8416 0.21181 0.0
H407 H 0.48176 0.85533 0.245 0.0
C408 C 0.6712 0.54291 0.84098 0.0
C409 C 0.6691 0.5268 0.8636 0.0
C410 C 0.66861 0.53754 0.80882 0.0
C411 C 0.66385 0.51553 0.79898 0.0
C412 C 0.66222 0.49934 0.82158 0.0
C413 C 0.66484 0.50516 0.85368 0.0
C414 C 0.67048 0.5553 0.7854 0.0
C415 C 0.65726 0.47574 0.81189 0.0
C416 C 0.63424 0.4977 0.71975 0.0
C417 C 0.65279 0.50375 0.6994 0.0
C418 C 0.63744 0.50042 0.75244 0.0
C419 C 0.65974 0.50938 0.76506 0.0
C420 C 0.67834 0.51434 0.74482 0.0
C421 C 0.67465 0.51146 0.71219 0.0
C422 C 0.61715 0.49483 0.7733 0.0
C423 C 0.70234 0.52378 0.75746 0.0
H424 H 0.67453 0.55969 0.84841 0.0
H425 H 0.66325 0.49263 0.87101 0.0
H426 H 0.68372 0.55845 0.76748 0.0
H427 H 0.65397 0.54889 0.7728 0.0
H428 H 0.67495 0.57184 0.79684 0.0
H429 H 0.65778 0.46559 0.83218 0.0
H430 H 0.64006 0.4663 0.80088 0.0
H431 H 0.66986 0.47705 0.79399 0.0
H432 H 0.61726 0.49158 0.7101 0.0
H433 H 0.68907 0.51605 0.69665 0.0
H434 H 0.61916 0.51085 0.78366 0.0
H435 H 0.61626 0.48367 0.79312 0.0
H436 H 0.60069 0.48612 0.76019 0.0
H437 H 0.70872 0.5414 0.76645 0.0
H438 H 0.71441 0.52438 0.73914 0.0
H439 H 0.70243 0.51325 0.77749 0.0
C440 C 0.13613 0.66375 0.32209 0.0
C441 C 0.12449 0.67231 0.33984 0.0
C442 C 0.13491 0.66307 0.28906 0.0
C443 C 0.12167 0.67105 0.27346 0.0
C444 C 0.11008 0.67993 0.29121 0.0
C445 C 0.11167 0.6805 0.32418 0.0
C446 C 0.14758 0.65358 0.27088 0.0
C447 C 0.09575 0.68855 0.27538 0.0
C448 C 0.13267 0.68728 0.18695 0.0
C449 C 0.11493 0.66778 0.17238 0.0
C450 C 0.13522 0.68849 0.21982 0.0
C451 C 0.1196 0.66979 0.23856 0.0
C452 C 0.10175 0.65 0.22402 0.0
C453 C 0.09966 0.64922 0.19109 0.0
C454 C 0.15452 0.70983 0.23451 0.0
C455 C 0.08473 0.62975 0.24327 0.0
H456 H 0.1461 0.65743 0.33399 0.0
H457 H 0.10259 0.68711 0.3377 0.0
H458 H 0.13524 0.63831 0.25724 0.0
H459 H 0.15944 0.66647 0.25371 0.0
H460 H 0.15759 0.6486 0.28651 0.0
H461 H 0.0881 0.69525 0.29256 0.0
H462 H 0.10638 0.70238 0.25845 0.0
H463 H 0.08172 0.67449 0.26176 0.0
H464 H 0.14459 0.70168 0.17267 0.0
H465 H 0.08589 0.6341 0.18004 0.0
H466 H 0.16538 0.70533 0.24909 0.0
H467 H 0.14745 0.71784 0.2504 0.0
H468 H 0.16551 0.72265 0.21659 0.0
H469 H 0.09383 0.62319 0.25796 0.0
H470 H 0.07202 0.61554 0.22831 0.0
H471 H 0.0754 0.63513 0.25953 0.0
C472 C 0.49278 0.12921 0.78906 0.0
C473 C 0.485 0.14129 0.80731 0.0
C474 C 0.49288 0.13031 0.75605 0.0
C475 C 0.48502 0.14383 0.74097 0.0
C476 C 0.47796 0.15675 0.75925 0.0
C477 C 0.47802 0.15532 0.79222 0.0
C478 C 0.50058 0.11631 0.73732 0.0
C479 C 0.46954 0.17143 0.74398 0.0
C480 C 0.49833 0.1572 0.65393 0.0
C481 C 0.47792 0.14042 0.63998 0.0
C482 C 0.50087 0.15872 0.68685 0.0
C483 C 0.48256 0.14306 0.70614 0.0
C484 C 0.46186 0.12627 0.69219 0.0
C485 C 0.45978 0.12516 0.65931 0.0
C486 C 0.52317 0.17689 0.70097 0.0
C487 C 0.44194 0.10926 0.71199 0.0
H488 H 0.49831 0.11842 0.80051 0.0
H489 H 0.47208 0.16482 0.80615 0.0
H490 H 0.48585 0.10278 0.72402 0.0
H491 H 0.51377 0.12728 0.71983 0.0
H492 H 0.50773 0.108 0.75256 0.0
H493 H 0.4664 0.18182 0.76146 0.0
H494 H 0.48217 0.18312 0.72642 0.0
H495 H 0.45332 0.16035 0.73119 0.0
H496 H 0.51242 0.16907 0.63916 0.0
H497 H 0.44393 0.11215 0.64876 0.0
H498 H 0.53117 0.16871 0.71468 0.0
H499 H 0.51994 0.18768 0.71757 0.0
H500 H 0.53551 0.18814 0.68274 0.0
H501 H 0.4472 0.09888 0.72629 0.0
H502 H 0.42689 0.09748 0.69746 0.0
H503 H 0.43663 0.11844 0.72861 0.0
C504 C 0.54248 0.65857 0.6767 0.0
C505 C 0.52411 0.653 0.65617 0.0
C506 C 0.53923 0.65655 0.70941 0.0
C507 C 0.51708 0.64874 0.72193 0.0
C508 C 0.49854 0.64353 0.70142 0.0
C509 C 0.50229 0.64575 0.66875 0.0
C510 C 0.55945 0.66237 0.73056 0.0
C511 C 0.47469 0.63517 0.71396 0.0
C512 C 0.50669 0.62197 0.80322 0.0
C513 C 0.51009 0.64028 0.82255 0.0
C514 C 0.50822 0.62429 0.77033 0.0
C515 C 0.51331 0.64542 0.75647 0.0
C516 C 0.51604 0.66373 0.77577 0.0
C517 C 0.51437 0.66093 0.8086 0.0
C518 C 0.50511 0.60434 0.75047 0.0
C519 C 0.52145 0.68651 0.76182 0.0
H520 H 0.55941 0.66425 0.6672 0.0
H521 H 0.48801 0.64142 0.65305 0.0
H522 H 0.56153 0.67549 0.74807 0.0
H523 H 0.5564 0.64692 0.74388 0.0
H524 H 0.57569 0.66892 0.71715 0.0
H525 H 0.46233 0.63274 0.69498 0.0
H526 H 0.4685 0.61861 0.72637 0.0
H527 H 0.47487 0.64752 0.73139 0.0
H528 H 0.50328 0.60593 0.81379 0.0
H529 H 0.51697 0.67516 0.82336 0.0
H530 H 0.52139 0.6089 0.73823 0.0
H531 H 0.49197 0.6004 0.73206 0.0
H532 H 0.49989 0.58866 0.76473 0.0
H533 H 0.5385 0.69458 0.75028 0.0
H534 H 0.52159 0.6985 0.77988 0.0
H535 H 0.50872 0.68402 0.74342 0.0
C536 C 0.85722 0.52704 0.30921 0.0
C537 C 0.84796 0.50704 0.32748 0.0
C538 C 0.85907 0.52621 0.27644 0.0
C539 C 0.85155 0.50484 0.26154 0.0
C540 C 0.84133 0.48446 0.27963 0.0
C541 C 0.8396 0.4858 0.31246 0.0
C542 C 0.8699 0.54831 0.25792 0.0
C543 C 0.83308 0.46138 0.2645 0.0
C544 C 0.84535 0.50521 0.17275 0.0
C545 C 0.86678 0.50894 0.16262 0.0
C546 C 0.8397 0.50284 0.20488 0.0
C547 C 0.85586 0.5042 0.22734 0.0
C548 C 0.87708 0.50692 0.21716 0.0
C549 C 0.88229 0.50927 0.18492 0.0
C550 C 0.81688 0.4999 0.21487 0.0
C551 C 0.89472 0.50836 0.24041 0.0
H552 H 0.86353 0.54351 0.32061 0.0
H553 H 0.83242 0.47027 0.32643 0.0
H554 H 0.88624 0.55132 0.24736 0.0
H555 H 0.85852 0.54719 0.23828 0.0
H556 H 0.87352 0.56331 0.27279 0.0
H557 H 0.82368 0.44706 0.28136 0.0
H558 H 0.82169 0.45905 0.24426 0.0
H559 H 0.84795 0.46041 0.25517 0.0
H560 H 0.83322 0.50484 0.15566 0.0
H561 H 0.89881 0.51198 0.17728 0.0
H562 H 0.81963 0.51555 0.22732 0.0
H563 H 0.80819 0.48539 0.23159 0.0
H564 H 0.80535 0.49683 0.19449 0.0
H565 H 0.90108 0.52413 0.25478 0.0
H566 H 0.90958 0.50868 0.22859 0.0
H567 H 0.8869 0.49357 0.25682 0.0
C568 C 0.32966 0.85608 0.7045 0.0
C569 C 0.34955 0.87309 0.68971 0.0
C570 C 0.32802 0.8545 0.73747 0.0
C571 C 0.34675 0.87026 0.75604 0.0
C572 C 0.36712 0.88702 0.74126 0.0
C573 C 0.36826 0.88824 0.70827 0.0
C574 C 0.30603 0.83642 0.75243 0.0
C575 C 0.38748 0.90407 0.76029 0.0
C576 C 0.33563 0.88426 0.83835 0.0
C577 C 0.34231 0.87149 0.85716 0.0
C578 C 0.33665 0.88369 0.80541 0.0
C579 C 0.34465 0.87011 0.79089 0.0
C580 C 0.35117 0.85696 0.80968 0.0
C581 C 0.34986 0.85775 0.84264 0.0
C582 C 0.32943 0.89787 0.78614 0.0
C583 C 0.35987 0.84235 0.79498 0.0
H584 H 0.31514 0.84426 0.69033 0.0
H585 H 0.38374 0.90136 0.69705 0.0
H586 H 0.30962 0.82617 0.76955 0.0
H587 H 0.29797 0.84474 0.76569 0.0
H588 H 0.29356 0.82464 0.73473 0.0
H589 H 0.40249 0.91516 0.74523 0.0
H590 H 0.38281 0.91515 0.77399 0.0
H591 H 0.39257 0.89499 0.77744 0.0
H592 H 0.32966 0.89484 0.84937 0.0
H593 H 0.35507 0.84785 0.85702 0.0
H594 H 0.3158 0.88677 0.76926 0.0
H595 H 0.34416 0.91075 0.77214 0.0
H596 H 0.32296 0.90697 0.80104 0.0
H597 H 0.34705 0.83004 0.77812 0.0
H598 H 0.36361 0.83262 0.81285 0.0
H599 H 0.37574 0.85333 0.78144 0.0
C600 C 0.48334 0.36719 0.28783 0.0
C601 C 0.47769 0.34779 0.30624 0.0
C602 C 0.48403 0.36629 0.25486 0.0
C603 C 0.47902 0.34551 0.23996 0.0
C604 C 0.47418 0.32612 0.25843 0.0
C605 C 0.47353 0.32747 0.29137 0.0
C606 C 0.48926 0.38734 0.23594 0.0
C607 C 0.46888 0.3037 0.24336 0.0
C608 C 0.45442 0.33639 0.15752 0.0
C609 C 0.47371 0.34216 0.13878 0.0
C610 C 0.4559 0.33709 0.19046 0.0
C611 C 0.47717 0.34365 0.20508 0.0
C612 C 0.49661 0.34903 0.18639 0.0
C613 C 0.49467 0.34825 0.1534 0.0
C614 C 0.43477 0.33126 0.2096 0.0
C615 C 0.51953 0.35598 0.20122 0.0
H616 H 0.48667 0.38298 0.29912 0.0
H617 H 0.46928 0.31243 0.30543 0.0
H618 H 0.50329 0.3914 0.21896 0.0
H619 H 0.47394 0.38402 0.22206 0.0
H620 H 0.49427 0.40255 0.2511 0.0
H621 H 0.46734 0.29083 0.26101 0.0
H622 H 0.45253 0.29656 0.23013 0.0
H623 H 0.48245 0.30647 0.2262 0.0
H624 H 0.43815 0.33164 0.14646 0.0
H625 H 0.50964 0.3527 0.13909 0.0
H626 H 0.43771 0.34633 0.22375 0.0
H627 H 0.43114 0.3172 0.22635 0.0
H628 H 0.41941 0.32593 0.19461 0.0
H629 H 0.52562 0.37212 0.21464 0.0
H630 H 0.53272 0.35859 0.18344 0.0
H631 H 0.51784 0.34271 0.21822 0.0
C632 C 0.15654 0.50774 0.65895 0.0
C633 C 0.13803 0.48837 0.64532 0.0
C634 C 0.15794 0.511 0.69174 0.0
C635 C 0.14042 0.49449 0.71125 0.0
C636 C 0.12181 0.47484 0.69763 0.0
C637 C 0.12084 0.47203 0.66487 0.0
C638 C 0.17803 0.53215 0.70551 0.0
C639 C 0.10279 0.45682 0.71766 0.0
C640 C 0.1494 0.48904 0.79832 0.0
C641 C 0.13752 0.49901 0.81201 0.0
C642 C 0.15132 0.48828 0.76547 0.0
C643 C 0.14114 0.49775 0.74592 0.0
C644 C 0.13 0.50871 0.75962 0.0
C645 C 0.12831 0.5092 0.79251 0.0
C646 C 0.16337 0.47648 0.7517 0.0
C647 C 0.11901 0.51908 0.73952 0.0
H648 H 0.1699 0.52044 0.64401 0.0
H649 H 0.10649 0.45698 0.65458 0.0
H650 H 0.17186 0.5424 0.71829 0.0
H651 H 0.18709 0.52721 0.72288 0.0
H652 H 0.19045 0.54314 0.68718 0.0
H653 H 0.0897 0.44237 0.7034 0.0
H654 H 0.10997 0.44988 0.73518 0.0
H655 H 0.0942 0.46458 0.73096 0.0
H656 H 0.15667 0.48122 0.81322 0.0
H657 H 0.11924 0.51708 0.80289 0.0
H658 H 0.17625 0.48767 0.73402 0.0
H659 H 0.15075 0.46064 0.73935 0.0
H660 H 0.17209 0.4718 0.77002 0.0
H661 H 0.13139 0.5309 0.72182 0.0
H662 H 0.1127 0.52862 0.75376 0.0
H663 H 0.10433 0.50532 0.72642 0.0
C664 C 0.66674 0.118 0.32205 0.0
C665 C 0.665 0.13345 0.34243 0.0
C666 C 0.66547 0.1198 0.28933 0.0
C667 C 0.66249 0.13754 0.27659 0.0
C668 C 0.66122 0.15351 0.29692 0.0
C669 C 0.66244 0.15125 0.32967 0.0
C670 C 0.66686 0.10239 0.26842 0.0
C671 C 0.65816 0.17271 0.2841 0.0
C672 C 0.67707 0.14891 0.18978 0.0
C673 C 0.65548 0.13561 0.17584 0.0
C674 C 0.67952 0.15063 0.22266 0.0
C675 C 0.65992 0.13868 0.24199 0.0
C676 C 0.63798 0.12607 0.22806 0.0
C677 C 0.63602 0.12472 0.19514 0.0
C678 C 0.70318 0.16439 0.2367 0.0
C679 C 0.61667 0.11308 0.24791 0.0
H680 H 0.66874 0.1042 0.33165 0.0
H681 H 0.66114 0.16328 0.34526 0.0
H682 H 0.65072 0.09272 0.25484 0.0
H683 H 0.68098 0.11117 0.25114 0.0
H684 H 0.66976 0.08999 0.28204 0.0
H685 H 0.65865 0.18438 0.30295 0.0
H686 H 0.67177 0.18286 0.26664 0.0
H687 H 0.6415 0.1655 0.27165 0.0
H688 H 0.69218 0.15752 0.17503 0.0
H689 H 0.61925 0.11451 0.18458 0.0
H690 H 0.70804 0.15267 0.24829 0.0
H691 H 0.70339 0.17621 0.25504 0.0
H692 H 0.71631 0.17455 0.21863 0.0
H693 H 0.61724 0.09894 0.26048 0.0
H694 H 0.60077 0.10567 0.23355 0.0
H695 H 0.61583 0.12449 0.26603 0.0
C696 C 0.18168 0.47051 0.97836 0.0
C697 C 0.18491 0.47142 0.94562 0.0
C698 C 0.19739 0.46947 -0.00105 0.0
C699 C 0.21684 0.46945 0.9865 0.0
C700 C 0.21993 0.46978 0.95347 0.0
C701 C 0.20387 0.4707 0.93339 0.0
C702 C 0.19346 0.46898 0.03405 0.0
C703 C 0.24051 0.4698 0.93938 0.0
C704 C 0.26938 0.4922 0.03862 0.0
C705 C 0.26826 0.47194 0.04908 0.0
C706 C 0.25276 0.4916 0.01818 0.0
C707 C 0.23452 0.47021 0.00809 0.0
C708 C 0.23316 0.44967 0.01874 0.0
C709 C 0.25009 0.45077 0.03909 0.0
C710 C 0.25478 0.51388 0.00724 0.0
C711 C 0.21385 0.42655 0.00859 0.0
H712 H 0.16699 0.47089 0.98801 0.0
H713 H 0.20646 0.47137 0.90811 0.0
H714 H 0.19386 0.45419 0.04487 0.0
H715 H 0.20741 0.48473 0.04502 0.0
H716 H 0.17683 0.46779 0.03986 0.0
H717 H 0.23983 0.469 0.91323 0.0
H718 H 0.25638 0.48558 0.94657 0.0
H719 H 0.24176 0.45502 0.94839 0.0
H720 H 0.28339 0.50863 0.04616 0.0
H721 H 0.24911 0.43503 0.04709 0.0
H722 H 0.23928 0.51458 0.01421 0.0
H723 H 0.25588 0.51494 0.98116 0.0
H724 H 0.27007 0.52907 0.0172 0.0
H725 H 0.19715 0.42477 0.01541 0.0
H726 H 0.21519 0.41219 0.01919 0.0
H727 H 0.21384 0.42503 0.98256 0.0
C728 C 0.71661 0.16178 0.52586 0.0
C729 C 0.71665 0.1515 0.49716 0.0
C730 C 0.73672 0.18053 0.5375 0.0
C731 C 0.75731 0.18902 0.52013 0.0
C732 C 0.75768 0.17803 0.49193 0.0
C733 C 0.73731 0.15944 0.48071 0.0
C734 C 0.73568 0.19191 0.56762 0.0
C735 C 0.77939 0.18647 0.47294 0.0
C736 C 0.80115 0.25201 0.52767 0.0
C737 C 0.81717 0.25158 0.54833 0.0
C738 C 0.78157 0.23174 0.51845 0.0
C739 C 0.77799 0.21051 0.53 0.0
C740 C 0.79415 0.20988 0.55066 0.0
C741 C 0.81355 0.23048 0.55969 0.0
C742 C 0.76464 0.23308 0.49647 0.0
C743 C 0.79092 0.18749 0.56321 0.0
H744 H 0.70071 0.1557 0.53871 0.0
H745 H 0.7375 0.15143 0.45866 0.0
H746 H 0.74928 0.1938 0.58413 0.0
H747 H 0.73882 0.20937 0.56231 0.0
H748 H 0.71883 0.18214 0.57958 0.0
H749 H 0.77725 0.17478 0.45315 0.0
H750 H 0.78459 0.20364 0.4631 0.0
H751 H 0.79356 0.18831 0.48823 0.0
H752 H 0.80378 0.26825 0.51886 0.0
H753 H 0.82588 0.23003 0.57564 0.0
H754 H 0.74751 0.22519 0.50775 0.0
H755 H 0.76285 0.22328 0.47463 0.0
H756 H 0.76987 0.25099 0.48987 0.0
H757 H 0.77462 0.17839 0.57656 0.0
H758 H 0.80517 0.18995 0.57889 0.0
H759 H 0.7897 0.17623 0.54336 0.0
C760 C 0.55504 0.81653 0.0138 0.0
C761 C 0.53382 0.81528 0.01838 0.0
C762 C 0.55646 0.79887 0.99837 0.0
C763 C 0.53622 0.77965 0.9871 0.0
C764 C 0.51483 0.7785 0.99115 0.0
C765 C 0.51388 0.79629 0.00685 0.0
C766 C 0.57954 0.80058 0.99461 0.0
C767 C 0.49288 0.75834 0.97922 0.0
C768 C 0.53877 0.74098 0.92428 0.0
C769 C 0.53508 0.72193 0.94218 0.0
C770 C 0.53977 0.76019 0.93869 0.0
C771 C 0.53718 0.76037 0.97176 0.0
C772 C 0.53425 0.74153 0.99005 0.0
C773 C 0.53315 0.7225 0.97502 0.0
C774 C 0.54282 0.77995 0.91843 0.0
C775 C 0.53163 0.74121 0.02543 0.0
H776 H 0.57052 0.83115 0.0227 0.0
H777 H 0.49744 0.79526 0.01015 0.0
H778 H 0.57963 0.78617 0.00716 0.0
H779 H 0.58292 0.79914 0.96937 0.0
H780 H 0.59372 0.81694 0.00397 0.0
H781 H 0.47775 0.76044 0.98335 0.0
H782 H 0.49425 0.75602 0.95359 0.0
H783 H 0.48992 0.74243 0.99112 0.0
H784 H 0.54029 0.74068 0.89889 0.0
H785 H 0.53046 0.70791 0.98903 0.0
H786 H 0.55742 0.79624 0.92712 0.0
H787 H 0.52727 0.7816 0.91993 0.0
H788 H 0.54589 0.77772 0.8933 0.0
H789 H 0.5461 0.75681 0.03593 0.0
H790 H 0.53095 0.72592 0.03639 0.0
H791 H 0.51566 0.7413 0.03149 0.0
C792 C 0.71349 0.49828 0.52369 0.0
C793 C 0.71161 0.51532 0.54009 0.0
C794 C 0.73274 0.50379 0.50506 0.0
C795 C 0.7505 0.52689 0.50277 0.0
C796 C 0.74855 0.54423 0.5188 0.0
C797 C 0.72912 0.53823 0.53733 0.0
C798 C 0.73425 0.48482 0.48831 0.0
C799 C 0.76715 0.56904 0.5168 0.0
C800 C 0.80887 0.53532 0.48238 0.0
C801 C 0.80996 0.53924 0.44979 0.0
C802 C 0.7899 0.53197 0.50005 0.0
C803 C 0.77158 0.53262 0.48479 0.0
C804 C 0.77293 0.53748 0.45215 0.0
C805 C 0.79214 0.54073 0.43499 0.0
C806 C 0.7891 0.5269 0.53486 0.0
C807 C 0.75375 0.53845 0.43518 0.0
H808 H 0.7 0.48056 0.5256 0.0
H809 H 0.72774 0.55152 0.5498 0.0
H810 H 0.73694 0.48852 0.46271 0.0
H811 H 0.7492 0.48381 0.49725 0.0
H812 H 0.7186 0.46786 0.49163 0.0
H813 H 0.76249 0.58058 0.5294 0.0
H814 H 0.78323 0.57118 0.52713 0.0
H815 H 0.77078 0.57451 0.4918 0.0
H816 H 0.82263 0.53429 0.49406 0.0
H817 H 0.79289 0.54384 0.40985 0.0
H818 H 0.77487 0.50931 0.5397 0.0
H819 H 0.78568 0.53887 0.54859 0.0
H820 H 0.80531 0.52829 0.54347 0.0
H821 H 0.73817 0.52124 0.43533 0.0
H822 H 0.7582 0.54416 0.41033 0.0
H823 H 0.74938 0.55029 0.44748 0.0
C824 C 0.26869 0.82612 0.99032 0.0
C825 C 0.26764 0.84009 0.96664 0.0
C826 C 0.24898 0.80607 -3e-05 0.0
C827 C 0.22766 0.79998 0.98584 0.0
C828 C 0.22635 0.81429 0.96251 0.0
C829 C 0.2464 0.83414 0.95306 0.0
C830 C 0.25107 0.79115 0.02479 0.0
C831 C 0.20385 0.80843 0.94722 0.0
C832 C 0.18273 0.73697 0.98919 0.0
C833 C 0.16986 0.73624 0.01558 0.0
C834 C 0.20127 0.75772 0.97878 0.0
C835 C 0.20692 0.77824 0.99497 0.0
C836 C 0.19349 0.77774 0.02092 0.0
C837 C 0.17518 0.75671 0.03103 0.0
C838 C 0.21531 0.75758 0.95113 0.0
C839 C 0.19885 0.79932 0.03852 0.0
H840 H 0.28503 0.83055 0.00088 0.0
H841 H 0.24545 0.84491 0.93484 0.0
H842 H 0.23954 0.78869 0.04489 0.0
H843 H 0.24567 0.77396 0.01484 0.0
H844 H 0.26884 0.79854 0.03385 0.0
H845 H 0.20556 0.82193 0.93057 0.0
H846 H 0.19701 0.79205 0.93415 0.0
H847 H 0.19104 0.80598 0.96548 0.0
H848 H 0.17872 0.72123 0.97714 0.0
H849 H 0.1652 0.75629 0.0513 0.0
H850 H 0.23304 0.76317 0.95897 0.0
H851 H 0.21641 0.76988 0.93288 0.0
H852 H 0.20803 0.74035 0.94022 0.0
H853 H 0.21576 0.80642 0.05024 0.0
H854 H 0.18576 0.79625 0.0567 0.0
H855 H 0.19997 0.81253 0.02186 0.0
C856 C 0.44673 0.17734 0.4929 0.0
C857 C 0.44246 0.17386 0.52536 0.0
C858 C 0.44939 0.19712 0.47817 0.0
C859 C 0.44782 0.21387 0.49636 0.0
C860 C 0.44266 0.2101 0.5289 0.0
C861 C 0.43998 0.19007 0.54302 0.0
C862 C 0.45469 0.20048 0.44335 0.0
C863 C 0.44087 0.22761 0.54901 0.0
C864 C 0.48094 0.27476 0.46579 0.0
C865 C 0.46361 0.27735 0.45153 0.0
C866 C 0.47593 0.25428 0.48091 0.0
C867 C 0.45304 0.23593 0.48167 0.0
C868 C 0.43542 0.23848 0.46759 0.0
C869 C 0.44091 0.2592 0.45272 0.0
C870 C 0.49518 0.25221 0.49578 0.0
C871 C 0.41083 0.21923 0.46789 0.0
H872 H 0.4485 0.1648 0.47904 0.0
H873 H 0.43665 0.18749 0.56811 0.0
H874 H 0.44256 0.20448 0.43111 0.0
H875 H 0.47217 0.21525 0.4397 0.0
H876 H 0.45375 0.18513 0.43217 0.0
H877 H 0.43512 0.22135 0.57338 0.0
H878 H 0.45781 0.24349 0.55023 0.0
H879 H 0.4287 0.23223 0.53831 0.0
H880 H 0.49851 0.28873 0.46511 0.0
H881 H 0.42741 0.26109 0.44179 0.0
H882 H 0.49669 0.23827 0.48418 0.0
H883 H 0.49142 0.24761 0.52104 0.0
H884 H 0.51193 0.26831 0.49394 0.0
H885 H 0.4094 0.20418 0.45519 0.0
H886 H 0.39905 0.2242 0.45671 0.0
H887 H 0.40511 0.21374 0.49247 0.0
C888 C 0.8132 0.54072 0.02077 0.0
C889 C 0.82243 0.54797 0.05098 0.0
C890 C 0.79443 0.5426 0.01057 0.0
C891 C 0.78465 0.55193 0.0311 0.0
C892 C 0.7944 0.56006 0.06117 0.0
C893 C 0.81321 0.558 0.07076 0.0
C894 C 0.78456 0.53385 0.97824 0.0
C895 C 0.78443 0.57013 0.08366 0.0
C896 C 0.74386 0.56906 0.99497 0.0
C897 C 0.72257 0.54948 0.00081 0.0
C898 C 0.76427 0.57035 0.00528 0.0
C899 C 0.76328 0.55166 0.02185 0.0
C900 C 0.74182 0.53214 0.02858 0.0
C901 C 0.72173 0.53129 0.01794 0.0
C902 C 0.78688 0.59143 0.99772 0.0
C903 C 0.74008 0.51191 0.04635 0.0
H904 H 0.82032 0.53308 0.00528 0.0
H905 H 0.8203 0.56373 0.0941 0.0
H906 H 0.76701 0.51892 0.98055 0.0
H907 H 0.78316 0.54725 0.96488 0.0
H908 H 0.79509 0.52853 0.96437 0.0
H909 H 0.79508 0.5773 0.10515 0.0
H910 H 0.78271 0.5839 0.07189 0.0
H911 H 0.76701 0.5567 0.09091 0.0
H912 H 0.74465 0.5832 0.98176 0.0
H913 H 0.70534 0.51615 0.0227 0.0
H914 H 0.79697 0.58679 0.98178 0.0
H915 H 0.79708 0.59854 0.01954 0.0
H916 H 0.78465 0.60499 0.98621 0.0
H917 H 0.74857 0.50418 0.03272 0.0
H918 H 0.72204 0.49847 0.05084 0.0
H919 H 0.74911 0.51759 0.06928 0.0
C920 C 0.17261 0.74261 0.49432 0.0
C921 C 0.1768 0.72888 0.47364 0.0
C922 C 0.19033 0.75963 0.51249 0.0
C923 C 0.21273 0.76299 0.50976 0.0
C924 C 0.21717 0.74956 0.4884 0.0
C925 C 0.19913 0.73264 0.47062 0.0
C926 C 0.18502 0.77366 0.53505 0.0
C927 C 0.2409 0.75277 0.48472 0.0
C928 C 0.26447 0.81827 0.5366 0.0
C929 C 0.26981 0.81156 0.5652 0.0
C930 C 0.24552 0.80282 0.5187 0.0
C931 C 0.23154 0.78016 0.52976 0.0
C932 C 0.23633 0.77352 0.55914 0.0
C933 C 0.25545 0.78931 0.57651 0.0
C934 C 0.24092 0.81049 0.48745 0.0
C935 C 0.22169 0.74952 0.57176 0.0
H936 H 0.15538 0.7398 0.49677 0.0
H937 H 0.20253 0.72216 0.45461 0.0
H938 H 0.18854 0.77058 0.55956 0.0
H939 H 0.19626 0.79219 0.53016 0.0
H940 H 0.16688 0.76949 0.53352 0.0
H941 H 0.2416 0.74141 0.46634 0.0
H942 H 0.25325 0.77081 0.47843 0.0
H943 H 0.24662 0.74913 0.50742 0.0
H944 H 0.27544 0.83547 0.52774 0.0
H945 H 0.25939 0.78403 0.59866 0.0
H946 H 0.22294 0.80677 0.48637 0.0
H947 H 0.24327 0.8008 0.46807 0.0
H948 H 0.2525 0.82908 0.48322 0.0
H949 H 0.20342 0.74492 0.57222 0.0
H950 H 0.22684 0.74753 0.59589 0.0
H951 H 0.22304 0.73713 0.55597 0.0
C952 C 0.44391 0.20469 0.90795 0.0
C953 C 0.45008 0.19115 0.92595 0.0
C954 C 0.4436 0.22357 0.92133 0.0
C955 C 0.44942 0.22887 0.95347 0.0
C956 C 0.45467 0.21467 0.97208 0.0
C957 C 0.45501 0.19602 0.95806 0.0
C958 C 0.43798 0.23838 0.90075 0.0
C959 C 0.46075 0.21966 0.00653 0.0
C960 C 0.47556 0.29043 0.98062 0.0
C961 C 0.45696 0.29032 0.99558 0.0
C962 C 0.47317 0.27063 0.9663 0.0
C963 C 0.45169 0.25017 0.96715 0.0
C964 C 0.43275 0.24998 0.98185 0.0
C965 C 0.4356 0.27011 0.99583 0.0
C966 C 0.49373 0.27153 0.95063 0.0
C967 C 0.40964 0.22842 0.98333 0.0
H968 H 0.44005 0.20101 0.88313 0.0
H969 H 0.45959 0.1855 0.97219 0.0
H970 H 0.42445 0.24081 0.91187 0.0
H971 H 0.45339 0.25558 0.89817 0.0
H972 H 0.43212 0.23095 0.8769 0.0
H973 H 0.46263 0.20595 0.01826 0.0
H974 H 0.47711 0.23606 0.00895 0.0
H975 H 0.4474 0.22162 0.01911 0.0
H976 H 0.49209 0.306 0.98018 0.0
H977 H 0.42115 0.2699 0.00738 0.0
H978 H 0.48969 0.26581 0.92578 0.0
H979 H 0.49815 0.25965 0.96274 0.0
H980 H 0.50899 0.289 0.95102 0.0
H981 H 0.40376 0.22159 0.95926 0.0
H982 H 0.39645 0.23133 0.99466 0.0
H983 H 0.41102 0.21506 0.99682 0.0
C984 C 0.1767 0.45104 0.51502 0.0
C985 C 0.16663 0.44317 0.54468 0.0
C986 C 0.19683 0.45109 0.50661 0.0
C987 C 0.20715 0.4431 0.52842 0.0
C988 C 0.19667 0.43442 0.55798 0.0
C989 C 0.1765 0.43453 0.56576 0.0
C990 C 0.20746 0.46037 0.47478 0.0
C991 C 0.20718 0.42572 0.58179 0.0
C992 C 0.25185 0.42983 0.49655 0.0
C993 C 0.27223 0.45022 0.50323 0.0
C994 C 0.23051 0.42704 0.50517 0.0
C995 C 0.22957 0.44507 0.52088 0.0
C996 C 0.25009 0.46544 0.52841 0.0
C997 C 0.27117 0.46778 0.51947 0.0
C998 C 0.20895 0.40507 0.4968 0.0
C999 C 0.24975 0.48501 0.54528 0.0
H1000 H 0.16912 0.45764 0.49853 0.0
H1001 H 0.16879 0.42836 0.5887 0.0
H1002 H 0.22439 0.47605 0.4779 0.0
H1003 H 0.21041 0.44768 0.46209 0.0
H1004 H 0.1966 0.46467 0.45985 0.0
H1005 H 0.1961 0.41812 0.60283 0.0
H1006 H 0.2104 0.41263 0.57093 0.0
H1007 H 0.22397 0.44004 0.58964 0.0
H1008 H 0.25252 0.41616 0.48402 0.0
H1009 H 0.28683 0.48355 0.52484 0.0
H1010 H 0.1986 0.40874 0.47996 0.0
H1011 H 0.19831 0.39742 0.51813 0.0
H1012 H 0.21267 0.39226 0.486 0.0
H1013 H 0.24078 0.49171 0.53059 0.0
H1014 H 0.26726 0.49931 0.55053 0.0
H1015 H 0.24014 0.4789 0.56774 0.0
C1016 C 0.80464 0.24225 0.92809 0.0
C1017 C 0.82466 0.25733 0.94448 0.0
C1018 C 0.78493 0.2262 0.94425 0.0
C1019 C 0.78534 0.22517 0.97754 0.0
C1020 C 0.80585 0.23949 0.99407 0.0
C1021 C 0.82527 0.25543 0.97734 0.0
C1022 C 0.76337 0.21114 0.92582 0.0
C1023 C 0.80697 0.23876 0.02957 0.0
C1024 C 0.72972 0.20598 0.02153 0.0
C1025 C 0.72329 0.18339 0.02965 0.0
C1026 C 0.74982 0.21967 0.00442 0.0
C1027 C 0.76385 0.21056 0.99524 0.0
C1028 C 0.75747 0.18776 0.00326 0.0
C1029 C 0.73723 0.17441 0.02037 0.0
C1030 C 0.75606 0.24393 0.99626 0.0
C1031 C 0.77206 0.17753 0.99388 0.0
H1032 H 0.80405 0.24354 0.90269 0.0
H1033 H 0.84072 0.26689 0.99018 0.0
H1034 H 0.75607 0.19296 0.9329 0.0
H1035 H 0.75032 0.21611 0.9311 0.0
H1036 H 0.76646 0.21253 0.89999 0.0
H1037 H 0.82471 0.24948 0.0386 0.0
H1038 H 0.79604 0.24503 0.04007 0.0
H1039 H 0.80025 0.22091 0.03778 0.0
H1040 H 0.71905 0.21303 0.02855 0.0
H1041 H 0.73237 0.15696 0.02655 0.0
H1042 H 0.75767 0.24637 0.97034 0.0
H1043 H 0.77292 0.25615 0.00669 0.0
H1044 H 0.74316 0.24832 0.00487 0.0
H1045 H 0.77416 0.17821 0.96791 0.0
H1046 H 0.76457 0.15945 0.00169 0.0
H1047 H 0.78942 0.18769 0.00425 0.0
C1048 C 0.56934 0.79715 0.42496 0.0
C1049 C 0.55113 0.79984 0.43566 0.0
C1050 C 0.57217 0.77906 0.43589 0.0
C1051 C 0.55621 0.76318 0.45764 0.0
C1052 C 0.53769 0.7657 0.46827 0.0
C1053 C 0.53547 0.78408 0.45731 0.0
C1054 C 0.59228 0.77702 0.42442 0.0
C1055 C 0.52016 0.74894 0.49119 0.0
C1056 C 0.54759 0.70355 0.46766 0.0
C1057 C 0.55794 0.70543 0.497 0.0
C1058 C 0.54772 0.72251 0.45384 0.0
C1059 C 0.55871 0.74387 0.46961 0.0
C1060 C 0.57029 0.74615 0.49837 0.0
C1061 C 0.56963 0.72684 0.51185 0.0
C1062 C 0.53502 0.71939 0.42326 0.0
C1063 C 0.58251 0.76875 0.5156 0.0
H1064 H 0.58155 0.80935 0.40832 0.0
H1065 H 0.52127 0.78598 0.46552 0.0
H1066 H 0.60298 0.77774 0.44473 0.0
H1067 H 0.58613 0.76023 0.41274 0.0
H1068 H 0.60318 0.79083 0.40755 0.0
H1069 H 0.5065 0.75308 0.49657 0.0
H1070 H 0.51205 0.73134 0.48139 0.0
H1071 H 0.52865 0.7489 0.51356 0.0
H1072 H 0.53855 0.68705 0.45604 0.0
H1073 H 0.57788 0.72844 0.53438 0.0
H1074 H 0.5461 0.7327 0.40599 0.0
H1075 H 0.51988 0.72141 0.42755 0.0
H1076 H 0.52907 0.70225 0.41267 0.0
H1077 H 0.59406 0.78264 0.49932 0.0
H1078 H 0.59274 0.76826 0.5358 0.0
H1079 H 0.56978 0.77321 0.52464 0.0
C1080 C 0.35962 0.4147 0.11699 0.0
C1081 C 0.34021 0.41326 0.10268 0.0
C1082 C 0.36726 0.39949 0.10889 0.0
C1083 C 0.35513 0.38234 0.08601 0.0
C1084 C 0.33496 0.38015 0.07242 0.0
C1085 C 0.32775 0.3957 0.08087 0.0
C1086 C 0.38886 0.40237 0.12396 0.0
C1087 C 0.32148 0.36193 0.04817 0.0
C1088 C 0.39304 0.36451 0.04367 0.0
C1089 C 0.38931 0.34532 0.06128 0.0
C1090 C 0.38096 0.37594 0.05026 0.0
C1091 C 0.36467 0.36792 0.07495 0.0
C1092 C 0.35958 0.34759 0.09125 0.0
C1093 C 0.37201 0.33653 0.08425 0.0
C1094 C 0.38681 0.39752 0.03224 0.0
C1095 C 0.3421 0.33837 0.11745 0.0
H1096 H 0.36929 0.42812 0.13399 0.0
H1097 H 0.31265 0.39442 0.0698 0.0
H1098 H 0.38559 0.38599 0.13467 0.0
H1099 H 0.40229 0.40709 0.10572 0.0
H1100 H 0.39562 0.41581 0.14248 0.0
H1101 H 0.30494 0.36096 0.04237 0.0
H1102 H 0.33169 0.36567 0.02623 0.0
H1103 H 0.31797 0.34492 0.05673 0.0
H1104 H 0.40622 0.37131 0.02567 0.0
H1105 H 0.36887 0.3216 0.0978 0.0
H1106 H 0.3957 0.41254 0.04811 0.0
H1107 H 0.37101 0.397 0.02371 0.0
H1108 H 0.39811 0.40015 0.01172 0.0
H1109 H 0.34902 0.34968 0.13835 0.0
H1110 H 0.3377 0.32076 0.1245 0.0
H1111 H 0.32619 0.3382 0.11025 0.0
C1112 C 0.04408 0.37368 0.54142 0.0
C1113 C 0.052 0.3972 0.54436 0.0
C1114 C 0.0206 0.35755 0.54391 0.0
C1115 C 0.00485 0.36519 0.54983 0.0
C1116 C 0.01273 0.38893 0.55222 0.0
C1117 C 0.03614 0.4046 0.54927 0.0
C1118 C 0.0127 0.33237 0.54076 0.0
C1119 C 0.99649 0.39781 0.55865 0.0
C1120 C 0.94111 0.33239 0.53508 0.0
C1121 C 0.93263 0.32673 0.56592 0.0
C1122 C 0.96469 0.34316 0.52905 0.0
C1123 C 0.9801 0.34869 0.55454 0.0
C1124 C 0.97153 0.34143 0.5854 0.0
C1125 C 0.94783 0.33037 0.59069 0.0
C1126 C 0.97314 0.3502 0.49572 0.0
C1127 C 0.98741 0.34711 0.61324 0.0
H1128 H 0.05623 0.36784 0.53751 0.0
H1129 H 0.04204 0.42273 0.55155 0.0
H1130 H 0.00547 0.32357 0.56348 0.0
H1131 H -0.00113 0.32439 0.52292 0.0
H1132 H 0.02687 0.32933 0.53387 0.0
H1133 H 0.00541 0.41681 0.55966 0.0
H1134 H 0.9832 0.3919 0.54 0.0
H1135 H 0.98756 0.39091 0.58141 0.0
H1136 H 0.92939 0.3293 0.51575 0.0
H1137 H 0.94139 0.32595 0.61457 0.0
H1138 H 0.9872 0.34668 0.49033 0.0
H1139 H 0.9801 0.36891 0.49304 0.0
H1140 H 0.95922 0.3412 0.47818 0.0
H1141 H 0.00115 0.3431 0.60801 0.0
H1142 H 0.97817 0.33764 0.6348 0.0
H1143 H 0.99577 0.36574 0.61821 0.0
C1144 C 0.60899 0.95546 0.11544 0.0
C1145 C 0.601 0.94203 0.08812 0.0
C1146 C 0.62248 0.97937 0.11356 0.0
C1147 C 0.62822 0.99008 0.08364 0.0
C1148 C 0.62148 0.97653 0.056 0.0
C1149 C 0.60788 0.95265 0.05856 0.0
C1150 C 0.62934 0.99324 0.14359 0.0
C1151 C 0.62748 0.98732 0.02367 0.0
C1152 C 0.63462 0.04909 0.07856 0.0
C1153 C 0.65849 0.06338 0.07868 0.0
C1154 C 0.62465 0.02523 0.07994 0.0
C1155 C 0.63887 0.01536 0.08128 0.0
C1156 C 0.66298 0.02962 0.08094 0.0
C1157 C 0.67253 0.05352 0.07973 0.0
C1158 C 0.59884 0.0106 0.08036 0.0
C1159 C 0.67864 0.01964 0.08213 0.0
H1160 H 0.60388 0.9474 0.13839 0.0
H1161 H 0.60196 0.94239 0.03732 0.0
H1162 H 0.64786 0.00617 0.14322 0.0
H1163 H 0.61979 0.00265 0.1456 0.0
H1164 H 0.62571 0.98233 0.16485 0.0
H1165 H 0.62352 0.97444 0.00481 0.0
H1166 H 0.61763 0.99616 0.01898 0.0
H1167 H 0.64593 0.00039 0.02239 0.0
H1168 H 0.62361 0.05653 0.07776 0.0
H1169 H 0.69099 0.06445 0.07975 0.0
H1170 H 0.59322 0.0003 0.10233 0.0
H1171 H 0.59297 -0.00157 0.0603 0.0
H1172 H 0.59023 0.02097 0.07892 0.0
H1173 H 0.67583 0.00994 0.10438 0.0
H1174 H 0.69701 0.03303 0.08064 0.0
H1175 H 0.67462 0.00737 0.06246 0.0
C1176 C 0.64133 0.57507 0.6034 0.0
C1177 C 0.6619 0.57974 0.58884 0.0
C1178 C 0.63312 0.59042 0.60114 0.0
C1179 C 0.64578 0.61098 0.58388 0.0
C1180 C 0.66694 0.61622 0.57001 0.0
C1181 C 0.67479 0.60051 0.57266 0.0
C1182 C 0.6105 0.58424 0.61641 0.0
C1183 C 0.6809 0.63804 0.55154 0.0
C1184 C 0.60793 0.63285 0.55205 0.0
C1185 C 0.61027 0.64862 0.57536 0.0
C1186 C 0.62055 0.62151 0.55347 0.0
C1187 C 0.63586 0.62604 0.57884 0.0
C1188 C 0.63944 0.64304 0.60129 0.0
C1189 C 0.62659 0.65418 0.59926 0.0
C1190 C 0.61638 0.60361 0.52893 0.0
C1191 C 0.65572 0.64841 0.62857 0.0
H1192 H 0.63135 0.55915 0.61616 0.0
H1193 H 0.69073 0.60427 0.56143 0.0
H1194 H 0.61255 0.59826 0.63218 0.0
H1195 H 0.59785 0.58205 0.59802 0.0
H1196 H 0.60339 0.56817 0.63036 0.0
H1197 H 0.69792 0.64056 0.5447 0.0
H1198 H 0.67152 0.63758 0.52981 0.0
H1199 H 0.68345 0.65305 0.5655 0.0
H1200 H 0.59555 0.62867 0.53328 0.0
H1201 H 0.62861 0.66645 0.61726 0.0
H1202 H 0.60728 0.58635 0.53988 0.0
H1203 H 0.63287 0.60618 0.51957 0.0
H1204 H 0.6059 0.60393 0.50894 0.0
H1205 H 0.64832 0.63391 0.64548 0.0
H1206 H 0.659 0.66417 0.64128 0.0
H1207 H 0.67229 0.65055 0.62031 0.0
C1208 C 0.93962 0.61273 0.04841 0.0
C1209 C 0.93207 0.59052 0.05975 0.0
C1210 C 0.96267 0.62997 0.05135 0.0
C1211 C 0.97845 0.6248 0.06588 0.0
C1212 C 0.97084 0.60251 0.07775 0.0
C1213 C 0.94778 0.58568 0.07456 0.0
C1214 C 0.97021 0.65358 0.03852 0.0
C1215 C 0.98715 0.59629 0.09337 0.0
C1216 C 0.04187 0.65659 0.04808 0.0
C1217 C 0.05096 0.669 0.07601 0.0
C1218 C 0.01817 0.6432 0.04363 0.0
C1219 C 0.00317 0.64221 0.0677 0.0
C1220 C 0.01217 0.65588 0.09503 0.0
C1221 C 0.03601 0.66915 0.09887 0.0
C1222 C 0.00924 0.62896 0.01406 0.0
C1223 C 0.99669 0.65535 0.12112 0.0
H1224 H 0.92757 0.61663 0.03703 0.0
H1225 H 0.94211 0.5686 0.08348 0.0
H1226 H 0.97898 0.66664 0.05716 0.0
H1227 H 0.98274 0.65759 0.01919 0.0
H1228 H 0.95562 0.65515 0.02932 0.0
H1229 H 0.97835 0.57836 0.10213 0.0
H1230 H 0.00061 0.59845 0.07638 0.0
H1231 H 0.99587 0.60793 0.1135 0.0
H1232 H 0.0533 0.65656 0.03012 0.0
H1233 H 0.04288 0.67879 0.12044 0.0
H1234 H 0.99533 0.63101 0.00346 0.0
H1235 H 0.00191 0.61058 0.02005 0.0
H1236 H 0.02291 0.63362 0.99617 0.0
H1237 H 0.98237 0.6571 0.11137 0.0
H1238 H 0.00607 0.66916 0.13869 0.0
H1239 H 0.98908 0.63861 0.13345 0.0
C1240 C 0.39058 0.03989 0.53278 0.0
C1241 C 0.39166 0.05319 0.55882 0.0
C1242 C 0.37759 0.01592 0.5339 0.0
C1243 C 0.3656 0.00505 0.56183 0.0
C1244 C 0.36534 0.01841 0.58737 0.0
C1245 C 0.37831 0.04237 0.5855 0.0
C1246 C 0.37802 0.00225 0.50599 0.0
C1247 C 0.35279 0.00744 0.61758 0.0
C1248 C 0.32467 0.9407 0.56154 0.0
C1249 C 0.33884 0.93258 0.57297 0.0
C1250 C 0.33305 0.9643 0.55781 0.0
C1251 C 0.35606 0.98002 0.56587 0.0
C1252 C 0.37036 0.9719 0.57763 0.0
C1253 C 0.36159 0.94831 0.58096 0.0
C1254 C 0.3174 0.97239 0.54507 0.0
C1255 C 0.39499 0.98815 0.58664 0.0
H1256 H 0.40064 0.04815 0.51193 0.0
H1257 H 0.37897 0.05254 0.60568 0.0
H1258 H 0.38854 0.99429 0.5118 0.0
H1259 H 0.36049 0.9882 0.50041 0.0
H1260 H 0.38537 0.01308 0.48468 0.0
H1261 H 0.35172 0.01997 0.63345 0.0
H1262 H 0.3352 0.99332 0.61254 0.0
H1263 H 0.36189 -9e-05 0.63021 0.0
H1264 H 0.30707 0.92864 0.5553 0.0
H1265 H 0.37265 0.94221 0.58991 0.0
H1266 H 0.32459 0.98213 0.52292 0.0
H1267 H 0.31618 0.98421 0.5621 0.0
H1268 H 0.29988 0.95798 0.54024 0.0
H1269 H 0.40467 -0.00163 0.56583 0.0
H1270 H 0.40368 0.97905 0.59594 0.0
H1271 H 0.39578 0.00033 0.60484 0.0
C1272 C 0.57758 0.63339 0.92874 0.0
C1273 C 0.58358 0.65649 0.93078 0.0
C1274 C 0.5943 0.62687 0.92981 0.0
C1275 C 0.61762 0.64383 0.93325 0.0
C1276 C 0.62383 0.66717 0.93574 0.0
C1277 C 0.60671 0.67325 0.93437 0.0
C1278 C 0.58697 0.60177 0.92694 0.0
C1279 C 0.64852 0.68567 0.93969 0.0
C1280 C 0.65352 0.61865 0.96175 0.0
C1281 C 0.66144 0.61473 0.93316 0.0
C1282 C 0.64058 0.62972 0.96241 0.0
C1283 C 0.6353 0.63682 0.93378 0.0
C1284 C 0.64463 0.63439 0.90513 0.0
C1285 C 0.6577 0.62347 0.90519 0.0
C1286 C 0.63124 0.63232 0.9935 0.0
C1287 C 0.63936 0.64173 0.8741 0.0
H1288 H 0.55977 0.62032 0.92592 0.0
H1289 H 0.61146 0.69114 0.93604 0.0
H1290 H 0.59534 0.59906 0.90617 0.0
H1291 H 0.5925 0.5961 0.94805 0.0
H1292 H 0.56812 0.59075 0.92439 0.0
H1293 H 0.65044 0.70295 0.94216 0.0
H1294 H 0.65596 0.68212 0.96079 0.0
H1295 H 0.65868 0.68578 0.91905 0.0
H1296 H 0.65657 0.61219 0.98353 0.0
H1297 H 0.66385 0.62063 0.883 0.0
H1298 H 0.61258 0.61994 0.99464 0.0
H1299 H 0.63356 0.64976 0.99576 0.0
H1300 H 0.63961 0.62912 0.01387 0.0
H1301 H 0.62112 0.63004 0.86794 0.0
H1302 H 0.65019 0.64136 0.85463 0.0
H1303 H 0.6419 0.65927 0.87587 0.0
C1304 C 0.93426 0.6192 0.45393 0.0
C1305 C 0.92771 0.59831 0.43879 0.0
C1306 C 0.95744 0.6364 0.45554 0.0
C1307 C 0.97429 0.63253 0.44161 0.0
C1308 C 0.96769 0.61165 0.42582 0.0
C1309 C 0.94454 0.59483 0.42466 0.0
C1310 C 0.96393 0.65847 0.47256 0.0
C1311 C 0.98513 0.60687 0.41051 0.0
C1312 C 0.03422 0.67747 0.41804 0.0
C1313 C 0.0472 0.67371 0.44059 0.0
C1314 C 0.0102 0.66556 0.41953 0.0
C1315 C -0.00096 0.64968 0.44422 0.0
C1316 C 0.01213 0.6475 0.46863 0.0
C1317 C 0.03608 0.65951 0.46648 0.0
C1318 C 0.99684 0.66847 0.39315 0.0
C1319 C 0.00089 0.63095 0.49557 0.0
H1320 H 0.92135 0.62202 0.46487 0.0
H1321 H 0.93966 0.57883 0.41272 0.0
H1322 H 0.97442 0.66005 0.49356 0.0
H1323 H 0.97456 0.67335 0.4571 0.0
H1324 H 0.94868 0.65941 0.48035 0.0
H1325 H 0.97705 0.59003 0.39835 0.0
H1326 H 0.99541 0.62043 0.39305 0.0
H1327 H 0.99713 0.60708 0.42858 0.0
H1328 H 0.04269 0.68858 0.39811 0.0
H1329 H 0.04602 0.65682 0.48429 0.0
H1330 H 0.98191 0.66929 0.4025 0.0
H1331 H 0.99019 0.65345 0.37719 0.0
H1332 H 0.00763 0.68416 0.37908 0.0
H1333 H 0.98628 0.6323 0.50512 0.0
H1334 H 0.01312 0.63396 0.515 0.0
H1335 H 0.99402 0.61317 0.4869 0.0
C1336 C 0.39022 0.0697 0.94884 0.0
C1337 C 0.40961 0.07765 0.92949 0.0
C1338 C 0.37512 0.0461 0.95291 0.0
C1339 C 0.37964 0.0302 0.93736 0.0
C1340 C 0.39893 0.03816 0.91734 0.0
C1341 C 0.41363 0.06174 0.91361 0.0
C1342 C 0.35462 0.03819 0.97426 0.0
C1343 C 0.40436 0.02175 0.90032 0.0
C1344 C 0.35968 0.97027 0.96717 0.0
C1345 C 0.34291 0.95698 0.94482 0.0
C1346 C 0.37078 0.99426 0.9663 0.0
C1347 C 0.36488 0.00518 0.94262 0.0
C1348 C 0.34679 0.99186 0.92149 0.0
C1349 C 0.33602 0.96788 0.92282 0.0
C1350 C 0.38994 0.00786 0.98934 0.0
C1351 C 0.33985 0.0029 0.89612 0.0
H1352 H 0.38696 0.08188 0.96112 0.0
H1353 H 0.42852 0.06769 0.89854 0.0
H1354 H 0.33874 0.02602 0.9616 0.0
H1355 H 0.35629 0.02892 0.99477 0.0
H1356 H 0.35274 0.05268 0.98309 0.0
H1357 H 0.41974 0.03073 0.88503 0.0
H1358 H 0.40739 0.01123 0.91769 0.0
H1359 H 0.38962 0.00984 0.8855 0.0
H1360 H 0.36498 0.962 0.98446 0.0
H1361 H 0.32292 0.95775 0.90566 0.0
H1362 H 0.38801 0.02184 -5e-05 0.0
H1363 H 0.40657 0.01592 0.97669 0.0
H1364 H 0.39055 0.99698 0.00855 0.0
H1365 H 0.3381 0.0172 0.90596 0.0
H1366 H 0.32343 0.99045 0.88473 0.0
H1367 H 0.35335 0.0102 0.87774 0.0
C1368 C 0.32529 0.36814 0.42107 0.0
C1369 C 0.33097 0.38418 0.44539 0.0
C1370 C 0.33663 0.35553 0.41804 0.0
C1371 C 0.35401 0.35911 0.43983 0.0
C1372 C 0.35865 0.37407 0.46566 0.0
C1373 C 0.34705 0.38641 0.46815 0.0
C1374 C 0.33106 0.33957 0.39034 0.0
C1375 C 0.37698 0.37827 0.4895 0.0
C1376 C 0.38011 0.32051 0.44204 0.0
C1377 C 0.40037 0.33355 0.42482 0.0
C1378 C 0.36447 0.32829 0.44654 0.0
C1379 C 0.36928 0.34958 0.43357 0.0
C1380 C 0.38942 0.36253 0.41557 0.0
C1381 C 0.40469 0.35435 0.4114 0.0
C1382 C 0.34311 0.31401 0.46575 0.0
C1383 C 0.39516 0.38534 0.4013 0.0
H1384 H 0.31276 0.36617 0.40351 0.0
H1385 H 0.35138 0.39859 0.48721 0.0
H1386 H 0.34532 0.34729 0.37306 0.0
H1387 H 0.32926 0.32301 0.398 0.0
H1388 H 0.31505 0.33619 0.37825 0.0
H1389 H 0.37668 0.38832 0.51005 0.0
H1390 H 0.37491 0.3618 0.49811 0.0
H1391 H 0.39407 0.38784 0.47816 0.0
H1392 H 0.37662 0.30439 0.45241 0.0
H1393 H 0.42023 0.36451 0.39794 0.0
H1394 H 0.32773 0.31111 0.45239 0.0
H1395 H 0.34373 0.32331 0.48762 0.0
H1396 H 0.34108 0.29714 0.47234 0.0
H1397 H 0.38091 0.38333 0.38604 0.0
H1398 H 0.41111 0.39288 0.38703 0.0
H1399 H 0.39733 0.39759 0.42027 0.0
C1400 C 0.06602 0.39505 0.9295 0.0
C1401 C 0.0716 0.41717 0.91986 0.0
C1402 C 0.04313 0.37714 0.93004 0.0
C1403 C 0.02554 0.3815 0.92058 0.0
C1404 C 0.03111 0.40376 0.91072 0.0
C1405 C 0.05403 0.42131 0.91057 0.0
C1406 C 0.03777 0.35363 0.94085 0.0
C1407 C 0.01282 0.40909 0.9003 0.0
C1408 C 0.96706 0.33604 0.8921 0.0
C1409 C 0.95319 0.33485 0.9175 0.0
C1410 C 0.99095 0.35007 0.89351 0.0
C1411 C 0.00115 0.36304 0.92105 0.0
C1412 C 0.9874 0.36046 0.94765 0.0
C1413 C 0.96356 0.34644 0.94553 0.0
C1414 C 0.00504 0.35231 0.86467 0.0
C1415 C -0.00233 0.37378 0.9776 0.0
H1416 H 0.0795 0.39172 0.93675 0.0
H1417 H 0.05818 0.43832 0.903 0.0
H1418 H 0.02621 0.34833 0.96159 0.0
H1419 H 0.02862 0.3409 0.92197 0.0
H1420 H 0.05343 0.35303 0.9473 0.0
H1421 H 0.02007 0.42723 0.89293 0.0
H1422 H 0.00303 0.3979 0.88027 0.0
H1423 H 0.00053 0.40554 0.9198 0.0
H1424 H 0.95921 0.32704 0.87041 0.0
H1425 H 0.95298 0.34539 0.96542 0.0
H1426 H 0.02045 0.3513 0.87119 0.0
H1427 H 0.01104 0.36931 0.85365 0.0
H1428 H 0.99508 0.33887 0.84689 0.0
H1429 H 0.013 0.37276 0.98458 0.0
H1430 H 0.98523 0.36747 0.99742 0.0
H1431 H 0.00329 0.39211 0.97356 0.0
C1432 C 0.58149 0.92731 0.4478 0.0
C1433 C 0.58932 0.91477 0.43065 0.0
C1434 C 0.59393 0.95128 0.44828 0.0
C1435 C 0.61486 0.96297 0.43159 0.0
C1436 C 0.62382 0.95041 0.4165 0.0
C1437 C 0.61084 0.9264 0.41602 0.0
C1438 C 0.58372 0.96405 0.46454 0.0
C1439 C 0.64635 0.96231 0.39909 0.0
C1440 C 0.62701 0.01947 0.39632 0.0
C1441 C 0.64189 0.03521 0.41861 0.0
C1442 C 0.61861 0.99596 0.39995 0.0
C1443 C 0.62551 0.988 0.4263 0.0
C1444 C 0.64126 0.00384 0.44825 0.0
C1445 C 0.64914 0.02732 0.44429 0.0
C1446 C 0.60166 0.97959 0.37614 0.0
C1447 C 0.64929 0.99596 0.47628 0.0
H1448 H 0.56496 0.91847 0.4594 0.0
H1449 H 0.61715 0.91681 0.40307 0.0
H1450 H 0.59665 0.97783 0.47973 0.0
H1451 H 0.57824 0.9723 0.44658 0.0
H1452 H 0.56864 0.95257 0.47922 0.0
H1453 H 0.65273 0.9504 0.39332 0.0
H1454 H 0.64416 0.96957 0.37675 0.0
H1455 H 0.65953 0.97674 0.41321 0.0
H1456 H 0.62133 0.02543 0.37642 0.0
H1457 H 0.6608 0.03944 0.46146 0.0
H1458 H 0.58507 0.96817 0.38791 0.0
H1459 H 0.60795 0.96856 0.36607 0.0
H1460 H 0.59856 0.98862 0.35652 0.0
H1461 H 0.6348 0.98636 0.49278 0.0
H1462 H 0.66336 0.01051 0.48923 0.0
H1463 H 0.65531 0.98411 0.46864 0.0
C1464 C 0.44891 0.59228 0.96788 0.0
C1465 C 0.47077 0.59773 0.97852 0.0
C1466 C 0.42911 0.57399 0.98107 0.0
C1467 C 0.43124 0.56072 0.00529 0.0
C1468 C 0.45324 0.56612 0.01613 0.0
C1469 C 0.47274 0.58462 0.00269 0.0
C1470 C 0.40592 0.56882 0.96906 0.0
C1471 C 0.45618 0.55225 0.04175 0.0
C1472 C 0.38024 0.52532 0.05859 0.0
C1473 C 0.37098 0.5035 0.04504 0.0
C1474 C 0.39981 0.54414 0.04582 0.0
C1475 C 0.41045 0.541 0.01903 0.0
C1476 C 0.40126 0.51899 0.00536 0.0
C1477 C 0.38158 0.50052 0.01846 0.0
C1478 C 0.40904 0.5674 0.0609 0.0
C1479 C 0.41226 0.51494 0.97694 0.0
H1480 H 0.44724 0.60237 0.94928 0.0
H1481 H 0.48956 0.58868 0.011 0.0
H1482 H 0.39662 0.55123 0.95923 0.0
H1483 H 0.39546 0.56948 0.98878 0.0
H1484 H 0.4072 0.58104 0.95052 0.0
H1485 H 0.47448 0.55873 0.04759 0.0
H1486 H 0.44715 0.55257 0.06343 0.0
H1487 H 0.44837 0.5341 0.03428 0.0
H1488 H 0.3721 0.52776 0.07908 0.0
H1489 H 0.37458 0.48369 0.00792 0.0
H1490 H 0.40935 0.57979 0.0434 0.0
H1491 H 0.42694 0.57391 0.06877 0.0
H1492 H 0.39867 0.56699 0.08149 0.0
H1493 H 0.41257 0.52573 0.95699 0.0
H1494 H 0.4031 0.49675 0.9693 0.0
H1495 H 0.43029 0.52001 0.98232 0.0
C1496 C 0.90263 0.40779 0.52027 0.0
C1497 C 0.88336 0.38573 0.5203 0.0
C1498 C 0.90219 0.42599 0.50491 0.0
C1499 C 0.8821 0.42197 0.48888 0.0
C1500 C 0.86267 0.3997 0.48855 0.0
C1501 C 0.86348 0.38187 0.50445 0.0
C1502 C 0.92316 0.44958 0.50608 0.0
C1503 C 0.84102 0.39473 0.47142 0.0
C1504 C 0.87268 0.47219 0.47445 0.0
C1505 C 0.87988 0.47784 0.44309 0.0
C1506 C 0.87341 0.4541 0.48966 0.0
C1507 C 0.88126 0.44118 0.47298 0.0
C1508 C 0.88839 0.44666 0.44124 0.0
C1509 C 0.88775 0.46505 0.42671 0.0
C1510 C 0.86592 0.44891 0.52366 0.0
C1511 C 0.89663 0.43308 0.42262 0.0
H1512 H 0.91803 0.41091 0.53256 0.0
H1513 H 0.84857 0.36483 0.50422 0.0
H1514 H 0.9292 0.45586 0.48185 0.0
H1515 H 0.91878 0.46179 0.51725 0.0
H1516 H 0.93743 0.44983 0.51949 0.0
H1517 H 0.82764 0.37636 0.47271 0.0
H1518 H 0.834 0.40509 0.48166 0.0
H1519 H 0.84487 0.39969 0.44628 0.0
H1520 H 0.86668 0.48207 0.48732 0.0
H1521 H 0.89323 0.46927 0.40242 0.0
H1522 H 0.88017 0.45023 0.5383 0.0
H1523 H 0.85146 0.4311 0.52586 0.0
H1524 H 0.86045 0.46074 0.53336 0.0
H1525 H 0.91186 0.43408 0.43419 0.0
H1526 H 0.90122 0.43931 0.398 0.0
H1527 H 0.88313 0.41475 0.42209 0.0
C1528 C 0.42488 0.912 0.96025 0.0
C1529 C 0.40304 0.90006 0.97395 0.0
C1530 C 0.4435 0.91109 0.97342 0.0
C1531 C 0.44022 0.89801 0.00104 0.0
C1532 C 0.41825 0.88597 0.01503 0.0
C1533 C 0.39991 0.88708 0.00126 0.0
C1534 C 0.46668 0.92405 0.95775 0.0
C1535 C 0.41412 0.87192 0.04457 0.0
C1536 C 0.48269 0.87827 0.01983 0.0
C1537 C 0.49665 0.89435 0.04253 0.0
C1538 C 0.46433 0.87933 0.00604 0.0
C1539 C 0.45976 0.89683 0.01524 0.0
C1540 C 0.47376 0.91311 0.03813 0.0
C1541 C 0.49208 0.9117 0.05147 0.0
C1542 C 0.44982 0.86172 0.98161 0.0
C1543 C 0.46935 0.93197 0.04861 0.0
H1544 H 0.42745 0.92203 0.9391 0.0
H1545 H 0.3831 0.87784 0.01204 0.0
H1546 H 0.47941 0.93658 0.9745 0.0
H1547 H 0.47268 0.91203 0.95099 0.0
H1548 H 0.46636 0.93338 0.93635 0.0
H1549 H 0.39604 0.86371 0.05264 0.0
H1550 H 0.41854 0.85834 0.04033 0.0
H1551 H 0.42538 0.88294 0.0638 0.0
H1552 H 0.48612 0.86483 0.01274 0.0
H1553 H 0.50276 0.92418 0.06899 0.0
H1554 H 0.45012 0.87036 0.95921 0.0
H1555 H 0.43174 0.85207 0.98961 0.0
H1556 H 0.45578 0.84934 0.97684 0.0
H1557 H 0.47025 0.94259 0.02808 0.0
H1558 H 0.48183 0.94328 0.06663 0.0
H1559 H 0.45183 0.92445 0.05856 0.0
C1560 C 0.53014 0.39035 0.45515 0.0
C1561 C 0.50807 0.38262 0.46714 0.0
C1562 C 0.5495 0.40786 0.47024 0.0
C1563 C 0.5467 0.41801 0.49782 0.0
C1564 C 0.52449 0.41026 0.51009 0.0
C1565 C 0.50544 0.39259 0.49467 0.0
C1566 C 0.57295 0.41558 0.4566 0.0
C1567 C 0.52083 0.42082 0.53931 0.0
C1568 C 0.59768 0.4507 0.55222 0.0
C1569 C 0.60559 0.47341 0.54289 0.0
C1570 C 0.57856 0.43246 0.53768 0.0
C1571 C 0.56699 0.43709 0.51346 0.0
C1572 C 0.57481 0.45998 0.50409 0.0
C1573 C 0.59408 0.47785 0.51882 0.0
C1574 C 0.57079 0.40824 0.5481 0.0
C1575 C 0.56279 0.46559 0.47853 0.0
H1576 H 0.53232 0.38265 0.43397 0.0
H1577 H 0.48844 0.38674 0.50404 0.0
H1578 H 0.58125 0.43393 0.44991 0.0
H1579 H 0.58401 0.41395 0.47457 0.0
H1580 H 0.57223 0.40551 0.43549 0.0
H1581 H 0.50247 0.41268 0.54598 0.0
H1582 H 0.53049 0.41922 0.55937 0.0
H1583 H 0.52751 0.43938 0.53542 0.0
H1584 H 0.60654 0.44714 0.57074 0.0
H1585 H 0.60003 0.49536 0.51157 0.0
H1586 H 0.57109 0.39802 0.52781 0.0
H1587 H 0.55286 0.39997 0.55669 0.0
H1588 H 0.58173 0.40754 0.56715 0.0
H1589 H 0.56296 0.45714 0.45619 0.0
H1590 H 0.5709 0.48431 0.47426 0.0
H1591 H 0.5446 0.45888 0.48505 0.0
C1592 C 0.1332 0.55087 0.94994 0.0
C1593 C 0.12275 0.52997 0.96628 0.0
C1594 C 0.13224 0.56987 0.96146 0.0
C1595 C 0.12045 0.56789 0.98992 0.0
C1596 C 0.11006 0.54694 0.00671 0.0
C1597 C 0.11138 0.52824 0.99472 0.0
C1598 C 0.14361 0.59198 0.94298 0.0
C1599 C 0.09725 0.54417 0.03708 0.0
C1600 C 0.13245 0.62198 0.03358 0.0
C1601 C 0.11397 0.62459 0.02398 0.0
C1602 C 0.13486 0.60365 0.02257 0.0
C1603 C 0.11833 0.58753 0.00162 0.0
C1604 C 0.09965 0.59008 0.99184 0.0
C1605 C 0.09774 0.6086 0.00307 0.0
C1606 C 0.15507 0.60152 0.03336 0.0
C1607 C 0.08162 0.57316 0.96963 0.0
H1608 H 0.14209 0.55238 0.92799 0.0
H1609 H 0.10326 0.51216 0.0075 0.0
H1610 H 0.13055 0.59639 0.93523 0.0
H1611 H 0.156 0.6062 0.95815 0.0
H1612 H 0.15278 0.59095 0.92187 0.0
H1613 H 0.09063 0.52692 0.04768 0.0
H1614 H 0.10861 0.55724 0.05442 0.0
H1615 H 0.08259 0.54695 0.03269 0.0
H1616 H 0.14509 0.63428 0.04969 0.0
H1617 H 0.08336 0.61045 0.99558 0.0
H1618 H 0.16518 0.6016 0.01269 0.0
H1619 H 0.14897 0.58496 0.04572 0.0
H1620 H 0.16653 0.61562 0.04947 0.0
H1621 H 0.08968 0.57252 0.94715 0.0
H1622 H 0.06815 0.57758 0.96433 0.0
H1623 H 0.07335 0.55573 0.98002 0.0
C1624 C 0.5122 0.08783 0.53648 0.0
C1625 C 0.50586 0.10346 0.52528 0.0
C1626 C 0.53083 0.0869 0.52338 0.0
C1627 C 0.54342 0.10198 0.49852 0.0
C1628 C 0.53725 0.11793 0.48729 0.0
C1629 C 0.51854 0.11848 0.5008 0.0
C1630 C 0.53692 0.06965 0.53595 0.0
C1631 C 0.55032 0.13431 0.46085 0.0
C1632 C 0.60347 0.11303 0.4819 0.0
C1633 C 0.59971 0.09863 0.456 0.0
C1634 C 0.5853 0.11431 0.49597 0.0
C1635 C 0.56286 0.10083 0.4839 0.0
C1636 C 0.55894 0.08627 0.4578 0.0
C1637 C 0.57742 0.08537 0.44412 0.0
C1638 C 0.59012 0.1301 0.52373 0.0
C1639 C 0.53521 0.0716 0.44434 0.0
H1640 H 0.50251 0.07618 0.55541 0.0
H1641 H 0.51379 0.13064 0.49203 0.0
H1642 H 0.53559 0.05782 0.51683 0.0
H1643 H 0.55492 0.07854 0.54432 0.0
H1644 H 0.52561 0.05937 0.55568 0.0
H1645 H 0.54358 0.14594 0.45522 0.0
H1646 H 0.56868 0.14485 0.46725 0.0
H1647 H 0.54938 0.12457 0.4393 0.0
H1648 H 0.62064 0.12335 0.4912 0.0
H1649 H 0.57436 0.07418 0.42416 0.0
H1650 H 0.58005 0.12012 0.54446 0.0
H1651 H 0.5847 0.14278 0.51822 0.0
H1652 H 0.60855 0.13947 0.53023 0.0
H1653 H 0.52354 0.05994 0.46278 0.0
H1654 H 0.53506 0.06113 0.42402 0.0
H1655 H 0.52821 0.08258 0.4365 0.0
C1656 C 0.51059 0.42996 0.04036 0.0
C1657 C 0.50408 0.40822 0.02811 0.0
C1658 C 0.53034 0.44953 0.02949 0.0
C1659 C 0.54389 0.44728 0.00583 0.0
C1660 C 0.53743 0.42539 0.99338 0.0
C1661 C 0.51759 0.40612 0.00466 0.0
C1662 C 0.53671 0.4726 0.04329 0.0
C1663 C 0.55147 0.42234 0.96814 0.0
C1664 C 0.58345 0.49935 0.95678 0.0
C1665 C 0.60474 0.50639 0.97099 0.0
C1666 C 0.56348 0.4802 0.968 0.0
C1667 C 0.56484 0.46782 0.99405 0.0
C1668 C 0.58624 0.47492 0.00863 0.0
C1669 C 0.60595 0.49412 0.99692 0.0
C1670 C 0.54094 0.47313 0.95185 0.0
C1671 C 0.58833 0.46213 0.03649 0.0
H1672 H 0.50025 0.43173 0.05848 0.0
H1673 H 0.5127 0.38939 0.99509 0.0
H1674 H 0.55401 0.48046 0.05403 0.0
H1675 H 0.53742 0.48431 0.02438 0.0
H1676 H 0.52435 0.47143 0.06155 0.0
H1677 H 0.54411 0.40415 0.96096 0.0
H1678 H 0.55261 0.43258 0.94704 0.0
H1679 H 0.5692 0.42873 0.9767 0.0
H1680 H 0.58237 0.50874 0.93674 0.0
H1681 H 0.62233 0.49945 0.00804 0.0
H1682 H 0.52846 0.47296 0.96906 0.0
H1683 H 0.53361 0.45548 0.94247 0.0
H1684 H 0.54276 0.48476 0.93211 0.0
H1685 H 0.57713 0.46168 0.05595 0.0
H1686 H 0.60619 0.47003 0.04538 0.0
H1687 H 0.58249 0.44412 0.02979 0.0
C1688 C 0.11781 0.61459 0.48033 0.0
C1689 C 0.10171 0.61138 0.45702 0.0
C1690 C 0.1187 0.59592 0.49334 0.0
C1691 C 0.10319 0.57351 0.48268 0.0
C1692 C 0.08716 0.57016 0.45877 0.0
C1693 C 0.08658 0.58915 0.44626 0.0
C1694 C 0.13598 0.60015 0.51888 0.0
C1695 C 0.07042 0.5465 0.44672 0.0
C1696 C 0.11744 0.52663 0.49924 0.0
C1697 C 0.10371 0.51586 0.52566 0.0
C1698 C 0.11735 0.54534 0.48485 0.0
C1699 C 0.10327 0.55351 0.49728 0.0
C1700 C 0.0894 0.54273 0.52394 0.0
C1701 C 0.08976 0.52402 0.53778 0.0
C1702 C 0.1323 0.55638 0.45637 0.0
C1703 C 0.07424 0.55103 0.53795 0.0
H1704 H 0.12958 0.63171 0.48877 0.0
H1705 H 0.07414 0.58652 0.42817 0.0
H1706 H 0.12698 0.59141 0.54091 0.0
H1707 H 0.14686 0.59283 0.51192 0.0
H1708 H 0.14724 0.61868 0.52395 0.0
H1709 H 0.05961 0.54689 0.42724 0.0
H1710 H 0.07978 0.5379 0.43818 0.0
H1711 H 0.05906 0.5359 0.46616 0.0
H1712 H 0.12823 0.5204 0.48969 0.0
H1713 H 0.07912 0.51582 0.5582 0.0
H1714 H 0.14464 0.57467 0.46132 0.0
H1715 H 0.12163 0.55586 0.43614 0.0
H1716 H 0.14206 0.5478 0.44939 0.0
H1717 H 0.08478 0.56917 0.54534 0.0
H1718 H 0.06444 0.54071 0.55868 0.0
H1719 H 0.06193 0.55029 0.51998 0.0
C1720 C 0.60727 0.14346 0.03494 0.0
C1721 C 0.61303 0.12793 0.02171 0.0
C1722 C 0.58879 0.14533 0.02326 0.0
C1723 C 0.57571 0.13124 0.99788 0.0
C1724 C 0.58159 0.11572 0.98421 0.0
C1725 C 0.60022 0.11429 0.99623 0.0
C1726 C 0.58311 0.16219 0.03829 0.0
C1727 C 0.56796 0.10035 0.95719 0.0
C1728 C 0.51461 0.11867 0.98728 0.0
C1729 C 0.51691 0.13318 0.96213 0.0
C1730 C 0.53366 0.11802 -0.00068 0.0
C1731 C 0.55555 0.13235 0.98603 0.0
C1732 C 0.55807 0.14732 0.961 0.0
C1733 C 0.53869 0.1475 0.94927 0.0
C1734 C 0.53029 0.10175 0.02593 0.0
C1735 C 0.58119 0.16295 0.9464 0.0
H1736 H 0.61713 0.15411 0.05457 0.0
H1737 H 0.60454 0.10223 0.9859 0.0
H1738 H 0.58312 0.17408 0.0202 0.0
H1739 H 0.56565 0.15292 0.04858 0.0
H1740 H 0.59542 0.17241 0.05717 0.0
H1741 H 0.57501 0.08949 0.94886 0.0
H1742 H 0.54993 0.08902 0.96459 0.0
H1743 H 0.56776 0.1108 0.93714 0.0
H1744 H 0.49784 0.10752 0.99731 0.0
H1745 H 0.54063 0.15881 0.92989 0.0
H1746 H 0.54126 0.11134 0.04624 0.0
H1747 H 0.53559 0.08935 0.01824 0.0
H1748 H 0.51221 0.09204 0.03401 0.0
H1749 H 0.59346 0.17396 0.96479 0.0
H1750 H 0.58035 0.17411 0.92779 0.0
H1751 H 0.58813 0.15262 0.93587 0.0
C1752 C 0.48474 0.56863 0.55661 0.0
C1753 C 0.49356 0.59074 0.54417 0.0
C1754 C 0.46474 0.55009 0.54431 0.0
C1755 C 0.4533 0.55377 0.51896 0.0
C1756 C 0.46204 0.57605 0.5064 0.0
C1757 C 0.48207 0.59428 0.51916 0.0
C1758 C 0.4559 0.52655 0.55832 0.0
C1759 C 0.45031 0.58062 0.47934 0.0
C1760 C 0.41439 0.50291 0.46762 0.0
C1761 C 0.39267 0.49686 0.47952 0.0
C1762 C 0.43426 0.52144 0.4802 0.0
C1763 C 0.43236 0.53422 0.50528 0.0
C1764 C 0.4105 0.52828 0.51733 0.0
C1765 C 0.3909 0.50967 0.50429 0.0
C1766 C 0.4573 0.52729 0.46672 0.0
C1767 C 0.40783 0.54155 0.54406 0.0
H1768 H 0.4935 0.56574 0.57596 0.0
H1769 H 0.48876 0.61131 0.50941 0.0
H1770 H 0.4381 0.5197 0.56685 0.0
H1771 H 0.45547 0.51461 0.53999 0.0
H1772 H 0.46663 0.52663 0.57825 0.0
H1773 H 0.45914 0.59899 0.47255 0.0
H1774 H 0.44969 0.57039 0.45851 0.0
H1775 H 0.43235 0.57521 0.48579 0.0
H1776 H 0.41593 0.49312 0.44848 0.0
H1777 H 0.37418 0.50511 0.51362 0.0
H1778 H 0.4682 0.52616 0.48542 0.0
H1779 H 0.46626 0.54518 0.4579 0.0
H1780 H 0.45582 0.51573 0.44709 0.0
H1781 H 0.41723 0.54085 0.56511 0.0
H1782 H 0.38961 0.5348 0.55061 0.0
H1783 H 0.41542 0.55983 0.5374 0.0
C1784 C 0.90271 0.40824 0.93223 0.0
C1785 C 0.89164 0.38638 0.94596 0.0
C1786 C 0.90184 0.42661 0.94635 0.0
C1787 C 0.88977 0.42306 0.975 0.0
C1788 C 0.87836 0.401 0.98881 0.0
C1789 C 0.87935 0.3829 0.97406 0.0
C1790 C 0.91406 0.44988 0.93081 0.0
C1791 C 0.86544 0.3966 0.01948 0.0
C1792 C 0.9065 0.47401 0.02867 0.0
C1793 C 0.88879 0.47879 0.02318 0.0
C1794 C 0.90707 0.45599 0.01301 0.0
C1795 C 0.88963 0.44256 0.9911 0.0
C1796 C 0.87187 0.44748 0.9851 0.0
C1797 C 0.8716 0.46548 0.00135 0.0
C1798 C 0.92618 0.45113 0.02022 0.0
C1799 C 0.85311 0.43365 0.96167 0.0
H1800 H 0.91215 0.41104 0.91044 0.0
H1801 H 0.87076 0.36607 0.98485 0.0
H1802 H 0.90191 0.4562 0.92674 0.0
H1803 H 0.92774 0.46235 0.94657 0.0
H1804 H 0.9219 0.44957 0.90792 0.0
H1805 H 0.85711 0.37834 0.02679 0.0
H1806 H 0.87734 0.40729 0.03842 0.0
H1807 H 0.85208 0.40154 0.01729 0.0
H1808 H 0.91982 0.48417 0.04556 0.0
H1809 H 0.85791 0.46914 0.99689 0.0
H1810 H 0.93562 0.45211 0.99832 0.0
H1811 H 0.91894 0.43348 0.02962 0.0
H1812 H 0.93855 0.46331 0.03767 0.0
H1813 H 0.86065 0.43402 0.9383 0.0
H1814 H 0.84093 0.44011 0.959 0.0
H1815 H 0.8434 0.41548 0.96929 0.0
C1816 C 0.46111 0.86712 0.44161 0.0
C1817 C 0.47251 0.85622 0.45391 0.0
C1818 C 0.44481 0.86927 0.45957 0.0
C1819 C 0.43996 0.86048 0.49066 0.0
C1820 C 0.45095 0.84892 0.50291 0.0
C1821 C 0.46702 0.84683 0.48433 0.0
C1822 C 0.43321 0.88147 0.44558 0.0
C1823 C 0.4463 0.83943 0.53602 0.0
C1824 C 0.41761 0.88836 0.5472 0.0
C1825 C 0.39411 0.87236 0.54777 0.0
C1826 C 0.43276 0.88451 0.52907 0.0
C1827 C 0.42415 0.86429 0.51081 0.0
C1828 C 0.40048 0.84798 0.51147 0.0
C1829 C 0.38574 0.85215 0.53009 0.0
C1830 C 0.45796 0.90218 0.52923 0.0
C1831 C 0.39067 0.82633 0.49209 0.0
H1832 H 0.46516 0.87431 0.41807 0.0
H1833 H 0.47577 0.83841 0.49403 0.0
H1834 H 0.41433 0.87053 0.44739 0.0
H1835 H 0.43816 0.89739 0.45902 0.0
H1836 H 0.43784 0.88606 0.42045 0.0
H1837 H 0.45546 0.82998 0.54149 0.0
H1838 H 0.45176 0.85364 0.55318 0.0
H1839 H 0.42767 0.82773 0.53949 0.0
H1840 H 0.42421 0.90395 0.56091 0.0
H1841 H 0.36758 0.83975 0.53032 0.0
H1842 H 0.46356 0.90914 0.50514 0.0
H1843 H 0.46815 0.89412 0.5364 0.0
H1844 H 0.46199 0.91664 0.54546 0.0
H1845 H 0.39398 0.83072 0.46671 0.0
H1846 H 0.37192 0.8152 0.49561 0.0
H1847 H 0.39922 0.81643 0.49831 0.0
loop_
_geom_bond_atom_site_label_1
_geom_bond_atom_site_label_2
_geom_bond_distance
_geom_bond_site_symmetry_2
_ccdc_geom_bond_type
C0 O1 1.160 . S
C0 O7 1.185 . S
O1 C0 1.160 . S
O2 Zn3 1.899 . S
O2 C10 1.284 . S
Zn3 O2 1.899 . S
Zn3 O4 2.032 . S
Zn3 O7 2.086 . S
Zn3 O12 1.977 . S
O4 Zn3 2.032 . S
O4 C8 1.278 . S
C5 O6 1.203 . S
C5 O12 1.267 . S
O6 C5 1.203 . S
O7 C0 1.185 . S
O7 Zn3 2.086 . S
C8 O4 1.278 . S
C8 O9 1.211 . S
O9 C8 1.211 . S
C10 O2 1.284 . S
C10 O11 1.273 . S
O11 C10 1.273 . S
O12 Zn3 1.977 . S
O12 C5 1.267 . S
C13 O14 1.160 . S
C13 O20 1.185 . S
O14 C13 1.160 . S
O15 Zn16 1.899 . S
O15 C23 1.284 . S
Zn16 O15 1.899 . S
Zn16 O17 2.032 . S
Zn16 O20 2.086 . S
Zn16 O25 1.977 . S
O17 Zn16 2.032 . S
O17 C21 1.278 . S
C18 O19 1.203 . S
C18 O25 1.267 . S
O19 C18 1.203 . S
O20 C13 1.185 . S
O20 Zn16 2.086 . S
C21 O17 1.278 . S
C21 O22 1.211 . S
O22 C21 1.211 . S
C23 O15 1.284 . S
C23 O24 1.273 . S
O24 C23 1.273 . S
O25 Zn16 1.977 . S
O25 C18 1.267 . S
C26 O27 1.160 . S
C26 O33 1.185 . S
O27 C26 1.160 . S
O28 Zn29 1.899 . S
O28 C36 1.284 . S
Zn29 O28 1.899 . S
Zn29 O30 2.032 . S
Zn29 O33 2.086 . S
Zn29 O38 1.977 . S
O30 Zn29 2.032 . S
O30 C34 1.278 . S
C31 O32 1.203 . S
C31 O38 1.267 . S
O32 C31 1.203 . S
O33 C26 1.185 . S
O33 Zn29 2.086 . S
C34 O30 1.278 . S
C34 O35 1.211 . S
O35 C34 1.211 . S
C36 O28 1.284 . S
C36 O37 1.273 . S
O37 C36 1.273 . S
O38 Zn29 1.977 . S
O38 C31 1.267 . S
C39 O40 1.160 . S
C39 O46 1.185 . S
O40 C39 1.160 . S
O41 Zn42 1.899 . S
O41 C49 1.284 . S
Zn42 O41 1.899 . S
Zn42 O43 2.032 . S
Zn42 O46 2.086 . S
Zn42 O51 1.977 . S
O43 Zn42 2.032 . S
O43 C47 1.278 . S
C44 O45 1.203 . S
C44 O51 1.267 . S
O45 C44 1.203 . S
O46 C39 1.185 . S
O46 Zn42 2.086 . S
C47 O43 1.278 . S
C47 O48 1.211 . S
O48 C47 1.211 . S
C49 O41 1.284 . S
C49 O50 1.273 . S
O50 C49 1.273 . S
O51 Zn42 1.977 . S
O51 C44 1.267 . S
C52 O53 1.160 . S
C52 O59 1.185 . S
O53 C52 1.160 . S
O54 Zn55 1.899 . S
O54 C62 1.284 . S
Zn55 O54 1.899 . S
Zn55 O56 2.032 . S
Zn55 O59 2.086 . S
Zn55 O64 1.977 . S
O56 Zn55 2.032 . S
O56 C60 1.278 . S
C57 O58 1.203 . S
C57 O64 1.267 . S
O58 C57 1.203 . S
O59 C52 1.185 . S
O59 Zn55 2.086 . S
C60 O56 1.278 . S
C60 O61 1.211 . S
O61 C60 1.211 . S
C62 O54 1.284 . S
C62 O63 1.273 . S
O63 C62 1.273 . S
O64 Zn55 1.977 . S
O64 C57 1.267 . S
C65 O66 1.160 . S
C65 O72 1.185 . S
O66 C65 1.160 . S
O67 Zn68 1.899 . S
O67 C75 1.284 . S
Zn68 O67 1.899 . S
Zn68 O69 2.032 . S
Zn68 O72 2.086 . S
Zn68 O77 1.977 . S
O69 Zn68 2.032 . S
O69 C73 1.278 . S
C70 O71 1.203 . S
C70 O77 1.267 . S
O71 C70 1.203 . S
O72 C65 1.185 . S
O72 Zn68 2.086 . S
C73 O69 1.278 . S
C73 O74 1.211 . S
O74 C73 1.211 . S
C75 O67 1.284 . S
C75 O76 1.273 . S
O76 C75 1.273 . S
O77 Zn68 1.977 . S
O77 C70 1.267 . S
C78 O79 1.160 . S
C78 O85 1.185 . S
O79 C78 1.160 . S
O80 Zn81 1.899 . S
O80 C88 1.284 . S
Zn81 O80 1.899 . S
Zn81 O82 2.032 . S
Zn81 O85 2.086 . S
Zn81 O90 1.977 . S
O82 Zn81 2.032 . S
O82 C86 1.278 . S
C83 O84 1.203 . S
C83 O90 1.267 . S
O84 C83 1.203 . S
O85 C78 1.185 . S
O85 Zn81 2.086 . S
C86 O82 1.278 . S
C86 O87 1.211 . S
O87 C86 1.211 . S
C88 O80 1.284 . S
C88 O89 1.273 . S
O89 C88 1.273 . S
O90 Zn81 1.977 . S
O90 C83 1.267 . S
C91 O92 1.160 . S
C91 O98 1.185 . S
O92 C91 1.160 . S
O93 Zn94 1.899 . S
O93 C101 1.284 . S
Zn94 O93 1.899 . S
Zn94 O95 2.032 . S
Zn94 O98 2.086 . S
Zn94 O103 1.977 . S
O95 Zn94 2.032 . S
O95 C99 1.278 . S
C96 O97 1.203 . S
C96 O103 1.267 . S
O97 C96 1.203 . S
O98 C91 1.185 . S
O98 Zn94 2.086 . S
C99 O95 1.278 . S
C99 O100 1.211 . S
O100 C99 1.211 . S
C101 O93 1.284 . S
C101 O102 1.273 . S
O102 C101 1.273 . S
O103 Zn94 1.977 . S
O103 C96 1.267 . S
C104 O105 1.160 . S
C104 O111 1.185 . S
O105 C104 1.160 . S
O106 Zn107 1.899 . S
O106 C114 1.284 . S
Zn107 O106 1.899 . S
Zn107 O108 2.032 . S
Zn107 O111 2.086 . S
Zn107 O116 1.977 . S
O108 Zn107 2.032 . S
O108 C112 1.278 . S
C109 O110 1.203 . S
C109 O116 1.267 . S
O110 C109 1.203 . S
O111 C104 1.185 . S
O111 Zn107 2.086 . S
C112 O108 1.278 . S
C112 O113 1.211 . S
O113 C112 1.211 . S
C114 O106 1.284 . S
C114 O115 1.273 . S
O115 C114 1.273 . S
O116 Zn107 1.977 . S
O116 C109 1.267 . S
C117 O118 1.160 . S
C117 O124 1.185 . S
O118 C117 1.160 . S
O119 Zn120 1.899 . S
O119 C127 1.284 . S
Zn120 O119 1.899 . S
Zn120 O121 2.032 . S
Zn120 O124 2.086 . S
Zn120 O129 1.977 . S
O121 Zn120 2.032 . S
O121 C125 1.278 . S
C122 O123 1.203 . S
C122 O129 1.267 . S
O123 C122 1.203 . S
O124 C117 1.185 . S
O124 Zn120 2.086 . S
C125 O121 1.278 . S
C125 O126 1.211 . S
O126 C125 1.211 . S
C127 O119 1.284 . S
C127 O128 1.273 . S
O128 C127 1.273 . S
O129 Zn120 1.977 . S
O129 C122 1.267 . S
C130 O131 1.160 . S
C130 O137 1.185 . S
O131 C130 1.160 . S
O132 Zn133 1.899 . S
O132 C140 1.284 . S
Zn133 O132 1.899 . S
Zn133 O134 2.032 . S
Zn133 O137 2.086 . S
Zn133 O142 1.977 . S
O134 Zn133 2.032 . S
O134 C138 1.278 . S
C135 O136 1.203 . S
C135 O142 1.267 . S
O136 C135 1.203 . S
O137 C130 1.185 . S
O137 Zn133 2.086 . S
C138 O134 1.278 . S
C138 O139 1.211 . S
O139 C138 1.211 . S
C140 O132 1.284 . S
C140 O141 1.273 . S
O141 C140 1.273 . S
O142 Zn133 1.977 . S
O142 C135 1.267 . S
C143 O144 1.160 . S
C143 O150 1.185 . S
O144 C143 1.160 . S
O145 Zn146 1.899 . S
O145 C153 1.284 . S
Zn146 O145 1.899 . S
Zn146 O147 2.032 . S
Zn146 O150 2.086 . S
Zn146 O155 1.977 . S
O147 Zn146 2.032 . S
O147 C151 1.278 . S
C148 O149 1.203 . S
C148 O155 1.267 . S
O149 C148 1.203 . S
O150 C143 1.185 . S
O150 Zn146 2.086 . S
C151 O147 1.278 . S
C151 O152 1.211 . S
O152 C151 1.211 . S
C153 O145 1.284 . S
C153 O154 1.273 . S
O154 C153 1.273 . S
O155 Zn146 1.977 . S
O155 C148 1.267 . S
C156 O157 1.160 . S
C156 O163 1.185 . S
O157 C156 1.160 . S
O158 Zn159 1.899 . S
O158 C166 1.284 . S
Zn159 O158 1.899 . S
Zn159 O160 2.032 . S
Zn159 O163 2.086 . S
Zn159 O168 1.977 . S
O160 Zn159 2.032 . S
O160 C164 1.278 . S
C161 O162 1.203 . S
C161 O168 1.267 . S
O162 C161 1.203 . S
O163 C156 1.185 . S
O163 Zn159 2.086 . S
C164 O160 1.278 . S
C164 O165 1.211 . S
O165 C164 1.211 . S
C166 O158 1.284 . S
C166 O167 1.273 . S
O167 C166 1.273 . S
O168 Zn159 1.977 . S
O168 C161 1.267 . S
C169 O170 1.160 . S
C169 O176 1.185 . S
O170 C169 1.160 . S
O171 Zn172 1.899 . S
O171 C179 1.284 . S
Zn172 O171 1.899 . S
Zn172 O173 2.032 . S
Zn172 O176 2.086 . S
Zn172 O181 1.977 . S
O173 Zn172 2.032 . S
O173 C177 1.278 . S
C174 O175 1.203 . S
C174 O181 1.267 . S
O175 C174 1.203 . S
O176 C169 1.185 . S
O176 Zn172 2.086 . S
C177 O173 1.278 . S
C177 O178 1.211 . S
O178 C177 1.211 . S
C179 O171 1.284 . S
C179 O180 1.273 . S
O180 C179 1.273 . S
O181 Zn172 1.977 . S
O181 C174 1.267 . S
C182 O183 1.160 . S
C182 O189 1.185 . S
O183 C182 1.160 . S
O184 Zn185 1.899 . S
O184 C192 1.284 . S
Zn185 O184 1.899 . S
Zn185 O186 2.032 . S
Zn185 O189 2.086 . S
Zn185 O194 1.977 . S
O186 Zn185 2.032 . S
O186 C190 1.278 . S
C187 O188 1.203 . S
C187 O194 1.267 . S
O188 C187 1.203 . S
O189 C182 1.185 . S
O189 Zn185 2.086 . S
C190 O186 1.278 . S
C190 O191 1.211 . S
O191 C190 1.211 . S
C192 O184 1.284 . S
C192 O193 1.273 . S
O193 C192 1.273 . S
O194 Zn185 1.977 . S
O194 C187 1.267 . S
C195 O196 1.160 . S
C195 O202 1.185 . S
O196 C195 1.160 . S
O197 Zn198 1.899 . S
O197 C205 1.284 . S
Zn198 O197 1.899 . S
Zn198 O199 2.032 . S
Zn198 O202 2.086 . S
Zn198 O207 1.977 . S
O199 Zn198 2.032 . S
O199 C203 1.278 . S
C200 O201 1.203 . S
C200 O207 1.267 . S
O201 C200 1.203 . S
O202 C195 1.185 . S
O202 Zn198 2.086 . S
C203 O199 1.278 . S
C203 O204 1.211 . S
O204 C203 1.211 . S
C205 O197 1.284 . S
C205 O206 1.273 . S
O206 C205 1.273 . S
O207 Zn198 1.977 . S
O207 C200 1.267 . S
C208 O209 1.160 . S
C208 O215 1.185 . S
O209 C208 1.160 . S
O210 Zn211 1.899 . S
O210 C218 1.284 . S
Zn211 O210 1.899 . S
Zn211 O212 2.032 . S
Zn211 O215 2.086 . S
Zn211 O220 1.977 . S
O212 Zn211 2.032 . S
O212 C216 1.278 . S
C213 O214 1.203 . S
C213 O220 1.267 . S
O214 C213 1.203 . S
O215 C208 1.185 . S
O215 Zn211 2.086 . S
C216 O212 1.278 . S
C216 O217 1.211 . S
O217 C216 1.211 . S
C218 O210 1.284 . S
C218 O219 1.273 . S
O219 C218 1.273 . S
O220 Zn211 1.977 . S
O220 C213 1.267 . S
C221 O222 1.160 . S
C221 O228 1.185 . S
O222 C221 1.160 . S
O223 Zn224 1.899 . S
O223 C231 1.284 . S
Zn224 O223 1.899 . S
Zn224 O225 2.032 . S
Zn224 O228 2.086 . S
Zn224 O233 1.977 . S
O225 Zn224 2.032 . S
O225 C229 1.278 . S
C226 O227 1.203 . S
C226 O233 1.267 . S
O227 C226 1.203 . S
O228 C221 1.185 . S
O228 Zn224 2.086 . S
C229 O225 1.278 . S
C229 O230 1.211 . S
O230 C229 1.211 . S
C231 O223 1.284 . S
C231 O232 1.273 . S
O232 C231 1.273 . S
O233 Zn224 1.977 . S
O233 C226 1.267 . S
C234 O235 1.160 . S
C234 O241 1.185 . S
O235 C234 1.160 . S
O236 Zn237 1.899 . S
O236 C244 1.284 . S
Zn237 O236 1.899 . S
Zn237 O238 2.032 . S
Zn237 O241 2.086 . S
Zn237 O246 1.977 . S
O238 Zn237 2.032 . S
O238 C242 1.278 . S
C239 O240 1.203 . S
C239 O246 1.267 . S
O240 C239 1.203 . S
O241 C234 1.185 . S
O241 Zn237 2.086 . S
C242 O238 1.278 . S
C242 O243 1.211 . S
O243 C242 1.211 . S
C244 O236 1.284 . S
C244 O245 1.273 . S
O245 C244 1.273 . S
O246 Zn237 1.977 . S
O246 C239 1.267 . S
C247 O248 1.160 . S
C247 O254 1.185 . S
O248 C247 1.160 . S
O249 Zn250 1.899 . S
O249 C257 1.284 . S
Zn250 O249 1.899 . S
Zn250 O251 2.032 . S
Zn250 O254 2.086 . S
Zn250 O259 1.977 . S
O251 Zn250 2.032 . S
O251 C255 1.278 . S
C252 O253 1.203 . S
C252 O259 1.267 . S
O253 C252 1.203 . S
O254 C247 1.185 . S
O254 Zn250 2.086 . S
C255 O251 1.278 . S
C255 O256 1.211 . S
O256 C255 1.211 . S
C257 O249 1.284 . S
C257 O258 1.273 . S
O258 C257 1.273 . S
O259 Zn250 1.977 . S
O259 C252 1.267 . S
C260 O261 1.160 . S
C260 O267 1.185 . S
O261 C260 1.160 . S
O262 Zn263 1.899 . S
O262 C270 1.284 . S
Zn263 O262 1.899 . S
Zn263 O264 2.032 . S
Zn263 O267 2.086 . S
Zn263 O272 1.977 . S
O264 Zn263 2.032 . S
O264 C268 1.278 . S
C265 O266 1.203 . S
C265 O272 1.267 . S
O266 C265 1.203 . S
O267 C260 1.185 . S
O267 Zn263 2.086 . S
C268 O264 1.278 . S
C268 O269 1.211 . S
O269 C268 1.211 . S
C270 O262 1.284 . S
C270 O271 1.273 . S
O271 C270 1.273 . S
O272 Zn263 1.977 . S
O272 C265 1.267 . S
C273 O274 1.160 . S
C273 O280 1.185 . S
O274 C273 1.160 . S
O275 Zn276 1.899 . S
O275 C283 1.284 . S
Zn276 O275 1.899 . S
Zn276 O277 2.032 . S
Zn276 O280 2.086 . S
Zn276 O285 1.977 . S
O277 Zn276 2.032 . S
O277 C281 1.278 . S
C278 O279 1.203 . S
C278 O285 1.267 . S
O279 C278 1.203 . S
O280 C273 1.185 . S
O280 Zn276 2.086 . S
C281 O277 1.278 . S
C281 O282 1.211 . S
O282 C281 1.211 . S
C283 O275 1.284 . S
C283 O284 1.273 . S
O284 C283 1.273 . S
O285 Zn276 1.977 . S
O285 C278 1.267 . S
C286 O287 1.160 . S
C286 O293 1.185 . S
O287 C286 1.160 . S
O288 Zn289 1.899 . S
O288 C296 1.284 . S
Zn289 O288 1.899 . S
Zn289 O290 2.032 . S
Zn289 O293 2.086 . S
Zn289 O298 1.977 . S
O290 Zn289 2.032 . S
O290 C294 1.278 . S
C291 O292 1.203 . S
C291 O298 1.267 . S
O292 C291 1.203 . S
O293 C286 1.185 . S
O293 Zn289 2.086 . S
C294 O290 1.278 . S
C294 O295 1.211 . S
O295 C294 1.211 . S
C296 O288 1.284 . S
C296 O297 1.273 . S
O297 C296 1.273 . S
O298 Zn289 1.977 . S
O298 C291 1.267 . S
C299 O300 1.160 . S
C299 O306 1.185 . S
O300 C299 1.160 . S
O301 Zn302 1.899 . S
O301 C309 1.284 . S
Zn302 O301 1.899 . S
Zn302 O303 2.032 . S
Zn302 O306 2.086 . S
Zn302 O311 1.977 . S
O303 Zn302 2.032 . S
O303 C307 1.278 . S
C304 O305 1.203 . S
C304 O311 1.267 . S
O305 C304 1.203 . S
O306 C299 1.185 . S
O306 Zn302 2.086 . S
C307 O303 1.278 . S
C307 O308 1.211 . S
O308 C307 1.211 . S
C309 O301 1.284 . S
C309 O310 1.273 . S
O310 C309 1.273 . S
O311 Zn302 1.977 . S
O311 C304 1.267 . S
C312 C313 1.391 . S
C312 C314 1.394 . S
C312 H328 0.931 . S
C313 C312 1.391 . S
C313 C317 1.376 . S
C314 C312 1.394 . S
C314 C315 1.369 . S
C314 C318 1.531 . S
C315 C314 1.369 . S
C315 C316 1.410 . S
C315 C323 1.503 . S
C316 C315 1.410 . S
C316 C317 1.392 . S
C316 C319 1.511 . S
C317 C313 1.376 . S
C317 C316 1.392 . S
C317 H329 0.929 . S
C318 C314 1.531 . S
C318 H330 0.960 . S
C318 H331 0.962 . S
C318 H332 0.960 . S
C319 C316 1.511 . S
C319 H333 0.961 . S
C319 H334 0.961 . S
C319 H335 0.961 . S
C320 C321 1.370 . S
C320 C322 1.363 . S
C320 H336 0.931 . S
C321 C320 1.370 . S
C321 C325 1.408 . S
C322 C320 1.363 . S
C322 C323 1.370 . S
C322 C326 1.524 . S
C323 C315 1.503 . S
C323 C322 1.370 . S
C323 C324 1.403 . S
C324 C323 1.403 . S
C324 C325 1.404 . S
C324 C327 1.539 . S
C325 C321 1.408 . S
C325 C324 1.404 . S
C325 H337 0.930 . S
C326 C322 1.524 . S
C326 H338 0.956 . S
C326 H339 0.961 . S
C326 H340 0.961 . S
C327 C324 1.539 . S
C327 H341 0.958 . S
C327 H342 0.961 . S
C327 H343 0.960 . S
H328 C312 0.931 . S
H329 C317 0.929 . S
H330 C318 0.960 . S
H331 C318 0.962 . S
H332 C318 0.960 . S
H333 C319 0.961 . S
H334 C319 0.961 . S
H335 C319 0.961 . S
H336 C320 0.931 . S
H337 C325 0.930 . S
H338 C326 0.956 . S
H339 C326 0.961 . S
H340 C326 0.961 . S
H341 C327 0.958 . S
H342 C327 0.961 . S
H343 C327 0.960 . S
C344 C345 1.391 . S
C344 C346 1.394 . S
C344 H360 0.931 . S
C345 C344 1.391 . S
C345 C349 1.376 . S
C346 C344 1.394 . S
C346 C347 1.369 . S
C346 C350 1.531 . S
C347 C346 1.369 . S
C347 C348 1.410 . S
C347 C355 1.503 . S
C348 C347 1.410 . S
C348 C349 1.392 . S
C348 C351 1.511 . S
C349 C345 1.376 . S
C349 C348 1.392 . S
C349 H361 0.929 . S
C350 C346 1.531 . S
C350 H362 0.960 . S
C350 H363 0.962 . S
C350 H364 0.960 . S
C351 C348 1.511 . S
C351 H365 0.961 . S
C351 H366 0.961 . S
C351 H367 0.961 . S
C352 C353 1.370 . S
C352 C354 1.363 . S
C352 H368 0.931 . S
C353 C352 1.370 . S
C353 C357 1.408 . S
C354 C352 1.363 . S
C354 C355 1.370 . S
C354 C358 1.524 . S
C355 C347 1.503 . S
C355 C354 1.370 . S
C355 C356 1.403 . S
C356 C355 1.403 . S
C356 C357 1.404 . S
C356 C359 1.539 . S
C357 C353 1.408 . S
C357 C356 1.404 . S
C357 H369 0.930 . S
C358 C354 1.524 . S
C358 H370 0.956 . S
C358 H371 0.961 . S
C358 H372 0.961 . S
C359 C356 1.539 . S
C359 H373 0.958 . S
C359 H374 0.961 . S
C359 H375 0.960 . S
H360 C344 0.931 . S
H361 C349 0.929 . S
H362 C350 0.960 . S
H363 C350 0.962 . S
H364 C350 0.960 . S
H365 C351 0.961 . S
H366 C351 0.961 . S
H367 C351 0.961 . S
H368 C352 0.931 . S
H369 C357 0.930 . S
H370 C358 0.956 . S
H371 C358 0.961 . S
H372 C358 0.961 . S
H373 C359 0.958 . S
H374 C359 0.961 . S
H375 C359 0.960 . S
C376 C377 1.391 . S
C376 C378 1.394 . S
C376 H392 0.931 . S
C377 C376 1.391 . S
C377 C381 1.376 . S
C378 C376 1.394 . S
C378 C379 1.369 . S
C378 C382 1.531 . S
C379 C378 1.369 . S
C379 C380 1.410 . S
C379 C387 1.503 . S
C380 C379 1.410 . S
C380 C381 1.392 . S
C380 C383 1.511 . S
C381 C377 1.376 . S
C381 C380 1.392 . S
C381 H393 0.929 . S
C382 C378 1.531 . S
C382 H394 0.960 . S
C382 H395 0.962 . S
C382 H396 0.960 . S
C383 C380 1.511 . S
C383 H397 0.961 . S
C383 H398 0.961 . S
C383 H399 0.961 . S
C384 C385 1.370 . S
C384 C386 1.363 . S
C384 H400 0.931 . S
C385 C384 1.370 . S
C385 C389 1.408 . S
C386 C384 1.363 . S
C386 C387 1.370 . S
C386 C390 1.524 . S
C387 C379 1.503 . S
C387 C386 1.370 . S
C387 C388 1.403 . S
C388 C387 1.403 . S
C388 C389 1.404 . S
C388 C391 1.539 . S
C389 C385 1.408 . S
C389 C388 1.404 . S
C389 H401 0.930 . S
C390 C386 1.524 . S
C390 H402 0.956 . S
C390 H403 0.961 . S
C390 H404 0.961 . S
C391 C388 1.539 . S
C391 H405 0.958 . S
C391 H406 0.961 . S
C391 H407 0.960 . S
H392 C376 0.931 . S
H393 C381 0.929 . S
H394 C382 0.960 . S
H395 C382 0.962 . S
H396 C382 0.960 . S
H397 C383 0.961 . S
H398 C383 0.961 . S
H399 C383 0.961 . S
H400 C384 0.931 . S
H401 C389 0.930 . S
H402 C390 0.956 . S
H403 C390 0.961 . S
H404 C390 0.961 . S
H405 C391 0.958 . S
H406 C391 0.961 . S
H407 C391 0.960 . S
C408 C409 1.391 . S
C408 C410 1.394 . S
C408 H424 0.931 . S
C409 C408 1.391 . S
C409 C413 1.376 . S
C410 C408 1.394 . S
C410 C411 1.369 . S
C410 C414 1.531 . S
C411 C410 1.369 . S
C411 C412 1.410 . S
C411 C419 1.503 . S
C412 C411 1.410 . S
C412 C413 1.392 . S
C412 C415 1.511 . S
C413 C409 1.376 . S
C413 C412 1.392 . S
C413 H425 0.929 . S
C414 C410 1.531 . S
C414 H426 0.960 . S
C414 H427 0.962 . S
C414 H428 0.960 . S
C415 C412 1.511 . S
C415 H429 0.961 . S
C415 H430 0.961 . S
C415 H431 0.961 . S
C416 C417 1.370 . S
C416 C418 1.363 . S
C416 H432 0.931 . S
C417 C416 1.370 . S
C417 C421 1.408 . S
C418 C416 1.363 . S
C418 C419 1.370 . S
C418 C422 1.524 . S
C419 C411 1.503 . S
C419 C418 1.370 . S
C419 C420 1.403 . S
C420 C419 1.403 . S
C420 C421 1.404 . S
C420 C423 1.539 . S
C421 C417 1.408 . S
C421 C420 1.404 . S
C421 H433 0.930 . S
C422 C418 1.524 . S
C422 H434 0.956 . S
C422 H435 0.961 . S
C422 H436 0.961 . S
C423 C420 1.539 . S
C423 H437 0.958 . S
C423 H438 0.961 . S
C423 H439 0.960 . S
H424 C408 0.931 . S
H425 C413 0.929 . S
H426 C414 0.960 . S
H427 C414 0.962 . S
H428 C414 0.960 . S
H429 C415 0.961 . S
H430 C415 0.961 . S
H431 C415 0.961 . S
H432 C416 0.931 . S
H433 C421 0.930 . S
H434 C422 0.956 . S
H435 C422 0.961 . S
H436 C422 0.961 . S
H437 C423 0.958 . S
H438 C423 0.961 . S
H439 C423 0.960 . S
C440 C441 1.391 . S
C440 C442 1.394 . S
C440 H456 0.931 . S
C441 C440 1.391 . S
C441 C445 1.376 . S
C442 C440 1.394 . S
C442 C443 1.369 . S
C442 C446 1.531 . S
C443 C442 1.369 . S
C443 C444 1.410 . S
C443 C451 1.503 . S
C444 C443 1.410 . S
C444 C445 1.392 . S
C444 C447 1.511 . S
C445 C441 1.376 . S
C445 C444 1.392 . S
C445 H457 0.929 . S
C446 C442 1.531 . S
C446 H458 0.960 . S
C446 H459 0.962 . S
C446 H460 0.960 . S
C447 C444 1.511 . S
C447 H461 0.961 . S
C447 H462 0.961 . S
C447 H463 0.961 . S
C448 C449 1.370 . S
C448 C450 1.363 . S
C448 H464 0.931 . S
C449 C448 1.370 . S
C449 C453 1.408 . S
C450 C448 1.363 . S
C450 C451 1.370 . S
C450 C454 1.524 . S
C451 C443 1.503 . S
C451 C450 1.370 . S
C451 C452 1.403 . S
C452 C451 1.403 . S
C452 C453 1.404 . S
C452 C455 1.539 . S
C453 C449 1.408 . S
C453 C452 1.404 . S
C453 H465 0.930 . S
C454 C450 1.524 . S
C454 H466 0.956 . S
C454 H467 0.961 . S
C454 H468 0.961 . S
C455 C452 1.539 . S
C455 H469 0.958 . S
C455 H470 0.961 . S
C455 H471 0.960 . S
H456 C440 0.931 . S
H457 C445 0.929 . S
H458 C446 0.960 . S
H459 C446 0.962 . S
H460 C446 0.960 . S
H461 C447 0.961 . S
H462 C447 0.961 . S
H463 C447 0.961 . S
H464 C448 0.931 . S
H465 C453 0.930 . S
H466 C454 0.956 . S
H467 C454 0.961 . S
H468 C454 0.961 . S
H469 C455 0.958 . S
H470 C455 0.961 . S
H471 C455 0.960 . S
C472 C473 1.391 . S
C472 C474 1.394 . S
C472 H488 0.931 . S
C473 C472 1.391 . S
C473 C477 1.376 . S
C474 C472 1.394 . S
C474 C475 1.369 . S
C474 C478 1.531 . S
C475 C474 1.369 . S
C475 C476 1.410 . S
C475 C483 1.503 . S
C476 C475 1.410 . S
C476 C477 1.392 . S
C476 C479 1.511 . S
C477 C473 1.376 . S
C477 C476 1.392 . S
C477 H489 0.929 . S
C478 C474 1.531 . S
C478 H490 0.960 . S
C478 H491 0.962 . S
C478 H492 0.960 . S
C479 C476 1.511 . S
C479 H493 0.961 . S
C479 H494 0.961 . S
C479 H495 0.961 . S
C480 C481 1.370 . S
C480 C482 1.363 . S
C480 H496 0.931 . S
C481 C480 1.370 . S
C481 C485 1.408 . S
C482 C480 1.363 . S
C482 C483 1.370 . S
C482 C486 1.524 . S
C483 C475 1.503 . S
C483 C482 1.370 . S
C483 C484 1.403 . S
C484 C483 1.403 . S
C484 C485 1.404 . S
C484 C487 1.539 . S
C485 C481 1.408 . S
C485 C484 1.404 . S
C485 H497 0.930 . S
C486 C482 1.524 . S
C486 H498 0.956 . S
C486 H499 0.961 . S
C486 H500 0.961 . S
C487 C484 1.539 . S
C487 H501 0.958 . S
C487 H502 0.961 . S
C487 H503 0.960 . S
H488 C472 0.931 . S
H489 C477 0.929 . S
H490 C478 0.960 . S
H491 C478 0.962 . S
H492 C478 0.960 . S
H493 C479 0.961 . S
H494 C479 0.961 . S
H495 C479 0.961 . S
H496 C480 0.931 . S
H497 C485 0.930 . S
H498 C486 0.956 . S
H499 C486 0.961 . S
H500 C486 0.961 . S
H501 C487 0.958 . S
H502 C487 0.961 . S
H503 C487 0.960 . S
C504 C505 1.391 . S
C504 C506 1.394 . S
C504 H520 0.931 . S
C505 C504 1.391 . S
C505 C509 1.376 . S
C506 C504 1.394 . S
C506 C507 1.369 . S
C506 C510 1.531 . S
C507 C506 1.369 . S
C507 C508 1.410 . S
C507 C515 1.503 . S
C508 C507 1.410 . S
C508 C509 1.392 . S
C508 C511 1.511 . S
C509 C505 1.376 . S
C509 C508 1.392 . S
C509 H521 0.929 . S
C510 C506 1.531 . S
C510 H522 0.960 . S
C510 H523 0.962 . S
C510 H524 0.960 . S
C511 C508 1.511 . S
C511 H525 0.961 . S
C511 H526 0.961 . S
C511 H527 0.961 . S
C512 C513 1.370 . S
C512 C514 1.363 . S
C512 H528 0.931 . S
C513 C512 1.370 . S
C513 C517 1.408 . S
C514 C512 1.363 . S
C514 C515 1.370 . S
C514 C518 1.524 . S
C515 C507 1.503 . S
C515 C514 1.370 . S
C515 C516 1.403 . S
C516 C515 1.403 . S
C516 C517 1.404 . S
C516 C519 1.539 . S
C517 C513 1.408 . S
C517 C516 1.404 . S
C517 H529 0.930 . S
C518 C514 1.524 . S
C518 H530 0.956 . S
C518 H531 0.961 . S
C518 H532 0.961 . S
C519 C516 1.539 . S
C519 H533 0.958 . S
C519 H534 0.961 . S
C519 H535 0.960 . S
H520 C504 0.931 . S
H521 C509 0.929 . S
H522 C510 0.960 . S
H523 C510 0.962 . S
H524 C510 0.960 . S
H525 C511 0.961 . S
H526 C511 0.961 . S
H527 C511 0.961 . S
H528 C512 0.931 . S
H529 C517 0.930 . S
H530 C518 0.956 . S
H531 C518 0.961 . S
H532 C518 0.961 . S
H533 C519 0.958 . S
H534 C519 0.961 . S
H535 C519 0.960 . S
C536 C537 1.391 . S
C536 C538 1.394 . S
C536 H552 0.931 . S
C537 C536 1.391 . S
C537 C541 1.376 . S
C538 C536 1.394 . S
C538 C539 1.369 . S
C538 C542 1.531 . S
C539 C538 1.369 . S
C539 C540 1.410 . S
C539 C547 1.503 . S
C540 C539 1.410 . S
C540 C541 1.392 . S
C540 C543 1.511 . S
C541 C537 1.376 . S
C541 C540 1.392 . S
C541 H553 0.929 . S
C542 C538 1.531 . S
C542 H554 0.960 . S
C542 H555 0.962 . S
C542 H556 0.960 . S
C543 C540 1.511 . S
C543 H557 0.961 . S
C543 H558 0.961 . S
C543 H559 0.961 . S
C544 C545 1.370 . S
C544 C546 1.363 . S
C544 H560 0.931 . S
C545 C544 1.370 . S
C545 C549 1.408 . S
C546 C544 1.363 . S
C546 C547 1.370 . S
C546 C550 1.524 . S
C547 C539 1.503 . S
C547 C546 1.370 . S
C547 C548 1.403 . S
C548 C547 1.403 . S
C548 C549 1.404 . S
C548 C551 1.539 . S
C549 C545 1.408 . S
C549 C548 1.404 . S
C549 H561 0.930 . S
C550 C546 1.524 . S
C550 H562 0.956 . S
C550 H563 0.961 . S
C550 H564 0.961 . S
C551 C548 1.539 . S
C551 H565 0.958 . S
C551 H566 0.961 . S
C551 H567 0.960 . S
H552 C536 0.931 . S
H553 C541 0.929 . S
H554 C542 0.960 . S
H555 C542 0.962 . S
H556 C542 0.960 . S
H557 C543 0.961 . S
H558 C543 0.961 . S
H559 C543 0.961 . S
H560 C544 0.931 . S
H561 C549 0.930 . S
H562 C550 0.956 . S
H563 C550 0.961 . S
H564 C550 0.961 . S
H565 C551 0.958 . S
H566 C551 0.961 . S
H567 C551 0.960 . S
C568 C569 1.391 . S
C568 C570 1.394 . S
C568 H584 0.931 . S
C569 C568 1.391 . S
C569 C573 1.376 . S
C570 C568 1.394 . S
C570 C571 1.369 . S
C570 C574 1.531 . S
C571 C570 1.369 . S
C571 C572 1.410 . S
C571 C579 1.503 . S
C572 C571 1.410 . S
C572 C573 1.392 . S
C572 C575 1.511 . S
C573 C569 1.376 . S
C573 C572 1.392 . S
C573 H585 0.929 . S
C574 C570 1.531 . S
C574 H586 0.960 . S
C574 H587 0.962 . S
C574 H588 0.960 . S
C575 C572 1.511 . S
C575 H589 0.961 . S
C575 H590 0.961 . S
C575 H591 0.961 . S
C576 C577 1.370 . S
C576 C578 1.363 . S
C576 H592 0.931 . S
C577 C576 1.370 . S
C577 C581 1.408 . S
C578 C576 1.363 . S
C578 C579 1.370 . S
C578 C582 1.524 . S
C579 C571 1.503 . S
C579 C578 1.370 . S
C579 C580 1.403 . S
C580 C579 1.403 . S
C580 C581 1.404 . S
C580 C583 1.539 . S
C581 C577 1.408 . S
C581 C580 1.404 . S
C581 H593 0.930 . S
C582 C578 1.524 . S
C582 H594 0.956 . S
C582 H595 0.961 . S
C582 H596 0.961 . S
C583 C580 1.539 . S
C583 H597 0.958 . S
C583 H598 0.961 . S
C583 H599 0.960 . S
H584 C568 0.931 . S
H585 C573 0.929 . S
H586 C574 0.960 . S
H587 C574 0.962 . S
H588 C574 0.960 . S
H589 C575 0.961 . S
H590 C575 0.961 . S
H591 C575 0.961 . S
H592 C576 0.931 . S
H593 C581 0.930 . S
H594 C582 0.956 . S
H595 C582 0.961 . S
H596 C582 0.961 . S
H597 C583 0.958 . S
H598 C583 0.961 . S
H599 C583 0.960 . S
C600 C601 1.391 . S
C600 C602 1.394 . S
C600 H616 0.931 . S
C601 C600 1.391 . S
C601 C605 1.376 . S
C602 C600 1.394 . S
C602 C603 1.369 . S
C602 C606 1.531 . S
C603 C602 1.369 . S
C603 C604 1.410 . S
C603 C611 1.503 . S
C604 C603 1.410 . S
C604 C605 1.392 . S
C604 C607 1.511 . S
C605 C601 1.376 . S
C605 C604 1.392 . S
C605 H617 0.929 . S
C606 C602 1.531 . S
C606 H618 0.960 . S
C606 H619 0.962 . S
C606 H620 0.960 . S
C607 C604 1.511 . S
C607 H621 0.961 . S
C607 H622 0.961 . S
C607 H623 0.961 . S
C608 C609 1.370 . S
C608 C610 1.363 . S
C608 H624 0.931 . S
C609 C608 1.370 . S
C609 C613 1.408 . S
C610 C608 1.363 . S
C610 C611 1.370 . S
C610 C614 1.524 . S
C611 C603 1.503 . S
C611 C610 1.370 . S
C611 C612 1.403 . S
C612 C611 1.403 . S
C612 C613 1.404 . S
C612 C615 1.539 . S
C613 C609 1.408 . S
C613 C612 1.404 . S
C613 H625 0.930 . S
C614 C610 1.524 . S
C614 H626 0.956 . S
C614 H627 0.961 . S
C614 H628 0.961 . S
C615 C612 1.539 . S
C615 H629 0.958 . S
C615 H630 0.961 . S
C615 H631 0.960 . S
H616 C600 0.931 . S
H617 C605 0.929 . S
H618 C606 0.960 . S
H619 C606 0.962 . S
H620 C606 0.960 . S
H621 C607 0.961 . S
H622 C607 0.961 . S
H623 C607 0.961 . S
H624 C608 0.931 . S
H625 C613 0.930 . S
H626 C614 0.956 . S
H627 C614 0.961 . S
H628 C614 0.961 . S
H629 C615 0.958 . S
H630 C615 0.961 . S
H631 C615 0.960 . S
C632 C633 1.391 . S
C632 C634 1.394 . S
C632 H648 0.931 . S
C633 C632 1.391 . S
C633 C637 1.376 . S
C634 C632 1.394 . S
C634 C635 1.369 . S
C634 C638 1.531 . S
C635 C634 1.369 . S
C635 C636 1.410 . S
C635 C643 1.503 . S
C636 C635 1.410 . S
C636 C637 1.392 . S
C636 C639 1.511 . S
C637 C633 1.376 . S
C637 C636 1.392 . S
C637 H649 0.929 . S
C638 C634 1.531 . S
C638 H650 0.960 . S
C638 H651 0.962 . S
C638 H652 0.960 . S
C639 C636 1.511 . S
C639 H653 0.961 . S
C639 H654 0.961 . S
C639 H655 0.961 . S
C640 C641 1.370 . S
C640 C642 1.363 . S
C640 H656 0.931 . S
C641 C640 1.370 . S
C641 C645 1.408 . S
C642 C640 1.363 . S
C642 C643 1.370 . S
C642 C646 1.524 . S
C643 C635 1.503 . S
C643 C642 1.370 . S
C643 C644 1.403 . S
C644 C643 1.403 . S
C644 C645 1.404 . S
C644 C647 1.539 . S
C645 C641 1.408 . S
C645 C644 1.404 . S
C645 H657 0.930 . S
C646 C642 1.524 . S
C646 H658 0.956 . S
C646 H659 0.961 . S
C646 H660 0.961 . S
C647 C644 1.539 . S
C647 H661 0.958 . S
C647 H662 0.961 . S
C647 H663 0.960 . S
H648 C632 0.931 . S
H649 C637 0.929 . S
H650 C638 0.960 . S
H651 C638 0.962 . S
H652 C638 0.960 . S
H653 C639 0.961 . S
H654 C639 0.961 . S
H655 C639 0.961 . S
H656 C640 0.931 . S
H657 C645 0.930 . S
H658 C646 0.956 . S
H659 C646 0.961 . S
H660 C646 0.961 . S
H661 C647 0.958 . S
H662 C647 0.961 . S
H663 C647 0.960 . S
C664 C665 1.391 . S
C664 C666 1.394 . S
C664 H680 0.931 . S
C665 C664 1.391 . S
C665 C669 1.376 . S
C666 C664 1.394 . S
C666 C667 1.369 . S
C666 C670 1.531 . S
C667 C666 1.369 . S
C667 C668 1.410 . S
C667 C675 1.503 . S
C668 C667 1.410 . S
C668 C669 1.392 . S
C668 C671 1.511 . S
C669 C665 1.376 . S
C669 C668 1.392 . S
C669 H681 0.929 . S
C670 C666 1.531 . S
C670 H682 0.960 . S
C670 H683 0.962 . S
C670 H684 0.960 . S
C671 C668 1.511 . S
C671 H685 0.961 . S
C671 H686 0.961 . S
C671 H687 0.961 . S
C672 C673 1.370 . S
C672 C674 1.363 . S
C672 H688 0.931 . S
C673 C672 1.370 . S
C673 C677 1.408 . S
C674 C672 1.363 . S
C674 C675 1.370 . S
C674 C678 1.524 . S
C675 C667 1.503 . S
C675 C674 1.370 . S
C675 C676 1.403 . S
C676 C675 1.403 . S
C676 C677 1.404 . S
C676 C679 1.539 . S
C677 C673 1.408 . S
C677 C676 1.404 . S
C677 H689 0.930 . S
C678 C674 1.524 . S
C678 H690 0.956 . S
C678 H691 0.961 . S
C678 H692 0.961 . S
C679 C676 1.539 . S
C679 H693 0.958 . S
C679 H694 0.961 . S
C679 H695 0.960 . S
H680 C664 0.931 . S
H681 C669 0.929 . S
H682 C670 0.960 . S
H683 C670 0.962 . S
H684 C670 0.960 . S
H685 C671 0.961 . S
H686 C671 0.961 . S
H687 C671 0.961 . S
H688 C672 0.931 . S
H689 C677 0.930 . S
H690 C678 0.956 . S
H691 C678 0.961 . S
H692 C678 0.961 . S
H693 C679 0.958 . S
H694 C679 0.961 . S
H695 C679 0.960 . S
C696 C697 1.391 1_554 S
C696 C698 1.394 . S
C696 H712 0.931 . S
C697 C696 1.391 1_556 S
C697 C701 1.376 . S
C698 C696 1.394 . S
C698 C699 1.369 1_554 S
C698 C702 1.531 . S
C699 C698 1.369 1_556 S
C699 C700 1.410 . S
C699 C707 1.503 1_556 S
C700 C699 1.410 . S
C700 C701 1.392 . S
C700 C703 1.511 . S
C701 C697 1.376 . S
C701 C700 1.392 . S
C701 H713 0.929 . S
C702 C698 1.531 . S
C702 H714 0.960 . S
C702 H715 0.962 . S
C702 H716 0.960 . S
C703 C700 1.511 . S
C703 H717 0.961 . S
C703 H718 0.961 . S
C703 H719 0.961 . S
C704 C705 1.370 . S
C704 C706 1.363 . S
C704 H720 0.931 . S
C705 C704 1.370 . S
C705 C709 1.408 . S
C706 C704 1.363 . S
C706 C707 1.370 . S
C706 C710 1.524 . S
C707 C699 1.503 1_554 S
C707 C706 1.370 . S
C707 C708 1.403 . S
C708 C707 1.403 . S
C708 C709 1.404 . S
C708 C711 1.539 . S
C709 C705 1.408 . S
C709 C708 1.404 . S
C709 H721 0.930 . S
C710 C706 1.524 . S
C710 H722 0.956 . S
C710 H723 0.961 1_554 S
C710 H724 0.961 . S
C711 C708 1.539 . S
C711 H725 0.958 . S
C711 H726 0.961 1_554 S
C711 H727 0.960 1_554 S
H712 C696 0.931 . S
H713 C701 0.929 . S
H714 C702 0.960 . S
H715 C702 0.962 . S
H716 C702 0.960 . S
H717 C703 0.961 . S
H718 C703 0.961 . S
H719 C703 0.961 . S
H720 C704 0.931 . S
H721 C709 0.930 . S
H722 C710 0.956 . S
H723 C710 0.961 1_556 S
H724 C710 0.961 . S
H725 C711 0.958 . S
H726 C711 0.961 1_556 S
H727 C711 0.960 1_556 S
C728 C729 1.391 . S
C728 C730 1.394 . S
C728 H744 0.931 . S
C729 C728 1.391 . S
C729 C733 1.376 . S
C730 C728 1.394 . S
C730 C731 1.369 . S
C730 C734 1.531 . S
C731 C730 1.369 . S
C731 C732 1.410 . S
C731 C739 1.503 . S
C732 C731 1.410 . S
C732 C733 1.392 . S
C732 C735 1.511 . S
C733 C729 1.376 . S
C733 C732 1.392 . S
C733 H745 0.929 . S
C734 C730 1.531 . S
C734 H746 0.960 . S
C734 H747 0.962 . S
C734 H748 0.960 . S
C735 C732 1.511 . S
C735 H749 0.961 . S
C735 H750 0.961 . S
C735 H751 0.961 . S
C736 C737 1.370 . S
C736 C738 1.363 . S
C736 H752 0.931 . S
C737 C736 1.370 . S
C737 C741 1.408 . S
C738 C736 1.363 . S
C738 C739 1.370 . S
C738 C742 1.524 . S
C739 C731 1.503 . S
C739 C738 1.370 . S
C739 C740 1.403 . S
C740 C739 1.403 . S
C740 C741 1.404 . S
C740 C743 1.539 . S
C741 C737 1.408 . S
C741 C740 1.404 . S
C741 H753 0.930 . S
C742 C738 1.524 . S
C742 H754 0.956 . S
C742 H755 0.961 . S
C742 H756 0.961 . S
C743 C740 1.539 . S
C743 H757 0.958 . S
C743 H758 0.961 . S
C743 H759 0.960 . S
H744 C728 0.931 . S
H745 C733 0.929 . S
H746 C734 0.960 . S
H747 C734 0.962 . S
H748 C734 0.960 . S
H749 C735 0.961 . S
H750 C735 0.961 . S
H751 C735 0.961 . S
H752 C736 0.931 . S
H753 C741 0.930 . S
H754 C742 0.956 . S
H755 C742 0.961 . S
H756 C742 0.961 . S
H757 C743 0.958 . S
H758 C743 0.961 . S
H759 C743 0.960 . S
C760 C761 1.391 . S
C760 C762 1.394 . S
C760 H776 0.931 . S
C761 C760 1.391 . S
C761 C765 1.376 . S
C762 C760 1.394 . S
C762 C763 1.369 . S
C762 C766 1.531 . S
C763 C762 1.369 . S
C763 C764 1.410 . S
C763 C771 1.503 1_554 S
C764 C763 1.410 . S
C764 C765 1.392 . S
C764 C767 1.502 1_554 S
C765 C761 1.376 . S
C765 C764 1.392 . S
C765 H777 0.929 . S
C766 C762 1.531 . S
C766 H778 0.960 . S
C766 H779 0.962 . S
C766 H780 0.960 . S
C767 C764 1.502 1_556 S
C767 H781 0.972 . S
C767 H782 0.981 . S
C767 H783 0.940 1_556 S
C768 C769 1.370 . S
C768 C770 1.363 . S
C768 H784 0.931 . S
C769 C768 1.370 . S
C769 C773 1.408 1_556 S
C770 C768 1.363 . S
C770 C771 1.370 . S
C770 C774 1.524 . S
C771 C763 1.503 1_556 S
C771 C770 1.370 . S
C771 C772 1.403 1_556 S
C772 C771 1.403 1_554 S
C772 C773 1.404 . S
C772 C775 1.539 . S
C773 C769 1.408 1_554 S
C773 C772 1.404 . S
C773 H785 0.930 . S
C774 C770 1.524 . S
C774 H786 0.956 . S
C774 H787 0.961 . S
C774 H788 0.961 . S
C775 C772 1.539 . S
C775 H789 0.958 . S
C775 H790 0.961 . S
C775 H791 0.960 . S
H776 C760 0.931 . S
H777 C765 0.929 . S
H778 C766 0.960 . S
H779 C766 0.962 . S
H780 C766 0.960 . S
H781 C767 0.972 . S
H782 C767 0.981 . S
H783 C767 0.940 1_554 S
H784 C768 0.931 . S
H785 C773 0.930 . S
H786 C774 0.956 . S
H787 C774 0.961 . S
H788 C774 0.961 . S
H789 C775 0.958 . S
H790 C775 0.961 . S
H791 C775 0.960 . S
C792 C793 1.391 . S
C792 C794 1.394 . S
C792 H808 0.931 . S
C793 C792 1.391 . S
C793 C797 1.376 . S
C794 C792 1.394 . S
C794 C795 1.369 . S
C794 C798 1.531 . S
C795 C794 1.369 . S
C795 C796 1.410 . S
C795 C803 1.503 . S
C796 C795 1.410 . S
C796 C797 1.392 . S
C796 C799 1.511 . S
C797 C793 1.376 . S
C797 C796 1.392 . S
C797 H809 0.929 . S
C798 C794 1.531 . S
C798 H810 0.960 . S
C798 H811 0.962 . S
C798 H812 0.960 . S
C799 C796 1.511 . S
C799 H813 0.961 . S
C799 H814 0.961 . S
C799 H815 0.961 . S
C800 C801 1.370 . S
C800 C802 1.363 . S
C800 H816 0.931 . S
C801 C800 1.370 . S
C801 C805 1.408 . S
C802 C800 1.363 . S
C802 C803 1.370 . S
C802 C806 1.524 . S
C803 C795 1.503 . S
C803 C802 1.370 . S
C803 C804 1.403 . S
C804 C803 1.403 . S
C804 C805 1.404 . S
C804 C807 1.539 . S
C805 C801 1.408 . S
C805 C804 1.404 . S
C805 H817 0.930 . S
C806 C802 1.524 . S
C806 H818 0.956 . S
C806 H819 0.961 . S
C806 H820 0.961 . S
C807 C804 1.539 . S
C807 H821 0.958 . S
C807 H822 0.961 . S
C807 H823 0.960 . S
H808 C792 0.931 . S
H809 C797 0.929 . S
H810 C798 0.960 . S
H811 C798 0.962 . S
H812 C798 0.960 . S
H813 C799 0.961 . S
H814 C799 0.961 . S
H815 C799 0.961 . S
H816 C800 0.931 . S
H817 C805 0.930 . S
H818 C806 0.956 . S
H819 C806 0.961 . S
H820 C806 0.961 . S
H821 C807 0.958 . S
H822 C807 0.961 . S
H823 C807 0.960 . S
C824 C825 1.385 1_554 S
C824 C826 1.396 . S
C824 H840 0.934 . S
C825 C824 1.385 1_556 S
C825 C829 1.376 . S
C826 C824 1.396 . S
C826 C827 1.369 1_554 S
C826 C830 1.531 . S
C827 C826 1.369 1_556 S
C827 C828 1.410 . S
C827 C835 1.503 1_556 S
C828 C827 1.410 . S
C828 C829 1.392 . S
C828 C831 1.511 . S
C829 C825 1.376 . S
C829 C828 1.392 . S
C829 H841 0.929 . S
C830 C826 1.531 . S
C830 H842 0.960 . S
C830 H843 0.962 . S
C830 H844 0.960 . S
C831 C828 1.511 . S
C831 H845 0.961 . S
C831 H846 0.961 . S
C831 H847 0.961 . S
C832 C833 1.370 . S
C832 C834 1.367 . S
C832 H848 0.931 . S
C833 C832 1.370 . S
C833 C837 1.408 . S
C834 C832 1.367 . S
C834 C835 1.373 . S
C834 C838 1.518 1_554 S
C835 C827 1.503 1_554 S
C835 C834 1.373 . S
C835 C836 1.403 . S
C836 C835 1.403 . S
C836 C837 1.404 . S
C836 C839 1.539 . S
C837 C833 1.408 . S
C837 C836 1.404 . S
C837 H849 0.930 . S
C838 C834 1.518 1_556 S
C838 H850 0.956 . S
C838 H851 0.961 . S
C838 H852 0.961 . S
C839 C836 1.539 . S
C839 H853 0.958 . S
C839 H854 0.961 . S
C839 H855 0.960 . S
H840 C824 0.934 . S
H841 C829 0.929 . S
H842 C830 0.960 . S
H843 C830 0.962 . S
H844 C830 0.960 . S
H845 C831 0.961 . S
H846 C831 0.961 . S
H847 C831 0.961 . S
H848 C832 0.931 . S
H849 C837 0.930 . S
H850 C838 0.956 . S
H851 C838 0.961 . S
H852 C838 0.961 . S
H853 C839 0.958 . S
H854 C839 0.961 . S
H855 C839 0.960 . S
C856 C857 1.391 . S
C856 C858 1.394 . S
C856 H872 0.931 . S
C857 C856 1.391 . S
C857 C861 1.376 . S
C858 C856 1.394 . S
C858 C859 1.369 . S
C858 C862 1.531 . S
C859 C858 1.369 . S
C859 C860 1.410 . S
C859 C867 1.503 . S
C860 C859 1.410 . S
C860 C861 1.392 . S
C860 C863 1.511 . S
C861 C857 1.376 . S
C861 C860 1.392 . S
C861 H873 0.929 . S
C862 C858 1.531 . S
C862 H874 0.960 . S
C862 H875 0.962 . S
C862 H876 0.960 . S
C863 C860 1.511 . S
C863 H877 0.961 . S
C863 H878 0.961 . S
C863 H879 0.961 . S
C864 C865 1.370 . S
C864 C866 1.363 . S
C864 H880 0.931 . S
C865 C864 1.370 . S
C865 C869 1.408 . S
C866 C864 1.363 . S
C866 C867 1.370 . S
C866 C870 1.524 . S
C867 C859 1.503 . S
C867 C866 1.370 . S
C867 C868 1.403 . S
C868 C867 1.403 . S
C868 C869 1.404 . S
C868 C871 1.539 . S
C869 C865 1.408 . S
C869 C868 1.404 . S
C869 H881 0.930 . S
C870 C866 1.524 . S
C870 H882 0.956 . S
C870 H883 0.961 . S
C870 H884 0.961 . S
C871 C868 1.539 . S
C871 H885 0.958 . S
C871 H886 0.961 . S
C871 H887 0.960 . S
H872 C856 0.931 . S
H873 C861 0.929 . S
H874 C862 0.960 . S
H875 C862 0.962 . S
H876 C862 0.960 . S
H877 C863 0.961 . S
H878 C863 0.961 . S
H879 C863 0.961 . S
H880 C864 0.931 . S
H881 C869 0.930 . S
H882 C870 0.956 . S
H883 C870 0.961 . S
H884 C870 0.961 . S
H885 C871 0.958 . S
H886 C871 0.961 . S
H887 C871 0.960 . S
C888 C889 1.391 . S
C888 C890 1.394 1_554 S
C888 H904 0.931 1_554 S
C889 C888 1.391 . S
C889 C893 1.376 . S
C890 C888 1.394 1_556 S
C890 C891 1.369 1_556 S
C890 C894 1.531 . S
C891 C890 1.369 1_554 S
C891 C892 1.410 . S
C891 C899 1.503 1_554 S
C892 C891 1.410 . S
C892 C893 1.392 . S
C892 C895 1.511 . S
C893 C889 1.376 . S
C893 C892 1.392 . S
C893 H905 0.929 . S
C894 C890 1.531 . S
C894 H906 0.960 . S
C894 H907 0.962 . S
C894 H908 0.960 . S
C895 C892 1.511 . S
C895 H909 0.961 . S
C895 H910 0.961 . S
C895 H911 0.961 . S
C896 C897 1.370 . S
C896 C898 1.363 . S
C896 H912 0.931 . S
C897 C896 1.370 . S
C897 C901 1.408 . S
C898 C896 1.363 . S
C898 C899 1.370 . S
C898 C902 1.524 . S
C899 C891 1.503 1_556 S
C899 C898 1.370 . S
C899 C900 1.403 1_556 S
C900 C899 1.403 1_554 S
C900 C901 1.404 1_554 S
C900 C903 1.539 . S
C901 C897 1.408 . S
C901 C900 1.404 1_556 S
C901 H913 0.930 . S
C902 C898 1.524 . S
C902 H914 0.956 . S
C902 H915 0.961 . S
C902 H916 0.961 . S
C903 C900 1.539 . S
C903 H917 0.958 . S
C903 H918 0.961 . S
C903 H919 0.960 . S
H904 C888 0.931 1_556 S
H905 C893 0.929 . S
H906 C894 0.960 . S
H907 C894 0.962 . S
H908 C894 0.960 . S
H909 C895 0.961 . S
H910 C895 0.961 . S
H911 C895 0.961 . S
H912 C896 0.931 . S
H913 C901 0.930 . S
H914 C902 0.956 . S
H915 C902 0.961 . S
H916 C902 0.961 . S
H917 C903 0.958 . S
H918 C903 0.961 . S
H919 C903 0.960 . S
C920 C921 1.391 . S
C920 C922 1.394 . S
C920 H936 0.931 . S
C921 C920 1.391 . S
C921 C925 1.376 . S
C922 C920 1.394 . S
C922 C923 1.369 . S
C922 C926 1.531 . S
C923 C922 1.369 . S
C923 C924 1.410 . S
C923 C931 1.503 . S
C924 C923 1.410 . S
C924 C925 1.392 . S
C924 C927 1.511 . S
C925 C921 1.376 . S
C925 C924 1.392 . S
C925 H937 0.929 . S
C926 C922 1.531 . S
C926 H938 0.960 . S
C926 H939 0.962 . S
C926 H940 0.960 . S
C927 C924 1.511 . S
C927 H941 0.961 . S
C927 H942 0.961 . S
C927 H943 0.961 . S
C928 C929 1.370 . S
C928 C930 1.363 . S
C928 H944 0.931 . S
C929 C928 1.370 . S
C929 C933 1.408 . S
C930 C928 1.363 . S
C930 C931 1.370 . S
C930 C934 1.524 . S
C931 C923 1.503 . S
C931 C930 1.370 . S
C931 C932 1.403 . S
C932 C931 1.403 . S
C932 C933 1.404 . S
C932 C935 1.539 . S
C933 C929 1.408 . S
C933 C932 1.404 . S
C933 H945 0.930 . S
C934 C930 1.524 . S
C934 H946 0.956 . S
C934 H947 0.961 . S
C934 H948 0.961 . S
C935 C932 1.539 . S
C935 H949 0.958 . S
C935 H950 0.961 . S
C935 H951 0.960 . S
H936 C920 0.931 . S
H937 C925 0.929 . S
H938 C926 0.960 . S
H939 C926 0.962 . S
H940 C926 0.960 . S
H941 C927 0.961 . S
H942 C927 0.961 . S
H943 C927 0.961 . S
H944 C928 0.931 . S
H945 C933 0.930 . S
H946 C934 0.956 . S
H947 C934 0.961 . S
H948 C934 0.961 . S
H949 C935 0.958 . S
H950 C935 0.961 . S
H951 C935 0.960 . S
C952 C953 1.391 . S
C952 C954 1.394 . S
C952 H968 0.931 . S
C953 C952 1.391 . S
C953 C957 1.376 . S
C954 C952 1.394 . S
C954 C955 1.369 . S
C954 C958 1.531 . S
C955 C954 1.369 . S
C955 C956 1.410 1_556 S
C955 C963 1.503 1_556 S
C956 C955 1.410 1_554 S
C956 C957 1.392 1_554 S
C956 C959 1.511 . S
C957 C953 1.376 . S
C957 C956 1.392 1_556 S
C957 H969 0.929 1_556 S
C958 C954 1.531 . S
C958 H970 0.960 . S
C958 H971 0.962 . S
C958 H972 0.960 . S
C959 C956 1.511 . S
C959 H973 0.961 . S
C959 H974 0.961 . S
C959 H975 0.961 . S
C960 C961 1.370 . S
C960 C962 1.363 . S
C960 H976 0.931 . S
C961 C960 1.370 . S
C961 C965 1.408 . S
C962 C960 1.363 . S
C962 C963 1.370 . S
C962 C966 1.524 . S
C963 C955 1.503 1_554 S
C963 C962 1.370 . S
C963 C964 1.403 1_554 S
C964 C963 1.403 1_556 S
C964 C965 1.404 1_556 S
C964 C967 1.539 . S
C965 C961 1.408 . S
C965 C964 1.404 1_554 S
C965 H977 0.930 . S
C966 C962 1.524 . S
C966 H978 0.956 . S
C966 H979 0.961 . S
C966 H980 0.961 . S
C967 C964 1.539 . S
C967 H981 0.958 . S
C967 H982 0.961 . S
C967 H983 0.960 . S
H968 C952 0.931 . S
H969 C957 0.929 1_554 S
H970 C958 0.960 . S
H971 C958 0.962 . S
H972 C958 0.960 . S
H973 C959 0.961 . S
H974 C959 0.961 . S
H975 C959 0.961 . S
H976 C960 0.931 . S
H977 C965 0.930 . S
H978 C966 0.956 . S
H979 C966 0.961 . S
H980 C966 0.961 . S
H981 C967 0.958 . S
H982 C967 0.961 . S
H983 C967 0.960 . S
C984 C985 1.391 . S
C984 C986 1.394 . S
C984 H1000 0.931 . S
C985 C984 1.391 . S
C985 C989 1.376 . S
C986 C984 1.394 . S
C986 C987 1.369 . S
C986 C990 1.531 . S
C987 C986 1.369 . S
C987 C988 1.410 . S
C987 C995 1.503 . S
C988 C987 1.410 . S
C988 C989 1.392 . S
C988 C991 1.511 . S
C989 C985 1.376 . S
C989 C988 1.392 . S
C989 H1001 0.929 . S
C990 C986 1.531 . S
C990 H1002 0.960 . S
C990 H1003 0.962 . S
C990 H1004 0.960 . S
C991 C988 1.511 . S
C991 H1005 0.961 . S
C991 H1006 0.961 . S
C991 H1007 0.961 . S
C992 C993 1.370 . S
C992 C994 1.363 . S
C992 H1008 0.931 . S
C993 C992 1.370 . S
C993 C997 1.408 . S
C994 C992 1.363 . S
C994 C995 1.370 . S
C994 C998 1.524 . S
C995 C987 1.503 . S
C995 C994 1.370 . S
C995 C996 1.403 . S
C996 C995 1.403 . S
C996 C997 1.404 . S
C996 C999 1.539 . S
C997 C993 1.408 . S
C997 C996 1.404 . S
C997 H1009 0.930 . S
C998 C994 1.524 . S
C998 H1010 0.956 . S
C998 H1011 0.961 . S
C998 H1012 0.961 . S
C999 C996 1.539 . S
C999 H1013 0.958 . S
C999 H1014 0.961 . S
C999 H1015 0.960 . S
H1000 C984 0.931 . S
H1001 C989 0.929 . S
H1002 C990 0.960 . S
H1003 C990 0.962 . S
H1004 C990 0.960 . S
H1005 C991 0.961 . S
H1006 C991 0.961 . S
H1007 C991 0.961 . S
H1008 C992 0.931 . S
H1009 C997 0.930 . S
H1010 C998 0.956 . S
H1011 C998 0.961 . S
H1012 C998 0.961 . S
H1013 C999 0.958 . S
H1014 C999 0.961 . S
H1015 C999 0.960 . S
C1016 C1017 1.391 . S
C1016 C1018 1.394 . S
C1016 H1032 0.931 . S
C1017 C1016 1.391 . S
C1017 C1021 1.376 . S
C1018 C1016 1.394 . S
C1018 C1019 1.369 . S
C1018 C1022 1.531 . S
C1019 C1018 1.369 . S
C1019 C1020 1.410 1_556 S
C1019 C1027 1.503 1_556 S
C1020 C1019 1.410 1_554 S
C1020 C1021 1.392 1_554 S
C1020 C1023 1.511 . S
C1021 C1017 1.376 . S
C1021 C1020 1.392 1_556 S
C1021 H1033 0.929 1_556 S
C1022 C1018 1.531 . S
C1022 H1034 0.960 . S
C1022 H1035 0.962 . S
C1022 H1036 0.960 . S
C1023 C1020 1.511 . S
C1023 H1037 0.961 . S
C1023 H1038 0.961 . S
C1023 H1039 0.961 . S
C1024 C1025 1.370 . S
C1024 C1026 1.363 . S
C1024 H1040 0.931 . S
C1025 C1024 1.370 . S
C1025 C1029 1.408 . S
C1026 C1024 1.363 . S
C1026 C1027 1.370 . S
C1026 C1030 1.524 . S
C1027 C1019 1.503 1_554 S
C1027 C1026 1.370 . S
C1027 C1028 1.400 1_554 S
C1028 C1027 1.400 1_556 S
C1028 C1029 1.397 1_556 S
C1028 C1031 1.548 . S
C1029 C1025 1.408 . S
C1029 C1028 1.397 1_554 S
C1029 H1041 0.930 . S
C1030 C1026 1.524 . S
C1030 H1042 0.956 . S
C1030 H1043 0.961 . S
C1030 H1044 0.961 . S
C1031 C1028 1.548 . S
C1031 H1045 0.958 . S
C1031 H1046 0.961 . S
C1031 H1047 0.960 . S
H1032 C1016 0.931 . S
H1033 C1021 0.929 1_554 S
H1034 C1022 0.960 . S
H1035 C1022 0.962 . S
H1036 C1022 0.960 . S
H1037 C1023 0.961 . S
H1038 C1023 0.961 . S
H1039 C1023 0.961 . S
H1040 C1024 0.931 . S
H1041 C1029 0.930 . S
H1042 C1030 0.956 . S
H1043 C1030 0.961 . S
H1044 C1030 0.961 . S
H1045 C1031 0.958 . S
H1046 C1031 0.961 . S
H1047 C1031 0.960 . S
C1048 C1049 1.391 . S
C1048 C1050 1.394 . S
C1048 H1064 0.931 . S
C1049 C1048 1.391 . S
C1049 C1053 1.376 . S
C1050 C1048 1.394 . S
C1050 C1051 1.369 . S
C1050 C1054 1.531 . S
C1051 C1050 1.369 . S
C1051 C1052 1.410 . S
C1051 C1059 1.503 . S
C1052 C1051 1.410 . S
C1052 C1053 1.392 . S
C1052 C1055 1.511 . S
C1053 C1049 1.376 . S
C1053 C1052 1.392 . S
C1053 H1065 0.929 . S
C1054 C1050 1.531 . S
C1054 H1066 0.960 . S
C1054 H1067 0.962 . S
C1054 H1068 0.960 . S
C1055 C1052 1.511 . S
C1055 H1069 0.961 . S
C1055 H1070 0.961 . S
C1055 H1071 0.961 . S
C1056 C1057 1.370 . S
C1056 C1058 1.363 . S
C1056 H1072 0.931 . S
C1057 C1056 1.370 . S
C1057 C1061 1.408 . S
C1058 C1056 1.363 . S
C1058 C1059 1.370 . S
C1058 C1062 1.524 . S
C1059 C1051 1.503 . S
C1059 C1058 1.370 . S
C1059 C1060 1.403 . S
C1060 C1059 1.403 . S
C1060 C1061 1.404 . S
C1060 C1063 1.539 . S
C1061 C1057 1.408 . S
C1061 C1060 1.404 . S
C1061 H1073 0.930 . S
C1062 C1058 1.524 . S
C1062 H1074 0.956 . S
C1062 H1075 0.961 . S
C1062 H1076 0.961 . S
C1063 C1060 1.539 . S
C1063 H1077 0.958 . S
C1063 H1078 0.961 . S
C1063 H1079 0.960 . S
H1064 C1048 0.931 . S
H1065 C1053 0.929 . S
H1066 C1054 0.960 . S
H1067 C1054 0.962 . S
H1068 C1054 0.960 . S
H1069 C1055 0.961 . S
H1070 C1055 0.961 . S
H1071 C1055 0.961 . S
H1072 C1056 0.931 . S
H1073 C1061 0.930 . S
H1074 C1062 0.956 . S
H1075 C1062 0.961 . S
H1076 C1062 0.961 . S
H1077 C1063 0.958 . S
H1078 C1063 0.961 . S
H1079 C1063 0.960 . S
C1080 C1081 1.391 . S
C1080 C1082 1.394 . S
C1080 H1096 0.931 . S
C1081 C1080 1.391 . S
C1081 C1085 1.376 . S
C1082 C1080 1.394 . S
C1082 C1083 1.369 . S
C1082 C1086 1.531 . S
C1083 C1082 1.369 . S
C1083 C1084 1.410 . S
C1083 C1091 1.503 . S
C1084 C1083 1.410 . S
C1084 C1085 1.392 . S
C1084 C1087 1.511 . S
C1085 C1081 1.376 . S
C1085 C1084 1.392 . S
C1085 H1097 0.929 . S
C1086 C1082 1.531 . S
C1086 H1098 0.960 . S
C1086 H1099 0.962 . S
C1086 H1100 0.960 . S
C1087 C1084 1.511 . S
C1087 H1101 0.961 . S
C1087 H1102 0.961 . S
C1087 H1103 0.961 . S
C1088 C1089 1.370 . S
C1088 C1090 1.363 . S
C1088 H1104 0.931 . S
C1089 C1088 1.370 . S
C1089 C1093 1.408 . S
C1090 C1088 1.363 . S
C1090 C1091 1.370 . S
C1090 C1094 1.524 . S
C1091 C1083 1.503 . S
C1091 C1090 1.370 . S
C1091 C1092 1.403 . S
C1092 C1091 1.403 . S
C1092 C1093 1.404 . S
C1092 C1095 1.539 . S
C1093 C1089 1.408 . S
C1093 C1092 1.404 . S
C1093 H1105 0.930 . S
C1094 C1090 1.524 . S
C1094 H1106 0.956 . S
C1094 H1107 0.961 . S
C1094 H1108 0.974 . S
C1095 C1092 1.539 . S
C1095 H1109 0.958 . S
C1095 H1110 0.961 . S
C1095 H1111 0.960 . S
H1096 C1080 0.931 . S
H1097 C1085 0.929 . S
H1098 C1086 0.960 . S
H1099 C1086 0.962 . S
H1100 C1086 0.960 . S
H1101 C1087 0.961 . S
H1102 C1087 0.961 . S
H1103 C1087 0.961 . S
H1104 C1088 0.931 . S
H1105 C1093 0.930 . S
H1106 C1094 0.956 . S
H1107 C1094 0.961 . S
H1108 C1094 0.974 . S
H1109 C1095 0.958 . S
H1110 C1095 0.961 . S
H1111 C1095 0.960 . S
C1112 C1113 1.391 . S
C1112 C1114 1.394 . S
C1112 H1128 0.931 . S
C1113 C1112 1.391 . S
C1113 C1117 1.376 . S
C1114 C1112 1.394 . S
C1114 C1115 1.369 . S
C1114 C1118 1.531 . S
C1115 C1114 1.369 . S
C1115 C1116 1.410 . S
C1115 C1123 1.503 1_455 S
C1116 C1115 1.410 . S
C1116 C1117 1.392 . S
C1116 C1119 1.511 . S
C1117 C1113 1.376 . S
C1117 C1116 1.392 . S
C1117 H1129 0.929 . S
C1118 C1114 1.531 . S
C1118 H1130 0.960 1_455 S
C1118 H1131 0.962 . S
C1118 H1132 0.960 . S
C1119 C1116 1.511 . S
C1119 H1133 0.961 . S
C1119 H1134 0.961 1_455 S
C1119 H1135 0.961 . S
C1120 C1121 1.370 . S
C1120 C1122 1.363 . S
C1120 H1136 0.931 . S
C1121 C1120 1.370 . S
C1121 C1125 1.408 . S
C1122 C1120 1.363 . S
C1122 C1123 1.370 . S
C1122 C1126 1.524 . S
C1123 C1115 1.503 1_655 S
C1123 C1122 1.370 . S
C1123 C1124 1.403 . S
C1124 C1123 1.403 . S
C1124 C1125 1.404 . S
C1124 C1127 1.539 . S
C1125 C1121 1.408 . S
C1125 C1124 1.404 . S
C1125 H1137 0.930 . S
C1126 C1122 1.524 . S
C1126 H1138 0.956 . S
C1126 H1139 0.961 1_655 S
C1126 H1140 0.961 . S
C1127 C1124 1.539 . S
C1127 H1141 0.958 . S
C1127 H1142 0.961 . S
C1127 H1143 0.968 . S
H1128 C1112 0.931 . S
H1129 C1117 0.929 . S
H1130 C1118 0.960 1_655 S
H1131 C1118 0.962 . S
H1132 C1118 0.960 . S
H1133 C1119 0.961 . S
H1134 C1119 0.961 1_655 S
H1135 C1119 0.961 . S
H1136 C1120 0.931 . S
H1137 C1125 0.930 . S
H1138 C1126 0.956 . S
H1139 C1126 0.961 1_455 S
H1140 C1126 0.961 . S
H1141 C1127 0.958 . S
H1142 C1127 0.961 . S
H1143 C1127 0.968 . S
C1144 C1145 1.391 . S
C1144 C1146 1.394 . S
C1144 H1160 0.931 . S
C1145 C1144 1.391 . S
C1145 C1149 1.376 . S
C1146 C1144 1.394 . S
C1146 C1147 1.369 . S
C1146 C1150 1.531 . S
C1147 C1146 1.369 . S
C1147 C1148 1.410 . S
C1147 C1155 1.503 1_565 S
C1148 C1147 1.410 . S
C1148 C1149 1.392 . S
C1148 C1151 1.511 . S
C1149 C1145 1.376 . S
C1149 C1148 1.392 . S
C1149 H1161 0.929 . S
C1150 C1146 1.531 . S
C1150 H1162 0.960 1_565 S
C1150 H1163 0.962 . S
C1150 H1164 0.960 . S
C1151 C1148 1.511 . S
C1151 H1165 0.961 . S
C1151 H1166 0.961 1_565 S
C1151 H1167 0.961 . S
C1152 C1153 1.370 . S
C1152 C1154 1.363 . S
C1152 H1168 0.931 . S
C1153 C1152 1.370 . S
C1153 C1157 1.408 . S
C1154 C1152 1.363 . S
C1154 C1155 1.370 . S
C1154 C1158 1.524 . S
C1155 C1147 1.503 1_545 S
C1155 C1154 1.370 . S
C1155 C1156 1.403 . S
C1156 C1155 1.403 . S
C1156 C1157 1.404 . S
C1156 C1159 1.539 . S
C1157 C1153 1.408 . S
C1157 C1156 1.404 . S
C1157 H1169 0.930 . S
C1158 C1154 1.524 . S
C1158 H1170 0.956 . S
C1158 H1171 0.961 1_545 S
C1158 H1172 0.973 . S
C1159 C1156 1.539 . S
C1159 H1173 0.958 . S
C1159 H1174 0.961 . S
C1159 H1175 0.972 . S
H1160 C1144 0.931 . S
H1161 C1149 0.929 . S
H1162 C1150 0.960 1_545 S
H1163 C1150 0.962 . S
H1164 C1150 0.960 . S
H1165 C1151 0.961 . S
H1166 C1151 0.961 1_545 S
H1167 C1151 0.961 . S
H1168 C1152 0.931 . S
H1169 C1157 0.930 . S
H1170 C1158 0.956 . S
H1171 C1158 0.961 1_565 S
H1172 C1158 0.973 . S
H1173 C1159 0.958 . S
H1174 C1159 0.961 . S
H1175 C1159 0.972 . S
C1176 C1177 1.391 . S
C1176 C1178 1.394 . S
C1176 H1192 0.931 . S
C1177 C1176 1.391 . S
C1177 C1181 1.376 . S
C1178 C1176 1.394 . S
C1178 C1179 1.369 . S
C1178 C1182 1.531 . S
C1179 C1178 1.369 . S
C1179 C1180 1.410 . S
C1179 C1187 1.503 . S
C1180 C1179 1.410 . S
C1180 C1181 1.392 . S
C1180 C1183 1.511 . S
C1181 C1177 1.376 . S
C1181 C1180 1.392 . S
C1181 H1193 0.929 . S
C1182 C1178 1.531 . S
C1182 H1194 0.960 . S
C1182 H1195 0.962 . S
C1182 H1196 0.960 . S
C1183 C1180 1.511 . S
C1183 H1197 0.961 . S
C1183 H1198 0.961 . S
C1183 H1199 0.961 . S
C1184 C1185 1.370 . S
C1184 C1186 1.363 . S
C1184 H1200 0.931 . S
C1185 C1184 1.370 . S
C1185 C1189 1.408 . S
C1186 C1184 1.363 . S
C1186 C1187 1.370 . S
C1186 C1190 1.524 . S
C1187 C1179 1.503 . S
C1187 C1186 1.370 . S
C1187 C1188 1.403 . S
C1188 C1187 1.403 . S
C1188 C1189 1.404 . S
C1188 C1191 1.539 . S
C1189 C1185 1.408 . S
C1189 C1188 1.404 . S
C1189 H1201 0.930 . S
C1190 C1186 1.524 . S
C1190 H1202 0.956 . S
C1190 H1203 0.961 . S
C1190 H1204 0.961 . S
C1191 C1188 1.539 . S
C1191 H1205 0.958 . S
C1191 H1206 0.961 . S
C1191 H1207 0.960 . S
H1192 C1176 0.931 . S
H1193 C1181 0.929 . S
H1194 C1182 0.960 . S
H1195 C1182 0.962 . S
H1196 C1182 0.960 . S
H1197 C1183 0.961 . S
H1198 C1183 0.961 . S
H1199 C1183 0.961 . S
H1200 C1184 0.931 . S
H1201 C1189 0.930 . S
H1202 C1190 0.956 . S
H1203 C1190 0.961 . S
H1204 C1190 0.961 . S
H1205 C1191 0.958 . S
H1206 C1191 0.961 . S
H1207 C1191 0.960 . S
C1208 C1209 1.391 . S
C1208 C1210 1.394 . S
C1208 H1224 0.931 . S
C1209 C1208 1.391 . S
C1209 C1213 1.376 . S
C1210 C1208 1.394 . S
C1210 C1211 1.369 . S
C1210 C1214 1.531 . S
C1211 C1210 1.369 . S
C1211 C1212 1.410 . S
C1211 C1219 1.503 1_655 S
C1212 C1211 1.410 . S
C1212 C1213 1.392 . S
C1212 C1215 1.511 . S
C1213 C1209 1.376 . S
C1213 C1212 1.392 . S
C1213 H1225 0.929 . S
C1214 C1210 1.531 . S
C1214 H1226 0.960 1_655 S
C1214 H1227 0.962 . S
C1214 H1228 0.960 . S
C1215 C1212 1.511 . S
C1215 H1229 0.961 . S
C1215 H1230 0.961 1_655 S
C1215 H1231 0.961 . S
C1216 C1217 1.370 . S
C1216 C1218 1.363 . S
C1216 H1232 0.931 . S
C1217 C1216 1.370 . S
C1217 C1221 1.408 . S
C1218 C1216 1.363 . S
C1218 C1219 1.370 . S
C1218 C1222 1.524 . S
C1219 C1211 1.503 1_455 S
C1219 C1218 1.370 . S
C1219 C1220 1.403 . S
C1220 C1219 1.403 . S
C1220 C1221 1.404 . S
C1220 C1223 1.539 . S
C1221 C1217 1.408 . S
C1221 C1220 1.404 . S
C1221 H1233 0.930 . S
C1222 C1218 1.524 . S
C1222 H1234 0.956 . S
C1222 H1235 0.961 1_455 S
C1222 H1236 0.961 1_554 S
C1223 C1220 1.539 . S
C1223 H1237 0.958 . S
C1223 H1238 0.961 . S
C1223 H1239 0.967 . S
H1224 C1208 0.931 . S
H1225 C1213 0.929 . S
H1226 C1214 0.960 1_455 S
H1227 C1214 0.962 . S
H1228 C1214 0.960 . S
H1229 C1215 0.961 . S
H1230 C1215 0.961 1_455 S
H1231 C1215 0.961 . S
H1232 C1216 0.931 . S
H1233 C1221 0.930 . S
H1234 C1222 0.956 . S
H1235 C1222 0.961 1_655 S
H1236 C1222 0.961 1_556 S
H1237 C1223 0.958 . S
H1238 C1223 0.961 . S
H1239 C1223 0.967 . S
C1240 C1241 1.391 . S
C1240 C1242 1.394 . S
C1240 H1256 0.931 . S
C1241 C1240 1.391 . S
C1241 C1245 1.376 . S
C1242 C1240 1.394 . S
C1242 C1243 1.369 . S
C1242 C1246 1.531 . S
C1243 C1242 1.369 . S
C1243 C1244 1.410 . S
C1243 C1251 1.503 1_545 S
C1244 C1243 1.410 . S
C1244 C1245 1.392 . S
C1244 C1247 1.511 . S
C1245 C1241 1.376 . S
C1245 C1244 1.392 . S
C1245 H1257 0.929 . S
C1246 C1242 1.531 . S
C1246 H1258 0.960 1_545 S
C1246 H1259 0.962 . S
C1246 H1260 0.960 . S
C1247 C1244 1.511 . S
C1247 H1261 0.961 . S
C1247 H1262 0.961 1_545 S
C1247 H1263 0.961 . S
C1248 C1249 1.370 . S
C1248 C1250 1.363 . S
C1248 H1264 0.931 . S
C1249 C1248 1.370 . S
C1249 C1253 1.408 . S
C1250 C1248 1.363 . S
C1250 C1251 1.370 . S
C1250 C1254 1.524 . S
C1251 C1243 1.503 1_565 S
C1251 C1250 1.370 . S
C1251 C1252 1.403 . S
C1252 C1251 1.403 . S
C1252 C1253 1.404 . S
C1252 C1255 1.539 . S
C1253 C1249 1.408 . S
C1253 C1252 1.404 . S
C1253 H1265 0.930 . S
C1254 C1250 1.524 . S
C1254 H1266 0.956 . S
C1254 H1267 0.961 1_565 S
C1254 H1268 0.961 . S
C1255 C1252 1.539 . S
C1255 H1269 0.958 . S
C1255 H1270 0.961 . S
C1255 H1271 0.967 . S
H1256 C1240 0.931 . S
H1257 C1245 0.929 . S
H1258 C1246 0.960 1_565 S
H1259 C1246 0.962 . S
H1260 C1246 0.960 . S
H1261 C1247 0.961 . S
H1262 C1247 0.961 1_565 S
H1263 C1247 0.961 . S
H1264 C1248 0.931 . S
H1265 C1253 0.930 . S
H1266 C1254 0.956 . S
H1267 C1254 0.961 1_545 S
H1268 C1254 0.961 . S
H1269 C1255 0.958 . S
H1270 C1255 0.961 . S
H1271 C1255 0.967 . S
C1272 C1273 1.391 . S
C1272 C1274 1.394 . S
C1272 H1288 0.931 . S
C1273 C1272 1.391 . S
C1273 C1277 1.376 . S
C1274 C1272 1.394 . S
C1274 C1275 1.369 . S
C1274 C1278 1.531 . S
C1275 C1274 1.369 . S
C1275 C1276 1.410 . S
C1275 C1283 1.503 . S
C1276 C1275 1.410 . S
C1276 C1277 1.392 . S
C1276 C1279 1.511 . S
C1277 C1273 1.376 . S
C1277 C1276 1.392 . S
C1277 H1289 0.929 . S
C1278 C1274 1.531 . S
C1278 H1290 0.960 . S
C1278 H1291 0.962 . S
C1278 H1292 0.960 . S
C1279 C1276 1.511 . S
C1279 H1293 0.961 . S
C1279 H1294 0.961 . S
C1279 H1295 0.961 . S
C1280 C1281 1.370 . S
C1280 C1282 1.363 . S
C1280 H1296 0.931 . S
C1281 C1280 1.370 . S
C1281 C1285 1.408 . S
C1282 C1280 1.363 . S
C1282 C1283 1.370 . S
C1282 C1286 1.524 . S
C1283 C1275 1.503 . S
C1283 C1282 1.370 . S
C1283 C1284 1.403 . S
C1284 C1283 1.403 . S
C1284 C1285 1.404 . S
C1284 C1287 1.539 . S
C1285 C1281 1.408 . S
C1285 C1284 1.404 . S
C1285 H1297 0.930 . S
C1286 C1282 1.524 . S
C1286 H1298 0.956 . S
C1286 H1299 0.961 . S
C1286 H1300 0.961 . S
C1287 C1284 1.539 . S
C1287 H1301 0.958 . S
C1287 H1302 0.961 . S
C1287 H1303 0.960 . S
H1288 C1272 0.931 . S
H1289 C1277 0.929 . S
H1290 C1278 0.960 . S
H1291 C1278 0.962 . S
H1292 C1278 0.960 . S
H1293 C1279 0.961 . S
H1294 C1279 0.961 . S
H1295 C1279 0.961 . S
H1296 C1280 0.931 . S
H1297 C1285 0.930 . S
H1298 C1286 0.956 . S
H1299 C1286 0.961 . S
H1300 C1286 0.961 . S
H1301 C1287 0.958 . S
H1302 C1287 0.961 . S
H1303 C1287 0.960 . S
C1304 C1305 1.391 . S
C1304 C1306 1.394 . S
C1304 H1320 0.931 . S
C1305 C1304 1.391 . S
C1305 C1309 1.376 . S
C1306 C1304 1.394 . S
C1306 C1307 1.369 . S
C1306 C1310 1.531 . S
C1307 C1306 1.369 . S
C1307 C1308 1.410 . S
C1307 C1315 1.503 1_655 S
C1308 C1307 1.410 . S
C1308 C1309 1.392 . S
C1308 C1311 1.511 . S
C1309 C1305 1.376 . S
C1309 C1308 1.392 . S
C1309 H1321 0.929 . S
C1310 C1306 1.531 . S
C1310 H1322 0.960 1_655 S
C1310 H1323 0.962 . S
C1310 H1324 0.960 . S
C1311 C1308 1.511 . S
C1311 H1325 0.961 . S
C1311 H1326 0.961 1_655 S
C1311 H1327 0.961 . S
C1312 C1313 1.370 . S
C1312 C1314 1.363 . S
C1312 H1328 0.931 . S
C1313 C1312 1.370 . S
C1313 C1317 1.408 . S
C1314 C1312 1.363 . S
C1314 C1315 1.370 . S
C1314 C1318 1.524 . S
C1315 C1307 1.503 1_455 S
C1315 C1314 1.370 . S
C1315 C1316 1.403 . S
C1316 C1315 1.403 . S
C1316 C1317 1.404 . S
C1316 C1319 1.539 . S
C1317 C1313 1.408 . S
C1317 C1316 1.404 . S
C1317 H1329 0.930 . S
C1318 C1314 1.524 . S
C1318 H1330 0.956 . S
C1318 H1331 0.961 1_455 S
C1318 H1332 0.961 . S
C1319 C1316 1.539 . S
C1319 H1333 0.958 . S
C1319 H1334 0.961 . S
C1319 H1335 0.967 . S
H1320 C1304 0.931 . S
H1321 C1309 0.929 . S
H1322 C1310 0.960 1_455 S
H1323 C1310 0.962 . S
H1324 C1310 0.960 . S
H1325 C1311 0.961 . S
H1326 C1311 0.961 1_455 S
H1327 C1311 0.961 . S
H1328 C1312 0.931 . S
H1329 C1317 0.930 . S
H1330 C1318 0.956 . S
H1331 C1318 0.961 1_655 S
H1332 C1318 0.961 . S
H1333 C1319 0.958 . S
H1334 C1319 0.961 . S
H1335 C1319 0.967 . S
C1336 C1337 1.391 . S
C1336 C1338 1.394 . S
C1336 H1352 0.931 . S
C1337 C1336 1.391 . S
C1337 C1341 1.376 . S
C1338 C1336 1.394 . S
C1338 C1339 1.369 . S
C1338 C1342 1.531 . S
C1339 C1338 1.369 . S
C1339 C1340 1.410 . S
C1339 C1347 1.503 1_545 S
C1340 C1339 1.410 . S
C1340 C1341 1.392 . S
C1340 C1343 1.511 . S
C1341 C1337 1.376 . S
C1341 C1340 1.392 . S
C1341 H1353 0.929 . S
C1342 C1338 1.531 . S
C1342 H1354 0.960 1_545 S
C1342 H1355 0.962 . S
C1342 H1356 0.960 . S
C1343 C1340 1.511 . S
C1343 H1357 0.961 . S
C1343 H1358 0.961 1_545 S
C1343 H1359 0.961 . S
C1344 C1345 1.370 . S
C1344 C1346 1.363 . S
C1344 H1360 0.931 . S
C1345 C1344 1.370 . S
C1345 C1349 1.408 . S
C1346 C1344 1.363 . S
C1346 C1347 1.370 . S
C1346 C1350 1.524 . S
C1347 C1339 1.503 1_565 S
C1347 C1346 1.370 . S
C1347 C1348 1.403 . S
C1348 C1347 1.403 . S
C1348 C1349 1.404 . S
C1348 C1351 1.539 . S
C1349 C1345 1.408 . S
C1349 C1348 1.404 . S
C1349 H1361 0.930 . S
C1350 C1346 1.524 . S
C1350 H1362 0.956 . S
C1350 H1363 0.961 1_565 S
C1350 H1364 0.961 1_556 S
C1351 C1348 1.539 . S
C1351 H1365 0.958 . S
C1351 H1366 0.961 . S
C1351 H1367 0.967 . S
H1352 C1336 0.931 . S
H1353 C1341 0.929 . S
H1354 C1342 0.960 1_565 S
H1355 C1342 0.962 . S
H1356 C1342 0.960 . S
H1357 C1343 0.961 . S
H1358 C1343 0.961 1_565 S
H1359 C1343 0.961 . S
H1360 C1344 0.931 . S
H1361 C1349 0.930 . S
H1362 C1350 0.956 . S
H1363 C1350 0.961 1_545 S
H1364 C1350 0.961 1_554 S
H1365 C1351 0.958 . S
H1366 C1351 0.961 . S
H1367 C1351 0.967 . S
C1368 C1369 1.391 . S
C1368 C1370 1.394 . S
C1368 H1384 0.931 . S
C1369 C1368 1.391 . S
C1369 C1373 1.376 . S
C1370 C1368 1.394 . S
C1370 C1371 1.369 . S
C1370 C1374 1.531 . S
C1371 C1370 1.369 . S
C1371 C1372 1.410 . S
C1371 C1379 1.503 . S
C1372 C1371 1.410 . S
C1372 C1373 1.392 . S
C1372 C1375 1.511 . S
C1373 C1369 1.376 . S
C1373 C1372 1.392 . S
C1373 H1385 0.929 . S
C1374 C1370 1.531 . S
C1374 H1386 0.960 . S
C1374 H1387 0.962 . S
C1374 H1388 0.960 . S
C1375 C1372 1.511 . S
C1375 H1389 0.961 . S
C1375 H1390 0.961 . S
C1375 H1391 0.961 . S
C1376 C1377 1.370 . S
C1376 C1378 1.363 . S
C1376 H1392 0.931 . S
C1377 C1376 1.370 . S
C1377 C1381 1.408 . S
C1378 C1376 1.363 . S
C1378 C1379 1.370 . S
C1378 C1382 1.524 . S
C1379 C1371 1.503 . S
C1379 C1378 1.370 . S
C1379 C1380 1.403 . S
C1380 C1379 1.403 . S
C1380 C1381 1.404 . S
C1380 C1383 1.539 . S
C1381 C1377 1.408 . S
C1381 C1380 1.404 . S
C1381 H1393 0.930 . S
C1382 C1378 1.524 . S
C1382 H1394 0.956 . S
C1382 H1395 0.961 . S
C1382 H1396 0.961 . S
C1383 C1380 1.539 . S
C1383 H1397 0.958 . S
C1383 H1398 0.961 . S
C1383 H1399 0.960 . S
H1384 C1368 0.931 . S
H1385 C1373 0.929 . S
H1386 C1374 0.960 . S
H1387 C1374 0.962 . S
H1388 C1374 0.960 . S
H1389 C1375 0.961 . S
H1390 C1375 0.961 . S
H1391 C1375 0.961 . S
H1392 C1376 0.931 . S
H1393 C1381 0.930 . S
H1394 C1382 0.956 . S
H1395 C1382 0.961 . S
H1396 C1382 0.961 . S
H1397 C1383 0.958 . S
H1398 C1383 0.961 . S
H1399 C1383 0.960 . S
C1400 C1401 1.391 . S
C1400 C1402 1.394 . S
C1400 H1416 0.931 . S
C1401 C1400 1.391 . S
C1401 C1405 1.376 . S
C1402 C1400 1.394 . S
C1402 C1403 1.369 . S
C1402 C1406 1.531 . S
C1403 C1402 1.369 . S
C1403 C1404 1.410 . S
C1403 C1411 1.503 1_455 S
C1404 C1403 1.410 . S
C1404 C1405 1.392 . S
C1404 C1407 1.511 . S
C1405 C1401 1.376 . S
C1405 C1404 1.392 . S
C1405 H1417 0.929 . S
C1406 C1402 1.531 . S
C1406 H1418 0.960 1_455 S
C1406 H1419 0.962 . S
C1406 H1420 0.960 . S
C1407 C1404 1.511 . S
C1407 H1421 0.961 . S
C1407 H1422 0.961 1_455 S
C1407 H1423 0.961 . S
C1408 C1409 1.370 . S
C1408 C1410 1.363 . S
C1408 H1424 0.931 . S
C1409 C1408 1.370 . S
C1409 C1413 1.408 . S
C1410 C1408 1.363 . S
C1410 C1411 1.370 . S
C1410 C1414 1.524 . S
C1411 C1403 1.503 1_655 S
C1411 C1410 1.370 . S
C1411 C1412 1.403 . S
C1412 C1411 1.403 . S
C1412 C1413 1.404 . S
C1412 C1415 1.539 . S
C1413 C1409 1.408 . S
C1413 C1412 1.404 . S
C1413 H1425 0.930 . S
C1414 C1410 1.524 . S
C1414 H1426 0.956 . S
C1414 H1427 0.961 1_655 S
C1414 H1428 0.961 . S
C1415 C1412 1.539 . S
C1415 H1429 0.958 . S
C1415 H1430 0.961 1_556 S
C1415 H1431 0.965 1_556 S
H1416 C1400 0.931 . S
H1417 C1405 0.929 . S
H1418 C1406 0.960 1_655 S
H1419 C1406 0.962 . S
H1420 C1406 0.960 . S
H1421 C1407 0.961 . S
H1422 C1407 0.961 1_655 S
H1423 C1407 0.961 . S
H1424 C1408 0.931 . S
H1425 C1413 0.930 . S
H1426 C1414 0.956 . S
H1427 C1414 0.961 1_455 S
H1428 C1414 0.961 . S
H1429 C1415 0.958 . S
H1430 C1415 0.961 1_554 S
H1431 C1415 0.965 1_554 S
C1432 C1433 1.391 . S
C1432 C1434 1.394 . S
C1432 H1448 0.931 . S
C1433 C1432 1.391 . S
C1433 C1437 1.376 . S
C1434 C1432 1.394 . S
C1434 C1435 1.369 . S
C1434 C1438 1.531 . S
C1435 C1434 1.369 . S
C1435 C1436 1.410 . S
C1435 C1443 1.503 1_565 S
C1436 C1435 1.410 . S
C1436 C1437 1.392 . S
C1436 C1439 1.511 . S
C1437 C1433 1.376 . S
C1437 C1436 1.392 . S
C1437 H1449 0.929 . S
C1438 C1434 1.531 . S
C1438 H1450 0.960 1_565 S
C1438 H1451 0.962 . S
C1438 H1452 0.960 . S
C1439 C1436 1.511 . S
C1439 H1453 0.961 . S
C1439 H1454 0.961 1_565 S
C1439 H1455 0.961 . S
C1440 C1441 1.370 . S
C1440 C1442 1.363 . S
C1440 H1456 0.931 . S
C1441 C1440 1.370 . S
C1441 C1445 1.408 . S
C1442 C1440 1.363 . S
C1442 C1443 1.370 . S
C1442 C1446 1.524 . S
C1443 C1435 1.503 1_545 S
C1443 C1442 1.370 . S
C1443 C1444 1.403 . S
C1444 C1443 1.403 . S
C1444 C1445 1.404 . S
C1444 C1447 1.539 . S
C1445 C1441 1.408 . S
C1445 C1444 1.404 . S
C1445 H1457 0.930 . S
C1446 C1442 1.524 . S
C1446 H1458 0.956 . S
C1446 H1459 0.961 1_545 S
C1446 H1460 0.961 . S
C1447 C1444 1.539 . S
C1447 H1461 0.958 . S
C1447 H1462 0.961 . S
C1447 H1463 0.971 . S
H1448 C1432 0.931 . S
H1449 C1437 0.929 . S
H1450 C1438 0.960 1_545 S
H1451 C1438 0.962 . S
H1452 C1438 0.960 . S
H1453 C1439 0.961 . S
H1454 C1439 0.961 1_545 S
H1455 C1439 0.961 . S
H1456 C1440 0.931 . S
H1457 C1445 0.930 . S
H1458 C1446 0.956 . S
H1459 C1446 0.961 1_565 S
H1460 C1446 0.961 . S
H1461 C1447 0.958 . S
H1462 C1447 0.961 . S
H1463 C1447 0.971 . S
C1464 C1465 1.391 . S
C1464 C1466 1.394 . S
C1464 H1480 0.931 . S
C1465 C1464 1.391 . S
C1465 C1469 1.376 . S
C1466 C1464 1.394 . S
C1466 C1467 1.369 . S
C1466 C1470 1.531 . S
C1467 C1466 1.369 . S
C1467 C1468 1.410 . S
C1467 C1475 1.503 1_556 S
C1468 C1467 1.410 . S
C1468 C1469 1.392 . S
C1468 C1471 1.511 1_556 S
C1469 C1465 1.376 . S
C1469 C1468 1.392 . S
C1469 H1481 0.929 . S
C1470 C1466 1.531 . S
C1470 H1482 0.960 . S
C1470 H1483 0.962 . S
C1470 H1484 0.960 . S
C1471 C1468 1.511 1_554 S
C1471 H1485 0.961 . S
C1471 H1486 0.961 . S
C1471 H1487 0.961 . S
C1472 C1473 1.370 . S
C1472 C1474 1.363 . S
C1472 H1488 0.931 . S
C1473 C1472 1.370 . S
C1473 C1477 1.408 . S
C1474 C1472 1.363 . S
C1474 C1475 1.370 . S
C1474 C1478 1.524 . S
C1475 C1467 1.503 1_554 S
C1475 C1474 1.370 . S
C1475 C1476 1.403 1_554 S
C1476 C1475 1.403 1_556 S
C1476 C1477 1.404 1_556 S
C1476 C1479 1.539 . S
C1477 C1473 1.408 . S
C1477 C1476 1.404 1_554 S
C1477 H1489 0.930 1_554 S
C1478 C1474 1.524 . S
C1478 H1490 0.956 . S
C1478 H1491 0.961 . S
C1478 H1492 0.961 . S
C1479 C1476 1.539 . S
C1479 H1493 0.958 . S
C1479 H1494 0.961 . S
C1479 H1495 0.960 . S
H1480 C1464 0.931 . S
H1481 C1469 0.929 . S
H1482 C1470 0.960 . S
H1483 C1470 0.962 . S
H1484 C1470 0.960 . S
H1485 C1471 0.961 . S
H1486 C1471 0.961 . S
H1487 C1471 0.961 . S
H1488 C1472 0.931 . S
H1489 C1477 0.930 1_556 S
H1490 C1478 0.956 . S
H1491 C1478 0.961 . S
H1492 C1478 0.961 . S
H1493 C1479 0.958 . S
H1494 C1479 0.961 . S
H1495 C1479 0.960 . S
C1496 C1497 1.391 . S
C1496 C1498 1.394 . S
C1496 H1512 0.931 . S
C1497 C1496 1.391 . S
C1497 C1501 1.376 . S
C1498 C1496 1.394 . S
C1498 C1499 1.369 . S
C1498 C1502 1.531 . S
C1499 C1498 1.369 . S
C1499 C1500 1.410 . S
C1499 C1507 1.503 . S
C1500 C1499 1.410 . S
C1500 C1501 1.392 . S
C1500 C1503 1.511 . S
C1501 C1497 1.376 . S
C1501 C1500 1.392 . S
C1501 H1513 0.929 . S
C1502 C1498 1.531 . S
C1502 H1514 0.960 . S
C1502 H1515 0.962 . S
C1502 H1516 0.960 . S
C1503 C1500 1.511 . S
C1503 H1517 0.961 . S
C1503 H1518 0.961 . S
C1503 H1519 0.961 . S
C1504 C1505 1.370 . S
C1504 C1506 1.363 . S
C1504 H1520 0.931 . S
C1505 C1504 1.370 . S
C1505 C1509 1.408 . S
C1506 C1504 1.363 . S
C1506 C1507 1.370 . S
C1506 C1510 1.524 . S
C1507 C1499 1.503 . S
C1507 C1506 1.370 . S
C1507 C1508 1.403 . S
C1508 C1507 1.403 . S
C1508 C1509 1.404 . S
C1508 C1511 1.539 . S
C1509 C1505 1.408 . S
C1509 C1508 1.404 . S
C1509 H1521 0.930 . S
C1510 C1506 1.524 . S
C1510 H1522 0.956 . S
C1510 H1523 0.961 . S
C1510 H1524 0.961 . S
C1511 C1508 1.539 . S
C1511 H1525 0.958 . S
C1511 H1526 0.961 . S
C1511 H1527 0.960 . S
H1512 C1496 0.931 . S
H1513 C1501 0.929 . S
H1514 C1502 0.960 . S
H1515 C1502 0.962 . S
H1516 C1502 0.960 . S
H1517 C1503 0.961 . S
H1518 C1503 0.961 . S
H1519 C1503 0.961 . S
H1520 C1504 0.931 . S
H1521 C1509 0.930 . S
H1522 C1510 0.956 . S
H1523 C1510 0.961 . S
H1524 C1510 0.961 . S
H1525 C1511 0.958 . S
H1526 C1511 0.961 . S
H1527 C1511 0.960 . S
C1528 C1529 1.391 . S
C1528 C1530 1.394 . S
C1528 H1544 0.931 . S
C1529 C1528 1.391 . S
C1529 C1533 1.376 . S
C1530 C1528 1.394 . S
C1530 C1531 1.369 . S
C1530 C1534 1.531 . S
C1531 C1530 1.369 . S
C1531 C1532 1.410 1_556 S
C1531 C1539 1.503 1_556 S
C1532 C1531 1.410 1_554 S
C1532 C1533 1.392 1_554 S
C1532 C1535 1.511 . S
C1533 C1529 1.376 . S
C1533 C1532 1.392 1_556 S
C1533 H1545 0.929 1_556 S
C1534 C1530 1.531 . S
C1534 H1546 0.960 . S
C1534 H1547 0.962 . S
C1534 H1548 0.960 . S
C1535 C1532 1.511 . S
C1535 H1549 0.961 . S
C1535 H1550 0.961 . S
C1535 H1551 0.961 . S
C1536 C1537 1.370 . S
C1536 C1538 1.363 . S
C1536 H1552 0.931 . S
C1537 C1536 1.370 . S
C1537 C1541 1.408 . S
C1538 C1536 1.363 . S
C1538 C1539 1.370 . S
C1538 C1542 1.524 1_554 S
C1539 C1531 1.503 1_554 S
C1539 C1538 1.370 . S
C1539 C1540 1.403 . S
C1540 C1539 1.403 . S
C1540 C1541 1.404 . S
C1540 C1543 1.539 . S
C1541 C1537 1.408 . S
C1541 C1540 1.404 . S
C1541 H1553 0.930 . S
C1542 C1538 1.524 1_556 S
C1542 H1554 0.956 . S
C1542 H1555 0.961 . S
C1542 H1556 0.961 . S
C1543 C1540 1.539 . S
C1543 H1557 0.958 . S
C1543 H1558 0.961 . S
C1543 H1559 0.960 . S
H1544 C1528 0.931 . S
H1545 C1533 0.929 1_554 S
H1546 C1534 0.960 . S
H1547 C1534 0.962 . S
H1548 C1534 0.960 . S
H1549 C1535 0.961 . S
H1550 C1535 0.961 . S
H1551 C1535 0.961 . S
H1552 C1536 0.931 . S
H1553 C1541 0.930 . S
H1554 C1542 0.956 . S
H1555 C1542 0.961 . S
H1556 C1542 0.961 . S
H1557 C1543 0.958 . S
H1558 C1543 0.961 . S
H1559 C1543 0.960 . S
C1560 C1561 1.391 . S
C1560 C1562 1.394 . S
C1560 H1576 0.931 . S
C1561 C1560 1.391 . S
C1561 C1565 1.376 . S
C1562 C1560 1.394 . S
C1562 C1563 1.369 . S
C1562 C1566 1.531 . S
C1563 C1562 1.369 . S
C1563 C1564 1.410 . S
C1563 C1571 1.503 . S
C1564 C1563 1.410 . S
C1564 C1565 1.392 . S
C1564 C1567 1.511 . S
C1565 C1561 1.376 . S
C1565 C1564 1.392 . S
C1565 H1577 0.929 . S
C1566 C1562 1.531 . S
C1566 H1578 0.960 . S
C1566 H1579 0.962 . S
C1566 H1580 0.960 . S
C1567 C1564 1.511 . S
C1567 H1581 0.961 . S
C1567 H1582 0.961 . S
C1567 H1583 0.961 . S
C1568 C1569 1.370 . S
C1568 C1570 1.363 . S
C1568 H1584 0.931 . S
C1569 C1568 1.370 . S
C1569 C1573 1.408 . S
C1570 C1568 1.363 . S
C1570 C1571 1.370 . S
C1570 C1574 1.524 . S
C1571 C1563 1.503 . S
C1571 C1570 1.370 . S
C1571 C1572 1.403 . S
C1572 C1571 1.403 . S
C1572 C1573 1.404 . S
C1572 C1575 1.539 . S
C1573 C1569 1.408 . S
C1573 C1572 1.404 . S
C1573 H1585 0.930 . S
C1574 C1570 1.524 . S
C1574 H1586 0.956 . S
C1574 H1587 0.961 . S
C1574 H1588 0.961 . S
C1575 C1572 1.539 . S
C1575 H1589 0.958 . S
C1575 H1590 0.961 . S
C1575 H1591 0.960 . S
H1576 C1560 0.931 . S
H1577 C1565 0.929 . S
H1578 C1566 0.960 . S
H1579 C1566 0.962 . S
H1580 C1566 0.960 . S
H1581 C1567 0.961 . S
H1582 C1567 0.961 . S
H1583 C1567 0.961 . S
H1584 C1568 0.931 . S
H1585 C1573 0.930 . S
H1586 C1574 0.956 . S
H1587 C1574 0.961 . S
H1588 C1574 0.961 . S
H1589 C1575 0.958 . S
H1590 C1575 0.961 . S
H1591 C1575 0.960 . S
C1592 C1593 1.391 . S
C1592 C1594 1.394 . S
C1592 H1608 0.931 . S
C1593 C1592 1.391 . S
C1593 C1597 1.376 . S
C1594 C1592 1.394 . S
C1594 C1595 1.369 . S
C1594 C1598 1.531 . S
C1595 C1594 1.369 . S
C1595 C1596 1.410 1_556 S
C1595 C1603 1.503 1_556 S
C1596 C1595 1.410 1_554 S
C1596 C1597 1.392 1_554 S
C1596 C1599 1.511 . S
C1597 C1593 1.376 . S
C1597 C1596 1.392 1_556 S
C1597 H1609 0.922 1_556 S
C1598 C1594 1.531 . S
C1598 H1610 0.960 . S
C1598 H1611 0.962 . S
C1598 H1612 0.960 . S
C1599 C1596 1.511 . S
C1599 H1613 0.961 . S
C1599 H1614 0.961 . S
C1599 H1615 0.961 . S
C1600 C1601 1.370 . S
C1600 C1602 1.363 . S
C1600 H1616 0.931 . S
C1601 C1600 1.370 . S
C1601 C1605 1.408 . S
C1602 C1600 1.363 . S
C1602 C1603 1.370 . S
C1602 C1606 1.524 . S
C1603 C1595 1.503 1_554 S
C1603 C1602 1.370 . S
C1603 C1604 1.403 1_554 S
C1604 C1603 1.403 1_556 S
C1604 C1605 1.404 1_556 S
C1604 C1607 1.539 . S
C1605 C1601 1.408 . S
C1605 C1604 1.404 1_554 S
C1605 H1617 0.930 . S
C1606 C1602 1.524 . S
C1606 H1618 0.956 . S
C1606 H1619 0.961 . S
C1606 H1620 0.961 . S
C1607 C1604 1.539 . S
C1607 H1621 0.958 . S
C1607 H1622 0.961 . S
C1607 H1623 0.960 . S
H1608 C1592 0.931 . S
H1609 C1597 0.922 1_554 S
H1610 C1598 0.960 . S
H1611 C1598 0.962 . S
H1612 C1598 0.960 . S
H1613 C1599 0.961 . S
H1614 C1599 0.961 . S
H1615 C1599 0.961 . S
H1616 C1600 0.931 . S
H1617 C1605 0.930 . S
H1618 C1606 0.956 . S
H1619 C1606 0.961 . S
H1620 C1606 0.961 . S
H1621 C1607 0.958 . S
H1622 C1607 0.961 . S
H1623 C1607 0.960 . S
C1624 C1625 1.391 . S
C1624 C1626 1.394 . S
C1624 H1640 0.931 . S
C1625 C1624 1.391 . S
C1625 C1629 1.376 . S
C1626 C1624 1.394 . S
C1626 C1627 1.369 . S
C1626 C1630 1.531 . S
C1627 C1626 1.369 . S
C1627 C1628 1.410 . S
C1627 C1635 1.503 . S
C1628 C1627 1.410 . S
C1628 C1629 1.392 . S
C1628 C1631 1.511 . S
C1629 C1625 1.376 . S
C1629 C1628 1.392 . S
C1629 H1641 0.929 . S
C1630 C1626 1.531 . S
C1630 H1642 0.960 . S
C1630 H1643 0.962 . S
C1630 H1644 0.960 . S
C1631 C1628 1.511 . S
C1631 H1645 0.961 . S
C1631 H1646 0.961 . S
C1631 H1647 0.961 . S
C1632 C1633 1.370 . S
C1632 C1634 1.363 . S
C1632 H1648 0.931 . S
C1633 C1632 1.370 . S
C1633 C1637 1.408 . S
C1634 C1632 1.363 . S
C1634 C1635 1.370 . S
C1634 C1638 1.524 . S
C1635 C1627 1.503 . S
C1635 C1634 1.370 . S
C1635 C1636 1.403 . S
C1636 C1635 1.403 . S
C1636 C1637 1.404 . S
C1636 C1639 1.539 . S
C1637 C1633 1.408 . S
C1637 C1636 1.404 . S
C1637 H1649 0.930 . S
C1638 C1634 1.524 . S
C1638 H1650 0.956 . S
C1638 H1651 0.961 . S
C1638 H1652 0.961 . S
C1639 C1636 1.539 . S
C1639 H1653 0.958 . S
C1639 H1654 0.961 . S
C1639 H1655 0.960 . S
H1640 C1624 0.931 . S
H1641 C1629 0.929 . S
H1642 C1630 0.960 . S
H1643 C1630 0.962 . S
H1644 C1630 0.960 . S
H1645 C1631 0.961 . S
H1646 C1631 0.961 . S
H1647 C1631 0.961 . S
H1648 C1632 0.931 . S
H1649 C1637 0.930 . S
H1650 C1638 0.956 . S
H1651 C1638 0.961 . S
H1652 C1638 0.961 . S
H1653 C1639 0.958 . S
H1654 C1639 0.961 . S
H1655 C1639 0.960 . S
C1656 C1657 1.391 . S
C1656 C1658 1.394 . S
C1656 H1672 0.931 . S
C1657 C1656 1.391 . S
C1657 C1661 1.376 . S
C1658 C1656 1.394 . S
C1658 C1659 1.369 . S
C1658 C1662 1.531 1_554 S
C1659 C1658 1.369 . S
C1659 C1660 1.410 . S
C1659 C1667 1.503 1_554 S
C1660 C1659 1.410 . S
C1660 C1661 1.392 . S
C1660 C1663 1.511 . S
C1661 C1657 1.376 . S
C1661 C1660 1.392 . S
C1661 H1673 0.929 . S
C1662 C1658 1.531 1_556 S
C1662 H1674 0.960 . S
C1662 H1675 0.962 . S
C1662 H1676 0.960 1_556 S
C1663 C1660 1.511 . S
C1663 H1677 0.961 . S
C1663 H1678 0.961 . S
C1663 H1679 0.961 . S
C1664 C1665 1.370 . S
C1664 C1666 1.363 . S
C1664 H1680 0.931 . S
C1665 C1664 1.370 . S
C1665 C1669 1.408 . S
C1666 C1664 1.363 . S
C1666 C1667 1.370 . S
C1666 C1670 1.524 . S
C1667 C1659 1.503 1_556 S
C1667 C1666 1.370 . S
C1667 C1668 1.403 1_556 S
C1668 C1667 1.403 1_554 S
C1668 C1669 1.404 1_554 S
C1668 C1671 1.539 . S
C1669 C1665 1.408 . S
C1669 C1668 1.404 1_556 S
C1669 H1681 0.930 1_556 S
C1670 C1666 1.524 . S
C1670 H1682 0.956 . S
C1670 H1683 0.961 . S
C1670 H1684 0.961 . S
C1671 C1668 1.539 . S
C1671 H1685 0.958 . S
C1671 H1686 0.961 . S
C1671 H1687 0.960 . S
H1672 C1656 0.931 . S
H1673 C1661 0.929 . S
H1674 C1662 0.960 . S
H1675 C1662 0.962 . S
H1676 C1662 0.960 1_554 S
H1677 C1663 0.961 . S
H1678 C1663 0.961 . S
H1679 C1663 0.961 . S
H1680 C1664 0.931 . S
H1681 C1669 0.930 1_554 S
H1682 C1670 0.956 . S
H1683 C1670 0.961 . S
H1684 C1670 0.961 . S
H1685 C1671 0.958 . S
H1686 C1671 0.961 . S
H1687 C1671 0.960 . S
C1688 C1689 1.391 . S
C1688 C1690 1.394 . S
C1688 H1704 0.931 . S
C1689 C1688 1.391 . S
C1689 C1693 1.376 . S
C1690 C1688 1.394 . S
C1690 C1691 1.369 . S
C1690 C1694 1.531 . S
C1691 C1690 1.369 . S
C1691 C1692 1.410 . S
C1691 C1699 1.503 . S
C1692 C1691 1.410 . S
C1692 C1693 1.392 . S
C1692 C1695 1.511 . S
C1693 C1689 1.376 . S
C1693 C1692 1.392 . S
C1693 H1705 0.929 . S
C1694 C1690 1.531 . S
C1694 H1706 0.960 . S
C1694 H1707 0.962 . S
C1694 H1708 0.960 . S
C1695 C1692 1.511 . S
C1695 H1709 0.961 . S
C1695 H1710 0.961 . S
C1695 H1711 0.961 . S
C1696 C1697 1.370 . S
C1696 C1698 1.363 . S
C1696 H1712 0.931 . S
C1697 C1696 1.370 . S
C1697 C1701 1.408 . S
C1698 C1696 1.363 . S
C1698 C1699 1.370 . S
C1698 C1702 1.524 . S
C1699 C1691 1.503 . S
C1699 C1698 1.370 . S
C1699 C1700 1.403 . S
C1700 C1699 1.403 . S
C1700 C1701 1.404 . S
C1700 C1703 1.539 . S
C1701 C1697 1.408 . S
C1701 C1700 1.404 . S
C1701 H1713 0.930 . S
C1702 C1698 1.524 . S
C1702 H1714 0.956 . S
C1702 H1715 0.961 . S
C1702 H1716 0.961 . S
C1703 C1700 1.539 . S
C1703 H1717 0.958 . S
C1703 H1718 0.961 . S
C1703 H1719 0.960 . S
H1704 C1688 0.931 . S
H1705 C1693 0.929 . S
H1706 C1694 0.960 . S
H1707 C1694 0.962 . S
H1708 C1694 0.960 . S
H1709 C1695 0.961 . S
H1710 C1695 0.961 . S
H1711 C1695 0.961 . S
H1712 C1696 0.931 . S
H1713 C1701 0.930 . S
H1714 C1702 0.956 . S
H1715 C1702 0.961 . S
H1716 C1702 0.961 . S
H1717 C1703 0.958 . S
H1718 C1703 0.961 . S
H1719 C1703 0.960 . S
C1720 C1721 1.391 . S
C1720 C1722 1.394 . S
C1720 H1736 0.931 . S
C1721 C1720 1.391 . S
C1721 C1725 1.376 . S
C1722 C1720 1.394 . S
C1722 C1723 1.369 . S
C1722 C1726 1.531 . S
C1723 C1722 1.369 . S
C1723 C1724 1.410 1_554 S
C1723 C1731 1.503 1_554 S
C1724 C1723 1.410 1_556 S
C1724 C1725 1.392 1_556 S
C1724 C1727 1.511 . S
C1725 C1721 1.376 . S
C1725 C1724 1.392 1_554 S
C1725 H1737 0.929 1_554 S
C1726 C1722 1.531 . S
C1726 H1738 0.960 . S
C1726 H1739 0.962 . S
C1726 H1740 0.960 . S
C1727 C1724 1.511 . S
C1727 H1741 0.961 . S
C1727 H1742 0.961 . S
C1727 H1743 0.961 . S
C1728 C1729 1.370 . S
C1728 C1730 1.363 . S
C1728 H1744 0.931 . S
C1729 C1728 1.370 . S
C1729 C1733 1.408 . S
C1730 C1728 1.363 . S
C1730 C1731 1.370 . S
C1730 C1734 1.524 1_556 S
C1731 C1723 1.503 1_556 S
C1731 C1730 1.370 . S
C1731 C1732 1.403 . S
C1732 C1731 1.403 . S
C1732 C1733 1.404 . S
C1732 C1735 1.539 . S
C1733 C1729 1.408 . S
C1733 C1732 1.404 . S
C1733 H1745 0.930 . S
C1734 C1730 1.524 1_554 S
C1734 H1746 0.956 . S
C1734 H1747 0.961 . S
C1734 H1748 0.961 . S
C1735 C1732 1.539 . S
C1735 H1749 0.958 . S
C1735 H1750 0.961 . S
C1735 H1751 0.960 . S
H1736 C1720 0.931 . S
H1737 C1725 0.929 1_556 S
H1738 C1726 0.960 . S
H1739 C1726 0.962 . S
H1740 C1726 0.960 . S
H1741 C1727 0.961 . S
H1742 C1727 0.961 . S
H1743 C1727 0.961 . S
H1744 C1728 0.931 . S
H1745 C1733 0.930 . S
H1746 C1734 0.956 . S
H1747 C1734 0.961 . S
H1748 C1734 0.961 . S
H1749 C1735 0.958 . S
H1750 C1735 0.961 . S
H1751 C1735 0.960 . S
C1752 C1753 1.391 . S
C1752 C1754 1.394 . S
C1752 H1768 0.931 . S
C1753 C1752 1.391 . S
C1753 C1757 1.376 . S
C1754 C1752 1.394 . S
C1754 C1755 1.369 . S
C1754 C1758 1.531 . S
C1755 C1754 1.369 . S
C1755 C1756 1.410 . S
C1755 C1763 1.503 . S
C1756 C1755 1.410 . S
C1756 C1757 1.392 . S
C1756 C1759 1.511 . S
C1757 C1753 1.376 . S
C1757 C1756 1.392 . S
C1757 H1769 0.929 . S
C1758 C1754 1.531 . S
C1758 H1770 0.960 . S
C1758 H1771 0.962 . S
C1758 H1772 0.960 . S
C1759 C1756 1.511 . S
C1759 H1773 0.961 . S
C1759 H1774 0.961 . S
C1759 H1775 0.961 . S
C1760 C1761 1.370 . S
C1760 C1762 1.363 . S
C1760 H1776 0.931 . S
C1761 C1760 1.370 . S
C1761 C1765 1.408 . S
C1762 C1760 1.363 . S
C1762 C1763 1.370 . S
C1762 C1766 1.524 . S
C1763 C1755 1.503 . S
C1763 C1762 1.370 . S
C1763 C1764 1.403 . S
C1764 C1763 1.403 . S
C1764 C1765 1.404 . S
C1764 C1767 1.539 . S
C1765 C1761 1.408 . S
C1765 C1764 1.404 . S
C1765 H1777 0.930 . S
C1766 C1762 1.524 . S
C1766 H1778 0.956 . S
C1766 H1779 0.961 . S
C1766 H1780 0.961 . S
C1767 C1764 1.539 . S
C1767 H1781 0.958 . S
C1767 H1782 0.961 . S
C1767 H1783 0.960 . S
H1768 C1752 0.931 . S
H1769 C1757 0.929 . S
H1770 C1758 0.960 . S
H1771 C1758 0.962 . S
H1772 C1758 0.960 . S
H1773 C1759 0.961 . S
H1774 C1759 0.961 . S
H1775 C1759 0.961 . S
H1776 C1760 0.931 . S
H1777 C1765 0.930 . S
H1778 C1766 0.956 . S
H1779 C1766 0.961 . S
H1780 C1766 0.961 . S
H1781 C1767 0.958 . S
H1782 C1767 0.961 . S
H1783 C1767 0.960 . S
C1784 C1785 1.391 . S
C1784 C1786 1.394 . S
C1784 H1800 0.931 . S
C1785 C1784 1.391 . S
C1785 C1789 1.376 . S
C1786 C1784 1.394 . S
C1786 C1787 1.369 . S
C1786 C1790 1.531 . S
C1787 C1786 1.369 . S
C1787 C1788 1.410 . S
C1787 C1795 1.503 1_556 S
C1788 C1787 1.410 . S
C1788 C1789 1.392 . S
C1788 C1791 1.511 . S
C1789 C1785 1.376 . S
C1789 C1788 1.392 . S
C1789 H1801 0.929 . S
C1790 C1786 1.531 . S
C1790 H1802 0.960 . S
C1790 H1803 0.962 . S
C1790 H1804 0.960 . S
C1791 C1788 1.511 . S
C1791 H1805 0.961 . S
C1791 H1806 0.961 1_556 S
C1791 H1807 0.961 . S
C1792 C1793 1.370 . S
C1792 C1794 1.363 . S
C1792 H1808 0.931 . S
C1793 C1792 1.370 . S
C1793 C1797 1.408 . S
C1794 C1792 1.363 . S
C1794 C1795 1.370 . S
C1794 C1798 1.524 . S
C1795 C1787 1.503 1_554 S
C1795 C1794 1.370 . S
C1795 C1796 1.403 1_554 S
C1796 C1795 1.403 1_556 S
C1796 C1797 1.404 1_556 S
C1796 C1799 1.539 . S
C1797 C1793 1.408 . S
C1797 C1796 1.404 1_554 S
C1797 H1809 0.930 1_554 S
C1798 C1794 1.524 . S
C1798 H1810 0.956 . S
C1798 H1811 0.961 . S
C1798 H1812 0.961 . S
C1799 C1796 1.539 . S
C1799 H1813 0.958 . S
C1799 H1814 0.961 . S
C1799 H1815 0.960 . S
H1800 C1784 0.931 . S
H1801 C1789 0.929 . S
H1802 C1790 0.960 . S
H1803 C1790 0.962 . S
H1804 C1790 0.960 . S
H1805 C1791 0.961 . S
H1806 C1791 0.961 1_554 S
H1807 C1791 0.961 . S
H1808 C1792 0.931 . S
H1809 C1797 0.930 1_556 S
H1810 C1798 0.956 . S
H1811 C1798 0.961 . S
H1812 C1798 0.961 . S
H1813 C1799 0.958 . S
H1814 C1799 0.961 . S
H1815 C1799 0.960 . S
C1816 C1817 1.391 . S
C1816 C1818 1.394 . S
C1816 H1832 0.931 . S
C1817 C1816 1.391 . S
C1817 C1821 1.376 . S
C1818 C1816 1.394 . S
C1818 C1819 1.369 . S
C1818 C1822 1.531 . S
C1819 C1818 1.369 . S
C1819 C1820 1.410 . S
C1819 C1827 1.503 . S
C1820 C1819 1.410 . S
C1820 C1821 1.392 . S
C1820 C1823 1.511 . S
C1821 C1817 1.376 . S
C1821 C1820 1.392 . S
C1821 H1833 0.929 . S
C1822 C1818 1.531 . S
C1822 H1834 0.960 . S
C1822 H1835 0.962 . S
C1822 H1836 0.960 . S
C1823 C1820 1.511 . S
C1823 H1837 0.961 . S
C1823 H1838 0.961 . S
C1823 H1839 0.961 . S
C1824 C1825 1.370 . S
C1824 C1826 1.363 . S
C1824 H1840 0.931 . S
C1825 C1824 1.370 . S
C1825 C1829 1.408 . S
C1826 C1824 1.363 . S
C1826 C1827 1.370 . S
C1826 C1830 1.524 . S
C1827 C1819 1.503 . S
C1827 C1826 1.370 . S
C1827 C1828 1.403 . S
C1828 C1827 1.403 . S
C1828 C1829 1.404 . S
C1828 C1831 1.539 . S
C1829 C1825 1.408 . S
C1829 C1828 1.404 . S
C1829 H1841 0.930 . S
C1830 C1826 1.524 . S
C1830 H1842 0.956 . S
C1830 H1843 0.961 . S
C1830 H1844 0.961 . S
C1831 C1828 1.539 . S
C1831 H1845 0.958 . S
C1831 H1846 0.961 . S
C1831 H1847 0.960 . S
H1832 C1816 0.931 . S
H1833 C1821 0.929 . S
H1834 C1822 0.960 . S
H1835 C1822 0.962 . S
H1836 C1822 0.960 . S
H1837 C1823 0.961 . S
H1838 C1823 0.961 . S
H1839 C1823 0.961 . S
H1840 C1824 0.931 . S
H1841 C1829 0.930 . S
H1842 C1830 0.956 . S
H1843 C1830 0.961 . S
H1844 C1830 0.961 . S
H1845 C1831 0.958 . S
H1846 C1831 0.961 . S
H1847 C1831 0.960 . S
C313 C10 1.465 . S
C321 C205 1.459 . S
C345 C23 1.465 . S
C353 C218 1.459 . S
C377 C231 1.437 . S
C385 C36 1.449 . S
C409 C166 1.465 . S
C417 C49 1.460 . S
C441 C179 1.439 . S
C449 C62 1.450 . S
C473 C192 1.453 . S
C481 C75 1.456 . S
C505 C283 1.458 . S
C513 C88 1.456 . S
C537 C101 1.437 . S
C545 C296 1.447 . S
C569 C309 1.438 . S
C577 C114 1.448 . S
C601 C127 1.439 . S
C609 C244 1.450 . S
C633 C257 1.433 . S
C641 C140 1.447 . S
C665 C153 1.436 . S
C673 C270 1.447 . S
C697 C130 1.111 . S
C705 C0 1.111 . S
C729 C143 1.138 . S
C737 C13 1.094 . S
C761 C26 1.063 . S
C769 C78 1.116 . S
C793 C39 1.137 . S
C801 C91 1.089 . S
C825 C104 1.129 . S
C833 C52 1.102 . S
C857 C65 1.086 . S
C865 C117 1.118 . S
C889 C286 1.074 . S
C897 C156 1.110 . S
C921 C169 1.123 . S
C929 C299 1.090 . S
C953 C182 1.093 . S
C961 C234 1.113 . S
C985 C247 1.091 . S
C993 C195 1.102 . S
C1017 C208 1.096 . S
C1025 C260 1.112 . S
C1049 C221 1.134 . S
C1057 C273 1.095 . S
C1081 C5 1.175 . S
C1089 C239 1.188 . S
C1113 C252 1.143 . S
C1121 C18 1.172 . S
C1145 C31 1.175 . S
C1153 C265 1.188 . S
C1177 C44 1.151 . S
C1185 C278 1.177 . S
C1209 C291 1.147 . S
C1217 C57 1.172 . S
C1241 C70 1.214 . S
C1249 C304 1.198 . S
C1273 C83 1.144 . S
C1281 C161 1.172 . S
C1305 C96 1.226 . S
C1313 C174 1.205 . S
C1337 C187 1.150 . S
C1345 C109 1.173 . S
C1369 C200 1.163 . S
C1377 C122 1.182 . S
C1401 C135 1.228 . S
C1409 C213 1.205 . S
C1433 C226 1.227 . S
C1441 C148 1.205 . S
C1465 C86 1.480 . S
C1473 C8 1.488 . S
C1497 C21 1.491 . S
C1505 C99 1.502 . S
C1529 C112 1.466 . S
C1537 C34 1.489 . S
C1561 C125 1.480 . S
C1569 C47 1.488 . S
C1593 C138 1.471 . S
C1601 C60 1.486 . S
C1625 C73 1.465 . S
C1633 C151 1.487 . S
C1657 C242 1.487 . S
C1665 C164 1.494 . S
C1689 C177 1.465 . S
C1697 C255 1.486 . S
C1721 C268 1.520 . S
C1729 C190 1.509 . S
C1753 C281 1.519 . S
C1761 C203 1.507 . S
C1785 C216 1.502 . S
C1793 C294 1.500 . S
C1817 C229 1.501 . S
C1825 C307 1.500 . S
