# Generated by pormake.
# Topology soh, (5)-cn, num edge types: 1
# Building blocks:
#     Node 0, Type 0, BuildingBlock: XOMCOT_clean_sbu_0, # of connection points: 5
#     Node 1, Type 0, BuildingBlock: XOMCOT_clean_sbu_0, # of connection points: 5
#     Node 2, Type 0, BuildingBlock: XOMCOT_clean_sbu_0, # of connection points: 5
#     Node 3, Type 0, BuildingBlock: XOMCOT_clean_sbu_0, # of connection points: 5
#     Node 4, Type 0, BuildingBlock: XOMCOT_clean_sbu_0, # of connection points: 5
#     Node 5, Type 0, BuildingBlock: XOMCOT_clean_sbu_0, # of connection points: 5
#     Node 6, Type 0, BuildingBlock: XOMCOT_clean_sbu_0, # of connection points: 5
#     Node 7, Type 0, BuildingBlock: XOMCOT_clean_sbu_0, # of connection points: 5
#     Node 8, Type 0, BuildingBlock: XOMCOT_clean_sbu_0, # of connection points: 5
#     Node 9, Type 0, BuildingBlock: XOMCOT_clean_sbu_0, # of connection points: 5
#     Node 10, Type 0, BuildingBlock: XOMCOT_clean_sbu_0, # of connection points: 5
#     Node 11, Type 0, BuildingBlock: XOMCOT_clean_sbu_0, # of connection points: 5
#     Node 12, Type 0, BuildingBlock: XOMCOT_clean_sbu_0, # of connection points: 5
#     Node 13, Type 0, BuildingBlock: XOMCOT_clean_sbu_0, # of connection points: 5
#     Node 14, Type 0, BuildingBlock: XOMCOT_clean_sbu_0, # of connection points: 5
#     Node 15, Type 0, BuildingBlock: XOMCOT_clean_sbu_0, # of connection points: 5
#     Node 16, Type 0, BuildingBlock: XOMCOT_clean_sbu_0, # of connection points: 5
#     Node 17, Type 0, BuildingBlock: XOMCOT_clean_sbu_0, # of connection points: 5
#     Node 18, Type 0, BuildingBlock: XOMCOT_clean_sbu_0, # of connection points: 5
#     Node 19, Type 0, BuildingBlock: XOMCOT_clean_sbu_0, # of connection points: 5
#     Node 20, Type 0, BuildingBlock: XOMCOT_clean_sbu_0, # of connection points: 5
#     Node 21, Type 0, BuildingBlock: XOMCOT_clean_sbu_0, # of connection points: 5
#     Node 22, Type 0, BuildingBlock: XOMCOT_clean_sbu_0, # of connection points: 5
#     Node 23, Type 0, BuildingBlock: XOMCOT_clean_sbu_0, # of connection points: 5
#     Node 24, Type 0, BuildingBlock: XOMCOT_clean_sbu_0, # of connection points: 5
#     Node 25, Type 0, BuildingBlock: XOMCOT_clean_sbu_0, # of connection points: 5
#     Node 26, Type 0, BuildingBlock: XOMCOT_clean_sbu_0, # of connection points: 5
#     Node 27, Type 0, BuildingBlock: XOMCOT_clean_sbu_0, # of connection points: 5
#     Node 28, Type 0, BuildingBlock: XOMCOT_clean_sbu_0, # of connection points: 5
#     Node 29, Type 0, BuildingBlock: XOMCOT_clean_sbu_0, # of connection points: 5
#     Node 30, Type 0, BuildingBlock: XOMCOT_clean_sbu_0, # of connection points: 5
#     Node 31, Type 0, BuildingBlock: XOMCOT_clean_sbu_0, # of connection points: 5
#     Edge 32, Type (0, 0), None
#     Edge 33, Type (0, 0), None
#     Edge 34, Type (0, 0), None
#     Edge 35, Type (0, 0), None
#     Edge 36, Type (0, 0), None
#     Edge 37, Type (0, 0), None
#     Edge 38, Type (0, 0), None
#     Edge 39, Type (0, 0), None
#     Edge 40, Type (0, 0), None
#     Edge 41, Type (0, 0), None
#     Edge 42, Type (0, 0), None
#     Edge 43, Type (0, 0), None
#     Edge 44, Type (0, 0), None
#     Edge 45, Type (0, 0), None
#     Edge 46, Type (0, 0), None
#     Edge 47, Type (0, 0), None
#     Edge 48, Type (0, 0), None
#     Edge 49, Type (0, 0), None
#     Edge 50, Type (0, 0), None
#     Edge 51, Type (0, 0), None
#     Edge 52, Type (0, 0), None
#     Edge 53, Type (0, 0), None
#     Edge 54, Type (0, 0), None
#     Edge 55, Type (0, 0), None
#     Edge 56, Type (0, 0), None
#     Edge 57, Type (0, 0), None
#     Edge 58, Type (0, 0), None
#     Edge 59, Type (0, 0), None
#     Edge 60, Type (0, 0), None
#     Edge 61, Type (0, 0), None
#     Edge 62, Type (0, 0), None
#     Edge 63, Type (0, 0), None
#     Edge 64, Type (0, 0), None
#     Edge 65, Type (0, 0), None
#     Edge 66, Type (0, 0), None
#     Edge 67, Type (0, 0), None
#     Edge 68, Type (0, 0), None
#     Edge 69, Type (0, 0), None
#     Edge 70, Type (0, 0), None
#     Edge 71, Type (0, 0), None
#     Edge 72, Type (0, 0), None
#     Edge 73, Type (0, 0), None
#     Edge 74, Type (0, 0), None
#     Edge 75, Type (0, 0), None
#     Edge 76, Type (0, 0), None
#     Edge 77, Type (0, 0), None
#     Edge 78, Type (0, 0), None
#     Edge 79, Type (0, 0), None
#     Edge 80, Type (0, 0), None
#     Edge 81, Type (0, 0), None
#     Edge 82, Type (0, 0), None
#     Edge 83, Type (0, 0), None
#     Edge 84, Type (0, 0), None
#     Edge 85, Type (0, 0), None
#     Edge 86, Type (0, 0), None
#     Edge 87, Type (0, 0), None
#     Edge 88, Type (0, 0), None
#     Edge 89, Type (0, 0), None
#     Edge 90, Type (0, 0), None
#     Edge 91, Type (0, 0), None
#     Edge 92, Type (0, 0), None
#     Edge 93, Type (0, 0), None
#     Edge 94, Type (0, 0), None
#     Edge 95, Type (0, 0), None
#     Edge 96, Type (0, 0), None
#     Edge 97, Type (0, 0), None
#     Edge 98, Type (0, 0), None
#     Edge 99, Type (0, 0), None
#     Edge 100, Type (0, 0), None
#     Edge 101, Type (0, 0), None
#     Edge 102, Type (0, 0), None
#     Edge 103, Type (0, 0), None
#     Edge 104, Type (0, 0), None
#     Edge 105, Type (0, 0), None
#     Edge 106, Type (0, 0), None
#     Edge 107, Type (0, 0), None
#     Edge 108, Type (0, 0), None
#     Edge 109, Type (0, 0), None
#     Edge 110, Type (0, 0), None
#     Edge 111, Type (0, 0), None
# Relax obj value: 0.280
# Max RMSD: 0.214
# Mean RMSD: 0.214
data_MOF--net-soh--node1-XOMCOT_clean_sbu_0--edge1-none
_symmetry_space_group_name_H-M    P1
_symmetry_Int_Tables_number       1
_symmetry_cell_setting            triclinic
loop_
_symmetry_equiv_pos_as_xyz
'x, y, z'
_cell_length_a     39.093003
_cell_length_b     22.17263
_cell_length_c     23.514559
_cell_angle_alpha  90.000078
_cell_angle_beta   90.000565
_cell_angle_gamma 90.00337
loop_
_atom_site_label
_atom_site_type_symbol
_atom_site_fract_x
_atom_site_fract_y
_atom_site_fract_z
_atom_type_partial_charge
Co0 Co 0.32707 0.34514 0.21773 0.0
C1 C 0.34096 0.23058 0.16656 0.0
C2 C 0.2986 0.2742 0.12543 0.0
C3 C 0.29772 0.21382 0.11239 0.0
N4 N 0.32535 0.28421 0.16037 0.0
N5 N 0.32411 0.18694 0.13908 0.0
H6 H 0.36052 0.2217 0.19803 0.0
H7 H 0.27825 0.30599 0.1172 0.0
C8 C 0.39395 0.40792 0.20442 0.0
O9 O 0.37832 0.45953 0.21316 0.0
N10 N 0.32912 0.40447 0.27771 0.0
C11 C 0.30445 0.44381 0.29309 0.0
C12 C 0.30654 0.45309 0.35076 0.0
C13 C 0.34668 0.39296 0.3259 0.0
N14 N 0.33263 0.41987 0.37114 0.0
C15 C 0.27849 0.42435 0.16093 0.0
C16 C 0.32119 0.46492 0.07502 0.0
C17 C 0.28762 0.48688 0.07657 0.0
C18 C 0.26613 0.46516 0.12005 0.0
C19 C 0.33236 0.42301 0.11621 0.0
N20 N 0.31171 0.40529 0.16049 0.0
H21 H 0.26098 0.40699 0.19248 0.0
H22 H 0.35745 0.40377 0.11087 0.0
H23 H 0.28331 0.45809 0.26709 0.0
H24 H 0.36555 0.35749 0.32966 0.0
O25 O 0.2834 0.3142 0.24977 0.0
O26 O 0.33443 0.28293 0.27494 0.0
O27 O 0.37694 0.35896 0.20063 0.0
C28 C 0.30178 0.27881 0.28217 0.0
H29 H 0.27688 0.19026 0.09174 0.0
H30 H 0.28728 0.47482 0.37674 0.0
H31 H 0.33833 0.47819 0.04108 0.0
H32 H 0.23966 0.47938 0.12249 0.0
Co33 Co 0.9983 0.9684 0.21774 0.0
C34 C 0.98441 0.08295 0.16656 0.0
C35 C 1.02679 0.03935 0.12546 0.0
C36 C 1.02766 0.09972 0.11242 0.0
N37 N 1.00003 1.02933 0.16038 0.0
N38 N 1.00126 0.1266 0.13909 0.0
H39 H 0.96484 0.09182 0.19801 0.0
H40 H 0.04714 1.00756 0.11725 0.0
C41 C 0.93142 0.90564 0.2044 0.0
O42 O 0.94704 0.85402 0.21314 0.0
N43 N 0.99624 0.90907 0.27771 0.0
C44 C 1.0209 0.86974 0.29311 0.0
C45 C 1.0188 0.86046 0.35078 0.0
C46 C 0.97867 0.92058 0.32589 0.0
N47 N 0.99271 0.89369 0.37114 0.0
C48 C 0.04688 0.88917 0.16097 0.0
C49 C 1.00419 0.84862 0.07504 0.0
C50 C 0.03776 0.82663 0.07661 0.0
C51 C 0.05924 0.84835 0.1201 0.0
C52 C 0.99302 0.89053 0.11622 0.0
N53 N 1.01366 0.90824 0.16051 0.0
H54 H 0.06439 0.90653 0.19252 0.0
H55 H 0.96793 0.90978 0.11086 0.0
H56 H 0.04204 0.85545 0.26713 0.0
H57 H 0.9598 0.95606 0.32965 0.0
O58 O 0.04197 0.99933 0.2498 0.0
O59 O 0.99093 1.03062 0.27494 0.0
O60 O 0.94843 0.95459 0.20062 0.0
C61 C 1.02359 0.03472 0.28219 0.0
H62 H 0.04851 0.12329 0.09179 0.0
H63 H 0.03806 0.83874 0.37677 0.0
H64 H 0.98705 0.83535 0.04109 0.0
H65 H 0.0857 0.83411 0.12255 0.0
Co66 Co 0.32707 0.96837 0.07881 0.0
C67 C 0.34097 0.08302 0.12973 0.0
C68 C 0.29854 0.03957 0.17086 0.0
C69 C 0.29763 0.10001 0.18366 0.0
N70 N 0.32535 1.02941 0.13607 0.0
N71 N 0.32403 0.12675 0.15691 0.0
H72 H 0.36059 0.09176 0.09834 0.0
H73 H 0.27818 1.0078 0.17913 0.0
C74 C 0.39395 0.90563 0.09223 0.0
O75 O 0.37832 0.854 0.08355 0.0
N76 N 0.32912 0.90892 1.01894 0.0
C77 C 0.30443 0.86962 1.00357 0.0
C78 C 0.30654 0.86027 0.94591 0.0
C79 C 0.34671 0.92035 0.97076 0.0
N80 N 0.33266 0.89344 0.92553 0.0
C81 C 0.27848 0.88925 0.13571 0.0
C82 C 0.32117 0.84875 0.22165 0.0
C83 C 0.28761 0.82677 0.2201 0.0
C84 C 0.26612 0.84845 0.1766 0.0
C85 C 0.33234 0.89064 0.18044 0.0
N86 N 0.3117 0.90832 0.13614 0.0
H87 H 0.26097 0.90657 0.10414 0.0
H88 H 0.35744 0.90989 0.18577 0.0
H89 H 0.28327 0.85542 0.02955 0.0
H90 H 0.3656 0.9558 0.96698 0.0
O91 O 0.2834 0.99925 0.04671 0.0
O92 O 0.33443 1.03048 1.0215 0.0
O93 O 0.37694 0.95459 0.09596 0.0
C94 C 0.30178 0.03459 1.01427 0.0
H95 H 0.27676 0.12366 0.20416 0.0
H96 H 0.28727 0.83857 0.91993 0.0
H97 H 0.33832 0.8355 0.2556 0.0
H98 H 0.23965 0.83421 0.17416 0.0
Co99 Co 0.99829 0.34517 0.07882 0.0
C100 C 0.98439 0.23051 0.12973 0.0
C101 C 1.0268 0.27398 0.1709 0.0
C102 C 1.02772 0.21354 0.18369 0.0
N103 N 1.0 0.28413 0.13608 0.0
N104 N 1.00133 0.18678 0.15692 0.0
H105 H 0.96478 0.22176 0.09832 0.0
H106 H 0.04716 0.30575 0.17918 0.0
C107 C 0.93142 0.40793 0.09221 0.0
O108 O 0.94705 0.45955 0.08353 0.0
N109 N 0.99626 0.40462 1.01895 0.0
C110 C 1.02095 0.44392 1.00359 0.0
C111 C 1.01885 0.45327 0.94593 0.0
C112 C 0.97867 0.39319 0.97075 0.0
N113 N 0.99274 0.42011 0.92553 0.0
C114 C 0.04688 0.42427 0.13574 0.0
C115 C 1.00418 0.46478 0.22166 0.0
C116 C 0.03775 0.48675 0.22013 0.0
C117 C 0.05924 0.46505 0.17665 0.0
C118 C 0.99301 0.4229 0.18044 0.0
N119 N 1.01366 0.40522 0.13616 0.0
H120 H 0.06439 0.40694 0.10418 0.0
H121 H 0.96791 0.40366 0.18577 0.0
H122 H 0.0421 0.45812 0.02959 0.0
H123 H 0.95979 0.35775 0.96697 0.0
O124 O 0.04196 0.31428 0.04674 0.0
O125 O 0.99093 0.28306 1.02151 0.0
O126 O 0.94842 0.35896 0.09595 0.0
C127 C 1.02359 0.27894 1.01429 0.0
H128 H 0.04858 0.18989 0.20421 0.0
H129 H 0.03812 0.47498 0.91996 0.0
H130 H 0.98703 0.47804 0.2556 0.0
H131 H 0.08571 0.47928 0.17422 0.0
Co132 Co 0.7483 0.71843 0.82885 0.0
C133 C 0.7344 0.83299 0.88002 0.0
C134 C 0.77676 0.78936 0.92116 0.0
C135 C 0.77764 0.84974 0.9342 0.0
N136 N 0.75001 0.77935 0.88622 0.0
N137 N 0.75126 0.87663 0.90751 0.0
H138 H 0.71484 0.84186 0.84856 0.0
H139 H 0.79712 0.75757 0.92939 0.0
C140 C 0.68142 0.65564 0.84216 0.0
O141 O 0.69705 0.60403 0.83343 0.0
N142 N 0.74625 0.65909 0.76888 0.0
C143 C 0.77092 0.61976 0.7535 0.0
C144 C 0.76883 0.61047 0.69583 0.0
C145 C 0.72868 0.6706 0.72069 0.0
N146 N 0.74274 0.6437 0.67545 0.0
C147 C 0.79688 0.63922 0.88565 0.0
C148 C 0.75418 0.59865 0.97156 0.0
C149 C 0.78775 0.57669 0.97001 0.0
C150 C 0.80924 0.59841 0.92654 0.0
C151 C 0.74301 0.64055 0.93037 0.0
N152 N 0.76366 0.65827 0.8861 0.0
H153 H 0.81438 0.65658 0.8541 0.0
H154 H 0.71791 0.65979 0.93572 0.0
H155 H 0.79205 0.60548 0.77949 0.0
H156 H 0.70982 0.70607 0.71692 0.0
O157 O 0.79197 0.74937 0.79681 0.0
O158 O 0.74093 0.78064 0.77165 0.0
O159 O 0.69842 0.70461 0.84595 0.0
C160 C 0.77359 0.78475 0.76441 0.0
H161 H 0.79849 0.8733 0.95484 0.0
H162 H 0.78808 0.58874 0.66985 0.0
H163 H 0.73703 0.58537 1.0055 0.0
H164 H 0.8357 0.58418 0.9241 0.0
Co165 Co 0.07707 0.09516 0.82884 0.0
C166 C 0.09096 0.98061 0.88002 0.0
C167 C 0.04858 1.02422 0.92113 0.0
C168 C 0.04771 0.96384 0.93417 0.0
N169 N 0.07534 0.03424 0.88621 0.0
N170 N 0.0741 0.93696 0.9075 0.0
H171 H 0.11053 0.97175 0.84858 0.0
H172 H 1.02822 0.056 0.92934 0.0
C173 C 0.14395 0.15793 0.84218 0.0
O174 O 0.12832 0.20954 0.83344 0.0
N175 N 0.07913 0.1545 0.76887 0.0
C176 C 0.05446 0.19383 0.75348 0.0
C177 C 0.05656 0.2031 0.69581 0.0
C178 C 0.0967 0.14298 0.72069 0.0
N179 N 0.08265 0.16987 0.67544 0.0
C180 C 1.02848 0.17439 0.88562 0.0
C181 C 0.07117 0.21495 0.97155 0.0
C182 C 1.03761 0.23692 0.96998 0.0
C183 C 1.01612 0.21522 0.92649 0.0
C184 C 0.08235 0.17304 0.93037 0.0
N185 N 0.0617 0.15532 0.88608 0.0
H186 H 1.01098 0.15703 0.85406 0.0
H187 H 0.10744 0.15379 0.93572 0.0
H188 H 1.03332 0.20811 0.77946 0.0
H189 H 0.11557 0.10751 0.71694 0.0
O190 O 1.0334 0.06423 0.79678 0.0
O191 O 0.08443 0.03295 0.77164 0.0
O192 O 0.12694 0.10897 0.84596 0.0
C193 C 0.05178 1.02884 0.76439 0.0
H194 H 1.02686 0.94027 0.9548 0.0
H195 H 1.03731 0.22482 0.66981 0.0
H196 H 0.08832 0.22822 1.0055 0.0
H197 H 0.98966 0.22945 0.92404 0.0
Co198 Co 0.7483 0.09519 0.96777 0.0
C199 C 0.7344 0.98055 0.91685 0.0
C200 C 0.77683 1.02399 0.87572 0.0
C201 C 0.77774 0.96355 0.86293 0.0
N202 N 0.75002 0.03415 0.91052 0.0
N203 N 0.75133 0.93681 0.88967 0.0
H204 H 0.71477 0.9718 0.94824 0.0
H205 H 0.79719 0.05576 0.86745 0.0
C206 C 0.68142 0.15793 0.95435 0.0
O207 O 0.69704 0.20957 0.96303 0.0
N208 N 0.74625 0.15464 0.02764 0.0
C209 C 0.77093 0.19395 0.04301 0.0
C210 C 0.76883 0.20329 0.10068 0.0
C211 C 0.72865 0.14322 0.07583 0.0
N212 N 0.74271 0.17013 0.12106 0.0
C213 C 0.79689 0.17432 0.91088 0.0
C214 C 0.75419 0.21481 0.82494 0.0
C215 C 0.78776 0.2368 0.82649 0.0
C216 C 0.80925 0.21511 0.86998 0.0
C217 C 0.74302 0.17293 0.86615 0.0
N218 N 0.76367 0.15525 0.91044 0.0
H219 H 0.81439 0.15699 0.94245 0.0
H220 H 0.71793 0.15367 0.86081 0.0
H221 H 0.79209 0.20815 1.01703 0.0
H222 H 0.70977 0.10777 0.0796 0.0
O223 O 0.79197 0.06431 0.99988 0.0
O224 O 0.74093 0.03309 0.02508 0.0
O225 O 0.69843 0.10898 0.95063 0.0
C226 C 0.77359 1.02897 0.03232 0.0
H227 H 0.7986 0.9399 0.84243 0.0
H228 H 0.78809 0.22499 0.12666 0.0
H229 H 0.73705 0.22806 0.79099 0.0
H230 H 0.83571 0.22936 0.87242 0.0
Co231 Co 0.07707 0.7184 0.96777 0.0
C232 C 0.09097 0.83305 0.91686 0.0
C233 C 0.04856 0.78959 0.87569 0.0
C234 C 0.04764 0.85003 0.8629 0.0
N235 N 0.07536 0.77944 0.91051 0.0
N236 N 0.07404 0.87678 0.88967 0.0
H237 H 0.11059 0.8418 0.94827 0.0
H238 H 1.02821 0.75781 0.8674 0.0
C239 C 0.14394 0.65564 0.95437 0.0
O240 O 0.12832 0.60401 0.96305 0.0
N241 N 0.07911 0.65894 0.02764 0.0
C242 C 0.05442 0.61964 0.04299 0.0
C243 C 0.05651 0.61029 0.10066 0.0
C244 C 0.09669 0.67037 0.07583 0.0
N245 N 0.08263 0.64345 0.12106 0.0
C246 C 1.02848 0.63929 0.91085 0.0
C247 C 0.07119 0.59879 0.82492 0.0
C248 C 1.03762 0.57682 0.82645 0.0
C249 C 1.01612 0.59851 0.86993 0.0
C250 C 0.08236 0.64066 0.86614 0.0
N251 N 0.0617 0.65834 0.91043 0.0
H252 H 1.01097 0.65662 0.94241 0.0
H253 H 0.10745 0.6599 0.86082 0.0
H254 H 1.03326 0.60544 1.017 0.0
H255 H 0.11558 0.70581 0.07962 0.0
O256 O 1.0334 0.74928 0.99985 0.0
O257 O 0.08443 0.7805 0.02508 0.0
O258 O 0.12694 0.7046 0.95064 0.0
C259 C 0.05178 0.78461 0.0323 0.0
H260 H 1.02679 0.87367 0.84238 0.0
H261 H 1.03724 0.58858 0.12662 0.0
H262 H 0.08834 0.58553 0.79098 0.0
H263 H 0.98966 0.58428 0.87236 0.0
Co264 Co 0.32706 0.84513 0.71773 0.0
C265 C 0.34092 0.73061 0.6665 0.0
C266 C 0.29852 0.77423 0.62547 0.0
C267 C 0.29763 0.71385 0.61245 0.0
N268 N 0.32531 0.78424 0.66033 0.0
N269 N 0.32403 0.68696 0.63908 0.0
H270 H 0.36051 0.72174 0.69791 0.0
H271 H 0.27817 0.80602 0.61729 0.0
C272 C 0.39394 0.90789 0.70441 0.0
O273 O 0.37831 0.9595 0.71317 0.0
N274 N 0.32913 0.90443 0.77773 0.0
C275 C 0.30442 0.94365 0.79323 0.0
C276 C 0.30648 0.95275 0.85094 0.0
C277 C 0.34671 0.89282 0.82589 0.0
N278 N 0.33259 0.91948 0.87118 0.0
C279 C 0.27848 0.92443 0.661 0.0
C280 C 0.32117 0.96496 0.57505 0.0
C281 C 0.28761 0.98696 0.57664 0.0
C282 C 0.26612 0.96526 0.62013 0.0
C283 C 0.33234 0.92304 0.61623 0.0
N284 N 0.3117 0.90533 0.66052 0.0
H285 H 0.26098 0.90707 0.69255 0.0
H286 H 0.35742 0.90377 0.61086 0.0
H287 H 0.28327 0.95794 0.76727 0.0
H288 H 0.36562 0.85741 0.82956 0.0
O289 O 0.28339 0.8142 0.74978 0.0
O290 O 0.33442 0.78288 0.77489 0.0
O291 O 0.37693 0.85893 0.7006 0.0
C292 C 0.30176 0.77879 0.78215 0.0
H293 H 0.27676 0.69029 0.59188 0.0
H294 H 0.28722 0.97436 0.87699 0.0
H295 H 0.33831 0.97822 0.5411 0.0
H296 H 0.23966 0.97951 0.62259 0.0
Co297 Co 0.99831 0.46845 0.71772 0.0
C298 C 0.98444 0.58299 0.6665 0.0
C299 C 1.02682 0.53935 0.62544 0.0
C300 C 1.02772 0.59973 0.61242 0.0
N301 N 1.00004 0.52935 0.66032 0.0
N302 N 1.00132 0.62663 0.63907 0.0
H303 H 0.96486 0.59187 0.69793 0.0
H304 H 0.04717 0.50755 0.61724 0.0
C305 C 0.93143 0.40568 0.70443 0.0
O306 O 0.94706 0.35407 0.71318 0.0
N307 N 0.99625 0.40915 0.77773 0.0
C308 C 1.02096 0.36994 0.79321 0.0
C309 C 1.01891 0.36083 0.85092 0.0
C310 C 0.97867 0.42075 0.82589 0.0
N311 N 0.9928 0.39409 0.87118 0.0
C312 C 0.04688 0.38918 0.66096 0.0
C313 C 1.00418 0.34863 0.57504 0.0
C314 C 0.03775 0.32665 0.5766 0.0
C315 C 0.05924 0.34836 0.62008 0.0
C316 C 0.99301 0.39054 0.61622 0.0
N317 N 1.01366 0.40826 0.66051 0.0
H318 H 0.06439 0.40654 0.69251 0.0
H319 H 0.96792 0.4098 0.61087 0.0
H320 H 0.0421 0.35565 0.76724 0.0
H321 H 0.95976 0.45616 0.82957 0.0
O322 O 0.04198 0.49939 0.74976 0.0
O323 O 0.99095 0.5307 0.77489 0.0
O324 O 0.94843 0.45464 0.70061 0.0
C325 C 1.0236 0.5348 0.78214 0.0
H326 H 0.04858 0.62328 0.59183 0.0
H327 H 0.03817 0.33921 0.87696 0.0
H328 H 0.98704 0.33536 0.5411 0.0
H329 H 0.0857 0.33413 0.62253 0.0
Co330 Co 0.32706 0.46842 0.57884 0.0
C331 C 0.34094 0.58305 0.6298 0.0
C332 C 0.29851 0.53957 0.67089 0.0
C333 C 0.29757 0.60002 0.68366 0.0
N334 N 0.32534 0.52943 0.63612 0.0
N335 N 0.32397 0.62678 0.65694 0.0
H336 H 0.36057 0.59181 0.59842 0.0
H337 H 0.27816 0.50779 0.67914 0.0
C338 C 0.39394 0.40568 0.59221 0.0
O339 O 0.37831 0.35405 0.58351 0.0
N340 N 0.32911 0.40901 0.51892 0.0
C341 C 0.30437 0.36983 0.50347 0.0
C342 C 0.30644 0.36065 0.44577 0.0
C343 C 0.34671 0.42052 0.47076 0.0
N344 N 0.33256 0.39384 0.42549 0.0
C345 C 0.27848 0.38925 0.63571 0.0
C346 C 0.32118 0.34877 0.72165 0.0
C347 C 0.28762 0.32679 0.72011 0.0
C348 C 0.26612 0.34847 0.67662 0.0
C349 C 0.33235 0.39065 0.68043 0.0
N350 N 0.3117 0.40833 0.63614 0.0
H351 H 0.26097 0.40659 0.60415 0.0
H352 H 0.35744 0.40991 0.68577 0.0
H353 H 0.28321 0.35561 0.52944 0.0
H354 H 0.36563 0.45591 0.46706 0.0
O355 O 0.28339 0.49932 0.54675 0.0
O356 O 0.33442 0.53057 0.52156 0.0
O357 O 0.37693 0.45463 0.59597 0.0
C358 C 0.30177 0.53467 0.51433 0.0
H359 H 0.27669 0.62365 0.70412 0.0
H360 H 0.28716 0.33905 0.41974 0.0
H361 H 0.33833 0.33552 0.75559 0.0
H362 H 0.23966 0.33423 0.67418 0.0
Co363 Co 0.99831 0.84516 0.57883 0.0
C364 C 0.98443 0.73054 0.6298 0.0
C365 C 1.02688 0.77401 0.67086 0.0
C366 C 1.02782 0.71356 0.68363 0.0
N367 N 1.00005 0.78416 0.63611 0.0
N368 N 1.0014 0.68681 0.65692 0.0
H369 H 0.96479 0.72179 0.59844 0.0
H370 H 0.04724 0.80578 0.67909 0.0
C371 C 0.93143 0.90789 0.59223 0.0
O372 O 0.94705 0.95952 0.58352 0.0
N373 N 0.99624 0.90457 0.51892 0.0
C374 C 1.02098 0.94376 0.50345 0.0
C375 C 1.01891 0.95293 0.44575 0.0
C376 C 0.97864 0.89306 0.47076 0.0
N377 N 0.99278 0.91973 0.42548 0.0
C378 C 0.04689 0.92435 0.63568 0.0
C379 C 1.0042 0.96483 0.72163 0.0
C380 C 0.03776 0.98682 0.72008 0.0
C381 C 0.05925 0.96515 0.67657 0.0
C382 C 0.99303 0.92293 0.68043 0.0
N383 N 1.01367 0.90526 0.63613 0.0
H384 H 0.0644 0.90702 0.60411 0.0
H385 H 0.96794 0.90367 0.68577 0.0
H386 H 0.04214 0.95798 0.52941 0.0
H387 H 0.95971 0.85767 0.46707 0.0
O388 O 0.04198 0.81428 0.54673 0.0
O389 O 0.99094 0.78302 0.52155 0.0
O390 O 0.94844 0.85894 0.59598 0.0
C391 C 1.0236 0.77892 0.51431 0.0
H392 H 0.0487 0.68992 0.70408 0.0
H393 H 0.03818 0.97452 0.41971 0.0
H394 H 0.98705 0.97807 0.75558 0.0
H395 H 0.08571 0.97941 0.67413 0.0
Co396 Co 0.74831 0.21843 0.32886 0.0
C397 C 0.73444 0.33296 0.38009 0.0
C398 C 0.77684 0.28934 0.42112 0.0
C399 C 0.77774 0.34972 0.43413 0.0
N400 N 0.75005 0.27932 0.38625 0.0
N401 N 0.75133 0.3766 0.40751 0.0
H402 H 0.71485 0.34183 0.34867 0.0
H403 H 0.7972 0.25754 0.42929 0.0
C404 C 0.68143 0.15568 0.34218 0.0
O405 O 0.69705 0.10406 0.33342 0.0
N406 N 0.74624 0.15913 0.26885 0.0
C407 C 0.77095 0.11992 0.25335 0.0
C408 C 0.76888 0.11081 0.19565 0.0
C409 C 0.72865 0.17074 0.22069 0.0
N410 N 0.74278 0.14408 0.1754 0.0
C411 C 0.79688 0.13913 0.38559 0.0
C412 C 0.7542 0.0986 0.47153 0.0
C413 C 0.78776 0.0766 0.46995 0.0
C414 C 0.80924 0.0983 0.42645 0.0
C415 C 0.74303 0.14052 0.43035 0.0
N416 N 0.76367 0.15823 0.38606 0.0
H417 H 0.81439 0.15649 0.35404 0.0
H418 H 0.71794 0.15979 0.43573 0.0
H419 H 0.79209 0.10562 0.27931 0.0
H420 H 0.70974 0.20615 0.21703 0.0
O421 O 0.79198 0.24936 0.2968 0.0
O422 O 0.74095 0.28068 0.27169 0.0
O423 O 0.69844 0.20463 0.34598 0.0
C424 C 0.7736 0.28478 0.26443 0.0
H425 H 0.79861 0.37328 0.45471 0.0
H426 H 0.78815 0.08921 0.16959 0.0
H427 H 0.73706 0.08534 0.50548 0.0
H428 H 0.8357 0.08405 0.42399 0.0
Co429 Co 0.07706 0.59511 0.32887 0.0
C430 C 0.09093 0.48057 0.38008 0.0
C431 C 0.04855 0.52422 0.42115 0.0
C432 C 0.04765 0.46383 0.43417 0.0
N433 N 0.07533 0.53422 0.38626 0.0
N434 N 0.07404 0.43694 0.40752 0.0
H435 H 0.11051 0.4717 0.34865 0.0
H436 H 1.0282 0.55602 0.42935 0.0
C437 C 0.14394 0.65788 0.34216 0.0
O438 O 0.12831 0.70949 0.3334 0.0
N439 N 0.07912 0.65441 0.26886 0.0
C440 C 0.0544 0.69362 0.25337 0.0
C441 C 0.05646 0.70273 0.19566 0.0
C442 C 0.09669 0.64281 0.22069 0.0
N443 N 0.08256 0.66947 0.17541 0.0
C444 C 1.02849 0.67439 0.38562 0.0
C445 C 0.07118 0.71493 0.47155 0.0
C446 C 1.03762 0.7369 0.46999 0.0
C447 C 1.01613 0.7152 0.4265 0.0
C448 C 0.08235 0.67302 0.43036 0.0
N449 N 0.0617 0.65531 0.38608 0.0
H450 H 1.01098 0.65702 0.35408 0.0
H451 H 0.10744 0.65377 0.43572 0.0
H452 H 1.03326 0.70792 0.27935 0.0
H453 H 0.1156 0.6074 0.21701 0.0
O454 O 1.03339 0.56417 0.29683 0.0
O455 O 0.08442 0.53286 0.2717 0.0
O456 O 0.12693 0.60893 0.34597 0.0
C457 C 0.05176 0.52877 0.26445 0.0
H458 H 1.02678 0.44028 0.45476 0.0
H459 H 1.03719 0.72434 0.16962 0.0
H460 H 0.08833 0.7282 0.50549 0.0
H461 H 0.98966 0.72943 0.42406 0.0
Co462 Co 0.7483 0.59514 0.46775 0.0
C463 C 0.73442 0.48051 0.41679 0.0
C464 C 0.77686 0.52399 0.37569 0.0
C465 C 0.7778 0.46355 0.36292 0.0
N466 N 0.75003 0.53414 0.41046 0.0
N467 N 0.75139 0.43678 0.38965 0.0
H468 H 0.71479 0.47175 0.44816 0.0
H469 H 0.79721 0.55578 0.36745 0.0
C470 C 0.68143 0.65789 0.45437 0.0
O471 O 0.69706 0.70951 0.46308 0.0
N472 N 0.74625 0.65455 0.52766 0.0
C473 C 0.77099 0.69374 0.54312 0.0
C474 C 0.76893 0.70292 0.60082 0.0
C475 C 0.72866 0.64304 0.57583 0.0
N476 N 0.7428 0.66972 0.6211 0.0
C477 C 0.79689 0.67431 0.41088 0.0
C478 C 0.75418 0.7148 0.32494 0.0
C479 C 0.78775 0.73678 0.32648 0.0
C480 C 0.80924 0.71509 0.36997 0.0
C481 C 0.74302 0.67291 0.36615 0.0
N482 N 0.76367 0.65523 0.41044 0.0
H483 H 0.8144 0.65698 0.44243 0.0
H484 H 0.71792 0.65366 0.36082 0.0
H485 H 0.79215 0.70795 0.51715 0.0
H486 H 0.70973 0.60766 0.57953 0.0
O487 O 0.79198 0.56425 0.49983 0.0
O488 O 0.74094 0.533 0.52502 0.0
O489 O 0.69843 0.60893 0.45062 0.0
C490 C 0.7736 0.52889 0.53226 0.0
H491 H 0.79868 0.43991 0.34246 0.0
H492 H 0.78821 0.72451 0.62685 0.0
H493 H 0.73703 0.72805 0.291 0.0
H494 H 0.83571 0.72934 0.3724 0.0
Co495 Co 0.07706 0.2184 0.46776 0.0
C496 C 0.09093 0.33302 0.41679 0.0
C497 C 0.04848 0.28956 0.37573 0.0
C498 C 0.04755 0.35 0.36296 0.0
N499 N 0.07532 0.27941 0.41048 0.0
N500 N 0.07397 0.37676 0.38966 0.0
H501 H 0.11058 0.34177 0.44815 0.0
H502 H 1.02812 0.25778 0.3675 0.0
C503 C 0.14394 0.15567 0.45435 0.0
O504 O 0.12832 0.10404 0.46306 0.0
N505 N 0.07912 0.15899 0.52767 0.0
C506 C 0.05439 0.1198 0.54314 0.0
C507 C 0.05646 0.11063 0.60084 0.0
C508 C 0.09673 0.1705 0.57582 0.0
N509 N 0.08259 0.14383 0.6211 0.0
C510 C 1.02847 0.13921 0.41091 0.0
C511 C 0.07117 0.09874 0.32495 0.0
C512 C 1.0376 0.07674 0.32651 0.0
C513 C 1.01612 0.09841 0.37001 0.0
C514 C 0.08234 0.14063 0.36616 0.0
N515 N 0.06169 0.1583 0.41046 0.0
H516 H 1.01097 0.15654 0.44247 0.0
H517 H 0.10743 0.1599 0.36081 0.0
H518 H 1.03322 0.10559 0.51718 0.0
H519 H 0.11565 0.20589 0.57951 0.0
O520 O 1.03339 0.24928 0.49986 0.0
O521 O 0.08442 0.28054 0.52503 0.0
O522 O 0.12693 0.20462 0.45061 0.0
C523 C 0.05177 0.28464 0.53228 0.0
H524 H 1.02667 0.37365 0.34251 0.0
H525 H 1.03718 0.08904 0.62687 0.0
H526 H 0.08831 0.0855 0.291 0.0
H527 H 0.98966 0.08416 0.37246 0.0
Co528 Co 0.82707 0.34514 0.71773 0.0
C529 C 0.84096 0.23058 0.66657 0.0
C530 C 0.7986 0.2742 0.62543 0.0
C531 C 0.79773 0.21382 0.61239 0.0
N532 N 0.82535 0.28421 0.66037 0.0
N533 N 0.82411 0.18694 0.63908 0.0
H534 H 0.86052 0.2217 0.69803 0.0
H535 H 0.77825 0.30599 0.6172 0.0
C536 C 0.89394 0.40792 0.70442 0.0
O537 O 0.87832 0.45954 0.71316 0.0
N538 N 0.82911 0.40448 0.77771 0.0
C539 C 0.80445 0.44381 0.79309 0.0
C540 C 0.80653 0.45309 0.85076 0.0
C541 C 0.84668 0.39296 0.8259 0.0
N542 N 0.83263 0.41987 0.87114 0.0
C543 C 0.77849 0.42435 0.66093 0.0
C544 C 0.82119 0.46491 0.57502 0.0
C545 C 0.78762 0.48687 0.57657 0.0
C546 C 0.76613 0.46516 0.62005 0.0
C547 C 0.83236 0.42301 0.61621 0.0
N548 N 0.81171 0.40529 0.66049 0.0
H549 H 0.76098 0.40699 0.69248 0.0
H550 H 0.85745 0.40377 0.61087 0.0
H551 H 0.78331 0.45809 0.76709 0.0
H552 H 0.86555 0.3575 0.82966 0.0
O553 O 0.7834 0.3142 0.74978 0.0
O554 O 0.83443 0.28293 0.77494 0.0
O555 O 0.87694 0.35896 0.70063 0.0
C556 C 0.80178 0.27882 0.78218 0.0
H557 H 0.77688 0.19026 0.59174 0.0
H558 H 0.78728 0.47482 0.87674 0.0
H559 H 0.83833 0.47819 0.54108 0.0
H560 H 0.73966 0.47938 0.62249 0.0
Co561 Co 0.4983 0.9684 0.71774 0.0
C562 C 0.48441 0.08295 0.66656 0.0
C563 C 0.52679 0.03935 0.62546 0.0
C564 C 0.52766 0.09972 0.61242 0.0
N565 N 0.50003 1.02933 0.66038 0.0
N566 N 0.50126 0.1266 0.63909 0.0
H567 H 0.46484 0.09182 0.69801 0.0
H568 H 0.54714 1.00756 0.61725 0.0
C569 C 0.43142 0.90563 0.7044 0.0
O570 O 0.44704 0.85402 0.71314 0.0
N571 N 0.49624 0.90907 0.77771 0.0
C572 C 0.5209 0.86974 0.79311 0.0
C573 C 0.5188 0.86046 0.85078 0.0
C574 C 0.47866 0.92058 0.82589 0.0
N575 N 0.49271 0.89369 0.87114 0.0
C576 C 0.54688 0.88917 0.66097 0.0
C577 C 0.50419 0.84862 0.57504 0.0
C578 C 0.53776 0.82663 0.57661 0.0
C579 C 0.55924 0.84835 0.6201 0.0
C580 C 0.49302 0.89053 0.61622 0.0
N581 N 0.51366 0.90824 0.66051 0.0
H582 H 0.56439 0.90653 0.69252 0.0
H583 H 0.46793 0.90978 0.61086 0.0
H584 H 0.54204 0.85545 0.76713 0.0
H585 H 0.4598 0.95606 0.82965 0.0
O586 O 0.54197 0.99933 0.7498 0.0
O587 O 0.49093 1.03062 0.77494 0.0
O588 O 0.44843 0.95459 0.70062 0.0
C589 C 0.52359 0.03472 0.78219 0.0
H590 H 0.54851 0.12329 0.59179 0.0
H591 H 0.53806 0.83874 0.87677 0.0
H592 H 0.48705 0.83535 0.54109 0.0
H593 H 0.5857 0.83411 0.62256 0.0
Co594 Co 0.82707 0.96837 0.57881 0.0
C595 C 0.84097 0.08302 0.62973 0.0
C596 C 0.79854 0.03957 0.67086 0.0
C597 C 0.79763 0.10001 0.68366 0.0
N598 N 0.82535 1.02941 0.63606 0.0
N599 N 0.82403 0.12675 0.65691 0.0
H600 H 0.86059 0.09176 0.59834 0.0
H601 H 0.77818 1.0078 0.67913 0.0
C602 C 0.89394 0.90563 0.59224 0.0
O603 O 0.87832 0.854 0.58355 0.0
N604 N 0.82912 0.90892 0.51894 0.0
C605 C 0.80443 0.86962 0.50357 0.0
C606 C 0.80653 0.86028 0.44591 0.0
C607 C 0.84671 0.92035 0.47076 0.0
N608 N 0.83265 0.89344 0.42552 0.0
C609 C 0.77848 0.88925 0.63571 0.0
C610 C 0.82117 0.84876 0.72165 0.0
C611 C 0.78761 0.82677 0.7201 0.0
C612 C 0.76612 0.84845 0.67661 0.0
C613 C 0.83234 0.89064 0.68044 0.0
N614 N 0.8117 0.90832 0.63614 0.0
H615 H 0.76097 0.90657 0.60414 0.0
H616 H 0.85744 0.90989 0.68577 0.0
H617 H 0.78327 0.85542 0.52955 0.0
H618 H 0.8656 0.95579 0.46699 0.0
O619 O 0.7834 0.99925 0.54671 0.0
O620 O 0.83443 1.03048 0.5215 0.0
O621 O 0.87694 0.95459 0.59596 0.0
C622 C 0.80178 0.03458 0.51426 0.0
H623 H 0.77677 0.12366 0.70416 0.0
H624 H 0.78727 0.83858 0.41993 0.0
H625 H 0.83832 0.8355 0.7556 0.0
H626 H 0.73965 0.83421 0.67416 0.0
Co627 Co 0.49829 0.34517 0.57882 0.0
C628 C 0.48439 0.23051 0.62973 0.0
C629 C 0.5268 0.27398 0.6709 0.0
C630 C 0.52772 0.21354 0.68369 0.0
N631 N 0.5 0.28413 0.63608 0.0
N632 N 0.50133 0.18678 0.65692 0.0
H633 H 0.46478 0.22176 0.59833 0.0
H634 H 0.54716 0.30575 0.67918 0.0
C635 C 0.43142 0.40793 0.59222 0.0
O636 O 0.44705 0.45955 0.58354 0.0
N637 N 0.49626 0.40462 0.51895 0.0
C638 C 0.52095 0.44392 0.50359 0.0
C639 C 0.51885 0.45327 0.44593 0.0
C640 C 0.47867 0.39319 0.47075 0.0
N641 N 0.49274 0.42011 0.42553 0.0
C642 C 0.54688 0.42427 0.63574 0.0
C643 C 0.50418 0.46478 0.72167 0.0
C644 C 0.53775 0.48675 0.72013 0.0
C645 C 0.55924 0.46505 0.67665 0.0
C646 C 0.49301 0.4229 0.68045 0.0
N647 N 0.51366 0.40522 0.63616 0.0
H648 H 0.56439 0.40694 0.60418 0.0
H649 H 0.46791 0.40366 0.68577 0.0
H650 H 0.5421 0.45812 0.52959 0.0
H651 H 0.45979 0.35775 0.46697 0.0
O652 O 0.54196 0.31428 0.54674 0.0
O653 O 0.49093 0.28306 0.52151 0.0
O654 O 0.44842 0.35896 0.59595 0.0
C655 C 0.52359 0.27894 0.51429 0.0
H656 H 0.54858 0.18989 0.70421 0.0
H657 H 0.53812 0.47498 0.41996 0.0
H658 H 0.48703 0.47804 0.7556 0.0
H659 H 0.58571 0.47928 0.67422 0.0
Co660 Co 0.2483 0.71843 0.32885 0.0
C661 C 0.2344 0.83299 0.38002 0.0
C662 C 0.27676 0.78936 0.42116 0.0
C663 C 0.27764 0.84974 0.4342 0.0
N664 N 0.25001 0.77935 0.38621 0.0
N665 N 0.25126 0.87663 0.40751 0.0
H666 H 0.21484 0.84186 0.34855 0.0
H667 H 0.29711 0.75757 0.42939 0.0
C668 C 0.18142 0.65564 0.34216 0.0
O669 O 0.19705 0.60403 0.33343 0.0
N670 N 0.24625 0.65909 0.26888 0.0
C671 C 0.27092 0.61976 0.2535 0.0
C672 C 0.26883 0.61047 0.19583 0.0
C673 C 0.22868 0.6706 0.22069 0.0
N674 N 0.24274 0.6437 0.17545 0.0
C675 C 0.29688 0.63922 0.38565 0.0
C676 C 0.25418 0.59865 0.47157 0.0
C677 C 0.28775 0.57669 0.47002 0.0
C678 C 0.30924 0.59841 0.42654 0.0
C679 C 0.24301 0.64055 0.43037 0.0
N680 N 0.26366 0.65827 0.3861 0.0
H681 H 0.31439 0.65658 0.3541 0.0
H682 H 0.21791 0.65979 0.43572 0.0
H683 H 0.29205 0.60548 0.27949 0.0
H684 H 0.20982 0.70607 0.21692 0.0
O685 O 0.29197 0.74937 0.29681 0.0
O686 O 0.24093 0.78063 0.27165 0.0
O687 O 0.19842 0.7046 0.34595 0.0
C688 C 0.27359 0.78474 0.26441 0.0
H689 H 0.29848 0.8733 0.45484 0.0
H690 H 0.28809 0.58875 0.16985 0.0
H691 H 0.23703 0.58537 0.5055 0.0
H692 H 0.3357 0.58418 0.4241 0.0
Co693 Co 0.57707 0.09516 0.32884 0.0
C694 C 0.59096 0.98061 0.38002 0.0
C695 C 0.54858 1.02422 0.42113 0.0
C696 C 0.54771 0.96384 0.43417 0.0
N697 N 0.57534 0.03424 0.38621 0.0
N698 N 0.5741 0.93696 0.4075 0.0
H699 H 0.61053 0.97175 0.34858 0.0
H700 H 0.52822 0.056 0.42934 0.0
C701 C 0.64394 0.15793 0.34218 0.0
O702 O 0.62832 0.20955 0.33344 0.0
N703 N 0.57913 0.1545 0.26887 0.0
C704 C 0.55446 0.19383 0.25348 0.0
C705 C 0.55656 0.2031 0.1958 0.0
C706 C 0.5967 0.14298 0.22069 0.0
N707 N 0.58266 0.16987 0.17544 0.0
C708 C 0.52848 0.17439 0.38562 0.0
C709 C 0.57117 0.21495 0.47155 0.0
C710 C 0.53761 0.23692 0.46998 0.0
C711 C 0.51612 0.21522 0.42649 0.0
C712 C 0.58235 0.17304 0.43037 0.0
N713 N 0.5617 0.15532 0.38608 0.0
H714 H 0.51098 0.15704 0.35406 0.0
H715 H 0.60744 0.15378 0.43573 0.0
H716 H 0.53332 0.20811 0.27946 0.0
H717 H 0.61557 0.10751 0.21694 0.0
O718 O 0.5334 0.06423 0.29678 0.0
O719 O 0.58443 0.03295 0.27164 0.0
O720 O 0.62694 0.10897 0.34596 0.0
C721 C 0.55178 1.02884 0.26439 0.0
H722 H 0.52686 0.94027 0.4548 0.0
H723 H 0.53731 0.22482 0.16981 0.0
H724 H 0.58832 0.22822 0.5055 0.0
H725 H 0.48966 0.22945 0.42403 0.0
Co726 Co 0.2483 0.09519 0.46778 0.0
C727 C 0.2344 0.98055 0.41686 0.0
C728 C 0.27683 1.02399 0.37572 0.0
C729 C 0.27774 0.96355 0.36292 0.0
N730 N 0.25002 0.03415 0.41052 0.0
N731 N 0.25133 0.93681 0.38967 0.0
H732 H 0.21477 0.9718 0.44825 0.0
H733 H 0.29719 0.05576 0.36745 0.0
C734 C 0.18142 0.15794 0.45435 0.0
O735 O 0.19704 0.20957 0.46303 0.0
N736 N 0.24625 0.15465 0.52764 0.0
C737 C 0.27093 0.19395 0.54302 0.0
C738 C 0.26883 0.20329 0.60068 0.0
C739 C 0.22865 0.14322 0.57583 0.0
N740 N 0.24271 0.17013 0.62106 0.0
C741 C 0.29689 0.17432 0.41088 0.0
C742 C 0.25419 0.21481 0.32493 0.0
C743 C 0.28776 0.23679 0.32648 0.0
C744 C 0.30925 0.21511 0.36998 0.0
C745 C 0.24302 0.17293 0.36615 0.0
N746 N 0.26367 0.15525 0.41044 0.0
H747 H 0.31439 0.15699 0.44245 0.0
H748 H 0.21793 0.15367 0.36081 0.0
H749 H 0.29209 0.20814 0.51703 0.0
H750 H 0.20977 0.10777 0.5796 0.0
O751 O 0.29197 0.06431 0.49988 0.0
O752 O 0.24093 0.03309 0.52509 0.0
O753 O 0.19843 0.10898 0.45063 0.0
C754 C 0.27359 1.02898 0.53232 0.0
H755 H 0.2986 0.9399 0.34243 0.0
H756 H 0.2881 0.22499 0.62666 0.0
H757 H 0.23705 0.22806 0.29099 0.0
H758 H 0.33571 0.22935 0.37242 0.0
Co759 Co 0.57707 0.7184 0.46777 0.0
C760 C 0.59097 0.83305 0.41686 0.0
C761 C 0.54856 0.78959 0.37569 0.0
C762 C 0.54764 0.85003 0.3629 0.0
N763 N 0.57536 0.77944 0.41051 0.0
N764 N 0.57404 0.87678 0.38967 0.0
H765 H 0.61059 0.8418 0.44827 0.0
H766 H 0.52821 0.75781 0.3674 0.0
C767 C 0.64394 0.65564 0.45437 0.0
O768 O 0.62832 0.60401 0.46305 0.0
N769 N 0.57911 0.65894 0.52764 0.0
C770 C 0.55442 0.61964 0.54299 0.0
C771 C 0.55651 0.61029 0.60066 0.0
C772 C 0.59669 0.67037 0.57583 0.0
N773 N 0.58263 0.64345 0.62106 0.0
C774 C 0.52848 0.63929 0.41085 0.0
C775 C 0.57119 0.59879 0.32492 0.0
C776 C 0.53762 0.57682 0.32645 0.0
C777 C 0.51612 0.59851 0.36993 0.0
C778 C 0.58236 0.64066 0.36614 0.0
N779 N 0.5617 0.65834 0.41043 0.0
H780 H 0.51097 0.65662 0.44241 0.0
H781 H 0.60745 0.65991 0.36082 0.0
H782 H 0.53326 0.60544 0.517 0.0
H783 H 0.61558 0.70581 0.57962 0.0
O784 O 0.5334 0.74928 0.49985 0.0
O785 O 0.58443 0.7805 0.52508 0.0
O786 O 0.62694 0.7046 0.45064 0.0
C787 C 0.55178 0.78461 0.5323 0.0
H788 H 0.52679 0.87367 0.34238 0.0
H789 H 0.53724 0.58858 0.62662 0.0
H790 H 0.58834 0.58553 0.29098 0.0
H791 H 0.48966 0.58428 0.37236 0.0
Co792 Co 0.82706 0.84513 0.21773 0.0
C793 C 0.84092 0.73061 0.1665 0.0
C794 C 0.79852 0.77423 0.12547 0.0
C795 C 0.79763 0.71385 0.11245 0.0
N796 N 0.82531 0.78424 0.16034 0.0
N797 N 0.82404 0.68696 0.13908 0.0
H798 H 0.86051 0.72174 0.19792 0.0
H799 H 0.77817 0.80602 0.11729 0.0
C800 C 0.89393 0.90789 0.2044 0.0
O801 O 0.87831 0.9595 0.21317 0.0
N802 N 0.82913 0.90443 0.27773 0.0
C803 C 0.80442 0.94365 0.29323 0.0
C804 C 0.80648 0.95275 0.35094 0.0
C805 C 0.84671 0.89283 0.32589 0.0
N806 N 0.83259 0.91948 0.37118 0.0
C807 C 0.77848 0.92443 0.161 0.0
C808 C 0.82117 0.96496 0.07505 0.0
C809 C 0.78761 0.98696 0.07663 0.0
C810 C 0.76612 0.96526 0.12013 0.0
C811 C 0.83234 0.92304 0.11623 0.0
N812 N 0.81169 0.90533 0.16052 0.0
H813 H 0.76097 0.90707 0.19255 0.0
H814 H 0.85742 0.90377 0.11086 0.0
H815 H 0.78327 0.95794 0.26727 0.0
H816 H 0.86562 0.85742 0.32956 0.0
O817 O 0.78338 0.8142 0.24979 0.0
O818 O 0.83442 0.78288 0.27489 0.0
O819 O 0.87693 0.85894 0.2006 0.0
C820 C 0.80176 0.7788 0.28216 0.0
H821 H 0.77676 0.69029 0.09188 0.0
H822 H 0.78722 0.97435 0.37699 0.0
H823 H 0.83831 0.97822 0.0411 0.0
H824 H 0.73966 0.97951 0.12259 0.0
Co825 Co 0.49831 0.46845 0.21772 0.0
C826 C 0.48444 0.58299 0.1665 0.0
C827 C 0.52682 0.53935 0.12543 0.0
C828 C 0.52772 0.59973 0.11242 0.0
N829 N 0.50004 0.52935 0.16032 0.0
N830 N 0.50132 0.62663 0.13907 0.0
H831 H 0.46486 0.59187 0.19793 0.0
H832 H 0.54717 0.50755 0.11724 0.0
C833 C 0.43143 0.40568 0.20442 0.0
O834 O 0.44706 0.35407 0.21318 0.0
N835 N 0.49625 0.40915 0.27773 0.0
C836 C 0.52096 0.36994 0.29321 0.0
C837 C 0.51891 0.36083 0.35092 0.0
C838 C 0.47867 0.42075 0.32589 0.0
N839 N 0.4928 0.39409 0.37118 0.0
C840 C 0.54688 0.38918 0.16097 0.0
C841 C 0.50418 0.34863 0.07504 0.0
C842 C 0.53775 0.32665 0.0766 0.0
C843 C 0.55924 0.34836 0.12009 0.0
C844 C 0.49301 0.39054 0.11622 0.0
N845 N 0.51366 0.40826 0.16051 0.0
H846 H 0.56439 0.40654 0.19251 0.0
H847 H 0.46793 0.4098 0.11086 0.0
H848 H 0.5421 0.35565 0.26724 0.0
H849 H 0.45976 0.45616 0.32957 0.0
O850 O 0.54198 0.49939 0.24976 0.0
O851 O 0.49095 0.5307 0.27489 0.0
O852 O 0.44843 0.45464 0.20061 0.0
C853 C 0.5236 0.5348 0.28214 0.0
H854 H 0.54858 0.62328 0.09183 0.0
H855 H 0.53817 0.33921 0.37696 0.0
H856 H 0.48704 0.33537 0.04109 0.0
H857 H 0.5857 0.33412 0.12253 0.0
Co858 Co 0.82706 0.46842 0.07883 0.0
C859 C 0.84094 0.58305 0.12979 0.0
C860 C 0.79851 0.53957 0.17089 0.0
C861 C 0.79757 0.60002 0.18366 0.0
N862 N 0.82534 0.52943 0.13612 0.0
N863 N 0.82397 0.62678 0.15693 0.0
H864 H 0.86057 0.59181 0.09842 0.0
H865 H 0.77816 0.50779 0.17914 0.0
C866 C 0.89394 0.40567 0.09222 0.0
O867 O 0.87831 0.35405 0.08351 0.0
N868 N 0.82911 0.40901 1.01892 0.0
C869 C 0.80437 0.36983 1.00346 0.0
C870 C 0.80643 0.36065 0.94577 0.0
C871 C 0.84671 0.42052 0.97076 0.0
N872 N 0.83256 0.39384 0.92549 0.0
C873 C 0.77848 0.38925 0.13571 0.0
C874 C 0.82118 0.34877 0.22165 0.0
C875 C 0.78761 0.32679 0.22011 0.0
C876 C 0.76612 0.34847 0.17662 0.0
C877 C 0.83235 0.39065 0.18043 0.0
N878 N 0.8117 0.40833 0.13614 0.0
H879 H 0.76097 0.40659 0.10415 0.0
H880 H 0.85744 0.40991 0.18577 0.0
H881 H 0.78321 0.35561 0.02944 0.0
H882 H 0.86563 0.4559 0.96706 0.0
O883 O 0.78339 0.49931 0.04675 0.0
O884 O 0.83442 0.53056 1.02156 0.0
O885 O 0.87693 0.45463 0.09597 0.0
C886 C 0.80177 0.53467 1.01432 0.0
H887 H 0.77669 0.62365 0.20413 0.0
H888 H 0.78715 0.33905 0.91974 0.0
H889 H 0.83833 0.33552 0.25559 0.0
H890 H 0.73966 0.33423 0.17419 0.0
Co891 Co 0.49831 0.84516 0.07883 0.0
C892 C 0.48443 0.73054 0.1298 0.0
C893 C 0.52688 0.77401 0.17086 0.0
C894 C 0.52782 0.71356 0.18363 0.0
N895 N 0.50005 0.78416 0.13611 0.0
N896 N 0.5014 0.68681 0.15692 0.0
H897 H 0.46479 0.72179 0.09844 0.0
H898 H 0.54724 0.80578 0.17909 0.0
C899 C 0.43143 0.9079 0.09224 0.0
O900 O 0.44705 0.95952 0.08353 0.0
N901 N 0.49624 0.90457 1.01892 0.0
C902 C 0.52098 0.94376 1.00345 0.0
C903 C 0.5189 0.95293 0.94575 0.0
C904 C 0.47864 0.89306 0.97076 0.0
N905 N 0.49277 0.91973 0.92548 0.0
C906 C 0.54689 0.92435 0.13568 0.0
C907 C 0.5042 0.96482 0.22163 0.0
C908 C 0.53776 0.98682 0.22008 0.0
C909 C 0.55925 0.96515 0.17657 0.0
C910 C 0.49303 0.92293 0.18043 0.0
N911 N 0.51367 0.90526 0.13613 0.0
H912 H 0.5644 0.90702 0.10411 0.0
H913 H 0.46794 0.90366 0.18577 0.0
H914 H 0.54214 0.95798 0.02941 0.0
H915 H 0.45971 0.85767 0.96707 0.0
O916 O 0.54198 0.81428 0.04673 0.0
O917 O 0.49094 0.78302 1.02155 0.0
O918 O 0.44844 0.85894 0.09598 0.0
C919 C 0.5236 0.77892 1.01431 0.0
H920 H 0.5487 0.68992 0.20408 0.0
H921 H 0.53818 0.97452 0.91971 0.0
H922 H 0.48705 0.97807 0.25559 0.0
H923 H 0.58571 0.97941 0.17413 0.0
Co924 Co 0.24831 0.21843 0.82886 0.0
C925 C 0.23444 0.33296 0.88008 0.0
C926 C 0.27684 0.28934 0.92112 0.0
C927 C 0.27774 0.34972 0.93413 0.0
N928 N 0.25005 0.27932 0.88625 0.0
N929 N 0.25133 0.3766 0.90751 0.0
H930 H 0.21485 0.34183 0.84867 0.0
H931 H 0.2972 0.25754 0.92929 0.0
C932 C 0.18143 0.15567 0.84218 0.0
O933 O 0.19705 0.10406 0.83342 0.0
N934 N 0.24624 0.15913 0.76885 0.0
C935 C 0.27095 0.11992 0.75335 0.0
C936 C 0.26888 0.11081 0.69565 0.0
C937 C 0.22865 0.17074 0.72069 0.0
N938 N 0.24278 0.14408 0.6754 0.0
C939 C 0.29688 0.13913 0.88559 0.0
C940 C 0.2542 0.0986 0.97153 0.0
C941 C 0.28776 0.07661 0.96995 0.0
C942 C 0.30924 0.0983 0.92646 0.0
C943 C 0.24303 0.14052 0.93035 0.0
N944 N 0.26367 0.15823 0.88606 0.0
H945 H 0.31439 0.15649 0.85404 0.0
H946 H 0.21794 0.15979 0.93572 0.0
H947 H 0.2921 0.10562 0.77931 0.0
H948 H 0.20974 0.20615 0.71703 0.0
O949 O 0.29198 0.24936 0.7968 0.0
O950 O 0.24095 0.28068 0.77169 0.0
O951 O 0.19844 0.20463 0.84598 0.0
C952 C 0.2736 0.28477 0.76443 0.0
H953 H 0.2986 0.37328 0.95471 0.0
H954 H 0.28815 0.08921 0.66959 0.0
H955 H 0.23706 0.08534 1.00548 0.0
H956 H 0.3357 0.08405 0.924 0.0
Co957 Co 0.57706 0.59511 0.82887 0.0
C958 C 0.59093 0.48057 0.88008 0.0
C959 C 0.54855 0.52422 0.92115 0.0
C960 C 0.54765 0.46383 0.93417 0.0
N961 N 0.57533 0.53422 0.88626 0.0
N962 N 0.57404 0.43694 0.90752 0.0
H963 H 0.61051 0.4717 0.84865 0.0
H964 H 0.5282 0.55602 0.92935 0.0
C965 C 0.64394 0.65789 0.84216 0.0
O966 O 0.62831 0.70949 0.8334 0.0
N967 N 0.57912 0.65441 0.76886 0.0
C968 C 0.5544 0.69362 0.75337 0.0
C969 C 0.55646 0.70273 0.69566 0.0
C970 C 0.59669 0.64281 0.72069 0.0
N971 N 0.58256 0.66947 0.67541 0.0
C972 C 0.52849 0.67439 0.88562 0.0
C973 C 0.57118 0.71493 0.97155 0.0
C974 C 0.53762 0.7369 0.96999 0.0
C975 C 0.51613 0.7152 0.9265 0.0
C976 C 0.58235 0.67302 0.93036 0.0
N977 N 0.5617 0.65531 0.88608 0.0
H978 H 0.51098 0.65702 0.85408 0.0
H979 H 0.60744 0.65376 0.93572 0.0
H980 H 0.53326 0.70792 0.77935 0.0
H981 H 0.61561 0.6074 0.71701 0.0
O982 O 0.53339 0.56417 0.79683 0.0
O983 O 0.58442 0.53286 0.7717 0.0
O984 O 0.62693 0.60893 0.84597 0.0
C985 C 0.55176 0.52877 0.76445 0.0
H986 H 0.52678 0.44028 0.95476 0.0
H987 H 0.53719 0.72435 0.66962 0.0
H988 H 0.58833 0.7282 1.00549 0.0
H989 H 0.48966 0.72944 0.92406 0.0
Co990 Co 0.24831 0.59514 0.96775 0.0
C991 C 0.23442 0.48051 0.91679 0.0
C992 C 0.27685 0.52399 0.87569 0.0
C993 C 0.2778 0.46355 0.86292 0.0
N994 N 0.25003 0.53414 0.91046 0.0
N995 N 0.25139 0.43678 0.88965 0.0
H996 H 0.21479 0.47175 0.94817 0.0
H997 H 0.29721 0.55578 0.86744 0.0
C998 C 0.18143 0.65789 0.95437 0.0
O999 O 0.19706 0.70952 0.96308 0.0
N1000 N 0.24626 0.65455 0.02766 0.0
C1001 C 0.27099 0.69374 0.04312 0.0
C1002 C 0.26893 0.70292 0.10082 0.0
C1003 C 0.22866 0.64304 0.07583 0.0
N1004 N 0.2428 0.66972 0.1211 0.0
C1005 C 0.29689 0.67431 0.91088 0.0
C1006 C 0.25418 0.71479 0.82494 0.0
C1007 C 0.28775 0.73677 0.82647 0.0
C1008 C 0.30924 0.71509 0.86997 0.0
C1009 C 0.24302 0.67291 0.86615 0.0
N1010 N 0.26367 0.65523 0.91044 0.0
H1011 H 0.3144 0.65698 0.94243 0.0
H1012 H 0.21792 0.65365 0.86082 0.0
H1013 H 0.29215 0.70795 1.01715 0.0
H1014 H 0.20973 0.60766 0.07953 0.0
O1015 O 0.29198 0.56425 0.99983 0.0
O1016 O 0.24094 0.533 0.02503 0.0
O1017 O 0.19843 0.60893 0.95062 0.0
C1018 C 0.2736 0.5289 0.03226 0.0
H1019 H 0.29868 0.43991 0.84246 0.0
H1020 H 0.28821 0.72451 0.12685 0.0
H1021 H 0.23703 0.72804 0.79099 0.0
H1022 H 0.33571 0.72933 0.8724 0.0
Co1023 Co 0.57706 0.2184 0.96776 0.0
C1024 C 0.59093 0.33302 0.91679 0.0
C1025 C 0.54848 0.28956 0.87573 0.0
C1026 C 0.54755 0.35 0.86296 0.0
N1027 N 0.57532 0.27941 0.91048 0.0
N1028 N 0.57397 0.37676 0.88966 0.0
H1029 H 0.61058 0.34177 0.94815 0.0
H1030 H 0.52812 0.25778 0.8675 0.0
C1031 C 0.64394 0.15567 0.95435 0.0
O1032 O 0.62832 0.10404 0.96306 0.0
N1033 N 0.57912 0.15899 0.02767 0.0
C1034 C 0.55439 0.1198 0.04314 0.0
C1035 C 0.55646 0.11063 0.10084 0.0
C1036 C 0.59673 0.1705 0.07582 0.0
N1037 N 0.58259 0.14383 0.1211 0.0
C1038 C 0.52847 0.13921 0.91091 0.0
C1039 C 0.57117 0.09874 0.82495 0.0
C1040 C 0.5376 0.07674 0.82651 0.0
C1041 C 0.51612 0.09841 0.87001 0.0
C1042 C 0.58234 0.14063 0.86616 0.0
N1043 N 0.56169 0.1583 0.91046 0.0
H1044 H 0.51097 0.15654 0.94247 0.0
H1045 H 0.60742 0.1599 0.86081 0.0
H1046 H 0.53322 0.10559 1.01718 0.0
H1047 H 0.61565 0.20589 0.07951 0.0
O1048 O 0.53339 0.24928 0.99986 0.0
O1049 O 0.58442 0.28054 0.02503 0.0
O1050 O 0.62693 0.20462 0.95061 0.0
C1051 C 0.55177 0.28464 0.03228 0.0
H1052 H 0.52667 0.37365 0.84251 0.0
H1053 H 0.53718 0.08904 0.12687 0.0
H1054 H 0.58831 0.0855 0.791 0.0
H1055 H 0.48966 0.08415 0.87246 0.0
loop_
_geom_bond_atom_site_label_1
_geom_bond_atom_site_label_2
_geom_bond_distance
_geom_bond_site_symmetry_2
_ccdc_geom_bond_type
Co0 N4 2.148 . S
Co0 N10 2.128 . S
Co0 N20 2.194 . S
Co0 O25 2.351 . S
Co0 O26 2.155 . S
Co0 O27 2.096 . S
C1 N4 1.301 . S
C1 N5 1.328 . S
C1 H6 0.930 . S
C2 C3 1.333 . S
C2 N4 1.317 . S
C2 H7 0.930 . S
C3 C2 1.333 . S
C3 N5 1.350 . S
C3 H29 0.931 . S
N4 Co0 2.148 . S
N4 C1 1.301 . S
N4 C2 1.317 . S
N5 C1 1.328 . S
N5 C3 1.350 . S
H6 C1 0.930 . S
H7 C2 0.930 . S
C8 O9 1.224 . S
C8 O27 1.247 . S
O9 C8 1.224 . S
N10 Co0 2.128 . S
N10 C11 1.355 . S
N10 C13 1.311 . S
C11 N10 1.355 . S
C11 C12 1.363 . S
C11 H23 0.929 . S
C12 C11 1.363 . S
C12 N14 1.375 . S
C12 H30 0.931 . S
C13 N10 1.311 . S
C13 N14 1.347 . S
C13 H24 0.929 . S
N14 C12 1.375 . S
N14 C13 1.347 . S
C15 C18 1.365 . S
C15 N20 1.328 . S
C15 H21 0.929 . S
C16 C17 1.362 . S
C16 C19 1.378 . S
C16 H31 0.929 . S
C17 C16 1.362 . S
C17 C18 1.366 . S
C18 C15 1.365 . S
C18 C17 1.366 . S
C18 H32 0.930 . S
C19 C16 1.378 . S
C19 N20 1.315 . S
C19 H22 0.930 . S
N20 Co0 2.194 . S
N20 C15 1.328 . S
N20 C19 1.315 . S
H21 C15 0.929 . S
H22 C19 0.930 . S
H23 C11 0.929 . S
H24 C13 0.929 . S
O25 Co0 2.351 . S
O25 C28 1.244 . S
O26 Co0 2.155 . S
O26 C28 1.240 . S
O27 Co0 2.096 . S
O27 C8 1.247 . S
C28 O25 1.244 . S
C28 O26 1.240 . S
H29 C3 0.931 . S
H30 C12 0.931 . S
H31 C16 0.929 . S
H32 C18 0.930 . S
Co33 N37 2.148 1_565 S
Co33 N43 2.128 . S
Co33 N53 2.194 . S
Co33 O58 2.351 1_565 S
Co33 O59 2.155 1_565 S
Co33 O60 2.096 . S
C34 N37 1.301 . S
C34 N38 1.328 . S
C34 H39 0.930 . S
C35 C36 1.333 . S
C35 N37 1.317 . S
C35 H40 0.930 . S
C36 C35 1.333 . S
C36 N38 1.350 . S
C36 H62 0.931 . S
N37 Co33 2.148 1_545 S
N37 C34 1.301 . S
N37 C35 1.317 . S
N38 C34 1.328 . S
N38 C36 1.350 . S
H39 C34 0.930 . S
H40 C35 0.930 . S
C41 O42 1.224 . S
C41 O60 1.247 . S
O42 C41 1.224 . S
N43 Co33 2.128 . S
N43 C44 1.355 . S
N43 C46 1.311 . S
C44 N43 1.355 . S
C44 C45 1.363 . S
C44 H56 0.929 1_655 S
C45 C44 1.363 . S
C45 N47 1.375 . S
C45 H63 0.931 1_655 S
C46 N43 1.311 . S
C46 N47 1.347 . S
C46 H57 0.929 . S
N47 C45 1.375 . S
N47 C46 1.347 . S
C48 C51 1.365 . S
C48 N53 1.328 1_455 S
C48 H54 0.929 . S
C49 C50 1.362 1_655 S
C49 C52 1.378 . S
C49 H64 0.929 . S
C50 C49 1.362 1_455 S
C50 C51 1.366 . S
C51 C48 1.365 . S
C51 C50 1.366 . S
C51 H65 0.930 . S
C52 C49 1.378 . S
C52 N53 1.315 . S
C52 H55 0.930 . S
N53 Co33 2.194 . S
N53 C48 1.328 1_655 S
N53 C52 1.315 . S
H54 C48 0.929 . S
H55 C52 0.930 . S
H56 C44 0.929 1_455 S
H57 C46 0.929 . S
O58 Co33 2.351 1_545 S
O58 C61 1.244 . S
O59 Co33 2.155 1_545 S
O59 C61 1.240 . S
O60 Co33 2.096 . S
O60 C41 1.247 . S
C61 O58 1.244 . S
C61 O59 1.240 . S
H62 C36 0.931 . S
H63 C45 0.931 1_455 S
H64 C49 0.929 . S
H65 C51 0.930 . S
Co66 N70 2.148 1_565 S
Co66 N76 2.128 1_554 S
Co66 N86 2.194 . S
Co66 O91 2.351 1_564 S
Co66 O92 2.155 1_564 S
Co66 O93 2.096 1_554 S
C67 N70 1.301 . S
C67 N71 1.328 . S
C67 H72 0.930 . S
C68 C69 1.333 . S
C68 N70 1.317 . S
C68 H73 0.930 . S
C69 C68 1.333 . S
C69 N71 1.350 . S
C69 H95 0.931 . S
N70 Co66 2.148 1_545 S
N70 C67 1.301 . S
N70 C68 1.317 . S
N71 C67 1.328 . S
N71 C69 1.350 . S
H72 C67 0.930 . S
H73 C68 0.930 . S
C74 O75 1.224 . S
C74 O93 1.247 1_554 S
O75 C74 1.224 . S
N76 Co66 2.128 1_556 S
N76 C77 1.355 . S
N76 C79 1.311 . S
C77 N76 1.355 . S
C77 C78 1.363 . S
C77 H89 0.929 . S
C78 C77 1.363 . S
C78 N80 1.375 . S
C78 H96 0.931 . S
C79 N76 1.311 . S
C79 N80 1.347 . S
C79 H90 0.929 . S
N80 C78 1.375 . S
N80 C79 1.347 . S
C81 C84 1.365 . S
C81 N86 1.328 . S
C81 H87 0.929 . S
C82 C83 1.362 . S
C82 C85 1.378 . S
C82 H97 0.929 . S
C83 C82 1.362 . S
C83 C84 1.366 . S
C84 C81 1.365 . S
C84 C83 1.366 . S
C84 H98 0.930 . S
C85 C82 1.378 . S
C85 N86 1.315 . S
C85 H88 0.930 . S
N86 Co66 2.194 . S
N86 C81 1.328 . S
N86 C85 1.315 . S
H87 C81 0.929 . S
H88 C85 0.930 . S
H89 C77 0.929 . S
H90 C79 0.929 . S
O91 Co66 2.351 1_546 S
O91 C94 1.244 . S
O92 Co66 2.155 1_546 S
O92 C94 1.240 . S
O93 Co66 2.096 1_556 S
O93 C74 1.247 1_556 S
C94 O91 1.244 . S
C94 O92 1.240 . S
H95 C69 0.931 . S
H96 C78 0.931 . S
H97 C82 0.929 . S
H98 C84 0.930 . S
Co99 N103 2.148 . S
Co99 N109 2.128 1_554 S
Co99 N119 2.194 . S
Co99 O124 2.351 1_554 S
Co99 O125 2.155 1_554 S
Co99 O126 2.096 1_554 S
C100 N103 1.301 . S
C100 N104 1.328 . S
C100 H105 0.930 . S
C101 C102 1.333 . S
C101 N103 1.317 . S
C101 H106 0.930 . S
C102 C101 1.333 . S
C102 N104 1.350 . S
C102 H128 0.931 . S
N103 Co99 2.148 . S
N103 C100 1.301 . S
N103 C101 1.317 . S
N104 C100 1.328 . S
N104 C102 1.350 . S
H105 C100 0.930 . S
H106 C101 0.930 . S
C107 O108 1.224 . S
C107 O126 1.247 1_554 S
O108 C107 1.224 . S
N109 Co99 2.128 1_556 S
N109 C110 1.355 . S
N109 C112 1.311 . S
C110 N109 1.355 . S
C110 C111 1.363 . S
C110 H122 0.929 1_655 S
C111 C110 1.363 . S
C111 N113 1.375 . S
C111 H129 0.931 1_655 S
C112 N109 1.311 . S
C112 N113 1.347 . S
C112 H123 0.929 . S
N113 C111 1.375 . S
N113 C112 1.347 . S
C114 C117 1.365 . S
C114 N119 1.328 1_455 S
C114 H120 0.929 . S
C115 C116 1.362 1_655 S
C115 C118 1.378 . S
C115 H130 0.929 . S
C116 C115 1.362 1_455 S
C116 C117 1.366 . S
C117 C114 1.365 . S
C117 C116 1.366 . S
C117 H131 0.930 . S
C118 C115 1.378 . S
C118 N119 1.315 . S
C118 H121 0.930 . S
N119 Co99 2.194 . S
N119 C114 1.328 1_655 S
N119 C118 1.315 . S
H120 C114 0.929 . S
H121 C118 0.930 . S
H122 C110 0.929 1_455 S
H123 C112 0.929 . S
O124 Co99 2.351 1_556 S
O124 C127 1.244 . S
O125 Co99 2.155 1_556 S
O125 C127 1.240 . S
O126 Co99 2.096 1_556 S
O126 C107 1.247 1_556 S
C127 O124 1.244 . S
C127 O125 1.240 . S
H128 C102 0.931 . S
H129 C111 0.931 1_455 S
H130 C115 0.929 . S
H131 C117 0.930 . S
Co132 N136 2.148 . S
Co132 N142 2.128 . S
Co132 N152 2.194 . S
Co132 O157 2.351 . S
Co132 O158 2.155 . S
Co132 O159 2.096 . S
C133 N136 1.301 . S
C133 N137 1.328 . S
C133 H138 0.930 . S
C134 C135 1.333 . S
C134 N136 1.317 . S
C134 H139 0.930 . S
C135 C134 1.333 . S
C135 N137 1.350 . S
C135 H161 0.931 . S
N136 Co132 2.148 . S
N136 C133 1.301 . S
N136 C134 1.317 . S
N137 C133 1.328 . S
N137 C135 1.350 . S
H138 C133 0.930 . S
H139 C134 0.930 . S
C140 O141 1.224 . S
C140 O159 1.247 . S
O141 C140 1.224 . S
N142 Co132 2.128 . S
N142 C143 1.355 . S
N142 C145 1.311 . S
C143 N142 1.355 . S
C143 C144 1.363 . S
C143 H155 0.929 . S
C144 C143 1.363 . S
C144 N146 1.375 . S
C144 H162 0.931 . S
C145 N142 1.311 . S
C145 N146 1.347 . S
C145 H156 0.929 . S
N146 C144 1.375 . S
N146 C145 1.347 . S
C147 C150 1.365 . S
C147 N152 1.328 . S
C147 H153 0.929 . S
C148 C149 1.362 . S
C148 C151 1.378 . S
C148 H163 0.929 . S
C149 C148 1.362 . S
C149 C150 1.366 . S
C150 C147 1.365 . S
C150 C149 1.366 . S
C150 H164 0.930 . S
C151 C148 1.378 . S
C151 N152 1.315 . S
C151 H154 0.930 . S
N152 Co132 2.194 . S
N152 C147 1.328 . S
N152 C151 1.315 . S
H153 C147 0.929 . S
H154 C151 0.930 . S
H155 C143 0.929 . S
H156 C145 0.929 . S
O157 Co132 2.351 . S
O157 C160 1.244 . S
O158 Co132 2.155 . S
O158 C160 1.240 . S
O159 Co132 2.096 . S
O159 C140 1.247 . S
C160 O157 1.244 . S
C160 O158 1.240 . S
H161 C135 0.931 . S
H162 C144 0.931 . S
H163 C148 0.929 . S
H164 C150 0.930 . S
Co165 N169 2.148 1_545 S
Co165 N175 2.128 . S
Co165 N185 2.194 . S
Co165 O190 2.351 1_545 S
Co165 O191 2.155 1_545 S
Co165 O192 2.096 . S
C166 N169 1.301 . S
C166 N170 1.328 . S
C166 H171 0.930 . S
C167 C168 1.333 . S
C167 N169 1.317 . S
C167 H172 0.930 . S
C168 C167 1.333 . S
C168 N170 1.350 . S
C168 H194 0.931 . S
N169 Co165 2.148 1_565 S
N169 C166 1.301 . S
N169 C167 1.317 . S
N170 C166 1.328 . S
N170 C168 1.350 . S
H171 C166 0.930 . S
H172 C167 0.930 . S
C173 O174 1.224 . S
C173 O192 1.247 . S
O174 C173 1.224 . S
N175 Co165 2.128 . S
N175 C176 1.355 . S
N175 C178 1.311 . S
C176 N175 1.355 . S
C176 C177 1.363 . S
C176 H188 0.929 1_455 S
C177 C176 1.363 . S
C177 N179 1.375 . S
C177 H195 0.931 1_455 S
C178 N175 1.311 . S
C178 N179 1.347 . S
C178 H189 0.929 . S
N179 C177 1.375 . S
N179 C178 1.347 . S
C180 C183 1.365 . S
C180 N185 1.328 1_655 S
C180 H186 0.929 . S
C181 C182 1.362 1_455 S
C181 C184 1.378 . S
C181 H196 0.929 . S
C182 C181 1.362 1_655 S
C182 C183 1.366 . S
C183 C180 1.365 . S
C183 C182 1.366 . S
C183 H197 0.930 . S
C184 C181 1.378 . S
C184 N185 1.315 . S
C184 H187 0.930 . S
N185 Co165 2.194 . S
N185 C180 1.328 1_455 S
N185 C184 1.315 . S
H186 C180 0.929 . S
H187 C184 0.930 . S
H188 C176 0.929 1_655 S
H189 C178 0.929 . S
O190 Co165 2.351 1_565 S
O190 C193 1.244 . S
O191 Co165 2.155 1_565 S
O191 C193 1.240 . S
O192 Co165 2.096 . S
O192 C173 1.247 . S
C193 O190 1.244 . S
C193 O191 1.240 . S
H194 C168 0.931 . S
H195 C177 0.931 1_655 S
H196 C181 0.929 . S
H197 C183 0.930 . S
Co198 N202 2.148 1_545 S
Co198 N208 2.128 1_556 S
Co198 N218 2.194 . S
Co198 O223 2.351 1_546 S
Co198 O224 2.155 1_546 S
Co198 O225 2.096 1_556 S
C199 N202 1.301 . S
C199 N203 1.328 . S
C199 H204 0.930 . S
C200 C201 1.333 . S
C200 N202 1.317 . S
C200 H205 0.930 . S
C201 C200 1.333 . S
C201 N203 1.350 . S
C201 H227 0.931 . S
N202 Co198 2.148 1_565 S
N202 C199 1.301 . S
N202 C200 1.317 . S
N203 C199 1.328 . S
N203 C201 1.350 . S
H204 C199 0.930 . S
H205 C200 0.930 . S
C206 O207 1.224 . S
C206 O225 1.247 1_556 S
O207 C206 1.224 . S
N208 Co198 2.128 1_554 S
N208 C209 1.355 . S
N208 C211 1.311 . S
C209 N208 1.355 . S
C209 C210 1.363 . S
C209 H221 0.929 . S
C210 C209 1.363 . S
C210 N212 1.375 . S
C210 H228 0.931 . S
C211 N208 1.311 . S
C211 N212 1.347 . S
C211 H222 0.929 . S
N212 C210 1.375 . S
N212 C211 1.347 . S
C213 C216 1.365 . S
C213 N218 1.328 . S
C213 H219 0.929 . S
C214 C215 1.362 . S
C214 C217 1.378 . S
C214 H229 0.929 . S
C215 C214 1.362 . S
C215 C216 1.366 . S
C216 C213 1.365 . S
C216 C215 1.366 . S
C216 H230 0.930 . S
C217 C214 1.378 . S
C217 N218 1.315 . S
C217 H220 0.930 . S
N218 Co198 2.194 . S
N218 C213 1.328 . S
N218 C217 1.315 . S
H219 C213 0.929 . S
H220 C217 0.930 . S
H221 C209 0.929 . S
H222 C211 0.929 . S
O223 Co198 2.351 1_564 S
O223 C226 1.244 . S
O224 Co198 2.155 1_564 S
O224 C226 1.240 . S
O225 Co198 2.096 1_554 S
O225 C206 1.247 1_554 S
C226 O223 1.244 . S
C226 O224 1.240 . S
H227 C201 0.931 . S
H228 C210 0.931 . S
H229 C214 0.929 . S
H230 C216 0.930 . S
Co231 N235 2.148 . S
Co231 N241 2.128 1_556 S
Co231 N251 2.194 . S
Co231 O256 2.351 1_556 S
Co231 O257 2.155 1_556 S
Co231 O258 2.096 1_556 S
C232 N235 1.301 . S
C232 N236 1.328 . S
C232 H237 0.930 . S
C233 C234 1.333 . S
C233 N235 1.317 . S
C233 H238 0.930 . S
C234 C233 1.333 . S
C234 N236 1.350 . S
C234 H260 0.931 . S
N235 Co231 2.148 . S
N235 C232 1.301 . S
N235 C233 1.317 . S
N236 C232 1.328 . S
N236 C234 1.350 . S
H237 C232 0.930 . S
H238 C233 0.930 . S
C239 O240 1.224 . S
C239 O258 1.247 1_556 S
O240 C239 1.224 . S
N241 Co231 2.128 1_554 S
N241 C242 1.355 . S
N241 C244 1.311 . S
C242 N241 1.355 . S
C242 C243 1.363 . S
C242 H254 0.929 1_455 S
C243 C242 1.363 . S
C243 N245 1.375 . S
C243 H261 0.931 1_455 S
C244 N241 1.311 . S
C244 N245 1.347 . S
C244 H255 0.929 . S
N245 C243 1.375 . S
N245 C244 1.347 . S
C246 C249 1.365 . S
C246 N251 1.328 1_655 S
C246 H252 0.929 . S
C247 C248 1.362 1_455 S
C247 C250 1.378 . S
C247 H262 0.929 . S
C248 C247 1.362 1_655 S
C248 C249 1.366 . S
C249 C246 1.365 . S
C249 C248 1.366 . S
C249 H263 0.930 . S
C250 C247 1.378 . S
C250 N251 1.315 . S
C250 H253 0.930 . S
N251 Co231 2.194 . S
N251 C246 1.328 1_455 S
N251 C250 1.315 . S
H252 C246 0.929 . S
H253 C250 0.930 . S
H254 C242 0.929 1_655 S
H255 C244 0.929 . S
O256 Co231 2.351 1_554 S
O256 C259 1.244 . S
O257 Co231 2.155 1_554 S
O257 C259 1.240 . S
O258 Co231 2.096 1_554 S
O258 C239 1.247 1_554 S
C259 O256 1.244 . S
C259 O257 1.240 . S
H260 C234 0.931 . S
H261 C243 0.931 1_655 S
H262 C247 0.929 . S
H263 C249 0.930 . S
Co264 N268 2.148 . S
Co264 N274 2.128 . S
Co264 N284 2.194 . S
Co264 O289 2.351 . S
Co264 O290 2.155 . S
Co264 O291 2.096 . S
C265 N268 1.301 . S
C265 N269 1.328 . S
C265 H270 0.930 . S
C266 C267 1.333 . S
C266 N268 1.317 . S
C266 H271 0.930 . S
C267 C266 1.333 . S
C267 N269 1.350 . S
C267 H293 0.931 . S
N268 Co264 2.148 . S
N268 C265 1.301 . S
N268 C266 1.317 . S
N269 C265 1.328 . S
N269 C267 1.350 . S
H270 C265 0.930 . S
H271 C266 0.930 . S
C272 O273 1.224 . S
C272 O291 1.247 . S
O273 C272 1.224 . S
N274 Co264 2.128 . S
N274 C275 1.355 . S
N274 C277 1.311 . S
C275 N274 1.355 . S
C275 C276 1.363 . S
C275 H287 0.929 . S
C276 C275 1.363 . S
C276 N278 1.375 . S
C276 H294 0.931 . S
C277 N274 1.311 . S
C277 N278 1.347 . S
C277 H288 0.929 . S
N278 C276 1.375 . S
N278 C277 1.347 . S
C279 C282 1.365 . S
C279 N284 1.328 . S
C279 H285 0.929 . S
C280 C281 1.362 . S
C280 C283 1.378 . S
C280 H295 0.929 . S
C281 C280 1.362 . S
C281 C282 1.366 . S
C282 C279 1.365 . S
C282 C281 1.366 . S
C282 H296 0.930 . S
C283 C280 1.378 . S
C283 N284 1.315 . S
C283 H286 0.930 . S
N284 Co264 2.194 . S
N284 C279 1.328 . S
N284 C283 1.315 . S
H285 C279 0.929 . S
H286 C283 0.930 . S
H287 C275 0.929 . S
H288 C277 0.929 . S
O289 Co264 2.351 . S
O289 C292 1.244 . S
O290 Co264 2.155 . S
O290 C292 1.240 . S
O291 Co264 2.096 . S
O291 C272 1.247 . S
C292 O289 1.244 . S
C292 O290 1.240 . S
H293 C267 0.931 . S
H294 C276 0.931 . S
H295 C280 0.929 . S
H296 C282 0.930 . S
Co297 N301 2.148 . S
Co297 N307 2.128 . S
Co297 N317 2.194 . S
Co297 O322 2.351 . S
Co297 O323 2.155 . S
Co297 O324 2.096 . S
C298 N301 1.301 . S
C298 N302 1.328 . S
C298 H303 0.930 . S
C299 C300 1.333 . S
C299 N301 1.317 . S
C299 H304 0.930 . S
C300 C299 1.333 . S
C300 N302 1.350 . S
C300 H326 0.931 . S
N301 Co297 2.148 . S
N301 C298 1.301 . S
N301 C299 1.317 . S
N302 C298 1.328 . S
N302 C300 1.350 . S
H303 C298 0.930 . S
H304 C299 0.930 . S
C305 O306 1.224 . S
C305 O324 1.247 . S
O306 C305 1.224 . S
N307 Co297 2.128 . S
N307 C308 1.355 . S
N307 C310 1.311 . S
C308 N307 1.355 . S
C308 C309 1.363 . S
C308 H320 0.929 1_655 S
C309 C308 1.363 . S
C309 N311 1.375 . S
C309 H327 0.931 1_655 S
C310 N307 1.311 . S
C310 N311 1.347 . S
C310 H321 0.929 . S
N311 C309 1.375 . S
N311 C310 1.347 . S
C312 C315 1.365 . S
C312 N317 1.328 1_455 S
C312 H318 0.929 . S
C313 C314 1.362 1_655 S
C313 C316 1.378 . S
C313 H328 0.929 . S
C314 C313 1.362 1_455 S
C314 C315 1.366 . S
C315 C312 1.365 . S
C315 C314 1.366 . S
C315 H329 0.930 . S
C316 C313 1.378 . S
C316 N317 1.315 . S
C316 H319 0.930 . S
N317 Co297 2.194 . S
N317 C312 1.328 1_655 S
N317 C316 1.315 . S
H318 C312 0.929 . S
H319 C316 0.930 . S
H320 C308 0.929 1_455 S
H321 C310 0.929 . S
O322 Co297 2.351 . S
O322 C325 1.244 . S
O323 Co297 2.155 . S
O323 C325 1.240 . S
O324 Co297 2.096 . S
O324 C305 1.247 . S
C325 O322 1.244 . S
C325 O323 1.240 . S
H326 C300 0.931 . S
H327 C309 0.931 1_455 S
H328 C313 0.929 . S
H329 C315 0.930 . S
Co330 N334 2.148 . S
Co330 N340 2.128 . S
Co330 N350 2.194 . S
Co330 O355 2.351 . S
Co330 O356 2.155 . S
Co330 O357 2.096 . S
C331 N334 1.301 . S
C331 N335 1.328 . S
C331 H336 0.930 . S
C332 C333 1.333 . S
C332 N334 1.317 . S
C332 H337 0.930 . S
C333 C332 1.333 . S
C333 N335 1.350 . S
C333 H359 0.931 . S
N334 Co330 2.148 . S
N334 C331 1.301 . S
N334 C332 1.317 . S
N335 C331 1.328 . S
N335 C333 1.350 . S
H336 C331 0.930 . S
H337 C332 0.930 . S
C338 O339 1.224 . S
C338 O357 1.247 . S
O339 C338 1.224 . S
N340 Co330 2.128 . S
N340 C341 1.355 . S
N340 C343 1.311 . S
C341 N340 1.355 . S
C341 C342 1.363 . S
C341 H353 0.929 . S
C342 C341 1.363 . S
C342 N344 1.375 . S
C342 H360 0.931 . S
C343 N340 1.311 . S
C343 N344 1.347 . S
C343 H354 0.929 . S
N344 C342 1.375 . S
N344 C343 1.347 . S
C345 C348 1.365 . S
C345 N350 1.328 . S
C345 H351 0.929 . S
C346 C347 1.362 . S
C346 C349 1.378 . S
C346 H361 0.929 . S
C347 C346 1.362 . S
C347 C348 1.366 . S
C348 C345 1.365 . S
C348 C347 1.366 . S
C348 H362 0.930 . S
C349 C346 1.378 . S
C349 N350 1.315 . S
C349 H352 0.930 . S
N350 Co330 2.194 . S
N350 C345 1.328 . S
N350 C349 1.315 . S
H351 C345 0.929 . S
H352 C349 0.930 . S
H353 C341 0.929 . S
H354 C343 0.929 . S
O355 Co330 2.351 . S
O355 C358 1.244 . S
O356 Co330 2.155 . S
O356 C358 1.240 . S
O357 Co330 2.096 . S
O357 C338 1.247 . S
C358 O355 1.244 . S
C358 O356 1.240 . S
H359 C333 0.931 . S
H360 C342 0.931 . S
H361 C346 0.929 . S
H362 C348 0.930 . S
Co363 N367 2.148 . S
Co363 N373 2.128 . S
Co363 N383 2.194 . S
Co363 O388 2.351 . S
Co363 O389 2.155 . S
Co363 O390 2.096 . S
C364 N367 1.301 . S
C364 N368 1.328 . S
C364 H369 0.930 . S
C365 C366 1.333 . S
C365 N367 1.317 . S
C365 H370 0.930 . S
C366 C365 1.333 . S
C366 N368 1.350 . S
C366 H392 0.931 . S
N367 Co363 2.148 . S
N367 C364 1.301 . S
N367 C365 1.317 . S
N368 C364 1.328 . S
N368 C366 1.350 . S
H369 C364 0.930 . S
H370 C365 0.930 . S
C371 O372 1.224 . S
C371 O390 1.247 . S
O372 C371 1.224 . S
N373 Co363 2.128 . S
N373 C374 1.355 . S
N373 C376 1.311 . S
C374 N373 1.355 . S
C374 C375 1.363 . S
C374 H386 0.929 1_655 S
C375 C374 1.363 . S
C375 N377 1.375 . S
C375 H393 0.931 1_655 S
C376 N373 1.311 . S
C376 N377 1.347 . S
C376 H387 0.929 . S
N377 C375 1.375 . S
N377 C376 1.347 . S
C378 C381 1.365 . S
C378 N383 1.328 1_455 S
C378 H384 0.929 . S
C379 C380 1.362 1_655 S
C379 C382 1.378 . S
C379 H394 0.929 . S
C380 C379 1.362 1_455 S
C380 C381 1.366 . S
C381 C378 1.365 . S
C381 C380 1.366 . S
C381 H395 0.930 . S
C382 C379 1.378 . S
C382 N383 1.315 . S
C382 H385 0.930 . S
N383 Co363 2.194 . S
N383 C378 1.328 1_655 S
N383 C382 1.315 . S
H384 C378 0.929 . S
H385 C382 0.930 . S
H386 C374 0.929 1_455 S
H387 C376 0.929 . S
O388 Co363 2.351 . S
O388 C391 1.244 . S
O389 Co363 2.155 . S
O389 C391 1.240 . S
O390 Co363 2.096 . S
O390 C371 1.247 . S
C391 O388 1.244 . S
C391 O389 1.240 . S
H392 C366 0.931 . S
H393 C375 0.931 1_455 S
H394 C379 0.929 . S
H395 C381 0.930 . S
Co396 N400 2.148 . S
Co396 N406 2.128 . S
Co396 N416 2.194 . S
Co396 O421 2.351 . S
Co396 O422 2.155 . S
Co396 O423 2.096 . S
C397 N400 1.301 . S
C397 N401 1.328 . S
C397 H402 0.930 . S
C398 C399 1.333 . S
C398 N400 1.317 . S
C398 H403 0.930 . S
C399 C398 1.333 . S
C399 N401 1.350 . S
C399 H425 0.931 . S
N400 Co396 2.148 . S
N400 C397 1.301 . S
N400 C398 1.317 . S
N401 C397 1.328 . S
N401 C399 1.350 . S
H402 C397 0.930 . S
H403 C398 0.930 . S
C404 O405 1.224 . S
C404 O423 1.247 . S
O405 C404 1.224 . S
N406 Co396 2.128 . S
N406 C407 1.355 . S
N406 C409 1.311 . S
C407 N406 1.355 . S
C407 C408 1.363 . S
C407 H419 0.929 . S
C408 C407 1.363 . S
C408 N410 1.375 . S
C408 H426 0.931 . S
C409 N406 1.311 . S
C409 N410 1.347 . S
C409 H420 0.929 . S
N410 C408 1.375 . S
N410 C409 1.347 . S
C411 C414 1.365 . S
C411 N416 1.328 . S
C411 H417 0.929 . S
C412 C413 1.362 . S
C412 C415 1.378 . S
C412 H427 0.929 . S
C413 C412 1.362 . S
C413 C414 1.366 . S
C414 C411 1.365 . S
C414 C413 1.366 . S
C414 H428 0.930 . S
C415 C412 1.378 . S
C415 N416 1.315 . S
C415 H418 0.930 . S
N416 Co396 2.194 . S
N416 C411 1.328 . S
N416 C415 1.315 . S
H417 C411 0.929 . S
H418 C415 0.930 . S
H419 C407 0.929 . S
H420 C409 0.929 . S
O421 Co396 2.351 . S
O421 C424 1.244 . S
O422 Co396 2.155 . S
O422 C424 1.240 . S
O423 Co396 2.096 . S
O423 C404 1.247 . S
C424 O421 1.244 . S
C424 O422 1.240 . S
H425 C399 0.931 . S
H426 C408 0.931 . S
H427 C412 0.929 . S
H428 C414 0.930 . S
Co429 N433 2.148 . S
Co429 N439 2.128 . S
Co429 N449 2.194 . S
Co429 O454 2.351 . S
Co429 O455 2.155 . S
Co429 O456 2.096 . S
C430 N433 1.301 . S
C430 N434 1.328 . S
C430 H435 0.930 . S
C431 C432 1.333 . S
C431 N433 1.317 . S
C431 H436 0.930 . S
C432 C431 1.333 . S
C432 N434 1.350 . S
C432 H458 0.931 . S
N433 Co429 2.148 . S
N433 C430 1.301 . S
N433 C431 1.317 . S
N434 C430 1.328 . S
N434 C432 1.350 . S
H435 C430 0.930 . S
H436 C431 0.930 . S
C437 O438 1.224 . S
C437 O456 1.247 . S
O438 C437 1.224 . S
N439 Co429 2.128 . S
N439 C440 1.355 . S
N439 C442 1.311 . S
C440 N439 1.355 . S
C440 C441 1.363 . S
C440 H452 0.929 1_455 S
C441 C440 1.363 . S
C441 N443 1.375 . S
C441 H459 0.931 1_455 S
C442 N439 1.311 . S
C442 N443 1.347 . S
C442 H453 0.929 . S
N443 C441 1.375 . S
N443 C442 1.347 . S
C444 C447 1.365 . S
C444 N449 1.328 1_655 S
C444 H450 0.929 . S
C445 C446 1.362 1_455 S
C445 C448 1.378 . S
C445 H460 0.929 . S
C446 C445 1.362 1_655 S
C446 C447 1.366 . S
C447 C444 1.365 . S
C447 C446 1.366 . S
C447 H461 0.930 . S
C448 C445 1.378 . S
C448 N449 1.315 . S
C448 H451 0.930 . S
N449 Co429 2.194 . S
N449 C444 1.328 1_455 S
N449 C448 1.315 . S
H450 C444 0.929 . S
H451 C448 0.930 . S
H452 C440 0.929 1_655 S
H453 C442 0.929 . S
O454 Co429 2.351 . S
O454 C457 1.244 . S
O455 Co429 2.155 . S
O455 C457 1.240 . S
O456 Co429 2.096 . S
O456 C437 1.247 . S
C457 O454 1.244 . S
C457 O455 1.240 . S
H458 C432 0.931 . S
H459 C441 0.931 1_655 S
H460 C445 0.929 . S
H461 C447 0.930 . S
Co462 N466 2.148 . S
Co462 N472 2.128 . S
Co462 N482 2.194 . S
Co462 O487 2.351 . S
Co462 O488 2.155 . S
Co462 O489 2.096 . S
C463 N466 1.301 . S
C463 N467 1.328 . S
C463 H468 0.930 . S
C464 C465 1.333 . S
C464 N466 1.317 . S
C464 H469 0.930 . S
C465 C464 1.333 . S
C465 N467 1.350 . S
C465 H491 0.931 . S
N466 Co462 2.148 . S
N466 C463 1.301 . S
N466 C464 1.317 . S
N467 C463 1.328 . S
N467 C465 1.350 . S
H468 C463 0.930 . S
H469 C464 0.930 . S
C470 O471 1.224 . S
C470 O489 1.247 . S
O471 C470 1.224 . S
N472 Co462 2.128 . S
N472 C473 1.355 . S
N472 C475 1.311 . S
C473 N472 1.355 . S
C473 C474 1.363 . S
C473 H485 0.929 . S
C474 C473 1.363 . S
C474 N476 1.375 . S
C474 H492 0.931 . S
C475 N472 1.311 . S
C475 N476 1.347 . S
C475 H486 0.929 . S
N476 C474 1.375 . S
N476 C475 1.347 . S
C477 C480 1.365 . S
C477 N482 1.328 . S
C477 H483 0.929 . S
C478 C479 1.362 . S
C478 C481 1.378 . S
C478 H493 0.929 . S
C479 C478 1.362 . S
C479 C480 1.366 . S
C480 C477 1.365 . S
C480 C479 1.366 . S
C480 H494 0.930 . S
C481 C478 1.378 . S
C481 N482 1.315 . S
C481 H484 0.930 . S
N482 Co462 2.194 . S
N482 C477 1.328 . S
N482 C481 1.315 . S
H483 C477 0.929 . S
H484 C481 0.930 . S
H485 C473 0.929 . S
H486 C475 0.929 . S
O487 Co462 2.351 . S
O487 C490 1.244 . S
O488 Co462 2.155 . S
O488 C490 1.240 . S
O489 Co462 2.096 . S
O489 C470 1.247 . S
C490 O487 1.244 . S
C490 O488 1.240 . S
H491 C465 0.931 . S
H492 C474 0.931 . S
H493 C478 0.929 . S
H494 C480 0.930 . S
Co495 N499 2.148 . S
Co495 N505 2.128 . S
Co495 N515 2.194 . S
Co495 O520 2.351 . S
Co495 O521 2.155 . S
Co495 O522 2.096 . S
C496 N499 1.301 . S
C496 N500 1.328 . S
C496 H501 0.930 . S
C497 C498 1.333 . S
C497 N499 1.317 . S
C497 H502 0.930 . S
C498 C497 1.333 . S
C498 N500 1.350 . S
C498 H524 0.931 . S
N499 Co495 2.148 . S
N499 C496 1.301 . S
N499 C497 1.317 . S
N500 C496 1.328 . S
N500 C498 1.350 . S
H501 C496 0.930 . S
H502 C497 0.930 . S
C503 O504 1.224 . S
C503 O522 1.247 . S
O504 C503 1.224 . S
N505 Co495 2.128 . S
N505 C506 1.355 . S
N505 C508 1.311 . S
C506 N505 1.355 . S
C506 C507 1.363 . S
C506 H518 0.929 1_455 S
C507 C506 1.363 . S
C507 N509 1.375 . S
C507 H525 0.931 1_455 S
C508 N505 1.311 . S
C508 N509 1.347 . S
C508 H519 0.929 . S
N509 C507 1.375 . S
N509 C508 1.347 . S
C510 C513 1.365 . S
C510 N515 1.328 1_655 S
C510 H516 0.929 . S
C511 C512 1.362 1_455 S
C511 C514 1.378 . S
C511 H526 0.929 . S
C512 C511 1.362 1_655 S
C512 C513 1.366 . S
C513 C510 1.365 . S
C513 C512 1.366 . S
C513 H527 0.930 . S
C514 C511 1.378 . S
C514 N515 1.315 . S
C514 H517 0.930 . S
N515 Co495 2.194 . S
N515 C510 1.328 1_455 S
N515 C514 1.315 . S
H516 C510 0.929 . S
H517 C514 0.930 . S
H518 C506 0.929 1_655 S
H519 C508 0.929 . S
O520 Co495 2.351 . S
O520 C523 1.244 . S
O521 Co495 2.155 . S
O521 C523 1.240 . S
O522 Co495 2.096 . S
O522 C503 1.247 . S
C523 O520 1.244 . S
C523 O521 1.240 . S
H524 C498 0.931 . S
H525 C507 0.931 1_655 S
H526 C511 0.929 . S
H527 C513 0.930 . S
Co528 N532 2.148 . S
Co528 N538 2.128 . S
Co528 N548 2.194 . S
Co528 O553 2.351 . S
Co528 O554 2.155 . S
Co528 O555 2.096 . S
C529 N532 1.301 . S
C529 N533 1.328 . S
C529 H534 0.930 . S
C530 C531 1.333 . S
C530 N532 1.317 . S
C530 H535 0.930 . S
C531 C530 1.333 . S
C531 N533 1.350 . S
C531 H557 0.931 . S
N532 Co528 2.148 . S
N532 C529 1.301 . S
N532 C530 1.317 . S
N533 C529 1.328 . S
N533 C531 1.350 . S
H534 C529 0.930 . S
H535 C530 0.930 . S
C536 O537 1.224 . S
C536 O555 1.247 . S
O537 C536 1.224 . S
N538 Co528 2.128 . S
N538 C539 1.355 . S
N538 C541 1.311 . S
C539 N538 1.355 . S
C539 C540 1.363 . S
C539 H551 0.929 . S
C540 C539 1.363 . S
C540 N542 1.375 . S
C540 H558 0.931 . S
C541 N538 1.311 . S
C541 N542 1.347 . S
C541 H552 0.929 . S
N542 C540 1.375 . S
N542 C541 1.347 . S
C543 C546 1.365 . S
C543 N548 1.328 . S
C543 H549 0.929 . S
C544 C545 1.362 . S
C544 C547 1.378 . S
C544 H559 0.929 . S
C545 C544 1.362 . S
C545 C546 1.366 . S
C546 C543 1.365 . S
C546 C545 1.366 . S
C546 H560 0.930 . S
C547 C544 1.378 . S
C547 N548 1.315 . S
C547 H550 0.930 . S
N548 Co528 2.194 . S
N548 C543 1.328 . S
N548 C547 1.315 . S
H549 C543 0.929 . S
H550 C547 0.930 . S
H551 C539 0.929 . S
H552 C541 0.929 . S
O553 Co528 2.351 . S
O553 C556 1.244 . S
O554 Co528 2.155 . S
O554 C556 1.240 . S
O555 Co528 2.096 . S
O555 C536 1.247 . S
C556 O553 1.244 . S
C556 O554 1.240 . S
H557 C531 0.931 . S
H558 C540 0.931 . S
H559 C544 0.929 . S
H560 C546 0.930 . S
Co561 N565 2.148 1_565 S
Co561 N571 2.128 . S
Co561 N581 2.194 . S
Co561 O586 2.351 1_565 S
Co561 O587 2.155 1_565 S
Co561 O588 2.096 . S
C562 N565 1.301 . S
C562 N566 1.328 . S
C562 H567 0.930 . S
C563 C564 1.333 . S
C563 N565 1.317 . S
C563 H568 0.930 . S
C564 C563 1.333 . S
C564 N566 1.350 . S
C564 H590 0.931 . S
N565 Co561 2.148 1_545 S
N565 C562 1.301 . S
N565 C563 1.317 . S
N566 C562 1.328 . S
N566 C564 1.350 . S
H567 C562 0.930 . S
H568 C563 0.930 . S
C569 O570 1.224 . S
C569 O588 1.247 . S
O570 C569 1.224 . S
N571 Co561 2.128 . S
N571 C572 1.355 . S
N571 C574 1.311 . S
C572 N571 1.355 . S
C572 C573 1.363 . S
C572 H584 0.929 . S
C573 C572 1.363 . S
C573 N575 1.375 . S
C573 H591 0.931 . S
C574 N571 1.311 . S
C574 N575 1.347 . S
C574 H585 0.929 . S
N575 C573 1.375 . S
N575 C574 1.347 . S
C576 C579 1.365 . S
C576 N581 1.328 . S
C576 H582 0.929 . S
C577 C578 1.362 . S
C577 C580 1.378 . S
C577 H592 0.929 . S
C578 C577 1.362 . S
C578 C579 1.366 . S
C579 C576 1.365 . S
C579 C578 1.366 . S
C579 H593 0.930 . S
C580 C577 1.378 . S
C580 N581 1.315 . S
C580 H583 0.930 . S
N581 Co561 2.194 . S
N581 C576 1.328 . S
N581 C580 1.315 . S
H582 C576 0.929 . S
H583 C580 0.930 . S
H584 C572 0.929 . S
H585 C574 0.929 . S
O586 Co561 2.351 1_545 S
O586 C589 1.244 . S
O587 Co561 2.155 1_545 S
O587 C589 1.240 . S
O588 Co561 2.096 . S
O588 C569 1.247 . S
C589 O586 1.244 . S
C589 O587 1.240 . S
H590 C564 0.931 . S
H591 C573 0.931 . S
H592 C577 0.929 . S
H593 C579 0.930 . S
Co594 N598 2.148 1_565 S
Co594 N604 2.128 . S
Co594 N614 2.194 . S
Co594 O619 2.351 1_565 S
Co594 O620 2.155 1_565 S
Co594 O621 2.096 . S
C595 N598 1.301 . S
C595 N599 1.328 . S
C595 H600 0.930 . S
C596 C597 1.333 . S
C596 N598 1.317 . S
C596 H601 0.930 . S
C597 C596 1.333 . S
C597 N599 1.350 . S
C597 H623 0.931 . S
N598 Co594 2.148 1_545 S
N598 C595 1.301 . S
N598 C596 1.317 . S
N599 C595 1.328 . S
N599 C597 1.350 . S
H600 C595 0.930 . S
H601 C596 0.930 . S
C602 O603 1.224 . S
C602 O621 1.247 . S
O603 C602 1.224 . S
N604 Co594 2.128 . S
N604 C605 1.355 . S
N604 C607 1.311 . S
C605 N604 1.355 . S
C605 C606 1.363 . S
C605 H617 0.929 . S
C606 C605 1.363 . S
C606 N608 1.375 . S
C606 H624 0.931 . S
C607 N604 1.311 . S
C607 N608 1.347 . S
C607 H618 0.929 . S
N608 C606 1.375 . S
N608 C607 1.347 . S
C609 C612 1.365 . S
C609 N614 1.328 . S
C609 H615 0.929 . S
C610 C611 1.362 . S
C610 C613 1.378 . S
C610 H625 0.929 . S
C611 C610 1.362 . S
C611 C612 1.366 . S
C612 C609 1.365 . S
C612 C611 1.366 . S
C612 H626 0.930 . S
C613 C610 1.378 . S
C613 N614 1.315 . S
C613 H616 0.930 . S
N614 Co594 2.194 . S
N614 C609 1.328 . S
N614 C613 1.315 . S
H615 C609 0.929 . S
H616 C613 0.930 . S
H617 C605 0.929 . S
H618 C607 0.929 . S
O619 Co594 2.351 1_545 S
O619 C622 1.244 . S
O620 Co594 2.155 1_545 S
O620 C622 1.240 . S
O621 Co594 2.096 . S
O621 C602 1.247 . S
C622 O619 1.244 . S
C622 O620 1.240 . S
H623 C597 0.931 . S
H624 C606 0.931 . S
H625 C610 0.929 . S
H626 C612 0.930 . S
Co627 N631 2.148 . S
Co627 N637 2.128 . S
Co627 N647 2.194 . S
Co627 O652 2.351 . S
Co627 O653 2.155 . S
Co627 O654 2.096 . S
C628 N631 1.301 . S
C628 N632 1.328 . S
C628 H633 0.930 . S
C629 C630 1.333 . S
C629 N631 1.317 . S
C629 H634 0.930 . S
C630 C629 1.333 . S
C630 N632 1.350 . S
C630 H656 0.931 . S
N631 Co627 2.148 . S
N631 C628 1.301 . S
N631 C629 1.317 . S
N632 C628 1.328 . S
N632 C630 1.350 . S
H633 C628 0.930 . S
H634 C629 0.930 . S
C635 O636 1.224 . S
C635 O654 1.247 . S
O636 C635 1.224 . S
N637 Co627 2.128 . S
N637 C638 1.355 . S
N637 C640 1.311 . S
C638 N637 1.355 . S
C638 C639 1.363 . S
C638 H650 0.929 . S
C639 C638 1.363 . S
C639 N641 1.375 . S
C639 H657 0.931 . S
C640 N637 1.311 . S
C640 N641 1.347 . S
C640 H651 0.929 . S
N641 C639 1.375 . S
N641 C640 1.347 . S
C642 C645 1.365 . S
C642 N647 1.328 . S
C642 H648 0.929 . S
C643 C644 1.362 . S
C643 C646 1.378 . S
C643 H658 0.929 . S
C644 C643 1.362 . S
C644 C645 1.366 . S
C645 C642 1.365 . S
C645 C644 1.366 . S
C645 H659 0.930 . S
C646 C643 1.378 . S
C646 N647 1.315 . S
C646 H649 0.930 . S
N647 Co627 2.194 . S
N647 C642 1.328 . S
N647 C646 1.315 . S
H648 C642 0.929 . S
H649 C646 0.930 . S
H650 C638 0.929 . S
H651 C640 0.929 . S
O652 Co627 2.351 . S
O652 C655 1.244 . S
O653 Co627 2.155 . S
O653 C655 1.240 . S
O654 Co627 2.096 . S
O654 C635 1.247 . S
C655 O652 1.244 . S
C655 O653 1.240 . S
H656 C630 0.931 . S
H657 C639 0.931 . S
H658 C643 0.929 . S
H659 C645 0.930 . S
Co660 N664 2.148 . S
Co660 N670 2.128 . S
Co660 N680 2.194 . S
Co660 O685 2.351 . S
Co660 O686 2.155 . S
Co660 O687 2.096 . S
C661 N664 1.301 . S
C661 N665 1.328 . S
C661 H666 0.930 . S
C662 C663 1.333 . S
C662 N664 1.317 . S
C662 H667 0.930 . S
C663 C662 1.333 . S
C663 N665 1.350 . S
C663 H689 0.931 . S
N664 Co660 2.148 . S
N664 C661 1.301 . S
N664 C662 1.317 . S
N665 C661 1.328 . S
N665 C663 1.350 . S
H666 C661 0.930 . S
H667 C662 0.930 . S
C668 O669 1.224 . S
C668 O687 1.247 . S
O669 C668 1.224 . S
N670 Co660 2.128 . S
N670 C671 1.355 . S
N670 C673 1.311 . S
C671 N670 1.355 . S
C671 C672 1.363 . S
C671 H683 0.929 . S
C672 C671 1.363 . S
C672 N674 1.375 . S
C672 H690 0.931 . S
C673 N670 1.311 . S
C673 N674 1.347 . S
C673 H684 0.929 . S
N674 C672 1.375 . S
N674 C673 1.347 . S
C675 C678 1.365 . S
C675 N680 1.328 . S
C675 H681 0.929 . S
C676 C677 1.362 . S
C676 C679 1.378 . S
C676 H691 0.929 . S
C677 C676 1.362 . S
C677 C678 1.366 . S
C678 C675 1.365 . S
C678 C677 1.366 . S
C678 H692 0.930 . S
C679 C676 1.378 . S
C679 N680 1.315 . S
C679 H682 0.930 . S
N680 Co660 2.194 . S
N680 C675 1.328 . S
N680 C679 1.315 . S
H681 C675 0.929 . S
H682 C679 0.930 . S
H683 C671 0.929 . S
H684 C673 0.929 . S
O685 Co660 2.351 . S
O685 C688 1.244 . S
O686 Co660 2.155 . S
O686 C688 1.240 . S
O687 Co660 2.096 . S
O687 C668 1.247 . S
C688 O685 1.244 . S
C688 O686 1.240 . S
H689 C663 0.931 . S
H690 C672 0.931 . S
H691 C676 0.929 . S
H692 C678 0.930 . S
Co693 N697 2.148 1_545 S
Co693 N703 2.128 . S
Co693 N713 2.194 . S
Co693 O718 2.351 1_545 S
Co693 O719 2.155 1_545 S
Co693 O720 2.096 . S
C694 N697 1.301 . S
C694 N698 1.328 . S
C694 H699 0.930 . S
C695 C696 1.333 . S
C695 N697 1.317 . S
C695 H700 0.930 . S
C696 C695 1.333 . S
C696 N698 1.350 . S
C696 H722 0.931 . S
N697 Co693 2.148 1_565 S
N697 C694 1.301 . S
N697 C695 1.317 . S
N698 C694 1.328 . S
N698 C696 1.350 . S
H699 C694 0.930 . S
H700 C695 0.930 . S
C701 O702 1.224 . S
C701 O720 1.247 . S
O702 C701 1.224 . S
N703 Co693 2.128 . S
N703 C704 1.355 . S
N703 C706 1.311 . S
C704 N703 1.355 . S
C704 C705 1.363 . S
C704 H716 0.929 . S
C705 C704 1.363 . S
C705 N707 1.375 . S
C705 H723 0.931 . S
C706 N703 1.311 . S
C706 N707 1.347 . S
C706 H717 0.929 . S
N707 C705 1.375 . S
N707 C706 1.347 . S
C708 C711 1.365 . S
C708 N713 1.328 . S
C708 H714 0.929 . S
C709 C710 1.362 . S
C709 C712 1.378 . S
C709 H724 0.929 . S
C710 C709 1.362 . S
C710 C711 1.366 . S
C711 C708 1.365 . S
C711 C710 1.366 . S
C711 H725 0.930 . S
C712 C709 1.378 . S
C712 N713 1.315 . S
C712 H715 0.930 . S
N713 Co693 2.194 . S
N713 C708 1.328 . S
N713 C712 1.315 . S
H714 C708 0.929 . S
H715 C712 0.930 . S
H716 C704 0.929 . S
H717 C706 0.929 . S
O718 Co693 2.351 1_565 S
O718 C721 1.244 . S
O719 Co693 2.155 1_565 S
O719 C721 1.240 . S
O720 Co693 2.096 . S
O720 C701 1.247 . S
C721 O718 1.244 . S
C721 O719 1.240 . S
H722 C696 0.931 . S
H723 C705 0.931 . S
H724 C709 0.929 . S
H725 C711 0.930 . S
Co726 N730 2.148 1_545 S
Co726 N736 2.128 . S
Co726 N746 2.194 . S
Co726 O751 2.351 1_545 S
Co726 O752 2.155 1_545 S
Co726 O753 2.096 . S
C727 N730 1.301 . S
C727 N731 1.328 . S
C727 H732 0.930 . S
C728 C729 1.333 . S
C728 N730 1.317 . S
C728 H733 0.930 . S
C729 C728 1.333 . S
C729 N731 1.350 . S
C729 H755 0.931 . S
N730 Co726 2.148 1_565 S
N730 C727 1.301 . S
N730 C728 1.317 . S
N731 C727 1.328 . S
N731 C729 1.350 . S
H732 C727 0.930 . S
H733 C728 0.930 . S
C734 O735 1.224 . S
C734 O753 1.247 . S
O735 C734 1.224 . S
N736 Co726 2.128 . S
N736 C737 1.355 . S
N736 C739 1.311 . S
C737 N736 1.355 . S
C737 C738 1.363 . S
C737 H749 0.929 . S
C738 C737 1.363 . S
C738 N740 1.375 . S
C738 H756 0.931 . S
C739 N736 1.311 . S
C739 N740 1.347 . S
C739 H750 0.929 . S
N740 C738 1.375 . S
N740 C739 1.347 . S
C741 C744 1.365 . S
C741 N746 1.328 . S
C741 H747 0.929 . S
C742 C743 1.362 . S
C742 C745 1.378 . S
C742 H757 0.929 . S
C743 C742 1.362 . S
C743 C744 1.366 . S
C744 C741 1.365 . S
C744 C743 1.366 . S
C744 H758 0.930 . S
C745 C742 1.378 . S
C745 N746 1.315 . S
C745 H748 0.930 . S
N746 Co726 2.194 . S
N746 C741 1.328 . S
N746 C745 1.315 . S
H747 C741 0.929 . S
H748 C745 0.930 . S
H749 C737 0.929 . S
H750 C739 0.929 . S
O751 Co726 2.351 1_565 S
O751 C754 1.244 . S
O752 Co726 2.155 1_565 S
O752 C754 1.240 . S
O753 Co726 2.096 . S
O753 C734 1.247 . S
C754 O751 1.244 . S
C754 O752 1.240 . S
H755 C729 0.931 . S
H756 C738 0.931 . S
H757 C742 0.929 . S
H758 C744 0.930 . S
Co759 N763 2.148 . S
Co759 N769 2.128 . S
Co759 N779 2.194 . S
Co759 O784 2.351 . S
Co759 O785 2.155 . S
Co759 O786 2.096 . S
C760 N763 1.301 . S
C760 N764 1.328 . S
C760 H765 0.930 . S
C761 C762 1.333 . S
C761 N763 1.317 . S
C761 H766 0.930 . S
C762 C761 1.333 . S
C762 N764 1.350 . S
C762 H788 0.931 . S
N763 Co759 2.148 . S
N763 C760 1.301 . S
N763 C761 1.317 . S
N764 C760 1.328 . S
N764 C762 1.350 . S
H765 C760 0.930 . S
H766 C761 0.930 . S
C767 O768 1.224 . S
C767 O786 1.247 . S
O768 C767 1.224 . S
N769 Co759 2.128 . S
N769 C770 1.355 . S
N769 C772 1.311 . S
C770 N769 1.355 . S
C770 C771 1.363 . S
C770 H782 0.929 . S
C771 C770 1.363 . S
C771 N773 1.375 . S
C771 H789 0.931 . S
C772 N769 1.311 . S
C772 N773 1.347 . S
C772 H783 0.929 . S
N773 C771 1.375 . S
N773 C772 1.347 . S
C774 C777 1.365 . S
C774 N779 1.328 . S
C774 H780 0.929 . S
C775 C776 1.362 . S
C775 C778 1.378 . S
C775 H790 0.929 . S
C776 C775 1.362 . S
C776 C777 1.366 . S
C777 C774 1.365 . S
C777 C776 1.366 . S
C777 H791 0.930 . S
C778 C775 1.378 . S
C778 N779 1.315 . S
C778 H781 0.930 . S
N779 Co759 2.194 . S
N779 C774 1.328 . S
N779 C778 1.315 . S
H780 C774 0.929 . S
H781 C778 0.930 . S
H782 C770 0.929 . S
H783 C772 0.929 . S
O784 Co759 2.351 . S
O784 C787 1.244 . S
O785 Co759 2.155 . S
O785 C787 1.240 . S
O786 Co759 2.096 . S
O786 C767 1.247 . S
C787 O784 1.244 . S
C787 O785 1.240 . S
H788 C762 0.931 . S
H789 C771 0.931 . S
H790 C775 0.929 . S
H791 C777 0.930 . S
Co792 N796 2.148 . S
Co792 N802 2.128 . S
Co792 N812 2.194 . S
Co792 O817 2.351 . S
Co792 O818 2.155 . S
Co792 O819 2.096 . S
C793 N796 1.301 . S
C793 N797 1.328 . S
C793 H798 0.930 . S
C794 C795 1.333 . S
C794 N796 1.317 . S
C794 H799 0.930 . S
C795 C794 1.333 . S
C795 N797 1.350 . S
C795 H821 0.931 . S
N796 Co792 2.148 . S
N796 C793 1.301 . S
N796 C794 1.317 . S
N797 C793 1.328 . S
N797 C795 1.350 . S
H798 C793 0.930 . S
H799 C794 0.930 . S
C800 O801 1.224 . S
C800 O819 1.247 . S
O801 C800 1.224 . S
N802 Co792 2.128 . S
N802 C803 1.355 . S
N802 C805 1.311 . S
C803 N802 1.355 . S
C803 C804 1.363 . S
C803 H815 0.929 . S
C804 C803 1.363 . S
C804 N806 1.375 . S
C804 H822 0.931 . S
C805 N802 1.311 . S
C805 N806 1.347 . S
C805 H816 0.929 . S
N806 C804 1.375 . S
N806 C805 1.347 . S
C807 C810 1.365 . S
C807 N812 1.328 . S
C807 H813 0.929 . S
C808 C809 1.362 . S
C808 C811 1.378 . S
C808 H823 0.929 . S
C809 C808 1.362 . S
C809 C810 1.366 . S
C810 C807 1.365 . S
C810 C809 1.366 . S
C810 H824 0.930 . S
C811 C808 1.378 . S
C811 N812 1.315 . S
C811 H814 0.930 . S
N812 Co792 2.194 . S
N812 C807 1.328 . S
N812 C811 1.315 . S
H813 C807 0.929 . S
H814 C811 0.930 . S
H815 C803 0.929 . S
H816 C805 0.929 . S
O817 Co792 2.351 . S
O817 C820 1.244 . S
O818 Co792 2.155 . S
O818 C820 1.240 . S
O819 Co792 2.096 . S
O819 C800 1.247 . S
C820 O817 1.244 . S
C820 O818 1.240 . S
H821 C795 0.931 . S
H822 C804 0.931 . S
H823 C808 0.929 . S
H824 C810 0.930 . S
Co825 N829 2.148 . S
Co825 N835 2.128 . S
Co825 N845 2.194 . S
Co825 O850 2.351 . S
Co825 O851 2.155 . S
Co825 O852 2.096 . S
C826 N829 1.301 . S
C826 N830 1.328 . S
C826 H831 0.930 . S
C827 C828 1.333 . S
C827 N829 1.317 . S
C827 H832 0.930 . S
C828 C827 1.333 . S
C828 N830 1.350 . S
C828 H854 0.931 . S
N829 Co825 2.148 . S
N829 C826 1.301 . S
N829 C827 1.317 . S
N830 C826 1.328 . S
N830 C828 1.350 . S
H831 C826 0.930 . S
H832 C827 0.930 . S
C833 O834 1.224 . S
C833 O852 1.247 . S
O834 C833 1.224 . S
N835 Co825 2.128 . S
N835 C836 1.355 . S
N835 C838 1.311 . S
C836 N835 1.355 . S
C836 C837 1.363 . S
C836 H848 0.929 . S
C837 C836 1.363 . S
C837 N839 1.375 . S
C837 H855 0.931 . S
C838 N835 1.311 . S
C838 N839 1.347 . S
C838 H849 0.929 . S
N839 C837 1.375 . S
N839 C838 1.347 . S
C840 C843 1.365 . S
C840 N845 1.328 . S
C840 H846 0.929 . S
C841 C842 1.362 . S
C841 C844 1.378 . S
C841 H856 0.929 . S
C842 C841 1.362 . S
C842 C843 1.366 . S
C843 C840 1.365 . S
C843 C842 1.366 . S
C843 H857 0.930 . S
C844 C841 1.378 . S
C844 N845 1.315 . S
C844 H847 0.930 . S
N845 Co825 2.194 . S
N845 C840 1.328 . S
N845 C844 1.315 . S
H846 C840 0.929 . S
H847 C844 0.930 . S
H848 C836 0.929 . S
H849 C838 0.929 . S
O850 Co825 2.351 . S
O850 C853 1.244 . S
O851 Co825 2.155 . S
O851 C853 1.240 . S
O852 Co825 2.096 . S
O852 C833 1.247 . S
C853 O850 1.244 . S
C853 O851 1.240 . S
H854 C828 0.931 . S
H855 C837 0.931 . S
H856 C841 0.929 . S
H857 C843 0.930 . S
Co858 N862 2.148 . S
Co858 N868 2.128 1_554 S
Co858 N878 2.194 . S
Co858 O883 2.351 1_554 S
Co858 O884 2.155 1_554 S
Co858 O885 2.096 1_554 S
C859 N862 1.301 . S
C859 N863 1.328 . S
C859 H864 0.930 . S
C860 C861 1.333 . S
C860 N862 1.317 . S
C860 H865 0.930 . S
C861 C860 1.333 . S
C861 N863 1.350 . S
C861 H887 0.931 . S
N862 Co858 2.148 . S
N862 C859 1.301 . S
N862 C860 1.317 . S
N863 C859 1.328 . S
N863 C861 1.350 . S
H864 C859 0.930 . S
H865 C860 0.930 . S
C866 O867 1.224 . S
C866 O885 1.247 1_554 S
O867 C866 1.224 . S
N868 Co858 2.128 1_556 S
N868 C869 1.355 . S
N868 C871 1.311 . S
C869 N868 1.355 . S
C869 C870 1.363 . S
C869 H881 0.929 . S
C870 C869 1.363 . S
C870 N872 1.375 . S
C870 H888 0.931 . S
C871 N868 1.311 . S
C871 N872 1.347 . S
C871 H882 0.929 . S
N872 C870 1.375 . S
N872 C871 1.347 . S
C873 C876 1.365 . S
C873 N878 1.328 . S
C873 H879 0.929 . S
C874 C875 1.362 . S
C874 C877 1.378 . S
C874 H889 0.929 . S
C875 C874 1.362 . S
C875 C876 1.366 . S
C876 C873 1.365 . S
C876 C875 1.366 . S
C876 H890 0.930 . S
C877 C874 1.378 . S
C877 N878 1.315 . S
C877 H880 0.930 . S
N878 Co858 2.194 . S
N878 C873 1.328 . S
N878 C877 1.315 . S
H879 C873 0.929 . S
H880 C877 0.930 . S
H881 C869 0.929 . S
H882 C871 0.929 . S
O883 Co858 2.351 1_556 S
O883 C886 1.244 . S
O884 Co858 2.155 1_556 S
O884 C886 1.240 . S
O885 Co858 2.096 1_556 S
O885 C866 1.247 1_556 S
C886 O883 1.244 . S
C886 O884 1.240 . S
H887 C861 0.931 . S
H888 C870 0.931 . S
H889 C874 0.929 . S
H890 C876 0.930 . S
Co891 N895 2.148 . S
Co891 N901 2.128 1_554 S
Co891 N911 2.194 . S
Co891 O916 2.351 1_554 S
Co891 O917 2.155 1_554 S
Co891 O918 2.096 1_554 S
C892 N895 1.301 . S
C892 N896 1.328 . S
C892 H897 0.930 . S
C893 C894 1.333 . S
C893 N895 1.317 . S
C893 H898 0.930 . S
C894 C893 1.333 . S
C894 N896 1.350 . S
C894 H920 0.931 . S
N895 Co891 2.148 . S
N895 C892 1.301 . S
N895 C893 1.317 . S
N896 C892 1.328 . S
N896 C894 1.350 . S
H897 C892 0.930 . S
H898 C893 0.930 . S
C899 O900 1.224 . S
C899 O918 1.247 1_554 S
O900 C899 1.224 . S
N901 Co891 2.128 1_556 S
N901 C902 1.355 . S
N901 C904 1.311 . S
C902 N901 1.355 . S
C902 C903 1.363 . S
C902 H914 0.929 . S
C903 C902 1.363 . S
C903 N905 1.375 . S
C903 H921 0.931 . S
C904 N901 1.311 . S
C904 N905 1.347 . S
C904 H915 0.929 . S
N905 C903 1.375 . S
N905 C904 1.347 . S
C906 C909 1.365 . S
C906 N911 1.328 . S
C906 H912 0.929 . S
C907 C908 1.362 . S
C907 C910 1.378 . S
C907 H922 0.929 . S
C908 C907 1.362 . S
C908 C909 1.366 . S
C909 C906 1.365 . S
C909 C908 1.366 . S
C909 H923 0.930 . S
C910 C907 1.378 . S
C910 N911 1.315 . S
C910 H913 0.930 . S
N911 Co891 2.194 . S
N911 C906 1.328 . S
N911 C910 1.315 . S
H912 C906 0.929 . S
H913 C910 0.930 . S
H914 C902 0.929 . S
H915 C904 0.929 . S
O916 Co891 2.351 1_556 S
O916 C919 1.244 . S
O917 Co891 2.155 1_556 S
O917 C919 1.240 . S
O918 Co891 2.096 1_556 S
O918 C899 1.247 1_556 S
C919 O916 1.244 . S
C919 O917 1.240 . S
H920 C894 0.931 . S
H921 C903 0.931 . S
H922 C907 0.929 . S
H923 C909 0.930 . S
Co924 N928 2.148 . S
Co924 N934 2.128 . S
Co924 N944 2.194 . S
Co924 O949 2.351 . S
Co924 O950 2.155 . S
Co924 O951 2.096 . S
C925 N928 1.301 . S
C925 N929 1.328 . S
C925 H930 0.930 . S
C926 C927 1.333 . S
C926 N928 1.317 . S
C926 H931 0.930 . S
C927 C926 1.333 . S
C927 N929 1.350 . S
C927 H953 0.931 . S
N928 Co924 2.148 . S
N928 C925 1.301 . S
N928 C926 1.317 . S
N929 C925 1.328 . S
N929 C927 1.350 . S
H930 C925 0.930 . S
H931 C926 0.930 . S
C932 O933 1.224 . S
C932 O951 1.247 . S
O933 C932 1.224 . S
N934 Co924 2.128 . S
N934 C935 1.355 . S
N934 C937 1.311 . S
C935 N934 1.355 . S
C935 C936 1.363 . S
C935 H947 0.929 . S
C936 C935 1.363 . S
C936 N938 1.375 . S
C936 H954 0.931 . S
C937 N934 1.311 . S
C937 N938 1.347 . S
C937 H948 0.929 . S
N938 C936 1.375 . S
N938 C937 1.347 . S
C939 C942 1.365 . S
C939 N944 1.328 . S
C939 H945 0.929 . S
C940 C941 1.362 . S
C940 C943 1.378 . S
C940 H955 0.929 . S
C941 C940 1.362 . S
C941 C942 1.366 . S
C942 C939 1.365 . S
C942 C941 1.366 . S
C942 H956 0.930 . S
C943 C940 1.378 . S
C943 N944 1.315 . S
C943 H946 0.930 . S
N944 Co924 2.194 . S
N944 C939 1.328 . S
N944 C943 1.315 . S
H945 C939 0.929 . S
H946 C943 0.930 . S
H947 C935 0.929 . S
H948 C937 0.929 . S
O949 Co924 2.351 . S
O949 C952 1.244 . S
O950 Co924 2.155 . S
O950 C952 1.240 . S
O951 Co924 2.096 . S
O951 C932 1.247 . S
C952 O949 1.244 . S
C952 O950 1.240 . S
H953 C927 0.931 . S
H954 C936 0.931 . S
H955 C940 0.929 . S
H956 C942 0.930 . S
Co957 N961 2.148 . S
Co957 N967 2.128 . S
Co957 N977 2.194 . S
Co957 O982 2.351 . S
Co957 O983 2.155 . S
Co957 O984 2.096 . S
C958 N961 1.301 . S
C958 N962 1.328 . S
C958 H963 0.930 . S
C959 C960 1.333 . S
C959 N961 1.317 . S
C959 H964 0.930 . S
C960 C959 1.333 . S
C960 N962 1.350 . S
C960 H986 0.931 . S
N961 Co957 2.148 . S
N961 C958 1.301 . S
N961 C959 1.317 . S
N962 C958 1.328 . S
N962 C960 1.350 . S
H963 C958 0.930 . S
H964 C959 0.930 . S
C965 O966 1.224 . S
C965 O984 1.247 . S
O966 C965 1.224 . S
N967 Co957 2.128 . S
N967 C968 1.355 . S
N967 C970 1.311 . S
C968 N967 1.355 . S
C968 C969 1.363 . S
C968 H980 0.929 . S
C969 C968 1.363 . S
C969 N971 1.375 . S
C969 H987 0.931 . S
C970 N967 1.311 . S
C970 N971 1.347 . S
C970 H981 0.929 . S
N971 C969 1.375 . S
N971 C970 1.347 . S
C972 C975 1.365 . S
C972 N977 1.328 . S
C972 H978 0.929 . S
C973 C974 1.362 . S
C973 C976 1.378 . S
C973 H988 0.929 . S
C974 C973 1.362 . S
C974 C975 1.366 . S
C975 C972 1.365 . S
C975 C974 1.366 . S
C975 H989 0.930 . S
C976 C973 1.378 . S
C976 N977 1.315 . S
C976 H979 0.930 . S
N977 Co957 2.194 . S
N977 C972 1.328 . S
N977 C976 1.315 . S
H978 C972 0.929 . S
H979 C976 0.930 . S
H980 C968 0.929 . S
H981 C970 0.929 . S
O982 Co957 2.351 . S
O982 C985 1.244 . S
O983 Co957 2.155 . S
O983 C985 1.240 . S
O984 Co957 2.096 . S
O984 C965 1.247 . S
C985 O982 1.244 . S
C985 O983 1.240 . S
H986 C960 0.931 . S
H987 C969 0.931 . S
H988 C973 0.929 . S
H989 C975 0.930 . S
Co990 N994 2.148 . S
Co990 N1000 2.128 1_556 S
Co990 N1010 2.194 . S
Co990 O1015 2.351 1_556 S
Co990 O1016 2.155 1_556 S
Co990 O1017 2.096 1_556 S
C991 N994 1.301 . S
C991 N995 1.328 . S
C991 H996 0.930 . S
C992 C993 1.333 . S
C992 N994 1.317 . S
C992 H997 0.930 . S
C993 C992 1.333 . S
C993 N995 1.350 . S
C993 H1019 0.931 . S
N994 Co990 2.148 . S
N994 C991 1.301 . S
N994 C992 1.317 . S
N995 C991 1.328 . S
N995 C993 1.350 . S
H996 C991 0.930 . S
H997 C992 0.930 . S
C998 O999 1.224 . S
C998 O1017 1.247 1_556 S
O999 C998 1.224 . S
N1000 Co990 2.128 1_554 S
N1000 C1001 1.355 . S
N1000 C1003 1.311 . S
C1001 N1000 1.355 . S
C1001 C1002 1.363 . S
C1001 H1013 0.929 . S
C1002 C1001 1.363 . S
C1002 N1004 1.375 . S
C1002 H1020 0.931 . S
C1003 N1000 1.311 . S
C1003 N1004 1.347 . S
C1003 H1014 0.929 . S
N1004 C1002 1.375 . S
N1004 C1003 1.347 . S
C1005 C1008 1.365 . S
C1005 N1010 1.328 . S
C1005 H1011 0.929 . S
C1006 C1007 1.362 . S
C1006 C1009 1.378 . S
C1006 H1021 0.929 . S
C1007 C1006 1.362 . S
C1007 C1008 1.366 . S
C1008 C1005 1.365 . S
C1008 C1007 1.366 . S
C1008 H1022 0.930 . S
C1009 C1006 1.378 . S
C1009 N1010 1.315 . S
C1009 H1012 0.930 . S
N1010 Co990 2.194 . S
N1010 C1005 1.328 . S
N1010 C1009 1.315 . S
H1011 C1005 0.929 . S
H1012 C1009 0.930 . S
H1013 C1001 0.929 . S
H1014 C1003 0.929 . S
O1015 Co990 2.351 1_554 S
O1015 C1018 1.244 . S
O1016 Co990 2.155 1_554 S
O1016 C1018 1.240 . S
O1017 Co990 2.096 1_554 S
O1017 C998 1.247 1_554 S
C1018 O1015 1.244 . S
C1018 O1016 1.240 . S
H1019 C993 0.931 . S
H1020 C1002 0.931 . S
H1021 C1006 0.929 . S
H1022 C1008 0.930 . S
Co1023 N1027 2.148 . S
Co1023 N1033 2.128 1_556 S
Co1023 N1043 2.194 . S
Co1023 O1048 2.351 1_556 S
Co1023 O1049 2.155 1_556 S
Co1023 O1050 2.096 1_556 S
C1024 N1027 1.301 . S
C1024 N1028 1.328 . S
C1024 H1029 0.930 . S
C1025 C1026 1.333 . S
C1025 N1027 1.317 . S
C1025 H1030 0.930 . S
C1026 C1025 1.333 . S
C1026 N1028 1.350 . S
C1026 H1052 0.931 . S
N1027 Co1023 2.148 . S
N1027 C1024 1.301 . S
N1027 C1025 1.317 . S
N1028 C1024 1.328 . S
N1028 C1026 1.350 . S
H1029 C1024 0.930 . S
H1030 C1025 0.930 . S
C1031 O1032 1.224 . S
C1031 O1050 1.247 1_556 S
O1032 C1031 1.224 . S
N1033 Co1023 2.128 1_554 S
N1033 C1034 1.355 . S
N1033 C1036 1.311 . S
C1034 N1033 1.355 . S
C1034 C1035 1.363 . S
C1034 H1046 0.929 . S
C1035 C1034 1.363 . S
C1035 N1037 1.375 . S
C1035 H1053 0.931 . S
C1036 N1033 1.311 . S
C1036 N1037 1.347 . S
C1036 H1047 0.929 . S
N1037 C1035 1.375 . S
N1037 C1036 1.347 . S
C1038 C1041 1.365 . S
C1038 N1043 1.328 . S
C1038 H1044 0.929 . S
C1039 C1040 1.362 . S
C1039 C1042 1.378 . S
C1039 H1054 0.929 . S
C1040 C1039 1.362 . S
C1040 C1041 1.366 . S
C1041 C1038 1.365 . S
C1041 C1040 1.366 . S
C1041 H1055 0.930 . S
C1042 C1039 1.378 . S
C1042 N1043 1.315 . S
C1042 H1045 0.930 . S
N1043 Co1023 2.194 . S
N1043 C1038 1.328 . S
N1043 C1042 1.315 . S
H1044 C1038 0.929 . S
H1045 C1042 0.930 . S
H1046 C1034 0.929 . S
H1047 C1036 0.929 . S
O1048 Co1023 2.351 1_554 S
O1048 C1051 1.244 . S
O1049 Co1023 2.155 1_554 S
O1049 C1051 1.240 . S
O1050 Co1023 2.096 1_554 S
O1050 C1031 1.247 1_554 S
C1051 O1048 1.244 . S
C1051 O1049 1.240 . S
H1052 C1026 0.931 . S
H1053 C1035 0.931 . S
H1054 C1039 0.929 . S
H1055 C1041 0.930 . S
N14 N344 1.724 . S
N377 N47 1.724 . S
N278 N80 1.724 . S
N113 N311 1.724 . S
N146 N476 1.724 . S
N179 N509 1.724 . S
N410 N212 1.724 . S
N443 N245 1.724 . S
N872 N542 1.724 . S
N905 N575 1.724 . S
N608 N806 1.724 . S
N839 N641 1.724 . S
N674 N1004 1.724 . S
N1037 N707 1.724 . S
N740 N938 1.724 . S
N773 N971 1.724 . S
C8 C833 2.740 . S
C41 C800 2.740 . S
C74 C899 2.740 . S
C107 C866 2.740 . S
C140 C965 2.740 . S
C173 C932 2.740 . S
C1031 C206 2.740 . S
C239 C998 2.740 . S
C569 C272 2.740 . S
C305 C536 2.740 . S
C338 C635 2.740 . S
C602 C371 2.740 . S
C701 C404 2.740 . S
C668 C437 2.740 . S
C470 C767 2.740 . S
C734 C503 2.740 . S
N71 N5 0.973 . S
N38 N104 0.973 . S
N203 N137 0.973 . S
N170 N236 0.973 . S
N269 N335 0.973 . S
N302 N368 0.973 . S
N467 N401 0.973 . S
N500 N434 0.973 . S
N599 N533 0.973 . S
N566 N632 0.973 . S
N665 N731 0.973 . S
N698 N764 0.973 . S
N863 N797 0.973 . S
N830 N896 0.973 . S
N929 N995 0.973 . S
N1028 N962 0.973 . S
C743 C28 2.288 . S
C512 C61 2.288 . S
C94 C941 2.288 . S
C182 C127 2.288 . S
C160 C611 2.288 . S
C193 C380 2.288 . S
C809 C226 2.288 . S
C259 C50 2.288 . S
C292 C1007 2.288 . S
C248 C325 2.288 . S
C358 C677 2.288 . S
C391 C446 2.288 . S
C875 C424 2.288 . S
C457 C116 2.288 . S
C545 C490 2.288 . S
C314 C523 2.288 . S
C215 C556 2.288 . S
C589 C1040 2.288 . S
C622 C413 2.288 . S
C655 C710 2.288 . S
C688 C83 2.288 . S
C721 C908 2.288 . S
C281 C754 2.288 . S
C578 C787 2.288 . S
C479 C820 2.288 . S
C853 C776 2.288 . S
C149 C886 2.288 . S
C974 C919 2.288 . S
C952 C347 2.288 . S
C985 C644 2.288 . S
C17 C1018 2.288 . S
C1051 C842 2.288 . S
