# Generated by pormake.
# Topology hal, (4)-cn, num edge types: 1
# Building blocks:
#     Node 0, Type 0, BuildingBlock: QUQFOY_clean_sbu_3, # of connection points: 4
#     Node 1, Type 0, BuildingBlock: QUQFOY_clean_sbu_3, # of connection points: 4
#     Node 2, Type 0, BuildingBlock: QUQFOY_clean_sbu_3, # of connection points: 4
#     Node 3, Type 0, BuildingBlock: QUQFOY_clean_sbu_3, # of connection points: 4
#     Node 4, Type 0, BuildingBlock: QUQFOY_clean_sbu_3, # of connection points: 4
#     Node 5, Type 0, BuildingBlock: QUQFOY_clean_sbu_3, # of connection points: 4
#     Node 6, Type 0, BuildingBlock: QUQFOY_clean_sbu_3, # of connection points: 4
#     Node 7, Type 0, BuildingBlock: QUQFOY_clean_sbu_3, # of connection points: 4
#     Node 8, Type 0, BuildingBlock: QUQFOY_clean_sbu_3, # of connection points: 4
#     Node 9, Type 0, BuildingBlock: QUQFOY_clean_sbu_3, # of connection points: 4
#     Node 10, Type 0, BuildingBlock: QUQFOY_clean_sbu_3, # of connection points: 4
#     Node 11, Type 0, BuildingBlock: QUQFOY_clean_sbu_3, # of connection points: 4
#     Node 12, Type 0, BuildingBlock: QUQFOY_clean_sbu_3, # of connection points: 4
#     Node 13, Type 0, BuildingBlock: QUQFOY_clean_sbu_3, # of connection points: 4
#     Node 14, Type 0, BuildingBlock: QUQFOY_clean_sbu_3, # of connection points: 4
#     Node 15, Type 0, BuildingBlock: QUQFOY_clean_sbu_3, # of connection points: 4
#     Node 16, Type 0, BuildingBlock: QUQFOY_clean_sbu_3, # of connection points: 4
#     Node 17, Type 0, BuildingBlock: QUQFOY_clean_sbu_3, # of connection points: 4
#     Node 18, Type 0, BuildingBlock: QUQFOY_clean_sbu_3, # of connection points: 4
#     Node 19, Type 0, BuildingBlock: QUQFOY_clean_sbu_3, # of connection points: 4
#     Node 20, Type 0, BuildingBlock: QUQFOY_clean_sbu_3, # of connection points: 4
#     Node 21, Type 0, BuildingBlock: QUQFOY_clean_sbu_3, # of connection points: 4
#     Node 22, Type 0, BuildingBlock: QUQFOY_clean_sbu_3, # of connection points: 4
#     Node 23, Type 0, BuildingBlock: QUQFOY_clean_sbu_3, # of connection points: 4
#     Node 24, Type 0, BuildingBlock: QUQFOY_clean_sbu_3, # of connection points: 4
#     Node 25, Type 0, BuildingBlock: QUQFOY_clean_sbu_3, # of connection points: 4
#     Node 26, Type 0, BuildingBlock: QUQFOY_clean_sbu_3, # of connection points: 4
#     Node 27, Type 0, BuildingBlock: QUQFOY_clean_sbu_3, # of connection points: 4
#     Node 28, Type 0, BuildingBlock: QUQFOY_clean_sbu_3, # of connection points: 4
#     Node 29, Type 0, BuildingBlock: QUQFOY_clean_sbu_3, # of connection points: 4
#     Node 30, Type 0, BuildingBlock: QUQFOY_clean_sbu_3, # of connection points: 4
#     Node 31, Type 0, BuildingBlock: QUQFOY_clean_sbu_3, # of connection points: 4
#     Node 32, Type 0, BuildingBlock: QUQFOY_clean_sbu_3, # of connection points: 4
#     Node 33, Type 0, BuildingBlock: QUQFOY_clean_sbu_3, # of connection points: 4
#     Node 34, Type 0, BuildingBlock: QUQFOY_clean_sbu_3, # of connection points: 4
#     Node 35, Type 0, BuildingBlock: QUQFOY_clean_sbu_3, # of connection points: 4
#     Node 36, Type 0, BuildingBlock: QUQFOY_clean_sbu_3, # of connection points: 4
#     Node 37, Type 0, BuildingBlock: QUQFOY_clean_sbu_3, # of connection points: 4
#     Node 38, Type 0, BuildingBlock: QUQFOY_clean_sbu_3, # of connection points: 4
#     Node 39, Type 0, BuildingBlock: QUQFOY_clean_sbu_3, # of connection points: 4
#     Node 40, Type 0, BuildingBlock: QUQFOY_clean_sbu_3, # of connection points: 4
#     Node 41, Type 0, BuildingBlock: QUQFOY_clean_sbu_3, # of connection points: 4
#     Node 42, Type 0, BuildingBlock: QUQFOY_clean_sbu_3, # of connection points: 4
#     Node 43, Type 0, BuildingBlock: QUQFOY_clean_sbu_3, # of connection points: 4
#     Node 44, Type 0, BuildingBlock: QUQFOY_clean_sbu_3, # of connection points: 4
#     Node 45, Type 0, BuildingBlock: QUQFOY_clean_sbu_3, # of connection points: 4
#     Node 46, Type 0, BuildingBlock: QUQFOY_clean_sbu_3, # of connection points: 4
#     Node 47, Type 0, BuildingBlock: QUQFOY_clean_sbu_3, # of connection points: 4
#     Node 48, Type 0, BuildingBlock: QUQFOY_clean_sbu_3, # of connection points: 4
#     Node 49, Type 0, BuildingBlock: QUQFOY_clean_sbu_3, # of connection points: 4
#     Node 50, Type 0, BuildingBlock: QUQFOY_clean_sbu_3, # of connection points: 4
#     Node 51, Type 0, BuildingBlock: QUQFOY_clean_sbu_3, # of connection points: 4
#     Node 52, Type 0, BuildingBlock: QUQFOY_clean_sbu_3, # of connection points: 4
#     Node 53, Type 0, BuildingBlock: QUQFOY_clean_sbu_3, # of connection points: 4
#     Node 54, Type 0, BuildingBlock: QUQFOY_clean_sbu_3, # of connection points: 4
#     Node 55, Type 0, BuildingBlock: QUQFOY_clean_sbu_3, # of connection points: 4
#     Node 56, Type 0, BuildingBlock: QUQFOY_clean_sbu_3, # of connection points: 4
#     Node 57, Type 0, BuildingBlock: QUQFOY_clean_sbu_3, # of connection points: 4
#     Node 58, Type 0, BuildingBlock: QUQFOY_clean_sbu_3, # of connection points: 4
#     Node 59, Type 0, BuildingBlock: QUQFOY_clean_sbu_3, # of connection points: 4
#     Node 60, Type 0, BuildingBlock: QUQFOY_clean_sbu_3, # of connection points: 4
#     Node 61, Type 0, BuildingBlock: QUQFOY_clean_sbu_3, # of connection points: 4
#     Node 62, Type 0, BuildingBlock: QUQFOY_clean_sbu_3, # of connection points: 4
#     Node 63, Type 0, BuildingBlock: QUQFOY_clean_sbu_3, # of connection points: 4
#     Node 64, Type 0, BuildingBlock: QUQFOY_clean_sbu_3, # of connection points: 4
#     Node 65, Type 0, BuildingBlock: QUQFOY_clean_sbu_3, # of connection points: 4
#     Node 66, Type 0, BuildingBlock: QUQFOY_clean_sbu_3, # of connection points: 4
#     Node 67, Type 0, BuildingBlock: QUQFOY_clean_sbu_3, # of connection points: 4
#     Node 68, Type 0, BuildingBlock: QUQFOY_clean_sbu_3, # of connection points: 4
#     Node 69, Type 0, BuildingBlock: QUQFOY_clean_sbu_3, # of connection points: 4
#     Node 70, Type 0, BuildingBlock: QUQFOY_clean_sbu_3, # of connection points: 4
#     Node 71, Type 0, BuildingBlock: QUQFOY_clean_sbu_3, # of connection points: 4
#     Node 72, Type 0, BuildingBlock: QUQFOY_clean_sbu_3, # of connection points: 4
#     Node 73, Type 0, BuildingBlock: QUQFOY_clean_sbu_3, # of connection points: 4
#     Node 74, Type 0, BuildingBlock: QUQFOY_clean_sbu_3, # of connection points: 4
#     Node 75, Type 0, BuildingBlock: QUQFOY_clean_sbu_3, # of connection points: 4
#     Node 76, Type 0, BuildingBlock: QUQFOY_clean_sbu_3, # of connection points: 4
#     Node 77, Type 0, BuildingBlock: QUQFOY_clean_sbu_3, # of connection points: 4
#     Node 78, Type 0, BuildingBlock: QUQFOY_clean_sbu_3, # of connection points: 4
#     Node 79, Type 0, BuildingBlock: QUQFOY_clean_sbu_3, # of connection points: 4
#     Node 80, Type 0, BuildingBlock: QUQFOY_clean_sbu_3, # of connection points: 4
#     Node 81, Type 0, BuildingBlock: QUQFOY_clean_sbu_3, # of connection points: 4
#     Node 82, Type 0, BuildingBlock: QUQFOY_clean_sbu_3, # of connection points: 4
#     Node 83, Type 0, BuildingBlock: QUQFOY_clean_sbu_3, # of connection points: 4
#     Node 84, Type 0, BuildingBlock: QUQFOY_clean_sbu_3, # of connection points: 4
#     Node 85, Type 0, BuildingBlock: QUQFOY_clean_sbu_3, # of connection points: 4
#     Node 86, Type 0, BuildingBlock: QUQFOY_clean_sbu_3, # of connection points: 4
#     Node 87, Type 0, BuildingBlock: QUQFOY_clean_sbu_3, # of connection points: 4
#     Node 88, Type 0, BuildingBlock: QUQFOY_clean_sbu_3, # of connection points: 4
#     Node 89, Type 0, BuildingBlock: QUQFOY_clean_sbu_3, # of connection points: 4
#     Node 90, Type 0, BuildingBlock: QUQFOY_clean_sbu_3, # of connection points: 4
#     Node 91, Type 0, BuildingBlock: QUQFOY_clean_sbu_3, # of connection points: 4
#     Node 92, Type 0, BuildingBlock: QUQFOY_clean_sbu_3, # of connection points: 4
#     Node 93, Type 0, BuildingBlock: QUQFOY_clean_sbu_3, # of connection points: 4
#     Node 94, Type 0, BuildingBlock: QUQFOY_clean_sbu_3, # of connection points: 4
#     Node 95, Type 0, BuildingBlock: QUQFOY_clean_sbu_3, # of connection points: 4
#     Edge 96, Type (0, 0), BuildingBlock: ZUJKAS_clean_linker_0, # of connection points: 2
#     Edge 97, Type (0, 0), BuildingBlock: ZUJKAS_clean_linker_0, # of connection points: 2
#     Edge 98, Type (0, 0), BuildingBlock: ZUJKAS_clean_linker_0, # of connection points: 2
#     Edge 99, Type (0, 0), BuildingBlock: ZUJKAS_clean_linker_0, # of connection points: 2
#     Edge 100, Type (0, 0), BuildingBlock: ZUJKAS_clean_linker_0, # of connection points: 2
#     Edge 101, Type (0, 0), BuildingBlock: ZUJKAS_clean_linker_0, # of connection points: 2
#     Edge 102, Type (0, 0), BuildingBlock: ZUJKAS_clean_linker_0, # of connection points: 2
#     Edge 103, Type (0, 0), BuildingBlock: ZUJKAS_clean_linker_0, # of connection points: 2
#     Edge 104, Type (0, 0), BuildingBlock: ZUJKAS_clean_linker_0, # of connection points: 2
#     Edge 105, Type (0, 0), BuildingBlock: ZUJKAS_clean_linker_0, # of connection points: 2
#     Edge 106, Type (0, 0), BuildingBlock: ZUJKAS_clean_linker_0, # of connection points: 2
#     Edge 107, Type (0, 0), BuildingBlock: ZUJKAS_clean_linker_0, # of connection points: 2
#     Edge 108, Type (0, 0), BuildingBlock: ZUJKAS_clean_linker_0, # of connection points: 2
#     Edge 109, Type (0, 0), BuildingBlock: ZUJKAS_clean_linker_0, # of connection points: 2
#     Edge 110, Type (0, 0), BuildingBlock: ZUJKAS_clean_linker_0, # of connection points: 2
#     Edge 111, Type (0, 0), BuildingBlock: ZUJKAS_clean_linker_0, # of connection points: 2
#     Edge 112, Type (0, 0), BuildingBlock: ZUJKAS_clean_linker_0, # of connection points: 2
#     Edge 113, Type (0, 0), BuildingBlock: ZUJKAS_clean_linker_0, # of connection points: 2
#     Edge 114, Type (0, 0), BuildingBlock: ZUJKAS_clean_linker_0, # of connection points: 2
#     Edge 115, Type (0, 0), BuildingBlock: ZUJKAS_clean_linker_0, # of connection points: 2
#     Edge 116, Type (0, 0), BuildingBlock: ZUJKAS_clean_linker_0, # of connection points: 2
#     Edge 117, Type (0, 0), BuildingBlock: ZUJKAS_clean_linker_0, # of connection points: 2
#     Edge 118, Type (0, 0), BuildingBlock: ZUJKAS_clean_linker_0, # of connection points: 2
#     Edge 119, Type (0, 0), BuildingBlock: ZUJKAS_clean_linker_0, # of connection points: 2
#     Edge 120, Type (0, 0), BuildingBlock: ZUJKAS_clean_linker_0, # of connection points: 2
#     Edge 121, Type (0, 0), BuildingBlock: ZUJKAS_clean_linker_0, # of connection points: 2
#     Edge 122, Type (0, 0), BuildingBlock: ZUJKAS_clean_linker_0, # of connection points: 2
#     Edge 123, Type (0, 0), BuildingBlock: ZUJKAS_clean_linker_0, # of connection points: 2
#     Edge 124, Type (0, 0), BuildingBlock: ZUJKAS_clean_linker_0, # of connection points: 2
#     Edge 125, Type (0, 0), BuildingBlock: ZUJKAS_clean_linker_0, # of connection points: 2
#     Edge 126, Type (0, 0), BuildingBlock: ZUJKAS_clean_linker_0, # of connection points: 2
#     Edge 127, Type (0, 0), BuildingBlock: ZUJKAS_clean_linker_0, # of connection points: 2
#     Edge 128, Type (0, 0), BuildingBlock: ZUJKAS_clean_linker_0, # of connection points: 2
#     Edge 129, Type (0, 0), BuildingBlock: ZUJKAS_clean_linker_0, # of connection points: 2
#     Edge 130, Type (0, 0), BuildingBlock: ZUJKAS_clean_linker_0, # of connection points: 2
#     Edge 131, Type (0, 0), BuildingBlock: ZUJKAS_clean_linker_0, # of connection points: 2
#     Edge 132, Type (0, 0), BuildingBlock: ZUJKAS_clean_linker_0, # of connection points: 2
#     Edge 133, Type (0, 0), BuildingBlock: ZUJKAS_clean_linker_0, # of connection points: 2
#     Edge 134, Type (0, 0), BuildingBlock: ZUJKAS_clean_linker_0, # of connection points: 2
#     Edge 135, Type (0, 0), BuildingBlock: ZUJKAS_clean_linker_0, # of connection points: 2
#     Edge 136, Type (0, 0), BuildingBlock: ZUJKAS_clean_linker_0, # of connection points: 2
#     Edge 137, Type (0, 0), BuildingBlock: ZUJKAS_clean_linker_0, # of connection points: 2
#     Edge 138, Type (0, 0), BuildingBlock: ZUJKAS_clean_linker_0, # of connection points: 2
#     Edge 139, Type (0, 0), BuildingBlock: ZUJKAS_clean_linker_0, # of connection points: 2
#     Edge 140, Type (0, 0), BuildingBlock: ZUJKAS_clean_linker_0, # of connection points: 2
#     Edge 141, Type (0, 0), BuildingBlock: ZUJKAS_clean_linker_0, # of connection points: 2
#     Edge 142, Type (0, 0), BuildingBlock: ZUJKAS_clean_linker_0, # of connection points: 2
#     Edge 143, Type (0, 0), BuildingBlock: ZUJKAS_clean_linker_0, # of connection points: 2
#     Edge 144, Type (0, 0), BuildingBlock: ZUJKAS_clean_linker_0, # of connection points: 2
#     Edge 145, Type (0, 0), BuildingBlock: ZUJKAS_clean_linker_0, # of connection points: 2
#     Edge 146, Type (0, 0), BuildingBlock: ZUJKAS_clean_linker_0, # of connection points: 2
#     Edge 147, Type (0, 0), BuildingBlock: ZUJKAS_clean_linker_0, # of connection points: 2
#     Edge 148, Type (0, 0), BuildingBlock: ZUJKAS_clean_linker_0, # of connection points: 2
#     Edge 149, Type (0, 0), BuildingBlock: ZUJKAS_clean_linker_0, # of connection points: 2
#     Edge 150, Type (0, 0), BuildingBlock: ZUJKAS_clean_linker_0, # of connection points: 2
#     Edge 151, Type (0, 0), BuildingBlock: ZUJKAS_clean_linker_0, # of connection points: 2
#     Edge 152, Type (0, 0), BuildingBlock: ZUJKAS_clean_linker_0, # of connection points: 2
#     Edge 153, Type (0, 0), BuildingBlock: ZUJKAS_clean_linker_0, # of connection points: 2
#     Edge 154, Type (0, 0), BuildingBlock: ZUJKAS_clean_linker_0, # of connection points: 2
#     Edge 155, Type (0, 0), BuildingBlock: ZUJKAS_clean_linker_0, # of connection points: 2
#     Edge 156, Type (0, 0), BuildingBlock: ZUJKAS_clean_linker_0, # of connection points: 2
#     Edge 157, Type (0, 0), BuildingBlock: ZUJKAS_clean_linker_0, # of connection points: 2
#     Edge 158, Type (0, 0), BuildingBlock: ZUJKAS_clean_linker_0, # of connection points: 2
#     Edge 159, Type (0, 0), BuildingBlock: ZUJKAS_clean_linker_0, # of connection points: 2
#     Edge 160, Type (0, 0), BuildingBlock: ZUJKAS_clean_linker_0, # of connection points: 2
#     Edge 161, Type (0, 0), BuildingBlock: ZUJKAS_clean_linker_0, # of connection points: 2
#     Edge 162, Type (0, 0), BuildingBlock: ZUJKAS_clean_linker_0, # of connection points: 2
#     Edge 163, Type (0, 0), BuildingBlock: ZUJKAS_clean_linker_0, # of connection points: 2
#     Edge 164, Type (0, 0), BuildingBlock: ZUJKAS_clean_linker_0, # of connection points: 2
#     Edge 165, Type (0, 0), BuildingBlock: ZUJKAS_clean_linker_0, # of connection points: 2
#     Edge 166, Type (0, 0), BuildingBlock: ZUJKAS_clean_linker_0, # of connection points: 2
#     Edge 167, Type (0, 0), BuildingBlock: ZUJKAS_clean_linker_0, # of connection points: 2
#     Edge 168, Type (0, 0), BuildingBlock: ZUJKAS_clean_linker_0, # of connection points: 2
#     Edge 169, Type (0, 0), BuildingBlock: ZUJKAS_clean_linker_0, # of connection points: 2
#     Edge 170, Type (0, 0), BuildingBlock: ZUJKAS_clean_linker_0, # of connection points: 2
#     Edge 171, Type (0, 0), BuildingBlock: ZUJKAS_clean_linker_0, # of connection points: 2
#     Edge 172, Type (0, 0), BuildingBlock: ZUJKAS_clean_linker_0, # of connection points: 2
#     Edge 173, Type (0, 0), BuildingBlock: ZUJKAS_clean_linker_0, # of connection points: 2
#     Edge 174, Type (0, 0), BuildingBlock: ZUJKAS_clean_linker_0, # of connection points: 2
#     Edge 175, Type (0, 0), BuildingBlock: ZUJKAS_clean_linker_0, # of connection points: 2
#     Edge 176, Type (0, 0), BuildingBlock: ZUJKAS_clean_linker_0, # of connection points: 2
#     Edge 177, Type (0, 0), BuildingBlock: ZUJKAS_clean_linker_0, # of connection points: 2
#     Edge 178, Type (0, 0), BuildingBlock: ZUJKAS_clean_linker_0, # of connection points: 2
#     Edge 179, Type (0, 0), BuildingBlock: ZUJKAS_clean_linker_0, # of connection points: 2
#     Edge 180, Type (0, 0), BuildingBlock: ZUJKAS_clean_linker_0, # of connection points: 2
#     Edge 181, Type (0, 0), BuildingBlock: ZUJKAS_clean_linker_0, # of connection points: 2
#     Edge 182, Type (0, 0), BuildingBlock: ZUJKAS_clean_linker_0, # of connection points: 2
#     Edge 183, Type (0, 0), BuildingBlock: ZUJKAS_clean_linker_0, # of connection points: 2
#     Edge 184, Type (0, 0), BuildingBlock: ZUJKAS_clean_linker_0, # of connection points: 2
#     Edge 185, Type (0, 0), BuildingBlock: ZUJKAS_clean_linker_0, # of connection points: 2
#     Edge 186, Type (0, 0), BuildingBlock: ZUJKAS_clean_linker_0, # of connection points: 2
#     Edge 187, Type (0, 0), BuildingBlock: ZUJKAS_clean_linker_0, # of connection points: 2
#     Edge 188, Type (0, 0), BuildingBlock: ZUJKAS_clean_linker_0, # of connection points: 2
#     Edge 189, Type (0, 0), BuildingBlock: ZUJKAS_clean_linker_0, # of connection points: 2
#     Edge 190, Type (0, 0), BuildingBlock: ZUJKAS_clean_linker_0, # of connection points: 2
#     Edge 191, Type (0, 0), BuildingBlock: ZUJKAS_clean_linker_0, # of connection points: 2
#     Edge 192, Type (0, 0), BuildingBlock: ZUJKAS_clean_linker_0, # of connection points: 2
#     Edge 193, Type (0, 0), BuildingBlock: ZUJKAS_clean_linker_0, # of connection points: 2
#     Edge 194, Type (0, 0), BuildingBlock: ZUJKAS_clean_linker_0, # of connection points: 2
#     Edge 195, Type (0, 0), BuildingBlock: ZUJKAS_clean_linker_0, # of connection points: 2
#     Edge 196, Type (0, 0), BuildingBlock: ZUJKAS_clean_linker_0, # of connection points: 2
#     Edge 197, Type (0, 0), BuildingBlock: ZUJKAS_clean_linker_0, # of connection points: 2
#     Edge 198, Type (0, 0), BuildingBlock: ZUJKAS_clean_linker_0, # of connection points: 2
#     Edge 199, Type (0, 0), BuildingBlock: ZUJKAS_clean_linker_0, # of connection points: 2
#     Edge 200, Type (0, 0), BuildingBlock: ZUJKAS_clean_linker_0, # of connection points: 2
#     Edge 201, Type (0, 0), BuildingBlock: ZUJKAS_clean_linker_0, # of connection points: 2
#     Edge 202, Type (0, 0), BuildingBlock: ZUJKAS_clean_linker_0, # of connection points: 2
#     Edge 203, Type (0, 0), BuildingBlock: ZUJKAS_clean_linker_0, # of connection points: 2
#     Edge 204, Type (0, 0), BuildingBlock: ZUJKAS_clean_linker_0, # of connection points: 2
#     Edge 205, Type (0, 0), BuildingBlock: ZUJKAS_clean_linker_0, # of connection points: 2
#     Edge 206, Type (0, 0), BuildingBlock: ZUJKAS_clean_linker_0, # of connection points: 2
#     Edge 207, Type (0, 0), BuildingBlock: ZUJKAS_clean_linker_0, # of connection points: 2
#     Edge 208, Type (0, 0), BuildingBlock: ZUJKAS_clean_linker_0, # of connection points: 2
#     Edge 209, Type (0, 0), BuildingBlock: ZUJKAS_clean_linker_0, # of connection points: 2
#     Edge 210, Type (0, 0), BuildingBlock: ZUJKAS_clean_linker_0, # of connection points: 2
#     Edge 211, Type (0, 0), BuildingBlock: ZUJKAS_clean_linker_0, # of connection points: 2
#     Edge 212, Type (0, 0), BuildingBlock: ZUJKAS_clean_linker_0, # of connection points: 2
#     Edge 213, Type (0, 0), BuildingBlock: ZUJKAS_clean_linker_0, # of connection points: 2
#     Edge 214, Type (0, 0), BuildingBlock: ZUJKAS_clean_linker_0, # of connection points: 2
#     Edge 215, Type (0, 0), BuildingBlock: ZUJKAS_clean_linker_0, # of connection points: 2
#     Edge 216, Type (0, 0), BuildingBlock: ZUJKAS_clean_linker_0, # of connection points: 2
#     Edge 217, Type (0, 0), BuildingBlock: ZUJKAS_clean_linker_0, # of connection points: 2
#     Edge 218, Type (0, 0), BuildingBlock: ZUJKAS_clean_linker_0, # of connection points: 2
#     Edge 219, Type (0, 0), BuildingBlock: ZUJKAS_clean_linker_0, # of connection points: 2
#     Edge 220, Type (0, 0), BuildingBlock: ZUJKAS_clean_linker_0, # of connection points: 2
#     Edge 221, Type (0, 0), BuildingBlock: ZUJKAS_clean_linker_0, # of connection points: 2
#     Edge 222, Type (0, 0), BuildingBlock: ZUJKAS_clean_linker_0, # of connection points: 2
#     Edge 223, Type (0, 0), BuildingBlock: ZUJKAS_clean_linker_0, # of connection points: 2
#     Edge 224, Type (0, 0), BuildingBlock: ZUJKAS_clean_linker_0, # of connection points: 2
#     Edge 225, Type (0, 0), BuildingBlock: ZUJKAS_clean_linker_0, # of connection points: 2
#     Edge 226, Type (0, 0), BuildingBlock: ZUJKAS_clean_linker_0, # of connection points: 2
#     Edge 227, Type (0, 0), BuildingBlock: ZUJKAS_clean_linker_0, # of connection points: 2
#     Edge 228, Type (0, 0), BuildingBlock: ZUJKAS_clean_linker_0, # of connection points: 2
#     Edge 229, Type (0, 0), BuildingBlock: ZUJKAS_clean_linker_0, # of connection points: 2
#     Edge 230, Type (0, 0), BuildingBlock: ZUJKAS_clean_linker_0, # of connection points: 2
#     Edge 231, Type (0, 0), BuildingBlock: ZUJKAS_clean_linker_0, # of connection points: 2
#     Edge 232, Type (0, 0), BuildingBlock: ZUJKAS_clean_linker_0, # of connection points: 2
#     Edge 233, Type (0, 0), BuildingBlock: ZUJKAS_clean_linker_0, # of connection points: 2
#     Edge 234, Type (0, 0), BuildingBlock: ZUJKAS_clean_linker_0, # of connection points: 2
#     Edge 235, Type (0, 0), BuildingBlock: ZUJKAS_clean_linker_0, # of connection points: 2
#     Edge 236, Type (0, 0), BuildingBlock: ZUJKAS_clean_linker_0, # of connection points: 2
#     Edge 237, Type (0, 0), BuildingBlock: ZUJKAS_clean_linker_0, # of connection points: 2
#     Edge 238, Type (0, 0), BuildingBlock: ZUJKAS_clean_linker_0, # of connection points: 2
#     Edge 239, Type (0, 0), BuildingBlock: ZUJKAS_clean_linker_0, # of connection points: 2
#     Edge 240, Type (0, 0), BuildingBlock: ZUJKAS_clean_linker_0, # of connection points: 2
#     Edge 241, Type (0, 0), BuildingBlock: ZUJKAS_clean_linker_0, # of connection points: 2
#     Edge 242, Type (0, 0), BuildingBlock: ZUJKAS_clean_linker_0, # of connection points: 2
#     Edge 243, Type (0, 0), BuildingBlock: ZUJKAS_clean_linker_0, # of connection points: 2
#     Edge 244, Type (0, 0), BuildingBlock: ZUJKAS_clean_linker_0, # of connection points: 2
#     Edge 245, Type (0, 0), BuildingBlock: ZUJKAS_clean_linker_0, # of connection points: 2
#     Edge 246, Type (0, 0), BuildingBlock: ZUJKAS_clean_linker_0, # of connection points: 2
#     Edge 247, Type (0, 0), BuildingBlock: ZUJKAS_clean_linker_0, # of connection points: 2
#     Edge 248, Type (0, 0), BuildingBlock: ZUJKAS_clean_linker_0, # of connection points: 2
#     Edge 249, Type (0, 0), BuildingBlock: ZUJKAS_clean_linker_0, # of connection points: 2
#     Edge 250, Type (0, 0), BuildingBlock: ZUJKAS_clean_linker_0, # of connection points: 2
#     Edge 251, Type (0, 0), BuildingBlock: ZUJKAS_clean_linker_0, # of connection points: 2
#     Edge 252, Type (0, 0), BuildingBlock: ZUJKAS_clean_linker_0, # of connection points: 2
#     Edge 253, Type (0, 0), BuildingBlock: ZUJKAS_clean_linker_0, # of connection points: 2
#     Edge 254, Type (0, 0), BuildingBlock: ZUJKAS_clean_linker_0, # of connection points: 2
#     Edge 255, Type (0, 0), BuildingBlock: ZUJKAS_clean_linker_0, # of connection points: 2
#     Edge 256, Type (0, 0), BuildingBlock: ZUJKAS_clean_linker_0, # of connection points: 2
#     Edge 257, Type (0, 0), BuildingBlock: ZUJKAS_clean_linker_0, # of connection points: 2
#     Edge 258, Type (0, 0), BuildingBlock: ZUJKAS_clean_linker_0, # of connection points: 2
#     Edge 259, Type (0, 0), BuildingBlock: ZUJKAS_clean_linker_0, # of connection points: 2
#     Edge 260, Type (0, 0), BuildingBlock: ZUJKAS_clean_linker_0, # of connection points: 2
#     Edge 261, Type (0, 0), BuildingBlock: ZUJKAS_clean_linker_0, # of connection points: 2
#     Edge 262, Type (0, 0), BuildingBlock: ZUJKAS_clean_linker_0, # of connection points: 2
#     Edge 263, Type (0, 0), BuildingBlock: ZUJKAS_clean_linker_0, # of connection points: 2
#     Edge 264, Type (0, 0), BuildingBlock: ZUJKAS_clean_linker_0, # of connection points: 2
#     Edge 265, Type (0, 0), BuildingBlock: ZUJKAS_clean_linker_0, # of connection points: 2
#     Edge 266, Type (0, 0), BuildingBlock: ZUJKAS_clean_linker_0, # of connection points: 2
#     Edge 267, Type (0, 0), BuildingBlock: ZUJKAS_clean_linker_0, # of connection points: 2
#     Edge 268, Type (0, 0), BuildingBlock: ZUJKAS_clean_linker_0, # of connection points: 2
#     Edge 269, Type (0, 0), BuildingBlock: ZUJKAS_clean_linker_0, # of connection points: 2
#     Edge 270, Type (0, 0), BuildingBlock: ZUJKAS_clean_linker_0, # of connection points: 2
#     Edge 271, Type (0, 0), BuildingBlock: ZUJKAS_clean_linker_0, # of connection points: 2
#     Edge 272, Type (0, 0), BuildingBlock: ZUJKAS_clean_linker_0, # of connection points: 2
#     Edge 273, Type (0, 0), BuildingBlock: ZUJKAS_clean_linker_0, # of connection points: 2
#     Edge 274, Type (0, 0), BuildingBlock: ZUJKAS_clean_linker_0, # of connection points: 2
#     Edge 275, Type (0, 0), BuildingBlock: ZUJKAS_clean_linker_0, # of connection points: 2
#     Edge 276, Type (0, 0), BuildingBlock: ZUJKAS_clean_linker_0, # of connection points: 2
#     Edge 277, Type (0, 0), BuildingBlock: ZUJKAS_clean_linker_0, # of connection points: 2
#     Edge 278, Type (0, 0), BuildingBlock: ZUJKAS_clean_linker_0, # of connection points: 2
#     Edge 279, Type (0, 0), BuildingBlock: ZUJKAS_clean_linker_0, # of connection points: 2
#     Edge 280, Type (0, 0), BuildingBlock: ZUJKAS_clean_linker_0, # of connection points: 2
#     Edge 281, Type (0, 0), BuildingBlock: ZUJKAS_clean_linker_0, # of connection points: 2
#     Edge 282, Type (0, 0), BuildingBlock: ZUJKAS_clean_linker_0, # of connection points: 2
#     Edge 283, Type (0, 0), BuildingBlock: ZUJKAS_clean_linker_0, # of connection points: 2
#     Edge 284, Type (0, 0), BuildingBlock: ZUJKAS_clean_linker_0, # of connection points: 2
#     Edge 285, Type (0, 0), BuildingBlock: ZUJKAS_clean_linker_0, # of connection points: 2
#     Edge 286, Type (0, 0), BuildingBlock: ZUJKAS_clean_linker_0, # of connection points: 2
#     Edge 287, Type (0, 0), BuildingBlock: ZUJKAS_clean_linker_0, # of connection points: 2
# Relax obj value: 0.330
# Max RMSD: 0.267
# Mean RMSD: 0.267
data_MOF--net-hal--node1-QUQFOY_clean_sbu_3--edge1-ZUJKAS_clean_linker_0
_symmetry_space_group_name_H-M    P1
_symmetry_Int_Tables_number       1
_symmetry_cell_setting            triclinic
loop_
_symmetry_equiv_pos_as_xyz
'x, y, z'
_cell_length_a     119.38275
_cell_length_b     119.29684
_cell_length_c     119.32348
_cell_angle_alpha  90.052078
_cell_angle_beta   90.022493
_cell_angle_gamma 89.978527
loop_
_atom_site_label
_atom_site_type_symbol
_atom_site_fract_x
_atom_site_fract_y
_atom_site_fract_z
_atom_type_partial_charge
C0 C 0.08611 0.18987 0.30337 0.0
O1 O 0.08949 0.1928 0.29371 0.0
Cd2 Cd 0.08007 0.19003 0.27627 0.0
O3 O 0.07682 0.18469 0.3046 0.0
Cd4 Cd 0.06162 0.17789 0.2919 0.0
C5 C 0.07944 0.16156 0.27627 0.0
O6 O 0.06145 0.19512 0.28155 0.0
O7 O 0.04956 0.18308 0.27547 0.0
O8 O 0.04723 0.1793 0.30656 0.0
C9 C 0.05361 0.19287 0.27483 0.0
O10 O 0.08336 0.1703 0.27159 0.0
C11 C 0.04392 0.16924 0.30533 0.0
O12 O 0.07204 0.16239 0.28387 0.0
O13 O 0.04911 0.1633 0.29819 0.0
C14 C 0.77696 0.08205 0.30714 0.0
O15 O 0.77341 0.08664 0.29822 0.0
Cd16 Cd 0.77633 0.07986 0.27966 0.0
O17 O 0.78264 0.07299 0.30671 0.0
Cd18 Cd 0.78937 0.06036 0.2914 0.0
C19 C 0.80475 0.08106 0.27919 0.0
O20 O 0.77169 0.06034 0.2814 0.0
O21 O 0.78516 0.05204 0.27277 0.0
O22 O 0.78826 0.04396 0.30377 0.0
C23 C 0.77479 0.05424 0.27331 0.0
O24 O 0.79572 0.08503 0.27514 0.0
C25 C 0.79814 0.04062 0.30159 0.0
O26 O 0.80449 0.07259 0.28563 0.0
O27 O 0.8039 0.04665 0.29501 0.0
C28 C 0.88587 0.77659 0.30883 0.0
O29 O 0.88269 0.77237 0.29959 0.0
Cd30 Cd 0.89207 0.77445 0.28214 0.0
O31 O 0.89487 0.78236 0.30939 0.0
Cd32 Cd 0.9098 0.78828 0.29597 0.0
C33 C 0.89123 0.80297 0.28013 0.0
O34 O 0.91117 0.77039 0.28677 0.0
O35 O 0.91993 0.7836 0.27824 0.0
O36 O 0.92519 0.78636 0.3093 0.0
C37 C 0.91786 0.77321 0.27908 0.0
O38 O 0.88769 0.79367 0.27627 0.0
C39 C 0.92819 0.79656 0.30876 0.0
O40 O 0.89885 0.80318 0.28756 0.0
O41 O 0.92239 0.80298 0.30258 0.0
C42 C 0.1881 0.88617 0.30465 0.0
O43 O 0.19135 0.88165 0.29557 0.0
Cd44 Cd 0.1898 0.89009 0.27753 0.0
O45 O 0.18346 0.8958 0.30459 0.0
Cd46 Cd 0.17837 0.91003 0.2902 0.0
C47 C 0.16141 0.89221 0.27585 0.0
O48 O 0.19642 0.9088 0.28101 0.0
O49 O 0.18443 0.91931 0.2726 0.0
O50 O 0.18088 0.92413 0.3049 0.0
C51 C 0.19443 0.91583 0.27335 0.0
O52 O 0.17019 0.88759 0.27196 0.0
C53 C 0.17203 0.92952 0.30247 0.0
O54 O 0.16216 0.9001 0.28297 0.0
O55 O 0.16611 0.92568 0.29451 0.0
C56 C 0.07734 0.78112 0.66056 0.0
O57 O 0.08098 0.77537 0.66874 0.0
Cd58 Cd 0.07402 0.77673 0.68728 0.0
O59 O 0.06925 0.788 0.66188 0.0
Cd60 Cd 0.0563 0.79398 0.67727 0.0
C61 C 0.07816 0.80481 0.69187 0.0
O62 O 0.05425 0.77509 0.68391 0.0
O63 O 0.04632 0.78732 0.69444 0.0
O64 O 0.04266 0.7964 0.6622 0.0
C65 C 0.04812 0.77707 0.69229 0.0
O66 O 0.08142 0.79483 0.69375 0.0
C67 C 0.03861 0.80546 0.66605 0.0
O68 O 0.06945 0.8067 0.68605 0.0
O69 O 0.04284 0.80917 0.67509 0.0
C70 C 0.19153 0.08478 0.6639 0.0
O71 O 0.19575 0.08851 0.67294 0.0
Cd72 Cd 0.19397 0.07972 0.69082 0.0
O73 O 0.18578 0.07576 0.66388 0.0
Cd74 Cd 0.17955 0.06168 0.67797 0.0
C75 C 0.16561 0.08133 0.69325 0.0
O76 O 0.19783 0.06038 0.6867 0.0
O77 O 0.18477 0.05144 0.69528 0.0
O78 O 0.17944 0.04769 0.66291 0.0
C79 C 0.19511 0.05363 0.69439 0.0
O80 O 0.17501 0.08458 0.69711 0.0
C81 C 0.17005 0.04351 0.6657 0.0
O82 O 0.16517 0.07364 0.68588 0.0
O83 O 0.1651 0.04795 0.674 0.0
C84 C 0.88853 0.1882 0.66107 0.0
O85 O 0.88421 0.19199 0.67004 0.0
Cd86 Cd 0.89171 0.18971 0.68839 0.0
O87 O 0.89751 0.18238 0.66136 0.0
Cd88 Cd 0.91051 0.17559 0.67626 0.0
C89 C 0.89023 0.16141 0.69062 0.0
O90 O 0.91115 0.19367 0.68508 0.0
O91 O 0.92016 0.18102 0.69413 0.0
O92 O 0.92606 0.17557 0.66286 0.0
C93 C 0.9176 0.19128 0.69309 0.0
O94 O 0.88651 0.17071 0.69428 0.0
C95 C 0.92902 0.16556 0.665 0.0
O96 O 0.89836 0.16119 0.68376 0.0
O97 O 0.92327 0.1603 0.67221 0.0
C98 C 0.77677 0.88503 0.66369 0.0
O99 O 0.77295 0.88131 0.6729 0.0
Cd100 Cd 0.77461 0.89032 0.69072 0.0
O101 O 0.78226 0.89421 0.66337 0.0
Cd102 Cd 0.78857 0.9085 0.6772 0.0
C103 C 0.80287 0.88964 0.69338 0.0
O104 O 0.77052 0.90958 0.68629 0.0
O105 O 0.78344 0.91937 0.69418 0.0
O106 O 0.78871 0.92358 0.66319 0.0
C107 C 0.77318 0.91669 0.69368 0.0
O108 O 0.79364 0.8859 0.69719 0.0
C109 C 0.79891 0.92613 0.6649 0.0
O110 O 0.80294 0.89725 0.68595 0.0
O111 O 0.80417 0.92035 0.6721 0.0
C112 C 0.30987 0.08024 0.19072 0.0
O113 O 0.30041 0.08345 0.19438 0.0
Cd114 Cd 0.28331 0.07381 0.19075 0.0
O115 O 0.31068 0.0714 0.18474 0.0
Cd116 Cd 0.298 0.05664 0.17721 0.0
C117 C 0.2829 0.07539 0.16214 0.0
O118 O 0.28784 0.05452 0.19436 0.0
O119 O 0.27999 0.04645 0.18023 0.0
O120 O 0.31168 0.04178 0.18011 0.0
C121 C 0.28038 0.04793 0.19076 0.0
O122 O 0.27851 0.07861 0.17132 0.0
C123 C 0.3124 0.03902 0.16987 0.0
O124 O 0.29046 0.06788 0.1621 0.0
O125 O 0.3065 0.04455 0.16296 0.0
C126 C 0.89132 0.31133 0.19068 0.0
O127 O 0.88744 0.30286 0.19582 0.0
Cd128 Cd 0.89376 0.2841 0.19383 0.0
O129 O 0.89948 0.31028 0.18382 0.0
Cd130 Cd 0.91173 0.29462 0.17703 0.0
C131 C 0.88953 0.28072 0.16573 0.0
O132 O 0.91367 0.28627 0.1953 0.0
O133 O 0.92083 0.27647 0.18203 0.0
O134 O 0.92779 0.30726 0.17527 0.0
C135 C 0.91929 0.27777 0.19246 0.0
O136 O 0.88627 0.27827 0.17558 0.0
C137 C 0.92996 0.3045 0.1652 0.0
O138 O 0.89821 0.28668 0.16419 0.0
O139 O 0.92349 0.2974 0.16066 0.0
C140 C 0.66208 0.89149 0.19193 0.0
O141 O 0.67128 0.889 0.19665 0.0
Cd142 Cd 0.68845 0.89853 0.19332 0.0
O143 O 0.66147 0.8998 0.18522 0.0
Cd144 Cd 0.67427 0.91469 0.17809 0.0
C145 C 0.69009 0.89517 0.1649 0.0
O146 O 0.68359 0.91795 0.19561 0.0
O147 O 0.69219 0.92503 0.18149 0.0
O148 O 0.65965 0.92907 0.17857 0.0
C149 C 0.6914 0.92412 0.19205 0.0
O150 O 0.69416 0.89248 0.1744 0.0
C151 C 0.66056 0.93161 0.16827 0.0
O152 O 0.68253 0.90262 0.16418 0.0
O153 O 0.66774 0.92619 0.1626 0.0
C154 C 0.07674 0.65552 0.1932 0.0
O155 O 0.07926 0.6634 0.19988 0.0
Cd156 Cd 0.07293 0.68206 0.19733 0.0
O157 O 0.06955 0.65696 0.18541 0.0
Cd158 Cd 0.05604 0.67197 0.17952 0.0
C159 C 0.07801 0.68605 0.16907 0.0
O160 O 0.05302 0.68025 0.19768 0.0
O161 O 0.04802 0.69069 0.18385 0.0
O162 O 0.03961 0.65993 0.17935 0.0
C163 C 0.04821 0.68909 0.19436 0.0
O164 O 0.08106 0.68775 0.17917 0.0
C165 C 0.03749 0.66121 0.169 0.0
O166 O 0.06919 0.68052 0.16685 0.0
O167 O 0.04421 0.66725 0.16341 0.0
C168 C 0.30727 0.88593 0.7796 0.0
O169 O 0.29823 0.88162 0.77598 0.0
Cd170 Cd 0.28016 0.89005 0.7773 0.0
O171 O 0.30718 0.89538 0.78463 0.0
Cd172 Cd 0.29285 0.90959 0.79004 0.0
C173 C 0.2776 0.89114 0.80565 0.0
O174 O 0.28428 0.90894 0.7717 0.0
O175 O 0.276 0.91993 0.78331 0.0
O176 O 0.30815 0.92335 0.78964 0.0
C177 C 0.27675 0.91617 0.77341 0.0
O178 O 0.27399 0.88677 0.79662 0.0
C179 C 0.30504 0.92825 0.79857 0.0
O180 O 0.28473 0.89903 0.80536 0.0
O181 O 0.29642 0.92438 0.80342 0.0
C182 C 0.0768 0.31199 0.77501 0.0
O183 O 0.08192 0.30413 0.76998 0.0
Cd184 Cd 0.07853 0.28473 0.77291 0.0
O185 O 0.06912 0.30982 0.78213 0.0
Cd186 Cd 0.0595 0.29285 0.78968 0.0
C187 C 0.0837 0.28302 0.80108 0.0
O188 O 0.05845 0.28421 0.7714 0.0
O189 O 0.05226 0.27394 0.78485 0.0
O190 O 0.04287 0.30465 0.7911 0.0
C191 C 0.05357 0.27531 0.77441 0.0
O192 O 0.08717 0.28092 0.79121 0.0
C193 C 0.04035 0.30155 0.80096 0.0
O194 O 0.07414 0.28742 0.80267 0.0
O195 O 0.04679 0.29445 0.80556 0.0
C196 C 0.65725 0.08208 0.77565 0.0
O197 O 0.66559 0.08675 0.77097 0.0
Cd198 Cd 0.68458 0.08138 0.77378 0.0
O199 O 0.65867 0.07378 0.78224 0.0
Cd200 Cd 0.67466 0.06225 0.7892 0.0
C201 C 0.68695 0.08446 0.80217 0.0
O202 O 0.68403 0.06139 0.77126 0.0
O203 O 0.69339 0.05439 0.78503 0.0
O204 O 0.66367 0.04507 0.78847 0.0
C205 C 0.69251 0.05596 0.77456 0.0
O206 O 0.68932 0.08839 0.79255 0.0
C207 C 0.66451 0.04292 0.79885 0.0
O208 O 0.6816 0.07531 0.80316 0.0
O209 O 0.66993 0.04987 0.80481 0.0
C210 C 0.88547 0.66212 0.77856 0.0
O211 O 0.88048 0.67088 0.77512 0.0
Cd212 Cd 0.88697 0.68966 0.77745 0.0
O213 O 0.89474 0.66286 0.78382 0.0
Cd214 Cd 0.90724 0.67845 0.78988 0.0
C215 C 0.88733 0.69132 0.80586 0.0
O216 O 0.90633 0.68831 0.77217 0.0
O217 O 0.91508 0.69713 0.78527 0.0
O218 O 0.92448 0.66768 0.78754 0.0
C219 C 0.91244 0.6965 0.77499 0.0
O220 O 0.88274 0.69484 0.79691 0.0
C221 C 0.92739 0.6684 0.79776 0.0
O222 O 0.89587 0.68498 0.80539 0.0
O223 O 0.92077 0.67349 0.80432 0.0
C224 C 0.19139 0.30796 0.08288 0.0
O225 O 0.1971 0.29954 0.08598 0.0
Cd226 Cd 0.19427 0.2811 0.07887 0.0
O227 O 0.18419 0.30717 0.07501 0.0
Cd228 Cd 0.17792 0.29261 0.06132 0.0
C229 C 0.16591 0.27837 0.08274 0.0
O230 O 0.19604 0.28402 0.0591 0.0
O231 O 0.18262 0.27468 0.0516 0.0
O232 O 0.17727 0.30636 0.04615 0.0
C233 C 0.19307 0.27579 0.05314 0.0
O234 O 0.17567 0.27547 0.08593 0.0
C235 C 0.16724 0.30413 0.04336 0.0
O236 O 0.16465 0.28467 0.07426 0.0
O237 O 0.16219 0.29673 0.04909 0.0
C238 C 0.19217 0.66075 0.89329 0.0
O239 O 0.19709 0.66965 0.89017 0.0
Cd240 Cd 0.19474 0.68761 0.89843 0.0
O241 O 0.18531 0.66091 0.90149 0.0
Cd242 Cd 0.17794 0.67542 0.91466 0.0
C243 C 0.16689 0.69084 0.89338 0.0
O244 O 0.19598 0.68361 0.91816 0.0
O245 O 0.18232 0.69349 0.92439 0.0
O246 O 0.17585 0.66189 0.92997 0.0
C247 C 0.19281 0.69192 0.92388 0.0
O248 O 0.17671 0.69427 0.891 0.0
C249 C 0.16558 0.66409 0.93167 0.0
O250 O 0.1654 0.68376 0.90117 0.0
O251 O 0.16113 0.67141 0.92538 0.0
C252 C 0.31313 0.19101 0.8898 0.0
O253 O 0.30539 0.19748 0.88643 0.0
Cd254 Cd 0.28642 0.19579 0.8922 0.0
O255 O 0.31132 0.18363 0.89731 0.0
Cd256 Cd 0.29552 0.17829 0.91003 0.0
C257 C 0.2813 0.16778 0.88786 0.0
O258 O 0.28806 0.19701 0.91219 0.0
O259 O 0.2776 0.18405 0.91898 0.0
O260 O 0.30827 0.17651 0.92596 0.0
C261 C 0.27937 0.19444 0.91764 0.0
O262 O 0.27995 0.17777 0.88436 0.0
C263 C 0.30542 0.16652 0.92829 0.0
O264 O 0.28666 0.16581 0.89683 0.0
O265 O 0.29813 0.16201 0.922 0.0
C266 C 0.77876 0.30751 0.89041 0.0
O267 O 0.77464 0.29892 0.88565 0.0
Cd268 Cd 0.77703 0.28014 0.89215 0.0
O269 O 0.78461 0.30652 0.8993 0.0
Cd270 Cd 0.79096 0.29108 0.91175 0.0
C271 C 0.80549 0.2784 0.89072 0.0
O272 O 0.77295 0.28182 0.91181 0.0
O273 O 0.78605 0.27273 0.92024 0.0
O274 O 0.78992 0.30408 0.92754 0.0
C275 C 0.77573 0.27358 0.91786 0.0
O276 O 0.7962 0.27498 0.88674 0.0
C277 C 0.79985 0.30221 0.9309 0.0
O278 O 0.80568 0.28463 0.89936 0.0
O279 O 0.80557 0.2952 0.92532 0.0
C280 C 0.66511 0.77967 0.88627 0.0
O281 O 0.67423 0.77592 0.88225 0.0
Cd282 Cd 0.69221 0.77742 0.89079 0.0
O283 O 0.66501 0.78492 0.89561 0.0
Cd284 Cd 0.67943 0.7906 0.90969 0.0
C285 C 0.69433 0.80579 0.89066 0.0
O286 O 0.6883 0.7723 0.90988 0.0
O287 O 0.6968 0.78487 0.91958 0.0
O288 O 0.66475 0.79043 0.92415 0.0
C289 C 0.69596 0.77466 0.9168 0.0
O290 O 0.69826 0.79666 0.88677 0.0
C291 C 0.66795 0.79956 0.92863 0.0
O292 O 0.6871 0.80565 0.89846 0.0
O293 O 0.6762 0.80449 0.92411 0.0
C294 C 0.77739 0.66325 0.08522 0.0
O295 O 0.77317 0.67262 0.08802 0.0
Cd296 Cd 0.77424 0.68948 0.07735 0.0
O297 O 0.78284 0.66222 0.07607 0.0
Cd298 Cd 0.78846 0.67478 0.06035 0.0
C299 C 0.80242 0.69296 0.07754 0.0
O300 O 0.77026 0.68326 0.05857 0.0
O301 O 0.78292 0.69105 0.04845 0.0
O302 O 0.78866 0.65984 0.04612 0.0
C303 C 0.77267 0.69038 0.05113 0.0
O304 O 0.79311 0.69678 0.08104 0.0
C305 C 0.79889 0.66134 0.04357 0.0
O306 O 0.80269 0.68491 0.07057 0.0
O307 O 0.80414 0.66883 0.04899 0.0
C308 C 0.30414 0.77882 0.0862 0.0
O309 O 0.29496 0.7765 0.09105 0.0
Cd310 Cd 0.27678 0.77962 0.08317 0.0
O311 O 0.30415 0.78338 0.07653 0.0
Cd312 Cd 0.28967 0.78993 0.06308 0.0
C313 C 0.27691 0.80792 0.08123 0.0
O314 O 0.27855 0.77298 0.06418 0.0
O315 O 0.27113 0.78628 0.05447 0.0
O316 O 0.30121 0.78605 0.04658 0.0
C317 C 0.27094 0.77609 0.05749 0.0
O318 O 0.27241 0.79952 0.08599 0.0
C319 C 0.30144 0.79617 0.0433 0.0
O320 O 0.28379 0.8065 0.07324 0.0
O321 O 0.29643 0.80333 0.04934 0.0
C322 C 0.66328 0.19135 0.08547 0.0
O323 O 0.67187 0.19609 0.08961 0.0
Cd324 Cd 0.6903 0.19399 0.08228 0.0
O325 O 0.66413 0.18513 0.0768 0.0
Cd326 Cd 0.679 0.17885 0.06354 0.0
C327 C 0.69321 0.16553 0.08423 0.0
O328 O 0.6874 0.19729 0.06257 0.0
O329 O 0.69636 0.18437 0.05372 0.0
O330 O 0.66397 0.17835 0.04962 0.0
C331 C 0.69533 0.19468 0.05606 0.0
O332 O 0.6959 0.17507 0.08817 0.0
C333 C 0.66716 0.16921 0.04519 0.0
O334 O 0.68701 0.16472 0.07563 0.0
O335 O 0.67576 0.16457 0.04939 0.0
C336 C 0.8901 0.81188 0.69317 0.0
O337 O 0.887 0.80275 0.69767 0.0
Cd338 Cd 0.89538 0.78496 0.69439 0.0
O339 O 0.89832 0.81206 0.68633 0.0
Cd340 Cd 0.91171 0.79807 0.6784 0.0
C341 C 0.89081 0.78318 0.66621 0.0
O342 O 0.91501 0.78893 0.69603 0.0
O343 O 0.92125 0.77974 0.68185 0.0
O344 O 0.92679 0.8119 0.67801 0.0
C345 C 0.92076 0.78082 0.69241 0.0
O346 O 0.88854 0.77916 0.67583 0.0
C347 C 0.92921 0.81034 0.66777 0.0
O348 O 0.89841 0.79055 0.6651 0.0
O349 O 0.92333 0.80324 0.66246 0.0
C350 C 0.15711 0.89226 0.6916 0.0
O351 O 0.1656 0.88931 0.69728 0.0
Cd352 Cd 0.18403 0.89621 0.69433 0.0
O353 O 0.15781 0.89992 0.68417 0.0
Cd354 Cd 0.17263 0.91326 0.67755 0.0
C355 C 0.18695 0.89164 0.66606 0.0
O356 O 0.18144 0.91604 0.69552 0.0
O357 O 0.19116 0.92203 0.68166 0.0
O358 O 0.15965 0.92912 0.67668 0.0
C359 C 0.18998 0.92129 0.69219 0.0
O360 O 0.18989 0.88882 0.67592 0.0
C361 C 0.16201 0.93166 0.66662 0.0
O362 O 0.18044 0.89993 0.66452 0.0
O363 O 0.16898 0.92539 0.6616 0.0
C364 C 0.07928 0.16183 0.69107 0.0
O365 O 0.08182 0.17092 0.69599 0.0
Cd366 Cd 0.07329 0.18846 0.69239 0.0
O367 O 0.07141 0.16156 0.6838 0.0
Cd368 Cd 0.05749 0.17526 0.67598 0.0
C369 C 0.07848 0.19004 0.66416 0.0
O370 O 0.05382 0.18378 0.69384 0.0
O371 O 0.04755 0.1933 0.67994 0.0
O372 O 0.044 0.15987 0.67493 0.0
C373 C 0.04793 0.19188 0.69046 0.0
O374 O 0.08067 0.19387 0.67389 0.0
C375 C 0.04013 0.16269 0.66543 0.0
O376 O 0.07075 0.18286 0.66278 0.0
O377 O 0.04454 0.17116 0.66077 0.0
C378 C 0.80863 0.07711 0.6902 0.0
O379 O 0.7997 0.08064 0.69479 0.0
Cd380 Cd 0.78172 0.07252 0.69239 0.0
O381 O 0.80846 0.06854 0.68378 0.0
Cd382 Cd 0.79399 0.055 0.67691 0.0
C383 C 0.77971 0.07591 0.66405 0.0
O384 O 0.78556 0.05294 0.69509 0.0
O385 O 0.77586 0.04578 0.68174 0.0
O386 O 0.80867 0.04068 0.67601 0.0
C387 C 0.77731 0.04701 0.69218 0.0
O388 O 0.77601 0.07884 0.67362 0.0
C389 C 0.80552 0.03679 0.66661 0.0
O390 O 0.78665 0.06788 0.66317 0.0
O391 O 0.79718 0.04151 0.66202 0.0
C392 C 0.8891 0.16316 0.28323 0.0
O393 O 0.88516 0.17213 0.27905 0.0
Cd394 Cd 0.89361 0.19014 0.27971 0.0
O395 O 0.89842 0.16324 0.28851 0.0
Cd396 Cd 0.9126 0.17792 0.29346 0.0
C397 C 0.89352 0.19346 0.30796 0.0
O398 O 0.91259 0.18567 0.27479 0.0
O399 O 0.92248 0.19504 0.28652 0.0
O400 O 0.9271 0.16329 0.29405 0.0
C401 C 0.91943 0.19355 0.27645 0.0
O402 O 0.88956 0.19692 0.29868 0.0
C403 C 0.93149 0.16692 0.30306 0.0
O404 O 0.90141 0.18632 0.30812 0.0
O405 O 0.92694 0.17541 0.30756 0.0
C406 C 0.806 0.88317 0.28182 0.0
O407 O 0.79705 0.87878 0.27808 0.0
Cd408 Cd 0.7789 0.88713 0.27906 0.0
O409 O 0.80576 0.89266 0.28676 0.0
Cd410 Cd 0.7909 0.90648 0.29172 0.0
C411 C 0.77573 0.888 0.30725 0.0
O412 O 0.78232 0.90616 0.27323 0.0
O413 O 0.77345 0.91585 0.28558 0.0
O414 O 0.80503 0.92139 0.29092 0.0
C415 C 0.77456 0.91303 0.2754 0.0
O416 O 0.77211 0.88373 0.29817 0.0
C417 C 0.80193 0.92596 0.30003 0.0
O418 O 0.78296 0.89581 0.30701 0.0
O419 O 0.79401 0.92125 0.30531 0.0
C420 C 0.07967 0.81167 0.27569 0.0
O421 O 0.0846 0.80307 0.27179 0.0
Cd422 Cd 0.07895 0.78415 0.27493 0.0
O423 O 0.07099 0.81065 0.28183 0.0
Cd424 Cd 0.0594 0.79491 0.2891 0.0
C425 C 0.08102 0.78303 0.30343 0.0
O426 O 0.05916 0.7848 0.27155 0.0
O427 O 0.05193 0.77583 0.28542 0.0
O428 O 0.042 0.80542 0.28738 0.0
C429 C 0.05373 0.77638 0.27496 0.0
O430 O 0.08489 0.77963 0.29409 0.0
C431 C 0.03961 0.80509 0.29774 0.0
O432 O 0.07222 0.78902 0.30377 0.0
O433 O 0.04656 0.80023 0.30415 0.0
C434 C 0.16391 0.08282 0.27897 0.0
O435 O 0.17224 0.08758 0.27435 0.0
Cd436 Cd 0.19128 0.08178 0.2758 0.0
O437 O 0.1653 0.07416 0.28508 0.0
Cd438 Cd 0.18162 0.06256 0.29113 0.0
C439 C 0.19446 0.08464 0.30397 0.0
O440 O 0.1898 0.06196 0.27256 0.0
O441 O 0.19982 0.05433 0.28544 0.0
O442 O 0.16943 0.04611 0.29205 0.0
C443 C 0.1983 0.05618 0.2751 0.0
O444 O 0.19725 0.08833 0.29436 0.0
C445 C 0.1727 0.04315 0.30174 0.0
O446 O 0.18854 0.07585 0.30485 0.0
O447 O 0.17985 0.0494 0.30653 0.0
C448 C 0.69087 0.89112 0.81062 0.0
O449 O 0.69466 0.88747 0.80137 0.0
Cd450 Cd 0.69163 0.89609 0.78364 0.0
O451 O 0.68495 0.90003 0.81094 0.0
Cd452 Cd 0.67791 0.91399 0.79705 0.0
C453 C 0.66309 0.8945 0.7826 0.0
O454 O 0.69537 0.91552 0.78713 0.0
O455 O 0.68141 0.92307 0.77855 0.0
O456 O 0.68046 0.9297 0.80985 0.0
C457 C 0.69192 0.92166 0.77923 0.0
O458 O 0.67235 0.8912 0.77846 0.0
C459 C 0.6703 0.93282 0.80966 0.0
O460 O 0.6629 0.90226 0.7899 0.0
O461 O 0.66358 0.92699 0.80384 0.0
C462 C 0.08505 0.69099 0.80778 0.0
O463 O 0.08904 0.69364 0.79827 0.0
Cd464 Cd 0.07995 0.69115 0.78063 0.0
O465 O 0.07541 0.68642 0.80856 0.0
Cd466 Cd 0.06052 0.68037 0.79517 0.0
C467 C 0.07767 0.66269 0.78068 0.0
O468 O 0.06124 0.69734 0.78421 0.0
O469 O 0.05075 0.68443 0.77723 0.0
O470 O 0.04487 0.68472 0.80763 0.0
C471 C 0.05416 0.69449 0.77687 0.0
O472 O 0.08211 0.67125 0.77614 0.0
C473 C 0.0412 0.67473 0.80798 0.0
O474 O 0.07013 0.66383 0.78812 0.0
O475 O 0.04679 0.66734 0.80277 0.0
C476 C 0.27651 0.0765 0.81261 0.0
O477 O 0.27027 0.07892 0.80435 0.0
Cd478 Cd 0.27343 0.07216 0.7859 0.0
O479 O 0.28441 0.06934 0.81164 0.0
Cd480 Cd 0.29129 0.05613 0.79682 0.0
C481 C 0.30136 0.07853 0.7829 0.0
O482 O 0.27339 0.05221 0.78831 0.0
O483 O 0.28754 0.04774 0.77811 0.0
O484 O 0.29357 0.04045 0.80986 0.0
C485 C 0.27703 0.0474 0.7796 0.0
O486 O 0.29134 0.08093 0.78013 0.0
C487 C 0.30368 0.03852 0.80714 0.0
O488 O 0.30341 0.07015 0.78911 0.0
O489 O 0.30801 0.04498 0.7999 0.0
C490 C 0.88639 0.28304 0.80577 0.0
O491 O 0.88242 0.27869 0.7969 0.0
Cd492 Cd 0.89094 0.27969 0.77891 0.0
O493 O 0.89554 0.28856 0.80552 0.0
Cd494 Cd 0.90968 0.29388 0.79106 0.0
C495 C 0.89039 0.30807 0.77561 0.0
O496 O 0.91005 0.27523 0.78331 0.0
O497 O 0.91975 0.28716 0.774 0.0
O498 O 0.92318 0.29377 0.80648 0.0
C499 C 0.9169 0.27704 0.77547 0.0
O500 O 0.88663 0.29864 0.77232 0.0
C501 C 0.92833 0.30248 0.80323 0.0
O502 O 0.89833 0.30854 0.78269 0.0
O503 O 0.92463 0.30728 0.79449 0.0
C504 C 0.69159 0.07421 0.15839 0.0
O505 O 0.69893 0.07574 0.16592 0.0
Cd506 Cd 0.69593 0.06982 0.18458 0.0
O507 O 0.68291 0.06825 0.16025 0.0
Cd508 Cd 0.67569 0.05552 0.17536 0.0
C509 C 0.66883 0.07899 0.1892 0.0
O510 O 0.69384 0.04997 0.18219 0.0
O511 O 0.68034 0.04605 0.19337 0.0
O512 O 0.67147 0.04224 0.16039 0.0
C513 C 0.69068 0.04524 0.1911 0.0
O514 O 0.67928 0.08068 0.19055 0.0
C515 C 0.66201 0.03935 0.1643 0.0
O516 O 0.66528 0.07043 0.18397 0.0
O517 O 0.65887 0.04407 0.1733 0.0
C518 C 0.88691 0.69532 0.15697 0.0
O519 O 0.88294 0.69931 0.166 0.0
Cd520 Cd 0.89026 0.69588 0.1842 0.0
O521 O 0.89557 0.68904 0.15712 0.0
Cd522 Cd 0.90892 0.68159 0.17143 0.0
C523 C 0.88866 0.66725 0.18541 0.0
O524 O 0.90993 0.69893 0.18168 0.0
O525 O 0.91845 0.6852 0.18965 0.0
O526 O 0.92535 0.68371 0.15952 0.0
C527 C 0.91615 0.69558 0.18957 0.0
O528 O 0.88464 0.67663 0.18853 0.0
C529 C 0.92764 0.67333 0.15908 0.0
O530 O 0.89724 0.66678 0.17913 0.0
O531 O 0.92106 0.66672 0.16416 0.0
C532 C 0.27835 0.89579 0.15699 0.0
O533 O 0.27249 0.89272 0.16531 0.0
Cd534 Cd 0.27544 0.89888 0.18393 0.0
O535 O 0.28612 0.90305 0.1582 0.0
Cd536 Cd 0.29386 0.9149 0.17374 0.0
C537 C 0.30313 0.8917 0.18703 0.0
O538 O 0.27609 0.9189 0.18227 0.0
O539 O 0.29018 0.92297 0.1927 0.0
O540 O 0.29523 0.93119 0.16161 0.0
C541 C 0.27968 0.92339 0.19115 0.0
O542 O 0.29294 0.88947 0.18927 0.0
C543 C 0.30565 0.93272 0.16305 0.0
O544 O 0.30573 0.90032 0.18136 0.0
O545 O 0.3107 0.92582 0.16937 0.0
C546 C 0.08302 0.28397 0.16704 0.0
O547 O 0.08658 0.28085 0.17658 0.0
Cd548 Cd 0.07684 0.28271 0.19394 0.0
O549 O 0.07352 0.2888 0.16605 0.0
Cd550 Cd 0.05802 0.29475 0.17877 0.0
C551 C 0.07544 0.3112 0.19461 0.0
O552 O 0.05847 0.27702 0.18824 0.0
O553 O 0.04605 0.28826 0.19477 0.0
O554 O 0.04545 0.29333 0.16254 0.0
C555 C 0.05048 0.27861 0.19497 0.0
O556 O 0.07954 0.3024 0.19903 0.0
C557 C 0.04036 0.30244 0.16469 0.0
O558 O 0.06802 0.31047 0.18701 0.0
O559 O 0.04366 0.30791 0.1732 0.0
C560 C 0.81135 0.69139 0.89489 0.0
O561 O 0.8025 0.69643 0.89182 0.0
Cd562 Cd 0.78442 0.69346 0.89953 0.0
O563 O 0.81106 0.68423 0.90284 0.0
Cd564 Cd 0.79644 0.67662 0.91584 0.0
C565 C 0.7822 0.6654 0.89403 0.0
O566 O 0.78782 0.69457 0.91932 0.0
O567 O 0.77802 0.68056 0.92488 0.0
O568 O 0.81082 0.67483 0.9304 0.0
C569 C 0.77941 0.69109 0.92469 0.0
O570 O 0.77859 0.6752 0.89184 0.0
C571 C 0.80762 0.66519 0.9336 0.0
O572 O 0.78914 0.66384 0.90195 0.0
O573 O 0.79944 0.66086 0.92837 0.0
C574 C 0.80985 0.27976 0.07892 0.0
O575 O 0.80232 0.27247 0.08071 0.0
Cd576 Cd 0.78367 0.27484 0.07439 0.0
O577 O 0.80802 0.28814 0.07253 0.0
Cd578 Cd 0.79296 0.29475 0.05943 0.0
C579 C 0.77853 0.30233 0.08226 0.0
O580 O 0.78605 0.27641 0.05455 0.0
O581 O 0.77499 0.28994 0.05021 0.0
O582 O 0.80778 0.29773 0.04578 0.0
C583 C 0.77718 0.27955 0.04969 0.0
O584 O 0.77722 0.29191 0.08421 0.0
C585 C 0.80408 0.30707 0.04228 0.0
O586 O 0.78403 0.30571 0.0738 0.0
O587 O 0.79533 0.31086 0.047 0.0
C588 C 0.69191 0.81088 0.0822 0.0
O589 O 0.6965 0.80197 0.08577 0.0
Cd590 Cd 0.69448 0.7838 0.07786 0.0
O591 O 0.68565 0.8107 0.07352 0.0
Cd592 Cd 0.67918 0.79612 0.05986 0.0
C593 C 0.66614 0.78107 0.08027 0.0
O594 O 0.69725 0.78712 0.05821 0.0
O595 O 0.68387 0.77836 0.04998 0.0
O596 O 0.67876 0.80949 0.04423 0.0
C597 C 0.69427 0.77913 0.05193 0.0
O598 O 0.67571 0.77798 0.08381 0.0
C599 C 0.66874 0.80719 0.04142 0.0
O600 O 0.66527 0.78775 0.07204 0.0
O601 O 0.6636 0.80011 0.04745 0.0
C602 C 0.15602 0.69231 0.07937 0.0
O603 O 0.16427 0.69868 0.08144 0.0
Cd604 Cd 0.18207 0.69617 0.07294 0.0
O605 O 0.15659 0.68482 0.07174 0.0
Cd606 Cd 0.17009 0.6789 0.05682 0.0
C607 C 0.1858 0.66781 0.07743 0.0
O608 O 0.1777 0.69727 0.05337 0.0
O609 O 0.18773 0.68381 0.04687 0.0
O610 O 0.15452 0.67742 0.04355 0.0
C611 C 0.186 0.69427 0.04753 0.0
O612 O 0.18856 0.67779 0.0801 0.0
C613 C 0.15751 0.66794 0.03973 0.0
O614 O 0.17901 0.66602 0.06944 0.0
O615 O 0.16622 0.66357 0.04399 0.0
C616 C 0.2793 0.15891 0.07978 0.0
O617 O 0.27453 0.16761 0.08366 0.0
Cd618 Cd 0.27629 0.18582 0.07573 0.0
O619 O 0.28543 0.15948 0.07104 0.0
Cd620 Cd 0.29141 0.17414 0.05741 0.0
C621 C 0.30467 0.18874 0.07798 0.0
O622 O 0.27293 0.18213 0.05621 0.0
O623 O 0.28552 0.19168 0.04764 0.0
O624 O 0.29188 0.15909 0.04349 0.0
C625 C 0.27523 0.19023 0.04982 0.0
O626 O 0.2951 0.19197 0.08141 0.0
C627 C 0.30106 0.1622 0.03911 0.0
O628 O 0.30546 0.18201 0.06976 0.0
O629 O 0.30575 0.17075 0.04334 0.0
C630 C 0.16273 0.28183 0.89086 0.0
O631 O 0.17104 0.27592 0.88785 0.0
Cd632 Cd 0.18924 0.27799 0.8956 0.0
O633 O 0.16344 0.28864 0.89909 0.0
Cd634 Cd 0.17761 0.29358 0.91384 0.0
C635 C 0.19199 0.30667 0.89336 0.0
O636 O 0.18557 0.27508 0.91506 0.0
O637 O 0.19527 0.28767 0.92346 0.0
O638 O 0.16245 0.29395 0.92763 0.0
C639 C 0.19385 0.27738 0.92123 0.0
O640 O 0.19478 0.29702 0.88971 0.0
C641 C 0.16561 0.30306 0.93216 0.0
O642 O 0.18571 0.30763 0.90189 0.0
O643 O 0.17421 0.30775 0.92804 0.0
C644 C 0.68965 0.15833 0.89467 0.0
O645 O 0.69597 0.16652 0.8922 0.0
Cd646 Cd 0.69358 0.18483 0.89966 0.0
O647 O 0.6821 0.15926 0.90219 0.0
Cd648 Cd 0.67617 0.17383 0.91612 0.0
C649 C 0.66541 0.18867 0.89466 0.0
O650 O 0.69447 0.18168 0.91944 0.0
O651 O 0.68091 0.1922 0.92487 0.0
O652 O 0.67484 0.16011 0.93128 0.0
C653 C 0.69136 0.19035 0.92466 0.0
O654 O 0.67542 0.19128 0.89203 0.0
C655 C 0.66494 0.16284 0.9341 0.0
O656 O 0.6635 0.18219 0.90288 0.0
O657 O 0.66024 0.17045 0.92835 0.0
C658 C 0.27686 0.81105 0.88861 0.0
O659 O 0.27374 0.80216 0.88363 0.0
Cd660 Cd 0.27716 0.78356 0.89005 0.0
O661 O 0.28231 0.81051 0.8978 0.0
Cd662 Cd 0.28921 0.79515 0.91016 0.0
C663 C 0.30565 0.78361 0.88996 0.0
O664 O 0.27195 0.78456 0.90946 0.0
O665 O 0.28556 0.7761 0.91774 0.0
O666 O 0.28629 0.80619 0.92714 0.0
C667 C 0.27521 0.77642 0.9154 0.0
O668 O 0.29682 0.77958 0.88555 0.0
C669 C 0.29639 0.80552 0.93042 0.0
O670 O 0.30501 0.78986 0.89855 0.0
O671 O 0.30317 0.80031 0.92411 0.0
C672 C 0.77565 0.58452 0.80725 0.0
O673 O 0.77216 0.58856 0.79804 0.0
Cd674 Cd 0.77485 0.58031 0.77997 0.0
O675 O 0.78101 0.57526 0.80745 0.0
Cd676 Cd 0.78745 0.56105 0.79357 0.0
C677 C 0.80344 0.57994 0.77936 0.0
O678 O 0.77028 0.56098 0.78281 0.0
O679 O 0.78373 0.55135 0.7756 0.0
O680 O 0.78455 0.54503 0.80594 0.0
C681 C 0.77352 0.55427 0.77527 0.0
O682 O 0.79448 0.58409 0.77531 0.0
C683 C 0.79478 0.54207 0.80603 0.0
O684 O 0.80302 0.57194 0.78637 0.0
O685 O 0.80161 0.54815 0.80062 0.0
C686 C 0.18084 0.38329 0.80546 0.0
O687 O 0.18358 0.37849 0.79635 0.0
Cd688 Cd 0.18327 0.38696 0.77828 0.0
O689 O 0.17709 0.39332 0.80543 0.0
Cd690 Cd 0.17313 0.40772 0.79082 0.0
C691 C 0.15535 0.39137 0.77561 0.0
O692 O 0.19138 0.40488 0.78258 0.0
O693 O 0.18118 0.41691 0.7739 0.0
O694 O 0.17513 0.42177 0.80575 0.0
C695 C 0.19066 0.41228 0.77506 0.0
O696 O 0.16381 0.38608 0.77185 0.0
C697 C 0.16684 0.42758 0.80244 0.0
O698 O 0.1566 0.39902 0.7829 0.0
O699 O 0.16153 0.424 0.79396 0.0
C700 C 0.1938 0.58256 0.15925 0.0
O701 O 0.19925 0.58586 0.16778 0.0
Cd702 Cd 0.19728 0.57828 0.18606 0.0
O703 O 0.18708 0.57426 0.15991 0.0
Cd704 Cd 0.18119 0.56045 0.17457 0.0
C705 C 0.169 0.58131 0.18961 0.0
O706 O 0.19951 0.55853 0.18289 0.0
O707 O 0.18634 0.55062 0.19225 0.0
O708 O 0.18043 0.54493 0.16111 0.0
C709 C 0.19674 0.55239 0.19105 0.0
O710 O 0.17873 0.58492 0.19206 0.0
C711 C 0.17036 0.54234 0.16335 0.0
O712 O 0.16774 0.57277 0.18338 0.0
O713 O 0.16534 0.54834 0.17056 0.0
C714 C 0.77964 0.38811 0.1634 0.0
O715 O 0.7754 0.38592 0.1729 0.0
Cd716 Cd 0.78016 0.39606 0.18939 0.0
O717 O 0.78624 0.39641 0.1621 0.0
Cd718 Cd 0.79354 0.41221 0.17371 0.0
C719 C 0.80889 0.39424 0.18917 0.0
O720 O 0.77656 0.41511 0.18401 0.0
O721 O 0.79095 0.42304 0.19148 0.0
O722 O 0.79039 0.4266 0.15957 0.0
C723 C 0.78038 0.42188 0.19119 0.0
O724 O 0.79978 0.39105 0.1937 0.0
C725 C 0.80063 0.4293 0.1586 0.0
O726 O 0.80881 0.4016 0.1815 0.0
O727 O 0.80763 0.42387 0.16447 0.0
C728 C 0.30967 0.57943 0.68921 0.0
O729 O 0.30139 0.58331 0.69466 0.0
Cd730 Cd 0.2826 0.57686 0.69313 0.0
O731 O 0.30835 0.57139 0.68226 0.0
Cd732 Cd 0.29251 0.55949 0.67557 0.0
C733 C 0.27852 0.58214 0.66536 0.0
O734 O 0.28506 0.55692 0.69407 0.0
O735 O 0.27448 0.55039 0.68108 0.0
O736 O 0.30571 0.54406 0.67311 0.0
C737 C 0.2764 0.55144 0.69148 0.0
O738 O 0.27593 0.58481 0.67536 0.0
C739 C 0.30244 0.54159 0.66328 0.0
O740 O 0.2847 0.57369 0.66344 0.0
O741 O 0.29468 0.54758 0.65916 0.0
C742 C 0.66449 0.38404 0.68827 0.0
O743 O 0.67413 0.38052 0.69113 0.0
Cd744 Cd 0.69128 0.39063 0.68913 0.0
O745 O 0.66329 0.39361 0.68364 0.0
Cd746 Cd 0.67548 0.40951 0.67775 0.0
C747 C 0.69163 0.39299 0.66066 0.0
O748 O 0.6853 0.40878 0.69525 0.0
O749 O 0.69122 0.42178 0.68435 0.0
O750 O 0.65903 0.42169 0.6799 0.0
C751 C 0.69178 0.41699 0.6938 0.0
O752 O 0.69618 0.38867 0.66929 0.0
C753 C 0.66069 0.4269 0.67076 0.0
O754 O 0.68387 0.40021 0.66168 0.0
O755 O 0.66906 0.42387 0.66495 0.0
C756 C 0.30766 0.3898 0.28395 0.0
O757 O 0.29881 0.3859 0.2795 0.0
Cd758 Cd 0.28084 0.39447 0.28067 0.0
O759 O 0.30738 0.39889 0.2896 0.0
Cd760 Cd 0.293 0.41307 0.29506 0.0
C761 C 0.27754 0.39364 0.30905 0.0
O762 O 0.28514 0.41366 0.27646 0.0
O763 O 0.27588 0.42324 0.28854 0.0
O764 O 0.30842 0.42658 0.29514 0.0
C765 C 0.27725 0.42044 0.27838 0.0
O766 O 0.27424 0.38997 0.29959 0.0
C767 C 0.30538 0.43136 0.30416 0.0
O768 O 0.28462 0.40158 0.30959 0.0
O769 O 0.29669 0.42754 0.30893 0.0
C770 C 0.66331 0.58335 0.27998 0.0
O771 O 0.6719 0.58803 0.2758 0.0
Cd772 Cd 0.69067 0.58125 0.27718 0.0
O773 O 0.66423 0.57433 0.28564 0.0
Cd774 Cd 0.67986 0.56184 0.29158 0.0
C775 C 0.69392 0.58245 0.30547 0.0
O776 O 0.68857 0.56164 0.27324 0.0
O777 O 0.69789 0.55312 0.28611 0.0
O778 O 0.66721 0.54573 0.2913 0.0
C779 C 0.69681 0.55551 0.27582 0.0
O780 O 0.69698 0.58637 0.29604 0.0
C781 C 0.66968 0.54251 0.30114 0.0
O782 O 0.68738 0.57407 0.30597 0.0
O783 O 0.67665 0.54845 0.30654 0.0
C784 C 0.1897 0.80631 0.58447 0.0
O785 O 0.19247 0.79694 0.5887 0.0
Cd786 Cd 0.18946 0.77895 0.58046 0.0
O787 O 0.18468 0.80677 0.57503 0.0
Cd788 Cd 0.17789 0.79284 0.561 0.0
C789 C 0.16111 0.77928 0.57986 0.0
O790 O 0.19508 0.78224 0.56145 0.0
O791 O 0.18251 0.77522 0.55064 0.0
O792 O 0.17969 0.80635 0.54558 0.0
C793 C 0.19248 0.77492 0.55426 0.0
O794 O 0.16973 0.77466 0.58412 0.0
C795 C 0.16971 0.80489 0.54212 0.0
O796 O 0.16213 0.7863 0.57193 0.0
O797 O 0.16365 0.79816 0.54766 0.0
C798 C 0.1897 0.1619 0.39384 0.0
O799 O 0.19537 0.17071 0.392 0.0
Cd800 Cd 0.1918 0.18836 0.40041 0.0
O801 O 0.18174 0.16194 0.401 0.0
Cd802 Cd 0.17353 0.17579 0.41449 0.0
C803 C 0.1643 0.19132 0.3927 0.0
O804 O 0.19104 0.18403 0.42 0.0
O805 O 0.17677 0.19407 0.42428 0.0
O806 O 0.17107 0.1614 0.42886 0.0
C807 C 0.18724 0.19245 0.42514 0.0
O808 O 0.17432 0.19478 0.39148 0.0
C809 C 0.16091 0.16383 0.43089 0.0
O810 O 0.16196 0.18408 0.40014 0.0
O811 O 0.15659 0.1716 0.42506 0.0
C812 C 0.3125 0.69012 0.39742 0.0
O813 O 0.3049 0.69715 0.39502 0.0
Cd814 Cd 0.28593 0.69477 0.40025 0.0
O815 O 0.31055 0.68186 0.40394 0.0
Cd816 Cd 0.29465 0.67555 0.41626 0.0
C817 C 0.28166 0.66716 0.39271 0.0
O818 O 0.28719 0.6939 0.42025 0.0
O819 O 0.2759 0.6804 0.42396 0.0
O820 O 0.30703 0.67241 0.43225 0.0
C821 C 0.27803 0.69079 0.42452 0.0
O822 O 0.28019 0.67746 0.39032 0.0
C823 C 0.3037 0.66246 0.43407 0.0
O824 O 0.28672 0.66428 0.40161 0.0
O825 O 0.29637 0.65856 0.42743 0.0
C826 C 0.77625 0.81219 0.39563 0.0
O827 O 0.77151 0.80308 0.39285 0.0
Cd828 Cd 0.77516 0.78533 0.4011 0.0
O829 O 0.78361 0.81237 0.4034 0.0
Cd830 Cd 0.79237 0.79829 0.41618 0.0
C831 C 0.80283 0.78353 0.39426 0.0
O832 O 0.77494 0.78939 0.42082 0.0
O833 O 0.7894 0.77986 0.4257 0.0
O834 O 0.79449 0.81228 0.43108 0.0
C835 C 0.77887 0.78115 0.42616 0.0
O836 O 0.7931 0.77944 0.39277 0.0
C837 C 0.80479 0.8102 0.4328 0.0
O838 O 0.8045 0.79089 0.40177 0.0
O839 O 0.80926 0.80275 0.42666 0.0
C840 C 0.65719 0.27784 0.38806 0.0
O841 O 0.66626 0.27434 0.38372 0.0
Cd842 Cd 0.68453 0.27761 0.39108 0.0
O843 O 0.65733 0.28369 0.39702 0.0
Cd844 Cd 0.67171 0.29103 0.41025 0.0
C845 C 0.68525 0.30625 0.39027 0.0
O846 O 0.68204 0.27378 0.41058 0.0
O847 O 0.69022 0.28722 0.41934 0.0
O848 O 0.65969 0.28829 0.42648 0.0
C849 C 0.69005 0.27691 0.41675 0.0
O850 O 0.68906 0.29706 0.38639 0.0
C851 C 0.65939 0.29856 0.42926 0.0
O852 O 0.67851 0.30625 0.39852 0.0
O853 O 0.66466 0.3054 0.42308 0.0
C854 C 0.78316 0.16286 0.58427 0.0
O855 O 0.77914 0.17189 0.58824 0.0
Cd856 Cd 0.77948 0.18966 0.57923 0.0
O857 O 0.7881 0.16278 0.57478 0.0
Cd858 Cd 0.79274 0.17702 0.56016 0.0
C859 C 0.80767 0.19318 0.57842 0.0
O860 O 0.77403 0.18456 0.56052 0.0
O861 O 0.78529 0.19367 0.54988 0.0
O862 O 0.79277 0.16185 0.54624 0.0
C863 C 0.77536 0.19216 0.5533 0.0
O864 O 0.79849 0.19663 0.58258 0.0
C865 C 0.80166 0.16519 0.54143 0.0
O866 O 0.80767 0.18586 0.57068 0.0
O867 O 0.80637 0.17381 0.5455 0.0
C868 C 0.30495 0.28416 0.5838 0.0
O869 O 0.2959 0.2807 0.58821 0.0
Cd870 Cd 0.27778 0.28181 0.57988 0.0
O871 O 0.30488 0.28894 0.57423 0.0
Cd872 Cd 0.2904 0.29397 0.55999 0.0
C873 C 0.27535 0.31015 0.57809 0.0
O874 O 0.28182 0.27568 0.56115 0.0
O875 O 0.27337 0.28712 0.55011 0.0
O876 O 0.30517 0.2927 0.54578 0.0
C877 C 0.27426 0.27726 0.55392 0.0
O878 O 0.27172 0.30124 0.58267 0.0
C879 C 0.30224 0.30163 0.54077 0.0
O880 O 0.28244 0.30964 0.57018 0.0
O881 O 0.29404 0.30699 0.54488 0.0
C882 C 0.65862 0.69516 0.58043 0.0
O883 O 0.66679 0.69937 0.58581 0.0
Cd884 Cd 0.68594 0.69577 0.58157 0.0
O885 O 0.66035 0.68881 0.57201 0.0
Cd886 Cd 0.67685 0.6818 0.56132 0.0
C887 C 0.68667 0.6672 0.58363 0.0
O888 O 0.68697 0.69938 0.56176 0.0
O889 O 0.69622 0.68543 0.55493 0.0
O890 O 0.66696 0.68394 0.54366 0.0
C891 C 0.6956 0.6959 0.55668 0.0
O892 O 0.68926 0.67653 0.5881 0.0
C893 C 0.66774 0.67371 0.54082 0.0
O894 O 0.68196 0.66687 0.57409 0.0
O895 O 0.67257 0.66715 0.54764 0.0
C896 C 0.15826 0.39236 0.19369 0.0
O897 O 0.16653 0.38847 0.19913 0.0
Cd898 Cd 0.18536 0.39452 0.19699 0.0
O899 O 0.15959 0.40034 0.18668 0.0
Cd900 Cd 0.17518 0.41259 0.17982 0.0
C901 C 0.18847 0.39002 0.16871 0.0
O902 O 0.18341 0.41446 0.19818 0.0
O903 O 0.19315 0.42187 0.18502 0.0
O904 O 0.16101 0.42729 0.17843 0.0
C905 C 0.19192 0.4201 0.19541 0.0
O906 O 0.19066 0.38687 0.17866 0.0
C907 C 0.16434 0.43091 0.169 0.0
O908 O 0.18285 0.39889 0.16688 0.0
O909 O 0.17259 0.42589 0.16456 0.0
C910 C 0.81516 0.57508 0.19231 0.0
O911 O 0.80737 0.57769 0.19905 0.0
Cd912 Cd 0.78851 0.57166 0.19653 0.0
O913 O 0.81349 0.56808 0.18439 0.0
Cd914 Cd 0.79821 0.55531 0.178 0.0
C915 C 0.78456 0.57816 0.16862 0.0
O916 O 0.78983 0.55168 0.19598 0.0
O917 O 0.7793 0.54763 0.1819 0.0
O918 O 0.81009 0.53883 0.17688 0.0
C919 C 0.78087 0.54729 0.19241 0.0
O920 O 0.78238 0.58051 0.17881 0.0
C921 C 0.80861 0.53718 0.16647 0.0
O922 O 0.7904 0.5696 0.16615 0.0
O923 O 0.80245 0.54413 0.1613 0.0
C924 C 0.80509 0.38715 0.78146 0.0
O925 O 0.79591 0.38251 0.77869 0.0
Cd926 Cd 0.77756 0.38997 0.78166 0.0
O927 O 0.80515 0.39656 0.78656 0.0
Cd928 Cd 0.79092 0.4101 0.79363 0.0
C929 C 0.77742 0.39097 0.81019 0.0
O930 O 0.78019 0.40915 0.77663 0.0
O931 O 0.77307 0.42005 0.7891 0.0
O932 O 0.80311 0.42617 0.79044 0.0
C933 C 0.77266 0.41612 0.77923 0.0
O934 O 0.77338 0.38651 0.80138 0.0
C935 C 0.80309 0.4294 0.80059 0.0
O936 O 0.78416 0.39919 0.8095 0.0
O937 O 0.79771 0.42344 0.80754 0.0
C938 C 0.15974 0.582 0.78186 0.0
O939 O 0.16824 0.58694 0.77778 0.0
Cd940 Cd 0.18722 0.58064 0.77875 0.0
O941 O 0.16084 0.57286 0.78731 0.0
Cd942 Cd 0.17678 0.56059 0.79285 0.0
C943 C 0.19065 0.58131 0.80696 0.0
O944 O 0.18519 0.5611 0.77443 0.0
O945 O 0.19462 0.55186 0.78668 0.0
O946 O 0.1642 0.54438 0.79326 0.0
C947 C 0.19347 0.55486 0.77657 0.0
O948 O 0.19373 0.5855 0.79765 0.0
C949 C 0.1673 0.54121 0.80295 0.0
O950 O 0.18421 0.57285 0.80719 0.0
O951 O 0.17458 0.54718 0.80787 0.0
C952 C 0.69112 0.38737 0.30629 0.0
O953 O 0.69548 0.3828 0.29772 0.0
Cd954 Cd 0.69386 0.38997 0.27913 0.0
O955 O 0.68554 0.39645 0.30537 0.0
Cd956 Cd 0.68019 0.40962 0.2901 0.0
C957 C 0.66537 0.38934 0.27671 0.0
O958 O 0.69862 0.40942 0.28152 0.0
O959 O 0.68607 0.41849 0.27229 0.0
O960 O 0.68089 0.4243 0.3044 0.0
C961 C 0.69629 0.41583 0.27342 0.0
O962 O 0.67466 0.3852 0.27346 0.0
C963 C 0.67187 0.42901 0.30126 0.0
O964 O 0.6652 0.39787 0.28308 0.0
O965 O 0.66672 0.42459 0.29307 0.0
C966 C 0.2774 0.58008 0.31103 0.0
O967 O 0.27055 0.58217 0.30317 0.0
Cd968 Cd 0.2728 0.5751 0.28471 0.0
O969 O 0.28527 0.57294 0.30974 0.0
Cd970 Cd 0.29144 0.55904 0.29522 0.0
C971 C 0.30074 0.58119 0.28039 0.0
O972 O 0.27319 0.55526 0.28743 0.0
O973 O 0.28686 0.54929 0.27738 0.0
O974 O 0.29344 0.54406 0.30902 0.0
C975 C 0.27636 0.54987 0.27889 0.0
O976 O 0.29053 0.58375 0.2786 0.0
C977 C 0.3035 0.54175 0.30643 0.0
O978 O 0.30332 0.57263 0.28618 0.0
O979 O 0.308 0.54771 0.29886 0.0
C980 C 0.68951 0.5725 0.65551 0.0
O981 O 0.6975 0.57434 0.66227 0.0
Cd982 Cd 0.69703 0.56871 0.6813 0.0
O983 O 0.68131 0.56619 0.65824 0.0
Cd984 Cd 0.67635 0.55347 0.67427 0.0
C985 C 0.67027 0.57706 0.6885 0.0
O986 O 0.69515 0.54882 0.68016 0.0
O987 O 0.68244 0.54494 0.69226 0.0
O988 O 0.67185 0.53784 0.66184 0.0
C989 C 0.69268 0.54445 0.68948 0.0
O990 O 0.68076 0.57901 0.68885 0.0
C991 C 0.66214 0.53619 0.66588 0.0
O992 O 0.66646 0.56836 0.6837 0.0
O993 O 0.65895 0.54281 0.67358 0.0
C994 C 0.28035 0.3898 0.66026 0.0
O995 O 0.27658 0.38499 0.66897 0.0
Cd996 Cd 0.27942 0.39156 0.68759 0.0
O997 O 0.28621 0.39871 0.66106 0.0
Cd998 Cd 0.29317 0.4114 0.67612 0.0
C999 C 0.30809 0.39064 0.68858 0.0
O1000 O 0.27531 0.41105 0.68527 0.0
O1001 O 0.28782 0.42007 0.6945 0.0
O1002 O 0.29199 0.42549 0.66136 0.0
C1003 C 0.27767 0.41708 0.69363 0.0
O1004 O 0.29885 0.3867 0.69217 0.0
C1005 C 0.30086 0.43059 0.66424 0.0
O1006 O 0.30821 0.39917 0.68222 0.0
O1007 O 0.30615 0.42673 0.67263 0.0
C1008 C 0.80951 0.19106 0.38804 0.0
O1009 O 0.80073 0.19502 0.38349 0.0
Cd1010 Cd 0.78216 0.1934 0.3905 0.0
O1011 O 0.80889 0.18541 0.3971 0.0
Cd1012 Cd 0.7934 0.17932 0.4098 0.0
C1013 C 0.77928 0.16514 0.38931 0.0
O1014 O 0.78508 0.19772 0.40995 0.0
O1015 O 0.77547 0.18542 0.41885 0.0
O1016 O 0.80622 0.17902 0.42589 0.0
C1017 C 0.77687 0.19562 0.41625 0.0
O1018 O 0.77596 0.17448 0.38537 0.0
C1019 C 0.80354 0.16916 0.42889 0.0
O1020 O 0.7859 0.16487 0.39763 0.0
O1021 O 0.79637 0.1641 0.42289 0.0
C1022 C 0.80855 0.77956 0.58042 0.0
O1023 O 0.79957 0.77429 0.58262 0.0
Cd1024 Cd 0.7824 0.7766 0.57291 0.0
O1025 O 0.80893 0.78651 0.57228 0.0
Cd1026 Cd 0.79576 0.79328 0.55739 0.0
C1027 C 0.77898 0.80478 0.57715 0.0
O1028 O 0.78814 0.77497 0.5537 0.0
O1029 O 0.77859 0.78839 0.5465 0.0
O1030 O 0.81178 0.7952 0.54466 0.0
C1031 C 0.78023 0.77793 0.54733 0.0
O1032 O 0.77547 0.79495 0.5794 0.0
C1033 C 0.8086 0.80458 0.54074 0.0
O1034 O 0.7866 0.80625 0.56987 0.0
O1035 O 0.79964 0.80868 0.54474 0.0
C1036 C 0.69379 0.31353 0.57746 0.0
O1037 O 0.69892 0.30527 0.5818 0.0
Cd1038 Cd 0.69571 0.28618 0.57703 0.0
O1039 O 0.68662 0.31201 0.56967 0.0
Cd1040 Cd 0.67898 0.296 0.55852 0.0
C1041 C 0.66741 0.28443 0.58174 0.0
O1042 O 0.69656 0.28628 0.55699 0.0
O1043 O 0.68244 0.27687 0.55095 0.0
O1044 O 0.67929 0.30673 0.54126 0.0
C1045 C 0.69296 0.27754 0.5522 0.0
O1046 O 0.67727 0.28211 0.5851 0.0
C1047 C 0.66884 0.30607 0.53942 0.0
O1048 O 0.66579 0.2895 0.57253 0.0
O1049 O 0.66299 0.30086 0.54661 0.0
C1050 C 0.1628 0.19009 0.58038 0.0
O1051 O 0.17189 0.19495 0.58305 0.0
Cd1052 Cd 0.18917 0.19257 0.57355 0.0
O1053 O 0.16238 0.18355 0.57191 0.0
Cd1054 Cd 0.17555 0.17691 0.55697 0.0
C1055 C 0.19161 0.16414 0.57663 0.0
O1056 O 0.18369 0.19513 0.5544 0.0
O1057 O 0.1927 0.18204 0.54602 0.0
O1058 O 0.15936 0.17623 0.54437 0.0
C1059 C 0.19146 0.19245 0.54776 0.0
O1060 O 0.19533 0.17378 0.57933 0.0
C1061 C 0.16219 0.16704 0.53979 0.0
O1062 O 0.18414 0.16314 0.5691 0.0
O1063 O 0.17108 0.16243 0.54336 0.0
C1064 C 0.28489 0.66932 0.5854 0.0
O1065 O 0.28202 0.67897 0.58891 0.0
Cd1066 Cd 0.28388 0.6961 0.5787 0.0
O1067 O 0.28948 0.66809 0.5758 0.0
Cd1068 Cd 0.29538 0.67996 0.55973 0.0
C1069 C 0.31239 0.69626 0.57627 0.0
O1070 O 0.27794 0.68969 0.56067 0.0
O1071 O 0.28825 0.69513 0.547 0.0
O1072 O 0.29331 0.66297 0.54834 0.0
C1073 C 0.27904 0.69591 0.55221 0.0
O1074 O 0.30375 0.70077 0.58061 0.0
C1075 C 0.30227 0.6646 0.54281 0.0
O1076 O 0.31139 0.68854 0.56899 0.0
O1077 O 0.30793 0.67325 0.54528 0.0
C1078 C 0.16429 0.78073 0.38695 0.0
O1079 O 0.17315 0.77641 0.38295 0.0
Cd1080 Cd 0.19135 0.77802 0.39098 0.0
O1081 O 0.16461 0.78643 0.39601 0.0
Cd1082 Cd 0.17942 0.79206 0.40972 0.0
C1083 C 0.19382 0.80642 0.38985 0.0
O1084 O 0.18803 0.77365 0.41036 0.0
O1085 O 0.19716 0.78652 0.41906 0.0
O1086 O 0.16513 0.79212 0.42449 0.0
C1087 C 0.19601 0.7762 0.41683 0.0
O1088 O 0.19741 0.79708 0.38612 0.0
C1089 C 0.16833 0.80137 0.4287 0.0
O1090 O 0.18691 0.8067 0.39792 0.0
O1091 O 0.17644 0.80628 0.42391 0.0
C1092 C 0.6927 0.66674 0.38539 0.0
O1093 O 0.69525 0.67582 0.38045 0.0
Cd1094 Cd 0.69161 0.69413 0.38776 0.0
O1095 O 0.68771 0.6669 0.39483 0.0
Cd1096 Cd 0.68072 0.68136 0.40805 0.0
C1097 C 0.66316 0.69349 0.38905 0.0
O1098 O 0.69768 0.69232 0.40687 0.0
O1099 O 0.68473 0.69969 0.41708 0.0
O1100 O 0.68476 0.66953 0.4242 0.0
C1101 C 0.69481 0.69989 0.41372 0.0
O1102 O 0.6717 0.69774 0.3843 0.0
C1103 C 0.6747 0.66917 0.42762 0.0
O1104 O 0.66432 0.68705 0.39743 0.0
O1105 O 0.66742 0.6743 0.42183 0.0
C1106 C 0.27573 0.30714 0.38709 0.0
O1107 O 0.27161 0.29847 0.38246 0.0
Cd1108 Cd 0.27343 0.27976 0.38929 0.0
O1109 O 0.28151 0.3063 0.39605 0.0
Cd1110 Cd 0.28767 0.29067 0.40846 0.0
C1111 C 0.30165 0.27692 0.38766 0.0
O1112 O 0.26934 0.28195 0.40893 0.0
O1113 O 0.28229 0.27268 0.41736 0.0
O1114 O 0.28799 0.30335 0.42464 0.0
C1115 C 0.27196 0.27383 0.41519 0.0
O1116 O 0.29229 0.27365 0.38375 0.0
C1117 C 0.29788 0.30069 0.42757 0.0
O1118 O 0.30199 0.2834 0.39609 0.0
O1119 O 0.30296 0.29361 0.42148 0.0
C1120 C 0.58462 0.19156 0.80812 0.0
O1121 O 0.58861 0.19456 0.79872 0.0
Cd1122 Cd 0.57946 0.19259 0.78103 0.0
O1123 O 0.57505 0.18683 0.80871 0.0
Cd1124 Cd 0.56029 0.18094 0.79515 0.0
C1125 C 0.57746 0.16423 0.77947 0.0
O1126 O 0.56067 0.1984 0.78503 0.0
O1127 O 0.55003 0.18589 0.77762 0.0
O1128 O 0.54433 0.18398 0.80764 0.0
C1129 C 0.55351 0.19593 0.77764 0.0
O1130 O 0.58196 0.17301 0.77544 0.0
C1131 C 0.54151 0.17372 0.80801 0.0
O1132 O 0.56989 0.16498 0.78692 0.0
O1133 O 0.54761 0.16684 0.8027 0.0
C1134 C 0.39059 0.78265 0.80943 0.0
O1135 O 0.38661 0.77768 0.8009 0.0
Cd1136 Cd 0.39456 0.77816 0.78266 0.0
O1137 O 0.39955 0.78844 0.80868 0.0
Cd1138 Cd 0.41331 0.79319 0.79359 0.0
C1139 C 0.39323 0.80639 0.77833 0.0
O1140 O 0.41382 0.77418 0.78673 0.0
O1141 O 0.42283 0.78583 0.77642 0.0
O1142 O 0.42722 0.79444 0.80862 0.0
C1143 C 0.42029 0.77573 0.77851 0.0
O1144 O 0.38952 0.79678 0.77553 0.0
C1145 C 0.43199 0.80308 0.80464 0.0
O1146 O 0.40143 0.80725 0.78505 0.0
O1147 O 0.42795 0.80711 0.79567 0.0
C1148 C 0.579 0.78002 0.15797 0.0
O1149 O 0.58243 0.77375 0.16584 0.0
Cd1150 Cd 0.57681 0.77587 0.18481 0.0
O1151 O 0.57152 0.78748 0.15966 0.0
Cd1152 Cd 0.55897 0.79332 0.17548 0.0
C1153 C 0.58156 0.80413 0.18862 0.0
O1154 O 0.55691 0.7747 0.1831 0.0
O1155 O 0.5506 0.78772 0.19378 0.0
O1156 O 0.54406 0.79515 0.16155 0.0
C1157 C 0.55178 0.77731 0.19197 0.0
O1158 O 0.58456 0.7941 0.19072 0.0
C1159 C 0.54017 0.80422 0.16555 0.0
O1160 O 0.57274 0.80608 0.18298 0.0
O1161 O 0.54519 0.80832 0.17399 0.0
C1162 C 0.38828 0.18996 0.16154 0.0
O1163 O 0.38492 0.19446 0.17059 0.0
Cd1164 Cd 0.39388 0.19277 0.18832 0.0
O1165 O 0.3971 0.18391 0.16141 0.0
Cd1166 Cd 0.41133 0.17764 0.17546 0.0
C1167 C 0.39195 0.16447 0.19169 0.0
O1168 O 0.41323 0.19586 0.18382 0.0
O1169 O 0.42126 0.18269 0.19316 0.0
O1170 O 0.4271 0.17839 0.1625 0.0
C1171 C 0.41972 0.19311 0.19171 0.0
O1172 O 0.38868 0.17405 0.19507 0.0
C1173 C 0.42956 0.16807 0.1633 0.0
O1174 O 0.39964 0.16366 0.18438 0.0
O1175 O 0.42332 0.1621 0.16948 0.0
C1176 C 0.38921 0.30574 0.68843 0.0
O1177 O 0.38519 0.29693 0.69284 0.0
Cd1178 Cd 0.3933 0.27876 0.69092 0.0
O1179 O 0.39815 0.30532 0.6826 0.0
Cd1180 Cd 0.41207 0.29103 0.67649 0.0
C1181 C 0.39184 0.27671 0.66239 0.0
O1182 O 0.41268 0.28252 0.69477 0.0
O1183 O 0.42242 0.27384 0.68238 0.0
O1184 O 0.4253 0.30665 0.67662 0.0
C1185 C 0.41948 0.27472 0.69254 0.0
O1186 O 0.38814 0.27326 0.67179 0.0
C1187 C 0.43001 0.30389 0.66748 0.0
O1188 O 0.40011 0.28338 0.66197 0.0
O1189 O 0.42635 0.29517 0.66259 0.0
C1190 C 0.58832 0.66247 0.68979 0.0
O1191 O 0.59166 0.67193 0.69338 0.0
Cd1192 Cd 0.58223 0.68934 0.69038 0.0
O1193 O 0.57911 0.6615 0.68444 0.0
Cd1194 Cd 0.56335 0.67405 0.67884 0.0
C1195 C 0.57977 0.68992 0.66177 0.0
O1196 O 0.56362 0.68471 0.69598 0.0
O1197 O 0.55202 0.69096 0.6837 0.0
O1198 O 0.54856 0.66042 0.68262 0.0
C1199 C 0.556 0.69163 0.69353 0.0
O1200 O 0.5844 0.69403 0.67046 0.0
C1201 C 0.54512 0.66 0.67255 0.0
O1202 O 0.57226 0.68243 0.66267 0.0
O1203 O 0.55044 0.66577 0.66539 0.0
C1204 C 0.58233 0.30637 0.27834 0.0
O1205 O 0.58654 0.2973 0.27468 0.0
Cd1206 Cd 0.57827 0.27916 0.27607 0.0
O1207 O 0.57293 0.30635 0.28344 0.0
Cd1208 Cd 0.55887 0.29188 0.28891 0.0
C1209 C 0.5773 0.27641 0.3044 0.0
O1210 O 0.5592 0.28282 0.27087 0.0
O1211 O 0.54912 0.27431 0.28311 0.0
O1212 O 0.54289 0.30456 0.28694 0.0
C1213 C 0.55233 0.27507 0.27301 0.0
O1214 O 0.58171 0.27296 0.29532 0.0
C1215 C 0.53985 0.30378 0.2971 0.0
O1216 O 0.56933 0.28347 0.30418 0.0
O1217 O 0.5458 0.2977 0.30347 0.0
C1218 C 0.38512 0.66472 0.27966 0.0
O1219 O 0.38197 0.6733 0.27422 0.0
Cd1220 Cd 0.38938 0.69155 0.27721 0.0
O1221 O 0.39326 0.6652 0.2866 0.0
Cd1222 Cd 0.40768 0.67923 0.29263 0.0
C1223 C 0.3871 0.69358 0.30591 0.0
O1224 O 0.40887 0.68784 0.27439 0.0
O1225 O 0.41876 0.69601 0.28703 0.0
O1226 O 0.42119 0.66381 0.29281 0.0
C1227 C 0.41584 0.69542 0.27684 0.0
O1228 O 0.38317 0.69622 0.29635 0.0
C1229 C 0.4256 0.66665 0.30209 0.0
O1230 O 0.39585 0.68759 0.30675 0.0
O1231 O 0.42146 0.67513 0.307 0.0
C1232 C 0.38651 0.80692 0.18997 0.0
O1233 O 0.38354 0.79821 0.19531 0.0
Cd1234 Cd 0.39198 0.78016 0.19346 0.0
O1235 O 0.39496 0.80682 0.18341 0.0
Cd1236 Cd 0.40993 0.79333 0.17772 0.0
C1237 C 0.39038 0.77695 0.16485 0.0
O1238 O 0.4112 0.78492 0.19593 0.0
O1239 O 0.42147 0.77683 0.18357 0.0
O1240 O 0.424 0.80827 0.17774 0.0
C1241 C 0.41834 0.77744 0.1937 0.0
O1242 O 0.38686 0.77394 0.17447 0.0
C1243 C 0.42749 0.80615 0.16791 0.0
O1244 O 0.39834 0.78396 0.16394 0.0
O1245 O 0.42257 0.79834 0.16262 0.0
C1246 C 0.58197 0.16046 0.18973 0.0
O1247 O 0.58417 0.16956 0.1948 0.0
Cd1248 Cd 0.57432 0.18659 0.19179 0.0
O1249 O 0.57363 0.15971 0.18307 0.0
Cd1250 Cd 0.55782 0.17214 0.177 0.0
C1251 C 0.57612 0.18862 0.1631 0.0
O1252 O 0.55526 0.18129 0.19473 0.0
O1253 O 0.54719 0.18976 0.18106 0.0
O1254 O 0.54317 0.15808 0.17908 0.0
C1255 C 0.54869 0.18896 0.19156 0.0
O1256 O 0.57927 0.19232 0.17262 0.0
C1257 C 0.54007 0.15834 0.1689 0.0
O1258 O 0.56866 0.18105 0.16243 0.0
O1259 O 0.54554 0.16468 0.16236 0.0
C1260 C 0.38865 0.1592 0.77781 0.0
O1261 O 0.38574 0.16807 0.7727 0.0
Cd1262 Cd 0.39434 0.1858 0.77504 0.0
O1263 O 0.3971 0.1592 0.78438 0.0
Cd1264 Cd 0.41174 0.1731 0.79033 0.0
C1265 C 0.3921 0.1887 0.80354 0.0
O1266 O 0.41379 0.18172 0.77224 0.0
O1267 O 0.42145 0.19103 0.78561 0.0
O1268 O 0.42754 0.16013 0.78934 0.0
C1269 C 0.42001 0.18976 0.77516 0.0
O1270 O 0.38856 0.19163 0.79391 0.0
C1271 C 0.43024 0.16113 0.79959 0.0
O1272 O 0.40027 0.18195 0.80451 0.0
O1273 O 0.42405 0.16732 0.80563 0.0
C1274 C 0.58286 0.80891 0.77846 0.0
O1275 O 0.58713 0.8002 0.77404 0.0
Cd1276 Cd 0.57981 0.78157 0.77536 0.0
O1277 O 0.57393 0.80826 0.78429 0.0
Cd1278 Cd 0.56079 0.79331 0.79042 0.0
C1279 C 0.5815 0.77842 0.80363 0.0
O1280 O 0.56021 0.78462 0.77216 0.0
O1281 O 0.55023 0.77625 0.78458 0.0
O1282 O 0.54561 0.80711 0.79131 0.0
C1283 C 0.55342 0.77684 0.77447 0.0
O1284 O 0.58524 0.77525 0.79415 0.0
C1285 C 0.54284 0.80463 0.8013 0.0
O1286 O 0.57321 0.78507 0.80422 0.0
O1287 O 0.5485 0.79703 0.80611 0.0
C1288 C 0.58025 0.6858 0.30801 0.0
O1289 O 0.58477 0.68975 0.29922 0.0
Cd1290 Cd 0.57727 0.68904 0.28075 0.0
O1291 O 0.57089 0.68065 0.30749 0.0
Cd1292 Cd 0.55759 0.67557 0.29211 0.0
C1293 C 0.57717 0.66082 0.27736 0.0
O1294 O 0.55812 0.69406 0.28401 0.0
O1295 O 0.54862 0.68224 0.27434 0.0
O1296 O 0.5418 0.676 0.30525 0.0
C1297 C 0.55171 0.6923 0.27578 0.0
O1298 O 0.58131 0.67007 0.27404 0.0
C1299 C 0.53822 0.66633 0.30255 0.0
O1300 O 0.56904 0.66073 0.28422 0.0
O1301 O 0.54378 0.66102 0.2952 0.0
C1302 C 0.38641 0.27857 0.30679 0.0
O1303 O 0.38228 0.27544 0.29749 0.0
Cd1304 Cd 0.39035 0.27851 0.27949 0.0
O1305 O 0.39565 0.28394 0.30713 0.0
Cd1306 Cd 0.40955 0.2908 0.29309 0.0
C1307 C 0.3904 0.30706 0.27946 0.0
O1308 O 0.40953 0.27351 0.28264 0.0
O1309 O 0.41901 0.28676 0.27493 0.0
O1310 O 0.42547 0.2879 0.30561 0.0
C1311 C 0.41624 0.2765 0.27503 0.0
O1312 O 0.38634 0.29819 0.27515 0.0
C1313 C 0.42869 0.29804 0.30538 0.0
O1314 O 0.39843 0.30649 0.28644 0.0
O1315 O 0.42282 0.30484 0.2997 0.0
C1316 C 0.39142 0.68891 0.65947 0.0
O1317 O 0.38628 0.69217 0.66821 0.0
Cd1318 Cd 0.39238 0.68955 0.68707 0.0
O1319 O 0.40063 0.68353 0.66026 0.0
Cd1320 Cd 0.41273 0.67679 0.67591 0.0
C1321 C 0.39234 0.6611 0.68832 0.0
O1322 O 0.41184 0.69426 0.68607 0.0
O1323 O 0.42051 0.68113 0.69484 0.0
O1324 O 0.43009 0.67897 0.66533 0.0
C1325 C 0.41764 0.69136 0.69443 0.0
O1326 O 0.38791 0.67013 0.69189 0.0
C1327 C 0.43276 0.66868 0.66579 0.0
O1328 O 0.40094 0.66142 0.68206 0.0
O1329 O 0.42599 0.66215 0.67072 0.0
C1330 C 0.57817 0.28009 0.66083 0.0
O1331 O 0.58047 0.27346 0.66882 0.0
Cd1332 Cd 0.57272 0.27539 0.68707 0.0
O1333 O 0.57069 0.28765 0.6619 0.0
Cd1334 Cd 0.55655 0.29339 0.67625 0.0
C1335 C 0.578 0.30334 0.69179 0.0
O1336 O 0.55298 0.27493 0.68351 0.0
O1337 O 0.54673 0.28819 0.69394 0.0
O1338 O 0.54186 0.29535 0.66215 0.0
C1339 C 0.54735 0.27775 0.69201 0.0
O1340 O 0.5806 0.29323 0.69406 0.0
C1341 C 0.53932 0.30534 0.66487 0.0
O1342 O 0.56978 0.30551 0.68539 0.0
O1343 O 0.54498 0.30979 0.6727 0.0
H1344 H 0.0321 0.27808 0.20889 0.0
H1345 H 0.02709 0.26321 0.22223 0.0
H1346 H 0.05662 0.24468 0.21262 0.0
H1347 H 0.06143 0.25917 0.19917 0.0
H1348 H 0.03853 0.23114 0.21445 0.0
H1349 H 0.04237 0.25852 0.25211 0.0
H1350 H 0.03228 0.26267 0.24174 0.0
H1351 H 0.04696 0.26301 0.23845 0.0
C1352 C 0.03748 0.27081 0.20964 0.0
C1353 C 0.04719 0.26982 0.20303 0.0
C1354 C 0.03463 0.26235 0.21727 0.0
C1355 C 0.04155 0.25289 0.2185 0.0
C1356 C 0.05113 0.25187 0.21179 0.0
H1357 H 0.06442 0.21189 0.2689 0.0
H1358 H 0.05864 0.22594 0.25535 0.0
C1359 C 0.0539 0.26021 0.20412 0.0
C1360 C 0.03929 0.2441 0.22698 0.0
H1361 H 0.04032 0.2393 0.25514 0.0
C1362 C 0.03872 0.2329 0.22337 0.0
C1363 C 0.0395 0.24646 0.2386 0.0
C1364 C 0.04038 0.25829 0.24302 0.0
C1365 C 0.03927 0.22397 0.231 0.0
C1366 C 0.04009 0.22634 0.24259 0.0
C1367 C 0.03973 0.23753 0.24624 0.0
C1368 C 0.04317 0.2176 0.25086 0.0
C1369 C 0.03983 0.21214 0.22654 0.0
C1370 C 0.03641 0.20816 0.25283 0.0
C1371 C 0.03981 0.19994 0.26052 0.0
C1372 C 0.04992 0.20118 0.26644 0.0
C1373 C 0.05657 0.2107 0.2645 0.0
C1374 C 0.05325 0.21877 0.25678 0.0
H1375 H 0.04097 0.21191 0.2173 0.0
H1376 H 0.04684 0.20747 0.2305 0.0
H1377 H 0.03192 0.20771 0.22857 0.0
H1378 H 0.0285 0.20718 0.2485 0.0
H1379 H 0.03449 0.19274 0.26193 0.0
H1380 H 0.71192 0.03829 0.18708 0.0
H1381 H 0.7268 0.03533 0.20083 0.0
H1382 H 0.70333 0.04169 0.2276 0.0
H1383 H 0.68833 0.0442 0.21387 0.0
H1384 H 0.734 0.05149 0.21377 0.0
H1385 H 0.72082 0.01648 0.24106 0.0
H1386 H 0.71423 0.01924 0.22772 0.0
H1387 H 0.71014 0.02699 0.24003 0.0
C1388 C 0.70988 0.03874 0.19592 0.0
C1389 C 0.699 0.04152 0.19943 0.0
C1390 C 0.71838 0.03705 0.20376 0.0
C1391 C 0.7162 0.03822 0.21526 0.0
C1392 C 0.70519 0.04046 0.2188 0.0
H1393 H 0.75217 0.05692 0.27357 0.0
H1394 H 0.73873 0.05151 0.25913 0.0
C1395 C 0.69662 0.04197 0.21095 0.0
C1396 C 0.72564 0.03865 0.22334 0.0
H1397 H 0.73465 0.02913 0.24878 0.0
C1398 C 0.73425 0.04642 0.22131 0.0
C1399 C 0.72596 0.03209 0.2332 0.0
C1400 C 0.71734 0.02315 0.23557 0.0
C1401 C 0.74288 0.04815 0.22908 0.0
C1402 C 0.74295 0.0419 0.23912 0.0
C1403 C 0.73455 0.0339 0.24105 0.0
C1404 C 0.75114 0.04428 0.24809 0.0
C1405 C 0.7516 0.05701 0.22674 0.0
C1406 C 0.76256 0.04187 0.24668 0.0
C1407 C 0.77031 0.04495 0.25494 0.0
C1408 C 0.76671 0.05053 0.26469 0.0
C1409 C 0.75522 0.05269 0.26613 0.0
C1410 C 0.74751 0.04956 0.25793 0.0
H1411 H 0.74946 0.06218 0.2193 0.0
H1412 H 0.75257 0.06263 0.2341 0.0
H1413 H 0.7598 0.05292 0.22519 0.0
H1414 H 0.76549 0.03773 0.23915 0.0
H1415 H 0.7791 0.04313 0.25362 0.0
H1416 H 0.92724 0.69054 0.20911 0.0
H1417 H 0.93087 0.70326 0.22493 0.0
H1418 H 0.9159 0.7305 0.20654 0.0
H1419 H 0.91225 0.71798 0.19079 0.0
H1420 H 0.94184 0.72875 0.22415 0.0
H1421 H 0.89761 0.72287 0.23784 0.0
H1422 H 0.90505 0.71238 0.22984 0.0
H1423 H 0.90018 0.7249 0.2231 0.0
C1424 C 0.92487 0.69927 0.20839 0.0
C1425 C 0.91936 0.70324 0.19876 0.0
C1426 C 0.92699 0.70651 0.21739 0.0
C1427 C 0.92364 0.71777 0.21683 0.0
C1428 C 0.91856 0.72183 0.20707 0.0
H1429 H 0.9266 0.77706 0.25814 0.0
H1430 H 0.92985 0.76307 0.2434 0.0
C1431 C 0.91644 0.71464 0.19811 0.0
C1432 C 0.92438 0.72511 0.22675 0.0
H1433 H 0.9081 0.73681 0.24706 0.0
C1434 C 0.93453 0.73047 0.22926 0.0
C1435 C 0.91481 0.72725 0.23334 0.0
C1436 C 0.90378 0.72153 0.23099 0.0
C1437 C 0.93527 0.73816 0.23817 0.0
C1438 C 0.92558 0.74055 0.24456 0.0
C1439 C 0.91552 0.73497 0.24214 0.0
C1440 C 0.92548 0.74885 0.25379 0.0
C1441 C 0.94638 0.74361 0.24071 0.0
C1442 C 0.92205 0.74549 0.2645 0.0
C1443 C 0.92005 0.75343 0.27283 0.0
C1444 C 0.92145 0.76491 0.27062 0.0
C1445 C 0.92547 0.76827 0.26007 0.0
C1446 C 0.9274 0.76028 0.25168 0.0
H1447 H 0.95347 0.73882 0.23704 0.0
H1448 H 0.94648 0.75216 0.23707 0.0
H1449 H 0.94769 0.74437 0.2499 0.0
H1450 H 0.9205 0.73672 0.26629 0.0
H1451 H 0.91706 0.75059 0.28091 0.0
H1452 H 0.28282 0.9224 0.21386 0.0
H1453 H 0.26822 0.92396 0.22827 0.0
H1454 H 0.24418 0.93318 0.20289 0.0
H1455 H 0.25858 0.93119 0.18848 0.0
H1456 H 0.25324 0.94 0.23573 0.0
H1457 H 0.23083 0.90466 0.2154 0.0
H1458 H 0.24484 0.90869 0.21147 0.0
H1459 H 0.23297 0.91637 0.20622 0.0
C1460 C 0.27447 0.92496 0.21142 0.0
C1461 C 0.27175 0.9265 0.20007 0.0
C1462 C 0.26614 0.92583 0.21963 0.0
C1463 C 0.25506 0.92837 0.21659 0.0
C1464 C 0.2526 0.93088 0.20537 0.0
H1465 H 0.19203 0.92731 0.2536 0.0
H1466 H 0.20677 0.93172 0.23995 0.0
C1467 C 0.26084 0.92981 0.19716 0.0
C1468 C 0.2459 0.92754 0.22492 0.0
H1469 H 0.22153 0.91362 0.23044 0.0
C1470 C 0.2463 0.93425 0.23458 0.0
C1471 C 0.23691 0.91993 0.22344 0.0
C1472 C 0.23639 0.91192 0.21364 0.0
C1473 C 0.23786 0.93363 0.24275 0.0
C1474 C 0.22884 0.92612 0.24117 0.0
C1475 C 0.2284 0.91947 0.2315 0.0
C1476 C 0.22014 0.92442 0.24977 0.0
C1477 C 0.23858 0.94097 0.25302 0.0
C1478 C 0.22283 0.91883 0.25973 0.0
C1479 C 0.21446 0.91619 0.26744 0.0
C1480 C 0.20324 0.91913 0.26533 0.0
C1481 C 0.2006 0.92496 0.25545 0.0
C1482 C 0.20899 0.9275 0.24767 0.0
H1483 H 0.24482 0.9478 0.25198 0.0
H1484 H 0.23028 0.94472 0.25494 0.0
H1485 H 0.24112 0.93578 0.26031 0.0
H1486 H 0.23137 0.91624 0.2614 0.0
H1487 H 0.21676 0.91171 0.27499 0.0
H1488 H 0.04034 0.69062 0.75883 0.0
H1489 H 0.03621 0.7036 0.74335 0.0
H1490 H 0.05669 0.72887 0.75907 0.0
H1491 H 0.06086 0.71609 0.77445 0.0
H1492 H 0.02749 0.72826 0.7446 0.0
H1493 H 0.06993 0.72203 0.72647 0.0
H1494 H 0.06351 0.71201 0.73582 0.0
H1495 H 0.06953 0.72467 0.74131 0.0
C1496 C 0.04388 0.69897 0.759 0.0
C1497 C 0.05101 0.7023 0.76779 0.0
C1498 C 0.04149 0.70636 0.7502 0.0
C1499 C 0.04622 0.71712 0.7501 0.0
C1500 C 0.05303 0.72056 0.75901 0.0
H1501 H 0.04046 0.77875 0.71391 0.0
H1502 H 0.03802 0.76337 0.7273 0.0
C1503 C 0.05541 0.71323 0.76777 0.0
C1504 C 0.04467 0.72468 0.74044 0.0
H1505 H 0.05938 0.73737 0.71955 0.0
C1506 C 0.03438 0.73018 0.739 0.0
C1507 C 0.05367 0.72705 0.73315 0.0
C1508 C 0.06477 0.72108 0.73416 0.0
C1509 C 0.033 0.73835 0.73063 0.0
C1510 C 0.0422 0.74112 0.72369 0.0
C1511 C 0.05234 0.73528 0.72491 0.0
C1512 C 0.04178 0.75026 0.71531 0.0
C1513 C 0.02177 0.74398 0.72931 0.0
C1514 C 0.04463 0.74799 0.70414 0.0
C1515 C 0.04619 0.75674 0.69656 0.0
C1516 C 0.04492 0.76794 0.7 0.0
C1517 C 0.04147 0.7702 0.71103 0.0
C1518 C 0.03999 0.76141 0.71866 0.0
H1519 H 0.01492 0.73877 0.73286 0.0
H1520 H 0.02186 0.75209 0.73388 0.0
H1521 H 0.01991 0.7457 0.72036 0.0
H1522 H 0.04608 0.73945 0.70139 0.0
H1523 H 0.04876 0.75473 0.68808 0.0
H1524 H 0.28076 0.04688 0.75697 0.0
H1525 H 0.26656 0.04463 0.74227 0.0
H1526 H 0.24158 0.03774 0.76745 0.0
H1527 H 0.25559 0.04045 0.78214 0.0
H1528 H 0.25156 0.02846 0.73541 0.0
H1529 H 0.22913 0.06546 0.75256 0.0
H1530 H 0.24291 0.06146 0.75726 0.0
H1531 H 0.23072 0.05433 0.76253 0.0
C1532 C 0.27227 0.04471 0.75933 0.0
C1533 C 0.26919 0.04402 0.77067 0.0
C1534 C 0.26418 0.04343 0.75094 0.0
C1535 C 0.25296 0.04133 0.7538 0.0
C1536 C 0.25011 0.0397 0.76508 0.0
H1537 H 0.19135 0.04321 0.71449 0.0
H1538 H 0.20533 0.03843 0.72879 0.0
C1539 C 0.25813 0.04118 0.77346 0.0
C1540 C 0.24409 0.04174 0.74511 0.0
H1541 H 0.22032 0.05582 0.73769 0.0
C1542 C 0.24471 0.03442 0.73591 0.0
C1543 C 0.23522 0.04961 0.74574 0.0
C1544 C 0.23449 0.05824 0.75498 0.0
C1545 C 0.23662 0.03471 0.72736 0.0
C1546 C 0.22775 0.04252 0.72806 0.0
C1547 C 0.22707 0.04975 0.7373 0.0
C1548 C 0.2195 0.04399 0.71896 0.0
C1549 C 0.2376 0.02671 0.71762 0.0
C1550 C 0.22289 0.04865 0.70873 0.0
C1551 C 0.21495 0.05149 0.70064 0.0
C1552 C 0.20348 0.04971 0.70262 0.0
C1553 C 0.20013 0.04467 0.71273 0.0
C1554 C 0.20809 0.04193 0.72088 0.0
H1555 H 0.24337 0.01965 0.71949 0.0
H1556 H 0.22926 0.02327 0.71534 0.0
H1557 H 0.24091 0.03128 0.71023 0.0
H1558 H 0.23164 0.05048 0.70719 0.0
H1559 H 0.21778 0.05533 0.69292 0.0
H1560 H 0.91446 0.21369 0.69127 0.0
H1561 H 0.91753 0.22799 0.70552 0.0
H1562 H 0.93053 0.20293 0.72807 0.0
H1563 H 0.92756 0.18844 0.7137 0.0
H1564 H 0.90658 0.22656 0.72652 0.0
H1565 H 0.95288 0.22994 0.7308 0.0
H1566 H 0.94624 0.22415 0.71848 0.0
H1567 H 0.94702 0.21604 0.7311 0.0
C1568 C 0.91812 0.21121 0.6992 0.0
C1569 C 0.92068 0.19992 0.70142 0.0
C1570 C 0.9199 0.21941 0.70731 0.0
C1571 C 0.9243 0.21652 0.7178 0.0
C1572 C 0.92728 0.20533 0.71995 0.0
H1573 H 0.9131 0.25476 0.77806 0.0
H1574 H 0.91625 0.23986 0.76441 0.0
C1575 C 0.92552 0.19707 0.71177 0.0
C1576 C 0.92455 0.22507 0.72676 0.0
H1577 H 0.94186 0.24063 0.74345 0.0
C1578 C 0.91429 0.22963 0.73023 0.0
C1579 C 0.93464 0.22908 0.73149 0.0
C1580 C 0.94586 0.22464 0.72776 0.0
C1581 C 0.91382 0.2381 0.73833 0.0
C1582 C 0.92388 0.24202 0.74319 0.0
C1583 C 0.93418 0.23753 0.73971 0.0
C1584 C 0.92367 0.25074 0.75197 0.0
C1585 C 0.90257 0.24291 0.74154 0.0
C1586 C 0.92718 0.26171 0.74961 0.0
C1587 C 0.9254 0.27029 0.75742 0.0
C1588 C 0.92006 0.26797 0.76766 0.0
C1589 C 0.91711 0.25684 0.77019 0.0
C1590 C 0.91893 0.24831 0.76243 0.0
H1591 H 0.89594 0.24064 0.7354 0.0
H1592 H 0.90007 0.23958 0.74985 0.0
H1593 H 0.903 0.25218 0.74218 0.0
H1594 H 0.93085 0.26371 0.74155 0.0
H1595 H 0.9278 0.27877 0.75528 0.0
H1596 H 0.71392 0.92623 0.78178 0.0
H1597 H 0.72773 0.92958 0.7671 0.0
H1598 H 0.70162 0.92796 0.74212 0.0
H1599 H 0.68766 0.92508 0.75692 0.0
H1600 H 0.7324 0.91446 0.75188 0.0
H1601 H 0.71992 0.95349 0.73008 0.0
H1602 H 0.71426 0.94958 0.74355 0.0
H1603 H 0.70874 0.94348 0.7309 0.0
C1604 C 0.7111 0.92686 0.77317 0.0
C1605 C 0.69976 0.92535 0.77045 0.0
C1606 C 0.71899 0.92878 0.76479 0.0
C1607 C 0.71573 0.92907 0.7535 0.0
C1608 C 0.70432 0.92803 0.75078 0.0
H1609 H 0.75059 0.91393 0.6929 0.0
H1610 H 0.73692 0.91861 0.70742 0.0
C1611 C 0.69635 0.92632 0.75923 0.0
C1612 C 0.72445 0.92898 0.74465 0.0
H1613 H 0.73307 0.94163 0.72045 0.0
C1614 C 0.73263 0.92052 0.74512 0.0
C1615 C 0.72472 0.93685 0.73577 0.0
C1616 C 0.7165 0.94643 0.73508 0.0
C1617 C 0.7409 0.91956 0.73687 0.0
C1618 C 0.74102 0.92725 0.7279 0.0
C1619 C 0.73294 0.93578 0.72741 0.0
C1620 C 0.74909 0.92598 0.71863 0.0
C1621 C 0.74931 0.91013 0.73759 0.0
C1622 C 0.7604 0.92879 0.72011 0.0
C1623 C 0.76826 0.92614 0.71182 0.0
C1624 C 0.76488 0.92056 0.70201 0.0
C1625 C 0.75346 0.91816 0.70041 0.0
C1626 C 0.74562 0.92088 0.70865 0.0
H1627 H 0.74743 0.90425 0.74456 0.0
H1628 H 0.74945 0.90534 0.7296 0.0
H1629 H 0.7578 0.91365 0.73892 0.0
H1630 H 0.76319 0.9327 0.72782 0.0
H1631 H 0.777 0.92811 0.71327 0.0
H1632 H 0.28318 0.04111 0.21207 0.0
H1633 H 0.26864 0.03827 0.22616 0.0
H1634 H 0.24322 0.04409 0.20109 0.0
H1635 H 0.25784 0.04642 0.18682 0.0
H1636 H 0.25559 0.05508 0.23183 0.0
H1637 H 0.22868 0.01949 0.21893 0.0
H1638 H 0.24234 0.02189 0.21291 0.0
H1639 H 0.23041 0.02976 0.20811 0.0
C1640 C 0.27447 0.04141 0.20951 0.0
C1641 C 0.27158 0.044 0.19841 0.0
C1642 C 0.26618 0.0398 0.21755 0.0
C1643 C 0.25483 0.04095 0.2147 0.0
C1644 C 0.2519 0.04292 0.20345 0.0
H1645 H 0.19625 0.05849 0.2525 0.0
H1646 H 0.20992 0.0535 0.2381 0.0
C1647 C 0.26024 0.0443 0.19531 0.0
C1648 C 0.24637 0.04179 0.22376 0.0
H1649 H 0.22122 0.03178 0.23303 0.0
C1650 C 0.24816 0.04985 0.23216 0.0
C1651 C 0.23662 0.03506 0.22413 0.0
C1652 C 0.23443 0.02599 0.21559 0.0
C1653 C 0.24042 0.05151 0.2408 0.0
C1654 C 0.23064 0.04488 0.24112 0.0
C1655 C 0.2288 0.03679 0.23276 0.0
C1656 C 0.222 0.04673 0.24978 0.0
C1657 C 0.2426 0.06058 0.24937 0.0
C1658 C 0.22423 0.04439 0.26109 0.0
C1659 C 0.21645 0.04725 0.26936 0.0
C1660 C 0.20633 0.05252 0.26642 0.0
C1661 C 0.204 0.05452 0.25504 0.0
C1662 C 0.21176 0.05161 0.24679 0.0
H1663 H 0.24953 0.06624 0.24681 0.0
H1664 H 0.23494 0.0657 0.25074 0.0
H1665 H 0.2449 0.05666 0.25748 0.0
H1666 H 0.23209 0.04055 0.26352 0.0
H1667 H 0.21844 0.04555 0.27805 0.0
H1668 H 0.92821 0.25687 0.18869 0.0
H1669 H 0.93098 0.24193 0.20258 0.0
H1670 H 0.91977 0.26416 0.22878 0.0
H1671 H 0.91696 0.27906 0.21506 0.0
H1672 H 0.94364 0.24212 0.22552 0.0
H1673 H 0.89744 0.23614 0.22698 0.0
H1674 H 0.90439 0.24287 0.21535 0.0
H1675 H 0.90235 0.25034 0.22826 0.0
C1676 C 0.92649 0.25861 0.19743 0.0
C1677 C 0.92223 0.26909 0.20077 0.0
C1678 C 0.92811 0.25009 0.20534 0.0
C1679 C 0.92549 0.25197 0.21665 0.0
C1680 C 0.92178 0.26257 0.22006 0.0
H1681 H 0.93087 0.21348 0.27791 0.0
H1682 H 0.93374 0.2272 0.26286 0.0
C1683 C 0.92015 0.27105 0.2122 0.0
C1684 C 0.92564 0.24267 0.22479 0.0
H1685 H 0.90818 0.22635 0.24039 0.0
C1686 C 0.93592 0.23859 0.22875 0.0
C1687 C 0.91553 0.23809 0.22887 0.0
C1688 C 0.90427 0.24199 0.22462 0.0
C1689 C 0.93633 0.23013 0.23694 0.0
C1690 C 0.92619 0.22579 0.24126 0.0
C1691 C 0.91594 0.22975 0.2371 0.0
C1692 C 0.92587 0.21705 0.25004 0.0
C1693 C 0.94755 0.22585 0.24085 0.0
C1694 C 0.92054 0.20683 0.24779 0.0
C1695 C 0.91881 0.19907 0.25633 0.0
C1696 C 0.92234 0.2014 0.26733 0.0
C1697 C 0.92806 0.21146 0.26951 0.0
C1698 C 0.92978 0.21926 0.26092 0.0
H1699 H 0.95437 0.22815 0.23496 0.0
H1700 H 0.94951 0.22955 0.24915 0.0
H1701 H 0.9474 0.21659 0.2418 0.0
H1702 H 0.91744 0.20499 0.23945 0.0
H1703 H 0.91444 0.19136 0.25436 0.0
H1704 H 0.71388 0.92545 0.1877 0.0
H1705 H 0.72887 0.92665 0.20176 0.0
H1706 H 0.70419 0.93166 0.22768 0.0
H1707 H 0.68923 0.93004 0.21378 0.0
H1708 H 0.73604 0.94149 0.21874 0.0
H1709 H 0.71882 0.90207 0.23638 0.0
H1710 H 0.71429 0.90766 0.22309 0.0
H1711 H 0.70878 0.91325 0.23598 0.0
C1712 C 0.7117 0.92709 0.19636 0.0
C1713 C 0.70044 0.92749 0.19973 0.0
C1714 C 0.72025 0.92775 0.20437 0.0
C1715 C 0.71759 0.92894 0.21578 0.0
C1716 C 0.70638 0.93045 0.21895 0.0
H1717 H 0.75484 0.92444 0.27803 0.0
H1718 H 0.74143 0.92963 0.26333 0.0
C1719 C 0.69787 0.92958 0.21101 0.0
C1720 C 0.7263 0.92742 0.22448 0.0
H1721 H 0.73328 0.91086 0.24675 0.0
C1722 C 0.73546 0.93479 0.22486 0.0
C1723 C 0.72559 0.91856 0.23235 0.0
C1724 C 0.71641 0.90986 0.23189 0.0
C1725 C 0.74381 0.93366 0.2331 0.0
C1726 C 0.74289 0.925 0.24109 0.0
C1727 C 0.73381 0.9176 0.24067 0.0
C1728 C 0.75149 0.92307 0.24975 0.0
C1729 C 0.75352 0.94172 0.23331 0.0
C1730 C 0.76151 0.91767 0.24691 0.0
C1731 C 0.76909 0.91458 0.25526 0.0
C1732 C 0.76677 0.91687 0.26659 0.0
C1733 C 0.75685 0.92257 0.26938 0.0
C1734 C 0.74921 0.92556 0.26101 0.0
H1735 H 0.75238 0.94876 0.22732 0.0
H1736 H 0.75462 0.94519 0.24188 0.0
H1737 H 0.76133 0.93718 0.2311 0.0
H1738 H 0.76331 0.91556 0.23826 0.0
H1739 H 0.77669 0.91024 0.25285 0.0
H1740 H 0.04675 0.71173 0.19077 0.0
H1741 H 0.04483 0.72635 0.20511 0.0
H1742 H 0.04068 0.70094 0.23048 0.0
H1743 H 0.043 0.68634 0.21629 0.0
H1744 H 0.02906 0.73225 0.22099 0.0
H1745 H 0.06815 0.71746 0.24144 0.0
H1746 H 0.06372 0.71249 0.22787 0.0
H1747 H 0.05753 0.70687 0.24042 0.0
C1748 C 0.04527 0.70928 0.19938 0.0
C1749 C 0.04521 0.69792 0.20247 0.0
C1750 C 0.04418 0.71763 0.20756 0.0
C1751 C 0.04292 0.71471 0.21889 0.0
C1752 C 0.04198 0.70337 0.22183 0.0
H1753 H 0.04581 0.75537 0.27993 0.0
H1754 H 0.04162 0.7402 0.26663 0.0
C1755 C 0.04325 0.69505 0.21371 0.0
C1756 C 0.04331 0.72345 0.22772 0.0
H1757 H 0.05824 0.73192 0.25063 0.0
C1758 C 0.03541 0.73217 0.22749 0.0
C1759 C 0.05166 0.72335 0.23615 0.0
C1760 C 0.06081 0.71461 0.23645 0.0
C1761 C 0.03565 0.74079 0.23551 0.0
C1762 C 0.044 0.74067 0.24391 0.0
C1763 C 0.05177 0.73188 0.24424 0.0
C1764 C 0.04544 0.75003 0.25189 0.0
C1765 C 0.027 0.74999 0.23495 0.0
C1766 C 0.04901 0.76049 0.24797 0.0
C1767 C 0.05152 0.76908 0.2555 0.0
C1768 C 0.05048 0.76736 0.26711 0.0
C1769 C 0.04667 0.75693 0.27104 0.0
C1770 C 0.04426 0.74829 0.26347 0.0
H1771 H 0.01964 0.7475 0.22982 0.0
H1772 H 0.02409 0.75232 0.24348 0.0
H1773 H 0.0308 0.75753 0.23107 0.0
H1774 H 0.05018 0.76192 0.23908 0.0
H1775 H 0.05442 0.77703 0.25222 0.0
H1776 H 0.21161 0.9275 0.68742 0.0
H1777 H 0.22713 0.92932 0.70083 0.0
H1778 H 0.20431 0.92328 0.72815 0.0
H1779 H 0.18884 0.92139 0.71491 0.0
H1780 H 0.2298 0.94324 0.72256 0.0
H1781 H 0.22837 0.89688 0.72754 0.0
H1782 H 0.22225 0.90398 0.71566 0.0
H1783 H 0.2152 0.90408 0.72895 0.0
C1784 C 0.20988 0.92677 0.69629 0.0
C1785 C 0.19905 0.92414 0.70011 0.0
C1786 C 0.21873 0.92784 0.70393 0.0
C1787 C 0.21683 0.92631 0.71542 0.0
C1788 C 0.20592 0.92439 0.71928 0.0
H1789 H 0.25849 0.9301 0.77482 0.0
H1790 H 0.24449 0.9337 0.7602 0.0
C1791 C 0.19711 0.9233 0.7117 0.0
C1792 C 0.2263 0.92556 0.72334 0.0
H1793 H 0.24025 0.90686 0.73983 0.0
C1794 C 0.23216 0.9353 0.72632 0.0
C1795 C 0.22936 0.91516 0.7281 0.0
C1796 C 0.22355 0.90439 0.72487 0.0
C1797 C 0.24091 0.93493 0.7342 0.0
C1798 C 0.24374 0.92456 0.7392 0.0
C1799 C 0.238 0.91481 0.73602 0.0
C1800 C 0.25271 0.92348 0.74767 0.0
C1801 C 0.24714 0.94555 0.73704 0.0
C1802 C 0.26191 0.91652 0.74545 0.0
C1803 C 0.26984 0.9144 0.75377 0.0
C1804 C 0.26868 0.91914 0.7645 0.0
C1805 C 0.2596 0.92634 0.76663 0.0
C1806 C 0.25165 0.92847 0.75828 0.0
H1807 H 0.24564 0.95223 0.73074 0.0
H1808 H 0.24426 0.94867 0.74532 0.0
H1809 H 0.25628 0.94394 0.73762 0.0
H1810 H 0.26284 0.91255 0.73734 0.0
H1811 H 0.27675 0.90885 0.75183 0.0
H1812 H 0.0461 0.21454 0.68721 0.0
H1813 H 0.04381 0.22879 0.7019 0.0
H1814 H 0.03887 0.20271 0.72643 0.0
H1815 H 0.04156 0.1885 0.71191 0.0
H1816 H 0.02792 0.23445 0.71826 0.0
H1817 H 0.06706 0.21825 0.73752 0.0
H1818 H 0.06241 0.21398 0.72379 0.0
H1819 H 0.05629 0.20786 0.73612 0.0
C1820 C 0.04429 0.21189 0.6957 0.0
C1821 C 0.04418 0.20046 0.6985 0.0
C1822 C 0.043 0.22001 0.70408 0.0
C1823 C 0.04149 0.21677 0.71529 0.0
C1824 C 0.04035 0.20537 0.71788 0.0
H1825 H 0.04591 0.25397 0.77819 0.0
H1826 H 0.0414 0.2397 0.76406 0.0
C1827 C 0.04183 0.19728 0.70958 0.0
C1828 C 0.04212 0.22517 0.72441 0.0
H1829 H 0.05745 0.23239 0.74748 0.0
C1830 C 0.03435 0.234 0.72466 0.0
C1831 C 0.0506 0.2246 0.73271 0.0
C1832 C 0.05963 0.21574 0.7325 0.0
C1833 C 0.03478 0.24223 0.73309 0.0
C1834 C 0.04322 0.2416 0.74137 0.0
C1835 C 0.05091 0.23274 0.74118 0.0
C1836 C 0.04481 0.25047 0.74988 0.0
C1837 C 0.02621 0.25152 0.73309 0.0
C1838 C 0.04825 0.26118 0.74655 0.0
C1839 C 0.05092 0.26928 0.75456 0.0
C1840 C 0.0502 0.2668 0.76606 0.0
C1841 C 0.04653 0.25612 0.76939 0.0
C1842 C 0.04393 0.24798 0.76135 0.0
H1843 H 0.01875 0.24932 0.72797 0.0
H1844 H 0.02346 0.2535 0.74176 0.0
H1845 H 0.03002 0.25919 0.72948 0.0
H1846 H 0.0492 0.26319 0.73775 0.0
H1847 H 0.05371 0.27743 0.75172 0.0
H1848 H 0.75474 0.04438 0.68895 0.0
H1849 H 0.74041 0.04288 0.70363 0.0
H1850 H 0.76632 0.04095 0.72877 0.0
H1851 H 0.7806 0.04289 0.71423 0.0
H1852 H 0.73507 0.02817 0.72079 0.0
H1853 H 0.74954 0.06898 0.73788 0.0
H1854 H 0.7543 0.0636 0.72458 0.0
H1855 H 0.76033 0.05852 0.73744 0.0
C1856 C 0.75735 0.04344 0.69759 0.0
C1857 C 0.76874 0.04394 0.70051 0.0
C1858 C 0.74918 0.04259 0.70596 0.0
C1859 C 0.75232 0.04212 0.7173 0.0
C1860 C 0.76372 0.04164 0.7201 0.0
H1861 H 0.7136 0.04809 0.77913 0.0
H1862 H 0.72824 0.04318 0.76553 0.0
C1863 C 0.77186 0.04269 0.71179 0.0
C1864 C 0.74377 0.04303 0.72624 0.0
H1865 H 0.73562 0.05948 0.74821 0.0
C1866 C 0.73519 0.035 0.7268 0.0
C1867 C 0.7439 0.05201 0.73402 0.0
C1868 C 0.75244 0.06133 0.73341 0.0
C1869 C 0.72679 0.03568 0.73501 0.0
C1870 C 0.727 0.04461 0.74278 0.0
C1871 C 0.73561 0.05256 0.7423 0.0
C1872 C 0.71792 0.04642 0.75098 0.0
C1873 C 0.71773 0.02688 0.73533 0.0
C1874 C 0.70735 0.04989 0.74726 0.0
C1875 C 0.69906 0.05282 0.75496 0.0
C1876 C 0.70119 0.0523 0.76654 0.0
C1877 C 0.71172 0.04856 0.77027 0.0
C1878 C 0.72006 0.04573 0.76253 0.0
H1879 H 0.72003 0.01933 0.73039 0.0
H1880 H 0.71595 0.02434 0.7441 0.0
H1881 H 0.70991 0.03042 0.73175 0.0
H1882 H 0.70561 0.05066 0.73838 0.0
H1883 H 0.69102 0.05564 0.75183 0.0
H1884 H 0.92718 0.78353 0.71393 0.0
H1885 H 0.92975 0.76894 0.72803 0.0
H1886 H 0.92413 0.74359 0.70282 0.0
H1887 H 0.92203 0.75822 0.68857 0.0
H1888 H 0.91315 0.75569 0.73375 0.0
H1889 H 0.94885 0.72916 0.7205 0.0
H1890 H 0.9463 0.74285 0.71458 0.0
H1891 H 0.9386 0.73084 0.70964 0.0
C1892 C 0.92683 0.77483 0.71135 0.0
C1893 C 0.92438 0.77197 0.7002 0.0
C1894 C 0.92829 0.7665 0.7194 0.0
C1895 C 0.92717 0.75516 0.7165 0.0
C1896 C 0.92529 0.75226 0.70523 0.0
H1897 H 0.90925 0.69584 0.75243 0.0
H1898 H 0.91405 0.71019 0.73867 0.0
C1899 C 0.92403 0.76062 0.6971 0.0
C1900 C 0.92642 0.74661 0.72549 0.0
H1901 H 0.93642 0.72124 0.73422 0.0
C1902 C 0.91838 0.74825 0.73394 0.0
C1903 C 0.93317 0.73686 0.72569 0.0
C1904 C 0.94229 0.73486 0.71717 0.0
C1905 C 0.91672 0.74031 0.74241 0.0
C1906 C 0.9233 0.73048 0.74247 0.0
C1907 C 0.93142 0.72884 0.73413 0.0
C1908 C 0.92132 0.72154 0.75079 0.0
C1909 C 0.90768 0.74229 0.75103 0.0
C1910 C 0.92395 0.72316 0.76214 0.0
C1911 C 0.92122 0.71497 0.77006 0.0
C1912 C 0.91577 0.70507 0.76671 0.0
C1913 C 0.91338 0.70341 0.75529 0.0
C1914 C 0.91617 0.71156 0.7474 0.0
H1915 H 0.90225 0.74954 0.74885 0.0
H1916 H 0.90234 0.73472 0.7519 0.0
H1917 H 0.91161 0.74397 0.75929 0.0
H1918 H 0.92797 0.73083 0.76487 0.0
H1919 H 0.92321 0.71645 0.77879 0.0
H1920 H 0.21558 0.27629 0.05633 0.0
H1921 H 0.2291 0.26147 0.05245 0.0
H1922 H 0.20291 0.24098 0.03835 0.0
H1923 H 0.18918 0.25585 0.04224 0.0
H1924 H 0.22479 0.23842 0.06211 0.0
H1925 H 0.23159 0.23997 0.01593 0.0
H1926 H 0.22738 0.2522 0.02384 0.0
H1927 H 0.21751 0.24118 0.02132 0.0
C1928 C 0.21268 0.2687 0.05227 0.0
C1929 C 0.20129 0.26719 0.04968 0.0
C1930 C 0.22044 0.26027 0.05002 0.0
C1931 C 0.21699 0.2502 0.04507 0.0
C1932 C 0.20571 0.24877 0.04207 0.0
H1933 H 0.25272 0.1875 0.05129 0.0
H1934 H 0.23823 0.20168 0.0486 0.0
C1935 C 0.19789 0.25724 0.04435 0.0
C1936 C 0.22503 0.24084 0.04425 0.0
H1937 H 0.24156 0.22616 0.02607 0.0
C1938 C 0.22842 0.23569 0.05424 0.0
C1939 C 0.22977 0.23743 0.03396 0.0
C1940 C 0.22646 0.24296 0.0231 0.0
C1941 C 0.23651 0.22719 0.05423 0.0
C1942 C 0.24123 0.22369 0.04394 0.0
C1943 C 0.23786 0.22885 0.03392 0.0
C1944 C 0.24976 0.21473 0.04363 0.0
C1945 C 0.24011 0.22218 0.06528 0.0
C1946 C 0.26099 0.21727 0.04123 0.0
C1947 C 0.26932 0.20915 0.04272 0.0
C1948 C 0.2665 0.19841 0.04667 0.0
C1949 C 0.25516 0.19574 0.04839 0.0
C1950 C 0.24687 0.20382 0.04684 0.0
H1951 H 0.23745 0.22741 0.07252 0.0
H1952 H 0.23625 0.21377 0.06623 0.0
H1953 H 0.24935 0.22115 0.06559 0.0
H1954 H 0.26335 0.22567 0.03873 0.0
H1955 H 0.27799 0.21142 0.04128 0.0
H1956 H 0.18984 0.71463 0.92526 0.0
H1957 H 0.20468 0.72875 0.9271 0.0
H1958 H 0.22901 0.70251 0.93231 0.0
H1959 H 0.21433 0.68841 0.93001 0.0
H1960 H 0.22078 0.73475 0.94252 0.0
H1961 H 0.24055 0.71727 0.90416 0.0
H1962 H 0.22684 0.71303 0.90883 0.0
H1963 H 0.23919 0.70728 0.9153 0.0
C1964 C 0.19832 0.71191 0.92701 0.0
C1965 C 0.20101 0.70046 0.92732 0.0
C1966 C 0.20679 0.71997 0.92804 0.0
C1967 C 0.21799 0.71665 0.92951 0.0
C1968 C 0.22048 0.70524 0.93083 0.0
H1969 H 0.27994 0.75591 0.92469 0.0
H1970 H 0.26647 0.74115 0.9297 0.0
C1971 C 0.21209 0.6972 0.92959 0.0
C1972 C 0.22714 0.72499 0.92872 0.0
H1973 H 0.25016 0.73197 0.91322 0.0
C1974 C 0.22723 0.73412 0.93615 0.0
C1975 C 0.23551 0.72419 0.92034 0.0
C1976 C 0.23549 0.71498 0.91163 0.0
C1977 C 0.23547 0.74248 0.93539 0.0
C1978 C 0.24378 0.74167 0.927 0.0
C1979 C 0.24383 0.73245 0.91973 0.0
C1980 C 0.25188 0.75078 0.92491 0.0
C1981 C 0.23522 0.75219 0.9435 0.0
C1982 C 0.24808 0.76097 0.92049 0.0
C1983 C 0.25571 0.7693 0.9175 0.0
C1984 C 0.26728 0.7676 0.91892 0.0
C1985 C 0.27107 0.75745 0.92352 0.0
C1986 C 0.26341 0.74904 0.92641 0.0
H1987 H 0.22998 0.75033 0.95096 0.0
H1988 H 0.24382 0.75436 0.94631 0.0
H1989 H 0.23164 0.75964 0.93923 0.0
H1990 H 0.23923 0.76237 0.91909 0.0
H1991 H 0.25252 0.77704 0.914 0.0
H1992 H 0.19271 0.25513 0.91652 0.0
H1993 H 0.20738 0.24109 0.91876 0.0
H1994 H 0.22894 0.26585 0.93385 0.0
H1995 H 0.21422 0.28007 0.93165 0.0
H1996 H 0.22908 0.24434 0.90837 0.0
H1997 H 0.23148 0.23705 0.9544 0.0
H1998 H 0.2191 0.24264 0.94768 0.0
H1999 H 0.23115 0.25138 0.94967 0.0
C2000 C 0.2005 0.25759 0.92047 0.0
C2001 C 0.20234 0.26874 0.92383 0.0
C2002 C 0.20886 0.24954 0.92175 0.0
C2003 C 0.21919 0.25243 0.92651 0.0
C2004 C 0.22095 0.26344 0.93029 0.0
H2005 H 0.2814 0.21704 0.91543 0.0
H2006 H 0.26706 0.23127 0.91871 0.0
C2007 C 0.21256 0.27155 0.92898 0.0
C2008 C 0.22842 0.24417 0.9264 0.0
H2009 H 0.24484 0.22769 0.94307 0.0
C2010 C 0.23255 0.24071 0.91595 0.0
C2011 C 0.23282 0.23943 0.93631 0.0
C2012 C 0.22841 0.24272 0.94768 0.0
C2013 C 0.24101 0.23263 0.91514 0.0
C2014 C 0.24553 0.22796 0.92504 0.0
C2015 C 0.24137 0.23135 0.93551 0.0
C2016 C 0.25457 0.21952 0.92452 0.0
C2017 C 0.24497 0.22901 0.90368 0.0
C2018 C 0.25236 0.20826 0.92706 0.0
C2019 C 0.26055 0.20007 0.92518 0.0
C2020 C 0.27104 0.20307 0.92076 0.0
C2021 C 0.27336 0.21444 0.91875 0.0
C2022 C 0.2652 0.2226 0.92063 0.0
H2023 H 0.23914 0.23174 0.89695 0.0
H2024 H 0.2533 0.23277 0.90199 0.0
H2025 H 0.24587 0.21975 0.90327 0.0
H2026 H 0.24418 0.20576 0.93008 0.0
H2027 H 0.25854 0.19138 0.92686 0.0
H2028 H 0.68859 0.21312 0.92557 0.0
H2029 H 0.70347 0.22719 0.92741 0.0
H2030 H 0.72763 0.2009 0.9331 0.0
H2031 H 0.71291 0.18683 0.9308 0.0
H2032 H 0.7192 0.23324 0.94304 0.0
H2033 H 0.73989 0.21558 0.90529 0.0
H2034 H 0.72607 0.21135 0.90965 0.0
H2035 H 0.73827 0.20559 0.91639 0.0
C2036 C 0.69705 0.21038 0.9274 0.0
C2037 C 0.69967 0.19891 0.92786 0.0
C2038 C 0.70554 0.21841 0.92843 0.0
C2039 C 0.7167 0.21506 0.93007 0.0
C2040 C 0.71913 0.20364 0.93149 0.0
H2041 H 0.77944 0.25292 0.92726 0.0
H2042 H 0.76534 0.23862 0.93174 0.0
C2043 C 0.71072 0.19563 0.93025 0.0
C2044 C 0.7259 0.22338 0.92947 0.0
H2045 H 0.74949 0.23008 0.91473 0.0
C2046 C 0.72584 0.23254 0.93688 0.0
C2047 C 0.73451 0.2225 0.92134 0.0
C2048 C 0.73467 0.2133 0.91264 0.0
C2049 C 0.73421 0.2408 0.9364 0.0
C2050 C 0.74279 0.23986 0.9283 0.0
C2051 C 0.74295 0.23066 0.92101 0.0
C2052 C 0.75122 0.24877 0.92662 0.0
C2053 C 0.73381 0.2505 0.9445 0.0
C2054 C 0.74791 0.25913 0.92221 0.0
C2055 C 0.7559 0.26723 0.91954 0.0
C2056 C 0.76737 0.26511 0.92125 0.0
C2057 C 0.77067 0.25479 0.92588 0.0
C2058 C 0.76264 0.24664 0.92845 0.0
H2059 H 0.72826 0.24873 0.95176 0.0
H2060 H 0.74233 0.25252 0.94764 0.0
H2061 H 0.73052 0.25802 0.94011 0.0
H2062 H 0.73915 0.26085 0.92055 0.0
H2063 H 0.75309 0.2751 0.916 0.0
H2064 H 0.78219 0.71273 0.93085 0.0
H2065 H 0.76764 0.72687 0.93353 0.0
H2066 H 0.74223 0.7017 0.92812 0.0
H2067 H 0.75681 0.68742 0.92593 0.0
H2068 H 0.75416 0.7328 0.91729 0.0
H2069 H 0.7281 0.71909 0.95312 0.0
H2070 H 0.74173 0.71316 0.9503 0.0
H2071 H 0.72961 0.70835 0.9427 0.0
C2072 C 0.77349 0.71017 0.93055 0.0
C2073 C 0.7706 0.69902 0.92815 0.0
C2074 C 0.76519 0.71825 0.93207 0.0
C2075 C 0.75383 0.71536 0.93109 0.0
C2076 C 0.75091 0.7041 0.92919 0.0
H2077 H 0.69493 0.75216 0.91316 0.0
H2078 H 0.70895 0.73803 0.91802 0.0
C2079 C 0.75925 0.69595 0.92787 0.0
C2080 C 0.74526 0.72436 0.93054 0.0
H2081 H 0.71998 0.73294 0.94091 0.0
C2082 C 0.74679 0.73291 0.9226 0.0
C2083 C 0.73558 0.72446 0.9374 0.0
C2084 C 0.7337 0.71583 0.94643 0.0
C2085 C 0.73882 0.74139 0.92114 0.0
C2086 C 0.72907 0.74136 0.92782 0.0
C2087 C 0.72752 0.73291 0.93584 0.0
C2088 C 0.72016 0.74976 0.92607 0.0
C2089 C 0.7407 0.75017 0.91223 0.0
C2090 C 0.7218 0.76099 0.92918 0.0
C2091 C 0.71379 0.7691 0.92643 0.0
C2092 C 0.70409 0.76608 0.92047 0.0
C2093 C 0.70235 0.75476 0.91769 0.0
C2094 C 0.71031 0.74666 0.9205 0.0
H2095 H 0.74798 0.74817 0.9068 0.0
H2096 H 0.73313 0.75102 0.90688 0.0
H2097 H 0.74223 0.7584 0.91629 0.0
H2098 H 0.72937 0.76349 0.9335 0.0
H2099 H 0.71534 0.77775 0.92872 0.0
H2100 H 0.68993 0.75923 0.04124 0.0
H2101 H 0.70319 0.74388 0.0378 0.0
H2102 H 0.72994 0.76388 0.05156 0.0
H2103 H 0.71683 0.77919 0.05506 0.0
H2104 H 0.72657 0.74349 0.02612 0.0
H2105 H 0.72564 0.73472 0.07193 0.0
H2106 H 0.71479 0.74262 0.06495 0.0
H2107 H 0.72805 0.74905 0.06794 0.0
C2108 C 0.69867 0.76041 0.04337 0.0
C2109 C 0.70232 0.77035 0.04857 0.0
C2110 C 0.70622 0.75166 0.04136 0.0
C2111 C 0.71749 0.75277 0.0445 0.0
C2112 C 0.72125 0.76289 0.04913 0.0
H2113 H 0.77611 0.71021 0.03997 0.0
H2114 H 0.76222 0.72499 0.0366 0.0
C2115 C 0.71374 0.7716 0.05115 0.0
C2116 C 0.7251 0.74304 0.04409 0.0
H2117 H 0.73868 0.72457 0.06111 0.0
C2118 C 0.72921 0.73929 0.03373 0.0
C2119 C 0.72841 0.73758 0.05406 0.0
C2120 C 0.72396 0.7411 0.06537 0.0
C2121 C 0.73676 0.73025 0.03312 0.0
C2122 C 0.74026 0.72497 0.04313 0.0
C2123 C 0.73599 0.72866 0.05345 0.0
C2124 C 0.74828 0.71552 0.04329 0.0
C2125 C 0.74085 0.72634 0.02182 0.0
C2126 C 0.74501 0.70529 0.04804 0.0
C2127 C 0.75291 0.69694 0.05008 0.0
C2128 C 0.76424 0.69865 0.04743 0.0
C2129 C 0.76743 0.70866 0.0421 0.0
C2130 C 0.7595 0.71708 0.0401 0.0
H2131 H 0.73549 0.72955 0.01491 0.0
H2132 H 0.7495 0.72945 0.02047 0.0
H2133 H 0.74105 0.71704 0.02141 0.0
H2134 H 0.7364 0.70395 0.05058 0.0
H2135 H 0.75018 0.68928 0.05412 0.0
H2136 H 0.27089 0.75344 0.05985 0.0
H2137 H 0.25618 0.74028 0.05445 0.0
H2138 H 0.23632 0.76758 0.04158 0.0
H2139 H 0.25113 0.78089 0.04684 0.0
H2140 H 0.22642 0.75141 0.05907 0.0
H2141 H 0.24497 0.73094 0.02151 0.0
H2142 H 0.25409 0.73321 0.03332 0.0
H2143 H 0.24863 0.74502 0.0258 0.0
C2144 C 0.26344 0.75666 0.05578 0.0
C2145 C 0.26214 0.76821 0.0538 0.0
C2146 C 0.25509 0.74912 0.05264 0.0
C2147 C 0.24527 0.75297 0.04751 0.0
C2148 C 0.24393 0.76447 0.04543 0.0
H2149 H 0.18249 0.71603 0.04205 0.0
H2150 H 0.19662 0.73071 0.03994 0.0
C2151 C 0.25237 0.77204 0.04846 0.0
C2152 C 0.23607 0.74503 0.04527 0.0
H2153 H 0.2289 0.7223 0.02942 0.0
C2154 C 0.22683 0.74514 0.05249 0.0
C2155 C 0.23682 0.73679 0.0368 0.0
C2156 C 0.24662 0.73645 0.02884 0.0
C2157 C 0.21845 0.73694 0.05173 0.0
C2158 C 0.21916 0.72865 0.04324 0.0
C2159 C 0.22833 0.7287 0.03586 0.0
C2160 C 0.21074 0.71957 0.04233 0.0
C2161 C 0.20926 0.73694 0.06042 0.0
C2162 C 0.21402 0.70831 0.04348 0.0
C2163 C 0.20595 0.69986 0.04438 0.0
C2164 C 0.19451 0.70259 0.04427 0.0
C2165 C 0.19127 0.71374 0.04232 0.0
C2166 C 0.19933 0.72213 0.04119 0.0
H2167 H 0.21162 0.74185 0.06798 0.0
H2168 H 0.20162 0.74081 0.05681 0.0
H2169 H 0.20717 0.72827 0.06309 0.0
H2170 H 0.2228 0.70614 0.04428 0.0
H2171 H 0.20866 0.69132 0.04587 0.0
H2172 H 0.75444 0.28207 0.04864 0.0
H2173 H 0.74061 0.2671 0.04619 0.0
H2174 H 0.76722 0.24344 0.03989 0.0
H2175 H 0.78108 0.25826 0.04279 0.0
H2176 H 0.73484 0.25162 0.03009 0.0
H2177 H 0.75267 0.23053 0.06756 0.0
H2178 H 0.75668 0.2445 0.06346 0.0
H2179 H 0.76261 0.23251 0.05648 0.0
C2180 C 0.75732 0.27371 0.04654 0.0
C2181 C 0.76881 0.27124 0.0461 0.0
C2182 C 0.74942 0.26518 0.04515 0.0
C2183 C 0.75292 0.25411 0.04317 0.0
C2184 C 0.76436 0.25186 0.04174 0.0
H2185 H 0.71556 0.1912 0.04582 0.0
H2186 H 0.72956 0.20542 0.04089 0.0
C2187 C 0.77226 0.26033 0.04334 0.0
C2188 C 0.74472 0.24481 0.04357 0.0
H2189 H 0.73812 0.22108 0.05812 0.0
C2190 C 0.73557 0.24491 0.03618 0.0
C2191 C 0.74565 0.23613 0.05162 0.0
C2192 C 0.75486 0.23593 0.0603 0.0
C2193 C 0.72733 0.23653 0.03661 0.0
C2194 C 0.7283 0.22789 0.04464 0.0
C2195 C 0.73752 0.22768 0.05189 0.0
C2196 C 0.71943 0.21945 0.04632 0.0
C2197 C 0.7176 0.23697 0.02856 0.0
C2198 C 0.70917 0.22269 0.051 0.0
C2199 C 0.70125 0.21462 0.05394 0.0
C2200 C 0.70346 0.20317 0.05222 0.0
C2201 C 0.71363 0.19996 0.04722 0.0
C2202 C 0.72161 0.20805 0.04438 0.0
H2203 H 0.71929 0.24265 0.02139 0.0
H2204 H 0.71565 0.22847 0.0253 0.0
H2205 H 0.71008 0.24011 0.03304 0.0
H2206 H 0.70744 0.23143 0.05274 0.0
H2207 H 0.69348 0.21734 0.05776 0.0
H2208 H 0.71503 0.54258 0.68542 0.0
H2209 H 0.73002 0.54042 0.69919 0.0
H2210 H 0.70549 0.5377 0.72558 0.0
H2211 H 0.69041 0.53968 0.71182 0.0
H2212 H 0.73302 0.55581 0.71575 0.0
H2213 H 0.72807 0.51353 0.73429 0.0
H2214 H 0.72171 0.51745 0.72112 0.0
H2215 H 0.7153 0.52149 0.73416 0.0
C2216 C 0.71281 0.54128 0.69413 0.0
C2217 C 0.70155 0.5414 0.69756 0.0
C2218 C 0.72139 0.54002 0.70197 0.0
C2219 C 0.71887 0.53883 0.71339 0.0
C2220 C 0.70762 0.53839 0.71678 0.0
H2221 H 0.75197 0.5609 0.77205 0.0
H2222 H 0.73951 0.55598 0.75658 0.0
C2223 C 0.69901 0.5396 0.70892 0.0
C2224 C 0.72795 0.53958 0.72182 0.0
H2225 H 0.73915 0.52672 0.74481 0.0
C2226 C 0.73448 0.54936 0.72199 0.0
C2227 C 0.72985 0.53114 0.72993 0.0
C2228 C 0.72344 0.52026 0.72983 0.0
C2229 C 0.74255 0.55114 0.73032 0.0
C2230 C 0.74408 0.54296 0.73871 0.0
C2231 C 0.73789 0.53298 0.73835 0.0
C2232 C 0.75148 0.54514 0.74836 0.0
C2233 C 0.7492 0.56189 0.73031 0.0
C2234 C 0.76228 0.54055 0.74885 0.0
C2235 C 0.76948 0.5434 0.75767 0.0
C2236 C 0.76592 0.55084 0.76611 0.0
C2237 C 0.75498 0.55518 0.76567 0.0
C2238 C 0.74784 0.55237 0.75687 0.0
H2239 H 0.74833 0.56653 0.72228 0.0
H2240 H 0.7462 0.56737 0.73721 0.0
H2241 H 0.75821 0.56013 0.73181 0.0
H2242 H 0.7652 0.53498 0.74231 0.0
H2243 H 0.77785 0.53989 0.75782 0.0
H2244 H 0.21205 0.405 0.7776 0.0
H2245 H 0.22792 0.40811 0.76515 0.0
H2246 H 0.20701 0.42794 0.74333 0.0
H2247 H 0.19105 0.42505 0.75594 0.0
H2248 H 0.22905 0.4012 0.74372 0.0
H2249 H 0.23507 0.44724 0.74579 0.0
H2250 H 0.22672 0.43965 0.75587 0.0
H2251 H 0.22098 0.44319 0.74239 0.0
C2252 C 0.21083 0.41013 0.77022 0.0
C2253 C 0.20029 0.41475 0.76772 0.0
C2254 C 0.21993 0.41192 0.76313 0.0
C2255 C 0.21868 0.41836 0.75339 0.0
C2256 C 0.20821 0.42315 0.75094 0.0
H2257 H 0.25547 0.41251 0.69265 0.0
H2258 H 0.24178 0.41365 0.70775 0.0
C2259 C 0.19909 0.42142 0.75809 0.0
C2260 C 0.2281 0.41917 0.74536 0.0
H2261 H 0.24456 0.4376 0.73093 0.0
C2262 C 0.2325 0.40917 0.74102 0.0
C2263 C 0.23269 0.42955 0.74196 0.0
C2264 C 0.22871 0.44052 0.74682 0.0
C2265 C 0.24114 0.40926 0.73309 0.0
C2266 C 0.24533 0.41965 0.72924 0.0
C2267 C 0.24123 0.42966 0.73385 0.0
C2268 C 0.25349 0.42014 0.71997 0.0
C2269 C 0.24565 0.39824 0.7288 0.0
C2270 C 0.26451 0.42382 0.72177 0.0
C2271 C 0.2724 0.42322 0.7131 0.0
C2272 C 0.26932 0.41893 0.70256 0.0
C2273 C 0.25814 0.41574 0.70071 0.0
C2274 C 0.2503 0.41637 0.70932 0.0
H2275 H 0.24369 0.39123 0.73461 0.0
H2276 H 0.24175 0.39632 0.72058 0.0
H2277 H 0.25486 0.39865 0.72761 0.0
H2278 H 0.26707 0.42681 0.72995 0.0
H2279 H 0.28095 0.42577 0.71475 0.0
H2280 H 0.21932 0.55501 0.18993 0.0
H2281 H 0.2331 0.55116 0.20453 0.0
H2282 H 0.207 0.53835 0.22596 0.0
H2283 H 0.19309 0.54209 0.21129 0.0
H2284 H 0.23179 0.5615 0.22552 0.0
H2285 H 0.23262 0.51506 0.22936 0.0
H2286 H 0.22722 0.52214 0.21711 0.0
H2287 H 0.21894 0.52139 0.22964 0.0
C2288 C 0.21651 0.55122 0.19768 0.0
C2289 C 0.2051 0.54893 0.1995 0.0
C2290 C 0.2244 0.549 0.20599 0.0
C2291 C 0.22108 0.5444 0.21627 0.0
C2292 C 0.20976 0.54172 0.218 0.0
H2293 H 0.25362 0.55077 0.28008 0.0
H2294 H 0.24024 0.54788 0.26485 0.0
C2295 C 0.20182 0.54393 0.20965 0.0
C2296 C 0.22928 0.54362 0.22553 0.0
H2297 H 0.2425 0.52544 0.24328 0.0
C2298 C 0.23417 0.55361 0.22935 0.0
C2299 C 0.23237 0.5333 0.23048 0.0
C2300 C 0.2276 0.52233 0.22641 0.0
C2301 C 0.24197 0.55358 0.23811 0.0
C2302 C 0.24491 0.54332 0.24319 0.0
C2303 C 0.24016 0.53329 0.23933 0.0
C2304 C 0.25279 0.5431 0.2527 0.0
C2305 C 0.247 0.56454 0.24196 0.0
C2306 C 0.26421 0.54107 0.25091 0.0
C2307 C 0.27192 0.54275 0.25959 0.0
C2308 C 0.26826 0.54652 0.27014 0.0
C2309 C 0.25672 0.54794 0.27203 0.0
C2310 C 0.24905 0.54625 0.26337 0.0
H2311 H 0.24473 0.57162 0.23635 0.0
H2312 H 0.24397 0.56649 0.25054 0.0
H2313 H 0.25627 0.56386 0.24233 0.0
H2314 H 0.26721 0.53869 0.24268 0.0
H2315 H 0.28075 0.54155 0.2579 0.0
H2316 H 0.75947 0.42979 0.18826 0.0
H2317 H 0.74543 0.43325 0.20273 0.0
H2318 H 0.77005 0.42618 0.22828 0.0
H2319 H 0.78428 0.42327 0.21374 0.0
H2320 H 0.73879 0.41684 0.21551 0.0
H2321 H 0.7533 0.45123 0.24311 0.0
H2322 H 0.75936 0.44868 0.22948 0.0
H2323 H 0.76367 0.44049 0.2414 0.0
C2324 C 0.76196 0.42937 0.19699 0.0
C2325 C 0.7729 0.42627 0.19993 0.0
C2326 C 0.75394 0.43133 0.20524 0.0
C2327 C 0.75666 0.43 0.21661 0.0
C2328 C 0.76779 0.42751 0.21959 0.0
H2329 H 0.71875 0.41211 0.2748 0.0
H2330 H 0.73312 0.41695 0.26104 0.0
C2331 C 0.77591 0.4258 0.21129 0.0
C2332 C 0.74753 0.42949 0.22503 0.0
H2333 H 0.73891 0.43922 0.25055 0.0
C2334 C 0.73874 0.42189 0.22308 0.0
C2335 C 0.74751 0.43598 0.23496 0.0
C2336 C 0.75641 0.44463 0.23732 0.0
C2337 C 0.73009 0.42043 0.23085 0.0
C2338 C 0.73018 0.42675 0.24085 0.0
C2339 C 0.73888 0.43442 0.24283 0.0
C2340 C 0.7216 0.42496 0.24958 0.0
C2341 C 0.7211 0.41185 0.22849 0.0
C2342 C 0.71041 0.42803 0.24773 0.0
C2343 C 0.70215 0.42527 0.25557 0.0
C2344 C 0.70499 0.41936 0.26536 0.0
C2345 C 0.71628 0.4166 0.26731 0.0
C2346 C 0.72452 0.41941 0.2595 0.0
H2347 H 0.72321 0.40643 0.22122 0.0
H2348 H 0.71973 0.40644 0.23594 0.0
H2349 H 0.7131 0.41622 0.22664 0.0
H2350 H 0.70804 0.43236 0.24011 0.0
H2351 H 0.69354 0.42755 0.25386 0.0
H2352 H 0.27974 0.5511 0.71394 0.0
H2353 H 0.26576 0.5485 0.72859 0.0
H2354 H 0.24047 0.54239 0.70349 0.0
H2355 H 0.25453 0.54486 0.68869 0.0
H2356 H 0.24732 0.56275 0.72986 0.0
H2357 H 0.23421 0.5181 0.72751 0.0
H2358 H 0.24721 0.52311 0.72159 0.0
H2359 H 0.23421 0.52554 0.7144 0.0
C2360 C 0.27125 0.549 0.71152 0.0
C2361 C 0.26819 0.54829 0.70016 0.0
C2362 C 0.26329 0.54749 0.71991 0.0
C2363 C 0.25212 0.54521 0.71712 0.0
C2364 C 0.2491 0.54397 0.70581 0.0
H2365 H 0.19318 0.56145 0.75476 0.0
H2366 H 0.20744 0.55812 0.74048 0.0
C2367 C 0.25711 0.54544 0.69737 0.0
C2368 C 0.24349 0.54552 0.72601 0.0
H2369 H 0.2233 0.53012 0.73917 0.0
C2370 C 0.24212 0.55559 0.73194 0.0
C2371 C 0.23677 0.53615 0.7287 0.0
C2372 C 0.23819 0.52507 0.7228 0.0
C2373 C 0.23407 0.5566 0.7404 0.0
C2374 C 0.22717 0.54734 0.74292 0.0
C2375 C 0.22863 0.5372 0.73714 0.0
C2376 C 0.21816 0.54832 0.7513 0.0
C2377 C 0.23293 0.5676 0.74657 0.0
C2378 C 0.21945 0.54373 0.76204 0.0
C2379 C 0.21133 0.54567 0.77028 0.0
C2380 C 0.20182 0.55218 0.76783 0.0
C2381 C 0.20043 0.55644 0.75693 0.0
C2382 C 0.20854 0.55453 0.74875 0.0
H2383 H 0.2401 0.57329 0.74493 0.0
H2384 H 0.22513 0.57186 0.74382 0.0
H2385 H 0.23229 0.56614 0.75574 0.0
H2386 H 0.22687 0.53893 0.76413 0.0
H2387 H 0.21259 0.54224 0.77859 0.0
H2388 H 0.70524 0.4357 0.69468 0.0
H2389 H 0.71857 0.4407 0.70958 0.0
H2390 H 0.70998 0.41042 0.72735 0.0
H2391 H 0.69655 0.4056 0.71283 0.0
H2392 H 0.7112 0.42839 0.74131 0.0
H2393 H 0.74893 0.42607 0.71392 0.0
H2394 H 0.73825 0.4359 0.70991 0.0
H2395 H 0.7354 0.42112 0.70935 0.0
C2396 C 0.70622 0.43015 0.70179 0.0
C2397 C 0.69989 0.42024 0.70257 0.0
C2398 C 0.71384 0.43299 0.71026 0.0
C2399 C 0.71534 0.42588 0.71953 0.0
C2400 C 0.70893 0.41607 0.72032 0.0
H2401 H 0.76701 0.40479 0.76042 0.0
H2402 H 0.753 0.40978 0.74649 0.0
C2403 C 0.70128 0.41329 0.71197 0.0
C2404 C 0.72375 0.42821 0.72836 0.0
H2405 H 0.75191 0.42804 0.73317 0.0
C2406 C 0.72012 0.42851 0.73956 0.0
C2407 C 0.73536 0.42838 0.72601 0.0
C2408 C 0.73978 0.42778 0.71417 0.0
C2409 C 0.72777 0.42811 0.74849 0.0
C2410 C 0.73936 0.42772 0.74612 0.0
C2411 C 0.743 0.4283 0.73494 0.0
C2412 C 0.74777 0.42502 0.75486 0.0
C2413 C 0.72333 0.42728 0.7603 0.0
C2414 C 0.74943 0.43188 0.76429 0.0
C2415 C 0.75736 0.42892 0.77243 0.0
C2416 C 0.76385 0.41917 0.77112 0.0
C2417 C 0.76217 0.41238 0.76165 0.0
C2418 C 0.75419 0.41525 0.75365 0.0
H2419 H 0.71416 0.42568 0.7605 0.0
H2420 H 0.72763 0.42046 0.76495 0.0
H2421 H 0.72495 0.43528 0.76477 0.0
H2422 H 0.7447 0.43956 0.7653 0.0
H2423 H 0.75858 0.43435 0.77961 0.0
H2424 H 0.21235 0.43001 0.19177 0.0
H2425 H 0.2274 0.43278 0.20555 0.0
H2426 H 0.20623 0.41931 0.2315 0.0
H2427 H 0.19121 0.41651 0.21789 0.0
H2428 H 0.22686 0.44444 0.22906 0.0
H2429 H 0.23543 0.39858 0.22828 0.0
H2430 H 0.22819 0.40569 0.21705 0.0
H2431 H 0.22101 0.40266 0.2299 0.0
C2432 C 0.21086 0.42778 0.20044 0.0
C2433 C 0.20065 0.42292 0.20373 0.0
C2434 C 0.21944 0.4294 0.20828 0.0
C2435 C 0.2179 0.42618 0.21947 0.0
C2436 C 0.20756 0.4218 0.22287 0.0
H2437 H 0.25695 0.43109 0.28043 0.0
H2438 H 0.24296 0.43394 0.26563 0.0
C2439 C 0.19901 0.42019 0.21507 0.0
C2440 C 0.22731 0.42647 0.22749 0.0
H2441 H 0.24484 0.40925 0.24203 0.0
C2442 C 0.23087 0.43678 0.23187 0.0
C2443 C 0.23252 0.41645 0.23103 0.0
C2444 C 0.22919 0.4052 0.22629 0.0
C2445 C 0.23943 0.43729 0.23996 0.0
C2446 C 0.24441 0.42722 0.24374 0.0
C2447 C 0.24097 0.41696 0.23915 0.0
C2448 C 0.25327 0.42699 0.25242 0.0
C2449 C 0.24314 0.44856 0.24432 0.0
C2450 C 0.26368 0.42219 0.24988 0.0
C2451 C 0.2716 0.42046 0.25829 0.0
C2452 C 0.26925 0.42347 0.26944 0.0
C2453 C 0.25899 0.42871 0.27191 0.0
C2454 C 0.25103 0.4304 0.26346 0.0
H2455 H 0.24047 0.45549 0.2387 0.0
H2456 H 0.23935 0.45001 0.25268 0.0
H2457 H 0.25239 0.44886 0.24527 0.0
H2458 H 0.26556 0.41947 0.24141 0.0
H2459 H 0.27945 0.41647 0.25609 0.0
H2460 H 0.78337 0.54091 0.21403 0.0
H2461 H 0.76872 0.53871 0.22812 0.0
H2462 H 0.74356 0.54541 0.20302 0.0
H2463 H 0.75822 0.54718 0.18878 0.0
H2464 H 0.75562 0.55547 0.23421 0.0
H2465 H 0.7288 0.52035 0.21996 0.0
H2466 H 0.74255 0.52287 0.2142 0.0
H2467 H 0.7307 0.53086 0.20938 0.0
C2468 C 0.77469 0.54163 0.21147 0.0
C2469 C 0.77191 0.54426 0.20034 0.0
C2470 C 0.76633 0.54038 0.21952 0.0
C2471 C 0.75503 0.54183 0.21663 0.0
C2472 C 0.7522 0.54399 0.2054 0.0
H2473 H 0.69566 0.55877 0.25328 0.0
H2474 H 0.70987 0.55429 0.23923 0.0
C2475 C 0.76058 0.54507 0.19728 0.0
C2476 C 0.74646 0.54248 0.2256 0.0
H2477 H 0.72104 0.53245 0.23405 0.0
C2478 C 0.74814 0.55031 0.23425 0.0
C2479 C 0.73666 0.53581 0.22561 0.0
C2480 C 0.73461 0.52693 0.21684 0.0
C2481 C 0.7402 0.55182 0.24275 0.0
C2482 C 0.73035 0.54529 0.24265 0.0
C2483 C 0.72865 0.5374 0.23409 0.0
C2484 C 0.72147 0.54702 0.25109 0.0
C2485 C 0.74223 0.56065 0.25159 0.0
C2486 C 0.72327 0.54423 0.26237 0.0
C2487 C 0.71516 0.54678 0.27044 0.0
C2488 C 0.70517 0.55218 0.26733 0.0
C2489 C 0.7033 0.55467 0.25596 0.0
C2490 C 0.71137 0.55208 0.24791 0.0
H2491 H 0.74937 0.56622 0.24943 0.0
H2492 H 0.73463 0.56588 0.25279 0.0
H2493 H 0.74414 0.5565 0.25969 0.0
H2494 H 0.73102 0.54026 0.26494 0.0
H2495 H 0.71681 0.54472 0.27913 0.0
H2496 H 0.1908 0.75976 0.53695 0.0
H2497 H 0.20492 0.74589 0.53118 0.0
H2498 H 0.22654 0.75687 0.55802 0.0
H2499 H 0.21276 0.7708 0.56357 0.0
H2500 H 0.2378 0.75438 0.53819 0.0
H2501 H 0.21179 0.71673 0.54748 0.0
H2502 H 0.20623 0.72665 0.5376 0.0
H2503 H 0.20777 0.73058 0.55205 0.0
C2504 C 0.19857 0.75917 0.5416 0.0
C2505 C 0.20067 0.76634 0.55073 0.0
C2506 C 0.2066 0.75124 0.53832 0.0
C2507 C 0.21675 0.75031 0.54422 0.0
C2508 C 0.2188 0.75749 0.5533 0.0
H2509 H 0.26132 0.7022 0.56485 0.0
H2510 H 0.24626 0.71499 0.55993 0.0
C2511 C 0.21088 0.76542 0.5565 0.0
C2512 C 0.2253 0.74178 0.54134 0.0
H2513 H 0.2307 0.71379 0.54341 0.0
C2514 C 0.23625 0.74547 0.53912 0.0
C2515 C 0.22319 0.73018 0.54251 0.0
C2516 C 0.21164 0.72574 0.54511 0.0
C2517 C 0.24531 0.73797 0.53896 0.0
C2518 C 0.24328 0.72644 0.54077 0.0
C2519 C 0.23221 0.72265 0.54205 0.0
C2520 C 0.2525 0.71849 0.54326 0.0
C2521 C 0.25702 0.74258 0.53774 0.0
C2522 C 0.26108 0.71621 0.53552 0.0
C2523 C 0.26988 0.70898 0.53841 0.0
C2524 C 0.27008 0.70381 0.549 0.0
C2525 C 0.2614 0.70603 0.55662 0.0
C2526 C 0.25274 0.71331 0.5538 0.0
H2527 H 0.25721 0.75188 0.53824 0.0
H2528 H 0.2626 0.73915 0.54434 0.0
H2529 H 0.26046 0.74007 0.52947 0.0
H2530 H 0.26096 0.71998 0.52727 0.0
H2531 H 0.27642 0.70732 0.53234 0.0
H2532 H 0.18425 0.21518 0.42449 0.0
H2533 H 0.19898 0.22938 0.42651 0.0
H2534 H 0.22238 0.2037 0.43649 0.0
H2535 H 0.20785 0.18947 0.43404 0.0
H2536 H 0.21416 0.2368 0.44269 0.0
H2537 H 0.23593 0.21532 0.40757 0.0
H2538 H 0.22182 0.21186 0.41167 0.0
H2539 H 0.23353 0.2065 0.4195 0.0
C2540 C 0.19246 0.21263 0.42738 0.0
C2541 C 0.195 0.20124 0.42895 0.0
C2542 C 0.20087 0.22073 0.42851 0.0
C2543 C 0.21184 0.21753 0.43134 0.0
C2544 C 0.21405 0.20629 0.434 0.0
H2545 H 0.27519 0.25384 0.42604 0.0
H2546 H 0.26078 0.24028 0.43165 0.0
C2547 C 0.20574 0.19819 0.43267 0.0
C2548 C 0.22116 0.22564 0.43034 0.0
H2549 H 0.24525 0.23067 0.41576 0.0
C2550 C 0.22099 0.23545 0.43685 0.0
C2551 C 0.23001 0.2239 0.42262 0.0
C2552 C 0.23032 0.21389 0.41486 0.0
C2553 C 0.22947 0.24355 0.43585 0.0
C2554 C 0.23828 0.24177 0.42814 0.0
C2555 C 0.23854 0.23191 0.42177 0.0
C2556 C 0.24688 0.25037 0.42585 0.0
C2557 C 0.22897 0.25395 0.44303 0.0
C2558 C 0.2438 0.26046 0.42068 0.0
C2559 C 0.25198 0.26812 0.41738 0.0
C2560 C 0.26339 0.26584 0.41917 0.0
C2561 C 0.26646 0.25582 0.42455 0.0
C2562 C 0.25826 0.2481 0.42779 0.0
H2563 H 0.22339 0.2528 0.45039 0.0
H2564 H 0.23746 0.25631 0.44603 0.0
H2565 H 0.22565 0.261 0.43796 0.0
H2566 H 0.23508 0.26225 0.41891 0.0
H2567 H 0.24934 0.27577 0.41326 0.0
H2568 H 0.19403 0.75356 0.41504 0.0
H2569 H 0.20793 0.73934 0.41989 0.0
H2570 H 0.23033 0.76514 0.43168 0.0
H2571 H 0.21638 0.77949 0.4269 0.0
H2572 H 0.23894 0.74953 0.41473 0.0
H2573 H 0.21951 0.7278 0.451 0.0
H2574 H 0.21044 0.73028 0.43923 0.0
H2575 H 0.21586 0.74196 0.44703 0.0
C2576 C 0.20185 0.75622 0.4188 0.0
C2577 C 0.20414 0.76764 0.42055 0.0
C2578 C 0.20974 0.74807 0.42164 0.0
C2579 C 0.22007 0.7512 0.42627 0.0
C2580 C 0.22233 0.76258 0.42822 0.0
H2581 H 0.28155 0.71223 0.43119 0.0
H2582 H 0.26757 0.72704 0.4334 0.0
C2583 C 0.21439 0.77075 0.42547 0.0
C2584 C 0.22886 0.74265 0.42797 0.0
H2585 H 0.23505 0.71872 0.44238 0.0
C2586 C 0.2382 0.74287 0.42087 0.0
C2587 C 0.22772 0.73392 0.43588 0.0
C2588 C 0.21789 0.73346 0.4438 0.0
C2589 C 0.24629 0.73437 0.42121 0.0
C2590 C 0.24519 0.7256 0.42913 0.0
C2591 C 0.23591 0.72548 0.43636 0.0
C2592 C 0.25342 0.71632 0.4297 0.0
C2593 C 0.25567 0.73463 0.41272 0.0
C2594 C 0.25002 0.70523 0.42766 0.0
C2595 C 0.25799 0.69668 0.42665 0.0
C2596 C 0.26946 0.69917 0.42754 0.0
C2597 C 0.27277 0.71013 0.4303 0.0
C2598 C 0.2648 0.7186 0.4315 0.0
H2599 H 0.25361 0.74006 0.40545 0.0
H2600 H 0.26333 0.73805 0.41673 0.0
H2601 H 0.25758 0.72608 0.40956 0.0
H2602 H 0.24126 0.70328 0.42634 0.0
H2603 H 0.25522 0.6883 0.42455 0.0
H2604 H 0.75867 0.78396 0.43592 0.0
H2605 H 0.7442 0.76974 0.4386 0.0
H2606 H 0.76699 0.74432 0.4266 0.0
H2607 H 0.78166 0.75849 0.42448 0.0
H2608 H 0.73553 0.75938 0.42167 0.0
H2609 H 0.75162 0.727 0.45058 0.0
H2610 H 0.75816 0.74058 0.44927 0.0
H2611 H 0.7613 0.72957 0.4394 0.0
C2612 C 0.76069 0.77526 0.43425 0.0
C2613 C 0.77124 0.77228 0.43001 0.0
C2614 C 0.75242 0.76715 0.43575 0.0
C2615 C 0.75448 0.75593 0.43285 0.0
C2616 C 0.76525 0.75284 0.42918 0.0
H2617 H 0.71694 0.70091 0.40853 0.0
H2618 H 0.73068 0.7147 0.41473 0.0
C2619 C 0.77363 0.76095 0.42792 0.0
C2620 C 0.74497 0.74794 0.43201 0.0
H2621 H 0.7367 0.72123 0.43809 0.0
C2622 C 0.73569 0.75113 0.42548 0.0
C2623 C 0.74519 0.73715 0.43691 0.0
C2624 C 0.75456 0.73342 0.44452 0.0
C2625 C 0.72687 0.74368 0.42334 0.0
C2626 C 0.72732 0.73276 0.42786 0.0
C2627 C 0.73641 0.72964 0.43464 0.0
C2628 C 0.71894 0.7242 0.42476 0.0
C2629 C 0.71739 0.74734 0.41581 0.0
C2630 C 0.70779 0.72497 0.4284 0.0
C2631 C 0.69986 0.71708 0.42485 0.0
C2632 C 0.703 0.70834 0.41759 0.0
C2633 C 0.71422 0.70757 0.41408 0.0
C2634 C 0.72211 0.7154 0.41766 0.0
H2635 H 0.71904 0.75559 0.41182 0.0
H2636 H 0.71593 0.74102 0.40913 0.0
H2637 H 0.70959 0.74804 0.42082 0.0
H2638 H 0.70522 0.73171 0.43393 0.0
H2639 H 0.69129 0.71785 0.42774 0.0
H2640 H 0.7102 0.28155 0.42698 0.0
H2641 H 0.72599 0.26854 0.42962 0.0
H2642 H 0.70646 0.2418 0.41516 0.0
H2643 H 0.69077 0.25459 0.41249 0.0
H2644 H 0.72601 0.2442 0.44065 0.0
H2645 H 0.73618 0.24736 0.39525 0.0
H2646 H 0.72846 0.25809 0.40264 0.0
H2647 H 0.72166 0.24526 0.3987 0.0
C2648 C 0.70925 0.27287 0.4245 0.0
C2649 C 0.69929 0.26912 0.41942 0.0
C2650 C 0.71824 0.26547 0.42604 0.0
C2651 C 0.71735 0.25427 0.42252 0.0
C2652 C 0.70728 0.25044 0.41789 0.0
H2653 H 0.75618 0.19342 0.42608 0.0
H2654 H 0.74229 0.2083 0.42909 0.0
C2655 C 0.69835 0.25777 0.41634 0.0
C2656 C 0.7271 0.24668 0.42282 0.0
H2657 H 0.74527 0.23306 0.40551 0.0
C2658 C 0.73034 0.24183 0.43302 0.0
C2659 C 0.7327 0.24369 0.41284 0.0
C2660 C 0.72967 0.24891 0.40172 0.0
C2661 C 0.73891 0.23375 0.43342 0.0
C2662 C 0.74422 0.23043 0.42334 0.0
C2663 C 0.74115 0.23557 0.41322 0.0
C2664 C 0.75295 0.22163 0.42295 0.0
C2665 C 0.74224 0.22885 0.44458 0.0
C2666 C 0.76351 0.2242 0.41852 0.0
C2667 C 0.77136 0.21575 0.41669 0.0
C2668 C 0.7688 0.20453 0.41923 0.0
C2669 C 0.75837 0.202 0.42406 0.0
C2670 C 0.75047 0.21049 0.42585 0.0
H2671 H 0.7395 0.23425 0.45166 0.0
H2672 H 0.73823 0.22052 0.44557 0.0
H2673 H 0.75146 0.22768 0.44508 0.0
H2674 H 0.76557 0.23273 0.41619 0.0
H2675 H 0.77935 0.21799 0.41303 0.0
H2676 H 0.75338 0.18935 0.55837 0.0
H2677 H 0.73802 0.20243 0.55512 0.0
H2678 H 0.76067 0.22503 0.53835 0.0
H2679 H 0.77614 0.21184 0.54143 0.0
H2680 H 0.73802 0.22353 0.56406 0.0
H2681 H 0.733 0.22545 0.51787 0.0
H2682 H 0.74038 0.2142 0.52482 0.0
H2683 H 0.74714 0.22747 0.52261 0.0
C2684 C 0.75508 0.19703 0.55384 0.0
C2685 C 0.76599 0.19963 0.55023 0.0
C2686 C 0.74628 0.20447 0.55196 0.0
C2687 C 0.74819 0.21464 0.54642 0.0
C2688 C 0.75898 0.21711 0.54244 0.0
H2689 H 0.71562 0.27738 0.55419 0.0
H2690 H 0.72829 0.26153 0.55167 0.0
C2691 C 0.76782 0.20962 0.54428 0.0
C2692 C 0.73919 0.22316 0.54604 0.0
H2693 H 0.72392 0.23988 0.52852 0.0
C2694 C 0.73485 0.227 0.55628 0.0
C2695 C 0.73502 0.22762 0.53588 0.0
C2696 C 0.73904 0.22341 0.52466 0.0
C2697 C 0.72672 0.23544 0.55664 0.0
C2698 C 0.72291 0.24023 0.54652 0.0
C2699 C 0.72694 0.23618 0.53625 0.0
C2700 C 0.71529 0.24995 0.54667 0.0
C2701 C 0.72239 0.23936 0.56786 0.0
C2702 C 0.70383 0.24868 0.54443 0.0
C2703 C 0.69651 0.25774 0.5459 0.0
C2704 C 0.70061 0.26815 0.54962 0.0
C2705 C 0.71218 0.26945 0.5514 0.0
C2706 C 0.71944 0.26043 0.54993 0.0
H2707 H 0.72462 0.23347 0.57472 0.0
H2708 H 0.72606 0.24768 0.56985 0.0
H2709 H 0.71314 0.24034 0.56763 0.0
H2710 H 0.70051 0.2406 0.54193 0.0
H2711 H 0.68764 0.25651 0.54444 0.0
H2712 H 0.21292 0.18882 0.54024 0.0
H2713 H 0.22773 0.20299 0.5383 0.0
H2714 H 0.20393 0.22904 0.54607 0.0
H2715 H 0.18918 0.21503 0.54811 0.0
H2716 H 0.22925 0.22546 0.5254 0.0
H2717 H 0.2285 0.22818 0.57194 0.0
H2718 H 0.2227 0.21643 0.56436 0.0
H2719 H 0.21513 0.22942 0.56511 0.0
C2720 C 0.21081 0.19759 0.54128 0.0
C2721 C 0.19995 0.20082 0.5445 0.0
C2722 C 0.21926 0.20565 0.54015 0.0
C2723 C 0.21689 0.217 0.54218 0.0
C2724 C 0.20589 0.22029 0.54457 0.0
H2725 H 0.25585 0.27833 0.54016 0.0
H2726 H 0.24246 0.26323 0.53616 0.0
C2727 C 0.1975 0.21228 0.54575 0.0
C2728 C 0.22603 0.22527 0.54314 0.0
H2729 H 0.23947 0.24158 0.56238 0.0
C2730 C 0.23156 0.22897 0.53346 0.0
C2731 C 0.22905 0.2297 0.55371 0.0
C2732 C 0.22362 0.22569 0.56441 0.0
C2733 C 0.23993 0.23724 0.53408 0.0
C2734 C 0.24268 0.24192 0.54463 0.0
C2735 C 0.23728 0.23802 0.5543 0.0
C2736 C 0.25125 0.25077 0.54599 0.0
C2737 C 0.24584 0.24083 0.52351 0.0
C2738 C 0.26055 0.24877 0.55288 0.0
C2739 C 0.2681 0.25735 0.55525 0.0
C2740 C 0.26648 0.26814 0.55081 0.0
C2741 C 0.2573 0.27009 0.54369 0.0
C2742 C 0.24971 0.26146 0.54133 0.0
H2743 H 0.24466 0.23467 0.51662 0.0
H2744 H 0.2424 0.24901 0.52072 0.0
H2745 H 0.25496 0.24192 0.52504 0.0
H2746 H 0.26184 0.24058 0.5566 0.0
H2747 H 0.27511 0.25555 0.56073 0.0
H2748 H 0.75767 0.7809 0.54461 0.0
H2749 H 0.74359 0.76603 0.54286 0.0
H2750 H 0.76989 0.74139 0.54002 0.0
H2751 H 0.78395 0.75613 0.54225 0.0
H2752 H 0.73811 0.74902 0.52815 0.0
H2753 H 0.75403 0.73164 0.56829 0.0
H2754 H 0.75846 0.74505 0.56296 0.0
H2755 H 0.76443 0.73233 0.55748 0.0
C2756 C 0.76042 0.77234 0.54337 0.0
C2757 C 0.77186 0.7696 0.54375 0.0
C2758 C 0.75239 0.76386 0.54239 0.0
C2759 C 0.75571 0.75258 0.54164 0.0
C2760 C 0.76715 0.75 0.54093 0.0
H2761 H 0.71655 0.69092 0.54867 0.0
H2762 H 0.73135 0.70424 0.5435 0.0
C2763 C 0.77516 0.75842 0.54213 0.0
C2764 C 0.74731 0.74351 0.54266 0.0
H2765 H 0.73966 0.72151 0.5593 0.0
C2766 C 0.73847 0.74298 0.53492 0.0
C2767 C 0.74775 0.73568 0.55159 0.0
C2768 C 0.75661 0.73624 0.56062 0.0
C2769 C 0.73005 0.73481 0.53588 0.0
C2770 C 0.73052 0.72704 0.54479 0.0
C2771 C 0.73944 0.72743 0.5524 0.0
C2772 C 0.72138 0.71899 0.54697 0.0
C2773 C 0.72067 0.73457 0.52741 0.0
C2774 C 0.71098 0.72292 0.55072 0.0
C2775 C 0.70261 0.71538 0.5538 0.0
C2776 C 0.70449 0.70376 0.55316 0.0
C2777 C 0.71487 0.69983 0.54924 0.0
C2778 C 0.7233 0.7074 0.54626 0.0
H2779 H 0.72281 0.73937 0.51973 0.0
H2780 H 0.71863 0.7258 0.52502 0.0
H2781 H 0.71306 0.73836 0.53118 0.0
H2782 H 0.70943 0.73184 0.55152 0.0
H2783 H 0.69469 0.71867 0.55677 0.0
H2784 H 0.56078 0.2174 0.77578 0.0
H2785 H 0.55652 0.23086 0.76103 0.0
H2786 H 0.53485 0.20675 0.74505 0.0
H2787 H 0.53907 0.1931 0.75989 0.0
H2788 H 0.56095 0.22594 0.73758 0.0
H2789 H 0.51654 0.23727 0.74638 0.0
H2790 H 0.5257 0.23155 0.757 0.0
H2791 H 0.5202 0.22262 0.74624 0.0
C2792 C 0.55502 0.21495 0.7692 0.0
C2793 C 0.5503 0.20416 0.76896 0.0
C2794 C 0.55258 0.22268 0.7608 0.0
C2795 C 0.54532 0.21981 0.75204 0.0
C2796 C 0.54037 0.20914 0.75185 0.0
H2797 H 0.54569 0.2553 0.68876 0.0
H2798 H 0.54337 0.24084 0.70305 0.0
C2799 C 0.54284 0.20135 0.76028 0.0
C2800 C 0.54376 0.22777 0.74269 0.0
H2801 H 0.52508 0.24583 0.73068 0.0
C2802 C 0.55309 0.23024 0.73601 0.0
C2803 C 0.53352 0.2334 0.74079 0.0
C2804 C 0.52339 0.23118 0.74799 0.0
C2805 C 0.5525 0.23829 0.72751 0.0
C2806 C 0.54225 0.2439 0.72554 0.0
C2807 C 0.53288 0.24143 0.73219 0.0
C2808 C 0.54138 0.25256 0.71674 0.0
C2809 C 0.56295 0.24093 0.72088 0.0
C2810 C 0.54046 0.26392 0.71967 0.0
C2811 C 0.54173 0.27223 0.7115 0.0
C2812 C 0.54399 0.26925 0.70033 0.0
C2813 C 0.54411 0.25785 0.69734 0.0
C2814 C 0.54277 0.24958 0.70547 0.0
H2815 H 0.57062 0.23759 0.72497 0.0
H2816 H 0.56228 0.23709 0.71244 0.0
H2817 H 0.56392 0.25013 0.71979 0.0
H2818 H 0.53938 0.26635 0.72835 0.0
H2819 H 0.54155 0.28095 0.71403 0.0
H2820 H 0.42897 0.68764 0.71415 0.0
H2821 H 0.43179 0.70105 0.72957 0.0
H2822 H 0.41441 0.72647 0.71069 0.0
H2823 H 0.41155 0.71327 0.69536 0.0
H2824 H 0.44188 0.72471 0.7287 0.0
H2825 H 0.39718 0.72236 0.7415 0.0
H2826 H 0.40388 0.71158 0.73323 0.0
H2827 H 0.39956 0.72448 0.72678 0.0
C2828 C 0.42581 0.69611 0.71329 0.0
C2829 C 0.41996 0.69937 0.70359 0.0
C2830 C 0.42746 0.70374 0.72206 0.0
C2831 C 0.42322 0.71468 0.72125 0.0
C2832 C 0.41766 0.71803 0.71148 0.0
H2833 H 0.4296 0.77677 0.75748 0.0
H2834 H 0.43186 0.76123 0.7442 0.0
C2835 C 0.41603 0.71046 0.70274 0.0
C2836 C 0.42409 0.7226 0.73073 0.0
H2837 H 0.40798 0.73709 0.74934 0.0
C2838 C 0.43452 0.72736 0.73332 0.0
C2839 C 0.41447 0.72593 0.73676 0.0
C2840 C 0.40313 0.72078 0.73453 0.0
C2841 C 0.4355 0.73569 0.74161 0.0
C2842 C 0.42577 0.73935 0.7473 0.0
C2843 C 0.41542 0.73431 0.74492 0.0
C2844 C 0.42596 0.7485 0.75569 0.0
C2845 C 0.44689 0.74048 0.74421 0.0
C2846 C 0.42193 0.74649 0.76654 0.0
C2847 C 0.42052 0.75532 0.77405 0.0
C2848 C 0.42309 0.76638 0.77088 0.0
C2849 C 0.42758 0.76834 0.76017 0.0
C2850 C 0.42894 0.75947 0.7526 0.0
H2851 H 0.45372 0.73481 0.74138 0.0
H2852 H 0.44786 0.74859 0.73977 0.0
H2853 H 0.44785 0.74204 0.75333 0.0
H2854 H 0.41955 0.7381 0.76907 0.0
H2855 H 0.41711 0.75352 0.78227 0.0
H2856 H 0.55747 0.71424 0.27755 0.0
H2857 H 0.55495 0.72903 0.2637 0.0
H2858 H 0.53814 0.70575 0.24173 0.0
H2859 H 0.54057 0.69081 0.25567 0.0
H2860 H 0.56397 0.72778 0.24204 0.0
H2861 H 0.51783 0.7341 0.24126 0.0
H2862 H 0.52495 0.72726 0.25274 0.0
H2863 H 0.52251 0.71983 0.23988 0.0
C2864 C 0.55312 0.71226 0.26984 0.0
C2865 C 0.54927 0.70133 0.26767 0.0
C2866 C 0.55167 0.72074 0.26194 0.0
C2867 C 0.54629 0.7185 0.25175 0.0
C2868 C 0.54215 0.70768 0.24964 0.0
H2869 H 0.55432 0.75475 0.19007 0.0
H2870 H 0.552 0.74064 0.20469 0.0
C2871 C 0.5436 0.69915 0.25757 0.0
C2872 C 0.54597 0.72728 0.24301 0.0
H2873 H 0.52845 0.74366 0.22737 0.0
C2874 C 0.55621 0.73127 0.23886 0.0
C2875 C 0.53582 0.73187 0.23897 0.0
C2876 C 0.52463 0.72814 0.24348 0.0
C2877 C 0.55658 0.73963 0.23064 0.0
C2878 C 0.54645 0.74402 0.22638 0.0
C2879 C 0.53619 0.7402 0.23064 0.0
C2880 C 0.5465 0.75242 0.21731 0.0
C2881 C 0.56782 0.74375 0.22657 0.0
C2882 C 0.54385 0.76367 0.21954 0.0
C2883 C 0.54519 0.7718 0.21119 0.0
C2884 C 0.54918 0.76875 0.20052 0.0
C2885 C 0.55132 0.75738 0.19823 0.0
C2886 C 0.54999 0.7493 0.20655 0.0
H2887 H 0.57475 0.74114 0.23222 0.0
H2888 H 0.56949 0.74024 0.21812 0.0
H2889 H 0.56786 0.75303 0.22587 0.0
H2890 H 0.54115 0.7662 0.22783 0.0
H2891 H 0.54344 0.78048 0.21319 0.0
H2892 H 0.42785 0.28076 0.25559 0.0
H2893 H 0.43234 0.26729 0.24063 0.0
H2894 H 0.41713 0.24077 0.25983 0.0
H2895 H 0.41256 0.25405 0.2747 0.0
H2896 H 0.442 0.2386 0.24635 0.0
H2897 H 0.40259 0.25022 0.22404 0.0
H2898 H 0.41102 0.26076 0.23089 0.0
H2899 H 0.40331 0.25088 0.23914 0.0
C2900 C 0.42558 0.27204 0.25666 0.0
C2901 C 0.41977 0.26848 0.26627 0.0
C2902 C 0.42818 0.26438 0.24815 0.0
C2903 C 0.42508 0.25308 0.24922 0.0
C2904 C 0.41964 0.24946 0.25894 0.0
H2905 H 0.42523 0.19047 0.21387 0.0
H2906 H 0.42865 0.20549 0.2275 0.0
C2907 C 0.41698 0.25708 0.26738 0.0
C2908 C 0.42652 0.24516 0.23985 0.0
H2909 H 0.41257 0.23474 0.21725 0.0
C2910 C 0.43569 0.23781 0.23986 0.0
C2911 C 0.41822 0.24421 0.23149 0.0
C2912 C 0.40819 0.25191 0.23129 0.0
C2913 C 0.43669 0.22936 0.2317 0.0
C2914 C 0.42815 0.22812 0.22357 0.0
C2915 C 0.41913 0.23569 0.22347 0.0
C2916 C 0.42803 0.21888 0.21525 0.0
C2917 C 0.44686 0.22186 0.23188 0.0
C2918 C 0.42661 0.22139 0.20386 0.0
C2919 C 0.42441 0.21288 0.19616 0.0
C2920 C 0.4237 0.20168 0.19967 0.0
C2921 C 0.4258 0.19905 0.21095 0.0
C2922 C 0.42783 0.20762 0.21872 0.0
H2923 H 0.45406 0.22602 0.23608 0.0
H2924 H 0.44488 0.21413 0.23665 0.0
H2925 H 0.44941 0.21941 0.22327 0.0
H2926 H 0.42672 0.23001 0.20099 0.0
H2927 H 0.42291 0.21512 0.18749 0.0
H2928 H 0.42081 0.18709 0.75263 0.0
H2929 H 0.42442 0.20137 0.7385 0.0
H2930 H 0.43083 0.22565 0.76453 0.0
H2931 H 0.42742 0.21126 0.77881 0.0
H2932 H 0.41105 0.21997 0.73712 0.0
H2933 H 0.45569 0.23233 0.74163 0.0
H2934 H 0.4502 0.21939 0.74725 0.0
H2935 H 0.44779 0.23241 0.75445 0.0
C2936 C 0.42319 0.19541 0.75536 0.0
C2937 C 0.42372 0.1981 0.76682 0.0
C2938 C 0.42528 0.20355 0.74727 0.0
C2939 C 0.42793 0.21455 0.75045 0.0
C2940 C 0.42899 0.21716 0.76189 0.0
H2941 H 0.41387 0.275 0.71461 0.0
H2942 H 0.4173 0.26046 0.72858 0.0
C2943 C 0.42697 0.20896 0.77003 0.0
C2944 C 0.42813 0.22346 0.74183 0.0
H2945 H 0.44424 0.24398 0.73004 0.0
C2946 C 0.41835 0.22515 0.73552 0.0
C2947 C 0.43766 0.23019 0.73976 0.0
C2948 C 0.44847 0.22846 0.74605 0.0
C2949 C 0.41777 0.23349 0.72731 0.0
C2950 C 0.42718 0.24038 0.72541 0.0
C2951 C 0.43705 0.23864 0.73157 0.0
C2952 C 0.42658 0.24971 0.71734 0.0
C2953 C 0.40706 0.23498 0.72075 0.0
C2954 C 0.43088 0.24851 0.70646 0.0
C2955 C 0.42889 0.2568 0.6984 0.0
C2956 C 0.42258 0.26637 0.70115 0.0
C2957 C 0.41871 0.26771 0.7122 0.0
C2958 C 0.42069 0.25944 0.72022 0.0
H2959 H 0.40112 0.22795 0.72209 0.0
H2960 H 0.40291 0.24288 0.7234 0.0
H2961 H 0.4089 0.23566 0.71165 0.0
H2962 H 0.4354 0.24099 0.70412 0.0
H2963 H 0.43201 0.25557 0.68997 0.0
H2964 H 0.56684 0.6977 0.71253 0.0
H2965 H 0.56151 0.71199 0.72603 0.0
H2966 H 0.53196 0.71953 0.70662 0.0
H2967 H 0.53752 0.70536 0.69271 0.0
H2968 H 0.54178 0.7382 0.71318 0.0
H2969 H 0.53841 0.71085 0.75009 0.0
H2970 H 0.55185 0.70883 0.74376 0.0
H2971 H 0.53933 0.70528 0.73605 0.0
C2972 C 0.55916 0.70233 0.71114 0.0
C2973 C 0.55255 0.70035 0.7016 0.0
C2974 C 0.55606 0.71043 0.71895 0.0
C2975 C 0.54614 0.71659 0.71755 0.0
C2976 C 0.53956 0.71476 0.70795 0.0
H2977 H 0.53665 0.76115 0.7756 0.0
H2978 H 0.53177 0.7471 0.76136 0.0
C2979 C 0.54275 0.7067 0.70001 0.0
C2980 C 0.54321 0.72539 0.72584 0.0
H2981 H 0.54333 0.73038 0.75398 0.0
C2982 C 0.54186 0.73646 0.72211 0.0
C2983 C 0.54291 0.72313 0.73748 0.0
C2984 C 0.54307 0.71134 0.74205 0.0
C2985 C 0.54124 0.74541 0.72972 0.0
C2986 C 0.5424 0.74325 0.74133 0.0
C2987 C 0.54271 0.7321 0.74508 0.0
C2988 C 0.54453 0.75234 0.74958 0.0
C2989 C 0.53958 0.7571 0.72519 0.0
C2990 C 0.55337 0.75987 0.74775 0.0
C2991 C 0.55606 0.76793 0.75577 0.0
C2992 C 0.55016 0.76848 0.76593 0.0
C2993 C 0.54134 0.76091 0.76784 0.0
C2994 C 0.53854 0.75291 0.7597 0.0
H2995 H 0.53439 0.75693 0.71746 0.0
H2996 H 0.53548 0.76267 0.73142 0.0
H2997 H 0.54783 0.7607 0.72292 0.0
H2998 H 0.55842 0.75935 0.74023 0.0
H2999 H 0.56298 0.77356 0.75411 0.0
H3000 H 0.54108 0.21022 0.187 0.0
H3001 H 0.53843 0.22546 0.20063 0.0
H3002 H 0.54561 0.2026 0.22765 0.0
H3003 H 0.54834 0.18742 0.21419 0.0
H3004 H 0.52467 0.22693 0.22344 0.0
H3005 H 0.57124 0.22804 0.22591 0.0
H3006 H 0.56388 0.222 0.21413 0.0
H3007 H 0.56476 0.21448 0.22712 0.0
C3008 C 0.54183 0.2084 0.19586 0.0
C3009 C 0.54508 0.19769 0.19954 0.0
C3010 C 0.54029 0.21709 0.20361 0.0
C3011 C 0.54192 0.21511 0.21509 0.0
C3012 C 0.54436 0.20426 0.21881 0.0
H3013 H 0.53958 0.25603 0.27529 0.0
H3014 H 0.53574 0.24188 0.26083 0.0
C3015 C 0.54596 0.19563 0.2111 0.0
C3016 C 0.54253 0.22452 0.22309 0.0
H3017 H 0.56131 0.2393 0.23875 0.0
C3018 C 0.53265 0.22971 0.22678 0.0
C3019 C 0.55299 0.22811 0.22732 0.0
C3020 C 0.56386 0.22295 0.22339 0.0
C3021 C 0.53299 0.23835 0.2348 0.0
C3022 C 0.54344 0.24173 0.23922 0.0
C3023 C 0.5533 0.23663 0.23538 0.0
C3024 C 0.54454 0.25074 0.24768 0.0
C3025 C 0.52221 0.24388 0.2384 0.0
C3026 C 0.55075 0.26034 0.24506 0.0
C3027 C 0.55302 0.26833 0.25327 0.0
C3028 C 0.54916 0.26686 0.2643 0.0
C3029 C 0.54266 0.25738 0.26686 0.0
C3030 C 0.54039 0.24935 0.2586 0.0
H3031 H 0.51522 0.24196 0.23256 0.0
H3032 H 0.51988 0.24082 0.24686 0.0
H3033 H 0.52327 0.25312 0.2389 0.0
H3034 H 0.55407 0.26153 0.23669 0.0
H3035 H 0.558 0.27557 0.251 0.0
H3036 H 0.40838 0.77366 0.21373 0.0
H3037 H 0.41337 0.75985 0.2278 0.0
H3038 H 0.44124 0.74895 0.20749 0.0
H3039 H 0.43593 0.76259 0.193 0.0
H3040 H 0.43067 0.7316 0.21508 0.0
H3041 H 0.43699 0.75956 0.25108 0.0
H3042 H 0.4235 0.76249 0.24524 0.0
H3043 H 0.43594 0.76487 0.23696 0.0
C3044 C 0.41565 0.76841 0.21228 0.0
C3045 C 0.4218 0.76924 0.20228 0.0
C3046 C 0.41858 0.76059 0.22041 0.0
C3047 C 0.4279 0.75358 0.2189 0.0
C3048 C 0.4341 0.75437 0.20891 0.0
H3049 H 0.43371 0.70984 0.27801 0.0
H3050 H 0.43987 0.72317 0.26361 0.0
C3051 C 0.43105 0.76214 0.20064 0.0
C3052 C 0.4304 0.74485 0.22739 0.0
H3053 H 0.43012 0.74066 0.25565 0.0
C3054 C 0.43084 0.7336 0.22394 0.0
C3055 C 0.43105 0.74738 0.23897 0.0
C3056 C 0.43199 0.75926 0.24324 0.0
C3057 C 0.43079 0.72485 0.23178 0.0
C3058 C 0.42983 0.72741 0.24333 0.0
C3059 C 0.43053 0.73864 0.2468 0.0
C3060 C 0.42683 0.71878 0.25177 0.0
C3061 C 0.4315 0.71295 0.22755 0.0
C3062 C 0.41739 0.71199 0.24998 0.0
C3063 C 0.41398 0.70432 0.25808 0.0
C3064 C 0.41975 0.70346 0.2683 0.0
C3065 C 0.42911 0.71034 0.2702 0.0
C3066 C 0.43265 0.71792 0.26198 0.0
H3067 H 0.43675 0.71248 0.21988 0.0
H3068 H 0.43505 0.70721 0.23395 0.0
H3069 H 0.42299 0.70999 0.22525 0.0
H3070 H 0.41247 0.71279 0.2424 0.0
H3071 H 0.40665 0.69923 0.25642 0.0
H3072 H 0.09682 0.15661 0.26213 0.0
H3073 H 0.10694 0.1389 0.26081 0.0
H3074 H 0.08341 0.12357 0.28353 0.0
H3075 H 0.07327 0.14129 0.285 0.0
H3076 H 0.10497 0.12211 0.29074 0.0
H3077 H 0.10262 0.10816 0.24667 0.0
H3078 H 0.10643 0.12267 0.24768 0.0
H3079 H 0.0929 0.11816 0.25258 0.0
C3080 C 0.09361 0.14941 0.26662 0.0
C3081 C 0.08431 0.15042 0.27377 0.0
C3082 C 0.09936 0.13925 0.26579 0.0
C3083 C 0.09587 0.12989 0.272 0.0
C3084 C 0.08621 0.13068 0.27862 0.0
H3085 H 0.14393 0.07567 0.28795 0.0
H3086 H 0.12554 0.08464 0.28603 0.0
C3087 C 0.08044 0.14083 0.27946 0.0
C3088 C 0.10329 0.11998 0.2729 0.0
H3089 H 0.11896 0.10198 0.25716 0.0
C3090 C 0.10783 0.11747 0.28345 0.0
C3091 C 0.10694 0.11394 0.26339 0.0
C3092 C 0.10187 0.11579 0.25196 0.0
C3093 C 0.11662 0.10977 0.28462 0.0
C3094 C 0.12083 0.10431 0.27497 0.0
C3095 C 0.11574 0.10623 0.26453 0.0
C3096 C 0.13148 0.09798 0.27529 0.0
C3097 C 0.12189 0.10817 0.29602 0.0
C3098 C 0.14078 0.10232 0.26961 0.0
C3099 C 0.15123 0.09723 0.27064 0.0
C3100 C 0.15261 0.08766 0.27739 0.0
C3101 C 0.14317 0.08308 0.28277 0.0
C3102 C 0.13267 0.08819 0.2817 0.0
H3103 H 0.11864 0.11425 0.30229 0.0
H3104 H 0.12005 0.09959 0.29908 0.0
H3105 H 0.13113 0.10911 0.2955 0.0
H3106 H 0.14004 0.10988 0.26464 0.0
H3107 H 0.15827 0.10096 0.26632 0.0
H3108 H 0.80852 0.10036 0.26734 0.0
H3109 H 0.82588 0.11115 0.26647 0.0
H3110 H 0.84279 0.08579 0.28587 0.0
H3111 H 0.82546 0.07497 0.28689 0.0
H3112 H 0.8447 0.10696 0.29484 0.0
H3113 H 0.85556 0.10767 0.24978 0.0
H3114 H 0.84122 0.11146 0.2523 0.0
H3115 H 0.84598 0.09755 0.25569 0.0
C3116 C 0.81597 0.09695 0.27123 0.0
C3117 C 0.81556 0.08683 0.27725 0.0
C3118 C 0.82592 0.1031 0.27066 0.0
C3119 C 0.83565 0.09921 0.27601 0.0
C3120 C 0.83538 0.0889 0.28164 0.0
H3121 H 0.89432 0.14208 0.29105 0.0
H3122 H 0.88306 0.12496 0.28912 0.0
C3123 C 0.82545 0.08274 0.28221 0.0
C3124 C 0.84563 0.10652 0.27682 0.0
H3125 H 0.86344 0.12242 0.26115 0.0
C3126 C 0.84898 0.11017 0.2875 0.0
C3127 C 0.85121 0.11064 0.26723 0.0
C3128 C 0.84839 0.10654 0.25561 0.0
C3129 C 0.85724 0.11844 0.2888 0.0
C3130 C 0.86237 0.12302 0.27916 0.0
C3131 C 0.85946 0.11891 0.26852 0.0
C3132 C 0.8697 0.13299 0.27985 0.0
C3133 C 0.85988 0.12271 0.30042 0.0
C3134 C 0.86603 0.14306 0.27506 0.0
C3135 C 0.87241 0.15277 0.2761 0.0
C3136 C 0.88264 0.15264 0.28195 0.0
C3137 C 0.88645 0.14248 0.28656 0.0
C3138 C 0.88002 0.13271 0.28549 0.0
H3139 H 0.85391 0.11951 0.30679 0.0
H3140 H 0.86843 0.11996 0.30283 0.0
H3141 H 0.85972 0.13202 0.3006 0.0
H3142 H 0.85808 0.14345 0.27069 0.0
H3143 H 0.86921 0.16042 0.2724 0.0
H3144 H 0.87245 0.80559 0.26724 0.0
H3145 H 0.86124 0.82254 0.26517 0.0
H3146 H 0.88587 0.8413 0.28383 0.0
H3147 H 0.89707 0.82432 0.28612 0.0
H3148 H 0.86529 0.84286 0.2929 0.0
H3149 H 0.86226 0.85144 0.24753 0.0
H3150 H 0.85904 0.83709 0.25061 0.0
H3151 H 0.8729 0.84238 0.25338 0.0
C3152 C 0.87564 0.81337 0.27066 0.0
C3153 C 0.88559 0.81356 0.27696 0.0
C3154 C 0.86925 0.8231 0.26939 0.0
C3155 C 0.87276 0.83322 0.27427 0.0
C3156 C 0.88303 0.83359 0.27997 0.0
H3157 H 0.82709 0.88991 0.28818 0.0
H3158 H 0.84468 0.87954 0.28591 0.0
C3159 C 0.88941 0.82386 0.28128 0.0
C3160 C 0.86494 0.84284 0.27485 0.0
H3161 H 0.8471 0.85861 0.25902 0.0
C3162 C 0.86149 0.84651 0.28549 0.0
C3163 C 0.86002 0.84759 0.26518 0.0
C3164 C 0.86384 0.8445 0.25353 0.0
C3165 C 0.85271 0.85421 0.28674 0.0
C3166 C 0.84735 0.85847 0.27707 0.0
C3167 C 0.8512 0.85528 0.26642 0.0
C3168 C 0.83699 0.86521 0.27787 0.0
C3169 C 0.84877 0.85719 0.29839 0.0
C3170 C 0.82692 0.86069 0.27388 0.0
C3171 C 0.8169 0.86656 0.27512 0.0
C3172 C 0.81675 0.87713 0.28037 0.0
C3173 C 0.8269 0.88176 0.28417 0.0
C3174 C 0.83696 0.87585 0.2829 0.0
H3175 H 0.85263 0.85178 0.3049 0.0
H3176 H 0.85104 0.86602 0.30025 0.0
H3177 H 0.83952 0.85643 0.299 0.0
H3178 H 0.82677 0.85247 0.26999 0.0
H3179 H 0.80926 0.86274 0.27206 0.0
H3180 H 0.14088 0.90039 0.28207 0.0
H3181 H 0.1227 0.89122 0.27975 0.0
H3182 H 0.13842 0.86463 0.26098 0.0
H3183 H 0.15658 0.87378 0.26308 0.0
H3184 H 0.11663 0.87113 0.25286 0.0
H3185 H 0.11742 0.86298 0.29889 0.0
H3186 H 0.11827 0.87733 0.2944 0.0
H3187 H 0.12961 0.86789 0.29145 0.0
C3188 C 0.14045 0.89268 0.27728 0.0
C3189 C 0.15023 0.8877 0.27293 0.0
C3190 C 0.13005 0.88746 0.27598 0.0
C3191 C 0.12928 0.87716 0.27039 0.0
C3192 C 0.13887 0.87257 0.26537 0.0
H3193 H 0.09708 0.81681 0.26185 0.0
H3194 H 0.10631 0.83482 0.25964 0.0
C3195 C 0.14925 0.8778 0.26661 0.0
C3196 C 0.11887 0.87045 0.27075 0.0
H3197 H 0.10381 0.85375 0.28836 0.0
C3198 C 0.11366 0.86748 0.26063 0.0
C3199 C 0.11496 0.8658 0.28093 0.0
C3200 C 0.12035 0.86857 0.29205 0.0
C3201 C 0.10504 0.8595 0.26037 0.0
C3202 C 0.10175 0.85421 0.27045 0.0
C3203 C 0.10637 0.8578 0.28064 0.0
C3204 C 0.09493 0.84385 0.27051 0.0
C3205 C 0.09978 0.85655 0.24926 0.0
C3206 C 0.08549 0.84288 0.27746 0.0
C3207 C 0.08022 0.8325 0.27885 0.0
C3208 C 0.08441 0.8229 0.27342 0.0
C3209 C 0.09363 0.82401 0.26618 0.0
C3210 C 0.09886 0.83436 0.26479 0.0
H3211 H 0.0999 0.86384 0.24348 0.0
H3212 H 0.10467 0.84971 0.24527 0.0
H3213 H 0.09099 0.85368 0.2503 0.0
H3214 H 0.08241 0.85009 0.28206 0.0
H3215 H 0.07313 0.83193 0.28447 0.0
H3216 H 0.10085 0.80567 0.69319 0.0
H3217 H 0.11241 0.82227 0.69604 0.0
H3218 H 0.0827 0.84211 0.7018 0.0
H3219 H 0.07108 0.82561 0.69813 0.0
H3220 H 0.09485 0.85275 0.68847 0.0
H3221 H 0.12314 0.83898 0.72212 0.0
H3222 H 0.12407 0.82916 0.71082 0.0
H3223 H 0.11098 0.83092 0.7182 0.0
C3224 C 0.09681 0.81353 0.6953 0.0
C3225 C 0.08509 0.81438 0.69548 0.0
C3226 C 0.10343 0.82302 0.69702 0.0
C3227 C 0.09848 0.83346 0.69937 0.0
C3228 C 0.08675 0.83418 0.70002 0.0
H3229 H 0.14771 0.88632 0.71139 0.0
H3230 H 0.13166 0.87391 0.71426 0.0
C3231 C 0.08011 0.82475 0.69797 0.0
C3232 C 0.10548 0.84376 0.70002 0.0
H3233 H 0.13037 0.85362 0.70993 0.0
C3234 C 0.1025 0.85301 0.69336 0.0
C3235 C 0.11534 0.84433 0.70659 0.0
C3236 C 0.11847 0.83535 0.71492 0.0
C3237 C 0.10937 0.86253 0.69265 0.0
C3238 C 0.11981 0.86257 0.69829 0.0
C3239 C 0.1225 0.85357 0.7054 0.0
C3240 C 0.12833 0.87151 0.69656 0.0
C3241 C 0.10528 0.8724 0.68589 0.0
C3242 C 0.13166 0.87459 0.68568 0.0
C3243 C 0.14056 0.88202 0.68406 0.0
C3244 C 0.14656 0.88614 0.69328 0.0
C3245 C 0.14315 0.88325 0.70415 0.0
C3246 C 0.13403 0.87612 0.70578 0.0
H3247 H 0.09599 0.87297 0.68613 0.0
H3248 H 0.10881 0.88043 0.68901 0.0
H3249 H 0.10776 0.87127 0.677 0.0
H3250 H 0.12773 0.87088 0.67839 0.0
H3251 H 0.1432 0.88398 0.6756 0.0
H3252 H 0.16324 0.09882 0.70797 0.0
H3253 H 0.14663 0.11049 0.71068 0.0
H3254 H 0.12796 0.08927 0.68814 0.0
H3255 H 0.1444 0.07745 0.68554 0.0
H3256 H 0.13769 0.12179 0.69299 0.0
H3257 H 0.10494 0.09529 0.7125 0.0
H3258 H 0.11961 0.09158 0.71272 0.0
H3259 H 0.1113 0.08899 0.70041 0.0
C3260 C 0.15553 0.09646 0.70381 0.0
C3261 C 0.15519 0.08727 0.69644 0.0
C3262 C 0.14604 0.10314 0.70538 0.0
C3263 C 0.13604 0.10071 0.69967 0.0
C3264 C 0.1355 0.09118 0.69281 0.0
H3265 H 0.07956 0.14181 0.67965 0.0
H3266 H 0.09256 0.12612 0.68256 0.0
C3267 C 0.14497 0.08448 0.69125 0.0
C3268 C 0.1268 0.10899 0.69955 0.0
H3269 H 0.09873 0.11242 0.70403 0.0
C3270 C 0.12921 0.11977 0.69553 0.0
C3271 C 0.11571 0.10627 0.70272 0.0
C3272 C 0.11273 0.09493 0.70743 0.0
C3273 C 0.12081 0.12788 0.69445 0.0
C3274 C 0.10973 0.12517 0.69758 0.0
C3275 C 0.10726 0.11441 0.70161 0.0
C3276 C 0.10075 0.13364 0.69688 0.0
C3277 C 0.12379 0.13925 0.68978 0.0
C3278 C 0.10091 0.14283 0.70418 0.0
C3279 C 0.0936 0.15178 0.70252 0.0
C3280 C 0.08596 0.15169 0.69353 0.0
C3281 C 0.08538 0.14215 0.68661 0.0
C3282 C 0.09276 0.13317 0.68828 0.0
H3283 H 0.13221 0.13929 0.6858 0.0
H3284 H 0.1175 0.14197 0.68349 0.0
H3285 H 0.12381 0.14549 0.69668 0.0
H3286 H 0.107 0.14327 0.7109 0.0
H3287 H 0.09418 0.15893 0.70809 0.0
H3288 H 0.81132 0.09654 0.70191 0.0
H3289 H 0.82822 0.10776 0.70383 0.0
H3290 H 0.84685 0.08312 0.68504 0.0
H3291 H 0.82981 0.07187 0.68281 0.0
H3292 H 0.8492 0.10371 0.71285 0.0
H3293 H 0.85148 0.11162 0.66689 0.0
H3294 H 0.83938 0.10533 0.67338 0.0
H3295 H 0.85183 0.09718 0.67111 0.0
C3296 C 0.819 0.09343 0.69822 0.0
C3297 C 0.81917 0.08337 0.69207 0.0
C3298 C 0.82868 0.09985 0.69938 0.0
C3299 C 0.83874 0.09635 0.69445 0.0
C3300 C 0.83911 0.08606 0.68872 0.0
H3301 H 0.89641 0.14017 0.68467 0.0
H3302 H 0.88568 0.12294 0.68715 0.0
C3303 C 0.82937 0.07964 0.68749 0.0
C3304 C 0.84855 0.10392 0.6948 0.0
H3305 H 0.86443 0.12096 0.67826 0.0
C3306 C 0.85265 0.10738 0.70528 0.0
C3307 C 0.85301 0.1087 0.68491 0.0
C3308 C 0.84868 0.10561 0.67343 0.0
C3309 C 0.86085 0.11576 0.70616 0.0
C3310 C 0.86495 0.12085 0.6963 0.0
C3311 C 0.86125 0.11701 0.68581 0.0
C3312 C 0.87233 0.1308 0.69655 0.0
C3313 C 0.86493 0.11921 0.71761 0.0
C3314 C 0.86847 0.1409 0.70121 0.0
C3315 C 0.87456 0.1508 0.69978 0.0
C3316 C 0.88458 0.15077 0.69359 0.0
C3317 C 0.88869 0.14052 0.68943 0.0
C3318 C 0.88259 0.13064 0.69085 0.0
H3319 H 0.86368 0.11242 0.72385 0.0
H3320 H 0.87394 0.1215 0.71742 0.0
H3321 H 0.8601 0.12664 0.72046 0.0
H3322 H 0.86045 0.14125 0.70544 0.0
H3323 H 0.87116 0.15854 0.70309 0.0
H3324 H 0.82394 0.8973 0.68894 0.0
H3325 H 0.84158 0.88729 0.69162 0.0
H3326 H 0.82394 0.86031 0.70789 0.0
H3327 H 0.8062 0.87031 0.70536 0.0
H3328 H 0.84615 0.86622 0.71738 0.0
H3329 H 0.84604 0.85928 0.67117 0.0
H3330 H 0.84506 0.87355 0.67591 0.0
H3331 H 0.83377 0.864 0.67864 0.0
C3332 C 0.82381 0.88933 0.69327 0.0
C3333 C 0.81363 0.8845 0.69676 0.0
C3334 C 0.83391 0.88364 0.69479 0.0
C3335 C 0.834 0.87301 0.69976 0.0
C3336 C 0.824 0.86851 0.70399 0.0
H3337 H 0.87204 0.81416 0.70695 0.0
H3338 H 0.86033 0.83063 0.70955 0.0
C3339 C 0.81387 0.87423 0.70252 0.0
C3340 C 0.84422 0.86604 0.69944 0.0
H3341 H 0.86037 0.85077 0.68147 0.0
C3342 C 0.84936 0.86293 0.70954 0.0
C3343 C 0.84841 0.86184 0.68917 0.0
C3344 C 0.84303 0.86475 0.67809 0.0
C3345 C 0.85846 0.85547 0.70965 0.0
C3346 C 0.86229 0.85084 0.69941 0.0
C3347 C 0.85744 0.85435 0.6893 0.0
C3348 C 0.87036 0.84142 0.69899 0.0
C3349 C 0.86381 0.85254 0.72072 0.0
C3350 C 0.87985 0.84196 0.69207 0.0
C3351 C 0.88653 0.83246 0.69042 0.0
C3352 C 0.88375 0.82225 0.69562 0.0
C3353 C 0.87444 0.82188 0.70282 0.0
C3354 C 0.86778 0.83134 0.70443 0.0
H3355 H 0.86288 0.8595 0.72684 0.0
H3356 H 0.85956 0.84507 0.72427 0.0
H3357 H 0.87285 0.85059 0.71973 0.0
H3358 H 0.88192 0.84964 0.6877 0.0
H3359 H 0.89365 0.83303 0.68483 0.0
H3360 H 0.28968 0.06989 0.14094 0.0
H3361 H 0.28717 0.08091 0.12387 0.0
H3362 H 0.26725 0.10488 0.14218 0.0
H3363 H 0.26957 0.09385 0.15928 0.0
H3364 H 0.25941 0.10012 0.11977 0.0
H3365 H 0.30487 0.11056 0.12156 0.0
H3366 H 0.30138 0.09591 0.12118 0.0
H3367 H 0.29761 0.10419 0.13318 0.0
C3368 C 0.28462 0.07741 0.14132 0.0
C3369 C 0.27997 0.08109 0.15152 0.0
C3370 C 0.28321 0.0837 0.13155 0.0
C3371 C 0.27721 0.0938 0.13184 0.0
C3372 C 0.27196 0.09712 0.14182 0.0
H3373 H 0.26638 0.15472 0.09816 0.0
H3374 H 0.26517 0.13742 0.10887 0.0
C3375 C 0.27331 0.09082 0.15159 0.0
C3376 C 0.27724 0.10145 0.12211 0.0
H3377 H 0.29424 0.11923 0.10757 0.0
C3378 C 0.26703 0.10422 0.11699 0.0
C3379 C 0.28722 0.10672 0.11849 0.0
C3380 C 0.2984 0.10429 0.12391 0.0
C3381 C 0.26649 0.11237 0.10853 0.0
C3382 C 0.27639 0.11801 0.1053 0.0
C3383 C 0.28667 0.11487 0.11006 0.0
C3384 C 0.2762 0.128 0.09797 0.0
C3385 C 0.25531 0.11496 0.10324 0.0
C3386 C 0.28294 0.12851 0.08834 0.0
C3387 C 0.28375 0.13847 0.08222 0.0
C3388 C 0.27791 0.14811 0.08571 0.0
C3389 C 0.27099 0.14746 0.09522 0.0
C3390 C 0.27018 0.13753 0.1013 0.0
H3391 H 0.24959 0.10763 0.10368 0.0
H3392 H 0.25131 0.12197 0.10786 0.0
H3393 H 0.25628 0.11748 0.09434 0.0
H3394 H 0.28774 0.12126 0.08571 0.0
H3395 H 0.28915 0.13868 0.07493 0.0
H3396 H 0.82206 0.29642 0.08853 0.0
H3397 H 0.83798 0.29422 0.1012 0.0
H3398 H 0.83789 0.25851 0.09516 0.0
H3399 H 0.82144 0.26065 0.08313 0.0
H3400 H 0.83881 0.26142 0.11585 0.0
H3401 H 0.87038 0.28996 0.09821 0.0
H3402 H 0.85775 0.29767 0.10062 0.0
H3403 H 0.85785 0.28631 0.0906 0.0
C3404 C 0.82561 0.28815 0.08974 0.0
C3405 C 0.82057 0.2787 0.0849 0.0
C3406 C 0.83478 0.28689 0.09691 0.0
C3407 C 0.83931 0.27621 0.09903 0.0
C3408 C 0.83458 0.26684 0.09369 0.0
H3409 H 0.89688 0.27653 0.14454 0.0
H3410 H 0.88548 0.2731 0.12785 0.0
C3411 C 0.82521 0.26806 0.08679 0.0
C3412 C 0.84807 0.27468 0.10775 0.0
H3413 H 0.872 0.28624 0.11821 0.0
C3414 C 0.8462 0.2667 0.11621 0.0
C3415 C 0.85787 0.28134 0.10818 0.0
C3416 C 0.86113 0.28919 0.09882 0.0
C3417 C 0.8535 0.26562 0.12534 0.0
C3418 C 0.86265 0.27309 0.12636 0.0
C3419 C 0.86487 0.28064 0.1176 0.0
C3420 C 0.86962 0.2737 0.13665 0.0
C3421 C 0.8513 0.25644 0.13376 0.0
C3422 C 0.86456 0.27499 0.14721 0.0
C3423 C 0.87108 0.27663 0.15679 0.0
C3424 C 0.88277 0.2774 0.15593 0.0
C3425 C 0.88787 0.27597 0.14542 0.0
C3426 C 0.88136 0.27404 0.13588 0.0
H3427 H 0.84726 0.2491 0.12969 0.0
H3428 H 0.85913 0.25359 0.13789 0.0
H3429 H 0.84544 0.25959 0.14026 0.0
H3430 H 0.85553 0.27517 0.14802 0.0
H3431 H 0.86693 0.27789 0.16477 0.0
H3432 H 0.70317 0.87632 0.16331 0.0
H3433 H 0.70586 0.86454 0.14673 0.0
H3434 H 0.68703 0.88809 0.12682 0.0
H3435 H 0.68421 0.89985 0.14331 0.0
H3436 H 0.67865 0.86643 0.12632 0.0
H3437 H 0.72427 0.86649 0.1177 0.0
H3438 H 0.72081 0.8637 0.13208 0.0
H3439 H 0.71753 0.87714 0.12611 0.0
C3440 C 0.69983 0.87913 0.15535 0.0
C3441 C 0.69337 0.88896 0.15466 0.0
C3442 C 0.70143 0.87242 0.14587 0.0
C3443 C 0.6967 0.87549 0.13554 0.0
C3444 C 0.69077 0.88559 0.13471 0.0
H3445 H 0.68394 0.83195 0.07729 0.0
H3446 H 0.68573 0.8489 0.08879 0.0
C3447 C 0.68915 0.89229 0.14416 0.0
C3448 C 0.69665 0.86751 0.12605 0.0
H3449 H 0.71357 0.85176 0.10922 0.0
C3450 C 0.68627 0.86334 0.12243 0.0
C3451 C 0.7066 0.8635 0.12106 0.0
C3452 C 0.71794 0.868 0.12435 0.0
C3453 C 0.68558 0.85487 0.11432 0.0
C3454 C 0.69555 0.85063 0.10953 0.0
C3455 C 0.70593 0.85506 0.11288 0.0
C3456 C 0.69542 0.84087 0.10186 0.0
C3457 C 0.67422 0.85012 0.11142 0.0
C3458 C 0.70065 0.8309 0.10518 0.0
C3459 C 0.69974 0.82128 0.09862 0.0
C3460 C 0.69355 0.82141 0.08858 0.0
C3461 C 0.68867 0.83154 0.08503 0.0
C3462 C 0.68965 0.84121 0.0916 0.0
H3463 H 0.66769 0.85268 0.11755 0.0
H3464 H 0.67164 0.85322 0.10304 0.0
H3465 H 0.6745 0.84082 0.1111 0.0
H3466 H 0.70515 0.83047 0.11305 0.0
H3467 H 0.70366 0.81366 0.1016 0.0
H3468 H 0.07149 0.69408 0.14875 0.0
H3469 H 0.08343 0.69791 0.13252 0.0
H3470 H 0.11259 0.68885 0.15193 0.0
H3471 H 0.10074 0.68586 0.16836 0.0
H3472 H 0.11782 0.70499 0.13908 0.0
H3473 H 0.09506 0.674 0.11299 0.0
H3474 H 0.08626 0.68535 0.11738 0.0
H3475 H 0.09206 0.67592 0.12765 0.0
C3476 C 0.08047 0.6931 0.14955 0.0
C3477 C 0.08523 0.68963 0.15974 0.0
C3478 C 0.08727 0.69515 0.14025 0.0
C3479 C 0.09888 0.69329 0.14086 0.0
C3480 C 0.10365 0.69028 0.1512 0.0
H3481 H 0.14349 0.67516 0.0875 0.0
H3482 H 0.12898 0.6763 0.10191 0.0
C3483 C 0.0969 0.68858 0.1606 0.0
C3484 C 0.10607 0.69413 0.13073 0.0
H3485 H 0.10929 0.68437 0.10401 0.0
C3486 C 0.11596 0.70046 0.13141 0.0
C3487 C 0.10373 0.6881 0.12075 0.0
C3488 C 0.09377 0.68037 0.11967 0.0
C3489 C 0.12369 0.70072 0.12258 0.0
C3490 C 0.12118 0.69497 0.11248 0.0
C3491 C 0.11116 0.68887 0.11169 0.0
C3492 C 0.1292 0.69445 0.10298 0.0
C3493 C 0.1347 0.70667 0.12445 0.0
C3494 C 0.13388 0.70426 0.09846 0.0
C3495 C 0.14241 0.70358 0.09048 0.0
C3496 C 0.14605 0.6931 0.08654 0.0
C3497 C 0.14078 0.68333 0.09039 0.0
C3498 C 0.1325 0.684 0.09863 0.0
H3499 H 0.1366 0.70764 0.13351 0.0
H3500 H 0.14175 0.70207 0.12047 0.0
H3501 H 0.13425 0.71519 0.12076 0.0
H3502 H 0.13116 0.71243 0.10131 0.0
H3503 H 0.14628 0.71123 0.08751 0.0
H3504 H 0.28438 0.83184 0.89506 0.0
H3505 H 0.28171 0.84963 0.88512 0.0
H3506 H 0.2615 0.83274 0.86035 0.0
H3507 H 0.26395 0.8151 0.87022 0.0
H3508 H 0.28901 0.85308 0.8639 0.0
H3509 H 0.24355 0.86105 0.86529 0.0
H3510 H 0.2504 0.85146 0.87479 0.0
H3511 H 0.24633 0.84693 0.86096 0.0
C3512 C 0.27918 0.83197 0.88762 0.0
C3513 C 0.27444 0.82204 0.8834 0.0
C3514 C 0.27765 0.84214 0.88198 0.0
C3515 C 0.27124 0.84254 0.87211 0.0
C3516 C 0.26621 0.8327 0.86811 0.0
H3517 H 0.26546 0.8721 0.80966 0.0
H3518 H 0.2629 0.86268 0.82764 0.0
C3519 C 0.26775 0.82257 0.87371 0.0
C3520 C 0.27103 0.85274 0.86505 0.0
H3521 H 0.25343 0.86862 0.84905 0.0
C3522 C 0.28125 0.85672 0.86088 0.0
C3523 C 0.26089 0.85748 0.86116 0.0
C3524 C 0.24969 0.85408 0.86589 0.0
C3525 C 0.2816 0.86463 0.8522 0.0
C3526 C 0.27142 0.86877 0.84773 0.0
C3527 C 0.26121 0.86537 0.85244 0.0
C3528 C 0.27127 0.87552 0.83734 0.0
C3529 C 0.29282 0.86785 0.84734 0.0
C3530 C 0.27641 0.88607 0.83693 0.0
C3531 C 0.27797 0.89144 0.82665 0.0
C3532 C 0.27433 0.88637 0.81663 0.0
C3533 C 0.26843 0.8762 0.8172 0.0
C3534 C 0.26693 0.87081 0.82747 0.0
H3535 H 0.29973 0.86252 0.85058 0.0
H3536 H 0.29268 0.86719 0.83806 0.0
H3537 H 0.29471 0.87669 0.84957 0.0
H3538 H 0.27964 0.88992 0.8445 0.0
H3539 H 0.28242 0.89935 0.82653 0.0
H3540 H 0.15187 0.26317 0.88377 0.0
H3541 H 0.13658 0.2622 0.87012 0.0
H3542 H 0.13611 0.29834 0.86816 0.0
H3543 H 0.1508 0.29929 0.88248 0.0
H3544 H 0.11601 0.29111 0.86594 0.0
H3545 H 0.14273 0.26558 0.83787 0.0
H3546 H 0.14004 0.25858 0.85086 0.0
H3547 H 0.14793 0.27147 0.85075 0.0
C3548 C 0.14829 0.27089 0.88057 0.0
C3549 C 0.15247 0.2813 0.88407 0.0
C3550 C 0.13968 0.27033 0.87268 0.0
C3551 C 0.13548 0.28017 0.86776 0.0
C3552 C 0.13927 0.29061 0.87174 0.0
H3553 H 0.10646 0.28417 0.80165 0.0
H3554 H 0.11854 0.28325 0.81816 0.0
C3555 C 0.14763 0.29117 0.87992 0.0
C3556 C 0.12757 0.27963 0.85816 0.0
H3557 H 0.12392 0.26817 0.83218 0.0
C3558 C 0.11776 0.28612 0.85854 0.0
C3559 C 0.12994 0.27329 0.84839 0.0
C3560 C 0.14079 0.26694 0.84687 0.0
C3561 C 0.11031 0.28651 0.84944 0.0
C3562 C 0.11245 0.27979 0.83987 0.0
C3563 C 0.1222 0.27322 0.83954 0.0
C3564 C 0.10505 0.27988 0.82984 0.0
C3565 C 0.10053 0.29452 0.85004 0.0
C3566 C 0.09347 0.27801 0.83081 0.0
C3567 C 0.08653 0.27883 0.8214 0.0
C3568 C 0.0911 0.28111 0.8108 0.0
C3569 C 0.10274 0.28235 0.80972 0.0
C3570 C 0.10963 0.28184 0.81916 0.0
H3571 H 0.10208 0.30138 0.85615 0.0
H3572 H 0.09874 0.29832 0.84174 0.0
H3573 H 0.09297 0.28991 0.85287 0.0
H3574 H 0.08977 0.27605 0.83884 0.0
H3575 H 0.07759 0.27771 0.82243 0.0
H3576 H 0.67275 0.14586 0.88594 0.0
H3577 H 0.67443 0.13105 0.8719 0.0
H3578 H 0.71048 0.13257 0.87459 0.0
H3579 H 0.70876 0.14799 0.888 0.0
H3580 H 0.70572 0.13309 0.8543 0.0
H3581 H 0.68029 0.09879 0.87163 0.0
H3582 H 0.67187 0.11118 0.87092 0.0
H3583 H 0.68404 0.11087 0.87991 0.0
C3584 C 0.681 0.14282 0.88371 0.0
C3585 C 0.69063 0.148 0.88802 0.0
C3586 C 0.68198 0.13429 0.87574 0.0
C3587 C 0.69259 0.13051 0.87226 0.0
C3588 C 0.7022 0.13531 0.87709 0.0
H3589 H 0.6921 0.07615 0.8228 0.0
H3590 H 0.69549 0.08675 0.84003 0.0
C3591 C 0.70122 0.14408 0.88479 0.0
C3592 C 0.69368 0.12255 0.86272 0.0
H3593 H 0.68244 0.09884 0.85137 0.0
C3594 C 0.70079 0.12548 0.85379 0.0
C3595 C 0.68747 0.11247 0.86204 0.0
C3596 C 0.68061 0.1081 0.87172 0.0
C3597 C 0.70147 0.11891 0.84407 0.0
C3598 C 0.69441 0.10945 0.84295 0.0
C3599 C 0.68771 0.10621 0.85208 0.0
C3600 C 0.69348 0.10305 0.83229 0.0
C3601 C 0.70984 0.1222 0.83518 0.0
C3602 C 0.69134 0.10864 0.82214 0.0
C3603 C 0.68975 0.1026 0.81223 0.0
C3604 C 0.68985 0.09084 0.81236 0.0
C3605 C 0.69198 0.08523 0.82248 0.0
C3606 C 0.69388 0.09128 0.83233 0.0
H3607 H 0.71722 0.12643 0.83896 0.0
H3608 H 0.71281 0.11483 0.83034 0.0
H3609 H 0.70588 0.12825 0.82933 0.0
H3610 H 0.69055 0.11767 0.8219 0.0
H3611 H 0.68793 0.10712 0.80457 0.0
H3612 H 0.89509 0.68514 0.82652 0.0
H3613 H 0.88553 0.68711 0.84451 0.0
H3614 H 0.85863 0.70501 0.82838 0.0
H3615 H 0.86812 0.70313 0.81029 0.0
H3616 H 0.86645 0.71354 0.85094 0.0
H3617 H 0.85624 0.66796 0.84918 0.0
H3618 H 0.87066 0.67195 0.84739 0.0
H3619 H 0.86055 0.67569 0.83692 0.0
C3620 C 0.88721 0.68964 0.82679 0.0
C3621 C 0.88229 0.69384 0.81692 0.0
C3622 C 0.88178 0.69075 0.83709 0.0
C3623 C 0.87135 0.69608 0.83771 0.0
C3624 C 0.86669 0.70085 0.82803 0.0
H3625 H 0.81462 0.70618 0.87783 0.0
H3626 H 0.83102 0.70806 0.86596 0.0
C3627 C 0.87211 0.69974 0.8177 0.0
C3628 C 0.86477 0.69579 0.84818 0.0
H3629 H 0.84872 0.67829 0.86404 0.0
C3630 C 0.86266 0.70583 0.85391 0.0
C3631 C 0.85997 0.68568 0.85206 0.0
C3632 C 0.86187 0.67469 0.84608 0.0
C3633 C 0.85557 0.70608 0.8633 0.0
C3634 C 0.85026 0.69606 0.8668 0.0
C3635 C 0.85281 0.68595 0.86136 0.0
C3636 C 0.84104 0.69602 0.87511 0.0
C3637 C 0.85375 0.71707 0.86928 0.0
C3638 C 0.84114 0.68853 0.88419 0.0
C3639 C 0.83164 0.68729 0.89095 0.0
C3640 C 0.82187 0.69348 0.88867 0.0
C3641 C 0.82198 0.70127 0.87983 0.0
C3642 C 0.83143 0.70247 0.87309 0.0
H3643 H 0.86122 0.72258 0.8685 0.0
H3644 H 0.84657 0.72151 0.86539 0.0
H3645 H 0.85191 0.71579 0.87831 0.0
H3646 H 0.84844 0.6834 0.88583 0.0
H3647 H 0.83184 0.68123 0.8977 0.0
H3648 H 0.16528 0.26848 0.10347 0.0
H3649 H 0.14902 0.2668 0.1158 0.0
H3650 H 0.12776 0.28002 0.08975 0.0
H3651 H 0.14394 0.28184 0.0774 0.0
H3652 H 0.12668 0.29195 0.10948 0.0
H3653 H 0.1214 0.24657 0.11774 0.0
H3654 H 0.13551 0.25138 0.11973 0.0
H3655 H 0.12934 0.25184 0.10598 0.0
C3656 C 0.15711 0.27077 0.10026 0.0
C3657 C 0.15594 0.27541 0.08949 0.0
C3658 C 0.14781 0.26974 0.1073 0.0
C3659 C 0.13718 0.27323 0.10365 0.0
C3660 C 0.13589 0.27726 0.0927 0.0
H3661 H 0.07797 0.28824 0.14499 0.0
H3662 H 0.08994 0.28502 0.12862 0.0
C3663 C 0.14517 0.27831 0.08567 0.0
C3664 C 0.12778 0.27407 0.11169 0.0
H3665 H 0.1125 0.25915 0.13068 0.0
C3666 C 0.12343 0.28476 0.11399 0.0
C3667 C 0.12361 0.26467 0.11756 0.0
C3668 C 0.12762 0.25295 0.11507 0.0
C3669 C 0.1154 0.2864 0.1224 0.0
C3670 C 0.11147 0.27705 0.12852 0.0
C3671 C 0.11554 0.2663 0.12596 0.0
C3672 C 0.10385 0.2784 0.13819 0.0
C3673 C 0.11161 0.29819 0.12503 0.0
C3674 C 0.10761 0.27546 0.14892 0.0
C3675 C 0.1008 0.27722 0.15825 0.0
C3676 C 0.09007 0.28194 0.15703 0.0
C3677 C 0.08622 0.28468 0.14623 0.0
C3678 C 0.09305 0.28287 0.13687 0.0
H3679 H 0.11712 0.30459 0.12112 0.0
H3680 H 0.10299 0.29944 0.12177 0.0
H3681 H 0.11145 0.29964 0.13422 0.0
H3682 H 0.11592 0.272 0.15011 0.0
H3683 H 0.10402 0.27498 0.16643 0.0
H3684 H 0.16701 0.7018 0.87319 0.0
H3685 H 0.1511 0.70455 0.86057 0.0
H3686 H 0.12893 0.69036 0.8853 0.0
H3687 H 0.14477 0.68742 0.89789 0.0
H3688 H 0.12772 0.67976 0.8651 0.0
H3689 H 0.1243 0.72566 0.85904 0.0
H3690 H 0.13823 0.72042 0.85686 0.0
H3691 H 0.13199 0.71952 0.87055 0.0
C3692 C 0.15872 0.69951 0.87605 0.0
C3693 C 0.15718 0.69429 0.88649 0.0
C3694 C 0.14961 0.70115 0.86885 0.0
C3695 C 0.13882 0.69773 0.87204 0.0
C3696 C 0.13718 0.69308 0.8827 0.0
H3697 H 0.07951 0.68674 0.82971 0.0
H3698 H 0.09142 0.68917 0.84626 0.0
C3699 C 0.14626 0.69139 0.88986 0.0
C3700 C 0.12956 0.69767 0.86378 0.0
H3701 H 0.11506 0.7141 0.84541 0.0
C3702 C 0.12481 0.68729 0.86092 0.0
C3703 C 0.12583 0.7075 0.85833 0.0
C3704 C 0.13027 0.71892 0.86142 0.0
C3705 C 0.11678 0.68639 0.8524 0.0
C3706 C 0.11326 0.69618 0.84673 0.0
C3707 C 0.11777 0.70661 0.8498 0.0
C3708 C 0.10561 0.6956 0.837 0.0
C3709 C 0.11254 0.6749 0.84918 0.0
C3710 C 0.10952 0.69876 0.82639 0.0
C3711 C 0.10275 0.69745 0.81696 0.0
C3712 C 0.0919 0.69296 0.81794 0.0
C3713 C 0.08785 0.69013 0.82865 0.0
C3714 C 0.09465 0.69149 0.83811 0.0
H3715 H 0.11778 0.6681 0.85278 0.0
H3716 H 0.10387 0.67384 0.85235 0.0
H3717 H 0.11237 0.67392 0.83992 0.0
H3718 H 0.11795 0.70197 0.82537 0.0
H3719 H 0.10613 0.69977 0.80887 0.0
H3720 H 0.2726 0.14809 0.89533 0.0
H3721 H 0.26858 0.1313 0.88423 0.0
H3722 H 0.27836 0.14888 0.85417 0.0
H3723 H 0.28159 0.16588 0.86516 0.0
H3724 H 0.26202 0.13587 0.84949 0.0
H3725 H 0.29253 0.11092 0.87413 0.0
H3726 H 0.28108 0.11596 0.88244 0.0
H3727 H 0.29073 0.12576 0.87621 0.0
C3728 C 0.27369 0.14838 0.88632 0.0
C3729 C 0.27747 0.15822 0.88107 0.0
C3730 C 0.27153 0.13876 0.88 0.0
C3731 C 0.27356 0.13867 0.86841 0.0
C3732 C 0.27681 0.14868 0.86312 0.0
H3733 H 0.29312 0.0846 0.82588 0.0
H3734 H 0.29125 0.09889 0.84046 0.0
C3735 C 0.27864 0.15841 0.86938 0.0
C3736 C 0.27272 0.12815 0.86179 0.0
H3737 H 0.2826 0.10132 0.86001 0.0
C3738 C 0.26652 0.12831 0.85179 0.0
C3739 C 0.27868 0.1183 0.86474 0.0
C3740 C 0.28622 0.11773 0.8749 0.0
C3741 C 0.26641 0.11909 0.84449 0.0
C3742 C 0.27219 0.10917 0.84755 0.0
C3743 C 0.27808 0.10888 0.85772 0.0
C3744 C 0.27311 0.09941 0.83985 0.0
C3745 C 0.26062 0.12039 0.8333 0.0
C3746 C 0.26354 0.09453 0.83504 0.0
C3747 C 0.26463 0.0866 0.82649 0.0
C3748 C 0.27528 0.08308 0.82296 0.0
C3749 C 0.28481 0.08716 0.8285 0.0
C3750 C 0.28374 0.09534 0.83681 0.0
H3751 H 0.25941 0.12935 0.83106 0.0
H3752 H 0.26547 0.11631 0.82649 0.0
H3753 H 0.25222 0.11645 0.83371 0.0
H3754 H 0.25524 0.09718 0.83756 0.0
H3755 H 0.25715 0.08347 0.8224 0.0
H3756 H 0.80834 0.2668 0.8711 0.0
H3757 H 0.82535 0.26561 0.85983 0.0
H3758 H 0.84364 0.28359 0.8853 0.0
H3759 H 0.82665 0.28492 0.89662 0.0
H3760 H 0.84493 0.29336 0.8645 0.0
H3761 H 0.85475 0.24817 0.86135 0.0
H3762 H 0.84032 0.25109 0.85829 0.0
H3763 H 0.84572 0.25383 0.87211 0.0
C3764 C 0.81602 0.27029 0.87444 0.0
C3765 C 0.81609 0.27605 0.88472 0.0
C3766 C 0.82577 0.26953 0.86801 0.0
C3767 C 0.83578 0.27443 0.87178 0.0
C3768 C 0.83601 0.27971 0.88227 0.0
H3769 H 0.89256 0.29011 0.82683 0.0
H3770 H 0.88206 0.28771 0.84433 0.0
C3771 C 0.82628 0.28046 0.88872 0.0
C3772 C 0.84548 0.27532 0.86411 0.0
H3773 H 0.86207 0.25997 0.84662 0.0
C3774 C 0.84888 0.28607 0.86076 0.0
C3775 C 0.85061 0.2658 0.85929 0.0
C3776 C 0.84774 0.25407 0.86303 0.0
C3777 C 0.8567 0.28756 0.85212 0.0
C3778 C 0.86135 0.27801 0.84685 0.0
C3779 C 0.85844 0.26727 0.85065 0.0
C3780 C 0.86819 0.27898 0.83657 0.0
C3781 C 0.85937 0.29929 0.84823 0.0
C3782 C 0.86397 0.27465 0.8265 0.0
C3783 C 0.86993 0.27594 0.81655 0.0
C3784 C 0.88026 0.2816 0.81645 0.0
C3785 C 0.88458 0.28578 0.8266 0.0
C3786 C 0.8786 0.28444 0.8366 0.0
H3787 H 0.85366 0.30563 0.85196 0.0
H3788 H 0.86807 0.30144 0.85071 0.0
H3789 H 0.8588 0.29987 0.83896 0.0
H3790 H 0.85594 0.27042 0.8263 0.0
H3791 H 0.86635 0.27259 0.80891 0.0
H3792 H 0.70683 0.80934 0.87174 0.0
H3793 H 0.70882 0.8269 0.86143 0.0
H3794 H 0.69045 0.84432 0.88723 0.0
H3795 H 0.68829 0.82679 0.89754 0.0
H3796 H 0.68123 0.84675 0.8665 0.0
H3797 H 0.7266 0.85587 0.86445 0.0
H3798 H 0.72344 0.84169 0.86052 0.0
H3799 H 0.72066 0.84634 0.8746 0.0
C3800 C 0.70345 0.81695 0.87537 0.0
C3801 C 0.69729 0.81663 0.8854 0.0
C3802 C 0.70467 0.827 0.86949 0.0
C3803 C 0.69986 0.83693 0.87361 0.0
C3804 C 0.69426 0.83676 0.88393 0.0
H3805 H 0.68458 0.89626 0.83217 0.0
H3806 H 0.68746 0.88485 0.84901 0.0
C3807 C 0.69302 0.82672 0.8898 0.0
C3808 C 0.69927 0.847 0.86639 0.0
H3809 H 0.7151 0.86434 0.8501 0.0
C3810 C 0.68863 0.85077 0.86309 0.0
C3811 C 0.70893 0.85221 0.86197 0.0
C3812 C 0.72055 0.84889 0.86566 0.0
C3813 C 0.68738 0.85913 0.85493 0.0
C3814 C 0.69705 0.86397 0.85011 0.0
C3815 C 0.7077 0.86059 0.85381 0.0
C3816 C 0.69627 0.87157 0.84035 0.0
C3817 C 0.67573 0.86218 0.85105 0.0
C3818 C 0.70062 0.86805 0.83002 0.0
C3819 C 0.69907 0.87455 0.82045 0.0
C3820 C 0.69311 0.88471 0.82099 0.0
C3821 C 0.6891 0.88843 0.83144 0.0
C3822 C 0.69072 0.88192 0.84106 0.0
H3823 H 0.66931 0.85621 0.85417 0.0
H3824 H 0.67356 0.87066 0.85422 0.0
H3825 H 0.67531 0.86238 0.84175 0.0
H3826 H 0.70494 0.86009 0.8293 0.0
H3827 H 0.70233 0.87144 0.81256 0.0
H3828 H 0.82357 0.68912 0.06975 0.0
H3829 H 0.84116 0.69255 0.07964 0.0
H3830 H 0.8231 0.70903 0.10625 0.0
H3831 H 0.80544 0.70579 0.09635 0.0
H3832 H 0.84496 0.71873 0.10082 0.0
H3833 H 0.84592 0.6725 0.10757 0.0
H3834 H 0.84521 0.67721 0.09329 0.0
H3835 H 0.8336 0.67964 0.10253 0.0
C3836 C 0.82335 0.69368 0.0776 0.0
C3837 C 0.81309 0.69699 0.08238 0.0
C3838 C 0.83341 0.69563 0.08322 0.0
C3839 C 0.83337 0.70083 0.09375 0.0
C3840 C 0.82327 0.70495 0.09813 0.0
H3841 H 0.86858 0.70859 0.15383 0.0
H3842 H 0.85773 0.71103 0.13678 0.0
C3843 C 0.81319 0.70308 0.09248 0.0
C3844 C 0.84352 0.70074 0.10084 0.0
H3845 H 0.85968 0.68315 0.11653 0.0
C3846 C 0.8483 0.71095 0.10415 0.0
C3847 C 0.84788 0.69056 0.1051 0.0
C3848 C 0.84288 0.67934 0.10203 0.0
C3849 C 0.85713 0.71128 0.11192 0.0
C3850 C 0.86107 0.70113 0.11663 0.0
C3851 C 0.85666 0.69091 0.11288 0.0
C3852 C 0.86867 0.7009 0.12644 0.0
C3853 C 0.86203 0.72248 0.11512 0.0
C3854 C 0.87839 0.69427 0.12635 0.0
C3855 C 0.88458 0.69272 0.13619 0.0
C3856 C 0.88108 0.6977 0.14628 0.0
C3857 C 0.87153 0.70462 0.14622 0.0
C3858 C 0.86537 0.70615 0.13642 0.0
H3859 H 0.86123 0.7286 0.10815 0.0
H3860 H 0.85738 0.72589 0.12241 0.0
H3861 H 0.87101 0.72173 0.11744 0.0
H3862 H 0.881 0.69005 0.11875 0.0
H3863 H 0.8919 0.68736 0.13594 0.0
H3864 H 0.26361 0.87904 0.15226 0.0
H3865 H 0.26232 0.86801 0.1352 0.0
H3866 H 0.28736 0.88889 0.11963 0.0
H3867 H 0.289 0.89986 0.13695 0.0
H3868 H 0.25752 0.87201 0.11317 0.0
H3869 H 0.30184 0.85824 0.11843 0.0
H3870 H 0.29454 0.86599 0.12914 0.0
H3871 H 0.29962 0.87303 0.11684 0.0
C3872 C 0.26879 0.8814 0.14521 0.0
C3873 C 0.27657 0.89021 0.14606 0.0
C3874 C 0.26799 0.8751 0.13541 0.0
C3875 C 0.2749 0.87749 0.12622 0.0
C3876 C 0.28214 0.88675 0.12673 0.0
H3877 H 0.28626 0.82746 0.0738 0.0
H3878 H 0.2848 0.84602 0.08234 0.0
C3879 C 0.28303 0.89303 0.13661 0.0
C3880 C 0.27507 0.86957 0.11666 0.0
H3881 H 0.29124 0.84925 0.10468 0.0
C3882 C 0.26494 0.86715 0.11116 0.0
C3883 C 0.28476 0.86324 0.11406 0.0
C3884 C 0.2958 0.86516 0.11995 0.0
C3885 C 0.26413 0.85823 0.10353 0.0
C3886 C 0.27367 0.85156 0.10142 0.0
C3887 C 0.28394 0.85441 0.10635 0.0
C3888 C 0.27303 0.84091 0.09511 0.0
C3889 C 0.25301 0.85582 0.09803 0.0
C3890 C 0.26677 0.83192 0.0994 0.0
C3891 C 0.26764 0.82127 0.0946 0.0
C3892 C 0.27482 0.81941 0.08546 0.0
C3893 C 0.28068 0.82857 0.08087 0.0
C3894 C 0.27984 0.8392 0.0857 0.0
H3895 H 0.2476 0.8634 0.09783 0.0
H3896 H 0.25418 0.85269 0.08934 0.0
H3897 H 0.24857 0.84925 0.10289 0.0
H3898 H 0.26164 0.83302 0.10681 0.0
H3899 H 0.26301 0.81441 0.09833 0.0
H3900 H 0.69772 0.145 0.07527 0.0
H3901 H 0.70049 0.12739 0.08542 0.0
H3902 H 0.6976 0.14515 0.11684 0.0
H3903 H 0.69562 0.16282 0.10672 0.0
H3904 H 0.71228 0.12957 0.11891 0.0
H3905 H 0.67499 0.11077 0.0984 0.0
H3906 H 0.68597 0.11423 0.08877 0.0
H3907 H 0.67888 0.1252 0.09635 0.0
C3908 C 0.69788 0.14513 0.08435 0.0
C3909 C 0.69637 0.15522 0.09024 0.0
C3910 C 0.69933 0.13505 0.09014 0.0
C3911 C 0.69886 0.13486 0.10189 0.0
C3912 C 0.69792 0.14505 0.10776 0.0
H3913 H 0.67534 0.08533 0.14705 0.0
H3914 H 0.6781 0.09886 0.13192 0.0
C3915 C 0.6968 0.15515 0.10198 0.0
C3916 C 0.69884 0.12412 0.10818 0.0
H3917 H 0.68462 0.0995 0.11136 0.0
C3918 C 0.70625 0.12297 0.11724 0.0
C3919 C 0.69091 0.11555 0.10604 0.0
C3920 C 0.68217 0.11652 0.09694 0.0
C3921 C 0.70564 0.11377 0.12452 0.0
C3922 C 0.69777 0.10515 0.12233 0.0
C3923 C 0.69069 0.10606 0.11298 0.0
C3924 C 0.69593 0.09575 0.13027 0.0
C3925 C 0.71297 0.11382 0.13485 0.0
C3926 C 0.70488 0.08909 0.134 0.0
C3927 C 0.70336 0.08163 0.14288 0.0
C3928 C 0.69276 0.08034 0.14779 0.0
C3929 C 0.68358 0.08617 0.14334 0.0
C3930 C 0.68518 0.0939 0.13472 0.0
H3931 H 0.71621 0.12234 0.13676 0.0
H3932 H 0.70832 0.11075 0.14229 0.0
H3933 H 0.7203 0.10828 0.13344 0.0
H3934 H 0.71315 0.09002 0.1304 0.0
H3935 H 0.71053 0.0771 0.14612 0.0
H3936 H 0.09467 0.65713 0.76636 0.0
H3937 H 0.104 0.63905 0.76472 0.0
H3938 H 0.0801 0.62445 0.78754 0.0
H3939 H 0.07077 0.6426 0.78939 0.0
H3940 H 0.10131 0.62166 0.79448 0.0
H3941 H 0.09868 0.60897 0.75013 0.0
H3942 H 0.10321 0.62325 0.75129 0.0
H3943 H 0.08945 0.61937 0.75615 0.0
C3944 C 0.09121 0.65003 0.77083 0.0
C3945 C 0.08206 0.65136 0.77812 0.0
C3946 C 0.0965 0.63965 0.76979 0.0
C3947 C 0.09267 0.63036 0.77591 0.0
C3948 C 0.08314 0.6315 0.78269 0.0
H3949 H 0.13953 0.5746 0.79005 0.0
H3950 H 0.12126 0.58385 0.78828 0.0
C3951 C 0.07785 0.64189 0.78375 0.0
C3952 C 0.0997 0.62015 0.77657 0.0
H3953 H 0.11517 0.60239 0.76035 0.0
C3954 C 0.1041 0.6172 0.78707 0.0
C3955 C 0.10328 0.61432 0.76689 0.0
C3956 C 0.0983 0.61657 0.7555 0.0
C3957 C 0.11274 0.60929 0.78804 0.0
C3958 C 0.11695 0.60412 0.77824 0.0
C3959 C 0.11196 0.60644 0.76784 0.0
C3960 C 0.12754 0.5977 0.77842 0.0
C3961 C 0.11788 0.60719 0.7994 0.0
C3962 C 0.137 0.60228 0.77321 0.0
C3963 C 0.14739 0.59705 0.77418 0.0
C3964 C 0.14853 0.5871 0.78039 0.0
C3965 C 0.13895 0.5823 0.78529 0.0
C3966 C 0.12851 0.58757 0.7843 0.0
H3967 H 0.11454 0.61295 0.80592 0.0
H3968 H 0.11608 0.59846 0.80204 0.0
H3969 H 0.12712 0.6082 0.79902 0.0
H3970 H 0.13642 0.61011 0.76866 0.0
H3971 H 0.15456 0.60095 0.77023 0.0
H3972 H 0.89162 0.64176 0.78735 0.0
H3973 H 0.88166 0.62388 0.78541 0.0
H3974 H 0.85739 0.63974 0.76384 0.0
H3975 H 0.86724 0.65748 0.76562 0.0
H3976 H 0.85989 0.62081 0.79223 0.0
H3977 H 0.86345 0.61058 0.74725 0.0
H3978 H 0.87267 0.62044 0.75412 0.0
H3979 H 0.85904 0.62481 0.74931 0.0
C3980 C 0.88427 0.64137 0.78203 0.0
C3981 C 0.88019 0.65106 0.77668 0.0
C3982 C 0.87862 0.63116 0.78092 0.0
C3983 C 0.8689 0.63044 0.77432 0.0
C3984 C 0.86503 0.64002 0.76873 0.0
H3985 H 0.80747 0.59867 0.76676 0.0
H3986 H 0.82518 0.60873 0.7649 0.0
C3987 C 0.87062 0.65021 0.76987 0.0
C3988 C 0.86193 0.62019 0.77432 0.0
H3989 H 0.84715 0.60302 0.75685 0.0
C3990 C 0.85732 0.61669 0.78454 0.0
C3991 C 0.85862 0.61485 0.76427 0.0
C3992 C 0.86381 0.61779 0.75314 0.0
C3993 C 0.8488 0.60862 0.78489 0.0
C3994 C 0.84496 0.6038 0.77475 0.0
C3995 C 0.85008 0.60678 0.7646 0.0
C3996 C 0.83481 0.5967 0.77446 0.0
C3997 C 0.84344 0.60589 0.79603 0.0
C3998 C 0.83448 0.5864 0.78008 0.0
C3999 C 0.82435 0.58065 0.78123 0.0
C4000 C 0.8144 0.5851 0.7767 0.0
C4001 C 0.81494 0.59505 0.77042 0.0
C4002 C 0.82507 0.6008 0.76932 0.0
H4003 H 0.84617 0.6117 0.80278 0.0
H4004 H 0.83417 0.60626 0.79537 0.0
H4005 H 0.8458 0.59725 0.79853 0.0
H4006 H 0.84197 0.58302 0.78394 0.0
H4007 H 0.82426 0.57294 0.78601 0.0
H4008 H 0.87096 0.3102 0.76363 0.0
H4009 H 0.85966 0.32708 0.7615 0.0
H4010 H 0.88534 0.34655 0.77787 0.0
H4011 H 0.89664 0.32965 0.78025 0.0
H4012 H 0.8655 0.34835 0.7882 0.0
H4013 H 0.85913 0.35531 0.74291 0.0
H4014 H 0.85618 0.34107 0.74668 0.0
H4015 H 0.87019 0.34646 0.74827 0.0
C4016 C 0.87436 0.31812 0.76651 0.0
C4017 C 0.88464 0.31854 0.77225 0.0
C4018 C 0.86791 0.3278 0.7652 0.0
C4019 C 0.87169 0.3381 0.76945 0.0
C4020 C 0.88228 0.33869 0.7745 0.0
H4021 H 0.82652 0.39452 0.78545 0.0
H4022 H 0.84403 0.38449 0.78166 0.0
C4023 C 0.88872 0.32901 0.77587 0.0
C4024 C 0.86385 0.3477 0.77023 0.0
H4025 H 0.84471 0.36273 0.75523 0.0
C4026 C 0.86115 0.35171 0.78097 0.0
C4027 C 0.85817 0.35206 0.76079 0.0
C4028 C 0.86116 0.34858 0.74901 0.0
C4029 C 0.85238 0.35935 0.7826 0.0
C4030 C 0.84629 0.36323 0.77321 0.0
C4031 C 0.84938 0.3597 0.76241 0.0
C4032 C 0.83593 0.36989 0.77456 0.0
C4033 C 0.84926 0.36266 0.79441 0.0
C4034 C 0.82564 0.36513 0.77153 0.0
C4035 C 0.81566 0.37082 0.77363 0.0
C4036 C 0.81577 0.38142 0.77882 0.0
C4037 C 0.82613 0.38633 0.78154 0.0
C4038 C 0.83614 0.38062 0.7794 0.0
H4039 H 0.8536 0.35745 0.80079 0.0
H4040 H 0.85161 0.37154 0.79586 0.0
H4041 H 0.84008 0.36189 0.7957 0.0
H4042 H 0.82531 0.35685 0.7678 0.0
H4043 H 0.80785 0.3668 0.77136 0.0
H4044 H 0.13548 0.40108 0.78171 0.0
H4045 H 0.11669 0.39327 0.77927 0.0
H4046 H 0.13049 0.36595 0.76004 0.0
H4047 H 0.14926 0.37372 0.76229 0.0
H4048 H 0.10852 0.37411 0.75254 0.0
H4049 H 0.11082 0.36486 0.79836 0.0
H4050 H 0.11231 0.37917 0.79387 0.0
H4051 H 0.12303 0.36914 0.79056 0.0
C4052 C 0.1345 0.39353 0.77676 0.0
C4053 C 0.1439 0.38788 0.77239 0.0
C4054 C 0.12375 0.3891 0.77538 0.0
C4055 C 0.12226 0.37895 0.76965 0.0
C4056 C 0.13149 0.3738 0.76451 0.0
H4057 H 0.09216 0.31934 0.75986 0.0
H4058 H 0.09953 0.33816 0.75779 0.0
C4059 C 0.14223 0.37822 0.76585 0.0
C4060 C 0.11156 0.37277 0.77028 0.0
H4061 H 0.09734 0.35544 0.78794 0.0
C4062 C 0.10587 0.37023 0.76032 0.0
C4063 C 0.10801 0.36787 0.78048 0.0
C4064 C 0.11384 0.37032 0.79145 0.0
C4065 C 0.09725 0.36224 0.76015 0.0
C4066 C 0.09454 0.35647 0.77014 0.0
C4067 C 0.09948 0.35982 0.78027 0.0
C4068 C 0.08842 0.34567 0.77003 0.0
C4069 C 0.0915 0.35971 0.74919 0.0
C4070 C 0.07975 0.34354 0.77768 0.0
C4071 C 0.07561 0.33265 0.77905 0.0
C4072 C 0.08016 0.32372 0.77283 0.0
C4073 C 0.08848 0.326 0.76482 0.0
C4074 C 0.0926 0.33683 0.76349 0.0
H4075 H 0.0908 0.3674 0.74399 0.0
H4076 H 0.09657 0.35355 0.7444 0.0
H4077 H 0.08299 0.35618 0.7505 0.0
H4078 H 0.0765 0.35022 0.78291 0.0
H4079 H 0.06916 0.33118 0.78525 0.0
H4080 H 0.06868 0.33172 0.18688 0.0
H4081 H 0.07883 0.34945 0.18844 0.0
H4082 H 0.10338 0.3336 0.20968 0.0
H4083 H 0.09326 0.31587 0.2083 0.0
H4084 H 0.09767 0.35661 0.21569 0.0
H4085 H 0.1086 0.35105 0.17059 0.0
H4086 H 0.09397 0.35124 0.17413 0.0
H4087 H 0.10264 0.33987 0.17882 0.0
C4088 C 0.07612 0.33204 0.19207 0.0
C4089 C 0.08028 0.32231 0.1973 0.0
C4090 C 0.08191 0.34219 0.19293 0.0
C4091 C 0.09195 0.34275 0.19899 0.0
C4092 C 0.09565 0.3333 0.20492 0.0
H4093 H 0.1526 0.37586 0.20842 0.0
H4094 H 0.13475 0.36624 0.21012 0.0
C4095 C 0.08986 0.32316 0.2041 0.0
C4096 C 0.09932 0.35267 0.19816 0.0
H4097 H 0.11748 0.36556 0.18027 0.0
C4098 C 0.10188 0.35871 0.20792 0.0
C4099 C 0.10472 0.35542 0.18798 0.0
C4100 C 0.10244 0.34905 0.17727 0.0
C4101 C 0.11006 0.36716 0.20785 0.0
C4102 C 0.11597 0.3694 0.19783 0.0
C4103 C 0.11293 0.36382 0.18794 0.0
C4104 C 0.12627 0.37633 0.19766 0.0
C4105 C 0.11245 0.37342 0.21857 0.0
C4106 C 0.12751 0.38512 0.18995 0.0
C4107 C 0.13782 0.3906 0.18884 0.0
C4108 C 0.14707 0.38729 0.19536 0.0
C4109 C 0.14567 0.37865 0.20326 0.0
C4110 C 0.13541 0.37321 0.20435 0.0
H4111 H 0.10488 0.37385 0.22397 0.0
H4112 H 0.11905 0.36892 0.22333 0.0
H4113 H 0.11542 0.38208 0.21688 0.0
H4114 H 0.12059 0.38756 0.18461 0.0
H4115 H 0.13861 0.39721 0.18268 0.0
H4116 H 0.14852 0.57298 0.19521 0.0
H4117 H 0.13127 0.58362 0.19843 0.0
H4118 H 0.14954 0.61452 0.19384 0.0
H4119 H 0.16688 0.60391 0.19144 0.0
H4120 H 0.13488 0.61753 0.20903 0.0
H4121 H 0.11346 0.59629 0.17367 0.0
H4122 H 0.11731 0.58677 0.18463 0.0
H4123 H 0.12803 0.59396 0.17681 0.0
C4124 C 0.14884 0.58205 0.19509 0.0
C4125 C 0.15898 0.58765 0.19303 0.0
C4126 C 0.13897 0.58812 0.19679 0.0
C4127 C 0.139 0.59987 0.19598 0.0
C4128 C 0.14925 0.60546 0.19443 0.0
H4129 H 0.08625 0.64412 0.17599 0.0
H4130 H 0.10055 0.62949 0.17748 0.0
C4131 C 0.15918 0.59941 0.19308 0.0
C4132 C 0.1284 0.6064 0.19638 0.0
H4133 H 0.1027 0.60919 0.1841 0.0
C4134 C 0.12784 0.6157 0.20357 0.0
C4135 C 0.11925 0.6041 0.18916 0.0
C4136 C 0.11957 0.59482 0.18055 0.0
C4137 C 0.1186 0.62296 0.20352 0.0
C4138 C 0.10931 0.62049 0.19652 0.0
C4139 C 0.10974 0.61101 0.18956 0.0
C4140 C 0.09954 0.62815 0.19558 0.0
C4141 C 0.11922 0.6335 0.21052 0.0
C4142 C 0.09381 0.63188 0.20516 0.0
C4143 C 0.0859 0.64047 0.20433 0.0
C4144 C 0.08323 0.64508 0.19385 0.0
C4145 C 0.08814 0.64062 0.18416 0.0
C4146 C 0.09633 0.63229 0.18502 0.0
H4147 H 0.12801 0.63567 0.21271 0.0
H4148 H 0.11546 0.64074 0.20607 0.0
H4149 H 0.11461 0.63219 0.21848 0.0
H4150 H 0.09579 0.6285 0.21334 0.0
H4151 H 0.08212 0.64375 0.21191 0.0
H4152 H 0.82718 0.58048 0.21094 0.0
H4153 H 0.84294 0.5936 0.21204 0.0
H4154 H 0.84175 0.59781 0.17611 0.0
H4155 H 0.82669 0.58401 0.17496 0.0
H4156 H 0.86203 0.59952 0.18231 0.0
H4157 H 0.83693 0.62593 0.21126 0.0
H4158 H 0.84036 0.61251 0.21704 0.0
H4159 H 0.83136 0.61343 0.20493 0.0
C4160 C 0.83052 0.58403 0.20329 0.0
C4161 C 0.82574 0.58134 0.19288 0.0
C4162 C 0.83941 0.59162 0.20392 0.0
C4163 C 0.84325 0.59706 0.19421 0.0
C4164 C 0.8389 0.59382 0.18375 0.0
H4165 H 0.86626 0.66412 0.18753 0.0
H4166 H 0.85641 0.64646 0.19054 0.0
C4167 C 0.8303 0.58593 0.18308 0.0
C4168 C 0.8512 0.60664 0.19487 0.0
H4169 H 0.85475 0.63259 0.20642 0.0
C4170 C 0.86045 0.60676 0.1876 0.0
C4171 C 0.84908 0.61614 0.2017 0.0
C4172 C 0.83884 0.61707 0.20908 0.0
C4173 C 0.86732 0.61625 0.18656 0.0
C4174 C 0.86526 0.6257 0.19347 0.0
C4175 C 0.85635 0.62535 0.20114 0.0
C4176 C 0.87147 0.63643 0.19219 0.0
C4177 C 0.87623 0.61623 0.17759 0.0
C4178 C 0.88324 0.63679 0.19233 0.0
C4179 C 0.88888 0.64685 0.19023 0.0
C4180 C 0.88284 0.65679 0.18844 0.0
C4181 C 0.87111 0.65656 0.18894 0.0
C4182 C 0.86548 0.64647 0.19066 0.0
H4183 H 0.87459 0.60976 0.17109 0.0
H4184 H 0.87679 0.62451 0.17338 0.0
H4185 H 0.88446 0.6143 0.18145 0.0
H4186 H 0.88808 0.62928 0.19391 0.0
H4187 H 0.89795 0.64686 0.19002 0.0
H4188 H 0.82991 0.40013 0.18231 0.0
H4189 H 0.84716 0.38934 0.1845 0.0
H4190 H 0.82952 0.36498 0.20446 0.0
H4191 H 0.81218 0.37575 0.20241 0.0
H4192 H 0.8526 0.37063 0.21181 0.0
H4193 H 0.84888 0.35928 0.16663 0.0
H4194 H 0.84883 0.37397 0.17003 0.0
H4195 H 0.83738 0.36527 0.17441 0.0
C4196 C 0.82971 0.39257 0.18732 0.0
C4197 C 0.81961 0.3887 0.19203 0.0
C4198 C 0.83958 0.38643 0.18855 0.0
C4199 C 0.83953 0.3763 0.19447 0.0
C4200 C 0.82968 0.37278 0.19983 0.0
H4201 H 0.87444 0.31632 0.2052 0.0
H4202 H 0.86402 0.33374 0.20674 0.0
C4203 C 0.81979 0.37893 0.19863 0.0
C4204 C 0.84937 0.36879 0.19415 0.0
H4205 H 0.86339 0.35092 0.1768 0.0
C4206 C 0.85507 0.3664 0.20415 0.0
C4207 C 0.85261 0.36339 0.18411 0.0
C4208 C 0.8466 0.36551 0.17317 0.0
C4209 C 0.86376 0.35847 0.20441 0.0
C4210 C 0.86659 0.35263 0.19448 0.0
C4211 C 0.86123 0.35543 0.18439 0.0
C4212 C 0.874 0.34268 0.19453 0.0
C4213 C 0.86972 0.35633 0.21535 0.0
C4214 C 0.88304 0.34183 0.18703 0.0
C4215 C 0.88898 0.33176 0.18601 0.0
C4216 C 0.88589 0.32236 0.1924 0.0
C4217 C 0.87706 0.32338 0.20014 0.0
C4218 C 0.87115 0.3334 0.20114 0.0
H4219 H 0.86965 0.36392 0.22075 0.0
H4220 H 0.86531 0.34956 0.21995 0.0
H4221 H 0.87853 0.3537 0.21397 0.0
H4222 H 0.8853 0.34887 0.18177 0.0
H4223 H 0.89574 0.33125 0.17998 0.0
H4224 H 0.27689 0.669 0.60684 0.0
H4225 H 0.27356 0.65267 0.61869 0.0
H4226 H 0.28432 0.63087 0.59192 0.0
H4227 H 0.28788 0.64718 0.58002 0.0
H4228 H 0.25956 0.63394 0.61548 0.0
H4229 H 0.30452 0.62195 0.61816 0.0
H4230 H 0.30002 0.6354 0.61292 0.0
H4231 H 0.29901 0.62315 0.60421 0.0
C4232 C 0.27857 0.66074 0.60345 0.0
C4233 C 0.28276 0.6594 0.59251 0.0
C4234 C 0.27661 0.65142 0.61022 0.0
C4235 C 0.2788 0.6406 0.60621 0.0
C4236 C 0.28275 0.63919 0.59523 0.0
H4237 H 0.28082 0.5779 0.643 0.0
H4238 H 0.27883 0.59124 0.62763 0.0
C4239 C 0.28476 0.64851 0.58844 0.0
C4240 C 0.27725 0.63086 0.6137 0.0
H4241 H 0.29161 0.61033 0.6274 0.0
C4242 C 0.26654 0.62872 0.61806 0.0
C4243 C 0.28639 0.62409 0.61701 0.0
C4244 C 0.29816 0.62628 0.61293 0.0
C4245 C 0.26474 0.62 0.62574 0.0
C4246 C 0.27393 0.61339 0.62922 0.0
C4247 C 0.28457 0.61538 0.62465 0.0
C4248 C 0.27298 0.60483 0.63812 0.0
C4249 C 0.25305 0.61793 0.63005 0.0
C4250 C 0.27004 0.60797 0.64907 0.0
C4251 C 0.27114 0.60035 0.6579 0.0
C4252 C 0.27534 0.58952 0.65592 0.0
C4253 C 0.27765 0.58621 0.64483 0.0
C4254 C 0.2765 0.59381 0.63603 0.0
H4255 H 0.24662 0.62129 0.62422 0.0
H4256 H 0.2515 0.60884 0.63131 0.0
H4257 H 0.25201 0.62223 0.63823 0.0
H4258 H 0.2675 0.61649 0.6509 0.0
H4259 H 0.26932 0.60317 0.66633 0.0
H4260 H 0.87335 0.76826 0.66525 0.0
H4261 H 0.86086 0.7648 0.64936 0.0
H4262 H 0.88022 0.78758 0.62908 0.0
H4263 H 0.89284 0.79092 0.64477 0.0
H4264 H 0.84824 0.78127 0.63998 0.0
H4265 H 0.87506 0.762 0.60734 0.0
H4266 H 0.87918 0.76271 0.62188 0.0
H4267 H 0.88082 0.77472 0.61292 0.0
C4268 C 0.87509 0.77236 0.65734 0.0
C4269 C 0.88406 0.77993 0.65631 0.0
C4270 C 0.86795 0.77036 0.64827 0.0
C4271 C 0.86969 0.77584 0.638 0.0
C4272 C 0.87887 0.78306 0.63683 0.0
H4273 H 0.82841 0.79119 0.58047 0.0
H4274 H 0.84376 0.78943 0.59403 0.0
C4275 C 0.88602 0.78504 0.64587 0.0
C4276 C 0.86118 0.7751 0.62901 0.0
H4277 H 0.85749 0.76958 0.60114 0.0
C4278 C 0.85023 0.77857 0.63153 0.0
C4279 C 0.86384 0.77169 0.61796 0.0
C4280 C 0.87534 0.76747 0.61487 0.0
C4281 C 0.84193 0.77897 0.62325 0.0
C4282 C 0.8446 0.77568 0.61219 0.0
C4283 C 0.85551 0.77213 0.60964 0.0
C4284 C 0.83606 0.77587 0.60325 0.0
C4285 C 0.8304 0.78318 0.62634 0.0
C4286 C 0.82687 0.76861 0.60381 0.0
C4287 C 0.81811 0.76961 0.59616 0.0
C4288 C 0.8184 0.77787 0.58775 0.0
C4289 C 0.82791 0.78478 0.58687 0.0
C4290 C 0.83668 0.78378 0.59458 0.0
H4291 H 0.83037 0.7876 0.63454 0.0
H4292 H 0.82716 0.78898 0.61982 0.0
H4293 H 0.82457 0.77597 0.62691 0.0
H4294 H 0.82634 0.76236 0.61038 0.0
H4295 H 0.81099 0.76405 0.59701 0.0
H4296 H 0.68264 0.33302 0.5724 0.0
H4297 H 0.68428 0.35107 0.58207 0.0
H4298 H 0.71059 0.33756 0.60285 0.0
H4299 H 0.70918 0.31969 0.59318 0.0
H4300 H 0.67977 0.3532 0.60393 0.0
H4301 H 0.72277 0.36838 0.59673 0.0
H4302 H 0.71638 0.35774 0.58804 0.0
H4303 H 0.72294 0.35402 0.60113 0.0
C4304 C 0.68896 0.33399 0.57884 0.0
C4305 C 0.69571 0.32488 0.58209 0.0
C4306 C 0.6899 0.34431 0.58434 0.0
C4307 C 0.69767 0.34572 0.59307 0.0
C4308 C 0.70475 0.33679 0.59595 0.0
H4309 H 0.70594 0.37587 0.65526 0.0
H4310 H 0.70798 0.36681 0.637 0.0
C4311 C 0.70383 0.32651 0.59048 0.0
C4312 C 0.69727 0.35575 0.60038 0.0
H4313 H 0.71409 0.37422 0.61436 0.0
C4314 C 0.68719 0.35803 0.60599 0.0
C4315 C 0.70696 0.36203 0.60306 0.0
C4316 C 0.71783 0.36048 0.59682 0.0
C4317 C 0.68675 0.36578 0.61481 0.0
C4318 C 0.69663 0.37151 0.61798 0.0
C4319 C 0.70655 0.36975 0.61194 0.0
C4320 C 0.697 0.37832 0.62833 0.0
C4321 C 0.6759 0.3672 0.62116 0.0
C4322 C 0.69051 0.38806 0.62935 0.0
C4323 C 0.68926 0.39323 0.63979 0.0
C4324 C 0.69452 0.38875 0.64936 0.0
C4325 C 0.7017 0.37949 0.64809 0.0
C4326 C 0.70291 0.37432 0.63766 0.0
H4327 H 0.66952 0.36088 0.61869 0.0
H4328 H 0.67737 0.3665 0.63032 0.0
H4329 H 0.67241 0.37565 0.61946 0.0
H4330 H 0.686 0.39135 0.6222 0.0
H4331 H 0.68378 0.40044 0.64043 0.0
H4332 H 0.16062 0.20457 0.59794 0.0
H4333 H 0.14484 0.20634 0.6108 0.0
H4334 H 0.12658 0.18143 0.59206 0.0
H4335 H 0.14239 0.17953 0.57904 0.0
H4336 H 0.11522 0.2052 0.60121 0.0
H4337 H 0.13649 0.17635 0.63119 0.0
H4338 H 0.14481 0.18675 0.62407 0.0
H4339 H 0.13872 0.17547 0.61623 0.0
C4340 C 0.15322 0.19952 0.59644 0.0
C4341 C 0.15281 0.19182 0.58751 0.0
C4342 C 0.14421 0.20059 0.60378 0.0
C4343 C 0.13463 0.19401 0.60234 0.0
C4344 C 0.13394 0.18661 0.59323 0.0
H4345 H 0.07491 0.18519 0.64206 0.0
H4346 H 0.08802 0.18761 0.62656 0.0
C4347 C 0.14298 0.18552 0.58584 0.0
C4348 C 0.12577 0.19427 0.61092 0.0
H4349 H 0.1198 0.1849 0.63722 0.0
C4350 C 0.11614 0.20074 0.60908 0.0
C4351 C 0.12712 0.18848 0.62114 0.0
C4352 C 0.1373 0.18131 0.62335 0.0
C4353 C 0.10781 0.20166 0.61735 0.0
C4354 C 0.10919 0.19588 0.6276 0.0
C4355 C 0.11883 0.18939 0.62938 0.0
C4356 C 0.1006 0.19604 0.63652 0.0
C4357 C 0.09772 0.20895 0.61517 0.0
C4358 C 0.1033 0.20011 0.64722 0.0
C4359 C 0.09583 0.19873 0.65613 0.0
C4360 C 0.08561 0.19312 0.65449 0.0
C4361 C 0.08273 0.18952 0.64362 0.0
C4362 C 0.09018 0.19095 0.63472 0.0
H4363 H 0.09916 0.21484 0.60811 0.0
H4364 H 0.09047 0.20355 0.613 0.0
H4365 H 0.09548 0.21385 0.62277 0.0
H4366 H 0.11135 0.204 0.64876 0.0
H4367 H 0.09831 0.20159 0.66438 0.0
H4368 H 0.28385 0.3276 0.39387 0.0
H4369 H 0.28163 0.34565 0.38432 0.0
H4370 H 0.26158 0.32969 0.35881 0.0
H4371 H 0.26358 0.31177 0.3683 0.0
H4372 H 0.28895 0.35005 0.36322 0.0
H4373 H 0.24338 0.35763 0.36514 0.0
H4374 H 0.25034 0.34761 0.37412 0.0
H4375 H 0.24641 0.34382 0.36004 0.0
C4376 C 0.27883 0.32797 0.38631 0.0
C4377 C 0.27392 0.31823 0.38183 0.0
C4378 C 0.27755 0.33829 0.3809 0.0
C4379 C 0.27125 0.33905 0.37098 0.0
C4380 C 0.2662 0.32938 0.36662 0.0
H4381 H 0.26522 0.3744 0.31104 0.0
H4382 H 0.26266 0.36313 0.32791 0.0
C4383 C 0.26747 0.31909 0.37201 0.0
C4384 C 0.27097 0.34957 0.36441 0.0
H4385 H 0.25328 0.36668 0.34983 0.0
C4386 C 0.28117 0.35389 0.36051 0.0
C4387 C 0.2608 0.35455 0.36091 0.0
C4388 C 0.24962 0.35072 0.36538 0.0
C4389 C 0.28146 0.3625 0.35253 0.0
C4390 C 0.27126 0.36702 0.34851 0.0
C4391 C 0.26107 0.36315 0.3529 0.0
C4392 C 0.27107 0.37485 0.33891 0.0
C4393 C 0.29266 0.36617 0.34793 0.0
C4394 C 0.2762 0.3854 0.33962 0.0
C4395 C 0.27775 0.39184 0.32997 0.0
C4396 C 0.27412 0.38786 0.31947 0.0
C4397 C 0.26819 0.37768 0.31897 0.0
C4398 C 0.26669 0.37124 0.32861 0.0
H4399 H 0.29957 0.3605 0.35054 0.0
H4400 H 0.29244 0.36647 0.33863 0.0
H4401 H 0.29461 0.37471 0.35104 0.0
H4402 H 0.27944 0.38841 0.34755 0.0
H4403 H 0.28222 0.39971 0.33069 0.0
H4404 H 0.07517 0.78902 0.3248 0.0
H4405 H 0.08639 0.78701 0.34183 0.0
H4406 H 0.11205 0.76993 0.32299 0.0
H4407 H 0.10088 0.77178 0.30591 0.0
H4408 H 0.10714 0.76051 0.34496 0.0
H4409 H 0.11486 0.80658 0.3458 0.0
H4410 H 0.1005 0.80207 0.34543 0.0
H4411 H 0.10939 0.79954 0.33357 0.0
C4412 C 0.08315 0.78472 0.32428 0.0
C4413 C 0.08719 0.78069 0.31395 0.0
C4414 C 0.08955 0.78361 0.33403 0.0
C4415 C 0.1001 0.77848 0.3336 0.0
C4416 C 0.10392 0.77395 0.32345 0.0
H4417 H 0.16078 0.7687 0.36784 0.0
H4418 H 0.14372 0.76749 0.35676 0.0
C4419 C 0.09754 0.77504 0.3137 0.0
C4420 C 0.10756 0.77849 0.34351 0.0
H4421 H 0.12412 0.79569 0.35924 0.0
C4422 C 0.11077 0.7682 0.34819 0.0
C4423 C 0.11217 0.78855 0.34775 0.0
C4424 C 0.10915 0.79983 0.34287 0.0
C4425 C 0.11877 0.76768 0.35679 0.0
C4426 C 0.12384 0.7777 0.3606 0.0
C4427 C 0.12021 0.78803 0.3563 0.0
C4428 C 0.13377 0.77763 0.36804 0.0
C4429 C 0.12182 0.7564 0.36161 0.0
C4430 C 0.13392 0.78391 0.378 0.0
C4431 C 0.14375 0.78473 0.38435 0.0
C4432 C 0.15362 0.77936 0.38077 0.0
C4433 C 0.15334 0.77293 0.37088 0.0
C4434 C 0.14355 0.77213 0.36457 0.0
H4435 H 0.11475 0.75039 0.36085 0.0
H4436 H 0.12901 0.75289 0.35688 0.0
H4437 H 0.12424 0.75708 0.37058 0.0
H4438 H 0.12648 0.78833 0.38076 0.0
H4439 H 0.14368 0.78975 0.39191 0.0
H4440 H 0.69061 0.57536 0.32702 0.0
H4441 H 0.69343 0.58617 0.34421 0.0
H4442 H 0.70715 0.61343 0.32489 0.0
H4443 H 0.70458 0.60263 0.30769 0.0
H4444 H 0.71806 0.60985 0.34589 0.0
H4445 H 0.67157 0.61212 0.34987 0.0
H4446 H 0.67769 0.59836 0.34953 0.0
H4447 H 0.6783 0.60711 0.3373 0.0
C4448 C 0.69439 0.58359 0.32644 0.0
C4449 C 0.69718 0.58823 0.31596 0.0
C4450 C 0.69598 0.58975 0.33627 0.0
C4451 C 0.70028 0.60067 0.33577 0.0
C4452 C 0.70377 0.60502 0.32543 0.0
H4453 H 0.70405 0.66338 0.36583 0.0
H4454 H 0.70721 0.64572 0.3561 0.0
C4455 C 0.70226 0.59885 0.3156 0.0
C4456 C 0.70011 0.60806 0.34572 0.0
H4457 H 0.68215 0.62311 0.36211 0.0
C4458 C 0.71023 0.61263 0.34958 0.0
C4459 C 0.68987 0.61159 0.35057 0.0
C4460 C 0.67871 0.60713 0.3466 0.0
C4461 C 0.71035 0.62103 0.35781 0.0
C4462 C 0.70007 0.62507 0.3621 0.0
C4463 C 0.69001 0.61999 0.35878 0.0
C4464 C 0.69937 0.63546 0.36883 0.0
C4465 C 0.72145 0.62569 0.36164 0.0
C4466 C 0.69377 0.63558 0.37916 0.0
C4467 C 0.69183 0.64572 0.38472 0.0
C4468 C 0.69537 0.65591 0.37997 0.0
C4469 C 0.7012 0.6557 0.36974 0.0
C4470 C 0.70314 0.64559 0.36421 0.0
H4471 H 0.72822 0.61935 0.3608 0.0
H4472 H 0.7237 0.63296 0.35631 0.0
H4473 H 0.72107 0.62855 0.37049 0.0
H4474 H 0.69067 0.62786 0.38279 0.0
H4475 H 0.68732 0.64559 0.3926 0.0
H4476 H 0.90071 0.18888 0.32923 0.0
H4477 H 0.89002 0.19097 0.34658 0.0
H4478 H 0.86335 0.20707 0.32829 0.0
H4479 H 0.87401 0.20517 0.31091 0.0
H4480 H 0.86756 0.21611 0.35051 0.0
H4481 H 0.86294 0.16959 0.34984 0.0
H4482 H 0.87696 0.17508 0.34988 0.0
H4483 H 0.8681 0.1773 0.33792 0.0
C4484 C 0.89266 0.19307 0.32892 0.0
C4485 C 0.88811 0.19668 0.31865 0.0
C4486 C 0.88658 0.19423 0.33885 0.0
C4487 C 0.87583 0.19895 0.33865 0.0
C4488 C 0.87163 0.20335 0.32859 0.0
H4489 H 0.81362 0.20364 0.36947 0.0
H4490 H 0.83134 0.20634 0.35985 0.0
C4491 C 0.87773 0.20224 0.31866 0.0
C4492 C 0.86839 0.19819 0.34852 0.0
H4493 H 0.85248 0.17947 0.36311 0.0
C4494 C 0.86438 0.2081 0.35341 0.0
C4495 C 0.86435 0.18771 0.35233 0.0
C4496 C 0.86822 0.17679 0.34721 0.0
C4497 C 0.85605 0.20783 0.36169 0.0
C4498 C 0.85148 0.19739 0.36496 0.0
C4499 C 0.856 0.18746 0.36057 0.0
C4500 C 0.84108 0.19659 0.37164 0.0
C4501 C 0.85203 0.21873 0.36668 0.0
C4502 C 0.8406 0.18999 0.38137 0.0
C4503 C 0.83038 0.18831 0.38687 0.0
C4504 C 0.82048 0.19311 0.38265 0.0
C4505 C 0.82106 0.19982 0.37298 0.0
C4506 C 0.83123 0.20149 0.36752 0.0
H4507 H 0.85876 0.22516 0.36655 0.0
H4508 H 0.84494 0.22197 0.36161 0.0
H4509 H 0.84913 0.2176 0.37545 0.0
H4510 H 0.84809 0.186 0.38458 0.0
H4511 H 0.83021 0.18309 0.3943 0.0
H4512 H 0.14113 0.78817 0.57303 0.0
H4513 H 0.12323 0.78747 0.58293 0.0
H4514 H 0.13773 0.76566 0.60779 0.0
H4515 H 0.1557 0.76625 0.59797 0.0
H4516 H 0.11422 0.76054 0.60025 0.0
H4517 H 0.12167 0.80473 0.61368 0.0
H4518 H 0.12241 0.80158 0.59895 0.0
H4519 H 0.1328 0.79602 0.60829 0.0
C4520 C 0.14049 0.78306 0.58051 0.0
C4521 C 0.14991 0.77739 0.58481 0.0
C4522 C 0.13025 0.78269 0.58613 0.0
C4523 C 0.12925 0.77664 0.59613 0.0
C4524 C 0.13839 0.77039 0.60007 0.0
H4525 H 0.09335 0.76596 0.65466 0.0
H4526 H 0.10353 0.76476 0.63708 0.0
C4527 C 0.14865 0.77076 0.59446 0.0
C4528 C 0.11911 0.77767 0.60313 0.0
H4529 H 0.10645 0.79537 0.62167 0.0
C4530 C 0.11238 0.7682 0.60482 0.0
C4531 C 0.1167 0.78772 0.60894 0.0
C4532 C 0.12377 0.79811 0.60747 0.0
C4533 C 0.10356 0.76837 0.61258 0.0
C4534 C 0.10165 0.77818 0.61897 0.0
C4535 C 0.10795 0.78786 0.61676 0.0
C4536 C 0.09438 0.77817 0.629 0.0
C4537 C 0.09654 0.75797 0.61405 0.0
C4538 C 0.08593 0.78625 0.63038 0.0
C4539 C 0.08012 0.78706 0.64054 0.0
C4540 C 0.08278 0.77987 0.6495 0.0
C4541 C 0.09108 0.77165 0.64795 0.0
C4542 C 0.09683 0.77084 0.63784 0.0
H4543 H 0.09615 0.75304 0.60615 0.0
H4544 H 0.1004 0.75256 0.62055 0.0
H4545 H 0.08787 0.76007 0.61671 0.0
H4546 H 0.08402 0.79208 0.62369 0.0
H4547 H 0.07378 0.79349 0.64146 0.0
H4548 H 0.1665 0.20437 0.37392 0.0
H4549 H 0.15233 0.20769 0.35946 0.0
H4550 H 0.12807 0.18934 0.37894 0.0
H4551 H 0.14205 0.18613 0.39346 0.0
H4552 H 0.14273 0.1901 0.34808 0.0
H4553 H 0.10963 0.21586 0.36799 0.0
H4554 H 0.12359 0.21468 0.37373 0.0
H4555 H 0.11344 0.2038 0.37614 0.0
C4556 C 0.15807 0.20128 0.37525 0.0
C4557 C 0.15544 0.1949 0.3848 0.0
C4558 C 0.14999 0.20318 0.36699 0.0
C4559 C 0.13913 0.19884 0.36818 0.0
C4560 C 0.13633 0.19296 0.37795 0.0
H4561 H 0.08351 0.18258 0.32504 0.0
H4562 H 0.09627 0.18575 0.34084 0.0
C4563 C 0.14438 0.19105 0.3862 0.0
C4564 C 0.1312 0.1991 0.35865 0.0
H4565 H 0.10447 0.20606 0.35118 0.0
C4566 C 0.13442 0.19374 0.34869 0.0
C4567 C 0.12033 0.20374 0.35954 0.0
C4568 C 0.11656 0.20994 0.36989 0.0
C4569 C 0.12696 0.19258 0.3397 0.0
C4570 C 0.11604 0.19709 0.34063 0.0
C4571 C 0.11284 0.2026 0.35052 0.0
C4572 C 0.10785 0.19601 0.3314 0.0
C4573 C 0.13071 0.18619 0.32943 0.0
C4574 C 0.11002 0.20096 0.32099 0.0
C4575 C 0.10283 0.19911 0.31196 0.0
C4576 C 0.09326 0.19235 0.31321 0.0
C4577 C 0.09084 0.18778 0.3238 0.0
C4578 C 0.09809 0.18961 0.33283 0.0
H4579 H 0.13827 0.18103 0.33112 0.0
H4580 H 0.12394 0.18062 0.32632 0.0
H4581 H 0.1328 0.19222 0.32268 0.0
H4582 H 0.11741 0.20609 0.31979 0.0
H4583 H 0.10488 0.20288 0.30397 0.0
H4584 H 0.25865 0.58775 0.32146 0.0
H4585 H 0.25769 0.60139 0.33676 0.0
H4586 H 0.29381 0.60216 0.3383 0.0
H4587 H 0.29476 0.58797 0.32352 0.0
H4588 H 0.28591 0.604 0.35827 0.0
H4589 H 0.26253 0.63374 0.33139 0.0
H4590 H 0.255 0.62094 0.3335 0.0
H4591 H 0.26814 0.62078 0.32607 0.0
C4592 C 0.26637 0.5907 0.32523 0.0
C4593 C 0.27678 0.5869 0.3213 0.0
C4594 C 0.26582 0.59859 0.33386 0.0
C4595 C 0.27568 0.60313 0.3384 0.0
C4596 C 0.28608 0.59887 0.33487 0.0
H4597 H 0.28263 0.66793 0.36993 0.0
H4598 H 0.2805 0.65213 0.35699 0.0
C4599 C 0.28662 0.59074 0.32645 0.0
C4600 C 0.27523 0.61256 0.34652 0.0
H4601 H 0.26479 0.63894 0.35042 0.0
C4602 C 0.28131 0.61165 0.35654 0.0
C4603 C 0.2694 0.62265 0.34417 0.0
C4604 C 0.26351 0.62465 0.33315 0.0
C4605 C 0.2818 0.62053 0.36424 0.0
C4606 C 0.27557 0.63043 0.36212 0.0
C4607 C 0.26943 0.63131 0.35213 0.0
C4608 C 0.2758 0.64019 0.36985 0.0
C4609 C 0.2894 0.61934 0.37429 0.0
C4610 C 0.27343 0.63888 0.3813 0.0
C4611 C 0.27492 0.64782 0.38871 0.0
C4612 C 0.27839 0.65833 0.38473 0.0
C4613 C 0.2799 0.6599 0.37318 0.0
C4614 C 0.27872 0.65087 0.36581 0.0
H4615 H 0.29603 0.61296 0.37284 0.0
H4616 H 0.29351 0.62741 0.37642 0.0
H4617 H 0.28439 0.61655 0.38161 0.0
H4618 H 0.27073 0.63086 0.38456 0.0
H4619 H 0.27358 0.64645 0.39758 0.0
H4620 H 0.82439 0.79117 0.39489 0.0
H4621 H 0.83921 0.78778 0.38124 0.0
H4622 H 0.81753 0.76528 0.36307 0.0
H4623 H 0.80251 0.76877 0.37659 0.0
H4624 H 0.85018 0.76841 0.37348 0.0
H4625 H 0.82561 0.78936 0.33991 0.0
H4626 H 0.82178 0.79021 0.35451 0.0
H4627 H 0.81861 0.77782 0.34654 0.0
C4628 C 0.82277 0.78542 0.38805 0.0
C4629 C 0.81219 0.78037 0.38674 0.0
C4630 C 0.83128 0.78347 0.38028 0.0
C4631 C 0.82939 0.77645 0.37105 0.0
C4632 C 0.81907 0.77091 0.37003 0.0
H4633 H 0.86723 0.76355 0.31077 0.0
H4634 H 0.85427 0.76257 0.32651 0.0
C4635 C 0.81051 0.77288 0.37779 0.0
C4636 C 0.83801 0.7755 0.3622 0.0
H4637 H 0.84292 0.78143 0.33467 0.0
C4638 C 0.84861 0.77123 0.36498 0.0
C4639 C 0.83594 0.7793 0.35116 0.0
C4640 C 0.82491 0.78453 0.34783 0.0
C4641 C 0.85718 0.7705 0.35694 0.0
C4642 C 0.85507 0.77425 0.34591 0.0
C4643 C 0.84447 0.7785 0.34314 0.0
C4644 C 0.86369 0.77394 0.33702 0.0
C4645 C 0.86834 0.76559 0.36024 0.0
C4646 C 0.87337 0.78058 0.33779 0.0
C4647 C 0.88084 0.78117 0.32877 0.0
C4648 C 0.87868 0.7752 0.31884 0.0
C4649 C 0.86914 0.76831 0.31827 0.0
C4650 C 0.86171 0.76771 0.32726 0.0
H4651 H 0.86778 0.76074 0.36817 0.0
H4652 H 0.87163 0.76003 0.35354 0.0
H4653 H 0.87445 0.77249 0.36151 0.0
H4654 H 0.87493 0.7856 0.34519 0.0
H4655 H 0.88809 0.78658 0.32946 0.0
H4656 H 0.67859 0.32744 0.39616 0.0
H4657 H 0.68124 0.34473 0.38546 0.0
H4658 H 0.70054 0.32658 0.36088 0.0
H4659 H 0.69809 0.30931 0.37154 0.0
H4660 H 0.70912 0.34843 0.36625 0.0
H4661 H 0.66353 0.34877 0.35606 0.0
H4662 H 0.66728 0.34865 0.37065 0.0
H4663 H 0.67033 0.33667 0.36207 0.0
C4664 C 0.68352 0.32715 0.38855 0.0
C4665 C 0.68799 0.31695 0.38462 0.0
C4666 C 0.685 0.33703 0.38245 0.0
C4667 C 0.69092 0.33687 0.3723 0.0
C4668 C 0.69591 0.32686 0.36868 0.0
H4669 H 0.7032 0.36862 0.3113 0.0
H4670 H 0.70386 0.35858 0.32903 0.0
C4671 C 0.69447 0.31698 0.37478 0.0
C4672 C 0.6912 0.34681 0.36491 0.0
H4673 H 0.67483 0.36195 0.34702 0.0
C4674 C 0.70161 0.35152 0.36216 0.0
C4675 C 0.68137 0.35087 0.35967 0.0
C4676 C 0.66998 0.34597 0.36217 0.0
C4677 C 0.7025 0.35987 0.35394 0.0
C4678 C 0.69276 0.36341 0.3482 0.0
C4679 C 0.68228 0.35919 0.35143 0.0
C4680 C 0.69332 0.37035 0.33794 0.0
C4681 C 0.71389 0.36465 0.3513 0.0
C4682 C 0.68704 0.38026 0.33701 0.0
C4683 C 0.68656 0.38601 0.32681 0.0
C4684 C 0.69225 0.38186 0.31734 0.0
C4685 C 0.69872 0.37207 0.31841 0.0
C4686 C 0.69921 0.36636 0.32859 0.0
H4687 H 0.71953 0.3642 0.3587 0.0
H4688 H 0.71778 0.35967 0.34447 0.0
H4689 H 0.7133 0.37351 0.34852 0.0
H4690 H 0.68234 0.3834 0.34411 0.0
H4691 H 0.6815 0.39353 0.32627 0.0
H4692 H 0.89457 0.18102 0.64002 0.0
H4693 H 0.88476 0.18467 0.62234 0.0
H4694 H 0.86019 0.20441 0.64005 0.0
H4695 H 0.86992 0.20097 0.65761 0.0
H4696 H 0.86329 0.17836 0.61788 0.0
H4697 H 0.86671 0.22425 0.61329 0.0
H4698 H 0.87566 0.21632 0.62258 0.0
H4699 H 0.86186 0.22053 0.62701 0.0
C4700 C 0.88716 0.18625 0.64012 0.0
C4701 C 0.88302 0.19067 0.65024 0.0
C4702 C 0.8816 0.18837 0.63001 0.0
C4703 C 0.87189 0.19502 0.62985 0.0
C4704 C 0.86785 0.19954 0.63992 0.0
H4705 H 0.81102 0.20484 0.59789 0.0
H4706 H 0.8286 0.20663 0.6082 0.0
C4707 C 0.87337 0.19744 0.64999 0.0
C4708 C 0.86515 0.19622 0.61952 0.0
H4709 H 0.85067 0.21554 0.60418 0.0
C4710 C 0.86075 0.18647 0.61466 0.0
C4711 C 0.86188 0.20683 0.61535 0.0
C4712 C 0.86688 0.21757 0.61976 0.0
C4713 C 0.85247 0.18704 0.60635 0.0
C4714 C 0.84866 0.19766 0.60269 0.0
C4715 C 0.85357 0.20742 0.60704 0.0
C4716 C 0.8387 0.1987 0.59539 0.0
C4717 C 0.84731 0.17626 0.60214 0.0
C4718 C 0.83869 0.19418 0.58455 0.0
C4719 C 0.82864 0.19306 0.57866 0.0
C4720 C 0.81846 0.19653 0.58351 0.0
C4721 C 0.81868 0.20201 0.59395 0.0
C4722 C 0.82874 0.20305 0.59985 0.0
H4723 H 0.84993 0.16889 0.60719 0.0
H4724 H 0.83803 0.17681 0.60229 0.0
H4725 H 0.84996 0.1748 0.59335 0.0
H4726 H 0.84635 0.19097 0.58089 0.0
H4727 H 0.82878 0.18896 0.57056 0.0
H4728 H 0.2803 0.33086 0.56954 0.0
H4729 H 0.2784 0.34891 0.57907 0.0
H4730 H 0.26193 0.33261 0.60677 0.0
H4731 H 0.26359 0.31457 0.59726 0.0
H4732 H 0.2534 0.35455 0.60164 0.0
H4733 H 0.29998 0.35347 0.60557 0.0
H4734 H 0.29418 0.35308 0.59167 0.0
H4735 H 0.29209 0.34143 0.60095 0.0
C4736 C 0.27606 0.33114 0.57756 0.0
C4737 C 0.2723 0.32124 0.58276 0.0
C4738 C 0.275 0.34147 0.58299 0.0
C4739 C 0.27025 0.34203 0.59371 0.0
C4740 C 0.26567 0.33233 0.5985 0.0
H4741 H 0.26706 0.37181 0.65563 0.0
H4742 H 0.26367 0.36309 0.63754 0.0
C4743 C 0.26666 0.32201 0.59307 0.0
C4744 C 0.27127 0.35226 0.60063 0.0
H4745 H 0.29038 0.36667 0.61626 0.0
C4746 C 0.26149 0.35737 0.60468 0.0
C4747 C 0.28185 0.356 0.60448 0.0
C4748 C 0.29265 0.35071 0.60053 0.0
C4749 C 0.26199 0.36568 0.613 0.0
C4750 C 0.27252 0.36873 0.6175 0.0
C4751 C 0.28232 0.36427 0.61281 0.0
C4752 C 0.27353 0.37504 0.62812 0.0
C4753 C 0.25123 0.37081 0.61717 0.0
C4754 C 0.2804 0.38456 0.62888 0.0
C4755 C 0.28248 0.38953 0.6393 0.0
C4756 C 0.27782 0.38497 0.64912 0.0
C4757 C 0.2708 0.37555 0.64826 0.0
C4758 C 0.26872 0.37063 0.63788 0.0
H4759 H 0.24478 0.37096 0.61045 0.0
H4760 H 0.2479 0.36567 0.62416 0.0
H4761 H 0.25255 0.3795 0.62026 0.0
H4762 H 0.28433 0.38799 0.62146 0.0
H4763 H 0.28792 0.39679 0.63968 0.0
H4764 H 0.70697 0.57742 0.64178 0.0
H4765 H 0.70725 0.59153 0.6269 0.0
H4766 H 0.67186 0.59719 0.63161 0.0
H4767 H 0.67143 0.58256 0.64598 0.0
H4768 H 0.67698 0.60002 0.61049 0.0
H4769 H 0.70774 0.6235 0.63622 0.0
H4770 H 0.71292 0.6101 0.63181 0.0
H4771 H 0.70107 0.61089 0.64114 0.0
C4772 C 0.69921 0.58147 0.63939 0.0
C4773 C 0.68919 0.57901 0.64504 0.0
C4774 C 0.69939 0.58961 0.631 0.0
C4775 C 0.68967 0.59574 0.62846 0.0
C4776 C 0.67949 0.59266 0.63351 0.0
H4777 H 0.68734 0.66428 0.60626 0.0
H4778 H 0.68827 0.64656 0.61648 0.0
C4779 C 0.67924 0.58428 0.64169 0.0
C4780 C 0.69023 0.60586 0.62125 0.0
H4781 H 0.7032 0.63123 0.61862 0.0
C4782 C 0.68272 0.60685 0.61225 0.0
C4783 C 0.69756 0.61488 0.6237 0.0
C4784 C 0.70519 0.61487 0.63381 0.0
C4785 C 0.68225 0.61662 0.60571 0.0
C4786 C 0.68985 0.62548 0.60794 0.0
C4787 C 0.69745 0.62441 0.61684 0.0
C4788 C 0.68966 0.6362 0.60161 0.0
C4789 C 0.67329 0.61749 0.59682 0.0
C4790 C 0.69039 0.63633 0.58987 0.0
C4791 C 0.6896 0.64644 0.58401 0.0
C4792 C 0.68844 0.65664 0.58981 0.0
C4793 C 0.68828 0.65656 0.60157 0.0
C4794 C 0.68879 0.64643 0.60741 0.0
H4795 H 0.66625 0.61163 0.59846 0.0
H4796 H 0.66987 0.62613 0.59631 0.0
H4797 H 0.67693 0.61526 0.58856 0.0
H4798 H 0.69148 0.62862 0.58521 0.0
H4799 H 0.68988 0.64629 0.57494 0.0
H4800 H 0.6375 0.07578 0.78561 0.0
H4801 H 0.61926 0.08506 0.78392 0.0
H4802 H 0.63331 0.10832 0.7601 0.0
H4803 H 0.65136 0.09905 0.76156 0.0
H4804 H 0.61603 0.1064 0.79001 0.0
H4805 H 0.60342 0.10215 0.74581 0.0
H4806 H 0.61398 0.09329 0.75208 0.0
H4807 H 0.61762 0.10692 0.74669 0.0
C4808 C 0.63663 0.08272 0.77983 0.0
C4809 C 0.64591 0.08673 0.77379 0.0
C4810 C 0.6262 0.08798 0.77885 0.0
C4811 C 0.62487 0.09727 0.77174 0.0
C4812 C 0.63403 0.10098 0.76539 0.0
H4813 H 0.59526 0.15932 0.76588 0.0
H4814 H 0.60413 0.14106 0.76326 0.0
C4815 C 0.64441 0.09575 0.76636 0.0
C4816 C 0.61458 0.10419 0.77215 0.0
H4817 H 0.59691 0.11916 0.75537 0.0
C4818 C 0.6116 0.10894 0.78249 0.0
C4819 C 0.6088 0.10747 0.76234 0.0
C4820 C 0.61106 0.10208 0.75113 0.0
C4821 C 0.60371 0.11762 0.78314 0.0
C4822 C 0.59858 0.12152 0.77319 0.0
C4823 C 0.60094 0.11621 0.76296 0.0
C4824 C 0.59194 0.13198 0.77312 0.0
C4825 C 0.60158 0.12312 0.79434 0.0
C4826 C 0.58191 0.13281 0.77916 0.0
C4827 C 0.57686 0.14326 0.78076 0.0
C4828 C 0.58174 0.15302 0.77627 0.0
C4829 C 0.59133 0.152 0.76952 0.0
C4830 C 0.59639 0.14156 0.76798 0.0
H4831 H 0.60746 0.12014 0.80092 0.0
H4832 H 0.60237 0.13237 0.79365 0.0
H4833 H 0.59293 0.12119 0.79713 0.0
H4834 H 0.57827 0.12547 0.78305 0.0
H4835 H 0.56938 0.14373 0.78588 0.0
H4836 H 0.38787 0.14072 0.79144 0.0
H4837 H 0.37428 0.12532 0.79058 0.0
H4838 H 0.35983 0.13961 0.76071 0.0
H4839 H 0.37329 0.15497 0.76148 0.0
H4840 H 0.35043 0.12969 0.79117 0.0
H4841 H 0.36312 0.10561 0.75337 0.0
H4842 H 0.37263 0.11472 0.76086 0.0
H4843 H 0.36235 0.12055 0.75154 0.0
C4844 C 0.38195 0.14045 0.78456 0.0
C4845 C 0.38161 0.14909 0.77657 0.0
C4846 C 0.37419 0.13167 0.7841 0.0
C4847 C 0.36614 0.13132 0.77553 0.0
C4848 C 0.36609 0.13966 0.76729 0.0
H4849 H 0.30048 0.10022 0.77534 0.0
H4850 H 0.31636 0.11298 0.77261 0.0
C4851 C 0.37375 0.14847 0.7678 0.0
C4852 C 0.35704 0.12293 0.7758 0.0
H4853 H 0.34513 0.10153 0.76099 0.0
C4854 C 0.3493 0.12348 0.78462 0.0
C4855 C 0.35562 0.11489 0.76721 0.0
C4856 C 0.36391 0.1138 0.75774 0.0
C4857 C 0.34003 0.1163 0.78498 0.0
C4858 C 0.33845 0.10843 0.77626 0.0
C4859 C 0.34631 0.10771 0.76755 0.0
C4860 C 0.32896 0.10052 0.77645 0.0
C4861 C 0.332 0.11709 0.79472 0.0
C4862 C 0.33087 0.08927 0.77915 0.0
C4863 C 0.32187 0.08201 0.78076 0.0
C4864 C 0.31078 0.08586 0.77961 0.0
C4865 C 0.30891 0.09701 0.77628 0.0
C4866 C 0.31795 0.10431 0.77476 0.0
H4867 H 0.33533 0.12241 0.8016 0.0
H4868 H 0.32398 0.12078 0.7918 0.0
H4869 H 0.33016 0.10861 0.7981 0.0
H4870 H 0.33932 0.08622 0.78046 0.0
H4871 H 0.32359 0.07345 0.78324 0.0
H4872 H 0.39954 0.8282 0.78157 0.0
H4873 H 0.38792 0.8449 0.77914 0.0
H4874 H 0.36152 0.82455 0.76519 0.0
H4875 H 0.37312 0.80782 0.7674 0.0
H4876 H 0.36397 0.84612 0.75486 0.0
H4877 H 0.36186 0.84843 0.80148 0.0
H4878 H 0.37559 0.84887 0.79534 0.0
H4879 H 0.36734 0.83632 0.79426 0.0
C4880 C 0.39134 0.82729 0.77778 0.0
C4881 C 0.38717 0.81664 0.77487 0.0
C4882 C 0.38472 0.83685 0.77643 0.0
C4883 C 0.37379 0.83589 0.77223 0.0
C4884 C 0.36993 0.82543 0.76851 0.0
H4885 H 0.31034 0.86591 0.76899 0.0
H4886 H 0.32777 0.85567 0.76635 0.0
C4887 C 0.37656 0.81587 0.7698 0.0
C4888 C 0.36592 0.84545 0.77279 0.0
H4889 H 0.35058 0.86086 0.79138 0.0
C4890 C 0.36115 0.84947 0.76283 0.0
C4891 C 0.3623 0.84983 0.78321 0.0
C4892 C 0.36695 0.84563 0.7942 0.0
C4893 C 0.35255 0.85749 0.76304 0.0
C4894 C 0.34851 0.8614 0.77348 0.0
C4895 C 0.3537 0.85783 0.7834 0.0
C4896 C 0.33817 0.86816 0.77441 0.0
C4897 C 0.34773 0.86156 0.75208 0.0
C4898 C 0.33818 0.87847 0.78009 0.0
C4899 C 0.32816 0.88433 0.78173 0.0
C4900 C 0.31796 0.87991 0.7778 0.0
C4901 C 0.31803 0.86959 0.7721 0.0
C4902 C 0.32802 0.86377 0.77047 0.0
H4903 H 0.35396 0.86089 0.7452 0.0
H4904 H 0.34043 0.85628 0.7498 0.0
H4905 H 0.34489 0.87041 0.75271 0.0
H4906 H 0.34592 0.88192 0.78333 0.0
H4907 H 0.3284 0.89226 0.78616 0.0
H4908 H 0.6604 0.87673 0.76832 0.0
H4909 H 0.64358 0.86543 0.76564 0.0
H4910 H 0.62512 0.88756 0.78747 0.0
H4911 H 0.64195 0.89886 0.79032 0.0
H4912 H 0.62421 0.86564 0.79398 0.0
H4913 H 0.61407 0.86884 0.74887 0.0
H4914 H 0.62854 0.8655 0.75123 0.0
H4915 H 0.62308 0.87876 0.75593 0.0
C4916 C 0.65272 0.87935 0.77237 0.0
C4917 C 0.65256 0.88865 0.77962 0.0
C4918 C 0.64307 0.87292 0.77075 0.0
C4919 C 0.63307 0.87573 0.77626 0.0
C4920 C 0.63274 0.88529 0.78309 0.0
H4921 H 0.57659 0.82938 0.78692 0.0
H4922 H 0.58703 0.84702 0.78585 0.0
C4923 C 0.64238 0.89173 0.78472 0.0
C4924 C 0.6235 0.86784 0.77608 0.0
H4925 H 0.60686 0.85257 0.75852 0.0
C4926 C 0.62023 0.86295 0.78626 0.0
C4927 C 0.61835 0.86435 0.766 0.0
C4928 C 0.62111 0.86972 0.7549 0.0
C4929 C 0.61245 0.85416 0.78656 0.0
C4930 C 0.60768 0.8503 0.77641 0.0
C4931 C 0.61056 0.85554 0.76628 0.0
C4932 C 0.60063 0.84012 0.77606 0.0
C4933 C 0.6099 0.84862 0.79765 0.0
C4934 C 0.60464 0.83054 0.77056 0.0
C4935 C 0.59871 0.82049 0.7711 0.0
C4936 C 0.58862 0.81982 0.77716 0.0
C4937 C 0.58438 0.82958 0.78227 0.0
C4938 C 0.59033 0.83965 0.7817 0.0
H4939 H 0.6158 0.8513 0.80434 0.0
H4940 H 0.6013 0.85091 0.80031 0.0
H4941 H 0.61031 0.83936 0.79686 0.0
H4942 H 0.61258 0.83074 0.76615 0.0
H4943 H 0.60219 0.81317 0.767 0.0
H4944 H 0.6595 0.87528 0.20784 0.0
H4945 H 0.64435 0.86159 0.20928 0.0
H4946 H 0.6274 0.8772 0.18148 0.0
H4947 H 0.6425 0.89103 0.17996 0.0
H4948 H 0.61806 0.86533 0.20999 0.0
H4949 H 0.63639 0.84263 0.17347 0.0
H4950 H 0.64461 0.85196 0.1821 0.0
H4951 H 0.6346 0.85759 0.17242 0.0
C4952 C 0.65248 0.87593 0.20212 0.0
C4953 C 0.65225 0.88417 0.1937 0.0
C4954 C 0.64382 0.86813 0.20301 0.0
C4955 C 0.63485 0.8684 0.19546 0.0
C4956 C 0.6343 0.8769 0.18737 0.0
H4957 H 0.57646 0.82645 0.18801 0.0
H4958 H 0.58916 0.84221 0.19113 0.0
C4959 C 0.64293 0.88478 0.18652 0.0
C4960 C 0.62666 0.85916 0.19539 0.0
H4961 H 0.62005 0.83508 0.18147 0.0
C4962 C 0.61843 0.85872 0.20376 0.0
C4963 C 0.62734 0.85053 0.18731 0.0
C4964 C 0.63622 0.85059 0.17832 0.0
C4965 C 0.61072 0.84984 0.20416 0.0
C4966 C 0.61134 0.84126 0.19601 0.0
C4967 C 0.61965 0.84168 0.18772 0.0
C4968 C 0.60332 0.83186 0.19568 0.0
C4969 C 0.60205 0.84958 0.21335 0.0
C4970 C 0.60708 0.82084 0.19731 0.0
C4971 C 0.59985 0.8118 0.19556 0.0
C4972 C 0.58878 0.81364 0.19197 0.0
C4973 C 0.58494 0.82474 0.19074 0.0
C4974 C 0.59216 0.83376 0.19258 0.0
H4975 H 0.60403 0.85558 0.22019 0.0
H4976 H 0.59376 0.85185 0.20979 0.0
H4977 H 0.60136 0.84102 0.21693 0.0
H4978 H 0.6157 0.81923 0.19964 0.0
H4979 H 0.60307 0.80337 0.19656 0.0
H4980 H 0.58873 0.14531 0.17405 0.0
H4981 H 0.60318 0.13093 0.17618 0.0
H4982 H 0.60651 0.13946 0.2112 0.0
H4983 H 0.59263 0.15435 0.20886 0.0
H4984 H 0.62591 0.13764 0.2031 0.0
H4985 H 0.60255 0.10048 0.1886 0.0
H4986 H 0.60259 0.11099 0.1779 0.0
H4987 H 0.59573 0.11373 0.1911 0.0
C4988 C 0.59244 0.14397 0.18223 0.0
C4989 C 0.58956 0.15087 0.1913 0.0
C4990 C 0.60064 0.1357 0.18347 0.0
C4991 C 0.60581 0.13392 0.19392 0.0
C4992 C 0.60266 0.14064 0.20306 0.0
H4993 H 0.64902 0.07532 0.19967 0.0
H4994 H 0.63407 0.08894 0.203 0.0
C4995 C 0.59471 0.14911 0.20174 0.0
C4996 C 0.615 0.1256 0.19515 0.0
H4997 H 0.62264 0.09887 0.18856 0.0
C4998 C 0.62512 0.1291 0.20008 0.0
C4999 C 0.61397 0.11438 0.19143 0.0
C5000 C 0.60307 0.10966 0.18709 0.0
C5001 C 0.63429 0.12182 0.2011 0.0
C5002 C 0.63354 0.11087 0.19657 0.0
C5003 C 0.62332 0.10729 0.19193 0.0
C5004 C 0.64325 0.10306 0.19621 0.0
C5005 C 0.64458 0.12594 0.2072 0.0
C5006 C 0.65355 0.10647 0.19161 0.0
C5007 C 0.66224 0.09876 0.19011 0.0
C5008 C 0.66062 0.08744 0.1928 0.0
C5009 C 0.65045 0.08404 0.19759 0.0
C5010 C 0.6419 0.09181 0.19943 0.0
H5011 H 0.64235 0.1323 0.21363 0.0
H5012 H 0.64912 0.11898 0.21138 0.0
H5013 H 0.6503 0.13003 0.20112 0.0
H5014 H 0.65472 0.11497 0.18868 0.0
H5015 H 0.66995 0.1015 0.18618 0.0
H5016 H 0.31081 0.10043 0.20147 0.0
H5017 H 0.32716 0.1124 0.20414 0.0
H5018 H 0.34809 0.08748 0.18841 0.0
H5019 H 0.33172 0.07549 0.18547 0.0
H5020 H 0.34787 0.10933 0.21502 0.0
H5021 H 0.35277 0.11537 0.16903 0.0
H5022 H 0.34041 0.10915 0.17509 0.0
H5023 H 0.35304 0.10107 0.17373 0.0
C5024 C 0.31889 0.09744 0.19863 0.0
C5025 C 0.31993 0.08706 0.19311 0.0
C5026 C 0.32823 0.10428 0.20021 0.0
C5027 C 0.33878 0.10089 0.19633 0.0
C5028 C 0.33997 0.09033 0.19128 0.0
H5029 H 0.39766 0.14273 0.18732 0.0
H5030 H 0.3862 0.12608 0.1904 0.0
C5031 C 0.33061 0.08349 0.18963 0.0
C5032 C 0.34833 0.10875 0.19698 0.0
H5033 H 0.3655 0.12472 0.1807 0.0
C5034 C 0.35181 0.11264 0.20753 0.0
C5035 C 0.35341 0.11305 0.18719 0.0
C5036 C 0.34969 0.10954 0.1756 0.0
C5037 C 0.36019 0.12084 0.20854 0.0
C5038 C 0.36505 0.12534 0.19873 0.0
C5039 C 0.36179 0.1212 0.18821 0.0
C5040 C 0.37291 0.13493 0.19897 0.0
C5041 C 0.3637 0.12467 0.22006 0.0
C5042 C 0.36936 0.14538 0.20306 0.0
C5043 C 0.3759 0.15494 0.20132 0.0
C5044 C 0.38603 0.15421 0.19535 0.0
C5045 C 0.38986 0.14361 0.19187 0.0
C5046 C 0.38334 0.13406 0.19364 0.0
H5047 H 0.36187 0.11819 0.2265 0.0
H5048 H 0.37279 0.12666 0.22032 0.0
H5049 H 0.35897 0.13235 0.22231 0.0
H5050 H 0.36124 0.14627 0.207 0.0
H5051 H 0.3727 0.16297 0.2041 0.0
H5052 H 0.37953 0.82097 0.17349 0.0
H5053 H 0.36648 0.83666 0.17532 0.0
H5054 H 0.36578 0.8319 0.2112 0.0
H5055 H 0.3781 0.81563 0.20921 0.0
H5056 H 0.34616 0.83465 0.20506 0.0
H5057 H 0.36992 0.86803 0.18395 0.0
H5058 H 0.36824 0.85654 0.17446 0.0
H5059 H 0.37618 0.85468 0.18722 0.0
C5060 C 0.37669 0.82341 0.18176 0.0
C5061 C 0.3798 0.81718 0.19122 0.0
C5062 C 0.36931 0.83245 0.18283 0.0
C5063 C 0.3653 0.83569 0.19344 0.0
C5064 C 0.36874 0.82961 0.20293 0.0
H5065 H 0.32429 0.89659 0.19398 0.0
H5066 H 0.3395 0.88334 0.19777 0.0
C5067 C 0.3758 0.82035 0.20181 0.0
C5068 C 0.35682 0.84476 0.19453 0.0
H5069 H 0.34981 0.8707 0.1848 0.0
C5070 C 0.34708 0.84262 0.20079 0.0
C5071 C 0.35804 0.85531 0.18924 0.0
C5072 C 0.36873 0.8588 0.18347 0.0
C5073 C 0.33838 0.85049 0.20151 0.0
C5074 C 0.33913 0.86055 0.19528 0.0
C5075 C 0.34907 0.86291 0.18943 0.0
C5076 C 0.32959 0.86852 0.19427 0.0
C5077 C 0.32858 0.84791 0.20908 0.0
C5078 C 0.3189 0.86465 0.1912 0.0
C5079 C 0.31012 0.87219 0.18944 0.0
C5080 C 0.312 0.88377 0.19027 0.0
C5081 C 0.32266 0.88768 0.19332 0.0
C5082 C 0.33134 0.88011 0.19544 0.0
H5083 H 0.33125 0.84268 0.21631 0.0
H5084 H 0.32461 0.85566 0.21236 0.0
H5085 H 0.32225 0.84303 0.20433 0.0
H5086 H 0.31738 0.85582 0.18978 0.0
H5087 H 0.30202 0.86899 0.18688 0.0
H5088 H 0.77432 0.16053 0.60519 0.0
H5089 H 0.77217 0.1434 0.61604 0.0
H5090 H 0.78667 0.12424 0.58903 0.0
H5091 H 0.78903 0.14145 0.57807 0.0
H5092 H 0.76022 0.12367 0.61076 0.0
H5093 H 0.80589 0.11581 0.61636 0.0
H5094 H 0.80053 0.12909 0.61151 0.0
H5095 H 0.801 0.11727 0.60219 0.0
C5096 C 0.77708 0.1527 0.60151 0.0
C5097 C 0.78191 0.15238 0.59077 0.0
C5098 C 0.7758 0.1429 0.60773 0.0
C5099 C 0.77933 0.13259 0.60337 0.0
C5100 C 0.78403 0.13216 0.5926 0.0
H5101 H 0.78474 0.07098 0.64226 0.0
H5102 H 0.78295 0.08331 0.62605 0.0
C5103 C 0.78536 0.14199 0.58635 0.0
C5104 C 0.77822 0.1224 0.61032 0.0
H5105 H 0.79351 0.10351 0.62533 0.0
C5106 C 0.76748 0.11916 0.61386 0.0
C5107 C 0.78771 0.11654 0.6143 0.0
C5108 C 0.79945 0.11985 0.61099 0.0
C5109 C 0.766 0.11038 0.62154 0.0
C5110 C 0.77552 0.10486 0.62589 0.0
C5111 C 0.78622 0.10777 0.62197 0.0
C5112 C 0.77477 0.09668 0.63518 0.0
C5113 C 0.75428 0.1072 0.625 0.0
C5114 C 0.77052 0.10001 0.64563 0.0
C5115 C 0.7715 0.09296 0.65494 0.0
C5116 C 0.77689 0.08253 0.65395 0.0
C5117 C 0.78061 0.07899 0.64333 0.0
C5118 C 0.77959 0.08602 0.63404 0.0
H5119 H 0.74807 0.10949 0.61845 0.0
H5120 H 0.75362 0.09807 0.6267 0.0
H5121 H 0.75204 0.11181 0.63277 0.0
H5122 H 0.76698 0.10829 0.64675 0.0
H5123 H 0.76858 0.09596 0.66299 0.0
H5124 H 0.39793 0.28157 0.64082 0.0
H5125 H 0.38604 0.28067 0.62415 0.0
H5126 H 0.35969 0.26557 0.64368 0.0
H5127 H 0.37155 0.26623 0.66034 0.0
H5128 H 0.36157 0.25689 0.62157 0.0
H5129 H 0.36042 0.30359 0.62242 0.0
H5130 H 0.37402 0.29723 0.6213 0.0
H5131 H 0.36597 0.29547 0.63389 0.0
C5132 C 0.38968 0.27785 0.64153 0.0
C5133 C 0.38561 0.27415 0.65197 0.0
C5134 C 0.3829 0.27739 0.632 0.0
C5135 C 0.37191 0.27332 0.63277 0.0
C5136 C 0.36814 0.26882 0.64295 0.0
H5137 H 0.308 0.27342 0.60372 0.0
H5138 H 0.32549 0.27023 0.61371 0.0
C5139 C 0.37493 0.26921 0.65247 0.0
C5140 C 0.36394 0.27469 0.62338 0.0
H5141 H 0.34879 0.29457 0.60945 0.0
C5142 C 0.35888 0.26512 0.61879 0.0
C5143 C 0.36049 0.28545 0.61976 0.0
C5144 C 0.36542 0.29605 0.62462 0.0
C5145 C 0.35017 0.26603 0.61095 0.0
C5146 C 0.34632 0.27679 0.6078 0.0
C5147 C 0.35178 0.28634 0.61191 0.0
C5148 C 0.3359 0.27834 0.60129 0.0
C5149 C 0.345 0.25548 0.60629 0.0
C5150 C 0.33592 0.28426 0.59113 0.0
C5151 C 0.32587 0.28618 0.58538 0.0
C5152 C 0.31565 0.28231 0.5898 0.0
C5153 C 0.31571 0.27648 0.60004 0.0
C5154 C 0.32572 0.27455 0.60572 0.0
H5155 H 0.35098 0.24835 0.60657 0.0
H5156 H 0.3376 0.25318 0.61143 0.0
H5157 H 0.34219 0.25669 0.5975 0.0
H5158 H 0.34369 0.28739 0.58766 0.0
H5159 H 0.32611 0.29072 0.57753 0.0
H5160 H 0.18404 0.82792 0.57896 0.0
H5161 H 0.18655 0.84476 0.59045 0.0
H5162 H 0.20275 0.82496 0.61598 0.0
H5163 H 0.20046 0.80821 0.60457 0.0
H5164 H 0.17722 0.84742 0.61113 0.0
H5165 H 0.2232 0.85203 0.61444 0.0
H5166 H 0.21663 0.84339 0.60388 0.0
H5167 H 0.21865 0.83812 0.61787 0.0
C5168 C 0.1883 0.82719 0.58694 0.0
C5169 C 0.192 0.8167 0.59086 0.0
C5170 C 0.18976 0.83682 0.59347 0.0
C5171 C 0.195 0.83613 0.60399 0.0
C5172 C 0.19894 0.82574 0.60778 0.0
H5173 H 0.19728 0.87111 0.66606 0.0
H5174 H 0.20035 0.85881 0.64991 0.0
C5175 C 0.19751 0.81613 0.60127 0.0
C5176 C 0.19519 0.84593 0.6116 0.0
H5177 H 0.21225 0.86119 0.6288 0.0
C5178 C 0.1849 0.85059 0.61483 0.0
C5179 C 0.20521 0.84999 0.61646 0.0
C5180 C 0.21655 0.8457 0.6129 0.0
C5181 C 0.18429 0.85881 0.62319 0.0
C5182 C 0.19428 0.8626 0.62833 0.0
C5183 C 0.20462 0.85822 0.62486 0.0
C5184 C 0.19399 0.87065 0.63775 0.0
C5185 C 0.17292 0.86299 0.62685 0.0
C5186 C 0.1898 0.88151 0.63616 0.0
C5187 C 0.18796 0.88851 0.64535 0.0
C5188 C 0.19037 0.88481 0.65629 0.0
C5189 C 0.19528 0.87419 0.65776 0.0
C5190 C 0.19706 0.86716 0.64855 0.0
H5191 H 0.16603 0.85759 0.62367 0.0
H5192 H 0.17236 0.86336 0.63613 0.0
H5193 H 0.17159 0.87158 0.62355 0.0
H5194 H 0.18757 0.88441 0.62786 0.0
H5195 H 0.18432 0.8967 0.6439 0.0
H5196 H 0.57127 0.68338 0.64147 0.0
H5197 H 0.57956 0.68644 0.62298 0.0
H5198 H 0.60555 0.70658 0.63797 0.0
H5199 H 0.59727 0.70372 0.65645 0.0
H5200 H 0.59745 0.71451 0.61636 0.0
H5201 H 0.60889 0.66915 0.61659 0.0
H5202 H 0.59434 0.67272 0.6181 0.0
H5203 H 0.60405 0.67621 0.62905 0.0
C5204 C 0.57865 0.68862 0.64082 0.0
C5205 C 0.58374 0.69314 0.65047 0.0
C5206 C 0.58336 0.69035 0.63025 0.0
C5207 C 0.59325 0.69658 0.62917 0.0
C5208 C 0.59791 0.70173 0.63866 0.0
H5209 H 0.65201 0.70945 0.59698 0.0
H5210 H 0.63365 0.71075 0.60562 0.0
C5211 C 0.59319 0.70004 0.64922 0.0
C5212 C 0.59956 0.69672 0.61852 0.0
H5213 H 0.61717 0.68042 0.60302 0.0
C5214 C 0.60159 0.70703 0.61326 0.0
C5215 C 0.60482 0.68691 0.61442 0.0
C5216 C 0.60301 0.6756 0.61982 0.0
C5217 C 0.60932 0.70791 0.60445 0.0
C5218 C 0.61532 0.69827 0.60104 0.0
C5219 C 0.61259 0.68781 0.60567 0.0
C5220 C 0.62569 0.69901 0.59428 0.0
C5221 C 0.61128 0.71921 0.59917 0.0
C5222 C 0.62737 0.69196 0.585 0.0
C5223 C 0.63798 0.69109 0.58009 0.0
C5224 C 0.64708 0.69716 0.58448 0.0
C5225 C 0.64521 0.70462 0.59341 0.0
C5226 C 0.63464 0.70549 0.59828 0.0
H5227 H 0.60348 0.7243 0.59923 0.0
H5228 H 0.61767 0.72383 0.6041 0.0
H5229 H 0.61429 0.71841 0.5904 0.0
H5230 H 0.6206 0.6868 0.58186 0.0
H5231 H 0.63914 0.68529 0.5732 0.0
H5232 H 0.76343 0.81393 0.37682 0.0
H5233 H 0.76091 0.8303 0.36494 0.0
H5234 H 0.7802 0.85027 0.3881 0.0
H5235 H 0.78311 0.83375 0.39995 0.0
H5236 H 0.75216 0.85143 0.36746 0.0
H5237 H 0.79809 0.85303 0.35942 0.0
H5238 H 0.79159 0.84145 0.36659 0.0
H5239 H 0.79397 0.85447 0.37382 0.0
C5240 C 0.76708 0.82181 0.37948 0.0
C5241 C 0.77365 0.82249 0.38924 0.0
C5242 C 0.76557 0.83119 0.37269 0.0
C5243 C 0.77054 0.84144 0.37553 0.0
C5244 C 0.77651 0.84235 0.38564 0.0
H5245 H 0.78106 0.89588 0.32807 0.0
H5246 H 0.778 0.88658 0.34601 0.0
C5247 C 0.77813 0.83292 0.3924 0.0
C5248 C 0.7702 0.85076 0.36736 0.0
H5249 H 0.78682 0.8655 0.34941 0.0
C5250 C 0.75973 0.85464 0.3636 0.0
C5251 C 0.7801 0.85489 0.36233 0.0
C5252 C 0.79158 0.85071 0.36565 0.0
C5253 C 0.75891 0.86228 0.3547 0.0
C5254 C 0.7688 0.86605 0.34941 0.0
C5255 C 0.77925 0.8626 0.35352 0.0
C5256 C 0.76864 0.87274 0.33898 0.0
C5257 C 0.74748 0.8661 0.3509 0.0
C5258 C 0.76416 0.86815 0.32911 0.0
C5259 C 0.76593 0.87343 0.3188 0.0
C5260 C 0.77229 0.88333 0.31821 0.0
C5261 C 0.77621 0.88821 0.32821 0.0
C5262 C 0.77443 0.88294 0.33849 0.0
H5263 H 0.74119 0.86529 0.35771 0.0
H5264 H 0.74768 0.87495 0.34803 0.0
H5265 H 0.74471 0.86079 0.34378 0.0
H5266 H 0.75986 0.86016 0.32928 0.0
H5267 H 0.76279 0.86945 0.31127 0.0
H5268 H 0.56903 0.28078 0.32534 0.0
H5269 H 0.57866 0.27818 0.34324 0.0
H5270 H 0.60623 0.26228 0.32613 0.0
H5271 H 0.5966 0.26464 0.30822 0.0
H5272 H 0.60094 0.25268 0.34758 0.0
H5273 H 0.60538 0.2992 0.34896 0.0
H5274 H 0.59139 0.29373 0.34815 0.0
H5275 H 0.60078 0.29195 0.33653 0.0
C5276 C 0.57705 0.27654 0.32539 0.0
C5277 C 0.58215 0.27311 0.31532 0.0
C5278 C 0.58254 0.27508 0.33563 0.0
C5279 C 0.59324 0.27026 0.33595 0.0
C5280 C 0.59798 0.26607 0.32604 0.0
H5281 H 0.65397 0.26508 0.36937 0.0
H5282 H 0.63663 0.26213 0.35911 0.0
C5283 C 0.59248 0.26746 0.3158 0.0
C5284 C 0.6001 0.27067 0.34626 0.0
H5285 H 0.61519 0.28887 0.36234 0.0
C5286 C 0.60393 0.26059 0.35095 0.0
C5287 C 0.6039 0.28101 0.35068 0.0
C5288 C 0.60024 0.29211 0.34582 0.0
C5289 C 0.61186 0.26058 0.35963 0.0
C5290 C 0.61621 0.2709 0.36352 0.0
C5291 C 0.61184 0.28097 0.35932 0.0
C5292 C 0.6263 0.27152 0.3707 0.0
C5293 C 0.61571 0.24951 0.36436 0.0
C5294 C 0.6263 0.27793 0.38057 0.0
C5295 C 0.63629 0.27976 0.38643 0.0
C5296 C 0.64644 0.2753 0.38243 0.0
C5297 C 0.64632 0.26865 0.3727 0.0
C5298 C 0.63637 0.26683 0.36687 0.0
H5299 H 0.60902 0.24307 0.3637 0.0
H5300 H 0.62302 0.24647 0.35948 0.0
H5301 H 0.61825 0.25032 0.37328 0.0
H5302 H 0.61863 0.28173 0.38358 0.0
H5303 H 0.63609 0.28491 0.39391 0.0
H5304 H 0.20282 0.10598 0.30534 0.0
H5305 H 0.20438 0.11759 0.32218 0.0
H5306 H 0.19353 0.08979 0.3425 0.0
H5307 H 0.19193 0.07809 0.32576 0.0
H5308 H 0.18467 0.12119 0.33596 0.0
H5309 H 0.22057 0.10378 0.36007 0.0
H5310 H 0.21906 0.10183 0.34512 0.0
H5311 H 0.21066 0.09379 0.35464 0.0
C5312 C 0.20101 0.10225 0.31341 0.0
C5313 C 0.19716 0.09114 0.31419 0.0
C5314 C 0.2019 0.1089 0.32301 0.0
C5315 C 0.19912 0.10451 0.33356 0.0
C5316 C 0.19585 0.09327 0.33445 0.0
H5317 H 0.17637 0.14338 0.39105 0.0
H5318 H 0.17896 0.12826 0.37735 0.0
C5319 C 0.19488 0.08663 0.32485 0.0
C5320 C 0.19832 0.11202 0.34338 0.0
H5321 H 0.20937 0.11745 0.36922 0.0
C5322 C 0.19007 0.12039 0.34323 0.0
C5323 C 0.20537 0.11089 0.35282 0.0
C5324 C 0.21449 0.10215 0.35322 0.0
C5325 C 0.18867 0.12769 0.35232 0.0
C5326 C 0.19564 0.12651 0.36182 0.0
C5327 C 0.20395 0.11819 0.36196 0.0
C5328 C 0.19486 0.13446 0.37127 0.0
C5329 C 0.17987 0.13676 0.35163 0.0
C5330 C 0.20314 0.14266 0.3726 0.0
C5331 C 0.20167 0.1513 0.38034 0.0
C5332 C 0.19192 0.15185 0.38693 0.0
C5333 C 0.18396 0.14321 0.38607 0.0
C5334 C 0.18541 0.13458 0.37826 0.0
H5335 H 0.17637 0.1376 0.34304 0.0
H5336 H 0.17291 0.13474 0.35744 0.0
H5337 H 0.18344 0.14496 0.35422 0.0
H5338 H 0.21049 0.14267 0.36727 0.0
H5339 H 0.20802 0.15777 0.38087 0.0
H5340 H 0.325 0.70886 0.3944 0.0
H5341 H 0.3405 0.71123 0.38119 0.0
H5342 H 0.33873 0.67604 0.37288 0.0
H5343 H 0.32379 0.67354 0.3867 0.0
H5344 H 0.35932 0.6826 0.37149 0.0
H5345 H 0.33313 0.7137 0.34898 0.0
H5346 H 0.33664 0.71809 0.3629 0.0
H5347 H 0.32798 0.7059 0.3608 0.0
C5348 C 0.32818 0.7016 0.38997 0.0
C5349 C 0.32323 0.69104 0.39147 0.0
C5350 C 0.33692 0.70298 0.38232 0.0
C5351 C 0.34048 0.69392 0.3757 0.0
C5352 C 0.33606 0.68319 0.3778 0.0
H5353 H 0.36452 0.69534 0.30825 0.0
H5354 H 0.354 0.69637 0.32577 0.0
C5355 C 0.32756 0.68175 0.38572 0.0
C5356 C 0.34815 0.69567 0.36606 0.0
H5357 H 0.35116 0.71042 0.34172 0.0
C5358 C 0.35756 0.6887 0.36498 0.0
C5359 C 0.34573 0.70351 0.35746 0.0
C5360 C 0.33527 0.71064 0.35751 0.0
C5361 C 0.36446 0.68913 0.35547 0.0
C5362 C 0.3622 0.69717 0.34701 0.0
C5363 C 0.35296 0.70434 0.34824 0.0
C5364 C 0.36868 0.69765 0.33639 0.0
C5365 C 0.3737 0.68056 0.35436 0.0
C5366 C 0.38042 0.69847 0.33645 0.0
C5367 C 0.38644 0.6976 0.32645 0.0
C5368 C 0.38081 0.69632 0.31618 0.0
C5369 C 0.36906 0.69638 0.31604 0.0
C5370 C 0.36305 0.69694 0.32606 0.0
H5371 H 0.37225 0.67319 0.35986 0.0
H5372 H 0.37448 0.67754 0.34559 0.0
H5373 H 0.38177 0.68441 0.35689 0.0
H5374 H 0.38494 0.69948 0.34425 0.0
H5375 H 0.39551 0.69769 0.32676 0.0
H5376 H 0.58557 0.26141 0.65009 0.0
H5377 H 0.59908 0.26053 0.63468 0.0
H5378 H 0.60049 0.29669 0.63396 0.0
H5379 H 0.58635 0.29755 0.64878 0.0
H5380 H 0.60234 0.28935 0.61389 0.0
H5381 H 0.63139 0.26449 0.64022 0.0
H5382 H 0.61847 0.25728 0.63773 0.0
H5383 H 0.61851 0.27017 0.64563 0.0
C5384 C 0.58864 0.26915 0.64646 0.0
C5385 C 0.58503 0.27955 0.65061 0.0
C5386 C 0.59645 0.26864 0.63777 0.0
C5387 C 0.60113 0.27853 0.63344 0.0
C5388 C 0.59707 0.28894 0.63722 0.0
H5389 H 0.66667 0.28504 0.60448 0.0
H5390 H 0.65017 0.28312 0.61641 0.0
C5391 C 0.58899 0.28944 0.64566 0.0
C5392 C 0.61058 0.27811 0.62535 0.0
H5393 H 0.63682 0.26743 0.62142 0.0
C5394 C 0.60989 0.28457 0.61555 0.0
C5395 C 0.62053 0.27202 0.6276 0.0
C5396 C 0.62233 0.2657 0.63842 0.0
C5397 C 0.61891 0.28529 0.60804 0.0
C5398 C 0.6287 0.27888 0.61009 0.0
C5399 C 0.62929 0.27225 0.61978 0.0
C5400 C 0.63874 0.27951 0.60275 0.0
C5401 C 0.61798 0.29333 0.59831 0.0
C5402 C 0.63791 0.27785 0.59112 0.0
C5403 C 0.64729 0.27929 0.58426 0.0
C5404 C 0.65774 0.28195 0.58898 0.0
C5405 C 0.65871 0.28294 0.60065 0.0
C5406 C 0.64928 0.28185 0.60746 0.0
H5407 H 0.61159 0.29992 0.59991 0.0
H5408 H 0.6261 0.2975 0.59658 0.0
H5409 H 0.61535 0.28865 0.59071 0.0
H5410 H 0.62999 0.2756 0.58731 0.0
H5411 H 0.64637 0.27835 0.57528 0.0
H5412 H 0.59993 0.69668 0.31178 0.0
H5413 H 0.60987 0.69893 0.32941 0.0
H5414 H 0.5838 0.68085 0.34666 0.0
H5415 H 0.57371 0.67841 0.32887 0.0
H5416 H 0.60239 0.70903 0.35007 0.0
H5417 H 0.61316 0.66371 0.35429 0.0
H5418 H 0.60835 0.66953 0.34119 0.0
H5419 H 0.59868 0.66751 0.35251 0.0
C5420 C 0.59624 0.69317 0.31929 0.0
C5421 C 0.58604 0.68729 0.31888 0.0
C5422 C 0.60193 0.69452 0.32938 0.0
C5423 C 0.59759 0.69002 0.3393 0.0
C5424 C 0.58732 0.6843 0.33905 0.0
H5425 H 0.64323 0.68495 0.39653 0.0
H5426 H 0.62516 0.68533 0.38689 0.0
C5427 C 0.58158 0.68293 0.32889 0.0
C5428 C 0.60424 0.69108 0.3497 0.0
H5429 H 0.6223 0.67631 0.36619 0.0
C5430 C 0.60658 0.70187 0.35377 0.0
C5431 C 0.6096 0.6817 0.35457 0.0
C5432 C 0.60741 0.66994 0.35044 0.0
C5433 C 0.61467 0.70359 0.36213 0.0
C5434 C 0.62068 0.6943 0.36634 0.0
C5435 C 0.61772 0.68344 0.36289 0.0
C5436 C 0.63095 0.69566 0.37317 0.0
C5437 C 0.61693 0.71538 0.3661 0.0
C5438 C 0.64015 0.7015 0.36875 0.0
C5439 C 0.65049 0.70129 0.37422 0.0
C5440 C 0.65186 0.69515 0.38417 0.0
C5441 C 0.64248 0.68974 0.38886 0.0
C5442 C 0.63214 0.68995 0.38337 0.0
H5443 H 0.60934 0.7207 0.36532 0.0
H5444 H 0.61978 0.7155 0.37496 0.0
H5445 H 0.62358 0.71915 0.36082 0.0
H5446 H 0.6395 0.70574 0.36076 0.0
H5447 H 0.65752 0.70554 0.37036 0.0
H5448 H 0.78414 0.14378 0.39607 0.0
H5449 H 0.78144 0.12645 0.38549 0.0
H5450 H 0.76505 0.14498 0.35917 0.0
H5451 H 0.76759 0.16238 0.36972 0.0
H5452 H 0.75516 0.1232 0.36447 0.0
H5453 H 0.80129 0.12158 0.35738 0.0
H5454 H 0.7966 0.12229 0.37167 0.0
H5455 H 0.79437 0.13402 0.36252 0.0
C5456 C 0.77981 0.14418 0.3881 0.0
C5457 C 0.77623 0.15451 0.38366 0.0
C5458 C 0.7783 0.13425 0.38207 0.0
C5459 C 0.77322 0.13449 0.37149 0.0
C5460 C 0.76902 0.14465 0.36733 0.0
H5461 H 0.76419 0.1006 0.31093 0.0
H5462 H 0.7623 0.11114 0.32825 0.0
C5463 C 0.77051 0.15459 0.37336 0.0
C5464 C 0.77315 0.12441 0.36426 0.0
H5465 H 0.79033 0.10823 0.34813 0.0
C5466 C 0.76284 0.11981 0.361 0.0
C5467 C 0.78321 0.11995 0.35985 0.0
C5468 C 0.79451 0.12472 0.36294 0.0
C5469 C 0.76231 0.1111 0.35309 0.0
C5470 C 0.77234 0.10711 0.34818 0.0
C5471 C 0.78266 0.1113 0.35191 0.0
C5472 C 0.77232 0.09974 0.33818 0.0
C5473 C 0.75102 0.1064 0.34995 0.0
C5474 C 0.77869 0.08984 0.33794 0.0
C5475 C 0.77991 0.08381 0.32794 0.0
C5476 C 0.77486 0.08766 0.31801 0.0
C5477 C 0.76821 0.09738 0.3184 0.0
C5478 C 0.767 0.10338 0.32836 0.0
H5479 H 0.745 0.10715 0.35701 0.0
H5480 H 0.74757 0.11124 0.34279 0.0
H5481 H 0.75162 0.09745 0.34744 0.0
H5482 H 0.78297 0.08696 0.34541 0.0
H5483 H 0.78509 0.07635 0.32793 0.0
H5484 H 0.39151 0.28517 0.32827 0.0
H5485 H 0.38023 0.28221 0.34518 0.0
H5486 H 0.35589 0.26388 0.32573 0.0
H5487 H 0.36707 0.26663 0.30894 0.0
H5488 H 0.35898 0.28998 0.34795 0.0
H5489 H 0.35899 0.24398 0.353 0.0
H5490 H 0.36907 0.2512 0.34432 0.0
H5491 H 0.35535 0.24792 0.33897 0.0
C5492 C 0.38384 0.28035 0.32764 0.0
C5493 C 0.38018 0.27617 0.31724 0.0
C5494 C 0.37744 0.27865 0.33731 0.0
C5495 C 0.36734 0.27264 0.33675 0.0
C5496 C 0.36381 0.26827 0.32643 0.0
H5497 H 0.30428 0.26647 0.36736 0.0
H5498 H 0.32167 0.26438 0.35671 0.0
C5499 C 0.37017 0.26996 0.31679 0.0
C5500 C 0.35976 0.27201 0.34654 0.0
H5501 H 0.3432 0.25386 0.36118 0.0
C5502 C 0.35571 0.28209 0.35105 0.0
C5503 C 0.35553 0.26169 0.35056 0.0
C5504 C 0.36006 0.25059 0.34653 0.0
C5505 C 0.34698 0.28215 0.3589 0.0
C5506 C 0.34232 0.27185 0.36244 0.0
C5507 C 0.34675 0.26174 0.35838 0.0
C5508 C 0.33223 0.27152 0.36961 0.0
C5509 C 0.34239 0.29328 0.36284 0.0
C5510 C 0.33251 0.27582 0.38054 0.0
C5511 C 0.3226 0.27709 0.38662 0.0
C5512 C 0.31224 0.274 0.38189 0.0
C5513 C 0.3121 0.26898 0.37122 0.0
C5514 C 0.32203 0.26777 0.36513 0.0
H5515 H 0.34561 0.3004 0.35779 0.0
H5516 H 0.33309 0.29331 0.36243 0.0
H5517 H 0.34487 0.29467 0.3717 0.0
H5518 H 0.34034 0.27859 0.3842 0.0
H5519 H 0.32302 0.28084 0.39487 0.0
H5520 H 0.19748 0.86554 0.3076 0.0
H5521 H 0.20033 0.85547 0.32512 0.0
H5522 H 0.18596 0.88306 0.34353 0.0
H5523 H 0.18292 0.89324 0.32595 0.0
H5524 H 0.21264 0.862 0.34475 0.0
H5525 H 0.16712 0.85553 0.35293 0.0
H5526 H 0.17228 0.85983 0.33939 0.0
H5527 H 0.17183 0.86968 0.35076 0.0
C5528 C 0.19491 0.86951 0.31535 0.0
C5529 C 0.18989 0.88018 0.31536 0.0
C5530 C 0.19661 0.86375 0.32537 0.0
C5531 C 0.1933 0.8685 0.33558 0.0
C5532 C 0.18845 0.87922 0.3357 0.0
H5533 H 0.18836 0.82779 0.39611 0.0
H5534 H 0.19008 0.84479 0.38486 0.0
C5535 C 0.18674 0.88501 0.32565 0.0
C5536 C 0.19464 0.86191 0.34598 0.0
H5537 H 0.17977 0.84643 0.36479 0.0
C5538 C 0.20548 0.85872 0.34926 0.0
C5539 C 0.18527 0.85774 0.35188 0.0
C5540 C 0.17344 0.86078 0.34858 0.0
C5541 C 0.20717 0.85106 0.35801 0.0
C5542 C 0.19777 0.84634 0.36344 0.0
C5543 C 0.18697 0.85005 0.36059 0.0
C5544 C 0.19874 0.83668 0.37116 0.0
C5545 C 0.21898 0.84793 0.36121 0.0
C5546 C 0.2033 0.82653 0.3673 0.0
C5547 C 0.20235 0.81679 0.3737 0.0
C5548 C 0.19669 0.81699 0.38403 0.0
C5549 C 0.1927 0.82731 0.38816 0.0
C5550 C 0.19369 0.83705 0.38176 0.0
H5551 H 0.22492 0.85484 0.3593 0.0
H5552 H 0.21962 0.84584 0.37026 0.0
H5553 H 0.22161 0.84049 0.35628 0.0
H5554 H 0.20702 0.82599 0.35904 0.0
H5555 H 0.20549 0.80899 0.37027 0.0
H5556 H 0.31761 0.71003 0.59386 0.0
H5557 H 0.33545 0.71111 0.60369 0.0
H5558 H 0.35058 0.68959 0.57887 0.0
H5559 H 0.33266 0.68828 0.56906 0.0
H5560 H 0.35262 0.68124 0.59951 0.0
H5561 H 0.36579 0.72551 0.6006 0.0
H5562 H 0.3514 0.72421 0.60469 0.0
H5563 H 0.35556 0.72035 0.59069 0.0
C5564 C 0.32479 0.70577 0.59029 0.0
C5565 C 0.32365 0.69893 0.58076 0.0
C5566 C 0.33504 0.70649 0.59588 0.0
C5567 C 0.34439 0.7005 0.59197 0.0
C5568 C 0.34348 0.69431 0.58201 0.0
H5569 H 0.39904 0.68227 0.63874 0.0
H5570 H 0.39002 0.68552 0.62055 0.0
C5571 C 0.33322 0.69356 0.57643 0.0
C5572 C 0.35434 0.69921 0.59929 0.0
H5573 H 0.37181 0.71399 0.61644 0.0
C5574 C 0.35706 0.68837 0.60298 0.0
C5575 C 0.36014 0.70852 0.60379 0.0
C5576 C 0.35814 0.72028 0.59963 0.0
C5577 C 0.36473 0.68666 0.61172 0.0
C5578 C 0.36989 0.69604 0.61678 0.0
C5579 C 0.36778 0.70682 0.61257 0.0
C5580 C 0.37615 0.69495 0.62742 0.0
C5581 C 0.36659 0.6749 0.61602 0.0
C5582 C 0.37147 0.69942 0.63722 0.0
C5583 C 0.37656 0.6976 0.64757 0.0
C5584 C 0.38648 0.69128 0.64834 0.0
C5585 C 0.39137 0.68711 0.63845 0.0
C5586 C 0.38624 0.68894 0.62805 0.0
H5587 H 0.36084 0.66874 0.61207 0.0
H5588 H 0.37532 0.67229 0.61419 0.0
H5589 H 0.3654 0.67461 0.62524 0.0
H5590 H 0.36367 0.70406 0.6369 0.0
H5591 H 0.37259 0.70101 0.65499 0.0
H5592 H 0.76688 0.8047 0.59666 0.0
H5593 H 0.76361 0.82061 0.60915 0.0
H5594 H 0.77899 0.84278 0.58513 0.0
H5595 H 0.78246 0.82692 0.57267 0.0
H5596 H 0.78892 0.84355 0.60566 0.0
H5597 H 0.74297 0.84779 0.61036 0.0
H5598 H 0.74783 0.83372 0.61251 0.0
H5599 H 0.74932 0.84011 0.59895 0.0
C5600 C 0.76931 0.813 0.5939 0.0
C5601 C 0.77505 0.81453 0.58374 0.0
C5602 C 0.76736 0.82211 0.60103 0.0
C5603 C 0.771 0.83289 0.59803 0.0
C5604 C 0.77611 0.83453 0.58758 0.0
H5605 H 0.78211 0.8909 0.64212 0.0
H5606 H 0.7799 0.87949 0.62519 0.0
C5607 C 0.7781 0.82544 0.58049 0.0
C5608 C 0.77096 0.84206 0.60639 0.0
H5609 H 0.75427 0.85645 0.62462 0.0
C5610 C 0.78133 0.84653 0.60968 0.0
C5611 C 0.76105 0.84586 0.61164 0.0
C5612 C 0.74965 0.8417 0.60811 0.0
C5613 C 0.78213 0.85432 0.61843 0.0
C5614 C 0.77225 0.85789 0.6239 0.0
C5615 C 0.76183 0.85369 0.62039 0.0
C5616 C 0.77268 0.86529 0.63384 0.0
C5617 C 0.79359 0.85821 0.62211 0.0
C5618 C 0.76899 0.86122 0.64422 0.0
C5619 C 0.77015 0.86773 0.65387 0.0
C5620 C 0.77504 0.87844 0.65332 0.0
C5621 C 0.77842 0.88264 0.64284 0.0
C5622 C 0.77719 0.87613 0.63317 0.0
H5623 H 0.80038 0.85285 0.61864 0.0
H5624 H 0.79499 0.8669 0.61912 0.0
H5625 H 0.79428 0.8582 0.63139 0.0
H5626 H 0.76548 0.85288 0.64491 0.0
H5627 H 0.76742 0.86424 0.66178 0.0
H5628 H 0.20425 0.16335 0.59577 0.0
H5629 H 0.20675 0.14729 0.60819 0.0
H5630 H 0.18909 0.12622 0.5847 0.0
H5631 H 0.1864 0.14226 0.57229 0.0
H5632 H 0.17983 0.12614 0.60559 0.0
H5633 H 0.2255 0.1188 0.6088 0.0
H5634 H 0.22174 0.13319 0.61105 0.0
H5635 H 0.21931 0.12686 0.59757 0.0
C5636 C 0.20115 0.15525 0.5931 0.0
C5637 C 0.19502 0.15412 0.58309 0.0
C5638 C 0.20265 0.14605 0.60018 0.0
C5639 C 0.19817 0.13555 0.59733 0.0
C5640 C 0.19264 0.13425 0.58704 0.0
H5641 H 0.185 0.07892 0.64263 0.0
H5642 H 0.1872 0.08993 0.62546 0.0
C5643 C 0.1911 0.14344 0.57997 0.0
C5644 C 0.19786 0.12643 0.60573 0.0
H5645 H 0.21415 0.11121 0.62363 0.0
C5646 C 0.18733 0.12271 0.6094 0.0
C5647 C 0.20767 0.12202 0.6107 0.0
C5648 C 0.2192 0.12534 0.60675 0.0
C5649 C 0.18631 0.11512 0.6183 0.0
C5650 C 0.19611 0.11099 0.62352 0.0
C5651 C 0.20666 0.1144 0.6196 0.0
C5652 C 0.19553 0.10383 0.63362 0.0
C5653 C 0.17475 0.11206 0.6224 0.0
C5654 C 0.19981 0.10785 0.64379 0.0
C5655 C 0.19865 0.10157 0.65358 0.0
C5656 C 0.19318 0.09113 0.65338 0.0
C5657 C 0.18916 0.08697 0.64309 0.0
C5658 C 0.19038 0.09326 0.63328 0.0
H5659 H 0.16821 0.11775 0.61901 0.0
H5660 H 0.17272 0.1034 0.61967 0.0
H5661 H 0.17437 0.11232 0.6317 0.0
H5662 H 0.20381 0.11599 0.64422 0.0
H5663 H 0.20187 0.10502 0.66133 0.0
H5664 H 0.59591 0.65774 0.26451 0.0
H5665 H 0.60671 0.64052 0.26244 0.0
H5666 H 0.58167 0.62238 0.28111 0.0
H5667 H 0.57084 0.63961 0.28335 0.0
H5668 H 0.60238 0.62076 0.29029 0.0
H5669 H 0.60508 0.61128 0.24509 0.0
H5670 H 0.60827 0.62571 0.24786 0.0
H5671 H 0.59447 0.62041 0.25087 0.0
C5672 C 0.59253 0.65005 0.26793 0.0
C5673 C 0.58258 0.6501 0.27422 0.0
C5674 C 0.59868 0.64017 0.26666 0.0
C5675 C 0.59494 0.63014 0.27155 0.0
C5676 C 0.58467 0.63002 0.27723 0.0
H5677 H 0.64273 0.57547 0.28668 0.0
H5678 H 0.62449 0.58458 0.28413 0.0
C5679 C 0.57851 0.63989 0.27852 0.0
C5680 C 0.60262 0.62042 0.27225 0.0
H5681 H 0.62055 0.60461 0.25658 0.0
C5682 C 0.60616 0.61699 0.28293 0.0
C5683 C 0.60748 0.6155 0.26264 0.0
C5684 C 0.60353 0.61834 0.25097 0.0
C5685 C 0.61509 0.60948 0.28426 0.0
C5686 C 0.62049 0.60517 0.27463 0.0
C5687 C 0.61643 0.60799 0.26395 0.0
C5688 C 0.63121 0.59901 0.27545 0.0
C5689 C 0.61921 0.60687 0.29594 0.0
C5690 C 0.64094 0.60398 0.27117 0.0
C5691 C 0.65131 0.59881 0.27255 0.0
C5692 C 0.65218 0.58854 0.27826 0.0
C5693 C 0.64236 0.58343 0.28233 0.0
C5694 C 0.63194 0.58861 0.28089 0.0
H5695 H 0.61517 0.61225 0.30239 0.0
H5696 H 0.6173 0.598 0.29796 0.0
H5697 H 0.62842 0.60801 0.29649 0.0
H5698 H 0.64054 0.61202 0.26697 0.0
H5699 H 0.65867 0.60298 0.26927 0.0
H5700 H 0.37907 0.65472 0.26016 0.0
H5701 H 0.36658 0.6386 0.25783 0.0
H5702 H 0.36355 0.63591 0.29379 0.0
H5703 H 0.37677 0.65143 0.29608 0.0
H5704 H 0.36333 0.61627 0.28556 0.0
H5705 H 0.33391 0.64161 0.2601 0.0
H5706 H 0.34732 0.64017 0.25352 0.0
H5707 H 0.3461 0.64763 0.26662 0.0
C5708 C 0.37586 0.65052 0.26753 0.0
C5709 C 0.37877 0.65427 0.27829 0.0
C5710 C 0.36863 0.64141 0.26621 0.0
C5711 C 0.36377 0.63629 0.27562 0.0
C5712 C 0.3671 0.63976 0.28639 0.0
H5713 H 0.30006 0.60392 0.27991 0.0
H5714 H 0.3159 0.61665 0.27761 0.0
C5715 C 0.37465 0.64861 0.28771 0.0
C5716 C 0.35492 0.62762 0.27435 0.0
H5717 H 0.32946 0.62249 0.26233 0.0
C5718 C 0.35592 0.61764 0.28049 0.0
C5719 C 0.34515 0.62945 0.26783 0.0
C5720 C 0.34299 0.64034 0.26175 0.0
C5721 C 0.34733 0.6096 0.28059 0.0
C5722 C 0.33771 0.6113 0.27383 0.0
C5723 C 0.33687 0.62113 0.26742 0.0
C5724 C 0.32798 0.60354 0.27405 0.0
C5725 C 0.34847 0.59973 0.28842 0.0
C5726 C 0.32935 0.59196 0.27239 0.0
C5727 C 0.32035 0.58465 0.27404 0.0
C5728 C 0.30974 0.58885 0.2769 0.0
C5729 C 0.30815 0.60048 0.27765 0.0
C5730 C 0.31722 0.60775 0.27635 0.0
H5731 H 0.35463 0.6014 0.2952 0.0
H5732 H 0.34032 0.59758 0.29235 0.0
H5733 H 0.3515 0.59234 0.28364 0.0
H5734 H 0.33744 0.58853 0.27016 0.0
H5735 H 0.32173 0.5757 0.2733 0.0
H5736 H 0.37193 0.31139 0.26658 0.0
H5737 H 0.36141 0.32889 0.26558 0.0
H5738 H 0.38609 0.34512 0.28641 0.0
H5739 H 0.39663 0.3276 0.28758 0.0
H5740 H 0.36499 0.34684 0.29479 0.0
H5741 H 0.36474 0.35901 0.25013 0.0
H5742 H 0.36091 0.3446 0.25196 0.0
H5743 H 0.37476 0.34918 0.25582 0.0
C5744 C 0.37527 0.31873 0.27074 0.0
C5745 C 0.38506 0.31805 0.27725 0.0
C5746 C 0.36929 0.32877 0.27008 0.0
C5747 C 0.37302 0.33834 0.27583 0.0
C5748 C 0.38309 0.33785 0.28187 0.0
H5749 H 0.32853 0.39545 0.29188 0.0
H5750 H 0.34597 0.3848 0.28971 0.0
C5751 C 0.38909 0.32781 0.28253 0.0
C5752 C 0.36562 0.34825 0.2768 0.0
H5753 H 0.34934 0.36598 0.26139 0.0
C5754 C 0.36175 0.35122 0.28751 0.0
C5755 C 0.36145 0.35397 0.26731 0.0
C5756 C 0.36577 0.3516 0.25567 0.0
C5757 C 0.35322 0.35918 0.28892 0.0
C5758 C 0.34857 0.3644 0.27936 0.0
C5759 C 0.3529 0.36191 0.2687 0.0
C5760 C 0.33837 0.37139 0.28013 0.0
C5761 C 0.34875 0.3614 0.30055 0.0
C5762 C 0.32843 0.36749 0.27525 0.0
C5763 C 0.31851 0.37353 0.27644 0.0
C5764 C 0.31833 0.38363 0.28253 0.0
C5765 C 0.32837 0.38766 0.28722 0.0
C5766 C 0.33833 0.38159 0.286 0.0
H5767 H 0.3521 0.35539 0.30681 0.0
H5768 H 0.35116 0.36998 0.3032 0.0
H5769 H 0.33946 0.3609 0.30061 0.0
H5770 H 0.3283 0.35962 0.27071 0.0
H5771 H 0.31096 0.37019 0.27268 0.0
H5772 H 0.64406 0.39613 0.28178 0.0
H5773 H 0.62684 0.38519 0.28006 0.0
H5774 H 0.64528 0.35847 0.26419 0.0
H5775 H 0.66254 0.36937 0.26572 0.0
H5776 H 0.62339 0.36267 0.25482 0.0
H5777 H 0.62288 0.35816 0.30131 0.0
H5778 H 0.62304 0.37219 0.29586 0.0
H5779 H 0.635 0.36327 0.29387 0.0
C5780 C 0.64444 0.388 0.27776 0.0
C5781 C 0.65472 0.38355 0.27405 0.0
C5782 C 0.63459 0.38176 0.27682 0.0
C5783 C 0.63485 0.37095 0.27221 0.0
C5784 C 0.64493 0.36679 0.26783 0.0
H5785 H 0.60184 0.30933 0.26688 0.0
H5786 H 0.61262 0.32648 0.26472 0.0
C5787 C 0.65479 0.37303 0.26873 0.0
C5788 C 0.62494 0.36355 0.27278 0.0
H5789 H 0.60951 0.34802 0.29116 0.0
C5790 C 0.62024 0.35957 0.26276 0.0
C5791 C 0.6208 0.3596 0.28316 0.0
C5792 C 0.6257 0.36344 0.29419 0.0
C5793 C 0.61177 0.35142 0.26285 0.0
C5794 C 0.6081 0.347 0.27321 0.0
C5795 C 0.61236 0.35143 0.28324 0.0
C5796 C 0.60093 0.33691 0.27385 0.0
C5797 C 0.60697 0.34746 0.25184 0.0
C5798 C 0.59086 0.33701 0.27993 0.0
C5799 C 0.58467 0.32714 0.28128 0.0
C5800 C 0.58853 0.31699 0.27666 0.0
C5801 C 0.59859 0.31698 0.27053 0.0
C5802 C 0.60472 0.32682 0.26917 0.0
H5803 H 0.60765 0.35405 0.2453 0.0
H5804 H 0.61177 0.34005 0.2489 0.0
H5805 H 0.59804 0.34501 0.25272 0.0
H5806 H 0.58787 0.3447 0.28373 0.0
H5807 H 0.57697 0.32743 0.28607 0.0
H5808 H 0.57334 0.32572 0.6911 0.0
H5809 H 0.58657 0.34115 0.69347 0.0
H5810 H 0.6124 0.31768 0.7028 0.0
H5811 H 0.59919 0.30214 0.70058 0.0
H5812 H 0.61241 0.33917 0.715 0.0
H5813 H 0.61088 0.34354 0.66857 0.0
H5814 H 0.59764 0.34428 0.6757 0.0
H5815 H 0.60542 0.3314 0.67573 0.0
C5816 C 0.58177 0.32383 0.69388 0.0
C5817 C 0.58528 0.31268 0.69546 0.0
C5818 C 0.58931 0.33267 0.69521 0.0
C5819 C 0.60048 0.3305 0.69807 0.0
C5820 C 0.6038 0.31949 0.70053 0.0
H5821 H 0.66411 0.36319 0.6977 0.0
H5822 H 0.64789 0.35126 0.70103 0.0
C5823 C 0.59624 0.31062 0.69926 0.0
C5824 C 0.60896 0.33948 0.6973 0.0
H5825 H 0.62265 0.3559 0.67834 0.0
C5826 C 0.61462 0.34289 0.70701 0.0
C5827 C 0.61178 0.3443 0.68685 0.0
C5828 C 0.6062 0.34067 0.67608 0.0
C5829 C 0.62313 0.35101 0.70653 0.0
C5830 C 0.62614 0.35561 0.69603 0.0
C5831 C 0.62028 0.35238 0.68637 0.0
C5832 C 0.63583 0.36322 0.69469 0.0
C5833 C 0.62878 0.35459 0.71726 0.0
C5834 C 0.63445 0.37381 0.68975 0.0
C5835 C 0.64374 0.38063 0.68771 0.0
C5836 C 0.65458 0.37693 0.6905 0.0
C5837 C 0.65589 0.36632 0.69547 0.0
C5838 C 0.64661 0.35953 0.6975 0.0
H5839 H 0.62335 0.35306 0.72466 0.0
H5840 H 0.63658 0.34966 0.71839 0.0
H5841 H 0.63104 0.36362 0.71703 0.0
H5842 H 0.62619 0.37675 0.68741 0.0
H5843 H 0.64244 0.38875 0.68387 0.0
H5844 H 0.67186 0.59965 0.68664 0.0
H5845 H 0.65713 0.61336 0.69022 0.0
H5846 H 0.63599 0.5872 0.70356 0.0
H5847 H 0.65046 0.57334 0.69913 0.0
H5848 H 0.6244 0.59825 0.69034 0.0
H5849 H 0.64587 0.62979 0.71614 0.0
H5850 H 0.6537 0.62795 0.7035 0.0
H5851 H 0.65217 0.61639 0.71315 0.0
C5852 C 0.66416 0.5969 0.69058 0.0
C5853 C 0.66227 0.58548 0.69266 0.0
C5854 C 0.65575 0.60475 0.69272 0.0
C5855 C 0.64547 0.60141 0.69738 0.0
C5856 C 0.64383 0.59003 0.69997 0.0
H5857 H 0.59864 0.65668 0.70918 0.0
H5858 H 0.61112 0.64073 0.7124 0.0
C5859 C 0.6521 0.58212 0.6975 0.0
C5860 C 0.63606 0.60953 0.69837 0.0
H5861 H 0.63007 0.63663 0.70518 0.0
C5862 C 0.6256 0.60656 0.69382 0.0
C5863 C 0.63741 0.62032 0.70312 0.0
C5864 C 0.64787 0.62371 0.70937 0.0
C5865 C 0.61669 0.61422 0.69341 0.0
C5866 C 0.61845 0.62538 0.69706 0.0
C5867 C 0.62872 0.62817 0.70212 0.0
C5868 C 0.60999 0.63439 0.6954 0.0
C5869 C 0.60549 0.61015 0.68916 0.0
C5870 C 0.60506 0.63612 0.68483 0.0
C5871 C 0.59759 0.64499 0.68312 0.0
C5872 C 0.59532 0.65255 0.69182 0.0
C5873 C 0.60029 0.65092 0.70235 0.0
C5874 C 0.60744 0.64184 0.70417 0.0
H5875 H 0.60429 0.60112 0.69107 0.0
H5876 H 0.59844 0.61492 0.69291 0.0
H5877 H 0.60519 0.61108 0.67991 0.0
H5878 H 0.6072 0.63082 0.67778 0.0
H5879 H 0.59399 0.64622 0.67488 0.0
H5880 H 0.39923 0.64027 0.68156 0.0
H5881 H 0.38901 0.62261 0.68335 0.0
H5882 H 0.36313 0.63946 0.7021 0.0
H5883 H 0.37329 0.65716 0.70044 0.0
H5884 H 0.36958 0.61682 0.71008 0.0
H5885 H 0.35973 0.61921 0.66443 0.0
H5886 H 0.37421 0.6199 0.66856 0.0
H5887 H 0.36491 0.63116 0.67214 0.0
C5888 C 0.39145 0.64021 0.68621 0.0
C5889 C 0.38698 0.65017 0.69071 0.0
C5890 C 0.38563 0.6301 0.68722 0.0
C5891 C 0.37527 0.6298 0.69272 0.0
C5892 C 0.37112 0.63956 0.6978 0.0
H5893 H 0.31515 0.59662 0.70321 0.0
H5894 H 0.33294 0.60638 0.70462 0.0
C5895 C 0.37692 0.64967 0.69681 0.0
C5896 C 0.36817 0.61968 0.69232 0.0
H5897 H 0.3506 0.60542 0.67487 0.0
C5898 C 0.36556 0.61418 0.70236 0.0
C5899 C 0.36306 0.6162 0.68221 0.0
C5900 C 0.36553 0.62192 0.6712 0.0
C5901 C 0.35754 0.60559 0.70264 0.0
C5902 C 0.35182 0.60268 0.69266 0.0
C5903 C 0.35498 0.60769 0.68251 0.0
C5904 C 0.34157 0.59571 0.69274 0.0
C5905 C 0.35509 0.59991 0.71365 0.0
C5906 C 0.34041 0.58654 0.68544 0.0
C5907 C 0.33013 0.581 0.68448 0.0
C5908 C 0.32082 0.5846 0.69075 0.0
C5909 C 0.32213 0.5936 0.69826 0.0
C5910 C 0.33236 0.59912 0.69919 0.0
H5911 H 0.36263 0.5998 0.71911 0.0
H5912 H 0.34846 0.60465 0.71813 0.0
H5913 H 0.35216 0.59116 0.71241 0.0
H5914 H 0.34739 0.58386 0.68029 0.0
H5915 H 0.32941 0.57409 0.67863 0.0
H5916 H 0.31105 0.37182 0.70135 0.0
H5917 H 0.32807 0.36067 0.70321 0.0
H5918 H 0.34618 0.38471 0.68325 0.0
H5919 H 0.32916 0.39592 0.68123 0.0
H5920 H 0.34755 0.36318 0.67517 0.0
H5921 H 0.35744 0.36371 0.72044 0.0
H5922 H 0.34303 0.36036 0.7178 0.0
H5923 H 0.34835 0.37395 0.71397 0.0
C5924 C 0.31869 0.37488 0.69753 0.0
C5925 C 0.3187 0.38472 0.69106 0.0
C5926 C 0.32845 0.36853 0.69869 0.0
C5927 C 0.33841 0.37194 0.69348 0.0
C5928 C 0.33858 0.38199 0.6874 0.0
H5929 H 0.39534 0.3265 0.68065 0.0
H5930 H 0.38479 0.34404 0.6823 0.0
C5931 C 0.32883 0.38836 0.68625 0.0
C5932 C 0.34814 0.36426 0.69317 0.0
H5933 H 0.36483 0.34811 0.70983 0.0
C5934 C 0.35152 0.36005 0.68272 0.0
C5935 C 0.35329 0.36023 0.70304 0.0
C5936 C 0.35042 0.36488 0.71444 0.0
C5937 C 0.35938 0.35135 0.68191 0.0
C5938 C 0.36409 0.3469 0.69183 0.0
C5939 C 0.36116 0.35152 0.70225 0.0
C5940 C 0.3711 0.33669 0.69163 0.0
C5941 C 0.36203 0.34653 0.67052 0.0
C5942 C 0.36705 0.32687 0.69663 0.0
C5943 C 0.37305 0.31688 0.69576 0.0
C5944 C 0.38324 0.31652 0.68986 0.0
C5945 C 0.38747 0.32647 0.68516 0.0
C5946 C 0.38145 0.33649 0.68607 0.0
H5947 H 0.35621 0.34962 0.66395 0.0
H5948 H 0.37066 0.34896 0.66809 0.0
H5949 H 0.36161 0.33723 0.6707 0.0
H5950 H 0.35907 0.32686 0.70096 0.0
H5951 H 0.36956 0.3094 0.69953 0.0
H5952 H 0.78632 0.57469 0.14609 0.0
H5953 H 0.78295 0.58819 0.13112 0.0
H5954 H 0.77171 0.61251 0.15538 0.0
H5955 H 0.775 0.59901 0.17051 0.0
H5956 H 0.75871 0.61097 0.1341 0.0
H5957 H 0.80473 0.61556 0.12833 0.0
H5958 H 0.79945 0.60146 0.12799 0.0
H5959 H 0.79868 0.60941 0.14075 0.0
C5960 C 0.78301 0.58286 0.14827 0.0
C5961 C 0.78108 0.58583 0.15952 0.0
C5962 C 0.7811 0.59056 0.13969 0.0
C5963 C 0.77727 0.60137 0.1422 0.0
C5964 C 0.77472 0.60419 0.15332 0.0
H5965 H 0.76788 0.66305 0.10603 0.0
H5966 H 0.76701 0.6475 0.11922 0.0
C5967 C 0.77661 0.59648 0.16194 0.0
C5968 C 0.77669 0.60993 0.13329 0.0
H5969 H 0.79312 0.62533 0.11573 0.0
C5970 C 0.76621 0.61413 0.13006 0.0
C5971 C 0.78651 0.61397 0.12806 0.0
C5972 C 0.79801 0.60996 0.13148 0.0
C5973 C 0.76528 0.62225 0.12159 0.0
C5974 C 0.77513 0.62639 0.11644 0.0
C5975 C 0.78559 0.6221 0.11964 0.0
C5976 C 0.77489 0.63554 0.10808 0.0
C5977 C 0.75378 0.6262 0.11814 0.0
C5978 C 0.7798 0.63404 0.09749 0.0
C5979 C 0.78045 0.64297 0.08995 0.0
C5980 C 0.77622 0.65358 0.09289 0.0
C5981 C 0.77116 0.65499 0.10345 0.0
C5982 C 0.77057 0.64607 0.11099 0.0
H5983 H 0.74724 0.61993 0.12027 0.0
H5984 H 0.75176 0.63407 0.12268 0.0
H5985 H 0.7534 0.62792 0.109 0.0
H5986 H 0.78327 0.62598 0.09513 0.0
H5987 H 0.7844 0.6416 0.08189 0.0
H5988 H 0.30704 0.76944 0.10685 0.0
H5989 H 0.32457 0.76652 0.11692 0.0
H5990 H 0.34307 0.77959 0.08879 0.0
H5991 H 0.3255 0.78271 0.07864 0.0
H5992 H 0.34431 0.75407 0.11143 0.0
H5993 H 0.35211 0.79999 0.1152 0.0
H5994 H 0.3387 0.79444 0.11098 0.0
H5995 H 0.3502 0.79452 0.10129 0.0
C5996 C 0.31482 0.77165 0.10275 0.0
C5997 C 0.31485 0.77643 0.09198 0.0
C5998 C 0.32484 0.76992 0.10851 0.0
C5999 C 0.33508 0.77294 0.10364 0.0
C6000 C 0.33522 0.77735 0.09274 0.0
H6001 H 0.3961 0.78101 0.14303 0.0
H6002 H 0.38451 0.778 0.12644 0.0
C6003 C 0.32518 0.7791 0.08696 0.0
C6004 C 0.34545 0.77206 0.11036 0.0
H6005 H 0.36436 0.788 0.12466 0.0
C6006 C 0.34882 0.76146 0.11421 0.0
C6007 C 0.35133 0.78172 0.1139 0.0
C6008 C 0.34791 0.79334 0.11022 0.0
C6009 C 0.35768 0.76031 0.12186 0.0
C6010 C 0.36314 0.77003 0.12588 0.0
C6011 C 0.36015 0.78056 0.12156 0.0
C6012 C 0.37111 0.76973 0.1354 0.0
C6013 C 0.36099 0.74873 0.12569 0.0
C6014 C 0.36755 0.76581 0.1459 0.0
C6015 C 0.37416 0.7675 0.15541 0.0
C6016 C 0.38439 0.77328 0.15461 0.0
C6017 C 0.38823 0.7766 0.14397 0.0
C6018 C 0.38163 0.77487 0.13446 0.0
H6019 H 0.35897 0.74234 0.11922 0.0
H6020 H 0.37007 0.74826 0.12765 0.0
H6021 H 0.35621 0.74659 0.13338 0.0
H6022 H 0.35936 0.76204 0.14687 0.0
H6023 H 0.37094 0.76484 0.16347 0.0
H6024 H 0.19468 0.39646 0.14767 0.0
H6025 H 0.19812 0.3843 0.13147 0.0
H6026 H 0.19161 0.35523 0.152 0.0
H6027 H 0.18904 0.3673 0.1683 0.0
H6028 H 0.20734 0.35047 0.13865 0.0
H6029 H 0.1742 0.37089 0.11325 0.0
H6030 H 0.18537 0.38024 0.11685 0.0
H6031 H 0.17659 0.37449 0.12771 0.0
C6032 C 0.19414 0.38746 0.1487 0.0
C6033 C 0.19155 0.38279 0.15919 0.0
C6034 C 0.19598 0.38052 0.13942 0.0
C6035 C 0.19477 0.36884 0.14039 0.0
C6036 C 0.19255 0.3642 0.15099 0.0
H6037 H 0.17473 0.32103 0.09106 0.0
H6038 H 0.17665 0.33665 0.10421 0.0
C6039 C 0.19108 0.3711 0.16032 0.0
C6040 C 0.19553 0.36136 0.13044 0.0
H6041 H 0.18441 0.35643 0.10452 0.0
C6042 C 0.20231 0.35177 0.13119 0.0
C6043 C 0.18891 0.36301 0.12072 0.0
C6044 C 0.18077 0.37265 0.11961 0.0
C6045 C 0.20231 0.34356 0.12277 0.0
C6046 C 0.19585 0.34531 0.11295 0.0
C6047 C 0.18942 0.35512 0.112 0.0
C6048 C 0.19482 0.33663 0.10405 0.0
C6049 C 0.20873 0.33285 0.12488 0.0
C6050 C 0.20435 0.33166 0.09924 0.0
C6051 C 0.20324 0.32248 0.09205 0.0
C6052 C 0.19257 0.3185 0.08913 0.0
C6053 C 0.18303 0.32402 0.09318 0.0
C6054 C 0.18415 0.33293 0.10069 0.0
H6055 H 0.21041 0.33157 0.13395 0.0
H6056 H 0.20408 0.32544 0.12171 0.0
H6057 H 0.21694 0.33328 0.12055 0.0
H6058 H 0.21266 0.33464 0.10131 0.0
H6059 H 0.2107 0.31839 0.08889 0.0
H6060 H 0.57068 0.18365 0.14138 0.0
H6061 H 0.58229 0.18659 0.12478 0.0
H6062 H 0.60658 0.2043 0.14484 0.0
H6063 H 0.59497 0.20157 0.16147 0.0
H6064 H 0.60338 0.21324 0.1226 0.0
H6065 H 0.6108 0.1671 0.12305 0.0
H6066 H 0.59647 0.17161 0.12209 0.0
H6067 H 0.60432 0.17434 0.13464 0.0
C6068 C 0.57839 0.18836 0.14224 0.0
C6069 C 0.58201 0.19219 0.1528 0.0
C6070 C 0.58501 0.19001 0.13274 0.0
C6071 C 0.59538 0.19544 0.13366 0.0
C6072 C 0.59861 0.20003 0.14399 0.0
H6073 H 0.65864 0.20378 0.10411 0.0
H6074 H 0.64079 0.20561 0.11377 0.0
C6075 C 0.59197 0.19844 0.15349 0.0
C6076 C 0.60346 0.19527 0.12428 0.0
H6077 H 0.62103 0.17768 0.11016 0.0
C6078 C 0.60715 0.20547 0.11975 0.0
C6079 C 0.6083 0.1851 0.12056 0.0
C6080 C 0.60486 0.1739 0.12536 0.0
C6081 C 0.61583 0.20578 0.11183 0.0
C6082 C 0.62107 0.19565 0.10857 0.0
C6083 C 0.61699 0.18543 0.11268 0.0
C6084 C 0.63153 0.19546 0.10192 0.0
C6085 C 0.61943 0.21696 0.10717 0.0
C6086 C 0.63231 0.18896 0.09215 0.0
C6087 C 0.64258 0.18777 0.08664 0.0
C6088 C 0.65226 0.193 0.09089 0.0
C6089 C 0.65137 0.19966 0.10058 0.0
C6090 C 0.64113 0.20082 0.10607 0.0
H6091 H 0.61242 0.22309 0.10731 0.0
H6092 H 0.62629 0.2204 0.11242 0.0
H6093 H 0.62253 0.21614 0.09843 0.0
H6094 H 0.62501 0.18465 0.08889 0.0
H6095 H 0.64297 0.18259 0.07919 0.0
H6096 H 0.78483 0.398 0.83078 0.0
H6097 H 0.78334 0.38792 0.84857 0.0
H6098 H 0.76357 0.36232 0.83244 0.0
H6099 H 0.76483 0.37238 0.8147 0.0
H6100 H 0.75639 0.36784 0.85465 0.0
H6101 H 0.80226 0.35927 0.85198 0.0
H6102 H 0.79792 0.3737 0.85197 0.0
H6103 H 0.79447 0.36484 0.84029 0.0
C6104 C 0.78 0.39032 0.83105 0.0
C6105 C 0.77511 0.38589 0.82127 0.0
C6106 C 0.77919 0.38457 0.84122 0.0
C6107 C 0.77353 0.37429 0.84175 0.0
C6108 C 0.76801 0.37024 0.83219 0.0
H6109 H 0.76549 0.31275 0.87257 0.0
H6110 H 0.7636 0.33082 0.86331 0.0
C6111 C 0.76878 0.37598 0.82204 0.0
C6112 C 0.77419 0.3671 0.85182 0.0
H6113 H 0.79211 0.34962 0.86562 0.0
C6114 C 0.76422 0.364 0.8572 0.0
C6115 C 0.78445 0.36219 0.85518 0.0
C6116 C 0.7954 0.36508 0.84955 0.0
C6117 C 0.76416 0.35566 0.86548 0.0
C6118 C 0.77429 0.35017 0.86825 0.0
C6119 C 0.78436 0.35384 0.86344 0.0
C6120 C 0.77448 0.33967 0.87482 0.0
C6121 C 0.7532 0.35255 0.87095 0.0
C6122 C 0.78136 0.3386 0.8843 0.0
C6123 C 0.78254 0.32821 0.88959 0.0
C6124 C 0.77696 0.3187 0.88539 0.0
C6125 C 0.76991 0.31989 0.87603 0.0
C6126 C 0.76871 0.33025 0.87079 0.0
H6127 H 0.74734 0.35979 0.87105 0.0
H6128 H 0.7492 0.34572 0.86607 0.0
H6129 H 0.75448 0.3496 0.87967 0.0
H6130 H 0.78599 0.34575 0.88745 0.0
H6131 H 0.78805 0.32757 0.89678 0.0
H6132 H 0.66279 0.77 0.8657 0.0
H6133 H 0.64578 0.76792 0.85466 0.0
H6134 H 0.62654 0.78318 0.88119 0.0
H6135 H 0.64366 0.78552 0.89231 0.0
H6136 H 0.62565 0.75672 0.85913 0.0
H6137 H 0.61933 0.80271 0.85392 0.0
H6138 H 0.63224 0.79691 0.85922 0.0
H6139 H 0.6201 0.79762 0.86806 0.0
C6140 C 0.65496 0.77291 0.86925 0.0
C6141 C 0.65461 0.77803 0.87987 0.0
C6142 C 0.64523 0.77166 0.86293 0.0
C6143 C 0.63493 0.77549 0.86706 0.0
C6144 C 0.63445 0.78033 0.87778 0.0
H6145 H 0.5754 0.78316 0.8252 0.0
H6146 H 0.58669 0.78075 0.8421 0.0
C6147 C 0.64423 0.78163 0.88413 0.0
C6148 C 0.6249 0.77476 0.85981 0.0
H6149 H 0.60713 0.79081 0.84422 0.0
C6150 C 0.62148 0.76416 0.85597 0.0
C6151 C 0.61947 0.78448 0.85575 0.0
C6152 C 0.62298 0.79609 0.85936 0.0
C6153 C 0.61303 0.76305 0.84787 0.0
C6154 C 0.608 0.7728 0.84341 0.0
C6155 C 0.61102 0.78335 0.84766 0.0
C6156 C 0.60038 0.77243 0.83363 0.0
C6157 C 0.60969 0.75148 0.84404 0.0
C6158 C 0.60425 0.76833 0.82329 0.0
C6159 C 0.59782 0.76969 0.8136 0.0
C6160 C 0.58746 0.77529 0.81405 0.0
C6161 C 0.58337 0.77886 0.82453 0.0
C6162 C 0.58979 0.77749 0.83421 0.0
H6163 H 0.61147 0.7451 0.85059 0.0
H6164 H 0.60065 0.75112 0.84186 0.0
H6165 H 0.61461 0.74922 0.83647 0.0
H6166 H 0.61249 0.76461 0.82261 0.0
H6167 H 0.60123 0.76686 0.80568 0.0
H6168 H 0.20425 0.65828 0.87409 0.0
H6169 H 0.20593 0.64164 0.86242 0.0
H6170 H 0.18647 0.62276 0.8863 0.0
H6171 H 0.18444 0.63956 0.89796 0.0
H6172 H 0.21428 0.62044 0.86552 0.0
H6173 H 0.16827 0.61948 0.85779 0.0
H6174 H 0.17504 0.63115 0.86459 0.0
H6175 H 0.17248 0.61841 0.8722 0.0
C6176 C 0.20037 0.65059 0.87694 0.0
C6177 C 0.19406 0.6503 0.88688 0.0
C6178 C 0.20139 0.64106 0.87027 0.0
C6179 C 0.19617 0.63102 0.8734 0.0
C6180 C 0.19036 0.6305 0.88362 0.0
H6181 H 0.1853 0.57458 0.82816 0.0
H6182 H 0.18818 0.58489 0.84559 0.0
C6183 C 0.18924 0.64009 0.89028 0.0
C6184 C 0.19625 0.62146 0.86549 0.0
H6185 H 0.17925 0.60647 0.84806 0.0
C6186 C 0.20662 0.61727 0.8618 0.0
C6187 C 0.18624 0.61737 0.86063 0.0
C6188 C 0.17487 0.62187 0.86391 0.0
C6189 C 0.20724 0.60934 0.85312 0.0
C6190 C 0.19725 0.6056 0.84801 0.0
C6191 C 0.18689 0.60938 0.85205 0.0
C6192 C 0.19726 0.5985 0.83785 0.0
C6193 C 0.21856 0.60518 0.84937 0.0
C6194 C 0.2016 0.60268 0.82775 0.0
C6195 C 0.19992 0.59684 0.81773 0.0
C6196 C 0.19382 0.58676 0.81765 0.0
C6197 C 0.18998 0.58235 0.82789 0.0
C6198 C 0.19164 0.5882 0.83788 0.0
H6199 H 0.22499 0.6063 0.85602 0.0
H6200 H 0.2182 0.59618 0.84701 0.0
H6201 H 0.22127 0.61002 0.84191 0.0
H6202 H 0.20578 0.61073 0.82753 0.0
H6203 H 0.203 0.60047 0.81 0.0
H6204 H 0.32483 0.17424 0.87993 0.0
H6205 H 0.34123 0.17621 0.86786 0.0
H6206 H 0.34277 0.21153 0.87578 0.0
H6207 H 0.32577 0.20966 0.88708 0.0
H6208 H 0.34433 0.20995 0.85528 0.0
H6209 H 0.37362 0.17829 0.87132 0.0
H6210 H 0.36066 0.17143 0.86824 0.0
H6211 H 0.36118 0.18212 0.87897 0.0
C6212 C 0.32886 0.18235 0.87927 0.0
C6213 C 0.32414 0.19179 0.8844 0.0
C6214 C 0.33831 0.18348 0.87245 0.0
C6215 C 0.34344 0.194 0.87102 0.0
C6216 C 0.33901 0.20333 0.87671 0.0
H6217 H 0.40045 0.19109 0.8247 0.0
H6218 H 0.38987 0.19481 0.84189 0.0
C6219 C 0.32934 0.20226 0.8832 0.0
C6220 C 0.35247 0.19551 0.86256 0.0
H6221 H 0.37546 0.18275 0.85138 0.0
C6222 C 0.35128 0.20414 0.85462 0.0
C6223 C 0.36177 0.18818 0.86174 0.0
C6224 C 0.36443 0.1796 0.87063 0.0
C6225 C 0.35868 0.20519 0.84556 0.0
C6226 C 0.36715 0.19704 0.84403 0.0
C6227 C 0.36881 0.18887 0.85235 0.0
C6228 C 0.37382 0.19629 0.83354 0.0
C6229 C 0.35725 0.21503 0.83775 0.0
C6230 C 0.36839 0.19607 0.82308 0.0
C6231 C 0.37447 0.19428 0.81325 0.0
C6232 C 0.38604 0.19227 0.8137 0.0
C6233 C 0.39152 0.19263 0.82412 0.0
C6234 C 0.38548 0.19472 0.83394 0.0
H6235 H 0.35404 0.22247 0.84235 0.0
H6236 H 0.36524 0.21735 0.83361 0.0
H6237 H 0.35097 0.21289 0.83123 0.0
H6238 H 0.35938 0.19683 0.82252 0.0
H6239 H 0.36999 0.19385 0.80535 0.0
H6240 H 0.58848 0.79654 0.14565 0.0
H6241 H 0.60066 0.79417 0.12937 0.0
H6242 H 0.59341 0.75868 0.12906 0.0
H6243 H 0.58199 0.76099 0.14594 0.0
H6244 H 0.61388 0.76054 0.12771 0.0
H6245 H 0.59774 0.79076 0.09702 0.0
H6246 H 0.60046 0.7982 0.10975 0.0
H6247 H 0.58996 0.78728 0.1095 0.0
C6248 C 0.5893 0.7883 0.1419 0.0
C6249 C 0.58433 0.77895 0.14694 0.0
C6250 C 0.59619 0.78694 0.13253 0.0
C6251 C 0.59785 0.77626 0.12779 0.0
C6252 C 0.5923 0.76701 0.13252 0.0
H6253 H 0.6452 0.7782 0.07162 0.0
H6254 H 0.62789 0.7745 0.08195 0.0
C6255 C 0.58574 0.76832 0.14211 0.0
C6256 C 0.60647 0.77455 0.11895 0.0
H6257 H 0.61783 0.78673 0.09575 0.0
C6258 C 0.61455 0.76612 0.12057 0.0
C6259 C 0.60731 0.78155 0.10941 0.0
C6260 C 0.5983 0.78984 0.10627 0.0
C6261 C 0.62378 0.765 0.11339 0.0
C6262 C 0.62532 0.77289 0.10469 0.0
C6263 C 0.61686 0.78082 0.10259 0.0
C6264 C 0.63593 0.77363 0.09821 0.0
C6265 C 0.63174 0.75536 0.1153 0.0
C6266 C 0.64627 0.77419 0.10384 0.0
C6267 C 0.65619 0.77596 0.0979 0.0
C6268 C 0.65592 0.77762 0.08627 0.0
C6269 C 0.64562 0.77695 0.0806 0.0
C6270 C 0.63573 0.77487 0.0865 0.0
H6271 H 0.62722 0.74794 0.11864 0.0
H6272 H 0.63611 0.75287 0.10747 0.0
H6273 H 0.63807 0.75782 0.12165 0.0
H6274 H 0.64666 0.77371 0.11289 0.0
H6275 H 0.66398 0.77664 0.1025 0.0
H6276 H 0.6431 0.18685 0.89933 0.0
H6277 H 0.62745 0.19 0.88654 0.0
H6278 H 0.65037 0.20155 0.86115 0.0
H6279 H 0.66614 0.19856 0.87394 0.0
H6280 H 0.62936 0.21384 0.86258 0.0
H6281 H 0.62371 0.16756 0.86032 0.0
H6282 H 0.62331 0.17359 0.87412 0.0
H6283 H 0.6361 0.17392 0.8662 0.0
C6284 C 0.64483 0.19022 0.89108 0.0
C6285 C 0.65589 0.19228 0.88758 0.0
C6286 C 0.63586 0.19199 0.88379 0.0
C6287 C 0.6378 0.19578 0.87285 0.0
C6288 C 0.64874 0.19856 0.86956 0.0
H6289 H 0.60529 0.20121 0.80969 0.0
H6290 H 0.6169 0.20327 0.82634 0.0
C6291 C 0.65773 0.19684 0.87687 0.0
C6292 C 0.62862 0.19592 0.86455 0.0
H6293 H 0.61151 0.17859 0.84955 0.0
C6294 C 0.62538 0.20616 0.85977 0.0
C6295 C 0.62344 0.18587 0.86096 0.0
C6296 C 0.62684 0.17458 0.86558 0.0
C6297 C 0.61717 0.20659 0.85136 0.0
C6298 C 0.61226 0.1965 0.84752 0.0
C6299 C 0.61526 0.18631 0.85255 0.0
C6300 C 0.60471 0.19613 0.83768 0.0
C6301 C 0.61383 0.21784 0.84666 0.0
C6302 C 0.59405 0.19123 0.83849 0.0
C6303 C 0.58739 0.18992 0.82894 0.0
C6304 C 0.59133 0.19341 0.81839 0.0
C6305 C 0.60196 0.19845 0.81767 0.0
C6306 C 0.60859 0.19975 0.82721 0.0
H6307 H 0.61545 0.22469 0.85276 0.0
H6308 H 0.61887 0.21957 0.83904 0.0
H6309 H 0.60483 0.21799 0.84431 0.0
H6310 H 0.59096 0.18828 0.8465 0.0
H6311 H 0.57925 0.186 0.82978 0.0
H6312 H 0.78359 0.5797 0.82827 0.0
H6313 H 0.78234 0.59147 0.84504 0.0
H6314 H 0.76305 0.61583 0.82659 0.0
H6315 H 0.76412 0.60412 0.80988 0.0
H6316 H 0.79095 0.61291 0.84611 0.0
H6317 H 0.74559 0.61353 0.85587 0.0
H6318 H 0.75186 0.6031 0.84685 0.0
H6319 H 0.74857 0.61681 0.8415 0.0
C6320 C 0.77891 0.58746 0.82783 0.0
C6321 C 0.77399 0.59098 0.81772 0.0
C6322 C 0.7782 0.59417 0.83742 0.0
C6323 C 0.77247 0.60444 0.83709 0.0
C6324 C 0.76729 0.60781 0.82711 0.0
H6325 H 0.77006 0.66571 0.8745 0.0
H6326 H 0.76697 0.65006 0.86158 0.0
C6327 C 0.768 0.60114 0.81752 0.0
C6328 C 0.77294 0.61222 0.84675 0.0
H6329 H 0.75673 0.62808 0.86421 0.0
C6330 C 0.78348 0.6161 0.8502 0.0
C6331 C 0.76317 0.6164 0.85199 0.0
C6332 C 0.75166 0.61217 0.84894 0.0
C6333 C 0.78451 0.62438 0.85847 0.0
C6334 C 0.77473 0.62875 0.86354 0.0
C6335 C 0.76419 0.62471 0.86028 0.0
C6336 C 0.77537 0.63782 0.87197 0.0
C6337 C 0.79603 0.62871 0.86138 0.0
C6338 C 0.78078 0.63599 0.88223 0.0
C6339 C 0.78261 0.6449 0.8896 0.0
C6340 C 0.77899 0.65579 0.88686 0.0
C6341 C 0.773 0.65745 0.87684 0.0
C6342 C 0.77121 0.64852 0.86946 0.0
H6343 H 0.8024 0.62621 0.85506 0.0
H6344 H 0.796 0.63799 0.86208 0.0
H6345 H 0.79863 0.62523 0.86961 0.0
H6346 H 0.78389 0.62774 0.88439 0.0
H6347 H 0.78714 0.64328 0.8973 0.0
H6348 H 0.32609 0.79139 0.89688 0.0
H6349 H 0.3439 0.79021 0.88684 0.0
H6350 H 0.32808 0.77066 0.86088 0.0
H6351 H 0.31024 0.7717 0.87087 0.0
H6352 H 0.3505 0.76323 0.86781 0.0
H6353 H 0.34795 0.80877 0.85755 0.0
H6354 H 0.34699 0.80481 0.87206 0.0
H6355 H 0.33598 0.80102 0.86256 0.0
C6356 C 0.32641 0.78671 0.8891 0.0
C6357 C 0.31669 0.78175 0.8846 0.0
C6358 C 0.3366 0.78608 0.88338 0.0
C6359 C 0.33723 0.78049 0.87307 0.0
C6360 C 0.32772 0.77504 0.86884 0.0
H6361 H 0.37233 0.76979 0.81401 0.0
H6362 H 0.36164 0.76898 0.8313 0.0
C6363 C 0.31753 0.77567 0.87454 0.0
C6364 C 0.34752 0.78096 0.8662 0.0
H6365 H 0.3622 0.7984 0.84898 0.0
C6366 C 0.35319 0.77094 0.86382 0.0
C6367 C 0.35107 0.79107 0.86114 0.0
C6368 C 0.34519 0.80205 0.86336 0.0
C6369 C 0.36202 0.77068 0.85607 0.0
C6370 C 0.36503 0.78064 0.8504 0.0
C6371 C 0.35985 0.79078 0.85333 0.0
C6372 C 0.37233 0.78048 0.84038 0.0
C6373 C 0.36784 0.75968 0.85381 0.0
C6374 C 0.3818 0.78742 0.83965 0.0
C6375 C 0.38794 0.78799 0.82967 0.0
C6376 C 0.38459 0.78174 0.82024 0.0
C6377 C 0.37517 0.77472 0.82109 0.0
C6378 C 0.3691 0.77414 0.83103 0.0
H6379 H 0.36757 0.75415 0.86129 0.0
H6380 H 0.36348 0.75528 0.84687 0.0
H6381 H 0.37672 0.76098 0.85136 0.0
H6382 H 0.38434 0.79249 0.84674 0.0
H6383 H 0.39514 0.79349 0.82927 0.0
H6384 H 0.17646 0.3907 0.82685 0.0
H6385 H 0.18058 0.38092 0.84447 0.0
H6386 H 0.1935 0.35276 0.82586 0.0
H6387 H 0.18948 0.36235 0.80833 0.0
H6388 H 0.17251 0.35942 0.85133 0.0
H6389 H 0.21877 0.36008 0.84839 0.0
H6390 H 0.20991 0.3694 0.84038 0.0
H6391 H 0.21217 0.35522 0.83577 0.0
C6392 C 0.18018 0.38242 0.82652 0.0
C6393 C 0.18269 0.37733 0.81617 0.0
C6394 C 0.18256 0.37689 0.83658 0.0
C6395 C 0.18759 0.36626 0.83643 0.0
C6396 C 0.18989 0.36109 0.82614 0.0
H6397 H 0.20066 0.30781 0.87216 0.0
H6398 H 0.20099 0.32425 0.85999 0.0
C6399 C 0.18748 0.36656 0.81612 0.0
C6400 C 0.18996 0.36014 0.84693 0.0
H6401 H 0.21079 0.34596 0.86044 0.0
C6402 C 0.1809 0.35668 0.85351 0.0
C6403 C 0.20092 0.35664 0.84972 0.0
C6404 C 0.21102 0.36062 0.84326 0.0
C6405 C 0.1824 0.34907 0.86235 0.0
C6406 C 0.1933 0.34504 0.86474 0.0
C6407 C 0.20245 0.34904 0.85855 0.0
C6408 C 0.19512 0.33575 0.87273 0.0
C6409 C 0.17221 0.34486 0.86855 0.0
C6410 C 0.19228 0.33692 0.88407 0.0
C6411 C 0.19202 0.32752 0.89104 0.0
C6412 C 0.19468 0.31683 0.88679 0.0
C6413 C 0.1985 0.31589 0.87569 0.0
C6414 C 0.19869 0.32529 0.86871 0.0
H6415 H 0.16427 0.34732 0.86435 0.0
H6416 H 0.17242 0.33558 0.86927 0.0
H6417 H 0.17215 0.34842 0.87714 0.0
H6418 H 0.18975 0.34498 0.88738 0.0
H6419 H 0.18919 0.32856 0.8996 0.0
H6420 H 0.39242 0.18161 0.14047 0.0
H6421 H 0.3807 0.18369 0.12374 0.0
H6422 H 0.35731 0.2038 0.14259 0.0
H6423 H 0.36897 0.20196 0.15921 0.0
H6424 H 0.35917 0.17645 0.12174 0.0
H6425 H 0.36057 0.22217 0.1143 0.0
H6426 H 0.37048 0.21509 0.1233 0.0
H6427 H 0.35683 0.21891 0.12849 0.0
C6428 C 0.38486 0.1866 0.14101 0.0
C6429 C 0.38164 0.19162 0.15119 0.0
C6430 C 0.37819 0.1878 0.13144 0.0
C6431 C 0.36825 0.19408 0.13187 0.0
C6432 C 0.3651 0.19919 0.14198 0.0
H6433 H 0.30615 0.20024 0.09782 0.0
H6434 H 0.3228 0.20247 0.10957 0.0
C6435 C 0.37175 0.19802 0.15151 0.0
C6436 C 0.36055 0.19444 0.12215 0.0
H6437 H 0.34499 0.21225 0.10602 0.0
C6438 C 0.35623 0.18426 0.11814 0.0
C6439 C 0.35671 0.20465 0.1175 0.0
C6440 C 0.36148 0.21581 0.12105 0.0
C6441 C 0.34775 0.18403 0.11001 0.0
C6442 C 0.34361 0.19426 0.10568 0.0
C6443 C 0.34818 0.20444 0.1094 0.0
C6444 C 0.33404 0.19448 0.09781 0.0
C6445 C 0.34291 0.17287 0.10653 0.0
C6446 C 0.33498 0.18965 0.08715 0.0
C6447 C 0.3255 0.18832 0.08043 0.0
C6448 C 0.31491 0.19184 0.08426 0.0
C6449 C 0.31415 0.19738 0.09464 0.0
C6450 C 0.32366 0.19868 0.10137 0.0
H6451 H 0.34557 0.16597 0.11219 0.0
H6452 H 0.33362 0.17321 0.10642 0.0
H6453 H 0.3458 0.17081 0.09793 0.0
H6454 H 0.34298 0.18653 0.0842 0.0
H6455 H 0.32641 0.18414 0.07242 0.0
H6456 H 0.79387 0.38132 0.14699 0.0
H6457 H 0.79022 0.36746 0.13237 0.0
H6458 H 0.75591 0.36469 0.14351 0.0
H6459 H 0.75983 0.37793 0.15868 0.0
H6460 H 0.76291 0.3453 0.14013 0.0
H6461 H 0.77578 0.36935 0.10303 0.0
H6462 H 0.78727 0.36892 0.11263 0.0
H6463 H 0.77441 0.37585 0.1166 0.0
C6464 C 0.78552 0.37784 0.1462 0.0
C6465 C 0.77711 0.38068 0.15389 0.0
C6466 C 0.7834 0.37 0.13777 0.0
C6467 C 0.7727 0.3652 0.13661 0.0
C6468 C 0.76422 0.36827 0.14418 0.0
H6469 H 0.76773 0.32184 0.07776 0.0
H6470 H 0.76332 0.3369 0.09099 0.0
C6471 C 0.76644 0.37585 0.15282 0.0
C6472 C 0.77064 0.35634 0.12808 0.0
H6473 H 0.77656 0.34909 0.10111 0.0
C6474 C 0.7657 0.34623 0.13153 0.0
C6475 C 0.77392 0.35757 0.11675 0.0
C6476 C 0.778 0.36857 0.11204 0.0
C6477 C 0.76452 0.33714 0.12415 0.0
C6478 C 0.76896 0.33797 0.11318 0.0
C6479 C 0.77333 0.34829 0.10957 0.0
C6480 C 0.76983 0.32816 0.10553 0.0
C6481 C 0.75846 0.32683 0.12825 0.0
C6482 C 0.77466 0.31808 0.10929 0.0
C6483 C 0.77676 0.30933 0.1018 0.0
C6484 C 0.77449 0.31068 0.09035 0.0
C6485 C 0.7695 0.32063 0.08658 0.0
C6486 C 0.76704 0.32924 0.09413 0.0
H6487 H 0.75182 0.32911 0.13436 0.0
H6488 H 0.75454 0.3221 0.12125 0.0
H6489 H 0.76447 0.32128 0.13265 0.0
H6490 H 0.77732 0.31714 0.1179 0.0
H6491 H 0.78081 0.30179 0.10483 0.0
H6492 H 0.17974 0.58226 0.14108 0.0
H6493 H 0.18019 0.5949 0.1249 0.0
H6494 H 0.21042 0.61012 0.13756 0.0
H6495 H 0.21005 0.59759 0.1537 0.0
H6496 H 0.17947 0.61873 0.12808 0.0
H6497 H 0.21678 0.60556 0.1036 0.0
H6498 H 0.20974 0.59638 0.11337 0.0
H6499 H 0.21912 0.60703 0.11842 0.0
C6500 C 0.18661 0.58813 0.14029 0.0
C6501 C 0.19482 0.58898 0.14871 0.0
C6502 C 0.18685 0.59534 0.13106 0.0
C6503 C 0.19539 0.60336 0.13002 0.0
C6504 C 0.20386 0.60387 0.13813 0.0
H6505 H 0.19537 0.66819 0.09831 0.0
H6506 H 0.19871 0.65208 0.11061 0.0
C6507 C 0.20358 0.59675 0.14739 0.0
C6508 C 0.19478 0.61207 0.12125 0.0
H6509 H 0.20906 0.62353 0.09926 0.0
C6510 C 0.18588 0.61972 0.12171 0.0
C6511 C 0.20317 0.61332 0.11299 0.0
C6512 C 0.21271 0.60509 0.11196 0.0
C6513 C 0.18529 0.62879 0.11429 0.0
C6514 C 0.19385 0.63025 0.10626 0.0
C6515 C 0.20261 0.62244 0.10557 0.0
C6516 C 0.19355 0.63974 0.09837 0.0
C6517 C 0.17554 0.63681 0.11508 0.0
C6518 C 0.1899 0.63803 0.08735 0.0
C6519 C 0.18792 0.64717 0.08034 0.0
C6520 C 0.18963 0.65819 0.08423 0.0
C6521 C 0.19397 0.65982 0.09507 0.0
C6522 C 0.19586 0.65065 0.1021 0.0
H6523 H 0.16884 0.63365 0.12072 0.0
H6524 H 0.17853 0.64498 0.11839 0.0
H6525 H 0.1719 0.63832 0.10665 0.0
H6526 H 0.18808 0.62964 0.08436 0.0
H6527 H 0.18467 0.64562 0.07201 0.0
H6528 H 0.94232 0.1477 0.29667 0.0
H6529 H 0.96128 0.14195 0.30197 0.0
H6530 H 0.9636 0.17034 0.32431 0.0
H6531 H 0.94461 0.17579 0.31945 0.0
H6532 H 0.97815 0.15415 0.29671 0.0
H6533 H 0.98061 0.14832 0.34237 0.0
H6534 H 0.96737 0.1486 0.33503 0.0
H6535 H 0.974 0.16147 0.33944 0.0
C6536 C 0.94676 0.1525 0.30297 0.0
C6537 C 0.94203 0.16226 0.30755 0.0
C6538 C 0.95758 0.14919 0.30602 0.0
C6539 C 0.96386 0.15564 0.31363 0.0
C6540 C 0.95886 0.16501 0.31868 0.0
H6541 H 0.02831 0.18115 0.31715 0.0
H6542 H 0.00924 0.17506 0.32151 0.0
C6543 C 0.94801 0.16822 0.31577 0.0
C6544 C 0.97614 0.15396 0.31465 0.0
H6545 H -0.00217 0.15519 0.33332 0.0
C6546 C 0.98243 0.15402 0.30472 0.0
C6547 C 0.98176 0.15385 0.32511 0.0
C6548 C 0.97554 0.15293 0.33606 0.0
C6549 C -0.00588 0.1548 0.30494 0.0
C6550 C -0.00031 0.15544 0.31538 0.0
C6551 C -0.0065 0.15476 0.32534 0.0
C6552 C 0.01177 0.15801 0.31585 0.0
C6553 C 0.00038 0.15565 0.29397 0.0
C6554 C 0.0196 0.15026 0.31181 0.0
C6555 C 0.03046 0.15373 0.30923 0.0
C6556 C 0.03362 0.16499 0.3107 0.0
C6557 C 0.0261 0.17244 0.31586 0.0
C6558 C 0.01521 0.16896 0.3184 0.0
H6559 H -0.00534 0.1565 0.28667 0.0
H6560 H 0.00614 0.16296 0.29408 0.0
H6561 H 0.00552 0.14799 0.29274 0.0
H6562 H 0.01708 0.14175 0.30987 0.0
H6563 H 0.03613 0.14776 0.30539 0.0
H6564 H 0.81885 0.03163 0.29805 0.0
H6565 H 0.82457 0.01221 0.30124 0.0
H6566 H 0.79275 0.00532 0.31684 0.0
H6567 H 0.78694 0.02475 0.31374 0.0
H6568 H 0.81389 -0.00596 0.32661 0.0
H6569 H 0.80676 -0.0108 0.28065 0.0
H6570 H 0.81585 0.00033 0.28523 0.0
H6571 H 0.80118 0.0009 0.28844 0.0
C6572 C 0.81316 0.02606 0.3024 0.0
C6573 C 0.80236 0.02966 0.30549 0.0
C6574 C 0.81646 0.01499 0.30423 0.0
C6575 C 0.80903 0.00737 0.30916 0.0
C6576 C 0.79859 0.01113 0.31303 0.0
H6577 H 0.794 0.93923 0.31681 0.0
H6578 H 0.79875 0.95872 0.32037 0.0
C6579 C 0.79527 0.02221 0.31122 0.0
C6580 C 0.81139 -0.00477 0.30878 0.0
H6581 H 0.81083 0.97304 0.29082 0.0
C6582 C 0.81339 -0.01059 0.31879 0.0
C6583 C 0.81079 -0.0107 0.29854 0.0
C6584 C 0.80847 -0.00481 0.28758 0.0
C6585 C 0.81454 0.97769 0.31884 0.0
C6586 C 0.81334 0.97169 0.30866 0.0
C6587 C 0.81182 0.97762 0.29862 0.0
C6588 C 0.81223 0.95932 0.30823 0.0
C6589 C 0.81692 0.97188 0.3298 0.0
C6590 C 0.81826 0.95308 0.30026 0.0
C6591 C 0.81536 0.94195 0.29801 0.0
C6592 C 0.80642 0.93688 0.30373 0.0
C6593 C 0.80094 0.94289 0.31226 0.0
C6594 C 0.80374 0.95403 0.31441 0.0
H6595 H 0.82188 0.97735 0.33547 0.0
H6596 H 0.80888 0.97001 0.33407 0.0
H6597 H 0.82154 0.9639 0.32852 0.0
H6598 H 0.82481 0.957 0.29536 0.0
H6599 H 0.81976 0.93751 0.29143 0.0
H6600 H 0.03448 0.8124 0.31888 0.0
H6601 H 0.01582 0.81703 0.32615 0.0
H6602 H 0.00166 0.8105 0.29347 0.0
H6603 H 0.02026 0.80676 0.28608 0.0
H6604 H -0.00891 0.82686 0.30246 0.0
H6605 H -0.00542 0.79342 0.33484 0.0
H6606 H 0.00412 0.80493 0.33622 0.0
H6607 H 0.00529 0.79553 0.32446 0.0
C6608 C 0.02736 0.81216 0.31325 0.0
C6609 C 0.02875 0.80914 0.30195 0.0
C6610 C 0.0167 0.8147 0.31743 0.0
C6611 C 0.00725 0.81379 0.31047 0.0
C6612 C 0.00878 0.81126 0.29906 0.0
H6613 H 0.94658 0.78401 0.31302 0.0
H6614 H 0.96539 0.79082 0.31677 0.0
C6615 C 0.01943 0.80909 0.29482 0.0
C6616 C -0.00436 0.81464 0.31489 0.0
H6617 H 0.97694 0.80096 0.33163 0.0
C6618 C -0.01202 0.82129 0.30893 0.0
C6619 C -0.00837 0.8075 0.32349 0.0
C6620 C -0.00071 0.79988 0.33009 0.0
C6621 C 0.97639 0.82 0.3103 0.0
C6622 C 0.97234 0.81232 0.31842 0.0
C6623 C 0.98005 0.80673 0.32534 0.0
C6624 C 0.96056 0.80829 0.31835 0.0
C6625 C 0.96872 0.82608 0.30227 0.0
C6626 C 0.95141 0.81571 0.31854 0.0
C6627 C 0.94065 0.81184 0.31596 0.0
C6628 C 0.93882 0.80042 0.31369 0.0
C6629 C 0.94775 0.79286 0.31473 0.0
C6630 C 0.95853 0.79677 0.3169 0.0
H6631 H 0.97338 0.82998 0.29522 0.0
H6632 H 0.96242 0.82026 0.29866 0.0
H6633 H 0.96426 0.83286 0.30679 0.0
H6634 H 0.95266 0.82455 0.3201 0.0
H6635 H 0.93383 0.81781 0.31537 0.0
H6636 H 0.1825 0.93943 0.32032 0.0
H6637 H 0.17982 0.95862 0.32707 0.0
H6638 H 0.15309 0.96325 0.30317 0.0
H6639 H 0.15546 0.94407 0.29668 0.0
H6640 H 0.1839 0.97562 0.31402 0.0
H6641 H 0.14053 0.98042 0.32893 0.0
H6642 H 0.14697 0.96682 0.32715 0.0
H6643 H 0.14053 0.97385 0.31542 0.0
C6644 C 0.17584 0.94444 0.31674 0.0
C6645 C 0.16926 0.94029 0.30789 0.0
C6646 C 0.17429 0.95539 0.32063 0.0
C6647 C 0.16617 0.96236 0.31572 0.0
C6648 C 0.15919 0.95798 0.30732 0.0
H6649 H 0.15887 0.0273 0.29273 0.0
H6650 H 0.15628 0.00809 0.29934 0.0
C6651 C 0.16065 0.94702 0.30351 0.0
C6652 C 0.16628 0.9746 0.31782 0.0
H6653 H 0.14906 -0.00272 0.32075 0.0
C6654 C 0.17635 0.98035 0.31584 0.0
C6655 C 0.15643 0.98077 0.32017 0.0
C6656 C 0.14555 0.9751 0.32315 0.0
C6657 C 0.17666 -0.00794 0.31527 0.0
C6658 C 0.16664 -0.00181 0.31683 0.0
C6659 C 0.1567 -0.00748 0.3195 0.0
C6660 C 0.1662 0.0103 0.31435 0.0
C6661 C 0.18754 -0.00225 0.31222 0.0
C6662 C 0.17224 0.01797 0.32088 0.0
C6663 C 0.17379 0.02894 0.31709 0.0
C6664 C 0.1693 0.03236 0.30674 0.0
C6665 C 0.1625 0.02489 0.30069 0.0
C6666 C 0.16097 0.01393 0.30448 0.0
H6667 H 0.19416 -0.00835 0.30981 0.0
H6668 H 0.18624 0.00365 0.30514 0.0
H6669 H 0.19061 0.00265 0.3195 0.0
H6670 H 0.17626 0.01532 0.32857 0.0
H6671 H 0.17898 0.03454 0.322 0.0
H6672 H 0.93557 0.80965 0.64576 0.0
H6673 H 0.95406 0.81437 0.63826 0.0
H6674 H 0.96402 0.8269 0.67068 0.0
H6675 H 0.94552 0.82251 0.67815 0.0
H6676 H 0.97435 0.83834 0.65219 0.0
H6677 H 0.97745 0.79173 0.64917 0.0
H6678 H 0.9667 0.79848 0.6411 0.0
H6679 H 0.96589 0.79848 0.65614 0.0
C6680 C 0.9416 0.8137 0.6512 0.0
C6681 C 0.93921 0.81546 0.66261 0.0
C6682 C 0.95214 0.8164 0.6469 0.0
C6683 C 0.96046 0.82072 0.65399 0.0
C6684 C 0.95771 0.82352 0.66508 0.0
H6685 H 0.02518 0.8215 0.67514 0.0
H6686 H 0.00701 0.82761 0.66823 0.0
C6687 C 0.94715 0.82095 0.66936 0.0
C6688 C 0.97239 0.82045 0.65071 0.0
H6689 H -0.00609 0.80189 0.64818 0.0
C6690 C 0.97864 0.83041 0.65103 0.0
C6691 C 0.97795 0.81009 0.64911 0.0
C6692 C 0.97172 0.79906 0.64891 0.0
C6693 C -0.0096 0.8302 0.65051 0.0
C6694 C -0.00403 0.81974 0.64993 0.0
C6695 C -0.01034 0.80991 0.64864 0.0
C6696 C 0.00804 0.81843 0.65257 0.0
C6697 C -0.00331 0.84114 0.65097 0.0
C6698 C 0.01479 0.8113 0.64606 0.0
C6699 C 0.02508 0.80752 0.65018 0.0
C6700 C 0.02882 0.8109 0.66082 0.0
C6701 C 0.02251 0.81875 0.66691 0.0
C6702 C 0.01215 0.82238 0.66287 0.0
H6703 H -0.00804 0.84784 0.64657 0.0
H6704 H -0.00236 0.84377 0.65984 0.0
H6705 H 0.00514 0.84041 0.64714 0.0
H6706 H 0.01178 0.8081 0.63812 0.0
H6707 H 0.02984 0.80156 0.64526 0.0
H6708 H 0.16585 0.93915 0.64533 0.0
H6709 H 0.16327 0.9583 0.63848 0.0
H6710 H 0.14706 0.96728 0.6695 0.0
H6711 H 0.14946 0.94814 0.67636 0.0
H6712 H 0.13864 0.97882 0.64904 0.0
H6713 H 0.185 0.98019 0.65497 0.0
H6714 H 0.17948 0.9697 0.64567 0.0
H6715 H 0.1766 0.96888 0.66041 0.0
C6716 C 0.16145 0.94511 0.65057 0.0
C6717 C 0.15808 0.94222 0.66149 0.0
C6718 C 0.15997 0.95604 0.64663 0.0
C6719 C 0.15516 0.96421 0.65358 0.0
C6720 C 0.15081 0.96107 0.66403 0.0
H6721 H 0.15251 0.03073 0.67264 0.0
H6722 H 0.14748 0.01213 0.66604 0.0
C6723 C 0.15224 0.95014 0.66796 0.0
C6724 C 0.15639 0.97624 0.65096 0.0
H6725 H 0.17585 -0.00291 0.65191 0.0
C6726 C 0.14678 0.98284 0.64943 0.0
C6727 C 0.16704 0.98142 0.65141 0.0
C6728 C 0.17764 0.97475 0.65326 0.0
C6729 C 0.14752 -0.00542 0.64883 0.0
C6730 C 0.1581 -0.0002 0.6501 0.0
C6731 C 0.16774 -0.00688 0.65091 0.0
C6732 C 0.15937 0.01197 0.65232 0.0
C6733 C 0.13694 0.00125 0.64708 0.0
C6734 C 0.1677 0.01818 0.64679 0.0
C6735 C 0.17081 0.02876 0.65076 0.0
C6736 C 0.16558 0.03332 0.66028 0.0
C6737 C 0.15669 0.02745 0.66528 0.0
C6738 C 0.1537 0.01683 0.66141 0.0
H6739 H 0.13091 -0.00345 0.64176 0.0
H6740 H 0.13285 0.00272 0.6553 0.0
H6741 H 0.13866 0.00948 0.64309 0.0
H6742 H 0.17223 0.01458 0.6398 0.0
H6743 H 0.17764 0.03314 0.64669 0.0
H6744 H 0.93642 0.14402 0.6671 0.0
H6745 H 0.9551 0.13693 0.66252 0.0
H6746 H 0.96361 0.16882 0.64784 0.0
H6747 H 0.94491 0.17593 0.65222 0.0
H6748 H 0.9737 0.14879 0.63696 0.0
H6749 H 0.97926 0.15102 0.68335 0.0
H6750 H 0.96806 0.14243 0.67811 0.0
H6751 H 0.96744 0.15737 0.67642 0.0
C6752 C 0.94217 0.14943 0.66265 0.0
C6753 C 0.9393 0.16061 0.66023 0.0
C6754 C 0.95282 0.14535 0.66001 0.0
C6755 C 0.96074 0.15242 0.65501 0.0
C6756 C 0.95758 0.16325 0.6517 0.0
H6757 H 0.02685 0.17046 0.64862 0.0
H6758 H 0.00806 0.1641 0.64403 0.0
C6759 C 0.94691 0.16732 0.65427 0.0
C6760 C 0.97273 0.14938 0.65497 0.0
H6761 H -0.00485 0.14816 0.67255 0.0
C6762 C 0.97841 0.14842 0.64473 0.0
C6763 C 0.97881 0.14881 0.66513 0.0
C6764 C 0.97315 0.15002 0.6764 0.0
C6765 C -0.00986 0.14742 0.64438 0.0
C6766 C -0.00372 0.14769 0.65453 0.0
C6767 C -0.00952 0.14791 0.66476 0.0
C6768 C 0.00855 0.14958 0.65493 0.0
C6769 C -0.0042 0.14633 0.63314 0.0
C6770 C 0.01524 0.14346 0.66244 0.0
C6771 C 0.02591 0.1473 0.66534 0.0
C6772 C 0.0301 0.15726 0.66067 0.0
C6773 C 0.02384 0.16277 0.65236 0.0
C6774 C 0.01311 0.15904 0.64961 0.0
H6775 H -0.00953 0.14153 0.6272 0.0
H6776 H -0.00294 0.1548 0.62953 0.0
H6777 H 0.00407 0.14211 0.63384 0.0
H6778 H 0.0119 0.13615 0.66666 0.0
H6779 H 0.03061 0.14283 0.67169 0.0
H6780 H 0.82089 0.93231 0.66579 0.0
H6781 H 0.82862 0.9507 0.66113 0.0
H6782 H 0.79652 0.96096 0.6481 0.0
H6783 H 0.78875 0.94254 0.65259 0.0
H6784 H 0.81686 0.97049 0.63667 0.0
H6785 H 0.81602 0.97481 0.68325 0.0
H6786 H 0.8239 0.96337 0.6774 0.0
H6787 H 0.80891 0.96352 0.67617 0.0
C6788 C 0.81555 0.93837 0.66165 0.0
C6789 C 0.80414 0.93609 0.65978 0.0
C6790 C 0.82 0.94885 0.65896 0.0
C6791 C 0.81308 0.9572 0.65445 0.0
C6792 C 0.80199 0.95459 0.65158 0.0
H6793 H 0.79709 0.02388 0.64982 0.0
H6794 H 0.80284 0.005 0.64484 0.0
C6795 C 0.79754 0.94409 0.65421 0.0
C6796 C 0.81661 0.96905 0.65465 0.0
H6797 H 0.81896 -0.00907 0.67282 0.0
C6798 C 0.81756 0.97497 0.64455 0.0
C6799 C 0.81763 0.97482 0.66496 0.0
C6800 C 0.81652 0.96887 0.67609 0.0
C6801 C 0.81896 -0.01333 0.64451 0.0
C6802 C 0.81907 -0.00746 0.65483 0.0
C6803 C 0.8189 -0.01353 0.6649 0.0
C6804 C 0.81748 0.00485 0.65559 0.0
C6805 C 0.82005 -0.0074 0.63341 0.0
C6806 C 0.82384 0.01121 0.66322 0.0
C6807 C 0.82033 0.02194 0.66636 0.0
C6808 C 0.81049 0.02653 0.66182 0.0
C6809 C 0.80472 0.02057 0.65347 0.0
C6810 C 0.8081 0.00978 0.65048 0.0
H6811 H 0.82466 -0.0127 0.62729 0.0
H6812 H 0.81158 -0.00585 0.62992 0.0
H6813 H 0.82448 0.00074 0.63427 0.0
H6814 H 0.83109 0.00758 0.66729 0.0
H6815 H 0.82501 0.0264 0.67274 0.0
H6816 H 0.29592 0.95162 0.15514 0.0
H6817 H 0.30497 0.9691 0.15035 0.0
H6818 H 0.33743 0.95383 0.15517 0.0
H6819 H 0.32823 0.93632 0.16076 0.0
H6820 H 0.33807 0.97176 0.16522 0.0
H6821 H 0.31973 0.98367 0.12534 0.0
H6822 H 0.3079 0.97999 0.13371 0.0
H6823 H 0.3184 0.96951 0.13048 0.0
C6824 C 0.30499 0.95188 0.15494 0.0
C6825 C 0.31136 0.94263 0.15838 0.0
C6826 C 0.3102 0.96189 0.15202 0.0
C6827 C 0.32195 0.96281 0.15208 0.0
C6828 C 0.32837 0.95335 0.15496 0.0
H6829 H 0.32146 0.03469 0.14925 0.0
H6830 H 0.32974 0.01699 0.14289 0.0
C6831 C 0.32311 0.94336 0.15817 0.0
C6832 C 0.32713 0.97409 0.15096 0.0
H6833 H 0.32036 -0.00061 0.13979 0.0
C6834 C 0.33451 0.97775 0.15938 0.0
C6835 C 0.32321 0.98196 0.143 0.0
C6836 C 0.317 0.97847 0.13256 0.0
C6837 C 0.3365 -0.0108 0.16111 0.0
C6838 C 0.33043 -0.00286 0.1547 0.0
C6839 C 0.32462 -0.00658 0.14515 0.0
C6840 C 0.32812 0.00865 0.15895 0.0
C6841 C 0.34466 -0.00738 0.17014 0.0
C6842 C 0.32476 0.01007 0.17017 0.0
C6843 C 0.3204 0.02025 0.17386 0.0
C6844 C 0.31885 0.02912 0.16632 0.0
C6845 C 0.32254 0.02792 0.15521 0.0
C6846 C 0.32726 0.01781 0.15159 0.0
H6847 H 0.35223 -0.01279 0.1698 0.0
H6848 H 0.34729 0.0015 0.1693 0.0
H6849 H 0.34078 -0.00867 0.17849 0.0
H6850 H 0.32479 0.00311 0.17597 0.0
H6851 H 0.31751 0.0209 0.18244 0.0
H6852 H 0.93669 0.29971 0.14384 0.0
H6853 H 0.95534 0.30274 0.1359 0.0
H6854 H 0.96512 0.32075 0.16568 0.0
H6855 H 0.94649 0.3179 0.17363 0.0
H6856 H 0.975 0.32885 0.14426 0.0
H6857 H 0.97925 0.28286 0.15179 0.0
H6858 H 0.96806 0.2876 0.14288 0.0
H6859 H 0.96777 0.29081 0.15758 0.0
C6860 C 0.94272 0.30457 0.14858 0.0
C6861 C 0.94022 0.30836 0.15946 0.0
C6862 C 0.95335 0.30631 0.14401 0.0
C6863 C 0.96162 0.31181 0.15029 0.0
C6864 C 0.95883 0.31648 0.16071 0.0
H6865 H 0.02634 0.31972 0.1696 0.0
H6866 H 0.00794 0.32321 0.16169 0.0
C6867 C 0.9482 0.31478 0.16527 0.0
C6868 C 0.97354 0.31109 0.14707 0.0
H6869 H -0.00448 0.29296 0.14859 0.0
C6870 C 0.9795 0.32098 0.14493 0.0
C6871 C 0.97935 0.30078 0.14781 0.0
C6872 C 0.97335 0.28988 0.15018 0.0
C6873 C -0.00875 0.32093 0.14421 0.0
C6874 C -0.00289 0.31077 0.14604 0.0
C6875 C -0.00895 0.30076 0.14722 0.0
C6876 C 0.00923 0.31046 0.1488 0.0
C6877 C -0.00277 0.3318 0.14187 0.0
C6878 C 0.01622 0.30218 0.14417 0.0
C6879 C 0.02669 0.29994 0.14892 0.0
C6880 C 0.03036 0.30601 0.15833 0.0
C6881 C 0.02375 0.31488 0.16237 0.0
C6882 C 0.01324 0.317 0.15772 0.0
H6883 H -0.00772 0.33706 0.136 0.0
H6884 H -0.00188 0.33659 0.1498 0.0
H6885 H 0.00568 0.33038 0.13825 0.0
H6886 H 0.01328 0.29698 0.13732 0.0
H6887 H 0.03166 0.29311 0.14558 0.0
H6888 H 0.65873 0.93718 0.14614 0.0
H6889 H 0.65225 0.9551 0.13854 0.0
H6890 H 0.64261 0.96572 0.17173 0.0
H6891 H 0.64872 0.94774 0.17932 0.0
H6892 H 0.62886 0.97488 0.15409 0.0
H6893 H 0.67473 0.97981 0.14637 0.0
H6894 H 0.66772 0.96849 0.13937 0.0
H6895 H 0.66925 0.96824 0.15435 0.0
C6896 C 0.65494 0.94322 0.15177 0.0
C6897 C 0.65448 0.9412 0.16337 0.0
C6898 C 0.65122 0.95343 0.1474 0.0
C6899 C 0.6472 0.9618 0.15462 0.0
C6900 C 0.64571 0.95936 0.16602 0.0
H6901 H 0.64614 0.02651 0.17439 0.0
H6902 H 0.63933 0.00842 0.16797 0.0
C6903 C 0.64928 0.94911 0.17037 0.0
C6904 C 0.64658 0.97361 0.15093 0.0
H6905 H 0.6638 -0.00424 0.1459 0.0
C6906 C 0.63643 0.97946 0.15202 0.0
C6907 C 0.65646 0.97953 0.14812 0.0
C6908 C 0.66768 0.97376 0.14703 0.0
C6909 C 0.63605 -0.00881 0.1511 0.0
C6910 C 0.64613 -0.00282 0.14934 0.0
C6911 C 0.65606 -0.00879 0.14726 0.0
C6912 C 0.64723 0.00936 0.15164 0.0
C6913 C 0.62494 -0.00295 0.15242 0.0
C6914 C 0.65374 0.01613 0.14454 0.0
C6915 C 0.65799 0.02634 0.14838 0.0
C6916 C 0.65561 0.03003 0.15931 0.0
C6917 C 0.64812 0.02386 0.16593 0.0
C6918 C 0.64408 0.01354 0.16219 0.0
H6919 H 0.61811 -0.00804 0.14864 0.0
H6920 H 0.62302 -0.00201 0.16147 0.0
H6921 H 0.62496 0.00546 0.14845 0.0
H6922 H 0.65628 0.0131 0.13636 0.0
H6923 H 0.66363 0.03103 0.14305 0.0
H6924 H 0.93212 0.65264 0.15015 0.0
H6925 H 0.9505 0.64542 0.14441 0.0
H6926 H 0.9653 0.67754 0.15222 0.0
H6927 H 0.94695 0.68493 0.15698 0.0
H6928 H 0.97572 0.6692 0.13559 0.0
H6929 H 0.97169 0.63501 0.16716 0.0
H6930 H 0.9622 0.63451 0.15553 0.0
H6931 H 0.96112 0.64564 0.16568 0.0
C6932 C 0.93931 0.65817 0.15038 0.0
C6933 C 0.93818 0.66929 0.15412 0.0
C6934 C 0.94982 0.65402 0.14722 0.0
C6935 C 0.9594 0.66079 0.14824 0.0
C6936 C 0.95809 0.67209 0.15136 0.0
H6937 H 0.01818 0.65684 0.17996 0.0
H6938 H -0.00014 0.65357 0.1718 0.0
C6939 C 0.94758 0.67633 0.15413 0.0
C6940 C 0.97094 0.65622 0.14713 0.0
H6941 H -0.01058 0.63887 0.16039 0.0
C6942 C 0.97873 0.66247 0.14091 0.0
C6943 C 0.97484 0.64725 0.15388 0.0
C6944 C 0.96707 0.64024 0.16099 0.0
C6945 C -0.0097 0.66112 0.14246 0.0
C6946 C -0.0058 0.65273 0.14992 0.0
C6947 C -0.01359 0.64542 0.15485 0.0
C6948 C 0.00575 0.65291 0.1546 0.0
C6949 C -0.00192 0.66944 0.13695 0.0
C6950 C 0.01533 0.65322 0.14776 0.0
C6951 C 0.02584 0.65553 0.15244 0.0
C6952 C 0.02696 0.65706 0.16407 0.0
C6953 C 0.01757 0.6557 0.17097 0.0
C6954 C 0.00706 0.65379 0.16628 0.0
H6955 H -0.00653 0.67652 0.13302 0.0
H6956 H 0.00404 0.67299 0.14315 0.0
H6957 H 0.00293 0.66518 0.13027 0.0
H6958 H 0.01464 0.65212 0.13879 0.0
H6959 H 0.03302 0.65638 0.14697 0.0
H6960 H 0.29727 0.94264 0.81441 0.0
H6961 H 0.30461 0.96109 0.81906 0.0
H6962 H 0.33287 0.95546 0.79722 0.0
H6963 H 0.32523 0.93707 0.79209 0.0
H6964 H 0.32345 0.97055 0.82754 0.0
H6965 H 0.31828 0.98189 0.78247 0.0
H6966 H 0.31334 0.96875 0.78797 0.0
H6967 H 0.32805 0.97087 0.78548 0.0
C6968 C 0.30513 0.94525 0.81069 0.0
C6969 C 0.31055 0.93853 0.80268 0.0
C6970 C 0.30936 0.95578 0.81342 0.0
C6971 C 0.31915 0.95976 0.80829 0.0
C6972 C 0.32513 0.95267 0.80104 0.0
H6973 H 0.32493 0.03196 0.8018 0.0
H6974 H 0.333 0.01333 0.80451 0.0
C6975 C 0.32078 0.94217 0.79814 0.0
C6976 C 0.32207 0.97176 0.80956 0.0
H6977 H 0.3212 -0.00364 0.79507 0.0
C6978 C 0.32321 0.9762 0.82042 0.0
C6979 C 0.32182 0.97913 0.80026 0.0
C6980 C 0.32023 0.97498 0.78839 0.0
C6981 C 0.32328 -0.01218 0.82228 0.0
C6982 C 0.32217 -0.00487 0.81304 0.0
C6983 C 0.32206 -0.00929 0.80214 0.0
C6984 C 0.31913 0.00708 0.81434 0.0
C6985 C 0.32405 -0.00783 0.83412 0.0
C6986 C 0.30886 0.00987 0.81935 0.0
C6987 C 0.30419 0.02048 0.81777 0.0
C6988 C 0.30969 0.02844 0.81108 0.0
C6989 C 0.32044 0.02597 0.80692 0.0
C6990 C 0.3251 0.01535 0.8085 0.0
H6991 H 0.32882 -0.01371 0.83953 0.0
H6992 H 0.3281 0.00054 0.83441 0.0
H6993 H 0.31548 -0.00707 0.83764 0.0
H6994 H 0.30399 0.00356 0.82369 0.0
H6995 H 0.29592 0.02215 0.82112 0.0
H6996 H 0.94353 0.31738 0.79508 0.0
H6997 H 0.96259 0.32031 0.80176 0.0
H6998 H 0.95598 0.2992 0.83034 0.0
H6999 H 0.93694 0.29583 0.82342 0.0
H7000 H 0.974 0.32744 0.8205 0.0
H7001 H 0.97952 0.28149 0.81372 0.0
H7002 H 0.96698 0.28874 0.8095 0.0
H7003 H 0.96933 0.28549 0.82403 0.0
C7004 C 0.94604 0.31353 0.8029 0.0
C7005 C 0.93885 0.30615 0.80858 0.0
C7006 C 0.95694 0.31526 0.80674 0.0
C7007 C 0.96078 0.30973 0.81638 0.0
C7008 C 0.95325 0.3033 0.82271 0.0
H7009 H 0.03214 0.29508 0.82132 0.0
H7010 H 0.01348 0.29893 0.82887 0.0
C7011 C 0.94239 0.3014 0.81877 0.0
C7012 C 0.97296 0.30949 0.81869 0.0
H7013 H -0.00447 0.29208 0.81674 0.0
C7014 C 0.97872 0.31969 0.81992 0.0
C7015 C 0.9791 0.29935 0.81793 0.0
C7016 C 0.97347 0.28815 0.81614 0.0
C7017 C -0.00953 0.32007 0.81977 0.0
C7018 C -0.00345 0.31002 0.81828 0.0
C7019 C -0.00918 0.29977 0.81791 0.0
C7020 C 0.00857 0.3099 0.81531 0.0
C7021 C -0.00374 0.33125 0.8208 0.0
C7022 C 0.01207 0.315 0.80531 0.0
C7023 C 0.02267 0.31277 0.80094 0.0
C7024 C 0.02994 0.30533 0.80646 0.0
C7025 C 0.0267 0.3008 0.81684 0.0
C7026 C 0.01607 0.30303 0.8212 0.0
H7027 H -0.00886 0.33724 0.82577 0.0
H7028 H 0.00462 0.33039 0.8248 0.0
H7029 H -0.00259 0.33487 0.81232 0.0
H7030 H 0.00633 0.32011 0.80047 0.0
H7031 H 0.02495 0.31641 0.79294 0.0
H7032 H 0.68337 0.95071 0.81449 0.0
H7033 H 0.67723 0.96947 0.81929 0.0
H7034 H 0.64307 0.95779 0.82178 0.0
H7035 H 0.64919 0.93903 0.81608 0.0
H7036 H 0.64246 0.9745 0.81002 0.0
H7037 H 0.66891 -0.01219 0.84477 0.0
H7038 H 0.67844 0.98244 0.83456 0.0
H7039 H 0.66812 0.97324 0.84079 0.0
C7040 C 0.67459 0.95206 0.81635 0.0
C7041 C 0.66674 0.94345 0.81485 0.0
C7042 C 0.67107 0.96282 0.81926 0.0
C7043 C 0.65967 0.96512 0.82116 0.0
C7044 C 0.65191 0.95628 0.8204 0.0
H7045 H 0.65993 0.03821 0.82082 0.0
H7046 H 0.65461 0.02001 0.82872 0.0
C7047 C 0.6554 0.94556 0.81715 0.0
C7048 C 0.65587 0.97697 0.82195 0.0
H7049 H 0.66578 0.00252 0.82993 0.0
C7050 C 0.64733 0.98059 0.81469 0.0
C7051 C 0.66173 0.98506 0.82837 0.0
C7052 C 0.66969 0.98186 0.83765 0.0
C7053 C 0.64556 -0.00799 0.81262 0.0
C7054 C 0.65291 -3e-05 0.81744 0.0
C7055 C 0.6604 -0.00355 0.82582 0.0
C7056 C 0.65421 0.01142 0.81272 0.0
C7057 C 0.63609 -0.00466 0.80493 0.0
C7058 C 0.6556 0.01274 0.80109 0.0
C7059 C 0.65835 0.02315 0.79657 0.0
C7060 C 0.66015 0.03239 0.80361 0.0
C7061 C 0.65859 0.03119 0.81522 0.0
C7062 C 0.65556 0.0208 0.81973 0.0
H7063 H 0.62866 -0.01007 0.80642 0.0
H7064 H 0.63359 0.00423 0.80613 0.0
H7065 H 0.63868 -0.00595 0.79609 0.0
H7066 H 0.65512 0.00562 0.7955 0.0
H7067 H 0.65965 0.02379 0.78761 0.0
H7068 H 0.03374 0.65462 0.81602 0.0
H7069 H 0.01427 0.6496 0.82022 0.0
H7070 H 0.00419 0.68373 0.81364 0.0
H7071 H 0.02362 0.68889 0.81032 0.0
H7072 H -0.00865 0.67556 0.82881 0.0
H7073 H -0.00572 0.64397 0.79456 0.0
H7074 H 0.00293 0.64119 0.80651 0.0
H7075 H 0.00569 0.65324 0.79786 0.0
C7076 C 0.02737 0.66108 0.81579 0.0
C7077 C 0.03012 0.6721 0.81271 0.0
C7078 C 0.01624 0.65818 0.81805 0.0
C7079 C 0.00768 0.66618 0.81681 0.0
C7080 C 0.0106 0.67737 0.81458 0.0
H7081 H 0.94613 0.66593 0.78517 0.0
H7082 H 0.96518 0.66311 0.79188 0.0
C7083 C 0.02173 0.68033 0.81267 0.0
C7084 C -0.00434 0.66294 0.81667 0.0
H7085 H 0.97657 0.64771 0.80174 0.0
C7086 C -0.0119 0.66939 0.82297 0.0
C7087 C -0.00856 0.65484 0.80905 0.0
C7088 C -0.00103 0.64797 0.80154 0.0
C7089 C 0.9765 0.66871 0.82119 0.0
C7090 C 0.97231 0.66088 0.81329 0.0
C7091 C 0.97982 0.65373 0.80774 0.0
C7092 C 0.96051 0.66116 0.80934 0.0
C7093 C 0.96902 0.67702 0.82712 0.0
C7094 C 0.95145 0.6606 0.81682 0.0
C7095 C 0.94054 0.66255 0.81301 0.0
C7096 C 0.9385 0.66466 0.8016 0.0
C7097 C 0.94746 0.6643 0.79401 0.0
C7098 C 0.95836 0.66268 0.79785 0.0
H7099 H 0.97387 0.68399 0.83096 0.0
H7100 H 0.96281 0.6807 0.82125 0.0
H7101 H 0.96443 0.6727 0.83394 0.0
H7102 H 0.95283 0.65902 0.82564 0.0
H7103 H 0.93373 0.66265 0.819 0.0
H7104 H 0.14567 0.3017 0.0361 0.0
H7105 H 0.13848 0.30606 0.01739 0.0
H7106 H 0.17005 0.32134 0.0088 0.0
H7107 H 0.17723 0.31723 0.02752 0.0
H7108 H 0.15035 0.33161 -0.00163 0.0
H7109 H 0.15258 0.28512 -0.00637 0.0
H7110 H 0.14377 0.29056 0.00456 0.0
H7111 H 0.1587 0.29223 0.00547 0.0
C7112 C 0.15097 0.30626 0.03032 0.0
C7113 C 0.1621 0.3089 0.03317 0.0
C7114 C 0.14684 0.30875 0.01966 0.0
C7115 C 0.15382 0.31381 0.01169 0.0
C7116 C 0.16455 0.31741 0.01486 0.0
H7117 H 0.17344 0.31938 0.94604 0.0
H7118 H 0.16674 0.32386 0.96474 0.0
C7119 C 0.16866 0.31499 0.02554 0.0
C7120 C 0.15087 0.31362 -0.00033 0.0
H7121 H 0.1502 0.29565 0.97749 0.0
C7122 C 0.15006 0.32376 -0.00622 0.0
C7123 C 0.15042 0.30335 -0.00626 0.0
C7124 C 0.15147 0.29217 -0.00039 0.0
C7125 C 0.1494 0.32391 0.98203 0.0
C7126 C 0.14985 0.31365 0.97607 0.0
C7127 C 0.14984 0.30352 0.98204 0.0
C7128 C 0.15217 0.31306 0.96387 0.0
C7129 C 0.14852 0.33505 0.97613 0.0
C7130 C 0.14619 0.30555 0.95703 0.0
C7131 C 0.15021 0.30272 0.9464 0.0
C7132 C 0.16023 0.30743 0.94241 0.0
C7133 C 0.1657 0.31561 0.94888 0.0
C7134 C 0.16177 0.3183 0.95956 0.0
H7135 H 0.14359 0.34109 0.98123 0.0
H7136 H 0.15703 0.33862 0.97507 0.0
H7137 H 0.14454 0.33421 0.96776 0.0
H7138 H 0.13879 0.30137 0.96019 0.0
H7139 H 0.14577 0.29647 0.94154 0.0
H7140 H 0.13742 0.67378 0.03036 0.0
H7141 H 0.1303 0.66789 0.01205 0.0
H7142 H 0.15827 0.64521 0.00855 0.0
H7143 H 0.16506 0.65064 0.02693 0.0
H7144 H 0.14157 0.67314 -0.00515 0.0
H7145 H 0.13581 0.62767 -0.00822 0.0
H7146 H 0.13642 0.63472 0.00517 0.0
H7147 H 0.14909 0.63014 -0.00173 0.0
C7148 C 0.14181 0.66725 0.02583 0.0
C7149 C 0.15189 0.66281 0.02997 0.0
C7150 C 0.13771 0.66384 0.01539 0.0
C7151 C 0.1437 0.65605 0.00889 0.0
C7152 C 0.15329 0.65099 0.01346 0.0
H7153 H 0.17388 0.65142 0.9488 0.0
H7154 H 0.16458 0.64733 0.96655 0.0
C7155 C 0.15728 0.65424 0.02395 0.0
C7156 C 0.14163 0.65516 -0.00335 0.0
H7157 H 0.14406 0.63678 0.97484 0.0
C7158 C 0.14167 0.66517 -0.00953 0.0
C7159 C 0.14171 0.64479 -0.00911 0.0
C7160 C 0.14063 0.63375 -0.00307 0.0
C7161 C 0.14308 0.66512 0.97883 0.0
C7162 C 0.14432 0.65475 0.9732 0.0
C7163 C 0.14322 0.64471 0.97921 0.0
C7164 C 0.14864 0.65441 0.9616 0.0
C7165 C 0.14427 0.67621 0.97283 0.0
C7166 C 0.14256 0.6592 0.95277 0.0
C7167 C 0.14791 0.66171 0.94266 0.0
C7168 C 0.15936 0.65932 0.94124 0.0
C7169 C 0.16509 0.65346 0.94969 0.0
C7170 C 0.15976 0.65105 0.95981 0.0
H7171 H 0.14446 0.68343 0.97871 0.0
H7172 H 0.15207 0.67633 0.96777 0.0
H7173 H 0.13708 0.67739 0.96706 0.0
H7174 H 0.13392 0.66171 0.95396 0.0
H7175 H 0.14323 0.66607 0.93622 0.0
H7176 H 0.29415 0.14264 0.02935 0.0
H7177 H 0.29923 0.13572 0.01072 0.0
H7178 H 0.32264 0.16303 0.00706 0.0
H7179 H 0.31794 0.16969 0.02574 0.0
H7180 H 0.29421 0.14771 -0.00652 0.0
H7181 H 0.3394 0.13942 -0.00942 0.0
H7182 H 0.33227 0.14033 0.00391 0.0
H7183 H 0.3373 0.15282 -0.00298 0.0
C7184 C 0.30063 0.14695 0.02469 0.0
C7185 C 0.30553 0.15679 0.02892 0.0
C7186 C 0.30357 0.14296 0.01408 0.0
C7187 C 0.31139 0.14879 0.00749 0.0
C7188 C 0.31682 0.15818 0.01205 0.0
H7189 H 0.31842 0.17529 0.94493 0.0
H7190 H 0.32156 0.16729 0.96349 0.0
C7191 C 0.31401 0.16208 0.02271 0.0
C7192 C 0.31214 0.14664 -0.00472 0.0
H7193 H 0.33057 0.14695 0.97341 0.0
C7194 C 0.30215 0.14715 -0.0109 0.0
C7195 C 0.32248 0.14591 -0.01046 0.0
C7196 C 0.33344 0.14447 -0.00434 0.0
C7197 C 0.30225 0.14803 0.97741 0.0
C7198 C 0.31265 0.14823 0.97173 0.0
C7199 C 0.32262 0.14685 0.97781 0.0
C7200 C 0.31324 0.1516 0.95983 0.0
C7201 C 0.29126 0.1497 0.97134 0.0
C7202 C 0.30803 0.14518 0.95148 0.0
C7203 C 0.30608 0.14979 0.94089 0.0
C7204 C 0.30945 0.16083 0.93851 0.0
C7205 C 0.31564 0.1668 0.94655 0.0
C7206 C 0.3175 0.16222 0.95715 0.0
H7207 H 0.28413 0.15092 0.9772 0.0
H7208 H 0.29173 0.15709 0.96571 0.0
H7209 H 0.28944 0.14221 0.96613 0.0
H7210 H 0.30483 0.13689 0.95336 0.0
H7211 H 0.30143 0.14492 0.9348 0.0
H7212 H 0.82459 0.30341 0.03292 0.0
H7213 H 0.83025 0.3083 0.01386 0.0
H7214 H 0.79951 0.32687 0.00956 0.0
H7215 H 0.79408 0.32242 0.02869 0.0
H7216 H 0.8182 0.29962 -0.0019 0.0
H7217 H 0.81953 0.34501 -0.00999 0.0
H7218 H 0.82023 0.33934 0.00403 0.0
H7219 H 0.80688 0.34156 -0.0027 0.0
C7220 C 0.81926 0.30891 0.02804 0.0
C7221 C 0.80881 0.31238 0.03219 0.0
C7222 C 0.82252 0.31173 0.01717 0.0
C7223 C 0.81531 0.31795 0.01024 0.0
C7224 C 0.80535 0.32228 0.01477 0.0
H7225 H 0.78846 0.31473 0.94629 0.0
H7226 H 0.79502 0.32041 0.96486 0.0
C7227 C 0.80218 0.31962 0.02571 0.0
C7228 C 0.81679 0.31763 -0.00209 0.0
H7229 H 0.8135 0.33324 0.97416 0.0
C7230 C 0.81754 0.30702 -0.00713 0.0
C7231 C 0.81583 0.32726 -0.00893 0.0
C7232 C 0.81569 0.33893 -0.00408 0.0
C7233 C 0.81649 0.30567 0.98128 0.0
C7234 C 0.81484 0.31524 0.97449 0.0
C7235 C 0.81475 0.32593 0.97942 0.0
C7236 C 0.81183 0.31403 0.96254 0.0
C7237 C 0.81634 0.29393 0.9765 0.0
C7238 C 0.81926 0.30898 0.95497 0.0
C7239 C 0.81549 0.30557 0.94442 0.0
C7240 C 0.80427 0.30731 0.94127 0.0
C7241 C 0.79712 0.3132 0.94853 0.0
C7242 C 0.80087 0.31651 0.95911 0.0
H7243 H 0.81584 0.28742 0.98314 0.0
H7244 H 0.80911 0.29282 0.97074 0.0
H7245 H 0.82412 0.29247 0.97164 0.0
H7246 H 0.8278 0.30713 0.95744 0.0
H7247 H 0.82124 0.30119 0.93893 0.0
H7248 H 0.6766 0.81552 0.94238 0.0
H7249 H 0.67063 0.82006 0.96136 0.0
H7250 H 0.64215 0.7981 0.95772 0.0
H7251 H 0.64843 0.79305 0.93882 0.0
H7252 H 0.65277 0.82844 0.97224 0.0
H7253 H 0.65851 0.78336 0.98303 0.0
H7254 H 0.66248 0.78894 0.9696 0.0
H7255 H 0.64799 0.78615 0.97267 0.0
C7256 C 0.66897 0.81175 0.94555 0.0
C7257 C 0.66311 0.80373 0.93922 0.0
C7258 C 0.66554 0.81441 0.95639 0.0
C7259 C 0.65611 0.8092 0.96107 0.0
C7260 C 0.64964 0.80196 0.95439 0.0
H7261 H 0.6479 0.80278 0.03317 0.0
H7262 H 0.64152 0.80565 0.01394 0.0
C7263 C 0.65321 0.79912 0.94359 0.0
C7264 C 0.65398 0.81043 0.97325 0.0
H7265 H 0.65498 0.79569 -0.00229 0.0
C7266 C 0.65306 0.82126 0.97781 0.0
C7267 C 0.65441 0.80106 0.98052 0.0
C7268 C 0.65599 0.78923 0.97626 0.0
C7269 C 0.65307 0.823 -0.01054 0.0
C7270 C 0.65399 0.81367 -0.00334 0.0
C7271 C 0.6542 0.80283 -0.00788 0.0
C7272 C 0.65628 0.81479 0.00879 0.0
C7273 C 0.65244 0.83479 -0.00604 0.0
C7274 C 0.66652 0.81935 0.01236 0.0
C7275 C 0.67023 0.81766 0.02333 0.0
C7276 C 0.66378 0.81133 0.03086 0.0
C7277 C 0.6531 0.80763 0.02754 0.0
C7278 C 0.64941 0.8093 0.01656 0.0
H7279 H 0.64839 0.84054 -0.01213 0.0
H7280 H 0.64773 0.83507 0.00198 0.0
H7281 H 0.66106 0.83791 -0.00444 0.0
H7282 H 0.67204 0.82344 0.00643 0.0
H7283 H 0.67848 0.82064 0.02565 0.0
H7284 H 0.82103 0.6611 0.03799 0.0
H7285 H 0.82891 0.65623 0.01971 0.0
H7286 H 0.79654 0.64451 0.00879 0.0
H7287 H 0.78861 0.64919 0.0271 0.0
H7288 H 0.81672 0.63273 -0.00095 0.0
H7289 H 0.81705 0.67942 -0.00379 0.0
H7290 H 0.82467 0.67308 0.00754 0.0
H7291 H 0.80966 0.67218 0.00721 0.0
C7292 C 0.81566 0.65716 0.03181 0.0
C7293 C 0.80414 0.65577 0.03385 0.0
C7294 C 0.8202 0.65435 0.0214 0.0
C7295 C 0.81325 0.65021 0.01288 0.0
C7296 C 0.80203 0.64771 0.01528 0.0
H7297 H 0.7986 0.64804 0.94555 0.0
H7298 H 0.80374 0.64225 0.96437 0.0
C7299 C 0.79749 0.65044 0.02573 0.0
C7300 C 0.81691 0.65066 0.00107 0.0
H7301 H 0.8201 0.66942 0.97985 0.0
C7302 C 0.8177 0.64072 -0.00516 0.0
C7303 C 0.81827 0.66111 -0.00434 0.0
C7304 C 0.81732 0.67208 0.00193 0.0
C7305 C 0.81931 0.641 0.98317 0.0
C7306 C 0.81981 0.65149 0.97764 0.0
C7307 C 0.81975 0.66137 0.98404 0.0
C7308 C 0.81857 0.65268 0.96532 0.0
C7309 C 0.82025 0.63006 0.9769 0.0
C7310 C 0.82525 0.66038 0.95942 0.0
C7311 C 0.82209 0.664 0.94874 0.0
C7312 C 0.81229 0.65984 0.94373 0.0
C7313 C 0.8062 0.65139 0.9492 0.0
C7314 C 0.80924 0.64795 0.95995 0.0
H7315 H 0.82458 0.62365 0.9821 0.0
H7316 H 0.81172 0.62684 0.97507 0.0
H7317 H 0.82487 0.63104 0.96889 0.0
H7318 H 0.83249 0.66417 0.96339 0.0
H7319 H 0.82699 0.67045 0.94466 0.0
H7320 H 0.28303 0.80957 0.94837 0.0
H7321 H 0.28891 0.81276 0.9676 0.0
H7322 H 0.32347 0.81398 0.95698 0.0
H7323 H 0.3176 0.81007 0.93771 0.0
H7324 H 0.32232 0.80083 0.97329 0.0
H7325 H 0.29856 0.83781 -0.01352 0.0
H7326 H 0.28869 0.82818 0.98061 0.0
H7327 H 0.29965 0.83394 0.97189 0.0
C7328 C 0.29186 0.8108 0.95008 0.0
C7329 C 0.29986 0.80955 0.94157 0.0
C7330 C 0.29523 0.81274 0.9611 0.0
C7331 C 0.30665 0.81384 0.96378 0.0
C7332 C 0.31462 0.8132 0.95514 0.0
H7333 H 0.30871 0.81684 0.0368 0.0
H7334 H 0.31404 0.82264 0.01786 0.0
C7335 C 0.31126 0.81099 0.94414 0.0
C7336 C 0.31018 0.81404 0.97571 0.0
H7337 H 0.30147 0.82345 0.0012 0.0
C7338 C 0.31799 0.80602 0.97937 0.0
C7339 C 0.30492 0.82104 0.98372 0.0
C7340 C 0.29761 0.8308 0.98041 0.0
C7341 C 0.31978 0.80404 -0.00919 0.0
C7342 C 0.31321 0.80987 -0.00122 0.0
C7343 C 0.3063 0.8187 -0.00486 0.0
C7344 C 0.31223 0.80609 0.01059 0.0
C7345 C 0.3285 0.79552 -0.00584 0.0
C7346 C 0.30973 0.79481 0.01292 0.0
C7347 C 0.30699 0.79145 0.02376 0.0
C7348 C 0.30631 0.79936 0.03243 0.0
C7349 C 0.30916 0.81057 0.03023 0.0
C7350 C 0.31219 0.81389 0.01942 0.0
H7351 H 0.33575 0.79581 -0.01166 0.0
H7352 H 0.33158 0.79693 0.00283 0.0
H7353 H 0.32485 0.78699 -0.00642 0.0
H7354 H 0.30928 0.78868 0.00624 0.0
H7355 H 0.30469 0.78278 0.02519 0.0
H7356 H 0.67562 0.15371 0.03078 0.0
H7357 H 0.6684 0.14885 0.01229 0.0
H7358 H 0.63909 0.16915 0.0183 0.0
H7359 H 0.64656 0.1745 0.03667 0.0
H7360 H 0.6498 0.13973 0.00251 0.0
H7361 H 0.65334 0.18521 -0.00763 0.0
H7362 H 0.65851 0.17949 0.00534 0.0
H7363 H 0.64374 0.18173 0.00338 0.0
C7364 C 0.66755 0.15701 0.02825 0.0
C7365 C 0.66177 0.1647 0.03503 0.0
C7366 C 0.6634 0.15417 0.01769 0.0
C7367 C 0.65334 0.15886 0.01381 0.0
C7368 C 0.64702 0.16568 0.02102 0.0
H7369 H 0.64409 0.16754 0.94225 0.0
H7370 H 0.63733 0.16395 0.96124 0.0
C7371 C 0.65128 0.16871 0.03151 0.0
C7372 C 0.65045 0.15778 0.00179 0.0
H7373 H 0.64991 0.17301 0.97765 0.0
C7374 C 0.64959 0.14701 -0.00293 0.0
C7375 C 0.65019 0.16729 -0.00529 0.0
C7376 C 0.65157 0.17908 -0.00085 0.0
C7377 C 0.64909 0.1455 -0.01459 0.0
C7378 C 0.64951 0.15499 0.97835 0.0
C7379 C 0.64953 0.16574 0.9831 0.0
C7380 C 0.65177 0.15417 0.96618 0.0
C7381 C 0.64851 0.13377 0.98074 0.0
C7382 C 0.66192 0.14947 0.96253 0.0
C7383 C 0.66582 0.15153 0.9517 0.0
C7384 C 0.65968 0.15843 0.94439 0.0
C7385 C 0.64906 0.16228 0.94773 0.0
C7386 C 0.64515 0.16019 0.95856 0.0
H7387 H 0.64421 0.12802 -0.01333 0.0
H7388 H 0.64406 0.13357 0.97257 0.0
H7389 H 0.65714 0.13056 0.97946 0.0
H7390 H 0.66729 0.145 0.96833 0.0
H7391 H 0.67401 0.1484 0.94935 0.0
H7392 H 0.81564 0.53623 0.81349 0.0
H7393 H 0.82206 0.51736 0.81852 0.0
H7394 H 0.78853 0.50476 0.8135 0.0
H7395 H 0.78199 0.52361 0.80933 0.0
H7396 H 0.79783 0.49369 0.82944 0.0
H7397 H 0.82846 0.49583 0.79431 0.0
H7398 H 0.83088 0.50542 0.80563 0.0
H7399 H 0.81862 0.50693 0.79697 0.0
C7400 C 0.80963 0.52943 0.81374 0.0
C7401 C 0.79835 0.53131 0.8109 0.0
C7402 C 0.81332 0.51865 0.81649 0.0
C7403 C 0.80588 0.50954 0.816 0.0
C7404 C 0.79447 0.5116 0.81389 0.0
H7405 H 0.80607 0.44755 0.78732 0.0
H7406 H 0.80979 0.46666 0.79336 0.0
C7407 C 0.79073 0.5224 0.81149 0.0
C7408 C 0.80983 0.49775 0.81664 0.0
H7409 H 0.82536 0.4784 0.80237 0.0
C7410 C 0.80395 0.49033 0.82362 0.0
C7411 C 0.81792 0.4934 0.8091 0.0
C7412 C 0.82429 0.50077 0.80102 0.0
C7413 C 0.805 0.47868 0.82245 0.0
C7414 C 0.81267 0.47432 0.81449 0.0
C7415 C 0.81944 0.48176 0.8084 0.0
C7416 C 0.81235 0.46241 0.81085 0.0
C7417 C 0.79713 0.47127 0.82903 0.0
C7418 C 0.81304 0.45352 0.81853 0.0
C7419 C 0.81053 0.44258 0.81512 0.0
C7420 C 0.80776 0.44034 0.8039 0.0
C7421 C 0.80818 0.44905 0.79603 0.0
C7422 C 0.81033 0.45999 0.79949 0.0
H7423 H 0.7903 0.47613 0.83308 0.0
H7424 H 0.79325 0.46484 0.82353 0.0
H7425 H 0.80187 0.46694 0.83575 0.0
H7426 H 0.81502 0.45509 0.82725 0.0
H7427 H 0.81041 0.43595 0.82132 0.0
H7428 H 0.15281 0.52597 0.79387 0.0
H7429 H 0.14957 0.50681 0.8003 0.0
H7430 H 0.17015 0.51298 0.82937 0.0
H7431 H 0.17348 0.53215 0.82299 0.0
H7432 H 0.17772 0.4959 0.81553 0.0
H7433 H 0.13282 0.4899 0.82525 0.0
H7434 H 0.13509 0.49723 0.81231 0.0
H7435 H 0.13946 0.50353 0.8253 0.0
C7436 C 0.15638 0.52336 0.80179 0.0
C7437 C 0.16352 0.5305 0.80784 0.0
C7438 C 0.15444 0.51244 0.80551 0.0
C7439 C 0.15955 0.50853 0.81536 0.0
C7440 C 0.16606 0.51589 0.8218 0.0
H7441 H 0.17517 0.43677 0.8218 0.0
H7442 H 0.17234 0.45599 0.82852 0.0
C7443 C 0.16799 0.52681 0.8181 0.0
C7444 C 0.15983 0.49637 0.81767 0.0
H7445 H 0.14315 0.4733 0.81987 0.0
C7446 C 0.17021 0.49094 0.81678 0.0
C7447 C 0.15001 0.48999 0.81925 0.0
C7448 C 0.13872 0.49547 0.82069 0.0
C7449 C 0.17095 0.47923 0.8165 0.0
C7450 C 0.16104 0.47279 0.81748 0.0
C7451 C 0.15073 0.47825 0.81913 0.0
C7452 C 0.16104 0.46062 0.81509 0.0
C7453 C 0.18223 0.47395 0.81422 0.0
C7454 C 0.15505 0.45667 0.80579 0.0
C7455 C 0.15649 0.44569 0.80207 0.0
C7456 C 0.16403 0.43849 0.80754 0.0
C7457 C 0.16944 0.4422 0.81732 0.0
C7458 C 0.16786 0.45318 0.82115 0.0
H7459 H 0.18858 0.48021 0.81156 0.0
H7460 H 0.18535 0.46986 0.82196 0.0
H7461 H 0.18156 0.46746 0.80757 0.0
H7462 H 0.14972 0.46226 0.80101 0.0
H7463 H 0.15212 0.44305 0.79455 0.0
H7464 H 0.14498 0.44169 0.17477 0.0
H7465 H 0.13916 0.46046 0.16895 0.0
H7466 H 0.16757 0.46229 0.14667 0.0
H7467 H 0.17312 0.44344 0.15208 0.0
H7468 H 0.15166 0.47723 0.17413 0.0
H7469 H 0.14553 0.4794 0.1285 0.0
H7470 H 0.14562 0.46623 0.13595 0.0
H7471 H 0.15857 0.47258 0.13143 0.0
C7472 C 0.14976 0.44597 0.16836 0.0
C7473 C 0.15958 0.44117 0.16399 0.0
C7474 C 0.1464 0.45667 0.165 0.0
C7475 C 0.15287 0.46279 0.15731 0.0
C7476 C 0.16225 0.45767 0.15238 0.0
H7477 H 0.18024 0.5258 0.15099 0.0
H7478 H 0.17277 0.50705 0.14751 0.0
C7479 C 0.16551 0.44691 0.1556 0.0
C7480 C 0.15129 0.47508 0.15621 0.0
H7481 H 0.15281 0.49659 0.13739 0.0
C7482 C 0.15154 0.48146 0.16609 0.0
C7483 C 0.15118 0.48062 0.14572 0.0
C7484 C 0.15009 0.47431 0.13482 0.0
C7485 C 0.15261 0.49313 0.1658 0.0
C7486 C 0.15329 0.49861 0.15532 0.0
C7487 C 0.15232 0.49234 0.14541 0.0
C7488 C 0.1565 0.51055 0.15469 0.0
C7489 C 0.15384 0.4994 0.17674 0.0
C7490 C 0.1496 0.51886 0.15933 0.0
C7491 C 0.15389 0.52954 0.16146 0.0
C7492 C 0.1651 0.53207 0.15886 0.0
C7493 C 0.17161 0.52407 0.15317 0.0
C7494 C 0.16733 0.51337 0.15112 0.0
H7495 H 0.1548 0.49368 0.18402 0.0
H7496 H 0.16122 0.50506 0.17646 0.0
H7497 H 0.14629 0.50463 0.17817 0.0
H7498 H 0.14117 0.51685 0.16201 0.0
H7499 H 0.14863 0.53559 0.16572 0.0
H7500 H 0.81287 0.53378 0.14413 0.0
H7501 H 0.81777 0.51595 0.13507 0.0
H7502 H 0.81773 0.49973 0.16743 0.0
H7503 H 0.81377 0.51752 0.17644 0.0
H7504 H 0.83306 0.49089 0.15531 0.0
H7505 H 0.79476 0.4934 0.12864 0.0
H7506 H 0.80552 0.5036 0.12625 0.0
H7507 H 0.79767 0.50383 0.13913 0.0
C7508 C 0.81414 0.5264 0.14926 0.0
C7509 C 0.81284 0.52697 0.16096 0.0
C7510 C 0.81682 0.5162 0.14408 0.0
C7511 C 0.8178 0.50638 0.1505 0.0
C7512 C 0.81704 0.50715 0.16223 0.0
H7513 H 0.78831 0.44791 0.15498 0.0
H7514 H 0.79502 0.46595 0.14847 0.0
C7515 C 0.81472 0.51734 0.16741 0.0
C7516 C 0.81865 0.49505 0.14536 0.0
H7517 H 0.80266 0.47591 0.13136 0.0
C7518 C 0.82651 0.48759 0.14993 0.0
C7519 C 0.81031 0.49083 0.13803 0.0
C7520 C 0.80155 0.49828 0.13274 0.0
C7521 C 0.82516 0.47595 0.149 0.0
C7522 C 0.81609 0.47168 0.14261 0.0
C7523 C 0.80942 0.4792 0.13648 0.0
C7524 C 0.81174 0.46011 0.1443 0.0
C7525 C 0.83273 0.46851 0.15592 0.0
C7526 C 0.81865 0.45059 0.14365 0.0
C7527 C 0.81492 0.4403 0.14787 0.0
C7528 C 0.80403 0.43929 0.15223 0.0
C7529 C 0.79674 0.44847 0.15169 0.0
C7530 C 0.8006 0.4588 0.1479 0.0
H7531 H 0.83821 0.47339 0.16165 0.0
H7532 H 0.82772 0.46261 0.16107 0.0
H7533 H 0.83823 0.46359 0.15028 0.0
H7534 H 0.8271 0.45121 0.14044 0.0
H7535 H 0.82063 0.43324 0.14805 0.0
H7536 H 0.31792 0.5265 0.67069 0.0
H7537 H 0.3214 0.50787 0.66309 0.0
H7538 H 0.29973 0.5151 0.63507 0.0
H7539 H 0.29608 0.53376 0.64272 0.0
H7540 H 0.29247 0.49789 0.64754 0.0
H7541 H 0.33714 0.49101 0.63817 0.0
H7542 H 0.33547 0.49775 0.6515 0.0
H7543 H 0.33103 0.50486 0.63894 0.0
C7544 C 0.31417 0.52427 0.66273 0.0
C7545 C 0.30656 0.5315 0.65742 0.0
C7546 C 0.31628 0.51364 0.65831 0.0
C7547 C 0.31089 0.51011 0.64846 0.0
C7548 C 0.30403 0.51769 0.64263 0.0
H7549 H 0.29386 0.4387 0.644 0.0
H7550 H 0.29768 0.4573 0.63618 0.0
C7551 C 0.30191 0.52832 0.64706 0.0
C7552 C 0.31042 0.498 0.64584 0.0
H7553 H 0.32674 0.47456 0.64473 0.0
C7554 C 0.29992 0.49278 0.64656 0.0
C7555 C 0.32015 0.49138 0.64459 0.0
C7556 C 0.33157 0.49657 0.64314 0.0
C7557 C 0.29897 0.4811 0.64719 0.0
C7558 C 0.30879 0.47447 0.64676 0.0
C7559 C 0.31922 0.47966 0.6451 0.0
C7560 C 0.30851 0.46245 0.6498 0.0
C7561 C 0.28754 0.4761 0.64934 0.0
C7562 C 0.31396 0.45893 0.6596 0.0
C7563 C 0.31197 0.44828 0.66396 0.0
C7564 C 0.30439 0.44102 0.65864 0.0
C7565 C 0.29958 0.44423 0.64838 0.0
C7566 C 0.30174 0.45483 0.64391 0.0
H7567 H 0.28118 0.48259 0.65141 0.0
H7568 H 0.28465 0.47161 0.64172 0.0
H7569 H 0.28788 0.47 0.65635 0.0
H7570 H 0.31924 0.46467 0.66426 0.0
H7571 H 0.31586 0.446 0.67184 0.0
H7572 H 0.64125 0.53042 0.67333 0.0
H7573 H 0.63228 0.51205 0.67152 0.0
H7574 H 0.65911 0.50102 0.64998 0.0
H7575 H 0.668 0.51936 0.65155 0.0
H7576 H 0.63738 0.4914 0.64475 0.0
H7577 H 0.64905 0.48816 0.68996 0.0
H7578 H 0.63974 0.49927 0.68588 0.0
H7579 H 0.65407 0.49946 0.6813 0.0
C7580 C 0.64507 0.52418 0.66796 0.0
C7581 C 0.65546 0.52623 0.66279 0.0
C7582 C 0.63993 0.5137 0.66693 0.0
C7583 C 0.64517 0.50513 0.66081 0.0
C7584 C 0.65496 0.50752 0.65477 0.0
H7585 H 0.66405 0.44067 0.65293 0.0
H7586 H 0.65556 0.45886 0.64969 0.0
C7587 C 0.66006 0.518 0.65573 0.0
C7588 C 0.64176 0.49329 0.66216 0.0
H7589 H 0.64483 0.47171 0.68057 0.0
C7590 C 0.63872 0.48709 0.65264 0.0
C7591 C 0.64339 0.48772 0.6725 0.0
C7592 C 0.64679 0.49393 0.68301 0.0
C7593 C 0.63804 0.47534 0.65302 0.0
C7594 C 0.64077 0.46971 0.66309 0.0
C7595 C 0.64278 0.476 0.67283 0.0
C7596 C 0.64371 0.45763 0.66339 0.0
C7597 C 0.63483 0.46909 0.64251 0.0
C7598 C 0.63985 0.45074 0.67212 0.0
C7599 C 0.64492 0.44037 0.67417 0.0
C7600 C 0.65391 0.43673 0.6675 0.0
C7601 C 0.65716 0.44324 0.65824 0.0
C7602 C 0.65218 0.45362 0.65628 0.0
H7603 H 0.62851 0.4739 0.63765 0.0
H7604 H 0.64233 0.46811 0.63711 0.0
H7605 H 0.63138 0.46066 0.64441 0.0
H7606 H 0.63337 0.45368 0.67776 0.0
H7607 H 0.64219 0.43549 0.68131 0.0
H7608 H 0.32518 0.44039 0.29698 0.0
H7609 H 0.33271 0.45886 0.30175 0.0
H7610 H 0.3056 0.46387 0.32514 0.0
H7611 H 0.29832 0.44535 0.32075 0.0
H7612 H 0.32145 0.47651 0.29656 0.0
H7613 H 0.32976 0.47965 0.34174 0.0
H7614 H 0.32838 0.46627 0.33475 0.0
H7615 H 0.31616 0.47367 0.33972 0.0
C7616 C 0.32104 0.44531 0.30339 0.0
C7617 C 0.31108 0.4415 0.30838 0.0
C7618 C 0.32538 0.45583 0.30615 0.0
C7619 C 0.3198 0.46274 0.31389 0.0
C7620 C 0.31026 0.45862 0.31939 0.0
H7621 H 0.29475 0.52566 0.32009 0.0
H7622 H 0.30262 0.50713 0.32368 0.0
C7623 C 0.30601 0.44805 0.31675 0.0
C7624 C 0.32241 0.47488 0.31451 0.0
H7625 H 0.32271 0.49697 0.33273 0.0
C7626 C 0.32213 0.48097 0.30446 0.0
C7627 C 0.32331 0.48072 0.32481 0.0
C7628 C 0.32454 0.47468 0.33583 0.0
C7629 C 0.32159 0.49268 0.30444 0.0
C7630 C 0.32151 0.49849 0.31479 0.0
C7631 C 0.32271 0.49248 0.32482 0.0
C7632 C 0.31833 0.51046 0.31526 0.0
C7633 C 0.32013 0.49867 0.29338 0.0
C7634 C 0.32481 0.51865 0.30989 0.0
C7635 C 0.32027 0.52922 0.30769 0.0
C7636 C 0.30923 0.53175 0.31095 0.0
C7637 C 0.30323 0.52392 0.31737 0.0
C7638 C 0.30775 0.51334 0.31949 0.0
H7639 H 0.31882 0.49276 0.28629 0.0
H7640 H 0.31286 0.50446 0.29374 0.0
H7641 H 0.32772 0.5037 0.29156 0.0
H7642 H 0.33307 0.51662 0.30673 0.0
H7643 H 0.32516 0.53514 0.30286 0.0
H7644 H 0.67349 0.53381 0.32196 0.0
H7645 H 0.67015 0.5145 0.32797 0.0
H7646 H 0.65373 0.50748 0.29656 0.0
H7647 H 0.65689 0.52678 0.29051 0.0
H7648 H 0.64444 0.49593 0.31661 0.0
H7649 H 0.69065 0.49179 0.31098 0.0
H7650 H 0.68577 0.50241 0.3205 0.0
H7651 H 0.68299 0.50373 0.30578 0.0
C7652 C 0.66892 0.52824 0.31644 0.0
C7653 C 0.66565 0.53173 0.30566 0.0
C7654 C 0.667 0.51723 0.3199 0.0
C7655 C 0.66186 0.50957 0.31263 0.0
C7656 C 0.65772 0.51329 0.30228 0.0
H7657 H 0.65556 0.44289 0.29343 0.0
H7658 H 0.65167 0.46197 0.29951 0.0
C7659 C 0.65959 0.52431 0.29881 0.0
C7660 C 0.66233 0.49743 0.31491 0.0
H7661 H 0.68051 0.47544 0.31396 0.0
C7662 C 0.65233 0.49142 0.31625 0.0
C7663 C 0.67265 0.49162 0.31447 0.0
C7664 C 0.68365 0.49766 0.31279 0.0
C7665 C 0.65234 0.47966 0.31675 0.0
C7666 C 0.6626 0.47383 0.31559 0.0
C7667 C 0.67264 0.4799 0.31489 0.0
C7668 C 0.66317 0.46159 0.31355 0.0
C7669 C 0.64136 0.47363 0.31832 0.0
C7670 C 0.67092 0.45494 0.31943 0.0
C7671 C 0.67337 0.44409 0.31578 0.0
C7672 C 0.66807 0.43968 0.30623 0.0
C7673 C 0.65977 0.44605 0.30083 0.0
C7674 C 0.65743 0.45694 0.30439 0.0
H7675 H 0.63547 0.47873 0.32342 0.0
H7676 H 0.6374 0.47227 0.31001 0.0
H7677 H 0.64253 0.46537 0.32244 0.0
H7678 H 0.67549 0.45838 0.32648 0.0
H7679 H 0.67975 0.43933 0.32015 0.0
H7680 H 0.14965 0.79413 0.43984 0.0
H7681 H 0.14399 0.79918 0.4589 0.0
H7682 H 0.17128 0.82284 0.46074 0.0
H7683 H 0.17663 0.81821 0.44164 0.0
H7684 H 0.15683 0.79454 0.47561 0.0
H7685 H 0.14851 0.83989 0.47795 0.0
H7686 H 0.14899 0.83248 0.46475 0.0
H7687 H 0.1617 0.83753 0.4712 0.0
C7688 C 0.15421 0.80065 0.4442 0.0
C7689 C 0.16365 0.80569 0.4393 0.0
C7690 C 0.15096 0.80356 0.45507 0.0
C7691 C 0.15714 0.81147 0.46125 0.0
C7692 C 0.16616 0.81696 0.45609 0.0
H7693 H 0.18181 0.81639 0.52643 0.0
H7694 H 0.17617 0.82007 0.50705 0.0
C7695 C 0.16931 0.81419 0.44518 0.0
C7696 C 0.15558 0.81245 0.47354 0.0
H7697 H 0.15569 0.83123 0.49519 0.0
C7698 C 0.15624 0.80256 0.47987 0.0
C7699 C 0.15489 0.82291 0.47913 0.0
C7700 C 0.15336 0.83377 0.47286 0.0
C7701 C 0.15697 0.80286 0.49156 0.0
C7702 C 0.15696 0.81334 0.49709 0.0
C7703 C 0.15575 0.82323 0.49087 0.0
C7704 C 0.15924 0.81399 0.50922 0.0
C7705 C 0.15839 0.79199 0.49789 0.0
C7706 C 0.1514 0.80987 0.51691 0.0
C7707 C 0.15461 0.80769 0.52794 0.0
C7708 C 0.1657 0.80963 0.53142 0.0
C7709 C 0.17323 0.81476 0.52397 0.0
C7710 C 0.17001 0.8169 0.51292 0.0
H7711 H 0.1596 0.78471 0.49221 0.0
H7712 H 0.16568 0.79252 0.50365 0.0
H7713 H 0.15082 0.79042 0.50305 0.0
H7714 H 0.14304 0.80761 0.51417 0.0
H7715 H 0.14858 0.80385 0.53353 0.0
H7716 H 0.16877 0.14852 0.44595 0.0
H7717 H 0.16081 0.14437 0.46426 0.0
H7718 H 0.13153 0.16395 0.45612 0.0
H7719 H 0.13954 0.1683 0.43779 0.0
H7720 H 0.14296 0.1723 0.47346 0.0
H7721 H 0.13686 0.12718 0.48096 0.0
H7722 H 0.15017 0.12966 0.47447 0.0
H7723 H 0.13748 0.13307 0.46702 0.0
C7724 C 0.16046 0.15163 0.44789 0.0
C7725 C 0.15489 0.15893 0.44053 0.0
C7726 C 0.15584 0.14913 0.45834 0.0
C7727 C 0.14554 0.1538 0.46156 0.0
C7728 C 0.13947 0.1602 0.45378 0.0
H7729 H 0.14112 0.17244 0.53249 0.0
H7730 H 0.13271 0.16739 0.51443 0.0
C7731 C 0.14409 0.16273 0.44333 0.0
C7732 C 0.14265 0.15426 0.47362 0.0
H7733 H 0.14266 0.13831 0.49732 0.0
C7734 C 0.1425 0.16488 0.47868 0.0
C7735 C 0.14207 0.14458 0.4804 0.0
C7736 C 0.14153 0.13299 0.47539 0.0
C7737 C 0.14305 0.16609 0.49034 0.0
C7738 C 0.14337 0.15637 0.49715 0.0
C7739 C 0.14246 0.14575 0.49211 0.0
C7740 C 0.14666 0.15707 0.50911 0.0
C7741 C 0.14438 0.17776 0.49512 0.0
C7742 C 0.15681 0.15219 0.51247 0.0
C7743 C 0.16148 0.15484 0.52285 0.0
C7744 C 0.15614 0.16253 0.52999 0.0
C7745 C 0.14551 0.16666 0.52704 0.0
C7746 C 0.14072 0.16381 0.51673 0.0
H7747 H 0.14589 0.18413 0.48851 0.0
H7748 H 0.13662 0.18016 0.49963 0.0
H7749 H 0.15147 0.17807 0.50113 0.0
H7750 H 0.16152 0.14693 0.50676 0.0
H7751 H 0.16964 0.15144 0.52494 0.0
H7752 H 0.29207 0.64533 0.53556 0.0
H7753 H 0.29533 0.63567 0.51774 0.0
H7754 H 0.32246 0.65844 0.51048 0.0
H7755 H 0.31953 0.66777 0.52831 0.0
H7756 H 0.2915 0.64601 0.49934 0.0
H7757 H 0.33483 0.63116 0.49619 0.0
H7758 H 0.32848 0.6344 0.50955 0.0
H7759 H 0.33517 0.64523 0.50138 0.0
C7760 C 0.29896 0.64802 0.53031 0.0
C7761 C 0.30544 0.65741 0.53324 0.0
C7762 C 0.30085 0.64246 0.52016 0.0
C7763 C 0.30921 0.64623 0.51278 0.0
C7764 C 0.31617 0.65512 0.51611 0.0
H7765 H 0.31784 0.66946 0.4506 0.0
H7766 H 0.32025 0.66097 0.46904 0.0
C7767 C 0.31437 0.66059 0.52628 0.0
C7768 C 0.30918 0.64273 0.50085 0.0
H7769 H 0.32691 0.6394 0.47866 0.0
C7770 C 0.29917 0.64412 0.49485 0.0
C7771 C 0.31915 0.64018 0.49496 0.0
C7772 C 0.32997 0.63754 0.50093 0.0
C7773 C 0.29908 0.64438 0.48312 0.0
C7774 C 0.3093 0.64306 0.47725 0.0
C7775 C 0.31912 0.64054 0.48319 0.0
C7776 C 0.31015 0.64637 0.46535 0.0
C7777 C 0.28826 0.64715 0.47717 0.0
C7778 C 0.30414 0.64067 0.45701 0.0
C7779 C 0.30265 0.64557 0.44647 0.0
C7780 C 0.30721 0.6562 0.44415 0.0
C7781 C 0.31412 0.66134 0.45218 0.0
C7782 C 0.31557 0.65646 0.4627 0.0
H7783 H 0.28135 0.64909 0.48309 0.0
H7784 H 0.28943 0.65446 0.47153 0.0
H7785 H 0.28565 0.6399 0.47195 0.0
H7786 H 0.30002 0.63281 0.45887 0.0
H7787 H 0.29739 0.64134 0.4404 0.0
H7788 H 0.80012 0.82046 0.52684 0.0
H7789 H 0.80748 0.82599 0.50866 0.0
H7790 H 0.83747 0.80674 0.51482 0.0
H7791 H 0.82979 0.80059 0.53285 0.0
H7792 H 0.82522 0.83567 0.49869 0.0
H7793 H 0.8245 0.78988 0.48901 0.0
H7794 H 0.81911 0.79533 0.50199 0.0
H7795 H 0.83399 0.79427 0.4998 0.0
C7796 C 0.80838 0.81755 0.52443 0.0
C7797 C 0.81425 0.80984 0.5311 0.0
C7798 C 0.81261 0.82078 0.51405 0.0
C7799 C 0.82287 0.8165 0.51022 0.0
C7800 C 0.82936 0.80984 0.51745 0.0
H7801 H 0.82674 0.80703 0.43842 0.0
H7802 H 0.83552 0.8116 0.45635 0.0
C7803 C 0.82499 0.80637 0.52775 0.0
C7804 C 0.82565 0.81761 0.49816 0.0
H7805 H 0.82576 0.80214 0.47413 0.0
C7806 C 0.82562 0.82835 0.49331 0.0
C7807 C 0.82622 0.80804 0.49113 0.0
C7808 C 0.82589 0.79623 0.49569 0.0
C7809 C 0.82523 0.82974 0.48163 0.0
C7810 C 0.82487 0.82015 0.47469 0.0
C7811 C 0.82603 0.80949 0.47949 0.0
C7812 C 0.82119 0.8206 0.46285 0.0
C7813 C 0.82468 0.84141 0.47685 0.0
C7814 C 0.81039 0.82456 0.46037 0.0
C7815 C 0.80533 0.82192 0.45015 0.0
C7816 C 0.81096 0.8152 0.4423 0.0
C7817 C 0.82214 0.81213 0.44437 0.0
C7818 C 0.82721 0.81479 0.45458 0.0
H7819 H 0.82925 0.84745 0.48228 0.0
H7820 H 0.82825 0.84175 0.46827 0.0
H7821 H 0.8158 0.84414 0.47647 0.0
H7822 H 0.80548 0.82884 0.46669 0.0
H7823 H 0.79672 0.82446 0.44878 0.0
H7824 H 0.64694 0.31158 0.53517 0.0
H7825 H 0.63876 0.31649 0.51694 0.0
H7826 H 0.67149 0.31386 0.50174 0.0
H7827 H 0.67969 0.30981 0.5199 0.0
H7828 H 0.66057 0.32996 0.49234 0.0
H7829 H 0.63187 0.29317 0.49459 0.0
H7830 H 0.62975 0.30412 0.50468 0.0
H7831 H 0.64225 0.29571 0.50522 0.0
C7832 C 0.65236 0.31226 0.52792 0.0
C7833 C 0.66392 0.31021 0.52889 0.0
C7834 C 0.64767 0.31496 0.51751 0.0
C7835 C 0.65443 0.31524 0.50787 0.0
C7836 C 0.66605 0.3137 0.50901 0.0
H7837 H 0.65673 0.28614 0.448 0.0
H7838 H 0.65166 0.29278 0.46655 0.0
C7839 C 0.67076 0.31134 0.51941 0.0
C7840 C 0.64969 0.31621 0.4964 0.0
H7841 H 0.63495 0.30106 0.47714 0.0
C7842 C 0.65483 0.32376 0.489 0.0
C7843 C 0.64196 0.30827 0.49211 0.0
C7844 C 0.63616 0.29981 0.49952 0.0
C7845 C 0.65382 0.32254 0.47735 0.0
C7846 C 0.64686 0.31393 0.47302 0.0
C7847 C 0.64043 0.3075 0.48048 0.0
C7848 C 0.64801 0.30982 0.46131 0.0
C7849 C 0.66114 0.32972 0.46994 0.0
C7850 C 0.64726 0.31701 0.45202 0.0
C7851 C 0.6506 0.31328 0.4414 0.0
C7852 C 0.65425 0.30218 0.43987 0.0
C7853 C 0.65397 0.29474 0.44895 0.0
C7854 C 0.65101 0.29855 0.45957 0.0
H7855 H 0.66734 0.33466 0.47483 0.0
H7856 H 0.66579 0.32448 0.46382 0.0
H7857 H 0.65583 0.33574 0.46525 0.0
H7858 H 0.64454 0.3256 0.45302 0.0
H7859 H 0.65059 0.31912 0.43446 0.0
H7860 H 0.80006 0.14789 0.43651 0.0
H7861 H 0.80361 0.14087 0.45544 0.0
H7862 H 0.81955 0.17212 0.46411 0.0
H7863 H 0.81617 0.17917 0.44517 0.0
H7864 H 0.82925 0.15148 0.47444 0.0
H7865 H 0.783 0.15621 0.47919 0.0
H7866 H 0.78797 0.1474 0.46802 0.0
H7867 H 0.79048 0.16223 0.46753 0.0
C7868 C 0.80456 0.15317 0.44237 0.0
C7869 C 0.80764 0.16417 0.43944 0.0
C7870 C 0.80659 0.14913 0.45315 0.0
C7871 C 0.81168 0.15605 0.46117 0.0
C7872 C 0.81561 0.16667 0.45801 0.0
H7873 H 0.8183 0.17286 0.52789 0.0
H7874 H 0.82233 0.16692 0.50884 0.0
C7875 C 0.81362 0.1707 0.4472 0.0
C7876 C 0.81133 0.15307 0.47317 0.0
H7877 H 0.79333 0.15264 0.49529 0.0
C7878 C 0.8214 0.15151 0.47902 0.0
C7879 C 0.80106 0.15303 0.47906 0.0
C7880 C 0.78999 0.15486 0.47319 0.0
C7881 C 0.82149 0.15039 0.49074 0.0
C7882 C 0.81127 0.15117 0.4967 0.0
C7883 C 0.80117 0.15201 0.49074 0.0
C7884 C 0.8108 0.1529 0.509 0.0
C7885 C 0.83255 0.14864 0.4966 0.0
C7886 C 0.80304 0.14695 0.51556 0.0
C7887 C 0.80049 0.15053 0.52642 0.0
C7888 C 0.80572 0.16008 0.53091 0.0
C7889 C 0.81411 0.16547 0.52467 0.0
C7890 C 0.81654 0.16198 0.51378 0.0
H7891 H 0.83834 0.14365 0.49128 0.0
H7892 H 0.83655 0.15689 0.49811 0.0
H7893 H 0.83148 0.1443 0.50475 0.0
H7894 H 0.79846 0.13994 0.51203 0.0
H7895 H 0.79405 0.14616 0.53107 0.0
H7896 H 0.31887 0.29642 0.43557 0.0
H7897 H 0.32576 0.29993 0.45456 0.0
H7898 H 0.29508 0.31723 0.46258 0.0
H7899 H 0.28812 0.31384 0.44359 0.0
H7900 H 0.31647 0.32635 0.47275 0.0
H7901 H 0.30892 0.28058 0.47872 0.0
H7902 H 0.31786 0.28477 0.46735 0.0
H7903 H 0.30322 0.28814 0.46694 0.0
C7904 C 0.31368 0.3012 0.44129 0.0
C7905 C 0.30286 0.30468 0.43817 0.0
C7906 C 0.31766 0.30322 0.45211 0.0
C7907 C 0.31086 0.30871 0.45995 0.0
C7908 C 0.30044 0.31298 0.45661 0.0
H7909 H 0.29521 0.31824 0.52684 0.0
H7910 H 0.30092 0.32129 0.50755 0.0
C7911 C 0.29646 0.31099 0.44578 0.0
C7912 C 0.31374 0.30853 0.47197 0.0
H7913 H 0.31312 0.29113 0.49457 0.0
C7914 C 0.31595 0.31864 0.47754 0.0
C7915 C 0.31313 0.29843 0.47813 0.0
C7916 C 0.3106 0.28735 0.47255 0.0
C7917 C 0.31714 0.31898 0.48925 0.0
C7918 C 0.31577 0.30898 0.49549 0.0
C7919 C 0.31421 0.29879 0.4898 0.0
C7920 C 0.31423 0.30895 0.50781 0.0
C7921 C 0.31964 0.33006 0.4948 0.0
C7922 C 0.31986 0.30105 0.51449 0.0
C7923 C 0.3164 0.29908 0.5255 0.0
C7924 C 0.3073 0.30503 0.53001 0.0
C7925 C 0.30225 0.31351 0.52361 0.0
C7926 C 0.30561 0.31538 0.51258 0.0
H7927 H 0.32487 0.33542 0.48927 0.0
H7928 H 0.31166 0.33459 0.49633 0.0
H7929 H 0.32404 0.32893 0.50292 0.0
H7930 H 0.3265 0.29595 0.51097 0.0
H7931 H 0.3205 0.29253 0.53027 0.0
H7932 H 0.6546 0.66026 0.43401 0.0
H7933 H 0.64919 0.65447 0.45296 0.0
H7934 H 0.68261 0.66194 0.46466 0.0
H7935 H 0.6882 0.66685 0.44569 0.0
H7936 H 0.67494 0.64513 0.47573 0.0
H7937 H 0.64157 0.67779 0.47502 0.0
H7938 H 0.63977 0.66642 0.46535 0.0
H7939 H 0.65124 0.67607 0.46359 0.0
C7940 C 0.66082 0.66041 0.44062 0.0
C7941 C 0.67177 0.66412 0.43847 0.0
C7942 C 0.6577 0.65721 0.45146 0.0
C7943 C 0.66537 0.65814 0.46034 0.0
C7944 C 0.6765 0.66119 0.45799 0.0
H7945 H 0.66481 0.68646 0.5223 0.0
H7946 H 0.66168 0.68004 0.50322 0.0
C7947 C 0.6797 0.66403 0.44713 0.0
C7948 C 0.66186 0.65702 0.47222 0.0
H7949 H 0.64599 0.66991 0.49222 0.0
C7950 C 0.66851 0.65044 0.47935 0.0
C7951 C 0.65336 0.66387 0.47691 0.0
C7952 C 0.64611 0.6715 0.46986 0.0
C7953 C 0.66779 0.65144 0.49104 0.0
C7954 C 0.65972 0.65879 0.49572 0.0
C7955 C 0.65222 0.66438 0.48859 0.0
C7956 C 0.66025 0.66245 0.5076 0.0
C7957 C 0.67635 0.64539 0.49814 0.0
C7958 C 0.66018 0.65477 0.51652 0.0
C7959 C 0.66231 0.65844 0.52746 0.0
C7960 C 0.66416 0.66987 0.52965 0.0
C7961 C 0.66341 0.6776 0.52085 0.0
C7962 C 0.66159 0.67392 0.50993 0.0
H7963 H 0.68324 0.64178 0.49303 0.0
H7964 H 0.68008 0.65114 0.50444 0.0
H7965 H 0.67222 0.63839 0.50265 0.0
H7966 H 0.6588 0.64594 0.515 0.0
H7967 H 0.66271 0.65232 0.53415 0.0
H7968 H 0.53644 0.15336 0.81719 0.0
H7969 H 0.51778 0.14658 0.82245 0.0
H7970 H 0.50386 0.17896 0.81418 0.0
H7971 H 0.5225 0.18593 0.80987 0.0
H7972 H 0.49272 0.17079 0.83042 0.0
H7973 H 0.49722 0.13672 0.79879 0.0
H7974 H 0.50649 0.13588 0.81057 0.0
H7975 H 0.50785 0.14722 0.80071 0.0
C7976 C 0.52939 0.15906 0.81679 0.0
C7977 C 0.53084 0.17012 0.81302 0.0
C7978 C 0.51872 0.15515 0.81966 0.0
C7979 C 0.50931 0.16211 0.81831 0.0
C7980 C 0.51094 0.17337 0.81525 0.0
H7981 H 0.44892 0.15663 0.78757 0.0
H7982 H 0.46774 0.1539 0.79482 0.0
C7983 C 0.52161 0.17738 0.81276 0.0
C7984 C 0.49768 0.1577 0.81906 0.0
H7985 H 0.47945 0.13996 0.80595 0.0
C7986 C 0.4898 0.16397 0.82516 0.0
C7987 C 0.49391 0.14867 0.8123 0.0
C7988 C 0.50177 0.14177 0.80516 0.0
C7989 C 0.47825 0.16237 0.8237 0.0
C7990 C 0.47446 0.15373 0.81645 0.0
C7991 C 0.48237 0.14662 0.8114 0.0
C7992 C 0.46273 0.1533 0.81229 0.0
C7993 C 0.47035 0.17063 0.82915 0.0
C7994 C 0.45349 0.15332 0.81959 0.0
C7995 C 0.4427 0.15529 0.81544 0.0
C7996 C 0.44096 0.15677 0.80388 0.0
C7997 C 0.45002 0.15553 0.79651 0.0
C7998 C 0.46081 0.15395 0.80068 0.0
H7999 H 0.47483 0.17801 0.83265 0.0
H8000 H 0.46406 0.17372 0.82303 0.0
H8001 H 0.46588 0.16648 0.83615 0.0
H8002 H 0.45467 0.15236 0.82853 0.0
H8003 H 0.4358 0.15605 0.82128 0.0
H8004 H 0.52739 0.81879 0.79208 0.0
H8005 H 0.50899 0.82337 0.79968 0.0
H8006 H 0.5172 0.80605 0.83032 0.0
H8007 H 0.53558 0.80128 0.82271 0.0
H8008 H 0.49953 0.79712 0.81957 0.0
H8009 H 0.4932 0.84281 0.82279 0.0
H8010 H 0.49939 0.83906 0.80961 0.0
H8011 H 0.50697 0.83649 0.82241 0.0
C8012 C 0.52542 0.81625 0.80056 0.0
C8013 C 0.53284 0.8095 0.80671 0.0
C8014 C 0.51493 0.81899 0.80496 0.0
C8015 C 0.51175 0.81512 0.81561 0.0
C8016 C 0.51952 0.80917 0.82212 0.0
H8017 H 0.44078 0.7989 0.82542 0.0
H8018 H 0.45956 0.8039 0.83205 0.0
C8019 C 0.52999 0.8064 0.81772 0.0
C8020 C 0.49976 0.81514 0.81874 0.0
H8021 H 0.47646 0.83167 0.8189 0.0
C8022 C 0.49449 0.80469 0.81978 0.0
C8023 C 0.49324 0.82502 0.81898 0.0
C8024 C 0.49852 0.83648 0.8185 0.0
C8025 C 0.48281 0.80375 0.81994 0.0
C8026 C 0.47621 0.81361 0.8194 0.0
C8027 C 0.48152 0.82413 0.81929 0.0
C8028 C 0.46406 0.81301 0.81702 0.0
C8029 C 0.47771 0.79216 0.81964 0.0
C8030 C 0.46007 0.81723 0.8068 0.0
C8031 C 0.44931 0.81461 0.80312 0.0
C8032 C 0.44239 0.80759 0.80955 0.0
C8033 C 0.44603 0.80414 0.8202 0.0
C8034 C 0.45675 0.80697 0.82399 0.0
H8035 H 0.48406 0.78553 0.81808 0.0
H8036 H 0.47368 0.79036 0.82782 0.0
H8037 H 0.47122 0.79158 0.813 0.0
H8038 H 0.46554 0.82195 0.80131 0.0
H8039 H 0.4467 0.81748 0.79491 0.0
H8040 H 0.52648 0.81894 0.17635 0.0
H8041 H 0.50724 0.82369 0.17134 0.0
H8042 H 0.5108 0.80565 0.14019 0.0
H8043 H 0.52994 0.80039 0.14542 0.0
H8044 H 0.49509 0.83353 0.1545 0.0
H8045 H 0.48724 0.78755 0.15614 0.0
H8046 H 0.5004 0.79361 0.16033 0.0
H8047 H 0.49714 0.79187 0.14571 0.0
C8048 C 0.52325 0.81616 0.16833 0.0
C8049 C 0.52959 0.80906 0.16139 0.0
C8050 C 0.51226 0.81893 0.16546 0.0
C8051 C 0.5075 0.81477 0.15554 0.0
C8052 C 0.51422 0.80868 0.14804 0.0
H8053 H 0.43626 0.80367 0.14694 0.0
H8054 H 0.4552 0.8086 0.141 0.0
C8055 C 0.52515 0.8057 0.15102 0.0
C8056 C 0.49521 0.81547 0.15394 0.0
H8057 H 0.47178 0.79914 0.15361 0.0
C8058 C 0.48998 0.82603 0.15413 0.0
C8059 C 0.48855 0.80565 0.15355 0.0
C8060 C 0.49357 0.79403 0.15402 0.0
C8061 C 0.47824 0.827 0.15426 0.0
C8062 C 0.47165 0.81717 0.15423 0.0
C8063 C 0.47688 0.80667 0.15351 0.0
C8064 C 0.45944 0.81725 0.15636 0.0
C8065 C 0.473 0.83849 0.15466 0.0
C8066 C 0.45539 0.8209 0.16679 0.0
C8067 C 0.44457 0.81808 0.17023 0.0
C8068 C 0.43769 0.81147 0.16333 0.0
C8069 C 0.44141 0.80869 0.1525 0.0
C8070 C 0.45221 0.81154 0.14906 0.0
H8071 H 0.47867 0.84492 0.15104 0.0
H8072 H 0.46491 0.83866 0.15008 0.0
H8073 H 0.47138 0.84079 0.16353 0.0
H8074 H 0.46089 0.82512 0.17266 0.0
H8075 H 0.44192 0.82037 0.17861 0.0
H8076 H 0.5345 0.15075 0.14793 0.0
H8077 H 0.51578 0.14517 0.14151 0.0
H8078 H 0.50317 0.14962 0.17516 0.0
H8079 H 0.5219 0.15411 0.18167 0.0
H8080 H 0.49192 0.13424 0.16602 0.0
H8081 H 0.49426 0.16879 0.13468 0.0
H8082 H 0.50355 0.15721 0.13243 0.0
H8083 H 0.50546 0.16623 0.14441 0.0
C8084 C 0.52774 0.15021 0.15396 0.0
C8085 C 0.52957 0.15298 0.16526 0.0
C8086 C 0.51702 0.14717 0.15027 0.0
C8087 C 0.50791 0.14742 0.15773 0.0
C8088 C 0.50999 0.14941 0.16917 0.0
H8089 H 0.44862 0.1795 0.15906 0.0
H8090 H 0.46689 0.17175 0.15461 0.0
C8091 C 0.52072 0.15201 0.17291 0.0
C8092 C 0.49608 0.14683 0.15383 0.0
H8093 H 0.47676 0.16162 0.13877 0.0
C8094 C 0.48859 0.14015 0.15997 0.0
C8095 C 0.49173 0.15439 0.14574 0.0
C8096 C 0.49913 0.16211 0.13897 0.0
C8097 C 0.47697 0.14187 0.15943 0.0
C8098 C 0.47267 0.15002 0.15192 0.0
C8099 C 0.48009 0.15554 0.14465 0.0
C8100 C 0.46111 0.15457 0.15297 0.0
C8101 C 0.46963 0.13572 0.1677 0.0
C8102 C 0.45159 0.14764 0.15316 0.0
C8103 C 0.44114 0.15206 0.15614 0.0
C8104 C 0.43998 0.16355 0.15847 0.0
C8105 C 0.44927 0.17061 0.15729 0.0
C8106 C 0.45974 0.16616 0.15471 0.0
H8107 H 0.4746 0.13135 0.17424 0.0
H8108 H 0.4638 0.1416 0.17195 0.0
H8109 H 0.46462 0.12931 0.1632 0.0
H8110 H 0.4523 0.13877 0.15141 0.0
H8111 H 0.43402 0.14647 0.15687 0.0
H8112 H 0.43813 0.32414 0.67448 0.0
H8113 H 0.45611 0.33258 0.66945 0.0
H8114 H 0.46223 0.30552 0.64621 0.0
H8115 H 0.44418 0.29734 0.65085 0.0
H8116 H 0.47428 0.3223 0.67458 0.0
H8117 H 0.4767 0.33026 0.62933 0.0
H8118 H 0.46347 0.32832 0.63641 0.0
H8119 H 0.47138 0.31641 0.63146 0.0
C8120 C 0.44318 0.32019 0.66806 0.0
C8121 C 0.43984 0.31 0.66317 0.0
C8122 C 0.45342 0.32505 0.66514 0.0
C8123 C 0.46051 0.31977 0.65736 0.0
C8124 C 0.45682 0.30997 0.65198 0.0
H8125 H 0.52349 0.29643 0.65102 0.0
H8126 H 0.50494 0.30413 0.64727 0.0
C8127 C 0.44653 0.30519 0.65477 0.0
C8128 C 0.47249 0.32296 0.65663 0.0
H8129 H 0.49437 0.32386 0.63825 0.0
C8130 C 0.47865 0.32306 0.66664 0.0
C8131 C 0.47819 0.32398 0.64629 0.0
C8132 C 0.47203 0.32486 0.63529 0.0
C8133 C 0.49036 0.32293 0.66658 0.0
C8134 C 0.49608 0.3229 0.65619 0.0
C8135 C 0.48995 0.32381 0.64619 0.0
C8136 C 0.50808 0.31992 0.65566 0.0
C8137 C 0.49646 0.32177 0.67763 0.0
C8138 C 0.51619 0.32652 0.66103 0.0
C8139 C 0.52676 0.32206 0.66335 0.0
C8140 C 0.52938 0.311 0.66017 0.0
C8141 C 0.52167 0.30492 0.65368 0.0
C8142 C 0.51108 0.30934 0.65147 0.0
H8143 H 0.49065 0.32042 0.68477 0.0
H8144 H 0.50243 0.31463 0.67731 0.0
H8145 H 0.50131 0.32952 0.67932 0.0
H8146 H 0.51407 0.33478 0.66414 0.0
H8147 H 0.53261 0.32701 0.66821 0.0
H8148 H 0.53878 0.65159 0.65218 0.0
H8149 H 0.51973 0.64639 0.64653 0.0
H8150 H 0.50831 0.65216 0.68039 0.0
H8151 H 0.52736 0.65643 0.68617 0.0
H8152 H 0.49627 0.63667 0.6716 0.0
H8153 H 0.49907 0.67133 0.64044 0.0
H8154 H 0.5081 0.6596 0.63792 0.0
H8155 H 0.5103 0.66835 0.65003 0.0
C8156 C 0.53222 0.6514 0.65845 0.0
C8157 C 0.53447 0.65456 0.66957 0.0
C8158 C 0.52132 0.64856 0.65519 0.0
C8159 C 0.51247 0.64934 0.66291 0.0
C8160 C 0.51494 0.65158 0.67422 0.0
H8161 H 0.45174 0.68087 0.66344 0.0
H8162 H 0.47058 0.67383 0.6601 0.0
C8163 C 0.52586 0.65404 0.67754 0.0
C8164 C 0.50056 0.64912 0.6593 0.0
H8165 H 0.48145 0.66412 0.64419 0.0
C8166 C 0.49301 0.64257 0.6655 0.0
C8167 C 0.49632 0.65678 0.65126 0.0
C8168 C 0.50383 0.66448 0.64458 0.0
C8169 C 0.4814 0.64429 0.66479 0.0
C8170 C 0.4772 0.65237 0.65716 0.0
C8171 C 0.4847 0.65802 0.65009 0.0
C8172 C 0.46549 0.65653 0.65772 0.0
C8173 C 0.47392 0.63813 0.67292 0.0
C8174 C 0.45626 0.64926 0.65713 0.0
C8175 C 0.44547 0.65326 0.65938 0.0
C8176 C 0.44373 0.66466 0.66185 0.0
C8177 C 0.45284 0.67206 0.66155 0.0
C8178 C 0.46362 0.66802 0.65962 0.0
H8179 H 0.47876 0.63395 0.67968 0.0
H8180 H 0.46783 0.64395 0.67688 0.0
H8181 H 0.46917 0.63156 0.66836 0.0
H8182 H 0.45741 0.64046 0.65528 0.0
H8183 H 0.43853 0.64741 0.65942 0.0
H8184 H 0.44663 0.28487 0.30986 0.0
H8185 H 0.4655 0.29097 0.31434 0.0
H8186 H 0.45396 0.3252 0.31694 0.0
H8187 H 0.4351 0.31913 0.31162 0.0
H8188 H 0.47067 0.32553 0.30484 0.0
H8189 H 0.48361 0.29942 0.34008 0.0
H8190 H 0.47829 0.28993 0.32979 0.0
H8191 H 0.4691 0.3003 0.33596 0.0
C8192 C 0.44805 0.29366 0.31167 0.0
C8193 C 0.43943 0.30153 0.31035 0.0
C8194 C 0.45886 0.29715 0.31437 0.0
C8195 C 0.46121 0.30856 0.31622 0.0
C8196 C 0.4524 0.31636 0.31559 0.0
H8197 H 0.53411 0.30919 0.3186 0.0
H8198 H 0.51554 0.31461 0.32541 0.0
C8199 C 0.44162 0.31289 0.31257 0.0
C8200 C 0.47305 0.31233 0.31701 0.0
H8201 H 0.49851 0.30293 0.32577 0.0
C8202 C 0.47672 0.32081 0.30971 0.0
C8203 C 0.48105 0.30664 0.32366 0.0
C8204 C 0.47773 0.29868 0.3329 0.0
C8205 C 0.48816 0.32276 0.30792 0.0
C8206 C 0.49611 0.31566 0.31311 0.0
C8207 C 0.49247 0.30815 0.32142 0.0
C8208 C 0.50782 0.31469 0.30897 0.0
C8209 C 0.49152 0.33219 0.30021 0.0
C8210 C 0.5098 0.31323 0.29744 0.0
C8211 C 0.52046 0.31047 0.29353 0.0
C8212 C 0.52926 0.3087 0.3011 0.0
C8213 C 0.52743 0.31049 0.31259 0.0
C8214 C 0.51682 0.31357 0.31649 0.0
H8215 H 0.48587 0.3395 0.30137 0.0
H8216 H 0.50028 0.33495 0.3017 0.0
H8217 H 0.49064 0.32942 0.29138 0.0
H8218 H 0.50299 0.31357 0.29146 0.0
H8219 H 0.5216 0.30898 0.28465 0.0
H8220 H 0.43523 0.64716 0.29478 0.0
H8221 H 0.45407 0.64043 0.29919 0.0
H8222 H 0.45819 0.66757 0.32278 0.0
H8223 H 0.4393 0.67401 0.31877 0.0
H8224 H 0.47095 0.65271 0.29369 0.0
H8225 H 0.4755 0.64408 0.33876 0.0
H8226 H 0.46194 0.64502 0.3321 0.0
H8227 H 0.46903 0.65749 0.33689 0.0
C8228 C 0.44003 0.65145 0.30118 0.0
C8229 C 0.43586 0.6612 0.30632 0.0
C8230 C 0.45078 0.64758 0.30372 0.0
C8231 C 0.45756 0.65344 0.31137 0.0
C8232 C 0.45307 0.66271 0.31708 0.0
H8233 H 0.52274 0.67715 0.3155 0.0
H8234 H 0.50356 0.67104 0.31929 0.0
C8235 C 0.44228 0.66648 0.31466 0.0
C8236 C 0.46982 0.65142 0.31167 0.0
H8237 H 0.49241 0.65107 0.32925 0.0
C8238 C 0.47562 0.65199 0.30146 0.0
C8239 C 0.47594 0.65056 0.3218 0.0
C8240 C 0.47023 0.64914 0.33298 0.0
C8241 C 0.48731 0.65257 0.30112 0.0
C8242 C 0.4934 0.65244 0.31129 0.0
C8243 C 0.48768 0.65122 0.32148 0.0
C8244 C 0.50553 0.65484 0.31137 0.0
C8245 C 0.49302 0.6541 0.28992 0.0
C8246 C 0.51308 0.64753 0.30612 0.0
C8247 C 0.52399 0.65104 0.30384 0.0
C8248 C 0.52753 0.66187 0.30686 0.0
C8249 C 0.52023 0.66879 0.313 0.0
C8250 C 0.5093 0.66529 0.31522 0.0
H8251 H 0.48695 0.65574 0.28305 0.0
H8252 H 0.49906 0.66117 0.29028 0.0
H8253 H 0.49775 0.64638 0.28779 0.0
H8254 H 0.51032 0.63938 0.30319 0.0
H8255 H 0.52947 0.64546 0.29921 0.0
loop_
_geom_bond_atom_site_label_1
_geom_bond_atom_site_label_2
_geom_bond_distance
_geom_bond_site_symmetry_2
_ccdc_geom_bond_type
C0 O1 1.306 . S
C0 O3 1.160 . S
O1 C0 1.306 . S
O1 Cd2 2.228 . S
Cd2 O1 2.228 . S
Cd2 O6 2.273 . S
Cd2 O10 2.277 . S
O3 C0 1.160 . S
O3 Cd4 2.203 . S
Cd4 O3 2.203 . S
Cd4 O6 2.411 . S
Cd4 O7 2.333 . S
Cd4 O8 2.352 . S
Cd4 O12 2.277 . S
Cd4 O13 2.356 . S
C5 O10 1.209 . S
C5 O12 1.226 . S
O6 Cd2 2.273 . S
O6 Cd4 2.411 . S
O6 C9 1.320 . S
O7 Cd4 2.333 . S
O7 C9 1.214 . S
O8 Cd4 2.352 . S
O8 C11 1.258 . S
C9 O6 1.320 . S
C9 O7 1.214 . S
O10 Cd2 2.277 . S
O10 C5 1.209 . S
C11 O8 1.258 . S
C11 O13 1.282 . S
O12 Cd4 2.277 . S
O12 C5 1.226 . S
O13 Cd4 2.356 . S
O13 C11 1.282 . S
C14 O15 1.306 . S
C14 O17 1.160 . S
O15 C14 1.306 . S
O15 Cd16 2.228 . S
Cd16 O15 2.228 . S
Cd16 O20 2.273 . S
Cd16 O24 2.277 . S
O17 C14 1.160 . S
O17 Cd18 2.203 . S
Cd18 O17 2.203 . S
Cd18 O20 2.411 . S
Cd18 O21 2.333 . S
Cd18 O22 2.352 . S
Cd18 O26 2.277 . S
Cd18 O27 2.356 . S
C19 O24 1.209 . S
C19 O26 1.226 . S
O20 Cd16 2.273 . S
O20 Cd18 2.411 . S
O20 C23 1.320 . S
O21 Cd18 2.333 . S
O21 C23 1.214 . S
O22 Cd18 2.352 . S
O22 C25 1.258 . S
C23 O20 1.320 . S
C23 O21 1.214 . S
O24 Cd16 2.277 . S
O24 C19 1.209 . S
C25 O22 1.258 . S
C25 O27 1.282 . S
O26 Cd18 2.277 . S
O26 C19 1.226 . S
O27 Cd18 2.356 . S
O27 C25 1.282 . S
C28 O29 1.306 . S
C28 O31 1.160 . S
O29 C28 1.306 . S
O29 Cd30 2.228 . S
Cd30 O29 2.228 . S
Cd30 O34 2.273 . S
Cd30 O38 2.277 . S
O31 C28 1.160 . S
O31 Cd32 2.203 . S
Cd32 O31 2.203 . S
Cd32 O34 2.411 . S
Cd32 O35 2.333 . S
Cd32 O36 2.352 . S
Cd32 O40 2.277 . S
Cd32 O41 2.356 . S
C33 O38 1.209 . S
C33 O40 1.226 . S
O34 Cd30 2.273 . S
O34 Cd32 2.411 . S
O34 C37 1.320 . S
O35 Cd32 2.333 . S
O35 C37 1.214 . S
O36 Cd32 2.352 . S
O36 C39 1.258 . S
C37 O34 1.320 . S
C37 O35 1.214 . S
O38 Cd30 2.277 . S
O38 C33 1.209 . S
C39 O36 1.258 . S
C39 O41 1.282 . S
O40 Cd32 2.277 . S
O40 C33 1.226 . S
O41 Cd32 2.356 . S
O41 C39 1.282 . S
C42 O43 1.306 . S
C42 O45 1.160 . S
O43 C42 1.306 . S
O43 Cd44 2.228 . S
Cd44 O43 2.228 . S
Cd44 O48 2.273 . S
Cd44 O52 2.277 . S
O45 C42 1.160 . S
O45 Cd46 2.203 . S
Cd46 O45 2.203 . S
Cd46 O48 2.411 . S
Cd46 O49 2.333 . S
Cd46 O50 2.352 . S
Cd46 O54 2.277 . S
Cd46 O55 2.356 . S
C47 O52 1.209 . S
C47 O54 1.226 . S
O48 Cd44 2.273 . S
O48 Cd46 2.411 . S
O48 C51 1.320 . S
O49 Cd46 2.333 . S
O49 C51 1.214 . S
O50 Cd46 2.352 . S
O50 C53 1.258 . S
C51 O48 1.320 . S
C51 O49 1.214 . S
O52 Cd44 2.277 . S
O52 C47 1.209 . S
C53 O50 1.258 . S
C53 O55 1.282 . S
O54 Cd46 2.277 . S
O54 C47 1.226 . S
O55 Cd46 2.356 . S
O55 C53 1.282 . S
C56 O57 1.306 . S
C56 O59 1.160 . S
O57 C56 1.306 . S
O57 Cd58 2.228 . S
Cd58 O57 2.228 . S
Cd58 O62 2.273 . S
Cd58 O66 2.277 . S
O59 C56 1.160 . S
O59 Cd60 2.203 . S
Cd60 O59 2.203 . S
Cd60 O62 2.411 . S
Cd60 O63 2.333 . S
Cd60 O64 2.352 . S
Cd60 O68 2.277 . S
Cd60 O69 2.356 . S
C61 O66 1.209 . S
C61 O68 1.226 . S
O62 Cd58 2.273 . S
O62 Cd60 2.411 . S
O62 C65 1.320 . S
O63 Cd60 2.333 . S
O63 C65 1.214 . S
O64 Cd60 2.352 . S
O64 C67 1.258 . S
C65 O62 1.320 . S
C65 O63 1.214 . S
O66 Cd58 2.277 . S
O66 C61 1.209 . S
C67 O64 1.258 . S
C67 O69 1.282 . S
O68 Cd60 2.277 . S
O68 C61 1.226 . S
O69 Cd60 2.356 . S
O69 C67 1.282 . S
C70 O71 1.306 . S
C70 O73 1.160 . S
O71 C70 1.306 . S
O71 Cd72 2.228 . S
Cd72 O71 2.228 . S
Cd72 O76 2.273 . S
Cd72 O80 2.277 . S
O73 C70 1.160 . S
O73 Cd74 2.203 . S
Cd74 O73 2.203 . S
Cd74 O76 2.411 . S
Cd74 O77 2.333 . S
Cd74 O78 2.352 . S
Cd74 O82 2.277 . S
Cd74 O83 2.356 . S
C75 O80 1.209 . S
C75 O82 1.226 . S
O76 Cd72 2.273 . S
O76 Cd74 2.411 . S
O76 C79 1.320 . S
O77 Cd74 2.333 . S
O77 C79 1.214 . S
O78 Cd74 2.352 . S
O78 C81 1.258 . S
C79 O76 1.320 . S
C79 O77 1.214 . S
O80 Cd72 2.277 . S
O80 C75 1.209 . S
C81 O78 1.258 . S
C81 O83 1.282 . S
O82 Cd74 2.277 . S
O82 C75 1.226 . S
O83 Cd74 2.356 . S
O83 C81 1.282 . S
C84 O85 1.306 . S
C84 O87 1.160 . S
O85 C84 1.306 . S
O85 Cd86 2.228 . S
Cd86 O85 2.228 . S
Cd86 O90 2.273 . S
Cd86 O94 2.277 . S
O87 C84 1.160 . S
O87 Cd88 2.203 . S
Cd88 O87 2.203 . S
Cd88 O90 2.411 . S
Cd88 O91 2.333 . S
Cd88 O92 2.352 . S
Cd88 O96 2.277 . S
Cd88 O97 2.356 . S
C89 O94 1.209 . S
C89 O96 1.226 . S
O90 Cd86 2.273 . S
O90 Cd88 2.411 . S
O90 C93 1.320 . S
O91 Cd88 2.333 . S
O91 C93 1.214 . S
O92 Cd88 2.352 . S
O92 C95 1.258 . S
C93 O90 1.320 . S
C93 O91 1.214 . S
O94 Cd86 2.277 . S
O94 C89 1.209 . S
C95 O92 1.258 . S
C95 O97 1.282 . S
O96 Cd88 2.277 . S
O96 C89 1.226 . S
O97 Cd88 2.356 . S
O97 C95 1.282 . S
C98 O99 1.306 . S
C98 O101 1.160 . S
O99 C98 1.306 . S
O99 Cd100 2.228 . S
Cd100 O99 2.228 . S
Cd100 O104 2.273 . S
Cd100 O108 2.277 . S
O101 C98 1.160 . S
O101 Cd102 2.203 . S
Cd102 O101 2.203 . S
Cd102 O104 2.411 . S
Cd102 O105 2.333 . S
Cd102 O106 2.352 . S
Cd102 O110 2.277 . S
Cd102 O111 2.356 . S
C103 O108 1.209 . S
C103 O110 1.226 . S
O104 Cd100 2.273 . S
O104 Cd102 2.411 . S
O104 C107 1.320 . S
O105 Cd102 2.333 . S
O105 C107 1.214 . S
O106 Cd102 2.352 . S
O106 C109 1.258 . S
C107 O104 1.320 . S
C107 O105 1.214 . S
O108 Cd100 2.277 . S
O108 C103 1.209 . S
C109 O106 1.258 . S
C109 O111 1.282 . S
O110 Cd102 2.277 . S
O110 C103 1.226 . S
O111 Cd102 2.356 . S
O111 C109 1.282 . S
C112 O113 1.306 . S
C112 O115 1.160 . S
O113 C112 1.306 . S
O113 Cd114 2.228 . S
Cd114 O113 2.228 . S
Cd114 O118 2.273 . S
Cd114 O122 2.277 . S
O115 C112 1.160 . S
O115 Cd116 2.203 . S
Cd116 O115 2.203 . S
Cd116 O118 2.411 . S
Cd116 O119 2.333 . S
Cd116 O120 2.352 . S
Cd116 O124 2.277 . S
Cd116 O125 2.356 . S
C117 O122 1.209 . S
C117 O124 1.226 . S
O118 Cd114 2.273 . S
O118 Cd116 2.411 . S
O118 C121 1.320 . S
O119 Cd116 2.333 . S
O119 C121 1.214 . S
O120 Cd116 2.352 . S
O120 C123 1.258 . S
C121 O118 1.320 . S
C121 O119 1.214 . S
O122 Cd114 2.277 . S
O122 C117 1.209 . S
C123 O120 1.258 . S
C123 O125 1.282 . S
O124 Cd116 2.277 . S
O124 C117 1.226 . S
O125 Cd116 2.356 . S
O125 C123 1.282 . S
C126 O127 1.306 . S
C126 O129 1.160 . S
O127 C126 1.306 . S
O127 Cd128 2.228 . S
Cd128 O127 2.228 . S
Cd128 O132 2.273 . S
Cd128 O136 2.277 . S
O129 C126 1.160 . S
O129 Cd130 2.203 . S
Cd130 O129 2.203 . S
Cd130 O132 2.411 . S
Cd130 O133 2.333 . S
Cd130 O134 2.352 . S
Cd130 O138 2.277 . S
Cd130 O139 2.356 . S
C131 O136 1.209 . S
C131 O138 1.226 . S
O132 Cd128 2.273 . S
O132 Cd130 2.411 . S
O132 C135 1.320 . S
O133 Cd130 2.333 . S
O133 C135 1.214 . S
O134 Cd130 2.352 . S
O134 C137 1.258 . S
C135 O132 1.320 . S
C135 O133 1.214 . S
O136 Cd128 2.277 . S
O136 C131 1.209 . S
C137 O134 1.258 . S
C137 O139 1.282 . S
O138 Cd130 2.277 . S
O138 C131 1.226 . S
O139 Cd130 2.356 . S
O139 C137 1.282 . S
C140 O141 1.306 . S
C140 O143 1.160 . S
O141 C140 1.306 . S
O141 Cd142 2.228 . S
Cd142 O141 2.228 . S
Cd142 O146 2.273 . S
Cd142 O150 2.277 . S
O143 C140 1.160 . S
O143 Cd144 2.203 . S
Cd144 O143 2.203 . S
Cd144 O146 2.411 . S
Cd144 O147 2.333 . S
Cd144 O148 2.352 . S
Cd144 O152 2.277 . S
Cd144 O153 2.356 . S
C145 O150 1.209 . S
C145 O152 1.226 . S
O146 Cd142 2.273 . S
O146 Cd144 2.411 . S
O146 C149 1.320 . S
O147 Cd144 2.333 . S
O147 C149 1.214 . S
O148 Cd144 2.352 . S
O148 C151 1.258 . S
C149 O146 1.320 . S
C149 O147 1.214 . S
O150 Cd142 2.277 . S
O150 C145 1.209 . S
C151 O148 1.258 . S
C151 O153 1.282 . S
O152 Cd144 2.277 . S
O152 C145 1.226 . S
O153 Cd144 2.356 . S
O153 C151 1.282 . S
C154 O155 1.306 . S
C154 O157 1.160 . S
O155 C154 1.306 . S
O155 Cd156 2.228 . S
Cd156 O155 2.228 . S
Cd156 O160 2.273 . S
Cd156 O164 2.277 . S
O157 C154 1.160 . S
O157 Cd158 2.203 . S
Cd158 O157 2.203 . S
Cd158 O160 2.411 . S
Cd158 O161 2.333 . S
Cd158 O162 2.352 . S
Cd158 O166 2.277 . S
Cd158 O167 2.356 . S
C159 O164 1.209 . S
C159 O166 1.226 . S
O160 Cd156 2.273 . S
O160 Cd158 2.411 . S
O160 C163 1.320 . S
O161 Cd158 2.333 . S
O161 C163 1.214 . S
O162 Cd158 2.352 . S
O162 C165 1.258 . S
C163 O160 1.320 . S
C163 O161 1.214 . S
O164 Cd156 2.277 . S
O164 C159 1.209 . S
C165 O162 1.258 . S
C165 O167 1.282 . S
O166 Cd158 2.277 . S
O166 C159 1.226 . S
O167 Cd158 2.356 . S
O167 C165 1.282 . S
C168 O169 1.306 . S
C168 O171 1.160 . S
O169 C168 1.306 . S
O169 Cd170 2.228 . S
Cd170 O169 2.228 . S
Cd170 O174 2.273 . S
Cd170 O178 2.277 . S
O171 C168 1.160 . S
O171 Cd172 2.203 . S
Cd172 O171 2.203 . S
Cd172 O174 2.411 . S
Cd172 O175 2.333 . S
Cd172 O176 2.352 . S
Cd172 O180 2.277 . S
Cd172 O181 2.356 . S
C173 O178 1.209 . S
C173 O180 1.226 . S
O174 Cd170 2.273 . S
O174 Cd172 2.411 . S
O174 C177 1.320 . S
O175 Cd172 2.333 . S
O175 C177 1.214 . S
O176 Cd172 2.352 . S
O176 C179 1.258 . S
C177 O174 1.320 . S
C177 O175 1.214 . S
O178 Cd170 2.277 . S
O178 C173 1.209 . S
C179 O176 1.258 . S
C179 O181 1.282 . S
O180 Cd172 2.277 . S
O180 C173 1.226 . S
O181 Cd172 2.356 . S
O181 C179 1.282 . S
C182 O183 1.306 . S
C182 O185 1.160 . S
O183 C182 1.306 . S
O183 Cd184 2.228 . S
Cd184 O183 2.228 . S
Cd184 O188 2.273 . S
Cd184 O192 2.277 . S
O185 C182 1.160 . S
O185 Cd186 2.203 . S
Cd186 O185 2.203 . S
Cd186 O188 2.411 . S
Cd186 O189 2.333 . S
Cd186 O190 2.352 . S
Cd186 O194 2.277 . S
Cd186 O195 2.356 . S
C187 O192 1.209 . S
C187 O194 1.226 . S
O188 Cd184 2.273 . S
O188 Cd186 2.411 . S
O188 C191 1.320 . S
O189 Cd186 2.333 . S
O189 C191 1.214 . S
O190 Cd186 2.352 . S
O190 C193 1.258 . S
C191 O188 1.320 . S
C191 O189 1.214 . S
O192 Cd184 2.277 . S
O192 C187 1.209 . S
C193 O190 1.258 . S
C193 O195 1.282 . S
O194 Cd186 2.277 . S
O194 C187 1.226 . S
O195 Cd186 2.356 . S
O195 C193 1.282 . S
C196 O197 1.306 . S
C196 O199 1.160 . S
O197 C196 1.306 . S
O197 Cd198 2.228 . S
Cd198 O197 2.228 . S
Cd198 O202 2.273 . S
Cd198 O206 2.277 . S
O199 C196 1.160 . S
O199 Cd200 2.203 . S
Cd200 O199 2.203 . S
Cd200 O202 2.411 . S
Cd200 O203 2.333 . S
Cd200 O204 2.352 . S
Cd200 O208 2.277 . S
Cd200 O209 2.356 . S
C201 O206 1.209 . S
C201 O208 1.226 . S
O202 Cd198 2.273 . S
O202 Cd200 2.411 . S
O202 C205 1.320 . S
O203 Cd200 2.333 . S
O203 C205 1.214 . S
O204 Cd200 2.352 . S
O204 C207 1.258 . S
C205 O202 1.320 . S
C205 O203 1.214 . S
O206 Cd198 2.277 . S
O206 C201 1.209 . S
C207 O204 1.258 . S
C207 O209 1.282 . S
O208 Cd200 2.277 . S
O208 C201 1.226 . S
O209 Cd200 2.356 . S
O209 C207 1.282 . S
C210 O211 1.306 . S
C210 O213 1.160 . S
O211 C210 1.306 . S
O211 Cd212 2.228 . S
Cd212 O211 2.228 . S
Cd212 O216 2.273 . S
Cd212 O220 2.277 . S
O213 C210 1.160 . S
O213 Cd214 2.203 . S
Cd214 O213 2.203 . S
Cd214 O216 2.411 . S
Cd214 O217 2.333 . S
Cd214 O218 2.352 . S
Cd214 O222 2.277 . S
Cd214 O223 2.356 . S
C215 O220 1.209 . S
C215 O222 1.226 . S
O216 Cd212 2.273 . S
O216 Cd214 2.411 . S
O216 C219 1.320 . S
O217 Cd214 2.333 . S
O217 C219 1.214 . S
O218 Cd214 2.352 . S
O218 C221 1.258 . S
C219 O216 1.320 . S
C219 O217 1.214 . S
O220 Cd212 2.277 . S
O220 C215 1.209 . S
C221 O218 1.258 . S
C221 O223 1.282 . S
O222 Cd214 2.277 . S
O222 C215 1.226 . S
O223 Cd214 2.356 . S
O223 C221 1.282 . S
C224 O225 1.306 . S
C224 O227 1.160 . S
O225 C224 1.306 . S
O225 Cd226 2.228 . S
Cd226 O225 2.228 . S
Cd226 O230 2.273 . S
Cd226 O234 2.277 . S
O227 C224 1.160 . S
O227 Cd228 2.203 . S
Cd228 O227 2.203 . S
Cd228 O230 2.411 . S
Cd228 O231 2.333 . S
Cd228 O232 2.352 . S
Cd228 O236 2.277 . S
Cd228 O237 2.356 . S
C229 O234 1.209 . S
C229 O236 1.226 . S
O230 Cd226 2.273 . S
O230 Cd228 2.411 . S
O230 C233 1.320 . S
O231 Cd228 2.333 . S
O231 C233 1.214 . S
O232 Cd228 2.352 . S
O232 C235 1.258 . S
C233 O230 1.320 . S
C233 O231 1.214 . S
O234 Cd226 2.277 . S
O234 C229 1.209 . S
C235 O232 1.258 . S
C235 O237 1.282 . S
O236 Cd228 2.277 . S
O236 C229 1.226 . S
O237 Cd228 2.356 . S
O237 C235 1.282 . S
C238 O239 1.306 . S
C238 O241 1.160 . S
O239 C238 1.306 . S
O239 Cd240 2.228 . S
Cd240 O239 2.228 . S
Cd240 O244 2.273 . S
Cd240 O248 2.277 . S
O241 C238 1.160 . S
O241 Cd242 2.203 . S
Cd242 O241 2.203 . S
Cd242 O244 2.411 . S
Cd242 O245 2.333 . S
Cd242 O246 2.352 . S
Cd242 O250 2.277 . S
Cd242 O251 2.356 . S
C243 O248 1.209 . S
C243 O250 1.226 . S
O244 Cd240 2.273 . S
O244 Cd242 2.411 . S
O244 C247 1.320 . S
O245 Cd242 2.333 . S
O245 C247 1.214 . S
O246 Cd242 2.352 . S
O246 C249 1.258 . S
C247 O244 1.320 . S
C247 O245 1.214 . S
O248 Cd240 2.277 . S
O248 C243 1.209 . S
C249 O246 1.258 . S
C249 O251 1.282 . S
O250 Cd242 2.277 . S
O250 C243 1.226 . S
O251 Cd242 2.356 . S
O251 C249 1.282 . S
C252 O253 1.306 . S
C252 O255 1.160 . S
O253 C252 1.306 . S
O253 Cd254 2.228 . S
Cd254 O253 2.228 . S
Cd254 O258 2.273 . S
Cd254 O262 2.277 . S
O255 C252 1.160 . S
O255 Cd256 2.203 . S
Cd256 O255 2.203 . S
Cd256 O258 2.411 . S
Cd256 O259 2.333 . S
Cd256 O260 2.352 . S
Cd256 O264 2.277 . S
Cd256 O265 2.356 . S
C257 O262 1.209 . S
C257 O264 1.226 . S
O258 Cd254 2.273 . S
O258 Cd256 2.411 . S
O258 C261 1.320 . S
O259 Cd256 2.333 . S
O259 C261 1.214 . S
O260 Cd256 2.352 . S
O260 C263 1.258 . S
C261 O258 1.320 . S
C261 O259 1.214 . S
O262 Cd254 2.277 . S
O262 C257 1.209 . S
C263 O260 1.258 . S
C263 O265 1.282 . S
O264 Cd256 2.277 . S
O264 C257 1.226 . S
O265 Cd256 2.356 . S
O265 C263 1.282 . S
C266 O267 1.306 . S
C266 O269 1.160 . S
O267 C266 1.306 . S
O267 Cd268 2.228 . S
Cd268 O267 2.228 . S
Cd268 O272 2.273 . S
Cd268 O276 2.277 . S
O269 C266 1.160 . S
O269 Cd270 2.203 . S
Cd270 O269 2.203 . S
Cd270 O272 2.411 . S
Cd270 O273 2.333 . S
Cd270 O274 2.352 . S
Cd270 O278 2.277 . S
Cd270 O279 2.356 . S
C271 O276 1.209 . S
C271 O278 1.226 . S
O272 Cd268 2.273 . S
O272 Cd270 2.411 . S
O272 C275 1.320 . S
O273 Cd270 2.333 . S
O273 C275 1.214 . S
O274 Cd270 2.352 . S
O274 C277 1.258 . S
C275 O272 1.320 . S
C275 O273 1.214 . S
O276 Cd268 2.277 . S
O276 C271 1.209 . S
C277 O274 1.258 . S
C277 O279 1.282 . S
O278 Cd270 2.277 . S
O278 C271 1.226 . S
O279 Cd270 2.356 . S
O279 C277 1.282 . S
C280 O281 1.306 . S
C280 O283 1.160 . S
O281 C280 1.306 . S
O281 Cd282 2.228 . S
Cd282 O281 2.228 . S
Cd282 O286 2.273 . S
Cd282 O290 2.277 . S
O283 C280 1.160 . S
O283 Cd284 2.203 . S
Cd284 O283 2.203 . S
Cd284 O286 2.411 . S
Cd284 O287 2.333 . S
Cd284 O288 2.352 . S
Cd284 O292 2.277 . S
Cd284 O293 2.356 . S
C285 O290 1.209 . S
C285 O292 1.226 . S
O286 Cd282 2.273 . S
O286 Cd284 2.411 . S
O286 C289 1.320 . S
O287 Cd284 2.333 . S
O287 C289 1.214 . S
O288 Cd284 2.352 . S
O288 C291 1.258 . S
C289 O286 1.320 . S
C289 O287 1.214 . S
O290 Cd282 2.277 . S
O290 C285 1.209 . S
C291 O288 1.258 . S
C291 O293 1.282 . S
O292 Cd284 2.277 . S
O292 C285 1.226 . S
O293 Cd284 2.356 . S
O293 C291 1.282 . S
C294 O295 1.306 . S
C294 O297 1.160 . S
O295 C294 1.306 . S
O295 Cd296 2.228 . S
Cd296 O295 2.228 . S
Cd296 O300 2.273 . S
Cd296 O304 2.277 . S
O297 C294 1.160 . S
O297 Cd298 2.203 . S
Cd298 O297 2.203 . S
Cd298 O300 2.411 . S
Cd298 O301 2.333 . S
Cd298 O302 2.352 . S
Cd298 O306 2.277 . S
Cd298 O307 2.356 . S
C299 O304 1.209 . S
C299 O306 1.226 . S
O300 Cd296 2.273 . S
O300 Cd298 2.411 . S
O300 C303 1.320 . S
O301 Cd298 2.333 . S
O301 C303 1.214 . S
O302 Cd298 2.352 . S
O302 C305 1.258 . S
C303 O300 1.320 . S
C303 O301 1.214 . S
O304 Cd296 2.277 . S
O304 C299 1.209 . S
C305 O302 1.258 . S
C305 O307 1.282 . S
O306 Cd298 2.277 . S
O306 C299 1.226 . S
O307 Cd298 2.356 . S
O307 C305 1.282 . S
C308 O309 1.306 . S
C308 O311 1.160 . S
O309 C308 1.306 . S
O309 Cd310 2.228 . S
Cd310 O309 2.228 . S
Cd310 O314 2.273 . S
Cd310 O318 2.277 . S
O311 C308 1.160 . S
O311 Cd312 2.203 . S
Cd312 O311 2.203 . S
Cd312 O314 2.411 . S
Cd312 O315 2.333 . S
Cd312 O316 2.352 . S
Cd312 O320 2.277 . S
Cd312 O321 2.356 . S
C313 O318 1.209 . S
C313 O320 1.226 . S
O314 Cd310 2.273 . S
O314 Cd312 2.411 . S
O314 C317 1.320 . S
O315 Cd312 2.333 . S
O315 C317 1.214 . S
O316 Cd312 2.352 . S
O316 C319 1.258 . S
C317 O314 1.320 . S
C317 O315 1.214 . S
O318 Cd310 2.277 . S
O318 C313 1.209 . S
C319 O316 1.258 . S
C319 O321 1.282 . S
O320 Cd312 2.277 . S
O320 C313 1.226 . S
O321 Cd312 2.356 . S
O321 C319 1.282 . S
C322 O323 1.306 . S
C322 O325 1.160 . S
O323 C322 1.306 . S
O323 Cd324 2.228 . S
Cd324 O323 2.228 . S
Cd324 O328 2.273 . S
Cd324 O332 2.277 . S
O325 C322 1.160 . S
O325 Cd326 2.203 . S
Cd326 O325 2.203 . S
Cd326 O328 2.411 . S
Cd326 O329 2.333 . S
Cd326 O330 2.352 . S
Cd326 O334 2.277 . S
Cd326 O335 2.356 . S
C327 O332 1.209 . S
C327 O334 1.226 . S
O328 Cd324 2.273 . S
O328 Cd326 2.411 . S
O328 C331 1.320 . S
O329 Cd326 2.333 . S
O329 C331 1.214 . S
O330 Cd326 2.352 . S
O330 C333 1.258 . S
C331 O328 1.320 . S
C331 O329 1.214 . S
O332 Cd324 2.277 . S
O332 C327 1.209 . S
C333 O330 1.258 . S
C333 O335 1.282 . S
O334 Cd326 2.277 . S
O334 C327 1.226 . S
O335 Cd326 2.356 . S
O335 C333 1.282 . S
C336 O337 1.306 . S
C336 O339 1.160 . S
O337 C336 1.306 . S
O337 Cd338 2.228 . S
Cd338 O337 2.228 . S
Cd338 O342 2.273 . S
Cd338 O346 2.277 . S
O339 C336 1.160 . S
O339 Cd340 2.203 . S
Cd340 O339 2.203 . S
Cd340 O342 2.411 . S
Cd340 O343 2.333 . S
Cd340 O344 2.352 . S
Cd340 O348 2.277 . S
Cd340 O349 2.356 . S
C341 O346 1.209 . S
C341 O348 1.226 . S
O342 Cd338 2.273 . S
O342 Cd340 2.411 . S
O342 C345 1.320 . S
O343 Cd340 2.333 . S
O343 C345 1.214 . S
O344 Cd340 2.352 . S
O344 C347 1.258 . S
C345 O342 1.320 . S
C345 O343 1.214 . S
O346 Cd338 2.277 . S
O346 C341 1.209 . S
C347 O344 1.258 . S
C347 O349 1.282 . S
O348 Cd340 2.277 . S
O348 C341 1.226 . S
O349 Cd340 2.356 . S
O349 C347 1.282 . S
C350 O351 1.306 . S
C350 O353 1.160 . S
O351 C350 1.306 . S
O351 Cd352 2.228 . S
Cd352 O351 2.228 . S
Cd352 O356 2.273 . S
Cd352 O360 2.277 . S
O353 C350 1.160 . S
O353 Cd354 2.203 . S
Cd354 O353 2.203 . S
Cd354 O356 2.411 . S
Cd354 O357 2.333 . S
Cd354 O358 2.352 . S
Cd354 O362 2.277 . S
Cd354 O363 2.356 . S
C355 O360 1.209 . S
C355 O362 1.226 . S
O356 Cd352 2.273 . S
O356 Cd354 2.411 . S
O356 C359 1.320 . S
O357 Cd354 2.333 . S
O357 C359 1.214 . S
O358 Cd354 2.352 . S
O358 C361 1.258 . S
C359 O356 1.320 . S
C359 O357 1.214 . S
O360 Cd352 2.277 . S
O360 C355 1.209 . S
C361 O358 1.258 . S
C361 O363 1.282 . S
O362 Cd354 2.277 . S
O362 C355 1.226 . S
O363 Cd354 2.356 . S
O363 C361 1.282 . S
C364 O365 1.306 . S
C364 O367 1.160 . S
O365 C364 1.306 . S
O365 Cd366 2.228 . S
Cd366 O365 2.228 . S
Cd366 O370 2.273 . S
Cd366 O374 2.277 . S
O367 C364 1.160 . S
O367 Cd368 2.203 . S
Cd368 O367 2.203 . S
Cd368 O370 2.411 . S
Cd368 O371 2.333 . S
Cd368 O372 2.352 . S
Cd368 O376 2.277 . S
Cd368 O377 2.356 . S
C369 O374 1.209 . S
C369 O376 1.226 . S
O370 Cd366 2.273 . S
O370 Cd368 2.411 . S
O370 C373 1.320 . S
O371 Cd368 2.333 . S
O371 C373 1.214 . S
O372 Cd368 2.352 . S
O372 C375 1.258 . S
C373 O370 1.320 . S
C373 O371 1.214 . S
O374 Cd366 2.277 . S
O374 C369 1.209 . S
C375 O372 1.258 . S
C375 O377 1.282 . S
O376 Cd368 2.277 . S
O376 C369 1.226 . S
O377 Cd368 2.356 . S
O377 C375 1.282 . S
C378 O379 1.306 . S
C378 O381 1.160 . S
O379 C378 1.306 . S
O379 Cd380 2.228 . S
Cd380 O379 2.228 . S
Cd380 O384 2.273 . S
Cd380 O388 2.277 . S
O381 C378 1.160 . S
O381 Cd382 2.203 . S
Cd382 O381 2.203 . S
Cd382 O384 2.411 . S
Cd382 O385 2.333 . S
Cd382 O386 2.352 . S
Cd382 O390 2.277 . S
Cd382 O391 2.356 . S
C383 O388 1.209 . S
C383 O390 1.226 . S
O384 Cd380 2.273 . S
O384 Cd382 2.411 . S
O384 C387 1.320 . S
O385 Cd382 2.333 . S
O385 C387 1.214 . S
O386 Cd382 2.352 . S
O386 C389 1.258 . S
C387 O384 1.320 . S
C387 O385 1.214 . S
O388 Cd380 2.277 . S
O388 C383 1.209 . S
C389 O386 1.258 . S
C389 O391 1.282 . S
O390 Cd382 2.277 . S
O390 C383 1.226 . S
O391 Cd382 2.356 . S
O391 C389 1.282 . S
C392 O393 1.306 . S
C392 O395 1.160 . S
O393 C392 1.306 . S
O393 Cd394 2.228 . S
Cd394 O393 2.228 . S
Cd394 O398 2.273 . S
Cd394 O402 2.277 . S
O395 C392 1.160 . S
O395 Cd396 2.203 . S
Cd396 O395 2.203 . S
Cd396 O398 2.411 . S
Cd396 O399 2.333 . S
Cd396 O400 2.352 . S
Cd396 O404 2.277 . S
Cd396 O405 2.356 . S
C397 O402 1.209 . S
C397 O404 1.226 . S
O398 Cd394 2.273 . S
O398 Cd396 2.411 . S
O398 C401 1.320 . S
O399 Cd396 2.333 . S
O399 C401 1.214 . S
O400 Cd396 2.352 . S
O400 C403 1.258 . S
C401 O398 1.320 . S
C401 O399 1.214 . S
O402 Cd394 2.277 . S
O402 C397 1.209 . S
C403 O400 1.258 . S
C403 O405 1.282 . S
O404 Cd396 2.277 . S
O404 C397 1.226 . S
O405 Cd396 2.356 . S
O405 C403 1.282 . S
C406 O407 1.306 . S
C406 O409 1.160 . S
O407 C406 1.306 . S
O407 Cd408 2.228 . S
Cd408 O407 2.228 . S
Cd408 O412 2.273 . S
Cd408 O416 2.277 . S
O409 C406 1.160 . S
O409 Cd410 2.203 . S
Cd410 O409 2.203 . S
Cd410 O412 2.411 . S
Cd410 O413 2.333 . S
Cd410 O414 2.352 . S
Cd410 O418 2.277 . S
Cd410 O419 2.356 . S
C411 O416 1.209 . S
C411 O418 1.226 . S
O412 Cd408 2.273 . S
O412 Cd410 2.411 . S
O412 C415 1.320 . S
O413 Cd410 2.333 . S
O413 C415 1.214 . S
O414 Cd410 2.352 . S
O414 C417 1.258 . S
C415 O412 1.320 . S
C415 O413 1.214 . S
O416 Cd408 2.277 . S
O416 C411 1.209 . S
C417 O414 1.258 . S
C417 O419 1.282 . S
O418 Cd410 2.277 . S
O418 C411 1.226 . S
O419 Cd410 2.356 . S
O419 C417 1.282 . S
C420 O421 1.306 . S
C420 O423 1.160 . S
O421 C420 1.306 . S
O421 Cd422 2.228 . S
Cd422 O421 2.228 . S
Cd422 O426 2.273 . S
Cd422 O430 2.277 . S
O423 C420 1.160 . S
O423 Cd424 2.203 . S
Cd424 O423 2.203 . S
Cd424 O426 2.411 . S
Cd424 O427 2.333 . S
Cd424 O428 2.352 . S
Cd424 O432 2.277 . S
Cd424 O433 2.356 . S
C425 O430 1.209 . S
C425 O432 1.226 . S
O426 Cd422 2.273 . S
O426 Cd424 2.411 . S
O426 C429 1.320 . S
O427 Cd424 2.333 . S
O427 C429 1.214 . S
O428 Cd424 2.352 . S
O428 C431 1.258 . S
C429 O426 1.320 . S
C429 O427 1.214 . S
O430 Cd422 2.277 . S
O430 C425 1.209 . S
C431 O428 1.258 . S
C431 O433 1.282 . S
O432 Cd424 2.277 . S
O432 C425 1.226 . S
O433 Cd424 2.356 . S
O433 C431 1.282 . S
C434 O435 1.306 . S
C434 O437 1.160 . S
O435 C434 1.306 . S
O435 Cd436 2.228 . S
Cd436 O435 2.228 . S
Cd436 O440 2.273 . S
Cd436 O444 2.277 . S
O437 C434 1.160 . S
O437 Cd438 2.203 . S
Cd438 O437 2.203 . S
Cd438 O440 2.411 . S
Cd438 O441 2.333 . S
Cd438 O442 2.352 . S
Cd438 O446 2.277 . S
Cd438 O447 2.356 . S
C439 O444 1.209 . S
C439 O446 1.226 . S
O440 Cd436 2.273 . S
O440 Cd438 2.411 . S
O440 C443 1.320 . S
O441 Cd438 2.333 . S
O441 C443 1.214 . S
O442 Cd438 2.352 . S
O442 C445 1.258 . S
C443 O440 1.320 . S
C443 O441 1.214 . S
O444 Cd436 2.277 . S
O444 C439 1.209 . S
C445 O442 1.258 . S
C445 O447 1.282 . S
O446 Cd438 2.277 . S
O446 C439 1.226 . S
O447 Cd438 2.356 . S
O447 C445 1.282 . S
C448 O449 1.306 . S
C448 O451 1.160 . S
O449 C448 1.306 . S
O449 Cd450 2.228 . S
Cd450 O449 2.228 . S
Cd450 O454 2.273 . S
Cd450 O458 2.277 . S
O451 C448 1.160 . S
O451 Cd452 2.203 . S
Cd452 O451 2.203 . S
Cd452 O454 2.411 . S
Cd452 O455 2.333 . S
Cd452 O456 2.352 . S
Cd452 O460 2.277 . S
Cd452 O461 2.356 . S
C453 O458 1.209 . S
C453 O460 1.226 . S
O454 Cd450 2.273 . S
O454 Cd452 2.411 . S
O454 C457 1.320 . S
O455 Cd452 2.333 . S
O455 C457 1.214 . S
O456 Cd452 2.352 . S
O456 C459 1.258 . S
C457 O454 1.320 . S
C457 O455 1.214 . S
O458 Cd450 2.277 . S
O458 C453 1.209 . S
C459 O456 1.258 . S
C459 O461 1.282 . S
O460 Cd452 2.277 . S
O460 C453 1.226 . S
O461 Cd452 2.356 . S
O461 C459 1.282 . S
C462 O463 1.306 . S
C462 O465 1.160 . S
O463 C462 1.306 . S
O463 Cd464 2.228 . S
Cd464 O463 2.228 . S
Cd464 O468 2.273 . S
Cd464 O472 2.277 . S
O465 C462 1.160 . S
O465 Cd466 2.203 . S
Cd466 O465 2.203 . S
Cd466 O468 2.411 . S
Cd466 O469 2.333 . S
Cd466 O470 2.352 . S
Cd466 O474 2.277 . S
Cd466 O475 2.356 . S
C467 O472 1.209 . S
C467 O474 1.226 . S
O468 Cd464 2.273 . S
O468 Cd466 2.411 . S
O468 C471 1.320 . S
O469 Cd466 2.333 . S
O469 C471 1.214 . S
O470 Cd466 2.352 . S
O470 C473 1.258 . S
C471 O468 1.320 . S
C471 O469 1.214 . S
O472 Cd464 2.277 . S
O472 C467 1.209 . S
C473 O470 1.258 . S
C473 O475 1.282 . S
O474 Cd466 2.277 . S
O474 C467 1.226 . S
O475 Cd466 2.356 . S
O475 C473 1.282 . S
C476 O477 1.306 . S
C476 O479 1.160 . S
O477 C476 1.306 . S
O477 Cd478 2.228 . S
Cd478 O477 2.228 . S
Cd478 O482 2.273 . S
Cd478 O486 2.277 . S
O479 C476 1.160 . S
O479 Cd480 2.203 . S
Cd480 O479 2.203 . S
Cd480 O482 2.411 . S
Cd480 O483 2.333 . S
Cd480 O484 2.352 . S
Cd480 O488 2.277 . S
Cd480 O489 2.356 . S
C481 O486 1.209 . S
C481 O488 1.226 . S
O482 Cd478 2.273 . S
O482 Cd480 2.411 . S
O482 C485 1.320 . S
O483 Cd480 2.333 . S
O483 C485 1.214 . S
O484 Cd480 2.352 . S
O484 C487 1.258 . S
C485 O482 1.320 . S
C485 O483 1.214 . S
O486 Cd478 2.277 . S
O486 C481 1.209 . S
C487 O484 1.258 . S
C487 O489 1.282 . S
O488 Cd480 2.277 . S
O488 C481 1.226 . S
O489 Cd480 2.356 . S
O489 C487 1.282 . S
C490 O491 1.306 . S
C490 O493 1.160 . S
O491 C490 1.306 . S
O491 Cd492 2.228 . S
Cd492 O491 2.228 . S
Cd492 O496 2.273 . S
Cd492 O500 2.277 . S
O493 C490 1.160 . S
O493 Cd494 2.203 . S
Cd494 O493 2.203 . S
Cd494 O496 2.411 . S
Cd494 O497 2.333 . S
Cd494 O498 2.352 . S
Cd494 O502 2.277 . S
Cd494 O503 2.356 . S
C495 O500 1.209 . S
C495 O502 1.226 . S
O496 Cd492 2.273 . S
O496 Cd494 2.411 . S
O496 C499 1.320 . S
O497 Cd494 2.333 . S
O497 C499 1.214 . S
O498 Cd494 2.352 . S
O498 C501 1.258 . S
C499 O496 1.320 . S
C499 O497 1.214 . S
O500 Cd492 2.277 . S
O500 C495 1.209 . S
C501 O498 1.258 . S
C501 O503 1.282 . S
O502 Cd494 2.277 . S
O502 C495 1.226 . S
O503 Cd494 2.356 . S
O503 C501 1.282 . S
C504 O505 1.306 . S
C504 O507 1.160 . S
O505 C504 1.306 . S
O505 Cd506 2.228 . S
Cd506 O505 2.228 . S
Cd506 O510 2.273 . S
Cd506 O514 2.277 . S
O507 C504 1.160 . S
O507 Cd508 2.203 . S
Cd508 O507 2.203 . S
Cd508 O510 2.411 . S
Cd508 O511 2.333 . S
Cd508 O512 2.352 . S
Cd508 O516 2.277 . S
Cd508 O517 2.356 . S
C509 O514 1.209 . S
C509 O516 1.226 . S
O510 Cd506 2.273 . S
O510 Cd508 2.411 . S
O510 C513 1.320 . S
O511 Cd508 2.333 . S
O511 C513 1.214 . S
O512 Cd508 2.352 . S
O512 C515 1.258 . S
C513 O510 1.320 . S
C513 O511 1.214 . S
O514 Cd506 2.277 . S
O514 C509 1.209 . S
C515 O512 1.258 . S
C515 O517 1.282 . S
O516 Cd508 2.277 . S
O516 C509 1.226 . S
O517 Cd508 2.356 . S
O517 C515 1.282 . S
C518 O519 1.306 . S
C518 O521 1.160 . S
O519 C518 1.306 . S
O519 Cd520 2.228 . S
Cd520 O519 2.228 . S
Cd520 O524 2.273 . S
Cd520 O528 2.277 . S
O521 C518 1.160 . S
O521 Cd522 2.203 . S
Cd522 O521 2.203 . S
Cd522 O524 2.411 . S
Cd522 O525 2.333 . S
Cd522 O526 2.352 . S
Cd522 O530 2.277 . S
Cd522 O531 2.356 . S
C523 O528 1.209 . S
C523 O530 1.226 . S
O524 Cd520 2.273 . S
O524 Cd522 2.411 . S
O524 C527 1.320 . S
O525 Cd522 2.333 . S
O525 C527 1.214 . S
O526 Cd522 2.352 . S
O526 C529 1.258 . S
C527 O524 1.320 . S
C527 O525 1.214 . S
O528 Cd520 2.277 . S
O528 C523 1.209 . S
C529 O526 1.258 . S
C529 O531 1.282 . S
O530 Cd522 2.277 . S
O530 C523 1.226 . S
O531 Cd522 2.356 . S
O531 C529 1.282 . S
C532 O533 1.306 . S
C532 O535 1.160 . S
O533 C532 1.306 . S
O533 Cd534 2.228 . S
Cd534 O533 2.228 . S
Cd534 O538 2.273 . S
Cd534 O542 2.277 . S
O535 C532 1.160 . S
O535 Cd536 2.203 . S
Cd536 O535 2.203 . S
Cd536 O538 2.411 . S
Cd536 O539 2.333 . S
Cd536 O540 2.352 . S
Cd536 O544 2.277 . S
Cd536 O545 2.356 . S
C537 O542 1.209 . S
C537 O544 1.226 . S
O538 Cd534 2.273 . S
O538 Cd536 2.411 . S
O538 C541 1.320 . S
O539 Cd536 2.333 . S
O539 C541 1.214 . S
O540 Cd536 2.352 . S
O540 C543 1.258 . S
C541 O538 1.320 . S
C541 O539 1.214 . S
O542 Cd534 2.277 . S
O542 C537 1.209 . S
C543 O540 1.258 . S
C543 O545 1.282 . S
O544 Cd536 2.277 . S
O544 C537 1.226 . S
O545 Cd536 2.356 . S
O545 C543 1.282 . S
C546 O547 1.306 . S
C546 O549 1.160 . S
O547 C546 1.306 . S
O547 Cd548 2.228 . S
Cd548 O547 2.228 . S
Cd548 O552 2.273 . S
Cd548 O556 2.277 . S
O549 C546 1.160 . S
O549 Cd550 2.203 . S
Cd550 O549 2.203 . S
Cd550 O552 2.411 . S
Cd550 O553 2.333 . S
Cd550 O554 2.352 . S
Cd550 O558 2.277 . S
Cd550 O559 2.356 . S
C551 O556 1.209 . S
C551 O558 1.226 . S
O552 Cd548 2.273 . S
O552 Cd550 2.411 . S
O552 C555 1.320 . S
O553 Cd550 2.333 . S
O553 C555 1.214 . S
O554 Cd550 2.352 . S
O554 C557 1.258 . S
C555 O552 1.320 . S
C555 O553 1.214 . S
O556 Cd548 2.277 . S
O556 C551 1.209 . S
C557 O554 1.258 . S
C557 O559 1.282 . S
O558 Cd550 2.277 . S
O558 C551 1.226 . S
O559 Cd550 2.356 . S
O559 C557 1.282 . S
C560 O561 1.306 . S
C560 O563 1.160 . S
O561 C560 1.306 . S
O561 Cd562 2.228 . S
Cd562 O561 2.228 . S
Cd562 O566 2.273 . S
Cd562 O570 2.277 . S
O563 C560 1.160 . S
O563 Cd564 2.203 . S
Cd564 O563 2.203 . S
Cd564 O566 2.411 . S
Cd564 O567 2.333 . S
Cd564 O568 2.352 . S
Cd564 O572 2.277 . S
Cd564 O573 2.356 . S
C565 O570 1.209 . S
C565 O572 1.226 . S
O566 Cd562 2.273 . S
O566 Cd564 2.411 . S
O566 C569 1.320 . S
O567 Cd564 2.333 . S
O567 C569 1.214 . S
O568 Cd564 2.352 . S
O568 C571 1.258 . S
C569 O566 1.320 . S
C569 O567 1.214 . S
O570 Cd562 2.277 . S
O570 C565 1.209 . S
C571 O568 1.258 . S
C571 O573 1.282 . S
O572 Cd564 2.277 . S
O572 C565 1.226 . S
O573 Cd564 2.356 . S
O573 C571 1.282 . S
C574 O575 1.306 . S
C574 O577 1.160 . S
O575 C574 1.306 . S
O575 Cd576 2.228 . S
Cd576 O575 2.228 . S
Cd576 O580 2.273 . S
Cd576 O584 2.277 . S
O577 C574 1.160 . S
O577 Cd578 2.203 . S
Cd578 O577 2.203 . S
Cd578 O580 2.411 . S
Cd578 O581 2.333 . S
Cd578 O582 2.352 . S
Cd578 O586 2.277 . S
Cd578 O587 2.356 . S
C579 O584 1.209 . S
C579 O586 1.226 . S
O580 Cd576 2.273 . S
O580 Cd578 2.411 . S
O580 C583 1.320 . S
O581 Cd578 2.333 . S
O581 C583 1.214 . S
O582 Cd578 2.352 . S
O582 C585 1.258 . S
C583 O580 1.320 . S
C583 O581 1.214 . S
O584 Cd576 2.277 . S
O584 C579 1.209 . S
C585 O582 1.258 . S
C585 O587 1.282 . S
O586 Cd578 2.277 . S
O586 C579 1.226 . S
O587 Cd578 2.356 . S
O587 C585 1.282 . S
C588 O589 1.306 . S
C588 O591 1.160 . S
O589 C588 1.306 . S
O589 Cd590 2.228 . S
Cd590 O589 2.228 . S
Cd590 O594 2.273 . S
Cd590 O598 2.277 . S
O591 C588 1.160 . S
O591 Cd592 2.203 . S
Cd592 O591 2.203 . S
Cd592 O594 2.411 . S
Cd592 O595 2.333 . S
Cd592 O596 2.352 . S
Cd592 O600 2.277 . S
Cd592 O601 2.356 . S
C593 O598 1.209 . S
C593 O600 1.226 . S
O594 Cd590 2.273 . S
O594 Cd592 2.411 . S
O594 C597 1.320 . S
O595 Cd592 2.333 . S
O595 C597 1.214 . S
O596 Cd592 2.352 . S
O596 C599 1.258 . S
C597 O594 1.320 . S
C597 O595 1.214 . S
O598 Cd590 2.277 . S
O598 C593 1.209 . S
C599 O596 1.258 . S
C599 O601 1.282 . S
O600 Cd592 2.277 . S
O600 C593 1.226 . S
O601 Cd592 2.356 . S
O601 C599 1.282 . S
C602 O603 1.306 . S
C602 O605 1.160 . S
O603 C602 1.306 . S
O603 Cd604 2.228 . S
Cd604 O603 2.228 . S
Cd604 O608 2.273 . S
Cd604 O612 2.277 . S
O605 C602 1.160 . S
O605 Cd606 2.203 . S
Cd606 O605 2.203 . S
Cd606 O608 2.411 . S
Cd606 O609 2.333 . S
Cd606 O610 2.352 . S
Cd606 O614 2.277 . S
Cd606 O615 2.356 . S
C607 O612 1.209 . S
C607 O614 1.226 . S
O608 Cd604 2.273 . S
O608 Cd606 2.411 . S
O608 C611 1.320 . S
O609 Cd606 2.333 . S
O609 C611 1.214 . S
O610 Cd606 2.352 . S
O610 C613 1.258 . S
C611 O608 1.320 . S
C611 O609 1.214 . S
O612 Cd604 2.277 . S
O612 C607 1.209 . S
C613 O610 1.258 . S
C613 O615 1.282 . S
O614 Cd606 2.277 . S
O614 C607 1.226 . S
O615 Cd606 2.356 . S
O615 C613 1.282 . S
C616 O617 1.306 . S
C616 O619 1.160 . S
O617 C616 1.306 . S
O617 Cd618 2.228 . S
Cd618 O617 2.228 . S
Cd618 O622 2.273 . S
Cd618 O626 2.277 . S
O619 C616 1.160 . S
O619 Cd620 2.203 . S
Cd620 O619 2.203 . S
Cd620 O622 2.411 . S
Cd620 O623 2.333 . S
Cd620 O624 2.352 . S
Cd620 O628 2.277 . S
Cd620 O629 2.356 . S
C621 O626 1.209 . S
C621 O628 1.226 . S
O622 Cd618 2.273 . S
O622 Cd620 2.411 . S
O622 C625 1.320 . S
O623 Cd620 2.333 . S
O623 C625 1.214 . S
O624 Cd620 2.352 . S
O624 C627 1.258 . S
C625 O622 1.320 . S
C625 O623 1.214 . S
O626 Cd618 2.277 . S
O626 C621 1.209 . S
C627 O624 1.258 . S
C627 O629 1.282 . S
O628 Cd620 2.277 . S
O628 C621 1.226 . S
O629 Cd620 2.356 . S
O629 C627 1.282 . S
C630 O631 1.306 . S
C630 O633 1.160 . S
O631 C630 1.306 . S
O631 Cd632 2.228 . S
Cd632 O631 2.228 . S
Cd632 O636 2.273 . S
Cd632 O640 2.277 . S
O633 C630 1.160 . S
O633 Cd634 2.203 . S
Cd634 O633 2.203 . S
Cd634 O636 2.411 . S
Cd634 O637 2.333 . S
Cd634 O638 2.352 . S
Cd634 O642 2.277 . S
Cd634 O643 2.356 . S
C635 O640 1.209 . S
C635 O642 1.226 . S
O636 Cd632 2.273 . S
O636 Cd634 2.411 . S
O636 C639 1.320 . S
O637 Cd634 2.333 . S
O637 C639 1.214 . S
O638 Cd634 2.352 . S
O638 C641 1.258 . S
C639 O636 1.320 . S
C639 O637 1.214 . S
O640 Cd632 2.277 . S
O640 C635 1.209 . S
C641 O638 1.258 . S
C641 O643 1.282 . S
O642 Cd634 2.277 . S
O642 C635 1.226 . S
O643 Cd634 2.356 . S
O643 C641 1.282 . S
C644 O645 1.306 . S
C644 O647 1.160 . S
O645 C644 1.306 . S
O645 Cd646 2.228 . S
Cd646 O645 2.228 . S
Cd646 O650 2.273 . S
Cd646 O654 2.277 . S
O647 C644 1.160 . S
O647 Cd648 2.203 . S
Cd648 O647 2.203 . S
Cd648 O650 2.411 . S
Cd648 O651 2.333 . S
Cd648 O652 2.352 . S
Cd648 O656 2.277 . S
Cd648 O657 2.356 . S
C649 O654 1.209 . S
C649 O656 1.226 . S
O650 Cd646 2.273 . S
O650 Cd648 2.411 . S
O650 C653 1.320 . S
O651 Cd648 2.333 . S
O651 C653 1.214 . S
O652 Cd648 2.352 . S
O652 C655 1.258 . S
C653 O650 1.320 . S
C653 O651 1.214 . S
O654 Cd646 2.277 . S
O654 C649 1.209 . S
C655 O652 1.258 . S
C655 O657 1.282 . S
O656 Cd648 2.277 . S
O656 C649 1.226 . S
O657 Cd648 2.356 . S
O657 C655 1.282 . S
C658 O659 1.306 . S
C658 O661 1.160 . S
O659 C658 1.306 . S
O659 Cd660 2.228 . S
Cd660 O659 2.228 . S
Cd660 O664 2.273 . S
Cd660 O668 2.277 . S
O661 C658 1.160 . S
O661 Cd662 2.203 . S
Cd662 O661 2.203 . S
Cd662 O664 2.411 . S
Cd662 O665 2.333 . S
Cd662 O666 2.352 . S
Cd662 O670 2.277 . S
Cd662 O671 2.356 . S
C663 O668 1.209 . S
C663 O670 1.226 . S
O664 Cd660 2.273 . S
O664 Cd662 2.411 . S
O664 C667 1.320 . S
O665 Cd662 2.333 . S
O665 C667 1.214 . S
O666 Cd662 2.352 . S
O666 C669 1.258 . S
C667 O664 1.320 . S
C667 O665 1.214 . S
O668 Cd660 2.277 . S
O668 C663 1.209 . S
C669 O666 1.258 . S
C669 O671 1.282 . S
O670 Cd662 2.277 . S
O670 C663 1.226 . S
O671 Cd662 2.356 . S
O671 C669 1.282 . S
C672 O673 1.306 . S
C672 O675 1.160 . S
O673 C672 1.306 . S
O673 Cd674 2.228 . S
Cd674 O673 2.228 . S
Cd674 O678 2.273 . S
Cd674 O682 2.277 . S
O675 C672 1.160 . S
O675 Cd676 2.203 . S
Cd676 O675 2.203 . S
Cd676 O678 2.411 . S
Cd676 O679 2.333 . S
Cd676 O680 2.352 . S
Cd676 O684 2.277 . S
Cd676 O685 2.356 . S
C677 O682 1.209 . S
C677 O684 1.226 . S
O678 Cd674 2.273 . S
O678 Cd676 2.411 . S
O678 C681 1.320 . S
O679 Cd676 2.333 . S
O679 C681 1.214 . S
O680 Cd676 2.352 . S
O680 C683 1.258 . S
C681 O678 1.320 . S
C681 O679 1.214 . S
O682 Cd674 2.277 . S
O682 C677 1.209 . S
C683 O680 1.258 . S
C683 O685 1.282 . S
O684 Cd676 2.277 . S
O684 C677 1.226 . S
O685 Cd676 2.356 . S
O685 C683 1.282 . S
C686 O687 1.306 . S
C686 O689 1.160 . S
O687 C686 1.306 . S
O687 Cd688 2.228 . S
Cd688 O687 2.228 . S
Cd688 O692 2.273 . S
Cd688 O696 2.277 . S
O689 C686 1.160 . S
O689 Cd690 2.203 . S
Cd690 O689 2.203 . S
Cd690 O692 2.411 . S
Cd690 O693 2.333 . S
Cd690 O694 2.352 . S
Cd690 O698 2.277 . S
Cd690 O699 2.356 . S
C691 O696 1.209 . S
C691 O698 1.226 . S
O692 Cd688 2.273 . S
O692 Cd690 2.411 . S
O692 C695 1.320 . S
O693 Cd690 2.333 . S
O693 C695 1.214 . S
O694 Cd690 2.352 . S
O694 C697 1.258 . S
C695 O692 1.320 . S
C695 O693 1.214 . S
O696 Cd688 2.277 . S
O696 C691 1.209 . S
C697 O694 1.258 . S
C697 O699 1.282 . S
O698 Cd690 2.277 . S
O698 C691 1.226 . S
O699 Cd690 2.356 . S
O699 C697 1.282 . S
C700 O701 1.306 . S
C700 O703 1.160 . S
O701 C700 1.306 . S
O701 Cd702 2.228 . S
Cd702 O701 2.228 . S
Cd702 O706 2.273 . S
Cd702 O710 2.277 . S
O703 C700 1.160 . S
O703 Cd704 2.203 . S
Cd704 O703 2.203 . S
Cd704 O706 2.411 . S
Cd704 O707 2.333 . S
Cd704 O708 2.352 . S
Cd704 O712 2.277 . S
Cd704 O713 2.356 . S
C705 O710 1.209 . S
C705 O712 1.226 . S
O706 Cd702 2.273 . S
O706 Cd704 2.411 . S
O706 C709 1.320 . S
O707 Cd704 2.333 . S
O707 C709 1.214 . S
O708 Cd704 2.352 . S
O708 C711 1.258 . S
C709 O706 1.320 . S
C709 O707 1.214 . S
O710 Cd702 2.277 . S
O710 C705 1.209 . S
C711 O708 1.258 . S
C711 O713 1.282 . S
O712 Cd704 2.277 . S
O712 C705 1.226 . S
O713 Cd704 2.356 . S
O713 C711 1.282 . S
C714 O715 1.306 . S
C714 O717 1.160 . S
O715 C714 1.306 . S
O715 Cd716 2.228 . S
Cd716 O715 2.228 . S
Cd716 O720 2.273 . S
Cd716 O724 2.277 . S
O717 C714 1.160 . S
O717 Cd718 2.203 . S
Cd718 O717 2.203 . S
Cd718 O720 2.411 . S
Cd718 O721 2.333 . S
Cd718 O722 2.352 . S
Cd718 O726 2.277 . S
Cd718 O727 2.356 . S
C719 O724 1.209 . S
C719 O726 1.226 . S
O720 Cd716 2.273 . S
O720 Cd718 2.411 . S
O720 C723 1.320 . S
O721 Cd718 2.333 . S
O721 C723 1.214 . S
O722 Cd718 2.352 . S
O722 C725 1.258 . S
C723 O720 1.320 . S
C723 O721 1.214 . S
O724 Cd716 2.277 . S
O724 C719 1.209 . S
C725 O722 1.258 . S
C725 O727 1.282 . S
O726 Cd718 2.277 . S
O726 C719 1.226 . S
O727 Cd718 2.356 . S
O727 C725 1.282 . S
C728 O729 1.306 . S
C728 O731 1.160 . S
O729 C728 1.306 . S
O729 Cd730 2.228 . S
Cd730 O729 2.228 . S
Cd730 O734 2.273 . S
Cd730 O738 2.277 . S
O731 C728 1.160 . S
O731 Cd732 2.203 . S
Cd732 O731 2.203 . S
Cd732 O734 2.411 . S
Cd732 O735 2.333 . S
Cd732 O736 2.352 . S
Cd732 O740 2.277 . S
Cd732 O741 2.356 . S
C733 O738 1.209 . S
C733 O740 1.226 . S
O734 Cd730 2.273 . S
O734 Cd732 2.411 . S
O734 C737 1.320 . S
O735 Cd732 2.333 . S
O735 C737 1.214 . S
O736 Cd732 2.352 . S
O736 C739 1.258 . S
C737 O734 1.320 . S
C737 O735 1.214 . S
O738 Cd730 2.277 . S
O738 C733 1.209 . S
C739 O736 1.258 . S
C739 O741 1.282 . S
O740 Cd732 2.277 . S
O740 C733 1.226 . S
O741 Cd732 2.356 . S
O741 C739 1.282 . S
C742 O743 1.306 . S
C742 O745 1.160 . S
O743 C742 1.306 . S
O743 Cd744 2.228 . S
Cd744 O743 2.228 . S
Cd744 O748 2.273 . S
Cd744 O752 2.277 . S
O745 C742 1.160 . S
O745 Cd746 2.203 . S
Cd746 O745 2.203 . S
Cd746 O748 2.411 . S
Cd746 O749 2.333 . S
Cd746 O750 2.352 . S
Cd746 O754 2.277 . S
Cd746 O755 2.356 . S
C747 O752 1.209 . S
C747 O754 1.226 . S
O748 Cd744 2.273 . S
O748 Cd746 2.411 . S
O748 C751 1.320 . S
O749 Cd746 2.333 . S
O749 C751 1.214 . S
O750 Cd746 2.352 . S
O750 C753 1.258 . S
C751 O748 1.320 . S
C751 O749 1.214 . S
O752 Cd744 2.277 . S
O752 C747 1.209 . S
C753 O750 1.258 . S
C753 O755 1.282 . S
O754 Cd746 2.277 . S
O754 C747 1.226 . S
O755 Cd746 2.356 . S
O755 C753 1.282 . S
C756 O757 1.306 . S
C756 O759 1.160 . S
O757 C756 1.306 . S
O757 Cd758 2.228 . S
Cd758 O757 2.228 . S
Cd758 O762 2.273 . S
Cd758 O766 2.277 . S
O759 C756 1.160 . S
O759 Cd760 2.203 . S
Cd760 O759 2.203 . S
Cd760 O762 2.411 . S
Cd760 O763 2.333 . S
Cd760 O764 2.352 . S
Cd760 O768 2.277 . S
Cd760 O769 2.356 . S
C761 O766 1.209 . S
C761 O768 1.226 . S
O762 Cd758 2.273 . S
O762 Cd760 2.411 . S
O762 C765 1.320 . S
O763 Cd760 2.333 . S
O763 C765 1.214 . S
O764 Cd760 2.352 . S
O764 C767 1.258 . S
C765 O762 1.320 . S
C765 O763 1.214 . S
O766 Cd758 2.277 . S
O766 C761 1.209 . S
C767 O764 1.258 . S
C767 O769 1.282 . S
O768 Cd760 2.277 . S
O768 C761 1.226 . S
O769 Cd760 2.356 . S
O769 C767 1.282 . S
C770 O771 1.306 . S
C770 O773 1.160 . S
O771 C770 1.306 . S
O771 Cd772 2.228 . S
Cd772 O771 2.228 . S
Cd772 O776 2.273 . S
Cd772 O780 2.277 . S
O773 C770 1.160 . S
O773 Cd774 2.203 . S
Cd774 O773 2.203 . S
Cd774 O776 2.411 . S
Cd774 O777 2.333 . S
Cd774 O778 2.352 . S
Cd774 O782 2.277 . S
Cd774 O783 2.356 . S
C775 O780 1.209 . S
C775 O782 1.226 . S
O776 Cd772 2.273 . S
O776 Cd774 2.411 . S
O776 C779 1.320 . S
O777 Cd774 2.333 . S
O777 C779 1.214 . S
O778 Cd774 2.352 . S
O778 C781 1.258 . S
C779 O776 1.320 . S
C779 O777 1.214 . S
O780 Cd772 2.277 . S
O780 C775 1.209 . S
C781 O778 1.258 . S
C781 O783 1.282 . S
O782 Cd774 2.277 . S
O782 C775 1.226 . S
O783 Cd774 2.356 . S
O783 C781 1.282 . S
C784 O785 1.306 . S
C784 O787 1.160 . S
O785 C784 1.306 . S
O785 Cd786 2.228 . S
Cd786 O785 2.228 . S
Cd786 O790 2.273 . S
Cd786 O794 2.277 . S
O787 C784 1.160 . S
O787 Cd788 2.203 . S
Cd788 O787 2.203 . S
Cd788 O790 2.411 . S
Cd788 O791 2.333 . S
Cd788 O792 2.352 . S
Cd788 O796 2.277 . S
Cd788 O797 2.356 . S
C789 O794 1.209 . S
C789 O796 1.226 . S
O790 Cd786 2.273 . S
O790 Cd788 2.411 . S
O790 C793 1.320 . S
O791 Cd788 2.333 . S
O791 C793 1.214 . S
O792 Cd788 2.352 . S
O792 C795 1.258 . S
C793 O790 1.320 . S
C793 O791 1.214 . S
O794 Cd786 2.277 . S
O794 C789 1.209 . S
C795 O792 1.258 . S
C795 O797 1.282 . S
O796 Cd788 2.277 . S
O796 C789 1.226 . S
O797 Cd788 2.356 . S
O797 C795 1.282 . S
C798 O799 1.306 . S
C798 O801 1.160 . S
O799 C798 1.306 . S
O799 Cd800 2.228 . S
Cd800 O799 2.228 . S
Cd800 O804 2.273 . S
Cd800 O808 2.277 . S
O801 C798 1.160 . S
O801 Cd802 2.203 . S
Cd802 O801 2.203 . S
Cd802 O804 2.411 . S
Cd802 O805 2.333 . S
Cd802 O806 2.352 . S
Cd802 O810 2.277 . S
Cd802 O811 2.356 . S
C803 O808 1.209 . S
C803 O810 1.226 . S
O804 Cd800 2.273 . S
O804 Cd802 2.411 . S
O804 C807 1.320 . S
O805 Cd802 2.333 . S
O805 C807 1.214 . S
O806 Cd802 2.352 . S
O806 C809 1.258 . S
C807 O804 1.320 . S
C807 O805 1.214 . S
O808 Cd800 2.277 . S
O808 C803 1.209 . S
C809 O806 1.258 . S
C809 O811 1.282 . S
O810 Cd802 2.277 . S
O810 C803 1.226 . S
O811 Cd802 2.356 . S
O811 C809 1.282 . S
C812 O813 1.306 . S
C812 O815 1.160 . S
O813 C812 1.306 . S
O813 Cd814 2.228 . S
Cd814 O813 2.228 . S
Cd814 O818 2.273 . S
Cd814 O822 2.277 . S
O815 C812 1.160 . S
O815 Cd816 2.203 . S
Cd816 O815 2.203 . S
Cd816 O818 2.411 . S
Cd816 O819 2.333 . S
Cd816 O820 2.352 . S
Cd816 O824 2.277 . S
Cd816 O825 2.356 . S
C817 O822 1.209 . S
C817 O824 1.226 . S
O818 Cd814 2.273 . S
O818 Cd816 2.411 . S
O818 C821 1.320 . S
O819 Cd816 2.333 . S
O819 C821 1.214 . S
O820 Cd816 2.352 . S
O820 C823 1.258 . S
C821 O818 1.320 . S
C821 O819 1.214 . S
O822 Cd814 2.277 . S
O822 C817 1.209 . S
C823 O820 1.258 . S
C823 O825 1.282 . S
O824 Cd816 2.277 . S
O824 C817 1.226 . S
O825 Cd816 2.356 . S
O825 C823 1.282 . S
C826 O827 1.306 . S
C826 O829 1.160 . S
O827 C826 1.306 . S
O827 Cd828 2.228 . S
Cd828 O827 2.228 . S
Cd828 O832 2.273 . S
Cd828 O836 2.277 . S
O829 C826 1.160 . S
O829 Cd830 2.203 . S
Cd830 O829 2.203 . S
Cd830 O832 2.411 . S
Cd830 O833 2.333 . S
Cd830 O834 2.352 . S
Cd830 O838 2.277 . S
Cd830 O839 2.356 . S
C831 O836 1.209 . S
C831 O838 1.226 . S
O832 Cd828 2.273 . S
O832 Cd830 2.411 . S
O832 C835 1.320 . S
O833 Cd830 2.333 . S
O833 C835 1.214 . S
O834 Cd830 2.352 . S
O834 C837 1.258 . S
C835 O832 1.320 . S
C835 O833 1.214 . S
O836 Cd828 2.277 . S
O836 C831 1.209 . S
C837 O834 1.258 . S
C837 O839 1.282 . S
O838 Cd830 2.277 . S
O838 C831 1.226 . S
O839 Cd830 2.356 . S
O839 C837 1.282 . S
C840 O841 1.306 . S
C840 O843 1.160 . S
O841 C840 1.306 . S
O841 Cd842 2.228 . S
Cd842 O841 2.228 . S
Cd842 O846 2.273 . S
Cd842 O850 2.277 . S
O843 C840 1.160 . S
O843 Cd844 2.203 . S
Cd844 O843 2.203 . S
Cd844 O846 2.411 . S
Cd844 O847 2.333 . S
Cd844 O848 2.352 . S
Cd844 O852 2.277 . S
Cd844 O853 2.356 . S
C845 O850 1.209 . S
C845 O852 1.226 . S
O846 Cd842 2.273 . S
O846 Cd844 2.411 . S
O846 C849 1.320 . S
O847 Cd844 2.333 . S
O847 C849 1.214 . S
O848 Cd844 2.352 . S
O848 C851 1.258 . S
C849 O846 1.320 . S
C849 O847 1.214 . S
O850 Cd842 2.277 . S
O850 C845 1.209 . S
C851 O848 1.258 . S
C851 O853 1.282 . S
O852 Cd844 2.277 . S
O852 C845 1.226 . S
O853 Cd844 2.356 . S
O853 C851 1.282 . S
C854 O855 1.306 . S
C854 O857 1.160 . S
O855 C854 1.306 . S
O855 Cd856 2.228 . S
Cd856 O855 2.228 . S
Cd856 O860 2.273 . S
Cd856 O864 2.277 . S
O857 C854 1.160 . S
O857 Cd858 2.203 . S
Cd858 O857 2.203 . S
Cd858 O860 2.411 . S
Cd858 O861 2.333 . S
Cd858 O862 2.352 . S
Cd858 O866 2.277 . S
Cd858 O867 2.356 . S
C859 O864 1.209 . S
C859 O866 1.226 . S
O860 Cd856 2.273 . S
O860 Cd858 2.411 . S
O860 C863 1.320 . S
O861 Cd858 2.333 . S
O861 C863 1.214 . S
O862 Cd858 2.352 . S
O862 C865 1.258 . S
C863 O860 1.320 . S
C863 O861 1.214 . S
O864 Cd856 2.277 . S
O864 C859 1.209 . S
C865 O862 1.258 . S
C865 O867 1.282 . S
O866 Cd858 2.277 . S
O866 C859 1.226 . S
O867 Cd858 2.356 . S
O867 C865 1.282 . S
C868 O869 1.306 . S
C868 O871 1.160 . S
O869 C868 1.306 . S
O869 Cd870 2.228 . S
Cd870 O869 2.228 . S
Cd870 O874 2.273 . S
Cd870 O878 2.277 . S
O871 C868 1.160 . S
O871 Cd872 2.203 . S
Cd872 O871 2.203 . S
Cd872 O874 2.411 . S
Cd872 O875 2.333 . S
Cd872 O876 2.352 . S
Cd872 O880 2.277 . S
Cd872 O881 2.356 . S
C873 O878 1.209 . S
C873 O880 1.226 . S
O874 Cd870 2.273 . S
O874 Cd872 2.411 . S
O874 C877 1.320 . S
O875 Cd872 2.333 . S
O875 C877 1.214 . S
O876 Cd872 2.352 . S
O876 C879 1.258 . S
C877 O874 1.320 . S
C877 O875 1.214 . S
O878 Cd870 2.277 . S
O878 C873 1.209 . S
C879 O876 1.258 . S
C879 O881 1.282 . S
O880 Cd872 2.277 . S
O880 C873 1.226 . S
O881 Cd872 2.356 . S
O881 C879 1.282 . S
C882 O883 1.306 . S
C882 O885 1.160 . S
O883 C882 1.306 . S
O883 Cd884 2.228 . S
Cd884 O883 2.228 . S
Cd884 O888 2.273 . S
Cd884 O892 2.277 . S
O885 C882 1.160 . S
O885 Cd886 2.203 . S
Cd886 O885 2.203 . S
Cd886 O888 2.411 . S
Cd886 O889 2.333 . S
Cd886 O890 2.352 . S
Cd886 O894 2.277 . S
Cd886 O895 2.356 . S
C887 O892 1.209 . S
C887 O894 1.226 . S
O888 Cd884 2.273 . S
O888 Cd886 2.411 . S
O888 C891 1.320 . S
O889 Cd886 2.333 . S
O889 C891 1.214 . S
O890 Cd886 2.352 . S
O890 C893 1.258 . S
C891 O888 1.320 . S
C891 O889 1.214 . S
O892 Cd884 2.277 . S
O892 C887 1.209 . S
C893 O890 1.258 . S
C893 O895 1.282 . S
O894 Cd886 2.277 . S
O894 C887 1.226 . S
O895 Cd886 2.356 . S
O895 C893 1.282 . S
C896 O897 1.306 . S
C896 O899 1.160 . S
O897 C896 1.306 . S
O897 Cd898 2.228 . S
Cd898 O897 2.228 . S
Cd898 O902 2.273 . S
Cd898 O906 2.277 . S
O899 C896 1.160 . S
O899 Cd900 2.203 . S
Cd900 O899 2.203 . S
Cd900 O902 2.411 . S
Cd900 O903 2.333 . S
Cd900 O904 2.352 . S
Cd900 O908 2.277 . S
Cd900 O909 2.356 . S
C901 O906 1.209 . S
C901 O908 1.226 . S
O902 Cd898 2.273 . S
O902 Cd900 2.411 . S
O902 C905 1.320 . S
O903 Cd900 2.333 . S
O903 C905 1.214 . S
O904 Cd900 2.352 . S
O904 C907 1.258 . S
C905 O902 1.320 . S
C905 O903 1.214 . S
O906 Cd898 2.277 . S
O906 C901 1.209 . S
C907 O904 1.258 . S
C907 O909 1.282 . S
O908 Cd900 2.277 . S
O908 C901 1.226 . S
O909 Cd900 2.356 . S
O909 C907 1.282 . S
C910 O911 1.306 . S
C910 O913 1.160 . S
O911 C910 1.306 . S
O911 Cd912 2.228 . S
Cd912 O911 2.228 . S
Cd912 O916 2.273 . S
Cd912 O920 2.277 . S
O913 C910 1.160 . S
O913 Cd914 2.203 . S
Cd914 O913 2.203 . S
Cd914 O916 2.411 . S
Cd914 O917 2.333 . S
Cd914 O918 2.352 . S
Cd914 O922 2.277 . S
Cd914 O923 2.356 . S
C915 O920 1.209 . S
C915 O922 1.226 . S
O916 Cd912 2.273 . S
O916 Cd914 2.411 . S
O916 C919 1.320 . S
O917 Cd914 2.333 . S
O917 C919 1.214 . S
O918 Cd914 2.352 . S
O918 C921 1.258 . S
C919 O916 1.320 . S
C919 O917 1.214 . S
O920 Cd912 2.277 . S
O920 C915 1.209 . S
C921 O918 1.258 . S
C921 O923 1.282 . S
O922 Cd914 2.277 . S
O922 C915 1.226 . S
O923 Cd914 2.356 . S
O923 C921 1.282 . S
C924 O925 1.306 . S
C924 O927 1.160 . S
O925 C924 1.306 . S
O925 Cd926 2.228 . S
Cd926 O925 2.228 . S
Cd926 O930 2.273 . S
Cd926 O934 2.277 . S
O927 C924 1.160 . S
O927 Cd928 2.203 . S
Cd928 O927 2.203 . S
Cd928 O930 2.411 . S
Cd928 O931 2.333 . S
Cd928 O932 2.352 . S
Cd928 O936 2.277 . S
Cd928 O937 2.356 . S
C929 O934 1.209 . S
C929 O936 1.226 . S
O930 Cd926 2.273 . S
O930 Cd928 2.411 . S
O930 C933 1.320 . S
O931 Cd928 2.333 . S
O931 C933 1.214 . S
O932 Cd928 2.352 . S
O932 C935 1.258 . S
C933 O930 1.320 . S
C933 O931 1.214 . S
O934 Cd926 2.277 . S
O934 C929 1.209 . S
C935 O932 1.258 . S
C935 O937 1.282 . S
O936 Cd928 2.277 . S
O936 C929 1.226 . S
O937 Cd928 2.356 . S
O937 C935 1.282 . S
C938 O939 1.306 . S
C938 O941 1.160 . S
O939 C938 1.306 . S
O939 Cd940 2.228 . S
Cd940 O939 2.228 . S
Cd940 O944 2.273 . S
Cd940 O948 2.277 . S
O941 C938 1.160 . S
O941 Cd942 2.203 . S
Cd942 O941 2.203 . S
Cd942 O944 2.411 . S
Cd942 O945 2.333 . S
Cd942 O946 2.352 . S
Cd942 O950 2.277 . S
Cd942 O951 2.356 . S
C943 O948 1.209 . S
C943 O950 1.226 . S
O944 Cd940 2.273 . S
O944 Cd942 2.411 . S
O944 C947 1.320 . S
O945 Cd942 2.333 . S
O945 C947 1.214 . S
O946 Cd942 2.352 . S
O946 C949 1.258 . S
C947 O944 1.320 . S
C947 O945 1.214 . S
O948 Cd940 2.277 . S
O948 C943 1.209 . S
C949 O946 1.258 . S
C949 O951 1.282 . S
O950 Cd942 2.277 . S
O950 C943 1.226 . S
O951 Cd942 2.356 . S
O951 C949 1.282 . S
C952 O953 1.306 . S
C952 O955 1.160 . S
O953 C952 1.306 . S
O953 Cd954 2.228 . S
Cd954 O953 2.228 . S
Cd954 O958 2.273 . S
Cd954 O962 2.277 . S
O955 C952 1.160 . S
O955 Cd956 2.203 . S
Cd956 O955 2.203 . S
Cd956 O958 2.411 . S
Cd956 O959 2.333 . S
Cd956 O960 2.352 . S
Cd956 O964 2.277 . S
Cd956 O965 2.356 . S
C957 O962 1.209 . S
C957 O964 1.226 . S
O958 Cd954 2.273 . S
O958 Cd956 2.411 . S
O958 C961 1.320 . S
O959 Cd956 2.333 . S
O959 C961 1.214 . S
O960 Cd956 2.352 . S
O960 C963 1.258 . S
C961 O958 1.320 . S
C961 O959 1.214 . S
O962 Cd954 2.277 . S
O962 C957 1.209 . S
C963 O960 1.258 . S
C963 O965 1.282 . S
O964 Cd956 2.277 . S
O964 C957 1.226 . S
O965 Cd956 2.356 . S
O965 C963 1.282 . S
C966 O967 1.306 . S
C966 O969 1.160 . S
O967 C966 1.306 . S
O967 Cd968 2.228 . S
Cd968 O967 2.228 . S
Cd968 O972 2.273 . S
Cd968 O976 2.277 . S
O969 C966 1.160 . S
O969 Cd970 2.203 . S
Cd970 O969 2.203 . S
Cd970 O972 2.411 . S
Cd970 O973 2.333 . S
Cd970 O974 2.352 . S
Cd970 O978 2.277 . S
Cd970 O979 2.356 . S
C971 O976 1.209 . S
C971 O978 1.226 . S
O972 Cd968 2.273 . S
O972 Cd970 2.411 . S
O972 C975 1.320 . S
O973 Cd970 2.333 . S
O973 C975 1.214 . S
O974 Cd970 2.352 . S
O974 C977 1.258 . S
C975 O972 1.320 . S
C975 O973 1.214 . S
O976 Cd968 2.277 . S
O976 C971 1.209 . S
C977 O974 1.258 . S
C977 O979 1.282 . S
O978 Cd970 2.277 . S
O978 C971 1.226 . S
O979 Cd970 2.356 . S
O979 C977 1.282 . S
C980 O981 1.306 . S
C980 O983 1.160 . S
O981 C980 1.306 . S
O981 Cd982 2.228 . S
Cd982 O981 2.228 . S
Cd982 O986 2.273 . S
Cd982 O990 2.277 . S
O983 C980 1.160 . S
O983 Cd984 2.203 . S
Cd984 O983 2.203 . S
Cd984 O986 2.411 . S
Cd984 O987 2.333 . S
Cd984 O988 2.352 . S
Cd984 O992 2.277 . S
Cd984 O993 2.356 . S
C985 O990 1.209 . S
C985 O992 1.226 . S
O986 Cd982 2.273 . S
O986 Cd984 2.411 . S
O986 C989 1.320 . S
O987 Cd984 2.333 . S
O987 C989 1.214 . S
O988 Cd984 2.352 . S
O988 C991 1.258 . S
C989 O986 1.320 . S
C989 O987 1.214 . S
O990 Cd982 2.277 . S
O990 C985 1.209 . S
C991 O988 1.258 . S
C991 O993 1.282 . S
O992 Cd984 2.277 . S
O992 C985 1.226 . S
O993 Cd984 2.356 . S
O993 C991 1.282 . S
C994 O995 1.306 . S
C994 O997 1.160 . S
O995 C994 1.306 . S
O995 Cd996 2.228 . S
Cd996 O995 2.228 . S
Cd996 O1000 2.273 . S
Cd996 O1004 2.277 . S
O997 C994 1.160 . S
O997 Cd998 2.203 . S
Cd998 O997 2.203 . S
Cd998 O1000 2.411 . S
Cd998 O1001 2.333 . S
Cd998 O1002 2.352 . S
Cd998 O1006 2.277 . S
Cd998 O1007 2.356 . S
C999 O1004 1.209 . S
C999 O1006 1.226 . S
O1000 Cd996 2.273 . S
O1000 Cd998 2.411 . S
O1000 C1003 1.320 . S
O1001 Cd998 2.333 . S
O1001 C1003 1.214 . S
O1002 Cd998 2.352 . S
O1002 C1005 1.258 . S
C1003 O1000 1.320 . S
C1003 O1001 1.214 . S
O1004 Cd996 2.277 . S
O1004 C999 1.209 . S
C1005 O1002 1.258 . S
C1005 O1007 1.282 . S
O1006 Cd998 2.277 . S
O1006 C999 1.226 . S
O1007 Cd998 2.356 . S
O1007 C1005 1.282 . S
C1008 O1009 1.306 . S
C1008 O1011 1.160 . S
O1009 C1008 1.306 . S
O1009 Cd1010 2.228 . S
Cd1010 O1009 2.228 . S
Cd1010 O1014 2.273 . S
Cd1010 O1018 2.277 . S
O1011 C1008 1.160 . S
O1011 Cd1012 2.203 . S
Cd1012 O1011 2.203 . S
Cd1012 O1014 2.411 . S
Cd1012 O1015 2.333 . S
Cd1012 O1016 2.352 . S
Cd1012 O1020 2.277 . S
Cd1012 O1021 2.356 . S
C1013 O1018 1.209 . S
C1013 O1020 1.226 . S
O1014 Cd1010 2.273 . S
O1014 Cd1012 2.411 . S
O1014 C1017 1.320 . S
O1015 Cd1012 2.333 . S
O1015 C1017 1.214 . S
O1016 Cd1012 2.352 . S
O1016 C1019 1.258 . S
C1017 O1014 1.320 . S
C1017 O1015 1.214 . S
O1018 Cd1010 2.277 . S
O1018 C1013 1.209 . S
C1019 O1016 1.258 . S
C1019 O1021 1.282 . S
O1020 Cd1012 2.277 . S
O1020 C1013 1.226 . S
O1021 Cd1012 2.356 . S
O1021 C1019 1.282 . S
C1022 O1023 1.306 . S
C1022 O1025 1.160 . S
O1023 C1022 1.306 . S
O1023 Cd1024 2.228 . S
Cd1024 O1023 2.228 . S
Cd1024 O1028 2.273 . S
Cd1024 O1032 2.277 . S
O1025 C1022 1.160 . S
O1025 Cd1026 2.203 . S
Cd1026 O1025 2.203 . S
Cd1026 O1028 2.411 . S
Cd1026 O1029 2.333 . S
Cd1026 O1030 2.352 . S
Cd1026 O1034 2.277 . S
Cd1026 O1035 2.356 . S
C1027 O1032 1.209 . S
C1027 O1034 1.226 . S
O1028 Cd1024 2.273 . S
O1028 Cd1026 2.411 . S
O1028 C1031 1.320 . S
O1029 Cd1026 2.333 . S
O1029 C1031 1.214 . S
O1030 Cd1026 2.352 . S
O1030 C1033 1.258 . S
C1031 O1028 1.320 . S
C1031 O1029 1.214 . S
O1032 Cd1024 2.277 . S
O1032 C1027 1.209 . S
C1033 O1030 1.258 . S
C1033 O1035 1.282 . S
O1034 Cd1026 2.277 . S
O1034 C1027 1.226 . S
O1035 Cd1026 2.356 . S
O1035 C1033 1.282 . S
C1036 O1037 1.306 . S
C1036 O1039 1.160 . S
O1037 C1036 1.306 . S
O1037 Cd1038 2.228 . S
Cd1038 O1037 2.228 . S
Cd1038 O1042 2.273 . S
Cd1038 O1046 2.277 . S
O1039 C1036 1.160 . S
O1039 Cd1040 2.203 . S
Cd1040 O1039 2.203 . S
Cd1040 O1042 2.411 . S
Cd1040 O1043 2.333 . S
Cd1040 O1044 2.352 . S
Cd1040 O1048 2.277 . S
Cd1040 O1049 2.356 . S
C1041 O1046 1.209 . S
C1041 O1048 1.226 . S
O1042 Cd1038 2.273 . S
O1042 Cd1040 2.411 . S
O1042 C1045 1.320 . S
O1043 Cd1040 2.333 . S
O1043 C1045 1.214 . S
O1044 Cd1040 2.352 . S
O1044 C1047 1.258 . S
C1045 O1042 1.320 . S
C1045 O1043 1.214 . S
O1046 Cd1038 2.277 . S
O1046 C1041 1.209 . S
C1047 O1044 1.258 . S
C1047 O1049 1.282 . S
O1048 Cd1040 2.277 . S
O1048 C1041 1.226 . S
O1049 Cd1040 2.356 . S
O1049 C1047 1.282 . S
C1050 O1051 1.306 . S
C1050 O1053 1.160 . S
O1051 C1050 1.306 . S
O1051 Cd1052 2.228 . S
Cd1052 O1051 2.228 . S
Cd1052 O1056 2.273 . S
Cd1052 O1060 2.277 . S
O1053 C1050 1.160 . S
O1053 Cd1054 2.203 . S
Cd1054 O1053 2.203 . S
Cd1054 O1056 2.411 . S
Cd1054 O1057 2.333 . S
Cd1054 O1058 2.352 . S
Cd1054 O1062 2.277 . S
Cd1054 O1063 2.356 . S
C1055 O1060 1.209 . S
C1055 O1062 1.226 . S
O1056 Cd1052 2.273 . S
O1056 Cd1054 2.411 . S
O1056 C1059 1.320 . S
O1057 Cd1054 2.333 . S
O1057 C1059 1.214 . S
O1058 Cd1054 2.352 . S
O1058 C1061 1.258 . S
C1059 O1056 1.320 . S
C1059 O1057 1.214 . S
O1060 Cd1052 2.277 . S
O1060 C1055 1.209 . S
C1061 O1058 1.258 . S
C1061 O1063 1.282 . S
O1062 Cd1054 2.277 . S
O1062 C1055 1.226 . S
O1063 Cd1054 2.356 . S
O1063 C1061 1.282 . S
C1064 O1065 1.306 . S
C1064 O1067 1.160 . S
O1065 C1064 1.306 . S
O1065 Cd1066 2.228 . S
Cd1066 O1065 2.228 . S
Cd1066 O1070 2.273 . S
Cd1066 O1074 2.277 . S
O1067 C1064 1.160 . S
O1067 Cd1068 2.203 . S
Cd1068 O1067 2.203 . S
Cd1068 O1070 2.411 . S
Cd1068 O1071 2.333 . S
Cd1068 O1072 2.352 . S
Cd1068 O1076 2.277 . S
Cd1068 O1077 2.356 . S
C1069 O1074 1.209 . S
C1069 O1076 1.226 . S
O1070 Cd1066 2.273 . S
O1070 Cd1068 2.411 . S
O1070 C1073 1.320 . S
O1071 Cd1068 2.333 . S
O1071 C1073 1.214 . S
O1072 Cd1068 2.352 . S
O1072 C1075 1.258 . S
C1073 O1070 1.320 . S
C1073 O1071 1.214 . S
O1074 Cd1066 2.277 . S
O1074 C1069 1.209 . S
C1075 O1072 1.258 . S
C1075 O1077 1.282 . S
O1076 Cd1068 2.277 . S
O1076 C1069 1.226 . S
O1077 Cd1068 2.356 . S
O1077 C1075 1.282 . S
C1078 O1079 1.306 . S
C1078 O1081 1.160 . S
O1079 C1078 1.306 . S
O1079 Cd1080 2.228 . S
Cd1080 O1079 2.228 . S
Cd1080 O1084 2.273 . S
Cd1080 O1088 2.277 . S
O1081 C1078 1.160 . S
O1081 Cd1082 2.203 . S
Cd1082 O1081 2.203 . S
Cd1082 O1084 2.411 . S
Cd1082 O1085 2.333 . S
Cd1082 O1086 2.352 . S
Cd1082 O1090 2.277 . S
Cd1082 O1091 2.356 . S
C1083 O1088 1.209 . S
C1083 O1090 1.226 . S
O1084 Cd1080 2.273 . S
O1084 Cd1082 2.411 . S
O1084 C1087 1.320 . S
O1085 Cd1082 2.333 . S
O1085 C1087 1.214 . S
O1086 Cd1082 2.352 . S
O1086 C1089 1.258 . S
C1087 O1084 1.320 . S
C1087 O1085 1.214 . S
O1088 Cd1080 2.277 . S
O1088 C1083 1.209 . S
C1089 O1086 1.258 . S
C1089 O1091 1.282 . S
O1090 Cd1082 2.277 . S
O1090 C1083 1.226 . S
O1091 Cd1082 2.356 . S
O1091 C1089 1.282 . S
C1092 O1093 1.306 . S
C1092 O1095 1.160 . S
O1093 C1092 1.306 . S
O1093 Cd1094 2.228 . S
Cd1094 O1093 2.228 . S
Cd1094 O1098 2.273 . S
Cd1094 O1102 2.277 . S
O1095 C1092 1.160 . S
O1095 Cd1096 2.203 . S
Cd1096 O1095 2.203 . S
Cd1096 O1098 2.411 . S
Cd1096 O1099 2.333 . S
Cd1096 O1100 2.352 . S
Cd1096 O1104 2.277 . S
Cd1096 O1105 2.356 . S
C1097 O1102 1.209 . S
C1097 O1104 1.226 . S
O1098 Cd1094 2.273 . S
O1098 Cd1096 2.411 . S
O1098 C1101 1.320 . S
O1099 Cd1096 2.333 . S
O1099 C1101 1.214 . S
O1100 Cd1096 2.352 . S
O1100 C1103 1.258 . S
C1101 O1098 1.320 . S
C1101 O1099 1.214 . S
O1102 Cd1094 2.277 . S
O1102 C1097 1.209 . S
C1103 O1100 1.258 . S
C1103 O1105 1.282 . S
O1104 Cd1096 2.277 . S
O1104 C1097 1.226 . S
O1105 Cd1096 2.356 . S
O1105 C1103 1.282 . S
C1106 O1107 1.306 . S
C1106 O1109 1.160 . S
O1107 C1106 1.306 . S
O1107 Cd1108 2.228 . S
Cd1108 O1107 2.228 . S
Cd1108 O1112 2.273 . S
Cd1108 O1116 2.277 . S
O1109 C1106 1.160 . S
O1109 Cd1110 2.203 . S
Cd1110 O1109 2.203 . S
Cd1110 O1112 2.411 . S
Cd1110 O1113 2.333 . S
Cd1110 O1114 2.352 . S
Cd1110 O1118 2.277 . S
Cd1110 O1119 2.356 . S
C1111 O1116 1.209 . S
C1111 O1118 1.226 . S
O1112 Cd1108 2.273 . S
O1112 Cd1110 2.411 . S
O1112 C1115 1.320 . S
O1113 Cd1110 2.333 . S
O1113 C1115 1.214 . S
O1114 Cd1110 2.352 . S
O1114 C1117 1.258 . S
C1115 O1112 1.320 . S
C1115 O1113 1.214 . S
O1116 Cd1108 2.277 . S
O1116 C1111 1.209 . S
C1117 O1114 1.258 . S
C1117 O1119 1.282 . S
O1118 Cd1110 2.277 . S
O1118 C1111 1.226 . S
O1119 Cd1110 2.356 . S
O1119 C1117 1.282 . S
C1120 O1121 1.306 . S
C1120 O1123 1.160 . S
O1121 C1120 1.306 . S
O1121 Cd1122 2.228 . S
Cd1122 O1121 2.228 . S
Cd1122 O1126 2.273 . S
Cd1122 O1130 2.277 . S
O1123 C1120 1.160 . S
O1123 Cd1124 2.203 . S
Cd1124 O1123 2.203 . S
Cd1124 O1126 2.411 . S
Cd1124 O1127 2.333 . S
Cd1124 O1128 2.352 . S
Cd1124 O1132 2.277 . S
Cd1124 O1133 2.356 . S
C1125 O1130 1.209 . S
C1125 O1132 1.226 . S
O1126 Cd1122 2.273 . S
O1126 Cd1124 2.411 . S
O1126 C1129 1.320 . S
O1127 Cd1124 2.333 . S
O1127 C1129 1.214 . S
O1128 Cd1124 2.352 . S
O1128 C1131 1.258 . S
C1129 O1126 1.320 . S
C1129 O1127 1.214 . S
O1130 Cd1122 2.277 . S
O1130 C1125 1.209 . S
C1131 O1128 1.258 . S
C1131 O1133 1.282 . S
O1132 Cd1124 2.277 . S
O1132 C1125 1.226 . S
O1133 Cd1124 2.356 . S
O1133 C1131 1.282 . S
C1134 O1135 1.306 . S
C1134 O1137 1.160 . S
O1135 C1134 1.306 . S
O1135 Cd1136 2.228 . S
Cd1136 O1135 2.228 . S
Cd1136 O1140 2.273 . S
Cd1136 O1144 2.277 . S
O1137 C1134 1.160 . S
O1137 Cd1138 2.203 . S
Cd1138 O1137 2.203 . S
Cd1138 O1140 2.411 . S
Cd1138 O1141 2.333 . S
Cd1138 O1142 2.352 . S
Cd1138 O1146 2.277 . S
Cd1138 O1147 2.356 . S
C1139 O1144 1.209 . S
C1139 O1146 1.226 . S
O1140 Cd1136 2.273 . S
O1140 Cd1138 2.411 . S
O1140 C1143 1.320 . S
O1141 Cd1138 2.333 . S
O1141 C1143 1.214 . S
O1142 Cd1138 2.352 . S
O1142 C1145 1.258 . S
C1143 O1140 1.320 . S
C1143 O1141 1.214 . S
O1144 Cd1136 2.277 . S
O1144 C1139 1.209 . S
C1145 O1142 1.258 . S
C1145 O1147 1.282 . S
O1146 Cd1138 2.277 . S
O1146 C1139 1.226 . S
O1147 Cd1138 2.356 . S
O1147 C1145 1.282 . S
C1148 O1149 1.306 . S
C1148 O1151 1.160 . S
O1149 C1148 1.306 . S
O1149 Cd1150 2.228 . S
Cd1150 O1149 2.228 . S
Cd1150 O1154 2.273 . S
Cd1150 O1158 2.277 . S
O1151 C1148 1.160 . S
O1151 Cd1152 2.203 . S
Cd1152 O1151 2.203 . S
Cd1152 O1154 2.411 . S
Cd1152 O1155 2.333 . S
Cd1152 O1156 2.352 . S
Cd1152 O1160 2.277 . S
Cd1152 O1161 2.356 . S
C1153 O1158 1.209 . S
C1153 O1160 1.226 . S
O1154 Cd1150 2.273 . S
O1154 Cd1152 2.411 . S
O1154 C1157 1.320 . S
O1155 Cd1152 2.333 . S
O1155 C1157 1.214 . S
O1156 Cd1152 2.352 . S
O1156 C1159 1.258 . S
C1157 O1154 1.320 . S
C1157 O1155 1.214 . S
O1158 Cd1150 2.277 . S
O1158 C1153 1.209 . S
C1159 O1156 1.258 . S
C1159 O1161 1.282 . S
O1160 Cd1152 2.277 . S
O1160 C1153 1.226 . S
O1161 Cd1152 2.356 . S
O1161 C1159 1.282 . S
C1162 O1163 1.306 . S
C1162 O1165 1.160 . S
O1163 C1162 1.306 . S
O1163 Cd1164 2.228 . S
Cd1164 O1163 2.228 . S
Cd1164 O1168 2.273 . S
Cd1164 O1172 2.277 . S
O1165 C1162 1.160 . S
O1165 Cd1166 2.203 . S
Cd1166 O1165 2.203 . S
Cd1166 O1168 2.411 . S
Cd1166 O1169 2.333 . S
Cd1166 O1170 2.352 . S
Cd1166 O1174 2.277 . S
Cd1166 O1175 2.356 . S
C1167 O1172 1.209 . S
C1167 O1174 1.226 . S
O1168 Cd1164 2.273 . S
O1168 Cd1166 2.411 . S
O1168 C1171 1.320 . S
O1169 Cd1166 2.333 . S
O1169 C1171 1.214 . S
O1170 Cd1166 2.352 . S
O1170 C1173 1.258 . S
C1171 O1168 1.320 . S
C1171 O1169 1.214 . S
O1172 Cd1164 2.277 . S
O1172 C1167 1.209 . S
C1173 O1170 1.258 . S
C1173 O1175 1.282 . S
O1174 Cd1166 2.277 . S
O1174 C1167 1.226 . S
O1175 Cd1166 2.356 . S
O1175 C1173 1.282 . S
C1176 O1177 1.306 . S
C1176 O1179 1.160 . S
O1177 C1176 1.306 . S
O1177 Cd1178 2.228 . S
Cd1178 O1177 2.228 . S
Cd1178 O1182 2.273 . S
Cd1178 O1186 2.277 . S
O1179 C1176 1.160 . S
O1179 Cd1180 2.203 . S
Cd1180 O1179 2.203 . S
Cd1180 O1182 2.411 . S
Cd1180 O1183 2.333 . S
Cd1180 O1184 2.352 . S
Cd1180 O1188 2.277 . S
Cd1180 O1189 2.356 . S
C1181 O1186 1.209 . S
C1181 O1188 1.226 . S
O1182 Cd1178 2.273 . S
O1182 Cd1180 2.411 . S
O1182 C1185 1.320 . S
O1183 Cd1180 2.333 . S
O1183 C1185 1.214 . S
O1184 Cd1180 2.352 . S
O1184 C1187 1.258 . S
C1185 O1182 1.320 . S
C1185 O1183 1.214 . S
O1186 Cd1178 2.277 . S
O1186 C1181 1.209 . S
C1187 O1184 1.258 . S
C1187 O1189 1.282 . S
O1188 Cd1180 2.277 . S
O1188 C1181 1.226 . S
O1189 Cd1180 2.356 . S
O1189 C1187 1.282 . S
C1190 O1191 1.306 . S
C1190 O1193 1.160 . S
O1191 C1190 1.306 . S
O1191 Cd1192 2.228 . S
Cd1192 O1191 2.228 . S
Cd1192 O1196 2.273 . S
Cd1192 O1200 2.277 . S
O1193 C1190 1.160 . S
O1193 Cd1194 2.203 . S
Cd1194 O1193 2.203 . S
Cd1194 O1196 2.411 . S
Cd1194 O1197 2.333 . S
Cd1194 O1198 2.352 . S
Cd1194 O1202 2.277 . S
Cd1194 O1203 2.356 . S
C1195 O1200 1.209 . S
C1195 O1202 1.226 . S
O1196 Cd1192 2.273 . S
O1196 Cd1194 2.411 . S
O1196 C1199 1.320 . S
O1197 Cd1194 2.333 . S
O1197 C1199 1.214 . S
O1198 Cd1194 2.352 . S
O1198 C1201 1.258 . S
C1199 O1196 1.320 . S
C1199 O1197 1.214 . S
O1200 Cd1192 2.277 . S
O1200 C1195 1.209 . S
C1201 O1198 1.258 . S
C1201 O1203 1.282 . S
O1202 Cd1194 2.277 . S
O1202 C1195 1.226 . S
O1203 Cd1194 2.356 . S
O1203 C1201 1.282 . S
C1204 O1205 1.306 . S
C1204 O1207 1.160 . S
O1205 C1204 1.306 . S
O1205 Cd1206 2.228 . S
Cd1206 O1205 2.228 . S
Cd1206 O1210 2.273 . S
Cd1206 O1214 2.277 . S
O1207 C1204 1.160 . S
O1207 Cd1208 2.203 . S
Cd1208 O1207 2.203 . S
Cd1208 O1210 2.411 . S
Cd1208 O1211 2.333 . S
Cd1208 O1212 2.352 . S
Cd1208 O1216 2.277 . S
Cd1208 O1217 2.356 . S
C1209 O1214 1.209 . S
C1209 O1216 1.226 . S
O1210 Cd1206 2.273 . S
O1210 Cd1208 2.411 . S
O1210 C1213 1.320 . S
O1211 Cd1208 2.333 . S
O1211 C1213 1.214 . S
O1212 Cd1208 2.352 . S
O1212 C1215 1.258 . S
C1213 O1210 1.320 . S
C1213 O1211 1.214 . S
O1214 Cd1206 2.277 . S
O1214 C1209 1.209 . S
C1215 O1212 1.258 . S
C1215 O1217 1.282 . S
O1216 Cd1208 2.277 . S
O1216 C1209 1.226 . S
O1217 Cd1208 2.356 . S
O1217 C1215 1.282 . S
C1218 O1219 1.306 . S
C1218 O1221 1.160 . S
O1219 C1218 1.306 . S
O1219 Cd1220 2.228 . S
Cd1220 O1219 2.228 . S
Cd1220 O1224 2.273 . S
Cd1220 O1228 2.277 . S
O1221 C1218 1.160 . S
O1221 Cd1222 2.203 . S
Cd1222 O1221 2.203 . S
Cd1222 O1224 2.411 . S
Cd1222 O1225 2.333 . S
Cd1222 O1226 2.352 . S
Cd1222 O1230 2.277 . S
Cd1222 O1231 2.356 . S
C1223 O1228 1.209 . S
C1223 O1230 1.226 . S
O1224 Cd1220 2.273 . S
O1224 Cd1222 2.411 . S
O1224 C1227 1.320 . S
O1225 Cd1222 2.333 . S
O1225 C1227 1.214 . S
O1226 Cd1222 2.352 . S
O1226 C1229 1.258 . S
C1227 O1224 1.320 . S
C1227 O1225 1.214 . S
O1228 Cd1220 2.277 . S
O1228 C1223 1.209 . S
C1229 O1226 1.258 . S
C1229 O1231 1.282 . S
O1230 Cd1222 2.277 . S
O1230 C1223 1.226 . S
O1231 Cd1222 2.356 . S
O1231 C1229 1.282 . S
C1232 O1233 1.306 . S
C1232 O1235 1.160 . S
O1233 C1232 1.306 . S
O1233 Cd1234 2.228 . S
Cd1234 O1233 2.228 . S
Cd1234 O1238 2.273 . S
Cd1234 O1242 2.277 . S
O1235 C1232 1.160 . S
O1235 Cd1236 2.203 . S
Cd1236 O1235 2.203 . S
Cd1236 O1238 2.411 . S
Cd1236 O1239 2.333 . S
Cd1236 O1240 2.352 . S
Cd1236 O1244 2.277 . S
Cd1236 O1245 2.356 . S
C1237 O1242 1.209 . S
C1237 O1244 1.226 . S
O1238 Cd1234 2.273 . S
O1238 Cd1236 2.411 . S
O1238 C1241 1.320 . S
O1239 Cd1236 2.333 . S
O1239 C1241 1.214 . S
O1240 Cd1236 2.352 . S
O1240 C1243 1.258 . S
C1241 O1238 1.320 . S
C1241 O1239 1.214 . S
O1242 Cd1234 2.277 . S
O1242 C1237 1.209 . S
C1243 O1240 1.258 . S
C1243 O1245 1.282 . S
O1244 Cd1236 2.277 . S
O1244 C1237 1.226 . S
O1245 Cd1236 2.356 . S
O1245 C1243 1.282 . S
C1246 O1247 1.306 . S
C1246 O1249 1.160 . S
O1247 C1246 1.306 . S
O1247 Cd1248 2.228 . S
Cd1248 O1247 2.228 . S
Cd1248 O1252 2.273 . S
Cd1248 O1256 2.277 . S
O1249 C1246 1.160 . S
O1249 Cd1250 2.203 . S
Cd1250 O1249 2.203 . S
Cd1250 O1252 2.411 . S
Cd1250 O1253 2.333 . S
Cd1250 O1254 2.352 . S
Cd1250 O1258 2.277 . S
Cd1250 O1259 2.356 . S
C1251 O1256 1.209 . S
C1251 O1258 1.226 . S
O1252 Cd1248 2.273 . S
O1252 Cd1250 2.411 . S
O1252 C1255 1.320 . S
O1253 Cd1250 2.333 . S
O1253 C1255 1.214 . S
O1254 Cd1250 2.352 . S
O1254 C1257 1.258 . S
C1255 O1252 1.320 . S
C1255 O1253 1.214 . S
O1256 Cd1248 2.277 . S
O1256 C1251 1.209 . S
C1257 O1254 1.258 . S
C1257 O1259 1.282 . S
O1258 Cd1250 2.277 . S
O1258 C1251 1.226 . S
O1259 Cd1250 2.356 . S
O1259 C1257 1.282 . S
C1260 O1261 1.306 . S
C1260 O1263 1.160 . S
O1261 C1260 1.306 . S
O1261 Cd1262 2.228 . S
Cd1262 O1261 2.228 . S
Cd1262 O1266 2.273 . S
Cd1262 O1270 2.277 . S
O1263 C1260 1.160 . S
O1263 Cd1264 2.203 . S
Cd1264 O1263 2.203 . S
Cd1264 O1266 2.411 . S
Cd1264 O1267 2.333 . S
Cd1264 O1268 2.352 . S
Cd1264 O1272 2.277 . S
Cd1264 O1273 2.356 . S
C1265 O1270 1.209 . S
C1265 O1272 1.226 . S
O1266 Cd1262 2.273 . S
O1266 Cd1264 2.411 . S
O1266 C1269 1.320 . S
O1267 Cd1264 2.333 . S
O1267 C1269 1.214 . S
O1268 Cd1264 2.352 . S
O1268 C1271 1.258 . S
C1269 O1266 1.320 . S
C1269 O1267 1.214 . S
O1270 Cd1262 2.277 . S
O1270 C1265 1.209 . S
C1271 O1268 1.258 . S
C1271 O1273 1.282 . S
O1272 Cd1264 2.277 . S
O1272 C1265 1.226 . S
O1273 Cd1264 2.356 . S
O1273 C1271 1.282 . S
C1274 O1275 1.306 . S
C1274 O1277 1.160 . S
O1275 C1274 1.306 . S
O1275 Cd1276 2.228 . S
Cd1276 O1275 2.228 . S
Cd1276 O1280 2.273 . S
Cd1276 O1284 2.277 . S
O1277 C1274 1.160 . S
O1277 Cd1278 2.203 . S
Cd1278 O1277 2.203 . S
Cd1278 O1280 2.411 . S
Cd1278 O1281 2.333 . S
Cd1278 O1282 2.352 . S
Cd1278 O1286 2.277 . S
Cd1278 O1287 2.356 . S
C1279 O1284 1.209 . S
C1279 O1286 1.226 . S
O1280 Cd1276 2.273 . S
O1280 Cd1278 2.411 . S
O1280 C1283 1.320 . S
O1281 Cd1278 2.333 . S
O1281 C1283 1.214 . S
O1282 Cd1278 2.352 . S
O1282 C1285 1.258 . S
C1283 O1280 1.320 . S
C1283 O1281 1.214 . S
O1284 Cd1276 2.277 . S
O1284 C1279 1.209 . S
C1285 O1282 1.258 . S
C1285 O1287 1.282 . S
O1286 Cd1278 2.277 . S
O1286 C1279 1.226 . S
O1287 Cd1278 2.356 . S
O1287 C1285 1.282 . S
C1288 O1289 1.306 . S
C1288 O1291 1.160 . S
O1289 C1288 1.306 . S
O1289 Cd1290 2.228 . S
Cd1290 O1289 2.228 . S
Cd1290 O1294 2.273 . S
Cd1290 O1298 2.277 . S
O1291 C1288 1.160 . S
O1291 Cd1292 2.203 . S
Cd1292 O1291 2.203 . S
Cd1292 O1294 2.411 . S
Cd1292 O1295 2.333 . S
Cd1292 O1296 2.352 . S
Cd1292 O1300 2.277 . S
Cd1292 O1301 2.356 . S
C1293 O1298 1.209 . S
C1293 O1300 1.226 . S
O1294 Cd1290 2.273 . S
O1294 Cd1292 2.411 . S
O1294 C1297 1.320 . S
O1295 Cd1292 2.333 . S
O1295 C1297 1.214 . S
O1296 Cd1292 2.352 . S
O1296 C1299 1.258 . S
C1297 O1294 1.320 . S
C1297 O1295 1.214 . S
O1298 Cd1290 2.277 . S
O1298 C1293 1.209 . S
C1299 O1296 1.258 . S
C1299 O1301 1.282 . S
O1300 Cd1292 2.277 . S
O1300 C1293 1.226 . S
O1301 Cd1292 2.356 . S
O1301 C1299 1.282 . S
C1302 O1303 1.306 . S
C1302 O1305 1.160 . S
O1303 C1302 1.306 . S
O1303 Cd1304 2.228 . S
Cd1304 O1303 2.228 . S
Cd1304 O1308 2.273 . S
Cd1304 O1312 2.277 . S
O1305 C1302 1.160 . S
O1305 Cd1306 2.203 . S
Cd1306 O1305 2.203 . S
Cd1306 O1308 2.411 . S
Cd1306 O1309 2.333 . S
Cd1306 O1310 2.352 . S
Cd1306 O1314 2.277 . S
Cd1306 O1315 2.356 . S
C1307 O1312 1.209 . S
C1307 O1314 1.226 . S
O1308 Cd1304 2.273 . S
O1308 Cd1306 2.411 . S
O1308 C1311 1.320 . S
O1309 Cd1306 2.333 . S
O1309 C1311 1.214 . S
O1310 Cd1306 2.352 . S
O1310 C1313 1.258 . S
C1311 O1308 1.320 . S
C1311 O1309 1.214 . S
O1312 Cd1304 2.277 . S
O1312 C1307 1.209 . S
C1313 O1310 1.258 . S
C1313 O1315 1.282 . S
O1314 Cd1306 2.277 . S
O1314 C1307 1.226 . S
O1315 Cd1306 2.356 . S
O1315 C1313 1.282 . S
C1316 O1317 1.306 . S
C1316 O1319 1.160 . S
O1317 C1316 1.306 . S
O1317 Cd1318 2.228 . S
Cd1318 O1317 2.228 . S
Cd1318 O1322 2.273 . S
Cd1318 O1326 2.277 . S
O1319 C1316 1.160 . S
O1319 Cd1320 2.203 . S
Cd1320 O1319 2.203 . S
Cd1320 O1322 2.411 . S
Cd1320 O1323 2.333 . S
Cd1320 O1324 2.352 . S
Cd1320 O1328 2.277 . S
Cd1320 O1329 2.356 . S
C1321 O1326 1.209 . S
C1321 O1328 1.226 . S
O1322 Cd1318 2.273 . S
O1322 Cd1320 2.411 . S
O1322 C1325 1.320 . S
O1323 Cd1320 2.333 . S
O1323 C1325 1.214 . S
O1324 Cd1320 2.352 . S
O1324 C1327 1.258 . S
C1325 O1322 1.320 . S
C1325 O1323 1.214 . S
O1326 Cd1318 2.277 . S
O1326 C1321 1.209 . S
C1327 O1324 1.258 . S
C1327 O1329 1.282 . S
O1328 Cd1320 2.277 . S
O1328 C1321 1.226 . S
O1329 Cd1320 2.356 . S
O1329 C1327 1.282 . S
C1330 O1331 1.306 . S
C1330 O1333 1.160 . S
O1331 C1330 1.306 . S
O1331 Cd1332 2.228 . S
Cd1332 O1331 2.228 . S
Cd1332 O1336 2.273 . S
Cd1332 O1340 2.277 . S
O1333 C1330 1.160 . S
O1333 Cd1334 2.203 . S
Cd1334 O1333 2.203 . S
Cd1334 O1336 2.411 . S
Cd1334 O1337 2.333 . S
Cd1334 O1338 2.352 . S
Cd1334 O1342 2.277 . S
Cd1334 O1343 2.356 . S
C1335 O1340 1.209 . S
C1335 O1342 1.226 . S
O1336 Cd1332 2.273 . S
O1336 Cd1334 2.411 . S
O1336 C1339 1.320 . S
O1337 Cd1334 2.333 . S
O1337 C1339 1.214 . S
O1338 Cd1334 2.352 . S
O1338 C1341 1.258 . S
C1339 O1336 1.320 . S
C1339 O1337 1.214 . S
O1340 Cd1332 2.277 . S
O1340 C1335 1.209 . S
C1341 O1338 1.258 . S
C1341 O1343 1.282 . S
O1342 Cd1334 2.277 . S
O1342 C1335 1.226 . S
O1343 Cd1334 2.356 . S
O1343 C1341 1.282 . S
H1344 C1352 0.929 . S
H1345 C1354 0.930 . S
H1346 C1356 0.930 . S
H1347 C1359 0.929 . S
H1348 C1362 0.930 . S
H1349 C1364 0.960 . S
H1350 C1364 0.960 . S
H1351 C1364 0.960 . S
C1352 H1344 0.929 . S
C1352 C1353 1.377 . S
C1352 C1354 1.384 . S
C1353 C1352 1.377 . S
C1353 C1359 1.390 . S
C1354 H1345 0.930 . S
C1354 C1352 1.384 . S
C1354 C1355 1.372 . S
C1355 C1354 1.372 . S
C1355 C1356 1.400 . S
C1355 C1360 1.490 . S
C1356 H1346 0.930 . S
C1356 C1355 1.400 . S
C1356 C1359 1.386 . S
H1357 C1373 0.930 . S
H1358 C1374 0.931 . S
C1359 H1347 0.929 . S
C1359 C1353 1.390 . S
C1359 C1356 1.386 . S
C1360 C1355 1.490 . S
C1360 C1362 1.395 . S
C1360 C1363 1.403 . S
H1361 C1367 0.930 . S
C1362 H1348 0.930 . S
C1362 C1360 1.395 . S
C1362 C1365 1.403 . S
C1363 C1360 1.403 . S
C1363 C1364 1.524 . S
C1363 C1367 1.400 . S
C1364 H1349 0.960 . S
C1364 H1350 0.960 . S
C1364 H1351 0.960 . S
C1364 C1363 1.524 . S
C1365 C1362 1.403 . S
C1365 C1366 1.392 . S
C1365 C1369 1.495 . S
C1366 C1365 1.392 . S
C1366 C1367 1.385 . S
C1366 C1368 1.478 . S
C1367 H1361 0.930 . S
C1367 C1363 1.400 . S
C1367 C1366 1.385 . S
C1368 C1366 1.478 . S
C1368 C1370 1.381 . S
C1368 C1374 1.383 . S
C1369 C1365 1.495 . S
C1369 H1375 0.959 . S
C1369 H1376 0.961 . S
C1369 H1377 0.960 . S
C1370 C1368 1.381 . S
C1370 C1371 1.394 . S
C1370 H1378 0.930 . S
C1371 C1370 1.394 . S
C1371 C1372 1.383 . S
C1371 H1379 0.929 . S
C1372 C1371 1.383 . S
C1372 C1373 1.377 . S
C1373 H1357 0.930 . S
C1373 C1372 1.377 . S
C1373 C1374 1.379 . S
C1374 H1358 0.931 . S
C1374 C1368 1.383 . S
C1374 C1373 1.379 . S
H1375 C1369 0.959 . S
H1376 C1369 0.961 . S
H1377 C1369 0.960 . S
H1378 C1370 0.930 . S
H1379 C1371 0.929 . S
H1380 C1388 0.929 . S
H1381 C1390 0.930 . S
H1382 C1392 0.930 . S
H1383 C1395 0.929 . S
H1384 C1398 0.930 . S
H1385 C1400 0.960 . S
H1386 C1400 0.960 . S
H1387 C1400 0.960 . S
C1388 H1380 0.929 . S
C1388 C1389 1.377 . S
C1388 C1390 1.384 . S
C1389 C1388 1.377 . S
C1389 C1395 1.390 . S
C1390 H1381 0.930 . S
C1390 C1388 1.384 . S
C1390 C1391 1.372 . S
C1391 C1390 1.372 . S
C1391 C1392 1.400 . S
C1391 C1396 1.490 . S
C1392 H1382 0.930 . S
C1392 C1391 1.400 . S
C1392 C1395 1.386 . S
H1393 C1409 0.930 . S
H1394 C1410 0.931 . S
C1395 H1383 0.929 . S
C1395 C1389 1.390 . S
C1395 C1392 1.386 . S
C1396 C1391 1.490 . S
C1396 C1398 1.395 . S
C1396 C1399 1.403 . S
H1397 C1403 0.930 . S
C1398 H1384 0.930 . S
C1398 C1396 1.395 . S
C1398 C1401 1.403 . S
C1399 C1396 1.403 . S
C1399 C1400 1.524 . S
C1399 C1403 1.400 . S
C1400 H1385 0.960 . S
C1400 H1386 0.960 . S
C1400 H1387 0.960 . S
C1400 C1399 1.524 . S
C1401 C1398 1.403 . S
C1401 C1402 1.392 . S
C1401 C1405 1.495 . S
C1402 C1401 1.392 . S
C1402 C1403 1.385 . S
C1402 C1404 1.478 . S
C1403 H1397 0.930 . S
C1403 C1399 1.400 . S
C1403 C1402 1.385 . S
C1404 C1402 1.478 . S
C1404 C1406 1.381 . S
C1404 C1410 1.383 . S
C1405 C1401 1.495 . S
C1405 H1411 0.959 . S
C1405 H1412 0.961 . S
C1405 H1413 0.960 . S
C1406 C1404 1.381 . S
C1406 C1407 1.394 . S
C1406 H1414 0.930 . S
C1407 C1406 1.394 . S
C1407 C1408 1.383 . S
C1407 H1415 0.929 . S
C1408 C1407 1.383 . S
C1408 C1409 1.377 . S
C1409 H1393 0.930 . S
C1409 C1408 1.377 . S
C1409 C1410 1.379 . S
C1410 H1394 0.931 . S
C1410 C1404 1.383 . S
C1410 C1409 1.379 . S
H1411 C1405 0.959 . S
H1412 C1405 0.961 . S
H1413 C1405 0.960 . S
H1414 C1406 0.930 . S
H1415 C1407 0.929 . S
H1416 C1424 0.929 . S
H1417 C1426 0.930 . S
H1418 C1428 0.930 . S
H1419 C1431 0.929 . S
H1420 C1434 0.930 . S
H1421 C1436 0.960 . S
H1422 C1436 0.960 . S
H1423 C1436 0.960 . S
C1424 H1416 0.929 . S
C1424 C1425 1.377 . S
C1424 C1426 1.384 . S
C1425 C1424 1.377 . S
C1425 C1431 1.390 . S
C1426 H1417 0.930 . S
C1426 C1424 1.384 . S
C1426 C1427 1.372 . S
C1427 C1426 1.372 . S
C1427 C1428 1.400 . S
C1427 C1432 1.490 . S
C1428 H1418 0.930 . S
C1428 C1427 1.400 . S
C1428 C1431 1.386 . S
H1429 C1445 0.930 . S
H1430 C1446 0.931 . S
C1431 H1419 0.929 . S
C1431 C1425 1.390 . S
C1431 C1428 1.386 . S
C1432 C1427 1.490 . S
C1432 C1434 1.395 . S
C1432 C1435 1.403 . S
H1433 C1439 0.930 . S
C1434 H1420 0.930 . S
C1434 C1432 1.395 . S
C1434 C1437 1.403 . S
C1435 C1432 1.403 . S
C1435 C1436 1.524 . S
C1435 C1439 1.400 . S
C1436 H1421 0.960 . S
C1436 H1422 0.960 . S
C1436 H1423 0.960 . S
C1436 C1435 1.524 . S
C1437 C1434 1.403 . S
C1437 C1438 1.392 . S
C1437 C1441 1.495 . S
C1438 C1437 1.392 . S
C1438 C1439 1.385 . S
C1438 C1440 1.478 . S
C1439 H1433 0.930 . S
C1439 C1435 1.400 . S
C1439 C1438 1.385 . S
C1440 C1438 1.478 . S
C1440 C1442 1.381 . S
C1440 C1446 1.383 . S
C1441 C1437 1.495 . S
C1441 H1447 0.959 . S
C1441 H1448 0.961 . S
C1441 H1449 0.960 . S
C1442 C1440 1.381 . S
C1442 C1443 1.394 . S
C1442 H1450 0.930 . S
C1443 C1442 1.394 . S
C1443 C1444 1.383 . S
C1443 H1451 0.929 . S
C1444 C1443 1.383 . S
C1444 C1445 1.377 . S
C1445 H1429 0.930 . S
C1445 C1444 1.377 . S
C1445 C1446 1.379 . S
C1446 H1430 0.931 . S
C1446 C1440 1.383 . S
C1446 C1445 1.379 . S
H1447 C1441 0.959 . S
H1448 C1441 0.961 . S
H1449 C1441 0.960 . S
H1450 C1442 0.930 . S
H1451 C1443 0.929 . S
H1452 C1460 0.929 . S
H1453 C1462 0.930 . S
H1454 C1464 0.930 . S
H1455 C1467 0.929 . S
H1456 C1470 0.930 . S
H1457 C1472 0.960 . S
H1458 C1472 0.960 . S
H1459 C1472 0.960 . S
C1460 H1452 0.929 . S
C1460 C1461 1.377 . S
C1460 C1462 1.384 . S
C1461 C1460 1.377 . S
C1461 C1467 1.390 . S
C1462 H1453 0.930 . S
C1462 C1460 1.384 . S
C1462 C1463 1.372 . S
C1463 C1462 1.372 . S
C1463 C1464 1.400 . S
C1463 C1468 1.490 . S
C1464 H1454 0.930 . S
C1464 C1463 1.400 . S
C1464 C1467 1.386 . S
H1465 C1481 0.930 . S
H1466 C1482 0.931 . S
C1467 H1455 0.929 . S
C1467 C1461 1.390 . S
C1467 C1464 1.386 . S
C1468 C1463 1.490 . S
C1468 C1470 1.395 . S
C1468 C1471 1.403 . S
H1469 C1475 0.930 . S
C1470 H1456 0.930 . S
C1470 C1468 1.395 . S
C1470 C1473 1.403 . S
C1471 C1468 1.403 . S
C1471 C1472 1.524 . S
C1471 C1475 1.400 . S
C1472 H1457 0.960 . S
C1472 H1458 0.960 . S
C1472 H1459 0.960 . S
C1472 C1471 1.524 . S
C1473 C1470 1.403 . S
C1473 C1474 1.392 . S
C1473 C1477 1.495 . S
C1474 C1473 1.392 . S
C1474 C1475 1.385 . S
C1474 C1476 1.478 . S
C1475 H1469 0.930 . S
C1475 C1471 1.400 . S
C1475 C1474 1.385 . S
C1476 C1474 1.478 . S
C1476 C1478 1.381 . S
C1476 C1482 1.383 . S
C1477 C1473 1.495 . S
C1477 H1483 0.959 . S
C1477 H1484 0.961 . S
C1477 H1485 0.960 . S
C1478 C1476 1.381 . S
C1478 C1479 1.394 . S
C1478 H1486 0.930 . S
C1479 C1478 1.394 . S
C1479 C1480 1.383 . S
C1479 H1487 0.929 . S
C1480 C1479 1.383 . S
C1480 C1481 1.377 . S
C1481 H1465 0.930 . S
C1481 C1480 1.377 . S
C1481 C1482 1.379 . S
C1482 H1466 0.931 . S
C1482 C1476 1.383 . S
C1482 C1481 1.379 . S
H1483 C1477 0.959 . S
H1484 C1477 0.961 . S
H1485 C1477 0.960 . S
H1486 C1478 0.930 . S
H1487 C1479 0.929 . S
H1488 C1496 0.929 . S
H1489 C1498 0.930 . S
H1490 C1500 0.930 . S
H1491 C1503 0.929 . S
H1492 C1506 0.930 . S
H1493 C1508 0.960 . S
H1494 C1508 0.960 . S
H1495 C1508 0.960 . S
C1496 H1488 0.929 . S
C1496 C1497 1.377 . S
C1496 C1498 1.384 . S
C1497 C1496 1.377 . S
C1497 C1503 1.390 . S
C1498 H1489 0.930 . S
C1498 C1496 1.384 . S
C1498 C1499 1.372 . S
C1499 C1498 1.372 . S
C1499 C1500 1.400 . S
C1499 C1504 1.490 . S
C1500 H1490 0.930 . S
C1500 C1499 1.400 . S
C1500 C1503 1.386 . S
H1501 C1517 0.930 . S
H1502 C1518 0.931 . S
C1503 H1491 0.929 . S
C1503 C1497 1.390 . S
C1503 C1500 1.386 . S
C1504 C1499 1.490 . S
C1504 C1506 1.395 . S
C1504 C1507 1.403 . S
H1505 C1511 0.930 . S
C1506 H1492 0.930 . S
C1506 C1504 1.395 . S
C1506 C1509 1.403 . S
C1507 C1504 1.403 . S
C1507 C1508 1.524 . S
C1507 C1511 1.400 . S
C1508 H1493 0.960 . S
C1508 H1494 0.960 . S
C1508 H1495 0.960 . S
C1508 C1507 1.524 . S
C1509 C1506 1.403 . S
C1509 C1510 1.392 . S
C1509 C1513 1.495 . S
C1510 C1509 1.392 . S
C1510 C1511 1.385 . S
C1510 C1512 1.478 . S
C1511 H1505 0.930 . S
C1511 C1507 1.400 . S
C1511 C1510 1.385 . S
C1512 C1510 1.478 . S
C1512 C1514 1.381 . S
C1512 C1518 1.383 . S
C1513 C1509 1.495 . S
C1513 H1519 0.959 . S
C1513 H1520 0.961 . S
C1513 H1521 0.960 . S
C1514 C1512 1.381 . S
C1514 C1515 1.394 . S
C1514 H1522 0.930 . S
C1515 C1514 1.394 . S
C1515 C1516 1.383 . S
C1515 H1523 0.929 . S
C1516 C1515 1.383 . S
C1516 C1517 1.377 . S
C1517 H1501 0.930 . S
C1517 C1516 1.377 . S
C1517 C1518 1.379 . S
C1518 H1502 0.931 . S
C1518 C1512 1.383 . S
C1518 C1517 1.379 . S
H1519 C1513 0.959 . S
H1520 C1513 0.961 . S
H1521 C1513 0.960 . S
H1522 C1514 0.930 . S
H1523 C1515 0.929 . S
H1524 C1532 0.929 . S
H1525 C1534 0.930 . S
H1526 C1536 0.930 . S
H1527 C1539 0.929 . S
H1528 C1542 0.930 . S
H1529 C1544 0.960 . S
H1530 C1544 0.960 . S
H1531 C1544 0.960 . S
C1532 H1524 0.929 . S
C1532 C1533 1.377 . S
C1532 C1534 1.384 . S
C1533 C1532 1.377 . S
C1533 C1539 1.390 . S
C1534 H1525 0.930 . S
C1534 C1532 1.384 . S
C1534 C1535 1.372 . S
C1535 C1534 1.372 . S
C1535 C1536 1.400 . S
C1535 C1540 1.490 . S
C1536 H1526 0.930 . S
C1536 C1535 1.400 . S
C1536 C1539 1.386 . S
H1537 C1553 0.930 . S
H1538 C1554 0.931 . S
C1539 H1527 0.929 . S
C1539 C1533 1.390 . S
C1539 C1536 1.386 . S
C1540 C1535 1.490 . S
C1540 C1542 1.395 . S
C1540 C1543 1.403 . S
H1541 C1547 0.930 . S
C1542 H1528 0.930 . S
C1542 C1540 1.395 . S
C1542 C1545 1.403 . S
C1543 C1540 1.403 . S
C1543 C1544 1.524 . S
C1543 C1547 1.400 . S
C1544 H1529 0.960 . S
C1544 H1530 0.960 . S
C1544 H1531 0.960 . S
C1544 C1543 1.524 . S
C1545 C1542 1.403 . S
C1545 C1546 1.392 . S
C1545 C1549 1.495 . S
C1546 C1545 1.392 . S
C1546 C1547 1.385 . S
C1546 C1548 1.478 . S
C1547 H1541 0.930 . S
C1547 C1543 1.400 . S
C1547 C1546 1.385 . S
C1548 C1546 1.478 . S
C1548 C1550 1.381 . S
C1548 C1554 1.383 . S
C1549 C1545 1.495 . S
C1549 H1555 0.959 . S
C1549 H1556 0.961 . S
C1549 H1557 0.960 . S
C1550 C1548 1.381 . S
C1550 C1551 1.394 . S
C1550 H1558 0.930 . S
C1551 C1550 1.394 . S
C1551 C1552 1.383 . S
C1551 H1559 0.929 . S
C1552 C1551 1.383 . S
C1552 C1553 1.377 . S
C1553 H1537 0.930 . S
C1553 C1552 1.377 . S
C1553 C1554 1.379 . S
C1554 H1538 0.931 . S
C1554 C1548 1.383 . S
C1554 C1553 1.379 . S
H1555 C1549 0.959 . S
H1556 C1549 0.961 . S
H1557 C1549 0.960 . S
H1558 C1550 0.930 . S
H1559 C1551 0.929 . S
H1560 C1568 0.929 . S
H1561 C1570 0.930 . S
H1562 C1572 0.930 . S
H1563 C1575 0.929 . S
H1564 C1578 0.930 . S
H1565 C1580 0.960 . S
H1566 C1580 0.960 . S
H1567 C1580 0.960 . S
C1568 H1560 0.929 . S
C1568 C1569 1.377 . S
C1568 C1570 1.384 . S
C1569 C1568 1.377 . S
C1569 C1575 1.390 . S
C1570 H1561 0.930 . S
C1570 C1568 1.384 . S
C1570 C1571 1.372 . S
C1571 C1570 1.372 . S
C1571 C1572 1.400 . S
C1571 C1576 1.490 . S
C1572 H1562 0.930 . S
C1572 C1571 1.400 . S
C1572 C1575 1.386 . S
H1573 C1589 0.930 . S
H1574 C1590 0.931 . S
C1575 H1563 0.929 . S
C1575 C1569 1.390 . S
C1575 C1572 1.386 . S
C1576 C1571 1.490 . S
C1576 C1578 1.395 . S
C1576 C1579 1.403 . S
H1577 C1583 0.930 . S
C1578 H1564 0.930 . S
C1578 C1576 1.395 . S
C1578 C1581 1.403 . S
C1579 C1576 1.403 . S
C1579 C1580 1.524 . S
C1579 C1583 1.400 . S
C1580 H1565 0.960 . S
C1580 H1566 0.960 . S
C1580 H1567 0.960 . S
C1580 C1579 1.524 . S
C1581 C1578 1.403 . S
C1581 C1582 1.392 . S
C1581 C1585 1.495 . S
C1582 C1581 1.392 . S
C1582 C1583 1.385 . S
C1582 C1584 1.478 . S
C1583 H1577 0.930 . S
C1583 C1579 1.400 . S
C1583 C1582 1.385 . S
C1584 C1582 1.478 . S
C1584 C1586 1.381 . S
C1584 C1590 1.383 . S
C1585 C1581 1.495 . S
C1585 H1591 0.959 . S
C1585 H1592 0.961 . S
C1585 H1593 0.960 . S
C1586 C1584 1.381 . S
C1586 C1587 1.394 . S
C1586 H1594 0.930 . S
C1587 C1586 1.394 . S
C1587 C1588 1.383 . S
C1587 H1595 0.929 . S
C1588 C1587 1.383 . S
C1588 C1589 1.377 . S
C1589 H1573 0.930 . S
C1589 C1588 1.377 . S
C1589 C1590 1.379 . S
C1590 H1574 0.931 . S
C1590 C1584 1.383 . S
C1590 C1589 1.379 . S
H1591 C1585 0.959 . S
H1592 C1585 0.961 . S
H1593 C1585 0.960 . S
H1594 C1586 0.930 . S
H1595 C1587 0.929 . S
H1596 C1604 0.929 . S
H1597 C1606 0.930 . S
H1598 C1608 0.930 . S
H1599 C1611 0.929 . S
H1600 C1614 0.930 . S
H1601 C1616 0.960 . S
H1602 C1616 0.960 . S
H1603 C1616 0.960 . S
C1604 H1596 0.929 . S
C1604 C1605 1.377 . S
C1604 C1606 1.384 . S
C1605 C1604 1.377 . S
C1605 C1611 1.390 . S
C1606 H1597 0.930 . S
C1606 C1604 1.384 . S
C1606 C1607 1.372 . S
C1607 C1606 1.372 . S
C1607 C1608 1.400 . S
C1607 C1612 1.490 . S
C1608 H1598 0.930 . S
C1608 C1607 1.400 . S
C1608 C1611 1.386 . S
H1609 C1625 0.930 . S
H1610 C1626 0.931 . S
C1611 H1599 0.929 . S
C1611 C1605 1.390 . S
C1611 C1608 1.386 . S
C1612 C1607 1.490 . S
C1612 C1614 1.395 . S
C1612 C1615 1.403 . S
H1613 C1619 0.930 . S
C1614 H1600 0.930 . S
C1614 C1612 1.395 . S
C1614 C1617 1.403 . S
C1615 C1612 1.403 . S
C1615 C1616 1.524 . S
C1615 C1619 1.400 . S
C1616 H1601 0.960 . S
C1616 H1602 0.960 . S
C1616 H1603 0.960 . S
C1616 C1615 1.524 . S
C1617 C1614 1.403 . S
C1617 C1618 1.392 . S
C1617 C1621 1.495 . S
C1618 C1617 1.392 . S
C1618 C1619 1.385 . S
C1618 C1620 1.478 . S
C1619 H1613 0.930 . S
C1619 C1615 1.400 . S
C1619 C1618 1.385 . S
C1620 C1618 1.478 . S
C1620 C1622 1.381 . S
C1620 C1626 1.383 . S
C1621 C1617 1.495 . S
C1621 H1627 0.959 . S
C1621 H1628 0.961 . S
C1621 H1629 0.960 . S
C1622 C1620 1.381 . S
C1622 C1623 1.394 . S
C1622 H1630 0.930 . S
C1623 C1622 1.394 . S
C1623 C1624 1.383 . S
C1623 H1631 0.929 . S
C1624 C1623 1.383 . S
C1624 C1625 1.377 . S
C1625 H1609 0.930 . S
C1625 C1624 1.377 . S
C1625 C1626 1.379 . S
C1626 H1610 0.931 . S
C1626 C1620 1.383 . S
C1626 C1625 1.379 . S
H1627 C1621 0.959 . S
H1628 C1621 0.961 . S
H1629 C1621 0.960 . S
H1630 C1622 0.930 . S
H1631 C1623 0.929 . S
H1632 C1640 0.929 . S
H1633 C1642 0.930 . S
H1634 C1644 0.930 . S
H1635 C1647 0.929 . S
H1636 C1650 0.930 . S
H1637 C1652 0.960 . S
H1638 C1652 0.960 . S
H1639 C1652 0.960 . S
C1640 H1632 0.929 . S
C1640 C1641 1.377 . S
C1640 C1642 1.384 . S
C1641 C1640 1.377 . S
C1641 C1647 1.390 . S
C1642 H1633 0.930 . S
C1642 C1640 1.384 . S
C1642 C1643 1.372 . S
C1643 C1642 1.372 . S
C1643 C1644 1.400 . S
C1643 C1648 1.490 . S
C1644 H1634 0.930 . S
C1644 C1643 1.400 . S
C1644 C1647 1.386 . S
H1645 C1661 0.930 . S
H1646 C1662 0.931 . S
C1647 H1635 0.929 . S
C1647 C1641 1.390 . S
C1647 C1644 1.386 . S
C1648 C1643 1.490 . S
C1648 C1650 1.395 . S
C1648 C1651 1.403 . S
H1649 C1655 0.930 . S
C1650 H1636 0.930 . S
C1650 C1648 1.395 . S
C1650 C1653 1.403 . S
C1651 C1648 1.403 . S
C1651 C1652 1.524 . S
C1651 C1655 1.400 . S
C1652 H1637 0.960 . S
C1652 H1638 0.960 . S
C1652 H1639 0.960 . S
C1652 C1651 1.524 . S
C1653 C1650 1.403 . S
C1653 C1654 1.392 . S
C1653 C1657 1.495 . S
C1654 C1653 1.392 . S
C1654 C1655 1.385 . S
C1654 C1656 1.478 . S
C1655 H1649 0.930 . S
C1655 C1651 1.400 . S
C1655 C1654 1.385 . S
C1656 C1654 1.478 . S
C1656 C1658 1.381 . S
C1656 C1662 1.383 . S
C1657 C1653 1.495 . S
C1657 H1663 0.959 . S
C1657 H1664 0.961 . S
C1657 H1665 0.960 . S
C1658 C1656 1.381 . S
C1658 C1659 1.394 . S
C1658 H1666 0.930 . S
C1659 C1658 1.394 . S
C1659 C1660 1.383 . S
C1659 H1667 0.929 . S
C1660 C1659 1.383 . S
C1660 C1661 1.377 . S
C1661 H1645 0.930 . S
C1661 C1660 1.377 . S
C1661 C1662 1.379 . S
C1662 H1646 0.931 . S
C1662 C1656 1.383 . S
C1662 C1661 1.379 . S
H1663 C1657 0.959 . S
H1664 C1657 0.961 . S
H1665 C1657 0.960 . S
H1666 C1658 0.930 . S
H1667 C1659 0.929 . S
H1668 C1676 0.929 . S
H1669 C1678 0.930 . S
H1670 C1680 0.930 . S
H1671 C1683 0.929 . S
H1672 C1686 0.930 . S
H1673 C1688 0.960 . S
H1674 C1688 0.960 . S
H1675 C1688 0.960 . S
C1676 H1668 0.929 . S
C1676 C1677 1.377 . S
C1676 C1678 1.384 . S
C1677 C1676 1.377 . S
C1677 C1683 1.390 . S
C1678 H1669 0.930 . S
C1678 C1676 1.384 . S
C1678 C1679 1.372 . S
C1679 C1678 1.372 . S
C1679 C1680 1.400 . S
C1679 C1684 1.490 . S
C1680 H1670 0.930 . S
C1680 C1679 1.400 . S
C1680 C1683 1.386 . S
H1681 C1697 0.930 . S
H1682 C1698 0.931 . S
C1683 H1671 0.929 . S
C1683 C1677 1.390 . S
C1683 C1680 1.386 . S
C1684 C1679 1.490 . S
C1684 C1686 1.395 . S
C1684 C1687 1.403 . S
H1685 C1691 0.930 . S
C1686 H1672 0.930 . S
C1686 C1684 1.395 . S
C1686 C1689 1.403 . S
C1687 C1684 1.403 . S
C1687 C1688 1.524 . S
C1687 C1691 1.400 . S
C1688 H1673 0.960 . S
C1688 H1674 0.960 . S
C1688 H1675 0.960 . S
C1688 C1687 1.524 . S
C1689 C1686 1.403 . S
C1689 C1690 1.392 . S
C1689 C1693 1.495 . S
C1690 C1689 1.392 . S
C1690 C1691 1.385 . S
C1690 C1692 1.478 . S
C1691 H1685 0.930 . S
C1691 C1687 1.400 . S
C1691 C1690 1.385 . S
C1692 C1690 1.478 . S
C1692 C1694 1.381 . S
C1692 C1698 1.383 . S
C1693 C1689 1.495 . S
C1693 H1699 0.959 . S
C1693 H1700 0.961 . S
C1693 H1701 0.960 . S
C1694 C1692 1.381 . S
C1694 C1695 1.394 . S
C1694 H1702 0.930 . S
C1695 C1694 1.394 . S
C1695 C1696 1.383 . S
C1695 H1703 0.929 . S
C1696 C1695 1.383 . S
C1696 C1697 1.377 . S
C1697 H1681 0.930 . S
C1697 C1696 1.377 . S
C1697 C1698 1.379 . S
C1698 H1682 0.931 . S
C1698 C1692 1.383 . S
C1698 C1697 1.379 . S
H1699 C1693 0.959 . S
H1700 C1693 0.961 . S
H1701 C1693 0.960 . S
H1702 C1694 0.930 . S
H1703 C1695 0.929 . S
H1704 C1712 0.929 . S
H1705 C1714 0.930 . S
H1706 C1716 0.930 . S
H1707 C1719 0.929 . S
H1708 C1722 0.930 . S
H1709 C1724 0.960 . S
H1710 C1724 0.960 . S
H1711 C1724 0.960 . S
C1712 H1704 0.929 . S
C1712 C1713 1.377 . S
C1712 C1714 1.384 . S
C1713 C1712 1.377 . S
C1713 C1719 1.390 . S
C1714 H1705 0.930 . S
C1714 C1712 1.384 . S
C1714 C1715 1.372 . S
C1715 C1714 1.372 . S
C1715 C1716 1.400 . S
C1715 C1720 1.490 . S
C1716 H1706 0.930 . S
C1716 C1715 1.400 . S
C1716 C1719 1.386 . S
H1717 C1733 0.930 . S
H1718 C1734 0.931 . S
C1719 H1707 0.929 . S
C1719 C1713 1.390 . S
C1719 C1716 1.386 . S
C1720 C1715 1.490 . S
C1720 C1722 1.395 . S
C1720 C1723 1.403 . S
H1721 C1727 0.930 . S
C1722 H1708 0.930 . S
C1722 C1720 1.395 . S
C1722 C1725 1.403 . S
C1723 C1720 1.403 . S
C1723 C1724 1.524 . S
C1723 C1727 1.400 . S
C1724 H1709 0.960 . S
C1724 H1710 0.960 . S
C1724 H1711 0.960 . S
C1724 C1723 1.524 . S
C1725 C1722 1.403 . S
C1725 C1726 1.392 . S
C1725 C1729 1.495 . S
C1726 C1725 1.392 . S
C1726 C1727 1.385 . S
C1726 C1728 1.478 . S
C1727 H1721 0.930 . S
C1727 C1723 1.400 . S
C1727 C1726 1.385 . S
C1728 C1726 1.478 . S
C1728 C1730 1.381 . S
C1728 C1734 1.383 . S
C1729 C1725 1.495 . S
C1729 H1735 0.959 . S
C1729 H1736 0.961 . S
C1729 H1737 0.960 . S
C1730 C1728 1.381 . S
C1730 C1731 1.394 . S
C1730 H1738 0.930 . S
C1731 C1730 1.394 . S
C1731 C1732 1.383 . S
C1731 H1739 0.929 . S
C1732 C1731 1.383 . S
C1732 C1733 1.377 . S
C1733 H1717 0.930 . S
C1733 C1732 1.377 . S
C1733 C1734 1.379 . S
C1734 H1718 0.931 . S
C1734 C1728 1.383 . S
C1734 C1733 1.379 . S
H1735 C1729 0.959 . S
H1736 C1729 0.961 . S
H1737 C1729 0.960 . S
H1738 C1730 0.930 . S
H1739 C1731 0.929 . S
H1740 C1748 0.929 . S
H1741 C1750 0.930 . S
H1742 C1752 0.930 . S
H1743 C1755 0.929 . S
H1744 C1758 0.930 . S
H1745 C1760 0.960 . S
H1746 C1760 0.960 . S
H1747 C1760 0.960 . S
C1748 H1740 0.929 . S
C1748 C1749 1.377 . S
C1748 C1750 1.384 . S
C1749 C1748 1.377 . S
C1749 C1755 1.390 . S
C1750 H1741 0.930 . S
C1750 C1748 1.384 . S
C1750 C1751 1.372 . S
C1751 C1750 1.372 . S
C1751 C1752 1.400 . S
C1751 C1756 1.490 . S
C1752 H1742 0.930 . S
C1752 C1751 1.400 . S
C1752 C1755 1.386 . S
H1753 C1769 0.930 . S
H1754 C1770 0.931 . S
C1755 H1743 0.929 . S
C1755 C1749 1.390 . S
C1755 C1752 1.386 . S
C1756 C1751 1.490 . S
C1756 C1758 1.395 . S
C1756 C1759 1.403 . S
H1757 C1763 0.930 . S
C1758 H1744 0.930 . S
C1758 C1756 1.395 . S
C1758 C1761 1.403 . S
C1759 C1756 1.403 . S
C1759 C1760 1.524 . S
C1759 C1763 1.400 . S
C1760 H1745 0.960 . S
C1760 H1746 0.960 . S
C1760 H1747 0.960 . S
C1760 C1759 1.524 . S
C1761 C1758 1.403 . S
C1761 C1762 1.392 . S
C1761 C1765 1.495 . S
C1762 C1761 1.392 . S
C1762 C1763 1.385 . S
C1762 C1764 1.478 . S
C1763 H1757 0.930 . S
C1763 C1759 1.400 . S
C1763 C1762 1.385 . S
C1764 C1762 1.478 . S
C1764 C1766 1.381 . S
C1764 C1770 1.383 . S
C1765 C1761 1.495 . S
C1765 H1771 0.959 . S
C1765 H1772 0.961 . S
C1765 H1773 0.960 . S
C1766 C1764 1.381 . S
C1766 C1767 1.394 . S
C1766 H1774 0.930 . S
C1767 C1766 1.394 . S
C1767 C1768 1.383 . S
C1767 H1775 0.929 . S
C1768 C1767 1.383 . S
C1768 C1769 1.377 . S
C1769 H1753 0.930 . S
C1769 C1768 1.377 . S
C1769 C1770 1.379 . S
C1770 H1754 0.931 . S
C1770 C1764 1.383 . S
C1770 C1769 1.379 . S
H1771 C1765 0.959 . S
H1772 C1765 0.961 . S
H1773 C1765 0.960 . S
H1774 C1766 0.930 . S
H1775 C1767 0.929 . S
H1776 C1784 0.929 . S
H1777 C1786 0.930 . S
H1778 C1788 0.930 . S
H1779 C1791 0.929 . S
H1780 C1794 0.930 . S
H1781 C1796 0.960 . S
H1782 C1796 0.960 . S
H1783 C1796 0.960 . S
C1784 H1776 0.929 . S
C1784 C1785 1.377 . S
C1784 C1786 1.384 . S
C1785 C1784 1.377 . S
C1785 C1791 1.390 . S
C1786 H1777 0.930 . S
C1786 C1784 1.384 . S
C1786 C1787 1.372 . S
C1787 C1786 1.372 . S
C1787 C1788 1.400 . S
C1787 C1792 1.490 . S
C1788 H1778 0.930 . S
C1788 C1787 1.400 . S
C1788 C1791 1.386 . S
H1789 C1805 0.930 . S
H1790 C1806 0.931 . S
C1791 H1779 0.929 . S
C1791 C1785 1.390 . S
C1791 C1788 1.386 . S
C1792 C1787 1.490 . S
C1792 C1794 1.395 . S
C1792 C1795 1.403 . S
H1793 C1799 0.930 . S
C1794 H1780 0.930 . S
C1794 C1792 1.395 . S
C1794 C1797 1.403 . S
C1795 C1792 1.403 . S
C1795 C1796 1.524 . S
C1795 C1799 1.400 . S
C1796 H1781 0.960 . S
C1796 H1782 0.960 . S
C1796 H1783 0.960 . S
C1796 C1795 1.524 . S
C1797 C1794 1.403 . S
C1797 C1798 1.392 . S
C1797 C1801 1.495 . S
C1798 C1797 1.392 . S
C1798 C1799 1.385 . S
C1798 C1800 1.478 . S
C1799 H1793 0.930 . S
C1799 C1795 1.400 . S
C1799 C1798 1.385 . S
C1800 C1798 1.478 . S
C1800 C1802 1.381 . S
C1800 C1806 1.383 . S
C1801 C1797 1.495 . S
C1801 H1807 0.959 . S
C1801 H1808 0.961 . S
C1801 H1809 0.960 . S
C1802 C1800 1.381 . S
C1802 C1803 1.394 . S
C1802 H1810 0.930 . S
C1803 C1802 1.394 . S
C1803 C1804 1.383 . S
C1803 H1811 0.929 . S
C1804 C1803 1.383 . S
C1804 C1805 1.377 . S
C1805 H1789 0.930 . S
C1805 C1804 1.377 . S
C1805 C1806 1.379 . S
C1806 H1790 0.931 . S
C1806 C1800 1.383 . S
C1806 C1805 1.379 . S
H1807 C1801 0.959 . S
H1808 C1801 0.961 . S
H1809 C1801 0.960 . S
H1810 C1802 0.930 . S
H1811 C1803 0.929 . S
H1812 C1820 0.929 . S
H1813 C1822 0.930 . S
H1814 C1824 0.930 . S
H1815 C1827 0.929 . S
H1816 C1830 0.930 . S
H1817 C1832 0.960 . S
H1818 C1832 0.960 . S
H1819 C1832 0.960 . S
C1820 H1812 0.929 . S
C1820 C1821 1.377 . S
C1820 C1822 1.384 . S
C1821 C1820 1.377 . S
C1821 C1827 1.390 . S
C1822 H1813 0.930 . S
C1822 C1820 1.384 . S
C1822 C1823 1.372 . S
C1823 C1822 1.372 . S
C1823 C1824 1.400 . S
C1823 C1828 1.490 . S
C1824 H1814 0.930 . S
C1824 C1823 1.400 . S
C1824 C1827 1.386 . S
H1825 C1841 0.930 . S
H1826 C1842 0.931 . S
C1827 H1815 0.929 . S
C1827 C1821 1.390 . S
C1827 C1824 1.386 . S
C1828 C1823 1.490 . S
C1828 C1830 1.395 . S
C1828 C1831 1.403 . S
H1829 C1835 0.930 . S
C1830 H1816 0.930 . S
C1830 C1828 1.395 . S
C1830 C1833 1.403 . S
C1831 C1828 1.403 . S
C1831 C1832 1.524 . S
C1831 C1835 1.400 . S
C1832 H1817 0.960 . S
C1832 H1818 0.960 . S
C1832 H1819 0.960 . S
C1832 C1831 1.524 . S
C1833 C1830 1.403 . S
C1833 C1834 1.392 . S
C1833 C1837 1.495 . S
C1834 C1833 1.392 . S
C1834 C1835 1.385 . S
C1834 C1836 1.478 . S
C1835 H1829 0.930 . S
C1835 C1831 1.400 . S
C1835 C1834 1.385 . S
C1836 C1834 1.478 . S
C1836 C1838 1.381 . S
C1836 C1842 1.383 . S
C1837 C1833 1.495 . S
C1837 H1843 0.959 . S
C1837 H1844 0.961 . S
C1837 H1845 0.960 . S
C1838 C1836 1.381 . S
C1838 C1839 1.394 . S
C1838 H1846 0.930 . S
C1839 C1838 1.394 . S
C1839 C1840 1.383 . S
C1839 H1847 0.929 . S
C1840 C1839 1.383 . S
C1840 C1841 1.377 . S
C1841 H1825 0.930 . S
C1841 C1840 1.377 . S
C1841 C1842 1.379 . S
C1842 H1826 0.931 . S
C1842 C1836 1.383 . S
C1842 C1841 1.379 . S
H1843 C1837 0.959 . S
H1844 C1837 0.961 . S
H1845 C1837 0.960 . S
H1846 C1838 0.930 . S
H1847 C1839 0.929 . S
H1848 C1856 0.929 . S
H1849 C1858 0.930 . S
H1850 C1860 0.930 . S
H1851 C1863 0.929 . S
H1852 C1866 0.930 . S
H1853 C1868 0.960 . S
H1854 C1868 0.960 . S
H1855 C1868 0.960 . S
C1856 H1848 0.929 . S
C1856 C1857 1.377 . S
C1856 C1858 1.384 . S
C1857 C1856 1.377 . S
C1857 C1863 1.390 . S
C1858 H1849 0.930 . S
C1858 C1856 1.384 . S
C1858 C1859 1.372 . S
C1859 C1858 1.372 . S
C1859 C1860 1.400 . S
C1859 C1864 1.490 . S
C1860 H1850 0.930 . S
C1860 C1859 1.400 . S
C1860 C1863 1.386 . S
H1861 C1877 0.930 . S
H1862 C1878 0.931 . S
C1863 H1851 0.929 . S
C1863 C1857 1.390 . S
C1863 C1860 1.386 . S
C1864 C1859 1.490 . S
C1864 C1866 1.395 . S
C1864 C1867 1.403 . S
H1865 C1871 0.930 . S
C1866 H1852 0.930 . S
C1866 C1864 1.395 . S
C1866 C1869 1.403 . S
C1867 C1864 1.403 . S
C1867 C1868 1.524 . S
C1867 C1871 1.400 . S
C1868 H1853 0.960 . S
C1868 H1854 0.960 . S
C1868 H1855 0.960 . S
C1868 C1867 1.524 . S
C1869 C1866 1.403 . S
C1869 C1870 1.392 . S
C1869 C1873 1.495 . S
C1870 C1869 1.392 . S
C1870 C1871 1.385 . S
C1870 C1872 1.478 . S
C1871 H1865 0.930 . S
C1871 C1867 1.400 . S
C1871 C1870 1.385 . S
C1872 C1870 1.478 . S
C1872 C1874 1.381 . S
C1872 C1878 1.383 . S
C1873 C1869 1.495 . S
C1873 H1879 0.959 . S
C1873 H1880 0.961 . S
C1873 H1881 0.960 . S
C1874 C1872 1.381 . S
C1874 C1875 1.394 . S
C1874 H1882 0.930 . S
C1875 C1874 1.394 . S
C1875 C1876 1.383 . S
C1875 H1883 0.929 . S
C1876 C1875 1.383 . S
C1876 C1877 1.377 . S
C1877 H1861 0.930 . S
C1877 C1876 1.377 . S
C1877 C1878 1.379 . S
C1878 H1862 0.931 . S
C1878 C1872 1.383 . S
C1878 C1877 1.379 . S
H1879 C1873 0.959 . S
H1880 C1873 0.961 . S
H1881 C1873 0.960 . S
H1882 C1874 0.930 . S
H1883 C1875 0.929 . S
H1884 C1892 0.929 . S
H1885 C1894 0.930 . S
H1886 C1896 0.930 . S
H1887 C1899 0.929 . S
H1888 C1902 0.930 . S
H1889 C1904 0.960 . S
H1890 C1904 0.960 . S
H1891 C1904 0.960 . S
C1892 H1884 0.929 . S
C1892 C1893 1.377 . S
C1892 C1894 1.384 . S
C1893 C1892 1.377 . S
C1893 C1899 1.390 . S
C1894 H1885 0.930 . S
C1894 C1892 1.384 . S
C1894 C1895 1.372 . S
C1895 C1894 1.372 . S
C1895 C1896 1.400 . S
C1895 C1900 1.490 . S
C1896 H1886 0.930 . S
C1896 C1895 1.400 . S
C1896 C1899 1.386 . S
H1897 C1913 0.930 . S
H1898 C1914 0.931 . S
C1899 H1887 0.929 . S
C1899 C1893 1.390 . S
C1899 C1896 1.386 . S
C1900 C1895 1.490 . S
C1900 C1902 1.395 . S
C1900 C1903 1.403 . S
H1901 C1907 0.930 . S
C1902 H1888 0.930 . S
C1902 C1900 1.395 . S
C1902 C1905 1.403 . S
C1903 C1900 1.403 . S
C1903 C1904 1.524 . S
C1903 C1907 1.400 . S
C1904 H1889 0.960 . S
C1904 H1890 0.960 . S
C1904 H1891 0.960 . S
C1904 C1903 1.524 . S
C1905 C1902 1.403 . S
C1905 C1906 1.392 . S
C1905 C1909 1.495 . S
C1906 C1905 1.392 . S
C1906 C1907 1.385 . S
C1906 C1908 1.478 . S
C1907 H1901 0.930 . S
C1907 C1903 1.400 . S
C1907 C1906 1.385 . S
C1908 C1906 1.478 . S
C1908 C1910 1.381 . S
C1908 C1914 1.383 . S
C1909 C1905 1.495 . S
C1909 H1915 0.959 . S
C1909 H1916 0.961 . S
C1909 H1917 0.960 . S
C1910 C1908 1.381 . S
C1910 C1911 1.394 . S
C1910 H1918 0.930 . S
C1911 C1910 1.394 . S
C1911 C1912 1.383 . S
C1911 H1919 0.929 . S
C1912 C1911 1.383 . S
C1912 C1913 1.377 . S
C1913 H1897 0.930 . S
C1913 C1912 1.377 . S
C1913 C1914 1.379 . S
C1914 H1898 0.931 . S
C1914 C1908 1.383 . S
C1914 C1913 1.379 . S
H1915 C1909 0.959 . S
H1916 C1909 0.961 . S
H1917 C1909 0.960 . S
H1918 C1910 0.930 . S
H1919 C1911 0.929 . S
H1920 C1928 0.929 . S
H1921 C1930 0.930 . S
H1922 C1932 0.930 . S
H1923 C1935 0.929 . S
H1924 C1938 0.930 . S
H1925 C1940 0.960 . S
H1926 C1940 0.960 . S
H1927 C1940 0.960 . S
C1928 H1920 0.929 . S
C1928 C1929 1.377 . S
C1928 C1930 1.384 . S
C1929 C1928 1.377 . S
C1929 C1935 1.390 . S
C1930 H1921 0.930 . S
C1930 C1928 1.384 . S
C1930 C1931 1.372 . S
C1931 C1930 1.372 . S
C1931 C1932 1.400 . S
C1931 C1936 1.490 . S
C1932 H1922 0.930 . S
C1932 C1931 1.400 . S
C1932 C1935 1.386 . S
H1933 C1949 0.930 . S
H1934 C1950 0.931 . S
C1935 H1923 0.929 . S
C1935 C1929 1.390 . S
C1935 C1932 1.386 . S
C1936 C1931 1.490 . S
C1936 C1938 1.395 . S
C1936 C1939 1.403 . S
H1937 C1943 0.930 . S
C1938 H1924 0.930 . S
C1938 C1936 1.395 . S
C1938 C1941 1.403 . S
C1939 C1936 1.403 . S
C1939 C1940 1.524 . S
C1939 C1943 1.400 . S
C1940 H1925 0.960 . S
C1940 H1926 0.960 . S
C1940 H1927 0.960 . S
C1940 C1939 1.524 . S
C1941 C1938 1.403 . S
C1941 C1942 1.392 . S
C1941 C1945 1.495 . S
C1942 C1941 1.392 . S
C1942 C1943 1.385 . S
C1942 C1944 1.478 . S
C1943 H1937 0.930 . S
C1943 C1939 1.400 . S
C1943 C1942 1.385 . S
C1944 C1942 1.478 . S
C1944 C1946 1.381 . S
C1944 C1950 1.383 . S
C1945 C1941 1.495 . S
C1945 H1951 0.959 . S
C1945 H1952 0.961 . S
C1945 H1953 0.960 . S
C1946 C1944 1.381 . S
C1946 C1947 1.394 . S
C1946 H1954 0.930 . S
C1947 C1946 1.394 . S
C1947 C1948 1.383 . S
C1947 H1955 0.929 . S
C1948 C1947 1.383 . S
C1948 C1949 1.377 . S
C1949 H1933 0.930 . S
C1949 C1948 1.377 . S
C1949 C1950 1.379 . S
C1950 H1934 0.931 . S
C1950 C1944 1.383 . S
C1950 C1949 1.379 . S
H1951 C1945 0.959 . S
H1952 C1945 0.961 . S
H1953 C1945 0.960 . S
H1954 C1946 0.930 . S
H1955 C1947 0.929 . S
H1956 C1964 0.929 . S
H1957 C1966 0.930 . S
H1958 C1968 0.930 . S
H1959 C1971 0.929 . S
H1960 C1974 0.930 . S
H1961 C1976 0.960 . S
H1962 C1976 0.960 . S
H1963 C1976 0.960 . S
C1964 H1956 0.929 . S
C1964 C1965 1.377 . S
C1964 C1966 1.384 . S
C1965 C1964 1.377 . S
C1965 C1971 1.390 . S
C1966 H1957 0.930 . S
C1966 C1964 1.384 . S
C1966 C1967 1.372 . S
C1967 C1966 1.372 . S
C1967 C1968 1.400 . S
C1967 C1972 1.490 . S
C1968 H1958 0.930 . S
C1968 C1967 1.400 . S
C1968 C1971 1.386 . S
H1969 C1985 0.930 . S
H1970 C1986 0.931 . S
C1971 H1959 0.929 . S
C1971 C1965 1.390 . S
C1971 C1968 1.386 . S
C1972 C1967 1.490 . S
C1972 C1974 1.395 . S
C1972 C1975 1.403 . S
H1973 C1979 0.930 . S
C1974 H1960 0.930 . S
C1974 C1972 1.395 . S
C1974 C1977 1.403 . S
C1975 C1972 1.403 . S
C1975 C1976 1.524 . S
C1975 C1979 1.400 . S
C1976 H1961 0.960 . S
C1976 H1962 0.960 . S
C1976 H1963 0.960 . S
C1976 C1975 1.524 . S
C1977 C1974 1.403 . S
C1977 C1978 1.392 . S
C1977 C1981 1.495 . S
C1978 C1977 1.392 . S
C1978 C1979 1.385 . S
C1978 C1980 1.478 . S
C1979 H1973 0.930 . S
C1979 C1975 1.400 . S
C1979 C1978 1.385 . S
C1980 C1978 1.478 . S
C1980 C1982 1.381 . S
C1980 C1986 1.383 . S
C1981 C1977 1.495 . S
C1981 H1987 0.959 . S
C1981 H1988 0.961 . S
C1981 H1989 0.960 . S
C1982 C1980 1.381 . S
C1982 C1983 1.394 . S
C1982 H1990 0.930 . S
C1983 C1982 1.394 . S
C1983 C1984 1.383 . S
C1983 H1991 0.929 . S
C1984 C1983 1.383 . S
C1984 C1985 1.377 . S
C1985 H1969 0.930 . S
C1985 C1984 1.377 . S
C1985 C1986 1.379 . S
C1986 H1970 0.931 . S
C1986 C1980 1.383 . S
C1986 C1985 1.379 . S
H1987 C1981 0.959 . S
H1988 C1981 0.961 . S
H1989 C1981 0.960 . S
H1990 C1982 0.930 . S
H1991 C1983 0.929 . S
H1992 C2000 0.929 . S
H1993 C2002 0.930 . S
H1994 C2004 0.930 . S
H1995 C2007 0.929 . S
H1996 C2010 0.930 . S
H1997 C2012 0.960 . S
H1998 C2012 0.960 . S
H1999 C2012 0.960 . S
C2000 H1992 0.929 . S
C2000 C2001 1.377 . S
C2000 C2002 1.384 . S
C2001 C2000 1.377 . S
C2001 C2007 1.390 . S
C2002 H1993 0.930 . S
C2002 C2000 1.384 . S
C2002 C2003 1.372 . S
C2003 C2002 1.372 . S
C2003 C2004 1.400 . S
C2003 C2008 1.490 . S
C2004 H1994 0.930 . S
C2004 C2003 1.400 . S
C2004 C2007 1.386 . S
H2005 C2021 0.930 . S
H2006 C2022 0.931 . S
C2007 H1995 0.929 . S
C2007 C2001 1.390 . S
C2007 C2004 1.386 . S
C2008 C2003 1.490 . S
C2008 C2010 1.395 . S
C2008 C2011 1.403 . S
H2009 C2015 0.930 . S
C2010 H1996 0.930 . S
C2010 C2008 1.395 . S
C2010 C2013 1.403 . S
C2011 C2008 1.403 . S
C2011 C2012 1.524 . S
C2011 C2015 1.400 . S
C2012 H1997 0.960 . S
C2012 H1998 0.960 . S
C2012 H1999 0.960 . S
C2012 C2011 1.524 . S
C2013 C2010 1.403 . S
C2013 C2014 1.392 . S
C2013 C2017 1.495 . S
C2014 C2013 1.392 . S
C2014 C2015 1.385 . S
C2014 C2016 1.478 . S
C2015 H2009 0.930 . S
C2015 C2011 1.400 . S
C2015 C2014 1.385 . S
C2016 C2014 1.478 . S
C2016 C2018 1.381 . S
C2016 C2022 1.383 . S
C2017 C2013 1.495 . S
C2017 H2023 0.959 . S
C2017 H2024 0.961 . S
C2017 H2025 0.960 . S
C2018 C2016 1.381 . S
C2018 C2019 1.394 . S
C2018 H2026 0.930 . S
C2019 C2018 1.394 . S
C2019 C2020 1.383 . S
C2019 H2027 0.929 . S
C2020 C2019 1.383 . S
C2020 C2021 1.377 . S
C2021 H2005 0.930 . S
C2021 C2020 1.377 . S
C2021 C2022 1.379 . S
C2022 H2006 0.931 . S
C2022 C2016 1.383 . S
C2022 C2021 1.379 . S
H2023 C2017 0.959 . S
H2024 C2017 0.961 . S
H2025 C2017 0.960 . S
H2026 C2018 0.930 . S
H2027 C2019 0.929 . S
H2028 C2036 0.929 . S
H2029 C2038 0.930 . S
H2030 C2040 0.930 . S
H2031 C2043 0.929 . S
H2032 C2046 0.930 . S
H2033 C2048 0.960 . S
H2034 C2048 0.960 . S
H2035 C2048 0.960 . S
C2036 H2028 0.929 . S
C2036 C2037 1.377 . S
C2036 C2038 1.384 . S
C2037 C2036 1.377 . S
C2037 C2043 1.390 . S
C2038 H2029 0.930 . S
C2038 C2036 1.384 . S
C2038 C2039 1.372 . S
C2039 C2038 1.372 . S
C2039 C2040 1.400 . S
C2039 C2044 1.490 . S
C2040 H2030 0.930 . S
C2040 C2039 1.400 . S
C2040 C2043 1.386 . S
H2041 C2057 0.930 . S
H2042 C2058 0.931 . S
C2043 H2031 0.929 . S
C2043 C2037 1.390 . S
C2043 C2040 1.386 . S
C2044 C2039 1.490 . S
C2044 C2046 1.395 . S
C2044 C2047 1.403 . S
H2045 C2051 0.930 . S
C2046 H2032 0.930 . S
C2046 C2044 1.395 . S
C2046 C2049 1.403 . S
C2047 C2044 1.403 . S
C2047 C2048 1.524 . S
C2047 C2051 1.400 . S
C2048 H2033 0.960 . S
C2048 H2034 0.960 . S
C2048 H2035 0.960 . S
C2048 C2047 1.524 . S
C2049 C2046 1.403 . S
C2049 C2050 1.392 . S
C2049 C2053 1.495 . S
C2050 C2049 1.392 . S
C2050 C2051 1.385 . S
C2050 C2052 1.478 . S
C2051 H2045 0.930 . S
C2051 C2047 1.400 . S
C2051 C2050 1.385 . S
C2052 C2050 1.478 . S
C2052 C2054 1.381 . S
C2052 C2058 1.383 . S
C2053 C2049 1.495 . S
C2053 H2059 0.959 . S
C2053 H2060 0.961 . S
C2053 H2061 0.960 . S
C2054 C2052 1.381 . S
C2054 C2055 1.394 . S
C2054 H2062 0.930 . S
C2055 C2054 1.394 . S
C2055 C2056 1.383 . S
C2055 H2063 0.929 . S
C2056 C2055 1.383 . S
C2056 C2057 1.377 . S
C2057 H2041 0.930 . S
C2057 C2056 1.377 . S
C2057 C2058 1.379 . S
C2058 H2042 0.931 . S
C2058 C2052 1.383 . S
C2058 C2057 1.379 . S
H2059 C2053 0.959 . S
H2060 C2053 0.961 . S
H2061 C2053 0.960 . S
H2062 C2054 0.930 . S
H2063 C2055 0.929 . S
H2064 C2072 0.929 . S
H2065 C2074 0.930 . S
H2066 C2076 0.930 . S
H2067 C2079 0.929 . S
H2068 C2082 0.930 . S
H2069 C2084 0.960 . S
H2070 C2084 0.960 . S
H2071 C2084 0.960 . S
C2072 H2064 0.929 . S
C2072 C2073 1.377 . S
C2072 C2074 1.384 . S
C2073 C2072 1.377 . S
C2073 C2079 1.390 . S
C2074 H2065 0.930 . S
C2074 C2072 1.384 . S
C2074 C2075 1.372 . S
C2075 C2074 1.372 . S
C2075 C2076 1.400 . S
C2075 C2080 1.490 . S
C2076 H2066 0.930 . S
C2076 C2075 1.400 . S
C2076 C2079 1.386 . S
H2077 C2093 0.930 . S
H2078 C2094 0.931 . S
C2079 H2067 0.929 . S
C2079 C2073 1.390 . S
C2079 C2076 1.386 . S
C2080 C2075 1.490 . S
C2080 C2082 1.395 . S
C2080 C2083 1.403 . S
H2081 C2087 0.930 . S
C2082 H2068 0.930 . S
C2082 C2080 1.395 . S
C2082 C2085 1.403 . S
C2083 C2080 1.403 . S
C2083 C2084 1.524 . S
C2083 C2087 1.400 . S
C2084 H2069 0.960 . S
C2084 H2070 0.960 . S
C2084 H2071 0.960 . S
C2084 C2083 1.524 . S
C2085 C2082 1.403 . S
C2085 C2086 1.392 . S
C2085 C2089 1.495 . S
C2086 C2085 1.392 . S
C2086 C2087 1.385 . S
C2086 C2088 1.478 . S
C2087 H2081 0.930 . S
C2087 C2083 1.400 . S
C2087 C2086 1.385 . S
C2088 C2086 1.478 . S
C2088 C2090 1.381 . S
C2088 C2094 1.383 . S
C2089 C2085 1.495 . S
C2089 H2095 0.959 . S
C2089 H2096 0.961 . S
C2089 H2097 0.960 . S
C2090 C2088 1.381 . S
C2090 C2091 1.394 . S
C2090 H2098 0.930 . S
C2091 C2090 1.394 . S
C2091 C2092 1.383 . S
C2091 H2099 0.929 . S
C2092 C2091 1.383 . S
C2092 C2093 1.377 . S
C2093 H2077 0.930 . S
C2093 C2092 1.377 . S
C2093 C2094 1.379 . S
C2094 H2078 0.931 . S
C2094 C2088 1.383 . S
C2094 C2093 1.379 . S
H2095 C2089 0.959 . S
H2096 C2089 0.961 . S
H2097 C2089 0.960 . S
H2098 C2090 0.930 . S
H2099 C2091 0.929 . S
H2100 C2108 0.929 . S
H2101 C2110 0.930 . S
H2102 C2112 0.930 . S
H2103 C2115 0.929 . S
H2104 C2118 0.930 . S
H2105 C2120 0.960 . S
H2106 C2120 0.960 . S
H2107 C2120 0.960 . S
C2108 H2100 0.929 . S
C2108 C2109 1.377 . S
C2108 C2110 1.384 . S
C2109 C2108 1.377 . S
C2109 C2115 1.390 . S
C2110 H2101 0.930 . S
C2110 C2108 1.384 . S
C2110 C2111 1.372 . S
C2111 C2110 1.372 . S
C2111 C2112 1.400 . S
C2111 C2116 1.490 . S
C2112 H2102 0.930 . S
C2112 C2111 1.400 . S
C2112 C2115 1.386 . S
H2113 C2129 0.930 . S
H2114 C2130 0.931 . S
C2115 H2103 0.929 . S
C2115 C2109 1.390 . S
C2115 C2112 1.386 . S
C2116 C2111 1.490 . S
C2116 C2118 1.395 . S
C2116 C2119 1.403 . S
H2117 C2123 0.930 . S
C2118 H2104 0.930 . S
C2118 C2116 1.395 . S
C2118 C2121 1.403 . S
C2119 C2116 1.403 . S
C2119 C2120 1.524 . S
C2119 C2123 1.400 . S
C2120 H2105 0.960 . S
C2120 H2106 0.960 . S
C2120 H2107 0.960 . S
C2120 C2119 1.524 . S
C2121 C2118 1.403 . S
C2121 C2122 1.392 . S
C2121 C2125 1.495 . S
C2122 C2121 1.392 . S
C2122 C2123 1.385 . S
C2122 C2124 1.478 . S
C2123 H2117 0.930 . S
C2123 C2119 1.400 . S
C2123 C2122 1.385 . S
C2124 C2122 1.478 . S
C2124 C2126 1.381 . S
C2124 C2130 1.383 . S
C2125 C2121 1.495 . S
C2125 H2131 0.959 . S
C2125 H2132 0.961 . S
C2125 H2133 0.960 . S
C2126 C2124 1.381 . S
C2126 C2127 1.394 . S
C2126 H2134 0.930 . S
C2127 C2126 1.394 . S
C2127 C2128 1.383 . S
C2127 H2135 0.929 . S
C2128 C2127 1.383 . S
C2128 C2129 1.377 . S
C2129 H2113 0.930 . S
C2129 C2128 1.377 . S
C2129 C2130 1.379 . S
C2130 H2114 0.931 . S
C2130 C2124 1.383 . S
C2130 C2129 1.379 . S
H2131 C2125 0.959 . S
H2132 C2125 0.961 . S
H2133 C2125 0.960 . S
H2134 C2126 0.930 . S
H2135 C2127 0.929 . S
H2136 C2144 0.929 . S
H2137 C2146 0.930 . S
H2138 C2148 0.930 . S
H2139 C2151 0.929 . S
H2140 C2154 0.930 . S
H2141 C2156 0.960 . S
H2142 C2156 0.960 . S
H2143 C2156 0.960 . S
C2144 H2136 0.929 . S
C2144 C2145 1.377 . S
C2144 C2146 1.384 . S
C2145 C2144 1.377 . S
C2145 C2151 1.390 . S
C2146 H2137 0.930 . S
C2146 C2144 1.384 . S
C2146 C2147 1.372 . S
C2147 C2146 1.372 . S
C2147 C2148 1.400 . S
C2147 C2152 1.490 . S
C2148 H2138 0.930 . S
C2148 C2147 1.400 . S
C2148 C2151 1.386 . S
H2149 C2165 0.930 . S
H2150 C2166 0.931 . S
C2151 H2139 0.929 . S
C2151 C2145 1.390 . S
C2151 C2148 1.386 . S
C2152 C2147 1.490 . S
C2152 C2154 1.395 . S
C2152 C2155 1.403 . S
H2153 C2159 0.930 . S
C2154 H2140 0.930 . S
C2154 C2152 1.395 . S
C2154 C2157 1.403 . S
C2155 C2152 1.403 . S
C2155 C2156 1.524 . S
C2155 C2159 1.400 . S
C2156 H2141 0.960 . S
C2156 H2142 0.960 . S
C2156 H2143 0.960 . S
C2156 C2155 1.524 . S
C2157 C2154 1.403 . S
C2157 C2158 1.392 . S
C2157 C2161 1.495 . S
C2158 C2157 1.392 . S
C2158 C2159 1.385 . S
C2158 C2160 1.478 . S
C2159 H2153 0.930 . S
C2159 C2155 1.400 . S
C2159 C2158 1.385 . S
C2160 C2158 1.478 . S
C2160 C2162 1.381 . S
C2160 C2166 1.383 . S
C2161 C2157 1.495 . S
C2161 H2167 0.959 . S
C2161 H2168 0.961 . S
C2161 H2169 0.960 . S
C2162 C2160 1.381 . S
C2162 C2163 1.394 . S
C2162 H2170 0.930 . S
C2163 C2162 1.394 . S
C2163 C2164 1.383 . S
C2163 H2171 0.929 . S
C2164 C2163 1.383 . S
C2164 C2165 1.377 . S
C2165 H2149 0.930 . S
C2165 C2164 1.377 . S
C2165 C2166 1.379 . S
C2166 H2150 0.931 . S
C2166 C2160 1.383 . S
C2166 C2165 1.379 . S
H2167 C2161 0.959 . S
H2168 C2161 0.961 . S
H2169 C2161 0.960 . S
H2170 C2162 0.930 . S
H2171 C2163 0.929 . S
H2172 C2180 0.929 . S
H2173 C2182 0.930 . S
H2174 C2184 0.930 . S
H2175 C2187 0.929 . S
H2176 C2190 0.930 . S
H2177 C2192 0.960 . S
H2178 C2192 0.960 . S
H2179 C2192 0.960 . S
C2180 H2172 0.929 . S
C2180 C2181 1.377 . S
C2180 C2182 1.384 . S
C2181 C2180 1.377 . S
C2181 C2187 1.390 . S
C2182 H2173 0.930 . S
C2182 C2180 1.384 . S
C2182 C2183 1.372 . S
C2183 C2182 1.372 . S
C2183 C2184 1.400 . S
C2183 C2188 1.490 . S
C2184 H2174 0.930 . S
C2184 C2183 1.400 . S
C2184 C2187 1.386 . S
H2185 C2201 0.930 . S
H2186 C2202 0.931 . S
C2187 H2175 0.929 . S
C2187 C2181 1.390 . S
C2187 C2184 1.386 . S
C2188 C2183 1.490 . S
C2188 C2190 1.395 . S
C2188 C2191 1.403 . S
H2189 C2195 0.930 . S
C2190 H2176 0.930 . S
C2190 C2188 1.395 . S
C2190 C2193 1.403 . S
C2191 C2188 1.403 . S
C2191 C2192 1.524 . S
C2191 C2195 1.400 . S
C2192 H2177 0.960 . S
C2192 H2178 0.960 . S
C2192 H2179 0.960 . S
C2192 C2191 1.524 . S
C2193 C2190 1.403 . S
C2193 C2194 1.392 . S
C2193 C2197 1.495 . S
C2194 C2193 1.392 . S
C2194 C2195 1.385 . S
C2194 C2196 1.478 . S
C2195 H2189 0.930 . S
C2195 C2191 1.400 . S
C2195 C2194 1.385 . S
C2196 C2194 1.478 . S
C2196 C2198 1.381 . S
C2196 C2202 1.383 . S
C2197 C2193 1.495 . S
C2197 H2203 0.959 . S
C2197 H2204 0.961 . S
C2197 H2205 0.960 . S
C2198 C2196 1.381 . S
C2198 C2199 1.394 . S
C2198 H2206 0.930 . S
C2199 C2198 1.394 . S
C2199 C2200 1.383 . S
C2199 H2207 0.929 . S
C2200 C2199 1.383 . S
C2200 C2201 1.377 . S
C2201 H2185 0.930 . S
C2201 C2200 1.377 . S
C2201 C2202 1.379 . S
C2202 H2186 0.931 . S
C2202 C2196 1.383 . S
C2202 C2201 1.379 . S
H2203 C2197 0.959 . S
H2204 C2197 0.961 . S
H2205 C2197 0.960 . S
H2206 C2198 0.930 . S
H2207 C2199 0.929 . S
H2208 C2216 0.929 . S
H2209 C2218 0.930 . S
H2210 C2220 0.930 . S
H2211 C2223 0.929 . S
H2212 C2226 0.930 . S
H2213 C2228 0.960 . S
H2214 C2228 0.960 . S
H2215 C2228 0.960 . S
C2216 H2208 0.929 . S
C2216 C2217 1.377 . S
C2216 C2218 1.384 . S
C2217 C2216 1.377 . S
C2217 C2223 1.390 . S
C2218 H2209 0.930 . S
C2218 C2216 1.384 . S
C2218 C2219 1.372 . S
C2219 C2218 1.372 . S
C2219 C2220 1.400 . S
C2219 C2224 1.490 . S
C2220 H2210 0.930 . S
C2220 C2219 1.400 . S
C2220 C2223 1.386 . S
H2221 C2237 0.930 . S
H2222 C2238 0.931 . S
C2223 H2211 0.929 . S
C2223 C2217 1.390 . S
C2223 C2220 1.386 . S
C2224 C2219 1.490 . S
C2224 C2226 1.395 . S
C2224 C2227 1.403 . S
H2225 C2231 0.930 . S
C2226 H2212 0.930 . S
C2226 C2224 1.395 . S
C2226 C2229 1.403 . S
C2227 C2224 1.403 . S
C2227 C2228 1.524 . S
C2227 C2231 1.400 . S
C2228 H2213 0.960 . S
C2228 H2214 0.960 . S
C2228 H2215 0.960 . S
C2228 C2227 1.524 . S
C2229 C2226 1.403 . S
C2229 C2230 1.392 . S
C2229 C2233 1.495 . S
C2230 C2229 1.392 . S
C2230 C2231 1.385 . S
C2230 C2232 1.478 . S
C2231 H2225 0.930 . S
C2231 C2227 1.400 . S
C2231 C2230 1.385 . S
C2232 C2230 1.478 . S
C2232 C2234 1.381 . S
C2232 C2238 1.383 . S
C2233 C2229 1.495 . S
C2233 H2239 0.959 . S
C2233 H2240 0.961 . S
C2233 H2241 0.960 . S
C2234 C2232 1.381 . S
C2234 C2235 1.394 . S
C2234 H2242 0.930 . S
C2235 C2234 1.394 . S
C2235 C2236 1.383 . S
C2235 H2243 0.929 . S
C2236 C2235 1.383 . S
C2236 C2237 1.377 . S
C2237 H2221 0.930 . S
C2237 C2236 1.377 . S
C2237 C2238 1.379 . S
C2238 H2222 0.931 . S
C2238 C2232 1.383 . S
C2238 C2237 1.379 . S
H2239 C2233 0.959 . S
H2240 C2233 0.961 . S
H2241 C2233 0.960 . S
H2242 C2234 0.930 . S
H2243 C2235 0.929 . S
H2244 C2252 0.929 . S
H2245 C2254 0.930 . S
H2246 C2256 0.930 . S
H2247 C2259 0.929 . S
H2248 C2262 0.930 . S
H2249 C2264 0.960 . S
H2250 C2264 0.960 . S
H2251 C2264 0.960 . S
C2252 H2244 0.929 . S
C2252 C2253 1.377 . S
C2252 C2254 1.384 . S
C2253 C2252 1.377 . S
C2253 C2259 1.390 . S
C2254 H2245 0.930 . S
C2254 C2252 1.384 . S
C2254 C2255 1.372 . S
C2255 C2254 1.372 . S
C2255 C2256 1.400 . S
C2255 C2260 1.490 . S
C2256 H2246 0.930 . S
C2256 C2255 1.400 . S
C2256 C2259 1.386 . S
H2257 C2273 0.930 . S
H2258 C2274 0.931 . S
C2259 H2247 0.929 . S
C2259 C2253 1.390 . S
C2259 C2256 1.386 . S
C2260 C2255 1.490 . S
C2260 C2262 1.395 . S
C2260 C2263 1.403 . S
H2261 C2267 0.930 . S
C2262 H2248 0.930 . S
C2262 C2260 1.395 . S
C2262 C2265 1.403 . S
C2263 C2260 1.403 . S
C2263 C2264 1.524 . S
C2263 C2267 1.400 . S
C2264 H2249 0.960 . S
C2264 H2250 0.960 . S
C2264 H2251 0.960 . S
C2264 C2263 1.524 . S
C2265 C2262 1.403 . S
C2265 C2266 1.392 . S
C2265 C2269 1.495 . S
C2266 C2265 1.392 . S
C2266 C2267 1.385 . S
C2266 C2268 1.478 . S
C2267 H2261 0.930 . S
C2267 C2263 1.400 . S
C2267 C2266 1.385 . S
C2268 C2266 1.478 . S
C2268 C2270 1.381 . S
C2268 C2274 1.383 . S
C2269 C2265 1.495 . S
C2269 H2275 0.959 . S
C2269 H2276 0.961 . S
C2269 H2277 0.960 . S
C2270 C2268 1.381 . S
C2270 C2271 1.394 . S
C2270 H2278 0.930 . S
C2271 C2270 1.394 . S
C2271 C2272 1.383 . S
C2271 H2279 0.929 . S
C2272 C2271 1.383 . S
C2272 C2273 1.377 . S
C2273 H2257 0.930 . S
C2273 C2272 1.377 . S
C2273 C2274 1.379 . S
C2274 H2258 0.931 . S
C2274 C2268 1.383 . S
C2274 C2273 1.379 . S
H2275 C2269 0.959 . S
H2276 C2269 0.961 . S
H2277 C2269 0.960 . S
H2278 C2270 0.930 . S
H2279 C2271 0.929 . S
H2280 C2288 0.929 . S
H2281 C2290 0.930 . S
H2282 C2292 0.930 . S
H2283 C2295 0.929 . S
H2284 C2298 0.930 . S
H2285 C2300 0.960 . S
H2286 C2300 0.960 . S
H2287 C2300 0.960 . S
C2288 H2280 0.929 . S
C2288 C2289 1.377 . S
C2288 C2290 1.384 . S
C2289 C2288 1.377 . S
C2289 C2295 1.390 . S
C2290 H2281 0.930 . S
C2290 C2288 1.384 . S
C2290 C2291 1.372 . S
C2291 C2290 1.372 . S
C2291 C2292 1.400 . S
C2291 C2296 1.490 . S
C2292 H2282 0.930 . S
C2292 C2291 1.400 . S
C2292 C2295 1.386 . S
H2293 C2309 0.930 . S
H2294 C2310 0.931 . S
C2295 H2283 0.929 . S
C2295 C2289 1.390 . S
C2295 C2292 1.386 . S
C2296 C2291 1.490 . S
C2296 C2298 1.395 . S
C2296 C2299 1.403 . S
H2297 C2303 0.930 . S
C2298 H2284 0.930 . S
C2298 C2296 1.395 . S
C2298 C2301 1.403 . S
C2299 C2296 1.403 . S
C2299 C2300 1.524 . S
C2299 C2303 1.400 . S
C2300 H2285 0.960 . S
C2300 H2286 0.960 . S
C2300 H2287 0.960 . S
C2300 C2299 1.524 . S
C2301 C2298 1.403 . S
C2301 C2302 1.392 . S
C2301 C2305 1.495 . S
C2302 C2301 1.392 . S
C2302 C2303 1.385 . S
C2302 C2304 1.478 . S
C2303 H2297 0.930 . S
C2303 C2299 1.400 . S
C2303 C2302 1.385 . S
C2304 C2302 1.478 . S
C2304 C2306 1.381 . S
C2304 C2310 1.383 . S
C2305 C2301 1.495 . S
C2305 H2311 0.959 . S
C2305 H2312 0.961 . S
C2305 H2313 0.960 . S
C2306 C2304 1.381 . S
C2306 C2307 1.394 . S
C2306 H2314 0.930 . S
C2307 C2306 1.394 . S
C2307 C2308 1.383 . S
C2307 H2315 0.929 . S
C2308 C2307 1.383 . S
C2308 C2309 1.377 . S
C2309 H2293 0.930 . S
C2309 C2308 1.377 . S
C2309 C2310 1.379 . S
C2310 H2294 0.931 . S
C2310 C2304 1.383 . S
C2310 C2309 1.379 . S
H2311 C2305 0.959 . S
H2312 C2305 0.961 . S
H2313 C2305 0.960 . S
H2314 C2306 0.930 . S
H2315 C2307 0.929 . S
H2316 C2324 0.929 . S
H2317 C2326 0.930 . S
H2318 C2328 0.930 . S
H2319 C2331 0.929 . S
H2320 C2334 0.930 . S
H2321 C2336 0.960 . S
H2322 C2336 0.960 . S
H2323 C2336 0.960 . S
C2324 H2316 0.929 . S
C2324 C2325 1.377 . S
C2324 C2326 1.384 . S
C2325 C2324 1.377 . S
C2325 C2331 1.390 . S
C2326 H2317 0.930 . S
C2326 C2324 1.384 . S
C2326 C2327 1.372 . S
C2327 C2326 1.372 . S
C2327 C2328 1.400 . S
C2327 C2332 1.490 . S
C2328 H2318 0.930 . S
C2328 C2327 1.400 . S
C2328 C2331 1.386 . S
H2329 C2345 0.930 . S
H2330 C2346 0.931 . S
C2331 H2319 0.929 . S
C2331 C2325 1.390 . S
C2331 C2328 1.386 . S
C2332 C2327 1.490 . S
C2332 C2334 1.395 . S
C2332 C2335 1.403 . S
H2333 C2339 0.930 . S
C2334 H2320 0.930 . S
C2334 C2332 1.395 . S
C2334 C2337 1.403 . S
C2335 C2332 1.403 . S
C2335 C2336 1.524 . S
C2335 C2339 1.400 . S
C2336 H2321 0.960 . S
C2336 H2322 0.960 . S
C2336 H2323 0.960 . S
C2336 C2335 1.524 . S
C2337 C2334 1.403 . S
C2337 C2338 1.392 . S
C2337 C2341 1.495 . S
C2338 C2337 1.392 . S
C2338 C2339 1.385 . S
C2338 C2340 1.478 . S
C2339 H2333 0.930 . S
C2339 C2335 1.400 . S
C2339 C2338 1.385 . S
C2340 C2338 1.478 . S
C2340 C2342 1.381 . S
C2340 C2346 1.383 . S
C2341 C2337 1.495 . S
C2341 H2347 0.959 . S
C2341 H2348 0.961 . S
C2341 H2349 0.960 . S
C2342 C2340 1.381 . S
C2342 C2343 1.394 . S
C2342 H2350 0.930 . S
C2343 C2342 1.394 . S
C2343 C2344 1.383 . S
C2343 H2351 0.929 . S
C2344 C2343 1.383 . S
C2344 C2345 1.377 . S
C2345 H2329 0.930 . S
C2345 C2344 1.377 . S
C2345 C2346 1.379 . S
C2346 H2330 0.931 . S
C2346 C2340 1.383 . S
C2346 C2345 1.379 . S
H2347 C2341 0.959 . S
H2348 C2341 0.961 . S
H2349 C2341 0.960 . S
H2350 C2342 0.930 . S
H2351 C2343 0.929 . S
H2352 C2360 0.929 . S
H2353 C2362 0.930 . S
H2354 C2364 0.930 . S
H2355 C2367 0.929 . S
H2356 C2370 0.930 . S
H2357 C2372 0.960 . S
H2358 C2372 0.960 . S
H2359 C2372 0.960 . S
C2360 H2352 0.929 . S
C2360 C2361 1.377 . S
C2360 C2362 1.384 . S
C2361 C2360 1.377 . S
C2361 C2367 1.390 . S
C2362 H2353 0.930 . S
C2362 C2360 1.384 . S
C2362 C2363 1.372 . S
C2363 C2362 1.372 . S
C2363 C2364 1.400 . S
C2363 C2368 1.490 . S
C2364 H2354 0.930 . S
C2364 C2363 1.400 . S
C2364 C2367 1.386 . S
H2365 C2381 0.930 . S
H2366 C2382 0.931 . S
C2367 H2355 0.929 . S
C2367 C2361 1.390 . S
C2367 C2364 1.386 . S
C2368 C2363 1.490 . S
C2368 C2370 1.395 . S
C2368 C2371 1.403 . S
H2369 C2375 0.930 . S
C2370 H2356 0.930 . S
C2370 C2368 1.395 . S
C2370 C2373 1.403 . S
C2371 C2368 1.403 . S
C2371 C2372 1.524 . S
C2371 C2375 1.400 . S
C2372 H2357 0.960 . S
C2372 H2358 0.960 . S
C2372 H2359 0.960 . S
C2372 C2371 1.524 . S
C2373 C2370 1.403 . S
C2373 C2374 1.392 . S
C2373 C2377 1.495 . S
C2374 C2373 1.392 . S
C2374 C2375 1.385 . S
C2374 C2376 1.478 . S
C2375 H2369 0.930 . S
C2375 C2371 1.400 . S
C2375 C2374 1.385 . S
C2376 C2374 1.478 . S
C2376 C2378 1.381 . S
C2376 C2382 1.383 . S
C2377 C2373 1.495 . S
C2377 H2383 0.959 . S
C2377 H2384 0.961 . S
C2377 H2385 0.960 . S
C2378 C2376 1.381 . S
C2378 C2379 1.394 . S
C2378 H2386 0.930 . S
C2379 C2378 1.394 . S
C2379 C2380 1.383 . S
C2379 H2387 0.929 . S
C2380 C2379 1.383 . S
C2380 C2381 1.377 . S
C2381 H2365 0.930 . S
C2381 C2380 1.377 . S
C2381 C2382 1.379 . S
C2382 H2366 0.931 . S
C2382 C2376 1.383 . S
C2382 C2381 1.379 . S
H2383 C2377 0.959 . S
H2384 C2377 0.961 . S
H2385 C2377 0.960 . S
H2386 C2378 0.930 . S
H2387 C2379 0.929 . S
H2388 C2396 0.929 . S
H2389 C2398 0.930 . S
H2390 C2400 0.930 . S
H2391 C2403 0.929 . S
H2392 C2406 0.930 . S
H2393 C2408 0.960 . S
H2394 C2408 0.960 . S
H2395 C2408 0.960 . S
C2396 H2388 0.929 . S
C2396 C2397 1.377 . S
C2396 C2398 1.384 . S
C2397 C2396 1.377 . S
C2397 C2403 1.390 . S
C2398 H2389 0.930 . S
C2398 C2396 1.384 . S
C2398 C2399 1.372 . S
C2399 C2398 1.372 . S
C2399 C2400 1.400 . S
C2399 C2404 1.490 . S
C2400 H2390 0.930 . S
C2400 C2399 1.400 . S
C2400 C2403 1.386 . S
H2401 C2417 0.930 . S
H2402 C2418 0.931 . S
C2403 H2391 0.929 . S
C2403 C2397 1.390 . S
C2403 C2400 1.386 . S
C2404 C2399 1.490 . S
C2404 C2406 1.395 . S
C2404 C2407 1.403 . S
H2405 C2411 0.930 . S
C2406 H2392 0.930 . S
C2406 C2404 1.395 . S
C2406 C2409 1.403 . S
C2407 C2404 1.403 . S
C2407 C2408 1.524 . S
C2407 C2411 1.400 . S
C2408 H2393 0.960 . S
C2408 H2394 0.960 . S
C2408 H2395 0.960 . S
C2408 C2407 1.524 . S
C2409 C2406 1.403 . S
C2409 C2410 1.392 . S
C2409 C2413 1.495 . S
C2410 C2409 1.392 . S
C2410 C2411 1.385 . S
C2410 C2412 1.478 . S
C2411 H2405 0.930 . S
C2411 C2407 1.400 . S
C2411 C2410 1.385 . S
C2412 C2410 1.478 . S
C2412 C2414 1.381 . S
C2412 C2418 1.383 . S
C2413 C2409 1.495 . S
C2413 H2419 0.959 . S
C2413 H2420 0.961 . S
C2413 H2421 0.960 . S
C2414 C2412 1.381 . S
C2414 C2415 1.394 . S
C2414 H2422 0.930 . S
C2415 C2414 1.394 . S
C2415 C2416 1.383 . S
C2415 H2423 0.929 . S
C2416 C2415 1.383 . S
C2416 C2417 1.377 . S
C2417 H2401 0.930 . S
C2417 C2416 1.377 . S
C2417 C2418 1.379 . S
C2418 H2402 0.931 . S
C2418 C2412 1.383 . S
C2418 C2417 1.379 . S
H2419 C2413 0.959 . S
H2420 C2413 0.961 . S
H2421 C2413 0.960 . S
H2422 C2414 0.930 . S
H2423 C2415 0.929 . S
H2424 C2432 0.929 . S
H2425 C2434 0.930 . S
H2426 C2436 0.930 . S
H2427 C2439 0.929 . S
H2428 C2442 0.930 . S
H2429 C2444 0.960 . S
H2430 C2444 0.960 . S
H2431 C2444 0.960 . S
C2432 H2424 0.929 . S
C2432 C2433 1.377 . S
C2432 C2434 1.384 . S
C2433 C2432 1.377 . S
C2433 C2439 1.390 . S
C2434 H2425 0.930 . S
C2434 C2432 1.384 . S
C2434 C2435 1.372 . S
C2435 C2434 1.372 . S
C2435 C2436 1.400 . S
C2435 C2440 1.490 . S
C2436 H2426 0.930 . S
C2436 C2435 1.400 . S
C2436 C2439 1.386 . S
H2437 C2453 0.930 . S
H2438 C2454 0.931 . S
C2439 H2427 0.929 . S
C2439 C2433 1.390 . S
C2439 C2436 1.386 . S
C2440 C2435 1.490 . S
C2440 C2442 1.395 . S
C2440 C2443 1.403 . S
H2441 C2447 0.930 . S
C2442 H2428 0.930 . S
C2442 C2440 1.395 . S
C2442 C2445 1.403 . S
C2443 C2440 1.403 . S
C2443 C2444 1.524 . S
C2443 C2447 1.400 . S
C2444 H2429 0.960 . S
C2444 H2430 0.960 . S
C2444 H2431 0.960 . S
C2444 C2443 1.524 . S
C2445 C2442 1.403 . S
C2445 C2446 1.392 . S
C2445 C2449 1.495 . S
C2446 C2445 1.392 . S
C2446 C2447 1.385 . S
C2446 C2448 1.478 . S
C2447 H2441 0.930 . S
C2447 C2443 1.400 . S
C2447 C2446 1.385 . S
C2448 C2446 1.478 . S
C2448 C2450 1.381 . S
C2448 C2454 1.383 . S
C2449 C2445 1.495 . S
C2449 H2455 0.959 . S
C2449 H2456 0.961 . S
C2449 H2457 0.960 . S
C2450 C2448 1.381 . S
C2450 C2451 1.394 . S
C2450 H2458 0.930 . S
C2451 C2450 1.394 . S
C2451 C2452 1.383 . S
C2451 H2459 0.929 . S
C2452 C2451 1.383 . S
C2452 C2453 1.377 . S
C2453 H2437 0.930 . S
C2453 C2452 1.377 . S
C2453 C2454 1.379 . S
C2454 H2438 0.931 . S
C2454 C2448 1.383 . S
C2454 C2453 1.379 . S
H2455 C2449 0.959 . S
H2456 C2449 0.961 . S
H2457 C2449 0.960 . S
H2458 C2450 0.930 . S
H2459 C2451 0.929 . S
H2460 C2468 0.929 . S
H2461 C2470 0.930 . S
H2462 C2472 0.930 . S
H2463 C2475 0.929 . S
H2464 C2478 0.930 . S
H2465 C2480 0.960 . S
H2466 C2480 0.960 . S
H2467 C2480 0.960 . S
C2468 H2460 0.929 . S
C2468 C2469 1.377 . S
C2468 C2470 1.384 . S
C2469 C2468 1.377 . S
C2469 C2475 1.390 . S
C2470 H2461 0.930 . S
C2470 C2468 1.384 . S
C2470 C2471 1.372 . S
C2471 C2470 1.372 . S
C2471 C2472 1.400 . S
C2471 C2476 1.490 . S
C2472 H2462 0.930 . S
C2472 C2471 1.400 . S
C2472 C2475 1.386 . S
H2473 C2489 0.930 . S
H2474 C2490 0.931 . S
C2475 H2463 0.929 . S
C2475 C2469 1.390 . S
C2475 C2472 1.386 . S
C2476 C2471 1.490 . S
C2476 C2478 1.395 . S
C2476 C2479 1.403 . S
H2477 C2483 0.930 . S
C2478 H2464 0.930 . S
C2478 C2476 1.395 . S
C2478 C2481 1.403 . S
C2479 C2476 1.403 . S
C2479 C2480 1.524 . S
C2479 C2483 1.400 . S
C2480 H2465 0.960 . S
C2480 H2466 0.960 . S
C2480 H2467 0.960 . S
C2480 C2479 1.524 . S
C2481 C2478 1.403 . S
C2481 C2482 1.392 . S
C2481 C2485 1.495 . S
C2482 C2481 1.392 . S
C2482 C2483 1.385 . S
C2482 C2484 1.478 . S
C2483 H2477 0.930 . S
C2483 C2479 1.400 . S
C2483 C2482 1.385 . S
C2484 C2482 1.478 . S
C2484 C2486 1.381 . S
C2484 C2490 1.383 . S
C2485 C2481 1.495 . S
C2485 H2491 0.959 . S
C2485 H2492 0.961 . S
C2485 H2493 0.960 . S
C2486 C2484 1.381 . S
C2486 C2487 1.394 . S
C2486 H2494 0.930 . S
C2487 C2486 1.394 . S
C2487 C2488 1.383 . S
C2487 H2495 0.929 . S
C2488 C2487 1.383 . S
C2488 C2489 1.377 . S
C2489 H2473 0.930 . S
C2489 C2488 1.377 . S
C2489 C2490 1.379 . S
C2490 H2474 0.931 . S
C2490 C2484 1.383 . S
C2490 C2489 1.379 . S
H2491 C2485 0.959 . S
H2492 C2485 0.961 . S
H2493 C2485 0.960 . S
H2494 C2486 0.930 . S
H2495 C2487 0.929 . S
H2496 C2504 0.929 . S
H2497 C2506 0.930 . S
H2498 C2508 0.930 . S
H2499 C2511 0.929 . S
H2500 C2514 0.930 . S
H2501 C2516 0.960 . S
H2502 C2516 0.960 . S
H2503 C2516 0.960 . S
C2504 H2496 0.929 . S
C2504 C2505 1.377 . S
C2504 C2506 1.384 . S
C2505 C2504 1.377 . S
C2505 C2511 1.390 . S
C2506 H2497 0.930 . S
C2506 C2504 1.384 . S
C2506 C2507 1.372 . S
C2507 C2506 1.372 . S
C2507 C2508 1.400 . S
C2507 C2512 1.490 . S
C2508 H2498 0.930 . S
C2508 C2507 1.400 . S
C2508 C2511 1.386 . S
H2509 C2525 0.930 . S
H2510 C2526 0.931 . S
C2511 H2499 0.929 . S
C2511 C2505 1.390 . S
C2511 C2508 1.386 . S
C2512 C2507 1.490 . S
C2512 C2514 1.395 . S
C2512 C2515 1.403 . S
H2513 C2519 0.930 . S
C2514 H2500 0.930 . S
C2514 C2512 1.395 . S
C2514 C2517 1.403 . S
C2515 C2512 1.403 . S
C2515 C2516 1.524 . S
C2515 C2519 1.400 . S
C2516 H2501 0.960 . S
C2516 H2502 0.960 . S
C2516 H2503 0.960 . S
C2516 C2515 1.524 . S
C2517 C2514 1.403 . S
C2517 C2518 1.392 . S
C2517 C2521 1.495 . S
C2518 C2517 1.392 . S
C2518 C2519 1.385 . S
C2518 C2520 1.478 . S
C2519 H2513 0.930 . S
C2519 C2515 1.400 . S
C2519 C2518 1.385 . S
C2520 C2518 1.478 . S
C2520 C2522 1.381 . S
C2520 C2526 1.383 . S
C2521 C2517 1.495 . S
C2521 H2527 0.959 . S
C2521 H2528 0.961 . S
C2521 H2529 0.960 . S
C2522 C2520 1.381 . S
C2522 C2523 1.394 . S
C2522 H2530 0.930 . S
C2523 C2522 1.394 . S
C2523 C2524 1.383 . S
C2523 H2531 0.929 . S
C2524 C2523 1.383 . S
C2524 C2525 1.377 . S
C2525 H2509 0.930 . S
C2525 C2524 1.377 . S
C2525 C2526 1.379 . S
C2526 H2510 0.931 . S
C2526 C2520 1.383 . S
C2526 C2525 1.379 . S
H2527 C2521 0.959 . S
H2528 C2521 0.961 . S
H2529 C2521 0.960 . S
H2530 C2522 0.930 . S
H2531 C2523 0.929 . S
H2532 C2540 0.929 . S
H2533 C2542 0.930 . S
H2534 C2544 0.930 . S
H2535 C2547 0.929 . S
H2536 C2550 0.930 . S
H2537 C2552 0.960 . S
H2538 C2552 0.960 . S
H2539 C2552 0.960 . S
C2540 H2532 0.929 . S
C2540 C2541 1.377 . S
C2540 C2542 1.384 . S
C2541 C2540 1.377 . S
C2541 C2547 1.390 . S
C2542 H2533 0.930 . S
C2542 C2540 1.384 . S
C2542 C2543 1.372 . S
C2543 C2542 1.372 . S
C2543 C2544 1.400 . S
C2543 C2548 1.490 . S
C2544 H2534 0.930 . S
C2544 C2543 1.400 . S
C2544 C2547 1.386 . S
H2545 C2561 0.930 . S
H2546 C2562 0.931 . S
C2547 H2535 0.929 . S
C2547 C2541 1.390 . S
C2547 C2544 1.386 . S
C2548 C2543 1.490 . S
C2548 C2550 1.395 . S
C2548 C2551 1.403 . S
H2549 C2555 0.930 . S
C2550 H2536 0.930 . S
C2550 C2548 1.395 . S
C2550 C2553 1.403 . S
C2551 C2548 1.403 . S
C2551 C2552 1.524 . S
C2551 C2555 1.400 . S
C2552 H2537 0.960 . S
C2552 H2538 0.960 . S
C2552 H2539 0.960 . S
C2552 C2551 1.524 . S
C2553 C2550 1.403 . S
C2553 C2554 1.392 . S
C2553 C2557 1.495 . S
C2554 C2553 1.392 . S
C2554 C2555 1.385 . S
C2554 C2556 1.478 . S
C2555 H2549 0.930 . S
C2555 C2551 1.400 . S
C2555 C2554 1.385 . S
C2556 C2554 1.478 . S
C2556 C2558 1.381 . S
C2556 C2562 1.383 . S
C2557 C2553 1.495 . S
C2557 H2563 0.959 . S
C2557 H2564 0.961 . S
C2557 H2565 0.960 . S
C2558 C2556 1.381 . S
C2558 C2559 1.394 . S
C2558 H2566 0.930 . S
C2559 C2558 1.394 . S
C2559 C2560 1.383 . S
C2559 H2567 0.929 . S
C2560 C2559 1.383 . S
C2560 C2561 1.377 . S
C2561 H2545 0.930 . S
C2561 C2560 1.377 . S
C2561 C2562 1.379 . S
C2562 H2546 0.931 . S
C2562 C2556 1.383 . S
C2562 C2561 1.379 . S
H2563 C2557 0.959 . S
H2564 C2557 0.961 . S
H2565 C2557 0.960 . S
H2566 C2558 0.930 . S
H2567 C2559 0.929 . S
H2568 C2576 0.929 . S
H2569 C2578 0.930 . S
H2570 C2580 0.930 . S
H2571 C2583 0.929 . S
H2572 C2586 0.930 . S
H2573 C2588 0.960 . S
H2574 C2588 0.960 . S
H2575 C2588 0.960 . S
C2576 H2568 0.929 . S
C2576 C2577 1.377 . S
C2576 C2578 1.384 . S
C2577 C2576 1.377 . S
C2577 C2583 1.390 . S
C2578 H2569 0.930 . S
C2578 C2576 1.384 . S
C2578 C2579 1.372 . S
C2579 C2578 1.372 . S
C2579 C2580 1.400 . S
C2579 C2584 1.490 . S
C2580 H2570 0.930 . S
C2580 C2579 1.400 . S
C2580 C2583 1.386 . S
H2581 C2597 0.930 . S
H2582 C2598 0.931 . S
C2583 H2571 0.929 . S
C2583 C2577 1.390 . S
C2583 C2580 1.386 . S
C2584 C2579 1.490 . S
C2584 C2586 1.395 . S
C2584 C2587 1.403 . S
H2585 C2591 0.930 . S
C2586 H2572 0.930 . S
C2586 C2584 1.395 . S
C2586 C2589 1.403 . S
C2587 C2584 1.403 . S
C2587 C2588 1.524 . S
C2587 C2591 1.400 . S
C2588 H2573 0.960 . S
C2588 H2574 0.960 . S
C2588 H2575 0.960 . S
C2588 C2587 1.524 . S
C2589 C2586 1.403 . S
C2589 C2590 1.392 . S
C2589 C2593 1.495 . S
C2590 C2589 1.392 . S
C2590 C2591 1.385 . S
C2590 C2592 1.478 . S
C2591 H2585 0.930 . S
C2591 C2587 1.400 . S
C2591 C2590 1.385 . S
C2592 C2590 1.478 . S
C2592 C2594 1.381 . S
C2592 C2598 1.383 . S
C2593 C2589 1.495 . S
C2593 H2599 0.959 . S
C2593 H2600 0.961 . S
C2593 H2601 0.960 . S
C2594 C2592 1.381 . S
C2594 C2595 1.394 . S
C2594 H2602 0.930 . S
C2595 C2594 1.394 . S
C2595 C2596 1.383 . S
C2595 H2603 0.929 . S
C2596 C2595 1.383 . S
C2596 C2597 1.377 . S
C2597 H2581 0.930 . S
C2597 C2596 1.377 . S
C2597 C2598 1.379 . S
C2598 H2582 0.931 . S
C2598 C2592 1.383 . S
C2598 C2597 1.379 . S
H2599 C2593 0.959 . S
H2600 C2593 0.961 . S
H2601 C2593 0.960 . S
H2602 C2594 0.930 . S
H2603 C2595 0.929 . S
H2604 C2612 0.929 . S
H2605 C2614 0.930 . S
H2606 C2616 0.930 . S
H2607 C2619 0.929 . S
H2608 C2622 0.930 . S
H2609 C2624 0.960 . S
H2610 C2624 0.960 . S
H2611 C2624 0.960 . S
C2612 H2604 0.929 . S
C2612 C2613 1.377 . S
C2612 C2614 1.384 . S
C2613 C2612 1.377 . S
C2613 C2619 1.390 . S
C2614 H2605 0.930 . S
C2614 C2612 1.384 . S
C2614 C2615 1.372 . S
C2615 C2614 1.372 . S
C2615 C2616 1.400 . S
C2615 C2620 1.490 . S
C2616 H2606 0.930 . S
C2616 C2615 1.400 . S
C2616 C2619 1.386 . S
H2617 C2633 0.930 . S
H2618 C2634 0.931 . S
C2619 H2607 0.929 . S
C2619 C2613 1.390 . S
C2619 C2616 1.386 . S
C2620 C2615 1.490 . S
C2620 C2622 1.395 . S
C2620 C2623 1.403 . S
H2621 C2627 0.930 . S
C2622 H2608 0.930 . S
C2622 C2620 1.395 . S
C2622 C2625 1.403 . S
C2623 C2620 1.403 . S
C2623 C2624 1.524 . S
C2623 C2627 1.400 . S
C2624 H2609 0.960 . S
C2624 H2610 0.960 . S
C2624 H2611 0.960 . S
C2624 C2623 1.524 . S
C2625 C2622 1.403 . S
C2625 C2626 1.392 . S
C2625 C2629 1.495 . S
C2626 C2625 1.392 . S
C2626 C2627 1.385 . S
C2626 C2628 1.478 . S
C2627 H2621 0.930 . S
C2627 C2623 1.400 . S
C2627 C2626 1.385 . S
C2628 C2626 1.478 . S
C2628 C2630 1.381 . S
C2628 C2634 1.383 . S
C2629 C2625 1.495 . S
C2629 H2635 0.959 . S
C2629 H2636 0.961 . S
C2629 H2637 0.960 . S
C2630 C2628 1.381 . S
C2630 C2631 1.394 . S
C2630 H2638 0.930 . S
C2631 C2630 1.394 . S
C2631 C2632 1.383 . S
C2631 H2639 0.929 . S
C2632 C2631 1.383 . S
C2632 C2633 1.377 . S
C2633 H2617 0.930 . S
C2633 C2632 1.377 . S
C2633 C2634 1.379 . S
C2634 H2618 0.931 . S
C2634 C2628 1.383 . S
C2634 C2633 1.379 . S
H2635 C2629 0.959 . S
H2636 C2629 0.961 . S
H2637 C2629 0.960 . S
H2638 C2630 0.930 . S
H2639 C2631 0.929 . S
H2640 C2648 0.929 . S
H2641 C2650 0.930 . S
H2642 C2652 0.930 . S
H2643 C2655 0.929 . S
H2644 C2658 0.930 . S
H2645 C2660 0.960 . S
H2646 C2660 0.960 . S
H2647 C2660 0.960 . S
C2648 H2640 0.929 . S
C2648 C2649 1.377 . S
C2648 C2650 1.384 . S
C2649 C2648 1.377 . S
C2649 C2655 1.390 . S
C2650 H2641 0.930 . S
C2650 C2648 1.384 . S
C2650 C2651 1.372 . S
C2651 C2650 1.372 . S
C2651 C2652 1.400 . S
C2651 C2656 1.490 . S
C2652 H2642 0.930 . S
C2652 C2651 1.400 . S
C2652 C2655 1.386 . S
H2653 C2669 0.930 . S
H2654 C2670 0.931 . S
C2655 H2643 0.929 . S
C2655 C2649 1.390 . S
C2655 C2652 1.386 . S
C2656 C2651 1.490 . S
C2656 C2658 1.395 . S
C2656 C2659 1.403 . S
H2657 C2663 0.930 . S
C2658 H2644 0.930 . S
C2658 C2656 1.395 . S
C2658 C2661 1.403 . S
C2659 C2656 1.403 . S
C2659 C2660 1.524 . S
C2659 C2663 1.400 . S
C2660 H2645 0.960 . S
C2660 H2646 0.960 . S
C2660 H2647 0.960 . S
C2660 C2659 1.524 . S
C2661 C2658 1.403 . S
C2661 C2662 1.392 . S
C2661 C2665 1.495 . S
C2662 C2661 1.392 . S
C2662 C2663 1.385 . S
C2662 C2664 1.478 . S
C2663 H2657 0.930 . S
C2663 C2659 1.400 . S
C2663 C2662 1.385 . S
C2664 C2662 1.478 . S
C2664 C2666 1.381 . S
C2664 C2670 1.383 . S
C2665 C2661 1.495 . S
C2665 H2671 0.959 . S
C2665 H2672 0.961 . S
C2665 H2673 0.960 . S
C2666 C2664 1.381 . S
C2666 C2667 1.394 . S
C2666 H2674 0.930 . S
C2667 C2666 1.394 . S
C2667 C2668 1.383 . S
C2667 H2675 0.929 . S
C2668 C2667 1.383 . S
C2668 C2669 1.377 . S
C2669 H2653 0.930 . S
C2669 C2668 1.377 . S
C2669 C2670 1.379 . S
C2670 H2654 0.931 . S
C2670 C2664 1.383 . S
C2670 C2669 1.379 . S
H2671 C2665 0.959 . S
H2672 C2665 0.961 . S
H2673 C2665 0.960 . S
H2674 C2666 0.930 . S
H2675 C2667 0.929 . S
H2676 C2684 0.929 . S
H2677 C2686 0.930 . S
H2678 C2688 0.930 . S
H2679 C2691 0.929 . S
H2680 C2694 0.930 . S
H2681 C2696 0.960 . S
H2682 C2696 0.960 . S
H2683 C2696 0.960 . S
C2684 H2676 0.929 . S
C2684 C2685 1.377 . S
C2684 C2686 1.384 . S
C2685 C2684 1.377 . S
C2685 C2691 1.390 . S
C2686 H2677 0.930 . S
C2686 C2684 1.384 . S
C2686 C2687 1.372 . S
C2687 C2686 1.372 . S
C2687 C2688 1.400 . S
C2687 C2692 1.490 . S
C2688 H2678 0.930 . S
C2688 C2687 1.400 . S
C2688 C2691 1.386 . S
H2689 C2705 0.930 . S
H2690 C2706 0.931 . S
C2691 H2679 0.929 . S
C2691 C2685 1.390 . S
C2691 C2688 1.386 . S
C2692 C2687 1.490 . S
C2692 C2694 1.395 . S
C2692 C2695 1.403 . S
H2693 C2699 0.930 . S
C2694 H2680 0.930 . S
C2694 C2692 1.395 . S
C2694 C2697 1.403 . S
C2695 C2692 1.403 . S
C2695 C2696 1.524 . S
C2695 C2699 1.400 . S
C2696 H2681 0.960 . S
C2696 H2682 0.960 . S
C2696 H2683 0.960 . S
C2696 C2695 1.524 . S
C2697 C2694 1.403 . S
C2697 C2698 1.392 . S
C2697 C2701 1.495 . S
C2698 C2697 1.392 . S
C2698 C2699 1.385 . S
C2698 C2700 1.478 . S
C2699 H2693 0.930 . S
C2699 C2695 1.400 . S
C2699 C2698 1.385 . S
C2700 C2698 1.478 . S
C2700 C2702 1.381 . S
C2700 C2706 1.383 . S
C2701 C2697 1.495 . S
C2701 H2707 0.959 . S
C2701 H2708 0.961 . S
C2701 H2709 0.960 . S
C2702 C2700 1.381 . S
C2702 C2703 1.394 . S
C2702 H2710 0.930 . S
C2703 C2702 1.394 . S
C2703 C2704 1.383 . S
C2703 H2711 0.929 . S
C2704 C2703 1.383 . S
C2704 C2705 1.377 . S
C2705 H2689 0.930 . S
C2705 C2704 1.377 . S
C2705 C2706 1.379 . S
C2706 H2690 0.931 . S
C2706 C2700 1.383 . S
C2706 C2705 1.379 . S
H2707 C2701 0.959 . S
H2708 C2701 0.961 . S
H2709 C2701 0.960 . S
H2710 C2702 0.930 . S
H2711 C2703 0.929 . S
H2712 C2720 0.929 . S
H2713 C2722 0.930 . S
H2714 C2724 0.930 . S
H2715 C2727 0.929 . S
H2716 C2730 0.930 . S
H2717 C2732 0.960 . S
H2718 C2732 0.960 . S
H2719 C2732 0.960 . S
C2720 H2712 0.929 . S
C2720 C2721 1.377 . S
C2720 C2722 1.384 . S
C2721 C2720 1.377 . S
C2721 C2727 1.390 . S
C2722 H2713 0.930 . S
C2722 C2720 1.384 . S
C2722 C2723 1.372 . S
C2723 C2722 1.372 . S
C2723 C2724 1.400 . S
C2723 C2728 1.490 . S
C2724 H2714 0.930 . S
C2724 C2723 1.400 . S
C2724 C2727 1.386 . S
H2725 C2741 0.930 . S
H2726 C2742 0.931 . S
C2727 H2715 0.929 . S
C2727 C2721 1.390 . S
C2727 C2724 1.386 . S
C2728 C2723 1.490 . S
C2728 C2730 1.395 . S
C2728 C2731 1.403 . S
H2729 C2735 0.930 . S
C2730 H2716 0.930 . S
C2730 C2728 1.395 . S
C2730 C2733 1.403 . S
C2731 C2728 1.403 . S
C2731 C2732 1.524 . S
C2731 C2735 1.400 . S
C2732 H2717 0.960 . S
C2732 H2718 0.960 . S
C2732 H2719 0.960 . S
C2732 C2731 1.524 . S
C2733 C2730 1.403 . S
C2733 C2734 1.392 . S
C2733 C2737 1.495 . S
C2734 C2733 1.392 . S
C2734 C2735 1.385 . S
C2734 C2736 1.478 . S
C2735 H2729 0.930 . S
C2735 C2731 1.400 . S
C2735 C2734 1.385 . S
C2736 C2734 1.478 . S
C2736 C2738 1.381 . S
C2736 C2742 1.383 . S
C2737 C2733 1.495 . S
C2737 H2743 0.959 . S
C2737 H2744 0.961 . S
C2737 H2745 0.960 . S
C2738 C2736 1.381 . S
C2738 C2739 1.394 . S
C2738 H2746 0.930 . S
C2739 C2738 1.394 . S
C2739 C2740 1.383 . S
C2739 H2747 0.929 . S
C2740 C2739 1.383 . S
C2740 C2741 1.377 . S
C2741 H2725 0.930 . S
C2741 C2740 1.377 . S
C2741 C2742 1.379 . S
C2742 H2726 0.931 . S
C2742 C2736 1.383 . S
C2742 C2741 1.379 . S
H2743 C2737 0.959 . S
H2744 C2737 0.961 . S
H2745 C2737 0.960 . S
H2746 C2738 0.930 . S
H2747 C2739 0.929 . S
H2748 C2756 0.929 . S
H2749 C2758 0.930 . S
H2750 C2760 0.930 . S
H2751 C2763 0.929 . S
H2752 C2766 0.930 . S
H2753 C2768 0.960 . S
H2754 C2768 0.960 . S
H2755 C2768 0.960 . S
C2756 H2748 0.929 . S
C2756 C2757 1.377 . S
C2756 C2758 1.384 . S
C2757 C2756 1.377 . S
C2757 C2763 1.390 . S
C2758 H2749 0.930 . S
C2758 C2756 1.384 . S
C2758 C2759 1.372 . S
C2759 C2758 1.372 . S
C2759 C2760 1.400 . S
C2759 C2764 1.490 . S
C2760 H2750 0.930 . S
C2760 C2759 1.400 . S
C2760 C2763 1.386 . S
H2761 C2777 0.930 . S
H2762 C2778 0.931 . S
C2763 H2751 0.929 . S
C2763 C2757 1.390 . S
C2763 C2760 1.386 . S
C2764 C2759 1.490 . S
C2764 C2766 1.395 . S
C2764 C2767 1.403 . S
H2765 C2771 0.930 . S
C2766 H2752 0.930 . S
C2766 C2764 1.395 . S
C2766 C2769 1.403 . S
C2767 C2764 1.403 . S
C2767 C2768 1.524 . S
C2767 C2771 1.400 . S
C2768 H2753 0.960 . S
C2768 H2754 0.960 . S
C2768 H2755 0.960 . S
C2768 C2767 1.524 . S
C2769 C2766 1.403 . S
C2769 C2770 1.392 . S
C2769 C2773 1.495 . S
C2770 C2769 1.392 . S
C2770 C2771 1.385 . S
C2770 C2772 1.478 . S
C2771 H2765 0.930 . S
C2771 C2767 1.400 . S
C2771 C2770 1.385 . S
C2772 C2770 1.478 . S
C2772 C2774 1.381 . S
C2772 C2778 1.383 . S
C2773 C2769 1.495 . S
C2773 H2779 0.959 . S
C2773 H2780 0.961 . S
C2773 H2781 0.960 . S
C2774 C2772 1.381 . S
C2774 C2775 1.394 . S
C2774 H2782 0.930 . S
C2775 C2774 1.394 . S
C2775 C2776 1.383 . S
C2775 H2783 0.929 . S
C2776 C2775 1.383 . S
C2776 C2777 1.377 . S
C2777 H2761 0.930 . S
C2777 C2776 1.377 . S
C2777 C2778 1.379 . S
C2778 H2762 0.931 . S
C2778 C2772 1.383 . S
C2778 C2777 1.379 . S
H2779 C2773 0.959 . S
H2780 C2773 0.961 . S
H2781 C2773 0.960 . S
H2782 C2774 0.930 . S
H2783 C2775 0.929 . S
H2784 C2792 0.929 . S
H2785 C2794 0.930 . S
H2786 C2796 0.930 . S
H2787 C2799 0.929 . S
H2788 C2802 0.930 . S
H2789 C2804 0.960 . S
H2790 C2804 0.960 . S
H2791 C2804 0.960 . S
C2792 H2784 0.929 . S
C2792 C2793 1.377 . S
C2792 C2794 1.384 . S
C2793 C2792 1.377 . S
C2793 C2799 1.390 . S
C2794 H2785 0.930 . S
C2794 C2792 1.384 . S
C2794 C2795 1.372 . S
C2795 C2794 1.372 . S
C2795 C2796 1.400 . S
C2795 C2800 1.490 . S
C2796 H2786 0.930 . S
C2796 C2795 1.400 . S
C2796 C2799 1.386 . S
H2797 C2813 0.930 . S
H2798 C2814 0.931 . S
C2799 H2787 0.929 . S
C2799 C2793 1.390 . S
C2799 C2796 1.386 . S
C2800 C2795 1.490 . S
C2800 C2802 1.395 . S
C2800 C2803 1.403 . S
H2801 C2807 0.930 . S
C2802 H2788 0.930 . S
C2802 C2800 1.395 . S
C2802 C2805 1.403 . S
C2803 C2800 1.403 . S
C2803 C2804 1.524 . S
C2803 C2807 1.400 . S
C2804 H2789 0.960 . S
C2804 H2790 0.960 . S
C2804 H2791 0.960 . S
C2804 C2803 1.524 . S
C2805 C2802 1.403 . S
C2805 C2806 1.392 . S
C2805 C2809 1.495 . S
C2806 C2805 1.392 . S
C2806 C2807 1.385 . S
C2806 C2808 1.478 . S
C2807 H2801 0.930 . S
C2807 C2803 1.400 . S
C2807 C2806 1.385 . S
C2808 C2806 1.478 . S
C2808 C2810 1.381 . S
C2808 C2814 1.383 . S
C2809 C2805 1.495 . S
C2809 H2815 0.959 . S
C2809 H2816 0.961 . S
C2809 H2817 0.960 . S
C2810 C2808 1.381 . S
C2810 C2811 1.394 . S
C2810 H2818 0.930 . S
C2811 C2810 1.394 . S
C2811 C2812 1.383 . S
C2811 H2819 0.929 . S
C2812 C2811 1.383 . S
C2812 C2813 1.377 . S
C2813 H2797 0.930 . S
C2813 C2812 1.377 . S
C2813 C2814 1.379 . S
C2814 H2798 0.931 . S
C2814 C2808 1.383 . S
C2814 C2813 1.379 . S
H2815 C2809 0.959 . S
H2816 C2809 0.961 . S
H2817 C2809 0.960 . S
H2818 C2810 0.930 . S
H2819 C2811 0.929 . S
H2820 C2828 0.929 . S
H2821 C2830 0.930 . S
H2822 C2832 0.930 . S
H2823 C2835 0.929 . S
H2824 C2838 0.930 . S
H2825 C2840 0.960 . S
H2826 C2840 0.960 . S
H2827 C2840 0.960 . S
C2828 H2820 0.929 . S
C2828 C2829 1.377 . S
C2828 C2830 1.384 . S
C2829 C2828 1.377 . S
C2829 C2835 1.390 . S
C2830 H2821 0.930 . S
C2830 C2828 1.384 . S
C2830 C2831 1.372 . S
C2831 C2830 1.372 . S
C2831 C2832 1.400 . S
C2831 C2836 1.490 . S
C2832 H2822 0.930 . S
C2832 C2831 1.400 . S
C2832 C2835 1.386 . S
H2833 C2849 0.930 . S
H2834 C2850 0.931 . S
C2835 H2823 0.929 . S
C2835 C2829 1.390 . S
C2835 C2832 1.386 . S
C2836 C2831 1.490 . S
C2836 C2838 1.395 . S
C2836 C2839 1.403 . S
H2837 C2843 0.930 . S
C2838 H2824 0.930 . S
C2838 C2836 1.395 . S
C2838 C2841 1.403 . S
C2839 C2836 1.403 . S
C2839 C2840 1.524 . S
C2839 C2843 1.400 . S
C2840 H2825 0.960 . S
C2840 H2826 0.960 . S
C2840 H2827 0.960 . S
C2840 C2839 1.524 . S
C2841 C2838 1.403 . S
C2841 C2842 1.392 . S
C2841 C2845 1.495 . S
C2842 C2841 1.392 . S
C2842 C2843 1.385 . S
C2842 C2844 1.478 . S
C2843 H2837 0.930 . S
C2843 C2839 1.400 . S
C2843 C2842 1.385 . S
C2844 C2842 1.478 . S
C2844 C2846 1.381 . S
C2844 C2850 1.383 . S
C2845 C2841 1.495 . S
C2845 H2851 0.959 . S
C2845 H2852 0.961 . S
C2845 H2853 0.960 . S
C2846 C2844 1.381 . S
C2846 C2847 1.394 . S
C2846 H2854 0.930 . S
C2847 C2846 1.394 . S
C2847 C2848 1.383 . S
C2847 H2855 0.929 . S
C2848 C2847 1.383 . S
C2848 C2849 1.377 . S
C2849 H2833 0.930 . S
C2849 C2848 1.377 . S
C2849 C2850 1.379 . S
C2850 H2834 0.931 . S
C2850 C2844 1.383 . S
C2850 C2849 1.379 . S
H2851 C2845 0.959 . S
H2852 C2845 0.961 . S
H2853 C2845 0.960 . S
H2854 C2846 0.930 . S
H2855 C2847 0.929 . S
H2856 C2864 0.929 . S
H2857 C2866 0.930 . S
H2858 C2868 0.930 . S
H2859 C2871 0.929 . S
H2860 C2874 0.930 . S
H2861 C2876 0.960 . S
H2862 C2876 0.960 . S
H2863 C2876 0.960 . S
C2864 H2856 0.929 . S
C2864 C2865 1.377 . S
C2864 C2866 1.384 . S
C2865 C2864 1.377 . S
C2865 C2871 1.390 . S
C2866 H2857 0.930 . S
C2866 C2864 1.384 . S
C2866 C2867 1.372 . S
C2867 C2866 1.372 . S
C2867 C2868 1.400 . S
C2867 C2872 1.490 . S
C2868 H2858 0.930 . S
C2868 C2867 1.400 . S
C2868 C2871 1.386 . S
H2869 C2885 0.930 . S
H2870 C2886 0.931 . S
C2871 H2859 0.929 . S
C2871 C2865 1.390 . S
C2871 C2868 1.386 . S
C2872 C2867 1.490 . S
C2872 C2874 1.395 . S
C2872 C2875 1.403 . S
H2873 C2879 0.930 . S
C2874 H2860 0.930 . S
C2874 C2872 1.395 . S
C2874 C2877 1.403 . S
C2875 C2872 1.403 . S
C2875 C2876 1.524 . S
C2875 C2879 1.400 . S
C2876 H2861 0.960 . S
C2876 H2862 0.960 . S
C2876 H2863 0.960 . S
C2876 C2875 1.524 . S
C2877 C2874 1.403 . S
C2877 C2878 1.392 . S
C2877 C2881 1.495 . S
C2878 C2877 1.392 . S
C2878 C2879 1.385 . S
C2878 C2880 1.478 . S
C2879 H2873 0.930 . S
C2879 C2875 1.400 . S
C2879 C2878 1.385 . S
C2880 C2878 1.478 . S
C2880 C2882 1.381 . S
C2880 C2886 1.383 . S
C2881 C2877 1.495 . S
C2881 H2887 0.959 . S
C2881 H2888 0.961 . S
C2881 H2889 0.960 . S
C2882 C2880 1.381 . S
C2882 C2883 1.394 . S
C2882 H2890 0.930 . S
C2883 C2882 1.394 . S
C2883 C2884 1.383 . S
C2883 H2891 0.929 . S
C2884 C2883 1.383 . S
C2884 C2885 1.377 . S
C2885 H2869 0.930 . S
C2885 C2884 1.377 . S
C2885 C2886 1.379 . S
C2886 H2870 0.931 . S
C2886 C2880 1.383 . S
C2886 C2885 1.379 . S
H2887 C2881 0.959 . S
H2888 C2881 0.961 . S
H2889 C2881 0.960 . S
H2890 C2882 0.930 . S
H2891 C2883 0.929 . S
H2892 C2900 0.929 . S
H2893 C2902 0.930 . S
H2894 C2904 0.930 . S
H2895 C2907 0.929 . S
H2896 C2910 0.930 . S
H2897 C2912 0.960 . S
H2898 C2912 0.960 . S
H2899 C2912 0.960 . S
C2900 H2892 0.929 . S
C2900 C2901 1.377 . S
C2900 C2902 1.384 . S
C2901 C2900 1.377 . S
C2901 C2907 1.390 . S
C2902 H2893 0.930 . S
C2902 C2900 1.384 . S
C2902 C2903 1.372 . S
C2903 C2902 1.372 . S
C2903 C2904 1.400 . S
C2903 C2908 1.490 . S
C2904 H2894 0.930 . S
C2904 C2903 1.400 . S
C2904 C2907 1.386 . S
H2905 C2921 0.930 . S
H2906 C2922 0.931 . S
C2907 H2895 0.929 . S
C2907 C2901 1.390 . S
C2907 C2904 1.386 . S
C2908 C2903 1.490 . S
C2908 C2910 1.395 . S
C2908 C2911 1.403 . S
H2909 C2915 0.930 . S
C2910 H2896 0.930 . S
C2910 C2908 1.395 . S
C2910 C2913 1.403 . S
C2911 C2908 1.403 . S
C2911 C2912 1.524 . S
C2911 C2915 1.400 . S
C2912 H2897 0.960 . S
C2912 H2898 0.960 . S
C2912 H2899 0.960 . S
C2912 C2911 1.524 . S
C2913 C2910 1.403 . S
C2913 C2914 1.392 . S
C2913 C2917 1.495 . S
C2914 C2913 1.392 . S
C2914 C2915 1.385 . S
C2914 C2916 1.478 . S
C2915 H2909 0.930 . S
C2915 C2911 1.400 . S
C2915 C2914 1.385 . S
C2916 C2914 1.478 . S
C2916 C2918 1.381 . S
C2916 C2922 1.383 . S
C2917 C2913 1.495 . S
C2917 H2923 0.959 . S
C2917 H2924 0.961 . S
C2917 H2925 0.960 . S
C2918 C2916 1.381 . S
C2918 C2919 1.394 . S
C2918 H2926 0.930 . S
C2919 C2918 1.394 . S
C2919 C2920 1.383 . S
C2919 H2927 0.929 . S
C2920 C2919 1.383 . S
C2920 C2921 1.377 . S
C2921 H2905 0.930 . S
C2921 C2920 1.377 . S
C2921 C2922 1.379 . S
C2922 H2906 0.931 . S
C2922 C2916 1.383 . S
C2922 C2921 1.379 . S
H2923 C2917 0.959 . S
H2924 C2917 0.961 . S
H2925 C2917 0.960 . S
H2926 C2918 0.930 . S
H2927 C2919 0.929 . S
H2928 C2936 0.929 . S
H2929 C2938 0.930 . S
H2930 C2940 0.930 . S
H2931 C2943 0.929 . S
H2932 C2946 0.930 . S
H2933 C2948 0.960 . S
H2934 C2948 0.960 . S
H2935 C2948 0.960 . S
C2936 H2928 0.929 . S
C2936 C2937 1.377 . S
C2936 C2938 1.384 . S
C2937 C2936 1.377 . S
C2937 C2943 1.390 . S
C2938 H2929 0.930 . S
C2938 C2936 1.384 . S
C2938 C2939 1.372 . S
C2939 C2938 1.372 . S
C2939 C2940 1.400 . S
C2939 C2944 1.490 . S
C2940 H2930 0.930 . S
C2940 C2939 1.400 . S
C2940 C2943 1.386 . S
H2941 C2957 0.930 . S
H2942 C2958 0.931 . S
C2943 H2931 0.929 . S
C2943 C2937 1.390 . S
C2943 C2940 1.386 . S
C2944 C2939 1.490 . S
C2944 C2946 1.395 . S
C2944 C2947 1.403 . S
H2945 C2951 0.930 . S
C2946 H2932 0.930 . S
C2946 C2944 1.395 . S
C2946 C2949 1.403 . S
C2947 C2944 1.403 . S
C2947 C2948 1.524 . S
C2947 C2951 1.400 . S
C2948 H2933 0.960 . S
C2948 H2934 0.960 . S
C2948 H2935 0.960 . S
C2948 C2947 1.524 . S
C2949 C2946 1.403 . S
C2949 C2950 1.392 . S
C2949 C2953 1.495 . S
C2950 C2949 1.392 . S
C2950 C2951 1.385 . S
C2950 C2952 1.478 . S
C2951 H2945 0.930 . S
C2951 C2947 1.400 . S
C2951 C2950 1.385 . S
C2952 C2950 1.478 . S
C2952 C2954 1.381 . S
C2952 C2958 1.383 . S
C2953 C2949 1.495 . S
C2953 H2959 0.959 . S
C2953 H2960 0.961 . S
C2953 H2961 0.960 . S
C2954 C2952 1.381 . S
C2954 C2955 1.394 . S
C2954 H2962 0.930 . S
C2955 C2954 1.394 . S
C2955 C2956 1.383 . S
C2955 H2963 0.929 . S
C2956 C2955 1.383 . S
C2956 C2957 1.377 . S
C2957 H2941 0.930 . S
C2957 C2956 1.377 . S
C2957 C2958 1.379 . S
C2958 H2942 0.931 . S
C2958 C2952 1.383 . S
C2958 C2957 1.379 . S
H2959 C2953 0.959 . S
H2960 C2953 0.961 . S
H2961 C2953 0.960 . S
H2962 C2954 0.930 . S
H2963 C2955 0.929 . S
H2964 C2972 0.929 . S
H2965 C2974 0.930 . S
H2966 C2976 0.930 . S
H2967 C2979 0.929 . S
H2968 C2982 0.930 . S
H2969 C2984 0.960 . S
H2970 C2984 0.960 . S
H2971 C2984 0.960 . S
C2972 H2964 0.929 . S
C2972 C2973 1.377 . S
C2972 C2974 1.384 . S
C2973 C2972 1.377 . S
C2973 C2979 1.390 . S
C2974 H2965 0.930 . S
C2974 C2972 1.384 . S
C2974 C2975 1.372 . S
C2975 C2974 1.372 . S
C2975 C2976 1.400 . S
C2975 C2980 1.490 . S
C2976 H2966 0.930 . S
C2976 C2975 1.400 . S
C2976 C2979 1.386 . S
H2977 C2993 0.930 . S
H2978 C2994 0.931 . S
C2979 H2967 0.929 . S
C2979 C2973 1.390 . S
C2979 C2976 1.386 . S
C2980 C2975 1.490 . S
C2980 C2982 1.395 . S
C2980 C2983 1.403 . S
H2981 C2987 0.930 . S
C2982 H2968 0.930 . S
C2982 C2980 1.395 . S
C2982 C2985 1.403 . S
C2983 C2980 1.403 . S
C2983 C2984 1.524 . S
C2983 C2987 1.400 . S
C2984 H2969 0.960 . S
C2984 H2970 0.960 . S
C2984 H2971 0.960 . S
C2984 C2983 1.524 . S
C2985 C2982 1.403 . S
C2985 C2986 1.392 . S
C2985 C2989 1.495 . S
C2986 C2985 1.392 . S
C2986 C2987 1.385 . S
C2986 C2988 1.478 . S
C2987 H2981 0.930 . S
C2987 C2983 1.400 . S
C2987 C2986 1.385 . S
C2988 C2986 1.478 . S
C2988 C2990 1.381 . S
C2988 C2994 1.383 . S
C2989 C2985 1.495 . S
C2989 H2995 0.959 . S
C2989 H2996 0.961 . S
C2989 H2997 0.960 . S
C2990 C2988 1.381 . S
C2990 C2991 1.394 . S
C2990 H2998 0.930 . S
C2991 C2990 1.394 . S
C2991 C2992 1.383 . S
C2991 H2999 0.929 . S
C2992 C2991 1.383 . S
C2992 C2993 1.377 . S
C2993 H2977 0.930 . S
C2993 C2992 1.377 . S
C2993 C2994 1.379 . S
C2994 H2978 0.931 . S
C2994 C2988 1.383 . S
C2994 C2993 1.379 . S
H2995 C2989 0.959 . S
H2996 C2989 0.961 . S
H2997 C2989 0.960 . S
H2998 C2990 0.930 . S
H2999 C2991 0.929 . S
H3000 C3008 0.929 . S
H3001 C3010 0.930 . S
H3002 C3012 0.930 . S
H3003 C3015 0.929 . S
H3004 C3018 0.930 . S
H3005 C3020 0.960 . S
H3006 C3020 0.960 . S
H3007 C3020 0.960 . S
C3008 H3000 0.929 . S
C3008 C3009 1.377 . S
C3008 C3010 1.384 . S
C3009 C3008 1.377 . S
C3009 C3015 1.390 . S
C3010 H3001 0.930 . S
C3010 C3008 1.384 . S
C3010 C3011 1.372 . S
C3011 C3010 1.372 . S
C3011 C3012 1.400 . S
C3011 C3016 1.490 . S
C3012 H3002 0.930 . S
C3012 C3011 1.400 . S
C3012 C3015 1.386 . S
H3013 C3029 0.930 . S
H3014 C3030 0.931 . S
C3015 H3003 0.929 . S
C3015 C3009 1.390 . S
C3015 C3012 1.386 . S
C3016 C3011 1.490 . S
C3016 C3018 1.395 . S
C3016 C3019 1.403 . S
H3017 C3023 0.930 . S
C3018 H3004 0.930 . S
C3018 C3016 1.395 . S
C3018 C3021 1.403 . S
C3019 C3016 1.403 . S
C3019 C3020 1.524 . S
C3019 C3023 1.400 . S
C3020 H3005 0.960 . S
C3020 H3006 0.960 . S
C3020 H3007 0.960 . S
C3020 C3019 1.524 . S
C3021 C3018 1.403 . S
C3021 C3022 1.392 . S
C3021 C3025 1.495 . S
C3022 C3021 1.392 . S
C3022 C3023 1.385 . S
C3022 C3024 1.478 . S
C3023 H3017 0.930 . S
C3023 C3019 1.400 . S
C3023 C3022 1.385 . S
C3024 C3022 1.478 . S
C3024 C3026 1.381 . S
C3024 C3030 1.383 . S
C3025 C3021 1.495 . S
C3025 H3031 0.959 . S
C3025 H3032 0.961 . S
C3025 H3033 0.960 . S
C3026 C3024 1.381 . S
C3026 C3027 1.394 . S
C3026 H3034 0.930 . S
C3027 C3026 1.394 . S
C3027 C3028 1.383 . S
C3027 H3035 0.929 . S
C3028 C3027 1.383 . S
C3028 C3029 1.377 . S
C3029 H3013 0.930 . S
C3029 C3028 1.377 . S
C3029 C3030 1.379 . S
C3030 H3014 0.931 . S
C3030 C3024 1.383 . S
C3030 C3029 1.379 . S
H3031 C3025 0.959 . S
H3032 C3025 0.961 . S
H3033 C3025 0.960 . S
H3034 C3026 0.930 . S
H3035 C3027 0.929 . S
H3036 C3044 0.929 . S
H3037 C3046 0.930 . S
H3038 C3048 0.930 . S
H3039 C3051 0.929 . S
H3040 C3054 0.930 . S
H3041 C3056 0.960 . S
H3042 C3056 0.960 . S
H3043 C3056 0.960 . S
C3044 H3036 0.929 . S
C3044 C3045 1.377 . S
C3044 C3046 1.384 . S
C3045 C3044 1.377 . S
C3045 C3051 1.390 . S
C3046 H3037 0.930 . S
C3046 C3044 1.384 . S
C3046 C3047 1.372 . S
C3047 C3046 1.372 . S
C3047 C3048 1.400 . S
C3047 C3052 1.490 . S
C3048 H3038 0.930 . S
C3048 C3047 1.400 . S
C3048 C3051 1.386 . S
H3049 C3065 0.930 . S
H3050 C3066 0.931 . S
C3051 H3039 0.929 . S
C3051 C3045 1.390 . S
C3051 C3048 1.386 . S
C3052 C3047 1.490 . S
C3052 C3054 1.395 . S
C3052 C3055 1.403 . S
H3053 C3059 0.930 . S
C3054 H3040 0.930 . S
C3054 C3052 1.395 . S
C3054 C3057 1.403 . S
C3055 C3052 1.403 . S
C3055 C3056 1.524 . S
C3055 C3059 1.400 . S
C3056 H3041 0.960 . S
C3056 H3042 0.960 . S
C3056 H3043 0.960 . S
C3056 C3055 1.524 . S
C3057 C3054 1.403 . S
C3057 C3058 1.392 . S
C3057 C3061 1.495 . S
C3058 C3057 1.392 . S
C3058 C3059 1.385 . S
C3058 C3060 1.478 . S
C3059 H3053 0.930 . S
C3059 C3055 1.400 . S
C3059 C3058 1.385 . S
C3060 C3058 1.478 . S
C3060 C3062 1.381 . S
C3060 C3066 1.383 . S
C3061 C3057 1.495 . S
C3061 H3067 0.959 . S
C3061 H3068 0.961 . S
C3061 H3069 0.960 . S
C3062 C3060 1.381 . S
C3062 C3063 1.394 . S
C3062 H3070 0.930 . S
C3063 C3062 1.394 . S
C3063 C3064 1.383 . S
C3063 H3071 0.929 . S
C3064 C3063 1.383 . S
C3064 C3065 1.377 . S
C3065 H3049 0.930 . S
C3065 C3064 1.377 . S
C3065 C3066 1.379 . S
C3066 H3050 0.931 . S
C3066 C3060 1.383 . S
C3066 C3065 1.379 . S
H3067 C3061 0.959 . S
H3068 C3061 0.961 . S
H3069 C3061 0.960 . S
H3070 C3062 0.930 . S
H3071 C3063 0.929 . S
H3072 C3080 0.929 . S
H3073 C3082 0.930 . S
H3074 C3084 0.930 . S
H3075 C3087 0.929 . S
H3076 C3090 0.930 . S
H3077 C3092 0.960 . S
H3078 C3092 0.960 . S
H3079 C3092 0.960 . S
C3080 H3072 0.929 . S
C3080 C3081 1.377 . S
C3080 C3082 1.384 . S
C3081 C3080 1.377 . S
C3081 C3087 1.390 . S
C3082 H3073 0.930 . S
C3082 C3080 1.384 . S
C3082 C3083 1.372 . S
C3083 C3082 1.372 . S
C3083 C3084 1.400 . S
C3083 C3088 1.490 . S
C3084 H3074 0.930 . S
C3084 C3083 1.400 . S
C3084 C3087 1.386 . S
H3085 C3101 0.930 . S
H3086 C3102 0.931 . S
C3087 H3075 0.929 . S
C3087 C3081 1.390 . S
C3087 C3084 1.386 . S
C3088 C3083 1.490 . S
C3088 C3090 1.395 . S
C3088 C3091 1.403 . S
H3089 C3095 0.930 . S
C3090 H3076 0.930 . S
C3090 C3088 1.395 . S
C3090 C3093 1.403 . S
C3091 C3088 1.403 . S
C3091 C3092 1.524 . S
C3091 C3095 1.400 . S
C3092 H3077 0.960 . S
C3092 H3078 0.960 . S
C3092 H3079 0.960 . S
C3092 C3091 1.524 . S
C3093 C3090 1.403 . S
C3093 C3094 1.392 . S
C3093 C3097 1.495 . S
C3094 C3093 1.392 . S
C3094 C3095 1.385 . S
C3094 C3096 1.478 . S
C3095 H3089 0.930 . S
C3095 C3091 1.400 . S
C3095 C3094 1.385 . S
C3096 C3094 1.478 . S
C3096 C3098 1.381 . S
C3096 C3102 1.383 . S
C3097 C3093 1.495 . S
C3097 H3103 0.959 . S
C3097 H3104 0.961 . S
C3097 H3105 0.960 . S
C3098 C3096 1.381 . S
C3098 C3099 1.394 . S
C3098 H3106 0.930 . S
C3099 C3098 1.394 . S
C3099 C3100 1.383 . S
C3099 H3107 0.929 . S
C3100 C3099 1.383 . S
C3100 C3101 1.377 . S
C3101 H3085 0.930 . S
C3101 C3100 1.377 . S
C3101 C3102 1.379 . S
C3102 H3086 0.931 . S
C3102 C3096 1.383 . S
C3102 C3101 1.379 . S
H3103 C3097 0.959 . S
H3104 C3097 0.961 . S
H3105 C3097 0.960 . S
H3106 C3098 0.930 . S
H3107 C3099 0.929 . S
H3108 C3116 0.929 . S
H3109 C3118 0.930 . S
H3110 C3120 0.930 . S
H3111 C3123 0.929 . S
H3112 C3126 0.930 . S
H3113 C3128 0.960 . S
H3114 C3128 0.960 . S
H3115 C3128 0.960 . S
C3116 H3108 0.929 . S
C3116 C3117 1.377 . S
C3116 C3118 1.384 . S
C3117 C3116 1.377 . S
C3117 C3123 1.390 . S
C3118 H3109 0.930 . S
C3118 C3116 1.384 . S
C3118 C3119 1.372 . S
C3119 C3118 1.372 . S
C3119 C3120 1.400 . S
C3119 C3124 1.490 . S
C3120 H3110 0.930 . S
C3120 C3119 1.400 . S
C3120 C3123 1.386 . S
H3121 C3137 0.930 . S
H3122 C3138 0.931 . S
C3123 H3111 0.929 . S
C3123 C3117 1.390 . S
C3123 C3120 1.386 . S
C3124 C3119 1.490 . S
C3124 C3126 1.395 . S
C3124 C3127 1.403 . S
H3125 C3131 0.930 . S
C3126 H3112 0.930 . S
C3126 C3124 1.395 . S
C3126 C3129 1.403 . S
C3127 C3124 1.403 . S
C3127 C3128 1.524 . S
C3127 C3131 1.400 . S
C3128 H3113 0.960 . S
C3128 H3114 0.960 . S
C3128 H3115 0.960 . S
C3128 C3127 1.524 . S
C3129 C3126 1.403 . S
C3129 C3130 1.392 . S
C3129 C3133 1.495 . S
C3130 C3129 1.392 . S
C3130 C3131 1.385 . S
C3130 C3132 1.478 . S
C3131 H3125 0.930 . S
C3131 C3127 1.400 . S
C3131 C3130 1.385 . S
C3132 C3130 1.478 . S
C3132 C3134 1.381 . S
C3132 C3138 1.383 . S
C3133 C3129 1.495 . S
C3133 H3139 0.959 . S
C3133 H3140 0.961 . S
C3133 H3141 0.960 . S
C3134 C3132 1.381 . S
C3134 C3135 1.394 . S
C3134 H3142 0.930 . S
C3135 C3134 1.394 . S
C3135 C3136 1.383 . S
C3135 H3143 0.929 . S
C3136 C3135 1.383 . S
C3136 C3137 1.377 . S
C3137 H3121 0.930 . S
C3137 C3136 1.377 . S
C3137 C3138 1.379 . S
C3138 H3122 0.931 . S
C3138 C3132 1.383 . S
C3138 C3137 1.379 . S
H3139 C3133 0.959 . S
H3140 C3133 0.961 . S
H3141 C3133 0.960 . S
H3142 C3134 0.930 . S
H3143 C3135 0.929 . S
H3144 C3152 0.929 . S
H3145 C3154 0.930 . S
H3146 C3156 0.930 . S
H3147 C3159 0.929 . S
H3148 C3162 0.930 . S
H3149 C3164 0.960 . S
H3150 C3164 0.960 . S
H3151 C3164 0.960 . S
C3152 H3144 0.929 . S
C3152 C3153 1.377 . S
C3152 C3154 1.384 . S
C3153 C3152 1.377 . S
C3153 C3159 1.390 . S
C3154 H3145 0.930 . S
C3154 C3152 1.384 . S
C3154 C3155 1.372 . S
C3155 C3154 1.372 . S
C3155 C3156 1.400 . S
C3155 C3160 1.490 . S
C3156 H3146 0.930 . S
C3156 C3155 1.400 . S
C3156 C3159 1.386 . S
H3157 C3173 0.930 . S
H3158 C3174 0.931 . S
C3159 H3147 0.929 . S
C3159 C3153 1.390 . S
C3159 C3156 1.386 . S
C3160 C3155 1.490 . S
C3160 C3162 1.395 . S
C3160 C3163 1.403 . S
H3161 C3167 0.930 . S
C3162 H3148 0.930 . S
C3162 C3160 1.395 . S
C3162 C3165 1.403 . S
C3163 C3160 1.403 . S
C3163 C3164 1.524 . S
C3163 C3167 1.400 . S
C3164 H3149 0.960 . S
C3164 H3150 0.960 . S
C3164 H3151 0.960 . S
C3164 C3163 1.524 . S
C3165 C3162 1.403 . S
C3165 C3166 1.392 . S
C3165 C3169 1.495 . S
C3166 C3165 1.392 . S
C3166 C3167 1.385 . S
C3166 C3168 1.478 . S
C3167 H3161 0.930 . S
C3167 C3163 1.400 . S
C3167 C3166 1.385 . S
C3168 C3166 1.478 . S
C3168 C3170 1.381 . S
C3168 C3174 1.383 . S
C3169 C3165 1.495 . S
C3169 H3175 0.959 . S
C3169 H3176 0.961 . S
C3169 H3177 0.960 . S
C3170 C3168 1.381 . S
C3170 C3171 1.394 . S
C3170 H3178 0.930 . S
C3171 C3170 1.394 . S
C3171 C3172 1.383 . S
C3171 H3179 0.929 . S
C3172 C3171 1.383 . S
C3172 C3173 1.377 . S
C3173 H3157 0.930 . S
C3173 C3172 1.377 . S
C3173 C3174 1.379 . S
C3174 H3158 0.931 . S
C3174 C3168 1.383 . S
C3174 C3173 1.379 . S
H3175 C3169 0.959 . S
H3176 C3169 0.961 . S
H3177 C3169 0.960 . S
H3178 C3170 0.930 . S
H3179 C3171 0.929 . S
H3180 C3188 0.929 . S
H3181 C3190 0.930 . S
H3182 C3192 0.930 . S
H3183 C3195 0.929 . S
H3184 C3198 0.930 . S
H3185 C3200 0.960 . S
H3186 C3200 0.960 . S
H3187 C3200 0.960 . S
C3188 H3180 0.929 . S
C3188 C3189 1.377 . S
C3188 C3190 1.384 . S
C3189 C3188 1.377 . S
C3189 C3195 1.390 . S
C3190 H3181 0.930 . S
C3190 C3188 1.384 . S
C3190 C3191 1.372 . S
C3191 C3190 1.372 . S
C3191 C3192 1.400 . S
C3191 C3196 1.490 . S
C3192 H3182 0.930 . S
C3192 C3191 1.400 . S
C3192 C3195 1.386 . S
H3193 C3209 0.930 . S
H3194 C3210 0.931 . S
C3195 H3183 0.929 . S
C3195 C3189 1.390 . S
C3195 C3192 1.386 . S
C3196 C3191 1.490 . S
C3196 C3198 1.395 . S
C3196 C3199 1.403 . S
H3197 C3203 0.930 . S
C3198 H3184 0.930 . S
C3198 C3196 1.395 . S
C3198 C3201 1.403 . S
C3199 C3196 1.403 . S
C3199 C3200 1.524 . S
C3199 C3203 1.400 . S
C3200 H3185 0.960 . S
C3200 H3186 0.960 . S
C3200 H3187 0.960 . S
C3200 C3199 1.524 . S
C3201 C3198 1.403 . S
C3201 C3202 1.392 . S
C3201 C3205 1.495 . S
C3202 C3201 1.392 . S
C3202 C3203 1.385 . S
C3202 C3204 1.478 . S
C3203 H3197 0.930 . S
C3203 C3199 1.400 . S
C3203 C3202 1.385 . S
C3204 C3202 1.478 . S
C3204 C3206 1.381 . S
C3204 C3210 1.383 . S
C3205 C3201 1.495 . S
C3205 H3211 0.959 . S
C3205 H3212 0.961 . S
C3205 H3213 0.960 . S
C3206 C3204 1.381 . S
C3206 C3207 1.394 . S
C3206 H3214 0.930 . S
C3207 C3206 1.394 . S
C3207 C3208 1.383 . S
C3207 H3215 0.929 . S
C3208 C3207 1.383 . S
C3208 C3209 1.377 . S
C3209 H3193 0.930 . S
C3209 C3208 1.377 . S
C3209 C3210 1.379 . S
C3210 H3194 0.931 . S
C3210 C3204 1.383 . S
C3210 C3209 1.379 . S
H3211 C3205 0.959 . S
H3212 C3205 0.961 . S
H3213 C3205 0.960 . S
H3214 C3206 0.930 . S
H3215 C3207 0.929 . S
H3216 C3224 0.929 . S
H3217 C3226 0.930 . S
H3218 C3228 0.930 . S
H3219 C3231 0.929 . S
H3220 C3234 0.930 . S
H3221 C3236 0.960 . S
H3222 C3236 0.960 . S
H3223 C3236 0.960 . S
C3224 H3216 0.929 . S
C3224 C3225 1.377 . S
C3224 C3226 1.384 . S
C3225 C3224 1.377 . S
C3225 C3231 1.390 . S
C3226 H3217 0.930 . S
C3226 C3224 1.384 . S
C3226 C3227 1.372 . S
C3227 C3226 1.372 . S
C3227 C3228 1.400 . S
C3227 C3232 1.490 . S
C3228 H3218 0.930 . S
C3228 C3227 1.400 . S
C3228 C3231 1.386 . S
H3229 C3245 0.930 . S
H3230 C3246 0.931 . S
C3231 H3219 0.929 . S
C3231 C3225 1.390 . S
C3231 C3228 1.386 . S
C3232 C3227 1.490 . S
C3232 C3234 1.395 . S
C3232 C3235 1.403 . S
H3233 C3239 0.930 . S
C3234 H3220 0.930 . S
C3234 C3232 1.395 . S
C3234 C3237 1.403 . S
C3235 C3232 1.403 . S
C3235 C3236 1.524 . S
C3235 C3239 1.400 . S
C3236 H3221 0.960 . S
C3236 H3222 0.960 . S
C3236 H3223 0.960 . S
C3236 C3235 1.524 . S
C3237 C3234 1.403 . S
C3237 C3238 1.392 . S
C3237 C3241 1.495 . S
C3238 C3237 1.392 . S
C3238 C3239 1.385 . S
C3238 C3240 1.478 . S
C3239 H3233 0.930 . S
C3239 C3235 1.400 . S
C3239 C3238 1.385 . S
C3240 C3238 1.478 . S
C3240 C3242 1.381 . S
C3240 C3246 1.383 . S
C3241 C3237 1.495 . S
C3241 H3247 0.959 . S
C3241 H3248 0.961 . S
C3241 H3249 0.960 . S
C3242 C3240 1.381 . S
C3242 C3243 1.394 . S
C3242 H3250 0.930 . S
C3243 C3242 1.394 . S
C3243 C3244 1.383 . S
C3243 H3251 0.929 . S
C3244 C3243 1.383 . S
C3244 C3245 1.377 . S
C3245 H3229 0.930 . S
C3245 C3244 1.377 . S
C3245 C3246 1.379 . S
C3246 H3230 0.931 . S
C3246 C3240 1.383 . S
C3246 C3245 1.379 . S
H3247 C3241 0.959 . S
H3248 C3241 0.961 . S
H3249 C3241 0.960 . S
H3250 C3242 0.930 . S
H3251 C3243 0.929 . S
H3252 C3260 0.929 . S
H3253 C3262 0.930 . S
H3254 C3264 0.930 . S
H3255 C3267 0.929 . S
H3256 C3270 0.930 . S
H3257 C3272 0.960 . S
H3258 C3272 0.960 . S
H3259 C3272 0.960 . S
C3260 H3252 0.929 . S
C3260 C3261 1.377 . S
C3260 C3262 1.384 . S
C3261 C3260 1.377 . S
C3261 C3267 1.390 . S
C3262 H3253 0.930 . S
C3262 C3260 1.384 . S
C3262 C3263 1.372 . S
C3263 C3262 1.372 . S
C3263 C3264 1.400 . S
C3263 C3268 1.490 . S
C3264 H3254 0.930 . S
C3264 C3263 1.400 . S
C3264 C3267 1.386 . S
H3265 C3281 0.930 . S
H3266 C3282 0.931 . S
C3267 H3255 0.929 . S
C3267 C3261 1.390 . S
C3267 C3264 1.386 . S
C3268 C3263 1.490 . S
C3268 C3270 1.395 . S
C3268 C3271 1.403 . S
H3269 C3275 0.930 . S
C3270 H3256 0.930 . S
C3270 C3268 1.395 . S
C3270 C3273 1.403 . S
C3271 C3268 1.403 . S
C3271 C3272 1.524 . S
C3271 C3275 1.400 . S
C3272 H3257 0.960 . S
C3272 H3258 0.960 . S
C3272 H3259 0.960 . S
C3272 C3271 1.524 . S
C3273 C3270 1.403 . S
C3273 C3274 1.392 . S
C3273 C3277 1.495 . S
C3274 C3273 1.392 . S
C3274 C3275 1.385 . S
C3274 C3276 1.478 . S
C3275 H3269 0.930 . S
C3275 C3271 1.400 . S
C3275 C3274 1.385 . S
C3276 C3274 1.478 . S
C3276 C3278 1.381 . S
C3276 C3282 1.383 . S
C3277 C3273 1.495 . S
C3277 H3283 0.959 . S
C3277 H3284 0.961 . S
C3277 H3285 0.960 . S
C3278 C3276 1.381 . S
C3278 C3279 1.394 . S
C3278 H3286 0.930 . S
C3279 C3278 1.394 . S
C3279 C3280 1.383 . S
C3279 H3287 0.929 . S
C3280 C3279 1.383 . S
C3280 C3281 1.377 . S
C3281 H3265 0.930 . S
C3281 C3280 1.377 . S
C3281 C3282 1.379 . S
C3282 H3266 0.931 . S
C3282 C3276 1.383 . S
C3282 C3281 1.379 . S
H3283 C3277 0.959 . S
H3284 C3277 0.961 . S
H3285 C3277 0.960 . S
H3286 C3278 0.930 . S
H3287 C3279 0.929 . S
H3288 C3296 0.929 . S
H3289 C3298 0.930 . S
H3290 C3300 0.930 . S
H3291 C3303 0.929 . S
H3292 C3306 0.930 . S
H3293 C3308 0.960 . S
H3294 C3308 0.960 . S
H3295 C3308 0.960 . S
C3296 H3288 0.929 . S
C3296 C3297 1.377 . S
C3296 C3298 1.384 . S
C3297 C3296 1.377 . S
C3297 C3303 1.390 . S
C3298 H3289 0.930 . S
C3298 C3296 1.384 . S
C3298 C3299 1.372 . S
C3299 C3298 1.372 . S
C3299 C3300 1.400 . S
C3299 C3304 1.490 . S
C3300 H3290 0.930 . S
C3300 C3299 1.400 . S
C3300 C3303 1.386 . S
H3301 C3317 0.930 . S
H3302 C3318 0.931 . S
C3303 H3291 0.929 . S
C3303 C3297 1.390 . S
C3303 C3300 1.386 . S
C3304 C3299 1.490 . S
C3304 C3306 1.395 . S
C3304 C3307 1.403 . S
H3305 C3311 0.930 . S
C3306 H3292 0.930 . S
C3306 C3304 1.395 . S
C3306 C3309 1.403 . S
C3307 C3304 1.403 . S
C3307 C3308 1.524 . S
C3307 C3311 1.400 . S
C3308 H3293 0.960 . S
C3308 H3294 0.960 . S
C3308 H3295 0.960 . S
C3308 C3307 1.524 . S
C3309 C3306 1.403 . S
C3309 C3310 1.392 . S
C3309 C3313 1.495 . S
C3310 C3309 1.392 . S
C3310 C3311 1.385 . S
C3310 C3312 1.478 . S
C3311 H3305 0.930 . S
C3311 C3307 1.400 . S
C3311 C3310 1.385 . S
C3312 C3310 1.478 . S
C3312 C3314 1.381 . S
C3312 C3318 1.383 . S
C3313 C3309 1.495 . S
C3313 H3319 0.959 . S
C3313 H3320 0.961 . S
C3313 H3321 0.960 . S
C3314 C3312 1.381 . S
C3314 C3315 1.394 . S
C3314 H3322 0.930 . S
C3315 C3314 1.394 . S
C3315 C3316 1.383 . S
C3315 H3323 0.929 . S
C3316 C3315 1.383 . S
C3316 C3317 1.377 . S
C3317 H3301 0.930 . S
C3317 C3316 1.377 . S
C3317 C3318 1.379 . S
C3318 H3302 0.931 . S
C3318 C3312 1.383 . S
C3318 C3317 1.379 . S
H3319 C3313 0.959 . S
H3320 C3313 0.961 . S
H3321 C3313 0.960 . S
H3322 C3314 0.930 . S
H3323 C3315 0.929 . S
H3324 C3332 0.929 . S
H3325 C3334 0.930 . S
H3326 C3336 0.930 . S
H3327 C3339 0.929 . S
H3328 C3342 0.930 . S
H3329 C3344 0.960 . S
H3330 C3344 0.960 . S
H3331 C3344 0.960 . S
C3332 H3324 0.929 . S
C3332 C3333 1.377 . S
C3332 C3334 1.384 . S
C3333 C3332 1.377 . S
C3333 C3339 1.390 . S
C3334 H3325 0.930 . S
C3334 C3332 1.384 . S
C3334 C3335 1.372 . S
C3335 C3334 1.372 . S
C3335 C3336 1.400 . S
C3335 C3340 1.490 . S
C3336 H3326 0.930 . S
C3336 C3335 1.400 . S
C3336 C3339 1.386 . S
H3337 C3353 0.930 . S
H3338 C3354 0.931 . S
C3339 H3327 0.929 . S
C3339 C3333 1.390 . S
C3339 C3336 1.386 . S
C3340 C3335 1.490 . S
C3340 C3342 1.395 . S
C3340 C3343 1.403 . S
H3341 C3347 0.930 . S
C3342 H3328 0.930 . S
C3342 C3340 1.395 . S
C3342 C3345 1.403 . S
C3343 C3340 1.403 . S
C3343 C3344 1.524 . S
C3343 C3347 1.400 . S
C3344 H3329 0.960 . S
C3344 H3330 0.960 . S
C3344 H3331 0.960 . S
C3344 C3343 1.524 . S
C3345 C3342 1.403 . S
C3345 C3346 1.392 . S
C3345 C3349 1.495 . S
C3346 C3345 1.392 . S
C3346 C3347 1.385 . S
C3346 C3348 1.478 . S
C3347 H3341 0.930 . S
C3347 C3343 1.400 . S
C3347 C3346 1.385 . S
C3348 C3346 1.478 . S
C3348 C3350 1.381 . S
C3348 C3354 1.383 . S
C3349 C3345 1.495 . S
C3349 H3355 0.959 . S
C3349 H3356 0.961 . S
C3349 H3357 0.960 . S
C3350 C3348 1.381 . S
C3350 C3351 1.394 . S
C3350 H3358 0.930 . S
C3351 C3350 1.394 . S
C3351 C3352 1.383 . S
C3351 H3359 0.929 . S
C3352 C3351 1.383 . S
C3352 C3353 1.377 . S
C3353 H3337 0.930 . S
C3353 C3352 1.377 . S
C3353 C3354 1.379 . S
C3354 H3338 0.931 . S
C3354 C3348 1.383 . S
C3354 C3353 1.379 . S
H3355 C3349 0.959 . S
H3356 C3349 0.961 . S
H3357 C3349 0.960 . S
H3358 C3350 0.930 . S
H3359 C3351 0.929 . S
H3360 C3368 0.929 . S
H3361 C3370 0.930 . S
H3362 C3372 0.930 . S
H3363 C3375 0.929 . S
H3364 C3378 0.930 . S
H3365 C3380 0.960 . S
H3366 C3380 0.960 . S
H3367 C3380 0.960 . S
C3368 H3360 0.929 . S
C3368 C3369 1.377 . S
C3368 C3370 1.384 . S
C3369 C3368 1.377 . S
C3369 C3375 1.390 . S
C3370 H3361 0.930 . S
C3370 C3368 1.384 . S
C3370 C3371 1.372 . S
C3371 C3370 1.372 . S
C3371 C3372 1.400 . S
C3371 C3376 1.490 . S
C3372 H3362 0.930 . S
C3372 C3371 1.400 . S
C3372 C3375 1.386 . S
H3373 C3389 0.930 . S
H3374 C3390 0.931 . S
C3375 H3363 0.929 . S
C3375 C3369 1.390 . S
C3375 C3372 1.386 . S
C3376 C3371 1.490 . S
C3376 C3378 1.395 . S
C3376 C3379 1.403 . S
H3377 C3383 0.930 . S
C3378 H3364 0.930 . S
C3378 C3376 1.395 . S
C3378 C3381 1.403 . S
C3379 C3376 1.403 . S
C3379 C3380 1.524 . S
C3379 C3383 1.400 . S
C3380 H3365 0.960 . S
C3380 H3366 0.960 . S
C3380 H3367 0.960 . S
C3380 C3379 1.524 . S
C3381 C3378 1.403 . S
C3381 C3382 1.392 . S
C3381 C3385 1.495 . S
C3382 C3381 1.392 . S
C3382 C3383 1.385 . S
C3382 C3384 1.478 . S
C3383 H3377 0.930 . S
C3383 C3379 1.400 . S
C3383 C3382 1.385 . S
C3384 C3382 1.478 . S
C3384 C3386 1.381 . S
C3384 C3390 1.383 . S
C3385 C3381 1.495 . S
C3385 H3391 0.959 . S
C3385 H3392 0.961 . S
C3385 H3393 0.960 . S
C3386 C3384 1.381 . S
C3386 C3387 1.394 . S
C3386 H3394 0.930 . S
C3387 C3386 1.394 . S
C3387 C3388 1.383 . S
C3387 H3395 0.929 . S
C3388 C3387 1.383 . S
C3388 C3389 1.377 . S
C3389 H3373 0.930 . S
C3389 C3388 1.377 . S
C3389 C3390 1.379 . S
C3390 H3374 0.931 . S
C3390 C3384 1.383 . S
C3390 C3389 1.379 . S
H3391 C3385 0.959 . S
H3392 C3385 0.961 . S
H3393 C3385 0.960 . S
H3394 C3386 0.930 . S
H3395 C3387 0.929 . S
H3396 C3404 0.929 . S
H3397 C3406 0.930 . S
H3398 C3408 0.930 . S
H3399 C3411 0.929 . S
H3400 C3414 0.930 . S
H3401 C3416 0.960 . S
H3402 C3416 0.960 . S
H3403 C3416 0.960 . S
C3404 H3396 0.929 . S
C3404 C3405 1.377 . S
C3404 C3406 1.384 . S
C3405 C3404 1.377 . S
C3405 C3411 1.390 . S
C3406 H3397 0.930 . S
C3406 C3404 1.384 . S
C3406 C3407 1.372 . S
C3407 C3406 1.372 . S
C3407 C3408 1.400 . S
C3407 C3412 1.490 . S
C3408 H3398 0.930 . S
C3408 C3407 1.400 . S
C3408 C3411 1.386 . S
H3409 C3425 0.930 . S
H3410 C3426 0.931 . S
C3411 H3399 0.929 . S
C3411 C3405 1.390 . S
C3411 C3408 1.386 . S
C3412 C3407 1.490 . S
C3412 C3414 1.395 . S
C3412 C3415 1.403 . S
H3413 C3419 0.930 . S
C3414 H3400 0.930 . S
C3414 C3412 1.395 . S
C3414 C3417 1.403 . S
C3415 C3412 1.403 . S
C3415 C3416 1.524 . S
C3415 C3419 1.400 . S
C3416 H3401 0.960 . S
C3416 H3402 0.960 . S
C3416 H3403 0.960 . S
C3416 C3415 1.524 . S
C3417 C3414 1.403 . S
C3417 C3418 1.392 . S
C3417 C3421 1.495 . S
C3418 C3417 1.392 . S
C3418 C3419 1.385 . S
C3418 C3420 1.478 . S
C3419 H3413 0.930 . S
C3419 C3415 1.400 . S
C3419 C3418 1.385 . S
C3420 C3418 1.478 . S
C3420 C3422 1.381 . S
C3420 C3426 1.383 . S
C3421 C3417 1.495 . S
C3421 H3427 0.959 . S
C3421 H3428 0.961 . S
C3421 H3429 0.960 . S
C3422 C3420 1.381 . S
C3422 C3423 1.394 . S
C3422 H3430 0.930 . S
C3423 C3422 1.394 . S
C3423 C3424 1.383 . S
C3423 H3431 0.929 . S
C3424 C3423 1.383 . S
C3424 C3425 1.377 . S
C3425 H3409 0.930 . S
C3425 C3424 1.377 . S
C3425 C3426 1.379 . S
C3426 H3410 0.931 . S
C3426 C3420 1.383 . S
C3426 C3425 1.379 . S
H3427 C3421 0.959 . S
H3428 C3421 0.961 . S
H3429 C3421 0.960 . S
H3430 C3422 0.930 . S
H3431 C3423 0.929 . S
H3432 C3440 0.929 . S
H3433 C3442 0.930 . S
H3434 C3444 0.930 . S
H3435 C3447 0.929 . S
H3436 C3450 0.930 . S
H3437 C3452 0.960 . S
H3438 C3452 0.960 . S
H3439 C3452 0.960 . S
C3440 H3432 0.929 . S
C3440 C3441 1.377 . S
C3440 C3442 1.384 . S
C3441 C3440 1.377 . S
C3441 C3447 1.390 . S
C3442 H3433 0.930 . S
C3442 C3440 1.384 . S
C3442 C3443 1.372 . S
C3443 C3442 1.372 . S
C3443 C3444 1.400 . S
C3443 C3448 1.490 . S
C3444 H3434 0.930 . S
C3444 C3443 1.400 . S
C3444 C3447 1.386 . S
H3445 C3461 0.930 . S
H3446 C3462 0.931 . S
C3447 H3435 0.929 . S
C3447 C3441 1.390 . S
C3447 C3444 1.386 . S
C3448 C3443 1.490 . S
C3448 C3450 1.395 . S
C3448 C3451 1.403 . S
H3449 C3455 0.930 . S
C3450 H3436 0.930 . S
C3450 C3448 1.395 . S
C3450 C3453 1.403 . S
C3451 C3448 1.403 . S
C3451 C3452 1.524 . S
C3451 C3455 1.400 . S
C3452 H3437 0.960 . S
C3452 H3438 0.960 . S
C3452 H3439 0.960 . S
C3452 C3451 1.524 . S
C3453 C3450 1.403 . S
C3453 C3454 1.392 . S
C3453 C3457 1.495 . S
C3454 C3453 1.392 . S
C3454 C3455 1.385 . S
C3454 C3456 1.478 . S
C3455 H3449 0.930 . S
C3455 C3451 1.400 . S
C3455 C3454 1.385 . S
C3456 C3454 1.478 . S
C3456 C3458 1.381 . S
C3456 C3462 1.383 . S
C3457 C3453 1.495 . S
C3457 H3463 0.959 . S
C3457 H3464 0.961 . S
C3457 H3465 0.960 . S
C3458 C3456 1.381 . S
C3458 C3459 1.394 . S
C3458 H3466 0.930 . S
C3459 C3458 1.394 . S
C3459 C3460 1.383 . S
C3459 H3467 0.929 . S
C3460 C3459 1.383 . S
C3460 C3461 1.377 . S
C3461 H3445 0.930 . S
C3461 C3460 1.377 . S
C3461 C3462 1.379 . S
C3462 H3446 0.931 . S
C3462 C3456 1.383 . S
C3462 C3461 1.379 . S
H3463 C3457 0.959 . S
H3464 C3457 0.961 . S
H3465 C3457 0.960 . S
H3466 C3458 0.930 . S
H3467 C3459 0.929 . S
H3468 C3476 0.929 . S
H3469 C3478 0.930 . S
H3470 C3480 0.930 . S
H3471 C3483 0.929 . S
H3472 C3486 0.930 . S
H3473 C3488 0.960 . S
H3474 C3488 0.960 . S
H3475 C3488 0.960 . S
C3476 H3468 0.929 . S
C3476 C3477 1.377 . S
C3476 C3478 1.384 . S
C3477 C3476 1.377 . S
C3477 C3483 1.390 . S
C3478 H3469 0.930 . S
C3478 C3476 1.384 . S
C3478 C3479 1.372 . S
C3479 C3478 1.372 . S
C3479 C3480 1.400 . S
C3479 C3484 1.490 . S
C3480 H3470 0.930 . S
C3480 C3479 1.400 . S
C3480 C3483 1.386 . S
H3481 C3497 0.930 . S
H3482 C3498 0.931 . S
C3483 H3471 0.929 . S
C3483 C3477 1.390 . S
C3483 C3480 1.386 . S
C3484 C3479 1.490 . S
C3484 C3486 1.395 . S
C3484 C3487 1.403 . S
H3485 C3491 0.930 . S
C3486 H3472 0.930 . S
C3486 C3484 1.395 . S
C3486 C3489 1.403 . S
C3487 C3484 1.403 . S
C3487 C3488 1.524 . S
C3487 C3491 1.400 . S
C3488 H3473 0.960 . S
C3488 H3474 0.960 . S
C3488 H3475 0.960 . S
C3488 C3487 1.524 . S
C3489 C3486 1.403 . S
C3489 C3490 1.392 . S
C3489 C3493 1.495 . S
C3490 C3489 1.392 . S
C3490 C3491 1.385 . S
C3490 C3492 1.478 . S
C3491 H3485 0.930 . S
C3491 C3487 1.400 . S
C3491 C3490 1.385 . S
C3492 C3490 1.478 . S
C3492 C3494 1.381 . S
C3492 C3498 1.383 . S
C3493 C3489 1.495 . S
C3493 H3499 0.959 . S
C3493 H3500 0.961 . S
C3493 H3501 0.960 . S
C3494 C3492 1.381 . S
C3494 C3495 1.394 . S
C3494 H3502 0.930 . S
C3495 C3494 1.394 . S
C3495 C3496 1.383 . S
C3495 H3503 0.929 . S
C3496 C3495 1.383 . S
C3496 C3497 1.377 . S
C3497 H3481 0.930 . S
C3497 C3496 1.377 . S
C3497 C3498 1.379 . S
C3498 H3482 0.931 . S
C3498 C3492 1.383 . S
C3498 C3497 1.379 . S
H3499 C3493 0.959 . S
H3500 C3493 0.961 . S
H3501 C3493 0.960 . S
H3502 C3494 0.930 . S
H3503 C3495 0.929 . S
H3504 C3512 0.929 . S
H3505 C3514 0.930 . S
H3506 C3516 0.930 . S
H3507 C3519 0.929 . S
H3508 C3522 0.930 . S
H3509 C3524 0.960 . S
H3510 C3524 0.960 . S
H3511 C3524 0.960 . S
C3512 H3504 0.929 . S
C3512 C3513 1.377 . S
C3512 C3514 1.384 . S
C3513 C3512 1.377 . S
C3513 C3519 1.390 . S
C3514 H3505 0.930 . S
C3514 C3512 1.384 . S
C3514 C3515 1.372 . S
C3515 C3514 1.372 . S
C3515 C3516 1.400 . S
C3515 C3520 1.490 . S
C3516 H3506 0.930 . S
C3516 C3515 1.400 . S
C3516 C3519 1.386 . S
H3517 C3533 0.930 . S
H3518 C3534 0.931 . S
C3519 H3507 0.929 . S
C3519 C3513 1.390 . S
C3519 C3516 1.386 . S
C3520 C3515 1.490 . S
C3520 C3522 1.395 . S
C3520 C3523 1.403 . S
H3521 C3527 0.930 . S
C3522 H3508 0.930 . S
C3522 C3520 1.395 . S
C3522 C3525 1.403 . S
C3523 C3520 1.403 . S
C3523 C3524 1.524 . S
C3523 C3527 1.400 . S
C3524 H3509 0.960 . S
C3524 H3510 0.960 . S
C3524 H3511 0.960 . S
C3524 C3523 1.524 . S
C3525 C3522 1.403 . S
C3525 C3526 1.392 . S
C3525 C3529 1.495 . S
C3526 C3525 1.392 . S
C3526 C3527 1.385 . S
C3526 C3528 1.478 . S
C3527 H3521 0.930 . S
C3527 C3523 1.400 . S
C3527 C3526 1.385 . S
C3528 C3526 1.478 . S
C3528 C3530 1.381 . S
C3528 C3534 1.383 . S
C3529 C3525 1.495 . S
C3529 H3535 0.959 . S
C3529 H3536 0.961 . S
C3529 H3537 0.960 . S
C3530 C3528 1.381 . S
C3530 C3531 1.394 . S
C3530 H3538 0.930 . S
C3531 C3530 1.394 . S
C3531 C3532 1.383 . S
C3531 H3539 0.929 . S
C3532 C3531 1.383 . S
C3532 C3533 1.377 . S
C3533 H3517 0.930 . S
C3533 C3532 1.377 . S
C3533 C3534 1.379 . S
C3534 H3518 0.931 . S
C3534 C3528 1.383 . S
C3534 C3533 1.379 . S
H3535 C3529 0.959 . S
H3536 C3529 0.961 . S
H3537 C3529 0.960 . S
H3538 C3530 0.930 . S
H3539 C3531 0.929 . S
H3540 C3548 0.929 . S
H3541 C3550 0.930 . S
H3542 C3552 0.930 . S
H3543 C3555 0.929 . S
H3544 C3558 0.930 . S
H3545 C3560 0.960 . S
H3546 C3560 0.960 . S
H3547 C3560 0.960 . S
C3548 H3540 0.929 . S
C3548 C3549 1.377 . S
C3548 C3550 1.384 . S
C3549 C3548 1.377 . S
C3549 C3555 1.390 . S
C3550 H3541 0.930 . S
C3550 C3548 1.384 . S
C3550 C3551 1.372 . S
C3551 C3550 1.372 . S
C3551 C3552 1.400 . S
C3551 C3556 1.490 . S
C3552 H3542 0.930 . S
C3552 C3551 1.400 . S
C3552 C3555 1.386 . S
H3553 C3569 0.930 . S
H3554 C3570 0.931 . S
C3555 H3543 0.929 . S
C3555 C3549 1.390 . S
C3555 C3552 1.386 . S
C3556 C3551 1.490 . S
C3556 C3558 1.395 . S
C3556 C3559 1.403 . S
H3557 C3563 0.930 . S
C3558 H3544 0.930 . S
C3558 C3556 1.395 . S
C3558 C3561 1.403 . S
C3559 C3556 1.403 . S
C3559 C3560 1.524 . S
C3559 C3563 1.400 . S
C3560 H3545 0.960 . S
C3560 H3546 0.960 . S
C3560 H3547 0.960 . S
C3560 C3559 1.524 . S
C3561 C3558 1.403 . S
C3561 C3562 1.392 . S
C3561 C3565 1.495 . S
C3562 C3561 1.392 . S
C3562 C3563 1.385 . S
C3562 C3564 1.478 . S
C3563 H3557 0.930 . S
C3563 C3559 1.400 . S
C3563 C3562 1.385 . S
C3564 C3562 1.478 . S
C3564 C3566 1.381 . S
C3564 C3570 1.383 . S
C3565 C3561 1.495 . S
C3565 H3571 0.959 . S
C3565 H3572 0.961 . S
C3565 H3573 0.960 . S
C3566 C3564 1.381 . S
C3566 C3567 1.394 . S
C3566 H3574 0.930 . S
C3567 C3566 1.394 . S
C3567 C3568 1.383 . S
C3567 H3575 0.929 . S
C3568 C3567 1.383 . S
C3568 C3569 1.377 . S
C3569 H3553 0.930 . S
C3569 C3568 1.377 . S
C3569 C3570 1.379 . S
C3570 H3554 0.931 . S
C3570 C3564 1.383 . S
C3570 C3569 1.379 . S
H3571 C3565 0.959 . S
H3572 C3565 0.961 . S
H3573 C3565 0.960 . S
H3574 C3566 0.930 . S
H3575 C3567 0.929 . S
H3576 C3584 0.929 . S
H3577 C3586 0.930 . S
H3578 C3588 0.930 . S
H3579 C3591 0.929 . S
H3580 C3594 0.930 . S
H3581 C3596 0.960 . S
H3582 C3596 0.960 . S
H3583 C3596 0.960 . S
C3584 H3576 0.929 . S
C3584 C3585 1.377 . S
C3584 C3586 1.384 . S
C3585 C3584 1.377 . S
C3585 C3591 1.390 . S
C3586 H3577 0.930 . S
C3586 C3584 1.384 . S
C3586 C3587 1.372 . S
C3587 C3586 1.372 . S
C3587 C3588 1.400 . S
C3587 C3592 1.490 . S
C3588 H3578 0.930 . S
C3588 C3587 1.400 . S
C3588 C3591 1.386 . S
H3589 C3605 0.930 . S
H3590 C3606 0.931 . S
C3591 H3579 0.929 . S
C3591 C3585 1.390 . S
C3591 C3588 1.386 . S
C3592 C3587 1.490 . S
C3592 C3594 1.395 . S
C3592 C3595 1.403 . S
H3593 C3599 0.930 . S
C3594 H3580 0.930 . S
C3594 C3592 1.395 . S
C3594 C3597 1.403 . S
C3595 C3592 1.403 . S
C3595 C3596 1.524 . S
C3595 C3599 1.400 . S
C3596 H3581 0.960 . S
C3596 H3582 0.960 . S
C3596 H3583 0.960 . S
C3596 C3595 1.524 . S
C3597 C3594 1.403 . S
C3597 C3598 1.392 . S
C3597 C3601 1.495 . S
C3598 C3597 1.392 . S
C3598 C3599 1.385 . S
C3598 C3600 1.478 . S
C3599 H3593 0.930 . S
C3599 C3595 1.400 . S
C3599 C3598 1.385 . S
C3600 C3598 1.478 . S
C3600 C3602 1.381 . S
C3600 C3606 1.383 . S
C3601 C3597 1.495 . S
C3601 H3607 0.959 . S
C3601 H3608 0.961 . S
C3601 H3609 0.960 . S
C3602 C3600 1.381 . S
C3602 C3603 1.394 . S
C3602 H3610 0.930 . S
C3603 C3602 1.394 . S
C3603 C3604 1.383 . S
C3603 H3611 0.929 . S
C3604 C3603 1.383 . S
C3604 C3605 1.377 . S
C3605 H3589 0.930 . S
C3605 C3604 1.377 . S
C3605 C3606 1.379 . S
C3606 H3590 0.931 . S
C3606 C3600 1.383 . S
C3606 C3605 1.379 . S
H3607 C3601 0.959 . S
H3608 C3601 0.961 . S
H3609 C3601 0.960 . S
H3610 C3602 0.930 . S
H3611 C3603 0.929 . S
H3612 C3620 0.929 . S
H3613 C3622 0.930 . S
H3614 C3624 0.930 . S
H3615 C3627 0.929 . S
H3616 C3630 0.930 . S
H3617 C3632 0.960 . S
H3618 C3632 0.960 . S
H3619 C3632 0.960 . S
C3620 H3612 0.929 . S
C3620 C3621 1.377 . S
C3620 C3622 1.384 . S
C3621 C3620 1.377 . S
C3621 C3627 1.390 . S
C3622 H3613 0.930 . S
C3622 C3620 1.384 . S
C3622 C3623 1.372 . S
C3623 C3622 1.372 . S
C3623 C3624 1.400 . S
C3623 C3628 1.490 . S
C3624 H3614 0.930 . S
C3624 C3623 1.400 . S
C3624 C3627 1.386 . S
H3625 C3641 0.930 . S
H3626 C3642 0.931 . S
C3627 H3615 0.929 . S
C3627 C3621 1.390 . S
C3627 C3624 1.386 . S
C3628 C3623 1.490 . S
C3628 C3630 1.395 . S
C3628 C3631 1.403 . S
H3629 C3635 0.930 . S
C3630 H3616 0.930 . S
C3630 C3628 1.395 . S
C3630 C3633 1.403 . S
C3631 C3628 1.403 . S
C3631 C3632 1.524 . S
C3631 C3635 1.400 . S
C3632 H3617 0.960 . S
C3632 H3618 0.960 . S
C3632 H3619 0.960 . S
C3632 C3631 1.524 . S
C3633 C3630 1.403 . S
C3633 C3634 1.392 . S
C3633 C3637 1.495 . S
C3634 C3633 1.392 . S
C3634 C3635 1.385 . S
C3634 C3636 1.478 . S
C3635 H3629 0.930 . S
C3635 C3631 1.400 . S
C3635 C3634 1.385 . S
C3636 C3634 1.478 . S
C3636 C3638 1.381 . S
C3636 C3642 1.383 . S
C3637 C3633 1.495 . S
C3637 H3643 0.959 . S
C3637 H3644 0.961 . S
C3637 H3645 0.960 . S
C3638 C3636 1.381 . S
C3638 C3639 1.394 . S
C3638 H3646 0.930 . S
C3639 C3638 1.394 . S
C3639 C3640 1.383 . S
C3639 H3647 0.929 . S
C3640 C3639 1.383 . S
C3640 C3641 1.377 . S
C3641 H3625 0.930 . S
C3641 C3640 1.377 . S
C3641 C3642 1.379 . S
C3642 H3626 0.931 . S
C3642 C3636 1.383 . S
C3642 C3641 1.379 . S
H3643 C3637 0.959 . S
H3644 C3637 0.961 . S
H3645 C3637 0.960 . S
H3646 C3638 0.930 . S
H3647 C3639 0.929 . S
H3648 C3656 0.929 . S
H3649 C3658 0.930 . S
H3650 C3660 0.930 . S
H3651 C3663 0.929 . S
H3652 C3666 0.930 . S
H3653 C3668 0.960 . S
H3654 C3668 0.960 . S
H3655 C3668 0.960 . S
C3656 H3648 0.929 . S
C3656 C3657 1.377 . S
C3656 C3658 1.384 . S
C3657 C3656 1.377 . S
C3657 C3663 1.390 . S
C3658 H3649 0.930 . S
C3658 C3656 1.384 . S
C3658 C3659 1.372 . S
C3659 C3658 1.372 . S
C3659 C3660 1.400 . S
C3659 C3664 1.490 . S
C3660 H3650 0.930 . S
C3660 C3659 1.400 . S
C3660 C3663 1.386 . S
H3661 C3677 0.930 . S
H3662 C3678 0.931 . S
C3663 H3651 0.929 . S
C3663 C3657 1.390 . S
C3663 C3660 1.386 . S
C3664 C3659 1.490 . S
C3664 C3666 1.395 . S
C3664 C3667 1.403 . S
H3665 C3671 0.930 . S
C3666 H3652 0.930 . S
C3666 C3664 1.395 . S
C3666 C3669 1.403 . S
C3667 C3664 1.403 . S
C3667 C3668 1.524 . S
C3667 C3671 1.400 . S
C3668 H3653 0.960 . S
C3668 H3654 0.960 . S
C3668 H3655 0.960 . S
C3668 C3667 1.524 . S
C3669 C3666 1.403 . S
C3669 C3670 1.392 . S
C3669 C3673 1.495 . S
C3670 C3669 1.392 . S
C3670 C3671 1.385 . S
C3670 C3672 1.478 . S
C3671 H3665 0.930 . S
C3671 C3667 1.400 . S
C3671 C3670 1.385 . S
C3672 C3670 1.478 . S
C3672 C3674 1.381 . S
C3672 C3678 1.383 . S
C3673 C3669 1.495 . S
C3673 H3679 0.959 . S
C3673 H3680 0.961 . S
C3673 H3681 0.960 . S
C3674 C3672 1.381 . S
C3674 C3675 1.394 . S
C3674 H3682 0.930 . S
C3675 C3674 1.394 . S
C3675 C3676 1.383 . S
C3675 H3683 0.929 . S
C3676 C3675 1.383 . S
C3676 C3677 1.377 . S
C3677 H3661 0.930 . S
C3677 C3676 1.377 . S
C3677 C3678 1.379 . S
C3678 H3662 0.931 . S
C3678 C3672 1.383 . S
C3678 C3677 1.379 . S
H3679 C3673 0.959 . S
H3680 C3673 0.961 . S
H3681 C3673 0.960 . S
H3682 C3674 0.930 . S
H3683 C3675 0.929 . S
H3684 C3692 0.929 . S
H3685 C3694 0.930 . S
H3686 C3696 0.930 . S
H3687 C3699 0.929 . S
H3688 C3702 0.930 . S
H3689 C3704 0.960 . S
H3690 C3704 0.960 . S
H3691 C3704 0.960 . S
C3692 H3684 0.929 . S
C3692 C3693 1.377 . S
C3692 C3694 1.384 . S
C3693 C3692 1.377 . S
C3693 C3699 1.390 . S
C3694 H3685 0.930 . S
C3694 C3692 1.384 . S
C3694 C3695 1.372 . S
C3695 C3694 1.372 . S
C3695 C3696 1.400 . S
C3695 C3700 1.490 . S
C3696 H3686 0.930 . S
C3696 C3695 1.400 . S
C3696 C3699 1.386 . S
H3697 C3713 0.930 . S
H3698 C3714 0.931 . S
C3699 H3687 0.929 . S
C3699 C3693 1.390 . S
C3699 C3696 1.386 . S
C3700 C3695 1.490 . S
C3700 C3702 1.395 . S
C3700 C3703 1.403 . S
H3701 C3707 0.930 . S
C3702 H3688 0.930 . S
C3702 C3700 1.395 . S
C3702 C3705 1.403 . S
C3703 C3700 1.403 . S
C3703 C3704 1.524 . S
C3703 C3707 1.400 . S
C3704 H3689 0.960 . S
C3704 H3690 0.960 . S
C3704 H3691 0.960 . S
C3704 C3703 1.524 . S
C3705 C3702 1.403 . S
C3705 C3706 1.392 . S
C3705 C3709 1.495 . S
C3706 C3705 1.392 . S
C3706 C3707 1.385 . S
C3706 C3708 1.478 . S
C3707 H3701 0.930 . S
C3707 C3703 1.400 . S
C3707 C3706 1.385 . S
C3708 C3706 1.478 . S
C3708 C3710 1.381 . S
C3708 C3714 1.383 . S
C3709 C3705 1.495 . S
C3709 H3715 0.959 . S
C3709 H3716 0.961 . S
C3709 H3717 0.960 . S
C3710 C3708 1.381 . S
C3710 C3711 1.394 . S
C3710 H3718 0.930 . S
C3711 C3710 1.394 . S
C3711 C3712 1.383 . S
C3711 H3719 0.929 . S
C3712 C3711 1.383 . S
C3712 C3713 1.377 . S
C3713 H3697 0.930 . S
C3713 C3712 1.377 . S
C3713 C3714 1.379 . S
C3714 H3698 0.931 . S
C3714 C3708 1.383 . S
C3714 C3713 1.379 . S
H3715 C3709 0.959 . S
H3716 C3709 0.961 . S
H3717 C3709 0.960 . S
H3718 C3710 0.930 . S
H3719 C3711 0.929 . S
H3720 C3728 0.929 . S
H3721 C3730 0.930 . S
H3722 C3732 0.930 . S
H3723 C3735 0.929 . S
H3724 C3738 0.930 . S
H3725 C3740 0.960 . S
H3726 C3740 0.960 . S
H3727 C3740 0.960 . S
C3728 H3720 0.929 . S
C3728 C3729 1.377 . S
C3728 C3730 1.384 . S
C3729 C3728 1.377 . S
C3729 C3735 1.390 . S
C3730 H3721 0.930 . S
C3730 C3728 1.384 . S
C3730 C3731 1.372 . S
C3731 C3730 1.372 . S
C3731 C3732 1.400 . S
C3731 C3736 1.490 . S
C3732 H3722 0.930 . S
C3732 C3731 1.400 . S
C3732 C3735 1.386 . S
H3733 C3749 0.930 . S
H3734 C3750 0.931 . S
C3735 H3723 0.929 . S
C3735 C3729 1.390 . S
C3735 C3732 1.386 . S
C3736 C3731 1.490 . S
C3736 C3738 1.395 . S
C3736 C3739 1.403 . S
H3737 C3743 0.930 . S
C3738 H3724 0.930 . S
C3738 C3736 1.395 . S
C3738 C3741 1.403 . S
C3739 C3736 1.403 . S
C3739 C3740 1.524 . S
C3739 C3743 1.400 . S
C3740 H3725 0.960 . S
C3740 H3726 0.960 . S
C3740 H3727 0.960 . S
C3740 C3739 1.524 . S
C3741 C3738 1.403 . S
C3741 C3742 1.392 . S
C3741 C3745 1.495 . S
C3742 C3741 1.392 . S
C3742 C3743 1.385 . S
C3742 C3744 1.478 . S
C3743 H3737 0.930 . S
C3743 C3739 1.400 . S
C3743 C3742 1.385 . S
C3744 C3742 1.478 . S
C3744 C3746 1.381 . S
C3744 C3750 1.383 . S
C3745 C3741 1.495 . S
C3745 H3751 0.959 . S
C3745 H3752 0.961 . S
C3745 H3753 0.960 . S
C3746 C3744 1.381 . S
C3746 C3747 1.394 . S
C3746 H3754 0.930 . S
C3747 C3746 1.394 . S
C3747 C3748 1.383 . S
C3747 H3755 0.929 . S
C3748 C3747 1.383 . S
C3748 C3749 1.377 . S
C3749 H3733 0.930 . S
C3749 C3748 1.377 . S
C3749 C3750 1.379 . S
C3750 H3734 0.931 . S
C3750 C3744 1.383 . S
C3750 C3749 1.379 . S
H3751 C3745 0.959 . S
H3752 C3745 0.961 . S
H3753 C3745 0.960 . S
H3754 C3746 0.930 . S
H3755 C3747 0.929 . S
H3756 C3764 0.929 . S
H3757 C3766 0.930 . S
H3758 C3768 0.930 . S
H3759 C3771 0.929 . S
H3760 C3774 0.930 . S
H3761 C3776 0.960 . S
H3762 C3776 0.960 . S
H3763 C3776 0.960 . S
C3764 H3756 0.929 . S
C3764 C3765 1.377 . S
C3764 C3766 1.384 . S
C3765 C3764 1.377 . S
C3765 C3771 1.390 . S
C3766 H3757 0.930 . S
C3766 C3764 1.384 . S
C3766 C3767 1.372 . S
C3767 C3766 1.372 . S
C3767 C3768 1.400 . S
C3767 C3772 1.490 . S
C3768 H3758 0.930 . S
C3768 C3767 1.400 . S
C3768 C3771 1.386 . S
H3769 C3785 0.930 . S
H3770 C3786 0.931 . S
C3771 H3759 0.929 . S
C3771 C3765 1.390 . S
C3771 C3768 1.386 . S
C3772 C3767 1.490 . S
C3772 C3774 1.395 . S
C3772 C3775 1.403 . S
H3773 C3779 0.930 . S
C3774 H3760 0.930 . S
C3774 C3772 1.395 . S
C3774 C3777 1.403 . S
C3775 C3772 1.403 . S
C3775 C3776 1.524 . S
C3775 C3779 1.400 . S
C3776 H3761 0.960 . S
C3776 H3762 0.960 . S
C3776 H3763 0.960 . S
C3776 C3775 1.524 . S
C3777 C3774 1.403 . S
C3777 C3778 1.392 . S
C3777 C3781 1.495 . S
C3778 C3777 1.392 . S
C3778 C3779 1.385 . S
C3778 C3780 1.478 . S
C3779 H3773 0.930 . S
C3779 C3775 1.400 . S
C3779 C3778 1.385 . S
C3780 C3778 1.478 . S
C3780 C3782 1.381 . S
C3780 C3786 1.383 . S
C3781 C3777 1.495 . S
C3781 H3787 0.959 . S
C3781 H3788 0.961 . S
C3781 H3789 0.960 . S
C3782 C3780 1.381 . S
C3782 C3783 1.394 . S
C3782 H3790 0.930 . S
C3783 C3782 1.394 . S
C3783 C3784 1.383 . S
C3783 H3791 0.929 . S
C3784 C3783 1.383 . S
C3784 C3785 1.377 . S
C3785 H3769 0.930 . S
C3785 C3784 1.377 . S
C3785 C3786 1.379 . S
C3786 H3770 0.931 . S
C3786 C3780 1.383 . S
C3786 C3785 1.379 . S
H3787 C3781 0.959 . S
H3788 C3781 0.961 . S
H3789 C3781 0.960 . S
H3790 C3782 0.930 . S
H3791 C3783 0.929 . S
H3792 C3800 0.929 . S
H3793 C3802 0.930 . S
H3794 C3804 0.930 . S
H3795 C3807 0.929 . S
H3796 C3810 0.930 . S
H3797 C3812 0.960 . S
H3798 C3812 0.960 . S
H3799 C3812 0.960 . S
C3800 H3792 0.929 . S
C3800 C3801 1.377 . S
C3800 C3802 1.384 . S
C3801 C3800 1.377 . S
C3801 C3807 1.390 . S
C3802 H3793 0.930 . S
C3802 C3800 1.384 . S
C3802 C3803 1.372 . S
C3803 C3802 1.372 . S
C3803 C3804 1.400 . S
C3803 C3808 1.490 . S
C3804 H3794 0.930 . S
C3804 C3803 1.400 . S
C3804 C3807 1.386 . S
H3805 C3821 0.930 . S
H3806 C3822 0.931 . S
C3807 H3795 0.929 . S
C3807 C3801 1.390 . S
C3807 C3804 1.386 . S
C3808 C3803 1.490 . S
C3808 C3810 1.395 . S
C3808 C3811 1.403 . S
H3809 C3815 0.930 . S
C3810 H3796 0.930 . S
C3810 C3808 1.395 . S
C3810 C3813 1.403 . S
C3811 C3808 1.403 . S
C3811 C3812 1.524 . S
C3811 C3815 1.400 . S
C3812 H3797 0.960 . S
C3812 H3798 0.960 . S
C3812 H3799 0.960 . S
C3812 C3811 1.524 . S
C3813 C3810 1.403 . S
C3813 C3814 1.392 . S
C3813 C3817 1.495 . S
C3814 C3813 1.392 . S
C3814 C3815 1.385 . S
C3814 C3816 1.478 . S
C3815 H3809 0.930 . S
C3815 C3811 1.400 . S
C3815 C3814 1.385 . S
C3816 C3814 1.478 . S
C3816 C3818 1.381 . S
C3816 C3822 1.383 . S
C3817 C3813 1.495 . S
C3817 H3823 0.959 . S
C3817 H3824 0.961 . S
C3817 H3825 0.960 . S
C3818 C3816 1.381 . S
C3818 C3819 1.394 . S
C3818 H3826 0.930 . S
C3819 C3818 1.394 . S
C3819 C3820 1.383 . S
C3819 H3827 0.929 . S
C3820 C3819 1.383 . S
C3820 C3821 1.377 . S
C3821 H3805 0.930 . S
C3821 C3820 1.377 . S
C3821 C3822 1.379 . S
C3822 H3806 0.931 . S
C3822 C3816 1.383 . S
C3822 C3821 1.379 . S
H3823 C3817 0.959 . S
H3824 C3817 0.961 . S
H3825 C3817 0.960 . S
H3826 C3818 0.930 . S
H3827 C3819 0.929 . S
H3828 C3836 0.929 . S
H3829 C3838 0.930 . S
H3830 C3840 0.930 . S
H3831 C3843 0.929 . S
H3832 C3846 0.930 . S
H3833 C3848 0.960 . S
H3834 C3848 0.960 . S
H3835 C3848 0.960 . S
C3836 H3828 0.929 . S
C3836 C3837 1.377 . S
C3836 C3838 1.384 . S
C3837 C3836 1.377 . S
C3837 C3843 1.390 . S
C3838 H3829 0.930 . S
C3838 C3836 1.384 . S
C3838 C3839 1.372 . S
C3839 C3838 1.372 . S
C3839 C3840 1.400 . S
C3839 C3844 1.490 . S
C3840 H3830 0.930 . S
C3840 C3839 1.400 . S
C3840 C3843 1.386 . S
H3841 C3857 0.930 . S
H3842 C3858 0.931 . S
C3843 H3831 0.929 . S
C3843 C3837 1.390 . S
C3843 C3840 1.386 . S
C3844 C3839 1.490 . S
C3844 C3846 1.395 . S
C3844 C3847 1.403 . S
H3845 C3851 0.930 . S
C3846 H3832 0.930 . S
C3846 C3844 1.395 . S
C3846 C3849 1.403 . S
C3847 C3844 1.403 . S
C3847 C3848 1.524 . S
C3847 C3851 1.400 . S
C3848 H3833 0.960 . S
C3848 H3834 0.960 . S
C3848 H3835 0.960 . S
C3848 C3847 1.524 . S
C3849 C3846 1.403 . S
C3849 C3850 1.392 . S
C3849 C3853 1.495 . S
C3850 C3849 1.392 . S
C3850 C3851 1.385 . S
C3850 C3852 1.478 . S
C3851 H3845 0.930 . S
C3851 C3847 1.400 . S
C3851 C3850 1.385 . S
C3852 C3850 1.478 . S
C3852 C3854 1.381 . S
C3852 C3858 1.383 . S
C3853 C3849 1.495 . S
C3853 H3859 0.959 . S
C3853 H3860 0.961 . S
C3853 H3861 0.960 . S
C3854 C3852 1.381 . S
C3854 C3855 1.394 . S
C3854 H3862 0.930 . S
C3855 C3854 1.394 . S
C3855 C3856 1.383 . S
C3855 H3863 0.929 . S
C3856 C3855 1.383 . S
C3856 C3857 1.377 . S
C3857 H3841 0.930 . S
C3857 C3856 1.377 . S
C3857 C3858 1.379 . S
C3858 H3842 0.931 . S
C3858 C3852 1.383 . S
C3858 C3857 1.379 . S
H3859 C3853 0.959 . S
H3860 C3853 0.961 . S
H3861 C3853 0.960 . S
H3862 C3854 0.930 . S
H3863 C3855 0.929 . S
H3864 C3872 0.929 . S
H3865 C3874 0.930 . S
H3866 C3876 0.930 . S
H3867 C3879 0.929 . S
H3868 C3882 0.930 . S
H3869 C3884 0.960 . S
H3870 C3884 0.960 . S
H3871 C3884 0.960 . S
C3872 H3864 0.929 . S
C3872 C3873 1.377 . S
C3872 C3874 1.384 . S
C3873 C3872 1.377 . S
C3873 C3879 1.390 . S
C3874 H3865 0.930 . S
C3874 C3872 1.384 . S
C3874 C3875 1.372 . S
C3875 C3874 1.372 . S
C3875 C3876 1.400 . S
C3875 C3880 1.490 . S
C3876 H3866 0.930 . S
C3876 C3875 1.400 . S
C3876 C3879 1.386 . S
H3877 C3893 0.930 . S
H3878 C3894 0.931 . S
C3879 H3867 0.929 . S
C3879 C3873 1.390 . S
C3879 C3876 1.386 . S
C3880 C3875 1.490 . S
C3880 C3882 1.395 . S
C3880 C3883 1.403 . S
H3881 C3887 0.930 . S
C3882 H3868 0.930 . S
C3882 C3880 1.395 . S
C3882 C3885 1.403 . S
C3883 C3880 1.403 . S
C3883 C3884 1.524 . S
C3883 C3887 1.400 . S
C3884 H3869 0.960 . S
C3884 H3870 0.960 . S
C3884 H3871 0.960 . S
C3884 C3883 1.524 . S
C3885 C3882 1.403 . S
C3885 C3886 1.392 . S
C3885 C3889 1.495 . S
C3886 C3885 1.392 . S
C3886 C3887 1.385 . S
C3886 C3888 1.478 . S
C3887 H3881 0.930 . S
C3887 C3883 1.400 . S
C3887 C3886 1.385 . S
C3888 C3886 1.478 . S
C3888 C3890 1.381 . S
C3888 C3894 1.383 . S
C3889 C3885 1.495 . S
C3889 H3895 0.959 . S
C3889 H3896 0.961 . S
C3889 H3897 0.960 . S
C3890 C3888 1.381 . S
C3890 C3891 1.394 . S
C3890 H3898 0.930 . S
C3891 C3890 1.394 . S
C3891 C3892 1.383 . S
C3891 H3899 0.929 . S
C3892 C3891 1.383 . S
C3892 C3893 1.377 . S
C3893 H3877 0.930 . S
C3893 C3892 1.377 . S
C3893 C3894 1.379 . S
C3894 H3878 0.931 . S
C3894 C3888 1.383 . S
C3894 C3893 1.379 . S
H3895 C3889 0.959 . S
H3896 C3889 0.961 . S
H3897 C3889 0.960 . S
H3898 C3890 0.930 . S
H3899 C3891 0.929 . S
H3900 C3908 0.929 . S
H3901 C3910 0.930 . S
H3902 C3912 0.930 . S
H3903 C3915 0.929 . S
H3904 C3918 0.930 . S
H3905 C3920 0.960 . S
H3906 C3920 0.960 . S
H3907 C3920 0.960 . S
C3908 H3900 0.929 . S
C3908 C3909 1.377 . S
C3908 C3910 1.384 . S
C3909 C3908 1.377 . S
C3909 C3915 1.390 . S
C3910 H3901 0.930 . S
C3910 C3908 1.384 . S
C3910 C3911 1.372 . S
C3911 C3910 1.372 . S
C3911 C3912 1.400 . S
C3911 C3916 1.490 . S
C3912 H3902 0.930 . S
C3912 C3911 1.400 . S
C3912 C3915 1.386 . S
H3913 C3929 0.930 . S
H3914 C3930 0.931 . S
C3915 H3903 0.929 . S
C3915 C3909 1.390 . S
C3915 C3912 1.386 . S
C3916 C3911 1.490 . S
C3916 C3918 1.395 . S
C3916 C3919 1.403 . S
H3917 C3923 0.930 . S
C3918 H3904 0.930 . S
C3918 C3916 1.395 . S
C3918 C3921 1.403 . S
C3919 C3916 1.403 . S
C3919 C3920 1.524 . S
C3919 C3923 1.400 . S
C3920 H3905 0.960 . S
C3920 H3906 0.960 . S
C3920 H3907 0.960 . S
C3920 C3919 1.524 . S
C3921 C3918 1.403 . S
C3921 C3922 1.392 . S
C3921 C3925 1.495 . S
C3922 C3921 1.392 . S
C3922 C3923 1.385 . S
C3922 C3924 1.478 . S
C3923 H3917 0.930 . S
C3923 C3919 1.400 . S
C3923 C3922 1.385 . S
C3924 C3922 1.478 . S
C3924 C3926 1.381 . S
C3924 C3930 1.383 . S
C3925 C3921 1.495 . S
C3925 H3931 0.959 . S
C3925 H3932 0.961 . S
C3925 H3933 0.960 . S
C3926 C3924 1.381 . S
C3926 C3927 1.394 . S
C3926 H3934 0.930 . S
C3927 C3926 1.394 . S
C3927 C3928 1.383 . S
C3927 H3935 0.929 . S
C3928 C3927 1.383 . S
C3928 C3929 1.377 . S
C3929 H3913 0.930 . S
C3929 C3928 1.377 . S
C3929 C3930 1.379 . S
C3930 H3914 0.931 . S
C3930 C3924 1.383 . S
C3930 C3929 1.379 . S
H3931 C3925 0.959 . S
H3932 C3925 0.961 . S
H3933 C3925 0.960 . S
H3934 C3926 0.930 . S
H3935 C3927 0.929 . S
H3936 C3944 0.929 . S
H3937 C3946 0.930 . S
H3938 C3948 0.930 . S
H3939 C3951 0.929 . S
H3940 C3954 0.930 . S
H3941 C3956 0.960 . S
H3942 C3956 0.960 . S
H3943 C3956 0.960 . S
C3944 H3936 0.929 . S
C3944 C3945 1.377 . S
C3944 C3946 1.384 . S
C3945 C3944 1.377 . S
C3945 C3951 1.390 . S
C3946 H3937 0.930 . S
C3946 C3944 1.384 . S
C3946 C3947 1.372 . S
C3947 C3946 1.372 . S
C3947 C3948 1.400 . S
C3947 C3952 1.490 . S
C3948 H3938 0.930 . S
C3948 C3947 1.400 . S
C3948 C3951 1.386 . S
H3949 C3965 0.930 . S
H3950 C3966 0.931 . S
C3951 H3939 0.929 . S
C3951 C3945 1.390 . S
C3951 C3948 1.386 . S
C3952 C3947 1.490 . S
C3952 C3954 1.395 . S
C3952 C3955 1.403 . S
H3953 C3959 0.930 . S
C3954 H3940 0.930 . S
C3954 C3952 1.395 . S
C3954 C3957 1.403 . S
C3955 C3952 1.403 . S
C3955 C3956 1.524 . S
C3955 C3959 1.400 . S
C3956 H3941 0.960 . S
C3956 H3942 0.960 . S
C3956 H3943 0.960 . S
C3956 C3955 1.524 . S
C3957 C3954 1.403 . S
C3957 C3958 1.392 . S
C3957 C3961 1.495 . S
C3958 C3957 1.392 . S
C3958 C3959 1.385 . S
C3958 C3960 1.478 . S
C3959 H3953 0.930 . S
C3959 C3955 1.400 . S
C3959 C3958 1.385 . S
C3960 C3958 1.478 . S
C3960 C3962 1.381 . S
C3960 C3966 1.383 . S
C3961 C3957 1.495 . S
C3961 H3967 0.959 . S
C3961 H3968 0.961 . S
C3961 H3969 0.960 . S
C3962 C3960 1.381 . S
C3962 C3963 1.394 . S
C3962 H3970 0.930 . S
C3963 C3962 1.394 . S
C3963 C3964 1.383 . S
C3963 H3971 0.929 . S
C3964 C3963 1.383 . S
C3964 C3965 1.377 . S
C3965 H3949 0.930 . S
C3965 C3964 1.377 . S
C3965 C3966 1.379 . S
C3966 H3950 0.931 . S
C3966 C3960 1.383 . S
C3966 C3965 1.379 . S
H3967 C3961 0.959 . S
H3968 C3961 0.961 . S
H3969 C3961 0.960 . S
H3970 C3962 0.930 . S
H3971 C3963 0.929 . S
H3972 C3980 0.929 . S
H3973 C3982 0.930 . S
H3974 C3984 0.930 . S
H3975 C3987 0.929 . S
H3976 C3990 0.930 . S
H3977 C3992 0.960 . S
H3978 C3992 0.960 . S
H3979 C3992 0.960 . S
C3980 H3972 0.929 . S
C3980 C3981 1.377 . S
C3980 C3982 1.384 . S
C3981 C3980 1.377 . S
C3981 C3987 1.390 . S
C3982 H3973 0.930 . S
C3982 C3980 1.384 . S
C3982 C3983 1.372 . S
C3983 C3982 1.372 . S
C3983 C3984 1.400 . S
C3983 C3988 1.490 . S
C3984 H3974 0.930 . S
C3984 C3983 1.400 . S
C3984 C3987 1.386 . S
H3985 C4001 0.930 . S
H3986 C4002 0.931 . S
C3987 H3975 0.929 . S
C3987 C3981 1.390 . S
C3987 C3984 1.386 . S
C3988 C3983 1.490 . S
C3988 C3990 1.395 . S
C3988 C3991 1.403 . S
H3989 C3995 0.930 . S
C3990 H3976 0.930 . S
C3990 C3988 1.395 . S
C3990 C3993 1.403 . S
C3991 C3988 1.403 . S
C3991 C3992 1.524 . S
C3991 C3995 1.400 . S
C3992 H3977 0.960 . S
C3992 H3978 0.960 . S
C3992 H3979 0.960 . S
C3992 C3991 1.524 . S
C3993 C3990 1.403 . S
C3993 C3994 1.392 . S
C3993 C3997 1.495 . S
C3994 C3993 1.392 . S
C3994 C3995 1.385 . S
C3994 C3996 1.478 . S
C3995 H3989 0.930 . S
C3995 C3991 1.400 . S
C3995 C3994 1.385 . S
C3996 C3994 1.478 . S
C3996 C3998 1.381 . S
C3996 C4002 1.383 . S
C3997 C3993 1.495 . S
C3997 H4003 0.959 . S
C3997 H4004 0.961 . S
C3997 H4005 0.960 . S
C3998 C3996 1.381 . S
C3998 C3999 1.394 . S
C3998 H4006 0.930 . S
C3999 C3998 1.394 . S
C3999 C4000 1.383 . S
C3999 H4007 0.929 . S
C4000 C3999 1.383 . S
C4000 C4001 1.377 . S
C4001 H3985 0.930 . S
C4001 C4000 1.377 . S
C4001 C4002 1.379 . S
C4002 H3986 0.931 . S
C4002 C3996 1.383 . S
C4002 C4001 1.379 . S
H4003 C3997 0.959 . S
H4004 C3997 0.961 . S
H4005 C3997 0.960 . S
H4006 C3998 0.930 . S
H4007 C3999 0.929 . S
H4008 C4016 0.929 . S
H4009 C4018 0.930 . S
H4010 C4020 0.930 . S
H4011 C4023 0.929 . S
H4012 C4026 0.930 . S
H4013 C4028 0.960 . S
H4014 C4028 0.960 . S
H4015 C4028 0.960 . S
C4016 H4008 0.929 . S
C4016 C4017 1.377 . S
C4016 C4018 1.384 . S
C4017 C4016 1.377 . S
C4017 C4023 1.390 . S
C4018 H4009 0.930 . S
C4018 C4016 1.384 . S
C4018 C4019 1.372 . S
C4019 C4018 1.372 . S
C4019 C4020 1.400 . S
C4019 C4024 1.490 . S
C4020 H4010 0.930 . S
C4020 C4019 1.400 . S
C4020 C4023 1.386 . S
H4021 C4037 0.930 . S
H4022 C4038 0.931 . S
C4023 H4011 0.929 . S
C4023 C4017 1.390 . S
C4023 C4020 1.386 . S
C4024 C4019 1.490 . S
C4024 C4026 1.395 . S
C4024 C4027 1.403 . S
H4025 C4031 0.930 . S
C4026 H4012 0.930 . S
C4026 C4024 1.395 . S
C4026 C4029 1.403 . S
C4027 C4024 1.403 . S
C4027 C4028 1.524 . S
C4027 C4031 1.400 . S
C4028 H4013 0.960 . S
C4028 H4014 0.960 . S
C4028 H4015 0.960 . S
C4028 C4027 1.524 . S
C4029 C4026 1.403 . S
C4029 C4030 1.392 . S
C4029 C4033 1.495 . S
C4030 C4029 1.392 . S
C4030 C4031 1.385 . S
C4030 C4032 1.478 . S
C4031 H4025 0.930 . S
C4031 C4027 1.400 . S
C4031 C4030 1.385 . S
C4032 C4030 1.478 . S
C4032 C4034 1.381 . S
C4032 C4038 1.383 . S
C4033 C4029 1.495 . S
C4033 H4039 0.959 . S
C4033 H4040 0.961 . S
C4033 H4041 0.960 . S
C4034 C4032 1.381 . S
C4034 C4035 1.394 . S
C4034 H4042 0.930 . S
C4035 C4034 1.394 . S
C4035 C4036 1.383 . S
C4035 H4043 0.929 . S
C4036 C4035 1.383 . S
C4036 C4037 1.377 . S
C4037 H4021 0.930 . S
C4037 C4036 1.377 . S
C4037 C4038 1.379 . S
C4038 H4022 0.931 . S
C4038 C4032 1.383 . S
C4038 C4037 1.379 . S
H4039 C4033 0.959 . S
H4040 C4033 0.961 . S
H4041 C4033 0.960 . S
H4042 C4034 0.930 . S
H4043 C4035 0.929 . S
H4044 C4052 0.929 . S
H4045 C4054 0.930 . S
H4046 C4056 0.930 . S
H4047 C4059 0.929 . S
H4048 C4062 0.930 . S
H4049 C4064 0.960 . S
H4050 C4064 0.960 . S
H4051 C4064 0.960 . S
C4052 H4044 0.929 . S
C4052 C4053 1.377 . S
C4052 C4054 1.384 . S
C4053 C4052 1.377 . S
C4053 C4059 1.390 . S
C4054 H4045 0.930 . S
C4054 C4052 1.384 . S
C4054 C4055 1.372 . S
C4055 C4054 1.372 . S
C4055 C4056 1.400 . S
C4055 C4060 1.490 . S
C4056 H4046 0.930 . S
C4056 C4055 1.400 . S
C4056 C4059 1.386 . S
H4057 C4073 0.930 . S
H4058 C4074 0.931 . S
C4059 H4047 0.929 . S
C4059 C4053 1.390 . S
C4059 C4056 1.386 . S
C4060 C4055 1.490 . S
C4060 C4062 1.395 . S
C4060 C4063 1.403 . S
H4061 C4067 0.930 . S
C4062 H4048 0.930 . S
C4062 C4060 1.395 . S
C4062 C4065 1.403 . S
C4063 C4060 1.403 . S
C4063 C4064 1.524 . S
C4063 C4067 1.400 . S
C4064 H4049 0.960 . S
C4064 H4050 0.960 . S
C4064 H4051 0.960 . S
C4064 C4063 1.524 . S
C4065 C4062 1.403 . S
C4065 C4066 1.392 . S
C4065 C4069 1.495 . S
C4066 C4065 1.392 . S
C4066 C4067 1.385 . S
C4066 C4068 1.478 . S
C4067 H4061 0.930 . S
C4067 C4063 1.400 . S
C4067 C4066 1.385 . S
C4068 C4066 1.478 . S
C4068 C4070 1.381 . S
C4068 C4074 1.383 . S
C4069 C4065 1.495 . S
C4069 H4075 0.959 . S
C4069 H4076 0.961 . S
C4069 H4077 0.960 . S
C4070 C4068 1.381 . S
C4070 C4071 1.394 . S
C4070 H4078 0.930 . S
C4071 C4070 1.394 . S
C4071 C4072 1.383 . S
C4071 H4079 0.929 . S
C4072 C4071 1.383 . S
C4072 C4073 1.377 . S
C4073 H4057 0.930 . S
C4073 C4072 1.377 . S
C4073 C4074 1.379 . S
C4074 H4058 0.931 . S
C4074 C4068 1.383 . S
C4074 C4073 1.379 . S
H4075 C4069 0.959 . S
H4076 C4069 0.961 . S
H4077 C4069 0.960 . S
H4078 C4070 0.930 . S
H4079 C4071 0.929 . S
H4080 C4088 0.929 . S
H4081 C4090 0.930 . S
H4082 C4092 0.930 . S
H4083 C4095 0.929 . S
H4084 C4098 0.930 . S
H4085 C4100 0.960 . S
H4086 C4100 0.960 . S
H4087 C4100 0.960 . S
C4088 H4080 0.929 . S
C4088 C4089 1.377 . S
C4088 C4090 1.384 . S
C4089 C4088 1.377 . S
C4089 C4095 1.390 . S
C4090 H4081 0.930 . S
C4090 C4088 1.384 . S
C4090 C4091 1.372 . S
C4091 C4090 1.372 . S
C4091 C4092 1.400 . S
C4091 C4096 1.490 . S
C4092 H4082 0.930 . S
C4092 C4091 1.400 . S
C4092 C4095 1.386 . S
H4093 C4109 0.930 . S
H4094 C4110 0.931 . S
C4095 H4083 0.929 . S
C4095 C4089 1.390 . S
C4095 C4092 1.386 . S
C4096 C4091 1.490 . S
C4096 C4098 1.395 . S
C4096 C4099 1.403 . S
H4097 C4103 0.930 . S
C4098 H4084 0.930 . S
C4098 C4096 1.395 . S
C4098 C4101 1.403 . S
C4099 C4096 1.403 . S
C4099 C4100 1.524 . S
C4099 C4103 1.400 . S
C4100 H4085 0.960 . S
C4100 H4086 0.960 . S
C4100 H4087 0.960 . S
C4100 C4099 1.524 . S
C4101 C4098 1.403 . S
C4101 C4102 1.392 . S
C4101 C4105 1.495 . S
C4102 C4101 1.392 . S
C4102 C4103 1.385 . S
C4102 C4104 1.478 . S
C4103 H4097 0.930 . S
C4103 C4099 1.400 . S
C4103 C4102 1.385 . S
C4104 C4102 1.478 . S
C4104 C4106 1.381 . S
C4104 C4110 1.383 . S
C4105 C4101 1.495 . S
C4105 H4111 0.959 . S
C4105 H4112 0.961 . S
C4105 H4113 0.960 . S
C4106 C4104 1.381 . S
C4106 C4107 1.394 . S
C4106 H4114 0.930 . S
C4107 C4106 1.394 . S
C4107 C4108 1.383 . S
C4107 H4115 0.929 . S
C4108 C4107 1.383 . S
C4108 C4109 1.377 . S
C4109 H4093 0.930 . S
C4109 C4108 1.377 . S
C4109 C4110 1.379 . S
C4110 H4094 0.931 . S
C4110 C4104 1.383 . S
C4110 C4109 1.379 . S
H4111 C4105 0.959 . S
H4112 C4105 0.961 . S
H4113 C4105 0.960 . S
H4114 C4106 0.930 . S
H4115 C4107 0.929 . S
H4116 C4124 0.929 . S
H4117 C4126 0.930 . S
H4118 C4128 0.930 . S
H4119 C4131 0.929 . S
H4120 C4134 0.930 . S
H4121 C4136 0.960 . S
H4122 C4136 0.960 . S
H4123 C4136 0.960 . S
C4124 H4116 0.929 . S
C4124 C4125 1.377 . S
C4124 C4126 1.384 . S
C4125 C4124 1.377 . S
C4125 C4131 1.390 . S
C4126 H4117 0.930 . S
C4126 C4124 1.384 . S
C4126 C4127 1.372 . S
C4127 C4126 1.372 . S
C4127 C4128 1.400 . S
C4127 C4132 1.490 . S
C4128 H4118 0.930 . S
C4128 C4127 1.400 . S
C4128 C4131 1.386 . S
H4129 C4145 0.930 . S
H4130 C4146 0.931 . S
C4131 H4119 0.929 . S
C4131 C4125 1.390 . S
C4131 C4128 1.386 . S
C4132 C4127 1.490 . S
C4132 C4134 1.395 . S
C4132 C4135 1.403 . S
H4133 C4139 0.930 . S
C4134 H4120 0.930 . S
C4134 C4132 1.395 . S
C4134 C4137 1.403 . S
C4135 C4132 1.403 . S
C4135 C4136 1.524 . S
C4135 C4139 1.400 . S
C4136 H4121 0.960 . S
C4136 H4122 0.960 . S
C4136 H4123 0.960 . S
C4136 C4135 1.524 . S
C4137 C4134 1.403 . S
C4137 C4138 1.392 . S
C4137 C4141 1.495 . S
C4138 C4137 1.392 . S
C4138 C4139 1.385 . S
C4138 C4140 1.478 . S
C4139 H4133 0.930 . S
C4139 C4135 1.400 . S
C4139 C4138 1.385 . S
C4140 C4138 1.478 . S
C4140 C4142 1.381 . S
C4140 C4146 1.383 . S
C4141 C4137 1.495 . S
C4141 H4147 0.959 . S
C4141 H4148 0.961 . S
C4141 H4149 0.960 . S
C4142 C4140 1.381 . S
C4142 C4143 1.394 . S
C4142 H4150 0.930 . S
C4143 C4142 1.394 . S
C4143 C4144 1.383 . S
C4143 H4151 0.929 . S
C4144 C4143 1.383 . S
C4144 C4145 1.377 . S
C4145 H4129 0.930 . S
C4145 C4144 1.377 . S
C4145 C4146 1.379 . S
C4146 H4130 0.931 . S
C4146 C4140 1.383 . S
C4146 C4145 1.379 . S
H4147 C4141 0.959 . S
H4148 C4141 0.961 . S
H4149 C4141 0.960 . S
H4150 C4142 0.930 . S
H4151 C4143 0.929 . S
H4152 C4160 0.929 . S
H4153 C4162 0.930 . S
H4154 C4164 0.930 . S
H4155 C4167 0.929 . S
H4156 C4170 0.930 . S
H4157 C4172 0.960 . S
H4158 C4172 0.960 . S
H4159 C4172 0.960 . S
C4160 H4152 0.929 . S
C4160 C4161 1.377 . S
C4160 C4162 1.384 . S
C4161 C4160 1.377 . S
C4161 C4167 1.390 . S
C4162 H4153 0.930 . S
C4162 C4160 1.384 . S
C4162 C4163 1.372 . S
C4163 C4162 1.372 . S
C4163 C4164 1.400 . S
C4163 C4168 1.490 . S
C4164 H4154 0.930 . S
C4164 C4163 1.400 . S
C4164 C4167 1.386 . S
H4165 C4181 0.930 . S
H4166 C4182 0.931 . S
C4167 H4155 0.929 . S
C4167 C4161 1.390 . S
C4167 C4164 1.386 . S
C4168 C4163 1.490 . S
C4168 C4170 1.395 . S
C4168 C4171 1.403 . S
H4169 C4175 0.930 . S
C4170 H4156 0.930 . S
C4170 C4168 1.395 . S
C4170 C4173 1.403 . S
C4171 C4168 1.403 . S
C4171 C4172 1.524 . S
C4171 C4175 1.400 . S
C4172 H4157 0.960 . S
C4172 H4158 0.960 . S
C4172 H4159 0.960 . S
C4172 C4171 1.524 . S
C4173 C4170 1.403 . S
C4173 C4174 1.392 . S
C4173 C4177 1.495 . S
C4174 C4173 1.392 . S
C4174 C4175 1.385 . S
C4174 C4176 1.478 . S
C4175 H4169 0.930 . S
C4175 C4171 1.400 . S
C4175 C4174 1.385 . S
C4176 C4174 1.478 . S
C4176 C4178 1.381 . S
C4176 C4182 1.383 . S
C4177 C4173 1.495 . S
C4177 H4183 0.959 . S
C4177 H4184 0.961 . S
C4177 H4185 0.960 . S
C4178 C4176 1.381 . S
C4178 C4179 1.394 . S
C4178 H4186 0.930 . S
C4179 C4178 1.394 . S
C4179 C4180 1.383 . S
C4179 H4187 0.929 . S
C4180 C4179 1.383 . S
C4180 C4181 1.377 . S
C4181 H4165 0.930 . S
C4181 C4180 1.377 . S
C4181 C4182 1.379 . S
C4182 H4166 0.931 . S
C4182 C4176 1.383 . S
C4182 C4181 1.379 . S
H4183 C4177 0.959 . S
H4184 C4177 0.961 . S
H4185 C4177 0.960 . S
H4186 C4178 0.930 . S
H4187 C4179 0.929 . S
H4188 C4196 0.929 . S
H4189 C4198 0.930 . S
H4190 C4200 0.930 . S
H4191 C4203 0.929 . S
H4192 C4206 0.930 . S
H4193 C4208 0.960 . S
H4194 C4208 0.960 . S
H4195 C4208 0.960 . S
C4196 H4188 0.929 . S
C4196 C4197 1.377 . S
C4196 C4198 1.384 . S
C4197 C4196 1.377 . S
C4197 C4203 1.390 . S
C4198 H4189 0.930 . S
C4198 C4196 1.384 . S
C4198 C4199 1.372 . S
C4199 C4198 1.372 . S
C4199 C4200 1.400 . S
C4199 C4204 1.490 . S
C4200 H4190 0.930 . S
C4200 C4199 1.400 . S
C4200 C4203 1.386 . S
H4201 C4217 0.930 . S
H4202 C4218 0.931 . S
C4203 H4191 0.929 . S
C4203 C4197 1.390 . S
C4203 C4200 1.386 . S
C4204 C4199 1.490 . S
C4204 C4206 1.395 . S
C4204 C4207 1.403 . S
H4205 C4211 0.930 . S
C4206 H4192 0.930 . S
C4206 C4204 1.395 . S
C4206 C4209 1.403 . S
C4207 C4204 1.403 . S
C4207 C4208 1.524 . S
C4207 C4211 1.400 . S
C4208 H4193 0.960 . S
C4208 H4194 0.960 . S
C4208 H4195 0.960 . S
C4208 C4207 1.524 . S
C4209 C4206 1.403 . S
C4209 C4210 1.392 . S
C4209 C4213 1.495 . S
C4210 C4209 1.392 . S
C4210 C4211 1.385 . S
C4210 C4212 1.478 . S
C4211 H4205 0.930 . S
C4211 C4207 1.400 . S
C4211 C4210 1.385 . S
C4212 C4210 1.478 . S
C4212 C4214 1.381 . S
C4212 C4218 1.383 . S
C4213 C4209 1.495 . S
C4213 H4219 0.959 . S
C4213 H4220 0.961 . S
C4213 H4221 0.960 . S
C4214 C4212 1.381 . S
C4214 C4215 1.394 . S
C4214 H4222 0.930 . S
C4215 C4214 1.394 . S
C4215 C4216 1.383 . S
C4215 H4223 0.929 . S
C4216 C4215 1.383 . S
C4216 C4217 1.377 . S
C4217 H4201 0.930 . S
C4217 C4216 1.377 . S
C4217 C4218 1.379 . S
C4218 H4202 0.931 . S
C4218 C4212 1.383 . S
C4218 C4217 1.379 . S
H4219 C4213 0.959 . S
H4220 C4213 0.961 . S
H4221 C4213 0.960 . S
H4222 C4214 0.930 . S
H4223 C4215 0.929 . S
H4224 C4232 0.929 . S
H4225 C4234 0.930 . S
H4226 C4236 0.930 . S
H4227 C4239 0.929 . S
H4228 C4242 0.930 . S
H4229 C4244 0.960 . S
H4230 C4244 0.960 . S
H4231 C4244 0.960 . S
C4232 H4224 0.929 . S
C4232 C4233 1.377 . S
C4232 C4234 1.384 . S
C4233 C4232 1.377 . S
C4233 C4239 1.390 . S
C4234 H4225 0.930 . S
C4234 C4232 1.384 . S
C4234 C4235 1.372 . S
C4235 C4234 1.372 . S
C4235 C4236 1.400 . S
C4235 C4240 1.490 . S
C4236 H4226 0.930 . S
C4236 C4235 1.400 . S
C4236 C4239 1.386 . S
H4237 C4253 0.930 . S
H4238 C4254 0.931 . S
C4239 H4227 0.929 . S
C4239 C4233 1.390 . S
C4239 C4236 1.386 . S
C4240 C4235 1.490 . S
C4240 C4242 1.395 . S
C4240 C4243 1.403 . S
H4241 C4247 0.930 . S
C4242 H4228 0.930 . S
C4242 C4240 1.395 . S
C4242 C4245 1.403 . S
C4243 C4240 1.403 . S
C4243 C4244 1.524 . S
C4243 C4247 1.400 . S
C4244 H4229 0.960 . S
C4244 H4230 0.960 . S
C4244 H4231 0.960 . S
C4244 C4243 1.524 . S
C4245 C4242 1.403 . S
C4245 C4246 1.392 . S
C4245 C4249 1.495 . S
C4246 C4245 1.392 . S
C4246 C4247 1.385 . S
C4246 C4248 1.478 . S
C4247 H4241 0.930 . S
C4247 C4243 1.400 . S
C4247 C4246 1.385 . S
C4248 C4246 1.478 . S
C4248 C4250 1.381 . S
C4248 C4254 1.383 . S
C4249 C4245 1.495 . S
C4249 H4255 0.959 . S
C4249 H4256 0.961 . S
C4249 H4257 0.960 . S
C4250 C4248 1.381 . S
C4250 C4251 1.394 . S
C4250 H4258 0.930 . S
C4251 C4250 1.394 . S
C4251 C4252 1.383 . S
C4251 H4259 0.929 . S
C4252 C4251 1.383 . S
C4252 C4253 1.377 . S
C4253 H4237 0.930 . S
C4253 C4252 1.377 . S
C4253 C4254 1.379 . S
C4254 H4238 0.931 . S
C4254 C4248 1.383 . S
C4254 C4253 1.379 . S
H4255 C4249 0.959 . S
H4256 C4249 0.961 . S
H4257 C4249 0.960 . S
H4258 C4250 0.930 . S
H4259 C4251 0.929 . S
H4260 C4268 0.929 . S
H4261 C4270 0.930 . S
H4262 C4272 0.930 . S
H4263 C4275 0.929 . S
H4264 C4278 0.930 . S
H4265 C4280 0.960 . S
H4266 C4280 0.960 . S
H4267 C4280 0.960 . S
C4268 H4260 0.929 . S
C4268 C4269 1.377 . S
C4268 C4270 1.384 . S
C4269 C4268 1.377 . S
C4269 C4275 1.390 . S
C4270 H4261 0.930 . S
C4270 C4268 1.384 . S
C4270 C4271 1.372 . S
C4271 C4270 1.372 . S
C4271 C4272 1.400 . S
C4271 C4276 1.490 . S
C4272 H4262 0.930 . S
C4272 C4271 1.400 . S
C4272 C4275 1.386 . S
H4273 C4289 0.930 . S
H4274 C4290 0.931 . S
C4275 H4263 0.929 . S
C4275 C4269 1.390 . S
C4275 C4272 1.386 . S
C4276 C4271 1.490 . S
C4276 C4278 1.395 . S
C4276 C4279 1.403 . S
H4277 C4283 0.930 . S
C4278 H4264 0.930 . S
C4278 C4276 1.395 . S
C4278 C4281 1.403 . S
C4279 C4276 1.403 . S
C4279 C4280 1.524 . S
C4279 C4283 1.400 . S
C4280 H4265 0.960 . S
C4280 H4266 0.960 . S
C4280 H4267 0.960 . S
C4280 C4279 1.524 . S
C4281 C4278 1.403 . S
C4281 C4282 1.392 . S
C4281 C4285 1.495 . S
C4282 C4281 1.392 . S
C4282 C4283 1.385 . S
C4282 C4284 1.478 . S
C4283 H4277 0.930 . S
C4283 C4279 1.400 . S
C4283 C4282 1.385 . S
C4284 C4282 1.478 . S
C4284 C4286 1.381 . S
C4284 C4290 1.383 . S
C4285 C4281 1.495 . S
C4285 H4291 0.959 . S
C4285 H4292 0.961 . S
C4285 H4293 0.960 . S
C4286 C4284 1.381 . S
C4286 C4287 1.394 . S
C4286 H4294 0.930 . S
C4287 C4286 1.394 . S
C4287 C4288 1.383 . S
C4287 H4295 0.929 . S
C4288 C4287 1.383 . S
C4288 C4289 1.377 . S
C4289 H4273 0.930 . S
C4289 C4288 1.377 . S
C4289 C4290 1.379 . S
C4290 H4274 0.931 . S
C4290 C4284 1.383 . S
C4290 C4289 1.379 . S
H4291 C4285 0.959 . S
H4292 C4285 0.961 . S
H4293 C4285 0.960 . S
H4294 C4286 0.930 . S
H4295 C4287 0.929 . S
H4296 C4304 0.929 . S
H4297 C4306 0.930 . S
H4298 C4308 0.930 . S
H4299 C4311 0.929 . S
H4300 C4314 0.930 . S
H4301 C4316 0.960 . S
H4302 C4316 0.960 . S
H4303 C4316 0.960 . S
C4304 H4296 0.929 . S
C4304 C4305 1.377 . S
C4304 C4306 1.384 . S
C4305 C4304 1.377 . S
C4305 C4311 1.390 . S
C4306 H4297 0.930 . S
C4306 C4304 1.384 . S
C4306 C4307 1.372 . S
C4307 C4306 1.372 . S
C4307 C4308 1.400 . S
C4307 C4312 1.490 . S
C4308 H4298 0.930 . S
C4308 C4307 1.400 . S
C4308 C4311 1.386 . S
H4309 C4325 0.930 . S
H4310 C4326 0.931 . S
C4311 H4299 0.929 . S
C4311 C4305 1.390 . S
C4311 C4308 1.386 . S
C4312 C4307 1.490 . S
C4312 C4314 1.395 . S
C4312 C4315 1.403 . S
H4313 C4319 0.930 . S
C4314 H4300 0.930 . S
C4314 C4312 1.395 . S
C4314 C4317 1.403 . S
C4315 C4312 1.403 . S
C4315 C4316 1.524 . S
C4315 C4319 1.400 . S
C4316 H4301 0.960 . S
C4316 H4302 0.960 . S
C4316 H4303 0.960 . S
C4316 C4315 1.524 . S
C4317 C4314 1.403 . S
C4317 C4318 1.392 . S
C4317 C4321 1.495 . S
C4318 C4317 1.392 . S
C4318 C4319 1.385 . S
C4318 C4320 1.478 . S
C4319 H4313 0.930 . S
C4319 C4315 1.400 . S
C4319 C4318 1.385 . S
C4320 C4318 1.478 . S
C4320 C4322 1.381 . S
C4320 C4326 1.383 . S
C4321 C4317 1.495 . S
C4321 H4327 0.959 . S
C4321 H4328 0.961 . S
C4321 H4329 0.960 . S
C4322 C4320 1.381 . S
C4322 C4323 1.394 . S
C4322 H4330 0.930 . S
C4323 C4322 1.394 . S
C4323 C4324 1.383 . S
C4323 H4331 0.929 . S
C4324 C4323 1.383 . S
C4324 C4325 1.377 . S
C4325 H4309 0.930 . S
C4325 C4324 1.377 . S
C4325 C4326 1.379 . S
C4326 H4310 0.931 . S
C4326 C4320 1.383 . S
C4326 C4325 1.379 . S
H4327 C4321 0.959 . S
H4328 C4321 0.961 . S
H4329 C4321 0.960 . S
H4330 C4322 0.930 . S
H4331 C4323 0.929 . S
H4332 C4340 0.929 . S
H4333 C4342 0.930 . S
H4334 C4344 0.930 . S
H4335 C4347 0.929 . S
H4336 C4350 0.930 . S
H4337 C4352 0.960 . S
H4338 C4352 0.960 . S
H4339 C4352 0.960 . S
C4340 H4332 0.929 . S
C4340 C4341 1.377 . S
C4340 C4342 1.384 . S
C4341 C4340 1.377 . S
C4341 C4347 1.390 . S
C4342 H4333 0.930 . S
C4342 C4340 1.384 . S
C4342 C4343 1.372 . S
C4343 C4342 1.372 . S
C4343 C4344 1.400 . S
C4343 C4348 1.490 . S
C4344 H4334 0.930 . S
C4344 C4343 1.400 . S
C4344 C4347 1.386 . S
H4345 C4361 0.930 . S
H4346 C4362 0.931 . S
C4347 H4335 0.929 . S
C4347 C4341 1.390 . S
C4347 C4344 1.386 . S
C4348 C4343 1.490 . S
C4348 C4350 1.395 . S
C4348 C4351 1.403 . S
H4349 C4355 0.930 . S
C4350 H4336 0.930 . S
C4350 C4348 1.395 . S
C4350 C4353 1.403 . S
C4351 C4348 1.403 . S
C4351 C4352 1.524 . S
C4351 C4355 1.400 . S
C4352 H4337 0.960 . S
C4352 H4338 0.960 . S
C4352 H4339 0.960 . S
C4352 C4351 1.524 . S
C4353 C4350 1.403 . S
C4353 C4354 1.392 . S
C4353 C4357 1.495 . S
C4354 C4353 1.392 . S
C4354 C4355 1.385 . S
C4354 C4356 1.478 . S
C4355 H4349 0.930 . S
C4355 C4351 1.400 . S
C4355 C4354 1.385 . S
C4356 C4354 1.478 . S
C4356 C4358 1.381 . S
C4356 C4362 1.383 . S
C4357 C4353 1.495 . S
C4357 H4363 0.959 . S
C4357 H4364 0.961 . S
C4357 H4365 0.960 . S
C4358 C4356 1.381 . S
C4358 C4359 1.394 . S
C4358 H4366 0.930 . S
C4359 C4358 1.394 . S
C4359 C4360 1.383 . S
C4359 H4367 0.929 . S
C4360 C4359 1.383 . S
C4360 C4361 1.377 . S
C4361 H4345 0.930 . S
C4361 C4360 1.377 . S
C4361 C4362 1.379 . S
C4362 H4346 0.931 . S
C4362 C4356 1.383 . S
C4362 C4361 1.379 . S
H4363 C4357 0.959 . S
H4364 C4357 0.961 . S
H4365 C4357 0.960 . S
H4366 C4358 0.930 . S
H4367 C4359 0.929 . S
H4368 C4376 0.929 . S
H4369 C4378 0.930 . S
H4370 C4380 0.930 . S
H4371 C4383 0.929 . S
H4372 C4386 0.930 . S
H4373 C4388 0.960 . S
H4374 C4388 0.960 . S
H4375 C4388 0.960 . S
C4376 H4368 0.929 . S
C4376 C4377 1.377 . S
C4376 C4378 1.384 . S
C4377 C4376 1.377 . S
C4377 C4383 1.390 . S
C4378 H4369 0.930 . S
C4378 C4376 1.384 . S
C4378 C4379 1.372 . S
C4379 C4378 1.372 . S
C4379 C4380 1.400 . S
C4379 C4384 1.490 . S
C4380 H4370 0.930 . S
C4380 C4379 1.400 . S
C4380 C4383 1.386 . S
H4381 C4397 0.930 . S
H4382 C4398 0.931 . S
C4383 H4371 0.929 . S
C4383 C4377 1.390 . S
C4383 C4380 1.386 . S
C4384 C4379 1.490 . S
C4384 C4386 1.395 . S
C4384 C4387 1.403 . S
H4385 C4391 0.930 . S
C4386 H4372 0.930 . S
C4386 C4384 1.395 . S
C4386 C4389 1.403 . S
C4387 C4384 1.403 . S
C4387 C4388 1.524 . S
C4387 C4391 1.400 . S
C4388 H4373 0.960 . S
C4388 H4374 0.960 . S
C4388 H4375 0.960 . S
C4388 C4387 1.524 . S
C4389 C4386 1.403 . S
C4389 C4390 1.392 . S
C4389 C4393 1.495 . S
C4390 C4389 1.392 . S
C4390 C4391 1.385 . S
C4390 C4392 1.478 . S
C4391 H4385 0.930 . S
C4391 C4387 1.400 . S
C4391 C4390 1.385 . S
C4392 C4390 1.478 . S
C4392 C4394 1.381 . S
C4392 C4398 1.383 . S
C4393 C4389 1.495 . S
C4393 H4399 0.959 . S
C4393 H4400 0.961 . S
C4393 H4401 0.960 . S
C4394 C4392 1.381 . S
C4394 C4395 1.394 . S
C4394 H4402 0.930 . S
C4395 C4394 1.394 . S
C4395 C4396 1.383 . S
C4395 H4403 0.929 . S
C4396 C4395 1.383 . S
C4396 C4397 1.377 . S
C4397 H4381 0.930 . S
C4397 C4396 1.377 . S
C4397 C4398 1.379 . S
C4398 H4382 0.931 . S
C4398 C4392 1.383 . S
C4398 C4397 1.379 . S
H4399 C4393 0.959 . S
H4400 C4393 0.961 . S
H4401 C4393 0.960 . S
H4402 C4394 0.930 . S
H4403 C4395 0.929 . S
H4404 C4412 0.929 . S
H4405 C4414 0.930 . S
H4406 C4416 0.930 . S
H4407 C4419 0.929 . S
H4408 C4422 0.930 . S
H4409 C4424 0.960 . S
H4410 C4424 0.960 . S
H4411 C4424 0.960 . S
C4412 H4404 0.929 . S
C4412 C4413 1.377 . S
C4412 C4414 1.384 . S
C4413 C4412 1.377 . S
C4413 C4419 1.390 . S
C4414 H4405 0.930 . S
C4414 C4412 1.384 . S
C4414 C4415 1.372 . S
C4415 C4414 1.372 . S
C4415 C4416 1.400 . S
C4415 C4420 1.490 . S
C4416 H4406 0.930 . S
C4416 C4415 1.400 . S
C4416 C4419 1.386 . S
H4417 C4433 0.930 . S
H4418 C4434 0.931 . S
C4419 H4407 0.929 . S
C4419 C4413 1.390 . S
C4419 C4416 1.386 . S
C4420 C4415 1.490 . S
C4420 C4422 1.395 . S
C4420 C4423 1.403 . S
H4421 C4427 0.930 . S
C4422 H4408 0.930 . S
C4422 C4420 1.395 . S
C4422 C4425 1.403 . S
C4423 C4420 1.403 . S
C4423 C4424 1.524 . S
C4423 C4427 1.400 . S
C4424 H4409 0.960 . S
C4424 H4410 0.960 . S
C4424 H4411 0.960 . S
C4424 C4423 1.524 . S
C4425 C4422 1.403 . S
C4425 C4426 1.392 . S
C4425 C4429 1.495 . S
C4426 C4425 1.392 . S
C4426 C4427 1.385 . S
C4426 C4428 1.478 . S
C4427 H4421 0.930 . S
C4427 C4423 1.400 . S
C4427 C4426 1.385 . S
C4428 C4426 1.478 . S
C4428 C4430 1.381 . S
C4428 C4434 1.383 . S
C4429 C4425 1.495 . S
C4429 H4435 0.959 . S
C4429 H4436 0.961 . S
C4429 H4437 0.960 . S
C4430 C4428 1.381 . S
C4430 C4431 1.394 . S
C4430 H4438 0.930 . S
C4431 C4430 1.394 . S
C4431 C4432 1.383 . S
C4431 H4439 0.929 . S
C4432 C4431 1.383 . S
C4432 C4433 1.377 . S
C4433 H4417 0.930 . S
C4433 C4432 1.377 . S
C4433 C4434 1.379 . S
C4434 H4418 0.931 . S
C4434 C4428 1.383 . S
C4434 C4433 1.379 . S
H4435 C4429 0.959 . S
H4436 C4429 0.961 . S
H4437 C4429 0.960 . S
H4438 C4430 0.930 . S
H4439 C4431 0.929 . S
H4440 C4448 0.929 . S
H4441 C4450 0.930 . S
H4442 C4452 0.930 . S
H4443 C4455 0.929 . S
H4444 C4458 0.930 . S
H4445 C4460 0.960 . S
H4446 C4460 0.960 . S
H4447 C4460 0.960 . S
C4448 H4440 0.929 . S
C4448 C4449 1.377 . S
C4448 C4450 1.384 . S
C4449 C4448 1.377 . S
C4449 C4455 1.390 . S
C4450 H4441 0.930 . S
C4450 C4448 1.384 . S
C4450 C4451 1.372 . S
C4451 C4450 1.372 . S
C4451 C4452 1.400 . S
C4451 C4456 1.490 . S
C4452 H4442 0.930 . S
C4452 C4451 1.400 . S
C4452 C4455 1.386 . S
H4453 C4469 0.930 . S
H4454 C4470 0.931 . S
C4455 H4443 0.929 . S
C4455 C4449 1.390 . S
C4455 C4452 1.386 . S
C4456 C4451 1.490 . S
C4456 C4458 1.395 . S
C4456 C4459 1.403 . S
H4457 C4463 0.930 . S
C4458 H4444 0.930 . S
C4458 C4456 1.395 . S
C4458 C4461 1.403 . S
C4459 C4456 1.403 . S
C4459 C4460 1.524 . S
C4459 C4463 1.400 . S
C4460 H4445 0.960 . S
C4460 H4446 0.960 . S
C4460 H4447 0.960 . S
C4460 C4459 1.524 . S
C4461 C4458 1.403 . S
C4461 C4462 1.392 . S
C4461 C4465 1.495 . S
C4462 C4461 1.392 . S
C4462 C4463 1.385 . S
C4462 C4464 1.478 . S
C4463 H4457 0.930 . S
C4463 C4459 1.400 . S
C4463 C4462 1.385 . S
C4464 C4462 1.478 . S
C4464 C4466 1.381 . S
C4464 C4470 1.383 . S
C4465 C4461 1.495 . S
C4465 H4471 0.959 . S
C4465 H4472 0.961 . S
C4465 H4473 0.960 . S
C4466 C4464 1.381 . S
C4466 C4467 1.394 . S
C4466 H4474 0.930 . S
C4467 C4466 1.394 . S
C4467 C4468 1.383 . S
C4467 H4475 0.929 . S
C4468 C4467 1.383 . S
C4468 C4469 1.377 . S
C4469 H4453 0.930 . S
C4469 C4468 1.377 . S
C4469 C4470 1.379 . S
C4470 H4454 0.931 . S
C4470 C4464 1.383 . S
C4470 C4469 1.379 . S
H4471 C4465 0.959 . S
H4472 C4465 0.961 . S
H4473 C4465 0.960 . S
H4474 C4466 0.930 . S
H4475 C4467 0.929 . S
H4476 C4484 0.929 . S
H4477 C4486 0.930 . S
H4478 C4488 0.930 . S
H4479 C4491 0.929 . S
H4480 C4494 0.930 . S
H4481 C4496 0.960 . S
H4482 C4496 0.960 . S
H4483 C4496 0.960 . S
C4484 H4476 0.929 . S
C4484 C4485 1.377 . S
C4484 C4486 1.384 . S
C4485 C4484 1.377 . S
C4485 C4491 1.390 . S
C4486 H4477 0.930 . S
C4486 C4484 1.384 . S
C4486 C4487 1.372 . S
C4487 C4486 1.372 . S
C4487 C4488 1.400 . S
C4487 C4492 1.490 . S
C4488 H4478 0.930 . S
C4488 C4487 1.400 . S
C4488 C4491 1.386 . S
H4489 C4505 0.930 . S
H4490 C4506 0.931 . S
C4491 H4479 0.929 . S
C4491 C4485 1.390 . S
C4491 C4488 1.386 . S
C4492 C4487 1.490 . S
C4492 C4494 1.395 . S
C4492 C4495 1.403 . S
H4493 C4499 0.930 . S
C4494 H4480 0.930 . S
C4494 C4492 1.395 . S
C4494 C4497 1.403 . S
C4495 C4492 1.403 . S
C4495 C4496 1.524 . S
C4495 C4499 1.400 . S
C4496 H4481 0.960 . S
C4496 H4482 0.960 . S
C4496 H4483 0.960 . S
C4496 C4495 1.524 . S
C4497 C4494 1.403 . S
C4497 C4498 1.392 . S
C4497 C4501 1.495 . S
C4498 C4497 1.392 . S
C4498 C4499 1.385 . S
C4498 C4500 1.478 . S
C4499 H4493 0.930 . S
C4499 C4495 1.400 . S
C4499 C4498 1.385 . S
C4500 C4498 1.478 . S
C4500 C4502 1.381 . S
C4500 C4506 1.383 . S
C4501 C4497 1.495 . S
C4501 H4507 0.959 . S
C4501 H4508 0.961 . S
C4501 H4509 0.960 . S
C4502 C4500 1.381 . S
C4502 C4503 1.394 . S
C4502 H4510 0.930 . S
C4503 C4502 1.394 . S
C4503 C4504 1.383 . S
C4503 H4511 0.929 . S
C4504 C4503 1.383 . S
C4504 C4505 1.377 . S
C4505 H4489 0.930 . S
C4505 C4504 1.377 . S
C4505 C4506 1.379 . S
C4506 H4490 0.931 . S
C4506 C4500 1.383 . S
C4506 C4505 1.379 . S
H4507 C4501 0.959 . S
H4508 C4501 0.961 . S
H4509 C4501 0.960 . S
H4510 C4502 0.930 . S
H4511 C4503 0.929 . S
H4512 C4520 0.929 . S
H4513 C4522 0.930 . S
H4514 C4524 0.930 . S
H4515 C4527 0.929 . S
H4516 C4530 0.930 . S
H4517 C4532 0.960 . S
H4518 C4532 0.960 . S
H4519 C4532 0.960 . S
C4520 H4512 0.929 . S
C4520 C4521 1.377 . S
C4520 C4522 1.384 . S
C4521 C4520 1.377 . S
C4521 C4527 1.390 . S
C4522 H4513 0.930 . S
C4522 C4520 1.384 . S
C4522 C4523 1.372 . S
C4523 C4522 1.372 . S
C4523 C4524 1.400 . S
C4523 C4528 1.490 . S
C4524 H4514 0.930 . S
C4524 C4523 1.400 . S
C4524 C4527 1.386 . S
H4525 C4541 0.930 . S
H4526 C4542 0.931 . S
C4527 H4515 0.929 . S
C4527 C4521 1.390 . S
C4527 C4524 1.386 . S
C4528 C4523 1.490 . S
C4528 C4530 1.395 . S
C4528 C4531 1.403 . S
H4529 C4535 0.930 . S
C4530 H4516 0.930 . S
C4530 C4528 1.395 . S
C4530 C4533 1.403 . S
C4531 C4528 1.403 . S
C4531 C4532 1.524 . S
C4531 C4535 1.400 . S
C4532 H4517 0.960 . S
C4532 H4518 0.960 . S
C4532 H4519 0.960 . S
C4532 C4531 1.524 . S
C4533 C4530 1.403 . S
C4533 C4534 1.392 . S
C4533 C4537 1.495 . S
C4534 C4533 1.392 . S
C4534 C4535 1.385 . S
C4534 C4536 1.478 . S
C4535 H4529 0.930 . S
C4535 C4531 1.400 . S
C4535 C4534 1.385 . S
C4536 C4534 1.478 . S
C4536 C4538 1.381 . S
C4536 C4542 1.383 . S
C4537 C4533 1.495 . S
C4537 H4543 0.959 . S
C4537 H4544 0.961 . S
C4537 H4545 0.960 . S
C4538 C4536 1.381 . S
C4538 C4539 1.394 . S
C4538 H4546 0.930 . S
C4539 C4538 1.394 . S
C4539 C4540 1.383 . S
C4539 H4547 0.929 . S
C4540 C4539 1.383 . S
C4540 C4541 1.377 . S
C4541 H4525 0.930 . S
C4541 C4540 1.377 . S
C4541 C4542 1.379 . S
C4542 H4526 0.931 . S
C4542 C4536 1.383 . S
C4542 C4541 1.379 . S
H4543 C4537 0.959 . S
H4544 C4537 0.961 . S
H4545 C4537 0.960 . S
H4546 C4538 0.930 . S
H4547 C4539 0.929 . S
H4548 C4556 0.929 . S
H4549 C4558 0.930 . S
H4550 C4560 0.930 . S
H4551 C4563 0.929 . S
H4552 C4566 0.930 . S
H4553 C4568 0.960 . S
H4554 C4568 0.960 . S
H4555 C4568 0.960 . S
C4556 H4548 0.929 . S
C4556 C4557 1.377 . S
C4556 C4558 1.384 . S
C4557 C4556 1.377 . S
C4557 C4563 1.390 . S
C4558 H4549 0.930 . S
C4558 C4556 1.384 . S
C4558 C4559 1.372 . S
C4559 C4558 1.372 . S
C4559 C4560 1.400 . S
C4559 C4564 1.490 . S
C4560 H4550 0.930 . S
C4560 C4559 1.400 . S
C4560 C4563 1.386 . S
H4561 C4577 0.930 . S
H4562 C4578 0.931 . S
C4563 H4551 0.929 . S
C4563 C4557 1.390 . S
C4563 C4560 1.386 . S
C4564 C4559 1.490 . S
C4564 C4566 1.395 . S
C4564 C4567 1.403 . S
H4565 C4571 0.930 . S
C4566 H4552 0.930 . S
C4566 C4564 1.395 . S
C4566 C4569 1.403 . S
C4567 C4564 1.403 . S
C4567 C4568 1.524 . S
C4567 C4571 1.400 . S
C4568 H4553 0.960 . S
C4568 H4554 0.960 . S
C4568 H4555 0.960 . S
C4568 C4567 1.524 . S
C4569 C4566 1.403 . S
C4569 C4570 1.392 . S
C4569 C4573 1.495 . S
C4570 C4569 1.392 . S
C4570 C4571 1.385 . S
C4570 C4572 1.478 . S
C4571 H4565 0.930 . S
C4571 C4567 1.400 . S
C4571 C4570 1.385 . S
C4572 C4570 1.478 . S
C4572 C4574 1.381 . S
C4572 C4578 1.383 . S
C4573 C4569 1.495 . S
C4573 H4579 0.959 . S
C4573 H4580 0.961 . S
C4573 H4581 0.960 . S
C4574 C4572 1.381 . S
C4574 C4575 1.394 . S
C4574 H4582 0.930 . S
C4575 C4574 1.394 . S
C4575 C4576 1.383 . S
C4575 H4583 0.929 . S
C4576 C4575 1.383 . S
C4576 C4577 1.377 . S
C4577 H4561 0.930 . S
C4577 C4576 1.377 . S
C4577 C4578 1.379 . S
C4578 H4562 0.931 . S
C4578 C4572 1.383 . S
C4578 C4577 1.379 . S
H4579 C4573 0.959 . S
H4580 C4573 0.961 . S
H4581 C4573 0.960 . S
H4582 C4574 0.930 . S
H4583 C4575 0.929 . S
H4584 C4592 0.929 . S
H4585 C4594 0.930 . S
H4586 C4596 0.930 . S
H4587 C4599 0.929 . S
H4588 C4602 0.930 . S
H4589 C4604 0.960 . S
H4590 C4604 0.960 . S
H4591 C4604 0.960 . S
C4592 H4584 0.929 . S
C4592 C4593 1.377 . S
C4592 C4594 1.384 . S
C4593 C4592 1.377 . S
C4593 C4599 1.390 . S
C4594 H4585 0.930 . S
C4594 C4592 1.384 . S
C4594 C4595 1.372 . S
C4595 C4594 1.372 . S
C4595 C4596 1.400 . S
C4595 C4600 1.490 . S
C4596 H4586 0.930 . S
C4596 C4595 1.400 . S
C4596 C4599 1.386 . S
H4597 C4613 0.930 . S
H4598 C4614 0.931 . S
C4599 H4587 0.929 . S
C4599 C4593 1.390 . S
C4599 C4596 1.386 . S
C4600 C4595 1.490 . S
C4600 C4602 1.395 . S
C4600 C4603 1.403 . S
H4601 C4607 0.930 . S
C4602 H4588 0.930 . S
C4602 C4600 1.395 . S
C4602 C4605 1.403 . S
C4603 C4600 1.403 . S
C4603 C4604 1.524 . S
C4603 C4607 1.400 . S
C4604 H4589 0.960 . S
C4604 H4590 0.960 . S
C4604 H4591 0.960 . S
C4604 C4603 1.524 . S
C4605 C4602 1.403 . S
C4605 C4606 1.392 . S
C4605 C4609 1.495 . S
C4606 C4605 1.392 . S
C4606 C4607 1.385 . S
C4606 C4608 1.478 . S
C4607 H4601 0.930 . S
C4607 C4603 1.400 . S
C4607 C4606 1.385 . S
C4608 C4606 1.478 . S
C4608 C4610 1.381 . S
C4608 C4614 1.383 . S
C4609 C4605 1.495 . S
C4609 H4615 0.959 . S
C4609 H4616 0.961 . S
C4609 H4617 0.960 . S
C4610 C4608 1.381 . S
C4610 C4611 1.394 . S
C4610 H4618 0.930 . S
C4611 C4610 1.394 . S
C4611 C4612 1.383 . S
C4611 H4619 0.929 . S
C4612 C4611 1.383 . S
C4612 C4613 1.377 . S
C4613 H4597 0.930 . S
C4613 C4612 1.377 . S
C4613 C4614 1.379 . S
C4614 H4598 0.931 . S
C4614 C4608 1.383 . S
C4614 C4613 1.379 . S
H4615 C4609 0.959 . S
H4616 C4609 0.961 . S
H4617 C4609 0.960 . S
H4618 C4610 0.930 . S
H4619 C4611 0.929 . S
H4620 C4628 0.929 . S
H4621 C4630 0.930 . S
H4622 C4632 0.930 . S
H4623 C4635 0.929 . S
H4624 C4638 0.930 . S
H4625 C4640 0.960 . S
H4626 C4640 0.960 . S
H4627 C4640 0.960 . S
C4628 H4620 0.929 . S
C4628 C4629 1.377 . S
C4628 C4630 1.384 . S
C4629 C4628 1.377 . S
C4629 C4635 1.390 . S
C4630 H4621 0.930 . S
C4630 C4628 1.384 . S
C4630 C4631 1.372 . S
C4631 C4630 1.372 . S
C4631 C4632 1.400 . S
C4631 C4636 1.490 . S
C4632 H4622 0.930 . S
C4632 C4631 1.400 . S
C4632 C4635 1.386 . S
H4633 C4649 0.930 . S
H4634 C4650 0.931 . S
C4635 H4623 0.929 . S
C4635 C4629 1.390 . S
C4635 C4632 1.386 . S
C4636 C4631 1.490 . S
C4636 C4638 1.395 . S
C4636 C4639 1.403 . S
H4637 C4643 0.930 . S
C4638 H4624 0.930 . S
C4638 C4636 1.395 . S
C4638 C4641 1.403 . S
C4639 C4636 1.403 . S
C4639 C4640 1.524 . S
C4639 C4643 1.400 . S
C4640 H4625 0.960 . S
C4640 H4626 0.960 . S
C4640 H4627 0.960 . S
C4640 C4639 1.524 . S
C4641 C4638 1.403 . S
C4641 C4642 1.392 . S
C4641 C4645 1.495 . S
C4642 C4641 1.392 . S
C4642 C4643 1.385 . S
C4642 C4644 1.478 . S
C4643 H4637 0.930 . S
C4643 C4639 1.400 . S
C4643 C4642 1.385 . S
C4644 C4642 1.478 . S
C4644 C4646 1.381 . S
C4644 C4650 1.383 . S
C4645 C4641 1.495 . S
C4645 H4651 0.959 . S
C4645 H4652 0.961 . S
C4645 H4653 0.960 . S
C4646 C4644 1.381 . S
C4646 C4647 1.394 . S
C4646 H4654 0.930 . S
C4647 C4646 1.394 . S
C4647 C4648 1.383 . S
C4647 H4655 0.929 . S
C4648 C4647 1.383 . S
C4648 C4649 1.377 . S
C4649 H4633 0.930 . S
C4649 C4648 1.377 . S
C4649 C4650 1.379 . S
C4650 H4634 0.931 . S
C4650 C4644 1.383 . S
C4650 C4649 1.379 . S
H4651 C4645 0.959 . S
H4652 C4645 0.961 . S
H4653 C4645 0.960 . S
H4654 C4646 0.930 . S
H4655 C4647 0.929 . S
H4656 C4664 0.929 . S
H4657 C4666 0.930 . S
H4658 C4668 0.930 . S
H4659 C4671 0.929 . S
H4660 C4674 0.930 . S
H4661 C4676 0.960 . S
H4662 C4676 0.960 . S
H4663 C4676 0.960 . S
C4664 H4656 0.929 . S
C4664 C4665 1.377 . S
C4664 C4666 1.384 . S
C4665 C4664 1.377 . S
C4665 C4671 1.390 . S
C4666 H4657 0.930 . S
C4666 C4664 1.384 . S
C4666 C4667 1.372 . S
C4667 C4666 1.372 . S
C4667 C4668 1.400 . S
C4667 C4672 1.490 . S
C4668 H4658 0.930 . S
C4668 C4667 1.400 . S
C4668 C4671 1.386 . S
H4669 C4685 0.930 . S
H4670 C4686 0.931 . S
C4671 H4659 0.929 . S
C4671 C4665 1.390 . S
C4671 C4668 1.386 . S
C4672 C4667 1.490 . S
C4672 C4674 1.395 . S
C4672 C4675 1.403 . S
H4673 C4679 0.930 . S
C4674 H4660 0.930 . S
C4674 C4672 1.395 . S
C4674 C4677 1.403 . S
C4675 C4672 1.403 . S
C4675 C4676 1.524 . S
C4675 C4679 1.400 . S
C4676 H4661 0.960 . S
C4676 H4662 0.960 . S
C4676 H4663 0.960 . S
C4676 C4675 1.524 . S
C4677 C4674 1.403 . S
C4677 C4678 1.392 . S
C4677 C4681 1.495 . S
C4678 C4677 1.392 . S
C4678 C4679 1.385 . S
C4678 C4680 1.478 . S
C4679 H4673 0.930 . S
C4679 C4675 1.400 . S
C4679 C4678 1.385 . S
C4680 C4678 1.478 . S
C4680 C4682 1.381 . S
C4680 C4686 1.383 . S
C4681 C4677 1.495 . S
C4681 H4687 0.959 . S
C4681 H4688 0.961 . S
C4681 H4689 0.960 . S
C4682 C4680 1.381 . S
C4682 C4683 1.394 . S
C4682 H4690 0.930 . S
C4683 C4682 1.394 . S
C4683 C4684 1.383 . S
C4683 H4691 0.929 . S
C4684 C4683 1.383 . S
C4684 C4685 1.377 . S
C4685 H4669 0.930 . S
C4685 C4684 1.377 . S
C4685 C4686 1.379 . S
C4686 H4670 0.931 . S
C4686 C4680 1.383 . S
C4686 C4685 1.379 . S
H4687 C4681 0.959 . S
H4688 C4681 0.961 . S
H4689 C4681 0.960 . S
H4690 C4682 0.930 . S
H4691 C4683 0.929 . S
H4692 C4700 0.929 . S
H4693 C4702 0.930 . S
H4694 C4704 0.930 . S
H4695 C4707 0.929 . S
H4696 C4710 0.930 . S
H4697 C4712 0.960 . S
H4698 C4712 0.960 . S
H4699 C4712 0.960 . S
C4700 H4692 0.929 . S
C4700 C4701 1.377 . S
C4700 C4702 1.384 . S
C4701 C4700 1.377 . S
C4701 C4707 1.390 . S
C4702 H4693 0.930 . S
C4702 C4700 1.384 . S
C4702 C4703 1.372 . S
C4703 C4702 1.372 . S
C4703 C4704 1.400 . S
C4703 C4708 1.490 . S
C4704 H4694 0.930 . S
C4704 C4703 1.400 . S
C4704 C4707 1.386 . S
H4705 C4721 0.930 . S
H4706 C4722 0.931 . S
C4707 H4695 0.929 . S
C4707 C4701 1.390 . S
C4707 C4704 1.386 . S
C4708 C4703 1.490 . S
C4708 C4710 1.395 . S
C4708 C4711 1.403 . S
H4709 C4715 0.930 . S
C4710 H4696 0.930 . S
C4710 C4708 1.395 . S
C4710 C4713 1.403 . S
C4711 C4708 1.403 . S
C4711 C4712 1.524 . S
C4711 C4715 1.400 . S
C4712 H4697 0.960 . S
C4712 H4698 0.960 . S
C4712 H4699 0.960 . S
C4712 C4711 1.524 . S
C4713 C4710 1.403 . S
C4713 C4714 1.392 . S
C4713 C4717 1.495 . S
C4714 C4713 1.392 . S
C4714 C4715 1.385 . S
C4714 C4716 1.478 . S
C4715 H4709 0.930 . S
C4715 C4711 1.400 . S
C4715 C4714 1.385 . S
C4716 C4714 1.478 . S
C4716 C4718 1.381 . S
C4716 C4722 1.383 . S
C4717 C4713 1.495 . S
C4717 H4723 0.959 . S
C4717 H4724 0.961 . S
C4717 H4725 0.960 . S
C4718 C4716 1.381 . S
C4718 C4719 1.394 . S
C4718 H4726 0.930 . S
C4719 C4718 1.394 . S
C4719 C4720 1.383 . S
C4719 H4727 0.929 . S
C4720 C4719 1.383 . S
C4720 C4721 1.377 . S
C4721 H4705 0.930 . S
C4721 C4720 1.377 . S
C4721 C4722 1.379 . S
C4722 H4706 0.931 . S
C4722 C4716 1.383 . S
C4722 C4721 1.379 . S
H4723 C4717 0.959 . S
H4724 C4717 0.961 . S
H4725 C4717 0.960 . S
H4726 C4718 0.930 . S
H4727 C4719 0.929 . S
H4728 C4736 0.929 . S
H4729 C4738 0.930 . S
H4730 C4740 0.930 . S
H4731 C4743 0.929 . S
H4732 C4746 0.930 . S
H4733 C4748 0.960 . S
H4734 C4748 0.960 . S
H4735 C4748 0.960 . S
C4736 H4728 0.929 . S
C4736 C4737 1.377 . S
C4736 C4738 1.384 . S
C4737 C4736 1.377 . S
C4737 C4743 1.390 . S
C4738 H4729 0.930 . S
C4738 C4736 1.384 . S
C4738 C4739 1.372 . S
C4739 C4738 1.372 . S
C4739 C4740 1.400 . S
C4739 C4744 1.490 . S
C4740 H4730 0.930 . S
C4740 C4739 1.400 . S
C4740 C4743 1.386 . S
H4741 C4757 0.930 . S
H4742 C4758 0.931 . S
C4743 H4731 0.929 . S
C4743 C4737 1.390 . S
C4743 C4740 1.386 . S
C4744 C4739 1.490 . S
C4744 C4746 1.395 . S
C4744 C4747 1.403 . S
H4745 C4751 0.930 . S
C4746 H4732 0.930 . S
C4746 C4744 1.395 . S
C4746 C4749 1.403 . S
C4747 C4744 1.403 . S
C4747 C4748 1.524 . S
C4747 C4751 1.400 . S
C4748 H4733 0.960 . S
C4748 H4734 0.960 . S
C4748 H4735 0.960 . S
C4748 C4747 1.524 . S
C4749 C4746 1.403 . S
C4749 C4750 1.392 . S
C4749 C4753 1.495 . S
C4750 C4749 1.392 . S
C4750 C4751 1.385 . S
C4750 C4752 1.478 . S
C4751 H4745 0.930 . S
C4751 C4747 1.400 . S
C4751 C4750 1.385 . S
C4752 C4750 1.478 . S
C4752 C4754 1.381 . S
C4752 C4758 1.383 . S
C4753 C4749 1.495 . S
C4753 H4759 0.959 . S
C4753 H4760 0.961 . S
C4753 H4761 0.960 . S
C4754 C4752 1.381 . S
C4754 C4755 1.394 . S
C4754 H4762 0.930 . S
C4755 C4754 1.394 . S
C4755 C4756 1.383 . S
C4755 H4763 0.929 . S
C4756 C4755 1.383 . S
C4756 C4757 1.377 . S
C4757 H4741 0.930 . S
C4757 C4756 1.377 . S
C4757 C4758 1.379 . S
C4758 H4742 0.931 . S
C4758 C4752 1.383 . S
C4758 C4757 1.379 . S
H4759 C4753 0.959 . S
H4760 C4753 0.961 . S
H4761 C4753 0.960 . S
H4762 C4754 0.930 . S
H4763 C4755 0.929 . S
H4764 C4772 0.929 . S
H4765 C4774 0.930 . S
H4766 C4776 0.930 . S
H4767 C4779 0.929 . S
H4768 C4782 0.930 . S
H4769 C4784 0.960 . S
H4770 C4784 0.960 . S
H4771 C4784 0.960 . S
C4772 H4764 0.929 . S
C4772 C4773 1.377 . S
C4772 C4774 1.384 . S
C4773 C4772 1.377 . S
C4773 C4779 1.390 . S
C4774 H4765 0.930 . S
C4774 C4772 1.384 . S
C4774 C4775 1.372 . S
C4775 C4774 1.372 . S
C4775 C4776 1.400 . S
C4775 C4780 1.490 . S
C4776 H4766 0.930 . S
C4776 C4775 1.400 . S
C4776 C4779 1.386 . S
H4777 C4793 0.930 . S
H4778 C4794 0.931 . S
C4779 H4767 0.929 . S
C4779 C4773 1.390 . S
C4779 C4776 1.386 . S
C4780 C4775 1.490 . S
C4780 C4782 1.395 . S
C4780 C4783 1.403 . S
H4781 C4787 0.930 . S
C4782 H4768 0.930 . S
C4782 C4780 1.395 . S
C4782 C4785 1.403 . S
C4783 C4780 1.403 . S
C4783 C4784 1.524 . S
C4783 C4787 1.400 . S
C4784 H4769 0.960 . S
C4784 H4770 0.960 . S
C4784 H4771 0.960 . S
C4784 C4783 1.524 . S
C4785 C4782 1.403 . S
C4785 C4786 1.392 . S
C4785 C4789 1.495 . S
C4786 C4785 1.392 . S
C4786 C4787 1.385 . S
C4786 C4788 1.478 . S
C4787 H4781 0.930 . S
C4787 C4783 1.400 . S
C4787 C4786 1.385 . S
C4788 C4786 1.478 . S
C4788 C4790 1.381 . S
C4788 C4794 1.383 . S
C4789 C4785 1.495 . S
C4789 H4795 0.959 . S
C4789 H4796 0.961 . S
C4789 H4797 0.960 . S
C4790 C4788 1.381 . S
C4790 C4791 1.394 . S
C4790 H4798 0.930 . S
C4791 C4790 1.394 . S
C4791 C4792 1.383 . S
C4791 H4799 0.929 . S
C4792 C4791 1.383 . S
C4792 C4793 1.377 . S
C4793 H4777 0.930 . S
C4793 C4792 1.377 . S
C4793 C4794 1.379 . S
C4794 H4778 0.931 . S
C4794 C4788 1.383 . S
C4794 C4793 1.379 . S
H4795 C4789 0.959 . S
H4796 C4789 0.961 . S
H4797 C4789 0.960 . S
H4798 C4790 0.930 . S
H4799 C4791 0.929 . S
H4800 C4808 0.929 . S
H4801 C4810 0.930 . S
H4802 C4812 0.930 . S
H4803 C4815 0.929 . S
H4804 C4818 0.930 . S
H4805 C4820 0.960 . S
H4806 C4820 0.960 . S
H4807 C4820 0.960 . S
C4808 H4800 0.929 . S
C4808 C4809 1.377 . S
C4808 C4810 1.384 . S
C4809 C4808 1.377 . S
C4809 C4815 1.390 . S
C4810 H4801 0.930 . S
C4810 C4808 1.384 . S
C4810 C4811 1.372 . S
C4811 C4810 1.372 . S
C4811 C4812 1.400 . S
C4811 C4816 1.490 . S
C4812 H4802 0.930 . S
C4812 C4811 1.400 . S
C4812 C4815 1.386 . S
H4813 C4829 0.930 . S
H4814 C4830 0.931 . S
C4815 H4803 0.929 . S
C4815 C4809 1.390 . S
C4815 C4812 1.386 . S
C4816 C4811 1.490 . S
C4816 C4818 1.395 . S
C4816 C4819 1.403 . S
H4817 C4823 0.930 . S
C4818 H4804 0.930 . S
C4818 C4816 1.395 . S
C4818 C4821 1.403 . S
C4819 C4816 1.403 . S
C4819 C4820 1.524 . S
C4819 C4823 1.400 . S
C4820 H4805 0.960 . S
C4820 H4806 0.960 . S
C4820 H4807 0.960 . S
C4820 C4819 1.524 . S
C4821 C4818 1.403 . S
C4821 C4822 1.392 . S
C4821 C4825 1.495 . S
C4822 C4821 1.392 . S
C4822 C4823 1.385 . S
C4822 C4824 1.478 . S
C4823 H4817 0.930 . S
C4823 C4819 1.400 . S
C4823 C4822 1.385 . S
C4824 C4822 1.478 . S
C4824 C4826 1.381 . S
C4824 C4830 1.383 . S
C4825 C4821 1.495 . S
C4825 H4831 0.959 . S
C4825 H4832 0.961 . S
C4825 H4833 0.960 . S
C4826 C4824 1.381 . S
C4826 C4827 1.394 . S
C4826 H4834 0.930 . S
C4827 C4826 1.394 . S
C4827 C4828 1.383 . S
C4827 H4835 0.929 . S
C4828 C4827 1.383 . S
C4828 C4829 1.377 . S
C4829 H4813 0.930 . S
C4829 C4828 1.377 . S
C4829 C4830 1.379 . S
C4830 H4814 0.931 . S
C4830 C4824 1.383 . S
C4830 C4829 1.379 . S
H4831 C4825 0.959 . S
H4832 C4825 0.961 . S
H4833 C4825 0.960 . S
H4834 C4826 0.930 . S
H4835 C4827 0.929 . S
H4836 C4844 0.929 . S
H4837 C4846 0.930 . S
H4838 C4848 0.930 . S
H4839 C4851 0.929 . S
H4840 C4854 0.930 . S
H4841 C4856 0.960 . S
H4842 C4856 0.960 . S
H4843 C4856 0.960 . S
C4844 H4836 0.929 . S
C4844 C4845 1.377 . S
C4844 C4846 1.384 . S
C4845 C4844 1.377 . S
C4845 C4851 1.390 . S
C4846 H4837 0.930 . S
C4846 C4844 1.384 . S
C4846 C4847 1.372 . S
C4847 C4846 1.372 . S
C4847 C4848 1.400 . S
C4847 C4852 1.490 . S
C4848 H4838 0.930 . S
C4848 C4847 1.400 . S
C4848 C4851 1.386 . S
H4849 C4865 0.930 . S
H4850 C4866 0.931 . S
C4851 H4839 0.929 . S
C4851 C4845 1.390 . S
C4851 C4848 1.386 . S
C4852 C4847 1.490 . S
C4852 C4854 1.395 . S
C4852 C4855 1.403 . S
H4853 C4859 0.930 . S
C4854 H4840 0.930 . S
C4854 C4852 1.395 . S
C4854 C4857 1.403 . S
C4855 C4852 1.403 . S
C4855 C4856 1.524 . S
C4855 C4859 1.400 . S
C4856 H4841 0.960 . S
C4856 H4842 0.960 . S
C4856 H4843 0.960 . S
C4856 C4855 1.524 . S
C4857 C4854 1.403 . S
C4857 C4858 1.392 . S
C4857 C4861 1.495 . S
C4858 C4857 1.392 . S
C4858 C4859 1.385 . S
C4858 C4860 1.478 . S
C4859 H4853 0.930 . S
C4859 C4855 1.400 . S
C4859 C4858 1.385 . S
C4860 C4858 1.478 . S
C4860 C4862 1.381 . S
C4860 C4866 1.383 . S
C4861 C4857 1.495 . S
C4861 H4867 0.959 . S
C4861 H4868 0.961 . S
C4861 H4869 0.960 . S
C4862 C4860 1.381 . S
C4862 C4863 1.394 . S
C4862 H4870 0.930 . S
C4863 C4862 1.394 . S
C4863 C4864 1.383 . S
C4863 H4871 0.929 . S
C4864 C4863 1.383 . S
C4864 C4865 1.377 . S
C4865 H4849 0.930 . S
C4865 C4864 1.377 . S
C4865 C4866 1.379 . S
C4866 H4850 0.931 . S
C4866 C4860 1.383 . S
C4866 C4865 1.379 . S
H4867 C4861 0.959 . S
H4868 C4861 0.961 . S
H4869 C4861 0.960 . S
H4870 C4862 0.930 . S
H4871 C4863 0.929 . S
H4872 C4880 0.929 . S
H4873 C4882 0.930 . S
H4874 C4884 0.930 . S
H4875 C4887 0.929 . S
H4876 C4890 0.930 . S
H4877 C4892 0.960 . S
H4878 C4892 0.960 . S
H4879 C4892 0.960 . S
C4880 H4872 0.929 . S
C4880 C4881 1.377 . S
C4880 C4882 1.384 . S
C4881 C4880 1.377 . S
C4881 C4887 1.390 . S
C4882 H4873 0.930 . S
C4882 C4880 1.384 . S
C4882 C4883 1.372 . S
C4883 C4882 1.372 . S
C4883 C4884 1.400 . S
C4883 C4888 1.490 . S
C4884 H4874 0.930 . S
C4884 C4883 1.400 . S
C4884 C4887 1.386 . S
H4885 C4901 0.930 . S
H4886 C4902 0.931 . S
C4887 H4875 0.929 . S
C4887 C4881 1.390 . S
C4887 C4884 1.386 . S
C4888 C4883 1.490 . S
C4888 C4890 1.395 . S
C4888 C4891 1.403 . S
H4889 C4895 0.930 . S
C4890 H4876 0.930 . S
C4890 C4888 1.395 . S
C4890 C4893 1.403 . S
C4891 C4888 1.403 . S
C4891 C4892 1.524 . S
C4891 C4895 1.400 . S
C4892 H4877 0.960 . S
C4892 H4878 0.960 . S
C4892 H4879 0.960 . S
C4892 C4891 1.524 . S
C4893 C4890 1.403 . S
C4893 C4894 1.392 . S
C4893 C4897 1.495 . S
C4894 C4893 1.392 . S
C4894 C4895 1.385 . S
C4894 C4896 1.478 . S
C4895 H4889 0.930 . S
C4895 C4891 1.400 . S
C4895 C4894 1.385 . S
C4896 C4894 1.478 . S
C4896 C4898 1.381 . S
C4896 C4902 1.383 . S
C4897 C4893 1.495 . S
C4897 H4903 0.959 . S
C4897 H4904 0.961 . S
C4897 H4905 0.960 . S
C4898 C4896 1.381 . S
C4898 C4899 1.394 . S
C4898 H4906 0.930 . S
C4899 C4898 1.394 . S
C4899 C4900 1.383 . S
C4899 H4907 0.929 . S
C4900 C4899 1.383 . S
C4900 C4901 1.377 . S
C4901 H4885 0.930 . S
C4901 C4900 1.377 . S
C4901 C4902 1.379 . S
C4902 H4886 0.931 . S
C4902 C4896 1.383 . S
C4902 C4901 1.379 . S
H4903 C4897 0.959 . S
H4904 C4897 0.961 . S
H4905 C4897 0.960 . S
H4906 C4898 0.930 . S
H4907 C4899 0.929 . S
H4908 C4916 0.929 . S
H4909 C4918 0.930 . S
H4910 C4920 0.930 . S
H4911 C4923 0.929 . S
H4912 C4926 0.930 . S
H4913 C4928 0.960 . S
H4914 C4928 0.960 . S
H4915 C4928 0.960 . S
C4916 H4908 0.929 . S
C4916 C4917 1.377 . S
C4916 C4918 1.384 . S
C4917 C4916 1.377 . S
C4917 C4923 1.390 . S
C4918 H4909 0.930 . S
C4918 C4916 1.384 . S
C4918 C4919 1.372 . S
C4919 C4918 1.372 . S
C4919 C4920 1.400 . S
C4919 C4924 1.490 . S
C4920 H4910 0.930 . S
C4920 C4919 1.400 . S
C4920 C4923 1.386 . S
H4921 C4937 0.930 . S
H4922 C4938 0.931 . S
C4923 H4911 0.929 . S
C4923 C4917 1.390 . S
C4923 C4920 1.386 . S
C4924 C4919 1.490 . S
C4924 C4926 1.395 . S
C4924 C4927 1.403 . S
H4925 C4931 0.930 . S
C4926 H4912 0.930 . S
C4926 C4924 1.395 . S
C4926 C4929 1.403 . S
C4927 C4924 1.403 . S
C4927 C4928 1.524 . S
C4927 C4931 1.400 . S
C4928 H4913 0.960 . S
C4928 H4914 0.960 . S
C4928 H4915 0.960 . S
C4928 C4927 1.524 . S
C4929 C4926 1.403 . S
C4929 C4930 1.392 . S
C4929 C4933 1.495 . S
C4930 C4929 1.392 . S
C4930 C4931 1.385 . S
C4930 C4932 1.478 . S
C4931 H4925 0.930 . S
C4931 C4927 1.400 . S
C4931 C4930 1.385 . S
C4932 C4930 1.478 . S
C4932 C4934 1.381 . S
C4932 C4938 1.383 . S
C4933 C4929 1.495 . S
C4933 H4939 0.959 . S
C4933 H4940 0.961 . S
C4933 H4941 0.960 . S
C4934 C4932 1.381 . S
C4934 C4935 1.394 . S
C4934 H4942 0.930 . S
C4935 C4934 1.394 . S
C4935 C4936 1.383 . S
C4935 H4943 0.929 . S
C4936 C4935 1.383 . S
C4936 C4937 1.377 . S
C4937 H4921 0.930 . S
C4937 C4936 1.377 . S
C4937 C4938 1.379 . S
C4938 H4922 0.931 . S
C4938 C4932 1.383 . S
C4938 C4937 1.379 . S
H4939 C4933 0.959 . S
H4940 C4933 0.961 . S
H4941 C4933 0.960 . S
H4942 C4934 0.930 . S
H4943 C4935 0.929 . S
H4944 C4952 0.929 . S
H4945 C4954 0.930 . S
H4946 C4956 0.930 . S
H4947 C4959 0.929 . S
H4948 C4962 0.930 . S
H4949 C4964 0.960 . S
H4950 C4964 0.960 . S
H4951 C4964 0.960 . S
C4952 H4944 0.929 . S
C4952 C4953 1.377 . S
C4952 C4954 1.384 . S
C4953 C4952 1.377 . S
C4953 C4959 1.390 . S
C4954 H4945 0.930 . S
C4954 C4952 1.384 . S
C4954 C4955 1.372 . S
C4955 C4954 1.372 . S
C4955 C4956 1.400 . S
C4955 C4960 1.490 . S
C4956 H4946 0.930 . S
C4956 C4955 1.400 . S
C4956 C4959 1.386 . S
H4957 C4973 0.930 . S
H4958 C4974 0.931 . S
C4959 H4947 0.929 . S
C4959 C4953 1.390 . S
C4959 C4956 1.386 . S
C4960 C4955 1.490 . S
C4960 C4962 1.395 . S
C4960 C4963 1.403 . S
H4961 C4967 0.930 . S
C4962 H4948 0.930 . S
C4962 C4960 1.395 . S
C4962 C4965 1.403 . S
C4963 C4960 1.403 . S
C4963 C4964 1.524 . S
C4963 C4967 1.400 . S
C4964 H4949 0.960 . S
C4964 H4950 0.960 . S
C4964 H4951 0.960 . S
C4964 C4963 1.524 . S
C4965 C4962 1.403 . S
C4965 C4966 1.392 . S
C4965 C4969 1.495 . S
C4966 C4965 1.392 . S
C4966 C4967 1.385 . S
C4966 C4968 1.478 . S
C4967 H4961 0.930 . S
C4967 C4963 1.400 . S
C4967 C4966 1.385 . S
C4968 C4966 1.478 . S
C4968 C4970 1.381 . S
C4968 C4974 1.383 . S
C4969 C4965 1.495 . S
C4969 H4975 0.959 . S
C4969 H4976 0.961 . S
C4969 H4977 0.960 . S
C4970 C4968 1.381 . S
C4970 C4971 1.394 . S
C4970 H4978 0.930 . S
C4971 C4970 1.394 . S
C4971 C4972 1.383 . S
C4971 H4979 0.929 . S
C4972 C4971 1.383 . S
C4972 C4973 1.377 . S
C4973 H4957 0.930 . S
C4973 C4972 1.377 . S
C4973 C4974 1.379 . S
C4974 H4958 0.931 . S
C4974 C4968 1.383 . S
C4974 C4973 1.379 . S
H4975 C4969 0.959 . S
H4976 C4969 0.961 . S
H4977 C4969 0.960 . S
H4978 C4970 0.930 . S
H4979 C4971 0.929 . S
H4980 C4988 0.929 . S
H4981 C4990 0.930 . S
H4982 C4992 0.930 . S
H4983 C4995 0.929 . S
H4984 C4998 0.930 . S
H4985 C5000 0.960 . S
H4986 C5000 0.960 . S
H4987 C5000 0.960 . S
C4988 H4980 0.929 . S
C4988 C4989 1.377 . S
C4988 C4990 1.384 . S
C4989 C4988 1.377 . S
C4989 C4995 1.390 . S
C4990 H4981 0.930 . S
C4990 C4988 1.384 . S
C4990 C4991 1.372 . S
C4991 C4990 1.372 . S
C4991 C4992 1.400 . S
C4991 C4996 1.490 . S
C4992 H4982 0.930 . S
C4992 C4991 1.400 . S
C4992 C4995 1.386 . S
H4993 C5009 0.930 . S
H4994 C5010 0.931 . S
C4995 H4983 0.929 . S
C4995 C4989 1.390 . S
C4995 C4992 1.386 . S
C4996 C4991 1.490 . S
C4996 C4998 1.395 . S
C4996 C4999 1.403 . S
H4997 C5003 0.930 . S
C4998 H4984 0.930 . S
C4998 C4996 1.395 . S
C4998 C5001 1.403 . S
C4999 C4996 1.403 . S
C4999 C5000 1.524 . S
C4999 C5003 1.400 . S
C5000 H4985 0.960 . S
C5000 H4986 0.960 . S
C5000 H4987 0.960 . S
C5000 C4999 1.524 . S
C5001 C4998 1.403 . S
C5001 C5002 1.392 . S
C5001 C5005 1.495 . S
C5002 C5001 1.392 . S
C5002 C5003 1.385 . S
C5002 C5004 1.478 . S
C5003 H4997 0.930 . S
C5003 C4999 1.400 . S
C5003 C5002 1.385 . S
C5004 C5002 1.478 . S
C5004 C5006 1.381 . S
C5004 C5010 1.383 . S
C5005 C5001 1.495 . S
C5005 H5011 0.959 . S
C5005 H5012 0.961 . S
C5005 H5013 0.960 . S
C5006 C5004 1.381 . S
C5006 C5007 1.394 . S
C5006 H5014 0.930 . S
C5007 C5006 1.394 . S
C5007 C5008 1.383 . S
C5007 H5015 0.929 . S
C5008 C5007 1.383 . S
C5008 C5009 1.377 . S
C5009 H4993 0.930 . S
C5009 C5008 1.377 . S
C5009 C5010 1.379 . S
C5010 H4994 0.931 . S
C5010 C5004 1.383 . S
C5010 C5009 1.379 . S
H5011 C5005 0.959 . S
H5012 C5005 0.961 . S
H5013 C5005 0.960 . S
H5014 C5006 0.930 . S
H5015 C5007 0.929 . S
H5016 C5024 0.929 . S
H5017 C5026 0.930 . S
H5018 C5028 0.930 . S
H5019 C5031 0.929 . S
H5020 C5034 0.930 . S
H5021 C5036 0.960 . S
H5022 C5036 0.960 . S
H5023 C5036 0.960 . S
C5024 H5016 0.929 . S
C5024 C5025 1.377 . S
C5024 C5026 1.384 . S
C5025 C5024 1.377 . S
C5025 C5031 1.390 . S
C5026 H5017 0.930 . S
C5026 C5024 1.384 . S
C5026 C5027 1.372 . S
C5027 C5026 1.372 . S
C5027 C5028 1.400 . S
C5027 C5032 1.490 . S
C5028 H5018 0.930 . S
C5028 C5027 1.400 . S
C5028 C5031 1.386 . S
H5029 C5045 0.930 . S
H5030 C5046 0.931 . S
C5031 H5019 0.929 . S
C5031 C5025 1.390 . S
C5031 C5028 1.386 . S
C5032 C5027 1.490 . S
C5032 C5034 1.395 . S
C5032 C5035 1.403 . S
H5033 C5039 0.930 . S
C5034 H5020 0.930 . S
C5034 C5032 1.395 . S
C5034 C5037 1.403 . S
C5035 C5032 1.403 . S
C5035 C5036 1.524 . S
C5035 C5039 1.400 . S
C5036 H5021 0.960 . S
C5036 H5022 0.960 . S
C5036 H5023 0.960 . S
C5036 C5035 1.524 . S
C5037 C5034 1.403 . S
C5037 C5038 1.392 . S
C5037 C5041 1.495 . S
C5038 C5037 1.392 . S
C5038 C5039 1.385 . S
C5038 C5040 1.478 . S
C5039 H5033 0.930 . S
C5039 C5035 1.400 . S
C5039 C5038 1.385 . S
C5040 C5038 1.478 . S
C5040 C5042 1.381 . S
C5040 C5046 1.383 . S
C5041 C5037 1.495 . S
C5041 H5047 0.959 . S
C5041 H5048 0.961 . S
C5041 H5049 0.960 . S
C5042 C5040 1.381 . S
C5042 C5043 1.394 . S
C5042 H5050 0.930 . S
C5043 C5042 1.394 . S
C5043 C5044 1.383 . S
C5043 H5051 0.929 . S
C5044 C5043 1.383 . S
C5044 C5045 1.377 . S
C5045 H5029 0.930 . S
C5045 C5044 1.377 . S
C5045 C5046 1.379 . S
C5046 H5030 0.931 . S
C5046 C5040 1.383 . S
C5046 C5045 1.379 . S
H5047 C5041 0.959 . S
H5048 C5041 0.961 . S
H5049 C5041 0.960 . S
H5050 C5042 0.930 . S
H5051 C5043 0.929 . S
H5052 C5060 0.929 . S
H5053 C5062 0.930 . S
H5054 C5064 0.930 . S
H5055 C5067 0.929 . S
H5056 C5070 0.930 . S
H5057 C5072 0.960 . S
H5058 C5072 0.960 . S
H5059 C5072 0.960 . S
C5060 H5052 0.929 . S
C5060 C5061 1.377 . S
C5060 C5062 1.384 . S
C5061 C5060 1.377 . S
C5061 C5067 1.390 . S
C5062 H5053 0.930 . S
C5062 C5060 1.384 . S
C5062 C5063 1.372 . S
C5063 C5062 1.372 . S
C5063 C5064 1.400 . S
C5063 C5068 1.490 . S
C5064 H5054 0.930 . S
C5064 C5063 1.400 . S
C5064 C5067 1.386 . S
H5065 C5081 0.930 . S
H5066 C5082 0.931 . S
C5067 H5055 0.929 . S
C5067 C5061 1.390 . S
C5067 C5064 1.386 . S
C5068 C5063 1.490 . S
C5068 C5070 1.395 . S
C5068 C5071 1.403 . S
H5069 C5075 0.930 . S
C5070 H5056 0.930 . S
C5070 C5068 1.395 . S
C5070 C5073 1.403 . S
C5071 C5068 1.403 . S
C5071 C5072 1.524 . S
C5071 C5075 1.400 . S
C5072 H5057 0.960 . S
C5072 H5058 0.960 . S
C5072 H5059 0.960 . S
C5072 C5071 1.524 . S
C5073 C5070 1.403 . S
C5073 C5074 1.392 . S
C5073 C5077 1.495 . S
C5074 C5073 1.392 . S
C5074 C5075 1.385 . S
C5074 C5076 1.478 . S
C5075 H5069 0.930 . S
C5075 C5071 1.400 . S
C5075 C5074 1.385 . S
C5076 C5074 1.478 . S
C5076 C5078 1.381 . S
C5076 C5082 1.383 . S
C5077 C5073 1.495 . S
C5077 H5083 0.959 . S
C5077 H5084 0.961 . S
C5077 H5085 0.960 . S
C5078 C5076 1.381 . S
C5078 C5079 1.394 . S
C5078 H5086 0.930 . S
C5079 C5078 1.394 . S
C5079 C5080 1.383 . S
C5079 H5087 0.929 . S
C5080 C5079 1.383 . S
C5080 C5081 1.377 . S
C5081 H5065 0.930 . S
C5081 C5080 1.377 . S
C5081 C5082 1.379 . S
C5082 H5066 0.931 . S
C5082 C5076 1.383 . S
C5082 C5081 1.379 . S
H5083 C5077 0.959 . S
H5084 C5077 0.961 . S
H5085 C5077 0.960 . S
H5086 C5078 0.930 . S
H5087 C5079 0.929 . S
H5088 C5096 0.929 . S
H5089 C5098 0.930 . S
H5090 C5100 0.930 . S
H5091 C5103 0.929 . S
H5092 C5106 0.930 . S
H5093 C5108 0.960 . S
H5094 C5108 0.960 . S
H5095 C5108 0.960 . S
C5096 H5088 0.929 . S
C5096 C5097 1.377 . S
C5096 C5098 1.384 . S
C5097 C5096 1.377 . S
C5097 C5103 1.390 . S
C5098 H5089 0.930 . S
C5098 C5096 1.384 . S
C5098 C5099 1.372 . S
C5099 C5098 1.372 . S
C5099 C5100 1.400 . S
C5099 C5104 1.490 . S
C5100 H5090 0.930 . S
C5100 C5099 1.400 . S
C5100 C5103 1.386 . S
H5101 C5117 0.930 . S
H5102 C5118 0.931 . S
C5103 H5091 0.929 . S
C5103 C5097 1.390 . S
C5103 C5100 1.386 . S
C5104 C5099 1.490 . S
C5104 C5106 1.395 . S
C5104 C5107 1.403 . S
H5105 C5111 0.930 . S
C5106 H5092 0.930 . S
C5106 C5104 1.395 . S
C5106 C5109 1.403 . S
C5107 C5104 1.403 . S
C5107 C5108 1.524 . S
C5107 C5111 1.400 . S
C5108 H5093 0.960 . S
C5108 H5094 0.960 . S
C5108 H5095 0.960 . S
C5108 C5107 1.524 . S
C5109 C5106 1.403 . S
C5109 C5110 1.392 . S
C5109 C5113 1.495 . S
C5110 C5109 1.392 . S
C5110 C5111 1.385 . S
C5110 C5112 1.478 . S
C5111 H5105 0.930 . S
C5111 C5107 1.400 . S
C5111 C5110 1.385 . S
C5112 C5110 1.478 . S
C5112 C5114 1.381 . S
C5112 C5118 1.383 . S
C5113 C5109 1.495 . S
C5113 H5119 0.959 . S
C5113 H5120 0.961 . S
C5113 H5121 0.960 . S
C5114 C5112 1.381 . S
C5114 C5115 1.394 . S
C5114 H5122 0.930 . S
C5115 C5114 1.394 . S
C5115 C5116 1.383 . S
C5115 H5123 0.929 . S
C5116 C5115 1.383 . S
C5116 C5117 1.377 . S
C5117 H5101 0.930 . S
C5117 C5116 1.377 . S
C5117 C5118 1.379 . S
C5118 H5102 0.931 . S
C5118 C5112 1.383 . S
C5118 C5117 1.379 . S
H5119 C5113 0.959 . S
H5120 C5113 0.961 . S
H5121 C5113 0.960 . S
H5122 C5114 0.930 . S
H5123 C5115 0.929 . S
H5124 C5132 0.929 . S
H5125 C5134 0.930 . S
H5126 C5136 0.930 . S
H5127 C5139 0.929 . S
H5128 C5142 0.930 . S
H5129 C5144 0.960 . S
H5130 C5144 0.960 . S
H5131 C5144 0.960 . S
C5132 H5124 0.929 . S
C5132 C5133 1.377 . S
C5132 C5134 1.384 . S
C5133 C5132 1.377 . S
C5133 C5139 1.390 . S
C5134 H5125 0.930 . S
C5134 C5132 1.384 . S
C5134 C5135 1.372 . S
C5135 C5134 1.372 . S
C5135 C5136 1.400 . S
C5135 C5140 1.490 . S
C5136 H5126 0.930 . S
C5136 C5135 1.400 . S
C5136 C5139 1.386 . S
H5137 C5153 0.930 . S
H5138 C5154 0.931 . S
C5139 H5127 0.929 . S
C5139 C5133 1.390 . S
C5139 C5136 1.386 . S
C5140 C5135 1.490 . S
C5140 C5142 1.395 . S
C5140 C5143 1.403 . S
H5141 C5147 0.930 . S
C5142 H5128 0.930 . S
C5142 C5140 1.395 . S
C5142 C5145 1.403 . S
C5143 C5140 1.403 . S
C5143 C5144 1.524 . S
C5143 C5147 1.400 . S
C5144 H5129 0.960 . S
C5144 H5130 0.960 . S
C5144 H5131 0.960 . S
C5144 C5143 1.524 . S
C5145 C5142 1.403 . S
C5145 C5146 1.392 . S
C5145 C5149 1.495 . S
C5146 C5145 1.392 . S
C5146 C5147 1.385 . S
C5146 C5148 1.478 . S
C5147 H5141 0.930 . S
C5147 C5143 1.400 . S
C5147 C5146 1.385 . S
C5148 C5146 1.478 . S
C5148 C5150 1.381 . S
C5148 C5154 1.383 . S
C5149 C5145 1.495 . S
C5149 H5155 0.959 . S
C5149 H5156 0.961 . S
C5149 H5157 0.960 . S
C5150 C5148 1.381 . S
C5150 C5151 1.394 . S
C5150 H5158 0.930 . S
C5151 C5150 1.394 . S
C5151 C5152 1.383 . S
C5151 H5159 0.929 . S
C5152 C5151 1.383 . S
C5152 C5153 1.377 . S
C5153 H5137 0.930 . S
C5153 C5152 1.377 . S
C5153 C5154 1.379 . S
C5154 H5138 0.931 . S
C5154 C5148 1.383 . S
C5154 C5153 1.379 . S
H5155 C5149 0.959 . S
H5156 C5149 0.961 . S
H5157 C5149 0.960 . S
H5158 C5150 0.930 . S
H5159 C5151 0.929 . S
H5160 C5168 0.929 . S
H5161 C5170 0.930 . S
H5162 C5172 0.930 . S
H5163 C5175 0.929 . S
H5164 C5178 0.930 . S
H5165 C5180 0.960 . S
H5166 C5180 0.960 . S
H5167 C5180 0.960 . S
C5168 H5160 0.929 . S
C5168 C5169 1.377 . S
C5168 C5170 1.384 . S
C5169 C5168 1.377 . S
C5169 C5175 1.390 . S
C5170 H5161 0.930 . S
C5170 C5168 1.384 . S
C5170 C5171 1.372 . S
C5171 C5170 1.372 . S
C5171 C5172 1.400 . S
C5171 C5176 1.490 . S
C5172 H5162 0.930 . S
C5172 C5171 1.400 . S
C5172 C5175 1.386 . S
H5173 C5189 0.930 . S
H5174 C5190 0.931 . S
C5175 H5163 0.929 . S
C5175 C5169 1.390 . S
C5175 C5172 1.386 . S
C5176 C5171 1.490 . S
C5176 C5178 1.395 . S
C5176 C5179 1.403 . S
H5177 C5183 0.930 . S
C5178 H5164 0.930 . S
C5178 C5176 1.395 . S
C5178 C5181 1.403 . S
C5179 C5176 1.403 . S
C5179 C5180 1.524 . S
C5179 C5183 1.400 . S
C5180 H5165 0.960 . S
C5180 H5166 0.960 . S
C5180 H5167 0.960 . S
C5180 C5179 1.524 . S
C5181 C5178 1.403 . S
C5181 C5182 1.392 . S
C5181 C5185 1.495 . S
C5182 C5181 1.392 . S
C5182 C5183 1.385 . S
C5182 C5184 1.478 . S
C5183 H5177 0.930 . S
C5183 C5179 1.400 . S
C5183 C5182 1.385 . S
C5184 C5182 1.478 . S
C5184 C5186 1.381 . S
C5184 C5190 1.383 . S
C5185 C5181 1.495 . S
C5185 H5191 0.959 . S
C5185 H5192 0.961 . S
C5185 H5193 0.960 . S
C5186 C5184 1.381 . S
C5186 C5187 1.394 . S
C5186 H5194 0.930 . S
C5187 C5186 1.394 . S
C5187 C5188 1.383 . S
C5187 H5195 0.929 . S
C5188 C5187 1.383 . S
C5188 C5189 1.377 . S
C5189 H5173 0.930 . S
C5189 C5188 1.377 . S
C5189 C5190 1.379 . S
C5190 H5174 0.931 . S
C5190 C5184 1.383 . S
C5190 C5189 1.379 . S
H5191 C5185 0.959 . S
H5192 C5185 0.961 . S
H5193 C5185 0.960 . S
H5194 C5186 0.930 . S
H5195 C5187 0.929 . S
H5196 C5204 0.929 . S
H5197 C5206 0.930 . S
H5198 C5208 0.930 . S
H5199 C5211 0.929 . S
H5200 C5214 0.930 . S
H5201 C5216 0.960 . S
H5202 C5216 0.960 . S
H5203 C5216 0.960 . S
C5204 H5196 0.929 . S
C5204 C5205 1.377 . S
C5204 C5206 1.384 . S
C5205 C5204 1.377 . S
C5205 C5211 1.390 . S
C5206 H5197 0.930 . S
C5206 C5204 1.384 . S
C5206 C5207 1.372 . S
C5207 C5206 1.372 . S
C5207 C5208 1.400 . S
C5207 C5212 1.490 . S
C5208 H5198 0.930 . S
C5208 C5207 1.400 . S
C5208 C5211 1.386 . S
H5209 C5225 0.930 . S
H5210 C5226 0.931 . S
C5211 H5199 0.929 . S
C5211 C5205 1.390 . S
C5211 C5208 1.386 . S
C5212 C5207 1.490 . S
C5212 C5214 1.395 . S
C5212 C5215 1.403 . S
H5213 C5219 0.930 . S
C5214 H5200 0.930 . S
C5214 C5212 1.395 . S
C5214 C5217 1.403 . S
C5215 C5212 1.403 . S
C5215 C5216 1.524 . S
C5215 C5219 1.400 . S
C5216 H5201 0.960 . S
C5216 H5202 0.960 . S
C5216 H5203 0.960 . S
C5216 C5215 1.524 . S
C5217 C5214 1.403 . S
C5217 C5218 1.392 . S
C5217 C5221 1.495 . S
C5218 C5217 1.392 . S
C5218 C5219 1.385 . S
C5218 C5220 1.478 . S
C5219 H5213 0.930 . S
C5219 C5215 1.400 . S
C5219 C5218 1.385 . S
C5220 C5218 1.478 . S
C5220 C5222 1.381 . S
C5220 C5226 1.383 . S
C5221 C5217 1.495 . S
C5221 H5227 0.959 . S
C5221 H5228 0.961 . S
C5221 H5229 0.960 . S
C5222 C5220 1.381 . S
C5222 C5223 1.394 . S
C5222 H5230 0.930 . S
C5223 C5222 1.394 . S
C5223 C5224 1.383 . S
C5223 H5231 0.929 . S
C5224 C5223 1.383 . S
C5224 C5225 1.377 . S
C5225 H5209 0.930 . S
C5225 C5224 1.377 . S
C5225 C5226 1.379 . S
C5226 H5210 0.931 . S
C5226 C5220 1.383 . S
C5226 C5225 1.379 . S
H5227 C5221 0.959 . S
H5228 C5221 0.961 . S
H5229 C5221 0.960 . S
H5230 C5222 0.930 . S
H5231 C5223 0.929 . S
H5232 C5240 0.929 . S
H5233 C5242 0.930 . S
H5234 C5244 0.930 . S
H5235 C5247 0.929 . S
H5236 C5250 0.930 . S
H5237 C5252 0.960 . S
H5238 C5252 0.960 . S
H5239 C5252 0.960 . S
C5240 H5232 0.929 . S
C5240 C5241 1.377 . S
C5240 C5242 1.384 . S
C5241 C5240 1.377 . S
C5241 C5247 1.390 . S
C5242 H5233 0.930 . S
C5242 C5240 1.384 . S
C5242 C5243 1.372 . S
C5243 C5242 1.372 . S
C5243 C5244 1.400 . S
C5243 C5248 1.490 . S
C5244 H5234 0.930 . S
C5244 C5243 1.400 . S
C5244 C5247 1.386 . S
H5245 C5261 0.930 . S
H5246 C5262 0.931 . S
C5247 H5235 0.929 . S
C5247 C5241 1.390 . S
C5247 C5244 1.386 . S
C5248 C5243 1.490 . S
C5248 C5250 1.395 . S
C5248 C5251 1.403 . S
H5249 C5255 0.930 . S
C5250 H5236 0.930 . S
C5250 C5248 1.395 . S
C5250 C5253 1.403 . S
C5251 C5248 1.403 . S
C5251 C5252 1.524 . S
C5251 C5255 1.400 . S
C5252 H5237 0.960 . S
C5252 H5238 0.960 . S
C5252 H5239 0.960 . S
C5252 C5251 1.524 . S
C5253 C5250 1.403 . S
C5253 C5254 1.392 . S
C5253 C5257 1.495 . S
C5254 C5253 1.392 . S
C5254 C5255 1.385 . S
C5254 C5256 1.478 . S
C5255 H5249 0.930 . S
C5255 C5251 1.400 . S
C5255 C5254 1.385 . S
C5256 C5254 1.478 . S
C5256 C5258 1.381 . S
C5256 C5262 1.383 . S
C5257 C5253 1.495 . S
C5257 H5263 0.959 . S
C5257 H5264 0.961 . S
C5257 H5265 0.960 . S
C5258 C5256 1.381 . S
C5258 C5259 1.394 . S
C5258 H5266 0.930 . S
C5259 C5258 1.394 . S
C5259 C5260 1.383 . S
C5259 H5267 0.929 . S
C5260 C5259 1.383 . S
C5260 C5261 1.377 . S
C5261 H5245 0.930 . S
C5261 C5260 1.377 . S
C5261 C5262 1.379 . S
C5262 H5246 0.931 . S
C5262 C5256 1.383 . S
C5262 C5261 1.379 . S
H5263 C5257 0.959 . S
H5264 C5257 0.961 . S
H5265 C5257 0.960 . S
H5266 C5258 0.930 . S
H5267 C5259 0.929 . S
H5268 C5276 0.929 . S
H5269 C5278 0.930 . S
H5270 C5280 0.930 . S
H5271 C5283 0.929 . S
H5272 C5286 0.930 . S
H5273 C5288 0.960 . S
H5274 C5288 0.960 . S
H5275 C5288 0.960 . S
C5276 H5268 0.929 . S
C5276 C5277 1.377 . S
C5276 C5278 1.384 . S
C5277 C5276 1.377 . S
C5277 C5283 1.390 . S
C5278 H5269 0.930 . S
C5278 C5276 1.384 . S
C5278 C5279 1.372 . S
C5279 C5278 1.372 . S
C5279 C5280 1.400 . S
C5279 C5284 1.490 . S
C5280 H5270 0.930 . S
C5280 C5279 1.400 . S
C5280 C5283 1.386 . S
H5281 C5297 0.930 . S
H5282 C5298 0.931 . S
C5283 H5271 0.929 . S
C5283 C5277 1.390 . S
C5283 C5280 1.386 . S
C5284 C5279 1.490 . S
C5284 C5286 1.395 . S
C5284 C5287 1.403 . S
H5285 C5291 0.930 . S
C5286 H5272 0.930 . S
C5286 C5284 1.395 . S
C5286 C5289 1.403 . S
C5287 C5284 1.403 . S
C5287 C5288 1.524 . S
C5287 C5291 1.400 . S
C5288 H5273 0.960 . S
C5288 H5274 0.960 . S
C5288 H5275 0.960 . S
C5288 C5287 1.524 . S
C5289 C5286 1.403 . S
C5289 C5290 1.392 . S
C5289 C5293 1.495 . S
C5290 C5289 1.392 . S
C5290 C5291 1.385 . S
C5290 C5292 1.478 . S
C5291 H5285 0.930 . S
C5291 C5287 1.400 . S
C5291 C5290 1.385 . S
C5292 C5290 1.478 . S
C5292 C5294 1.381 . S
C5292 C5298 1.383 . S
C5293 C5289 1.495 . S
C5293 H5299 0.959 . S
C5293 H5300 0.961 . S
C5293 H5301 0.960 . S
C5294 C5292 1.381 . S
C5294 C5295 1.394 . S
C5294 H5302 0.930 . S
C5295 C5294 1.394 . S
C5295 C5296 1.383 . S
C5295 H5303 0.929 . S
C5296 C5295 1.383 . S
C5296 C5297 1.377 . S
C5297 H5281 0.930 . S
C5297 C5296 1.377 . S
C5297 C5298 1.379 . S
C5298 H5282 0.931 . S
C5298 C5292 1.383 . S
C5298 C5297 1.379 . S
H5299 C5293 0.959 . S
H5300 C5293 0.961 . S
H5301 C5293 0.960 . S
H5302 C5294 0.930 . S
H5303 C5295 0.929 . S
H5304 C5312 0.929 . S
H5305 C5314 0.930 . S
H5306 C5316 0.930 . S
H5307 C5319 0.929 . S
H5308 C5322 0.930 . S
H5309 C5324 0.960 . S
H5310 C5324 0.960 . S
H5311 C5324 0.960 . S
C5312 H5304 0.929 . S
C5312 C5313 1.377 . S
C5312 C5314 1.384 . S
C5313 C5312 1.377 . S
C5313 C5319 1.390 . S
C5314 H5305 0.930 . S
C5314 C5312 1.384 . S
C5314 C5315 1.372 . S
C5315 C5314 1.372 . S
C5315 C5316 1.400 . S
C5315 C5320 1.490 . S
C5316 H5306 0.930 . S
C5316 C5315 1.400 . S
C5316 C5319 1.386 . S
H5317 C5333 0.930 . S
H5318 C5334 0.931 . S
C5319 H5307 0.929 . S
C5319 C5313 1.390 . S
C5319 C5316 1.386 . S
C5320 C5315 1.490 . S
C5320 C5322 1.395 . S
C5320 C5323 1.403 . S
H5321 C5327 0.930 . S
C5322 H5308 0.930 . S
C5322 C5320 1.395 . S
C5322 C5325 1.403 . S
C5323 C5320 1.403 . S
C5323 C5324 1.524 . S
C5323 C5327 1.400 . S
C5324 H5309 0.960 . S
C5324 H5310 0.960 . S
C5324 H5311 0.960 . S
C5324 C5323 1.524 . S
C5325 C5322 1.403 . S
C5325 C5326 1.392 . S
C5325 C5329 1.495 . S
C5326 C5325 1.392 . S
C5326 C5327 1.385 . S
C5326 C5328 1.478 . S
C5327 H5321 0.930 . S
C5327 C5323 1.400 . S
C5327 C5326 1.385 . S
C5328 C5326 1.478 . S
C5328 C5330 1.381 . S
C5328 C5334 1.383 . S
C5329 C5325 1.495 . S
C5329 H5335 0.959 . S
C5329 H5336 0.961 . S
C5329 H5337 0.960 . S
C5330 C5328 1.381 . S
C5330 C5331 1.394 . S
C5330 H5338 0.930 . S
C5331 C5330 1.394 . S
C5331 C5332 1.383 . S
C5331 H5339 0.929 . S
C5332 C5331 1.383 . S
C5332 C5333 1.377 . S
C5333 H5317 0.930 . S
C5333 C5332 1.377 . S
C5333 C5334 1.379 . S
C5334 H5318 0.931 . S
C5334 C5328 1.383 . S
C5334 C5333 1.379 . S
H5335 C5329 0.959 . S
H5336 C5329 0.961 . S
H5337 C5329 0.960 . S
H5338 C5330 0.930 . S
H5339 C5331 0.929 . S
H5340 C5348 0.929 . S
H5341 C5350 0.930 . S
H5342 C5352 0.930 . S
H5343 C5355 0.929 . S
H5344 C5358 0.930 . S
H5345 C5360 0.960 . S
H5346 C5360 0.960 . S
H5347 C5360 0.960 . S
C5348 H5340 0.929 . S
C5348 C5349 1.377 . S
C5348 C5350 1.384 . S
C5349 C5348 1.377 . S
C5349 C5355 1.390 . S
C5350 H5341 0.930 . S
C5350 C5348 1.384 . S
C5350 C5351 1.372 . S
C5351 C5350 1.372 . S
C5351 C5352 1.400 . S
C5351 C5356 1.490 . S
C5352 H5342 0.930 . S
C5352 C5351 1.400 . S
C5352 C5355 1.386 . S
H5353 C5369 0.930 . S
H5354 C5370 0.931 . S
C5355 H5343 0.929 . S
C5355 C5349 1.390 . S
C5355 C5352 1.386 . S
C5356 C5351 1.490 . S
C5356 C5358 1.395 . S
C5356 C5359 1.403 . S
H5357 C5363 0.930 . S
C5358 H5344 0.930 . S
C5358 C5356 1.395 . S
C5358 C5361 1.403 . S
C5359 C5356 1.403 . S
C5359 C5360 1.524 . S
C5359 C5363 1.400 . S
C5360 H5345 0.960 . S
C5360 H5346 0.960 . S
C5360 H5347 0.960 . S
C5360 C5359 1.524 . S
C5361 C5358 1.403 . S
C5361 C5362 1.392 . S
C5361 C5365 1.495 . S
C5362 C5361 1.392 . S
C5362 C5363 1.385 . S
C5362 C5364 1.478 . S
C5363 H5357 0.930 . S
C5363 C5359 1.400 . S
C5363 C5362 1.385 . S
C5364 C5362 1.478 . S
C5364 C5366 1.381 . S
C5364 C5370 1.383 . S
C5365 C5361 1.495 . S
C5365 H5371 0.959 . S
C5365 H5372 0.961 . S
C5365 H5373 0.960 . S
C5366 C5364 1.381 . S
C5366 C5367 1.394 . S
C5366 H5374 0.930 . S
C5367 C5366 1.394 . S
C5367 C5368 1.383 . S
C5367 H5375 0.929 . S
C5368 C5367 1.383 . S
C5368 C5369 1.377 . S
C5369 H5353 0.930 . S
C5369 C5368 1.377 . S
C5369 C5370 1.379 . S
C5370 H5354 0.931 . S
C5370 C5364 1.383 . S
C5370 C5369 1.379 . S
H5371 C5365 0.959 . S
H5372 C5365 0.961 . S
H5373 C5365 0.960 . S
H5374 C5366 0.930 . S
H5375 C5367 0.929 . S
H5376 C5384 0.929 . S
H5377 C5386 0.930 . S
H5378 C5388 0.930 . S
H5379 C5391 0.929 . S
H5380 C5394 0.930 . S
H5381 C5396 0.960 . S
H5382 C5396 0.960 . S
H5383 C5396 0.960 . S
C5384 H5376 0.929 . S
C5384 C5385 1.377 . S
C5384 C5386 1.384 . S
C5385 C5384 1.377 . S
C5385 C5391 1.390 . S
C5386 H5377 0.930 . S
C5386 C5384 1.384 . S
C5386 C5387 1.372 . S
C5387 C5386 1.372 . S
C5387 C5388 1.400 . S
C5387 C5392 1.490 . S
C5388 H5378 0.930 . S
C5388 C5387 1.400 . S
C5388 C5391 1.386 . S
H5389 C5405 0.930 . S
H5390 C5406 0.931 . S
C5391 H5379 0.929 . S
C5391 C5385 1.390 . S
C5391 C5388 1.386 . S
C5392 C5387 1.490 . S
C5392 C5394 1.395 . S
C5392 C5395 1.403 . S
H5393 C5399 0.930 . S
C5394 H5380 0.930 . S
C5394 C5392 1.395 . S
C5394 C5397 1.403 . S
C5395 C5392 1.403 . S
C5395 C5396 1.524 . S
C5395 C5399 1.400 . S
C5396 H5381 0.960 . S
C5396 H5382 0.960 . S
C5396 H5383 0.960 . S
C5396 C5395 1.524 . S
C5397 C5394 1.403 . S
C5397 C5398 1.392 . S
C5397 C5401 1.495 . S
C5398 C5397 1.392 . S
C5398 C5399 1.385 . S
C5398 C5400 1.478 . S
C5399 H5393 0.930 . S
C5399 C5395 1.400 . S
C5399 C5398 1.385 . S
C5400 C5398 1.478 . S
C5400 C5402 1.381 . S
C5400 C5406 1.383 . S
C5401 C5397 1.495 . S
C5401 H5407 0.959 . S
C5401 H5408 0.961 . S
C5401 H5409 0.960 . S
C5402 C5400 1.381 . S
C5402 C5403 1.394 . S
C5402 H5410 0.930 . S
C5403 C5402 1.394 . S
C5403 C5404 1.383 . S
C5403 H5411 0.929 . S
C5404 C5403 1.383 . S
C5404 C5405 1.377 . S
C5405 H5389 0.930 . S
C5405 C5404 1.377 . S
C5405 C5406 1.379 . S
C5406 H5390 0.931 . S
C5406 C5400 1.383 . S
C5406 C5405 1.379 . S
H5407 C5401 0.959 . S
H5408 C5401 0.961 . S
H5409 C5401 0.960 . S
H5410 C5402 0.930 . S
H5411 C5403 0.929 . S
H5412 C5420 0.929 . S
H5413 C5422 0.930 . S
H5414 C5424 0.930 . S
H5415 C5427 0.929 . S
H5416 C5430 0.930 . S
H5417 C5432 0.960 . S
H5418 C5432 0.960 . S
H5419 C5432 0.960 . S
C5420 H5412 0.929 . S
C5420 C5421 1.377 . S
C5420 C5422 1.384 . S
C5421 C5420 1.377 . S
C5421 C5427 1.390 . S
C5422 H5413 0.930 . S
C5422 C5420 1.384 . S
C5422 C5423 1.372 . S
C5423 C5422 1.372 . S
C5423 C5424 1.400 . S
C5423 C5428 1.490 . S
C5424 H5414 0.930 . S
C5424 C5423 1.400 . S
C5424 C5427 1.386 . S
H5425 C5441 0.930 . S
H5426 C5442 0.931 . S
C5427 H5415 0.929 . S
C5427 C5421 1.390 . S
C5427 C5424 1.386 . S
C5428 C5423 1.490 . S
C5428 C5430 1.395 . S
C5428 C5431 1.403 . S
H5429 C5435 0.930 . S
C5430 H5416 0.930 . S
C5430 C5428 1.395 . S
C5430 C5433 1.403 . S
C5431 C5428 1.403 . S
C5431 C5432 1.524 . S
C5431 C5435 1.400 . S
C5432 H5417 0.960 . S
C5432 H5418 0.960 . S
C5432 H5419 0.960 . S
C5432 C5431 1.524 . S
C5433 C5430 1.403 . S
C5433 C5434 1.392 . S
C5433 C5437 1.495 . S
C5434 C5433 1.392 . S
C5434 C5435 1.385 . S
C5434 C5436 1.478 . S
C5435 H5429 0.930 . S
C5435 C5431 1.400 . S
C5435 C5434 1.385 . S
C5436 C5434 1.478 . S
C5436 C5438 1.381 . S
C5436 C5442 1.383 . S
C5437 C5433 1.495 . S
C5437 H5443 0.959 . S
C5437 H5444 0.961 . S
C5437 H5445 0.960 . S
C5438 C5436 1.381 . S
C5438 C5439 1.394 . S
C5438 H5446 0.930 . S
C5439 C5438 1.394 . S
C5439 C5440 1.383 . S
C5439 H5447 0.929 . S
C5440 C5439 1.383 . S
C5440 C5441 1.377 . S
C5441 H5425 0.930 . S
C5441 C5440 1.377 . S
C5441 C5442 1.379 . S
C5442 H5426 0.931 . S
C5442 C5436 1.383 . S
C5442 C5441 1.379 . S
H5443 C5437 0.959 . S
H5444 C5437 0.961 . S
H5445 C5437 0.960 . S
H5446 C5438 0.930 . S
H5447 C5439 0.929 . S
H5448 C5456 0.929 . S
H5449 C5458 0.930 . S
H5450 C5460 0.930 . S
H5451 C5463 0.929 . S
H5452 C5466 0.930 . S
H5453 C5468 0.960 . S
H5454 C5468 0.960 . S
H5455 C5468 0.960 . S
C5456 H5448 0.929 . S
C5456 C5457 1.377 . S
C5456 C5458 1.384 . S
C5457 C5456 1.377 . S
C5457 C5463 1.390 . S
C5458 H5449 0.930 . S
C5458 C5456 1.384 . S
C5458 C5459 1.372 . S
C5459 C5458 1.372 . S
C5459 C5460 1.400 . S
C5459 C5464 1.490 . S
C5460 H5450 0.930 . S
C5460 C5459 1.400 . S
C5460 C5463 1.386 . S
H5461 C5477 0.930 . S
H5462 C5478 0.931 . S
C5463 H5451 0.929 . S
C5463 C5457 1.390 . S
C5463 C5460 1.386 . S
C5464 C5459 1.490 . S
C5464 C5466 1.395 . S
C5464 C5467 1.403 . S
H5465 C5471 0.930 . S
C5466 H5452 0.930 . S
C5466 C5464 1.395 . S
C5466 C5469 1.403 . S
C5467 C5464 1.403 . S
C5467 C5468 1.524 . S
C5467 C5471 1.400 . S
C5468 H5453 0.960 . S
C5468 H5454 0.960 . S
C5468 H5455 0.960 . S
C5468 C5467 1.524 . S
C5469 C5466 1.403 . S
C5469 C5470 1.392 . S
C5469 C5473 1.495 . S
C5470 C5469 1.392 . S
C5470 C5471 1.385 . S
C5470 C5472 1.478 . S
C5471 H5465 0.930 . S
C5471 C5467 1.400 . S
C5471 C5470 1.385 . S
C5472 C5470 1.478 . S
C5472 C5474 1.381 . S
C5472 C5478 1.383 . S
C5473 C5469 1.495 . S
C5473 H5479 0.959 . S
C5473 H5480 0.961 . S
C5473 H5481 0.960 . S
C5474 C5472 1.381 . S
C5474 C5475 1.394 . S
C5474 H5482 0.930 . S
C5475 C5474 1.394 . S
C5475 C5476 1.383 . S
C5475 H5483 0.929 . S
C5476 C5475 1.383 . S
C5476 C5477 1.377 . S
C5477 H5461 0.930 . S
C5477 C5476 1.377 . S
C5477 C5478 1.379 . S
C5478 H5462 0.931 . S
C5478 C5472 1.383 . S
C5478 C5477 1.379 . S
H5479 C5473 0.959 . S
H5480 C5473 0.961 . S
H5481 C5473 0.960 . S
H5482 C5474 0.930 . S
H5483 C5475 0.929 . S
H5484 C5492 0.929 . S
H5485 C5494 0.930 . S
H5486 C5496 0.930 . S
H5487 C5499 0.929 . S
H5488 C5502 0.930 . S
H5489 C5504 0.960 . S
H5490 C5504 0.960 . S
H5491 C5504 0.960 . S
C5492 H5484 0.929 . S
C5492 C5493 1.377 . S
C5492 C5494 1.384 . S
C5493 C5492 1.377 . S
C5493 C5499 1.390 . S
C5494 H5485 0.930 . S
C5494 C5492 1.384 . S
C5494 C5495 1.372 . S
C5495 C5494 1.372 . S
C5495 C5496 1.400 . S
C5495 C5500 1.490 . S
C5496 H5486 0.930 . S
C5496 C5495 1.400 . S
C5496 C5499 1.386 . S
H5497 C5513 0.930 . S
H5498 C5514 0.931 . S
C5499 H5487 0.929 . S
C5499 C5493 1.390 . S
C5499 C5496 1.386 . S
C5500 C5495 1.490 . S
C5500 C5502 1.395 . S
C5500 C5503 1.403 . S
H5501 C5507 0.930 . S
C5502 H5488 0.930 . S
C5502 C5500 1.395 . S
C5502 C5505 1.403 . S
C5503 C5500 1.403 . S
C5503 C5504 1.524 . S
C5503 C5507 1.400 . S
C5504 H5489 0.960 . S
C5504 H5490 0.960 . S
C5504 H5491 0.960 . S
C5504 C5503 1.524 . S
C5505 C5502 1.403 . S
C5505 C5506 1.392 . S
C5505 C5509 1.495 . S
C5506 C5505 1.392 . S
C5506 C5507 1.385 . S
C5506 C5508 1.478 . S
C5507 H5501 0.930 . S
C5507 C5503 1.400 . S
C5507 C5506 1.385 . S
C5508 C5506 1.478 . S
C5508 C5510 1.381 . S
C5508 C5514 1.383 . S
C5509 C5505 1.495 . S
C5509 H5515 0.959 . S
C5509 H5516 0.961 . S
C5509 H5517 0.960 . S
C5510 C5508 1.381 . S
C5510 C5511 1.394 . S
C5510 H5518 0.930 . S
C5511 C5510 1.394 . S
C5511 C5512 1.383 . S
C5511 H5519 0.929 . S
C5512 C5511 1.383 . S
C5512 C5513 1.377 . S
C5513 H5497 0.930 . S
C5513 C5512 1.377 . S
C5513 C5514 1.379 . S
C5514 H5498 0.931 . S
C5514 C5508 1.383 . S
C5514 C5513 1.379 . S
H5515 C5509 0.959 . S
H5516 C5509 0.961 . S
H5517 C5509 0.960 . S
H5518 C5510 0.930 . S
H5519 C5511 0.929 . S
H5520 C5528 0.929 . S
H5521 C5530 0.930 . S
H5522 C5532 0.930 . S
H5523 C5535 0.929 . S
H5524 C5538 0.930 . S
H5525 C5540 0.960 . S
H5526 C5540 0.960 . S
H5527 C5540 0.960 . S
C5528 H5520 0.929 . S
C5528 C5529 1.377 . S
C5528 C5530 1.384 . S
C5529 C5528 1.377 . S
C5529 C5535 1.390 . S
C5530 H5521 0.930 . S
C5530 C5528 1.384 . S
C5530 C5531 1.372 . S
C5531 C5530 1.372 . S
C5531 C5532 1.400 . S
C5531 C5536 1.490 . S
C5532 H5522 0.930 . S
C5532 C5531 1.400 . S
C5532 C5535 1.386 . S
H5533 C5549 0.930 . S
H5534 C5550 0.931 . S
C5535 H5523 0.929 . S
C5535 C5529 1.390 . S
C5535 C5532 1.386 . S
C5536 C5531 1.490 . S
C5536 C5538 1.395 . S
C5536 C5539 1.403 . S
H5537 C5543 0.930 . S
C5538 H5524 0.930 . S
C5538 C5536 1.395 . S
C5538 C5541 1.403 . S
C5539 C5536 1.403 . S
C5539 C5540 1.524 . S
C5539 C5543 1.400 . S
C5540 H5525 0.960 . S
C5540 H5526 0.960 . S
C5540 H5527 0.960 . S
C5540 C5539 1.524 . S
C5541 C5538 1.403 . S
C5541 C5542 1.392 . S
C5541 C5545 1.495 . S
C5542 C5541 1.392 . S
C5542 C5543 1.385 . S
C5542 C5544 1.478 . S
C5543 H5537 0.930 . S
C5543 C5539 1.400 . S
C5543 C5542 1.385 . S
C5544 C5542 1.478 . S
C5544 C5546 1.381 . S
C5544 C5550 1.383 . S
C5545 C5541 1.495 . S
C5545 H5551 0.959 . S
C5545 H5552 0.961 . S
C5545 H5553 0.960 . S
C5546 C5544 1.381 . S
C5546 C5547 1.394 . S
C5546 H5554 0.930 . S
C5547 C5546 1.394 . S
C5547 C5548 1.383 . S
C5547 H5555 0.929 . S
C5548 C5547 1.383 . S
C5548 C5549 1.377 . S
C5549 H5533 0.930 . S
C5549 C5548 1.377 . S
C5549 C5550 1.379 . S
C5550 H5534 0.931 . S
C5550 C5544 1.383 . S
C5550 C5549 1.379 . S
H5551 C5545 0.959 . S
H5552 C5545 0.961 . S
H5553 C5545 0.960 . S
H5554 C5546 0.930 . S
H5555 C5547 0.929 . S
H5556 C5564 0.929 . S
H5557 C5566 0.930 . S
H5558 C5568 0.930 . S
H5559 C5571 0.929 . S
H5560 C5574 0.930 . S
H5561 C5576 0.960 . S
H5562 C5576 0.960 . S
H5563 C5576 0.960 . S
C5564 H5556 0.929 . S
C5564 C5565 1.377 . S
C5564 C5566 1.384 . S
C5565 C5564 1.377 . S
C5565 C5571 1.390 . S
C5566 H5557 0.930 . S
C5566 C5564 1.384 . S
C5566 C5567 1.372 . S
C5567 C5566 1.372 . S
C5567 C5568 1.400 . S
C5567 C5572 1.490 . S
C5568 H5558 0.930 . S
C5568 C5567 1.400 . S
C5568 C5571 1.386 . S
H5569 C5585 0.930 . S
H5570 C5586 0.931 . S
C5571 H5559 0.929 . S
C5571 C5565 1.390 . S
C5571 C5568 1.386 . S
C5572 C5567 1.490 . S
C5572 C5574 1.395 . S
C5572 C5575 1.403 . S
H5573 C5579 0.930 . S
C5574 H5560 0.930 . S
C5574 C5572 1.395 . S
C5574 C5577 1.403 . S
C5575 C5572 1.403 . S
C5575 C5576 1.524 . S
C5575 C5579 1.400 . S
C5576 H5561 0.960 . S
C5576 H5562 0.960 . S
C5576 H5563 0.960 . S
C5576 C5575 1.524 . S
C5577 C5574 1.403 . S
C5577 C5578 1.392 . S
C5577 C5581 1.495 . S
C5578 C5577 1.392 . S
C5578 C5579 1.385 . S
C5578 C5580 1.478 . S
C5579 H5573 0.930 . S
C5579 C5575 1.400 . S
C5579 C5578 1.385 . S
C5580 C5578 1.478 . S
C5580 C5582 1.381 . S
C5580 C5586 1.383 . S
C5581 C5577 1.495 . S
C5581 H5587 0.959 . S
C5581 H5588 0.961 . S
C5581 H5589 0.960 . S
C5582 C5580 1.381 . S
C5582 C5583 1.394 . S
C5582 H5590 0.930 . S
C5583 C5582 1.394 . S
C5583 C5584 1.383 . S
C5583 H5591 0.929 . S
C5584 C5583 1.383 . S
C5584 C5585 1.377 . S
C5585 H5569 0.930 . S
C5585 C5584 1.377 . S
C5585 C5586 1.379 . S
C5586 H5570 0.931 . S
C5586 C5580 1.383 . S
C5586 C5585 1.379 . S
H5587 C5581 0.959 . S
H5588 C5581 0.961 . S
H5589 C5581 0.960 . S
H5590 C5582 0.930 . S
H5591 C5583 0.929 . S
H5592 C5600 0.929 . S
H5593 C5602 0.930 . S
H5594 C5604 0.930 . S
H5595 C5607 0.929 . S
H5596 C5610 0.930 . S
H5597 C5612 0.960 . S
H5598 C5612 0.960 . S
H5599 C5612 0.960 . S
C5600 H5592 0.929 . S
C5600 C5601 1.377 . S
C5600 C5602 1.384 . S
C5601 C5600 1.377 . S
C5601 C5607 1.390 . S
C5602 H5593 0.930 . S
C5602 C5600 1.384 . S
C5602 C5603 1.372 . S
C5603 C5602 1.372 . S
C5603 C5604 1.400 . S
C5603 C5608 1.490 . S
C5604 H5594 0.930 . S
C5604 C5603 1.400 . S
C5604 C5607 1.386 . S
H5605 C5621 0.930 . S
H5606 C5622 0.931 . S
C5607 H5595 0.929 . S
C5607 C5601 1.390 . S
C5607 C5604 1.386 . S
C5608 C5603 1.490 . S
C5608 C5610 1.395 . S
C5608 C5611 1.403 . S
H5609 C5615 0.930 . S
C5610 H5596 0.930 . S
C5610 C5608 1.395 . S
C5610 C5613 1.403 . S
C5611 C5608 1.403 . S
C5611 C5612 1.524 . S
C5611 C5615 1.400 . S
C5612 H5597 0.960 . S
C5612 H5598 0.960 . S
C5612 H5599 0.960 . S
C5612 C5611 1.524 . S
C5613 C5610 1.403 . S
C5613 C5614 1.392 . S
C5613 C5617 1.495 . S
C5614 C5613 1.392 . S
C5614 C5615 1.385 . S
C5614 C5616 1.478 . S
C5615 H5609 0.930 . S
C5615 C5611 1.400 . S
C5615 C5614 1.385 . S
C5616 C5614 1.478 . S
C5616 C5618 1.381 . S
C5616 C5622 1.383 . S
C5617 C5613 1.495 . S
C5617 H5623 0.959 . S
C5617 H5624 0.961 . S
C5617 H5625 0.960 . S
C5618 C5616 1.381 . S
C5618 C5619 1.394 . S
C5618 H5626 0.930 . S
C5619 C5618 1.394 . S
C5619 C5620 1.383 . S
C5619 H5627 0.929 . S
C5620 C5619 1.383 . S
C5620 C5621 1.377 . S
C5621 H5605 0.930 . S
C5621 C5620 1.377 . S
C5621 C5622 1.379 . S
C5622 H5606 0.931 . S
C5622 C5616 1.383 . S
C5622 C5621 1.379 . S
H5623 C5617 0.959 . S
H5624 C5617 0.961 . S
H5625 C5617 0.960 . S
H5626 C5618 0.930 . S
H5627 C5619 0.929 . S
H5628 C5636 0.929 . S
H5629 C5638 0.930 . S
H5630 C5640 0.930 . S
H5631 C5643 0.929 . S
H5632 C5646 0.930 . S
H5633 C5648 0.960 . S
H5634 C5648 0.960 . S
H5635 C5648 0.960 . S
C5636 H5628 0.929 . S
C5636 C5637 1.377 . S
C5636 C5638 1.384 . S
C5637 C5636 1.377 . S
C5637 C5643 1.390 . S
C5638 H5629 0.930 . S
C5638 C5636 1.384 . S
C5638 C5639 1.372 . S
C5639 C5638 1.372 . S
C5639 C5640 1.400 . S
C5639 C5644 1.490 . S
C5640 H5630 0.930 . S
C5640 C5639 1.400 . S
C5640 C5643 1.386 . S
H5641 C5657 0.930 . S
H5642 C5658 0.931 . S
C5643 H5631 0.929 . S
C5643 C5637 1.390 . S
C5643 C5640 1.386 . S
C5644 C5639 1.490 . S
C5644 C5646 1.395 . S
C5644 C5647 1.403 . S
H5645 C5651 0.930 . S
C5646 H5632 0.930 . S
C5646 C5644 1.395 . S
C5646 C5649 1.403 . S
C5647 C5644 1.403 . S
C5647 C5648 1.524 . S
C5647 C5651 1.400 . S
C5648 H5633 0.960 . S
C5648 H5634 0.960 . S
C5648 H5635 0.960 . S
C5648 C5647 1.524 . S
C5649 C5646 1.403 . S
C5649 C5650 1.392 . S
C5649 C5653 1.495 . S
C5650 C5649 1.392 . S
C5650 C5651 1.385 . S
C5650 C5652 1.478 . S
C5651 H5645 0.930 . S
C5651 C5647 1.400 . S
C5651 C5650 1.385 . S
C5652 C5650 1.478 . S
C5652 C5654 1.381 . S
C5652 C5658 1.383 . S
C5653 C5649 1.495 . S
C5653 H5659 0.959 . S
C5653 H5660 0.961 . S
C5653 H5661 0.960 . S
C5654 C5652 1.381 . S
C5654 C5655 1.394 . S
C5654 H5662 0.930 . S
C5655 C5654 1.394 . S
C5655 C5656 1.383 . S
C5655 H5663 0.929 . S
C5656 C5655 1.383 . S
C5656 C5657 1.377 . S
C5657 H5641 0.930 . S
C5657 C5656 1.377 . S
C5657 C5658 1.379 . S
C5658 H5642 0.931 . S
C5658 C5652 1.383 . S
C5658 C5657 1.379 . S
H5659 C5653 0.959 . S
H5660 C5653 0.961 . S
H5661 C5653 0.960 . S
H5662 C5654 0.930 . S
H5663 C5655 0.929 . S
H5664 C5672 0.929 . S
H5665 C5674 0.930 . S
H5666 C5676 0.930 . S
H5667 C5679 0.929 . S
H5668 C5682 0.930 . S
H5669 C5684 0.960 . S
H5670 C5684 0.960 . S
H5671 C5684 0.960 . S
C5672 H5664 0.929 . S
C5672 C5673 1.377 . S
C5672 C5674 1.384 . S
C5673 C5672 1.377 . S
C5673 C5679 1.390 . S
C5674 H5665 0.930 . S
C5674 C5672 1.384 . S
C5674 C5675 1.372 . S
C5675 C5674 1.372 . S
C5675 C5676 1.400 . S
C5675 C5680 1.490 . S
C5676 H5666 0.930 . S
C5676 C5675 1.400 . S
C5676 C5679 1.386 . S
H5677 C5693 0.930 . S
H5678 C5694 0.931 . S
C5679 H5667 0.929 . S
C5679 C5673 1.390 . S
C5679 C5676 1.386 . S
C5680 C5675 1.490 . S
C5680 C5682 1.395 . S
C5680 C5683 1.403 . S
H5681 C5687 0.930 . S
C5682 H5668 0.930 . S
C5682 C5680 1.395 . S
C5682 C5685 1.403 . S
C5683 C5680 1.403 . S
C5683 C5684 1.524 . S
C5683 C5687 1.400 . S
C5684 H5669 0.960 . S
C5684 H5670 0.960 . S
C5684 H5671 0.960 . S
C5684 C5683 1.524 . S
C5685 C5682 1.403 . S
C5685 C5686 1.392 . S
C5685 C5689 1.495 . S
C5686 C5685 1.392 . S
C5686 C5687 1.385 . S
C5686 C5688 1.478 . S
C5687 H5681 0.930 . S
C5687 C5683 1.400 . S
C5687 C5686 1.385 . S
C5688 C5686 1.478 . S
C5688 C5690 1.381 . S
C5688 C5694 1.383 . S
C5689 C5685 1.495 . S
C5689 H5695 0.959 . S
C5689 H5696 0.961 . S
C5689 H5697 0.960 . S
C5690 C5688 1.381 . S
C5690 C5691 1.394 . S
C5690 H5698 0.930 . S
C5691 C5690 1.394 . S
C5691 C5692 1.383 . S
C5691 H5699 0.929 . S
C5692 C5691 1.383 . S
C5692 C5693 1.377 . S
C5693 H5677 0.930 . S
C5693 C5692 1.377 . S
C5693 C5694 1.379 . S
C5694 H5678 0.931 . S
C5694 C5688 1.383 . S
C5694 C5693 1.379 . S
H5695 C5689 0.959 . S
H5696 C5689 0.961 . S
H5697 C5689 0.960 . S
H5698 C5690 0.930 . S
H5699 C5691 0.929 . S
H5700 C5708 0.929 . S
H5701 C5710 0.930 . S
H5702 C5712 0.930 . S
H5703 C5715 0.929 . S
H5704 C5718 0.930 . S
H5705 C5720 0.960 . S
H5706 C5720 0.960 . S
H5707 C5720 0.960 . S
C5708 H5700 0.929 . S
C5708 C5709 1.377 . S
C5708 C5710 1.384 . S
C5709 C5708 1.377 . S
C5709 C5715 1.390 . S
C5710 H5701 0.930 . S
C5710 C5708 1.384 . S
C5710 C5711 1.372 . S
C5711 C5710 1.372 . S
C5711 C5712 1.400 . S
C5711 C5716 1.490 . S
C5712 H5702 0.930 . S
C5712 C5711 1.400 . S
C5712 C5715 1.386 . S
H5713 C5729 0.930 . S
H5714 C5730 0.931 . S
C5715 H5703 0.929 . S
C5715 C5709 1.390 . S
C5715 C5712 1.386 . S
C5716 C5711 1.490 . S
C5716 C5718 1.395 . S
C5716 C5719 1.403 . S
H5717 C5723 0.930 . S
C5718 H5704 0.930 . S
C5718 C5716 1.395 . S
C5718 C5721 1.403 . S
C5719 C5716 1.403 . S
C5719 C5720 1.524 . S
C5719 C5723 1.400 . S
C5720 H5705 0.960 . S
C5720 H5706 0.960 . S
C5720 H5707 0.960 . S
C5720 C5719 1.524 . S
C5721 C5718 1.403 . S
C5721 C5722 1.392 . S
C5721 C5725 1.495 . S
C5722 C5721 1.392 . S
C5722 C5723 1.385 . S
C5722 C5724 1.478 . S
C5723 H5717 0.930 . S
C5723 C5719 1.400 . S
C5723 C5722 1.385 . S
C5724 C5722 1.478 . S
C5724 C5726 1.381 . S
C5724 C5730 1.383 . S
C5725 C5721 1.495 . S
C5725 H5731 0.959 . S
C5725 H5732 0.961 . S
C5725 H5733 0.960 . S
C5726 C5724 1.381 . S
C5726 C5727 1.394 . S
C5726 H5734 0.930 . S
C5727 C5726 1.394 . S
C5727 C5728 1.383 . S
C5727 H5735 0.929 . S
C5728 C5727 1.383 . S
C5728 C5729 1.377 . S
C5729 H5713 0.930 . S
C5729 C5728 1.377 . S
C5729 C5730 1.379 . S
C5730 H5714 0.931 . S
C5730 C5724 1.383 . S
C5730 C5729 1.379 . S
H5731 C5725 0.959 . S
H5732 C5725 0.961 . S
H5733 C5725 0.960 . S
H5734 C5726 0.930 . S
H5735 C5727 0.929 . S
H5736 C5744 0.929 . S
H5737 C5746 0.930 . S
H5738 C5748 0.930 . S
H5739 C5751 0.929 . S
H5740 C5754 0.930 . S
H5741 C5756 0.960 . S
H5742 C5756 0.960 . S
H5743 C5756 0.960 . S
C5744 H5736 0.929 . S
C5744 C5745 1.377 . S
C5744 C5746 1.384 . S
C5745 C5744 1.377 . S
C5745 C5751 1.390 . S
C5746 H5737 0.930 . S
C5746 C5744 1.384 . S
C5746 C5747 1.372 . S
C5747 C5746 1.372 . S
C5747 C5748 1.400 . S
C5747 C5752 1.490 . S
C5748 H5738 0.930 . S
C5748 C5747 1.400 . S
C5748 C5751 1.386 . S
H5749 C5765 0.930 . S
H5750 C5766 0.931 . S
C5751 H5739 0.929 . S
C5751 C5745 1.390 . S
C5751 C5748 1.386 . S
C5752 C5747 1.490 . S
C5752 C5754 1.395 . S
C5752 C5755 1.403 . S
H5753 C5759 0.930 . S
C5754 H5740 0.930 . S
C5754 C5752 1.395 . S
C5754 C5757 1.403 . S
C5755 C5752 1.403 . S
C5755 C5756 1.524 . S
C5755 C5759 1.400 . S
C5756 H5741 0.960 . S
C5756 H5742 0.960 . S
C5756 H5743 0.960 . S
C5756 C5755 1.524 . S
C5757 C5754 1.403 . S
C5757 C5758 1.392 . S
C5757 C5761 1.495 . S
C5758 C5757 1.392 . S
C5758 C5759 1.385 . S
C5758 C5760 1.478 . S
C5759 H5753 0.930 . S
C5759 C5755 1.400 . S
C5759 C5758 1.385 . S
C5760 C5758 1.478 . S
C5760 C5762 1.381 . S
C5760 C5766 1.383 . S
C5761 C5757 1.495 . S
C5761 H5767 0.959 . S
C5761 H5768 0.961 . S
C5761 H5769 0.960 . S
C5762 C5760 1.381 . S
C5762 C5763 1.394 . S
C5762 H5770 0.930 . S
C5763 C5762 1.394 . S
C5763 C5764 1.383 . S
C5763 H5771 0.929 . S
C5764 C5763 1.383 . S
C5764 C5765 1.377 . S
C5765 H5749 0.930 . S
C5765 C5764 1.377 . S
C5765 C5766 1.379 . S
C5766 H5750 0.931 . S
C5766 C5760 1.383 . S
C5766 C5765 1.379 . S
H5767 C5761 0.959 . S
H5768 C5761 0.961 . S
H5769 C5761 0.960 . S
H5770 C5762 0.930 . S
H5771 C5763 0.929 . S
H5772 C5780 0.929 . S
H5773 C5782 0.930 . S
H5774 C5784 0.930 . S
H5775 C5787 0.929 . S
H5776 C5790 0.930 . S
H5777 C5792 0.960 . S
H5778 C5792 0.960 . S
H5779 C5792 0.960 . S
C5780 H5772 0.929 . S
C5780 C5781 1.377 . S
C5780 C5782 1.384 . S
C5781 C5780 1.377 . S
C5781 C5787 1.390 . S
C5782 H5773 0.930 . S
C5782 C5780 1.384 . S
C5782 C5783 1.372 . S
C5783 C5782 1.372 . S
C5783 C5784 1.400 . S
C5783 C5788 1.490 . S
C5784 H5774 0.930 . S
C5784 C5783 1.400 . S
C5784 C5787 1.386 . S
H5785 C5801 0.930 . S
H5786 C5802 0.931 . S
C5787 H5775 0.929 . S
C5787 C5781 1.390 . S
C5787 C5784 1.386 . S
C5788 C5783 1.490 . S
C5788 C5790 1.395 . S
C5788 C5791 1.403 . S
H5789 C5795 0.930 . S
C5790 H5776 0.930 . S
C5790 C5788 1.395 . S
C5790 C5793 1.403 . S
C5791 C5788 1.403 . S
C5791 C5792 1.524 . S
C5791 C5795 1.400 . S
C5792 H5777 0.960 . S
C5792 H5778 0.960 . S
C5792 H5779 0.960 . S
C5792 C5791 1.524 . S
C5793 C5790 1.403 . S
C5793 C5794 1.392 . S
C5793 C5797 1.495 . S
C5794 C5793 1.392 . S
C5794 C5795 1.385 . S
C5794 C5796 1.478 . S
C5795 H5789 0.930 . S
C5795 C5791 1.400 . S
C5795 C5794 1.385 . S
C5796 C5794 1.478 . S
C5796 C5798 1.381 . S
C5796 C5802 1.383 . S
C5797 C5793 1.495 . S
C5797 H5803 0.959 . S
C5797 H5804 0.961 . S
C5797 H5805 0.960 . S
C5798 C5796 1.381 . S
C5798 C5799 1.394 . S
C5798 H5806 0.930 . S
C5799 C5798 1.394 . S
C5799 C5800 1.383 . S
C5799 H5807 0.929 . S
C5800 C5799 1.383 . S
C5800 C5801 1.377 . S
C5801 H5785 0.930 . S
C5801 C5800 1.377 . S
C5801 C5802 1.379 . S
C5802 H5786 0.931 . S
C5802 C5796 1.383 . S
C5802 C5801 1.379 . S
H5803 C5797 0.959 . S
H5804 C5797 0.961 . S
H5805 C5797 0.960 . S
H5806 C5798 0.930 . S
H5807 C5799 0.929 . S
H5808 C5816 0.929 . S
H5809 C5818 0.930 . S
H5810 C5820 0.930 . S
H5811 C5823 0.929 . S
H5812 C5826 0.930 . S
H5813 C5828 0.960 . S
H5814 C5828 0.960 . S
H5815 C5828 0.960 . S
C5816 H5808 0.929 . S
C5816 C5817 1.377 . S
C5816 C5818 1.384 . S
C5817 C5816 1.377 . S
C5817 C5823 1.390 . S
C5818 H5809 0.930 . S
C5818 C5816 1.384 . S
C5818 C5819 1.372 . S
C5819 C5818 1.372 . S
C5819 C5820 1.400 . S
C5819 C5824 1.490 . S
C5820 H5810 0.930 . S
C5820 C5819 1.400 . S
C5820 C5823 1.386 . S
H5821 C5837 0.930 . S
H5822 C5838 0.931 . S
C5823 H5811 0.929 . S
C5823 C5817 1.390 . S
C5823 C5820 1.386 . S
C5824 C5819 1.490 . S
C5824 C5826 1.395 . S
C5824 C5827 1.403 . S
H5825 C5831 0.930 . S
C5826 H5812 0.930 . S
C5826 C5824 1.395 . S
C5826 C5829 1.403 . S
C5827 C5824 1.403 . S
C5827 C5828 1.524 . S
C5827 C5831 1.400 . S
C5828 H5813 0.960 . S
C5828 H5814 0.960 . S
C5828 H5815 0.960 . S
C5828 C5827 1.524 . S
C5829 C5826 1.403 . S
C5829 C5830 1.392 . S
C5829 C5833 1.495 . S
C5830 C5829 1.392 . S
C5830 C5831 1.385 . S
C5830 C5832 1.478 . S
C5831 H5825 0.930 . S
C5831 C5827 1.400 . S
C5831 C5830 1.385 . S
C5832 C5830 1.478 . S
C5832 C5834 1.381 . S
C5832 C5838 1.383 . S
C5833 C5829 1.495 . S
C5833 H5839 0.959 . S
C5833 H5840 0.961 . S
C5833 H5841 0.960 . S
C5834 C5832 1.381 . S
C5834 C5835 1.394 . S
C5834 H5842 0.930 . S
C5835 C5834 1.394 . S
C5835 C5836 1.383 . S
C5835 H5843 0.929 . S
C5836 C5835 1.383 . S
C5836 C5837 1.377 . S
C5837 H5821 0.930 . S
C5837 C5836 1.377 . S
C5837 C5838 1.379 . S
C5838 H5822 0.931 . S
C5838 C5832 1.383 . S
C5838 C5837 1.379 . S
H5839 C5833 0.959 . S
H5840 C5833 0.961 . S
H5841 C5833 0.960 . S
H5842 C5834 0.930 . S
H5843 C5835 0.929 . S
H5844 C5852 0.929 . S
H5845 C5854 0.930 . S
H5846 C5856 0.930 . S
H5847 C5859 0.929 . S
H5848 C5862 0.930 . S
H5849 C5864 0.960 . S
H5850 C5864 0.960 . S
H5851 C5864 0.960 . S
C5852 H5844 0.929 . S
C5852 C5853 1.377 . S
C5852 C5854 1.384 . S
C5853 C5852 1.377 . S
C5853 C5859 1.390 . S
C5854 H5845 0.930 . S
C5854 C5852 1.384 . S
C5854 C5855 1.372 . S
C5855 C5854 1.372 . S
C5855 C5856 1.400 . S
C5855 C5860 1.490 . S
C5856 H5846 0.930 . S
C5856 C5855 1.400 . S
C5856 C5859 1.386 . S
H5857 C5873 0.930 . S
H5858 C5874 0.931 . S
C5859 H5847 0.929 . S
C5859 C5853 1.390 . S
C5859 C5856 1.386 . S
C5860 C5855 1.490 . S
C5860 C5862 1.395 . S
C5860 C5863 1.403 . S
H5861 C5867 0.930 . S
C5862 H5848 0.930 . S
C5862 C5860 1.395 . S
C5862 C5865 1.403 . S
C5863 C5860 1.403 . S
C5863 C5864 1.524 . S
C5863 C5867 1.400 . S
C5864 H5849 0.960 . S
C5864 H5850 0.960 . S
C5864 H5851 0.960 . S
C5864 C5863 1.524 . S
C5865 C5862 1.403 . S
C5865 C5866 1.392 . S
C5865 C5869 1.495 . S
C5866 C5865 1.392 . S
C5866 C5867 1.385 . S
C5866 C5868 1.478 . S
C5867 H5861 0.930 . S
C5867 C5863 1.400 . S
C5867 C5866 1.385 . S
C5868 C5866 1.478 . S
C5868 C5870 1.381 . S
C5868 C5874 1.383 . S
C5869 C5865 1.495 . S
C5869 H5875 0.959 . S
C5869 H5876 0.961 . S
C5869 H5877 0.960 . S
C5870 C5868 1.381 . S
C5870 C5871 1.394 . S
C5870 H5878 0.930 . S
C5871 C5870 1.394 . S
C5871 C5872 1.383 . S
C5871 H5879 0.929 . S
C5872 C5871 1.383 . S
C5872 C5873 1.377 . S
C5873 H5857 0.930 . S
C5873 C5872 1.377 . S
C5873 C5874 1.379 . S
C5874 H5858 0.931 . S
C5874 C5868 1.383 . S
C5874 C5873 1.379 . S
H5875 C5869 0.959 . S
H5876 C5869 0.961 . S
H5877 C5869 0.960 . S
H5878 C5870 0.930 . S
H5879 C5871 0.929 . S
H5880 C5888 0.929 . S
H5881 C5890 0.930 . S
H5882 C5892 0.930 . S
H5883 C5895 0.929 . S
H5884 C5898 0.930 . S
H5885 C5900 0.960 . S
H5886 C5900 0.960 . S
H5887 C5900 0.960 . S
C5888 H5880 0.929 . S
C5888 C5889 1.377 . S
C5888 C5890 1.384 . S
C5889 C5888 1.377 . S
C5889 C5895 1.390 . S
C5890 H5881 0.930 . S
C5890 C5888 1.384 . S
C5890 C5891 1.372 . S
C5891 C5890 1.372 . S
C5891 C5892 1.400 . S
C5891 C5896 1.490 . S
C5892 H5882 0.930 . S
C5892 C5891 1.400 . S
C5892 C5895 1.386 . S
H5893 C5909 0.930 . S
H5894 C5910 0.931 . S
C5895 H5883 0.929 . S
C5895 C5889 1.390 . S
C5895 C5892 1.386 . S
C5896 C5891 1.490 . S
C5896 C5898 1.395 . S
C5896 C5899 1.403 . S
H5897 C5903 0.930 . S
C5898 H5884 0.930 . S
C5898 C5896 1.395 . S
C5898 C5901 1.403 . S
C5899 C5896 1.403 . S
C5899 C5900 1.524 . S
C5899 C5903 1.400 . S
C5900 H5885 0.960 . S
C5900 H5886 0.960 . S
C5900 H5887 0.960 . S
C5900 C5899 1.524 . S
C5901 C5898 1.403 . S
C5901 C5902 1.392 . S
C5901 C5905 1.495 . S
C5902 C5901 1.392 . S
C5902 C5903 1.385 . S
C5902 C5904 1.478 . S
C5903 H5897 0.930 . S
C5903 C5899 1.400 . S
C5903 C5902 1.385 . S
C5904 C5902 1.478 . S
C5904 C5906 1.381 . S
C5904 C5910 1.383 . S
C5905 C5901 1.495 . S
C5905 H5911 0.959 . S
C5905 H5912 0.961 . S
C5905 H5913 0.960 . S
C5906 C5904 1.381 . S
C5906 C5907 1.394 . S
C5906 H5914 0.930 . S
C5907 C5906 1.394 . S
C5907 C5908 1.383 . S
C5907 H5915 0.929 . S
C5908 C5907 1.383 . S
C5908 C5909 1.377 . S
C5909 H5893 0.930 . S
C5909 C5908 1.377 . S
C5909 C5910 1.379 . S
C5910 H5894 0.931 . S
C5910 C5904 1.383 . S
C5910 C5909 1.379 . S
H5911 C5905 0.959 . S
H5912 C5905 0.961 . S
H5913 C5905 0.960 . S
H5914 C5906 0.930 . S
H5915 C5907 0.929 . S
H5916 C5924 0.929 . S
H5917 C5926 0.930 . S
H5918 C5928 0.930 . S
H5919 C5931 0.929 . S
H5920 C5934 0.930 . S
H5921 C5936 0.960 . S
H5922 C5936 0.960 . S
H5923 C5936 0.960 . S
C5924 H5916 0.929 . S
C5924 C5925 1.377 . S
C5924 C5926 1.384 . S
C5925 C5924 1.377 . S
C5925 C5931 1.390 . S
C5926 H5917 0.930 . S
C5926 C5924 1.384 . S
C5926 C5927 1.372 . S
C5927 C5926 1.372 . S
C5927 C5928 1.400 . S
C5927 C5932 1.490 . S
C5928 H5918 0.930 . S
C5928 C5927 1.400 . S
C5928 C5931 1.386 . S
H5929 C5945 0.930 . S
H5930 C5946 0.931 . S
C5931 H5919 0.929 . S
C5931 C5925 1.390 . S
C5931 C5928 1.386 . S
C5932 C5927 1.490 . S
C5932 C5934 1.395 . S
C5932 C5935 1.403 . S
H5933 C5939 0.930 . S
C5934 H5920 0.930 . S
C5934 C5932 1.395 . S
C5934 C5937 1.403 . S
C5935 C5932 1.403 . S
C5935 C5936 1.524 . S
C5935 C5939 1.400 . S
C5936 H5921 0.960 . S
C5936 H5922 0.960 . S
C5936 H5923 0.960 . S
C5936 C5935 1.524 . S
C5937 C5934 1.403 . S
C5937 C5938 1.392 . S
C5937 C5941 1.495 . S
C5938 C5937 1.392 . S
C5938 C5939 1.385 . S
C5938 C5940 1.478 . S
C5939 H5933 0.930 . S
C5939 C5935 1.400 . S
C5939 C5938 1.385 . S
C5940 C5938 1.478 . S
C5940 C5942 1.381 . S
C5940 C5946 1.383 . S
C5941 C5937 1.495 . S
C5941 H5947 0.959 . S
C5941 H5948 0.961 . S
C5941 H5949 0.960 . S
C5942 C5940 1.381 . S
C5942 C5943 1.394 . S
C5942 H5950 0.930 . S
C5943 C5942 1.394 . S
C5943 C5944 1.383 . S
C5943 H5951 0.929 . S
C5944 C5943 1.383 . S
C5944 C5945 1.377 . S
C5945 H5929 0.930 . S
C5945 C5944 1.377 . S
C5945 C5946 1.379 . S
C5946 H5930 0.931 . S
C5946 C5940 1.383 . S
C5946 C5945 1.379 . S
H5947 C5941 0.959 . S
H5948 C5941 0.961 . S
H5949 C5941 0.960 . S
H5950 C5942 0.930 . S
H5951 C5943 0.929 . S
H5952 C5960 0.929 . S
H5953 C5962 0.930 . S
H5954 C5964 0.930 . S
H5955 C5967 0.929 . S
H5956 C5970 0.930 . S
H5957 C5972 0.960 . S
H5958 C5972 0.960 . S
H5959 C5972 0.960 . S
C5960 H5952 0.929 . S
C5960 C5961 1.377 . S
C5960 C5962 1.384 . S
C5961 C5960 1.377 . S
C5961 C5967 1.390 . S
C5962 H5953 0.930 . S
C5962 C5960 1.384 . S
C5962 C5963 1.372 . S
C5963 C5962 1.372 . S
C5963 C5964 1.400 . S
C5963 C5968 1.490 . S
C5964 H5954 0.930 . S
C5964 C5963 1.400 . S
C5964 C5967 1.386 . S
H5965 C5981 0.930 . S
H5966 C5982 0.931 . S
C5967 H5955 0.929 . S
C5967 C5961 1.390 . S
C5967 C5964 1.386 . S
C5968 C5963 1.490 . S
C5968 C5970 1.395 . S
C5968 C5971 1.403 . S
H5969 C5975 0.930 . S
C5970 H5956 0.930 . S
C5970 C5968 1.395 . S
C5970 C5973 1.403 . S
C5971 C5968 1.403 . S
C5971 C5972 1.524 . S
C5971 C5975 1.400 . S
C5972 H5957 0.960 . S
C5972 H5958 0.960 . S
C5972 H5959 0.960 . S
C5972 C5971 1.524 . S
C5973 C5970 1.403 . S
C5973 C5974 1.392 . S
C5973 C5977 1.495 . S
C5974 C5973 1.392 . S
C5974 C5975 1.385 . S
C5974 C5976 1.478 . S
C5975 H5969 0.930 . S
C5975 C5971 1.400 . S
C5975 C5974 1.385 . S
C5976 C5974 1.478 . S
C5976 C5978 1.381 . S
C5976 C5982 1.383 . S
C5977 C5973 1.495 . S
C5977 H5983 0.959 . S
C5977 H5984 0.961 . S
C5977 H5985 0.960 . S
C5978 C5976 1.381 . S
C5978 C5979 1.394 . S
C5978 H5986 0.930 . S
C5979 C5978 1.394 . S
C5979 C5980 1.383 . S
C5979 H5987 0.929 . S
C5980 C5979 1.383 . S
C5980 C5981 1.377 . S
C5981 H5965 0.930 . S
C5981 C5980 1.377 . S
C5981 C5982 1.379 . S
C5982 H5966 0.931 . S
C5982 C5976 1.383 . S
C5982 C5981 1.379 . S
H5983 C5977 0.959 . S
H5984 C5977 0.961 . S
H5985 C5977 0.960 . S
H5986 C5978 0.930 . S
H5987 C5979 0.929 . S
H5988 C5996 0.929 . S
H5989 C5998 0.930 . S
H5990 C6000 0.930 . S
H5991 C6003 0.929 . S
H5992 C6006 0.930 . S
H5993 C6008 0.960 . S
H5994 C6008 0.960 . S
H5995 C6008 0.960 . S
C5996 H5988 0.929 . S
C5996 C5997 1.377 . S
C5996 C5998 1.384 . S
C5997 C5996 1.377 . S
C5997 C6003 1.390 . S
C5998 H5989 0.930 . S
C5998 C5996 1.384 . S
C5998 C5999 1.372 . S
C5999 C5998 1.372 . S
C5999 C6000 1.400 . S
C5999 C6004 1.490 . S
C6000 H5990 0.930 . S
C6000 C5999 1.400 . S
C6000 C6003 1.386 . S
H6001 C6017 0.930 . S
H6002 C6018 0.931 . S
C6003 H5991 0.929 . S
C6003 C5997 1.390 . S
C6003 C6000 1.386 . S
C6004 C5999 1.490 . S
C6004 C6006 1.395 . S
C6004 C6007 1.403 . S
H6005 C6011 0.930 . S
C6006 H5992 0.930 . S
C6006 C6004 1.395 . S
C6006 C6009 1.403 . S
C6007 C6004 1.403 . S
C6007 C6008 1.524 . S
C6007 C6011 1.400 . S
C6008 H5993 0.960 . S
C6008 H5994 0.960 . S
C6008 H5995 0.960 . S
C6008 C6007 1.524 . S
C6009 C6006 1.403 . S
C6009 C6010 1.392 . S
C6009 C6013 1.495 . S
C6010 C6009 1.392 . S
C6010 C6011 1.385 . S
C6010 C6012 1.478 . S
C6011 H6005 0.930 . S
C6011 C6007 1.400 . S
C6011 C6010 1.385 . S
C6012 C6010 1.478 . S
C6012 C6014 1.381 . S
C6012 C6018 1.383 . S
C6013 C6009 1.495 . S
C6013 H6019 0.959 . S
C6013 H6020 0.961 . S
C6013 H6021 0.960 . S
C6014 C6012 1.381 . S
C6014 C6015 1.394 . S
C6014 H6022 0.930 . S
C6015 C6014 1.394 . S
C6015 C6016 1.383 . S
C6015 H6023 0.929 . S
C6016 C6015 1.383 . S
C6016 C6017 1.377 . S
C6017 H6001 0.930 . S
C6017 C6016 1.377 . S
C6017 C6018 1.379 . S
C6018 H6002 0.931 . S
C6018 C6012 1.383 . S
C6018 C6017 1.379 . S
H6019 C6013 0.959 . S
H6020 C6013 0.961 . S
H6021 C6013 0.960 . S
H6022 C6014 0.930 . S
H6023 C6015 0.929 . S
H6024 C6032 0.929 . S
H6025 C6034 0.930 . S
H6026 C6036 0.930 . S
H6027 C6039 0.929 . S
H6028 C6042 0.930 . S
H6029 C6044 0.960 . S
H6030 C6044 0.960 . S
H6031 C6044 0.960 . S
C6032 H6024 0.929 . S
C6032 C6033 1.377 . S
C6032 C6034 1.384 . S
C6033 C6032 1.377 . S
C6033 C6039 1.390 . S
C6034 H6025 0.930 . S
C6034 C6032 1.384 . S
C6034 C6035 1.372 . S
C6035 C6034 1.372 . S
C6035 C6036 1.400 . S
C6035 C6040 1.490 . S
C6036 H6026 0.930 . S
C6036 C6035 1.400 . S
C6036 C6039 1.386 . S
H6037 C6053 0.930 . S
H6038 C6054 0.931 . S
C6039 H6027 0.929 . S
C6039 C6033 1.390 . S
C6039 C6036 1.386 . S
C6040 C6035 1.490 . S
C6040 C6042 1.395 . S
C6040 C6043 1.403 . S
H6041 C6047 0.930 . S
C6042 H6028 0.930 . S
C6042 C6040 1.395 . S
C6042 C6045 1.403 . S
C6043 C6040 1.403 . S
C6043 C6044 1.524 . S
C6043 C6047 1.400 . S
C6044 H6029 0.960 . S
C6044 H6030 0.960 . S
C6044 H6031 0.960 . S
C6044 C6043 1.524 . S
C6045 C6042 1.403 . S
C6045 C6046 1.392 . S
C6045 C6049 1.495 . S
C6046 C6045 1.392 . S
C6046 C6047 1.385 . S
C6046 C6048 1.478 . S
C6047 H6041 0.930 . S
C6047 C6043 1.400 . S
C6047 C6046 1.385 . S
C6048 C6046 1.478 . S
C6048 C6050 1.381 . S
C6048 C6054 1.383 . S
C6049 C6045 1.495 . S
C6049 H6055 0.959 . S
C6049 H6056 0.961 . S
C6049 H6057 0.960 . S
C6050 C6048 1.381 . S
C6050 C6051 1.394 . S
C6050 H6058 0.930 . S
C6051 C6050 1.394 . S
C6051 C6052 1.383 . S
C6051 H6059 0.929 . S
C6052 C6051 1.383 . S
C6052 C6053 1.377 . S
C6053 H6037 0.930 . S
C6053 C6052 1.377 . S
C6053 C6054 1.379 . S
C6054 H6038 0.931 . S
C6054 C6048 1.383 . S
C6054 C6053 1.379 . S
H6055 C6049 0.959 . S
H6056 C6049 0.961 . S
H6057 C6049 0.960 . S
H6058 C6050 0.930 . S
H6059 C6051 0.929 . S
H6060 C6068 0.929 . S
H6061 C6070 0.930 . S
H6062 C6072 0.930 . S
H6063 C6075 0.929 . S
H6064 C6078 0.930 . S
H6065 C6080 0.960 . S
H6066 C6080 0.960 . S
H6067 C6080 0.960 . S
C6068 H6060 0.929 . S
C6068 C6069 1.377 . S
C6068 C6070 1.384 . S
C6069 C6068 1.377 . S
C6069 C6075 1.390 . S
C6070 H6061 0.930 . S
C6070 C6068 1.384 . S
C6070 C6071 1.372 . S
C6071 C6070 1.372 . S
C6071 C6072 1.400 . S
C6071 C6076 1.490 . S
C6072 H6062 0.930 . S
C6072 C6071 1.400 . S
C6072 C6075 1.386 . S
H6073 C6089 0.930 . S
H6074 C6090 0.931 . S
C6075 H6063 0.929 . S
C6075 C6069 1.390 . S
C6075 C6072 1.386 . S
C6076 C6071 1.490 . S
C6076 C6078 1.395 . S
C6076 C6079 1.403 . S
H6077 C6083 0.930 . S
C6078 H6064 0.930 . S
C6078 C6076 1.395 . S
C6078 C6081 1.403 . S
C6079 C6076 1.403 . S
C6079 C6080 1.524 . S
C6079 C6083 1.400 . S
C6080 H6065 0.960 . S
C6080 H6066 0.960 . S
C6080 H6067 0.960 . S
C6080 C6079 1.524 . S
C6081 C6078 1.403 . S
C6081 C6082 1.392 . S
C6081 C6085 1.495 . S
C6082 C6081 1.392 . S
C6082 C6083 1.385 . S
C6082 C6084 1.478 . S
C6083 H6077 0.930 . S
C6083 C6079 1.400 . S
C6083 C6082 1.385 . S
C6084 C6082 1.478 . S
C6084 C6086 1.381 . S
C6084 C6090 1.383 . S
C6085 C6081 1.495 . S
C6085 H6091 0.959 . S
C6085 H6092 0.961 . S
C6085 H6093 0.960 . S
C6086 C6084 1.381 . S
C6086 C6087 1.394 . S
C6086 H6094 0.930 . S
C6087 C6086 1.394 . S
C6087 C6088 1.383 . S
C6087 H6095 0.929 . S
C6088 C6087 1.383 . S
C6088 C6089 1.377 . S
C6089 H6073 0.930 . S
C6089 C6088 1.377 . S
C6089 C6090 1.379 . S
C6090 H6074 0.931 . S
C6090 C6084 1.383 . S
C6090 C6089 1.379 . S
H6091 C6085 0.959 . S
H6092 C6085 0.961 . S
H6093 C6085 0.960 . S
H6094 C6086 0.930 . S
H6095 C6087 0.929 . S
H6096 C6104 0.929 . S
H6097 C6106 0.930 . S
H6098 C6108 0.930 . S
H6099 C6111 0.929 . S
H6100 C6114 0.930 . S
H6101 C6116 0.960 . S
H6102 C6116 0.960 . S
H6103 C6116 0.960 . S
C6104 H6096 0.929 . S
C6104 C6105 1.377 . S
C6104 C6106 1.384 . S
C6105 C6104 1.377 . S
C6105 C6111 1.390 . S
C6106 H6097 0.930 . S
C6106 C6104 1.384 . S
C6106 C6107 1.372 . S
C6107 C6106 1.372 . S
C6107 C6108 1.400 . S
C6107 C6112 1.490 . S
C6108 H6098 0.930 . S
C6108 C6107 1.400 . S
C6108 C6111 1.386 . S
H6109 C6125 0.930 . S
H6110 C6126 0.931 . S
C6111 H6099 0.929 . S
C6111 C6105 1.390 . S
C6111 C6108 1.386 . S
C6112 C6107 1.490 . S
C6112 C6114 1.395 . S
C6112 C6115 1.403 . S
H6113 C6119 0.930 . S
C6114 H6100 0.930 . S
C6114 C6112 1.395 . S
C6114 C6117 1.403 . S
C6115 C6112 1.403 . S
C6115 C6116 1.524 . S
C6115 C6119 1.400 . S
C6116 H6101 0.960 . S
C6116 H6102 0.960 . S
C6116 H6103 0.960 . S
C6116 C6115 1.524 . S
C6117 C6114 1.403 . S
C6117 C6118 1.392 . S
C6117 C6121 1.495 . S
C6118 C6117 1.392 . S
C6118 C6119 1.385 . S
C6118 C6120 1.478 . S
C6119 H6113 0.930 . S
C6119 C6115 1.400 . S
C6119 C6118 1.385 . S
C6120 C6118 1.478 . S
C6120 C6122 1.381 . S
C6120 C6126 1.383 . S
C6121 C6117 1.495 . S
C6121 H6127 0.959 . S
C6121 H6128 0.961 . S
C6121 H6129 0.960 . S
C6122 C6120 1.381 . S
C6122 C6123 1.394 . S
C6122 H6130 0.930 . S
C6123 C6122 1.394 . S
C6123 C6124 1.383 . S
C6123 H6131 0.929 . S
C6124 C6123 1.383 . S
C6124 C6125 1.377 . S
C6125 H6109 0.930 . S
C6125 C6124 1.377 . S
C6125 C6126 1.379 . S
C6126 H6110 0.931 . S
C6126 C6120 1.383 . S
C6126 C6125 1.379 . S
H6127 C6121 0.959 . S
H6128 C6121 0.961 . S
H6129 C6121 0.960 . S
H6130 C6122 0.930 . S
H6131 C6123 0.929 . S
H6132 C6140 0.929 . S
H6133 C6142 0.930 . S
H6134 C6144 0.930 . S
H6135 C6147 0.929 . S
H6136 C6150 0.930 . S
H6137 C6152 0.960 . S
H6138 C6152 0.960 . S
H6139 C6152 0.960 . S
C6140 H6132 0.929 . S
C6140 C6141 1.377 . S
C6140 C6142 1.384 . S
C6141 C6140 1.377 . S
C6141 C6147 1.390 . S
C6142 H6133 0.930 . S
C6142 C6140 1.384 . S
C6142 C6143 1.372 . S
C6143 C6142 1.372 . S
C6143 C6144 1.400 . S
C6143 C6148 1.490 . S
C6144 H6134 0.930 . S
C6144 C6143 1.400 . S
C6144 C6147 1.386 . S
H6145 C6161 0.930 . S
H6146 C6162 0.931 . S
C6147 H6135 0.929 . S
C6147 C6141 1.390 . S
C6147 C6144 1.386 . S
C6148 C6143 1.490 . S
C6148 C6150 1.395 . S
C6148 C6151 1.403 . S
H6149 C6155 0.930 . S
C6150 H6136 0.930 . S
C6150 C6148 1.395 . S
C6150 C6153 1.403 . S
C6151 C6148 1.403 . S
C6151 C6152 1.524 . S
C6151 C6155 1.400 . S
C6152 H6137 0.960 . S
C6152 H6138 0.960 . S
C6152 H6139 0.960 . S
C6152 C6151 1.524 . S
C6153 C6150 1.403 . S
C6153 C6154 1.392 . S
C6153 C6157 1.495 . S
C6154 C6153 1.392 . S
C6154 C6155 1.385 . S
C6154 C6156 1.478 . S
C6155 H6149 0.930 . S
C6155 C6151 1.400 . S
C6155 C6154 1.385 . S
C6156 C6154 1.478 . S
C6156 C6158 1.381 . S
C6156 C6162 1.383 . S
C6157 C6153 1.495 . S
C6157 H6163 0.959 . S
C6157 H6164 0.961 . S
C6157 H6165 0.960 . S
C6158 C6156 1.381 . S
C6158 C6159 1.394 . S
C6158 H6166 0.930 . S
C6159 C6158 1.394 . S
C6159 C6160 1.383 . S
C6159 H6167 0.929 . S
C6160 C6159 1.383 . S
C6160 C6161 1.377 . S
C6161 H6145 0.930 . S
C6161 C6160 1.377 . S
C6161 C6162 1.379 . S
C6162 H6146 0.931 . S
C6162 C6156 1.383 . S
C6162 C6161 1.379 . S
H6163 C6157 0.959 . S
H6164 C6157 0.961 . S
H6165 C6157 0.960 . S
H6166 C6158 0.930 . S
H6167 C6159 0.929 . S
H6168 C6176 0.929 . S
H6169 C6178 0.930 . S
H6170 C6180 0.930 . S
H6171 C6183 0.929 . S
H6172 C6186 0.930 . S
H6173 C6188 0.960 . S
H6174 C6188 0.960 . S
H6175 C6188 0.960 . S
C6176 H6168 0.929 . S
C6176 C6177 1.377 . S
C6176 C6178 1.384 . S
C6177 C6176 1.377 . S
C6177 C6183 1.390 . S
C6178 H6169 0.930 . S
C6178 C6176 1.384 . S
C6178 C6179 1.372 . S
C6179 C6178 1.372 . S
C6179 C6180 1.400 . S
C6179 C6184 1.490 . S
C6180 H6170 0.930 . S
C6180 C6179 1.400 . S
C6180 C6183 1.386 . S
H6181 C6197 0.930 . S
H6182 C6198 0.931 . S
C6183 H6171 0.929 . S
C6183 C6177 1.390 . S
C6183 C6180 1.386 . S
C6184 C6179 1.490 . S
C6184 C6186 1.395 . S
C6184 C6187 1.403 . S
H6185 C6191 0.930 . S
C6186 H6172 0.930 . S
C6186 C6184 1.395 . S
C6186 C6189 1.403 . S
C6187 C6184 1.403 . S
C6187 C6188 1.524 . S
C6187 C6191 1.400 . S
C6188 H6173 0.960 . S
C6188 H6174 0.960 . S
C6188 H6175 0.960 . S
C6188 C6187 1.524 . S
C6189 C6186 1.403 . S
C6189 C6190 1.392 . S
C6189 C6193 1.495 . S
C6190 C6189 1.392 . S
C6190 C6191 1.385 . S
C6190 C6192 1.478 . S
C6191 H6185 0.930 . S
C6191 C6187 1.400 . S
C6191 C6190 1.385 . S
C6192 C6190 1.478 . S
C6192 C6194 1.381 . S
C6192 C6198 1.383 . S
C6193 C6189 1.495 . S
C6193 H6199 0.959 . S
C6193 H6200 0.961 . S
C6193 H6201 0.960 . S
C6194 C6192 1.381 . S
C6194 C6195 1.394 . S
C6194 H6202 0.930 . S
C6195 C6194 1.394 . S
C6195 C6196 1.383 . S
C6195 H6203 0.929 . S
C6196 C6195 1.383 . S
C6196 C6197 1.377 . S
C6197 H6181 0.930 . S
C6197 C6196 1.377 . S
C6197 C6198 1.379 . S
C6198 H6182 0.931 . S
C6198 C6192 1.383 . S
C6198 C6197 1.379 . S
H6199 C6193 0.959 . S
H6200 C6193 0.961 . S
H6201 C6193 0.960 . S
H6202 C6194 0.930 . S
H6203 C6195 0.929 . S
H6204 C6212 0.929 . S
H6205 C6214 0.930 . S
H6206 C6216 0.930 . S
H6207 C6219 0.929 . S
H6208 C6222 0.930 . S
H6209 C6224 0.960 . S
H6210 C6224 0.960 . S
H6211 C6224 0.960 . S
C6212 H6204 0.929 . S
C6212 C6213 1.377 . S
C6212 C6214 1.384 . S
C6213 C6212 1.377 . S
C6213 C6219 1.390 . S
C6214 H6205 0.930 . S
C6214 C6212 1.384 . S
C6214 C6215 1.372 . S
C6215 C6214 1.372 . S
C6215 C6216 1.400 . S
C6215 C6220 1.490 . S
C6216 H6206 0.930 . S
C6216 C6215 1.400 . S
C6216 C6219 1.386 . S
H6217 C6233 0.930 . S
H6218 C6234 0.931 . S
C6219 H6207 0.929 . S
C6219 C6213 1.390 . S
C6219 C6216 1.386 . S
C6220 C6215 1.490 . S
C6220 C6222 1.395 . S
C6220 C6223 1.403 . S
H6221 C6227 0.930 . S
C6222 H6208 0.930 . S
C6222 C6220 1.395 . S
C6222 C6225 1.403 . S
C6223 C6220 1.403 . S
C6223 C6224 1.524 . S
C6223 C6227 1.400 . S
C6224 H6209 0.960 . S
C6224 H6210 0.960 . S
C6224 H6211 0.960 . S
C6224 C6223 1.524 . S
C6225 C6222 1.403 . S
C6225 C6226 1.392 . S
C6225 C6229 1.495 . S
C6226 C6225 1.392 . S
C6226 C6227 1.385 . S
C6226 C6228 1.478 . S
C6227 H6221 0.930 . S
C6227 C6223 1.400 . S
C6227 C6226 1.385 . S
C6228 C6226 1.478 . S
C6228 C6230 1.381 . S
C6228 C6234 1.383 . S
C6229 C6225 1.495 . S
C6229 H6235 0.959 . S
C6229 H6236 0.961 . S
C6229 H6237 0.960 . S
C6230 C6228 1.381 . S
C6230 C6231 1.394 . S
C6230 H6238 0.930 . S
C6231 C6230 1.394 . S
C6231 C6232 1.383 . S
C6231 H6239 0.929 . S
C6232 C6231 1.383 . S
C6232 C6233 1.377 . S
C6233 H6217 0.930 . S
C6233 C6232 1.377 . S
C6233 C6234 1.379 . S
C6234 H6218 0.931 . S
C6234 C6228 1.383 . S
C6234 C6233 1.379 . S
H6235 C6229 0.959 . S
H6236 C6229 0.961 . S
H6237 C6229 0.960 . S
H6238 C6230 0.930 . S
H6239 C6231 0.929 . S
H6240 C6248 0.929 . S
H6241 C6250 0.930 . S
H6242 C6252 0.930 . S
H6243 C6255 0.929 . S
H6244 C6258 0.930 . S
H6245 C6260 0.960 . S
H6246 C6260 0.960 . S
H6247 C6260 0.960 . S
C6248 H6240 0.929 . S
C6248 C6249 1.377 . S
C6248 C6250 1.384 . S
C6249 C6248 1.377 . S
C6249 C6255 1.390 . S
C6250 H6241 0.930 . S
C6250 C6248 1.384 . S
C6250 C6251 1.372 . S
C6251 C6250 1.372 . S
C6251 C6252 1.400 . S
C6251 C6256 1.490 . S
C6252 H6242 0.930 . S
C6252 C6251 1.400 . S
C6252 C6255 1.386 . S
H6253 C6269 0.930 . S
H6254 C6270 0.931 . S
C6255 H6243 0.929 . S
C6255 C6249 1.390 . S
C6255 C6252 1.386 . S
C6256 C6251 1.490 . S
C6256 C6258 1.395 . S
C6256 C6259 1.403 . S
H6257 C6263 0.930 . S
C6258 H6244 0.930 . S
C6258 C6256 1.395 . S
C6258 C6261 1.403 . S
C6259 C6256 1.403 . S
C6259 C6260 1.524 . S
C6259 C6263 1.400 . S
C6260 H6245 0.960 . S
C6260 H6246 0.960 . S
C6260 H6247 0.960 . S
C6260 C6259 1.524 . S
C6261 C6258 1.403 . S
C6261 C6262 1.392 . S
C6261 C6265 1.495 . S
C6262 C6261 1.392 . S
C6262 C6263 1.385 . S
C6262 C6264 1.478 . S
C6263 H6257 0.930 . S
C6263 C6259 1.400 . S
C6263 C6262 1.385 . S
C6264 C6262 1.478 . S
C6264 C6266 1.381 . S
C6264 C6270 1.383 . S
C6265 C6261 1.495 . S
C6265 H6271 0.959 . S
C6265 H6272 0.961 . S
C6265 H6273 0.960 . S
C6266 C6264 1.381 . S
C6266 C6267 1.394 . S
C6266 H6274 0.930 . S
C6267 C6266 1.394 . S
C6267 C6268 1.383 . S
C6267 H6275 0.929 . S
C6268 C6267 1.383 . S
C6268 C6269 1.377 . S
C6269 H6253 0.930 . S
C6269 C6268 1.377 . S
C6269 C6270 1.379 . S
C6270 H6254 0.931 . S
C6270 C6264 1.383 . S
C6270 C6269 1.379 . S
H6271 C6265 0.959 . S
H6272 C6265 0.961 . S
H6273 C6265 0.960 . S
H6274 C6266 0.930 . S
H6275 C6267 0.929 . S
H6276 C6284 0.929 . S
H6277 C6286 0.930 . S
H6278 C6288 0.930 . S
H6279 C6291 0.929 . S
H6280 C6294 0.930 . S
H6281 C6296 0.960 . S
H6282 C6296 0.960 . S
H6283 C6296 0.960 . S
C6284 H6276 0.929 . S
C6284 C6285 1.377 . S
C6284 C6286 1.384 . S
C6285 C6284 1.377 . S
C6285 C6291 1.390 . S
C6286 H6277 0.930 . S
C6286 C6284 1.384 . S
C6286 C6287 1.372 . S
C6287 C6286 1.372 . S
C6287 C6288 1.400 . S
C6287 C6292 1.490 . S
C6288 H6278 0.930 . S
C6288 C6287 1.400 . S
C6288 C6291 1.386 . S
H6289 C6305 0.930 . S
H6290 C6306 0.931 . S
C6291 H6279 0.929 . S
C6291 C6285 1.390 . S
C6291 C6288 1.386 . S
C6292 C6287 1.490 . S
C6292 C6294 1.395 . S
C6292 C6295 1.403 . S
H6293 C6299 0.930 . S
C6294 H6280 0.930 . S
C6294 C6292 1.395 . S
C6294 C6297 1.403 . S
C6295 C6292 1.403 . S
C6295 C6296 1.524 . S
C6295 C6299 1.400 . S
C6296 H6281 0.960 . S
C6296 H6282 0.960 . S
C6296 H6283 0.960 . S
C6296 C6295 1.524 . S
C6297 C6294 1.403 . S
C6297 C6298 1.392 . S
C6297 C6301 1.495 . S
C6298 C6297 1.392 . S
C6298 C6299 1.385 . S
C6298 C6300 1.478 . S
C6299 H6293 0.930 . S
C6299 C6295 1.400 . S
C6299 C6298 1.385 . S
C6300 C6298 1.478 . S
C6300 C6302 1.381 . S
C6300 C6306 1.383 . S
C6301 C6297 1.495 . S
C6301 H6307 0.959 . S
C6301 H6308 0.961 . S
C6301 H6309 0.960 . S
C6302 C6300 1.381 . S
C6302 C6303 1.394 . S
C6302 H6310 0.930 . S
C6303 C6302 1.394 . S
C6303 C6304 1.383 . S
C6303 H6311 0.929 . S
C6304 C6303 1.383 . S
C6304 C6305 1.377 . S
C6305 H6289 0.930 . S
C6305 C6304 1.377 . S
C6305 C6306 1.379 . S
C6306 H6290 0.931 . S
C6306 C6300 1.383 . S
C6306 C6305 1.379 . S
H6307 C6301 0.959 . S
H6308 C6301 0.961 . S
H6309 C6301 0.960 . S
H6310 C6302 0.930 . S
H6311 C6303 0.929 . S
H6312 C6320 0.929 . S
H6313 C6322 0.930 . S
H6314 C6324 0.930 . S
H6315 C6327 0.929 . S
H6316 C6330 0.930 . S
H6317 C6332 0.960 . S
H6318 C6332 0.960 . S
H6319 C6332 0.960 . S
C6320 H6312 0.929 . S
C6320 C6321 1.377 . S
C6320 C6322 1.384 . S
C6321 C6320 1.377 . S
C6321 C6327 1.390 . S
C6322 H6313 0.930 . S
C6322 C6320 1.384 . S
C6322 C6323 1.372 . S
C6323 C6322 1.372 . S
C6323 C6324 1.400 . S
C6323 C6328 1.490 . S
C6324 H6314 0.930 . S
C6324 C6323 1.400 . S
C6324 C6327 1.386 . S
H6325 C6341 0.930 . S
H6326 C6342 0.931 . S
C6327 H6315 0.929 . S
C6327 C6321 1.390 . S
C6327 C6324 1.386 . S
C6328 C6323 1.490 . S
C6328 C6330 1.395 . S
C6328 C6331 1.403 . S
H6329 C6335 0.930 . S
C6330 H6316 0.930 . S
C6330 C6328 1.395 . S
C6330 C6333 1.403 . S
C6331 C6328 1.403 . S
C6331 C6332 1.524 . S
C6331 C6335 1.400 . S
C6332 H6317 0.960 . S
C6332 H6318 0.960 . S
C6332 H6319 0.960 . S
C6332 C6331 1.524 . S
C6333 C6330 1.403 . S
C6333 C6334 1.392 . S
C6333 C6337 1.495 . S
C6334 C6333 1.392 . S
C6334 C6335 1.385 . S
C6334 C6336 1.478 . S
C6335 H6329 0.930 . S
C6335 C6331 1.400 . S
C6335 C6334 1.385 . S
C6336 C6334 1.478 . S
C6336 C6338 1.381 . S
C6336 C6342 1.383 . S
C6337 C6333 1.495 . S
C6337 H6343 0.959 . S
C6337 H6344 0.961 . S
C6337 H6345 0.960 . S
C6338 C6336 1.381 . S
C6338 C6339 1.394 . S
C6338 H6346 0.930 . S
C6339 C6338 1.394 . S
C6339 C6340 1.383 . S
C6339 H6347 0.929 . S
C6340 C6339 1.383 . S
C6340 C6341 1.377 . S
C6341 H6325 0.930 . S
C6341 C6340 1.377 . S
C6341 C6342 1.379 . S
C6342 H6326 0.931 . S
C6342 C6336 1.383 . S
C6342 C6341 1.379 . S
H6343 C6337 0.959 . S
H6344 C6337 0.961 . S
H6345 C6337 0.960 . S
H6346 C6338 0.930 . S
H6347 C6339 0.929 . S
H6348 C6356 0.929 . S
H6349 C6358 0.930 . S
H6350 C6360 0.930 . S
H6351 C6363 0.929 . S
H6352 C6366 0.930 . S
H6353 C6368 0.960 . S
H6354 C6368 0.960 . S
H6355 C6368 0.960 . S
C6356 H6348 0.929 . S
C6356 C6357 1.377 . S
C6356 C6358 1.384 . S
C6357 C6356 1.377 . S
C6357 C6363 1.390 . S
C6358 H6349 0.930 . S
C6358 C6356 1.384 . S
C6358 C6359 1.372 . S
C6359 C6358 1.372 . S
C6359 C6360 1.400 . S
C6359 C6364 1.490 . S
C6360 H6350 0.930 . S
C6360 C6359 1.400 . S
C6360 C6363 1.386 . S
H6361 C6377 0.930 . S
H6362 C6378 0.931 . S
C6363 H6351 0.929 . S
C6363 C6357 1.390 . S
C6363 C6360 1.386 . S
C6364 C6359 1.490 . S
C6364 C6366 1.395 . S
C6364 C6367 1.403 . S
H6365 C6371 0.930 . S
C6366 H6352 0.930 . S
C6366 C6364 1.395 . S
C6366 C6369 1.403 . S
C6367 C6364 1.403 . S
C6367 C6368 1.524 . S
C6367 C6371 1.400 . S
C6368 H6353 0.960 . S
C6368 H6354 0.960 . S
C6368 H6355 0.960 . S
C6368 C6367 1.524 . S
C6369 C6366 1.403 . S
C6369 C6370 1.392 . S
C6369 C6373 1.495 . S
C6370 C6369 1.392 . S
C6370 C6371 1.385 . S
C6370 C6372 1.478 . S
C6371 H6365 0.930 . S
C6371 C6367 1.400 . S
C6371 C6370 1.385 . S
C6372 C6370 1.478 . S
C6372 C6374 1.381 . S
C6372 C6378 1.383 . S
C6373 C6369 1.495 . S
C6373 H6379 0.959 . S
C6373 H6380 0.961 . S
C6373 H6381 0.960 . S
C6374 C6372 1.381 . S
C6374 C6375 1.394 . S
C6374 H6382 0.930 . S
C6375 C6374 1.394 . S
C6375 C6376 1.383 . S
C6375 H6383 0.929 . S
C6376 C6375 1.383 . S
C6376 C6377 1.377 . S
C6377 H6361 0.930 . S
C6377 C6376 1.377 . S
C6377 C6378 1.379 . S
C6378 H6362 0.931 . S
C6378 C6372 1.383 . S
C6378 C6377 1.379 . S
H6379 C6373 0.959 . S
H6380 C6373 0.961 . S
H6381 C6373 0.960 . S
H6382 C6374 0.930 . S
H6383 C6375 0.929 . S
H6384 C6392 0.929 . S
H6385 C6394 0.930 . S
H6386 C6396 0.930 . S
H6387 C6399 0.929 . S
H6388 C6402 0.930 . S
H6389 C6404 0.960 . S
H6390 C6404 0.960 . S
H6391 C6404 0.960 . S
C6392 H6384 0.929 . S
C6392 C6393 1.377 . S
C6392 C6394 1.384 . S
C6393 C6392 1.377 . S
C6393 C6399 1.390 . S
C6394 H6385 0.930 . S
C6394 C6392 1.384 . S
C6394 C6395 1.372 . S
C6395 C6394 1.372 . S
C6395 C6396 1.400 . S
C6395 C6400 1.490 . S
C6396 H6386 0.930 . S
C6396 C6395 1.400 . S
C6396 C6399 1.386 . S
H6397 C6413 0.930 . S
H6398 C6414 0.931 . S
C6399 H6387 0.929 . S
C6399 C6393 1.390 . S
C6399 C6396 1.386 . S
C6400 C6395 1.490 . S
C6400 C6402 1.395 . S
C6400 C6403 1.403 . S
H6401 C6407 0.930 . S
C6402 H6388 0.930 . S
C6402 C6400 1.395 . S
C6402 C6405 1.403 . S
C6403 C6400 1.403 . S
C6403 C6404 1.524 . S
C6403 C6407 1.400 . S
C6404 H6389 0.960 . S
C6404 H6390 0.960 . S
C6404 H6391 0.960 . S
C6404 C6403 1.524 . S
C6405 C6402 1.403 . S
C6405 C6406 1.392 . S
C6405 C6409 1.495 . S
C6406 C6405 1.392 . S
C6406 C6407 1.385 . S
C6406 C6408 1.478 . S
C6407 H6401 0.930 . S
C6407 C6403 1.400 . S
C6407 C6406 1.385 . S
C6408 C6406 1.478 . S
C6408 C6410 1.381 . S
C6408 C6414 1.383 . S
C6409 C6405 1.495 . S
C6409 H6415 0.959 . S
C6409 H6416 0.961 . S
C6409 H6417 0.960 . S
C6410 C6408 1.381 . S
C6410 C6411 1.394 . S
C6410 H6418 0.930 . S
C6411 C6410 1.394 . S
C6411 C6412 1.383 . S
C6411 H6419 0.929 . S
C6412 C6411 1.383 . S
C6412 C6413 1.377 . S
C6413 H6397 0.930 . S
C6413 C6412 1.377 . S
C6413 C6414 1.379 . S
C6414 H6398 0.931 . S
C6414 C6408 1.383 . S
C6414 C6413 1.379 . S
H6415 C6409 0.959 . S
H6416 C6409 0.961 . S
H6417 C6409 0.960 . S
H6418 C6410 0.930 . S
H6419 C6411 0.929 . S
H6420 C6428 0.929 . S
H6421 C6430 0.930 . S
H6422 C6432 0.930 . S
H6423 C6435 0.929 . S
H6424 C6438 0.930 . S
H6425 C6440 0.960 . S
H6426 C6440 0.960 . S
H6427 C6440 0.960 . S
C6428 H6420 0.929 . S
C6428 C6429 1.377 . S
C6428 C6430 1.384 . S
C6429 C6428 1.377 . S
C6429 C6435 1.390 . S
C6430 H6421 0.930 . S
C6430 C6428 1.384 . S
C6430 C6431 1.372 . S
C6431 C6430 1.372 . S
C6431 C6432 1.400 . S
C6431 C6436 1.490 . S
C6432 H6422 0.930 . S
C6432 C6431 1.400 . S
C6432 C6435 1.386 . S
H6433 C6449 0.930 . S
H6434 C6450 0.931 . S
C6435 H6423 0.929 . S
C6435 C6429 1.390 . S
C6435 C6432 1.386 . S
C6436 C6431 1.490 . S
C6436 C6438 1.395 . S
C6436 C6439 1.403 . S
H6437 C6443 0.930 . S
C6438 H6424 0.930 . S
C6438 C6436 1.395 . S
C6438 C6441 1.403 . S
C6439 C6436 1.403 . S
C6439 C6440 1.524 . S
C6439 C6443 1.400 . S
C6440 H6425 0.960 . S
C6440 H6426 0.960 . S
C6440 H6427 0.960 . S
C6440 C6439 1.524 . S
C6441 C6438 1.403 . S
C6441 C6442 1.392 . S
C6441 C6445 1.495 . S
C6442 C6441 1.392 . S
C6442 C6443 1.385 . S
C6442 C6444 1.478 . S
C6443 H6437 0.930 . S
C6443 C6439 1.400 . S
C6443 C6442 1.385 . S
C6444 C6442 1.478 . S
C6444 C6446 1.381 . S
C6444 C6450 1.383 . S
C6445 C6441 1.495 . S
C6445 H6451 0.959 . S
C6445 H6452 0.961 . S
C6445 H6453 0.960 . S
C6446 C6444 1.381 . S
C6446 C6447 1.394 . S
C6446 H6454 0.930 . S
C6447 C6446 1.394 . S
C6447 C6448 1.383 . S
C6447 H6455 0.929 . S
C6448 C6447 1.383 . S
C6448 C6449 1.377 . S
C6449 H6433 0.930 . S
C6449 C6448 1.377 . S
C6449 C6450 1.379 . S
C6450 H6434 0.931 . S
C6450 C6444 1.383 . S
C6450 C6449 1.379 . S
H6451 C6445 0.959 . S
H6452 C6445 0.961 . S
H6453 C6445 0.960 . S
H6454 C6446 0.930 . S
H6455 C6447 0.929 . S
H6456 C6464 0.929 . S
H6457 C6466 0.930 . S
H6458 C6468 0.930 . S
H6459 C6471 0.929 . S
H6460 C6474 0.930 . S
H6461 C6476 0.960 . S
H6462 C6476 0.960 . S
H6463 C6476 0.960 . S
C6464 H6456 0.929 . S
C6464 C6465 1.377 . S
C6464 C6466 1.384 . S
C6465 C6464 1.377 . S
C6465 C6471 1.390 . S
C6466 H6457 0.930 . S
C6466 C6464 1.384 . S
C6466 C6467 1.372 . S
C6467 C6466 1.372 . S
C6467 C6468 1.400 . S
C6467 C6472 1.490 . S
C6468 H6458 0.930 . S
C6468 C6467 1.400 . S
C6468 C6471 1.386 . S
H6469 C6485 0.930 . S
H6470 C6486 0.931 . S
C6471 H6459 0.929 . S
C6471 C6465 1.390 . S
C6471 C6468 1.386 . S
C6472 C6467 1.490 . S
C6472 C6474 1.395 . S
C6472 C6475 1.403 . S
H6473 C6479 0.930 . S
C6474 H6460 0.930 . S
C6474 C6472 1.395 . S
C6474 C6477 1.403 . S
C6475 C6472 1.403 . S
C6475 C6476 1.524 . S
C6475 C6479 1.400 . S
C6476 H6461 0.960 . S
C6476 H6462 0.960 . S
C6476 H6463 0.960 . S
C6476 C6475 1.524 . S
C6477 C6474 1.403 . S
C6477 C6478 1.392 . S
C6477 C6481 1.495 . S
C6478 C6477 1.392 . S
C6478 C6479 1.385 . S
C6478 C6480 1.478 . S
C6479 H6473 0.930 . S
C6479 C6475 1.400 . S
C6479 C6478 1.385 . S
C6480 C6478 1.478 . S
C6480 C6482 1.381 . S
C6480 C6486 1.383 . S
C6481 C6477 1.495 . S
C6481 H6487 0.959 . S
C6481 H6488 0.961 . S
C6481 H6489 0.960 . S
C6482 C6480 1.381 . S
C6482 C6483 1.394 . S
C6482 H6490 0.930 . S
C6483 C6482 1.394 . S
C6483 C6484 1.383 . S
C6483 H6491 0.929 . S
C6484 C6483 1.383 . S
C6484 C6485 1.377 . S
C6485 H6469 0.930 . S
C6485 C6484 1.377 . S
C6485 C6486 1.379 . S
C6486 H6470 0.931 . S
C6486 C6480 1.383 . S
C6486 C6485 1.379 . S
H6487 C6481 0.959 . S
H6488 C6481 0.961 . S
H6489 C6481 0.960 . S
H6490 C6482 0.930 . S
H6491 C6483 0.929 . S
H6492 C6500 0.929 . S
H6493 C6502 0.930 . S
H6494 C6504 0.930 . S
H6495 C6507 0.929 . S
H6496 C6510 0.930 . S
H6497 C6512 0.960 . S
H6498 C6512 0.960 . S
H6499 C6512 0.960 . S
C6500 H6492 0.929 . S
C6500 C6501 1.377 . S
C6500 C6502 1.384 . S
C6501 C6500 1.377 . S
C6501 C6507 1.390 . S
C6502 H6493 0.930 . S
C6502 C6500 1.384 . S
C6502 C6503 1.372 . S
C6503 C6502 1.372 . S
C6503 C6504 1.400 . S
C6503 C6508 1.490 . S
C6504 H6494 0.930 . S
C6504 C6503 1.400 . S
C6504 C6507 1.386 . S
H6505 C6521 0.930 . S
H6506 C6522 0.931 . S
C6507 H6495 0.929 . S
C6507 C6501 1.390 . S
C6507 C6504 1.386 . S
C6508 C6503 1.490 . S
C6508 C6510 1.395 . S
C6508 C6511 1.403 . S
H6509 C6515 0.930 . S
C6510 H6496 0.930 . S
C6510 C6508 1.395 . S
C6510 C6513 1.403 . S
C6511 C6508 1.403 . S
C6511 C6512 1.524 . S
C6511 C6515 1.400 . S
C6512 H6497 0.960 . S
C6512 H6498 0.960 . S
C6512 H6499 0.960 . S
C6512 C6511 1.524 . S
C6513 C6510 1.403 . S
C6513 C6514 1.392 . S
C6513 C6517 1.495 . S
C6514 C6513 1.392 . S
C6514 C6515 1.385 . S
C6514 C6516 1.478 . S
C6515 H6509 0.930 . S
C6515 C6511 1.400 . S
C6515 C6514 1.385 . S
C6516 C6514 1.478 . S
C6516 C6518 1.381 . S
C6516 C6522 1.383 . S
C6517 C6513 1.495 . S
C6517 H6523 0.959 . S
C6517 H6524 0.961 . S
C6517 H6525 0.960 . S
C6518 C6516 1.381 . S
C6518 C6519 1.394 . S
C6518 H6526 0.930 . S
C6519 C6518 1.394 . S
C6519 C6520 1.383 . S
C6519 H6527 0.929 . S
C6520 C6519 1.383 . S
C6520 C6521 1.377 . S
C6521 H6505 0.930 . S
C6521 C6520 1.377 . S
C6521 C6522 1.379 . S
C6522 H6506 0.931 . S
C6522 C6516 1.383 . S
C6522 C6521 1.379 . S
H6523 C6517 0.959 . S
H6524 C6517 0.961 . S
H6525 C6517 0.960 . S
H6526 C6518 0.930 . S
H6527 C6519 0.929 . S
H6528 C6536 0.929 . S
H6529 C6538 0.930 . S
H6530 C6540 0.930 . S
H6531 C6543 0.929 . S
H6532 C6546 0.930 . S
H6533 C6548 0.960 . S
H6534 C6548 0.960 . S
H6535 C6548 0.960 . S
C6536 H6528 0.929 . S
C6536 C6537 1.377 . S
C6536 C6538 1.384 . S
C6537 C6536 1.377 . S
C6537 C6543 1.390 . S
C6538 H6529 0.930 . S
C6538 C6536 1.384 . S
C6538 C6539 1.372 . S
C6539 C6538 1.372 . S
C6539 C6540 1.400 . S
C6539 C6544 1.490 . S
C6540 H6530 0.930 . S
C6540 C6539 1.400 . S
C6540 C6543 1.386 . S
H6541 C6557 0.930 . S
H6542 C6558 0.931 . S
C6543 H6531 0.929 . S
C6543 C6537 1.390 . S
C6543 C6540 1.386 . S
C6544 C6539 1.490 . S
C6544 C6546 1.395 . S
C6544 C6547 1.403 . S
H6545 C6551 0.930 . S
C6546 H6532 0.930 . S
C6546 C6544 1.395 . S
C6546 C6549 1.403 1_655 S
C6547 C6544 1.403 . S
C6547 C6548 1.524 . S
C6547 C6551 1.400 1_655 S
C6548 H6533 0.960 . S
C6548 H6534 0.960 . S
C6548 H6535 0.960 . S
C6548 C6547 1.524 . S
C6549 C6546 1.403 1_455 S
C6549 C6550 1.392 . S
C6549 C6553 1.495 . S
C6550 C6549 1.392 . S
C6550 C6551 1.385 . S
C6550 C6552 1.478 . S
C6551 H6545 0.930 . S
C6551 C6547 1.400 1_455 S
C6551 C6550 1.385 . S
C6552 C6550 1.478 . S
C6552 C6554 1.381 . S
C6552 C6558 1.383 . S
C6553 C6549 1.495 . S
C6553 H6559 0.959 . S
C6553 H6560 0.961 . S
C6553 H6561 0.960 . S
C6554 C6552 1.381 . S
C6554 C6555 1.394 . S
C6554 H6562 0.930 . S
C6555 C6554 1.394 . S
C6555 C6556 1.383 . S
C6555 H6563 0.929 . S
C6556 C6555 1.383 . S
C6556 C6557 1.377 . S
C6557 H6541 0.930 . S
C6557 C6556 1.377 . S
C6557 C6558 1.379 . S
C6558 H6542 0.931 . S
C6558 C6552 1.383 . S
C6558 C6557 1.379 . S
H6559 C6553 0.959 . S
H6560 C6553 0.961 . S
H6561 C6553 0.960 . S
H6562 C6554 0.930 . S
H6563 C6555 0.929 . S
H6564 C6572 0.929 . S
H6565 C6574 0.930 . S
H6566 C6576 0.930 . S
H6567 C6579 0.929 . S
H6568 C6582 0.930 . S
H6569 C6584 0.960 . S
H6570 C6584 0.960 . S
H6571 C6584 0.960 . S
C6572 H6564 0.929 . S
C6572 C6573 1.377 . S
C6572 C6574 1.384 . S
C6573 C6572 1.377 . S
C6573 C6579 1.390 . S
C6574 H6565 0.930 . S
C6574 C6572 1.384 . S
C6574 C6575 1.372 . S
C6575 C6574 1.372 . S
C6575 C6576 1.400 . S
C6575 C6580 1.490 . S
C6576 H6566 0.930 . S
C6576 C6575 1.400 . S
C6576 C6579 1.386 . S
H6577 C6593 0.930 . S
H6578 C6594 0.931 . S
C6579 H6567 0.929 . S
C6579 C6573 1.390 . S
C6579 C6576 1.386 . S
C6580 C6575 1.490 . S
C6580 C6582 1.395 . S
C6580 C6583 1.403 . S
H6581 C6587 0.930 . S
C6582 H6568 0.930 . S
C6582 C6580 1.395 . S
C6582 C6585 1.403 1_545 S
C6583 C6580 1.403 . S
C6583 C6584 1.524 . S
C6583 C6587 1.400 1_545 S
C6584 H6569 0.960 . S
C6584 H6570 0.960 . S
C6584 H6571 0.960 . S
C6584 C6583 1.524 . S
C6585 C6582 1.403 1_565 S
C6585 C6586 1.392 . S
C6585 C6589 1.495 . S
C6586 C6585 1.392 . S
C6586 C6587 1.385 . S
C6586 C6588 1.478 . S
C6587 H6581 0.930 . S
C6587 C6583 1.400 1_565 S
C6587 C6586 1.385 . S
C6588 C6586 1.478 . S
C6588 C6590 1.381 . S
C6588 C6594 1.383 . S
C6589 C6585 1.495 . S
C6589 H6595 0.959 . S
C6589 H6596 0.961 . S
C6589 H6597 0.960 . S
C6590 C6588 1.381 . S
C6590 C6591 1.394 . S
C6590 H6598 0.930 . S
C6591 C6590 1.394 . S
C6591 C6592 1.383 . S
C6591 H6599 0.929 . S
C6592 C6591 1.383 . S
C6592 C6593 1.377 . S
C6593 H6577 0.930 . S
C6593 C6592 1.377 . S
C6593 C6594 1.379 . S
C6594 H6578 0.931 . S
C6594 C6588 1.383 . S
C6594 C6593 1.379 . S
H6595 C6589 0.959 . S
H6596 C6589 0.961 . S
H6597 C6589 0.960 . S
H6598 C6590 0.930 . S
H6599 C6591 0.929 . S
H6600 C6608 0.929 . S
H6601 C6610 0.930 . S
H6602 C6612 0.930 . S
H6603 C6615 0.929 . S
H6604 C6618 0.930 . S
H6605 C6620 0.960 . S
H6606 C6620 0.960 . S
H6607 C6620 0.960 . S
C6608 H6600 0.929 . S
C6608 C6609 1.377 . S
C6608 C6610 1.384 . S
C6609 C6608 1.377 . S
C6609 C6615 1.390 . S
C6610 H6601 0.930 . S
C6610 C6608 1.384 . S
C6610 C6611 1.372 . S
C6611 C6610 1.372 . S
C6611 C6612 1.400 . S
C6611 C6616 1.490 . S
C6612 H6602 0.930 . S
C6612 C6611 1.400 . S
C6612 C6615 1.386 . S
H6613 C6629 0.930 . S
H6614 C6630 0.931 . S
C6615 H6603 0.929 . S
C6615 C6609 1.390 . S
C6615 C6612 1.386 . S
C6616 C6611 1.490 . S
C6616 C6618 1.395 . S
C6616 C6619 1.403 . S
H6617 C6623 0.930 . S
C6618 H6604 0.930 . S
C6618 C6616 1.395 . S
C6618 C6621 1.403 1_455 S
C6619 C6616 1.403 . S
C6619 C6620 1.524 . S
C6619 C6623 1.400 1_455 S
C6620 H6605 0.960 . S
C6620 H6606 0.960 . S
C6620 H6607 0.960 . S
C6620 C6619 1.524 . S
C6621 C6618 1.403 1_655 S
C6621 C6622 1.392 . S
C6621 C6625 1.495 . S
C6622 C6621 1.392 . S
C6622 C6623 1.385 . S
C6622 C6624 1.478 . S
C6623 H6617 0.930 . S
C6623 C6619 1.400 1_655 S
C6623 C6622 1.385 . S
C6624 C6622 1.478 . S
C6624 C6626 1.381 . S
C6624 C6630 1.383 . S
C6625 C6621 1.495 . S
C6625 H6631 0.959 . S
C6625 H6632 0.961 . S
C6625 H6633 0.960 . S
C6626 C6624 1.381 . S
C6626 C6627 1.394 . S
C6626 H6634 0.930 . S
C6627 C6626 1.394 . S
C6627 C6628 1.383 . S
C6627 H6635 0.929 . S
C6628 C6627 1.383 . S
C6628 C6629 1.377 . S
C6629 H6613 0.930 . S
C6629 C6628 1.377 . S
C6629 C6630 1.379 . S
C6630 H6614 0.931 . S
C6630 C6624 1.383 . S
C6630 C6629 1.379 . S
H6631 C6625 0.959 . S
H6632 C6625 0.961 . S
H6633 C6625 0.960 . S
H6634 C6626 0.930 . S
H6635 C6627 0.929 . S
H6636 C6644 0.929 . S
H6637 C6646 0.930 . S
H6638 C6648 0.930 . S
H6639 C6651 0.929 . S
H6640 C6654 0.930 . S
H6641 C6656 0.960 . S
H6642 C6656 0.960 . S
H6643 C6656 0.960 . S
C6644 H6636 0.929 . S
C6644 C6645 1.377 . S
C6644 C6646 1.384 . S
C6645 C6644 1.377 . S
C6645 C6651 1.390 . S
C6646 H6637 0.930 . S
C6646 C6644 1.384 . S
C6646 C6647 1.372 . S
C6647 C6646 1.372 . S
C6647 C6648 1.400 . S
C6647 C6652 1.490 . S
C6648 H6638 0.930 . S
C6648 C6647 1.400 . S
C6648 C6651 1.386 . S
H6649 C6665 0.930 . S
H6650 C6666 0.931 . S
C6651 H6639 0.929 . S
C6651 C6645 1.390 . S
C6651 C6648 1.386 . S
C6652 C6647 1.490 . S
C6652 C6654 1.395 . S
C6652 C6655 1.403 . S
H6653 C6659 0.930 . S
C6654 H6640 0.930 . S
C6654 C6652 1.395 . S
C6654 C6657 1.403 1_565 S
C6655 C6652 1.403 . S
C6655 C6656 1.524 . S
C6655 C6659 1.400 1_565 S
C6656 H6641 0.960 . S
C6656 H6642 0.960 . S
C6656 H6643 0.960 . S
C6656 C6655 1.524 . S
C6657 C6654 1.403 1_545 S
C6657 C6658 1.392 . S
C6657 C6661 1.495 . S
C6658 C6657 1.392 . S
C6658 C6659 1.385 . S
C6658 C6660 1.478 . S
C6659 H6653 0.930 . S
C6659 C6655 1.400 1_545 S
C6659 C6658 1.385 . S
C6660 C6658 1.478 . S
C6660 C6662 1.381 . S
C6660 C6666 1.383 . S
C6661 C6657 1.495 . S
C6661 H6667 0.959 . S
C6661 H6668 0.961 . S
C6661 H6669 0.960 . S
C6662 C6660 1.381 . S
C6662 C6663 1.394 . S
C6662 H6670 0.930 . S
C6663 C6662 1.394 . S
C6663 C6664 1.383 . S
C6663 H6671 0.929 . S
C6664 C6663 1.383 . S
C6664 C6665 1.377 . S
C6665 H6649 0.930 . S
C6665 C6664 1.377 . S
C6665 C6666 1.379 . S
C6666 H6650 0.931 . S
C6666 C6660 1.383 . S
C6666 C6665 1.379 . S
H6667 C6661 0.959 . S
H6668 C6661 0.961 . S
H6669 C6661 0.960 . S
H6670 C6662 0.930 . S
H6671 C6663 0.929 . S
H6672 C6680 0.929 . S
H6673 C6682 0.930 . S
H6674 C6684 0.930 . S
H6675 C6687 0.929 . S
H6676 C6690 0.930 . S
H6677 C6692 0.960 . S
H6678 C6692 0.960 . S
H6679 C6692 0.960 . S
C6680 H6672 0.929 . S
C6680 C6681 1.377 . S
C6680 C6682 1.384 . S
C6681 C6680 1.377 . S
C6681 C6687 1.390 . S
C6682 H6673 0.930 . S
C6682 C6680 1.384 . S
C6682 C6683 1.372 . S
C6683 C6682 1.372 . S
C6683 C6684 1.400 . S
C6683 C6688 1.490 . S
C6684 H6674 0.930 . S
C6684 C6683 1.400 . S
C6684 C6687 1.386 . S
H6685 C6701 0.930 . S
H6686 C6702 0.931 . S
C6687 H6675 0.929 . S
C6687 C6681 1.390 . S
C6687 C6684 1.386 . S
C6688 C6683 1.490 . S
C6688 C6690 1.395 . S
C6688 C6691 1.403 . S
H6689 C6695 0.930 . S
C6690 H6676 0.930 . S
C6690 C6688 1.395 . S
C6690 C6693 1.403 1_655 S
C6691 C6688 1.403 . S
C6691 C6692 1.524 . S
C6691 C6695 1.400 1_655 S
C6692 H6677 0.960 . S
C6692 H6678 0.960 . S
C6692 H6679 0.960 . S
C6692 C6691 1.524 . S
C6693 C6690 1.403 1_455 S
C6693 C6694 1.392 . S
C6693 C6697 1.495 . S
C6694 C6693 1.392 . S
C6694 C6695 1.385 . S
C6694 C6696 1.478 . S
C6695 H6689 0.930 . S
C6695 C6691 1.400 1_455 S
C6695 C6694 1.385 . S
C6696 C6694 1.478 . S
C6696 C6698 1.381 . S
C6696 C6702 1.383 . S
C6697 C6693 1.495 . S
C6697 H6703 0.959 . S
C6697 H6704 0.961 . S
C6697 H6705 0.960 . S
C6698 C6696 1.381 . S
C6698 C6699 1.394 . S
C6698 H6706 0.930 . S
C6699 C6698 1.394 . S
C6699 C6700 1.383 . S
C6699 H6707 0.929 . S
C6700 C6699 1.383 . S
C6700 C6701 1.377 . S
C6701 H6685 0.930 . S
C6701 C6700 1.377 . S
C6701 C6702 1.379 . S
C6702 H6686 0.931 . S
C6702 C6696 1.383 . S
C6702 C6701 1.379 . S
H6703 C6697 0.959 . S
H6704 C6697 0.961 . S
H6705 C6697 0.960 . S
H6706 C6698 0.930 . S
H6707 C6699 0.929 . S
H6708 C6716 0.929 . S
H6709 C6718 0.930 . S
H6710 C6720 0.930 . S
H6711 C6723 0.929 . S
H6712 C6726 0.930 . S
H6713 C6728 0.960 . S
H6714 C6728 0.960 . S
H6715 C6728 0.960 . S
C6716 H6708 0.929 . S
C6716 C6717 1.377 . S
C6716 C6718 1.384 . S
C6717 C6716 1.377 . S
C6717 C6723 1.390 . S
C6718 H6709 0.930 . S
C6718 C6716 1.384 . S
C6718 C6719 1.372 . S
C6719 C6718 1.372 . S
C6719 C6720 1.400 . S
C6719 C6724 1.490 . S
C6720 H6710 0.930 . S
C6720 C6719 1.400 . S
C6720 C6723 1.386 . S
H6721 C6737 0.930 . S
H6722 C6738 0.931 . S
C6723 H6711 0.929 . S
C6723 C6717 1.390 . S
C6723 C6720 1.386 . S
C6724 C6719 1.490 . S
C6724 C6726 1.395 . S
C6724 C6727 1.403 . S
H6725 C6731 0.930 . S
C6726 H6712 0.930 . S
C6726 C6724 1.395 . S
C6726 C6729 1.403 1_565 S
C6727 C6724 1.403 . S
C6727 C6728 1.524 . S
C6727 C6731 1.400 1_565 S
C6728 H6713 0.960 . S
C6728 H6714 0.960 . S
C6728 H6715 0.960 . S
C6728 C6727 1.524 . S
C6729 C6726 1.403 1_545 S
C6729 C6730 1.392 . S
C6729 C6733 1.495 . S
C6730 C6729 1.392 . S
C6730 C6731 1.385 . S
C6730 C6732 1.478 . S
C6731 H6725 0.930 . S
C6731 C6727 1.400 1_545 S
C6731 C6730 1.385 . S
C6732 C6730 1.478 . S
C6732 C6734 1.381 . S
C6732 C6738 1.383 . S
C6733 C6729 1.495 . S
C6733 H6739 0.959 . S
C6733 H6740 0.961 . S
C6733 H6741 0.960 . S
C6734 C6732 1.381 . S
C6734 C6735 1.394 . S
C6734 H6742 0.930 . S
C6735 C6734 1.394 . S
C6735 C6736 1.383 . S
C6735 H6743 0.929 . S
C6736 C6735 1.383 . S
C6736 C6737 1.377 . S
C6737 H6721 0.930 . S
C6737 C6736 1.377 . S
C6737 C6738 1.379 . S
C6738 H6722 0.931 . S
C6738 C6732 1.383 . S
C6738 C6737 1.379 . S
H6739 C6733 0.959 . S
H6740 C6733 0.961 . S
H6741 C6733 0.960 . S
H6742 C6734 0.930 . S
H6743 C6735 0.929 . S
H6744 C6752 0.929 . S
H6745 C6754 0.930 . S
H6746 C6756 0.930 . S
H6747 C6759 0.929 . S
H6748 C6762 0.930 . S
H6749 C6764 0.960 . S
H6750 C6764 0.960 . S
H6751 C6764 0.960 . S
C6752 H6744 0.929 . S
C6752 C6753 1.377 . S
C6752 C6754 1.384 . S
C6753 C6752 1.377 . S
C6753 C6759 1.390 . S
C6754 H6745 0.930 . S
C6754 C6752 1.384 . S
C6754 C6755 1.372 . S
C6755 C6754 1.372 . S
C6755 C6756 1.400 . S
C6755 C6760 1.490 . S
C6756 H6746 0.930 . S
C6756 C6755 1.400 . S
C6756 C6759 1.386 . S
H6757 C6773 0.930 . S
H6758 C6774 0.931 . S
C6759 H6747 0.929 . S
C6759 C6753 1.390 . S
C6759 C6756 1.386 . S
C6760 C6755 1.490 . S
C6760 C6762 1.395 . S
C6760 C6763 1.403 . S
H6761 C6767 0.930 . S
C6762 H6748 0.930 . S
C6762 C6760 1.395 . S
C6762 C6765 1.403 1_655 S
C6763 C6760 1.403 . S
C6763 C6764 1.524 . S
C6763 C6767 1.400 1_655 S
C6764 H6749 0.960 . S
C6764 H6750 0.960 . S
C6764 H6751 0.960 . S
C6764 C6763 1.524 . S
C6765 C6762 1.403 1_455 S
C6765 C6766 1.392 . S
C6765 C6769 1.495 . S
C6766 C6765 1.392 . S
C6766 C6767 1.385 . S
C6766 C6768 1.478 . S
C6767 H6761 0.930 . S
C6767 C6763 1.400 1_455 S
C6767 C6766 1.385 . S
C6768 C6766 1.478 . S
C6768 C6770 1.381 . S
C6768 C6774 1.383 . S
C6769 C6765 1.495 . S
C6769 H6775 0.959 . S
C6769 H6776 0.961 . S
C6769 H6777 0.960 . S
C6770 C6768 1.381 . S
C6770 C6771 1.394 . S
C6770 H6778 0.930 . S
C6771 C6770 1.394 . S
C6771 C6772 1.383 . S
C6771 H6779 0.929 . S
C6772 C6771 1.383 . S
C6772 C6773 1.377 . S
C6773 H6757 0.930 . S
C6773 C6772 1.377 . S
C6773 C6774 1.379 . S
C6774 H6758 0.931 . S
C6774 C6768 1.383 . S
C6774 C6773 1.379 . S
H6775 C6769 0.959 . S
H6776 C6769 0.961 . S
H6777 C6769 0.960 . S
H6778 C6770 0.930 . S
H6779 C6771 0.929 . S
H6780 C6788 0.929 . S
H6781 C6790 0.930 . S
H6782 C6792 0.930 . S
H6783 C6795 0.929 . S
H6784 C6798 0.930 . S
H6785 C6800 0.960 . S
H6786 C6800 0.960 . S
H6787 C6800 0.960 . S
C6788 H6780 0.929 . S
C6788 C6789 1.377 . S
C6788 C6790 1.384 . S
C6789 C6788 1.377 . S
C6789 C6795 1.390 . S
C6790 H6781 0.930 . S
C6790 C6788 1.384 . S
C6790 C6791 1.372 . S
C6791 C6790 1.372 . S
C6791 C6792 1.400 . S
C6791 C6796 1.490 . S
C6792 H6782 0.930 . S
C6792 C6791 1.400 . S
C6792 C6795 1.386 . S
H6793 C6809 0.930 . S
H6794 C6810 0.931 . S
C6795 H6783 0.929 . S
C6795 C6789 1.390 . S
C6795 C6792 1.386 . S
C6796 C6791 1.490 . S
C6796 C6798 1.395 . S
C6796 C6799 1.403 . S
H6797 C6803 0.930 . S
C6798 H6784 0.930 . S
C6798 C6796 1.395 . S
C6798 C6801 1.403 1_565 S
C6799 C6796 1.403 . S
C6799 C6800 1.524 . S
C6799 C6803 1.400 1_565 S
C6800 H6785 0.960 . S
C6800 H6786 0.960 . S
C6800 H6787 0.960 . S
C6800 C6799 1.524 . S
C6801 C6798 1.403 1_545 S
C6801 C6802 1.392 . S
C6801 C6805 1.495 . S
C6802 C6801 1.392 . S
C6802 C6803 1.385 . S
C6802 C6804 1.478 . S
C6803 H6797 0.930 . S
C6803 C6799 1.400 1_545 S
C6803 C6802 1.385 . S
C6804 C6802 1.478 . S
C6804 C6806 1.381 . S
C6804 C6810 1.383 . S
C6805 C6801 1.495 . S
C6805 H6811 0.959 . S
C6805 H6812 0.961 . S
C6805 H6813 0.960 . S
C6806 C6804 1.381 . S
C6806 C6807 1.394 . S
C6806 H6814 0.930 . S
C6807 C6806 1.394 . S
C6807 C6808 1.383 . S
C6807 H6815 0.929 . S
C6808 C6807 1.383 . S
C6808 C6809 1.377 . S
C6809 H6793 0.930 . S
C6809 C6808 1.377 . S
C6809 C6810 1.379 . S
C6810 H6794 0.931 . S
C6810 C6804 1.383 . S
C6810 C6809 1.379 . S
H6811 C6805 0.959 . S
H6812 C6805 0.961 . S
H6813 C6805 0.960 . S
H6814 C6806 0.930 . S
H6815 C6807 0.929 . S
H6816 C6824 0.929 . S
H6817 C6826 0.930 . S
H6818 C6828 0.930 . S
H6819 C6831 0.929 . S
H6820 C6834 0.930 . S
H6821 C6836 0.960 . S
H6822 C6836 0.960 . S
H6823 C6836 0.960 . S
C6824 H6816 0.929 . S
C6824 C6825 1.377 . S
C6824 C6826 1.384 . S
C6825 C6824 1.377 . S
C6825 C6831 1.390 . S
C6826 H6817 0.930 . S
C6826 C6824 1.384 . S
C6826 C6827 1.372 . S
C6827 C6826 1.372 . S
C6827 C6828 1.400 . S
C6827 C6832 1.490 . S
C6828 H6818 0.930 . S
C6828 C6827 1.400 . S
C6828 C6831 1.386 . S
H6829 C6845 0.930 . S
H6830 C6846 0.931 . S
C6831 H6819 0.929 . S
C6831 C6825 1.390 . S
C6831 C6828 1.386 . S
C6832 C6827 1.490 . S
C6832 C6834 1.395 . S
C6832 C6835 1.403 . S
H6833 C6839 0.930 . S
C6834 H6820 0.930 . S
C6834 C6832 1.395 . S
C6834 C6837 1.403 1_565 S
C6835 C6832 1.403 . S
C6835 C6836 1.524 . S
C6835 C6839 1.400 1_565 S
C6836 H6821 0.960 . S
C6836 H6822 0.960 . S
C6836 H6823 0.960 . S
C6836 C6835 1.524 . S
C6837 C6834 1.403 1_545 S
C6837 C6838 1.392 . S
C6837 C6841 1.495 . S
C6838 C6837 1.392 . S
C6838 C6839 1.385 . S
C6838 C6840 1.478 . S
C6839 H6833 0.930 . S
C6839 C6835 1.400 1_545 S
C6839 C6838 1.385 . S
C6840 C6838 1.478 . S
C6840 C6842 1.381 . S
C6840 C6846 1.383 . S
C6841 C6837 1.495 . S
C6841 H6847 0.959 . S
C6841 H6848 0.961 . S
C6841 H6849 0.960 . S
C6842 C6840 1.381 . S
C6842 C6843 1.394 . S
C6842 H6850 0.930 . S
C6843 C6842 1.394 . S
C6843 C6844 1.383 . S
C6843 H6851 0.929 . S
C6844 C6843 1.383 . S
C6844 C6845 1.377 . S
C6845 H6829 0.930 . S
C6845 C6844 1.377 . S
C6845 C6846 1.379 . S
C6846 H6830 0.931 . S
C6846 C6840 1.383 . S
C6846 C6845 1.379 . S
H6847 C6841 0.959 . S
H6848 C6841 0.961 . S
H6849 C6841 0.960 . S
H6850 C6842 0.930 . S
H6851 C6843 0.929 . S
H6852 C6860 0.929 . S
H6853 C6862 0.930 . S
H6854 C6864 0.930 . S
H6855 C6867 0.929 . S
H6856 C6870 0.930 . S
H6857 C6872 0.960 . S
H6858 C6872 0.960 . S
H6859 C6872 0.960 . S
C6860 H6852 0.929 . S
C6860 C6861 1.377 . S
C6860 C6862 1.384 . S
C6861 C6860 1.377 . S
C6861 C6867 1.390 . S
C6862 H6853 0.930 . S
C6862 C6860 1.384 . S
C6862 C6863 1.372 . S
C6863 C6862 1.372 . S
C6863 C6864 1.400 . S
C6863 C6868 1.490 . S
C6864 H6854 0.930 . S
C6864 C6863 1.400 . S
C6864 C6867 1.386 . S
H6865 C6881 0.930 . S
H6866 C6882 0.931 . S
C6867 H6855 0.929 . S
C6867 C6861 1.390 . S
C6867 C6864 1.386 . S
C6868 C6863 1.490 . S
C6868 C6870 1.395 . S
C6868 C6871 1.403 . S
H6869 C6875 0.930 . S
C6870 H6856 0.930 . S
C6870 C6868 1.395 . S
C6870 C6873 1.403 1_655 S
C6871 C6868 1.403 . S
C6871 C6872 1.524 . S
C6871 C6875 1.400 1_655 S
C6872 H6857 0.960 . S
C6872 H6858 0.960 . S
C6872 H6859 0.960 . S
C6872 C6871 1.524 . S
C6873 C6870 1.403 1_455 S
C6873 C6874 1.392 . S
C6873 C6877 1.495 . S
C6874 C6873 1.392 . S
C6874 C6875 1.385 . S
C6874 C6876 1.478 . S
C6875 H6869 0.930 . S
C6875 C6871 1.400 1_455 S
C6875 C6874 1.385 . S
C6876 C6874 1.478 . S
C6876 C6878 1.381 . S
C6876 C6882 1.383 . S
C6877 C6873 1.495 . S
C6877 H6883 0.959 . S
C6877 H6884 0.961 . S
C6877 H6885 0.960 . S
C6878 C6876 1.381 . S
C6878 C6879 1.394 . S
C6878 H6886 0.930 . S
C6879 C6878 1.394 . S
C6879 C6880 1.383 . S
C6879 H6887 0.929 . S
C6880 C6879 1.383 . S
C6880 C6881 1.377 . S
C6881 H6865 0.930 . S
C6881 C6880 1.377 . S
C6881 C6882 1.379 . S
C6882 H6866 0.931 . S
C6882 C6876 1.383 . S
C6882 C6881 1.379 . S
H6883 C6877 0.959 . S
H6884 C6877 0.961 . S
H6885 C6877 0.960 . S
H6886 C6878 0.930 . S
H6887 C6879 0.929 . S
H6888 C6896 0.929 . S
H6889 C6898 0.930 . S
H6890 C6900 0.930 . S
H6891 C6903 0.929 . S
H6892 C6906 0.930 . S
H6893 C6908 0.960 . S
H6894 C6908 0.960 . S
H6895 C6908 0.960 . S
C6896 H6888 0.929 . S
C6896 C6897 1.377 . S
C6896 C6898 1.384 . S
C6897 C6896 1.377 . S
C6897 C6903 1.390 . S
C6898 H6889 0.930 . S
C6898 C6896 1.384 . S
C6898 C6899 1.372 . S
C6899 C6898 1.372 . S
C6899 C6900 1.400 . S
C6899 C6904 1.490 . S
C6900 H6890 0.930 . S
C6900 C6899 1.400 . S
C6900 C6903 1.386 . S
H6901 C6917 0.930 . S
H6902 C6918 0.931 . S
C6903 H6891 0.929 . S
C6903 C6897 1.390 . S
C6903 C6900 1.386 . S
C6904 C6899 1.490 . S
C6904 C6906 1.395 . S
C6904 C6907 1.403 . S
H6905 C6911 0.930 . S
C6906 H6892 0.930 . S
C6906 C6904 1.395 . S
C6906 C6909 1.403 1_565 S
C6907 C6904 1.403 . S
C6907 C6908 1.524 . S
C6907 C6911 1.400 1_565 S
C6908 H6893 0.960 . S
C6908 H6894 0.960 . S
C6908 H6895 0.960 . S
C6908 C6907 1.524 . S
C6909 C6906 1.403 1_545 S
C6909 C6910 1.392 . S
C6909 C6913 1.495 . S
C6910 C6909 1.392 . S
C6910 C6911 1.385 . S
C6910 C6912 1.478 . S
C6911 H6905 0.930 . S
C6911 C6907 1.400 1_545 S
C6911 C6910 1.385 . S
C6912 C6910 1.478 . S
C6912 C6914 1.381 . S
C6912 C6918 1.383 . S
C6913 C6909 1.495 . S
C6913 H6919 0.959 . S
C6913 H6920 0.961 . S
C6913 H6921 0.960 . S
C6914 C6912 1.381 . S
C6914 C6915 1.394 . S
C6914 H6922 0.930 . S
C6915 C6914 1.394 . S
C6915 C6916 1.383 . S
C6915 H6923 0.929 . S
C6916 C6915 1.383 . S
C6916 C6917 1.377 . S
C6917 H6901 0.930 . S
C6917 C6916 1.377 . S
C6917 C6918 1.379 . S
C6918 H6902 0.931 . S
C6918 C6912 1.383 . S
C6918 C6917 1.379 . S
H6919 C6913 0.959 . S
H6920 C6913 0.961 . S
H6921 C6913 0.960 . S
H6922 C6914 0.930 . S
H6923 C6915 0.929 . S
H6924 C6932 0.929 . S
H6925 C6934 0.930 . S
H6926 C6936 0.930 . S
H6927 C6939 0.929 . S
H6928 C6942 0.930 . S
H6929 C6944 0.960 . S
H6930 C6944 0.960 . S
H6931 C6944 0.960 . S
C6932 H6924 0.929 . S
C6932 C6933 1.377 . S
C6932 C6934 1.384 . S
C6933 C6932 1.377 . S
C6933 C6939 1.390 . S
C6934 H6925 0.930 . S
C6934 C6932 1.384 . S
C6934 C6935 1.372 . S
C6935 C6934 1.372 . S
C6935 C6936 1.400 . S
C6935 C6940 1.490 . S
C6936 H6926 0.930 . S
C6936 C6935 1.400 . S
C6936 C6939 1.386 . S
H6937 C6953 0.930 . S
H6938 C6954 0.931 . S
C6939 H6927 0.929 . S
C6939 C6933 1.390 . S
C6939 C6936 1.386 . S
C6940 C6935 1.490 . S
C6940 C6942 1.395 . S
C6940 C6943 1.403 . S
H6941 C6947 0.930 . S
C6942 H6928 0.930 . S
C6942 C6940 1.395 . S
C6942 C6945 1.403 1_655 S
C6943 C6940 1.403 . S
C6943 C6944 1.524 . S
C6943 C6947 1.400 1_655 S
C6944 H6929 0.960 . S
C6944 H6930 0.960 . S
C6944 H6931 0.960 . S
C6944 C6943 1.524 . S
C6945 C6942 1.403 1_455 S
C6945 C6946 1.392 . S
C6945 C6949 1.495 . S
C6946 C6945 1.392 . S
C6946 C6947 1.385 . S
C6946 C6948 1.478 . S
C6947 H6941 0.930 . S
C6947 C6943 1.400 1_455 S
C6947 C6946 1.385 . S
C6948 C6946 1.478 . S
C6948 C6950 1.381 . S
C6948 C6954 1.383 . S
C6949 C6945 1.495 . S
C6949 H6955 0.959 . S
C6949 H6956 0.961 . S
C6949 H6957 0.960 . S
C6950 C6948 1.381 . S
C6950 C6951 1.394 . S
C6950 H6958 0.930 . S
C6951 C6950 1.394 . S
C6951 C6952 1.383 . S
C6951 H6959 0.929 . S
C6952 C6951 1.383 . S
C6952 C6953 1.377 . S
C6953 H6937 0.930 . S
C6953 C6952 1.377 . S
C6953 C6954 1.379 . S
C6954 H6938 0.931 . S
C6954 C6948 1.383 . S
C6954 C6953 1.379 . S
H6955 C6949 0.959 . S
H6956 C6949 0.961 . S
H6957 C6949 0.960 . S
H6958 C6950 0.930 . S
H6959 C6951 0.929 . S
H6960 C6968 0.929 . S
H6961 C6970 0.930 . S
H6962 C6972 0.930 . S
H6963 C6975 0.929 . S
H6964 C6978 0.930 . S
H6965 C6980 0.960 . S
H6966 C6980 0.960 . S
H6967 C6980 0.960 . S
C6968 H6960 0.929 . S
C6968 C6969 1.377 . S
C6968 C6970 1.384 . S
C6969 C6968 1.377 . S
C6969 C6975 1.390 . S
C6970 H6961 0.930 . S
C6970 C6968 1.384 . S
C6970 C6971 1.372 . S
C6971 C6970 1.372 . S
C6971 C6972 1.400 . S
C6971 C6976 1.490 . S
C6972 H6962 0.930 . S
C6972 C6971 1.400 . S
C6972 C6975 1.386 . S
H6973 C6989 0.930 . S
H6974 C6990 0.931 . S
C6975 H6963 0.929 . S
C6975 C6969 1.390 . S
C6975 C6972 1.386 . S
C6976 C6971 1.490 . S
C6976 C6978 1.395 . S
C6976 C6979 1.403 . S
H6977 C6983 0.930 . S
C6978 H6964 0.930 . S
C6978 C6976 1.395 . S
C6978 C6981 1.403 1_565 S
C6979 C6976 1.403 . S
C6979 C6980 1.524 . S
C6979 C6983 1.400 1_565 S
C6980 H6965 0.960 . S
C6980 H6966 0.960 . S
C6980 H6967 0.960 . S
C6980 C6979 1.524 . S
C6981 C6978 1.403 1_545 S
C6981 C6982 1.392 . S
C6981 C6985 1.495 . S
C6982 C6981 1.392 . S
C6982 C6983 1.385 . S
C6982 C6984 1.478 . S
C6983 H6977 0.930 . S
C6983 C6979 1.400 1_545 S
C6983 C6982 1.385 . S
C6984 C6982 1.478 . S
C6984 C6986 1.381 . S
C6984 C6990 1.383 . S
C6985 C6981 1.495 . S
C6985 H6991 0.959 . S
C6985 H6992 0.961 . S
C6985 H6993 0.960 . S
C6986 C6984 1.381 . S
C6986 C6987 1.394 . S
C6986 H6994 0.930 . S
C6987 C6986 1.394 . S
C6987 C6988 1.383 . S
C6987 H6995 0.929 . S
C6988 C6987 1.383 . S
C6988 C6989 1.377 . S
C6989 H6973 0.930 . S
C6989 C6988 1.377 . S
C6989 C6990 1.379 . S
C6990 H6974 0.931 . S
C6990 C6984 1.383 . S
C6990 C6989 1.379 . S
H6991 C6985 0.959 . S
H6992 C6985 0.961 . S
H6993 C6985 0.960 . S
H6994 C6986 0.930 . S
H6995 C6987 0.929 . S
H6996 C7004 0.929 . S
H6997 C7006 0.930 . S
H6998 C7008 0.930 . S
H6999 C7011 0.929 . S
H7000 C7014 0.930 . S
H7001 C7016 0.960 . S
H7002 C7016 0.960 . S
H7003 C7016 0.960 . S
C7004 H6996 0.929 . S
C7004 C7005 1.377 . S
C7004 C7006 1.384 . S
C7005 C7004 1.377 . S
C7005 C7011 1.390 . S
C7006 H6997 0.930 . S
C7006 C7004 1.384 . S
C7006 C7007 1.372 . S
C7007 C7006 1.372 . S
C7007 C7008 1.400 . S
C7007 C7012 1.490 . S
C7008 H6998 0.930 . S
C7008 C7007 1.400 . S
C7008 C7011 1.386 . S
H7009 C7025 0.930 . S
H7010 C7026 0.931 . S
C7011 H6999 0.929 . S
C7011 C7005 1.390 . S
C7011 C7008 1.386 . S
C7012 C7007 1.490 . S
C7012 C7014 1.395 . S
C7012 C7015 1.403 . S
H7013 C7019 0.930 . S
C7014 H7000 0.930 . S
C7014 C7012 1.395 . S
C7014 C7017 1.403 1_655 S
C7015 C7012 1.403 . S
C7015 C7016 1.524 . S
C7015 C7019 1.400 1_655 S
C7016 H7001 0.960 . S
C7016 H7002 0.960 . S
C7016 H7003 0.960 . S
C7016 C7015 1.524 . S
C7017 C7014 1.403 1_455 S
C7017 C7018 1.392 . S
C7017 C7021 1.495 . S
C7018 C7017 1.392 . S
C7018 C7019 1.385 . S
C7018 C7020 1.478 . S
C7019 H7013 0.930 . S
C7019 C7015 1.400 1_455 S
C7019 C7018 1.385 . S
C7020 C7018 1.478 . S
C7020 C7022 1.381 . S
C7020 C7026 1.383 . S
C7021 C7017 1.495 . S
C7021 H7027 0.959 . S
C7021 H7028 0.961 . S
C7021 H7029 0.960 . S
C7022 C7020 1.381 . S
C7022 C7023 1.394 . S
C7022 H7030 0.930 . S
C7023 C7022 1.394 . S
C7023 C7024 1.383 . S
C7023 H7031 0.929 . S
C7024 C7023 1.383 . S
C7024 C7025 1.377 . S
C7025 H7009 0.930 . S
C7025 C7024 1.377 . S
C7025 C7026 1.379 . S
C7026 H7010 0.931 . S
C7026 C7020 1.383 . S
C7026 C7025 1.379 . S
H7027 C7021 0.959 . S
H7028 C7021 0.961 . S
H7029 C7021 0.960 . S
H7030 C7022 0.930 . S
H7031 C7023 0.929 . S
H7032 C7040 0.929 . S
H7033 C7042 0.930 . S
H7034 C7044 0.930 . S
H7035 C7047 0.929 . S
H7036 C7050 0.930 . S
H7037 C7052 0.960 . S
H7038 C7052 0.960 . S
H7039 C7052 0.960 . S
C7040 H7032 0.929 . S
C7040 C7041 1.377 . S
C7040 C7042 1.384 . S
C7041 C7040 1.377 . S
C7041 C7047 1.390 . S
C7042 H7033 0.930 . S
C7042 C7040 1.384 . S
C7042 C7043 1.372 . S
C7043 C7042 1.372 . S
C7043 C7044 1.400 . S
C7043 C7048 1.490 . S
C7044 H7034 0.930 . S
C7044 C7043 1.400 . S
C7044 C7047 1.386 . S
H7045 C7061 0.930 . S
H7046 C7062 0.931 . S
C7047 H7035 0.929 . S
C7047 C7041 1.390 . S
C7047 C7044 1.386 . S
C7048 C7043 1.490 . S
C7048 C7050 1.395 . S
C7048 C7051 1.403 . S
H7049 C7055 0.930 . S
C7050 H7036 0.930 . S
C7050 C7048 1.395 . S
C7050 C7053 1.403 1_565 S
C7051 C7048 1.403 . S
C7051 C7052 1.524 . S
C7051 C7055 1.400 1_565 S
C7052 H7037 0.960 . S
C7052 H7038 0.960 . S
C7052 H7039 0.960 . S
C7052 C7051 1.524 . S
C7053 C7050 1.403 1_545 S
C7053 C7054 1.392 . S
C7053 C7057 1.495 . S
C7054 C7053 1.392 . S
C7054 C7055 1.385 . S
C7054 C7056 1.478 . S
C7055 H7049 0.930 . S
C7055 C7051 1.400 1_545 S
C7055 C7054 1.385 . S
C7056 C7054 1.478 . S
C7056 C7058 1.381 . S
C7056 C7062 1.383 . S
C7057 C7053 1.495 . S
C7057 H7063 0.959 . S
C7057 H7064 0.961 . S
C7057 H7065 0.960 . S
C7058 C7056 1.381 . S
C7058 C7059 1.394 . S
C7058 H7066 0.930 . S
C7059 C7058 1.394 . S
C7059 C7060 1.383 . S
C7059 H7067 0.929 . S
C7060 C7059 1.383 . S
C7060 C7061 1.377 . S
C7061 H7045 0.930 . S
C7061 C7060 1.377 . S
C7061 C7062 1.379 . S
C7062 H7046 0.931 . S
C7062 C7056 1.383 . S
C7062 C7061 1.379 . S
H7063 C7057 0.959 . S
H7064 C7057 0.961 . S
H7065 C7057 0.960 . S
H7066 C7058 0.930 . S
H7067 C7059 0.929 . S
H7068 C7076 0.929 . S
H7069 C7078 0.930 . S
H7070 C7080 0.930 . S
H7071 C7083 0.929 . S
H7072 C7086 0.930 . S
H7073 C7088 0.960 . S
H7074 C7088 0.960 . S
H7075 C7088 0.960 . S
C7076 H7068 0.929 . S
C7076 C7077 1.377 . S
C7076 C7078 1.384 . S
C7077 C7076 1.377 . S
C7077 C7083 1.390 . S
C7078 H7069 0.930 . S
C7078 C7076 1.384 . S
C7078 C7079 1.372 . S
C7079 C7078 1.372 . S
C7079 C7080 1.400 . S
C7079 C7084 1.490 . S
C7080 H7070 0.930 . S
C7080 C7079 1.400 . S
C7080 C7083 1.386 . S
H7081 C7097 0.930 . S
H7082 C7098 0.931 . S
C7083 H7071 0.929 . S
C7083 C7077 1.390 . S
C7083 C7080 1.386 . S
C7084 C7079 1.490 . S
C7084 C7086 1.395 . S
C7084 C7087 1.403 . S
H7085 C7091 0.930 . S
C7086 H7072 0.930 . S
C7086 C7084 1.395 . S
C7086 C7089 1.403 1_455 S
C7087 C7084 1.403 . S
C7087 C7088 1.524 . S
C7087 C7091 1.400 1_455 S
C7088 H7073 0.960 . S
C7088 H7074 0.960 . S
C7088 H7075 0.960 . S
C7088 C7087 1.524 . S
C7089 C7086 1.403 1_655 S
C7089 C7090 1.392 . S
C7089 C7093 1.495 . S
C7090 C7089 1.392 . S
C7090 C7091 1.385 . S
C7090 C7092 1.478 . S
C7091 H7085 0.930 . S
C7091 C7087 1.400 1_655 S
C7091 C7090 1.385 . S
C7092 C7090 1.478 . S
C7092 C7094 1.381 . S
C7092 C7098 1.383 . S
C7093 C7089 1.495 . S
C7093 H7099 0.959 . S
C7093 H7100 0.961 . S
C7093 H7101 0.960 . S
C7094 C7092 1.381 . S
C7094 C7095 1.394 . S
C7094 H7102 0.930 . S
C7095 C7094 1.394 . S
C7095 C7096 1.383 . S
C7095 H7103 0.929 . S
C7096 C7095 1.383 . S
C7096 C7097 1.377 . S
C7097 H7081 0.930 . S
C7097 C7096 1.377 . S
C7097 C7098 1.379 . S
C7098 H7082 0.931 . S
C7098 C7092 1.383 . S
C7098 C7097 1.379 . S
H7099 C7093 0.959 . S
H7100 C7093 0.961 . S
H7101 C7093 0.960 . S
H7102 C7094 0.930 . S
H7103 C7095 0.929 . S
H7104 C7112 0.929 . S
H7105 C7114 0.930 . S
H7106 C7116 0.930 . S
H7107 C7119 0.929 . S
H7108 C7122 0.930 . S
H7109 C7124 0.960 . S
H7110 C7124 0.960 . S
H7111 C7124 0.960 . S
C7112 H7104 0.929 . S
C7112 C7113 1.377 . S
C7112 C7114 1.384 . S
C7113 C7112 1.377 . S
C7113 C7119 1.390 . S
C7114 H7105 0.930 . S
C7114 C7112 1.384 . S
C7114 C7115 1.372 . S
C7115 C7114 1.372 . S
C7115 C7116 1.400 . S
C7115 C7120 1.490 . S
C7116 H7106 0.930 . S
C7116 C7115 1.400 . S
C7116 C7119 1.386 . S
H7117 C7133 0.930 . S
H7118 C7134 0.931 . S
C7119 H7107 0.929 . S
C7119 C7113 1.390 . S
C7119 C7116 1.386 . S
C7120 C7115 1.490 . S
C7120 C7122 1.395 . S
C7120 C7123 1.403 . S
H7121 C7127 0.930 . S
C7122 H7108 0.930 . S
C7122 C7120 1.395 . S
C7122 C7125 1.403 1_554 S
C7123 C7120 1.403 . S
C7123 C7124 1.524 . S
C7123 C7127 1.400 1_554 S
C7124 H7109 0.960 . S
C7124 H7110 0.960 . S
C7124 H7111 0.960 . S
C7124 C7123 1.524 . S
C7125 C7122 1.403 1_556 S
C7125 C7126 1.392 . S
C7125 C7129 1.495 . S
C7126 C7125 1.392 . S
C7126 C7127 1.385 . S
C7126 C7128 1.478 . S
C7127 H7121 0.930 . S
C7127 C7123 1.400 1_556 S
C7127 C7126 1.385 . S
C7128 C7126 1.478 . S
C7128 C7130 1.381 . S
C7128 C7134 1.383 . S
C7129 C7125 1.495 . S
C7129 H7135 0.959 . S
C7129 H7136 0.961 . S
C7129 H7137 0.960 . S
C7130 C7128 1.381 . S
C7130 C7131 1.394 . S
C7130 H7138 0.930 . S
C7131 C7130 1.394 . S
C7131 C7132 1.383 . S
C7131 H7139 0.929 . S
C7132 C7131 1.383 . S
C7132 C7133 1.377 . S
C7133 H7117 0.930 . S
C7133 C7132 1.377 . S
C7133 C7134 1.379 . S
C7134 H7118 0.931 . S
C7134 C7128 1.383 . S
C7134 C7133 1.379 . S
H7135 C7129 0.959 . S
H7136 C7129 0.961 . S
H7137 C7129 0.960 . S
H7138 C7130 0.930 . S
H7139 C7131 0.929 . S
H7140 C7148 0.929 . S
H7141 C7150 0.930 . S
H7142 C7152 0.930 . S
H7143 C7155 0.929 . S
H7144 C7158 0.930 . S
H7145 C7160 0.960 . S
H7146 C7160 0.960 . S
H7147 C7160 0.960 . S
C7148 H7140 0.929 . S
C7148 C7149 1.377 . S
C7148 C7150 1.384 . S
C7149 C7148 1.377 . S
C7149 C7155 1.390 . S
C7150 H7141 0.930 . S
C7150 C7148 1.384 . S
C7150 C7151 1.372 . S
C7151 C7150 1.372 . S
C7151 C7152 1.400 . S
C7151 C7156 1.490 . S
C7152 H7142 0.930 . S
C7152 C7151 1.400 . S
C7152 C7155 1.386 . S
H7153 C7169 0.930 . S
H7154 C7170 0.931 . S
C7155 H7143 0.929 . S
C7155 C7149 1.390 . S
C7155 C7152 1.386 . S
C7156 C7151 1.490 . S
C7156 C7158 1.395 . S
C7156 C7159 1.403 . S
H7157 C7163 0.930 . S
C7158 H7144 0.930 . S
C7158 C7156 1.395 . S
C7158 C7161 1.403 1_554 S
C7159 C7156 1.403 . S
C7159 C7160 1.524 . S
C7159 C7163 1.400 1_554 S
C7160 H7145 0.960 . S
C7160 H7146 0.960 . S
C7160 H7147 0.960 . S
C7160 C7159 1.524 . S
C7161 C7158 1.403 1_556 S
C7161 C7162 1.392 . S
C7161 C7165 1.495 . S
C7162 C7161 1.392 . S
C7162 C7163 1.385 . S
C7162 C7164 1.478 . S
C7163 H7157 0.930 . S
C7163 C7159 1.400 1_556 S
C7163 C7162 1.385 . S
C7164 C7162 1.478 . S
C7164 C7166 1.381 . S
C7164 C7170 1.383 . S
C7165 C7161 1.495 . S
C7165 H7171 0.959 . S
C7165 H7172 0.961 . S
C7165 H7173 0.960 . S
C7166 C7164 1.381 . S
C7166 C7167 1.394 . S
C7166 H7174 0.930 . S
C7167 C7166 1.394 . S
C7167 C7168 1.383 . S
C7167 H7175 0.929 . S
C7168 C7167 1.383 . S
C7168 C7169 1.377 . S
C7169 H7153 0.930 . S
C7169 C7168 1.377 . S
C7169 C7170 1.379 . S
C7170 H7154 0.931 . S
C7170 C7164 1.383 . S
C7170 C7169 1.379 . S
H7171 C7165 0.959 . S
H7172 C7165 0.961 . S
H7173 C7165 0.960 . S
H7174 C7166 0.930 . S
H7175 C7167 0.929 . S
H7176 C7184 0.929 . S
H7177 C7186 0.930 . S
H7178 C7188 0.930 . S
H7179 C7191 0.929 . S
H7180 C7194 0.930 . S
H7181 C7196 0.960 . S
H7182 C7196 0.960 . S
H7183 C7196 0.960 . S
C7184 H7176 0.929 . S
C7184 C7185 1.377 . S
C7184 C7186 1.384 . S
C7185 C7184 1.377 . S
C7185 C7191 1.390 . S
C7186 H7177 0.930 . S
C7186 C7184 1.384 . S
C7186 C7187 1.372 . S
C7187 C7186 1.372 . S
C7187 C7188 1.400 . S
C7187 C7192 1.490 . S
C7188 H7178 0.930 . S
C7188 C7187 1.400 . S
C7188 C7191 1.386 . S
H7189 C7205 0.930 . S
H7190 C7206 0.931 . S
C7191 H7179 0.929 . S
C7191 C7185 1.390 . S
C7191 C7188 1.386 . S
C7192 C7187 1.490 . S
C7192 C7194 1.395 . S
C7192 C7195 1.403 . S
H7193 C7199 0.930 . S
C7194 H7180 0.930 . S
C7194 C7192 1.395 . S
C7194 C7197 1.403 1_554 S
C7195 C7192 1.403 . S
C7195 C7196 1.524 . S
C7195 C7199 1.400 1_554 S
C7196 H7181 0.960 . S
C7196 H7182 0.960 . S
C7196 H7183 0.960 . S
C7196 C7195 1.524 . S
C7197 C7194 1.403 1_556 S
C7197 C7198 1.392 . S
C7197 C7201 1.495 . S
C7198 C7197 1.392 . S
C7198 C7199 1.385 . S
C7198 C7200 1.478 . S
C7199 H7193 0.930 . S
C7199 C7195 1.400 1_556 S
C7199 C7198 1.385 . S
C7200 C7198 1.478 . S
C7200 C7202 1.381 . S
C7200 C7206 1.383 . S
C7201 C7197 1.495 . S
C7201 H7207 0.959 . S
C7201 H7208 0.961 . S
C7201 H7209 0.960 . S
C7202 C7200 1.381 . S
C7202 C7203 1.394 . S
C7202 H7210 0.930 . S
C7203 C7202 1.394 . S
C7203 C7204 1.383 . S
C7203 H7211 0.929 . S
C7204 C7203 1.383 . S
C7204 C7205 1.377 . S
C7205 H7189 0.930 . S
C7205 C7204 1.377 . S
C7205 C7206 1.379 . S
C7206 H7190 0.931 . S
C7206 C7200 1.383 . S
C7206 C7205 1.379 . S
H7207 C7201 0.959 . S
H7208 C7201 0.961 . S
H7209 C7201 0.960 . S
H7210 C7202 0.930 . S
H7211 C7203 0.929 . S
H7212 C7220 0.929 . S
H7213 C7222 0.930 . S
H7214 C7224 0.930 . S
H7215 C7227 0.929 . S
H7216 C7230 0.930 . S
H7217 C7232 0.960 . S
H7218 C7232 0.960 . S
H7219 C7232 0.960 . S
C7220 H7212 0.929 . S
C7220 C7221 1.377 . S
C7220 C7222 1.384 . S
C7221 C7220 1.377 . S
C7221 C7227 1.390 . S
C7222 H7213 0.930 . S
C7222 C7220 1.384 . S
C7222 C7223 1.372 . S
C7223 C7222 1.372 . S
C7223 C7224 1.400 . S
C7223 C7228 1.490 . S
C7224 H7214 0.930 . S
C7224 C7223 1.400 . S
C7224 C7227 1.386 . S
H7225 C7241 0.930 . S
H7226 C7242 0.931 . S
C7227 H7215 0.929 . S
C7227 C7221 1.390 . S
C7227 C7224 1.386 . S
C7228 C7223 1.490 . S
C7228 C7230 1.395 . S
C7228 C7231 1.403 . S
H7229 C7235 0.930 . S
C7230 H7216 0.930 . S
C7230 C7228 1.395 . S
C7230 C7233 1.403 1_554 S
C7231 C7228 1.403 . S
C7231 C7232 1.524 . S
C7231 C7235 1.400 1_554 S
C7232 H7217 0.960 . S
C7232 H7218 0.960 . S
C7232 H7219 0.960 . S
C7232 C7231 1.524 . S
C7233 C7230 1.403 1_556 S
C7233 C7234 1.392 . S
C7233 C7237 1.495 . S
C7234 C7233 1.392 . S
C7234 C7235 1.385 . S
C7234 C7236 1.478 . S
C7235 H7229 0.930 . S
C7235 C7231 1.400 1_556 S
C7235 C7234 1.385 . S
C7236 C7234 1.478 . S
C7236 C7238 1.381 . S
C7236 C7242 1.383 . S
C7237 C7233 1.495 . S
C7237 H7243 0.959 . S
C7237 H7244 0.961 . S
C7237 H7245 0.960 . S
C7238 C7236 1.381 . S
C7238 C7239 1.394 . S
C7238 H7246 0.930 . S
C7239 C7238 1.394 . S
C7239 C7240 1.383 . S
C7239 H7247 0.929 . S
C7240 C7239 1.383 . S
C7240 C7241 1.377 . S
C7241 H7225 0.930 . S
C7241 C7240 1.377 . S
C7241 C7242 1.379 . S
C7242 H7226 0.931 . S
C7242 C7236 1.383 . S
C7242 C7241 1.379 . S
H7243 C7237 0.959 . S
H7244 C7237 0.961 . S
H7245 C7237 0.960 . S
H7246 C7238 0.930 . S
H7247 C7239 0.929 . S
H7248 C7256 0.929 . S
H7249 C7258 0.930 . S
H7250 C7260 0.930 . S
H7251 C7263 0.929 . S
H7252 C7266 0.930 . S
H7253 C7268 0.960 . S
H7254 C7268 0.960 . S
H7255 C7268 0.960 . S
C7256 H7248 0.929 . S
C7256 C7257 1.377 . S
C7256 C7258 1.384 . S
C7257 C7256 1.377 . S
C7257 C7263 1.390 . S
C7258 H7249 0.930 . S
C7258 C7256 1.384 . S
C7258 C7259 1.372 . S
C7259 C7258 1.372 . S
C7259 C7260 1.400 . S
C7259 C7264 1.490 . S
C7260 H7250 0.930 . S
C7260 C7259 1.400 . S
C7260 C7263 1.386 . S
H7261 C7277 0.930 . S
H7262 C7278 0.931 . S
C7263 H7251 0.929 . S
C7263 C7257 1.390 . S
C7263 C7260 1.386 . S
C7264 C7259 1.490 . S
C7264 C7266 1.395 . S
C7264 C7267 1.403 . S
H7265 C7271 0.930 . S
C7266 H7252 0.930 . S
C7266 C7264 1.395 . S
C7266 C7269 1.403 1_556 S
C7267 C7264 1.403 . S
C7267 C7268 1.524 . S
C7267 C7271 1.400 1_556 S
C7268 H7253 0.960 . S
C7268 H7254 0.960 . S
C7268 H7255 0.960 . S
C7268 C7267 1.524 . S
C7269 C7266 1.403 1_554 S
C7269 C7270 1.392 . S
C7269 C7273 1.495 . S
C7270 C7269 1.392 . S
C7270 C7271 1.385 . S
C7270 C7272 1.478 . S
C7271 H7265 0.930 . S
C7271 C7267 1.400 1_554 S
C7271 C7270 1.385 . S
C7272 C7270 1.478 . S
C7272 C7274 1.381 . S
C7272 C7278 1.383 . S
C7273 C7269 1.495 . S
C7273 H7279 0.959 . S
C7273 H7280 0.961 . S
C7273 H7281 0.960 . S
C7274 C7272 1.381 . S
C7274 C7275 1.394 . S
C7274 H7282 0.930 . S
C7275 C7274 1.394 . S
C7275 C7276 1.383 . S
C7275 H7283 0.929 . S
C7276 C7275 1.383 . S
C7276 C7277 1.377 . S
C7277 H7261 0.930 . S
C7277 C7276 1.377 . S
C7277 C7278 1.379 . S
C7278 H7262 0.931 . S
C7278 C7272 1.383 . S
C7278 C7277 1.379 . S
H7279 C7273 0.959 . S
H7280 C7273 0.961 . S
H7281 C7273 0.960 . S
H7282 C7274 0.930 . S
H7283 C7275 0.929 . S
H7284 C7292 0.929 . S
H7285 C7294 0.930 . S
H7286 C7296 0.930 . S
H7287 C7299 0.929 . S
H7288 C7302 0.930 . S
H7289 C7304 0.960 . S
H7290 C7304 0.960 . S
H7291 C7304 0.960 . S
C7292 H7284 0.929 . S
C7292 C7293 1.377 . S
C7292 C7294 1.384 . S
C7293 C7292 1.377 . S
C7293 C7299 1.390 . S
C7294 H7285 0.930 . S
C7294 C7292 1.384 . S
C7294 C7295 1.372 . S
C7295 C7294 1.372 . S
C7295 C7296 1.400 . S
C7295 C7300 1.490 . S
C7296 H7286 0.930 . S
C7296 C7295 1.400 . S
C7296 C7299 1.386 . S
H7297 C7313 0.930 . S
H7298 C7314 0.931 . S
C7299 H7287 0.929 . S
C7299 C7293 1.390 . S
C7299 C7296 1.386 . S
C7300 C7295 1.490 . S
C7300 C7302 1.395 . S
C7300 C7303 1.403 . S
H7301 C7307 0.930 . S
C7302 H7288 0.930 . S
C7302 C7300 1.395 . S
C7302 C7305 1.403 1_554 S
C7303 C7300 1.403 . S
C7303 C7304 1.524 . S
C7303 C7307 1.400 1_554 S
C7304 H7289 0.960 . S
C7304 H7290 0.960 . S
C7304 H7291 0.960 . S
C7304 C7303 1.524 . S
C7305 C7302 1.403 1_556 S
C7305 C7306 1.392 . S
C7305 C7309 1.495 . S
C7306 C7305 1.392 . S
C7306 C7307 1.385 . S
C7306 C7308 1.478 . S
C7307 H7301 0.930 . S
C7307 C7303 1.400 1_556 S
C7307 C7306 1.385 . S
C7308 C7306 1.478 . S
C7308 C7310 1.381 . S
C7308 C7314 1.383 . S
C7309 C7305 1.495 . S
C7309 H7315 0.959 . S
C7309 H7316 0.961 . S
C7309 H7317 0.960 . S
C7310 C7308 1.381 . S
C7310 C7311 1.394 . S
C7310 H7318 0.930 . S
C7311 C7310 1.394 . S
C7311 C7312 1.383 . S
C7311 H7319 0.929 . S
C7312 C7311 1.383 . S
C7312 C7313 1.377 . S
C7313 H7297 0.930 . S
C7313 C7312 1.377 . S
C7313 C7314 1.379 . S
C7314 H7298 0.931 . S
C7314 C7308 1.383 . S
C7314 C7313 1.379 . S
H7315 C7309 0.959 . S
H7316 C7309 0.961 . S
H7317 C7309 0.960 . S
H7318 C7310 0.930 . S
H7319 C7311 0.929 . S
H7320 C7328 0.929 . S
H7321 C7330 0.930 . S
H7322 C7332 0.930 . S
H7323 C7335 0.929 . S
H7324 C7338 0.930 . S
H7325 C7340 0.960 . S
H7326 C7340 0.960 . S
H7327 C7340 0.960 . S
C7328 H7320 0.929 . S
C7328 C7329 1.377 . S
C7328 C7330 1.384 . S
C7329 C7328 1.377 . S
C7329 C7335 1.390 . S
C7330 H7321 0.930 . S
C7330 C7328 1.384 . S
C7330 C7331 1.372 . S
C7331 C7330 1.372 . S
C7331 C7332 1.400 . S
C7331 C7336 1.490 . S
C7332 H7322 0.930 . S
C7332 C7331 1.400 . S
C7332 C7335 1.386 . S
H7333 C7349 0.930 . S
H7334 C7350 0.931 . S
C7335 H7323 0.929 . S
C7335 C7329 1.390 . S
C7335 C7332 1.386 . S
C7336 C7331 1.490 . S
C7336 C7338 1.395 . S
C7336 C7339 1.403 . S
H7337 C7343 0.930 . S
C7338 H7324 0.930 . S
C7338 C7336 1.395 . S
C7338 C7341 1.403 1_556 S
C7339 C7336 1.403 . S
C7339 C7340 1.524 . S
C7339 C7343 1.400 1_556 S
C7340 H7325 0.960 . S
C7340 H7326 0.960 . S
C7340 H7327 0.960 . S
C7340 C7339 1.524 . S
C7341 C7338 1.403 1_554 S
C7341 C7342 1.392 . S
C7341 C7345 1.495 . S
C7342 C7341 1.392 . S
C7342 C7343 1.385 . S
C7342 C7344 1.478 . S
C7343 H7337 0.930 . S
C7343 C7339 1.400 1_554 S
C7343 C7342 1.385 . S
C7344 C7342 1.478 . S
C7344 C7346 1.381 . S
C7344 C7350 1.383 . S
C7345 C7341 1.495 . S
C7345 H7351 0.959 . S
C7345 H7352 0.961 . S
C7345 H7353 0.960 . S
C7346 C7344 1.381 . S
C7346 C7347 1.394 . S
C7346 H7354 0.930 . S
C7347 C7346 1.394 . S
C7347 C7348 1.383 . S
C7347 H7355 0.929 . S
C7348 C7347 1.383 . S
C7348 C7349 1.377 . S
C7349 H7333 0.930 . S
C7349 C7348 1.377 . S
C7349 C7350 1.379 . S
C7350 H7334 0.931 . S
C7350 C7344 1.383 . S
C7350 C7349 1.379 . S
H7351 C7345 0.959 . S
H7352 C7345 0.961 . S
H7353 C7345 0.960 . S
H7354 C7346 0.930 . S
H7355 C7347 0.929 . S
H7356 C7364 0.929 . S
H7357 C7366 0.930 . S
H7358 C7368 0.930 . S
H7359 C7371 0.929 . S
H7360 C7374 0.930 . S
H7361 C7376 0.960 . S
H7362 C7376 0.960 . S
H7363 C7376 0.960 . S
C7364 H7356 0.929 . S
C7364 C7365 1.377 . S
C7364 C7366 1.384 . S
C7365 C7364 1.377 . S
C7365 C7371 1.390 . S
C7366 H7357 0.930 . S
C7366 C7364 1.384 . S
C7366 C7367 1.372 . S
C7367 C7366 1.372 . S
C7367 C7368 1.400 . S
C7367 C7372 1.490 . S
C7368 H7358 0.930 . S
C7368 C7367 1.400 . S
C7368 C7371 1.386 . S
H7369 C7385 0.930 . S
H7370 C7386 0.931 . S
C7371 H7359 0.929 . S
C7371 C7365 1.390 . S
C7371 C7368 1.386 . S
C7372 C7367 1.490 . S
C7372 C7374 1.395 . S
C7372 C7375 1.403 . S
H7373 C7379 0.930 . S
C7374 H7360 0.930 . S
C7374 C7372 1.395 . S
C7374 C7377 1.403 1_554 S
C7375 C7372 1.403 . S
C7375 C7376 1.524 . S
C7375 C7379 1.400 1_554 S
C7376 H7361 0.960 . S
C7376 H7362 0.960 . S
C7376 H7363 0.960 . S
C7376 C7375 1.524 . S
C7377 C7374 1.403 1_556 S
C7377 C7378 1.392 . S
C7377 C7381 1.495 . S
C7378 C7377 1.392 . S
C7378 C7379 1.385 . S
C7378 C7380 1.478 . S
C7379 H7373 0.930 . S
C7379 C7375 1.400 1_556 S
C7379 C7378 1.385 . S
C7380 C7378 1.478 . S
C7380 C7382 1.381 . S
C7380 C7386 1.383 . S
C7381 C7377 1.495 . S
C7381 H7387 0.959 . S
C7381 H7388 0.961 . S
C7381 H7389 0.960 . S
C7382 C7380 1.381 . S
C7382 C7383 1.394 . S
C7382 H7390 0.930 . S
C7383 C7382 1.394 . S
C7383 C7384 1.383 . S
C7383 H7391 0.929 . S
C7384 C7383 1.383 . S
C7384 C7385 1.377 . S
C7385 H7369 0.930 . S
C7385 C7384 1.377 . S
C7385 C7386 1.379 . S
C7386 H7370 0.931 . S
C7386 C7380 1.383 . S
C7386 C7385 1.379 . S
H7387 C7381 0.959 . S
H7388 C7381 0.961 . S
H7389 C7381 0.960 . S
H7390 C7382 0.930 . S
H7391 C7383 0.929 . S
H7392 C7400 0.929 . S
H7393 C7402 0.930 . S
H7394 C7404 0.930 . S
H7395 C7407 0.929 . S
H7396 C7410 0.930 . S
H7397 C7412 0.960 . S
H7398 C7412 0.960 . S
H7399 C7412 0.960 . S
C7400 H7392 0.929 . S
C7400 C7401 1.377 . S
C7400 C7402 1.384 . S
C7401 C7400 1.377 . S
C7401 C7407 1.390 . S
C7402 H7393 0.930 . S
C7402 C7400 1.384 . S
C7402 C7403 1.372 . S
C7403 C7402 1.372 . S
C7403 C7404 1.400 . S
C7403 C7408 1.490 . S
C7404 H7394 0.930 . S
C7404 C7403 1.400 . S
C7404 C7407 1.386 . S
H7405 C7421 0.930 . S
H7406 C7422 0.931 . S
C7407 H7395 0.929 . S
C7407 C7401 1.390 . S
C7407 C7404 1.386 . S
C7408 C7403 1.490 . S
C7408 C7410 1.395 . S
C7408 C7411 1.403 . S
H7409 C7415 0.930 . S
C7410 H7396 0.930 . S
C7410 C7408 1.395 . S
C7410 C7413 1.403 . S
C7411 C7408 1.403 . S
C7411 C7412 1.524 . S
C7411 C7415 1.400 . S
C7412 H7397 0.960 . S
C7412 H7398 0.960 . S
C7412 H7399 0.960 . S
C7412 C7411 1.524 . S
C7413 C7410 1.403 . S
C7413 C7414 1.392 . S
C7413 C7417 1.495 . S
C7414 C7413 1.392 . S
C7414 C7415 1.385 . S
C7414 C7416 1.478 . S
C7415 H7409 0.930 . S
C7415 C7411 1.400 . S
C7415 C7414 1.385 . S
C7416 C7414 1.478 . S
C7416 C7418 1.381 . S
C7416 C7422 1.383 . S
C7417 C7413 1.495 . S
C7417 H7423 0.959 . S
C7417 H7424 0.961 . S
C7417 H7425 0.960 . S
C7418 C7416 1.381 . S
C7418 C7419 1.394 . S
C7418 H7426 0.930 . S
C7419 C7418 1.394 . S
C7419 C7420 1.383 . S
C7419 H7427 0.929 . S
C7420 C7419 1.383 . S
C7420 C7421 1.377 . S
C7421 H7405 0.930 . S
C7421 C7420 1.377 . S
C7421 C7422 1.379 . S
C7422 H7406 0.931 . S
C7422 C7416 1.383 . S
C7422 C7421 1.379 . S
H7423 C7417 0.959 . S
H7424 C7417 0.961 . S
H7425 C7417 0.960 . S
H7426 C7418 0.930 . S
H7427 C7419 0.929 . S
H7428 C7436 0.929 . S
H7429 C7438 0.930 . S
H7430 C7440 0.930 . S
H7431 C7443 0.929 . S
H7432 C7446 0.930 . S
H7433 C7448 0.960 . S
H7434 C7448 0.960 . S
H7435 C7448 0.960 . S
C7436 H7428 0.929 . S
C7436 C7437 1.377 . S
C7436 C7438 1.384 . S
C7437 C7436 1.377 . S
C7437 C7443 1.390 . S
C7438 H7429 0.930 . S
C7438 C7436 1.384 . S
C7438 C7439 1.372 . S
C7439 C7438 1.372 . S
C7439 C7440 1.400 . S
C7439 C7444 1.490 . S
C7440 H7430 0.930 . S
C7440 C7439 1.400 . S
C7440 C7443 1.386 . S
H7441 C7457 0.930 . S
H7442 C7458 0.931 . S
C7443 H7431 0.929 . S
C7443 C7437 1.390 . S
C7443 C7440 1.386 . S
C7444 C7439 1.490 . S
C7444 C7446 1.395 . S
C7444 C7447 1.403 . S
H7445 C7451 0.930 . S
C7446 H7432 0.930 . S
C7446 C7444 1.395 . S
C7446 C7449 1.403 . S
C7447 C7444 1.403 . S
C7447 C7448 1.524 . S
C7447 C7451 1.400 . S
C7448 H7433 0.960 . S
C7448 H7434 0.960 . S
C7448 H7435 0.960 . S
C7448 C7447 1.524 . S
C7449 C7446 1.403 . S
C7449 C7450 1.392 . S
C7449 C7453 1.495 . S
C7450 C7449 1.392 . S
C7450 C7451 1.385 . S
C7450 C7452 1.478 . S
C7451 H7445 0.930 . S
C7451 C7447 1.400 . S
C7451 C7450 1.385 . S
C7452 C7450 1.478 . S
C7452 C7454 1.381 . S
C7452 C7458 1.383 . S
C7453 C7449 1.495 . S
C7453 H7459 0.959 . S
C7453 H7460 0.961 . S
C7453 H7461 0.960 . S
C7454 C7452 1.381 . S
C7454 C7455 1.394 . S
C7454 H7462 0.930 . S
C7455 C7454 1.394 . S
C7455 C7456 1.383 . S
C7455 H7463 0.929 . S
C7456 C7455 1.383 . S
C7456 C7457 1.377 . S
C7457 H7441 0.930 . S
C7457 C7456 1.377 . S
C7457 C7458 1.379 . S
C7458 H7442 0.931 . S
C7458 C7452 1.383 . S
C7458 C7457 1.379 . S
H7459 C7453 0.959 . S
H7460 C7453 0.961 . S
H7461 C7453 0.960 . S
H7462 C7454 0.930 . S
H7463 C7455 0.929 . S
H7464 C7472 0.929 . S
H7465 C7474 0.930 . S
H7466 C7476 0.930 . S
H7467 C7479 0.929 . S
H7468 C7482 0.930 . S
H7469 C7484 0.960 . S
H7470 C7484 0.960 . S
H7471 C7484 0.960 . S
C7472 H7464 0.929 . S
C7472 C7473 1.377 . S
C7472 C7474 1.384 . S
C7473 C7472 1.377 . S
C7473 C7479 1.390 . S
C7474 H7465 0.930 . S
C7474 C7472 1.384 . S
C7474 C7475 1.372 . S
C7475 C7474 1.372 . S
C7475 C7476 1.400 . S
C7475 C7480 1.490 . S
C7476 H7466 0.930 . S
C7476 C7475 1.400 . S
C7476 C7479 1.386 . S
H7477 C7493 0.930 . S
H7478 C7494 0.931 . S
C7479 H7467 0.929 . S
C7479 C7473 1.390 . S
C7479 C7476 1.386 . S
C7480 C7475 1.490 . S
C7480 C7482 1.395 . S
C7480 C7483 1.403 . S
H7481 C7487 0.930 . S
C7482 H7468 0.930 . S
C7482 C7480 1.395 . S
C7482 C7485 1.403 . S
C7483 C7480 1.403 . S
C7483 C7484 1.524 . S
C7483 C7487 1.400 . S
C7484 H7469 0.960 . S
C7484 H7470 0.960 . S
C7484 H7471 0.960 . S
C7484 C7483 1.524 . S
C7485 C7482 1.403 . S
C7485 C7486 1.392 . S
C7485 C7489 1.495 . S
C7486 C7485 1.392 . S
C7486 C7487 1.385 . S
C7486 C7488 1.478 . S
C7487 H7481 0.930 . S
C7487 C7483 1.400 . S
C7487 C7486 1.385 . S
C7488 C7486 1.478 . S
C7488 C7490 1.381 . S
C7488 C7494 1.383 . S
C7489 C7485 1.495 . S
C7489 H7495 0.959 . S
C7489 H7496 0.961 . S
C7489 H7497 0.960 . S
C7490 C7488 1.381 . S
C7490 C7491 1.394 . S
C7490 H7498 0.930 . S
C7491 C7490 1.394 . S
C7491 C7492 1.383 . S
C7491 H7499 0.929 . S
C7492 C7491 1.383 . S
C7492 C7493 1.377 . S
C7493 H7477 0.930 . S
C7493 C7492 1.377 . S
C7493 C7494 1.379 . S
C7494 H7478 0.931 . S
C7494 C7488 1.383 . S
C7494 C7493 1.379 . S
H7495 C7489 0.959 . S
H7496 C7489 0.961 . S
H7497 C7489 0.960 . S
H7498 C7490 0.930 . S
H7499 C7491 0.929 . S
H7500 C7508 0.929 . S
H7501 C7510 0.930 . S
H7502 C7512 0.930 . S
H7503 C7515 0.929 . S
H7504 C7518 0.930 . S
H7505 C7520 0.960 . S
H7506 C7520 0.960 . S
H7507 C7520 0.960 . S
C7508 H7500 0.929 . S
C7508 C7509 1.377 . S
C7508 C7510 1.384 . S
C7509 C7508 1.377 . S
C7509 C7515 1.390 . S
C7510 H7501 0.930 . S
C7510 C7508 1.384 . S
C7510 C7511 1.372 . S
C7511 C7510 1.372 . S
C7511 C7512 1.400 . S
C7511 C7516 1.490 . S
C7512 H7502 0.930 . S
C7512 C7511 1.400 . S
C7512 C7515 1.386 . S
H7513 C7529 0.930 . S
H7514 C7530 0.931 . S
C7515 H7503 0.929 . S
C7515 C7509 1.390 . S
C7515 C7512 1.386 . S
C7516 C7511 1.490 . S
C7516 C7518 1.395 . S
C7516 C7519 1.403 . S
H7517 C7523 0.930 . S
C7518 H7504 0.930 . S
C7518 C7516 1.395 . S
C7518 C7521 1.403 . S
C7519 C7516 1.403 . S
C7519 C7520 1.524 . S
C7519 C7523 1.400 . S
C7520 H7505 0.960 . S
C7520 H7506 0.960 . S
C7520 H7507 0.960 . S
C7520 C7519 1.524 . S
C7521 C7518 1.403 . S
C7521 C7522 1.392 . S
C7521 C7525 1.495 . S
C7522 C7521 1.392 . S
C7522 C7523 1.385 . S
C7522 C7524 1.478 . S
C7523 H7517 0.930 . S
C7523 C7519 1.400 . S
C7523 C7522 1.385 . S
C7524 C7522 1.478 . S
C7524 C7526 1.381 . S
C7524 C7530 1.383 . S
C7525 C7521 1.495 . S
C7525 H7531 0.959 . S
C7525 H7532 0.961 . S
C7525 H7533 0.960 . S
C7526 C7524 1.381 . S
C7526 C7527 1.394 . S
C7526 H7534 0.930 . S
C7527 C7526 1.394 . S
C7527 C7528 1.383 . S
C7527 H7535 0.929 . S
C7528 C7527 1.383 . S
C7528 C7529 1.377 . S
C7529 H7513 0.930 . S
C7529 C7528 1.377 . S
C7529 C7530 1.379 . S
C7530 H7514 0.931 . S
C7530 C7524 1.383 . S
C7530 C7529 1.379 . S
H7531 C7525 0.959 . S
H7532 C7525 0.961 . S
H7533 C7525 0.960 . S
H7534 C7526 0.930 . S
H7535 C7527 0.929 . S
H7536 C7544 0.929 . S
H7537 C7546 0.930 . S
H7538 C7548 0.930 . S
H7539 C7551 0.929 . S
H7540 C7554 0.930 . S
H7541 C7556 0.960 . S
H7542 C7556 0.960 . S
H7543 C7556 0.960 . S
C7544 H7536 0.929 . S
C7544 C7545 1.377 . S
C7544 C7546 1.384 . S
C7545 C7544 1.377 . S
C7545 C7551 1.390 . S
C7546 H7537 0.930 . S
C7546 C7544 1.384 . S
C7546 C7547 1.372 . S
C7547 C7546 1.372 . S
C7547 C7548 1.400 . S
C7547 C7552 1.490 . S
C7548 H7538 0.930 . S
C7548 C7547 1.400 . S
C7548 C7551 1.386 . S
H7549 C7565 0.930 . S
H7550 C7566 0.931 . S
C7551 H7539 0.929 . S
C7551 C7545 1.390 . S
C7551 C7548 1.386 . S
C7552 C7547 1.490 . S
C7552 C7554 1.395 . S
C7552 C7555 1.403 . S
H7553 C7559 0.930 . S
C7554 H7540 0.930 . S
C7554 C7552 1.395 . S
C7554 C7557 1.403 . S
C7555 C7552 1.403 . S
C7555 C7556 1.524 . S
C7555 C7559 1.400 . S
C7556 H7541 0.960 . S
C7556 H7542 0.960 . S
C7556 H7543 0.960 . S
C7556 C7555 1.524 . S
C7557 C7554 1.403 . S
C7557 C7558 1.392 . S
C7557 C7561 1.495 . S
C7558 C7557 1.392 . S
C7558 C7559 1.385 . S
C7558 C7560 1.478 . S
C7559 H7553 0.930 . S
C7559 C7555 1.400 . S
C7559 C7558 1.385 . S
C7560 C7558 1.478 . S
C7560 C7562 1.381 . S
C7560 C7566 1.383 . S
C7561 C7557 1.495 . S
C7561 H7567 0.959 . S
C7561 H7568 0.961 . S
C7561 H7569 0.960 . S
C7562 C7560 1.381 . S
C7562 C7563 1.394 . S
C7562 H7570 0.930 . S
C7563 C7562 1.394 . S
C7563 C7564 1.383 . S
C7563 H7571 0.929 . S
C7564 C7563 1.383 . S
C7564 C7565 1.377 . S
C7565 H7549 0.930 . S
C7565 C7564 1.377 . S
C7565 C7566 1.379 . S
C7566 H7550 0.931 . S
C7566 C7560 1.383 . S
C7566 C7565 1.379 . S
H7567 C7561 0.959 . S
H7568 C7561 0.961 . S
H7569 C7561 0.960 . S
H7570 C7562 0.930 . S
H7571 C7563 0.929 . S
H7572 C7580 0.929 . S
H7573 C7582 0.930 . S
H7574 C7584 0.930 . S
H7575 C7587 0.929 . S
H7576 C7590 0.930 . S
H7577 C7592 0.960 . S
H7578 C7592 0.960 . S
H7579 C7592 0.960 . S
C7580 H7572 0.929 . S
C7580 C7581 1.377 . S
C7580 C7582 1.384 . S
C7581 C7580 1.377 . S
C7581 C7587 1.390 . S
C7582 H7573 0.930 . S
C7582 C7580 1.384 . S
C7582 C7583 1.372 . S
C7583 C7582 1.372 . S
C7583 C7584 1.400 . S
C7583 C7588 1.490 . S
C7584 H7574 0.930 . S
C7584 C7583 1.400 . S
C7584 C7587 1.386 . S
H7585 C7601 0.930 . S
H7586 C7602 0.931 . S
C7587 H7575 0.929 . S
C7587 C7581 1.390 . S
C7587 C7584 1.386 . S
C7588 C7583 1.490 . S
C7588 C7590 1.395 . S
C7588 C7591 1.403 . S
H7589 C7595 0.930 . S
C7590 H7576 0.930 . S
C7590 C7588 1.395 . S
C7590 C7593 1.403 . S
C7591 C7588 1.403 . S
C7591 C7592 1.524 . S
C7591 C7595 1.400 . S
C7592 H7577 0.960 . S
C7592 H7578 0.960 . S
C7592 H7579 0.960 . S
C7592 C7591 1.524 . S
C7593 C7590 1.403 . S
C7593 C7594 1.392 . S
C7593 C7597 1.495 . S
C7594 C7593 1.392 . S
C7594 C7595 1.385 . S
C7594 C7596 1.478 . S
C7595 H7589 0.930 . S
C7595 C7591 1.400 . S
C7595 C7594 1.385 . S
C7596 C7594 1.478 . S
C7596 C7598 1.381 . S
C7596 C7602 1.383 . S
C7597 C7593 1.495 . S
C7597 H7603 0.959 . S
C7597 H7604 0.961 . S
C7597 H7605 0.960 . S
C7598 C7596 1.381 . S
C7598 C7599 1.394 . S
C7598 H7606 0.930 . S
C7599 C7598 1.394 . S
C7599 C7600 1.383 . S
C7599 H7607 0.929 . S
C7600 C7599 1.383 . S
C7600 C7601 1.377 . S
C7601 H7585 0.930 . S
C7601 C7600 1.377 . S
C7601 C7602 1.379 . S
C7602 H7586 0.931 . S
C7602 C7596 1.383 . S
C7602 C7601 1.379 . S
H7603 C7597 0.959 . S
H7604 C7597 0.961 . S
H7605 C7597 0.960 . S
H7606 C7598 0.930 . S
H7607 C7599 0.929 . S
H7608 C7616 0.929 . S
H7609 C7618 0.930 . S
H7610 C7620 0.930 . S
H7611 C7623 0.929 . S
H7612 C7626 0.930 . S
H7613 C7628 0.960 . S
H7614 C7628 0.960 . S
H7615 C7628 0.960 . S
C7616 H7608 0.929 . S
C7616 C7617 1.377 . S
C7616 C7618 1.384 . S
C7617 C7616 1.377 . S
C7617 C7623 1.390 . S
C7618 H7609 0.930 . S
C7618 C7616 1.384 . S
C7618 C7619 1.372 . S
C7619 C7618 1.372 . S
C7619 C7620 1.400 . S
C7619 C7624 1.490 . S
C7620 H7610 0.930 . S
C7620 C7619 1.400 . S
C7620 C7623 1.386 . S
H7621 C7637 0.930 . S
H7622 C7638 0.931 . S
C7623 H7611 0.929 . S
C7623 C7617 1.390 . S
C7623 C7620 1.386 . S
C7624 C7619 1.490 . S
C7624 C7626 1.395 . S
C7624 C7627 1.403 . S
H7625 C7631 0.930 . S
C7626 H7612 0.930 . S
C7626 C7624 1.395 . S
C7626 C7629 1.403 . S
C7627 C7624 1.403 . S
C7627 C7628 1.524 . S
C7627 C7631 1.400 . S
C7628 H7613 0.960 . S
C7628 H7614 0.960 . S
C7628 H7615 0.960 . S
C7628 C7627 1.524 . S
C7629 C7626 1.403 . S
C7629 C7630 1.392 . S
C7629 C7633 1.495 . S
C7630 C7629 1.392 . S
C7630 C7631 1.385 . S
C7630 C7632 1.478 . S
C7631 H7625 0.930 . S
C7631 C7627 1.400 . S
C7631 C7630 1.385 . S
C7632 C7630 1.478 . S
C7632 C7634 1.381 . S
C7632 C7638 1.383 . S
C7633 C7629 1.495 . S
C7633 H7639 0.959 . S
C7633 H7640 0.961 . S
C7633 H7641 0.960 . S
C7634 C7632 1.381 . S
C7634 C7635 1.394 . S
C7634 H7642 0.930 . S
C7635 C7634 1.394 . S
C7635 C7636 1.383 . S
C7635 H7643 0.929 . S
C7636 C7635 1.383 . S
C7636 C7637 1.377 . S
C7637 H7621 0.930 . S
C7637 C7636 1.377 . S
C7637 C7638 1.379 . S
C7638 H7622 0.931 . S
C7638 C7632 1.383 . S
C7638 C7637 1.379 . S
H7639 C7633 0.959 . S
H7640 C7633 0.961 . S
H7641 C7633 0.960 . S
H7642 C7634 0.930 . S
H7643 C7635 0.929 . S
H7644 C7652 0.929 . S
H7645 C7654 0.930 . S
H7646 C7656 0.930 . S
H7647 C7659 0.929 . S
H7648 C7662 0.930 . S
H7649 C7664 0.960 . S
H7650 C7664 0.960 . S
H7651 C7664 0.960 . S
C7652 H7644 0.929 . S
C7652 C7653 1.377 . S
C7652 C7654 1.384 . S
C7653 C7652 1.377 . S
C7653 C7659 1.390 . S
C7654 H7645 0.930 . S
C7654 C7652 1.384 . S
C7654 C7655 1.372 . S
C7655 C7654 1.372 . S
C7655 C7656 1.400 . S
C7655 C7660 1.490 . S
C7656 H7646 0.930 . S
C7656 C7655 1.400 . S
C7656 C7659 1.386 . S
H7657 C7673 0.930 . S
H7658 C7674 0.931 . S
C7659 H7647 0.929 . S
C7659 C7653 1.390 . S
C7659 C7656 1.386 . S
C7660 C7655 1.490 . S
C7660 C7662 1.395 . S
C7660 C7663 1.403 . S
H7661 C7667 0.930 . S
C7662 H7648 0.930 . S
C7662 C7660 1.395 . S
C7662 C7665 1.403 . S
C7663 C7660 1.403 . S
C7663 C7664 1.524 . S
C7663 C7667 1.400 . S
C7664 H7649 0.960 . S
C7664 H7650 0.960 . S
C7664 H7651 0.960 . S
C7664 C7663 1.524 . S
C7665 C7662 1.403 . S
C7665 C7666 1.392 . S
C7665 C7669 1.495 . S
C7666 C7665 1.392 . S
C7666 C7667 1.385 . S
C7666 C7668 1.478 . S
C7667 H7661 0.930 . S
C7667 C7663 1.400 . S
C7667 C7666 1.385 . S
C7668 C7666 1.478 . S
C7668 C7670 1.381 . S
C7668 C7674 1.383 . S
C7669 C7665 1.495 . S
C7669 H7675 0.959 . S
C7669 H7676 0.961 . S
C7669 H7677 0.960 . S
C7670 C7668 1.381 . S
C7670 C7671 1.394 . S
C7670 H7678 0.930 . S
C7671 C7670 1.394 . S
C7671 C7672 1.383 . S
C7671 H7679 0.929 . S
C7672 C7671 1.383 . S
C7672 C7673 1.377 . S
C7673 H7657 0.930 . S
C7673 C7672 1.377 . S
C7673 C7674 1.379 . S
C7674 H7658 0.931 . S
C7674 C7668 1.383 . S
C7674 C7673 1.379 . S
H7675 C7669 0.959 . S
H7676 C7669 0.961 . S
H7677 C7669 0.960 . S
H7678 C7670 0.930 . S
H7679 C7671 0.929 . S
H7680 C7688 0.929 . S
H7681 C7690 0.930 . S
H7682 C7692 0.930 . S
H7683 C7695 0.929 . S
H7684 C7698 0.930 . S
H7685 C7700 0.960 . S
H7686 C7700 0.960 . S
H7687 C7700 0.960 . S
C7688 H7680 0.929 . S
C7688 C7689 1.377 . S
C7688 C7690 1.384 . S
C7689 C7688 1.377 . S
C7689 C7695 1.390 . S
C7690 H7681 0.930 . S
C7690 C7688 1.384 . S
C7690 C7691 1.372 . S
C7691 C7690 1.372 . S
C7691 C7692 1.400 . S
C7691 C7696 1.490 . S
C7692 H7682 0.930 . S
C7692 C7691 1.400 . S
C7692 C7695 1.386 . S
H7693 C7709 0.930 . S
H7694 C7710 0.931 . S
C7695 H7683 0.929 . S
C7695 C7689 1.390 . S
C7695 C7692 1.386 . S
C7696 C7691 1.490 . S
C7696 C7698 1.395 . S
C7696 C7699 1.403 . S
H7697 C7703 0.930 . S
C7698 H7684 0.930 . S
C7698 C7696 1.395 . S
C7698 C7701 1.403 . S
C7699 C7696 1.403 . S
C7699 C7700 1.524 . S
C7699 C7703 1.400 . S
C7700 H7685 0.960 . S
C7700 H7686 0.960 . S
C7700 H7687 0.960 . S
C7700 C7699 1.524 . S
C7701 C7698 1.403 . S
C7701 C7702 1.392 . S
C7701 C7705 1.495 . S
C7702 C7701 1.392 . S
C7702 C7703 1.385 . S
C7702 C7704 1.478 . S
C7703 H7697 0.930 . S
C7703 C7699 1.400 . S
C7703 C7702 1.385 . S
C7704 C7702 1.478 . S
C7704 C7706 1.381 . S
C7704 C7710 1.383 . S
C7705 C7701 1.495 . S
C7705 H7711 0.959 . S
C7705 H7712 0.961 . S
C7705 H7713 0.960 . S
C7706 C7704 1.381 . S
C7706 C7707 1.394 . S
C7706 H7714 0.930 . S
C7707 C7706 1.394 . S
C7707 C7708 1.383 . S
C7707 H7715 0.929 . S
C7708 C7707 1.383 . S
C7708 C7709 1.377 . S
C7709 H7693 0.930 . S
C7709 C7708 1.377 . S
C7709 C7710 1.379 . S
C7710 H7694 0.931 . S
C7710 C7704 1.383 . S
C7710 C7709 1.379 . S
H7711 C7705 0.959 . S
H7712 C7705 0.961 . S
H7713 C7705 0.960 . S
H7714 C7706 0.930 . S
H7715 C7707 0.929 . S
H7716 C7724 0.929 . S
H7717 C7726 0.930 . S
H7718 C7728 0.930 . S
H7719 C7731 0.929 . S
H7720 C7734 0.930 . S
H7721 C7736 0.960 . S
H7722 C7736 0.960 . S
H7723 C7736 0.960 . S
C7724 H7716 0.929 . S
C7724 C7725 1.377 . S
C7724 C7726 1.384 . S
C7725 C7724 1.377 . S
C7725 C7731 1.390 . S
C7726 H7717 0.930 . S
C7726 C7724 1.384 . S
C7726 C7727 1.372 . S
C7727 C7726 1.372 . S
C7727 C7728 1.400 . S
C7727 C7732 1.490 . S
C7728 H7718 0.930 . S
C7728 C7727 1.400 . S
C7728 C7731 1.386 . S
H7729 C7745 0.930 . S
H7730 C7746 0.931 . S
C7731 H7719 0.929 . S
C7731 C7725 1.390 . S
C7731 C7728 1.386 . S
C7732 C7727 1.490 . S
C7732 C7734 1.395 . S
C7732 C7735 1.403 . S
H7733 C7739 0.930 . S
C7734 H7720 0.930 . S
C7734 C7732 1.395 . S
C7734 C7737 1.403 . S
C7735 C7732 1.403 . S
C7735 C7736 1.524 . S
C7735 C7739 1.400 . S
C7736 H7721 0.960 . S
C7736 H7722 0.960 . S
C7736 H7723 0.960 . S
C7736 C7735 1.524 . S
C7737 C7734 1.403 . S
C7737 C7738 1.392 . S
C7737 C7741 1.495 . S
C7738 C7737 1.392 . S
C7738 C7739 1.385 . S
C7738 C7740 1.478 . S
C7739 H7733 0.930 . S
C7739 C7735 1.400 . S
C7739 C7738 1.385 . S
C7740 C7738 1.478 . S
C7740 C7742 1.381 . S
C7740 C7746 1.383 . S
C7741 C7737 1.495 . S
C7741 H7747 0.959 . S
C7741 H7748 0.961 . S
C7741 H7749 0.960 . S
C7742 C7740 1.381 . S
C7742 C7743 1.394 . S
C7742 H7750 0.930 . S
C7743 C7742 1.394 . S
C7743 C7744 1.383 . S
C7743 H7751 0.929 . S
C7744 C7743 1.383 . S
C7744 C7745 1.377 . S
C7745 H7729 0.930 . S
C7745 C7744 1.377 . S
C7745 C7746 1.379 . S
C7746 H7730 0.931 . S
C7746 C7740 1.383 . S
C7746 C7745 1.379 . S
H7747 C7741 0.959 . S
H7748 C7741 0.961 . S
H7749 C7741 0.960 . S
H7750 C7742 0.930 . S
H7751 C7743 0.929 . S
H7752 C7760 0.929 . S
H7753 C7762 0.930 . S
H7754 C7764 0.930 . S
H7755 C7767 0.929 . S
H7756 C7770 0.930 . S
H7757 C7772 0.960 . S
H7758 C7772 0.960 . S
H7759 C7772 0.960 . S
C7760 H7752 0.929 . S
C7760 C7761 1.377 . S
C7760 C7762 1.384 . S
C7761 C7760 1.377 . S
C7761 C7767 1.390 . S
C7762 H7753 0.930 . S
C7762 C7760 1.384 . S
C7762 C7763 1.372 . S
C7763 C7762 1.372 . S
C7763 C7764 1.400 . S
C7763 C7768 1.490 . S
C7764 H7754 0.930 . S
C7764 C7763 1.400 . S
C7764 C7767 1.386 . S
H7765 C7781 0.930 . S
H7766 C7782 0.931 . S
C7767 H7755 0.929 . S
C7767 C7761 1.390 . S
C7767 C7764 1.386 . S
C7768 C7763 1.490 . S
C7768 C7770 1.395 . S
C7768 C7771 1.403 . S
H7769 C7775 0.930 . S
C7770 H7756 0.930 . S
C7770 C7768 1.395 . S
C7770 C7773 1.403 . S
C7771 C7768 1.403 . S
C7771 C7772 1.524 . S
C7771 C7775 1.400 . S
C7772 H7757 0.960 . S
C7772 H7758 0.960 . S
C7772 H7759 0.960 . S
C7772 C7771 1.524 . S
C7773 C7770 1.403 . S
C7773 C7774 1.392 . S
C7773 C7777 1.495 . S
C7774 C7773 1.392 . S
C7774 C7775 1.385 . S
C7774 C7776 1.478 . S
C7775 H7769 0.930 . S
C7775 C7771 1.400 . S
C7775 C7774 1.385 . S
C7776 C7774 1.478 . S
C7776 C7778 1.381 . S
C7776 C7782 1.383 . S
C7777 C7773 1.495 . S
C7777 H7783 0.959 . S
C7777 H7784 0.961 . S
C7777 H7785 0.960 . S
C7778 C7776 1.381 . S
C7778 C7779 1.394 . S
C7778 H7786 0.930 . S
C7779 C7778 1.394 . S
C7779 C7780 1.383 . S
C7779 H7787 0.929 . S
C7780 C7779 1.383 . S
C7780 C7781 1.377 . S
C7781 H7765 0.930 . S
C7781 C7780 1.377 . S
C7781 C7782 1.379 . S
C7782 H7766 0.931 . S
C7782 C7776 1.383 . S
C7782 C7781 1.379 . S
H7783 C7777 0.959 . S
H7784 C7777 0.961 . S
H7785 C7777 0.960 . S
H7786 C7778 0.930 . S
H7787 C7779 0.929 . S
H7788 C7796 0.929 . S
H7789 C7798 0.930 . S
H7790 C7800 0.930 . S
H7791 C7803 0.929 . S
H7792 C7806 0.930 . S
H7793 C7808 0.960 . S
H7794 C7808 0.960 . S
H7795 C7808 0.960 . S
C7796 H7788 0.929 . S
C7796 C7797 1.377 . S
C7796 C7798 1.384 . S
C7797 C7796 1.377 . S
C7797 C7803 1.390 . S
C7798 H7789 0.930 . S
C7798 C7796 1.384 . S
C7798 C7799 1.372 . S
C7799 C7798 1.372 . S
C7799 C7800 1.400 . S
C7799 C7804 1.490 . S
C7800 H7790 0.930 . S
C7800 C7799 1.400 . S
C7800 C7803 1.386 . S
H7801 C7817 0.930 . S
H7802 C7818 0.931 . S
C7803 H7791 0.929 . S
C7803 C7797 1.390 . S
C7803 C7800 1.386 . S
C7804 C7799 1.490 . S
C7804 C7806 1.395 . S
C7804 C7807 1.403 . S
H7805 C7811 0.930 . S
C7806 H7792 0.930 . S
C7806 C7804 1.395 . S
C7806 C7809 1.403 . S
C7807 C7804 1.403 . S
C7807 C7808 1.524 . S
C7807 C7811 1.400 . S
C7808 H7793 0.960 . S
C7808 H7794 0.960 . S
C7808 H7795 0.960 . S
C7808 C7807 1.524 . S
C7809 C7806 1.403 . S
C7809 C7810 1.392 . S
C7809 C7813 1.495 . S
C7810 C7809 1.392 . S
C7810 C7811 1.385 . S
C7810 C7812 1.478 . S
C7811 H7805 0.930 . S
C7811 C7807 1.400 . S
C7811 C7810 1.385 . S
C7812 C7810 1.478 . S
C7812 C7814 1.381 . S
C7812 C7818 1.383 . S
C7813 C7809 1.495 . S
C7813 H7819 0.959 . S
C7813 H7820 0.961 . S
C7813 H7821 0.960 . S
C7814 C7812 1.381 . S
C7814 C7815 1.394 . S
C7814 H7822 0.930 . S
C7815 C7814 1.394 . S
C7815 C7816 1.383 . S
C7815 H7823 0.929 . S
C7816 C7815 1.383 . S
C7816 C7817 1.377 . S
C7817 H7801 0.930 . S
C7817 C7816 1.377 . S
C7817 C7818 1.379 . S
C7818 H7802 0.931 . S
C7818 C7812 1.383 . S
C7818 C7817 1.379 . S
H7819 C7813 0.959 . S
H7820 C7813 0.961 . S
H7821 C7813 0.960 . S
H7822 C7814 0.930 . S
H7823 C7815 0.929 . S
H7824 C7832 0.929 . S
H7825 C7834 0.930 . S
H7826 C7836 0.930 . S
H7827 C7839 0.929 . S
H7828 C7842 0.930 . S
H7829 C7844 0.960 . S
H7830 C7844 0.960 . S
H7831 C7844 0.960 . S
C7832 H7824 0.929 . S
C7832 C7833 1.377 . S
C7832 C7834 1.384 . S
C7833 C7832 1.377 . S
C7833 C7839 1.390 . S
C7834 H7825 0.930 . S
C7834 C7832 1.384 . S
C7834 C7835 1.372 . S
C7835 C7834 1.372 . S
C7835 C7836 1.400 . S
C7835 C7840 1.490 . S
C7836 H7826 0.930 . S
C7836 C7835 1.400 . S
C7836 C7839 1.386 . S
H7837 C7853 0.930 . S
H7838 C7854 0.931 . S
C7839 H7827 0.929 . S
C7839 C7833 1.390 . S
C7839 C7836 1.386 . S
C7840 C7835 1.490 . S
C7840 C7842 1.395 . S
C7840 C7843 1.403 . S
H7841 C7847 0.930 . S
C7842 H7828 0.930 . S
C7842 C7840 1.395 . S
C7842 C7845 1.403 . S
C7843 C7840 1.403 . S
C7843 C7844 1.524 . S
C7843 C7847 1.400 . S
C7844 H7829 0.960 . S
C7844 H7830 0.960 . S
C7844 H7831 0.960 . S
C7844 C7843 1.524 . S
C7845 C7842 1.403 . S
C7845 C7846 1.392 . S
C7845 C7849 1.495 . S
C7846 C7845 1.392 . S
C7846 C7847 1.385 . S
C7846 C7848 1.478 . S
C7847 H7841 0.930 . S
C7847 C7843 1.400 . S
C7847 C7846 1.385 . S
C7848 C7846 1.478 . S
C7848 C7850 1.381 . S
C7848 C7854 1.383 . S
C7849 C7845 1.495 . S
C7849 H7855 0.959 . S
C7849 H7856 0.961 . S
C7849 H7857 0.960 . S
C7850 C7848 1.381 . S
C7850 C7851 1.394 . S
C7850 H7858 0.930 . S
C7851 C7850 1.394 . S
C7851 C7852 1.383 . S
C7851 H7859 0.929 . S
C7852 C7851 1.383 . S
C7852 C7853 1.377 . S
C7853 H7837 0.930 . S
C7853 C7852 1.377 . S
C7853 C7854 1.379 . S
C7854 H7838 0.931 . S
C7854 C7848 1.383 . S
C7854 C7853 1.379 . S
H7855 C7849 0.959 . S
H7856 C7849 0.961 . S
H7857 C7849 0.960 . S
H7858 C7850 0.930 . S
H7859 C7851 0.929 . S
H7860 C7868 0.929 . S
H7861 C7870 0.930 . S
H7862 C7872 0.930 . S
H7863 C7875 0.929 . S
H7864 C7878 0.930 . S
H7865 C7880 0.960 . S
H7866 C7880 0.960 . S
H7867 C7880 0.960 . S
C7868 H7860 0.929 . S
C7868 C7869 1.377 . S
C7868 C7870 1.384 . S
C7869 C7868 1.377 . S
C7869 C7875 1.390 . S
C7870 H7861 0.930 . S
C7870 C7868 1.384 . S
C7870 C7871 1.372 . S
C7871 C7870 1.372 . S
C7871 C7872 1.400 . S
C7871 C7876 1.490 . S
C7872 H7862 0.930 . S
C7872 C7871 1.400 . S
C7872 C7875 1.386 . S
H7873 C7889 0.930 . S
H7874 C7890 0.931 . S
C7875 H7863 0.929 . S
C7875 C7869 1.390 . S
C7875 C7872 1.386 . S
C7876 C7871 1.490 . S
C7876 C7878 1.395 . S
C7876 C7879 1.403 . S
H7877 C7883 0.930 . S
C7878 H7864 0.930 . S
C7878 C7876 1.395 . S
C7878 C7881 1.403 . S
C7879 C7876 1.403 . S
C7879 C7880 1.524 . S
C7879 C7883 1.400 . S
C7880 H7865 0.960 . S
C7880 H7866 0.960 . S
C7880 H7867 0.960 . S
C7880 C7879 1.524 . S
C7881 C7878 1.403 . S
C7881 C7882 1.392 . S
C7881 C7885 1.495 . S
C7882 C7881 1.392 . S
C7882 C7883 1.385 . S
C7882 C7884 1.478 . S
C7883 H7877 0.930 . S
C7883 C7879 1.400 . S
C7883 C7882 1.385 . S
C7884 C7882 1.478 . S
C7884 C7886 1.381 . S
C7884 C7890 1.383 . S
C7885 C7881 1.495 . S
C7885 H7891 0.959 . S
C7885 H7892 0.961 . S
C7885 H7893 0.960 . S
C7886 C7884 1.381 . S
C7886 C7887 1.394 . S
C7886 H7894 0.930 . S
C7887 C7886 1.394 . S
C7887 C7888 1.383 . S
C7887 H7895 0.929 . S
C7888 C7887 1.383 . S
C7888 C7889 1.377 . S
C7889 H7873 0.930 . S
C7889 C7888 1.377 . S
C7889 C7890 1.379 . S
C7890 H7874 0.931 . S
C7890 C7884 1.383 . S
C7890 C7889 1.379 . S
H7891 C7885 0.959 . S
H7892 C7885 0.961 . S
H7893 C7885 0.960 . S
H7894 C7886 0.930 . S
H7895 C7887 0.929 . S
H7896 C7904 0.929 . S
H7897 C7906 0.930 . S
H7898 C7908 0.930 . S
H7899 C7911 0.929 . S
H7900 C7914 0.930 . S
H7901 C7916 0.960 . S
H7902 C7916 0.960 . S
H7903 C7916 0.960 . S
C7904 H7896 0.929 . S
C7904 C7905 1.377 . S
C7904 C7906 1.384 . S
C7905 C7904 1.377 . S
C7905 C7911 1.390 . S
C7906 H7897 0.930 . S
C7906 C7904 1.384 . S
C7906 C7907 1.372 . S
C7907 C7906 1.372 . S
C7907 C7908 1.400 . S
C7907 C7912 1.490 . S
C7908 H7898 0.930 . S
C7908 C7907 1.400 . S
C7908 C7911 1.386 . S
H7909 C7925 0.930 . S
H7910 C7926 0.931 . S
C7911 H7899 0.929 . S
C7911 C7905 1.390 . S
C7911 C7908 1.386 . S
C7912 C7907 1.490 . S
C7912 C7914 1.395 . S
C7912 C7915 1.403 . S
H7913 C7919 0.930 . S
C7914 H7900 0.930 . S
C7914 C7912 1.395 . S
C7914 C7917 1.403 . S
C7915 C7912 1.403 . S
C7915 C7916 1.524 . S
C7915 C7919 1.400 . S
C7916 H7901 0.960 . S
C7916 H7902 0.960 . S
C7916 H7903 0.960 . S
C7916 C7915 1.524 . S
C7917 C7914 1.403 . S
C7917 C7918 1.392 . S
C7917 C7921 1.495 . S
C7918 C7917 1.392 . S
C7918 C7919 1.385 . S
C7918 C7920 1.478 . S
C7919 H7913 0.930 . S
C7919 C7915 1.400 . S
C7919 C7918 1.385 . S
C7920 C7918 1.478 . S
C7920 C7922 1.381 . S
C7920 C7926 1.383 . S
C7921 C7917 1.495 . S
C7921 H7927 0.959 . S
C7921 H7928 0.961 . S
C7921 H7929 0.960 . S
C7922 C7920 1.381 . S
C7922 C7923 1.394 . S
C7922 H7930 0.930 . S
C7923 C7922 1.394 . S
C7923 C7924 1.383 . S
C7923 H7931 0.929 . S
C7924 C7923 1.383 . S
C7924 C7925 1.377 . S
C7925 H7909 0.930 . S
C7925 C7924 1.377 . S
C7925 C7926 1.379 . S
C7926 H7910 0.931 . S
C7926 C7920 1.383 . S
C7926 C7925 1.379 . S
H7927 C7921 0.959 . S
H7928 C7921 0.961 . S
H7929 C7921 0.960 . S
H7930 C7922 0.930 . S
H7931 C7923 0.929 . S
H7932 C7940 0.929 . S
H7933 C7942 0.930 . S
H7934 C7944 0.930 . S
H7935 C7947 0.929 . S
H7936 C7950 0.930 . S
H7937 C7952 0.960 . S
H7938 C7952 0.960 . S
H7939 C7952 0.960 . S
C7940 H7932 0.929 . S
C7940 C7941 1.377 . S
C7940 C7942 1.384 . S
C7941 C7940 1.377 . S
C7941 C7947 1.390 . S
C7942 H7933 0.930 . S
C7942 C7940 1.384 . S
C7942 C7943 1.372 . S
C7943 C7942 1.372 . S
C7943 C7944 1.400 . S
C7943 C7948 1.490 . S
C7944 H7934 0.930 . S
C7944 C7943 1.400 . S
C7944 C7947 1.386 . S
H7945 C7961 0.930 . S
H7946 C7962 0.931 . S
C7947 H7935 0.929 . S
C7947 C7941 1.390 . S
C7947 C7944 1.386 . S
C7948 C7943 1.490 . S
C7948 C7950 1.395 . S
C7948 C7951 1.403 . S
H7949 C7955 0.930 . S
C7950 H7936 0.930 . S
C7950 C7948 1.395 . S
C7950 C7953 1.403 . S
C7951 C7948 1.403 . S
C7951 C7952 1.524 . S
C7951 C7955 1.400 . S
C7952 H7937 0.960 . S
C7952 H7938 0.960 . S
C7952 H7939 0.960 . S
C7952 C7951 1.524 . S
C7953 C7950 1.403 . S
C7953 C7954 1.392 . S
C7953 C7957 1.495 . S
C7954 C7953 1.392 . S
C7954 C7955 1.385 . S
C7954 C7956 1.478 . S
C7955 H7949 0.930 . S
C7955 C7951 1.400 . S
C7955 C7954 1.385 . S
C7956 C7954 1.478 . S
C7956 C7958 1.381 . S
C7956 C7962 1.383 . S
C7957 C7953 1.495 . S
C7957 H7963 0.959 . S
C7957 H7964 0.961 . S
C7957 H7965 0.960 . S
C7958 C7956 1.381 . S
C7958 C7959 1.394 . S
C7958 H7966 0.930 . S
C7959 C7958 1.394 . S
C7959 C7960 1.383 . S
C7959 H7967 0.929 . S
C7960 C7959 1.383 . S
C7960 C7961 1.377 . S
C7961 H7945 0.930 . S
C7961 C7960 1.377 . S
C7961 C7962 1.379 . S
C7962 H7946 0.931 . S
C7962 C7956 1.383 . S
C7962 C7961 1.379 . S
H7963 C7957 0.959 . S
H7964 C7957 0.961 . S
H7965 C7957 0.960 . S
H7966 C7958 0.930 . S
H7967 C7959 0.929 . S
H7968 C7976 0.929 . S
H7969 C7978 0.930 . S
H7970 C7980 0.930 . S
H7971 C7983 0.929 . S
H7972 C7986 0.930 . S
H7973 C7988 0.960 . S
H7974 C7988 0.960 . S
H7975 C7988 0.960 . S
C7976 H7968 0.929 . S
C7976 C7977 1.377 . S
C7976 C7978 1.384 . S
C7977 C7976 1.377 . S
C7977 C7983 1.390 . S
C7978 H7969 0.930 . S
C7978 C7976 1.384 . S
C7978 C7979 1.372 . S
C7979 C7978 1.372 . S
C7979 C7980 1.400 . S
C7979 C7984 1.490 . S
C7980 H7970 0.930 . S
C7980 C7979 1.400 . S
C7980 C7983 1.386 . S
H7981 C7997 0.930 . S
H7982 C7998 0.931 . S
C7983 H7971 0.929 . S
C7983 C7977 1.390 . S
C7983 C7980 1.386 . S
C7984 C7979 1.490 . S
C7984 C7986 1.395 . S
C7984 C7987 1.403 . S
H7985 C7991 0.930 . S
C7986 H7972 0.930 . S
C7986 C7984 1.395 . S
C7986 C7989 1.403 . S
C7987 C7984 1.403 . S
C7987 C7988 1.524 . S
C7987 C7991 1.400 . S
C7988 H7973 0.960 . S
C7988 H7974 0.960 . S
C7988 H7975 0.960 . S
C7988 C7987 1.524 . S
C7989 C7986 1.403 . S
C7989 C7990 1.392 . S
C7989 C7993 1.495 . S
C7990 C7989 1.392 . S
C7990 C7991 1.385 . S
C7990 C7992 1.478 . S
C7991 H7985 0.930 . S
C7991 C7987 1.400 . S
C7991 C7990 1.385 . S
C7992 C7990 1.478 . S
C7992 C7994 1.381 . S
C7992 C7998 1.383 . S
C7993 C7989 1.495 . S
C7993 H7999 0.959 . S
C7993 H8000 0.961 . S
C7993 H8001 0.960 . S
C7994 C7992 1.381 . S
C7994 C7995 1.394 . S
C7994 H8002 0.930 . S
C7995 C7994 1.394 . S
C7995 C7996 1.383 . S
C7995 H8003 0.929 . S
C7996 C7995 1.383 . S
C7996 C7997 1.377 . S
C7997 H7981 0.930 . S
C7997 C7996 1.377 . S
C7997 C7998 1.379 . S
C7998 H7982 0.931 . S
C7998 C7992 1.383 . S
C7998 C7997 1.379 . S
H7999 C7993 0.959 . S
H8000 C7993 0.961 . S
H8001 C7993 0.960 . S
H8002 C7994 0.930 . S
H8003 C7995 0.929 . S
H8004 C8012 0.929 . S
H8005 C8014 0.930 . S
H8006 C8016 0.930 . S
H8007 C8019 0.929 . S
H8008 C8022 0.930 . S
H8009 C8024 0.960 . S
H8010 C8024 0.960 . S
H8011 C8024 0.960 . S
C8012 H8004 0.929 . S
C8012 C8013 1.377 . S
C8012 C8014 1.384 . S
C8013 C8012 1.377 . S
C8013 C8019 1.390 . S
C8014 H8005 0.930 . S
C8014 C8012 1.384 . S
C8014 C8015 1.372 . S
C8015 C8014 1.372 . S
C8015 C8016 1.400 . S
C8015 C8020 1.490 . S
C8016 H8006 0.930 . S
C8016 C8015 1.400 . S
C8016 C8019 1.386 . S
H8017 C8033 0.930 . S
H8018 C8034 0.931 . S
C8019 H8007 0.929 . S
C8019 C8013 1.390 . S
C8019 C8016 1.386 . S
C8020 C8015 1.490 . S
C8020 C8022 1.395 . S
C8020 C8023 1.403 . S
H8021 C8027 0.930 . S
C8022 H8008 0.930 . S
C8022 C8020 1.395 . S
C8022 C8025 1.403 . S
C8023 C8020 1.403 . S
C8023 C8024 1.524 . S
C8023 C8027 1.400 . S
C8024 H8009 0.960 . S
C8024 H8010 0.960 . S
C8024 H8011 0.960 . S
C8024 C8023 1.524 . S
C8025 C8022 1.403 . S
C8025 C8026 1.392 . S
C8025 C8029 1.495 . S
C8026 C8025 1.392 . S
C8026 C8027 1.385 . S
C8026 C8028 1.478 . S
C8027 H8021 0.930 . S
C8027 C8023 1.400 . S
C8027 C8026 1.385 . S
C8028 C8026 1.478 . S
C8028 C8030 1.381 . S
C8028 C8034 1.383 . S
C8029 C8025 1.495 . S
C8029 H8035 0.959 . S
C8029 H8036 0.961 . S
C8029 H8037 0.960 . S
C8030 C8028 1.381 . S
C8030 C8031 1.394 . S
C8030 H8038 0.930 . S
C8031 C8030 1.394 . S
C8031 C8032 1.383 . S
C8031 H8039 0.929 . S
C8032 C8031 1.383 . S
C8032 C8033 1.377 . S
C8033 H8017 0.930 . S
C8033 C8032 1.377 . S
C8033 C8034 1.379 . S
C8034 H8018 0.931 . S
C8034 C8028 1.383 . S
C8034 C8033 1.379 . S
H8035 C8029 0.959 . S
H8036 C8029 0.961 . S
H8037 C8029 0.960 . S
H8038 C8030 0.930 . S
H8039 C8031 0.929 . S
H8040 C8048 0.929 . S
H8041 C8050 0.930 . S
H8042 C8052 0.930 . S
H8043 C8055 0.929 . S
H8044 C8058 0.930 . S
H8045 C8060 0.960 . S
H8046 C8060 0.960 . S
H8047 C8060 0.960 . S
C8048 H8040 0.929 . S
C8048 C8049 1.377 . S
C8048 C8050 1.384 . S
C8049 C8048 1.377 . S
C8049 C8055 1.390 . S
C8050 H8041 0.930 . S
C8050 C8048 1.384 . S
C8050 C8051 1.372 . S
C8051 C8050 1.372 . S
C8051 C8052 1.400 . S
C8051 C8056 1.490 . S
C8052 H8042 0.930 . S
C8052 C8051 1.400 . S
C8052 C8055 1.386 . S
H8053 C8069 0.930 . S
H8054 C8070 0.931 . S
C8055 H8043 0.929 . S
C8055 C8049 1.390 . S
C8055 C8052 1.386 . S
C8056 C8051 1.490 . S
C8056 C8058 1.395 . S
C8056 C8059 1.403 . S
H8057 C8063 0.930 . S
C8058 H8044 0.930 . S
C8058 C8056 1.395 . S
C8058 C8061 1.403 . S
C8059 C8056 1.403 . S
C8059 C8060 1.524 . S
C8059 C8063 1.400 . S
C8060 H8045 0.960 . S
C8060 H8046 0.960 . S
C8060 H8047 0.960 . S
C8060 C8059 1.524 . S
C8061 C8058 1.403 . S
C8061 C8062 1.392 . S
C8061 C8065 1.495 . S
C8062 C8061 1.392 . S
C8062 C8063 1.385 . S
C8062 C8064 1.478 . S
C8063 H8057 0.930 . S
C8063 C8059 1.400 . S
C8063 C8062 1.385 . S
C8064 C8062 1.478 . S
C8064 C8066 1.381 . S
C8064 C8070 1.383 . S
C8065 C8061 1.495 . S
C8065 H8071 0.959 . S
C8065 H8072 0.961 . S
C8065 H8073 0.960 . S
C8066 C8064 1.381 . S
C8066 C8067 1.394 . S
C8066 H8074 0.930 . S
C8067 C8066 1.394 . S
C8067 C8068 1.383 . S
C8067 H8075 0.929 . S
C8068 C8067 1.383 . S
C8068 C8069 1.377 . S
C8069 H8053 0.930 . S
C8069 C8068 1.377 . S
C8069 C8070 1.379 . S
C8070 H8054 0.931 . S
C8070 C8064 1.383 . S
C8070 C8069 1.379 . S
H8071 C8065 0.959 . S
H8072 C8065 0.961 . S
H8073 C8065 0.960 . S
H8074 C8066 0.930 . S
H8075 C8067 0.929 . S
H8076 C8084 0.929 . S
H8077 C8086 0.930 . S
H8078 C8088 0.930 . S
H8079 C8091 0.929 . S
H8080 C8094 0.930 . S
H8081 C8096 0.960 . S
H8082 C8096 0.960 . S
H8083 C8096 0.960 . S
C8084 H8076 0.929 . S
C8084 C8085 1.377 . S
C8084 C8086 1.384 . S
C8085 C8084 1.377 . S
C8085 C8091 1.390 . S
C8086 H8077 0.930 . S
C8086 C8084 1.384 . S
C8086 C8087 1.372 . S
C8087 C8086 1.372 . S
C8087 C8088 1.400 . S
C8087 C8092 1.490 . S
C8088 H8078 0.930 . S
C8088 C8087 1.400 . S
C8088 C8091 1.386 . S
H8089 C8105 0.930 . S
H8090 C8106 0.931 . S
C8091 H8079 0.929 . S
C8091 C8085 1.390 . S
C8091 C8088 1.386 . S
C8092 C8087 1.490 . S
C8092 C8094 1.395 . S
C8092 C8095 1.403 . S
H8093 C8099 0.930 . S
C8094 H8080 0.930 . S
C8094 C8092 1.395 . S
C8094 C8097 1.403 . S
C8095 C8092 1.403 . S
C8095 C8096 1.524 . S
C8095 C8099 1.400 . S
C8096 H8081 0.960 . S
C8096 H8082 0.960 . S
C8096 H8083 0.960 . S
C8096 C8095 1.524 . S
C8097 C8094 1.403 . S
C8097 C8098 1.392 . S
C8097 C8101 1.495 . S
C8098 C8097 1.392 . S
C8098 C8099 1.385 . S
C8098 C8100 1.478 . S
C8099 H8093 0.930 . S
C8099 C8095 1.400 . S
C8099 C8098 1.385 . S
C8100 C8098 1.478 . S
C8100 C8102 1.381 . S
C8100 C8106 1.383 . S
C8101 C8097 1.495 . S
C8101 H8107 0.959 . S
C8101 H8108 0.961 . S
C8101 H8109 0.960 . S
C8102 C8100 1.381 . S
C8102 C8103 1.394 . S
C8102 H8110 0.930 . S
C8103 C8102 1.394 . S
C8103 C8104 1.383 . S
C8103 H8111 0.929 . S
C8104 C8103 1.383 . S
C8104 C8105 1.377 . S
C8105 H8089 0.930 . S
C8105 C8104 1.377 . S
C8105 C8106 1.379 . S
C8106 H8090 0.931 . S
C8106 C8100 1.383 . S
C8106 C8105 1.379 . S
H8107 C8101 0.959 . S
H8108 C8101 0.961 . S
H8109 C8101 0.960 . S
H8110 C8102 0.930 . S
H8111 C8103 0.929 . S
H8112 C8120 0.929 . S
H8113 C8122 0.930 . S
H8114 C8124 0.930 . S
H8115 C8127 0.929 . S
H8116 C8130 0.930 . S
H8117 C8132 0.960 . S
H8118 C8132 0.960 . S
H8119 C8132 0.960 . S
C8120 H8112 0.929 . S
C8120 C8121 1.377 . S
C8120 C8122 1.384 . S
C8121 C8120 1.377 . S
C8121 C8127 1.390 . S
C8122 H8113 0.930 . S
C8122 C8120 1.384 . S
C8122 C8123 1.372 . S
C8123 C8122 1.372 . S
C8123 C8124 1.400 . S
C8123 C8128 1.490 . S
C8124 H8114 0.930 . S
C8124 C8123 1.400 . S
C8124 C8127 1.386 . S
H8125 C8141 0.930 . S
H8126 C8142 0.931 . S
C8127 H8115 0.929 . S
C8127 C8121 1.390 . S
C8127 C8124 1.386 . S
C8128 C8123 1.490 . S
C8128 C8130 1.395 . S
C8128 C8131 1.403 . S
H8129 C8135 0.930 . S
C8130 H8116 0.930 . S
C8130 C8128 1.395 . S
C8130 C8133 1.403 . S
C8131 C8128 1.403 . S
C8131 C8132 1.524 . S
C8131 C8135 1.400 . S
C8132 H8117 0.960 . S
C8132 H8118 0.960 . S
C8132 H8119 0.960 . S
C8132 C8131 1.524 . S
C8133 C8130 1.403 . S
C8133 C8134 1.392 . S
C8133 C8137 1.495 . S
C8134 C8133 1.392 . S
C8134 C8135 1.385 . S
C8134 C8136 1.478 . S
C8135 H8129 0.930 . S
C8135 C8131 1.400 . S
C8135 C8134 1.385 . S
C8136 C8134 1.478 . S
C8136 C8138 1.381 . S
C8136 C8142 1.383 . S
C8137 C8133 1.495 . S
C8137 H8143 0.959 . S
C8137 H8144 0.961 . S
C8137 H8145 0.960 . S
C8138 C8136 1.381 . S
C8138 C8139 1.394 . S
C8138 H8146 0.930 . S
C8139 C8138 1.394 . S
C8139 C8140 1.383 . S
C8139 H8147 0.929 . S
C8140 C8139 1.383 . S
C8140 C8141 1.377 . S
C8141 H8125 0.930 . S
C8141 C8140 1.377 . S
C8141 C8142 1.379 . S
C8142 H8126 0.931 . S
C8142 C8136 1.383 . S
C8142 C8141 1.379 . S
H8143 C8137 0.959 . S
H8144 C8137 0.961 . S
H8145 C8137 0.960 . S
H8146 C8138 0.930 . S
H8147 C8139 0.929 . S
H8148 C8156 0.929 . S
H8149 C8158 0.930 . S
H8150 C8160 0.930 . S
H8151 C8163 0.929 . S
H8152 C8166 0.930 . S
H8153 C8168 0.960 . S
H8154 C8168 0.960 . S
H8155 C8168 0.960 . S
C8156 H8148 0.929 . S
C8156 C8157 1.377 . S
C8156 C8158 1.384 . S
C8157 C8156 1.377 . S
C8157 C8163 1.390 . S
C8158 H8149 0.930 . S
C8158 C8156 1.384 . S
C8158 C8159 1.372 . S
C8159 C8158 1.372 . S
C8159 C8160 1.400 . S
C8159 C8164 1.490 . S
C8160 H8150 0.930 . S
C8160 C8159 1.400 . S
C8160 C8163 1.386 . S
H8161 C8177 0.930 . S
H8162 C8178 0.931 . S
C8163 H8151 0.929 . S
C8163 C8157 1.390 . S
C8163 C8160 1.386 . S
C8164 C8159 1.490 . S
C8164 C8166 1.395 . S
C8164 C8167 1.403 . S
H8165 C8171 0.930 . S
C8166 H8152 0.930 . S
C8166 C8164 1.395 . S
C8166 C8169 1.403 . S
C8167 C8164 1.403 . S
C8167 C8168 1.524 . S
C8167 C8171 1.400 . S
C8168 H8153 0.960 . S
C8168 H8154 0.960 . S
C8168 H8155 0.960 . S
C8168 C8167 1.524 . S
C8169 C8166 1.403 . S
C8169 C8170 1.392 . S
C8169 C8173 1.495 . S
C8170 C8169 1.392 . S
C8170 C8171 1.385 . S
C8170 C8172 1.478 . S
C8171 H8165 0.930 . S
C8171 C8167 1.400 . S
C8171 C8170 1.385 . S
C8172 C8170 1.478 . S
C8172 C8174 1.381 . S
C8172 C8178 1.383 . S
C8173 C8169 1.495 . S
C8173 H8179 0.959 . S
C8173 H8180 0.961 . S
C8173 H8181 0.960 . S
C8174 C8172 1.381 . S
C8174 C8175 1.394 . S
C8174 H8182 0.930 . S
C8175 C8174 1.394 . S
C8175 C8176 1.383 . S
C8175 H8183 0.929 . S
C8176 C8175 1.383 . S
C8176 C8177 1.377 . S
C8177 H8161 0.930 . S
C8177 C8176 1.377 . S
C8177 C8178 1.379 . S
C8178 H8162 0.931 . S
C8178 C8172 1.383 . S
C8178 C8177 1.379 . S
H8179 C8173 0.959 . S
H8180 C8173 0.961 . S
H8181 C8173 0.960 . S
H8182 C8174 0.930 . S
H8183 C8175 0.929 . S
H8184 C8192 0.929 . S
H8185 C8194 0.930 . S
H8186 C8196 0.930 . S
H8187 C8199 0.929 . S
H8188 C8202 0.930 . S
H8189 C8204 0.960 . S
H8190 C8204 0.960 . S
H8191 C8204 0.960 . S
C8192 H8184 0.929 . S
C8192 C8193 1.377 . S
C8192 C8194 1.384 . S
C8193 C8192 1.377 . S
C8193 C8199 1.390 . S
C8194 H8185 0.930 . S
C8194 C8192 1.384 . S
C8194 C8195 1.372 . S
C8195 C8194 1.372 . S
C8195 C8196 1.400 . S
C8195 C8200 1.490 . S
C8196 H8186 0.930 . S
C8196 C8195 1.400 . S
C8196 C8199 1.386 . S
H8197 C8213 0.930 . S
H8198 C8214 0.931 . S
C8199 H8187 0.929 . S
C8199 C8193 1.390 . S
C8199 C8196 1.386 . S
C8200 C8195 1.490 . S
C8200 C8202 1.395 . S
C8200 C8203 1.403 . S
H8201 C8207 0.930 . S
C8202 H8188 0.930 . S
C8202 C8200 1.395 . S
C8202 C8205 1.403 . S
C8203 C8200 1.403 . S
C8203 C8204 1.524 . S
C8203 C8207 1.400 . S
C8204 H8189 0.960 . S
C8204 H8190 0.960 . S
C8204 H8191 0.960 . S
C8204 C8203 1.524 . S
C8205 C8202 1.403 . S
C8205 C8206 1.392 . S
C8205 C8209 1.495 . S
C8206 C8205 1.392 . S
C8206 C8207 1.385 . S
C8206 C8208 1.478 . S
C8207 H8201 0.930 . S
C8207 C8203 1.400 . S
C8207 C8206 1.385 . S
C8208 C8206 1.478 . S
C8208 C8210 1.381 . S
C8208 C8214 1.383 . S
C8209 C8205 1.495 . S
C8209 H8215 0.959 . S
C8209 H8216 0.961 . S
C8209 H8217 0.960 . S
C8210 C8208 1.381 . S
C8210 C8211 1.394 . S
C8210 H8218 0.930 . S
C8211 C8210 1.394 . S
C8211 C8212 1.383 . S
C8211 H8219 0.929 . S
C8212 C8211 1.383 . S
C8212 C8213 1.377 . S
C8213 H8197 0.930 . S
C8213 C8212 1.377 . S
C8213 C8214 1.379 . S
C8214 H8198 0.931 . S
C8214 C8208 1.383 . S
C8214 C8213 1.379 . S
H8215 C8209 0.959 . S
H8216 C8209 0.961 . S
H8217 C8209 0.960 . S
H8218 C8210 0.930 . S
H8219 C8211 0.929 . S
H8220 C8228 0.929 . S
H8221 C8230 0.930 . S
H8222 C8232 0.930 . S
H8223 C8235 0.929 . S
H8224 C8238 0.930 . S
H8225 C8240 0.960 . S
H8226 C8240 0.960 . S
H8227 C8240 0.960 . S
C8228 H8220 0.929 . S
C8228 C8229 1.377 . S
C8228 C8230 1.384 . S
C8229 C8228 1.377 . S
C8229 C8235 1.390 . S
C8230 H8221 0.930 . S
C8230 C8228 1.384 . S
C8230 C8231 1.372 . S
C8231 C8230 1.372 . S
C8231 C8232 1.400 . S
C8231 C8236 1.490 . S
C8232 H8222 0.930 . S
C8232 C8231 1.400 . S
C8232 C8235 1.386 . S
H8233 C8249 0.930 . S
H8234 C8250 0.931 . S
C8235 H8223 0.929 . S
C8235 C8229 1.390 . S
C8235 C8232 1.386 . S
C8236 C8231 1.490 . S
C8236 C8238 1.395 . S
C8236 C8239 1.403 . S
H8237 C8243 0.930 . S
C8238 H8224 0.930 . S
C8238 C8236 1.395 . S
C8238 C8241 1.403 . S
C8239 C8236 1.403 . S
C8239 C8240 1.524 . S
C8239 C8243 1.400 . S
C8240 H8225 0.960 . S
C8240 H8226 0.960 . S
C8240 H8227 0.960 . S
C8240 C8239 1.524 . S
C8241 C8238 1.403 . S
C8241 C8242 1.392 . S
C8241 C8245 1.495 . S
C8242 C8241 1.392 . S
C8242 C8243 1.385 . S
C8242 C8244 1.478 . S
C8243 H8237 0.930 . S
C8243 C8239 1.400 . S
C8243 C8242 1.385 . S
C8244 C8242 1.478 . S
C8244 C8246 1.381 . S
C8244 C8250 1.383 . S
C8245 C8241 1.495 . S
C8245 H8251 0.959 . S
C8245 H8252 0.961 . S
C8245 H8253 0.960 . S
C8246 C8244 1.381 . S
C8246 C8247 1.394 . S
C8246 H8254 0.930 . S
C8247 C8246 1.394 . S
C8247 C8248 1.383 . S
C8247 H8255 0.929 . S
C8248 C8247 1.383 . S
C8248 C8249 1.377 . S
C8249 H8233 0.930 . S
C8249 C8248 1.377 . S
C8249 C8250 1.379 . S
C8250 H8234 0.931 . S
C8250 C8244 1.383 . S
C8250 C8249 1.379 . S
H8251 C8245 0.959 . S
H8252 C8245 0.961 . S
H8253 C8245 0.960 . S
H8254 C8246 0.930 . S
H8255 C8247 0.929 . S
C1353 C555 1.430 . S
C1372 C9 1.436 . S
C1389 C513 1.430 . S
C1408 C23 1.437 . S
C1425 C527 1.434 . S
C1444 C37 1.416 . S
C1461 C541 1.433 . S
C1480 C51 1.417 . S
C1497 C471 1.434 . S
C1516 C65 1.415 . S
C1533 C485 1.433 . S
C1552 C79 1.417 . S
C1569 C93 1.429 . S
C1588 C499 1.437 . S
C1605 C457 1.429 . S
C1624 C107 1.441 . S
C1641 C121 1.429 . S
C1660 C443 1.441 . S
C1677 C135 1.434 . S
C1696 C401 1.415 . S
C1713 C149 1.432 . S
C1732 C415 1.418 . S
C1749 C163 1.433 . S
C1768 C429 1.416 . S
C1785 C359 1.433 . S
C1804 C177 1.415 . S
C1821 C373 1.433 . S
C1840 C191 1.417 . S
C1857 C387 1.432 . S
C1876 C205 1.418 . S
C1893 C345 1.429 . S
C1912 C219 1.441 . S
C1929 C233 1.431 . S
C1948 C625 1.425 . S
C1965 C247 1.433 . S
C1984 C667 1.416 . S
C2001 C639 1.430 . S
C2020 C261 1.427 . S
C2037 C653 1.431 . S
C2056 C275 1.422 . S
C2073 C569 1.430 . S
C2092 C289 1.439 . S
C2109 C597 1.434 . S
C2128 C303 1.416 . S
C2145 C317 1.430 . S
C2164 C611 1.426 . S
C2181 C583 1.433 . S
C2200 C331 1.417 . S
C2217 C989 1.428 . S
C2236 C681 1.441 . S
C2253 C695 1.429 . S
C2272 C1003 1.434 . S
C2289 C709 1.429 . S
C2308 C975 1.437 . S
C2325 C723 1.430 . S
C2344 C961 1.438 . S
C2361 C737 1.428 . S
C2380 C947 1.439 . S
C2397 C751 1.431 . S
C2416 C933 1.433 . S
C2433 C905 1.434 . S
C2452 C765 1.418 . S
C2469 C919 1.429 . S
C2488 C779 1.441 . S
C2505 C793 1.431 . S
C2524 C1073 1.435 . S
C2541 C807 1.432 . S
C2560 C1115 1.419 . S
C2577 C1087 1.431 . S
C2596 C821 1.423 . S
C2613 C835 1.430 . S
C2632 C1101 1.438 . S
C2649 C849 1.434 . S
C2668 C1017 1.415 . S
C2685 C863 1.429 . S
C2704 C1045 1.432 . S
C2721 C1059 1.433 . S
C2740 C877 1.416 . S
C2757 C1031 1.432 . S
C2776 C891 1.419 . S
C2793 C1129 1.430 . S
C2812 C1339 1.427 . S
C2829 C1325 1.434 . S
C2848 C1143 1.415 . S
C2865 C1297 1.428 . S
C2884 C1157 1.440 . S
C2901 C1311 1.433 . S
C2920 C1171 1.422 . S
C2937 C1269 1.428 . S
C2956 C1185 1.441 . S
C2973 C1199 1.432 . S
C2992 C1283 1.418 . S
C3009 C1255 1.433 . S
C3028 C1213 1.415 . S
C3045 C1241 1.431 . S
C3064 C1227 1.422 . S
C3081 C5 0.692 . S
C3100 C434 0.627 . S
C3117 C19 0.692 . S
C3136 C392 0.627 . S
C3153 C33 0.677 . S
C3172 C406 0.746 . S
C3189 C47 0.674 . S
C3208 C420 0.754 . S
C3225 C61 0.676 . S
C3244 C350 0.750 . S
C3261 C75 0.691 . S
C3280 C364 0.629 . S
C3297 C378 0.679 . S
C3316 C89 0.727 . S
C3333 C103 0.677 . S
C3352 C336 0.721 . S
C3369 C117 0.674 . S
C3388 C616 0.749 . S
C3405 C574 0.694 . S
C3424 C131 0.690 . S
C3441 C145 0.689 . S
C3460 C588 0.675 . S
C3477 C159 0.691 . S
C3496 C602 0.632 . S
C3513 C658 0.705 . S
C3532 C173 0.642 . S
C3549 C630 0.686 . S
C3568 C187 0.689 . S
C3585 C644 0.694 . S
C3604 C201 0.690 . S
C3621 C215 0.674 . S
C3640 C560 0.746 . S
C3657 C229 0.693 . S
C3676 C546 0.631 . S
C3693 C243 0.679 . S
C3712 C462 0.739 . S
C3729 C257 0.688 . S
C3748 C476 0.645 . S
C3765 C271 0.692 . S
C3784 C490 0.640 . S
C3801 C285 0.685 . S
C3820 C448 0.703 . S
C3837 C299 0.683 . S
C3856 C518 0.676 . S
C3873 C532 0.681 . S
C3892 C313 0.708 . S
C3909 C327 0.685 . S
C3928 C504 0.664 . S
C3945 C467 0.693 . S
C3964 C938 0.631 . S
C3981 C210 0.703 . S
C4000 C677 0.656 . S
C4017 C495 0.692 . S
C4036 C924 0.644 . S
C4053 C691 0.676 . S
C4072 C182 0.734 . S
C4089 C551 0.675 . S
C4108 C896 0.734 . S
C4125 C705 0.684 . S
C4144 C154 0.667 . S
C4161 C910 0.695 . S
C4180 C523 0.661 . S
C4197 C719 0.677 . S
C4216 C126 0.718 . S
C4233 C1064 0.679 . S
C4252 C733 0.727 . S
C4269 C341 0.691 . S
C4288 C1022 0.629 . S
C4305 C1036 0.700 . S
C4324 C747 0.666 . S
C4341 C1050 0.682 . S
C4360 C369 0.705 . S
C4377 C1106 0.698 . S
C4396 C761 0.652 . S
C4413 C425 0.676 . S
C4432 C1078 0.749 . S
C4449 C775 0.680 . S
C4468 C1092 0.700 . S
C4485 C397 0.674 . S
C4504 C1008 0.753 . S
C4521 C789 0.676 . S
C4540 C56 0.752 . S
C4557 C803 0.689 . S
C4576 C0 0.637 . S
C4593 C966 0.691 . S
C4612 C817 0.675 . S
C4629 C831 0.676 . S
C4648 C28 0.749 . S
C4665 C845 0.674 . S
C4684 C952 0.754 . S
C4701 C84 0.693 . S
C4720 C859 0.667 . S
C4737 C873 0.678 . S
C4756 C994 0.711 . S
C4773 C980 0.693 . S
C4792 C887 0.667 . S
C4809 C196 0.700 . S
C4828 C1125 0.646 . S
C4845 C1260 0.701 . S
C4864 C481 0.663 . S
C4881 C1139 0.684 . S
C4900 C168 0.669 . S
C4917 C453 0.692 . S
C4936 C1274 0.628 . S
C4953 C140 0.683 . S
C4972 C1153 0.702 . S
C4989 C1246 0.694 . S
C5008 C509 0.690 . S
C5025 C112 0.680 . S
C5044 C1167 0.727 . S
C5061 C1232 0.693 . S
C5080 C537 0.694 . S
C5097 C854 0.692 . S
C5116 C383 0.697 . S
C5133 C1181 0.684 . S
C5152 C868 0.672 . S
C5169 C784 0.703 . S
C5188 C355 0.652 . S
C5205 C1195 0.674 . S
C5224 C882 0.754 . S
C5241 C826 0.679 . S
C5260 C411 0.721 . S
C5277 C1209 0.685 . S
C5296 C840 0.662 . S
C5313 C439 0.692 . S
C5332 C798 0.628 . S
C5349 C812 0.694 . S
C5368 C1223 0.663 . S
C5385 C1330 0.685 . S
C5404 C1041 0.695 . S
C5421 C1288 0.685 . S
C5440 C1097 0.717 . S
C5457 C1013 0.675 . S
C5476 C14 0.754 . S
C5493 C1302 0.697 . S
C5512 C1111 0.655 . S
C5529 C42 0.680 . S
C5548 C1083 0.713 . S
C5565 C1069 0.689 . S
C5584 C1316 0.674 . S
C5601 C1027 0.678 . S
C5620 C98 0.743 . S
C5637 C1055 0.680 . S
C5656 C70 0.730 . S
C5673 C1293 0.691 . S
C5692 C770 0.656 . S
C5709 C1218 0.692 . S
C5728 C971 0.670 . S
C5745 C1307 0.691 . S
C5764 C756 0.657 . S
C5781 C957 0.688 . S
C5800 C1204 0.647 . S
C5817 C1335 0.674 . S
C5836 C742 0.754 . S
C5853 C985 0.680 . S
C5872 C1190 0.732 . S
C5889 C1321 0.674 . S
C5908 C728 0.754 . S
C5925 C999 0.692 . S
C5944 C1176 0.628 . S
C5961 C915 0.688 . S
C5980 C294 0.645 . S
C5997 C308 0.680 . S
C6016 C1237 0.714 . S
C6033 C901 0.689 . S
C6052 C224 0.640 . S
C6069 C1251 0.681 . S
C6088 C322 0.692 . S
C6105 C929 0.674 . S
C6124 C266 0.745 . S
C6141 C280 0.693 . S
C6160 C1279 0.695 . S
C6177 C238 0.680 . S
C6196 C943 0.713 . S
C6213 C252 0.687 . S
C6232 C1265 0.711 . S
C6249 C1148 0.698 . S
C6268 C593 0.677 . S
C6285 C649 0.681 . S
C6304 C1120 0.690 . S
C6321 C672 0.699 . S
C6340 C565 0.672 . S
C6357 C663 0.674 . S
C6376 C1134 0.750 . S
C6393 C686 0.693 . S
C6412 C635 0.666 . S
C6429 C1162 0.702 . S
C6448 C621 0.642 . S
C6465 C714 0.698 . S
C6484 C579 0.677 . S
C6501 C700 0.701 . S
C6520 C607 0.662 . S
C6537 C403 1.080 . S
C6556 C11 1.056 . S
C6573 C25 1.073 . S
C6592 C417 1.069 . S
C6609 C431 1.076 . S
C6628 C39 1.058 . S
C6645 C53 1.081 . S
C6664 C445 1.062 . S
C6681 C347 1.073 . S
C6700 C67 1.076 . S
C6717 C361 1.073 . S
C6736 C81 1.074 . S
C6753 C95 1.074 . S
C6772 C375 1.066 . S
C6789 C109 1.072 . S
C6808 C389 1.077 . S
C6825 C543 1.079 . S
C6844 C123 1.086 . S
C6861 C137 1.072 . S
C6880 C557 1.085 . S
C6897 C151 1.074 . S
C6916 C515 1.064 . S
C6933 C529 1.076 . S
C6952 C165 1.058 . S
C6969 C179 1.074 . S
C6988 C487 1.095 . S
C7005 C501 1.076 . S
C7024 C193 1.095 . S
C7041 C459 1.078 . S
C7060 C207 1.090 . S
C7077 C473 1.076 . S
C7096 C221 1.056 . S
C7113 C235 1.074 . S
C7132 C641 1.067 . S
C7149 C613 1.080 . S
C7168 C249 1.055 . S
C7185 C627 1.081 . S
C7204 C263 1.067 . S
C7221 C585 1.078 . S
C7240 C277 1.054 . S
C7257 C291 1.074 . S
C7276 C599 1.094 . S
C7293 C305 1.073 . S
C7312 C571 1.076 . S
C7329 C669 1.078 . S
C7348 C319 1.092 . S
C7365 C333 1.076 . S
C7384 C655 1.094 . S
C7401 C683 1.075 . S
C7420 C935 1.060 . S
C7437 C949 1.081 . S
C7456 C697 1.077 . S
C7473 C907 1.080 . S
C7492 C711 1.058 . S
C7509 C921 1.075 . S
C7528 C725 1.060 . S
C7545 C739 1.080 . S
C7564 C1005 1.080 . S
C7581 C991 1.073 . S
C7600 C753 1.068 . S
C7617 C767 1.080 . S
C7636 C977 1.057 . S
C7653 C781 1.074 . S
C7672 C963 1.067 . S
C7689 C1089 1.081 . S
C7708 C795 1.064 . S
C7725 C809 1.080 . S
C7744 C1061 1.084 . S
C7761 C1075 1.078 . S
C7780 C823 1.054 . S
C7797 C1033 1.074 . S
C7816 C837 1.094 . S
C7833 C1047 1.076 . S
C7852 C851 1.056 . S
C7869 C1019 1.074 . S
C7888 C865 1.067 . S
C7905 C1117 1.074 . S
C7924 C879 1.064 . S
C7941 C1103 1.075 . S
C7960 C893 1.060 . S
C7977 C1131 1.075 . S
C7996 C1271 1.060 . S
C8013 C1285 1.080 . S
C8032 C1145 1.082 . S
C8049 C1159 1.074 . S
C8068 C1243 1.094 . S
C8085 C1257 1.076 . S
C8104 C1173 1.056 . S
C8121 C1187 1.079 . S
C8140 C1341 1.054 . S
C8157 C1201 1.075 . S
C8176 C1327 1.061 . S
C8193 C1313 1.079 . S
C8212 C1215 1.088 . S
C8229 C1229 1.080 . S
C8248 C1299 1.056 . S
