# Generated by pormake.
# Topology whp, (6)-cn, num edge types: 1
# Building blocks:
#     Node 0, Type 0, BuildingBlock: OJICUG_clean_sbu_0, # of connection points: 6
#     Node 1, Type 0, BuildingBlock: OJICUG_clean_sbu_0, # of connection points: 6
#     Node 2, Type 0, BuildingBlock: OJICUG_clean_sbu_0, # of connection points: 6
#     Node 3, Type 0, BuildingBlock: OJICUG_clean_sbu_0, # of connection points: 6
#     Node 4, Type 0, BuildingBlock: OJICUG_clean_sbu_0, # of connection points: 6
#     Node 5, Type 0, BuildingBlock: OJICUG_clean_sbu_0, # of connection points: 6
#     Node 6, Type 0, BuildingBlock: OJICUG_clean_sbu_0, # of connection points: 6
#     Node 7, Type 0, BuildingBlock: OJICUG_clean_sbu_0, # of connection points: 6
#     Node 8, Type 0, BuildingBlock: OJICUG_clean_sbu_0, # of connection points: 6
#     Node 9, Type 0, BuildingBlock: OJICUG_clean_sbu_0, # of connection points: 6
#     Node 10, Type 0, BuildingBlock: OJICUG_clean_sbu_0, # of connection points: 6
#     Node 11, Type 0, BuildingBlock: OJICUG_clean_sbu_0, # of connection points: 6
#     Node 12, Type 0, BuildingBlock: OJICUG_clean_sbu_0, # of connection points: 6
#     Node 13, Type 0, BuildingBlock: OJICUG_clean_sbu_0, # of connection points: 6
#     Node 14, Type 0, BuildingBlock: OJICUG_clean_sbu_0, # of connection points: 6
#     Node 15, Type 0, BuildingBlock: OJICUG_clean_sbu_0, # of connection points: 6
#     Edge 16, Type (0, 0), BuildingBlock: TEMPAE_clean_linker_10, # of connection points: 2
#     Edge 17, Type (0, 0), BuildingBlock: TEMPAE_clean_linker_10, # of connection points: 2
#     Edge 18, Type (0, 0), BuildingBlock: TEMPAE_clean_linker_10, # of connection points: 2
#     Edge 19, Type (0, 0), BuildingBlock: TEMPAE_clean_linker_10, # of connection points: 2
#     Edge 20, Type (0, 0), BuildingBlock: TEMPAE_clean_linker_10, # of connection points: 2
#     Edge 21, Type (0, 0), BuildingBlock: TEMPAE_clean_linker_10, # of connection points: 2
#     Edge 22, Type (0, 0), BuildingBlock: TEMPAE_clean_linker_10, # of connection points: 2
#     Edge 23, Type (0, 0), BuildingBlock: TEMPAE_clean_linker_10, # of connection points: 2
#     Edge 24, Type (0, 0), BuildingBlock: TEMPAE_clean_linker_10, # of connection points: 2
#     Edge 25, Type (0, 0), BuildingBlock: TEMPAE_clean_linker_10, # of connection points: 2
#     Edge 26, Type (0, 0), BuildingBlock: TEMPAE_clean_linker_10, # of connection points: 2
#     Edge 27, Type (0, 0), BuildingBlock: TEMPAE_clean_linker_10, # of connection points: 2
#     Edge 28, Type (0, 0), BuildingBlock: TEMPAE_clean_linker_10, # of connection points: 2
#     Edge 29, Type (0, 0), BuildingBlock: TEMPAE_clean_linker_10, # of connection points: 2
#     Edge 30, Type (0, 0), BuildingBlock: TEMPAE_clean_linker_10, # of connection points: 2
#     Edge 31, Type (0, 0), BuildingBlock: TEMPAE_clean_linker_10, # of connection points: 2
#     Edge 32, Type (0, 0), BuildingBlock: TEMPAE_clean_linker_10, # of connection points: 2
#     Edge 33, Type (0, 0), BuildingBlock: TEMPAE_clean_linker_10, # of connection points: 2
#     Edge 34, Type (0, 0), BuildingBlock: TEMPAE_clean_linker_10, # of connection points: 2
#     Edge 35, Type (0, 0), BuildingBlock: TEMPAE_clean_linker_10, # of connection points: 2
#     Edge 36, Type (0, 0), BuildingBlock: TEMPAE_clean_linker_10, # of connection points: 2
#     Edge 37, Type (0, 0), BuildingBlock: TEMPAE_clean_linker_10, # of connection points: 2
#     Edge 38, Type (0, 0), BuildingBlock: TEMPAE_clean_linker_10, # of connection points: 2
#     Edge 39, Type (0, 0), BuildingBlock: TEMPAE_clean_linker_10, # of connection points: 2
#     Edge 40, Type (0, 0), BuildingBlock: TEMPAE_clean_linker_10, # of connection points: 2
#     Edge 41, Type (0, 0), BuildingBlock: TEMPAE_clean_linker_10, # of connection points: 2
#     Edge 42, Type (0, 0), BuildingBlock: TEMPAE_clean_linker_10, # of connection points: 2
#     Edge 43, Type (0, 0), BuildingBlock: TEMPAE_clean_linker_10, # of connection points: 2
#     Edge 44, Type (0, 0), BuildingBlock: TEMPAE_clean_linker_10, # of connection points: 2
#     Edge 45, Type (0, 0), BuildingBlock: TEMPAE_clean_linker_10, # of connection points: 2
#     Edge 46, Type (0, 0), BuildingBlock: TEMPAE_clean_linker_10, # of connection points: 2
#     Edge 47, Type (0, 0), BuildingBlock: TEMPAE_clean_linker_10, # of connection points: 2
#     Edge 48, Type (0, 0), BuildingBlock: TEMPAE_clean_linker_10, # of connection points: 2
#     Edge 49, Type (0, 0), BuildingBlock: TEMPAE_clean_linker_10, # of connection points: 2
#     Edge 50, Type (0, 0), BuildingBlock: TEMPAE_clean_linker_10, # of connection points: 2
#     Edge 51, Type (0, 0), BuildingBlock: TEMPAE_clean_linker_10, # of connection points: 2
#     Edge 52, Type (0, 0), BuildingBlock: TEMPAE_clean_linker_10, # of connection points: 2
#     Edge 53, Type (0, 0), BuildingBlock: TEMPAE_clean_linker_10, # of connection points: 2
#     Edge 54, Type (0, 0), BuildingBlock: TEMPAE_clean_linker_10, # of connection points: 2
#     Edge 55, Type (0, 0), BuildingBlock: TEMPAE_clean_linker_10, # of connection points: 2
#     Edge 56, Type (0, 0), BuildingBlock: TEMPAE_clean_linker_10, # of connection points: 2
#     Edge 57, Type (0, 0), BuildingBlock: TEMPAE_clean_linker_10, # of connection points: 2
#     Edge 58, Type (0, 0), BuildingBlock: TEMPAE_clean_linker_10, # of connection points: 2
#     Edge 59, Type (0, 0), BuildingBlock: TEMPAE_clean_linker_10, # of connection points: 2
#     Edge 60, Type (0, 0), BuildingBlock: TEMPAE_clean_linker_10, # of connection points: 2
#     Edge 61, Type (0, 0), BuildingBlock: TEMPAE_clean_linker_10, # of connection points: 2
#     Edge 62, Type (0, 0), BuildingBlock: TEMPAE_clean_linker_10, # of connection points: 2
#     Edge 63, Type (0, 0), BuildingBlock: TEMPAE_clean_linker_10, # of connection points: 2
# Relax obj value: 0.276
# Max RMSD: 0.243
# Mean RMSD: 0.243
data_MOF--net-whp--node1-OJICUG_clean_sbu_0--edge1-TEMPAE_clean_linker_10
_symmetry_space_group_name_H-M    P1
_symmetry_Int_Tables_number       1
_symmetry_cell_setting            triclinic
loop_
_symmetry_equiv_pos_as_xyz
'x, y, z'
_cell_length_a     48.668938
_cell_length_b     48.658409
_cell_length_c     31.030421
_cell_angle_alpha  89.965539
_cell_angle_beta   89.909374
_cell_angle_gamma 90.001647
loop_
_atom_site_label
_atom_site_type_symbol
_atom_site_fract_x
_atom_site_fract_y
_atom_site_fract_z
_atom_type_partial_charge
Sc0 Sc 0.30465 0.5582 0.36015 0.0
Sc1 Sc 0.34604 0.51481 0.29743 0.0
Sc2 Sc 0.27743 0.49585 0.32137 0.0
O3 O 0.30933 0.52296 0.32617 0.0
C4 C 0.27062 0.51583 0.4182 0.0
C5 C 0.3642 0.53822 0.38887 0.0
C6 C 0.32838 0.45566 0.33344 0.0
C7 C 0.34312 0.57948 0.28339 0.0
C8 C 0.24787 0.55448 0.3103 0.0
C9 C 0.30302 0.49516 0.22637 0.0
O10 O 0.28295 0.53839 0.41148 0.0
O11 O 0.36934 0.52488 0.35452 0.0
O12 O 0.30274 0.46043 0.336 0.0
O13 O 0.32626 0.58327 0.31409 0.0
O14 O 0.24859 0.52841 0.30629 0.0
O15 O 0.32653 0.50407 0.23752 0.0
O16 O 0.26697 0.56818 0.32812 0.0
O17 O 0.35145 0.55574 0.27251 0.0
O18 O 0.2837 0.49082 0.25317 0.0
O19 O 0.3417 0.55085 0.39526 0.0
O20 O 0.26747 0.49778 0.38906 0.0
O21 O 0.34551 0.47321 0.31944 0.0
Sc22 Sc 0.93869 0.30256 0.87462 0.0
Sc23 Sc 0.9816 0.3444 0.81171 0.0
Sc24 Sc 0.00086 0.27569 0.83415 0.0
O25 O 0.97372 0.30751 0.84003 0.0
C26 C 0.98199 0.26885 0.93153 0.0
C27 C 0.9578 0.36238 0.90319 0.0
C28 C 0.04101 0.32692 0.8461 0.0
C29 C 0.91702 0.34081 0.79776 0.0
C30 C 0.94228 0.24563 0.82514 0.0
C31 C 0.00099 0.3016 0.73965 0.0
O32 O 0.95914 0.28079 0.92539 0.0
O33 O 0.97085 0.36767 0.86863 0.0
O34 O 0.03655 0.30116 0.84684 0.0
O35 O 0.91328 0.32422 0.82889 0.0
O36 O 0.96831 0.24643 0.82063 0.0
O37 O 0.99292 0.32527 0.75161 0.0
O38 O 0.92863 0.26486 0.84274 0.0
O39 O 0.94072 0.34909 0.78654 0.0
O40 O 0.00472 0.28184 0.76581 0.0
O41 O 0.94582 0.33958 0.90999 0.0
O42 O -0.00013 0.26607 0.90197 0.0
O43 O 0.02308 0.34429 0.83424 0.0
Sc44 Sc 0.21952 0.00017 0.31615 0.0
Sc45 Sc 0.1514 0.98014 0.29155 0.0
Sc46 Sc 0.19254 0.93833 0.35744 0.0
O47 O 0.18782 0.97291 0.32165 0.0
C48 C 0.25005 0.94174 0.30903 0.0
C49 C 0.19505 0.99815 0.22042 0.0
C50 C 0.15521 0.91502 0.2815 0.0
C51 C 0.16864 0.04085 0.32135 0.0
C52 C 0.22496 0.98238 0.41437 0.0
C53 C 0.13237 0.95873 0.38399 0.0
O54 O 0.24886 0.96763 0.30294 0.0
O55 O 0.17172 0.98842 0.2311 0.0
O56 O 0.17257 0.91192 0.31159 0.0
O57 O 0.19388 0.03573 0.32819 0.0
O58 O 0.21266 0.95969 0.4087 0.0
O59 O 0.12765 0.97231 0.34965 0.0
O60 O 0.22883 0.99956 0.38412 0.0
O61 O 0.15185 0.02285 0.30782 0.0
O62 O 0.15458 0.94558 0.39037 0.0
O63 O 0.21366 0.00397 0.24769 0.0
O64 O 0.2311 0.9283 0.3278 0.0
O65 O 0.14593 0.93839 0.27067 0.0
Sc66 Sc 0.49853 0.22442 0.83769 0.0
Sc67 Sc 0.51582 0.15486 0.81812 0.0
Sc68 Sc 0.56012 0.19664 0.87845 0.0
O69 O 0.52483 0.19199 0.84461 0.0
C70 C 0.55785 0.25249 0.82573 0.0
C71 C 0.497 0.19679 0.74448 0.0
C72 C 0.58042 0.15635 0.80336 0.0
C73 C 0.45712 0.17472 0.85266 0.0
C74 C 0.51808 0.23246 0.93437 0.0
C75 C 0.53953 0.13787 0.91014 0.0
O76 O 0.53178 0.25234 0.822 0.0
O77 O 0.50471 0.17317 0.75724 0.0
O78 O 0.5846 0.17343 0.83359 0.0
O79 O 0.46229 0.20033 0.85216 0.0
O80 O 0.54061 0.21989 0.9284 0.0
O81 O 0.52616 0.13241 0.87601 0.0
O82 O 0.50013 0.23519 0.90501 0.0
O83 O 0.47445 0.1566 0.8413 0.0
O84 O 0.55216 0.16046 0.91576 0.0
O85 O 0.49395 0.21708 0.76984 0.0
O86 O 0.57111 0.23335 0.84428 0.0
O87 O 0.5565 0.14849 0.79261 0.0
Sc88 Sc 0.78895 0.44153 0.13192 0.0
Sc89 Sc 0.82875 0.48813 0.19118 0.0
Sc90 Sc 0.75859 0.50245 0.17086 0.0
O91 O 0.79206 0.47735 0.16484 0.0
C92 C 0.75167 0.48142 0.07471 0.0
C93 C 0.84691 0.46402 0.09996 0.0
C94 C 0.80667 0.54533 0.15417 0.0
C95 C 0.82984 0.4237 0.20773 0.0
C96 C 0.73283 0.4422 0.1842 0.0
C97 C 0.78593 0.50629 0.26404 0.0
O98 O 0.76516 0.45952 0.0813 0.0
O99 O 0.85178 0.47791 0.1338 0.0
O100 O 0.78126 0.53939 0.15496 0.0
O101 O 0.81301 0.41853 0.17754 0.0
O102 O 0.73197 0.4683 0.18749 0.0
O103 O 0.80986 0.49936 0.25156 0.0
O104 O 0.75254 0.42953 0.16607 0.0
O105 O 0.83665 0.44804 0.21801 0.0
O106 O 0.7656 0.50824 0.23855 0.0
O107 O 0.82486 0.45048 0.09454 0.0
O108 O 0.74803 0.49953 0.10362 0.0
O109 O 0.82545 0.52898 0.16625 0.0
Sc110 Sc 0.99886 0.76391 0.65894 0.0
Sc111 Sc 0.01466 0.83314 0.68325 0.0
Sc112 Sc 0.0592 0.7944 0.61818 0.0
O113 O 0.02419 0.79715 0.65344 0.0
C114 C 0.05893 0.73715 0.66755 0.0
C115 C 0.9994 0.78893 0.75465 0.0
C116 C 0.07994 0.83378 0.69317 0.0
C117 C 0.95517 0.81173 0.65436 0.0
C118 C 0.01771 0.75891 0.56102 0.0
C119 C 0.03476 0.85296 0.59065 0.0
O120 O 0.03301 0.73687 0.67343 0.0
O121 O 0.00844 0.81254 0.74398 0.0
O122 O 0.08425 0.81595 0.66413 0.0
O123 O 0.96185 0.78711 0.64578 0.0
O124 O 0.0394 0.77288 0.56677 0.0
O125 O 0.0203 0.85678 0.62444 0.0
O126 O 0.00069 0.754 0.59114 0.0
O127 O 0.97189 0.82945 0.6688 0.0
O128 O 0.04981 0.83186 0.58513 0.0
O129 O 0.99408 0.77016 0.72733 0.0
O130 O 0.07131 0.75661 0.64827 0.0
O131 O 0.05601 0.84197 0.70306 0.0
Sc132 Sc 0.73644 0.99632 0.17227 0.0
Sc133 Sc 0.66737 0.01271 0.1971 0.0
Sc134 Sc 0.70617 0.05663 0.13096 0.0
O135 O 0.70334 0.02186 0.16679 0.0
C136 C 0.76375 0.05628 0.17953 0.0
C137 C 0.71156 0.99688 0.26795 0.0
C138 C 0.66778 0.07795 0.20727 0.0
C139 C 0.68773 0.95322 0.16672 0.0
C140 C 0.74123 0.01453 0.07406 0.0
C141 C 0.64704 0.03322 0.10522 0.0
O142 O 0.76388 0.03039 0.18603 0.0
O143 O 0.68791 0.00551 0.25711 0.0
O144 O 0.68493 0.08204 0.17707 0.0
O145 O 0.71263 0.95956 0.15924 0.0
O146 O 0.72735 0.03633 0.07949 0.0
O147 O 0.64327 0.01929 0.13948 0.0
O148 O 0.74615 0.99775 0.10446 0.0
O149 O 0.6701 0.97011 0.18105 0.0
O150 O 0.66849 0.04753 0.09842 0.0
O151 O 0.73055 0.99191 0.2408 0.0
O152 O 0.74423 0.06857 0.16033 0.0
O153 O 0.65977 0.05409 0.218 0.0
Sc154 Sc 0.44175 0.70616 0.6132 0.0
Sc155 Sc 0.4872 0.66737 0.67623 0.0
Sc156 Sc 0.50233 0.73695 0.65259 0.0
O157 O 0.47709 0.70354 0.64746 0.0
C158 C 0.4827 0.74236 0.55537 0.0
C159 C 0.46482 0.64767 0.5849 0.0
C160 C 0.54527 0.68827 0.64084 0.0
C161 C 0.42251 0.66673 0.69039 0.0
C162 C 0.44202 0.76324 0.66252 0.0
C163 C 0.50396 0.71167 0.74755 0.0
O164 O 0.46061 0.72914 0.56206 0.0
O165 O 0.47804 0.64333 0.61957 0.0
O166 O 0.5395 0.71373 0.63975 0.0
O167 O 0.41778 0.68293 0.65911 0.0
O168 O 0.46809 0.76407 0.66627 0.0
O169 O 0.49721 0.68751 0.73604 0.0
O170 O 0.4294 0.74319 0.64528 0.0
O171 O 0.44669 0.66013 0.70173 0.0
O172 O 0.50672 0.7314 0.721 0.0
O173 O 0.45134 0.6696 0.57794 0.0
O174 O 0.50055 0.74624 0.5846 0.0
O175 O 0.52851 0.66992 0.65321 0.0
Sc176 Sc 0.72312 0.5008 0.66982 0.0
Sc177 Sc 0.65475 0.48057 0.69226 0.0
Sc178 Sc 0.69662 0.43921 0.62674 0.0
O179 O 0.6915 0.47356 0.66294 0.0
C180 C 0.72957 0.48389 0.57136 0.0
C181 C 0.67213 0.54143 0.66385 0.0
C182 C 0.63637 0.459 0.59985 0.0
C183 C 0.69747 0.49805 0.76476 0.0
C184 C 0.75374 0.44241 0.67619 0.0
C185 C 0.65878 0.41545 0.702 0.0
O186 O 0.733 0.50088 0.60198 0.0
O187 O 0.6551 0.52324 0.67597 0.0
O188 O 0.65879 0.44624 0.59317 0.0
O189 O 0.71672 0.50367 0.73838 0.0
O190 O 0.73495 0.42906 0.65698 0.0
O191 O 0.64952 0.43878 0.71304 0.0
O192 O 0.75244 0.46825 0.6826 0.0
O193 O 0.67418 0.48898 0.75291 0.0
O194 O 0.67623 0.41243 0.67191 0.0
O195 O 0.69755 0.53653 0.65831 0.0
O196 O 0.71725 0.46112 0.57632 0.0
O197 O 0.63159 0.47252 0.63418 0.0
Sc198 Sc 0.99744 0.71903 0.15853 0.0
Sc199 Sc 0.01769 0.65105 0.18398 0.0
Sc200 Sc 0.05909 0.69181 0.11688 0.0
O201 O 0.02469 0.68729 0.15313 0.0
C202 C 0.01486 0.72429 0.06013 0.0
C203 C 0.95671 0.66818 0.15565 0.0
C204 C 0.03837 0.63162 0.09144 0.0
C205 C 0.00058 0.69521 0.25477 0.0
C206 C 0.05592 0.74946 0.16443 0.0
C207 C 0.08284 0.65444 0.19252 0.0
O208 O 0.99751 0.72796 0.09025 0.0
O209 O 0.97492 0.65149 0.16872 0.0
O210 O 0.05139 0.65384 0.08431 0.0
O211 O 0.99448 0.7137 0.22734 0.0
O212 O 0.06944 0.7303 0.14635 0.0
O213 O 0.05951 0.64549 0.20414 0.0
O214 O 0.03001 0.7484 0.1702 0.0
O215 O 0.00997 0.67175 0.24413 0.0
O216 O 0.0858 0.67165 0.16212 0.0
O217 O 0.96169 0.69339 0.1482 0.0
O218 O 0.0376 0.71214 0.06601 0.0
O219 O 0.02513 0.62704 0.12619 0.0
Sc220 Sc 0.8012 0.05968 0.63357 0.0
Sc221 Sc 0.8437 0.01675 0.69511 0.0
Sc222 Sc 0.77518 0.99688 0.67292 0.0
O223 O 0.80665 0.02446 0.66739 0.0
C224 C 0.74455 0.05501 0.68387 0.0
C225 C 0.83982 0.08127 0.70975 0.0
C226 C 0.80141 0.9963 0.76717 0.0
C227 C 0.86098 0.04105 0.60362 0.0
C228 C 0.76783 0.01658 0.57619 0.0
C229 C 0.82668 0.95753 0.65913 0.0
O230 O 0.76348 0.06904 0.66612 0.0
O231 O 0.84845 0.05761 0.72048 0.0
O232 O 0.78179 0.99217 0.74096 0.0
O233 O 0.83816 0.05314 0.59764 0.0
O234 O 0.76518 0.99849 0.60541 0.0
O235 O 0.84379 0.97537 0.67212 0.0
O236 O 0.77958 0.03947 0.58266 0.0
O237 O 0.86653 0.02771 0.63779 0.0
O238 O 0.8009 0.96176 0.65826 0.0
O239 O 0.82278 0.08496 0.67932 0.0
O240 O 0.74572 0.02896 0.68796 0.0
O241 O 0.82484 0.00517 0.75537 0.0
Sc242 Sc 0.43617 0.80192 0.11267 0.0
Sc243 Sc 0.47847 0.84493 0.17456 0.0
Sc244 Sc 0.49912 0.77663 0.15264 0.0
O245 O 0.47125 0.8078 0.14672 0.0
C246 C 0.44143 0.74504 0.16227 0.0
C247 C 0.41378 0.84007 0.18886 0.0
C248 C 0.49819 0.80268 0.24717 0.0
C249 C 0.45429 0.86213 0.08301 0.0
C250 C 0.48031 0.76953 0.05525 0.0
C251 C 0.53849 0.82843 0.14111 0.0
O252 O 0.42727 0.76373 0.14427 0.0
O253 O 0.43728 0.84948 0.19866 0.0
O254 O 0.50297 0.78319 0.2209 0.0
O255 O 0.44192 0.83939 0.07761 0.0
O256 O 0.49811 0.76684 0.08489 0.0
O257 O 0.5203 0.84539 0.15342 0.0
O258 O 0.45724 0.78109 0.0614 0.0
O259 O 0.46823 0.86754 0.11664 0.0
O260 O 0.53428 0.80266 0.13939 0.0
O261 O 0.41028 0.82256 0.15898 0.0
O262 O 0.46739 0.7467 0.16691 0.0
O263 O 0.48921 0.82606 0.23527 0.0
Sc264 Sc 0.23708 0.49695 0.82183 0.0
Sc265 Sc 0.16799 0.51382 0.79864 0.0
Sc266 Sc 0.2076 0.55754 0.86364 0.0
O267 O 0.20424 0.52274 0.82803 0.0
C268 C 0.24246 0.51495 0.91997 0.0
C269 C 0.18839 0.45393 0.82714 0.0
C270 C 0.14863 0.53406 0.89129 0.0
C271 C 0.21168 0.49843 0.72652 0.0
C272 C 0.26493 0.55669 0.81409 0.0
C273 C 0.16839 0.57915 0.78894 0.0
O274 O 0.24703 0.4981 0.88953 0.0
O275 O 0.17083 0.47102 0.81326 0.0
O276 O 0.16999 0.54871 0.89692 0.0
O277 O 0.23066 0.49293 0.75338 0.0
O278 O 0.24561 0.56922 0.8335 0.0
O279 O 0.15995 0.55534 0.77895 0.0
O280 O 0.26475 0.53079 0.80781 0.0
O281 O 0.18815 0.50731 0.7378 0.0
O282 O 0.18628 0.58318 0.81799 0.0
O283 O 0.21325 0.46018 0.83484 0.0
O284 O 0.22889 0.53696 0.91469 0.0
O285 O 0.14465 0.51976 0.85746 0.0
Sc286 Sc 0.9403 0.20854 0.37473 0.0
Sc287 Sc 0.98531 0.1687 0.3124 0.0
Sc288 Sc 0.00108 0.23837 0.33398 0.0
O289 O 0.97554 0.20525 0.3402 0.0
C290 C 0.94103 0.26546 0.3249 0.0
C291 C 0.92067 0.16873 0.29842 0.0
C292 C 0.00256 0.21219 0.23984 0.0
C293 C 0.96247 0.14995 0.40416 0.0
C294 C 0.98198 0.24445 0.43131 0.0
C295 C 0.04359 0.18932 0.3466 0.0
O296 O 0.92828 0.24553 0.34231 0.0
O297 O 0.94479 0.16183 0.28709 0.0
O298 O 0.00506 0.23228 0.26573 0.0
O299 O 0.94937 0.17215 0.41071 0.0
O300 O -0.00023 0.24789 0.40178 0.0
O301 O 0.02655 0.17094 0.33545 0.0
O302 O 0.95961 0.23161 0.42518 0.0
O303 O 0.97566 0.14516 0.36955 0.0
O304 O 0.03813 0.21486 0.34644 0.0
O305 O 0.91605 0.1852 0.3294 0.0
O306 O 0.96708 0.26597 0.32062 0.0
O307 O 0.99586 0.18814 0.25209 0.0
Sc308 Sc 0.29609 0.94481 0.85736 0.0
Sc309 Sc 0.33348 0.98859 0.7891 0.0
Sc310 Sc 0.26473 0.00464 0.81663 0.0
O311 O 0.29809 0.97937 0.82102 0.0
C312 C 0.23818 0.94439 0.81009 0.0
C313 C 0.33415 0.92331 0.78078 0.0
C314 C 0.28803 0.00357 0.71981 0.0
C315 C 0.35498 0.96956 0.88118 0.0
C316 C 0.26094 0.9864 0.91493 0.0
C317 C 0.31288 0.04815 0.81942 0.0
O318 O 0.258 0.9322 0.82874 0.0
O319 O 0.34161 0.94712 0.76896 0.0
O320 O 0.2697 0.00904 0.74784 0.0
O321 O 0.33379 0.95504 0.88893 0.0
O322 O 0.2556 0.00324 0.88477 0.0
O323 O 0.33028 0.03135 0.8041 0.0
O324 O 0.275 0.96481 0.90898 0.0
O325 O 0.35843 0.98293 0.84626 0.0
O326 O 0.28834 0.04151 0.82883 0.0
O327 O 0.31738 0.9194 0.81152 0.0
O328 O 0.23767 0.97028 0.80379 0.0
O329 O 0.31181 0.99476 0.72963 0.0
Sc330 Sc 0.49642 0.25961 0.33831 0.0
Sc331 Sc 0.51021 0.3298 0.31717 0.0
Sc332 Sc 0.55549 0.29127 0.38122 0.0
O333 O 0.52064 0.29357 0.34558 0.0
C334 C 0.51434 0.25384 0.43635 0.0
C335 C 0.45144 0.30643 0.34577 0.0
C336 C 0.53028 0.34915 0.40989 0.0
C337 C 0.49656 0.28617 0.24385 0.0
C338 C 0.55732 0.23467 0.33028 0.0
C339 C 0.57539 0.33203 0.30696 0.0
O340 O 0.49745 0.24927 0.40598 0.0
O341 O 0.46775 0.32527 0.33372 0.0
O342 O 0.545 0.32789 0.41591 0.0
O343 O 0.49278 0.2663 0.2699 0.0
O344 O 0.56908 0.25443 0.34964 0.0
O345 O 0.55129 0.3392 0.29618 0.0
O346 O 0.53143 0.23361 0.3246 0.0
O347 O 0.50349 0.31013 0.2561 0.0
O348 O 0.58001 0.31458 0.33651 0.0
O349 O 0.45853 0.2815 0.35045 0.0
O350 O 0.53592 0.26811 0.43125 0.0
O351 O 0.51632 0.3531 0.37576 0.0
C352 C 0.37876 0.55104 0.4627 0.0
C353 C 0.38597 0.54176 0.42148 0.0
C354 C 0.39857 0.56175 0.49052 0.0
C355 C 0.42631 0.56294 0.47681 0.0
C356 C 0.43424 0.54999 0.43791 0.0
C357 C 0.41384 0.53964 0.41034 0.0
C358 C 0.3892 0.57473 0.53228 0.0
C359 C 0.46381 0.54939 0.42339 0.0
C360 C 0.45239 0.63165 0.51155 0.0
C361 C 0.46252 0.62547 0.55265 0.0
C362 C 0.44331 0.61086 0.48405 0.0
C363 C 0.44465 0.58315 0.49794 0.0
C364 C 0.45831 0.57655 0.5368 0.0
C365 C 0.46699 0.5979 0.56404 0.0
C366 C 0.42943 0.61889 0.44234 0.0
C367 C 0.46152 0.54721 0.55161 0.0
H368 H 0.3573 0.55182 0.47208 0.0
H369 H 0.41964 0.53188 0.37887 0.0
H370 H 0.40235 0.56791 0.55937 0.0
H371 H 0.391 0.59743 0.52984 0.0
H372 H 0.36751 0.56958 0.54009 0.0
H373 H 0.46778 0.5315 0.40205 0.0
H374 H 0.46841 0.56832 0.40479 0.0
H375 H 0.47807 0.54851 0.45123 0.0
H376 H 0.44976 0.65293 0.50195 0.0
H377 H 0.47541 0.59292 0.59541 0.0
H378 H 0.40702 0.61492 0.44489 0.0
H379 H 0.43745 0.6064 0.41524 0.0
H380 H 0.43247 0.64096 0.43444 0.0
H381 H 0.44328 0.54118 0.5709 0.0
H382 H 0.47993 0.54488 0.57244 0.0
H383 H 0.46326 0.53287 0.52394 0.0
C384 C 0.89634 0.46606 0.07698 0.0
C385 C 0.86868 0.46093 0.06702 0.0
C386 C 0.91741 0.457 0.04943 0.0
C387 C 0.91047 0.44232 0.01164 0.0
C388 C 0.88258 0.44004 -0.00085 0.0
C389 C 0.86205 0.44949 0.02693 0.0
C390 C 0.94691 0.46102 0.06282 0.0
C391 C 0.87419 0.42498 0.95864 0.0
C392 C 0.95425 0.41212 0.92341 0.0
C393 C 0.95352 0.38431 0.93538 0.0
C394 C 0.94313 0.43237 0.9506 0.0
C395 C 0.93089 0.42436 0.99005 0.0
C396 C 0.93333 0.39685 0.00442 0.0
C397 C 0.94472 0.37718 0.97691 0.0
C398 C 0.94217 0.46174 0.93514 0.0
C399 C 0.92107 0.38744 0.04671 0.0
H400 H 0.90166 0.47541 0.10755 0.0
H401 H 0.8407 0.44625 0.01841 0.0
H402 H 0.95379 0.44291 0.08167 0.0
H403 H 0.96064 0.46311 0.03442 0.0
H404 H 0.94919 0.47949 0.08354 0.0
H405 H 0.85195 0.4274 0.95153 0.0
H406 H 0.88609 0.43255 0.93056 0.0
H407 H 0.87865 0.40273 0.96235 0.0
H408 H 0.96152 0.41787 0.89162 0.0
H409 H 0.94491 0.35581 0.98684 0.0
H410 H 0.94326 0.47639 0.96248 0.0
H411 H 0.92254 0.46536 0.91791 0.0
H412 H 0.95926 0.46614 0.91237 0.0
H413 H 0.92738 0.40129 0.07325 0.0
H414 H 0.92731 0.36614 0.0551 0.0
H415 H 0.89831 0.38811 0.04463 0.0
C416 C 0.03185 0.90233 0.56673 0.0
C417 C 0.03637 0.87452 0.55706 0.0
C418 C 0.04009 0.92302 0.53771 0.0
C419 C 0.05347 0.91555 0.49886 0.0
C420 C 0.055 0.88749 0.48699 0.0
C421 C 0.04623 0.86739 0.51609 0.0
C422 C 0.03654 0.9527 0.55046 0.0
C423 C 0.06872 0.8784 0.44563 0.0
C424 C 0.08275 0.95677 0.40658 0.0
C425 C 0.11074 0.95579 0.41724 0.0
C426 C 0.06278 0.94686 0.43556 0.0
C427 C 0.07125 0.93543 0.47539 0.0
C428 C 0.09907 0.9377 0.48818 0.0
C429 C 0.1184 0.94801 0.45902 0.0
C430 C 0.03309 0.94638 0.42184 0.0
C431 C 0.10909 0.92631 0.53068 0.0
H432 H 0.02371 0.90802 0.59801 0.0
H433 H 0.04892 0.84591 0.50782 0.0
H434 H 0.0547 0.95947 0.56922 0.0
H435 H 0.03462 0.96624 0.52181 0.0
H436 H 0.01811 0.95538 0.57121 0.0
H437 H 0.06623 0.85602 0.4397 0.0
H438 H 0.06011 0.8897 0.41774 0.0
H439 H 0.09103 0.88305 0.44714 0.0
H440 H 0.07659 0.9633 0.37461 0.0
H441 H 0.13994 0.94808 0.46794 0.0
H442 H 0.01908 0.94807 0.44998 0.0
H443 H 0.02866 0.9267 0.40521 0.0
H444 H 0.0286 0.96336 0.39895 0.0
H445 H 0.09617 0.93394 0.55756 0.0
H446 H 0.1308 0.93197 0.5373 0.0
H447 H 0.10753 0.90355 0.53032 0.0
C448 C 0.5394 0.08838 0.93308 0.0
C449 C 0.54332 0.11624 0.94312 0.0
C450 C 0.54939 0.0677 0.96054 0.0
C451 C 0.56383 0.07524 -0.00174 0.0
C452 C 0.5648 0.10319 0.01092 0.0
C453 C 0.5544 0.12331 0.98326 0.0
C454 C 0.54664 0.03806 0.94705 0.0
C455 C 0.57952 0.11222 0.05137 0.0
C456 C 0.59705 0.03327 0.08588 0.0
C457 C 0.62466 0.03563 0.07336 0.0
C458 C 0.57598 0.04309 0.05901 0.0
C459 C 0.58297 0.05571 0.01937 0.0
C460 C 0.61046 0.05475 0.00442 0.0
C461 C 0.63095 0.04461 0.03159 0.0
C462 C 0.54672 0.04237 0.07502 0.0
C463 C 0.61885 0.0674 0.96188 0.0
H464 H 0.53031 0.08267 0.9025 0.0
H465 H 0.55669 0.14478 0.99188 0.0
H466 H 0.56475 0.03213 0.92741 0.0
H467 H 0.54563 0.02415 0.97537 0.0
H468 H 0.528 0.03495 0.927 0.0
H469 H 0.57609 0.13432 0.05862 0.0
H470 H 0.57256 0.09995 0.07944 0.0
H471 H 0.60195 0.1088 0.04752 0.0
H472 H 0.59199 0.02585 0.11787 0.0
H473 H 0.65223 0.04565 0.02128 0.0
H474 H 0.53196 0.04061 0.04794 0.0
H475 H 0.54216 0.06166 0.09265 0.0
H476 H 0.54346 0.02493 0.09759 0.0
H477 H 0.60522 0.06019 0.93564 0.0
H478 H 0.64042 0.06239 0.95313 0.0
H479 H 0.61686 0.0901 0.96383 0.0
C480 C 0.54288 0.36521 0.48315 0.0
C481 C 0.53266 0.37141 0.44209 0.0
C482 C 0.55318 0.38587 0.50991 0.0
C483 C 0.55299 0.41346 0.49532 0.0
C484 C 0.53917 0.42025 0.45665 0.0
C485 C 0.52923 0.39903 0.43017 0.0
C486 C 0.56717 0.37766 0.55141 0.0
C487 C 0.53722 0.44955 0.4411 0.0
C488 C 0.58638 0.4579 0.57996 0.0
C489 C 0.61408 0.45496 0.56808 0.0
C490 C 0.56538 0.44723 0.55379 0.0
C491 C 0.57244 0.43312 0.51547 0.0
C492 C 0.60006 0.43314 0.501 0.0
C493 C 0.6205 0.4442 0.52741 0.0
C494 C 0.53603 0.44893 0.56923 0.0
C495 C 0.60856 0.4188 0.45988 0.0
H496 H 0.5448 0.34392 0.49308 0.0
H497 H 0.52088 0.40404 0.39877 0.0
H498 H 0.58973 0.38026 0.54791 0.0
H499 H 0.56032 0.39099 0.5783 0.0
H500 H 0.56297 0.35592 0.56022 0.0
H501 H 0.51918 0.45242 0.41967 0.0
H502 H 0.5357 0.46415 0.46847 0.0
H503 H 0.55594 0.45475 0.42236 0.0
H504 H 0.58116 0.46667 0.61102 0.0
H505 H 0.6418 0.44263 0.51742 0.0
H506 H 0.53118 0.43049 0.58885 0.0
H507 H 0.52142 0.44967 0.54183 0.0
H508 H 0.53282 0.46732 0.58983 0.0
H509 H 0.60597 0.39626 0.46376 0.0
H510 H 0.63034 0.42296 0.45126 0.0
H511 H 0.59539 0.42541 0.43268 0.0
C512 C 0.09927 0.52998 0.91476 0.0
C513 C 0.12677 0.5361 0.9244 0.0
C514 C 0.07801 0.53805 0.94283 0.0
C515 C 0.08456 0.55288 0.9807 0.0
C516 C 0.11243 0.55621 0.99273 0.0
C517 C 0.13313 0.54758 0.96458 0.0
C518 C 0.04863 0.53267 0.92999 0.0
C519 C 0.12054 0.57151 0.03316 0.0
C520 C 0.04879 0.61681 0.0168 0.0
C521 C 0.0415 0.60961 0.05902 0.0
C522 C 0.05994 0.5974 0.98859 0.0
C523 C 0.06361 0.57001 0.00291 0.0
C524 C 0.05254 0.56178 0.04313 0.0
C525 C 0.04172 0.58182 0.07108 0.0
C526 C 0.07085 0.60709 0.94556 0.0
C527 C 0.05453 0.53244 0.05845 0.0
H528 H 0.09415 0.52057 0.88415 0.0
H529 H 0.15439 0.55156 0.97293 0.0
H530 H 0.03498 0.53094 0.95856 0.0
H531 H 0.04114 0.5499 0.90975 0.0
H532 H 0.04701 0.51353 0.91066 0.0
H533 H 0.14298 0.57042 0.03944 0.0
H534 H 0.11468 0.59347 0.03006 0.0
H535 H 0.10957 0.56305 0.06154 0.0
H536 H 0.04782 0.63817 0.00687 0.0
H537 H 0.0356 0.576 0.10343 0.0
H538 H 0.06421 0.59306 0.91946 0.0
H539 H 0.09366 0.607 0.94618 0.0
H540 H 0.06385 0.62821 0.93756 0.0
H541 H 0.05333 0.5178 0.0311 0.0
H542 H 0.03794 0.52761 0.08191 0.0
H543 H 0.07451 0.5293 0.07487 0.0
C544 C 0.96349 0.10029 0.42597 0.0
C545 C 0.95967 0.12803 0.43685 0.0
C546 C 0.95438 0.07934 0.45372 0.0
C547 C 0.94096 0.08651 0.49261 0.0
C548 C 0.94018 0.11434 0.50588 0.0
C549 C 0.94967 0.13473 0.47789 0.0
C550 C 0.95688 0.04982 0.43946 0.0
C551 C 0.92653 0.12296 0.54754 0.0
C552 C 0.87507 0.0548 0.5298 0.0
C553 C 0.88256 0.04522 0.57072 0.0
C554 C 0.89468 0.06566 0.50165 0.0
C555 C 0.92254 0.06671 0.51467 0.0
C556 C 0.93071 0.05373 0.5534 0.0
C557 C 0.91051 0.04321 0.58131 0.0
C558 C 0.88504 0.07876 0.46016 0.0
C559 C 0.96038 0.05316 0.56734 0.0
H560 H 0.97175 0.0949 0.39463 0.0
H561 H 0.9475 0.15612 0.48707 0.0
H562 H 0.95903 0.03575 0.46742 0.0
H563 H 0.93812 0.04385 0.42151 0.0
H564 H 0.97478 0.047 0.41763 0.0
H565 H 0.93008 0.14501 0.555 0.0
H566 H 0.90404 0.11949 0.5452 0.0
H567 H 0.93427 0.11047 0.57481 0.0
H568 H 0.85355 0.05557 0.52086 0.0
H569 H 0.91653 0.0353 0.61256 0.0
H570 H 0.89795 0.07195 0.43273 0.0
H571 H 0.88696 0.10144 0.46264 0.0
H572 H 0.86327 0.07373 0.45286 0.0
H573 H 0.97444 0.05191 0.53922 0.0
H574 H 0.96444 0.03551 0.58914 0.0
H575 H 0.96518 0.0723 0.58521 0.0
C576 C 0.40478 0.96591 0.90002 0.0
C577 C 0.37729 0.96811 0.91315 0.0
C578 C 0.42471 0.95544 0.9284 0.0
C579 C 0.41663 0.9469 0.97018 0.0
C580 C 0.38986 0.95307 0.98525 0.0
C581 C 0.37049 0.9636 0.95644 0.0
C582 C 0.45349 0.95062 0.91205 0.0
C583 C 0.38051 0.9451 0.02998 0.0
C584 C 0.43597 0.87709 0.01196 0.0
C585 C 0.45014 0.8837 0.04988 0.0
C586 C 0.42691 0.89757 0.98381 0.0
C587 C 0.43256 0.92547 0.99332 0.0
C588 C 0.4494 0.93213 0.02897 0.0
C589 C 0.45783 0.91113 0.05719 0.0
C590 C 0.40919 0.88934 0.94592 0.0
C591 C 0.45703 0.96145 0.03919 0.0
H592 H 0.41021 0.96982 0.86668 0.0
H593 H 0.34935 0.96606 0.96688 0.0
H594 H 0.46878 0.9533 0.93822 0.0
H595 H 0.45525 0.92926 0.8999 0.0
H596 H 0.45859 0.96482 0.88514 0.0
H597 H 0.36045 0.95457 0.03849 0.0
H598 H 0.37829 0.92242 0.03186 0.0
H599 H 0.39592 0.95137 0.05432 0.0
H600 H 0.43054 0.85591 0.00531 0.0
H601 H 0.46926 0.91644 0.08596 0.0
H602 H 0.41726 0.89849 0.91573 0.0
H603 H 0.38798 0.89718 0.95068 0.0
H604 H 0.40814 0.86669 0.9417 0.0
H605 H 0.45793 0.97436 0.00973 0.0
H606 H 0.47721 0.96243 0.05581 0.0
H607 H 0.4414 0.97034 0.0612 0.0
C608 C 0.32269 0.40514 0.34959 0.0
C609 C 0.33943 0.42856 0.34652 0.0
C610 C 0.33429 0.37901 0.35669 0.0
C611 C 0.3632 0.37644 0.36025 0.0
C612 C 0.37984 0.40033 0.36035 0.0
C613 C 0.36773 0.42598 0.35375 0.0
C614 C 0.31568 0.35425 0.35793 0.0
C615 C 0.41079 0.3988 0.36446 0.0
C616 C 0.41154 0.32005 0.391 0.0
C617 C 0.42257 0.31432 0.35033 0.0
C618 C 0.38847 0.33726 0.39493 0.0
C619 C 0.37711 0.34933 0.3574 0.0
C620 C 0.38586 0.34022 0.31628 0.0
C621 C 0.40866 0.32283 0.31329 0.0
C622 C 0.37859 0.34525 0.43924 0.0
C623 C 0.37399 0.35204 0.27535 0.0
H624 H 0.30072 0.407 0.3447 0.0
H625 H 0.38076 0.44404 0.35271 0.0
H626 H 0.31261 0.34652 0.32466 0.0
H627 H 0.3245 0.33737 0.37759 0.0
H628 H 0.29516 0.35975 0.37112 0.0
H629 H 0.42052 0.41945 0.36541 0.0
H630 H 0.41655 0.38764 0.39426 0.0
H631 H 0.41952 0.38733 0.33674 0.0
H632 H 0.42237 0.3133 0.41963 0.0
H633 H 0.41732 0.31818 0.28188 0.0
H634 H 0.35606 0.34884 0.43936 0.0
H635 H 0.38879 0.36462 0.44922 0.0
H636 H 0.38364 0.32916 0.46337 0.0
H637 H 0.35126 0.3528 0.27717 0.0
H638 H 0.38002 0.33988 0.24654 0.0
H639 H 0.38156 0.37339 0.27101 0.0
C640 C 0.07058 0.36521 0.87101 0.0
C641 C 0.06842 0.33784 0.85744 0.0
C642 C 0.09605 0.37839 0.87304 0.0
C643 C 0.1201 0.36377 0.86135 0.0
C644 C 0.11842 0.33525 0.85252 0.0
C645 C 0.09246 0.32254 0.85048 0.0
C646 C 0.09674 0.40875 0.88335 0.0
C647 C 0.14366 0.31866 0.84169 0.0
C648 C 0.16305 0.41393 0.79979 0.0
C649 C 0.17863 0.42558 0.83291 0.0
C650 C 0.14626 0.39116 0.80746 0.0
C651 C 0.14494 0.37992 0.84952 0.0
C652 C 0.16333 0.38942 0.88164 0.0
C653 C 0.18002 0.41243 0.87298 0.0
C654 C 0.12743 0.38151 0.77188 0.0
C655 C 0.16341 0.3772 0.92628 0.0
H656 H 0.05209 0.37691 0.87769 0.0
H657 H 0.09095 0.30122 0.84064 0.0
H658 H 0.11275 0.41319 0.90772 0.0
H659 H 0.10194 0.42053 0.8538 0.0
H660 H 0.0767 0.41634 0.89576 0.0
H661 H 0.14061 0.29659 0.84955 0.0
H662 H 0.14787 0.32025 0.80664 0.0
H663 H 0.16198 0.32635 0.8592 0.0
H664 H 0.16237 0.42402 0.76861 0.0
H665 H 0.19224 0.42142 0.89853 0.0
H666 H 0.10606 0.38806 0.77907 0.0
H667 H 0.12755 0.35878 0.76968 0.0
H668 H 0.13338 0.39008 0.74 0.0
H669 H 0.14734 0.38731 0.94608 0.0
H670 H 0.18352 0.38046 0.94239 0.0
H671 H 0.15887 0.35485 0.92539 0.0
C672 C 0.13348 0.07663 0.30738 0.0
C673 C 0.15777 0.06891 0.32835 0.0
C674 C 0.12099 0.10192 0.31552 0.0
C675 C 0.13303 0.1202 0.34558 0.0
C676 C 0.15839 0.11331 0.36519 0.0
C677 C 0.17052 0.08762 0.35633 0.0
C678 C 0.09411 0.1084 0.29328 0.0
C679 C 0.17209 0.13228 0.39699 0.0
C680 C 0.09371 0.18577 0.33253 0.0
C681 C 0.07106 0.17957 0.35861 0.0
C682 C 0.11689 0.16851 0.33251 0.0
C683 C 0.11693 0.14474 0.35893 0.0
C684 C 0.09594 0.14116 0.39005 0.0
C685 C 0.07304 0.15853 0.38918 0.0
C686 C 0.13941 0.1736 0.30008 0.0
C687 C 0.09551 0.11658 0.41974 0.0
H688 H 0.12381 0.06257 0.28494 0.0
H689 H 0.18942 0.08186 0.37243 0.0
H690 H 0.07737 0.10986 0.31749 0.0
H691 H 0.09545 0.12849 0.27652 0.0
H692 H 0.08831 0.09252 0.26924 0.0
H693 H 0.19458 0.1285 0.39849 0.0
H694 H 0.1685 0.15418 0.38877 0.0
H695 H 0.16345 0.12851 0.42956 0.0
H696 H 0.09213 0.20215 0.30895 0.0
H697 H 0.05548 0.15399 0.40958 0.0
H698 H 0.13546 0.16111 0.27082 0.0
H699 H 0.15971 0.16743 0.31316 0.0
H700 H 0.14023 0.19557 0.29038 0.0
H701 H 0.08892 0.09816 0.40137 0.0
H702 H 0.08101 0.11956 0.44703 0.0
H703 H 0.11629 0.11245 0.43283 0.0
C704 C 0.34088 0.08772 0.79665 0.0
C705 C 0.32265 0.07638 0.82667 0.0
C706 C 0.3567 0.11071 0.80688 0.0
C707 C 0.35424 0.12261 0.84837 0.0
C708 C 0.33331 0.11341 0.87672 0.0
C709 C 0.31767 0.09013 0.86555 0.0
C710 C 0.37834 0.12007 0.77508 0.0
C711 C 0.3291 0.12633 0.92037 0.0
C712 C 0.42635 0.13832 0.88058 0.0
C713 C 0.42934 0.16494 0.86406 0.0
C714 C 0.40075 0.12534 0.88097 0.0
C715 C 0.37759 0.13939 0.86434 0.0
C716 C 0.3798 0.16756 0.85334 0.0
C717 C 0.40585 0.18009 0.85312 0.0
C718 C 0.39934 0.09546 0.89413 0.0
C719 C 0.35531 0.18365 0.83766 0.0
H720 H 0.34419 0.07735 0.76613 0.0
H721 H 0.30329 0.08151 0.8886 0.0
H722 H 0.37776 0.1427 0.77121 0.0
H723 H 0.39903 0.11446 0.78729 0.0
H724 H 0.37563 0.11051 0.74285 0.0
H725 H 0.30738 0.1243 0.93095 0.0
H726 H 0.34213 0.11562 0.94439 0.0
H727 H 0.33485 0.1484 0.92026 0.0
H728 H 0.44443 0.12687 0.89035 0.0
H729 H 0.40802 0.2009 0.84108 0.0
H730 H 0.39654 0.08248 0.86505 0.0
H731 H 0.38155 0.09183 0.91573 0.0
H732 H 0.41829 0.08862 0.91092 0.0
H733 H 0.35314 0.18086 0.80235 0.0
H734 H 0.35793 0.20597 0.84402 0.0
H735 H 0.33606 0.17648 0.85323 0.0
C736 C 0.92135 0.63328 0.17307 0.0
C737 C 0.92846 0.65736 0.15093 0.0
C738 C 0.89561 0.62114 0.16798 0.0
C739 C 0.87621 0.63331 0.13983 0.0
C740 C 0.88265 0.65836 0.11879 0.0
C741 C 0.90883 0.67017 0.12461 0.0
C742 C 0.88969 0.59457 0.19167 0.0
C743 C 0.86255 0.67215 0.08882 0.0
C744 C 0.83474 0.57339 0.10513 0.0
C745 C 0.81574 0.57236 0.13895 0.0
C746 C 0.85207 0.59612 0.1001 0.0
C747 C 0.85063 0.61779 0.13042 0.0
C748 C 0.82856 0.61867 0.16023 0.0
C749 C 0.81128 0.59567 0.16436 0.0
C750 C 0.87467 0.59477 0.06684 0.0
C751 C 0.8257 0.64196 0.19193 0.0
H752 H 0.93614 0.62357 0.19427 0.0
H753 H 0.91415 0.6889 0.10762 0.0
H754 H 0.87063 0.59657 0.21103 0.0
H755 H 0.88653 0.57768 0.16818 0.0
H756 H 0.90665 0.58854 0.21365 0.0
H757 H 0.86651 0.69459 0.08662 0.0
H758 H 0.8649 0.66334 0.05606 0.0
H759 H 0.84099 0.66885 0.09929 0.0
H760 H 0.83789 0.55531 0.08528 0.0
H761 H 0.79644 0.5948 0.19043 0.0
H762 H 0.89399 0.58796 0.08256 0.0
H763 H 0.87841 0.61528 0.05241 0.0
H764 H 0.86971 0.57998 0.0407 0.0
H765 H 0.83979 0.63841 0.21946 0.0
H766 H 0.80441 0.64334 0.2047 0.0
H767 H 0.83134 0.66186 0.17683 0.0
C768 C 0.91324 0.82184 0.61076 0.0
C769 C 0.92646 0.82061 0.65072 0.0
C770 C 0.88972 0.83835 0.6055 0.0
C771 C 0.8799 0.85396 0.64089 0.0
C772 C 0.89117 0.84963 0.68238 0.0
C773 C 0.91443 0.83305 0.68669 0.0
C774 C 0.87734 0.84133 0.56126 0.0
C775 C 0.88115 0.86538 0.7213 0.0
C776 C 0.86544 0.92938 0.63205 0.0
C777 C 0.83795 0.93072 0.64532 0.0
C778 C 0.87861 0.90417 0.62622 0.0
C779 C 0.86386 0.87952 0.63366 0.0
C780 C 0.83531 0.88066 0.64248 0.0
C781 C 0.82261 0.90638 0.64842 0.0
C782 C 0.90903 0.90412 0.61614 0.0
C783 C 0.81858 0.8549 0.64888 0.0
H784 H 0.92254 0.81198 0.58301 0.0
H785 H 0.92462 0.83166 0.71769 0.0
H786 H 0.85489 0.84511 0.56321 0.0
H787 H 0.8869 0.85911 0.54459 0.0
H788 H 0.88112 0.82271 0.54141 0.0
H789 H 0.8897 0.85706 0.75182 0.0
H790 H 0.88746 0.88723 0.71839 0.0
H791 H 0.85842 0.86481 0.72329 0.0
H792 H 0.87717 0.94818 0.62823 0.0
H793 H 0.80119 0.90731 0.65792 0.0
H794 H 0.91349 0.89019 0.58876 0.0
H795 H 0.92063 0.89647 0.64449 0.0
H796 H 0.91683 0.92493 0.6079 0.0
H797 H 0.82671 0.83757 0.62942 0.0
H798 H 0.79671 0.8584 0.6402 0.0
H799 H 0.81927 0.84883 0.68333 0.0
C800 C 0.58991 0.82395 0.13565 0.0
C801 C 0.56597 0.83972 0.13081 0.0
C802 C 0.61599 0.83647 0.13442 0.0
C803 C 0.61791 0.86529 0.1286 0.0
C804 C 0.59391 0.88065 0.11927 0.0
C805 C 0.56832 0.86765 0.12038 0.0
C806 C 0.64113 0.81918 0.14279 0.0
C807 C 0.59486 0.91139 0.11226 0.0
C808 C 0.66274 0.91248 0.1923 0.0
C809 C 0.6779 0.92507 0.15945 0.0
C810 C 0.64548 0.89024 0.18353 0.0
C811 C 0.64321 0.88057 0.14064 0.0
C812 C 0.66117 0.89094 0.10849 0.0
C813 C 0.67838 0.91334 0.11827 0.0
C814 C 0.62713 0.87958 0.21912 0.0
C815 C 0.66017 0.88043 0.06284 0.0
H816 H 0.58827 0.80224 0.14309 0.0
H817 H 0.54992 0.87981 0.11537 0.0
H818 H 0.65933 0.8273 0.12537 0.0
H819 H 0.64579 0.81938 0.17776 0.0
H820 H 0.6377 0.79748 0.13302 0.0
H821 H 0.57477 0.91977 0.10152 0.0
H822 H 0.60064 0.92175 0.1428 0.0
H823 H 0.6106 0.91673 0.08779 0.0
H824 H 0.6627 0.92152 0.22426 0.0
H825 H 0.69021 0.92311 0.09289 0.0
H826 H 0.62669 0.85681 0.21907 0.0
H827 H 0.60581 0.88694 0.2138 0.0
H828 H 0.63394 0.88668 0.25141 0.0
H829 H 0.65562 0.85808 0.06202 0.0
H830 H 0.67986 0.88431 0.04574 0.0
H831 H 0.64361 0.89123 0.04506 0.0
C832 C 0.57454 0.65712 0.59853 0.0
C833 C 0.5727 0.67861 0.62832 0.0
C834 C 0.59773 0.64016 0.59724 0.0
C835 C 0.6192 0.64459 0.62718 0.0
C836 C 0.61915 0.66876 0.65267 0.0
C837 C 0.59566 0.68559 0.65309 0.0
C838 C 0.59724 0.61514 0.56852 0.0
C839 C 0.64215 0.67476 0.68374 0.0
C840 C 0.6375 0.57731 0.67972 0.0
C841 C 0.66131 0.56953 0.65742 0.0
C842 C 0.62473 0.60248 0.67185 0.0
C843 C 0.63596 0.62054 0.64063 0.0
C844 C 0.66097 0.61366 0.6198 0.0
C845 C 0.67344 0.58811 0.62849 0.0
C846 C 0.59828 0.60896 0.69547 0.0
C847 C 0.67385 0.63244 0.58679 0.0
H848 H 0.55675 0.65199 0.5791 0.0
H849 H 0.59419 0.70232 0.67605 0.0
H850 H 0.61783 0.61125 0.55445 0.0
H851 H 0.59143 0.59686 0.58795 0.0
H852 H 0.58214 0.61738 0.54194 0.0
H853 H 0.64276 0.6969 0.69244 0.0
H854 H 0.63893 0.66272 0.71371 0.0
H855 H 0.66231 0.66871 0.66993 0.0
H856 H 0.6284 0.56333 0.70293 0.0
H857 H 0.69198 0.58227 0.61138 0.0
H858 H 0.581 0.60988 0.67223 0.0
H859 H 0.59974 0.62929 0.71141 0.0
H860 H 0.59323 0.59335 0.72039 0.0
H861 H 0.66476 0.62813 0.55475 0.0
H862 H 0.69636 0.62895 0.58442 0.0
H863 H 0.67007 0.65439 0.59447 0.0
C864 C 0.24982 0.52835 -0.00326 0.0
C865 C 0.25319 0.50895 0.96367 0.0
C866 C 0.25943 0.52322 0.03844 0.0
C867 C 0.27272 0.49803 0.04751 0.0
C868 C 0.27632 0.47833 0.01444 0.0
C869 C 0.26653 0.48404 0.97281 0.0
C870 C 0.25522 0.54479 0.07287 0.0
C871 C 0.29032 0.45121 0.02316 0.0
C872 C 0.31583 0.50111 0.1487 0.0
C873 C 0.29708 0.49175 0.17985 0.0
C874 C 0.3088 0.50168 0.1049 0.0
C875 C 0.28247 0.49256 0.09198 0.0
C876 C 0.26417 0.48138 0.12281 0.0
C877 C 0.27168 0.48114 0.16639 0.0
C878 C 0.32887 0.51373 0.0729 0.0
C879 C 0.23596 0.47128 0.1102 0.0
H880 H 0.23961 0.54769 0.99016 0.0
H881 H 0.26918 0.4689 0.94754 0.0
H882 H 0.24267 0.53623 0.09956 0.0
H883 H 0.27532 0.55096 0.08666 0.0
H884 H 0.24479 0.56346 0.06033 0.0
H885 H 0.29183 0.43824 0.9938 0.0
H886 H 0.3113 0.45479 0.03586 0.0
H887 H 0.2788 0.43968 0.0482 0.0
H888 H 0.33558 0.5092 0.15864 0.0
H889 H 0.25714 0.47355 0.19008 0.0
H890 H 0.32122 0.53402 0.06181 0.0
H891 H 0.33068 0.50035 0.04412 0.0
H892 H 0.34963 0.51662 0.08706 0.0
H893 H 0.22289 0.48908 0.10127 0.0
H894 H 0.2257 0.45995 0.13682 0.0
H895 H 0.23724 0.45764 0.08164 0.0
C896 C 0.01348 0.27039 0.6786 0.0
C897 C 0.00418 0.29613 0.69292 0.0
C898 C 0.01311 0.26355 0.63474 0.0
C899 C 0.00318 0.28289 0.60449 0.0
C900 C 0.99537 0.30947 0.61832 0.0
C901 C 0.99599 0.3158 0.6624 0.0
C902 C 0.02175 0.23502 0.62117 0.0
C903 C 0.98471 0.33065 0.58694 0.0
C904 C 0.01275 0.26753 0.4853 0.0
C905 C 0.98744 0.25533 0.47508 0.0
C906 C 0.01816 0.27697 0.52722 0.0
C907 C 0.99778 0.27414 0.55949 0.0
C908 C 0.9721 0.26222 0.54923 0.0
C909 C 0.96727 0.25297 0.50725 0.0
C910 C 0.04578 0.28957 0.53717 0.0
C911 C 0.94979 0.25888 0.58279 0.0
H912 H 0.02014 0.25512 0.70179 0.0
H913 H 0.98893 0.33581 0.67301 0.0
H914 H 0.0034 0.22318 0.61093 0.0
H915 H 0.03594 0.23602 0.59321 0.0
H916 H 0.03201 0.22361 0.64768 0.0
H917 H 0.98279 0.3513 0.60189 0.0
H918 H 0.99846 0.33219 0.55849 0.0
H919 H 0.96417 0.32427 0.57513 0.0
H920 H 0.02848 0.26944 0.46072 0.0
H921 H 0.9476 0.24369 0.4998 0.0
H922 H 0.05659 0.27693 0.56161 0.0
H923 H 0.04303 0.31037 0.55114 0.0
H924 H 0.05903 0.29123 0.5081 0.0
H925 H 0.95719 0.24545 0.60926 0.0
H926 H 0.93074 0.24977 0.56926 0.0
H927 H 0.94464 0.27911 0.59714 0.0
C928 C 0.23314 0.01412 0.96781 0.0
C929 C 0.2501 0.99148 0.95891 0.0
C930 C 0.22239 0.01832 0.00937 0.0
C931 C 0.22875 0.99941 0.04258 0.0
C932 C 0.24601 0.9767 0.03388 0.0
C933 C 0.25647 0.97305 0.99228 0.0
C934 C 0.20418 0.04285 0.01774 0.0
C935 C 0.25336 0.9561 0.06849 0.0
C936 C 0.22527 0.01599 0.16145 0.0
C937 C 0.20156 0.00163 0.17408 0.0
C938 C 0.23344 0.01694 0.11815 0.0
C939 C 0.21763 0.00306 0.08677 0.0
C940 C 0.19291 0.98979 0.09889 0.0
C941 C 0.18511 0.98931 0.14243 0.0
C942 C 0.25985 0.03147 0.10642 0.0
C943 C 0.17557 0.97467 0.0663 0.0
H944 H 0.22812 0.02849 0.94231 0.0
H945 H 0.26962 0.95553 0.98597 0.0
H946 H 0.18366 0.03588 0.02885 0.0
H947 H 0.21303 0.05565 0.04384 0.0
H948 H 0.20151 0.05585 0.9886 0.0
H949 H 0.26697 0.93949 0.05631 0.0
H950 H 0.26391 0.9666 0.09553 0.0
H951 H 0.23441 0.94659 0.0817 0.0
H952 H 0.23795 0.0259 0.18556 0.0
H953 H 0.16671 0.97826 0.15182 0.0
H954 H 0.25677 0.04489 0.07793 0.0
H955 H 0.27571 0.01605 0.09773 0.0
H956 H 0.26783 0.04416 0.1334 0.0
H957 H 0.17179 0.98777 0.03764 0.0
H958 H 0.15547 0.96815 0.07991 0.0
H959 H 0.18673 0.9561 0.05512 0.0
C960 C 0.52871 0.24544 0.51235 0.0
C961 C 0.50888 0.24248 0.47987 0.0
C962 C 0.52394 0.23581 0.55415 0.0
C963 C 0.49868 0.22286 0.56396 0.0
C964 C 0.47867 0.21934 0.53135 0.0
C965 C 0.48402 0.22919 0.48957 0.0
C966 C 0.54585 0.23993 0.58804 0.0
C967 C 0.4515 0.20563 0.54082 0.0
C968 C 0.50202 0.18194 0.66752 0.0
C969 C 0.49324 0.20157 0.69768 0.0
C970 C 0.50215 0.18789 0.62327 0.0
C971 C 0.49323 0.21403 0.60895 0.0
C972 C 0.48257 0.23317 0.6389 0.0
C973 C 0.48274 0.22674 0.68291 0.0
C974 C 0.51362 0.16693 0.59223 0.0
C975 C 0.47273 0.26122 0.62485 0.0
H976 H 0.54806 0.25552 0.50529 0.0
H977 H 0.46858 0.2268 0.46473 0.0
H978 H 0.53779 0.25312 0.61433 0.0
H979 H 0.55158 0.2199 0.60257 0.0
H980 H 0.56469 0.24968 0.57478 0.0
H981 H 0.43871 0.20324 0.51145 0.0
H982 H 0.45493 0.18506 0.55528 0.0
H983 H 0.43986 0.21798 0.56472 0.0
H984 H 0.51001 0.16237 0.67851 0.0
H985 H 0.47554 0.24192 0.70585 0.0
H986 H 0.53409 0.17383 0.58071 0.0
H987 H 0.50017 0.16493 0.56358 0.0
H988 H 0.51598 0.14638 0.60743 0.0
H989 H 0.4906 0.27384 0.61473 0.0
H990 H 0.46177 0.27223 0.65109 0.0
H991 H 0.4588 0.25946 0.59672 0.0
C992 C 0.80075 0.50228 0.34109 0.0
C993 C 0.78086 0.51009 0.31075 0.0
C994 C 0.79458 0.5017 0.38525 0.0
C995 C 0.76794 0.5092 0.39931 0.0
C996 C 0.74848 0.51906 0.36923 0.0
C997 C 0.75515 0.51936 0.3253 0.0
C998 C 0.8159 0.49114 0.41641 0.0
C999 C 0.7199 0.52742 0.38302 0.0
C1000 C 0.73819 0.47107 0.49469 0.0
C1001 C 0.74016 0.49061 0.5278 0.0
C1002 C 0.7475 0.47686 0.45302 0.0
C1003 C 0.75909 0.50289 0.444 0.0
C1004 C 0.76146 0.5227 0.47717 0.0
C1005 C 0.75197 0.51632 0.51879 0.0
C1006 C 0.74462 0.45514 0.41849 0.0
C1007 C 0.77368 0.55068 0.46852 0.0
H1008 H 0.82075 0.49527 0.33027 0.0
H1009 H 0.73975 0.52583 0.30223 0.0
H1010 H 0.81695 0.50443 0.4454 0.0
H1011 H 0.81006 0.47022 0.42733 0.0
H1012 H 0.83665 0.49005 0.40153 0.0
H1013 H 0.70861 0.53818 0.35688 0.0
H1014 H 0.70804 0.50884 0.39228 0.0
H1015 H 0.72074 0.54105 0.41162 0.0
H1016 H 0.72922 0.4511 0.50119 0.0
H1017 H 0.75359 0.53156 0.54411 0.0
H1018 H 0.765 0.4505 0.40415 0.0
H1019 H 0.73125 0.46284 0.3922 0.0
H1020 H 0.73569 0.43571 0.4311 0.0
H1021 H 0.79461 0.5485 0.45471 0.0
H1022 H 0.77494 0.56343 0.49814 0.0
H1023 H 0.76105 0.56173 0.44436 0.0
C1024 C 0.00748 0.79952 0.83265 0.0
C1025 C 0.99615 0.78234 0.80101 0.0
C1026 C 0.00727 0.79184 0.87623 0.0
C1027 C 0.99532 0.76647 0.88843 0.0
C1028 C 0.98236 0.74987 0.85706 0.0
C1029 C 0.98301 0.75796 0.81372 0.0
C1030 C 0.02137 0.81006 0.90879 0.0
C1031 C 0.96925 0.72275 0.86886 0.0
C1032 C 0.02766 0.72944 0.98267 0.0
C1033 C 0.009 0.73477 0.0162 0.0
C1034 C 0.02332 0.73964 0.94111 0.0
C1035 C -0.00035 0.75558 0.93258 0.0
C1036 C 0.9805 0.76087 0.96595 0.0
C1037 C 0.9854 0.75039 0.00749 0.0
C1038 C 0.04422 0.73344 0.90634 0.0
C1039 C 0.95497 0.77769 0.95779 0.0
H1040 H 0.01757 0.81847 0.82323 0.0
H1041 H 0.97384 0.7447 0.78964 0.0
H1042 H 0.00811 0.81307 0.9375 0.0
H1043 H 0.04057 0.80001 0.91987 0.0
H1044 H 0.02669 0.8305 0.89516 0.0
H1045 H 0.95696 0.71411 0.84194 0.0
H1046 H 0.98549 0.70772 0.87745 0.0
H1047 H 0.95573 0.72514 0.89743 0.0
H1048 H 0.04592 0.7173 0.98882 0.0
H1049 H 0.97085 0.75462 0.03312 0.0
H1050 H 0.05265 0.75289 0.89312 0.0
H1051 H 0.03426 0.72233 0.87934 0.0
H1052 H 0.06157 0.72075 0.91838 0.0
H1053 H 0.96077 0.7986 0.94679 0.0
H1054 H 0.94188 0.77958 0.987 0.0
H1055 H 0.94267 0.76819 0.93168 0.0
C1056 C 0.69769 0.00027 0.34544 0.0
C1057 C 0.71776 0.994 0.31442 0.0
C1058 C 0.70414 0.00072 0.3894 0.0
C1059 C 0.73129 0.99475 0.40259 0.0
C1060 C 0.75122 0.98682 0.37178 0.0
C1061 C 0.74422 0.98654 0.32802 0.0
C1062 C 0.68234 0.00921 0.42142 0.0
C1063 C 0.78039 0.98025 0.38475 0.0
C1064 C 0.75822 0.03159 0.50089 0.0
C1065 C 0.75741 0.01086 0.53234 0.0
C1066 C 0.74951 0.02657 0.45873 0.0
C1067 C 0.73973 0.00015 0.44762 0.0
C1068 C 0.73847 0.97917 0.47914 0.0
C1069 C 0.74732 0.98478 0.52127 0.0
C1070 C 0.75107 0.04952 0.42595 0.0
C1071 C 0.72814 0.95077 0.46819 0.0
H1072 H 0.6771 0.0058 0.33536 0.0
H1073 H 0.75983 0.98142 0.3044 0.0
H1074 H 0.68193 0.99487 0.44923 0.0
H1075 H 0.68721 0.02995 0.43414 0.0
H1076 H 0.66155 0.00985 0.40673 0.0
H1077 H 0.79245 0.97132 0.35774 0.0
H1078 H 0.79079 0.99932 0.39558 0.0
H1079 H 0.78063 0.96562 0.41216 0.0
H1080 H 0.76586 0.05185 0.50906 0.0
H1081 H 0.74665 0.96863 0.54532 0.0
H1082 H 0.73047 0.05334 0.41194 0.0
H1083 H 0.76492 0.04352 0.39912 0.0
H1084 H 0.75877 0.06902 0.44009 0.0
H1085 H 0.70713 0.95202 0.45451 0.0
H1086 H 0.72769 0.93698 0.49673 0.0
H1087 H 0.74152 0.9414 0.44322 0.0
C1088 C 0.46657 0.76084 0.97891 0.0
C1089 C 0.48655 0.75913 0.01139 0.0
C1090 C 0.47204 0.75175 0.93699 0.0
C1091 C 0.49817 0.74067 0.9271 0.0
C1092 C 0.51841 0.73862 0.95963 0.0
C1093 C 0.51236 0.74786 0.00147 0.0
C1094 C 0.44987 0.75426 0.90315 0.0
C1095 C 0.54651 0.72694 0.95009 0.0
C1096 C 0.49871 0.69807 0.82504 0.0
C1097 C 0.50654 0.71771 0.7942 0.0
C1098 C 0.49737 0.70481 0.86894 0.0
C1099 C 0.50412 0.73177 0.8823 0.0
C1100 C 0.51366 0.75116 0.85175 0.0
C1101 C 0.51472 0.74391 0.80807 0.0
C1102 C 0.48712 0.68357 0.90062 0.0
C1103 C 0.52119 0.78009 0.86482 0.0
H1104 H 0.44654 0.76943 0.98611 0.0
H1105 H 0.52795 0.74646 0.02628 0.0
H1106 H 0.45704 0.76772 0.87655 0.0
H1107 H 0.44539 0.73379 0.88907 0.0
H1108 H 0.43047 0.76289 0.91634 0.0
H1109 H 0.55975 0.72617 0.97919 0.0
H1110 H 0.54455 0.70586 0.93683 0.0
H1111 H 0.5569 0.73963 0.92521 0.0
H1112 H 0.49246 0.67772 0.81479 0.0
H1113 H 0.52107 0.75918 0.78463 0.0
H1114 H 0.46635 0.68948 0.91216 0.0
H1115 H 0.50075 0.68262 0.92919 0.0
H1116 H 0.48584 0.66276 0.88605 0.0
H1117 H 0.50236 0.79136 0.87457 0.0
H1118 H 0.53124 0.79162 0.8382 0.0
H1119 H 0.5352 0.77982 0.89298 0.0
C1120 C 0.72896 0.50888 0.82613 0.0
C1121 C 0.70292 0.50076 0.8115 0.0
C1122 C 0.7353 0.50869 0.87015 0.0
C1123 C 0.71512 0.5002 0.90021 0.0
C1124 C 0.68839 0.49341 0.88596 0.0
C1125 C 0.68259 0.49377 0.84174 0.0
C1126 C 0.76405 0.51611 0.88423 0.0
C1127 C 0.66634 0.48431 0.91716 0.0
C1128 C 0.74222 0.46508 5e-05 0.0
C1129 C 0.74066 0.48612 0.03088 0.0
C1130 C 0.73351 0.46936 0.95767 0.0
C1131 C 0.72296 0.49533 0.94569 0.0
C1132 C 0.72071 0.51653 0.97669 0.0
C1133 C 0.72958 0.51166 0.01906 0.0
C1134 C 0.73613 0.44618 0.92549 0.0
C1135 C 0.70952 0.54446 0.96486 0.0
H1136 H 0.74476 0.51453 0.80313 0.0
H1137 H 0.66233 0.48769 0.83087 0.0
H1138 H 0.76341 0.53102 0.91124 0.0
H1139 H 0.77471 0.49742 0.89608 0.0
H1140 H 0.77639 0.52508 0.85755 0.0
H1141 H 0.64584 0.48289 0.90161 0.0
H1142 H 0.67169 0.4638 0.93036 0.0
H1143 H 0.66497 0.49873 0.94474 0.0
H1144 H 0.75056 0.4452 0.00884 0.0
H1145 H 0.72833 0.52804 0.04263 0.0
H1146 H 0.75029 0.4523 0.89911 0.0
H1147 H 0.71587 0.44177 0.9107 0.0
H1148 H 0.74404 0.42699 0.94037 0.0
H1149 H 0.72315 0.55429 0.94066 0.0
H1150 H 0.70782 0.55828 0.99323 0.0
H1151 H 0.68894 0.54236 0.94991 0.0
C1152 C 0.98654 0.72712 0.31415 0.0
C1153 C 0.99804 0.70198 0.30119 0.0
C1154 C 0.98665 0.73513 0.35753 0.0
C1155 C 0.99863 0.71764 0.3887 0.0
C1156 C 0.00901 0.69165 0.37625 0.0
C1157 C 0.00855 0.6841 0.33264 0.0
C1158 C 0.97527 0.76296 0.36962 0.0
C1159 C 0.022 0.67247 0.40862 0.0
C1160 C 0.03191 0.75233 0.48435 0.0
C1161 C 0.01246 0.74804 0.51716 0.0
C1162 C 0.02761 0.74242 0.44261 0.0
C1163 C 0.00321 0.72785 0.43318 0.0
C1164 C 0.98343 0.72337 0.46593 0.0
C1165 C 0.9883 0.7335 0.50764 0.0
C1166 C 0.04923 0.74762 0.40852 0.0
C1167 C 0.95712 0.70801 0.45683 0.0
H1168 H 0.97811 0.74099 0.29024 0.0
H1169 H 0.01737 0.66458 0.32309 0.0
H1170 H 0.96133 0.7612 0.3978 0.0
H1171 H 0.99238 0.77679 0.37898 0.0
H1172 H 0.96386 0.77268 0.34263 0.0
H1173 H 0.02636 0.6519 0.39468 0.0
H1174 H 0.04162 0.68144 0.42017 0.0
H1175 H 0.00844 0.66989 0.43709 0.0
H1176 H 0.05067 0.76349 0.4912 0.0
H1177 H 0.97313 0.73011 0.53269 0.0
H1178 H 0.04026 0.75958 0.38154 0.0
H1179 H 0.05657 0.72781 0.39506 0.0
H1180 H 0.0672 0.75908 0.42129 0.0
H1181 H 0.94535 0.71874 0.43126 0.0
H1182 H 0.94389 0.70612 0.48589 0.0
H1183 H 0.96187 0.68711 0.44466 0.0
C1184 C 0.76614 0.98427 0.02121 0.0
C1185 C 0.75201 0.00877 0.03029 0.0
C1186 C 0.77611 0.97883 0.97956 0.0
C1187 C 0.77189 0.99837 0.94642 0.0
C1188 C 0.7578 0.02314 0.95544 0.0
C1189 C 0.74804 0.02801 -0.00285 0.0
C1190 C 0.79097 0.95216 0.9709 0.0
C1191 C 0.75289 0.04452 0.92092 0.0
C1192 C 0.81449 0.00263 0.84458 0.0
C1193 C 0.79589 0.99267 0.8138 0.0
C1194 C 0.80765 0.00301 0.8885 0.0
C1195 C 0.78166 0.9931 0.90188 0.0
C1196 C 0.7636 0.9813 0.8714 0.0
C1197 C 0.77091 0.98126 0.82771 0.0
C1198 C 0.82746 0.01574 0.92013 0.0
C1199 C 0.73577 0.97034 0.88449 0.0
H1200 H 0.76929 0.96927 0.04654 0.0
H1201 H 0.73722 0.04702 0.00369 0.0
H1202 H 0.77976 0.9402 0.94608 0.0
H1203 H 0.81179 0.95639 0.95792 0.0
H1204 H 0.79298 0.93933 0.00034 0.0
H1205 H 0.74193 0.06289 0.93345 0.0
H1206 H 0.77276 0.05125 0.90688 0.0
H1207 H 0.74054 0.03553 0.89441 0.0
H1208 H 0.83391 0.01136 0.83426 0.0
H1209 H 0.75652 0.97318 0.80429 0.0
H1210 H 0.82974 0.00251 0.94902 0.0
H1211 H 0.81927 0.03584 0.93111 0.0
H1212 H 0.84808 0.01916 0.90567 0.0
H1213 H 0.73759 0.95679 0.9131 0.0
H1214 H 0.72576 0.95864 0.85809 0.0
H1215 H 0.72218 0.98773 0.89351 0.0
C1216 C 0.49109 0.81554 0.32469 0.0
C1217 C 0.5014 0.79707 0.2939 0.0
C1218 C 0.49077 0.80875 0.36866 0.0
C1219 C 0.50108 0.78294 0.38214 0.0
C1220 C 0.51301 0.76494 0.35161 0.0
C1221 C 0.51299 0.7722 0.30788 0.0
C1222 C 0.4779 0.8285 0.40031 0.0
C1223 C 0.52434 0.73728 0.36474 0.0
C1224 C 0.51169 0.76791 0.50133 0.0
C1225 C 0.48758 0.75338 0.5114 0.0
C1226 C 0.51635 0.77796 0.45946 0.0
C1227 C 0.49645 0.77336 0.42704 0.0
C1228 C 0.47204 0.75891 0.43707 0.0
C1229 C 0.46792 0.74913 0.47901 0.0
C1230 C 0.54263 0.79326 0.44979 0.0
C1231 C 0.4503 0.75353 0.40336 0.0
H1232 H 0.48218 0.83486 0.31433 0.0
H1233 H 0.5213 0.75788 0.2845 0.0
H1234 H 0.45811 0.81994 0.41201 0.0
H1235 H 0.49136 0.83128 0.42878 0.0
H1236 H 0.47387 0.84894 0.38564 0.0
H1237 H 0.53573 0.72713 0.33809 0.0
H1238 H 0.53829 0.73945 0.39277 0.0
H1239 H 0.5072 0.72364 0.37473 0.0
H1240 H 0.52701 0.77132 0.52606 0.0
H1241 H 0.4492 0.73797 0.48626 0.0
H1242 H 0.53787 0.81391 0.4366 0.0
H1243 H 0.55454 0.7821 0.42482 0.0
H1244 H 0.55572 0.79574 0.47882 0.0
H1245 H 0.44315 0.77323 0.3893 0.0
H1246 H 0.43224 0.74241 0.41665 0.0
H1247 H 0.45912 0.74114 0.37671 0.0
C1248 C 0.24362 0.4862 0.66621 0.0
C1249 C 0.21783 0.49573 0.67993 0.0
C1250 C 0.25082 0.48629 0.62248 0.0
C1251 C 0.2318 0.49619 0.59175 0.0
C1252 C 0.20523 0.50443 0.60502 0.0
C1253 C 0.19854 0.5041 0.64898 0.0
C1254 C 0.27936 0.47728 0.6095 0.0
C1255 C 0.1844 0.51509 0.5731 0.0
C1256 C 0.26239 0.53099 0.49393 0.0
C1257 C 0.25988 0.51061 0.46216 0.0
C1258 C 0.25306 0.52655 0.53599 0.0
C1259 C 0.24087 0.50107 0.54675 0.0
C1260 C 0.23795 0.48044 0.51495 0.0
C1261 C 0.2475 0.48545 0.47292 0.0
C1262 C 0.25652 0.5491 0.56905 0.0
C1263 C 0.22505 0.45303 0.52549 0.0
H1264 H 0.2586 0.47943 0.68974 0.0
H1265 H 0.17848 0.51132 0.65913 0.0
H1266 H 0.27839 0.46278 0.58197 0.0
H1267 H 0.2914 0.49541 0.59881 0.0
H1268 H 0.29052 0.46722 0.63644 0.0
H1269 H 0.16371 0.51757 0.58778 0.0
H1270 H 0.19121 0.53537 0.56065 0.0
H1271 H 0.18276 0.50102 0.54511 0.0
H1272 H 0.27183 0.55054 0.48608 0.0
H1273 H 0.24547 0.46958 0.44865 0.0
H1274 H 0.26966 0.54174 0.59587 0.0
H1275 H 0.23627 0.55467 0.58301 0.0
H1276 H 0.26599 0.56791 0.55518 0.0
H1277 H 0.23733 0.44241 0.55057 0.0
H1278 H 0.2236 0.43945 0.49682 0.0
H1279 H 0.20413 0.45611 0.53888 0.0
C1280 C 0.01417 0.24364 0.17864 0.0
C1281 C 0.00564 0.21765 0.19308 0.0
C1282 C 0.01367 0.2504 0.13476 0.0
C1283 C 0.00438 0.23072 0.10457 0.0
C1284 C 0.99738 0.20393 0.11853 0.0
C1285 C 0.99812 0.19768 0.16265 0.0
C1286 C 0.02145 0.27917 0.12108 0.0
C1287 C 0.98742 0.18239 0.08722 0.0
C1288 C 0.96758 0.25971 0.00744 0.0
C1289 C 0.98783 0.2581 0.97528 0.0
C1290 C 0.97267 0.25045 0.04936 0.0
C1291 C 0.99869 0.23929 0.05957 0.0
C1292 C 0.01917 0.2372 0.02731 0.0
C1293 C 0.01349 0.24663 0.98544 0.0
C1294 C 0.95026 0.25301 0.08291 0.0
C1295 C 0.04715 0.22541 0.0372 0.0
H1296 H 0.02034 0.25913 0.20177 0.0
H1297 H 0.99164 0.17749 0.17337 0.0
H1298 H 0.03569 0.27857 0.09315 0.0
H1299 H 0.00275 0.29042 0.11075 0.0
H1300 H 0.03132 0.29091 0.14755 0.0
H1301 H 0.98623 0.16169 0.10223 0.0
H1302 H 0.96666 0.18805 0.07546 0.0
H1303 H 0.00118 0.18131 0.05874 0.0
H1304 H 0.94763 0.26841 3e-05 0.0
H1305 H 0.02928 0.24528 0.96086 0.0
H1306 H 0.9572 0.26664 0.1094 0.0
H1307 H 0.94577 0.2326 0.09724 0.0
H1308 H 0.93091 0.2615 0.06938 0.0
H1309 H 0.05761 0.23836 0.06159 0.0
H1310 H 0.06042 0.22415 0.0081 0.0
H1311 H 0.04502 0.20453 0.05121 0.0
C1312 C 0.23186 0.96921 0.49134 0.0
C1313 C 0.23509 0.98867 0.45829 0.0
C1314 C 0.24128 0.9744 0.53309 0.0
C1315 C 0.25425 -0.00026 0.54224 0.0
C1316 C 0.25749 0.01962 0.50931 0.0
C1317 C 0.24789 0.01383 0.4676 0.0
C1318 C 0.23745 0.95265 0.56739 0.0
C1319 C 0.2711 0.04691 0.51815 0.0
C1320 C 0.25491 0.01617 0.66133 0.0
C1321 C 0.28075 0.00605 0.67361 0.0
C1322 C 0.2466 0.0158 0.6181 0.0
C1323 C 0.26452 0.00496 0.58646 0.0
C1324 C 0.29116 0.9961 0.59822 0.0
C1325 C 0.29899 0.9968 0.64166 0.0
C1326 C 0.21807 0.02558 0.60669 0.0
C1327 C 0.31082 0.98435 0.56534 0.0
H1328 H 0.22199 0.94971 0.48466 0.0
H1329 H 0.25041 0.02904 0.44236 0.0
H1330 H 0.25771 0.94642 0.58053 0.0
H1331 H 0.22521 0.96105 0.59455 0.0
H1332 H 0.22688 0.93405 0.55494 0.0
H1333 H 0.27166 0.06032 0.48918 0.0
H1334 H 0.26 0.05783 0.54426 0.0
H1335 H 0.29246 0.04356 0.52944 0.0
H1336 H 0.24075 0.02364 0.68564 0.0
H1337 H 0.31907 0.9891 0.65067 0.0
H1338 H 0.20512 0.00768 0.59791 0.0
H1339 H 0.21875 0.03946 0.57833 0.0
H1340 H 0.20804 0.03658 0.63386 0.0
H1341 H 0.30295 0.96425 0.55383 0.0
H1342 H 0.33173 0.98121 0.57879 0.0
H1343 H 0.31235 0.99811 0.53692 0.0
C1344 C 0.48639 0.25345 0.9892 0.0
C1345 C 0.51251 0.2435 0.97797 0.0
C1346 C 0.48076 0.2623 0.03137 0.0
C1347 C 0.50177 0.2612 0.0628 0.0
C1348 C 0.52831 0.25186 0.05139 0.0
C1349 C 0.53335 0.24314 0.00919 0.0
C1350 C 0.45223 0.27219 0.04257 0.0
C1351 C 0.55131 0.25049 0.08402 0.0
C1352 C 0.50046 0.30148 0.16699 0.0
C1353 C 0.49432 0.28075 0.19701 0.0
C1354 C 0.50142 0.29579 0.12273 0.0
C1355 C 0.4961 0.26876 0.10822 0.0
C1356 C 0.48839 0.24814 0.13804 0.0
C1357 C 0.48759 0.25438 0.18209 0.0
C1358 C 0.50966 0.31831 0.0918 0.0
C1359 C 0.4825 0.21907 0.12369 0.0
H1360 H 0.47016 0.2538 0.96532 0.0
H1361 H 0.55366 0.23571 0.00085 0.0
H1362 H 0.44278 0.25806 0.06643 0.0
H1363 H 0.45322 0.29281 0.05771 0.0
H1364 H 0.43866 0.27331 0.01387 0.0
H1365 H 0.57102 0.2436 0.0695 0.0
H1366 H 0.55452 0.27097 0.09889 0.0
H1367 H 0.54573 0.23603 0.11027 0.0
H1368 H 0.50549 0.32199 0.17807 0.0
H1369 H 0.48257 0.23826 0.2049 0.0
H1370 H 0.49549 0.31893 0.06386 0.0
H1371 H 0.53057 0.31407 0.07911 0.0
H1372 H 0.50981 0.33885 0.10743 0.0
H1373 H 0.46781 0.21903 0.09641 0.0
H1374 H 0.47393 0.20627 0.15015 0.0
H1375 H 0.50178 0.20935 0.11216 0.0
C1376 C 0.21894 0.59691 0.30728 0.0
C1377 C 0.2237 0.56974 0.29393 0.0
C1378 C 0.19621 0.61176 0.29227 0.0
C1379 C 0.17792 0.59927 0.26283 0.0
C1380 C 0.18261 0.57193 0.24904 0.0
C1381 C 0.20537 0.55742 0.26496 0.0
C1382 C 0.19173 0.64079 0.308 0.0
C1383 C 0.16366 0.55806 0.21728 0.0
C1384 C 0.10546 0.62696 0.25074 0.0
C1385 C 0.10766 0.64251 0.21278 0.0
C1386 C 0.12831 0.61323 0.26789 0.0
C1387 C 0.1539 0.61487 0.24633 0.0
C1388 C 0.15645 0.63103 0.20861 0.0
C1389 C 0.13334 0.64479 0.19243 0.0
C1390 C 0.12492 0.59651 0.30857 0.0
C1391 C 0.1834 0.63314 0.18464 0.0
H1392 H 0.23288 0.60657 0.32988 0.0
H1393 H 0.20897 0.53651 0.25428 0.0
H1394 H 0.19184 0.65523 0.28033 0.0
H1395 H 0.17131 0.6425 0.32372 0.0
H1396 H 0.20771 0.6474 0.33133 0.0
H1397 H 0.17032 0.53679 0.20949 0.0
H1398 H 0.14249 0.55728 0.23053 0.0
H1399 H 0.16281 0.57013 0.18696 0.0
H1400 H 0.08574 0.62519 0.26681 0.0
H1401 H 0.13523 0.6566 0.16294 0.0
H1402 H 0.1401 0.60316 0.33309 0.0
H1403 H 0.12897 0.57451 0.30163 0.0
H1404 H 0.10397 0.5984 0.32253 0.0
H1405 H 0.19976 0.64066 0.20651 0.0
H1406 H 0.18214 0.64716 0.15645 0.0
H1407 H 0.18973 0.61249 0.17315 0.0
C1408 C 0.86861 0.10288 0.76752 0.0
C1409 C 0.85223 0.10572 0.7306 0.0
C1410 C 0.88292 0.12541 0.78465 0.0
C1411 C 0.88103 0.15132 0.76411 0.0
C1412 C 0.86403 0.1545 0.72751 0.0
C1413 C 0.8497 0.13173 0.71136 0.0
C1414 C 0.90053 0.12135 0.82417 0.0
C1415 C 0.86159 0.1818 0.7046 0.0
C1416 C 0.90024 0.21609 0.825 0.0
C1417 C 0.92698 0.22117 0.80986 0.0
C1418 C 0.88524 0.19321 0.81091 0.0
C1419 C 0.8971 0.1751 0.78051 0.0
C1420 C 0.92408 0.18002 0.7651 0.0
C1421 C 0.93878 0.20291 0.78019 0.0
C1422 C 0.85665 0.18849 0.82842 0.0
C1423 C 0.93727 0.16129 0.73224 0.0
H1424 H 0.87062 0.08291 0.78271 0.0
H1425 H 0.83726 0.13416 0.68268 0.0
H1426 H 0.92238 0.12528 0.81604 0.0
H1427 H 0.8946 0.13628 0.84955 0.0
H1428 H 0.89874 0.10024 0.83754 0.0
H1429 H 0.84702 0.18099 0.6771 0.0
H1430 H 0.85457 0.19788 0.72741 0.0
H1431 H 0.88203 0.1882 0.69228 0.0
H1432 H 0.89101 0.22994 0.84823 0.0
H1433 H 0.95936 0.20674 0.7682 0.0
H1434 H 0.85527 0.16778 0.84326 0.0
H1435 H 0.8415 0.18917 0.80177 0.0
H1436 H 0.85073 0.20405 0.85292 0.0
H1437 H 0.93809 0.13997 0.74484 0.0
H1438 H 0.95845 0.16788 0.7237 0.0
H1439 H 0.9247 0.16089 0.70245 0.0
C1440 C 0.27978 0.89974 0.30908 0.0
C1441 C 0.27441 0.92631 0.29346 0.0
C1442 C 0.30239 0.88455 0.29423 0.0
C1443 C 0.31992 0.89603 0.26261 0.0
C1444 C 0.3147 0.92283 0.24672 0.0
C1445 C 0.29211 0.93773 0.26254 0.0
C1446 C 0.30746 0.85617 0.3123 0.0
C1447 C 0.3328 0.93566 0.21263 0.0
C1448 C 0.39233 0.86853 0.24723 0.0
C1449 C 0.3893 0.85194 0.21054 0.0
C1450 C 0.36979 0.88245 0.26518 0.0
C1451 C 0.34361 0.87993 0.24578 0.0
C1452 C 0.34021 0.86258 0.20957 0.0
C1453 C 0.36305 0.84868 0.19253 0.0
C1454 C 0.37414 0.90042 0.30424 0.0
C1455 C 0.31262 0.85942 0.18792 0.0
H1456 H 0.26635 0.89079 0.3332 0.0
H1457 H 0.28804 0.95814 0.25011 0.0
H1458 H 0.30652 0.84072 0.28608 0.0
H1459 H 0.32835 0.85506 0.32645 0.0
H1460 H 0.29224 0.85046 0.33749 0.0
H1461 H 0.32593 0.95666 0.20363 0.0
H1462 H 0.3543 0.93681 0.22432 0.0
H1463 H 0.33284 0.92264 0.18328 0.0
H1464 H 0.41247 0.87107 0.26157 0.0
H1465 H 0.36046 0.83603 0.16409 0.0
H1466 H 0.35953 0.89464 0.33018 0.0
H1467 H 0.36999 0.92218 0.29576 0.0
H1468 H 0.3954 0.8989 0.31701 0.0
H1469 H 0.29695 0.85268 0.21167 0.0
H1470 H 0.31319 0.84435 0.16106 0.0
H1471 H 0.30583 0.87956 0.17497 0.0
C1472 C 0.56148 0.2942 0.77855 0.0
C1473 C 0.57361 0.27601 0.80801 0.0
C1474 C 0.57632 0.31645 0.76155 0.0
C1475 C 0.60383 0.3208 0.77472 0.0
C1476 C 0.61618 0.30257 0.80446 0.0
C1477 C 0.60098 0.28033 0.82056 0.0
C1478 C 0.56257 0.33531 0.72949 0.0
C1479 C 0.64539 0.3067 0.81953 0.0
C1480 C 0.64913 0.3649 0.70286 0.0
C1481 C 0.647 0.39069 0.72283 0.0
C1482 C 0.63547 0.34187 0.7197 0.0
C1483 C 0.61957 0.34463 0.75769 0.0
C1484 C 0.61816 0.37033 0.77889 0.0
C1485 C 0.63177 0.39308 0.76109 0.0
C1486 C 0.63732 0.3148 0.69608 0.0
C1487 C 0.60174 0.37396 0.81983 0.0
H1488 H 0.54042 0.29092 0.76843 0.0
H1489 H 0.61051 0.26648 0.84346 0.0
H1490 H 0.56194 0.35656 0.74241 0.0
H1491 H 0.57462 0.33593 0.69912 0.0
H1492 H 0.54126 0.32876 0.72188 0.0
H1493 H 0.65199 0.29063 0.84276 0.0
H1494 H 0.6596 0.30645 0.79156 0.0
H1495 H 0.64744 0.3271 0.83517 0.0
H1496 H 0.6607 0.36287 0.67315 0.0
H1497 H 0.63015 0.41288 0.77689 0.0
H1498 H 0.61661 0.30863 0.68471 0.0
H1499 H 0.64468 0.29844 0.71814 0.0
H1500 H 0.65135 0.31583 0.66785 0.0
H1501 H 0.57967 0.3701 0.8133 0.0
H1502 H 0.6039 0.39494 0.83354 0.0
H1503 H 0.60841 0.35879 0.84438 0.0
C1504 C 0.69119 0.43705 0.23129 0.0
C1505 C 0.70977 0.42567 0.20165 0.0
C1506 C 0.66944 0.42137 0.24809 0.0
C1507 C 0.66599 0.3938 0.23449 0.0
C1508 C 0.68454 0.38227 0.20439 0.0
C1509 C 0.70628 0.39827 0.18854 0.0
C1510 C 0.65023 0.43425 0.28058 0.0
C1511 C 0.68137 0.35303 0.18881 0.0
C1512 C 0.62503 0.3455 0.30606 0.0
C1513 C 0.59905 0.34615 0.2865 0.0
C1514 C 0.64702 0.36084 0.28938 0.0
C1515 C 0.64305 0.37695 0.25192 0.0
C1516 C 0.61713 0.37711 0.2313 0.0
C1517 C 0.59539 0.36183 0.24897 0.0
C1518 C 0.67434 0.3603 0.31241 0.0
C1519 C 0.61225 0.39374 0.19092 0.0
H1520 H 0.69383 0.45813 0.24178 0.0
H1521 H 0.7204 0.38934 0.16543 0.0
H1522 H 0.62888 0.43392 0.26815 0.0
H1523 H 0.65043 0.42216 0.31092 0.0
H1524 H 0.65589 0.45583 0.28813 0.0
H1525 H 0.69734 0.34727 0.16484 0.0
H1526 H 0.68264 0.33863 0.21646 0.0
H1527 H 0.66085 0.35025 0.17391 0.0
H1528 H 0.62803 0.33362 0.33523 0.0
H1529 H 0.57544 0.36237 0.23352 0.0
H1530 H 0.67973 0.38131 0.32339 0.0
H1531 H 0.69078 0.3535 0.29004 0.0
H1532 H 0.67417 0.34639 0.34082 0.0
H1533 H 0.61537 0.41589 0.19779 0.0
H1534 H 0.59118 0.39087 0.17794 0.0
H1535 H 0.6273 0.38785 0.16567 0.0
C1536 C 0.06486 0.69578 0.7149 0.0
C1537 C 0.07565 0.71398 0.68414 0.0
C1538 C 0.08082 0.67421 0.73149 0.0
C1539 C 0.1081 0.67055 0.71659 0.0
C1540 C 0.11905 0.6887 0.68536 0.0
C1541 C 0.10276 0.71026 0.66968 0.0
C1542 C 0.06854 0.6554 0.76512 0.0
C1543 C 0.14796 0.68529 0.66841 0.0
C1544 C 0.1568 0.6293 0.78697 0.0
C1545 C 0.15516 0.60315 0.7681 0.0
C1546 C 0.14184 0.65153 0.77023 0.0
C1547 C 0.1251 0.64758 0.73348 0.0
C1548 C 0.12413 0.62151 0.71337 0.0
C1549 C 0.13906 0.59959 0.73102 0.0
C1550 C 0.14328 0.67904 0.79265 0.0
C1551 C 0.10681 0.61661 0.67376 0.0
H1552 H 0.04403 0.69861 0.72649 0.0
H1553 H 0.11126 0.72412 0.64578 0.0
H1554 H 0.06846 0.63392 0.75315 0.0
H1555 H 0.08126 0.6558 0.79475 0.0
H1556 H 0.04716 0.66126 0.77375 0.0
H1557 H 0.15335 0.70108 0.64394 0.0
H1558 H 0.16288 0.68666 0.69532 0.0
H1559 H 0.15037 0.66466 0.65368 0.0
H1560 H 0.16904 0.63223 0.81576 0.0
H1561 H 0.1378 0.5795 0.71605 0.0
H1562 H 0.12265 0.68468 0.80508 0.0
H1563 H 0.14955 0.69526 0.7695 0.0
H1564 H 0.15799 0.67896 0.82 0.0
H1565 H 0.08481 0.61983 0.68165 0.0
H1566 H 0.10936 0.59549 0.66077 0.0
H1567 H 0.11232 0.63157 0.64817 0.0
C1568 C 0.79057 0.10021 0.1803 0.0
C1569 C 0.78717 0.07312 0.19509 0.0
C1570 C 0.8122 0.11672 0.19516 0.0
C1571 C 0.83079 0.10604 0.22589 0.0
C1572 C 0.82758 0.07872 0.24089 0.0
C1573 C 0.8059 0.06253 0.22515 0.0
C1574 C 0.81507 0.14567 0.17811 0.0
C1575 C 0.84688 0.06669 0.27397 0.0
C1576 C 0.90099 0.13903 0.24005 0.0
C1577 C 0.89703 0.15496 0.27727 0.0
C1578 C 0.87947 0.12344 0.22248 0.0
C1579 C 0.8534 0.12358 0.24277 0.0
C1580 C 0.84904 0.14016 0.27962 0.0
C1581 C 0.87084 0.15575 0.29629 0.0
C1582 C 0.88481 0.10632 0.18276 0.0
C1583 C 0.82154 0.14081 0.30223 0.0
H1584 H 0.77635 0.10857 0.15688 0.0
H1585 H 0.80338 0.0417 0.23693 0.0
H1586 H 0.81326 0.1606 0.20497 0.0
H1587 H 0.8357 0.14851 0.1635 0.0
H1588 H 0.79926 0.15067 0.15353 0.0
H1589 H 0.84165 0.0451 0.28223 0.0
H1590 H 0.8683 0.06732 0.26171 0.0
H1591 H 0.84624 0.07918 0.30387 0.0
H1592 H 0.92108 0.13835 0.22497 0.0
H1593 H 0.86755 0.16784 0.32516 0.0
H1594 H 0.86967 0.11143 0.15729 0.0
H1595 H 0.88221 0.08422 0.19056 0.0
H1596 H 0.90583 0.10948 0.16965 0.0
H1597 H 0.80515 0.1468 0.27926 0.0
H1598 H 0.82127 0.15537 0.32979 0.0
H1599 H 0.8164 0.11998 0.31439 0.0
C1600 C 0.34624 0.87331 0.78039 0.0
C1601 C 0.34728 0.89914 0.76025 0.0
C1602 C 0.36101 0.85089 0.7639 0.0
C1603 C 0.37693 0.85427 0.72607 0.0
C1604 C 0.37732 0.87998 0.70472 0.0
C1605 C 0.3626 0.90215 0.72218 0.0
C1606 C 0.36023 0.82382 0.78771 0.0
C1607 C 0.39376 0.88423 0.66394 0.0
C1608 C 0.43688 0.80571 0.7075 0.0
C1609 C 0.42551 0.78668 0.67866 0.0
C1610 C 0.42126 0.82778 0.72328 0.0
C1611 C 0.39373 0.83107 0.70947 0.0
C1612 C 0.3822 0.81209 0.6801 0.0
C1613 C 0.39817 0.79004 0.66525 0.0
C1614 C 0.43414 0.84746 0.75499 0.0
C1615 C 0.35301 0.8151 0.66433 0.0
H1616 H 0.33461 0.87079 0.80994 0.0
H1617 H 0.36342 0.92197 0.70626 0.0
H1618 H 0.35352 0.80714 0.76575 0.0
H1619 H 0.38116 0.81849 0.79913 0.0
H1620 H 0.34616 0.82433 0.81593 0.0
H1621 H 0.39075 0.90506 0.65004 0.0
H1622 H 0.41595 0.88136 0.67076 0.0
H1623 H 0.38788 0.86872 0.63944 0.0
H1624 H 0.45792 0.80318 0.71823 0.0
H1625 H 0.38925 0.77555 0.64275 0.0
H1626 H 0.42207 0.84769 0.78535 0.0
H1627 H 0.43381 0.86863 0.74173 0.0
H1628 H 0.45572 0.84192 0.76271 0.0
H1629 H 0.33856 0.8142 0.69199 0.0
H1630 H 0.34728 0.79882 0.64092 0.0
H1631 H 0.35028 0.83543 0.64872 0.0
C1632 C 0.89573 0.36877 0.73861 0.0
C1633 C 0.89265 0.35289 0.77611 0.0
C1634 C 0.87329 0.38269 0.72042 0.0
C1635 C 0.84718 0.38089 0.74037 0.0
C1636 C 0.84374 0.3643 0.77748 0.0
C1637 C 0.86646 0.3504 0.79476 0.0
C1638 C 0.87768 0.39987 0.68045 0.0
C1639 C 0.81622 0.36194 0.79976 0.0
C1640 C 0.79607 0.4388 0.72197 0.0
C1641 C 0.77806 0.427 0.69195 0.0
C1642 C 0.81868 0.42403 0.73791 0.0
C1643 C 0.82358 0.39693 0.72314 0.0
C1644 C 0.80573 0.38503 0.69244 0.0
C1645 C 0.78314 0.40014 0.67739 0.0
C1646 C 0.83714 0.43732 0.77097 0.0
C1647 C 0.81043 0.35628 0.67563 0.0
H1648 H 0.91582 0.37073 0.7238 0.0
H1649 H 0.86383 0.33831 0.82382 0.0
H1650 H 0.86293 0.39373 0.65499 0.0
H1651 H 0.87376 0.42182 0.6879 0.0
H1652 H 0.89888 0.39789 0.66748 0.0
H1653 H 0.81675 0.34745 0.82742 0.0
H1654 H 0.80972 0.38242 0.81171 0.0
H1655 H 0.80036 0.35487 0.77665 0.0
H1656 H 0.79227 0.45946 0.73359 0.0
H1657 H 0.76947 0.39086 0.65399 0.0
H1658 H 0.85858 0.43798 0.75882 0.0
H1659 H 0.83721 0.42491 0.80098 0.0
H1660 H 0.83058 0.45858 0.779 0.0
H1661 H 0.83124 0.35468 0.66121 0.0
H1662 H 0.79504 0.35027 0.65097 0.0
H1663 H 0.80945 0.34134 0.7026 0.0
C1664 C 0.14661 0.86432 0.27981 0.0
C1665 C 0.14357 0.89026 0.26057 0.0
C1666 C 0.13315 0.84118 0.26312 0.0
C1667 C 0.1165 0.84396 0.22603 0.0
C1668 C 0.11418 0.86983 0.20547 0.0
C1669 C 0.12763 0.8927 0.2231 0.0
C1670 C 0.136 0.81394 0.28606 0.0
C1671 C 0.09692 0.87348 0.16548 0.0
C1672 C 0.09797 0.77909 0.16482 0.0
C1673 C 0.07117 0.77396 0.17963 0.0
C1674 C 0.11285 0.80197 0.17926 0.0
C1675 C 0.10078 0.81999 0.20961 0.0
C1676 C 0.07377 0.81498 0.22471 0.0
C1677 C 0.05922 0.7921 0.20934 0.0
C1678 C 0.14151 0.80682 0.16214 0.0
C1679 C 0.06034 0.83362 0.25746 0.0
H1680 H 0.15876 0.86223 0.30887 0.0
H1681 H 0.12529 0.91261 0.20786 0.0
H1682 H 0.11566 0.80727 0.29844 0.0
H1683 H 0.14321 0.79792 0.26327 0.0
H1684 H 0.15058 0.81498 0.31352 0.0
H1685 H 0.09858 0.89455 0.1519 0.0
H1686 H 0.10324 0.8585 0.14041 0.0
H1687 H 0.07503 0.86935 0.17317 0.0
H1688 H 0.10732 0.76528 0.14165 0.0
H1689 H 0.03861 0.78821 0.22116 0.0
H1690 H 0.1565 0.80639 0.18903 0.0
H1691 H 0.14282 0.82746 0.14707 0.0
H1692 H 0.1477 0.79118 0.13792 0.0
H1693 H 0.07286 0.83421 0.2873 0.0
H1694 H 0.03922 0.82684 0.26595 0.0
H1695 H 0.05932 0.85491 0.24475 0.0
C1696 C 0.71437 0.09658 0.68511 0.0
C1697 C 0.71994 0.06985 0.69977 0.0
C1698 C 0.69133 0.11113 0.6998 0.0
C1699 C 0.67357 0.09881 0.73031 0.0
C1700 C 0.67896 0.07181 0.74517 0.0
C1701 C 0.702 0.05756 0.72949 0.0
C1702 C 0.6861 0.13977 0.68288 0.0
C1703 C 0.66063 0.05814 0.77813 0.0
C1704 C 0.63068 0.14567 0.80119 0.0
C1705 C 0.60455 0.14334 0.78241 0.0
C1706 C 0.65329 0.13135 0.78445 0.0
C1707 C 0.64983 0.11453 0.74769 0.0
C1708 C 0.62374 0.11267 0.72778 0.0
C1709 C 0.60137 0.12699 0.74551 0.0
C1710 C 0.68077 0.13374 0.80672 0.0
C1711 C 0.61939 0.09524 0.68813 0.0
H1712 H 0.72796 0.10617 0.66183 0.0
H1713 H 0.70621 0.03697 0.74109 0.0
H1714 H 0.66522 0.14102 0.66873 0.0
H1715 H 0.68695 0.15477 0.70975 0.0
H1716 H 0.70131 0.14599 0.65798 0.0
H1717 H 0.66745 0.03693 0.78594 0.0
H1718 H 0.66042 0.07041 0.80826 0.0
H1719 H 0.63921 0.0573 0.76607 0.0
H1720 H 0.63338 0.15809 0.82986 0.0
H1721 H 0.5813 0.12511 0.73068 0.0
H1722 H 0.69655 0.14126 0.78373 0.0
H1723 H 0.68752 0.1132 0.81812 0.0
H1724 H 0.68009 0.14792 0.83475 0.0
H1725 H 0.63388 0.10156 0.66232 0.0
H1726 H 0.59809 0.0968 0.67557 0.0
H1727 H 0.62376 0.07339 0.69571 0.0
C1728 C 0.43925 0.70272 0.20838 0.0
C1729 C 0.42689 0.72025 0.1782 0.0
C1730 C 0.42528 0.67957 0.22428 0.0
C1731 C 0.39847 0.67363 0.2092 0.0
C1732 C 0.38606 0.69098 0.17824 0.0
C1733 C 0.40034 0.71415 0.16333 0.0
C1734 C 0.43903 0.6617 0.25769 0.0
C1735 C 0.35763 0.68516 0.16107 0.0
C1736 C 0.37186 0.60089 0.22514 0.0
C1737 C 0.35536 0.60387 0.262 0.0
C1738 C 0.38565 0.62351 0.20713 0.0
C1739 C 0.38308 0.64967 0.22666 0.0
C1740 C 0.36604 0.65295 0.26328 0.0
C1741 C 0.35228 0.63006 0.28034 0.0
C1742 C 0.40336 0.61933 0.16768 0.0
C1743 C 0.3629 0.6805 0.28515 0.0
H1744 H 0.45968 0.70734 0.22018 0.0
H1745 H 0.39069 0.72744 0.13973 0.0
H1746 H 0.42655 0.66143 0.28765 0.0
H1747 H 0.44037 0.64021 0.24594 0.0
H1748 H 0.46005 0.66896 0.26572 0.0
H1749 H 0.35128 0.70014 0.13595 0.0
H1750 H 0.35684 0.66419 0.14713 0.0
H1751 H 0.34246 0.68586 0.18777 0.0
H1752 H 0.37432 0.58078 0.21062 0.0
H1753 H 0.33973 0.63262 0.30895 0.0
H1754 H 0.42508 0.62409 0.17546 0.0
H1755 H 0.39695 0.63362 0.14169 0.0
H1756 H 0.40223 0.59795 0.15526 0.0
H1757 H 0.38318 0.6877 0.29687 0.0
H1758 H 0.34847 0.6797 0.3129 0.0
H1759 H 0.3553 0.69601 0.26181 0.0
C1760 C 0.40289 0.63756 0.7497 0.0
C1761 C 0.39891 0.65313 0.7121 0.0
C1762 C 0.3813 0.62237 0.76808 0.0
C1763 C 0.35514 0.62252 0.74821 0.0
C1764 C 0.35078 0.63869 0.7109 0.0
C1765 C 0.37265 0.65389 0.69345 0.0
C1766 C 0.38665 0.60567 0.80824 0.0
C1767 C 0.32319 0.63932 0.68868 0.0
C1768 C 0.30708 0.56212 0.76802 0.0
C1769 C 0.28848 0.57319 0.79793 0.0
C1770 C 0.32892 0.57792 0.75168 0.0
C1771 C 0.33242 0.60536 0.76591 0.0
C1772 C 0.31397 0.61653 0.79651 0.0
C1773 C 0.29218 0.60038 0.81197 0.0
C1774 C 0.34804 0.56536 0.71877 0.0
C1775 C 0.31715 0.64561 0.81274 0.0
H1776 H 0.42304 0.6369 0.76451 0.0
H1777 H 0.36932 0.66571 0.6643 0.0
H1778 H 0.37167 0.61123 0.83377 0.0
H1779 H 0.38382 0.58351 0.80117 0.0
H1780 H 0.40775 0.6088 0.82093 0.0
H1781 H 0.32295 0.65352 0.66065 0.0
H1782 H 0.31781 0.61839 0.67729 0.0
H1783 H 0.30696 0.64577 0.71169 0.0
H1784 H 0.30435 0.54121 0.7568 0.0
H1785 H 0.27806 0.60913 0.83527 0.0
H1786 H 0.3695 0.56597 0.73075 0.0
H1787 H 0.34741 0.57749 0.6885 0.0
H1788 H 0.34263 0.54371 0.71125 0.0
H1789 H 0.33787 0.64843 0.82694 0.0
H1790 H 0.30149 0.65099 0.83741 0.0
H1791 H 0.31535 0.66028 0.7855 0.0
C1792 C 0.84283 0.37398 0.21045 0.0
C1793 C 0.84401 0.40031 0.2289 0.0
C1794 C 0.85845 0.3522 0.22701 0.0
C1795 C 0.87544 0.35669 0.26328 0.0
C1796 C 0.87609 0.38293 0.28298 0.0
C1797 C 0.86048 0.40447 0.26541 0.0
C1798 C 0.85733 0.32456 0.20495 0.0
C1799 C 0.89364 0.38835 0.32213 0.0
C1800 C 0.89781 0.29326 0.32515 0.0
C1801 C 0.92463 0.28922 0.30963 0.0
C1802 C 0.88182 0.31547 0.31104 0.0
C1803 C 0.89272 0.33392 0.28021 0.0
C1804 C 0.9198 0.33006 0.26449 0.0
C1805 C 0.93552 0.30786 0.27964 0.0
C1806 C 0.85315 0.31907 0.32891 0.0
C1807 C 0.93199 0.34912 0.23114 0.0
H1808 H 0.83033 0.37052 0.18209 0.0
H1809 H 0.86148 0.42469 0.27998 0.0
H1810 H 0.87805 0.31897 0.19283 0.0
H1811 H 0.85106 0.30844 0.22826 0.0
H1812 H 0.84275 0.32433 0.17744 0.0
H1813 H 0.8909 0.40953 0.33481 0.0
H1814 H 0.88854 0.37349 0.34808 0.0
H1815 H 0.91563 0.38536 0.31388 0.0
H1816 H 0.88931 0.27913 0.34865 0.0
H1817 H 0.95616 0.30482 0.26738 0.0
H1818 H 0.83788 0.31728 0.30256 0.0
H1819 H 0.85087 0.3399 0.34302 0.0
H1820 H 0.84815 0.30359 0.35406 0.0
H1821 H 0.91938 0.34859 0.20138 0.0
H1822 H 0.95346 0.34354 0.22267 0.0
H1823 H 0.93173 0.37058 0.24318 0.0
C1824 C 0.1001 0.86368 0.75068 0.0
C1825 C 0.1038 0.84722 0.714 0.0
C1826 C 0.12199 0.87871 0.76819 0.0
C1827 C 0.14814 0.87746 0.74831 0.0
C1828 C 0.15224 0.86033 0.71203 0.0
C1829 C 0.13006 0.84528 0.69545 0.0
C1830 C 0.11696 0.89646 0.80733 0.0
C1831 C 0.17983 0.85858 0.68985 0.0
C1832 C 0.19643 0.9379 0.76407 0.0
C1833 C 0.21482 0.92751 0.79479 0.0
C1834 C 0.17468 0.92178 0.74859 0.0
C1835 C 0.17102 0.89477 0.76462 0.0
C1836 C 0.1893 0.88426 0.79596 0.0
C1837 C 0.21106 0.9007 0.81049 0.0
C1838 C 0.15575 0.93357 0.71476 0.0
C1839 C 0.18587 0.85565 0.81411 0.0
H1840 H 0.07994 0.86516 0.7654 0.0
H1841 H 0.13312 0.83273 0.667 0.0
H1842 H 0.13196 0.89139 0.83302 0.0
H1843 H 0.12001 0.91839 0.7988 0.0
H1844 H 0.09586 0.89391 0.82046 0.0
H1845 H 0.17988 0.84349 0.663 0.0
H1846 H 0.18551 0.87904 0.67677 0.0
H1847 H 0.19596 0.85266 0.7133 0.0
H1848 H 0.19929 0.95851 0.75156 0.0
H1849 H 0.22507 0.89254 0.83443 0.0
H1850 H 0.13429 0.93367 0.72687 0.0
H1851 H 0.15619 0.92048 0.68549 0.0
H1852 H 0.16148 0.95487 0.70549 0.0
H1853 H 0.16518 0.85345 0.82878 0.0
H1854 H 0.20157 0.85075 0.83891 0.0
H1855 H 0.1874 0.84027 0.78785 0.0
C1856 C 0.65608 0.12807 0.2095 0.0
C1857 C 0.65486 0.10195 0.22863 0.0
C1858 C 0.64128 0.15027 0.22669 0.0
C1859 C 0.62513 0.14633 0.26416 0.0
C1860 C 0.62468 0.12034 0.28462 0.0
C1861 C 0.63945 0.09843 0.26651 0.0
C1862 C 0.64215 0.17768 0.20386 0.0
C1863 C 0.60798 0.11545 0.32496 0.0
C1864 C 0.60193 0.20904 0.32726 0.0
C1865 C 0.57462 0.212 0.31344 0.0
C1866 C 0.6186 0.18774 0.31158 0.0
C1867 C 0.60781 0.16909 0.28102 0.0
C1868 C 0.58035 0.17203 0.26669 0.0
C1869 C 0.56405 0.19335 0.28324 0.0
C1870 C 0.6477 0.1851 0.32788 0.0
C1871 C 0.56822 0.15269 0.23376 0.0
H1872 H 0.66781 0.13098 0.18013 0.0
H1873 H 0.63852 0.07838 0.2817 0.0
H1874 H 0.62137 0.18286 0.19162 0.0
H1875 H 0.64818 0.19415 0.22666 0.0
H1876 H 0.65675 0.17773 0.17631 0.0
H1877 H 0.6112 0.09453 0.33843 0.0
H1878 H 0.61341 0.1308 0.34996 0.0
H1879 H 0.58581 0.11804 0.31774 0.0
H1880 H 0.61028 0.22326 0.35071 0.0
H1881 H 0.54306 0.19557 0.27212 0.0
H1882 H 0.66237 0.18646 0.30056 0.0
H1883 H 0.65064 0.16467 0.34312 0.0
H1884 H 0.65296 0.20125 0.35177 0.0
H1885 H 0.58074 0.15306 0.20385 0.0
H1886 H 0.54668 0.15806 0.22544 0.0
H1887 H 0.56863 0.13133 0.24626 0.0
loop_
_geom_bond_atom_site_label_1
_geom_bond_atom_site_label_2
_geom_bond_distance
_geom_bond_site_symmetry_2
_ccdc_geom_bond_type
Sc0 O3 2.025 . S
Sc0 O10 2.105 . S
Sc0 O13 2.105 . S
Sc0 O16 2.105 . S
Sc0 O19 2.105 . S
Sc1 O3 2.025 . S
Sc1 O11 2.105 . S
Sc1 O15 2.105 . S
Sc1 O17 2.105 . S
Sc1 O21 2.105 . S
Sc2 O3 2.025 . S
Sc2 O12 2.105 . S
Sc2 O14 2.105 . S
Sc2 O18 2.105 . S
Sc2 O20 2.105 . S
O3 Sc0 2.025 . S
O3 Sc1 2.025 . S
O3 Sc2 2.025 . S
C4 O10 1.268 . S
C4 O20 1.268 . S
C5 O11 1.268 . S
C5 O19 1.268 . S
C6 O12 1.268 . S
C6 O21 1.268 . S
C7 O13 1.268 . S
C7 O17 1.268 . S
C8 O14 1.268 . S
C8 O16 1.268 . S
C9 O15 1.268 . S
C9 O18 1.268 . S
O10 Sc0 2.105 . S
O10 C4 1.268 . S
O11 Sc1 2.105 . S
O11 C5 1.268 . S
O12 Sc2 2.105 . S
O12 C6 1.268 . S
O13 Sc0 2.105 . S
O13 C7 1.268 . S
O14 Sc2 2.105 . S
O14 C8 1.268 . S
O15 Sc1 2.105 . S
O15 C9 1.268 . S
O16 Sc0 2.105 . S
O16 C8 1.268 . S
O17 Sc1 2.105 . S
O17 C7 1.268 . S
O18 Sc2 2.105 . S
O18 C9 1.268 . S
O19 Sc0 2.105 . S
O19 C5 1.268 . S
O20 Sc2 2.105 . S
O20 C4 1.268 . S
O21 Sc1 2.105 . S
O21 C6 1.268 . S
Sc22 O25 2.025 . S
Sc22 O32 2.105 . S
Sc22 O35 2.105 . S
Sc22 O38 2.105 . S
Sc22 O41 2.105 . S
Sc23 O25 2.025 . S
Sc23 O33 2.105 . S
Sc23 O37 2.105 . S
Sc23 O39 2.105 . S
Sc23 O43 2.105 1_655 S
Sc24 O25 2.025 . S
Sc24 O34 2.105 1_655 S
Sc24 O36 2.105 . S
Sc24 O40 2.105 . S
Sc24 O42 2.105 . S
O25 Sc22 2.025 . S
O25 Sc23 2.025 . S
O25 Sc24 2.025 . S
C26 O32 1.268 . S
C26 O42 1.268 . S
C27 O33 1.268 . S
C27 O41 1.268 . S
C28 O34 1.268 . S
C28 O43 1.268 . S
C29 O35 1.268 . S
C29 O39 1.268 . S
C30 O36 1.268 . S
C30 O38 1.268 . S
C31 O37 1.268 . S
C31 O40 1.268 . S
O32 Sc22 2.105 . S
O32 C26 1.268 . S
O33 Sc23 2.105 . S
O33 C27 1.268 . S
O34 Sc24 2.105 1_455 S
O34 C28 1.268 . S
O35 Sc22 2.105 . S
O35 C29 1.268 . S
O36 Sc24 2.105 . S
O36 C30 1.268 . S
O37 Sc23 2.105 . S
O37 C31 1.268 . S
O38 Sc22 2.105 . S
O38 C30 1.268 . S
O39 Sc23 2.105 . S
O39 C29 1.268 . S
O40 Sc24 2.105 . S
O40 C31 1.268 . S
O41 Sc22 2.105 . S
O41 C27 1.268 . S
O42 Sc24 2.105 . S
O42 C26 1.268 . S
O43 Sc23 2.105 1_455 S
O43 C28 1.268 . S
Sc44 O47 2.025 . S
Sc44 O54 2.105 . S
Sc44 O57 2.105 1_565 S
Sc44 O60 2.105 . S
Sc44 O63 2.105 . S
Sc45 O47 2.025 . S
Sc45 O55 2.105 . S
Sc45 O59 2.105 . S
Sc45 O61 2.105 1_565 S
Sc45 O65 2.105 . S
Sc46 O47 2.025 . S
Sc46 O56 2.105 . S
Sc46 O58 2.105 . S
Sc46 O62 2.105 . S
Sc46 O64 2.105 . S
O47 Sc44 2.025 . S
O47 Sc45 2.025 . S
O47 Sc46 2.025 . S
C48 O54 1.268 . S
C48 O64 1.268 . S
C49 O55 1.268 . S
C49 O63 1.268 . S
C50 O56 1.268 . S
C50 O65 1.268 . S
C51 O57 1.268 . S
C51 O61 1.268 . S
C52 O58 1.268 . S
C52 O60 1.268 . S
C53 O59 1.268 . S
C53 O62 1.268 . S
O54 Sc44 2.105 . S
O54 C48 1.268 . S
O55 Sc45 2.105 . S
O55 C49 1.268 . S
O56 Sc46 2.105 . S
O56 C50 1.268 . S
O57 Sc44 2.105 1_545 S
O57 C51 1.268 . S
O58 Sc46 2.105 . S
O58 C52 1.268 . S
O59 Sc45 2.105 . S
O59 C53 1.268 . S
O60 Sc44 2.105 . S
O60 C52 1.268 . S
O61 Sc45 2.105 1_545 S
O61 C51 1.268 . S
O62 Sc46 2.105 . S
O62 C53 1.268 . S
O63 Sc44 2.105 . S
O63 C49 1.268 . S
O64 Sc46 2.105 . S
O64 C48 1.268 . S
O65 Sc45 2.105 . S
O65 C50 1.268 . S
Sc66 O69 2.025 . S
Sc66 O76 2.105 . S
Sc66 O79 2.105 . S
Sc66 O82 2.105 . S
Sc66 O85 2.105 . S
Sc67 O69 2.025 . S
Sc67 O77 2.105 . S
Sc67 O81 2.105 . S
Sc67 O83 2.105 . S
Sc67 O87 2.105 . S
Sc68 O69 2.025 . S
Sc68 O78 2.105 . S
Sc68 O80 2.105 . S
Sc68 O84 2.105 . S
Sc68 O86 2.105 . S
O69 Sc66 2.025 . S
O69 Sc67 2.025 . S
O69 Sc68 2.025 . S
C70 O76 1.268 . S
C70 O86 1.268 . S
C71 O77 1.268 . S
C71 O85 1.268 . S
C72 O78 1.268 . S
C72 O87 1.268 . S
C73 O79 1.268 . S
C73 O83 1.268 . S
C74 O80 1.268 . S
C74 O82 1.268 . S
C75 O81 1.268 . S
C75 O84 1.268 . S
O76 Sc66 2.105 . S
O76 C70 1.268 . S
O77 Sc67 2.105 . S
O77 C71 1.268 . S
O78 Sc68 2.105 . S
O78 C72 1.268 . S
O79 Sc66 2.105 . S
O79 C73 1.268 . S
O80 Sc68 2.105 . S
O80 C74 1.268 . S
O81 Sc67 2.105 . S
O81 C75 1.268 . S
O82 Sc66 2.105 . S
O82 C74 1.268 . S
O83 Sc67 2.105 . S
O83 C73 1.268 . S
O84 Sc68 2.105 . S
O84 C75 1.268 . S
O85 Sc66 2.105 . S
O85 C71 1.268 . S
O86 Sc68 2.105 . S
O86 C70 1.268 . S
O87 Sc67 2.105 . S
O87 C72 1.268 . S
Sc88 O91 2.025 . S
Sc88 O98 2.105 . S
Sc88 O101 2.105 . S
Sc88 O104 2.105 . S
Sc88 O107 2.105 . S
Sc89 O91 2.025 . S
Sc89 O99 2.105 . S
Sc89 O103 2.105 . S
Sc89 O105 2.105 . S
Sc89 O109 2.105 . S
Sc90 O91 2.025 . S
Sc90 O100 2.105 . S
Sc90 O102 2.105 . S
Sc90 O106 2.105 . S
Sc90 O108 2.105 . S
O91 Sc88 2.025 . S
O91 Sc89 2.025 . S
O91 Sc90 2.025 . S
C92 O98 1.268 . S
C92 O108 1.268 . S
C93 O99 1.268 . S
C93 O107 1.268 . S
C94 O100 1.268 . S
C94 O109 1.268 . S
C95 O101 1.268 . S
C95 O105 1.268 . S
C96 O102 1.268 . S
C96 O104 1.268 . S
C97 O103 1.268 . S
C97 O106 1.268 . S
O98 Sc88 2.105 . S
O98 C92 1.268 . S
O99 Sc89 2.105 . S
O99 C93 1.268 . S
O100 Sc90 2.105 . S
O100 C94 1.268 . S
O101 Sc88 2.105 . S
O101 C95 1.268 . S
O102 Sc90 2.105 . S
O102 C96 1.268 . S
O103 Sc89 2.105 . S
O103 C97 1.268 . S
O104 Sc88 2.105 . S
O104 C96 1.268 . S
O105 Sc89 2.105 . S
O105 C95 1.268 . S
O106 Sc90 2.105 . S
O106 C97 1.268 . S
O107 Sc88 2.105 . S
O107 C93 1.268 . S
O108 Sc90 2.105 . S
O108 C92 1.268 . S
O109 Sc89 2.105 . S
O109 C94 1.268 . S
Sc110 O113 2.025 . S
Sc110 O120 2.105 . S
Sc110 O123 2.105 1_455 S
Sc110 O126 2.105 . S
Sc110 O129 2.105 . S
Sc111 O113 2.025 . S
Sc111 O121 2.105 . S
Sc111 O125 2.105 . S
Sc111 O127 2.105 1_455 S
Sc111 O131 2.105 . S
Sc112 O113 2.025 . S
Sc112 O122 2.105 . S
Sc112 O124 2.105 . S
Sc112 O128 2.105 . S
Sc112 O130 2.105 . S
O113 Sc110 2.025 . S
O113 Sc111 2.025 . S
O113 Sc112 2.025 . S
C114 O120 1.268 . S
C114 O130 1.268 . S
C115 O121 1.268 . S
C115 O129 1.268 . S
C116 O122 1.268 . S
C116 O131 1.268 . S
C117 O123 1.268 . S
C117 O127 1.268 . S
C118 O124 1.268 . S
C118 O126 1.268 . S
C119 O125 1.268 . S
C119 O128 1.268 . S
O120 Sc110 2.105 . S
O120 C114 1.268 . S
O121 Sc111 2.105 . S
O121 C115 1.268 . S
O122 Sc112 2.105 . S
O122 C116 1.268 . S
O123 Sc110 2.105 1_655 S
O123 C117 1.268 . S
O124 Sc112 2.105 . S
O124 C118 1.268 . S
O125 Sc111 2.105 . S
O125 C119 1.268 . S
O126 Sc110 2.105 . S
O126 C118 1.268 . S
O127 Sc111 2.105 1_655 S
O127 C117 1.268 . S
O128 Sc112 2.105 . S
O128 C119 1.268 . S
O129 Sc110 2.105 . S
O129 C115 1.268 . S
O130 Sc112 2.105 . S
O130 C114 1.268 . S
O131 Sc111 2.105 . S
O131 C116 1.268 . S
Sc132 O135 2.025 . S
Sc132 O142 2.105 . S
Sc132 O145 2.105 1_545 S
Sc132 O148 2.105 . S
Sc132 O151 2.105 . S
Sc133 O135 2.025 . S
Sc133 O143 2.105 . S
Sc133 O147 2.105 . S
Sc133 O149 2.105 1_545 S
Sc133 O153 2.105 . S
Sc134 O135 2.025 . S
Sc134 O144 2.105 . S
Sc134 O146 2.105 . S
Sc134 O150 2.105 . S
Sc134 O152 2.105 . S
O135 Sc132 2.025 . S
O135 Sc133 2.025 . S
O135 Sc134 2.025 . S
C136 O142 1.268 . S
C136 O152 1.268 . S
C137 O143 1.268 . S
C137 O151 1.268 . S
C138 O144 1.268 . S
C138 O153 1.268 . S
C139 O145 1.268 . S
C139 O149 1.268 . S
C140 O146 1.268 . S
C140 O148 1.268 . S
C141 O147 1.268 . S
C141 O150 1.268 . S
O142 Sc132 2.105 . S
O142 C136 1.268 . S
O143 Sc133 2.105 . S
O143 C137 1.268 . S
O144 Sc134 2.105 . S
O144 C138 1.268 . S
O145 Sc132 2.105 1_565 S
O145 C139 1.268 . S
O146 Sc134 2.105 . S
O146 C140 1.268 . S
O147 Sc133 2.105 . S
O147 C141 1.268 . S
O148 Sc132 2.105 . S
O148 C140 1.268 . S
O149 Sc133 2.105 1_565 S
O149 C139 1.268 . S
O150 Sc134 2.105 . S
O150 C141 1.268 . S
O151 Sc132 2.105 . S
O151 C137 1.268 . S
O152 Sc134 2.105 . S
O152 C136 1.268 . S
O153 Sc133 2.105 . S
O153 C138 1.268 . S
Sc154 O157 2.025 . S
Sc154 O164 2.105 . S
Sc154 O167 2.105 . S
Sc154 O170 2.105 . S
Sc154 O173 2.105 . S
Sc155 O157 2.025 . S
Sc155 O165 2.105 . S
Sc155 O169 2.105 . S
Sc155 O171 2.105 . S
Sc155 O175 2.105 . S
Sc156 O157 2.025 . S
Sc156 O166 2.105 . S
Sc156 O168 2.105 . S
Sc156 O172 2.105 . S
Sc156 O174 2.105 . S
O157 Sc154 2.025 . S
O157 Sc155 2.025 . S
O157 Sc156 2.025 . S
C158 O164 1.268 . S
C158 O174 1.268 . S
C159 O165 1.268 . S
C159 O173 1.268 . S
C160 O166 1.268 . S
C160 O175 1.268 . S
C161 O167 1.268 . S
C161 O171 1.268 . S
C162 O168 1.268 . S
C162 O170 1.268 . S
C163 O169 1.268 . S
C163 O172 1.268 . S
O164 Sc154 2.105 . S
O164 C158 1.268 . S
O165 Sc155 2.105 . S
O165 C159 1.268 . S
O166 Sc156 2.105 . S
O166 C160 1.268 . S
O167 Sc154 2.105 . S
O167 C161 1.268 . S
O168 Sc156 2.105 . S
O168 C162 1.268 . S
O169 Sc155 2.105 . S
O169 C163 1.268 . S
O170 Sc154 2.105 . S
O170 C162 1.268 . S
O171 Sc155 2.105 . S
O171 C161 1.268 . S
O172 Sc156 2.105 . S
O172 C163 1.268 . S
O173 Sc154 2.105 . S
O173 C159 1.268 . S
O174 Sc156 2.105 . S
O174 C158 1.268 . S
O175 Sc155 2.105 . S
O175 C160 1.268 . S
Sc176 O179 2.025 . S
Sc176 O186 2.105 . S
Sc176 O189 2.105 . S
Sc176 O192 2.105 . S
Sc176 O195 2.105 . S
Sc177 O179 2.025 . S
Sc177 O187 2.105 . S
Sc177 O191 2.105 . S
Sc177 O193 2.105 . S
Sc177 O197 2.105 . S
Sc178 O179 2.025 . S
Sc178 O188 2.105 . S
Sc178 O190 2.105 . S
Sc178 O194 2.105 . S
Sc178 O196 2.105 . S
O179 Sc176 2.025 . S
O179 Sc177 2.025 . S
O179 Sc178 2.025 . S
C180 O186 1.268 . S
C180 O196 1.268 . S
C181 O187 1.268 . S
C181 O195 1.268 . S
C182 O188 1.268 . S
C182 O197 1.268 . S
C183 O189 1.268 . S
C183 O193 1.268 . S
C184 O190 1.268 . S
C184 O192 1.268 . S
C185 O191 1.268 . S
C185 O194 1.268 . S
O186 Sc176 2.105 . S
O186 C180 1.268 . S
O187 Sc177 2.105 . S
O187 C181 1.268 . S
O188 Sc178 2.105 . S
O188 C182 1.268 . S
O189 Sc176 2.105 . S
O189 C183 1.268 . S
O190 Sc178 2.105 . S
O190 C184 1.268 . S
O191 Sc177 2.105 . S
O191 C185 1.268 . S
O192 Sc176 2.105 . S
O192 C184 1.268 . S
O193 Sc177 2.105 . S
O193 C183 1.268 . S
O194 Sc178 2.105 . S
O194 C185 1.268 . S
O195 Sc176 2.105 . S
O195 C181 1.268 . S
O196 Sc178 2.105 . S
O196 C180 1.268 . S
O197 Sc177 2.105 . S
O197 C182 1.268 . S
Sc198 O201 2.025 . S
Sc198 O208 2.105 . S
Sc198 O211 2.105 . S
Sc198 O214 2.105 . S
Sc198 O217 2.105 1_455 S
Sc199 O201 2.025 . S
Sc199 O209 2.105 1_455 S
Sc199 O213 2.105 . S
Sc199 O215 2.105 . S
Sc199 O219 2.105 . S
Sc200 O201 2.025 . S
Sc200 O210 2.105 . S
Sc200 O212 2.105 . S
Sc200 O216 2.105 . S
Sc200 O218 2.105 . S
O201 Sc198 2.025 . S
O201 Sc199 2.025 . S
O201 Sc200 2.025 . S
C202 O208 1.268 . S
C202 O218 1.268 . S
C203 O209 1.268 . S
C203 O217 1.268 . S
C204 O210 1.268 . S
C204 O219 1.268 . S
C205 O211 1.268 . S
C205 O215 1.268 . S
C206 O212 1.268 . S
C206 O214 1.268 . S
C207 O213 1.268 . S
C207 O216 1.268 . S
O208 Sc198 2.105 . S
O208 C202 1.268 . S
O209 Sc199 2.105 1_655 S
O209 C203 1.268 . S
O210 Sc200 2.105 . S
O210 C204 1.268 . S
O211 Sc198 2.105 . S
O211 C205 1.268 . S
O212 Sc200 2.105 . S
O212 C206 1.268 . S
O213 Sc199 2.105 . S
O213 C207 1.268 . S
O214 Sc198 2.105 . S
O214 C206 1.268 . S
O215 Sc199 2.105 . S
O215 C205 1.268 . S
O216 Sc200 2.105 . S
O216 C207 1.268 . S
O217 Sc198 2.105 1_655 S
O217 C203 1.268 . S
O218 Sc200 2.105 . S
O218 C202 1.268 . S
O219 Sc199 2.105 . S
O219 C204 1.268 . S
Sc220 O223 2.025 . S
Sc220 O230 2.105 . S
Sc220 O233 2.105 . S
Sc220 O236 2.105 . S
Sc220 O239 2.105 . S
Sc221 O223 2.025 . S
Sc221 O231 2.105 . S
Sc221 O235 2.105 1_545 S
Sc221 O237 2.105 . S
Sc221 O241 2.105 . S
Sc222 O223 2.025 . S
Sc222 O232 2.105 . S
Sc222 O234 2.105 . S
Sc222 O238 2.105 1_545 S
Sc222 O240 2.105 . S
O223 Sc220 2.025 . S
O223 Sc221 2.025 . S
O223 Sc222 2.025 . S
C224 O230 1.268 . S
C224 O240 1.268 . S
C225 O231 1.268 . S
C225 O239 1.268 . S
C226 O232 1.268 . S
C226 O241 1.268 . S
C227 O233 1.268 . S
C227 O237 1.268 . S
C228 O234 1.268 . S
C228 O236 1.268 . S
C229 O235 1.268 . S
C229 O238 1.268 . S
O230 Sc220 2.105 . S
O230 C224 1.268 . S
O231 Sc221 2.105 . S
O231 C225 1.268 . S
O232 Sc222 2.105 . S
O232 C226 1.268 . S
O233 Sc220 2.105 . S
O233 C227 1.268 . S
O234 Sc222 2.105 . S
O234 C228 1.268 . S
O235 Sc221 2.105 1_565 S
O235 C229 1.268 . S
O236 Sc220 2.105 . S
O236 C228 1.268 . S
O237 Sc221 2.105 . S
O237 C227 1.268 . S
O238 Sc222 2.105 1_565 S
O238 C229 1.268 . S
O239 Sc220 2.105 . S
O239 C225 1.268 . S
O240 Sc222 2.105 . S
O240 C224 1.268 . S
O241 Sc221 2.105 . S
O241 C226 1.268 . S
Sc242 O245 2.025 . S
Sc242 O252 2.105 . S
Sc242 O255 2.105 . S
Sc242 O258 2.105 . S
Sc242 O261 2.105 . S
Sc243 O245 2.025 . S
Sc243 O253 2.105 . S
Sc243 O257 2.105 . S
Sc243 O259 2.105 . S
Sc243 O263 2.105 . S
Sc244 O245 2.025 . S
Sc244 O254 2.105 . S
Sc244 O256 2.105 . S
Sc244 O260 2.105 . S
Sc244 O262 2.105 . S
O245 Sc242 2.025 . S
O245 Sc243 2.025 . S
O245 Sc244 2.025 . S
C246 O252 1.268 . S
C246 O262 1.268 . S
C247 O253 1.268 . S
C247 O261 1.268 . S
C248 O254 1.268 . S
C248 O263 1.268 . S
C249 O255 1.268 . S
C249 O259 1.268 . S
C250 O256 1.268 . S
C250 O258 1.268 . S
C251 O257 1.268 . S
C251 O260 1.268 . S
O252 Sc242 2.105 . S
O252 C246 1.268 . S
O253 Sc243 2.105 . S
O253 C247 1.268 . S
O254 Sc244 2.105 . S
O254 C248 1.268 . S
O255 Sc242 2.105 . S
O255 C249 1.268 . S
O256 Sc244 2.105 . S
O256 C250 1.268 . S
O257 Sc243 2.105 . S
O257 C251 1.268 . S
O258 Sc242 2.105 . S
O258 C250 1.268 . S
O259 Sc243 2.105 . S
O259 C249 1.268 . S
O260 Sc244 2.105 . S
O260 C251 1.268 . S
O261 Sc242 2.105 . S
O261 C247 1.268 . S
O262 Sc244 2.105 . S
O262 C246 1.268 . S
O263 Sc243 2.105 . S
O263 C248 1.268 . S
Sc264 O267 2.025 . S
Sc264 O274 2.105 . S
Sc264 O277 2.105 . S
Sc264 O280 2.105 . S
Sc264 O283 2.105 . S
Sc265 O267 2.025 . S
Sc265 O275 2.105 . S
Sc265 O279 2.105 . S
Sc265 O281 2.105 . S
Sc265 O285 2.105 . S
Sc266 O267 2.025 . S
Sc266 O276 2.105 . S
Sc266 O278 2.105 . S
Sc266 O282 2.105 . S
Sc266 O284 2.105 . S
O267 Sc264 2.025 . S
O267 Sc265 2.025 . S
O267 Sc266 2.025 . S
C268 O274 1.268 . S
C268 O284 1.268 . S
C269 O275 1.268 . S
C269 O283 1.268 . S
C270 O276 1.268 . S
C270 O285 1.268 . S
C271 O277 1.268 . S
C271 O281 1.268 . S
C272 O278 1.268 . S
C272 O280 1.268 . S
C273 O279 1.268 . S
C273 O282 1.268 . S
O274 Sc264 2.105 . S
O274 C268 1.268 . S
O275 Sc265 2.105 . S
O275 C269 1.268 . S
O276 Sc266 2.105 . S
O276 C270 1.268 . S
O277 Sc264 2.105 . S
O277 C271 1.268 . S
O278 Sc266 2.105 . S
O278 C272 1.268 . S
O279 Sc265 2.105 . S
O279 C273 1.268 . S
O280 Sc264 2.105 . S
O280 C272 1.268 . S
O281 Sc265 2.105 . S
O281 C271 1.268 . S
O282 Sc266 2.105 . S
O282 C273 1.268 . S
O283 Sc264 2.105 . S
O283 C269 1.268 . S
O284 Sc266 2.105 . S
O284 C268 1.268 . S
O285 Sc265 2.105 . S
O285 C270 1.268 . S
Sc286 O289 2.025 . S
Sc286 O296 2.105 . S
Sc286 O299 2.105 . S
Sc286 O302 2.105 . S
Sc286 O305 2.105 . S
Sc287 O289 2.025 . S
Sc287 O297 2.105 . S
Sc287 O301 2.105 1_655 S
Sc287 O303 2.105 . S
Sc287 O307 2.105 . S
Sc288 O289 2.025 . S
Sc288 O298 2.105 . S
Sc288 O300 2.105 . S
Sc288 O304 2.105 1_655 S
Sc288 O306 2.105 . S
O289 Sc286 2.025 . S
O289 Sc287 2.025 . S
O289 Sc288 2.025 . S
C290 O296 1.268 . S
C290 O306 1.268 . S
C291 O297 1.268 . S
C291 O305 1.268 . S
C292 O298 1.268 . S
C292 O307 1.268 . S
C293 O299 1.268 . S
C293 O303 1.268 . S
C294 O300 1.268 . S
C294 O302 1.268 . S
C295 O301 1.268 . S
C295 O304 1.268 . S
O296 Sc286 2.105 . S
O296 C290 1.268 . S
O297 Sc287 2.105 . S
O297 C291 1.268 . S
O298 Sc288 2.105 . S
O298 C292 1.268 . S
O299 Sc286 2.105 . S
O299 C293 1.268 . S
O300 Sc288 2.105 . S
O300 C294 1.268 . S
O301 Sc287 2.105 1_455 S
O301 C295 1.268 . S
O302 Sc286 2.105 . S
O302 C294 1.268 . S
O303 Sc287 2.105 . S
O303 C293 1.268 . S
O304 Sc288 2.105 1_455 S
O304 C295 1.268 . S
O305 Sc286 2.105 . S
O305 C291 1.268 . S
O306 Sc288 2.105 . S
O306 C290 1.268 . S
O307 Sc287 2.105 . S
O307 C292 1.268 . S
Sc308 O311 2.025 . S
Sc308 O318 2.105 . S
Sc308 O321 2.105 . S
Sc308 O324 2.105 . S
Sc308 O327 2.105 . S
Sc309 O311 2.025 . S
Sc309 O319 2.105 . S
Sc309 O323 2.105 1_565 S
Sc309 O325 2.105 . S
Sc309 O329 2.105 . S
Sc310 O311 2.025 . S
Sc310 O320 2.105 . S
Sc310 O322 2.105 . S
Sc310 O326 2.105 1_565 S
Sc310 O328 2.105 . S
O311 Sc308 2.025 . S
O311 Sc309 2.025 . S
O311 Sc310 2.025 . S
C312 O318 1.268 . S
C312 O328 1.268 . S
C313 O319 1.268 . S
C313 O327 1.268 . S
C314 O320 1.268 . S
C314 O329 1.268 . S
C315 O321 1.268 . S
C315 O325 1.268 . S
C316 O322 1.268 . S
C316 O324 1.268 . S
C317 O323 1.268 . S
C317 O326 1.268 . S
O318 Sc308 2.105 . S
O318 C312 1.268 . S
O319 Sc309 2.105 . S
O319 C313 1.268 . S
O320 Sc310 2.105 . S
O320 C314 1.268 . S
O321 Sc308 2.105 . S
O321 C315 1.268 . S
O322 Sc310 2.105 . S
O322 C316 1.268 . S
O323 Sc309 2.105 1_545 S
O323 C317 1.268 . S
O324 Sc308 2.105 . S
O324 C316 1.268 . S
O325 Sc309 2.105 . S
O325 C315 1.268 . S
O326 Sc310 2.105 1_545 S
O326 C317 1.268 . S
O327 Sc308 2.105 . S
O327 C313 1.268 . S
O328 Sc310 2.105 . S
O328 C312 1.268 . S
O329 Sc309 2.105 . S
O329 C314 1.268 . S
Sc330 O333 2.025 . S
Sc330 O340 2.105 . S
Sc330 O343 2.105 . S
Sc330 O346 2.105 . S
Sc330 O349 2.105 . S
Sc331 O333 2.025 . S
Sc331 O341 2.105 . S
Sc331 O345 2.105 . S
Sc331 O347 2.105 . S
Sc331 O351 2.105 . S
Sc332 O333 2.025 . S
Sc332 O342 2.105 . S
Sc332 O344 2.105 . S
Sc332 O348 2.105 . S
Sc332 O350 2.105 . S
O333 Sc330 2.025 . S
O333 Sc331 2.025 . S
O333 Sc332 2.025 . S
C334 O340 1.268 . S
C334 O350 1.268 . S
C335 O341 1.268 . S
C335 O349 1.268 . S
C336 O342 1.268 . S
C336 O351 1.268 . S
C337 O343 1.268 . S
C337 O347 1.268 . S
C338 O344 1.268 . S
C338 O346 1.268 . S
C339 O345 1.268 . S
C339 O348 1.268 . S
O340 Sc330 2.105 . S
O340 C334 1.268 . S
O341 Sc331 2.105 . S
O341 C335 1.268 . S
O342 Sc332 2.105 . S
O342 C336 1.268 . S
O343 Sc330 2.105 . S
O343 C337 1.268 . S
O344 Sc332 2.105 . S
O344 C338 1.268 . S
O345 Sc331 2.105 . S
O345 C339 1.268 . S
O346 Sc330 2.105 . S
O346 C338 1.268 . S
O347 Sc331 2.105 . S
O347 C337 1.268 . S
O348 Sc332 2.105 . S
O348 C339 1.268 . S
O349 Sc330 2.105 . S
O349 C335 1.268 . S
O350 Sc332 2.105 . S
O350 C334 1.268 . S
O351 Sc331 2.105 . S
O351 C336 1.268 . S
C352 C353 1.391 . S
C352 C354 1.394 . S
C352 H368 0.931 . S
C353 C352 1.391 . S
C353 C357 1.376 . S
C354 C352 1.394 . S
C354 C355 1.369 . S
C354 C358 1.531 . S
C355 C354 1.369 . S
C355 C356 1.410 . S
C355 C363 1.503 . S
C356 C355 1.410 . S
C356 C357 1.392 . S
C356 C359 1.511 . S
C357 C353 1.376 . S
C357 C356 1.392 . S
C357 H369 0.929 . S
C358 C354 1.531 . S
C358 H370 0.960 . S
C358 H371 0.962 . S
C358 H372 0.960 . S
C359 C356 1.511 . S
C359 H373 0.961 . S
C359 H374 0.961 . S
C359 H375 0.961 . S
C360 C361 1.370 . S
C360 C362 1.363 . S
C360 H376 0.931 . S
C361 C360 1.370 . S
C361 C365 1.408 . S
C362 C360 1.363 . S
C362 C363 1.370 . S
C362 C366 1.524 . S
C363 C355 1.503 . S
C363 C362 1.370 . S
C363 C364 1.403 . S
C364 C363 1.403 . S
C364 C365 1.404 . S
C364 C367 1.539 . S
C365 C361 1.408 . S
C365 C364 1.404 . S
C365 H377 0.930 . S
C366 C362 1.524 . S
C366 H378 0.956 . S
C366 H379 0.961 . S
C366 H380 0.961 . S
C367 C364 1.539 . S
C367 H381 0.958 . S
C367 H382 0.961 . S
C367 H383 0.960 . S
H368 C352 0.931 . S
H369 C357 0.929 . S
H370 C358 0.960 . S
H371 C358 0.962 . S
H372 C358 0.960 . S
H373 C359 0.961 . S
H374 C359 0.961 . S
H375 C359 0.961 . S
H376 C360 0.931 . S
H377 C365 0.930 . S
H378 C366 0.956 . S
H379 C366 0.961 . S
H380 C366 0.961 . S
H381 C367 0.958 . S
H382 C367 0.961 . S
H383 C367 0.960 . S
C384 C385 1.391 . S
C384 C386 1.394 . S
C384 H400 0.931 . S
C385 C384 1.391 . S
C385 C389 1.376 . S
C386 C384 1.394 . S
C386 C387 1.369 . S
C386 C390 1.531 . S
C387 C386 1.369 . S
C387 C388 1.410 . S
C387 C395 1.503 1_554 S
C388 C387 1.410 . S
C388 C389 1.392 . S
C388 C391 1.511 1_554 S
C389 C385 1.376 . S
C389 C388 1.392 . S
C389 H401 0.929 . S
C390 C386 1.531 . S
C390 H402 0.960 . S
C390 H403 0.962 . S
C390 H404 0.960 . S
C391 C388 1.511 1_556 S
C391 H405 0.961 . S
C391 H406 0.961 . S
C391 H407 0.961 . S
C392 C393 1.370 . S
C392 C394 1.363 . S
C392 H408 0.931 . S
C393 C392 1.370 . S
C393 C397 1.408 . S
C394 C392 1.363 . S
C394 C395 1.370 . S
C394 C398 1.524 . S
C395 C387 1.503 1_556 S
C395 C394 1.370 . S
C395 C396 1.403 . S
C396 C395 1.403 . S
C396 C397 1.404 . S
C396 C399 1.539 . S
C397 C393 1.408 . S
C397 C396 1.404 . S
C397 H409 0.930 . S
C398 C394 1.524 . S
C398 H410 0.956 1_556 S
C398 H411 0.961 . S
C398 H412 0.961 . S
C399 C396 1.539 . S
C399 H413 0.958 1_556 S
C399 H414 0.961 . S
C399 H415 0.960 . S
H400 C384 0.931 . S
H401 C389 0.929 . S
H402 C390 0.960 . S
H403 C390 0.962 . S
H404 C390 0.960 . S
H405 C391 0.961 . S
H406 C391 0.961 . S
H407 C391 0.961 . S
H408 C392 0.931 . S
H409 C397 0.930 . S
H410 C398 0.956 1_554 S
H411 C398 0.961 . S
H412 C398 0.961 . S
H413 C399 0.958 1_554 S
H414 C399 0.961 . S
H415 C399 0.960 . S
C416 C417 1.391 . S
C416 C418 1.394 . S
C416 H432 0.931 . S
C417 C416 1.391 . S
C417 C421 1.376 . S
C418 C416 1.394 . S
C418 C419 1.369 . S
C418 C422 1.531 . S
C419 C418 1.369 . S
C419 C420 1.410 . S
C419 C427 1.503 . S
C420 C419 1.410 . S
C420 C421 1.392 . S
C420 C423 1.511 . S
C421 C417 1.376 . S
C421 C420 1.392 . S
C421 H433 0.929 . S
C422 C418 1.531 . S
C422 H434 0.960 . S
C422 H435 0.962 . S
C422 H436 0.960 . S
C423 C420 1.511 . S
C423 H437 0.961 . S
C423 H438 0.961 . S
C423 H439 0.961 . S
C424 C425 1.370 . S
C424 C426 1.363 . S
C424 H440 0.931 . S
C425 C424 1.370 . S
C425 C429 1.408 . S
C426 C424 1.363 . S
C426 C427 1.370 . S
C426 C430 1.524 . S
C427 C419 1.503 . S
C427 C426 1.370 . S
C427 C428 1.403 . S
C428 C427 1.403 . S
C428 C429 1.404 . S
C428 C431 1.539 . S
C429 C425 1.408 . S
C429 C428 1.404 . S
C429 H441 0.930 . S
C430 C426 1.524 . S
C430 H442 0.956 . S
C430 H443 0.961 . S
C430 H444 0.961 . S
C431 C428 1.539 . S
C431 H445 0.958 . S
C431 H446 0.961 . S
C431 H447 0.960 . S
H432 C416 0.931 . S
H433 C421 0.929 . S
H434 C422 0.960 . S
H435 C422 0.962 . S
H436 C422 0.960 . S
H437 C423 0.961 . S
H438 C423 0.961 . S
H439 C423 0.961 . S
H440 C424 0.931 . S
H441 C429 0.930 . S
H442 C430 0.956 . S
H443 C430 0.961 . S
H444 C430 0.961 . S
H445 C431 0.958 . S
H446 C431 0.961 . S
H447 C431 0.960 . S
C448 C449 1.391 . S
C448 C450 1.394 . S
C448 H464 0.931 . S
C449 C448 1.391 . S
C449 C453 1.376 . S
C450 C448 1.394 . S
C450 C451 1.369 . S
C450 C454 1.531 . S
C451 C450 1.369 . S
C451 C452 1.410 . S
C451 C459 1.503 1_556 S
C452 C451 1.410 . S
C452 C453 1.392 . S
C452 C455 1.511 1_556 S
C453 C449 1.376 . S
C453 C452 1.392 . S
C453 H465 0.929 . S
C454 C450 1.531 . S
C454 H466 0.960 . S
C454 H467 0.962 . S
C454 H468 0.960 . S
C455 C452 1.511 1_554 S
C455 H469 0.961 . S
C455 H470 0.961 . S
C455 H471 0.961 . S
C456 C457 1.370 . S
C456 C458 1.363 . S
C456 H472 0.931 . S
C457 C456 1.370 . S
C457 C461 1.408 . S
C458 C456 1.363 . S
C458 C459 1.370 . S
C458 C462 1.524 . S
C459 C451 1.503 1_554 S
C459 C458 1.370 . S
C459 C460 1.403 . S
C460 C459 1.403 . S
C460 C461 1.404 . S
C460 C463 1.539 1_554 S
C461 C457 1.408 . S
C461 C460 1.404 . S
C461 H473 0.930 . S
C462 C458 1.524 . S
C462 H474 0.956 . S
C462 H475 0.961 . S
C462 H476 0.961 . S
C463 C460 1.539 1_556 S
C463 H477 0.958 . S
C463 H478 0.961 . S
C463 H479 0.960 . S
H464 C448 0.931 . S
H465 C453 0.929 . S
H466 C454 0.960 . S
H467 C454 0.962 . S
H468 C454 0.960 . S
H469 C455 0.961 . S
H470 C455 0.961 . S
H471 C455 0.961 . S
H472 C456 0.931 . S
H473 C461 0.930 . S
H474 C462 0.956 . S
H475 C462 0.961 . S
H476 C462 0.961 . S
H477 C463 0.958 . S
H478 C463 0.961 . S
H479 C463 0.960 . S
C480 C481 1.391 . S
C480 C482 1.394 . S
C480 H496 0.931 . S
C481 C480 1.391 . S
C481 C485 1.376 . S
C482 C480 1.394 . S
C482 C483 1.369 . S
C482 C486 1.531 . S
C483 C482 1.369 . S
C483 C484 1.410 . S
C483 C491 1.503 . S
C484 C483 1.410 . S
C484 C485 1.392 . S
C484 C487 1.511 . S
C485 C481 1.376 . S
C485 C484 1.392 . S
C485 H497 0.929 . S
C486 C482 1.531 . S
C486 H498 0.960 . S
C486 H499 0.962 . S
C486 H500 0.960 . S
C487 C484 1.511 . S
C487 H501 0.961 . S
C487 H502 0.961 . S
C487 H503 0.961 . S
C488 C489 1.370 . S
C488 C490 1.363 . S
C488 H504 0.931 . S
C489 C488 1.370 . S
C489 C493 1.408 . S
C490 C488 1.363 . S
C490 C491 1.370 . S
C490 C494 1.524 . S
C491 C483 1.503 . S
C491 C490 1.370 . S
C491 C492 1.403 . S
C492 C491 1.403 . S
C492 C493 1.404 . S
C492 C495 1.539 . S
C493 C489 1.408 . S
C493 C492 1.404 . S
C493 H505 0.930 . S
C494 C490 1.524 . S
C494 H506 0.956 . S
C494 H507 0.961 . S
C494 H508 0.961 . S
C495 C492 1.539 . S
C495 H509 0.958 . S
C495 H510 0.961 . S
C495 H511 0.960 . S
H496 C480 0.931 . S
H497 C485 0.929 . S
H498 C486 0.960 . S
H499 C486 0.962 . S
H500 C486 0.960 . S
H501 C487 0.961 . S
H502 C487 0.961 . S
H503 C487 0.961 . S
H504 C488 0.931 . S
H505 C493 0.930 . S
H506 C494 0.956 . S
H507 C494 0.961 . S
H508 C494 0.961 . S
H509 C495 0.958 . S
H510 C495 0.961 . S
H511 C495 0.960 . S
C512 C513 1.391 . S
C512 C514 1.394 . S
C512 H528 0.931 . S
C513 C512 1.391 . S
C513 C517 1.376 . S
C514 C512 1.394 . S
C514 C515 1.369 . S
C514 C518 1.531 . S
C515 C514 1.369 . S
C515 C516 1.410 . S
C515 C523 1.503 1_556 S
C516 C515 1.410 . S
C516 C517 1.392 . S
C516 C519 1.511 . S
C517 C513 1.376 . S
C517 C516 1.392 . S
C517 H529 0.929 . S
C518 C514 1.531 . S
C518 H530 0.960 1_556 S
C518 H531 0.962 . S
C518 H532 0.960 . S
C519 C516 1.511 . S
C519 H533 0.961 . S
C519 H534 0.961 . S
C519 H535 0.961 1_556 S
C520 C521 1.370 . S
C520 C522 1.363 . S
C520 H536 0.931 . S
C521 C520 1.370 . S
C521 C525 1.408 . S
C522 C520 1.363 . S
C522 C523 1.370 . S
C522 C526 1.524 1_554 S
C523 C515 1.503 1_554 S
C523 C522 1.370 . S
C523 C524 1.403 . S
C524 C523 1.403 . S
C524 C525 1.404 . S
C524 C527 1.539 . S
C525 C521 1.408 . S
C525 C524 1.404 . S
C525 H537 0.930 . S
C526 C522 1.524 1_556 S
C526 H538 0.956 . S
C526 H539 0.961 . S
C526 H540 0.961 . S
C527 C524 1.539 . S
C527 H541 0.958 . S
C527 H542 0.961 . S
C527 H543 0.960 . S
H528 C512 0.931 . S
H529 C517 0.929 . S
H530 C518 0.960 1_554 S
H531 C518 0.962 . S
H532 C518 0.960 . S
H533 C519 0.961 . S
H534 C519 0.961 . S
H535 C519 0.961 1_554 S
H536 C520 0.931 . S
H537 C525 0.930 . S
H538 C526 0.956 . S
H539 C526 0.961 . S
H540 C526 0.961 . S
H541 C527 0.958 . S
H542 C527 0.961 . S
H543 C527 0.960 . S
C544 C545 1.391 . S
C544 C546 1.394 . S
C544 H560 0.931 . S
C545 C544 1.391 . S
C545 C549 1.376 . S
C546 C544 1.394 . S
C546 C547 1.369 . S
C546 C550 1.531 . S
C547 C546 1.369 . S
C547 C548 1.410 . S
C547 C555 1.503 . S
C548 C547 1.410 . S
C548 C549 1.392 . S
C548 C551 1.511 . S
C549 C545 1.376 . S
C549 C548 1.392 . S
C549 H561 0.929 . S
C550 C546 1.531 . S
C550 H562 0.960 . S
C550 H563 0.962 . S
C550 H564 0.960 . S
C551 C548 1.511 . S
C551 H565 0.961 . S
C551 H566 0.961 . S
C551 H567 0.961 . S
C552 C553 1.370 . S
C552 C554 1.363 . S
C552 H568 0.931 . S
C553 C552 1.370 . S
C553 C557 1.408 . S
C554 C552 1.363 . S
C554 C555 1.370 . S
C554 C558 1.524 . S
C555 C547 1.503 . S
C555 C554 1.370 . S
C555 C556 1.403 . S
C556 C555 1.403 . S
C556 C557 1.404 . S
C556 C559 1.539 . S
C557 C553 1.408 . S
C557 C556 1.404 . S
C557 H569 0.930 . S
C558 C554 1.524 . S
C558 H570 0.956 . S
C558 H571 0.961 . S
C558 H572 0.961 . S
C559 C556 1.539 . S
C559 H573 0.958 . S
C559 H574 0.961 . S
C559 H575 0.960 . S
H560 C544 0.931 . S
H561 C549 0.929 . S
H562 C550 0.960 . S
H563 C550 0.962 . S
H564 C550 0.960 . S
H565 C551 0.961 . S
H566 C551 0.961 . S
H567 C551 0.961 . S
H568 C552 0.931 . S
H569 C557 0.930 . S
H570 C558 0.956 . S
H571 C558 0.961 . S
H572 C558 0.961 . S
H573 C559 0.958 . S
H574 C559 0.961 . S
H575 C559 0.960 . S
C576 C577 1.391 . S
C576 C578 1.394 . S
C576 H592 0.931 . S
C577 C576 1.391 . S
C577 C581 1.376 . S
C578 C576 1.394 . S
C578 C579 1.369 . S
C578 C582 1.531 . S
C579 C578 1.369 . S
C579 C580 1.410 . S
C579 C587 1.503 1_556 S
C580 C579 1.410 . S
C580 C581 1.392 . S
C580 C583 1.511 1_556 S
C581 C577 1.376 . S
C581 C580 1.392 . S
C581 H593 0.929 . S
C582 C578 1.531 . S
C582 H594 0.960 . S
C582 H595 0.962 . S
C582 H596 0.960 . S
C583 C580 1.511 1_554 S
C583 H597 0.961 . S
C583 H598 0.961 . S
C583 H599 0.961 1_554 S
C584 C585 1.370 . S
C584 C586 1.363 . S
C584 H600 0.931 . S
C585 C584 1.370 . S
C585 C589 1.408 . S
C586 C584 1.363 . S
C586 C587 1.370 . S
C586 C590 1.524 . S
C587 C579 1.503 1_554 S
C587 C586 1.370 . S
C587 C588 1.403 . S
C588 C587 1.403 . S
C588 C589 1.404 . S
C588 C591 1.539 1_554 S
C589 C585 1.408 . S
C589 C588 1.404 . S
C589 H601 0.930 . S
C590 C586 1.524 . S
C590 H602 0.956 . S
C590 H603 0.961 . S
C590 H604 0.961 . S
C591 C588 1.539 1_556 S
C591 H605 0.958 . S
C591 H606 0.961 . S
C591 H607 0.960 . S
H592 C576 0.931 . S
H593 C581 0.929 . S
H594 C582 0.960 . S
H595 C582 0.962 . S
H596 C582 0.960 . S
H597 C583 0.961 . S
H598 C583 0.961 . S
H599 C583 0.961 1_556 S
H600 C584 0.931 . S
H601 C589 0.930 . S
H602 C590 0.956 . S
H603 C590 0.961 . S
H604 C590 0.961 . S
H605 C591 0.958 . S
H606 C591 0.961 . S
H607 C591 0.960 . S
C608 C609 1.391 . S
C608 C610 1.394 . S
C608 H624 0.931 . S
C609 C608 1.391 . S
C609 C613 1.376 . S
C610 C608 1.394 . S
C610 C611 1.369 . S
C610 C614 1.531 . S
C611 C610 1.369 . S
C611 C612 1.410 . S
C611 C619 1.503 . S
C612 C611 1.410 . S
C612 C613 1.392 . S
C612 C615 1.511 . S
C613 C609 1.376 . S
C613 C612 1.392 . S
C613 H625 0.929 . S
C614 C610 1.531 . S
C614 H626 0.960 . S
C614 H627 0.962 . S
C614 H628 0.960 . S
C615 C612 1.511 . S
C615 H629 0.961 . S
C615 H630 0.961 . S
C615 H631 0.961 . S
C616 C617 1.370 . S
C616 C618 1.363 . S
C616 H632 0.931 . S
C617 C616 1.370 . S
C617 C621 1.408 . S
C618 C616 1.363 . S
C618 C619 1.370 . S
C618 C622 1.524 . S
C619 C611 1.503 . S
C619 C618 1.370 . S
C619 C620 1.403 . S
C620 C619 1.403 . S
C620 C621 1.404 . S
C620 C623 1.539 . S
C621 C617 1.408 . S
C621 C620 1.404 . S
C621 H633 0.930 . S
C622 C618 1.524 . S
C622 H634 0.956 . S
C622 H635 0.961 . S
C622 H636 0.961 . S
C623 C620 1.539 . S
C623 H637 0.958 . S
C623 H638 0.961 . S
C623 H639 0.960 . S
H624 C608 0.931 . S
H625 C613 0.929 . S
H626 C614 0.960 . S
H627 C614 0.962 . S
H628 C614 0.960 . S
H629 C615 0.961 . S
H630 C615 0.961 . S
H631 C615 0.961 . S
H632 C616 0.931 . S
H633 C621 0.930 . S
H634 C622 0.956 . S
H635 C622 0.961 . S
H636 C622 0.961 . S
H637 C623 0.958 . S
H638 C623 0.961 . S
H639 C623 0.960 . S
C640 C641 1.391 . S
C640 C642 1.394 . S
C640 H656 0.931 . S
C641 C640 1.391 . S
C641 C645 1.376 . S
C642 C640 1.394 . S
C642 C643 1.369 . S
C642 C646 1.531 . S
C643 C642 1.369 . S
C643 C644 1.410 . S
C643 C651 1.503 . S
C644 C643 1.410 . S
C644 C645 1.392 . S
C644 C647 1.511 . S
C645 C641 1.376 . S
C645 C644 1.392 . S
C645 H657 0.929 . S
C646 C642 1.531 . S
C646 H658 0.960 . S
C646 H659 0.962 . S
C646 H660 0.960 . S
C647 C644 1.511 . S
C647 H661 0.961 . S
C647 H662 0.961 . S
C647 H663 0.961 . S
C648 C649 1.370 . S
C648 C650 1.363 . S
C648 H664 0.931 . S
C649 C648 1.370 . S
C649 C653 1.408 . S
C650 C648 1.363 . S
C650 C651 1.370 . S
C650 C654 1.524 . S
C651 C643 1.503 . S
C651 C650 1.370 . S
C651 C652 1.403 . S
C652 C651 1.403 . S
C652 C653 1.404 . S
C652 C655 1.539 . S
C653 C649 1.408 . S
C653 C652 1.404 . S
C653 H665 0.930 . S
C654 C650 1.524 . S
C654 H666 0.956 . S
C654 H667 0.961 . S
C654 H668 0.961 . S
C655 C652 1.539 . S
C655 H669 0.958 . S
C655 H670 0.961 . S
C655 H671 0.960 . S
H656 C640 0.931 . S
H657 C645 0.929 . S
H658 C646 0.960 . S
H659 C646 0.962 . S
H660 C646 0.960 . S
H661 C647 0.961 . S
H662 C647 0.961 . S
H663 C647 0.961 . S
H664 C648 0.931 . S
H665 C653 0.930 . S
H666 C654 0.956 . S
H667 C654 0.961 . S
H668 C654 0.961 . S
H669 C655 0.958 . S
H670 C655 0.961 . S
H671 C655 0.960 . S
C672 C673 1.391 . S
C672 C674 1.394 . S
C672 H688 0.931 . S
C673 C672 1.391 . S
C673 C677 1.376 . S
C674 C672 1.394 . S
C674 C675 1.369 . S
C674 C678 1.531 . S
C675 C674 1.369 . S
C675 C676 1.410 . S
C675 C683 1.503 . S
C676 C675 1.410 . S
C676 C677 1.392 . S
C676 C679 1.511 . S
C677 C673 1.376 . S
C677 C676 1.392 . S
C677 H689 0.929 . S
C678 C674 1.531 . S
C678 H690 0.960 . S
C678 H691 0.962 . S
C678 H692 0.960 . S
C679 C676 1.511 . S
C679 H693 0.961 . S
C679 H694 0.961 . S
C679 H695 0.961 . S
C680 C681 1.370 . S
C680 C682 1.363 . S
C680 H696 0.931 . S
C681 C680 1.370 . S
C681 C685 1.408 . S
C682 C680 1.363 . S
C682 C683 1.370 . S
C682 C686 1.524 . S
C683 C675 1.503 . S
C683 C682 1.370 . S
C683 C684 1.403 . S
C684 C683 1.403 . S
C684 C685 1.404 . S
C684 C687 1.539 . S
C685 C681 1.408 . S
C685 C684 1.404 . S
C685 H697 0.930 . S
C686 C682 1.524 . S
C686 H698 0.956 . S
C686 H699 0.961 . S
C686 H700 0.961 . S
C687 C684 1.539 . S
C687 H701 0.958 . S
C687 H702 0.961 . S
C687 H703 0.960 . S
H688 C672 0.931 . S
H689 C677 0.929 . S
H690 C678 0.960 . S
H691 C678 0.962 . S
H692 C678 0.960 . S
H693 C679 0.961 . S
H694 C679 0.961 . S
H695 C679 0.961 . S
H696 C680 0.931 . S
H697 C685 0.930 . S
H698 C686 0.956 . S
H699 C686 0.961 . S
H700 C686 0.961 . S
H701 C687 0.958 . S
H702 C687 0.961 . S
H703 C687 0.960 . S
C704 C705 1.391 . S
C704 C706 1.394 . S
C704 H720 0.931 . S
C705 C704 1.391 . S
C705 C709 1.376 . S
C706 C704 1.394 . S
C706 C707 1.369 . S
C706 C710 1.531 . S
C707 C706 1.369 . S
C707 C708 1.410 . S
C707 C715 1.503 . S
C708 C707 1.410 . S
C708 C709 1.392 . S
C708 C711 1.511 . S
C709 C705 1.376 . S
C709 C708 1.392 . S
C709 H721 0.929 . S
C710 C706 1.531 . S
C710 H722 0.960 . S
C710 H723 0.962 . S
C710 H724 0.960 . S
C711 C708 1.511 . S
C711 H725 0.961 . S
C711 H726 0.961 . S
C711 H727 0.961 . S
C712 C713 1.370 . S
C712 C714 1.363 . S
C712 H728 0.931 . S
C713 C712 1.370 . S
C713 C717 1.408 . S
C714 C712 1.363 . S
C714 C715 1.370 . S
C714 C718 1.524 . S
C715 C707 1.503 . S
C715 C714 1.370 . S
C715 C716 1.403 . S
C716 C715 1.403 . S
C716 C717 1.404 . S
C716 C719 1.539 . S
C717 C713 1.408 . S
C717 C716 1.404 . S
C717 H729 0.930 . S
C718 C714 1.524 . S
C718 H730 0.956 . S
C718 H731 0.961 . S
C718 H732 0.961 . S
C719 C716 1.539 . S
C719 H733 0.958 . S
C719 H734 0.961 . S
C719 H735 0.960 . S
H720 C704 0.931 . S
H721 C709 0.929 . S
H722 C710 0.960 . S
H723 C710 0.962 . S
H724 C710 0.960 . S
H725 C711 0.961 . S
H726 C711 0.961 . S
H727 C711 0.961 . S
H728 C712 0.931 . S
H729 C717 0.930 . S
H730 C718 0.956 . S
H731 C718 0.961 . S
H732 C718 0.961 . S
H733 C719 0.958 . S
H734 C719 0.961 . S
H735 C719 0.960 . S
C736 C737 1.391 . S
C736 C738 1.394 . S
C736 H752 0.931 . S
C737 C736 1.391 . S
C737 C741 1.376 . S
C738 C736 1.394 . S
C738 C739 1.369 . S
C738 C742 1.531 . S
C739 C738 1.369 . S
C739 C740 1.410 . S
C739 C747 1.503 . S
C740 C739 1.410 . S
C740 C741 1.392 . S
C740 C743 1.511 . S
C741 C737 1.376 . S
C741 C740 1.392 . S
C741 H753 0.929 . S
C742 C738 1.531 . S
C742 H754 0.960 . S
C742 H755 0.962 . S
C742 H756 0.960 . S
C743 C740 1.511 . S
C743 H757 0.961 . S
C743 H758 0.961 . S
C743 H759 0.961 . S
C744 C745 1.370 . S
C744 C746 1.363 . S
C744 H760 0.931 . S
C745 C744 1.370 . S
C745 C749 1.408 . S
C746 C744 1.363 . S
C746 C747 1.370 . S
C746 C750 1.524 . S
C747 C739 1.503 . S
C747 C746 1.370 . S
C747 C748 1.403 . S
C748 C747 1.403 . S
C748 C749 1.404 . S
C748 C751 1.539 . S
C749 C745 1.408 . S
C749 C748 1.404 . S
C749 H761 0.930 . S
C750 C746 1.524 . S
C750 H762 0.956 . S
C750 H763 0.961 . S
C750 H764 0.961 . S
C751 C748 1.539 . S
C751 H765 0.958 . S
C751 H766 0.961 . S
C751 H767 0.960 . S
H752 C736 0.931 . S
H753 C741 0.929 . S
H754 C742 0.960 . S
H755 C742 0.962 . S
H756 C742 0.960 . S
H757 C743 0.961 . S
H758 C743 0.961 . S
H759 C743 0.961 . S
H760 C744 0.931 . S
H761 C749 0.930 . S
H762 C750 0.956 . S
H763 C750 0.961 . S
H764 C750 0.961 . S
H765 C751 0.958 . S
H766 C751 0.961 . S
H767 C751 0.960 . S
C768 C769 1.391 . S
C768 C770 1.394 . S
C768 H784 0.931 . S
C769 C768 1.391 . S
C769 C773 1.376 . S
C770 C768 1.394 . S
C770 C771 1.369 . S
C770 C774 1.531 . S
C771 C770 1.369 . S
C771 C772 1.410 . S
C771 C779 1.503 . S
C772 C771 1.410 . S
C772 C773 1.392 . S
C772 C775 1.511 . S
C773 C769 1.376 . S
C773 C772 1.392 . S
C773 H785 0.929 . S
C774 C770 1.531 . S
C774 H786 0.960 . S
C774 H787 0.962 . S
C774 H788 0.960 . S
C775 C772 1.511 . S
C775 H789 0.961 . S
C775 H790 0.961 . S
C775 H791 0.961 . S
C776 C777 1.370 . S
C776 C778 1.363 . S
C776 H792 0.931 . S
C777 C776 1.370 . S
C777 C781 1.408 . S
C778 C776 1.363 . S
C778 C779 1.370 . S
C778 C782 1.524 . S
C779 C771 1.503 . S
C779 C778 1.370 . S
C779 C780 1.403 . S
C780 C779 1.403 . S
C780 C781 1.404 . S
C780 C783 1.539 . S
C781 C777 1.408 . S
C781 C780 1.404 . S
C781 H793 0.930 . S
C782 C778 1.524 . S
C782 H794 0.956 . S
C782 H795 0.961 . S
C782 H796 0.961 . S
C783 C780 1.539 . S
C783 H797 0.958 . S
C783 H798 0.961 . S
C783 H799 0.960 . S
H784 C768 0.931 . S
H785 C773 0.929 . S
H786 C774 0.960 . S
H787 C774 0.962 . S
H788 C774 0.960 . S
H789 C775 0.961 . S
H790 C775 0.961 . S
H791 C775 0.961 . S
H792 C776 0.931 . S
H793 C781 0.930 . S
H794 C782 0.956 . S
H795 C782 0.961 . S
H796 C782 0.961 . S
H797 C783 0.958 . S
H798 C783 0.961 . S
H799 C783 0.960 . S
C800 C801 1.391 . S
C800 C802 1.394 . S
C800 H816 0.931 . S
C801 C800 1.391 . S
C801 C805 1.376 . S
C802 C800 1.394 . S
C802 C803 1.369 . S
C802 C806 1.531 . S
C803 C802 1.369 . S
C803 C804 1.410 . S
C803 C811 1.503 . S
C804 C803 1.410 . S
C804 C805 1.392 . S
C804 C807 1.511 . S
C805 C801 1.376 . S
C805 C804 1.392 . S
C805 H817 0.929 . S
C806 C802 1.531 . S
C806 H818 0.960 . S
C806 H819 0.962 . S
C806 H820 0.960 . S
C807 C804 1.511 . S
C807 H821 0.961 . S
C807 H822 0.961 . S
C807 H823 0.961 . S
C808 C809 1.370 . S
C808 C810 1.363 . S
C808 H824 0.931 . S
C809 C808 1.370 . S
C809 C813 1.408 . S
C810 C808 1.363 . S
C810 C811 1.370 . S
C810 C814 1.524 . S
C811 C803 1.503 . S
C811 C810 1.370 . S
C811 C812 1.403 . S
C812 C811 1.403 . S
C812 C813 1.404 . S
C812 C815 1.539 . S
C813 C809 1.408 . S
C813 C812 1.404 . S
C813 H825 0.930 . S
C814 C810 1.524 . S
C814 H826 0.956 . S
C814 H827 0.961 . S
C814 H828 0.961 . S
C815 C812 1.539 . S
C815 H829 0.958 . S
C815 H830 0.961 . S
C815 H831 0.960 . S
H816 C800 0.931 . S
H817 C805 0.929 . S
H818 C806 0.960 . S
H819 C806 0.962 . S
H820 C806 0.960 . S
H821 C807 0.961 . S
H822 C807 0.961 . S
H823 C807 0.961 . S
H824 C808 0.931 . S
H825 C813 0.930 . S
H826 C814 0.956 . S
H827 C814 0.961 . S
H828 C814 0.961 . S
H829 C815 0.958 . S
H830 C815 0.961 . S
H831 C815 0.960 . S
C832 C833 1.391 . S
C832 C834 1.394 . S
C832 H848 0.931 . S
C833 C832 1.391 . S
C833 C837 1.376 . S
C834 C832 1.394 . S
C834 C835 1.369 . S
C834 C838 1.531 . S
C835 C834 1.369 . S
C835 C836 1.410 . S
C835 C843 1.503 . S
C836 C835 1.410 . S
C836 C837 1.392 . S
C836 C839 1.511 . S
C837 C833 1.376 . S
C837 C836 1.392 . S
C837 H849 0.929 . S
C838 C834 1.531 . S
C838 H850 0.960 . S
C838 H851 0.962 . S
C838 H852 0.960 . S
C839 C836 1.511 . S
C839 H853 0.961 . S
C839 H854 0.961 . S
C839 H855 0.961 . S
C840 C841 1.370 . S
C840 C842 1.363 . S
C840 H856 0.931 . S
C841 C840 1.370 . S
C841 C845 1.408 . S
C842 C840 1.363 . S
C842 C843 1.370 . S
C842 C846 1.524 . S
C843 C835 1.503 . S
C843 C842 1.370 . S
C843 C844 1.403 . S
C844 C843 1.403 . S
C844 C845 1.404 . S
C844 C847 1.539 . S
C845 C841 1.408 . S
C845 C844 1.404 . S
C845 H857 0.930 . S
C846 C842 1.524 . S
C846 H858 0.956 . S
C846 H859 0.961 . S
C846 H860 0.961 . S
C847 C844 1.539 . S
C847 H861 0.958 . S
C847 H862 0.961 . S
C847 H863 0.960 . S
H848 C832 0.931 . S
H849 C837 0.929 . S
H850 C838 0.960 . S
H851 C838 0.962 . S
H852 C838 0.960 . S
H853 C839 0.961 . S
H854 C839 0.961 . S
H855 C839 0.961 . S
H856 C840 0.931 . S
H857 C845 0.930 . S
H858 C846 0.956 . S
H859 C846 0.961 . S
H860 C846 0.961 . S
H861 C847 0.958 . S
H862 C847 0.961 . S
H863 C847 0.960 . S
C864 C865 1.391 . S
C864 C866 1.394 1_556 S
C864 H880 0.931 . S
C865 C864 1.391 . S
C865 C869 1.376 1_556 S
C866 C864 1.394 1_554 S
C866 C867 1.369 . S
C866 C870 1.531 . S
C867 C866 1.369 . S
C867 C868 1.410 . S
C867 C875 1.503 . S
C868 C867 1.410 . S
C868 C869 1.392 . S
C868 C871 1.511 . S
C869 C865 1.376 1_554 S
C869 C868 1.392 . S
C869 H881 0.929 . S
C870 C866 1.531 . S
C870 H882 0.960 . S
C870 H883 0.962 . S
C870 H884 0.960 . S
C871 C868 1.511 . S
C871 H885 0.961 . S
C871 H886 0.961 . S
C871 H887 0.961 . S
C872 C873 1.370 . S
C872 C874 1.363 . S
C872 H888 0.931 . S
C873 C872 1.370 . S
C873 C877 1.408 . S
C874 C872 1.363 . S
C874 C875 1.370 . S
C874 C878 1.524 . S
C875 C867 1.503 . S
C875 C874 1.370 . S
C875 C876 1.403 . S
C876 C875 1.403 . S
C876 C877 1.404 . S
C876 C879 1.539 . S
C877 C873 1.408 . S
C877 C876 1.404 . S
C877 H889 0.930 . S
C878 C874 1.524 . S
C878 H890 0.956 . S
C878 H891 0.961 . S
C878 H892 0.961 . S
C879 C876 1.539 . S
C879 H893 0.958 . S
C879 H894 0.961 . S
C879 H895 0.960 . S
H880 C864 0.931 . S
H881 C869 0.929 . S
H882 C870 0.960 . S
H883 C870 0.962 . S
H884 C870 0.960 . S
H885 C871 0.961 . S
H886 C871 0.961 . S
H887 C871 0.961 . S
H888 C872 0.931 . S
H889 C877 0.930 . S
H890 C878 0.956 . S
H891 C878 0.961 . S
H892 C878 0.961 . S
H893 C879 0.958 . S
H894 C879 0.961 . S
H895 C879 0.960 . S
C896 C897 1.391 1_455 S
C896 C898 1.394 . S
C896 H912 0.931 . S
C897 C896 1.391 1_655 S
C897 C901 1.376 . S
C898 C896 1.394 . S
C898 C899 1.369 1_455 S
C898 C902 1.531 . S
C899 C898 1.369 1_655 S
C899 C900 1.410 . S
C899 C907 1.503 . S
C900 C899 1.410 . S
C900 C901 1.392 . S
C900 C903 1.511 . S
C901 C897 1.376 . S
C901 C900 1.392 . S
C901 H913 0.929 . S
C902 C898 1.531 . S
C902 H914 0.960 . S
C902 H915 0.962 . S
C902 H916 0.960 . S
C903 C900 1.511 . S
C903 H917 0.961 . S
C903 H918 0.961 . S
C903 H919 0.961 . S
C904 C905 1.370 . S
C904 C906 1.363 . S
C904 H920 0.931 . S
C905 C904 1.370 . S
C905 C909 1.408 . S
C906 C904 1.363 . S
C906 C907 1.370 . S
C906 C910 1.524 . S
C907 C899 1.503 . S
C907 C906 1.370 . S
C907 C908 1.403 . S
C908 C907 1.403 . S
C908 C909 1.404 . S
C908 C911 1.539 . S
C909 C905 1.408 . S
C909 C908 1.404 . S
C909 H921 0.930 . S
C910 C906 1.524 . S
C910 H922 0.956 1_655 S
C910 H923 0.961 . S
C910 H924 0.963 . S
C911 C908 1.539 . S
C911 H925 0.958 . S
C911 H926 0.961 . S
C911 H927 0.960 . S
H912 C896 0.931 . S
H913 C901 0.929 . S
H914 C902 0.960 . S
H915 C902 0.962 . S
H916 C902 0.960 . S
H917 C903 0.961 . S
H918 C903 0.961 . S
H919 C903 0.961 . S
H920 C904 0.931 . S
H921 C909 0.930 . S
H922 C910 0.956 1_455 S
H923 C910 0.961 . S
H924 C910 0.963 . S
H925 C911 0.958 . S
H926 C911 0.961 . S
H927 C911 0.960 . S
C928 C929 1.391 1_545 S
C928 C930 1.394 1_556 S
C928 H944 0.931 . S
C929 C928 1.391 1_565 S
C929 C933 1.376 . S
C930 C928 1.394 1_554 S
C930 C931 1.369 1_545 S
C930 C934 1.531 . S
C931 C930 1.369 1_565 S
C931 C932 1.410 . S
C931 C939 1.503 . S
C932 C931 1.410 . S
C932 C933 1.392 1_554 S
C932 C935 1.511 . S
C933 C929 1.376 . S
C933 C932 1.392 1_556 S
C933 H945 0.929 . S
C934 C930 1.531 . S
C934 H946 0.960 . S
C934 H947 0.962 . S
C934 H948 0.960 . S
C935 C932 1.511 . S
C935 H949 0.961 . S
C935 H950 0.961 . S
C935 H951 0.961 . S
C936 C937 1.370 . S
C936 C938 1.363 . S
C936 H952 0.931 . S
C937 C936 1.370 . S
C937 C941 1.408 . S
C938 C936 1.363 . S
C938 C939 1.370 . S
C938 C942 1.524 . S
C939 C931 1.503 . S
C939 C938 1.370 . S
C939 C940 1.403 . S
C940 C939 1.403 . S
C940 C941 1.404 . S
C940 C943 1.539 . S
C941 C937 1.408 . S
C941 C940 1.404 . S
C941 H953 0.930 . S
C942 C938 1.524 . S
C942 H954 0.956 1_565 S
C942 H955 0.961 . S
C942 H956 0.961 . S
C943 C940 1.539 . S
C943 H957 0.958 1_565 S
C943 H958 0.961 . S
C943 H959 0.960 . S
H944 C928 0.931 . S
H945 C933 0.929 . S
H946 C934 0.960 . S
H947 C934 0.962 . S
H948 C934 0.960 . S
H949 C935 0.961 . S
H950 C935 0.961 . S
H951 C935 0.961 . S
H952 C936 0.931 . S
H953 C941 0.930 . S
H954 C942 0.956 1_545 S
H955 C942 0.961 . S
H956 C942 0.961 . S
H957 C943 0.958 1_545 S
H958 C943 0.961 . S
H959 C943 0.960 . S
C960 C961 1.391 . S
C960 C962 1.394 . S
C960 H976 0.931 . S
C961 C960 1.391 . S
C961 C965 1.376 . S
C962 C960 1.394 . S
C962 C963 1.369 . S
C962 C966 1.531 . S
C963 C962 1.369 . S
C963 C964 1.410 . S
C963 C971 1.503 . S
C964 C963 1.410 . S
C964 C965 1.392 . S
C964 C967 1.511 . S
C965 C961 1.376 . S
C965 C964 1.392 . S
C965 H977 0.929 . S
C966 C962 1.531 . S
C966 H978 0.960 . S
C966 H979 0.962 . S
C966 H980 0.960 . S
C967 C964 1.511 . S
C967 H981 0.961 . S
C967 H982 0.961 . S
C967 H983 0.961 . S
C968 C969 1.370 . S
C968 C970 1.363 . S
C968 H984 0.931 . S
C969 C968 1.370 . S
C969 C973 1.408 . S
C970 C968 1.363 . S
C970 C971 1.370 . S
C970 C974 1.524 . S
C971 C963 1.503 . S
C971 C970 1.370 . S
C971 C972 1.403 . S
C972 C971 1.403 . S
C972 C973 1.404 . S
C972 C975 1.539 . S
C973 C969 1.408 . S
C973 C972 1.404 . S
C973 H985 0.930 . S
C974 C970 1.524 . S
C974 H986 0.956 . S
C974 H987 0.961 . S
C974 H988 0.961 . S
C975 C972 1.539 . S
C975 H989 0.958 . S
C975 H990 0.961 . S
C975 H991 0.960 . S
H976 C960 0.931 . S
H977 C965 0.929 . S
H978 C966 0.960 . S
H979 C966 0.962 . S
H980 C966 0.960 . S
H981 C967 0.961 . S
H982 C967 0.961 . S
H983 C967 0.961 . S
H984 C968 0.931 . S
H985 C973 0.930 . S
H986 C974 0.956 . S
H987 C974 0.961 . S
H988 C974 0.961 . S
H989 C975 0.958 . S
H990 C975 0.961 . S
H991 C975 0.960 . S
C992 C993 1.391 . S
C992 C994 1.394 . S
C992 H1008 0.931 . S
C993 C992 1.391 . S
C993 C997 1.376 . S
C994 C992 1.394 . S
C994 C995 1.369 . S
C994 C998 1.531 . S
C995 C994 1.369 . S
C995 C996 1.410 . S
C995 C1003 1.503 . S
C996 C995 1.410 . S
C996 C997 1.392 . S
C996 C999 1.511 . S
C997 C993 1.376 . S
C997 C996 1.392 . S
C997 H1009 0.929 . S
C998 C994 1.531 . S
C998 H1010 0.960 . S
C998 H1011 0.962 . S
C998 H1012 0.960 . S
C999 C996 1.511 . S
C999 H1013 0.961 . S
C999 H1014 0.961 . S
C999 H1015 0.961 . S
C1000 C1001 1.370 . S
C1000 C1002 1.363 . S
C1000 H1016 0.931 . S
C1001 C1000 1.370 . S
C1001 C1005 1.408 . S
C1002 C1000 1.363 . S
C1002 C1003 1.370 . S
C1002 C1006 1.524 . S
C1003 C995 1.503 . S
C1003 C1002 1.370 . S
C1003 C1004 1.403 . S
C1004 C1003 1.403 . S
C1004 C1005 1.404 . S
C1004 C1007 1.539 . S
C1005 C1001 1.408 . S
C1005 C1004 1.404 . S
C1005 H1017 0.930 . S
C1006 C1002 1.524 . S
C1006 H1018 0.956 . S
C1006 H1019 0.961 . S
C1006 H1020 0.961 . S
C1007 C1004 1.539 . S
C1007 H1021 0.958 . S
C1007 H1022 0.961 . S
C1007 H1023 0.960 . S
H1008 C992 0.931 . S
H1009 C997 0.929 . S
H1010 C998 0.960 . S
H1011 C998 0.962 . S
H1012 C998 0.960 . S
H1013 C999 0.961 . S
H1014 C999 0.961 . S
H1015 C999 0.961 . S
H1016 C1000 0.931 . S
H1017 C1005 0.930 . S
H1018 C1006 0.956 . S
H1019 C1006 0.961 . S
H1020 C1006 0.961 . S
H1021 C1007 0.958 . S
H1022 C1007 0.961 . S
H1023 C1007 0.960 . S
C1024 C1025 1.391 . S
C1024 C1026 1.394 . S
C1024 H1040 0.931 . S
C1025 C1024 1.391 . S
C1025 C1029 1.376 1_455 S
C1026 C1024 1.394 . S
C1026 C1027 1.369 . S
C1026 C1030 1.531 . S
C1027 C1026 1.369 . S
C1027 C1028 1.410 1_455 S
C1027 C1035 1.503 . S
C1028 C1027 1.410 1_655 S
C1028 C1029 1.392 . S
C1028 C1031 1.511 . S
C1029 C1025 1.376 1_655 S
C1029 C1028 1.392 . S
C1029 H1041 0.929 . S
C1030 C1026 1.531 . S
C1030 H1042 0.960 . S
C1030 H1043 0.962 . S
C1030 H1044 0.960 . S
C1031 C1028 1.511 . S
C1031 H1045 0.961 . S
C1031 H1046 0.961 . S
C1031 H1047 0.961 . S
C1032 C1033 1.370 1_556 S
C1032 C1034 1.363 . S
C1032 H1048 0.929 1_556 S
C1033 C1032 1.370 1_554 S
C1033 C1037 1.408 1_455 S
C1034 C1032 1.363 . S
C1034 C1035 1.370 . S
C1034 C1038 1.524 . S
C1035 C1027 1.503 . S
C1035 C1034 1.370 . S
C1035 C1036 1.403 1_455 S
C1036 C1035 1.403 1_655 S
C1036 C1037 1.404 1_556 S
C1036 C1039 1.539 . S
C1037 C1033 1.408 1_655 S
C1037 C1036 1.404 1_554 S
C1037 H1049 0.930 . S
C1038 C1034 1.524 . S
C1038 H1050 0.956 . S
C1038 H1051 0.961 . S
C1038 H1052 0.961 . S
C1039 C1036 1.539 . S
C1039 H1053 0.958 . S
C1039 H1054 0.961 . S
C1039 H1055 0.960 . S
H1040 C1024 0.931 . S
H1041 C1029 0.929 . S
H1042 C1030 0.960 . S
H1043 C1030 0.962 . S
H1044 C1030 0.960 . S
H1045 C1031 0.961 . S
H1046 C1031 0.961 . S
H1047 C1031 0.961 . S
H1048 C1032 0.929 1_554 S
H1049 C1037 0.930 . S
H1050 C1038 0.956 . S
H1051 C1038 0.961 . S
H1052 C1038 0.961 . S
H1053 C1039 0.958 . S
H1054 C1039 0.961 . S
H1055 C1039 0.960 . S
C1056 C1057 1.391 1_565 S
C1056 C1058 1.394 . S
C1056 H1072 0.931 . S
C1057 C1056 1.391 1_545 S
C1057 C1061 1.376 . S
C1058 C1056 1.394 . S
C1058 C1059 1.369 1_565 S
C1058 C1062 1.531 . S
C1059 C1058 1.369 1_545 S
C1059 C1060 1.410 . S
C1059 C1067 1.503 . S
C1060 C1059 1.410 . S
C1060 C1061 1.392 . S
C1060 C1063 1.511 . S
C1061 C1057 1.376 . S
C1061 C1060 1.392 . S
C1061 H1073 0.929 . S
C1062 C1058 1.531 . S
C1062 H1074 0.960 . S
C1062 H1075 0.962 . S
C1062 H1076 0.960 . S
C1063 C1060 1.511 . S
C1063 H1077 0.961 . S
C1063 H1078 0.961 . S
C1063 H1079 0.961 . S
C1064 C1065 1.370 . S
C1064 C1066 1.363 . S
C1064 H1080 0.931 . S
C1065 C1064 1.370 . S
C1065 C1069 1.408 1_545 S
C1066 C1064 1.363 . S
C1066 C1067 1.370 . S
C1066 C1070 1.524 . S
C1067 C1059 1.503 . S
C1067 C1066 1.370 . S
C1067 C1068 1.403 1_545 S
C1068 C1067 1.403 1_565 S
C1068 C1069 1.404 . S
C1068 C1071 1.539 . S
C1069 C1065 1.408 1_565 S
C1069 C1068 1.404 . S
C1069 H1081 0.930 . S
C1070 C1066 1.524 . S
C1070 H1082 0.956 . S
C1070 H1083 0.961 . S
C1070 H1084 0.961 . S
C1071 C1068 1.539 . S
C1071 H1085 0.958 . S
C1071 H1086 0.961 . S
C1071 H1087 0.960 . S
H1072 C1056 0.931 . S
H1073 C1061 0.929 . S
H1074 C1062 0.960 . S
H1075 C1062 0.962 . S
H1076 C1062 0.960 . S
H1077 C1063 0.961 . S
H1078 C1063 0.961 . S
H1079 C1063 0.961 . S
H1080 C1064 0.931 . S
H1081 C1069 0.930 . S
H1082 C1070 0.956 . S
H1083 C1070 0.961 . S
H1084 C1070 0.961 . S
H1085 C1071 0.958 . S
H1086 C1071 0.961 . S
H1087 C1071 0.960 . S
C1088 C1089 1.391 1_556 S
C1088 C1090 1.394 . S
C1088 H1104 0.931 . S
C1089 C1088 1.391 1_554 S
C1089 C1093 1.376 . S
C1090 C1088 1.394 . S
C1090 C1091 1.369 . S
C1090 C1094 1.531 . S
C1091 C1090 1.369 . S
C1091 C1092 1.410 . S
C1091 C1099 1.503 . S
C1092 C1091 1.410 . S
C1092 C1093 1.392 1_556 S
C1092 C1095 1.511 . S
C1093 C1089 1.376 . S
C1093 C1092 1.392 1_554 S
C1093 H1105 0.929 . S
C1094 C1090 1.531 . S
C1094 H1106 0.960 . S
C1094 H1107 0.962 . S
C1094 H1108 0.960 . S
C1095 C1092 1.511 . S
C1095 H1109 0.961 . S
C1095 H1110 0.961 . S
C1095 H1111 0.961 . S
C1096 C1097 1.370 . S
C1096 C1098 1.363 . S
C1096 H1112 0.931 . S
C1097 C1096 1.370 . S
C1097 C1101 1.408 . S
C1098 C1096 1.363 . S
C1098 C1099 1.370 . S
C1098 C1102 1.524 . S
C1099 C1091 1.503 . S
C1099 C1098 1.370 . S
C1099 C1100 1.403 . S
C1100 C1099 1.403 . S
C1100 C1101 1.404 . S
C1100 C1103 1.539 . S
C1101 C1097 1.408 . S
C1101 C1100 1.404 . S
C1101 H1113 0.930 . S
C1102 C1098 1.524 . S
C1102 H1114 0.956 . S
C1102 H1115 0.961 . S
C1102 H1116 0.961 . S
C1103 C1100 1.539 . S
C1103 H1117 0.958 . S
C1103 H1118 0.961 . S
C1103 H1119 0.960 . S
H1104 C1088 0.931 . S
H1105 C1093 0.929 . S
H1106 C1094 0.960 . S
H1107 C1094 0.962 . S
H1108 C1094 0.960 . S
H1109 C1095 0.961 . S
H1110 C1095 0.961 . S
H1111 C1095 0.961 . S
H1112 C1096 0.931 . S
H1113 C1101 0.930 . S
H1114 C1102 0.956 . S
H1115 C1102 0.961 . S
H1116 C1102 0.961 . S
H1117 C1103 0.958 . S
H1118 C1103 0.961 . S
H1119 C1103 0.960 . S
C1120 C1121 1.391 . S
C1120 C1122 1.394 . S
C1120 H1136 0.931 . S
C1121 C1120 1.391 . S
C1121 C1125 1.376 . S
C1122 C1120 1.394 . S
C1122 C1123 1.369 . S
C1122 C1126 1.531 . S
C1123 C1122 1.369 . S
C1123 C1124 1.410 . S
C1123 C1131 1.503 . S
C1124 C1123 1.410 . S
C1124 C1125 1.392 . S
C1124 C1127 1.511 . S
C1125 C1121 1.376 . S
C1125 C1124 1.392 . S
C1125 H1137 0.929 . S
C1126 C1122 1.531 . S
C1126 H1138 0.960 . S
C1126 H1139 0.962 . S
C1126 H1140 0.960 . S
C1127 C1124 1.511 . S
C1127 H1141 0.961 . S
C1127 H1142 0.961 . S
C1127 H1143 0.961 . S
C1128 C1129 1.370 1_556 S
C1128 C1130 1.363 . S
C1128 H1144 0.931 . S
C1129 C1128 1.370 1_554 S
C1129 C1133 1.408 . S
C1130 C1128 1.363 . S
C1130 C1131 1.370 . S
C1130 C1134 1.524 . S
C1131 C1123 1.503 . S
C1131 C1130 1.370 . S
C1131 C1132 1.403 . S
C1132 C1131 1.403 . S
C1132 C1133 1.404 1_556 S
C1132 C1135 1.539 . S
C1133 C1129 1.408 . S
C1133 C1132 1.404 1_554 S
C1133 H1145 0.930 . S
C1134 C1130 1.524 . S
C1134 H1146 0.956 . S
C1134 H1147 0.961 . S
C1134 H1148 0.961 . S
C1135 C1132 1.539 . S
C1135 H1149 0.958 . S
C1135 H1150 0.961 . S
C1135 H1151 0.960 . S
H1136 C1120 0.931 . S
H1137 C1125 0.929 . S
H1138 C1126 0.960 . S
H1139 C1126 0.962 . S
H1140 C1126 0.960 . S
H1141 C1127 0.961 . S
H1142 C1127 0.961 . S
H1143 C1127 0.961 . S
H1144 C1128 0.931 . S
H1145 C1133 0.930 . S
H1146 C1134 0.956 . S
H1147 C1134 0.961 . S
H1148 C1134 0.961 . S
H1149 C1135 0.958 . S
H1150 C1135 0.961 . S
H1151 C1135 0.960 . S
C1152 C1153 1.391 . S
C1152 C1154 1.394 . S
C1152 H1168 0.931 . S
C1153 C1152 1.391 . S
C1153 C1157 1.376 . S
C1154 C1152 1.394 . S
C1154 C1155 1.369 . S
C1154 C1158 1.531 . S
C1155 C1154 1.369 . S
C1155 C1156 1.410 . S
C1155 C1163 1.503 . S
C1156 C1155 1.410 . S
C1156 C1157 1.392 . S
C1156 C1159 1.511 . S
C1157 C1153 1.376 . S
C1157 C1156 1.392 . S
C1157 H1169 0.929 . S
C1158 C1154 1.531 . S
C1158 H1170 0.960 1_455 S
C1158 H1171 0.962 . S
C1158 H1172 0.960 1_455 S
C1159 C1156 1.511 . S
C1159 H1173 0.961 . S
C1159 H1174 0.961 . S
C1159 H1175 0.961 1_455 S
C1160 C1161 1.370 . S
C1160 C1162 1.363 . S
C1160 H1176 0.931 . S
C1161 C1160 1.370 . S
C1161 C1165 1.408 1_455 S
C1162 C1160 1.363 . S
C1162 C1163 1.370 . S
C1162 C1166 1.524 . S
C1163 C1155 1.503 . S
C1163 C1162 1.370 . S
C1163 C1164 1.403 1_455 S
C1164 C1163 1.403 1_655 S
C1164 C1165 1.404 . S
C1164 C1167 1.539 . S
C1165 C1161 1.408 1_655 S
C1165 C1164 1.404 . S
C1165 H1177 0.930 . S
C1166 C1162 1.524 . S
C1166 H1178 0.956 . S
C1166 H1179 0.961 . S
C1166 H1180 0.961 . S
C1167 C1164 1.539 . S
C1167 H1181 0.958 . S
C1167 H1182 0.961 . S
C1167 H1183 0.960 . S
H1168 C1152 0.931 . S
H1169 C1157 0.929 . S
H1170 C1158 0.960 1_655 S
H1171 C1158 0.962 . S
H1172 C1158 0.960 1_655 S
H1173 C1159 0.961 . S
H1174 C1159 0.961 . S
H1175 C1159 0.961 1_655 S
H1176 C1160 0.931 . S
H1177 C1165 0.930 . S
H1178 C1166 0.956 . S
H1179 C1166 0.961 . S
H1180 C1166 0.961 . S
H1181 C1167 0.958 . S
H1182 C1167 0.961 . S
H1183 C1167 0.960 . S
C1184 C1185 1.391 1_565 S
C1184 C1186 1.394 1_554 S
C1184 H1200 0.931 . S
C1185 C1184 1.391 1_545 S
C1185 C1189 1.376 1_554 S
C1186 C1184 1.394 1_556 S
C1186 C1187 1.369 1_565 S
C1186 C1190 1.531 . S
C1187 C1186 1.369 1_545 S
C1187 C1188 1.410 . S
C1187 C1195 1.503 . S
C1188 C1187 1.410 . S
C1188 C1189 1.392 . S
C1188 C1191 1.511 . S
C1189 C1185 1.376 1_556 S
C1189 C1188 1.392 . S
C1189 H1201 0.929 . S
C1190 C1186 1.531 . S
C1190 H1202 0.960 . S
C1190 H1203 0.962 . S
C1190 H1204 0.960 . S
C1191 C1188 1.511 . S
C1191 H1205 0.961 . S
C1191 H1206 0.961 . S
C1191 H1207 0.961 . S
C1192 C1193 1.370 . S
C1192 C1194 1.363 . S
C1192 H1208 0.931 . S
C1193 C1192 1.370 . S
C1193 C1197 1.408 1_545 S
C1194 C1192 1.363 . S
C1194 C1195 1.370 . S
C1194 C1198 1.524 . S
C1195 C1187 1.503 . S
C1195 C1194 1.370 . S
C1195 C1196 1.403 1_545 S
C1196 C1195 1.403 1_565 S
C1196 C1197 1.404 . S
C1196 C1199 1.539 . S
C1197 C1193 1.408 1_565 S
C1197 C1196 1.404 . S
C1197 H1209 0.930 . S
C1198 C1194 1.524 . S
C1198 H1210 0.956 . S
C1198 H1211 0.961 . S
C1198 H1212 0.961 . S
C1199 C1196 1.539 . S
C1199 H1213 0.958 . S
C1199 H1214 0.961 . S
C1199 H1215 0.960 . S
H1200 C1184 0.931 . S
H1201 C1189 0.929 . S
H1202 C1190 0.960 . S
H1203 C1190 0.962 . S
H1204 C1190 0.960 . S
H1205 C1191 0.961 . S
H1206 C1191 0.961 . S
H1207 C1191 0.961 . S
H1208 C1192 0.931 . S
H1209 C1197 0.930 . S
H1210 C1198 0.956 . S
H1211 C1198 0.961 . S
H1212 C1198 0.961 . S
H1213 C1199 0.958 . S
H1214 C1199 0.961 . S
H1215 C1199 0.960 . S
C1216 C1217 1.391 . S
C1216 C1218 1.394 . S
C1216 H1232 0.931 . S
C1217 C1216 1.391 . S
C1217 C1221 1.376 . S
C1218 C1216 1.394 . S
C1218 C1219 1.369 . S
C1218 C1222 1.531 . S
C1219 C1218 1.369 . S
C1219 C1220 1.410 . S
C1219 C1227 1.503 . S
C1220 C1219 1.410 . S
C1220 C1221 1.392 . S
C1220 C1223 1.511 . S
C1221 C1217 1.376 . S
C1221 C1220 1.392 . S
C1221 H1233 0.929 . S
C1222 C1218 1.531 . S
C1222 H1234 0.960 . S
C1222 H1235 0.962 . S
C1222 H1236 0.960 . S
C1223 C1220 1.511 . S
C1223 H1237 0.961 . S
C1223 H1238 0.961 . S
C1223 H1239 0.961 . S
C1224 C1225 1.370 . S
C1224 C1226 1.363 . S
C1224 H1240 0.931 . S
C1225 C1224 1.370 . S
C1225 C1229 1.408 . S
C1226 C1224 1.363 . S
C1226 C1227 1.370 . S
C1226 C1230 1.524 . S
C1227 C1219 1.503 . S
C1227 C1226 1.370 . S
C1227 C1228 1.403 . S
C1228 C1227 1.403 . S
C1228 C1229 1.404 . S
C1228 C1231 1.539 . S
C1229 C1225 1.408 . S
C1229 C1228 1.404 . S
C1229 H1241 0.930 . S
C1230 C1226 1.524 . S
C1230 H1242 0.956 . S
C1230 H1243 0.961 . S
C1230 H1244 0.961 . S
C1231 C1228 1.539 . S
C1231 H1245 0.958 . S
C1231 H1246 0.961 . S
C1231 H1247 0.960 . S
H1232 C1216 0.931 . S
H1233 C1221 0.929 . S
H1234 C1222 0.960 . S
H1235 C1222 0.962 . S
H1236 C1222 0.960 . S
H1237 C1223 0.961 . S
H1238 C1223 0.961 . S
H1239 C1223 0.961 . S
H1240 C1224 0.931 . S
H1241 C1229 0.930 . S
H1242 C1230 0.956 . S
H1243 C1230 0.961 . S
H1244 C1230 0.961 . S
H1245 C1231 0.958 . S
H1246 C1231 0.961 . S
H1247 C1231 0.960 . S
C1248 C1249 1.391 . S
C1248 C1250 1.394 . S
C1248 H1264 0.931 . S
C1249 C1248 1.391 . S
C1249 C1253 1.376 . S
C1250 C1248 1.394 . S
C1250 C1251 1.369 . S
C1250 C1254 1.531 . S
C1251 C1250 1.369 . S
C1251 C1252 1.410 . S
C1251 C1259 1.503 . S
C1252 C1251 1.410 . S
C1252 C1253 1.392 . S
C1252 C1255 1.511 . S
C1253 C1249 1.376 . S
C1253 C1252 1.392 . S
C1253 H1265 0.929 . S
C1254 C1250 1.531 . S
C1254 H1266 0.960 . S
C1254 H1267 0.962 . S
C1254 H1268 0.960 . S
C1255 C1252 1.511 . S
C1255 H1269 0.961 . S
C1255 H1270 0.961 . S
C1255 H1271 0.961 . S
C1256 C1257 1.370 . S
C1256 C1258 1.363 . S
C1256 H1272 0.931 . S
C1257 C1256 1.370 . S
C1257 C1261 1.408 . S
C1258 C1256 1.363 . S
C1258 C1259 1.370 . S
C1258 C1262 1.524 . S
C1259 C1251 1.503 . S
C1259 C1258 1.370 . S
C1259 C1260 1.403 . S
C1260 C1259 1.403 . S
C1260 C1261 1.404 . S
C1260 C1263 1.539 . S
C1261 C1257 1.408 . S
C1261 C1260 1.404 . S
C1261 H1273 0.930 . S
C1262 C1258 1.524 . S
C1262 H1274 0.956 . S
C1262 H1275 0.961 . S
C1262 H1276 0.961 . S
C1263 C1260 1.539 . S
C1263 H1277 0.958 . S
C1263 H1278 0.961 . S
C1263 H1279 0.960 . S
H1264 C1248 0.931 . S
H1265 C1253 0.929 . S
H1266 C1254 0.960 . S
H1267 C1254 0.962 . S
H1268 C1254 0.960 . S
H1269 C1255 0.961 . S
H1270 C1255 0.961 . S
H1271 C1255 0.961 . S
H1272 C1256 0.931 . S
H1273 C1261 0.930 . S
H1274 C1262 0.956 . S
H1275 C1262 0.961 . S
H1276 C1262 0.961 . S
H1277 C1263 0.958 . S
H1278 C1263 0.961 . S
H1279 C1263 0.960 . S
C1280 C1281 1.391 . S
C1280 C1282 1.394 . S
C1280 H1296 0.931 . S
C1281 C1280 1.391 . S
C1281 C1285 1.376 . S
C1282 C1280 1.394 . S
C1282 C1283 1.369 . S
C1282 C1286 1.531 . S
C1283 C1282 1.369 . S
C1283 C1284 1.410 . S
C1283 C1291 1.503 . S
C1284 C1283 1.410 . S
C1284 C1285 1.392 . S
C1284 C1287 1.511 1_655 S
C1285 C1281 1.376 . S
C1285 C1284 1.392 . S
C1285 H1297 0.929 . S
C1286 C1282 1.531 . S
C1286 H1298 0.960 . S
C1286 H1299 0.962 . S
C1286 H1300 0.960 . S
C1287 C1284 1.511 1_455 S
C1287 H1301 0.961 1_455 S
C1287 H1302 0.961 1_455 S
C1287 H1303 0.961 . S
C1288 C1289 1.370 . S
C1288 C1290 1.363 1_556 S
C1288 H1304 0.931 . S
C1289 C1288 1.370 . S
C1289 C1293 1.408 1_655 S
C1290 C1288 1.363 1_554 S
C1290 C1291 1.370 . S
C1290 C1294 1.524 . S
C1291 C1283 1.503 . S
C1291 C1290 1.370 . S
C1291 C1292 1.403 1_655 S
C1292 C1291 1.403 1_455 S
C1292 C1293 1.404 1_554 S
C1292 C1295 1.539 . S
C1293 C1289 1.408 1_455 S
C1293 C1292 1.404 1_556 S
C1293 H1305 0.930 . S
C1294 C1290 1.524 . S
C1294 H1306 0.956 . S
C1294 H1307 0.961 . S
C1294 H1308 0.961 . S
C1295 C1292 1.539 . S
C1295 H1309 0.958 . S
C1295 H1310 0.961 . S
C1295 H1311 0.960 . S
H1296 C1280 0.931 . S
H1297 C1285 0.929 . S
H1298 C1286 0.960 . S
H1299 C1286 0.962 . S
H1300 C1286 0.960 . S
H1301 C1287 0.961 1_655 S
H1302 C1287 0.961 1_655 S
H1303 C1287 0.961 . S
H1304 C1288 0.931 . S
H1305 C1293 0.930 . S
H1306 C1294 0.956 . S
H1307 C1294 0.961 . S
H1308 C1294 0.961 . S
H1309 C1295 0.958 . S
H1310 C1295 0.961 . S
H1311 C1295 0.960 . S
C1312 C1313 1.391 . S
C1312 C1314 1.394 . S
C1312 H1328 0.931 . S
C1313 C1312 1.391 . S
C1313 C1317 1.376 . S
C1314 C1312 1.394 . S
C1314 C1315 1.369 . S
C1314 C1318 1.531 . S
C1315 C1314 1.369 . S
C1315 C1316 1.410 . S
C1315 C1323 1.503 . S
C1316 C1315 1.410 . S
C1316 C1317 1.392 . S
C1316 C1319 1.511 1_565 S
C1317 C1313 1.376 . S
C1317 C1316 1.392 . S
C1317 H1329 0.929 1_565 S
C1318 C1314 1.531 . S
C1318 H1330 0.960 . S
C1318 H1331 0.962 . S
C1318 H1332 0.960 . S
C1319 C1316 1.511 1_545 S
C1319 H1333 0.961 . S
C1319 H1334 0.961 . S
C1319 H1335 0.961 1_545 S
C1320 C1321 1.370 1_545 S
C1320 C1322 1.363 . S
C1320 H1336 0.931 . S
C1321 C1320 1.370 1_565 S
C1321 C1325 1.408 . S
C1322 C1320 1.363 . S
C1322 C1323 1.370 1_545 S
C1322 C1326 1.524 . S
C1323 C1315 1.503 . S
C1323 C1322 1.370 1_565 S
C1323 C1324 1.403 . S
C1324 C1323 1.403 . S
C1324 C1325 1.404 . S
C1324 C1327 1.539 . S
C1325 C1321 1.408 . S
C1325 C1324 1.404 . S
C1325 H1337 0.930 . S
C1326 C1322 1.524 . S
C1326 H1338 0.956 . S
C1326 H1339 0.961 . S
C1326 H1340 0.961 . S
C1327 C1324 1.539 . S
C1327 H1341 0.958 . S
C1327 H1342 0.961 . S
C1327 H1343 0.960 . S
H1328 C1312 0.931 . S
H1329 C1317 0.929 1_545 S
H1330 C1318 0.960 . S
H1331 C1318 0.962 . S
H1332 C1318 0.960 . S
H1333 C1319 0.961 . S
H1334 C1319 0.961 . S
H1335 C1319 0.961 1_565 S
H1336 C1320 0.931 . S
H1337 C1325 0.930 . S
H1338 C1326 0.956 . S
H1339 C1326 0.961 . S
H1340 C1326 0.961 . S
H1341 C1327 0.958 . S
H1342 C1327 0.961 . S
H1343 C1327 0.960 . S
C1344 C1345 1.391 1_554 S
C1344 C1346 1.394 . S
C1344 H1360 0.931 1_554 S
C1345 C1344 1.391 1_556 S
C1345 C1349 1.376 . S
C1346 C1344 1.394 . S
C1346 C1347 1.369 . S
C1346 C1350 1.531 . S
C1347 C1346 1.369 . S
C1347 C1348 1.410 . S
C1347 C1355 1.503 . S
C1348 C1347 1.410 . S
C1348 C1349 1.392 1_554 S
C1348 C1351 1.511 . S
C1349 C1345 1.376 . S
C1349 C1348 1.392 1_556 S
C1349 H1361 0.929 . S
C1350 C1346 1.531 . S
C1350 H1362 0.960 . S
C1350 H1363 0.962 . S
C1350 H1364 0.960 . S
C1351 C1348 1.511 . S
C1351 H1365 0.961 . S
C1351 H1366 0.961 . S
C1351 H1367 0.961 . S
C1352 C1353 1.370 . S
C1352 C1354 1.363 . S
C1352 H1368 0.931 . S
C1353 C1352 1.370 . S
C1353 C1357 1.408 . S
C1354 C1352 1.363 . S
C1354 C1355 1.370 . S
C1354 C1358 1.524 . S
C1355 C1347 1.503 . S
C1355 C1354 1.370 . S
C1355 C1356 1.403 . S
C1356 C1355 1.403 . S
C1356 C1357 1.404 . S
C1356 C1359 1.539 . S
C1357 C1353 1.408 . S
C1357 C1356 1.404 . S
C1357 H1369 0.930 . S
C1358 C1354 1.524 . S
C1358 H1370 0.956 . S
C1358 H1371 0.961 . S
C1358 H1372 0.961 . S
C1359 C1356 1.539 . S
C1359 H1373 0.958 . S
C1359 H1374 0.961 . S
C1359 H1375 0.960 . S
H1360 C1344 0.931 1_556 S
H1361 C1349 0.929 . S
H1362 C1350 0.960 . S
H1363 C1350 0.962 . S
H1364 C1350 0.960 . S
H1365 C1351 0.961 . S
H1366 C1351 0.961 . S
H1367 C1351 0.961 . S
H1368 C1352 0.931 . S
H1369 C1357 0.930 . S
H1370 C1358 0.956 . S
H1371 C1358 0.961 . S
H1372 C1358 0.961 . S
H1373 C1359 0.958 . S
H1374 C1359 0.961 . S
H1375 C1359 0.960 . S
C1376 C1377 1.391 . S
C1376 C1378 1.394 . S
C1376 H1392 0.931 . S
C1377 C1376 1.391 . S
C1377 C1381 1.376 . S
C1378 C1376 1.394 . S
C1378 C1379 1.369 . S
C1378 C1382 1.531 . S
C1379 C1378 1.369 . S
C1379 C1380 1.410 . S
C1379 C1387 1.503 . S
C1380 C1379 1.410 . S
C1380 C1381 1.392 . S
C1380 C1383 1.511 . S
C1381 C1377 1.376 . S
C1381 C1380 1.392 . S
C1381 H1393 0.929 . S
C1382 C1378 1.531 . S
C1382 H1394 0.960 . S
C1382 H1395 0.962 . S
C1382 H1396 0.960 . S
C1383 C1380 1.511 . S
C1383 H1397 0.961 . S
C1383 H1398 0.961 . S
C1383 H1399 0.961 . S
C1384 C1385 1.370 . S
C1384 C1386 1.363 . S
C1384 H1400 0.931 . S
C1385 C1384 1.370 . S
C1385 C1389 1.408 . S
C1386 C1384 1.363 . S
C1386 C1387 1.370 . S
C1386 C1390 1.524 . S
C1387 C1379 1.503 . S
C1387 C1386 1.370 . S
C1387 C1388 1.403 . S
C1388 C1387 1.403 . S
C1388 C1389 1.404 . S
C1388 C1391 1.539 . S
C1389 C1385 1.408 . S
C1389 C1388 1.404 . S
C1389 H1401 0.930 . S
C1390 C1386 1.524 . S
C1390 H1402 0.956 . S
C1390 H1403 0.961 . S
C1390 H1404 0.961 . S
C1391 C1388 1.539 . S
C1391 H1405 0.958 . S
C1391 H1406 0.961 . S
C1391 H1407 0.960 . S
H1392 C1376 0.931 . S
H1393 C1381 0.929 . S
H1394 C1382 0.960 . S
H1395 C1382 0.962 . S
H1396 C1382 0.960 . S
H1397 C1383 0.961 . S
H1398 C1383 0.961 . S
H1399 C1383 0.961 . S
H1400 C1384 0.931 . S
H1401 C1389 0.930 . S
H1402 C1390 0.956 . S
H1403 C1390 0.961 . S
H1404 C1390 0.961 . S
H1405 C1391 0.958 . S
H1406 C1391 0.961 . S
H1407 C1391 0.960 . S
C1408 C1409 1.391 . S
C1408 C1410 1.394 . S
C1408 H1424 0.931 . S
C1409 C1408 1.391 . S
C1409 C1413 1.376 . S
C1410 C1408 1.394 . S
C1410 C1411 1.369 . S
C1410 C1414 1.531 . S
C1411 C1410 1.369 . S
C1411 C1412 1.410 . S
C1411 C1419 1.503 . S
C1412 C1411 1.410 . S
C1412 C1413 1.392 . S
C1412 C1415 1.511 . S
C1413 C1409 1.376 . S
C1413 C1412 1.392 . S
C1413 H1425 0.929 . S
C1414 C1410 1.531 . S
C1414 H1426 0.960 . S
C1414 H1427 0.962 . S
C1414 H1428 0.960 . S
C1415 C1412 1.511 . S
C1415 H1429 0.961 . S
C1415 H1430 0.961 . S
C1415 H1431 0.961 . S
C1416 C1417 1.370 . S
C1416 C1418 1.363 . S
C1416 H1432 0.931 . S
C1417 C1416 1.370 . S
C1417 C1421 1.408 . S
C1418 C1416 1.363 . S
C1418 C1419 1.370 . S
C1418 C1422 1.524 . S
C1419 C1411 1.503 . S
C1419 C1418 1.370 . S
C1419 C1420 1.403 . S
C1420 C1419 1.403 . S
C1420 C1421 1.404 . S
C1420 C1423 1.539 . S
C1421 C1417 1.408 . S
C1421 C1420 1.404 . S
C1421 H1433 0.930 . S
C1422 C1418 1.524 . S
C1422 H1434 0.956 . S
C1422 H1435 0.961 . S
C1422 H1436 0.961 . S
C1423 C1420 1.539 . S
C1423 H1437 0.958 . S
C1423 H1438 0.961 . S
C1423 H1439 0.960 . S
H1424 C1408 0.931 . S
H1425 C1413 0.929 . S
H1426 C1414 0.960 . S
H1427 C1414 0.962 . S
H1428 C1414 0.960 . S
H1429 C1415 0.961 . S
H1430 C1415 0.961 . S
H1431 C1415 0.961 . S
H1432 C1416 0.931 . S
H1433 C1421 0.930 . S
H1434 C1422 0.956 . S
H1435 C1422 0.961 . S
H1436 C1422 0.961 . S
H1437 C1423 0.958 . S
H1438 C1423 0.961 . S
H1439 C1423 0.960 . S
C1440 C1441 1.391 . S
C1440 C1442 1.394 . S
C1440 H1456 0.931 . S
C1441 C1440 1.391 . S
C1441 C1445 1.376 . S
C1442 C1440 1.394 . S
C1442 C1443 1.369 . S
C1442 C1446 1.531 . S
C1443 C1442 1.369 . S
C1443 C1444 1.410 . S
C1443 C1451 1.503 . S
C1444 C1443 1.410 . S
C1444 C1445 1.392 . S
C1444 C1447 1.511 . S
C1445 C1441 1.376 . S
C1445 C1444 1.392 . S
C1445 H1457 0.929 . S
C1446 C1442 1.531 . S
C1446 H1458 0.960 . S
C1446 H1459 0.962 . S
C1446 H1460 0.960 . S
C1447 C1444 1.511 . S
C1447 H1461 0.961 . S
C1447 H1462 0.961 . S
C1447 H1463 0.961 . S
C1448 C1449 1.370 . S
C1448 C1450 1.363 . S
C1448 H1464 0.931 . S
C1449 C1448 1.370 . S
C1449 C1453 1.408 . S
C1450 C1448 1.363 . S
C1450 C1451 1.370 . S
C1450 C1454 1.524 . S
C1451 C1443 1.503 . S
C1451 C1450 1.370 . S
C1451 C1452 1.403 . S
C1452 C1451 1.403 . S
C1452 C1453 1.404 . S
C1452 C1455 1.539 . S
C1453 C1449 1.408 . S
C1453 C1452 1.404 . S
C1453 H1465 0.930 . S
C1454 C1450 1.524 . S
C1454 H1466 0.956 . S
C1454 H1467 0.961 . S
C1454 H1468 0.961 . S
C1455 C1452 1.539 . S
C1455 H1469 0.958 . S
C1455 H1470 0.961 . S
C1455 H1471 0.960 . S
H1456 C1440 0.931 . S
H1457 C1445 0.929 . S
H1458 C1446 0.960 . S
H1459 C1446 0.962 . S
H1460 C1446 0.960 . S
H1461 C1447 0.961 . S
H1462 C1447 0.961 . S
H1463 C1447 0.961 . S
H1464 C1448 0.931 . S
H1465 C1453 0.930 . S
H1466 C1454 0.956 . S
H1467 C1454 0.961 . S
H1468 C1454 0.961 . S
H1469 C1455 0.958 . S
H1470 C1455 0.961 . S
H1471 C1455 0.960 . S
C1472 C1473 1.391 . S
C1472 C1474 1.394 . S
C1472 H1488 0.931 . S
C1473 C1472 1.391 . S
C1473 C1477 1.376 . S
C1474 C1472 1.394 . S
C1474 C1475 1.369 . S
C1474 C1478 1.531 . S
C1475 C1474 1.369 . S
C1475 C1476 1.410 . S
C1475 C1483 1.503 . S
C1476 C1475 1.410 . S
C1476 C1477 1.392 . S
C1476 C1479 1.511 . S
C1477 C1473 1.376 . S
C1477 C1476 1.392 . S
C1477 H1489 0.929 . S
C1478 C1474 1.531 . S
C1478 H1490 0.960 . S
C1478 H1491 0.962 . S
C1478 H1492 0.960 . S
C1479 C1476 1.511 . S
C1479 H1493 0.961 . S
C1479 H1494 0.961 . S
C1479 H1495 0.961 . S
C1480 C1481 1.370 . S
C1480 C1482 1.363 . S
C1480 H1496 0.931 . S
C1481 C1480 1.370 . S
C1481 C1485 1.408 . S
C1482 C1480 1.363 . S
C1482 C1483 1.370 . S
C1482 C1486 1.524 . S
C1483 C1475 1.503 . S
C1483 C1482 1.370 . S
C1483 C1484 1.403 . S
C1484 C1483 1.403 . S
C1484 C1485 1.404 . S
C1484 C1487 1.539 . S
C1485 C1481 1.408 . S
C1485 C1484 1.404 . S
C1485 H1497 0.930 . S
C1486 C1482 1.524 . S
C1486 H1498 0.956 . S
C1486 H1499 0.961 . S
C1486 H1500 0.961 . S
C1487 C1484 1.539 . S
C1487 H1501 0.958 . S
C1487 H1502 0.961 . S
C1487 H1503 0.960 . S
H1488 C1472 0.931 . S
H1489 C1477 0.929 . S
H1490 C1478 0.960 . S
H1491 C1478 0.962 . S
H1492 C1478 0.960 . S
H1493 C1479 0.961 . S
H1494 C1479 0.961 . S
H1495 C1479 0.961 . S
H1496 C1480 0.931 . S
H1497 C1485 0.930 . S
H1498 C1486 0.956 . S
H1499 C1486 0.961 . S
H1500 C1486 0.961 . S
H1501 C1487 0.958 . S
H1502 C1487 0.961 . S
H1503 C1487 0.960 . S
C1504 C1505 1.391 . S
C1504 C1506 1.394 . S
C1504 H1520 0.931 . S
C1505 C1504 1.391 . S
C1505 C1509 1.376 . S
C1506 C1504 1.394 . S
C1506 C1507 1.369 . S
C1506 C1510 1.531 . S
C1507 C1506 1.369 . S
C1507 C1508 1.410 . S
C1507 C1515 1.503 . S
C1508 C1507 1.410 . S
C1508 C1509 1.392 . S
C1508 C1511 1.511 . S
C1509 C1505 1.376 . S
C1509 C1508 1.392 . S
C1509 H1521 0.929 . S
C1510 C1506 1.531 . S
C1510 H1522 0.960 . S
C1510 H1523 0.962 . S
C1510 H1524 0.960 . S
C1511 C1508 1.511 . S
C1511 H1525 0.961 . S
C1511 H1526 0.961 . S
C1511 H1527 0.961 . S
C1512 C1513 1.370 . S
C1512 C1514 1.363 . S
C1512 H1528 0.931 . S
C1513 C1512 1.370 . S
C1513 C1517 1.408 . S
C1514 C1512 1.363 . S
C1514 C1515 1.370 . S
C1514 C1518 1.524 . S
C1515 C1507 1.503 . S
C1515 C1514 1.370 . S
C1515 C1516 1.403 . S
C1516 C1515 1.403 . S
C1516 C1517 1.404 . S
C1516 C1519 1.539 . S
C1517 C1513 1.408 . S
C1517 C1516 1.404 . S
C1517 H1529 0.930 . S
C1518 C1514 1.524 . S
C1518 H1530 0.956 . S
C1518 H1531 0.961 . S
C1518 H1532 0.961 . S
C1519 C1516 1.539 . S
C1519 H1533 0.958 . S
C1519 H1534 0.961 . S
C1519 H1535 0.960 . S
H1520 C1504 0.931 . S
H1521 C1509 0.929 . S
H1522 C1510 0.960 . S
H1523 C1510 0.962 . S
H1524 C1510 0.960 . S
H1525 C1511 0.961 . S
H1526 C1511 0.961 . S
H1527 C1511 0.961 . S
H1528 C1512 0.931 . S
H1529 C1517 0.930 . S
H1530 C1518 0.956 . S
H1531 C1518 0.961 . S
H1532 C1518 0.961 . S
H1533 C1519 0.958 . S
H1534 C1519 0.961 . S
H1535 C1519 0.960 . S
C1536 C1537 1.391 . S
C1536 C1538 1.394 . S
C1536 H1552 0.931 . S
C1537 C1536 1.391 . S
C1537 C1541 1.376 . S
C1538 C1536 1.394 . S
C1538 C1539 1.369 . S
C1538 C1542 1.531 . S
C1539 C1538 1.369 . S
C1539 C1540 1.410 . S
C1539 C1547 1.503 . S
C1540 C1539 1.410 . S
C1540 C1541 1.392 . S
C1540 C1543 1.511 . S
C1541 C1537 1.376 . S
C1541 C1540 1.392 . S
C1541 H1553 0.929 . S
C1542 C1538 1.531 . S
C1542 H1554 0.960 . S
C1542 H1555 0.962 . S
C1542 H1556 0.960 . S
C1543 C1540 1.511 . S
C1543 H1557 0.961 . S
C1543 H1558 0.961 . S
C1543 H1559 0.961 . S
C1544 C1545 1.370 . S
C1544 C1546 1.363 . S
C1544 H1560 0.931 . S
C1545 C1544 1.370 . S
C1545 C1549 1.408 . S
C1546 C1544 1.363 . S
C1546 C1547 1.370 . S
C1546 C1550 1.524 . S
C1547 C1539 1.503 . S
C1547 C1546 1.370 . S
C1547 C1548 1.403 . S
C1548 C1547 1.403 . S
C1548 C1549 1.404 . S
C1548 C1551 1.539 . S
C1549 C1545 1.408 . S
C1549 C1548 1.404 . S
C1549 H1561 0.930 . S
C1550 C1546 1.524 . S
C1550 H1562 0.956 . S
C1550 H1563 0.961 . S
C1550 H1564 0.961 . S
C1551 C1548 1.539 . S
C1551 H1565 0.958 . S
C1551 H1566 0.961 . S
C1551 H1567 0.960 . S
H1552 C1536 0.931 . S
H1553 C1541 0.929 . S
H1554 C1542 0.960 . S
H1555 C1542 0.962 . S
H1556 C1542 0.960 . S
H1557 C1543 0.961 . S
H1558 C1543 0.961 . S
H1559 C1543 0.961 . S
H1560 C1544 0.931 . S
H1561 C1549 0.930 . S
H1562 C1550 0.956 . S
H1563 C1550 0.961 . S
H1564 C1550 0.961 . S
H1565 C1551 0.958 . S
H1566 C1551 0.961 . S
H1567 C1551 0.960 . S
C1568 C1569 1.391 . S
C1568 C1570 1.394 . S
C1568 H1584 0.931 . S
C1569 C1568 1.391 . S
C1569 C1573 1.376 . S
C1570 C1568 1.394 . S
C1570 C1571 1.369 . S
C1570 C1574 1.531 . S
C1571 C1570 1.369 . S
C1571 C1572 1.410 . S
C1571 C1579 1.503 . S
C1572 C1571 1.410 . S
C1572 C1573 1.392 . S
C1572 C1575 1.511 . S
C1573 C1569 1.376 . S
C1573 C1572 1.392 . S
C1573 H1585 0.929 . S
C1574 C1570 1.531 . S
C1574 H1586 0.960 . S
C1574 H1587 0.962 . S
C1574 H1588 0.960 . S
C1575 C1572 1.511 . S
C1575 H1589 0.961 . S
C1575 H1590 0.961 . S
C1575 H1591 0.961 . S
C1576 C1577 1.370 . S
C1576 C1578 1.363 . S
C1576 H1592 0.931 . S
C1577 C1576 1.370 . S
C1577 C1581 1.408 . S
C1578 C1576 1.363 . S
C1578 C1579 1.370 . S
C1578 C1582 1.524 . S
C1579 C1571 1.503 . S
C1579 C1578 1.370 . S
C1579 C1580 1.403 . S
C1580 C1579 1.403 . S
C1580 C1581 1.404 . S
C1580 C1583 1.539 . S
C1581 C1577 1.408 . S
C1581 C1580 1.404 . S
C1581 H1593 0.930 . S
C1582 C1578 1.524 . S
C1582 H1594 0.956 . S
C1582 H1595 0.961 . S
C1582 H1596 0.961 . S
C1583 C1580 1.539 . S
C1583 H1597 0.958 . S
C1583 H1598 0.961 . S
C1583 H1599 0.960 . S
H1584 C1568 0.931 . S
H1585 C1573 0.929 . S
H1586 C1574 0.960 . S
H1587 C1574 0.962 . S
H1588 C1574 0.960 . S
H1589 C1575 0.961 . S
H1590 C1575 0.961 . S
H1591 C1575 0.961 . S
H1592 C1576 0.931 . S
H1593 C1581 0.930 . S
H1594 C1582 0.956 . S
H1595 C1582 0.961 . S
H1596 C1582 0.961 . S
H1597 C1583 0.958 . S
H1598 C1583 0.961 . S
H1599 C1583 0.960 . S
C1600 C1601 1.391 . S
C1600 C1602 1.394 . S
C1600 H1616 0.931 . S
C1601 C1600 1.391 . S
C1601 C1605 1.376 . S
C1602 C1600 1.394 . S
C1602 C1603 1.369 . S
C1602 C1606 1.531 . S
C1603 C1602 1.369 . S
C1603 C1604 1.410 . S
C1603 C1611 1.503 . S
C1604 C1603 1.410 . S
C1604 C1605 1.392 . S
C1604 C1607 1.511 . S
C1605 C1601 1.376 . S
C1605 C1604 1.392 . S
C1605 H1617 0.929 . S
C1606 C1602 1.531 . S
C1606 H1618 0.960 . S
C1606 H1619 0.962 . S
C1606 H1620 0.960 . S
C1607 C1604 1.511 . S
C1607 H1621 0.961 . S
C1607 H1622 0.961 . S
C1607 H1623 0.961 . S
C1608 C1609 1.370 . S
C1608 C1610 1.363 . S
C1608 H1624 0.931 . S
C1609 C1608 1.370 . S
C1609 C1613 1.408 . S
C1610 C1608 1.363 . S
C1610 C1611 1.370 . S
C1610 C1614 1.524 . S
C1611 C1603 1.503 . S
C1611 C1610 1.370 . S
C1611 C1612 1.403 . S
C1612 C1611 1.403 . S
C1612 C1613 1.404 . S
C1612 C1615 1.539 . S
C1613 C1609 1.408 . S
C1613 C1612 1.404 . S
C1613 H1625 0.930 . S
C1614 C1610 1.524 . S
C1614 H1626 0.956 . S
C1614 H1627 0.961 . S
C1614 H1628 0.961 . S
C1615 C1612 1.539 . S
C1615 H1629 0.958 . S
C1615 H1630 0.961 . S
C1615 H1631 0.960 . S
H1616 C1600 0.931 . S
H1617 C1605 0.929 . S
H1618 C1606 0.960 . S
H1619 C1606 0.962 . S
H1620 C1606 0.960 . S
H1621 C1607 0.961 . S
H1622 C1607 0.961 . S
H1623 C1607 0.961 . S
H1624 C1608 0.931 . S
H1625 C1613 0.930 . S
H1626 C1614 0.956 . S
H1627 C1614 0.961 . S
H1628 C1614 0.961 . S
H1629 C1615 0.958 . S
H1630 C1615 0.961 . S
H1631 C1615 0.960 . S
C1632 C1633 1.391 . S
C1632 C1634 1.394 . S
C1632 H1648 0.931 . S
C1633 C1632 1.391 . S
C1633 C1637 1.376 . S
C1634 C1632 1.394 . S
C1634 C1635 1.369 . S
C1634 C1638 1.531 . S
C1635 C1634 1.369 . S
C1635 C1636 1.410 . S
C1635 C1643 1.503 . S
C1636 C1635 1.410 . S
C1636 C1637 1.392 . S
C1636 C1639 1.511 . S
C1637 C1633 1.376 . S
C1637 C1636 1.392 . S
C1637 H1649 0.929 . S
C1638 C1634 1.531 . S
C1638 H1650 0.960 . S
C1638 H1651 0.962 . S
C1638 H1652 0.960 . S
C1639 C1636 1.511 . S
C1639 H1653 0.961 . S
C1639 H1654 0.961 . S
C1639 H1655 0.961 . S
C1640 C1641 1.370 . S
C1640 C1642 1.363 . S
C1640 H1656 0.931 . S
C1641 C1640 1.370 . S
C1641 C1645 1.408 . S
C1642 C1640 1.363 . S
C1642 C1643 1.370 . S
C1642 C1646 1.524 . S
C1643 C1635 1.503 . S
C1643 C1642 1.370 . S
C1643 C1644 1.403 . S
C1644 C1643 1.403 . S
C1644 C1645 1.404 . S
C1644 C1647 1.539 . S
C1645 C1641 1.408 . S
C1645 C1644 1.404 . S
C1645 H1657 0.930 . S
C1646 C1642 1.524 . S
C1646 H1658 0.956 . S
C1646 H1659 0.961 . S
C1646 H1660 0.961 . S
C1647 C1644 1.539 . S
C1647 H1661 0.958 . S
C1647 H1662 0.961 . S
C1647 H1663 0.960 . S
H1648 C1632 0.931 . S
H1649 C1637 0.929 . S
H1650 C1638 0.960 . S
H1651 C1638 0.962 . S
H1652 C1638 0.960 . S
H1653 C1639 0.961 . S
H1654 C1639 0.961 . S
H1655 C1639 0.961 . S
H1656 C1640 0.931 . S
H1657 C1645 0.930 . S
H1658 C1646 0.956 . S
H1659 C1646 0.961 . S
H1660 C1646 0.961 . S
H1661 C1647 0.958 . S
H1662 C1647 0.961 . S
H1663 C1647 0.960 . S
C1664 C1665 1.391 . S
C1664 C1666 1.394 . S
C1664 H1680 0.931 . S
C1665 C1664 1.391 . S
C1665 C1669 1.376 . S
C1666 C1664 1.394 . S
C1666 C1667 1.369 . S
C1666 C1670 1.531 . S
C1667 C1666 1.369 . S
C1667 C1668 1.410 . S
C1667 C1675 1.503 . S
C1668 C1667 1.410 . S
C1668 C1669 1.392 . S
C1668 C1671 1.511 . S
C1669 C1665 1.376 . S
C1669 C1668 1.392 . S
C1669 H1681 0.929 . S
C1670 C1666 1.531 . S
C1670 H1682 0.960 . S
C1670 H1683 0.962 . S
C1670 H1684 0.960 . S
C1671 C1668 1.511 . S
C1671 H1685 0.961 . S
C1671 H1686 0.961 . S
C1671 H1687 0.961 . S
C1672 C1673 1.370 . S
C1672 C1674 1.363 . S
C1672 H1688 0.931 . S
C1673 C1672 1.370 . S
C1673 C1677 1.408 . S
C1674 C1672 1.363 . S
C1674 C1675 1.370 . S
C1674 C1678 1.524 . S
C1675 C1667 1.503 . S
C1675 C1674 1.370 . S
C1675 C1676 1.403 . S
C1676 C1675 1.403 . S
C1676 C1677 1.404 . S
C1676 C1679 1.539 . S
C1677 C1673 1.408 . S
C1677 C1676 1.404 . S
C1677 H1689 0.930 . S
C1678 C1674 1.524 . S
C1678 H1690 0.956 . S
C1678 H1691 0.961 . S
C1678 H1692 0.961 . S
C1679 C1676 1.539 . S
C1679 H1693 0.958 . S
C1679 H1694 0.961 . S
C1679 H1695 0.960 . S
H1680 C1664 0.931 . S
H1681 C1669 0.929 . S
H1682 C1670 0.960 . S
H1683 C1670 0.962 . S
H1684 C1670 0.960 . S
H1685 C1671 0.961 . S
H1686 C1671 0.961 . S
H1687 C1671 0.961 . S
H1688 C1672 0.931 . S
H1689 C1677 0.930 . S
H1690 C1678 0.956 . S
H1691 C1678 0.961 . S
H1692 C1678 0.961 . S
H1693 C1679 0.958 . S
H1694 C1679 0.961 . S
H1695 C1679 0.960 . S
C1696 C1697 1.391 . S
C1696 C1698 1.394 . S
C1696 H1712 0.931 . S
C1697 C1696 1.391 . S
C1697 C1701 1.376 . S
C1698 C1696 1.394 . S
C1698 C1699 1.369 . S
C1698 C1702 1.531 . S
C1699 C1698 1.369 . S
C1699 C1700 1.410 . S
C1699 C1707 1.503 . S
C1700 C1699 1.410 . S
C1700 C1701 1.392 . S
C1700 C1703 1.511 . S
C1701 C1697 1.376 . S
C1701 C1700 1.392 . S
C1701 H1713 0.929 . S
C1702 C1698 1.531 . S
C1702 H1714 0.960 . S
C1702 H1715 0.962 . S
C1702 H1716 0.960 . S
C1703 C1700 1.511 . S
C1703 H1717 0.961 . S
C1703 H1718 0.961 . S
C1703 H1719 0.961 . S
C1704 C1705 1.370 . S
C1704 C1706 1.363 . S
C1704 H1720 0.931 . S
C1705 C1704 1.370 . S
C1705 C1709 1.408 . S
C1706 C1704 1.363 . S
C1706 C1707 1.370 . S
C1706 C1710 1.524 . S
C1707 C1699 1.503 . S
C1707 C1706 1.370 . S
C1707 C1708 1.403 . S
C1708 C1707 1.403 . S
C1708 C1709 1.404 . S
C1708 C1711 1.539 . S
C1709 C1705 1.408 . S
C1709 C1708 1.404 . S
C1709 H1721 0.930 . S
C1710 C1706 1.524 . S
C1710 H1722 0.956 . S
C1710 H1723 0.961 . S
C1710 H1724 0.961 . S
C1711 C1708 1.539 . S
C1711 H1725 0.958 . S
C1711 H1726 0.961 . S
C1711 H1727 0.960 . S
H1712 C1696 0.931 . S
H1713 C1701 0.929 . S
H1714 C1702 0.960 . S
H1715 C1702 0.962 . S
H1716 C1702 0.960 . S
H1717 C1703 0.961 . S
H1718 C1703 0.961 . S
H1719 C1703 0.961 . S
H1720 C1704 0.931 . S
H1721 C1709 0.930 . S
H1722 C1710 0.956 . S
H1723 C1710 0.961 . S
H1724 C1710 0.961 . S
H1725 C1711 0.958 . S
H1726 C1711 0.961 . S
H1727 C1711 0.960 . S
C1728 C1729 1.391 . S
C1728 C1730 1.394 . S
C1728 H1744 0.931 . S
C1729 C1728 1.391 . S
C1729 C1733 1.376 . S
C1730 C1728 1.394 . S
C1730 C1731 1.369 . S
C1730 C1734 1.531 . S
C1731 C1730 1.369 . S
C1731 C1732 1.410 . S
C1731 C1739 1.503 . S
C1732 C1731 1.410 . S
C1732 C1733 1.392 . S
C1732 C1735 1.511 . S
C1733 C1729 1.376 . S
C1733 C1732 1.392 . S
C1733 H1745 0.929 . S
C1734 C1730 1.531 . S
C1734 H1746 0.960 . S
C1734 H1747 0.962 . S
C1734 H1748 0.960 . S
C1735 C1732 1.511 . S
C1735 H1749 0.961 . S
C1735 H1750 0.961 . S
C1735 H1751 0.961 . S
C1736 C1737 1.370 . S
C1736 C1738 1.363 . S
C1736 H1752 0.931 . S
C1737 C1736 1.370 . S
C1737 C1741 1.408 . S
C1738 C1736 1.363 . S
C1738 C1739 1.370 . S
C1738 C1742 1.524 . S
C1739 C1731 1.503 . S
C1739 C1738 1.370 . S
C1739 C1740 1.403 . S
C1740 C1739 1.403 . S
C1740 C1741 1.404 . S
C1740 C1743 1.539 . S
C1741 C1737 1.408 . S
C1741 C1740 1.404 . S
C1741 H1753 0.930 . S
C1742 C1738 1.524 . S
C1742 H1754 0.956 . S
C1742 H1755 0.961 . S
C1742 H1756 0.961 . S
C1743 C1740 1.539 . S
C1743 H1757 0.958 . S
C1743 H1758 0.961 . S
C1743 H1759 0.960 . S
H1744 C1728 0.931 . S
H1745 C1733 0.929 . S
H1746 C1734 0.960 . S
H1747 C1734 0.962 . S
H1748 C1734 0.960 . S
H1749 C1735 0.961 . S
H1750 C1735 0.961 . S
H1751 C1735 0.961 . S
H1752 C1736 0.931 . S
H1753 C1741 0.930 . S
H1754 C1742 0.956 . S
H1755 C1742 0.961 . S
H1756 C1742 0.961 . S
H1757 C1743 0.958 . S
H1758 C1743 0.961 . S
H1759 C1743 0.960 . S
C1760 C1761 1.391 . S
C1760 C1762 1.394 . S
C1760 H1776 0.931 . S
C1761 C1760 1.391 . S
C1761 C1765 1.376 . S
C1762 C1760 1.394 . S
C1762 C1763 1.369 . S
C1762 C1766 1.531 . S
C1763 C1762 1.369 . S
C1763 C1764 1.410 . S
C1763 C1771 1.503 . S
C1764 C1763 1.410 . S
C1764 C1765 1.392 . S
C1764 C1767 1.511 . S
C1765 C1761 1.376 . S
C1765 C1764 1.392 . S
C1765 H1777 0.929 . S
C1766 C1762 1.531 . S
C1766 H1778 0.960 . S
C1766 H1779 0.962 . S
C1766 H1780 0.960 . S
C1767 C1764 1.511 . S
C1767 H1781 0.961 . S
C1767 H1782 0.961 . S
C1767 H1783 0.961 . S
C1768 C1769 1.370 . S
C1768 C1770 1.363 . S
C1768 H1784 0.931 . S
C1769 C1768 1.370 . S
C1769 C1773 1.408 . S
C1770 C1768 1.363 . S
C1770 C1771 1.370 . S
C1770 C1774 1.524 . S
C1771 C1763 1.503 . S
C1771 C1770 1.370 . S
C1771 C1772 1.403 . S
C1772 C1771 1.403 . S
C1772 C1773 1.404 . S
C1772 C1775 1.539 . S
C1773 C1769 1.408 . S
C1773 C1772 1.404 . S
C1773 H1785 0.930 . S
C1774 C1770 1.524 . S
C1774 H1786 0.956 . S
C1774 H1787 0.961 . S
C1774 H1788 0.961 . S
C1775 C1772 1.539 . S
C1775 H1789 0.958 . S
C1775 H1790 0.961 . S
C1775 H1791 0.960 . S
H1776 C1760 0.931 . S
H1777 C1765 0.929 . S
H1778 C1766 0.960 . S
H1779 C1766 0.962 . S
H1780 C1766 0.960 . S
H1781 C1767 0.961 . S
H1782 C1767 0.961 . S
H1783 C1767 0.961 . S
H1784 C1768 0.931 . S
H1785 C1773 0.930 . S
H1786 C1774 0.956 . S
H1787 C1774 0.961 . S
H1788 C1774 0.961 . S
H1789 C1775 0.958 . S
H1790 C1775 0.961 . S
H1791 C1775 0.960 . S
C1792 C1793 1.391 . S
C1792 C1794 1.394 . S
C1792 H1808 0.931 . S
C1793 C1792 1.391 . S
C1793 C1797 1.376 . S
C1794 C1792 1.394 . S
C1794 C1795 1.369 . S
C1794 C1798 1.531 . S
C1795 C1794 1.369 . S
C1795 C1796 1.410 . S
C1795 C1803 1.503 . S
C1796 C1795 1.410 . S
C1796 C1797 1.392 . S
C1796 C1799 1.511 . S
C1797 C1793 1.376 . S
C1797 C1796 1.392 . S
C1797 H1809 0.929 . S
C1798 C1794 1.531 . S
C1798 H1810 0.960 . S
C1798 H1811 0.962 . S
C1798 H1812 0.960 . S
C1799 C1796 1.511 . S
C1799 H1813 0.961 . S
C1799 H1814 0.961 . S
C1799 H1815 0.961 . S
C1800 C1801 1.370 . S
C1800 C1802 1.363 . S
C1800 H1816 0.931 . S
C1801 C1800 1.370 . S
C1801 C1805 1.408 . S
C1802 C1800 1.363 . S
C1802 C1803 1.370 . S
C1802 C1806 1.524 . S
C1803 C1795 1.503 . S
C1803 C1802 1.370 . S
C1803 C1804 1.403 . S
C1804 C1803 1.403 . S
C1804 C1805 1.404 . S
C1804 C1807 1.539 . S
C1805 C1801 1.408 . S
C1805 C1804 1.404 . S
C1805 H1817 0.930 . S
C1806 C1802 1.524 . S
C1806 H1818 0.956 . S
C1806 H1819 0.961 . S
C1806 H1820 0.961 . S
C1807 C1804 1.539 . S
C1807 H1821 0.958 . S
C1807 H1822 0.961 . S
C1807 H1823 0.960 . S
H1808 C1792 0.931 . S
H1809 C1797 0.929 . S
H1810 C1798 0.960 . S
H1811 C1798 0.962 . S
H1812 C1798 0.960 . S
H1813 C1799 0.961 . S
H1814 C1799 0.961 . S
H1815 C1799 0.961 . S
H1816 C1800 0.931 . S
H1817 C1805 0.930 . S
H1818 C1806 0.956 . S
H1819 C1806 0.961 . S
H1820 C1806 0.961 . S
H1821 C1807 0.958 . S
H1822 C1807 0.961 . S
H1823 C1807 0.960 . S
C1824 C1825 1.391 . S
C1824 C1826 1.394 . S
C1824 H1840 0.931 . S
C1825 C1824 1.391 . S
C1825 C1829 1.376 . S
C1826 C1824 1.394 . S
C1826 C1827 1.369 . S
C1826 C1830 1.531 . S
C1827 C1826 1.369 . S
C1827 C1828 1.410 . S
C1827 C1835 1.503 . S
C1828 C1827 1.410 . S
C1828 C1829 1.392 . S
C1828 C1831 1.511 . S
C1829 C1825 1.376 . S
C1829 C1828 1.392 . S
C1829 H1841 0.929 . S
C1830 C1826 1.531 . S
C1830 H1842 0.960 . S
C1830 H1843 0.962 . S
C1830 H1844 0.960 . S
C1831 C1828 1.511 . S
C1831 H1845 0.961 . S
C1831 H1846 0.961 . S
C1831 H1847 0.961 . S
C1832 C1833 1.370 . S
C1832 C1834 1.363 . S
C1832 H1848 0.931 . S
C1833 C1832 1.370 . S
C1833 C1837 1.408 . S
C1834 C1832 1.363 . S
C1834 C1835 1.370 . S
C1834 C1838 1.524 . S
C1835 C1827 1.503 . S
C1835 C1834 1.370 . S
C1835 C1836 1.403 . S
C1836 C1835 1.403 . S
C1836 C1837 1.404 . S
C1836 C1839 1.539 . S
C1837 C1833 1.408 . S
C1837 C1836 1.404 . S
C1837 H1849 0.930 . S
C1838 C1834 1.524 . S
C1838 H1850 0.956 . S
C1838 H1851 0.961 . S
C1838 H1852 0.961 . S
C1839 C1836 1.539 . S
C1839 H1853 0.958 . S
C1839 H1854 0.961 . S
C1839 H1855 0.960 . S
H1840 C1824 0.931 . S
H1841 C1829 0.929 . S
H1842 C1830 0.960 . S
H1843 C1830 0.962 . S
H1844 C1830 0.960 . S
H1845 C1831 0.961 . S
H1846 C1831 0.961 . S
H1847 C1831 0.961 . S
H1848 C1832 0.931 . S
H1849 C1837 0.930 . S
H1850 C1838 0.956 . S
H1851 C1838 0.961 . S
H1852 C1838 0.961 . S
H1853 C1839 0.958 . S
H1854 C1839 0.961 . S
H1855 C1839 0.960 . S
C1856 C1857 1.391 . S
C1856 C1858 1.394 . S
C1856 H1872 0.931 . S
C1857 C1856 1.391 . S
C1857 C1861 1.376 . S
C1858 C1856 1.394 . S
C1858 C1859 1.369 . S
C1858 C1862 1.531 . S
C1859 C1858 1.369 . S
C1859 C1860 1.410 . S
C1859 C1867 1.503 . S
C1860 C1859 1.410 . S
C1860 C1861 1.392 . S
C1860 C1863 1.511 . S
C1861 C1857 1.376 . S
C1861 C1860 1.392 . S
C1861 H1873 0.929 . S
C1862 C1858 1.531 . S
C1862 H1874 0.960 . S
C1862 H1875 0.962 . S
C1862 H1876 0.960 . S
C1863 C1860 1.511 . S
C1863 H1877 0.961 . S
C1863 H1878 0.961 . S
C1863 H1879 0.961 . S
C1864 C1865 1.370 . S
C1864 C1866 1.363 . S
C1864 H1880 0.931 . S
C1865 C1864 1.370 . S
C1865 C1869 1.408 . S
C1866 C1864 1.363 . S
C1866 C1867 1.370 . S
C1866 C1870 1.524 . S
C1867 C1859 1.503 . S
C1867 C1866 1.370 . S
C1867 C1868 1.403 . S
C1868 C1867 1.403 . S
C1868 C1869 1.404 . S
C1868 C1871 1.539 . S
C1869 C1865 1.408 . S
C1869 C1868 1.404 . S
C1869 H1881 0.930 . S
C1870 C1866 1.524 . S
C1870 H1882 0.956 . S
C1870 H1883 0.961 . S
C1870 H1884 0.961 . S
C1871 C1868 1.539 . S
C1871 H1885 0.958 . S
C1871 H1886 0.961 . S
C1871 H1887 0.960 . S
H1872 C1856 0.931 . S
H1873 C1861 0.929 . S
H1874 C1862 0.960 . S
H1875 C1862 0.962 . S
H1876 C1862 0.960 . S
H1877 C1863 0.961 . S
H1878 C1863 0.961 . S
H1879 C1863 0.961 . S
H1880 C1864 0.931 . S
H1881 C1869 0.930 . S
H1882 C1870 0.956 . S
H1883 C1870 0.961 . S
H1884 C1870 0.961 . S
H1885 C1871 0.958 . S
H1886 C1871 0.961 . S
H1887 C1871 0.960 . S
C353 C5 0.948 . S
C361 C159 0.907 . S
C385 C93 0.847 . S
C393 C27 0.873 . S
C417 C119 0.838 . S
C425 C53 0.878 . S
C449 C75 0.840 . S
C457 C141 0.887 . S
C481 C336 0.872 . S
C489 C182 0.872 . S
C513 C270 0.920 . S
C521 C204 0.879 . S
C545 C293 0.914 . S
C553 C227 0.917 . S
C577 C315 0.892 . S
C585 C249 0.916 . S
C609 C6 1.324 . S
C617 C335 1.344 . S
C641 C28 1.374 . S
C649 C269 1.367 . S
C673 C51 1.358 . S
C681 C295 1.361 . S
C705 C317 1.336 . S
C713 C73 1.351 . S
C737 C203 1.335 . S
C745 C94 1.351 . S
C769 C117 1.339 . S
C777 C229 1.349 . S
C801 C251 1.384 . S
C809 C139 1.369 . S
C833 C160 1.386 . S
C841 C181 1.370 . S
C865 C268 1.571 . S
C873 C9 1.614 . S
C897 C31 1.602 . S
C905 C294 1.588 . S
C929 C316 1.571 . S
C937 C49 1.621 . S
C961 C334 1.606 . S
C969 C71 1.616 . S
C993 C97 1.610 . S
C1001 C180 1.596 . S
C1025 C115 1.619 . S
C1033 C202 1.592 . S
C1057 C137 1.608 . S
C1065 C228 1.596 . S
C1089 C250 1.606 . S
C1097 C163 1.615 . S
C1121 C183 1.620 . S
C1129 C92 1.588 . S
C1153 C205 1.613 . S
C1161 C118 1.594 . S
C1185 C140 1.606 . S
C1193 C226 1.614 . S
C1217 C248 1.602 . S
C1225 C158 1.591 . S
C1249 C271 1.620 . S
C1257 C4 1.588 . S
C1281 C292 1.611 . S
C1289 C26 1.595 . S
C1313 C52 1.558 . S
C1321 C314 1.620 . S
C1345 C74 1.590 . S
C1353 C337 1.612 . S
C1377 C8 1.471 . S
C1385 C207 1.395 . S
C1409 C225 1.375 . S
C1417 C30 1.477 . S
C1441 C48 1.471 . S
C1449 C247 1.395 . S
C1473 C70 1.476 . S
C1481 C185 1.392 . S
C1505 C96 1.480 . S
C1513 C339 1.387 . S
C1537 C114 1.468 . S
C1545 C273 1.400 . S
C1569 C136 1.481 . S
C1577 C291 1.384 . S
C1601 C313 1.424 . S
C1609 C162 1.470 . S
C1633 C29 1.405 . S
C1641 C184 1.471 . S
C1665 C50 1.357 . S
C1673 C206 1.481 . S
C1697 C224 1.464 . S
C1705 C72 1.398 . S
C1729 C246 1.465 . S
C1737 C7 1.407 . S
C1761 C161 1.434 . S
C1769 C272 1.468 . S
C1793 C95 1.380 . S
C1801 C290 1.478 . S
C1825 C116 1.433 . S
C1833 C312 1.468 . S
C1857 C138 1.365 . S
C1865 C338 1.480 . S
