# Generated by pormake.
# Topology umj, (4)-cn, num edge types: 1
# Building blocks:
#     Node 0, Type 0, BuildingBlock: ESEHIV_clean_sbu_0, # of connection points: 4
#     Node 1, Type 0, BuildingBlock: ESEHIV_clean_sbu_0, # of connection points: 4
#     Node 2, Type 0, BuildingBlock: ESEHIV_clean_sbu_0, # of connection points: 4
#     Node 3, Type 0, BuildingBlock: ESEHIV_clean_sbu_0, # of connection points: 4
#     Node 4, Type 0, BuildingBlock: ESEHIV_clean_sbu_0, # of connection points: 4
#     Node 5, Type 0, BuildingBlock: ESEHIV_clean_sbu_0, # of connection points: 4
#     Node 6, Type 0, BuildingBlock: ESEHIV_clean_sbu_0, # of connection points: 4
#     Node 7, Type 0, BuildingBlock: ESEHIV_clean_sbu_0, # of connection points: 4
#     Node 8, Type 0, BuildingBlock: ESEHIV_clean_sbu_0, # of connection points: 4
#     Node 9, Type 0, BuildingBlock: ESEHIV_clean_sbu_0, # of connection points: 4
#     Node 10, Type 0, BuildingBlock: ESEHIV_clean_sbu_0, # of connection points: 4
#     Node 11, Type 0, BuildingBlock: ESEHIV_clean_sbu_0, # of connection points: 4
#     Edge 12, Type (0, 0), BuildingBlock: TEMPAE_clean_linker_10, # of connection points: 2
#     Edge 13, Type (0, 0), BuildingBlock: TEMPAE_clean_linker_10, # of connection points: 2
#     Edge 14, Type (0, 0), BuildingBlock: TEMPAE_clean_linker_10, # of connection points: 2
#     Edge 15, Type (0, 0), BuildingBlock: TEMPAE_clean_linker_10, # of connection points: 2
#     Edge 16, Type (0, 0), BuildingBlock: TEMPAE_clean_linker_10, # of connection points: 2
#     Edge 17, Type (0, 0), BuildingBlock: TEMPAE_clean_linker_10, # of connection points: 2
#     Edge 18, Type (0, 0), BuildingBlock: TEMPAE_clean_linker_10, # of connection points: 2
#     Edge 19, Type (0, 0), BuildingBlock: TEMPAE_clean_linker_10, # of connection points: 2
#     Edge 20, Type (0, 0), BuildingBlock: TEMPAE_clean_linker_10, # of connection points: 2
#     Edge 21, Type (0, 0), BuildingBlock: TEMPAE_clean_linker_10, # of connection points: 2
#     Edge 22, Type (0, 0), BuildingBlock: TEMPAE_clean_linker_10, # of connection points: 2
#     Edge 23, Type (0, 0), BuildingBlock: TEMPAE_clean_linker_10, # of connection points: 2
#     Edge 24, Type (0, 0), BuildingBlock: TEMPAE_clean_linker_10, # of connection points: 2
#     Edge 25, Type (0, 0), BuildingBlock: TEMPAE_clean_linker_10, # of connection points: 2
#     Edge 26, Type (0, 0), BuildingBlock: TEMPAE_clean_linker_10, # of connection points: 2
#     Edge 27, Type (0, 0), BuildingBlock: TEMPAE_clean_linker_10, # of connection points: 2
#     Edge 28, Type (0, 0), BuildingBlock: TEMPAE_clean_linker_10, # of connection points: 2
#     Edge 29, Type (0, 0), BuildingBlock: TEMPAE_clean_linker_10, # of connection points: 2
#     Edge 30, Type (0, 0), BuildingBlock: TEMPAE_clean_linker_10, # of connection points: 2
#     Edge 31, Type (0, 0), BuildingBlock: TEMPAE_clean_linker_10, # of connection points: 2
#     Edge 32, Type (0, 0), BuildingBlock: TEMPAE_clean_linker_10, # of connection points: 2
#     Edge 33, Type (0, 0), BuildingBlock: TEMPAE_clean_linker_10, # of connection points: 2
#     Edge 34, Type (0, 0), BuildingBlock: TEMPAE_clean_linker_10, # of connection points: 2
#     Edge 35, Type (0, 0), BuildingBlock: TEMPAE_clean_linker_10, # of connection points: 2
# Relax obj value: 0.040
# Max RMSD: 0.097
# Mean RMSD: 0.085
data_MOF--net-umj--node1-ESEHIV_clean_sbu_0--edge1-TEMPAE_clean_linker_10
_symmetry_space_group_name_H-M    P1
_symmetry_Int_Tables_number       1
_symmetry_cell_setting            triclinic
loop_
_symmetry_equiv_pos_as_xyz
'x, y, z'
_cell_length_a     29.927551
_cell_length_b     34.873503
_cell_length_c     89.628904
_cell_angle_alpha  89.953147
_cell_angle_beta   89.997105
_cell_angle_gamma 115.46988
loop_
_atom_site_label
_atom_site_type_symbol
_atom_site_fract_x
_atom_site_fract_y
_atom_site_fract_z
_atom_type_partial_charge
Cu0 Cu 0.02449 0.27909 0.09102 0.0
N1 N 0.98409 0.22124 0.08792 0.0
N2 N 0.96794 0.15245 0.08561 0.0
C3 C 1.00184 0.19313 0.08392 0.0
C4 C 0.92704 0.15518 0.09083 0.0
C5 C 0.93721 0.19758 0.09233 0.0
O6 O 0.07569 0.2935 0.07553 0.0
C7 C 0.05627 0.31184 0.12116 0.0
O8 O 0.07014 0.35042 0.11591 0.0
H9 H 0.04021 0.20247 0.081 0.0
H10 H 0.91326 0.21004 0.09729 0.0
N11 N 0.99146 0.314 0.08818 0.0
N12 N 0.97958 0.37298 0.08563 0.0
C13 C 1.01259 0.3569 0.0884 0.0
C14 C 0.94347 0.30259 0.08499 0.0
C15 C 0.93604 0.33882 0.08341 0.0
C16 C 0.05753 0.28898 0.06237 0.0
O17 O 1.00999 0.27866 0.06109 0.0
H18 H 0.05171 0.37601 0.09021 0.0
H19 H 0.91581 0.27027 0.0837 0.0
O20 O 0.04222 0.28054 0.11216 0.0
H21 H 0.89286 0.12854 0.09397 0.0
H22 H 0.90117 0.33989 0.08098 0.0
Cu23 Cu 0.77125 0.04157 0.42352 0.0
N24 N 0.79043 0.06838 0.44225 0.0
N25 N 0.80044 0.08269 0.46679 0.0
C26 C 0.7737 0.05446 0.45618 0.0
C27 C 0.83484 0.11561 0.45922 0.0
C28 C 0.82861 0.1067 0.4442 0.0
O29 O 0.69881 1.01019 0.42206 0.0
C30 C 0.82387 0.99115 0.42946 0.0
O31 O 0.80419 0.98727 0.4428 0.0
H32 H 0.74391 0.02373 0.45854 0.0
H33 H 0.85104 0.12654 0.43527 0.0
N34 N 0.78672 0.08466 0.40911 0.0
N35 N 0.80875 0.12342 0.38803 0.0
C36 C 0.8082 0.08931 0.39552 0.0
C37 C 0.77305 0.11653 0.41019 0.0
C38 C 0.78649 0.14036 0.39734 0.0
C39 C 0.66747 0.98173 0.43045 0.0
O40 O 0.68321 0.96589 0.44146 0.0
H41 H 0.82276 0.06798 0.39123 0.0
H42 H 0.7535 0.12146 0.4196 0.0
O43 O 0.81113 1.01022 0.41932 0.0
H44 H 0.86274 0.14418 0.46416 0.0
H45 H 0.77898 0.16742 0.39494 0.0
Cu46 Cu 0.78387 0.79173 0.77652 0.0
N47 N 0.85333 0.81379 0.77667 0.0
N48 N 0.93313 0.861 0.77757 0.0
C49 C 0.88658 0.85395 0.77356 0.0
C50 C 0.92885 0.8238 0.78333 0.0
C51 C 0.87981 0.795 0.78284 0.0
O52 O 0.76713 0.8255 0.7619 0.0
C53 C 0.72769 0.78668 0.80403 0.0
O54 O 0.68626 0.76589 0.79669 0.0
H55 H 0.8764 0.87823 0.76937 0.0
H56 H 0.86416 0.76318 0.7874 0.0
N57 N 0.7563 0.73289 0.77183 0.0
N58 N 0.70702 0.66283 0.77053 0.0
C59 C 0.71019 0.70162 0.7742 0.0
C60 C 0.7823 0.71286 0.76622 0.0
C61 C 0.75235 0.66991 0.76553 0.0
C62 C 0.74264 0.81063 0.74995 0.0
O63 O 0.723 0.76946 0.74763 0.0
H64 H 0.67994 0.70682 0.77885 0.0
H65 H 0.82086 0.72836 0.76304 0.0
O66 O 0.76888 0.80018 0.79715 0.0
H67 H 0.95883 0.81813 0.788 0.0
H68 H 0.76305 0.64562 0.76169 0.0
Cu69 Cu 0.98748 0.77057 0.09222 0.0
N70 N 0.02618 0.82859 0.08849 0.0
N71 N 0.04234 0.89738 0.08586 0.0
C72 C 1.00859 0.85662 0.08418 0.0
C73 C 0.08302 0.89482 0.09133 0.0
C74 C 0.07284 0.85252 0.09304 0.0
O75 O 0.93339 0.75135 0.07779 0.0
C76 C 0.96187 0.73676 0.12225 0.0
O77 O 0.95094 0.69909 0.1166 0.0
H78 H 0.97054 0.84743 0.08103 0.0
H79 H 0.09657 0.8403 0.09829 0.0
N80 N 0.02205 0.73729 0.08863 0.0
N81 N 0.03565 0.67923 0.08569 0.0
C82 C 1.00183 0.6944 0.08849 0.0
C83 C 0.0703 0.74967 0.08552 0.0
C84 C 0.07878 0.714 0.08371 0.0
C85 C 0.89741 0.76143 0.07645 0.0
O86 O 0.88835 0.78291 0.08712 0.0
H87 H 0.9628 0.67463 0.09022 0.0
H88 H 0.09754 0.78226 0.08458 0.0
O89 O 0.97213 0.76833 0.11353 0.0
H90 H 0.11698 0.92153 0.09457 0.0
H91 H 0.11415 0.71373 0.0814 0.0
Cu92 Cu 0.24975 0.99253 0.41904 0.0
N93 N 0.27187 0.03719 0.43301 0.0
N94 N 0.28528 0.066 0.45585 0.0
C95 C 0.26211 0.03035 0.44771 0.0
C96 C 0.31057 0.09673 0.44588 0.0
C97 C 0.30194 0.07894 0.43176 0.0
O98 O 0.28997 0.96124 0.42324 0.0
C99 C 0.15926 0.9926 0.41976 0.0
O100 O 0.18965 0.0315 0.41587 0.0
H101 H 0.23989 0.99928 0.4524 0.0
H102 H 0.31764 0.09514 0.42144 0.0
N103 N 0.26041 1.00804 0.39878 0.0
N104 N 0.25395 0.9971 0.37404 0.0
C105 C 0.23544 0.98152 0.38763 0.0
C106 C 0.29605 0.04184 0.392 0.0
C107 C 0.29215 0.03516 0.37675 0.0
C108 C 0.33645 0.98564 0.42298 0.0
O109 O 0.35076 0.02588 0.41969 0.0
H110 H 0.20586 0.95025 0.38955 0.0
H111 H 0.32425 0.0686 0.39769 0.0
O112 O 0.17726 0.96562 0.42169 0.0
H113 H 0.33388 0.12958 0.4486 0.0
H114 H 0.31624 0.0563 0.36835 0.0
Cu115 Cu 0.30912 0.26216 0.77382 0.0
N116 N 0.29428 0.20477 0.77716 0.0
N117 N 0.24424 0.13504 0.77815 0.0
C118 C 0.24715 0.17468 0.77731 0.0
C119 C 0.29169 0.14038 0.77862 0.0
C120 C 0.32253 0.18348 0.77806 0.0
O121 O 0.27634 0.25926 0.75453 0.0
C122 C 0.31039 0.28035 0.80337 0.0
O123 O 0.34833 0.27118 0.80167 0.0
H124 H 0.21552 0.18182 0.77613 0.0
H125 H 0.36251 0.19796 0.77794 0.0
N126 N 0.37715 0.29973 0.77176 0.0
N127 N 0.44603 0.36119 0.77029 0.0
C128 C 0.39723 0.34237 0.77372 0.0
C129 C 0.41488 0.29143 0.7671 0.0
C130 C 0.45714 0.32913 0.76612 0.0
C131 C 0.29392 0.24467 0.74412 0.0
O132 O 0.33178 0.2364 0.74709 0.0
H133 H 0.37607 0.3594 0.77715 0.0
H134 H 0.41186 0.26032 0.76425 0.0
O135 O 0.28489 0.27945 0.79181 0.0
H136 H 0.30331 0.115 0.77922 0.0
H137 H 0.4933 0.33269 0.76257 0.0
Cu138 Cu 0.73469 0.98496 0.61564 0.0
N139 N 0.75723 0.02977 0.60171 0.0
N140 N 0.77273 0.05871 0.57883 0.0
C141 C 0.75657 0.02257 0.58693 0.0
C142 C 0.78406 0.0901 0.58901 0.0
C143 C 0.77463 0.07216 0.60314 0.0
O144 O 0.66264 0.95504 0.6118 0.0
C145 C 0.825 0.98617 0.6157 0.0
O146 O 0.83098 0.02421 0.61987 0.0
H147 H 0.74332 0.99103 0.58221 0.0
H148 H 0.7797 0.08878 0.61364 0.0
N149 N 0.74135 0.99934 0.63603 0.0
N150 N 0.7453 0.98763 0.66052 0.0
C151 C 0.74642 0.97376 0.64653 0.0
C152 C 0.73706 0.03087 0.64365 0.0
C153 C 0.73927 0.0236 0.65878 0.0
C154 C 0.64222 0.98068 0.61229 0.0
O155 O 0.67 0.0206 0.61559 0.0
H156 H 0.74876 0.94437 0.64392 0.0
H157 H 0.73136 0.05663 0.63864 0.0
O158 O 0.78084 0.95862 0.61282 0.0
H159 H 0.7985 0.12363 0.58647 0.0
H160 H 0.73618 0.043 0.66777 0.0
Cu161 Cu 0.79706 0.73598 0.94057 0.0
N162 N 0.86622 0.76637 0.93959 0.0
N163 N 0.9397 0.82327 0.93918 0.0
C164 C 0.89004 0.80916 0.93957 0.0
C165 C 0.94752 0.78794 0.93901 0.0
C166 C 0.90216 0.75289 0.93941 0.0
O167 O 0.78014 0.74604 0.96094 0.0
C168 C 0.78587 0.74906 0.91131 0.0
O169 O 0.81814 0.73279 0.9114 0.0
H170 H 0.87117 0.82957 0.93983 0.0
H171 H 0.89615 0.72009 0.9399 0.0
N172 N 0.77297 0.67697 0.93734 0.0
N173 N 0.71753 0.60892 0.9352 0.0
C174 C 0.72587 0.64831 0.93983 0.0
C175 C 0.79509 0.65489 0.93079 0.0
C176 C 0.7611 0.61301 0.9295 0.0
C177 C 0.77984 0.72036 0.97117 0.0
O178 O 0.78627 0.68668 0.96747 0.0
H179 H 0.6979 0.65658 0.94457 0.0
H180 H 0.83269 0.66836 0.92672 0.0
O181 O 0.77054 0.75618 0.92385 0.0
H182 H 0.98347 0.78749 0.93904 0.0
H183 H 0.76794 0.58762 0.92465 0.0
Cu184 Cu 0.04372 0.78919 0.2624 0.0
N185 N 1.00714 0.81853 0.26818 0.0
N186 N 0.99409 0.87661 0.27124 0.0
C187 C 0.02781 0.86117 0.26892 0.0
C188 C 0.95016 0.842 0.27213 0.0
C189 C 0.95829 0.80613 0.27012 0.0
O190 O 0.1081 0.82332 0.27164 0.0
C191 C 0.06391 0.77791 0.23109 0.0
O192 O 0.09873 0.76711 0.23555 0.0
H193 H 0.06696 0.88052 0.26728 0.0
H194 H 0.93041 0.77367 0.2694 0.0
N195 N 1.01631 0.73272 0.26926 0.0
N196 N 1.0049 0.66541 0.27282 0.0
C197 C 0.0302 0.70209 0.26527 0.0
C198 C 0.98093 0.71482 0.27965 0.0
C199 C 0.97379 0.67342 0.28186 0.0
C200 C 0.11997 0.81254 0.2841 0.0
O201 O 0.09493 0.77349 0.28891 0.0
H202 H 0.05947 0.70713 0.25735 0.0
H203 H 0.96226 0.73095 0.28544 0.0
O204 O 0.0405 0.7892 0.24066 0.0
H205 H 0.91449 0.84258 0.27336 0.0
H206 H 0.94765 0.65103 0.28956 0.0
Cu207 Cu 0.2624 0.03933 0.61029 0.0
N208 N 0.28081 0.06953 0.59219 0.0
N209 N 0.28867 0.08568 0.56781 0.0
C210 C 0.27256 0.0542 0.57811 0.0
C211 C 0.3075 0.12211 0.57571 0.0
C212 C 0.30264 0.11208 0.59068 0.0
O213 O 0.30187 1.00671 0.61295 0.0
C214 C 0.16108 0.98909 0.62046 0.0
O215 O 0.17998 0.98827 0.63362 0.0
H216 H 0.25369 0.02078 0.57542 0.0
H217 H 0.31364 0.13438 0.59985 0.0
N218 N 0.28217 0.07917 0.62603 0.0
N219 N 0.28824 0.11702 0.64684 0.0
C220 C 0.2571 0.08804 0.63709 0.0
C221 C 0.33023 0.10369 0.62887 0.0
C222 C 0.33411 0.12693 0.64155 0.0
C223 C 0.30987 0.98327 0.60338 0.0
O224 O 0.2852 0.9745 0.59077 0.0
H225 H 0.21727 0.07264 0.63829 0.0
H226 H 0.36056 0.1039 0.62224 0.0
O227 O 0.19012 1.00679 0.60957 0.0
H228 H 0.32383 0.15377 0.571 0.0
H229 H 0.36829 0.1492 0.64661 0.0
Cu230 Cu 0.26523 0.25088 0.94131 0.0
N231 N 0.25019 0.19277 0.94274 0.0
N232 N 0.2071 0.122 0.94346 0.0
C233 C 0.20524 0.15967 0.94126 0.0
C234 C 0.25507 0.13182 0.94631 0.0
C235 C 0.28153 0.17535 0.94576 0.0
O236 O 0.22687 0.26433 0.95663 0.0
C237 C 0.25725 0.29301 0.91361 0.0
O238 O 0.27052 0.32851 0.92114 0.0
H239 H 0.17171 0.1632 0.93893 0.0
H240 H 0.3209 0.19301 0.9475 0.0
N241 N 0.33239 0.28375 0.94589 0.0
N242 N 0.40945 0.33625 0.94681 0.0
C243 C 0.36606 0.3192 0.93921 0.0
C244 C 0.35521 0.27845 0.9581 0.0
C245 C 0.40243 0.31044 0.95869 0.0
C246 C 0.22157 0.24608 0.96932 0.0
O247 O 0.23957 0.2181 0.97123 0.0
H248 H 0.35868 0.33249 0.92912 0.0
H249 H 0.33812 0.25368 0.96631 0.0
O250 O 0.25175 0.25919 0.92044 0.0
H251 H 0.27005 0.10909 0.94846 0.0
H252 H 0.42879 0.31515 0.96756 0.0
Cu253 Cu 1.00506 0.26998 0.2616 0.0
N254 N 0.04458 0.24148 0.26504 0.0
N255 N 0.05937 0.18429 0.26816 0.0
C256 C 0.02756 0.19932 0.26304 0.0
C257 C 0.09824 0.21861 0.27359 0.0
C258 C 0.08898 0.25389 0.27167 0.0
O259 O 0.95363 0.24632 0.27702 0.0
C260 C 0.97797 0.28299 0.2317 0.0
O261 O 0.9711 0.31494 0.23719 0.0
H262 H 0.99107 0.17972 0.25867 0.0
H263 H 0.11189 0.28578 0.27549 0.0
N264 N 0.03948 0.3291 0.26401 0.0
N265 N 0.05356 0.39743 0.2663 0.0
C266 C 1.0195 0.35642 0.26691 0.0
C267 C 0.08778 0.3536 0.26146 0.0
C268 C 0.09663 0.39564 0.26296 0.0
C269 C 0.97178 0.25264 0.29019 0.0
O270 O 1.0192 0.27752 0.29172 0.0
H271 H 0.98046 0.34633 0.26903 0.0
H272 H 0.11432 0.34185 0.25813 0.0
O273 O 0.98659 0.2583 0.24054 0.0
H274 H 0.13055 0.21819 0.27887 0.0
H275 H 0.13166 0.42279 0.26103 0.0
C276 C 0.9638 0.29875 0.20521 0.0
C277 C 0.9852 0.28081 0.21533 0.0
C278 C 0.97478 0.30113 0.18985 0.0
C279 C 1.00927 0.28648 0.18448 0.0
C280 C 0.0305 0.26783 0.19464 0.0
C281 C 1.01771 0.26469 0.20986 0.0
C282 C 0.95009 0.32008 0.1794 0.0
C283 C 0.06832 0.25275 0.18952 0.0
C284 C 1.01172 0.26509 0.14275 0.0
C285 C 0.04826 0.3039 0.1375 0.0
C286 C 0.9989 0.25886 0.15797 0.0
C287 C 0.02407 0.29179 0.16834 0.0
C288 C 0.06244 0.33039 0.16319 0.0
C289 C 0.07352 0.3362 0.14784 0.0
C290 C 0.95701 0.21763 0.16285 0.0
C291 C 0.09126 0.3659 0.17388 0.0
H292 H 0.93869 0.31129 0.20933 0.0
H293 H 0.03503 0.25134 0.21762 0.0
H294 H 0.97817 0.35012 0.17461 0.0
H295 H 0.93265 0.29811 0.16997 0.0
H296 H 0.92134 0.3269 0.1851 0.0
H297 H 0.08043 0.23797 0.19871 0.0
H298 H 0.05299 0.2293 0.18038 0.0
H299 H 0.10126 0.27999 0.18502 0.0
H300 H 0.99147 0.2401 0.13484 0.0
H301 H 0.10179 0.36625 0.1439 0.0
H302 H 0.92659 0.22404 0.16756 0.0
H303 H 0.96962 0.20259 0.1718 0.0
H304 H 0.942 0.19472 0.15351 0.0
H305 H 0.06638 0.37851 0.17888 0.0
H306 H 0.12247 0.39247 0.16832 0.0
H307 H 0.1062 0.35377 0.18315 0.0
C308 C 0.74922 0.05462 0.48954 0.0
C309 C 0.79544 0.07834 0.48286 0.0
C310 C 0.74406 0.05122 0.50519 0.0
C311 C 0.78619 0.07169 0.51443 0.0
C312 C 0.83297 0.09531 0.50774 0.0
C313 C 0.83698 0.0984 0.49211 0.0
C314 C 0.69346 0.0259 0.51184 0.0
C315 C 0.87899 0.11721 0.5171 0.0
C316 C 0.77123 0.09561 0.55527 0.0
C317 C 0.77631 0.06228 0.56272 0.0
C318 C 0.77362 0.09874 0.53958 0.0
C319 C 0.78172 0.06802 0.53108 0.0
C320 C 0.78707 0.03442 0.53855 0.0
C321 C 0.78421 0.03193 0.55421 0.0
C322 C 0.76749 0.13496 0.53209 0.0
C323 C 0.79635 1.00126 0.52999 0.0
H324 H 0.71689 0.03933 0.48252 0.0
H325 H 0.87299 0.11617 0.48711 0.0
H326 H 0.69379 0.99964 0.51876 0.0
H327 H 0.68353 0.04644 0.51929 0.0
H328 H 0.66434 1.0122 0.50317 0.0
H329 H 0.9126 0.13441 0.51021 0.0
H330 H 0.87443 0.14023 0.52477 0.0
H331 H 0.8849 0.09354 0.5241 0.0
H332 H 0.76456 0.11892 0.56169 0.0
H333 H 0.78895 1.00644 0.55983 0.0
H334 H 0.73637 0.12234 0.52403 0.0
H335 H 0.80138 0.15464 0.52568 0.0
H336 H 0.76027 0.15566 0.54022 0.0
H337 H 0.76618 0.98529 0.52181 0.0
H338 H 0.79886 0.97674 0.53742 0.0
H339 H 0.83136 1.01663 0.52359 0.0
C340 C 0.77148 0.81522 0.8282 0.0
C341 C 0.72779 0.78937 0.82062 0.0
C342 C 0.77513 0.81293 0.84377 0.0
C343 C 0.73426 0.78382 0.85204 0.0
C344 C 0.68886 0.76004 0.8446 0.0
C345 C 0.68611 0.76317 0.82899 0.0
C346 C 0.82414 0.83927 0.8512 0.0
C347 C 0.64429 0.72874 0.85295 0.0
C348 C 0.77222 0.7338 0.88423 0.0
C349 C 0.76744 0.75623 0.89666 0.0
C350 C 0.75971 0.7415 0.86985 0.0
C351 C 0.74209 0.77278 0.86766 0.0
C352 C 0.73533 0.79461 0.8802 0.0
C353 C 0.74792 0.78593 0.89462 0.0
C354 C 0.76706 0.71698 0.85692 0.0
C355 C 0.71659 0.82813 0.87833 0.0
H356 H 0.80373 0.83604 0.82189 0.0
H357 H 0.65207 0.74321 0.82328 0.0
H358 H 0.8186 0.85404 0.86156 0.0
H359 H 0.8421 0.81845 0.85436 0.0
H360 H 0.84969 0.86471 0.84374 0.0
H361 H 0.60987 0.7186 0.84625 0.0
H362 H 0.65001 0.70014 0.85571 0.0
H363 H 0.63926 0.74255 0.86361 0.0
H364 H 0.78651 0.71027 0.8857 0.0
H365 H 0.74411 0.80336 0.90416 0.0
H366 H 0.79594 0.73907 0.84931 0.0
H367 H 0.73236 0.70154 0.85039 0.0
H368 H 0.77851 0.69212 0.86062 0.0
H369 H 0.74514 0.8562 0.87261 0.0
H370 H 0.70777 0.83853 0.8892 0.0
H371 H 0.68299 0.81612 0.87121 0.0
C372 C 0.99883 0.78503 0.14416 0.0
C373 C 0.97113 0.74389 0.13858 0.0
C374 C 1.01366 0.7918 0.1592 0.0
C375 C 0.99992 0.7567 0.16902 0.0
C376 C 0.97039 0.71526 0.16359 0.0
C377 C 0.95668 0.70934 0.14844 0.0
C378 C 0.04543 0.83646 0.16447 0.0
C379 C 0.95414 0.67702 0.17372 0.0
C380 C 0.07699 0.76629 0.20399 0.0
C381 C 0.04887 0.77408 0.2151 0.0
C382 C 0.06185 0.76113 0.18895 0.0
C383 C 1.01714 0.76322 0.1849 0.0
C384 C 0.9887 0.7712 0.19604 0.0
C385 C 1.00501 0.77678 0.21094 0.0
C386 C 0.09363 0.75323 0.1774 0.0
C387 C 0.94056 0.77319 0.19227 0.0
H388 H 1.0106 0.81196 0.13664 0.0
H389 H 0.93528 0.67745 0.14427 0.0
H390 H 0.02776 0.84437 0.17412 0.0
H391 H 0.08179 0.83884 0.1683 0.0
H392 H 0.05187 0.86045 0.15556 0.0
H393 H 0.92912 0.64724 0.16799 0.0
H394 H 0.98701 0.67326 0.17782 0.0
H395 H 0.93473 0.68158 0.18363 0.0
H396 H 0.11091 0.76419 0.20705 0.0
H397 H 0.98275 0.78253 0.2194 0.0
H398 H 0.1039 0.77766 0.16849 0.0
H399 H 0.07247 0.7219 0.17204 0.0
H400 H 0.12803 0.75375 0.18226 0.0
H401 H 0.94702 0.79831 0.18383 0.0
H402 H 0.92283 0.7798 0.20221 0.0
H403 H 0.9144 0.74261 0.1873 0.0
C404 C 0.29352 0.04904 0.54466 0.0
C405 C 0.28618 0.0817 0.55175 0.0
C406 C 0.29349 0.04613 0.52899 0.0
C407 C 0.28486 0.07609 0.52018 0.0
C408 C 0.27639 0.10859 0.52732 0.0
C409 C 0.27765 0.11124 0.54298 0.0
C410 C 0.30356 1.01145 0.52185 0.0
C411 C 0.26595 0.1406 0.51842 0.0
C412 C 0.32833 0.09503 0.47965 0.0
C413 C 0.28501 0.06939 0.47191 0.0
C414 C 0.32899 0.09707 0.49534 0.0
C415 C 0.28495 0.07365 0.5035 0.0
C416 C 0.24091 0.04825 0.49569 0.0
C417 C 0.24164 0.04606 0.48003 0.0
C418 C 0.37696 0.12387 0.5032 0.0
C419 C 0.19291 0.02356 0.50388 0.0
H420 H 0.30062 0.02644 0.55139 0.0
H421 H 0.27137 0.13622 0.54842 0.0
H422 H 0.27191 0.99131 0.51469 0.0
H423 H 0.33662 0.02569 0.51454 0.0
H424 H 0.30994 0.99086 0.53023 0.0
H425 H 0.25849 0.16303 0.52566 0.0
H426 H 0.29797 0.15916 0.51112 0.0
H427 H 0.2335 0.12398 0.51105 0.0
H428 H 0.36205 0.11265 0.47342 0.0
H429 H 0.20802 0.02651 0.47406 0.0
H430 H 0.38646 0.1039 0.51106 0.0
H431 H 0.37282 0.1489 0.50989 0.0
H432 H 0.4082 0.13932 0.49528 0.0
H433 H 0.19704 1.00045 0.51162 0.0
H434 H 0.1617 1.00602 0.49617 0.0
H435 H 0.18337 0.04547 0.51074 0.0
C436 C 0.25046 0.28462 0.82262 0.0
C437 C 0.29782 0.28891 0.81874 0.0
C438 C 0.23811 0.28766 0.83768 0.0
C439 C 0.27395 0.2952 0.84906 0.0
C440 C 0.32234 0.30145 0.84503 0.0
C441 C 0.33356 0.29827 0.83002 0.0
C442 C 0.18624 0.28118 0.84146 0.0
C443 C 0.36199 0.3098 0.85667 0.0
C444 C 0.26682 0.33074 0.88891 0.0
C445 C 0.25436 0.2929 0.89695 0.0
C446 C 0.2701 0.33158 0.8732 0.0
C447 C 0.26093 0.29373 0.86528 0.0
C448 C 0.24565 0.25508 0.87329 0.0
C449 C 0.24251 0.25513 0.88895 0.0
C450 C 0.28606 0.37343 0.86516 0.0
C451 C 0.23548 0.21393 0.86539 0.0
H452 H 0.22258 0.27733 0.81401 0.0
H453 H 0.37048 0.30218 0.82717 0.0
H454 H 0.16679 0.2506 0.84746 0.0
H455 H 0.18713 0.30671 0.84901 0.0
H456 H 0.16454 0.28065 0.83134 0.0
H457 H 0.39844 0.31613 0.85165 0.0
H458 H 0.36634 0.33744 0.86365 0.0
H459 H 0.35096 0.2819 0.86418 0.0
H460 H 0.27578 0.36011 0.89491 0.0
H461 H 0.23243 0.22558 0.89497 0.0
H462 H 0.26233 0.36984 0.85526 0.0
H463 H 0.32461 0.38416 0.86111 0.0
H464 H 0.28459 0.3985 0.87251 0.0
H465 H 0.21008 0.20919 0.85584 0.0
H466 H 0.21894 0.18603 0.87294 0.0
H467 H 0.2706 0.21523 0.86084 0.0
C468 C 0.06168 0.28108 0.03477 0.0
C469 C 0.08631 0.29049 0.0486 0.0
C470 C 0.08538 0.27786 0.02165 0.0
C471 C 0.13552 0.28484 0.02215 0.0
C472 C 0.16149 0.29634 0.03591 0.0
C473 C 0.1365 0.29873 0.04901 0.0
C474 C 0.0558 0.26482 1.00736 0.0
C475 C 0.21524 0.30478 0.03687 0.0
C476 C 0.1751 0.22548 0.9933 0.0
C477 C 0.19751 0.25637 0.98224 0.0
C478 C 0.15526 0.23451 1.0063 0.0
C479 C 0.15874 0.27589 1.00857 0.0
C480 C 0.18154 0.30741 0.99747 0.0
C481 C 0.20015 0.29714 0.98434 0.0
C482 C 0.1301 0.1995 1.01757 0.0
C483 C 0.18675 0.35206 0.99957 0.0
H484 H 0.02297 0.27479 0.03421 0.0
H485 H 0.15597 0.30621 0.05957 0.0
H486 H 0.07507 0.28758 0.99829 0.0
H487 H 0.05237 0.2332 1.00381 0.0
H488 H 1.01803 0.26304 1.00863 0.0
H489 H 0.23172 0.31821 0.04786 0.0
H490 H 0.21881 0.27473 0.03514 0.0
H491 H 0.23688 0.32713 0.02795 0.0
H492 H 0.17285 0.19386 0.99175 0.0
H493 H 0.21811 0.32133 0.97595 0.0
H494 H 0.09108 0.19422 0.0191 0.0
H495 H 0.14866 0.20884 0.02856 0.0
H496 H 0.13046 0.16903 1.01413 0.0
H497 H 0.14966 0.35179 1.0005 0.0
H498 H 0.20701 0.37332 0.9902 0.0
H499 H 0.20674 0.36547 1.01012 0.0
C500 C 0.83525 0.11232 0.36265 0.0
C501 C 0.82799 0.13885 0.37323 0.0
C502 C 0.85432 0.12748 0.34832 0.0
C503 C 0.86635 0.17021 0.34438 0.0
C504 C 0.85819 0.19683 0.35488 0.0
C505 C 0.83954 0.18102 0.36911 0.0
C506 C 0.86277 0.09807 0.33753 0.0
C507 C 0.87067 0.24264 0.35126 0.0
C508 C 0.96916 0.22863 0.31653 0.0
C509 C 0.94314 0.22986 0.30362 0.0
C510 C 0.94457 0.20818 0.32959 0.0
C511 C 0.89224 0.18861 0.32998 0.0
C512 C 0.86547 0.18905 0.31693 0.0
C513 C 0.89124 0.20941 0.30385 0.0
C514 C 0.97485 0.20826 0.3431 0.0
C515 C 0.80965 0.16887 0.31692 0.0
H516 H 0.82602 0.07963 0.36552 0.0
H517 H 0.83511 0.20229 0.37712 0.0
H518 H 0.84478 0.0978 0.32668 0.0
H519 H 0.90299 0.10971 0.33536 0.0
H520 H 0.84826 0.06501 0.34182 0.0
H521 H 0.85813 0.25811 0.3601 0.0
H522 H 0.9113 0.26073 0.34994 0.0
H523 H 0.85337 0.2448 0.34054 0.0
H524 H 1.00927 0.24372 0.31648 0.0
H525 H 0.87082 0.21003 0.29394 0.0
H526 H 0.96369 0.17532 0.34712 0.0
H527 H 0.96788 0.22626 0.3523 0.0
H528 H 1.0152 0.22278 0.34072 0.0
H529 H 0.79515 0.13531 0.32063 0.0
H530 H 0.79422 0.16984 0.30573 0.0
H531 H 0.79611 0.18565 0.32497 0.0
C532 C 0.77335 0.8829 0.73798 0.0
C533 C 0.74042 0.83958 0.73802 0.0
C534 C 0.77473 0.90953 0.72597 0.0
C535 C 0.74194 0.89269 0.71376 0.0
C536 C 0.70747 0.84934 0.714 0.0
C537 C 0.70737 0.82333 0.72603 0.0
C538 C 0.81245 0.95537 0.72612 0.0
C539 C 0.67138 0.83009 0.70136 0.0
C540 C 0.71834 0.96672 0.68663 0.0
C541 C 0.74683 0.96633 0.67424 0.0
C542 C 0.71683 0.94342 0.69964 0.0
C543 C 0.74512 0.91965 0.7004 0.0
C544 C 0.77514 0.92028 0.68808 0.0
C545 C 0.77531 0.94328 0.67516 0.0
C546 C 0.68382 0.94321 0.7124 0.0
C547 C 0.80655 0.89607 0.68844 0.0
H548 H 0.79928 0.89576 0.74712 0.0
H549 H 0.68163 0.79 0.72596 0.0
H550 H 0.83878 0.96122 0.71674 0.0
H551 H 0.79396 0.97663 0.72448 0.0
H552 H 0.83377 0.96415 0.73671 0.0
H553 H 0.64481 0.7967 0.70366 0.0
H554 H 0.65023 0.84902 0.69926 0.0
H555 H 0.69188 0.83076 0.69097 0.0
H556 H 0.69586 0.98409 0.68596 0.0
H557 H 0.79788 0.94329 0.66571 0.0
H558 H 0.70554 0.95312 0.72287 0.0
H559 H 0.65468 0.91049 0.71417 0.0
H560 H 0.66569 0.96462 0.71034 0.0
H561 H 0.83094 0.90535 0.6984 0.0
H562 H 0.82994 0.90173 0.67831 0.0
H563 H 0.78244 0.86153 0.68935 0.0
C564 C 0.83092 0.76436 0.05973 0.0
C565 C 0.87155 0.75477 0.06179 0.0
C566 C 0.80901 0.76097 0.04555 0.0
C567 C 0.82867 0.74836 0.03309 0.0
C568 C 0.86953 0.73853 0.03515 0.0
C569 C 0.89007 0.74149 0.04942 0.0
C570 C 0.76499 0.77099 0.04389 0.0
C571 C 0.89207 0.72526 0.0222 0.0
C572 C 0.76013 0.69761 0.99758 0.0
C573 C 0.78152 0.73076 0.98724 0.0
C574 C 0.77164 0.70395 1.01284 0.0
C575 C 0.80646 0.74423 1.01787 0.0
C576 C 0.82537 0.77865 1.00764 0.0
C577 C 0.8123 0.77157 0.99243 0.0
C578 C 0.74963 0.66654 0.02333 0.0
C579 C 0.86289 0.82204 1.01246 0.0
H580 H 0.81637 0.77475 0.06918 0.0
H581 H 0.92163 0.73428 0.05078 0.0
H582 H 0.77398 0.79789 0.03603 0.0
H583 H 0.73331 0.74328 0.03908 0.0
H584 H 0.75333 0.77937 0.0547 0.0
H585 H 0.92473 0.72001 0.02558 0.0
H586 H 0.86417 0.69546 1.01723 0.0
H587 H 0.90369 0.74997 1.01337 0.0
H588 H 0.73628 0.66599 0.99359 0.0
H589 H 0.82945 0.79716 0.98445 0.0
H590 H 0.73777 0.67589 0.0339 0.0
H591 H 0.77805 0.65523 0.02614 0.0
H592 H 0.71736 0.63971 0.01831 0.0
H593 H 0.85149 0.83158 0.02307 0.0
H594 H 0.86827 0.84664 1.00387 0.0
H595 H 0.89897 0.82104 1.01445 0.0
C596 C 0.17213 0.83325 0.30714 0.0
C597 C 0.15186 0.84528 0.29489 0.0
C598 C 0.19354 0.86113 0.31913 0.0
C599 C 0.19393 0.90191 0.31906 0.0
C600 C 0.17583 0.91507 0.30637 0.0
C601 C 0.15545 0.88675 0.29438 0.0
C602 C 0.21325 0.84598 0.33226 0.0
C603 C 0.175 0.95802 0.30585 0.0
C604 C 0.18917 0.94649 0.35755 0.0
C605 C 0.23861 0.97549 0.35986 0.0
C606 C 0.17402 0.92338 0.34418 0.0
C607 C 0.2092 0.92897 0.33279 0.0
C608 C 0.25901 0.95882 0.33492 0.0
C609 C 0.27306 0.98184 0.34838 0.0
C610 C 0.12039 0.89234 0.34235 0.0
C611 C 0.29779 0.96551 0.32317 0.0
H612 H 0.16959 0.8013 0.30761 0.0
H613 H 0.13947 0.89625 0.28504 0.0
H614 H 0.25071 0.87012 0.33535 0.0
H615 H 0.18882 0.84142 0.34206 0.0
H616 H 0.21525 0.81548 0.32992 0.0
H617 H 0.16429 0.96513 0.29468 0.0
H618 H 0.14807 0.959 0.31418 0.0
H619 H 0.2118 0.9834 0.30884 0.0
H620 H 0.1622 0.94184 0.36625 0.0
H621 H 0.31142 1.00381 0.3501 0.0
H622 H 0.11734 0.85959 0.3414 0.0
H623 H 0.10523 0.89926 0.33193 0.0
H624 H 0.09717 0.89337 0.35188 0.0
H625 H 0.30237 0.93582 0.32168 0.0
H626 H 0.33426 0.99154 0.32613 0.0
H627 H 0.28584 0.97302 0.31227 0.0
C628 C 0.23534 0.14111 0.66201 0.0
C629 C 0.27696 0.13261 0.66064 0.0
C630 C 0.22711 0.15974 0.67512 0.0
C631 C 0.261 0.16964 0.68719 0.0
C632 C 0.30207 0.1597 0.68597 0.0
C633 C 0.30949 0.14153 0.67279 0.0
C634 C 0.18301 0.16988 0.67591 0.0
C635 C 0.3389 0.1689 0.69855 0.0
C636 C 0.28919 0.25455 0.71685 0.0
C637 C 0.26931 0.22978 0.72959 0.0
C638 C 0.28198 0.23588 0.70258 0.0
C639 C 0.25523 0.1912 0.70107 0.0
C640 C 0.23127 0.16673 0.71378 0.0
C641 C 0.2387 0.18633 0.72788 0.0
C642 C 0.30761 0.26346 0.68938 0.0
C643 C 0.2025 0.11911 0.71283 0.0
H644 H 0.21018 0.13447 0.65266 0.0
H645 H 0.34115 0.13429 0.67196 0.0
H646 H 0.16149 0.1564 0.68624 0.0
H647 H 0.19588 0.20481 0.6764 0.0
H648 H 0.15815 0.15739 0.66613 0.0
H649 H 0.36792 0.15799 0.69602 0.0
H650 H 0.35725 0.20355 0.70076 0.0
H651 H 0.31957 0.15304 0.70893 0.0
H652 H 0.31394 0.28792 0.71817 0.0
H653 H 0.22442 0.16688 0.73776 0.0
H654 H 0.28331 0.25414 0.67941 0.0
H655 H 0.34139 0.25923 0.68665 0.0
H656 H 0.31874 0.29764 0.69172 0.0
H657 H 0.17901 0.10984 0.70269 0.0
H658 H 0.17867 0.10592 0.7228 0.0
H659 H 0.22878 0.10442 0.71209 0.0
C660 C 0.99171 0.60502 0.09459 0.0
C661 C 0.02767 0.63524 0.0854 0.0
C662 C 0.9842 0.56231 0.09467 0.0
C663 C 1.01288 0.54915 0.08519 0.0
C664 C 0.049 0.57945 0.0758 0.0
C665 C 0.05617 0.62209 0.07609 0.0
C666 C 0.94581 0.53131 0.10502 0.0
C667 C 0.07994 0.56677 0.06537 0.0
C668 C 0.02463 0.44701 0.09459 0.0
C669 C 0.98868 0.41724 0.08529 0.0
C670 C 0.03288 0.48993 0.09468 0.0
C671 C 1.00499 0.50371 0.08509 0.0
C672 C 0.96912 0.47389 0.07554 0.0
C673 C 0.96118 0.43107 0.07583 0.0
C674 C 0.07099 0.52042 0.1052 0.0
C675 C 0.93906 0.48724 0.06499 0.0
H676 H 0.97005 0.615 0.10197 0.0
H677 H 0.08367 0.64511 0.06886 0.0
H678 H 0.91747 0.50515 0.09848 0.0
H679 H 0.96345 0.5168 0.11266 0.0
H680 H 0.92697 0.54661 0.11183 0.0
H681 H 0.10602 0.59395 0.05864 0.0
H682 H 0.10154 0.5534 0.07184 0.0
H683 H 0.05553 0.54155 0.05767 0.0
H684 H 0.04559 0.43651 0.10206 0.0
H685 H 0.93378 0.40842 0.06849 0.0
H686 H 0.05311 0.53451 0.1129 0.0
H687 H 0.09951 0.54692 0.09881 0.0
H688 H 0.08964 0.50477 0.11192 0.0
H689 H 0.91693 0.50019 0.0714 0.0
H690 H 0.91353 0.46048 0.05801 0.0
H691 H 0.96407 0.51292 0.05753 0.0
C692 C 0.57882 0.94507 0.43938 0.0
C693 C 0.61354 0.97069 0.4288 0.0
C694 C 0.52907 0.93905 0.43894 0.0
C695 C 0.51341 0.95912 0.42767 0.0
C696 C 0.54765 0.98305 0.4165 0.0
C697 C 0.59703 0.98852 0.4172 0.0
C698 C 0.49397 0.91309 0.45102 0.0
C699 C 0.53286 1.00499 0.40423 0.0
C700 C 0.37817 0.93659 0.41993 0.0
C701 C 0.37569 0.97185 0.42671 0.0
C702 C 0.42193 0.93049 0.42076 0.0
C703 C 0.46383 0.96023 0.42858 0.0
C704 C 0.45987 0.99411 0.43626 0.0
C705 C 0.41616 0.99953 0.43516 0.0
C706 C 0.42434 0.8938 0.41249 0.0
C707 C 0.50299 0.02645 0.44487 0.0
H708 H 0.59086 0.93094 0.44837 0.0
H709 H 0.62319 1.00812 0.40888 0.0
H710 H 0.48636 0.93452 0.4587 0.0
H711 H 0.45809 0.89084 0.44614 0.0
H712 H 0.50938 0.89462 0.45764 0.0
H713 H 0.56208 0.01874 0.39558 0.0
H714 H 0.49826 0.9824 0.39879 0.0
H715 H 0.52549 0.03099 0.40907 0.0
H716 H 0.3473 0.91545 0.41321 0.0
H717 H 0.41442 0.02686 0.44042 0.0
H718 H 0.44176 0.87777 0.41952 0.0
H719 H 0.44765 0.90588 0.40238 0.0
H720 H 0.38708 0.87007 0.40897 0.0
H721 H 0.51795 1.01036 0.45275 0.0
H722 H 0.49257 0.04865 0.45127 0.0
H723 H 0.53318 0.0453 0.43702 0.0
C724 C 0.47689 0.43268 0.78186 0.0
C725 C 0.47934 0.40605 0.77047 0.0
C726 C 0.51127 0.47582 0.78258 0.0
C727 C 0.54835 0.49315 0.77144 0.0
C728 C 0.54976 0.46662 0.75964 0.0
C729 C 0.51575 0.42348 0.7594 0.0
C730 C 0.50894 0.50249 0.79554 0.0
C731 C 0.58773 0.48366 0.74734 0.0
C732 C 0.61916 0.61364 0.76597 0.0
C733 C 0.66545 0.62169 0.77209 0.0
C734 C 0.5803 0.57217 0.7659 0.0
C735 C 0.58748 0.53816 0.77248 0.0
C736 C 0.63358 0.5468 0.77929 0.0
C737 C 0.67208 0.58817 0.7788 0.0
C738 C 0.53236 0.56442 0.75819 0.0
C739 C 0.64277 0.51207 0.78679 0.0
H740 H 0.4491 0.41933 0.79049 0.0
H741 H 0.51742 0.40325 0.75046 0.0
H742 H 0.54334 0.5128 0.80224 0.0
H743 H 0.50667 0.53161 0.79144 0.0
H744 H 0.47675 0.48495 0.80294 0.0
H745 H 0.58157 0.45992 0.73838 0.0
H746 H 0.58682 0.51243 0.74232 0.0
H747 H 0.62535 0.49317 0.75199 0.0
H748 H 0.6142 0.63944 0.76064 0.0
H749 H 0.70779 0.59444 0.78361 0.0
H750 H 0.50059 0.54775 0.76579 0.0
H751 H 0.5272 0.54352 0.74839 0.0
H752 H 0.5315 0.59439 0.75434 0.0
H753 H 0.61275 0.49465 0.79488 0.0
H754 H 0.67878 0.52464 0.79277 0.0
H755 H 0.64261 0.48881 0.77834 0.0
C756 C 0.36281 0.94763 0.59456 0.0
C757 C 0.35172 0.97107 0.60553 0.0
C758 C 0.40601 0.94094 0.5954 0.0
C759 C 0.43938 0.95821 0.60744 0.0
C760 C 0.42693 0.97977 0.61897 0.0
C761 C 0.38342 0.98587 0.61789 0.0
C762 C 0.41734 0.91749 0.5829 0.0
C763 C 0.46115 0.99875 0.63204 0.0
C764 C 0.55046 0.93274 0.61475 0.0
C765 C 0.58931 0.96887 0.60876 0.0
C766 C 0.50093 0.92769 0.61394 0.0
C767 C 0.49022 0.95942 0.60695 0.0
C768 C 0.52926 0.99454 0.60015 0.0
C769 C 0.57796 0.9988 0.60118 0.0
C770 C 0.46051 0.88961 0.62125 0.0
C771 C 0.5201 0.02903 0.59242 0.0
H772 H 0.33863 0.93572 0.58499 0.0
H773 H 0.37537 1.00387 0.62648 0.0
H774 H 0.44795 0.94039 0.57599 0.0
H775 H 0.42978 0.89409 0.58744 0.0
H776 H 0.38477 0.90064 0.57558 0.0
H777 H 0.44386 1.01031 0.64086 0.0
H778 H 0.47228 0.97502 0.63701 0.0
H779 H 0.49535 0.0259 0.62814 0.0
H780 H 0.55899 0.90978 0.6208 0.0
H781 H 0.60781 0.02678 0.59649 0.0
H782 H 0.42809 0.8751 0.61372 0.0
H783 H 0.44786 0.89982 0.6315 0.0
H784 H 0.4733 0.86513 0.62435 0.0
H785 H 0.49065 1.01502 0.58389 0.0
H786 H 0.55389 0.05284 0.58689 0.0
H787 H 0.50711 0.0457 0.60067 0.0
C788 C 0.4993 0.38129 0.94967 0.0
C789 C 0.45322 0.37516 0.94375 0.0
C790 C 0.54164 0.41976 0.94774 0.0
C791 C 0.53835 0.45313 0.93952 0.0
C792 C 0.49237 0.44693 0.93316 0.0
C793 C 0.45038 0.40813 0.93538 0.0
C794 C 0.58985 0.42488 0.95471 0.0
C795 C 0.48736 0.48158 0.92423 0.0
C796 C 0.63759 0.56478 0.94746 0.0
C797 C 0.6716 0.57071 0.93591 0.0
C798 C 0.59363 0.52711 0.94859 0.0
C799 C 0.58306 0.49458 0.93783 0.0
C800 C 0.61667 0.50081 0.92594 0.0
C801 C 0.66054 0.53864 0.92516 0.0
C802 C 0.55912 0.52167 0.96153 0.0
C803 C 0.60666 0.46721 0.91415 0.0
H804 H 0.50241 0.35592 0.95587 0.0
H805 H 0.4151 0.40408 0.93085 0.0
H806 H 0.6187 0.4325 0.94598 0.0
H807 H 0.60295 0.45178 0.9627 0.0
H808 H 0.58632 0.39585 0.96072 0.0
H809 H 0.44972 0.47116 0.91943 0.0
H810 H 0.49541 0.50962 0.93144 0.0
H811 H 0.51475 0.492 0.915 0.0
H812 H 0.64601 0.58918 0.95587 0.0
H813 H 0.68616 0.54321 0.91607 0.0
H814 H 0.55677 0.49476 0.96861 0.0
H815 H 0.52126 0.51385 0.95738 0.0
H816 H 0.5715 0.55063 0.96857 0.0
H817 H 0.60593 0.43804 0.91933 0.0
H818 H 0.63506 0.47784 0.90519 0.0
H819 H 0.5698 0.45851 0.90904 0.0
C820 C 0.02889 0.61587 0.25876 0.0
C821 C 1.01103 0.62644 0.27187 0.0
C822 C 0.03522 0.57822 0.25774 0.0
C823 C 0.02357 0.55031 0.27013 0.0
C824 C 1.00543 0.56071 0.28338 0.0
C825 C 0.99936 0.59851 0.28408 0.0
C826 C 0.05442 0.56829 0.24338 0.0
C827 C 0.99279 0.53206 0.29689 0.0
C828 C 0.99975 0.43484 0.26374 0.0
C829 C 0.04543 0.43533 0.26766 0.0
C830 C 0.99212 0.47193 0.26448 0.0
C831 C 0.03098 0.51054 0.26933 0.0
C832 C 0.07699 0.51115 0.27343 0.0
C833 C 0.08366 0.47366 0.27252 0.0
C834 C 0.94258 0.46988 0.25992 0.0
C835 C 0.1193 0.55147 0.27878 0.0
H836 H 0.03741 0.63683 0.2492 0.0
H837 H 0.98624 0.60651 0.29434 0.0
H838 H 0.0895 0.56561 0.2455 0.0
H839 H 0.02747 0.53722 0.23895 0.0
H840 H 0.06126 0.59296 0.2347 0.0
H841 H 0.9785 0.54435 0.30628 0.0
H842 H 0.96448 0.49987 0.29392 0.0
H843 H 0.02612 0.52862 0.30073 0.0
H844 H 0.97021 0.40564 0.25976 0.0
H845 H 0.11884 0.4743 0.27574 0.0
H846 H 0.94748 0.49199 0.2505 0.0
H847 H 0.92618 0.48019 0.26931 0.0
H848 H 0.91607 0.43741 0.25648 0.0
H849 H 0.12948 0.57628 0.27001 0.0
H850 H 0.15262 0.54663 0.28165 0.0
H851 H 0.10778 0.56376 0.28876 0.0
C852 C 1.01269 0.114 0.07443 0.0
C853 C 0.97659 0.11478 0.08428 0.0
C854 C 0.02379 0.0787 0.0737 0.0
C855 C 0.99833 0.04321 0.08309 0.0
C856 C 0.96117 0.04344 0.09284 0.0
C857 C 0.95072 0.07908 0.0933 0.0
C858 C 0.06341 0.07971 0.06307 0.0
C859 C 0.93327 1.0064 0.1031 0.0
C860 C 0.99765 0.93574 0.07452 0.0
C861 C 0.03357 0.93498 0.08445 0.0
C862 C 0.98646 0.97099 0.07374 0.0
C863 C 1.01164 1.00645 0.08314 0.0
C864 C 0.04859 1.00624 0.09298 0.0
C865 C 0.05912 0.97065 0.0935 0.0
C866 C 0.94709 0.96998 0.06301 0.0
C867 C 0.07621 0.04324 0.10325 0.0
H868 H 0.03244 0.14114 0.06729 0.0
H869 H 0.92327 0.07944 0.10109 0.0
H870 H 0.09444 0.0783 0.06945 0.0
H871 H 0.04843 0.05151 0.05566 0.0
H872 H 0.07824 0.10881 0.05605 0.0
H873 H 0.90426 1.01079 0.10963 0.0
H874 H 0.91552 0.97665 0.09655 0.0
H875 H 0.95941 1.00226 0.111 0.0
H876 H 0.97813 0.90863 0.06737 0.0
H877 H 0.08639 0.97032 0.10137 0.0
H878 H 0.96232 0.9981 0.05555 0.0
H879 H 0.91601 0.97158 0.0693 0.0
H880 H 0.93228 0.94081 0.05605 0.0
H881 H 0.09414 0.07302 0.0967 0.0
H882 H 0.10505 0.03885 0.10987 0.0
H883 H 0.04986 0.04737 0.11107 0.0
C884 C 0.88285 0.96262 0.43893 0.0
C885 C 0.86598 0.97947 0.4271 0.0
C886 C 0.92691 0.95748 0.43778 0.0
C887 C 0.95508 0.96927 0.42446 0.0
C888 C 0.93657 0.98364 0.41214 0.0
C889 C 0.89244 0.98866 0.41361 0.0
C890 C 0.94498 0.94213 0.45123 0.0
C891 C 0.96498 0.99624 0.39767 0.0
C892 C 0.09545 1.01647 0.42732 0.0
C893 C 0.10642 0.98326 0.42239 0.0
C894 C 0.04659 1.01175 0.42836 0.0
C895 C 1.00696 0.97286 0.42418 0.0
C896 C 1.01749 0.9386 0.41957 0.0
C897 C 0.06718 0.94409 0.41883 0.0
C898 C 0.03756 0.049 0.43361 0.0
C899 C 0.97644 0.8967 0.41495 0.0
H900 H 0.86276 0.95509 0.4494 0.0
H901 H 0.87982 1.00147 0.40436 0.0
H902 H 0.95746 0.91763 0.44797 0.0
H903 H 0.97727 0.96909 0.45615 0.0
H904 H 0.91595 0.92869 0.45995 0.0
H905 H 0.94277 1.00119 0.38857 0.0
H906 H 0.99886 0.02623 0.3993 0.0
H907 H 0.97691 0.9716 0.39412 0.0
H908 H 0.12551 0.04676 0.43023 0.0
H909 H 0.07537 0.91844 0.41488 0.0
H910 H 1.01168 0.03945 0.44323 0.0
H911 H 1.02005 0.05948 0.42456 0.0
H912 H 0.07225 0.07647 0.43702 0.0
H913 H 0.94754 0.88473 0.42374 0.0
H914 H 0.99013 0.87226 0.41275 0.0
H915 H 0.95854 0.90118 0.40468 0.0
C916 C 0.15568 0.09337 0.78427 0.0
C917 C 0.19955 0.09566 0.77785 0.0
C918 C 0.11168 0.05556 0.78395 0.0
C919 C 0.11111 0.01904 0.77686 0.0
C920 C 0.15516 0.02127 0.77021 0.0
C921 C 0.19887 0.05939 0.77088 0.0
C922 C 0.06592 0.05453 0.7914 0.0
C923 C 0.15612 0.98335 0.76236 0.0
C924 C 1.01312 0.91015 0.78861 0.0
C925 C 0.97737 0.90076 0.77734 0.0
C926 C 0.05649 0.94844 0.7886 0.0
C927 C 0.06495 0.97815 0.77692 0.0
C928 C 0.02906 0.96887 0.76547 0.0
C929 C 0.98555 0.93049 0.76588 0.0
C930 C 0.09314 0.95721 0.80118 0.0
C931 C 0.03681 0.99938 0.75272 0.0
H932 H 0.15601 0.1211 0.78979 0.0
H933 H 0.23237 0.06106 0.76571 0.0
H934 H 0.0352 0.04514 0.78323 0.0
H935 H 0.05373 0.03037 0.80042 0.0
H936 H 0.07224 0.08574 0.79627 0.0
H937 H 0.19273 0.99064 0.75727 0.0
H938 H 0.1471 0.95681 0.77039 0.0
H939 H 0.12753 0.97214 0.75348 0.0
H940 H 1.00676 0.88776 0.79764 0.0
H941 H 0.95828 0.92332 0.7571 0.0
H942 H 0.09853 0.98701 0.80697 0.0
H943 H 0.12963 0.96183 0.79668 0.0
H944 H 0.08093 0.93105 0.8095 0.0
H945 H 0.04046 0.03037 0.75707 0.0
H946 H 1.00588 0.98725 0.74456 0.0
H947 H 0.07176 1.00534 0.7468 0.0
C948 C 0.86823 0.93737 0.6131 0.0
C949 C 0.87007 0.97803 0.61483 0.0
C950 C 0.91219 0.93138 0.61324 0.0
C951 C 0.95883 0.96681 0.61519 0.0
C952 C 0.9606 1.00781 0.61665 0.0
C953 C 0.91663 1.01282 0.6164 0.0
C954 C 0.90876 0.8872 0.61153 0.0
C955 C 1.00911 0.04668 0.61874 0.0
C956 C 0.0756 0.96514 0.6313 0.0
C957 C 0.10664 0.97526 0.61873 0.0
C958 C 0.02591 0.95871 0.63013 0.0
C959 C 1.00637 0.96217 0.61604 0.0
C960 C 0.03641 0.96908 0.60317 0.0
C961 C 0.0861 0.97574 0.60467 0.0
C962 C 0.99557 0.95159 0.64419 0.0
C963 C 1.01725 0.9726 0.5879 0.0
H964 H 0.83262 0.91029 0.61189 0.0
H965 H 0.91901 0.04456 0.61761 0.0
H966 H 0.93352 0.88652 0.60242 0.0
H967 H 0.92142 0.87773 0.62195 0.0
H968 H 0.87042 0.86343 0.60909 0.0
H969 H 1.00415 0.07639 0.61963 0.0
H970 H 0.02779 0.04327 0.62901 0.0
H971 H 0.03419 0.04998 0.60922 0.0
H972 H 0.09077 0.9644 0.64222 0.0
H973 H 0.10941 0.98303 0.59484 0.0
H974 H 0.95784 0.92588 0.64255 0.0
H975 H 0.99159 0.98099 0.64695 0.0
H976 H 1.01302 0.94329 0.65384 0.0
H977 H 0.97928 0.94727 0.58623 0.0
H978 H 0.04152 0.97051 0.57887 0.0
H979 H 1.01536 1.00359 0.58691 0.0
C980 C 0.96917 0.89731 0.948 0.0
C981 C 0.97661 0.86685 0.93947 0.0
C982 C 1.00545 0.93959 0.94874 0.0
C983 C 0.04994 0.95201 0.9405 0.0
C984 C 0.05716 0.92152 0.93162 0.0
C985 C 1.02069 0.87927 0.93134 0.0
C986 C 0.99663 0.97075 0.9586 0.0
C987 C 0.10354 0.93351 0.92243 0.0
C988 C 0.12806 0.06995 0.93271 0.0
C989 C 0.16671 0.07996 0.94302 0.0
C990 C 0.08979 0.0285 0.93175 0.0
C991 C 0.08963 0.99647 0.94154 0.0
C992 C 0.128 1.00676 0.9522 0.0
C993 C 0.16621 0.04818 0.95271 0.0
C994 C 0.05009 0.01878 0.92006 0.0
C995 C 0.1288 0.97394 0.96306 0.0
H996 H 0.93541 0.88773 0.95443 0.0
H997 H 0.02631 0.85593 0.92461 0.0
H998 H 0.02577 0.98303 0.9673 0.0
H999 H 0.99905 0.99838 0.95193 0.0
H1000 H 0.95991 0.95623 0.96417 0.0
H1001 H 0.10248 0.90664 0.91556 0.0
H1002 H 0.10873 0.96044 0.91493 0.0
H1003 H 0.13629 0.94423 0.92987 0.0
H1004 H 0.12854 0.0943 0.92511 0.0
H1005 H 0.19562 0.05592 0.96083 0.0
H1006 H 1.0131 1.00613 0.92542 0.0
H1007 H 0.05024 0.99385 0.9124 0.0
H1008 H 0.05525 0.04723 0.91338 0.0
H1009 H 0.09364 0.96004 0.96945 0.0
H1010 H 0.16009 0.98744 0.97106 0.0
H1011 H 0.1319 0.94762 0.95689 0.0
C1012 C 0.97191 0.93451 0.27891 0.0
C1013 C 1.00321 0.92085 0.27119 0.0
C1014 C 0.98072 0.97756 0.27889 0.0
C1015 C 1.02169 1.00764 0.2709 0.0
C1016 C 0.05335 0.99403 0.26308 0.0
C1017 C 0.04372 0.95094 0.26331 0.0
C1018 C 0.94614 0.99085 0.28738 0.0
C1019 C 0.09721 0.02494 0.25433 0.0
C1020 C 1.01998 0.11114 0.25822 0.0
C1021 C 0.0509 0.14025 0.26875 0.0
C1022 C 1.00977 0.06792 0.25889 0.0
C1023 C 0.03102 0.05325 0.27037 0.0
C1024 C 0.06241 0.08241 0.28102 0.0
C1025 C 0.07203 0.12554 0.28007 0.0
C1026 C 0.97646 0.038 0.24724 0.0
C1027 C 0.08579 0.06801 0.29343 0.0
H1028 H 0.94083 0.9116 0.28512 0.0
H1029 H 0.06758 0.94077 0.25703 0.0
H1030 H 0.96724 1.01543 0.29575 0.0
H1031 H 0.92876 1.00525 0.27962 0.0
H1032 H 0.91642 0.96375 0.29322 0.0
H1033 H 0.11881 1.00939 0.24908 0.0
H1034 H 0.08442 0.04 0.24543 0.0
H1035 H 0.12218 0.0507 0.26174 0.0
H1036 H 1.00405 0.12225 0.24932 0.0
H1037 H 0.09539 0.14759 0.28837 0.0
H1038 H 0.94461 1.01184 0.25269 0.0
H1039 H 0.99702 0.02336 0.24092 0.0
H1040 H 0.96205 0.05427 0.23922 0.0
H1041 H 0.05662 0.043 0.30016 0.0
H1042 H 0.10876 0.0945 0.30094 0.0
H1043 H 0.10946 0.05382 0.28866 0.0
loop_
_geom_bond_atom_site_label_1
_geom_bond_atom_site_label_2
_geom_bond_distance
_geom_bond_site_symmetry_2
_ccdc_geom_bond_type
Cu0 N1 1.999 . S
Cu0 O6 1.974 1_655 S
Cu0 N11 1.985 . S
Cu0 O20 1.959 . S
N1 Cu0 1.999 . S
N1 C3 1.263 . S
N1 C5 1.389 . S
N2 C3 1.358 . S
N2 C4 1.400 . S
C3 N1 1.263 . S
C3 N2 1.358 . S
C3 H9 0.930 1_655 S
C4 N2 1.400 . S
C4 C5 1.351 . S
C4 H21 0.930 . S
C5 N1 1.389 . S
C5 C4 1.351 . S
C5 H10 0.930 . S
O6 Cu0 1.974 1_455 S
O6 C16 1.282 . S
C7 O8 1.261 1_655 S
C7 O20 1.251 . S
O8 C7 1.261 1_455 S
H9 C3 0.930 1_455 S
H10 C5 0.930 . S
N11 Cu0 1.985 . S
N11 C13 1.335 . S
N11 C14 1.390 1_655 S
N12 C13 1.345 . S
N12 C15 1.336 1_655 S
C13 N11 1.335 . S
C13 N12 1.345 . S
C13 H18 0.930 . S
C14 N11 1.390 1_455 S
C14 C15 1.346 . S
C14 H19 0.930 . S
C15 N12 1.336 1_455 S
C15 C14 1.346 . S
C15 H22 0.929 . S
C16 O6 1.282 . S
C16 O17 1.216 . S
O17 C16 1.216 . S
H18 C13 0.930 . S
H19 C14 0.930 . S
O20 Cu0 1.959 . S
O20 C7 1.251 . S
H21 C4 0.930 . S
H22 C15 0.929 . S
Cu23 N24 1.999 . S
Cu23 O29 1.974 . S
Cu23 N34 1.985 . S
Cu23 O43 1.959 . S
N24 Cu23 1.999 . S
N24 C26 1.263 . S
N24 C28 1.389 . S
N25 C26 1.358 . S
N25 C27 1.400 . S
C26 N24 1.263 . S
C26 N25 1.358 . S
C26 H32 0.930 . S
C27 N25 1.400 . S
C27 C28 1.351 . S
C27 H44 0.930 . S
C28 N24 1.389 . S
C28 C27 1.351 . S
C28 H33 0.930 . S
O29 Cu23 1.974 . S
O29 C39 1.282 . S
C30 O31 1.261 1_545 S
C30 O43 1.251 . S
O31 C30 1.261 1_565 S
H32 C26 0.930 . S
H33 C28 0.930 . S
N34 Cu23 1.985 . S
N34 C36 1.335 . S
N34 C37 1.390 . S
N35 C36 1.345 . S
N35 C38 1.336 . S
C36 N34 1.335 . S
C36 N35 1.345 . S
C36 H41 0.930 . S
C37 N34 1.390 . S
C37 C38 1.346 . S
C37 H42 0.930 . S
C38 N35 1.336 . S
C38 C37 1.346 . S
C38 H45 0.929 . S
C39 O29 1.282 . S
C39 O40 1.216 1_545 S
O40 C39 1.216 1_565 S
H41 C36 0.930 . S
H42 C37 0.930 . S
O43 Cu23 1.959 . S
O43 C30 1.251 . S
H44 C27 0.930 . S
H45 C38 0.929 . S
Cu46 N47 1.999 . S
Cu46 O52 1.974 . S
Cu46 N57 1.985 . S
Cu46 O66 1.959 . S
N47 Cu46 1.999 . S
N47 C49 1.263 . S
N47 C51 1.389 . S
N48 C49 1.358 . S
N48 C50 1.400 . S
C49 N47 1.263 . S
C49 N48 1.358 . S
C49 H55 0.930 . S
C50 N48 1.400 . S
C50 C51 1.351 . S
C50 H67 0.930 . S
C51 N47 1.389 . S
C51 C50 1.351 . S
C51 H56 0.930 . S
O52 Cu46 1.974 . S
O52 C62 1.282 . S
C53 O54 1.261 . S
C53 O66 1.251 . S
O54 C53 1.261 . S
H55 C49 0.930 . S
H56 C51 0.930 . S
N57 Cu46 1.985 . S
N57 C59 1.335 . S
N57 C60 1.390 . S
N58 C59 1.345 . S
N58 C61 1.336 . S
C59 N57 1.335 . S
C59 N58 1.345 . S
C59 H64 0.930 . S
C60 N57 1.390 . S
C60 C61 1.346 . S
C60 H65 0.930 . S
C61 N58 1.336 . S
C61 C60 1.346 . S
C61 H68 0.929 . S
C62 O52 1.282 . S
C62 O63 1.216 . S
O63 C62 1.216 . S
H64 C59 0.930 . S
H65 C60 0.930 . S
O66 Cu46 1.959 . S
O66 C53 1.251 . S
H67 C50 0.930 . S
H68 C61 0.929 . S
Cu69 N70 1.999 . S
Cu69 O75 1.974 1_455 S
Cu69 N80 1.985 . S
Cu69 O89 1.959 . S
N70 Cu69 1.999 . S
N70 C72 1.263 . S
N70 C74 1.389 . S
N71 C72 1.358 . S
N71 C73 1.400 . S
C72 N70 1.263 . S
C72 N71 1.358 . S
C72 H78 0.930 1_455 S
C73 N71 1.400 . S
C73 C74 1.351 . S
C73 H90 0.930 . S
C74 N70 1.389 . S
C74 C73 1.351 . S
C74 H79 0.930 . S
O75 Cu69 1.974 1_655 S
O75 C85 1.282 . S
C76 O77 1.261 1_455 S
C76 O89 1.251 . S
O77 C76 1.261 1_655 S
H78 C72 0.930 1_655 S
H79 C74 0.930 . S
N80 Cu69 1.985 . S
N80 C82 1.335 . S
N80 C83 1.390 1_455 S
N81 C82 1.345 . S
N81 C84 1.336 1_455 S
C82 N80 1.335 . S
C82 N81 1.345 . S
C82 H87 0.930 . S
C83 N80 1.390 1_655 S
C83 C84 1.346 . S
C83 H88 0.930 . S
C84 N81 1.336 1_655 S
C84 C83 1.346 . S
C84 H91 0.929 . S
C85 O75 1.282 . S
C85 O86 1.216 . S
O86 C85 1.216 . S
H87 C82 0.930 . S
H88 C83 0.930 . S
O89 Cu69 1.959 . S
O89 C76 1.251 . S
H90 C73 0.930 . S
H91 C84 0.929 . S
Cu92 N93 1.999 . S
Cu92 O98 1.974 . S
Cu92 N103 1.985 . S
Cu92 O112 1.959 . S
N93 Cu92 1.999 . S
N93 C95 1.263 . S
N93 C97 1.389 . S
N94 C95 1.358 . S
N94 C96 1.400 . S
C95 N93 1.263 . S
C95 N94 1.358 . S
C95 H101 0.930 . S
C96 N94 1.400 . S
C96 C97 1.351 . S
C96 H113 0.930 . S
C97 N93 1.389 . S
C97 C96 1.351 . S
C97 H102 0.930 . S
O98 Cu92 1.974 . S
O98 C108 1.282 . S
C99 O100 1.261 1_565 S
C99 O112 1.251 . S
O100 C99 1.261 1_545 S
H101 C95 0.930 . S
H102 C97 0.930 . S
N103 Cu92 1.985 . S
N103 C105 1.335 . S
N103 C106 1.390 . S
N104 C105 1.345 . S
N104 C107 1.336 . S
C105 N103 1.335 . S
C105 N104 1.345 . S
C105 H110 0.930 . S
C106 N103 1.390 . S
C106 C107 1.346 . S
C106 H111 0.930 . S
C107 N104 1.336 . S
C107 C106 1.346 . S
C107 H114 0.929 . S
C108 O98 1.282 . S
C108 O109 1.216 1_565 S
O109 C108 1.216 1_545 S
H110 C105 0.930 . S
H111 C106 0.930 . S
O112 Cu92 1.959 . S
O112 C99 1.251 . S
H113 C96 0.930 . S
H114 C107 0.929 . S
Cu115 N116 1.999 . S
Cu115 O121 1.974 . S
Cu115 N126 1.985 . S
Cu115 O135 1.959 . S
N116 Cu115 1.999 . S
N116 C118 1.263 . S
N116 C120 1.389 . S
N117 C118 1.358 . S
N117 C119 1.400 . S
C118 N116 1.263 . S
C118 N117 1.358 . S
C118 H124 0.930 . S
C119 N117 1.400 . S
C119 C120 1.351 . S
C119 H136 0.930 . S
C120 N116 1.389 . S
C120 C119 1.351 . S
C120 H125 0.930 . S
O121 Cu115 1.974 . S
O121 C131 1.282 . S
C122 O123 1.261 . S
C122 O135 1.251 . S
O123 C122 1.261 . S
H124 C118 0.930 . S
H125 C120 0.930 . S
N126 Cu115 1.985 . S
N126 C128 1.335 . S
N126 C129 1.390 . S
N127 C128 1.345 . S
N127 C130 1.336 . S
C128 N126 1.335 . S
C128 N127 1.345 . S
C128 H133 0.930 . S
C129 N126 1.390 . S
C129 C130 1.346 . S
C129 H134 0.930 . S
C130 N127 1.336 . S
C130 C129 1.346 . S
C130 H137 0.929 . S
C131 O121 1.282 . S
C131 O132 1.216 . S
O132 C131 1.216 . S
H133 C128 0.930 . S
H134 C129 0.930 . S
O135 Cu115 1.959 . S
O135 C122 1.251 . S
H136 C119 0.930 . S
H137 C130 0.929 . S
Cu138 N139 1.999 . S
Cu138 O144 1.974 . S
Cu138 N149 1.985 . S
Cu138 O158 1.959 . S
N139 Cu138 1.999 . S
N139 C141 1.263 . S
N139 C143 1.389 . S
N140 C141 1.358 . S
N140 C142 1.400 . S
C141 N139 1.263 . S
C141 N140 1.358 . S
C141 H147 0.930 . S
C142 N140 1.400 . S
C142 C143 1.351 . S
C142 H159 0.930 . S
C143 N139 1.389 . S
C143 C142 1.351 . S
C143 H148 0.930 . S
O144 Cu138 1.974 . S
O144 C154 1.282 . S
C145 O146 1.261 1_565 S
C145 O158 1.251 . S
O146 C145 1.261 1_545 S
H147 C141 0.930 . S
H148 C143 0.930 . S
N149 Cu138 1.985 . S
N149 C151 1.335 . S
N149 C152 1.390 . S
N150 C151 1.345 . S
N150 C153 1.336 . S
C151 N149 1.335 . S
C151 N150 1.345 . S
C151 H156 0.930 . S
C152 N149 1.390 . S
C152 C153 1.346 . S
C152 H157 0.930 . S
C153 N150 1.336 . S
C153 C152 1.346 . S
C153 H160 0.929 . S
C154 O144 1.282 . S
C154 O155 1.216 1_565 S
O155 C154 1.216 1_545 S
H156 C151 0.930 . S
H157 C152 0.930 . S
O158 Cu138 1.959 . S
O158 C145 1.251 . S
H159 C142 0.930 . S
H160 C153 0.929 . S
Cu161 N162 1.999 . S
Cu161 O167 1.974 . S
Cu161 N172 1.985 . S
Cu161 O181 1.959 . S
N162 Cu161 1.999 . S
N162 C164 1.263 . S
N162 C166 1.389 . S
N163 C164 1.358 . S
N163 C165 1.400 . S
C164 N162 1.263 . S
C164 N163 1.358 . S
C164 H170 0.930 . S
C165 N163 1.400 . S
C165 C166 1.351 . S
C165 H182 0.930 . S
C166 N162 1.389 . S
C166 C165 1.351 . S
C166 H171 0.930 . S
O167 Cu161 1.974 . S
O167 C177 1.282 . S
C168 O169 1.261 . S
C168 O181 1.251 . S
O169 C168 1.261 . S
H170 C164 0.930 . S
H171 C166 0.930 . S
N172 Cu161 1.985 . S
N172 C174 1.335 . S
N172 C175 1.390 . S
N173 C174 1.345 . S
N173 C176 1.336 . S
C174 N172 1.335 . S
C174 N173 1.345 . S
C174 H179 0.930 . S
C175 N172 1.390 . S
C175 C176 1.346 . S
C175 H180 0.930 . S
C176 N173 1.336 . S
C176 C175 1.346 . S
C176 H183 0.929 . S
C177 O167 1.282 . S
C177 O178 1.216 . S
O178 C177 1.216 . S
H179 C174 0.930 . S
H180 C175 0.930 . S
O181 Cu161 1.959 . S
O181 C168 1.251 . S
H182 C165 0.930 . S
H183 C176 0.929 . S
Cu184 N185 1.999 . S
Cu184 O190 1.974 1_655 S
Cu184 N195 1.985 1_655 S
Cu184 O204 1.959 . S
N185 Cu184 1.999 . S
N185 C187 1.263 1_655 S
N185 C189 1.389 . S
N186 C187 1.358 1_655 S
N186 C188 1.400 . S
C187 N185 1.263 1_455 S
C187 N186 1.358 1_455 S
C187 H193 0.930 . S
C188 N186 1.400 . S
C188 C189 1.351 . S
C188 H205 0.930 . S
C189 N185 1.389 . S
C189 C188 1.351 . S
C189 H194 0.930 . S
O190 Cu184 1.974 1_455 S
O190 C200 1.282 . S
C191 O192 1.261 . S
C191 O204 1.251 1_455 S
O192 C191 1.261 . S
H193 C187 0.930 . S
H194 C189 0.930 . S
N195 Cu184 1.985 1_455 S
N195 C197 1.335 1_455 S
N195 C198 1.390 . S
N196 C197 1.345 1_455 S
N196 C199 1.336 . S
C197 N195 1.335 1_655 S
C197 N196 1.345 1_655 S
C197 H202 0.930 . S
C198 N195 1.390 . S
C198 C199 1.346 . S
C198 H203 0.930 . S
C199 N196 1.336 . S
C199 C198 1.346 . S
C199 H206 0.929 . S
C200 O190 1.282 . S
C200 O201 1.216 . S
O201 C200 1.216 . S
H202 C197 0.930 . S
H203 C198 0.930 . S
O204 Cu184 1.959 . S
O204 C191 1.251 1_655 S
H205 C188 0.930 . S
H206 C199 0.929 . S
Cu207 N208 1.999 . S
Cu207 O213 1.974 . S
Cu207 N218 1.985 . S
Cu207 O227 1.959 . S
N208 Cu207 1.999 . S
N208 C210 1.263 . S
N208 C212 1.389 . S
N209 C210 1.358 . S
N209 C211 1.400 . S
C210 N208 1.263 . S
C210 N209 1.358 . S
C210 H216 0.930 . S
C211 N209 1.400 . S
C211 C212 1.351 . S
C211 H228 0.930 . S
C212 N208 1.389 . S
C212 C211 1.351 . S
C212 H217 0.930 . S
O213 Cu207 1.974 . S
O213 C223 1.282 . S
C214 O215 1.261 1_545 S
C214 O227 1.251 . S
O215 C214 1.261 1_565 S
H216 C210 0.930 . S
H217 C212 0.930 . S
N218 Cu207 1.985 . S
N218 C220 1.335 . S
N218 C221 1.390 . S
N219 C220 1.345 . S
N219 C222 1.336 . S
C220 N218 1.335 . S
C220 N219 1.345 . S
C220 H225 0.930 . S
C221 N218 1.390 . S
C221 C222 1.346 . S
C221 H226 0.930 . S
C222 N219 1.336 . S
C222 C221 1.346 . S
C222 H229 0.929 . S
C223 O213 1.282 . S
C223 O224 1.216 1_545 S
O224 C223 1.216 1_565 S
H225 C220 0.930 . S
H226 C221 0.930 . S
O227 Cu207 1.959 . S
O227 C214 1.251 . S
H228 C211 0.930 . S
H229 C222 0.929 . S
Cu230 N231 1.999 . S
Cu230 O236 1.974 . S
Cu230 N241 1.985 . S
Cu230 O250 1.959 . S
N231 Cu230 1.999 . S
N231 C233 1.263 . S
N231 C235 1.389 . S
N232 C233 1.358 . S
N232 C234 1.400 . S
C233 N231 1.263 . S
C233 N232 1.358 . S
C233 H239 0.930 . S
C234 N232 1.400 . S
C234 C235 1.351 . S
C234 H251 0.930 . S
C235 N231 1.389 . S
C235 C234 1.351 . S
C235 H240 0.930 . S
O236 Cu230 1.974 . S
O236 C246 1.282 . S
C237 O238 1.261 . S
C237 O250 1.251 . S
O238 C237 1.261 . S
H239 C233 0.930 . S
H240 C235 0.930 . S
N241 Cu230 1.985 . S
N241 C243 1.335 . S
N241 C244 1.390 . S
N242 C243 1.345 . S
N242 C245 1.336 . S
C243 N241 1.335 . S
C243 N242 1.345 . S
C243 H248 0.930 . S
C244 N241 1.390 . S
C244 C245 1.346 . S
C244 H249 0.930 . S
C245 N242 1.336 . S
C245 C244 1.346 . S
C245 H252 0.929 . S
C246 O236 1.282 . S
C246 O247 1.216 . S
O247 C246 1.216 . S
H248 C243 0.930 . S
H249 C244 0.930 . S
O250 Cu230 1.959 . S
O250 C237 1.251 . S
H251 C234 0.930 . S
H252 C245 0.929 . S
Cu253 N254 1.999 . S
Cu253 O259 1.974 1_455 S
Cu253 N264 1.985 1_455 S
Cu253 O273 1.959 . S
N254 Cu253 1.999 . S
N254 C256 1.263 1_455 S
N254 C258 1.389 . S
N255 C256 1.358 1_455 S
N255 C257 1.400 . S
C256 N254 1.263 1_655 S
C256 N255 1.358 1_655 S
C256 H262 0.930 . S
C257 N255 1.400 . S
C257 C258 1.351 . S
C257 H274 0.930 . S
C258 N254 1.389 . S
C258 C257 1.351 . S
C258 H263 0.930 . S
O259 Cu253 1.974 1_655 S
O259 C269 1.282 . S
C260 O261 1.261 . S
C260 O273 1.251 1_655 S
O261 C260 1.261 . S
H262 C256 0.930 . S
H263 C258 0.930 . S
N264 Cu253 1.985 1_655 S
N264 C266 1.335 1_655 S
N264 C267 1.390 . S
N265 C266 1.345 1_655 S
N265 C268 1.336 . S
C266 N264 1.335 1_455 S
C266 N265 1.345 1_455 S
C266 H271 0.930 . S
C267 N264 1.390 . S
C267 C268 1.346 . S
C267 H272 0.930 . S
C268 N265 1.336 . S
C268 C267 1.346 . S
C268 H275 0.929 . S
C269 O259 1.282 . S
C269 O270 1.216 . S
O270 C269 1.216 . S
H271 C266 0.930 . S
H272 C267 0.930 . S
O273 Cu253 1.959 . S
O273 C260 1.251 1_455 S
H274 C257 0.930 . S
H275 C268 0.929 . S
C276 C277 1.382 1_655 S
C276 C278 1.394 . S
C276 H292 0.931 . S
C277 C276 1.382 1_455 S
C277 C281 1.385 . S
C278 C276 1.394 . S
C278 C279 1.369 1_655 S
C278 C282 1.531 . S
C279 C278 1.369 1_455 S
C279 C280 1.410 . S
C279 C287 1.503 1_455 S
C280 C279 1.410 . S
C280 C281 1.392 . S
C280 C283 1.511 . S
C281 C277 1.385 . S
C281 C280 1.392 . S
C281 H293 0.929 . S
C282 C278 1.531 . S
C282 H294 0.960 . S
C282 H295 0.962 . S
C282 H296 0.960 . S
C283 C280 1.511 . S
C283 H297 0.961 . S
C283 H298 0.961 . S
C283 H299 0.961 . S
C284 C285 1.370 . S
C284 C286 1.363 . S
C284 H300 0.931 . S
C285 C284 1.370 . S
C285 C289 1.408 1_655 S
C286 C284 1.363 . S
C286 C287 1.370 . S
C286 C290 1.524 . S
C287 C279 1.503 1_655 S
C287 C286 1.370 . S
C287 C288 1.403 1_655 S
C288 C287 1.403 1_455 S
C288 C289 1.404 . S
C288 C291 1.539 . S
C289 C285 1.408 1_455 S
C289 C288 1.404 . S
C289 H301 0.930 . S
C290 C286 1.524 . S
C290 H302 0.956 . S
C290 H303 0.961 . S
C290 H304 0.961 . S
C291 C288 1.539 . S
C291 H305 0.958 . S
C291 H306 0.961 . S
C291 H307 0.960 . S
H292 C276 0.931 . S
H293 C281 0.929 . S
H294 C282 0.960 . S
H295 C282 0.962 . S
H296 C282 0.960 . S
H297 C283 0.961 . S
H298 C283 0.961 . S
H299 C283 0.961 . S
H300 C284 0.931 . S
H301 C289 0.930 . S
H302 C290 0.956 . S
H303 C290 0.961 . S
H304 C290 0.961 . S
H305 C291 0.958 . S
H306 C291 0.961 . S
H307 C291 0.960 . S
C308 C309 1.391 1_565 S
C308 C310 1.394 . S
C308 H324 0.931 . S
C309 C308 1.391 1_545 S
C309 C313 1.376 . S
C310 C308 1.394 . S
C310 C311 1.369 . S
C310 C314 1.531 . S
C311 C310 1.369 . S
C311 C312 1.410 1_565 S
C311 C319 1.503 . S
C312 C311 1.410 1_545 S
C312 C313 1.392 . S
C312 C315 1.511 . S
C313 C309 1.376 . S
C313 C312 1.392 . S
C313 H325 0.929 . S
C314 C310 1.531 . S
C314 H326 0.960 . S
C314 H327 0.962 . S
C314 H328 0.960 . S
C315 C312 1.511 . S
C315 H329 0.961 . S
C315 H330 0.961 . S
C315 H331 0.961 1_545 S
C316 C317 1.370 1_545 S
C316 C318 1.363 . S
C316 H332 0.931 . S
C317 C316 1.370 1_565 S
C317 C321 1.408 . S
C318 C316 1.363 . S
C318 C319 1.370 1_545 S
C318 C322 1.524 . S
C319 C311 1.503 . S
C319 C318 1.370 1_565 S
C319 C320 1.403 . S
C320 C319 1.403 . S
C320 C321 1.404 . S
C320 C323 1.539 . S
C321 C317 1.408 . S
C321 C320 1.404 . S
C321 H333 0.930 . S
C322 C318 1.524 . S
C322 H334 0.956 . S
C322 H335 0.961 . S
C322 H336 0.961 . S
C323 C320 1.539 . S
C323 H337 0.958 . S
C323 H338 0.961 . S
C323 H339 0.960 . S
H324 C308 0.931 . S
H325 C313 0.929 . S
H326 C314 0.960 . S
H327 C314 0.962 . S
H328 C314 0.960 . S
H329 C315 0.961 . S
H330 C315 0.961 . S
H331 C315 0.961 1_565 S
H332 C316 0.931 . S
H333 C321 0.930 . S
H334 C322 0.956 . S
H335 C322 0.961 . S
H336 C322 0.961 . S
H337 C323 0.958 . S
H338 C323 0.961 . S
H339 C323 0.960 . S
C340 C341 1.391 . S
C340 C342 1.394 . S
C340 H356 0.931 . S
C341 C340 1.391 . S
C341 C345 1.376 . S
C342 C340 1.394 . S
C342 C343 1.369 . S
C342 C346 1.531 . S
C343 C342 1.369 . S
C343 C344 1.410 . S
C343 C351 1.503 . S
C344 C343 1.410 . S
C344 C345 1.392 . S
C344 C347 1.511 . S
C345 C341 1.376 . S
C345 C344 1.392 . S
C345 H357 0.929 . S
C346 C342 1.531 . S
C346 H358 0.960 . S
C346 H359 0.962 . S
C346 H360 0.960 . S
C347 C344 1.511 . S
C347 H361 0.961 . S
C347 H362 0.961 . S
C347 H363 0.961 . S
C348 C349 1.370 . S
C348 C350 1.363 . S
C348 H364 0.931 . S
C349 C348 1.370 . S
C349 C353 1.408 . S
C350 C348 1.363 . S
C350 C351 1.370 . S
C350 C354 1.524 . S
C351 C343 1.503 . S
C351 C350 1.370 . S
C351 C352 1.403 . S
C352 C351 1.403 . S
C352 C353 1.404 . S
C352 C355 1.539 . S
C353 C349 1.408 . S
C353 C352 1.404 . S
C353 H365 0.930 . S
C354 C350 1.524 . S
C354 H366 0.956 . S
C354 H367 0.961 . S
C354 H368 0.961 . S
C355 C352 1.539 . S
C355 H369 0.958 . S
C355 H370 0.961 . S
C355 H371 0.960 . S
H356 C340 0.931 . S
H357 C345 0.929 . S
H358 C346 0.960 . S
H359 C346 0.962 . S
H360 C346 0.960 . S
H361 C347 0.961 . S
H362 C347 0.961 . S
H363 C347 0.961 . S
H364 C348 0.931 . S
H365 C353 0.930 . S
H366 C354 0.956 . S
H367 C354 0.961 . S
H368 C354 0.961 . S
H369 C355 0.958 . S
H370 C355 0.961 . S
H371 C355 0.960 . S
C372 C373 1.391 . S
C372 C374 1.394 . S
C372 H388 0.931 . S
C373 C372 1.391 . S
C373 C377 1.376 1_455 S
C374 C372 1.394 . S
C374 C375 1.369 1_455 S
C374 C378 1.531 . S
C375 C374 1.369 1_655 S
C375 C376 1.410 . S
C375 C383 1.504 . S
C376 C375 1.410 . S
C376 C377 1.392 . S
C376 C379 1.511 . S
C377 C373 1.376 1_655 S
C377 C376 1.392 . S
C377 H389 0.929 . S
C378 C374 1.531 . S
C378 H390 0.960 . S
C378 H391 0.962 . S
C378 H392 0.960 . S
C379 C376 1.511 . S
C379 H393 0.961 . S
C379 H394 0.961 . S
C379 H395 0.961 . S
C380 C381 1.385 . S
C380 C382 1.363 . S
C380 H396 0.931 . S
C381 C380 1.385 . S
C381 C385 1.393 1_455 S
C382 C380 1.363 . S
C382 C383 1.355 1_455 S
C382 C386 1.524 . S
C383 C375 1.504 . S
C383 C382 1.355 1_655 S
C383 C384 1.417 . S
C384 C383 1.417 . S
C384 C385 1.404 . S
C384 C387 1.539 . S
C385 C381 1.393 1_655 S
C385 C384 1.404 . S
C385 H397 0.930 . S
C386 C382 1.524 . S
C386 H398 0.956 . S
C386 H399 0.961 . S
C386 H400 0.961 . S
C387 C384 1.539 . S
C387 H401 0.958 . S
C387 H402 0.961 . S
C387 H403 0.960 . S
H388 C372 0.931 . S
H389 C377 0.929 . S
H390 C378 0.960 . S
H391 C378 0.962 . S
H392 C378 0.960 . S
H393 C379 0.961 . S
H394 C379 0.961 . S
H395 C379 0.961 . S
H396 C380 0.931 . S
H397 C385 0.930 . S
H398 C386 0.956 . S
H399 C386 0.961 . S
H400 C386 0.961 . S
H401 C387 0.958 . S
H402 C387 0.961 . S
H403 C387 0.960 . S
C404 C405 1.391 1_565 S
C404 C406 1.394 . S
C404 H420 0.931 . S
C405 C404 1.391 1_545 S
C405 C409 1.376 . S
C406 C404 1.394 . S
C406 C407 1.369 . S
C406 C410 1.531 . S
C407 C406 1.369 . S
C407 C408 1.410 1_565 S
C407 C415 1.503 . S
C408 C407 1.410 1_545 S
C408 C409 1.392 . S
C408 C411 1.511 . S
C409 C405 1.376 . S
C409 C408 1.392 . S
C409 H421 0.929 . S
C410 C406 1.531 . S
C410 H422 0.960 . S
C410 H423 0.962 . S
C410 H424 0.960 . S
C411 C408 1.511 . S
C411 H425 0.961 . S
C411 H426 0.961 . S
C411 H427 0.961 1_545 S
C412 C413 1.370 1_545 S
C412 C414 1.363 . S
C412 H428 0.931 . S
C413 C412 1.370 1_565 S
C413 C417 1.408 . S
C414 C412 1.363 . S
C414 C415 1.370 1_545 S
C414 C418 1.524 . S
C415 C407 1.503 . S
C415 C414 1.370 1_565 S
C415 C416 1.403 . S
C416 C415 1.403 . S
C416 C417 1.404 . S
C416 C419 1.539 . S
C417 C413 1.408 . S
C417 C416 1.404 . S
C417 H429 0.930 . S
C418 C414 1.524 . S
C418 H430 0.956 . S
C418 H431 0.961 . S
C418 H432 0.961 . S
C419 C416 1.539 . S
C419 H433 0.958 . S
C419 H434 0.961 . S
C419 H435 0.960 . S
H420 C404 0.931 . S
H421 C409 0.929 . S
H422 C410 0.960 . S
H423 C410 0.962 . S
H424 C410 0.960 . S
H425 C411 0.961 . S
H426 C411 0.961 . S
H427 C411 0.961 1_565 S
H428 C412 0.931 . S
H429 C417 0.930 . S
H430 C418 0.956 . S
H431 C418 0.961 . S
H432 C418 0.961 . S
H433 C419 0.958 . S
H434 C419 0.961 . S
H435 C419 0.960 . S
C436 C437 1.391 . S
C436 C438 1.394 . S
C436 H452 0.931 . S
C437 C436 1.391 . S
C437 C441 1.376 . S
C438 C436 1.394 . S
C438 C439 1.369 . S
C438 C442 1.531 . S
C439 C438 1.369 . S
C439 C440 1.410 . S
C439 C447 1.503 . S
C440 C439 1.410 . S
C440 C441 1.392 . S
C440 C443 1.511 . S
C441 C437 1.376 . S
C441 C440 1.392 . S
C441 H453 0.929 . S
C442 C438 1.531 . S
C442 H454 0.960 . S
C442 H455 0.962 . S
C442 H456 0.960 . S
C443 C440 1.511 . S
C443 H457 0.961 . S
C443 H458 0.961 . S
C443 H459 0.961 . S
C444 C445 1.370 . S
C444 C446 1.363 . S
C444 H460 0.931 . S
C445 C444 1.370 . S
C445 C449 1.408 . S
C446 C444 1.363 . S
C446 C447 1.370 . S
C446 C450 1.524 . S
C447 C439 1.503 . S
C447 C446 1.370 . S
C447 C448 1.403 . S
C448 C447 1.403 . S
C448 C449 1.404 . S
C448 C451 1.539 . S
C449 C445 1.408 . S
C449 C448 1.404 . S
C449 H461 0.930 . S
C450 C446 1.524 . S
C450 H462 0.956 . S
C450 H463 0.961 . S
C450 H464 0.961 . S
C451 C448 1.539 . S
C451 H465 0.958 . S
C451 H466 0.961 . S
C451 H467 0.960 . S
H452 C436 0.931 . S
H453 C441 0.929 . S
H454 C442 0.960 . S
H455 C442 0.962 . S
H456 C442 0.960 . S
H457 C443 0.961 . S
H458 C443 0.961 . S
H459 C443 0.961 . S
H460 C444 0.931 . S
H461 C449 0.930 . S
H462 C450 0.956 . S
H463 C450 0.961 . S
H464 C450 0.961 . S
H465 C451 0.958 . S
H466 C451 0.961 . S
H467 C451 0.960 . S
C468 C469 1.391 . S
C468 C470 1.394 . S
C468 H484 0.931 . S
C469 C468 1.391 . S
C469 C473 1.376 . S
C470 C468 1.394 . S
C470 C471 1.369 . S
C470 C474 1.531 . S
C471 C470 1.369 . S
C471 C472 1.410 . S
C471 C479 1.503 1_554 S
C472 C471 1.410 . S
C472 C473 1.392 . S
C472 C475 1.511 . S
C473 C469 1.376 . S
C473 C472 1.392 . S
C473 H485 0.929 . S
C474 C470 1.531 . S
C474 H486 0.960 . S
C474 H487 0.962 . S
C474 H488 0.960 . S
C475 C472 1.511 . S
C475 H489 0.961 . S
C475 H490 0.961 1_554 S
C475 H491 0.961 . S
C476 C477 1.370 . S
C476 C478 1.363 . S
C476 H492 0.931 . S
C477 C476 1.370 . S
C477 C481 1.408 . S
C478 C476 1.363 . S
C478 C479 1.370 . S
C478 C482 1.524 . S
C479 C471 1.503 1_556 S
C479 C478 1.370 . S
C479 C480 1.403 . S
C480 C479 1.403 . S
C480 C481 1.404 . S
C480 C483 1.539 1_556 S
C481 C477 1.408 . S
C481 C480 1.404 . S
C481 H493 0.930 . S
C482 C478 1.524 . S
C482 H494 0.956 . S
C482 H495 0.961 . S
C482 H496 0.961 . S
C483 C480 1.539 1_554 S
C483 H497 0.958 . S
C483 H498 0.961 . S
C483 H499 0.960 . S
H484 C468 0.931 . S
H485 C473 0.929 . S
H486 C474 0.960 . S
H487 C474 0.962 . S
H488 C474 0.960 . S
H489 C475 0.961 . S
H490 C475 0.961 1_556 S
H491 C475 0.961 . S
H492 C476 0.931 . S
H493 C481 0.930 . S
H494 C482 0.956 . S
H495 C482 0.961 . S
H496 C482 0.961 . S
H497 C483 0.958 . S
H498 C483 0.961 . S
H499 C483 0.960 . S
C500 C501 1.391 . S
C500 C502 1.394 . S
C500 H516 0.931 . S
C501 C500 1.391 . S
C501 C505 1.376 . S
C502 C500 1.394 . S
C502 C503 1.369 . S
C502 C506 1.531 . S
C503 C502 1.369 . S
C503 C504 1.410 . S
C503 C511 1.503 . S
C504 C503 1.410 . S
C504 C505 1.392 . S
C504 C507 1.511 . S
C505 C501 1.376 . S
C505 C504 1.392 . S
C505 H517 0.929 . S
C506 C502 1.531 . S
C506 H518 0.960 . S
C506 H519 0.962 . S
C506 H520 0.960 . S
C507 C504 1.511 . S
C507 H521 0.961 . S
C507 H522 0.961 . S
C507 H523 0.961 . S
C508 C509 1.370 . S
C508 C510 1.363 . S
C508 H524 0.931 . S
C509 C508 1.370 . S
C509 C513 1.408 . S
C510 C508 1.363 . S
C510 C511 1.370 . S
C510 C514 1.524 . S
C511 C503 1.503 . S
C511 C510 1.370 . S
C511 C512 1.403 . S
C512 C511 1.403 . S
C512 C513 1.404 . S
C512 C515 1.539 . S
C513 C509 1.408 . S
C513 C512 1.404 . S
C513 H525 0.930 . S
C514 C510 1.524 . S
C514 H526 0.956 . S
C514 H527 0.961 . S
C514 H528 0.961 . S
C515 C512 1.539 . S
C515 H529 0.958 . S
C515 H530 0.961 . S
C515 H531 0.960 . S
H516 C500 0.931 . S
H517 C505 0.929 . S
H518 C506 0.960 . S
H519 C506 0.962 . S
H520 C506 0.960 . S
H521 C507 0.961 . S
H522 C507 0.961 . S
H523 C507 0.961 . S
H524 C508 0.931 . S
H525 C513 0.930 . S
H526 C514 0.956 . S
H527 C514 0.961 . S
H528 C514 0.961 . S
H529 C515 0.958 . S
H530 C515 0.961 . S
H531 C515 0.960 . S
C532 C533 1.391 . S
C532 C534 1.394 . S
C532 H548 0.931 . S
C533 C532 1.391 . S
C533 C537 1.376 . S
C534 C532 1.394 . S
C534 C535 1.369 . S
C534 C538 1.531 . S
C535 C534 1.369 . S
C535 C536 1.410 . S
C535 C543 1.503 . S
C536 C535 1.410 . S
C536 C537 1.392 . S
C536 C539 1.511 . S
C537 C533 1.376 . S
C537 C536 1.392 . S
C537 H549 0.929 . S
C538 C534 1.531 . S
C538 H550 0.960 . S
C538 H551 0.962 . S
C538 H552 0.960 . S
C539 C536 1.511 . S
C539 H553 0.961 . S
C539 H554 0.961 . S
C539 H555 0.961 . S
C540 C541 1.370 . S
C540 C542 1.363 . S
C540 H556 0.931 . S
C541 C540 1.370 . S
C541 C545 1.408 . S
C542 C540 1.363 . S
C542 C543 1.370 . S
C542 C546 1.524 . S
C543 C535 1.503 . S
C543 C542 1.370 . S
C543 C544 1.403 . S
C544 C543 1.403 . S
C544 C545 1.404 . S
C544 C547 1.539 . S
C545 C541 1.408 . S
C545 C544 1.404 . S
C545 H557 0.930 . S
C546 C542 1.524 . S
C546 H558 0.956 . S
C546 H559 0.961 . S
C546 H560 0.961 . S
C547 C544 1.539 . S
C547 H561 0.958 . S
C547 H562 0.961 . S
C547 H563 0.960 . S
H548 C532 0.931 . S
H549 C537 0.929 . S
H550 C538 0.960 . S
H551 C538 0.962 . S
H552 C538 0.960 . S
H553 C539 0.961 . S
H554 C539 0.961 . S
H555 C539 0.961 . S
H556 C540 0.931 . S
H557 C545 0.930 . S
H558 C546 0.956 . S
H559 C546 0.961 . S
H560 C546 0.961 . S
H561 C547 0.958 . S
H562 C547 0.961 . S
H563 C547 0.960 . S
C564 C565 1.391 . S
C564 C566 1.394 . S
C564 H580 0.931 . S
C565 C564 1.391 . S
C565 C569 1.376 . S
C566 C564 1.394 . S
C566 C567 1.369 . S
C566 C570 1.531 . S
C567 C566 1.369 . S
C567 C568 1.410 . S
C567 C575 1.503 1_554 S
C568 C567 1.410 . S
C568 C569 1.392 . S
C568 C571 1.511 1_554 S
C569 C565 1.376 . S
C569 C568 1.392 . S
C569 H581 0.929 . S
C570 C566 1.531 . S
C570 H582 0.960 . S
C570 H583 0.962 . S
C570 H584 0.960 . S
C571 C568 1.511 1_556 S
C571 H585 0.961 . S
C571 H586 0.961 . S
C571 H587 0.961 . S
C572 C573 1.370 . S
C572 C574 1.363 . S
C572 H588 0.931 . S
C573 C572 1.370 . S
C573 C577 1.408 . S
C574 C572 1.363 . S
C574 C575 1.370 . S
C574 C578 1.485 1_556 S
C575 C567 1.503 1_556 S
C575 C574 1.370 . S
C575 C576 1.403 . S
C576 C575 1.403 . S
C576 C577 1.404 . S
C576 C579 1.539 . S
C577 C573 1.408 . S
C577 C576 1.404 . S
C577 H589 0.930 . S
C578 C574 1.485 1_554 S
C578 H590 1.010 . S
C578 H591 0.973 . S
C578 H592 0.939 1_554 S
C579 C576 1.539 . S
C579 H593 0.958 . S
C579 H594 0.961 . S
C579 H595 0.960 . S
H580 C564 0.931 . S
H581 C569 0.929 . S
H582 C570 0.960 . S
H583 C570 0.962 . S
H584 C570 0.960 . S
H585 C571 0.961 . S
H586 C571 0.961 . S
H587 C571 0.961 . S
H588 C572 0.931 . S
H589 C577 0.930 . S
H590 C578 1.010 . S
H591 C578 0.973 . S
H592 C578 0.939 1_556 S
H593 C579 0.958 . S
H594 C579 0.961 . S
H595 C579 0.960 . S
C596 C597 1.391 . S
C596 C598 1.394 . S
C596 H612 0.931 . S
C597 C596 1.391 . S
C597 C601 1.376 . S
C598 C596 1.394 . S
C598 C599 1.369 . S
C598 C602 1.531 . S
C599 C598 1.369 . S
C599 C600 1.410 . S
C599 C607 1.503 . S
C600 C599 1.410 . S
C600 C601 1.392 . S
C600 C603 1.511 . S
C601 C597 1.376 . S
C601 C600 1.392 . S
C601 H613 0.929 . S
C602 C598 1.531 . S
C602 H614 0.960 . S
C602 H615 0.962 . S
C602 H616 0.960 . S
C603 C600 1.511 . S
C603 H617 0.961 . S
C603 H618 0.961 . S
C603 H619 0.961 . S
C604 C605 1.370 . S
C604 C606 1.363 . S
C604 H620 0.931 . S
C605 C604 1.370 . S
C605 C609 1.408 . S
C606 C604 1.363 . S
C606 C607 1.370 . S
C606 C610 1.524 . S
C607 C599 1.503 . S
C607 C606 1.370 . S
C607 C608 1.403 . S
C608 C607 1.403 . S
C608 C609 1.404 . S
C608 C611 1.539 . S
C609 C605 1.408 . S
C609 C608 1.404 . S
C609 H621 0.930 . S
C610 C606 1.524 . S
C610 H622 0.956 . S
C610 H623 0.961 . S
C610 H624 0.961 . S
C611 C608 1.539 . S
C611 H625 0.958 . S
C611 H626 0.961 . S
C611 H627 0.960 . S
H612 C596 0.931 . S
H613 C601 0.929 . S
H614 C602 0.960 . S
H615 C602 0.962 . S
H616 C602 0.960 . S
H617 C603 0.961 . S
H618 C603 0.961 . S
H619 C603 0.961 . S
H620 C604 0.931 . S
H621 C609 0.930 . S
H622 C610 0.956 . S
H623 C610 0.961 . S
H624 C610 0.961 . S
H625 C611 0.958 . S
H626 C611 0.961 . S
H627 C611 0.960 . S
C628 C629 1.391 . S
C628 C630 1.394 . S
C628 H644 0.931 . S
C629 C628 1.391 . S
C629 C633 1.376 . S
C630 C628 1.394 . S
C630 C631 1.369 . S
C630 C634 1.531 . S
C631 C630 1.369 . S
C631 C632 1.410 . S
C631 C639 1.503 . S
C632 C631 1.410 . S
C632 C633 1.392 . S
C632 C635 1.511 . S
C633 C629 1.376 . S
C633 C632 1.392 . S
C633 H645 0.929 . S
C634 C630 1.531 . S
C634 H646 0.960 . S
C634 H647 0.962 . S
C634 H648 0.960 . S
C635 C632 1.511 . S
C635 H649 0.961 . S
C635 H650 0.961 . S
C635 H651 0.961 . S
C636 C637 1.370 . S
C636 C638 1.363 . S
C636 H652 0.931 . S
C637 C636 1.370 . S
C637 C641 1.408 . S
C638 C636 1.363 . S
C638 C639 1.370 . S
C638 C642 1.524 . S
C639 C631 1.503 . S
C639 C638 1.370 . S
C639 C640 1.403 . S
C640 C639 1.403 . S
C640 C641 1.404 . S
C640 C643 1.539 . S
C641 C637 1.408 . S
C641 C640 1.404 . S
C641 H653 0.930 . S
C642 C638 1.524 . S
C642 H654 0.956 . S
C642 H655 0.961 . S
C642 H656 0.961 . S
C643 C640 1.539 . S
C643 H657 0.958 . S
C643 H658 0.961 . S
C643 H659 0.960 . S
H644 C628 0.931 . S
H645 C633 0.929 . S
H646 C634 0.960 . S
H647 C634 0.962 . S
H648 C634 0.960 . S
H649 C635 0.961 . S
H650 C635 0.961 . S
H651 C635 0.961 . S
H652 C636 0.931 . S
H653 C641 0.930 . S
H654 C642 0.956 . S
H655 C642 0.961 . S
H656 C642 0.961 . S
H657 C643 0.958 . S
H658 C643 0.961 . S
H659 C643 0.960 . S
C660 C661 1.391 1_655 S
C660 C662 1.394 . S
C660 H676 0.931 . S
C661 C660 1.391 1_455 S
C661 C665 1.376 . S
C662 C660 1.394 . S
C662 C663 1.369 1_655 S
C662 C666 1.531 . S
C663 C662 1.369 1_455 S
C663 C664 1.410 . S
C663 C671 1.503 . S
C664 C663 1.410 . S
C664 C665 1.392 . S
C664 C667 1.511 . S
C665 C661 1.376 . S
C665 C664 1.392 . S
C665 H677 0.929 . S
C666 C662 1.531 . S
C666 H678 0.960 . S
C666 H679 0.962 . S
C666 H680 0.960 . S
C667 C664 1.511 . S
C667 H681 0.961 . S
C667 H682 0.961 . S
C667 H683 0.961 . S
C668 C669 1.370 . S
C668 C670 1.363 . S
C668 H684 0.931 . S
C669 C668 1.370 . S
C669 C673 1.408 1_655 S
C670 C668 1.363 . S
C670 C671 1.370 1_655 S
C670 C674 1.524 . S
C671 C663 1.503 . S
C671 C670 1.370 1_455 S
C671 C672 1.403 . S
C672 C671 1.403 . S
C672 C673 1.404 . S
C672 C675 1.539 . S
C673 C669 1.408 1_455 S
C673 C672 1.404 . S
C673 H685 0.930 . S
C674 C670 1.524 . S
C674 H686 0.956 . S
C674 H687 0.961 . S
C674 H688 0.961 . S
C675 C672 1.539 . S
C675 H689 0.958 . S
C675 H690 0.961 . S
C675 H691 0.960 . S
H676 C660 0.931 . S
H677 C665 0.929 . S
H678 C666 0.960 . S
H679 C666 0.962 . S
H680 C666 0.960 . S
H681 C667 0.961 . S
H682 C667 0.961 . S
H683 C667 0.961 . S
H684 C668 0.931 . S
H685 C673 0.930 . S
H686 C674 0.956 . S
H687 C674 0.961 . S
H688 C674 0.961 . S
H689 C675 0.958 . S
H690 C675 0.961 . S
H691 C675 0.960 . S
C692 C693 1.391 1_565 S
C692 C694 1.394 . S
C692 H708 0.931 . S
C693 C692 1.391 1_545 S
C693 C697 1.376 . S
C694 C692 1.394 . S
C694 C695 1.369 1_565 S
C694 C698 1.531 . S
C695 C694 1.369 1_545 S
C695 C696 1.410 . S
C695 C703 1.501 . S
C696 C695 1.410 . S
C696 C697 1.392 . S
C696 C699 1.511 . S
C697 C693 1.376 . S
C697 C696 1.392 . S
C697 H709 0.929 . S
C698 C694 1.531 . S
C698 H710 0.960 . S
C698 H711 0.962 . S
C698 H712 0.960 . S
C699 C696 1.511 . S
C699 H713 0.961 . S
C699 H714 0.961 . S
C699 H715 0.961 . S
C700 C701 1.370 . S
C700 C702 1.363 . S
C700 H716 0.931 . S
C701 C700 1.370 . S
C701 C705 1.408 1_565 S
C702 C700 1.363 . S
C702 C703 1.365 1_565 S
C702 C706 1.524 . S
C703 C695 1.501 . S
C703 C702 1.365 1_545 S
C703 C704 1.411 . S
C704 C703 1.411 . S
C704 C705 1.404 . S
C704 C707 1.539 . S
C705 C701 1.408 1_545 S
C705 C704 1.404 . S
C705 H717 0.930 . S
C706 C702 1.524 . S
C706 H718 0.956 . S
C706 H719 0.961 . S
C706 H720 0.961 . S
C707 C704 1.539 . S
C707 H721 0.958 . S
C707 H722 0.961 . S
C707 H723 0.960 . S
H708 C692 0.931 . S
H709 C697 0.929 . S
H710 C698 0.960 . S
H711 C698 0.962 . S
H712 C698 0.960 . S
H713 C699 0.961 . S
H714 C699 0.961 . S
H715 C699 0.961 . S
H716 C700 0.931 . S
H717 C705 0.930 . S
H718 C706 0.956 . S
H719 C706 0.961 . S
H720 C706 0.961 . S
H721 C707 0.958 . S
H722 C707 0.961 . S
H723 C707 0.960 . S
C724 C725 1.391 . S
C724 C726 1.394 . S
C724 H740 0.931 . S
C725 C724 1.391 . S
C725 C729 1.376 . S
C726 C724 1.394 . S
C726 C727 1.369 . S
C726 C730 1.531 . S
C727 C726 1.369 . S
C727 C728 1.410 . S
C727 C735 1.503 . S
C728 C727 1.410 . S
C728 C729 1.392 . S
C728 C731 1.511 . S
C729 C725 1.376 . S
C729 C728 1.392 . S
C729 H741 0.929 . S
C730 C726 1.531 . S
C730 H742 0.960 . S
C730 H743 0.962 . S
C730 H744 0.960 . S
C731 C728 1.511 . S
C731 H745 0.961 . S
C731 H746 0.961 . S
C731 H747 0.961 . S
C732 C733 1.370 . S
C732 C734 1.363 . S
C732 H748 0.931 . S
C733 C732 1.370 . S
C733 C737 1.408 . S
C734 C732 1.363 . S
C734 C735 1.370 . S
C734 C738 1.524 . S
C735 C727 1.503 . S
C735 C734 1.370 . S
C735 C736 1.403 . S
C736 C735 1.403 . S
C736 C737 1.404 . S
C736 C739 1.539 . S
C737 C733 1.408 . S
C737 C736 1.404 . S
C737 H749 0.930 . S
C738 C734 1.524 . S
C738 H750 0.956 . S
C738 H751 0.961 . S
C738 H752 0.961 . S
C739 C736 1.539 . S
C739 H753 0.958 . S
C739 H754 0.961 . S
C739 H755 0.960 . S
H740 C724 0.931 . S
H741 C729 0.929 . S
H742 C730 0.960 . S
H743 C730 0.962 . S
H744 C730 0.960 . S
H745 C731 0.961 . S
H746 C731 0.961 . S
H747 C731 0.961 . S
H748 C732 0.931 . S
H749 C737 0.930 . S
H750 C738 0.956 . S
H751 C738 0.961 . S
H752 C738 0.961 . S
H753 C739 0.958 . S
H754 C739 0.961 . S
H755 C739 0.960 . S
C756 C757 1.391 1_565 S
C756 C758 1.394 . S
C756 H772 0.931 . S
C757 C756 1.391 1_545 S
C757 C761 1.376 . S
C758 C756 1.394 . S
C758 C759 1.369 1_565 S
C758 C762 1.531 . S
C759 C758 1.369 1_545 S
C759 C760 1.410 . S
C759 C767 1.503 1_545 S
C760 C759 1.410 . S
C760 C761 1.392 . S
C760 C763 1.511 . S
C761 C757 1.376 . S
C761 C760 1.392 . S
C761 H773 0.929 . S
C762 C758 1.531 . S
C762 H774 0.960 . S
C762 H775 0.962 . S
C762 H776 0.960 . S
C763 C760 1.511 . S
C763 H777 0.961 . S
C763 H778 0.961 . S
C763 H779 0.961 . S
C764 C765 1.370 . S
C764 C766 1.363 . S
C764 H780 0.931 . S
C765 C764 1.370 . S
C765 C769 1.408 . S
C766 C764 1.363 . S
C766 C767 1.370 . S
C766 C770 1.524 . S
C767 C759 1.503 1_565 S
C767 C766 1.370 . S
C767 C768 1.403 1_565 S
C768 C767 1.403 1_545 S
C768 C769 1.404 1_545 S
C768 C771 1.539 . S
C769 C765 1.408 . S
C769 C768 1.404 1_565 S
C769 H781 0.930 1_565 S
C770 C766 1.524 . S
C770 H782 0.956 . S
C770 H783 0.936 1_565 S
C770 H784 0.961 . S
C771 C768 1.539 . S
C771 H785 0.958 . S
C771 H786 0.961 . S
C771 H787 0.960 . S
H772 C756 0.931 . S
H773 C761 0.929 . S
H774 C762 0.960 . S
H775 C762 0.962 . S
H776 C762 0.960 . S
H777 C763 0.961 . S
H778 C763 0.961 . S
H779 C763 0.961 . S
H780 C764 0.931 . S
H781 C769 0.930 1_545 S
H782 C770 0.956 . S
H783 C770 0.936 1_545 S
H784 C770 0.961 . S
H785 C771 0.958 . S
H786 C771 0.961 . S
H787 C771 0.960 . S
C788 C789 1.391 . S
C788 C790 1.394 . S
C788 H804 0.931 . S
C789 C788 1.391 . S
C789 C793 1.376 . S
C790 C788 1.394 . S
C790 C791 1.369 . S
C790 C794 1.531 . S
C791 C790 1.369 . S
C791 C792 1.410 . S
C791 C799 1.503 . S
C792 C791 1.410 . S
C792 C793 1.392 . S
C792 C795 1.511 . S
C793 C789 1.376 . S
C793 C792 1.392 . S
C793 H805 0.929 . S
C794 C790 1.531 . S
C794 H806 0.960 . S
C794 H807 0.962 . S
C794 H808 0.960 . S
C795 C792 1.511 . S
C795 H809 0.961 . S
C795 H810 0.961 . S
C795 H811 0.961 . S
C796 C797 1.370 . S
C796 C798 1.363 . S
C796 H812 0.931 . S
C797 C796 1.370 . S
C797 C801 1.408 . S
C798 C796 1.363 . S
C798 C799 1.370 . S
C798 C802 1.524 . S
C799 C791 1.503 . S
C799 C798 1.370 . S
C799 C800 1.403 . S
C800 C799 1.403 . S
C800 C801 1.404 . S
C800 C803 1.539 . S
C801 C797 1.408 . S
C801 C800 1.404 . S
C801 H813 0.930 . S
C802 C798 1.524 . S
C802 H814 0.956 . S
C802 H815 0.961 . S
C802 H816 0.961 . S
C803 C800 1.539 . S
C803 H817 0.958 . S
C803 H818 0.961 . S
C803 H819 0.960 . S
H804 C788 0.931 . S
H805 C793 0.929 . S
H806 C794 0.960 . S
H807 C794 0.962 . S
H808 C794 0.960 . S
H809 C795 0.961 . S
H810 C795 0.961 . S
H811 C795 0.961 . S
H812 C796 0.931 . S
H813 C801 0.930 . S
H814 C802 0.956 . S
H815 C802 0.961 . S
H816 C802 0.961 . S
H817 C803 0.958 . S
H818 C803 0.961 . S
H819 C803 0.960 . S
C820 C821 1.391 1_655 S
C820 C822 1.394 . S
C820 H836 0.931 . S
C821 C820 1.391 1_455 S
C821 C825 1.376 . S
C822 C820 1.394 . S
C822 C823 1.369 1_655 S
C822 C826 1.531 . S
C823 C822 1.369 1_455 S
C823 C824 1.410 . S
C823 C831 1.503 . S
C824 C823 1.410 . S
C824 C825 1.392 . S
C824 C827 1.511 . S
C825 C821 1.376 . S
C825 C824 1.392 . S
C825 H837 0.929 . S
C826 C822 1.531 . S
C826 H838 0.960 . S
C826 H839 0.962 . S
C826 H840 0.960 . S
C827 C824 1.511 . S
C827 H841 0.961 . S
C827 H842 0.961 . S
C827 H843 0.961 . S
C828 C829 1.370 1_655 S
C828 C830 1.363 . S
C828 H844 0.931 . S
C829 C828 1.370 1_455 S
C829 C833 1.408 . S
C830 C828 1.363 . S
C830 C831 1.370 1_655 S
C830 C834 1.524 . S
C831 C823 1.503 . S
C831 C830 1.370 1_455 S
C831 C832 1.403 . S
C832 C831 1.403 . S
C832 C833 1.404 . S
C832 C835 1.539 . S
C833 C829 1.408 . S
C833 C832 1.404 . S
C833 H845 0.930 . S
C834 C830 1.524 . S
C834 H846 0.956 . S
C834 H847 0.961 . S
C834 H848 0.961 . S
C835 C832 1.539 . S
C835 H849 0.958 . S
C835 H850 0.961 . S
C835 H851 0.960 . S
H836 C820 0.931 . S
H837 C825 0.929 . S
H838 C826 0.960 . S
H839 C826 0.962 . S
H840 C826 0.960 . S
H841 C827 0.961 . S
H842 C827 0.961 . S
H843 C827 0.961 . S
H844 C828 0.931 . S
H845 C833 0.930 . S
H846 C834 0.956 . S
H847 C834 0.961 . S
H848 C834 0.961 . S
H849 C835 0.958 . S
H850 C835 0.961 . S
H851 C835 0.960 . S
C852 C853 1.391 1_455 S
C852 C854 1.394 . S
C852 H868 0.931 . S
C853 C852 1.391 1_655 S
C853 C857 1.376 . S
C854 C852 1.394 . S
C854 C855 1.369 1_455 S
C854 C858 1.531 . S
C855 C854 1.369 1_655 S
C855 C856 1.410 . S
C855 C863 1.503 1_645 S
C856 C855 1.410 . S
C856 C857 1.392 . S
C856 C859 1.511 1_545 S
C857 C853 1.376 . S
C857 C856 1.392 . S
C857 H869 0.929 . S
C858 C854 1.531 . S
C858 H870 0.960 . S
C858 H871 0.962 . S
C858 H872 0.960 . S
C859 C856 1.511 1_565 S
C859 H873 0.961 . S
C859 H874 0.961 . S
C859 H875 0.961 . S
C860 C861 1.370 . S
C860 C862 1.363 . S
C860 H876 0.931 . S
C861 C860 1.370 . S
C861 C865 1.408 . S
C862 C860 1.363 . S
C862 C863 1.370 . S
C862 C866 1.524 . S
C863 C855 1.503 1_465 S
C863 C862 1.370 . S
C863 C864 1.402 . S
C864 C863 1.402 . S
C864 C865 1.406 . S
C864 C867 1.538 1_455 S
C865 C861 1.408 . S
C865 C864 1.406 . S
C865 H877 0.930 . S
C866 C862 1.524 . S
C866 H878 0.956 1_565 S
C866 H879 0.961 1_455 S
C866 H880 0.961 . S
C867 C864 1.538 1_655 S
C867 H881 0.958 1_655 S
C867 H882 0.961 . S
C867 H883 0.960 . S
H868 C852 0.931 . S
H869 C857 0.929 . S
H870 C858 0.960 . S
H871 C858 0.962 . S
H872 C858 0.960 . S
H873 C859 0.961 . S
H874 C859 0.961 . S
H875 C859 0.961 . S
H876 C860 0.931 . S
H877 C865 0.930 . S
H878 C866 0.956 1_545 S
H879 C866 0.961 1_655 S
H880 C866 0.961 . S
H881 C867 0.958 1_455 S
H882 C867 0.961 . S
H883 C867 0.960 . S
C884 C885 1.391 1_565 S
C884 C886 1.394 . S
C884 H900 0.931 . S
C885 C884 1.391 1_545 S
C885 C889 1.376 . S
C886 C884 1.394 . S
C886 C887 1.371 . S
C886 C890 1.531 . S
C887 C886 1.371 . S
C887 C888 1.404 1_565 S
C887 C895 1.507 1_655 S
C888 C887 1.404 1_545 S
C888 C889 1.392 . S
C888 C891 1.511 1_655 S
C889 C885 1.376 . S
C889 C888 1.392 . S
C889 H901 0.929 . S
C890 C886 1.531 . S
C890 H902 0.960 . S
C890 H903 0.962 . S
C890 H904 0.960 . S
C891 C888 1.511 1_455 S
C891 H905 0.961 . S
C891 H906 0.961 . S
C891 H907 0.961 . S
C892 C893 1.370 . S
C892 C894 1.363 1_565 S
C892 H908 0.931 1_565 S
C893 C892 1.370 . S
C893 C897 1.408 . S
C894 C892 1.363 1_545 S
C894 C895 1.370 1_545 S
C894 C898 1.524 . S
C895 C887 1.507 1_455 S
C895 C894 1.370 1_565 S
C895 C896 1.403 . S
C896 C895 1.403 . S
C896 C897 1.404 . S
C896 C899 1.539 . S
C897 C893 1.408 . S
C897 C896 1.404 . S
C897 H909 0.930 . S
C898 C894 1.524 . S
C898 H910 0.956 . S
C898 H911 0.961 . S
C898 H912 0.961 . S
C899 C896 1.539 . S
C899 H913 0.958 1_455 S
C899 H914 0.961 . S
C899 H915 0.960 1_455 S
H900 C884 0.931 . S
H901 C889 0.929 . S
H902 C890 0.960 . S
H903 C890 0.962 . S
H904 C890 0.960 . S
H905 C891 0.961 . S
H906 C891 0.961 . S
H907 C891 0.961 . S
H908 C892 0.931 1_545 S
H909 C897 0.930 . S
H910 C898 0.956 . S
H911 C898 0.961 . S
H912 C898 0.961 . S
H913 C899 0.958 1_655 S
H914 C899 0.961 . S
H915 C899 0.960 1_655 S
C916 C917 1.391 . S
C916 C918 1.394 . S
C916 H932 0.931 . S
C917 C916 1.391 . S
C917 C921 1.376 . S
C918 C916 1.394 . S
C918 C919 1.369 . S
C918 C922 1.531 1_455 S
C919 C918 1.369 . S
C919 C920 1.410 . S
C919 C927 1.503 1_445 S
C920 C919 1.410 . S
C920 C921 1.392 . S
C920 C923 1.511 1_545 S
C921 C917 1.376 . S
C921 C920 1.392 . S
C921 H933 0.929 . S
C922 C918 1.531 1_655 S
C922 H934 0.960 . S
C922 H935 0.962 . S
C922 H936 0.960 . S
C923 C920 1.511 1_565 S
C923 H937 0.961 . S
C923 H938 0.961 . S
C923 H939 0.961 . S
C924 C925 1.370 . S
C924 C926 1.363 . S
C924 H940 0.931 . S
C925 C924 1.370 . S
C925 C929 1.408 . S
C926 C924 1.363 . S
C926 C927 1.370 . S
C926 C930 1.524 . S
C927 C919 1.503 1_665 S
C927 C926 1.370 . S
C927 C928 1.403 . S
C928 C927 1.403 . S
C928 C929 1.404 . S
C928 C931 1.539 . S
C929 C925 1.408 . S
C929 C928 1.404 . S
C929 H941 0.930 . S
C930 C926 1.524 . S
C930 H942 0.956 1_565 S
C930 H943 0.961 1_655 S
C930 H944 0.961 . S
C931 C928 1.539 . S
C931 H945 0.958 . S
C931 H946 0.961 . S
C931 H947 0.960 1_655 S
H932 C916 0.931 . S
H933 C921 0.929 . S
H934 C922 0.960 . S
H935 C922 0.962 . S
H936 C922 0.960 . S
H937 C923 0.961 . S
H938 C923 0.961 . S
H939 C923 0.961 . S
H940 C924 0.931 . S
H941 C929 0.930 . S
H942 C930 0.956 1_545 S
H943 C930 0.961 1_455 S
H944 C930 0.961 . S
H945 C931 0.958 . S
H946 C931 0.961 . S
H947 C931 0.960 1_455 S
C948 C949 1.391 . S
C948 C950 1.394 . S
C948 H964 0.931 . S
C949 C948 1.391 . S
C949 C953 1.376 1_565 S
C950 C948 1.394 . S
C950 C951 1.369 . S
C950 C954 1.531 . S
C951 C950 1.369 . S
C951 C952 1.410 1_565 S
C951 C959 1.503 1_665 S
C952 C951 1.410 1_545 S
C952 C953 1.392 . S
C952 C955 1.511 . S
C953 C949 1.376 1_545 S
C953 C952 1.392 . S
C953 H965 0.929 . S
C954 C950 1.531 . S
C954 H966 0.960 . S
C954 H967 0.962 . S
C954 H968 0.960 . S
C955 C952 1.511 . S
C955 H969 0.961 . S
C955 H970 0.961 1_655 S
C955 H971 0.961 1_655 S
C956 C957 1.370 . S
C956 C958 1.363 . S
C956 H972 0.931 . S
C957 C956 1.370 . S
C957 C961 1.408 . S
C958 C956 1.363 . S
C958 C959 1.370 . S
C958 C962 1.524 1_545 S
C959 C951 1.503 1_445 S
C959 C958 1.370 . S
C959 C960 1.403 . S
C960 C959 1.403 . S
C960 C961 1.404 . S
C960 C963 1.539 . S
C961 C957 1.408 . S
C961 C960 1.404 . S
C961 H973 0.930 . S
C962 C958 1.524 1_565 S
C962 H974 0.956 1_455 S
C962 H975 0.961 1_565 S
C962 H976 0.963 1_565 S
C963 C960 1.539 . S
C963 H977 0.958 1_545 S
C963 H978 0.961 . S
C963 H979 0.960 . S
H964 C948 0.931 . S
H965 C953 0.929 . S
H966 C954 0.960 . S
H967 C954 0.962 . S
H968 C954 0.960 . S
H969 C955 0.961 . S
H970 C955 0.961 1_455 S
H971 C955 0.961 1_455 S
H972 C956 0.931 . S
H973 C961 0.930 . S
H974 C962 0.956 1_655 S
H975 C962 0.961 1_545 S
H976 C962 0.963 1_545 S
H977 C963 0.958 1_565 S
H978 C963 0.961 . S
H979 C963 0.960 . S
C980 C981 1.391 . S
C980 C982 1.394 . S
C980 H996 0.931 . S
C981 C980 1.391 . S
C981 C985 1.376 . S
C982 C980 1.394 . S
C982 C983 1.369 . S
C982 C986 1.531 1_565 S
C983 C982 1.369 . S
C983 C984 1.410 . S
C983 C991 1.503 1_665 S
C984 C983 1.410 . S
C984 C985 1.392 . S
C984 C987 1.511 1_655 S
C985 C981 1.376 . S
C985 C984 1.392 . S
C985 H997 0.929 . S
C986 C982 1.531 1_545 S
C986 H998 0.960 . S
C986 H999 0.962 . S
C986 H1000 0.960 1_545 S
C987 C984 1.511 1_455 S
C987 H1001 0.961 . S
C987 H1002 0.961 . S
C987 H1003 0.961 . S
C988 C989 1.370 . S
C988 C990 1.363 . S
C988 H1004 0.931 . S
C989 C988 1.370 . S
C989 C993 1.408 . S
C990 C988 1.363 . S
C990 C991 1.370 . S
C990 C994 1.524 1_455 S
C991 C983 1.503 1_445 S
C991 C990 1.370 . S
C991 C992 1.403 . S
C992 C991 1.403 . S
C992 C993 1.404 . S
C992 C995 1.539 1_545 S
C993 C989 1.408 . S
C993 C992 1.404 . S
C993 H1005 0.930 . S
C994 C990 1.524 1_655 S
C994 H1006 0.956 . S
C994 H1007 0.961 . S
C994 H1008 0.961 . S
C995 C992 1.539 1_565 S
C995 H1009 0.958 . S
C995 H1010 0.964 1_565 S
C995 H1011 0.960 . S
H996 C980 0.931 . S
H997 C985 0.929 . S
H998 C986 0.960 . S
H999 C986 0.962 . S
H1000 C986 0.960 1_565 S
H1001 C987 0.961 . S
H1002 C987 0.961 . S
H1003 C987 0.961 . S
H1004 C988 0.931 . S
H1005 C993 0.930 . S
H1006 C994 0.956 . S
H1007 C994 0.961 . S
H1008 C994 0.961 . S
H1009 C995 0.958 . S
H1010 C995 0.964 1_545 S
H1011 C995 0.960 . S
C1012 C1013 1.391 1_655 S
C1012 C1014 1.394 . S
C1012 H1028 0.931 . S
C1013 C1012 1.391 1_455 S
C1013 C1017 1.376 . S
C1014 C1012 1.394 . S
C1014 C1015 1.369 1_655 S
C1014 C1018 1.531 . S
C1015 C1014 1.369 1_455 S
C1015 C1016 1.410 . S
C1015 C1023 1.503 1_565 S
C1016 C1015 1.410 . S
C1016 C1017 1.392 . S
C1016 C1019 1.511 1_565 S
C1017 C1013 1.376 . S
C1017 C1016 1.392 . S
C1017 H1029 0.929 . S
C1018 C1014 1.531 . S
C1018 H1030 0.960 . S
C1018 H1031 0.962 . S
C1018 H1032 0.960 . S
C1019 C1016 1.511 1_545 S
C1019 H1033 0.961 . S
C1019 H1034 0.961 . S
C1019 H1035 0.961 . S
C1020 C1021 1.370 1_655 S
C1020 C1022 1.363 . S
C1020 H1036 0.931 . S
C1021 C1020 1.370 1_455 S
C1021 C1025 1.408 . S
C1022 C1020 1.363 . S
C1022 C1023 1.370 1_655 S
C1022 C1026 1.524 . S
C1023 C1015 1.503 1_545 S
C1023 C1022 1.370 1_455 S
C1023 C1024 1.403 . S
C1024 C1023 1.403 . S
C1024 C1025 1.404 . S
C1024 C1027 1.539 . S
C1025 C1021 1.408 . S
C1025 C1024 1.404 . S
C1025 H1037 0.930 . S
C1026 C1022 1.524 . S
C1026 H1038 0.956 1_545 S
C1026 H1039 0.961 1_545 S
C1026 H1040 0.961 . S
C1027 C1024 1.539 . S
C1027 H1041 0.958 . S
C1027 H1042 0.961 . S
C1027 H1043 0.960 . S
H1028 C1012 0.931 . S
H1029 C1017 0.929 . S
H1030 C1018 0.960 . S
H1031 C1018 0.962 . S
H1032 C1018 0.960 . S
H1033 C1019 0.961 . S
H1034 C1019 0.961 . S
H1035 C1019 0.961 . S
H1036 C1020 0.931 . S
H1037 C1025 0.930 . S
H1038 C1026 0.956 1_565 S
H1039 C1026 0.961 1_565 S
H1040 C1026 0.961 . S
H1041 C1027 0.958 . S
H1042 C1027 0.961 . S
H1043 C1027 0.960 . S
C277 C260 1.662 1_455 S
C285 C7 1.647 . S
C309 N25 1.556 . S
C317 N140 1.529 . S
C341 C53 1.625 . S
C349 C168 1.650 . S
C373 C76 1.624 . S
C381 C191 1.649 . S
C405 N209 1.560 . S
C413 N94 1.530 . S
C437 C122 1.624 . S
C445 C237 1.648 . S
C469 C16 1.589 . S
C477 C246 1.616 . S
C501 N35 1.573 . S
C509 C269 1.586 . S
C533 C62 1.599 . S
C541 N150 1.594 . S
C565 C85 1.622 . S
C573 C177 1.605 . S
C597 C200 1.571 . S
C605 N104 1.598 . S
C629 N219 1.601 . S
C637 C131 1.587 . S
C661 N81 1.423 . S
C669 N12 1.430 . S
C693 C39 1.532 . S
C701 C108 1.512 . S
C725 N127 1.470 . S
C733 N58 1.486 . S
C757 C223 1.528 . S
C765 C154 1.515 . S
C789 N242 1.468 . S
C797 N173 1.454 . S
C821 N196 1.482 . S
C829 N265 1.490 1_455 S
C853 N2 1.435 . S
C861 N71 1.453 . S
C885 C30 1.679 . S
C893 C99 1.685 . S
C917 N117 1.412 . S
C925 N48 1.409 . S
C949 C145 1.667 . S
C957 C214 1.678 . S
C981 N163 1.480 . S
C989 N232 1.455 . S
C1013 N186 1.425 1_455 S
C1021 N255 1.403 . S
