# Generated by pormake.
# Topology uon, (4)-cn, num edge types: 1
# Building blocks:
#     Node 0, Type 0, BuildingBlock: ICAMEG_clean_sbu_1, # of connection points: 4
#     Node 1, Type 0, BuildingBlock: ICAMEG_clean_sbu_1, # of connection points: 4
#     Node 2, Type 0, BuildingBlock: ICAMEG_clean_sbu_1, # of connection points: 4
#     Node 3, Type 0, BuildingBlock: ICAMEG_clean_sbu_1, # of connection points: 4
#     Node 4, Type 0, BuildingBlock: ICAMEG_clean_sbu_1, # of connection points: 4
#     Node 5, Type 0, BuildingBlock: ICAMEG_clean_sbu_1, # of connection points: 4
#     Edge 6, Type (0, 0), BuildingBlock: KIFKEQ_clean_linker_1, # of connection points: 2
#     Edge 7, Type (0, 0), BuildingBlock: KIFKEQ_clean_linker_1, # of connection points: 2
#     Edge 8, Type (0, 0), BuildingBlock: KIFKEQ_clean_linker_1, # of connection points: 2
#     Edge 9, Type (0, 0), BuildingBlock: KIFKEQ_clean_linker_1, # of connection points: 2
#     Edge 10, Type (0, 0), BuildingBlock: KIFKEQ_clean_linker_1, # of connection points: 2
#     Edge 11, Type (0, 0), BuildingBlock: KIFKEQ_clean_linker_1, # of connection points: 2
#     Edge 12, Type (0, 0), BuildingBlock: KIFKEQ_clean_linker_1, # of connection points: 2
#     Edge 13, Type (0, 0), BuildingBlock: KIFKEQ_clean_linker_1, # of connection points: 2
#     Edge 14, Type (0, 0), BuildingBlock: KIFKEQ_clean_linker_1, # of connection points: 2
#     Edge 15, Type (0, 0), BuildingBlock: KIFKEQ_clean_linker_1, # of connection points: 2
#     Edge 16, Type (0, 0), BuildingBlock: KIFKEQ_clean_linker_1, # of connection points: 2
#     Edge 17, Type (0, 0), BuildingBlock: KIFKEQ_clean_linker_1, # of connection points: 2
# Relax obj value: 0.158
# Max RMSD: 0.296
# Mean RMSD: 0.272
data_MOF--net-uon--node1-ICAMEG_clean_sbu_1--edge1-KIFKEQ_clean_linker_1
_symmetry_space_group_name_H-M    P1
_symmetry_Int_Tables_number       1
_symmetry_cell_setting            triclinic
loop_
_symmetry_equiv_pos_as_xyz
'x, y, z'
_cell_length_a     37.393449
_cell_length_b     37.354261
_cell_length_c     17.424003
_cell_angle_alpha  89.578256
_cell_angle_beta   90.500908
_cell_angle_gamma 119.9901
loop_
_atom_site_label
_atom_site_type_symbol
_atom_site_fract_x
_atom_site_fract_y
_atom_site_fract_z
_atom_type_partial_charge
Co0 Co 0.18477 0.41579 0.0139 0.0
Co1 Co 0.24353 0.42753 0.17574 0.0
O2 O 0.23109 0.41681 0.06731 0.0
C3 C 0.25993 0.48299 0.94903 0.0
O4 O 0.2711 0.49164 0.02093 0.0
C5 C 0.2326 0.34528 0.14461 0.0
O6 O 0.19631 0.33579 0.11633 0.0
O7 O 0.18503 0.38955 0.20246 0.0
O8 O 0.14576 0.38085 0.09757 0.0
H9 H 0.2216 0.45925 0.44517 0.0
H10 H 0.23929 0.39238 0.93221 0.0
O11 O 0.22447 0.45251 0.9317 0.0
H12 H 0.10039 0.26893 0.9227 0.0
H13 H 0.10157 0.40534 0.77801 0.0
H14 H 0.11222 0.42294 0.05907 0.0
H15 H 0.1115 0.33297 0.9845 0.0
H16 H 0.15996 0.40756 0.84947 0.0
O17 O 0.25486 0.38018 0.17726 0.0
H18 H 0.20655 0.44768 0.3065 0.0
H19 H 0.30703 0.42631 0.27823 0.0
H20 H 0.05317 0.42062 0.99008 0.0
H21 H 0.2296 0.32902 0.86982 0.0
H22 H 0.04749 0.41156 0.84855 0.0
H23 H 0.15975 0.26669 0.86497 0.0
O24 O 0.19331 0.46591 0.0677 0.0
H25 H 0.37723 0.47054 0.0398 0.0
H26 H 0.30568 0.51319 0.22253 0.0
H27 H 0.37821 0.5619 0.18919 0.0
H28 H 0.41451 0.5406 0.09741 0.0
H29 H 0.30444 0.4232 0.07314 0.0
H30 H 0.32302 0.43736 0.41671 0.0
H31 H 0.28022 0.45413 0.50109 0.0
O32 O 0.2324 0.47517 0.17277 0.0
C33 C 0.15012 0.37429 0.16843 0.0
C34 C 0.24057 0.45213 0.40895 0.0
C35 C 0.29746 0.43978 0.393 0.0
N36 N 0.25616 0.43676 0.28434 0.0
C37 C 0.23229 0.44569 0.33039 0.0
C38 C 0.28823 0.43349 0.3147 0.0
C39 C 0.27344 0.4492 0.4403 0.0
C40 C 0.20874 0.3655 0.92961 0.0
N41 N 0.17595 0.36643 0.9614 0.0
C42 C 0.20347 0.32967 0.8945 0.0
C43 C 0.16428 0.29469 0.89192 0.0
C44 C 0.13096 0.29592 0.92433 0.0
C45 C 0.13743 0.33224 0.95923 0.0
C46 C 0.10362 0.40915 0.83971 0.0
C47 C 0.10985 0.41884 0.99752 0.0
C48 C 0.13664 0.41052 0.8804 0.0
N49 N 0.13918 0.4149 0.95837 0.0
C50 C 0.07642 0.41766 0.95875 0.0
C51 C 0.07329 0.41265 0.87932 0.0
C52 C 0.21223 0.48603 0.12766 0.0
C53 C 0.3618 0.48011 0.08012 0.0
C54 C 0.3212 0.50376 0.18224 0.0
C55 C 0.36231 0.53144 0.16376 0.0
C56 C 0.38267 0.51945 0.11234 0.0
N57 N 0.3009 0.46523 0.15032 0.0
C58 C 0.32062 0.45334 0.09957 0.0
Co59 Co 0.78966 0.24395 0.55599 0.0
Co60 Co 0.87489 0.27003 0.67116 0.0
O61 O 0.84805 0.27706 0.58045 0.0
C62 C 0.80467 0.32847 0.57538 0.0
O63 O 0.82924 0.33142 0.63214 0.0
C64 C 0.9124 0.25508 0.53646 0.0
O65 O 0.87448 0.22994 0.51338 0.0
O66 O 0.84315 0.20866 0.66245 0.0
O67 O 0.79035 0.19186 0.58023 0.0
H68 H 0.88254 0.21047 0.92638 0.0
H69 H 0.84616 0.30623 0.44422 0.0
O70 O 0.78736 0.29581 0.53441 0.0
H71 H 0.78606 0.17262 0.30971 0.0
H72 H 0.6614 0.20778 0.4026 0.0
H73 H 0.71833 0.17067 0.62593 0.0
H74 H 0.76533 0.17631 0.44219 0.0
H75 H 0.73574 0.24821 0.43376 0.0
O76 O 0.91893 0.27255 0.6019 0.0
H77 H 0.84742 0.21875 0.81276 0.0
H78 H 0.96288 0.30785 0.71952 0.0
H79 H 0.64389 0.12919 0.59653 0.0
H80 H 0.86768 0.30403 0.31163 0.0
H81 H 0.61498 0.1477 0.48416 0.0
H82 H 0.83763 0.23683 0.24363 0.0
O83 O 0.77462 0.24657 0.66318 0.0
H84 H 0.96099 0.41593 0.57492 0.0
H85 H 0.89266 0.32834 0.80055 0.0
H86 H 0.93047 0.4042 0.81418 0.0
H87 H 0.96502 0.44853 0.70084 0.0
H88 H 0.92261 0.33999 0.56369 0.0
H89 H 0.99929 0.30053 0.83204 0.0
H90 H 0.95901 0.2516 0.93654 0.0
O91 O 0.83057 0.26743 0.7397 0.0
C92 C 0.81124 0.1822 0.62565 0.0
C93 C 0.90041 0.23195 0.88129 0.0
C94 C 0.96595 0.28243 0.82828 0.0
N95 N 0.90307 0.26389 0.75985 0.0
C96 C 0.88069 0.23681 0.81692 0.0
C97 C 0.94518 0.28638 0.76464 0.0
C98 C 0.94333 0.25501 0.88692 0.0
C99 C 0.83268 0.27696 0.41464 0.0
N100 N 0.80438 0.24149 0.4506 0.0
C101 C 0.84509 0.27587 0.33973 0.0
C102 C 0.82826 0.23814 0.30165 0.0
C103 C 0.79933 0.2021 0.33871 0.0
C104 C 0.78774 0.20436 0.4137 0.0
C105 C 0.67365 0.19933 0.45158 0.0
C106 C 0.70602 0.17869 0.57656 0.0
C107 C 0.71568 0.22213 0.46954 0.0
N108 N 0.73138 0.21152 0.5311 0.0
C109 C 0.66383 0.15519 0.56037 0.0
C110 C 0.64762 0.16562 0.49736 0.0
C111 C 0.79269 0.25665 0.7282 0.0
C112 C 0.94617 0.39694 0.62478 0.0
C113 C 0.90755 0.34743 0.75093 0.0
C114 C 0.92897 0.39036 0.75903 0.0
C115 C 0.94837 0.41521 0.69542 0.0
N116 N 0.90565 0.32973 0.68151 0.0
C117 C 0.92454 0.3539 0.61885 0.0
Co118 Co 0.57447 0.75874 0.63462 0.0
Co119 Co 0.5803 0.81395 0.79738 0.0
O120 O 0.58583 0.80931 0.68714 0.0
C121 C 0.53389 0.79885 0.54962 0.0
O122 O 0.55903 0.83454 0.58122 0.0
C123 C 0.66304 0.88055 0.75407 0.0
O124 O 0.66721 0.85222 0.71767 0.0
O125 O 0.61547 0.78935 0.81795 0.0
O126 O 0.60341 0.74554 0.71963 0.0
H127 H 0.55744 0.76465 0.07107 0.0
H128 H 0.62109 0.83998 0.54634 0.0
O129 O 0.54191 0.76929 0.55258 0.0
H130 H 0.70962 0.77745 0.54213 0.0
H131 H 0.55888 0.67148 0.40433 0.0
H132 H 0.54701 0.67298 0.68584 0.0
H133 H 0.6426 0.7421 0.6074 0.0
H134 H 0.57444 0.73572 0.47154 0.0
O135 O 0.63077 0.87032 0.79361 0.0
H136 H 0.56253 0.75826 0.93127 0.0
H137 H 0.59059 0.8824 0.89868 0.0
H138 H 0.53143 0.60813 0.62119 0.0
H139 H 0.68731 0.87597 0.48024 0.0
H140 H 0.53745 0.60718 0.47943 0.0
H141 H 0.73247 0.84491 0.47762 0.0
O142 O 0.52141 0.72767 0.68773 0.0
H143 H 0.54454 0.91437 0.67362 0.0
H144 H 0.49724 0.79599 0.85086 0.0
H145 H 0.45178 0.82455 0.82255 0.0
H146 H 0.4753 0.88415 0.73325 0.0
H147 H 0.58866 0.8843 0.70195 0.0
H148 H 0.58606 0.89025 0.03818 0.0
H149 H 0.56922 0.83102 0.12534 0.0
O150 O 0.52955 0.75747 0.8027 0.0
C151 C 0.61922 0.76102 0.7852 0.0
C152 C 0.56463 0.79062 0.03366 0.0
C153 C 0.58074 0.86113 0.0152 0.0
N154 N 0.57639 0.81977 0.90691 0.0
C155 C 0.56742 0.78714 0.95446 0.0
C156 C 0.5833 0.85652 0.9363 0.0
C157 C 0.57128 0.82789 0.06408 0.0
C158 C 0.63962 0.82563 0.54522 0.0
N159 N 0.62702 0.78844 0.58046 0.0
C160 C 0.67759 0.84645 0.50772 0.0
C161 C 0.70298 0.82909 0.50642 0.0
C162 C 0.6902 0.79131 0.54264 0.0
C163 C 0.6521 0.77146 0.5797 0.0
C164 C 0.55628 0.67154 0.46614 0.0
C165 C 0.54994 0.67281 0.6242 0.0
C166 C 0.56497 0.70777 0.50442 0.0
N167 N 0.56212 0.70812 0.58251 0.0
C168 C 0.54094 0.636 0.58788 0.0
C169 C 0.54427 0.63548 0.50832 0.0
C170 C 0.50863 0.72889 0.75426 0.0
C171 C 0.53388 0.8883 0.71243 0.0
C172 C 0.50759 0.82154 0.81107 0.0
C173 C 0.48177 0.8378 0.79574 0.0
C174 C 0.49502 0.87131 0.74581 0.0
N175 N 0.54543 0.83794 0.77712 0.0
C176 C 0.55882 0.87117 0.72895 0.0
Co177 Co 0.76358 0.54789 0.21408 0.0
Co178 Co 0.72846 0.60247 0.31756 0.0
O179 O 0.72521 0.56746 0.23269 0.0
C180 C 0.68411 0.47347 0.24622 0.0
O181 O 0.68057 0.49541 0.30083 0.0
C182 C 0.73736 0.64989 0.17598 0.0
O183 O 0.76697 0.64249 0.15762 0.0
O184 O 0.78966 0.63756 0.30753 0.0
O185 O 0.81173 0.60468 0.22977 0.0
H186 H 0.78408 0.68136 0.56357 0.0
H187 H 0.69608 0.52855 0.10257 0.0
O188 O 0.71546 0.48995 0.20199 0.0
H189 H 0.82508 0.60905 0.95726 0.0
H190 H 0.8118 0.46114 0.07913 0.0
H191 H 0.84267 0.56313 0.28403 0.0
H192 H 0.82706 0.59236 0.09399 0.0
H193 H 0.76475 0.48818 0.10349 0.0
O194 O 0.71946 0.63796 0.24086 0.0
H195 H 0.78006 0.63576 0.45808 0.0
H196 H 0.68222 0.64581 0.35446 0.0
H197 H 0.89071 0.53718 0.26129 0.0
H198 H 0.69262 0.54435 0.96584 0.0
H199 H 0.87538 0.48579 0.15821 0.0
H200 H 0.75747 0.58497 0.89234 0.0
O201 O 0.76608 0.53667 0.32423 0.0
H202 H 0.58144 0.52352 0.22375 0.0
H203 H 0.67296 0.56183 0.45048 0.0
H204 H 0.59785 0.51657 0.4665 0.0
H205 H 0.55154 0.49718 0.3526 0.0
H206 H 0.65672 0.56839 0.21023 0.0
H207 H 0.6853 0.69172 0.45862 0.0
H208 H 0.73645 0.70968 0.56421 0.0
O209 O 0.73736 0.56659 0.39333 0.0
C210 C 0.81825 0.63505 0.27258 0.0
C211 C 0.7616 0.67369 0.51795 0.0
C212 C 0.7062 0.67956 0.45897 0.0
N213 N 0.73085 0.63803 0.40038 0.0
C214 C 0.75913 0.64782 0.45816 0.0
C215 C 0.70468 0.65365 0.40006 0.0
C216 C 0.7349 0.6896 0.51825 0.0
C217 C 0.72439 0.54591 0.0707 0.0
N218 N 0.76171 0.55928 0.10592 0.0
C219 C 0.72226 0.5549 0.99342 0.0
C220 C 0.75866 0.57774 0.95224 0.0
C221 C 0.79661 0.59128 0.98864 0.0
C222 C 0.79755 0.58177 0.06604 0.0
C223 C 0.81888 0.48362 0.12406 0.0
C224 C 0.83596 0.54104 0.23864 0.0
C225 C 0.79234 0.49899 0.13815 0.0
N226 N 0.8012 0.52751 0.19455 0.0
C227 C 0.8632 0.52634 0.22623 0.0
C228 C 0.85455 0.49747 0.16844 0.0
C229 C 0.75472 0.54467 0.38734 0.0
C230 C 0.60128 0.53188 0.27386 0.0
C231 C 0.653 0.55353 0.40065 0.0
C232 C 0.6105 0.52792 0.41008 0.0
C233 C 0.58453 0.51707 0.34616 0.0
N234 N 0.66919 0.56805 0.3296 0.0
C235 C 0.64393 0.55746 0.26661 0.0
Co236 Co 0.23567 0.81763 0.3382 0.0
Co237 Co 0.17407 0.76107 0.49105 0.0
O238 O 0.18316 0.77657 0.38257 0.0
C239 C 0.19826 0.74147 0.2399 0.0
O240 O 0.16225 0.72883 0.27144 0.0
C241 C 0.11194 0.78345 0.44385 0.0
O242 O 0.1425 0.81687 0.41326 0.0
O243 O 0.20056 0.81986 0.52048 0.0
O244 O 0.24524 0.85645 0.42635 0.0
H245 H 0.21299 0.77188 0.77006 0.0
H246 H 0.15757 0.78685 0.24095 0.0
O247 O 0.22844 0.77794 0.25249 0.0
H248 H 0.22185 0.93815 0.24757 0.0
H249 H 0.33232 0.89792 0.12317 0.0
H250 H 0.31891 0.87361 0.40275 0.0
H251 H 0.25394 0.90359 0.31624 0.0
H252 H 0.26548 0.84692 0.17967 0.0
O253 O 0.11928 0.75864 0.48246 0.0
H254 H 0.22513 0.78987 0.63255 0.0
H255 H 0.10072 0.70077 0.58051 0.0
H256 H 0.38625 0.92512 0.34889 0.0
H257 H 0.12499 0.82001 0.17103 0.0
H258 H 0.39319 0.9376 0.20814 0.0
H259 H 0.15695 0.89637 0.17381 0.0
O260 O 0.26437 0.79316 0.39356 0.0
H261 H 0.07411 0.63372 0.34451 0.0
H262 H 0.18532 0.69041 0.53884 0.0
H263 H 0.15426 0.61746 0.50079 0.0
H264 H 0.09825 0.58861 0.40287 0.0
H265 H 0.10643 0.70667 0.38317 0.0
H266 H 0.08713 0.68193 0.71751 0.0
H267 H 0.14357 0.71752 0.81327 0.0
O268 O 0.22878 0.76313 0.50084 0.0
C269 C 0.22894 0.85369 0.49219 0.0
C270 C 0.1882 0.75603 0.72884 0.0
C271 C 0.11754 0.70558 0.69935 0.0
N272 N 0.16379 0.74607 0.59858 0.0
C273 C 0.19493 0.76599 0.65091 0.0
C274 C 0.1254 0.71639 0.6219 0.0
C275 C 0.14923 0.72555 0.75306 0.0
C276 C 0.17242 0.81979 0.24197 0.0
N277 N 0.20836 0.84285 0.28192 0.0
C278 C 0.15349 0.8386 0.20239 0.0
C279 C 0.17133 0.88142 0.20414 0.0
C280 C 0.20768 0.90483 0.24554 0.0
C281 C 0.22569 0.88494 0.28445 0.0
C282 C 0.32965 0.89285 0.1846 0.0
C283 C 0.32169 0.87909 0.34151 0.0
C284 C 0.29194 0.86397 0.21683 0.0
N285 N 0.28828 0.85772 0.29442 0.0
C286 C 0.3599 0.90817 0.31131 0.0
C287 C 0.36379 0.91511 0.23232 0.0
C288 C 0.25951 0.77398 0.45645 0.0
C289 C 0.09857 0.64595 0.38709 0.0
C290 C 0.16134 0.67835 0.49548 0.0
C291 C 0.14365 0.63687 0.47456 0.0
C292 C 0.11216 0.62067 0.41977 0.0
N293 N 0.14822 0.70314 0.46247 0.0
C294 C 0.11693 0.68727 0.40952 0.0
Co295 Co 0.45925 0.21707 0.89873 0.0
Co296 Co 0.39662 0.12889 0.00378 0.0
O297 O 0.43322 0.15795 0.91803 0.0
C298 C 0.5281 0.20116 0.92284 0.0
O299 O 0.50523 0.17344 0.97416 0.0
C300 C 0.34866 0.09343 0.86164 0.0
O301 O 0.36219 0.13161 0.8389 0.0
O302 O 0.36728 0.16099 0.99242 0.0
O303 O 0.40629 0.2161 0.91758 0.0
H304 H 0.32085 0.11573 0.24868 0.0
H305 H 0.46857 0.16375 0.78533 0.0
O306 O 0.51382 0.22017 0.88338 0.0
H307 H 0.39866 0.22708 0.64588 0.0
H308 H 0.55504 0.34914 0.75988 0.0
H309 H 0.45665 0.28691 0.97322 0.0
H310 H 0.41899 0.24416 0.78172 0.0
H311 H 0.52004 0.27398 0.78393 0.0
O312 O 0.35726 0.08629 0.92909 0.0
H313 H 0.36815 0.15327 0.14198 0.0
H314 H 0.34522 0.03978 0.04455 0.0
H315 H 0.49067 0.36213 0.95091 0.0
H316 H 0.44894 0.14587 0.64944 0.0
H317 H 0.54028 0.39372 0.84356 0.0
H318 H 0.41362 0.17757 0.57892 0.0
O319 O 0.47368 0.22928 0.00795 0.0
H320 H 0.45898 0.04475 0.91268 0.0
H321 H 0.43296 0.10782 0.13737 0.0
H322 H 0.47026 0.06939 0.1546 0.0
H323 H 0.48341 0.03747 0.04174 0.0
H324 H 0.4221 0.08368 0.89791 0.0
H325 H 0.2975 0.00097 0.14997 0.0
H326 H 0.28517 0.03902 0.25309 0.0
O327 O 0.43628 0.17147 0.07836 0.0
C328 C 0.37443 0.19436 0.95861 0.0
C329 C 0.32608 0.09881 0.20422 0.0
C330 C 0.31292 0.0344 0.14874 0.0
N331 N 0.35967 0.09875 0.08751 0.0
C332 C 0.35292 0.11991 0.14381 0.0
C333 C 0.33991 0.05653 0.08915 0.0
C334 C 0.30603 0.05577 0.20662 0.0
C335 C 0.45357 0.17794 0.7547 0.0
N336 N 0.44515 0.20513 0.7911 0.0
C337 C 0.44238 0.16759 0.67792 0.0
C338 C 0.42251 0.18534 0.63842 0.0
C339 C 0.41409 0.21311 0.67597 0.0
C340 C 0.42563 0.22264 0.75285 0.0
C341 C 0.53334 0.33572 0.8066 0.0
C342 C 0.47786 0.30037 0.9259 0.0
C343 C 0.51344 0.2932 0.82048 0.0
N344 N 0.48585 0.27602 0.87915 0.0
C345 C 0.49718 0.343 0.91376 0.0
C346 C 0.52505 0.36071 0.85359 0.0
C347 C 0.46364 0.2096 0.0712 0.0
C348 C 0.45331 0.0584 0.96233 0.0
C349 C 0.43865 0.09409 0.08795 0.0
C350 C 0.45972 0.07231 0.09808 0.0
C351 C 0.46706 0.05438 0.03474 0.0
N352 N 0.4251 0.09777 0.01679 0.0
C353 C 0.43226 0.08033 0.95439 0.0
H354 H 0.31352 0.36515 0.15408 0.0
H355 H 0.19237 0.26651 0.08844 0.0
H356 H 0.34412 0.32573 0.10399 0.0
H357 H 0.2232 0.22695 0.03937 0.0
H358 H 0.38502 0.26966 0.9155 0.0
H359 H 0.3488 0.30356 0.96446 0.0
H360 H 0.26613 0.19318 0.09031 0.0
H361 H 0.30282 0.15903 0.04271 0.0
C362 C 0.29333 0.3348 0.13027 0.0
C363 C 0.2505 0.319 0.12521 0.0
C364 C 0.31091 0.31242 0.10097 0.0
C365 C 0.28601 0.27354 0.06711 0.0
C366 C 0.24304 0.25685 0.06521 0.0
C367 C 0.22547 0.27951 0.09341 0.0
C368 C 0.35884 0.25223 0.9528 0.0
C369 C 0.34724 0.21166 0.97579 0.0
C370 C 0.3383 0.27186 0.98123 0.0
C371 C 0.30521 0.25121 0.03218 0.0
C372 C 0.29172 0.20981 0.05133 0.0
C373 C 0.3127 0.19028 0.02382 0.0
H374 H 0.90777 0.23071 0.38743 0.0
H375 H 0.99484 0.30727 0.56213 0.0
H376 H 0.96376 0.25437 0.29505 0.0
H377 H 0.05062 0.33137 0.46939 0.0
H378 H 0.14754 0.3407 0.30897 0.0
H379 H 0.08946 0.30749 0.39581 0.0
H380 H 0.01076 0.31806 0.22505 0.0
H381 H 0.06909 0.35092 0.13679 0.0
C382 C 0.9389 0.25231 0.40639 0.0
C383 C 0.94688 0.26697 0.48237 0.0
C384 C 0.97091 0.26611 0.35316 0.0
C385 C 0.01164 0.29473 0.37477 0.0
C386 C 0.01968 0.30883 0.45111 0.0
C387 C 0.98768 0.29514 0.50428 0.0
C388 C 0.11779 0.33563 0.2893 0.0
C389 C 0.11313 0.34898 0.21605 0.0
C390 C 0.08453 0.31676 0.33946 0.0
C391 C 0.04567 0.31077 0.31794 0.0
C392 C 0.04032 0.32214 0.24329 0.0
C393 C 0.07375 0.34102 0.19272 0.0
H394 H 0.82899 0.14791 0.74851 0.0
H395 H 0.75888 0.11602 0.5366 0.0
H396 H 0.79797 0.07469 0.78061 0.0
H397 H 0.72863 0.04263 0.56851 0.0
H398 H 0.71365 0.91438 0.63069 0.0
H399 H 0.75433 0.98771 0.59682 0.0
H400 H 0.71826 0.0198 0.80843 0.0
H401 H 0.67667 0.94648 0.84164 0.0
C402 C 0.80758 0.12534 0.70806 0.0
C403 C 0.79629 0.13784 0.64003 0.0
C404 C 0.78975 0.08347 0.72674 0.0
C405 C 0.76097 0.05323 0.67707 0.0
C406 C 0.75099 0.06548 0.60748 0.0
C407 C 0.76819 0.10742 0.58943 0.0
C408 C 0.71491 0.9371 0.67054 0.0
C409 C 0.69201 0.92475 0.73886 0.0
C410 C 0.73796 0.97895 0.65087 0.0
C411 C 0.73928 0.00919 0.70002 0.0
C412 C 0.71788 0.99699 0.76984 0.0
C413 C 0.69409 0.95512 0.78874 0.0
H414 H 0.6602 0.64062 0.16401 0.0
H415 H 0.77943 0.69838 0.05418 0.0
H416 H 0.63348 0.66561 0.06025 0.0
H417 H 0.75288 0.72426 0.95192 0.0
H418 H 0.69033 0.80408 0.86595 0.0
H419 H 0.72059 0.77657 0.95763 0.0
H420 H 0.6258 0.65239 0.90133 0.0
H421 H 0.59617 0.67994 0.80738 0.0
C422 C 0.68079 0.65903 0.1183 0.0
C423 C 0.72196 0.66777 0.11737 0.0
C424 C 0.66539 0.6729 0.05867 0.0
C425 C 0.69113 0.69648 0.99809 0.0
C426 C 0.73247 0.70598 0.99796 0.0
C427 C 0.74761 0.69131 0.05654 0.0
C428 C 0.67662 0.77088 0.87183 0.0
C429 C 0.64117 0.74405 0.8294 0.0
C430 C 0.69383 0.75522 0.92428 0.0
C431 C 0.67525 0.71248 0.93671 0.0
C432 C 0.64048 0.6855 0.89276 0.0
C433 C 0.62385 0.70118 0.83866 0.0
H434 H 0.88778 0.65193 0.19217 0.0
H435 H 0.84715 0.68907 0.39264 0.0
H436 H 0.95957 0.69535 0.23376 0.0
H437 H 0.91872 0.73129 0.43461 0.0
H438 H 0.04144 0.72957 0.51924 0.0
H439 H 0.97028 0.70119 0.47353 0.0
H440 H 0.01423 0.77726 0.27022 0.0
H441 H 0.08537 0.80676 0.31685 0.0
C442 C 0.89411 0.6699 0.24416 0.0
C443 C 0.86164 0.66684 0.28917 0.0
C444 C 0.93517 0.69474 0.26783 0.0
C445 C 0.9444 0.7163 0.33754 0.0
C446 C 0.91223 0.71477 0.38078 0.0
C447 C 0.87129 0.6907 0.35639 0.0
C448 C 0.03585 0.74087 0.46561 0.0
C449 C 0.06893 0.77042 0.42171 0.0
C450 C 0.99522 0.72469 0.43957 0.0
C451 C 0.98702 0.73708 0.3684 0.0
C452 C 0.01991 0.76728 0.32525 0.0
C453 C 0.0605 0.78424 0.35219 0.0
H454 H 0.33767 0.09869 0.70719 0.0
H455 H 0.31392 0.01061 0.88955 0.0
H456 H 0.30762 0.04235 0.61425 0.0
H457 H 0.28447 0.95458 0.79666 0.0
H458 H 0.19706 0.86036 0.628 0.0
H459 H 0.224 0.919 0.71377 0.0
H460 H 0.32267 0.99091 0.55495 0.0
H461 H 0.29527 0.93187 0.46742 0.0
C462 C 0.32573 0.06731 0.7276 0.0
C463 C 0.32791 0.05912 0.80599 0.0
C464 C 0.30889 0.03509 0.67416 0.0
C465 C 0.2936 0.99398 0.69799 0.0
C466 C 0.29544 0.98584 0.77648 0.0
C467 C 0.31244 0.01799 0.82978 0.0
C468 C 0.2244 0.88863 0.61066 0.0
C469 C 0.24418 0.89113 0.54075 0.0
C470 C 0.23997 0.92226 0.66033 0.0
C471 C 0.27578 0.95945 0.64178 0.0
C472 C 0.29489 0.96267 0.57076 0.0
C473 C 0.27927 0.92882 0.52072 0.0
H474 H 0.27078 0.74005 0.22957 0.0
H475 H 0.14074 0.67009 0.17429 0.0
H476 H 0.27754 0.67968 0.19908 0.0
H477 H 0.14734 0.61033 0.14453 0.0
H478 H 0.17598 0.51945 0.03881 0.0
H479 H 0.1781 0.58469 0.05427 0.0
H480 H 0.25247 0.60921 0.25916 0.0
H481 H 0.25131 0.54345 0.2429 0.0
C482 C 0.24395 0.71221 0.20901 0.0
C483 C 0.20522 0.70975 0.20426 0.0
C484 C 0.24769 0.67752 0.19265 0.0
C485 C 0.21291 0.64014 0.17009 0.0
C486 C 0.17482 0.63868 0.16119 0.0
C487 C 0.17103 0.673 0.17814 0.0
C488 C 0.1929 0.53848 0.08744 0.0
C489 C 0.21317 0.52578 0.14016 0.0
C490 C 0.19406 0.57605 0.09614 0.0
C491 C 0.21528 0.60206 0.15803 0.0
C492 C 0.23619 0.58995 0.21038 0.0
C493 C 0.23513 0.5521 0.20157 0.0
H494 H 0.56055 0.15036 0.91839 0.0
H495 H 0.59349 0.27865 0.91441 0.0
H496 H 0.63242 0.17008 0.89656 0.0
H497 H 0.66591 0.29909 0.89977 0.0
H498 H 0.76573 0.31053 0.73375 0.0
H499 H 0.7054 0.3006 0.80067 0.0
H500 H 0.70172 0.19872 0.9278 0.0
H501 H 0.7617 0.2078 0.85556 0.0
C502 C 0.58353 0.18286 0.91423 0.0
C503 C 0.5717 0.213 0.91559 0.0
C504 C 0.62489 0.19434 0.90295 0.0
C505 C 0.65535 0.23633 0.89524 0.0
C506 C 0.64341 0.26644 0.90269 0.0
C507 C 0.60194 0.25485 0.91118 0.0
C508 C 0.75299 0.28708 0.77822 0.0
C509 C 0.76816 0.25995 0.78977 0.0
C510 C 0.71817 0.28127 0.81709 0.0
C511 C 0.69779 0.24823 0.86912 0.0
C512 C 0.71586 0.22378 0.88668 0.0
C513 C 0.75068 0.2294 0.84666 0.0
H514 H 0.48245 0.69602 0.89716 0.0
H515 H 0.4435 0.68248 0.65975 0.0
H516 H 0.41863 0.63219 0.92883 0.0
H517 H 0.37945 0.61907 0.692 0.0
H518 H 0.25344 0.534 0.84377 0.0
H519 H 0.31286 0.59561 0.78809 0.0
H520 H 0.3946 0.55517 0.87896 0.0
H521 H 0.33557 0.49373 0.9324 0.0
C522 C 0.45997 0.67984 0.85217 0.0
C523 C 0.46805 0.69391 0.77604 0.0
C524 C 0.42369 0.64328 0.87007 0.0
C525 C 0.39459 0.62068 0.81244 0.0
C526 C 0.40154 0.63593 0.73715 0.0
C527 C 0.43816 0.67206 0.71893 0.0
C528 C 0.28391 0.5374 0.84809 0.0
C529 C 0.29022 0.50928 0.89166 0.0
C530 C 0.31784 0.57278 0.81739 0.0
C531 C 0.35816 0.58036 0.83115 0.0
C532 C 0.36384 0.55029 0.86887 0.0
C533 C 0.33012 0.51498 0.89854 0.0
H534 H 0.82514 0.55909 0.45639 0.0
H535 H 0.69325 0.47797 0.45847 0.0
H536 H 0.83473 0.50617 0.51994 0.0
H537 H 0.70254 0.4245 0.52221 0.0
H538 H 0.74708 0.32906 0.47807 0.0
H539 H 0.73131 0.38448 0.45917 0.0
H540 H 0.82366 0.45853 0.62831 0.0
H541 H 0.83981 0.40335 0.64681 0.0
C542 C 0.79813 0.53073 0.47474 0.0
C543 C 0.7585 0.52263 0.45376 0.0
C544 C 0.80356 0.50022 0.51045 0.0
C545 C 0.7694 0.4609 0.52472 0.0
C546 C 0.72944 0.45436 0.51088 0.0
C547 C 0.72403 0.48515 0.47578 0.0
C548 C 0.76397 0.35712 0.51131 0.0
C549 C 0.795 0.36196 0.56325 0.0
C550 C 0.75452 0.38864 0.50134 0.0
C551 C 0.77601 0.42574 0.54283 0.0
C552 C 0.80662 0.43032 0.59555 0.0
C553 C 0.81592 0.39873 0.60585 0.0
H554 H 0.29417 0.74142 0.36594 0.0
H555 H 0.30016 0.78875 0.59365 0.0
H556 H 0.35857 0.74108 0.3896 0.0
H557 H 0.36532 0.78926 0.61697 0.0
H558 H 0.50539 0.85298 0.55326 0.0
H559 H 0.43465 0.838 0.54002 0.0
H560 H 0.39561 0.71133 0.48413 0.0
H561 H 0.467 0.72579 0.50003 0.0
C562 C 0.30887 0.75077 0.42174 0.0
C563 C 0.29253 0.76527 0.47798 0.0
C564 C 0.34554 0.75044 0.43527 0.0
C565 C 0.36693 0.76546 0.50473 0.0
C566 C 0.34932 0.77766 0.56279 0.0
C567 C 0.31207 0.77715 0.54978 0.0
C568 C 0.48201 0.82187 0.5378 0.0
C569 C 0.49202 0.79054 0.52791 0.0
C570 C 0.44135 0.81328 0.53105 0.0
C571 C 0.40969 0.77337 0.51273 0.0
C572 C 0.41959 0.74228 0.49915 0.0
C573 C 0.46043 0.75068 0.50746 0.0
H574 H 0.45129 0.26258 0.15477 0.0
H575 H 0.53326 0.21395 0.12591 0.0
H576 H 0.50675 0.32416 0.21537 0.0
H577 H 0.58914 0.27552 0.18704 0.0
H578 H 0.68096 0.41664 0.14363 0.0
H579 H 0.62572 0.34518 0.12778 0.0
H580 H 0.55931 0.35953 0.3156 0.0
H581 H 0.61405 0.43099 0.33082 0.0
C582 C 0.48054 0.26402 0.16598 0.0
C583 C 0.488 0.23346 0.13716 0.0
C584 C 0.51251 0.29947 0.19989 0.0
C585 C 0.55255 0.30502 0.2046 0.0
C586 C 0.55875 0.27232 0.1831 0.0
C587 C 0.52663 0.23674 0.14958 0.0
C588 C 0.65471 0.40446 0.18181 0.0
C589 C 0.65172 0.42965 0.2378 0.0
C590 C 0.62328 0.36337 0.17342 0.0
C591 C 0.58822 0.34665 0.2208 0.0
C592 C 0.58582 0.37156 0.27807 0.0
C593 C 0.61722 0.41256 0.28657 0.0
loop_
_geom_bond_atom_site_label_1
_geom_bond_atom_site_label_2
_geom_bond_distance
_geom_bond_site_symmetry_2
_ccdc_geom_bond_type
Co0 O2 2.143 . S
Co0 O8 2.074 1_556 S
Co0 O11 2.093 . S
Co0 O24 2.097 1_556 S
Co0 N41 2.151 . S
Co0 N49 2.214 . S
Co1 O2 2.160 1_554 S
Co1 O7 2.058 . S
Co1 O17 2.057 . S
Co1 O32 2.037 . S
Co1 N36 2.145 . S
Co1 N57 2.257 . S
O2 Co0 2.143 . S
O2 Co1 2.160 1_556 S
C3 O4 1.278 . S
C3 O11 1.224 . S
O4 C3 1.278 . S
C5 O6 1.245 1_554 S
C5 O17 1.232 . S
O6 C5 1.245 1_556 S
O7 Co1 2.058 . S
O7 C33 1.269 . S
O8 Co0 2.074 1_554 S
O8 C33 1.257 . S
H9 C34 0.930 . S
H10 C40 0.930 . S
O11 Co0 2.093 . S
O11 C3 1.224 . S
H12 C44 0.929 . S
H13 C46 0.930 . S
H14 C47 0.930 . S
H15 C45 0.929 . S
H16 C48 0.928 . S
O17 Co1 2.057 . S
O17 C5 1.232 . S
H18 C37 0.929 . S
H19 C38 0.929 . S
H20 C50 0.931 . S
H21 C42 0.929 . S
H22 C51 0.930 . S
H23 C43 0.931 . S
O24 Co0 2.097 1_554 S
O24 C52 1.214 . S
H25 C53 0.929 . S
H26 C54 0.929 . S
H27 C55 0.930 . S
H28 C56 0.929 . S
H29 C58 0.930 . S
H30 C35 0.930 . S
H31 C39 0.930 . S
O32 Co1 2.037 . S
O32 C52 1.234 . S
C33 O7 1.269 . S
C33 O8 1.257 . S
C34 H9 0.930 . S
C34 C37 1.388 . S
C34 C39 1.418 . S
C35 H30 0.930 . S
C35 C38 1.404 . S
C35 C39 1.353 . S
N36 Co1 2.145 . S
N36 C37 1.397 . S
N36 C38 1.334 . S
C37 H18 0.929 . S
C37 C34 1.388 . S
C37 N36 1.397 . S
C38 H19 0.929 . S
C38 C35 1.404 . S
C38 N36 1.334 . S
C39 H31 0.930 . S
C39 C34 1.418 . S
C39 C35 1.353 . S
C40 H10 0.930 . S
C40 N41 1.330 . S
C40 C42 1.446 . S
N41 Co0 2.151 . S
N41 C40 1.330 . S
N41 C45 1.418 . S
C42 H21 0.929 . S
C42 C40 1.446 . S
C42 C43 1.332 . S
C43 H23 0.931 . S
C43 C42 1.332 . S
C43 C44 1.267 . S
C44 H12 0.929 . S
C44 C43 1.267 . S
C44 C45 1.251 . S
C45 H15 0.929 . S
C45 N41 1.418 . S
C45 C44 1.251 . S
C46 H13 0.930 . S
C46 C48 1.406 . S
C46 C51 1.261 . S
C47 H14 0.930 . S
C47 N49 1.325 . S
C47 C50 1.357 . S
C48 H16 0.928 . S
C48 C46 1.406 . S
C48 N49 1.261 . S
N49 Co0 2.214 . S
N49 C47 1.325 . S
N49 C48 1.261 . S
C50 H20 0.931 . S
C50 C47 1.357 . S
C50 C51 1.312 . S
C51 H22 0.930 . S
C51 C46 1.261 . S
C51 C50 1.312 . S
C52 O24 1.214 . S
C52 O32 1.234 . S
C53 H25 0.929 . S
C53 C56 1.391 . S
C53 C58 1.391 . S
C54 H26 0.929 . S
C54 C55 1.390 . S
C54 N57 1.391 . S
C55 H27 0.930 . S
C55 C54 1.390 . S
C55 C56 1.392 . S
C56 H28 0.929 . S
C56 C53 1.391 . S
C56 C55 1.392 . S
N57 Co1 2.257 . S
N57 C54 1.391 . S
N57 C58 1.388 . S
C58 H29 0.930 . S
C58 C53 1.391 . S
C58 N57 1.388 . S
Co59 O61 2.143 . S
Co59 O67 2.074 . S
Co59 O70 2.093 . S
Co59 O83 2.097 . S
Co59 N100 2.151 . S
Co59 N108 2.214 . S
Co60 O61 2.160 . S
Co60 O66 2.058 . S
Co60 O76 2.057 . S
Co60 O91 2.037 . S
Co60 N95 2.145 . S
Co60 N116 2.257 . S
O61 Co59 2.143 . S
O61 Co60 2.160 . S
C62 O63 1.278 . S
C62 O70 1.224 . S
O63 C62 1.278 . S
C64 O65 1.245 . S
C64 O76 1.232 . S
O65 C64 1.245 . S
O66 Co60 2.058 . S
O66 C92 1.269 . S
O67 Co59 2.074 . S
O67 C92 1.257 . S
H68 C93 0.930 1_554 S
H69 C99 0.930 . S
O70 Co59 2.093 . S
O70 C62 1.224 . S
H71 C103 0.929 . S
H72 C105 0.930 . S
H73 C106 0.930 . S
H74 C104 0.929 . S
H75 C107 0.928 . S
O76 Co60 2.057 . S
O76 C64 1.232 . S
H77 C96 0.929 . S
H78 C97 0.929 . S
H79 C109 0.931 . S
H80 C101 0.929 . S
H81 C110 0.930 . S
H82 C102 0.931 . S
O83 Co59 2.097 . S
O83 C111 1.214 . S
H84 C112 0.929 . S
H85 C113 0.929 . S
H86 C114 0.930 . S
H87 C115 0.929 . S
H88 C117 0.930 . S
H89 C94 0.908 1_455 S
H90 C98 0.930 1_554 S
O91 Co60 2.037 . S
O91 C111 1.234 . S
C92 O66 1.269 . S
C92 O67 1.257 . S
C93 H68 0.930 1_556 S
C93 C96 1.388 . S
C93 C98 1.418 . S
C94 H89 0.908 1_655 S
C94 C97 1.404 . S
C94 C98 1.353 . S
N95 Co60 2.145 . S
N95 C96 1.397 . S
N95 C97 1.334 . S
C96 H77 0.929 . S
C96 C93 1.388 . S
C96 N95 1.397 . S
C97 H78 0.929 . S
C97 C94 1.404 . S
C97 N95 1.334 . S
C98 H90 0.930 1_556 S
C98 C93 1.418 . S
C98 C94 1.353 . S
C99 H69 0.930 . S
C99 N100 1.330 . S
C99 C101 1.446 . S
N100 Co59 2.151 . S
N100 C99 1.330 . S
N100 C104 1.418 . S
C101 H80 0.929 . S
C101 C99 1.446 . S
C101 C102 1.332 . S
C102 H82 0.931 . S
C102 C101 1.332 . S
C102 C103 1.267 . S
C103 H71 0.929 . S
C103 C102 1.267 . S
C103 C104 1.251 . S
C104 H74 0.929 . S
C104 N100 1.418 . S
C104 C103 1.251 . S
C105 H72 0.930 . S
C105 C107 1.406 . S
C105 C110 1.261 . S
C106 H73 0.930 . S
C106 N108 1.325 . S
C106 C109 1.357 . S
C107 H75 0.928 . S
C107 C105 1.406 . S
C107 N108 1.261 . S
N108 Co59 2.214 . S
N108 C106 1.325 . S
N108 C107 1.261 . S
C109 H79 0.931 . S
C109 C106 1.357 . S
C109 C110 1.312 . S
C110 H81 0.930 . S
C110 C105 1.261 . S
C110 C109 1.312 . S
C111 O83 1.214 . S
C111 O91 1.234 . S
C112 H84 0.929 . S
C112 C115 1.391 . S
C112 C117 1.391 . S
C113 H85 0.929 . S
C113 C114 1.390 . S
C113 N116 1.391 . S
C114 H86 0.930 . S
C114 C113 1.390 . S
C114 C115 1.392 . S
C115 H87 0.929 . S
C115 C112 1.391 . S
C115 C114 1.392 . S
N116 Co60 2.257 . S
N116 C113 1.391 . S
N116 C117 1.388 . S
C117 H88 0.930 . S
C117 C112 1.391 . S
C117 N116 1.388 . S
Co118 O120 2.143 . S
Co118 O126 2.074 . S
Co118 O129 2.093 . S
Co118 O142 2.097 . S
Co118 N159 2.151 . S
Co118 N167 2.214 . S
Co119 O120 2.160 . S
Co119 O125 2.058 . S
Co119 O135 2.057 . S
Co119 O150 2.037 . S
Co119 N154 2.145 . S
Co119 N175 2.257 . S
O120 Co118 2.143 . S
O120 Co119 2.160 . S
C121 O122 1.278 . S
C121 O129 1.224 . S
O122 C121 1.278 . S
C123 O124 1.245 . S
C123 O135 1.232 . S
O124 C123 1.245 . S
O125 Co119 2.058 . S
O125 C151 1.269 . S
O126 Co118 2.074 . S
O126 C151 1.257 . S
H127 C152 0.930 1_554 S
H128 C158 0.930 . S
O129 Co118 2.093 . S
O129 C121 1.224 . S
H130 C162 0.929 . S
H131 C164 0.930 . S
H132 C165 0.930 . S
H133 C163 0.929 . S
H134 C166 0.928 . S
O135 Co119 2.057 . S
O135 C123 1.232 . S
H136 C155 0.929 . S
H137 C156 0.929 . S
H138 C168 0.931 . S
H139 C160 0.929 . S
H140 C169 0.930 . S
H141 C161 0.931 . S
O142 Co118 2.097 . S
O142 C170 1.214 . S
H143 C171 0.929 . S
H144 C172 0.929 . S
H145 C173 0.930 . S
H146 C174 0.929 . S
H147 C176 0.930 . S
H148 C153 0.930 . S
H149 C157 0.930 . S
O150 Co119 2.037 . S
O150 C170 1.234 . S
C151 O125 1.269 . S
C151 O126 1.257 . S
C152 H127 0.930 1_556 S
C152 C155 1.388 . S
C152 C157 1.418 1_556 S
C153 H148 0.930 . S
C153 C156 1.404 . S
C153 C157 1.353 1_556 S
N154 Co119 2.145 . S
N154 C155 1.397 . S
N154 C156 1.334 . S
C155 H136 0.929 . S
C155 C152 1.388 . S
C155 N154 1.397 . S
C156 H137 0.929 . S
C156 C153 1.404 . S
C156 N154 1.334 . S
C157 H149 0.930 . S
C157 C152 1.418 1_554 S
C157 C153 1.353 1_554 S
C158 H128 0.930 . S
C158 N159 1.330 . S
C158 C160 1.446 . S
N159 Co118 2.151 . S
N159 C158 1.330 . S
N159 C163 1.418 . S
C160 H139 0.929 . S
C160 C158 1.446 . S
C160 C161 1.332 . S
C161 H141 0.931 . S
C161 C160 1.332 . S
C161 C162 1.267 . S
C162 H130 0.929 . S
C162 C161 1.267 . S
C162 C163 1.251 . S
C163 H133 0.929 . S
C163 N159 1.418 . S
C163 C162 1.251 . S
C164 H131 0.930 . S
C164 C166 1.406 . S
C164 C169 1.261 . S
C165 H132 0.930 . S
C165 N167 1.325 . S
C165 C168 1.357 . S
C166 H134 0.928 . S
C166 C164 1.406 . S
C166 N167 1.261 . S
N167 Co118 2.214 . S
N167 C165 1.325 . S
N167 C166 1.261 . S
C168 H138 0.931 . S
C168 C165 1.357 . S
C168 C169 1.312 . S
C169 H140 0.930 . S
C169 C164 1.261 . S
C169 C168 1.312 . S
C170 O142 1.214 . S
C170 O150 1.234 . S
C171 H143 0.929 . S
C171 C174 1.391 . S
C171 C176 1.391 . S
C172 H144 0.929 . S
C172 C173 1.390 . S
C172 N175 1.391 . S
C173 H145 0.930 . S
C173 C172 1.390 . S
C173 C174 1.392 . S
C174 H146 0.929 . S
C174 C171 1.391 . S
C174 C173 1.392 . S
N175 Co119 2.257 . S
N175 C172 1.391 . S
N175 C176 1.388 . S
C176 H147 0.930 . S
C176 C171 1.391 . S
C176 N175 1.388 . S
Co177 O179 2.143 . S
Co177 O185 2.074 . S
Co177 O188 2.093 . S
Co177 O201 2.097 . S
Co177 N218 2.151 . S
Co177 N226 2.214 . S
Co178 O179 2.160 . S
Co178 O184 2.058 . S
Co178 O194 2.057 . S
Co178 O209 2.037 . S
Co178 N213 2.145 . S
Co178 N234 2.257 . S
O179 Co177 2.143 . S
O179 Co178 2.160 . S
C180 O181 1.278 . S
C180 O188 1.224 . S
O181 C180 1.278 . S
C182 O183 1.245 . S
C182 O194 1.232 . S
O183 C182 1.245 . S
O184 Co178 2.058 . S
O184 C210 1.269 . S
O185 Co177 2.074 . S
O185 C210 1.257 . S
H186 C211 0.930 . S
H187 C217 0.930 . S
O188 Co177 2.093 . S
O188 C180 1.224 . S
H189 C221 0.929 . S
H190 C223 0.930 . S
H191 C224 0.930 . S
H192 C222 0.929 . S
H193 C225 0.928 . S
O194 Co178 2.057 . S
O194 C182 1.232 . S
H195 C214 0.929 . S
H196 C215 0.929 . S
H197 C227 0.931 . S
H198 C219 0.929 . S
H199 C228 0.930 . S
H200 C220 0.931 1_556 S
O201 Co177 2.097 . S
O201 C229 1.214 . S
H202 C230 0.929 . S
H203 C231 0.929 . S
H204 C232 0.930 . S
H205 C233 0.929 . S
H206 C235 0.930 . S
H207 C212 0.930 . S
H208 C216 0.930 . S
O209 Co178 2.037 . S
O209 C229 1.234 . S
C210 O184 1.269 . S
C210 O185 1.257 . S
C211 H186 0.930 . S
C211 C214 1.388 . S
C211 C216 1.418 . S
C212 H207 0.930 . S
C212 C215 1.404 . S
C212 C216 1.353 . S
N213 Co178 2.145 . S
N213 C214 1.397 . S
N213 C215 1.334 . S
C214 H195 0.929 . S
C214 C211 1.388 . S
C214 N213 1.397 . S
C215 H196 0.929 . S
C215 C212 1.404 . S
C215 N213 1.334 . S
C216 H208 0.930 . S
C216 C211 1.418 . S
C216 C212 1.353 . S
C217 H187 0.930 . S
C217 N218 1.330 . S
C217 C219 1.446 . S
N218 Co177 2.151 . S
N218 C217 1.330 . S
N218 C222 1.418 . S
C219 H198 0.929 . S
C219 C217 1.446 . S
C219 C220 1.332 . S
C220 H200 0.931 1_554 S
C220 C219 1.332 . S
C220 C221 1.267 . S
C221 H189 0.929 . S
C221 C220 1.267 . S
C221 C222 1.251 . S
C222 H192 0.929 . S
C222 N218 1.418 . S
C222 C221 1.251 . S
C223 H190 0.930 . S
C223 C225 1.406 . S
C223 C228 1.261 . S
C224 H191 0.930 . S
C224 N226 1.325 . S
C224 C227 1.357 . S
C225 H193 0.928 . S
C225 C223 1.406 . S
C225 N226 1.261 . S
N226 Co177 2.214 . S
N226 C224 1.325 . S
N226 C225 1.261 . S
C227 H197 0.931 . S
C227 C224 1.357 . S
C227 C228 1.312 . S
C228 H199 0.930 . S
C228 C223 1.261 . S
C228 C227 1.312 . S
C229 O201 1.214 . S
C229 O209 1.234 . S
C230 H202 0.929 . S
C230 C233 1.391 . S
C230 C235 1.391 . S
C231 H203 0.929 . S
C231 C232 1.390 . S
C231 N234 1.391 . S
C232 H204 0.930 . S
C232 C231 1.390 . S
C232 C233 1.392 . S
C233 H205 0.929 . S
C233 C230 1.391 . S
C233 C232 1.392 . S
N234 Co178 2.257 . S
N234 C231 1.391 . S
N234 C235 1.388 . S
C235 H206 0.930 . S
C235 C230 1.391 . S
C235 N234 1.388 . S
Co236 O238 2.143 . S
Co236 O244 2.074 . S
Co236 O247 2.093 . S
Co236 O260 2.097 . S
Co236 N277 2.151 . S
Co236 N285 2.214 . S
Co237 O238 2.160 . S
Co237 O243 2.058 . S
Co237 O253 2.057 . S
Co237 O268 2.037 . S
Co237 N272 2.145 . S
Co237 N293 2.257 . S
O238 Co236 2.143 . S
O238 Co237 2.160 . S
C239 O240 1.278 . S
C239 O247 1.224 . S
O240 C239 1.278 . S
C241 O242 1.245 . S
C241 O253 1.232 . S
O242 C241 1.245 . S
O243 Co237 2.058 . S
O243 C269 1.269 . S
O244 Co236 2.074 . S
O244 C269 1.257 . S
H245 C270 0.930 . S
H246 C276 0.930 . S
O247 Co236 2.093 . S
O247 C239 1.224 . S
H248 C280 0.929 . S
H249 C282 0.930 . S
H250 C283 0.930 . S
H251 C281 0.929 . S
H252 C284 0.928 . S
O253 Co237 2.057 . S
O253 C241 1.232 . S
H254 C273 0.929 . S
H255 C274 0.929 . S
H256 C286 0.931 . S
H257 C278 0.929 1_556 S
H258 C287 0.930 . S
H259 C279 0.931 1_556 S
O260 Co236 2.097 . S
O260 C288 1.214 . S
H261 C289 0.929 . S
H262 C290 0.929 . S
H263 C291 0.930 . S
H264 C292 0.929 . S
H265 C294 0.930 . S
H266 C271 0.930 . S
H267 C275 0.930 . S
O268 Co237 2.037 . S
O268 C288 1.234 . S
C269 O243 1.269 . S
C269 O244 1.257 . S
C270 H245 0.930 . S
C270 C273 1.388 . S
C270 C275 1.418 . S
C271 H266 0.930 . S
C271 C274 1.404 . S
C271 C275 1.353 . S
N272 Co237 2.145 . S
N272 C273 1.397 . S
N272 C274 1.334 . S
C273 H254 0.929 . S
C273 C270 1.388 . S
C273 N272 1.397 . S
C274 H255 0.929 . S
C274 C271 1.404 . S
C274 N272 1.334 . S
C275 H267 0.930 . S
C275 C270 1.418 . S
C275 C271 1.353 . S
C276 H246 0.930 . S
C276 N277 1.330 . S
C276 C278 1.446 . S
N277 Co236 2.151 . S
N277 C276 1.330 . S
N277 C281 1.418 . S
C278 H257 0.929 1_554 S
C278 C276 1.446 . S
C278 C279 1.332 . S
C279 H259 0.931 1_554 S
C279 C278 1.332 . S
C279 C280 1.267 . S
C280 H248 0.929 . S
C280 C279 1.267 . S
C280 C281 1.251 . S
C281 H251 0.929 . S
C281 N277 1.418 . S
C281 C280 1.251 . S
C282 H249 0.930 . S
C282 C284 1.406 . S
C282 C287 1.261 . S
C283 H250 0.930 . S
C283 N285 1.325 . S
C283 C286 1.357 . S
C284 H252 0.928 . S
C284 C282 1.406 . S
C284 N285 1.261 . S
N285 Co236 2.214 . S
N285 C283 1.325 . S
N285 C284 1.261 . S
C286 H256 0.931 . S
C286 C283 1.357 . S
C286 C287 1.312 . S
C287 H258 0.930 . S
C287 C282 1.261 . S
C287 C286 1.312 . S
C288 O260 1.214 . S
C288 O268 1.234 . S
C289 H261 0.929 . S
C289 C292 1.391 . S
C289 C294 1.391 . S
C290 H262 0.929 . S
C290 C291 1.390 . S
C290 N293 1.391 . S
C291 H263 0.930 . S
C291 C290 1.390 . S
C291 C292 1.392 . S
C292 H264 0.929 . S
C292 C289 1.391 . S
C292 C291 1.392 . S
N293 Co237 2.257 . S
N293 C290 1.391 . S
N293 C294 1.388 . S
C294 H265 0.930 . S
C294 C289 1.391 . S
C294 N293 1.388 . S
Co295 O297 2.143 . S
Co295 O303 2.074 . S
Co295 O306 2.093 . S
Co295 O319 2.097 1_556 S
Co295 N336 2.151 . S
Co295 N344 2.214 . S
Co296 O297 2.160 1_554 S
Co296 O302 2.058 . S
Co296 O312 2.057 . S
Co296 O327 2.037 . S
Co296 N331 2.145 . S
Co296 N352 2.257 . S
O297 Co295 2.143 . S
O297 Co296 2.160 1_556 S
C298 O299 1.278 . S
C298 O306 1.224 . S
O299 C298 1.278 . S
C300 O301 1.245 . S
C300 O312 1.232 1_556 S
O301 C300 1.245 . S
O302 Co296 2.058 . S
O302 C328 1.269 1_554 S
O303 Co295 2.074 . S
O303 C328 1.257 . S
H304 C329 0.930 . S
H305 C335 0.930 . S
O306 Co295 2.093 . S
O306 C298 1.224 . S
H307 C339 0.929 . S
H308 C341 0.930 . S
H309 C342 0.930 . S
H310 C340 0.929 . S
H311 C343 0.928 . S
O312 Co296 2.057 . S
O312 C300 1.232 1_554 S
H313 C332 0.929 . S
H314 C333 0.929 . S
H315 C345 0.931 . S
H316 C337 0.929 . S
H317 C346 0.930 . S
H318 C338 0.931 . S
O319 Co295 2.097 1_554 S
O319 C347 1.214 . S
H320 C348 0.929 . S
H321 C349 0.929 . S
H322 C350 0.930 . S
H323 C351 0.929 . S
H324 C353 0.930 . S
H325 C330 0.930 1_565 S
H326 C334 0.930 . S
O327 Co296 2.037 . S
O327 C347 1.234 . S
C328 O302 1.269 1_556 S
C328 O303 1.257 . S
C329 H304 0.930 . S
C329 C332 1.388 . S
C329 C334 1.418 . S
C330 H325 0.930 1_545 S
C330 C333 1.404 . S
C330 C334 1.353 . S
N331 Co296 2.145 . S
N331 C332 1.397 . S
N331 C333 1.334 . S
C332 H313 0.929 . S
C332 C329 1.388 . S
C332 N331 1.397 . S
C333 H314 0.929 . S
C333 C330 1.404 . S
C333 N331 1.334 . S
C334 H326 0.930 . S
C334 C329 1.418 . S
C334 C330 1.353 . S
C335 H305 0.930 . S
C335 N336 1.330 . S
C335 C337 1.446 . S
N336 Co295 2.151 . S
N336 C335 1.330 . S
N336 C340 1.418 . S
C337 H316 0.929 . S
C337 C335 1.446 . S
C337 C338 1.332 . S
C338 H318 0.931 . S
C338 C337 1.332 . S
C338 C339 1.267 . S
C339 H307 0.929 . S
C339 C338 1.267 . S
C339 C340 1.251 . S
C340 H310 0.929 . S
C340 N336 1.418 . S
C340 C339 1.251 . S
C341 H308 0.930 . S
C341 C343 1.406 . S
C341 C346 1.261 . S
C342 H309 0.930 . S
C342 N344 1.325 1_554 S
C342 C345 1.357 . S
C343 H311 0.928 . S
C343 C341 1.406 . S
C343 N344 1.261 . S
N344 Co295 2.214 . S
N344 C342 1.325 1_556 S
N344 C343 1.261 . S
C345 H315 0.931 . S
C345 C342 1.357 . S
C345 C346 1.312 1_554 S
C346 H317 0.930 . S
C346 C341 1.261 . S
C346 C345 1.312 1_556 S
C347 O319 1.214 . S
C347 O327 1.234 . S
C348 H320 0.929 . S
C348 C351 1.391 . S
C348 C353 1.391 . S
C349 H321 0.929 . S
C349 C350 1.390 . S
C349 N352 1.391 . S
C350 H322 0.930 . S
C350 C349 1.390 . S
C350 C351 1.392 . S
C351 H323 0.929 . S
C351 C348 1.391 . S
C351 C350 1.392 . S
N352 Co296 2.257 . S
N352 C349 1.391 . S
N352 C353 1.388 . S
C353 H324 0.930 . S
C353 C348 1.391 . S
C353 N352 1.388 . S
H354 C362 0.950 . S
H355 C367 0.950 . S
H356 C364 0.950 . S
H357 C366 0.950 . S
H358 C368 0.950 . S
H359 C370 0.950 . S
H360 C372 0.950 . S
H361 C373 0.950 . S
C362 H354 0.950 . S
C362 C363 1.386 . S
C362 C364 1.391 . S
C363 C362 1.386 . S
C363 C367 1.393 1_554 S
C364 H356 0.950 . S
C364 C362 1.391 . S
C364 C365 1.400 . S
C365 C364 1.400 . S
C365 C366 1.398 1_554 S
C365 C371 1.491 . S
C366 H357 0.950 . S
C366 C365 1.398 1_556 S
C366 C367 1.391 . S
C367 H355 0.950 . S
C367 C363 1.393 1_556 S
C367 C366 1.391 . S
C368 H358 0.950 . S
C368 C369 1.396 . S
C368 C370 1.391 . S
C369 C368 1.396 . S
C369 C373 1.381 1_556 S
C370 H359 0.950 . S
C370 C368 1.391 . S
C370 C371 1.400 1_556 S
C371 C365 1.491 . S
C371 C370 1.400 1_554 S
C371 C372 1.398 . S
C372 H360 0.950 . S
C372 C371 1.398 . S
C372 C373 1.391 . S
C373 H361 0.950 . S
C373 C369 1.381 1_554 S
C373 C372 1.391 . S
H374 C382 0.950 . S
H375 C387 0.950 . S
H376 C384 0.950 . S
H377 C386 0.950 . S
H378 C388 0.950 . S
H379 C390 0.950 . S
H380 C392 0.950 1_655 S
H381 C393 0.950 . S
C382 H374 0.950 . S
C382 C383 1.386 . S
C382 C384 1.391 . S
C383 C382 1.386 . S
C383 C387 1.393 1_655 S
C384 H376 0.950 . S
C384 C382 1.391 . S
C384 C385 1.400 1_655 S
C385 C384 1.400 1_455 S
C385 C386 1.398 . S
C385 C391 1.491 . S
C386 H377 0.950 . S
C386 C385 1.398 . S
C386 C387 1.391 . S
C387 H375 0.950 . S
C387 C383 1.393 1_455 S
C387 C386 1.391 . S
C388 H378 0.950 . S
C388 C389 1.386 . S
C388 C390 1.391 . S
C389 C388 1.386 . S
C389 C393 1.393 . S
C390 H379 0.950 . S
C390 C388 1.391 . S
C390 C391 1.400 . S
C391 C385 1.491 . S
C391 C390 1.400 . S
C391 C392 1.398 . S
C392 H380 0.950 1_455 S
C392 C391 1.398 . S
C392 C393 1.391 . S
C393 H381 0.950 . S
C393 C389 1.393 . S
C393 C392 1.391 . S
H394 C402 0.950 . S
H395 C407 0.950 . S
H396 C404 0.950 . S
H397 C406 0.950 . S
H398 C408 0.950 . S
H399 C410 0.950 1_545 S
H400 C412 0.950 . S
H401 C413 0.950 . S
C402 H394 0.950 . S
C402 C403 1.386 . S
C402 C404 1.391 . S
C403 C402 1.386 . S
C403 C407 1.393 . S
C404 H396 0.950 . S
C404 C402 1.391 . S
C404 C405 1.400 . S
C405 C404 1.400 . S
C405 C406 1.398 . S
C405 C411 1.491 . S
C406 H397 0.950 . S
C406 C405 1.398 . S
C406 C407 1.391 . S
C407 H395 0.950 . S
C407 C403 1.393 . S
C407 C406 1.391 . S
C408 H398 0.950 . S
C408 C409 1.386 . S
C408 C410 1.391 . S
C409 C408 1.386 . S
C409 C413 1.393 . S
C410 H399 0.950 1_565 S
C410 C408 1.391 . S
C410 C411 1.400 1_565 S
C411 C405 1.491 . S
C411 C410 1.400 1_545 S
C411 C412 1.398 1_545 S
C412 H400 0.950 . S
C412 C411 1.398 1_565 S
C412 C413 1.391 . S
C413 H401 0.950 . S
C413 C409 1.393 . S
C413 C412 1.391 . S
H414 C422 0.950 . S
H415 C427 0.950 . S
H416 C424 0.950 . S
H417 C426 0.950 . S
H418 C428 0.950 . S
H419 C430 0.950 . S
H420 C432 0.950 . S
H421 C433 0.950 . S
C422 H414 0.950 . S
C422 C423 1.386 . S
C422 C424 1.391 . S
C423 C422 1.386 . S
C423 C427 1.393 . S
C424 H416 0.950 . S
C424 C422 1.391 . S
C424 C425 1.400 . S
C425 C424 1.400 . S
C425 C426 1.398 . S
C425 C431 1.491 1_554 S
C426 H417 0.950 . S
C426 C425 1.398 . S
C426 C427 1.391 . S
C427 H415 0.950 . S
C427 C423 1.393 . S
C427 C426 1.391 . S
C428 H418 0.950 . S
C428 C429 1.386 . S
C428 C430 1.391 . S
C429 C428 1.386 . S
C429 C433 1.393 . S
C430 H419 0.950 . S
C430 C428 1.391 . S
C430 C431 1.400 . S
C431 C425 1.491 1_556 S
C431 C430 1.400 . S
C431 C432 1.398 . S
C432 H420 0.950 . S
C432 C431 1.398 . S
C432 C433 1.391 . S
C433 H421 0.950 . S
C433 C429 1.393 . S
C433 C432 1.391 . S
H434 C442 0.950 . S
H435 C447 0.950 . S
H436 C444 0.950 . S
H437 C446 0.950 . S
H438 C448 0.950 . S
H439 C450 0.952 . S
H440 C452 0.950 1_655 S
H441 C453 0.950 . S
C442 H434 0.950 . S
C442 C443 1.386 . S
C442 C444 1.391 . S
C443 C442 1.386 . S
C443 C447 1.393 . S
C444 H436 0.950 . S
C444 C442 1.391 . S
C444 C445 1.400 . S
C445 C444 1.400 . S
C445 C446 1.398 . S
C445 C451 1.491 . S
C446 H437 0.950 . S
C446 C445 1.398 . S
C446 C447 1.391 . S
C447 H435 0.950 . S
C447 C443 1.393 . S
C447 C446 1.391 . S
C448 H438 0.950 . S
C448 C449 1.386 . S
C448 C450 1.391 . S
C449 C448 1.386 . S
C449 C453 1.393 . S
C450 H439 0.952 . S
C450 C448 1.391 . S
C450 C451 1.400 1_455 S
C451 C445 1.491 . S
C451 C450 1.400 1_655 S
C451 C452 1.398 1_655 S
C452 H440 0.950 1_455 S
C452 C451 1.398 1_455 S
C452 C453 1.391 . S
C453 H441 0.950 . S
C453 C449 1.393 . S
C453 C452 1.391 . S
H454 C462 0.950 . S
H455 C467 0.950 . S
H456 C464 0.950 . S
H457 C466 0.950 . S
H458 C468 0.950 . S
H459 C470 0.950 . S
H460 C472 0.950 1_545 S
H461 C473 0.950 . S
C462 H454 0.950 . S
C462 C463 1.386 . S
C462 C464 1.391 . S
C463 C462 1.386 . S
C463 C467 1.393 1_545 S
C464 H456 0.950 . S
C464 C462 1.391 . S
C464 C465 1.400 1_545 S
C465 C464 1.400 1_565 S
C465 C466 1.398 . S
C465 C471 1.491 . S
C466 H457 0.950 . S
C466 C465 1.398 . S
C466 C467 1.391 . S
C467 H455 0.950 . S
C467 C463 1.393 1_565 S
C467 C466 1.391 . S
C468 H458 0.950 . S
C468 C469 1.386 . S
C468 C470 1.391 . S
C469 C468 1.386 . S
C469 C473 1.393 . S
C470 H459 0.950 . S
C470 C468 1.391 . S
C470 C471 1.400 . S
C471 C465 1.491 . S
C471 C470 1.400 . S
C471 C472 1.398 . S
C472 H460 0.950 1_565 S
C472 C471 1.398 . S
C472 C473 1.391 . S
C473 H461 0.950 . S
C473 C469 1.393 . S
C473 C472 1.391 . S
H474 C482 0.950 . S
H475 C487 0.950 . S
H476 C484 0.950 . S
H477 C486 0.950 . S
H478 C488 0.950 . S
H479 C490 0.950 . S
H480 C492 0.950 . S
H481 C493 0.950 . S
C482 H474 0.950 . S
C482 C483 1.386 . S
C482 C484 1.391 . S
C483 C482 1.386 . S
C483 C487 1.393 . S
C484 H476 0.950 . S
C484 C482 1.391 . S
C484 C485 1.400 . S
C485 C484 1.400 . S
C485 C486 1.398 . S
C485 C491 1.491 . S
C486 H477 0.950 . S
C486 C485 1.398 . S
C486 C487 1.391 . S
C487 H475 0.950 . S
C487 C483 1.393 . S
C487 C486 1.391 . S
C488 H478 0.950 . S
C488 C489 1.386 . S
C488 C490 1.391 . S
C489 C488 1.386 . S
C489 C493 1.393 . S
C490 H479 0.950 . S
C490 C488 1.391 . S
C490 C491 1.400 . S
C491 C485 1.491 . S
C491 C490 1.400 . S
C491 C492 1.398 . S
C492 H480 0.950 . S
C492 C491 1.398 . S
C492 C493 1.391 . S
C493 H481 0.950 . S
C493 C489 1.393 . S
C493 C492 1.391 . S
H494 C502 0.950 . S
H495 C507 0.950 . S
H496 C504 0.950 . S
H497 C506 0.950 . S
H498 C508 0.950 . S
H499 C510 0.950 . S
H500 C512 0.950 . S
H501 C513 0.950 . S
C502 H494 0.950 . S
C502 C503 1.386 . S
C502 C504 1.391 . S
C503 C502 1.386 . S
C503 C507 1.393 . S
C504 H496 0.950 . S
C504 C502 1.391 . S
C504 C505 1.400 . S
C505 C504 1.400 . S
C505 C506 1.398 . S
C505 C511 1.491 . S
C506 H497 0.950 . S
C506 C505 1.398 . S
C506 C507 1.391 . S
C507 H495 0.950 . S
C507 C503 1.393 . S
C507 C506 1.391 . S
C508 H498 0.950 . S
C508 C509 1.386 . S
C508 C510 1.391 . S
C509 C508 1.386 . S
C509 C513 1.393 . S
C510 H499 0.950 . S
C510 C508 1.391 . S
C510 C511 1.400 . S
C511 C505 1.491 . S
C511 C510 1.400 . S
C511 C512 1.398 . S
C512 H500 0.950 . S
C512 C511 1.398 . S
C512 C513 1.391 . S
C513 H501 0.950 . S
C513 C509 1.393 . S
C513 C512 1.391 . S
H514 C522 0.950 . S
H515 C527 0.950 . S
H516 C524 0.950 . S
H517 C526 0.950 . S
H518 C528 0.950 . S
H519 C530 0.950 . S
H520 C532 0.950 . S
H521 C533 0.950 . S
C522 H514 0.950 . S
C522 C523 1.386 . S
C522 C524 1.391 . S
C523 C522 1.386 . S
C523 C527 1.393 . S
C524 H516 0.950 . S
C524 C522 1.391 . S
C524 C525 1.400 . S
C525 C524 1.400 . S
C525 C526 1.398 . S
C525 C531 1.491 . S
C526 H517 0.950 . S
C526 C525 1.398 . S
C526 C527 1.391 . S
C527 H515 0.950 . S
C527 C523 1.393 . S
C527 C526 1.391 . S
C528 H518 0.950 . S
C528 C529 1.386 . S
C528 C530 1.391 . S
C529 C528 1.386 . S
C529 C533 1.393 . S
C530 H519 0.950 . S
C530 C528 1.391 . S
C530 C531 1.400 . S
C531 C525 1.491 . S
C531 C530 1.400 . S
C531 C532 1.398 . S
C532 H520 0.950 . S
C532 C531 1.398 . S
C532 C533 1.391 . S
C533 H521 0.950 . S
C533 C529 1.393 . S
C533 C532 1.391 . S
H534 C542 0.950 . S
H535 C547 0.950 . S
H536 C544 0.950 . S
H537 C546 0.950 . S
H538 C548 0.950 . S
H539 C550 0.950 . S
H540 C552 0.950 . S
H541 C553 0.950 . S
C542 H534 0.950 . S
C542 C543 1.386 . S
C542 C544 1.391 . S
C543 C542 1.386 . S
C543 C547 1.393 . S
C544 H536 0.950 . S
C544 C542 1.391 . S
C544 C545 1.400 . S
C545 C544 1.400 . S
C545 C546 1.398 . S
C545 C551 1.491 . S
C546 H537 0.950 . S
C546 C545 1.398 . S
C546 C547 1.391 . S
C547 H535 0.950 . S
C547 C543 1.393 . S
C547 C546 1.391 . S
C548 H538 0.950 . S
C548 C549 1.386 . S
C548 C550 1.391 . S
C549 C548 1.386 . S
C549 C553 1.393 . S
C550 H539 0.950 . S
C550 C548 1.391 . S
C550 C551 1.400 . S
C551 C545 1.491 . S
C551 C550 1.400 . S
C551 C552 1.398 . S
C552 H540 0.950 . S
C552 C551 1.398 . S
C552 C553 1.391 . S
C553 H541 0.950 . S
C553 C549 1.393 . S
C553 C552 1.391 . S
H554 C562 0.950 . S
H555 C567 0.950 . S
H556 C564 0.950 . S
H557 C566 0.950 . S
H558 C568 0.950 . S
H559 C570 0.950 . S
H560 C572 0.950 . S
H561 C573 0.950 . S
C562 H554 0.950 . S
C562 C563 1.386 . S
C562 C564 1.391 . S
C563 C562 1.386 . S
C563 C567 1.393 . S
C564 H556 0.950 . S
C564 C562 1.391 . S
C564 C565 1.400 . S
C565 C564 1.400 . S
C565 C566 1.398 . S
C565 C571 1.491 . S
C566 H557 0.950 . S
C566 C565 1.398 . S
C566 C567 1.391 . S
C567 H555 0.950 . S
C567 C563 1.393 . S
C567 C566 1.391 . S
C568 H558 0.950 . S
C568 C569 1.386 . S
C568 C570 1.391 . S
C569 C568 1.386 . S
C569 C573 1.393 . S
C570 H559 0.950 . S
C570 C568 1.391 . S
C570 C571 1.400 . S
C571 C565 1.491 . S
C571 C570 1.400 . S
C571 C572 1.398 . S
C572 H560 0.950 . S
C572 C571 1.398 . S
C572 C573 1.391 . S
C573 H561 0.950 . S
C573 C569 1.393 . S
C573 C572 1.391 . S
H574 C582 0.950 . S
H575 C587 0.950 . S
H576 C584 0.950 . S
H577 C586 0.950 . S
H578 C588 0.950 . S
H579 C590 0.950 . S
H580 C592 0.950 . S
H581 C593 0.950 . S
C582 H574 0.950 . S
C582 C583 1.386 . S
C582 C584 1.391 . S
C583 C582 1.386 . S
C583 C587 1.393 . S
C584 H576 0.950 . S
C584 C582 1.391 . S
C584 C585 1.400 . S
C585 C584 1.400 . S
C585 C586 1.398 . S
C585 C591 1.491 . S
C586 H577 0.950 . S
C586 C585 1.398 . S
C586 C587 1.391 . S
C587 H575 0.950 . S
C587 C583 1.393 . S
C587 C586 1.391 . S
C588 H578 0.950 . S
C588 C589 1.386 . S
C588 C590 1.391 . S
C589 C588 1.386 . S
C589 C593 1.393 . S
C590 H579 0.950 . S
C590 C588 1.391 . S
C590 C591 1.400 . S
C591 C585 1.491 . S
C591 C590 1.400 . S
C591 C592 1.398 . S
C592 H580 0.950 . S
C592 C591 1.398 . S
C592 C593 1.391 . S
C593 H581 0.950 . S
C593 C589 1.393 . S
C593 C592 1.391 . S
C363 C5 1.372 . S
C369 C328 1.366 . S
C383 C64 2.185 . S
C389 C33 2.188 . S
C403 C92 1.412 . S
C409 C123 1.418 . S
C423 C182 2.203 . S
C429 C151 2.189 . S
C443 C210 1.427 . S
C449 C241 1.421 . S
C463 C300 2.203 . S
C469 C269 2.184 . S
C483 C239 1.473 . S
C489 C52 1.624 . S
C503 C298 1.599 . S
C509 C111 1.507 . S
C523 C170 1.643 . S
C529 C3 1.514 . S
C543 C229 1.543 . S
C549 C62 1.630 . S
C563 C288 1.624 . S
C569 C121 1.473 . S
C583 C347 1.553 . S
C589 C180 1.646 . S
