# Generated by pormake.
# Topology uou, (4)-cn, num edge types: 1
# Building blocks:
#     Node 0, Type 0, BuildingBlock: TATPOV_clean_sbu_0, # of connection points: 4
#     Node 1, Type 0, BuildingBlock: TATPOV_clean_sbu_0, # of connection points: 4
#     Node 2, Type 0, BuildingBlock: TATPOV_clean_sbu_0, # of connection points: 4
#     Node 3, Type 0, BuildingBlock: TATPOV_clean_sbu_0, # of connection points: 4
#     Node 4, Type 0, BuildingBlock: TATPOV_clean_sbu_0, # of connection points: 4
#     Node 5, Type 0, BuildingBlock: TATPOV_clean_sbu_0, # of connection points: 4
#     Node 6, Type 0, BuildingBlock: TATPOV_clean_sbu_0, # of connection points: 4
#     Node 7, Type 0, BuildingBlock: TATPOV_clean_sbu_0, # of connection points: 4
#     Node 8, Type 0, BuildingBlock: TATPOV_clean_sbu_0, # of connection points: 4
#     Node 9, Type 0, BuildingBlock: TATPOV_clean_sbu_0, # of connection points: 4
#     Node 10, Type 0, BuildingBlock: TATPOV_clean_sbu_0, # of connection points: 4
#     Node 11, Type 0, BuildingBlock: TATPOV_clean_sbu_0, # of connection points: 4
#     Node 12, Type 0, BuildingBlock: TATPOV_clean_sbu_0, # of connection points: 4
#     Node 13, Type 0, BuildingBlock: TATPOV_clean_sbu_0, # of connection points: 4
#     Node 14, Type 0, BuildingBlock: TATPOV_clean_sbu_0, # of connection points: 4
#     Node 15, Type 0, BuildingBlock: TATPOV_clean_sbu_0, # of connection points: 4
#     Edge 16, Type (0, 0), BuildingBlock: EZIPEK_clean_linker_0, # of connection points: 2
#     Edge 17, Type (0, 0), BuildingBlock: EZIPEK_clean_linker_0, # of connection points: 2
#     Edge 18, Type (0, 0), BuildingBlock: EZIPEK_clean_linker_0, # of connection points: 2
#     Edge 19, Type (0, 0), BuildingBlock: EZIPEK_clean_linker_0, # of connection points: 2
#     Edge 20, Type (0, 0), BuildingBlock: EZIPEK_clean_linker_0, # of connection points: 2
#     Edge 21, Type (0, 0), BuildingBlock: EZIPEK_clean_linker_0, # of connection points: 2
#     Edge 22, Type (0, 0), BuildingBlock: EZIPEK_clean_linker_0, # of connection points: 2
#     Edge 23, Type (0, 0), BuildingBlock: EZIPEK_clean_linker_0, # of connection points: 2
#     Edge 24, Type (0, 0), BuildingBlock: EZIPEK_clean_linker_0, # of connection points: 2
#     Edge 25, Type (0, 0), BuildingBlock: EZIPEK_clean_linker_0, # of connection points: 2
#     Edge 26, Type (0, 0), BuildingBlock: EZIPEK_clean_linker_0, # of connection points: 2
#     Edge 27, Type (0, 0), BuildingBlock: EZIPEK_clean_linker_0, # of connection points: 2
#     Edge 28, Type (0, 0), BuildingBlock: EZIPEK_clean_linker_0, # of connection points: 2
#     Edge 29, Type (0, 0), BuildingBlock: EZIPEK_clean_linker_0, # of connection points: 2
#     Edge 30, Type (0, 0), BuildingBlock: EZIPEK_clean_linker_0, # of connection points: 2
#     Edge 31, Type (0, 0), BuildingBlock: EZIPEK_clean_linker_0, # of connection points: 2
#     Edge 32, Type (0, 0), BuildingBlock: EZIPEK_clean_linker_0, # of connection points: 2
#     Edge 33, Type (0, 0), BuildingBlock: EZIPEK_clean_linker_0, # of connection points: 2
#     Edge 34, Type (0, 0), BuildingBlock: EZIPEK_clean_linker_0, # of connection points: 2
#     Edge 35, Type (0, 0), BuildingBlock: EZIPEK_clean_linker_0, # of connection points: 2
#     Edge 36, Type (0, 0), BuildingBlock: EZIPEK_clean_linker_0, # of connection points: 2
#     Edge 37, Type (0, 0), BuildingBlock: EZIPEK_clean_linker_0, # of connection points: 2
#     Edge 38, Type (0, 0), BuildingBlock: EZIPEK_clean_linker_0, # of connection points: 2
#     Edge 39, Type (0, 0), BuildingBlock: EZIPEK_clean_linker_0, # of connection points: 2
#     Edge 40, Type (0, 0), BuildingBlock: EZIPEK_clean_linker_0, # of connection points: 2
#     Edge 41, Type (0, 0), BuildingBlock: EZIPEK_clean_linker_0, # of connection points: 2
#     Edge 42, Type (0, 0), BuildingBlock: EZIPEK_clean_linker_0, # of connection points: 2
#     Edge 43, Type (0, 0), BuildingBlock: EZIPEK_clean_linker_0, # of connection points: 2
#     Edge 44, Type (0, 0), BuildingBlock: EZIPEK_clean_linker_0, # of connection points: 2
#     Edge 45, Type (0, 0), BuildingBlock: EZIPEK_clean_linker_0, # of connection points: 2
#     Edge 46, Type (0, 0), BuildingBlock: EZIPEK_clean_linker_0, # of connection points: 2
#     Edge 47, Type (0, 0), BuildingBlock: EZIPEK_clean_linker_0, # of connection points: 2
# Relax obj value: 0.084
# Max RMSD: 0.143
# Mean RMSD: 0.143
data_MOF--net-uou--node1-TATPOV_clean_sbu_0--edge1-EZIPEK_clean_linker_0
_symmetry_space_group_name_H-M    P1
_symmetry_Int_Tables_number       1
_symmetry_cell_setting            triclinic
loop_
_symmetry_equiv_pos_as_xyz
'x, y, z'
_cell_length_a     28.71962
_cell_length_b     25.665457
_cell_length_c     39.988737
_cell_angle_alpha  90.069563
_cell_angle_beta   90.2978
_cell_angle_gamma 90.109257
loop_
_atom_site_label
_atom_site_type_symbol
_atom_site_fract_x
_atom_site_fract_y
_atom_site_fract_z
_atom_type_partial_charge
Zn0 Zn 0.99551 0.0362 0.1211 0.0
Zn1 Zn 0.09055 0.03371 0.12565 0.0
O2 O 0.06672 0.98339 0.16157 0.0
O3 O 0.99076 0.9813 0.15726 0.0
O4 O 0.16071 0.02748 0.13047 0.0
O5 O 1.00139 0.01768 0.07209 0.0
O6 O 0.07789 0.01325 0.07698 0.0
C7 C 0.02773 0.96481 0.17094 0.0
C8 C 0.03746 0.13595 0.13597 0.0
O9 O 0.07567 0.11093 0.13375 0.0
O10 O 0.99869 0.11276 0.13298 0.0
C11 C 0.18845 0.0384 0.10678 0.0
O12 O 0.17177 0.05582 0.07828 0.0
C13 C 0.04105 0.01044 0.05923 0.0
Zn14 Zn 0.57349 0.95596 0.12017 0.0
Zn15 Zn 0.47833 0.96153 0.12075 0.0
O16 O 0.4993 0.01195 0.15788 0.0
O17 O 0.57553 0.01104 0.15643 0.0
O18 O 0.40783 0.96636 0.1208 0.0
O19 O 0.57146 0.97469 0.07107 0.0
O20 O 0.49495 0.98245 0.07301 0.0
C21 C 0.5383 0.02916 0.1686 0.0
C22 C 0.52932 0.85777 0.13312 0.0
O23 O 0.4921 0.88419 0.12929 0.0
O24 O 0.56887 0.8795 0.13179 0.0
C25 C 0.38818 0.01052 0.11792 0.0
O26 O 0.41385 0.05277 0.11581 0.0
C27 C 0.53294 0.98409 0.05678 0.0
Zn28 Zn 0.49628 0.97034 0.34842 0.0
Zn29 Zn 0.5905 0.96335 0.34971 0.0
O30 O 0.57309 0.01365 0.31184 0.0
O31 O 0.49782 0.02584 0.31275 0.0
O32 O 0.66089 0.96556 0.34784 0.0
O33 O 0.49834 0.98741 0.39791 0.0
O34 O 0.57522 0.98449 0.39765 0.0
C35 C 0.53714 0.03666 0.30042 0.0
C36 C 0.5319 0.86653 0.33629 0.0
O37 O 0.57149 0.88734 0.34202 0.0
O38 O 0.49528 0.89399 0.33536 0.0
C39 C 0.68047 0.00962 0.35213 0.0
O40 O 0.6548 0.05052 0.359 0.0
C41 C 0.537 0.99078 0.41312 0.0
Zn42 Zn 0.07189 0.02623 0.35036 0.0
Zn43 Zn 0.97751 0.03016 0.35411 0.0
O44 O 0.99245 0.97998 0.31539 0.0
O45 O 0.06821 0.97124 0.31444 0.0
O46 O 0.90737 0.02502 0.35774 0.0
O47 O 0.07544 0.00838 0.39964 0.0
O48 O 0.99869 0.01163 0.40135 0.0
C49 C 0.02856 0.9587 0.30303 0.0
C50 C 0.03193 0.12882 0.33907 0.0
O51 O 0.99318 0.10655 0.34515 0.0
O52 O 0.06938 0.10282 0.33787 0.0
C53 C 0.87911 0.04203 0.33578 0.0
O54 O 0.89523 0.06605 0.30924 0.0
C55 C 0.03781 0.00547 0.41587 0.0
Zn56 Zn 0.06639 0.95857 0.85068 0.0
Zn57 Zn 0.9717 0.96953 0.85491 0.0
O58 O 0.99124 0.01955 0.81751 0.0
O59 O 0.06697 0.01234 0.81374 0.0
O60 O 0.90246 0.98247 0.85934 0.0
O61 O 0.07313 0.97939 0.89917 0.0
O62 O 0.99644 0.98351 0.90224 0.0
C63 C 0.02943 0.0336 0.80418 0.0
C64 C 1.01316 0.86325 0.83955 0.0
O65 O 0.97769 0.89241 0.84324 0.0
O66 O 0.05399 0.882 0.84101 0.0
C67 C 0.87333 0.96786 0.83716 0.0
O68 O 0.88821 0.94335 0.81043 0.0
C69 C 0.03647 0.98621 0.916 0.0
Zn70 Zn 0.48968 0.04416 0.85128 0.0
Zn71 Zn 0.58484 0.04841 0.84983 0.0
O72 O 0.56544 0.99661 0.81325 0.0
O73 O 0.48952 0.9904 0.81418 0.0
O74 O 0.65518 0.04575 0.84715 0.0
O75 O 0.49428 0.02298 0.89994 0.0
O76 O 0.57105 0.02762 0.89813 0.0
C77 C 0.52808 0.97591 0.80218 0.0
C78 C 0.5275 0.14711 0.83841 0.0
O79 O 0.56684 0.12447 0.84104 0.0
O80 O 0.48988 0.12154 0.84083 0.0
C81 C 0.67483 0.00202 0.85211 0.0
O82 O 0.64923 0.96131 0.85974 0.0
C83 C 0.53359 0.01978 0.91428 0.0
Zn84 Zn 0.57214 0.0347 0.62131 0.0
Zn85 Zn 0.47744 0.03696 0.6193 0.0
O86 O 0.49487 0.98728 0.65807 0.0
O87 O 0.5709 0.98092 0.65781 0.0
O88 O 0.4068 0.0341 0.61768 0.0
O89 O 0.57262 0.0151 0.57226 0.0
O90 O 0.49574 0.01668 0.57174 0.0
C91 C 0.53213 0.9674 0.66995 0.0
C92 C 0.53259 0.13667 0.63276 0.0
O93 O 0.49392 0.11355 0.62747 0.0
O94 O 0.57045 0.1114 0.63334 0.0
C95 C 0.38671 0.98991 0.61648 0.0
O96 O 0.41191 0.94729 0.61692 0.0
C97 C 0.53431 0.01059 0.55673 0.0
Zn98 Zn 0.99528 0.97171 0.62298 0.0
Zn99 Zn 0.08953 0.96839 0.62521 0.0
O100 O 0.06842 0.0183 0.66236 0.0
O101 O 0.9929 0.02746 0.65851 0.0
O102 O 0.15976 0.97353 0.62894 0.0
O103 O 0.99922 0.98795 0.57355 0.0
O104 O 0.076 0.98862 0.57678 0.0
C105 C 0.03106 0.03991 0.67233 0.0
C106 C 0.03321 0.86943 0.63651 0.0
O107 O 0.07251 0.89158 0.63226 0.0
O108 O 0.99582 0.89558 0.63601 0.0
C109 C 0.18716 0.95933 0.60579 0.0
O110 O 0.17004 0.9382 0.57842 0.0
C111 C 0.0386 0.99271 0.55979 0.0
Zn112 Zn 0.47814 0.53426 0.12342 0.0
Zn113 Zn 0.57222 0.52942 0.11797 0.0
O114 O 0.55495 0.48108 0.15702 0.0
O115 O 0.47885 0.47918 0.15928 0.0
O116 O 0.64195 0.51936 0.11407 0.0
O117 O 0.47188 0.51708 0.07423 0.0
O118 O 0.54844 0.51137 0.07105 0.0
C119 C 0.5178 0.46318 0.17002 0.0
C120 C 0.52539 0.6328 0.13374 0.0
O121 O 0.56205 0.60713 0.12682 0.0
O122 O 0.48618 0.6103 0.1357 0.0
C123 C 0.67064 0.53501 0.13625 0.0
O124 O 0.65515 0.56 0.16263 0.0
C125 C 0.50838 0.50956 0.05731 0.0
Zn126 Zn 0.05285 0.46572 0.12029 0.0
Zn127 Zn 0.959 0.45449 0.12358 0.0
O128 O 0.97849 0.50539 0.16083 0.0
O129 O 0.05307 0.52084 0.15627 0.0
O130 O 0.88874 0.45521 0.12762 0.0
O131 O 0.04567 0.48347 0.07106 0.0
O132 O 0.96933 0.47597 0.07514 0.0
C133 C 1.01475 0.52983 0.17059 0.0
C134 C 1.02149 0.36027 0.13419 0.0
O135 O 0.98078 0.37922 0.13041 0.0
O136 O 0.05713 0.38946 0.13336 0.0
C137 C 0.8691 0.49897 0.12262 0.0
O138 O 0.89474 0.53951 0.11466 0.0
C139 C 1.00551 0.48485 0.05786 0.0
Zn140 Zn 0.98246 0.44967 0.35096 0.0
Zn141 Zn 0.07727 0.46007 0.35344 0.0
O142 O 0.05681 0.50858 0.31541 0.0
O143 O 0.98072 0.50359 0.31406 0.0
O144 O 0.14692 0.47166 0.35674 0.0
O145 O 0.9789 0.46996 0.39966 0.0
O146 O 0.0554 0.47874 0.40058 0.0
C147 C 1.01806 0.52345 0.3031 0.0
C148 C 0.03294 0.3537 0.33972 0.0
O149 O 0.06899 0.38216 0.3437 0.0
O150 O 0.99251 0.3733 0.34064 0.0
C151 C 0.17535 0.45677 0.33443 0.0
O152 O 0.15961 0.43247 0.30772 0.0
C153 C 1.01624 0.48002 0.41534 0.0
Zn154 Zn 0.55861 0.5411 0.35089 0.0
Zn155 Zn 0.46341 0.54071 0.34898 0.0
O156 O 0.48431 0.48926 0.31282 0.0
O157 O 0.5604 0.48693 0.31404 0.0
O158 O 0.39313 0.53545 0.34586 0.0
O159 O 0.5551 0.52065 0.3997 0.0
O160 O 0.47822 0.52158 0.3976 0.0
C161 C 0.52232 0.47037 0.30195 0.0
C162 C 0.5173 0.64194 0.33727 0.0
O163 O 0.47883 0.61735 0.33966 0.0
O164 O 0.5558 0.61829 0.3401 0.0
C165 C 0.37409 0.49119 0.35025 0.0
O166 O 0.40023 0.45083 0.35765 0.0
C167 C 0.51605 0.51594 0.41397 0.0
Zn168 Zn 0.53888 0.47645 0.84934 0.0
Zn169 Zn 0.44505 0.46548 0.84958 0.0
O170 O 0.46164 0.51603 0.81161 0.0
O171 O 0.53655 0.53101 0.81321 0.0
O172 O 0.3746 0.46653 0.84741 0.0
O173 O 0.53661 0.4948 0.89852 0.0
O174 O 0.46008 0.48604 0.89787 0.0
C175 C 0.49705 0.54013 0.80037 0.0
C176 C 0.50582 0.37088 0.83715 0.0
O177 O 0.46548 0.39012 0.84186 0.0
O178 O 0.5417 0.39975 0.83712 0.0
C179 C 0.35514 0.51067 0.85115 0.0
O180 O 0.38101 0.55178 0.85756 0.0
C181 C 0.49794 0.49503 0.91357 0.0
Zn182 Zn 0.96386 0.53758 0.84957 0.0
Zn183 Zn 0.05833 0.53694 0.85386 0.0
O184 O 0.04169 0.48844 0.81461 0.0
O185 O 0.96567 0.48256 0.81351 0.0
O186 O 0.12841 0.53006 0.85742 0.0
O187 O 0.96065 0.51963 0.89895 0.0
O188 O 0.0374 0.51538 0.90046 0.0
C189 C 1.00475 0.46866 0.80211 0.0
C190 C 1.00676 0.63828 0.83919 0.0
O191 O 0.04449 0.61436 0.84606 0.0
O192 O 0.96853 0.61377 0.83684 0.0
C193 C 0.15659 0.54504 0.83497 0.0
O194 O 0.14046 0.56793 0.80793 0.0
C195 C 0.99819 0.51197 0.91493 0.0
Zn196 Zn 0.05324 0.54217 0.6211 0.0
Zn197 Zn 0.95808 0.54666 0.62117 0.0
O198 O 0.97521 0.49487 0.6585 0.0
O199 O 0.05123 0.48885 0.65826 0.0
O200 O 0.88749 0.54545 0.62061 0.0
O201 O 0.05056 0.52059 0.57238 0.0
O202 O 0.97381 0.52517 0.57334 0.0
C203 C 1.01243 0.47446 0.66999 0.0
C204 C 1.01609 0.64513 0.63373 0.0
O205 O 0.9767 0.62264 0.63031 0.0
O206 O 0.05362 0.61949 0.63174 0.0
C207 C 0.8675 0.50149 0.61713 0.0
O208 O 0.89278 0.45914 0.6145 0.0
C209 C 1.01155 0.51716 0.55763 0.0
Zn210 Zn 0.47655 0.45501 0.61952 0.0
Zn211 Zn 0.57064 0.46956 0.6229 0.0
O212 O 0.54319 0.5175 0.65877 0.0
O213 O 0.46744 0.50972 0.6554 0.0
O214 O 0.63983 0.4837 0.62708 0.0
O215 O 0.47942 0.47355 0.57048 0.0
O216 O 0.55519 0.48762 0.57424 0.0
C217 C 0.50284 0.53126 0.66844 0.0
C218 C 0.52808 0.36141 0.63412 0.0
O219 O 0.56348 0.39119 0.63159 0.0
O220 O 0.48722 0.37944 0.63147 0.0
C221 C 0.66907 0.4654 0.60642 0.0
O222 O 0.65443 0.43607 0.58154 0.0
C223 C 0.51775 0.48571 0.55704 0.0
C224 C 0.31176 0.99159 0.08927 0.0
C225 C 0.33666 0.01468 0.11624 0.0
C226 C 0.2647 0.05544 0.13622 0.0
C227 C 0.23925 0.02931 0.11069 0.0
N228 N 0.23692 0.96357 0.06749 0.0
N229 N 0.33558 0.0592 0.16932 0.0
C230 C 0.26232 0.99479 0.08849 0.0
C231 C 0.31273 0.04392 0.14088 0.0
N232 N 0.33536 0.96855 0.0636 0.0
N233 N 0.24357 0.09294 0.1551 0.0
H234 H 0.37043 0.05025 0.17388 0.0
H235 H 0.31896 0.07603 0.18973 0.0
H236 H 0.20864 0.10309 0.1522 0.0
H237 H 0.26162 0.11725 0.17155 0.0
H238 H 0.31935 0.95639 0.04149 0.0
H239 H 0.37156 0.96561 0.06303 0.0
H240 H 0.25153 0.93378 0.05331 0.0
H241 H 0.20061 0.96391 0.06662 0.0
C242 C 0.75308 0.00347 0.31735 0.0
C243 C 0.73157 0.01579 0.34825 0.0
C244 C 0.80571 0.05065 0.36944 0.0
C245 C 0.82821 0.03353 0.33986 0.0
N246 N 0.82483 0.98417 0.28843 0.0
N247 N 0.73914 0.04188 0.40599 0.0
C248 C 0.80231 0.00732 0.31454 0.0
C249 C 0.7584 0.03678 0.37497 0.0
N250 N 0.72642 0.99031 0.29018 0.0
N251 N 0.82883 0.08215 0.39159 0.0
H252 H 0.70485 0.03126 0.4112 0.0
H253 H 0.75837 0.05178 0.42723 0.0
H254 H 0.86306 0.09448 0.38805 0.0
H255 H 0.81267 0.10026 0.41175 0.0
H256 H 0.73985 0.98676 0.26614 0.0
H257 H 0.69021 0.98768 0.29092 0.0
H258 H 0.80823 0.95971 0.27129 0.0
H259 H 0.86086 0.98526 0.28565 0.0
C260 C 0.79959 0.9613 0.87077 0.0
C261 C 0.82279 0.97833 0.84145 0.0
C262 C 0.74832 0.0086 0.81821 0.0
C263 C 0.72605 0.99618 0.84881 0.0
N264 N 0.73256 0.97094 0.90674 0.0
N265 N 0.82087 0.02842 0.79038 0.0
C266 C 0.75232 0.97551 0.87585 0.0
C267 C 0.79762 0.00494 0.81603 0.0
N268 N 0.82186 0.9294 0.89303 0.0
N269 N 0.72236 0.02148 0.79069 0.0
H270 H 0.85703 0.02775 0.78827 0.0
H271 H 0.80472 0.05291 0.77312 0.0
H272 H 0.68611 0.02348 0.79089 0.0
H273 H 0.73648 0.02529 0.76687 0.0
H274 H 0.80501 0.91139 0.91293 0.0
H275 H 0.85598 0.91661 0.88981 0.0
H276 H 0.75144 0.96118 0.92814 0.0
H277 H 0.69834 0.982 0.91167 0.0
C278 C 0.26297 0.94879 0.63695 0.0
C279 C 0.23806 0.96888 0.60905 0.0
C280 C 0.31102 0.00264 0.58559 0.0
C281 C 0.33521 0.98585 0.61464 0.0
N282 N 0.33269 0.95392 0.6712 0.0
N283 N 0.23669 0.02513 0.56066 0.0
C284 C 0.3107 0.96212 0.64129 0.0
C285 C 0.2616 0.99869 0.5844 0.0
N286 N 0.24173 0.91508 0.65851 0.0
N287 N 0.33529 0.02059 0.55862 0.0
H288 H 0.20042 0.02458 0.55946 0.0
H289 H 0.25166 0.05172 0.54424 0.0
H290 H 0.37145 0.02443 0.55855 0.0
H291 H 0.31995 0.02763 0.5354 0.0
H292 H 0.25956 0.895 0.67721 0.0
H293 H 0.20716 0.90324 0.65581 0.0
H294 H 0.31553 0.94147 0.69265 0.0
H295 H 0.36719 0.96489 0.67546 0.0
C296 C 0.79195 0.52515 0.09828 0.0
C297 C 0.81788 0.50504 0.12567 0.0
C298 C 0.74611 0.49852 0.15845 0.0
C299 C 0.72129 0.52447 0.13254 0.0
N300 N 0.72291 0.57141 0.08023 0.0
N301 N 0.82113 0.4814 0.18407 0.0
C302 C 0.7448 0.5401 0.10303 0.0
C303 C 0.79538 0.49395 0.15638 0.0
N304 N 0.81193 0.52848 0.0674 0.0
N305 N 0.72255 0.47642 0.18445 0.0
H306 H 0.85732 0.4784 0.18386 0.0
H307 H 0.80698 0.47872 0.20794 0.0
H308 H 0.68643 0.47787 0.18659 0.0
H309 H 0.73834 0.45232 0.2021 0.0
H310 H 0.79329 0.53775 0.0458 0.0
H311 H 0.84608 0.51686 0.06272 0.0
H312 H 0.73999 0.58847 0.06009 0.0
H313 H 0.6889 0.58472 0.08319 0.0
C314 C 0.29684 0.46308 0.37329 0.0
C315 C 0.32292 0.48447 0.34655 0.0
C316 C 0.25115 0.49352 0.3135 0.0
C317 C 0.2261 0.46655 0.33867 0.0
N318 N 0.22728 0.41658 0.38983 0.0
N319 N 0.32631 0.51073 0.28863 0.0
C320 C 0.2495 0.44891 0.36791 0.0
C321 C 0.30049 0.49729 0.31593 0.0
N322 N 0.3168 0.45787 0.40422 0.0
N323 N 0.22778 0.51733 0.28789 0.0
H324 H 0.36258 0.51281 0.28903 0.0
H325 H 0.31209 0.51491 0.26477 0.0
H326 H 0.19161 0.51658 0.28558 0.0
H327 H 0.24387 0.54209 0.27084 0.0
H328 H 0.29805 0.44761 0.42546 0.0
H329 H 0.35108 0.46886 0.40939 0.0
H330 H 0.2442 0.39816 0.40964 0.0
H331 H 0.19308 0.40388 0.38638 0.0
C332 C 0.23228 0.50775 0.81423 0.0
C333 C 0.20739 0.5356 0.83912 0.0
C334 C 0.278 0.53913 0.87392 0.0
C335 C 0.30394 0.51671 0.84746 0.0
N336 N 0.30733 0.48851 0.78987 0.0
N337 N 0.2088 0.58656 0.88992 0.0
C338 C 0.28153 0.50328 0.81691 0.0
C339 C 0.23083 0.55361 0.86829 0.0
N340 N 0.2088 0.48371 0.78869 0.0
N341 N 0.29796 0.54509 0.9048 0.0
H342 H 0.17476 0.59947 0.88625 0.0
H343 H 0.22576 0.60525 0.90967 0.0
H344 H 0.33212 0.53395 0.9101 0.0
H345 H 0.27931 0.55616 0.92592 0.0
H346 H 0.22462 0.45821 0.77197 0.0
H347 H 0.17271 0.48514 0.78609 0.0
H348 H 0.29327 0.48408 0.76597 0.0
H349 H 0.34351 0.48535 0.7905 0.0
C350 C 0.74316 0.50302 0.58343 0.0
C351 C 0.71942 0.47781 0.61 0.0
C352 C 0.79139 0.47829 0.64342 0.0
C353 C 0.8161 0.49742 0.61541 0.0
N354 N 0.81721 0.52319 0.55748 0.0
N355 N 0.72212 0.4348 0.66366 0.0
C356 C 0.79243 0.50867 0.58506 0.0
C357 C 0.74376 0.46397 0.63971 0.0
N358 N 0.71842 0.52336 0.55723 0.0
N359 N 0.81334 0.47475 0.67374 0.0
H360 H 0.68758 0.42254 0.66168 0.0
H361 H 0.73947 0.41876 0.68412 0.0
H362 H 0.84812 0.48536 0.67726 0.0
H363 H 0.79614 0.46611 0.69592 0.0
H364 H 0.73317 0.54678 0.53885 0.0
H365 H 0.68223 0.521 0.55546 0.0
H366 H 0.80272 0.5258 0.53362 0.0
H367 H 0.85316 0.52912 0.55796 0.0
C368 C 0.98214 0.92334 0.25395 0.0
C369 C 0.02523 0.92816 0.27113 0.0
C370 C 0.06693 0.9171 0.21862 0.0
C371 C 0.02538 0.93167 0.20177 0.0
N372 N 0.94275 0.91622 0.19992 0.0
N373 N 0.10375 0.89612 0.272 0.0
C374 C 0.98231 0.92402 0.21832 0.0
C375 C 0.06643 0.91385 0.25412 0.0
N376 N 0.94212 0.91717 0.27176 0.0
N377 N 0.10606 0.90671 0.20061 0.0
H378 H 0.10141 0.88893 0.29764 0.0
H379 H 0.13496 0.8841 0.26146 0.0
H380 H 0.10484 0.90245 0.17465 0.0
H381 H 0.13884 0.90079 0.21109 0.0
H382 H 0.90896 0.91598 0.26126 0.0
H383 H 0.94281 0.91018 0.29747 0.0
H384 H 0.9097 0.91162 0.20999 0.0
H385 H 0.94401 0.90984 0.17416 0.0
C386 C 0.49877 0.0779 0.2156 0.0
C387 C 0.54029 0.0627 0.19929 0.0
C388 C 0.58335 0.07164 0.25173 0.0
C389 C 0.54019 0.06719 0.26858 0.0
N390 N 0.46117 0.09784 0.26868 0.0
N391 N 0.62272 0.07924 0.1981 0.0
C392 C 0.49895 0.0811 0.25115 0.0
C393 C 0.58325 0.07075 0.21617 0.0
N394 N 0.46039 0.09002 0.19698 0.0
N395 N 0.62353 0.07663 0.26981 0.0
H396 H 0.62146 0.08469 0.17225 0.0
H397 H 0.65541 0.08593 0.20856 0.0
H398 H 0.62299 0.08429 0.29545 0.0
H399 H 0.65675 0.07498 0.25963 0.0
H400 H 0.42808 0.09928 0.20692 0.0
H401 H 0.46219 0.09373 0.17103 0.0
H402 H 0.42923 0.10741 0.25803 0.0
H403 H 0.46341 0.10588 0.29424 0.0
C404 C 0.9887 0.08163 0.72062 0.0
C405 C 0.0312 0.07078 0.70416 0.0
C406 C 0.07236 0.07817 0.75749 0.0
C407 C 0.02956 0.0671 0.77349 0.0
N408 N 0.94762 0.08689 0.77369 0.0
N409 N 0.11375 0.08657 0.70472 0.0
C410 C 0.98756 0.07853 0.75617 0.0
C411 C 0.07345 0.07878 0.72194 0.0
N412 N 0.95074 0.09617 0.70223 0.0
N413 N 0.11083 0.08894 0.77646 0.0
H414 H 0.11352 0.09342 0.67899 0.0
H415 H 0.14665 0.08799 0.71567 0.0
H416 H 0.10864 0.09312 0.80239 0.0
H417 H 0.14338 0.098 0.76678 0.0
H418 H 0.91831 0.10475 0.71225 0.0
H419 H 0.95333 0.10423 0.67673 0.0
H420 H 0.91486 0.09095 0.76283 0.0
H421 H 0.94806 0.09251 0.79953 0.0
C422 C 0.48825 0.92822 0.71853 0.0
C423 C 0.53101 0.93748 0.70209 0.0
C424 C 0.57235 0.93204 0.75541 0.0
C425 C 0.52934 0.94242 0.77141 0.0
N426 N 0.44815 0.91911 0.77184 0.0
N427 N 0.61185 0.91349 0.70293 0.0
C428 C 0.48747 0.92994 0.75413 0.0
C429 C 0.57289 0.92802 0.71993 0.0
N430 N 0.44965 0.91646 0.70001 0.0
N431 N 0.61181 0.92606 0.77414 0.0
H432 H 0.61061 0.90488 0.67742 0.0
H433 H 0.64366 0.90498 0.71418 0.0
H434 H 0.61039 0.92124 0.80003 0.0
H435 H 0.64522 0.92418 0.7643 0.0
H436 H 0.41675 0.91012 0.70991 0.0
H437 H 0.45181 0.9096 0.67433 0.0
H438 H 0.41563 0.91202 0.76122 0.0
H439 H 0.44925 0.91348 0.79768 0.0
C440 C 0.56311 0.42465 0.21841 0.0
C441 C 0.51995 0.43263 0.20189 0.0
C442 C 0.47932 0.42453 0.25506 0.0
C443 C 0.52207 0.43679 0.27121 0.0
N444 N 0.60408 0.41782 0.27181 0.0
N445 N 0.4394 0.40733 0.20219 0.0
C446 C 0.56418 0.42647 0.25401 0.0
C447 C 0.47843 0.42161 0.21953 0.0
N448 N 0.60186 0.41419 0.2 0.0
N449 N 0.44049 0.41575 0.27377 0.0
H450 H 0.44046 0.39994 0.17652 0.0
H451 H 0.40753 0.39869 0.2131 0.0
H452 H 0.44259 0.41082 0.29964 0.0
H453 H 0.40712 0.41117 0.26397 0.0
H454 H 0.63499 0.40896 0.21 0.0
H455 H 0.59974 0.40699 0.17434 0.0
H456 H 0.63679 0.41288 0.26127 0.0
H457 H 0.60347 0.41213 0.29765 0.0
C458 C 0.97333 0.56573 0.25608 0.0
C459 C 1.01664 0.55624 0.27209 0.0
C460 C 0.05607 0.57291 0.21917 0.0
C461 C 1.01378 0.56001 0.20268 0.0
N462 N 0.93049 0.56992 0.20349 0.0
N463 N 0.09845 0.57733 0.27196 0.0
C464 C 0.97155 0.56544 0.22055 0.0
C465 C 0.05807 0.56891 0.25466 0.0
N466 N 0.93507 0.57648 0.27495 0.0
N467 N 0.0929 0.59059 0.20096 0.0
H468 H 0.09873 0.58273 0.29783 0.0
H469 H 0.13098 0.58083 0.26086 0.0
H470 H 0.08954 0.59902 0.17554 0.0
H471 H 0.12464 0.60206 0.21124 0.0
H472 H 0.90248 0.58543 0.26508 0.0
H473 H 0.9376 0.58166 0.3008 0.0
H474 H 0.89786 0.56801 0.2146 0.0
H475 H 0.92968 0.57676 0.17776 0.0
C476 C 0.45346 0.56985 0.71428 0.0
C477 C 0.49762 0.56474 0.69894 0.0
C478 C 0.53492 0.58665 0.75216 0.0
C479 C 0.4937 0.5698 0.76821 0.0
N480 N 0.40996 0.57258 0.76637 0.0
N481 N 0.57692 0.59531 0.69971 0.0
C482 C 0.45134 0.57075 0.74981 0.0
C483 C 0.53748 0.58253 0.71673 0.0
N484 N 0.41466 0.57557 0.6948 0.0
N485 N 0.57024 0.6075 0.77083 0.0
H486 H 0.57681 0.59945 0.67374 0.0
H487 H 0.60881 0.60346 0.71101 0.0
H488 H 0.56617 0.61509 0.7963 0.0
H489 H 0.60125 0.62158 0.76099 0.0
H490 H 0.38118 0.58037 0.70408 0.0
H491 H 0.41704 0.58075 0.66898 0.0
H492 H 0.37758 0.5679 0.75498 0.0
H493 H 0.4085 0.58073 0.79192 0.0
C494 C 0.96577 0.42759 0.75175 0.0
C495 C 1.00704 0.4381 0.7702 0.0
C496 C 0.05233 0.43035 0.71895 0.0
C497 C 1.01084 0.44152 0.70093 0.0
N498 N 0.9294 0.42087 0.69667 0.0
N499 N 0.0888 0.4192 0.77373 0.0
C500 C 0.96759 0.43009 0.71623 0.0
C501 C 0.05047 0.42934 0.75452 0.0
N502 N 0.92607 0.41427 0.76831 0.0
N503 N 0.09228 0.4197 0.70194 0.0
H504 H 0.08611 0.41258 0.7994 0.0
H505 H 0.12222 0.41429 0.76443 0.0
H506 H 0.09201 0.41345 0.67615 0.0
H507 H 0.12446 0.41301 0.71313 0.0
H508 H 0.89408 0.40733 0.75685 0.0
H509 H 0.92647 0.40616 0.79389 0.0
H510 H 0.89596 0.41489 0.70574 0.0
H511 H 0.93226 0.41627 0.67082 0.0
C512 C 1.01687 0.21951 0.16469 0.0
C513 C 0.0377 0.19355 0.13731 0.0
C514 C 0.05235 0.27729 0.10982 0.0
C515 C 0.02793 0.30305 0.13592 0.0
N516 N 0.98308 0.29895 0.18669 0.0
N517 N 0.06821 0.19621 0.0812 0.0
C518 C 1.00898 0.2742 0.16292 0.0
C519 C 0.05409 0.22203 0.10933 0.0
N520 N 1.00616 0.19201 0.19289 0.0
N521 N 0.07325 0.30541 0.085 0.0
H522 H 0.06965 0.15579 0.07949 0.0
H523 H 0.07473 0.21441 0.05844 0.0
H524 H 0.06897 0.34536 0.08184 0.0
H525 H 0.09713 0.28952 0.06836 0.0
H526 H 0.99524 0.20929 0.21501 0.0
H527 H 1.01203 0.15204 0.1951 0.0
H528 H 0.96256 0.27927 0.20396 0.0
H529 H 0.97968 0.33935 0.18791 0.0
C530 C 0.50953 0.77288 0.10586 0.0
C531 C 0.52698 0.80023 0.13415 0.0
C532 C 0.54857 0.71751 0.16072 0.0
C533 C 0.52681 0.69032 0.13399 0.0
N534 N 0.48308 0.6913 0.08211 0.0
N535 N 0.55812 0.79961 0.19017 0.0
C536 C 0.50595 0.71781 0.10699 0.0
C537 C 0.54539 0.77283 0.16201 0.0
N538 N 0.49928 0.79926 0.07703 0.0
N539 N 0.57265 0.69053 0.18462 0.0
H540 H 0.55578 0.84007 0.19209 0.0
H541 H 0.56733 0.7816 0.21251 0.0
H542 H 0.57367 0.64992 0.18542 0.0
H543 H 0.59446 0.70833 0.20211 0.0
H544 H 0.49174 0.78107 0.05436 0.0
H545 H 0.50262 0.83949 0.07472 0.0
H546 H 0.46173 0.70935 0.06449 0.0
H547 H 0.48311 0.65082 0.07996 0.0
C548 C 0.53947 0.72479 0.30821 0.0
C549 C 0.51764 0.69957 0.3355 0.0
C550 C 0.50279 0.78413 0.36205 0.0
C551 C 0.5273 0.80911 0.33574 0.0
N552 N 0.57416 0.80373 0.28604 0.0
N553 N 0.48506 0.70386 0.39098 0.0
C554 C 0.54727 0.77956 0.30949 0.0
C555 C 0.50054 0.72889 0.36296 0.0
N556 N 0.55106 0.69654 0.28048 0.0
N557 N 0.48231 0.81314 0.38666 0.0
H558 H 0.4826 0.66355 0.39282 0.0
H559 H 0.47799 0.72252 0.41351 0.0
H560 H 0.48769 0.85304 0.3897 0.0
H561 H 0.45814 0.7981 0.40341 0.0
H562 H 0.56273 0.71325 0.25838 0.0
H563 H 0.54518 0.65651 0.27853 0.0
H564 H 0.59522 0.78361 0.26933 0.0
H565 H 0.57811 0.84408 0.28478 0.0
C566 C 1.01737 0.2693 0.31022 0.0
C567 C 0.03734 0.29633 0.33774 0.0
C568 C 0.05823 0.21329 0.36407 0.0
C569 C 0.0345 0.18634 0.33796 0.0
N570 N 0.98688 0.18798 0.28815 0.0
N571 N 0.07004 0.2946 0.39354 0.0
C572 C 1.01265 0.21416 0.3116 0.0
C573 C 0.05654 0.26854 0.36522 0.0
N574 N 1.00452 0.29633 0.28224 0.0
N575 N 0.08171 0.18618 0.3883 0.0
H576 H 0.0693 0.33497 0.3958 0.0
H577 H 0.07839 0.27626 0.41598 0.0
H578 H 0.08002 0.14585 0.39092 0.0
H579 H 0.10512 0.20349 0.40491 0.0
H580 H 0.99402 0.2785 0.26009 0.0
H581 H 1.00843 0.33662 0.28013 0.0
H582 H 0.96465 0.20651 0.27132 0.0
H583 H 0.98516 0.14743 0.28695 0.0
C584 C 0.982 0.72395 0.86311 0.0
C585 C 1.00627 0.69591 0.83795 0.0
C586 C 0.02767 0.77806 0.81074 0.0
C587 C 1.00741 0.80599 0.83759 0.0
N588 N 0.97208 0.80555 0.89238 0.0
N589 N 0.05631 0.69551 0.78971 0.0
C590 C 0.98588 0.77904 0.86442 0.0
C591 C 0.03042 0.72276 0.81234 0.0
N592 N 0.9557 0.69806 0.88621 0.0
N593 N 0.04259 0.80439 0.78309 0.0
H594 H 0.05661 0.65492 0.78855 0.0
H595 H 0.07991 0.7131 0.77357 0.0
H596 H 0.04015 0.84479 0.7808 0.0
H597 H 0.05329 0.78601 0.76126 0.0
H598 H 0.93203 0.71659 0.90186 0.0
H599 H 0.95512 0.6577 0.88864 0.0
H600 H 0.96219 0.78739 0.91451 0.0
H601 H 0.97413 0.84585 0.89486 0.0
C602 C 0.53591 0.28963 0.86386 0.0
C603 C 0.51206 0.31367 0.83673 0.0
C604 C 0.50369 0.22897 0.8088 0.0
C605 C 0.52504 0.20466 0.83675 0.0
N606 N 0.55479 0.20998 0.89322 0.0
N607 N 0.46861 0.30685 0.7852 0.0
C608 C 0.53984 0.23453 0.86478 0.0
C609 C 0.49445 0.28347 0.80974 0.0
N610 N 0.5543 0.31941 0.88912 0.0
N611 N 0.49381 0.20008 0.7809 0.0
H612 H 0.46365 0.34705 0.78394 0.0
H613 H 0.4496 0.28635 0.76727 0.0
H614 H 0.50079 0.16028 0.77923 0.0
H615 H 0.48214 0.216 0.75852 0.0
H616 H 0.5779 0.3053 0.90675 0.0
H617 H 0.54784 0.35912 0.89186 0.0
H618 H 0.56026 0.22877 0.91598 0.0
H619 H 0.55837 0.16976 0.89504 0.0
C620 C 0.5119 0.2209 0.66107 0.0
C621 C 0.53411 0.19424 0.63448 0.0
C622 C 0.55384 0.27761 0.60808 0.0
C623 C 0.53409 0.30424 0.63572 0.0
N624 N 0.50157 0.3023 0.69103 0.0
N625 N 0.5805 0.19647 0.58412 0.0
C626 C 0.51506 0.27615 0.66292 0.0
C627 C 0.55685 0.22241 0.60865 0.0
N628 N 0.48717 0.19354 0.6843 0.0
N629 N 0.56658 0.30475 0.58013 0.0
H630 H 0.57945 0.15619 0.58098 0.0
H631 H 0.6033 0.21473 0.56769 0.0
H632 H 0.56467 0.34513 0.57832 0.0
H633 H 0.57547 0.28726 0.55755 0.0
H634 H 0.46423 0.21109 0.70092 0.0
H635 H 0.48697 0.15295 0.68547 0.0
H636 H 0.49193 0.2838 0.71307 0.0
H637 H 0.50403 0.34272 0.69335 0.0
C638 C 1.00856 0.78736 0.60797 0.0
C639 C 0.02985 0.81195 0.63603 0.0
C640 C 0.03826 0.7274 0.66391 0.0
C641 C 1.01878 0.70267 0.63533 0.0
N642 N 0.99319 0.70729 0.57783 0.0
N643 N 0.07135 0.80591 0.68838 0.0
C644 C 1.00567 0.73219 0.60681 0.0
C645 C 0.04676 0.78209 0.6633 0.0
N646 N 0.99152 0.81677 0.58213 0.0
N647 N 0.04689 0.6988 0.69208 0.0
H648 H 0.07606 0.84617 0.68966 0.0
H649 H 0.08999 0.78561 0.70653 0.0
H650 H 0.04071 0.65878 0.69343 0.0
H651 H 0.05661 0.71515 0.71487 0.0
H652 H 0.96957 0.80212 0.56356 0.0
H653 H 0.99752 0.85668 0.57979 0.0
H654 H 0.9889 0.72597 0.55494 0.0
H655 H 0.99065 0.66697 0.57584 0.0
C656 C 0.05705 0.03857 0.96681 0.0
C657 C 0.04005 0.99164 0.95265 0.0
C658 C 0.02574 0.95582 0.00847 0.0
C659 C 0.04428 0.00205 0.02274 0.0
N660 N 0.08478 0.08406 0.01615 0.0
N661 N 1.0177 0.90162 0.9591 0.0
C662 C 0.06244 0.04228 0.00209 0.0
C663 C 0.02698 0.9491 0.97323 0.0
N664 N 0.06612 0.0803 0.94659 0.0
N665 N 1.00673 0.91846 0.02861 0.0
H666 H 1.01927 0.89504 0.9334 0.0
H667 H 1.0126 0.86765 0.9728 0.0
H668 H 1.00825 0.92017 0.05466 0.0
H669 H 0.98734 0.88707 0.01961 0.0
H670 H 0.07338 0.11757 0.95549 0.0
H671 H 0.06297 0.07871 0.9206 0.0
H672 H 0.10328 0.11156 0.00245 0.0
H673 H 0.08796 0.08943 0.04184 0.0
C674 C 0.51742 0.96252 0.96335 0.0
C675 C 0.53543 0.0099 0.95067 0.0
C676 C 0.55366 0.03961 0.00761 0.0
C677 C 0.5322 0.99404 0.02039 0.0
N678 N 0.48865 0.91456 0.01107 0.0
N679 N 0.56454 0.09698 0.96028 0.0
C680 C 0.51238 0.95631 -0.00156 0.0
C681 C 0.55224 0.04928 0.97265 0.0
N682 N 0.50712 0.92256 0.94185 0.0
N683 N 0.57528 0.07379 0.02892 0.0
H684 H 0.56426 0.10559 0.93486 0.0
H685 H 0.57161 0.12934 0.97518 0.0
H686 H 0.5739 0.07042 0.05489 0.0
H687 H 0.59676 0.10398 0.02093 0.0
H688 H 0.49873 0.88502 0.94962 0.0
H689 H 0.51107 0.92551 0.916 0.0
H690 H 0.46868 0.88934 -0.00355 0.0
H691 H 0.48605 0.90688 0.03654 0.0
C692 C 0.5273 0.05004 0.49994 0.0
C693 C 0.53465 0.00515 0.52002 0.0
C694 C 0.54738 0.95204 0.47 0.0
C695 C 0.53733 0.99632 0.44987 0.0
N696 N 0.51271 0.08565 0.44468 0.0
N697 N 0.54626 0.91272 0.52528 0.0
C698 C 0.52572 0.04481 0.46457 0.0
C699 C 0.54342 0.95593 0.50537 0.0
N700 N 0.52358 0.09797 0.51474 0.0
N701 N 0.5607 0.90632 0.45525 0.0
H702 H 0.54398 0.91449 0.55129 0.0
H703 H 0.54762 0.87475 0.51622 0.0
H704 H 0.5612 0.90075 0.42942 0.0
H705 H 0.5737 0.87452 0.4684 0.0
H706 H 0.52359 0.13292 0.50157 0.0
H707 H 0.52377 0.10338 0.54059 0.0
H708 H 0.49843 0.12006 0.4538 0.0
H709 H 0.51356 0.08409 0.41862 0.0
C710 C 0.02653 0.04368 0.50717 0.0
C711 C 0.04094 0.99704 0.52303 0.0
C712 C 0.05185 0.95488 0.46845 0.0
C713 C 0.0395 0.00228 0.45269 0.0
N714 N 1.02274 0.09427 0.45608 0.0
N715 N 0.07162 0.90954 0.51978 0.0
C716 C 0.02884 0.04739 0.47178 0.0
C717 C 0.05519 0.95309 0.50394 0.0
N718 N 1.01016 0.0842 0.52597 0.0
N719 N 0.05834 0.91111 0.44948 0.0
H720 H 0.07162 0.905 0.54568 0.0
H721 H 0.08773 0.87877 0.50748 0.0
H722 H 0.05656 0.91131 0.42342 0.0
H723 H 0.06231 0.87389 0.45935 0.0
H724 H 0.99369 0.11671 0.51588 0.0
H725 H 1.01059 0.08411 0.55206 0.0
H726 H 1.02013 0.12967 0.46864 0.0
H727 H 0.0239 0.09866 0.43017 0.0
C728 C 0.51646 0.54986 0.00077 0.0
C729 C 0.50468 0.50579 0.02055 0.0
C730 C 0.48828 0.45483 0.97006 0.0
C731 C 0.49768 0.49966 0.95036 0.0
N732 N 0.51347 0.59152 0.94628 0.0
N733 N 0.47299 0.41912 0.02509 0.0
C734 C 0.50985 0.54769 0.96553 0.0
C735 C 0.48843 0.45916 0.0055 0.0
N736 N 0.53424 0.59366 0.01568 0.0
N737 N 0.48157 0.40753 0.95492 0.0
H738 H 0.47469 0.41998 0.05115 0.0
H739 H 0.45564 0.38654 0.01571 0.0
H740 H 0.48104 0.40254 0.92904 0.0
H741 H 0.48007 0.37243 0.96788 0.0
H742 H 0.54863 0.62465 0.0025 0.0
H743 H 0.53725 0.59808 0.04152 0.0
H744 H 0.5174 0.62892 0.956 0.0
H745 H 0.50873 0.59113 0.9204 0.0
C746 C 1.01322 0.4489 4e-05 0.0
C747 C 1.00105 0.4911 0.02131 0.0
C748 C 0.98648 0.54667 0.97273 0.0
C749 C 0.99696 0.50395 0.95144 0.0
N750 N 1.01315 0.41276 0.94385 0.0
N751 N 0.96864 0.57683 0.02875 0.0
C752 C 1.0084 0.45454 0.96483 0.0
C753 C 0.98515 0.53894 0.00788 0.0
N754 N 0.02964 0.40355 0.01358 0.0
N755 N 0.9802 0.59524 0.95941 0.0
H756 H 0.96889 0.5733 0.05473 0.0
H757 H 0.95163 0.61016 0.02035 0.0
H758 H 0.9811 0.60257 0.9338 0.0
H759 H 0.97774 0.62904 0.9737 0.0
H760 H 0.0445 0.3737 -0.00036 0.0
H761 H 0.03051 0.39655 0.03924 0.0
H762 H 1.01675 0.37448 0.95199 0.0
H763 H 1.00992 0.41575 0.91792 0.0
C764 C 0.02697 0.45841 0.5091 0.0
C765 C 1.01025 0.50666 0.5213 0.0
C766 C 0.99394 0.5359 0.46401 0.0
C767 C 1.0145 0.48955 0.45174 0.0
N768 N 0.05389 0.40793 0.46181 0.0
N769 N 0.98296 0.59411 0.51098 0.0
C770 C 0.03214 0.45122 0.47408 0.0
C771 C 0.99471 0.54605 0.49894 0.0
N772 N 0.0359 0.41869 0.531 0.0
N773 N 0.97369 0.57026 0.44224 0.0
H774 H 0.9825 0.60295 0.53637 0.0
H775 H 0.97691 0.62645 0.49591 0.0
H776 H 0.97519 0.56607 0.41633 0.0
H777 H 0.95299 0.60134 0.44978 0.0
H778 H 0.04337 0.38072 0.52366 0.0
H779 H 0.03191 0.42247 0.55681 0.0
H780 H 0.07258 0.38188 0.47659 0.0
H781 H 0.05567 0.39936 0.4364 0.0
C782 C 0.49524 0.53827 0.50686 0.0
C783 C 0.51895 0.49479 0.52057 0.0
C784 C 0.53544 0.46206 0.46418 0.0
C785 C 0.51488 0.50749 0.45054 0.0
N786 N 0.48182 0.59301 0.45856 0.0
N787 N 0.5668 0.41836 0.51294 0.0
C788 C 0.49626 0.54663 0.47177 0.0
C789 C 0.54084 0.45773 0.49941 0.0
N790 N 0.47176 0.57168 0.52742 0.0
N791 N 0.54783 0.42199 0.44347 0.0
H792 H 0.56989 0.41213 0.53856 0.0
H793 H 0.58807 0.39397 0.4989 0.0
H794 H 0.54362 0.4235 0.41756 0.0
H795 H 0.55827 0.3855 0.45197 0.0
H796 H 0.44876 0.59995 0.51872 0.0
H797 H 0.47321 0.56941 0.55344 0.0
H798 H 0.47323 0.62542 0.47292 0.0
H799 H 0.48191 0.60073 0.43304 0.0
loop_
_geom_bond_atom_site_label_1
_geom_bond_atom_site_label_2
_geom_bond_distance
_geom_bond_site_symmetry_2
_ccdc_geom_bond_type
Zn0 O3 2.031 . S
Zn0 O5 2.049 . S
Zn0 O10 2.067 . S
Zn1 O2 1.962 . S
Zn1 O4 1.986 . S
Zn1 O6 1.996 . S
Zn1 O9 1.943 . S
O2 Zn1 1.962 . S
O2 C7 1.254 . S
O3 Zn0 2.031 . S
O3 C7 1.269 1_655 S
O4 Zn1 1.986 . S
O4 C11 1.262 . S
O5 Zn0 2.049 . S
O5 C13 1.260 1_655 S
O6 Zn1 1.996 . S
O6 C13 1.257 . S
C7 O2 1.254 . S
C7 O3 1.269 1_455 S
C8 O9 1.249 . S
C8 O10 1.270 1_455 S
O9 Zn1 1.943 . S
O9 C8 1.249 . S
O10 Zn0 2.067 . S
O10 C8 1.270 1_655 S
C11 O4 1.262 . S
C11 O12 1.232 . S
O12 C11 1.232 . S
C13 O5 1.260 1_455 S
C13 O6 1.257 . S
Zn14 O17 2.031 . S
Zn14 O19 2.049 . S
Zn14 O24 2.067 . S
Zn15 O16 1.962 . S
Zn15 O18 1.986 . S
Zn15 O20 1.996 . S
Zn15 O23 1.943 . S
O16 Zn15 1.962 . S
O16 C21 1.254 . S
O17 Zn14 2.031 . S
O17 C21 1.269 . S
O18 Zn15 1.986 . S
O18 C25 1.262 . S
O19 Zn14 2.049 . S
O19 C27 1.260 . S
O20 Zn15 1.996 . S
O20 C27 1.257 . S
C21 O16 1.254 . S
C21 O17 1.269 . S
C22 O23 1.249 . S
C22 O24 1.270 . S
O23 Zn15 1.943 . S
O23 C22 1.249 . S
O24 Zn14 2.067 . S
O24 C22 1.270 . S
C25 O18 1.262 . S
C25 O26 1.232 . S
O26 C25 1.232 . S
C27 O19 1.260 . S
C27 O20 1.257 . S
Zn28 O31 2.031 . S
Zn28 O33 2.049 . S
Zn28 O38 2.067 . S
Zn29 O30 1.962 . S
Zn29 O32 1.986 . S
Zn29 O34 1.996 . S
Zn29 O37 1.943 . S
O30 Zn29 1.962 . S
O30 C35 1.254 . S
O31 Zn28 2.031 . S
O31 C35 1.269 . S
O32 Zn29 1.986 . S
O32 C39 1.262 . S
O33 Zn28 2.049 . S
O33 C41 1.260 . S
O34 Zn29 1.996 . S
O34 C41 1.257 . S
C35 O30 1.254 . S
C35 O31 1.269 . S
C36 O37 1.249 . S
C36 O38 1.270 . S
O37 Zn29 1.943 . S
O37 C36 1.249 . S
O38 Zn28 2.067 . S
O38 C36 1.270 . S
C39 O32 1.262 . S
C39 O40 1.232 . S
O40 C39 1.232 . S
C41 O33 1.260 . S
C41 O34 1.257 . S
Zn42 O45 2.031 . S
Zn42 O47 2.049 . S
Zn42 O52 2.067 . S
Zn43 O44 1.962 . S
Zn43 O46 1.986 . S
Zn43 O48 1.996 . S
Zn43 O51 1.943 . S
O44 Zn43 1.962 . S
O44 C49 1.254 . S
O45 Zn42 2.031 . S
O45 C49 1.269 1_455 S
O46 Zn43 1.986 . S
O46 C53 1.262 . S
O47 Zn42 2.049 . S
O47 C55 1.260 1_455 S
O48 Zn43 1.996 . S
O48 C55 1.257 . S
C49 O44 1.254 . S
C49 O45 1.269 1_655 S
C50 O51 1.249 . S
C50 O52 1.270 1_655 S
O51 Zn43 1.943 . S
O51 C50 1.249 . S
O52 Zn42 2.067 . S
O52 C50 1.270 1_455 S
C53 O46 1.262 . S
C53 O54 1.232 . S
O54 C53 1.232 . S
C55 O47 1.260 1_655 S
C55 O48 1.257 . S
Zn56 O59 2.031 . S
Zn56 O61 2.049 . S
Zn56 O66 2.067 . S
Zn57 O58 1.962 . S
Zn57 O60 1.986 . S
Zn57 O62 1.996 . S
Zn57 O65 1.943 . S
O58 Zn57 1.962 . S
O58 C63 1.254 . S
O59 Zn56 2.031 . S
O59 C63 1.269 1_455 S
O60 Zn57 1.986 . S
O60 C67 1.262 . S
O61 Zn56 2.049 . S
O61 C69 1.260 1_455 S
O62 Zn57 1.996 . S
O62 C69 1.257 . S
C63 O58 1.254 . S
C63 O59 1.269 1_655 S
C64 O65 1.249 . S
C64 O66 1.270 1_655 S
O65 Zn57 1.943 . S
O65 C64 1.249 . S
O66 Zn56 2.067 . S
O66 C64 1.270 1_455 S
C67 O60 1.262 . S
C67 O68 1.232 . S
O68 C67 1.232 . S
C69 O61 1.260 1_655 S
C69 O62 1.257 . S
Zn70 O73 2.031 . S
Zn70 O75 2.049 . S
Zn70 O80 2.067 . S
Zn71 O72 1.962 . S
Zn71 O74 1.986 . S
Zn71 O76 1.996 . S
Zn71 O79 1.943 . S
O72 Zn71 1.962 . S
O72 C77 1.254 . S
O73 Zn70 2.031 . S
O73 C77 1.269 . S
O74 Zn71 1.986 . S
O74 C81 1.262 . S
O75 Zn70 2.049 . S
O75 C83 1.260 . S
O76 Zn71 1.996 . S
O76 C83 1.257 . S
C77 O72 1.254 . S
C77 O73 1.269 . S
C78 O79 1.249 . S
C78 O80 1.270 . S
O79 Zn71 1.943 . S
O79 C78 1.249 . S
O80 Zn70 2.067 . S
O80 C78 1.270 . S
C81 O74 1.262 . S
C81 O82 1.232 . S
O82 C81 1.232 . S
C83 O75 1.260 . S
C83 O76 1.257 . S
Zn84 O87 2.031 . S
Zn84 O89 2.049 . S
Zn84 O94 2.067 . S
Zn85 O86 1.962 . S
Zn85 O88 1.986 . S
Zn85 O90 1.996 . S
Zn85 O93 1.943 . S
O86 Zn85 1.962 . S
O86 C91 1.254 . S
O87 Zn84 2.031 . S
O87 C91 1.269 . S
O88 Zn85 1.986 . S
O88 C95 1.262 . S
O89 Zn84 2.049 . S
O89 C97 1.260 . S
O90 Zn85 1.996 . S
O90 C97 1.257 . S
C91 O86 1.254 . S
C91 O87 1.269 . S
C92 O93 1.249 . S
C92 O94 1.270 . S
O93 Zn85 1.943 . S
O93 C92 1.249 . S
O94 Zn84 2.067 . S
O94 C92 1.270 . S
C95 O88 1.262 . S
C95 O96 1.232 . S
O96 C95 1.232 . S
C97 O89 1.260 . S
C97 O90 1.257 . S
Zn98 O101 2.031 . S
Zn98 O103 2.049 . S
Zn98 O108 2.067 . S
Zn99 O100 1.962 . S
Zn99 O102 1.986 . S
Zn99 O104 1.996 . S
Zn99 O107 1.943 . S
O100 Zn99 1.962 . S
O100 C105 1.254 . S
O101 Zn98 2.031 . S
O101 C105 1.269 1_655 S
O102 Zn99 1.986 . S
O102 C109 1.262 . S
O103 Zn98 2.049 . S
O103 C111 1.260 1_655 S
O104 Zn99 1.996 . S
O104 C111 1.257 . S
C105 O100 1.254 . S
C105 O101 1.269 1_455 S
C106 O107 1.249 . S
C106 O108 1.270 1_455 S
O107 Zn99 1.943 . S
O107 C106 1.249 . S
O108 Zn98 2.067 . S
O108 C106 1.270 1_655 S
C109 O102 1.262 . S
C109 O110 1.232 . S
O110 C109 1.232 . S
C111 O103 1.260 1_455 S
C111 O104 1.257 . S
Zn112 O115 2.031 . S
Zn112 O117 2.049 . S
Zn112 O122 2.067 . S
Zn113 O114 1.962 . S
Zn113 O116 1.986 . S
Zn113 O118 1.996 . S
Zn113 O121 1.943 . S
O114 Zn113 1.962 . S
O114 C119 1.254 . S
O115 Zn112 2.031 . S
O115 C119 1.269 . S
O116 Zn113 1.986 . S
O116 C123 1.262 . S
O117 Zn112 2.049 . S
O117 C125 1.260 . S
O118 Zn113 1.996 . S
O118 C125 1.257 . S
C119 O114 1.254 . S
C119 O115 1.269 . S
C120 O121 1.249 . S
C120 O122 1.270 . S
O121 Zn113 1.943 . S
O121 C120 1.249 . S
O122 Zn112 2.067 . S
O122 C120 1.270 . S
C123 O116 1.262 . S
C123 O124 1.232 . S
O124 C123 1.232 . S
C125 O117 1.260 . S
C125 O118 1.257 . S
Zn126 O129 2.031 . S
Zn126 O131 2.049 . S
Zn126 O136 2.067 . S
Zn127 O128 1.962 . S
Zn127 O130 1.986 . S
Zn127 O132 1.996 . S
Zn127 O135 1.943 . S
O128 Zn127 1.962 . S
O128 C133 1.254 . S
O129 Zn126 2.031 . S
O129 C133 1.269 1_455 S
O130 Zn127 1.986 . S
O130 C137 1.262 . S
O131 Zn126 2.049 . S
O131 C139 1.260 1_455 S
O132 Zn127 1.996 . S
O132 C139 1.257 . S
C133 O128 1.254 . S
C133 O129 1.269 1_655 S
C134 O135 1.249 . S
C134 O136 1.270 1_655 S
O135 Zn127 1.943 . S
O135 C134 1.249 . S
O136 Zn126 2.067 . S
O136 C134 1.270 1_455 S
C137 O130 1.262 . S
C137 O138 1.232 . S
O138 C137 1.232 . S
C139 O131 1.260 1_655 S
C139 O132 1.257 . S
Zn140 O143 2.031 . S
Zn140 O145 2.049 . S
Zn140 O150 2.067 . S
Zn141 O142 1.962 . S
Zn141 O144 1.986 . S
Zn141 O146 1.996 . S
Zn141 O149 1.943 . S
O142 Zn141 1.962 . S
O142 C147 1.254 . S
O143 Zn140 2.031 . S
O143 C147 1.269 1_655 S
O144 Zn141 1.986 . S
O144 C151 1.262 . S
O145 Zn140 2.049 . S
O145 C153 1.260 1_655 S
O146 Zn141 1.996 . S
O146 C153 1.257 . S
C147 O142 1.254 . S
C147 O143 1.269 1_455 S
C148 O149 1.249 . S
C148 O150 1.270 1_455 S
O149 Zn141 1.943 . S
O149 C148 1.249 . S
O150 Zn140 2.067 . S
O150 C148 1.270 1_655 S
C151 O144 1.262 . S
C151 O152 1.232 . S
O152 C151 1.232 . S
C153 O145 1.260 1_455 S
C153 O146 1.257 . S
Zn154 O157 2.031 . S
Zn154 O159 2.049 . S
Zn154 O164 2.067 . S
Zn155 O156 1.962 . S
Zn155 O158 1.986 . S
Zn155 O160 1.996 . S
Zn155 O163 1.943 . S
O156 Zn155 1.962 . S
O156 C161 1.254 . S
O157 Zn154 2.031 . S
O157 C161 1.269 . S
O158 Zn155 1.986 . S
O158 C165 1.262 . S
O159 Zn154 2.049 . S
O159 C167 1.260 . S
O160 Zn155 1.996 . S
O160 C167 1.257 . S
C161 O156 1.254 . S
C161 O157 1.269 . S
C162 O163 1.249 . S
C162 O164 1.270 . S
O163 Zn155 1.943 . S
O163 C162 1.249 . S
O164 Zn154 2.067 . S
O164 C162 1.270 . S
C165 O158 1.262 . S
C165 O166 1.232 . S
O166 C165 1.232 . S
C167 O159 1.260 . S
C167 O160 1.257 . S
Zn168 O171 2.031 . S
Zn168 O173 2.049 . S
Zn168 O178 2.067 . S
Zn169 O170 1.962 . S
Zn169 O172 1.986 . S
Zn169 O174 1.996 . S
Zn169 O177 1.943 . S
O170 Zn169 1.962 . S
O170 C175 1.254 . S
O171 Zn168 2.031 . S
O171 C175 1.269 . S
O172 Zn169 1.986 . S
O172 C179 1.262 . S
O173 Zn168 2.049 . S
O173 C181 1.260 . S
O174 Zn169 1.996 . S
O174 C181 1.257 . S
C175 O170 1.254 . S
C175 O171 1.269 . S
C176 O177 1.249 . S
C176 O178 1.270 . S
O177 Zn169 1.943 . S
O177 C176 1.249 . S
O178 Zn168 2.067 . S
O178 C176 1.270 . S
C179 O172 1.262 . S
C179 O180 1.232 . S
O180 C179 1.232 . S
C181 O173 1.260 . S
C181 O174 1.257 . S
Zn182 O185 2.031 . S
Zn182 O187 2.049 . S
Zn182 O192 2.067 . S
Zn183 O184 1.962 . S
Zn183 O186 1.986 . S
Zn183 O188 1.996 . S
Zn183 O191 1.943 . S
O184 Zn183 1.962 . S
O184 C189 1.254 . S
O185 Zn182 2.031 . S
O185 C189 1.269 1_655 S
O186 Zn183 1.986 . S
O186 C193 1.262 . S
O187 Zn182 2.049 . S
O187 C195 1.260 1_655 S
O188 Zn183 1.996 . S
O188 C195 1.257 . S
C189 O184 1.254 . S
C189 O185 1.269 1_455 S
C190 O191 1.249 . S
C190 O192 1.270 1_455 S
O191 Zn183 1.943 . S
O191 C190 1.249 . S
O192 Zn182 2.067 . S
O192 C190 1.270 1_655 S
C193 O186 1.262 . S
C193 O194 1.232 . S
O194 C193 1.232 . S
C195 O187 1.260 1_455 S
C195 O188 1.257 . S
Zn196 O199 2.031 . S
Zn196 O201 2.049 . S
Zn196 O206 2.067 . S
Zn197 O198 1.962 . S
Zn197 O200 1.986 . S
Zn197 O202 1.996 . S
Zn197 O205 1.943 . S
O198 Zn197 1.962 . S
O198 C203 1.254 . S
O199 Zn196 2.031 . S
O199 C203 1.269 1_455 S
O200 Zn197 1.986 . S
O200 C207 1.262 . S
O201 Zn196 2.049 . S
O201 C209 1.260 1_455 S
O202 Zn197 1.996 . S
O202 C209 1.257 . S
C203 O198 1.254 . S
C203 O199 1.269 1_655 S
C204 O205 1.249 . S
C204 O206 1.270 1_655 S
O205 Zn197 1.943 . S
O205 C204 1.249 . S
O206 Zn196 2.067 . S
O206 C204 1.270 1_455 S
C207 O200 1.262 . S
C207 O208 1.232 . S
O208 C207 1.232 . S
C209 O201 1.260 1_655 S
C209 O202 1.257 . S
Zn210 O213 2.031 . S
Zn210 O215 2.049 . S
Zn210 O220 2.067 . S
Zn211 O212 1.962 . S
Zn211 O214 1.986 . S
Zn211 O216 1.996 . S
Zn211 O219 1.943 . S
O212 Zn211 1.962 . S
O212 C217 1.254 . S
O213 Zn210 2.031 . S
O213 C217 1.269 . S
O214 Zn211 1.986 . S
O214 C221 1.262 . S
O215 Zn210 2.049 . S
O215 C223 1.260 . S
O216 Zn211 1.996 . S
O216 C223 1.257 . S
C217 O212 1.254 . S
C217 O213 1.269 . S
C218 O219 1.249 . S
C218 O220 1.270 . S
O219 Zn211 1.943 . S
O219 C218 1.249 . S
O220 Zn210 2.067 . S
O220 C218 1.270 . S
C221 O214 1.262 . S
C221 O222 1.232 . S
O222 C221 1.232 . S
C223 O215 1.260 . S
C223 O216 1.257 . S
C224 C225 1.363 1_545 S
C224 C230 1.379 . S
C224 N232 1.356 . S
C225 C224 1.363 1_565 S
C225 C231 1.363 . S
C226 C227 1.363 1_565 S
C226 C231 1.379 . S
C226 N233 1.356 . S
C227 C226 1.363 1_545 S
C227 C230 1.363 . S
N228 C230 1.356 . S
N228 H240 0.984 . S
N228 H241 0.985 . S
N229 C231 1.356 . S
N229 H234 0.984 . S
N229 H235 0.985 . S
C230 C224 1.379 . S
C230 C227 1.363 . S
C230 N228 1.356 . S
C231 C225 1.363 . S
C231 C226 1.379 . S
C231 N229 1.356 . S
N232 C224 1.356 . S
N232 H238 0.984 . S
N232 H239 0.987 . S
N233 C226 1.356 . S
N233 H236 0.987 . S
N233 H237 0.985 . S
H234 N229 0.984 . S
H235 N229 0.985 . S
H236 N233 0.987 . S
H237 N233 0.985 . S
H238 N232 0.984 . S
H239 N232 0.987 . S
H240 N228 0.984 . S
H241 N228 0.985 . S
C242 C243 1.363 . S
C242 C248 1.379 . S
C242 N250 1.356 . S
C243 C242 1.363 . S
C243 C249 1.363 1_565 S
C244 C245 1.363 . S
C244 C249 1.379 . S
C244 N251 1.356 . S
C245 C244 1.363 . S
C245 C248 1.363 1_545 S
N246 C248 1.356 . S
N246 H258 0.984 . S
N246 H259 0.987 . S
N247 C249 1.356 . S
N247 H252 0.987 . S
N247 H253 0.985 . S
C248 C242 1.379 . S
C248 C245 1.363 1_565 S
C248 N246 1.356 . S
C249 C243 1.363 1_545 S
C249 C244 1.379 . S
C249 N247 1.356 . S
N250 C242 1.356 . S
N250 H256 0.984 . S
N250 H257 0.984 . S
N251 C244 1.356 . S
N251 H254 0.984 . S
N251 H255 0.985 . S
H252 N247 0.987 . S
H253 N247 0.985 . S
H254 N251 0.984 . S
H255 N251 0.985 . S
H256 N250 0.984 . S
H257 N250 0.984 . S
H258 N246 0.984 . S
H259 N246 0.987 . S
C260 C261 1.363 . S
C260 C266 1.379 . S
C260 N268 1.356 . S
C261 C260 1.363 . S
C261 C267 1.363 1_565 S
C262 C263 1.363 . S
C262 C267 1.379 . S
C262 N269 1.356 . S
C263 C262 1.363 . S
C263 C266 1.363 1_545 S
N264 C266 1.356 . S
N264 H276 0.984 . S
N264 H277 0.987 . S
N265 C267 1.356 . S
N265 H270 0.987 . S
N265 H271 0.985 . S
C266 C260 1.379 . S
C266 C263 1.363 1_565 S
C266 N264 1.356 . S
C267 C261 1.363 1_545 S
C267 C262 1.379 . S
C267 N265 1.356 . S
N268 C260 1.356 . S
N268 H274 0.984 . S
N268 H275 0.984 . S
N269 C262 1.356 . S
N269 H272 0.984 . S
N269 H273 0.985 . S
H270 N265 0.987 . S
H271 N265 0.985 . S
H272 N269 0.984 . S
H273 N269 0.985 . S
H274 N268 0.984 . S
H275 N268 0.984 . S
H276 N264 0.984 . S
H277 N264 0.987 . S
C278 C279 1.363 1_545 S
C278 C284 1.379 . S
C278 N286 1.356 . S
C279 C278 1.363 1_565 S
C279 C285 1.363 . S
C280 C281 1.363 1_565 S
C280 C285 1.379 . S
C280 N287 1.356 . S
C281 C280 1.363 1_545 S
C281 C284 1.363 . S
N282 C284 1.356 . S
N282 H294 0.984 . S
N282 H295 0.985 . S
N283 C285 1.356 . S
N283 H288 0.984 . S
N283 H289 0.985 . S
C284 C278 1.379 . S
C284 C281 1.363 . S
C284 N282 1.356 . S
C285 C279 1.363 . S
C285 C280 1.379 . S
C285 N283 1.356 . S
N286 C278 1.356 . S
N286 H292 0.984 . S
N286 H293 0.987 . S
N287 C280 1.356 . S
N287 H290 0.987 . S
N287 H291 0.985 . S
H288 N283 0.984 . S
H289 N283 0.985 . S
H290 N287 0.987 . S
H291 N287 0.985 . S
H292 N286 0.984 . S
H293 N286 0.987 . S
H294 N282 0.984 . S
H295 N282 0.985 . S
C296 C297 1.363 . S
C296 C302 1.379 . S
C296 N304 1.356 . S
C297 C296 1.363 . S
C297 C303 1.363 . S
C298 C299 1.363 . S
C298 C303 1.379 . S
C298 N305 1.356 . S
C299 C298 1.363 . S
C299 C302 1.363 . S
N300 C302 1.356 . S
N300 H312 0.984 . S
N300 H313 0.985 . S
N301 C303 1.356 . S
N301 H306 0.984 . S
N301 H307 0.985 . S
C302 C296 1.379 . S
C302 C299 1.363 . S
C302 N300 1.356 . S
C303 C297 1.363 . S
C303 C298 1.379 . S
C303 N301 1.356 . S
N304 C296 1.356 . S
N304 H310 0.984 . S
N304 H311 0.984 . S
N305 C298 1.356 . S
N305 H308 0.984 . S
N305 H309 0.985 . S
H306 N301 0.984 . S
H307 N301 0.985 . S
H308 N305 0.984 . S
H309 N305 0.985 . S
H310 N304 0.984 . S
H311 N304 0.984 . S
H312 N300 0.984 . S
H313 N300 0.985 . S
C314 C315 1.363 . S
C314 C320 1.379 . S
C314 N322 1.356 . S
C315 C314 1.363 . S
C315 C321 1.363 . S
C316 C317 1.363 . S
C316 C321 1.379 . S
C316 N323 1.356 . S
C317 C316 1.363 . S
C317 C320 1.363 . S
N318 C320 1.356 . S
N318 H330 0.984 . S
N318 H331 0.985 . S
N319 C321 1.356 . S
N319 H324 0.984 . S
N319 H325 0.985 . S
C320 C314 1.379 . S
C320 C317 1.363 . S
C320 N318 1.356 . S
C321 C315 1.363 . S
C321 C316 1.379 . S
C321 N319 1.356 . S
N322 C314 1.356 . S
N322 H328 0.984 . S
N322 H329 0.984 . S
N323 C316 1.356 . S
N323 H326 0.984 . S
N323 H327 0.985 . S
H324 N319 0.984 . S
H325 N319 0.985 . S
H326 N323 0.984 . S
H327 N323 0.985 . S
H328 N322 0.984 . S
H329 N322 0.984 . S
H330 N318 0.984 . S
H331 N318 0.985 . S
C332 C333 1.363 . S
C332 C338 1.379 . S
C332 N340 1.356 . S
C333 C332 1.363 . S
C333 C339 1.363 . S
C334 C335 1.363 . S
C334 C339 1.379 . S
C334 N341 1.356 . S
C335 C334 1.363 . S
C335 C338 1.363 . S
N336 C338 1.356 . S
N336 H348 0.984 . S
N336 H349 0.985 . S
N337 C339 1.356 . S
N337 H342 0.984 . S
N337 H343 0.985 . S
C338 C332 1.379 . S
C338 C335 1.363 . S
C338 N336 1.356 . S
C339 C333 1.363 . S
C339 C334 1.379 . S
C339 N337 1.356 . S
N340 C332 1.356 . S
N340 H346 0.984 . S
N340 H347 0.984 . S
N341 C334 1.356 . S
N341 H344 0.984 . S
N341 H345 0.985 . S
H342 N337 0.984 . S
H343 N337 0.985 . S
H344 N341 0.984 . S
H345 N341 0.985 . S
H346 N340 0.984 . S
H347 N340 0.984 . S
H348 N336 0.984 . S
H349 N336 0.985 . S
C350 C351 1.363 . S
C350 C356 1.379 . S
C350 N358 1.356 . S
C351 C350 1.363 . S
C351 C357 1.363 . S
C352 C353 1.363 . S
C352 C357 1.379 . S
C352 N359 1.356 . S
C353 C352 1.363 . S
C353 C356 1.363 . S
N354 C356 1.356 . S
N354 H366 0.984 . S
N354 H367 0.985 . S
N355 C357 1.356 . S
N355 H360 0.984 . S
N355 H361 0.985 . S
C356 C350 1.379 . S
C356 C353 1.363 . S
C356 N354 1.356 . S
C357 C351 1.363 . S
C357 C352 1.379 . S
C357 N355 1.356 . S
N358 C350 1.356 . S
N358 H364 0.984 . S
N358 H365 0.984 . S
N359 C352 1.356 . S
N359 H362 0.984 . S
N359 H363 0.985 . S
H360 N355 0.984 . S
H361 N355 0.985 . S
H362 N359 0.984 . S
H363 N359 0.985 . S
H364 N358 0.984 . S
H365 N358 0.984 . S
H366 N354 0.984 . S
H367 N354 0.985 . S
C368 C369 1.363 . S
C368 C374 1.379 . S
C368 N376 1.356 . S
C369 C368 1.363 . S
C369 C375 1.363 1_645 S
C370 C371 1.363 1_565 S
C370 C375 1.379 . S
C370 N377 1.356 . S
C371 C370 1.363 1_545 S
C371 C374 1.363 1_455 S
N372 C374 1.356 . S
N372 H384 0.984 . S
N372 H385 0.985 . S
N373 C375 1.356 . S
N373 H378 0.984 . S
N373 H379 0.985 . S
C374 C368 1.379 . S
C374 C371 1.363 1_655 S
C374 N372 1.356 . S
C375 C369 1.363 1_465 S
C375 C370 1.379 . S
C375 N373 1.356 . S
N376 C368 1.356 . S
N376 H382 0.984 . S
N376 H383 0.984 . S
N377 C370 1.356 . S
N377 H380 0.984 . S
N377 H381 0.985 . S
H378 N373 0.984 . S
H379 N373 0.985 . S
H380 N377 0.984 . S
H381 N377 0.985 . S
H382 N376 0.984 . S
H383 N376 0.984 . S
H384 N372 0.984 . S
H385 N372 0.985 . S
C386 C387 1.363 . S
C386 C392 1.379 . S
C386 N394 1.356 . S
C387 C386 1.363 . S
C387 C393 1.363 1_565 S
C388 C389 1.363 1_545 S
C388 C393 1.379 . S
C388 N395 1.356 . S
C389 C388 1.363 1_565 S
C389 C392 1.363 . S
N390 C392 1.356 . S
N390 H402 0.984 . S
N390 H403 0.985 . S
N391 C393 1.356 . S
N391 H396 0.984 . S
N391 H397 0.985 . S
C392 C386 1.379 . S
C392 C389 1.363 . S
C392 N390 1.356 . S
C393 C387 1.363 1_545 S
C393 C388 1.379 . S
C393 N391 1.356 . S
N394 C386 1.356 . S
N394 H400 0.984 . S
N394 H401 0.984 . S
N395 C388 1.356 . S
N395 H398 0.984 . S
N395 H399 0.985 . S
H396 N391 0.984 . S
H397 N391 0.985 . S
H398 N395 0.984 . S
H399 N395 0.985 . S
H400 N394 0.984 . S
H401 N394 0.984 . S
H402 N390 0.984 . S
H403 N390 0.985 . S
C404 C405 1.363 1_655 S
C404 C410 1.379 . S
C404 N412 1.356 . S
C405 C404 1.363 1_455 S
C405 C411 1.363 1_565 S
C406 C407 1.363 1_445 S
C406 C411 1.379 . S
C406 N413 1.356 . S
C407 C406 1.363 1_665 S
C407 C410 1.363 . S
N408 C410 1.356 . S
N408 H420 0.984 . S
N408 H421 0.985 . S
N409 C411 1.356 . S
N409 H414 0.984 . S
N409 H415 0.985 . S
C410 C404 1.379 . S
C410 C407 1.363 . S
C410 N408 1.356 . S
C411 C405 1.363 1_545 S
C411 C406 1.379 . S
C411 N409 1.356 . S
N412 C404 1.356 . S
N412 H418 0.984 . S
N412 H419 0.984 . S
N413 C406 1.356 . S
N413 H416 0.984 . S
N413 H417 0.985 . S
H414 N409 0.984 . S
H415 N409 0.985 . S
H416 N413 0.984 . S
H417 N413 0.985 . S
H418 N412 0.984 . S
H419 N412 0.984 . S
H420 N408 0.984 . S
H421 N408 0.985 . S
C422 C423 1.363 1_565 S
C422 C428 1.379 . S
C422 N430 1.356 . S
C423 C422 1.363 1_545 S
C423 C429 1.363 . S
C424 C425 1.363 . S
C424 C429 1.379 . S
C424 N431 1.356 . S
C425 C424 1.363 . S
C425 C428 1.363 1_545 S
N426 C428 1.356 . S
N426 H438 0.984 . S
N426 H439 0.985 . S
N427 C429 1.356 . S
N427 H432 0.984 . S
N427 H433 0.985 . S
C428 C422 1.379 . S
C428 C425 1.363 1_565 S
C428 N426 1.356 . S
C429 C423 1.363 . S
C429 C424 1.379 . S
C429 N427 1.356 . S
N430 C422 1.356 . S
N430 H436 0.984 . S
N430 H437 0.984 . S
N431 C424 1.356 . S
N431 H434 0.984 . S
N431 H435 0.985 . S
H432 N427 0.984 . S
H433 N427 0.985 . S
H434 N431 0.984 . S
H435 N431 0.985 . S
H436 N430 0.984 . S
H437 N430 0.984 . S
H438 N426 0.984 . S
H439 N426 0.985 . S
C440 C441 1.363 . S
C440 C446 1.379 . S
C440 N448 1.356 . S
C441 C440 1.363 . S
C441 C447 1.363 . S
C442 C443 1.363 . S
C442 C447 1.379 . S
C442 N449 1.356 . S
C443 C442 1.363 . S
C443 C446 1.363 . S
N444 C446 1.356 . S
N444 H456 0.984 . S
N444 H457 0.985 . S
N445 C447 1.356 . S
N445 H450 0.984 . S
N445 H451 0.985 . S
C446 C440 1.379 . S
C446 C443 1.363 . S
C446 N444 1.356 . S
C447 C441 1.363 . S
C447 C442 1.379 . S
C447 N445 1.356 . S
N448 C440 1.356 . S
N448 H454 0.984 . S
N448 H455 0.984 . S
N449 C442 1.356 . S
N449 H452 0.984 . S
N449 H453 0.985 . S
H450 N445 0.984 . S
H451 N445 0.985 . S
H452 N449 0.984 . S
H453 N449 0.985 . S
H454 N448 0.984 . S
H455 N448 0.984 . S
H456 N444 0.984 . S
H457 N444 0.985 . S
C458 C459 1.363 1_655 S
C458 C464 1.379 . S
C458 N466 1.356 . S
C459 C458 1.363 1_455 S
C459 C465 1.363 . S
C460 C461 1.363 1_455 S
C460 C465 1.379 . S
C460 N467 1.356 . S
C461 C460 1.363 1_655 S
C461 C464 1.363 . S
N462 C464 1.356 . S
N462 H474 0.984 . S
N462 H475 0.985 . S
N463 C465 1.356 . S
N463 H468 0.984 . S
N463 H469 0.985 . S
C464 C458 1.379 . S
C464 C461 1.363 . S
C464 N462 1.356 . S
C465 C459 1.363 . S
C465 C460 1.379 . S
C465 N463 1.356 . S
N466 C458 1.356 . S
N466 H472 0.984 . S
N466 H473 0.984 . S
N467 C460 1.356 . S
N467 H470 0.984 . S
N467 H471 0.985 . S
H468 N463 0.984 . S
H469 N463 0.985 . S
H470 N467 0.984 . S
H471 N467 0.985 . S
H472 N466 0.984 . S
H473 N466 0.984 . S
H474 N462 0.984 . S
H475 N462 0.985 . S
C476 C477 1.363 . S
C476 C482 1.379 . S
C476 N484 1.356 . S
C477 C476 1.363 . S
C477 C483 1.363 . S
C478 C479 1.363 . S
C478 C483 1.379 . S
C478 N485 1.356 . S
C479 C478 1.363 . S
C479 C482 1.363 . S
N480 C482 1.356 . S
N480 H492 0.984 . S
N480 H493 0.985 . S
N481 C483 1.356 . S
N481 H486 0.984 . S
N481 H487 0.985 . S
C482 C476 1.379 . S
C482 C479 1.363 . S
C482 N480 1.356 . S
C483 C477 1.363 . S
C483 C478 1.379 . S
C483 N481 1.356 . S
N484 C476 1.356 . S
N484 H490 0.984 . S
N484 H491 0.984 . S
N485 C478 1.356 . S
N485 H488 0.984 . S
N485 H489 0.985 . S
H486 N481 0.984 . S
H487 N481 0.985 . S
H488 N485 0.984 . S
H489 N485 0.985 . S
H490 N484 0.984 . S
H491 N484 0.984 . S
H492 N480 0.984 . S
H493 N480 0.985 . S
C494 C495 1.363 1_655 S
C494 C500 1.379 . S
C494 N502 1.356 . S
C495 C494 1.363 1_455 S
C495 C501 1.363 . S
C496 C497 1.363 1_455 S
C496 C501 1.379 . S
C496 N503 1.356 . S
C497 C496 1.363 1_655 S
C497 C500 1.363 . S
N498 C500 1.356 . S
N498 H510 0.984 . S
N498 H511 0.985 . S
N499 C501 1.356 . S
N499 H504 0.984 . S
N499 H505 0.985 . S
C500 C494 1.379 . S
C500 C497 1.363 . S
C500 N498 1.356 . S
C501 C495 1.363 . S
C501 C496 1.379 . S
C501 N499 1.356 . S
N502 C494 1.356 . S
N502 H508 0.984 . S
N502 H509 0.984 . S
N503 C496 1.356 . S
N503 H506 0.984 . S
N503 H507 0.985 . S
H504 N499 0.984 . S
H505 N499 0.985 . S
H506 N503 0.984 . S
H507 N503 0.985 . S
H508 N502 0.984 . S
H509 N502 0.984 . S
H510 N498 0.984 . S
H511 N498 0.985 . S
C512 C513 1.363 1_655 S
C512 C518 1.379 . S
C512 N520 1.356 . S
C513 C512 1.363 1_455 S
C513 C519 1.363 . S
C514 C515 1.363 1_455 S
C514 C519 1.379 . S
C514 N521 1.356 . S
C515 C514 1.363 1_655 S
C515 C518 1.363 . S
N516 C518 1.356 . S
N516 H528 0.984 . S
N516 H529 0.985 . S
N517 C519 1.356 . S
N517 H522 0.984 . S
N517 H523 0.985 . S
C518 C512 1.379 . S
C518 C515 1.363 . S
C518 N516 1.356 . S
C519 C513 1.363 . S
C519 C514 1.379 . S
C519 N517 1.356 . S
N520 C512 1.356 . S
N520 H526 0.984 . S
N520 H527 0.984 1_655 S
N521 C514 1.356 . S
N521 H524 0.984 1_455 S
N521 H525 0.985 . S
H522 N517 0.984 . S
H523 N517 0.985 . S
H524 N521 0.984 1_655 S
H525 N521 0.985 . S
H526 N520 0.984 . S
H527 N520 0.984 1_455 S
H528 N516 0.984 . S
H529 N516 0.985 . S
C530 C531 1.363 . S
C530 C536 1.379 . S
C530 N538 1.356 . S
C531 C530 1.363 . S
C531 C537 1.363 . S
C532 C533 1.363 . S
C532 C537 1.379 . S
C532 N539 1.356 . S
C533 C532 1.363 . S
C533 C536 1.363 . S
N534 C536 1.356 . S
N534 H546 0.984 . S
N534 H547 0.985 . S
N535 C537 1.356 . S
N535 H540 0.984 . S
N535 H541 0.985 . S
C536 C530 1.379 . S
C536 C533 1.363 . S
C536 N534 1.356 . S
C537 C531 1.363 . S
C537 C532 1.379 . S
C537 N535 1.356 . S
N538 C530 1.356 . S
N538 H544 0.984 . S
N538 H545 0.984 . S
N539 C532 1.356 . S
N539 H542 0.984 . S
N539 H543 0.985 . S
H540 N535 0.984 . S
H541 N535 0.985 . S
H542 N539 0.984 . S
H543 N539 0.985 . S
H544 N538 0.984 . S
H545 N538 0.984 . S
H546 N534 0.984 . S
H547 N534 0.985 . S
C548 C549 1.363 . S
C548 C554 1.379 . S
C548 N556 1.356 . S
C549 C548 1.363 . S
C549 C555 1.363 . S
C550 C551 1.363 . S
C550 C555 1.379 . S
C550 N557 1.356 . S
C551 C550 1.363 . S
C551 C554 1.363 . S
N552 C554 1.356 . S
N552 H564 0.984 . S
N552 H565 0.985 . S
N553 C555 1.356 . S
N553 H558 0.984 . S
N553 H559 0.985 . S
C554 C548 1.379 . S
C554 C551 1.363 . S
C554 N552 1.356 . S
C555 C549 1.363 . S
C555 C550 1.379 . S
C555 N553 1.356 . S
N556 C548 1.356 . S
N556 H562 0.984 . S
N556 H563 0.984 . S
N557 C550 1.356 . S
N557 H560 0.984 . S
N557 H561 0.985 . S
H558 N553 0.984 . S
H559 N553 0.985 . S
H560 N557 0.984 . S
H561 N557 0.985 . S
H562 N556 0.984 . S
H563 N556 0.984 . S
H564 N552 0.984 . S
H565 N552 0.985 . S
C566 C567 1.363 1_655 S
C566 C572 1.379 . S
C566 N574 1.356 . S
C567 C566 1.363 1_455 S
C567 C573 1.363 . S
C568 C569 1.363 1_455 S
C568 C573 1.379 . S
C568 N575 1.356 . S
C569 C568 1.363 1_655 S
C569 C572 1.363 . S
N570 C572 1.356 . S
N570 H582 0.984 . S
N570 H583 0.985 . S
N571 C573 1.356 . S
N571 H576 0.984 . S
N571 H577 0.985 . S
C572 C566 1.379 . S
C572 C569 1.363 . S
C572 N570 1.356 . S
C573 C567 1.363 . S
C573 C568 1.379 . S
C573 N571 1.356 . S
N574 C566 1.356 . S
N574 H580 0.984 . S
N574 H581 0.984 1_655 S
N575 C568 1.356 . S
N575 H578 0.984 1_455 S
N575 H579 0.985 . S
H576 N571 0.984 . S
H577 N571 0.985 . S
H578 N575 0.984 1_655 S
H579 N575 0.985 . S
H580 N574 0.984 . S
H581 N574 0.984 1_455 S
H582 N570 0.984 . S
H583 N570 0.985 . S
C584 C585 1.363 1_655 S
C584 C590 1.379 . S
C584 N592 1.356 . S
C585 C584 1.363 1_455 S
C585 C591 1.363 . S
C586 C587 1.363 1_455 S
C586 C591 1.379 . S
C586 N593 1.356 . S
C587 C586 1.363 1_655 S
C587 C590 1.363 . S
N588 C590 1.356 . S
N588 H600 0.984 . S
N588 H601 0.985 . S
N589 C591 1.356 . S
N589 H594 0.984 . S
N589 H595 0.985 . S
C590 C584 1.379 . S
C590 C587 1.363 . S
C590 N588 1.356 . S
C591 C585 1.363 . S
C591 C586 1.379 . S
C591 N589 1.356 . S
N592 C584 1.356 . S
N592 H598 0.984 . S
N592 H599 0.984 1_655 S
N593 C586 1.356 . S
N593 H596 0.984 1_455 S
N593 H597 0.985 . S
H594 N589 0.984 . S
H595 N589 0.985 . S
H596 N593 0.984 1_655 S
H597 N593 0.985 . S
H598 N592 0.984 . S
H599 N592 0.984 1_455 S
H600 N588 0.984 . S
H601 N588 0.985 . S
C602 C603 1.363 . S
C602 C608 1.379 . S
C602 N610 1.356 . S
C603 C602 1.363 . S
C603 C609 1.363 . S
C604 C605 1.363 . S
C604 C609 1.379 . S
C604 N611 1.356 . S
C605 C604 1.363 . S
C605 C608 1.363 . S
N606 C608 1.356 . S
N606 H618 0.984 . S
N606 H619 0.985 . S
N607 C609 1.356 . S
N607 H612 0.984 . S
N607 H613 0.985 . S
C608 C602 1.379 . S
C608 C605 1.363 . S
C608 N606 1.356 . S
C609 C603 1.363 . S
C609 C604 1.379 . S
C609 N607 1.356 . S
N610 C602 1.356 . S
N610 H616 0.984 . S
N610 H617 0.984 . S
N611 C604 1.356 . S
N611 H614 0.984 . S
N611 H615 0.985 . S
H612 N607 0.984 . S
H613 N607 0.985 . S
H614 N611 0.984 . S
H615 N611 0.985 . S
H616 N610 0.984 . S
H617 N610 0.984 . S
H618 N606 0.984 . S
H619 N606 0.985 . S
C620 C621 1.363 . S
C620 C626 1.379 . S
C620 N628 1.356 . S
C621 C620 1.363 . S
C621 C627 1.363 . S
C622 C623 1.363 . S
C622 C627 1.379 . S
C622 N629 1.356 . S
C623 C622 1.363 . S
C623 C626 1.363 . S
N624 C626 1.356 . S
N624 H636 0.984 . S
N624 H637 0.985 . S
N625 C627 1.356 . S
N625 H630 0.984 . S
N625 H631 0.985 . S
C626 C620 1.379 . S
C626 C623 1.363 . S
C626 N624 1.356 . S
C627 C621 1.363 . S
C627 C622 1.379 . S
C627 N625 1.356 . S
N628 C620 1.356 . S
N628 H634 0.984 . S
N628 H635 0.984 . S
N629 C622 1.356 . S
N629 H632 0.984 . S
N629 H633 0.985 . S
H630 N625 0.984 . S
H631 N625 0.985 . S
H632 N629 0.984 . S
H633 N629 0.985 . S
H634 N628 0.984 . S
H635 N628 0.984 . S
H636 N624 0.984 . S
H637 N624 0.985 . S
C638 C639 1.363 1_655 S
C638 C644 1.379 . S
C638 N646 1.356 . S
C639 C638 1.363 1_455 S
C639 C645 1.363 . S
C640 C641 1.363 1_455 S
C640 C645 1.379 . S
C640 N647 1.356 . S
C641 C640 1.363 1_655 S
C641 C644 1.363 . S
N642 C644 1.356 . S
N642 H654 0.984 . S
N642 H655 0.985 . S
N643 C645 1.356 . S
N643 H648 0.984 . S
N643 H649 0.985 . S
C644 C638 1.379 . S
C644 C641 1.363 . S
C644 N642 1.356 . S
C645 C639 1.363 . S
C645 C640 1.379 . S
C645 N643 1.356 . S
N646 C638 1.356 . S
N646 H652 0.984 . S
N646 H653 0.984 1_655 S
N647 C640 1.356 . S
N647 H650 0.984 1_455 S
N647 H651 0.985 . S
H648 N643 0.984 . S
H649 N643 0.985 . S
H650 N647 0.984 1_655 S
H651 N647 0.985 . S
H652 N646 0.984 . S
H653 N646 0.984 1_455 S
H654 N642 0.984 . S
H655 N642 0.985 . S
C656 C657 1.363 1_445 S
C656 C662 1.379 1_556 S
C656 N664 1.356 . S
C657 C656 1.363 1_665 S
C657 C663 1.363 . S
C658 C659 1.363 1_665 S
C658 C663 1.379 1_554 S
C658 N665 1.356 . S
C659 C658 1.363 1_445 S
C659 C662 1.363 . S
N660 C662 1.356 . S
N660 H672 0.984 . S
N660 H673 0.985 . S
N661 C663 1.356 . S
N661 H666 0.984 . S
N661 H667 0.985 . S
C662 C656 1.379 1_554 S
C662 C659 1.363 . S
C662 N660 1.356 . S
C663 C657 1.363 . S
C663 C658 1.379 1_556 S
C663 N661 1.356 . S
N664 C656 1.356 . S
N664 H670 0.984 . S
N664 H671 0.984 . S
N665 C658 1.356 . S
N665 H668 0.984 . S
N665 H669 0.985 . S
H666 N661 0.984 . S
H667 N661 0.985 . S
H668 N665 0.984 . S
H669 N665 0.985 . S
H670 N664 0.984 . S
H671 N664 0.984 . S
H672 N660 0.984 . S
H673 N660 0.985 . S
C674 C675 1.363 1_565 S
C674 C680 1.379 1_556 S
C674 N682 1.356 . S
C675 C674 1.363 1_545 S
C675 C681 1.363 . S
C676 C677 1.363 1_545 S
C676 C681 1.379 1_554 S
C676 N683 1.356 . S
C677 C676 1.363 1_565 S
C677 C680 1.363 . S
N678 C680 1.356 . S
N678 H690 0.984 . S
N678 H691 0.985 . S
N679 C681 1.356 . S
N679 H684 0.984 . S
N679 H685 0.985 . S
C680 C674 1.379 1_554 S
C680 C677 1.363 . S
C680 N678 1.356 . S
C681 C675 1.363 . S
C681 C676 1.379 1_556 S
C681 N679 1.356 . S
N682 C674 1.356 . S
N682 H688 0.984 . S
N682 H689 0.984 . S
N683 C676 1.356 . S
N683 H686 0.984 . S
N683 H687 0.985 . S
H684 N679 0.984 . S
H685 N679 0.985 . S
H686 N683 0.984 . S
H687 N683 0.985 . S
H688 N682 0.984 . S
H689 N682 0.984 . S
H690 N678 0.984 . S
H691 N678 0.985 . S
C692 C693 1.363 . S
C692 C698 1.379 . S
C692 N700 1.356 . S
C693 C692 1.363 . S
C693 C699 1.363 1_545 S
C694 C695 1.363 . S
C694 C699 1.379 . S
C694 N701 1.356 . S
C695 C694 1.363 . S
C695 C698 1.363 1_565 S
N696 C698 1.356 . S
N696 H708 0.984 . S
N696 H709 0.985 . S
N697 C699 1.356 . S
N697 H702 0.984 . S
N697 H703 0.985 . S
C698 C692 1.379 . S
C698 C695 1.363 1_545 S
C698 N696 1.356 . S
C699 C693 1.363 1_565 S
C699 C694 1.379 . S
C699 N697 1.356 . S
N700 C692 1.356 . S
N700 H706 0.984 . S
N700 H707 0.984 . S
N701 C694 1.356 . S
N701 H704 0.984 . S
N701 H705 0.985 . S
H702 N697 0.984 . S
H703 N697 0.985 . S
H704 N701 0.984 . S
H705 N701 0.985 . S
H706 N700 0.984 . S
H707 N700 0.984 . S
H708 N696 0.984 . S
H709 N696 0.985 . S
C710 C711 1.363 1_645 S
C710 C716 1.379 . S
C710 N718 1.356 . S
C711 C710 1.363 1_465 S
C711 C717 1.363 . S
C712 C713 1.363 1_465 S
C712 C717 1.379 . S
C712 N719 1.356 . S
C713 C712 1.363 1_645 S
C713 C716 1.363 . S
N714 C716 1.356 . S
N714 H726 0.984 . S
N714 H727 0.985 . S
N715 C717 1.356 . S
N715 H720 0.984 . S
N715 H721 0.985 . S
C716 C710 1.379 . S
C716 C713 1.363 . S
C716 N714 1.356 . S
C717 C711 1.363 . S
C717 C712 1.379 . S
C717 N715 1.356 . S
N718 C710 1.356 . S
N718 H724 0.984 . S
N718 H725 0.984 . S
N719 C712 1.356 . S
N719 H722 0.984 . S
N719 H723 0.985 . S
H720 N715 0.984 . S
H721 N715 0.985 . S
H722 N719 0.984 . S
H723 N719 0.985 . S
H724 N718 0.984 . S
H725 N718 0.984 . S
H726 N714 0.984 . S
H727 N714 0.985 . S
C728 C729 1.363 . S
C728 C734 1.379 1_554 S
C728 N736 1.356 . S
C729 C728 1.363 . S
C729 C735 1.363 . S
C730 C731 1.363 . S
C730 C735 1.379 1_556 S
C730 N737 1.356 . S
C731 C730 1.363 . S
C731 C734 1.363 . S
N732 C734 1.356 . S
N732 H744 0.984 . S
N732 H745 0.985 . S
N733 C735 1.356 . S
N733 H738 0.984 . S
N733 H739 0.985 . S
C734 C728 1.379 1_556 S
C734 C731 1.363 . S
C734 N732 1.356 . S
C735 C729 1.363 . S
C735 C730 1.379 1_554 S
C735 N733 1.356 . S
N736 C728 1.356 . S
N736 H742 0.984 . S
N736 H743 0.984 . S
N737 C730 1.356 . S
N737 H740 0.984 . S
N737 H741 0.985 . S
H738 N733 0.984 . S
H739 N733 0.985 . S
H740 N737 0.984 . S
H741 N737 0.985 . S
H742 N736 0.984 . S
H743 N736 0.984 . S
H744 N732 0.984 . S
H745 N732 0.985 . S
C746 C747 1.363 1_455 S
C746 C752 1.379 1_554 S
C746 N754 1.356 . S
C747 C746 1.363 1_655 S
C747 C753 1.363 . S
C748 C749 1.363 1_655 S
C748 C753 1.379 1_556 S
C748 N755 1.356 . S
C749 C748 1.363 1_455 S
C749 C752 1.363 . S
N750 C752 1.356 . S
N750 H762 0.984 . S
N750 H763 0.985 . S
N751 C753 1.356 . S
N751 H756 0.984 . S
N751 H757 0.985 . S
C752 C746 1.379 1_556 S
C752 C749 1.363 . S
C752 N750 1.356 . S
C753 C747 1.363 . S
C753 C748 1.379 1_554 S
C753 N751 1.356 . S
N754 C746 1.356 . S
N754 H760 0.984 . S
N754 H761 0.984 . S
N755 C748 1.356 . S
N755 H758 0.984 . S
N755 H759 0.985 . S
H756 N751 0.984 . S
H757 N751 0.985 . S
H758 N755 0.984 . S
H759 N755 0.985 . S
H760 N754 0.984 . S
H761 N754 0.984 . S
H762 N750 0.984 . S
H763 N750 0.985 . S
C764 C765 1.363 1_455 S
C764 C770 1.379 . S
C764 N772 1.356 . S
C765 C764 1.363 1_655 S
C765 C771 1.363 . S
C766 C767 1.363 1_655 S
C766 C771 1.379 . S
C766 N773 1.356 . S
C767 C766 1.363 1_455 S
C767 C770 1.363 . S
N768 C770 1.356 . S
N768 H780 0.984 . S
N768 H781 0.985 . S
N769 C771 1.356 . S
N769 H774 0.984 . S
N769 H775 0.985 . S
C770 C764 1.379 . S
C770 C767 1.363 . S
C770 N768 1.356 . S
C771 C765 1.363 . S
C771 C766 1.379 . S
C771 N769 1.356 . S
N772 C764 1.356 . S
N772 H778 0.984 . S
N772 H779 0.984 . S
N773 C766 1.356 . S
N773 H776 0.984 . S
N773 H777 0.985 . S
H774 N769 0.984 . S
H775 N769 0.985 . S
H776 N773 0.984 . S
H777 N773 0.985 . S
H778 N772 0.984 . S
H779 N772 0.984 . S
H780 N768 0.984 . S
H781 N768 0.985 . S
C782 C783 1.363 . S
C782 C788 1.379 . S
C782 N790 1.356 . S
C783 C782 1.363 . S
C783 C789 1.363 . S
C784 C785 1.363 . S
C784 C789 1.379 . S
C784 N791 1.356 . S
C785 C784 1.363 . S
C785 C788 1.363 . S
N786 C788 1.356 . S
N786 H798 0.984 . S
N786 H799 0.985 . S
N787 C789 1.356 . S
N787 H792 0.984 . S
N787 H793 0.985 . S
C788 C782 1.379 . S
C788 C785 1.363 . S
C788 N786 1.356 . S
C789 C783 1.363 . S
C789 C784 1.379 . S
C789 N787 1.356 . S
N790 C782 1.356 . S
N790 H796 0.984 . S
N790 H797 0.984 . S
N791 C784 1.356 . S
N791 H794 0.984 . S
N791 H795 0.985 . S
H792 N787 0.984 . S
H793 N787 0.985 . S
H794 N791 0.984 . S
H795 N791 0.985 . S
H796 N790 0.984 . S
H797 N790 0.984 . S
H798 N786 0.984 . S
H799 N786 0.985 . S
C225 C25 1.494 . S
C227 C11 1.494 . S
C243 C39 1.494 . S
C245 C53 1.494 . S
C261 C67 1.494 . S
C263 C81 1.494 . S
C279 C109 1.494 . S
C281 C95 1.494 . S
C297 C137 1.494 . S
C299 C123 1.494 . S
C315 C165 1.494 . S
C317 C151 1.494 . S
C333 C193 1.494 . S
C335 C179 1.494 . S
C351 C221 1.494 . S
C353 C207 1.494 . S
C369 C49 1.320 . S
C371 C7 1.320 . S
C387 C21 1.320 . S
C389 C35 1.320 . S
C405 C105 1.320 . S
C407 C63 1.320 . S
C423 C91 1.320 . S
C425 C77 1.320 . S
C441 C119 1.320 . S
C443 C161 1.320 . S
C459 C147 1.320 . S
C461 C133 1.320 . S
C477 C217 1.320 . S
C479 C175 1.320 . S
C495 C189 1.320 . S
C497 C203 1.320 . S
C513 C8 1.460 . S
C515 C134 1.460 . S
C531 C22 1.460 . S
C533 C120 1.460 . S
C549 C162 1.460 . S
C551 C36 1.460 . S
C567 C148 1.460 . S
C569 C50 1.460 . S
C585 C190 1.460 . S
C587 C64 1.460 . S
C603 C176 1.460 . S
C605 C78 1.460 . S
C621 C92 1.460 . S
C623 C218 1.460 . S
C639 C106 1.460 . S
C641 C204 1.460 . S
C657 C69 1.288 . S
C659 C13 1.288 . S
C675 C83 1.288 . S
C677 C27 1.288 . S
C693 C97 1.288 . S
C695 C41 1.288 . S
C711 C111 1.288 . S
C713 C55 1.288 . S
C729 C125 1.288 . S
C731 C181 1.288 . S
C747 C139 1.288 . S
C749 C195 1.288 . S
C765 C209 1.288 . S
C767 C153 1.288 . S
C783 C223 1.288 . S
C785 C167 1.288 . S
