# Generated by pormake.
# Topology pem, (4)-cn, num edge types: 1
# Building blocks:
#     Node 0, Type 0, BuildingBlock: TATPOV_clean_sbu_0, # of connection points: 4
#     Node 1, Type 0, BuildingBlock: TATPOV_clean_sbu_0, # of connection points: 4
#     Node 2, Type 0, BuildingBlock: TATPOV_clean_sbu_0, # of connection points: 4
#     Node 3, Type 0, BuildingBlock: TATPOV_clean_sbu_0, # of connection points: 4
#     Node 4, Type 0, BuildingBlock: TATPOV_clean_sbu_0, # of connection points: 4
#     Node 5, Type 0, BuildingBlock: TATPOV_clean_sbu_0, # of connection points: 4
#     Node 6, Type 0, BuildingBlock: TATPOV_clean_sbu_0, # of connection points: 4
#     Node 7, Type 0, BuildingBlock: TATPOV_clean_sbu_0, # of connection points: 4
#     Node 8, Type 0, BuildingBlock: TATPOV_clean_sbu_0, # of connection points: 4
#     Node 9, Type 0, BuildingBlock: TATPOV_clean_sbu_0, # of connection points: 4
#     Node 10, Type 0, BuildingBlock: TATPOV_clean_sbu_0, # of connection points: 4
#     Node 11, Type 0, BuildingBlock: TATPOV_clean_sbu_0, # of connection points: 4
#     Node 12, Type 0, BuildingBlock: TATPOV_clean_sbu_0, # of connection points: 4
#     Node 13, Type 0, BuildingBlock: TATPOV_clean_sbu_0, # of connection points: 4
#     Node 14, Type 0, BuildingBlock: TATPOV_clean_sbu_0, # of connection points: 4
#     Node 15, Type 0, BuildingBlock: TATPOV_clean_sbu_0, # of connection points: 4
#     Node 16, Type 0, BuildingBlock: TATPOV_clean_sbu_0, # of connection points: 4
#     Node 17, Type 0, BuildingBlock: TATPOV_clean_sbu_0, # of connection points: 4
#     Node 18, Type 0, BuildingBlock: TATPOV_clean_sbu_0, # of connection points: 4
#     Node 19, Type 0, BuildingBlock: TATPOV_clean_sbu_0, # of connection points: 4
#     Node 20, Type 0, BuildingBlock: TATPOV_clean_sbu_0, # of connection points: 4
#     Node 21, Type 0, BuildingBlock: TATPOV_clean_sbu_0, # of connection points: 4
#     Node 22, Type 0, BuildingBlock: TATPOV_clean_sbu_0, # of connection points: 4
#     Node 23, Type 0, BuildingBlock: TATPOV_clean_sbu_0, # of connection points: 4
#     Node 24, Type 0, BuildingBlock: TATPOV_clean_sbu_0, # of connection points: 4
#     Node 25, Type 0, BuildingBlock: TATPOV_clean_sbu_0, # of connection points: 4
#     Node 26, Type 0, BuildingBlock: TATPOV_clean_sbu_0, # of connection points: 4
#     Node 27, Type 0, BuildingBlock: TATPOV_clean_sbu_0, # of connection points: 4
#     Node 28, Type 0, BuildingBlock: TATPOV_clean_sbu_0, # of connection points: 4
#     Node 29, Type 0, BuildingBlock: TATPOV_clean_sbu_0, # of connection points: 4
#     Node 30, Type 0, BuildingBlock: TATPOV_clean_sbu_0, # of connection points: 4
#     Node 31, Type 0, BuildingBlock: TATPOV_clean_sbu_0, # of connection points: 4
#     Edge 32, Type (0, 0), BuildingBlock: CIFDUS_clean_linker_0, # of connection points: 2
#     Edge 33, Type (0, 0), BuildingBlock: CIFDUS_clean_linker_0, # of connection points: 2
#     Edge 34, Type (0, 0), BuildingBlock: CIFDUS_clean_linker_0, # of connection points: 2
#     Edge 35, Type (0, 0), BuildingBlock: CIFDUS_clean_linker_0, # of connection points: 2
#     Edge 36, Type (0, 0), BuildingBlock: CIFDUS_clean_linker_0, # of connection points: 2
#     Edge 37, Type (0, 0), BuildingBlock: CIFDUS_clean_linker_0, # of connection points: 2
#     Edge 38, Type (0, 0), BuildingBlock: CIFDUS_clean_linker_0, # of connection points: 2
#     Edge 39, Type (0, 0), BuildingBlock: CIFDUS_clean_linker_0, # of connection points: 2
#     Edge 40, Type (0, 0), BuildingBlock: CIFDUS_clean_linker_0, # of connection points: 2
#     Edge 41, Type (0, 0), BuildingBlock: CIFDUS_clean_linker_0, # of connection points: 2
#     Edge 42, Type (0, 0), BuildingBlock: CIFDUS_clean_linker_0, # of connection points: 2
#     Edge 43, Type (0, 0), BuildingBlock: CIFDUS_clean_linker_0, # of connection points: 2
#     Edge 44, Type (0, 0), BuildingBlock: CIFDUS_clean_linker_0, # of connection points: 2
#     Edge 45, Type (0, 0), BuildingBlock: CIFDUS_clean_linker_0, # of connection points: 2
#     Edge 46, Type (0, 0), BuildingBlock: CIFDUS_clean_linker_0, # of connection points: 2
#     Edge 47, Type (0, 0), BuildingBlock: CIFDUS_clean_linker_0, # of connection points: 2
#     Edge 48, Type (0, 0), BuildingBlock: CIFDUS_clean_linker_0, # of connection points: 2
#     Edge 49, Type (0, 0), BuildingBlock: CIFDUS_clean_linker_0, # of connection points: 2
#     Edge 50, Type (0, 0), BuildingBlock: CIFDUS_clean_linker_0, # of connection points: 2
#     Edge 51, Type (0, 0), BuildingBlock: CIFDUS_clean_linker_0, # of connection points: 2
#     Edge 52, Type (0, 0), BuildingBlock: CIFDUS_clean_linker_0, # of connection points: 2
#     Edge 53, Type (0, 0), BuildingBlock: CIFDUS_clean_linker_0, # of connection points: 2
#     Edge 54, Type (0, 0), BuildingBlock: CIFDUS_clean_linker_0, # of connection points: 2
#     Edge 55, Type (0, 0), BuildingBlock: CIFDUS_clean_linker_0, # of connection points: 2
#     Edge 56, Type (0, 0), BuildingBlock: CIFDUS_clean_linker_0, # of connection points: 2
#     Edge 57, Type (0, 0), BuildingBlock: CIFDUS_clean_linker_0, # of connection points: 2
#     Edge 58, Type (0, 0), BuildingBlock: CIFDUS_clean_linker_0, # of connection points: 2
#     Edge 59, Type (0, 0), BuildingBlock: CIFDUS_clean_linker_0, # of connection points: 2
#     Edge 60, Type (0, 0), BuildingBlock: CIFDUS_clean_linker_0, # of connection points: 2
#     Edge 61, Type (0, 0), BuildingBlock: CIFDUS_clean_linker_0, # of connection points: 2
#     Edge 62, Type (0, 0), BuildingBlock: CIFDUS_clean_linker_0, # of connection points: 2
#     Edge 63, Type (0, 0), BuildingBlock: CIFDUS_clean_linker_0, # of connection points: 2
#     Edge 64, Type (0, 0), BuildingBlock: CIFDUS_clean_linker_0, # of connection points: 2
#     Edge 65, Type (0, 0), BuildingBlock: CIFDUS_clean_linker_0, # of connection points: 2
#     Edge 66, Type (0, 0), BuildingBlock: CIFDUS_clean_linker_0, # of connection points: 2
#     Edge 67, Type (0, 0), BuildingBlock: CIFDUS_clean_linker_0, # of connection points: 2
#     Edge 68, Type (0, 0), BuildingBlock: CIFDUS_clean_linker_0, # of connection points: 2
#     Edge 69, Type (0, 0), BuildingBlock: CIFDUS_clean_linker_0, # of connection points: 2
#     Edge 70, Type (0, 0), BuildingBlock: CIFDUS_clean_linker_0, # of connection points: 2
#     Edge 71, Type (0, 0), BuildingBlock: CIFDUS_clean_linker_0, # of connection points: 2
#     Edge 72, Type (0, 0), BuildingBlock: CIFDUS_clean_linker_0, # of connection points: 2
#     Edge 73, Type (0, 0), BuildingBlock: CIFDUS_clean_linker_0, # of connection points: 2
#     Edge 74, Type (0, 0), BuildingBlock: CIFDUS_clean_linker_0, # of connection points: 2
#     Edge 75, Type (0, 0), BuildingBlock: CIFDUS_clean_linker_0, # of connection points: 2
#     Edge 76, Type (0, 0), BuildingBlock: CIFDUS_clean_linker_0, # of connection points: 2
#     Edge 77, Type (0, 0), BuildingBlock: CIFDUS_clean_linker_0, # of connection points: 2
#     Edge 78, Type (0, 0), BuildingBlock: CIFDUS_clean_linker_0, # of connection points: 2
#     Edge 79, Type (0, 0), BuildingBlock: CIFDUS_clean_linker_0, # of connection points: 2
#     Edge 80, Type (0, 0), BuildingBlock: CIFDUS_clean_linker_0, # of connection points: 2
#     Edge 81, Type (0, 0), BuildingBlock: CIFDUS_clean_linker_0, # of connection points: 2
#     Edge 82, Type (0, 0), BuildingBlock: CIFDUS_clean_linker_0, # of connection points: 2
#     Edge 83, Type (0, 0), BuildingBlock: CIFDUS_clean_linker_0, # of connection points: 2
#     Edge 84, Type (0, 0), BuildingBlock: CIFDUS_clean_linker_0, # of connection points: 2
#     Edge 85, Type (0, 0), BuildingBlock: CIFDUS_clean_linker_0, # of connection points: 2
#     Edge 86, Type (0, 0), BuildingBlock: CIFDUS_clean_linker_0, # of connection points: 2
#     Edge 87, Type (0, 0), BuildingBlock: CIFDUS_clean_linker_0, # of connection points: 2
#     Edge 88, Type (0, 0), BuildingBlock: CIFDUS_clean_linker_0, # of connection points: 2
#     Edge 89, Type (0, 0), BuildingBlock: CIFDUS_clean_linker_0, # of connection points: 2
#     Edge 90, Type (0, 0), BuildingBlock: CIFDUS_clean_linker_0, # of connection points: 2
#     Edge 91, Type (0, 0), BuildingBlock: CIFDUS_clean_linker_0, # of connection points: 2
#     Edge 92, Type (0, 0), BuildingBlock: CIFDUS_clean_linker_0, # of connection points: 2
#     Edge 93, Type (0, 0), BuildingBlock: CIFDUS_clean_linker_0, # of connection points: 2
#     Edge 94, Type (0, 0), BuildingBlock: CIFDUS_clean_linker_0, # of connection points: 2
#     Edge 95, Type (0, 0), BuildingBlock: CIFDUS_clean_linker_0, # of connection points: 2
# Relax obj value: 0.091
# Max RMSD: 0.079
# Mean RMSD: 0.071
data_MOF--net-pem--node1-TATPOV_clean_sbu_0--edge1-CIFDUS_clean_linker_0
_symmetry_space_group_name_H-M    P1
_symmetry_Int_Tables_number       1
_symmetry_cell_setting            triclinic
loop_
_symmetry_equiv_pos_as_xyz
'x, y, z'
_cell_length_a     36.989714
_cell_length_b     37.665259
_cell_length_c     37.814692
_cell_angle_alpha  90.82625
_cell_angle_beta   90.470966
_cell_angle_gamma 90.807042
loop_
_atom_site_label
_atom_site_type_symbol
_atom_site_fract_x
_atom_site_fract_y
_atom_site_fract_z
_atom_type_partial_charge
Zn0 Zn 0.08937 0.10799 0.15854 0.0
Zn1 Zn 0.12421 0.09863 0.10231 0.0
O2 O 0.09608 0.14777 0.10037 0.0
O3 O 0.04843 0.12861 0.1287 0.0
O4 O 0.15157 0.09708 0.05527 0.0
O5 O 0.10737 0.05904 0.16838 0.0
O6 O 0.15692 0.07558 0.14175 0.0
C7 C 0.06239 0.1504 0.10732 0.0
C8 C 0.05468 0.06116 0.10861 0.0
O9 O 0.08613 0.06169 0.09539 0.0
O10 O 0.04609 0.08425 0.13194 0.0
C11 C 0.13402 0.10679 0.02796 0.0
O12 O 0.10014 0.11606 0.03166 0.0
C13 C 0.14035 0.05428 0.16233 0.0
Zn14 Zn 0.2094 0.87813 0.36182 0.0
Zn15 Zn 0.15809 0.8422 0.34495 0.0
O16 O 0.18475 0.82877 0.39369 0.0
O17 O 0.20987 0.87756 0.41418 0.0
O18 O 0.11049 0.81174 0.34064 0.0
O19 O 0.20495 0.92234 0.33731 0.0
O20 O 0.15832 0.89196 0.31571 0.0
C21 C 0.20249 0.84516 0.41829 0.0
C22 C 0.22202 0.81583 0.3162 0.0
O23 O 0.18793 0.81417 0.31358 0.0
O24 O 0.23721 0.83934 0.33581 0.0
C25 C 0.10804 0.78245 0.35739 0.0
O26 O 0.13409 0.77425 0.37946 0.0
C27 C 0.17933 0.91962 0.31526 0.0
Zn28 Zn 0.48191 0.93154 0.58909 0.0
Zn29 Zn 0.42161 0.89803 0.57344 0.0
O30 O 0.45728 0.86255 0.59831 0.0
O31 O 0.50242 0.89484 0.62038 0.0
O32 O 0.37444 0.8712 0.56049 0.0
O33 O 0.45693 0.97454 0.60779 0.0
O34 O 0.40564 0.94513 0.60006 0.0
C35 C 0.48703 0.86496 0.61589 0.0
C36 C 0.47204 0.91559 0.51524 0.0
O37 O 0.44023 0.90684 0.52413 0.0
O38 O 0.49509 0.92615 0.53805 0.0
C39 C 0.37184 0.84629 0.5373 0.0
O40 O 0.40119 0.83567 0.52119 0.0
C41 C 0.42289 0.97314 0.61057 0.0
Zn42 Zn 0.25134 0.13226 0.77548 0.0
Zn43 Zn 0.31667 0.13876 0.80655 0.0
O44 O 0.2846 0.11846 0.84774 0.0
O45 O 0.23053 0.1168 0.82261 0.0
O46 O 0.36691 0.15168 0.82467 0.0
O47 O 0.26987 0.09914 0.73736 0.0
O48 O 0.32426 0.11041 0.75914 0.0
C49 C 0.2504 0.11306 0.84973 0.0
C50 C 0.27821 0.20329 0.78139 0.0
O51 O 0.3031 0.18895 0.79879 0.0
O52 O 0.2532 0.18484 0.76697 0.0
C53 C 0.36846 0.17308 0.85102 0.0
O54 O 0.33873 0.17927 0.86874 0.0
C55 C 0.30385 0.09645 0.73507 0.0
Zn56 Zn 0.03286 0.90601 0.33867 0.0
Zn57 Zn 0.08051 0.90363 0.3852 0.0
O58 O 0.05409 0.85245 0.38114 0.0
O59 O 0.01955 0.85637 0.33378 0.0
O60 O 0.12345 0.90332 0.42217 0.0
O61 O 0.0572 0.9296 0.30051 0.0
O62 O 0.09547 0.93942 0.3444 0.0
C63 C 0.03018 0.83882 0.3599 0.0
C64 C 0.01202 0.9406 0.40104 0.0
O65 O 0.04294 0.93002 0.41077 0.0
O66 O 0.00059 0.93538 0.36981 0.0
C67 C 0.11606 0.90082 0.45504 0.0
O68 O 0.08208 0.89581 0.46379 0.0
C69 C 0.08386 0.94669 0.31331 0.0
Zn70 Zn 0.38427 0.87049 0.68604 0.0
Zn71 Zn 0.3436 0.88868 0.63443 0.0
O72 O 0.36296 0.93172 0.66607 0.0
O73 O 0.40939 0.91571 0.69858 0.0
O74 O 0.31491 0.90752 0.59057 0.0
O75 O 0.41014 0.83059 0.6638 0.0
O76 O 0.37074 0.84009 0.62127 0.0
C77 C 0.38796 0.93943 0.6887 0.0
C78 C 0.30584 0.8613 0.69511 0.0
O79 O 0.30376 0.87123 0.66338 0.0
O80 O 0.33634 0.85942 0.71057 0.0
C81 C 0.2823 0.9178 0.59439 0.0
O82 O 0.26975 0.92171 0.62658 0.0
C83 C 0.3959 0.82129 0.63465 0.0
Zn84 Zn 0.3368 0.04763 0.91801 0.0
Zn85 Zn 0.38522 0.09996 0.91123 0.0
O86 O 0.36885 0.08786 0.8595 0.0
O87 O 0.32241 0.05167 0.86756 0.0
O88 O 0.42593 0.13811 0.91174 0.0
O89 O 0.31277 0.07042 0.95939 0.0
O90 O 0.3494 0.11626 0.95217 0.0
C91 C 0.34381 0.06744 0.84697 0.0
C92 C 0.40715 0.02377 0.92341 0.0
O93 O 0.41389 0.05685 0.92154 0.0
O94 O 0.37509 0.01192 0.9245 0.0
C95 C 0.45472 0.13669 0.89336 0.0
O96 O 0.45822 0.11079 0.87006 0.0
C97 C 0.32306 0.10136 0.96834 0.0
Zn98 Zn 0.13462 0.21549 0.24118 0.0
Zn99 Zn 0.13903 0.18202 0.17469 0.0
O100 O 0.13369 0.14112 0.21051 0.0
O101 O 0.13961 0.16725 0.26312 0.0
O102 O 0.15978 0.16387 0.12731 0.0
O103 O 0.08649 0.23176 0.22316 0.0
O104 O 0.09337 0.21268 0.16796 0.0
C105 C 0.13609 0.13936 0.24425 0.0
C106 C 0.19369 0.23767 0.20371 0.0
O107 O 0.18072 0.21346 0.18393 0.0
O108 O 0.17826 0.24658 0.23207 0.0
C109 C 0.19227 0.15269 0.12741 0.0
O110 O 0.20843 0.14787 0.15801 0.0
C111 C 0.07562 0.22996 0.19131 0.0
Zn112 Zn 0.51828 0.3827 0.85411 0.0
Zn113 Zn 0.56702 0.37173 0.89746 0.0
O114 O 0.54268 0.32543 0.87485 0.0
O115 O 0.52026 0.33951 0.82314 0.0
O116 O 0.60573 0.35501 0.93305 0.0
O117 O 0.53894 0.42857 0.84024 0.0
O118 O 0.58867 0.41611 0.86947 0.0
C119 C 0.52718 0.31616 0.8457 0.0
C120 C 0.49478 0.39256 0.92355 0.0
O121 O 0.52871 0.3912 0.92886 0.0
O122 O 0.48169 0.3853 0.89322 0.0
C123 C 0.61195 0.37167 0.96219 0.0
O124 O 0.59392 0.40075 0.96899 0.0
C125 C 0.5706 0.43722 0.85004 0.0
Zn126 Zn 0.89961 0.31938 0.16317 0.0
Zn127 Zn 0.84232 0.32432 0.126 0.0
O128 O 0.84987 0.37487 0.15084 0.0
O129 O 0.89776 0.36795 0.18456 0.0
O130 O 0.79654 0.32884 0.0949 0.0
O131 O 0.9314 0.30576 0.12318 0.0
O132 O 0.88006 0.29416 0.09616 0.0
C133 C 0.87177 0.3868 0.17476 0.0
C134 C 0.84305 0.27884 0.19065 0.0
O135 O 0.82606 0.29449 0.16615 0.0
O136 O 0.87707 0.28151 0.19337 0.0
C137 C 0.77047 0.34765 0.10607 0.0
O138 O 0.77363 0.36322 0.13727 0.0
C139 C 0.91443 0.29091 0.09797 0.0
Zn140 Zn 0.85768 0.52922 0.39852 0.0
Zn141 Zn 0.89252 0.58508 0.39106 0.0
O142 O 0.8842 0.55521 0.34238 0.0
O143 O 0.84068 0.51588 0.35075 0.0
O144 O 0.9249 0.62989 0.38226 0.0
O145 O 0.82372 0.54506 0.43423 0.0
O146 O 0.8544 0.59541 0.43392 0.0
C147 C 0.86344 0.52997 0.33047 0.0
C148 C 0.93106 0.52523 0.42162 0.0
O149 O 0.93059 0.55786 0.41427 0.0
O150 O 0.90323 0.50586 0.41639 0.0
C151 C 0.95023 0.63266 0.35951 0.0
O152 O 0.95446 0.60712 0.33599 0.0
C153 C 0.83014 0.57527 0.44788 0.0
Zn154 Zn 0.77016 0.65922 0.35043 0.0
Zn155 Zn 0.83099 0.66975 0.38343 0.0
O156 O 0.78872 0.6628 0.4197 0.0
O157 O 0.74017 0.64338 0.39103 0.0
O158 O 0.87458 0.67939 0.41537 0.0
O159 O 0.79126 0.6255 0.31536 0.0
O160 O 0.84326 0.63244 0.34384 0.0
C161 C 0.756 0.65138 0.41979 0.0
C162 C 0.80305 0.72825 0.34057 0.0
O163 O 0.82943 0.71542 0.35728 0.0
O164 O 0.77354 0.71099 0.33721 0.0
C165 C 0.90183 0.68524 0.43556 0.0
O166 O 0.90486 0.667 0.46475 0.0
C167 C 0.82475 0.61955 0.31772 0.0
Zn168 Zn 0.70629 0.38835 0.84755 0.0
Zn169 Zn 0.65407 0.3463 0.85937 0.0
O170 O 0.67545 0.36723 0.90705 0.0
O171 O 0.7026 0.41702 0.89238 0.0
O172 O 0.61352 0.30942 0.86813 0.0
O173 O 0.68596 0.4035 0.8013 0.0
O174 O 0.63503 0.37806 0.81735 0.0
C175 C 0.69263 0.39574 0.91601 0.0
C176 C 0.7265 0.31813 0.84061 0.0
O177 O 0.69236 0.31448 0.84153 0.0
O178 O 0.74128 0.3482 0.84604 0.0
C179 C 0.6167 0.28064 0.88526 0.0
O180 O 0.64765 0.27351 0.9006 0.0
C181 C 0.653 0.39643 0.7951 0.0
Zn182 Zn 0.8961 0.97764 0.92032 0.0
Zn183 Zn 0.92647 0.93486 0.8892 0.0
O184 O 0.8799 0.91118 0.91139 0.0
O185 O 0.87242 0.94817 0.95636 0.0
O186 O 0.95735 0.89393 0.86741 0.0
O187 O 0.86802 0.99466 0.88077 0.0
O188 O 0.91525 0.97554 0.85199 0.0
C189 C 0.86498 0.91913 0.94095 0.0
C190 C 0.96017 0.98362 0.94397 0.0
O191 O 0.95787 0.95256 0.93063 0.0
O192 O 0.93781 0.0068 0.93496 0.0
C193 C 0.99009 0.88866 0.87715 0.0
O194 O 0.00623 0.91254 0.89764 0.0
C195 C 0.88768 0.99576 0.85372 0.0
Zn196 Zn 0.77933 0.13205 0.65749 0.0
Zn197 Zn 0.83009 0.17012 0.63257 0.0
O198 O 0.85657 0.13754 0.66932 0.0
O199 O 0.8109 0.10578 0.68907 0.0
O200 O 0.87227 0.2017 0.61529 0.0
O201 O 0.75974 0.1116 0.61376 0.0
O202 O 0.79719 0.15064 0.59012 0.0
C203 C 0.84385 0.11485 0.69084 0.0
C204 C 0.77286 0.20219 0.67909 0.0
O205 O 0.80139 0.20487 0.66099 0.0
O206 O 0.75551 0.17311 0.68015 0.0
C207 C 0.88472 0.22223 0.63982 0.0
O208 O 0.86898 0.22169 0.67077 0.0
C209 C 0.77126 0.12778 0.58709 0.0
Zn210 Zn 0.64359 0.01043 0.36102 0.0
Zn211 Zn 0.60739 0.06536 0.35866 0.0
O212 O 0.643 0.07497 0.40203 0.0
O213 O 0.66315 0.02086 0.4085 0.0
O214 O 0.5755 0.10948 0.3534 0.0
O215 O 0.67503 0.01935 0.31962 0.0
O216 O 0.62788 0.05205 0.30853 0.0
C217 C 0.66125 0.05251 0.41967 0.0
C218 C 0.57004 0.99424 0.36452 0.0
O219 O 0.56998 0.02765 0.36972 0.0
O220 O 0.59912 0.97899 0.3563 0.0
C221 C 0.545 0.11324 0.36864 0.0
O222 O 0.53362 0.08864 0.39033 0.0
C223 C 0.65551 0.03513 0.29756 0.0
Zn224 Zn 0.64236 0.82247 0.17843 0.0
Zn225 Zn 0.6791 0.82212 0.13114 0.0
O226 O 0.63616 0.78392 0.12136 0.0
O227 O 0.62202 0.77427 0.17661 0.0
O228 O 0.71191 0.82036 0.08768 0.0
O229 O 0.61235 0.86186 0.16432 0.0
O230 O 0.66474 0.87539 0.14202 0.0
C231 C 0.61869 0.76593 0.1443 0.0
C232 C 0.71142 0.82594 0.20265 0.0
O233 O 0.71484 0.81188 0.17199 0.0
O234 O 0.68084 0.83663 0.21212 0.0
C235 C 0.74045 0.80159 0.08643 0.0
O236 O 0.74898 0.78184 0.11349 0.0
C237 C 0.63497 0.88537 0.15561 0.0
Zn238 Zn 0.95167 0.05008 0.64753 0.0
Zn239 Zn 0.89919 0.08 0.60866 0.0
O240 O 0.86977 0.04665 0.64381 0.0
O241 O 0.91405 0.02742 0.67777 0.0
O242 O 0.86478 0.10564 0.57383 0.0
O243 O 0.97897 0.09599 0.65637 0.0
O244 O 0.93547 0.12076 0.62571 0.0
C245 C 0.88081 0.02764 0.66955 0.0
C246 C 0.94824 0.02361 0.57809 0.0
O247 O 0.92379 0.04667 0.57543 0.0
O248 O 0.96532 0.01961 0.60679 0.0
C249 C 0.85595 0.09289 0.54333 0.0
O250 O 0.86541 0.0604 0.53492 0.0
C251 C 0.96578 0.12328 0.64238 0.0
Zn252 Zn 0.61776 0.22135 0.31272 0.0
Zn253 Zn 0.6515 0.18113 0.35916 0.0
O254 O 0.61109 0.2037 0.39215 0.0
O255 O 0.58804 0.23878 0.35205 0.0
O256 O 0.6875 0.15426 0.3904 0.0
O257 O 0.60673 0.17923 0.28077 0.0
O258 O 0.63422 0.14486 0.31913 0.0
C259 C 0.58892 0.22792 0.38339 0.0
C260 C 0.68734 0.24366 0.31843 0.0
O261 O 0.68733 0.2174 0.33918 0.0
O262 O 0.65889 0.25222 0.30229 0.0
C263 C 0.71214 0.17147 0.40762 0.0
O264 O 0.71128 0.20632 0.4084 0.0
C265 C 0.61729 0.14887 0.28979 0.0
Zn266 Zn 0.62564 0.98196 0.0597 0.0
Zn267 Zn 0.59127 0.93429 0.09765 0.0
O268 O 0.63383 0.91104 0.06949 0.0
O269 O 0.66978 0.95413 0.05144 0.0
O270 O 0.56367 0.89328 0.12218 0.0
O271 O 0.62423 0.01932 0.09736 0.0
O272 O 0.59957 0.97924 0.13192 0.0
C273 C 0.66239 0.92138 0.05344 0.0
C274 C 0.55788 0.95632 0.03135 0.0
O275 O 0.55407 0.94388 0.06194 0.0
O276 O 0.58622 0.97354 0.02342 0.0
C277 C 0.54878 0.86916 0.10266 0.0
O278 O 0.55262 0.87098 0.06822 0.0
C279 C 0.61218 0.01071 0.12726 0.0
Zn280 Zn 0.90201 0.83207 0.8346 0.0
Zn281 Zn 0.83962 0.81695 0.85591 0.0
O282 O 0.87879 0.79864 0.89149 0.0
O283 O 0.92446 0.83422 0.88366 0.0
O284 O 0.79159 0.81114 0.88191 0.0
O285 O 0.89016 0.87506 0.80763 0.0
O286 O 0.83578 0.86682 0.82937 0.0
C287 C 0.91062 0.80889 0.90025 0.0
C288 C 0.86999 0.76922 0.80249 0.0
O289 O 0.8419 0.77979 0.81857 0.0
O290 O 0.90001 0.7855 0.80598 0.0
C291 C 0.78573 0.79069 0.90792 0.0
O292 O 0.80666 0.76316 0.9118 0.0
C293 C 0.85767 0.88451 0.81 0.0
Zn294 Zn 0.41606 0.57833 0.12132 0.0
Zn295 Zn 0.38415 0.59369 0.06999 0.0
O296 O 0.35485 0.55806 0.10347 0.0
O297 O 0.37914 0.56576 0.15573 0.0
O298 O 0.34806 0.61256 0.03307 0.0
O299 O 0.44881 0.61726 0.13134 0.0
O300 O 0.4243 0.63491 0.08177 0.0
C301 C 0.35564 0.5506 0.1364 0.0
C302 C 0.43107 0.53463 0.05992 0.0
O303 O 0.41191 0.5571 0.04377 0.0
O304 O 0.43636 0.53748 0.09296 0.0
C305 C 0.33069 0.58985 0.01392 0.0
O306 O 0.3359 0.55596 0.01958 0.0
C307 C 0.44819 0.63906 0.10642 0.0
Zn308 Zn 0.10424 0.67925 0.75567 0.0
Zn309 Zn 0.14365 0.66284 0.8114 0.0
O310 O 0.09802 0.69082 0.83066 0.0
O311 O 0.06176 0.69332 0.78434 0.0
O312 O 0.17731 0.65023 0.85308 0.0
O313 O 0.10694 0.63209 0.73076 0.0
O314 O 0.14277 0.61868 0.77531 0.0
C315 C 0.06824 0.70075 0.81652 0.0
C316 C 0.16921 0.72138 0.7662 0.0
O317 O 0.17417 0.70014 0.79125 0.0
O318 O 0.14139 0.71844 0.74653 0.0
C319 C 0.19387 0.67381 0.87199 0.0
O320 O 0.1874 0.70745 0.86623 0.0
C321 C 0.12785 0.61045 0.74546 0.0
Zn322 Zn 0.16055 0.43254 0.54774 0.0
Zn323 Zn 0.1299 0.37749 0.56167 0.0
O324 O 0.17382 0.36218 0.52689 0.0
O325 O 0.19662 0.41493 0.5157 0.0
O326 O 0.1018 0.33288 0.57957 0.0
O327 O 0.17447 0.45595 0.59264 0.0
O328 O 0.13153 0.41703 0.60455 0.0
C329 C 0.19602 0.38193 0.50968 0.0
C330 C 0.0898 0.42702 0.51818 0.0
O331 O 0.09169 0.39562 0.52942 0.0
O332 O 0.11522 0.44907 0.52448 0.0
C333 C 0.0835 0.31343 0.55761 0.0
O334 O 0.08759 0.31916 0.52367 0.0
C335 C 0.15039 0.44489 0.61333 0.0
Zn336 Zn 0.07936 0.37337 0.75056 0.0
Zn337 Zn 0.12687 0.37465 0.6936 0.0
O338 O 0.0838 0.34304 0.67649 0.0
O339 O 0.04664 0.34055 0.72192 0.0
O340 O 0.16451 0.37553 0.6539 0.0
O341 O 0.07548 0.42638 0.74974 0.0
O342 O 0.12094 0.42567 0.71235 0.0
C343 C 0.05479 0.33162 0.69066 0.0
C344 C 0.15127 0.34845 0.76472 0.0
O345 O 0.15482 0.35257 0.73169 0.0
O346 O 0.12149 0.35472 0.77975 0.0
C347 C 0.17904 0.34786 0.64065 0.0
O348 O 0.1685 0.31646 0.65161 0.0
C349 C 0.10086 0.4424 0.73407 0.0
Zn350 Zn 0.35379 0.60596 0.21674 0.0
Zn351 Zn 0.40084 0.64766 0.19743 0.0
O352 O 0.42407 0.60559 0.22758 0.0
O353 O 0.38312 0.56312 0.22437 0.0
O354 O 0.43935 0.68316 0.18065 0.0
O355 O 0.31999 0.6115 0.17637 0.0
O356 O 0.36407 0.64303 0.15353 0.0
C357 C 0.41387 0.57376 0.23475 0.0
C358 C 0.35581 0.6678 0.25829 0.0
O359 O 0.37655 0.6776 0.23368 0.0
O360 O 0.34386 0.63624 0.25918 0.0
C361 C 0.45591 0.70453 0.20189 0.0
O362 O 0.45181 0.70062 0.2361 0.0
C363 C 0.33207 0.62962 0.1511 0.0
Zn364 Zn 0.50526 0.56761 0.63509 0.0
Zn365 Zn 0.56822 0.59292 0.61953 0.0
O366 O 0.53484 0.63756 0.62118 0.0
O367 O 0.48062 0.61459 0.62953 0.0
O368 O 0.61804 0.60908 0.60509 0.0
O369 O 0.51886 0.54704 0.68144 0.0
O370 O 0.57362 0.55609 0.66075 0.0
C371 C 0.50063 0.64137 0.62372 0.0
C372 C 0.53843 0.5383 0.57215 0.0
O373 O 0.56013 0.56428 0.57543 0.0
O374 O 0.5134 0.53354 0.59427 0.0
C375 C 0.61988 0.63132 0.5801 0.0
O376 O 0.59089 0.64904 0.57144 0.0
C377 C 0.55231 0.54053 0.68236 0.0
Zn378 Zn 0.95395 0.4693 0.12434 0.0
Zn379 Zn 0.89366 0.43547 0.10461 0.0
O380 O 0.92964 0.39594 0.12158 0.0
O381 O 0.97684 0.42588 0.14328 0.0
O382 O 0.84661 0.41349 0.08609 0.0
O383 O 0.92836 0.50417 0.15478 0.0
O384 O 0.87788 0.47616 0.13952 0.0
C385 C 0.96084 0.39667 0.13664 0.0
C386 C 0.93858 0.47029 0.0499 0.0
O387 O 0.90997 0.45363 0.05767 0.0
O388 O 0.96137 0.47976 0.07341 0.0
C389 C 0.84827 0.3906 0.0611 0.0
O390 O 0.87983 0.37723 0.05306 0.0
C391 C 0.89433 0.50135 0.15642 0.0
Zn392 Zn 0.64349 0.66666 0.7317 0.0
Zn393 Zn 0.66585 0.64695 0.67504 0.0
O394 O 0.65295 0.59926 0.70287 0.0
O395 O 0.61729 0.62313 0.74262 0.0
O396 O 0.69006 0.63748 0.62679 0.0
O397 O 0.6146 0.70746 0.71785 0.0
O398 O 0.62307 0.68361 0.66512 0.0
C399 C 0.6317 0.59594 0.72937 0.0
C400 C 0.71774 0.67038 0.73181 0.0
O401 O 0.71095 0.6671 0.69901 0.0
O402 O 0.6923 0.67018 0.75382 0.0
C403 C 0.71973 0.62069 0.6247 0.0
O404 O 0.73228 0.60489 0.6529 0.0
C405 C 0.60705 0.70609 0.68525 0.0
Zn406 Zn 0.3774 0.438 0.45493 0.0
Zn407 Zn 0.38429 0.37663 0.44001 0.0
O408 O 0.33996 0.37572 0.47609 0.0
O409 O 0.3435 0.43113 0.49468 0.0
O410 O 0.39553 0.32687 0.42315 0.0
O411 O 0.36301 0.46036 0.41049 0.0
O412 O 0.38962 0.41078 0.39502 0.0
C413 C 0.32961 0.40044 0.49726 0.0
C414 C 0.44802 0.41161 0.46784 0.0
O415 O 0.43117 0.38222 0.46705 0.0
O416 O 0.43117 0.43993 0.46209 0.0
C417 C 0.40441 0.30447 0.44655 0.0
O418 O 0.3936 0.30962 0.47918 0.0
C419 C 0.38015 0.44256 0.3877 0.0
Zn420 Zn 0.14876 0.57563 0.9441 0.0
Zn421 Zn 0.12202 0.6356 0.94356 0.0
O422 O 0.16467 0.64089 0.98258 0.0
O423 O 0.18147 0.58508 0.98422 0.0
O424 O 0.09615 0.6825 0.93523 0.0
O425 O 0.16577 0.56906 0.8957 0.0
O426 O 0.12639 0.61213 0.89284 0.0
C427 C 0.18395 0.61646 0.99629 0.0
C428 C 0.07367 0.57622 0.95975 0.0
O429 O 0.07967 0.60931 0.96334 0.0
O430 O 0.09896 0.55573 0.95105 0.0
C431 C 0.08543 0.7034 0.95966 0.0
O432 O 0.09622 0.69848 0.99236 0.0
C433 C 0.14409 0.58726 0.87776 0.0
Zn434 Zn 0.43069 0.33364 0.26277 0.0
Zn435 Zn 0.37788 0.32416 0.30426 0.0
O436 O 0.42282 0.29882 0.32449 0.0
O437 O 0.46966 0.32107 0.29702 0.0
O438 O 0.34009 0.3235 0.34369 0.0
O439 O 0.41642 0.38144 0.24605 0.0
O440 O 0.37047 0.37445 0.28191 0.0
C441 C 0.45677 0.29935 0.31902 0.0
C442 C 0.38088 0.28184 0.23713 0.0
O443 O 0.36323 0.29134 0.26451 0.0
O444 O 0.41183 0.29467 0.23075 0.0
C445 C 0.33091 0.29934 0.36531 0.0
O446 O 0.34618 0.26811 0.36323 0.0
C447 C 0.3864 0.39191 0.25774 0.0
H448 H 0.06613 0.00151 0.07165 0.0
H449 H 0.98234 0.07292 0.10511 0.0
H450 H 0.94351 0.05167 0.05661 0.0
H451 H 0.93938 0.02286 0.99886 0.0
H452 H 0.02484 0.95505 0.96221 0.0
H453 H 0.05822 0.96586 0.01774 0.0
C454 C 0.03894 0.01164 0.06877 0.0
C455 C 0.02728 0.03943 0.09071 0.0
C456 C 0.01807 0.0012 0.03967 0.0
C457 C 0.99182 0.05175 0.08799 0.0
C458 C 0.96996 0.0401 0.05999 0.0
C459 C 0.96547 0.01065 0.00294 0.0
C460 C 0.98077 0.98956 0.97632 0.0
C461 C 0.98394 0.01676 0.03453 0.0
C462 C 0.01348 0.97231 0.98227 0.0
C463 C 0.03218 0.97816 0.01396 0.0
H464 H 0.28546 0.67435 0.25898 0.0
H465 H 0.38473 0.72282 0.29726 0.0
H466 H 0.35131 0.77485 0.31845 0.0
H467 H 0.29419 0.80692 0.32251 0.0
H468 H 0.19672 0.75973 0.27719 0.0
H469 H 0.22969 0.70685 0.26069 0.0
C470 C 0.29953 0.69597 0.27285 0.0
C471 C 0.33691 0.69493 0.27776 0.0
C472 C 0.28079 0.7262 0.28236 0.0
C473 C 0.35559 0.72329 0.29424 0.0
C474 C 0.33666 0.75298 0.30575 0.0
C475 C 0.2803 0.78523 0.30865 0.0
C476 C 0.24316 0.78703 0.30122 0.0
C477 C 0.29935 0.75496 0.29916 0.0
C478 C 0.22538 0.75888 0.2832 0.0
C479 C 0.24404 0.72852 0.27407 0.0
H480 H 0.44639 0.95428 0.46193 0.0
H481 H 0.52334 0.87384 0.48796 0.0
H482 H 0.55557 0.88427 0.43288 0.0
H483 H 0.57072 0.92717 0.38785 0.0
H484 H 0.49975 0.01471 0.36817 0.0
H485 H 0.45539 0.99001 0.40882 0.0
C486 C 0.4693 0.93818 0.45455 0.0
C487 C 0.48298 0.9137 0.47845 0.0
C488 C 0.48897 0.94606 0.42413 0.0
C489 C 0.51279 0.89296 0.46951 0.0
C490 C 0.53123 0.89906 0.43823 0.0
C491 C 0.54491 0.94004 0.39136 0.0
C492 C 0.5388 0.97314 0.3761 0.0
C493 C 0.52099 0.92722 0.41671 0.0
C494 C 0.50519 0.98948 0.38041 0.0
C495 C 0.48 0.97554 0.40385 0.0
H496 H 0.24289 0.23545 0.83254 0.0
H497 H 0.30196 0.25418 0.73683 0.0
H498 H 0.27392 0.31235 0.73117 0.0
H499 H 0.21994 0.34605 0.74292 0.0
H500 H 0.15151 0.31901 0.83075 0.0
H501 H 0.19661 0.27719 0.8516 0.0
C502 C 0.25054 0.25318 0.81139 0.0
C503 C 0.27352 0.24118 0.78473 0.0
C504 C 0.23204 0.28474 0.80683 0.0
C505 C 0.2839 0.26346 0.75729 0.0
C506 C 0.2677 0.29639 0.75402 0.0
C507 C 0.21523 0.33153 0.76707 0.0
C508 C 0.1818 0.33375 0.78423 0.0
C509 C 0.23957 0.30563 0.77692 0.0
C510 C 0.17664 0.31655 0.81647 0.0
C511 C 0.20229 0.29256 0.82823 0.0
H512 H 0.00518 0.917 0.46582 0.0
H513 H 0.96749 0.99764 0.39529 0.0
H514 H 0.93943 0.02911 0.4452 0.0
H515 H 0.93489 0.03759 0.50957 0.0
H516 H 0.97769 0.95835 0.57939 0.0
H517 H 0.99491 0.92196 0.52867 0.0
C518 C 0.99042 0.94131 0.46145 0.0
C519 C 0.98892 0.95588 0.42775 0.0
C520 C 0.97597 0.95946 0.48998 0.0
C521 C 0.969 0.98652 0.42151 0.0
C522 C 0.95335 0.00447 0.44992 0.0
C523 C 0.94761 0.01216 0.51356 0.0
C524 C 0.95598 0.00085 0.54781 0.0
C525 C 0.95814 0.9919 0.48441 0.0
C526 C 0.97203 0.96783 0.55303 0.0
C527 C 0.9816 0.94698 0.52419 0.0
H528 H 0.30277 0.82312 0.75467 0.0
H529 H 0.2362 0.86657 0.67196 0.0
H530 H 0.18574 0.82857 0.68929 0.0
H531 H 0.16447 0.77642 0.72124 0.0
H532 H 0.23282 0.73112 0.80163 0.0
H533 H 0.27876 0.77646 0.79168 0.0
C534 C 0.27696 0.82491 0.741 0.0
C535 C 0.27339 0.8467 0.71158 0.0
C536 C 0.2487 0.80208 0.75006 0.0
C537 C 0.2397 0.84931 0.69438 0.0
C538 C 0.21093 0.82748 0.70406 0.0
C539 C 0.18935 0.7766 0.73663 0.0
C540 C 0.19572 0.75001 0.7613 0.0
C541 C 0.21583 0.8025 0.73063 0.0
C542 C 0.22763 0.75097 0.78184 0.0
C543 C 0.25386 0.77696 0.77637 0.0
H544 H 0.40932 0.96426 0.96116 0.0
H545 H 0.4719 0.02993 0.8913 0.0
H546 H 0.52772 0.00388 0.91285 0.0
H547 H 0.55709 0.97876 0.96414 0.0
H548 H 0.49383 0.92095 0.04029 0.0
H549 H 0.44006 0.92664 0.00345 0.0
C550 C 0.43515 0.97172 0.94983 0.0
C551 C 0.43729 -0.0002 0.92625 0.0
C552 C 0.46698 0.95871 0.96423 0.0
C553 C 0.47034 0.00906 0.91069 0.0
C554 C 0.50211 0.9943 0.92301 0.0
C555 C 0.53168 0.96682 0.97229 0.0
C556 C 0.5286 0.95158 0.00563 0.0
C557 C 0.50071 0.97177 0.95204 0.0
C558 C 0.49621 0.93446 0.01529 0.0
C559 C 0.46552 0.93752 0.99423 0.0
H560 H 0.33961 0.31681 0.19435 0.0
H561 H 0.37464 0.21154 0.21899 0.0
H562 H 0.31626 0.18682 0.19898 0.0
H563 H 0.25156 0.19836 0.19597 0.0
H564 H 0.214 0.306 0.19195 0.0
H565 H 0.27618 0.32767 0.18367 0.0
C566 C 0.33474 0.28827 0.1935 0.0
C567 C 0.36022 0.26579 0.20846 0.0
C568 C 0.29979 0.27543 0.1878 0.0
C569 C 0.3548 0.229 0.20756 0.0
C570 C 0.32124 0.21515 0.19699 0.0
C571 C 0.25723 0.22646 0.19256 0.0
C572 C 0.22932 0.25097 0.19541 0.0
C573 C 0.29278 0.23854 0.1906 0.0
C574 C 0.23589 0.28721 0.19081 0.0
C575 C 0.27113 0.29935 0.18572 0.0
H576 H 0.40154 0.50274 0.00249 0.0
H577 H 0.49079 0.49706 0.07633 0.0
H578 H 0.51486 0.4463 0.04367 0.0
H579 H 0.51385 0.40866 0.99081 0.0
H580 H 0.42549 0.41553 0.91591 0.0
H581 H 0.39659 0.45974 0.9535 0.0
C582 C 0.42628 0.49034 0.01131 0.0
C583 C 0.44507 0.5039 0.04094 0.0
C584 C 0.43965 0.46118 0.99271 0.0
C585 C 0.47636 0.48717 0.05308 0.0
C586 C 0.48996 0.45815 0.03461 0.0
C587 C 0.48789 0.41927 0.98305 0.0
C588 C 0.47228 0.4097 0.95031 0.0
C589 C 0.47224 0.44555 0.00395 0.0
C590 C 0.43824 0.42288 0.9409 0.0
C591 C 0.42191 0.44845 0.96212 0.0
H592 H 0.79586 0.31868 0.22331 0.0
H593 H 0.84611 0.21628 0.22701 0.0
H594 H 0.806 0.19896 0.27572 0.0
H595 H 0.75039 0.21042 0.30927 0.0
H596 H 0.69889 0.31213 0.30127 0.0
H597 H 0.74707 0.33329 0.26298 0.0
C598 C 0.79803 0.29259 0.23497 0.0
C599 C 0.82242 0.26805 0.22124 0.0
C600 C 0.77522 0.28319 0.26232 0.0
C601 C 0.82654 0.23496 0.23701 0.0
C602 C 0.80385 0.22528 0.26476 0.0
C603 C 0.75064 0.23763 0.30021 0.0
C604 C 0.7213 0.25973 0.30739 0.0
C605 C 0.77725 0.24881 0.27669 0.0
C606 C 0.72136 0.29484 0.29563 0.0
C607 C 0.74856 0.30673 0.27352 0.0
H608 H 0.08215 0.48857 0.4845 0.0
H609 H 0.02587 0.39071 0.5086 0.0
H610 H 0.97145 0.41216 0.4792 0.0
H611 H 0.93957 0.45991 0.44916 0.0
H612 H 0.99669 0.55786 0.42666 0.0
H613 H 0.05143 0.53492 0.4532 0.0
C614 C 0.05804 0.47184 0.48326 0.0
C615 C 0.05778 0.43835 0.49878 0.0
C616 C 0.02711 0.48432 0.4668 0.0
C617 C 0.02655 0.41673 0.49674 0.0
C618 C 0.99548 0.42896 0.48008 0.0
C619 C 0.96407 0.47608 0.44991 0.0
C620 C 0.96413 0.51048 0.43629 0.0
C621 C 0.99541 0.46289 0.46539 0.0
C622 C 0.99596 0.53131 0.43731 0.0
C623 C 0.02728 0.51827 0.45239 0.0
H624 H 0.77833 0.79491 0.34491 0.0
H625 H 0.83981 0.72321 0.28031 0.0
H626 H 0.82296 0.75534 0.22725 0.0
H627 H 0.77513 0.79064 0.19986 0.0
H628 H 0.71333 0.86202 0.26522 0.0
H629 H 0.74712 0.84453 0.31728 0.0
C630 C 0.78974 0.78787 0.31944 0.0
C631 C 0.80947 0.75678 0.31592 0.0
C632 C 0.77914 0.80586 0.2891 0.0
C633 C 0.8244 0.74735 0.28316 0.0
C634 C 0.81434 0.76536 0.25279 0.0
C635 C 0.77008 0.80332 0.22526 0.0
C636 C 0.74046 0.8257 0.22931 0.0
C637 C 0.78921 0.79269 0.25531 0.0
C638 C 0.73499 0.8432 0.26193 0.0
C639 C 0.75429 0.83331 0.29176 0.0
H640 H 0.74444 0.19074 0.7426 0.0
H641 H 0.79123 0.27234 0.67747 0.0
H642 H 0.79062 0.31417 0.72758 0.0
H643 H 0.7722 0.32807 0.78789 0.0
H644 H 0.72171 0.24734 0.85119 0.0
H645 H 0.73113 0.20318 0.80429 0.0
C646 C 0.75385 0.21788 0.73915 0.0
C647 C 0.76672 0.22904 0.70633 0.0
C648 C 0.75436 0.24113 0.76803 0.0
C649 C 0.78023 0.26374 0.70245 0.0
C650 C 0.7805 0.28732 0.73112 0.0
C651 C 0.76475 0.30045 0.7919 0.0
C652 C 0.74631 0.29057 0.82246 0.0
C653 C 0.76747 0.27626 0.76392 0.0
C654 C 0.73621 0.25505 0.82765 0.0
C655 C 0.74079 0.23017 0.80063 0.0
H656 H 0.85232 0.70431 0.82207 0.0
H657 H 0.87606 0.76716 0.73097 0.0
H658 H 0.83261 0.73213 0.69546 0.0
H659 H 0.77453 0.69958 0.6977 0.0
H660 H 0.74426 0.64665 0.79368 0.0
H661 H 0.80286 0.6615 0.8202 0.0
C662 C 0.8493 0.70876 0.79388 0.0
C663 C 0.86595 0.73849 0.7791 0.0
C664 C 0.82156 0.69138 0.77518 0.0
C665 C 0.86289 0.74436 0.74271 0.0
C666 C 0.83741 0.72492 0.72273 0.0
C667 C 0.7813 0.69064 0.72405 0.0
C668 C 0.75503 0.67352 0.74445 0.0
C669 C 0.81424 0.70093 0.73975 0.0
C670 C 0.7639 0.66119 0.77822 0.0
C671 C 0.79742 0.66936 0.79322 0.0
H672 H 0.49917 0.45388 0.44133 0.0
H673 H 0.48013 0.37628 0.52174 0.0
H674 H 0.52199 0.40785 0.56167 0.0
H675 H 0.53975 0.4683 0.57983 0.0
H676 H 0.54902 0.55037 0.50215 0.0
H677 H 0.53557 0.50701 0.45482 0.0
C678 C 0.50591 0.44305 0.46698 0.0
C679 C 0.48545 0.41452 0.47988 0.0
C680 C 0.52691 0.46329 0.49067 0.0
C681 C 0.49495 0.39912 0.51206 0.0
C682 C 0.51834 0.41757 0.53506 0.0
C683 C 0.54004 0.47619 0.55233 0.0
C684 C 0.54327 0.51217 0.544 0.0
C685 C 0.53069 0.45159 0.52589 0.0
C686 C 0.54532 0.52265 0.50871 0.0
C687 C 0.53765 0.49792 0.48182 0.0
H688 H 0.05192 0.50815 0.94956 0.0
H689 H 0.01339 0.61188 0.97996 0.0
H690 H 0.95618 0.58559 0.99852 0.0
H691 H 0.92654 0.5328 0.0217 0.0
H692 H 0.97002 0.42957 -8e-05 0.0
H693 H 0.01472 0.45554 0.96036 0.0
C694 C 0.0308 0.52507 0.95976 0.0
C695 C 0.03735 0.56154 0.96521 0.0
C696 C 0.99866 0.50971 0.97143 0.0
C697 C 0.00936 0.58345 0.97695 0.0
C698 C 0.97659 0.5685 0.98728 0.0
C699 C 0.9445 0.51602 0.00647 0.0
C700 C 0.94601 0.47986 0.01377 0.0
C701 C 0.97206 0.53154 0.98686 0.0
C702 C 0.96885 0.45769 0.99437 0.0
C703 C 0.99487 0.47265 0.9725 0.0
H704 H 0.18873 0.0539 0.21677 0.0
H705 H 0.12421 0.98586 0.14832 0.0
H706 H 0.13027 0.93687 0.18953 0.0
H707 H 0.14722 0.91576 0.24908 0.0
H708 H 0.21059 0.98519 0.31786 0.0
H709 H 0.21216 0.0304 0.27276 0.0
C710 C 0.17768 0.0278 0.2101 0.0
C711 C 0.15683 0.02324 0.17916 0.0
C712 C 0.18016 3e-05 0.23465 0.0
C713 C 0.14123 0.98968 0.17157 0.0
C714 C 0.14413 0.96181 0.19547 0.0
C715 C 0.16118 0.94082 0.25421 0.0
C716 C 0.17777 0.9472 0.28737 0.0
C717 C 0.16219 0.96712 0.22787 0.0
C718 C 0.19688 0.97954 0.29295 0.0
C719 C 0.19811 0.00551 0.267 0.0
H720 H 0.35458 0.81594 0.47323 0.0
H721 H 0.30734 0.84536 0.57283 0.0
H722 H 0.24677 0.84179 0.54617 0.0
H723 H 0.20953 0.84342 0.49073 0.0
H724 H 0.25638 0.80523 0.39376 0.0
H725 H 0.31458 0.79843 0.42326 0.0
C726 C 0.33106 0.82105 0.48936 0.0
C727 C 0.33558 0.83409 0.52423 0.0
C728 C 0.29627 0.81786 0.47411 0.0
C729 C 0.30468 0.83871 0.54506 0.0
C730 C 0.27002 0.83612 0.52995 0.0
C731 C 0.23212 0.83229 0.47652 0.0
C732 C 0.22888 0.82571 0.43993 0.0
C733 C 0.26569 0.82801 0.49385 0.0
C734 C 0.25818 0.81064 0.42192 0.0
C735 C 0.29172 0.8072 0.43869 0.0
H736 H 0.37392 0.09614 0.71319 0.0
H737 H 0.26889 0.05017 0.68949 0.0
H738 H 0.29546 0.01105 0.64498 0.0
H739 H 0.34977 0.98481 0.61784 0.0
H740 H 0.45469 0.03035 0.64359 0.0
H741 H 0.42685 0.07496 0.68101 0.0
C742 C 0.35674 0.07793 0.69795 0.0
C743 C 0.31957 0.07574 0.70523 0.0
C744 C 0.37222 0.05528 0.67248 0.0
C745 C 0.29767 0.05229 0.68476 0.0
C746 C 0.31285 0.02983 0.65921 0.0
C747 C 0.36649 0.00475 0.63129 0.0
C748 C 0.40442 0.00333 0.62855 0.0
C749 C 0.3503 0.03029 0.65358 0.0
C750 C 0.42549 0.03012 0.64553 0.0
C751 C 0.4096 0.0558 0.66711 0.0
H752 H 0.1884 0.14157 0.87381 0.0
H753 H 0.27179 0.0691 0.90314 0.0
H754 H 0.24285 0.05958 0.96031 0.0
H755 H 0.19542 0.07456 0.00353 0.0
H756 H 0.1116 0.14685 0.97312 0.0
H757 H 0.13955 0.15444 0.91557 0.0
C758 C 0.20032 0.12368 0.89273 0.0
C759 C 0.23272 0.10638 0.88431 0.0
C760 C 0.18377 0.11888 0.92578 0.0
C761 C 0.2476 0.08334 0.90914 0.0
C762 C 0.23091 0.07783 0.94183 0.0
C763 C 0.18323 0.09183 0.98423 0.0
C764 C 0.15143 0.11011 0.9928 0.0
C765 C 0.19934 0.09597 0.95077 0.0
C766 C 0.13597 0.13233 0.96735 0.0
C767 C 0.152 0.13679 0.93434 0.0
H768 H 0.09276 0.08551 0.22415 0.0
H769 H 0.16752 0.11785 0.30625 0.0
H770 H 0.15834 0.06076 0.33577 0.0
H771 H 0.12871 0.00105 0.33731 0.0
H772 H 0.06248 0.96688 0.24807 0.0
H773 H 0.07017 0.02429 0.22116 0.0
C774 C 0.10863 0.07916 0.24726 0.0
C775 C 0.13203 0.10488 0.2619 0.0
C776 C 0.10461 0.04595 0.26288 0.0
C777 C 0.14972 0.09802 0.2941 0.0
C778 C 0.14451 0.06543 0.31093 0.0
C779 C 0.1166 0.00597 0.31167 0.0
C780 C 0.09501 0.97949 0.29493 0.0
C781 C 0.1221 0.03902 0.2954 0.0
C782 C 0.07925 0.98656 0.26176 0.0
C783 C 0.08346 0.01954 0.24626 0.0
H784 H 0.2111 0.90154 0.59538 0.0
H785 H 0.29503 0.93524 0.52454 0.0
H786 H 0.25098 0.93534 0.4753 0.0
H787 H 0.1874 0.92597 0.45269 0.0
H788 H 0.10763 0.8834 0.52379 0.0
H789 H 0.15062 0.88785 0.57249 0.0
C790 C 0.21982 0.90932 0.56926 0.0
C791 C 0.2563 0.919 0.56391 0.0
C792 C 0.1948 0.9078 0.54097 0.0
C793 C 0.26712 0.92801 0.52956 0.0
C794 C 0.24187 0.92803 0.5014 0.0
C795 C 0.17982 0.91654 0.47852 0.0
C796 C 0.14425 0.90341 0.48389 0.0
C797 C 0.20551 0.91778 0.50671 0.0
C798 C 0.1346 0.89333 0.51832 0.0
C799 C 0.15929 0.89582 0.54643 0.0
H800 H 0.4028 0.05974 0.80516 0.0
H801 H 0.28751 0.04111 0.80803 0.0
H802 H 0.29108 0.00203 0.75625 0.0
H803 H 0.32749 0.96797 0.71454 0.0
H804 H 0.44334 0.98103 0.71512 0.0
H805 H 0.43914 0.02791 0.76061 0.0
C806 C 0.37832 0.0482 0.7936 0.0
C807 C 0.34486 0.05371 0.81019 0.0
C808 C 0.38079 0.02436 0.76469 0.0
C809 C 0.31354 0.03749 0.79563 0.0
C810 C 0.31561 0.01478 0.76629 0.0
C811 C 0.35173 0.98174 0.72402 0.0
C812 C 0.3856 0.97182 0.71093 0.0
C813 C 0.34917 0.00729 0.75122 0.0
C814 C 0.41694 0.98882 0.72439 0.0
C815 C 0.41452 0.01543 0.7505 0.0
H816 H 0.26347 0.14329 0.97479 0.0
H817 H 0.34581 0.09074 0.03487 0.0
H818 H 0.31261 0.10181 0.08951 0.0
H819 H 0.25794 0.12197 0.11958 0.0
H820 H 0.17507 0.17513 0.06043 0.0
H821 H 0.21059 0.16858 0.00634 0.0
C822 C 0.2745 0.1352 3e-05 0.0
C823 C 0.30738 0.11676 0.00094 0.0
C824 C 0.25476 0.14112 0.03143 0.0
C825 C 0.32102 0.10569 0.03366 0.0
C826 C 0.30178 0.11161 0.06484 0.0
C827 C 0.2475 0.13212 0.09488 0.0
C828 C 0.21334 0.14831 0.09409 0.0
C829 C 0.26818 0.12846 0.06394 0.0
C830 C 0.20082 0.16187 0.06183 0.0
C831 C 0.22127 0.15832 0.03087 0.0
H832 H 0.98234 0.29109 0.07056 0.0
H833 H 0.88981 0.22331 0.08858 0.0
H834 H 0.92861 0.17144 0.08921 0.0
H835 H 0.98968 0.14794 0.09828 0.0
H836 H 0.08293 0.21514 0.08063 0.0
H837 H 0.0432 0.26425 0.06521 0.0
C838 C 0.97062 0.26477 0.07326 0.0
C839 C 0.93334 0.26119 0.08028 0.0
C840 C 0.9934 0.2351 0.07477 0.0
C841 C 0.9183 0.2269 0.08301 0.0
C842 C 0.94066 0.19724 0.08413 0.0
C843 C 0.00138 0.17328 0.09077 0.0
C844 C 0.03925 0.17829 0.09187 0.0
C845 C 0.9784 0.20144 0.0824 0.0
C846 C 0.05392 0.21078 0.0807 0.0
C847 C 0.03116 0.23892 0.07204 0.0
H848 H 0.48479 0.28922 0.89592 0.0
H849 H 0.52003 0.27047 0.78911 0.0
H850 H 0.47582 0.2215 0.78238 0.0
H851 H 0.42362 0.18762 0.80552 0.0
H852 H 0.38493 0.21157 0.91045 0.0
H853 H 0.43375 0.2551 0.91923 0.0
C854 C 0.48335 0.2738 0.87147 0.0
C855 C 0.50624 0.28261 0.84336 0.0
C856 C 0.45667 0.24718 0.86725 0.0
C857 C 0.50318 0.26349 0.81132 0.0
C858 C 0.4777 0.2358 0.80741 0.0
C859 C 0.42622 0.20197 0.8305 0.0
C860 C 0.40074 0.19615 0.85739 0.0
C861 C 0.45378 0.22787 0.83499 0.0
C862 C 0.40412 0.21551 0.88933 0.0
C863 C 0.43197 0.2405 0.89435 0.0
H864 H 0.97964 0.67681 0.3097 0.0
H865 H 0.98754 0.64897 0.41958 0.0
H866 H 0.03823 0.69074 0.42793 0.0
H867 H 0.07943 0.73652 0.40472 0.0
H868 H 0.06861 0.76916 0.29646 0.0
H869 H 0.02036 0.72451 0.28667 0.0
C870 C 0.99241 0.68012 0.33547 0.0
C871 C 0.97944 0.6601 0.36415 0.0
C872 C 0.02118 0.70506 0.34032 0.0
C873 C 0.9965 0.66444 0.39728 0.0
C874 C 0.02572 0.68816 0.40199 0.0
C875 C 0.06654 0.73389 0.37893 0.0
C876 C 0.07755 0.75645 0.35143 0.0
C877 C 0.03809 0.70888 0.37384 0.0
C878 C 0.06044 0.75256 0.31823 0.0
C879 C 0.03295 0.72683 0.31258 0.0
H880 H 0.9609 0.3501 0.19148 0.0
H881 H 0.01047 0.37235 0.09144 0.0
H882 H 0.04946 0.32085 0.09785 0.0
H883 H 0.0701 0.27004 0.13271 0.0
H884 H 0.01639 0.245 0.23007 0.0
H885 H 0.97613 0.29526 0.22257 0.0
C886 C 0.97911 0.34286 0.17045 0.0
C887 C 0.98191 0.3641 0.14039 0.0
C888 C 0.99994 0.31207 0.17334 0.0
C889 C 0.00734 0.35568 0.11437 0.0
C890 C 0.0295 0.32621 0.11796 0.0
C891 C 0.04855 0.2747 0.15141 0.0
C892 C 0.04578 0.25354 0.18153 0.0
C893 C 0.02578 0.30395 0.14713 0.0
C894 C 0.01873 0.26076 0.20643 0.0
C895 C 0.996 0.28972 0.20239 0.0
H896 H 0.6053 0.74604 0.62516 0.0
H897 H 0.54404 0.71923 0.7177 0.0
H898 H 0.49984 0.7646 0.70397 0.0
H899 H 0.48146 0.81609 0.66872 0.0
H900 H 0.54294 0.84382 0.57675 0.0
H901 H 0.58428 0.79488 0.58737 0.0
C902 C 0.58193 0.74982 0.64186 0.0
C903 C 0.57804 0.7295 0.67245 0.0
C904 C 0.55703 0.77684 0.6344 0.0
C905 C 0.54774 0.7348 0.69408 0.0
C906 C 0.52252 0.76087 0.6864 0.0
C907 C 0.50359 0.81098 0.65085 0.0
C908 C 0.50912 0.83322 0.62192 0.0
C909 C 0.52736 0.78277 0.65719 0.0
C910 C 0.53821 0.82677 0.59914 0.0
C911 C 0.56187 0.79885 0.60521 0.0
H912 H 0.91153 0.71836 0.37302 0.0
H913 H 0.95302 0.71554 0.47981 0.0
H914 H 0.99777 0.7617 0.46607 0.0
H915 H 0.02499 0.80365 0.42329 0.0
H916 H 0.98456 0.8025 0.31577 0.0
H917 H 0.94005 0.75734 0.33027 0.0
C918 C 0.93018 0.72797 0.39339 0.0
C919 C 0.92872 0.71359 0.4274 0.0
C920 C 0.95634 0.75389 0.38514 0.0
C921 C 0.9535 0.7261 0.45334 0.0
C922 C 0.97915 0.75255 0.44551 0.0
C923 C 0.0069 0.79303 0.40294 0.0
C924 C 0.00851 0.80654 0.36843 0.0
C925 C 0.981 0.76658 0.41138 0.0
C926 C 0.98423 0.79275 0.34258 0.0
C927 C 0.95843 0.76699 0.35083 0.0
H928 H 0.50712 0.15529 0.84644 0.0
H929 H 0.46883 0.17921 0.95136 0.0
H930 H 0.51637 0.22463 0.95903 0.0
H931 H 0.56802 0.25941 0.93497 0.0
H932 H 0.60282 0.23827 0.82845 0.0
H933 H 0.5579 0.19008 0.82234 0.0
C934 C 0.50936 0.17021 0.87112 0.0
C935 C 0.48424 0.16383 0.89823 0.0
C936 C 0.53627 0.19695 0.87501 0.0
C937 C 0.48751 0.18368 0.92993 0.0
C938 C 0.51479 0.20967 0.93436 0.0
C939 C 0.56563 0.24415 0.9105 0.0
C940 C 0.5885 0.25237 0.8821 0.0
C941 C 0.53913 0.21686 0.90696 0.0
C942 C 0.5853 0.2325 0.85052 0.0
C943 C 0.55975 0.20484 0.84711 0.0
H944 H 0.81812 0.10803 0.75542 0.0
H945 H 0.91637 0.0961 0.69693 0.0
H946 H 0.94092 0.0581 0.7439 0.0
H947 H 0.92815 0.01941 0.79656 0.0
H948 H 0.82834 0.03615 0.8531 0.0
H949 H 0.81067 0.08058 0.81171 0.0
C950 C 0.84517 0.09744 0.75304 0.0
C951 C 0.86449 0.10231 0.72176 0.0
C952 C 0.85842 0.07574 0.77952 0.0
C953 C 0.90039 0.091 0.72016 0.0
C954 C 0.9142 0.06911 0.74689 0.0
C955 C 0.90262 0.03283 0.79968 0.0
C956 C 0.87915 0.02323 0.82733 0.0
C957 C 0.89235 0.0594 0.77565 0.0
C958 C 0.84679 0.04206 0.83181 0.0
C959 C 0.83655 0.06787 0.80824 0.0
H960 H 0.66618 0.1173 0.45491 0.0
H961 H 0.70296 0.00892 0.4584 0.0
H962 H 0.74015 0.02296 0.50963 0.0
H963 H 0.76393 0.06562 0.5531 0.0
H964 H 0.73244 0.17496 0.54891 0.0
H965 H 0.69154 0.16109 0.4988 0.0
C966 C 0.68214 0.0968 0.46706 0.0
C967 C 0.68176 0.0622 0.45242 0.0
C968 C 0.70462 0.10519 0.49645 0.0
C969 C 0.70265 0.0359 0.46869 0.0
C970 C 0.72414 0.04381 0.49813 0.0
C971 C 0.74851 0.08644 0.54071 0.0
C972 C 0.7518 0.1213 0.55364 0.0
C973 C 0.72572 0.07835 0.51191 0.0
C974 C 0.73109 0.14808 0.53834 0.0
C975 C 0.70736 0.14003 0.51014 0.0
H976 H 0.68689 0.93745 0.16703 0.0
H977 H 0.5744 0.91161 0.18567 0.0
H978 H 0.56994 0.96106 0.22645 0.0
H979 H 0.59952 0.00487 0.26442 0.0
H980 H 0.71285 0.02849 0.25242 0.0
H981 H 0.71538 0.98729 0.20149 0.0
C982 C 0.66116 0.94336 0.17915 0.0
C983 C 0.63099 0.92086 0.17255 0.0
C984 C 0.65902 0.9712 0.20441 0.0
C985 C 0.59803 0.92855 0.18936 0.0
C986 C 0.59545 0.95668 0.21328 0.0
C987 C 0.62448 0.00204 0.24979 0.0
C988 C 0.65569 0.02034 0.26138 0.0
C989 C 0.62602 0.97722 0.22201 0.0
C990 C 0.68824 0.01532 0.24321 0.0
C991 C 0.68974 0.99144 0.21445 0.0
H992 H 0.87144 0.87928 0.00465 0.0
H993 H 0.79563 0.91301 0.90724 0.0
H994 H 0.73714 0.87274 0.92412 0.0
H995 H 0.72835 0.80147 0.01832 0.0
H996 H 0.81211 0.8097 0.09529 0.0
H997 H 0.8553 0.83793 0.05673 0.0
C998 C 0.84506 0.87437 0.99284 0.0
C999 C 0.83584 0.89744 0.95512 0.0
C1000 C 0.81778 0.84483 0.01417 0.0
C1001 C 0.79727 0.89675 0.93053 0.0
C1002 C 0.76113 0.87074 0.9411 0.0
C1003 C 0.75514 0.81228 0.02346 0.0
C1004 C 0.76738 0.80814 0.05836 0.0
C1005 C 0.77483 0.83411 0.99892 0.0
C1006 C 0.80352 0.81507 0.06845 0.0
C1007 C 0.82845 0.83177 0.04658 0.0
H1008 H 0.83664 0.02666 0.72841 0.0
H1009 H 0.8788 0.96132 0.64456 0.0
H1010 H 0.8711 0.90865 0.68048 0.0
H1011 H 0.86555 0.88386 0.73983 0.0
H1012 H 0.82191 0.94722 0.82452 0.0
H1013 H 0.8147 0.99717 0.78365 0.0
C1014 C 0.84291 0.00077 0.71772 0.0
C1015 C 0.85893 0.99808 0.68408 0.0
C1016 C 0.83893 0.97034 0.73901 0.0
C1017 C 0.86622 0.96414 0.67023 0.0
C1018 C 0.86245 0.93402 0.69104 0.0
C1019 C 0.85408 0.90855 0.74932 0.0
C1020 C 0.84526 0.91225 0.78533 0.0
C1021 C 0.85102 0.93723 0.72617 0.0
C1022 C 0.82949 0.94393 0.79707 0.0
C1023 C 0.82599 0.97265 0.77389 0.0
H1024 H 0.81983 0.06853 0.48442 0.0
H1025 H 0.84694 0.16513 0.54191 0.0
H1026 H 0.80707 0.19854 0.50303 0.0
H1027 H 0.75949 0.19902 0.45691 0.0
H1028 H 0.73317 0.10246 0.39896 0.0
H1029 H 0.77835 0.07058 0.43322 0.0
C1030 C 0.81743 0.09698 0.48825 0.0
C1031 C 0.83516 0.114 0.51717 0.0
C1032 C 0.79453 0.11606 0.46564 0.0
C1033 C 0.83243 0.15105 0.52091 0.0
C1034 C 0.80984 0.17025 0.49845 0.0
C1035 C 0.76387 0.17108 0.45146 0.0
C1036 C 0.742 0.1529 0.42613 0.0
C1037 C 0.78981 0.15281 0.47148 0.0
C1038 C 0.7488 0.1169 0.41893 0.0
C1039 C 0.7748 0.09867 0.43845 0.0
H1040 H 0.56474 0.02945 0.18034 0.0
H1041 H 0.67153 0.05063 0.14009 0.0
H1042 H 0.68301 0.09394 0.18738 0.0
H1043 H 0.66339 0.12595 0.24052 0.0
H1044 H 0.55649 0.1076 0.2809 0.0
H1045 H 0.54441 0.06303 0.23396 0.0
C1046 C 0.59043 0.04361 0.18207 0.0
C1047 C 0.6174 0.03655 0.15693 0.0
C1048 C 0.59687 0.06901 0.20946 0.0
C1049 C 0.65039 0.05548 0.15916 0.0
C1050 C 0.65704 0.08027 0.18624 0.0
C1051 C 0.63768 0.11174 0.23923 0.0
C1052 C 0.61129 0.11905 0.26459 0.0
C1053 C 0.63067 0.0871 0.21166 0.0
C1054 C 0.57756 0.10152 0.26214 0.0
C1055 C 0.57053 0.07641 0.23506 0.0
H1056 H 0.73216 0.9275 0.03359 0.0
H1057 H 0.6353 0.8631 0.02061 0.0
H1058 H 0.66207 0.82369 0.97762 0.0
H1059 H 0.71298 0.79588 0.94207 0.0
H1060 H 0.83548 0.83472 0.94224 0.0
H1061 H 0.7951 0.91403 0.0037 0.0
C1062 C 0.71822 0.9051 0.02108 0.0
C1063 C 0.68234 0.89667 0.03021 0.0
C1064 C 0.73693 0.88407 0.99729 0.0
C1065 C 0.66335 0.86792 0.01391 0.0
C1066 C 0.6784 0.84538 0.98842 0.0
C1067 C 0.73215 0.81522 0.95279 0.0
C1068 C 0.77576 0.81005 0.94008 0.0
C1069 C 0.71441 0.84876 0.97857 0.0
C1070 C 0.80835 0.83945 0.95259 0.0
C1071 C 0.78235 0.89065 0.9911 0.0
H1072 H 0.96842 0.83237 0.83385 0.0
H1073 H 0.0549 0.86709 0.90391 0.0
H1074 H 0.08475 0.81036 0.89571 0.0
H1075 H 0.08755 0.751 0.86693 0.0
H1076 H 0.99799 0.71475 0.80148 0.0
H1077 H 0.96717 0.77047 0.81195 0.0
C1078 C 0.99321 0.82731 0.84819 0.0
C1079 C 0.00877 0.85422 0.86993 0.0
C1080 C 0.00948 0.79373 0.84494 0.0
C1081 C 0.04199 0.84725 0.88688 0.0
C1082 C 0.05908 0.81452 0.8825 0.0
C1083 C 0.06073 0.75477 0.85596 0.0
C1084 C 0.04536 0.72857 0.83319 0.0
C1085 C 0.04305 0.78741 0.86168 0.0
C1086 C 0.01062 0.73431 0.81907 0.0
C1087 C 0.99303 0.76647 0.8247 0.0
H1088 H 0.50454 0.64383 0.15132 0.0
H1089 H 0.46145 0.69306 0.05799 0.0
H1090 H 0.51383 0.73436 0.05781 0.0
H1091 H 0.5696 0.75963 0.08848 0.0
H1092 H 0.60969 0.7067 0.18116 0.0
H1093 H 0.56045 0.66373 0.17719 0.0
C1094 C 0.50612 0.66356 0.13076 0.0
C1095 C 0.47841 0.66569 0.10513 0.0
C1096 C 0.53597 0.68664 0.13077 0.0
C1097 C 0.48193 0.69115 0.07847 0.0
C1098 C 0.51204 0.71459 0.07827 0.0
C1099 C 0.56809 0.73795 0.10698 0.0
C1100 C 0.59341 0.73633 0.1351 0.0
C1101 C 0.53903 0.71301 0.10477 0.0
C1102 C 0.59064 0.70857 0.15935 0.0
C1103 C 0.56234 0.68405 0.15725 0.0
H1104 H 0.07069 0.29187 0.62216 0.0
H1105 H 0.03214 0.28179 0.51635 0.0
H1106 H 0.97557 0.25393 0.53137 0.0
H1107 H 0.92334 0.23699 0.574 0.0
H1108 H 0.92492 0.24454 0.70169 0.0
H1109 H 0.99331 0.26857 0.70914 0.0
C1110 C 0.04794 0.28347 0.60588 0.0
C1111 C 0.05275 0.28995 0.56957 0.0
C1112 C 0.01413 0.26978 0.6201 0.0
C1113 C 0.02716 0.27755 0.54417 0.0
C1114 C 0.99413 0.26149 0.55253 0.0
C1115 C 0.94015 0.24436 0.59656 0.0
C1116 C 0.92034 0.24035 0.63744 0.0
C1117 C 0.98348 0.25776 0.58728 0.0
C1118 C 0.94 0.24898 0.67775 0.0
C1119 C 0.98365 0.2634 0.68208 0.0
H1120 H 0.02206 0.68797 0.92648 0.0
H1121 H 0.08063 0.77327 0.97919 0.0
H1122 H 0.02986 0.81334 0.96897 0.0
H1123 H 0.96997 0.82473 0.94148 0.0
H1124 H 0.90968 0.73722 0.89415 0.0
H1125 H 0.95951 0.69736 0.90621 0.0
C1126 C 0.02371 0.71541 0.93553 0.0
C1127 C 0.05536 0.72802 0.95268 0.0
C1128 C 0.99386 0.73774 0.93094 0.0
C1129 C 0.05675 0.76323 0.96538 0.0
C1130 C 0.02764 0.78601 0.95977 0.0
C1131 C 0.9673 0.79667 0.93498 0.0
C1132 C 0.93586 0.78397 0.91733 0.0
C1133 C 0.99611 0.77364 0.9423 0.0
C1134 C 0.93309 0.74763 0.90849 0.0
C1135 C 0.96189 0.72486 0.91485 0.0
H1136 H 0.43949 0.24498 0.36427 0.0
H1137 H 0.52039 0.27994 0.29014 0.0
H1138 H 0.54998 0.22334 0.29391 0.0
H1139 H 0.5581 0.16692 0.32366 0.0
H1140 H 0.47971 0.13057 0.39855 0.0
H1141 H 0.44464 0.18447 0.38972 0.0
C1142 C 0.46431 0.24064 0.34988 0.0
C1143 C 0.4782 0.26754 0.32789 0.0
C1144 C 0.48232 0.20797 0.35295 0.0
C1145 C 0.50958 0.26062 0.30832 0.0
C1146 C 0.52645 0.22793 0.31012 0.0
C1147 C 0.53354 0.17073 0.33805 0.0
C1148 C 0.5224 0.14504 0.36222 0.0
C1149 C 0.51403 0.20202 0.33339 0.0
C1150 C 0.48963 0.15017 0.3802 0.0
C1151 C 0.46956 0.18112 0.37527 0.0
H1152 H 0.97636 0.21282 0.63616 0.0
H1153 H 0.03299 0.13514 0.66981 0.0
H1154 H 0.06721 0.18907 0.68116 0.0
H1155 H 0.07356 0.259 0.68856 0.0
H1156 H 0.98706 0.34664 0.65542 0.0
H1157 H 0.93707 0.30161 0.62648 0.0
C1158 C 0.96836 0.188 0.63272 0.0
C1159 C 0.98576 0.15792 0.64539 0.0
C1160 C 0.98437 0.22401 0.63974 0.0
C1161 C 0.02076 0.15961 0.66143 0.0
C1162 C 0.04119 0.19089 0.66805 0.0
C1163 C 0.04794 0.26207 0.675 0.0
C1164 C 0.0324 0.30462 0.67256 0.0
C1165 C 0.02757 0.22406 0.66054 0.0
C1166 C 0.99316 0.31864 0.65446 0.0
C1167 C 0.96209 0.28989 0.63628 0.0
H1168 H 0.45075 0.73494 0.13699 0.0
H1169 H 0.50619 0.7455 0.2374 0.0
H1170 H 0.53779 0.79874 0.21695 0.0
H1171 H 0.54937 0.84269 0.17051 0.0
H1172 H 0.49802 0.82858 0.06835 0.0
H1173 H 0.46383 0.77776 0.09009 0.0
C1174 C 0.47009 0.7486 0.15426 0.0
C1175 C 0.47641 0.73583 0.18853 0.0
C1176 C 0.4884 0.77915 0.14224 0.0
C1177 C 0.50094 0.7545 0.2108 0.0
C1178 C 0.51899 0.78506 0.19915 0.0
C1179 C 0.53138 0.82817 0.15272 0.0
C1180 C 0.52711 0.83926 0.11751 0.0
C1181 C 0.51299 0.79766 0.16487 0.0
C1182 C 0.50239 0.82055 0.09543 0.0
C1183 C 0.48277 0.79135 0.10782 0.0
H1184 H 0.58122 0.41106 0.78351 0.0
H1185 H 0.68637 0.42049 0.73617 0.0
H1186 H 0.66356 0.46384 0.69472 0.0
H1187 H 0.61725 0.50709 0.6792 0.0
H1188 H 0.51449 0.50402 0.73236 0.0
H1189 H 0.5332 0.45206 0.76522 0.0
C1190 C 0.59899 0.42252 0.76405 0.0
C1191 C 0.63582 0.41385 0.76424 0.0
C1192 C 0.58642 0.44974 0.74204 0.0
C1193 C 0.65811 0.42753 0.73749 0.0
C1194 C 0.64516 0.45258 0.71385 0.0
C1195 C 0.59895 0.49518 0.69805 0.0
C1196 C 0.56485 0.51018 0.70383 0.0
C1197 C 0.61004 0.4655 0.71733 0.0
C1198 C 0.54123 0.49364 0.72779 0.0
C1199 C 0.55174 0.46358 0.74639 0.0
H1200 H 0.79145 0.4342 0.0479 0.0
H1201 H 0.83549 0.33236 0.01942 0.0
H1202 H 0.78802 0.32347 0.97474 0.0
H1203 H 0.73704 0.34647 0.94064 0.0
H1204 H 0.69597 0.45033 0.96468 0.0
H1205 H 0.73882 0.45661 0.01451 0.0
C1206 C 0.79031 0.40986 0.03225 0.0
C1207 C 0.81691 0.38387 0.0371 0.0
C1208 C 0.76354 0.40542 0.00574 0.0
C1209 C 0.8154 0.35274 0.01619 0.0
C1210 C 0.78833 0.34769 0.99057 0.0
C1211 C 0.73692 0.3701 0.9574 0.0
C1212 C 0.71273 0.39748 0.94985 0.0
C1213 C 0.76266 0.37407 0.98473 0.0
C1214 C 0.71377 0.4286 0.97069 0.0
C1215 C 0.73849 0.43227 0.99888 0.0
H1216 H 0.79313 0.57887 0.26539 0.0
H1217 H 0.89592 0.62269 0.30021 0.0
H1218 H 0.92585 0.59334 0.25065 0.0
H1219 H 0.92344 0.55145 0.20078 0.0
H1220 H 0.82093 0.50693 0.16559 0.0
H1221 H 0.78996 0.54156 0.21119 0.0
C1222 C 0.82208 0.58209 0.26209 0.0
C1223 C 0.84261 0.60166 0.28746 0.0
C1224 C 0.83897 0.56557 0.23312 0.0
C1225 C 0.87987 0.60638 0.28211 0.0
C1226 C 0.89685 0.59008 0.25343 0.0
C1227 C 0.89423 0.5496 0.20262 0.0
C1228 C 0.87462 0.52595 0.18022 0.0
C1229 C 0.87679 0.56894 0.2293 0.0
C1230 C 0.83676 0.52449 0.18277 0.0
C1231 C 0.81905 0.54428 0.20889 0.0
H1232 H 0.72881 0.59637 0.4575 0.0
H1233 H 0.7341 0.71052 0.45349 0.0
H1234 H 0.69225 0.71494 0.5032 0.0
H1235 H 0.65231 0.68604 0.54645 0.0
H1236 H 0.65312 0.57216 0.55557 0.0
H1237 H 0.69492 0.56772 0.50591 0.0
C1238 C 0.72098 0.6221 0.46789 0.0
C1239 C 0.73441 0.65312 0.45223 0.0
C1240 C 0.69799 0.6244 0.4973 0.0
C1241 C 0.7243 0.68639 0.46565 0.0
C1242 C 0.70026 0.6889 0.49386 0.0
C1243 C 0.66211 0.66036 0.5378 0.0
C1244 C 0.64975 0.62952 0.55452 0.0
C1245 C 0.68674 0.65809 0.50975 0.0
C1246 C 0.66262 0.59631 0.54327 0.0
C1247 C 0.68616 0.59372 0.51462 0.0
H1248 H 0.63851 0.45922 0.82573 0.0
H1249 H 0.53161 0.49613 0.8498 0.0
H1250 H 0.54115 0.54794 0.81367 0.0
H1251 H 0.57492 0.5778 0.76841 0.0
H1252 H 0.68076 0.54193 0.73918 0.0
H1253 H 0.67595 0.49365 0.78232 0.0
C1254 C 0.61757 0.4787 0.82307 0.0
C1255 C 0.58368 0.47277 0.83892 0.0
C1256 C 0.62242 0.50782 0.80015 0.0
C1257 C 0.55753 0.49943 0.83699 0.0
C1258 C 0.56275 0.52893 0.81598 0.0
C1259 C 0.59694 0.55926 0.77114 0.0
C1260 C 0.62767 0.56286 0.74985 0.0
C1261 C 0.59412 0.53226 0.79595 0.0
C1262 C 0.65621 0.53899 0.75432 0.0
C1263 C 0.65372 0.51185 0.77951 0.0
H1264 H 0.74219 0.30756 0.05058 0.0
H1265 H 0.72596 0.40402 0.11096 0.0
H1266 H 0.67476 0.41874 0.07335 0.0
H1267 H 0.63633 0.40622 0.02163 0.0
H1268 H 0.65127 0.31014 0.96053 0.0
H1269 H 0.70049 0.29306 0.00025 0.0
C1270 C 0.72722 0.33163 0.05563 0.0
C1271 C 0.73816 0.3547 0.08355 0.0
C1272 C 0.69731 0.33996 0.03385 0.0
C1273 C 0.71825 0.38568 0.08981 0.0
C1274 C 0.68889 0.3942 0.06823 0.0
C1275 C 0.65003 0.38134 0.01707 0.0
C1276 C 0.64023 0.35974 0.98769 0.0
C1277 C 0.67843 0.37181 0.03993 0.0
C1278 C 0.65839 0.32751 0.98258 0.0
C1279 C 0.68653 0.31767 0.00542 0.0
H1280 H 0.81439 0.49711 0.28668 0.0
H1281 H 0.92849 0.51921 0.29891 0.0
H1282 H 0.94138 0.47784 0.25019 0.0
H1283 H 0.92032 0.43139 0.2076 0.0
H1284 H 0.80591 0.41367 0.19151 0.0
H1285 H 0.79296 0.45758 0.23789 0.0
C1286 C 0.84203 0.49334 0.27822 0.0
C1287 C 0.87043 0.51139 0.29632 0.0
C1288 C 0.84917 0.46999 0.24975 0.0
C1289 C 0.90611 0.50616 0.28511 0.0
C1290 C 0.91351 0.48218 0.25749 0.0
C1291 C 0.89253 0.4377 0.21375 0.0
C1292 C 0.86409 0.41923 0.19606 0.0
C1293 C 0.88529 0.46345 0.24007 0.0
C1294 C 0.82826 0.42779 0.20428 0.0
C1295 C 0.82086 0.45255 0.23118 0.0
H1296 H 0.81005 0.63898 0.48265 0.0
H1297 H 0.81486 0.52529 0.49512 0.0
H1298 H 0.78324 0.52949 0.55044 0.0
H1299 H 0.75003 0.56366 0.59407 0.0
H1300 H 0.73893 0.67632 0.58209 0.0
H1301 H 0.77696 0.67447 0.52895 0.0
C1302 C 0.80416 0.61526 0.49748 0.0
C1303 C 0.81394 0.58174 0.4836 0.0
C1304 C 0.78453 0.61755 0.5297 0.0
C1305 C 0.80675 0.55143 0.50408 0.0
C1306 C 0.78865 0.55366 0.53606 0.0
C1307 C 0.75578 0.58779 0.57969 0.0
C1308 C 0.7412 0.61989 0.59161 0.0
C1309 C 0.77652 0.5863 0.5487 0.0
C1310 C 0.7493 0.65107 0.573 0.0
C1311 C 0.77128 0.65003 0.54274 0.0
H1312 H 0.43358 0.66199 0.64381 0.0
H1313 H 0.52878 0.6991 0.58962 0.0
H1314 H 0.49978 0.75603 0.57899 0.0
H1315 H 0.45055 0.79769 0.59181 0.0
H1316 H 0.35868 0.76239 0.65151 0.0
H1317 H 0.38233 0.70209 0.65206 0.0
C1318 C 0.44812 0.68258 0.6298 0.0
C1319 C 0.48363 0.67642 0.61812 0.0
C1320 C 0.43176 0.71564 0.62471 0.0
C1321 C 0.50178 0.7033 0.59959 0.0
C1322 C 0.48513 0.73583 0.59335 0.0
C1323 C 0.43561 0.77684 0.60466 0.0
C1324 C 0.40318 0.78473 0.62207 0.0
C1325 C 0.4506 0.74272 0.60677 0.0
C1326 C 0.38352 0.75693 0.63756 0.0
C1327 C 0.39742 0.7226 0.6385 0.0
H1328 H 0.43367 0.50432 0.24235 0.0
H1329 H 0.41856 0.60269 0.29966 0.0
H1330 H 0.40539 0.57002 0.35325 0.0
H1331 H 0.3875 0.51378 0.3803 0.0
H1332 H 0.41185 0.41484 0.32773 0.0
H1333 H 0.43467 0.44783 0.27646 0.0
C1334 C 0.4297 0.51864 0.26708 0.0
C1335 C 0.42696 0.55599 0.26688 0.0
C1336 C 0.42256 0.49961 0.29824 0.0
C1337 C 0.42133 0.57408 0.29909 0.0
C1338 C 0.41291 0.55533 0.32964 0.0
C1339 C 0.39721 0.49915 0.35745 0.0
C1340 C 0.39526 0.46166 0.35671 0.0
C1341 C 0.41131 0.5181 0.32881 0.0
C1342 C 0.41079 0.44354 0.32802 0.0
C1343 C 0.42408 0.46237 0.2989 0.0
H1344 H 0.27417 0.58938 0.13318 0.0
H1345 H 0.33546 0.6804 0.09852 0.0
H1346 H 0.29177 0.68865 0.04987 0.0
H1347 H 0.23635 0.66766 0.01568 0.0
H1348 H 0.17906 0.57476 0.05208 0.0
H1349 H 0.22002 0.5705 0.1021 0.0
C1350 C 0.27822 0.61113 0.11505 0.0
C1351 C 0.30822 0.63413 0.11953 0.0
C1352 C 0.25327 0.61557 0.08746 0.0
C1353 C 0.31284 0.662 0.09552 0.0
C1354 C 0.28766 0.66686 0.06785 0.0
C1355 C 0.23285 0.64679 0.03477 0.0
C1356 C 0.205 0.62117 0.0297 0.0
C1357 C 0.25772 0.6436 0.06335 0.0
C1358 C 0.20042 0.5946 0.05508 0.0
C1359 C 0.22403 0.59192 0.08363 0.0
H1360 H 0.18481 0.55023 0.83169 0.0
H1361 H 0.07763 0.59116 0.84638 0.0
H1362 H 0.05423 0.55128 0.79969 0.0
H1363 H 0.06292 0.49785 0.76172 0.0
H1364 H 0.17091 0.45887 0.7465 0.0
H1365 H 0.1951 0.50432 0.78677 0.0
C1366 C 0.15652 0.55109 0.82397 0.0
C1367 C 0.13294 0.57321 0.84268 0.0
C1368 C 0.14316 0.52764 0.79775 0.0
C1369 C 0.09639 0.57441 0.83226 0.0
C1370 C 0.08287 0.5512 0.80595 0.0
C1371 C 0.09181 0.50006 0.76655 0.0
C1372 C 0.11508 0.47527 0.75092 0.0
C1373 C 0.10575 0.52662 0.78961 0.0
C1374 C 0.15246 0.478 0.75769 0.0
C1375 C 0.16634 0.50377 0.78103 0.0
H1376 H 0.21583 0.40734 0.6211 0.0
H1377 H 0.20884 0.29473 0.60016 0.0
H1378 H 0.25606 0.3 0.55543 0.0
H1379 H 0.29818 0.33752 0.52018 0.0
H1380 H 0.29932 0.45098 0.5388 0.0
H1381 H 0.25568 0.44441 0.58567 0.0
C1382 C 0.22405 0.38402 0.60633 0.0
C1383 C 0.20808 0.3509 0.61361 0.0
C1384 C 0.25058 0.38735 0.58008 0.0
C1385 C 0.22037 0.32072 0.59506 0.0
C1386 C 0.24747 0.3237 0.56942 0.0
C1387 C 0.28878 0.36075 0.53444 0.0
C1388 C 0.30212 0.39469 0.52546 0.0
C1389 C 0.26261 0.357 0.56136 0.0
C1390 C 0.28969 0.42444 0.54466 0.0
C1391 C 0.26461 0.42081 0.57172 0.0
H1392 H 0.38363 0.40177 0.18771 0.0
H1393 H 0.3458 0.44649 0.28591 0.0
H1394 H 0.32403 0.49882 0.2545 0.0
H1395 H 0.32436 0.53506 0.19985 0.0
H1396 H 0.36019 0.48768 0.10207 0.0
H1397 H 0.37128 0.43199 0.13195 0.0
C1398 C 0.3703 0.42285 0.20222 0.0
C1399 C 0.36811 0.42131 0.23931 0.0
C1400 C 0.35659 0.4519 0.18382 0.0
C1401 C 0.34911 0.44779 0.25755 0.0
C1402 C 0.33639 0.47754 0.23951 0.0
C1403 C 0.3334 0.51209 0.18496 0.0
C1404 C 0.3424 0.51583 0.149 0.0
C1405 C 0.34111 0.48039 0.20275 0.0
C1406 C 0.35295 0.48562 0.12969 0.0
C1407 C 0.36018 0.45393 0.14699 0.0
H1408 H 0.3117 0.65722 0.99392 0.0
H1409 H 0.29252 0.54644 0.96857 0.0
H1410 H 0.25058 0.56243 0.92169 0.0
H1411 H 0.21934 0.60783 0.8873 0.0
H1412 H 0.23157 0.71805 0.91759 0.0
H1413 H 0.27671 0.70254 0.96206 0.0
C1414 C 0.2982 0.63657 0.97831 0.0
C1415 C 0.30527 0.60063 0.98522 0.0
C1416 C 0.27294 0.6459 0.95188 0.0
C1417 C 0.28766 0.57433 0.96425 0.0
C1418 C 0.26357 0.58343 0.93728 0.0
C1419 C 0.23082 0.62834 0.9044 0.0
C1420 C 0.22104 0.66391 0.89951 0.0
C1421 C 0.25575 0.6191 0.931 0.0
C1422 C 0.23811 0.69034 0.92075 0.0
C1423 C 0.26406 0.6815 0.94627 0.0
H1424 H 0.195 0.48356 0.65716 0.0
H1425 H 0.08246 0.46273 0.63353 0.0
H1426 H 0.06543 0.51321 0.67114 0.0
H1427 H 0.08283 0.56546 0.70842 0.0
H1428 H 0.1948 0.5826 0.73685 0.0
H1429 H 0.2119 0.53198 0.69939 0.0
C1430 C 0.16669 0.48961 0.66092 0.0
C1431 C 0.14 0.46911 0.64282 0.0
C1432 C 0.15712 0.51864 0.68276 0.0
C1433 C 0.10348 0.47754 0.64767 0.0
C1434 C 0.09378 0.50683 0.6687 0.0
C1435 C 0.11094 0.55788 0.70658 0.0
C1436 C 0.13751 0.57759 0.72563 0.0
C1437 C 0.12039 0.52793 0.68593 0.0
C1438 C 0.17382 0.56755 0.72293 0.0
C1439 C 0.1836 0.53873 0.70132 0.0
H1440 H 0.21892 0.31298 0.49249 0.0
H1441 H 0.22684 0.42249 0.46009 0.0
H1442 H 0.26764 0.40661 0.41354 0.0
H1443 H 0.30277 0.3632 0.38202 0.0
H1444 H 0.29927 0.25351 0.41286 0.0
H1445 H 0.25586 0.26794 0.45955 0.0
C1446 C 0.22945 0.3332 0.47511 0.0
C1447 C 0.21975 0.369 0.4805 0.0
C1448 C 0.25408 0.32403 0.44791 0.0
C1449 C 0.23386 0.39477 0.4574 0.0
C1450 C 0.25736 0.3858 0.43041 0.0
C1451 C 0.29244 0.34225 0.39871 0.0
C1452 C 0.30419 0.3073 0.3936 0.0
C1453 C 0.2679 0.35071 0.42554 0.0
C1454 C 0.29066 0.28073 0.41601 0.0
C1455 C 0.26576 0.28896 0.44276 0.0
H1456 H 0.46794 0.33005 0.42421 0.0
H1457 H 0.41654 0.23422 0.46044 0.0
H1458 H 0.47334 0.20182 0.45241 0.0
H1459 H 0.53526 0.1996 0.42559 0.0
H1460 H 0.58579 0.2978 0.39392 0.0
H1461 H 0.53214 0.33048 0.41023 0.0
C1462 C 0.46909 0.30195 0.43001 0.0
C1463 C 0.4378 0.28402 0.4412 0.0
C1464 C 0.50184 0.28399 0.42631 0.0
C1465 C 0.44008 0.24817 0.45052 0.0
C1466 C 0.47262 0.2298 0.44626 0.0
C1467 C 0.53503 0.22829 0.42388 0.0
C1468 C 0.56433 0.24619 0.40814 0.0
C1469 C 0.50349 0.24718 0.43299 0.0
C1470 C 0.56355 0.28342 0.4059 0.0
C1471 C 0.53263 0.30211 0.41466 0.0
loop_
_geom_bond_atom_site_label_1
_geom_bond_atom_site_label_2
_geom_bond_distance
_geom_bond_site_symmetry_2
_ccdc_geom_bond_type
Zn0 O3 2.031 . S
Zn0 O5 2.049 . S
Zn0 O10 2.067 . S
Zn1 O2 1.962 . S
Zn1 O4 1.986 . S
Zn1 O6 1.996 . S
Zn1 O9 1.943 . S
O2 Zn1 1.962 . S
O2 C7 1.254 . S
O3 Zn0 2.031 . S
O3 C7 1.269 . S
O4 Zn1 1.986 . S
O4 C11 1.262 . S
O5 Zn0 2.049 . S
O5 C13 1.260 . S
O6 Zn1 1.996 . S
O6 C13 1.257 . S
C7 O2 1.254 . S
C7 O3 1.269 . S
C8 O9 1.249 . S
C8 O10 1.270 . S
O9 Zn1 1.943 . S
O9 C8 1.249 . S
O10 Zn0 2.067 . S
O10 C8 1.270 . S
C11 O4 1.262 . S
C11 O12 1.232 . S
O12 C11 1.232 . S
C13 O5 1.260 . S
C13 O6 1.257 . S
Zn14 O17 2.031 . S
Zn14 O19 2.049 . S
Zn14 O24 2.067 . S
Zn15 O16 1.962 . S
Zn15 O18 1.986 . S
Zn15 O20 1.996 . S
Zn15 O23 1.943 . S
O16 Zn15 1.962 . S
O16 C21 1.254 . S
O17 Zn14 2.031 . S
O17 C21 1.269 . S
O18 Zn15 1.986 . S
O18 C25 1.262 . S
O19 Zn14 2.049 . S
O19 C27 1.260 . S
O20 Zn15 1.996 . S
O20 C27 1.257 . S
C21 O16 1.254 . S
C21 O17 1.269 . S
C22 O23 1.249 . S
C22 O24 1.270 . S
O23 Zn15 1.943 . S
O23 C22 1.249 . S
O24 Zn14 2.067 . S
O24 C22 1.270 . S
C25 O18 1.262 . S
C25 O26 1.232 . S
O26 C25 1.232 . S
C27 O19 1.260 . S
C27 O20 1.257 . S
Zn28 O31 2.031 . S
Zn28 O33 2.049 . S
Zn28 O38 2.067 . S
Zn29 O30 1.962 . S
Zn29 O32 1.986 . S
Zn29 O34 1.996 . S
Zn29 O37 1.943 . S
O30 Zn29 1.962 . S
O30 C35 1.254 . S
O31 Zn28 2.031 . S
O31 C35 1.269 . S
O32 Zn29 1.986 . S
O32 C39 1.262 . S
O33 Zn28 2.049 . S
O33 C41 1.260 . S
O34 Zn29 1.996 . S
O34 C41 1.257 . S
C35 O30 1.254 . S
C35 O31 1.269 . S
C36 O37 1.249 . S
C36 O38 1.270 . S
O37 Zn29 1.943 . S
O37 C36 1.249 . S
O38 Zn28 2.067 . S
O38 C36 1.270 . S
C39 O32 1.262 . S
C39 O40 1.232 . S
O40 C39 1.232 . S
C41 O33 1.260 . S
C41 O34 1.257 . S
Zn42 O45 2.031 . S
Zn42 O47 2.049 . S
Zn42 O52 2.067 . S
Zn43 O44 1.962 . S
Zn43 O46 1.986 . S
Zn43 O48 1.996 . S
Zn43 O51 1.943 . S
O44 Zn43 1.962 . S
O44 C49 1.254 . S
O45 Zn42 2.031 . S
O45 C49 1.269 . S
O46 Zn43 1.986 . S
O46 C53 1.262 . S
O47 Zn42 2.049 . S
O47 C55 1.260 . S
O48 Zn43 1.996 . S
O48 C55 1.257 . S
C49 O44 1.254 . S
C49 O45 1.269 . S
C50 O51 1.249 . S
C50 O52 1.270 . S
O51 Zn43 1.943 . S
O51 C50 1.249 . S
O52 Zn42 2.067 . S
O52 C50 1.270 . S
C53 O46 1.262 . S
C53 O54 1.232 . S
O54 C53 1.232 . S
C55 O47 1.260 . S
C55 O48 1.257 . S
Zn56 O59 2.031 . S
Zn56 O61 2.049 . S
Zn56 O66 2.067 . S
Zn57 O58 1.962 . S
Zn57 O60 1.986 . S
Zn57 O62 1.996 . S
Zn57 O65 1.943 . S
O58 Zn57 1.962 . S
O58 C63 1.254 . S
O59 Zn56 2.031 . S
O59 C63 1.269 . S
O60 Zn57 1.986 . S
O60 C67 1.262 . S
O61 Zn56 2.049 . S
O61 C69 1.260 . S
O62 Zn57 1.996 . S
O62 C69 1.257 . S
C63 O58 1.254 . S
C63 O59 1.269 . S
C64 O65 1.249 . S
C64 O66 1.270 . S
O65 Zn57 1.943 . S
O65 C64 1.249 . S
O66 Zn56 2.067 . S
O66 C64 1.270 . S
C67 O60 1.262 . S
C67 O68 1.232 . S
O68 C67 1.232 . S
C69 O61 1.260 . S
C69 O62 1.257 . S
Zn70 O73 2.031 . S
Zn70 O75 2.049 . S
Zn70 O80 2.067 . S
Zn71 O72 1.962 . S
Zn71 O74 1.986 . S
Zn71 O76 1.996 . S
Zn71 O79 1.943 . S
O72 Zn71 1.962 . S
O72 C77 1.254 . S
O73 Zn70 2.031 . S
O73 C77 1.269 . S
O74 Zn71 1.986 . S
O74 C81 1.262 . S
O75 Zn70 2.049 . S
O75 C83 1.260 . S
O76 Zn71 1.996 . S
O76 C83 1.257 . S
C77 O72 1.254 . S
C77 O73 1.269 . S
C78 O79 1.249 . S
C78 O80 1.270 . S
O79 Zn71 1.943 . S
O79 C78 1.249 . S
O80 Zn70 2.067 . S
O80 C78 1.270 . S
C81 O74 1.262 . S
C81 O82 1.232 . S
O82 C81 1.232 . S
C83 O75 1.260 . S
C83 O76 1.257 . S
Zn84 O87 2.031 . S
Zn84 O89 2.049 . S
Zn84 O94 2.067 . S
Zn85 O86 1.962 . S
Zn85 O88 1.986 . S
Zn85 O90 1.996 . S
Zn85 O93 1.943 . S
O86 Zn85 1.962 . S
O86 C91 1.254 . S
O87 Zn84 2.031 . S
O87 C91 1.269 . S
O88 Zn85 1.986 . S
O88 C95 1.262 . S
O89 Zn84 2.049 . S
O89 C97 1.260 . S
O90 Zn85 1.996 . S
O90 C97 1.257 . S
C91 O86 1.254 . S
C91 O87 1.269 . S
C92 O93 1.249 . S
C92 O94 1.270 . S
O93 Zn85 1.943 . S
O93 C92 1.249 . S
O94 Zn84 2.067 . S
O94 C92 1.270 . S
C95 O88 1.262 . S
C95 O96 1.232 . S
O96 C95 1.232 . S
C97 O89 1.260 . S
C97 O90 1.257 . S
Zn98 O101 2.031 . S
Zn98 O103 2.049 . S
Zn98 O108 2.067 . S
Zn99 O100 1.962 . S
Zn99 O102 1.986 . S
Zn99 O104 1.996 . S
Zn99 O107 1.943 . S
O100 Zn99 1.962 . S
O100 C105 1.254 . S
O101 Zn98 2.031 . S
O101 C105 1.269 . S
O102 Zn99 1.986 . S
O102 C109 1.262 . S
O103 Zn98 2.049 . S
O103 C111 1.260 . S
O104 Zn99 1.996 . S
O104 C111 1.257 . S
C105 O100 1.254 . S
C105 O101 1.269 . S
C106 O107 1.249 . S
C106 O108 1.270 . S
O107 Zn99 1.943 . S
O107 C106 1.249 . S
O108 Zn98 2.067 . S
O108 C106 1.270 . S
C109 O102 1.262 . S
C109 O110 1.232 . S
O110 C109 1.232 . S
C111 O103 1.260 . S
C111 O104 1.257 . S
Zn112 O115 2.031 . S
Zn112 O117 2.049 . S
Zn112 O122 2.067 . S
Zn113 O114 1.962 . S
Zn113 O116 1.986 . S
Zn113 O118 1.996 . S
Zn113 O121 1.943 . S
O114 Zn113 1.962 . S
O114 C119 1.254 . S
O115 Zn112 2.031 . S
O115 C119 1.269 . S
O116 Zn113 1.986 . S
O116 C123 1.262 . S
O117 Zn112 2.049 . S
O117 C125 1.260 . S
O118 Zn113 1.996 . S
O118 C125 1.257 . S
C119 O114 1.254 . S
C119 O115 1.269 . S
C120 O121 1.249 . S
C120 O122 1.270 . S
O121 Zn113 1.943 . S
O121 C120 1.249 . S
O122 Zn112 2.067 . S
O122 C120 1.270 . S
C123 O116 1.262 . S
C123 O124 1.232 . S
O124 C123 1.232 . S
C125 O117 1.260 . S
C125 O118 1.257 . S
Zn126 O129 2.031 . S
Zn126 O131 2.049 . S
Zn126 O136 2.067 . S
Zn127 O128 1.962 . S
Zn127 O130 1.986 . S
Zn127 O132 1.996 . S
Zn127 O135 1.943 . S
O128 Zn127 1.962 . S
O128 C133 1.254 . S
O129 Zn126 2.031 . S
O129 C133 1.269 . S
O130 Zn127 1.986 . S
O130 C137 1.262 . S
O131 Zn126 2.049 . S
O131 C139 1.260 . S
O132 Zn127 1.996 . S
O132 C139 1.257 . S
C133 O128 1.254 . S
C133 O129 1.269 . S
C134 O135 1.249 . S
C134 O136 1.270 . S
O135 Zn127 1.943 . S
O135 C134 1.249 . S
O136 Zn126 2.067 . S
O136 C134 1.270 . S
C137 O130 1.262 . S
C137 O138 1.232 . S
O138 C137 1.232 . S
C139 O131 1.260 . S
C139 O132 1.257 . S
Zn140 O143 2.031 . S
Zn140 O145 2.049 . S
Zn140 O150 2.067 . S
Zn141 O142 1.962 . S
Zn141 O144 1.986 . S
Zn141 O146 1.996 . S
Zn141 O149 1.943 . S
O142 Zn141 1.962 . S
O142 C147 1.254 . S
O143 Zn140 2.031 . S
O143 C147 1.269 . S
O144 Zn141 1.986 . S
O144 C151 1.262 . S
O145 Zn140 2.049 . S
O145 C153 1.260 . S
O146 Zn141 1.996 . S
O146 C153 1.257 . S
C147 O142 1.254 . S
C147 O143 1.269 . S
C148 O149 1.249 . S
C148 O150 1.270 . S
O149 Zn141 1.943 . S
O149 C148 1.249 . S
O150 Zn140 2.067 . S
O150 C148 1.270 . S
C151 O144 1.262 . S
C151 O152 1.232 . S
O152 C151 1.232 . S
C153 O145 1.260 . S
C153 O146 1.257 . S
Zn154 O157 2.031 . S
Zn154 O159 2.049 . S
Zn154 O164 2.067 . S
Zn155 O156 1.962 . S
Zn155 O158 1.986 . S
Zn155 O160 1.996 . S
Zn155 O163 1.943 . S
O156 Zn155 1.962 . S
O156 C161 1.254 . S
O157 Zn154 2.031 . S
O157 C161 1.269 . S
O158 Zn155 1.986 . S
O158 C165 1.262 . S
O159 Zn154 2.049 . S
O159 C167 1.260 . S
O160 Zn155 1.996 . S
O160 C167 1.257 . S
C161 O156 1.254 . S
C161 O157 1.269 . S
C162 O163 1.249 . S
C162 O164 1.270 . S
O163 Zn155 1.943 . S
O163 C162 1.249 . S
O164 Zn154 2.067 . S
O164 C162 1.270 . S
C165 O158 1.262 . S
C165 O166 1.232 . S
O166 C165 1.232 . S
C167 O159 1.260 . S
C167 O160 1.257 . S
Zn168 O171 2.031 . S
Zn168 O173 2.049 . S
Zn168 O178 2.067 . S
Zn169 O170 1.962 . S
Zn169 O172 1.986 . S
Zn169 O174 1.996 . S
Zn169 O177 1.943 . S
O170 Zn169 1.962 . S
O170 C175 1.254 . S
O171 Zn168 2.031 . S
O171 C175 1.269 . S
O172 Zn169 1.986 . S
O172 C179 1.262 . S
O173 Zn168 2.049 . S
O173 C181 1.260 . S
O174 Zn169 1.996 . S
O174 C181 1.257 . S
C175 O170 1.254 . S
C175 O171 1.269 . S
C176 O177 1.249 . S
C176 O178 1.270 . S
O177 Zn169 1.943 . S
O177 C176 1.249 . S
O178 Zn168 2.067 . S
O178 C176 1.270 . S
C179 O172 1.262 . S
C179 O180 1.232 . S
O180 C179 1.232 . S
C181 O173 1.260 . S
C181 O174 1.257 . S
Zn182 O185 2.031 . S
Zn182 O187 2.049 . S
Zn182 O192 2.067 . S
Zn183 O184 1.962 . S
Zn183 O186 1.986 . S
Zn183 O188 1.996 . S
Zn183 O191 1.943 . S
O184 Zn183 1.962 . S
O184 C189 1.254 . S
O185 Zn182 2.031 . S
O185 C189 1.269 . S
O186 Zn183 1.986 . S
O186 C193 1.262 . S
O187 Zn182 2.049 . S
O187 C195 1.260 . S
O188 Zn183 1.996 . S
O188 C195 1.257 . S
C189 O184 1.254 . S
C189 O185 1.269 . S
C190 O191 1.249 . S
C190 O192 1.270 . S
O191 Zn183 1.943 . S
O191 C190 1.249 . S
O192 Zn182 2.067 . S
O192 C190 1.270 . S
C193 O186 1.262 . S
C193 O194 1.232 . S
O194 C193 1.232 . S
C195 O187 1.260 . S
C195 O188 1.257 . S
Zn196 O199 2.031 . S
Zn196 O201 2.049 . S
Zn196 O206 2.067 . S
Zn197 O198 1.962 . S
Zn197 O200 1.986 . S
Zn197 O202 1.996 . S
Zn197 O205 1.943 . S
O198 Zn197 1.962 . S
O198 C203 1.254 . S
O199 Zn196 2.031 . S
O199 C203 1.269 . S
O200 Zn197 1.986 . S
O200 C207 1.262 . S
O201 Zn196 2.049 . S
O201 C209 1.260 . S
O202 Zn197 1.996 . S
O202 C209 1.257 . S
C203 O198 1.254 . S
C203 O199 1.269 . S
C204 O205 1.249 . S
C204 O206 1.270 . S
O205 Zn197 1.943 . S
O205 C204 1.249 . S
O206 Zn196 2.067 . S
O206 C204 1.270 . S
C207 O200 1.262 . S
C207 O208 1.232 . S
O208 C207 1.232 . S
C209 O201 1.260 . S
C209 O202 1.257 . S
Zn210 O213 2.031 . S
Zn210 O215 2.049 . S
Zn210 O220 2.067 . S
Zn211 O212 1.962 . S
Zn211 O214 1.986 . S
Zn211 O216 1.996 . S
Zn211 O219 1.943 . S
O212 Zn211 1.962 . S
O212 C217 1.254 . S
O213 Zn210 2.031 . S
O213 C217 1.269 . S
O214 Zn211 1.986 . S
O214 C221 1.262 . S
O215 Zn210 2.049 . S
O215 C223 1.260 . S
O216 Zn211 1.996 . S
O216 C223 1.257 . S
C217 O212 1.254 . S
C217 O213 1.269 . S
C218 O219 1.249 . S
C218 O220 1.270 . S
O219 Zn211 1.943 . S
O219 C218 1.249 . S
O220 Zn210 2.067 . S
O220 C218 1.270 . S
C221 O214 1.262 . S
C221 O222 1.232 . S
O222 C221 1.232 . S
C223 O215 1.260 . S
C223 O216 1.257 . S
Zn224 O227 2.031 . S
Zn224 O229 2.049 . S
Zn224 O234 2.067 . S
Zn225 O226 1.962 . S
Zn225 O228 1.986 . S
Zn225 O230 1.996 . S
Zn225 O233 1.943 . S
O226 Zn225 1.962 . S
O226 C231 1.254 . S
O227 Zn224 2.031 . S
O227 C231 1.269 . S
O228 Zn225 1.986 . S
O228 C235 1.262 . S
O229 Zn224 2.049 . S
O229 C237 1.260 . S
O230 Zn225 1.996 . S
O230 C237 1.257 . S
C231 O226 1.254 . S
C231 O227 1.269 . S
C232 O233 1.249 . S
C232 O234 1.270 . S
O233 Zn225 1.943 . S
O233 C232 1.249 . S
O234 Zn224 2.067 . S
O234 C232 1.270 . S
C235 O228 1.262 . S
C235 O236 1.232 . S
O236 C235 1.232 . S
C237 O229 1.260 . S
C237 O230 1.257 . S
Zn238 O241 2.031 . S
Zn238 O243 2.049 . S
Zn238 O248 2.067 . S
Zn239 O240 1.962 . S
Zn239 O242 1.986 . S
Zn239 O244 1.996 . S
Zn239 O247 1.943 . S
O240 Zn239 1.962 . S
O240 C245 1.254 . S
O241 Zn238 2.031 . S
O241 C245 1.269 . S
O242 Zn239 1.986 . S
O242 C249 1.262 . S
O243 Zn238 2.049 . S
O243 C251 1.260 . S
O244 Zn239 1.996 . S
O244 C251 1.257 . S
C245 O240 1.254 . S
C245 O241 1.269 . S
C246 O247 1.249 . S
C246 O248 1.270 . S
O247 Zn239 1.943 . S
O247 C246 1.249 . S
O248 Zn238 2.067 . S
O248 C246 1.270 . S
C249 O242 1.262 . S
C249 O250 1.232 . S
O250 C249 1.232 . S
C251 O243 1.260 . S
C251 O244 1.257 . S
Zn252 O255 2.031 . S
Zn252 O257 2.049 . S
Zn252 O262 2.067 . S
Zn253 O254 1.962 . S
Zn253 O256 1.986 . S
Zn253 O258 1.996 . S
Zn253 O261 1.943 . S
O254 Zn253 1.962 . S
O254 C259 1.254 . S
O255 Zn252 2.031 . S
O255 C259 1.269 . S
O256 Zn253 1.986 . S
O256 C263 1.262 . S
O257 Zn252 2.049 . S
O257 C265 1.260 . S
O258 Zn253 1.996 . S
O258 C265 1.257 . S
C259 O254 1.254 . S
C259 O255 1.269 . S
C260 O261 1.249 . S
C260 O262 1.270 . S
O261 Zn253 1.943 . S
O261 C260 1.249 . S
O262 Zn252 2.067 . S
O262 C260 1.270 . S
C263 O256 1.262 . S
C263 O264 1.232 . S
O264 C263 1.232 . S
C265 O257 1.260 . S
C265 O258 1.257 . S
Zn266 O269 2.031 . S
Zn266 O271 2.049 . S
Zn266 O276 2.067 . S
Zn267 O268 1.962 . S
Zn267 O270 1.986 . S
Zn267 O272 1.996 . S
Zn267 O275 1.943 . S
O268 Zn267 1.962 . S
O268 C273 1.254 . S
O269 Zn266 2.031 . S
O269 C273 1.269 . S
O270 Zn267 1.986 . S
O270 C277 1.262 . S
O271 Zn266 2.049 . S
O271 C279 1.260 . S
O272 Zn267 1.996 . S
O272 C279 1.257 . S
C273 O268 1.254 . S
C273 O269 1.269 . S
C274 O275 1.249 . S
C274 O276 1.270 . S
O275 Zn267 1.943 . S
O275 C274 1.249 . S
O276 Zn266 2.067 . S
O276 C274 1.270 . S
C277 O270 1.262 . S
C277 O278 1.232 . S
O278 C277 1.232 . S
C279 O271 1.260 . S
C279 O272 1.257 . S
Zn280 O283 2.031 . S
Zn280 O285 2.049 . S
Zn280 O290 2.067 . S
Zn281 O282 1.962 . S
Zn281 O284 1.986 . S
Zn281 O286 1.996 . S
Zn281 O289 1.943 . S
O282 Zn281 1.962 . S
O282 C287 1.254 . S
O283 Zn280 2.031 . S
O283 C287 1.269 . S
O284 Zn281 1.986 . S
O284 C291 1.262 . S
O285 Zn280 2.049 . S
O285 C293 1.260 . S
O286 Zn281 1.996 . S
O286 C293 1.257 . S
C287 O282 1.254 . S
C287 O283 1.269 . S
C288 O289 1.249 . S
C288 O290 1.270 . S
O289 Zn281 1.943 . S
O289 C288 1.249 . S
O290 Zn280 2.067 . S
O290 C288 1.270 . S
C291 O284 1.262 . S
C291 O292 1.232 . S
O292 C291 1.232 . S
C293 O285 1.260 . S
C293 O286 1.257 . S
Zn294 O297 2.031 . S
Zn294 O299 2.049 . S
Zn294 O304 2.067 . S
Zn295 O296 1.962 . S
Zn295 O298 1.986 . S
Zn295 O300 1.996 . S
Zn295 O303 1.943 . S
O296 Zn295 1.962 . S
O296 C301 1.254 . S
O297 Zn294 2.031 . S
O297 C301 1.269 . S
O298 Zn295 1.986 . S
O298 C305 1.262 . S
O299 Zn294 2.049 . S
O299 C307 1.260 . S
O300 Zn295 1.996 . S
O300 C307 1.257 . S
C301 O296 1.254 . S
C301 O297 1.269 . S
C302 O303 1.249 . S
C302 O304 1.270 . S
O303 Zn295 1.943 . S
O303 C302 1.249 . S
O304 Zn294 2.067 . S
O304 C302 1.270 . S
C305 O298 1.262 . S
C305 O306 1.232 . S
O306 C305 1.232 . S
C307 O299 1.260 . S
C307 O300 1.257 . S
Zn308 O311 2.031 . S
Zn308 O313 2.049 . S
Zn308 O318 2.067 . S
Zn309 O310 1.962 . S
Zn309 O312 1.986 . S
Zn309 O314 1.996 . S
Zn309 O317 1.943 . S
O310 Zn309 1.962 . S
O310 C315 1.254 . S
O311 Zn308 2.031 . S
O311 C315 1.269 . S
O312 Zn309 1.986 . S
O312 C319 1.262 . S
O313 Zn308 2.049 . S
O313 C321 1.260 . S
O314 Zn309 1.996 . S
O314 C321 1.257 . S
C315 O310 1.254 . S
C315 O311 1.269 . S
C316 O317 1.249 . S
C316 O318 1.270 . S
O317 Zn309 1.943 . S
O317 C316 1.249 . S
O318 Zn308 2.067 . S
O318 C316 1.270 . S
C319 O312 1.262 . S
C319 O320 1.232 . S
O320 C319 1.232 . S
C321 O313 1.260 . S
C321 O314 1.257 . S
Zn322 O325 2.031 . S
Zn322 O327 2.049 . S
Zn322 O332 2.067 . S
Zn323 O324 1.962 . S
Zn323 O326 1.986 . S
Zn323 O328 1.996 . S
Zn323 O331 1.943 . S
O324 Zn323 1.962 . S
O324 C329 1.254 . S
O325 Zn322 2.031 . S
O325 C329 1.269 . S
O326 Zn323 1.986 . S
O326 C333 1.262 . S
O327 Zn322 2.049 . S
O327 C335 1.260 . S
O328 Zn323 1.996 . S
O328 C335 1.257 . S
C329 O324 1.254 . S
C329 O325 1.269 . S
C330 O331 1.249 . S
C330 O332 1.270 . S
O331 Zn323 1.943 . S
O331 C330 1.249 . S
O332 Zn322 2.067 . S
O332 C330 1.270 . S
C333 O326 1.262 . S
C333 O334 1.232 . S
O334 C333 1.232 . S
C335 O327 1.260 . S
C335 O328 1.257 . S
Zn336 O339 2.031 . S
Zn336 O341 2.049 . S
Zn336 O346 2.067 . S
Zn337 O338 1.962 . S
Zn337 O340 1.986 . S
Zn337 O342 1.996 . S
Zn337 O345 1.943 . S
O338 Zn337 1.962 . S
O338 C343 1.254 . S
O339 Zn336 2.031 . S
O339 C343 1.269 . S
O340 Zn337 1.986 . S
O340 C347 1.262 . S
O341 Zn336 2.049 . S
O341 C349 1.260 . S
O342 Zn337 1.996 . S
O342 C349 1.257 . S
C343 O338 1.254 . S
C343 O339 1.269 . S
C344 O345 1.249 . S
C344 O346 1.270 . S
O345 Zn337 1.943 . S
O345 C344 1.249 . S
O346 Zn336 2.067 . S
O346 C344 1.270 . S
C347 O340 1.262 . S
C347 O348 1.232 . S
O348 C347 1.232 . S
C349 O341 1.260 . S
C349 O342 1.257 . S
Zn350 O353 2.031 . S
Zn350 O355 2.049 . S
Zn350 O360 2.067 . S
Zn351 O352 1.962 . S
Zn351 O354 1.986 . S
Zn351 O356 1.996 . S
Zn351 O359 1.943 . S
O352 Zn351 1.962 . S
O352 C357 1.254 . S
O353 Zn350 2.031 . S
O353 C357 1.269 . S
O354 Zn351 1.986 . S
O354 C361 1.262 . S
O355 Zn350 2.049 . S
O355 C363 1.260 . S
O356 Zn351 1.996 . S
O356 C363 1.257 . S
C357 O352 1.254 . S
C357 O353 1.269 . S
C358 O359 1.249 . S
C358 O360 1.270 . S
O359 Zn351 1.943 . S
O359 C358 1.249 . S
O360 Zn350 2.067 . S
O360 C358 1.270 . S
C361 O354 1.262 . S
C361 O362 1.232 . S
O362 C361 1.232 . S
C363 O355 1.260 . S
C363 O356 1.257 . S
Zn364 O367 2.031 . S
Zn364 O369 2.049 . S
Zn364 O374 2.067 . S
Zn365 O366 1.962 . S
Zn365 O368 1.986 . S
Zn365 O370 1.996 . S
Zn365 O373 1.943 . S
O366 Zn365 1.962 . S
O366 C371 1.254 . S
O367 Zn364 2.031 . S
O367 C371 1.269 . S
O368 Zn365 1.986 . S
O368 C375 1.262 . S
O369 Zn364 2.049 . S
O369 C377 1.260 . S
O370 Zn365 1.996 . S
O370 C377 1.257 . S
C371 O366 1.254 . S
C371 O367 1.269 . S
C372 O373 1.249 . S
C372 O374 1.270 . S
O373 Zn365 1.943 . S
O373 C372 1.249 . S
O374 Zn364 2.067 . S
O374 C372 1.270 . S
C375 O368 1.262 . S
C375 O376 1.232 . S
O376 C375 1.232 . S
C377 O369 1.260 . S
C377 O370 1.257 . S
Zn378 O381 2.031 . S
Zn378 O383 2.049 . S
Zn378 O388 2.067 . S
Zn379 O380 1.962 . S
Zn379 O382 1.986 . S
Zn379 O384 1.996 . S
Zn379 O387 1.943 . S
O380 Zn379 1.962 . S
O380 C385 1.254 . S
O381 Zn378 2.031 . S
O381 C385 1.269 . S
O382 Zn379 1.986 . S
O382 C389 1.262 . S
O383 Zn378 2.049 . S
O383 C391 1.260 . S
O384 Zn379 1.996 . S
O384 C391 1.257 . S
C385 O380 1.254 . S
C385 O381 1.269 . S
C386 O387 1.249 . S
C386 O388 1.270 . S
O387 Zn379 1.943 . S
O387 C386 1.249 . S
O388 Zn378 2.067 . S
O388 C386 1.270 . S
C389 O382 1.262 . S
C389 O390 1.232 . S
O390 C389 1.232 . S
C391 O383 1.260 . S
C391 O384 1.257 . S
Zn392 O395 2.031 . S
Zn392 O397 2.049 . S
Zn392 O402 2.067 . S
Zn393 O394 1.962 . S
Zn393 O396 1.986 . S
Zn393 O398 1.996 . S
Zn393 O401 1.943 . S
O394 Zn393 1.962 . S
O394 C399 1.254 . S
O395 Zn392 2.031 . S
O395 C399 1.269 . S
O396 Zn393 1.986 . S
O396 C403 1.262 . S
O397 Zn392 2.049 . S
O397 C405 1.260 . S
O398 Zn393 1.996 . S
O398 C405 1.257 . S
C399 O394 1.254 . S
C399 O395 1.269 . S
C400 O401 1.249 . S
C400 O402 1.270 . S
O401 Zn393 1.943 . S
O401 C400 1.249 . S
O402 Zn392 2.067 . S
O402 C400 1.270 . S
C403 O396 1.262 . S
C403 O404 1.232 . S
O404 C403 1.232 . S
C405 O397 1.260 . S
C405 O398 1.257 . S
Zn406 O409 2.031 . S
Zn406 O411 2.049 . S
Zn406 O416 2.067 . S
Zn407 O408 1.962 . S
Zn407 O410 1.986 . S
Zn407 O412 1.996 . S
Zn407 O415 1.943 . S
O408 Zn407 1.962 . S
O408 C413 1.254 . S
O409 Zn406 2.031 . S
O409 C413 1.269 . S
O410 Zn407 1.986 . S
O410 C417 1.262 . S
O411 Zn406 2.049 . S
O411 C419 1.260 . S
O412 Zn407 1.996 . S
O412 C419 1.257 . S
C413 O408 1.254 . S
C413 O409 1.269 . S
C414 O415 1.249 . S
C414 O416 1.270 . S
O415 Zn407 1.943 . S
O415 C414 1.249 . S
O416 Zn406 2.067 . S
O416 C414 1.270 . S
C417 O410 1.262 . S
C417 O418 1.232 . S
O418 C417 1.232 . S
C419 O411 1.260 . S
C419 O412 1.257 . S
Zn420 O423 2.031 . S
Zn420 O425 2.049 . S
Zn420 O430 2.067 . S
Zn421 O422 1.962 . S
Zn421 O424 1.986 . S
Zn421 O426 1.996 . S
Zn421 O429 1.943 . S
O422 Zn421 1.962 . S
O422 C427 1.254 . S
O423 Zn420 2.031 . S
O423 C427 1.269 . S
O424 Zn421 1.986 . S
O424 C431 1.262 . S
O425 Zn420 2.049 . S
O425 C433 1.260 . S
O426 Zn421 1.996 . S
O426 C433 1.257 . S
C427 O422 1.254 . S
C427 O423 1.269 . S
C428 O429 1.249 . S
C428 O430 1.270 . S
O429 Zn421 1.943 . S
O429 C428 1.249 . S
O430 Zn420 2.067 . S
O430 C428 1.270 . S
C431 O424 1.262 . S
C431 O432 1.232 . S
O432 C431 1.232 . S
C433 O425 1.260 . S
C433 O426 1.257 . S
Zn434 O437 2.031 . S
Zn434 O439 2.049 . S
Zn434 O444 2.067 . S
Zn435 O436 1.962 . S
Zn435 O438 1.986 . S
Zn435 O440 1.996 . S
Zn435 O443 1.943 . S
O436 Zn435 1.962 . S
O436 C441 1.254 . S
O437 Zn434 2.031 . S
O437 C441 1.269 . S
O438 Zn435 1.986 . S
O438 C445 1.262 . S
O439 Zn434 2.049 . S
O439 C447 1.260 . S
O440 Zn435 1.996 . S
O440 C447 1.257 . S
C441 O436 1.254 . S
C441 O437 1.269 . S
C442 O443 1.249 . S
C442 O444 1.270 . S
O443 Zn435 1.943 . S
O443 C442 1.249 . S
O444 Zn434 2.067 . S
O444 C442 1.270 . S
C445 O438 1.262 . S
C445 O446 1.232 . S
O446 C445 1.232 . S
C447 O439 1.260 . S
C447 O440 1.257 . S
H448 C454 0.930 . S
H449 C457 0.930 . S
H450 C458 0.930 . S
H451 C459 0.930 1_545 S
H452 C462 0.930 . S
H453 C463 0.930 . S
C454 H448 0.930 . S
C454 C455 1.355 . S
C454 C456 1.433 . S
C455 C454 1.355 . S
C455 C457 1.419 1_455 S
C456 C454 1.433 . S
C456 C461 1.401 1_455 S
C456 C463 1.414 1_544 S
C457 H449 0.930 . S
C457 C455 1.419 1_655 S
C457 C458 1.362 . S
C458 H450 0.930 . S
C458 C457 1.362 . S
C458 C461 1.409 . S
C459 H451 0.930 1_565 S
C459 C460 1.355 . S
C459 C461 1.415 1_566 S
C460 C459 1.355 . S
C460 C462 1.419 . S
C461 C456 1.401 1_655 S
C461 C458 1.409 . S
C461 C459 1.415 1_544 S
C462 H452 0.930 . S
C462 C460 1.419 . S
C462 C463 1.362 1_655 S
C463 H453 0.930 . S
C463 C456 1.414 1_566 S
C463 C462 1.362 1_455 S
H464 C470 0.930 . S
H465 C473 0.930 . S
H466 C474 0.930 . S
H467 C475 0.930 . S
H468 C478 0.930 . S
H469 C479 0.930 . S
C470 H464 0.930 . S
C470 C471 1.355 . S
C470 C472 1.415 . S
C471 C470 1.355 . S
C471 C473 1.419 . S
C472 C470 1.415 . S
C472 C477 1.425 . S
C472 C479 1.409 . S
C473 H465 0.930 . S
C473 C471 1.419 . S
C473 C474 1.362 . S
C474 H466 0.930 . S
C474 C473 1.362 . S
C474 C477 1.409 . S
C475 H467 0.930 . S
C475 C476 1.355 . S
C475 C477 1.415 . S
C476 C475 1.355 . S
C476 C478 1.419 . S
C477 C472 1.425 . S
C477 C474 1.409 . S
C477 C475 1.415 . S
C478 H468 0.930 . S
C478 C476 1.419 . S
C478 C479 1.362 . S
C479 H469 0.930 . S
C479 C472 1.409 . S
C479 C478 1.362 . S
H480 C486 0.930 . S
H481 C489 0.930 . S
H482 C490 0.930 . S
H483 C491 0.930 . S
H484 C494 0.930 . S
H485 C495 0.930 . S
C486 H480 0.930 . S
C486 C487 1.355 . S
C486 C488 1.410 1_565 S
C487 C486 1.355 . S
C487 C489 1.419 . S
C488 C486 1.410 1_545 S
C488 C493 1.424 1_545 S
C488 C495 1.416 . S
C489 H481 0.930 . S
C489 C487 1.419 . S
C489 C490 1.362 . S
C490 H482 0.930 . S
C490 C489 1.362 . S
C490 C493 1.409 . S
C491 H483 0.930 . S
C491 C492 1.355 . S
C491 C493 1.415 1_545 S
C492 C491 1.355 . S
C492 C494 1.419 . S
C493 C488 1.424 1_565 S
C493 C490 1.409 . S
C493 C491 1.415 1_565 S
C494 H484 0.930 . S
C494 C492 1.419 . S
C494 C495 1.362 . S
C495 H485 0.930 . S
C495 C488 1.416 . S
C495 C494 1.362 . S
H496 C502 0.930 . S
H497 C505 0.930 . S
H498 C506 0.930 . S
H499 C507 0.930 . S
H500 C510 0.930 . S
H501 C511 0.930 . S
C502 H496 0.930 . S
C502 C503 1.355 . S
C502 C504 1.415 . S
C503 C502 1.355 . S
C503 C505 1.419 . S
C504 C502 1.415 . S
C504 C509 1.425 . S
C504 C511 1.409 . S
C505 H497 0.930 . S
C505 C503 1.419 . S
C505 C506 1.362 . S
C506 H498 0.930 . S
C506 C505 1.362 . S
C506 C509 1.409 . S
C507 H499 0.930 . S
C507 C508 1.355 . S
C507 C509 1.415 . S
C508 C507 1.355 . S
C508 C510 1.419 . S
C509 C504 1.425 . S
C509 C506 1.409 . S
C509 C507 1.415 . S
C510 H500 0.930 . S
C510 C508 1.419 . S
C510 C511 1.362 . S
C511 H501 0.930 . S
C511 C504 1.409 . S
C511 C510 1.362 . S
H512 C518 0.930 . S
H513 C521 0.930 . S
H514 C522 0.930 . S
H515 C523 0.930 . S
H516 C526 0.930 . S
H517 C527 0.930 . S
C518 H512 0.930 . S
C518 C519 1.355 . S
C518 C520 1.415 . S
C519 C518 1.355 . S
C519 C521 1.419 . S
C520 C518 1.415 . S
C520 C525 1.425 1_465 S
C520 C527 1.409 . S
C521 H513 0.930 . S
C521 C519 1.419 . S
C521 C522 1.362 1_465 S
C522 H514 0.930 . S
C522 C521 1.362 1_645 S
C522 C525 1.409 . S
C523 H515 0.930 . S
C523 C524 1.355 . S
C523 C525 1.415 . S
C524 C523 1.355 . S
C524 C526 1.419 . S
C525 C520 1.425 1_645 S
C525 C522 1.409 . S
C525 C523 1.415 . S
C526 H516 0.930 . S
C526 C524 1.419 . S
C526 C527 1.362 1_645 S
C527 H517 0.930 . S
C527 C520 1.409 . S
C527 C526 1.362 1_465 S
H528 C534 0.930 . S
H529 C537 0.930 . S
H530 C538 0.930 . S
H531 C539 0.930 . S
H532 C542 0.930 . S
H533 C543 0.930 . S
C534 H528 0.930 . S
C534 C535 1.355 . S
C534 C536 1.415 . S
C535 C534 1.355 . S
C535 C537 1.419 . S
C536 C534 1.415 . S
C536 C541 1.425 . S
C536 C543 1.409 . S
C537 H529 0.930 . S
C537 C535 1.419 . S
C537 C538 1.362 . S
C538 H530 0.930 . S
C538 C537 1.362 . S
C538 C541 1.409 . S
C539 H531 0.930 . S
C539 C540 1.355 . S
C539 C541 1.415 . S
C540 C539 1.355 . S
C540 C542 1.419 . S
C541 C536 1.425 . S
C541 C538 1.409 . S
C541 C539 1.415 . S
C542 H532 0.930 . S
C542 C540 1.419 . S
C542 C543 1.362 . S
C543 H533 0.930 . S
C543 C536 1.409 . S
C543 C542 1.362 . S
H544 C550 0.946 . S
H545 C553 0.930 . S
H546 C554 0.930 . S
H547 C555 0.930 . S
H548 C558 0.930 . S
H549 C559 0.930 . S
C550 H544 0.946 . S
C550 C551 1.355 . S
C550 C552 1.415 1_556 S
C551 C550 1.355 . S
C551 C553 1.419 . S
C552 C550 1.415 1_554 S
C552 C557 1.425 1_544 S
C552 C559 1.409 . S
C553 H545 0.930 . S
C553 C551 1.419 . S
C553 C554 1.362 1_545 S
C554 H546 0.930 . S
C554 C553 1.362 1_565 S
C554 C557 1.409 . S
C555 H547 0.930 . S
C555 C556 1.355 1_556 S
C555 C557 1.415 . S
C556 C555 1.355 1_554 S
C556 C558 1.419 . S
C557 C552 1.425 1_566 S
C557 C554 1.409 . S
C557 C555 1.415 . S
C558 H548 0.930 . S
C558 C556 1.419 . S
C558 C559 1.362 1_565 S
C559 H549 0.930 . S
C559 C552 1.409 . S
C559 C558 1.362 1_545 S
H560 C566 0.930 . S
H561 C569 0.930 . S
H562 C570 0.930 . S
H563 C571 0.930 . S
H564 C574 0.930 . S
H565 C575 0.930 . S
C566 H560 0.930 . S
C566 C567 1.355 . S
C566 C568 1.415 . S
C567 C566 1.355 . S
C567 C569 1.419 . S
C568 C566 1.415 . S
C568 C573 1.425 . S
C568 C575 1.409 . S
C569 H561 0.930 . S
C569 C567 1.419 . S
C569 C570 1.362 . S
C570 H562 0.930 . S
C570 C569 1.362 . S
C570 C573 1.409 . S
C571 H563 0.930 . S
C571 C572 1.355 . S
C571 C573 1.415 . S
C572 C571 1.355 . S
C572 C574 1.419 . S
C573 C568 1.425 . S
C573 C570 1.409 . S
C573 C571 1.415 . S
C574 H564 0.930 . S
C574 C572 1.419 . S
C574 C575 1.362 . S
C575 H565 0.930 . S
C575 C568 1.409 . S
C575 C574 1.362 . S
H576 C582 0.930 . S
H577 C585 0.930 . S
H578 C586 0.930 . S
H579 C587 0.930 . S
H580 C590 0.930 . S
H581 C591 0.930 . S
C582 H576 0.930 . S
C582 C583 1.355 . S
C582 C584 1.415 1_554 S
C583 C582 1.355 . S
C583 C585 1.419 . S
C584 C582 1.415 1_556 S
C584 C589 1.425 1_556 S
C584 C591 1.409 . S
C585 H577 0.930 . S
C585 C583 1.419 . S
C585 C586 1.362 . S
C586 H578 0.930 . S
C586 C585 1.362 . S
C586 C589 1.409 . S
C587 H579 0.930 . S
C587 C588 1.355 . S
C587 C589 1.415 1_556 S
C588 C587 1.355 . S
C588 C590 1.419 . S
C589 C584 1.425 1_554 S
C589 C586 1.409 . S
C589 C587 1.415 1_554 S
C590 H580 0.930 . S
C590 C588 1.419 . S
C590 C591 1.362 . S
C591 H581 0.930 . S
C591 C584 1.409 . S
C591 C590 1.362 . S
H592 C598 0.930 . S
H593 C601 0.930 . S
H594 C602 0.930 . S
H595 C603 0.930 . S
H596 C606 0.930 . S
H597 C607 0.930 . S
C598 H592 0.930 . S
C598 C599 1.355 . S
C598 C600 1.415 . S
C599 C598 1.355 . S
C599 C601 1.419 . S
C600 C598 1.415 . S
C600 C605 1.425 . S
C600 C607 1.409 . S
C601 H593 0.930 . S
C601 C599 1.419 . S
C601 C602 1.362 . S
C602 H594 0.930 . S
C602 C601 1.362 . S
C602 C605 1.409 . S
C603 H595 0.930 . S
C603 C604 1.355 . S
C603 C605 1.415 . S
C604 C603 1.355 . S
C604 C606 1.419 . S
C605 C600 1.425 . S
C605 C602 1.409 . S
C605 C603 1.415 . S
C606 H596 0.930 . S
C606 C604 1.419 . S
C606 C607 1.362 . S
C607 H597 0.930 . S
C607 C600 1.409 . S
C607 C606 1.362 . S
H608 C614 0.930 . S
H609 C617 0.930 . S
H610 C618 0.930 . S
H611 C619 0.930 . S
H612 C622 0.930 . S
H613 C623 0.930 . S
C614 H608 0.930 . S
C614 C615 1.355 . S
C614 C616 1.415 . S
C615 C614 1.355 . S
C615 C617 1.419 . S
C616 C614 1.415 . S
C616 C621 1.425 1_455 S
C616 C623 1.409 . S
C617 H609 0.930 . S
C617 C615 1.419 . S
C617 C618 1.362 1_455 S
C618 H610 0.930 . S
C618 C617 1.362 1_655 S
C618 C621 1.409 . S
C619 H611 0.930 . S
C619 C620 1.355 . S
C619 C621 1.415 . S
C620 C619 1.355 . S
C620 C622 1.419 . S
C621 C616 1.425 1_655 S
C621 C618 1.409 . S
C621 C619 1.415 . S
C622 H612 0.930 . S
C622 C620 1.419 . S
C622 C623 1.362 1_655 S
C623 H613 0.930 . S
C623 C616 1.409 . S
C623 C622 1.362 1_455 S
H624 C630 0.930 . S
H625 C633 0.930 . S
H626 C634 0.930 . S
H627 C635 0.930 . S
H628 C638 0.930 . S
H629 C639 0.930 . S
C630 H624 0.930 . S
C630 C631 1.355 . S
C630 C632 1.415 . S
C631 C630 1.355 . S
C631 C633 1.419 . S
C632 C630 1.415 . S
C632 C637 1.425 . S
C632 C639 1.409 . S
C633 H625 0.930 . S
C633 C631 1.419 . S
C633 C634 1.362 . S
C634 H626 0.930 . S
C634 C633 1.362 . S
C634 C637 1.409 . S
C635 H627 0.930 . S
C635 C636 1.355 . S
C635 C637 1.415 . S
C636 C635 1.355 . S
C636 C638 1.419 . S
C637 C632 1.425 . S
C637 C634 1.409 . S
C637 C635 1.415 . S
C638 H628 0.930 . S
C638 C636 1.419 . S
C638 C639 1.362 . S
C639 H629 0.930 . S
C639 C632 1.409 . S
C639 C638 1.362 . S
H640 C646 0.930 . S
H641 C649 0.930 . S
H642 C650 0.930 . S
H643 C651 0.930 . S
H644 C654 0.930 . S
H645 C655 0.930 . S
C646 H640 0.930 . S
C646 C647 1.355 . S
C646 C648 1.415 . S
C647 C646 1.355 . S
C647 C649 1.419 . S
C648 C646 1.415 . S
C648 C653 1.425 . S
C648 C655 1.409 . S
C649 H641 0.930 . S
C649 C647 1.419 . S
C649 C650 1.362 . S
C650 H642 0.930 . S
C650 C649 1.362 . S
C650 C653 1.409 . S
C651 H643 0.930 . S
C651 C652 1.355 . S
C651 C653 1.415 . S
C652 C651 1.355 . S
C652 C654 1.419 . S
C653 C648 1.425 . S
C653 C650 1.409 . S
C653 C651 1.415 . S
C654 H644 0.930 . S
C654 C652 1.419 . S
C654 C655 1.362 . S
C655 H645 0.930 . S
C655 C648 1.409 . S
C655 C654 1.362 . S
H656 C662 0.930 . S
H657 C665 0.930 . S
H658 C666 0.930 . S
H659 C667 0.930 . S
H660 C670 0.930 . S
H661 C671 0.930 . S
C662 H656 0.930 . S
C662 C663 1.355 . S
C662 C664 1.415 . S
C663 C662 1.355 . S
C663 C665 1.419 . S
C664 C662 1.415 . S
C664 C669 1.425 . S
C664 C671 1.409 . S
C665 H657 0.930 . S
C665 C663 1.419 . S
C665 C666 1.362 . S
C666 H658 0.930 . S
C666 C665 1.362 . S
C666 C669 1.409 . S
C667 H659 0.930 . S
C667 C668 1.355 . S
C667 C669 1.415 . S
C668 C667 1.355 . S
C668 C670 1.419 . S
C669 C664 1.425 . S
C669 C666 1.409 . S
C669 C667 1.415 . S
C670 H660 0.930 . S
C670 C668 1.419 . S
C670 C671 1.362 . S
C671 H661 0.930 . S
C671 C664 1.409 . S
C671 C670 1.362 . S
H672 C678 0.930 . S
H673 C681 0.930 . S
H674 C682 0.930 . S
H675 C683 0.930 . S
H676 C686 0.930 . S
H677 C687 0.930 . S
C678 H672 0.930 . S
C678 C679 1.355 . S
C678 C680 1.415 . S
C679 C678 1.355 . S
C679 C681 1.419 . S
C680 C678 1.415 . S
C680 C685 1.425 . S
C680 C687 1.409 . S
C681 H673 0.930 . S
C681 C679 1.419 . S
C681 C682 1.362 . S
C682 H674 0.930 . S
C682 C681 1.362 . S
C682 C685 1.409 . S
C683 H675 0.930 . S
C683 C684 1.355 . S
C683 C685 1.415 . S
C684 C683 1.355 . S
C684 C686 1.419 . S
C685 C680 1.425 . S
C685 C682 1.409 . S
C685 C683 1.415 . S
C686 H676 0.930 . S
C686 C684 1.419 . S
C686 C687 1.362 . S
C687 H677 0.930 . S
C687 C680 1.409 . S
C687 C686 1.362 . S
H688 C694 0.930 . S
H689 C697 0.930 . S
H690 C698 0.930 1_554 S
H691 C699 0.930 . S
H692 C702 0.930 . S
H693 C703 0.930 . S
C694 H688 0.930 . S
C694 C695 1.355 . S
C694 C696 1.411 1_556 S
C695 C694 1.355 . S
C695 C697 1.419 . S
C696 C694 1.411 1_554 S
C696 C701 1.427 . S
C696 C703 1.411 . S
C697 H689 0.930 . S
C697 C695 1.419 . S
C697 C698 1.362 1_455 S
C698 H690 0.930 1_556 S
C698 C697 1.362 1_655 S
C698 C701 1.409 1_656 S
C699 H691 0.930 . S
C699 C700 1.355 . S
C699 C701 1.415 1_655 S
C700 C699 1.355 . S
C700 C702 1.419 1_655 S
C701 C696 1.427 . S
C701 C698 1.409 1_454 S
C701 C699 1.415 1_455 S
C702 H692 0.930 . S
C702 C700 1.419 1_455 S
C702 C703 1.362 . S
C703 H693 0.930 . S
C703 C696 1.411 . S
C703 C702 1.362 . S
H704 C710 0.930 . S
H705 C713 0.930 . S
H706 C714 0.930 . S
H707 C715 0.930 . S
H708 C718 0.930 . S
H709 C719 0.930 1_545 S
C710 H704 0.930 . S
C710 C711 1.355 . S
C710 C712 1.415 1_545 S
C711 C710 1.355 . S
C711 C713 1.419 1_545 S
C712 C710 1.415 1_565 S
C712 C717 1.425 . S
C712 C719 1.409 . S
C713 H705 0.930 . S
C713 C711 1.419 1_565 S
C713 C714 1.362 . S
C714 H706 0.930 . S
C714 C713 1.362 . S
C714 C717 1.409 . S
C715 H707 0.930 . S
C715 C716 1.355 . S
C715 C717 1.415 . S
C716 C715 1.355 . S
C716 C718 1.419 . S
C717 C712 1.425 . S
C717 C714 1.409 . S
C717 C715 1.415 . S
C718 H708 0.930 . S
C718 C716 1.419 . S
C718 C719 1.362 . S
C719 H709 0.930 1_565 S
C719 C712 1.409 . S
C719 C718 1.362 . S
H720 C726 0.930 . S
H721 C729 0.930 . S
H722 C730 0.930 . S
H723 C731 0.930 . S
H724 C734 0.930 . S
H725 C735 0.930 . S
C726 H720 0.930 . S
C726 C727 1.355 . S
C726 C728 1.415 . S
C727 C726 1.355 . S
C727 C729 1.419 . S
C728 C726 1.415 . S
C728 C733 1.425 . S
C728 C735 1.409 . S
C729 H721 0.930 . S
C729 C727 1.419 . S
C729 C730 1.362 . S
C730 H722 0.930 . S
C730 C729 1.362 . S
C730 C733 1.409 . S
C731 H723 0.930 . S
C731 C732 1.355 . S
C731 C733 1.415 . S
C732 C731 1.355 . S
C732 C734 1.419 . S
C733 C728 1.425 . S
C733 C730 1.409 . S
C733 C731 1.415 . S
C734 H724 0.930 . S
C734 C732 1.419 . S
C734 C735 1.362 . S
C735 H725 0.930 . S
C735 C728 1.409 . S
C735 C734 1.362 . S
H736 C742 0.930 . S
H737 C745 0.930 . S
H738 C746 0.930 . S
H739 C747 0.930 . S
H740 C750 0.930 . S
H741 C751 0.930 . S
C742 H736 0.930 . S
C742 C743 1.355 . S
C742 C744 1.415 . S
C743 C742 1.355 . S
C743 C745 1.419 . S
C744 C742 1.415 . S
C744 C749 1.425 . S
C744 C751 1.409 1_545 S
C745 H737 0.930 . S
C745 C743 1.419 . S
C745 C746 1.362 . S
C746 H738 0.930 . S
C746 C745 1.362 . S
C746 C749 1.409 . S
C747 H739 0.930 . S
C747 C748 1.355 . S
C747 C749 1.415 1_565 S
C748 C747 1.355 . S
C748 C750 1.419 . S
C749 C744 1.425 . S
C749 C746 1.409 . S
C749 C747 1.415 1_545 S
C750 H740 0.930 . S
C750 C748 1.419 . S
C750 C751 1.362 . S
C751 H741 0.930 . S
C751 C744 1.409 1_565 S
C751 C750 1.362 . S
H752 C758 0.930 . S
H753 C761 0.930 . S
H754 C762 0.930 1_554 S
H755 C763 0.930 . S
H756 C766 0.930 . S
H757 C767 0.930 . S
C758 H752 0.930 . S
C758 C759 1.355 . S
C758 C760 1.415 . S
C759 C758 1.355 . S
C759 C761 1.419 . S
C760 C758 1.415 . S
C760 C765 1.425 . S
C760 C767 1.409 . S
C761 H753 0.930 . S
C761 C759 1.419 . S
C761 C762 1.362 . S
C762 H754 0.930 1_556 S
C762 C761 1.362 . S
C762 C765 1.409 . S
C763 H755 0.930 . S
C763 C764 1.355 . S
C763 C765 1.415 1_554 S
C764 C763 1.355 . S
C764 C766 1.419 1_554 S
C765 C760 1.425 . S
C765 C762 1.409 . S
C765 C763 1.415 1_556 S
C766 H756 0.930 . S
C766 C764 1.419 1_556 S
C766 C767 1.362 . S
C767 H757 0.930 . S
C767 C760 1.409 . S
C767 C766 1.362 . S
H768 C774 0.930 . S
H769 C777 0.930 . S
H770 C778 0.930 . S
H771 C779 0.930 . S
H772 C782 0.930 . S
H773 C783 0.930 . S
C774 H768 0.930 . S
C774 C775 1.355 . S
C774 C776 1.415 . S
C775 C774 1.355 . S
C775 C777 1.419 . S
C776 C774 1.415 . S
C776 C781 1.425 . S
C776 C783 1.409 1_545 S
C777 H769 0.930 . S
C777 C775 1.419 . S
C777 C778 1.362 . S
C778 H770 0.930 . S
C778 C777 1.362 . S
C778 C781 1.409 . S
C779 H771 0.930 . S
C779 C780 1.355 1_545 S
C779 C781 1.415 . S
C780 C779 1.355 1_565 S
C780 C782 1.419 . S
C781 C776 1.425 . S
C781 C778 1.409 . S
C781 C779 1.415 . S
C782 H772 0.930 . S
C782 C780 1.419 . S
C782 C783 1.362 . S
C783 H773 0.930 . S
C783 C776 1.409 1_565 S
C783 C782 1.362 . S
H784 C790 0.930 . S
H785 C793 0.930 . S
H786 C794 0.930 . S
H787 C795 0.930 . S
H788 C798 0.930 . S
H789 C799 0.930 . S
C790 H784 0.930 . S
C790 C791 1.355 . S
C790 C792 1.415 . S
C791 C790 1.355 . S
C791 C793 1.419 . S
C792 C790 1.415 . S
C792 C797 1.425 . S
C792 C799 1.409 . S
C793 H785 0.930 . S
C793 C791 1.419 . S
C793 C794 1.362 . S
C794 H786 0.930 . S
C794 C793 1.362 . S
C794 C797 1.409 . S
C795 H787 0.930 . S
C795 C796 1.355 . S
C795 C797 1.415 . S
C796 C795 1.355 . S
C796 C798 1.419 . S
C797 C792 1.425 . S
C797 C794 1.409 . S
C797 C795 1.415 . S
C798 H788 0.930 . S
C798 C796 1.419 . S
C798 C799 1.362 . S
C799 H789 0.930 . S
C799 C792 1.409 . S
C799 C798 1.362 . S
H800 C806 0.930 . S
H801 C809 0.930 . S
H802 C810 0.930 . S
H803 C811 0.930 . S
H804 C814 0.930 . S
H805 C815 0.930 1_545 S
C806 H800 0.930 . S
C806 C807 1.355 . S
C806 C808 1.415 1_545 S
C807 C806 1.355 . S
C807 C809 1.419 1_545 S
C808 C806 1.415 1_565 S
C808 C813 1.425 . S
C808 C815 1.409 . S
C809 H801 0.930 . S
C809 C807 1.419 1_565 S
C809 C810 1.362 . S
C810 H802 0.930 . S
C810 C809 1.362 . S
C810 C813 1.409 . S
C811 H803 0.930 . S
C811 C812 1.355 . S
C811 C813 1.415 . S
C812 C811 1.355 . S
C812 C814 1.419 . S
C813 C808 1.425 . S
C813 C810 1.409 . S
C813 C811 1.415 . S
C814 H804 0.930 . S
C814 C812 1.419 . S
C814 C815 1.362 . S
C815 H805 0.930 1_565 S
C815 C808 1.409 . S
C815 C814 1.362 . S
H816 C822 0.930 . S
H817 C825 0.930 . S
H818 C826 0.930 . S
H819 C827 0.930 . S
H820 C830 0.930 . S
H821 C831 0.930 . S
C822 H816 0.930 . S
C822 C823 1.355 . S
C822 C824 1.415 1_556 S
C823 C822 1.355 . S
C823 C825 1.419 . S
C824 C822 1.415 1_554 S
C824 C829 1.425 . S
C824 C831 1.409 . S
C825 H817 0.930 . S
C825 C823 1.419 . S
C825 C826 1.362 . S
C826 H818 0.930 . S
C826 C825 1.362 . S
C826 C829 1.409 1_556 S
C827 H819 0.930 . S
C827 C828 1.355 . S
C827 C829 1.415 . S
C828 C827 1.355 . S
C828 C830 1.419 . S
C829 C824 1.425 . S
C829 C826 1.409 1_554 S
C829 C827 1.415 . S
C830 H820 0.930 . S
C830 C828 1.419 . S
C830 C831 1.362 . S
C831 H821 0.930 . S
C831 C824 1.409 . S
C831 C830 1.362 . S
H832 C838 0.930 . S
H833 C841 0.930 . S
H834 C842 0.930 . S
H835 C843 0.930 . S
H836 C846 0.930 . S
H837 C847 0.930 . S
C838 H832 0.930 . S
C838 C839 1.355 . S
C838 C840 1.415 . S
C839 C838 1.355 . S
C839 C841 1.419 . S
C840 C838 1.415 . S
C840 C845 1.425 . S
C840 C847 1.409 1_655 S
C841 H833 0.930 . S
C841 C839 1.419 . S
C841 C842 1.362 . S
C842 H834 0.930 . S
C842 C841 1.362 . S
C842 C845 1.409 . S
C843 H835 0.930 . S
C843 C844 1.355 1_655 S
C843 C845 1.415 . S
C844 C843 1.355 1_455 S
C844 C846 1.419 . S
C845 C840 1.425 . S
C845 C842 1.409 . S
C845 C843 1.415 . S
C846 H836 0.930 . S
C846 C844 1.419 . S
C846 C847 1.362 . S
C847 H837 0.930 . S
C847 C840 1.409 1_455 S
C847 C846 1.362 . S
H848 C854 0.930 . S
H849 C857 0.930 . S
H850 C858 0.930 . S
H851 C859 0.930 . S
H852 C862 0.930 . S
H853 C863 0.930 . S
C854 H848 0.930 . S
C854 C855 1.355 . S
C854 C856 1.415 . S
C855 C854 1.355 . S
C855 C857 1.419 . S
C856 C854 1.415 . S
C856 C861 1.425 . S
C856 C863 1.409 . S
C857 H849 0.930 . S
C857 C855 1.419 . S
C857 C858 1.362 . S
C858 H850 0.930 . S
C858 C857 1.362 . S
C858 C861 1.409 . S
C859 H851 0.930 . S
C859 C860 1.355 . S
C859 C861 1.415 . S
C860 C859 1.355 . S
C860 C862 1.419 . S
C861 C856 1.425 . S
C861 C858 1.409 . S
C861 C859 1.415 . S
C862 H852 0.930 . S
C862 C860 1.419 . S
C862 C863 1.362 . S
C863 H853 0.930 . S
C863 C856 1.409 . S
C863 C862 1.362 . S
H864 C870 0.930 . S
H865 C873 0.930 . S
H866 C874 0.930 . S
H867 C875 0.930 . S
H868 C878 0.930 . S
H869 C879 0.930 . S
C870 H864 0.930 . S
C870 C871 1.355 . S
C870 C872 1.415 . S
C871 C870 1.355 . S
C871 C873 1.419 1_655 S
C872 C870 1.415 . S
C872 C877 1.425 1_655 S
C872 C879 1.409 . S
C873 H865 0.930 . S
C873 C871 1.419 1_455 S
C873 C874 1.362 . S
C874 H866 0.930 . S
C874 C873 1.362 . S
C874 C877 1.409 . S
C875 H867 0.930 . S
C875 C876 1.355 . S
C875 C877 1.415 . S
C876 C875 1.355 . S
C876 C878 1.419 . S
C877 C872 1.425 1_455 S
C877 C874 1.409 . S
C877 C875 1.415 . S
C878 H868 0.930 . S
C878 C876 1.419 . S
C878 C879 1.362 1_455 S
C879 H869 0.930 . S
C879 C872 1.409 . S
C879 C878 1.362 1_655 S
H880 C886 0.930 . S
H881 C889 0.930 . S
H882 C890 0.930 . S
H883 C891 0.930 . S
H884 C894 0.930 . S
H885 C895 0.930 . S
C886 H880 0.930 . S
C886 C887 1.355 1_455 S
C886 C888 1.415 . S
C887 C886 1.355 1_655 S
C887 C889 1.419 . S
C888 C886 1.415 . S
C888 C893 1.425 . S
C888 C895 1.409 . S
C889 H881 0.930 . S
C889 C887 1.419 . S
C889 C890 1.362 1_655 S
C890 H882 0.930 . S
C890 C889 1.362 1_455 S
C890 C893 1.409 . S
C891 H883 0.930 . S
C891 C892 1.355 . S
C891 C893 1.415 . S
C892 C891 1.355 . S
C892 C894 1.419 . S
C893 C888 1.425 . S
C893 C890 1.409 . S
C893 C891 1.415 . S
C894 H884 0.930 . S
C894 C892 1.419 . S
C894 C895 1.362 . S
C895 H885 0.930 . S
C895 C888 1.409 . S
C895 C894 1.362 . S
H896 C902 0.930 . S
H897 C905 0.930 . S
H898 C906 0.930 . S
H899 C907 0.930 . S
H900 C910 0.930 . S
H901 C911 0.930 . S
C902 H896 0.930 . S
C902 C903 1.355 . S
C902 C904 1.415 . S
C903 C902 1.355 . S
C903 C905 1.419 . S
C904 C902 1.415 . S
C904 C909 1.425 . S
C904 C911 1.409 . S
C905 H897 0.930 . S
C905 C903 1.419 . S
C905 C906 1.362 . S
C906 H898 0.930 . S
C906 C905 1.362 . S
C906 C909 1.409 . S
C907 H899 0.930 . S
C907 C908 1.355 . S
C907 C909 1.415 . S
C908 C907 1.355 . S
C908 C910 1.419 . S
C909 C904 1.425 . S
C909 C906 1.409 . S
C909 C907 1.415 . S
C910 H900 0.930 . S
C910 C908 1.419 . S
C910 C911 1.362 . S
C911 H901 0.930 . S
C911 C904 1.409 . S
C911 C910 1.362 . S
H912 C918 0.930 . S
H913 C921 0.930 . S
H914 C922 0.940 . S
H915 C923 0.930 . S
H916 C926 0.930 . S
H917 C927 0.930 . S
C918 H912 0.930 . S
C918 C919 1.355 . S
C918 C920 1.415 . S
C919 C918 1.355 . S
C919 C921 1.419 . S
C920 C918 1.415 . S
C920 C925 1.419 1_655 S
C920 C927 1.409 . S
C921 H913 0.930 . S
C921 C919 1.419 . S
C921 C922 1.353 1_655 S
C922 H914 0.940 . S
C922 C921 1.353 1_455 S
C922 C925 1.409 . S
C923 H915 0.930 . S
C923 C924 1.355 . S
C923 C925 1.420 . S
C924 C923 1.355 . S
C924 C926 1.419 1_455 S
C925 C920 1.419 1_455 S
C925 C922 1.409 . S
C925 C923 1.420 . S
C926 H916 0.930 . S
C926 C924 1.419 1_655 S
C926 C927 1.362 . S
C927 H917 0.930 . S
C927 C920 1.409 . S
C927 C926 1.362 . S
H928 C934 0.930 . S
H929 C937 0.930 . S
H930 C938 0.930 . S
H931 C939 0.930 . S
H932 C942 0.930 . S
H933 C943 0.930 . S
C934 H928 0.930 . S
C934 C935 1.355 . S
C934 C936 1.415 . S
C935 C934 1.355 . S
C935 C937 1.419 . S
C936 C934 1.415 . S
C936 C941 1.425 . S
C936 C943 1.409 . S
C937 H929 0.930 . S
C937 C935 1.419 . S
C937 C938 1.362 . S
C938 H930 0.930 . S
C938 C937 1.362 . S
C938 C941 1.409 . S
C939 H931 0.930 . S
C939 C940 1.355 . S
C939 C941 1.415 . S
C940 C939 1.355 . S
C940 C942 1.419 . S
C941 C936 1.425 . S
C941 C938 1.409 . S
C941 C939 1.415 . S
C942 H932 0.930 . S
C942 C940 1.419 . S
C942 C943 1.362 . S
C943 H933 0.930 . S
C943 C936 1.409 . S
C943 C942 1.362 . S
H944 C950 0.930 . S
H945 C953 0.930 . S
H946 C954 0.930 . S
H947 C955 0.930 . S
H948 C958 0.930 . S
H949 C959 0.930 . S
C950 H944 0.930 . S
C950 C951 1.355 . S
C950 C952 1.415 . S
C951 C950 1.355 . S
C951 C953 1.419 . S
C952 C950 1.415 . S
C952 C957 1.425 . S
C952 C959 1.409 . S
C953 H945 0.930 . S
C953 C951 1.419 . S
C953 C954 1.362 . S
C954 H946 0.930 . S
C954 C953 1.362 . S
C954 C957 1.409 . S
C955 H947 0.930 . S
C955 C956 1.355 . S
C955 C957 1.415 1_565 S
C956 C955 1.355 . S
C956 C958 1.419 1_565 S
C957 C952 1.425 . S
C957 C954 1.409 . S
C957 C955 1.415 1_545 S
C958 H948 0.930 . S
C958 C956 1.419 1_545 S
C958 C959 1.362 . S
C959 H949 0.930 . S
C959 C952 1.409 . S
C959 C958 1.362 . S
H960 C966 0.930 . S
H961 C969 0.930 . S
H962 C970 0.930 . S
H963 C971 0.930 . S
H964 C974 0.930 . S
H965 C975 0.930 . S
C966 H960 0.930 . S
C966 C967 1.355 . S
C966 C968 1.415 . S
C967 C966 1.355 . S
C967 C969 1.419 . S
C968 C966 1.415 . S
C968 C973 1.425 . S
C968 C975 1.409 . S
C969 H961 0.930 . S
C969 C967 1.419 . S
C969 C970 1.362 . S
C970 H962 0.930 . S
C970 C969 1.362 . S
C970 C973 1.409 . S
C971 H963 0.930 . S
C971 C972 1.355 . S
C971 C973 1.415 . S
C972 C971 1.355 . S
C972 C974 1.419 . S
C973 C968 1.425 . S
C973 C970 1.409 . S
C973 C971 1.415 . S
C974 H964 0.930 . S
C974 C972 1.419 . S
C974 C975 1.362 . S
C975 H965 0.930 . S
C975 C968 1.409 . S
C975 C974 1.362 . S
H976 C982 0.930 . S
H977 C985 0.930 . S
H978 C986 0.930 . S
H979 C987 0.930 . S
H980 C990 0.930 . S
H981 C991 0.930 . S
C982 H976 0.930 . S
C982 C983 1.355 . S
C982 C984 1.415 . S
C983 C982 1.355 . S
C983 C985 1.419 . S
C984 C982 1.415 . S
C984 C989 1.425 . S
C984 C991 1.409 1_565 S
C985 H977 0.930 . S
C985 C983 1.419 . S
C985 C986 1.362 . S
C986 H978 0.930 . S
C986 C985 1.362 . S
C986 C989 1.409 . S
C987 H979 0.930 . S
C987 C988 1.355 1_565 S
C987 C989 1.415 . S
C988 C987 1.355 1_545 S
C988 C990 1.419 . S
C989 C984 1.425 . S
C989 C986 1.409 . S
C989 C987 1.415 . S
C990 H980 0.930 . S
C990 C988 1.419 . S
C990 C991 1.362 . S
C991 H981 0.930 . S
C991 C984 1.409 1_545 S
C991 C990 1.362 . S
H992 C998 0.930 . S
H993 C1001 0.930 . S
H994 C1002 0.930 . S
H995 C1003 0.930 . S
H996 C1006 0.930 . S
H997 C1007 0.930 . S
C998 H992 0.930 . S
C998 C999 1.355 1_554 S
C998 C1000 1.415 . S
C999 C998 1.355 1_556 S
C999 C1001 1.419 . S
C1000 C998 1.415 . S
C1000 C1005 1.425 . S
C1000 C1007 1.409 . S
C1001 H993 0.930 . S
C1001 C999 1.419 . S
C1001 C1002 1.362 . S
C1002 H994 0.930 . S
C1002 C1001 1.362 . S
C1002 C1005 1.409 1_556 S
C1003 H995 0.930 . S
C1003 C1004 1.355 . S
C1003 C1005 1.415 . S
C1004 C1003 1.355 . S
C1004 C1006 1.419 . S
C1005 C1000 1.425 . S
C1005 C1002 1.409 1_554 S
C1005 C1003 1.415 . S
C1006 H996 0.930 . S
C1006 C1004 1.419 . S
C1006 C1007 1.362 . S
C1007 H997 0.930 . S
C1007 C1000 1.409 . S
C1007 C1006 1.362 . S
H1008 C1014 0.930 . S
H1009 C1017 0.930 . S
H1010 C1018 0.930 . S
H1011 C1019 0.930 . S
H1012 C1022 0.930 . S
H1013 C1023 0.930 1_545 S
C1014 H1008 0.930 . S
C1014 C1015 1.355 . S
C1014 C1016 1.415 1_545 S
C1015 C1014 1.355 . S
C1015 C1017 1.419 1_545 S
C1016 C1014 1.415 1_565 S
C1016 C1021 1.425 . S
C1016 C1023 1.409 . S
C1017 H1009 0.930 . S
C1017 C1015 1.419 1_565 S
C1017 C1018 1.362 . S
C1018 H1010 0.930 . S
C1018 C1017 1.362 . S
C1018 C1021 1.409 . S
C1019 H1011 0.930 . S
C1019 C1020 1.355 . S
C1019 C1021 1.415 . S
C1020 C1019 1.355 . S
C1020 C1022 1.419 . S
C1021 C1016 1.425 . S
C1021 C1018 1.409 . S
C1021 C1019 1.415 . S
C1022 H1012 0.930 . S
C1022 C1020 1.419 . S
C1022 C1023 1.362 . S
C1023 H1013 0.930 1_565 S
C1023 C1016 1.409 . S
C1023 C1022 1.362 . S
H1024 C1030 0.930 . S
H1025 C1033 0.930 . S
H1026 C1034 0.930 . S
H1027 C1035 0.930 . S
H1028 C1038 0.930 . S
H1029 C1039 0.930 . S
C1030 H1024 0.930 . S
C1030 C1031 1.355 . S
C1030 C1032 1.415 . S
C1031 C1030 1.355 . S
C1031 C1033 1.419 . S
C1032 C1030 1.415 . S
C1032 C1037 1.425 . S
C1032 C1039 1.409 . S
C1033 H1025 0.930 . S
C1033 C1031 1.419 . S
C1033 C1034 1.362 . S
C1034 H1026 0.930 . S
C1034 C1033 1.362 . S
C1034 C1037 1.409 . S
C1035 H1027 0.930 . S
C1035 C1036 1.355 . S
C1035 C1037 1.415 . S
C1036 C1035 1.355 . S
C1036 C1038 1.419 . S
C1037 C1032 1.425 . S
C1037 C1034 1.409 . S
C1037 C1035 1.415 . S
C1038 H1028 0.930 . S
C1038 C1036 1.419 . S
C1038 C1039 1.362 . S
C1039 H1029 0.930 . S
C1039 C1032 1.409 . S
C1039 C1038 1.362 . S
H1040 C1046 0.930 . S
H1041 C1049 0.930 . S
H1042 C1050 0.930 . S
H1043 C1051 0.930 . S
H1044 C1054 0.930 . S
H1045 C1055 0.930 1_565 S
C1046 H1040 0.930 . S
C1046 C1047 1.355 . S
C1046 C1048 1.415 1_565 S
C1047 C1046 1.355 . S
C1047 C1049 1.419 1_565 S
C1048 C1046 1.415 1_545 S
C1048 C1053 1.425 . S
C1048 C1055 1.409 . S
C1049 H1041 0.930 . S
C1049 C1047 1.419 1_545 S
C1049 C1050 1.362 . S
C1050 H1042 0.930 . S
C1050 C1049 1.362 . S
C1050 C1053 1.409 . S
C1051 H1043 0.930 . S
C1051 C1052 1.355 . S
C1051 C1053 1.415 . S
C1052 C1051 1.355 . S
C1052 C1054 1.419 . S
C1053 C1048 1.425 . S
C1053 C1050 1.409 . S
C1053 C1051 1.415 . S
C1054 H1044 0.930 . S
C1054 C1052 1.419 . S
C1054 C1055 1.362 . S
C1055 H1045 0.930 1_545 S
C1055 C1048 1.409 . S
C1055 C1054 1.362 . S
H1056 C1062 0.930 . S
H1057 C1065 0.930 . S
H1058 C1066 0.930 . S
H1059 C1067 0.930 . S
H1060 C1070 0.930 . S
H1061 C1071 0.930 1_554 S
C1062 H1056 0.930 . S
C1062 C1063 1.355 . S
C1062 C1064 1.415 1_554 S
C1063 C1062 1.355 . S
C1063 C1065 1.419 1_554 S
C1064 C1062 1.415 1_556 S
C1064 C1069 1.425 . S
C1064 C1071 1.409 . S
C1065 H1057 0.930 . S
C1065 C1063 1.419 1_556 S
C1065 C1066 1.362 . S
C1066 H1058 0.930 . S
C1066 C1065 1.362 . S
C1066 C1069 1.409 . S
C1067 H1059 0.930 . S
C1067 C1068 1.355 . S
C1067 C1069 1.415 . S
C1068 C1067 1.355 . S
C1068 C1070 1.419 . S
C1069 C1064 1.425 . S
C1069 C1066 1.409 . S
C1069 C1067 1.415 . S
C1070 H1060 0.930 . S
C1070 C1068 1.419 . S
C1070 C1071 1.362 . S
C1071 H1061 0.930 1_556 S
C1071 C1064 1.409 . S
C1071 C1070 1.362 . S
H1072 C1078 0.930 . S
H1073 C1081 0.930 . S
H1074 C1082 0.930 . S
H1075 C1083 0.930 . S
H1076 C1086 0.930 . S
H1077 C1087 0.930 . S
C1078 H1072 0.930 . S
C1078 C1079 1.355 . S
C1078 C1080 1.415 . S
C1079 C1078 1.355 . S
C1079 C1081 1.419 . S
C1080 C1078 1.415 . S
C1080 C1085 1.425 1_655 S
C1080 C1087 1.409 . S
C1081 H1073 0.930 . S
C1081 C1079 1.419 . S
C1081 C1082 1.362 1_655 S
C1082 H1074 0.930 . S
C1082 C1081 1.362 1_455 S
C1082 C1085 1.409 . S
C1083 H1075 0.930 . S
C1083 C1084 1.355 . S
C1083 C1085 1.415 . S
C1084 C1083 1.355 . S
C1084 C1086 1.419 . S
C1085 C1080 1.425 1_455 S
C1085 C1082 1.409 . S
C1085 C1083 1.415 . S
C1086 H1076 0.930 . S
C1086 C1084 1.419 . S
C1086 C1087 1.362 1_455 S
C1087 H1077 0.930 . S
C1087 C1080 1.409 . S
C1087 C1086 1.362 1_655 S
H1088 C1094 0.930 . S
H1089 C1097 0.930 . S
H1090 C1098 0.930 . S
H1091 C1099 0.930 . S
H1092 C1102 0.930 . S
H1093 C1103 0.930 . S
C1094 H1088 0.930 . S
C1094 C1095 1.355 . S
C1094 C1096 1.415 . S
C1095 C1094 1.355 . S
C1095 C1097 1.419 . S
C1096 C1094 1.415 . S
C1096 C1101 1.425 . S
C1096 C1103 1.409 . S
C1097 H1089 0.930 . S
C1097 C1095 1.419 . S
C1097 C1098 1.362 . S
C1098 H1090 0.930 . S
C1098 C1097 1.362 . S
C1098 C1101 1.409 . S
C1099 H1091 0.930 . S
C1099 C1100 1.355 . S
C1099 C1101 1.415 . S
C1100 C1099 1.355 . S
C1100 C1102 1.419 . S
C1101 C1096 1.425 . S
C1101 C1098 1.409 . S
C1101 C1099 1.415 . S
C1102 H1092 0.930 . S
C1102 C1100 1.419 . S
C1102 C1103 1.362 . S
C1103 H1093 0.930 . S
C1103 C1096 1.409 . S
C1103 C1102 1.362 . S
H1104 C1110 0.930 . S
H1105 C1113 0.930 . S
H1106 C1114 0.930 . S
H1107 C1115 0.930 . S
H1108 C1118 0.930 . S
H1109 C1119 0.930 . S
C1110 H1104 0.930 . S
C1110 C1111 1.355 . S
C1110 C1112 1.415 . S
C1111 C1110 1.355 . S
C1111 C1113 1.419 1_455 S
C1112 C1110 1.415 . S
C1112 C1117 1.425 1_455 S
C1112 C1119 1.409 . S
C1113 H1105 0.930 . S
C1113 C1111 1.419 1_655 S
C1113 C1114 1.362 . S
C1114 H1106 0.930 . S
C1114 C1113 1.362 . S
C1114 C1117 1.409 . S
C1115 H1107 0.930 . S
C1115 C1116 1.355 . S
C1115 C1117 1.415 . S
C1116 C1115 1.355 . S
C1116 C1118 1.419 . S
C1117 C1112 1.425 1_655 S
C1117 C1114 1.409 . S
C1117 C1115 1.415 . S
C1118 H1108 0.930 . S
C1118 C1116 1.419 . S
C1118 C1119 1.362 1_655 S
C1119 H1109 0.930 . S
C1119 C1112 1.409 . S
C1119 C1118 1.362 1_455 S
H1120 C1126 0.937 . S
H1121 C1129 0.930 . S
H1122 C1130 0.930 . S
H1123 C1131 0.930 . S
H1124 C1134 0.930 . S
H1125 C1135 0.930 . S
C1126 H1120 0.937 . S
C1126 C1127 1.336 1_655 S
C1126 C1128 1.427 . S
C1127 C1126 1.336 1_455 S
C1127 C1129 1.419 . S
C1128 C1126 1.427 . S
C1128 C1133 1.425 . S
C1128 C1135 1.409 . S
C1129 H1121 0.930 . S
C1129 C1127 1.419 . S
C1129 C1130 1.362 . S
C1130 H1122 0.930 . S
C1130 C1129 1.362 . S
C1130 C1133 1.409 1_455 S
C1131 H1123 0.930 . S
C1131 C1132 1.355 . S
C1131 C1133 1.415 . S
C1132 C1131 1.355 . S
C1132 C1134 1.419 . S
C1133 C1128 1.425 . S
C1133 C1130 1.409 1_655 S
C1133 C1131 1.415 . S
C1134 H1124 0.930 . S
C1134 C1132 1.419 . S
C1134 C1135 1.362 . S
C1135 H1125 0.930 . S
C1135 C1128 1.409 . S
C1135 C1134 1.362 . S
H1136 C1142 0.930 . S
H1137 C1145 0.930 . S
H1138 C1146 0.930 . S
H1139 C1147 0.930 . S
H1140 C1150 0.930 . S
H1141 C1151 0.930 . S
C1142 H1136 0.930 . S
C1142 C1143 1.355 . S
C1142 C1144 1.415 . S
C1143 C1142 1.355 . S
C1143 C1145 1.419 . S
C1144 C1142 1.415 . S
C1144 C1149 1.425 . S
C1144 C1151 1.409 . S
C1145 H1137 0.930 . S
C1145 C1143 1.419 . S
C1145 C1146 1.362 . S
C1146 H1138 0.930 . S
C1146 C1145 1.362 . S
C1146 C1149 1.409 . S
C1147 H1139 0.930 . S
C1147 C1148 1.355 . S
C1147 C1149 1.415 . S
C1148 C1147 1.355 . S
C1148 C1150 1.419 . S
C1149 C1144 1.425 . S
C1149 C1146 1.409 . S
C1149 C1147 1.415 . S
C1150 H1140 0.930 . S
C1150 C1148 1.419 . S
C1150 C1151 1.362 . S
C1151 H1141 0.930 . S
C1151 C1144 1.409 . S
C1151 C1150 1.362 . S
H1152 C1158 0.930 . S
H1153 C1161 0.930 . S
H1154 C1162 0.930 . S
H1155 C1163 0.930 . S
H1156 C1166 0.930 . S
H1157 C1167 0.930 . S
C1158 H1152 0.930 . S
C1158 C1159 1.355 . S
C1158 C1160 1.415 . S
C1159 C1158 1.355 . S
C1159 C1161 1.419 1_655 S
C1160 C1158 1.415 . S
C1160 C1165 1.425 1_655 S
C1160 C1167 1.409 . S
C1161 H1153 0.930 . S
C1161 C1159 1.419 1_455 S
C1161 C1162 1.362 . S
C1162 H1154 0.930 . S
C1162 C1161 1.362 . S
C1162 C1165 1.409 . S
C1163 H1155 0.930 . S
C1163 C1164 1.355 . S
C1163 C1165 1.415 . S
C1164 C1163 1.355 . S
C1164 C1166 1.419 . S
C1165 C1160 1.425 1_455 S
C1165 C1162 1.409 . S
C1165 C1163 1.415 . S
C1166 H1156 0.930 . S
C1166 C1164 1.419 . S
C1166 C1167 1.362 1_455 S
C1167 H1157 0.930 . S
C1167 C1160 1.409 . S
C1167 C1166 1.362 1_655 S
H1168 C1174 0.930 . S
H1169 C1177 0.930 . S
H1170 C1178 0.930 . S
H1171 C1179 0.930 . S
H1172 C1182 0.930 . S
H1173 C1183 0.930 . S
C1174 H1168 0.930 . S
C1174 C1175 1.355 . S
C1174 C1176 1.415 . S
C1175 C1174 1.355 . S
C1175 C1177 1.419 . S
C1176 C1174 1.415 . S
C1176 C1181 1.425 . S
C1176 C1183 1.409 . S
C1177 H1169 0.930 . S
C1177 C1175 1.419 . S
C1177 C1178 1.362 . S
C1178 H1170 0.930 . S
C1178 C1177 1.362 . S
C1178 C1181 1.409 . S
C1179 H1171 0.930 . S
C1179 C1180 1.355 . S
C1179 C1181 1.415 . S
C1180 C1179 1.355 . S
C1180 C1182 1.419 . S
C1181 C1176 1.425 . S
C1181 C1178 1.409 . S
C1181 C1179 1.415 . S
C1182 H1172 0.930 . S
C1182 C1180 1.419 . S
C1182 C1183 1.362 . S
C1183 H1173 0.930 . S
C1183 C1176 1.409 . S
C1183 C1182 1.362 . S
H1184 C1190 0.930 . S
H1185 C1193 0.930 . S
H1186 C1194 0.930 . S
H1187 C1195 0.930 . S
H1188 C1198 0.930 . S
H1189 C1199 0.930 . S
C1190 H1184 0.930 . S
C1190 C1191 1.355 . S
C1190 C1192 1.415 . S
C1191 C1190 1.355 . S
C1191 C1193 1.419 . S
C1192 C1190 1.415 . S
C1192 C1197 1.425 . S
C1192 C1199 1.409 . S
C1193 H1185 0.930 . S
C1193 C1191 1.419 . S
C1193 C1194 1.362 . S
C1194 H1186 0.930 . S
C1194 C1193 1.362 . S
C1194 C1197 1.409 . S
C1195 H1187 0.930 . S
C1195 C1196 1.355 . S
C1195 C1197 1.415 . S
C1196 C1195 1.355 . S
C1196 C1198 1.419 . S
C1197 C1192 1.425 . S
C1197 C1194 1.409 . S
C1197 C1195 1.415 . S
C1198 H1188 0.930 . S
C1198 C1196 1.419 . S
C1198 C1199 1.362 . S
C1199 H1189 0.930 . S
C1199 C1192 1.409 . S
C1199 C1198 1.362 . S
H1200 C1206 0.930 . S
H1201 C1209 0.930 . S
H1202 C1210 0.930 . S
H1203 C1211 0.930 . S
H1204 C1214 0.930 . S
H1205 C1215 0.930 . S
C1206 H1200 0.930 . S
C1206 C1207 1.355 1_556 S
C1206 C1208 1.415 . S
C1207 C1206 1.355 1_554 S
C1207 C1209 1.419 . S
C1208 C1206 1.415 . S
C1208 C1213 1.425 . S
C1208 C1215 1.409 . S
C1209 H1201 0.930 . S
C1209 C1207 1.419 . S
C1209 C1210 1.362 . S
C1210 H1202 0.930 . S
C1210 C1209 1.362 . S
C1210 C1213 1.409 1_554 S
C1211 H1203 0.930 . S
C1211 C1212 1.355 . S
C1211 C1213 1.415 . S
C1212 C1211 1.355 . S
C1212 C1214 1.419 . S
C1213 C1208 1.425 . S
C1213 C1210 1.409 1_556 S
C1213 C1211 1.415 . S
C1214 H1204 0.930 . S
C1214 C1212 1.419 . S
C1214 C1215 1.362 . S
C1215 H1205 0.930 . S
C1215 C1208 1.409 . S
C1215 C1214 1.362 . S
H1216 C1222 0.930 . S
H1217 C1225 0.930 . S
H1218 C1226 0.930 . S
H1219 C1227 0.930 . S
H1220 C1230 0.930 . S
H1221 C1231 0.930 . S
C1222 H1216 0.930 . S
C1222 C1223 1.355 . S
C1222 C1224 1.415 . S
C1223 C1222 1.355 . S
C1223 C1225 1.419 . S
C1224 C1222 1.415 . S
C1224 C1229 1.425 . S
C1224 C1231 1.409 . S
C1225 H1217 0.930 . S
C1225 C1223 1.419 . S
C1225 C1226 1.362 . S
C1226 H1218 0.930 . S
C1226 C1225 1.362 . S
C1226 C1229 1.409 . S
C1227 H1219 0.930 . S
C1227 C1228 1.355 . S
C1227 C1229 1.415 . S
C1228 C1227 1.355 . S
C1228 C1230 1.419 . S
C1229 C1224 1.425 . S
C1229 C1226 1.409 . S
C1229 C1227 1.415 . S
C1230 H1220 0.930 . S
C1230 C1228 1.419 . S
C1230 C1231 1.362 . S
C1231 H1221 0.930 . S
C1231 C1224 1.409 . S
C1231 C1230 1.362 . S
H1232 C1238 0.930 . S
H1233 C1241 0.930 . S
H1234 C1242 0.930 . S
H1235 C1243 0.930 . S
H1236 C1246 0.930 . S
H1237 C1247 0.930 . S
C1238 H1232 0.930 . S
C1238 C1239 1.355 . S
C1238 C1240 1.415 . S
C1239 C1238 1.355 . S
C1239 C1241 1.419 . S
C1240 C1238 1.415 . S
C1240 C1245 1.425 . S
C1240 C1247 1.409 . S
C1241 H1233 0.930 . S
C1241 C1239 1.419 . S
C1241 C1242 1.362 . S
C1242 H1234 0.930 . S
C1242 C1241 1.362 . S
C1242 C1245 1.409 . S
C1243 H1235 0.930 . S
C1243 C1244 1.355 . S
C1243 C1245 1.415 . S
C1244 C1243 1.355 . S
C1244 C1246 1.419 . S
C1245 C1240 1.425 . S
C1245 C1242 1.409 . S
C1245 C1243 1.415 . S
C1246 H1236 0.930 . S
C1246 C1244 1.419 . S
C1246 C1247 1.362 . S
C1247 H1237 0.930 . S
C1247 C1240 1.409 . S
C1247 C1246 1.362 . S
H1248 C1254 0.930 . S
H1249 C1257 0.930 . S
H1250 C1258 0.930 . S
H1251 C1259 0.930 . S
H1252 C1262 0.930 . S
H1253 C1263 0.930 . S
C1254 H1248 0.930 . S
C1254 C1255 1.355 . S
C1254 C1256 1.415 . S
C1255 C1254 1.355 . S
C1255 C1257 1.419 . S
C1256 C1254 1.415 . S
C1256 C1261 1.425 . S
C1256 C1263 1.409 . S
C1257 H1249 0.930 . S
C1257 C1255 1.419 . S
C1257 C1258 1.362 . S
C1258 H1250 0.930 . S
C1258 C1257 1.362 . S
C1258 C1261 1.409 . S
C1259 H1251 0.930 . S
C1259 C1260 1.355 . S
C1259 C1261 1.415 . S
C1260 C1259 1.355 . S
C1260 C1262 1.419 . S
C1261 C1256 1.425 . S
C1261 C1258 1.409 . S
C1261 C1259 1.415 . S
C1262 H1252 0.930 . S
C1262 C1260 1.419 . S
C1262 C1263 1.362 . S
C1263 H1253 0.930 . S
C1263 C1256 1.409 . S
C1263 C1262 1.362 . S
H1264 C1270 0.930 . S
H1265 C1273 0.930 . S
H1266 C1274 0.930 . S
H1267 C1275 0.930 1_554 S
H1268 C1278 0.930 . S
H1269 C1279 0.930 . S
C1270 H1264 0.930 . S
C1270 C1271 1.355 . S
C1270 C1272 1.415 . S
C1271 C1270 1.355 . S
C1271 C1273 1.419 . S
C1272 C1270 1.415 . S
C1272 C1277 1.425 . S
C1272 C1279 1.409 1_554 S
C1273 H1265 0.930 . S
C1273 C1271 1.419 . S
C1273 C1274 1.362 . S
C1274 H1266 0.930 . S
C1274 C1273 1.362 . S
C1274 C1277 1.409 . S
C1275 H1267 0.930 1_556 S
C1275 C1276 1.355 . S
C1275 C1277 1.415 1_556 S
C1276 C1275 1.355 . S
C1276 C1278 1.419 . S
C1277 C1272 1.425 . S
C1277 C1274 1.409 . S
C1277 C1275 1.415 1_554 S
C1278 H1268 0.930 . S
C1278 C1276 1.419 . S
C1278 C1279 1.362 . S
C1279 H1269 0.930 . S
C1279 C1272 1.409 1_556 S
C1279 C1278 1.362 . S
H1280 C1286 0.930 . S
H1281 C1289 0.930 . S
H1282 C1290 0.930 . S
H1283 C1291 0.930 . S
H1284 C1294 0.930 . S
H1285 C1295 0.930 . S
C1286 H1280 0.930 . S
C1286 C1287 1.355 . S
C1286 C1288 1.415 . S
C1287 C1286 1.355 . S
C1287 C1289 1.419 . S
C1288 C1286 1.415 . S
C1288 C1293 1.425 . S
C1288 C1295 1.409 . S
C1289 H1281 0.930 . S
C1289 C1287 1.419 . S
C1289 C1290 1.362 . S
C1290 H1282 0.930 . S
C1290 C1289 1.362 . S
C1290 C1293 1.409 . S
C1291 H1283 0.930 . S
C1291 C1292 1.355 . S
C1291 C1293 1.415 . S
C1292 C1291 1.355 . S
C1292 C1294 1.419 . S
C1293 C1288 1.425 . S
C1293 C1290 1.409 . S
C1293 C1291 1.415 . S
C1294 H1284 0.930 . S
C1294 C1292 1.419 . S
C1294 C1295 1.362 . S
C1295 H1285 0.930 . S
C1295 C1288 1.409 . S
C1295 C1294 1.362 . S
H1296 C1302 0.930 . S
H1297 C1305 0.930 . S
H1298 C1306 0.930 . S
H1299 C1307 0.930 . S
H1300 C1310 0.930 . S
H1301 C1311 0.930 . S
C1302 H1296 0.930 . S
C1302 C1303 1.355 . S
C1302 C1304 1.415 . S
C1303 C1302 1.355 . S
C1303 C1305 1.419 . S
C1304 C1302 1.415 . S
C1304 C1309 1.425 . S
C1304 C1311 1.409 . S
C1305 H1297 0.930 . S
C1305 C1303 1.419 . S
C1305 C1306 1.362 . S
C1306 H1298 0.930 . S
C1306 C1305 1.362 . S
C1306 C1309 1.409 . S
C1307 H1299 0.930 . S
C1307 C1308 1.355 . S
C1307 C1309 1.415 . S
C1308 C1307 1.355 . S
C1308 C1310 1.419 . S
C1309 C1304 1.425 . S
C1309 C1306 1.409 . S
C1309 C1307 1.415 . S
C1310 H1300 0.930 . S
C1310 C1308 1.419 . S
C1310 C1311 1.362 . S
C1311 H1301 0.930 . S
C1311 C1304 1.409 . S
C1311 C1310 1.362 . S
H1312 C1318 0.930 . S
H1313 C1321 0.930 . S
H1314 C1322 0.930 . S
H1315 C1323 0.930 . S
H1316 C1326 0.930 . S
H1317 C1327 0.930 . S
C1318 H1312 0.930 . S
C1318 C1319 1.355 . S
C1318 C1320 1.415 . S
C1319 C1318 1.355 . S
C1319 C1321 1.419 . S
C1320 C1318 1.415 . S
C1320 C1325 1.425 . S
C1320 C1327 1.409 . S
C1321 H1313 0.930 . S
C1321 C1319 1.419 . S
C1321 C1322 1.362 . S
C1322 H1314 0.930 . S
C1322 C1321 1.362 . S
C1322 C1325 1.409 . S
C1323 H1315 0.930 . S
C1323 C1324 1.355 . S
C1323 C1325 1.415 . S
C1324 C1323 1.355 . S
C1324 C1326 1.419 . S
C1325 C1320 1.425 . S
C1325 C1322 1.409 . S
C1325 C1323 1.415 . S
C1326 H1316 0.930 . S
C1326 C1324 1.419 . S
C1326 C1327 1.362 . S
C1327 H1317 0.930 . S
C1327 C1320 1.409 . S
C1327 C1326 1.362 . S
H1328 C1334 0.930 . S
H1329 C1337 0.930 . S
H1330 C1338 0.930 . S
H1331 C1339 0.930 . S
H1332 C1342 0.930 . S
H1333 C1343 0.930 . S
C1334 H1328 0.930 . S
C1334 C1335 1.355 . S
C1334 C1336 1.415 . S
C1335 C1334 1.355 . S
C1335 C1337 1.419 . S
C1336 C1334 1.415 . S
C1336 C1341 1.425 . S
C1336 C1343 1.409 . S
C1337 H1329 0.930 . S
C1337 C1335 1.419 . S
C1337 C1338 1.362 . S
C1338 H1330 0.930 . S
C1338 C1337 1.362 . S
C1338 C1341 1.409 . S
C1339 H1331 0.930 . S
C1339 C1340 1.355 . S
C1339 C1341 1.415 . S
C1340 C1339 1.355 . S
C1340 C1342 1.419 . S
C1341 C1336 1.425 . S
C1341 C1338 1.409 . S
C1341 C1339 1.415 . S
C1342 H1332 0.930 . S
C1342 C1340 1.419 . S
C1342 C1343 1.362 . S
C1343 H1333 0.930 . S
C1343 C1336 1.409 . S
C1343 C1342 1.362 . S
H1344 C1350 0.930 . S
H1345 C1353 0.930 . S
H1346 C1354 0.930 1_556 S
H1347 C1355 0.930 . S
H1348 C1358 0.930 . S
H1349 C1359 0.930 . S
C1350 H1344 0.930 . S
C1350 C1351 1.355 . S
C1350 C1352 1.415 . S
C1351 C1350 1.355 . S
C1351 C1353 1.419 . S
C1352 C1350 1.415 . S
C1352 C1357 1.425 . S
C1352 C1359 1.409 . S
C1353 H1345 0.930 . S
C1353 C1351 1.419 . S
C1353 C1354 1.362 . S
C1354 H1346 0.930 1_554 S
C1354 C1353 1.362 . S
C1354 C1357 1.409 . S
C1355 H1347 0.930 . S
C1355 C1356 1.355 . S
C1355 C1357 1.415 1_556 S
C1356 C1355 1.355 . S
C1356 C1358 1.419 1_556 S
C1357 C1352 1.425 . S
C1357 C1354 1.409 . S
C1357 C1355 1.415 1_554 S
C1358 H1348 0.930 . S
C1358 C1356 1.419 1_554 S
C1358 C1359 1.362 . S
C1359 H1349 0.930 . S
C1359 C1352 1.409 . S
C1359 C1358 1.362 . S
H1360 C1366 0.930 . S
H1361 C1369 0.930 . S
H1362 C1370 0.930 . S
H1363 C1371 0.930 . S
H1364 C1374 0.930 . S
H1365 C1375 0.930 . S
C1366 H1360 0.930 . S
C1366 C1367 1.355 . S
C1366 C1368 1.415 . S
C1367 C1366 1.355 . S
C1367 C1369 1.419 . S
C1368 C1366 1.415 . S
C1368 C1373 1.425 . S
C1368 C1375 1.409 . S
C1369 H1361 0.930 . S
C1369 C1367 1.419 . S
C1369 C1370 1.362 . S
C1370 H1362 0.930 . S
C1370 C1369 1.362 . S
C1370 C1373 1.409 . S
C1371 H1363 0.930 . S
C1371 C1372 1.355 . S
C1371 C1373 1.415 . S
C1372 C1371 1.355 . S
C1372 C1374 1.419 . S
C1373 C1368 1.425 . S
C1373 C1370 1.409 . S
C1373 C1371 1.415 . S
C1374 H1364 0.930 . S
C1374 C1372 1.419 . S
C1374 C1375 1.362 . S
C1375 H1365 0.930 . S
C1375 C1368 1.409 . S
C1375 C1374 1.362 . S
H1376 C1382 0.930 . S
H1377 C1385 0.930 . S
H1378 C1386 0.930 . S
H1379 C1387 0.930 . S
H1380 C1390 0.930 . S
H1381 C1391 0.930 . S
C1382 H1376 0.930 . S
C1382 C1383 1.355 . S
C1382 C1384 1.415 . S
C1383 C1382 1.355 . S
C1383 C1385 1.419 . S
C1384 C1382 1.415 . S
C1384 C1389 1.425 . S
C1384 C1391 1.409 . S
C1385 H1377 0.930 . S
C1385 C1383 1.419 . S
C1385 C1386 1.362 . S
C1386 H1378 0.930 . S
C1386 C1385 1.362 . S
C1386 C1389 1.409 . S
C1387 H1379 0.930 . S
C1387 C1388 1.355 . S
C1387 C1389 1.415 . S
C1388 C1387 1.355 . S
C1388 C1390 1.419 . S
C1389 C1384 1.425 . S
C1389 C1386 1.409 . S
C1389 C1387 1.415 . S
C1390 H1380 0.930 . S
C1390 C1388 1.419 . S
C1390 C1391 1.362 . S
C1391 H1381 0.930 . S
C1391 C1384 1.409 . S
C1391 C1390 1.362 . S
H1392 C1398 0.930 . S
H1393 C1401 0.930 . S
H1394 C1402 0.930 . S
H1395 C1403 0.930 . S
H1396 C1406 0.930 . S
H1397 C1407 0.930 . S
C1398 H1392 0.930 . S
C1398 C1399 1.355 . S
C1398 C1400 1.415 . S
C1399 C1398 1.355 . S
C1399 C1401 1.419 . S
C1400 C1398 1.415 . S
C1400 C1405 1.425 . S
C1400 C1407 1.409 . S
C1401 H1393 0.930 . S
C1401 C1399 1.419 . S
C1401 C1402 1.362 . S
C1402 H1394 0.930 . S
C1402 C1401 1.362 . S
C1402 C1405 1.409 . S
C1403 H1395 0.930 . S
C1403 C1404 1.355 . S
C1403 C1405 1.415 . S
C1404 C1403 1.355 . S
C1404 C1406 1.419 . S
C1405 C1400 1.425 . S
C1405 C1402 1.409 . S
C1405 C1403 1.415 . S
C1406 H1396 0.930 . S
C1406 C1404 1.419 . S
C1406 C1407 1.362 . S
C1407 H1397 0.930 . S
C1407 C1400 1.409 . S
C1407 C1406 1.362 . S
H1408 C1414 0.930 . S
H1409 C1417 0.930 . S
H1410 C1418 0.930 . S
H1411 C1419 0.930 . S
H1412 C1422 0.930 . S
H1413 C1423 0.906 1_554 S
C1414 H1408 0.930 . S
C1414 C1415 1.355 . S
C1414 C1416 1.415 1_554 S
C1415 C1414 1.355 . S
C1415 C1417 1.419 1_554 S
C1416 C1414 1.415 1_556 S
C1416 C1421 1.425 . S
C1416 C1423 1.410 . S
C1417 H1409 0.930 . S
C1417 C1415 1.419 1_556 S
C1417 C1418 1.362 . S
C1418 H1410 0.930 . S
C1418 C1417 1.362 . S
C1418 C1421 1.409 . S
C1419 H1411 0.930 . S
C1419 C1420 1.355 . S
C1419 C1421 1.415 . S
C1420 C1419 1.355 . S
C1420 C1422 1.419 . S
C1421 C1416 1.425 . S
C1421 C1418 1.409 . S
C1421 C1419 1.415 . S
C1422 H1412 0.930 . S
C1422 C1420 1.419 . S
C1422 C1423 1.386 . S
C1423 H1413 0.906 1_556 S
C1423 C1416 1.410 . S
C1423 C1422 1.386 . S
H1424 C1430 0.930 . S
H1425 C1433 0.930 . S
H1426 C1434 0.930 . S
H1427 C1435 0.930 . S
H1428 C1438 0.930 . S
H1429 C1439 0.930 . S
C1430 H1424 0.930 . S
C1430 C1431 1.355 . S
C1430 C1432 1.415 . S
C1431 C1430 1.355 . S
C1431 C1433 1.419 . S
C1432 C1430 1.415 . S
C1432 C1437 1.425 . S
C1432 C1439 1.409 . S
C1433 H1425 0.930 . S
C1433 C1431 1.419 . S
C1433 C1434 1.362 . S
C1434 H1426 0.930 . S
C1434 C1433 1.362 . S
C1434 C1437 1.409 . S
C1435 H1427 0.930 . S
C1435 C1436 1.355 . S
C1435 C1437 1.415 . S
C1436 C1435 1.355 . S
C1436 C1438 1.419 . S
C1437 C1432 1.425 . S
C1437 C1434 1.409 . S
C1437 C1435 1.415 . S
C1438 H1428 0.930 . S
C1438 C1436 1.419 . S
C1438 C1439 1.362 . S
C1439 H1429 0.930 . S
C1439 C1432 1.409 . S
C1439 C1438 1.362 . S
H1440 C1446 0.930 . S
H1441 C1449 0.930 . S
H1442 C1450 0.930 . S
H1443 C1451 0.930 . S
H1444 C1454 0.930 . S
H1445 C1455 0.930 . S
C1446 H1440 0.930 . S
C1446 C1447 1.355 . S
C1446 C1448 1.415 . S
C1447 C1446 1.355 . S
C1447 C1449 1.419 . S
C1448 C1446 1.415 . S
C1448 C1453 1.425 . S
C1448 C1455 1.409 . S
C1449 H1441 0.930 . S
C1449 C1447 1.419 . S
C1449 C1450 1.362 . S
C1450 H1442 0.930 . S
C1450 C1449 1.362 . S
C1450 C1453 1.409 . S
C1451 H1443 0.930 . S
C1451 C1452 1.355 . S
C1451 C1453 1.415 . S
C1452 C1451 1.355 . S
C1452 C1454 1.419 . S
C1453 C1448 1.425 . S
C1453 C1450 1.409 . S
C1453 C1451 1.415 . S
C1454 H1444 0.930 . S
C1454 C1452 1.419 . S
C1454 C1455 1.362 . S
C1455 H1445 0.930 . S
C1455 C1448 1.409 . S
C1455 C1454 1.362 . S
H1456 C1462 0.930 . S
H1457 C1465 0.930 . S
H1458 C1466 0.930 . S
H1459 C1467 0.930 . S
H1460 C1470 0.930 . S
H1461 C1471 0.930 . S
C1462 H1456 0.930 . S
C1462 C1463 1.355 . S
C1462 C1464 1.415 . S
C1463 C1462 1.355 . S
C1463 C1465 1.419 . S
C1464 C1462 1.415 . S
C1464 C1469 1.425 . S
C1464 C1471 1.409 . S
C1465 H1457 0.930 . S
C1465 C1463 1.419 . S
C1465 C1466 1.362 . S
C1466 H1458 0.930 . S
C1466 C1465 1.362 . S
C1466 C1469 1.409 . S
C1467 H1459 0.930 . S
C1467 C1468 1.355 . S
C1467 C1469 1.415 . S
C1468 C1467 1.355 . S
C1468 C1470 1.419 . S
C1469 C1464 1.425 . S
C1469 C1466 1.409 . S
C1469 C1467 1.415 . S
C1470 H1460 0.930 . S
C1470 C1468 1.419 . S
C1470 C1471 1.362 . S
C1471 H1461 0.930 . S
C1471 C1464 1.409 . S
C1471 C1470 1.362 . S
C455 C8 1.122 . S
C460 C190 1.129 . S
C471 C358 1.279 . S
C476 C22 1.266 . S
C487 C36 1.256 . S
C492 C218 1.262 . S
C503 C50 1.324 . S
C508 C344 1.317 . S
C519 C64 1.362 . S
C524 C246 1.351 . S
C535 C78 1.358 . S
C540 C316 1.344 . S
C551 C92 1.355 . S
C556 C274 1.317 . S
C567 C442 1.135 . S
C572 C106 1.081 . S
C583 C302 1.354 . S
C588 C120 1.360 . S
C599 C134 1.316 . S
C604 C260 1.340 . S
C615 C330 1.306 . S
C620 C148 1.353 . S
C631 C162 1.320 . S
C636 C232 1.315 . S
C647 C204 1.271 . S
C652 C176 1.274 . S
C663 C288 1.068 . S
C668 C400 1.115 . S
C679 C414 1.138 . S
C684 C372 1.136 . S
C695 C428 1.259 . S
C700 C386 1.252 . S
C711 C13 1.535 . S
C716 C27 1.518 . S
C727 C39 1.620 . S
C732 C21 1.594 . S
C743 C55 1.479 . S
C748 C41 1.467 . S
C759 C49 1.598 . S
C764 C11 1.552 . S
C775 C105 1.666 . S
C780 C69 1.488 . S
C791 C81 1.279 . S
C796 C67 1.233 . S
C807 C91 1.458 . S
C812 C77 1.483 . S
C823 C97 1.180 . S
C828 C109 1.384 . S
C839 C139 1.297 . S
C844 C7 1.437 . S
C855 C119 1.597 . S
C860 C53 1.561 . S
C871 C151 1.355 . S
C876 C25 1.388 . S
C887 C385 1.590 . S
C892 C111 1.382 . S
C903 C405 1.433 . S
C908 C35 1.577 . S
C919 C165 1.595 . S
C924 C63 1.569 . S
C935 C95 1.363 . S
C940 C179 1.353 . S
C951 C203 1.475 . S
C956 C195 1.335 . S
C967 C217 1.519 . S
C972 C209 1.386 . S
C983 C237 1.374 . S
C988 C223 1.455 . S
C999 C189 1.535 . S
C1004 C235 1.531 . S
C1015 C245 1.504 . S
C1020 C293 1.468 . S
C1031 C249 1.452 . S
C1036 C263 1.445 . S
C1047 C279 1.449 . S
C1052 C265 1.526 . S
C1063 C273 1.498 . S
C1068 C291 1.503 . S
C1079 C193 1.593 . S
C1084 C315 1.593 . S
C1095 C307 1.418 . S
C1100 C231 1.518 . S
C1111 C333 1.342 . S
C1116 C207 1.352 . S
C1127 C431 1.607 . S
C1132 C287 1.603 . S
C1143 C441 1.586 . S
C1148 C221 1.584 . S
C1159 C251 1.415 . S
C1164 C343 1.519 . S
C1175 C361 1.346 . S
C1180 C277 1.338 . S
C1191 C181 1.450 . S
C1196 C377 1.449 . S
C1207 C389 1.621 . S
C1212 C175 1.594 . S
C1223 C167 1.488 . S
C1228 C391 1.501 . S
C1239 C161 1.584 . S
C1244 C375 1.571 . S
C1255 C125 1.504 . S
C1260 C399 1.694 . S
C1271 C137 1.256 . S
C1276 C123 1.281 . S
C1287 C147 1.455 . S
C1292 C133 1.486 . S
C1303 C153 1.227 . S
C1308 C403 1.403 . S
C1319 C371 1.430 . S
C1324 C83 1.238 . S
C1335 C357 1.432 . S
C1340 C419 1.420 . S
C1351 C363 1.481 . S
C1356 C427 1.508 . S
C1367 C433 1.442 . S
C1372 C349 1.408 . S
C1383 C347 1.533 . S
C1388 C413 1.529 . S
C1399 C447 1.460 . S
C1404 C301 1.498 . S
C1415 C305 1.413 . S
C1420 C319 1.417 . S
C1431 C335 1.504 . S
C1436 C321 1.512 . S
C1447 C329 1.478 . S
C1452 C445 1.484 . S
C1463 C417 1.616 . S
C1468 C259 1.613 . S
