# Generated by pormake.
# Topology lcy-e, (6)-cn, num edge types: 1
# Building blocks:
#     Node 0, Type 0, BuildingBlock: KUMBUR_clean_sbu_1, # of connection points: 6
#     Node 1, Type 0, BuildingBlock: KUMBUR_clean_sbu_1, # of connection points: 6
#     Node 2, Type 0, BuildingBlock: KUMBUR_clean_sbu_1, # of connection points: 6
#     Node 3, Type 0, BuildingBlock: KUMBUR_clean_sbu_1, # of connection points: 6
#     Node 4, Type 0, BuildingBlock: KUMBUR_clean_sbu_1, # of connection points: 6
#     Node 5, Type 0, BuildingBlock: KUMBUR_clean_sbu_1, # of connection points: 6
#     Node 6, Type 0, BuildingBlock: KUMBUR_clean_sbu_1, # of connection points: 6
#     Node 7, Type 0, BuildingBlock: KUMBUR_clean_sbu_1, # of connection points: 6
#     Node 8, Type 0, BuildingBlock: KUMBUR_clean_sbu_1, # of connection points: 6
#     Node 9, Type 0, BuildingBlock: KUMBUR_clean_sbu_1, # of connection points: 6
#     Node 10, Type 0, BuildingBlock: KUMBUR_clean_sbu_1, # of connection points: 6
#     Node 11, Type 0, BuildingBlock: KUMBUR_clean_sbu_1, # of connection points: 6
#     Edge 12, Type (0, 0), None
#     Edge 13, Type (0, 0), None
#     Edge 14, Type (0, 0), None
#     Edge 15, Type (0, 0), None
#     Edge 16, Type (0, 0), None
#     Edge 17, Type (0, 0), None
#     Edge 18, Type (0, 0), None
#     Edge 19, Type (0, 0), None
#     Edge 20, Type (0, 0), None
#     Edge 21, Type (0, 0), None
#     Edge 22, Type (0, 0), None
#     Edge 23, Type (0, 0), None
#     Edge 24, Type (0, 0), None
#     Edge 25, Type (0, 0), None
#     Edge 26, Type (0, 0), None
#     Edge 27, Type (0, 0), None
#     Edge 28, Type (0, 0), None
#     Edge 29, Type (0, 0), None
#     Edge 30, Type (0, 0), None
#     Edge 31, Type (0, 0), None
#     Edge 32, Type (0, 0), None
#     Edge 33, Type (0, 0), None
#     Edge 34, Type (0, 0), None
#     Edge 35, Type (0, 0), None
#     Edge 36, Type (0, 0), None
#     Edge 37, Type (0, 0), None
#     Edge 38, Type (0, 0), None
#     Edge 39, Type (0, 0), None
#     Edge 40, Type (0, 0), None
#     Edge 41, Type (0, 0), None
#     Edge 42, Type (0, 0), None
#     Edge 43, Type (0, 0), None
#     Edge 44, Type (0, 0), None
#     Edge 45, Type (0, 0), None
#     Edge 46, Type (0, 0), None
#     Edge 47, Type (0, 0), None
# Relax obj value: 0.096
# Max RMSD: 0.274
# Mean RMSD: 0.269
data_MOF--net-lcy-e--node1-KUMBUR_clean_sbu_1--edge1-none
_symmetry_space_group_name_H-M    P1
_symmetry_Int_Tables_number       1
_symmetry_cell_setting            triclinic
loop_
_symmetry_equiv_pos_as_xyz
'x, y, z'
_cell_length_a     23.739418
_cell_length_b     23.67029
_cell_length_c     23.706653
_cell_angle_alpha  89.854199
_cell_angle_beta   90.114971
_cell_angle_gamma 89.832531
loop_
_atom_site_label
_atom_site_type_symbol
_atom_site_fract_x
_atom_site_fract_y
_atom_site_fract_z
_atom_type_partial_charge
Tb0 Tb 0.16413 0.2281 0.57882 0.0
C1 C 0.03129 0.29534 0.37581 0.0
N2 N 0.08567 0.28603 0.39171 0.0
C3 C 0.10072 0.22854 0.30953 0.0
C4 C 1.00925 0.26986 0.32673 0.0
C5 C 0.1217 0.25746 0.35632 0.0
C6 C 0.04387 0.23374 0.29539 0.0
C7 C 0.9502 0.35774 0.37965 0.0
C8 C 1.00118 0.33776 0.40317 0.0
C9 C 0.92691 0.33046 0.33262 0.0
C10 C 0.95588 0.28591 0.30688 0.0
Tb11 Tb 0.11613 0.34003 0.46612 0.0
N12 N 0.02615 0.36558 0.44675 0.0
C13 C 0.92696 0.40782 0.40056 0.0
C14 C 1.00323 0.41382 0.46793 0.0
C15 C 0.95435 0.43667 0.44389 0.0
H16 H 0.16615 0.25518 0.36614 0.0
H17 H 0.93716 0.47609 0.4591 0.0
H18 H 0.20081 0.31208 0.68534 0.0
H19 H 0.25671 0.03997 0.49054 0.0
H20 H 0.02598 0.43699 0.49958 0.0
H21 H 0.88873 0.42541 0.38255 0.0
H22 H 0.19269 0.12147 0.49034 0.0
H23 H 0.12868 0.20355 0.28356 0.0
H24 H 0.88789 0.34539 0.31401 0.0
H25 H 0.93871 0.26713 0.26899 0.0
H26 H 0.27561 0.31169 0.7584 0.0
H27 H 0.02821 0.21308 0.25778 0.0
H28 H 0.32642 0.02902 0.56724 0.0
N29 N 0.23426 0.24046 0.64243 0.0
C30 C 0.27354 0.19899 0.64268 0.0
C31 C 0.27512 0.28024 0.72587 0.0
C32 C 0.31216 0.19433 0.68738 0.0
C33 C 0.23349 0.28029 0.68411 0.0
C34 C 0.31403 0.23647 0.72824 0.0
N35 N 0.23294 0.16317 0.55931 0.0
C36 C 0.22644 0.12026 0.52084 0.0
C37 C 0.30539 0.10928 0.60563 0.0
C38 C 0.2719 0.1582 0.60079 0.0
C39 C 0.30102 0.06707 0.56479 0.0
C40 C 0.26179 0.07305 0.52157 0.0
H41 H 0.34389 0.23454 0.76285 0.0
H42 H 0.36581 0.13804 0.73206 0.0
H43 H 0.35525 0.06059 0.66354 0.0
O44 O 0.12747 0.14845 0.5733 0.0
O45 O 0.1974 0.22533 0.49336 0.0
O46 O 0.20573 0.31698 0.46906 0.0
O47 O 0.14972 0.18281 0.65457 0.0
O48 O 0.07664 0.2255 0.54644 0.0
O49 O 0.10159 0.25086 0.46114 0.0
O50 O 0.10405 0.41159 0.41374 0.0
O51 O 0.07779 0.34829 0.55865 0.0
O52 O 0.11438 0.28443 0.6272 0.0
O53 O 0.18377 0.36978 0.41615 0.0
O54 O 0.14436 0.38659 0.53758 0.0
O55 O 0.20222 0.31855 0.58123 0.0
C56 C 0.22746 0.2663 0.47291 0.0
C57 C 0.07714 0.11368 0.64917 0.0
C58 C 0.02916 0.02924 0.68311 0.0
C59 C 0.97767 0.05915 0.67989 0.0
C60 C 0.02585 0.14307 0.64805 0.0
C61 C 0.97623 0.11555 0.66272 0.0
C62 C 0.07869 0.05662 0.66597 0.0
C63 C 0.06661 0.2235 0.49247 0.0
C64 C 0.12841 0.13984 0.62745 0.0
C65 C 0.34357 0.14521 0.69319 0.0
C66 C 0.33801 0.10163 0.65397 0.0
C67 C 0.08266 0.32704 0.61321 0.0
C68 C 0.15264 0.40008 0.32547 0.0
C69 C 0.20153 0.4082 0.23387 0.0
C70 C 0.15378 0.38719 0.20644 0.0
C71 C 0.10373 0.38492 0.29565 0.0
C72 C 0.20178 0.4111 0.29383 0.0
C73 C 0.10505 0.37583 0.23736 0.0
C74 C 0.18783 0.37297 0.56898 0.0
C75 C 0.1524 0.40556 0.38866 0.0
H76 H 0.93845 0.03978 0.69263 0.0
H77 H 1.02405 0.1869 0.63506 0.0
H78 H 0.93655 0.13816 0.66143 0.0
H79 H 0.11851 0.03407 0.66667 0.0
H80 H 0.15209 0.38536 0.16081 0.0
H81 H 0.06397 0.38131 0.31689 0.0
H82 H 0.23892 0.42646 0.31531 0.0
H83 H 0.06701 0.36318 0.21559 0.0
Tb84 Tb 0.07154 0.92461 0.82074 0.0
C85 C 0.99147 0.76845 0.65448 0.0
N86 N 1.00207 0.82415 0.66171 0.0
C87 C 0.05013 0.82628 0.57246 0.0
C88 C 1.0123 0.73882 0.60741 0.0
C89 C 0.0344 0.85214 0.62309 0.0
C90 C 0.03885 0.76912 0.56443 0.0
C91 C 0.96136 0.68103 0.697 0.0
C92 C 0.96225 0.74023 0.69615 0.0
C93 C 0.98899 0.65103 0.65433 0.0
C94 C 1.0101 0.67972 0.60718 0.0
Tb95 Tb 0.95833 0.86341 0.73903 0.0
N96 N 0.93666 0.77063 0.73713 0.0
C97 C 0.93289 0.65416 0.74083 0.0
C98 C 0.90283 0.74496 0.77536 0.0
C99 C 0.89997 0.68605 0.77754 0.0
H100 H 0.05137 0.89322 0.63211 0.0
H101 H 0.87318 0.6651 0.80763 0.0
H102 H 0.99664 0.04732 0.80781 0.0
H103 H 0.27759 0.87762 0.7375 0.0
H104 H 0.88012 0.7702 0.80495 0.0
H105 H 0.93453 0.60897 0.74562 0.0
H106 H 0.18315 0.85528 0.77265 0.0
H107 H 0.07458 0.84935 0.54161 0.0
H108 H 0.99367 0.60583 0.65706 0.0
H109 H 0.02859 0.65598 0.57288 0.0
H110 H 1.01635 0.14721 0.79431 0.0
H111 H 0.05459 0.74802 0.52711 0.0
H112 H 0.30852 0.97717 0.73186 0.0
N113 N 0.08276 1.0212 0.80852 0.0
C114 C 0.1354 0.03735 0.7928 0.0
C115 C 0.05073 0.1171 0.79599 0.0
C116 C 0.14868 0.0946 0.78307 0.0
C117 C 0.03997 0.0599 0.80585 0.0
C118 C 0.10543 0.1346 0.78514 0.0
N119 N 0.15715 0.94108 0.78003 0.0
C120 C 0.19423 0.89891 0.76653 0.0
C121 C 0.22845 1.01033 0.76062 0.0
C122 C 0.17377 0.99582 0.77802 0.0
C123 C 0.26603 0.96745 0.74534 0.0
C124 C 0.24862 0.91137 0.74797 0.0
H125 H 0.11291 0.1783 0.77436 0.0
H126 H 0.21549 0.15291 0.76131 0.0
H127 H 0.28709 0.07797 0.7522 0.0
O128 O 0.12321 0.85851 0.85598 0.0
O129 O 0.07636 0.95268 0.73256 0.0
O130 O 0.98274 0.95138 0.72695 0.0
O131 O 0.12393 0.94138 0.89075 0.0
O132 O 0.05186 0.85618 0.76081 0.0
O133 O 0.04907 0.85505 0.75869 0.0
O134 O 0.8985 0.85046 0.67301 0.0
O135 O 0.95685 0.83237 0.83218 0.0
O136 O 1.01662 0.88958 0.88603 0.0
O137 O 0.90396 0.92978 0.71413 0.0
O138 O 0.90982 0.89412 0.8077 0.0
O139 O 0.97866 0.95806 0.83827 0.0
C140 C 0.03038 0.97223 0.70986 0.0
C141 C 0.21188 0.89226 0.89646 0.0
C142 C 0.30368 0.8529 0.92889 0.0
C143 C 0.33011 0.902 0.90919 0.0
C144 C 0.24037 0.94332 0.88577 0.0
C145 C 0.29868 0.9469 0.88841 0.0
C146 C 0.24455 0.84617 0.91858 0.0
C147 C 0.07377 0.80519 0.76481 0.0
C148 C 0.14799 0.892 0.89191 0.0
C149 C 0.20379 0.10933 0.76793 0.0
C150 C 0.24408 0.06705 0.75971 0.0
C151 C 0.98011 0.84802 0.88262 0.0
C152 C 0.88999 0.93453 0.61574 0.0
C153 C 0.8583 0.98502 0.52966 0.0
C154 C 0.91507 0.98908 0.51335 0.0
C155 C 0.9447 0.94655 0.59918 0.0
C156 C 0.84566 0.95647 0.58156 0.0
C157 C 0.95777 0.9718 0.5486 0.0
C158 C 0.9234 0.94172 0.83253 0.0
C159 C 0.88321 0.90354 0.67087 0.0
H160 H 0.37493 0.90814 0.91556 0.0
H161 H 0.21764 0.98162 0.87617 0.0
H162 H 0.31935 0.9862 0.87774 0.0
H163 H 0.22333 0.8086 0.93358 0.0
H164 H 0.92797 1.00529 0.47339 0.0
H165 H 0.97772 0.93797 0.62672 0.0
H166 H 0.80248 0.95113 0.59456 0.0
H167 H 1.00136 0.97818 0.53682 0.0
Tb168 Tb 0.42494 0.72521 0.97566 0.0
C169 C 0.23901 0.80822 0.10136 0.0
N170 N 0.27211 0.84425 0.07441 0.0
C171 C 0.19036 0.88328 0.03023 0.0
C172 C 0.18545 0.79542 0.08295 0.0
C173 C 0.24807 0.88695 0.04386 0.0
C174 C 0.16022 0.83439 0.04571 0.0
C175 C 0.23009 0.73137 0.18113 0.0
C176 C 0.25662 0.79278 0.15267 0.0
C177 C 0.17872 0.71642 0.15192 0.0
C178 C 0.1572 0.74887 0.10621 0.0
Tb179 Tb 0.36242 0.8235 0.10147 0.0
N180 N 0.30457 0.8294 0.18177 0.0
C181 C 0.28112 0.71552 0.28732 0.0
C182 C 0.33327 0.8289 0.24475 0.0
C183 C 0.32571 0.77554 0.29828 0.0
H184 H 0.27302 0.92213 0.02899 0.0
H185 H 0.34716 0.77997 0.33824 0.0
H186 H 0.48321 0.60879 0.02679 0.0
H187 H 0.50577 0.86258 0.8095 0.0
H188 H 0.36364 0.8613 0.25338 0.0
H189 H 0.27807 0.68186 0.31834 0.0
H190 H 0.43211 0.82178 0.8703 0.0
H191 H 0.17003 0.91654 1.00631 0.0
H192 H 0.1486 0.687 0.16835 0.0
H193 H 0.11504 0.74062 0.09156 0.0
H194 H 0.58076 0.57391 0.0431 0.0
H195 H 0.1168 0.82953 0.03246 0.0
H196 H 0.6056 0.83642 0.8244 0.0
N197 N 0.51054 0.68273 0.98433 0.0
C198 C 0.55454 0.71015 0.96086 0.0
C199 C 0.57361 0.61321 1.02175 0.0
C200 C 0.61028 0.69377 0.97202 0.0
C201 C 0.51882 0.63253 1.01144 0.0
C202 C 0.61953 0.64563 1.00477 0.0
N203 N 0.48916 0.76952 0.91714 0.0
C204 C 0.47534 0.80831 0.87596 0.0
C205 C 0.58715 0.7784 0.89269 0.0
C206 C 0.54333 0.75318 0.92365 0.0
C207 C 0.57331 0.8173 0.85032 0.0
C208 C 0.51701 0.83206 0.84171 0.0
H209 H 0.66168 0.63189 1.01518 0.0
H210 H 0.6972 0.71782 0.96214 0.0
H211 H 0.67756 0.78781 0.88727 0.0
O212 O 0.39849 0.72593 0.89153 0.0
O213 O 0.45125 0.81333 0.98464 0.0
O214 O 0.45331 0.828 0.07849 0.0
O215 O 0.40557 0.64756 0.93315 0.0
O216 O 0.34126 0.76682 0.97616 0.0
O217 O 0.35742 0.85233 1.01452 0.0
O218 O 0.34533 0.90527 0.13044 0.0
O219 O 0.33149 0.72638 0.09159 0.0
O220 O 0.38119 0.66682 0.02865 0.0
O221 O 0.42401 0.86424 0.15077 0.0
O222 O 0.40503 0.75452 0.14212 0.0
O223 O 0.4534 0.70645 0.0691 0.0
C224 C 0.47804 0.83141 0.029 0.0
C225 C 0.33661 0.65816 0.85785 0.0
C226 C 0.28409 0.62188 0.77515 0.0
C227 C 0.2373 0.65382 0.79302 0.0
C228 C 0.287 0.68436 0.87651 0.0
C229 C 0.23889 0.68469 0.84301 0.0
C230 C 0.33514 0.62829 0.80583 0.0
C231 C 0.33571 0.82186 0.97391 0.0
C232 C 0.39089 0.67248 0.88638 0.0
C233 C 0.65445 0.72518 0.9488 0.0
C234 C 0.6431 0.76561 0.90701 0.0
C235 C 0.34272 0.67396 0.06715 0.0
C236 C 0.42509 0.9632 0.13962 0.0
C237 C 0.47429 0.04577 0.17607 0.0
C238 C 0.46547 0.07283 0.1238 0.0
C239 C 0.41942 0.98962 0.08693 0.0
C240 C 0.45484 0.99004 0.18285 0.0
C241 C 0.44001 0.04419 0.07908 0.0
C242 C 0.44138 0.71667 0.12484 0.0
C243 C 0.39507 0.91087 0.15277 0.0
H244 H 0.19837 0.65366 0.76955 0.0
H245 H 0.286 0.70744 0.91558 0.0
H246 H 0.20213 0.70804 0.85667 0.0
H247 H 0.3737 0.61268 0.7882 0.0
H248 H 0.4759 0.11667 0.11766 0.0
H249 H 0.39713 0.96907 0.05278 0.0
H250 H 0.45896 0.96875 0.22321 0.0
H251 H 0.43386 0.06537 0.039 0.0
Tb252 Tb 0.46162 0.1077 0.34308 0.0
C253 C 0.64523 0.2745 0.17458 0.0
N254 N 0.58982 0.26152 0.18157 0.0
C255 C 0.5682 0.31939 0.1008 0.0
C256 C 0.66572 0.30531 0.12823 0.0
C257 C 0.55093 0.28651 0.14679 0.0
C258 C 0.62569 0.32552 0.08955 0.0
C259 C 0.75091 0.26571 0.20633 0.0
C260 C 0.68032 0.25551 0.21443 0.0
C261 C 0.76604 0.29849 0.16024 0.0
C262 C 0.72442 0.31555 0.12096 0.0
Tb263 Tb 0.56951 0.18012 0.23431 0.0
N264 N 0.64994 0.22443 0.2634 0.0
C265 C 0.79654 0.2407 0.25878 0.0
C266 C 0.67078 0.19983 0.31995 0.0
C267 C 0.73567 0.19631 0.33694 0.0
H268 H 0.50692 0.27643 0.15029 0.0
H269 H 0.75681 0.20552 0.32193 0.0
H270 H 0.49645 1.01722 0.44211 0.0
H271 H 0.30845 0.10387 0.17373 0.0
H272 H 0.64522 0.17909 0.34957 0.0
H273 H 0.84187 0.2459 0.25368 0.0
H274 H 0.38713 0.14432 0.2285 0.0
H275 H 0.53726 0.33645 0.07174 0.0
H276 H 0.80985 0.30872 0.15309 0.0
H277 H 0.73862 0.33821 0.08391 0.0
H278 H 0.44878 0.93542 0.48827 0.0
H279 H 0.63853 0.347 0.05132 0.0
H280 H 0.26601 1.01323 0.20337 0.0
N281 N 0.43761 1.02152 0.37548 0.0
C282 C 0.39203 0.9984 0.34967 0.0
C283 C 0.43279 0.95259 0.4491 0.0
C284 C 0.36505 0.95075 0.37277 0.0
C285 C 0.4598 0.9983 0.42303 0.0
C286 C 0.38536 0.92855 0.42372 0.0
N287 N 0.39436 0.07337 0.28344 0.0
C288 C 0.37104 0.10323 0.23975 0.0
C289 C 0.32312 1.00168 0.27381 0.0
C290 C 0.37053 1.02434 0.30143 0.0
C291 C 0.30193 0.02972 0.22619 0.0
C292 C 0.32582 0.08088 0.20928 0.0
H293 H 0.36516 0.89262 0.4435 0.0
H294 H 0.29634 0.89152 0.36258 0.0
H295 H 0.26019 0.93565 0.27553 0.0
O296 O 0.38201 0.14252 0.35412 0.0
O297 O 0.48781 0.05366 0.27462 0.0
O298 O 0.49327 0.13218 0.22717 0.0
O299 O 0.43 0.11446 0.42664 0.0
O300 O 0.45247 0.19854 0.31815 0.0
O301 O 0.48587 0.21497 0.22923 0.0
O302 O 0.61163 0.11324 0.18814 0.0
O303 O 0.55857 0.21239 0.32865 0.0
O304 O 0.52744 0.14243 0.3919 0.0
O305 O 0.55599 0.17154 0.14859 0.0
O306 O 0.61344 0.11077 0.2786 0.0
O307 O 0.55568 0.08156 0.35483 0.0
C308 C 0.49558 0.0772 0.22598 0.0
C309 C 0.3659 0.19357 0.43481 0.0
C310 C 0.28783 0.25689 0.45969 0.0
C311 C 0.32586 0.30214 0.46209 0.0
C312 C 0.40296 0.23925 0.43806 0.0
C313 C 0.38294 0.29333 0.451 0.0
C314 C 0.30815 0.20297 0.44455 0.0
C315 C 0.457 0.23077 0.27281 0.0
C316 C 0.38404 0.13994 0.40887 0.0
C317 C 0.31761 0.92819 0.3455 0.0
C318 C 0.29703 0.9533 0.29589 0.0
C319 C 0.54936 0.19172 0.38247 0.0
C320 C 0.62377 0.13434 0.08554 0.0
C321 C 0.68777 0.09815 1.01119 0.0
C322 C 0.67844 0.14793 0.98038 0.0
C323 C 0.61623 0.18309 0.052 0.0
C324 C 0.65766 0.08999 0.06272 0.0
C325 C 0.64319 0.18986 1.00059 0.0
C326 C 0.6065 0.08481 0.32753 0.0
C327 C 0.59034 0.12996 0.13992 0.0
H328 H 0.3117 0.3442 0.47327 0.0
H329 H 0.44728 0.23321 0.42973 0.0
H330 H 0.412 0.32839 0.45343 0.0
H331 H 0.2788 0.16898 0.43714 0.0
H332 H 0.69855 0.15457 0.94007 0.0
H333 H 0.58736 0.21582 0.06406 0.0
H334 H 0.66085 0.04999 0.08478 0.0
H335 H 0.63616 0.22778 0.97589 0.0
Tb336 Tb 0.65496 0.31437 0.47505 0.0
C337 C 0.51604 0.17462 0.67873 0.0
N338 N 0.54943 0.21739 0.66198 0.0
C339 C 0.53541 0.26157 0.75267 0.0
C340 C 0.49568 0.17014 0.73432 0.0
C341 C 0.5581 0.2618 0.69818 0.0
C342 C 0.50529 0.21473 0.77145 0.0
C343 C 0.47121 0.08739 0.65426 0.0
C344 C 0.50385 0.13448 0.63972 0.0
C345 C 0.45731 0.07805 0.71118 0.0
C346 C 0.46866 0.12017 0.75119 0.0
Tb347 Tb 0.60347 0.19833 0.58232 0.0
N348 N 0.5257 0.14102 0.58749 0.0
C349 C 0.45262 0.05256 0.61089 0.0
C350 C 0.50677 0.1075 0.54471 0.0
C351 C 0.46588 0.06654 0.55545 0.0
H352 H 0.58422 0.2971 0.68695 0.0
H353 H 0.448 0.04217 0.52196 0.0
H354 H 0.78646 0.26858 0.45405 0.0
H355 H 0.57232 0.4877 0.60239 0.0
H356 H 0.52352 0.1105 0.50271 0.0
H357 H 0.42667 1.01594 0.61924 0.0
H358 H 0.56392 0.4064 0.54098 0.0
H359 H 0.54327 0.29655 0.78092 0.0
H360 H 0.43482 0.0404 0.724 0.0
H361 H 0.45508 0.11433 0.79441 0.0
H362 H 0.88228 0.30449 0.47207 0.0
H363 H 0.4899 0.21335 0.81443 0.0
H364 H 0.66581 0.52859 0.62163 0.0
N365 N 0.74566 0.34049 0.48857 0.0
C366 C 0.75151 0.38976 0.51734 0.0
C367 C 0.84586 0.32983 0.48287 0.0
C368 C 0.80518 0.41279 0.52617 0.0
C369 C 0.79173 0.31001 0.47193 0.0
C370 C 0.85244 0.38151 0.51007 0.0
N371 N 0.65261 0.38966 0.53633 0.0
C372 C 0.60543 0.41774 0.55471 0.0
C373 C 0.71028 0.46489 0.57369 0.0
C374 C 0.70421 0.4144 0.54274 0.0
C375 C 0.66262 0.48989 0.59751 0.0
C376 C 0.60989 0.46655 0.58736 0.0
H377 H 0.89402 0.39501 0.52233 0.0
H378 H 0.8511 0.48377 0.55749 0.0
H379 H 0.76814 0.52944 0.6005 0.0
O380 O 0.64127 0.39665 0.44312 0.0
O381 O 0.71173 0.28188 0.54136 0.0
O382 O 0.64693 0.27662 0.6084 0.0
O383 O 0.67269 0.33279 0.38951 0.0
O384 O 0.56403 0.31338 0.50019 0.0
O385 O 0.583 0.28578 0.58708 0.0
O386 O 0.62349 0.13383 0.64022 0.0
O387 O 0.56911 0.19613 0.48819 0.0
O388 O 0.60538 0.26209 0.42287 0.0
O389 O 0.68942 0.17711 0.59981 0.0
O390 O 0.63377 0.15557 0.50875 0.0
O391 O 0.69228 0.22247 0.46493 0.0
C392 C 0.69897 0.28825 0.59422 0.0
C393 C 0.61468 0.40798 0.34791 0.0
C394 C 0.55881 0.48786 0.30791 0.0
C395 C 0.53996 0.45171 0.26532 0.0
C396 C 0.59316 0.37318 0.30521 0.0
C397 C 0.55734 0.39527 0.26377 0.0
C398 C 0.59751 0.466 0.34855 0.0
C399 C 0.54637 0.30418 0.55169 0.0
C400 C 0.65451 0.38477 0.3919 0.0
C401 C 0.81043 0.46428 0.55416 0.0
C402 C 0.76335 0.49004 0.57834 0.0
C403 C 0.57359 0.21932 0.43484 0.0
C404 C 0.70127 0.15562 0.69798 0.0
C405 C 0.74402 0.12711 0.78925 0.0
C406 C 0.73001 0.18081 0.81043 0.0
C407 C 0.68945 0.20839 0.72169 0.0
C408 C 0.73005 0.11495 0.73187 0.0
C409 C 0.70413 0.22115 0.77676 0.0
C410 C 0.67848 0.16774 0.47906 0.0
C411 C 0.6771 0.14298 0.64088 0.0
H412 H 0.51162 0.46714 0.23289 0.0
H413 H 0.60362 0.32873 0.3038 0.0
H414 H 0.54183 0.3681 0.23073 0.0
H415 H 0.61372 0.49382 0.38094 0.0
H416 H 0.73683 0.19179 0.85389 0.0
H417 H 0.66689 0.23964 0.6984 0.0
H418 H 0.73976 0.07387 0.71442 0.0
H419 H 0.69342 0.26206 0.79414 0.0
Tb420 Tb 0.05887 0.37538 0.8141 0.0
C421 C 0.87555 0.53926 0.68413 0.0
N422 N 0.89272 0.50266 0.72499 0.0
C423 C 0.82355 0.5413 0.78801 0.0
C424 C 0.83133 0.57797 0.69331 0.0
C425 C 0.86887 0.50501 0.77745 0.0
C426 C 0.80393 0.57706 0.74534 0.0
C427 C 0.89405 0.58213 0.59313 0.0
C428 C 0.9061 0.54133 0.6349 0.0
C429 C 0.8494 0.62028 0.60146 0.0
C430 C 0.81806 0.61822 0.65154 0.0
Tb431 Tb 0.96032 0.43844 0.69782 0.0
N432 N 0.94972 0.50476 0.62923 0.0
C433 C 0.92876 0.58449 0.54547 0.0
C434 C 0.98561 0.50888 0.58473 0.0
C435 C 0.97556 0.54859 0.54196 0.0
H436 H 0.88428 0.47928 0.81167 0.0
H437 H 1.00401 0.55164 0.50646 0.0
H438 H 0.17423 0.31047 0.77951 0.0
H439 H 0.91326 0.34469 0.98498 0.0
H440 H 1.0222 0.48189 0.58266 0.0
H441 H 0.92125 0.61535 0.51246 0.0
H442 H 0.95546 0.39478 0.90398 0.0
H443 H 0.80425 0.542 0.82928 0.0
H444 H 0.83952 0.65215 0.57005 0.0
H445 H 0.78448 0.64862 0.65805 0.0
H446 H 0.23405 0.2331 0.81979 0.0
H447 H 0.76916 0.60532 0.75347 0.0
H448 H 0.95209 0.25242 1.01548 0.0
N449 N 0.10607 0.2937 0.83342 0.0
C450 C 0.08576 0.26215 0.87673 0.0
C451 C 0.19168 0.23993 0.83458 0.0
C452 C 0.11725 0.21706 0.89977 0.0
C453 C 0.15781 0.28268 0.81136 0.0
C454 C 0.17099 0.20638 0.87829 0.0
N455 N 1.01249 0.32817 0.88419 0.0
C456 C 0.97125 0.35349 0.91561 0.0
C457 C 1.01605 0.251 0.95042 0.0
C458 C 0.03657 0.2795 0.9024 0.0
C459 C 0.96946 0.27342 0.97878 0.0
C460 C 0.94759 0.32554 0.96185 0.0
H461 H 0.1973 0.17326 0.89593 0.0
H462 H 0.11994 0.15249 0.96446 0.0
H463 H 0.03061 0.18261 1.00893 0.0
O464 O 0.06041 0.43252 0.88214 0.0
O465 O 0.98539 0.3235 0.79587 0.0
O466 O 0.92824 0.39803 0.77681 0.0
O467 O 0.13229 0.38069 0.86469 0.0
O468 O 1.0045 0.45178 0.82481 0.0
O469 O 0.9922 0.50682 0.74753 0.0
O470 O 0.90092 0.4235 0.63353 0.0
O471 O 0.05585 0.46169 0.69233 0.0
O472 O 0.11601 0.41686 0.75829 0.0
O473 O 0.92939 0.35512 0.6854 0.0
O474 O 0.02501 0.39868 0.65058 0.0
O475 O 0.06959 0.34231 0.71982 0.0
C476 C 0.93474 0.34515 0.7942 0.0
C477 C 0.14706 0.46417 0.91974 0.0
C478 C 0.19892 0.51382 0.99541 0.0
C479 C 0.21509 0.55424 0.95521 0.0
C480 C 0.16616 0.50415 0.88109 0.0
C481 C 0.1992 0.54896 0.89892 0.0
C482 C 0.16368 0.46872 0.97747 0.0
C483 C 1.00846 0.50139 0.79953 0.0
C484 C 0.1106 0.41774 0.89912 0.0
C485 C 0.09603 0.18703 0.94618 0.0
C486 C 0.04527 0.20386 0.97127 0.0
C487 C 0.10756 0.45144 0.7162 0.0
C488 C 0.83106 0.35746 0.66126 0.0
C489 C 0.73785 0.31871 0.63414 0.0
C490 C 0.71422 0.34698 0.68049 0.0
C491 C 0.80522 0.3837 0.70739 0.0
C492 C 0.79725 0.32278 0.62581 0.0
C493 C 0.74772 0.37814 0.71719 0.0
C494 C 0.05571 0.35514 0.6644 0.0
C495 C 0.89148 0.37141 0.64874 0.0
H496 H 0.24363 0.58805 0.96664 0.0
H497 H 0.15671 0.49971 0.83667 0.0
H498 H 0.2147 0.57819 0.86829 0.0
H499 H 0.15167 0.43611 1.00715 0.0
H500 H 0.66938 0.34593 0.68812 0.0
H501 H 0.82936 0.40953 0.73561 0.0
H502 H 0.81666 0.30044 0.59126 0.0
H503 H 0.7287 0.39946 0.75276 0.0
Tb504 Tb 0.87488 0.72712 0.97165 0.0
C505 C 0.0529 0.91175 0.12392 0.0
N506 N 0.02769 0.85948 0.12847 0.0
C507 C 0.10345 0.83266 0.18933 0.0
C508 C 0.10535 0.92543 0.14822 0.0
C509 C 0.053 0.82032 0.16198 0.0
C510 C 0.13011 0.88454 0.18246 0.0
C511 C 0.06026 1.01103 0.07392 0.0
C512 C 0.02661 0.94965 0.09252 0.0
C513 C 0.1118 1.01944 0.10002 0.0
C514 C 0.133 0.97781 0.13736 0.0
Tb515 Tb 0.94034 0.83711 0.08498 0.0
N516 N 0.9716 0.92541 0.06887 0.0
C517 C 0.03154 0.05291 1.01967 0.0
C518 C 0.93045 0.94417 1.02565 0.0
C519 C 0.94031 0.99715 0.98738 0.0
H520 H 0.03455 0.779 0.1676 0.0
H521 H 0.91518 1.00113 0.95156 0.0
H522 H 0.81223 0.78137 0.86332 0.0
H523 H 0.80786 0.55477 0.10928 0.0
H524 H 0.8897 0.94736 0.04357 0.0
H525 H 0.05284 0.08987 1.00344 0.0
H526 H 0.85841 0.64128 0.08663 0.0
H527 H 0.12332 0.80047 0.21265 0.0
H528 H 0.13612 0.05693 0.09089 0.0
H529 H 0.17351 0.98572 0.15686 0.0
H530 H 0.74254 0.75216 0.78991 0.0
H531 H 0.17043 0.89194 0.20251 0.0
H532 H 0.74214 0.51289 0.0402 0.0
N533 N 0.80402 0.70708 0.91017 0.0
C534 C 0.77599 0.65794 0.91757 0.0
C535 C 0.75195 0.72503 0.82544 0.0
C536 C 0.73539 0.63941 0.87839 0.0
C537 C 0.79127 0.74157 0.86629 0.0
C538 C 0.72377 0.67366 0.83158 0.0
N539 N 0.8229 0.65074 1.00411 0.0
C540 C 0.83074 0.62437 0.0551 0.0
C541 C 0.75602 0.57826 0.97784 0.0
C542 C 0.78579 0.62853 0.96657 0.0
C543 C 0.7646 0.55124 0.02959 0.0
C544 C 0.80162 0.57481 0.06863 0.0
H545 H 0.69242 0.66144 0.80069 0.0
H546 H 0.67538 0.57343 0.85872 0.0
H547 H 0.69393 0.5193 0.94581 0.0
O548 O 0.96012 0.70784 0.95488 0.0
O549 O 0.81644 0.74991 0.03679 0.0
O550 O 0.88231 0.76608 0.10515 0.0
O551 O 0.89216 0.66705 0.90781 0.0
O552 O 0.92624 0.69664 0.04404 0.0
O553 O 0.9935 0.7624 0.06985 0.0
O554 O 0.89071 0.88735 0.13996 0.0
O555 O 0.97183 0.83931 0.99065 0.0
O556 O 0.90646 0.79946 0.92782 0.0
O557 O 0.9321 0.81097 0.16927 0.0
O558 O 0.85784 0.86299 0.0446 0.0
O559 O 0.84594 0.82013 0.95814 0.0
C560 C 0.8294 0.75718 0.08961 0.0
C561 C 0.98879 0.63752 0.88503 0.0
C562 C 1.01957 0.55451 0.83067 0.0
C563 C 0.07008 0.58257 0.81884 0.0
C564 C 0.0413 0.66252 0.87514 0.0
C565 C 0.0814 0.6352 0.84228 0.0
C566 C 0.9781 0.58267 0.86326 0.0
C567 C 0.97558 0.70988 0.06676 0.0
C568 C 0.94614 0.67027 0.91709 0.0
C569 C 0.70658 0.58863 0.8884 0.0
C570 C 0.71721 0.55783 0.93793 0.0
C571 C 0.95355 0.82659 0.9373 0.0
C572 C 0.89737 0.87267 0.24254 0.0
C573 C 0.84758 0.91648 0.32343 0.0
C574 C 0.89611 0.90806 0.35633 0.0
C575 C 0.94529 0.86639 0.27676 0.0
C576 C 0.84748 0.89567 0.26713 0.0
C577 C 0.94425 0.88311 0.33325 0.0
C578 C 0.84323 0.86735 0.99074 0.0
C579 C 0.89833 0.85267 0.18248 0.0
H580 H 0.10064 0.56415 0.79041 0.0
H581 H 0.05079 0.70421 0.89134 0.0
H582 H 0.12074 0.65587 0.8334 0.0
H583 H 0.93752 0.56301 0.87009 0.0
H584 H 0.89773 0.92301 0.39942 0.0
H585 H 0.98364 0.84823 0.26 0.0
H586 H 0.80988 0.90046 0.24154 0.0
H587 H 0.98155 0.87783 0.35908 0.0
Tb588 Tb 0.46594 0.6545 0.32064 0.0
C589 C 0.67524 0.54067 0.23953 0.0
N590 N 0.64831 0.58744 0.25962 0.0
C591 C 0.72274 0.6001 0.32815 0.0
C592 C 0.72737 0.52275 0.26243 0.0
C593 C 0.67285 0.61818 0.30254 0.0
C594 C 0.75016 0.55222 0.30804 0.0
C595 C 0.68337 0.46968 0.16643 0.0
C596 C 0.65225 0.51224 0.19345 0.0
C597 C 0.73553 0.45248 0.1886 0.0
C598 C 0.75667 0.47779 0.23742 0.0
Tb599 Tb 0.57214 0.61395 0.2033 0.0
N600 N 0.60235 0.5303 0.17122 0.0
C601 C 0.66264 0.44827 0.11576 0.0
C602 C 0.57829 0.50395 0.12663 0.0
C603 C 0.60882 0.46325 0.0971 0.0
H604 H 0.65287 0.65576 0.3186 0.0
H605 H 0.59221 0.4452 0.05877 0.0
H606 H 0.43528 0.78089 0.26053 0.0
H607 H 0.60772 0.60382 0.49348 0.0
H608 H 0.53816 0.51838 0.11115 0.0
H609 H 0.68852 0.42126 0.09006 0.0
H610 H 0.55639 0.58328 0.40637 0.0
H611 H 0.74062 0.6239 0.36273 0.0
H612 H 0.76029 0.42021 0.16793 0.0
H613 H 0.79699 0.46396 0.25403 0.0
H614 H 0.45223 0.88001 0.2841 0.0
H615 H 0.78976 0.5393 0.32697 0.0
H616 H 0.60327 0.69934 0.535 0.0
N617 N 0.46667 0.7489 0.33866 0.0
C618 C 0.4919 0.76216 0.38879 0.0
C619 C 0.46084 0.84718 0.31475 0.0
C620 C 0.49904 0.81893 0.4048 0.0
C621 C 0.45177 0.79051 0.30152 0.0
C622 C 0.48503 0.86121 0.36612 0.0
N623 N 0.52502 0.66727 0.39563 0.0
C624 C 0.55568 0.62573 0.42209 0.0
C625 C 0.5493 0.73282 0.46906 0.0
C626 C 0.52013 0.71967 0.4192 0.0
C627 C 0.58054 0.69057 0.49632 0.0
C628 C 0.58388 0.63687 0.47258 0.0
H629 H 0.49703 0.90446 0.37333 0.0
H630 H 0.5306 0.87492 0.46931 0.0
H631 H 0.56948 0.79797 0.5276 0.0
O632 O 0.44274 0.62244 0.399 0.0
O633 O 0.55198 0.69172 0.31824 0.0
O634 O 0.56684 0.70223 0.22653 0.0
O635 O 0.38256 0.66986 0.35198 0.0
O636 O 0.48814 0.56357 0.31863 0.0
O637 O 0.5718 0.58886 0.2907 0.0
O638 O 0.63661 0.61404 0.14042 0.0
O639 O 0.48262 0.57162 0.19335 0.0
O640 O 0.41736 0.60516 0.26151 0.0
O641 O 0.59707 0.69058 0.16618 0.0
O642 O 0.49809 0.63853 0.15721 0.0
O643 O 0.45298 0.6914 0.2286 0.0
C644 C 0.5692 0.72338 0.27662 0.0
C645 C 0.35145 0.60019 0.42263 0.0
C646 C 0.3205 0.54446 0.50592 0.0
C647 C 0.29328 0.50713 0.4689 0.0
C648 C 0.32266 0.56263 0.38743 0.0
C649 C 0.2937 0.5167 0.41057 0.0
C650 C 0.34978 0.59106 0.48216 0.0
C651 C 0.53945 0.54836 0.30744 0.0
C652 C 0.39208 0.64187 0.39881 0.0
C653 C 0.52569 0.83162 0.45595 0.0
C654 C 0.54892 0.78829 0.4887 0.0
C655 C 0.42952 0.5742 0.21733 0.0
C656 C 0.69511 0.6959 0.15525 0.0
C657 C 0.78701 0.73784 0.13148 0.0
C658 C 0.7971 0.74677 0.18902 0.0
C659 C 0.70501 0.71154 0.21144 0.0
C660 C 0.73591 0.7109 0.11472 0.0
C661 C 0.75581 0.73492 0.22852 0.0
C662 C 0.46594 0.68123 0.17273 0.0
C663 C 0.64005 0.66901 0.14028 0.0
H664 H 0.27024 0.47118 0.48512 0.0
H665 H 0.32401 0.56772 0.34202 0.0
H666 H 0.27171 0.48794 0.38306 0.0
H667 H 0.37248 0.61941 0.50985 0.0
H668 H 0.83624 0.7642 0.20384 0.0
H669 H 0.67295 0.70699 0.24247 0.0
H670 H 0.72749 0.70236 0.07065 0.0
H671 H 0.76277 0.7448 0.27255 0.0
Tb672 Tb 0.33856 0.46742 0.10452 0.0
C673 C 0.15705 0.63446 0.26649 0.0
N674 N 0.16591 0.58048 0.24881 0.0
C675 C 0.08226 0.55312 0.29949 0.0
C676 C 0.10899 0.65167 0.29712 0.0
C677 C 0.13024 0.53943 0.26774 0.0
C678 C 0.07053 0.60958 0.31244 0.0
C679 C 0.18799 0.7402 0.27065 0.0
C680 C 0.19804 0.67092 0.25504 0.0
C681 C 0.14012 0.75208 0.30235 0.0
C682 C 0.1013 0.70867 0.31448 0.0
Tb683 Tb 0.22901 0.56516 0.17341 0.0
N684 N 0.24881 0.64414 0.22362 0.0
C685 C 0.23987 0.78852 0.25099 0.0
C686 C 0.3055 0.6678 0.20364 0.0
C687 C 0.32024 0.73279 0.20548 0.0
H688 H 0.13535 0.49677 0.25382 0.0
H689 H 0.30398 0.75288 0.21577 0.0
H690 H 0.45801 0.51873 0.06059 0.0
H691 H 0.19955 0.31187 1.00944 0.0
H692 H 0.33732 0.64439 0.18405 0.0
H693 H 0.23343 0.8334 0.25931 0.0
H694 H 0.22232 0.39129 0.07095 0.0
H695 H 0.05334 0.52022 0.31223 0.0
H696 H 0.1322 0.79471 0.31679 0.0
H697 H 0.06429 0.71978 0.33877 0.0
H698 H 0.53213 0.49392 0.99122 0.0
H699 H 0.033 0.61981 0.3363 0.0
H700 H 0.2717 0.27221 0.9457 0.0
N701 N 0.40681 0.44878 0.04022 0.0
C702 C 0.39894 0.40354 1.00631 0.0
C703 C 0.49538 0.46745 0.99591 0.0
C704 C 0.44003 0.38708 0.96678 0.0
C705 C 0.45357 0.48147 0.03506 0.0
C706 C 0.48917 0.41934 0.96242 0.0
N707 N 0.30831 0.39698 0.04477 0.0
C708 C 0.25525 0.3744 0.04476 0.0
C709 C 0.33633 0.33068 0.97254 0.0
C710 C 0.348 0.37603 1.00925 0.0
C711 C 0.28256 0.30678 0.97351 0.0
C712 C 0.24172 0.32917 1.00935 0.0
H713 H 0.52156 0.40863 0.93211 0.0
H714 H 0.46066 0.32721 0.90086 0.0
H715 H 0.36967 0.27769 0.90591 0.0
O716 O 0.34629 0.44488 0.18884 0.0
O717 O 0.28604 0.49951 0.03914 0.0
O718 O 0.21402 0.50724 0.09975 0.0
O719 O 0.40317 0.40713 0.12749 0.0
O720 O 0.26163 0.4319 0.15071 0.0
O721 O 0.25016 0.49345 0.22319 0.0
O722 O 0.17726 0.60871 0.11511 0.0
O723 O 0.32321 0.55303 0.20761 0.0
O724 O 0.38625 0.53586 0.13529 0.0
O725 O 0.14929 0.5312 0.15494 0.0
O726 O 0.2685 0.62063 0.11247 0.0
O727 O 0.3454 0.56562 0.08239 0.0
C728 C 0.23384 0.51216 0.04786 0.0
C729 C 0.41099 0.37861 0.22831 0.0
C730 C 0.44066 0.29111 0.27516 0.0
C731 C 0.44753 0.32125 0.32554 0.0
C732 C 0.41473 0.40683 0.28029 0.0
C733 C 0.43371 0.37846 0.32833 0.0
C734 C 0.42324 0.32043 0.22613 0.0
C735 C 0.24136 0.44406 0.20191 0.0
C736 C 0.38516 0.40793 0.1797 0.0
C737 C 0.42961 0.34066 0.9315 0.0
C738 C 0.37782 0.31245 0.93442 0.0
C739 C 0.3775 0.55174 0.18671 0.0
C740 C 0.07685 0.59857 0.12986 0.0
C741 C 1.00172 0.66638 0.10411 0.0
C742 C 0.96823 0.64385 0.14728 0.0
C743 C 0.03938 0.57386 0.1685 0.0
C744 C 0.0563 0.64334 0.09527 0.0
C745 C 0.98648 0.59735 0.17838 0.0
C746 C 0.3169 0.61649 0.08676 0.0
C747 C 0.13487 0.57417 0.12278 0.0
H748 H 0.4656 0.30113 0.36225 0.0
H749 H 0.40377 0.45119 0.28358 0.0
H750 H 0.4386 0.40113 0.36764 0.0
H751 H 0.41734 0.29774 0.18694 0.0
H752 H 0.92684 0.66116 0.15583 0.0
H753 H 0.05028 0.53549 0.19063 0.0
H754 H 0.0817 0.65845 0.06055 0.0
H755 H 0.95901 0.57869 0.20965 0.0
Tb756 Tb 0.73049 0.96744 0.87852 0.0
C757 C 0.895 0.10878 0.05945 0.0
N758 N 0.85273 0.12436 1.0254 0.0
C759 C 0.81776 0.18191 0.0995 0.0
C760 C 0.8964 0.11923 0.11667 0.0
C761 C 0.81454 0.16276 0.044 0.0
C762 C 0.85921 0.16054 0.1364 0.0
C763 C 0.96244 0.02635 0.07091 0.0
C764 C 0.93728 0.0826 0.03577 0.0
C765 C 0.95943 0.03647 0.13079 0.0
C766 C 0.93285 0.08662 0.15128 0.0
Tb767 Tb 0.84855 0.07686 0.94098 0.0
N768 N 0.94443 0.09155 0.97223 0.0
C769 C 0.02456 0.96609 0.99425 0.0
C770 C 0.98631 0.06606 0.92879 0.0
C771 C 1.02322 1.00501 0.93359 0.0
H772 H 0.78112 0.17752 1.01691 0.0
H773 H 0.04796 0.9936 0.89914 0.0
H774 H 0.78681 0.85616 0.82178 0.0
H775 H 0.567 0.10788 0.81041 0.0
H776 H 0.98673 0.08775 0.8895 0.0
H777 H 0.05198 0.92898 0.99727 0.0
H778 H 0.62808 0.06164 0.88018 0.0
H779 H 0.78517 0.20892 0.11403 0.0
H780 H 0.98135 1.01102 0.16179 0.0
H781 H 0.93636 0.0968 0.19562 0.0
H782 H 0.80295 0.82138 0.72484 0.0
H783 H 0.86013 0.17366 0.17995 0.0
H784 H 0.5725 0.0787 0.70988 0.0
N785 N 0.72885 0.91868 0.79681 0.0
C786 C 0.70116 0.94384 0.75384 0.0
C787 C 0.77413 0.85601 0.73241 0.0
C788 C 0.71255 0.92992 0.69774 0.0
C789 C 0.76381 0.87425 0.78733 0.0
C790 C 0.75054 0.88594 0.68732 0.0
N791 N 0.66585 1.00667 0.82014 0.0
C792 C 0.62958 0.04802 0.83683 0.0
C793 C 0.63475 1.01504 0.72443 0.0
C794 C 0.66584 0.98775 0.76654 0.0
C795 C 0.5976 0.05761 0.74079 0.0
C796 C 0.59459 0.07408 0.7973 0.0
H797 H 0.76304 0.87552 0.6451 0.0
H798 H 0.702 0.95851 0.61193 0.0
H799 H 0.62516 0.02498 0.63391 0.0
O800 O 0.6732 0.96488 0.94576 0.0
O801 O 0.75906 0.03108 0.81807 0.0
O802 O 0.7793 0.09949 0.88178 0.0
O803 O 0.67316 0.89829 0.88474 0.0
O804 O 0.71327 0.04169 0.93273 0.0
O805 O 0.77996 0.05763 1.00026 0.0
O806 O 0.89507 0.1386 0.89423 0.0
O807 O 0.83081 0.98066 0.97796 0.0
O808 O 0.78949 0.91334 0.91932 0.0
O809 O 0.80712 0.15054 0.91725 0.0
O810 O 0.88229 0.02727 0.87023 0.0
O811 O 0.82331 0.94855 0.86017 0.0
C812 C 0.76853 0.08403 0.82924 0.0
C813 C 0.62336 0.8828 0.97419 0.0
C814 C 0.54015 0.84414 1.02484 0.0
C815 C 0.5771 0.82084 0.06499 0.0
C816 C 0.65847 0.85853 1.01522 0.0
C817 C 0.63543 0.82802 0.0602 0.0
C818 C 0.56384 0.87614 0.97977 0.0
C819 C 0.72662 0.05589 0.98502 0.0
C820 C 0.64766 0.91955 0.92884 0.0
C821 C 0.68802 0.96264 0.65478 0.0
C822 C 0.64603 1.00234 0.66773 0.0
C823 C 0.81835 0.92444 0.96444 0.0
C824 C 0.85387 0.23375 0.88136 0.0
C825 C 0.88946 0.31633 0.82782 0.0
C826 C 0.84553 0.34889 0.85065 0.0
C827 C 0.81229 0.26884 0.90496 0.0
C828 C 0.89282 0.25807 0.84288 0.0
C829 C 0.8079 0.32549 0.88922 0.0
C830 C 0.87377 0.97442 0.85611 0.0
C831 C 0.85053 0.17114 0.89016 0.0
H832 H 0.56093 0.79551 0.09936 0.0
H833 H 0.70374 0.8636 1.01272 0.0
H834 H 0.66306 0.80953 0.09159 0.0
H835 H 0.53609 0.89553 0.94895 0.0
H836 H 0.84147 0.3933 0.84071 0.0
H837 H 0.78156 0.25211 0.93424 0.0
H838 H 0.92549 0.23179 0.82468 0.0
H839 H 0.77501 0.35157 0.90717 0.0
Tb840 Tb 0.70131 0.96623 0.44058 0.0
C841 C 0.80875 0.09327 0.25213 0.0
N842 N 0.84532 0.06647 0.28455 0.0
C843 C 0.86426 1.00357 0.20959 0.0
C844 C 0.78857 0.07166 0.20222 0.0
C845 C 0.87812 0.0248 0.26306 0.0
C846 C 0.81716 0.02474 0.18026 0.0
C847 C 0.73441 0.17587 0.24587 0.0
C848 C 0.79315 0.14219 0.27269 0.0
C849 C 0.71855 0.14951 0.19372 0.0
C850 C 0.74479 0.09947 0.17389 0.0
Tb851 Tb 0.8113 0.08163 0.3728 0.0
N852 N 0.83098 0.16645 0.32208 0.0
C853 C 0.72569 0.28061 0.29954 0.0
C854 C 0.834 0.22828 0.35327 0.0
C855 C 0.78504 0.2857 0.34576 0.0
H856 H 0.91119 1.00582 0.28816 0.0
H857 H 0.79341 0.3258 0.36552 0.0
H858 H 0.58106 1.00856 0.49272 0.0
H859 H 0.84911 0.80374 0.5141 0.0
H860 H 0.86652 0.23434 0.38462 0.0
H861 H 0.70008 0.31792 0.2908 0.0
H862 H 0.82375 0.88899 0.4638 0.0
H863 H 0.89015 0.97175 0.1911 0.0
H864 H 0.69225 0.16994 0.1632 0.0
H865 H 0.73477 0.08426 0.13271 0.0
H866 H 0.51119 0.97138 0.56212 0.0
H867 H 0.80593 1.00724 0.13958 0.0
H868 H 0.78169 0.75836 0.57887 0.0
N869 N 0.64003 0.94379 0.51086 0.0
C870 C 0.65194 0.89688 0.54189 0.0
C871 C 0.55178 0.95253 0.55829 0.0
C872 C 0.61493 0.87731 0.58404 0.0
C873 C 0.59079 0.97219 0.5186 0.0
C874 C 0.56415 0.90577 0.5918 0.0
N875 N 0.73911 0.89389 0.49589 0.0
C876 C 0.79184 0.87042 0.48992 0.0
C877 C 0.7165 0.82072 0.56378 0.0
C878 C 0.70265 0.87014 0.53303 0.0
C879 C 0.76923 0.79588 0.55565 0.0
C880 C 0.80736 0.82147 0.5193 0.0
H881 H 0.53366 0.89124 0.6225 0.0
H882 H 0.60073 0.81318 0.64793 0.0
H883 H 0.6892 0.76243 0.6289 0.0
O884 O 0.69195 0.93587 0.35829 0.0
O885 O 0.76206 0.99575 0.50196 0.0
O886 O 0.82931 1.015 0.43653 0.0
O887 O 0.63756 0.90413 0.42493 0.0
O888 O 0.77729 0.9358 0.39521 0.0
O889 O 0.79035 1.00252 0.32792 0.0
O890 O 0.85967 0.13672 0.42528 0.0
O891 O 0.7147 0.08059 0.34363 0.0
O892 O 0.6504 0.03074 0.40096 0.0
O893 O 0.8901 0.05506 0.39797 0.0
O894 O 0.75353 0.12757 0.42588 0.0
O895 O 0.68838 0.06181 0.46439 0.0
C896 C 0.81436 1.00723 0.48977 0.0
C897 C 0.62027 0.87075 0.32813 0.0
C898 C 0.58208 0.78558 0.28142 0.0
C899 C 0.56669 0.82029 0.23541 0.0
C900 C 0.60247 0.90351 0.28207 0.0
C901 C 0.57614 0.87837 0.23608 0.0
C902 C 0.60986 0.8113 0.3279 0.0
C903 C 0.80064 0.95162 0.34749 0.0
C904 C 0.65465 0.89805 0.37293 0.0
C905 C 0.62889 0.82896 0.61565 0.0
C906 C 0.67893 0.79982 0.60444 0.0
C907 C 0.66092 0.06213 0.35642 0.0
C908 C 0.96147 0.12049 0.42439 0.0
C909 C 0.04186 0.17239 0.46524 0.0
C910 C 0.07793 0.1409 0.4302 0.0
C911 C 0.99943 0.09163 0.38906 0.0
C912 C 0.98307 0.16155 0.46263 0.0
C913 C 0.05695 0.10138 0.39249 0.0
C914 C 0.70937 0.11554 0.45658 0.0
C915 C 0.90173 0.10096 0.42631 0.0
H916 H 0.5452 0.8027 0.1992 0.0
H917 H 0.60992 0.94866 0.28117 0.0
H918 H 0.56289 0.90408 0.20059 0.0
H919 H 0.62405 0.78541 0.36292 0.0
H920 H 0.1227 0.14919 0.42956 0.0
H921 H 0.98498 0.06008 0.35939 0.0
H922 H 0.95448 0.18536 0.48912 0.0
H923 H 0.08552 0.0786 0.36517 0.0
Tb924 Tb 0.30944 0.46357 0.68035 0.0
C925 C 0.24269 0.65621 0.53002 0.0
N926 N 0.25177 0.64468 0.58539 0.0
C927 C 0.30384 0.73096 0.5954 0.0
C928 C 0.26567 0.70484 0.50458 0.0
C929 C 0.27934 0.68274 0.61903 0.0
C930 C 0.29745 0.7418 0.53778 0.0
C931 C 0.19865 0.63 0.44218 0.0
C932 C 0.20799 0.62028 0.49941 0.0
C933 C 0.22005 0.67886 0.41696 0.0
C934 C 0.25392 0.71613 0.44766 0.0
Tb935 Tb 0.20353 0.56782 0.61738 0.0
N936 N 0.18249 0.57639 0.52593 0.0
C937 C 0.16754 0.59035 0.41217 0.0
C938 C 0.14606 0.54165 0.49831 0.0
C939 C 0.13909 0.54734 0.44028 0.0
H940 H 0.28238 0.67588 0.66386 0.0
H941 H 0.11214 0.51887 0.41724 0.0
H942 H 0.23536 0.39345 0.77902 0.0
H943 H 0.50757 0.57569 0.69288 0.0
H944 H 0.12337 0.5091 0.52076 0.0
H945 H 0.16687 0.59182 0.36735 0.0
H946 H 0.42404 0.53662 0.64437 0.0
H947 H 0.32659 0.76034 0.62185 0.0
H948 H 0.20813 0.68921 0.37459 0.0
H949 H 0.26977 0.75394 0.42737 0.0
H950 H 0.23541 0.38747 0.8827 0.0
H951 H 0.31566 0.77967 0.51974 0.0
H952 H 0.51459 0.57092 0.79698 0.0
N953 N 0.30627 0.44832 0.77545 0.0
C954 C 0.34775 0.47403 0.80558 0.0
C955 C 0.26611 0.41317 0.86123 0.0
C956 C 0.3474 0.47367 0.86488 0.0
C957 C 0.26688 0.41621 0.8024 0.0
C958 C 0.30437 0.44479 0.89244 0.0
N959 N 0.38509 0.50832 0.72029 0.0
C960 C 0.42741 0.53319 0.68976 0.0
C961 C 0.43598 0.52572 0.80658 0.0
C962 C 0.39025 0.50188 0.77698 0.0
C963 C 0.47879 0.55213 0.77579 0.0
C964 C 0.47468 0.55541 0.71707 0.0
H965 H 0.30072 0.44601 0.93768 0.0
H966 H 0.38833 0.50481 0.94007 0.0
H967 H 0.4687 0.54621 0.88945 0.0
O968 O 0.38 0.43962 0.63374 0.0
O969 O 0.3181 0.55388 0.70345 0.0
O970 O 0.22629 0.57328 0.70648 0.0
O971 O 0.34772 0.38387 0.69784 0.0
O972 O 0.31418 0.48426 0.58936 0.0
O973 O 0.29344 0.57408 0.60003 0.0
O974 O 0.13374 0.61975 0.59797 0.0
O975 O 0.20054 0.47594 0.58258 0.0
O976 O 0.24928 0.41006 0.63904 0.0
O977 O 0.16039 0.60692 0.68382 0.0
O978 O 0.15253 0.49925 0.64151 0.0
O979 O 0.21392 0.46056 0.70849 0.0
C980 C 0.27676 0.58259 0.72558 0.0
C981 C 0.40874 0.34549 0.62446 0.0
C982 C 0.48625 0.30489 0.56868 0.0
C983 C 0.45276 0.25753 0.55831 0.0
C984 C 0.37491 0.29976 0.60943 0.0
C985 C 0.39741 0.25512 0.57819 0.0
C986 C 0.46463 0.34795 0.60371 0.0
C987 C 0.31589 0.53531 0.56869 0.0
C988 C 0.38722 0.39215 0.66015 0.0
C989 C 0.3899 0.50194 0.89467 0.0
C990 C 0.43533 0.52596 0.86576 0.0
C991 C 0.21682 0.4221 0.59589 0.0
C992 C 0.13142 0.69849 0.66055 0.0
C993 C 0.10754 0.78022 0.7185 0.0
C994 C 0.13675 0.81484 0.68019 0.0
C995 C 0.1568 0.73487 0.62142 0.0
C996 C 0.10777 0.72142 0.70998 0.0
C997 C 0.16216 0.79209 0.63265 0.0
C998 C 0.16071 0.47295 0.68906 0.0
C999 C 0.12937 0.63702 0.65004 0.0
H1000 H 0.46914 0.22261 0.53411 0.0
H1001 H 0.33129 0.29897 0.6216 0.0
H1002 H 0.37157 0.21904 0.56796 0.0
H1003 H 0.4913 0.38322 0.61514 0.0
H1004 H 0.13604 0.86022 0.6841 0.0
H1005 H 0.17077 0.71982 0.58113 0.0
H1006 H 0.08602 0.69408 0.73933 0.0
H1007 H 0.18218 0.8196 0.60219 0.0
loop_
_geom_bond_atom_site_label_1
_geom_bond_atom_site_label_2
_geom_bond_distance
_geom_bond_site_symmetry_2
_ccdc_geom_bond_type
Tb0 N29 2.617 . S
Tb0 N35 2.572 . S
Tb0 O44 2.465 . S
Tb0 O45 2.387 . S
Tb0 O47 2.428 . S
Tb0 O48 2.308 . S
Tb0 O52 2.349 . S
Tb0 O55 2.393 . S
Tb0 C64 2.802 . S
C1 N2 1.379 . S
C1 C4 1.416 . S
C1 C8 1.424 . S
N2 C1 1.379 . S
N2 C5 1.334 . S
N2 Tb11 2.617 1_655 S
C3 C5 1.390 . S
C3 C6 1.339 . S
C3 H23 0.930 . S
C4 C1 1.416 . S
C4 C6 1.416 . S
C4 C10 1.448 . S
C5 N2 1.334 . S
C5 C3 1.390 . S
C5 H16 0.930 . S
C6 C3 1.339 . S
C6 C4 1.416 . S
C6 H27 0.930 . S
C7 C8 1.413 . S
C7 C9 1.427 . S
C7 C13 1.416 1_655 S
C8 C1 1.424 . S
C8 C7 1.413 . S
C8 N12 1.361 1_655 S
C9 C7 1.427 . S
C9 C10 1.328 . S
C9 H24 0.929 . S
C10 C4 1.448 . S
C10 C9 1.328 . S
C10 H25 0.930 . S
Tb11 N2 2.617 1_455 S
Tb11 N12 2.572 . S
Tb11 O46 2.349 . S
Tb11 O49 2.393 . S
Tb11 O50 2.465 . S
Tb11 O51 2.387 . S
Tb11 O53 2.428 . S
Tb11 O54 2.308 . S
Tb11 C75 2.802 . S
N12 C8 1.361 1_455 S
N12 Tb11 2.572 . S
N12 C14 1.340 . S
C13 C7 1.416 1_455 S
C13 C15 1.332 . S
C13 H21 0.931 1_455 S
C14 N12 1.340 . S
C14 C15 1.407 . S
C14 H20 0.930 . S
C15 C13 1.332 . S
C15 C14 1.407 . S
C15 H17 0.929 . S
H16 C5 0.930 . S
H17 C15 0.929 . S
H18 C33 0.930 . S
H19 C40 0.929 . S
H20 C14 0.930 . S
H21 C13 0.931 1_655 S
H22 C36 0.930 . S
H23 C3 0.930 . S
H24 C9 0.929 . S
H25 C10 0.930 . S
H26 C31 0.930 . S
H27 C6 0.930 . S
H28 C39 0.931 1_565 S
N29 Tb0 2.617 . S
N29 C30 1.379 . S
N29 C33 1.334 . S
C30 N29 1.379 . S
C30 C32 1.416 . S
C30 C38 1.424 . S
C31 H26 0.930 . S
C31 C33 1.390 . S
C31 C34 1.339 . S
C32 C30 1.416 . S
C32 C34 1.416 . S
C32 C65 1.448 . S
C33 H18 0.930 . S
C33 N29 1.334 . S
C33 C31 1.390 . S
C34 C31 1.339 . S
C34 C32 1.416 . S
C34 H41 0.930 . S
N35 Tb0 2.572 . S
N35 C36 1.340 . S
N35 C38 1.361 . S
C36 H22 0.930 . S
C36 N35 1.340 . S
C36 C40 1.407 . S
C37 C38 1.413 . S
C37 C39 1.416 . S
C37 C66 1.427 . S
C38 C30 1.424 . S
C38 N35 1.361 . S
C38 C37 1.413 . S
C39 H28 0.931 1_545 S
C39 C37 1.416 . S
C39 C40 1.332 . S
C40 H19 0.929 . S
C40 C36 1.407 . S
C40 C39 1.332 . S
H41 C34 0.930 . S
H42 C65 0.930 . S
H43 C66 0.929 . S
O44 Tb0 2.465 . S
O44 C64 1.264 . S
O45 Tb0 2.387 . S
O45 C56 1.264 . S
O46 Tb11 2.349 . S
O46 C56 1.243 . S
O47 Tb0 2.428 . S
O47 C64 1.256 . S
O48 Tb0 2.308 . S
O48 C63 1.266 . S
O49 Tb11 2.393 . S
O49 C63 1.248 . S
O50 Tb11 2.465 . S
O50 C75 1.264 . S
O51 Tb11 2.387 . S
O51 C67 1.264 . S
O52 Tb0 2.349 . S
O52 C67 1.243 . S
O53 Tb11 2.428 . S
O53 C75 1.256 . S
O54 Tb11 2.308 . S
O54 C74 1.266 . S
O55 Tb0 2.393 . S
O55 C74 1.248 . S
C56 O45 1.264 . S
C56 O46 1.243 . S
C57 C60 1.399 . S
C57 C62 1.383 . S
C57 C64 1.496 . S
C58 C59 1.399 . S
C58 C62 1.389 . S
C59 C58 1.399 . S
C59 C61 1.380 . S
C59 H76 0.929 . S
C60 C57 1.399 . S
C60 C61 1.392 . S
C60 H77 0.929 . S
C61 C59 1.380 . S
C61 C60 1.392 . S
C61 H78 0.929 . S
C62 C57 1.383 . S
C62 C58 1.389 . S
C62 H79 0.931 . S
C63 O48 1.266 . S
C63 O49 1.248 . S
C64 Tb0 2.802 . S
C64 O44 1.264 . S
C64 O47 1.256 . S
C64 C57 1.496 . S
C65 C32 1.448 . S
C65 H42 0.930 . S
C65 C66 1.328 . S
C66 C37 1.427 . S
C66 H43 0.929 . S
C66 C65 1.328 . S
C67 O51 1.264 . S
C67 O52 1.243 . S
C68 C71 1.399 . S
C68 C72 1.383 . S
C68 C75 1.496 . S
C69 C70 1.399 . S
C69 C72 1.389 . S
C70 C69 1.399 . S
C70 C73 1.380 . S
C70 H80 0.929 . S
C71 C68 1.399 . S
C71 C73 1.392 . S
C71 H81 0.929 . S
C72 C68 1.383 . S
C72 C69 1.389 . S
C72 H82 0.931 . S
C73 C70 1.380 . S
C73 C71 1.392 . S
C73 H83 0.929 . S
C74 O54 1.266 . S
C74 O55 1.248 . S
C75 Tb11 2.802 . S
C75 O50 1.264 . S
C75 O53 1.256 . S
C75 C68 1.496 . S
H76 C59 0.929 . S
H77 C60 0.929 . S
H78 C61 0.929 . S
H79 C62 0.931 . S
H80 C70 0.929 . S
H81 C71 0.929 . S
H82 C72 0.931 . S
H83 C73 0.929 . S
Tb84 N113 2.617 1_565 S
Tb84 N119 2.572 . S
Tb84 O128 2.465 . S
Tb84 O129 2.387 . S
Tb84 O131 2.428 . S
Tb84 O132 2.308 . S
Tb84 O136 2.349 . S
Tb84 O139 2.393 1_455 S
Tb84 C148 2.802 . S
C85 N86 1.379 . S
C85 C88 1.416 . S
C85 C92 1.424 . S
N86 C85 1.379 . S
N86 C89 1.334 . S
N86 Tb95 2.617 . S
C87 C89 1.390 . S
C87 C90 1.339 . S
C87 H107 0.930 . S
C88 C85 1.416 . S
C88 C90 1.416 . S
C88 C94 1.448 . S
C89 N86 1.334 . S
C89 C87 1.390 . S
C89 H100 0.930 . S
C90 C87 1.339 . S
C90 C88 1.416 . S
C90 H111 0.930 . S
C91 C92 1.413 . S
C91 C93 1.427 . S
C91 C97 1.416 . S
C92 C85 1.424 . S
C92 C91 1.413 . S
C92 N96 1.361 . S
C93 C91 1.427 . S
C93 C94 1.328 . S
C93 H108 0.929 . S
C94 C88 1.448 . S
C94 C93 1.328 . S
C94 H109 0.930 . S
Tb95 N86 2.617 . S
Tb95 N96 2.572 . S
Tb95 O130 2.349 . S
Tb95 O133 2.393 1_655 S
Tb95 O134 2.465 . S
Tb95 O135 2.387 . S
Tb95 O137 2.428 . S
Tb95 O138 2.308 . S
Tb95 C159 2.802 . S
N96 C92 1.361 . S
N96 Tb95 2.572 . S
N96 C98 1.340 . S
C97 C91 1.416 . S
C97 C99 1.332 . S
C97 H105 0.931 . S
C98 N96 1.340 . S
C98 C99 1.407 . S
C98 H104 0.930 . S
C99 C97 1.332 . S
C99 C98 1.407 . S
C99 H101 0.929 . S
H100 C89 0.930 . S
H101 C99 0.929 . S
H102 C117 0.930 . S
H103 C124 0.929 . S
H104 C98 0.930 . S
H105 C97 0.931 . S
H106 C120 0.930 . S
H107 C87 0.930 . S
H108 C93 0.929 . S
H109 C94 0.930 . S
H110 C115 0.930 . S
H111 C90 0.930 . S
H112 C123 0.931 1_545 S
N113 Tb84 2.617 1_545 S
N113 C114 1.379 . S
N113 C117 1.334 . S
C114 N113 1.379 . S
C114 C116 1.416 . S
C114 C122 1.424 . S
C115 H110 0.930 . S
C115 C117 1.390 . S
C115 C118 1.339 . S
C116 C114 1.416 . S
C116 C118 1.416 . S
C116 C149 1.448 . S
C117 H102 0.930 . S
C117 N113 1.334 . S
C117 C115 1.390 . S
C118 C115 1.339 . S
C118 C116 1.416 . S
C118 H125 0.930 . S
N119 Tb84 2.572 . S
N119 C120 1.340 . S
N119 C122 1.361 1_565 S
C120 H106 0.930 . S
C120 N119 1.340 . S
C120 C124 1.407 . S
C121 C122 1.413 . S
C121 C123 1.416 1_545 S
C121 C150 1.427 . S
C122 C114 1.424 . S
C122 N119 1.361 1_545 S
C122 C121 1.413 . S
C123 H112 0.931 1_565 S
C123 C121 1.416 1_565 S
C123 C124 1.332 . S
C124 H103 0.929 . S
C124 C120 1.407 . S
C124 C123 1.332 . S
H125 C118 0.930 . S
H126 C149 0.930 . S
H127 C150 0.929 . S
O128 Tb84 2.465 . S
O128 C148 1.264 . S
O129 Tb84 2.387 . S
O129 C140 1.264 . S
O130 Tb95 2.349 . S
O130 C140 1.243 1_655 S
O131 Tb84 2.428 . S
O131 C148 1.256 . S
O132 Tb84 2.308 . S
O132 C147 1.266 . S
O133 Tb95 2.393 1_455 S
O133 C147 1.248 . S
O134 Tb95 2.465 . S
O134 C159 1.264 . S
O135 Tb95 2.387 . S
O135 C151 1.264 . S
O136 Tb84 2.349 . S
O136 C151 1.243 1_455 S
O137 Tb95 2.428 . S
O137 C159 1.256 . S
O138 Tb95 2.308 . S
O138 C158 1.266 . S
O139 Tb84 2.393 1_655 S
O139 C158 1.248 . S
C140 O129 1.264 . S
C140 O130 1.243 1_455 S
C141 C144 1.399 1_556 S
C141 C146 1.383 . S
C141 C148 1.496 . S
C142 C143 1.399 1_556 S
C142 C146 1.389 . S
C143 C142 1.399 1_554 S
C143 C145 1.380 . S
C143 H160 0.929 . S
C144 C141 1.399 1_554 S
C144 C145 1.392 . S
C144 H161 0.929 . S
C145 C143 1.380 . S
C145 C144 1.392 . S
C145 H162 0.929 . S
C146 C141 1.383 . S
C146 C142 1.389 . S
C146 H163 0.931 . S
C147 O132 1.266 . S
C147 O133 1.248 . S
C148 Tb84 2.802 . S
C148 O128 1.264 . S
C148 O131 1.256 . S
C148 C141 1.496 . S
C149 C116 1.448 . S
C149 H126 0.930 . S
C149 C150 1.328 . S
C150 C121 1.427 . S
C150 H127 0.929 . S
C150 C149 1.328 . S
C151 O135 1.264 . S
C151 O136 1.243 1_655 S
C152 C155 1.399 . S
C152 C156 1.383 . S
C152 C159 1.496 . S
C153 C154 1.399 . S
C153 C156 1.389 . S
C154 C153 1.399 . S
C154 C157 1.380 . S
C154 H164 0.929 . S
C155 C152 1.399 . S
C155 C157 1.392 . S
C155 H165 0.929 . S
C156 C152 1.383 . S
C156 C153 1.389 . S
C156 H166 0.931 . S
C157 C154 1.380 . S
C157 C155 1.392 . S
C157 H167 0.929 . S
C158 O138 1.266 . S
C158 O139 1.248 . S
C159 Tb95 2.802 . S
C159 O134 1.264 . S
C159 O137 1.256 . S
C159 C152 1.496 . S
H160 C143 0.929 . S
H161 C144 0.929 . S
H162 C145 0.929 . S
H163 C146 0.931 . S
H164 C154 0.929 . S
H165 C155 0.929 . S
H166 C156 0.931 . S
H167 C157 0.929 . S
Tb168 N197 2.617 . S
Tb168 N203 2.572 . S
Tb168 O212 2.465 . S
Tb168 O213 2.387 . S
Tb168 O215 2.428 . S
Tb168 O216 2.308 . S
Tb168 O220 2.349 . S
Tb168 O223 2.393 1_556 S
Tb168 C232 2.802 . S
C169 N170 1.379 . S
C169 C172 1.416 . S
C169 C176 1.424 . S
N170 C169 1.379 . S
N170 C173 1.334 . S
N170 Tb179 2.617 . S
C171 C173 1.390 . S
C171 C174 1.339 . S
C171 H191 0.930 . S
C172 C169 1.416 . S
C172 C174 1.416 . S
C172 C178 1.448 . S
C173 N170 1.334 . S
C173 C171 1.390 . S
C173 H184 0.930 . S
C174 C171 1.339 . S
C174 C172 1.416 . S
C174 H195 0.930 . S
C175 C176 1.413 . S
C175 C177 1.427 . S
C175 C181 1.416 . S
C176 C169 1.424 . S
C176 C175 1.413 . S
C176 N180 1.361 . S
C177 C175 1.427 . S
C177 C178 1.328 . S
C177 H192 0.929 . S
C178 C172 1.448 . S
C178 C177 1.328 . S
C178 H193 0.930 . S
Tb179 N170 2.617 . S
Tb179 N180 2.572 . S
Tb179 O214 2.349 . S
Tb179 O217 2.393 1_554 S
Tb179 O218 2.465 . S
Tb179 O219 2.387 . S
Tb179 O221 2.428 . S
Tb179 O222 2.308 . S
Tb179 C243 2.802 . S
N180 C176 1.361 . S
N180 Tb179 2.572 . S
N180 C182 1.340 . S
C181 C175 1.416 . S
C181 C183 1.332 . S
C181 H189 0.931 . S
C182 N180 1.340 . S
C182 C183 1.407 . S
C182 H188 0.930 . S
C183 C181 1.332 . S
C183 C182 1.407 . S
C183 H185 0.929 . S
H184 C173 0.930 . S
H185 C183 0.929 . S
H186 C201 0.930 . S
H187 C208 0.929 . S
H188 C182 0.930 . S
H189 C181 0.931 . S
H190 C204 0.930 . S
H191 C171 0.930 . S
H192 C177 0.929 . S
H193 C178 0.930 . S
H194 C199 0.930 . S
H195 C174 0.930 . S
H196 C207 0.931 . S
N197 Tb168 2.617 . S
N197 C198 1.379 . S
N197 C201 1.334 . S
C198 N197 1.379 . S
C198 C200 1.416 . S
C198 C206 1.424 . S
C199 H194 0.930 . S
C199 C201 1.390 . S
C199 C202 1.339 . S
C200 C198 1.416 . S
C200 C202 1.416 . S
C200 C233 1.448 . S
C201 H186 0.930 . S
C201 N197 1.334 . S
C201 C199 1.390 . S
C202 C199 1.339 . S
C202 C200 1.416 . S
C202 H209 0.930 . S
N203 Tb168 2.572 . S
N203 C204 1.340 . S
N203 C206 1.361 . S
C204 H190 0.930 . S
C204 N203 1.340 . S
C204 C208 1.407 . S
C205 C206 1.413 . S
C205 C207 1.416 . S
C205 C234 1.427 . S
C206 C198 1.424 . S
C206 N203 1.361 . S
C206 C205 1.413 . S
C207 H196 0.931 . S
C207 C205 1.416 . S
C207 C208 1.332 . S
C208 H187 0.929 . S
C208 C204 1.407 . S
C208 C207 1.332 . S
H209 C202 0.930 . S
H210 C233 0.930 . S
H211 C234 0.929 . S
O212 Tb168 2.465 . S
O212 C232 1.264 . S
O213 Tb168 2.387 . S
O213 C224 1.264 . S
O214 Tb179 2.349 . S
O214 C224 1.243 1_554 S
O215 Tb168 2.428 . S
O215 C232 1.256 . S
O216 Tb168 2.308 . S
O216 C231 1.266 . S
O217 Tb179 2.393 1_556 S
O217 C231 1.248 . S
O218 Tb179 2.465 . S
O218 C243 1.264 . S
O219 Tb179 2.387 . S
O219 C235 1.264 . S
O220 Tb168 2.349 . S
O220 C235 1.243 1_556 S
O221 Tb179 2.428 . S
O221 C243 1.256 . S
O222 Tb179 2.308 . S
O222 C242 1.266 . S
O223 Tb168 2.393 1_554 S
O223 C242 1.248 . S
C224 O213 1.264 . S
C224 O214 1.243 1_556 S
C225 C228 1.399 . S
C225 C230 1.383 . S
C225 C232 1.496 . S
C226 C227 1.399 . S
C226 C230 1.389 . S
C227 C226 1.399 . S
C227 C229 1.380 . S
C227 H244 0.929 . S
C228 C225 1.399 . S
C228 C229 1.392 . S
C228 H245 0.929 . S
C229 C227 1.380 . S
C229 C228 1.392 . S
C229 H246 0.929 . S
C230 C225 1.383 . S
C230 C226 1.389 . S
C230 H247 0.931 . S
C231 O216 1.266 . S
C231 O217 1.248 . S
C232 Tb168 2.802 . S
C232 O212 1.264 . S
C232 O215 1.256 . S
C232 C225 1.496 . S
C233 C200 1.448 . S
C233 H210 0.930 . S
C233 C234 1.328 . S
C234 C205 1.427 . S
C234 H211 0.929 . S
C234 C233 1.328 . S
C235 O219 1.264 . S
C235 O220 1.243 1_554 S
C236 C239 1.399 . S
C236 C240 1.383 . S
C236 C243 1.496 . S
C237 C238 1.399 1_565 S
C237 C240 1.389 . S
C238 C237 1.399 1_545 S
C238 C241 1.380 . S
C238 H248 0.929 . S
C239 C236 1.399 . S
C239 C241 1.392 1_565 S
C239 H249 0.929 . S
C240 C236 1.383 . S
C240 C237 1.389 . S
C240 H250 0.931 . S
C241 C238 1.380 . S
C241 C239 1.392 1_545 S
C241 H251 0.929 . S
C242 O222 1.266 . S
C242 O223 1.248 . S
C243 Tb179 2.802 . S
C243 O218 1.264 . S
C243 O221 1.256 . S
C243 C236 1.496 . S
H244 C227 0.929 . S
H245 C228 0.929 . S
H246 C229 0.929 . S
H247 C230 0.931 . S
H248 C238 0.929 . S
H249 C239 0.929 . S
H250 C240 0.931 . S
H251 C241 0.929 . S
Tb252 N281 2.617 1_545 S
Tb252 N287 2.572 . S
Tb252 O296 2.465 . S
Tb252 O297 2.387 . S
Tb252 O299 2.428 . S
Tb252 O300 2.308 . S
Tb252 O304 2.349 . S
Tb252 O307 2.393 . S
Tb252 C316 2.802 . S
C253 N254 1.379 . S
C253 C256 1.416 . S
C253 C260 1.424 . S
N254 C253 1.379 . S
N254 C257 1.334 . S
N254 Tb263 2.617 . S
C255 C257 1.390 . S
C255 C258 1.339 . S
C255 H275 0.930 . S
C256 C253 1.416 . S
C256 C258 1.416 . S
C256 C262 1.448 . S
C257 N254 1.334 . S
C257 C255 1.390 . S
C257 H268 0.930 . S
C258 C255 1.339 . S
C258 C256 1.416 . S
C258 H279 0.930 . S
C259 C260 1.413 . S
C259 C261 1.427 . S
C259 C265 1.416 . S
C260 C253 1.424 . S
C260 C259 1.413 . S
C260 N264 1.361 . S
C261 C259 1.427 . S
C261 C262 1.328 . S
C261 H276 0.929 . S
C262 C256 1.448 . S
C262 C261 1.328 . S
C262 H277 0.930 . S
Tb263 N254 2.617 . S
Tb263 N264 2.572 . S
Tb263 O298 2.349 . S
Tb263 O301 2.393 . S
Tb263 O302 2.465 . S
Tb263 O303 2.387 . S
Tb263 O305 2.428 . S
Tb263 O306 2.308 . S
Tb263 C327 2.802 . S
N264 C260 1.361 . S
N264 Tb263 2.572 . S
N264 C266 1.340 . S
C265 C259 1.416 . S
C265 C267 1.332 . S
C265 H273 0.931 . S
C266 N264 1.340 . S
C266 C267 1.407 . S
C266 H272 0.930 . S
C267 C265 1.332 . S
C267 C266 1.407 . S
C267 H269 0.929 . S
H268 C257 0.930 . S
H269 C267 0.929 . S
H270 C285 0.930 . S
H271 C292 0.929 . S
H272 C266 0.930 . S
H273 C265 0.931 . S
H274 C288 0.930 . S
H275 C255 0.930 . S
H276 C261 0.929 . S
H277 C262 0.930 . S
H278 C283 0.930 . S
H279 C258 0.930 . S
H280 C291 0.931 1_565 S
N281 Tb252 2.617 1_565 S
N281 C282 1.379 . S
N281 C285 1.334 . S
C282 N281 1.379 . S
C282 C284 1.416 . S
C282 C290 1.412 1_565 S
C283 H278 0.930 . S
C283 C285 1.390 . S
C283 C286 1.339 . S
C284 C282 1.416 . S
C284 C286 1.416 . S
C284 C317 1.448 . S
C285 H270 0.930 . S
C285 N281 1.334 . S
C285 C283 1.390 . S
C286 C283 1.339 . S
C286 C284 1.416 . S
C286 H293 0.930 . S
N287 Tb252 2.572 . S
N287 C288 1.340 . S
N287 C290 1.381 . S
C288 H274 0.930 . S
C288 N287 1.340 . S
C288 C292 1.407 . S
C289 C290 1.404 1_565 S
C289 C291 1.416 1_565 S
C289 C318 1.427 . S
C290 C282 1.412 1_545 S
C290 N287 1.381 . S
C290 C289 1.404 1_545 S
C291 H280 0.931 1_545 S
C291 C289 1.416 1_545 S
C291 C292 1.332 . S
C292 H271 0.929 . S
C292 C288 1.407 . S
C292 C291 1.332 . S
H293 C286 0.930 . S
H294 C317 0.930 . S
H295 C318 0.929 . S
O296 Tb252 2.465 . S
O296 C316 1.264 . S
O297 Tb252 2.387 . S
O297 C308 1.264 . S
O298 Tb263 2.349 . S
O298 C308 1.243 . S
O299 Tb252 2.428 . S
O299 C316 1.256 . S
O300 Tb252 2.308 . S
O300 C315 1.266 . S
O301 Tb263 2.393 . S
O301 C315 1.248 . S
O302 Tb263 2.465 . S
O302 C327 1.264 . S
O303 Tb263 2.387 . S
O303 C319 1.264 . S
O304 Tb252 2.349 . S
O304 C319 1.243 . S
O305 Tb263 2.428 . S
O305 C327 1.256 . S
O306 Tb263 2.308 . S
O306 C326 1.266 . S
O307 Tb252 2.393 . S
O307 C326 1.248 . S
C308 O297 1.264 . S
C308 O298 1.243 . S
C309 C312 1.399 . S
C309 C314 1.383 . S
C309 C316 1.496 . S
C310 C311 1.399 . S
C310 C314 1.389 . S
C311 C310 1.399 . S
C311 C313 1.380 . S
C311 H328 0.929 . S
C312 C309 1.399 . S
C312 C313 1.392 . S
C312 H329 0.929 . S
C313 C311 1.380 . S
C313 C312 1.392 . S
C313 H330 0.929 . S
C314 C309 1.383 . S
C314 C310 1.389 . S
C314 H331 0.931 . S
C315 O300 1.266 . S
C315 O301 1.248 . S
C316 Tb252 2.802 . S
C316 O296 1.264 . S
C316 O299 1.256 . S
C316 C309 1.496 . S
C317 C284 1.448 . S
C317 H294 0.930 . S
C317 C318 1.328 . S
C318 C289 1.427 . S
C318 H295 0.929 . S
C318 C317 1.328 . S
C319 O303 1.264 . S
C319 O304 1.243 . S
C320 C323 1.399 . S
C320 C324 1.383 . S
C320 C327 1.496 . S
C321 C322 1.399 1_554 S
C321 C324 1.389 . S
C322 C321 1.399 1_556 S
C322 C325 1.380 . S
C322 H332 0.929 . S
C323 C320 1.399 . S
C323 C325 1.392 1_554 S
C323 H333 0.929 . S
C324 C320 1.383 . S
C324 C321 1.389 . S
C324 H334 0.931 . S
C325 C322 1.380 . S
C325 C323 1.392 1_556 S
C325 H335 0.929 . S
C326 O306 1.266 . S
C326 O307 1.248 . S
C327 Tb263 2.802 . S
C327 O302 1.264 . S
C327 O305 1.256 . S
C327 C320 1.496 . S
H328 C311 0.929 . S
H329 C312 0.929 . S
H330 C313 0.929 . S
H331 C314 0.931 . S
H332 C322 0.929 . S
H333 C323 0.929 . S
H334 C324 0.931 . S
H335 C325 0.929 . S
Tb336 N365 2.617 . S
Tb336 N371 2.572 . S
Tb336 O380 2.465 . S
Tb336 O381 2.387 . S
Tb336 O383 2.428 . S
Tb336 O384 2.308 . S
Tb336 O388 2.349 . S
Tb336 O391 2.393 . S
Tb336 C400 2.802 . S
C337 N338 1.379 . S
C337 C340 1.416 . S
C337 C344 1.424 . S
N338 C337 1.379 . S
N338 C341 1.334 . S
N338 Tb347 2.617 . S
C339 C341 1.390 . S
C339 C342 1.339 . S
C339 H359 0.930 . S
C340 C337 1.416 . S
C340 C342 1.416 . S
C340 C346 1.448 . S
C341 N338 1.334 . S
C341 C339 1.390 . S
C341 H352 0.930 . S
C342 C339 1.339 . S
C342 C340 1.416 . S
C342 H363 0.930 . S
C343 C344 1.413 . S
C343 C345 1.427 . S
C343 C349 1.416 1_545 S
C344 C337 1.424 . S
C344 C343 1.413 . S
C344 N348 1.361 . S
C345 C343 1.427 . S
C345 C346 1.328 . S
C345 H360 0.929 1_545 S
C346 C340 1.448 . S
C346 C345 1.328 . S
C346 H361 0.930 . S
Tb347 N338 2.617 . S
Tb347 N348 2.572 . S
Tb347 O382 2.349 . S
Tb347 O385 2.393 . S
Tb347 O386 2.465 . S
Tb347 O387 2.387 . S
Tb347 O389 2.428 . S
Tb347 O390 2.308 . S
Tb347 C411 2.802 . S
N348 C344 1.361 . S
N348 Tb347 2.572 . S
N348 C350 1.340 . S
C349 C343 1.416 1_565 S
C349 C351 1.332 1_565 S
C349 H357 0.931 . S
C350 N348 1.340 . S
C350 C351 1.407 . S
C350 H356 0.930 . S
C351 C349 1.332 1_545 S
C351 C350 1.407 . S
C351 H353 0.929 1_545 S
H352 C341 0.930 . S
H353 C351 0.929 1_565 S
H354 C369 0.930 . S
H355 C376 0.929 . S
H356 C350 0.930 . S
H357 C349 0.931 . S
H358 C372 0.930 . S
H359 C339 0.930 . S
H360 C345 0.929 1_565 S
H361 C346 0.930 . S
H362 C367 0.930 . S
H363 C342 0.930 . S
H364 C375 0.931 . S
N365 Tb336 2.617 . S
N365 C366 1.379 . S
N365 C369 1.334 . S
C366 N365 1.379 . S
C366 C368 1.416 . S
C366 C374 1.424 . S
C367 H362 0.930 . S
C367 C369 1.390 . S
C367 C370 1.339 . S
C368 C366 1.416 . S
C368 C370 1.416 . S
C368 C401 1.448 . S
C369 H354 0.930 . S
C369 N365 1.334 . S
C369 C367 1.390 . S
C370 C367 1.339 . S
C370 C368 1.416 . S
C370 H377 0.930 . S
N371 Tb336 2.572 . S
N371 C372 1.340 . S
N371 C374 1.361 . S
C372 H358 0.930 . S
C372 N371 1.340 . S
C372 C376 1.407 . S
C373 C374 1.413 . S
C373 C375 1.416 . S
C373 C402 1.427 . S
C374 C366 1.424 . S
C374 N371 1.361 . S
C374 C373 1.413 . S
C375 H364 0.931 . S
C375 C373 1.416 . S
C375 C376 1.332 . S
C376 H355 0.929 . S
C376 C372 1.407 . S
C376 C375 1.332 . S
H377 C370 0.930 . S
H378 C401 0.930 . S
H379 C402 0.929 . S
O380 Tb336 2.465 . S
O380 C400 1.264 . S
O381 Tb336 2.387 . S
O381 C392 1.264 . S
O382 Tb347 2.349 . S
O382 C392 1.243 . S
O383 Tb336 2.428 . S
O383 C400 1.256 . S
O384 Tb336 2.308 . S
O384 C399 1.266 . S
O385 Tb347 2.393 . S
O385 C399 1.248 . S
O386 Tb347 2.465 . S
O386 C411 1.264 . S
O387 Tb347 2.387 . S
O387 C403 1.264 . S
O388 Tb336 2.349 . S
O388 C403 1.243 . S
O389 Tb347 2.428 . S
O389 C411 1.256 . S
O390 Tb347 2.308 . S
O390 C410 1.266 . S
O391 Tb336 2.393 . S
O391 C410 1.248 . S
C392 O381 1.264 . S
C392 O382 1.243 . S
C393 C396 1.399 . S
C393 C398 1.383 . S
C393 C400 1.496 . S
C394 C395 1.399 . S
C394 C398 1.389 . S
C395 C394 1.399 . S
C395 C397 1.380 . S
C395 H412 0.929 . S
C396 C393 1.399 . S
C396 C397 1.392 . S
C396 H413 0.929 . S
C397 C395 1.380 . S
C397 C396 1.392 . S
C397 H414 0.929 . S
C398 C393 1.383 . S
C398 C394 1.389 . S
C398 H415 0.931 . S
C399 O384 1.266 . S
C399 O385 1.248 . S
C400 Tb336 2.802 . S
C400 O380 1.264 . S
C400 O383 1.256 . S
C400 C393 1.496 . S
C401 C368 1.448 . S
C401 H378 0.930 . S
C401 C402 1.328 . S
C402 C373 1.427 . S
C402 H379 0.929 . S
C402 C401 1.328 . S
C403 O387 1.264 . S
C403 O388 1.243 . S
C404 C407 1.399 . S
C404 C408 1.383 . S
C404 C411 1.496 . S
C405 C406 1.399 . S
C405 C408 1.389 . S
C406 C405 1.399 . S
C406 C409 1.380 . S
C406 H416 0.929 . S
C407 C404 1.399 . S
C407 C409 1.392 . S
C407 H417 0.929 . S
C408 C404 1.383 . S
C408 C405 1.389 . S
C408 H418 0.931 . S
C409 C406 1.380 . S
C409 C407 1.392 . S
C409 H419 0.929 . S
C410 O390 1.266 . S
C410 O391 1.248 . S
C411 Tb347 2.802 . S
C411 O386 1.264 . S
C411 O389 1.256 . S
C411 C404 1.496 . S
H412 C395 0.929 . S
H413 C396 0.929 . S
H414 C397 0.929 . S
H415 C398 0.931 . S
H416 C406 0.929 . S
H417 C407 0.929 . S
H418 C408 0.931 . S
H419 C409 0.929 . S
Tb420 N449 2.617 . S
Tb420 N455 2.572 . S
Tb420 O464 2.465 . S
Tb420 O465 2.387 1_455 S
Tb420 O467 2.428 . S
Tb420 O468 2.308 1_455 S
Tb420 O472 2.349 . S
Tb420 O475 2.393 . S
Tb420 C484 2.802 . S
C421 N422 1.379 . S
C421 C424 1.416 . S
C421 C428 1.424 . S
N422 C421 1.379 . S
N422 C425 1.334 . S
N422 Tb431 2.617 . S
C423 C425 1.390 . S
C423 C426 1.339 . S
C423 H443 0.930 . S
C424 C421 1.416 . S
C424 C426 1.416 . S
C424 C430 1.448 . S
C425 N422 1.334 . S
C425 C423 1.390 . S
C425 H436 0.930 . S
C426 C423 1.339 . S
C426 C424 1.416 . S
C426 H447 0.930 . S
C427 C428 1.413 . S
C427 C429 1.427 . S
C427 C433 1.416 1_655 S
C428 C421 1.424 . S
C428 C427 1.413 . S
C428 N432 1.361 . S
C429 C427 1.427 . S
C429 C430 1.328 . S
C429 H444 0.929 . S
C430 C424 1.448 . S
C430 C429 1.328 . S
C430 H445 0.930 . S
Tb431 N422 2.617 . S
Tb431 N432 2.572 . S
Tb431 O466 2.349 . S
Tb431 O469 2.393 . S
Tb431 O470 2.465 . S
Tb431 O471 2.387 1_655 S
Tb431 O473 2.428 . S
Tb431 O474 2.308 1_655 S
Tb431 C495 2.802 . S
N432 C428 1.361 . S
N432 Tb431 2.572 . S
N432 C434 1.340 . S
C433 C427 1.416 1_455 S
C433 C435 1.332 . S
C433 H441 0.931 . S
C434 N432 1.340 . S
C434 C435 1.407 1_655 S
C434 H440 0.932 . S
C435 C433 1.332 . S
C435 C434 1.407 1_455 S
C435 H437 0.929 . S
H436 C425 0.930 . S
H437 C435 0.929 . S
H438 C453 0.930 . S
H439 C460 0.929 . S
H440 C434 0.932 . S
H441 C433 0.931 . S
H442 C456 0.931 . S
H443 C423 0.930 . S
H444 C429 0.929 . S
H445 C430 0.930 . S
H446 C451 0.930 . S
H447 C426 0.930 . S
H448 C459 0.931 1_554 S
N449 Tb420 2.617 . S
N449 C450 1.379 . S
N449 C453 1.334 . S
C450 N449 1.379 . S
C450 C452 1.416 . S
C450 C458 1.424 . S
C451 H446 0.930 . S
C451 C453 1.390 . S
C451 C454 1.339 . S
C452 C450 1.416 . S
C452 C454 1.416 . S
C452 C485 1.448 . S
C453 H438 0.930 . S
C453 N449 1.334 . S
C453 C451 1.390 . S
C454 C451 1.339 . S
C454 C452 1.416 . S
C454 H461 0.930 . S
N455 Tb420 2.572 . S
N455 C456 1.340 . S
N455 C458 1.361 . S
C456 H442 0.931 . S
C456 N455 1.340 . S
C456 C460 1.407 1_455 S
C457 C458 1.413 . S
C457 C459 1.416 1_455 S
C457 C486 1.427 . S
C458 C450 1.424 . S
C458 N455 1.361 . S
C458 C457 1.413 . S
C459 H448 0.931 1_556 S
C459 C457 1.416 1_655 S
C459 C460 1.332 . S
C460 H439 0.929 . S
C460 C456 1.407 1_655 S
C460 C459 1.332 . S
H461 C454 0.930 . S
H462 C485 0.930 . S
H463 C486 0.929 . S
O464 Tb420 2.465 . S
O464 C484 1.264 . S
O465 Tb420 2.387 1_655 S
O465 C476 1.264 . S
O466 Tb431 2.349 . S
O466 C476 1.243 . S
O467 Tb420 2.428 . S
O467 C484 1.256 . S
O468 Tb420 2.308 1_655 S
O468 C483 1.266 . S
O469 Tb431 2.393 . S
O469 C483 1.248 . S
O470 Tb431 2.465 . S
O470 C495 1.264 . S
O471 Tb431 2.387 1_455 S
O471 C487 1.264 . S
O472 Tb420 2.349 . S
O472 C487 1.243 . S
O473 Tb431 2.428 . S
O473 C495 1.256 . S
O474 Tb431 2.308 1_455 S
O474 C494 1.266 . S
O475 Tb420 2.393 . S
O475 C494 1.248 . S
C476 O465 1.264 . S
C476 O466 1.243 . S
C477 C480 1.399 . S
C477 C482 1.383 . S
C477 C484 1.496 . S
C478 C479 1.399 . S
C478 C482 1.389 . S
C479 C478 1.399 . S
C479 C481 1.380 . S
C479 H496 0.929 . S
C480 C477 1.399 . S
C480 C481 1.392 . S
C480 H497 0.929 . S
C481 C479 1.380 . S
C481 C480 1.392 . S
C481 H498 0.929 . S
C482 C477 1.383 . S
C482 C478 1.389 . S
C482 H499 0.931 . S
C483 O468 1.266 . S
C483 O469 1.248 . S
C484 Tb420 2.802 . S
C484 O464 1.264 . S
C484 O467 1.256 . S
C484 C477 1.496 . S
C485 C452 1.448 . S
C485 H462 0.930 . S
C485 C486 1.328 . S
C486 C457 1.427 . S
C486 H463 0.929 . S
C486 C485 1.328 . S
C487 O471 1.264 . S
C487 O472 1.243 . S
C488 C491 1.399 . S
C488 C492 1.383 . S
C488 C495 1.496 . S
C489 C490 1.399 . S
C489 C492 1.389 . S
C490 C489 1.399 . S
C490 C493 1.380 . S
C490 H500 0.929 . S
C491 C488 1.399 . S
C491 C493 1.392 . S
C491 H501 0.929 . S
C492 C488 1.383 . S
C492 C489 1.389 . S
C492 H502 0.931 . S
C493 C490 1.380 . S
C493 C491 1.392 . S
C493 H503 0.929 . S
C494 O474 1.266 . S
C494 O475 1.248 . S
C495 Tb431 2.802 . S
C495 O470 1.264 . S
C495 O473 1.256 . S
C495 C488 1.496 . S
H496 C479 0.929 . S
H497 C480 0.929 . S
H498 C481 0.929 . S
H499 C482 0.931 . S
H500 C490 0.929 . S
H501 C491 0.929 . S
H502 C492 0.931 . S
H503 C493 0.929 . S
Tb504 N533 2.617 . S
Tb504 N539 2.572 . S
Tb504 O548 2.465 . S
Tb504 O549 2.387 1_556 S
Tb504 O551 2.428 . S
Tb504 O552 2.308 1_556 S
Tb504 O556 2.349 . S
Tb504 O559 2.393 . S
Tb504 C568 2.802 . S
C505 N506 1.379 . S
C505 C508 1.416 . S
C505 C512 1.424 . S
N506 C505 1.379 . S
N506 C509 1.334 . S
N506 Tb515 2.617 1_455 S
C507 C509 1.390 . S
C507 C510 1.339 . S
C507 H527 0.930 . S
C508 C505 1.416 . S
C508 C510 1.416 . S
C508 C514 1.448 . S
C509 N506 1.334 . S
C509 C507 1.390 . S
C509 H520 0.930 . S
C510 C507 1.339 . S
C510 C508 1.416 . S
C510 H531 0.930 . S
C511 C512 1.413 . S
C511 C513 1.427 . S
C511 C517 1.416 1_464 S
C512 C505 1.424 . S
C512 C511 1.413 . S
C512 N516 1.361 1_455 S
C513 C511 1.427 . S
C513 C514 1.328 . S
C513 H528 0.929 1_565 S
C514 C508 1.448 . S
C514 C513 1.328 . S
C514 H529 0.930 . S
Tb515 N506 2.617 1_655 S
Tb515 N516 2.572 . S
Tb515 O550 2.349 . S
Tb515 O553 2.393 . S
Tb515 O554 2.465 . S
Tb515 O555 2.387 1_554 S
Tb515 O557 2.428 . S
Tb515 O558 2.308 1_554 S
Tb515 C579 2.802 . S
N516 C512 1.361 1_655 S
N516 Tb515 2.572 . S
N516 C518 1.340 . S
C517 C511 1.416 1_646 S
C517 C519 1.332 1_545 S
C517 H525 0.931 1_655 S
C518 N516 1.340 . S
C518 C519 1.407 1_554 S
C518 H524 0.930 . S
C519 C517 1.332 1_565 S
C519 C518 1.407 1_556 S
C519 H521 0.929 1_565 S
H520 C509 0.930 . S
H521 C519 0.929 1_545 S
H522 C537 0.930 . S
H523 C544 0.929 . S
H524 C518 0.930 . S
H525 C517 0.931 1_455 S
H526 C540 0.930 . S
H527 C507 0.930 . S
H528 C513 0.929 1_545 S
H529 C514 0.930 . S
H530 C535 0.930 . S
H531 C510 0.930 . S
H532 C543 0.931 . S
N533 Tb504 2.617 . S
N533 C534 1.379 . S
N533 C537 1.334 . S
C534 N533 1.379 . S
C534 C536 1.416 . S
C534 C542 1.424 . S
C535 H530 0.930 . S
C535 C537 1.390 . S
C535 C538 1.339 . S
C536 C534 1.416 . S
C536 C538 1.416 . S
C536 C569 1.448 . S
C537 H522 0.930 . S
C537 N533 1.334 . S
C537 C535 1.390 . S
C538 C535 1.339 . S
C538 C536 1.416 . S
C538 H545 0.930 . S
N539 Tb504 2.572 . S
N539 C540 1.340 . S
N539 C542 1.361 . S
C540 H526 0.930 . S
C540 N539 1.340 . S
C540 C544 1.407 1_556 S
C541 C542 1.413 . S
C541 C543 1.416 1_556 S
C541 C570 1.427 . S
C542 C534 1.424 . S
C542 N539 1.361 . S
C542 C541 1.413 . S
C543 H532 0.931 . S
C543 C541 1.416 1_554 S
C543 C544 1.332 . S
C544 H523 0.929 . S
C544 C540 1.407 1_554 S
C544 C543 1.332 . S
H545 C538 0.930 . S
H546 C569 0.930 . S
H547 C570 0.929 . S
O548 Tb504 2.465 . S
O548 C568 1.264 . S
O549 Tb504 2.387 1_554 S
O549 C560 1.264 . S
O550 Tb515 2.349 . S
O550 C560 1.243 . S
O551 Tb504 2.428 . S
O551 C568 1.256 . S
O552 Tb504 2.308 1_554 S
O552 C567 1.266 . S
O553 Tb515 2.393 . S
O553 C567 1.248 . S
O554 Tb515 2.465 . S
O554 C579 1.264 . S
O555 Tb515 2.387 1_556 S
O555 C571 1.264 . S
O556 Tb504 2.349 . S
O556 C571 1.243 . S
O557 Tb515 2.428 . S
O557 C579 1.256 . S
O558 Tb515 2.308 1_556 S
O558 C578 1.266 . S
O559 Tb504 2.393 . S
O559 C578 1.248 . S
C560 O549 1.264 . S
C560 O550 1.243 . S
C561 C564 1.399 . S
C561 C566 1.383 . S
C561 C568 1.496 . S
C562 C563 1.399 . S
C562 C566 1.389 . S
C563 C562 1.399 . S
C563 C565 1.380 . S
C563 H580 0.929 . S
C564 C561 1.399 . S
C564 C565 1.392 . S
C564 H581 0.929 . S
C565 C563 1.380 . S
C565 C564 1.392 . S
C565 H582 0.929 . S
C566 C561 1.383 . S
C566 C562 1.389 . S
C566 H583 0.931 . S
C567 O552 1.266 . S
C567 O553 1.248 . S
C568 Tb504 2.802 . S
C568 O548 1.264 . S
C568 O551 1.256 . S
C568 C561 1.496 . S
C569 C536 1.448 . S
C569 H546 0.930 . S
C569 C570 1.328 . S
C570 C541 1.427 . S
C570 H547 0.929 . S
C570 C569 1.328 . S
C571 O555 1.264 . S
C571 O556 1.243 . S
C572 C575 1.399 . S
C572 C576 1.383 . S
C572 C579 1.496 . S
C573 C574 1.399 . S
C573 C576 1.389 . S
C574 C573 1.399 . S
C574 C577 1.380 . S
C574 H584 0.929 . S
C575 C572 1.399 . S
C575 C577 1.392 . S
C575 H585 0.929 . S
C576 C572 1.383 . S
C576 C573 1.389 . S
C576 H586 0.931 . S
C577 C574 1.380 . S
C577 C575 1.392 . S
C577 H587 0.929 . S
C578 O558 1.266 . S
C578 O559 1.248 . S
C579 Tb515 2.802 . S
C579 O554 1.264 . S
C579 O557 1.256 . S
C579 C572 1.496 . S
H580 C563 0.929 . S
H581 C564 0.929 . S
H582 C565 0.929 . S
H583 C566 0.931 . S
H584 C574 0.929 . S
H585 C575 0.929 . S
H586 C576 0.931 . S
H587 C577 0.929 . S
Tb588 N617 2.617 . S
Tb588 N623 2.572 . S
Tb588 O632 2.465 . S
Tb588 O633 2.387 . S
Tb588 O635 2.428 . S
Tb588 O636 2.308 . S
Tb588 O640 2.349 . S
Tb588 O643 2.393 . S
Tb588 C652 2.802 . S
C589 N590 1.379 . S
C589 C592 1.416 . S
C589 C596 1.424 . S
N590 C589 1.379 . S
N590 C593 1.334 . S
N590 Tb599 2.617 . S
C591 C593 1.390 . S
C591 C594 1.339 . S
C591 H611 0.930 . S
C592 C589 1.416 . S
C592 C594 1.416 . S
C592 C598 1.448 . S
C593 N590 1.334 . S
C593 C591 1.390 . S
C593 H604 0.930 . S
C594 C591 1.339 . S
C594 C592 1.416 . S
C594 H615 0.930 . S
C595 C596 1.413 . S
C595 C597 1.427 . S
C595 C601 1.416 1_554 S
C596 C589 1.424 . S
C596 C595 1.413 . S
C596 N600 1.361 . S
C597 C595 1.427 . S
C597 C598 1.328 . S
C597 H612 0.929 1_554 S
C598 C592 1.448 . S
C598 C597 1.328 . S
C598 H613 0.930 . S
Tb599 N590 2.617 . S
Tb599 N600 2.572 . S
Tb599 O634 2.349 . S
Tb599 O637 2.393 . S
Tb599 O638 2.465 . S
Tb599 O639 2.387 . S
Tb599 O641 2.428 . S
Tb599 O642 2.308 . S
Tb599 C663 2.802 . S
N600 C596 1.361 . S
N600 Tb599 2.572 . S
N600 C602 1.340 . S
C601 C595 1.416 1_556 S
C601 C603 1.332 1_556 S
C601 H609 0.931 . S
C602 N600 1.340 . S
C602 C603 1.407 . S
C602 H608 0.930 . S
C603 C601 1.332 1_554 S
C603 C602 1.407 . S
C603 H605 0.929 1_554 S
H604 C593 0.930 . S
H605 C603 0.929 1_556 S
H606 C621 0.930 . S
H607 C628 0.929 . S
H608 C602 0.930 . S
H609 C601 0.931 . S
H610 C624 0.930 . S
H611 C591 0.930 . S
H612 C597 0.929 1_556 S
H613 C598 0.930 . S
H614 C619 0.930 . S
H615 C594 0.930 . S
H616 C627 0.931 . S
N617 Tb588 2.617 . S
N617 C618 1.379 . S
N617 C621 1.334 . S
C618 N617 1.379 . S
C618 C620 1.416 . S
C618 C626 1.424 . S
C619 H614 0.930 . S
C619 C621 1.390 . S
C619 C622 1.339 . S
C620 C618 1.416 . S
C620 C622 1.416 . S
C620 C653 1.448 . S
C621 H606 0.930 . S
C621 N617 1.334 . S
C621 C619 1.390 . S
C622 C619 1.339 . S
C622 C620 1.416 . S
C622 H629 0.930 . S
N623 Tb588 2.572 . S
N623 C624 1.340 . S
N623 C626 1.361 . S
C624 H610 0.930 . S
C624 N623 1.340 . S
C624 C628 1.407 . S
C625 C626 1.413 . S
C625 C627 1.416 . S
C625 C654 1.427 . S
C626 C618 1.424 . S
C626 N623 1.361 . S
C626 C625 1.413 . S
C627 H616 0.931 . S
C627 C625 1.416 . S
C627 C628 1.332 . S
C628 H607 0.929 . S
C628 C624 1.407 . S
C628 C627 1.332 . S
H629 C622 0.930 . S
H630 C653 0.930 . S
H631 C654 0.929 . S
O632 Tb588 2.465 . S
O632 C652 1.264 . S
O633 Tb588 2.387 . S
O633 C644 1.264 . S
O634 Tb599 2.349 . S
O634 C644 1.243 . S
O635 Tb588 2.428 . S
O635 C652 1.256 . S
O636 Tb588 2.308 . S
O636 C651 1.266 . S
O637 Tb599 2.393 . S
O637 C651 1.248 . S
O638 Tb599 2.465 . S
O638 C663 1.264 . S
O639 Tb599 2.387 . S
O639 C655 1.264 . S
O640 Tb588 2.349 . S
O640 C655 1.243 . S
O641 Tb599 2.428 . S
O641 C663 1.256 . S
O642 Tb599 2.308 . S
O642 C662 1.266 . S
O643 Tb588 2.393 . S
O643 C662 1.248 . S
C644 O633 1.264 . S
C644 O634 1.243 . S
C645 C648 1.399 . S
C645 C650 1.383 . S
C645 C652 1.496 . S
C646 C647 1.399 . S
C646 C650 1.389 . S
C647 C646 1.399 . S
C647 C649 1.380 . S
C647 H664 0.929 . S
C648 C645 1.399 . S
C648 C649 1.392 . S
C648 H665 0.929 . S
C649 C647 1.380 . S
C649 C648 1.392 . S
C649 H666 0.929 . S
C650 C645 1.383 . S
C650 C646 1.389 . S
C650 H667 0.931 . S
C651 O636 1.266 . S
C651 O637 1.248 . S
C652 Tb588 2.802 . S
C652 O632 1.264 . S
C652 O635 1.256 . S
C652 C645 1.496 . S
C653 C620 1.448 . S
C653 H630 0.930 . S
C653 C654 1.328 . S
C654 C625 1.427 . S
C654 H631 0.929 . S
C654 C653 1.328 . S
C655 O639 1.264 . S
C655 O640 1.243 . S
C656 C659 1.399 . S
C656 C660 1.383 . S
C656 C663 1.496 . S
C657 C658 1.399 . S
C657 C660 1.389 . S
C658 C657 1.399 . S
C658 C661 1.380 . S
C658 H668 0.929 . S
C659 C656 1.399 . S
C659 C661 1.392 . S
C659 H669 0.929 . S
C660 C656 1.383 . S
C660 C657 1.389 . S
C660 H670 0.931 . S
C661 C658 1.380 . S
C661 C659 1.392 . S
C661 H671 0.929 . S
C662 O642 1.266 . S
C662 O643 1.248 . S
C663 Tb599 2.802 . S
C663 O638 1.264 . S
C663 O641 1.256 . S
C663 C656 1.496 . S
H664 C647 0.929 . S
H665 C648 0.929 . S
H666 C649 0.929 . S
H667 C650 0.931 . S
H668 C658 0.929 . S
H669 C659 0.929 . S
H670 C660 0.931 . S
H671 C661 0.929 . S
Tb672 N701 2.617 1_554 S
Tb672 N707 2.572 . S
Tb672 O716 2.465 . S
Tb672 O717 2.387 . S
Tb672 O719 2.428 . S
Tb672 O720 2.308 . S
Tb672 O724 2.349 . S
Tb672 O727 2.393 . S
Tb672 C736 2.802 . S
C673 N674 1.379 . S
C673 C676 1.416 . S
C673 C680 1.424 . S
N674 C673 1.379 . S
N674 C677 1.334 . S
N674 Tb683 2.617 . S
C675 C677 1.390 . S
C675 C678 1.339 . S
C675 H695 0.930 . S
C676 C673 1.416 . S
C676 C678 1.416 . S
C676 C682 1.448 . S
C677 N674 1.334 . S
C677 C675 1.390 . S
C677 H688 0.930 . S
C678 C675 1.339 . S
C678 C676 1.416 . S
C678 H699 0.930 . S
C679 C680 1.413 . S
C679 C681 1.427 . S
C679 C685 1.416 . S
C680 C673 1.424 . S
C680 C679 1.413 . S
C680 N684 1.361 . S
C681 C679 1.427 . S
C681 C682 1.328 . S
C681 H696 0.929 . S
C682 C676 1.448 . S
C682 C681 1.328 . S
C682 H697 0.930 . S
Tb683 N674 2.617 . S
Tb683 N684 2.572 . S
Tb683 O718 2.349 . S
Tb683 O721 2.393 . S
Tb683 O722 2.465 . S
Tb683 O723 2.387 . S
Tb683 O725 2.428 . S
Tb683 O726 2.308 . S
Tb683 C747 2.802 . S
N684 C680 1.361 . S
N684 Tb683 2.572 . S
N684 C686 1.340 . S
C685 C679 1.416 . S
C685 C687 1.332 . S
C685 H693 0.931 . S
C686 N684 1.340 . S
C686 C687 1.407 . S
C686 H692 0.930 . S
C687 C685 1.332 . S
C687 C686 1.407 . S
C687 H689 0.929 . S
H688 C677 0.930 . S
H689 C687 0.929 . S
H690 C705 0.930 . S
H691 C712 0.929 . S
H692 C686 0.930 . S
H693 C685 0.931 . S
H694 C708 0.930 . S
H695 C675 0.930 . S
H696 C681 0.929 . S
H697 C682 0.930 . S
H698 C703 0.930 . S
H699 C678 0.930 . S
H700 C711 0.931 1_556 S
N701 Tb672 2.617 1_556 S
N701 C702 1.379 . S
N701 C705 1.334 . S
C702 N701 1.379 . S
C702 C704 1.416 . S
C702 C710 1.424 . S
C703 H698 0.930 . S
C703 C705 1.390 . S
C703 C706 1.339 . S
C704 C702 1.416 . S
C704 C706 1.416 . S
C704 C737 1.448 . S
C705 H690 0.930 . S
C705 N701 1.334 . S
C705 C703 1.390 . S
C706 C703 1.339 . S
C706 C704 1.416 . S
C706 H713 0.930 . S
N707 Tb672 2.572 . S
N707 C708 1.340 . S
N707 C710 1.361 1_554 S
C708 H694 0.930 . S
C708 N707 1.340 . S
C708 C712 1.407 . S
C709 C710 1.413 . S
C709 C711 1.416 1_556 S
C709 C738 1.427 . S
C710 C702 1.424 . S
C710 N707 1.361 1_556 S
C710 C709 1.413 . S
C711 H700 0.931 1_554 S
C711 C709 1.416 1_554 S
C711 C712 1.332 . S
C712 H691 0.929 . S
C712 C708 1.407 . S
C712 C711 1.332 . S
H713 C706 0.930 . S
H714 C737 0.930 . S
H715 C738 0.929 . S
O716 Tb672 2.465 . S
O716 C736 1.264 . S
O717 Tb672 2.387 . S
O717 C728 1.264 . S
O718 Tb683 2.349 . S
O718 C728 1.243 . S
O719 Tb672 2.428 . S
O719 C736 1.256 . S
O720 Tb672 2.308 . S
O720 C735 1.266 . S
O721 Tb683 2.393 . S
O721 C735 1.248 . S
O722 Tb683 2.465 . S
O722 C747 1.264 . S
O723 Tb683 2.387 . S
O723 C739 1.264 . S
O724 Tb672 2.349 . S
O724 C739 1.243 . S
O725 Tb683 2.428 . S
O725 C747 1.256 . S
O726 Tb683 2.308 . S
O726 C746 1.266 . S
O727 Tb672 2.393 . S
O727 C746 1.248 . S
C728 O717 1.264 . S
C728 O718 1.243 . S
C729 C732 1.399 . S
C729 C734 1.383 . S
C729 C736 1.496 . S
C730 C731 1.399 . S
C730 C734 1.389 . S
C731 C730 1.399 . S
C731 C733 1.380 . S
C731 H748 0.929 . S
C732 C729 1.399 . S
C732 C733 1.392 . S
C732 H749 0.929 . S
C733 C731 1.380 . S
C733 C732 1.392 . S
C733 H750 0.929 . S
C734 C729 1.383 . S
C734 C730 1.389 . S
C734 H751 0.931 . S
C735 O720 1.266 . S
C735 O721 1.248 . S
C736 Tb672 2.802 . S
C736 O716 1.264 . S
C736 O719 1.256 . S
C736 C729 1.496 . S
C737 C704 1.448 . S
C737 H714 0.930 . S
C737 C738 1.328 . S
C738 C709 1.427 . S
C738 H715 0.929 . S
C738 C737 1.328 . S
C739 O723 1.264 . S
C739 O724 1.243 . S
C740 C743 1.399 . S
C740 C744 1.383 . S
C740 C747 1.496 . S
C741 C742 1.399 1_455 S
C741 C744 1.389 . S
C742 C741 1.399 1_655 S
C742 C745 1.380 . S
C742 H752 0.929 . S
C743 C740 1.399 . S
C743 C745 1.392 1_455 S
C743 H753 0.929 . S
C744 C740 1.383 . S
C744 C741 1.389 . S
C744 H754 0.931 . S
C745 C742 1.380 . S
C745 C743 1.392 1_655 S
C745 H755 0.929 . S
C746 O726 1.266 . S
C746 O727 1.248 . S
C747 Tb683 2.802 . S
C747 O722 1.264 . S
C747 O725 1.256 . S
C747 C740 1.496 . S
H748 C731 0.929 . S
H749 C732 0.929 . S
H750 C733 0.929 . S
H751 C734 0.931 . S
H752 C742 0.929 . S
H753 C743 0.929 . S
H754 C744 0.931 . S
H755 C745 0.929 . S
Tb756 N785 2.617 . S
Tb756 N791 2.572 . S
Tb756 O800 2.465 . S
Tb756 O801 2.387 1_565 S
Tb756 O803 2.428 . S
Tb756 O804 2.308 1_565 S
Tb756 O808 2.349 . S
Tb756 O811 2.393 . S
Tb756 C820 2.802 . S
C757 N758 1.379 . S
C757 C760 1.416 . S
C757 C764 1.424 . S
N758 C757 1.379 . S
N758 C761 1.334 . S
N758 Tb767 2.617 1_554 S
C759 C761 1.390 . S
C759 C762 1.339 . S
C759 H779 0.930 . S
C760 C757 1.416 . S
C760 C762 1.416 . S
C760 C766 1.448 . S
C761 N758 1.334 . S
C761 C759 1.390 . S
C761 H772 0.930 . S
C762 C759 1.339 . S
C762 C760 1.416 . S
C762 H783 0.930 . S
C763 C764 1.413 . S
C763 C765 1.427 . S
C763 C769 1.416 1_644 S
C764 C757 1.424 . S
C764 C763 1.413 . S
C764 N768 1.361 1_554 S
C765 C763 1.427 . S
C765 C766 1.328 . S
C765 H780 0.929 1_655 S
C766 C760 1.448 . S
C766 C765 1.328 . S
C766 H781 0.930 . S
Tb767 N758 2.617 1_556 S
Tb767 N768 2.572 . S
Tb767 O802 2.349 . S
Tb767 O805 2.393 . S
Tb767 O806 2.465 . S
Tb767 O807 2.387 1_545 S
Tb767 O809 2.428 . S
Tb767 O810 2.308 1_545 S
Tb767 C831 2.802 . S
N768 C764 1.361 1_556 S
N768 Tb767 2.572 . S
N768 C770 1.340 . S
C769 C763 1.416 1_466 S
C769 C771 1.332 1_455 S
C769 H777 0.931 1_556 S
C770 N768 1.340 . S
C770 C771 1.407 1_545 S
C770 H776 0.930 . S
C771 C769 1.332 1_655 S
C771 C770 1.407 1_565 S
C771 H773 0.929 1_655 S
H772 C761 0.930 . S
H773 C771 0.929 1_455 S
H774 C789 0.930 . S
H775 C796 0.929 . S
H776 C770 0.930 . S
H777 C769 0.931 1_554 S
H778 C792 0.930 . S
H779 C759 0.930 . S
H780 C765 0.929 1_455 S
H781 C766 0.930 . S
H782 C787 0.930 . S
H783 C762 0.930 . S
H784 C795 0.931 . S
N785 Tb756 2.617 . S
N785 C786 1.379 . S
N785 C789 1.334 . S
C786 N785 1.379 . S
C786 C788 1.416 . S
C786 C794 1.424 . S
C787 H782 0.930 . S
C787 C789 1.390 . S
C787 C790 1.339 . S
C788 C786 1.416 . S
C788 C790 1.416 . S
C788 C821 1.448 . S
C789 H774 0.930 . S
C789 N785 1.334 . S
C789 C787 1.390 . S
C790 C787 1.339 . S
C790 C788 1.416 . S
C790 H797 0.930 . S
N791 Tb756 2.572 . S
N791 C792 1.340 . S
N791 C794 1.361 . S
C792 H778 0.930 . S
C792 N791 1.340 . S
C792 C796 1.407 1_565 S
C793 C794 1.413 . S
C793 C795 1.416 1_565 S
C793 C822 1.427 . S
C794 C786 1.424 . S
C794 N791 1.361 . S
C794 C793 1.413 . S
C795 H784 0.931 . S
C795 C793 1.416 1_545 S
C795 C796 1.332 . S
C796 H775 0.929 . S
C796 C792 1.407 1_545 S
C796 C795 1.332 . S
H797 C790 0.930 . S
H798 C821 0.930 . S
H799 C822 0.929 . S
O800 Tb756 2.465 . S
O800 C820 1.264 . S
O801 Tb756 2.387 1_545 S
O801 C812 1.264 . S
O802 Tb767 2.349 . S
O802 C812 1.243 . S
O803 Tb756 2.428 . S
O803 C820 1.256 . S
O804 Tb756 2.308 1_545 S
O804 C819 1.266 . S
O805 Tb767 2.393 . S
O805 C819 1.248 . S
O806 Tb767 2.465 . S
O806 C831 1.264 . S
O807 Tb767 2.387 1_565 S
O807 C823 1.264 . S
O808 Tb756 2.349 . S
O808 C823 1.243 . S
O809 Tb767 2.428 . S
O809 C831 1.256 . S
O810 Tb767 2.308 1_565 S
O810 C830 1.266 . S
O811 Tb756 2.393 . S
O811 C830 1.248 . S
C812 O801 1.264 . S
C812 O802 1.243 . S
C813 C816 1.399 . S
C813 C818 1.383 . S
C813 C820 1.496 . S
C814 C815 1.399 . S
C814 C818 1.389 . S
C815 C814 1.399 . S
C815 C817 1.380 . S
C815 H832 0.929 . S
C816 C813 1.399 . S
C816 C817 1.392 . S
C816 H833 0.929 . S
C817 C815 1.380 . S
C817 C816 1.392 . S
C817 H834 0.929 . S
C818 C813 1.383 . S
C818 C814 1.389 . S
C818 H835 0.931 . S
C819 O804 1.266 . S
C819 O805 1.248 . S
C820 Tb756 2.802 . S
C820 O800 1.264 . S
C820 O803 1.256 . S
C820 C813 1.496 . S
C821 C788 1.448 . S
C821 H798 0.930 . S
C821 C822 1.328 . S
C822 C793 1.427 . S
C822 H799 0.929 . S
C822 C821 1.328 . S
C823 O807 1.264 . S
C823 O808 1.243 . S
C824 C827 1.399 . S
C824 C828 1.383 . S
C824 C831 1.496 . S
C825 C826 1.399 . S
C825 C828 1.389 . S
C826 C825 1.399 . S
C826 C829 1.380 . S
C826 H836 0.929 . S
C827 C824 1.399 . S
C827 C829 1.392 . S
C827 H837 0.929 . S
C828 C824 1.383 . S
C828 C825 1.389 . S
C828 H838 0.931 . S
C829 C826 1.380 . S
C829 C827 1.392 . S
C829 H839 0.929 . S
C830 O810 1.266 . S
C830 O811 1.248 . S
C831 Tb767 2.802 . S
C831 O806 1.264 . S
C831 O809 1.256 . S
C831 C824 1.496 . S
H832 C815 0.929 . S
H833 C816 0.929 . S
H834 C817 0.929 . S
H835 C818 0.931 . S
H836 C826 0.929 . S
H837 C827 0.929 . S
H838 C828 0.931 . S
H839 C829 0.929 . S
Tb840 N869 2.617 . S
Tb840 N875 2.572 . S
Tb840 O884 2.465 . S
Tb840 O885 2.387 . S
Tb840 O887 2.428 . S
Tb840 O888 2.308 . S
Tb840 O892 2.349 . S
Tb840 O895 2.393 1_565 S
Tb840 C904 2.802 . S
C841 N842 1.379 . S
C841 C844 1.416 . S
C841 C848 1.424 . S
N842 C841 1.379 . S
N842 C845 1.334 . S
N842 Tb851 2.617 . S
C843 C845 1.390 . S
C843 C846 1.339 . S
C843 H863 0.930 . S
C844 C841 1.416 . S
C844 C846 1.416 . S
C844 C850 1.448 . S
C845 N842 1.334 . S
C845 C843 1.390 . S
C845 H856 0.930 . S
C846 C843 1.339 . S
C846 C844 1.416 . S
C846 H867 0.930 . S
C847 C848 1.413 . S
C847 C849 1.427 . S
C847 C853 1.416 . S
C848 C841 1.424 . S
C848 C847 1.413 . S
C848 N852 1.361 . S
C849 C847 1.427 . S
C849 C850 1.328 . S
C849 H864 0.929 . S
C850 C844 1.448 . S
C850 C849 1.328 . S
C850 H865 0.930 . S
Tb851 N842 2.617 . S
Tb851 N852 2.572 . S
Tb851 O886 2.349 . S
Tb851 O889 2.393 1_545 S
Tb851 O890 2.465 . S
Tb851 O891 2.387 . S
Tb851 O893 2.428 . S
Tb851 O894 2.308 . S
Tb851 C915 2.802 . S
N852 C848 1.361 . S
N852 Tb851 2.572 . S
N852 C854 1.340 . S
C853 C847 1.416 . S
C853 C855 1.332 . S
C853 H861 0.931 . S
C854 N852 1.340 . S
C854 C855 1.407 . S
C854 H860 0.930 . S
C855 C853 1.332 . S
C855 C854 1.407 . S
C855 H857 0.929 . S
H856 C845 0.930 . S
H857 C855 0.929 . S
H858 C873 0.930 . S
H859 C880 0.929 . S
H860 C854 0.930 . S
H861 C853 0.931 . S
H862 C876 0.930 . S
H863 C843 0.930 . S
H864 C849 0.929 . S
H865 C850 0.930 . S
H866 C871 0.930 . S
H867 C846 0.930 . S
H868 C879 0.931 . S
N869 Tb840 2.617 . S
N869 C870 1.379 . S
N869 C873 1.334 . S
C870 N869 1.379 . S
C870 C872 1.416 . S
C870 C878 1.424 . S
C871 H866 0.930 . S
C871 C873 1.390 . S
C871 C874 1.339 . S
C872 C870 1.416 . S
C872 C874 1.416 . S
C872 C905 1.448 . S
C873 H858 0.930 . S
C873 N869 1.334 . S
C873 C871 1.390 . S
C874 C871 1.339 . S
C874 C872 1.416 . S
C874 H881 0.930 . S
N875 Tb840 2.572 . S
N875 C876 1.340 . S
N875 C878 1.361 . S
C876 H862 0.930 . S
C876 N875 1.340 . S
C876 C880 1.407 . S
C877 C878 1.413 . S
C877 C879 1.416 . S
C877 C906 1.427 . S
C878 C870 1.424 . S
C878 N875 1.361 . S
C878 C877 1.413 . S
C879 H868 0.931 . S
C879 C877 1.416 . S
C879 C880 1.332 . S
C880 H859 0.929 . S
C880 C876 1.407 . S
C880 C879 1.332 . S
H881 C874 0.930 . S
H882 C905 0.930 . S
H883 C906 0.929 . S
O884 Tb840 2.465 . S
O884 C904 1.264 . S
O885 Tb840 2.387 . S
O885 C896 1.264 . S
O886 Tb851 2.349 . S
O886 C896 1.243 1_545 S
O887 Tb840 2.428 . S
O887 C904 1.256 . S
O888 Tb840 2.308 . S
O888 C903 1.266 . S
O889 Tb851 2.393 1_565 S
O889 C903 1.248 . S
O890 Tb851 2.465 . S
O890 C915 1.264 . S
O891 Tb851 2.387 . S
O891 C907 1.264 . S
O892 Tb840 2.349 . S
O892 C907 1.243 1_565 S
O893 Tb851 2.428 . S
O893 C915 1.256 . S
O894 Tb851 2.308 . S
O894 C914 1.266 . S
O895 Tb840 2.393 1_545 S
O895 C914 1.248 . S
C896 O885 1.264 . S
C896 O886 1.243 1_565 S
C897 C900 1.399 . S
C897 C902 1.383 . S
C897 C904 1.496 . S
C898 C899 1.399 . S
C898 C902 1.389 . S
C899 C898 1.399 . S
C899 C901 1.380 . S
C899 H916 0.929 . S
C900 C897 1.399 . S
C900 C901 1.392 . S
C900 H917 0.929 . S
C901 C899 1.380 . S
C901 C900 1.392 . S
C901 H918 0.929 . S
C902 C897 1.383 . S
C902 C898 1.389 . S
C902 H919 0.931 . S
C903 O888 1.266 . S
C903 O889 1.248 . S
C904 Tb840 2.802 . S
C904 O884 1.264 . S
C904 O887 1.256 . S
C904 C897 1.496 . S
C905 C872 1.448 . S
C905 H882 0.930 . S
C905 C906 1.328 . S
C906 C877 1.427 . S
C906 H883 0.929 . S
C906 C905 1.328 . S
C907 O891 1.264 . S
C907 O892 1.243 1_545 S
C908 C911 1.399 . S
C908 C912 1.383 . S
C908 C915 1.496 . S
C909 C910 1.399 1_655 S
C909 C912 1.389 . S
C910 C909 1.399 1_455 S
C910 C913 1.380 . S
C910 H920 0.929 . S
C911 C908 1.399 . S
C911 C913 1.392 1_655 S
C911 H921 0.929 . S
C912 C908 1.383 . S
C912 C909 1.389 . S
C912 H922 0.931 . S
C913 C910 1.380 . S
C913 C911 1.392 1_455 S
C913 H923 0.929 . S
C914 O894 1.266 . S
C914 O895 1.248 . S
C915 Tb851 2.802 . S
C915 O890 1.264 . S
C915 O893 1.256 . S
C915 C908 1.496 . S
H916 C899 0.929 . S
H917 C900 0.929 . S
H918 C901 0.929 . S
H919 C902 0.931 . S
H920 C910 0.929 . S
H921 C911 0.929 . S
H922 C912 0.931 . S
H923 C913 0.929 . S
Tb924 N953 2.617 . S
Tb924 N959 2.572 . S
Tb924 O968 2.465 . S
Tb924 O969 2.387 . S
Tb924 O971 2.428 . S
Tb924 O972 2.308 . S
Tb924 O976 2.349 . S
Tb924 O979 2.393 . S
Tb924 C988 2.802 . S
C925 N926 1.379 . S
C925 C928 1.416 . S
C925 C932 1.424 . S
N926 C925 1.379 . S
N926 C929 1.334 . S
N926 Tb935 2.617 . S
C927 C929 1.390 . S
C927 C930 1.339 . S
C927 H947 0.930 . S
C928 C925 1.416 . S
C928 C930 1.416 . S
C928 C934 1.448 . S
C929 N926 1.334 . S
C929 C927 1.390 . S
C929 H940 0.930 . S
C930 C927 1.339 . S
C930 C928 1.416 . S
C930 H951 0.930 . S
C931 C932 1.413 . S
C931 C933 1.427 . S
C931 C937 1.416 1_455 S
C932 C925 1.424 . S
C932 C931 1.413 . S
C932 N936 1.361 . S
C933 C931 1.427 . S
C933 C934 1.328 . S
C933 H948 0.929 1_455 S
C934 C928 1.448 . S
C934 C933 1.328 . S
C934 H949 0.930 . S
Tb935 N926 2.617 . S
Tb935 N936 2.572 . S
Tb935 O970 2.349 . S
Tb935 O973 2.393 . S
Tb935 O974 2.465 . S
Tb935 O975 2.387 . S
Tb935 O977 2.428 . S
Tb935 O978 2.308 . S
Tb935 C999 2.802 . S
N936 C932 1.361 . S
N936 Tb935 2.572 . S
N936 C938 1.340 . S
C937 C931 1.416 1_655 S
C937 C939 1.332 1_655 S
C937 H945 0.931 . S
C938 N936 1.340 . S
C938 C939 1.407 . S
C938 H944 0.930 . S
C939 C937 1.332 1_455 S
C939 C938 1.407 . S
C939 H941 0.929 1_455 S
H940 C929 0.930 . S
H941 C939 0.929 1_655 S
H942 C957 0.930 . S
H943 C964 0.929 . S
H944 C938 0.930 . S
H945 C937 0.931 . S
H946 C960 0.930 . S
H947 C927 0.930 . S
H948 C933 0.929 1_655 S
H949 C934 0.930 . S
H950 C955 0.930 . S
H951 C930 0.930 . S
H952 C963 0.931 . S
N953 Tb924 2.617 . S
N953 C954 1.379 . S
N953 C957 1.334 . S
C954 N953 1.379 . S
C954 C956 1.416 . S
C954 C962 1.424 . S
C955 H950 0.930 . S
C955 C957 1.390 . S
C955 C958 1.339 . S
C956 C954 1.416 . S
C956 C958 1.416 . S
C956 C989 1.448 . S
C957 H942 0.930 . S
C957 N953 1.334 . S
C957 C955 1.390 . S
C958 C955 1.339 . S
C958 C956 1.416 . S
C958 H965 0.930 . S
N959 Tb924 2.572 . S
N959 C960 1.340 . S
N959 C962 1.361 . S
C960 H946 0.930 . S
C960 N959 1.340 . S
C960 C964 1.407 . S
C961 C962 1.413 . S
C961 C963 1.416 . S
C961 C990 1.427 . S
C962 C954 1.424 . S
C962 N959 1.361 . S
C962 C961 1.413 . S
C963 H952 0.931 . S
C963 C961 1.416 . S
C963 C964 1.332 . S
C964 H943 0.929 . S
C964 C960 1.407 . S
C964 C963 1.332 . S
H965 C958 0.930 . S
H966 C989 0.930 . S
H967 C990 0.929 . S
O968 Tb924 2.465 . S
O968 C988 1.264 . S
O969 Tb924 2.387 . S
O969 C980 1.264 . S
O970 Tb935 2.349 . S
O970 C980 1.243 . S
O971 Tb924 2.428 . S
O971 C988 1.256 . S
O972 Tb924 2.308 . S
O972 C987 1.266 . S
O973 Tb935 2.393 . S
O973 C987 1.248 . S
O974 Tb935 2.465 . S
O974 C999 1.264 . S
O975 Tb935 2.387 . S
O975 C991 1.264 . S
O976 Tb924 2.349 . S
O976 C991 1.243 . S
O977 Tb935 2.428 . S
O977 C999 1.256 . S
O978 Tb935 2.308 . S
O978 C998 1.266 . S
O979 Tb924 2.393 . S
O979 C998 1.248 . S
C980 O969 1.264 . S
C980 O970 1.243 . S
C981 C984 1.399 . S
C981 C986 1.383 . S
C981 C988 1.496 . S
C982 C983 1.399 . S
C982 C986 1.389 . S
C983 C982 1.399 . S
C983 C985 1.380 . S
C983 H1000 0.929 . S
C984 C981 1.399 . S
C984 C985 1.392 . S
C984 H1001 0.929 . S
C985 C983 1.380 . S
C985 C984 1.392 . S
C985 H1002 0.929 . S
C986 C981 1.383 . S
C986 C982 1.389 . S
C986 H1003 0.931 . S
C987 O972 1.266 . S
C987 O973 1.248 . S
C988 Tb924 2.802 . S
C988 O968 1.264 . S
C988 O971 1.256 . S
C988 C981 1.496 . S
C989 C956 1.448 . S
C989 H966 0.930 . S
C989 C990 1.328 . S
C990 C961 1.427 . S
C990 H967 0.929 . S
C990 C989 1.328 . S
C991 O975 1.264 . S
C991 O976 1.243 . S
C992 C995 1.399 . S
C992 C996 1.383 . S
C992 C999 1.496 . S
C993 C994 1.399 . S
C993 C996 1.389 . S
C994 C993 1.399 . S
C994 C997 1.380 . S
C994 H1004 0.929 . S
C995 C992 1.399 . S
C995 C997 1.392 . S
C995 H1005 0.929 . S
C996 C992 1.383 . S
C996 C993 1.389 . S
C996 H1006 0.931 . S
C997 C994 1.380 . S
C997 C995 1.392 . S
C997 H1007 0.929 . S
C998 O978 1.266 . S
C998 O979 1.248 . S
C999 Tb935 2.802 . S
C999 O974 1.264 . S
C999 O977 1.256 . S
C999 C992 1.496 . S
H1000 C983 0.929 . S
H1001 C984 0.929 . S
H1002 C985 0.929 . S
H1003 C986 0.931 . S
H1004 C994 0.929 . S
H1005 C995 0.929 . S
H1006 C996 0.931 . S
H1007 C997 0.929 . S
C74 C991 2.217 . S
C830 C158 2.529 . S
C235 C746 2.329 . S
C326 C907 2.346 . S
C410 C914 2.507 . S
C487 C998 2.464 . S
C823 C578 2.488 . S
C655 C739 2.136 . S
C319 C403 2.197 . S
C67 C494 2.345 . S
C151 C571 2.409 . S
C662 C242 2.536 . S
C69 C735 2.113 . S
C153 C896 2.039 . S
C980 C226 2.875 . S
C321 C819 2.123 1_554 S
C405 C812 2.265 . S
C728 C478 2.915 1_554 S
C903 C573 2.033 . S
C987 C646 3.115 . S
C56 C310 2.893 . S
C58 C140 2.877 1_545 S
C142 C231 2.949 . S
C308 C237 2.114 1_545 S
C489 C392 2.007 . S
C483 C562 2.854 . S
C560 C657 2.240 . S
C394 C651 3.071 . S
C730 C315 2.838 . S
C476 C825 2.062 . S
C741 C567 2.125 1_455 S
C898 C644 2.748 . S
C399 C982 3.117 . S
C993 C147 2.234 . S
C224 C814 2.811 . S
C909 C63 2.088 1_655 S
