# Generated by pormake.
# Topology upa, (4)-cn, num edge types: 1
# Building blocks:
#     Node 0, Type 0, BuildingBlock: GALJAG_clean_sbu_0, # of connection points: 4
#     Node 1, Type 0, BuildingBlock: GALJAG_clean_sbu_0, # of connection points: 4
#     Node 2, Type 0, BuildingBlock: GALJAG_clean_sbu_0, # of connection points: 4
#     Node 3, Type 0, BuildingBlock: GALJAG_clean_sbu_0, # of connection points: 4
#     Node 4, Type 0, BuildingBlock: GALJAG_clean_sbu_0, # of connection points: 4
#     Node 5, Type 0, BuildingBlock: GALJAG_clean_sbu_0, # of connection points: 4
#     Node 6, Type 0, BuildingBlock: GALJAG_clean_sbu_0, # of connection points: 4
#     Node 7, Type 0, BuildingBlock: GALJAG_clean_sbu_0, # of connection points: 4
#     Edge 8, Type (0, 0), BuildingBlock: FUNLAD_clean_linker_1, # of connection points: 2
#     Edge 9, Type (0, 0), BuildingBlock: FUNLAD_clean_linker_1, # of connection points: 2
#     Edge 10, Type (0, 0), BuildingBlock: FUNLAD_clean_linker_1, # of connection points: 2
#     Edge 11, Type (0, 0), BuildingBlock: FUNLAD_clean_linker_1, # of connection points: 2
#     Edge 12, Type (0, 0), BuildingBlock: FUNLAD_clean_linker_1, # of connection points: 2
#     Edge 13, Type (0, 0), BuildingBlock: FUNLAD_clean_linker_1, # of connection points: 2
#     Edge 14, Type (0, 0), BuildingBlock: FUNLAD_clean_linker_1, # of connection points: 2
#     Edge 15, Type (0, 0), BuildingBlock: FUNLAD_clean_linker_1, # of connection points: 2
#     Edge 16, Type (0, 0), BuildingBlock: FUNLAD_clean_linker_1, # of connection points: 2
#     Edge 17, Type (0, 0), BuildingBlock: FUNLAD_clean_linker_1, # of connection points: 2
#     Edge 18, Type (0, 0), BuildingBlock: FUNLAD_clean_linker_1, # of connection points: 2
#     Edge 19, Type (0, 0), BuildingBlock: FUNLAD_clean_linker_1, # of connection points: 2
#     Edge 20, Type (0, 0), BuildingBlock: FUNLAD_clean_linker_1, # of connection points: 2
#     Edge 21, Type (0, 0), BuildingBlock: FUNLAD_clean_linker_1, # of connection points: 2
#     Edge 22, Type (0, 0), BuildingBlock: FUNLAD_clean_linker_1, # of connection points: 2
#     Edge 23, Type (0, 0), BuildingBlock: FUNLAD_clean_linker_1, # of connection points: 2
# Relax obj value: 0.230
# Max RMSD: 0.125
# Mean RMSD: 0.125
data_MOF--net-upa--node1-GALJAG_clean_sbu_0--edge1-FUNLAD_clean_linker_1
_symmetry_space_group_name_H-M    P1
_symmetry_Int_Tables_number       1
_symmetry_cell_setting            triclinic
loop_
_symmetry_equiv_pos_as_xyz
'x, y, z'
_cell_length_a     27.597076
_cell_length_b     27.445868
_cell_length_c     43.766762
_cell_angle_alpha  89.717398
_cell_angle_beta   90.306878
_cell_angle_gamma 90.367063
loop_
_atom_site_label
_atom_site_type_symbol
_atom_site_fract_x
_atom_site_fract_y
_atom_site_fract_z
_atom_type_partial_charge
In0 In 0.20081 0.21743 0.33197 0.0
O1 O 0.21914 0.27349 0.36929 0.0
O2 O 0.22285 0.19818 0.38057 0.0
C3 C 0.1366 0.26361 0.29571 0.0
C4 C 0.28705 0.21736 0.30313 0.0
C5 C 0.13815 0.143 0.33901 0.0
O6 O 0.14273 0.27489 0.32345 0.0
O7 O 0.16524 0.23182 0.28579 0.0
O8 O 0.17855 0.13703 0.32597 0.0
O9 O 0.13069 0.18522 0.34893 0.0
C10 C 0.2273 0.24155 0.3895 0.0
O11 O 0.26829 0.17871 0.31374 0.0
O12 O 0.26226 0.25531 0.30674 0.0
In13 In 0.30533 0.69592 0.83229 0.0
O14 O 0.3386 0.74719 0.79676 0.0
O15 O 0.26969 0.76594 0.81452 0.0
C16 C 0.38189 0.63861 0.84393 0.0
C17 C 0.29604 0.72838 0.89012 0.0
C18 C 0.25032 0.62956 0.80208 0.0
O19 O 0.38616 0.67822 0.8293 0.0
O20 O 0.33969 0.62858 0.85285 0.0
O21 O 0.23379 0.654 0.82405 0.0
O22 O 0.29285 0.64092 0.79432 0.0
C23 C 0.30441 0.7774 0.79717 0.0
O24 O 0.26518 0.7001 0.87804 0.0
O25 O 0.33032 0.74112 0.8729 0.0
In26 In 0.81559 0.80054 0.33552 0.0
O27 O 0.7589 0.8442 0.30895 0.0
O28 O 0.74512 0.76862 0.3158 0.0
C29 C 0.88329 0.86856 0.34773 0.0
C30 C 0.78709 0.7822 0.39326 0.0
C31 C 0.87767 0.75088 0.30005 0.0
O32 O 0.84727 0.87745 0.33061 0.0
O33 O 0.88369 0.82669 0.35958 0.0
O34 O 0.86019 0.73258 0.32416 0.0
O35 O 0.86052 0.79173 0.29269 0.0
C36 C 0.73056 0.80859 0.3048 0.0
O37 O 0.80394 0.74935 0.37627 0.0
O38 O 0.78322 0.82364 0.38083 0.0
In39 In 0.73229 0.3324 0.84242 0.0
O40 O 0.68309 0.27687 0.81864 0.0
O41 O 0.75837 0.2612 0.82103 0.0
C42 C 0.66691 0.40085 0.8556 0.0
C43 C 0.75352 0.30041 0.89925 0.0
C44 C 0.78116 0.39548 0.80615 0.0
O45 O 0.65645 0.3644 0.83917 0.0
O46 O 0.70938 0.40154 0.8663 0.0
O47 O 0.79887 0.37981 0.83096 0.0
O48 O 0.74153 0.37589 0.79852 0.0
C49 C 0.71662 0.24753 0.81261 0.0
O50 O 0.78625 0.30986 0.87997 0.0
O51 O 0.71075 0.30617 0.88964 0.0
In52 In 0.69461 0.3038 0.19273 0.0
O53 O 0.74739 0.3321 0.22898 0.0
O54 O 0.77098 0.2739 0.20096 0.0
C55 C 0.64162 0.38547 0.1986 0.0
C56 C 0.71376 0.29883 0.13222 0.0
C57 C 0.63296 0.23886 0.21885 0.0
O58 O 0.68735 0.38657 0.19878 0.0
O59 O 0.62313 0.34369 0.19567 0.0
O60 O 0.63047 0.25074 0.19101 0.0
O61 O 0.66852 0.25701 0.23308 0.0
C62 C 0.78102 0.30329 0.22222 0.0
O63 O 0.71286 0.26125 0.14897 0.0
O64 O 0.70532 0.33806 0.14585 0.0
In65 In 0.2149 0.19431 0.68353 0.0
O66 O 0.1829 0.26146 0.70707 0.0
O67 O 0.25871 0.26081 0.69796 0.0
C68 C 0.1415 0.12975 0.68144 0.0
C69 C 0.22213 0.21759 0.62385 0.0
C70 C 0.26679 0.13213 0.7182 0.0
O71 O 0.13729 0.16983 0.69546 0.0
O72 O 0.18132 0.12362 0.66818 0.0
O73 O 0.27439 0.13758 0.68992 0.0
O74 O 0.23634 0.16105 0.72934 0.0
C75 C 0.2231 0.28383 0.70849 0.0
O76 O 0.25886 0.20584 0.63961 0.0
O77 O 0.18269 0.21821 0.63821 0.0
In78 In 0.31351 0.72323 0.18661 0.0
O79 O 0.24496 0.70228 0.21257 0.0
O80 O 0.25101 0.77521 0.19599 0.0
C81 C 0.36441 0.64042 0.19186 0.0
C82 C 0.29163 0.72372 0.12648 0.0
C83 C 0.38077 0.77452 0.21815 0.0
O84 O 0.32465 0.64596 0.20556 0.0
O85 O 0.37706 0.67553 0.17501 0.0
O86 O 0.37769 0.77644 0.18935 0.0
O87 O 0.34757 0.75039 0.23098 0.0
C88 C 0.22565 0.74371 0.20985 0.0
O89 O 0.31309 0.75924 0.13911 0.0
O90 O 0.28083 0.68894 0.14412 0.0
In91 In 0.77283 0.8344 0.68808 0.0
O92 O 0.80586 0.76593 0.70974 0.0
O93 O 0.72945 0.76723 0.70251 0.0
C94 C 0.84928 0.89471 0.6816 0.0
C95 C 0.75215 0.81601 0.62898 0.0
C96 C 0.73007 0.89587 0.7274 0.0
O97 O 0.85318 0.85432 0.69547 0.0
O98 O 0.80814 0.90317 0.67037 0.0
O99 O 0.71669 0.89227 0.69984 0.0
O100 O 0.76174 0.8656 0.73567 0.0
C101 C 0.76576 0.74364 0.71191 0.0
O102 O 0.72105 0.83317 0.64702 0.0
O103 O 0.79295 0.80718 0.64091 0.0
H104 H 0.06462 0.11756 0.34865 0.0
C105 C 0.10019 0.10549 0.34135 0.0
H106 H 0.14193 0.04582 0.327 0.0
H107 H 0.92785 0.9774 0.3902 0.0
H108 H 0.95876 0.01286 0.43707 0.0
H109 H 0.04009 0.05067 0.43892 0.0
H110 H 0.09027 0.05445 0.39358 0.0
C111 C 0.1069 0.05832 0.33487 0.0
C112 C 0.06504 0.02367 0.33616 0.0
C113 C 0.03766 0.01861 0.3634 0.0
C114 C 0.99228 0.99387 0.36286 0.0
C115 C 0.96374 0.99341 0.38968 0.0
C116 C 0.98089 0.01397 0.41672 0.0
C117 C 0.02655 0.03546 0.41773 0.0
C118 C 0.05477 0.03782 0.39147 0.0
H119 H 0.95364 0.89069 0.367 0.0
C120 C 0.92462 0.90196 0.35167 0.0
H121 H 0.90228 0.95297 0.31839 0.0
H122 H 0.11126 0.02136 0.28087 0.0
H123 H 0.08486 0.97779 0.23568 0.0
H124 H 0.00896 0.92984 0.23578 0.0
H125 H 0.95863 0.92581 0.28091 0.0
C126 C 0.92976 0.94284 0.33509 0.0
C127 C 0.97618 0.97074 0.3357 0.0
C128 C 1.0054 0.97245 0.30914 0.0
C129 C 0.04974 0.99919 0.3093 0.0
C130 C 0.07759 1.00114 0.28222 0.0
C131 C 0.06285 0.97627 0.25607 0.0
C132 C 0.02008 0.94936 0.2561 0.0
C133 C 0.99145 0.94749 0.28218 0.0
H134 H 0.4123 0.56809 0.85716 0.0
C135 C 0.42174 0.60427 0.84877 0.0
H136 H 0.4778 0.65088 0.83363 0.0
H137 H 0.56229 0.44506 0.90124 0.0
H138 H 0.5255 0.47485 0.94767 0.0
H139 H 0.4818 0.55302 0.94795 0.0
H140 H 0.47368 0.60117 0.90152 0.0
C141 C 0.46812 0.61509 0.84249 0.0
C142 C 0.50573 0.57648 0.8446 0.0
C143 C 0.51289 0.55044 0.87235 0.0
C144 C 0.54047 0.50691 0.87258 0.0
C145 C 0.5436 0.47952 0.90003 0.0
C146 C 0.52239 0.49606 0.92683 0.0
C147 C 0.49762 0.53995 0.92697 0.0
C148 C 0.49284 0.56699 0.90012 0.0
H149 H 0.64646 0.47203 0.87431 0.0
C150 C 0.63408 0.44207 0.86004 0.0
H151 H 0.58046 0.417 0.82935 0.0
H152 H 0.50533 0.62188 0.78855 0.0
H153 H 0.54984 0.5973 0.74371 0.0
H154 H 0.60173 0.52446 0.74492 0.0
H155 H 0.60883 0.4754 0.7909 0.0
C156 C 0.59182 0.44553 0.84502 0.0
C157 C 0.56353 0.49137 0.84547 0.0
C158 C 0.56012 0.51991 0.81846 0.0
C159 C 0.53102 0.56245 0.81797 0.0
C160 C 0.52734 0.58957 0.79043 0.0
C161 C 0.55273 0.57586 0.76445 0.0
C162 C 0.58186 0.5348 0.76511 0.0
C163 C 0.58548 0.50688 0.79166 0.0
H164 H 0.62996 0.46511 0.19984 0.0
C165 C 0.61194 0.42978 0.19984 0.0
H166 H 0.54529 0.39167 0.19827 0.0
H167 H 0.47164 0.61222 0.23806 0.0
H168 H 0.51575 0.5993 0.28548 0.0
H169 H 0.56673 0.52657 0.29275 0.0
H170 H 0.57451 0.46676 0.25246 0.0
C171 C 0.56332 0.42697 0.19929 0.0
C172 C 0.53269 0.47088 0.19554 0.0
C173 C 0.52756 0.50464 0.21972 0.0
C174 C 0.49707 0.54581 0.21588 0.0
C175 C 0.49354 0.57979 0.24 0.0
C176 C 0.51876 0.57288 0.26731 0.0
C177 C 0.54757 0.532 0.27137 0.0
C178 C 0.55191 0.49806 0.24798 0.0
H179 H 0.38186 0.56739 0.21032 0.0
C180 C 0.39508 0.59729 0.19622 0.0
H181 H 0.45285 0.62487 0.16949 0.0
H182 H 0.5358 0.41391 0.14427 0.0
H183 H 0.49201 0.42737 0.09684 0.0
H184 H 0.43806 0.49811 0.09061 0.0
H185 H 0.42762 0.55583 0.13183 0.0
C186 C 0.43948 0.59537 0.18387 0.0
C187 C 0.47113 0.55245 0.18815 0.0
C188 C 0.47658 0.519 0.16391 0.0
C189 C 0.50733 0.47808 0.16762 0.0
C190 C 0.51245 0.44538 0.14289 0.0
C191 C 0.48763 0.45273 0.11547 0.0
C192 C 0.45729 0.49257 0.11196 0.0
C193 C 0.45167 0.52543 0.1358 0.0
H194 H 0.11417 0.05712 0.66984 0.0
C195 C 0.10446 0.09109 0.68088 0.0
H196 H 0.05053 0.12839 0.70526 0.0
H197 H 0.953 0.93228 0.63459 0.0
H198 H 0.975 0.97242 0.58713 0.0
H199 H 0.01765 0.05171 0.58747 0.0
H200 H 0.03984 0.09042 0.63525 0.0
C201 C 0.0604 0.09537 0.69327 0.0
C202 C 0.02609 0.05315 0.6929 0.0
C203 C 0.01038 0.0328 0.66473 0.0
C204 C 0.98268 0.98897 0.66452 0.0
C205 C 0.97146 0.96707 0.63607 0.0
C206 C 0.98428 0.98949 0.60865 0.0
C207 C 0.0085 0.03398 0.60884 0.0
C208 C 0.02144 0.05557 0.63646 0.0
H209 H 0.87887 0.96598 0.66863 0.0
C210 C 0.88787 0.93171 0.67981 0.0
H211 H 0.94088 0.89298 0.7047 0.0
H212 H 0.05016 0.08225 0.75085 0.0
H213 H 0.02375 0.04482 0.79823 0.0
H214 H 0.97019 0.97254 0.79788 0.0
H215 H 0.94339 0.93674 0.75016 0.0
C216 C 0.93192 0.92622 0.69238 0.0
C217 C 0.96696 0.96783 0.69246 0.0
C218 C 0.9817 0.98877 0.72062 0.0
C219 C 0.01166 0.03118 0.72083 0.0
C220 C 0.02681 0.05055 0.74929 0.0
C221 C 0.01194 0.0294 0.7767 0.0
C222 C 0.98184 0.98868 0.7765 0.0
C223 C 0.96675 0.96846 0.74889 0.0
H224 H 0.25259 0.29035 0.42658 0.0
C225 C 0.23987 0.25376 0.42138 0.0
H226 H 0.22153 0.18417 0.43825 0.0
H227 H 0.32673 0.16704 0.56175 0.0
H228 H 0.36932 0.10785 0.53135 0.0
H229 H 0.35811 0.10483 0.47545 0.0
H230 H 0.30358 0.1606 0.4497 0.0
C231 C 0.23402 0.22071 0.44389 0.0
C232 C 0.2471 0.22989 0.47651 0.0
C233 C 0.28075 0.19845 0.49115 0.0
C234 C 0.28829 0.20111 0.5233 0.0
C235 C 0.32017 0.16741 0.53739 0.0
C236 C 0.34491 0.13311 0.52019 0.0
C237 C 0.33854 0.13135 0.48874 0.0
C238 C 0.30691 0.16348 0.47427 0.0
H239 H 0.18872 0.22633 0.57864 0.0
C240 C 0.2233 0.22648 0.59067 0.0
H241 H 0.2991 0.23294 0.58669 0.0
H242 H 0.17732 0.29449 0.45684 0.0
H243 H 0.14201 0.35938 0.4863 0.0
H244 H 0.16456 0.37129 0.54039 0.0
H245 H 0.22135 0.31681 0.56554 0.0
C246 C 0.2644 0.23329 0.57485 0.0
C247 C 0.26317 0.23622 0.54071 0.0
C248 C 0.23347 0.27095 0.52558 0.0
C249 C 0.22355 0.26644 0.49376 0.0
C250 C 0.18897 0.29802 0.4803 0.0
C251 C 0.16794 0.33527 0.49709 0.0
C252 C 0.18041 0.34181 0.52757 0.0
C253 C 0.2127 0.31008 0.54178 0.0
H254 H 0.32203 0.76944 0.93012 0.0
C255 C 0.29525 0.74286 0.92249 0.0
H256 H 0.24169 0.69214 0.93625 0.0
H257 H 0.35533 0.67903 0.06431 0.0
H258 H 0.38934 0.60912 0.0388 0.0
H259 H 0.37081 0.5928 0.98459 0.0
H260 H 0.31848 0.64668 0.95552 0.0
C261 C 0.26676 0.72078 0.94315 0.0
C262 C 0.27472 0.72922 0.97637 0.0
C263 C 0.30392 0.69642 0.99336 0.0
C264 C 0.31344 0.70507 0.02485 0.0
C265 C 0.34513 0.67321 0.04071 0.0
C266 C 0.36535 0.63313 0.02626 0.0
C267 C 0.355 0.624 0.99573 0.0
C268 C 0.32485 0.65522 0.97932 0.0
H269 H 0.26164 0.68912 0.08526 0.0
C270 C 0.28171 0.72074 0.09343 0.0
H271 H 0.31886 0.78524 0.0808 0.0
H272 H 0.2176 0.79909 0.9503 0.0
H273 H 0.1835 0.86943 0.97568 0.0
H274 H 0.19849 0.88367 0.03055 0.0
H275 H 0.24774 0.82781 0.06041 0.0
C276 C 0.2993 0.75303 0.07311 0.0
C277 C 0.29214 0.74559 0.03963 0.0
C278 C 0.26346 0.77872 0.02249 0.0
C279 C 0.25475 0.77051 0.99083 0.0
C280 C 0.22558 0.80385 0.97434 0.0
C281 C 0.20571 0.84426 0.98864 0.0
C282 C 0.21414 0.85227 0.01955 0.0
C283 C 0.24253 0.81996 0.03641 0.0
H284 H 0.70844 0.8236 0.58675 0.0
C285 C 0.74274 0.81074 0.59593 0.0
H286 H 0.81192 0.783 0.586 0.0
H287 H 0.69332 0.74839 0.45443 0.0
H288 H 0.64229 0.69147 0.48235 0.0
H289 H 0.65105 0.68162 0.53816 0.0
H290 H 0.71034 0.7292 0.56648 0.0
C291 C 0.77696 0.79421 0.57691 0.0
C292 C 0.77198 0.79831 0.54308 0.0
C293 C 0.7381 0.76915 0.52677 0.0
C294 C 0.73432 0.77346 0.49439 0.0
C295 C 0.69881 0.74542 0.47885 0.0
C296 C 0.66911 0.71279 0.49462 0.0
C297 C 0.67394 0.70735 0.52606 0.0
C298 C 0.70798 0.73507 0.54207 0.0
H299 H 0.78735 0.73874 0.43588 0.0
C300 C 0.77793 0.77391 0.42607 0.0
H301 H 0.75546 0.84576 0.43469 0.0
H302 H 0.8398 0.86072 0.56735 0.0
H303 H 0.89263 0.9155 0.53931 0.0
H304 H 0.88865 0.92028 0.48306 0.0
H305 H 0.83159 0.87062 0.45457 0.0
C306 C 0.76316 0.81006 0.44436 0.0
C307 C 0.76556 0.80571 0.4783 0.0
C308 C 0.79962 0.83466 0.49463 0.0
C309 C 0.80264 0.83114 0.52701 0.0
C310 C 0.83646 0.86117 0.54271 0.0
C311 C 0.86697 0.89295 0.52691 0.0
C312 C 0.86467 0.89571 0.49526 0.0
C313 C 0.83154 0.86702 0.47919 0.0
H314 H 0.80119 0.27627 0.93726 0.0
C315 C 0.76432 0.28612 0.93111 0.0
H316 H 0.69295 0.29739 0.94625 0.0
H317 H 0.68181 0.18675 0.06873 0.0
H318 H 0.63087 0.13611 0.0365 0.0
H319 H 0.62967 0.14759 0.98057 0.0
H320 H 0.67903 0.21024 0.95656 0.0
C321 C 0.72986 0.28804 0.9527 0.0
C322 C 0.73858 0.27566 0.98549 0.0
C323 C 0.71089 0.2377 0.99914 0.0
C324 C 0.71239 0.23035 0.03135 0.0
C325 C 0.68264 0.19358 0.04439 0.0
C326 C 0.65318 0.16419 0.02614 0.0
C327 C 0.65244 0.1707 0.99466 0.0
C328 C 0.68083 0.20695 0.98119 0.0
H329 H 0.71607 0.33199 0.08657 0.0
C330 C 0.72234 0.29823 0.09905 0.0
H331 H 0.74287 0.22452 0.09589 0.0
H332 H 0.7954 0.35362 0.96763 0.0
H333 H 0.85204 0.39843 0.99925 0.0
H334 H 0.86179 0.37851 0.05396 0.0
H335 H 0.81345 0.31445 0.07747 0.0
C336 C 0.73724 0.25871 0.08382 0.0
C337 C 0.74229 0.26042 0.04985 0.0
C338 C 0.77356 0.29513 0.03587 0.0
C339 C 0.77037 0.3042 1.00386 0.0
C340 C 0.79822 0.34289 0.99132 0.0
C341 C 0.83069 0.36934 1.00933 0.0
C342 C 0.83601 0.35831 0.04015 0.0
C343 C 0.80781 0.32175 0.0534 0.0
H344 H 0.5986 0.20291 0.25855 0.0
C345 C 0.5927 0.21445 0.23504 0.0
H346 H 0.54107 0.22756 0.20024 0.0
H347 H 0.36282 0.11131 0.25086 0.0
H348 H 0.38579 0.05965 0.20862 0.0
H349 H 0.46321 0.07274 0.1818 0.0
H350 H 0.51804 0.13791 0.19691 0.0
C351 C 0.54734 0.21537 0.22359 0.0
C352 C 0.50373 0.20395 0.24244 0.0
C353 C 0.47255 0.16502 0.23389 0.0
C354 C 0.4282 0.15697 0.24971 0.0
C355 C 0.39717 0.11874 0.23995 0.0
C356 C 0.40989 0.08881 0.2157 0.0
C357 C 0.45346 0.09621 0.20057 0.0
C358 C 0.48454 0.13381 0.20943 0.0
H359 H 0.34505 0.25358 0.27717 0.0
C360 C 0.33472 0.21941 0.28808 0.0
H361 H 0.35645 0.14787 0.29928 0.0
H362 H 0.55137 0.28623 0.26294 0.0
H363 H 0.53149 0.33354 0.30749 0.0
H364 H 0.46043 0.31245 0.33896 0.0
H365 H 0.40787 0.24486 0.32521 0.0
C366 C 0.36645 0.18241 0.28877 0.0
C367 C 0.41529 0.18752 0.27437 0.0
C368 C 0.448 0.22449 0.2842 0.0
C369 C 0.49111 0.23415 0.26745 0.0
C370 C 0.51999 0.27491 0.27585 0.0
C371 C 0.50872 0.30284 0.30129 0.0
C372 C 0.46858 0.29116 0.3189 0.0
C373 C 0.43845 0.25252 0.31057 0.0
H374 H 0.33675 0.82897 0.76412 0.0
C375 C 0.30695 0.82375 0.77997 0.0
H376 H 0.24583 0.85554 0.80047 0.0
H377 H 0.37332 0.04812 0.75211 0.0
H378 H 0.43403 0.02313 0.78927 0.0
H379 H 0.42451 0.94643 0.8183 0.0
H380 H 0.35481 0.89391 0.81008 0.0
C381 C 0.27603 0.86051 0.78491 0.0
C382 C 0.28099 0.90837 0.76879 0.0
C383 C 0.32146 0.93938 0.77456 0.0
C384 C 0.32611 0.98458 0.75867 0.0
C385 C 0.36754 0.01402 0.76409 0.0
C386 C 0.40268 1.00006 0.78529 0.0
C387 C 0.39739 0.9568 0.80157 0.0
C388 C 0.35732 0.92675 0.79644 0.0
H389 H 0.27738 0.08878 0.76018 0.0
C390 C 0.28298 0.08901 0.73561 0.0
H391 H 0.29484 0.04617 0.69658 0.0
H392 H 0.19811 0.85885 0.7532 0.0
H393 H 0.13491 0.88662 0.71867 0.0
H394 H 0.14137 0.96641 0.69279 0.0
H395 H 0.2113 0.01865 0.70093 0.0
C396 C 0.29327 0.04707 0.72138 0.0
C397 C 0.2896 0.99951 0.73784 0.0
C398 C 0.2484 0.9693 0.73281 0.0
C399 C 0.2442 0.92367 0.7482 0.0
C400 C 0.20288 0.89413 0.74246 0.0
C401 C 0.16633 0.90958 0.72264 0.0
C402 C 0.17001 0.95446 0.70802 0.0
C403 C 0.21048 0.98405 0.71288 0.0
H404 H 0.67848 0.84698 0.27492 0.0
C405 C 0.68409 0.81396 0.28825 0.0
H406 H 0.65421 0.7473 0.30327 0.0
H407 H 0.46577 0.87857 0.2509 0.0
H408 H 0.48731 0.93842 0.28935 0.0
H409 H 0.55972 0.92748 0.3219 0.0
H410 H 0.61159 0.85745 0.31572 0.0
C411 C 0.64846 0.78041 0.29004 0.0
C412 C 0.60181 0.78536 0.27272 0.0
C413 C 0.57048 0.82549 0.27773 0.0
C414 C 0.52713 0.83044 0.26017 0.0
C415 C 0.49807 0.87216 0.2644 0.0
C416 C 0.51011 0.90688 0.2863 0.0
C417 C 0.55099 0.90083 0.30453 0.0
C418 C 0.58082 0.86064 0.30049 0.0
H419 H 0.42326 0.78733 0.26011 0.0
C420 C 0.42433 0.79 0.23533 0.0
H421 H 0.46894 0.79632 0.1966 0.0
H422 H 0.65234 0.70313 0.25782 0.0
H423 H 0.62716 0.64029 0.22237 0.0
H424 H 0.54981 0.6466 0.19424 0.0
H425 H 0.49707 0.71564 0.20144 0.0
C426 C 0.46712 0.79712 0.2214 0.0
C427 C 0.51362 0.79397 0.23889 0.0
C428 C 0.54393 0.75294 0.23471 0.0
C429 C 0.58815 0.74884 0.25142 0.0
C430 C 0.61796 0.70784 0.24625 0.0
C431 C 0.60405 0.67148 0.22585 0.0
C432 C 0.56053 0.67505 0.20998 0.0
C433 C 0.53066 0.7151 0.21428 0.0
H434 H 0.67123 0.19462 0.78739 0.0
C435 C 0.70694 0.20058 0.79733 0.0
H436 H 0.77585 0.17082 0.80614 0.0
H437 H 0.63562 0.97708 0.77414 0.0
H438 H 0.58902 0.9989 0.81888 0.0
H439 H 0.60792 0.07387 0.84755 0.0
H440 H 0.67271 0.12792 0.83139 0.0
C441 C 0.73995 0.16481 0.79648 0.0
C442 C 0.7301 0.11748 0.7808 0.0
C443 C 0.69307 0.08533 0.7913 0.0
C444 C 0.68354 0.04088 0.7756 0.0
C445 C 0.64517 1.01052 0.78575 0.0
C446 C 0.61808 0.02267 0.81133 0.0
C447 C 0.62861 0.06498 0.82741 0.0
C448 C 0.66569 0.09597 0.81769 0.0
H449 H 0.73091 0.93761 0.77024 0.0
C450 C 0.71858 0.93823 0.74661 0.0
H451 H 0.69529 0.98224 0.70988 0.0
H452 H 0.80459 0.16966 0.75505 0.0
H453 H 0.85503 0.1445 0.7129 0.0
H454 H 0.84144 0.0654 0.68765 0.0
H455 H 0.77686 0.01136 0.70405 0.0
C456 C 0.70403 0.98055 0.73411 0.0
C457 C 0.71232 0.02758 0.7503 0.0
C458 C 0.75046 0.05879 0.74051 0.0
C459 C 0.7591 0.10387 0.75559 0.0
C460 C 0.79691 0.13459 0.74488 0.0
C461 C 0.82613 0.12067 0.72062 0.0
C462 C 0.81841 0.07621 0.70635 0.0
C463 C 0.78105 0.04556 0.716 0.0
H464 H 0.09338 0.27065 0.25345 0.0
C465 C 0.09377 0.27843 0.27778 0.0
H466 H 0.0514 0.295 0.3163 0.0
H467 H 0.8954 0.36287 0.20962 0.0
H468 H 0.945 0.43589 0.20605 0.0
H469 H 0.02238 0.44239 0.23427 0.0
H470 H 0.05087 0.37551 0.26606 0.0
C471 C 0.05242 0.29106 0.29161 0.0
C472 C 1.00529 0.28809 0.27504 0.0
C473 C 0.98869 0.32771 0.2571 0.0
C474 C 0.94342 0.32436 0.24146 0.0
C475 C 0.92865 0.36391 0.22278 0.0
C476 C 0.95697 0.40596 0.22035 0.0
C477 C 1.00059 0.40959 0.2362 0.0
C478 C 0.01652 0.37098 0.25434 0.0
H479 H 0.83347 0.33121 0.25618 0.0
C480 C 0.82868 0.30544 0.2376 0.0
H481 H 0.86175 0.25154 0.21066 0.0
H482 H 0.02741 0.20481 0.30684 0.0
H483 H 0.97829 0.13145 0.31026 0.0
H484 H 0.8992 0.12606 0.28388 0.0
H485 H 0.86888 0.19393 0.25379 0.0
C486 C 0.86631 0.27818 0.22875 0.0
C487 C 0.91439 0.28165 0.24435 0.0
C488 C 0.93148 0.24171 0.26194 0.0
C489 C 0.97689 0.24497 0.27735 0.0
C490 C 0.99309 0.20445 0.29476 0.0
C491 C 0.96526 0.16207 0.29692 0.0
C492 C 0.92076 0.15903 0.28205 0.0
C493 C 0.90383 0.19826 0.2648 0.0
H494 H 0.26501 0.34996 0.71961 0.0
C495 C 0.22894 0.33384 0.72037 0.0
H496 H 0.15583 0.3448 0.73276 0.0
H497 H 0.23345 0.51063 0.82516 0.0
H498 H 0.21476 0.44593 0.86098 0.0
H499 H 0.18833 0.365 0.8429 0.0
H500 H 0.18106 0.34821 0.78866 0.0
C501 C 0.19202 0.36037 0.73111 0.0
C502 C 0.20048 0.41131 0.74185 0.0
C503 C 0.20243 0.42138 0.77356 0.0
C504 C 0.21647 0.46859 0.78396 0.0
C505 C 0.22137 0.47627 0.81582 0.0
C506 C 0.21106 0.43923 0.83672 0.0
C507 C 0.19627 0.39363 0.82655 0.0
C508 C 0.1922 0.38451 0.79537 0.0
H509 H 0.18732 0.57985 0.79583 0.0
C510 C 0.22465 0.58674 0.78924 0.0
H511 H 0.28595 0.56059 0.76603 0.0
H512 H 0.19407 0.40592 0.67961 0.0
H513 H 0.21041 0.47115 0.64339 0.0
H514 H 0.23393 0.55313 0.66123 0.0
H515 H 0.24116 0.57045 0.7154 0.0
C516 C 0.24864 0.55352 0.77264 0.0
C517 C 0.22699 0.50622 0.7625 0.0
C518 C 0.22255 0.49665 0.73078 0.0
C519 C 0.2092 0.44928 0.72046 0.0
C520 C 0.20486 0.44099 0.68865 0.0
C521 C 0.21389 0.47817 0.66762 0.0
C522 C 0.22712 0.52433 0.67767 0.0
C523 C 0.23134 0.53371 0.70883 0.0
H524 H 0.16094 0.78971 0.2152 0.0
C525 C 0.17628 0.75435 0.22071 0.0
H526 H 0.16447 0.68553 0.24105 0.0
H527 H 0.9882 0.82505 0.298 0.0
H528 H 0.05226 0.87411 0.32038 0.0
H529 H 0.13799 0.85742 0.30918 0.0
H530 H 0.1602 0.7914 0.27565 0.0
C531 C 0.14968 0.72138 0.23624 0.0
C532 C 0.09809 0.73054 0.24456 0.0
C533 C 0.08579 0.76877 0.26481 0.0
C534 C 0.03631 0.77786 0.2717 0.0
C535 C 0.02508 0.8165 0.29182 0.0
C536 C 0.06152 0.84496 0.30494 0.0
C537 C 0.10979 0.83555 0.29863 0.0
C538 C 0.12201 0.79777 0.27904 0.0
H539 H 0.93607 0.69703 0.29389 0.0
C540 C 0.92145 0.73123 0.28542 0.0
H541 H 0.93434 0.79445 0.25901 0.0
H542 H 0.10873 0.65356 0.20549 0.0
H543 H 0.0446 0.6031 0.18439 0.0
H544 H 0.95902 0.61853 0.19684 0.0
H545 H 0.93708 0.6846 0.23056 0.0
C546 C 0.94767 0.7589 0.26603 0.0
C547 C 0.99922 0.74791 0.25907 0.0
C548 C 0.0115 0.70902 0.23948 0.0
C549 C 0.06094 0.70027 0.23225 0.0
C550 C 0.07196 0.66165 0.21211 0.0
C551 C 0.03544 0.63246 0.1997 0.0
C552 C 0.98726 0.64114 0.20671 0.0
C553 C 0.97519 0.67906 0.22623 0.0
H554 H 0.83314 0.45629 0.79935 0.0
C555 C 0.79964 0.44005 0.79097 0.0
H556 H 0.73644 0.45026 0.76443 0.0
H557 H 0.73491 0.6775 0.78084 0.0
H558 H 0.67381 0.65281 0.81738 0.0
H559 H 0.66078 0.56606 0.8299 0.0
H560 H 0.70884 0.50348 0.80601 0.0
C561 C 0.77145 0.4651 0.77128 0.0
C562 C 0.78077 0.51737 0.76385 0.0
C563 C 0.75134 0.55354 0.77733 0.0
C564 C 0.75798 0.60355 0.76947 0.0
C565 C 0.72994 0.63889 0.78475 0.0
C566 C 0.69506 0.62526 0.80609 0.0
C567 C 0.68775 0.57642 0.81317 0.0
C568 C 0.71556 0.54086 0.79917 0.0
H569 H 0.72595 0.67534 0.72122 0.0
C570 C 0.761 0.69325 0.72362 0.0
H571 H 0.83322 0.68664 0.73889 0.0
H572 H 0.84351 0.45741 0.7343 0.0
H573 H 0.90456 0.48169 0.69745 0.0
H574 H 0.91496 0.56797 0.68273 0.0
H575 H 0.86455 0.6305 0.70471 0.0
C576 C 0.79789 0.66918 0.73694 0.0
C577 C 0.79281 0.61724 0.74714 0.0
C578 C 0.82299 0.58104 0.73423 0.0
C579 C 0.81699 0.53113 0.74264 0.0
C580 C 0.84688 0.49579 0.72893 0.0
C581 C 0.88196 0.50921 0.70767 0.0
C582 C 0.88781 0.55779 0.69939 0.0
C583 C 0.85868 0.59339 0.71231 0.0
loop_
_geom_bond_atom_site_label_1
_geom_bond_atom_site_label_2
_geom_bond_distance
_geom_bond_site_symmetry_2
_ccdc_geom_bond_type
In0 O1 2.294 . S
In0 O2 2.326 . S
In0 O6 2.266 . S
In0 O7 2.326 . S
In0 O8 2.266 . S
In0 O9 2.326 . S
In0 O11 2.294 . S
In0 O12 2.326 . S
O1 In0 2.294 . S
O1 C10 1.240 . S
O2 In0 2.326 . S
O2 C10 1.252 . S
C3 O6 1.252 . S
C3 O7 1.260 . S
C4 O11 1.240 . S
C4 O12 1.252 . S
C5 O8 1.252 . S
C5 O9 1.260 . S
O6 In0 2.266 . S
O6 C3 1.252 . S
O7 In0 2.326 . S
O7 C3 1.260 . S
O8 In0 2.266 . S
O8 C5 1.252 . S
O9 In0 2.326 . S
O9 C5 1.260 . S
C10 O1 1.240 . S
C10 O2 1.252 . S
O11 In0 2.294 . S
O11 C4 1.240 . S
O12 In0 2.326 . S
O12 C4 1.252 . S
In13 O14 2.294 . S
In13 O15 2.326 . S
In13 O19 2.266 . S
In13 O20 2.326 . S
In13 O21 2.266 . S
In13 O22 2.326 . S
In13 O24 2.294 . S
In13 O25 2.326 . S
O14 In13 2.294 . S
O14 C23 1.240 . S
O15 In13 2.326 . S
O15 C23 1.252 . S
C16 O19 1.252 . S
C16 O20 1.260 . S
C17 O24 1.240 . S
C17 O25 1.252 . S
C18 O21 1.252 . S
C18 O22 1.260 . S
O19 In13 2.266 . S
O19 C16 1.252 . S
O20 In13 2.326 . S
O20 C16 1.260 . S
O21 In13 2.266 . S
O21 C18 1.252 . S
O22 In13 2.326 . S
O22 C18 1.260 . S
C23 O14 1.240 . S
C23 O15 1.252 . S
O24 In13 2.294 . S
O24 C17 1.240 . S
O25 In13 2.326 . S
O25 C17 1.252 . S
In26 O27 2.294 . S
In26 O28 2.326 . S
In26 O32 2.266 . S
In26 O33 2.326 . S
In26 O34 2.266 . S
In26 O35 2.326 . S
In26 O37 2.294 . S
In26 O38 2.326 . S
O27 In26 2.294 . S
O27 C36 1.240 . S
O28 In26 2.326 . S
O28 C36 1.252 . S
C29 O32 1.252 . S
C29 O33 1.260 . S
C30 O37 1.240 . S
C30 O38 1.252 . S
C31 O34 1.252 . S
C31 O35 1.260 . S
O32 In26 2.266 . S
O32 C29 1.252 . S
O33 In26 2.326 . S
O33 C29 1.260 . S
O34 In26 2.266 . S
O34 C31 1.252 . S
O35 In26 2.326 . S
O35 C31 1.260 . S
C36 O27 1.240 . S
C36 O28 1.252 . S
O37 In26 2.294 . S
O37 C30 1.240 . S
O38 In26 2.326 . S
O38 C30 1.252 . S
In39 O40 2.294 . S
In39 O41 2.326 . S
In39 O45 2.266 . S
In39 O46 2.326 . S
In39 O47 2.266 . S
In39 O48 2.326 . S
In39 O50 2.294 . S
In39 O51 2.326 . S
O40 In39 2.294 . S
O40 C49 1.240 . S
O41 In39 2.326 . S
O41 C49 1.252 . S
C42 O45 1.252 . S
C42 O46 1.260 . S
C43 O50 1.240 . S
C43 O51 1.252 . S
C44 O47 1.252 . S
C44 O48 1.260 . S
O45 In39 2.266 . S
O45 C42 1.252 . S
O46 In39 2.326 . S
O46 C42 1.260 . S
O47 In39 2.266 . S
O47 C44 1.252 . S
O48 In39 2.326 . S
O48 C44 1.260 . S
C49 O40 1.240 . S
C49 O41 1.252 . S
O50 In39 2.294 . S
O50 C43 1.240 . S
O51 In39 2.326 . S
O51 C43 1.252 . S
In52 O53 2.294 . S
In52 O54 2.326 . S
In52 O58 2.266 . S
In52 O59 2.326 . S
In52 O60 2.266 . S
In52 O61 2.326 . S
In52 O63 2.294 . S
In52 O64 2.326 . S
O53 In52 2.294 . S
O53 C62 1.240 . S
O54 In52 2.326 . S
O54 C62 1.252 . S
C55 O58 1.252 . S
C55 O59 1.260 . S
C56 O63 1.240 . S
C56 O64 1.252 . S
C57 O60 1.252 . S
C57 O61 1.260 . S
O58 In52 2.266 . S
O58 C55 1.252 . S
O59 In52 2.326 . S
O59 C55 1.260 . S
O60 In52 2.266 . S
O60 C57 1.252 . S
O61 In52 2.326 . S
O61 C57 1.260 . S
C62 O53 1.240 . S
C62 O54 1.252 . S
O63 In52 2.294 . S
O63 C56 1.240 . S
O64 In52 2.326 . S
O64 C56 1.252 . S
In65 O66 2.294 . S
In65 O67 2.326 . S
In65 O71 2.266 . S
In65 O72 2.326 . S
In65 O73 2.266 . S
In65 O74 2.326 . S
In65 O76 2.294 . S
In65 O77 2.326 . S
O66 In65 2.294 . S
O66 C75 1.240 . S
O67 In65 2.326 . S
O67 C75 1.252 . S
C68 O71 1.252 . S
C68 O72 1.260 . S
C69 O76 1.240 . S
C69 O77 1.252 . S
C70 O73 1.252 . S
C70 O74 1.260 . S
O71 In65 2.266 . S
O71 C68 1.252 . S
O72 In65 2.326 . S
O72 C68 1.260 . S
O73 In65 2.266 . S
O73 C70 1.252 . S
O74 In65 2.326 . S
O74 C70 1.260 . S
C75 O66 1.240 . S
C75 O67 1.252 . S
O76 In65 2.294 . S
O76 C69 1.240 . S
O77 In65 2.326 . S
O77 C69 1.252 . S
In78 O79 2.294 . S
In78 O80 2.326 . S
In78 O84 2.266 . S
In78 O85 2.326 . S
In78 O86 2.266 . S
In78 O87 2.326 . S
In78 O89 2.294 . S
In78 O90 2.326 . S
O79 In78 2.294 . S
O79 C88 1.240 . S
O80 In78 2.326 . S
O80 C88 1.252 . S
C81 O84 1.252 . S
C81 O85 1.260 . S
C82 O89 1.240 . S
C82 O90 1.252 . S
C83 O86 1.252 . S
C83 O87 1.260 . S
O84 In78 2.266 . S
O84 C81 1.252 . S
O85 In78 2.326 . S
O85 C81 1.260 . S
O86 In78 2.266 . S
O86 C83 1.252 . S
O87 In78 2.326 . S
O87 C83 1.260 . S
C88 O79 1.240 . S
C88 O80 1.252 . S
O89 In78 2.294 . S
O89 C82 1.240 . S
O90 In78 2.326 . S
O90 C82 1.252 . S
In91 O92 2.294 . S
In91 O93 2.326 . S
In91 O97 2.266 . S
In91 O98 2.326 . S
In91 O99 2.266 . S
In91 O100 2.326 . S
In91 O102 2.294 . S
In91 O103 2.326 . S
O92 In91 2.294 . S
O92 C101 1.240 . S
O93 In91 2.326 . S
O93 C101 1.252 . S
C94 O97 1.252 . S
C94 O98 1.260 . S
C95 O102 1.240 . S
C95 O103 1.252 . S
C96 O99 1.252 . S
C96 O100 1.260 . S
O97 In91 2.266 . S
O97 C94 1.252 . S
O98 In91 2.326 . S
O98 C94 1.260 . S
O99 In91 2.266 . S
O99 C96 1.252 . S
O100 In91 2.326 . S
O100 C96 1.260 . S
C101 O92 1.240 . S
C101 O93 1.252 . S
O102 In91 2.294 . S
O102 C95 1.240 . S
O103 In91 2.326 . S
O103 C95 1.252 . S
H104 C105 0.951 . S
C105 H104 0.951 . S
C105 C111 1.265 . S
H106 C111 0.950 . S
H107 C115 0.949 . S
H108 C116 0.950 . S
H109 C117 0.951 . S
H110 C118 0.951 . S
C111 C105 1.265 . S
C111 H106 0.950 . S
C111 C112 1.478 . S
C112 C111 1.478 . S
C112 C113 1.397 . S
C112 C129 1.394 . S
C113 C112 1.397 . S
C113 C114 1.438 1_445 S
C113 C118 1.429 . S
C114 C113 1.438 1_665 S
C114 C115 1.428 . S
C114 C127 1.394 . S
C115 H107 0.949 . S
C115 C114 1.428 . S
C115 C116 1.345 . S
C116 H108 0.950 . S
C116 C115 1.345 . S
C116 C117 1.424 1_665 S
C117 H109 0.951 . S
C117 C116 1.424 1_445 S
C117 C118 1.347 . S
C118 H110 0.951 . S
C118 C113 1.429 . S
C118 C117 1.347 . S
H119 C120 0.951 . S
C120 H119 0.951 . S
C120 C126 1.265 . S
H121 C126 0.950 . S
H122 C130 0.949 . S
H123 C131 0.950 . S
H124 C132 0.951 . S
H125 C133 0.951 . S
C126 C120 1.265 . S
C126 H121 0.950 . S
C126 C127 1.478 . S
C127 C114 1.394 . S
C127 C126 1.478 . S
C127 C128 1.397 . S
C128 C127 1.397 . S
C128 C129 1.438 1_665 S
C128 C133 1.429 . S
C129 C112 1.394 . S
C129 C128 1.438 1_445 S
C129 C130 1.428 . S
C130 H122 0.949 . S
C130 C129 1.428 . S
C130 C131 1.345 . S
C131 H123 0.950 . S
C131 C130 1.345 . S
C131 C132 1.424 1_445 S
C132 H124 0.951 . S
C132 C131 1.424 1_665 S
C132 C133 1.347 . S
C133 H125 0.951 . S
C133 C128 1.429 . S
C133 C132 1.347 . S
H134 C135 0.951 . S
C135 H134 0.951 . S
C135 C141 1.265 . S
H136 C141 0.950 . S
H137 C145 0.949 . S
H138 C146 0.950 . S
H139 C147 0.951 . S
H140 C148 0.951 . S
C141 C135 1.265 . S
C141 H136 0.950 . S
C141 C142 1.478 . S
C142 C141 1.478 . S
C142 C143 1.397 . S
C142 C159 1.394 . S
C143 C142 1.397 . S
C143 C144 1.438 . S
C143 C148 1.429 . S
C144 C143 1.438 . S
C144 C145 1.428 . S
C144 C157 1.394 . S
C145 H137 0.949 . S
C145 C144 1.428 . S
C145 C146 1.345 . S
C146 H138 0.950 . S
C146 C145 1.345 . S
C146 C147 1.424 . S
C147 H139 0.951 . S
C147 C146 1.424 . S
C147 C148 1.347 . S
C148 H140 0.951 . S
C148 C143 1.429 . S
C148 C147 1.347 . S
H149 C150 0.951 . S
C150 H149 0.951 . S
C150 C156 1.265 . S
H151 C156 0.950 . S
H152 C160 0.949 . S
H153 C161 0.950 . S
H154 C162 0.951 . S
H155 C163 0.951 . S
C156 C150 1.265 . S
C156 H151 0.950 . S
C156 C157 1.478 . S
C157 C144 1.394 . S
C157 C156 1.478 . S
C157 C158 1.397 . S
C158 C157 1.397 . S
C158 C159 1.438 . S
C158 C163 1.429 . S
C159 C142 1.394 . S
C159 C158 1.438 . S
C159 C160 1.428 . S
C160 H152 0.949 . S
C160 C159 1.428 . S
C160 C161 1.345 . S
C161 H153 0.950 . S
C161 C160 1.345 . S
C161 C162 1.424 . S
C162 H154 0.951 . S
C162 C161 1.424 . S
C162 C163 1.347 . S
C163 H155 0.951 . S
C163 C158 1.429 . S
C163 C162 1.347 . S
H164 C165 0.951 . S
C165 H164 0.951 . S
C165 C171 1.265 . S
H166 C171 0.950 . S
H167 C175 0.949 . S
H168 C176 0.950 . S
H169 C177 0.951 . S
H170 C178 0.951 . S
C171 C165 1.265 . S
C171 H166 0.950 . S
C171 C172 1.478 . S
C172 C171 1.478 . S
C172 C173 1.397 . S
C172 C189 1.394 . S
C173 C172 1.397 . S
C173 C174 1.438 . S
C173 C178 1.429 . S
C174 C173 1.438 . S
C174 C175 1.428 . S
C174 C187 1.394 . S
C175 H167 0.949 . S
C175 C174 1.428 . S
C175 C176 1.345 . S
C176 H168 0.950 . S
C176 C175 1.345 . S
C176 C177 1.424 . S
C177 H169 0.951 . S
C177 C176 1.424 . S
C177 C178 1.347 . S
C178 H170 0.951 . S
C178 C173 1.429 . S
C178 C177 1.347 . S
H179 C180 0.951 . S
C180 H179 0.951 . S
C180 C186 1.265 . S
H181 C186 0.950 . S
H182 C190 0.949 . S
H183 C191 0.950 . S
H184 C192 0.951 . S
H185 C193 0.951 . S
C186 C180 1.265 . S
C186 H181 0.950 . S
C186 C187 1.478 . S
C187 C174 1.394 . S
C187 C186 1.478 . S
C187 C188 1.397 . S
C188 C187 1.397 . S
C188 C189 1.438 . S
C188 C193 1.429 . S
C189 C172 1.394 . S
C189 C188 1.438 . S
C189 C190 1.428 . S
C190 H182 0.949 . S
C190 C189 1.428 . S
C190 C191 1.345 . S
C191 H183 0.950 . S
C191 C190 1.345 . S
C191 C192 1.424 . S
C192 H184 0.951 . S
C192 C191 1.424 . S
C192 C193 1.347 . S
C193 H185 0.951 . S
C193 C188 1.429 . S
C193 C192 1.347 . S
H194 C195 0.951 . S
C195 H194 0.951 . S
C195 C201 1.265 . S
H196 C201 0.950 . S
H197 C205 0.949 . S
H198 C206 0.953 . S
H199 C207 0.951 . S
H200 C208 0.951 . S
C201 C195 1.265 . S
C201 H196 0.950 . S
C201 C202 1.478 . S
C202 C201 1.478 . S
C202 C203 1.397 . S
C202 C219 1.394 . S
C203 C202 1.397 . S
C203 C204 1.438 1_445 S
C203 C208 1.429 . S
C204 C203 1.438 1_665 S
C204 C205 1.428 . S
C204 C217 1.394 . S
C205 H197 0.949 . S
C205 C204 1.428 . S
C205 C206 1.345 1_565 S
C206 H198 0.953 . S
C206 C205 1.345 1_545 S
C206 C207 1.424 . S
C207 H199 0.951 . S
C207 C206 1.424 . S
C207 C208 1.347 1_655 S
C208 H200 0.951 . S
C208 C203 1.429 . S
C208 C207 1.347 1_455 S
H209 C210 0.951 . S
C210 H209 0.951 . S
C210 C216 1.265 . S
H211 C216 0.950 . S
H212 C220 0.949 . S
H213 C221 0.953 . S
H214 C222 0.951 . S
H215 C223 0.951 . S
C216 C210 1.265 . S
C216 H211 0.950 . S
C216 C217 1.478 . S
C217 C204 1.394 . S
C217 C216 1.478 . S
C217 C218 1.397 . S
C218 C217 1.397 . S
C218 C219 1.438 1_665 S
C218 C223 1.429 . S
C219 C202 1.394 . S
C219 C218 1.438 1_445 S
C219 C220 1.428 . S
C220 H212 0.949 . S
C220 C219 1.428 . S
C220 C221 1.345 1_545 S
C221 H213 0.953 . S
C221 C220 1.345 1_565 S
C221 C222 1.424 . S
C222 H214 0.951 . S
C222 C221 1.424 . S
C222 C223 1.347 1_455 S
C223 H215 0.951 . S
C223 C218 1.429 . S
C223 C222 1.347 1_655 S
H224 C225 0.951 . S
C225 H224 0.951 . S
C225 C231 1.265 . S
H226 C231 0.950 . S
H227 C235 0.949 . S
H228 C236 0.950 . S
H229 C237 0.951 . S
H230 C238 0.951 . S
C231 C225 1.265 . S
C231 H226 0.950 . S
C231 C232 1.478 . S
C232 C231 1.478 . S
C232 C233 1.397 . S
C232 C249 1.394 . S
C233 C232 1.397 . S
C233 C234 1.438 . S
C233 C238 1.429 . S
C234 C233 1.438 . S
C234 C235 1.428 . S
C234 C247 1.394 . S
C235 H227 0.949 . S
C235 C234 1.428 . S
C235 C236 1.345 . S
C236 H228 0.950 . S
C236 C235 1.345 . S
C236 C237 1.424 . S
C237 H229 0.951 . S
C237 C236 1.424 . S
C237 C238 1.347 . S
C238 H230 0.951 . S
C238 C233 1.429 . S
C238 C237 1.347 . S
H239 C240 0.951 . S
C240 H239 0.951 . S
C240 C246 1.265 . S
H241 C246 0.950 . S
H242 C250 0.949 . S
H243 C251 0.950 . S
H244 C252 0.951 . S
H245 C253 0.951 . S
C246 C240 1.265 . S
C246 H241 0.950 . S
C246 C247 1.478 . S
C247 C234 1.394 . S
C247 C246 1.478 . S
C247 C248 1.397 . S
C248 C247 1.397 . S
C248 C249 1.438 . S
C248 C253 1.429 . S
C249 C232 1.394 . S
C249 C248 1.438 . S
C249 C250 1.428 . S
C250 H242 0.949 . S
C250 C249 1.428 . S
C250 C251 1.345 . S
C251 H243 0.950 . S
C251 C250 1.345 . S
C251 C252 1.424 . S
C252 H244 0.951 . S
C252 C251 1.424 . S
C252 C253 1.347 . S
C253 H245 0.951 . S
C253 C248 1.429 . S
C253 C252 1.347 . S
H254 C255 0.951 . S
C255 H254 0.951 . S
C255 C261 1.265 . S
H256 C261 0.950 . S
H257 C265 0.949 . S
H258 C266 0.950 . S
H259 C267 0.951 . S
H260 C268 0.951 . S
C261 C255 1.265 . S
C261 H256 0.950 . S
C261 C262 1.478 . S
C262 C261 1.478 . S
C262 C263 1.397 . S
C262 C279 1.394 . S
C263 C262 1.397 . S
C263 C264 1.438 1_556 S
C263 C268 1.429 . S
C264 C263 1.438 1_554 S
C264 C265 1.428 . S
C264 C277 1.394 . S
C265 H257 0.949 . S
C265 C264 1.428 . S
C265 C266 1.345 . S
C266 H258 0.950 . S
C266 C265 1.345 . S
C266 C267 1.424 . S
C267 H259 0.951 . S
C267 C266 1.424 . S
C267 C268 1.347 1_554 S
C268 H260 0.951 . S
C268 C263 1.429 . S
C268 C267 1.347 1_556 S
H269 C270 0.951 . S
C270 H269 0.951 . S
C270 C276 1.265 . S
H271 C276 0.950 . S
H272 C280 0.949 . S
H273 C281 0.950 . S
H274 C282 0.951 . S
H275 C283 0.951 . S
C276 C270 1.265 . S
C276 H271 0.950 . S
C276 C277 1.478 . S
C277 C264 1.394 . S
C277 C276 1.478 . S
C277 C278 1.397 . S
C278 C277 1.397 . S
C278 C279 1.438 1_554 S
C278 C283 1.429 . S
C279 C262 1.394 . S
C279 C278 1.438 1_556 S
C279 C280 1.428 . S
C280 H272 0.949 . S
C280 C279 1.428 . S
C280 C281 1.345 . S
C281 H273 0.950 . S
C281 C280 1.345 . S
C281 C282 1.424 . S
C282 H274 0.951 . S
C282 C281 1.424 . S
C282 C283 1.347 1_556 S
C283 H275 0.951 . S
C283 C278 1.429 . S
C283 C282 1.347 1_554 S
H284 C285 0.951 . S
C285 H284 0.951 . S
C285 C291 1.265 . S
H286 C291 0.950 . S
H287 C295 0.949 . S
H288 C296 0.950 . S
H289 C297 0.951 . S
H290 C298 0.951 . S
C291 C285 1.265 . S
C291 H286 0.950 . S
C291 C292 1.478 . S
C292 C291 1.478 . S
C292 C293 1.397 . S
C292 C309 1.394 . S
C293 C292 1.397 . S
C293 C294 1.438 . S
C293 C298 1.429 . S
C294 C293 1.438 . S
C294 C295 1.428 . S
C294 C307 1.394 . S
C295 H287 0.949 . S
C295 C294 1.428 . S
C295 C296 1.345 . S
C296 H288 0.950 . S
C296 C295 1.345 . S
C296 C297 1.424 . S
C297 H289 0.951 . S
C297 C296 1.424 . S
C297 C298 1.347 . S
C298 H290 0.951 . S
C298 C293 1.429 . S
C298 C297 1.347 . S
H299 C300 0.951 . S
C300 H299 0.951 . S
C300 C306 1.265 . S
H301 C306 0.950 . S
H302 C310 0.949 . S
H303 C311 0.950 . S
H304 C312 0.951 . S
H305 C313 0.951 . S
C306 C300 1.265 . S
C306 H301 0.950 . S
C306 C307 1.478 . S
C307 C294 1.394 . S
C307 C306 1.478 . S
C307 C308 1.397 . S
C308 C307 1.397 . S
C308 C309 1.438 . S
C308 C313 1.429 . S
C309 C292 1.394 . S
C309 C308 1.438 . S
C309 C310 1.428 . S
C310 H302 0.949 . S
C310 C309 1.428 . S
C310 C311 1.345 . S
C311 H303 0.950 . S
C311 C310 1.345 . S
C311 C312 1.424 . S
C312 H304 0.951 . S
C312 C311 1.424 . S
C312 C313 1.347 . S
C313 H305 0.951 . S
C313 C308 1.429 . S
C313 C312 1.347 . S
H314 C315 0.951 . S
C315 H314 0.951 . S
C315 C321 1.265 . S
H316 C321 0.950 . S
H317 C325 0.949 . S
H318 C326 0.950 . S
H319 C327 0.951 . S
H320 C328 0.951 . S
C321 C315 1.265 . S
C321 H316 0.950 . S
C321 C322 1.478 . S
C322 C321 1.478 . S
C322 C323 1.397 . S
C322 C339 1.394 . S
C323 C322 1.397 . S
C323 C324 1.438 1_556 S
C323 C328 1.429 . S
C324 C323 1.438 1_554 S
C324 C325 1.428 . S
C324 C337 1.394 . S
C325 H317 0.949 . S
C325 C324 1.428 . S
C325 C326 1.345 . S
C326 H318 0.950 . S
C326 C325 1.345 . S
C326 C327 1.424 1_554 S
C327 H319 0.951 . S
C327 C326 1.424 1_556 S
C327 C328 1.347 . S
C328 H320 0.951 . S
C328 C323 1.429 . S
C328 C327 1.347 . S
H329 C330 0.951 . S
C330 H329 0.951 . S
C330 C336 1.265 . S
H331 C336 0.950 . S
H332 C340 0.949 . S
H333 C341 0.950 . S
H334 C342 0.951 . S
H335 C343 0.951 . S
C336 C330 1.265 . S
C336 H331 0.950 . S
C336 C337 1.478 . S
C337 C324 1.394 . S
C337 C336 1.478 . S
C337 C338 1.397 . S
C338 C337 1.397 . S
C338 C339 1.438 1_554 S
C338 C343 1.429 . S
C339 C322 1.394 . S
C339 C338 1.438 1_556 S
C339 C340 1.428 . S
C340 H332 0.949 . S
C340 C339 1.428 . S
C340 C341 1.345 . S
C341 H333 0.950 . S
C341 C340 1.345 . S
C341 C342 1.424 1_556 S
C342 H334 0.951 . S
C342 C341 1.424 1_554 S
C342 C343 1.347 . S
C343 H335 0.951 . S
C343 C338 1.429 . S
C343 C342 1.347 . S
H344 C345 0.951 . S
C345 H344 0.951 . S
C345 C351 1.265 . S
H346 C351 0.950 . S
H347 C355 0.949 . S
H348 C356 0.950 . S
H349 C357 0.951 . S
H350 C358 0.951 . S
C351 C345 1.265 . S
C351 H346 0.950 . S
C351 C352 1.478 . S
C352 C351 1.478 . S
C352 C353 1.397 . S
C352 C369 1.394 . S
C353 C352 1.397 . S
C353 C354 1.438 . S
C353 C358 1.429 . S
C354 C353 1.438 . S
C354 C355 1.428 . S
C354 C367 1.394 . S
C355 H347 0.949 . S
C355 C354 1.428 . S
C355 C356 1.345 . S
C356 H348 0.950 . S
C356 C355 1.345 . S
C356 C357 1.424 . S
C357 H349 0.951 . S
C357 C356 1.424 . S
C357 C358 1.347 . S
C358 H350 0.951 . S
C358 C353 1.429 . S
C358 C357 1.347 . S
H359 C360 0.951 . S
C360 H359 0.951 . S
C360 C366 1.265 . S
H361 C366 0.950 . S
H362 C370 0.949 . S
H363 C371 0.950 . S
H364 C372 0.951 . S
H365 C373 0.951 . S
C366 C360 1.265 . S
C366 H361 0.950 . S
C366 C367 1.478 . S
C367 C354 1.394 . S
C367 C366 1.478 . S
C367 C368 1.397 . S
C368 C367 1.397 . S
C368 C369 1.438 . S
C368 C373 1.429 . S
C369 C352 1.394 . S
C369 C368 1.438 . S
C369 C370 1.428 . S
C370 H362 0.949 . S
C370 C369 1.428 . S
C370 C371 1.345 . S
C371 H363 0.950 . S
C371 C370 1.345 . S
C371 C372 1.424 . S
C372 H364 0.951 . S
C372 C371 1.424 . S
C372 C373 1.347 . S
C373 H365 0.951 . S
C373 C368 1.429 . S
C373 C372 1.347 . S
H374 C375 0.951 . S
C375 H374 0.951 . S
C375 C381 1.265 . S
H376 C381 0.950 . S
H377 C385 0.949 1_545 S
H378 C386 0.950 1_545 S
H379 C387 0.951 . S
H380 C388 0.951 . S
C381 C375 1.265 . S
C381 H376 0.950 . S
C381 C382 1.478 . S
C382 C381 1.478 . S
C382 C383 1.397 . S
C382 C399 1.394 . S
C383 C382 1.397 . S
C383 C384 1.438 . S
C383 C388 1.429 . S
C384 C383 1.438 . S
C384 C385 1.428 . S
C384 C397 1.394 . S
C385 H377 0.949 1_565 S
C385 C384 1.428 . S
C385 C386 1.345 . S
C386 H378 0.950 1_565 S
C386 C385 1.345 . S
C386 C387 1.424 . S
C387 H379 0.951 . S
C387 C386 1.424 . S
C387 C388 1.347 . S
C388 H380 0.951 . S
C388 C383 1.429 . S
C388 C387 1.347 . S
H389 C390 0.951 . S
C390 H389 0.951 . S
C390 C396 1.265 1_545 S
H391 C396 0.950 . S
H392 C400 0.949 . S
H393 C401 0.950 . S
H394 C402 0.951 . S
H395 C403 0.951 . S
C396 C390 1.265 1_565 S
C396 H391 0.950 . S
C396 C397 1.478 . S
C397 C384 1.394 . S
C397 C396 1.478 . S
C397 C398 1.397 . S
C398 C397 1.397 . S
C398 C399 1.438 . S
C398 C403 1.429 . S
C399 C382 1.394 . S
C399 C398 1.438 . S
C399 C400 1.428 . S
C400 H392 0.949 . S
C400 C399 1.428 . S
C400 C401 1.345 . S
C401 H393 0.950 . S
C401 C400 1.345 . S
C401 C402 1.424 . S
C402 H394 0.951 . S
C402 C401 1.424 . S
C402 C403 1.347 . S
C403 H395 0.951 . S
C403 C398 1.429 . S
C403 C402 1.347 . S
H404 C405 0.951 . S
C405 H404 0.951 . S
C405 C411 1.265 . S
H406 C411 0.950 . S
H407 C415 0.949 . S
H408 C416 0.950 . S
H409 C417 0.951 . S
H410 C418 0.951 . S
C411 C405 1.265 . S
C411 H406 0.950 . S
C411 C412 1.478 . S
C412 C411 1.478 . S
C412 C413 1.397 . S
C412 C429 1.394 . S
C413 C412 1.397 . S
C413 C414 1.438 . S
C413 C418 1.429 . S
C414 C413 1.438 . S
C414 C415 1.428 . S
C414 C427 1.394 . S
C415 H407 0.949 . S
C415 C414 1.428 . S
C415 C416 1.345 . S
C416 H408 0.950 . S
C416 C415 1.345 . S
C416 C417 1.424 . S
C417 H409 0.951 . S
C417 C416 1.424 . S
C417 C418 1.347 . S
C418 H410 0.951 . S
C418 C413 1.429 . S
C418 C417 1.347 . S
H419 C420 0.951 . S
C420 H419 0.951 . S
C420 C426 1.265 . S
H421 C426 0.950 . S
H422 C430 0.949 . S
H423 C431 0.950 . S
H424 C432 0.951 . S
H425 C433 0.951 . S
C426 C420 1.265 . S
C426 H421 0.950 . S
C426 C427 1.478 . S
C427 C414 1.394 . S
C427 C426 1.478 . S
C427 C428 1.397 . S
C428 C427 1.397 . S
C428 C429 1.438 . S
C428 C433 1.429 . S
C429 C412 1.394 . S
C429 C428 1.438 . S
C429 C430 1.428 . S
C430 H422 0.949 . S
C430 C429 1.428 . S
C430 C431 1.345 . S
C431 H423 0.950 . S
C431 C430 1.345 . S
C431 C432 1.424 . S
C432 H424 0.951 . S
C432 C431 1.424 . S
C432 C433 1.347 . S
C433 H425 0.951 . S
C433 C428 1.429 . S
C433 C432 1.347 . S
H434 C435 0.951 . S
C435 H434 0.951 . S
C435 C441 1.265 . S
H436 C441 0.950 . S
H437 C445 0.949 1_565 S
H438 C446 0.950 1_565 S
H439 C447 0.951 . S
H440 C448 0.951 . S
C441 C435 1.265 . S
C441 H436 0.950 . S
C441 C442 1.478 . S
C442 C441 1.478 . S
C442 C443 1.397 . S
C442 C459 1.394 . S
C443 C442 1.397 . S
C443 C444 1.438 . S
C443 C448 1.429 . S
C444 C443 1.438 . S
C444 C445 1.428 . S
C444 C457 1.394 . S
C445 H437 0.949 1_545 S
C445 C444 1.428 . S
C445 C446 1.345 . S
C446 H438 0.950 1_545 S
C446 C445 1.345 . S
C446 C447 1.424 . S
C447 H439 0.951 . S
C447 C446 1.424 . S
C447 C448 1.347 . S
C448 H440 0.951 . S
C448 C443 1.429 . S
C448 C447 1.347 . S
H449 C450 0.951 . S
C450 H449 0.951 . S
C450 C456 1.265 1_565 S
H451 C456 0.950 . S
H452 C460 0.949 . S
H453 C461 0.950 . S
H454 C462 0.951 . S
H455 C463 0.951 . S
C456 C450 1.265 1_545 S
C456 H451 0.950 . S
C456 C457 1.478 . S
C457 C444 1.394 . S
C457 C456 1.478 . S
C457 C458 1.397 . S
C458 C457 1.397 . S
C458 C459 1.438 . S
C458 C463 1.429 . S
C459 C442 1.394 . S
C459 C458 1.438 . S
C459 C460 1.428 . S
C460 H452 0.949 . S
C460 C459 1.428 . S
C460 C461 1.345 . S
C461 H453 0.950 . S
C461 C460 1.345 . S
C461 C462 1.424 . S
C462 H454 0.951 . S
C462 C461 1.424 . S
C462 C463 1.347 . S
C463 H455 0.951 . S
C463 C458 1.429 . S
C463 C462 1.347 . S
H464 C465 0.951 . S
C465 H464 0.951 . S
C465 C471 1.265 1_455 S
H466 C471 0.950 . S
H467 C475 0.949 . S
H468 C476 0.950 . S
H469 C477 0.951 . S
H470 C478 0.951 . S
C471 C465 1.265 1_655 S
C471 H466 0.950 . S
C471 C472 1.478 . S
C472 C471 1.478 . S
C472 C473 1.397 . S
C472 C489 1.394 . S
C473 C472 1.397 . S
C473 C474 1.438 . S
C473 C478 1.429 . S
C474 C473 1.438 . S
C474 C475 1.428 . S
C474 C487 1.394 . S
C475 H467 0.949 . S
C475 C474 1.428 . S
C475 C476 1.345 . S
C476 H468 0.950 . S
C476 C475 1.345 . S
C476 C477 1.424 . S
C477 H469 0.951 . S
C477 C476 1.424 . S
C477 C478 1.347 . S
C478 H470 0.951 . S
C478 C473 1.429 . S
C478 C477 1.347 . S
H479 C480 0.951 . S
C480 H479 0.951 . S
C480 C486 1.265 . S
H481 C486 0.950 . S
H482 C490 0.949 . S
H483 C491 0.950 . S
H484 C492 0.951 . S
H485 C493 0.951 . S
C486 C480 1.265 . S
C486 H481 0.950 . S
C486 C487 1.478 . S
C487 C474 1.394 . S
C487 C486 1.478 . S
C487 C488 1.397 . S
C488 C487 1.397 . S
C488 C489 1.438 . S
C488 C493 1.429 . S
C489 C472 1.394 . S
C489 C488 1.438 . S
C489 C490 1.428 . S
C490 H482 0.949 . S
C490 C489 1.428 . S
C490 C491 1.345 . S
C491 H483 0.950 . S
C491 C490 1.345 . S
C491 C492 1.424 . S
C492 H484 0.951 . S
C492 C491 1.424 . S
C492 C493 1.347 . S
C493 H485 0.951 . S
C493 C488 1.429 . S
C493 C492 1.347 . S
H494 C495 0.951 . S
C495 H494 0.951 . S
C495 C501 1.265 . S
H496 C501 0.950 . S
H497 C505 0.949 . S
H498 C506 0.950 . S
H499 C507 0.951 . S
H500 C508 0.951 . S
C501 C495 1.265 . S
C501 H496 0.950 . S
C501 C502 1.478 . S
C502 C501 1.478 . S
C502 C503 1.397 . S
C502 C519 1.394 . S
C503 C502 1.397 . S
C503 C504 1.438 . S
C503 C508 1.429 . S
C504 C503 1.438 . S
C504 C505 1.428 . S
C504 C517 1.394 . S
C505 H497 0.949 . S
C505 C504 1.428 . S
C505 C506 1.345 . S
C506 H498 0.950 . S
C506 C505 1.345 . S
C506 C507 1.424 . S
C507 H499 0.951 . S
C507 C506 1.424 . S
C507 C508 1.347 . S
C508 H500 0.951 . S
C508 C503 1.429 . S
C508 C507 1.347 . S
H509 C510 0.951 . S
C510 H509 0.951 . S
C510 C516 1.265 . S
H511 C516 0.950 . S
H512 C520 0.949 . S
H513 C521 0.950 . S
H514 C522 0.951 . S
H515 C523 0.951 . S
C516 C510 1.265 . S
C516 H511 0.950 . S
C516 C517 1.478 . S
C517 C504 1.394 . S
C517 C516 1.478 . S
C517 C518 1.397 . S
C518 C517 1.397 . S
C518 C519 1.438 . S
C518 C523 1.429 . S
C519 C502 1.394 . S
C519 C518 1.438 . S
C519 C520 1.428 . S
C520 H512 0.949 . S
C520 C519 1.428 . S
C520 C521 1.345 . S
C521 H513 0.950 . S
C521 C520 1.345 . S
C521 C522 1.424 . S
C522 H514 0.951 . S
C522 C521 1.424 . S
C522 C523 1.347 . S
C523 H515 0.951 . S
C523 C518 1.429 . S
C523 C522 1.347 . S
H524 C525 0.951 . S
C525 H524 0.951 . S
C525 C531 1.265 . S
H526 C531 0.950 . S
H527 C535 0.949 . S
H528 C536 0.950 . S
H529 C537 0.951 . S
H530 C538 0.951 . S
C531 C525 1.265 . S
C531 H526 0.950 . S
C531 C532 1.478 . S
C532 C531 1.478 . S
C532 C533 1.397 . S
C532 C549 1.394 . S
C533 C532 1.397 . S
C533 C534 1.438 . S
C533 C538 1.429 . S
C534 C533 1.438 . S
C534 C535 1.428 . S
C534 C547 1.394 . S
C535 H527 0.949 . S
C535 C534 1.428 . S
C535 C536 1.345 . S
C536 H528 0.950 . S
C536 C535 1.345 . S
C536 C537 1.424 . S
C537 H529 0.951 . S
C537 C536 1.424 . S
C537 C538 1.347 . S
C538 H530 0.951 . S
C538 C533 1.429 . S
C538 C537 1.347 . S
H539 C540 0.951 1_455 S
C540 H539 0.951 1_655 S
C540 C546 1.265 1_655 S
H541 C546 0.950 1_655 S
H542 C550 0.949 . S
H543 C551 0.950 . S
H544 C552 0.951 . S
H545 C553 0.951 . S
C546 C540 1.265 1_455 S
C546 H541 0.950 1_455 S
C546 C547 1.478 . S
C547 C534 1.394 . S
C547 C546 1.478 . S
C547 C548 1.397 . S
C548 C547 1.397 . S
C548 C549 1.438 . S
C548 C553 1.429 . S
C549 C532 1.394 . S
C549 C548 1.438 . S
C549 C550 1.428 . S
C550 H542 0.949 . S
C550 C549 1.428 . S
C550 C551 1.345 . S
C551 H543 0.950 . S
C551 C550 1.345 . S
C551 C552 1.424 . S
C552 H544 0.951 . S
C552 C551 1.424 . S
C552 C553 1.347 . S
C553 H545 0.951 . S
C553 C548 1.429 . S
C553 C552 1.347 . S
H554 C555 0.951 . S
C555 H554 0.951 . S
C555 C561 1.265 . S
H556 C561 0.950 . S
H557 C565 0.949 . S
H558 C566 0.950 . S
H559 C567 0.951 . S
H560 C568 0.951 . S
C561 C555 1.265 . S
C561 H556 0.950 . S
C561 C562 1.478 . S
C562 C561 1.478 . S
C562 C563 1.397 . S
C562 C579 1.394 . S
C563 C562 1.397 . S
C563 C564 1.438 . S
C563 C568 1.429 . S
C564 C563 1.438 . S
C564 C565 1.428 . S
C564 C577 1.394 . S
C565 H557 0.949 . S
C565 C564 1.428 . S
C565 C566 1.345 . S
C566 H558 0.950 . S
C566 C565 1.345 . S
C566 C567 1.424 . S
C567 H559 0.951 . S
C567 C566 1.424 . S
C567 C568 1.347 . S
C568 H560 0.951 . S
C568 C563 1.429 . S
C568 C567 1.347 . S
H569 C570 0.951 . S
C570 H569 0.951 . S
C570 C576 1.265 . S
H571 C576 0.950 . S
H572 C580 0.949 . S
H573 C581 0.950 . S
H574 C582 0.951 . S
H575 C583 0.951 . S
C576 C570 1.265 . S
C576 H571 0.950 . S
C576 C577 1.478 . S
C577 C564 1.394 . S
C577 C576 1.478 . S
C577 C578 1.397 . S
C578 C577 1.397 . S
C578 C579 1.438 . S
C578 C583 1.429 . S
C579 C562 1.394 . S
C579 C578 1.438 . S
C579 C580 1.428 . S
C580 H572 0.949 . S
C580 C579 1.428 . S
C580 C581 1.345 . S
C581 H573 0.950 . S
C581 C580 1.345 . S
C581 C582 1.424 . S
C582 H574 0.951 . S
C582 C581 1.424 . S
C582 C583 1.347 . S
C583 H575 0.951 . S
C583 C578 1.429 . S
C583 C582 1.347 . S
C105 C5 0.798 . S
C120 C29 0.795 . S
C135 C16 0.797 . S
C150 C42 0.796 . S
C165 C55 0.810 . S
C180 C81 0.811 . S
C195 C68 0.797 . S
C210 C94 0.796 . S
C225 C10 1.494 . S
C240 C69 1.452 . S
C255 C17 1.459 . S
C270 C82 1.484 . S
C285 C95 1.501 . S
C300 C30 1.466 . S
C315 C43 1.504 . S
C330 C56 1.450 . S
C345 C57 1.728 . S
C360 C4 1.744 . S
C375 C23 1.694 . S
C390 C70 1.655 . S
C405 C36 1.710 . S
C420 C83 1.685 . S
C435 C49 1.694 . S
C450 C96 1.655 . S
C465 C3 1.702 . S
C480 C62 1.722 . S
C495 C75 1.756 . S
C510 C18 1.735 . S
C525 C88 1.726 . S
C540 C31 1.686 . S
C555 C44 1.723 . S
C570 C101 1.751 . S
