# Generated by pormake.
# Topology smm, (6)-cn, num edge types: 1
# Building blocks:
#     Node 0, Type 0, BuildingBlock: BETFAJ_clean_sbu_0, # of connection points: 6
#     Node 1, Type 0, BuildingBlock: BETFAJ_clean_sbu_0, # of connection points: 6
#     Node 2, Type 0, BuildingBlock: BETFAJ_clean_sbu_0, # of connection points: 6
#     Node 3, Type 0, BuildingBlock: BETFAJ_clean_sbu_0, # of connection points: 6
#     Node 4, Type 0, BuildingBlock: BETFAJ_clean_sbu_0, # of connection points: 6
#     Node 5, Type 0, BuildingBlock: BETFAJ_clean_sbu_0, # of connection points: 6
#     Node 6, Type 0, BuildingBlock: BETFAJ_clean_sbu_0, # of connection points: 6
#     Node 7, Type 0, BuildingBlock: BETFAJ_clean_sbu_0, # of connection points: 6
#     Node 8, Type 0, BuildingBlock: BETFAJ_clean_sbu_0, # of connection points: 6
#     Edge 9, Type (0, 0), BuildingBlock: CIFDUS_clean_linker_0, # of connection points: 2
#     Edge 10, Type (0, 0), BuildingBlock: CIFDUS_clean_linker_0, # of connection points: 2
#     Edge 11, Type (0, 0), BuildingBlock: CIFDUS_clean_linker_0, # of connection points: 2
#     Edge 12, Type (0, 0), BuildingBlock: CIFDUS_clean_linker_0, # of connection points: 2
#     Edge 13, Type (0, 0), BuildingBlock: CIFDUS_clean_linker_0, # of connection points: 2
#     Edge 14, Type (0, 0), BuildingBlock: CIFDUS_clean_linker_0, # of connection points: 2
#     Edge 15, Type (0, 0), BuildingBlock: CIFDUS_clean_linker_0, # of connection points: 2
#     Edge 16, Type (0, 0), BuildingBlock: CIFDUS_clean_linker_0, # of connection points: 2
#     Edge 17, Type (0, 0), BuildingBlock: CIFDUS_clean_linker_0, # of connection points: 2
#     Edge 18, Type (0, 0), BuildingBlock: CIFDUS_clean_linker_0, # of connection points: 2
#     Edge 19, Type (0, 0), BuildingBlock: CIFDUS_clean_linker_0, # of connection points: 2
#     Edge 20, Type (0, 0), BuildingBlock: CIFDUS_clean_linker_0, # of connection points: 2
#     Edge 21, Type (0, 0), BuildingBlock: CIFDUS_clean_linker_0, # of connection points: 2
#     Edge 22, Type (0, 0), BuildingBlock: CIFDUS_clean_linker_0, # of connection points: 2
#     Edge 23, Type (0, 0), BuildingBlock: CIFDUS_clean_linker_0, # of connection points: 2
#     Edge 24, Type (0, 0), BuildingBlock: CIFDUS_clean_linker_0, # of connection points: 2
#     Edge 25, Type (0, 0), BuildingBlock: CIFDUS_clean_linker_0, # of connection points: 2
#     Edge 26, Type (0, 0), BuildingBlock: CIFDUS_clean_linker_0, # of connection points: 2
#     Edge 27, Type (0, 0), BuildingBlock: CIFDUS_clean_linker_0, # of connection points: 2
#     Edge 28, Type (0, 0), BuildingBlock: CIFDUS_clean_linker_0, # of connection points: 2
#     Edge 29, Type (0, 0), BuildingBlock: CIFDUS_clean_linker_0, # of connection points: 2
#     Edge 30, Type (0, 0), BuildingBlock: CIFDUS_clean_linker_0, # of connection points: 2
#     Edge 31, Type (0, 0), BuildingBlock: CIFDUS_clean_linker_0, # of connection points: 2
#     Edge 32, Type (0, 0), BuildingBlock: CIFDUS_clean_linker_0, # of connection points: 2
#     Edge 33, Type (0, 0), BuildingBlock: CIFDUS_clean_linker_0, # of connection points: 2
#     Edge 34, Type (0, 0), BuildingBlock: CIFDUS_clean_linker_0, # of connection points: 2
#     Edge 35, Type (0, 0), BuildingBlock: CIFDUS_clean_linker_0, # of connection points: 2
# Relax obj value: 0.041
# Max RMSD: 0.118
# Mean RMSD: 0.118
data_MOF--net-smm--node1-BETFAJ_clean_sbu_0--edge1-CIFDUS_clean_linker_0
_symmetry_space_group_name_H-M    P1
_symmetry_Int_Tables_number       1
_symmetry_cell_setting            triclinic
loop_
_symmetry_equiv_pos_as_xyz
'x, y, z'
_cell_length_a     64.618339
_cell_length_b     64.705191
_cell_length_c     12.531635
_cell_angle_alpha  89.685099
_cell_angle_beta   90.415123
_cell_angle_gamma 120.11433
loop_
_atom_site_label
_atom_site_type_symbol
_atom_site_fract_x
_atom_site_fract_y
_atom_site_fract_z
_atom_type_partial_charge
Sm0 Sm 0.05886 0.22291 0.95992 0.0
Sm1 Sm 1.01242 0.17368 -0.00061 0.0
C2 C 0.09197 0.2639 0.87534 0.0
C3 C 0.09907 0.28936 0.85867 0.0
C4 C 0.08708 0.2962 0.78472 0.0
C5 C 0.09565 0.3204 0.76208 0.0
C6 C 0.11647 0.33834 0.81236 0.0
C7 C 0.128 0.33143 0.88838 0.0
C8 C 0.11947 0.30728 0.91084 0.0
C9 C 0.04683 0.21127 0.16918 0.0
C10 C 1.00622 0.22028 0.98148 0.0
C11 C 0.97794 0.13155 0.06742 0.0
C12 C 0.96822 0.10574 0.04948 0.0
C13 C 0.96199 0.09033 0.13756 0.0
C14 C 0.95161 0.06567 0.12289 0.0
C15 C 0.9471 0.05588 0.0196 0.0
C16 C 0.95354 0.07138 0.93131 0.0
C17 C 0.9641 0.09608 0.94605 0.0
C18 C 1.0257 0.18481 0.79014 0.0
C19 C 0.06535 0.17706 0.00475 0.0
O20 O 0.07349 0.24761 0.82178 0.0
O21 O 0.09352 0.25706 0.97228 0.0
O22 O 1.03243 0.2074 0.09378 0.0
O23 O 0.06892 0.22377 0.1377 0.0
O24 O 1.02843 0.23233 0.9446 0.0
O25 O 0.99728 0.19855 0.02161 0.0
O26 O 0.99878 0.14338 0.11514 0.0
O27 O 0.97513 0.14365 -0.00973 0.0
O28 O 0.03952 0.18875 0.86768 0.0
O29 O 1.00357 0.17266 0.81984 0.0
O30 O 0.04287 0.16587 0.03756 0.0
O31 O 0.07501 0.19817 0.95681 0.0
H32 H 0.07141 0.28287 0.74233 0.0
H33 H 0.08641 0.32501 0.70255 0.0
H34 H 0.14381 0.34472 0.93019 0.0
H35 H 0.12918 0.30261 0.96765 0.0
H36 H 0.96488 0.09736 0.21798 0.0
H37 H 0.94665 0.05421 0.19256 0.0
H38 H 0.95058 0.06441 0.85081 0.0
H39 H 0.96883 0.10757 0.87656 0.0
Sm40 Sm 0.85314 0.86075 0.98028 0.0
Sm41 Sm 0.90157 0.86682 0.0316 0.0
C42 C 0.81426 0.85864 0.89588 0.0
C43 C 0.78934 0.84092 0.86466 0.0
C44 C 0.78421 0.82375 0.7849 0.0
C45 C 0.76049 0.80797 0.75373 0.0
C46 C 0.74136 0.80902 0.80138 0.0
C47 C 0.74661 0.82602 0.88216 0.0
C48 C 0.77027 0.84179 0.91302 0.0
C49 C 0.86015 0.85645 0.19482 0.0
C50 C 0.8546 0.81282 0.02413 0.0
C51 C 0.94225 0.86948 0.09356 0.0
C52 C 0.96788 0.88747 0.08458 0.0
C53 C 0.97519 0.91084 0.05051 0.0
C54 C 0.99957 0.92782 0.04231 0.0
C55 C 1.01714 0.92175 0.06762 0.0
C56 C 1.00964 0.89823 0.10127 0.0
C57 C 0.98525 0.88128 0.10966 0.0
C58 C 0.89374 0.87158 0.81794 0.0
C59 C 0.89927 0.91513 0.01944 0.0
O60 O 0.83169 0.85977 0.83889 0.0
O61 O 0.81922 0.86146 -0.00207 0.0
O62 O 0.87559 0.87177 0.13249 0.0
O63 O 0.83995 0.84342 0.14545 0.0
O64 O 0.84364 0.82171 0.96714 0.0
O65 O 0.87562 0.82689 0.06943 0.0
O66 O 0.92953 0.87509 0.15494 0.0
O67 O 0.93121 0.85936 0.00459 0.0
O68 O 0.87897 0.85567 0.87998 0.0
O69 O 0.91353 0.88555 0.86792 0.0
O70 O 0.91086 0.90511 0.06115 0.0
O71 O 0.87817 0.90217 0.97228 0.0
H72 H 0.7985 0.82263 0.74566 0.0
H73 H 0.7572 0.79529 0.69067 0.0
H74 H 0.7324 0.82712 0.9222 0.0
H75 H 0.77367 0.85484 0.97454 0.0
H76 H 0.96203 0.91593 0.03013 0.0
H77 H 1.00465 0.94564 0.0149 0.0
H78 H 1.02261 0.89298 0.12276 0.0
H79 H 0.97996 0.86334 0.13615 0.0
Sm80 Sm 0.21515 1.01339 0.01094 0.0
Sm81 Sm 0.20654 0.05682 0.03404 0.0
C82 C 0.22749 0.9816 0.95415 0.0
C83 C 0.24758 0.978 0.92368 0.0
C84 C 0.25848 0.98476 0.82275 0.0
C85 C 0.27504 0.97803 0.79079 0.0
C86 C 0.28078 0.96423 0.85868 0.0
C87 C 0.27069 0.9585 0.96119 0.0
C88 C 0.25426 0.96524 -0.00693 0.0
C89 C 0.20486 1.02161 0.21208 0.0
C90 C 0.26097 0.06681 0.05421 0.0
C91 C 0.19478 0.08904 0.09148 0.0
C92 C 0.17958 0.09953 0.06676 0.0
C93 C 0.16805 0.10384 0.15084 0.0
C94 C 0.15482 0.11521 0.13212 0.0
C95 C 0.15282 0.12259 0.02862 0.0
C96 C 0.16419 0.118 0.94402 0.0
C97 C 0.17742 0.10654 0.96285 0.0
C98 C 0.21524 0.04783 0.831 0.0
C99 C 0.15994 1.00162 0.00977 0.0
O100 O 0.2202 0.99206 0.88617 0.0
O101 O 0.22643 0.98711 0.05351 0.0
O102 O 0.21806 0.03753 0.14659 0.0
O103 O 0.19857 1.0004 0.1771 0.0
O104 O 0.25346 0.04619 0.00486 0.0
O105 O 0.24566 0.07307 0.08999 0.0
O106 O 0.18428 0.06726 0.12942 0.0
O107 O 0.21236 0.09364 0.02652 0.0
O108 O 0.20295 0.03236 0.89954 0.0
O109 O 0.22043 0.06892 0.86279 0.0
O110 O 0.16791 0.02412 0.03813 0.0
O111 O 0.17459 0.99376 -0.01627 0.0
H112 H 0.25363 0.9945 0.76705 0.0
H113 H 0.28244 0.98261 0.71119 0.0
H114 H 0.27501 0.94818 0.01594 0.0
H115 H 0.2461 0.95966 0.07099 0.0
H116 H 0.16965 0.09878 0.23174 0.0
H117 H 0.14662 0.11872 0.19939 0.0
H118 H 0.16278 0.1232 0.86318 0.0
H119 H 0.18612 0.10341 0.89647 0.0
Sm120 Sm 0.73306 0.55892 0.3371 0.0
Sm121 Sm 0.68866 0.50787 0.36815 0.0
C122 C 0.7658 0.60129 0.2629 0.0
C123 C 0.77595 0.62745 0.25809 0.0
C124 C 0.76239 0.63784 0.22475 0.0
C125 C 0.77342 0.66261 0.20907 0.0
C126 C 0.79819 0.67745 0.22622 0.0
C127 C 0.8115 0.66693 0.26175 0.0
C128 C 0.80051 0.64227 0.27741 0.0
C129 C 0.72505 0.54224 0.54269 0.0
C130 C 0.68046 0.55357 0.39028 0.0
C131 C 0.65611 0.46421 0.43049 0.0
C132 C 0.64783 0.43874 0.41241 0.0
C133 C 0.6244 0.4217 0.44073 0.0
C134 C 0.61609 0.39733 0.42737 0.0
C135 C 0.63106 0.38945 0.38513 0.0
C136 C 0.65456 0.40668 0.35591 0.0
C137 C 0.66287 0.43113 0.36931 0.0
C138 C 0.69747 0.52459 0.1622 0.0
C139 C 0.74206 0.51377 0.33385 0.0
O140 O 0.74539 0.58748 0.2146 0.0
O141 O 0.76872 0.59196 0.35066 0.0
O142 O 0.70913 0.53923 0.47623 0.0
O143 O 0.74623 0.5572 0.50691 0.0
O144 O 0.70186 0.56705 0.34714 0.0
O145 O 0.67286 0.53117 0.4192 0.0
O146 O 0.67686 0.47696 0.47784 0.0
O147 O 0.65245 0.47572 0.35334 0.0
O148 O 0.71302 0.52725 0.23001 0.0
O149 O 0.67614 0.51018 0.1974 0.0
O150 O 0.72023 0.50046 0.37254 0.0
O151 O 0.74977 0.53577 0.29909 0.0
H152 H 0.74341 0.62682 0.20883 0.0
H153 H 0.76256 0.67013 0.18299 0.0
H154 H 0.83064 0.67765 0.27417 0.0
H155 H 0.81141 0.63466 0.30165 0.0
H156 H 0.61256 0.42724 0.47444 0.0
H157 H 0.59806 0.38465 0.45245 0.0
H158 H 0.6665 0.40128 0.32216 0.0
H159 H 0.68102 0.44405 0.34657 0.0
Sm160 Sm 0.5174 0.19161 0.35097 0.0
Sm161 Sm 0.5693 0.19955 0.37409 0.0
C162 C 0.47354 0.18061 0.29098 0.0
C163 C 0.44892 0.16183 0.26164 0.0
C164 C 0.44387 0.14915 0.16507 0.0
C165 C 0.42012 0.13391 0.1327 0.0
C166 C 0.40095 0.13119 0.19572 0.0
C167 C 0.40612 0.1433 0.29379 0.0
C168 C 0.42978 0.15846 0.32609 0.0
C169 C 0.53667 0.20246 0.5517 0.0
C170 C 0.52469 0.14529 0.39752 0.0
C171 C 0.61421 0.21311 0.4276 0.0
C172 C 0.63925 0.23247 0.40963 0.0
C173 C 0.65238 0.24763 0.49442 0.0
C174 C 0.67653 0.2649 0.48203 0.0
C175 C 0.68825 0.26736 0.3846 0.0
C176 C 0.67499 0.25242 0.29912 0.0
C177 C 0.65078 0.23518 0.31144 0.0
C178 C 0.5504 0.19002 0.17221 0.0
C179 C 0.56172 0.24648 0.34426 0.0
O180 O 0.49092 0.18582 0.22384 0.0
O181 O 0.48018 0.18231 0.39097 0.0
O182 O 0.5389 0.18885 0.4873 0.0
O183 O 0.52184 0.20889 0.51565 0.0
O184 O 0.51104 0.15286 0.35232 0.0
O185 O 0.54696 0.16041 0.42792 0.0
O186 O 0.60049 0.21842 0.4835 0.0
O187 O 0.60278 0.19846 0.34889 0.0
O188 O 0.54813 0.2031 0.2392 0.0
O189 O 0.56554 0.18382 0.20574 0.0
O190 O 0.57604 0.23824 0.37252 0.0
O191 O 0.53886 0.23207 0.32103 0.0
H192 H 0.4582 0.1515 0.11297 0.0
H193 H 0.4168 0.12497 0.05642 0.0
H194 H 0.39184 0.14131 0.34525 0.0
H195 H 0.43311 0.16814 0.40041 0.0
H196 H 0.64408 0.24581 0.57135 0.0
H197 H 0.68622 0.27584 0.55004 0.0
H198 H 0.68334 0.254 0.22259 0.0
H199 H 0.64124 0.22378 0.2444 0.0
Sm200 Sm 0.88417 0.34961 0.30307 0.0
Sm201 Sm 0.8807 0.39282 0.35349 0.0
C202 C 0.89349 0.31755 0.21955 0.0
C203 C 0.91237 0.31167 0.19639 0.0
C204 C 0.93116 0.32538 0.12529 0.0
C205 C 0.94695 0.3176 0.09446 0.0
C206 C 0.94414 0.29593 0.13366 0.0
C207 C 0.92592 0.28282 0.20801 0.0
C208 C 0.91019 0.29056 0.23862 0.0
C209 C 0.87759 0.35434 0.51735 0.0
C210 C 0.93361 0.39982 0.35771 0.0
C211 C 0.87051 0.42517 0.42632 0.0
C212 C 0.85248 0.43256 0.41209 0.0
C213 C 0.82915 0.41648 0.37676 0.0
C214 C 0.81229 0.42395 0.36539 0.0
C215 C 0.81852 0.44767 0.3885 0.0
C216 C 0.84199 0.46368 0.42323 0.0
C217 C 0.85876 0.45618 0.43487 0.0
C218 C 0.88638 0.38742 0.13871 0.0
C219 C 0.83086 0.34103 0.31334 0.0
O220 O 0.89325 0.33463 0.16422 0.0
O221 O 0.88719 0.3169 0.319 0.0
O222 O 0.89145 0.37111 0.45613 0.0
O223 O 0.86728 0.33407 0.46707 0.0
O224 O 0.92386 0.37986 0.30158 0.0
O225 O 0.92002 0.40717 0.40273 0.0
O226 O 0.86347 0.40454 0.4727 0.0
O227 O 0.88488 0.42911 0.34622 0.0
O228 O 0.87271 0.37096 0.20144 0.0
O229 O 0.89698 0.40776 0.18793 0.0
O230 O 0.84079 0.36245 0.35758 0.0
O231 O 0.84411 0.33294 0.27195 0.0
H232 H 0.93328 0.34173 0.09106 0.0
H233 H 0.96075 0.32807 0.03688 0.0
H234 H 0.92355 0.2663 0.24146 0.0
H235 H 0.89584 0.27963 0.29326 0.0
H236 H 0.82397 0.39817 0.35812 0.0
H237 H 0.79446 0.41123 0.3375 0.0
H238 H 0.84732 0.48195 0.4433 0.0
H239 H 0.87666 0.46884 0.46242 0.0
Sm240 Sm 0.39364 0.88837 0.66092 0.0
Sm241 Sm 0.34941 0.84135 0.70962 0.0
C242 C 0.42636 0.92918 0.57228 0.0
C243 C 0.43489 0.95474 0.55382 0.0
C244 C 0.45748 0.96887 0.50814 0.0
C245 C 0.46614 0.99305 0.48647 0.0
C246 C 0.45241 1.00377 0.51033 0.0
C247 C 0.42965 0.98948 0.55636 0.0
C248 C 0.42096 0.96516 0.57797 0.0
C249 C 0.38878 0.87636 0.87459 0.0
C250 C 0.34365 0.88771 0.72477 0.0
C251 C 0.31589 0.79878 0.77928 0.0
C252 C 0.30579 0.77295 0.75939 0.0
C253 C 0.30223 0.75768 0.84587 0.0
C254 C 0.29154 0.73301 0.8306 0.0
C255 C 0.28405 0.72303 0.72836 0.0
C256 C 0.28785 0.7384 0.64148 0.0
C257 C 0.29868 0.76312 0.65674 0.0
C258 C 0.35544 0.85337 0.49543 0.0
C259 C 0.40029 0.8421 0.67559 0.0
O260 O 0.40668 0.9136 0.52374 0.0
O261 O 0.42847 0.92252 0.66851 0.0
O262 O 0.37199 0.87347 0.81292 0.0
O263 O 0.40919 0.88717 0.8256 0.0
O264 O 0.36406 0.89914 0.67153 0.0
O265 O 0.33626 0.86621 0.76412 0.0
O266 O 0.33738 0.81044 0.82089 0.0
O267 O 0.31203 0.81117 0.70719 0.0
O268 O 0.37172 0.85582 0.559 0.0
O269 O 0.33498 0.84337 0.54331 0.0
O270 O 0.37869 0.83113 0.71739 0.0
O271 O 0.40946 0.86377 0.6343 0.0
H272 H 0.46843 0.96112 0.48816 0.0
H273 H 0.48349 1.00324 0.4492 0.0
H274 H 0.41865 0.99713 0.57668 0.0
H275 H 0.40342 0.95451 0.61318 0.0
H276 H 0.30742 0.76483 0.92581 0.0
H277 H 0.28865 0.72169 0.89941 0.0
H278 H 0.28256 0.73132 0.56155 0.0
H279 H 0.30129 0.77448 0.58839 0.0
Sm280 Sm 0.18858 0.52872 0.67651 0.0
Sm281 Sm 0.23867 0.53305 0.71838 0.0
C282 C 0.14771 0.52095 0.5893 0.0
C283 C 0.1217 0.50423 0.57394 0.0
C284 C 0.11249 0.49792 0.46983 0.0
C285 C 0.08777 0.48464 0.45152 0.0
C286 C 0.07158 0.47743 0.537 0.0
C287 C 0.08086 0.48319 0.64157 0.0
C288 C 0.10562 0.49644 0.65987 0.0
C289 C 0.20033 0.52851 0.88643 0.0
C290 C 0.19259 0.47937 0.70151 0.0
C291 C 0.28139 0.54247 0.78917 0.0
C292 C 0.30697 0.56066 0.77948 0.0
C293 C 0.31441 0.5841 0.74591 0.0
C294 C 0.33886 0.60089 0.73626 0.0
C295 C 0.35633 0.59452 0.75954 0.0
C296 C 0.34865 0.57099 0.79337 0.0
C297 C 0.32426 0.55428 0.80312 0.0
C298 C 0.22696 0.53443 0.50864 0.0
C299 C 0.23409 0.58179 0.71717 0.0
O300 O 0.16283 0.51642 0.53998 0.0
O301 O 0.15531 0.53066 0.68348 0.0
O302 O 0.20471 0.51848 0.81152 0.0
O303 O 0.18711 0.53727 0.8541 0.0
O304 O 0.17999 0.48906 0.6649 0.0
O305 O 0.21454 0.49264 0.73987 0.0
O306 O 0.26766 0.54854 0.84046 0.0
O307 O 0.27109 0.52959 0.70432 0.0
O308 O 0.22285 0.54421 0.5852 0.0
O309 O 0.23951 0.52492 0.53963 0.0
O310 O 0.24573 0.5711 0.75217 0.0
O311 O 0.21297 0.56973 0.66928 0.0
H312 H 0.12444 0.50394 0.40201 0.0
H313 H 0.08135 0.48082 0.36993 0.0
H314 H 0.06897 0.47764 0.70946 0.0
H315 H 0.1121 0.50104 0.74113 0.0
H316 H 0.30132 0.58937 0.72669 0.0
H317 H 0.34407 0.61875 0.70899 0.0
H318 H 0.36151 0.5655 0.81365 0.0
H319 H 0.31889 0.5363 0.8293 0.0
Sm320 Sm 0.55364 0.68341 0.64326 0.0
Sm321 Sm 0.54539 0.72684 0.68123 0.0
C322 C 0.5631 0.65176 0.55675 0.0
C323 C 0.58033 0.64354 0.53922 0.0
C324 C 0.57185 0.62079 0.49565 0.0
C325 C 0.58749 0.61231 0.47508 0.0
C326 C 0.61208 0.62638 0.49808 0.0
C327 C 0.62059 0.64932 0.54174 0.0
C328 C 0.60482 0.65784 0.56222 0.0
C329 C 0.55199 0.69449 0.85214 0.0
C330 C 0.60066 0.73785 0.67176 0.0
C331 C 0.53467 0.75928 0.74661 0.0
C332 C 0.51871 0.76911 0.72335 0.0
C333 C 0.50167 0.76666 0.79888 0.0
C334 C 0.48794 0.77764 0.78266 0.0
C335 C 0.49106 0.79151 0.69078 0.0
C336 C 0.50788 0.79366 0.61446 0.0
C337 C 0.52153 0.78259 0.63043 0.0
C338 C 0.54531 0.71437 0.47231 0.0
C339 C 0.49882 0.67177 0.67827 0.0
O340 O 0.5669 0.67132 0.50797 0.0
O341 O 0.55411 0.64929 0.65245 0.0
O342 O 0.56149 0.70918 0.77734 0.0
O343 O 0.54501 0.67281 0.82084 0.0
O344 O 0.59247 0.71602 0.63314 0.0
O345 O 0.586 0.74477 0.70941 0.0
O346 O 0.52521 0.73786 0.78864 0.0
O347 O 0.55145 0.76364 0.67734 0.0
O348 O 0.53639 0.7003 0.54936 0.0
O349 O 0.5529 0.73618 0.50194 0.0
O350 O 0.50772 0.69402 0.71261 0.0
O351 O 0.51255 0.66445 0.63367 0.0
H352 H 0.55304 0.60956 0.47655 0.0
H353 H 0.5803 0.5948 0.43949 0.0
H354 H 0.63936 0.66058 0.56119 0.0
H355 H 0.61171 0.67551 0.59575 0.0
H356 H 0.49931 0.75666 0.87181 0.0
H357 H 0.47535 0.77582 0.84373 0.0
H358 H 0.51054 0.80396 0.54224 0.0
H359 H 0.53455 0.78496 0.57059 0.0
H360 H 0.16332 0.37191 0.78548 0.0
H361 H 0.09246 0.36274 0.7731 0.0
H362 H 0.10943 0.4051 0.72943 0.0
H363 H 0.14479 0.44542 0.70324 0.0
H364 H 0.21542 0.454 0.72281 0.0
H365 H 0.19815 0.4114 0.75567 0.0
C366 C 0.15154 0.37916 0.77427 0.0
C367 C 0.12663 0.36409 0.78368 0.0
C368 C 0.16141 0.40356 0.75033 0.0
C369 C 0.11169 0.37382 0.76593 0.0
C370 C 0.1214 0.39811 0.74137 0.0
C371 C 0.15636 0.4379 0.71342 0.0
C372 C 0.1814 0.453 0.7108 0.0
C373 C 0.14628 0.41323 0.73416 0.0
C374 C 0.19611 0.44292 0.72501 0.0
C375 C 0.18626 0.4185 0.74395 0.0
H376 H 0.70592 0.81982 0.77545 0.0
H377 H 0.71974 0.76139 0.74867 0.0
H378 H 0.67799 0.73455 0.69801 0.0
H379 H 0.6368 0.72714 0.67052 0.0
H380 H 0.62338 0.78575 0.70526 0.0
H381 H 0.66551 0.81281 0.74426 0.0
C382 C 0.69982 0.80118 0.75944 0.0
C383 C 0.71605 0.7927 0.76687 0.0
C384 C 0.67572 0.78576 0.73181 0.0
C385 C 0.7078 0.76855 0.74299 0.0
C386 C 0.68384 0.75311 0.71453 0.0
C387 C 0.64315 0.74588 0.6854 0.0
C388 C 0.62682 0.75431 0.68518 0.0
C389 C 0.66754 0.76145 0.70963 0.0
C390 C 0.63542 0.77866 0.70543 0.0
C391 C 0.65957 0.79422 0.72788 0.0
H392 H 0.27079 0.91871 0.88046 0.0
H393 H 0.32355 0.98657 0.74979 0.0
H394 H 0.34771 0.96901 0.6928 0.0
H395 H 0.35422 0.93414 0.68584 0.0
H396 H 0.30016 0.86677 0.81862 0.0
H397 H 0.27641 0.88444 0.86928 0.0
C398 C 0.28769 0.92976 0.84033 0.0
C399 C 0.29553 0.95398 0.82088 0.0
C400 C 0.30133 0.9196 0.80808 0.0
C401 C 0.31714 0.96786 0.76596 0.0
C402 C 0.33098 0.95784 0.73368 0.0
C403 C 0.3372 0.92335 0.72531 0.0
C404 C 0.32921 0.89915 0.74881 0.0
C405 C 0.32332 0.93369 0.75496 0.0
C406 C 0.30702 0.88545 0.79992 0.0
C407 C 0.29329 0.89552 0.82914 0.0
H408 H 0.36539 0.14196 0.2091 0.0
H409 H 0.37966 0.08746 0.09666 0.0
H410 H 0.33802 0.06327 0.03792 0.0
H411 H 0.29713 0.057 0.02426 0.0
H412 H 0.28315 0.11149 0.14083 0.0
H413 H 0.325 0.13611 0.19259 0.0
C414 C 0.35938 0.12469 0.17262 0.0
C415 C 0.37567 0.1165 0.15824 0.0
C416 C 0.33541 0.11083 0.13967 0.0
C417 C 0.36761 0.09431 0.10832 0.0
C418 C 0.34375 0.0804 0.07509 0.0
C419 C 0.30325 0.07433 0.06027 0.0
C420 C 0.28687 0.08228 0.07874 0.0
C421 C 0.32743 0.08842 0.09091 0.0
C422 C 0.29522 0.1048 0.12583 0.0
C423 C 0.31921 0.11894 0.15567 0.0
H424 H 0.92966 0.25027 0.07791 0.0
H425 H 0.99273 0.32003 0.09929 0.0
H426 H 1.01755 0.30332 0.04274 0.0
H427 H 1.02151 0.26805 -8e-05 0.0
H428 H 0.95796 0.19838 -0.01292 0.0
H429 H 0.93323 0.21587 0.02757 0.0
C430 C 0.94886 0.26184 0.0709 0.0
C431 C 0.95934 0.2863 0.0944 0.0
C432 C 0.96297 0.25209 0.03974 0.0
C433 C 0.98418 0.30112 0.08177 0.0
C434 C 0.9984 0.29155 0.0498 0.0
C435 C 1.00222 0.25681 0.00421 0.0
C436 C 0.9916 0.23193 -0.0091 0.0
C437 C 0.98802 0.26696 0.03001 0.0
C438 C 0.9666 0.21755 -0.00234 0.0
C439 C 0.95242 0.22752 0.02103 0.0
H440 H 0.86274 0.78986 0.18701 0.0
H441 H 0.81799 0.77724 0.90975 0.0
H442 H 0.79633 0.73439 0.94849 0.0
H443 H 0.79024 0.70044 0.06077 0.0
H444 H 0.83389 0.71358 0.34268 0.0
H445 H 0.85583 0.75619 0.30207 0.0
C446 C 0.84838 0.77772 0.13449 0.0
C447 C 0.84215 0.78674 0.04505 0.0
C448 C 0.83571 0.75316 0.15829 0.0
C449 C 0.82321 0.77078 0.97897 0.0
C450 C 0.81077 0.74627 0.00117 0.0
C451 C 0.80433 0.71263 0.1142 0.0
C452 C 0.81043 0.70366 0.20443 0.0
C453 C 0.81681 0.73725 0.09089 0.0
C454 C 0.82901 0.71982 0.27175 0.0
C455 C 0.84154 0.74426 0.24883 0.0
H456 H 0.04559 0.44219 0.39154 0.0
H457 H 0.03804 0.48457 0.63626 0.0
H458 H 0.99507 0.46486 0.60148 0.0
H459 H 0.95943 0.4356 0.50109 0.0
H460 H 0.96713 0.3932 0.25673 0.0
H461 H 1.01009 0.41315 0.29068 0.0
C462 C 1.0346 0.44726 0.43685 0.0
C463 C 0.04518 0.46485 0.51672 0.0
C464 C 1.00983 0.43591 0.41608 0.0
C465 C 1.03046 0.47086 0.57548 0.0
C466 C 1.00585 0.45972 0.55505 0.0
C467 C 0.97051 0.43083 0.45472 0.0
C468 C 0.95995 0.41293 0.37615 0.0
C469 C 0.99531 0.44223 0.47544 0.0
C470 C 0.97466 0.40687 0.3177 0.0
C471 C 0.9993 0.41827 0.33712 0.0
H472 H 0.6036 0.5811 0.52975 0.0
H473 H 0.65764 0.65036 0.41591 0.0
H474 H 0.68363 0.63421 0.37248 0.0
H475 H 0.69063 0.59997 0.36308 0.0
H476 H 0.6356 0.53074 0.47425 0.0
H477 H 0.61036 0.54727 0.51998 0.0
C478 C 0.62097 0.59268 0.4945 0.0
C479 C 0.6285 0.61693 0.47573 0.0
C480 C 0.63567 0.58322 0.46838 0.0
C481 C 0.65138 0.6317 0.43235 0.0
C482 C 0.66621 0.62241 0.40665 0.0
C483 C 0.6731 0.58847 0.39699 0.0
C484 C 0.66513 0.56407 0.41482 0.0
C485 C 0.65848 0.59813 0.42369 0.0
C486 C 0.64233 0.54955 0.45934 0.0
C487 C 0.62781 0.55899 0.48582 0.0
H488 H 0.47826 0.10878 0.37338 0.0
H489 H 0.54824 0.12336 0.47655 0.0
H490 H 0.53203 0.08145 0.52228 0.0
H491 H 0.49815 0.04068 0.53542 0.0
H492 H 0.42812 0.02532 0.43038 0.0
H493 H 0.4441 0.06745 0.3854 0.0
C494 C 0.49 0.10279 0.40538 0.0
C495 C 0.51451 0.11938 0.42114 0.0
C496 C 0.48052 0.07849 0.43233 0.0
C497 C 0.52934 0.11117 0.46336 0.0
C498 C 0.52008 0.08713 0.48981 0.0
C499 C 0.48636 0.04643 0.50173 0.0
C500 C 0.46192 0.02967 0.48615 0.0
C501 C 0.49571 0.07064 0.47488 0.0
C502 C 0.44692 0.03774 0.44456 0.0
C503 C 0.4561 0.06186 0.41795 0.0
H504 H 0.11013 0.11226 0.11481 0.0
H505 H 0.16485 0.16153 0.90061 0.0
H506 H 0.14298 0.18298 0.87465 0.0
H507 H 0.10832 0.18802 0.91474 0.0
H508 H 0.05394 0.13833 0.12988 0.0
H509 H 0.07586 0.11718 0.15458 0.0
C510 C 0.1174 0.1278 0.06302 0.0
C511 C 0.13916 0.13526 0.01003 0.0
C512 C 0.10482 0.14012 0.04892 0.0
C513 C 0.14803 0.1552 0.94159 0.0
C514 C 0.1356 0.1676 0.92727 0.0
C515 C 0.10133 0.17263 0.96733 0.0
C516 C 0.07946 0.16486 0.02024 0.0
C517 C 0.11399 0.16027 0.98083 0.0
C518 C 0.07063 0.14475 0.0876 0.0
C519 C 0.08317 0.13257 0.10198 0.0
H520 H 0.88789 0.94521 0.91146 0.0
H521 H 0.9356 0.94426 0.15214 0.0
H522 H 0.95438 0.98727 0.17284 0.0
H523 H 0.95766 0.02538 0.12339 0.0
H524 H 0.91094 0.02736 0.88133 0.0
H525 H 0.89169 0.98399 0.85961 0.0
C526 C 0.90234 0.95443 0.96853 0.0
C527 C 0.91023 0.94141 0.03008 0.0
C528 C 0.9134 0.97945 0.9796 0.0
C529 C 0.92915 0.95372 0.10317 0.0
C530 C 0.93995 0.9784 0.11539 0.0
C531 C 0.94316 1.01631 0.06637 0.0
C532 C 0.93569 0.02959 0.00452 0.0
C533 C 0.93225 0.99144 0.05415 0.0
C534 C 0.91716 1.01759 0.92949 0.0
C535 C 0.90605 0.99276 0.91742 0.0
H536 H 0.05318 0.91557 -0.00863 0.0
H537 H 0.03975 0.96889 0.12657 0.0
H538 H 0.08234 0.99846 0.11691 0.0
H539 H 0.12372 1.00897 0.07494 0.0
H540 H 0.13694 0.95518 0.94265 0.0
H541 H 0.0943 0.92615 0.94733 0.0
C542 C 0.05956 0.93361 0.0195 0.0
C543 C 0.04316 0.93989 0.05988 0.0
C544 C 0.08414 0.95052 0.01445 0.0
C545 C 0.05182 0.96354 0.09402 0.0
C546 C 0.07625 0.98046 0.08911 0.0
C547 C 0.1173 0.99094 0.04658 0.0
C548 C 0.1337 0.98439 0.00871 0.0
C549 C 0.09262 0.97415 0.04991 0.0
C550 C 0.1249 0.96085 0.97256 0.0
C551 C 0.10043 0.94415 0.9752 0.0
H552 H 0.73334 0.46961 0.39851 0.0
H553 H 0.78794 0.53587 0.26011 0.0
H554 H 0.81587 0.52097 0.26143 0.0
H555 H 0.8254 0.48976 0.30649 0.0
H556 H 0.77134 0.42372 0.44752 0.0
H557 H 0.74261 0.43777 0.43878 0.0
C558 C 0.75131 0.48078 0.36812 0.0
C559 C 0.75846 0.50392 0.32973 0.0
C560 C 0.76744 0.47213 0.36941 0.0
C561 C 0.78185 0.51803 0.29044 0.0
C562 C 0.79791 0.50954 0.2912 0.0
C563 C 0.80737 0.47846 0.33585 0.0
C564 C 0.80065 0.45576 0.3782 0.0
C565 C 0.791 0.48674 0.3315 0.0
C566 C 0.77701 0.44119 0.41372 0.0
C567 C 0.76058 0.44928 0.40939 0.0
H568 H 0.58693 0.35434 0.319 0.0
H569 H 0.65534 0.36572 0.42852 0.0
H570 H 0.64033 0.32279 0.42109 0.0
H571 H 0.60725 0.28182 0.39152 0.0
H572 H 0.53851 0.27047 0.28633 0.0
H573 H 0.55415 0.31349 0.28544 0.0
C574 C 0.59855 0.34745 0.3418 0.0
C575 C 0.62224 0.36335 0.37473 0.0
C576 C 0.58971 0.32268 0.33875 0.0
C577 C 0.63714 0.35403 0.40179 0.0
C578 C 0.6285 0.32942 0.39835 0.0
C579 C 0.59567 0.2887 0.36791 0.0
C580 C 0.57165 0.27277 0.33947 0.0
C581 C 0.60474 0.31354 0.368 0.0
C582 C 0.55702 0.28218 0.30898 0.0
C583 C 0.56595 0.30684 0.30843 0.0
H584 H 0.72188 0.2607 0.28544 0.0
H585 H 0.71356 0.31325 0.46079 0.0
H586 H 0.75669 0.34092 0.45212 0.0
H587 H 0.79707 0.34978 0.39921 0.0
H588 H 0.80487 0.29688 0.22338 0.0
H589 H 0.76176 0.27007 0.22665 0.0
C590 C 0.7294 0.27833 0.32043 0.0
C591 C 0.71439 0.28478 0.3739 0.0
C592 C 0.75424 0.29415 0.31534 0.0
C593 C 0.72466 0.30762 0.4203 0.0
C594 C 0.74934 0.32352 0.41502 0.0
C595 C 0.78935 0.33245 0.36104 0.0
C596 C 0.80436 0.32544 0.31146 0.0
C597 C 0.76437 0.31691 0.3636 0.0
C598 C 0.79391 0.30285 0.26249 0.0
C599 C 0.76917 0.28742 0.26429 0.0
H600 H 0.44378 0.77428 0.72988 0.0
H601 H 0.50724 0.83714 0.61835 0.0
H602 H 0.48482 0.85819 0.59929 0.0
H603 H 0.44727 0.8592 0.62036 0.0
H604 H 0.38425 0.796 0.73466 0.0
H605 H 0.40642 0.77491 0.74701 0.0
C606 C 0.45276 0.79263 0.70193 0.0
C607 C 0.47719 0.80408 0.67598 0.0
C608 C 0.43982 0.80468 0.69179 0.0
C609 C 0.48839 0.82776 0.63798 0.0
C610 C 0.47561 0.83989 0.62762 0.0
C611 C 0.43837 0.84078 0.64736 0.0
C612 C 0.4141 0.82936 0.67692 0.0
C613 C 0.45131 0.82858 0.65492 0.0
C614 C 0.40291 0.80543 0.71183 0.0
C615 C 0.41558 0.79325 0.71902 0.0
H616 H 0.2211 0.61236 0.62673 0.0
H617 H 0.27368 0.61063 0.83567 0.0
H618 H 0.29364 0.65378 0.8566 0.0
H619 H 0.29654 0.69221 0.8158 0.0
H620 H 0.24451 0.69457 0.60634 0.0
H621 H 0.22428 0.65119 0.5845 0.0
C622 C 0.23687 0.6214 0.67709 0.0
C623 C 0.24576 0.60813 0.72963 0.0
C624 C 0.24852 0.64644 0.68835 0.0
C625 C 0.26637 0.62027 0.79398 0.0
C626 C 0.27786 0.64502 0.80619 0.0
C627 C 0.28068 0.68323 0.76592 0.0
C628 C 0.27206 0.69667 0.71306 0.0
C629 C 0.26912 0.65829 0.75382 0.0
C630 C 0.2517 0.68473 0.64718 0.0
C631 C 0.24002 0.65988 0.63515 0.0
H632 H 0.46389 0.6801 0.75379 0.0
H633 H 0.47454 0.62477 0.62007 0.0
H634 H 0.43182 0.59645 0.632 0.0
H635 H 0.39129 0.5871 0.6799 0.0
H636 H 0.38025 0.64194 0.81544 0.0
H637 H 0.42304 0.67067 0.80157 0.0
C638 C 0.4569 0.66186 0.72726 0.0
C639 C 0.47261 0.6547 0.68619 0.0
C640 C 0.43213 0.6455 0.73411 0.0
C641 C 0.46306 0.63092 0.65207 0.0
C642 C 0.43854 0.61463 0.65881 0.0
C643 C 0.39823 0.60527 0.70734 0.0
C644 C 0.38244 0.61223 0.74898 0.0
C645 C 0.42291 0.62168 0.69984 0.0
C646 C 0.39183 0.63606 0.78199 0.0
C647 C 0.41638 0.6525 0.77473 0.0
H648 H 0.99779 0.17589 0.61604 0.0
H649 H 0.07146 0.20789 0.71707 0.0
H650 H 0.08469 0.21896 0.53272 0.0
H651 H 0.07518 0.21966 0.34273 0.0
H652 H 1.00135 0.18706 0.24274 0.0
H653 H 0.98827 0.17592 0.42669 0.0
C654 C 1.01672 0.18526 0.59747 0.0
C655 C 1.03364 0.19121 0.67937 0.0
C656 C 1.02415 0.1914 0.49166 0.0
C657 C 0.05813 0.20327 0.65486 0.0
C658 C 0.0657 0.20956 0.54965 0.0
C659 C 0.05625 0.21011 0.36153 0.0
C660 C 0.03925 0.20428 0.27998 0.0
C661 C 0.04886 0.20375 0.46743 0.0
C662 C 1.01476 0.19182 0.30465 0.0
C663 C 1.00726 0.18544 0.40967 0.0
H664 H 0.85545 0.84076 0.6956 0.0
H665 H 0.92541 0.90364 0.67647 0.0
H666 H 0.92158 0.90442 0.4826 0.0
H667 H 0.89841 0.88717 0.31721 0.0
H668 H 0.82834 0.82444 0.3362 0.0
H669 H 0.83216 0.82362 0.53017 0.0
C670 C 0.86981 0.85465 0.64892 0.0
C671 C 0.8907 0.8721 0.70055 0.0
C672 C 0.8675 0.85499 0.53699 0.0
C673 C 0.90915 0.88998 0.63885 0.0
C674 C 0.90699 0.89043 0.5278 0.0
C675 C 0.88402 0.8733 0.36388 0.0
C676 C 0.86311 0.85591 0.31223 0.0
C677 C 0.88629 0.873 0.47581 0.0
C678 C 0.84461 0.83808 0.37391 0.0
C679 C 0.84677 0.83759 0.48498 0.0
H680 H 0.19558 0.05762 0.66328 0.0
H681 H 0.23744 0.02533 0.75188 0.0
H682 H 0.23645 1.0125 0.56742 0.0
H683 H 0.22378 1.01096 0.38019 0.0
H684 H 0.18283 0.04419 0.29145 0.0
H685 H 0.18321 0.05634 0.47627 0.0
C686 C 0.20455 0.04789 0.64138 0.0
C687 C 0.21617 0.04189 0.71976 0.0
C688 C 0.20397 0.04079 0.53558 0.0
C689 C 0.22777 0.02933 0.69225 0.0
C690 C 0.22737 1.02222 0.58703 0.0
C691 C 0.21479 1.02065 0.40225 0.0
C692 C 0.20338 0.02689 0.32377 0.0
C693 C 0.21536 0.02771 0.5082 0.0
C694 C 0.19199 0.03965 0.3513 0.0
C695 C 0.19215 0.04648 0.45671 0.0
H696 H 0.72748 0.57037 0.70495 0.0
H697 H 0.71081 0.49883 0.62875 0.0
H698 H 0.70017 0.48662 0.81525 0.0
H699 H 0.69561 0.49655 0.00037 0.0
H700 H 0.71119 0.56781 0.07517 0.0
H701 H 0.72239 0.58015 0.88937 0.0
C702 C 0.72165 0.55219 0.73005 0.0
C703 C 0.71988 0.53543 0.65491 0.0
C704 C 0.7154 0.54536 0.83674 0.0
C705 C 0.71212 0.51186 0.68635 0.0
C706 C 0.7061 0.50493 0.79258 0.0
C707 C 0.7014 0.51472 0.97518 0.0
C708 C 0.70297 0.53144 0.05011 0.0
C709 C 0.70758 0.52152 0.86838 0.0
C710 C 0.71039 0.55491 0.01821 0.0
C711 C 0.71664 0.56188 0.91223 0.0
H712 H 0.50648 0.18144 0.71471 0.0
H713 H 0.58097 0.22617 0.63836 0.0
H714 H 0.59212 0.22535 0.82478 0.0
H715 H 0.58041 0.21156 0.00954 0.0
H716 H 0.50592 0.16698 0.0867 0.0
H717 H 0.49471 0.16798 0.90023 0.0
C718 C 0.52509 0.19112 0.73979 0.0
C719 C 0.54303 0.20363 0.66429 0.0
C720 C 0.53122 0.19049 0.84673 0.0
C721 C 0.56708 0.21605 0.69579 0.0
C722 C 0.57338 0.21567 0.80212 0.0
C723 C 0.56178 0.20201 -0.01532 0.0
C724 C 0.54389 0.18939 0.06016 0.0
C725 C 0.55561 0.20277 0.87801 0.0
C726 C 0.5198 0.17713 0.02904 0.0
C727 C 0.51346 0.17762 0.92278 0.0
H728 H 0.902 0.39454 0.63835 0.0
H729 H 0.85031 0.31935 0.66002 0.0
H730 H 0.84851 0.32267 0.85368 0.0
H731 H 0.86172 0.347 0.01812 0.0
H732 H 0.91349 0.42217 -0.00436 0.0
H733 H 0.91521 0.41879 0.80225 0.0
C734 C 0.89032 0.37889 0.6855 0.0
C735 C 0.87633 0.35672 0.63467 0.0
C736 C 0.88942 0.38092 0.79714 0.0
C737 C 0.86129 0.33663 0.69702 0.0
C738 C 0.86026 0.3385 0.80793 0.0
C739 C 0.87339 0.36261 0.97079 0.0
C740 C 0.88743 0.38482 0.02142 0.0
C741 C 0.87428 0.36055 0.85906 0.0
C742 C 0.90246 0.40487 0.95887 0.0
C743 C 0.90346 0.40297 0.84808 0.0
H744 H 0.39597 0.86886 0.37662 0.0
H745 H 0.32083 0.84568 0.35075 0.0
H746 H 0.32428 0.85028 0.15708 0.0
H747 H 0.34855 0.86078 -0.00596 0.0
H748 H 0.42373 0.88417 0.01875 0.0
H749 H 0.42036 0.8795 0.21279 0.0
C750 C 0.38039 0.86487 0.32846 0.0
C751 C 0.35816 0.8569 0.37815 0.0
C752 C 0.38248 0.86751 0.21658 0.0
C753 C 0.33814 0.85181 0.31464 0.0
C754 C 0.34008 0.85441 0.20371 0.0
C755 C 0.36418 0.8648 0.04192 0.0
C756 C 0.38637 0.87283 -0.00805 0.0
C757 C 0.36213 0.86219 0.15367 0.0
C758 C 0.40645 0.87798 0.05519 0.0
C759 C 0.40454 0.87534 0.16627 0.0
H760 H 0.19085 0.54742 0.0588 0.0
H761 H 0.22553 0.50837 0.96239 0.0
H762 H 0.23681 0.5067 0.14705 0.0
H763 H 0.23655 0.51604 0.33596 0.0
H764 H 0.20237 0.55547 0.43332 0.0
H765 H 0.19101 0.5572 0.24839 0.0
C766 C 0.20088 0.53857 0.07853 0.0
C767 C 0.2073 0.52798 -0.00227 0.0
C768 C 0.20731 0.53768 0.18484 0.0
C769 C 0.22035 0.51662 0.02366 0.0
C770 C 0.2268 0.51564 0.12909 0.0
C771 C 0.22663 0.52501 0.31648 0.0
C772 C 0.2202 0.53552 0.39752 0.0
C773 C 0.22032 0.52605 0.21029 0.0
C774 C 0.2074 0.54716 0.3718 0.0
C775 C 0.20094 0.54818 0.26625 0.0
H776 H 0.56109 0.74244 0.29762 0.0
H777 H 0.5274 0.66893 0.40041 0.0
H778 H 0.52629 0.65606 0.21646 0.0
H779 H 0.53517 0.66586 0.02622 0.0
H780 H 0.56822 0.73944 0.92438 0.0
H781 H 0.56912 0.75214 0.10795 0.0
C782 C 0.55351 0.72362 0.27951 0.0
C783 C 0.54451 0.70667 0.36178 0.0
C784 C 0.55275 0.71637 0.17386 0.0
C785 C 0.53461 0.68231 0.33789 0.0
C786 C 0.53391 0.67494 0.2329 0.0
C787 C 0.54251 0.68464 0.04455 0.0
C788 C 0.55173 0.7017 0.96263 0.0
C789 C 0.54297 0.69182 0.15026 0.0
C790 C 0.56112 0.72599 -0.01337 0.0
C791 C 0.56166 0.73328 0.09143 0.0
loop_
_geom_bond_atom_site_label_1
_geom_bond_atom_site_label_2
_geom_bond_distance
_geom_bond_site_symmetry_2
_ccdc_geom_bond_type
Sm0 C2 2.846 1_554 S
Sm0 O20 2.543 1_554 S
Sm0 O21 2.450 . S
Sm0 O22 2.681 . S
Sm0 O23 2.464 . S
Sm0 O24 2.396 . S
Sm0 O28 2.386 1_554 S
Sm0 O31 2.408 . S
Sm1 C11 2.846 1_556 S
Sm1 O22 2.386 1_656 S
Sm1 O25 2.408 1_556 S
Sm1 O26 2.543 1_556 S
Sm1 O27 2.450 . S
Sm1 O28 2.681 1_655 S
Sm1 O29 2.464 . S
Sm1 O30 2.396 1_655 S
C2 Sm0 2.846 1_556 S
C2 C3 1.506 . S
C2 O20 1.261 . S
C2 O21 1.242 1_556 S
C3 C2 1.506 . S
C3 C4 1.358 . S
C3 C8 1.382 1_556 S
C4 C3 1.358 . S
C4 C5 1.385 . S
C4 H32 0.930 . S
C5 C4 1.385 . S
C5 C6 1.395 . S
C5 H33 0.929 . S
C6 C5 1.395 . S
C6 C7 1.335 1_556 S
C7 C6 1.335 1_554 S
C7 C8 1.398 . S
C7 H34 0.930 . S
C8 C3 1.382 1_554 S
C8 C7 1.398 . S
C8 H35 0.929 . S
C9 O22 1.271 . S
C9 O23 1.251 . S
C10 O24 1.252 1_655 S
C10 O25 1.272 . S
C11 Sm1 2.846 1_554 S
C11 C12 1.506 . S
C11 O26 1.261 . S
C11 O27 1.242 1_554 S
C12 C11 1.506 . S
C12 C13 1.358 . S
C12 C17 1.382 1_554 S
C13 C12 1.358 . S
C13 C14 1.385 . S
C13 H36 0.930 . S
C14 C13 1.385 . S
C14 C15 1.395 . S
C14 H37 0.929 . S
C15 C14 1.395 . S
C15 C16 1.335 1_554 S
C16 C15 1.335 1_556 S
C16 C17 1.398 . S
C16 H38 0.930 . S
C17 C12 1.382 1_556 S
C17 C16 1.398 . S
C17 H39 0.929 . S
C18 O28 1.274 . S
C18 O29 1.245 1_455 S
C19 O30 1.252 . S
C19 O31 1.272 1_556 S
O20 Sm0 2.543 1_556 S
O20 C2 1.261 . S
O21 Sm0 2.450 . S
O21 C2 1.242 1_554 S
O22 Sm0 2.681 . S
O22 Sm1 2.386 1_454 S
O22 C9 1.271 . S
O23 Sm0 2.464 . S
O23 C9 1.251 . S
O24 Sm0 2.396 . S
O24 C10 1.252 1_455 S
O25 Sm1 2.408 1_554 S
O25 C10 1.272 . S
O26 Sm1 2.543 1_554 S
O26 C11 1.261 . S
O27 Sm1 2.450 . S
O27 C11 1.242 1_556 S
O28 Sm0 2.386 1_556 S
O28 Sm1 2.681 1_455 S
O28 C18 1.274 . S
O29 Sm1 2.464 . S
O29 C18 1.245 1_655 S
O30 Sm1 2.396 1_455 S
O30 C19 1.252 . S
O31 Sm0 2.408 . S
O31 C19 1.272 1_554 S
H32 C4 0.930 . S
H33 C5 0.929 . S
H34 C7 0.930 . S
H35 C8 0.929 . S
H36 C13 0.930 . S
H37 C14 0.929 . S
H38 C16 0.930 . S
H39 C17 0.929 . S
Sm40 C42 2.846 1_554 S
Sm40 O60 2.543 1_554 S
Sm40 O61 2.450 . S
Sm40 O62 2.681 . S
Sm40 O63 2.464 . S
Sm40 O64 2.396 . S
Sm40 O68 2.386 1_554 S
Sm40 O71 2.408 . S
Sm41 C51 2.846 1_556 S
Sm41 O62 2.386 1_556 S
Sm41 O65 2.408 1_556 S
Sm41 O66 2.543 1_556 S
Sm41 O67 2.450 . S
Sm41 O68 2.681 . S
Sm41 O69 2.464 . S
Sm41 O70 2.396 . S
C42 Sm40 2.846 1_556 S
C42 C43 1.506 . S
C42 O60 1.261 . S
C42 O61 1.242 1_556 S
C43 C42 1.506 . S
C43 C44 1.358 . S
C43 C48 1.382 1_556 S
C44 C43 1.358 . S
C44 C45 1.385 . S
C44 H72 0.930 . S
C45 C44 1.385 . S
C45 C46 1.395 . S
C45 H73 0.929 . S
C46 C45 1.395 . S
C46 C47 1.335 1_556 S
C47 C46 1.335 1_554 S
C47 C48 1.398 . S
C47 H74 0.930 . S
C48 C43 1.382 1_554 S
C48 C47 1.398 . S
C48 H75 0.929 . S
C49 O62 1.271 . S
C49 O63 1.251 . S
C50 O64 1.252 . S
C50 O65 1.272 . S
C51 Sm41 2.846 1_554 S
C51 C52 1.506 . S
C51 O66 1.261 . S
C51 O67 1.242 1_554 S
C52 C51 1.506 . S
C52 C53 1.358 . S
C52 C57 1.382 1_554 S
C53 C52 1.358 . S
C53 C54 1.385 . S
C53 H76 0.930 . S
C54 C53 1.385 . S
C54 C55 1.395 . S
C54 H77 0.929 . S
C55 C54 1.395 . S
C55 C56 1.335 1_554 S
C56 C55 1.335 1_556 S
C56 C57 1.398 . S
C56 H78 0.930 . S
C57 C52 1.382 1_556 S
C57 C56 1.398 . S
C57 H79 0.929 . S
C58 O68 1.271 . S
C58 O69 1.251 . S
C59 O70 1.252 . S
C59 O71 1.272 1_556 S
O60 Sm40 2.543 1_556 S
O60 C42 1.261 . S
O61 Sm40 2.450 . S
O61 C42 1.242 1_554 S
O62 Sm40 2.681 . S
O62 Sm41 2.386 1_554 S
O62 C49 1.271 . S
O63 Sm40 2.464 . S
O63 C49 1.251 . S
O64 Sm40 2.396 . S
O64 C50 1.252 . S
O65 Sm41 2.408 1_554 S
O65 C50 1.272 . S
O66 Sm41 2.543 1_554 S
O66 C51 1.261 . S
O67 Sm41 2.450 . S
O67 C51 1.242 1_556 S
O68 Sm40 2.386 1_556 S
O68 Sm41 2.681 . S
O68 C58 1.271 . S
O69 Sm41 2.464 . S
O69 C58 1.251 . S
O70 Sm41 2.396 . S
O70 C59 1.252 . S
O71 Sm40 2.408 . S
O71 C59 1.272 1_554 S
H72 C44 0.930 . S
H73 C45 0.929 . S
H74 C47 0.930 . S
H75 C48 0.929 . S
H76 C53 0.930 . S
H77 C54 0.929 . S
H78 C56 0.930 . S
H79 C57 0.929 . S
Sm80 C82 2.846 1_554 S
Sm80 O100 2.543 1_554 S
Sm80 O101 2.450 . S
Sm80 O102 2.681 1_565 S
Sm80 O103 2.464 . S
Sm80 O104 2.396 1_565 S
Sm80 O108 2.386 1_564 S
Sm80 O111 2.408 . S
Sm81 C91 2.846 1_556 S
Sm81 O102 2.386 1_556 S
Sm81 O105 2.408 1_556 S
Sm81 O106 2.543 1_556 S
Sm81 O107 2.450 . S
Sm81 O108 2.681 . S
Sm81 O109 2.464 . S
Sm81 O110 2.396 . S
C82 Sm80 2.846 1_556 S
C82 C83 1.506 . S
C82 O100 1.261 . S
C82 O101 1.242 1_556 S
C83 C82 1.506 . S
C83 C84 1.358 . S
C83 C88 1.382 1_556 S
C84 C83 1.358 . S
C84 C85 1.385 . S
C84 H112 0.930 . S
C85 C84 1.385 . S
C85 C86 1.395 . S
C85 H113 0.929 . S
C86 C85 1.395 . S
C86 C87 1.335 1_556 S
C87 C86 1.335 1_554 S
C87 C88 1.398 . S
C87 H114 0.930 . S
C88 C83 1.382 1_554 S
C88 C87 1.398 . S
C88 H115 0.929 . S
C89 O102 1.271 . S
C89 O103 1.251 1_545 S
C90 O104 1.252 . S
C90 O105 1.272 . S
C91 Sm81 2.846 1_554 S
C91 C92 1.506 . S
C91 O106 1.261 . S
C91 O107 1.242 1_554 S
C92 C91 1.506 . S
C92 C93 1.358 . S
C92 C97 1.382 1_554 S
C93 C92 1.358 . S
C93 C94 1.385 . S
C93 H116 0.930 . S
C94 C93 1.385 . S
C94 C95 1.395 . S
C94 H117 0.929 . S
C95 C94 1.395 . S
C95 C96 1.335 1_554 S
C96 C95 1.335 1_556 S
C96 C97 1.398 . S
C96 H118 0.930 . S
C97 C92 1.382 1_556 S
C97 C96 1.398 . S
C97 H119 0.929 . S
C98 O108 1.271 . S
C98 O109 1.251 . S
C99 O110 1.252 1_565 S
C99 O111 1.272 1_556 S
O100 Sm80 2.543 1_556 S
O100 C82 1.261 . S
O101 Sm80 2.450 . S
O101 C82 1.242 1_554 S
O102 Sm80 2.681 1_545 S
O102 Sm81 2.386 1_554 S
O102 C89 1.271 . S
O103 Sm80 2.464 . S
O103 C89 1.251 1_565 S
O104 Sm80 2.396 1_545 S
O104 C90 1.252 . S
O105 Sm81 2.408 1_554 S
O105 C90 1.272 . S
O106 Sm81 2.543 1_554 S
O106 C91 1.261 . S
O107 Sm81 2.450 . S
O107 C91 1.242 1_556 S
O108 Sm80 2.386 1_546 S
O108 Sm81 2.681 . S
O108 C98 1.271 . S
O109 Sm81 2.464 . S
O109 C98 1.251 . S
O110 Sm81 2.396 . S
O110 C99 1.252 1_545 S
O111 Sm80 2.408 . S
O111 C99 1.272 1_554 S
H112 C84 0.930 . S
H113 C85 0.929 . S
H114 C87 0.930 . S
H115 C88 0.929 . S
H116 C93 0.930 . S
H117 C94 0.929 . S
H118 C96 0.930 . S
H119 C97 0.929 . S
Sm120 C122 2.846 . S
Sm120 O140 2.543 . S
Sm120 O141 2.450 . S
Sm120 O142 2.681 . S
Sm120 O143 2.464 . S
Sm120 O144 2.396 . S
Sm120 O148 2.386 . S
Sm120 O151 2.408 . S
Sm121 C131 2.846 . S
Sm121 O142 2.386 . S
Sm121 O145 2.408 . S
Sm121 O146 2.543 . S
Sm121 O147 2.450 . S
Sm121 O148 2.681 . S
Sm121 O149 2.464 . S
Sm121 O150 2.396 . S
C122 Sm120 2.846 . S
C122 C123 1.506 . S
C122 O140 1.261 . S
C122 O141 1.242 . S
C123 C122 1.506 . S
C123 C124 1.358 . S
C123 C128 1.382 . S
C124 C123 1.358 . S
C124 C125 1.385 . S
C124 H152 0.930 . S
C125 C124 1.385 . S
C125 C126 1.395 . S
C125 H153 0.929 . S
C126 C125 1.395 . S
C126 C127 1.335 . S
C127 C126 1.335 . S
C127 C128 1.398 . S
C127 H154 0.930 . S
C128 C123 1.382 . S
C128 C127 1.398 . S
C128 H155 0.929 . S
C129 O142 1.271 . S
C129 O143 1.251 . S
C130 O144 1.252 . S
C130 O145 1.272 . S
C131 Sm121 2.846 . S
C131 C132 1.506 . S
C131 O146 1.261 . S
C131 O147 1.242 . S
C132 C131 1.506 . S
C132 C133 1.358 . S
C132 C137 1.382 . S
C133 C132 1.358 . S
C133 C134 1.385 . S
C133 H156 0.930 . S
C134 C133 1.385 . S
C134 C135 1.395 . S
C134 H157 0.929 . S
C135 C134 1.395 . S
C135 C136 1.335 . S
C136 C135 1.335 . S
C136 C137 1.398 . S
C136 H158 0.930 . S
C137 C132 1.382 . S
C137 C136 1.398 . S
C137 H159 0.929 . S
C138 O148 1.271 . S
C138 O149 1.251 . S
C139 O150 1.252 . S
C139 O151 1.272 . S
O140 Sm120 2.543 . S
O140 C122 1.261 . S
O141 Sm120 2.450 . S
O141 C122 1.242 . S
O142 Sm120 2.681 . S
O142 Sm121 2.386 . S
O142 C129 1.271 . S
O143 Sm120 2.464 . S
O143 C129 1.251 . S
O144 Sm120 2.396 . S
O144 C130 1.252 . S
O145 Sm121 2.408 . S
O145 C130 1.272 . S
O146 Sm121 2.543 . S
O146 C131 1.261 . S
O147 Sm121 2.450 . S
O147 C131 1.242 . S
O148 Sm120 2.386 . S
O148 Sm121 2.681 . S
O148 C138 1.271 . S
O149 Sm121 2.464 . S
O149 C138 1.251 . S
O150 Sm121 2.396 . S
O150 C139 1.252 . S
O151 Sm120 2.408 . S
O151 C139 1.272 . S
H152 C124 0.930 . S
H153 C125 0.929 . S
H154 C127 0.930 . S
H155 C128 0.929 . S
H156 C133 0.930 . S
H157 C134 0.929 . S
H158 C136 0.930 . S
H159 C137 0.929 . S
Sm160 C162 2.846 . S
Sm160 O180 2.543 . S
Sm160 O181 2.450 . S
Sm160 O182 2.681 . S
Sm160 O183 2.464 . S
Sm160 O184 2.396 . S
Sm160 O188 2.386 . S
Sm160 O191 2.408 . S
Sm161 C171 2.846 . S
Sm161 O182 2.386 . S
Sm161 O185 2.408 . S
Sm161 O186 2.543 . S
Sm161 O187 2.450 . S
Sm161 O188 2.681 . S
Sm161 O189 2.464 . S
Sm161 O190 2.396 . S
C162 Sm160 2.846 . S
C162 C163 1.506 . S
C162 O180 1.261 . S
C162 O181 1.242 . S
C163 C162 1.506 . S
C163 C164 1.358 . S
C163 C168 1.382 . S
C164 C163 1.358 . S
C164 C165 1.385 . S
C164 H192 0.930 . S
C165 C164 1.385 . S
C165 C166 1.395 . S
C165 H193 0.929 . S
C166 C165 1.395 . S
C166 C167 1.335 . S
C167 C166 1.335 . S
C167 C168 1.398 . S
C167 H194 0.930 . S
C168 C163 1.382 . S
C168 C167 1.398 . S
C168 H195 0.929 . S
C169 O182 1.271 . S
C169 O183 1.251 . S
C170 O184 1.252 . S
C170 O185 1.272 . S
C171 Sm161 2.846 . S
C171 C172 1.506 . S
C171 O186 1.261 . S
C171 O187 1.242 . S
C172 C171 1.506 . S
C172 C173 1.358 . S
C172 C177 1.382 . S
C173 C172 1.358 . S
C173 C174 1.385 . S
C173 H196 0.930 . S
C174 C173 1.385 . S
C174 C175 1.395 . S
C174 H197 0.929 . S
C175 C174 1.395 . S
C175 C176 1.335 . S
C176 C175 1.335 . S
C176 C177 1.398 . S
C176 H198 0.930 . S
C177 C172 1.382 . S
C177 C176 1.398 . S
C177 H199 0.929 . S
C178 O188 1.271 . S
C178 O189 1.251 . S
C179 O190 1.252 . S
C179 O191 1.272 . S
O180 Sm160 2.543 . S
O180 C162 1.261 . S
O181 Sm160 2.450 . S
O181 C162 1.242 . S
O182 Sm160 2.681 . S
O182 Sm161 2.386 . S
O182 C169 1.271 . S
O183 Sm160 2.464 . S
O183 C169 1.251 . S
O184 Sm160 2.396 . S
O184 C170 1.252 . S
O185 Sm161 2.408 . S
O185 C170 1.272 . S
O186 Sm161 2.543 . S
O186 C171 1.261 . S
O187 Sm161 2.450 . S
O187 C171 1.242 . S
O188 Sm160 2.386 . S
O188 Sm161 2.681 . S
O188 C178 1.271 . S
O189 Sm161 2.464 . S
O189 C178 1.251 . S
O190 Sm161 2.396 . S
O190 C179 1.252 . S
O191 Sm160 2.408 . S
O191 C179 1.272 . S
H192 C164 0.930 . S
H193 C165 0.929 . S
H194 C167 0.930 . S
H195 C168 0.929 . S
H196 C173 0.930 . S
H197 C174 0.929 . S
H198 C176 0.930 . S
H199 C177 0.929 . S
Sm200 C202 2.846 . S
Sm200 O220 2.543 . S
Sm200 O221 2.450 . S
Sm200 O222 2.681 . S
Sm200 O223 2.464 . S
Sm200 O224 2.396 . S
Sm200 O228 2.386 . S
Sm200 O231 2.408 . S
Sm201 C211 2.846 . S
Sm201 O222 2.386 . S
Sm201 O225 2.408 . S
Sm201 O226 2.543 . S
Sm201 O227 2.450 . S
Sm201 O228 2.681 . S
Sm201 O229 2.464 . S
Sm201 O230 2.396 . S
C202 Sm200 2.846 . S
C202 C203 1.506 . S
C202 O220 1.261 . S
C202 O221 1.242 . S
C203 C202 1.506 . S
C203 C204 1.358 . S
C203 C208 1.382 . S
C204 C203 1.358 . S
C204 C205 1.385 . S
C204 H232 0.930 . S
C205 C204 1.385 . S
C205 C206 1.395 . S
C205 H233 0.929 . S
C206 C205 1.395 . S
C206 C207 1.335 . S
C207 C206 1.335 . S
C207 C208 1.398 . S
C207 H234 0.930 . S
C208 C203 1.382 . S
C208 C207 1.398 . S
C208 H235 0.929 . S
C209 O222 1.271 . S
C209 O223 1.251 . S
C210 O224 1.252 . S
C210 O225 1.272 . S
C211 Sm201 2.846 . S
C211 C212 1.506 . S
C211 O226 1.261 . S
C211 O227 1.242 . S
C212 C211 1.506 . S
C212 C213 1.358 . S
C212 C217 1.382 . S
C213 C212 1.358 . S
C213 C214 1.385 . S
C213 H236 0.930 . S
C214 C213 1.385 . S
C214 C215 1.395 . S
C214 H237 0.929 . S
C215 C214 1.395 . S
C215 C216 1.335 . S
C216 C215 1.335 . S
C216 C217 1.398 . S
C216 H238 0.930 . S
C217 C212 1.382 . S
C217 C216 1.398 . S
C217 H239 0.929 . S
C218 O228 1.271 . S
C218 O229 1.251 . S
C219 O230 1.252 . S
C219 O231 1.272 . S
O220 Sm200 2.543 . S
O220 C202 1.261 . S
O221 Sm200 2.450 . S
O221 C202 1.242 . S
O222 Sm200 2.681 . S
O222 Sm201 2.386 . S
O222 C209 1.271 . S
O223 Sm200 2.464 . S
O223 C209 1.251 . S
O224 Sm200 2.396 . S
O224 C210 1.252 . S
O225 Sm201 2.408 . S
O225 C210 1.272 . S
O226 Sm201 2.543 . S
O226 C211 1.261 . S
O227 Sm201 2.450 . S
O227 C211 1.242 . S
O228 Sm200 2.386 . S
O228 Sm201 2.681 . S
O228 C218 1.271 . S
O229 Sm201 2.464 . S
O229 C218 1.251 . S
O230 Sm201 2.396 . S
O230 C219 1.252 . S
O231 Sm200 2.408 . S
O231 C219 1.272 . S
H232 C204 0.930 . S
H233 C205 0.929 . S
H234 C207 0.930 . S
H235 C208 0.929 . S
H236 C213 0.930 . S
H237 C214 0.929 . S
H238 C216 0.930 . S
H239 C217 0.929 . S
Sm240 C242 2.846 . S
Sm240 O260 2.543 . S
Sm240 O261 2.450 . S
Sm240 O262 2.681 . S
Sm240 O263 2.464 . S
Sm240 O264 2.396 . S
Sm240 O268 2.386 . S
Sm240 O271 2.408 . S
Sm241 C251 2.846 . S
Sm241 O262 2.386 . S
Sm241 O265 2.408 . S
Sm241 O266 2.543 . S
Sm241 O267 2.450 . S
Sm241 O268 2.681 . S
Sm241 O269 2.464 . S
Sm241 O270 2.396 . S
C242 Sm240 2.846 . S
C242 C243 1.506 . S
C242 O260 1.261 . S
C242 O261 1.242 . S
C243 C242 1.506 . S
C243 C244 1.358 . S
C243 C248 1.382 . S
C244 C243 1.358 . S
C244 C245 1.385 . S
C244 H272 0.930 . S
C245 C244 1.385 . S
C245 C246 1.395 . S
C245 H273 0.929 . S
C246 C245 1.395 . S
C246 C247 1.335 . S
C247 C246 1.335 . S
C247 C248 1.398 . S
C247 H274 0.930 . S
C248 C243 1.382 . S
C248 C247 1.398 . S
C248 H275 0.929 . S
C249 O262 1.271 . S
C249 O263 1.251 . S
C250 O264 1.252 . S
C250 O265 1.272 . S
C251 Sm241 2.846 . S
C251 C252 1.506 . S
C251 O266 1.261 . S
C251 O267 1.242 . S
C252 C251 1.506 . S
C252 C253 1.358 . S
C252 C257 1.382 . S
C253 C252 1.358 . S
C253 C254 1.385 . S
C253 H276 0.930 . S
C254 C253 1.385 . S
C254 C255 1.395 . S
C254 H277 0.929 . S
C255 C254 1.395 . S
C255 C256 1.335 . S
C256 C255 1.335 . S
C256 C257 1.398 . S
C256 H278 0.930 . S
C257 C252 1.382 . S
C257 C256 1.398 . S
C257 H279 0.929 . S
C258 O268 1.271 . S
C258 O269 1.251 . S
C259 O270 1.252 . S
C259 O271 1.272 . S
O260 Sm240 2.543 . S
O260 C242 1.261 . S
O261 Sm240 2.450 . S
O261 C242 1.242 . S
O262 Sm240 2.681 . S
O262 Sm241 2.386 . S
O262 C249 1.271 . S
O263 Sm240 2.464 . S
O263 C249 1.251 . S
O264 Sm240 2.396 . S
O264 C250 1.252 . S
O265 Sm241 2.408 . S
O265 C250 1.272 . S
O266 Sm241 2.543 . S
O266 C251 1.261 . S
O267 Sm241 2.450 . S
O267 C251 1.242 . S
O268 Sm240 2.386 . S
O268 Sm241 2.681 . S
O268 C258 1.271 . S
O269 Sm241 2.464 . S
O269 C258 1.251 . S
O270 Sm241 2.396 . S
O270 C259 1.252 . S
O271 Sm240 2.408 . S
O271 C259 1.272 . S
H272 C244 0.930 . S
H273 C245 0.929 . S
H274 C247 0.930 . S
H275 C248 0.929 . S
H276 C253 0.930 . S
H277 C254 0.929 . S
H278 C256 0.930 . S
H279 C257 0.929 . S
Sm280 C282 2.846 . S
Sm280 O300 2.543 . S
Sm280 O301 2.450 . S
Sm280 O302 2.681 . S
Sm280 O303 2.464 . S
Sm280 O304 2.396 . S
Sm280 O308 2.386 . S
Sm280 O311 2.408 . S
Sm281 C291 2.846 . S
Sm281 O302 2.386 . S
Sm281 O305 2.408 . S
Sm281 O306 2.543 . S
Sm281 O307 2.450 . S
Sm281 O308 2.681 . S
Sm281 O309 2.464 . S
Sm281 O310 2.396 . S
C282 Sm280 2.846 . S
C282 C283 1.506 . S
C282 O300 1.261 . S
C282 O301 1.242 . S
C283 C282 1.506 . S
C283 C284 1.358 . S
C283 C288 1.382 . S
C284 C283 1.358 . S
C284 C285 1.385 . S
C284 H312 0.930 . S
C285 C284 1.385 . S
C285 C286 1.395 . S
C285 H313 0.929 . S
C286 C285 1.395 . S
C286 C287 1.335 . S
C287 C286 1.335 . S
C287 C288 1.398 . S
C287 H314 0.930 . S
C288 C283 1.382 . S
C288 C287 1.398 . S
C288 H315 0.929 . S
C289 O302 1.271 . S
C289 O303 1.251 . S
C290 O304 1.252 . S
C290 O305 1.272 . S
C291 Sm281 2.846 . S
C291 C292 1.506 . S
C291 O306 1.261 . S
C291 O307 1.242 . S
C292 C291 1.506 . S
C292 C293 1.358 . S
C292 C297 1.382 . S
C293 C292 1.358 . S
C293 C294 1.385 . S
C293 H316 0.930 . S
C294 C293 1.385 . S
C294 C295 1.395 . S
C294 H317 0.929 . S
C295 C294 1.395 . S
C295 C296 1.335 . S
C296 C295 1.335 . S
C296 C297 1.398 . S
C296 H318 0.930 . S
C297 C292 1.382 . S
C297 C296 1.398 . S
C297 H319 0.929 . S
C298 O308 1.271 . S
C298 O309 1.251 . S
C299 O310 1.252 . S
C299 O311 1.272 . S
O300 Sm280 2.543 . S
O300 C282 1.261 . S
O301 Sm280 2.450 . S
O301 C282 1.242 . S
O302 Sm280 2.681 . S
O302 Sm281 2.386 . S
O302 C289 1.271 . S
O303 Sm280 2.464 . S
O303 C289 1.251 . S
O304 Sm280 2.396 . S
O304 C290 1.252 . S
O305 Sm281 2.408 . S
O305 C290 1.272 . S
O306 Sm281 2.543 . S
O306 C291 1.261 . S
O307 Sm281 2.450 . S
O307 C291 1.242 . S
O308 Sm280 2.386 . S
O308 Sm281 2.681 . S
O308 C298 1.271 . S
O309 Sm281 2.464 . S
O309 C298 1.251 . S
O310 Sm281 2.396 . S
O310 C299 1.252 . S
O311 Sm280 2.408 . S
O311 C299 1.272 . S
H312 C284 0.930 . S
H313 C285 0.929 . S
H314 C287 0.930 . S
H315 C288 0.929 . S
H316 C293 0.930 . S
H317 C294 0.929 . S
H318 C296 0.930 . S
H319 C297 0.929 . S
Sm320 C322 2.846 . S
Sm320 O340 2.543 . S
Sm320 O341 2.450 . S
Sm320 O342 2.681 . S
Sm320 O343 2.464 . S
Sm320 O344 2.396 . S
Sm320 O348 2.386 . S
Sm320 O351 2.408 . S
Sm321 C331 2.846 . S
Sm321 O342 2.386 . S
Sm321 O345 2.408 . S
Sm321 O346 2.543 . S
Sm321 O347 2.450 . S
Sm321 O348 2.681 . S
Sm321 O349 2.464 . S
Sm321 O350 2.396 . S
C322 Sm320 2.846 . S
C322 C323 1.506 . S
C322 O340 1.261 . S
C322 O341 1.242 . S
C323 C322 1.506 . S
C323 C324 1.358 . S
C323 C328 1.382 . S
C324 C323 1.358 . S
C324 C325 1.385 . S
C324 H352 0.930 . S
C325 C324 1.385 . S
C325 C326 1.395 . S
C325 H353 0.929 . S
C326 C325 1.395 . S
C326 C327 1.335 . S
C327 C326 1.335 . S
C327 C328 1.398 . S
C327 H354 0.930 . S
C328 C323 1.382 . S
C328 C327 1.398 . S
C328 H355 0.929 . S
C329 O342 1.271 . S
C329 O343 1.251 . S
C330 O344 1.252 . S
C330 O345 1.272 . S
C331 Sm321 2.846 . S
C331 C332 1.506 . S
C331 O346 1.261 . S
C331 O347 1.242 . S
C332 C331 1.506 . S
C332 C333 1.358 . S
C332 C337 1.382 . S
C333 C332 1.358 . S
C333 C334 1.385 . S
C333 H356 0.930 . S
C334 C333 1.385 . S
C334 C335 1.395 . S
C334 H357 0.929 . S
C335 C334 1.395 . S
C335 C336 1.335 . S
C336 C335 1.335 . S
C336 C337 1.398 . S
C336 H358 0.930 . S
C337 C332 1.382 . S
C337 C336 1.398 . S
C337 H359 0.929 . S
C338 O348 1.271 . S
C338 O349 1.251 . S
C339 O350 1.252 . S
C339 O351 1.272 . S
O340 Sm320 2.543 . S
O340 C322 1.261 . S
O341 Sm320 2.450 . S
O341 C322 1.242 . S
O342 Sm320 2.681 . S
O342 Sm321 2.386 . S
O342 C329 1.271 . S
O343 Sm320 2.464 . S
O343 C329 1.251 . S
O344 Sm320 2.396 . S
O344 C330 1.252 . S
O345 Sm321 2.408 . S
O345 C330 1.272 . S
O346 Sm321 2.543 . S
O346 C331 1.261 . S
O347 Sm321 2.450 . S
O347 C331 1.242 . S
O348 Sm320 2.386 . S
O348 Sm321 2.681 . S
O348 C338 1.271 . S
O349 Sm321 2.464 . S
O349 C338 1.251 . S
O350 Sm321 2.396 . S
O350 C339 1.252 . S
O351 Sm320 2.408 . S
O351 C339 1.272 . S
H352 C324 0.930 . S
H353 C325 0.929 . S
H354 C327 0.930 . S
H355 C328 0.929 . S
H356 C333 0.930 . S
H357 C334 0.929 . S
H358 C336 0.930 . S
H359 C337 0.929 . S
H360 C366 0.930 . S
H361 C369 0.930 . S
H362 C370 0.930 . S
H363 C371 0.930 . S
H364 C374 0.930 . S
H365 C375 0.930 . S
C366 H360 0.930 . S
C366 C367 1.355 . S
C366 C368 1.415 . S
C367 C366 1.355 . S
C367 C369 1.419 . S
C368 C366 1.415 . S
C368 C373 1.425 . S
C368 C375 1.409 . S
C369 H361 0.930 . S
C369 C367 1.419 . S
C369 C370 1.362 . S
C370 H362 0.930 . S
C370 C369 1.362 . S
C370 C373 1.409 . S
C371 H363 0.930 . S
C371 C372 1.355 . S
C371 C373 1.415 . S
C372 C371 1.355 . S
C372 C374 1.419 . S
C373 C368 1.425 . S
C373 C370 1.409 . S
C373 C371 1.415 . S
C374 H364 0.930 . S
C374 C372 1.419 . S
C374 C375 1.362 . S
C375 H365 0.930 . S
C375 C368 1.409 . S
C375 C374 1.362 . S
H376 C382 0.930 . S
H377 C385 0.930 . S
H378 C386 0.930 . S
H379 C387 0.930 . S
H380 C390 0.930 . S
H381 C391 0.930 . S
C382 H376 0.930 . S
C382 C383 1.355 . S
C382 C384 1.415 . S
C383 C382 1.355 . S
C383 C385 1.419 . S
C384 C382 1.415 . S
C384 C389 1.425 . S
C384 C391 1.409 . S
C385 H377 0.930 . S
C385 C383 1.419 . S
C385 C386 1.362 . S
C386 H378 0.930 . S
C386 C385 1.362 . S
C386 C389 1.409 . S
C387 H379 0.930 . S
C387 C388 1.355 . S
C387 C389 1.415 . S
C388 C387 1.355 . S
C388 C390 1.419 . S
C389 C384 1.425 . S
C389 C386 1.409 . S
C389 C387 1.415 . S
C390 H380 0.930 . S
C390 C388 1.419 . S
C390 C391 1.362 . S
C391 H381 0.930 . S
C391 C384 1.409 . S
C391 C390 1.362 . S
H392 C398 0.930 . S
H393 C401 0.930 . S
H394 C402 0.930 . S
H395 C403 0.930 . S
H396 C406 0.930 . S
H397 C407 0.930 . S
C398 H392 0.930 . S
C398 C399 1.355 . S
C398 C400 1.415 . S
C399 C398 1.355 . S
C399 C401 1.419 . S
C400 C398 1.415 . S
C400 C405 1.425 . S
C400 C407 1.409 . S
C401 H393 0.930 . S
C401 C399 1.419 . S
C401 C402 1.362 . S
C402 H394 0.930 . S
C402 C401 1.362 . S
C402 C405 1.409 . S
C403 H395 0.930 . S
C403 C404 1.355 . S
C403 C405 1.415 . S
C404 C403 1.355 . S
C404 C406 1.419 . S
C405 C400 1.425 . S
C405 C402 1.409 . S
C405 C403 1.415 . S
C406 H396 0.930 . S
C406 C404 1.419 . S
C406 C407 1.362 . S
C407 H397 0.930 . S
C407 C400 1.409 . S
C407 C406 1.362 . S
H408 C414 0.930 . S
H409 C417 0.930 . S
H410 C418 0.930 . S
H411 C419 0.930 1_556 S
H412 C422 0.930 . S
H413 C423 0.930 . S
C414 H408 0.930 . S
C414 C415 1.355 . S
C414 C416 1.415 . S
C415 C414 1.355 . S
C415 C417 1.419 . S
C416 C414 1.415 . S
C416 C421 1.425 . S
C416 C423 1.409 . S
C417 H409 0.930 . S
C417 C415 1.419 . S
C417 C418 1.362 . S
C418 H410 0.930 . S
C418 C417 1.362 . S
C418 C421 1.409 . S
C419 H411 0.930 1_554 S
C419 C420 1.355 . S
C419 C421 1.415 . S
C420 C419 1.355 . S
C420 C422 1.419 . S
C421 C416 1.425 . S
C421 C418 1.409 . S
C421 C419 1.415 . S
C422 H412 0.930 . S
C422 C420 1.419 . S
C422 C423 1.362 . S
C423 H413 0.930 . S
C423 C416 1.409 . S
C423 C422 1.362 . S
H424 C430 0.930 . S
H425 C433 0.930 . S
H426 C434 0.930 . S
H427 C435 0.930 . S
H428 C438 0.930 . S
H429 C439 0.930 . S
C430 H424 0.930 . S
C430 C431 1.355 . S
C430 C432 1.415 . S
C431 C430 1.355 . S
C431 C433 1.419 . S
C432 C430 1.415 . S
C432 C437 1.425 . S
C432 C439 1.409 . S
C433 H425 0.930 . S
C433 C431 1.419 . S
C433 C434 1.362 . S
C434 H426 0.930 . S
C434 C433 1.362 . S
C434 C437 1.409 . S
C435 H427 0.930 . S
C435 C436 1.355 . S
C435 C437 1.415 . S
C436 C435 1.355 . S
C436 C438 1.419 . S
C437 C432 1.425 . S
C437 C434 1.409 . S
C437 C435 1.415 . S
C438 H428 0.930 . S
C438 C436 1.419 . S
C438 C439 1.362 . S
C439 H429 0.930 . S
C439 C432 1.409 . S
C439 C438 1.362 . S
H440 C446 0.930 . S
H441 C449 0.930 . S
H442 C450 0.930 1_556 S
H443 C451 0.930 . S
H444 C454 0.930 . S
H445 C455 0.930 . S
C446 H440 0.930 . S
C446 C447 1.355 . S
C446 C448 1.415 . S
C447 C446 1.355 . S
C447 C449 1.419 1_554 S
C448 C446 1.415 . S
C448 C453 1.425 . S
C448 C455 1.409 . S
C449 H441 0.930 . S
C449 C447 1.419 1_556 S
C449 C450 1.362 1_556 S
C450 H442 0.930 1_554 S
C450 C449 1.362 1_554 S
C450 C453 1.409 . S
C451 H443 0.930 . S
C451 C452 1.355 . S
C451 C453 1.415 . S
C452 C451 1.355 . S
C452 C454 1.419 . S
C453 C448 1.425 . S
C453 C450 1.409 . S
C453 C451 1.415 . S
C454 H444 0.930 . S
C454 C452 1.419 . S
C454 C455 1.362 . S
C455 H445 0.930 . S
C455 C448 1.409 . S
C455 C454 1.362 . S
H456 C462 0.930 . S
H457 C465 0.930 1_455 S
H458 C466 0.930 . S
H459 C467 0.930 . S
H460 C470 0.930 . S
H461 C471 0.930 . S
C462 H456 0.930 . S
C462 C463 1.355 . S
C462 C464 1.415 . S
C463 C462 1.355 . S
C463 C465 1.419 . S
C464 C462 1.415 . S
C464 C469 1.425 . S
C464 C471 1.409 . S
C465 H457 0.930 1_655 S
C465 C463 1.419 . S
C465 C466 1.362 . S
C466 H458 0.930 . S
C466 C465 1.362 . S
C466 C469 1.409 . S
C467 H459 0.930 . S
C467 C468 1.355 . S
C467 C469 1.415 . S
C468 C467 1.355 . S
C468 C470 1.419 . S
C469 C464 1.425 . S
C469 C466 1.409 . S
C469 C467 1.415 . S
C470 H460 0.930 . S
C470 C468 1.419 . S
C470 C471 1.362 . S
C471 H461 0.930 . S
C471 C464 1.409 . S
C471 C470 1.362 . S
H472 C478 0.930 . S
H473 C481 0.930 . S
H474 C482 0.930 . S
H475 C483 0.930 . S
H476 C486 0.930 . S
H477 C487 0.930 . S
C478 H472 0.930 . S
C478 C479 1.355 . S
C478 C480 1.415 . S
C479 C478 1.355 . S
C479 C481 1.419 . S
C480 C478 1.415 . S
C480 C485 1.425 . S
C480 C487 1.409 . S
C481 H473 0.930 . S
C481 C479 1.419 . S
C481 C482 1.362 . S
C482 H474 0.930 . S
C482 C481 1.362 . S
C482 C485 1.409 . S
C483 H475 0.930 . S
C483 C484 1.355 . S
C483 C485 1.415 . S
C484 C483 1.355 . S
C484 C486 1.419 . S
C485 C480 1.425 . S
C485 C482 1.409 . S
C485 C483 1.415 . S
C486 H476 0.930 . S
C486 C484 1.419 . S
C486 C487 1.362 . S
C487 H477 0.930 . S
C487 C480 1.409 . S
C487 C486 1.362 . S
H488 C494 0.930 . S
H489 C497 0.930 . S
H490 C498 0.930 . S
H491 C499 0.930 . S
H492 C502 0.930 . S
H493 C503 0.930 . S
C494 H488 0.930 . S
C494 C495 1.355 . S
C494 C496 1.415 . S
C495 C494 1.355 . S
C495 C497 1.419 . S
C496 C494 1.415 . S
C496 C501 1.425 . S
C496 C503 1.409 . S
C497 H489 0.930 . S
C497 C495 1.419 . S
C497 C498 1.362 . S
C498 H490 0.930 . S
C498 C497 1.362 . S
C498 C501 1.409 . S
C499 H491 0.930 . S
C499 C500 1.355 . S
C499 C501 1.415 . S
C500 C499 1.355 . S
C500 C502 1.419 . S
C501 C496 1.425 . S
C501 C498 1.409 . S
C501 C499 1.415 . S
C502 H492 0.930 . S
C502 C500 1.419 . S
C502 C503 1.362 . S
C503 H493 0.930 . S
C503 C496 1.409 . S
C503 C502 1.362 . S
H504 C510 0.930 . S
H505 C513 0.930 . S
H506 C514 0.930 . S
H507 C515 0.930 . S
H508 C518 0.930 . S
H509 C519 0.930 . S
C510 H504 0.930 . S
C510 C511 1.355 . S
C510 C512 1.415 . S
C511 C510 1.355 . S
C511 C513 1.419 . S
C512 C510 1.415 . S
C512 C517 1.425 . S
C512 C519 1.409 . S
C513 H505 0.930 . S
C513 C511 1.419 . S
C513 C514 1.362 . S
C514 H506 0.930 . S
C514 C513 1.362 . S
C514 C517 1.409 . S
C515 H507 0.930 . S
C515 C516 1.355 . S
C515 C517 1.415 . S
C516 C515 1.355 . S
C516 C518 1.419 . S
C517 C512 1.425 . S
C517 C514 1.409 . S
C517 C515 1.415 . S
C518 H508 0.930 . S
C518 C516 1.419 . S
C518 C519 1.362 . S
C519 H509 0.930 . S
C519 C512 1.409 . S
C519 C518 1.362 . S
H520 C526 0.930 . S
H521 C529 0.930 . S
H522 C530 0.930 . S
H523 C531 0.930 . S
H524 C534 0.930 1_545 S
H525 C535 0.930 . S
C526 H520 0.930 . S
C526 C527 1.355 1_556 S
C526 C528 1.415 . S
C527 C526 1.355 1_554 S
C527 C529 1.419 . S
C528 C526 1.415 . S
C528 C533 1.425 1_556 S
C528 C535 1.409 . S
C529 H521 0.930 . S
C529 C527 1.419 . S
C529 C530 1.362 . S
C530 H522 0.930 . S
C530 C529 1.362 . S
C530 C533 1.409 . S
C531 H523 0.930 . S
C531 C532 1.355 1_565 S
C531 C533 1.415 . S
C532 C531 1.355 1_545 S
C532 C534 1.419 1_544 S
C533 C528 1.425 1_554 S
C533 C530 1.409 . S
C533 C531 1.415 . S
C534 H524 0.930 1_565 S
C534 C532 1.419 1_566 S
C534 C535 1.362 . S
C535 H525 0.930 . S
C535 C528 1.409 . S
C535 C534 1.362 . S
H536 C542 0.930 . S
H537 C545 0.930 . S
H538 C546 0.930 . S
H539 C547 0.930 . S
H540 C550 0.930 . S
H541 C551 0.930 . S
C542 H536 0.930 . S
C542 C543 1.355 1_556 S
C542 C544 1.415 . S
C543 C542 1.355 1_554 S
C543 C545 1.419 . S
C544 C542 1.415 . S
C544 C549 1.425 1_556 S
C544 C551 1.409 . S
C545 H537 0.930 . S
C545 C543 1.419 . S
C545 C546 1.362 . S
C546 H538 0.930 . S
C546 C545 1.362 . S
C546 C549 1.409 . S
C547 H539 0.930 . S
C547 C548 1.355 . S
C547 C549 1.415 . S
C548 C547 1.355 . S
C548 C550 1.419 1_554 S
C549 C544 1.425 1_554 S
C549 C546 1.409 . S
C549 C547 1.415 . S
C550 H540 0.930 . S
C550 C548 1.419 1_556 S
C550 C551 1.362 . S
C551 H541 0.930 . S
C551 C544 1.409 . S
C551 C550 1.362 . S
H552 C558 0.930 . S
H553 C561 0.930 . S
H554 C562 0.930 . S
H555 C563 0.930 . S
H556 C566 0.930 . S
H557 C567 0.930 . S
C558 H552 0.930 . S
C558 C559 1.355 . S
C558 C560 1.415 . S
C559 C558 1.355 . S
C559 C561 1.419 . S
C560 C558 1.415 . S
C560 C565 1.425 . S
C560 C567 1.409 . S
C561 H553 0.930 . S
C561 C559 1.419 . S
C561 C562 1.362 . S
C562 H554 0.930 . S
C562 C561 1.362 . S
C562 C565 1.409 . S
C563 H555 0.930 . S
C563 C564 1.355 . S
C563 C565 1.415 . S
C564 C563 1.355 . S
C564 C566 1.419 . S
C565 C560 1.425 . S
C565 C562 1.409 . S
C565 C563 1.415 . S
C566 H556 0.930 . S
C566 C564 1.419 . S
C566 C567 1.362 . S
C567 H557 0.930 . S
C567 C560 1.409 . S
C567 C566 1.362 . S
H568 C574 0.930 . S
H569 C577 0.930 . S
H570 C578 0.930 . S
H571 C579 0.930 . S
H572 C582 0.930 . S
H573 C583 0.930 . S
C574 H568 0.930 . S
C574 C575 1.355 . S
C574 C576 1.415 . S
C575 C574 1.355 . S
C575 C577 1.419 . S
C576 C574 1.415 . S
C576 C581 1.425 . S
C576 C583 1.409 . S
C577 H569 0.930 . S
C577 C575 1.419 . S
C577 C578 1.362 . S
C578 H570 0.930 . S
C578 C577 1.362 . S
C578 C581 1.409 . S
C579 H571 0.930 . S
C579 C580 1.355 . S
C579 C581 1.415 . S
C580 C579 1.355 . S
C580 C582 1.419 . S
C581 C576 1.425 . S
C581 C578 1.409 . S
C581 C579 1.415 . S
C582 H572 0.930 . S
C582 C580 1.419 . S
C582 C583 1.362 . S
C583 H573 0.930 . S
C583 C576 1.409 . S
C583 C582 1.362 . S
H584 C590 0.930 . S
H585 C593 0.930 . S
H586 C594 0.930 . S
H587 C595 0.930 . S
H588 C598 0.930 . S
H589 C599 0.930 . S
C590 H584 0.930 . S
C590 C591 1.355 . S
C590 C592 1.415 . S
C591 C590 1.355 . S
C591 C593 1.419 . S
C592 C590 1.415 . S
C592 C597 1.425 . S
C592 C599 1.409 . S
C593 H585 0.930 . S
C593 C591 1.419 . S
C593 C594 1.362 . S
C594 H586 0.930 . S
C594 C593 1.362 . S
C594 C597 1.409 . S
C595 H587 0.930 . S
C595 C596 1.355 . S
C595 C597 1.415 . S
C596 C595 1.355 . S
C596 C598 1.419 . S
C597 C592 1.425 . S
C597 C594 1.409 . S
C597 C595 1.415 . S
C598 H588 0.930 . S
C598 C596 1.419 . S
C598 C599 1.362 . S
C599 H589 0.930 . S
C599 C592 1.409 . S
C599 C598 1.362 . S
H600 C606 0.930 . S
H601 C609 0.930 . S
H602 C610 0.930 . S
H603 C611 0.930 . S
H604 C614 0.930 . S
H605 C615 0.930 . S
C606 H600 0.930 . S
C606 C607 1.355 . S
C606 C608 1.415 . S
C607 C606 1.355 . S
C607 C609 1.419 . S
C608 C606 1.415 . S
C608 C613 1.425 . S
C608 C615 1.409 . S
C609 H601 0.930 . S
C609 C607 1.419 . S
C609 C610 1.362 . S
C610 H602 0.930 . S
C610 C609 1.362 . S
C610 C613 1.409 . S
C611 H603 0.930 . S
C611 C612 1.355 . S
C611 C613 1.415 . S
C612 C611 1.355 . S
C612 C614 1.419 . S
C613 C608 1.425 . S
C613 C610 1.409 . S
C613 C611 1.415 . S
C614 H604 0.930 . S
C614 C612 1.419 . S
C614 C615 1.362 . S
C615 H605 0.930 . S
C615 C608 1.409 . S
C615 C614 1.362 . S
H616 C622 0.930 . S
H617 C625 0.930 . S
H618 C626 0.930 . S
H619 C627 0.930 . S
H620 C630 0.930 . S
H621 C631 0.930 . S
C622 H616 0.930 . S
C622 C623 1.355 . S
C622 C624 1.415 . S
C623 C622 1.355 . S
C623 C625 1.419 . S
C624 C622 1.415 . S
C624 C629 1.425 . S
C624 C631 1.409 . S
C625 H617 0.930 . S
C625 C623 1.419 . S
C625 C626 1.362 . S
C626 H618 0.930 . S
C626 C625 1.362 . S
C626 C629 1.409 . S
C627 H619 0.930 . S
C627 C628 1.355 . S
C627 C629 1.415 . S
C628 C627 1.355 . S
C628 C630 1.419 . S
C629 C624 1.425 . S
C629 C626 1.409 . S
C629 C627 1.415 . S
C630 H620 0.930 . S
C630 C628 1.419 . S
C630 C631 1.362 . S
C631 H621 0.930 . S
C631 C624 1.409 . S
C631 C630 1.362 . S
H632 C638 0.930 . S
H633 C641 0.930 . S
H634 C642 0.930 . S
H635 C643 0.930 . S
H636 C646 0.930 . S
H637 C647 0.930 . S
C638 H632 0.930 . S
C638 C639 1.355 . S
C638 C640 1.415 . S
C639 C638 1.355 . S
C639 C641 1.419 . S
C640 C638 1.415 . S
C640 C645 1.425 . S
C640 C647 1.409 . S
C641 H633 0.930 . S
C641 C639 1.419 . S
C641 C642 1.362 . S
C642 H634 0.930 . S
C642 C641 1.362 . S
C642 C645 1.409 . S
C643 H635 0.930 . S
C643 C644 1.355 . S
C643 C645 1.415 . S
C644 C643 1.355 . S
C644 C646 1.419 . S
C645 C640 1.425 . S
C645 C642 1.409 . S
C645 C643 1.415 . S
C646 H636 0.930 . S
C646 C644 1.419 . S
C646 C647 1.362 . S
C647 H637 0.930 . S
C647 C640 1.409 . S
C647 C646 1.362 . S
H648 C654 0.934 1_655 S
H649 C657 0.930 . S
H650 C658 0.930 . S
H651 C659 0.930 . S
H652 C662 0.930 1_655 S
H653 C663 0.930 . S
C654 H648 0.934 1_455 S
C654 C655 1.351 . S
C654 C656 1.413 . S
C655 C654 1.351 . S
C655 C657 1.419 . S
C656 C654 1.413 . S
C656 C661 1.425 . S
C656 C663 1.409 1_455 S
C657 H649 0.930 . S
C657 C655 1.419 . S
C657 C658 1.362 . S
C658 H650 0.930 . S
C658 C657 1.362 . S
C658 C661 1.409 . S
C659 H651 0.930 . S
C659 C660 1.355 . S
C659 C661 1.415 . S
C660 C659 1.355 . S
C660 C662 1.419 . S
C661 C656 1.425 . S
C661 C658 1.409 . S
C661 C659 1.415 . S
C662 H652 0.930 1_455 S
C662 C660 1.419 . S
C662 C663 1.362 1_455 S
C663 H653 0.930 . S
C663 C656 1.409 1_655 S
C663 C662 1.362 1_655 S
H664 C670 0.930 . S
H665 C673 0.930 . S
H666 C674 0.930 . S
H667 C675 0.930 . S
H668 C678 0.930 . S
H669 C679 0.930 . S
C670 H664 0.930 . S
C670 C671 1.355 . S
C670 C672 1.415 . S
C671 C670 1.355 . S
C671 C673 1.419 . S
C672 C670 1.415 . S
C672 C677 1.425 . S
C672 C679 1.409 . S
C673 H665 0.930 . S
C673 C671 1.419 . S
C673 C674 1.362 . S
C674 H666 0.930 . S
C674 C673 1.362 . S
C674 C677 1.409 . S
C675 H667 0.930 . S
C675 C676 1.355 . S
C675 C677 1.415 . S
C676 C675 1.355 . S
C676 C678 1.419 . S
C677 C672 1.425 . S
C677 C674 1.409 . S
C677 C675 1.415 . S
C678 H668 0.930 . S
C678 C676 1.419 . S
C678 C679 1.362 . S
C679 H669 0.930 . S
C679 C672 1.409 . S
C679 C678 1.362 . S
H680 C686 0.930 . S
H681 C689 0.930 . S
H682 C690 0.930 . S
H683 C691 0.930 . S
H684 C694 0.930 . S
H685 C695 0.930 . S
C686 H680 0.930 . S
C686 C687 1.355 . S
C686 C688 1.415 . S
C687 C686 1.355 . S
C687 C689 1.419 . S
C688 C686 1.415 . S
C688 C693 1.425 . S
C688 C695 1.409 . S
C689 H681 0.930 . S
C689 C687 1.419 . S
C689 C690 1.362 . S
C690 H682 0.930 . S
C690 C689 1.362 . S
C690 C693 1.409 . S
C691 H683 0.930 . S
C691 C692 1.355 . S
C691 C693 1.415 . S
C692 C691 1.355 . S
C692 C694 1.419 . S
C693 C688 1.425 . S
C693 C690 1.409 . S
C693 C691 1.415 . S
C694 H684 0.930 . S
C694 C692 1.419 . S
C694 C695 1.362 . S
C695 H685 0.930 . S
C695 C688 1.409 . S
C695 C694 1.362 . S
H696 C702 0.930 . S
H697 C705 0.930 . S
H698 C706 0.930 . S
H699 C707 0.930 1_554 S
H700 C710 0.930 . S
H701 C711 0.930 . S
C702 H696 0.930 . S
C702 C703 1.355 . S
C702 C704 1.415 . S
C703 C702 1.355 . S
C703 C705 1.419 . S
C704 C702 1.415 . S
C704 C709 1.425 . S
C704 C711 1.409 . S
C705 H697 0.930 . S
C705 C703 1.419 . S
C705 C706 1.362 . S
C706 H698 0.930 . S
C706 C705 1.362 . S
C706 C709 1.409 . S
C707 H699 0.930 1_556 S
C707 C708 1.355 1_556 S
C707 C709 1.415 . S
C708 C707 1.355 1_554 S
C708 C710 1.419 . S
C709 C704 1.425 . S
C709 C706 1.409 . S
C709 C707 1.415 . S
C710 H700 0.930 . S
C710 C708 1.419 . S
C710 C711 1.362 1_554 S
C711 H701 0.930 . S
C711 C704 1.409 . S
C711 C710 1.362 1_556 S
H712 C718 0.930 . S
H713 C721 0.930 . S
H714 C722 0.930 . S
H715 C723 0.930 1_554 S
H716 C726 0.930 . S
H717 C727 0.930 . S
C718 H712 0.930 . S
C718 C719 1.355 . S
C718 C720 1.415 . S
C719 C718 1.355 . S
C719 C721 1.419 . S
C720 C718 1.415 . S
C720 C725 1.425 . S
C720 C727 1.409 . S
C721 H713 0.930 . S
C721 C719 1.419 . S
C721 C722 1.362 . S
C722 H714 0.930 . S
C722 C721 1.362 . S
C722 C725 1.409 . S
C723 H715 0.930 1_556 S
C723 C724 1.355 1_556 S
C723 C725 1.415 . S
C724 C723 1.355 1_554 S
C724 C726 1.419 . S
C725 C720 1.425 . S
C725 C722 1.409 . S
C725 C723 1.415 . S
C726 H716 0.930 . S
C726 C724 1.419 . S
C726 C727 1.362 1_554 S
C727 H717 0.930 . S
C727 C720 1.409 . S
C727 C726 1.362 1_556 S
H728 C734 0.930 . S
H729 C737 0.930 . S
H730 C738 0.930 . S
H731 C739 0.930 . S
H732 C742 0.930 . S
H733 C743 0.930 . S
C734 H728 0.930 . S
C734 C735 1.355 . S
C734 C736 1.415 . S
C735 C734 1.355 . S
C735 C737 1.419 . S
C736 C734 1.415 . S
C736 C741 1.425 . S
C736 C743 1.409 . S
C737 H729 0.930 . S
C737 C735 1.419 . S
C737 C738 1.362 . S
C738 H730 0.930 . S
C738 C737 1.362 . S
C738 C741 1.409 . S
C739 H731 0.930 . S
C739 C740 1.355 1_556 S
C739 C741 1.415 . S
C740 C739 1.355 1_554 S
C740 C742 1.419 . S
C741 C736 1.425 . S
C741 C738 1.409 . S
C741 C739 1.415 . S
C742 H732 0.930 . S
C742 C740 1.419 . S
C742 C743 1.362 1_554 S
C743 H733 0.930 . S
C743 C736 1.409 . S
C743 C742 1.362 1_556 S
H744 C750 0.930 . S
H745 C753 0.930 . S
H746 C754 0.930 . S
H747 C755 0.930 . S
H748 C758 0.930 1_556 S
H749 C759 0.930 . S
C750 H744 0.930 . S
C750 C751 1.355 . S
C750 C752 1.415 . S
C751 C750 1.355 . S
C751 C753 1.419 . S
C752 C750 1.415 . S
C752 C757 1.425 . S
C752 C759 1.409 . S
C753 H745 0.930 . S
C753 C751 1.419 . S
C753 C754 1.362 . S
C754 H746 0.930 . S
C754 C753 1.362 . S
C754 C757 1.409 . S
C755 H747 0.930 . S
C755 C756 1.355 1_554 S
C755 C757 1.415 . S
C756 C755 1.355 1_556 S
C756 C758 1.419 1_556 S
C757 C752 1.425 . S
C757 C754 1.409 . S
C757 C755 1.415 . S
C758 H748 0.930 1_554 S
C758 C756 1.419 1_554 S
C758 C759 1.362 . S
C759 H749 0.930 . S
C759 C752 1.409 . S
C759 C758 1.362 . S
H760 C766 0.930 . S
H761 C769 0.930 . S
H762 C770 0.930 . S
H763 C771 0.930 . S
H764 C774 0.930 . S
H765 C775 0.930 . S
C766 H760 0.930 . S
C766 C767 1.355 1_554 S
C766 C768 1.415 . S
C767 C766 1.355 1_556 S
C767 C769 1.419 . S
C768 C766 1.415 . S
C768 C773 1.425 . S
C768 C775 1.409 . S
C769 H761 0.930 . S
C769 C767 1.419 . S
C769 C770 1.362 1_556 S
C770 H762 0.930 . S
C770 C769 1.362 1_554 S
C770 C773 1.409 . S
C771 H763 0.930 . S
C771 C772 1.355 . S
C771 C773 1.415 . S
C772 C771 1.355 . S
C772 C774 1.419 . S
C773 C768 1.425 . S
C773 C770 1.409 . S
C773 C771 1.415 . S
C774 H764 0.930 . S
C774 C772 1.419 . S
C774 C775 1.362 . S
C775 H765 0.930 . S
C775 C768 1.409 . S
C775 C774 1.362 . S
H776 C782 0.930 . S
H777 C785 0.930 . S
H778 C786 0.930 . S
H779 C787 0.930 . S
H780 C790 0.930 . S
H781 C791 0.930 . S
C782 H776 0.930 . S
C782 C783 1.355 . S
C782 C784 1.415 . S
C783 C782 1.355 . S
C783 C785 1.419 . S
C784 C782 1.415 . S
C784 C789 1.425 . S
C784 C791 1.409 . S
C785 H777 0.930 . S
C785 C783 1.419 . S
C785 C786 1.362 . S
C786 H778 0.930 . S
C786 C785 1.362 . S
C786 C789 1.409 . S
C787 H779 0.930 . S
C787 C788 1.355 1_554 S
C787 C789 1.415 . S
C788 C787 1.355 1_556 S
C788 C790 1.419 . S
C789 C784 1.425 . S
C789 C786 1.409 . S
C789 C787 1.415 . S
C790 H780 0.930 . S
C790 C788 1.419 . S
C790 C791 1.362 1_556 S
C791 H781 0.930 . S
C791 C784 1.409 . S
C791 C790 1.362 1_554 S
C367 C6 1.890 . S
C372 C290 1.802 . S
C383 C46 1.901 . S
C388 C330 1.819 . S
C399 C86 1.910 . S
C404 C250 1.844 . S
C415 C166 1.892 . S
C420 C90 1.805 . S
C431 C206 1.898 . S
C436 C10 1.813 . S
C447 C50 1.844 . S
C452 C126 1.911 . S
C463 C286 1.874 1_655 S
C468 C210 1.810 . S
C479 C326 1.912 . S
C484 C130 1.850 . S
C495 C170 1.841 . S
C500 C246 1.910 1_545 S
C511 C95 1.655 . S
C516 C19 1.686 1_554 S
C527 C59 1.686 1_554 S
C532 C15 1.655 . S
C543 C55 1.668 1_455 S
C548 C99 1.678 1_554 S
C559 C139 1.670 . S
C564 C215 1.684 . S
C575 C135 1.663 . S
C580 C179 1.682 . S
C591 C175 1.676 . S
C596 C219 1.675 . S
C607 C335 1.654 . S
C612 C259 1.687 . S
C623 C299 1.683 . S
C628 C255 1.659 . S
C639 C339 1.671 . S
C644 C295 1.682 . S
C655 C18 1.005 . S
C660 C9 1.002 . S
C671 C58 1.007 . S
C676 C49 1.007 . S
C687 C98 1.076 . S
C692 C89 1.076 . S
C703 C129 1.067 . S
C708 C138 1.067 . S
C719 C169 1.068 . S
C724 C178 1.068 . S
C735 C209 0.995 . S
C740 C218 0.995 . S
C751 C258 1.046 . S
C756 C249 1.046 . S
C767 C289 1.043 . S
C772 C298 1.043 . S
C783 C338 1.038 . S
C788 C329 1.038 . S
