# Generated by pormake.
# Topology wir, (6)-cn, num edge types: 1
# Building blocks:
#     Node 0, Type 0, BuildingBlock: KUMBUR_clean_sbu_1, # of connection points: 6
#     Node 1, Type 0, BuildingBlock: KUMBUR_clean_sbu_1, # of connection points: 6
#     Node 2, Type 0, BuildingBlock: KUMBUR_clean_sbu_1, # of connection points: 6
#     Node 3, Type 0, BuildingBlock: KUMBUR_clean_sbu_1, # of connection points: 6
#     Node 4, Type 0, BuildingBlock: KUMBUR_clean_sbu_1, # of connection points: 6
#     Node 5, Type 0, BuildingBlock: KUMBUR_clean_sbu_1, # of connection points: 6
#     Node 6, Type 0, BuildingBlock: KUMBUR_clean_sbu_1, # of connection points: 6
#     Node 7, Type 0, BuildingBlock: KUMBUR_clean_sbu_1, # of connection points: 6
#     Node 8, Type 0, BuildingBlock: KUMBUR_clean_sbu_1, # of connection points: 6
#     Node 9, Type 0, BuildingBlock: KUMBUR_clean_sbu_1, # of connection points: 6
#     Node 10, Type 0, BuildingBlock: KUMBUR_clean_sbu_1, # of connection points: 6
#     Node 11, Type 0, BuildingBlock: KUMBUR_clean_sbu_1, # of connection points: 6
#     Node 12, Type 0, BuildingBlock: KUMBUR_clean_sbu_1, # of connection points: 6
#     Node 13, Type 0, BuildingBlock: KUMBUR_clean_sbu_1, # of connection points: 6
#     Node 14, Type 0, BuildingBlock: KUMBUR_clean_sbu_1, # of connection points: 6
#     Node 15, Type 0, BuildingBlock: KUMBUR_clean_sbu_1, # of connection points: 6
#     Node 16, Type 0, BuildingBlock: KUMBUR_clean_sbu_1, # of connection points: 6
#     Node 17, Type 0, BuildingBlock: KUMBUR_clean_sbu_1, # of connection points: 6
#     Node 18, Type 0, BuildingBlock: KUMBUR_clean_sbu_1, # of connection points: 6
#     Node 19, Type 0, BuildingBlock: KUMBUR_clean_sbu_1, # of connection points: 6
#     Node 20, Type 0, BuildingBlock: KUMBUR_clean_sbu_1, # of connection points: 6
#     Node 21, Type 0, BuildingBlock: KUMBUR_clean_sbu_1, # of connection points: 6
#     Node 22, Type 0, BuildingBlock: KUMBUR_clean_sbu_1, # of connection points: 6
#     Node 23, Type 0, BuildingBlock: KUMBUR_clean_sbu_1, # of connection points: 6
#     Node 24, Type 0, BuildingBlock: KUMBUR_clean_sbu_1, # of connection points: 6
#     Node 25, Type 0, BuildingBlock: KUMBUR_clean_sbu_1, # of connection points: 6
#     Node 26, Type 0, BuildingBlock: KUMBUR_clean_sbu_1, # of connection points: 6
#     Node 27, Type 0, BuildingBlock: KUMBUR_clean_sbu_1, # of connection points: 6
#     Node 28, Type 0, BuildingBlock: KUMBUR_clean_sbu_1, # of connection points: 6
#     Node 29, Type 0, BuildingBlock: KUMBUR_clean_sbu_1, # of connection points: 6
#     Node 30, Type 0, BuildingBlock: KUMBUR_clean_sbu_1, # of connection points: 6
#     Node 31, Type 0, BuildingBlock: KUMBUR_clean_sbu_1, # of connection points: 6
#     Edge 32, Type (0, 0), BuildingBlock: XIVTED_clean_linker_0, # of connection points: 2
#     Edge 33, Type (0, 0), BuildingBlock: XIVTED_clean_linker_0, # of connection points: 2
#     Edge 34, Type (0, 0), BuildingBlock: XIVTED_clean_linker_0, # of connection points: 2
#     Edge 35, Type (0, 0), BuildingBlock: XIVTED_clean_linker_0, # of connection points: 2
#     Edge 36, Type (0, 0), BuildingBlock: XIVTED_clean_linker_0, # of connection points: 2
#     Edge 37, Type (0, 0), BuildingBlock: XIVTED_clean_linker_0, # of connection points: 2
#     Edge 38, Type (0, 0), BuildingBlock: XIVTED_clean_linker_0, # of connection points: 2
#     Edge 39, Type (0, 0), BuildingBlock: XIVTED_clean_linker_0, # of connection points: 2
#     Edge 40, Type (0, 0), BuildingBlock: XIVTED_clean_linker_0, # of connection points: 2
#     Edge 41, Type (0, 0), BuildingBlock: XIVTED_clean_linker_0, # of connection points: 2
#     Edge 42, Type (0, 0), BuildingBlock: XIVTED_clean_linker_0, # of connection points: 2
#     Edge 43, Type (0, 0), BuildingBlock: XIVTED_clean_linker_0, # of connection points: 2
#     Edge 44, Type (0, 0), BuildingBlock: XIVTED_clean_linker_0, # of connection points: 2
#     Edge 45, Type (0, 0), BuildingBlock: XIVTED_clean_linker_0, # of connection points: 2
#     Edge 46, Type (0, 0), BuildingBlock: XIVTED_clean_linker_0, # of connection points: 2
#     Edge 47, Type (0, 0), BuildingBlock: XIVTED_clean_linker_0, # of connection points: 2
#     Edge 48, Type (0, 0), BuildingBlock: XIVTED_clean_linker_0, # of connection points: 2
#     Edge 49, Type (0, 0), BuildingBlock: XIVTED_clean_linker_0, # of connection points: 2
#     Edge 50, Type (0, 0), BuildingBlock: XIVTED_clean_linker_0, # of connection points: 2
#     Edge 51, Type (0, 0), BuildingBlock: XIVTED_clean_linker_0, # of connection points: 2
#     Edge 52, Type (0, 0), BuildingBlock: XIVTED_clean_linker_0, # of connection points: 2
#     Edge 53, Type (0, 0), BuildingBlock: XIVTED_clean_linker_0, # of connection points: 2
#     Edge 54, Type (0, 0), BuildingBlock: XIVTED_clean_linker_0, # of connection points: 2
#     Edge 55, Type (0, 0), BuildingBlock: XIVTED_clean_linker_0, # of connection points: 2
#     Edge 56, Type (0, 0), BuildingBlock: XIVTED_clean_linker_0, # of connection points: 2
#     Edge 57, Type (0, 0), BuildingBlock: XIVTED_clean_linker_0, # of connection points: 2
#     Edge 58, Type (0, 0), BuildingBlock: XIVTED_clean_linker_0, # of connection points: 2
#     Edge 59, Type (0, 0), BuildingBlock: XIVTED_clean_linker_0, # of connection points: 2
#     Edge 60, Type (0, 0), BuildingBlock: XIVTED_clean_linker_0, # of connection points: 2
#     Edge 61, Type (0, 0), BuildingBlock: XIVTED_clean_linker_0, # of connection points: 2
#     Edge 62, Type (0, 0), BuildingBlock: XIVTED_clean_linker_0, # of connection points: 2
#     Edge 63, Type (0, 0), BuildingBlock: XIVTED_clean_linker_0, # of connection points: 2
#     Edge 64, Type (0, 0), BuildingBlock: XIVTED_clean_linker_0, # of connection points: 2
#     Edge 65, Type (0, 0), BuildingBlock: XIVTED_clean_linker_0, # of connection points: 2
#     Edge 66, Type (0, 0), BuildingBlock: XIVTED_clean_linker_0, # of connection points: 2
#     Edge 67, Type (0, 0), BuildingBlock: XIVTED_clean_linker_0, # of connection points: 2
#     Edge 68, Type (0, 0), BuildingBlock: XIVTED_clean_linker_0, # of connection points: 2
#     Edge 69, Type (0, 0), BuildingBlock: XIVTED_clean_linker_0, # of connection points: 2
#     Edge 70, Type (0, 0), BuildingBlock: XIVTED_clean_linker_0, # of connection points: 2
#     Edge 71, Type (0, 0), BuildingBlock: XIVTED_clean_linker_0, # of connection points: 2
#     Edge 72, Type (0, 0), BuildingBlock: XIVTED_clean_linker_0, # of connection points: 2
#     Edge 73, Type (0, 0), BuildingBlock: XIVTED_clean_linker_0, # of connection points: 2
#     Edge 74, Type (0, 0), BuildingBlock: XIVTED_clean_linker_0, # of connection points: 2
#     Edge 75, Type (0, 0), BuildingBlock: XIVTED_clean_linker_0, # of connection points: 2
#     Edge 76, Type (0, 0), BuildingBlock: XIVTED_clean_linker_0, # of connection points: 2
#     Edge 77, Type (0, 0), BuildingBlock: XIVTED_clean_linker_0, # of connection points: 2
#     Edge 78, Type (0, 0), BuildingBlock: XIVTED_clean_linker_0, # of connection points: 2
#     Edge 79, Type (0, 0), BuildingBlock: XIVTED_clean_linker_0, # of connection points: 2
#     Edge 80, Type (0, 0), BuildingBlock: XIVTED_clean_linker_0, # of connection points: 2
#     Edge 81, Type (0, 0), BuildingBlock: XIVTED_clean_linker_0, # of connection points: 2
#     Edge 82, Type (0, 0), BuildingBlock: XIVTED_clean_linker_0, # of connection points: 2
#     Edge 83, Type (0, 0), BuildingBlock: XIVTED_clean_linker_0, # of connection points: 2
#     Edge 84, Type (0, 0), BuildingBlock: XIVTED_clean_linker_0, # of connection points: 2
#     Edge 85, Type (0, 0), BuildingBlock: XIVTED_clean_linker_0, # of connection points: 2
#     Edge 86, Type (0, 0), BuildingBlock: XIVTED_clean_linker_0, # of connection points: 2
#     Edge 87, Type (0, 0), BuildingBlock: XIVTED_clean_linker_0, # of connection points: 2
#     Edge 88, Type (0, 0), BuildingBlock: XIVTED_clean_linker_0, # of connection points: 2
#     Edge 89, Type (0, 0), BuildingBlock: XIVTED_clean_linker_0, # of connection points: 2
#     Edge 90, Type (0, 0), BuildingBlock: XIVTED_clean_linker_0, # of connection points: 2
#     Edge 91, Type (0, 0), BuildingBlock: XIVTED_clean_linker_0, # of connection points: 2
#     Edge 92, Type (0, 0), BuildingBlock: XIVTED_clean_linker_0, # of connection points: 2
#     Edge 93, Type (0, 0), BuildingBlock: XIVTED_clean_linker_0, # of connection points: 2
#     Edge 94, Type (0, 0), BuildingBlock: XIVTED_clean_linker_0, # of connection points: 2
#     Edge 95, Type (0, 0), BuildingBlock: XIVTED_clean_linker_0, # of connection points: 2
#     Edge 96, Type (0, 0), BuildingBlock: XIVTED_clean_linker_0, # of connection points: 2
#     Edge 97, Type (0, 0), BuildingBlock: XIVTED_clean_linker_0, # of connection points: 2
#     Edge 98, Type (0, 0), BuildingBlock: XIVTED_clean_linker_0, # of connection points: 2
#     Edge 99, Type (0, 0), BuildingBlock: XIVTED_clean_linker_0, # of connection points: 2
#     Edge 100, Type (0, 0), BuildingBlock: XIVTED_clean_linker_0, # of connection points: 2
#     Edge 101, Type (0, 0), BuildingBlock: XIVTED_clean_linker_0, # of connection points: 2
#     Edge 102, Type (0, 0), BuildingBlock: XIVTED_clean_linker_0, # of connection points: 2
#     Edge 103, Type (0, 0), BuildingBlock: XIVTED_clean_linker_0, # of connection points: 2
#     Edge 104, Type (0, 0), BuildingBlock: XIVTED_clean_linker_0, # of connection points: 2
#     Edge 105, Type (0, 0), BuildingBlock: XIVTED_clean_linker_0, # of connection points: 2
#     Edge 106, Type (0, 0), BuildingBlock: XIVTED_clean_linker_0, # of connection points: 2
#     Edge 107, Type (0, 0), BuildingBlock: XIVTED_clean_linker_0, # of connection points: 2
#     Edge 108, Type (0, 0), BuildingBlock: XIVTED_clean_linker_0, # of connection points: 2
#     Edge 109, Type (0, 0), BuildingBlock: XIVTED_clean_linker_0, # of connection points: 2
#     Edge 110, Type (0, 0), BuildingBlock: XIVTED_clean_linker_0, # of connection points: 2
#     Edge 111, Type (0, 0), BuildingBlock: XIVTED_clean_linker_0, # of connection points: 2
#     Edge 112, Type (0, 0), BuildingBlock: XIVTED_clean_linker_0, # of connection points: 2
#     Edge 113, Type (0, 0), BuildingBlock: XIVTED_clean_linker_0, # of connection points: 2
#     Edge 114, Type (0, 0), BuildingBlock: XIVTED_clean_linker_0, # of connection points: 2
#     Edge 115, Type (0, 0), BuildingBlock: XIVTED_clean_linker_0, # of connection points: 2
#     Edge 116, Type (0, 0), BuildingBlock: XIVTED_clean_linker_0, # of connection points: 2
#     Edge 117, Type (0, 0), BuildingBlock: XIVTED_clean_linker_0, # of connection points: 2
#     Edge 118, Type (0, 0), BuildingBlock: XIVTED_clean_linker_0, # of connection points: 2
#     Edge 119, Type (0, 0), BuildingBlock: XIVTED_clean_linker_0, # of connection points: 2
#     Edge 120, Type (0, 0), BuildingBlock: XIVTED_clean_linker_0, # of connection points: 2
#     Edge 121, Type (0, 0), BuildingBlock: XIVTED_clean_linker_0, # of connection points: 2
#     Edge 122, Type (0, 0), BuildingBlock: XIVTED_clean_linker_0, # of connection points: 2
#     Edge 123, Type (0, 0), BuildingBlock: XIVTED_clean_linker_0, # of connection points: 2
#     Edge 124, Type (0, 0), BuildingBlock: XIVTED_clean_linker_0, # of connection points: 2
#     Edge 125, Type (0, 0), BuildingBlock: XIVTED_clean_linker_0, # of connection points: 2
#     Edge 126, Type (0, 0), BuildingBlock: XIVTED_clean_linker_0, # of connection points: 2
#     Edge 127, Type (0, 0), BuildingBlock: XIVTED_clean_linker_0, # of connection points: 2
# Relax obj value: 0.344
# Max RMSD: 0.189
# Mean RMSD: 0.189
data_MOF--net-wir--node1-KUMBUR_clean_sbu_1--edge1-XIVTED_clean_linker_0
_symmetry_space_group_name_H-M    P1
_symmetry_Int_Tables_number       1
_symmetry_cell_setting            triclinic
loop_
_symmetry_equiv_pos_as_xyz
'x, y, z'
_cell_length_a     41.716705
_cell_length_b     41.66151
_cell_length_c     97.634321
_cell_angle_alpha  89.901339
_cell_angle_beta   89.918835
_cell_angle_gamma 89.955583
loop_
_atom_site_label
_atom_site_type_symbol
_atom_site_fract_x
_atom_site_fract_y
_atom_site_fract_z
_atom_type_partial_charge
Tb0 Tb 0.19619 0.14887 0.3716 0.0
C1 C 0.28658 0.25775 0.38168 0.0
N2 N 0.27762 0.22667 0.38383 0.0
C3 C 0.33182 0.20955 0.37987 0.0
C4 C 0.3186 0.26594 0.37874 0.0
C5 C 0.2997 0.20254 0.38272 0.0
C6 C 0.34142 0.24139 0.37807 0.0
C7 C 0.27025 0.31293 0.37776 0.0
C8 C 0.2627 0.28089 0.38103 0.0
C9 C 0.30241 0.3216 0.37562 0.0
C10 C 0.32653 0.29814 0.37607 0.0
Tb11 Tb 0.22564 0.22067 0.3912 0.0
N12 N 0.2318 0.27128 0.38268 0.0
C13 C 0.24517 0.33505 0.37642 0.0
C14 C 0.20718 0.29258 0.38114 0.0
C15 C 0.2135 0.32475 0.378 0.0
H16 H 0.293 0.17779 0.38393 0.0
H17 H 0.19396 0.34169 0.37698 0.0
H18 H 0.15599 0.18861 0.34662 0.0
H19 H 0.18779 1.02535 0.38822 0.0
H20 H 0.1827 0.28525 0.38281 0.0
H21 H 0.24996 0.35997 0.37399 0.0
H22 H 0.20691 0.08071 0.38884 0.0
H23 H 0.3492 0.19033 0.37906 0.0
H24 H 0.30877 0.34619 0.37322 0.0
H25 H 0.35109 0.30499 0.37395 0.0
H26 H 0.11852 0.17617 0.32839 0.0
H27 H 0.3663 0.24665 0.3758 0.0
H28 H 0.14841 1.00859 0.37075 0.0
N29 N 0.15924 0.14039 0.35427 0.0
C30 C 0.14721 0.11031 0.35305 0.0
C31 C 0.12661 0.15726 0.33518 0.0
C32 C 0.12487 0.1023 0.34275 0.0
C33 C 0.14862 0.16402 0.34557 0.0
C34 C 0.11481 0.12622 0.33369 0.0
N35 N 0.17854 0.09654 0.37194 0.0
C36 C 0.18971 0.07436 0.38114 0.0
C37 C 0.14561 0.05577 0.36149 0.0
C38 C 0.15718 0.08755 0.36226 0.0
C39 C 0.15669 1.03323 0.37098 0.0
C40 C 0.17889 1.0426 0.38085 0.0
H41 H 0.09768 0.12108 0.32566 0.0
H42 H 0.09605 0.06417 0.33403 0.0
H43 H 0.11437 1.02324 0.35047 0.0
O44 O 0.24499 0.15963 0.3693 0.0
O45 O 0.17425 0.13786 0.39157 0.0
O46 O 0.19445 0.18243 0.39093 0.0
O47 O 0.22218 0.11999 0.35818 0.0
O48 O 0.23091 0.131 0.38973 0.0
O49 O 0.25162 0.176 0.40085 0.0
O50 O 0.2042 0.25164 0.40538 0.0
O51 O 0.23913 0.22643 0.36882 0.0
O52 O 0.20406 0.19309 0.35759 0.0
O53 O 0.24858 0.22814 0.41015 0.0
O54 O 0.1705 0.22857 0.38627 0.0
O55 O 0.1524 0.18459 0.37347 0.0
C56 C 0.18074 0.16211 0.39911 0.0
C57 C 0.26647 0.14472 0.34762 0.0
C58 C 0.31504 0.13647 0.33403 0.0
C59 C 0.29941 0.15097 0.32278 0.0
C60 C 0.25091 0.15705 0.33606 0.0
C61 C 0.26774 0.16141 0.32387 0.0
C62 C 0.29873 0.13549 0.3467 0.0
C63 C 0.25114 0.14342 0.39948 0.0
C64 C 0.24842 0.13683 0.36009 0.0
C65 C 0.11316 0.07077 0.34188 0.0
C66 C 0.12353 0.04751 0.35124 0.0
C67 C 0.22613 0.21673 0.35712 0.0
C68 C 0.24403 0.28336 0.41561 0.0
C69 C 0.23818 0.34175 0.4158 0.0
C70 C 0.27141 0.34457 0.41806 0.0
C71 C 0.27707 0.28669 0.41794 0.0
C72 C 0.225 0.31096 0.41442 0.0
C73 C 0.29064 0.31719 0.41904 0.0
C74 C 0.14591 0.21329 0.37959 0.0
C75 C 0.22936 0.25165 0.41321 0.0
H76 H 0.31048 0.15214 0.31277 0.0
H77 H 0.22558 0.16257 0.33634 0.0
H78 H 0.25563 0.17118 0.31499 0.0
H79 H 0.31018 0.12534 0.35567 0.0
H80 H 0.28252 0.36777 0.41951 0.0
H81 H 0.29249 0.26584 0.4187 0.0
H82 H 0.19973 0.30834 0.4122 0.0
H83 H 0.31613 0.31963 0.42082 0.0
Tb84 Tb 0.18584 1.00726 0.627 0.0
C85 C 0.07284 0.0927 0.64051 0.0
N86 N 0.10408 0.08387 0.6419 0.0
C87 C 0.12053 0.13799 0.63728 0.0
C88 C 0.06416 0.12472 0.63776 0.0
C89 C 0.12796 0.10581 0.63994 0.0
C90 C 0.0885 0.1476 0.63639 0.0
C91 C 1.01736 0.0762 0.63829 0.0
C92 C 0.04984 0.06876 0.64054 0.0
C93 C 1.00828 0.10836 0.63627 0.0
C94 C 1.03165 0.13256 0.63595 0.0
Tb95 Tb 0.1119 1.03144 0.64816 0.0
N96 N 0.05978 1.03791 0.64198 0.0
C97 C 0.99516 0.05103 0.63789 0.0
C98 C 1.03838 1.0132 0.64147 0.0
C99 C 1.00576 1.01939 0.63943 0.0
H100 H 0.15275 0.09872 0.64017 0.0
H101 H 0.98877 0.99977 0.63917 0.0
H102 H 0.14982 0.97132 0.60017 0.0
H103 H 0.30752 0.9983 0.64547 0.0
H104 H 1.04623 0.98876 0.64301 0.0
H105 H 0.9699 0.05573 0.63626 0.0
H106 H 0.2536 1.02161 0.64371 0.0
H107 H 0.13954 0.15533 0.63582 0.0
H108 H 0.98338 0.11465 0.63461 0.0
H109 H 1.02443 0.15712 0.63397 0.0
H110 H 0.16165 0.92845 0.584 0.0
H111 H 0.08287 0.17249 0.63423 0.0
H112 H 0.32249 0.95162 0.6312 0.0
N113 N 0.19475 0.96828 0.61065 0.0
C114 C 0.22337 0.95286 0.6112 0.0
C115 C 0.17931 0.93508 0.5916 0.0
C116 C 0.23111 0.92784 0.60204 0.0
C117 C 0.17283 0.95984 0.60086 0.0
C118 C 0.20851 0.91889 0.59222 0.0
N119 N 0.23723 0.98801 0.62882 0.0
C120 C 0.25946 1.00116 0.63745 0.0
C121 C 0.27622 0.94911 0.62124 0.0
C122 C 0.24544 0.96311 0.62065 0.0
C123 C 0.29858 0.96166 0.63043 0.0
C124 C 0.29023 0.98802 0.63849 0.0
H125 H 0.21348 0.89978 0.585 0.0
H126 H 0.26762 0.89364 0.59592 0.0
H127 H 0.30728 0.91242 0.61275 0.0
O128 O 0.17831 0.05571 0.62179 0.0
O129 O 0.19791 0.9863 0.64695 0.0
O130 O 0.15285 1.00637 0.64546 0.0
O131 O 0.2178 1.02778 0.61308 0.0
O132 O 0.20107 1.04419 0.64483 0.0
O133 O 0.15632 0.05773 0.65815 0.0
O134 O 0.08828 1.00258 0.6625 0.0
O135 O 0.10373 1.04605 0.62601 0.0
O136 O 0.14005 1.01485 0.61407 0.0
O137 O 0.10309 0.05026 0.66785 0.0
O138 O 0.10533 0.97764 0.64122 0.0
O139 O 0.15066 0.96223 0.62843 0.0
C140 C 0.17194 0.99082 0.65348 0.0
C141 C 0.19823 0.07008 0.59968 0.0
C142 C 0.22036 0.10492 0.58185 0.0
C143 C 0.19752 0.09247 0.57262 0.0
C144 C 0.17761 0.05642 0.59004 0.0
C145 C 0.17616 0.06861 0.57677 0.0
C146 C 0.21886 0.09494 0.59566 0.0
C147 C 0.18852 0.06096 0.65573 0.0
C148 C 0.20269 0.05534 0.61321 0.0
C149 C 0.2613 0.91298 0.60282 0.0
C150 C 0.28386 0.92364 0.61241 0.0
C151 C 0.1151 1.03549 0.61407 0.0
C152 C 0.05319 1.03133 0.67652 0.0
C153 C 1.00169 1.00859 0.6833 0.0
C154 C 0.98839 1.0396 0.68339 0.0
C155 C 1.03959 0.06221 0.67671 0.0
C156 C 1.03422 1.0048 0.68005 0.0
C157 C 1.00736 0.06624 0.68021 0.0
C158 C 0.12182 0.95423 0.63431 0.0
C159 C 0.08594 1.02552 0.67142 0.0
H160 H 0.1977 0.09897 0.56189 0.0
H161 H 0.16385 1.03542 0.59257 0.0
H162 H 0.15996 0.058 0.5694 0.0
H163 H 0.23552 0.10454 0.6031 0.0
H164 H 0.96339 1.04326 0.68596 0.0
H165 H 0.05356 0.0831 0.67387 0.0
H166 H 1.04452 0.98091 0.67961 0.0
H167 H 0.99692 0.09003 0.68024 0.0
Tb168 Tb 0.33929 0.87458 0.87088 0.0
C169 C 0.2466 0.78624 0.87342 0.0
N170 N 0.26309 0.81375 0.87632 0.0
C171 C 0.22009 0.845 0.86678 0.0
C172 C 0.21602 0.78728 0.86727 0.0
C173 C 0.2504 0.84283 0.8728 0.0
C174 C 0.20263 0.81717 0.86417 0.0
C175 C 0.24682 0.72802 0.87132 0.0
C176 C 0.26174 0.75678 0.87543 0.0
C177 C 0.21563 0.72899 0.86596 0.0
C178 C 0.20029 0.75853 0.86393 0.0
Tb179 Tb 0.30969 0.80463 0.88838 0.0
N180 N 0.29256 0.75679 0.87994 0.0
C181 C 0.26436 0.69938 0.87204 0.0
C182 C 0.31033 0.72923 0.88005 0.0
C183 C 0.29639 0.70008 0.87622 0.0
H184 H 0.26328 0.86453 0.87448 0.0
H185 H 0.31033 0.67817 0.8765 0.0
H186 H 0.36296 0.83176 0.84354 0.0
H187 H 0.3946 0.97454 0.89693 0.0
H188 H 0.33506 0.72972 0.88337 0.0
H189 H 0.25376 0.6768 0.86894 0.0
H190 H 0.35095 0.93683 0.89151 0.0
H191 H 0.21024 0.86823 0.86412 0.0
H192 H 0.20365 0.70711 0.86286 0.0
H193 H 0.17667 0.75894 0.85933 0.0
H194 H 0.40992 0.82867 0.82848 0.0
H195 H 0.17924 0.819 0.85942 0.0
H196 H 0.44533 0.97276 0.88379 0.0
N197 N 0.38208 0.86894 0.85611 0.0
C198 C 0.40697 0.88951 0.85801 0.0
C199 C 0.40946 0.84582 0.83679 0.0
C200 C 0.43459 0.88827 0.84969 0.0
C201 C 0.38267 0.84778 0.84538 0.0
C202 C 0.43565 0.86595 0.83902 0.0
N203 N 0.37716 0.9127 0.87583 0.0
C204 C 0.3732 0.93531 0.88586 0.0
C205 C 0.42998 0.9333 0.87097 0.0
C206 C 0.40466 0.91173 0.86842 0.0
C207 C 0.42638 0.95586 0.88146 0.0
C208 C 0.39779 0.95694 0.8889 0.0
H209 H 0.45642 0.86425 0.83238 0.0
H210 H 0.48161 0.90872 0.84601 0.0
H211 H 0.47762 0.94812 0.86471 0.0
O212 O 0.33678 0.9206 0.86219 0.0
O213 O 0.34236 0.87806 0.89275 0.0
O214 O 0.35132 0.82631 0.89814 0.0
O215 O 0.3004 0.88504 0.858 0.0
O216 O 0.30432 0.89368 0.88837 0.0
O217 O 0.28246 0.84866 0.8983 0.0
O218 O 0.31721 0.7673 0.90261 0.0
O219 O 0.31257 0.79108 0.86586 0.0
O220 O 0.3135 0.84069 0.85605 0.0
O221 O 0.27635 0.79763 0.90428 0.0
O222 O 0.36437 0.79353 0.88422 0.0
O223 O 0.38255 0.83883 0.8729 0.0
C224 C 0.35451 0.85662 0.9008 0.0
C225 C 0.31169 0.92356 0.84088 0.0
C226 C 0.30703 0.96708 0.82428 0.0
C227 C 0.31924 0.94638 0.81411 0.0
C228 C 0.32432 0.90353 0.83072 0.0
C229 C 0.32741 0.91472 0.81731 0.0
C230 C 0.3022 0.95479 0.83755 0.0
C231 C 0.28302 0.88123 0.89763 0.0
C232 C 0.31105 0.91383 0.85528 0.0
C233 C 0.46011 0.90941 0.85225 0.0
C234 C 0.45784 0.93183 0.8629 0.0
C235 C 0.30823 0.80921 0.8548 0.0
C236 C 0.29951 0.78083 0.92467 0.0
C237 C 0.33747 0.79868 0.94198 0.0
C238 C 0.31636 0.78743 0.95223 0.0
C239 C 0.27879 0.76963 0.93488 0.0
C240 C 0.3274 0.79711 0.92835 0.0
C241 C 0.28692 0.77365 0.94866 0.0
C242 C 0.38923 0.80939 0.8781 0.0
C243 C 0.29284 0.77524 0.91013 0.0
H244 H 0.32398 0.95487 0.80383 0.0
H245 H 0.33239 0.87963 0.8332 0.0
H246 H 0.33736 0.89922 0.8095 0.0
H247 H 0.29229 0.96985 0.84555 0.0
H248 H 0.32309 0.7875 0.96293 0.0
H249 H 0.25669 0.75754 0.93221 0.0
H250 H 0.34246 0.80659 0.92044 0.0
H251 H 0.27108 0.7647 0.95658 0.0
Tb252 Tb 0.44559 0.1418 0.12208 0.0
C253 C 0.55117 0.04948 0.1469 0.0
N254 N 0.53134 0.06999 0.15358 0.0
C255 C 0.5268 1.03263 0.17223 0.0
C256 C 0.55829 1.01888 0.1523 0.0
C257 C 0.52092 0.0629 0.16652 0.0
C258 C 0.545 1.01024 0.16495 0.0
C259 C 0.59028 1.04131 0.12885 0.0
C260 C 0.56699 0.06052 0.13538 0.0
C261 C 0.59574 1.00992 0.13358 0.0
C262 C 0.57976 0.99871 0.14529 0.0
Tb263 Tb 0.52186 0.11816 0.14307 0.0
N264 N 0.56163 0.09124 0.13137 0.0
C265 C 0.60844 0.05476 0.11823 0.0
C266 C 0.58093 0.10518 0.1216 0.0
C267 C 0.60415 0.08702 0.11476 0.0
H268 H 0.50715 0.08033 0.17226 0.0
H269 H 0.61865 0.09788 0.10681 0.0
H270 H 0.48184 0.1836 0.09691 0.0
H271 H 0.32325 0.14636 0.14019 0.0
H272 H 0.57753 0.13015 0.11888 0.0
H273 H 0.62657 1.04078 0.11296 0.0
H274 H 0.37702 0.12386 0.13819 0.0
H275 H 0.51746 1.02667 0.18226 0.0
H276 H 0.61322 0.99461 0.1286 0.0
H277 H 0.58521 0.97495 0.14918 0.0
H278 H 0.47115 0.23195 0.08347 0.0
H279 H 0.54985 0.98696 0.16945 0.0
H280 H 0.31003 0.19787 0.12897 0.0
N281 N 0.43834 0.18623 0.10849 0.0
C282 C 0.41059 0.20261 0.11045 0.0
C283 C 0.45387 0.22395 0.09101 0.0
C284 C 0.40337 0.23039 0.10274 0.0
C285 C 0.45967 0.19617 0.09866 0.0
C286 C 0.4257 0.24127 0.09311 0.0
N287 N 0.39594 0.163 0.12652 0.0
C288 C 0.37258 0.1469 0.13362 0.0
C289 C 0.35766 0.20423 0.12059 0.0
C290 C 0.38843 0.19031 0.1196 0.0
C291 C 0.33414 0.18833 0.1282 0.0
C292 C 0.34152 0.1593 0.13456 0.0
H293 H 0.42111 0.26258 0.08704 0.0
H294 H 0.36784 0.26722 0.09876 0.0
H295 H 0.32742 0.24381 0.11416 0.0
O296 O 0.40802 0.12337 0.11033 0.0
O297 O 0.47287 0.14337 0.13944 0.0
O298 O 0.49096 0.14005 0.15878 0.0
O299 O 0.45147 0.09579 0.11336 0.0
O300 O 0.42985 0.10889 0.14079 0.0
O301 O 0.47679 0.08566 0.1496 0.0
O302 O 0.57048 0.12853 0.14708 0.0
O303 O 0.51831 0.09997 0.12065 0.0
O304 O 0.48731 0.13382 0.10758 0.0
O305 O 0.53472 0.1393 0.1619 0.0
O306 O 0.5255 0.16996 0.13303 0.0
O307 O 0.47538 0.18885 0.12577 0.0
C308 C 0.46898 0.15327 0.15185 0.0
C309 C 0.42022 0.08588 0.09331 0.0
C310 C 0.38667 0.05925 0.0763 0.0
C311 C 0.40865 0.06842 0.06605 0.0
C312 C 0.44125 0.0957 0.08295 0.0
C313 C 0.43583 0.0864 0.06941 0.0
C314 C 0.39327 0.06744 0.08997 0.0
C315 C 0.44379 0.0868 0.14938 0.0
C316 C 0.4234 0.09699 0.10748 0.0
C317 C 0.37372 0.24578 0.10453 0.0
C318 C 0.35076 0.23253 0.11334 0.0
C319 C 0.51141 0.11276 0.10831 0.0
C320 C 0.57357 0.17928 0.15742 0.0
C321 C 0.61412 0.21939 0.15106 0.0
C322 C 0.59184 0.24372 0.15434 0.0
C323 C 0.55218 0.2041 0.16082 0.0
C324 C 0.60415 0.1871 0.15255 0.0
C325 C 0.56132 0.23605 0.15922 0.0
C326 C 0.50648 0.19519 0.1292 0.0
C327 C 0.56365 0.14521 0.15782 0.0
H328 H 0.40424 0.06288 1.05539 0.0
H329 H 0.46121 0.11113 0.08525 0.0
H330 H 0.45218 0.09402 0.06143 0.0
H331 H 0.3769 0.0603 0.09805 0.0
H332 H 0.59776 0.26884 0.15329 0.0
H333 H 0.52818 0.19893 0.16444 0.0
H334 H 0.62026 0.1674 0.1504 0.0
H335 H 0.54457 0.25504 0.1617 0.0
Tb336 Tb 0.2356 0.93377 0.24828 0.0
C337 C 0.32317 0.81925 0.23818 0.0
N338 N 0.31529 0.85056 0.236 0.0
C339 C 0.36984 0.86598 0.24013 0.0
C340 C 0.35485 0.81001 0.2412 0.0
C341 C 0.33798 0.87402 0.23723 0.0
C342 C 0.37842 0.83382 0.24193 0.0
C343 C 0.30507 0.76457 0.24175 0.0
C344 C 0.29857 0.79695 0.23867 0.0
C345 C 0.33687 0.75486 0.24408 0.0
C346 C 0.3617 0.77755 0.24385 0.0
Tb347 Tb 0.26351 0.85893 0.22902 0.0
N348 N 0.26806 0.80751 0.23679 0.0
C349 C 0.27937 0.74308 0.24258 0.0
C350 C 0.24286 0.78672 0.23765 0.0
C351 C 0.24813 0.75425 0.24057 0.0
H352 H 0.33175 0.89899 0.23621 0.0
H353 H 0.22812 0.73777 0.24112 0.0
H354 H 0.19879 0.89814 0.27511 0.0
H355 H 0.22518 0.05449 0.22853 0.0
H356 H 0.21873 0.79472 0.23565 0.0
H357 H 0.28335 0.71793 0.24485 0.0
H358 H 0.24928 1.00108 0.23099 0.0
H359 H 0.38775 0.88463 0.24104 0.0
H360 H 0.34242 0.73001 0.24637 0.0
H361 H 0.38598 0.76988 0.24605 0.0
H362 H 0.1552 0.91002 0.29092 0.0
H363 H 0.40307 0.82775 0.24427 0.0
H364 H 0.17789 0.06944 0.24245 0.0
N365 N 0.19574 0.94278 0.26428 0.0
C366 C 0.18 0.9712 0.26343 0.0
C367 C 0.16194 0.92753 0.28324 0.0
C368 C 0.1545 0.97892 0.27236 0.0
C369 C 0.18714 0.92105 0.27419 0.0
C370 C 0.14543 0.95653 0.2823 0.0
N371 N 0.2156 0.98484 0.24591 0.0
C372 C 0.22857 1.00685 0.23708 0.0
C373 C 0.17584 1.02359 0.25289 0.0
C374 C 0.19031 0.99305 0.25386 0.0
C375 C 0.18829 1.04572 0.24351 0.0
C376 C 0.21497 1.03738 0.23566 0.0
H377 H 0.12597 0.9615 0.28934 0.0
H378 H 0.11955 1.01519 0.27794 0.0
H379 H 0.13836 0.05447 0.26085 0.0
O380 O 0.28418 0.92709 0.25323 0.0
O381 O 0.21656 0.94355 0.2277 0.0
O382 O 0.23563 0.89857 0.23039 0.0
O383 O 0.25576 0.96614 0.26207 0.0
O384 O 0.27192 0.94898 0.23026 0.0
O385 O 0.29062 0.90297 0.21906 0.0
O386 O 0.23834 0.83199 0.21462 0.0
O387 O 0.27879 0.85481 0.25112 0.0
O388 O 0.24385 0.88908 0.26203 0.0
O389 O 0.28526 0.85 0.20987 0.0
O390 O 0.20859 0.85227 0.23505 0.0
O391 O 0.19133 0.89801 0.24707 0.0
C392 C 0.22145 0.91694 0.22164 0.0
C393 C 0.29754 0.94558 0.27555 0.0
C394 C 0.33777 0.96094 0.29249 0.0
C395 C 0.32127 0.94234 0.30233 0.0
C396 C 0.28052 0.92912 0.28573 0.0
C397 C 0.293 0.92645 0.29891 0.0
C398 C 0.32648 0.96077 0.27887 0.0
C399 C 0.29142 0.93566 0.22041 0.0
C400 C 0.28337 0.95107 0.26199 0.0
C401 C 0.13926 1.00889 0.27122 0.0
C402 C 0.14993 1.03122 0.26149 0.0
C403 C 0.26647 0.86593 0.26272 0.0
C404 C 0.2719 0.79715 0.20269 0.0
C405 C 0.25405 0.74274 0.19759 0.0
C406 C 0.28594 0.73201 0.19847 0.0
C407 C 0.30371 0.78619 0.20345 0.0
C408 C 0.24744 0.77534 0.19972 0.0
C409 C 0.3106 0.75371 0.20135 0.0
C410 C 0.18426 0.86869 0.24153 0.0
C411 C 0.26268 0.83015 0.20636 0.0
H412 H 0.32857 0.94196 0.31295 0.0
H413 H 0.25714 0.9192 0.28364 0.0
H414 H 0.27977 0.91357 0.30671 0.0
H415 H 0.33889 0.97433 0.27101 0.0
H416 H 0.2919 0.70705 0.19673 0.0
H417 H 0.32309 0.80242 0.20597 0.0
H418 H 0.22285 0.78377 0.19956 0.0
H419 H 0.3351 0.7453 0.20204 0.0
Tb420 Tb 0.40225 0.93159 0.49757 0.0
C421 C 0.51133 1.02448 0.49066 0.0
N422 N 0.48065 1.01592 0.48756 0.0
C423 C 0.4634 0.07018 0.49136 0.0
C424 C 0.51928 0.05633 0.49404 0.0
C425 C 0.45659 1.03818 0.48816 0.0
C426 C 0.49493 0.07942 0.4941 0.0
C427 C 0.56515 1.00722 0.49651 0.0
C428 C 0.53388 1.00021 0.492 0.0
C429 C 0.57381 1.03924 0.49905 0.0
C430 C 0.5509 0.06375 0.49785 0.0
Tb431 Tb 0.47529 0.96435 0.47961 0.0
N432 N 0.52419 0.96944 0.4899 0.0
C433 C 0.58643 0.98175 0.49869 0.0
C434 C 0.54464 0.94445 0.4923 0.0
C435 C 0.57602 0.95024 0.49671 0.0
H436 H 0.43202 1.03162 0.48636 0.0
H437 H 0.5923 0.93039 0.4984 0.0
H438 H 0.43801 0.89201 0.52373 0.0
H439 H 0.28189 0.92207 0.47747 0.0
H440 H 0.5375 0.92005 0.49036 0.0
H441 H 0.61075 0.98612 0.50209 0.0
H442 H 0.33578 0.94433 0.47941 0.0
H443 H 0.44427 0.08772 0.49176 0.0
H444 H 0.59785 1.04518 0.50237 0.0
H445 H 0.5576 0.08818 0.50032 0.0
H446 H 0.42462 0.85019 0.5401 0.0
H447 H 0.50001 0.10418 0.49668 0.0
H448 H 0.26499 0.87732 0.49248 0.0
N449 N 0.39226 0.89206 0.51373 0.0
C450 C 0.3631 0.87775 0.51333 0.0
C451 C 0.40695 0.8578 0.53266 0.0
C452 C 0.35458 0.85306 0.52257 0.0
C453 C 0.41426 0.88216 0.52329 0.0
C454 C 0.37698 0.84317 0.53232 0.0
N455 N 0.3508 0.91234 0.49527 0.0
C456 C 0.3294 0.92479 0.48605 0.0
C457 C 0.31057 0.87481 0.50301 0.0
C458 C 0.34158 0.88826 0.50371 0.0
C459 C 0.28902 0.88696 0.49336 0.0
C460 C 0.29846 0.9122 0.48489 0.0
H461 H 0.3714 0.8243 0.53959 0.0
H462 H 0.31703 0.82014 0.52882 0.0
H463 H 0.27832 0.83934 0.51165 0.0
O464 O 0.40973 0.98064 0.50121 0.0
O465 O 0.39382 0.91178 0.47699 0.0
O466 O 0.43813 0.93196 0.47888 0.0
O467 O 0.37172 0.95359 0.51164 0.0
O468 O 0.38597 0.96816 0.47982 0.0
O469 O 0.43134 0.99034 0.46952 0.0
O470 O 0.50878 0.94556 0.46582 0.0
O471 O 0.476 0.97814 0.50194 0.0
O472 O 0.44594 0.93855 0.51189 0.0
O473 O 0.48368 0.98912 0.46109 0.0
O474 O 0.48363 0.90879 0.48397 0.0
O475 O 0.43935 0.88897 0.49615 0.0
C476 C 0.41892 0.919 0.47008 0.0
C477 C 0.39494 0.99666 0.52367 0.0
C478 C 0.39058 1.04413 0.53822 0.0
C479 C 0.40316 1.02594 0.54919 0.0
C480 C 0.406 0.97878 0.53487 0.0
C481 C 0.41101 0.99366 0.54745 0.0
C482 C 0.38814 1.0294 0.52527 0.0
C483 C 0.39879 0.9894 0.4705 0.0
C484 C 0.38717 0.98097 0.51064 0.0
C485 C 0.32397 0.83915 0.52183 0.0
C486 C 0.30197 0.85003 0.51205 0.0
C487 C 0.46727 0.96263 0.51318 0.0
C488 C 0.53945 0.98809 0.45679 0.0
C489 C 0.59762 0.98801 0.4602 0.0
C490 C 0.59856 1.01988 0.45529 0.0
C491 C 0.54101 1.0197 0.45189 0.0
C492 C 0.56766 0.97288 0.46113 0.0
C493 C 0.57043 1.03557 0.4513 0.0
C494 C 0.46861 0.88349 0.49037 0.0
C495 C 0.50846 0.97136 0.45831 0.0
H496 H 0.40507 1.03581 0.5594 0.0
H497 H 0.41049 0.95328 0.53394 0.0
H498 H 0.41971 0.97977 0.55606 0.0
H499 H 0.37923 1.04279 0.51655 0.0
H500 H 0.62095 1.03254 0.45395 0.0
H501 H 0.51954 1.03219 0.44865 0.0
H502 H 0.56602 0.94897 0.46529 0.0
H503 H 0.57154 0.05994 0.44747 0.0
Tb504 Tb 0.40031 0.21971 0.74969 0.0
C505 C 0.30705 0.30751 0.75542 0.0
N506 N 0.31841 0.28178 0.74819 0.0
C507 C 0.27182 0.25151 0.75495 0.0
C508 C 0.27732 0.30632 0.76234 0.0
C509 C 0.3015 0.25366 0.74836 0.0
C510 C 0.2594 0.27808 0.76177 0.0
C511 C 0.31691 0.36039 0.76511 0.0
C512 C 0.32664 0.33424 0.75695 0.0
C513 C 0.2867 0.35981 0.77142 0.0
C514 C 0.26698 0.33283 0.77006 0.0
Tb515 Tb 0.36604 0.29199 0.73665 0.0
N516 N 0.35626 0.33355 0.75117 0.0
C517 C 0.33821 0.386 0.76695 0.0
C518 C 0.37732 0.35829 0.75303 0.0
C519 C 0.36859 0.38485 0.76094 0.0
H520 H 0.31077 0.23217 0.74404 0.0
H521 H 0.38519 0.40454 0.76229 0.0
H522 H 0.47127 0.19962 0.7371 0.0
H523 H 0.29778 0.14787 0.76489 0.0
H524 H 0.40058 0.35779 0.74815 0.0
H525 H 0.33156 0.40656 0.77312 0.0
H526 H 0.32892 0.19748 0.76279 0.0
H527 H 0.25874 0.22908 0.75495 0.0
H528 H 0.27871 0.37974 0.77768 0.0
H529 H 0.24411 0.33234 0.77534 0.0
H530 H 0.49703 0.15105 0.72763 0.0
H531 H 0.23654 0.27615 0.76699 0.0
H532 H 0.31921 0.0969 0.75571 0.0
N533 N 0.42721 0.17604 0.74156 0.0
C534 C 0.41092 0.14784 0.74175 0.0
C535 C 0.47276 0.14985 0.73153 0.0
C536 C 0.42491 0.11939 0.73672 0.0
C537 C 0.45801 0.17735 0.73682 0.0
C538 C 0.45608 0.12077 0.73141 0.0
N539 N 0.36816 0.17542 0.75235 0.0
C540 C 0.33887 0.17569 0.75869 0.0
C541 C 0.36336 0.11837 0.74848 0.0
C542 C 0.3806 0.14736 0.74755 0.0
C543 C 0.33317 0.1187 0.75474 0.0
C544 C 0.32099 0.14744 0.75993 0.0
H545 H 0.46766 0.09947 0.7274 0.0
H546 H 0.41785 0.06841 0.73352 0.0
H547 H 0.36397 0.0675 0.74385 0.0
O548 O 0.42491 0.19015 0.76368 0.0
O549 O 0.42374 0.23401 0.73075 0.0
O550 O 0.38711 0.26587 0.71978 0.0
O551 O 0.42 0.24097 0.76728 0.0
O552 O 0.36142 0.20276 0.73387 0.0
O553 O 0.34206 0.2492 0.72414 0.0
O554 O 0.37778 0.33206 0.72442 0.0
O555 O 0.37796 0.29246 0.75931 0.0
O556 O 0.36276 0.24273 0.76371 0.0
O557 O 0.32933 0.31586 0.72592 0.0
O558 O 0.4214 0.30278 0.73942 0.0
O559 O 0.44337 0.25377 0.74541 0.0
C560 C 0.41319 0.24887 0.71983 0.0
C561 C 0.41681 0.20756 0.78646 0.0
C562 C 0.381 0.17942 0.80219 0.0
C563 C 0.39488 0.19634 0.81317 0.0
C564 C 0.43029 0.22425 0.79747 0.0
C565 C 0.41912 0.21882 0.81077 0.0
C566 C 0.39167 0.18605 0.78884 0.0
C567 C 0.34232 0.21634 0.72425 0.0
C568 C 0.4283 0.21343 0.77246 0.0
C569 C 0.40758 0.09053 0.73738 0.0
C570 C 0.3769 0.09 0.74327 0.0
C571 C 0.36483 0.27267 0.7683 0.0
C572 C 0.33737 0.37205 0.72591 0.0
C573 C 0.35193 0.42807 0.7301 0.0
C574 C 0.32156 0.43354 0.73584 0.0
C575 C 0.30671 0.37822 0.73135 0.0
C576 C 0.35936 0.39723 0.72509 0.0
C577 C 0.29907 0.40869 0.7364 0.0
C578 C 0.448 0.28537 0.74277 0.0
C579 C 0.34787 0.33917 0.72213 0.0
H580 H 0.38786 0.1916 0.82365 0.0
H581 H 0.44939 0.24141 0.79578 0.0
H582 H 0.42971 0.23161 0.81927 0.0
H583 H 0.38074 0.17414 0.78023 0.0
H584 H 0.31494 0.45719 0.73947 0.0
H585 H 0.28897 0.35933 0.73209 0.0
H586 H 0.38231 0.39268 0.72025 0.0
H587 H 0.27559 0.41307 0.74075 0.0
Tb588 Tb 0.13509 0.09196 0.99509 0.0
C589 C 1.02517 1.00244 0.98657 0.0
N590 N 0.05551 1.01195 0.98323 0.0
C591 C 0.07444 0.95816 0.98707 0.0
C592 C 1.01823 0.97015 0.98977 0.0
C593 C 0.08026 0.99045 0.98403 0.0
C594 C 1.04325 0.94782 0.98969 0.0
C595 C 0.97045 1.01731 0.99244 0.0
C596 C 1.00153 1.02576 0.98806 0.0
C597 C 0.96304 0.98491 0.99481 0.0
C598 C 0.98689 0.9614 0.99352 0.0
Tb599 Tb 0.05904 0.06506 0.97684 0.0
N600 N 1.00995 0.05704 0.98637 0.0
C601 C 0.94808 1.04179 0.99472 0.0
C602 C 0.98852 0.08106 0.98892 0.0
C603 C 0.95725 0.0738 0.99306 0.0
H604 H 0.10474 0.99756 0.98259 0.0
H605 H 0.94018 0.09291 0.99489 0.0
H606 H 0.097 0.12981 1.02103 0.0
H607 H 0.25534 0.10561 0.97564 0.0
H608 H 0.99512 0.10584 0.9875 0.0
H609 H 0.9239 1.03628 0.99803 0.0
H610 H 0.19994 0.0858 0.97578 0.0
H611 H 0.09415 0.94127 0.98751 0.0
H612 H 0.93921 0.9779 0.99807 0.0
H613 H 0.98108 0.93664 0.99586 0.0
H614 H 0.11088 0.16532 1.03992 0.0
H615 H 1.03894 0.92282 0.99214 0.0
H616 H 0.27401 0.14217 0.99391 0.0
N617 N 0.14469 0.1272 1.0129 0.0
C618 C 0.17478 0.13923 1.01388 0.0
C619 C 0.12925 0.15789 1.03275 0.0
C620 C 0.18361 0.16044 1.02448 0.0
C621 C 0.12167 0.13704 1.02202 0.0
C622 C 0.16044 0.16943 1.03408 0.0
N623 N 0.18665 0.11081 0.99395 0.0
C624 C 0.20747 0.10169 0.98384 0.0
C625 C 0.22818 0.14274 1.00435 0.0
C626 C 0.19657 0.13078 1.00399 0.0
C627 C 0.24952 0.13352 0.99402 0.0
C628 C 0.23906 0.11292 0.9837 0.0
H629 H 0.1662 0.1857 1.04236 0.0
H630 H 0.22236 0.18855 1.03311 0.0
H631 H 0.26156 0.17287 1.01546 0.0
O632 O 0.12381 1.04321 0.99775 0.0
O633 O 0.14203 0.11686 0.97555 0.0
O634 O 0.10051 0.09012 0.97725 0.0
O635 O 0.16839 0.06447 1.00565 0.0
O636 O 0.14994 0.05814 0.97622 0.0
O637 O 0.10265 1.03848 0.96611 0.0
O638 O 1.04456 0.09548 0.96098 0.0
O639 O 0.05227 0.05686 0.99964 0.0
O640 O 0.09572 0.0799 1.0108 0.0
O641 O 1.03193 1.04596 0.96041 0.0
O642 O 0.05102 0.11827 0.98367 0.0
O643 O 0.09847 0.13581 0.99417 0.0
C644 C 0.11627 0.10951 0.96934 0.0
C645 C 0.14849 1.0197 1.01776 0.0
C646 C 0.17656 0.99917 1.03788 0.0
C647 C 0.14803 0.98505 1.04252 0.0
C648 C 0.12048 1.00401 1.02212 0.0
C649 C 0.12019 0.98718 1.03456 0.0
C650 C 0.17651 1.01641 1.02556 0.0
C651 C 0.1356 1.03841 0.96677 0.0
C652 C 0.15017 1.03874 1.005 0.0
C653 C 0.21509 0.17232 1.02503 0.0
C654 C 0.23738 0.16346 1.01497 0.0
C655 C 0.06768 0.06385 1.01123 0.0
C656 C 0.99137 0.08393 0.95519 0.0
C657 C 0.94976 0.12371 0.96052 0.0
C658 C 0.92638 0.10085 0.95682 0.0
C659 C 0.96766 0.06173 0.95156 0.0
C660 C 0.98213 0.11474 0.95964 0.0
C661 C 0.93534 0.07019 0.95244 0.0
C662 C 0.0683 0.14254 0.98942 0.0
C663 C 1.02549 0.0744 0.95571 0.0
H664 H 0.14747 0.97196 1.05211 0.0
H665 H 0.09892 1.00471 1.01599 0.0
H666 H 0.09836 0.97568 1.038 0.0
H667 H 0.1985 1.02776 1.02211 0.0
H668 H 0.90113 0.10674 0.95686 0.0
H669 H 0.9741 1.03774 0.94829 0.0
H670 H 1.00034 0.13151 0.96288 0.0
H671 H 0.91711 0.05296 0.94961 0.0
Tb672 Tb 0.80709 0.79478 0.72635 0.0
C673 C 0.90335 0.89392 0.75411 0.0
N674 N 0.87977 0.87404 0.75847 0.0
C675 C 0.90996 0.86265 0.77886 0.0
C676 C 0.93177 0.89818 0.76168 0.0
C677 C 0.88225 0.8592 0.77093 0.0
C678 C 0.93506 0.88186 0.77412 0.0
C679 C 0.92107 0.93323 0.73757 0.0
C680 C 0.89805 0.91108 0.74234 0.0
C681 C 0.9502 0.93657 0.74463 0.0
C682 C 0.95551 0.91911 0.75671 0.0
Tb683 Tb 0.83727 0.86613 0.74394 0.0
N684 N 0.86937 0.90741 0.73606 0.0
C685 C 0.91371 0.95194 0.7261 0.0
C686 C 0.8613 0.92732 0.72542 0.0
C687 C 0.88345 0.94934 0.72015 0.0
H688 H 0.86321 0.84434 0.77481 0.0
H689 H 0.87715 0.96427 0.71148 0.0
H690 H 0.73012 0.81789 0.72876 0.0
H691 H 0.86348 0.67967 0.73702 0.0
H692 H 0.83807 0.92604 0.72066 0.0
H693 H 0.9308 0.96907 0.72202 0.0
H694 H 0.86032 0.73332 0.72701 0.0
H695 H 0.91194 0.85043 0.78862 0.0
H696 H 0.96835 0.9532 0.74106 0.0
H697 H 0.9777 0.92248 0.76228 0.0
H698 H 0.67961 0.79548 0.73729 0.0
H699 H 0.95649 0.88449 0.78028 0.0
H700 H 0.8164 0.65624 0.7487 0.0
N701 N 0.75843 0.77733 0.73458 0.0
C702 C 0.75794 0.74702 0.73983 0.0
C703 C 0.70151 0.78167 0.73813 0.0
C704 C 0.72935 0.73342 0.74496 0.0
C705 C 0.73041 0.79429 0.73325 0.0
C706 C 0.701 0.75124 0.74411 0.0
N707 N 0.81289 0.74291 0.73426 0.0
C708 C 0.84005 0.72469 0.73274 0.0
C709 C 0.78668 0.69816 0.7454 0.0
C710 C 0.78626 0.72964 0.74002 0.0
C711 C 0.81511 0.68047 0.74468 0.0
C712 C 0.84174 0.69365 0.73814 0.0
H713 H 0.67857 0.74162 0.74793 0.0
H714 H 0.70828 0.69181 0.75481 0.0
H715 H 0.75851 0.66092 0.75521 0.0
O716 O 0.80062 0.75611 0.71275 0.0
O717 O 0.78583 0.80293 0.74742 0.0
O718 O 0.82897 0.82247 0.75786 0.0
O719 O 0.79199 0.80455 0.70621 0.0
O720 O 0.86199 0.7874 0.73253 0.0
O721 O 0.88159 0.83257 0.7434 0.0
O722 O 0.82729 0.90768 0.75517 0.0
O723 O 0.83921 0.86562 0.72188 0.0
O724 O 0.85152 0.81427 0.71811 0.0
O725 O 0.79216 0.86938 0.75349 0.0
O726 O 0.80182 0.8837 0.72667 0.0
O727 O 0.7767 0.83857 0.71849 0.0
C728 C 0.80223 0.80528 0.75893 0.0
C729 C 0.82216 0.77244 0.69172 0.0
C730 C 0.87928 0.7677 0.68678 0.0
C731 C 0.87305 0.77577 0.67302 0.0
C732 C 0.81619 0.78066 0.67805 0.0
C733 C 0.84165 0.7822 0.66872 0.0
C734 C 0.85358 0.76603 0.6959 0.0
C735 C 0.88729 0.80275 0.73865 0.0
C736 C 0.79736 0.77523 0.7023 0.0
C737 C 0.72992 0.70251 0.7507 0.0
C738 C 0.75855 0.68497 0.75096 0.0
C739 C 0.85414 0.84426 0.71476 0.0
C740 C 0.79167 0.90153 0.77357 0.0
C741 C 0.77672 0.93879 0.79179 0.0
C742 C 0.78344 0.91452 0.80147 0.0
C743 C 0.79838 0.87788 0.78334 0.0
C744 C 0.77996 0.93141 0.77778 0.0
C745 C 0.79375 0.8842 0.79722 0.0
C746 C 0.77854 0.87103 0.71856 0.0
C747 C 0.79924 0.89707 0.75902 0.0
H748 H 0.89218 0.77648 0.66552 0.0
H749 H 0.79214 0.78655 0.67471 0.0
H750 H 0.83709 0.78855 0.65815 0.0
H751 H 0.85822 0.76073 0.70653 0.0
H752 H 0.782 0.9191 0.81236 0.0
H753 H 0.80779 0.85491 0.78027 0.0
H754 H 0.77437 0.94917 0.77003 0.0
H755 H 0.79922 0.86589 0.80475 0.0
Tb756 Tb 1.03056 0.11489 0.48527 0.0
C757 C 0.9172 0.21213 0.51233 0.0
N758 N 0.94335 0.19387 0.51507 0.0
C759 C 0.95527 0.22764 0.53441 0.0
C760 C 0.90909 0.23898 0.52043 0.0
C761 C 0.96228 0.20126 0.52608 0.0
C762 C 0.92864 0.2467 0.53155 0.0
C763 C 0.8699 0.22069 0.49851 0.0
C764 C 0.89801 0.20324 0.50157 0.0
C765 C 0.86201 0.24786 0.50632 0.0
C766 C 0.88159 0.25699 0.51727 0.0
Tb767 Tb 0.95401 0.15239 0.50011 0.0
N768 N 0.90636 0.17674 0.4944 0.0
C769 C 0.85032 0.21001 0.48785 0.0
C770 C 0.88666 0.16565 0.48425 0.0
C771 C 0.85864 0.18219 0.48076 0.0
H772 H 0.9833 0.18757 0.52856 0.0
H773 H 0.84347 0.17344 0.47259 0.0
H774 H 0.98913 1.04597 0.48905 0.0
H775 H 0.14248 0.15287 0.50799 0.0
H776 H 0.89246 0.14433 0.47859 0.0
H777 H 0.82857 0.22275 0.48515 0.0
H778 H 0.0907 0.16107 0.49673 0.0
H779 H 0.97056 0.23333 0.54302 0.0
H780 H 0.84062 0.26168 0.50408 0.0
H781 H 0.87507 0.27776 0.52334 0.0
H782 H 1.0013 0.99053 0.49575 0.0
H783 H 0.92328 0.26711 0.53802 0.0
H784 H 0.15967 0.09831 0.51476 0.0
N785 N 1.03579 0.06374 0.49373 0.0
C786 C 0.06526 0.05647 0.49889 0.0
C787 C 1.01956 1.00886 0.49662 0.0
C788 C 0.07301 1.02506 0.5031 0.0
C789 C 1.01282 1.04048 0.49271 0.0
C790 C 0.04987 1.00103 0.50169 0.0
N791 N 0.07708 0.11176 0.49766 0.0
C792 C 0.09697 0.13722 0.49999 0.0
C793 C 0.11622 0.07572 0.50748 0.0
C794 C 0.08646 0.08152 0.50113 0.0
C795 C 0.13651 0.10176 0.50997 0.0
C796 C 0.12678 0.13262 0.50624 0.0
H797 H 0.05486 0.97656 0.50481 0.0
H798 H 0.10962 0.99492 0.51222 0.0
H799 H 0.14754 1.03926 0.51598 0.0
O800 O 0.06604 0.13234 0.47189 0.0
O801 O 1.02456 0.101 0.50731 0.0
O802 O 0.99579 0.14344 0.51568 0.0
O803 O 1.04098 0.08868 0.46735 0.0
O804 O 1.03845 0.17113 0.48902 0.0
O805 O 0.99255 0.19332 0.49938 0.0
O806 O 0.95582 0.10401 0.50617 0.0
O807 O 0.95315 0.17062 0.4788 0.0
O808 O 0.99272 0.14416 0.48415 0.0
O809 O 0.9172 0.13627 0.5128 0.0
O810 O 0.93937 0.11489 0.48261 0.0
O811 O 0.98602 0.09052 0.47416 0.0
C812 C 1.01556 0.11817 0.51801 0.0
C813 C 0.09771 0.08716 0.46676 0.0
C814 C 0.15398 0.08949 0.47403 0.0
C815 C 0.15335 0.05619 0.47639 0.0
C816 C 0.09813 0.05369 0.46868 0.0
C817 C 0.12576 1.03843 0.47351 0.0
C818 C 0.12598 0.10444 0.46899 0.0
C819 C 1.02269 0.19755 0.49433 0.0
C820 C 0.06713 0.10507 0.46539 0.0
C821 C 0.10309 1.01896 0.50901 0.0
C822 C 0.12464 1.04424 0.5112 0.0
C823 C 0.9801 0.16059 0.47442 0.0
C824 C 0.93103 0.09439 0.52774 0.0
C825 C 0.90646 0.05821 0.54442 0.0
C826 C 0.92371 0.07392 0.55488 0.0
C827 C 0.94691 0.11042 0.53834 0.0
C828 C 0.91189 0.06772 0.53075 0.0
C829 C 0.94413 0.09947 0.55179 0.0
C830 C 0.95311 0.09263 0.47407 0.0
C831 C 0.93009 0.10763 0.51384 0.0
H832 H 0.17426 1.04374 0.48025 0.0
H833 H 0.07668 1.0395 0.46718 0.0
H834 H 0.12556 1.01278 0.47531 0.0
H835 H 0.12564 0.12995 0.46688 0.0
H836 H 0.92017 0.06799 0.56556 0.0
H837 H 0.9605 0.13195 0.53634 0.0
H838 H 0.89976 0.05574 0.5224 0.0
H839 H 0.95646 0.11195 0.55994 0.0
Tb840 Tb 0.73139 0.22446 0.23129 0.0
C841 C 0.63703 0.11209 0.26091 0.0
N842 N 0.65366 0.13974 0.26253 0.0
C843 C 0.61936 0.15377 0.2815 0.0
C844 C 0.61083 0.10415 0.26944 0.0
C845 C 0.64518 0.1605 0.2728 0.0
C846 C 0.60201 0.12552 0.27979 0.0
C847 C 0.63125 0.06164 0.24902 0.0
C848 C 0.64694 0.09131 0.2509 0.0
C849 C 0.60477 0.05377 0.25726 0.0
C850 C 0.59456 0.07502 0.26747 0.0
Tb851 Tb 0.69488 0.1495 0.24722 0.0
N852 N 0.67275 0.09975 0.24329 0.0
C853 C 0.64296 1.04058 0.23907 0.0
C854 C 0.68477 0.07874 0.23381 0.0
C855 C 0.67 0.04911 0.2315 0.0
H856 H 0.65749 0.18283 0.27436 0.0
H857 H 0.67956 1.03284 0.22389 0.0
H858 H 0.79879 0.18256 0.23829 0.0
H859 H 0.69463 0.34327 0.24716 0.0
H860 H 0.70565 0.08444 0.22785 0.0
H861 H 0.63162 1.01757 0.2373 0.0
H862 H 0.68601 0.28867 0.23849 0.0
H863 H 0.6128 0.17051 0.28949 0.0
H864 H 0.59231 1.03117 0.25593 0.0
H865 H 0.57432 0.06857 0.27387 0.0
H866 H 0.8538 0.19531 0.24529 0.0
H867 H 0.58204 0.12035 0.28655 0.0
H868 H 0.74901 0.36098 0.25376 0.0
N869 N 0.78183 0.2307 0.24026 0.0
C870 C 0.78942 0.26137 0.24386 0.0
C871 C 0.83592 0.21413 0.24487 0.0
C872 C 0.82057 0.26951 0.24819 0.0
C873 C 0.8046 0.20705 0.24077 0.0
C874 C 0.84403 0.24551 0.24847 0.0
N875 N 0.73487 0.27453 0.24071 0.0
C876 C 0.70972 0.29545 0.24173 0.0
C877 C 0.77099 0.31516 0.24913 0.0
C878 C 0.76492 0.28387 0.24434 0.0
C879 C 0.74536 0.33671 0.25012 0.0
C880 C 0.71459 0.32673 0.24647 0.0
H881 H 0.86827 0.25079 0.25174 0.0
H882 H 0.85085 0.30779 0.25578 0.0
H883 H 0.80743 0.34777 0.25661 0.0
O884 O 0.72314 0.26179 0.21709 0.0
O885 O 0.74592 0.22047 0.25326 0.0
O886 O 0.70319 0.19281 0.26201 0.0
O887 O 0.75286 0.22133 0.21191 0.0
O888 O 0.67507 0.2332 0.23538 0.0
O889 O 0.65307 0.18771 0.24626 0.0
O890 O 0.74368 0.15413 0.25198 0.0
O891 O 0.67919 0.14529 0.22556 0.0
O892 O 0.69908 0.18847 0.23111 0.0
O893 O 0.71391 0.11648 0.26114 0.0
O894 O 0.73129 0.13369 0.22954 0.0
O895 O 0.75759 0.17964 0.22165 0.0
C896 C 0.72857 0.21247 0.26406 0.0
C897 C 0.77016 0.27212 0.20451 0.0
C898 C 0.78596 0.32137 0.19311 0.0
C899 C 0.81723 0.31797 0.19811 0.0
C900 C 0.80183 0.2682 0.20919 0.0
C901 C 0.82518 0.29114 0.20603 0.0
C902 C 0.76259 0.29844 0.19634 0.0
C903 C 0.64873 0.21786 0.24108 0.0
C904 C 0.74427 0.25027 0.2086 0.0
C905 C 0.827 0.301 0.2525 0.0
C906 C 0.80226 0.32376 0.25299 0.0
C907 C 0.68611 0.17323 0.2211 0.0
C908 C 0.75595 0.13754 0.27454 0.0
C909 C 0.80165 0.13304 0.29005 0.0
C910 C 0.78237 0.14583 0.30062 0.0
C911 C 0.737 0.14908 0.28532 0.0
C912 C 0.78833 0.13034 0.27684 0.0
C913 C 0.75043 0.15395 0.2982 0.0
C914 C 0.75443 0.147 0.22133 0.0
C915 C 0.7419 0.13089 0.26106 0.0
H916 H 0.83534 0.33582 0.19582 0.0
H917 H 0.80848 0.24772 0.21539 0.0
H918 H 0.84938 0.28824 0.20982 0.0
H919 H 0.73813 0.30161 0.1928 0.0
H920 H 0.79113 0.14784 0.311 0.0
H921 H 0.71182 0.15424 0.28381 0.0
H922 H 0.80261 0.12124 0.26842 0.0
H923 H 0.73572 0.16298 0.30649 0.0
Tb924 Tb 0.60777 1.02391 0.9799 0.0
C925 C 0.72008 0.93966 1.01441 0.0
N926 N 0.69168 0.9554 1.01524 0.0
C927 C 0.67649 0.92161 1.03423 0.0
C928 C 0.72784 0.91421 1.02338 0.0
C929 C 0.66996 0.94674 1.02513 0.0
C930 C 0.70551 0.90518 1.03334 0.0
C931 C 0.77227 0.93523 1.00378 0.0
C932 C 0.74182 0.94983 1.00478 0.0
C933 C 0.77996 0.90944 1.01245 0.0
C934 C 0.75775 0.89892 1.02225 0.0
Tb935 Tb 0.68269 0.99536 0.99923 0.0
N936 N 0.73355 0.97501 0.99675 0.0
C937 C 0.79424 0.94742 0.99429 0.0
C938 C 0.75539 0.98764 0.98777 0.0
C939 C 0.78582 0.97392 0.98632 0.0
H940 H 0.64701 0.95827 1.02601 0.0
H941 H 0.8028 0.9839 0.97908 0.0
H942 H 0.65084 0.08949 0.98829 0.0
H943 H 0.4843 0.99464 0.9897 0.0
H944 H 0.7496 1.0082 0.98158 0.0
H945 H 0.81788 0.93692 0.99319 0.0
H946 H 0.54122 0.98252 0.98503 0.0
H947 H 0.65899 0.91485 1.04191 0.0
H948 H 0.80315 0.89779 1.0118 0.0
H949 H 0.76408 0.87926 1.029 0.0
H950 H 0.6393 0.14593 0.99367 0.0
H951 H 0.71051 0.88575 1.04042 0.0
H952 H 0.46711 0.05073 0.99372 0.0
N953 N 0.60169 0.07591 0.98705 0.0
C954 C 0.57077 0.08539 0.98893 0.0
C955 C 0.61978 0.12918 0.99223 0.0
C956 C 0.56307 0.11735 0.99226 0.0
C957 C 0.62623 0.09709 0.98901 0.0
C958 C 0.58806 0.13948 0.99366 0.0
N959 N 0.55614 1.03115 0.98669 0.0
C960 C 0.53412 1.00698 0.98705 0.0
C961 C 0.51498 0.07014 0.9915 0.0
C962 C 0.54714 0.06208 0.98877 0.0
C963 C 0.49214 1.04554 0.99173 0.0
C964 C 0.50179 1.01381 0.98955 0.0
H965 H 0.5832 0.16429 0.99625 0.0
H966 H 0.52442 0.15037 0.99698 0.0
H967 H 0.48224 0.10906 0.99615 0.0
O968 O 0.58265 0.99703 0.96538 0.0
O969 O 0.60148 1.0366 1.00224 0.0
O970 O 0.63817 1.00358 1.01307 0.0
O971 O 0.59887 1.04465 0.96059 0.0
O972 O 0.6001 0.9698 0.98647 0.0
O973 O 0.64613 0.95184 0.99814 0.0
O974 O 0.67563 1.04373 1.00457 0.0
O975 O 0.69147 0.97515 0.97878 0.0
O976 O 0.64766 0.99701 0.98162 0.0
O977 O 0.71566 1.01563 1.01271 0.0
O978 O 0.69805 1.03134 0.98105 0.0
O979 O 0.65209 0.05059 0.96996 0.0
C980 C 0.61356 1.02468 1.01379 0.0
C981 C 0.54783 1.02853 0.95232 0.0
C982 C 0.4953 1.00861 0.94548 0.0
C983 C 0.48332 1.04016 0.94595 0.0
C984 C 0.53553 0.05993 0.95273 0.0
C985 C 0.50341 0.06562 0.94952 0.0
C986 C 0.52766 1.00317 0.94859 0.0
C987 C 0.61649 0.94539 0.99283 0.0
C988 C 0.5806 1.02093 0.95688 0.0
C989 C 0.53089 0.12584 0.99455 0.0
C990 C 0.50687 0.10229 0.99412 0.0
C991 C 0.66478 0.98099 0.973 0.0
C992 C 0.6954 0.05632 1.02681 0.0
C993 C 0.7135 0.09363 1.04451 0.0
C994 C 0.69414 0.07706 1.05407 0.0
C995 C 0.67827 1.0391 1.03672 0.0
C996 C 0.71225 0.08401 1.03065 0.0
C997 C 0.67652 0.05022 1.05013 0.0
C998 C 0.6848 0.05085 0.97117 0.0
C999 C 0.70018 1.04302 1.01303 0.0
H1000 H 0.45854 1.0452 0.94344 0.0
H1001 H 0.55046 0.07995 0.95576 0.0
H1002 H 0.49399 0.08982 0.9499 0.0
H1003 H 0.53702 0.97887 0.94862 0.0
H1004 H 0.69436 0.08295 0.06485 0.0
H1005 H 0.66734 1.01641 1.03427 0.0
H1006 H 0.72618 0.09653 1.02295 0.0
H1007 H 0.66311 1.0368 1.05772 0.0
Tb1008 Tb 0.86019 0.28047 0.89054 0.0
C1009 C 0.9577 0.17107 0.8624 0.0
N1010 N 0.9389 0.1968 0.85957 0.0
C1011 C 0.97386 0.2108 0.84085 0.0
C1012 C 0.98556 0.16433 0.85471 0.0
C1013 C 0.94635 0.21631 0.84871 0.0
C1014 C 0.99373 0.18486 0.84392 0.0
C1015 C 0.9653 0.12221 0.8754 0.0
C1016 C 0.94789 0.15049 0.87257 0.0
C1017 C 0.99372 0.11588 0.86815 0.0
C1018 C 1.00386 0.13695 0.85782 0.0
Tb1019 Tb 0.89587 0.20531 0.87397 0.0
N1020 N 0.92009 0.15726 0.87912 0.0
C1021 C 0.95309 0.10074 0.88511 0.0
C1022 C 0.90725 0.13553 0.88811 0.0
C1023 C 0.92371 0.10726 0.89137 0.0
H1024 H 0.93176 0.23668 0.84608 0.0
H1025 H 0.91366 0.0905 0.89868 0.0
H1026 H 0.78743 0.24593 0.88863 0.0
H1027 H 0.90702 0.38601 0.86477 0.0
H1028 H 0.88453 0.14 0.89298 0.0
H1029 H 0.96571 0.07874 0.88758 0.0
H1030 H 0.91128 0.33481 0.87681 0.0
H1031 H 0.97972 0.22664 0.83241 0.0
H1032 H 1.00759 0.09443 0.87024 0.0
H1033 H 1.02545 0.13148 0.85209 0.0
H1034 H 0.73309 0.26282 0.88236 0.0
H1035 H 1.01493 0.18057 0.83777 0.0
H1036 H 0.85389 0.40821 0.85884 0.0
N1037 N 0.8094 0.28992 0.88251 0.0
C1038 C 0.80461 0.31962 0.87701 0.0
C1039 C 0.75303 0.27904 0.88082 0.0
C1040 C 0.77382 0.33006 0.87311 0.0
C1041 C 0.7841 0.26955 0.8844 0.0
C1042 C 0.74781 0.30949 0.87526 0.0
N1043 N 0.86079 0.32626 0.87739 0.0
C1044 C 0.88779 0.3432 0.8741 0.0
C1045 C 0.8279 0.36794 0.86739 0.0
C1046 C 0.83134 0.33826 0.87418 0.0
C1047 C 0.85549 0.38527 0.86404 0.0
C1048 C 0.88553 0.37271 0.86731 0.0
H1049 H 0.72374 0.31663 0.87241 0.0
H1050 H 0.74665 0.36877 0.86385 0.0
H1051 H 0.79402 0.40197 0.85885 0.0
O1052 O 0.87732 0.31639 0.90365 0.0
O1053 O 0.84433 0.27444 0.86857 0.0
O1054 O 0.88727 0.24857 0.85935 0.0
O1055 O 0.8343 0.29075 0.90862 0.0
O1056 O 0.91673 0.28655 0.88835 0.0
O1057 O 0.93666 0.24449 0.87478 0.0
O1058 O 0.84825 0.20545 0.86688 0.0
O1059 O 0.91228 0.19958 0.89529 0.0
O1060 O 0.89105 0.24281 0.89144 0.0
O1061 O 0.88278 0.16885 0.86053 0.0
O1062 O 0.85717 0.19032 0.89109 0.0
O1063 O 0.83484 0.23624 0.90102 0.0
C1064 C 0.86146 0.26758 0.85752 0.0
C1065 C 0.83223 0.34769 0.90902 0.0
C1066 C 0.83366 0.40359 0.90108 0.0
C1067 C 0.80015 0.40309 0.89967 0.0
C1068 C 0.79863 0.34803 0.9079 0.0
C1069 C 0.78279 0.37559 0.90324 0.0
C1070 C 0.84918 0.37588 0.90606 0.0
C1071 C 0.94208 0.2726 0.88153 0.0
C1072 C 0.85038 0.3172 0.91037 0.0
C1073 C 0.77015 0.36019 0.86682 0.0
C1074 C 0.79714 0.37907 0.86396 0.0
C1075 C 0.90466 0.2261 0.90091 0.0
C1076 C 0.84201 0.18122 0.84497 0.0
C1077 C 0.81132 0.15359 0.82729 0.0
C1078 C 0.82626 0.17319 0.81734 0.0
C1079 C 0.85738 0.19958 0.83491 0.0
C1080 C 0.81825 0.1593 0.84119 0.0
C1081 C 0.8487 0.19634 0.8212 0.0
C1082 C 0.83571 0.2035 0.90019 0.0
C1083 C 0.85378 0.18035 0.85909 0.0
H1084 H 0.78734 0.42402 0.89602 0.0
H1085 H 0.78471 0.32662 0.90994 0.0
H1086 H 0.75698 0.3754 0.90213 0.0
H1087 H 0.87491 0.37582 0.90753 0.0
H1088 H 0.82222 0.16961 0.80652 0.0
H1089 H 0.87686 0.2154 0.83756 0.0
H1090 H 0.80671 0.14532 0.84915 0.0
H1091 H 0.8607 0.21055 0.81345 0.0
Tb1092 Tb 0.55266 0.0516 0.64135 0.0
C1093 C 0.65254 0.14836 0.61371 0.0
N1094 N 0.63257 0.12484 0.60943 0.0
C1095 C 0.62183 0.15478 0.58887 0.0
C1096 C 0.65725 0.1766 0.60599 0.0
C1097 C 0.61795 0.12726 0.59694 0.0
C1098 C 0.64122 0.17979 0.59349 0.0
C1099 C 0.69154 0.1662 0.63026 0.0
C1100 C 0.66934 0.1432 0.62556 0.0
C1101 C 0.69539 0.19511 0.62301 0.0
C1102 C 0.67829 0.20028 0.61085 0.0
Tb1103 Tb 0.62387 0.08269 0.62419 0.0
N1104 N 0.66519 0.11472 0.63202 0.0
C1105 C 0.70974 0.15906 0.64188 0.0
C1106 C 0.68455 0.1069 0.64286 0.0
C1107 C 0.70656 0.12906 0.64807 0.0
H1108 H 0.60296 0.10833 0.59311 0.0
H1109 H 0.72107 0.12292 0.65688 0.0
H1110 H 0.57111 0.97421 0.63772 0.0
H1111 H 0.43846 0.11291 0.63545 0.0
H1112 H 0.68295 0.08388 0.64783 0.0
H1113 H 0.7269 0.17612 0.6459 0.0
H1114 H 0.49291 0.10591 0.64433 0.0
H1115 H 0.60981 0.15668 0.57908 0.0
H1116 H 0.71208 0.21321 0.62653 0.0
H1117 H 0.68202 0.22231 0.60516 0.0
H1118 H 0.54627 0.92571 0.62807 0.0
H1119 H 0.64419 0.20107 0.58723 0.0
H1120 H 0.41279 0.0696 0.62213 0.0
N1121 N 0.53238 1.00509 0.63221 0.0
C1122 C 0.50205 1.00674 0.62718 0.0
C1123 C 0.53369 0.94842 0.62764 0.0
C1124 C 0.48701 0.97957 0.62148 0.0
C1125 C 0.54771 0.97605 0.63312 0.0
C1126 C 0.5034 0.95025 0.62163 0.0
N1127 N 0.50025 0.06026 0.63487 0.0
C1128 C 0.48299 0.08731 0.63795 0.0
C1129 C 0.45396 1.03808 0.62343 0.0
C1130 C 0.48576 1.03554 0.62823 0.0
C1131 C 0.43724 0.06668 0.62567 0.0
C1132 C 0.45166 0.09119 0.63316 0.0
H1133 H 0.49264 0.92881 0.61738 0.0
H1134 H 0.44411 0.96188 0.61153 0.0
H1135 H 0.41517 1.01322 0.61318 0.0
O1136 O 0.51587 1.04253 0.65565 0.0
O1137 O 0.56067 1.03133 0.62017 0.0
O1138 O 0.58039 0.07505 0.61013 0.0
O1139 O 0.5651 1.03311 0.66063 0.0
O1140 O 0.54529 0.10691 0.63552 0.0
O1141 O 0.59032 0.1269 0.62463 0.0
O1142 O 0.66501 0.07159 0.61286 0.0
O1143 O 0.62254 0.08467 0.64629 0.0
O1144 O 0.57093 0.09607 0.6502 0.0
O1145 O 0.62642 1.03693 0.6152 0.0
O1146 O 0.64141 0.04802 0.64173 0.0
O1147 O 0.59652 1.02003 0.64812 0.0
C1148 C 0.56325 0.04829 0.60882 0.0
C1149 C 0.53485 0.05827 0.67719 0.0
C1150 C 0.53243 0.11368 0.68478 0.0
C1151 C 0.54323 0.1041 0.6978 0.0
C1152 C 0.54567 0.04872 0.69014 0.0
C1153 C 0.5496 0.07166 0.70047 0.0
C1154 C 0.52808 0.09054 0.6747 0.0
C1155 C 0.56055 0.13242 0.62942 0.0
C1156 C 0.53628 1.03672 0.66542 0.0
C1157 C 0.45591 0.98237 0.61612 0.0
C1158 C 0.43946 1.01162 0.61704 0.0
C1159 C 0.60098 0.09974 0.65329 0.0
C1160 C 0.65808 1.0347 0.59498 0.0
C1161 C 0.69447 1.01665 0.57693 0.0
C1162 C 0.67078 1.02448 0.56717 0.0
C1163 C 0.63504 1.0425 0.58513 0.0
C1164 C 0.6871 1.02082 0.59091 0.0
C1165 C 0.64115 1.03682 0.5713 0.0
C1166 C 0.62874 1.02321 0.64897 0.0
C1167 C 0.65403 1.04336 0.60943 0.0
H1168 H 0.54618 0.12147 0.70594 0.0
H1169 H 0.55191 1.02391 0.69213 0.0
H1170 H 0.55799 0.06437 0.71049 0.0
H1171 H 0.52061 0.09801 0.6646 0.0
H1172 H 0.67535 1.02246 0.5563 0.0
H1173 H 0.61275 0.05356 0.58807 0.0
H1174 H 0.7043 1.01437 0.59875 0.0
H1175 H 0.62333 1.04315 0.56371 0.0
Tb1176 Tb 0.76851 0.86279 0.39643 0.0
C1177 C 0.6888 0.97768 0.36125 0.0
N1178 N 0.70303 0.94841 0.36082 0.0
C1179 C 0.66874 0.93383 0.34196 0.0
C1180 C 0.66404 0.98626 0.3521 0.0
C1181 C 0.69322 0.92649 0.35123 0.0
C1182 C 0.65402 0.96383 0.3424 0.0
C1183 C 0.68664 1.03058 0.37135 0.0
C1184 C 0.69972 0.99936 0.37071 0.0
C1185 C 0.66162 1.03917 0.36246 0.0
C1186 C 0.65032 1.01701 0.35284 0.0
Tb1187 Tb 0.74229 0.93834 0.377 0.0
N1188 N 0.72406 0.99017 0.37898 0.0
C1189 C 0.69948 0.05234 0.38074 0.0
C1190 C 0.7373 1.01174 0.38789 0.0
C1191 C 0.7251 1.04292 0.38898 0.0
H1192 H 0.70324 0.90276 0.35072 0.0
H1193 H 0.73556 0.05968 0.39615 0.0
H1194 H 0.8356 0.90509 0.38875 0.0
H1195 H 0.73666 0.74143 0.38368 0.0
H1196 H 0.7572 1.00516 0.39428 0.0
H1197 H 0.69014 0.07655 0.38155 0.0
H1198 H 0.72577 0.79818 0.3892 0.0
H1199 H 0.66111 0.91619 0.33452 0.0
H1200 H 0.65116 0.06297 0.36283 0.0
H1201 H 0.63122 1.024 0.34594 0.0
H1202 H 0.89185 0.89253 0.38378 0.0
H1203 H 0.63507 0.96944 0.33521 0.0
H1204 H 0.79249 0.72299 0.38015 0.0
N1205 N 0.82072 0.85617 0.38952 0.0
C1206 C 0.82953 0.82515 0.38724 0.0
C1207 C 0.87461 0.8733 0.3849 0.0
C1208 C 0.86144 0.8169 0.38409 0.0
C1209 C 0.84256 0.88033 0.38792 0.0
C1210 C 0.88422 0.84143 0.38321 0.0
N1211 N 0.77485 0.8119 0.38847 0.0
C1212 C 0.75015 0.79062 0.38736 0.0
C1213 C 0.81301 0.77005 0.3835 0.0
C1214 C 0.80564 0.80215 0.38671 0.0
C1215 C 0.78784 0.74796 0.38251 0.0
C1216 C 0.75627 0.75834 0.38439 0.0
H1217 H 0.90901 0.83614 0.38076 0.0
H1218 H 0.8937 0.77779 0.37908 0.0
H1219 H 0.85131 0.73667 0.37875 0.0
O1220 O 0.73963 0.83739 0.41018 0.0
O1221 O 0.78082 0.85643 0.37399 0.0
O1222 O 0.74904 0.89395 0.36305 0.0
O1223 O 0.78802 0.84886 0.41551 0.0
O1224 O 0.71421 0.85677 0.3901 0.0
O1225 O 0.69757 0.90333 0.37847 0.0
O1226 O 0.76457 0.96999 0.36345 0.0
O1227 O 0.72272 0.94859 0.39742 0.0
O1228 O 0.74219 0.90358 0.39511 0.0
O1229 O 0.79055 0.92912 0.37222 0.0
O1230 O 0.77881 0.95288 0.39501 0.0
O1231 O 0.79597 0.90664 0.40662 0.0
C1232 C 0.76939 0.86877 0.36239 0.0
C1233 C 0.76787 0.79714 0.4217 0.0
C1234 C 0.74448 0.7436 0.4246 0.0
C1235 C 0.77562 0.73057 0.42485 0.0
C1236 C 0.79868 0.78353 0.42202 0.0
C1237 C 0.80243 0.75044 0.4236 0.0
C1238 C 0.74096 0.77702 0.42313 0.0
C1239 C 0.69023 0.87388 0.38384 0.0
C1240 C 0.76301 0.83156 0.41855 0.0
C1241 C 0.86923 0.78469 0.38137 0.0
C1242 C 0.84507 0.76128 0.38114 0.0
C1243 C 0.72758 0.92217 0.40366 0.0
C1244 C 0.80607 0.94823 0.35017 0.0
C1245 C 0.8459 0.96529 0.33327 0.0
C1246 C 0.83009 0.94624 0.32341 0.0
C1247 C 0.78951 0.93172 0.33992 0.0
C1248 C 0.83469 0.96418 0.34691 0.0
C1249 C 0.80229 0.92944 0.32678 0.0
C1250 C 0.79762 0.9394 0.40506 0.0
C1251 C 0.7914 0.95356 0.36365 0.0
H1252 H 0.77935 0.70505 0.42623 0.0
H1253 H 0.81985 0.79829 0.42077 0.0
H1254 H 0.82623 0.7401 0.42378 0.0
H1255 H 0.71715 0.78738 0.42262 0.0
H1256 H 0.8373 0.94629 0.31276 0.0
H1257 H 0.76614 0.9217 0.34189 0.0
H1258 H 0.84665 0.9778 0.35484 0.0
H1259 H 0.78946 0.9164 0.31894 0.0
Tb1260 Tb 0.98357 0.97391 0.13952 0.0
C1261 C 0.8644 0.89231 0.10644 0.0
N1262 N 0.89436 0.90483 0.10594 0.0
C1263 C 0.90427 0.87574 0.08504 0.0
C1264 C 0.85283 0.87167 0.09611 0.0
C1265 C 0.91467 0.89593 0.09557 0.0
C1266 C 0.87309 0.86382 0.08522 0.0
C1267 C 0.81465 0.88631 0.11889 0.0
C1268 C 0.84574 0.89936 0.11761 0.0
C1269 C 0.80259 0.86642 0.10851 0.0
C1270 C 0.82168 0.85909 0.09712 0.0
Tb1271 Tb 0.90844 0.93974 0.12327 0.0
N1272 N 0.85844 0.91841 0.12742 0.0
C1273 C 0.7968 0.89333 0.13063 0.0
C1274 C 0.8412 0.92473 0.13906 0.0
C1275 C 0.81026 0.91246 0.1408 0.0
H1276 H 0.93927 0.90352 0.09527 0.0
H1277 H 0.79688 0.91766 0.15004 0.0
H1278 H 0.93658 1.03938 0.13424 0.0
H1279 H 0.10135 0.9471 0.11991 0.0
H1280 H 0.85111 0.93871 0.14727 0.0
H1281 H 0.77286 0.88377 0.13201 0.0
H1282 H 0.0473 0.93366 0.12833 0.0
H1283 H 0.9205 0.86914 0.07685 0.0
H1284 H 0.77875 0.85627 0.10927 0.0
H1285 H 0.81233 0.84334 0.08927 0.0
H1286 H 0.94545 0.09614 0.12889 0.0
H1287 H 0.86516 0.84804 0.07709 0.0
H1288 H 0.11655 1.00384 0.11615 0.0
N1289 N 0.98582 1.02622 0.13218 0.0
C1290 C 1.01569 1.03643 0.1286 0.0
C1291 C 0.96548 0.07961 0.1289 0.0
C1292 C 1.02175 0.06878 0.1253 0.0
C1293 C 0.96061 1.0472 0.13205 0.0
C1294 C 0.99625 0.09057 0.12572 0.0
N1295 N 1.03148 0.98223 0.12887 0.0
C1296 C 0.05318 0.95843 0.12634 0.0
C1297 C 0.07009 1.02232 0.12215 0.0
C1298 C 1.03945 1.01352 0.1269 0.0
C1299 C 0.09264 0.99809 0.11973 0.0
C1300 C 0.08405 0.966 0.12173 0.0
H1301 H 0.99985 0.11565 0.12321 0.0
H1302 H 0.05795 0.10285 0.11874 0.0
H1303 H 0.10037 0.06217 0.11611 0.0
O1304 O 1.01524 0.95138 0.15309 0.0
O1305 O 0.98468 0.98537 0.11708 0.0
O1306 O 0.94958 0.94887 0.10754 0.0
O1307 O 0.99662 0.99833 0.15752 0.0
O1308 O 0.99287 0.91909 0.13431 0.0
O1309 O 0.94716 0.89871 0.12335 0.0
O1310 O 0.87549 0.96522 0.11149 0.0
O1311 O 0.90898 0.91297 0.14288 0.0
O1312 O 0.94324 0.94769 0.14055 0.0
O1313 O 0.91742 0.98894 0.12056 0.0
O1314 O 0.8919 0.97434 0.14168 0.0
O1315 O 0.93862 0.99754 0.15075 0.0
C1316 C 0.97282 0.97137 0.10602 0.0
C1317 C 0.05204 0.99005 0.16088 0.0
C1318 C 0.10947 0.98085 0.1576 0.0
C1319 C 0.11489 1.01376 0.16005 0.0
C1320 C 0.05806 1.02265 0.16341 0.0
C1321 C 0.08931 1.03443 0.16282 0.0
C1322 C 0.07776 0.96965 0.15776 0.0
C1323 C 0.97727 0.89368 0.12835 0.0
C1324 C 1.01901 0.97753 0.16019 0.0
C1325 C 0.0527 0.07801 0.12117 0.0
C1326 C 0.07685 0.05483 0.11964 0.0
C1327 C 0.9328 0.92601 0.14882 0.0
C1328 C 0.89751 1.00861 0.09932 0.0
C1329 C 0.88893 0.0564 0.08523 0.0
C1330 C 0.90058 1.03923 0.07381 0.0
C1331 C 0.90715 0.99164 0.08764 0.0
C1332 C 0.88892 1.04108 0.09814 0.0
C1333 C 0.90965 1.00718 0.07506 0.0
C1334 C 0.90565 0.99557 0.1507 0.0
C1335 C 0.89247 0.99173 0.11237 0.0
H1336 H 0.13886 1.02357 0.16042 0.0
H1337 H 1.03863 1.03911 0.16562 0.0
H1338 H 0.09382 0.05959 0.16477 0.0
H1339 H 0.07281 0.94486 0.15532 0.0
H1340 H 0.90052 0.04959 0.06364 0.0
H1341 H 0.91208 0.9662 0.08817 0.0
H1342 H 0.88037 0.0537 0.10713 0.0
H1343 H 0.91718 0.99392 0.06609 0.0
Tb1344 Tb 0.68653 0.64587 0.87277 0.0
C1345 C 0.78201 0.75404 0.87684 0.0
N1346 N 0.77224 0.7242 0.88075 0.0
C1347 C 0.82552 0.7041 0.87704 0.0
C1348 C 0.81405 0.76018 0.8731 0.0
C1349 C 0.79342 0.69915 0.88065 0.0
C1350 C 0.836 0.73481 0.87344 0.0
C1351 C 0.76723 0.80832 0.87036 0.0
C1352 C 0.7589 0.77768 0.87531 0.0
C1353 C 0.79945 0.81512 0.86732 0.0
C1354 C 0.8228 0.79106 0.86864 0.0
Tb1355 Tb 0.72031 0.72168 0.88851 0.0
N1356 N 0.72786 0.76969 0.87779 0.0
C1357 C 0.74283 0.83091 0.86835 0.0
C1358 C 0.70389 0.7915 0.87575 0.0
C1359 C 0.71102 0.82239 0.87099 0.0
H1360 H 0.78603 0.67516 0.8832 0.0
H1361 H 0.692 0.83973 0.86952 0.0
H1362 H 0.64895 0.67479 0.84473 0.0
H1363 H 0.66706 0.53461 0.90031 0.0
H1364 H 0.67937 0.78561 0.87819 0.0
H1365 H 0.74824 0.85482 0.86463 0.0
H1366 H 0.6858 0.58969 0.89738 0.0
H1367 H 0.84218 0.68417 0.87703 0.0
H1368 H 0.80642 0.83862 0.86361 0.0
H1369 H 0.84739 0.79635 0.86586 0.0
H1370 H 0.61597 0.65413 0.82623 0.0
H1371 H 0.86084 0.73847 0.87059 0.0
H1372 H 0.63543 0.50839 0.8821 0.0
N1373 N 0.65225 0.63004 0.8555 0.0
C1374 C 0.64116 0.59951 0.85603 0.0
C1375 C 0.62317 0.63832 0.83448 0.0
C1376 C 0.62136 0.5868 0.84566 0.0
C1377 C 0.64258 0.64982 0.84506 0.0
C1378 C 0.61282 0.60654 0.83468 0.0
N1379 N 0.66667 0.5953 0.87721 0.0
C1380 C 0.67289 0.57882 0.88907 0.0
C1381 C 0.63689 0.54983 0.8687 0.0
C1382 C 0.64866 0.58144 0.86733 0.0
C1383 C 0.64403 0.5327 0.88063 0.0
C1384 C 0.66189 0.5474 0.89091 0.0
H1385 H 0.59764 0.59775 0.82651 0.0
H1386 H 0.59515 0.54485 0.83883 0.0
H1387 H 0.60885 0.51233 0.85908 0.0
O1388 O 0.73537 0.65656 0.87036 0.0
O1389 O 0.66004 0.64677 0.89252 0.0
O1390 O 0.69449 0.68111 0.88979 0.0
O1391 O 0.71328 0.61444 0.86072 0.0
O1392 O 0.72153 0.62981 0.89114 0.0
O1393 O 0.74461 0.67704 0.89986 0.0
O1394 O 0.69822 0.7542 0.90187 0.0
O1395 O 0.73109 0.72215 0.866 0.0
O1396 O 0.6938 0.68729 0.8569 0.0
O1397 O 0.7448 0.73483 0.90645 0.0
O1398 O 0.66512 0.7302 0.88356 0.0
O1399 O 0.6451 0.68392 0.87288 0.0
C1400 C 0.67341 0.67065 0.89831 0.0
C1401 C 0.7564 0.63869 0.84908 0.0
C1402 C 0.80565 0.63418 0.83563 0.0
C1403 C 0.78866 0.64541 0.82408 0.0
C1404 C 0.73971 0.64784 0.83724 0.0
C1405 C 0.75603 0.65229 0.82494 0.0
C1406 C 0.78942 0.63246 0.8483 0.0
C1407 C 0.74284 0.64397 0.90002 0.0
C1408 C 0.73917 0.63223 0.86192 0.0
C1409 C 0.61021 0.55509 0.84673 0.0
C1410 C 0.61798 0.5366 0.85825 0.0
C1411 C 0.71638 0.71037 0.8551 0.0
C1412 C 0.7369 0.79038 0.91015 0.0
C1413 C 0.72694 0.84822 0.90984 0.0
C1414 C 0.76019 0.8534 0.91124 0.0
C1415 C 0.76989 0.79615 0.9116 0.0
C1416 C 0.71585 0.81647 0.90896 0.0
C1417 C 0.78141 0.82753 0.91196 0.0
C1418 C 0.63978 0.71406 0.87778 0.0
C1419 C 0.72422 0.75745 0.90909 0.0
H1420 H 0.79978 0.64671 0.81408 0.0
H1421 H 0.71401 0.65124 0.83745 0.0
H1422 H 0.74304 0.65966 0.81588 0.0
H1423 H 0.8019 0.62442 0.85741 0.0
H1424 H 0.76997 0.87729 0.91233 0.0
H1425 H 0.78681 0.77649 0.91233 0.0
H1426 H 0.69063 0.81181 0.90735 0.0
H1427 H 0.80685 0.83184 0.91311 0.0
Tb1428 Tb 0.67073 0.49387 0.12633 0.0
C1429 C 0.55639 0.58303 0.13404 0.0
N1430 N 0.58067 0.57683 0.14302 0.0
C1431 C 0.58287 0.63279 0.14893 0.0
C1432 C 0.54547 0.61469 0.13179 0.0
C1433 C 0.59292 0.6011 0.15086 0.0
C1434 C 0.55932 0.63969 0.13925 0.0
C1435 C 0.51805 0.56346 0.11728 0.0
C1436 C 0.5425 0.55758 0.12695 0.0
C1437 C 0.50736 0.59496 0.115 0.0
C1438 C 0.52098 0.62047 0.12225 0.0
Tb1439 Tb 0.59328 0.5236 0.14555 0.0
N1440 N 0.55404 0.52731 0.12908 0.0
C1441 C 0.50545 0.53759 0.10996 0.0
C1442 C 0.54145 0.50194 0.12197 0.0
C1443 C 0.5172 0.50676 0.11232 0.0
H1444 H 0.60956 0.59643 0.15903 0.0
H1445 H 0.50757 0.4866 0.1067 0.0
H1446 H 0.64557 0.45533 0.0986 0.0
H1447 H 0.78105 0.47655 0.15504 0.0
H1448 H 0.54974 0.47782 0.12351 0.0
H1449 H 0.48676 0.54117 0.10241 0.0
H1450 H 0.73664 0.50771 0.1458 0.0
H1451 H 0.59293 0.65185 0.15509 0.0
H1452 H 0.48865 0.59987 0.1076 0.0
H1453 H 0.51241 0.64465 0.12038 0.0
H1454 H 0.65431 0.4028 0.08771 0.0
H1455 H 0.55154 0.66429 0.13782 0.0
H1456 H 0.78846 0.41993 0.14823 0.0
N1457 N 0.6793 0.44717 0.11461 0.0
C1458 C 0.70195 0.42721 0.11972 0.0
C1459 C 0.66782 0.40931 0.09675 0.0
C1460 C 0.70788 0.39695 0.11378 0.0
C1461 C 0.66309 0.43921 0.10292 0.0
C1462 C 0.68999 0.38786 0.10232 0.0
N1463 N 0.71549 0.46851 0.13498 0.0
C1464 C 0.73783 0.48273 0.14324 0.0
C1465 C 0.7469 0.41972 0.13498 0.0
C1466 C 0.72084 0.43832 0.13026 0.0
C1467 C 0.76812 0.43335 0.14437 0.0
C1468 C 0.76394 0.46524 0.14827 0.0
H1469 H 0.69377 0.36478 0.09747 0.0
H1470 H 0.73693 0.35384 0.11483 0.0
H1471 H 0.77137 0.37395 0.13337 0.0
O1472 O 0.7069 0.50591 0.11225 0.0
O1473 O 0.64246 0.49798 0.14298 0.0
O1474 O 0.61603 0.49108 0.16055 0.0
O1475 O 0.67121 0.54069 0.11821 0.0
O1476 O 0.68608 0.52781 0.14489 0.0
O1477 O 0.63961 0.55144 0.15412 0.0
O1478 O 0.54609 0.51414 0.15152 0.0
O1479 O 0.60524 0.54263 0.12386 0.0
O1480 O 0.62927 0.50224 0.11186 0.0
O1481 O 0.57746 0.53985 0.16489 0.0
O1482 O 0.58892 0.46836 0.13966 0.0
O1483 O 0.63429 0.45088 0.12734 0.0
C1484 C 0.64186 0.48339 0.15461 0.0
C1485 C 0.69235 0.54504 0.0959 0.0
C1486 C 0.7103 0.58045 0.07746 0.0
C1487 C 0.69029 0.56353 0.06834 0.0
C1488 C 0.67371 0.52781 0.08654 0.0
C1489 C 0.67198 0.53761 0.07291 0.0
C1490 C 0.70993 0.57171 0.09141 0.0
C1491 C 0.67259 0.54977 0.15375 0.0
C1492 C 0.6954 0.53463 0.11021 0.0
C1493 C 0.73225 0.37734 0.11913 0.0
C1494 C 0.75183 0.38877 0.12969 0.0
C1495 C 0.60938 0.52728 0.11187 0.0
C1496 C 0.54288 0.50088 0.17476 0.0
C1497 C 0.51538 0.45167 0.18169 0.0
C1498 C 0.5312 0.45302 0.1944 0.0
C1499 C 0.55816 0.50198 0.18756 0.0
C1500 C 0.5214 0.47573 0.17197 0.0
C1501 C 0.55238 0.47807 0.19729 0.0
C1502 C 0.60488 0.44431 0.1329 0.0
C1503 C 0.5505 0.52438 0.16389 0.0
H1504 H 0.69011 0.56888 1.05749 0.0
H1505 H 0.66093 0.50655 0.08969 0.0
H1506 H 0.65744 0.52425 0.06574 0.0
H1507 H 0.72443 0.58467 0.09875 0.0
H1508 H 0.52658 0.43526 0.20227 0.0
H1509 H 0.57485 0.52103 0.18999 0.0
H1510 H 0.50961 0.47458 0.1621 0.0
H1511 H 0.56425 0.47902 0.20713 0.0
Tb1512 Tb 0.84635 0.37172 0.3743 0.0
C1513 C 0.76799 0.25252 0.37882 0.0
N1514 N 0.76812 0.28293 0.38392 0.0
C1515 C 0.7113 0.28682 0.38011 0.0
C1516 C 0.73969 0.23866 0.37361 0.0
C1517 C 0.73996 0.29971 0.38507 0.0
C1518 C 0.71119 0.25631 0.37424 0.0
C1519 C 0.79723 0.20371 0.37369 0.0
C1520 C 0.79642 0.23531 0.37889 0.0
C1521 C 0.76939 0.19025 0.36804 0.0
C1522 C 0.74066 0.20764 0.36804 0.0
Tb1523 Tb 0.81641 0.30096 0.39221 0.0
N1524 N 0.82276 0.24887 0.38473 0.0
C1525 C 0.82571 0.1862 0.3747 0.0
C1526 C 0.84995 0.23085 0.38652 0.0
C1527 C 0.85202 0.19968 0.38133 0.0
H1528 H 0.73941 0.32336 0.38948 0.0
H1529 H 0.87378 0.18585 0.38266 0.0
H1530 H 0.87229 0.34912 0.34348 0.0
H1531 H 0.88533 0.47158 0.40589 0.0
H1532 H 0.87 0.23979 0.39229 0.0
H1533 H 0.8273 0.16188 0.37083 0.0
H1534 H 0.84681 0.43242 0.39726 0.0
H1535 H 0.68928 0.30049 0.3808 0.0
H1536 H 0.76965 0.16611 0.36391 0.0
H1537 H 0.71923 0.19673 0.36386 0.0
H1538 H 0.92044 0.35582 0.32936 0.0
H1539 H 0.68895 0.24649 0.37036 0.0
H1540 H 0.93837 0.4774 0.39484 0.0
N1541 N 0.88822 0.38023 0.3594 0.0
C1542 C 0.91145 0.40079 0.36344 0.0
C1543 C 0.91833 0.36851 0.33899 0.0
C1544 C 0.9396 0.40538 0.35568 0.0
C1545 C 0.8909 0.36476 0.3471 0.0
C1546 C 0.94302 0.38857 0.34338 0.0
N1547 N 0.87774 0.41409 0.38163 0.0
C1548 C 0.86974 0.43402 0.39226 0.0
C1549 C 0.92882 0.44101 0.37957 0.0
C1550 C 0.90611 0.41824 0.37511 0.0
C1551 C 0.92151 0.45981 0.39099 0.0
C1552 C 0.8916 0.45663 0.39723 0.0
H1553 H 0.96425 0.39142 0.33709 0.0
H1554 H 0.98496 0.43066 0.35458 0.0
H1555 H 0.97553 0.46191 0.37561 0.0
O1556 O 0.8345 0.41172 0.36234 0.0
O1557 O 0.84906 0.37187 0.39632 0.0
O1558 O 0.86066 0.32031 0.40042 0.0
O1559 O 0.80016 0.37322 0.36574 0.0
O1560 O 0.81174 0.3899 0.39175 0.0
O1561 O 0.78574 0.34503 0.39973 0.0
O1562 O 0.80968 0.26275 0.40606 0.0
O1563 O 0.79555 0.30836 0.37106 0.0
O1564 O 0.83907 0.32741 0.36073 0.0
O1565 O 0.80079 0.31142 0.4122 0.0
O1566 O 0.87151 0.29358 0.38615 0.0
O1567 O 0.89078 0.33849 0.37491 0.0
C1568 C 0.86319 0.35032 0.40366 0.0
C1569 C 0.79619 0.40324 0.34514 0.0
C1570 C 0.77419 0.43789 0.32727 0.0
C1571 C 0.78353 0.41487 0.31744 0.0
C1572 C 0.80543 0.38083 0.33524 0.0
C1573 C 0.79851 0.38635 0.32147 0.0
C1574 C 0.77952 0.43086 0.3412 0.0
C1575 C 0.78807 0.37749 0.39976 0.0
C1576 C 0.8061 0.40036 0.35948 0.0
C1577 C 0.963 0.42702 0.36031 0.0
C1578 C 0.95764 0.44478 0.37228 0.0
C1579 C 0.81234 0.31025 0.35963 0.0
C1580 C 0.82999 0.27958 0.42719 0.0
C1581 C 0.88634 0.27284 0.43311 0.0
C1582 C 0.87891 0.28085 0.44677 0.0
C1583 C 0.82285 0.28762 0.44076 0.0
C1584 C 0.86166 0.27259 0.42348 0.0
C1585 C 0.84734 0.28823 0.45053 0.0
C1586 C 0.8967 0.30889 0.37986 0.0
C1587 C 0.8059 0.2822 0.41634 0.0
H1588 H 0.78064 0.41923 0.30659 0.0
H1589 H 0.81851 0.35956 0.33811 0.0
H1590 H 0.80594 0.36907 0.31382 0.0
H1591 H 0.7719 0.44738 0.34911 0.0
H1592 H 0.89718 0.2805 0.45463 0.0
H1593 H 0.7986 0.29386 0.44373 0.0
H1594 H 0.86725 0.26728 0.41293 0.0
H1595 H 0.84184 0.29428 0.46105 0.0
Tb1596 Tb 0.95832 0.65748 0.62539 0.0
C1597 C 0.07259 0.56375 0.62517 0.0
N1598 N 1.04455 0.56884 0.632 0.0
C1599 C 1.03377 0.51224 0.63168 0.0
C1600 C 0.08214 0.53266 0.62122 0.0
C1601 C 1.02513 0.54356 0.63529 0.0
C1602 C 0.06247 0.50673 0.6247 0.0
C1603 C 0.11839 0.5864 0.61334 0.0
C1604 C 0.09038 0.59032 0.62126 0.0
C1605 C 0.12859 0.5554 0.60973 0.0
C1606 C 0.11051 0.52859 0.61367 0.0
Tb1607 Tb 1.0364 0.62022 0.6396 0.0
N1608 N 0.0793 0.62002 0.62473 0.0
C1609 C 0.13518 0.61373 0.60917 0.0
C1610 C 0.09585 0.64675 0.62068 0.0
C1611 C 0.12377 0.64399 0.61281 0.0
H1612 H 1.00298 0.54714 0.64073 0.0
H1613 H 0.13672 0.6653 0.6097 0.0
H1614 H 0.98422 0.69121 0.59626 0.0
H1615 H 0.85174 0.68103 0.65529 0.0
H1616 H 0.08848 0.67047 0.62356 0.0
H1617 H 0.15687 0.61174 0.60311 0.0
H1618 H 0.8975 0.64879 0.64718 0.0
H1619 H 1.0183 0.49233 0.63433 0.0
H1620 H 0.15019 0.55193 0.60373 0.0
H1621 H 0.11839 0.50486 0.61061 0.0
H1622 H 0.97434 0.74075 0.58334 0.0
H1623 H 0.06898 0.48244 0.62187 0.0
H1624 H 0.84101 0.73436 0.6451 0.0
N1625 N 0.94905 0.70107 0.61158 0.0
C1626 C 0.92567 0.72149 0.61576 0.0
C1627 C 0.96053 0.73568 0.59248 0.0
C1628 C 0.91906 0.75015 0.6086 0.0
C1629 C 0.96602 0.70743 0.59989 0.0
C1630 C 0.93717 0.75732 0.59693 0.0
N1631 N 0.91341 0.68394 0.63282 0.0
C1632 C 0.89324 0.67204 0.64266 0.0
C1633 C 0.88111 0.73175 0.63104 0.0
C1634 C 0.90712 0.71256 0.6268 0.0
C1635 C 0.86134 0.72044 0.64158 0.0
C1636 C 0.86724 0.69028 0.64731 0.0
H1637 H 0.93289 0.77911 0.59114 0.0
H1638 H 0.88883 0.79249 0.60785 0.0
H1639 H 0.85548 0.7763 0.62753 0.0
O1640 O 0.95342 0.61081 0.61755 0.0
O1641 O 0.95825 0.67437 0.64686 0.0
O1642 O 0.99794 0.64864 0.64111 0.0
O1643 O 0.91824 0.64837 0.61319 0.0
O1644 O 0.94541 0.61748 0.64203 0.0
O1645 O 0.99263 0.5967 0.65162 0.0
O1646 O 0.07368 0.63828 0.65178 0.0
O1647 O 1.02503 0.60297 0.6184 0.0
O1648 O 0.9993 0.64681 0.60973 0.0
O1649 O 0.04987 0.59451 0.65733 0.0
O1650 O 1.04302 0.67673 0.63645 0.0
O1651 O 0.99723 0.69827 0.62578 0.0
C1652 C 0.98546 0.66463 0.65098 0.0
C1653 C 0.92324 0.60717 0.59695 0.0
C1654 C 0.89032 0.57864 0.58029 0.0
C1655 C 0.912 0.58778 0.56992 0.0
C1656 C 0.94402 0.61684 0.58646 0.0
C1657 C 0.93872 0.60665 0.57303 0.0
C1658 C 0.89667 0.58797 0.59386 0.0
C1659 C 0.95967 0.59678 0.65109 0.0
C1660 C 0.92698 0.61864 0.61103 0.0
C1661 C 0.89412 0.77022 0.61313 0.0
C1662 C 0.87514 0.76102 0.62434 0.0
C1663 C 1.01718 0.62021 0.60754 0.0
C1664 C 0.10659 0.59327 0.65572 0.0
C1665 C 0.1603 0.59495 0.64529 0.0
C1666 C 0.1596 0.56133 0.64407 0.0
C1667 C 0.10715 0.55958 0.65488 0.0
C1668 C 0.1336 0.61042 0.65132 0.0
C1669 C 0.13344 0.54384 0.64904 0.0
C1670 C 1.02716 0.7029 0.63099 0.0
C1671 C 0.07626 0.61103 0.65826 0.0
H1672 H 0.90775 0.58138 0.55934 0.0
H1673 H 0.96383 0.6327 0.58857 0.0
H1674 H 0.95488 0.61413 0.56495 0.0
H1675 H 0.88055 0.58088 0.60204 0.0
H1676 H 0.17954 0.54848 0.63956 0.0
H1677 H 0.08662 0.54548 0.65804 0.0
H1678 H 0.13331 0.63622 0.65255 0.0
H1679 H 0.13326 0.51796 0.64812 0.0
Tb1680 Tb 0.75292 0.43957 0.74864 0.0
C1681 C 0.83666 0.32539 0.73481 0.0
N1682 N 0.82831 0.35674 0.73317 0.0
C1683 C 0.8829 0.37241 0.73704 0.0
C1684 C 0.86864 0.31623 0.73726 0.0
C1685 C 0.85074 0.38032 0.73471 0.0
C1686 C 0.892 0.34022 0.73809 0.0
C1687 C 0.8193 0.27036 0.73803 0.0
C1688 C 0.81234 0.30286 0.73541 0.0
C1689 C 0.85135 0.26073 0.73969 0.0
C1690 C 0.87598 0.28365 0.73936 0.0
Tb1691 Tb 0.77573 0.3652 0.72737 0.0
N1692 N 0.78165 0.31338 0.73431 0.0
C1693 C 0.79377 0.24873 0.73918 0.0
C1694 C 0.75661 0.29255 0.73558 0.0
C1695 C 0.76228 0.25992 0.73802 0.0
H1696 H 0.84413 0.40524 0.73441 0.0
H1697 H 0.74238 0.24338 0.73889 0.0
H1698 H 0.71525 0.40395 0.77521 0.0
H1699 H 0.74817 0.56211 0.73055 0.0
H1700 H 0.73225 0.30082 0.73437 0.0
H1701 H 0.79807 0.22348 0.74112 0.0
H1702 H 0.76961 0.50737 0.73214 0.0
H1703 H 0.90062 0.39119 0.73813 0.0
H1704 H 0.85726 0.2358 0.74161 0.0
H1705 H 0.90048 0.27606 0.74111 0.0
H1706 H 0.67257 0.41675 0.79135 0.0
H1707 H 0.91687 0.33423 0.74 0.0
H1708 H 0.70193 0.57828 0.74485 0.0
N1709 N 0.71395 0.44933 0.76492 0.0
C1710 C 0.69955 0.47851 0.76447 0.0
C1711 C 0.67994 0.43443 0.78385 0.0
C1712 C 0.67468 0.48683 0.77363 0.0
C1713 C 0.70459 0.42738 0.7746 0.0
C1714 C 0.66479 0.46422 0.78333 0.0
N1715 N 0.73539 0.49168 0.74695 0.0
C1716 C 0.74932 0.51371 0.7384 0.0
C1717 C 0.69775 0.5318 0.75464 0.0
C1718 C 0.71069 0.50052 0.75513 0.0
C1719 C 0.71114 0.55401 0.74553 0.0
C1720 C 0.73725 0.54497 0.73747 0.0
H1721 H 0.64576 0.46963 0.79053 0.0
H1722 H 0.64168 0.52435 0.77984 0.0
H1723 H 0.66204 0.56389 0.7632 0.0
O1724 O 0.77432 0.47018 0.76279 0.0
O1725 O 0.73252 0.4524 0.72866 0.0
O1726 O 0.75117 0.40663 0.73008 0.0
O1727 O 0.8011 0.43038 0.7537 0.0
O1728 O 0.78991 0.45424 0.73077 0.0
O1729 O 0.8021 0.40951 0.71717 0.0
O1730 O 0.74638 0.34003 0.71372 0.0
O1731 O 0.79072 0.3574 0.74954 0.0
O1732 O 0.75871 0.3931 0.76134 0.0
O1733 O 0.79309 0.3558 0.70747 0.0
O1734 O 0.72184 0.36006 0.73416 0.0
O1735 O 0.70737 0.4054 0.74713 0.0
C1736 C 0.73624 0.42633 0.72209 0.0
C1737 C 0.81491 0.44756 0.77623 0.0
C1738 C 0.85218 0.46438 0.79417 0.0
C1739 C 0.83591 0.4439 0.80341 0.0
C1740 C 0.79791 0.42942 0.78586 0.0
C1741 C 0.80922 0.4264 0.79921 0.0
C1742 C 0.84255 0.46415 0.7803 0.0
C1743 C 0.806 0.44164 0.71971 0.0
C1744 C 0.80126 0.45401 0.76264 0.0
C1745 C 0.6609 0.51757 0.77294 0.0
C1746 C 0.67245 0.54006 0.76346 0.0
C1747 C 0.77969 0.36846 0.76147 0.0
C1748 C 0.7747 0.30502 0.69945 0.0
C1749 C 0.75313 0.25323 0.69214 0.0
C1750 C 0.78445 0.24069 0.69205 0.0
C1751 C 0.80576 0.29196 0.69931 0.0
C1752 C 0.74857 0.2856 0.69572 0.0
C1753 C 0.81052 0.25999 0.69557 0.0
C1754 C 0.69887 0.37693 0.74112 0.0
C1755 C 0.76855 0.33788 0.70445 0.0
H1756 H 0.84184 0.44316 0.81418 0.0
H1757 H 0.77521 0.41874 0.78326 0.0
H1758 H 0.79601 0.41215 0.80658 0.0
H1759 H 0.85489 0.4788 0.7728 0.0
H1760 H 0.78886 0.21598 0.68917 0.0
H1761 H 0.8263 0.3062 0.70229 0.0
H1762 H 0.72452 0.29545 0.69609 0.0
H1763 H 0.83449 0.25003 0.69552 0.0
Tb1764 Tb 0.90319 0.43929 0.9985 0.0
C1765 C 1.00973 0.53299 0.99074 0.0
N1766 N 0.9791 0.52373 0.98785 0.0
C1767 C 0.96077 0.5775 0.99205 0.0
C1768 C 1.01703 0.56489 0.9943 0.0
C1769 C 0.9546 0.54547 0.98868 0.0
C1770 C 0.99214 0.58737 0.99469 0.0
C1771 C 0.06435 0.51697 0.99589 0.0
C1772 C 1.03309 0.50933 0.99158 0.0
C1773 C 0.0722 0.54906 0.99873 0.0
C1774 C 0.0486 0.57298 0.99792 0.0
Tb1775 Tb 0.97457 0.47213 0.97973 0.0
N1776 N 1.02424 0.47843 0.98916 0.0
C1777 C 0.0865 0.49203 0.99754 0.0
C1778 C 1.04564 0.45395 0.99089 0.0
C1779 C 0.077 0.46038 0.99516 0.0
H1780 H 0.93014 0.53857 0.98688 0.0
H1781 H 0.09397 0.44094 0.99642 0.0
H1782 H 0.94282 0.39866 1.02339 0.0
H1783 H 0.78083 0.42831 0.98097 0.0
H1784 H 1.03905 0.42952 0.98865 0.0
H1785 H 0.11083 0.4969 1.00079 0.0
H1786 H 0.83575 0.44842 0.98067 0.0
H1787 H 0.94126 0.59459 0.99264 0.0
H1788 H 0.09623 0.5555 1.00189 0.0
H1789 H 0.05477 0.59746 1.00055 0.0
H1790 H 0.93037 0.36068 1.04152 0.0
H1791 H 0.99672 0.61215 0.9974 0.0
H1792 H 0.76403 0.38863 0.99841 0.0
N1793 N 0.89478 0.40159 1.01563 0.0
C1794 C 0.86488 0.3891 1.01671 0.0
C1795 C 0.91156 0.3687 1.03469 0.0
C1796 C 0.8569 0.36644 1.02694 0.0
C1797 C 0.9183 0.39101 1.02437 0.0
C1798 C 0.88066 0.35651 1.03606 0.0
N1799 N 0.85136 0.4204 0.99775 0.0
C1800 C 0.82942 0.43112 0.98837 0.0
C1801 C 0.81078 0.38665 1.00797 0.0
C1802 C 0.84234 0.39882 1.00739 0.0
C1803 C 0.78849 0.39737 0.99832 0.0
C1804 C 0.79789 0.41973 0.98848 0.0
H1805 H 0.87554 0.33914 1.04404 0.0
H1806 H 0.81898 0.33687 1.03543 0.0
H1807 H 0.77841 0.35474 1.01879 0.0
O1808 O 0.91268 0.48838 1.0008 0.0
O1809 O 0.89391 0.4179 0.9783 0.0
O1810 O 0.93785 0.43921 0.97937 0.0
O1811 O 0.87341 0.46451 1.01184 0.0
O1812 O 0.88493 0.47435 0.98049 0.0
O1813 O 0.92967 0.49746 0.97006 0.0
O1814 O 1.00862 0.45524 0.9656 0.0
O1815 O 0.97804 0.48487 1.00227 0.0
O1816 O 0.94616 0.4478 1.0131 0.0
O1817 O 0.9797 0.49631 0.96089 0.0
O1818 O 0.98365 0.41657 0.98389 0.0
O1819 O 0.94031 0.39658 0.99664 0.0
C1820 C 0.91818 0.42559 0.97094 0.0
C1821 C 0.89677 0.50956 1.02238 0.0
C1822 C 0.88783 0.55856 1.03556 0.0
C1823 C 0.90173 0.54328 1.04703 0.0
C1824 C 0.90841 0.4943 1.03415 0.0
C1825 C 0.91219 0.51152 1.04625 0.0
C1826 C 0.88759 0.5419 1.02299 0.0
C1827 C 0.89712 0.49577 0.97108 0.0
C1828 C 0.88963 0.49121 1.00995 0.0
C1829 C 0.82557 0.35422 1.02764 0.0
C1830 C 0.80251 0.36433 1.01817 0.0
C1831 C 0.9689 0.47075 1.01384 0.0
C1832 C 1.03546 0.50043 0.95701 0.0
C1833 C 0.09333 0.50153 0.96073 0.0
C1834 C 0.09167 0.53502 0.96254 0.0
C1835 C 1.0345 0.53404 0.95833 0.0
C1836 C 0.06511 0.48477 0.95752 0.0
C1837 C 0.06253 0.55115 0.96104 0.0
C1838 C 0.9692 0.39116 0.99049 0.0
C1839 C 1.00602 0.48093 0.95809 0.0
H1840 H 0.90237 0.55467 1.05697 0.0
H1841 H 0.91396 0.46893 1.03407 0.0
H1842 H 0.92148 0.49968 1.05528 0.0
H1843 H 0.87795 0.55312 1.01387 0.0
H1844 H 0.11272 0.54881 0.96518 0.0
H1845 H 1.01195 0.54693 0.95805 0.0
H1846 H 0.06574 0.45907 0.95588 0.0
H1847 H 0.06147 0.57689 0.96247 0.0
Tb1848 Tb 0.88226 0.70937 0.24963 0.0
C1849 C 0.79764 0.82393 0.24453 0.0
N1850 N 0.80189 0.79262 0.24086 0.0
C1851 C 0.74629 0.78202 0.24566 0.0
C1852 C 0.76761 0.83521 0.24916 0.0
C1853 C 0.77652 0.7717 0.24131 0.0
C1854 C 0.74177 0.81388 0.24956 0.0
C1855 C 0.82099 0.87624 0.24894 0.0
C1856 C 0.82407 0.84422 0.24443 0.0
C1857 C 0.79109 0.88756 0.25347 0.0
C1858 C 0.76446 0.86713 0.25354 0.0
Tb1859 Tb 0.85214 0.78016 0.2326 0.0
N1860 N 0.85271 0.83259 0.23988 0.0
C1861 C 0.84804 0.89603 0.24876 0.0
C1862 C 0.87907 0.8522 0.23947 0.0
C1863 C 0.87714 0.88397 0.24396 0.0
H1864 H 0.7794 0.74671 0.23883 0.0
H1865 H 0.89807 0.89929 0.24356 0.0
H1866 H 0.9151 0.73383 0.27942 0.0
H1867 H 0.90478 0.59668 0.22366 0.0
H1868 H 0.90148 0.84411 0.23522 0.0
H1869 H 0.84664 0.92074 0.25216 0.0
H1870 H 0.87139 0.64084 0.23201 0.0
H1871 H 0.7265 0.76525 0.24612 0.0
H1872 H 0.78832 0.91208 0.25697 0.0
H1873 H 0.7416 0.87617 0.25714 0.0
H1874 H 0.96641 0.72783 0.29124 0.0
H1875 H 0.71836 0.82164 0.25306 0.0
H1876 H 0.96121 0.59184 0.23117 0.0
N1877 N 0.92649 0.70079 0.26339 0.0
C1878 C 0.94806 0.67887 0.25895 0.0
C1879 C 0.96168 0.71405 0.28207 0.0
C1880 C 0.9779 0.6745 0.26545 0.0
C1881 C 0.93236 0.71734 0.27525 0.0
C1882 C 0.98486 0.69302 0.27699 0.0
N1883 N 0.90873 0.66285 0.24363 0.0
C1884 C 0.89599 0.63986 0.23525 0.0
C1885 C 0.95879 0.63374 0.24421 0.0
C1886 C 0.93878 0.65906 0.24855 0.0
C1887 C 0.94668 0.61166 0.23479 0.0
C1888 C 0.91485 0.61432 0.23055 0.0
H1889 H 1.00749 0.69044 0.28231 0.0
H1890 H 1.02242 0.64758 0.26521 0.0
H1891 H 1.00559 0.61168 0.2465 0.0
O1892 O 0.86774 0.67152 0.26223 0.0
O1893 O 0.88581 0.71083 0.22758 0.0
O1894 O 0.89715 0.76228 0.2247 0.0
O1895 O 0.83519 0.71086 0.25732 0.0
O1896 O 0.84899 0.69162 0.23144 0.0
O1897 O 0.82207 0.7364 0.2242 0.0
O1898 O 0.84676 0.81896 0.21891 0.0
O1899 O 0.83402 0.77641 0.25446 0.0
O1900 O 0.87583 0.75201 0.26435 0.0
O1901 O 0.83758 0.7706 0.21239 0.0
O1902 O 0.90715 0.78909 0.23895 0.0
O1903 O 0.92702 0.74303 0.24905 0.0
C1904 C 0.90263 0.73261 0.22147 0.0
C1905 C 0.8277 0.68332 0.27835 0.0
C1906 C 0.79628 0.65426 0.29542 0.0
C1907 C 0.81046 0.67331 0.30571 0.0
C1908 C 0.84213 0.70136 0.28871 0.0
C1909 C 0.8328 0.69702 0.30231 0.0
C1910 C 0.80405 0.66085 0.28167 0.0
C1911 C 0.82483 0.70397 0.22364 0.0
C1912 C 0.83944 0.68424 0.26423 0.0
C1913 C 0.99914 0.65098 0.26053 0.0
C1914 C 0.98957 0.63057 0.24988 0.0
C1915 C 0.85059 0.77138 0.26578 0.0
C1916 C 0.87058 0.80148 0.19849 0.0
C1917 C 0.92812 0.80762 0.19468 0.0
C1918 C 0.9242 0.79479 0.18144 0.0
C1919 C 0.86704 0.78883 0.18531 0.0
C1920 C 0.9011 0.81077 0.20303 0.0
C1921 C 0.89384 0.78556 0.17681 0.0
C1922 C 0.93279 0.77343 0.24485 0.0
C1923 C 0.84439 0.7997 0.2085 0.0
H1924 H 0.80578 0.66898 0.31645 0.0
H1925 H 0.86117 0.71796 0.28634 0.0
H1926 H 0.84408 0.71096 0.31031 0.0
H1927 H 0.79304 0.64738 0.27345 0.0
H1928 H 0.94428 0.79286 0.17445 0.0
H1929 H 0.84384 0.78068 0.18177 0.0
H1930 H 0.90407 0.81964 0.21334 0.0
H1931 H 0.8911 0.77581 0.16661 0.0
Tb1932 Tb 0.63608 0.58543 0.49698 0.0
C1933 C 0.52738 0.4962 0.48732 0.0
N1934 N 0.5579 0.50619 0.48457 0.0
C1935 C 0.57756 0.45324 0.48961 0.0
C1936 C 0.52079 0.46401 0.49081 0.0
C1937 C 0.58301 0.48544 0.48629 0.0
C1938 C 0.5463 0.44232 0.49162 0.0
C1939 C 0.4717 0.51021 0.49176 0.0
C1940 C 0.50306 0.51907 0.48796 0.0
C1941 C 0.46473 0.47782 0.4944 0.0
C1942 C 0.48922 0.4548 0.49396 0.0
Tb1943 Tb 0.56103 0.55887 0.47765 0.0
N1944 N 0.51097 0.55042 0.48604 0.0
C1945 C 0.44857 0.53434 0.49323 0.0
C1946 C 0.48882 0.57413 0.48782 0.0
C1947 C 0.45724 0.56645 0.49136 0.0
H1948 H 0.60743 0.49318 0.48533 0.0
H1949 H 0.4396 0.58528 0.49261 0.0
H1950 H 0.59557 0.62101 0.52284 0.0
H1951 H 0.75689 0.60206 0.4787 0.0
H1952 H 0.49519 0.59895 0.48632 0.0
H1953 H 0.42415 0.52851 0.4961 0.0
H1954 H 0.70296 0.57818 0.47917 0.0
H1955 H 0.59756 0.4369 0.49076 0.0
H1956 H 0.4407 0.47049 0.49723 0.0
H1957 H 0.48369 0.43009 0.49651 0.0
H1958 H 0.60628 0.66029 0.54073 0.0
H1959 H 0.54226 0.41741 0.49432 0.0
H1960 H 0.77155 0.64397 0.49548 0.0
N1961 N 0.64281 0.62272 0.51422 0.0
C1962 C 0.67173 0.63752 0.5148 0.0
C1963 C 0.62505 0.65392 0.53357 0.0
C1964 C 0.67868 0.6608 0.52485 0.0
C1965 C 0.61932 0.63101 0.5234 0.0
C1966 C 0.6549 0.66881 0.53434 0.0
N1967 N 0.68667 0.60655 0.49593 0.0
C1968 C 0.70884 0.59652 0.48652 0.0
C1969 C 0.72514 0.64342 0.50544 0.0
C1970 C 0.69447 0.6292 0.50526 0.0
C1971 C 0.74773 0.63363 0.4957 0.0
C1972 C 0.73954 0.60999 0.48622 0.0
H1973 H 0.65923 0.6866 0.5422 0.0
H1974 H 0.71483 0.69328 0.53271 0.0
H1975 H 0.75566 0.67792 0.51569 0.0
O1976 O 0.62865 0.53648 0.50113 0.0
O1977 O 0.64505 0.6097 0.4775 0.0
O1978 O 0.60259 0.58426 0.47848 0.0
O1979 O 0.67122 0.5624 0.5084 0.0
O1980 O 0.65149 0.55115 0.47832 0.0
O1981 O 0.60488 0.53194 0.46757 0.0
O1982 O 0.54912 0.58798 0.46098 0.0
O1983 O 0.55199 0.55124 0.50038 0.0
O1984 O 0.59598 0.57158 0.51205 0.0
O1985 O 0.53481 0.53886 0.46113 0.0
O1986 O 0.5523 0.61192 0.48435 0.0
O1987 O 0.59895 0.62884 0.49571 0.0
C1988 C 0.61962 0.60338 0.47088 0.0
C1989 C 0.65435 0.51887 0.52197 0.0
C1990 C 0.68346 0.50403 0.54272 0.0
C1991 C 0.65547 0.49013 0.54806 0.0
C1992 C 0.62689 0.50355 0.52713 0.0
C1993 C 0.62742 0.48957 0.54019 0.0
C1994 C 0.68263 0.51826 0.52972 0.0
C1995 C 0.63768 0.53179 0.46859 0.0
C1996 C 0.65506 0.53535 0.50857 0.0
C1997 C 0.70905 0.67535 0.52508 0.0
C1998 C 0.73227 0.66665 0.51538 0.0
C1999 C 0.56735 0.55664 0.51214 0.0
C2000 C 0.49679 0.57723 0.45362 0.0
C2001 C 0.45583 0.61896 0.45624 0.0
C2002 C 0.43341 0.59809 0.45013 0.0
C2003 C 0.47416 0.55692 0.44759 0.0
C2004 C 0.48715 0.60771 0.4582 0.0
C2005 C 0.44251 0.56725 0.446 0.0
C2006 C 0.56924 0.63586 0.4905 0.0
C2007 C 0.53028 0.5668 0.45561 0.0
H2008 H 0.65548 0.47931 0.55815 0.0
H2009 H 0.60512 0.50242 0.52115 0.0
H2010 H 0.60601 0.47829 0.54422 0.0
H2011 H 0.70412 0.52956 0.52571 0.0
H2012 H 0.40915 0.60577 0.44801 0.0
H2013 H 0.48093 0.53315 0.44414 0.0
H2014 H 0.50428 0.62277 0.46342 0.0
H2015 H 0.42511 0.55157 0.44125 0.0
Tb2016 Tb 0.31914 0.31144 0.23004 0.0
C2017 C 0.41376 0.41767 0.26144 0.0
N2018 N 0.39399 0.39232 0.26359 0.0
C2019 C 0.42623 0.37632 0.28287 0.0
C2020 C 0.44083 0.42315 0.26976 0.0
C2021 C 0.39958 0.37203 0.27439 0.0
C2022 C 0.44713 0.40182 0.28048 0.0
C2023 C 0.42427 0.46696 0.24911 0.0
C2024 C 0.40576 0.4391 0.25129 0.0
C2025 C 0.45193 0.47204 0.25699 0.0
C2026 C 0.46022 0.45013 0.2673 0.0
Tb2027 Tb 0.35267 0.38594 0.24818 0.0
N2028 N 0.37862 0.43354 0.2441 0.0
C2029 C 0.41388 0.48927 0.23935 0.0
C2030 C 0.36757 0.456 0.23501 0.0
C2031 C 0.38518 0.48392 0.23239 0.0
H2032 H 0.38418 0.35197 0.2765 0.0
H2033 H 0.37655 0.50133 0.22502 0.0
H2034 H 0.24922 0.34892 0.23665 0.0
H2035 H 0.35943 0.19113 0.24195 0.0
H2036 H 0.34539 0.45236 0.22959 0.0
H2037 H 0.42739 0.51099 0.23736 0.0
H2038 H 0.36641 0.24742 0.23514 0.0
H2039 H 0.43064 0.35987 0.29125 0.0
H2040 H 0.46664 0.49315 0.25541 0.0
H2041 H 0.48124 0.45463 0.27352 0.0
H2042 H 0.1942 0.33266 0.24233 0.0
H2043 H 0.46768 0.40514 0.2871 0.0
H2044 H 0.30545 0.17034 0.24753 0.0
N2045 N 0.26822 0.3014 0.23778 0.0
C2046 C 0.26178 0.26994 0.24042 0.0
C2047 C 0.21299 0.31478 0.24178 0.0
C2048 C 0.23065 0.25976 0.24397 0.0
C2049 C 0.24431 0.32387 0.23843 0.0
C2050 C 0.20607 0.28259 0.24447 0.0
N2051 N 0.31701 0.25946 0.2375 0.0
C2052 C 0.34284 0.23928 0.238 0.0
C2053 C 0.28203 0.21609 0.24422 0.0
C2054 C 0.28716 0.24841 0.24053 0.0
C2055 C 0.30839 0.19535 0.24473 0.0
C2056 C 0.33892 0.20705 0.24166 0.0
H2057 H 0.18181 0.27573 0.24715 0.0
H2058 H 0.20147 0.21905 0.24995 0.0
H2059 H 0.24645 0.18081 0.25018 0.0
O2060 O 0.32944 0.27771 0.21458 0.0
O2061 O 0.30173 0.3125 0.25186 0.0
O2062 O 0.34129 0.34203 0.26221 0.0
O2063 O 0.30033 0.31945 0.2105 0.0
O2064 O 0.37497 0.30364 0.23473 0.0
O2065 O 0.39468 0.34774 0.24727 0.0
O2066 O 0.30494 0.38563 0.25527 0.0
O2067 O 0.37103 0.39203 0.22724 0.0
O2068 O 0.34974 0.34841 0.23109 0.0
O2069 O 0.33852 0.42369 0.26077 0.0
O2070 O 0.31683 0.40199 0.23022 0.0
O2071 O 0.29238 0.35639 0.2211 0.0
C2072 C 0.31656 0.32115 0.26326 0.0
C2073 C 0.28378 0.27098 0.20071 0.0
C2074 C 0.26951 0.22693 0.18582 0.0
C2075 C 0.23718 0.2301 0.18938 0.0
C2076 C 0.25125 0.27456 0.20429 0.0
C2077 C 0.22812 0.254 0.19869 0.0
C2078 C 0.29255 0.2471 0.19163 0.0
C2079 C 0.40024 0.31859 0.24129 0.0
C2080 C 0.30928 0.29138 0.20623 0.0
C2081 C 0.22526 0.22738 0.24726 0.0
C2082 C 0.25089 0.20561 0.24741 0.0
C2083 C 0.36436 0.36507 0.22189 0.0
C2084 C 0.29802 0.413 0.27659 0.0
C2085 C 0.27475 0.4465 0.29459 0.0
C2086 C 0.28554 0.42397 0.30438 0.0
C2087 C 0.30953 0.39171 0.28652 0.0
C2088 C 0.27961 0.43949 0.28061 0.0
C2089 C 0.3023 0.39655 0.3003 0.0
C2090 C 0.29493 0.389 0.22133 0.0
C2091 C 0.30973 0.41191 0.26243 0.0
H2092 H 0.21925 0.21449 0.18494 0.0
H2093 H 0.24369 0.29312 0.21132 0.0
H2094 H 0.20316 0.25677 0.2015 0.0
H2095 H 0.31768 0.24433 0.18892 0.0
H2096 H 0.28294 0.42819 0.31524 0.0
H2097 H 0.32526 0.37233 0.2837 0.0
H2098 H 0.27105 0.45572 0.27275 0.0
H2099 H 0.3114 0.38002 0.30793 0.0
Tb2100 Tb 0.52462 0.61648 0.98345 0.0
C2101 C 0.41795 0.70724 1.01376 0.0
N2102 N 0.4412 0.68579 1.01687 0.0
C2103 C 0.44969 0.71272 1.03838 0.0
C2104 C 0.41007 0.73279 1.02264 0.0
C2105 C 0.45663 0.68792 1.02921 0.0
C2106 C 0.42652 0.73549 1.03503 0.0
C2107 C 0.37636 0.72406 0.99818 0.0
C2108 C 0.40136 0.70282 1.00185 0.0
C2109 C 0.36897 0.75015 1.0067 0.0
C2110 C 0.38578 0.75447 1.01896 0.0
Tb2111 Tb 0.45398 0.64754 1.00068 0.0
N2112 N 0.40939 0.67727 0.99397 0.0
C2113 C 0.3593 0.71825 0.98615 0.0
C2114 C 0.39165 0.67098 0.98244 0.0
C2115 C 0.36679 0.69138 0.97834 0.0
H2116 H 0.47455 0.67086 1.03219 0.0
H2117 H 0.35346 0.68634 0.96908 0.0
H2118 H 0.4937 0.5427 0.98896 0.0
H2119 H 0.64356 0.66455 0.99239 0.0
H2120 H 0.39643 0.65071 0.97599 0.0
H2121 H 0.34006 0.73403 0.98293 0.0
H2122 H 0.58826 0.66602 0.98403 0.0
H2123 H 0.4623 0.71424 1.04804 0.0
H2124 H 0.35002 0.7668 1.00402 0.0
H2125 H 0.37955 0.77437 1.02558 0.0
H2126 H 0.51296 0.49066 0.99722 0.0
H2127 H 0.42118 0.7547 1.04215 0.0
H2128 H 0.66547 0.61476 1.00252 0.0
N2129 N 0.53836 0.56682 0.99201 0.0
C2130 C 0.56946 0.56358 0.99606 0.0
C2131 C 0.52908 0.51099 0.99695 0.0
C2132 C 0.58121 0.53411 1.00113 0.0
C2133 C 0.51832 0.54072 0.99212 0.0
C2134 C 0.56058 0.50767 1.00151 0.0
N2135 N 0.57725 0.61817 0.99031 0.0
C2136 C 0.59665 0.6445 0.98898 0.0
C2137 C 0.62126 0.58822 1.00008 0.0
C2138 C 0.58922 0.59033 0.99554 0.0
C2139 C 0.64075 0.61542 0.99914 0.0
C2140 C 0.62844 0.6436 0.99347 0.0
H2141 H 0.56872 0.48463 1.00533 0.0
H2142 H 0.62239 0.50959 1.00972 0.0
H2143 H 0.65746 0.55697 1.00882 0.0
O2144 O 0.56233 0.60915 0.96944 0.0
O2145 O 0.51964 0.59819 1.00517 0.0
O2146 O 0.49773 0.64171 1.01469 0.0
O2147 O 0.51329 0.60189 0.96344 0.0
O2148 O 0.53382 0.67115 0.98981 0.0
O2149 O 0.4898 0.69045 1.00172 0.0
O2150 O 0.4168 0.62961 1.0129 0.0
O2151 O 0.45631 0.65514 0.97876 0.0
O2152 O 0.50877 0.66255 0.97568 0.0
O2153 O 0.45624 0.59892 1.00641 0.0
O2154 O 0.43572 0.61533 0.98243 0.0
O2155 O 0.4802 0.58736 0.97557 0.0
C2156 C 0.51567 0.61553 1.01633 0.0
C2157 C 0.54543 0.63103 0.94854 0.0
C2158 C 0.55373 0.68755 0.94287 0.0
C2159 C 0.54413 0.68081 0.9293 0.0
C2160 C 0.53577 0.62482 0.9351 0.0
C2161 C 0.53515 0.64972 0.92551 0.0
C2162 C 0.5541 0.66231 0.95232 0.0
C2163 C 0.51938 0.69625 0.99656 0.0
C2164 C 0.54254 0.60648 0.95923 0.0
C2165 C 0.613 0.532 1.00575 0.0
C2166 C 0.63294 0.559 1.00526 0.0
C2167 C 0.47944 0.67052 0.97284 0.0
C2168 C 0.42973 0.58595 1.0272 0.0
C2169 C 0.40364 0.54861 1.04302 0.0
C2170 C 0.42323 0.56058 1.05363 0.0
C2171 C 0.44839 0.59784 1.03794 0.0
C2172 C 0.40821 0.5608 1.02967 0.0
C2173 C 0.44571 0.58466 1.05101 0.0
C2174 C 0.44803 0.59109 0.97474 0.0
C2175 C 0.42988 0.60111 1.01364 0.0
H2176 H 0.54448 0.69914 0.92143 0.0
H2177 H 0.52824 0.60096 0.9321 0.0
H2178 H 0.52787 0.64491 0.91508 0.0
H2179 H 0.56085 0.66703 0.96278 0.0
H2180 H 0.42036 0.55264 0.0641 0.0
H2181 H 0.4644 0.61771 1.03629 0.0
H2182 H 0.39424 0.55171 1.02119 0.0
H2183 H 0.46017 0.59406 1.05929 0.0
Tb2184 Tb 0.21678 0.715 0.72725 0.0
C2185 C 0.13437 0.60267 0.76294 0.0
N2186 N 0.1473 0.63248 0.76238 0.0
C2187 C 0.11391 0.6483 0.78141 0.0
C2188 C 0.11105 0.59428 0.77282 0.0
C2189 C 0.13689 0.65546 0.77142 0.0
C2190 C 0.10102 0.61754 0.78217 0.0
C2191 C 0.1321 0.54902 0.75362 0.0
C2192 C 0.14453 0.58053 0.75351 0.0
C2193 C 0.10894 0.54042 0.76341 0.0
C2194 C 0.09841 0.56304 0.773 0.0
Tb2195 Tb 0.18557 0.64171 0.7456 0.0
N2196 N 0.16696 0.58983 0.7443 0.0
C2197 C 0.14346 0.52709 0.74395 0.0
C2198 C 0.1784 0.56822 0.73494 0.0
C2199 C 0.16678 0.53676 0.73458 0.0
H2200 H 0.14521 0.67985 0.77094 0.0
H2201 H 0.1759 0.51996 0.72707 0.0
H2202 H 0.28311 0.67109 0.73521 0.0
H2203 H 0.18502 0.83526 0.74247 0.0
H2204 H 0.19643 0.57485 0.7276 0.0
H2205 H 0.13454 0.50268 0.74367 0.0
H2206 H 0.17373 0.77923 0.73602 0.0
H2207 H 0.10595 0.6667 0.78846 0.0
H2208 H 0.09909 0.51636 0.76365 0.0
H2209 H 0.08051 0.55617 0.7805 0.0
H2210 H 0.33905 0.6829 0.7408 0.0
H2211 H 0.08315 0.6121 0.7899 0.0
H2212 H 0.24099 0.85309 0.74595 0.0
N2213 N 0.26821 0.72013 0.73533 0.0
C2214 C 0.27733 0.75105 0.73771 0.0
C2215 C 0.32194 0.70232 0.73987 0.0
C2216 C 0.30921 0.75882 0.74107 0.0
C2217 C 0.28996 0.69574 0.73661 0.0
C2218 C 0.33172 0.734 0.74191 0.0
N2219 N 0.22277 0.76509 0.73623 0.0
C2220 C 0.19817 0.78637 0.73789 0.0
C2221 C 0.2612 0.80617 0.74186 0.0
C2222 C 0.25363 0.77439 0.73822 0.0
C2223 C 0.23618 0.82835 0.74324 0.0
C2224 C 0.20452 0.81831 0.74139 0.0
H2225 H 0.35648 0.73894 0.7445 0.0
H2226 H 0.3417 0.79736 0.74646 0.0
H2227 H 0.29968 0.83888 0.74704 0.0
O2228 O 0.19769 0.74772 0.71314 0.0
O2229 O 0.22849 0.71957 0.74975 0.0
O2230 O 0.19413 0.68421 0.76047 0.0
O2231 O 0.24087 0.72195 0.7085 0.0
O2232 O 0.1614 0.72279 0.73181 0.0
O2233 O 0.1423 0.67814 0.74403 0.0
O2234 O 0.2342 0.65173 0.74878 0.0
O2235 O 0.16545 0.63272 0.72509 0.0
O2236 O 0.18505 0.67733 0.72686 0.0
O2237 O 0.21029 0.61082 0.75866 0.0
O2238 O 0.22118 0.62499 0.7277 0.0
O2239 O 0.24338 0.67073 0.71763 0.0
C2240 C 0.21549 0.70851 0.76124 0.0
C2241 C 0.2399 0.77737 0.70326 0.0
C2242 C 0.23913 0.83598 0.70459 0.0
C2243 C 0.27183 0.83639 0.70095 0.0
C2244 C 0.27242 0.77833 0.69956 0.0
C2245 C 0.28829 0.80772 0.69853 0.0
C2246 C 0.22372 0.80622 0.70588 0.0
C2247 C 0.13639 0.70735 0.73822 0.0
C2248 C 0.22313 0.74659 0.70545 0.0
C2249 C 0.31723 0.79083 0.74402 0.0
C2250 C 0.29329 0.81448 0.74438 0.0
C2251 C 0.1721 0.65792 0.71813 0.0
C2252 C 0.25224 0.63551 0.77077 0.0
C2253 C 0.30055 0.63464 0.78487 0.0
C2254 C 0.28167 0.6436 0.79625 0.0
C2255 C 0.23386 0.64275 0.78238 0.0
C2256 C 0.28558 0.63205 0.77197 0.0
C2257 C 0.24866 0.64755 0.79497 0.0
C2258 C 0.24245 0.63807 0.71851 0.0
C2259 C 0.23656 0.62811 0.75771 0.0
H2260 H 0.28455 0.85876 0.69949 0.0
H2261 H 0.28565 0.75642 0.69763 0.0
H2262 H 0.31336 0.80833 0.69567 0.0
H2263 H 0.19892 0.80535 0.70909 0.0
H2264 H 0.2918 0.64528 0.80642 0.0
H2265 H 0.208 0.64435 0.78173 0.0
H2266 H 0.29945 0.62541 0.76302 0.0
H2267 H 0.23432 0.65316 0.8039 0.0
Tb2268 Tb 0.10832 0.52711 0.47851 0.0
C2269 C 0.21891 0.44424 0.51448 0.0
N2270 N 0.19067 0.46032 0.51511 0.0
C2271 C 0.17464 0.42725 0.5342 0.0
C2272 C 0.22615 0.41894 0.5236 0.0
C2273 C 0.16864 0.45224 0.52496 0.0
C2274 C 0.20346 0.41041 0.53349 0.0
C2275 C 0.27144 0.43919 0.5042 0.0
C2276 C 0.24107 0.45402 0.50494 0.0
C2277 C 0.27859 0.41347 0.513 0.0
C2278 C 0.25595 0.40333 0.52269 0.0
Tb2279 Tb 0.18246 0.4997 0.49882 0.0
N2280 N 0.23332 0.47915 0.49679 0.0
C2281 C 0.29389 0.45112 0.49485 0.0
C2282 C 0.25564 0.49162 0.48799 0.0
C2283 C 0.28602 0.47766 0.48679 0.0
H2284 H 0.14588 0.46418 0.52571 0.0
H2285 H 0.30338 0.48746 0.47967 0.0
H2286 H 0.14668 0.59574 0.48627 0.0
H2287 H 0.9861 0.49059 0.48722 0.0
H2288 H 0.2502 0.51219 0.48173 0.0
H2289 H 0.31749 0.44043 0.49395 0.0
H2290 H 1.04362 0.48182 0.48287 0.0
H2291 H 0.1569 0.42093 0.54184 0.0
H2292 H 0.3017 0.40162 0.51254 0.0
H2293 H 0.26188 0.38376 0.52956 0.0
H2294 H 0.13137 0.65158 0.49112 0.0
H2295 H 0.20806 0.39111 0.54068 0.0
H2296 H 0.9655 0.54556 0.4911 0.0
N2297 N 0.09853 0.57883 0.48524 0.0
C2298 C 0.06702 0.58636 0.48691 0.0
C2299 C 0.11302 0.63349 0.48984 0.0
C2300 C 0.05722 0.61791 0.48992 0.0
C2301 C 0.12161 0.60175 0.48692 0.0
C2302 C 0.08068 0.6417 0.49118 0.0
N2303 N 0.05585 0.53121 0.48474 0.0
C2304 C 1.03519 0.50583 0.4849 0.0
C2305 C 1.01223 0.56774 0.48918 0.0
C2306 C 1.04493 0.56157 0.48673 0.0
C2307 C 0.99087 0.54184 0.48931 0.0
C2308 C 1.00244 0.51075 0.4872 0.0
H2309 H 0.07416 0.66627 0.49353 0.0
H2310 H 1.01643 0.64859 0.49421 0.0
H2311 H 0.97697 0.60468 0.49342 0.0
O2312 O 0.08384 0.5016 0.46335 0.0
O2313 O 0.10274 0.54265 0.50058 0.0
O2314 O 0.13689 0.50809 0.5119 0.0
O2315 O 0.10333 0.54829 0.45903 0.0
O2316 O 0.10148 0.4726 0.48486 0.0
O2317 O 0.14656 0.45557 0.49743 0.0
O2318 O 0.17584 0.54838 0.50377 0.0
O2319 O 0.19277 0.47944 0.47856 0.0
O2320 O 0.14829 0.50043 0.48075 0.0
O2321 O 0.21471 0.51984 0.51264 0.0
O2322 O 0.19838 0.53567 0.48078 0.0
O2323 O 0.15281 0.55442 0.46927 0.0
C2324 C 0.11359 0.53061 0.51232 0.0
C2325 C 0.05328 0.53457 0.44914 0.0
C2326 C 1.00251 0.5164 0.43973 0.0
C2327 C 0.99 0.54753 0.4412 0.0
C2328 C 1.04068 0.56571 0.4505 0.0
C2329 C 1.00918 0.57212 0.44644 0.0
C2330 C 1.03429 0.51035 0.44352 0.0
C2331 C 0.1176 0.44847 0.49158 0.0
C2332 C 0.08462 0.52545 0.45477 0.0
C2333 C 1.02451 0.62442 0.492 0.0
C2334 C 1.00205 0.5994 0.49159 0.0
C2335 C 0.1665 0.48488 0.47238 0.0
C2336 C 0.19479 0.56199 0.52603 0.0
C2337 C 0.21403 0.59935 0.54346 0.0
C2338 C 0.19322 0.58463 0.55301 0.0
C2339 C 0.17624 0.54638 0.53595 0.0
C2340 C 0.21286 0.589 0.52971 0.0
C2341 C 0.17432 0.55855 0.5492 0.0
C2342 C 0.18535 0.55504 0.47082 0.0
C2343 C 0.19986 0.54757 0.51249 0.0
H2344 H 0.96546 0.55276 0.43835 0.0
H2345 H 0.05476 0.58482 0.45498 0.0
H2346 H 0.99942 0.59603 0.44762 0.0
H2347 H 1.04382 0.48616 0.44283 0.0
H2348 H 0.19329 0.59128 0.56371 0.0
H2349 H 0.16432 0.52411 0.53362 0.0
H2350 H 0.2279 0.60021 0.52203 0.0
H2351 H 0.15977 0.54642 0.5568 0.0
Tb2352 Tb 0.3577 0.78733 0.39009 0.0
C2353 C 0.4558 0.6755 0.36274 0.0
N2354 N 0.43669 0.70104 0.35998 0.0
C2355 C 0.46936 0.71365 0.34035 0.0
C2356 C 0.48256 0.66803 0.35448 0.0
C2357 C 0.44305 0.72 0.34883 0.0
C2358 C 0.48931 0.68765 0.34322 0.0
C2359 C 0.46607 0.62854 0.37668 0.0
C2360 C 0.44781 0.65618 0.37366 0.0
C2361 C 0.49316 0.62131 0.3687 0.0
C2362 C 0.50141 0.64105 0.35761 0.0
Tb2363 Tb 0.3954 0.71047 0.37511 0.0
N2364 N 0.42132 0.66384 0.38099 0.0
C2365 C 0.45622 0.60875 0.38747 0.0
C2366 C 0.41106 0.64397 0.39128 0.0
C2367 C 0.42843 0.6164 0.39473 0.0
H2368 H 0.42847 0.74047 0.34637 0.0
H2369 H 0.42036 0.60107 0.40301 0.0
H2370 H 0.28415 0.75454 0.39019 0.0
H2371 H 0.4044 0.88992 0.36194 0.0
H2372 H 0.38977 0.64937 0.39705 0.0
H2373 H 0.46957 0.58732 0.39013 0.0
H2374 H 0.40886 0.84018 0.37481 0.0
H2375 H 0.47427 0.72894 0.33162 0.0
H2376 H 0.5076 0.60029 0.3709 0.0
H2377 H 0.52212 0.63501 0.35142 0.0
H2378 H 0.22981 0.77137 0.38399 0.0
H2379 H 0.50963 0.68277 0.33662 0.0
H2380 H 0.35124 0.91177 0.35588 0.0
N2381 N 0.3066 0.79693 0.3825 0.0
C2382 C 0.302 0.82579 0.37623 0.0
C2383 C 0.24994 0.78691 0.38175 0.0
C2384 C 0.27112 0.83624 0.37242 0.0
C2385 C 0.28104 0.77742 0.38526 0.0
C2386 C 0.24491 0.81653 0.37541 0.0
N2387 N 0.35831 0.8317 0.37596 0.0
C2388 C 0.38526 0.84823 0.37216 0.0
C2389 C 0.32534 0.8726 0.36537 0.0
C2390 C 0.32883 0.84362 0.37271 0.0
C2391 C 0.35288 0.88938 0.36151 0.0
C2392 C 0.38292 0.87703 0.36485 0.0
H2393 H 0.22078 0.8237 0.37266 0.0
H2394 H 0.24395 0.87413 0.36257 0.0
H2395 H 0.29144 0.90604 0.35642 0.0
O2396 O 0.37631 0.82224 0.40335 0.0
O2397 O 0.34105 0.77843 0.36864 0.0
O2398 O 0.3847 0.75252 0.35989 0.0
O2399 O 0.331 0.80017 0.40765 0.0
O2400 O 0.41422 0.79427 0.38728 0.0
O2401 O 0.43551 0.74958 0.37571 0.0
O2402 O 0.34718 0.70926 0.36892 0.0
O2403 O 0.41553 0.71054 0.39607 0.0
O2404 O 0.38555 0.74826 0.39159 0.0
O2405 O 0.38168 0.67257 0.36248 0.0
O2406 O 0.35824 0.69543 0.39263 0.0
O2407 O 0.33307 0.74218 0.40066 0.0
C2408 C 0.35817 0.7706 0.35777 0.0
C2409 C 0.33302 0.85706 0.40753 0.0
C2410 C 0.33884 0.91216 0.39892 0.0
C2411 C 0.30545 0.91402 0.39725 0.0
C2412 C 0.29958 0.85981 0.40613 0.0
C2413 C 0.28599 0.8881 0.40099 0.0
C2414 C 0.35211 0.88368 0.40431 0.0
C2415 C 0.4402 0.77893 0.38145 0.0
C2416 C 0.34878 0.82543 0.4095 0.0
C2417 C 0.26751 0.86556 0.36549 0.0
C2418 C 0.29456 0.8837 0.36197 0.0
C2419 C 0.4039 0.73644 0.4009 0.0
C2420 C 0.33938 0.68373 0.3474 0.0
C2421 C 0.30537 0.6575 0.33044 0.0
C2422 C 0.31891 0.67735 0.32024 0.0
C2423 C 0.35348 0.70216 0.33702 0.0
C2424 C 0.31495 0.66201 0.34414 0.0
C2425 C 0.34254 0.6997 0.32358 0.0
C2426 C 0.33569 0.70926 0.40097 0.0
C2427 C 0.35238 0.68365 0.36135 0.0
H2428 H 0.29438 0.93568 0.39333 0.0
H2429 H 0.28403 0.83966 0.40836 0.0
H2430 H 0.26028 0.88974 0.3997 0.0
H2431 H 0.37771 0.88183 0.40597 0.0
H2432 H 0.31274 0.67448 0.30955 0.0
H2433 H 0.37353 0.71765 0.33918 0.0
H2434 H 0.30463 0.64751 0.35224 0.0
H2435 H 0.3535 0.71408 0.3156 0.0
Tb2436 Tb 0.06732 0.56578 0.14246 0.0
C2437 C 0.17342 0.64968 0.10484 0.0
N2438 N 0.14591 0.63231 0.10451 0.0
C2439 C 0.12745 0.6644 0.08554 0.0
C2440 C 0.17905 0.67513 0.09558 0.0
C2441 C 0.123 0.63934 0.0949 0.0
C2442 C 0.15554 0.68246 0.0859 0.0
C2443 C 0.22605 0.65746 0.11468 0.0
C2444 C 0.19643 0.64119 0.11424 0.0
C2445 C 0.23159 0.68329 0.10572 0.0
C2446 C 0.20809 0.69213 0.09619 0.0
Tb2447 Tb 0.1405 0.59298 0.12104 0.0
N2448 N 0.19029 0.61592 0.12256 0.0
C2449 C 0.24942 0.64683 0.12389 0.0
C2450 C 0.21349 0.6047 0.13124 0.0
C2451 C 0.24318 0.62014 0.13213 0.0
H2452 H 0.10065 0.62661 0.09449 0.0
H2453 H 0.26125 0.61138 0.13915 0.0
H2454 H 0.1056 0.49829 0.13335 0.0
H2455 H 0.94417 0.60221 0.1365 0.0
H2456 H 0.20913 0.58404 0.13762 0.0
H2457 H 0.27248 0.65867 0.12455 0.0
H2458 H 1.00188 0.61078 0.14061 0.0
H2459 H 0.10905 0.66989 0.07809 0.0
H2460 H 0.2541 0.69624 0.10594 0.0
H2461 H 0.21279 0.71184 0.08921 0.0
H2462 H 0.09041 0.44285 0.12755 0.0
H2463 H 0.15891 0.70184 0.07862 0.0
H2464 H 0.92384 0.54768 0.1315 0.0
N2465 N 0.05739 0.51461 0.13523 0.0
C2466 C 1.02581 0.50702 0.13393 0.0
C2467 C 0.07201 0.46065 0.12941 0.0
C2468 C 1.01608 0.4758 0.13032 0.0
C2469 C 0.08054 0.4921 0.13285 0.0
C2470 C 1.03966 0.45237 0.12827 0.0
N2471 N 1.01425 0.56179 0.13751 0.0
C2472 C 0.99344 0.58701 0.13816 0.0
C2473 C 0.97076 0.52554 0.13262 0.0
C2474 C 1.0035 0.53161 0.13495 0.0
C2475 C 0.94923 0.55131 0.13322 0.0
C2476 C 0.96065 0.58217 0.13597 0.0
H2477 H 1.03319 0.42808 0.12546 0.0
H2478 H 0.97532 0.44547 0.1257 0.0
H2479 H 0.93562 0.48897 0.12779 0.0
O2480 O 1.04601 0.59032 0.15896 0.0
O2481 O 0.05905 0.55197 0.12019 0.0
O2482 O 0.09639 0.58113 0.10773 0.0
O2483 O 0.0616 0.54136 0.16109 0.0
O2484 O 0.05955 0.62001 0.1364 0.0
O2485 O 0.10327 0.63627 0.12272 0.0
O2486 O 0.1362 0.54436 0.11536 0.0
O2487 O 0.15121 0.61585 0.14052 0.0
O2488 O 0.10798 0.59152 0.13984 0.0
O2489 O 0.17563 0.57464 0.1081 0.0
O2490 O 0.15754 0.55788 0.13934 0.0
O2491 O 0.11244 0.53856 0.15101 0.0
C2492 C 0.07083 0.56132 0.1081 0.0
C2493 C 0.07036 0.57557 0.17995 0.0
C2494 C 0.08267 0.61512 0.19754 0.0
C2495 C 0.10554 0.59429 0.20318 0.0
C2496 C 0.09346 0.55486 0.18568 0.0
C2497 C 0.11096 0.56429 0.19721 0.0
C2498 C 0.06503 0.60541 0.18604 0.0
C2499 C 0.07492 0.64367 0.12914 0.0
C2500 C 0.05221 0.56701 0.16748 0.0
C2501 C 0.98333 0.46936 0.1284 0.0
C2502 C 0.96072 0.49417 0.12955 0.0
C2503 C 0.12614 0.60949 0.14736 0.0
C2504 C 0.16142 0.53221 0.09386 0.0
C2505 C 0.19355 0.50636 0.07602 0.0
C2506 C 0.17051 0.51621 0.06629 0.0
C2507 C 0.13981 0.5429 0.08393 0.0
C2508 C 0.18725 0.51274 0.08997 0.0
C2509 C 0.14359 0.53379 0.0703 0.0
C2510 C 0.14493 0.53853 0.14943 0.0
C2511 C 0.16203 0.54637 0.10761 0.0
H2512 H 0.11893 0.60113 0.21221 0.0
H2513 H 0.09824 0.53155 0.18123 0.0
H2514 H 0.12871 0.54827 0.20153 0.0
H2515 H 0.04654 0.621 0.18193 0.0
H2516 H 0.17398 0.51244 1.05544 0.0
H2517 H 0.12115 0.55956 0.08656 0.0
H2518 H 0.2037 0.50483 0.09784 0.0
H2519 H 0.12677 0.54227 0.06267 0.0
Tb2520 Tb 0.2679 0.36027 0.89713 0.0
C2521 C 0.18079 0.46222 0.86227 0.0
N2522 N 0.20101 0.43674 0.86148 0.0
C2523 C 0.17071 0.41587 0.84255 0.0
C2524 C 0.15426 0.46522 0.85343 0.0
C2525 C 0.19677 0.41402 0.85152 0.0
C2526 C 0.14916 0.4414 0.84359 0.0
C2527 C 0.16863 0.51403 0.87225 0.0
C2528 C 0.1878 0.48623 0.87151 0.0
C2529 C 0.14141 0.51664 0.86386 0.0
C2530 C 0.13425 0.49227 0.85445 0.0
Tb2531 Tb 0.24188 0.43583 0.87725 0.0
N2532 N 0.21468 0.48315 0.87917 0.0
C2533 C 0.17792 0.53869 0.88112 0.0
C2534 C 0.22461 0.50762 0.88745 0.0
C2535 C 0.20622 0.53558 0.88866 0.0
H2536 H 0.21281 0.39381 0.8507 0.0
H2537 H 0.21391 0.55473 0.89537 0.0
H2538 H 0.32793 0.40799 0.88557 0.0
H2539 H 0.24577 0.23521 0.88827 0.0
H2540 H 0.24653 0.50532 0.89326 0.0
H2541 H 0.16384 0.56045 0.882 0.0
H2542 H 0.23073 0.29159 0.89325 0.0
H2543 H 0.16719 0.3975 0.83487 0.0
H2544 H 0.1262 0.5377 0.86433 0.0
H2545 H 0.1136 0.4949 0.84782 0.0
H2546 H 0.38328 0.40062 0.87773 0.0
H2547 H 0.12905 0.44279 0.83661 0.0
H2548 H 0.302 0.22179 0.88238 0.0
N2549 N 0.3187 0.35809 0.88808 0.0
C2550 C 0.33002 0.32786 0.88586 0.0
C2551 C 0.36866 0.37991 0.88015 0.0
C2552 C 0.36145 0.32246 0.8811 0.0
C2553 C 0.33718 0.38403 0.88481 0.0
C2554 C 0.38105 0.34901 0.87851 0.0
N2555 N 0.27791 0.30929 0.89026 0.0
C2556 C 0.25521 0.2858 0.89056 0.0
C2557 C 0.31849 0.27093 0.88401 0.0
C2558 C 0.30884 0.30246 0.88712 0.0
C2559 C 0.29553 0.24643 0.88461 0.0
C2560 C 0.26371 0.25394 0.88783 0.0
H2561 H 0.40534 0.34593 0.87479 0.0
H2562 H 0.39596 0.28621 0.875 0.0
H2563 H 0.35838 0.24104 0.87769 0.0
O2564 O 0.23954 0.33942 0.91244 0.0
O2565 O 0.2703 0.34705 0.87464 0.0
O2566 O 0.26249 0.39582 0.86367 0.0
O2567 O 0.28999 0.34526 0.91549 0.0
O2568 O 0.21358 0.35381 0.89191 0.0
O2569 O 0.19906 0.39776 0.87812 0.0
O2570 O 0.2544 0.47365 0.86413 0.0
O2571 O 0.22337 0.44616 0.89786 0.0
O2572 O 0.24227 0.40116 0.89549 0.0
O2573 O 0.28924 0.43724 0.87006 0.0
O2574 O 0.27797 0.45107 0.89515 0.0
O2575 O 0.296 0.40466 0.90654 0.0
C2576 C 0.27157 0.36487 0.86327 0.0
C2577 C 0.26617 0.29681 0.92337 0.0
C2578 C 0.2396 0.24466 0.92539 0.0
C2579 C 0.26975 0.23012 0.92727 0.0
C2580 C 0.29598 0.28179 0.92534 0.0
C2581 C 0.29765 0.24863 0.92728 0.0
C2582 C 0.23814 0.27809 0.92361 0.0
C2583 C 0.19076 0.36957 0.88448 0.0
C2584 C 0.26403 0.3313 0.91986 0.0
C2585 C 0.37177 0.29089 0.87853 0.0
C2586 C 0.35035 0.26515 0.88003 0.0
C2587 C 0.22725 0.41949 0.90398 0.0
C2588 C 0.29409 0.46031 0.84803 0.0
C2589 C 0.33137 0.477 0.83005 0.0
C2590 C 0.31291 0.45955 0.82051 0.0
C2591 C 0.27559 0.44419 0.83825 0.0
C2592 C 0.32218 0.47619 0.84396 0.0
C2593 C 0.28541 0.44318 0.82463 0.0
C2594 C 0.29711 0.43748 0.90504 0.0
C2595 C 0.28336 0.46237 0.86233 0.0
H2596 H 0.2718 0.20452 0.92898 0.0
H2597 H 0.31801 0.29551 0.92514 0.0
H2598 H 0.3207 0.23719 0.92875 0.0
H2599 H 0.21515 0.28949 0.92187 0.0
H2600 H 0.31847 0.45992 0.80968 0.0
H2601 H 0.25376 0.43214 0.84115 0.0
H2602 H 0.33605 0.48894 0.85158 0.0
H2603 H 0.27112 0.43046 0.81716 0.0
Tb2604 Tb 0.47179 0.46247 0.63959 0.0
C2605 C 0.36081 0.38055 0.60324 0.0
N2606 N 0.39058 0.39343 0.60402 0.0
C2607 C 0.407 0.36077 0.58487 0.0
C2608 C 0.35273 0.35767 0.59317 0.0
C2609 C 0.41384 0.3833 0.59506 0.0
C2610 C 0.37626 0.348 0.58386 0.0
C2611 C 0.307 0.37777 0.61236 0.0
C2612 C 0.33845 0.39024 0.61267 0.0
C2613 C 0.29867 0.35511 0.60235 0.0
C2614 C 0.32153 0.34505 0.59276 0.0
Tb2615 Tb 0.39927 0.43107 0.62105 0.0
N2616 N 0.34751 0.41217 0.6221 0.0
C2617 C 0.28486 0.38858 0.62206 0.0
C2618 C 0.32572 0.42304 0.63152 0.0
C2619 C 0.29429 0.41137 0.63168 0.0
H2620 H 0.43822 0.39149 0.59575 0.0
H2621 H 0.27734 0.42004 0.63922 0.0
H2622 H 0.42834 0.52927 0.63191 0.0
H2623 H 0.59226 0.43077 0.6247 0.0
H2624 H 0.33216 0.44063 0.63906 0.0
H2625 H 0.26048 0.37962 0.62218 0.0
H2626 H 0.53614 0.41941 0.63095 0.0
H2627 H 0.42561 0.35304 0.57788 0.0
H2628 H 0.27466 0.34525 0.60194 0.0
H2629 H 0.31488 0.32749 0.5851 0.0
H2630 H 0.44045 0.58545 0.62664 0.0
H2631 H 0.37106 0.33047 0.57598 0.0
H2632 H 0.61022 0.48685 0.62141 0.0
N2633 N 0.47727 0.51417 0.63174 0.0
C2634 C 0.50822 0.52327 0.62947 0.0
C2635 C 0.45976 0.5682 0.6275 0.0
C2636 C 0.51615 0.55527 0.6263 0.0
C2637 C 0.45301 0.53609 0.63057 0.0
C2638 C 0.49147 0.57795 0.62555 0.0
N2639 N 0.52207 0.46853 0.63079 0.0
C2640 C 0.54334 0.44391 0.62916 0.0
C2641 C 0.5633 0.50707 0.6254 0.0
C2642 C 0.53145 0.49947 0.6289 0.0
C2643 C 0.58544 0.48202 0.62403 0.0
C2644 C 0.57532 0.4503 0.62578 0.0
H2645 H 0.49653 0.60281 0.6231 0.0
H2646 H 0.55485 0.58786 0.62116 0.0
H2647 H 0.59619 0.54567 0.62047 0.0
O2648 O 0.50475 0.44408 0.65375 0.0
O2649 O 0.4762 0.47545 0.61719 0.0
O2650 O 0.44207 0.4403 0.60634 0.0
O2651 O 0.47698 0.48597 0.65853 0.0
O2652 O 0.47986 0.40696 0.63515 0.0
O2653 O 0.43577 0.38774 0.62269 0.0
O2654 O 0.40902 0.48 0.61838 0.0
O2655 O 0.39003 0.41038 0.6415 0.0
O2656 O 0.43435 0.43056 0.63966 0.0
O2657 O 0.3689 0.45627 0.60795 0.0
O2658 O 0.38188 0.46609 0.63907 0.0
O2659 O 0.42725 0.48866 0.64916 0.0
C2660 C 0.46575 0.46238 0.60563 0.0
C2661 C 0.53207 0.48712 0.66411 0.0
C2662 C 0.59066 0.4884 0.66401 0.0
C2663 C 0.58947 0.52101 0.66779 0.0
C2664 C 0.53143 0.51956 0.66797 0.0
C2665 C 0.56004 0.53645 0.66963 0.0
C2666 C 0.56168 0.4721 0.66188 0.0
C2667 C 0.46475 0.38186 0.62867 0.0
C2668 C 0.50221 0.46913 0.6616 0.0
C2669 C 0.5482 0.5633 0.62346 0.0
C2670 C 0.57174 0.53925 0.62304 0.0
C2671 C 0.41529 0.41693 0.64837 0.0
C2672 C 0.39255 0.50047 0.59679 0.0
C2673 C 0.38687 0.54998 0.58355 0.0
C2674 C 0.39831 0.53343 0.57192 0.0
C2675 C 0.40223 0.48424 0.58494 0.0
C2676 C 0.38577 0.53341 0.59615 0.0
C2677 C 0.40611 0.50092 0.57267 0.0
C2678 C 0.39466 0.48741 0.64827 0.0
C2679 C 0.38556 0.48282 0.60945 0.0
H2680 H 0.61111 0.53443 0.66988 0.0
H2681 H 0.5089 0.53194 0.6696 0.0
H2682 H 0.55942 0.56144 0.67263 0.0
H2683 H 0.56205 0.44742 0.65847 0.0
H2684 H 0.39917 0.54474 0.56194 0.0
H2685 H 0.40622 0.45857 0.58511 0.0
H2686 H 0.37766 0.54549 0.60535 0.0
H2687 H 0.41367 0.48826 0.56355 0.0
H2688 H 0.25088 0.40428 0.40771 0.0
H2689 H 0.11903 0.45189 0.45967 0.0
H2690 H 0.1757 0.34494 0.42482 0.0
H2691 H 0.20611 0.50456 0.45213 0.0
H2692 H 0.12392 0.42726 0.43718 0.0
H2693 H 0.22026 0.45182 0.41442 0.0
C2694 C 0.22782 0.40107 0.41262 0.0
C2695 C 0.21678 0.37034 0.41626 0.0
C2696 C 0.14122 0.44532 0.44016 0.0
C2697 C 0.18127 0.42456 0.42349 0.0
C2698 C 0.13813 0.45974 0.45295 0.0
C2699 C 0.16218 0.48023 0.45767 0.0
C2700 C 0.16937 0.45034 0.43249 0.0
C2701 C 0.18721 0.48859 0.4488 0.0
C2702 C 0.21012 0.42825 0.41623 0.0
C2703 C 0.18584 0.36782 0.42191 0.0
N2704 N 0.19067 0.47294 0.43673 0.0
N2705 N 0.16956 0.39453 0.42558 0.0
H2706 H 1.01663 0.95571 0.69877 0.0
H2707 H 0.84225 0.8819 0.69305 0.0
H2708 H 0.94145 0.99589 0.67371 0.0
H2709 H 0.91891 0.836 0.71515 0.0
H2710 H 0.88085 0.91854 0.68267 0.0
H2711 H 0.98352 0.9082 0.70269 0.0
C2712 C 0.99322 0.95443 0.69402 0.0
C2713 C 0.98164 0.97992 0.68599 0.0
C2714 C 0.88952 0.89994 0.68948 0.0
C2715 C 0.94371 0.92557 0.69038 0.0
C2716 C 0.86754 0.87874 0.69523 0.0
C2717 C 0.87763 0.85603 0.70487 0.0
C2718 C 0.92166 0.8988 0.6937 0.0
C2719 C 0.91039 0.85315 0.70766 0.0
C2720 C 0.97438 0.92727 0.69623 0.0
C2721 C 0.95106 0.9771 0.68018 0.0
N2722 N 0.93128 0.87489 0.70233 0.0
N2723 N 0.93311 0.95049 0.68255 0.0
H2724 H 0.36531 0.82249 0.96572 0.0
H2725 H 0.48962 0.69508 0.94728 0.0
H2726 H 0.39024 0.7905 0.92492 0.0
H2727 H 0.45471 0.72019 0.9873 0.0
H2728 H 0.4742 0.74864 0.93911 0.0
H2729 H 0.41923 0.80837 0.97313 0.0
C2730 C 0.38206 0.81325 0.95822 0.0
C2731 C 0.37193 0.80506 0.94499 0.0
C2732 C 0.47099 0.74276 0.94983 0.0
C2733 C 0.43336 0.78885 0.95337 0.0
C2734 C 0.47977 0.71222 0.95444 0.0
C2735 C 0.47316 0.70317 0.96792 0.0
C2736 C 0.45486 0.7638 0.9588 0.0
C2737 C 0.45975 0.72584 0.9768 0.0
C2738 C 0.41306 0.80551 0.96242 0.0
C2739 C 0.39569 0.79566 0.93549 0.0
N2740 N 0.45069 0.7549 0.97206 0.0
N2741 N 0.42499 0.78673 0.93999 0.0
H2742 H 0.71023 0.13866 0.19934 0.0
H2743 H 0.64902 0.27646 0.15613 0.0
H2744 H 0.66831 0.22965 0.21023 0.0
H2745 H 0.66495 0.18218 0.13978 0.0
H2746 H 0.69409 0.26899 0.17122 0.0
H2747 H 0.72037 0.15962 0.17609 0.0
C2748 C 0.70352 0.1631 0.19687 0.0
C2749 C 0.68916 0.18288 0.20674 0.0
C2750 C 0.68803 0.24983 0.16418 0.0
C2751 C 0.70122 0.20698 0.18058 0.0
C2752 C 0.66191 0.25401 0.15548 0.0
C2753 C 0.64898 0.22692 0.1489 0.0
C2754 C 0.69939 0.21843 0.16628 0.0
C2755 C 0.67058 0.20139 0.14682 0.0
C2756 C 0.70985 0.17519 0.18375 0.0
C2757 C 0.68024 0.21396 0.20306 0.0
N2758 N 0.69351 0.19616 0.15642 0.0
N2759 N 0.68642 0.22502 0.19032 0.0
H2760 H 0.24498 0.68001 0.20591 0.0
H2761 H 0.09629 0.66258 0.15599 0.0
H2762 H 0.202 0.75523 0.18153 0.0
H2763 H 0.15265 0.5825 0.16999 0.0
H2764 H 0.12269 0.69656 0.17272 0.0
H2765 H 0.2011 0.6441 0.19915 0.0
C2766 C 0.22634 0.68904 0.19922 0.0
C2767 C 0.22737 0.72064 0.1942 0.0
C2768 C 0.12837 0.67118 0.17256 0.0
C2769 C 0.17687 0.68021 0.18687 0.0
C2770 C 0.11265 0.65157 0.16321 0.0
C2771 C 0.12262 0.61983 0.16148 0.0
C2772 C 0.15328 0.65849 0.18055 0.0
C2773 C 0.14435 0.60695 0.17097 0.0
C2774 C 0.20114 0.6687 0.19554 0.0
C2775 C 0.20217 0.73127 0.18583 0.0
N2776 N 0.15965 0.62652 0.17992 0.0
N2777 N 0.17815 0.71108 0.18239 0.0
H2778 H 0.6993 0.87502 0.41871 0.0
H2779 H 0.659 1.00952 0.46681 0.0
H2780 H 0.74986 0.96467 0.4222 0.0
H2781 H 0.60642 0.92152 0.45974 0.0
H2782 H 0.70815 0.98113 0.46097 0.0
H2783 H 0.68483 0.87846 0.44278 0.0
C2784 C 0.70911 0.89436 0.42476 0.0
C2785 C 0.72631 0.91919 0.41858 0.0
C2786 C 0.68579 0.96793 0.46116 0.0
C2787 C 0.70694 0.92528 0.44569 0.0
C2788 C 0.65749 0.98433 0.46423 0.0
C2789 C 0.62769 0.9691 0.46247 0.0
C2790 C 0.68402 0.9363 0.45623 0.0
C2791 C 0.62802 0.93557 0.46049 0.0
C2792 C 0.70039 0.89673 0.4385 0.0
C2793 C 0.73657 0.94496 0.42666 0.0
N2794 N 0.65561 0.92059 0.45705 0.0
N2795 N 0.72611 0.94773 0.43974 0.0
H2796 H 0.46378 0.41715 0.66759 0.0
H2797 H 0.33629 0.48546 0.71823 0.0
H2798 H 0.36223 0.4309 0.66302 0.0
H2799 H 0.41808 0.43309 0.73297 0.0
H2800 H 0.36487 0.49664 0.69713 0.0
H2801 H 0.461 0.44366 0.69025 0.0
C2802 C 0.44127 0.42671 0.67119 0.0
C2803 C 0.41377 0.4242 0.66309 0.0
C2804 C 0.37721 0.48374 0.70521 0.0
C2805 C 0.41011 0.45376 0.68859 0.0
C2806 C 0.36104 0.4778 0.71743 0.0
C2807 C 0.37362 0.45494 0.72649 0.0
C2808 C 0.40552 0.46654 0.70248 0.0
C2809 C 0.40658 0.44828 0.72542 0.0
C2810 C 0.43963 0.44162 0.68403 0.0
C2811 C 0.38431 0.43337 0.66873 0.0
N2812 N 0.42094 0.45174 0.71301 0.0
N2813 N 0.38337 0.44829 0.68099 0.0
H2814 H 0.98583 0.17974 0.95729 0.0
H2815 H 0.92072 0.27683 0.91767 0.0
H2816 H 0.89356 0.14781 0.97218 0.0
H2817 H 0.88076 0.18147 0.91778 0.0
H2818 H 0.92396 0.27426 0.94297 0.0
H2819 H 0.96363 0.23188 0.95324 0.0
C2820 C 0.96102 0.18338 0.96007 0.0
C2821 C 0.94064 0.15769 0.96364 0.0
C2822 C 0.91263 0.25493 0.93739 0.0
C2823 C 0.91489 0.2173 0.95767 0.0
C2824 C 0.91104 0.25622 0.92303 0.0
C2825 C 0.9002 0.22938 0.91573 0.0
C2826 C 0.90249 0.22691 0.9442 0.0
C2827 C 0.88859 0.20293 0.923 0.0
C2828 C 0.9483 0.2139 0.95788 0.0
C2829 C 0.90936 0.16568 0.9678 0.0
N2830 N 0.88995 0.20244 0.93677 0.0
N2831 N 0.89699 0.19476 0.96432 0.0
H2832 H 0.89589 0.72244 0.70617 0.0
H2833 H 1.03166 0.70739 0.65867 0.0
H2834 H 0.93773 0.79299 0.67905 0.0
H2835 H 0.96776 0.63554 0.67479 0.0
H2836 H 1.02732 0.73685 0.67993 0.0
H2837 H 0.948 0.69828 0.70914 0.0
C2838 C 0.91607 0.73366 0.70111 0.0
C2839 C 0.91188 0.75866 0.69155 0.0
C2840 C 1.01575 0.71364 0.67917 0.0
C2841 C 0.97143 0.72952 0.69447 0.0
C2842 C 1.01813 0.6967 0.66692 0.0
C2843 C 0.99847 0.66994 0.66471 0.0
C2844 C 0.99236 0.70432 0.68872 0.0
C2845 C 0.98213 0.65696 0.6759 0.0
C2846 C 0.94609 0.71979 0.70294 0.0
C2847 C 0.93939 0.77223 0.68569 0.0
N2848 N 0.97876 0.67473 0.68742 0.0
N2849 N 0.96795 0.75686 0.6869 0.0
H2850 H 0.21643 0.06877 0.46914 0.0
H2851 H 0.19047 0.10596 0.412 0.0
H2852 H 0.16492 0.15429 0.4803 0.0
H2853 H 0.18489 0.20732 0.4199 0.0
H2854 H 0.21036 0.09726 0.43468 0.0
H2855 H 0.24705 0.09991 0.45276 0.0
C2856 C 0.21193 0.09431 0.46855 0.0
C2857 C 0.1845 0.10811 0.47447 0.0
C2858 C 0.20629 0.12179 0.43146 0.0
C2859 C 0.2168 0.14207 0.45494 0.0
C2860 C 0.19387 0.12668 0.41852 0.0
C2861 C 0.18772 0.15779 0.41379 0.0
C2862 C 0.21136 0.14809 0.4402 0.0
C2863 C 0.19172 0.18341 0.42288 0.0
C2864 C 0.22929 0.11212 0.45898 0.0
C2865 C 0.18296 0.14185 0.47434 0.0
N2866 N 0.20291 0.17801 0.4358 0.0
N2867 N 0.19694 0.1577 0.46375 0.0
H2868 H 0.68725 0.49669 0.17354 0.0
H2869 H 0.76301 0.32138 0.16731 0.0
H2870 H 0.65034 0.42004 0.14854 0.0
H2871 H 0.78438 0.38378 0.20125 0.0
H2872 H 0.73059 0.36376 0.15708 0.0
H2873 H 0.72959 0.46032 0.18177 0.0
C2874 C 0.6882 0.47228 0.16975 0.0
C2875 C 0.66605 0.46151 0.16004 0.0
C2876 C 0.74288 0.36852 0.16662 0.0
C2877 C 0.7138 0.42031 0.16922 0.0
C2878 C 0.76165 0.34453 0.17234 0.0
C2879 C 0.77604 0.34935 0.18509 0.0
C2880 C 0.73838 0.39735 0.17379 0.0
C2881 C 0.77358 0.37948 0.19134 0.0
C2882 C 0.71223 0.45167 0.17441 0.0
C2883 C 0.66759 0.42972 0.15559 0.0
N2884 N 0.75451 0.4024 0.18571 0.0
N2885 N 0.69123 0.41026 0.16016 0.0
H2886 H 0.41617 0.84092 0.90703 0.0
H2887 H 0.4329 0.99811 0.9532 0.0
H2888 H 0.33665 0.89987 0.91975 0.0
H2889 H 0.51012 0.95627 0.92972 0.0
H2890 H 0.39839 0.95349 0.94638 0.0
H2891 H 0.45187 0.87321 0.92151 0.0
C2892 C 0.40614 0.85989 0.91329 0.0
C2893 C 0.37373 0.86808 0.91226 0.0
C2894 C 0.42303 0.95397 0.94287 0.0
C2895 C 0.41396 0.90522 0.92841 0.0
C2896 C 0.4426 0.97959 0.94662 0.0
C2897 C 0.47432 0.98119 0.94188 0.0
C2898 C 0.43527 0.92977 0.93434 0.0
C2899 C 0.48588 0.956 0.93368 0.0
C2900 C 0.42645 0.8785 0.9214 0.0
C2901 C 0.36168 0.89308 0.92033 0.0
N2902 N 0.46629 0.93145 0.93009 0.0
N2903 N 0.3819 0.9111 0.92795 0.0
H2904 H 0.81568 0.46552 0.90768 0.0
H2905 H 0.96397 0.434 0.95055 0.0
H2906 H 0.89567 0.41322 0.89102 0.0
H2907 H 0.8622 0.43438 0.95795 0.0
H2908 H 0.95395 0.45633 0.92738 0.0
H2909 H 0.85259 0.49643 0.92145 0.0
C2910 C 0.84111 0.46129 0.90636 0.0
C2911 C 0.85243 0.43379 0.89963 0.0
C2912 C 0.93414 0.45252 0.93438 0.0
C2913 C 0.89355 0.46683 0.91618 0.0
C2914 C 0.93983 0.43972 0.94747 0.0
C2915 C 0.9141 0.43367 0.95635 0.0
C2916 C 0.90253 0.45954 0.93043 0.0
C2917 C 0.88293 0.43905 0.95158 0.0
C2918 C 0.86238 0.47906 0.91432 0.0
C2919 C 0.88575 0.43181 0.89749 0.0
N2920 N 0.87814 0.45199 0.93909 0.0
N2921 N 0.90553 0.4466 0.90653 0.0
H2922 H 0.5641 0.1689 0.69205 0.0
H2923 H 0.39684 0.23787 0.69311 0.0
H2924 H 0.48163 0.13511 0.66963 0.0
H2925 H 0.47636 0.26221 0.71911 0.0
H2926 H 0.43494 0.22354 0.67495 0.0
H2927 H 0.54173 0.22312 0.69136 0.0
C2928 C 0.54153 0.17297 0.68685 0.0
C2929 C 0.52369 0.14726 0.6817 0.0
C2930 C 0.44402 0.23326 0.68446 0.0
C2931 C 0.49787 0.20862 0.68102 0.0
C2932 C 0.42228 0.24116 0.69482 0.0
C2933 C 0.43387 0.24936 0.70777 0.0
C2934 C 0.47711 0.23301 0.68742 0.0
C2935 C 0.46673 0.2544 0.70945 0.0
C2936 C 0.52901 0.20395 0.68622 0.0
C2937 C 0.49566 0.15403 0.67426 0.0
N2938 N 0.48733 0.24555 0.69948 0.0
N2939 N 0.48313 0.18395 0.67448 0.0
H2940 H 0.73473 0.68293 0.41421 0.0
H2941 H 0.58656 0.65649 0.46345 0.0
H2942 H 0.6885 0.7561 0.43852 0.0
H2943 H 0.64529 0.5804 0.4474 0.0
H2944 H 0.60944 0.69314 0.44658 0.0
H2945 H 0.69055 0.64637 0.41953 0.0
C2946 C 0.71524 0.69144 0.42058 0.0
C2947 C 0.71586 0.72249 0.4262 0.0
C2948 C 0.61641 0.6681 0.44635 0.0
C2949 C 0.66478 0.68091 0.43204 0.0
C2950 C 0.60278 0.64693 0.45581 0.0
C2951 C 0.61451 0.61553 0.45698 0.0
C2952 C 0.64188 0.65754 0.43806 0.0
C2953 C 0.63578 0.60456 0.44689 0.0
C2954 C 0.68983 0.67065 0.42347 0.0
C2955 C 0.68928 0.73245 0.43398 0.0
N2956 N 0.64967 0.62579 0.43813 0.0
N2957 N 0.66512 0.7116 0.43682 0.0
H2958 H 0.24449 0.95977 0.20334 0.0
H2959 H 0.17236 0.99031 0.14877 0.0
H2960 H 0.19623 0.86878 0.20624 0.0
H2961 H 0.10969 0.91595 0.1643 0.0
H2962 H 0.21804 0.95979 0.15731 0.0
H2963 H 0.23537 0.9605 0.17901 0.0
C2964 C 0.23338 0.93904 0.19867 0.0
C2965 C 0.22185 0.91373 0.20671 0.0
C2966 C 0.19419 0.95007 0.15867 0.0
C2967 C 0.2092 0.91513 0.17874 0.0
C2968 C 0.16799 0.96762 0.15385 0.0
C2969 C 0.13666 0.95758 0.15702 0.0
C2970 C 0.1886 0.92293 0.16691 0.0
C2971 C 0.13291 0.92632 0.16229 0.0
C2972 C 0.22816 0.93932 0.18463 0.0
C2973 C 0.20649 0.88812 0.20029 0.0
N2974 N 0.15853 0.91059 0.16744 0.0
N2975 N 0.19998 0.88979 0.18669 0.0
H2976 H 0.70097 1.00315 0.95201 0.0
H2977 H 0.66451 0.84672 0.91955 0.0
H2978 H 0.61739 0.94639 0.96115 0.0
H2979 H 0.73483 0.91244 0.90287 0.0
H2980 H 0.63401 0.89139 0.92772 0.0
H2981 H 0.70126 0.98191 0.92884 0.0
C2982 C 0.68174 0.98734 0.9489 0.0
C2983 C 0.65894 0.97665 0.95838 0.0
C2984 C 0.65579 0.89627 0.92204 0.0
C2985 C 0.66025 0.9506 0.93222 0.0
C2986 C 0.67348 0.87042 0.91719 0.0
C2987 C 0.70373 0.87533 0.91112 0.0
C2988 C 0.66912 0.92712 0.92151 0.0
C2989 C 0.71294 0.90715 0.90838 0.0
C2990 C 0.68192 0.97507 0.93566 0.0
C2991 C 0.63503 0.95558 0.95403 0.0
N2992 N 0.69638 0.93184 0.91407 0.0
N2993 N 0.63673 0.94262 0.94132 0.0
H2994 H 0.39892 0.31548 0.21122 0.0
H2995 H 0.45789 0.45859 0.16839 0.0
H2996 H 0.34472 0.39934 0.19986 0.0
H2997 H 0.51672 0.38757 0.18858 0.0
H2998 H 0.41327 0.42116 0.16867 0.0
H2999 H 0.43431 0.32451 0.19177 0.0
C3000 C 0.39318 0.33468 0.20418 0.0
C3001 C 0.36982 0.3576 0.20744 0.0
C3002 C 0.4362 0.41338 0.17269 0.0
C3003 C 0.41053 0.36851 0.18549 0.0
C3004 C 0.46182 0.4348 0.17254 0.0
C3005 C 0.49081 0.4267 0.179 0.0
C3006 C 0.43932 0.38404 0.17964 0.0
C3007 C 0.49432 0.39537 0.18408 0.0
C3008 C 0.4137 0.34003 0.1931 0.0
C3009 C 0.36322 0.38171 0.19787 0.0
N3010 N 0.4686 0.37546 0.18463 0.0
N3011 N 0.3842 0.38726 0.18752 0.0
H3012 H 1.02968 0.19908 0.46634 0.0
H3013 H 0.90199 0.22587 0.41439 0.0
H3014 H 0.95754 0.13487 0.45081 0.0
H3015 H 0.94547 0.29369 0.44214 0.0
H3016 H 0.95147 0.19577 0.41391 0.0
H3017 H 1.02929 0.22781 0.44473 0.0
C3018 C 1.01503 0.18977 0.45816 0.0
C3019 C 0.99245 0.1655 0.46054 0.0
C3020 C 0.95069 0.21799 0.41966 0.0
C3021 C 0.9913 0.19889 0.43604 0.0
C3022 C 0.92217 0.2353 0.42005 0.0
C3023 C 0.91875 0.26126 0.42915 0.0
C3024 C 0.97496 0.22561 0.429 0.0
C3025 C 0.94628 0.2724 0.43581 0.0
C3026 C 1.01495 0.20625 0.44573 0.0
C3027 C 0.97447 0.1543 0.4495 0.0
N3028 N 0.97306 0.2539 0.43597 0.0
N3029 N 0.9737 0.1716 0.43774 0.0
H3030 H 0.22442 0.57608 0.64792 0.0
H3031 H 0.18446 0.60389 0.70399 0.0
H3032 H 0.17015 0.65902 0.63633 0.0
H3033 H 0.17545 0.70583 0.69845 0.0
H3034 H 0.20828 0.59949 0.68168 0.0
H3035 H 0.25042 0.60742 0.66559 0.0
C3036 C 0.21838 0.60128 0.6487 0.0
C3037 C 0.19035 0.6136 0.64271 0.0
C3038 C 0.20263 0.62328 0.68542 0.0
C3039 C 0.21796 0.64783 0.6631 0.0
C3040 C 0.18797 0.62565 0.69808 0.0
C3041 C 0.18019 0.65575 0.70346 0.0
C3042 C 0.20845 0.65114 0.67763 0.0
C3043 C 0.18403 0.68278 0.6951 0.0
C3044 C 0.2331 0.61917 0.65901 0.0
C3045 C 0.18799 0.6473 0.64264 0.0
N3046 N 0.19772 0.6799 0.68247 0.0
N3047 N 0.19908 0.66321 0.65381 0.0
H3048 H 0.6404 0.08723 0.67435 0.0
H3049 H 0.7 0.26804 0.67666 0.0
H3050 H 0.58949 0.16432 0.65456 0.0
H3051 H 0.74253 0.19105 0.70005 0.0
H3052 H 0.6558 0.23228 0.67045 0.0
H3053 H 0.6732 0.12642 0.68643 0.0
C3054 C 0.63545 0.11258 0.67295 0.0
C3055 C 0.61224 0.12271 0.66356 0.0
C3056 C 0.67464 0.22333 0.67705 0.0
C3057 C 0.65063 0.16779 0.67679 0.0
C3058 C 0.69989 0.24373 0.68062 0.0
C3059 C 0.72528 0.23242 0.68876 0.0
C3060 C 0.67477 0.19136 0.68166 0.0
C3061 C 0.72391 0.20063 0.6935 0.0
C3062 C 0.6544 0.13498 0.67972 0.0
C3063 C 0.60702 0.15569 0.66185 0.0
N3064 N 0.69927 0.18122 0.6898 0.0
N3065 N 0.62658 0.17717 0.6682 0.0
H3066 H 0.18937 0.3779 0.91812 0.0
H3067 H 0.10539 0.439 0.96914 0.0
H3068 H 0.25503 0.45662 0.92321 0.0
H3069 H 0.15315 0.52378 0.95374 0.0
H3070 H 0.15162 0.40691 0.96231 0.0
H3071 H 0.16761 0.38898 0.94079 0.0
C3072 C 0.2008 0.39598 0.9244 0.0
C3073 C 0.22433 0.41609 0.91886 0.0
C3074 C 0.15213 0.43263 0.96072 0.0
C3075 C 0.19922 0.42964 0.94459 0.0
C3076 C 0.12566 0.45107 0.96452 0.0
C3077 C 0.12435 0.48399 0.96117 0.0
C3078 C 0.17742 0.44744 0.9537 0.0
C3079 C 0.15229 0.49845 0.95614 0.0
C3080 C 0.18833 0.40244 0.9374 0.0
C3081 C 0.23753 0.44001 0.92717 0.0
N3082 N 0.17738 0.47994 0.95229 0.0
N3083 N 0.22442 0.44648 0.93951 0.0
H3084 H 0.94975 0.86408 0.15084 0.0
H3085 H 0.93879 0.86053 0.21152 0.0
H3086 H 0.95769 0.95454 0.17173 0.0
H3087 H 0.99141 0.78771 0.18956 0.0
H3088 H 0.98095 0.89818 0.20642 0.0
H3089 H 0.98671 0.84042 0.16684 0.0
C3090 C 0.95961 0.87899 0.15886 0.0
C3091 C 0.9515 0.91132 0.15983 0.0
C3092 C 0.98385 0.87363 0.20297 0.0
C3093 C 0.99207 0.88381 0.17925 0.0
C3094 C 0.95931 0.85189 0.20583 0.0
C3095 C 0.95908 0.82211 0.19898 0.0
C3096 C 1.00336 0.86646 0.19168 0.0
C3097 C 0.98821 0.81207 0.19315 0.0
C3098 C 0.98109 0.86562 0.16803 0.0
C3099 C 0.96386 0.92944 0.17066 0.0
N3100 N 1.0103 0.83476 0.18973 0.0
N3101 N 0.98306 0.91526 0.18018 0.0
H3102 H 0.39714 0.64741 0.4623 0.0
H3103 H 0.46125 0.75276 0.41148 0.0
H3104 H 0.49723 0.67134 0.45674 0.0
H3105 H 0.36107 0.7483 0.42195 0.0
H3106 H 0.47446 0.74859 0.43565 0.0
H3107 H 0.3835 0.70286 0.45711 0.0
C3108 C 0.41637 0.66416 0.46021 0.0
C3109 C 0.44816 0.65355 0.45872 0.0
C3110 C 0.4494 0.74942 0.43278 0.0
C3111 C 0.43271 0.71718 0.45292 0.0
C3112 C 0.44196 0.75188 0.41893 0.0
C3113 C 0.41016 0.74887 0.41468 0.0
C3114 C 0.42498 0.74098 0.4421 0.0
C3115 C 0.38603 0.74887 0.42467 0.0
C3116 C 0.40857 0.69614 0.45749 0.0
C3117 C 0.47207 0.67723 0.45727 0.0
N3118 N 0.39392 0.74349 0.43795 0.0
N3119 N 0.46377 0.7077 0.45404 0.0
H3120 H 0.28365 0.23827 0.15946 0.0
H3121 H 0.43656 0.12845 0.17343 0.0
H3122 H 0.2864 0.16499 0.19052 0.0
H3123 H 0.43424 0.20565 0.14404 0.0
H3124 H 0.3811 0.1404 0.1797 0.0
H3125 H 0.337 0.22279 0.15213 0.0
C3126 C 0.29449 0.21713 0.16401 0.0
C3127 C 0.28146 0.20363 0.17592 0.0
C3128 C 0.39272 0.15486 0.17193 0.0
C3129 C 0.34188 0.18498 0.16737 0.0
C3130 C 0.42436 0.1482 0.16842 0.0
C3131 C 0.43902 0.16512 0.15772 0.0
C3132 C 0.37623 0.17911 0.16487 0.0
C3133 C 0.42303 0.19119 0.1519 0.0
C3134 C 0.32541 0.20887 0.16008 0.0
C3135 C 0.2962 0.17635 0.18145 0.0
N3136 N 0.39221 0.19731 0.15548 0.0
N3137 N 0.32628 0.16838 0.17738 0.0
H3138 H 0.54094 0.74905 0.93244 0.0
H3139 H 0.70444 0.69419 0.92082 0.0
H3140 H 0.59898 0.70341 0.96334 0.0
H3141 H 0.61196 0.68916 0.90147 0.0
H3142 H 0.68272 0.73393 0.93717 0.0
H3143 H 0.58721 0.78161 0.92615 0.0
C3144 C 0.56302 0.74612 0.93813 0.0
C3145 C 0.56798 0.71918 0.94658 0.0
C3146 C 0.66772 0.72494 0.92898 0.0
C3147 C 0.6197 0.75339 0.93858 0.0
C3148 C 0.67974 0.70186 0.91992 0.0
C3149 C 0.66007 0.68943 0.9096 0.0
C3150 C 0.63602 0.73564 0.92748 0.0
C3151 C 0.62812 0.69904 0.90902 0.0
C3152 C 0.58943 0.76523 0.93473 0.0
C3153 C 0.5955 0.71999 0.95497 0.0
N3154 N 0.61724 0.72181 0.9177 0.0
N3155 N 0.62117 0.73737 0.9507 0.0
H3156 H 0.25895 0.89643 0.71294 0.0
H3157 H 0.12497 0.95647 0.66589 0.0
H3158 H 0.17511 0.84519 0.69881 0.0
H3159 H 0.2128 1.00743 0.67372 0.0
H3160 H 0.1299 0.92986 0.68787 0.0
H3161 H 0.23107 0.94689 0.70828 0.0
C3162 C 0.23463 0.89558 0.70911 0.0
C3163 C 0.22021 0.86623 0.70562 0.0
C3164 C 0.1475 0.94787 0.68511 0.0
C3165 C 0.1879 0.92382 0.70073 0.0
C3166 C 0.14422 0.96364 0.67262 0.0
C3167 C 0.1683 0.98437 0.6681 0.0
C3168 C 0.1762 0.95121 0.69253 0.0
C3169 C 0.19388 0.99125 0.67689 0.0
C3170 C 0.21854 0.92445 0.70668 0.0
C3171 C 0.18791 0.8668 0.7015 0.0
N3172 N 0.19773 0.97394 0.68855 0.0
N3173 N 0.17319 0.89507 0.69893 0.0
H3174 H 1.01778 0.46952 0.42134 0.0
H3175 H 0.8484 0.38439 0.42604 0.0
H3176 H 0.94202 0.50118 0.44826 0.0
H3177 H 0.92799 0.34574 0.40329 0.0
H3178 H 0.88437 0.42297 0.4368 0.0
H3179 H 0.9865 0.42177 0.41586 0.0
C3180 C 0.99447 0.46639 0.42607 0.0
C3181 C 0.98234 0.48932 0.43522 0.0
C3182 C 0.89428 0.40547 0.42978 0.0
C3183 C 0.94664 0.43462 0.42915 0.0
C3184 C 0.87386 0.38313 0.42384 0.0
C3185 C 0.88553 0.36192 0.41393 0.0
C3186 C 0.92637 0.40689 0.42548 0.0
C3187 C 0.91836 0.36156 0.41105 0.0
C3188 C 0.97675 0.43904 0.42302 0.0
C3189 C 0.95199 0.48429 0.44099 0.0
N3190 N 0.93764 0.38433 0.41659 0.0
N3191 N 0.93514 0.45745 0.43785 0.0
H3192 H 0.46677 0.92479 0.45041 0.0
H3193 H 0.32557 0.97496 0.40589 0.0
H3194 H 0.36465 0.93048 0.45609 0.0
H3195 H 0.40144 0.91779 0.38878 0.0
H3196 H 0.36377 0.99905 0.42137 0.0
H3197 H 0.46047 0.95006 0.42756 0.0
C3198 C 0.44338 0.93241 0.44706 0.0
C3199 C 0.41655 0.92744 0.45544 0.0
C3200 C 0.37256 0.98218 0.4138 0.0
C3201 C 0.40909 0.95611 0.42981 0.0
C3202 C 0.35057 0.96841 0.40482 0.0
C3203 C 0.35971 0.94093 0.3975 0.0
C3204 C 0.40212 0.96649 0.41571 0.0
C3205 C 0.39286 0.93623 0.39567 0.0
C3206 C 0.43978 0.94671 0.43412 0.0
C3207 C 0.38621 0.93456 0.45016 0.0
N3208 N 0.41303 0.94698 0.40556 0.0
N3209 N 0.38342 0.94893 0.43783 0.0
H3210 H 0.92158 0.67331 0.21363 0.0
H3211 H 0.07483 0.67415 0.18591 0.0
H3212 H 0.95594 0.77046 0.21729 0.0
H3213 H 0.06594 0.62341 0.22421 0.0
H3214 H 1.03821 0.71475 0.19419 0.0
H3215 H 0.97689 0.65462 0.21233 0.0
C3216 C 0.94078 0.69068 0.21421 0.0
C3217 C 0.93439 0.72319 0.21639 0.0
C3218 C 1.0458 0.6958 0.20108 0.0
C3219 C 0.99714 0.70222 0.2146 0.0
C3220 C 0.06709 0.67267 0.19641 0.0
C3221 C 0.07342 0.64525 0.20434 0.0
C3222 C 1.02978 0.69037 0.21341 0.0
C3223 C 0.06137 0.644 0.21772 0.0
C3224 C 0.97214 0.68002 0.21359 0.0
C3225 C 0.96003 0.74505 0.21605 0.0
N3226 N 1.0388 0.66555 0.22164 0.0
N3227 N 0.99069 0.73416 0.21521 0.0
H3228 H 0.18088 0.26139 0.93602 0.0
H3229 H 0.13775 0.08412 0.94553 0.0
H3230 H 0.22947 0.18377 0.9153 0.0
H3231 H 0.08278 0.16247 0.96201 0.0
H3232 H 0.15789 0.11938 0.92764 0.0
H3233 H 0.13454 0.2271 0.93919 0.0
C3234 C 0.18169 0.23733 0.93187 0.0
C3235 C 0.20967 0.22525 0.92572 0.0
C3236 C 0.14035 0.1287 0.93479 0.0
C3237 C 0.15657 0.1853 0.92972 0.0
C3238 C 0.12832 0.10829 0.9449 0.0
C3239 C 0.10931 0.1207 0.95547 0.0
C3240 C 0.13369 0.16171 0.93557 0.0
C3241 C 0.09796 0.15217 0.95418 0.0
C3242 C 0.15506 0.21764 0.93372 0.0
C3243 C 0.20899 0.19375 0.92061 0.0
N3244 N 0.11131 0.17205 0.94474 0.0
N3245 N 0.18317 0.17466 0.923 0.0
H3246 H 0.65209 0.51009 0.6581 0.0
H3247 H 0.7039 0.37937 0.7088 0.0
H3248 H 0.6004 0.42427 0.66983 0.0
H3249 H 0.75374 0.46862 0.70241 0.0
H3250 H 0.68209 0.38306 0.68584 0.0
H3251 H 0.70175 0.48408 0.66535 0.0
C3252 C 0.65104 0.48571 0.66192 0.0
C3253 C 0.62148 0.47027 0.66405 0.0
C3254 C 0.69884 0.40129 0.68918 0.0
C3255 C 0.67828 0.44014 0.67194 0.0
C3256 C 0.71184 0.39874 0.70225 0.0
C3257 C 0.73098 0.4234 0.70736 0.0
C3258 C 0.70333 0.42978 0.68166 0.0
C3259 C 0.73879 0.44919 0.69877 0.0
C3260 C 0.67953 0.4707 0.66586 0.0
C3261 C 0.62207 0.43791 0.6682 0.0
N3262 N 0.72423 0.4522 0.68643 0.0
N3263 N 0.64987 0.42428 0.67228 0.0
H3264 H 0.08409 0.18321 0.3748 0.0
H3265 H 0.9586 0.33936 0.37609 0.0
H3266 H 0.11812 0.27766 0.38434 0.0
H3267 H 0.92438 0.24384 0.38351 0.0
H3268 H 1.01436 0.31862 0.37633 0.0
H3269 H 1.02831 0.20395 0.37519 0.0
C3270 C 0.08065 0.20846 0.37694 0.0
C3271 C 0.10875 0.22762 0.37956 0.0
C3272 C 0.99501 0.30172 0.37789 0.0
C3273 C 1.03977 0.25359 0.37972 0.0
C3274 C 0.96198 0.31387 0.37772 0.0
C3275 C 0.9338 0.29441 0.37977 0.0
C3276 C 1.0028 0.26848 0.37979 0.0
C3277 C 0.94317 0.26125 0.38185 0.0
C3278 C 0.04761 0.22062 0.37719 0.0
C3279 C 0.09932 0.26051 0.38223 0.0
N3280 N 0.97528 0.25006 0.38164 0.0
N3281 N 0.06722 0.27175 0.38208 0.0
H3282 H 0.09264 0.72863 0.63461 0.0
H3283 H 0.0579 0.92673 0.63866 0.0
H3284 H 0.9983 0.76684 0.62842 0.0
H3285 H 0.15132 0.8912 0.62836 0.0
H3286 H 1.03697 0.87099 0.63767 0.0
H3287 H 0.11402 0.78437 0.63499 0.0
C3288 C 0.07576 0.74814 0.63332 0.0
C3289 C 1.04245 0.73996 0.63136 0.0
C3290 C 0.06218 0.87476 0.63559 0.0
C3291 C 0.06874 0.80931 0.6322 0.0
C3292 C 0.07468 0.9078 0.63617 0.0
C3293 C 0.10753 0.91681 0.63353 0.0
C3294 C 0.08183 0.84724 0.63268 0.0
C3295 C 0.12604 0.88813 0.63048 0.0
C3296 C 0.08851 0.78116 0.63355 0.0
C3297 C 1.02388 0.76928 0.6299 0.0
N3298 N 0.11349 0.85643 0.63031 0.0
N3299 N 1.03672 0.8008 0.63047 0.0
H3300 H 0.45125 0.84028 0.87402 0.0
H3301 H 0.57754 0.68398 0.87412 0.0
H3302 H 0.41769 0.74481 0.88199 0.0
H3303 H 0.61199 0.77936 0.88138 0.0
H3304 H 0.52181 0.70473 0.87449 0.0
H3305 H 0.50717 0.81987 0.87417 0.0
C3306 C 0.45478 0.81486 0.87576 0.0
C3307 C 0.42666 0.79534 0.87799 0.0
C3308 C 0.54116 0.72165 0.87596 0.0
C3309 C 0.4961 0.76971 0.87794 0.0
C3310 C 0.57425 0.70947 0.87571 0.0
C3311 C 0.60257 0.72882 0.87764 0.0
C3312 C 0.53329 0.75487 0.87787 0.0
C3313 C 0.59312 0.76199 0.87973 0.0
C3314 C 0.48797 0.80287 0.87588 0.0
C3315 C 0.43639 0.76228 0.88018 0.0
N3316 N 0.56094 0.77321 0.87963 0.0
N3317 N 0.46862 0.75126 0.87995 0.0
H3318 H 0.56991 0.22157 0.12296 0.0
H3319 H 0.54269 0.41713 0.14081 0.0
H3320 H 0.47824 0.25853 0.13504 0.0
H3321 H 0.63025 0.38229 0.1232 0.0
H3322 H 0.52036 0.36194 0.13961 0.0
H3323 H 0.59169 0.27706 0.12337 0.0
C3324 C 0.5537 0.24082 0.12569 0.0
C3325 C 0.521 0.23242 0.12891 0.0
C3326 C 0.54453 0.36578 0.13592 0.0
C3327 C 0.5481 0.30125 0.12982 0.0
C3328 C 0.55784 0.39846 0.13661 0.0
C3329 C 0.58954 0.40741 0.13207 0.0
C3330 C 0.56207 0.33873 0.1307 0.0
C3331 C 0.60599 0.37919 0.1269 0.0
C3332 C 0.56669 0.27367 0.12595 0.0
C3333 C 0.50326 0.26127 0.13235 0.0
N3334 N 0.59264 0.34788 0.12646 0.0
N3335 N 0.5166 0.29259 0.1328 0.0
H3336 H 0.9954 0.74319 0.24832 0.0
H3337 H 0.12221 0.89923 0.24669 0.0
H3338 H 0.96092 0.83845 0.24056 0.0
H3339 H 0.15532 0.80404 0.23788 0.0
H3340 H 0.06631 0.87877 0.24719 0.0
H3341 H 0.05119 0.76371 0.24728 0.0
C3342 C 0.99866 0.76862 0.24652 0.0
C3343 C 0.97022 0.78798 0.24467 0.0
C3344 C 0.0854 0.86183 0.24516 0.0
C3345 C 1.03977 0.81384 0.24362 0.0
C3346 C 0.11863 0.87386 0.24488 0.0
C3347 C 0.14671 0.85451 0.24218 0.0
C3348 C 0.07709 0.82871 0.2431 0.0
C3349 C 0.13676 0.82147 0.24001 0.0
C3350 C 1.03183 0.78068 0.24586 0.0
C3351 C 0.97977 0.82105 0.24222 0.0
N3352 N 0.10453 0.8104 0.24065 0.0
N3353 N 1.01201 0.83215 0.24196 0.0
H3354 H 0.43989 0.82075 0.49468 0.0
H3355 H 0.59897 0.69858 0.49476 0.0
H3356 H 0.53398 0.85734 0.48634 0.0
H3357 H 0.50454 0.66257 0.48683 0.0
H3358 H 0.5771 0.75408 0.49444 0.0
H3359 H 0.46203 0.76546 0.49452 0.0
C3360 C 0.46534 0.81799 0.49285 0.0
C3361 C 0.48391 0.84665 0.49049 0.0
C3362 C 0.56067 0.73438 0.49281 0.0
C3363 C 0.51163 0.77823 0.49062 0.0
C3364 C 0.5735 0.70151 0.49304 0.0
C3365 C 0.55467 0.67296 0.4909 0.0
C3366 C 0.52737 0.74155 0.49071 0.0
C3367 C 0.52146 0.68175 0.48865 0.0
C3368 C 0.47833 0.78523 0.49274 0.0
C3369 C 0.51719 0.83807 0.48822 0.0
N3370 N 0.50962 0.71365 0.48877 0.0
N3371 N 0.52922 0.80621 0.4885 0.0
H3372 H 0.63817 0.40781 0.74837 0.0
H3373 H 0.51 0.25407 0.74273 0.0
H3374 H 0.66887 0.31469 0.73504 0.0
H3375 H 0.47578 0.35115 0.74222 0.0
H3376 H 0.56579 0.27436 0.74219 0.0
H3377 H 0.58187 0.38834 0.74848 0.0
C3378 C 0.63392 0.38311 0.74549 0.0
C3379 C 0.66126 0.36386 0.7417 0.0
C3380 C 0.54648 0.29172 0.74221 0.0
C3381 C 0.59166 0.33946 0.74203 0.0
C3382 C 0.5134 0.27982 0.74254 0.0
C3383 C 0.48517 0.29983 0.74246 0.0
C3384 C 0.55443 0.32517 0.74214 0.0
C3385 C 0.49464 0.33331 0.74223 0.0
C3386 C 0.60056 0.37169 0.74554 0.0
C3387 C 0.65074 0.33179 0.73813 0.0
N3388 N 0.5269 0.34417 0.74221 0.0
N3389 N 0.61844 0.32127 0.73852 0.0
H3390 H 1.00315 0.16782 0.98688 0.0
H3391 H 1.03408 0.36628 0.98527 0.0
H3392 H 0.09733 0.20649 0.99282 0.0
H3393 H 0.9419 0.32737 0.9954 0.0
H3394 H 0.05652 0.31097 0.98537 0.0
H3395 H 0.98107 0.22316 0.98735 0.0
C3396 C 1.01984 0.18739 0.98832 0.0
C3397 C 0.05329 0.17952 0.98997 0.0
C3398 C 1.03127 0.31395 0.98758 0.0
C3399 C 1.02617 0.24828 0.99012 0.0
C3400 C 1.01791 0.34667 0.98752 0.0
C3401 C 0.98488 0.35443 0.9904 0.0
C3402 C 1.01235 0.28579 0.9902 0.0
C3403 C 0.96719 0.32513 0.99312 0.0
C3404 C 1.00668 0.22014 0.98858 0.0
C3405 C 0.07166 0.2088 0.99162 0.0
N3406 N 0.98055 0.29384 0.99281 0.0
N3407 N 0.05839 0.24016 0.99152 0.0
H3408 H 0.11049 0.77191 0.73337 0.0
H3409 H 0.91311 0.73737 0.73577 0.0
H3410 H 0.07344 0.67867 0.7432 0.0
H3411 H 0.95048 0.83226 0.74152 0.0
H3412 H 0.96867 0.71618 0.73583 0.0
H3413 H 0.05487 0.79337 0.73369 0.0
C3414 C 0.09122 0.75533 0.7356 0.0
C3415 C 0.09953 0.72235 0.73832 0.0
C3416 C 0.96528 0.74176 0.73708 0.0
C3417 C 1.03067 0.74855 0.7384 0.0
C3418 C 0.93239 0.7544 0.73702 0.0
C3419 C 0.92417 0.78777 0.73871 0.0
C3420 C 0.99309 0.76173 0.73849 0.0
C3421 C 0.95314 0.8066 0.74025 0.0
C3422 C 0.05836 0.76809 0.73579 0.0
C3423 C 0.0707 0.70399 0.74103 0.0
N3424 N 0.98461 0.79383 0.73997 0.0
N3425 N 1.03924 0.7168 0.74086 0.0
H3426 H 0.08839 0.22314 0.49092 0.0
H3427 H 0.05351 0.42127 0.48704 0.0
H3428 H 0.99388 0.2613 0.49673 0.0
H3429 H 0.14683 0.38546 0.49729 0.0
H3430 H 1.03258 0.36549 0.48787 0.0
H3431 H 0.10976 0.2789 0.49061 0.0
C3432 C 0.07148 0.24263 0.49213 0.0
C3433 C 1.03813 0.23448 0.49397 0.0
C3434 C 0.05777 0.36922 0.48996 0.0
C3435 C 0.06437 0.30377 0.49323 0.0
C3436 C 0.07026 0.40227 0.48948 0.0
C3437 C 0.10309 0.41116 0.49215 0.0
C3438 C 0.07742 0.34167 0.49283 0.0
C3439 C 0.12158 0.38244 0.49514 0.0
C3440 C 0.08421 0.27566 0.49195 0.0
C3441 C 1.0195 0.26376 0.49535 0.0
N3442 N 0.10904 0.35076 0.49524 0.0
N3443 N 1.03232 0.29527 0.49484 0.0
H3444 H 0.58589 0.18892 0.24426 0.0
H3445 H 0.46272 0.34739 0.24627 0.0
H3446 H 0.62232 0.284 0.2379 0.0
H3447 H 0.42743 0.25368 0.23629 0.0
H3448 H 0.51821 0.32585 0.24591 0.0
H3449 H 0.5306 0.21078 0.24402 0.0
C3450 C 0.58313 0.21455 0.24283 0.0
C3451 C 0.61186 0.23341 0.24105 0.0
C3452 C 0.49871 0.30948 0.2438 0.0
C3453 C 0.5431 0.26086 0.24108 0.0
C3454 C 0.46577 0.32213 0.24402 0.0
C3455 C 0.4373 0.30352 0.2413 0.0
C3456 C 0.50621 0.27644 0.24114 0.0
C3457 C 0.44642 0.27054 0.23851 0.0
C3458 C 0.55029 0.22739 0.24268 0.0
C3459 C 0.6031 0.2669 0.23931 0.0
N3460 N 0.47841 0.25882 0.23866 0.0
N3461 N 0.57113 0.27875 0.23951 0.0
H3462 H 0.55137 0.91969 0.99007 0.0
H3463 H 0.58379 0.72163 0.99092 0.0
H3464 H 0.64552 0.88197 0.99727 0.0
H3465 H 0.49155 0.76002 1.00137 0.0
H3466 H 0.60557 0.77703 0.99033 0.0
H3467 H 0.52963 0.86422 0.99125 0.0
C3468 C 0.56811 0.9003 0.99189 0.0
C3469 C 0.60145 0.90846 0.99362 0.0
C3470 C 0.58046 0.77391 0.99278 0.0
C3471 C 0.5748 0.83959 0.99469 0.0
C3472 C 0.56747 0.74111 0.99315 0.0
C3473 C 0.53467 0.73313 0.99637 0.0
C3474 C 0.56134 0.802 0.99526 0.0
C3475 C 0.51673 0.76238 0.99891 0.0
C3476 C 0.55517 0.8675 0.99259 0.0
C3477 C 0.61993 0.87943 0.99588 0.0
N3478 N 0.52972 0.79377 0.99818 0.0
N3479 N 0.6069 0.848 0.99617 0.0
H3480 H 0.14169 0.36979 0.86297 0.0
H3481 H 0.97801 0.30666 0.90274 0.0
H3482 H 0.15018 0.3353 0.9042 0.0
H3483 H 0.9948 0.27503 0.86158 0.0
H3484 H 1.03381 0.32755 0.90355 0.0
H3485 H 0.0864 0.34766 0.86208 0.0
C3486 C 0.13261 0.35785 0.87202 0.0
C3487 C 0.1536 0.35533 0.88369 0.0
C3488 C 1.02572 0.3163 0.8942 0.0
C3489 C 0.08474 0.32898 0.88284 0.0
C3490 C 0.99269 0.30403 0.89366 0.0
C3491 C 0.97879 0.28801 0.88203 0.0
C3492 C 0.04752 0.31468 0.88282 0.0
C3493 C 1.00208 0.28654 0.871 0.0
C3494 C 0.09991 0.34473 0.87146 0.0
C3495 C 0.13721 0.33871 0.89472 0.0
N3496 N 1.03344 0.29955 0.87164 0.0
N3497 N 0.10524 0.32729 0.89405 0.0
H3498 H 0.52924 0.35604 0.63363 0.0
H3499 H 0.49526 0.15818 0.6327 0.0
H3500 H 0.4362 0.31864 0.62404 0.0
H3501 H 0.58968 0.19569 0.62595 0.0
H3502 H 0.47391 0.21381 0.63237 0.0
H3503 H 0.55072 0.30036 0.63358 0.0
C3504 C 0.5127 0.33668 0.63151 0.0
C3505 C 0.47977 0.34493 0.62875 0.0
C3506 C 0.49942 0.21044 0.63095 0.0
C3507 C 0.50602 0.27595 0.62904 0.0
C3508 C 0.51215 0.17752 0.63117 0.0
C3509 C 0.54543 0.1693 0.62928 0.0
C3510 C 0.51924 0.2383 0.62916 0.0
C3511 C 0.5641 0.19833 0.6274 0.0
C3512 C 0.52549 0.30377 0.63148 0.0
C3513 C 0.46149 0.31597 0.62621 0.0
N3514 N 0.55127 0.22982 0.62752 0.0
N3515 N 0.47431 0.28447 0.62655 0.0
H3516 H 0.62852 0.90498 0.3789 0.0
H3517 H 0.50245 0.749 0.37812 0.0
H3518 H 0.66157 0.80962 0.38757 0.0
H3519 H 0.46754 0.8442 0.38565 0.0
H3520 H 0.5581 0.76975 0.37887 0.0
H3521 H 0.57256 0.88464 0.37868 0.0
C3522 C 0.62486 0.87961 0.38072 0.0
C3523 C 0.6528 0.86007 0.38328 0.0
C3524 C 0.53866 0.78662 0.38036 0.0
C3525 C 0.58347 0.83458 0.38274 0.0
C3526 C 0.50565 0.77444 0.3799 0.0
C3527 C 0.47725 0.79373 0.38183 0.0
C3528 C 0.54636 0.81979 0.38244 0.0
C3529 C 0.4865 0.82687 0.38407 0.0
C3530 C 0.59168 0.86767 0.38061 0.0
C3531 C 0.64298 0.82707 0.38552 0.0
N3532 N 0.51865 0.8381 0.38415 0.0
N3533 N 0.6108 0.81611 0.38506 0.0
H3534 H 1.04292 0.86851 0.13173 0.0
H3535 H 1.01081 0.67015 0.1341 0.0
H3536 H 0.94916 0.8297 0.1249 0.0
H3537 H 0.10345 0.70714 0.12348 0.0
H3538 H 0.98919 0.72569 0.13362 0.0
H3539 H 0.06501 0.81302 0.13157 0.0
C3540 C 1.02633 0.84891 0.13015 0.0
C3541 C 0.99297 0.85682 0.12815 0.0
C3542 C 1.01437 0.72228 0.13136 0.0
C3543 C 1.02007 0.78783 0.12838 0.0
C3544 C 1.02727 0.68938 0.13164 0.0
C3545 C 0.06012 0.68088 0.12872 0.0
C3546 C 1.03361 0.75009 0.12852 0.0
C3547 C 0.07821 0.70985 0.12576 0.0
C3548 C 1.03949 0.81605 0.13007 0.0
C3549 C 0.97476 0.82744 0.12636 0.0
N3550 N 0.06529 0.7414 0.1259 0.0
N3551 N 0.98797 0.79605 0.12666 0.0
H3552 H 0.20005 0.2168 0.32969 0.0
H3553 H 0.34385 0.31978 0.29063 0.0
H3554 H 0.28152 0.25442 0.35119 0.0
H3555 H 0.25988 0.28617 0.26968 0.0
H3556 H 0.32254 0.29647 0.31217 0.0
H3557 H 0.22122 0.24075 0.30823 0.0
C3558 C 0.22235 0.23002 0.33015 0.0
C3559 C 0.23831 0.23272 0.34303 0.0
C3560 C 0.30852 0.29404 0.30292 0.0
C3561 C 0.26398 0.26164 0.31719 0.0
C3562 C 0.32088 0.30779 0.29031 0.0
C3563 C 0.30424 0.30608 0.27754 0.0
C3564 C 0.27867 0.27737 0.30347 0.0
C3565 C 0.27452 0.28893 0.27872 0.0
C3566 C 0.23469 0.244 0.31759 0.0
C3567 C 0.26741 0.25095 0.34203 0.0
N3568 N 0.26321 0.2758 0.29101 0.0
N3569 N 0.27884 0.26408 0.32977 0.0
H3570 H 1.04618 0.06073 0.52587 0.0
H3571 H 0.07832 0.09161 0.6082 0.0
H3572 H 1.01668 0.1484 0.54522 0.0
H3573 H 0.11289 1.00854 0.58675 0.0
H3574 H 0.05494 0.11182 0.58652 0.0
H3575 H 0.06885 1.04215 0.54763 0.0
C3576 C 1.04442 0.07668 0.53453 0.0
C3577 C 1.02899 0.10708 0.53276 0.0
C3578 C 0.0676 0.08914 0.5864 0.0
C3579 C 0.05588 0.08415 0.55946 0.0
C3580 C 0.0812 0.07717 0.59907 0.0
C3581 C 0.09871 0.04771 0.60006 0.0
C3582 C 0.07042 0.07199 0.57385 0.0
C3583 C 0.10047 1.03131 0.58718 0.0
C3584 C 0.05755 0.06554 0.54733 0.0
C3585 C 1.02783 0.12495 0.54531 0.0
N3586 N 0.08699 1.04337 0.57509 0.0
N3587 N 1.04068 0.11347 0.55769 0.0
H3588 H 0.30107 0.83628 0.82802 0.0
H3589 H 0.19503 0.69874 0.78932 0.0
H3590 H 0.28297 0.74671 0.84833 0.0
H3591 H 0.26324 0.75544 0.76688 0.0
H3592 H 0.21725 0.72056 0.81095 0.0
H3593 H 0.27967 0.81328 0.80661 0.0
C3594 C 0.29268 0.81182 0.82825 0.0
C3595 C 0.29461 0.79429 0.8408 0.0
C3596 C 0.22753 0.72841 0.80133 0.0
C3597 C 0.26746 0.76677 0.81511 0.0
C3598 C 0.21468 0.71561 0.78868 0.0
C3599 C 0.22709 0.72383 0.77549 0.0
C3600 C 0.25275 0.75144 0.80145 0.0
C3601 C 0.25225 0.74722 0.77627 0.0
C3602 C 0.28006 0.79844 0.81572 0.0
C3603 C 0.28227 0.76231 0.83951 0.0
N3604 N 0.26357 0.75986 0.78858 0.0
N3605 N 0.26929 0.75023 0.82735 0.0
H3606 H 0.51404 0.13954 0.08144 0.0
H3607 H 0.61432 0.99664 1.04096 0.0
H3608 H 0.54574 0.05418 0.10211 0.0
H3609 H 0.57617 0.07969 1.02054 0.0
H3610 H 0.59147 1.0166 0.0628 0.0
H3611 H 0.53697 0.11868 1.05987 0.0
C3612 C 0.52578 0.11637 0.08168 0.0
C3613 C 0.52717 0.09935 0.09438 0.0
C3614 C 0.58793 1.03071 1.05361 0.0
C3615 C 0.55523 0.07412 0.06834 0.0
C3616 C 0.60136 1.01914 1.04082 0.0
C3617 C 0.59824 1.03598 1.02813 0.0
C3618 C 0.57041 0.06004 1.05443 0.0
C3619 C 0.58005 0.06502 1.02954 0.0
C3620 C 0.5392 0.10425 0.06905 0.0
C3621 C 0.54356 0.06921 0.09311 0.0
N3622 N 0.56747 0.07569 1.04201 0.0
N3623 N 0.55649 0.05807 0.08074 0.0
H3624 H 0.38838 0.7742 0.33088 0.0
H3625 H 0.23881 0.86364 0.28986 0.0
H3626 H 0.29872 0.79787 0.35005 0.0
H3627 H 0.32445 0.83311 0.26914 0.0
H3628 H 0.26062 0.84147 0.31149 0.0
H3629 H 0.36709 0.79565 0.30893 0.0
C3630 C 0.36427 0.78378 0.33074 0.0
C3631 C 0.3461 0.78364 0.34315 0.0
C3632 C 0.27491 0.83944 0.30227 0.0
C3633 C 0.32048 0.80982 0.31682 0.0
C3634 C 0.26222 0.85246 0.28962 0.0
C3635 C 0.27917 0.8512 0.27693 0.0
C3636 C 0.30555 0.82432 0.30296 0.0
C3637 C 0.3096 0.83538 0.27818 0.0
C3638 C 0.35189 0.79638 0.31791 0.0
C3639 C 0.31475 0.79722 0.34137 0.0
N3640 N 0.32137 0.82317 0.29054 0.0
N3641 N 0.3035 0.80933 0.32893 0.0
H3642 H 0.53828 0.98732 0.60152 0.0
H3643 H 0.49707 1.02116 0.5202 0.0
H3644 H 0.55501 0.07855 0.58235 0.0
H3645 H 0.4713 0.93281 0.5401 0.0
H3646 H 0.51898 1.04111 0.542 0.0
H3647 H 0.51541 0.96714 0.57988 0.0
C3648 C 0.53705 1.00361 0.59293 0.0
C3649 C 0.54895 1.03549 0.59459 0.0
C3650 C 0.50867 1.01728 0.54177 0.0
C3651 C 0.52221 1.01103 0.56827 0.0
C3652 C 0.49595 1.00545 0.52902 0.0
C3653 C 0.48161 0.97452 0.52753 0.0
C3654 C 0.5081 0.99858 0.55395 0.0
C3655 C 0.48161 0.95662 0.54008 0.0
C3656 C 0.52392 0.99166 0.58025 0.0
C3657 C 0.54663 0.05399 0.58224 0.0
N3658 N 0.49431 0.96863 0.55232 0.0
N3659 N 0.534 1.04176 0.57004 0.0
H3660 H 0.37362 0.33193 0.7819 0.0
H3661 H 0.26637 0.30149 0.85196 0.0
H3662 H 0.325 0.24262 0.78895 0.0
H3663 H 0.31067 0.39149 0.84221 0.0
H3664 H 0.28752 0.27915 0.83017 0.0
H3665 H 0.35149 0.35277 0.80355 0.0
C3666 C 0.3582 0.31636 0.78783 0.0
C3667 C 0.35152 0.28499 0.78276 0.0
C3668 C 0.29241 0.30401 0.83259 0.0
C3669 C 0.32533 0.30971 0.80912 0.0
C3670 C 0.28008 0.31709 0.84529 0.0
C3671 C 0.28484 0.34968 0.84931 0.0
C3672 C 0.31089 0.32284 0.82328 0.0
C3673 C 0.30402 0.3672 0.83973 0.0
C3674 C 0.34542 0.32855 0.80052 0.0
C3675 C 0.33143 0.26685 0.79182 0.0
N3676 N 0.31585 0.35395 0.8276 0.0
N3677 N 0.31947 0.27919 0.80416 0.0
H3678 H 0.08475 0.07695 1.03916 0.0
H3679 H 0.96424 0.94824 0.07817 0.0
H3680 H 1.01743 1.0192 1.01687 0.0
H3681 H 1.01456 1.02278 0.09957 0.0
H3682 H 0.98545 0.97002 1.05626 0.0
H3683 H 0.06281 0.05497 1.06083 0.0
C3684 C 0.06525 0.05988 1.03859 0.0
C3685 C 0.05329 0.05104 1.02545 0.0
C3686 C 0.99208 0.98174 0.06573 0.0
C3687 C 1.02735 1.02391 1.05145 0.0
C3688 C 0.97969 0.96907 0.07853 0.0
C3689 C 0.98669 0.98309 0.09151 0.0
C3690 C 1.01284 1.00893 0.06526 0.0
C3691 C 1.0077 1.01021 0.09037 0.0
C3692 C 0.05254 1.047 1.05125 0.0
C3693 C 1.02791 1.02791 1.02627 0.0
N3694 N 1.01961 1.02166 0.07794 0.0
N3695 N 1.01636 1.01552 1.03863 0.0
H3696 H 0.77293 0.74306 0.84785 0.0
H3697 H 0.74138 0.77887 0.76596 0.0
H3698 H 0.68778 0.70963 0.82772 0.0
H3699 H 0.83138 0.79788 0.78556 0.0
H3700 H 0.72095 0.7558 0.78761 0.0
H3701 H 0.79259 0.76444 0.82593 0.0
C3702 C 0.75781 0.74014 0.83896 0.0
C3703 C 0.72784 0.7239 0.84047 0.0
C3704 C 0.74525 0.76486 0.78733 0.0
C3705 C 0.75166 0.74985 0.81382 0.0
C3706 C 0.75736 0.77812 0.77464 0.0
C3707 C 0.789 0.79074 0.7731 0.0
C3708 C 0.76416 0.76384 0.79943 0.0
C3709 C 0.80704 0.78898 0.78556 0.0
C3710 C 0.76952 0.75258 0.82612 0.0
C3711 C 0.7108 0.72155 0.82777 0.0
N3712 N 0.79463 0.77633 0.79775 0.0
N3713 N 0.72263 0.73415 0.81542 0.0
H3714 H 0.75112 0.28549 0.35243 0.0
H3715 H 0.78781 0.23873 0.27193 0.0
H3716 H 0.8427 0.30048 0.33339 0.0
H3717 H 0.69669 0.21875 0.29062 0.0
H3718 H 0.80693 0.26113 0.29369 0.0
H3719 H 0.73104 0.26198 0.33086 0.0
C3720 C 0.76749 0.28377 0.34388 0.0
C3721 C 0.79944 0.29543 0.34553 0.0
C3722 C 0.78267 0.252 0.29322 0.0
C3723 C 0.77517 0.26777 0.31936 0.0
C3724 C 0.7713 0.239 0.28047 0.0
C3725 C 0.73984 0.22622 0.27861 0.0
C3726 C 0.76303 0.25318 0.30508 0.0
C3727 C 0.72098 0.2278 0.29087 0.0
C3728 C 0.7556 0.27025 0.33125 0.0
C3729 C 0.81809 0.29237 0.33328 0.0
N3730 N 0.73261 0.24069 0.30316 0.0
N3731 N 0.80595 0.2793 0.32115 0.0
H3732 H 0.83611 0.33254 0.76765 0.0
H3733 H 0.80319 0.29755 0.84984 0.0
H3734 H 0.75173 0.36546 0.78862 0.0
H3735 H 0.89203 0.27141 0.83059 0.0
H3736 H 0.78459 0.32064 0.82805 0.0
H3737 H 0.85582 0.30923 0.78943 0.0
C3738 C 0.82128 0.33507 0.7767 0.0
C3739 C 0.79162 0.35211 0.77554 0.0
C3740 C 0.80822 0.30995 0.8284 0.0
C3741 C 0.81527 0.32384 0.80188 0.0
C3742 C 0.81933 0.29657 0.8412 0.0
C3743 C 0.85003 0.28184 0.84295 0.0
C3744 C 0.82721 0.30923 0.8163 0.0
C3745 C 0.86829 0.28183 0.83047 0.0
C3746 C 0.83295 0.32151 0.78943 0.0
C3747 C 0.77469 0.35341 0.78832 0.0
N3748 N 0.85683 0.29482 0.81813 0.0
N3749 N 0.78645 0.33994 0.80048 0.0
H3750 H 0.8242 0.83131 0.35576 0.0
H3751 H 0.79301 0.80387 0.27302 0.0
H3752 H 0.74176 0.86965 0.33509 0.0
H3753 H 0.87956 0.77296 0.2928 0.0
H3754 H 0.77404 0.82625 0.29497 0.0
H3755 H 0.84334 0.80901 0.33377 0.0
C3756 C 0.80967 0.83524 0.34674 0.0
C3757 C 0.78074 0.8534 0.34806 0.0
C3758 C 0.79724 0.81462 0.29468 0.0
C3759 C 0.80375 0.82638 0.32144 0.0
C3760 C 0.8085 0.80162 0.28182 0.0
C3761 C 0.83865 0.78575 0.28022 0.0
C3762 C 0.81558 0.81236 0.30692 0.0
C3763 C 0.85624 0.7843 0.29282 0.0
C3764 C 0.82102 0.82226 0.33388 0.0
C3765 C 0.76416 0.85658 0.33527 0.0
N3766 N 0.84469 0.79694 0.30518 0.0
N3767 N 0.77561 0.84361 0.32296 0.0
H3768 H 0.60152 0.49712 0.086 0.0
H3769 H 0.52196 0.64744 1.04234 0.0
H3770 H 0.5833 0.58892 0.1044 0.0
H3771 H 0.54197 0.55542 1.0245 0.0
H3772 H 0.54302 0.62746 0.06449 0.0
H3773 H 0.5802 0.5178 0.0641 0.0
C3774 C 0.59319 0.52171 0.08564 0.0
C3775 C 0.59503 0.54065 0.09777 0.0
C3776 C 0.54299 0.61141 1.05579 0.0
C3777 C 0.56901 0.56562 0.07144 0.0
C3778 C 0.53063 0.62301 1.04285 0.0
C3779 C 0.52951 0.60373 1.03078 0.0
C3780 C 0.55506 0.57963 1.05737 0.0
C3781 C 0.54198 0.5721 1.03296 0.0
C3782 C 0.58066 0.5337 0.07285 0.0
C3783 C 0.58288 0.57251 0.09583 0.0
N3784 N 0.55376 0.56151 1.04557 0.0
N3785 N 0.57082 0.58353 0.08331 0.0
H3786 H 1.0209 0.65115 0.58083 0.0
H3787 H 0.1103 0.50235 0.53928 0.0
H3788 H 1.04373 0.56056 0.59947 0.0
H3789 H 0.08049 0.58866 0.51879 0.0
H3790 H 0.08781 0.52368 0.5609 0.0
H3791 H 1.04251 0.6305 0.55878 0.0
C3792 C 1.03036 0.62697 0.58055 0.0
C3793 C 1.03005 0.60837 0.59286 0.0
C3794 C 0.08601 0.53823 0.55174 0.0
C3795 C 0.05635 0.5835 0.56642 0.0
C3796 C 0.0992 0.52583 0.53909 0.0
C3797 C 0.0983 0.5431 0.52646 0.0
C3798 C 0.071 0.56893 0.55251 0.0
C3799 C 0.08252 0.57358 0.52778 0.0
C3800 C 1.04305 0.61496 0.56767 0.0
C3801 C 1.04338 0.57695 0.5909 0.0
N3802 N 0.07013 0.58509 0.54016 0.0
N3803 N 0.05557 0.56607 0.57842 0.0
H3804 H 1.03134 0.50658 0.10319 0.0
H3805 H 1.00568 0.52632 1.01965 0.0
H3806 H 0.07149 0.58464 0.08008 0.0
H3807 H 0.96831 0.44532 1.04173 0.0
H3808 H 1.02864 0.54714 1.04107 0.0
H3809 H 1.00796 0.48492 0.08185 0.0
C3810 C 1.03549 0.51962 0.09377 0.0
C3811 C 0.05455 0.54814 0.09422 0.0
C3812 C 1.01552 0.52476 1.04142 0.0
C3813 C 1.02632 0.522 0.06834 0.0
C3814 C 1.00214 0.51236 1.02886 0.0
C3815 C 0.98422 0.48318 1.02804 0.0
C3816 C 1.01179 0.50861 1.05416 0.0
C3817 C 0.98138 0.46769 1.04113 0.0
C3818 C 1.02188 0.50679 0.08128 0.0
C3819 C 0.0579 0.56264 0.08095 0.0
N3820 N 0.99454 0.48031 1.0532 0.0
N3821 N 1.04441 0.54975 0.06903 0.0
H3822 H 0.45944 0.44035 0.57761 0.0
H3823 H 0.58338 0.56857 0.5403 0.0
H3824 H 0.50885 0.51375 0.60007 0.0
H3825 H 0.51578 0.51288 0.51724 0.0
H3826 H 0.56016 0.54646 0.56171 0.0
H3827 H 0.48203 0.46268 0.5561 0.0
C3828 C 0.47492 0.46111 0.57828 0.0
C3829 C 0.48109 0.47467 0.59144 0.0
C3830 C 0.55009 0.53896 0.55202 0.0
C3831 C 0.50909 0.50114 0.56559 0.0
C3832 C 0.56356 0.55192 0.5395 0.0
C3833 C 0.552 0.5437 0.5262 0.0
C3834 C 0.52445 0.51636 0.55195 0.0
C3835 C 0.5261 0.52109 0.52675 0.0
C3836 C 0.48815 0.47409 0.56569 0.0
C3837 C 0.50243 0.50163 0.5907 0.0
N3838 N 0.51384 0.50859 0.53898 0.0
N3839 N 0.51519 0.51339 0.57844 0.0
H3840 H 0.3076 0.15601 0.41654 0.0
H3841 H 0.33149 0.98498 0.46097 0.0
H3842 H 0.24816 0.07464 0.40804 0.0
H3843 H 0.41081 0.04852 0.45449 0.0
H3844 H 0.29896 1.01815 0.44501 0.0
H3845 H 0.34047 0.12201 0.43203 0.0
C3846 C 0.3007 0.13111 0.41769 0.0
C3847 C 0.27327 0.12015 0.40995 0.0
C3848 C 0.32341 1.02546 0.44695 0.0
C3849 C 0.31375 0.07768 0.42966 0.0
C3850 C 0.34282 1.00583 0.45648 0.0
C3851 C 0.37593 1.01198 0.46004 0.0
C3852 C 0.33506 0.05406 0.44031 0.0
C3853 C 0.38638 1.04078 0.45284 0.0
C3854 C 0.32031 0.11097 0.42691 0.0
C3855 C 0.26813 0.08631 0.41301 0.0
N3856 N 0.36687 0.0597 0.444 0.0
N3857 N 0.28698 0.06766 0.42224 0.0
H3858 H 0.31986 0.22363 0.69562 0.0
H3859 H 0.18777 0.07454 0.68536 0.0
H3860 H 0.30886 0.15388 0.72756 0.0
H3861 H 0.24512 0.10349 0.65109 0.0
H3862 H 0.22192 0.10802 0.70053 0.0
H3863 H 0.28696 0.18914 0.68032 0.0
C3864 C 0.31074 0.20138 0.69982 0.0
C3865 C 0.31919 0.19375 0.71384 0.0
C3866 C 0.22753 0.10759 0.68971 0.0
C3867 C 0.27707 0.1508 0.69483 0.0
C3868 C 0.20721 0.08772 0.68064 0.0
C3869 C 0.21158 0.08397 0.666 0.0
C3870 C 0.25386 0.127 0.68491 0.0
C3871 C 0.23886 0.1036 0.66184 0.0
C3872 C 0.29124 0.18085 0.69066 0.0
C3873 C 0.30472 0.16293 0.71732 0.0
N3874 N 0.25738 0.12338 0.67076 0.0
N3875 N 0.28518 0.14416 0.70842 0.0
H3876 H 0.20247 1.04177 0.9573 0.0
H3877 H 0.22393 0.86987 0.91337 0.0
H3878 H 0.12248 0.97898 0.95111 0.0
H3879 H 0.28825 0.94863 0.90692 0.0
H3880 H 0.19076 0.90472 0.92843 0.0
H3881 H 0.23504 1.00747 0.94181 0.0
C3882 C 0.19099 1.02092 0.9529 0.0
C3883 C 0.15774 1.01534 0.95634 0.0
C3884 C 0.21207 0.91496 0.92386 0.0
C3885 C 0.19852 0.97195 0.93728 0.0
C3886 C 0.23185 0.89433 0.91493 0.0
C3887 C 0.26071 0.90441 0.90794 0.0
C3888 C 0.21988 0.94778 0.92698 0.0
C3889 C 0.26712 0.93775 0.91137 0.0
C3890 C 0.21041 1.00062 0.94369 0.0
C3891 C 0.14703 0.98638 0.94943 0.0
N3892 N 0.248 0.95687 0.92026 0.0
N3893 N 0.16652 0.96684 0.94085 0.0
H3894 H 0.28871 1.00382 0.21186 0.0
H3895 H 0.45618 1.02651 0.16461 0.0
H3896 H 0.3492 0.92313 0.20333 0.0
H3897 H 0.37686 0.09089 0.1598 0.0
H3898 H 0.42276 0.99285 0.18008 0.0
H3899 H 0.32171 1.03687 0.19603 0.0
C3900 C 0.30884 0.99224 0.20692 0.0
C3901 C 0.31411 0.95856 0.2099 0.0
C3902 C 0.41207 1.0143 0.1758 0.0
C3903 C 0.35611 1.00014 0.19024 0.0
C3904 C 0.43193 1.03445 0.1666 0.0
C3905 C 0.42137 0.06364 0.1599 0.0
C3906 C 0.37952 1.02192 0.17957 0.0
C3907 C 0.38826 0.06971 0.16396 0.0
C3908 C 0.3284 1.01199 0.19747 0.0
C3909 C 0.34208 0.94796 0.20216 0.0
N3910 N 0.36996 0.05027 0.1731 0.0
N3911 N 0.36095 0.96776 0.19336 0.0
H3912 H 0.78382 0.9379 0.70949 0.0
H3913 H 0.61656 0.96176 0.66275 0.0
H3914 H 0.71931 0.8595 0.70268 0.0
H3915 H 0.69422 1.02882 0.66018 0.0
H3916 H 0.64972 0.92754 0.67806 0.0
H3917 H 0.75102 0.97157 0.69386 0.0
C3918 C 0.76284 0.92704 0.70494 0.0
C3919 C 0.75613 0.89394 0.70828 0.0
C3920 C 0.66006 0.94966 0.67428 0.0
C3921 C 0.71492 0.93589 0.68898 0.0
C3922 C 0.64046 0.97001 0.6652 0.0
C3923 C 0.65088 0.99999 0.65923 0.0
C3924 C 0.69199 0.9579 0.67852 0.0
C3925 C 0.68329 1.00684 0.66379 0.0
C3926 C 0.74347 0.94708 0.69565 0.0
C3927 C 0.7273 0.88394 0.70114 0.0
N3928 N 0.70142 0.98703 0.67275 0.0
N3929 N 0.70877 0.90398 0.69241 0.0
H3930 H 0.96395 1.03053 0.46003 0.0
H3931 H 0.79651 1.00812 0.4127 0.0
H3932 H 0.88692 0.09826 0.46281 0.0
H3933 H 0.85514 0.92682 0.42246 0.0
H3934 H 0.8302 1.04165 0.42796 0.0
H3935 H 0.92988 0.99632 0.44511 0.0
C3936 C 0.94008 1.03911 0.45769 0.0
C3937 C 0.9304 0.06944 0.46368 0.0
C3938 C 0.83634 1.01653 0.42693 0.0
C3939 C 0.88768 1.02689 0.44467 0.0
C3940 C 0.81633 0.99645 0.41781 0.0
C3941 C 0.82079 0.96242 0.41534 0.0
C3942 C 0.86378 1.0047 0.43435 0.0
C3943 C 0.84854 0.95186 0.42325 0.0
C3944 C 0.91982 1.01862 0.44882 0.0
C3945 C 0.89769 0.0762 0.45924 0.0
N3946 N 0.86784 0.97195 0.43173 0.0
N3947 N 0.879 0.05634 0.45043 0.0
H3948 H 0.83845 0.9911 0.1599 0.0
H3949 H 0.81521 0.15892 0.20683 0.0
H3950 H 0.91759 0.05431 0.16716 0.0
H3951 H 0.74904 0.08071 0.21027 0.0
H3952 H 0.84909 0.12554 0.19146 0.0
H3953 H 0.80517 1.02399 0.17565 0.0
C3954 C 0.84965 1.01173 0.1646 0.0
C3955 C 0.88295 1.01784 0.16133 0.0
C3956 C 0.82723 0.11508 0.19544 0.0
C3957 C 0.84115 0.05959 0.18082 0.0
C3958 C 0.80701 0.13487 0.20457 0.0
C3959 C 0.77733 0.12451 0.21086 0.0
C3960 C 0.81923 0.08286 0.19138 0.0
C3961 C 0.77074 0.09179 0.20648 0.0
C3962 C 0.82977 1.03123 0.17397 0.0
C3963 C 0.8931 1.04651 0.16865 0.0
N3964 N 0.79036 0.0735 0.19744 0.0
N3965 N 0.87319 0.06523 0.17742 0.0
H3966 H 0.75233 1.04664 0.96199 0.0
H3967 H 0.77682 0.21607 0.91604 0.0
H3968 H 0.67301 0.10972 0.95467 0.0
H3969 H 0.83923 0.13561 0.90998 0.0
H3970 H 0.74318 0.18252 0.93146 0.0
H3971 H 0.78547 0.0796 0.94615 0.0
C3972 C 0.74109 0.06734 0.95732 0.0
C3973 C 0.70776 0.07337 0.96064 0.0
C3974 C 0.76416 0.17158 0.92691 0.0
C3975 C 0.74944 0.11525 0.94097 0.0
C3976 C 0.78426 0.19149 0.91772 0.0
C3977 C 0.81285 0.18066 0.91066 0.0
C3978 C 0.77125 0.13867 0.93032 0.0
C3979 C 0.81845 0.14721 0.91438 0.0
C3980 C 0.76088 0.08686 0.94786 0.0
C3981 C 0.69754 0.102 0.95322 0.0
N3982 N 0.79907 0.12883 0.92353 0.0
N3983 N 0.71739 0.12078 0.94441 0.0
H3984 H 0.7378 0.5775 0.91034 0.0
H3985 H 0.90926 0.55329 0.95445 0.0
H3986 H 0.80297 0.65595 0.91558 0.0
H3987 H 0.8287 0.49206 0.96207 0.0
H3988 H 0.87536 0.58638 0.93901 0.0
H3989 H 0.77107 0.54481 0.92619 0.0
C3990 C 0.75894 0.58867 0.9146 0.0
C3991 C 0.76543 0.62162 0.91073 0.0
C3992 C 0.86445 0.5658 0.94392 0.0
C3993 C 0.80773 0.58046 0.93036 0.0
C3994 C 0.88455 0.54603 0.95312 0.0
C3995 C 0.87381 0.51801 0.96062 0.0
C3996 C 0.83137 0.55891 0.94096 0.0
C3997 C 0.84021 0.51249 0.95731 0.0
C3998 C 0.77868 0.56913 0.92405 0.0
C3999 C 0.79479 0.63174 0.91754 0.0
N4000 N 0.82159 0.53157 0.94815 0.0
N4001 N 0.81372 0.61211 0.92637 0.0
H4002 H 0.73923 0.54418 0.16404 0.0
H4003 H 0.76395 0.7155 0.20892 0.0
H4004 H 0.66192 0.61086 0.16908 0.0
H4005 H 0.82971 0.63704 0.21298 0.0
H4006 H 0.73009 0.68172 0.19375 0.0
H4007 H 0.77256 0.57762 0.17943 0.0
C4008 C 0.72843 0.56576 0.16807 0.0
C4009 C 0.69556 0.57259 0.16421 0.0
C4010 C 0.75185 0.67125 0.19781 0.0
C4011 C 0.73759 0.61505 0.18353 0.0
C4012 C 0.77211 0.69132 0.20685 0.0
C4013 C 0.80177 0.68116 0.21325 0.0
C4014 C 0.75964 0.63875 0.19397 0.0
C4015 C 0.80813 0.64814 0.20908 0.0
C4016 C 0.74838 0.5856 0.17731 0.0
C4017 C 0.686 0.60235 0.17095 0.0
N4018 N 0.78843 0.62956 0.20016 0.0
N4019 N 0.70596 0.62128 0.17963 0.0
H4020 H 0.79586 0.44307 0.4101 0.0
H4021 H 0.62323 0.47458 0.45229 0.0
H4022 H 0.72617 0.36811 0.41419 0.0
H4023 H 0.70581 0.53296 0.45995 0.0
H4024 H 0.65641 0.43986 0.4372 0.0
H4025 H 0.76306 0.4772 0.42553 0.0
C4026 C 0.77372 0.43307 0.41399 0.0
C4027 C 0.76564 0.40071 0.40996 0.0
C4028 C 0.66784 0.46019 0.44205 0.0
C4029 C 0.7243 0.4434 0.42901 0.0
C4030 C 0.64822 0.48089 0.45098 0.0
C4031 C 0.6599 0.50864 0.45829 0.0
C4032 C 0.70122 0.46587 0.43928 0.0
C4033 C 0.69374 0.51289 0.45522 0.0
C4034 C 0.75435 0.45339 0.42318 0.0
C4035 C 0.73535 0.39186 0.4163 0.0
N4036 N 0.71192 0.49292 0.44632 0.0
N4037 N 0.71682 0.41224 0.4249 0.0
H4038 H 0.81798 0.44214 0.68996 0.0
H4039 H 0.96861 0.57177 0.67923 0.0
H4040 H 0.84954 0.49712 0.72443 0.0
H4041 H 0.89623 0.56537 0.64828 0.0
H4042 H 0.93448 0.53848 0.6946 0.0
H4043 H 0.85115 0.47672 0.67475 0.0
C4044 C 0.83172 0.46111 0.69471 0.0
C4045 C 0.82885 0.46474 0.70941 0.0
C4046 C 0.92552 0.5439 0.68446 0.0
C4047 C 0.87136 0.50745 0.69047 0.0
C4048 C 0.9458 0.56365 0.67528 0.0
C4049 C 0.93726 0.57354 0.66153 0.0
C4050 C 0.89488 0.53087 0.68055 0.0
C4051 C 0.90591 0.56014 0.65831 0.0
C4052 C 0.85137 0.48169 0.68563 0.0
C4053 C 0.84903 0.49148 0.71362 0.0
N4054 N 0.88738 0.54029 0.6672 0.0
N4055 N 0.86858 0.51023 0.70468 0.0
H4056 H 0.23461 0.37722 0.20673 0.0
H4057 H 0.21321 0.54186 0.15754 0.0
H4058 H 0.30092 0.4553 0.21002 0.0
H4059 H 0.13267 0.48209 0.16711 0.0
H4060 H 0.24641 0.50963 0.17365 0.0
H4061 H 0.20128 0.41029 0.19104 0.0
C4062 C 0.24294 0.4012 0.20438 0.0
C4063 C 0.27244 0.41162 0.21075 0.0
C4064 C 0.22154 0.50295 0.17236 0.0
C4065 C 0.2313 0.45285 0.19079 0.0
C4066 C 0.20175 0.522 0.16276 0.0
C4067 C 0.16813 0.51652 0.15997 0.0
C4068 C 0.20967 0.47574 0.17995 0.0
C4069 C 0.15751 0.48914 0.16808 0.0
C4070 C 0.22305 0.4208 0.19504 0.0
C4071 C 0.27929 0.44422 0.20619 0.0
N4072 N 0.17731 0.47078 0.17702 0.0
N4073 N 0.26002 0.4623 0.19692 0.0
H4074 H 0.45874 0.52826 0.9618 0.0
H4075 H 0.2958 0.50619 0.91199 0.0
H4076 H 0.38291 0.59767 0.96255 0.0
H4077 H 0.35306 0.42489 0.92321 0.0
H4078 H 0.32842 0.5401 0.92756 0.0
H4079 H 0.42553 0.49389 0.94664 0.0
C4080 C 0.43526 0.5371 0.95897 0.0
C4081 C 0.42552 0.56788 0.96444 0.0
C4082 C 0.33445 0.51491 0.92678 0.0
C4083 C 0.38412 0.52533 0.94517 0.0
C4084 C 0.31515 0.49467 0.9175 0.0
C4085 C 0.31971 0.46059 0.91537 0.0
C4086 C 0.36108 0.50307 0.93467 0.0
C4087 C 0.34662 0.45002 0.92373 0.0
C4088 C 0.41557 0.51658 0.94996 0.0
C4089 C 0.39349 0.57517 0.95938 0.0
N4090 N 0.36526 0.47025 0.93237 0.0
N4091 N 0.37533 0.55521 0.95045 0.0
H4092 H 0.40798 0.54483 0.66448 0.0
H4093 H 0.29958 0.6521 0.70218 0.0
H4094 H 0.32641 0.4846 0.65753 0.0
H4095 H 0.24055 0.56967 0.70942 0.0
H4096 H 0.33375 0.61935 0.68683 0.0
H4097 H 0.37488 0.57867 0.67982 0.0
C4098 C 0.38319 0.53798 0.66594 0.0
C4099 C 0.37186 0.51004 0.65868 0.0
C4100 C 0.31346 0.60774 0.69164 0.0
C4101 C 0.33041 0.55184 0.67819 0.0
C4102 C 0.29307 0.62718 0.70077 0.0
C4103 C 0.26534 0.61551 0.70812 0.0
C4104 C 0.30755 0.57447 0.68861 0.0
C4105 C 0.26073 0.58176 0.70475 0.0
C4106 C 0.36354 0.55818 0.67507 0.0
C4107 C 0.33824 0.50498 0.66213 0.0
N4108 N 0.28043 0.56372 0.69564 0.0
N4109 N 0.32 0.52451 0.67124 0.0
H4110 H 0.25372 0.5531 0.4629 0.0
H4111 H 0.27427 0.72037 0.41525 0.0
H4112 H 0.17256 0.61243 0.45373 0.0
H4113 H 0.34214 0.64344 0.41226 0.0
H4114 H 0.24069 0.6863 0.4305 0.0
H4115 H 0.28689 0.58677 0.44736 0.0
C4116 C 0.24209 0.5731 0.45787 0.0
C4117 C 0.20831 0.57794 0.46055 0.0
C4118 C 0.2629 0.6763 0.42667 0.0
C4119 C 0.24982 0.62054 0.44129 0.0
C4120 C 0.28294 0.69651 0.41761 0.0
C4121 C 0.313 0.68672 0.41149 0.0
C4122 C 0.27151 0.64426 0.43082 0.0
C4123 C 0.32016 0.65412 0.41596 0.0
C4124 C 0.26187 0.59302 0.4486 0.0
C4125 C 0.19752 0.60573 0.45275 0.0
N4126 N 0.30072 0.63547 0.42494 0.0
N4127 N 0.21731 0.62492 0.44412 0.0
H4128 H 0.33441 0.08173 0.34786 0.0
H4129 H 0.38131 0.95782 0.314 0.0
H4130 H 0.36386 0.14434 0.3148 0.0
H4131 H 0.34931 1.02101 0.28162 0.0
H4132 H 0.40093 1.00464 0.3265 0.0
H4133 H 0.36657 1.03968 0.33837 0.0
C4134 C 0.34848 0.08742 0.33888 0.0
C4135 C 0.3444 0.11647 0.33169 0.0
C4136 C 0.39036 1.008 0.31647 0.0
C4137 C 0.38105 0.06701 0.3204 0.0
C4138 C 0.37897 0.98129 0.30933 0.0
C4139 C 0.36153 0.98545 0.29712 0.0
C4140 C 0.38423 1.03887 0.31131 0.0
C4141 C 0.36138 1.01627 0.2912 0.0
C4142 C 0.36719 0.06291 0.33339 0.0
C4143 C 0.3642 0.12167 0.32021 0.0
N4144 N 0.37165 1.04186 0.29853 0.0
N4145 N 0.38045 0.09669 0.31454 0.0
H4146 H 0.22615 0.14537 0.55925 0.0
H4147 H 0.33803 0.07058 0.52525 0.0
H4148 H 0.28216 0.10345 0.59196 0.0
H4149 H 0.40571 0.09037 0.55764 0.0
H4150 H 0.30214 0.10967 0.5348 0.0
H4151 H 0.27546 0.15226 0.54601 0.0
C4152 C 0.24867 0.13819 0.56382 0.0
C4153 C 0.2494 0.12174 0.57643 0.0
C4154 C 0.32534 0.10658 0.53958 0.0
C4155 C 0.30578 0.13012 0.56142 0.0
C4156 C 0.34621 0.0839 0.53407 0.0
C4157 C 0.37461 0.07561 0.541 0.0
C4158 C 0.33238 0.1204 0.55233 0.0
C4159 C 0.38325 0.09436 0.55238 0.0
C4160 C 0.27683 0.14234 0.55625 0.0
C4161 C 0.27969 0.11518 0.58214 0.0
N4162 N 0.36162 0.11485 0.55804 0.0
N4163 N 0.30652 0.11861 0.57444 0.0
H4164 H 0.33535 0.17384 0.82266 0.0
H4165 H 0.31636 1.01721 0.84219 0.0
H4166 H 0.37294 0.12406 0.78722 0.0
H4167 H 0.29028 0.99767 0.80014 0.0
H4168 H 0.32038 0.07355 0.83669 0.0
H4169 H 0.30403 0.12592 0.82832 0.0
C4170 C 0.33694 0.15315 0.81601 0.0
C4171 C 0.35765 0.15299 0.80463 0.0
C4172 C 0.31268 0.0571 0.82877 0.0
C4173 C 0.32123 0.09868 0.81087 0.0
C4174 C 0.31032 1.02461 0.83189 0.0
C4175 C 0.30337 1.0021 0.82157 0.0
C4176 C 0.30894 0.06722 0.81519 0.0
C4177 C 0.29677 1.01378 0.80835 0.0
C4178 C 0.31883 0.12598 0.8192 0.0
C4179 C 0.35748 0.12579 0.79608 0.0
N4180 N 0.30069 1.04544 0.80545 0.0
N4181 N 0.33981 0.0997 0.79946 0.0
H4182 H 0.23432 0.97687 1.0292 0.0
H4183 H 0.32731 0.06967 0.08762 0.0
H4184 H 0.18726 1.01884 0.06417 0.0
H4185 H 0.37513 1.01337 1.05659 0.0
H4186 H 0.27629 1.04702 0.0805 0.0
H4187 H 0.28615 0.98498 1.04031 0.0
C4188 C 0.23499 0.98717 1.03938 0.0
C4189 C 0.20667 0.99737 1.04579 0.0
C4190 C 0.29796 1.03928 0.07535 0.0
C4191 C 0.26578 1.00748 1.05843 0.0
C4192 C 0.32726 0.05209 0.07946 0.0
C4193 C 0.35576 1.04354 0.07268 0.0
C4194 C 0.2969 1.01801 0.06424 0.0
C4195 C 0.35381 1.02115 0.06197 0.0
C4196 C 0.26453 0.9919 1.0457 0.0
C4197 C 0.20863 1.01059 1.05894 0.0
N4198 N 0.32487 1.00942 1.058 0.0
N4199 N 0.23779 1.01578 0.06475 0.0
H4200 H 0.79139 0.99547 0.77847 0.0
H4201 H 0.80493 0.096 0.84116 0.0
H4202 H 0.74629 0.95971 0.81543 0.0
H4203 H 0.7754 0.14343 0.80373 0.0
H4204 H 0.78343 1.04626 0.83252 0.0
H4205 H 0.78602 0.04958 0.78712 0.0
C4206 C 0.77955 0.9987 0.78823 0.0
C4207 C 0.76959 0.97235 0.79624 0.0
C4208 C 0.78102 0.06778 0.82636 0.0
C4209 C 0.7648 1.03491 0.8064 0.0
C4210 C 0.79317 0.09659 0.83131 0.0
C4211 C 0.79268 0.12452 0.82314 0.0
C4212 C 0.76928 0.06636 0.81297 0.0
C4213 C 0.77762 0.12256 0.81026 0.0
C4214 C 0.77666 1.02987 0.79317 0.0
C4215 C 0.75535 0.97887 0.80902 0.0
N4216 N 0.76738 0.09377 0.80541 0.0
N4217 N 0.75416 1.00943 0.81386 0.0
H4218 H 0.71444 0.9857 0.55322 0.0
H4219 H 0.89944 1.01818 0.56702 0.0
H4220 H 0.75151 1.02763 0.59054 0.0
H4221 H 0.85064 0.04734 0.5299 0.0
H4222 H 0.84916 0.99483 0.57519 0.0
H4223 H 0.76935 0.98234 0.54451 0.0
C4224 C 0.73381 0.99377 0.55971 0.0
C4225 C 0.72771 1.00784 0.57256 0.0
C4226 C 0.85009 1.00554 0.56508 0.0
C4227 C 0.79061 1.00207 0.56288 0.0
C4228 C 0.87862 1.0193 0.56044 0.0
C4229 C 0.87944 1.03606 0.54791 0.0
C4230 C 0.82252 1.00763 0.55696 0.0
C4231 C 0.85178 1.03502 0.53963 0.0
C4232 C 0.76515 0.99133 0.55477 0.0
C4233 C 0.75434 1.01643 0.58064 0.0
N4234 N 0.82439 1.0215 0.54439 0.0
N4235 N 0.78451 1.01368 0.57561 0.0
H4236 H 0.88731 0.96656 0.31086 0.0
H4237 H 0.84586 0.14939 0.31009 0.0
H4238 H 0.8564 1.02487 0.34502 0.0
H4239 H 0.82979 0.08027 0.27785 0.0
H4240 H 0.88269 0.1115 0.32094 0.0
H4241 H 0.90018 1.01559 0.29829 0.0
C4242 C 0.88399 0.98941 0.31593 0.0
C4243 C 0.86812 0.99136 0.32864 0.0
C4244 C 0.87201 0.10534 0.31118 0.0
C4245 C 0.88434 0.0473 0.31452 0.0
C4246 C 0.85057 0.12674 0.30506 0.0
C4247 C 0.83285 0.11733 0.29348 0.0
C4248 C 0.876 0.07462 0.30557 0.0
C4249 C 0.84178 0.08852 0.287 0.0
C4250 C 0.89182 1.01739 0.30877 0.0
C4251 C 0.86703 1.02165 0.33502 0.0
N4252 N 0.86205 0.06784 0.29333 0.0
N4253 N 0.87401 0.04847 0.32772 0.0
H4254 H 0.90057 0.10465 0.06629 0.0
H4255 H 0.71463 0.13245 0.06772 0.0
H4256 H 0.8354 0.07853 0.09888 0.0
H4257 H 0.77298 0.10559 1.03292 0.0
H4258 H 0.76347 0.14631 0.08012 0.0
H4259 H 0.8587 0.13866 1.05648 0.0
C4260 C 0.87793 0.10675 0.07166 0.0
C4261 C 0.87091 0.08692 0.08295 0.0
C4262 C 0.76524 0.1386 0.06956 0.0
C4263 C 0.82357 0.12671 0.07204 0.0
C4264 C 0.7374 0.13015 0.06249 0.0
C4265 C 0.7395 0.1154 1.04954 0.0
C4266 C 0.79518 0.13307 0.06347 0.0
C4267 C 0.76965 0.11555 1.04302 0.0
C4268 C 0.8542 0.12649 0.06611 0.0
C4269 C 0.84183 0.09231 0.0899 0.0
N4270 N 0.79634 0.12333 1.05019 0.0
N4271 N 0.81887 0.11098 0.0841 0.0
H4272 H 0.8544 0.64955 0.81743 0.0
H4273 H 0.88991 0.46514 0.81776 0.0
H4274 H 0.83019 0.58162 0.84929 0.0
H4275 H 0.86413 0.52466 0.78312 0.0
H4276 H 0.90167 0.51372 0.83074 0.0
H4277 H 0.89146 0.61013 0.8078 0.0
C4278 C 0.85749 0.62685 0.82268 0.0
C4279 C 0.83737 0.61819 0.83366 0.0
C4280 C 0.89466 0.51583 0.8201 0.0
C4281 C 0.88056 0.57365 0.82296 0.0
C4282 C 0.88737 0.48812 0.81269 0.0
C4283 C 0.87334 0.4905 0.7996 0.0
C4284 C 0.88871 0.54597 0.81422 0.0
C4285 C 0.87337 0.52099 0.79333 0.0
C4286 C 0.87898 0.60453 0.81724 0.0
C4287 C 0.84409 0.58922 0.84051 0.0
N4288 N 0.87998 0.54754 0.80082 0.0
N4289 N 0.86442 0.56759 0.83481 0.0
H4290 H 0.83356 0.57681 1.02123 0.0
H4291 H 0.70746 0.62113 1.05491 0.0
H4292 H 0.89424 0.60811 1.05449 0.0
H4293 H 0.77101 0.59141 0.0875 0.0
H4294 H 0.75396 0.6408 1.04215 0.0
H4295 H 0.79045 0.60796 1.03045 0.0
C4296 C 0.8386 0.59112 1.03019 0.0
C4297 C 0.86742 0.58776 1.03756 0.0
C4298 C 0.75746 0.63067 1.05226 0.0
C4299 C 0.81677 0.62321 1.04851 0.0
C4300 C 0.73095 0.61921 1.05954 0.0
C4301 C 0.73528 0.60273 0.072 0.0
C4302 C 0.78837 0.6255 1.0575 0.0
C4303 C 0.76613 0.60295 0.07781 0.0
C4304 C 0.81346 0.60923 1.03552 0.0
C4305 C 0.87178 0.60788 1.04897 0.0
N4306 N 0.79152 0.61335 0.07036 0.0
N4307 N 0.84624 0.62351 1.05448 0.0
H4308 H 0.74151 0.45583 0.30365 0.0
H4309 H 0.75847 0.6428 0.31835 0.0
H4310 H 0.78061 0.49546 0.34107 0.0
H4311 H 0.79101 0.59759 0.28091 0.0
H4312 H 0.73975 0.59039 0.32634 0.0
H4313 H 0.73351 0.51057 0.29522 0.0
C4314 C 0.748 0.47565 0.31023 0.0
C4315 C 0.76263 0.47042 0.32303 0.0
C4316 C 0.75013 0.59251 0.3162 0.0
C4317 C 0.75154 0.53296 0.31367 0.0
C4318 C 0.76128 0.62229 0.31167 0.0
C4319 C 0.77746 0.62492 0.29906 0.0
C4320 C 0.75436 0.56541 0.30792 0.0
C4321 C 0.77883 0.5974 0.29068 0.0
C4322 C 0.74291 0.50686 0.30544 0.0
C4323 C 0.76907 0.49752 0.33121 0.0
N4324 N 0.76784 0.56879 0.29534 0.0
N4325 N 0.76374 0.52751 0.32633 0.0
H4326 H 0.74255 0.48387 0.53465 0.0
H4327 H 0.83043 0.58762 0.59133 0.0
H4328 H 0.69294 0.52836 0.5684 0.0
H4329 H 0.88098 0.53063 0.56135 0.0
H4330 H 0.78045 0.56222 0.58447 0.0
H4331 H 0.79372 0.49615 0.54561 0.0
C4332 C 0.74253 0.4957 0.54453 0.0
C4333 C 0.71363 0.50534 0.55063 0.0
C4334 C 0.80251 0.55497 0.57949 0.0
C4335 C 0.772 0.52009 0.56309 0.0
C4336 C 0.83119 0.56937 0.58346 0.0
C4337 C 0.86012 0.56142 0.57687 0.0
C4338 C 0.80252 0.53265 0.56875 0.0
C4339 C 0.85927 0.53801 0.56655 0.0
C4340 C 0.7717 0.50278 0.55077 0.0
C4341 C 0.71476 0.52049 0.56341 0.0
N4342 N 0.83092 0.52469 0.56272 0.0
N4343 N 0.74354 0.5279 0.56913 0.0
H4344 H 0.26229 0.65196 0.30901 0.0
H4345 H 0.27983 0.50411 0.28058 0.0
H4346 H 0.30246 0.59806 0.34278 0.0
H4347 H 0.24433 0.46469 0.31878 0.0
H4348 H 0.27163 0.55731 0.28946 0.0
H4349 H 0.24076 0.60186 0.29973 0.0
C4350 C 0.26626 0.62987 0.31461 0.0
C4351 C 0.28525 0.62937 0.3265 0.0
C4352 C 0.26468 0.53701 0.29574 0.0
C4353 C 0.25989 0.57231 0.31611 0.0
C4354 C 0.26927 0.50617 0.29066 0.0
C4355 C 0.26335 0.47906 0.29894 0.0
C4356 C 0.25503 0.54112 0.30936 0.0
C4357 C 0.25054 0.48447 0.3121 0.0
C4358 C 0.25373 0.60139 0.30934 0.0
C4359 C 0.28822 0.60003 0.33358 0.0
N4360 N 0.24787 0.51485 0.31707 0.0
N4361 N 0.27607 0.57265 0.32817 0.0
H4362 H 0.39769 0.50362 0.06391 0.0
H4363 H 0.21143 0.4758 1.05176 0.0
H4364 H 0.3457 0.54329 1.02945 0.0
H4365 H 0.25157 0.511 0.0898 0.0
H4366 H 0.26568 0.47301 1.04239 0.0
H4367 H 0.34792 0.47876 0.07183 0.0
C4368 C 0.37624 0.50682 1.05784 0.0
C4369 C 0.37611 0.52677 1.04618 0.0
C4370 C 0.26225 0.48032 1.05294 0.0
C4371 C 0.31971 0.49654 1.05483 0.0
C4372 C 0.23124 0.48246 1.05829 0.0
C4373 C 0.22607 0.49505 0.07151 0.0
C4374 C 0.28834 0.48957 0.06101 0.0
C4375 C 0.2534 0.50134 0.07958 0.0
C4376 C 0.34801 0.49214 0.0623 0.0
C4377 C 0.34758 0.5284 1.03848 0.0
N4378 N 0.2832 0.49892 0.07414 0.0
N4379 N 0.32051 0.51386 1.04304 0.0
H4380 H 0.33006 0.58428 0.77155 0.0
H4381 H 0.34769 0.5359 0.84091 0.0
H4382 H 0.34678 0.65343 0.80363 0.0
H4383 H 0.37223 0.47207 0.80768 0.0
H4384 H 0.36971 0.58014 0.82811 0.0
H4385 H 0.36744 0.54822 0.78238 0.0
C4386 C 0.34239 0.59264 0.78061 0.0
C4387 C 0.33321 0.62113 0.78725 0.0
C4388 C 0.37123 0.55636 0.82369 0.0
C4389 C 0.375 0.57873 0.80014 0.0
C4390 C 0.35863 0.5307 0.83111 0.0
C4391 C 0.35595 0.50026 0.82502 0.0
C4392 C 0.37981 0.55182 0.80991 0.0
C4393 C 0.37154 0.49554 0.8124 0.0
C4394 C 0.36387 0.57167 0.7869 0.0
C4395 C 0.35124 0.63061 0.7987 0.0
N4396 N 0.38157 0.52128 0.80499 0.0
N4397 N 0.37019 0.60884 0.80518 0.0
H4398 H 0.21688 0.64021 0.566 0.0
H4399 H 0.33504 0.57359 0.598 0.0
H4400 H 0.2749 0.60509 0.53248 0.0
H4401 H 0.39951 0.59917 0.56506 0.0
H4402 H 0.29679 0.61171 0.58948 0.0
H4403 H 0.26597 0.65174 0.5787 0.0
C4404 C 0.23972 0.63548 0.56114 0.0
C4405 C 0.24137 0.61935 0.54849 0.0
C4406 C 0.31976 0.61016 0.58436 0.0
C4407 C 0.29746 0.63306 0.56288 0.0
C4408 C 0.34201 0.58802 0.58927 0.0
C4409 C 0.37014 0.58148 0.58181 0.0
C4410 C 0.32517 0.6251 0.57166 0.0
C4411 C 0.37727 0.60172 0.57067 0.0
C4412 C 0.26776 0.64229 0.5684 0.0
C4413 C 0.27181 0.61622 0.54237 0.0
N4414 N 0.35433 0.62157 0.56556 0.0
N4415 N 0.29859 0.62212 0.54979 0.0
loop_
_geom_bond_atom_site_label_1
_geom_bond_atom_site_label_2
_geom_bond_distance
_geom_bond_site_symmetry_2
_ccdc_geom_bond_type
Tb0 N29 2.617 . S
Tb0 N35 2.572 . S
Tb0 O44 2.465 . S
Tb0 O45 2.387 . S
Tb0 O47 2.428 . S
Tb0 O48 2.308 . S
Tb0 O52 2.349 . S
Tb0 O55 2.393 . S
Tb0 C64 2.802 . S
C1 N2 1.379 . S
C1 C4 1.416 . S
C1 C8 1.424 . S
N2 C1 1.379 . S
N2 C5 1.334 . S
N2 Tb11 2.617 . S
C3 C5 1.390 . S
C3 C6 1.339 . S
C3 H23 0.930 . S
C4 C1 1.416 . S
C4 C6 1.416 . S
C4 C10 1.448 . S
C5 N2 1.334 . S
C5 C3 1.390 . S
C5 H16 0.930 . S
C6 C3 1.339 . S
C6 C4 1.416 . S
C6 H27 0.930 . S
C7 C8 1.413 . S
C7 C9 1.427 . S
C7 C13 1.416 . S
C8 C1 1.424 . S
C8 C7 1.413 . S
C8 N12 1.361 . S
C9 C7 1.427 . S
C9 C10 1.328 . S
C9 H24 0.929 . S
C10 C4 1.448 . S
C10 C9 1.328 . S
C10 H25 0.930 . S
Tb11 N2 2.617 . S
Tb11 N12 2.572 . S
Tb11 O46 2.349 . S
Tb11 O49 2.393 . S
Tb11 O50 2.465 . S
Tb11 O51 2.387 . S
Tb11 O53 2.428 . S
Tb11 O54 2.308 . S
Tb11 C75 2.802 . S
N12 C8 1.361 . S
N12 Tb11 2.572 . S
N12 C14 1.340 . S
C13 C7 1.416 . S
C13 C15 1.332 . S
C13 H21 0.931 . S
C14 N12 1.340 . S
C14 C15 1.407 . S
C14 H20 0.930 . S
C15 C13 1.332 . S
C15 C14 1.407 . S
C15 H17 0.929 . S
H16 C5 0.930 . S
H17 C15 0.929 . S
H18 C33 0.930 . S
H19 C40 0.929 . S
H20 C14 0.930 . S
H21 C13 0.931 . S
H22 C36 0.930 . S
H23 C3 0.930 . S
H24 C9 0.929 . S
H25 C10 0.930 . S
H26 C31 0.930 . S
H27 C6 0.930 . S
H28 C39 0.931 . S
N29 Tb0 2.617 . S
N29 C30 1.379 . S
N29 C33 1.334 . S
C30 N29 1.379 . S
C30 C32 1.416 . S
C30 C38 1.424 . S
C31 H26 0.930 . S
C31 C33 1.390 . S
C31 C34 1.339 . S
C32 C30 1.416 . S
C32 C34 1.416 . S
C32 C65 1.448 . S
C33 H18 0.930 . S
C33 N29 1.334 . S
C33 C31 1.390 . S
C34 C31 1.339 . S
C34 C32 1.416 . S
C34 H41 0.930 . S
N35 Tb0 2.572 . S
N35 C36 1.340 . S
N35 C38 1.361 . S
C36 H22 0.930 . S
C36 N35 1.340 . S
C36 C40 1.407 . S
C37 C38 1.413 . S
C37 C39 1.416 . S
C37 C66 1.427 . S
C38 C30 1.424 . S
C38 N35 1.361 . S
C38 C37 1.413 . S
C39 H28 0.931 . S
C39 C37 1.416 . S
C39 C40 1.332 . S
C40 H19 0.929 . S
C40 C36 1.407 . S
C40 C39 1.332 . S
H41 C34 0.930 . S
H42 C65 0.930 . S
H43 C66 0.929 . S
O44 Tb0 2.465 . S
O44 C64 1.264 . S
O45 Tb0 2.387 . S
O45 C56 1.264 . S
O46 Tb11 2.349 . S
O46 C56 1.243 . S
O47 Tb0 2.428 . S
O47 C64 1.256 . S
O48 Tb0 2.308 . S
O48 C63 1.266 . S
O49 Tb11 2.393 . S
O49 C63 1.248 . S
O50 Tb11 2.465 . S
O50 C75 1.264 . S
O51 Tb11 2.387 . S
O51 C67 1.264 . S
O52 Tb0 2.349 . S
O52 C67 1.243 . S
O53 Tb11 2.428 . S
O53 C75 1.256 . S
O54 Tb11 2.308 . S
O54 C74 1.266 . S
O55 Tb0 2.393 . S
O55 C74 1.248 . S
C56 O45 1.264 . S
C56 O46 1.243 . S
C57 C60 1.399 . S
C57 C62 1.383 . S
C57 C64 1.496 . S
C58 C59 1.399 . S
C58 C62 1.389 . S
C59 C58 1.399 . S
C59 C61 1.380 . S
C59 H76 0.929 . S
C60 C57 1.399 . S
C60 C61 1.392 . S
C60 H77 0.929 . S
C61 C59 1.380 . S
C61 C60 1.392 . S
C61 H78 0.929 . S
C62 C57 1.383 . S
C62 C58 1.389 . S
C62 H79 0.931 . S
C63 O48 1.266 . S
C63 O49 1.248 . S
C64 Tb0 2.802 . S
C64 O44 1.264 . S
C64 O47 1.256 . S
C64 C57 1.496 . S
C65 C32 1.448 . S
C65 H42 0.930 . S
C65 C66 1.328 . S
C66 C37 1.427 . S
C66 H43 0.929 . S
C66 C65 1.328 . S
C67 O51 1.264 . S
C67 O52 1.243 . S
C68 C71 1.399 . S
C68 C72 1.383 . S
C68 C75 1.496 . S
C69 C70 1.399 . S
C69 C72 1.389 . S
C70 C69 1.399 . S
C70 C73 1.380 . S
C70 H80 0.929 . S
C71 C68 1.399 . S
C71 C73 1.392 . S
C71 H81 0.929 . S
C72 C68 1.383 . S
C72 C69 1.389 . S
C72 H82 0.931 . S
C73 C70 1.380 . S
C73 C71 1.392 . S
C73 H83 0.929 . S
C74 O54 1.266 . S
C74 O55 1.248 . S
C75 Tb11 2.802 . S
C75 O50 1.264 . S
C75 O53 1.256 . S
C75 C68 1.496 . S
H76 C59 0.929 . S
H77 C60 0.929 . S
H78 C61 0.929 . S
H79 C62 0.931 . S
H80 C70 0.929 . S
H81 C71 0.929 . S
H82 C72 0.931 . S
H83 C73 0.929 . S
Tb84 N113 2.617 . S
Tb84 N119 2.572 . S
Tb84 O128 2.465 . S
Tb84 O129 2.387 . S
Tb84 O131 2.428 . S
Tb84 O132 2.308 . S
Tb84 O136 2.349 . S
Tb84 O139 2.393 . S
Tb84 C148 2.802 . S
C85 N86 1.379 . S
C85 C88 1.416 . S
C85 C92 1.424 1_545 S
N86 C85 1.379 . S
N86 C89 1.334 1_655 S
N86 Tb95 2.617 1_645 S
C87 C89 1.390 . S
C87 C90 1.339 1_455 S
C87 H107 0.930 . S
C88 C85 1.416 . S
C88 C90 1.416 . S
C88 C94 1.448 . S
C89 N86 1.334 1_455 S
C89 C87 1.390 . S
C89 H100 0.930 . S
C90 C87 1.339 1_655 S
C90 C88 1.416 . S
C90 H111 0.930 . S
C91 C92 1.413 1_545 S
C91 C93 1.427 . S
C91 C97 1.416 1_545 S
C92 C85 1.424 1_565 S
C92 C91 1.413 1_565 S
C92 N96 1.361 . S
C93 C91 1.427 . S
C93 C94 1.328 . S
C93 H108 0.929 . S
C94 C88 1.448 . S
C94 C93 1.328 . S
C94 H109 0.930 . S
Tb95 N86 2.617 1_465 S
Tb95 N96 2.572 1_455 S
Tb95 O130 2.349 . S
Tb95 O133 2.393 . S
Tb95 O134 2.465 1_455 S
Tb95 O135 2.387 . S
Tb95 O137 2.428 1_455 S
Tb95 O138 2.308 . S
Tb95 C159 2.802 1_455 S
N96 C92 1.361 . S
N96 Tb95 2.572 1_655 S
N96 C98 1.340 . S
C97 C91 1.416 1_565 S
C97 C99 1.332 . S
C97 H105 0.931 . S
C98 N96 1.340 . S
C98 C99 1.407 . S
C98 H104 0.930 . S
C99 C97 1.332 . S
C99 C98 1.407 . S
C99 H101 0.929 . S
H100 C89 0.930 . S
H101 C99 0.929 . S
H102 C117 0.930 . S
H103 C124 0.929 . S
H104 C98 0.930 . S
H105 C97 0.931 . S
H106 C120 0.930 . S
H107 C87 0.930 . S
H108 C93 0.929 . S
H109 C94 0.930 . S
H110 C115 0.930 . S
H111 C90 0.930 . S
H112 C123 0.931 . S
N113 Tb84 2.617 . S
N113 C114 1.379 . S
N113 C117 1.334 . S
C114 N113 1.379 . S
C114 C116 1.416 . S
C114 C122 1.424 . S
C115 H110 0.930 . S
C115 C117 1.390 . S
C115 C118 1.339 . S
C116 C114 1.416 . S
C116 C118 1.416 . S
C116 C149 1.448 . S
C117 H102 0.930 . S
C117 N113 1.334 . S
C117 C115 1.390 . S
C118 C115 1.339 . S
C118 C116 1.416 . S
C118 H125 0.930 . S
N119 Tb84 2.572 . S
N119 C120 1.340 . S
N119 C122 1.361 . S
C120 H106 0.930 . S
C120 N119 1.340 . S
C120 C124 1.407 . S
C121 C122 1.413 . S
C121 C123 1.416 . S
C121 C150 1.427 . S
C122 C114 1.424 . S
C122 N119 1.361 . S
C122 C121 1.413 . S
C123 H112 0.931 . S
C123 C121 1.416 . S
C123 C124 1.332 . S
C124 H103 0.929 . S
C124 C120 1.407 . S
C124 C123 1.332 . S
H125 C118 0.930 . S
H126 C149 0.930 . S
H127 C150 0.929 . S
O128 Tb84 2.465 . S
O128 C148 1.264 . S
O129 Tb84 2.387 . S
O129 C140 1.264 . S
O130 Tb95 2.349 . S
O130 C140 1.243 . S
O131 Tb84 2.428 . S
O131 C148 1.256 . S
O132 Tb84 2.308 . S
O132 C147 1.266 . S
O133 Tb95 2.393 . S
O133 C147 1.248 . S
O134 Tb95 2.465 1_655 S
O134 C159 1.264 . S
O135 Tb95 2.387 . S
O135 C151 1.264 . S
O136 Tb84 2.349 . S
O136 C151 1.243 . S
O137 Tb95 2.428 1_655 S
O137 C159 1.256 . S
O138 Tb95 2.308 . S
O138 C158 1.266 . S
O139 Tb84 2.393 . S
O139 C158 1.248 . S
C140 O129 1.264 . S
C140 O130 1.243 . S
C141 C144 1.399 . S
C141 C146 1.383 . S
C141 C148 1.496 . S
C142 C143 1.399 . S
C142 C146 1.389 . S
C143 C142 1.399 . S
C143 C145 1.380 . S
C143 H160 0.929 . S
C144 C141 1.399 . S
C144 C145 1.392 . S
C144 H161 0.929 . S
C145 C143 1.380 . S
C145 C144 1.392 . S
C145 H162 0.929 . S
C146 C141 1.383 . S
C146 C142 1.389 . S
C146 H163 0.931 . S
C147 O132 1.266 . S
C147 O133 1.248 . S
C148 Tb84 2.802 . S
C148 O128 1.264 . S
C148 O131 1.256 . S
C148 C141 1.496 . S
C149 C116 1.448 . S
C149 H126 0.930 . S
C149 C150 1.328 . S
C150 C121 1.427 . S
C150 H127 0.929 . S
C150 C149 1.328 . S
C151 O135 1.264 . S
C151 O136 1.243 . S
C152 C155 1.399 . S
C152 C156 1.383 . S
C152 C159 1.496 . S
C153 C154 1.399 . S
C153 C156 1.389 . S
C154 C153 1.399 . S
C154 C157 1.380 . S
C154 H164 0.929 . S
C155 C152 1.399 . S
C155 C157 1.392 . S
C155 H165 0.929 . S
C156 C152 1.383 . S
C156 C153 1.389 . S
C156 H166 0.931 . S
C157 C154 1.380 . S
C157 C155 1.392 . S
C157 H167 0.929 . S
C158 O138 1.266 . S
C158 O139 1.248 . S
C159 Tb95 2.802 1_655 S
C159 O134 1.264 . S
C159 O137 1.256 . S
C159 C152 1.496 . S
H160 C143 0.929 . S
H161 C144 0.929 . S
H162 C145 0.929 . S
H163 C146 0.931 . S
H164 C154 0.929 . S
H165 C155 0.929 . S
H166 C156 0.931 . S
H167 C157 0.929 . S
Tb168 N197 2.617 . S
Tb168 N203 2.572 . S
Tb168 O212 2.465 . S
Tb168 O213 2.387 . S
Tb168 O215 2.428 . S
Tb168 O216 2.308 . S
Tb168 O220 2.349 . S
Tb168 O223 2.393 . S
Tb168 C232 2.802 . S
C169 N170 1.379 . S
C169 C172 1.416 . S
C169 C176 1.424 . S
N170 C169 1.379 . S
N170 C173 1.334 . S
N170 Tb179 2.617 . S
C171 C173 1.390 . S
C171 C174 1.339 . S
C171 H191 0.930 . S
C172 C169 1.416 . S
C172 C174 1.416 . S
C172 C178 1.448 . S
C173 N170 1.334 . S
C173 C171 1.390 . S
C173 H184 0.930 . S
C174 C171 1.339 . S
C174 C172 1.416 . S
C174 H195 0.930 . S
C175 C176 1.413 . S
C175 C177 1.427 . S
C175 C181 1.416 . S
C176 C169 1.424 . S
C176 C175 1.413 . S
C176 N180 1.361 . S
C177 C175 1.427 . S
C177 C178 1.328 . S
C177 H192 0.929 . S
C178 C172 1.448 . S
C178 C177 1.328 . S
C178 H193 0.930 . S
Tb179 N170 2.617 . S
Tb179 N180 2.572 . S
Tb179 O214 2.349 . S
Tb179 O217 2.393 . S
Tb179 O218 2.465 . S
Tb179 O219 2.387 . S
Tb179 O221 2.428 . S
Tb179 O222 2.308 . S
Tb179 C243 2.802 . S
N180 C176 1.361 . S
N180 Tb179 2.572 . S
N180 C182 1.340 . S
C181 C175 1.416 . S
C181 C183 1.332 . S
C181 H189 0.931 . S
C182 N180 1.340 . S
C182 C183 1.407 . S
C182 H188 0.930 . S
C183 C181 1.332 . S
C183 C182 1.407 . S
C183 H185 0.929 . S
H184 C173 0.930 . S
H185 C183 0.929 . S
H186 C201 0.930 . S
H187 C208 0.929 . S
H188 C182 0.930 . S
H189 C181 0.931 . S
H190 C204 0.930 . S
H191 C171 0.930 . S
H192 C177 0.929 . S
H193 C178 0.930 . S
H194 C199 0.930 . S
H195 C174 0.930 . S
H196 C207 0.931 . S
N197 Tb168 2.617 . S
N197 C198 1.379 . S
N197 C201 1.334 . S
C198 N197 1.379 . S
C198 C200 1.416 . S
C198 C206 1.424 . S
C199 H194 0.930 . S
C199 C201 1.390 . S
C199 C202 1.339 . S
C200 C198 1.416 . S
C200 C202 1.416 . S
C200 C233 1.448 . S
C201 H186 0.930 . S
C201 N197 1.334 . S
C201 C199 1.390 . S
C202 C199 1.339 . S
C202 C200 1.416 . S
C202 H209 0.930 . S
N203 Tb168 2.572 . S
N203 C204 1.340 . S
N203 C206 1.361 . S
C204 H190 0.930 . S
C204 N203 1.340 . S
C204 C208 1.407 . S
C205 C206 1.413 . S
C205 C207 1.416 . S
C205 C234 1.427 . S
C206 C198 1.424 . S
C206 N203 1.361 . S
C206 C205 1.413 . S
C207 H196 0.931 . S
C207 C205 1.416 . S
C207 C208 1.332 . S
C208 H187 0.929 . S
C208 C204 1.407 . S
C208 C207 1.332 . S
H209 C202 0.930 . S
H210 C233 0.930 . S
H211 C234 0.929 . S
O212 Tb168 2.465 . S
O212 C232 1.264 . S
O213 Tb168 2.387 . S
O213 C224 1.264 . S
O214 Tb179 2.349 . S
O214 C224 1.243 . S
O215 Tb168 2.428 . S
O215 C232 1.256 . S
O216 Tb168 2.308 . S
O216 C231 1.266 . S
O217 Tb179 2.393 . S
O217 C231 1.248 . S
O218 Tb179 2.465 . S
O218 C243 1.264 . S
O219 Tb179 2.387 . S
O219 C235 1.264 . S
O220 Tb168 2.349 . S
O220 C235 1.243 . S
O221 Tb179 2.428 . S
O221 C243 1.256 . S
O222 Tb179 2.308 . S
O222 C242 1.266 . S
O223 Tb168 2.393 . S
O223 C242 1.248 . S
C224 O213 1.264 . S
C224 O214 1.243 . S
C225 C228 1.399 . S
C225 C230 1.383 . S
C225 C232 1.496 . S
C226 C227 1.399 . S
C226 C230 1.389 . S
C227 C226 1.399 . S
C227 C229 1.380 . S
C227 H244 0.929 . S
C228 C225 1.399 . S
C228 C229 1.392 . S
C228 H245 0.929 . S
C229 C227 1.380 . S
C229 C228 1.392 . S
C229 H246 0.929 . S
C230 C225 1.383 . S
C230 C226 1.389 . S
C230 H247 0.931 . S
C231 O216 1.266 . S
C231 O217 1.248 . S
C232 Tb168 2.802 . S
C232 O212 1.264 . S
C232 O215 1.256 . S
C232 C225 1.496 . S
C233 C200 1.448 . S
C233 H210 0.930 . S
C233 C234 1.328 . S
C234 C205 1.427 . S
C234 H211 0.929 . S
C234 C233 1.328 . S
C235 O219 1.264 . S
C235 O220 1.243 . S
C236 C239 1.399 . S
C236 C240 1.383 . S
C236 C243 1.496 . S
C237 C238 1.399 . S
C237 C240 1.389 . S
C238 C237 1.399 . S
C238 C241 1.380 . S
C238 H248 0.929 . S
C239 C236 1.399 . S
C239 C241 1.392 . S
C239 H249 0.929 . S
C240 C236 1.383 . S
C240 C237 1.389 . S
C240 H250 0.931 . S
C241 C238 1.380 . S
C241 C239 1.392 . S
C241 H251 0.929 . S
C242 O222 1.266 . S
C242 O223 1.248 . S
C243 Tb179 2.802 . S
C243 O218 1.264 . S
C243 O221 1.256 . S
C243 C236 1.496 . S
H244 C227 0.929 . S
H245 C228 0.929 . S
H246 C229 0.929 . S
H247 C230 0.931 . S
H248 C238 0.929 . S
H249 C239 0.929 . S
H250 C240 0.931 . S
H251 C241 0.929 . S
Tb252 N281 2.617 . S
Tb252 N287 2.572 . S
Tb252 O296 2.465 . S
Tb252 O297 2.387 . S
Tb252 O299 2.428 . S
Tb252 O300 2.308 . S
Tb252 O304 2.349 . S
Tb252 O307 2.393 . S
Tb252 C316 2.802 . S
C253 N254 1.379 . S
C253 C256 1.416 . S
C253 C260 1.424 1_565 S
N254 C253 1.379 . S
N254 C257 1.334 . S
N254 Tb263 2.617 1_565 S
C255 C257 1.390 . S
C255 C258 1.339 . S
C255 H275 0.930 . S
C256 C253 1.416 . S
C256 C258 1.416 . S
C256 C262 1.448 . S
C257 N254 1.334 . S
C257 C255 1.390 . S
C257 H268 0.930 . S
C258 C255 1.339 . S
C258 C256 1.416 . S
C258 H279 0.930 . S
C259 C260 1.413 1_565 S
C259 C261 1.427 . S
C259 C265 1.416 1_565 S
C260 C253 1.424 1_545 S
C260 C259 1.413 1_545 S
C260 N264 1.361 . S
C261 C259 1.427 . S
C261 C262 1.328 . S
C261 H276 0.929 . S
C262 C256 1.448 . S
C262 C261 1.328 . S
C262 H277 0.930 . S
Tb263 N254 2.617 1_545 S
Tb263 N264 2.572 . S
Tb263 O298 2.349 . S
Tb263 O301 2.393 . S
Tb263 O302 2.465 . S
Tb263 O303 2.387 . S
Tb263 O305 2.428 . S
Tb263 O306 2.308 . S
Tb263 C327 2.802 . S
N264 C260 1.361 . S
N264 Tb263 2.572 . S
N264 C266 1.340 . S
C265 C259 1.416 1_545 S
C265 C267 1.332 . S
C265 H273 0.931 . S
C266 N264 1.340 . S
C266 C267 1.407 . S
C266 H272 0.930 . S
C267 C265 1.332 . S
C267 C266 1.407 . S
C267 H269 0.929 . S
H268 C257 0.930 . S
H269 C267 0.929 . S
H270 C285 0.930 . S
H271 C292 0.929 . S
H272 C266 0.930 . S
H273 C265 0.931 . S
H274 C288 0.930 . S
H275 C255 0.930 . S
H276 C261 0.929 . S
H277 C262 0.930 . S
H278 C283 0.930 . S
H279 C258 0.930 . S
H280 C291 0.931 . S
N281 Tb252 2.617 . S
N281 C282 1.379 . S
N281 C285 1.334 . S
C282 N281 1.379 . S
C282 C284 1.416 . S
C282 C290 1.424 . S
C283 H278 0.930 . S
C283 C285 1.390 . S
C283 C286 1.339 . S
C284 C282 1.416 . S
C284 C286 1.416 . S
C284 C317 1.448 . S
C285 H270 0.930 . S
C285 N281 1.334 . S
C285 C283 1.390 . S
C286 C283 1.339 . S
C286 C284 1.416 . S
C286 H293 0.930 . S
N287 Tb252 2.572 . S
N287 C288 1.340 . S
N287 C290 1.361 . S
C288 H274 0.930 . S
C288 N287 1.340 . S
C288 C292 1.407 . S
C289 C290 1.413 . S
C289 C291 1.416 . S
C289 C318 1.427 . S
C290 C282 1.424 . S
C290 N287 1.361 . S
C290 C289 1.413 . S
C291 H280 0.931 . S
C291 C289 1.416 . S
C291 C292 1.332 . S
C292 H271 0.929 . S
C292 C288 1.407 . S
C292 C291 1.332 . S
H293 C286 0.930 . S
H294 C317 0.930 . S
H295 C318 0.929 . S
O296 Tb252 2.465 . S
O296 C316 1.264 . S
O297 Tb252 2.387 . S
O297 C308 1.264 . S
O298 Tb263 2.349 . S
O298 C308 1.243 . S
O299 Tb252 2.428 . S
O299 C316 1.256 . S
O300 Tb252 2.308 . S
O300 C315 1.266 . S
O301 Tb263 2.393 . S
O301 C315 1.248 . S
O302 Tb263 2.465 . S
O302 C327 1.264 . S
O303 Tb263 2.387 . S
O303 C319 1.264 . S
O304 Tb252 2.349 . S
O304 C319 1.243 . S
O305 Tb263 2.428 . S
O305 C327 1.256 . S
O306 Tb263 2.308 . S
O306 C326 1.266 . S
O307 Tb252 2.393 . S
O307 C326 1.248 . S
C308 O297 1.264 . S
C308 O298 1.243 . S
C309 C312 1.399 . S
C309 C314 1.383 . S
C309 C316 1.496 . S
C310 C311 1.399 . S
C310 C314 1.389 . S
C311 C310 1.399 . S
C311 C313 1.380 . S
C311 H328 0.929 . S
C312 C309 1.399 . S
C312 C313 1.392 . S
C312 H329 0.929 . S
C313 C311 1.380 . S
C313 C312 1.392 . S
C313 H330 0.929 . S
C314 C309 1.383 . S
C314 C310 1.389 . S
C314 H331 0.931 . S
C315 O300 1.266 . S
C315 O301 1.248 . S
C316 Tb252 2.802 . S
C316 O296 1.264 . S
C316 O299 1.256 . S
C316 C309 1.496 . S
C317 C284 1.448 . S
C317 H294 0.930 . S
C317 C318 1.328 . S
C318 C289 1.427 . S
C318 H295 0.929 . S
C318 C317 1.328 . S
C319 O303 1.264 . S
C319 O304 1.243 . S
C320 C323 1.399 . S
C320 C324 1.383 . S
C320 C327 1.496 . S
C321 C322 1.399 . S
C321 C324 1.389 . S
C322 C321 1.399 . S
C322 C325 1.380 . S
C322 H332 0.929 . S
C323 C320 1.399 . S
C323 C325 1.392 . S
C323 H333 0.929 . S
C324 C320 1.383 . S
C324 C321 1.389 . S
C324 H334 0.931 . S
C325 C322 1.380 . S
C325 C323 1.392 . S
C325 H335 0.929 . S
C326 O306 1.266 . S
C326 O307 1.248 . S
C327 Tb263 2.802 . S
C327 O302 1.264 . S
C327 O305 1.256 . S
C327 C320 1.496 . S
H328 C311 0.929 . S
H329 C312 0.929 . S
H330 C313 0.929 . S
H331 C314 0.931 . S
H332 C322 0.929 . S
H333 C323 0.929 . S
H334 C324 0.931 . S
H335 C325 0.929 . S
Tb336 N365 2.617 . S
Tb336 N371 2.572 . S
Tb336 O380 2.465 . S
Tb336 O381 2.387 . S
Tb336 O383 2.428 . S
Tb336 O384 2.308 . S
Tb336 O388 2.349 . S
Tb336 O391 2.393 . S
Tb336 C400 2.802 . S
C337 N338 1.379 . S
C337 C340 1.416 . S
C337 C344 1.424 . S
N338 C337 1.379 . S
N338 C341 1.334 . S
N338 Tb347 2.617 . S
C339 C341 1.390 . S
C339 C342 1.339 . S
C339 H359 0.930 . S
C340 C337 1.416 . S
C340 C342 1.416 . S
C340 C346 1.448 . S
C341 N338 1.334 . S
C341 C339 1.390 . S
C341 H352 0.930 . S
C342 C339 1.339 . S
C342 C340 1.416 . S
C342 H363 0.930 . S
C343 C344 1.413 . S
C343 C345 1.427 . S
C343 C349 1.416 . S
C344 C337 1.424 . S
C344 C343 1.413 . S
C344 N348 1.361 . S
C345 C343 1.427 . S
C345 C346 1.328 . S
C345 H360 0.929 . S
C346 C340 1.448 . S
C346 C345 1.328 . S
C346 H361 0.930 . S
Tb347 N338 2.617 . S
Tb347 N348 2.572 . S
Tb347 O382 2.349 . S
Tb347 O385 2.393 . S
Tb347 O386 2.465 . S
Tb347 O387 2.387 . S
Tb347 O389 2.428 . S
Tb347 O390 2.308 . S
Tb347 C411 2.802 . S
N348 C344 1.361 . S
N348 Tb347 2.572 . S
N348 C350 1.340 . S
C349 C343 1.416 . S
C349 C351 1.332 . S
C349 H357 0.931 . S
C350 N348 1.340 . S
C350 C351 1.407 . S
C350 H356 0.930 . S
C351 C349 1.332 . S
C351 C350 1.407 . S
C351 H353 0.929 . S
H352 C341 0.930 . S
H353 C351 0.929 . S
H354 C369 0.930 . S
H355 C376 0.929 . S
H356 C350 0.930 . S
H357 C349 0.931 . S
H358 C372 0.930 . S
H359 C339 0.930 . S
H360 C345 0.929 . S
H361 C346 0.930 . S
H362 C367 0.930 . S
H363 C342 0.930 . S
H364 C375 0.931 . S
N365 Tb336 2.617 . S
N365 C366 1.379 . S
N365 C369 1.334 . S
C366 N365 1.379 . S
C366 C368 1.416 . S
C366 C374 1.424 . S
C367 H362 0.930 . S
C367 C369 1.390 . S
C367 C370 1.339 . S
C368 C366 1.416 . S
C368 C370 1.416 . S
C368 C401 1.448 . S
C369 H354 0.930 . S
C369 N365 1.334 . S
C369 C367 1.390 . S
C370 C367 1.339 . S
C370 C368 1.416 . S
C370 H377 0.930 . S
N371 Tb336 2.572 . S
N371 C372 1.340 . S
N371 C374 1.361 . S
C372 H358 0.930 . S
C372 N371 1.340 . S
C372 C376 1.407 . S
C373 C374 1.413 . S
C373 C375 1.416 . S
C373 C402 1.427 . S
C374 C366 1.424 . S
C374 N371 1.361 . S
C374 C373 1.413 . S
C375 H364 0.931 . S
C375 C373 1.416 . S
C375 C376 1.332 . S
C376 H355 0.929 . S
C376 C372 1.407 . S
C376 C375 1.332 . S
H377 C370 0.930 . S
H378 C401 0.930 . S
H379 C402 0.929 . S
O380 Tb336 2.465 . S
O380 C400 1.264 . S
O381 Tb336 2.387 . S
O381 C392 1.264 . S
O382 Tb347 2.349 . S
O382 C392 1.243 . S
O383 Tb336 2.428 . S
O383 C400 1.256 . S
O384 Tb336 2.308 . S
O384 C399 1.266 . S
O385 Tb347 2.393 . S
O385 C399 1.248 . S
O386 Tb347 2.465 . S
O386 C411 1.264 . S
O387 Tb347 2.387 . S
O387 C403 1.264 . S
O388 Tb336 2.349 . S
O388 C403 1.243 . S
O389 Tb347 2.428 . S
O389 C411 1.256 . S
O390 Tb347 2.308 . S
O390 C410 1.266 . S
O391 Tb336 2.393 . S
O391 C410 1.248 . S
C392 O381 1.264 . S
C392 O382 1.243 . S
C393 C396 1.399 . S
C393 C398 1.383 . S
C393 C400 1.496 . S
C394 C395 1.399 . S
C394 C398 1.389 . S
C395 C394 1.399 . S
C395 C397 1.380 . S
C395 H412 0.929 . S
C396 C393 1.399 . S
C396 C397 1.392 . S
C396 H413 0.929 . S
C397 C395 1.380 . S
C397 C396 1.392 . S
C397 H414 0.929 . S
C398 C393 1.383 . S
C398 C394 1.389 . S
C398 H415 0.931 . S
C399 O384 1.266 . S
C399 O385 1.248 . S
C400 Tb336 2.802 . S
C400 O380 1.264 . S
C400 O383 1.256 . S
C400 C393 1.496 . S
C401 C368 1.448 . S
C401 H378 0.930 . S
C401 C402 1.328 . S
C402 C373 1.427 . S
C402 H379 0.929 . S
C402 C401 1.328 . S
C403 O387 1.264 . S
C403 O388 1.243 . S
C404 C407 1.399 . S
C404 C408 1.383 . S
C404 C411 1.496 . S
C405 C406 1.399 . S
C405 C408 1.389 . S
C406 C405 1.399 . S
C406 C409 1.380 . S
C406 H416 0.929 . S
C407 C404 1.399 . S
C407 C409 1.392 . S
C407 H417 0.929 . S
C408 C404 1.383 . S
C408 C405 1.389 . S
C408 H418 0.931 . S
C409 C406 1.380 . S
C409 C407 1.392 . S
C409 H419 0.929 . S
C410 O390 1.266 . S
C410 O391 1.248 . S
C411 Tb347 2.802 . S
C411 O386 1.264 . S
C411 O389 1.256 . S
C411 C404 1.496 . S
H412 C395 0.929 . S
H413 C396 0.929 . S
H414 C397 0.929 . S
H415 C398 0.931 . S
H416 C406 0.929 . S
H417 C407 0.929 . S
H418 C408 0.931 . S
H419 C409 0.929 . S
Tb420 N449 2.617 . S
Tb420 N455 2.572 . S
Tb420 O464 2.465 . S
Tb420 O465 2.387 . S
Tb420 O467 2.428 . S
Tb420 O468 2.308 . S
Tb420 O472 2.349 . S
Tb420 O475 2.393 . S
Tb420 C484 2.802 . S
C421 N422 1.379 . S
C421 C424 1.416 . S
C421 C428 1.424 1_545 S
N422 C421 1.379 . S
N422 C425 1.334 . S
N422 Tb431 2.617 1_545 S
C423 C425 1.390 . S
C423 C426 1.339 . S
C423 H443 0.930 . S
C424 C421 1.416 . S
C424 C426 1.416 . S
C424 C430 1.448 . S
C425 N422 1.334 . S
C425 C423 1.390 . S
C425 H436 0.930 . S
C426 C423 1.339 . S
C426 C424 1.416 . S
C426 H447 0.930 . S
C427 C428 1.413 1_545 S
C427 C429 1.427 . S
C427 C433 1.416 1_545 S
C428 C421 1.424 1_565 S
C428 C427 1.413 1_565 S
C428 N432 1.361 . S
C429 C427 1.427 . S
C429 C430 1.328 . S
C429 H444 0.929 . S
C430 C424 1.448 . S
C430 C429 1.328 . S
C430 H445 0.930 . S
Tb431 N422 2.617 1_565 S
Tb431 N432 2.572 . S
Tb431 O466 2.349 . S
Tb431 O469 2.393 . S
Tb431 O470 2.465 . S
Tb431 O471 2.387 . S
Tb431 O473 2.428 . S
Tb431 O474 2.308 . S
Tb431 C495 2.802 . S
N432 C428 1.361 . S
N432 Tb431 2.572 . S
N432 C434 1.340 . S
C433 C427 1.416 1_565 S
C433 C435 1.332 . S
C433 H441 0.931 . S
C434 N432 1.340 . S
C434 C435 1.407 . S
C434 H440 0.930 . S
C435 C433 1.332 . S
C435 C434 1.407 . S
C435 H437 0.929 . S
H436 C425 0.930 . S
H437 C435 0.929 . S
H438 C453 0.930 . S
H439 C460 0.929 . S
H440 C434 0.930 . S
H441 C433 0.931 . S
H442 C456 0.930 . S
H443 C423 0.930 . S
H444 C429 0.929 . S
H445 C430 0.930 . S
H446 C451 0.930 . S
H447 C426 0.930 . S
H448 C459 0.931 . S
N449 Tb420 2.617 . S
N449 C450 1.379 . S
N449 C453 1.334 . S
C450 N449 1.379 . S
C450 C452 1.416 . S
C450 C458 1.424 . S
C451 H446 0.930 . S
C451 C453 1.390 . S
C451 C454 1.339 . S
C452 C450 1.416 . S
C452 C454 1.416 . S
C452 C485 1.448 . S
C453 H438 0.930 . S
C453 N449 1.334 . S
C453 C451 1.390 . S
C454 C451 1.339 . S
C454 C452 1.416 . S
C454 H461 0.930 . S
N455 Tb420 2.572 . S
N455 C456 1.340 . S
N455 C458 1.361 . S
C456 H442 0.930 . S
C456 N455 1.340 . S
C456 C460 1.407 . S
C457 C458 1.413 . S
C457 C459 1.416 . S
C457 C486 1.427 . S
C458 C450 1.424 . S
C458 N455 1.361 . S
C458 C457 1.413 . S
C459 H448 0.931 . S
C459 C457 1.416 . S
C459 C460 1.332 . S
C460 H439 0.929 . S
C460 C456 1.407 . S
C460 C459 1.332 . S
H461 C454 0.930 . S
H462 C485 0.930 . S
H463 C486 0.929 . S
O464 Tb420 2.465 . S
O464 C484 1.264 . S
O465 Tb420 2.387 . S
O465 C476 1.264 . S
O466 Tb431 2.349 . S
O466 C476 1.243 . S
O467 Tb420 2.428 . S
O467 C484 1.256 . S
O468 Tb420 2.308 . S
O468 C483 1.266 . S
O469 Tb431 2.393 . S
O469 C483 1.248 . S
O470 Tb431 2.465 . S
O470 C495 1.264 . S
O471 Tb431 2.387 . S
O471 C487 1.264 . S
O472 Tb420 2.349 . S
O472 C487 1.243 . S
O473 Tb431 2.428 . S
O473 C495 1.256 . S
O474 Tb431 2.308 . S
O474 C494 1.266 . S
O475 Tb420 2.393 . S
O475 C494 1.248 . S
C476 O465 1.264 . S
C476 O466 1.243 . S
C477 C480 1.399 . S
C477 C482 1.383 . S
C477 C484 1.496 . S
C478 C479 1.399 . S
C478 C482 1.389 . S
C479 C478 1.399 . S
C479 C481 1.380 . S
C479 H496 0.929 . S
C480 C477 1.399 . S
C480 C481 1.392 . S
C480 H497 0.929 . S
C481 C479 1.380 . S
C481 C480 1.392 . S
C481 H498 0.929 . S
C482 C477 1.383 . S
C482 C478 1.389 . S
C482 H499 0.931 . S
C483 O468 1.266 . S
C483 O469 1.248 . S
C484 Tb420 2.802 . S
C484 O464 1.264 . S
C484 O467 1.256 . S
C484 C477 1.496 . S
C485 C452 1.448 . S
C485 H462 0.930 . S
C485 C486 1.328 . S
C486 C457 1.427 . S
C486 H463 0.929 . S
C486 C485 1.328 . S
C487 O471 1.264 . S
C487 O472 1.243 . S
C488 C491 1.399 . S
C488 C492 1.383 . S
C488 C495 1.496 . S
C489 C490 1.399 . S
C489 C492 1.389 . S
C490 C489 1.399 . S
C490 C493 1.380 . S
C490 H500 0.929 . S
C491 C488 1.399 . S
C491 C493 1.392 . S
C491 H501 0.929 . S
C492 C488 1.383 . S
C492 C489 1.389 . S
C492 H502 0.931 . S
C493 C490 1.380 . S
C493 C491 1.392 . S
C493 H503 0.929 . S
C494 O474 1.266 . S
C494 O475 1.248 . S
C495 Tb431 2.802 . S
C495 O470 1.264 . S
C495 O473 1.256 . S
C495 C488 1.496 . S
H496 C479 0.929 . S
H497 C480 0.929 . S
H498 C481 0.929 . S
H499 C482 0.931 . S
H500 C490 0.929 . S
H501 C491 0.929 . S
H502 C492 0.931 . S
H503 C493 0.929 . S
Tb504 N533 2.617 . S
Tb504 N539 2.572 . S
Tb504 O548 2.465 . S
Tb504 O549 2.387 . S
Tb504 O551 2.428 . S
Tb504 O552 2.308 . S
Tb504 O556 2.349 . S
Tb504 O559 2.393 . S
Tb504 C568 2.802 . S
C505 N506 1.379 . S
C505 C508 1.416 . S
C505 C512 1.424 . S
N506 C505 1.379 . S
N506 C509 1.334 . S
N506 Tb515 2.617 . S
C507 C509 1.390 . S
C507 C510 1.339 . S
C507 H527 0.930 . S
C508 C505 1.416 . S
C508 C510 1.416 . S
C508 C514 1.448 . S
C509 N506 1.334 . S
C509 C507 1.390 . S
C509 H520 0.930 . S
C510 C507 1.339 . S
C510 C508 1.416 . S
C510 H531 0.930 . S
C511 C512 1.413 . S
C511 C513 1.427 . S
C511 C517 1.416 . S
C512 C505 1.424 . S
C512 C511 1.413 . S
C512 N516 1.361 . S
C513 C511 1.427 . S
C513 C514 1.328 . S
C513 H528 0.929 . S
C514 C508 1.448 . S
C514 C513 1.328 . S
C514 H529 0.930 . S
Tb515 N506 2.617 . S
Tb515 N516 2.572 . S
Tb515 O550 2.349 . S
Tb515 O553 2.393 . S
Tb515 O554 2.465 . S
Tb515 O555 2.387 . S
Tb515 O557 2.428 . S
Tb515 O558 2.308 . S
Tb515 C579 2.802 . S
N516 C512 1.361 . S
N516 Tb515 2.572 . S
N516 C518 1.340 . S
C517 C511 1.416 . S
C517 C519 1.332 . S
C517 H525 0.931 . S
C518 N516 1.340 . S
C518 C519 1.407 . S
C518 H524 0.930 . S
C519 C517 1.332 . S
C519 C518 1.407 . S
C519 H521 0.929 . S
H520 C509 0.930 . S
H521 C519 0.929 . S
H522 C537 0.930 . S
H523 C544 0.929 . S
H524 C518 0.930 . S
H525 C517 0.931 . S
H526 C540 0.930 . S
H527 C507 0.930 . S
H528 C513 0.929 . S
H529 C514 0.930 . S
H530 C535 0.930 . S
H531 C510 0.930 . S
H532 C543 0.931 . S
N533 Tb504 2.617 . S
N533 C534 1.379 . S
N533 C537 1.334 . S
C534 N533 1.379 . S
C534 C536 1.416 . S
C534 C542 1.424 . S
C535 H530 0.930 . S
C535 C537 1.390 . S
C535 C538 1.339 . S
C536 C534 1.416 . S
C536 C538 1.416 . S
C536 C569 1.448 . S
C537 H522 0.930 . S
C537 N533 1.334 . S
C537 C535 1.390 . S
C538 C535 1.339 . S
C538 C536 1.416 . S
C538 H545 0.930 . S
N539 Tb504 2.572 . S
N539 C540 1.340 . S
N539 C542 1.361 . S
C540 H526 0.930 . S
C540 N539 1.340 . S
C540 C544 1.407 . S
C541 C542 1.413 . S
C541 C543 1.416 . S
C541 C570 1.427 . S
C542 C534 1.424 . S
C542 N539 1.361 . S
C542 C541 1.413 . S
C543 H532 0.931 . S
C543 C541 1.416 . S
C543 C544 1.332 . S
C544 H523 0.929 . S
C544 C540 1.407 . S
C544 C543 1.332 . S
H545 C538 0.930 . S
H546 C569 0.930 . S
H547 C570 0.929 . S
O548 Tb504 2.465 . S
O548 C568 1.264 . S
O549 Tb504 2.387 . S
O549 C560 1.264 . S
O550 Tb515 2.349 . S
O550 C560 1.243 . S
O551 Tb504 2.428 . S
O551 C568 1.256 . S
O552 Tb504 2.308 . S
O552 C567 1.266 . S
O553 Tb515 2.393 . S
O553 C567 1.248 . S
O554 Tb515 2.465 . S
O554 C579 1.264 . S
O555 Tb515 2.387 . S
O555 C571 1.264 . S
O556 Tb504 2.349 . S
O556 C571 1.243 . S
O557 Tb515 2.428 . S
O557 C579 1.256 . S
O558 Tb515 2.308 . S
O558 C578 1.266 . S
O559 Tb504 2.393 . S
O559 C578 1.248 . S
C560 O549 1.264 . S
C560 O550 1.243 . S
C561 C564 1.399 . S
C561 C566 1.383 . S
C561 C568 1.496 . S
C562 C563 1.399 . S
C562 C566 1.389 . S
C563 C562 1.399 . S
C563 C565 1.380 . S
C563 H580 0.929 . S
C564 C561 1.399 . S
C564 C565 1.392 . S
C564 H581 0.929 . S
C565 C563 1.380 . S
C565 C564 1.392 . S
C565 H582 0.929 . S
C566 C561 1.383 . S
C566 C562 1.389 . S
C566 H583 0.931 . S
C567 O552 1.266 . S
C567 O553 1.248 . S
C568 Tb504 2.802 . S
C568 O548 1.264 . S
C568 O551 1.256 . S
C568 C561 1.496 . S
C569 C536 1.448 . S
C569 H546 0.930 . S
C569 C570 1.328 . S
C570 C541 1.427 . S
C570 H547 0.929 . S
C570 C569 1.328 . S
C571 O555 1.264 . S
C571 O556 1.243 . S
C572 C575 1.399 . S
C572 C576 1.383 . S
C572 C579 1.496 . S
C573 C574 1.399 . S
C573 C576 1.389 . S
C574 C573 1.399 . S
C574 C577 1.380 . S
C574 H584 0.929 . S
C575 C572 1.399 . S
C575 C577 1.392 . S
C575 H585 0.929 . S
C576 C572 1.383 . S
C576 C573 1.389 . S
C576 H586 0.931 . S
C577 C574 1.380 . S
C577 C575 1.392 . S
C577 H587 0.929 . S
C578 O558 1.266 . S
C578 O559 1.248 . S
C579 Tb515 2.802 . S
C579 O554 1.264 . S
C579 O557 1.256 . S
C579 C572 1.496 . S
H580 C563 0.929 . S
H581 C564 0.929 . S
H582 C565 0.929 . S
H583 C566 0.931 . S
H584 C574 0.929 . S
H585 C575 0.929 . S
H586 C576 0.931 . S
H587 C577 0.929 . S
Tb588 N617 2.617 . S
Tb588 N623 2.572 . S
Tb588 O632 2.465 . S
Tb588 O633 2.387 . S
Tb588 O635 2.428 . S
Tb588 O636 2.308 . S
Tb588 O640 2.349 . S
Tb588 O643 2.393 . S
Tb588 C652 2.802 . S
C589 N590 1.379 . S
C589 C592 1.416 . S
C589 C596 1.424 1_565 S
N590 C589 1.379 . S
N590 C593 1.334 1_655 S
N590 Tb599 2.617 1_665 S
C591 C593 1.390 . S
C591 C594 1.339 1_455 S
C591 H611 0.930 . S
C592 C589 1.416 . S
C592 C594 1.416 . S
C592 C598 1.448 . S
C593 N590 1.334 1_455 S
C593 C591 1.390 . S
C593 H604 0.930 . S
C594 C591 1.339 1_655 S
C594 C592 1.416 . S
C594 H615 0.930 . S
C595 C596 1.413 1_565 S
C595 C597 1.427 . S
C595 C601 1.416 1_565 S
C596 C589 1.424 1_545 S
C596 C595 1.413 1_545 S
C596 N600 1.361 . S
C597 C595 1.427 . S
C597 C598 1.328 . S
C597 H612 0.929 . S
C598 C592 1.448 . S
C598 C597 1.328 . S
C598 H613 0.930 . S
Tb599 N590 2.617 1_445 S
Tb599 N600 2.572 1_455 S
Tb599 O634 2.349 . S
Tb599 O637 2.393 . S
Tb599 O638 2.465 1_455 S
Tb599 O639 2.387 . S
Tb599 O641 2.428 1_455 S
Tb599 O642 2.308 . S
Tb599 C663 2.802 1_455 S
N600 C596 1.361 . S
N600 Tb599 2.572 1_655 S
N600 C602 1.340 . S
C601 C595 1.416 1_545 S
C601 C603 1.332 . S
C601 H609 0.931 . S
C602 N600 1.340 . S
C602 C603 1.407 . S
C602 H608 0.930 . S
C603 C601 1.332 . S
C603 C602 1.407 . S
C603 H605 0.929 . S
H604 C593 0.930 . S
H605 C603 0.929 . S
H606 C621 0.930 . S
H607 C628 0.929 . S
H608 C602 0.930 . S
H609 C601 0.931 . S
H610 C624 0.930 . S
H611 C591 0.930 . S
H612 C597 0.929 . S
H613 C598 0.930 . S
H614 C619 0.930 . S
H615 C594 0.930 . S
H616 C627 0.931 . S
N617 Tb588 2.617 . S
N617 C618 1.379 . S
N617 C621 1.334 . S
C618 N617 1.379 . S
C618 C620 1.416 . S
C618 C626 1.424 . S
C619 H614 0.930 . S
C619 C621 1.390 . S
C619 C622 1.339 . S
C620 C618 1.416 . S
C620 C622 1.416 . S
C620 C653 1.448 . S
C621 H606 0.930 . S
C621 N617 1.334 . S
C621 C619 1.390 . S
C622 C619 1.339 . S
C622 C620 1.416 . S
C622 H629 0.930 . S
N623 Tb588 2.572 . S
N623 C624 1.340 . S
N623 C626 1.361 . S
C624 H610 0.930 . S
C624 N623 1.340 . S
C624 C628 1.407 . S
C625 C626 1.413 . S
C625 C627 1.416 . S
C625 C654 1.427 . S
C626 C618 1.424 . S
C626 N623 1.361 . S
C626 C625 1.413 . S
C627 H616 0.931 . S
C627 C625 1.416 . S
C627 C628 1.332 . S
C628 H607 0.929 . S
C628 C624 1.407 . S
C628 C627 1.332 . S
H629 C622 0.930 . S
H630 C653 0.930 . S
H631 C654 0.929 . S
O632 Tb588 2.465 . S
O632 C652 1.264 . S
O633 Tb588 2.387 . S
O633 C644 1.264 . S
O634 Tb599 2.349 . S
O634 C644 1.243 . S
O635 Tb588 2.428 . S
O635 C652 1.256 . S
O636 Tb588 2.308 . S
O636 C651 1.266 . S
O637 Tb599 2.393 . S
O637 C651 1.248 . S
O638 Tb599 2.465 1_655 S
O638 C663 1.264 . S
O639 Tb599 2.387 . S
O639 C655 1.264 . S
O640 Tb588 2.349 . S
O640 C655 1.243 . S
O641 Tb599 2.428 1_655 S
O641 C663 1.256 . S
O642 Tb599 2.308 . S
O642 C662 1.266 . S
O643 Tb588 2.393 . S
O643 C662 1.248 . S
C644 O633 1.264 . S
C644 O634 1.243 . S
C645 C648 1.399 . S
C645 C650 1.383 . S
C645 C652 1.496 . S
C646 C647 1.399 . S
C646 C650 1.389 . S
C647 C646 1.399 . S
C647 C649 1.380 . S
C647 H664 0.929 . S
C648 C645 1.399 . S
C648 C649 1.392 . S
C648 H665 0.929 . S
C649 C647 1.380 . S
C649 C648 1.392 . S
C649 H666 0.929 . S
C650 C645 1.383 . S
C650 C646 1.389 . S
C650 H667 0.931 . S
C651 O636 1.266 . S
C651 O637 1.248 . S
C652 Tb588 2.802 . S
C652 O632 1.264 . S
C652 O635 1.256 . S
C652 C645 1.496 . S
C653 C620 1.448 . S
C653 H630 0.930 . S
C653 C654 1.328 . S
C654 C625 1.427 . S
C654 H631 0.929 . S
C654 C653 1.328 . S
C655 O639 1.264 . S
C655 O640 1.243 . S
C656 C659 1.399 . S
C656 C660 1.383 . S
C656 C663 1.496 . S
C657 C658 1.399 . S
C657 C660 1.389 . S
C658 C657 1.399 . S
C658 C661 1.380 . S
C658 H668 0.929 . S
C659 C656 1.399 . S
C659 C661 1.392 . S
C659 H669 0.929 . S
C660 C656 1.383 . S
C660 C657 1.389 . S
C660 H670 0.931 . S
C661 C658 1.380 . S
C661 C659 1.392 . S
C661 H671 0.929 . S
C662 O642 1.266 . S
C662 O643 1.248 . S
C663 Tb599 2.802 1_655 S
C663 O638 1.264 . S
C663 O641 1.256 . S
C663 C656 1.496 . S
H664 C647 0.929 . S
H665 C648 0.929 . S
H666 C649 0.929 . S
H667 C650 0.931 . S
H668 C658 0.929 . S
H669 C659 0.929 . S
H670 C660 0.931 . S
H671 C661 0.929 . S
Tb672 N701 2.617 . S
Tb672 N707 2.572 . S
Tb672 O716 2.465 . S
Tb672 O717 2.387 . S
Tb672 O719 2.428 . S
Tb672 O720 2.308 . S
Tb672 O724 2.349 . S
Tb672 O727 2.393 . S
Tb672 C736 2.802 . S
C673 N674 1.379 . S
C673 C676 1.416 . S
C673 C680 1.424 . S
N674 C673 1.379 . S
N674 C677 1.334 . S
N674 Tb683 2.617 . S
C675 C677 1.390 . S
C675 C678 1.339 . S
C675 H695 0.930 . S
C676 C673 1.416 . S
C676 C678 1.416 . S
C676 C682 1.448 . S
C677 N674 1.334 . S
C677 C675 1.390 . S
C677 H688 0.930 . S
C678 C675 1.339 . S
C678 C676 1.416 . S
C678 H699 0.930 . S
C679 C680 1.413 . S
C679 C681 1.427 . S
C679 C685 1.416 . S
C680 C673 1.424 . S
C680 C679 1.413 . S
C680 N684 1.361 . S
C681 C679 1.427 . S
C681 C682 1.328 . S
C681 H696 0.929 . S
C682 C676 1.448 . S
C682 C681 1.328 . S
C682 H697 0.930 . S
Tb683 N674 2.617 . S
Tb683 N684 2.572 . S
Tb683 O718 2.349 . S
Tb683 O721 2.393 . S
Tb683 O722 2.465 . S
Tb683 O723 2.387 . S
Tb683 O725 2.428 . S
Tb683 O726 2.308 . S
Tb683 C747 2.802 . S
N684 C680 1.361 . S
N684 Tb683 2.572 . S
N684 C686 1.340 . S
C685 C679 1.416 . S
C685 C687 1.332 . S
C685 H693 0.931 . S
C686 N684 1.340 . S
C686 C687 1.407 . S
C686 H692 0.930 . S
C687 C685 1.332 . S
C687 C686 1.407 . S
C687 H689 0.929 . S
H688 C677 0.930 . S
H689 C687 0.929 . S
H690 C705 0.930 . S
H691 C712 0.929 . S
H692 C686 0.930 . S
H693 C685 0.931 . S
H694 C708 0.930 . S
H695 C675 0.930 . S
H696 C681 0.929 . S
H697 C682 0.930 . S
H698 C703 0.930 . S
H699 C678 0.930 . S
H700 C711 0.931 . S
N701 Tb672 2.617 . S
N701 C702 1.379 . S
N701 C705 1.334 . S
C702 N701 1.379 . S
C702 C704 1.416 . S
C702 C710 1.424 . S
C703 H698 0.930 . S
C703 C705 1.390 . S
C703 C706 1.339 . S
C704 C702 1.416 . S
C704 C706 1.416 . S
C704 C737 1.448 . S
C705 H690 0.930 . S
C705 N701 1.334 . S
C705 C703 1.390 . S
C706 C703 1.339 . S
C706 C704 1.416 . S
C706 H713 0.930 . S
N707 Tb672 2.572 . S
N707 C708 1.340 . S
N707 C710 1.361 . S
C708 H694 0.930 . S
C708 N707 1.340 . S
C708 C712 1.407 . S
C709 C710 1.413 . S
C709 C711 1.416 . S
C709 C738 1.427 . S
C710 C702 1.424 . S
C710 N707 1.361 . S
C710 C709 1.413 . S
C711 H700 0.931 . S
C711 C709 1.416 . S
C711 C712 1.332 . S
C712 H691 0.929 . S
C712 C708 1.407 . S
C712 C711 1.332 . S
H713 C706 0.930 . S
H714 C737 0.930 . S
H715 C738 0.929 . S
O716 Tb672 2.465 . S
O716 C736 1.264 . S
O717 Tb672 2.387 . S
O717 C728 1.264 . S
O718 Tb683 2.349 . S
O718 C728 1.243 . S
O719 Tb672 2.428 . S
O719 C736 1.256 . S
O720 Tb672 2.308 . S
O720 C735 1.266 . S
O721 Tb683 2.393 . S
O721 C735 1.248 . S
O722 Tb683 2.465 . S
O722 C747 1.264 . S
O723 Tb683 2.387 . S
O723 C739 1.264 . S
O724 Tb672 2.349 . S
O724 C739 1.243 . S
O725 Tb683 2.428 . S
O725 C747 1.256 . S
O726 Tb683 2.308 . S
O726 C746 1.266 . S
O727 Tb672 2.393 . S
O727 C746 1.248 . S
C728 O717 1.264 . S
C728 O718 1.243 . S
C729 C732 1.399 . S
C729 C734 1.383 . S
C729 C736 1.496 . S
C730 C731 1.399 . S
C730 C734 1.389 . S
C731 C730 1.399 . S
C731 C733 1.380 . S
C731 H748 0.929 . S
C732 C729 1.399 . S
C732 C733 1.392 . S
C732 H749 0.929 . S
C733 C731 1.380 . S
C733 C732 1.392 . S
C733 H750 0.929 . S
C734 C729 1.383 . S
C734 C730 1.389 . S
C734 H751 0.931 . S
C735 O720 1.266 . S
C735 O721 1.248 . S
C736 Tb672 2.802 . S
C736 O716 1.264 . S
C736 O719 1.256 . S
C736 C729 1.496 . S
C737 C704 1.448 . S
C737 H714 0.930 . S
C737 C738 1.328 . S
C738 C709 1.427 . S
C738 H715 0.929 . S
C738 C737 1.328 . S
C739 O723 1.264 . S
C739 O724 1.243 . S
C740 C743 1.399 . S
C740 C744 1.383 . S
C740 C747 1.496 . S
C741 C742 1.399 . S
C741 C744 1.389 . S
C742 C741 1.399 . S
C742 C745 1.380 . S
C742 H752 0.929 . S
C743 C740 1.399 . S
C743 C745 1.392 . S
C743 H753 0.929 . S
C744 C740 1.383 . S
C744 C741 1.389 . S
C744 H754 0.931 . S
C745 C742 1.380 . S
C745 C743 1.392 . S
C745 H755 0.929 . S
C746 O726 1.266 . S
C746 O727 1.248 . S
C747 Tb683 2.802 . S
C747 O722 1.264 . S
C747 O725 1.256 . S
C747 C740 1.496 . S
H748 C731 0.929 . S
H749 C732 0.929 . S
H750 C733 0.929 . S
H751 C734 0.931 . S
H752 C742 0.929 . S
H753 C743 0.929 . S
H754 C744 0.931 . S
H755 C745 0.929 . S
Tb756 N785 2.617 1_645 S
Tb756 N791 2.572 1_655 S
Tb756 O800 2.465 1_655 S
Tb756 O801 2.387 . S
Tb756 O803 2.428 1_655 S
Tb756 O804 2.308 . S
Tb756 O808 2.349 . S
Tb756 O811 2.393 . S
Tb756 C820 2.802 1_655 S
C757 N758 1.379 . S
C757 C760 1.416 . S
C757 C764 1.424 . S
N758 C757 1.379 . S
N758 C761 1.334 . S
N758 Tb767 2.617 . S
C759 C761 1.390 . S
C759 C762 1.339 . S
C759 H779 0.930 . S
C760 C757 1.416 . S
C760 C762 1.416 . S
C760 C766 1.448 . S
C761 N758 1.334 . S
C761 C759 1.390 . S
C761 H772 0.930 . S
C762 C759 1.339 . S
C762 C760 1.416 . S
C762 H783 0.930 . S
C763 C764 1.413 . S
C763 C765 1.427 . S
C763 C769 1.416 . S
C764 C757 1.424 . S
C764 C763 1.413 . S
C764 N768 1.361 . S
C765 C763 1.427 . S
C765 C766 1.328 . S
C765 H780 0.929 . S
C766 C760 1.448 . S
C766 C765 1.328 . S
C766 H781 0.930 . S
Tb767 N758 2.617 . S
Tb767 N768 2.572 . S
Tb767 O802 2.349 . S
Tb767 O805 2.393 . S
Tb767 O806 2.465 . S
Tb767 O807 2.387 . S
Tb767 O809 2.428 . S
Tb767 O810 2.308 . S
Tb767 C831 2.802 . S
N768 C764 1.361 . S
N768 Tb767 2.572 . S
N768 C770 1.340 . S
C769 C763 1.416 . S
C769 C771 1.332 . S
C769 H777 0.931 . S
C770 N768 1.340 . S
C770 C771 1.407 . S
C770 H776 0.930 . S
C771 C769 1.332 . S
C771 C770 1.407 . S
C771 H773 0.929 . S
H772 C761 0.930 . S
H773 C771 0.929 . S
H774 C789 0.930 . S
H775 C796 0.929 . S
H776 C770 0.930 . S
H777 C769 0.931 . S
H778 C792 0.930 . S
H779 C759 0.930 . S
H780 C765 0.929 . S
H781 C766 0.930 . S
H782 C787 0.930 . S
H783 C762 0.930 . S
H784 C795 0.931 . S
N785 Tb756 2.617 1_465 S
N785 C786 1.379 . S
N785 C789 1.334 1_455 S
C786 N785 1.379 . S
C786 C788 1.416 . S
C786 C794 1.424 1_565 S
C787 H782 0.930 . S
C787 C789 1.390 . S
C787 C790 1.339 1_655 S
C788 C786 1.416 . S
C788 C790 1.416 . S
C788 C821 1.448 . S
C789 H774 0.930 . S
C789 N785 1.334 1_655 S
C789 C787 1.390 . S
C790 C787 1.339 1_455 S
C790 C788 1.416 . S
C790 H797 0.930 . S
N791 Tb756 2.572 1_455 S
N791 C792 1.340 . S
N791 C794 1.361 . S
C792 H778 0.930 . S
C792 N791 1.340 . S
C792 C796 1.407 . S
C793 C794 1.413 1_565 S
C793 C795 1.416 1_565 S
C793 C822 1.427 . S
C794 C786 1.424 1_545 S
C794 N791 1.361 . S
C794 C793 1.413 1_545 S
C795 H784 0.931 . S
C795 C793 1.416 1_545 S
C795 C796 1.332 . S
C796 H775 0.929 . S
C796 C792 1.407 . S
C796 C795 1.332 . S
H797 C790 0.930 . S
H798 C821 0.930 . S
H799 C822 0.929 . S
O800 Tb756 2.465 1_455 S
O800 C820 1.264 . S
O801 Tb756 2.387 . S
O801 C812 1.264 . S
O802 Tb767 2.349 . S
O802 C812 1.243 . S
O803 Tb756 2.428 1_455 S
O803 C820 1.256 . S
O804 Tb756 2.308 . S
O804 C819 1.266 . S
O805 Tb767 2.393 . S
O805 C819 1.248 . S
O806 Tb767 2.465 . S
O806 C831 1.264 . S
O807 Tb767 2.387 . S
O807 C823 1.264 . S
O808 Tb756 2.349 . S
O808 C823 1.243 . S
O809 Tb767 2.428 . S
O809 C831 1.256 . S
O810 Tb767 2.308 . S
O810 C830 1.266 . S
O811 Tb756 2.393 . S
O811 C830 1.248 . S
C812 O801 1.264 . S
C812 O802 1.243 . S
C813 C816 1.399 . S
C813 C818 1.383 . S
C813 C820 1.496 . S
C814 C815 1.399 . S
C814 C818 1.389 . S
C815 C814 1.399 . S
C815 C817 1.380 . S
C815 H832 0.929 . S
C816 C813 1.399 . S
C816 C817 1.392 . S
C816 H833 0.929 . S
C817 C815 1.380 . S
C817 C816 1.392 . S
C817 H834 0.929 . S
C818 C813 1.383 . S
C818 C814 1.389 . S
C818 H835 0.931 . S
C819 O804 1.266 . S
C819 O805 1.248 . S
C820 Tb756 2.802 1_455 S
C820 O800 1.264 . S
C820 O803 1.256 . S
C820 C813 1.496 . S
C821 C788 1.448 . S
C821 H798 0.930 . S
C821 C822 1.328 . S
C822 C793 1.427 . S
C822 H799 0.929 . S
C822 C821 1.328 . S
C823 O807 1.264 . S
C823 O808 1.243 . S
C824 C827 1.399 . S
C824 C828 1.383 . S
C824 C831 1.496 . S
C825 C826 1.399 . S
C825 C828 1.389 . S
C826 C825 1.399 . S
C826 C829 1.380 . S
C826 H836 0.929 . S
C827 C824 1.399 . S
C827 C829 1.392 . S
C827 H837 0.929 . S
C828 C824 1.383 . S
C828 C825 1.389 . S
C828 H838 0.931 . S
C829 C826 1.380 . S
C829 C827 1.392 . S
C829 H839 0.929 . S
C830 O810 1.266 . S
C830 O811 1.248 . S
C831 Tb767 2.802 . S
C831 O806 1.264 . S
C831 O809 1.256 . S
C831 C824 1.496 . S
H832 C815 0.929 . S
H833 C816 0.929 . S
H834 C817 0.929 . S
H835 C818 0.931 . S
H836 C826 0.929 . S
H837 C827 0.929 . S
H838 C828 0.931 . S
H839 C829 0.929 . S
Tb840 N869 2.617 . S
Tb840 N875 2.572 . S
Tb840 O884 2.465 . S
Tb840 O885 2.387 . S
Tb840 O887 2.428 . S
Tb840 O888 2.308 . S
Tb840 O892 2.349 . S
Tb840 O895 2.393 . S
Tb840 C904 2.802 . S
C841 N842 1.379 . S
C841 C844 1.416 . S
C841 C848 1.424 . S
N842 C841 1.379 . S
N842 C845 1.334 . S
N842 Tb851 2.617 . S
C843 C845 1.390 . S
C843 C846 1.339 . S
C843 H863 0.930 . S
C844 C841 1.416 . S
C844 C846 1.416 . S
C844 C850 1.448 . S
C845 N842 1.334 . S
C845 C843 1.390 . S
C845 H856 0.930 . S
C846 C843 1.339 . S
C846 C844 1.416 . S
C846 H867 0.930 . S
C847 C848 1.413 . S
C847 C849 1.427 . S
C847 C853 1.416 . S
C848 C841 1.424 . S
C848 C847 1.413 . S
C848 N852 1.361 . S
C849 C847 1.427 . S
C849 C850 1.328 . S
C849 H864 0.929 . S
C850 C844 1.448 . S
C850 C849 1.328 . S
C850 H865 0.930 . S
Tb851 N842 2.617 . S
Tb851 N852 2.572 . S
Tb851 O886 2.349 . S
Tb851 O889 2.393 . S
Tb851 O890 2.465 . S
Tb851 O891 2.387 . S
Tb851 O893 2.428 . S
Tb851 O894 2.308 . S
Tb851 C915 2.802 . S
N852 C848 1.361 . S
N852 Tb851 2.572 . S
N852 C854 1.340 . S
C853 C847 1.416 . S
C853 C855 1.332 . S
C853 H861 0.931 . S
C854 N852 1.340 . S
C854 C855 1.407 . S
C854 H860 0.930 . S
C855 C853 1.332 . S
C855 C854 1.407 . S
C855 H857 0.929 . S
H856 C845 0.930 . S
H857 C855 0.929 . S
H858 C873 0.930 . S
H859 C880 0.929 . S
H860 C854 0.930 . S
H861 C853 0.931 . S
H862 C876 0.930 . S
H863 C843 0.930 . S
H864 C849 0.929 . S
H865 C850 0.930 . S
H866 C871 0.930 . S
H867 C846 0.930 . S
H868 C879 0.931 . S
N869 Tb840 2.617 . S
N869 C870 1.379 . S
N869 C873 1.334 . S
C870 N869 1.379 . S
C870 C872 1.416 . S
C870 C878 1.424 . S
C871 H866 0.930 . S
C871 C873 1.390 . S
C871 C874 1.339 . S
C872 C870 1.416 . S
C872 C874 1.416 . S
C872 C905 1.448 . S
C873 H858 0.930 . S
C873 N869 1.334 . S
C873 C871 1.390 . S
C874 C871 1.339 . S
C874 C872 1.416 . S
C874 H881 0.930 . S
N875 Tb840 2.572 . S
N875 C876 1.340 . S
N875 C878 1.361 . S
C876 H862 0.930 . S
C876 N875 1.340 . S
C876 C880 1.407 . S
C877 C878 1.413 . S
C877 C879 1.416 . S
C877 C906 1.427 . S
C878 C870 1.424 . S
C878 N875 1.361 . S
C878 C877 1.413 . S
C879 H868 0.931 . S
C879 C877 1.416 . S
C879 C880 1.332 . S
C880 H859 0.929 . S
C880 C876 1.407 . S
C880 C879 1.332 . S
H881 C874 0.930 . S
H882 C905 0.930 . S
H883 C906 0.929 . S
O884 Tb840 2.465 . S
O884 C904 1.264 . S
O885 Tb840 2.387 . S
O885 C896 1.264 . S
O886 Tb851 2.349 . S
O886 C896 1.243 . S
O887 Tb840 2.428 . S
O887 C904 1.256 . S
O888 Tb840 2.308 . S
O888 C903 1.266 . S
O889 Tb851 2.393 . S
O889 C903 1.248 . S
O890 Tb851 2.465 . S
O890 C915 1.264 . S
O891 Tb851 2.387 . S
O891 C907 1.264 . S
O892 Tb840 2.349 . S
O892 C907 1.243 . S
O893 Tb851 2.428 . S
O893 C915 1.256 . S
O894 Tb851 2.308 . S
O894 C914 1.266 . S
O895 Tb840 2.393 . S
O895 C914 1.248 . S
C896 O885 1.264 . S
C896 O886 1.243 . S
C897 C900 1.399 . S
C897 C902 1.383 . S
C897 C904 1.496 . S
C898 C899 1.399 . S
C898 C902 1.389 . S
C899 C898 1.399 . S
C899 C901 1.380 . S
C899 H916 0.929 . S
C900 C897 1.399 . S
C900 C901 1.392 . S
C900 H917 0.929 . S
C901 C899 1.380 . S
C901 C900 1.392 . S
C901 H918 0.929 . S
C902 C897 1.383 . S
C902 C898 1.389 . S
C902 H919 0.931 . S
C903 O888 1.266 . S
C903 O889 1.248 . S
C904 Tb840 2.802 . S
C904 O884 1.264 . S
C904 O887 1.256 . S
C904 C897 1.496 . S
C905 C872 1.448 . S
C905 H882 0.930 . S
C905 C906 1.328 . S
C906 C877 1.427 . S
C906 H883 0.929 . S
C906 C905 1.328 . S
C907 O891 1.264 . S
C907 O892 1.243 . S
C908 C911 1.399 . S
C908 C912 1.383 . S
C908 C915 1.496 . S
C909 C910 1.399 . S
C909 C912 1.389 . S
C910 C909 1.399 . S
C910 C913 1.380 . S
C910 H920 0.929 . S
C911 C908 1.399 . S
C911 C913 1.392 . S
C911 H921 0.929 . S
C912 C908 1.383 . S
C912 C909 1.389 . S
C912 H922 0.931 . S
C913 C910 1.380 . S
C913 C911 1.392 . S
C913 H923 0.929 . S
C914 O894 1.266 . S
C914 O895 1.248 . S
C915 Tb851 2.802 . S
C915 O890 1.264 . S
C915 O893 1.256 . S
C915 C908 1.496 . S
H916 C899 0.929 . S
H917 C900 0.929 . S
H918 C901 0.929 . S
H919 C902 0.931 . S
H920 C910 0.929 . S
H921 C911 0.929 . S
H922 C912 0.931 . S
H923 C913 0.929 . S
Tb924 N953 2.617 1_565 S
Tb924 N959 2.572 . S
Tb924 O968 2.465 . S
Tb924 O969 2.387 . S
Tb924 O971 2.428 . S
Tb924 O972 2.308 . S
Tb924 O976 2.349 . S
Tb924 O979 2.393 . S
Tb924 C988 2.802 . S
C925 N926 1.379 . S
C925 C928 1.416 . S
C925 C932 1.424 . S
N926 C925 1.379 . S
N926 C929 1.334 . S
N926 Tb935 2.617 . S
C927 C929 1.390 . S
C927 C930 1.339 . S
C927 H947 0.930 . S
C928 C925 1.416 . S
C928 C930 1.416 . S
C928 C934 1.448 . S
C929 N926 1.334 . S
C929 C927 1.390 . S
C929 H940 0.930 . S
C930 C927 1.339 . S
C930 C928 1.416 . S
C930 H951 0.930 . S
C931 C932 1.413 . S
C931 C933 1.427 . S
C931 C937 1.416 . S
C932 C925 1.424 . S
C932 C931 1.413 . S
C932 N936 1.361 . S
C933 C931 1.427 . S
C933 C934 1.328 . S
C933 H948 0.929 . S
C934 C928 1.448 . S
C934 C933 1.328 . S
C934 H949 0.930 . S
Tb935 N926 2.617 . S
Tb935 N936 2.572 . S
Tb935 O970 2.349 . S
Tb935 O973 2.393 . S
Tb935 O974 2.465 . S
Tb935 O975 2.387 . S
Tb935 O977 2.428 . S
Tb935 O978 2.308 . S
Tb935 C999 2.802 . S
N936 C932 1.361 . S
N936 Tb935 2.572 . S
N936 C938 1.340 . S
C937 C931 1.416 . S
C937 C939 1.332 . S
C937 H945 0.931 . S
C938 N936 1.340 . S
C938 C939 1.407 . S
C938 H944 0.930 . S
C939 C937 1.332 . S
C939 C938 1.407 . S
C939 H941 0.929 . S
H940 C929 0.930 . S
H941 C939 0.929 . S
H942 C957 0.930 . S
H943 C964 0.929 . S
H944 C938 0.930 . S
H945 C937 0.931 . S
H946 C960 0.930 . S
H947 C927 0.930 . S
H948 C933 0.929 . S
H949 C934 0.930 . S
H950 C955 0.930 . S
H951 C930 0.930 . S
H952 C963 0.931 . S
N953 Tb924 2.617 1_545 S
N953 C954 1.379 . S
N953 C957 1.334 . S
C954 N953 1.379 . S
C954 C956 1.416 . S
C954 C962 1.424 1_545 S
C955 H950 0.930 . S
C955 C957 1.390 . S
C955 C958 1.339 . S
C956 C954 1.416 . S
C956 C958 1.416 . S
C956 C989 1.448 . S
C957 H942 0.930 . S
C957 N953 1.334 . S
C957 C955 1.390 . S
C958 C955 1.339 . S
C958 C956 1.416 . S
C958 H965 0.930 . S
N959 Tb924 2.572 . S
N959 C960 1.340 . S
N959 C962 1.361 . S
C960 H946 0.930 . S
C960 N959 1.340 . S
C960 C964 1.407 . S
C961 C962 1.413 1_545 S
C961 C963 1.416 1_545 S
C961 C990 1.427 . S
C962 C954 1.424 1_565 S
C962 N959 1.361 . S
C962 C961 1.413 1_565 S
C963 H952 0.931 . S
C963 C961 1.416 1_565 S
C963 C964 1.332 . S
C964 H943 0.929 . S
C964 C960 1.407 . S
C964 C963 1.332 . S
H965 C958 0.930 . S
H966 C989 0.930 . S
H967 C990 0.929 . S
O968 Tb924 2.465 . S
O968 C988 1.264 . S
O969 Tb924 2.387 . S
O969 C980 1.264 . S
O970 Tb935 2.349 . S
O970 C980 1.243 . S
O971 Tb924 2.428 . S
O971 C988 1.256 . S
O972 Tb924 2.308 . S
O972 C987 1.266 . S
O973 Tb935 2.393 . S
O973 C987 1.248 . S
O974 Tb935 2.465 . S
O974 C999 1.264 . S
O975 Tb935 2.387 . S
O975 C991 1.264 . S
O976 Tb924 2.349 . S
O976 C991 1.243 . S
O977 Tb935 2.428 . S
O977 C999 1.256 . S
O978 Tb935 2.308 . S
O978 C998 1.266 . S
O979 Tb924 2.393 . S
O979 C998 1.248 . S
C980 O969 1.264 . S
C980 O970 1.243 . S
C981 C984 1.399 . S
C981 C986 1.383 . S
C981 C988 1.496 . S
C982 C983 1.399 . S
C982 C986 1.389 . S
C983 C982 1.399 . S
C983 C985 1.380 . S
C983 H1000 0.929 . S
C984 C981 1.399 . S
C984 C985 1.392 . S
C984 H1001 0.929 . S
C985 C983 1.380 . S
C985 C984 1.392 . S
C985 H1002 0.929 . S
C986 C981 1.383 . S
C986 C982 1.389 . S
C986 H1003 0.931 . S
C987 O972 1.266 . S
C987 O973 1.248 . S
C988 Tb924 2.802 . S
C988 O968 1.264 . S
C988 O971 1.256 . S
C988 C981 1.496 . S
C989 C956 1.448 . S
C989 H966 0.930 . S
C989 C990 1.328 . S
C990 C961 1.427 . S
C990 H967 0.929 . S
C990 C989 1.328 . S
C991 O975 1.264 . S
C991 O976 1.243 . S
C992 C995 1.399 . S
C992 C996 1.383 . S
C992 C999 1.496 . S
C993 C994 1.399 . S
C993 C996 1.389 . S
C994 C993 1.399 . S
C994 C997 1.380 . S
C994 H1004 0.929 . S
C995 C992 1.399 . S
C995 C997 1.392 . S
C995 H1005 0.929 . S
C996 C992 1.383 . S
C996 C993 1.389 . S
C996 H1006 0.931 . S
C997 C994 1.380 . S
C997 C995 1.392 . S
C997 H1007 0.929 . S
C998 O978 1.266 . S
C998 O979 1.248 . S
C999 Tb935 2.802 . S
C999 O974 1.264 . S
C999 O977 1.256 . S
C999 C992 1.496 . S
H1000 C983 0.929 . S
H1001 C984 0.929 . S
H1002 C985 0.929 . S
H1003 C986 0.931 . S
H1004 C994 0.929 . S
H1005 C995 0.929 . S
H1006 C996 0.931 . S
H1007 C997 0.929 . S
Tb1008 N1037 2.617 . S
Tb1008 N1043 2.572 . S
Tb1008 O1052 2.465 . S
Tb1008 O1053 2.387 . S
Tb1008 O1055 2.428 . S
Tb1008 O1056 2.308 . S
Tb1008 O1060 2.349 . S
Tb1008 O1063 2.393 . S
Tb1008 C1072 2.802 . S
C1009 N1010 1.379 . S
C1009 C1012 1.416 . S
C1009 C1016 1.424 . S
N1010 C1009 1.379 . S
N1010 C1013 1.334 . S
N1010 Tb1019 2.617 . S
C1011 C1013 1.390 . S
C1011 C1014 1.339 . S
C1011 H1031 0.930 . S
C1012 C1009 1.416 . S
C1012 C1014 1.416 . S
C1012 C1018 1.448 . S
C1013 N1010 1.334 . S
C1013 C1011 1.390 . S
C1013 H1024 0.930 . S
C1014 C1011 1.339 . S
C1014 C1012 1.416 . S
C1014 H1035 0.930 . S
C1015 C1016 1.413 . S
C1015 C1017 1.427 . S
C1015 C1021 1.416 . S
C1016 C1009 1.424 . S
C1016 C1015 1.413 . S
C1016 N1020 1.361 . S
C1017 C1015 1.427 . S
C1017 C1018 1.328 . S
C1017 H1032 0.929 . S
C1018 C1012 1.448 . S
C1018 C1017 1.328 . S
C1018 H1033 0.930 . S
Tb1019 N1010 2.617 . S
Tb1019 N1020 2.572 . S
Tb1019 O1054 2.349 . S
Tb1019 O1057 2.393 . S
Tb1019 O1058 2.465 . S
Tb1019 O1059 2.387 . S
Tb1019 O1061 2.428 . S
Tb1019 O1062 2.308 . S
Tb1019 C1083 2.802 . S
N1020 C1016 1.361 . S
N1020 Tb1019 2.572 . S
N1020 C1022 1.340 . S
C1021 C1015 1.416 . S
C1021 C1023 1.332 . S
C1021 H1029 0.931 . S
C1022 N1020 1.340 . S
C1022 C1023 1.407 . S
C1022 H1028 0.930 . S
C1023 C1021 1.332 . S
C1023 C1022 1.407 . S
C1023 H1025 0.929 . S
H1024 C1013 0.930 . S
H1025 C1023 0.929 . S
H1026 C1041 0.930 . S
H1027 C1048 0.929 . S
H1028 C1022 0.930 . S
H1029 C1021 0.931 . S
H1030 C1044 0.930 . S
H1031 C1011 0.930 . S
H1032 C1017 0.929 . S
H1033 C1018 0.930 . S
H1034 C1039 0.930 . S
H1035 C1014 0.930 . S
H1036 C1047 0.931 . S
N1037 Tb1008 2.617 . S
N1037 C1038 1.379 . S
N1037 C1041 1.334 . S
C1038 N1037 1.379 . S
C1038 C1040 1.416 . S
C1038 C1046 1.424 . S
C1039 H1034 0.930 . S
C1039 C1041 1.390 . S
C1039 C1042 1.339 . S
C1040 C1038 1.416 . S
C1040 C1042 1.416 . S
C1040 C1073 1.448 . S
C1041 H1026 0.930 . S
C1041 N1037 1.334 . S
C1041 C1039 1.390 . S
C1042 C1039 1.339 . S
C1042 C1040 1.416 . S
C1042 H1049 0.930 . S
N1043 Tb1008 2.572 . S
N1043 C1044 1.340 . S
N1043 C1046 1.361 . S
C1044 H1030 0.930 . S
C1044 N1043 1.340 . S
C1044 C1048 1.407 . S
C1045 C1046 1.413 . S
C1045 C1047 1.416 . S
C1045 C1074 1.427 . S
C1046 C1038 1.424 . S
C1046 N1043 1.361 . S
C1046 C1045 1.413 . S
C1047 H1036 0.931 . S
C1047 C1045 1.416 . S
C1047 C1048 1.332 . S
C1048 H1027 0.929 . S
C1048 C1044 1.407 . S
C1048 C1047 1.332 . S
H1049 C1042 0.930 . S
H1050 C1073 0.930 . S
H1051 C1074 0.929 . S
O1052 Tb1008 2.465 . S
O1052 C1072 1.264 . S
O1053 Tb1008 2.387 . S
O1053 C1064 1.264 . S
O1054 Tb1019 2.349 . S
O1054 C1064 1.243 . S
O1055 Tb1008 2.428 . S
O1055 C1072 1.256 . S
O1056 Tb1008 2.308 . S
O1056 C1071 1.266 . S
O1057 Tb1019 2.393 . S
O1057 C1071 1.248 . S
O1058 Tb1019 2.465 . S
O1058 C1083 1.264 . S
O1059 Tb1019 2.387 . S
O1059 C1075 1.264 . S
O1060 Tb1008 2.349 . S
O1060 C1075 1.243 . S
O1061 Tb1019 2.428 . S
O1061 C1083 1.256 . S
O1062 Tb1019 2.308 . S
O1062 C1082 1.266 . S
O1063 Tb1008 2.393 . S
O1063 C1082 1.248 . S
C1064 O1053 1.264 . S
C1064 O1054 1.243 . S
C1065 C1068 1.399 . S
C1065 C1070 1.383 . S
C1065 C1072 1.496 . S
C1066 C1067 1.399 . S
C1066 C1070 1.389 . S
C1067 C1066 1.399 . S
C1067 C1069 1.380 . S
C1067 H1084 0.929 . S
C1068 C1065 1.399 . S
C1068 C1069 1.392 . S
C1068 H1085 0.929 . S
C1069 C1067 1.380 . S
C1069 C1068 1.392 . S
C1069 H1086 0.929 . S
C1070 C1065 1.383 . S
C1070 C1066 1.389 . S
C1070 H1087 0.931 . S
C1071 O1056 1.266 . S
C1071 O1057 1.248 . S
C1072 Tb1008 2.802 . S
C1072 O1052 1.264 . S
C1072 O1055 1.256 . S
C1072 C1065 1.496 . S
C1073 C1040 1.448 . S
C1073 H1050 0.930 . S
C1073 C1074 1.328 . S
C1074 C1045 1.427 . S
C1074 H1051 0.929 . S
C1074 C1073 1.328 . S
C1075 O1059 1.264 . S
C1075 O1060 1.243 . S
C1076 C1079 1.399 . S
C1076 C1080 1.383 . S
C1076 C1083 1.496 . S
C1077 C1078 1.399 . S
C1077 C1080 1.389 . S
C1078 C1077 1.399 . S
C1078 C1081 1.380 . S
C1078 H1088 0.929 . S
C1079 C1076 1.399 . S
C1079 C1081 1.392 . S
C1079 H1089 0.929 . S
C1080 C1076 1.383 . S
C1080 C1077 1.389 . S
C1080 H1090 0.931 . S
C1081 C1078 1.380 . S
C1081 C1079 1.392 . S
C1081 H1091 0.929 . S
C1082 O1062 1.266 . S
C1082 O1063 1.248 . S
C1083 Tb1019 2.802 . S
C1083 O1058 1.264 . S
C1083 O1061 1.256 . S
C1083 C1076 1.496 . S
H1084 C1067 0.929 . S
H1085 C1068 0.929 . S
H1086 C1069 0.929 . S
H1087 C1070 0.931 . S
H1088 C1078 0.929 . S
H1089 C1079 0.929 . S
H1090 C1080 0.931 . S
H1091 C1081 0.929 . S
Tb1092 N1121 2.617 1_545 S
Tb1092 N1127 2.572 . S
Tb1092 O1136 2.465 . S
Tb1092 O1137 2.387 . S
Tb1092 O1139 2.428 . S
Tb1092 O1140 2.308 . S
Tb1092 O1144 2.349 . S
Tb1092 O1147 2.393 . S
Tb1092 C1156 2.802 . S
C1093 N1094 1.379 . S
C1093 C1096 1.416 . S
C1093 C1100 1.424 . S
N1094 C1093 1.379 . S
N1094 C1097 1.334 . S
N1094 Tb1103 2.617 . S
C1095 C1097 1.390 . S
C1095 C1098 1.339 . S
C1095 H1115 0.930 . S
C1096 C1093 1.416 . S
C1096 C1098 1.416 . S
C1096 C1102 1.448 . S
C1097 N1094 1.334 . S
C1097 C1095 1.390 . S
C1097 H1108 0.930 . S
C1098 C1095 1.339 . S
C1098 C1096 1.416 . S
C1098 H1119 0.930 . S
C1099 C1100 1.413 . S
C1099 C1101 1.427 . S
C1099 C1105 1.416 . S
C1100 C1093 1.424 . S
C1100 C1099 1.413 . S
C1100 N1104 1.361 . S
C1101 C1099 1.427 . S
C1101 C1102 1.328 . S
C1101 H1116 0.929 . S
C1102 C1096 1.448 . S
C1102 C1101 1.328 . S
C1102 H1117 0.930 . S
Tb1103 N1094 2.617 . S
Tb1103 N1104 2.572 . S
Tb1103 O1138 2.349 . S
Tb1103 O1141 2.393 . S
Tb1103 O1142 2.465 . S
Tb1103 O1143 2.387 . S
Tb1103 O1145 2.428 . S
Tb1103 O1146 2.308 . S
Tb1103 C1167 2.802 . S
N1104 C1100 1.361 . S
N1104 Tb1103 2.572 . S
N1104 C1106 1.340 . S
C1105 C1099 1.416 . S
C1105 C1107 1.332 . S
C1105 H1113 0.931 . S
C1106 N1104 1.340 . S
C1106 C1107 1.407 . S
C1106 H1112 0.930 . S
C1107 C1105 1.332 . S
C1107 C1106 1.407 . S
C1107 H1109 0.929 . S
H1108 C1097 0.930 . S
H1109 C1107 0.929 . S
H1110 C1125 0.930 . S
H1111 C1132 0.929 . S
H1112 C1106 0.930 . S
H1113 C1105 0.931 . S
H1114 C1128 0.930 . S
H1115 C1095 0.930 . S
H1116 C1101 0.929 . S
H1117 C1102 0.930 . S
H1118 C1123 0.930 . S
H1119 C1098 0.930 . S
H1120 C1131 0.931 . S
N1121 Tb1092 2.617 1_565 S
N1121 C1122 1.379 . S
N1121 C1125 1.334 . S
C1122 N1121 1.379 . S
C1122 C1124 1.416 . S
C1122 C1130 1.424 1_565 S
C1123 H1118 0.930 . S
C1123 C1125 1.390 . S
C1123 C1126 1.339 . S
C1124 C1122 1.416 . S
C1124 C1126 1.416 . S
C1124 C1157 1.448 . S
C1125 H1110 0.930 . S
C1125 N1121 1.334 . S
C1125 C1123 1.390 . S
C1126 C1123 1.339 . S
C1126 C1124 1.416 . S
C1126 H1133 0.930 . S
N1127 Tb1092 2.572 . S
N1127 C1128 1.340 . S
N1127 C1130 1.361 . S
C1128 H1114 0.930 . S
C1128 N1127 1.340 . S
C1128 C1132 1.407 . S
C1129 C1130 1.413 1_565 S
C1129 C1131 1.416 1_565 S
C1129 C1158 1.427 . S
C1130 C1122 1.424 1_545 S
C1130 N1127 1.361 . S
C1130 C1129 1.413 1_545 S
C1131 H1120 0.931 . S
C1131 C1129 1.416 1_545 S
C1131 C1132 1.332 . S
C1132 H1111 0.929 . S
C1132 C1128 1.407 . S
C1132 C1131 1.332 . S
H1133 C1126 0.930 . S
H1134 C1157 0.930 . S
H1135 C1158 0.929 . S
O1136 Tb1092 2.465 . S
O1136 C1156 1.264 . S
O1137 Tb1092 2.387 . S
O1137 C1148 1.264 . S
O1138 Tb1103 2.349 . S
O1138 C1148 1.243 . S
O1139 Tb1092 2.428 . S
O1139 C1156 1.256 . S
O1140 Tb1092 2.308 . S
O1140 C1155 1.266 . S
O1141 Tb1103 2.393 . S
O1141 C1155 1.248 . S
O1142 Tb1103 2.465 . S
O1142 C1167 1.264 . S
O1143 Tb1103 2.387 . S
O1143 C1159 1.264 . S
O1144 Tb1092 2.349 . S
O1144 C1159 1.243 . S
O1145 Tb1103 2.428 . S
O1145 C1167 1.256 . S
O1146 Tb1103 2.308 . S
O1146 C1166 1.266 . S
O1147 Tb1092 2.393 . S
O1147 C1166 1.248 . S
C1148 O1137 1.264 . S
C1148 O1138 1.243 . S
C1149 C1152 1.399 . S
C1149 C1154 1.383 . S
C1149 C1156 1.496 . S
C1150 C1151 1.399 . S
C1150 C1154 1.389 . S
C1151 C1150 1.399 . S
C1151 C1153 1.380 . S
C1151 H1168 0.929 . S
C1152 C1149 1.399 . S
C1152 C1153 1.392 . S
C1152 H1169 0.929 . S
C1153 C1151 1.380 . S
C1153 C1152 1.392 . S
C1153 H1170 0.929 . S
C1154 C1149 1.383 . S
C1154 C1150 1.389 . S
C1154 H1171 0.931 . S
C1155 O1140 1.266 . S
C1155 O1141 1.248 . S
C1156 Tb1092 2.802 . S
C1156 O1136 1.264 . S
C1156 O1139 1.256 . S
C1156 C1149 1.496 . S
C1157 C1124 1.448 . S
C1157 H1134 0.930 . S
C1157 C1158 1.328 . S
C1158 C1129 1.427 . S
C1158 H1135 0.929 . S
C1158 C1157 1.328 . S
C1159 O1143 1.264 . S
C1159 O1144 1.243 . S
C1160 C1163 1.399 . S
C1160 C1164 1.383 . S
C1160 C1167 1.496 . S
C1161 C1162 1.399 . S
C1161 C1164 1.389 . S
C1162 C1161 1.399 . S
C1162 C1165 1.380 . S
C1162 H1172 0.929 . S
C1163 C1160 1.399 . S
C1163 C1165 1.392 . S
C1163 H1173 0.929 . S
C1164 C1160 1.383 . S
C1164 C1161 1.389 . S
C1164 H1174 0.931 . S
C1165 C1162 1.380 . S
C1165 C1163 1.392 . S
C1165 H1175 0.929 . S
C1166 O1146 1.266 . S
C1166 O1147 1.248 . S
C1167 Tb1103 2.802 . S
C1167 O1142 1.264 . S
C1167 O1145 1.256 . S
C1167 C1160 1.496 . S
H1168 C1151 0.929 . S
H1169 C1152 0.929 . S
H1170 C1153 0.929 . S
H1171 C1154 0.931 . S
H1172 C1162 0.929 . S
H1173 C1163 0.929 . S
H1174 C1164 0.931 . S
H1175 C1165 0.929 . S
Tb1176 N1205 2.617 . S
Tb1176 N1211 2.572 . S
Tb1176 O1220 2.465 . S
Tb1176 O1221 2.387 . S
Tb1176 O1223 2.428 . S
Tb1176 O1224 2.308 . S
Tb1176 O1228 2.349 . S
Tb1176 O1231 2.393 . S
Tb1176 C1240 2.802 . S
C1177 N1178 1.379 . S
C1177 C1180 1.416 . S
C1177 C1184 1.424 . S
N1178 C1177 1.379 . S
N1178 C1181 1.334 . S
N1178 Tb1187 2.617 . S
C1179 C1181 1.390 . S
C1179 C1182 1.339 . S
C1179 H1199 0.930 . S
C1180 C1177 1.416 . S
C1180 C1182 1.416 . S
C1180 C1186 1.448 . S
C1181 N1178 1.334 . S
C1181 C1179 1.390 . S
C1181 H1192 0.930 . S
C1182 C1179 1.339 . S
C1182 C1180 1.416 . S
C1182 H1203 0.930 . S
C1183 C1184 1.413 . S
C1183 C1185 1.427 . S
C1183 C1189 1.416 . S
C1184 C1177 1.424 . S
C1184 C1183 1.413 . S
C1184 N1188 1.361 . S
C1185 C1183 1.427 . S
C1185 C1186 1.328 . S
C1185 H1200 0.929 . S
C1186 C1180 1.448 . S
C1186 C1185 1.328 . S
C1186 H1201 0.930 . S
Tb1187 N1178 2.617 . S
Tb1187 N1188 2.572 . S
Tb1187 O1222 2.349 . S
Tb1187 O1225 2.393 . S
Tb1187 O1226 2.465 . S
Tb1187 O1227 2.387 . S
Tb1187 O1229 2.428 . S
Tb1187 O1230 2.308 . S
Tb1187 C1251 2.802 . S
N1188 C1184 1.361 . S
N1188 Tb1187 2.572 . S
N1188 C1190 1.340 . S
C1189 C1183 1.416 . S
C1189 C1191 1.332 . S
C1189 H1197 0.931 . S
C1190 N1188 1.340 . S
C1190 C1191 1.407 . S
C1190 H1196 0.930 . S
C1191 C1189 1.332 . S
C1191 C1190 1.407 . S
C1191 H1193 0.929 . S
H1192 C1181 0.930 . S
H1193 C1191 0.929 . S
H1194 C1209 0.930 . S
H1195 C1216 0.929 . S
H1196 C1190 0.930 . S
H1197 C1189 0.931 . S
H1198 C1212 0.930 . S
H1199 C1179 0.930 . S
H1200 C1185 0.929 . S
H1201 C1186 0.930 . S
H1202 C1207 0.930 . S
H1203 C1182 0.930 . S
H1204 C1215 0.931 . S
N1205 Tb1176 2.617 . S
N1205 C1206 1.379 . S
N1205 C1209 1.334 . S
C1206 N1205 1.379 . S
C1206 C1208 1.416 . S
C1206 C1214 1.424 . S
C1207 H1202 0.930 . S
C1207 C1209 1.390 . S
C1207 C1210 1.339 . S
C1208 C1206 1.416 . S
C1208 C1210 1.416 . S
C1208 C1241 1.448 . S
C1209 H1194 0.930 . S
C1209 N1205 1.334 . S
C1209 C1207 1.390 . S
C1210 C1207 1.339 . S
C1210 C1208 1.416 . S
C1210 H1217 0.930 . S
N1211 Tb1176 2.572 . S
N1211 C1212 1.340 . S
N1211 C1214 1.361 . S
C1212 H1198 0.930 . S
C1212 N1211 1.340 . S
C1212 C1216 1.407 . S
C1213 C1214 1.413 . S
C1213 C1215 1.416 . S
C1213 C1242 1.427 . S
C1214 C1206 1.424 . S
C1214 N1211 1.361 . S
C1214 C1213 1.413 . S
C1215 H1204 0.931 . S
C1215 C1213 1.416 . S
C1215 C1216 1.332 . S
C1216 H1195 0.929 . S
C1216 C1212 1.407 . S
C1216 C1215 1.332 . S
H1217 C1210 0.930 . S
H1218 C1241 0.930 . S
H1219 C1242 0.929 . S
O1220 Tb1176 2.465 . S
O1220 C1240 1.264 . S
O1221 Tb1176 2.387 . S
O1221 C1232 1.264 . S
O1222 Tb1187 2.349 . S
O1222 C1232 1.243 . S
O1223 Tb1176 2.428 . S
O1223 C1240 1.256 . S
O1224 Tb1176 2.308 . S
O1224 C1239 1.266 . S
O1225 Tb1187 2.393 . S
O1225 C1239 1.248 . S
O1226 Tb1187 2.465 . S
O1226 C1251 1.264 . S
O1227 Tb1187 2.387 . S
O1227 C1243 1.264 . S
O1228 Tb1176 2.349 . S
O1228 C1243 1.243 . S
O1229 Tb1187 2.428 . S
O1229 C1251 1.256 . S
O1230 Tb1187 2.308 . S
O1230 C1250 1.266 . S
O1231 Tb1176 2.393 . S
O1231 C1250 1.248 . S
C1232 O1221 1.264 . S
C1232 O1222 1.243 . S
C1233 C1236 1.399 . S
C1233 C1238 1.383 . S
C1233 C1240 1.496 . S
C1234 C1235 1.399 . S
C1234 C1238 1.389 . S
C1235 C1234 1.399 . S
C1235 C1237 1.380 . S
C1235 H1252 0.929 . S
C1236 C1233 1.399 . S
C1236 C1237 1.392 . S
C1236 H1253 0.929 . S
C1237 C1235 1.380 . S
C1237 C1236 1.392 . S
C1237 H1254 0.929 . S
C1238 C1233 1.383 . S
C1238 C1234 1.389 . S
C1238 H1255 0.931 . S
C1239 O1224 1.266 . S
C1239 O1225 1.248 . S
C1240 Tb1176 2.802 . S
C1240 O1220 1.264 . S
C1240 O1223 1.256 . S
C1240 C1233 1.496 . S
C1241 C1208 1.448 . S
C1241 H1218 0.930 . S
C1241 C1242 1.328 . S
C1242 C1213 1.427 . S
C1242 H1219 0.929 . S
C1242 C1241 1.328 . S
C1243 O1227 1.264 . S
C1243 O1228 1.243 . S
C1244 C1247 1.399 . S
C1244 C1248 1.383 . S
C1244 C1251 1.496 . S
C1245 C1246 1.399 . S
C1245 C1248 1.389 . S
C1246 C1245 1.399 . S
C1246 C1249 1.380 . S
C1246 H1256 0.929 . S
C1247 C1244 1.399 . S
C1247 C1249 1.392 . S
C1247 H1257 0.929 . S
C1248 C1244 1.383 . S
C1248 C1245 1.389 . S
C1248 H1258 0.931 . S
C1249 C1246 1.380 . S
C1249 C1247 1.392 . S
C1249 H1259 0.929 . S
C1250 O1230 1.266 . S
C1250 O1231 1.248 . S
C1251 Tb1187 2.802 . S
C1251 O1226 1.264 . S
C1251 O1229 1.256 . S
C1251 C1244 1.496 . S
H1252 C1235 0.929 . S
H1253 C1236 0.929 . S
H1254 C1237 0.929 . S
H1255 C1238 0.931 . S
H1256 C1246 0.929 . S
H1257 C1247 0.929 . S
H1258 C1248 0.931 . S
H1259 C1249 0.929 . S
Tb1260 N1289 2.617 1_665 S
Tb1260 N1295 2.572 1_655 S
Tb1260 O1304 2.465 1_655 S
Tb1260 O1305 2.387 . S
Tb1260 O1307 2.428 1_655 S
Tb1260 O1308 2.308 . S
Tb1260 O1312 2.349 . S
Tb1260 O1315 2.393 . S
Tb1260 C1324 2.802 1_655 S
C1261 N1262 1.379 . S
C1261 C1264 1.416 . S
C1261 C1268 1.424 . S
N1262 C1261 1.379 . S
N1262 C1265 1.334 . S
N1262 Tb1271 2.617 . S
C1263 C1265 1.390 . S
C1263 C1266 1.339 . S
C1263 H1283 0.930 . S
C1264 C1261 1.416 . S
C1264 C1266 1.416 . S
C1264 C1270 1.448 . S
C1265 N1262 1.334 . S
C1265 C1263 1.390 . S
C1265 H1276 0.930 . S
C1266 C1263 1.339 . S
C1266 C1264 1.416 . S
C1266 H1287 0.930 . S
C1267 C1268 1.413 . S
C1267 C1269 1.427 . S
C1267 C1273 1.416 . S
C1268 C1261 1.424 . S
C1268 C1267 1.413 . S
C1268 N1272 1.361 . S
C1269 C1267 1.427 . S
C1269 C1270 1.328 . S
C1269 H1284 0.929 . S
C1270 C1264 1.448 . S
C1270 C1269 1.328 . S
C1270 H1285 0.930 . S
Tb1271 N1262 2.617 . S
Tb1271 N1272 2.572 . S
Tb1271 O1306 2.349 . S
Tb1271 O1309 2.393 . S
Tb1271 O1310 2.465 . S
Tb1271 O1311 2.387 . S
Tb1271 O1313 2.428 . S
Tb1271 O1314 2.308 . S
Tb1271 C1335 2.802 . S
N1272 C1268 1.361 . S
N1272 Tb1271 2.572 . S
N1272 C1274 1.340 . S
C1273 C1267 1.416 . S
C1273 C1275 1.332 . S
C1273 H1281 0.931 . S
C1274 N1272 1.340 . S
C1274 C1275 1.407 . S
C1274 H1280 0.930 . S
C1275 C1273 1.332 . S
C1275 C1274 1.407 . S
C1275 H1277 0.929 . S
H1276 C1265 0.930 . S
H1277 C1275 0.929 . S
H1278 C1293 0.930 . S
H1279 C1300 0.929 . S
H1280 C1274 0.930 . S
H1281 C1273 0.931 . S
H1282 C1296 0.930 . S
H1283 C1263 0.930 . S
H1284 C1269 0.929 . S
H1285 C1270 0.930 . S
H1286 C1291 0.930 . S
H1287 C1266 0.930 . S
H1288 C1299 0.931 . S
N1289 Tb1260 2.617 1_445 S
N1289 C1290 1.379 . S
N1289 C1293 1.334 1_455 S
C1290 N1289 1.379 . S
C1290 C1292 1.416 . S
C1290 C1298 1.424 1_545 S
C1291 H1286 0.930 . S
C1291 C1293 1.390 . S
C1291 C1294 1.339 1_655 S
C1292 C1290 1.416 . S
C1292 C1294 1.416 . S
C1292 C1325 1.448 . S
C1293 H1278 0.930 . S
C1293 N1289 1.334 1_655 S
C1293 C1291 1.390 . S
C1294 C1291 1.339 1_455 S
C1294 C1292 1.416 . S
C1294 H1301 0.930 . S
N1295 Tb1260 2.572 1_455 S
N1295 C1296 1.340 . S
N1295 C1298 1.361 . S
C1296 H1282 0.930 . S
C1296 N1295 1.340 . S
C1296 C1300 1.407 . S
C1297 C1298 1.413 1_545 S
C1297 C1299 1.416 1_545 S
C1297 C1326 1.427 . S
C1298 C1290 1.424 1_565 S
C1298 N1295 1.361 . S
C1298 C1297 1.413 1_565 S
C1299 H1288 0.931 . S
C1299 C1297 1.416 1_565 S
C1299 C1300 1.332 . S
C1300 H1279 0.929 . S
C1300 C1296 1.407 . S
C1300 C1299 1.332 . S
H1301 C1294 0.930 . S
H1302 C1325 0.930 . S
H1303 C1326 0.929 . S
O1304 Tb1260 2.465 1_455 S
O1304 C1324 1.264 . S
O1305 Tb1260 2.387 . S
O1305 C1316 1.264 . S
O1306 Tb1271 2.349 . S
O1306 C1316 1.243 . S
O1307 Tb1260 2.428 1_455 S
O1307 C1324 1.256 . S
O1308 Tb1260 2.308 . S
O1308 C1323 1.266 . S
O1309 Tb1271 2.393 . S
O1309 C1323 1.248 . S
O1310 Tb1271 2.465 . S
O1310 C1335 1.264 . S
O1311 Tb1271 2.387 . S
O1311 C1327 1.264 . S
O1312 Tb1260 2.349 . S
O1312 C1327 1.243 . S
O1313 Tb1271 2.428 . S
O1313 C1335 1.256 . S
O1314 Tb1271 2.308 . S
O1314 C1334 1.266 . S
O1315 Tb1260 2.393 . S
O1315 C1334 1.248 . S
C1316 O1305 1.264 . S
C1316 O1306 1.243 . S
C1317 C1320 1.399 . S
C1317 C1322 1.383 . S
C1317 C1324 1.496 . S
C1318 C1319 1.399 . S
C1318 C1322 1.389 . S
C1319 C1318 1.399 . S
C1319 C1321 1.380 . S
C1319 H1336 0.929 . S
C1320 C1317 1.399 . S
C1320 C1321 1.392 . S
C1320 H1337 0.929 . S
C1321 C1319 1.380 . S
C1321 C1320 1.392 . S
C1321 H1338 0.929 . S
C1322 C1317 1.383 . S
C1322 C1318 1.389 . S
C1322 H1339 0.931 . S
C1323 O1308 1.266 . S
C1323 O1309 1.248 . S
C1324 Tb1260 2.802 1_455 S
C1324 O1304 1.264 . S
C1324 O1307 1.256 . S
C1324 C1317 1.496 . S
C1325 C1292 1.448 . S
C1325 H1302 0.930 . S
C1325 C1326 1.328 . S
C1326 C1297 1.427 . S
C1326 H1303 0.929 . S
C1326 C1325 1.328 . S
C1327 O1311 1.264 . S
C1327 O1312 1.243 . S
C1328 C1331 1.399 . S
C1328 C1332 1.383 . S
C1328 C1335 1.496 . S
C1329 C1330 1.399 . S
C1329 C1332 1.389 . S
C1330 C1329 1.399 . S
C1330 C1333 1.380 . S
C1330 H1340 0.929 . S
C1331 C1328 1.399 . S
C1331 C1333 1.392 . S
C1331 H1341 0.929 . S
C1332 C1328 1.383 . S
C1332 C1329 1.389 . S
C1332 H1342 0.931 . S
C1333 C1330 1.380 . S
C1333 C1331 1.392 . S
C1333 H1343 0.929 . S
C1334 O1314 1.266 . S
C1334 O1315 1.248 . S
C1335 Tb1271 2.802 . S
C1335 O1310 1.264 . S
C1335 O1313 1.256 . S
C1335 C1328 1.496 . S
H1336 C1319 0.929 . S
H1337 C1320 0.929 . S
H1338 C1321 0.929 . S
H1339 C1322 0.931 . S
H1340 C1330 0.929 . S
H1341 C1331 0.929 . S
H1342 C1332 0.931 . S
H1343 C1333 0.929 . S
Tb1344 N1373 2.617 . S
Tb1344 N1379 2.572 . S
Tb1344 O1388 2.465 . S
Tb1344 O1389 2.387 . S
Tb1344 O1391 2.428 . S
Tb1344 O1392 2.308 . S
Tb1344 O1396 2.349 . S
Tb1344 O1399 2.393 . S
Tb1344 C1408 2.802 . S
C1345 N1346 1.379 . S
C1345 C1348 1.416 . S
C1345 C1352 1.424 . S
N1346 C1345 1.379 . S
N1346 C1349 1.334 . S
N1346 Tb1355 2.617 . S
C1347 C1349 1.390 . S
C1347 C1350 1.339 . S
C1347 H1367 0.930 . S
C1348 C1345 1.416 . S
C1348 C1350 1.416 . S
C1348 C1354 1.448 . S
C1349 N1346 1.334 . S
C1349 C1347 1.390 . S
C1349 H1360 0.930 . S
C1350 C1347 1.339 . S
C1350 C1348 1.416 . S
C1350 H1371 0.930 . S
C1351 C1352 1.413 . S
C1351 C1353 1.427 . S
C1351 C1357 1.416 . S
C1352 C1345 1.424 . S
C1352 C1351 1.413 . S
C1352 N1356 1.361 . S
C1353 C1351 1.427 . S
C1353 C1354 1.328 . S
C1353 H1368 0.929 . S
C1354 C1348 1.448 . S
C1354 C1353 1.328 . S
C1354 H1369 0.930 . S
Tb1355 N1346 2.617 . S
Tb1355 N1356 2.572 . S
Tb1355 O1390 2.349 . S
Tb1355 O1393 2.393 . S
Tb1355 O1394 2.465 . S
Tb1355 O1395 2.387 . S
Tb1355 O1397 2.428 . S
Tb1355 O1398 2.308 . S
Tb1355 C1419 2.802 . S
N1356 C1352 1.361 . S
N1356 Tb1355 2.572 . S
N1356 C1358 1.340 . S
C1357 C1351 1.416 . S
C1357 C1359 1.332 . S
C1357 H1365 0.931 . S
C1358 N1356 1.340 . S
C1358 C1359 1.407 . S
C1358 H1364 0.930 . S
C1359 C1357 1.332 . S
C1359 C1358 1.407 . S
C1359 H1361 0.929 . S
H1360 C1349 0.930 . S
H1361 C1359 0.929 . S
H1362 C1377 0.930 . S
H1363 C1384 0.929 . S
H1364 C1358 0.930 . S
H1365 C1357 0.931 . S
H1366 C1380 0.930 . S
H1367 C1347 0.930 . S
H1368 C1353 0.929 . S
H1369 C1354 0.930 . S
H1370 C1375 0.930 . S
H1371 C1350 0.930 . S
H1372 C1383 0.931 . S
N1373 Tb1344 2.617 . S
N1373 C1374 1.379 . S
N1373 C1377 1.334 . S
C1374 N1373 1.379 . S
C1374 C1376 1.416 . S
C1374 C1382 1.424 . S
C1375 H1370 0.930 . S
C1375 C1377 1.390 . S
C1375 C1378 1.339 . S
C1376 C1374 1.416 . S
C1376 C1378 1.416 . S
C1376 C1409 1.448 . S
C1377 H1362 0.930 . S
C1377 N1373 1.334 . S
C1377 C1375 1.390 . S
C1378 C1375 1.339 . S
C1378 C1376 1.416 . S
C1378 H1385 0.930 . S
N1379 Tb1344 2.572 . S
N1379 C1380 1.340 . S
N1379 C1382 1.361 . S
C1380 H1366 0.930 . S
C1380 N1379 1.340 . S
C1380 C1384 1.407 . S
C1381 C1382 1.413 . S
C1381 C1383 1.416 . S
C1381 C1410 1.427 . S
C1382 C1374 1.424 . S
C1382 N1379 1.361 . S
C1382 C1381 1.413 . S
C1383 H1372 0.931 . S
C1383 C1381 1.416 . S
C1383 C1384 1.332 . S
C1384 H1363 0.929 . S
C1384 C1380 1.407 . S
C1384 C1383 1.332 . S
H1385 C1378 0.930 . S
H1386 C1409 0.930 . S
H1387 C1410 0.929 . S
O1388 Tb1344 2.465 . S
O1388 C1408 1.264 . S
O1389 Tb1344 2.387 . S
O1389 C1400 1.264 . S
O1390 Tb1355 2.349 . S
O1390 C1400 1.243 . S
O1391 Tb1344 2.428 . S
O1391 C1408 1.256 . S
O1392 Tb1344 2.308 . S
O1392 C1407 1.266 . S
O1393 Tb1355 2.393 . S
O1393 C1407 1.248 . S
O1394 Tb1355 2.465 . S
O1394 C1419 1.264 . S
O1395 Tb1355 2.387 . S
O1395 C1411 1.264 . S
O1396 Tb1344 2.349 . S
O1396 C1411 1.243 . S
O1397 Tb1355 2.428 . S
O1397 C1419 1.256 . S
O1398 Tb1355 2.308 . S
O1398 C1418 1.266 . S
O1399 Tb1344 2.393 . S
O1399 C1418 1.248 . S
C1400 O1389 1.264 . S
C1400 O1390 1.243 . S
C1401 C1404 1.399 . S
C1401 C1406 1.383 . S
C1401 C1408 1.496 . S
C1402 C1403 1.399 . S
C1402 C1406 1.389 . S
C1403 C1402 1.399 . S
C1403 C1405 1.380 . S
C1403 H1420 0.929 . S
C1404 C1401 1.399 . S
C1404 C1405 1.392 . S
C1404 H1421 0.929 . S
C1405 C1403 1.380 . S
C1405 C1404 1.392 . S
C1405 H1422 0.929 . S
C1406 C1401 1.383 . S
C1406 C1402 1.389 . S
C1406 H1423 0.931 . S
C1407 O1392 1.266 . S
C1407 O1393 1.248 . S
C1408 Tb1344 2.802 . S
C1408 O1388 1.264 . S
C1408 O1391 1.256 . S
C1408 C1401 1.496 . S
C1409 C1376 1.448 . S
C1409 H1386 0.930 . S
C1409 C1410 1.328 . S
C1410 C1381 1.427 . S
C1410 H1387 0.929 . S
C1410 C1409 1.328 . S
C1411 O1395 1.264 . S
C1411 O1396 1.243 . S
C1412 C1415 1.399 . S
C1412 C1416 1.383 . S
C1412 C1419 1.496 . S
C1413 C1414 1.399 . S
C1413 C1416 1.389 . S
C1414 C1413 1.399 . S
C1414 C1417 1.380 . S
C1414 H1424 0.929 . S
C1415 C1412 1.399 . S
C1415 C1417 1.392 . S
C1415 H1425 0.929 . S
C1416 C1412 1.383 . S
C1416 C1413 1.389 . S
C1416 H1426 0.931 . S
C1417 C1414 1.380 . S
C1417 C1415 1.392 . S
C1417 H1427 0.929 . S
C1418 O1398 1.266 . S
C1418 O1399 1.248 . S
C1419 Tb1355 2.802 . S
C1419 O1394 1.264 . S
C1419 O1397 1.256 . S
C1419 C1412 1.496 . S
H1420 C1403 0.929 . S
H1421 C1404 0.929 . S
H1422 C1405 0.929 . S
H1423 C1406 0.931 . S
H1424 C1414 0.929 . S
H1425 C1415 0.929 . S
H1426 C1416 0.931 . S
H1427 C1417 0.929 . S
Tb1428 N1457 2.617 . S
Tb1428 N1463 2.572 . S
Tb1428 O1472 2.465 . S
Tb1428 O1473 2.387 . S
Tb1428 O1475 2.428 . S
Tb1428 O1476 2.308 . S
Tb1428 O1480 2.349 . S
Tb1428 O1483 2.393 . S
Tb1428 C1492 2.802 . S
C1429 N1430 1.379 . S
C1429 C1432 1.416 . S
C1429 C1436 1.424 . S
N1430 C1429 1.379 . S
N1430 C1433 1.334 . S
N1430 Tb1439 2.617 . S
C1431 C1433 1.390 . S
C1431 C1434 1.339 . S
C1431 H1451 0.930 . S
C1432 C1429 1.416 . S
C1432 C1434 1.416 . S
C1432 C1438 1.448 . S
C1433 N1430 1.334 . S
C1433 C1431 1.390 . S
C1433 H1444 0.930 . S
C1434 C1431 1.339 . S
C1434 C1432 1.416 . S
C1434 H1455 0.930 . S
C1435 C1436 1.413 . S
C1435 C1437 1.427 . S
C1435 C1441 1.416 . S
C1436 C1429 1.424 . S
C1436 C1435 1.413 . S
C1436 N1440 1.361 . S
C1437 C1435 1.427 . S
C1437 C1438 1.328 . S
C1437 H1452 0.929 . S
C1438 C1432 1.448 . S
C1438 C1437 1.328 . S
C1438 H1453 0.930 . S
Tb1439 N1430 2.617 . S
Tb1439 N1440 2.572 . S
Tb1439 O1474 2.349 . S
Tb1439 O1477 2.393 . S
Tb1439 O1478 2.465 . S
Tb1439 O1479 2.387 . S
Tb1439 O1481 2.428 . S
Tb1439 O1482 2.308 . S
Tb1439 C1503 2.802 . S
N1440 C1436 1.361 . S
N1440 Tb1439 2.572 . S
N1440 C1442 1.340 . S
C1441 C1435 1.416 . S
C1441 C1443 1.332 . S
C1441 H1449 0.931 . S
C1442 N1440 1.340 . S
C1442 C1443 1.407 . S
C1442 H1448 0.930 . S
C1443 C1441 1.332 . S
C1443 C1442 1.407 . S
C1443 H1445 0.929 . S
H1444 C1433 0.930 . S
H1445 C1443 0.929 . S
H1446 C1461 0.930 . S
H1447 C1468 0.929 . S
H1448 C1442 0.930 . S
H1449 C1441 0.931 . S
H1450 C1464 0.930 . S
H1451 C1431 0.930 . S
H1452 C1437 0.929 . S
H1453 C1438 0.930 . S
H1454 C1459 0.930 . S
H1455 C1434 0.930 . S
H1456 C1467 0.931 . S
N1457 Tb1428 2.617 . S
N1457 C1458 1.379 . S
N1457 C1461 1.334 . S
C1458 N1457 1.379 . S
C1458 C1460 1.416 . S
C1458 C1466 1.424 . S
C1459 H1454 0.930 . S
C1459 C1461 1.390 . S
C1459 C1462 1.339 . S
C1460 C1458 1.416 . S
C1460 C1462 1.416 . S
C1460 C1493 1.448 . S
C1461 H1446 0.930 . S
C1461 N1457 1.334 . S
C1461 C1459 1.390 . S
C1462 C1459 1.339 . S
C1462 C1460 1.416 . S
C1462 H1469 0.930 . S
N1463 Tb1428 2.572 . S
N1463 C1464 1.340 . S
N1463 C1466 1.361 . S
C1464 H1450 0.930 . S
C1464 N1463 1.340 . S
C1464 C1468 1.407 . S
C1465 C1466 1.413 . S
C1465 C1467 1.416 . S
C1465 C1494 1.427 . S
C1466 C1458 1.424 . S
C1466 N1463 1.361 . S
C1466 C1465 1.413 . S
C1467 H1456 0.931 . S
C1467 C1465 1.416 . S
C1467 C1468 1.332 . S
C1468 H1447 0.929 . S
C1468 C1464 1.407 . S
C1468 C1467 1.332 . S
H1469 C1462 0.930 . S
H1470 C1493 0.930 . S
H1471 C1494 0.929 . S
O1472 Tb1428 2.465 . S
O1472 C1492 1.264 . S
O1473 Tb1428 2.387 . S
O1473 C1484 1.264 . S
O1474 Tb1439 2.349 . S
O1474 C1484 1.243 . S
O1475 Tb1428 2.428 . S
O1475 C1492 1.256 . S
O1476 Tb1428 2.308 . S
O1476 C1491 1.266 . S
O1477 Tb1439 2.393 . S
O1477 C1491 1.248 . S
O1478 Tb1439 2.465 . S
O1478 C1503 1.264 . S
O1479 Tb1439 2.387 . S
O1479 C1495 1.264 . S
O1480 Tb1428 2.349 . S
O1480 C1495 1.243 . S
O1481 Tb1439 2.428 . S
O1481 C1503 1.256 . S
O1482 Tb1439 2.308 . S
O1482 C1502 1.266 . S
O1483 Tb1428 2.393 . S
O1483 C1502 1.248 . S
C1484 O1473 1.264 . S
C1484 O1474 1.243 . S
C1485 C1488 1.399 . S
C1485 C1490 1.383 . S
C1485 C1492 1.496 . S
C1486 C1487 1.399 . S
C1486 C1490 1.389 . S
C1487 C1486 1.399 . S
C1487 C1489 1.380 . S
C1487 H1504 0.929 . S
C1488 C1485 1.399 . S
C1488 C1489 1.392 . S
C1488 H1505 0.929 . S
C1489 C1487 1.380 . S
C1489 C1488 1.392 . S
C1489 H1506 0.929 . S
C1490 C1485 1.383 . S
C1490 C1486 1.389 . S
C1490 H1507 0.931 . S
C1491 O1476 1.266 . S
C1491 O1477 1.248 . S
C1492 Tb1428 2.802 . S
C1492 O1472 1.264 . S
C1492 O1475 1.256 . S
C1492 C1485 1.496 . S
C1493 C1460 1.448 . S
C1493 H1470 0.930 . S
C1493 C1494 1.328 . S
C1494 C1465 1.427 . S
C1494 H1471 0.929 . S
C1494 C1493 1.328 . S
C1495 O1479 1.264 . S
C1495 O1480 1.243 . S
C1496 C1499 1.399 . S
C1496 C1500 1.383 . S
C1496 C1503 1.496 . S
C1497 C1498 1.399 . S
C1497 C1500 1.389 . S
C1498 C1497 1.399 . S
C1498 C1501 1.380 . S
C1498 H1508 0.929 . S
C1499 C1496 1.399 . S
C1499 C1501 1.392 . S
C1499 H1509 0.929 . S
C1500 C1496 1.383 . S
C1500 C1497 1.389 . S
C1500 H1510 0.931 . S
C1501 C1498 1.380 . S
C1501 C1499 1.392 . S
C1501 H1511 0.929 . S
C1502 O1482 1.266 . S
C1502 O1483 1.248 . S
C1503 Tb1439 2.802 . S
C1503 O1478 1.264 . S
C1503 O1481 1.256 . S
C1503 C1496 1.496 . S
H1504 C1487 0.929 . S
H1505 C1488 0.929 . S
H1506 C1489 0.929 . S
H1507 C1490 0.931 . S
H1508 C1498 0.929 . S
H1509 C1499 0.929 . S
H1510 C1500 0.931 . S
H1511 C1501 0.929 . S
Tb1512 N1541 2.617 . S
Tb1512 N1547 2.572 . S
Tb1512 O1556 2.465 . S
Tb1512 O1557 2.387 . S
Tb1512 O1559 2.428 . S
Tb1512 O1560 2.308 . S
Tb1512 O1564 2.349 . S
Tb1512 O1567 2.393 . S
Tb1512 C1576 2.802 . S
C1513 N1514 1.379 . S
C1513 C1516 1.416 . S
C1513 C1520 1.424 . S
N1514 C1513 1.379 . S
N1514 C1517 1.334 . S
N1514 Tb1523 2.617 . S
C1515 C1517 1.390 . S
C1515 C1518 1.339 . S
C1515 H1535 0.930 . S
C1516 C1513 1.416 . S
C1516 C1518 1.416 . S
C1516 C1522 1.448 . S
C1517 N1514 1.334 . S
C1517 C1515 1.390 . S
C1517 H1528 0.930 . S
C1518 C1515 1.339 . S
C1518 C1516 1.416 . S
C1518 H1539 0.930 . S
C1519 C1520 1.413 . S
C1519 C1521 1.427 . S
C1519 C1525 1.416 . S
C1520 C1513 1.424 . S
C1520 C1519 1.413 . S
C1520 N1524 1.361 . S
C1521 C1519 1.427 . S
C1521 C1522 1.328 . S
C1521 H1536 0.929 . S
C1522 C1516 1.448 . S
C1522 C1521 1.328 . S
C1522 H1537 0.930 . S
Tb1523 N1514 2.617 . S
Tb1523 N1524 2.572 . S
Tb1523 O1558 2.349 . S
Tb1523 O1561 2.393 . S
Tb1523 O1562 2.465 . S
Tb1523 O1563 2.387 . S
Tb1523 O1565 2.428 . S
Tb1523 O1566 2.308 . S
Tb1523 C1587 2.802 . S
N1524 C1520 1.361 . S
N1524 Tb1523 2.572 . S
N1524 C1526 1.340 . S
C1525 C1519 1.416 . S
C1525 C1527 1.332 . S
C1525 H1533 0.931 . S
C1526 N1524 1.340 . S
C1526 C1527 1.407 . S
C1526 H1532 0.930 . S
C1527 C1525 1.332 . S
C1527 C1526 1.407 . S
C1527 H1529 0.929 . S
H1528 C1517 0.930 . S
H1529 C1527 0.929 . S
H1530 C1545 0.930 . S
H1531 C1552 0.929 . S
H1532 C1526 0.930 . S
H1533 C1525 0.931 . S
H1534 C1548 0.930 . S
H1535 C1515 0.930 . S
H1536 C1521 0.929 . S
H1537 C1522 0.930 . S
H1538 C1543 0.930 . S
H1539 C1518 0.930 . S
H1540 C1551 0.931 . S
N1541 Tb1512 2.617 . S
N1541 C1542 1.379 . S
N1541 C1545 1.334 . S
C1542 N1541 1.379 . S
C1542 C1544 1.416 . S
C1542 C1550 1.424 . S
C1543 H1538 0.930 . S
C1543 C1545 1.390 . S
C1543 C1546 1.339 . S
C1544 C1542 1.416 . S
C1544 C1546 1.416 . S
C1544 C1577 1.448 . S
C1545 H1530 0.930 . S
C1545 N1541 1.334 . S
C1545 C1543 1.390 . S
C1546 C1543 1.339 . S
C1546 C1544 1.416 . S
C1546 H1553 0.930 . S
N1547 Tb1512 2.572 . S
N1547 C1548 1.340 . S
N1547 C1550 1.361 . S
C1548 H1534 0.930 . S
C1548 N1547 1.340 . S
C1548 C1552 1.407 . S
C1549 C1550 1.413 . S
C1549 C1551 1.416 . S
C1549 C1578 1.427 . S
C1550 C1542 1.424 . S
C1550 N1547 1.361 . S
C1550 C1549 1.413 . S
C1551 H1540 0.931 . S
C1551 C1549 1.416 . S
C1551 C1552 1.332 . S
C1552 H1531 0.929 . S
C1552 C1548 1.407 . S
C1552 C1551 1.332 . S
H1553 C1546 0.930 . S
H1554 C1577 0.930 . S
H1555 C1578 0.929 . S
O1556 Tb1512 2.465 . S
O1556 C1576 1.264 . S
O1557 Tb1512 2.387 . S
O1557 C1568 1.264 . S
O1558 Tb1523 2.349 . S
O1558 C1568 1.243 . S
O1559 Tb1512 2.428 . S
O1559 C1576 1.256 . S
O1560 Tb1512 2.308 . S
O1560 C1575 1.266 . S
O1561 Tb1523 2.393 . S
O1561 C1575 1.248 . S
O1562 Tb1523 2.465 . S
O1562 C1587 1.264 . S
O1563 Tb1523 2.387 . S
O1563 C1579 1.264 . S
O1564 Tb1512 2.349 . S
O1564 C1579 1.243 . S
O1565 Tb1523 2.428 . S
O1565 C1587 1.256 . S
O1566 Tb1523 2.308 . S
O1566 C1586 1.266 . S
O1567 Tb1512 2.393 . S
O1567 C1586 1.248 . S
C1568 O1557 1.264 . S
C1568 O1558 1.243 . S
C1569 C1572 1.399 . S
C1569 C1574 1.383 . S
C1569 C1576 1.496 . S
C1570 C1571 1.399 . S
C1570 C1574 1.389 . S
C1571 C1570 1.399 . S
C1571 C1573 1.380 . S
C1571 H1588 0.929 . S
C1572 C1569 1.399 . S
C1572 C1573 1.392 . S
C1572 H1589 0.929 . S
C1573 C1571 1.380 . S
C1573 C1572 1.392 . S
C1573 H1590 0.929 . S
C1574 C1569 1.383 . S
C1574 C1570 1.389 . S
C1574 H1591 0.931 . S
C1575 O1560 1.266 . S
C1575 O1561 1.248 . S
C1576 Tb1512 2.802 . S
C1576 O1556 1.264 . S
C1576 O1559 1.256 . S
C1576 C1569 1.496 . S
C1577 C1544 1.448 . S
C1577 H1554 0.930 . S
C1577 C1578 1.328 . S
C1578 C1549 1.427 . S
C1578 H1555 0.929 . S
C1578 C1577 1.328 . S
C1579 O1563 1.264 . S
C1579 O1564 1.243 . S
C1580 C1583 1.399 . S
C1580 C1584 1.383 . S
C1580 C1587 1.496 . S
C1581 C1582 1.399 . S
C1581 C1584 1.389 . S
C1582 C1581 1.399 . S
C1582 C1585 1.380 . S
C1582 H1592 0.929 . S
C1583 C1580 1.399 . S
C1583 C1585 1.392 . S
C1583 H1593 0.929 . S
C1584 C1580 1.383 . S
C1584 C1581 1.389 . S
C1584 H1594 0.931 . S
C1585 C1582 1.380 . S
C1585 C1583 1.392 . S
C1585 H1595 0.929 . S
C1586 O1566 1.266 . S
C1586 O1567 1.248 . S
C1587 Tb1523 2.802 . S
C1587 O1562 1.264 . S
C1587 O1565 1.256 . S
C1587 C1580 1.496 . S
H1588 C1571 0.929 . S
H1589 C1572 0.929 . S
H1590 C1573 0.929 . S
H1591 C1574 0.931 . S
H1592 C1582 0.929 . S
H1593 C1583 0.929 . S
H1594 C1584 0.931 . S
H1595 C1585 0.929 . S
Tb1596 N1625 2.617 . S
Tb1596 N1631 2.572 . S
Tb1596 O1640 2.465 . S
Tb1596 O1641 2.387 . S
Tb1596 O1643 2.428 . S
Tb1596 O1644 2.308 . S
Tb1596 O1648 2.349 . S
Tb1596 O1651 2.393 . S
Tb1596 C1660 2.802 . S
C1597 N1598 1.379 . S
C1597 C1600 1.416 . S
C1597 C1604 1.424 . S
N1598 C1597 1.379 . S
N1598 C1601 1.334 1_455 S
N1598 Tb1607 2.617 1_455 S
C1599 C1601 1.390 . S
C1599 C1602 1.339 1_655 S
C1599 H1619 0.930 . S
C1600 C1597 1.416 . S
C1600 C1602 1.416 . S
C1600 C1606 1.448 . S
C1601 N1598 1.334 1_655 S
C1601 C1599 1.390 . S
C1601 H1612 0.930 . S
C1602 C1599 1.339 1_455 S
C1602 C1600 1.416 . S
C1602 H1623 0.930 . S
C1603 C1604 1.413 . S
C1603 C1605 1.427 . S
C1603 C1609 1.416 . S
C1604 C1597 1.424 . S
C1604 C1603 1.413 . S
C1604 N1608 1.361 . S
C1605 C1603 1.427 . S
C1605 C1606 1.328 . S
C1605 H1620 0.929 . S
C1606 C1600 1.448 . S
C1606 C1605 1.328 . S
C1606 H1621 0.930 . S
Tb1607 N1598 2.617 1_655 S
Tb1607 N1608 2.572 1_655 S
Tb1607 O1642 2.349 . S
Tb1607 O1645 2.393 . S
Tb1607 O1646 2.465 1_655 S
Tb1607 O1647 2.387 . S
Tb1607 O1649 2.428 1_655 S
Tb1607 O1650 2.308 . S
Tb1607 C1671 2.802 1_655 S
N1608 C1604 1.361 . S
N1608 Tb1607 2.572 1_455 S
N1608 C1610 1.340 . S
C1609 C1603 1.416 . S
C1609 C1611 1.332 . S
C1609 H1617 0.931 . S
C1610 N1608 1.340 . S
C1610 C1611 1.407 . S
C1610 H1616 0.930 . S
C1611 C1609 1.332 . S
C1611 C1610 1.407 . S
C1611 H1613 0.929 . S
H1612 C1601 0.930 . S
H1613 C1611 0.929 . S
H1614 C1629 0.930 . S
H1615 C1636 0.929 . S
H1616 C1610 0.930 . S
H1617 C1609 0.931 . S
H1618 C1632 0.930 . S
H1619 C1599 0.930 . S
H1620 C1605 0.929 . S
H1621 C1606 0.930 . S
H1622 C1627 0.930 . S
H1623 C1602 0.930 . S
H1624 C1635 0.931 . S
N1625 Tb1596 2.617 . S
N1625 C1626 1.379 . S
N1625 C1629 1.334 . S
C1626 N1625 1.379 . S
C1626 C1628 1.416 . S
C1626 C1634 1.424 . S
C1627 H1622 0.930 . S
C1627 C1629 1.390 . S
C1627 C1630 1.339 . S
C1628 C1626 1.416 . S
C1628 C1630 1.416 . S
C1628 C1661 1.448 . S
C1629 H1614 0.930 . S
C1629 N1625 1.334 . S
C1629 C1627 1.390 . S
C1630 C1627 1.339 . S
C1630 C1628 1.416 . S
C1630 H1637 0.930 . S
N1631 Tb1596 2.572 . S
N1631 C1632 1.340 . S
N1631 C1634 1.361 . S
C1632 H1618 0.930 . S
C1632 N1631 1.340 . S
C1632 C1636 1.407 . S
C1633 C1634 1.413 . S
C1633 C1635 1.416 . S
C1633 C1662 1.427 . S
C1634 C1626 1.424 . S
C1634 N1631 1.361 . S
C1634 C1633 1.413 . S
C1635 H1624 0.931 . S
C1635 C1633 1.416 . S
C1635 C1636 1.332 . S
C1636 H1615 0.929 . S
C1636 C1632 1.407 . S
C1636 C1635 1.332 . S
H1637 C1630 0.930 . S
H1638 C1661 0.930 . S
H1639 C1662 0.929 . S
O1640 Tb1596 2.465 . S
O1640 C1660 1.264 . S
O1641 Tb1596 2.387 . S
O1641 C1652 1.264 . S
O1642 Tb1607 2.349 . S
O1642 C1652 1.243 . S
O1643 Tb1596 2.428 . S
O1643 C1660 1.256 . S
O1644 Tb1596 2.308 . S
O1644 C1659 1.266 . S
O1645 Tb1607 2.393 . S
O1645 C1659 1.248 . S
O1646 Tb1607 2.465 1_455 S
O1646 C1671 1.264 . S
O1647 Tb1607 2.387 . S
O1647 C1663 1.264 . S
O1648 Tb1596 2.349 . S
O1648 C1663 1.243 . S
O1649 Tb1607 2.428 1_455 S
O1649 C1671 1.256 . S
O1650 Tb1607 2.308 . S
O1650 C1670 1.266 . S
O1651 Tb1596 2.393 . S
O1651 C1670 1.248 . S
C1652 O1641 1.264 . S
C1652 O1642 1.243 . S
C1653 C1656 1.399 . S
C1653 C1658 1.383 . S
C1653 C1660 1.496 . S
C1654 C1655 1.399 . S
C1654 C1658 1.389 . S
C1655 C1654 1.399 . S
C1655 C1657 1.380 . S
C1655 H1672 0.929 . S
C1656 C1653 1.399 . S
C1656 C1657 1.392 . S
C1656 H1673 0.929 . S
C1657 C1655 1.380 . S
C1657 C1656 1.392 . S
C1657 H1674 0.929 . S
C1658 C1653 1.383 . S
C1658 C1654 1.389 . S
C1658 H1675 0.931 . S
C1659 O1644 1.266 . S
C1659 O1645 1.248 . S
C1660 Tb1596 2.802 . S
C1660 O1640 1.264 . S
C1660 O1643 1.256 . S
C1660 C1653 1.496 . S
C1661 C1628 1.448 . S
C1661 H1638 0.930 . S
C1661 C1662 1.328 . S
C1662 C1633 1.427 . S
C1662 H1639 0.929 . S
C1662 C1661 1.328 . S
C1663 O1647 1.264 . S
C1663 O1648 1.243 . S
C1664 C1667 1.399 . S
C1664 C1668 1.383 . S
C1664 C1671 1.496 . S
C1665 C1666 1.399 . S
C1665 C1668 1.389 . S
C1666 C1665 1.399 . S
C1666 C1669 1.380 . S
C1666 H1676 0.929 . S
C1667 C1664 1.399 . S
C1667 C1669 1.392 . S
C1667 H1677 0.929 . S
C1668 C1664 1.383 . S
C1668 C1665 1.389 . S
C1668 H1678 0.931 . S
C1669 C1666 1.380 . S
C1669 C1667 1.392 . S
C1669 H1679 0.929 . S
C1670 O1650 1.266 . S
C1670 O1651 1.248 . S
C1671 Tb1607 2.802 1_455 S
C1671 O1646 1.264 . S
C1671 O1649 1.256 . S
C1671 C1664 1.496 . S
H1672 C1655 0.929 . S
H1673 C1656 0.929 . S
H1674 C1657 0.929 . S
H1675 C1658 0.931 . S
H1676 C1666 0.929 . S
H1677 C1667 0.929 . S
H1678 C1668 0.931 . S
H1679 C1669 0.929 . S
Tb1680 N1709 2.617 . S
Tb1680 N1715 2.572 . S
Tb1680 O1724 2.465 . S
Tb1680 O1725 2.387 . S
Tb1680 O1727 2.428 . S
Tb1680 O1728 2.308 . S
Tb1680 O1732 2.349 . S
Tb1680 O1735 2.393 . S
Tb1680 C1744 2.802 . S
C1681 N1682 1.379 . S
C1681 C1684 1.416 . S
C1681 C1688 1.424 . S
N1682 C1681 1.379 . S
N1682 C1685 1.334 . S
N1682 Tb1691 2.617 . S
C1683 C1685 1.390 . S
C1683 C1686 1.339 . S
C1683 H1703 0.930 . S
C1684 C1681 1.416 . S
C1684 C1686 1.416 . S
C1684 C1690 1.448 . S
C1685 N1682 1.334 . S
C1685 C1683 1.390 . S
C1685 H1696 0.930 . S
C1686 C1683 1.339 . S
C1686 C1684 1.416 . S
C1686 H1707 0.930 . S
C1687 C1688 1.413 . S
C1687 C1689 1.427 . S
C1687 C1693 1.416 . S
C1688 C1681 1.424 . S
C1688 C1687 1.413 . S
C1688 N1692 1.361 . S
C1689 C1687 1.427 . S
C1689 C1690 1.328 . S
C1689 H1704 0.929 . S
C1690 C1684 1.448 . S
C1690 C1689 1.328 . S
C1690 H1705 0.930 . S
Tb1691 N1682 2.617 . S
Tb1691 N1692 2.572 . S
Tb1691 O1726 2.349 . S
Tb1691 O1729 2.393 . S
Tb1691 O1730 2.465 . S
Tb1691 O1731 2.387 . S
Tb1691 O1733 2.428 . S
Tb1691 O1734 2.308 . S
Tb1691 C1755 2.802 . S
N1692 C1688 1.361 . S
N1692 Tb1691 2.572 . S
N1692 C1694 1.340 . S
C1693 C1687 1.416 . S
C1693 C1695 1.332 . S
C1693 H1701 0.931 . S
C1694 N1692 1.340 . S
C1694 C1695 1.407 . S
C1694 H1700 0.930 . S
C1695 C1693 1.332 . S
C1695 C1694 1.407 . S
C1695 H1697 0.929 . S
H1696 C1685 0.930 . S
H1697 C1695 0.929 . S
H1698 C1713 0.930 . S
H1699 C1720 0.929 . S
H1700 C1694 0.930 . S
H1701 C1693 0.931 . S
H1702 C1716 0.930 . S
H1703 C1683 0.930 . S
H1704 C1689 0.929 . S
H1705 C1690 0.930 . S
H1706 C1711 0.930 . S
H1707 C1686 0.930 . S
H1708 C1719 0.931 . S
N1709 Tb1680 2.617 . S
N1709 C1710 1.379 . S
N1709 C1713 1.334 . S
C1710 N1709 1.379 . S
C1710 C1712 1.416 . S
C1710 C1718 1.424 . S
C1711 H1706 0.930 . S
C1711 C1713 1.390 . S
C1711 C1714 1.339 . S
C1712 C1710 1.416 . S
C1712 C1714 1.416 . S
C1712 C1745 1.448 . S
C1713 H1698 0.930 . S
C1713 N1709 1.334 . S
C1713 C1711 1.390 . S
C1714 C1711 1.339 . S
C1714 C1712 1.416 . S
C1714 H1721 0.930 . S
N1715 Tb1680 2.572 . S
N1715 C1716 1.340 . S
N1715 C1718 1.361 . S
C1716 H1702 0.930 . S
C1716 N1715 1.340 . S
C1716 C1720 1.407 . S
C1717 C1718 1.413 . S
C1717 C1719 1.416 . S
C1717 C1746 1.427 . S
C1718 C1710 1.424 . S
C1718 N1715 1.361 . S
C1718 C1717 1.413 . S
C1719 H1708 0.931 . S
C1719 C1717 1.416 . S
C1719 C1720 1.332 . S
C1720 H1699 0.929 . S
C1720 C1716 1.407 . S
C1720 C1719 1.332 . S
H1721 C1714 0.930 . S
H1722 C1745 0.930 . S
H1723 C1746 0.929 . S
O1724 Tb1680 2.465 . S
O1724 C1744 1.264 . S
O1725 Tb1680 2.387 . S
O1725 C1736 1.264 . S
O1726 Tb1691 2.349 . S
O1726 C1736 1.243 . S
O1727 Tb1680 2.428 . S
O1727 C1744 1.256 . S
O1728 Tb1680 2.308 . S
O1728 C1743 1.266 . S
O1729 Tb1691 2.393 . S
O1729 C1743 1.248 . S
O1730 Tb1691 2.465 . S
O1730 C1755 1.264 . S
O1731 Tb1691 2.387 . S
O1731 C1747 1.264 . S
O1732 Tb1680 2.349 . S
O1732 C1747 1.243 . S
O1733 Tb1691 2.428 . S
O1733 C1755 1.256 . S
O1734 Tb1691 2.308 . S
O1734 C1754 1.266 . S
O1735 Tb1680 2.393 . S
O1735 C1754 1.248 . S
C1736 O1725 1.264 . S
C1736 O1726 1.243 . S
C1737 C1740 1.399 . S
C1737 C1742 1.383 . S
C1737 C1744 1.496 . S
C1738 C1739 1.399 . S
C1738 C1742 1.389 . S
C1739 C1738 1.399 . S
C1739 C1741 1.380 . S
C1739 H1756 0.929 . S
C1740 C1737 1.399 . S
C1740 C1741 1.392 . S
C1740 H1757 0.929 . S
C1741 C1739 1.380 . S
C1741 C1740 1.392 . S
C1741 H1758 0.929 . S
C1742 C1737 1.383 . S
C1742 C1738 1.389 . S
C1742 H1759 0.931 . S
C1743 O1728 1.266 . S
C1743 O1729 1.248 . S
C1744 Tb1680 2.802 . S
C1744 O1724 1.264 . S
C1744 O1727 1.256 . S
C1744 C1737 1.496 . S
C1745 C1712 1.448 . S
C1745 H1722 0.930 . S
C1745 C1746 1.328 . S
C1746 C1717 1.427 . S
C1746 H1723 0.929 . S
C1746 C1745 1.328 . S
C1747 O1731 1.264 . S
C1747 O1732 1.243 . S
C1748 C1751 1.399 . S
C1748 C1752 1.383 . S
C1748 C1755 1.496 . S
C1749 C1750 1.399 . S
C1749 C1752 1.389 . S
C1750 C1749 1.399 . S
C1750 C1753 1.380 . S
C1750 H1760 0.929 . S
C1751 C1748 1.399 . S
C1751 C1753 1.392 . S
C1751 H1761 0.929 . S
C1752 C1748 1.383 . S
C1752 C1749 1.389 . S
C1752 H1762 0.931 . S
C1753 C1750 1.380 . S
C1753 C1751 1.392 . S
C1753 H1763 0.929 . S
C1754 O1734 1.266 . S
C1754 O1735 1.248 . S
C1755 Tb1691 2.802 . S
C1755 O1730 1.264 . S
C1755 O1733 1.256 . S
C1755 C1748 1.496 . S
H1756 C1739 0.929 . S
H1757 C1740 0.929 . S
H1758 C1741 0.929 . S
H1759 C1742 0.931 . S
H1760 C1750 0.929 . S
H1761 C1751 0.929 . S
H1762 C1752 0.931 . S
H1763 C1753 0.929 . S
Tb1764 N1793 2.617 . S
Tb1764 N1799 2.572 . S
Tb1764 O1808 2.465 . S
Tb1764 O1809 2.387 . S
Tb1764 O1811 2.428 . S
Tb1764 O1812 2.308 . S
Tb1764 O1816 2.349 . S
Tb1764 O1819 2.393 . S
Tb1764 C1828 2.802 . S
C1765 N1766 1.379 . S
C1765 C1768 1.416 . S
C1765 C1772 1.424 . S
N1766 C1765 1.379 . S
N1766 C1769 1.334 1_455 S
N1766 Tb1775 2.617 1_455 S
C1767 C1769 1.390 . S
C1767 C1770 1.339 1_655 S
C1767 H1787 0.930 . S
C1768 C1765 1.416 . S
C1768 C1770 1.416 . S
C1768 C1774 1.448 . S
C1769 N1766 1.334 1_655 S
C1769 C1767 1.390 . S
C1769 H1780 0.930 . S
C1770 C1767 1.339 1_455 S
C1770 C1768 1.416 . S
C1770 H1791 0.930 . S
C1771 C1772 1.413 . S
C1771 C1773 1.427 . S
C1771 C1777 1.416 . S
C1772 C1765 1.424 . S
C1772 C1771 1.413 . S
C1772 N1776 1.361 . S
C1773 C1771 1.427 . S
C1773 C1774 1.328 . S
C1773 H1788 0.929 . S
C1774 C1768 1.448 . S
C1774 C1773 1.328 . S
C1774 H1789 0.930 . S
Tb1775 N1766 2.617 1_655 S
Tb1775 N1776 2.572 1_655 S
Tb1775 O1810 2.349 . S
Tb1775 O1813 2.393 . S
Tb1775 O1814 2.465 1_655 S
Tb1775 O1815 2.387 . S
Tb1775 O1817 2.428 1_655 S
Tb1775 O1818 2.308 . S
Tb1775 C1839 2.802 1_655 S
N1776 C1772 1.361 . S
N1776 Tb1775 2.572 1_455 S
N1776 C1778 1.340 . S
C1777 C1771 1.416 . S
C1777 C1779 1.332 . S
C1777 H1785 0.931 . S
C1778 N1776 1.340 . S
C1778 C1779 1.407 . S
C1778 H1784 0.930 . S
C1779 C1777 1.332 . S
C1779 C1778 1.407 . S
C1779 H1781 0.929 . S
H1780 C1769 0.930 . S
H1781 C1779 0.929 . S
H1782 C1797 0.930 . S
H1783 C1804 0.929 . S
H1784 C1778 0.930 . S
H1785 C1777 0.931 . S
H1786 C1800 0.930 . S
H1787 C1767 0.930 . S
H1788 C1773 0.929 . S
H1789 C1774 0.930 . S
H1790 C1795 0.930 . S
H1791 C1770 0.930 . S
H1792 C1803 0.931 . S
N1793 Tb1764 2.617 . S
N1793 C1794 1.379 . S
N1793 C1797 1.334 . S
C1794 N1793 1.379 . S
C1794 C1796 1.416 . S
C1794 C1802 1.424 . S
C1795 H1790 0.930 . S
C1795 C1797 1.390 . S
C1795 C1798 1.339 . S
C1796 C1794 1.416 . S
C1796 C1798 1.416 . S
C1796 C1829 1.448 . S
C1797 H1782 0.930 . S
C1797 N1793 1.334 . S
C1797 C1795 1.390 . S
C1798 C1795 1.339 . S
C1798 C1796 1.416 . S
C1798 H1805 0.930 . S
N1799 Tb1764 2.572 . S
N1799 C1800 1.340 . S
N1799 C1802 1.361 . S
C1800 H1786 0.930 . S
C1800 N1799 1.340 . S
C1800 C1804 1.407 . S
C1801 C1802 1.413 . S
C1801 C1803 1.416 . S
C1801 C1830 1.427 . S
C1802 C1794 1.424 . S
C1802 N1799 1.361 . S
C1802 C1801 1.413 . S
C1803 H1792 0.931 . S
C1803 C1801 1.416 . S
C1803 C1804 1.332 . S
C1804 H1783 0.929 . S
C1804 C1800 1.407 . S
C1804 C1803 1.332 . S
H1805 C1798 0.930 . S
H1806 C1829 0.930 . S
H1807 C1830 0.929 . S
O1808 Tb1764 2.465 . S
O1808 C1828 1.264 . S
O1809 Tb1764 2.387 . S
O1809 C1820 1.264 . S
O1810 Tb1775 2.349 . S
O1810 C1820 1.243 . S
O1811 Tb1764 2.428 . S
O1811 C1828 1.256 . S
O1812 Tb1764 2.308 . S
O1812 C1827 1.266 . S
O1813 Tb1775 2.393 . S
O1813 C1827 1.248 . S
O1814 Tb1775 2.465 1_455 S
O1814 C1839 1.264 . S
O1815 Tb1775 2.387 . S
O1815 C1831 1.264 . S
O1816 Tb1764 2.349 . S
O1816 C1831 1.243 . S
O1817 Tb1775 2.428 1_455 S
O1817 C1839 1.256 . S
O1818 Tb1775 2.308 . S
O1818 C1838 1.266 . S
O1819 Tb1764 2.393 . S
O1819 C1838 1.248 . S
C1820 O1809 1.264 . S
C1820 O1810 1.243 . S
C1821 C1824 1.399 . S
C1821 C1826 1.383 . S
C1821 C1828 1.496 . S
C1822 C1823 1.399 . S
C1822 C1826 1.389 . S
C1823 C1822 1.399 . S
C1823 C1825 1.380 . S
C1823 H1840 0.929 . S
C1824 C1821 1.399 . S
C1824 C1825 1.392 . S
C1824 H1841 0.929 . S
C1825 C1823 1.380 . S
C1825 C1824 1.392 . S
C1825 H1842 0.929 . S
C1826 C1821 1.383 . S
C1826 C1822 1.389 . S
C1826 H1843 0.931 . S
C1827 O1812 1.266 . S
C1827 O1813 1.248 . S
C1828 Tb1764 2.802 . S
C1828 O1808 1.264 . S
C1828 O1811 1.256 . S
C1828 C1821 1.496 . S
C1829 C1796 1.448 . S
C1829 H1806 0.930 . S
C1829 C1830 1.328 . S
C1830 C1801 1.427 . S
C1830 H1807 0.929 . S
C1830 C1829 1.328 . S
C1831 O1815 1.264 . S
C1831 O1816 1.243 . S
C1832 C1835 1.399 . S
C1832 C1836 1.383 . S
C1832 C1839 1.496 . S
C1833 C1834 1.399 . S
C1833 C1836 1.389 . S
C1834 C1833 1.399 . S
C1834 C1837 1.380 . S
C1834 H1844 0.929 . S
C1835 C1832 1.399 . S
C1835 C1837 1.392 . S
C1835 H1845 0.929 . S
C1836 C1832 1.383 . S
C1836 C1833 1.389 . S
C1836 H1846 0.931 . S
C1837 C1834 1.380 . S
C1837 C1835 1.392 . S
C1837 H1847 0.929 . S
C1838 O1818 1.266 . S
C1838 O1819 1.248 . S
C1839 Tb1775 2.802 1_455 S
C1839 O1814 1.264 . S
C1839 O1817 1.256 . S
C1839 C1832 1.496 . S
H1840 C1823 0.929 . S
H1841 C1824 0.929 . S
H1842 C1825 0.929 . S
H1843 C1826 0.931 . S
H1844 C1834 0.929 . S
H1845 C1835 0.929 . S
H1846 C1836 0.931 . S
H1847 C1837 0.929 . S
Tb1848 N1877 2.617 . S
Tb1848 N1883 2.572 . S
Tb1848 O1892 2.465 . S
Tb1848 O1893 2.387 . S
Tb1848 O1895 2.428 . S
Tb1848 O1896 2.308 . S
Tb1848 O1900 2.349 . S
Tb1848 O1903 2.393 . S
Tb1848 C1912 2.802 . S
C1849 N1850 1.379 . S
C1849 C1852 1.416 . S
C1849 C1856 1.424 . S
N1850 C1849 1.379 . S
N1850 C1853 1.334 . S
N1850 Tb1859 2.617 . S
C1851 C1853 1.390 . S
C1851 C1854 1.339 . S
C1851 H1871 0.930 . S
C1852 C1849 1.416 . S
C1852 C1854 1.416 . S
C1852 C1858 1.448 . S
C1853 N1850 1.334 . S
C1853 C1851 1.390 . S
C1853 H1864 0.930 . S
C1854 C1851 1.339 . S
C1854 C1852 1.416 . S
C1854 H1875 0.930 . S
C1855 C1856 1.413 . S
C1855 C1857 1.427 . S
C1855 C1861 1.416 . S
C1856 C1849 1.424 . S
C1856 C1855 1.413 . S
C1856 N1860 1.361 . S
C1857 C1855 1.427 . S
C1857 C1858 1.328 . S
C1857 H1872 0.929 . S
C1858 C1852 1.448 . S
C1858 C1857 1.328 . S
C1858 H1873 0.930 . S
Tb1859 N1850 2.617 . S
Tb1859 N1860 2.572 . S
Tb1859 O1894 2.349 . S
Tb1859 O1897 2.393 . S
Tb1859 O1898 2.465 . S
Tb1859 O1899 2.387 . S
Tb1859 O1901 2.428 . S
Tb1859 O1902 2.308 . S
Tb1859 C1923 2.802 . S
N1860 C1856 1.361 . S
N1860 Tb1859 2.572 . S
N1860 C1862 1.340 . S
C1861 C1855 1.416 . S
C1861 C1863 1.332 . S
C1861 H1869 0.931 . S
C1862 N1860 1.340 . S
C1862 C1863 1.407 . S
C1862 H1868 0.930 . S
C1863 C1861 1.332 . S
C1863 C1862 1.407 . S
C1863 H1865 0.929 . S
H1864 C1853 0.930 . S
H1865 C1863 0.929 . S
H1866 C1881 0.930 . S
H1867 C1888 0.929 . S
H1868 C1862 0.930 . S
H1869 C1861 0.931 . S
H1870 C1884 0.930 . S
H1871 C1851 0.930 . S
H1872 C1857 0.929 . S
H1873 C1858 0.930 . S
H1874 C1879 0.930 . S
H1875 C1854 0.930 . S
H1876 C1887 0.931 . S
N1877 Tb1848 2.617 . S
N1877 C1878 1.379 . S
N1877 C1881 1.334 . S
C1878 N1877 1.379 . S
C1878 C1880 1.416 . S
C1878 C1886 1.424 . S
C1879 H1874 0.930 . S
C1879 C1881 1.390 . S
C1879 C1882 1.339 . S
C1880 C1878 1.416 . S
C1880 C1882 1.416 . S
C1880 C1913 1.448 . S
C1881 H1866 0.930 . S
C1881 N1877 1.334 . S
C1881 C1879 1.390 . S
C1882 C1879 1.339 . S
C1882 C1880 1.416 . S
C1882 H1889 0.930 . S
N1883 Tb1848 2.572 . S
N1883 C1884 1.340 . S
N1883 C1886 1.361 . S
C1884 H1870 0.930 . S
C1884 N1883 1.340 . S
C1884 C1888 1.407 . S
C1885 C1886 1.413 . S
C1885 C1887 1.416 . S
C1885 C1914 1.427 . S
C1886 C1878 1.424 . S
C1886 N1883 1.361 . S
C1886 C1885 1.413 . S
C1887 H1876 0.931 . S
C1887 C1885 1.416 . S
C1887 C1888 1.332 . S
C1888 H1867 0.929 . S
C1888 C1884 1.407 . S
C1888 C1887 1.332 . S
H1889 C1882 0.930 . S
H1890 C1913 0.930 . S
H1891 C1914 0.929 . S
O1892 Tb1848 2.465 . S
O1892 C1912 1.264 . S
O1893 Tb1848 2.387 . S
O1893 C1904 1.264 . S
O1894 Tb1859 2.349 . S
O1894 C1904 1.243 . S
O1895 Tb1848 2.428 . S
O1895 C1912 1.256 . S
O1896 Tb1848 2.308 . S
O1896 C1911 1.266 . S
O1897 Tb1859 2.393 . S
O1897 C1911 1.248 . S
O1898 Tb1859 2.465 . S
O1898 C1923 1.264 . S
O1899 Tb1859 2.387 . S
O1899 C1915 1.264 . S
O1900 Tb1848 2.349 . S
O1900 C1915 1.243 . S
O1901 Tb1859 2.428 . S
O1901 C1923 1.256 . S
O1902 Tb1859 2.308 . S
O1902 C1922 1.266 . S
O1903 Tb1848 2.393 . S
O1903 C1922 1.248 . S
C1904 O1893 1.264 . S
C1904 O1894 1.243 . S
C1905 C1908 1.399 . S
C1905 C1910 1.383 . S
C1905 C1912 1.496 . S
C1906 C1907 1.399 . S
C1906 C1910 1.389 . S
C1907 C1906 1.399 . S
C1907 C1909 1.380 . S
C1907 H1924 0.929 . S
C1908 C1905 1.399 . S
C1908 C1909 1.392 . S
C1908 H1925 0.929 . S
C1909 C1907 1.380 . S
C1909 C1908 1.392 . S
C1909 H1926 0.929 . S
C1910 C1905 1.383 . S
C1910 C1906 1.389 . S
C1910 H1927 0.931 . S
C1911 O1896 1.266 . S
C1911 O1897 1.248 . S
C1912 Tb1848 2.802 . S
C1912 O1892 1.264 . S
C1912 O1895 1.256 . S
C1912 C1905 1.496 . S
C1913 C1880 1.448 . S
C1913 H1890 0.930 . S
C1913 C1914 1.328 . S
C1914 C1885 1.427 . S
C1914 H1891 0.929 . S
C1914 C1913 1.328 . S
C1915 O1899 1.264 . S
C1915 O1900 1.243 . S
C1916 C1919 1.399 . S
C1916 C1920 1.383 . S
C1916 C1923 1.496 . S
C1917 C1918 1.399 . S
C1917 C1920 1.389 . S
C1918 C1917 1.399 . S
C1918 C1921 1.380 . S
C1918 H1928 0.929 . S
C1919 C1916 1.399 . S
C1919 C1921 1.392 . S
C1919 H1929 0.929 . S
C1920 C1916 1.383 . S
C1920 C1917 1.389 . S
C1920 H1930 0.931 . S
C1921 C1918 1.380 . S
C1921 C1919 1.392 . S
C1921 H1931 0.929 . S
C1922 O1902 1.266 . S
C1922 O1903 1.248 . S
C1923 Tb1859 2.802 . S
C1923 O1898 1.264 . S
C1923 O1901 1.256 . S
C1923 C1916 1.496 . S
H1924 C1907 0.929 . S
H1925 C1908 0.929 . S
H1926 C1909 0.929 . S
H1927 C1910 0.931 . S
H1928 C1918 0.929 . S
H1929 C1919 0.929 . S
H1930 C1920 0.931 . S
H1931 C1921 0.929 . S
Tb1932 N1961 2.617 . S
Tb1932 N1967 2.572 . S
Tb1932 O1976 2.465 . S
Tb1932 O1977 2.387 . S
Tb1932 O1979 2.428 . S
Tb1932 O1980 2.308 . S
Tb1932 O1984 2.349 . S
Tb1932 O1987 2.393 . S
Tb1932 C1996 2.802 . S
C1933 N1934 1.379 . S
C1933 C1936 1.416 . S
C1933 C1940 1.424 . S
N1934 C1933 1.379 . S
N1934 C1937 1.334 . S
N1934 Tb1943 2.617 . S
C1935 C1937 1.390 . S
C1935 C1938 1.339 . S
C1935 H1955 0.930 . S
C1936 C1933 1.416 . S
C1936 C1938 1.416 . S
C1936 C1942 1.448 . S
C1937 N1934 1.334 . S
C1937 C1935 1.390 . S
C1937 H1948 0.930 . S
C1938 C1935 1.339 . S
C1938 C1936 1.416 . S
C1938 H1959 0.930 . S
C1939 C1940 1.413 . S
C1939 C1941 1.427 . S
C1939 C1945 1.416 . S
C1940 C1933 1.424 . S
C1940 C1939 1.413 . S
C1940 N1944 1.361 . S
C1941 C1939 1.427 . S
C1941 C1942 1.328 . S
C1941 H1956 0.929 . S
C1942 C1936 1.448 . S
C1942 C1941 1.328 . S
C1942 H1957 0.930 . S
Tb1943 N1934 2.617 . S
Tb1943 N1944 2.572 . S
Tb1943 O1978 2.349 . S
Tb1943 O1981 2.393 . S
Tb1943 O1982 2.465 . S
Tb1943 O1983 2.387 . S
Tb1943 O1985 2.428 . S
Tb1943 O1986 2.308 . S
Tb1943 C2007 2.802 . S
N1944 C1940 1.361 . S
N1944 Tb1943 2.572 . S
N1944 C1946 1.340 . S
C1945 C1939 1.416 . S
C1945 C1947 1.332 . S
C1945 H1953 0.931 . S
C1946 N1944 1.340 . S
C1946 C1947 1.407 . S
C1946 H1952 0.930 . S
C1947 C1945 1.332 . S
C1947 C1946 1.407 . S
C1947 H1949 0.929 . S
H1948 C1937 0.930 . S
H1949 C1947 0.929 . S
H1950 C1965 0.930 . S
H1951 C1972 0.929 . S
H1952 C1946 0.930 . S
H1953 C1945 0.931 . S
H1954 C1968 0.930 . S
H1955 C1935 0.930 . S
H1956 C1941 0.929 . S
H1957 C1942 0.930 . S
H1958 C1963 0.930 . S
H1959 C1938 0.930 . S
H1960 C1971 0.931 . S
N1961 Tb1932 2.617 . S
N1961 C1962 1.379 . S
N1961 C1965 1.334 . S
C1962 N1961 1.379 . S
C1962 C1964 1.416 . S
C1962 C1970 1.424 . S
C1963 H1958 0.930 . S
C1963 C1965 1.390 . S
C1963 C1966 1.339 . S
C1964 C1962 1.416 . S
C1964 C1966 1.416 . S
C1964 C1997 1.448 . S
C1965 H1950 0.930 . S
C1965 N1961 1.334 . S
C1965 C1963 1.390 . S
C1966 C1963 1.339 . S
C1966 C1964 1.416 . S
C1966 H1973 0.930 . S
N1967 Tb1932 2.572 . S
N1967 C1968 1.340 . S
N1967 C1970 1.361 . S
C1968 H1954 0.930 . S
C1968 N1967 1.340 . S
C1968 C1972 1.407 . S
C1969 C1970 1.413 . S
C1969 C1971 1.416 . S
C1969 C1998 1.427 . S
C1970 C1962 1.424 . S
C1970 N1967 1.361 . S
C1970 C1969 1.413 . S
C1971 H1960 0.931 . S
C1971 C1969 1.416 . S
C1971 C1972 1.332 . S
C1972 H1951 0.929 . S
C1972 C1968 1.407 . S
C1972 C1971 1.332 . S
H1973 C1966 0.930 . S
H1974 C1997 0.930 . S
H1975 C1998 0.929 . S
O1976 Tb1932 2.465 . S
O1976 C1996 1.264 . S
O1977 Tb1932 2.387 . S
O1977 C1988 1.264 . S
O1978 Tb1943 2.349 . S
O1978 C1988 1.243 . S
O1979 Tb1932 2.428 . S
O1979 C1996 1.256 . S
O1980 Tb1932 2.308 . S
O1980 C1995 1.266 . S
O1981 Tb1943 2.393 . S
O1981 C1995 1.248 . S
O1982 Tb1943 2.465 . S
O1982 C2007 1.264 . S
O1983 Tb1943 2.387 . S
O1983 C1999 1.264 . S
O1984 Tb1932 2.349 . S
O1984 C1999 1.243 . S
O1985 Tb1943 2.428 . S
O1985 C2007 1.256 . S
O1986 Tb1943 2.308 . S
O1986 C2006 1.266 . S
O1987 Tb1932 2.393 . S
O1987 C2006 1.248 . S
C1988 O1977 1.264 . S
C1988 O1978 1.243 . S
C1989 C1992 1.399 . S
C1989 C1994 1.383 . S
C1989 C1996 1.496 . S
C1990 C1991 1.399 . S
C1990 C1994 1.389 . S
C1991 C1990 1.399 . S
C1991 C1993 1.380 . S
C1991 H2008 0.929 . S
C1992 C1989 1.399 . S
C1992 C1993 1.392 . S
C1992 H2009 0.929 . S
C1993 C1991 1.380 . S
C1993 C1992 1.392 . S
C1993 H2010 0.929 . S
C1994 C1989 1.383 . S
C1994 C1990 1.389 . S
C1994 H2011 0.931 . S
C1995 O1980 1.266 . S
C1995 O1981 1.248 . S
C1996 Tb1932 2.802 . S
C1996 O1976 1.264 . S
C1996 O1979 1.256 . S
C1996 C1989 1.496 . S
C1997 C1964 1.448 . S
C1997 H1974 0.930 . S
C1997 C1998 1.328 . S
C1998 C1969 1.427 . S
C1998 H1975 0.929 . S
C1998 C1997 1.328 . S
C1999 O1983 1.264 . S
C1999 O1984 1.243 . S
C2000 C2003 1.399 . S
C2000 C2004 1.383 . S
C2000 C2007 1.496 . S
C2001 C2002 1.399 . S
C2001 C2004 1.389 . S
C2002 C2001 1.399 . S
C2002 C2005 1.380 . S
C2002 H2012 0.929 . S
C2003 C2000 1.399 . S
C2003 C2005 1.392 . S
C2003 H2013 0.929 . S
C2004 C2000 1.383 . S
C2004 C2001 1.389 . S
C2004 H2014 0.931 . S
C2005 C2002 1.380 . S
C2005 C2003 1.392 . S
C2005 H2015 0.929 . S
C2006 O1986 1.266 . S
C2006 O1987 1.248 . S
C2007 Tb1943 2.802 . S
C2007 O1982 1.264 . S
C2007 O1985 1.256 . S
C2007 C2000 1.496 . S
H2008 C1991 0.929 . S
H2009 C1992 0.929 . S
H2010 C1993 0.929 . S
H2011 C1994 0.931 . S
H2012 C2002 0.929 . S
H2013 C2003 0.929 . S
H2014 C2004 0.931 . S
H2015 C2005 0.929 . S
Tb2016 N2045 2.617 . S
Tb2016 N2051 2.572 . S
Tb2016 O2060 2.465 . S
Tb2016 O2061 2.387 . S
Tb2016 O2063 2.428 . S
Tb2016 O2064 2.308 . S
Tb2016 O2068 2.349 . S
Tb2016 O2071 2.393 . S
Tb2016 C2080 2.802 . S
C2017 N2018 1.379 . S
C2017 C2020 1.416 . S
C2017 C2024 1.424 . S
N2018 C2017 1.379 . S
N2018 C2021 1.334 . S
N2018 Tb2027 2.617 . S
C2019 C2021 1.390 . S
C2019 C2022 1.339 . S
C2019 H2039 0.930 . S
C2020 C2017 1.416 . S
C2020 C2022 1.416 . S
C2020 C2026 1.448 . S
C2021 N2018 1.334 . S
C2021 C2019 1.390 . S
C2021 H2032 0.930 . S
C2022 C2019 1.339 . S
C2022 C2020 1.416 . S
C2022 H2043 0.930 . S
C2023 C2024 1.413 . S
C2023 C2025 1.427 . S
C2023 C2029 1.416 . S
C2024 C2017 1.424 . S
C2024 C2023 1.413 . S
C2024 N2028 1.361 . S
C2025 C2023 1.427 . S
C2025 C2026 1.328 . S
C2025 H2040 0.929 . S
C2026 C2020 1.448 . S
C2026 C2025 1.328 . S
C2026 H2041 0.930 . S
Tb2027 N2018 2.617 . S
Tb2027 N2028 2.572 . S
Tb2027 O2062 2.349 . S
Tb2027 O2065 2.393 . S
Tb2027 O2066 2.465 . S
Tb2027 O2067 2.387 . S
Tb2027 O2069 2.428 . S
Tb2027 O2070 2.308 . S
Tb2027 C2091 2.802 . S
N2028 C2024 1.361 . S
N2028 Tb2027 2.572 . S
N2028 C2030 1.340 . S
C2029 C2023 1.416 . S
C2029 C2031 1.332 . S
C2029 H2037 0.931 . S
C2030 N2028 1.340 . S
C2030 C2031 1.407 . S
C2030 H2036 0.930 . S
C2031 C2029 1.332 . S
C2031 C2030 1.407 . S
C2031 H2033 0.929 . S
H2032 C2021 0.930 . S
H2033 C2031 0.929 . S
H2034 C2049 0.930 . S
H2035 C2056 0.929 . S
H2036 C2030 0.930 . S
H2037 C2029 0.931 . S
H2038 C2052 0.930 . S
H2039 C2019 0.930 . S
H2040 C2025 0.929 . S
H2041 C2026 0.930 . S
H2042 C2047 0.930 . S
H2043 C2022 0.930 . S
H2044 C2055 0.931 . S
N2045 Tb2016 2.617 . S
N2045 C2046 1.379 . S
N2045 C2049 1.334 . S
C2046 N2045 1.379 . S
C2046 C2048 1.416 . S
C2046 C2054 1.424 . S
C2047 H2042 0.930 . S
C2047 C2049 1.390 . S
C2047 C2050 1.339 . S
C2048 C2046 1.416 . S
C2048 C2050 1.416 . S
C2048 C2081 1.448 . S
C2049 H2034 0.930 . S
C2049 N2045 1.334 . S
C2049 C2047 1.390 . S
C2050 C2047 1.339 . S
C2050 C2048 1.416 . S
C2050 H2057 0.930 . S
N2051 Tb2016 2.572 . S
N2051 C2052 1.340 . S
N2051 C2054 1.361 . S
C2052 H2038 0.930 . S
C2052 N2051 1.340 . S
C2052 C2056 1.407 . S
C2053 C2054 1.413 . S
C2053 C2055 1.416 . S
C2053 C2082 1.427 . S
C2054 C2046 1.424 . S
C2054 N2051 1.361 . S
C2054 C2053 1.413 . S
C2055 H2044 0.931 . S
C2055 C2053 1.416 . S
C2055 C2056 1.332 . S
C2056 H2035 0.929 . S
C2056 C2052 1.407 . S
C2056 C2055 1.332 . S
H2057 C2050 0.930 . S
H2058 C2081 0.930 . S
H2059 C2082 0.929 . S
O2060 Tb2016 2.465 . S
O2060 C2080 1.264 . S
O2061 Tb2016 2.387 . S
O2061 C2072 1.264 . S
O2062 Tb2027 2.349 . S
O2062 C2072 1.243 . S
O2063 Tb2016 2.428 . S
O2063 C2080 1.256 . S
O2064 Tb2016 2.308 . S
O2064 C2079 1.266 . S
O2065 Tb2027 2.393 . S
O2065 C2079 1.248 . S
O2066 Tb2027 2.465 . S
O2066 C2091 1.264 . S
O2067 Tb2027 2.387 . S
O2067 C2083 1.264 . S
O2068 Tb2016 2.349 . S
O2068 C2083 1.243 . S
O2069 Tb2027 2.428 . S
O2069 C2091 1.256 . S
O2070 Tb2027 2.308 . S
O2070 C2090 1.266 . S
O2071 Tb2016 2.393 . S
O2071 C2090 1.248 . S
C2072 O2061 1.264 . S
C2072 O2062 1.243 . S
C2073 C2076 1.399 . S
C2073 C2078 1.383 . S
C2073 C2080 1.496 . S
C2074 C2075 1.399 . S
C2074 C2078 1.389 . S
C2075 C2074 1.399 . S
C2075 C2077 1.380 . S
C2075 H2092 0.929 . S
C2076 C2073 1.399 . S
C2076 C2077 1.392 . S
C2076 H2093 0.929 . S
C2077 C2075 1.380 . S
C2077 C2076 1.392 . S
C2077 H2094 0.929 . S
C2078 C2073 1.383 . S
C2078 C2074 1.389 . S
C2078 H2095 0.931 . S
C2079 O2064 1.266 . S
C2079 O2065 1.248 . S
C2080 Tb2016 2.802 . S
C2080 O2060 1.264 . S
C2080 O2063 1.256 . S
C2080 C2073 1.496 . S
C2081 C2048 1.448 . S
C2081 H2058 0.930 . S
C2081 C2082 1.328 . S
C2082 C2053 1.427 . S
C2082 H2059 0.929 . S
C2082 C2081 1.328 . S
C2083 O2067 1.264 . S
C2083 O2068 1.243 . S
C2084 C2087 1.399 . S
C2084 C2088 1.383 . S
C2084 C2091 1.496 . S
C2085 C2086 1.399 . S
C2085 C2088 1.389 . S
C2086 C2085 1.399 . S
C2086 C2089 1.380 . S
C2086 H2096 0.929 . S
C2087 C2084 1.399 . S
C2087 C2089 1.392 . S
C2087 H2097 0.929 . S
C2088 C2084 1.383 . S
C2088 C2085 1.389 . S
C2088 H2098 0.931 . S
C2089 C2086 1.380 . S
C2089 C2087 1.392 . S
C2089 H2099 0.929 . S
C2090 O2070 1.266 . S
C2090 O2071 1.248 . S
C2091 Tb2027 2.802 . S
C2091 O2066 1.264 . S
C2091 O2069 1.256 . S
C2091 C2084 1.496 . S
H2092 C2075 0.929 . S
H2093 C2076 0.929 . S
H2094 C2077 0.929 . S
H2095 C2078 0.931 . S
H2096 C2086 0.929 . S
H2097 C2087 0.929 . S
H2098 C2088 0.931 . S
H2099 C2089 0.929 . S
Tb2100 N2129 2.617 . S
Tb2100 N2135 2.572 . S
Tb2100 O2144 2.465 . S
Tb2100 O2145 2.387 . S
Tb2100 O2147 2.428 . S
Tb2100 O2148 2.308 . S
Tb2100 O2152 2.349 . S
Tb2100 O2155 2.393 . S
Tb2100 C2164 2.802 . S
C2101 N2102 1.379 . S
C2101 C2104 1.416 . S
C2101 C2108 1.424 . S
N2102 C2101 1.379 . S
N2102 C2105 1.334 . S
N2102 Tb2111 2.617 . S
C2103 C2105 1.390 . S
C2103 C2106 1.339 . S
C2103 H2123 0.930 . S
C2104 C2101 1.416 . S
C2104 C2106 1.416 . S
C2104 C2110 1.448 . S
C2105 N2102 1.334 . S
C2105 C2103 1.390 . S
C2105 H2116 0.930 . S
C2106 C2103 1.339 . S
C2106 C2104 1.416 . S
C2106 H2127 0.930 . S
C2107 C2108 1.413 . S
C2107 C2109 1.427 . S
C2107 C2113 1.416 . S
C2108 C2101 1.424 . S
C2108 C2107 1.413 . S
C2108 N2112 1.361 . S
C2109 C2107 1.427 . S
C2109 C2110 1.328 . S
C2109 H2124 0.929 . S
C2110 C2104 1.448 . S
C2110 C2109 1.328 . S
C2110 H2125 0.930 . S
Tb2111 N2102 2.617 . S
Tb2111 N2112 2.572 . S
Tb2111 O2146 2.349 . S
Tb2111 O2149 2.393 . S
Tb2111 O2150 2.465 . S
Tb2111 O2151 2.387 . S
Tb2111 O2153 2.428 . S
Tb2111 O2154 2.308 . S
Tb2111 C2175 2.802 . S
N2112 C2108 1.361 . S
N2112 Tb2111 2.572 . S
N2112 C2114 1.340 . S
C2113 C2107 1.416 . S
C2113 C2115 1.332 . S
C2113 H2121 0.931 . S
C2114 N2112 1.340 . S
C2114 C2115 1.407 . S
C2114 H2120 0.930 . S
C2115 C2113 1.332 . S
C2115 C2114 1.407 . S
C2115 H2117 0.929 . S
H2116 C2105 0.930 . S
H2117 C2115 0.929 . S
H2118 C2133 0.930 . S
H2119 C2140 0.929 . S
H2120 C2114 0.930 . S
H2121 C2113 0.931 . S
H2122 C2136 0.930 . S
H2123 C2103 0.930 . S
H2124 C2109 0.929 . S
H2125 C2110 0.930 . S
H2126 C2131 0.930 . S
H2127 C2106 0.930 . S
H2128 C2139 0.931 . S
N2129 Tb2100 2.617 . S
N2129 C2130 1.379 . S
N2129 C2133 1.334 . S
C2130 N2129 1.379 . S
C2130 C2132 1.416 . S
C2130 C2138 1.424 . S
C2131 H2126 0.930 . S
C2131 C2133 1.390 . S
C2131 C2134 1.339 . S
C2132 C2130 1.416 . S
C2132 C2134 1.416 . S
C2132 C2165 1.448 . S
C2133 H2118 0.930 . S
C2133 N2129 1.334 . S
C2133 C2131 1.390 . S
C2134 C2131 1.339 . S
C2134 C2132 1.416 . S
C2134 H2141 0.930 . S
N2135 Tb2100 2.572 . S
N2135 C2136 1.340 . S
N2135 C2138 1.361 . S
C2136 H2122 0.930 . S
C2136 N2135 1.340 . S
C2136 C2140 1.407 . S
C2137 C2138 1.413 . S
C2137 C2139 1.416 . S
C2137 C2166 1.427 . S
C2138 C2130 1.424 . S
C2138 N2135 1.361 . S
C2138 C2137 1.413 . S
C2139 H2128 0.931 . S
C2139 C2137 1.416 . S
C2139 C2140 1.332 . S
C2140 H2119 0.929 . S
C2140 C2136 1.407 . S
C2140 C2139 1.332 . S
H2141 C2134 0.930 . S
H2142 C2165 0.930 . S
H2143 C2166 0.929 . S
O2144 Tb2100 2.465 . S
O2144 C2164 1.264 . S
O2145 Tb2100 2.387 . S
O2145 C2156 1.264 . S
O2146 Tb2111 2.349 . S
O2146 C2156 1.243 . S
O2147 Tb2100 2.428 . S
O2147 C2164 1.256 . S
O2148 Tb2100 2.308 . S
O2148 C2163 1.266 . S
O2149 Tb2111 2.393 . S
O2149 C2163 1.248 . S
O2150 Tb2111 2.465 . S
O2150 C2175 1.264 . S
O2151 Tb2111 2.387 . S
O2151 C2167 1.264 . S
O2152 Tb2100 2.349 . S
O2152 C2167 1.243 . S
O2153 Tb2111 2.428 . S
O2153 C2175 1.256 . S
O2154 Tb2111 2.308 . S
O2154 C2174 1.266 . S
O2155 Tb2100 2.393 . S
O2155 C2174 1.248 . S
C2156 O2145 1.264 . S
C2156 O2146 1.243 . S
C2157 C2160 1.399 . S
C2157 C2162 1.383 . S
C2157 C2164 1.496 . S
C2158 C2159 1.399 . S
C2158 C2162 1.389 . S
C2159 C2158 1.399 . S
C2159 C2161 1.380 . S
C2159 H2176 0.929 . S
C2160 C2157 1.399 . S
C2160 C2161 1.392 . S
C2160 H2177 0.929 . S
C2161 C2159 1.380 . S
C2161 C2160 1.392 . S
C2161 H2178 0.929 . S
C2162 C2157 1.383 . S
C2162 C2158 1.389 . S
C2162 H2179 0.931 . S
C2163 O2148 1.266 . S
C2163 O2149 1.248 . S
C2164 Tb2100 2.802 . S
C2164 O2144 1.264 . S
C2164 O2147 1.256 . S
C2164 C2157 1.496 . S
C2165 C2132 1.448 . S
C2165 H2142 0.930 . S
C2165 C2166 1.328 . S
C2166 C2137 1.427 . S
C2166 H2143 0.929 . S
C2166 C2165 1.328 . S
C2167 O2151 1.264 . S
C2167 O2152 1.243 . S
C2168 C2171 1.399 . S
C2168 C2172 1.383 . S
C2168 C2175 1.496 . S
C2169 C2170 1.399 . S
C2169 C2172 1.389 . S
C2170 C2169 1.399 . S
C2170 C2173 1.380 . S
C2170 H2180 0.929 . S
C2171 C2168 1.399 . S
C2171 C2173 1.392 . S
C2171 H2181 0.929 . S
C2172 C2168 1.383 . S
C2172 C2169 1.389 . S
C2172 H2182 0.931 . S
C2173 C2170 1.380 . S
C2173 C2171 1.392 . S
C2173 H2183 0.929 . S
C2174 O2154 1.266 . S
C2174 O2155 1.248 . S
C2175 Tb2111 2.802 . S
C2175 O2150 1.264 . S
C2175 O2153 1.256 . S
C2175 C2168 1.496 . S
H2176 C2159 0.929 . S
H2177 C2160 0.929 . S
H2178 C2161 0.929 . S
H2179 C2162 0.931 . S
H2180 C2170 0.929 . S
H2181 C2171 0.929 . S
H2182 C2172 0.931 . S
H2183 C2173 0.929 . S
Tb2184 N2213 2.617 . S
Tb2184 N2219 2.572 . S
Tb2184 O2228 2.465 . S
Tb2184 O2229 2.387 . S
Tb2184 O2231 2.428 . S
Tb2184 O2232 2.308 . S
Tb2184 O2236 2.349 . S
Tb2184 O2239 2.393 . S
Tb2184 C2248 2.802 . S
C2185 N2186 1.379 . S
C2185 C2188 1.416 . S
C2185 C2192 1.424 . S
N2186 C2185 1.379 . S
N2186 C2189 1.334 . S
N2186 Tb2195 2.617 . S
C2187 C2189 1.390 . S
C2187 C2190 1.339 . S
C2187 H2207 0.930 . S
C2188 C2185 1.416 . S
C2188 C2190 1.416 . S
C2188 C2194 1.448 . S
C2189 N2186 1.334 . S
C2189 C2187 1.390 . S
C2189 H2200 0.930 . S
C2190 C2187 1.339 . S
C2190 C2188 1.416 . S
C2190 H2211 0.930 . S
C2191 C2192 1.413 . S
C2191 C2193 1.427 . S
C2191 C2197 1.416 . S
C2192 C2185 1.424 . S
C2192 C2191 1.413 . S
C2192 N2196 1.361 . S
C2193 C2191 1.427 . S
C2193 C2194 1.328 . S
C2193 H2208 0.929 . S
C2194 C2188 1.448 . S
C2194 C2193 1.328 . S
C2194 H2209 0.930 . S
Tb2195 N2186 2.617 . S
Tb2195 N2196 2.572 . S
Tb2195 O2230 2.349 . S
Tb2195 O2233 2.393 . S
Tb2195 O2234 2.465 . S
Tb2195 O2235 2.387 . S
Tb2195 O2237 2.428 . S
Tb2195 O2238 2.308 . S
Tb2195 C2259 2.802 . S
N2196 C2192 1.361 . S
N2196 Tb2195 2.572 . S
N2196 C2198 1.340 . S
C2197 C2191 1.416 . S
C2197 C2199 1.332 . S
C2197 H2205 0.931 . S
C2198 N2196 1.340 . S
C2198 C2199 1.407 . S
C2198 H2204 0.930 . S
C2199 C2197 1.332 . S
C2199 C2198 1.407 . S
C2199 H2201 0.929 . S
H2200 C2189 0.930 . S
H2201 C2199 0.929 . S
H2202 C2217 0.930 . S
H2203 C2224 0.929 . S
H2204 C2198 0.930 . S
H2205 C2197 0.931 . S
H2206 C2220 0.930 . S
H2207 C2187 0.930 . S
H2208 C2193 0.929 . S
H2209 C2194 0.930 . S
H2210 C2215 0.930 . S
H2211 C2190 0.930 . S
H2212 C2223 0.931 . S
N2213 Tb2184 2.617 . S
N2213 C2214 1.379 . S
N2213 C2217 1.334 . S
C2214 N2213 1.379 . S
C2214 C2216 1.416 . S
C2214 C2222 1.424 . S
C2215 H2210 0.930 . S
C2215 C2217 1.390 . S
C2215 C2218 1.339 . S
C2216 C2214 1.416 . S
C2216 C2218 1.416 . S
C2216 C2249 1.448 . S
C2217 H2202 0.930 . S
C2217 N2213 1.334 . S
C2217 C2215 1.390 . S
C2218 C2215 1.339 . S
C2218 C2216 1.416 . S
C2218 H2225 0.930 . S
N2219 Tb2184 2.572 . S
N2219 C2220 1.340 . S
N2219 C2222 1.361 . S
C2220 H2206 0.930 . S
C2220 N2219 1.340 . S
C2220 C2224 1.407 . S
C2221 C2222 1.413 . S
C2221 C2223 1.416 . S
C2221 C2250 1.427 . S
C2222 C2214 1.424 . S
C2222 N2219 1.361 . S
C2222 C2221 1.413 . S
C2223 H2212 0.931 . S
C2223 C2221 1.416 . S
C2223 C2224 1.332 . S
C2224 H2203 0.929 . S
C2224 C2220 1.407 . S
C2224 C2223 1.332 . S
H2225 C2218 0.930 . S
H2226 C2249 0.930 . S
H2227 C2250 0.929 . S
O2228 Tb2184 2.465 . S
O2228 C2248 1.264 . S
O2229 Tb2184 2.387 . S
O2229 C2240 1.264 . S
O2230 Tb2195 2.349 . S
O2230 C2240 1.243 . S
O2231 Tb2184 2.428 . S
O2231 C2248 1.256 . S
O2232 Tb2184 2.308 . S
O2232 C2247 1.266 . S
O2233 Tb2195 2.393 . S
O2233 C2247 1.248 . S
O2234 Tb2195 2.465 . S
O2234 C2259 1.264 . S
O2235 Tb2195 2.387 . S
O2235 C2251 1.264 . S
O2236 Tb2184 2.349 . S
O2236 C2251 1.243 . S
O2237 Tb2195 2.428 . S
O2237 C2259 1.256 . S
O2238 Tb2195 2.308 . S
O2238 C2258 1.266 . S
O2239 Tb2184 2.393 . S
O2239 C2258 1.248 . S
C2240 O2229 1.264 . S
C2240 O2230 1.243 . S
C2241 C2244 1.399 . S
C2241 C2246 1.383 . S
C2241 C2248 1.496 . S
C2242 C2243 1.399 . S
C2242 C2246 1.389 . S
C2243 C2242 1.399 . S
C2243 C2245 1.380 . S
C2243 H2260 0.929 . S
C2244 C2241 1.399 . S
C2244 C2245 1.392 . S
C2244 H2261 0.929 . S
C2245 C2243 1.380 . S
C2245 C2244 1.392 . S
C2245 H2262 0.929 . S
C2246 C2241 1.383 . S
C2246 C2242 1.389 . S
C2246 H2263 0.931 . S
C2247 O2232 1.266 . S
C2247 O2233 1.248 . S
C2248 Tb2184 2.802 . S
C2248 O2228 1.264 . S
C2248 O2231 1.256 . S
C2248 C2241 1.496 . S
C2249 C2216 1.448 . S
C2249 H2226 0.930 . S
C2249 C2250 1.328 . S
C2250 C2221 1.427 . S
C2250 H2227 0.929 . S
C2250 C2249 1.328 . S
C2251 O2235 1.264 . S
C2251 O2236 1.243 . S
C2252 C2255 1.399 . S
C2252 C2256 1.383 . S
C2252 C2259 1.496 . S
C2253 C2254 1.399 . S
C2253 C2256 1.389 . S
C2254 C2253 1.399 . S
C2254 C2257 1.380 . S
C2254 H2264 0.929 . S
C2255 C2252 1.399 . S
C2255 C2257 1.392 . S
C2255 H2265 0.929 . S
C2256 C2252 1.383 . S
C2256 C2253 1.389 . S
C2256 H2266 0.931 . S
C2257 C2254 1.380 . S
C2257 C2255 1.392 . S
C2257 H2267 0.929 . S
C2258 O2238 1.266 . S
C2258 O2239 1.248 . S
C2259 Tb2195 2.802 . S
C2259 O2234 1.264 . S
C2259 O2237 1.256 . S
C2259 C2252 1.496 . S
H2260 C2243 0.929 . S
H2261 C2244 0.929 . S
H2262 C2245 0.929 . S
H2263 C2246 0.931 . S
H2264 C2254 0.929 . S
H2265 C2255 0.929 . S
H2266 C2256 0.931 . S
H2267 C2257 0.929 . S
Tb2268 N2297 2.617 1_455 S
Tb2268 N2303 2.572 1_455 S
Tb2268 O2312 2.465 1_455 S
Tb2268 O2313 2.387 . S
Tb2268 O2315 2.428 1_455 S
Tb2268 O2316 2.308 . S
Tb2268 O2320 2.349 . S
Tb2268 O2323 2.393 . S
Tb2268 C2332 2.802 1_455 S
C2269 N2270 1.379 . S
C2269 C2272 1.416 . S
C2269 C2276 1.424 . S
N2270 C2269 1.379 . S
N2270 C2273 1.334 . S
N2270 Tb2279 2.617 . S
C2271 C2273 1.390 . S
C2271 C2274 1.339 . S
C2271 H2291 0.930 . S
C2272 C2269 1.416 . S
C2272 C2274 1.416 . S
C2272 C2278 1.448 . S
C2273 N2270 1.334 . S
C2273 C2271 1.390 . S
C2273 H2284 0.930 . S
C2274 C2271 1.339 . S
C2274 C2272 1.416 . S
C2274 H2295 0.930 . S
C2275 C2276 1.413 . S
C2275 C2277 1.427 . S
C2275 C2281 1.416 . S
C2276 C2269 1.424 . S
C2276 C2275 1.413 . S
C2276 N2280 1.361 . S
C2277 C2275 1.427 . S
C2277 C2278 1.328 . S
C2277 H2292 0.929 . S
C2278 C2272 1.448 . S
C2278 C2277 1.328 . S
C2278 H2293 0.930 . S
Tb2279 N2270 2.617 . S
Tb2279 N2280 2.572 . S
Tb2279 O2314 2.349 . S
Tb2279 O2317 2.393 . S
Tb2279 O2318 2.465 . S
Tb2279 O2319 2.387 . S
Tb2279 O2321 2.428 . S
Tb2279 O2322 2.308 . S
Tb2279 C2343 2.802 . S
N2280 C2276 1.361 . S
N2280 Tb2279 2.572 . S
N2280 C2282 1.340 . S
C2281 C2275 1.416 . S
C2281 C2283 1.332 . S
C2281 H2289 0.931 . S
C2282 N2280 1.340 . S
C2282 C2283 1.407 . S
C2282 H2288 0.930 . S
C2283 C2281 1.332 . S
C2283 C2282 1.407 . S
C2283 H2285 0.929 . S
H2284 C2273 0.930 . S
H2285 C2283 0.929 . S
H2286 C2301 0.930 . S
H2287 C2308 0.929 . S
H2288 C2282 0.930 . S
H2289 C2281 0.931 . S
H2290 C2304 0.930 . S
H2291 C2271 0.930 . S
H2292 C2277 0.929 . S
H2293 C2278 0.930 . S
H2294 C2299 0.930 . S
H2295 C2274 0.930 . S
H2296 C2307 0.931 . S
N2297 Tb2268 2.617 1_655 S
N2297 C2298 1.379 . S
N2297 C2301 1.334 1_655 S
C2298 N2297 1.379 . S
C2298 C2300 1.416 . S
C2298 C2306 1.424 . S
C2299 H2294 0.930 . S
C2299 C2301 1.390 . S
C2299 C2302 1.339 1_455 S
C2300 C2298 1.416 . S
C2300 C2302 1.416 . S
C2300 C2333 1.448 . S
C2301 H2286 0.930 . S
C2301 N2297 1.334 1_455 S
C2301 C2299 1.390 . S
C2302 C2299 1.339 1_655 S
C2302 C2300 1.416 . S
C2302 H2309 0.930 . S
N2303 Tb2268 2.572 1_655 S
N2303 C2304 1.340 . S
N2303 C2306 1.361 . S
C2304 H2290 0.930 . S
C2304 N2303 1.340 . S
C2304 C2308 1.407 . S
C2305 C2306 1.413 . S
C2305 C2307 1.416 . S
C2305 C2334 1.427 . S
C2306 C2298 1.424 . S
C2306 N2303 1.361 . S
C2306 C2305 1.413 . S
C2307 H2296 0.931 . S
C2307 C2305 1.416 . S
C2307 C2308 1.332 . S
C2308 H2287 0.929 . S
C2308 C2304 1.407 . S
C2308 C2307 1.332 . S
H2309 C2302 0.930 . S
H2310 C2333 0.930 . S
H2311 C2334 0.929 . S
O2312 Tb2268 2.465 1_655 S
O2312 C2332 1.264 . S
O2313 Tb2268 2.387 . S
O2313 C2324 1.264 . S
O2314 Tb2279 2.349 . S
O2314 C2324 1.243 . S
O2315 Tb2268 2.428 1_655 S
O2315 C2332 1.256 . S
O2316 Tb2268 2.308 . S
O2316 C2331 1.266 . S
O2317 Tb2279 2.393 . S
O2317 C2331 1.248 . S
O2318 Tb2279 2.465 . S
O2318 C2343 1.264 . S
O2319 Tb2279 2.387 . S
O2319 C2335 1.264 . S
O2320 Tb2268 2.349 . S
O2320 C2335 1.243 . S
O2321 Tb2279 2.428 . S
O2321 C2343 1.256 . S
O2322 Tb2279 2.308 . S
O2322 C2342 1.266 . S
O2323 Tb2268 2.393 . S
O2323 C2342 1.248 . S
C2324 O2313 1.264 . S
C2324 O2314 1.243 . S
C2325 C2328 1.399 . S
C2325 C2330 1.383 . S
C2325 C2332 1.496 . S
C2326 C2327 1.399 . S
C2326 C2330 1.389 . S
C2327 C2326 1.399 . S
C2327 C2329 1.380 . S
C2327 H2344 0.929 . S
C2328 C2325 1.399 . S
C2328 C2329 1.392 . S
C2328 H2345 0.929 . S
C2329 C2327 1.380 . S
C2329 C2328 1.392 . S
C2329 H2346 0.929 . S
C2330 C2325 1.383 . S
C2330 C2326 1.389 . S
C2330 H2347 0.931 . S
C2331 O2316 1.266 . S
C2331 O2317 1.248 . S
C2332 Tb2268 2.802 1_655 S
C2332 O2312 1.264 . S
C2332 O2315 1.256 . S
C2332 C2325 1.496 . S
C2333 C2300 1.448 . S
C2333 H2310 0.930 . S
C2333 C2334 1.328 . S
C2334 C2305 1.427 . S
C2334 H2311 0.929 . S
C2334 C2333 1.328 . S
C2335 O2319 1.264 . S
C2335 O2320 1.243 . S
C2336 C2339 1.399 . S
C2336 C2340 1.383 . S
C2336 C2343 1.496 . S
C2337 C2338 1.399 . S
C2337 C2340 1.389 . S
C2338 C2337 1.399 . S
C2338 C2341 1.380 . S
C2338 H2348 0.929 . S
C2339 C2336 1.399 . S
C2339 C2341 1.392 . S
C2339 H2349 0.929 . S
C2340 C2336 1.383 . S
C2340 C2337 1.389 . S
C2340 H2350 0.931 . S
C2341 C2338 1.380 . S
C2341 C2339 1.392 . S
C2341 H2351 0.929 . S
C2342 O2322 1.266 . S
C2342 O2323 1.248 . S
C2343 Tb2279 2.802 . S
C2343 O2318 1.264 . S
C2343 O2321 1.256 . S
C2343 C2336 1.496 . S
H2344 C2327 0.929 . S
H2345 C2328 0.929 . S
H2346 C2329 0.929 . S
H2347 C2330 0.931 . S
H2348 C2338 0.929 . S
H2349 C2339 0.929 . S
H2350 C2340 0.931 . S
H2351 C2341 0.929 . S
Tb2352 N2381 2.617 . S
Tb2352 N2387 2.572 . S
Tb2352 O2396 2.465 . S
Tb2352 O2397 2.387 . S
Tb2352 O2399 2.428 . S
Tb2352 O2400 2.308 . S
Tb2352 O2404 2.349 . S
Tb2352 O2407 2.393 . S
Tb2352 C2416 2.802 . S
C2353 N2354 1.379 . S
C2353 C2356 1.416 . S
C2353 C2360 1.424 . S
N2354 C2353 1.379 . S
N2354 C2357 1.334 . S
N2354 Tb2363 2.617 . S
C2355 C2357 1.390 . S
C2355 C2358 1.339 . S
C2355 H2375 0.930 . S
C2356 C2353 1.416 . S
C2356 C2358 1.416 . S
C2356 C2362 1.448 . S
C2357 N2354 1.334 . S
C2357 C2355 1.390 . S
C2357 H2368 0.930 . S
C2358 C2355 1.339 . S
C2358 C2356 1.416 . S
C2358 H2379 0.930 . S
C2359 C2360 1.413 . S
C2359 C2361 1.427 . S
C2359 C2365 1.416 . S
C2360 C2353 1.424 . S
C2360 C2359 1.413 . S
C2360 N2364 1.361 . S
C2361 C2359 1.427 . S
C2361 C2362 1.328 . S
C2361 H2376 0.929 . S
C2362 C2356 1.448 . S
C2362 C2361 1.328 . S
C2362 H2377 0.930 . S
Tb2363 N2354 2.617 . S
Tb2363 N2364 2.572 . S
Tb2363 O2398 2.349 . S
Tb2363 O2401 2.393 . S
Tb2363 O2402 2.465 . S
Tb2363 O2403 2.387 . S
Tb2363 O2405 2.428 . S
Tb2363 O2406 2.308 . S
Tb2363 C2427 2.802 . S
N2364 C2360 1.361 . S
N2364 Tb2363 2.572 . S
N2364 C2366 1.340 . S
C2365 C2359 1.416 . S
C2365 C2367 1.332 . S
C2365 H2373 0.931 . S
C2366 N2364 1.340 . S
C2366 C2367 1.407 . S
C2366 H2372 0.930 . S
C2367 C2365 1.332 . S
C2367 C2366 1.407 . S
C2367 H2369 0.929 . S
H2368 C2357 0.930 . S
H2369 C2367 0.929 . S
H2370 C2385 0.930 . S
H2371 C2392 0.929 . S
H2372 C2366 0.930 . S
H2373 C2365 0.931 . S
H2374 C2388 0.930 . S
H2375 C2355 0.930 . S
H2376 C2361 0.929 . S
H2377 C2362 0.930 . S
H2378 C2383 0.930 . S
H2379 C2358 0.930 . S
H2380 C2391 0.931 . S
N2381 Tb2352 2.617 . S
N2381 C2382 1.379 . S
N2381 C2385 1.334 . S
C2382 N2381 1.379 . S
C2382 C2384 1.416 . S
C2382 C2390 1.424 . S
C2383 H2378 0.930 . S
C2383 C2385 1.390 . S
C2383 C2386 1.339 . S
C2384 C2382 1.416 . S
C2384 C2386 1.416 . S
C2384 C2417 1.448 . S
C2385 H2370 0.930 . S
C2385 N2381 1.334 . S
C2385 C2383 1.390 . S
C2386 C2383 1.339 . S
C2386 C2384 1.416 . S
C2386 H2393 0.930 . S
N2387 Tb2352 2.572 . S
N2387 C2388 1.340 . S
N2387 C2390 1.361 . S
C2388 H2374 0.930 . S
C2388 N2387 1.340 . S
C2388 C2392 1.407 . S
C2389 C2390 1.413 . S
C2389 C2391 1.416 . S
C2389 C2418 1.427 . S
C2390 C2382 1.424 . S
C2390 N2387 1.361 . S
C2390 C2389 1.413 . S
C2391 H2380 0.931 . S
C2391 C2389 1.416 . S
C2391 C2392 1.332 . S
C2392 H2371 0.929 . S
C2392 C2388 1.407 . S
C2392 C2391 1.332 . S
H2393 C2386 0.930 . S
H2394 C2417 0.930 . S
H2395 C2418 0.929 . S
O2396 Tb2352 2.465 . S
O2396 C2416 1.264 . S
O2397 Tb2352 2.387 . S
O2397 C2408 1.264 . S
O2398 Tb2363 2.349 . S
O2398 C2408 1.243 . S
O2399 Tb2352 2.428 . S
O2399 C2416 1.256 . S
O2400 Tb2352 2.308 . S
O2400 C2415 1.266 . S
O2401 Tb2363 2.393 . S
O2401 C2415 1.248 . S
O2402 Tb2363 2.465 . S
O2402 C2427 1.264 . S
O2403 Tb2363 2.387 . S
O2403 C2419 1.264 . S
O2404 Tb2352 2.349 . S
O2404 C2419 1.243 . S
O2405 Tb2363 2.428 . S
O2405 C2427 1.256 . S
O2406 Tb2363 2.308 . S
O2406 C2426 1.266 . S
O2407 Tb2352 2.393 . S
O2407 C2426 1.248 . S
C2408 O2397 1.264 . S
C2408 O2398 1.243 . S
C2409 C2412 1.399 . S
C2409 C2414 1.383 . S
C2409 C2416 1.496 . S
C2410 C2411 1.399 . S
C2410 C2414 1.389 . S
C2411 C2410 1.399 . S
C2411 C2413 1.380 . S
C2411 H2428 0.929 . S
C2412 C2409 1.399 . S
C2412 C2413 1.392 . S
C2412 H2429 0.929 . S
C2413 C2411 1.380 . S
C2413 C2412 1.392 . S
C2413 H2430 0.929 . S
C2414 C2409 1.383 . S
C2414 C2410 1.389 . S
C2414 H2431 0.931 . S
C2415 O2400 1.266 . S
C2415 O2401 1.248 . S
C2416 Tb2352 2.802 . S
C2416 O2396 1.264 . S
C2416 O2399 1.256 . S
C2416 C2409 1.496 . S
C2417 C2384 1.448 . S
C2417 H2394 0.930 . S
C2417 C2418 1.328 . S
C2418 C2389 1.427 . S
C2418 H2395 0.929 . S
C2418 C2417 1.328 . S
C2419 O2403 1.264 . S
C2419 O2404 1.243 . S
C2420 C2423 1.399 . S
C2420 C2424 1.383 . S
C2420 C2427 1.496 . S
C2421 C2422 1.399 . S
C2421 C2424 1.389 . S
C2422 C2421 1.399 . S
C2422 C2425 1.380 . S
C2422 H2432 0.929 . S
C2423 C2420 1.399 . S
C2423 C2425 1.392 . S
C2423 H2433 0.929 . S
C2424 C2420 1.383 . S
C2424 C2421 1.389 . S
C2424 H2434 0.931 . S
C2425 C2422 1.380 . S
C2425 C2423 1.392 . S
C2425 H2435 0.929 . S
C2426 O2406 1.266 . S
C2426 O2407 1.248 . S
C2427 Tb2363 2.802 . S
C2427 O2402 1.264 . S
C2427 O2405 1.256 . S
C2427 C2420 1.496 . S
H2428 C2411 0.929 . S
H2429 C2412 0.929 . S
H2430 C2413 0.929 . S
H2431 C2414 0.931 . S
H2432 C2422 0.929 . S
H2433 C2423 0.929 . S
H2434 C2424 0.931 . S
H2435 C2425 0.929 . S
Tb2436 N2465 2.617 1_455 S
Tb2436 N2471 2.572 1_455 S
Tb2436 O2480 2.465 1_455 S
Tb2436 O2481 2.387 . S
Tb2436 O2483 2.428 1_455 S
Tb2436 O2484 2.308 . S
Tb2436 O2488 2.349 . S
Tb2436 O2491 2.393 . S
Tb2436 C2500 2.802 1_455 S
C2437 N2438 1.379 . S
C2437 C2440 1.416 . S
C2437 C2444 1.424 . S
N2438 C2437 1.379 . S
N2438 C2441 1.334 . S
N2438 Tb2447 2.617 . S
C2439 C2441 1.390 . S
C2439 C2442 1.339 . S
C2439 H2459 0.930 . S
C2440 C2437 1.416 . S
C2440 C2442 1.416 . S
C2440 C2446 1.448 . S
C2441 N2438 1.334 . S
C2441 C2439 1.390 . S
C2441 H2452 0.930 . S
C2442 C2439 1.339 . S
C2442 C2440 1.416 . S
C2442 H2463 0.930 . S
C2443 C2444 1.413 . S
C2443 C2445 1.427 . S
C2443 C2449 1.416 . S
C2444 C2437 1.424 . S
C2444 C2443 1.413 . S
C2444 N2448 1.361 . S
C2445 C2443 1.427 . S
C2445 C2446 1.328 . S
C2445 H2460 0.929 . S
C2446 C2440 1.448 . S
C2446 C2445 1.328 . S
C2446 H2461 0.930 . S
Tb2447 N2438 2.617 . S
Tb2447 N2448 2.572 . S
Tb2447 O2482 2.349 . S
Tb2447 O2485 2.393 . S
Tb2447 O2486 2.465 . S
Tb2447 O2487 2.387 . S
Tb2447 O2489 2.428 . S
Tb2447 O2490 2.308 . S
Tb2447 C2511 2.802 . S
N2448 C2444 1.361 . S
N2448 Tb2447 2.572 . S
N2448 C2450 1.340 . S
C2449 C2443 1.416 . S
C2449 C2451 1.332 . S
C2449 H2457 0.931 . S
C2450 N2448 1.340 . S
C2450 C2451 1.407 . S
C2450 H2456 0.930 . S
C2451 C2449 1.332 . S
C2451 C2450 1.407 . S
C2451 H2453 0.929 . S
H2452 C2441 0.930 . S
H2453 C2451 0.929 . S
H2454 C2469 0.930 . S
H2455 C2476 0.929 . S
H2456 C2450 0.930 . S
H2457 C2449 0.931 . S
H2458 C2472 0.930 . S
H2459 C2439 0.930 . S
H2460 C2445 0.929 . S
H2461 C2446 0.930 . S
H2462 C2467 0.930 . S
H2463 C2442 0.930 . S
H2464 C2475 0.931 . S
N2465 Tb2436 2.617 1_655 S
N2465 C2466 1.379 . S
N2465 C2469 1.334 1_655 S
C2466 N2465 1.379 . S
C2466 C2468 1.416 . S
C2466 C2474 1.424 . S
C2467 H2462 0.930 . S
C2467 C2469 1.390 . S
C2467 C2470 1.339 1_455 S
C2468 C2466 1.416 . S
C2468 C2470 1.416 . S
C2468 C2501 1.448 . S
C2469 H2454 0.930 . S
C2469 N2465 1.334 1_455 S
C2469 C2467 1.390 . S
C2470 C2467 1.339 1_655 S
C2470 C2468 1.416 . S
C2470 H2477 0.930 . S
N2471 Tb2436 2.572 1_655 S
N2471 C2472 1.340 . S
N2471 C2474 1.361 . S
C2472 H2458 0.930 . S
C2472 N2471 1.340 . S
C2472 C2476 1.407 . S
C2473 C2474 1.413 . S
C2473 C2475 1.416 . S
C2473 C2502 1.427 . S
C2474 C2466 1.424 . S
C2474 N2471 1.361 . S
C2474 C2473 1.413 . S
C2475 H2464 0.931 . S
C2475 C2473 1.416 . S
C2475 C2476 1.332 . S
C2476 H2455 0.929 . S
C2476 C2472 1.407 . S
C2476 C2475 1.332 . S
H2477 C2470 0.930 . S
H2478 C2501 0.930 . S
H2479 C2502 0.929 . S
O2480 Tb2436 2.465 1_655 S
O2480 C2500 1.264 . S
O2481 Tb2436 2.387 . S
O2481 C2492 1.264 . S
O2482 Tb2447 2.349 . S
O2482 C2492 1.243 . S
O2483 Tb2436 2.428 1_655 S
O2483 C2500 1.256 . S
O2484 Tb2436 2.308 . S
O2484 C2499 1.266 . S
O2485 Tb2447 2.393 . S
O2485 C2499 1.248 . S
O2486 Tb2447 2.465 . S
O2486 C2511 1.264 . S
O2487 Tb2447 2.387 . S
O2487 C2503 1.264 . S
O2488 Tb2436 2.349 . S
O2488 C2503 1.243 . S
O2489 Tb2447 2.428 . S
O2489 C2511 1.256 . S
O2490 Tb2447 2.308 . S
O2490 C2510 1.266 . S
O2491 Tb2436 2.393 . S
O2491 C2510 1.248 . S
C2492 O2481 1.264 . S
C2492 O2482 1.243 . S
C2493 C2496 1.399 . S
C2493 C2498 1.383 . S
C2493 C2500 1.496 . S
C2494 C2495 1.399 . S
C2494 C2498 1.389 . S
C2495 C2494 1.399 . S
C2495 C2497 1.380 . S
C2495 H2512 0.929 . S
C2496 C2493 1.399 . S
C2496 C2497 1.392 . S
C2496 H2513 0.929 . S
C2497 C2495 1.380 . S
C2497 C2496 1.392 . S
C2497 H2514 0.929 . S
C2498 C2493 1.383 . S
C2498 C2494 1.389 . S
C2498 H2515 0.931 . S
C2499 O2484 1.266 . S
C2499 O2485 1.248 . S
C2500 Tb2436 2.802 1_655 S
C2500 O2480 1.264 . S
C2500 O2483 1.256 . S
C2500 C2493 1.496 . S
C2501 C2468 1.448 . S
C2501 H2478 0.930 . S
C2501 C2502 1.328 . S
C2502 C2473 1.427 . S
C2502 H2479 0.929 . S
C2502 C2501 1.328 . S
C2503 O2487 1.264 . S
C2503 O2488 1.243 . S
C2504 C2507 1.399 . S
C2504 C2508 1.383 . S
C2504 C2511 1.496 . S
C2505 C2506 1.399 . S
C2505 C2508 1.389 . S
C2506 C2505 1.399 . S
C2506 C2509 1.380 . S
C2506 H2516 0.929 . S
C2507 C2504 1.399 . S
C2507 C2509 1.392 . S
C2507 H2517 0.929 . S
C2508 C2504 1.383 . S
C2508 C2505 1.389 . S
C2508 H2518 0.931 . S
C2509 C2506 1.380 . S
C2509 C2507 1.392 . S
C2509 H2519 0.929 . S
C2510 O2490 1.266 . S
C2510 O2491 1.248 . S
C2511 Tb2447 2.802 . S
C2511 O2486 1.264 . S
C2511 O2489 1.256 . S
C2511 C2504 1.496 . S
H2512 C2495 0.929 . S
H2513 C2496 0.929 . S
H2514 C2497 0.929 . S
H2515 C2498 0.931 . S
H2516 C2506 0.929 . S
H2517 C2507 0.929 . S
H2518 C2508 0.931 . S
H2519 C2509 0.929 . S
Tb2520 N2549 2.617 . S
Tb2520 N2555 2.572 . S
Tb2520 O2564 2.465 . S
Tb2520 O2565 2.387 . S
Tb2520 O2567 2.428 . S
Tb2520 O2568 2.308 . S
Tb2520 O2572 2.349 . S
Tb2520 O2575 2.393 . S
Tb2520 C2584 2.802 . S
C2521 N2522 1.379 . S
C2521 C2524 1.416 . S
C2521 C2528 1.424 . S
N2522 C2521 1.379 . S
N2522 C2525 1.334 . S
N2522 Tb2531 2.617 . S
C2523 C2525 1.390 . S
C2523 C2526 1.339 . S
C2523 H2543 0.930 . S
C2524 C2521 1.416 . S
C2524 C2526 1.416 . S
C2524 C2530 1.448 . S
C2525 N2522 1.334 . S
C2525 C2523 1.390 . S
C2525 H2536 0.930 . S
C2526 C2523 1.339 . S
C2526 C2524 1.416 . S
C2526 H2547 0.930 . S
C2527 C2528 1.413 . S
C2527 C2529 1.427 . S
C2527 C2533 1.416 . S
C2528 C2521 1.424 . S
C2528 C2527 1.413 . S
C2528 N2532 1.361 . S
C2529 C2527 1.427 . S
C2529 C2530 1.328 . S
C2529 H2544 0.929 . S
C2530 C2524 1.448 . S
C2530 C2529 1.328 . S
C2530 H2545 0.930 . S
Tb2531 N2522 2.617 . S
Tb2531 N2532 2.572 . S
Tb2531 O2566 2.349 . S
Tb2531 O2569 2.393 . S
Tb2531 O2570 2.465 . S
Tb2531 O2571 2.387 . S
Tb2531 O2573 2.428 . S
Tb2531 O2574 2.308 . S
Tb2531 C2595 2.802 . S
N2532 C2528 1.361 . S
N2532 Tb2531 2.572 . S
N2532 C2534 1.340 . S
C2533 C2527 1.416 . S
C2533 C2535 1.332 . S
C2533 H2541 0.931 . S
C2534 N2532 1.340 . S
C2534 C2535 1.407 . S
C2534 H2540 0.930 . S
C2535 C2533 1.332 . S
C2535 C2534 1.407 . S
C2535 H2537 0.929 . S
H2536 C2525 0.930 . S
H2537 C2535 0.929 . S
H2538 C2553 0.930 . S
H2539 C2560 0.929 . S
H2540 C2534 0.930 . S
H2541 C2533 0.931 . S
H2542 C2556 0.930 . S
H2543 C2523 0.930 . S
H2544 C2529 0.929 . S
H2545 C2530 0.930 . S
H2546 C2551 0.930 . S
H2547 C2526 0.930 . S
H2548 C2559 0.931 . S
N2549 Tb2520 2.617 . S
N2549 C2550 1.379 . S
N2549 C2553 1.334 . S
C2550 N2549 1.379 . S
C2550 C2552 1.416 . S
C2550 C2558 1.424 . S
C2551 H2546 0.930 . S
C2551 C2553 1.390 . S
C2551 C2554 1.339 . S
C2552 C2550 1.416 . S
C2552 C2554 1.416 . S
C2552 C2585 1.448 . S
C2553 H2538 0.930 . S
C2553 N2549 1.334 . S
C2553 C2551 1.390 . S
C2554 C2551 1.339 . S
C2554 C2552 1.416 . S
C2554 H2561 0.930 . S
N2555 Tb2520 2.572 . S
N2555 C2556 1.340 . S
N2555 C2558 1.361 . S
C2556 H2542 0.930 . S
C2556 N2555 1.340 . S
C2556 C2560 1.407 . S
C2557 C2558 1.413 . S
C2557 C2559 1.416 . S
C2557 C2586 1.427 . S
C2558 C2550 1.424 . S
C2558 N2555 1.361 . S
C2558 C2557 1.413 . S
C2559 H2548 0.931 . S
C2559 C2557 1.416 . S
C2559 C2560 1.332 . S
C2560 H2539 0.929 . S
C2560 C2556 1.407 . S
C2560 C2559 1.332 . S
H2561 C2554 0.930 . S
H2562 C2585 0.930 . S
H2563 C2586 0.929 . S
O2564 Tb2520 2.465 . S
O2564 C2584 1.264 . S
O2565 Tb2520 2.387 . S
O2565 C2576 1.264 . S
O2566 Tb2531 2.349 . S
O2566 C2576 1.243 . S
O2567 Tb2520 2.428 . S
O2567 C2584 1.256 . S
O2568 Tb2520 2.308 . S
O2568 C2583 1.266 . S
O2569 Tb2531 2.393 . S
O2569 C2583 1.248 . S
O2570 Tb2531 2.465 . S
O2570 C2595 1.264 . S
O2571 Tb2531 2.387 . S
O2571 C2587 1.264 . S
O2572 Tb2520 2.349 . S
O2572 C2587 1.243 . S
O2573 Tb2531 2.428 . S
O2573 C2595 1.256 . S
O2574 Tb2531 2.308 . S
O2574 C2594 1.266 . S
O2575 Tb2520 2.393 . S
O2575 C2594 1.248 . S
C2576 O2565 1.264 . S
C2576 O2566 1.243 . S
C2577 C2580 1.399 . S
C2577 C2582 1.383 . S
C2577 C2584 1.496 . S
C2578 C2579 1.399 . S
C2578 C2582 1.389 . S
C2579 C2578 1.399 . S
C2579 C2581 1.380 . S
C2579 H2596 0.929 . S
C2580 C2577 1.399 . S
C2580 C2581 1.392 . S
C2580 H2597 0.929 . S
C2581 C2579 1.380 . S
C2581 C2580 1.392 . S
C2581 H2598 0.929 . S
C2582 C2577 1.383 . S
C2582 C2578 1.389 . S
C2582 H2599 0.931 . S
C2583 O2568 1.266 . S
C2583 O2569 1.248 . S
C2584 Tb2520 2.802 . S
C2584 O2564 1.264 . S
C2584 O2567 1.256 . S
C2584 C2577 1.496 . S
C2585 C2552 1.448 . S
C2585 H2562 0.930 . S
C2585 C2586 1.328 . S
C2586 C2557 1.427 . S
C2586 H2563 0.929 . S
C2586 C2585 1.328 . S
C2587 O2571 1.264 . S
C2587 O2572 1.243 . S
C2588 C2591 1.399 . S
C2588 C2592 1.383 . S
C2588 C2595 1.496 . S
C2589 C2590 1.399 . S
C2589 C2592 1.389 . S
C2590 C2589 1.399 . S
C2590 C2593 1.380 . S
C2590 H2600 0.929 . S
C2591 C2588 1.399 . S
C2591 C2593 1.392 . S
C2591 H2601 0.929 . S
C2592 C2588 1.383 . S
C2592 C2589 1.389 . S
C2592 H2602 0.931 . S
C2593 C2590 1.380 . S
C2593 C2591 1.392 . S
C2593 H2603 0.929 . S
C2594 O2574 1.266 . S
C2594 O2575 1.248 . S
C2595 Tb2531 2.802 . S
C2595 O2570 1.264 . S
C2595 O2573 1.256 . S
C2595 C2588 1.496 . S
H2596 C2579 0.929 . S
H2597 C2580 0.929 . S
H2598 C2581 0.929 . S
H2599 C2582 0.931 . S
H2600 C2590 0.929 . S
H2601 C2591 0.929 . S
H2602 C2592 0.931 . S
H2603 C2593 0.929 . S
Tb2604 N2633 2.617 . S
Tb2604 N2639 2.572 . S
Tb2604 O2648 2.465 . S
Tb2604 O2649 2.387 . S
Tb2604 O2651 2.428 . S
Tb2604 O2652 2.308 . S
Tb2604 O2656 2.349 . S
Tb2604 O2659 2.393 . S
Tb2604 C2668 2.802 . S
C2605 N2606 1.379 . S
C2605 C2608 1.416 . S
C2605 C2612 1.424 . S
N2606 C2605 1.379 . S
N2606 C2609 1.334 . S
N2606 Tb2615 2.617 . S
C2607 C2609 1.390 . S
C2607 C2610 1.339 . S
C2607 H2627 0.930 . S
C2608 C2605 1.416 . S
C2608 C2610 1.416 . S
C2608 C2614 1.448 . S
C2609 N2606 1.334 . S
C2609 C2607 1.390 . S
C2609 H2620 0.930 . S
C2610 C2607 1.339 . S
C2610 C2608 1.416 . S
C2610 H2631 0.930 . S
C2611 C2612 1.413 . S
C2611 C2613 1.427 . S
C2611 C2617 1.416 . S
C2612 C2605 1.424 . S
C2612 C2611 1.413 . S
C2612 N2616 1.361 . S
C2613 C2611 1.427 . S
C2613 C2614 1.328 . S
C2613 H2628 0.929 . S
C2614 C2608 1.448 . S
C2614 C2613 1.328 . S
C2614 H2629 0.930 . S
Tb2615 N2606 2.617 . S
Tb2615 N2616 2.572 . S
Tb2615 O2650 2.349 . S
Tb2615 O2653 2.393 . S
Tb2615 O2654 2.465 . S
Tb2615 O2655 2.387 . S
Tb2615 O2657 2.428 . S
Tb2615 O2658 2.308 . S
Tb2615 C2679 2.802 . S
N2616 C2612 1.361 . S
N2616 Tb2615 2.572 . S
N2616 C2618 1.340 . S
C2617 C2611 1.416 . S
C2617 C2619 1.332 . S
C2617 H2625 0.931 . S
C2618 N2616 1.340 . S
C2618 C2619 1.407 . S
C2618 H2624 0.930 . S
C2619 C2617 1.332 . S
C2619 C2618 1.407 . S
C2619 H2621 0.929 . S
H2620 C2609 0.930 . S
H2621 C2619 0.929 . S
H2622 C2637 0.930 . S
H2623 C2644 0.929 . S
H2624 C2618 0.930 . S
H2625 C2617 0.931 . S
H2626 C2640 0.930 . S
H2627 C2607 0.930 . S
H2628 C2613 0.929 . S
H2629 C2614 0.930 . S
H2630 C2635 0.930 . S
H2631 C2610 0.930 . S
H2632 C2643 0.931 . S
N2633 Tb2604 2.617 . S
N2633 C2634 1.379 . S
N2633 C2637 1.334 . S
C2634 N2633 1.379 . S
C2634 C2636 1.416 . S
C2634 C2642 1.424 . S
C2635 H2630 0.930 . S
C2635 C2637 1.390 . S
C2635 C2638 1.339 . S
C2636 C2634 1.416 . S
C2636 C2638 1.416 . S
C2636 C2669 1.448 . S
C2637 H2622 0.930 . S
C2637 N2633 1.334 . S
C2637 C2635 1.390 . S
C2638 C2635 1.339 . S
C2638 C2636 1.416 . S
C2638 H2645 0.930 . S
N2639 Tb2604 2.572 . S
N2639 C2640 1.340 . S
N2639 C2642 1.361 . S
C2640 H2626 0.930 . S
C2640 N2639 1.340 . S
C2640 C2644 1.407 . S
C2641 C2642 1.413 . S
C2641 C2643 1.416 . S
C2641 C2670 1.427 . S
C2642 C2634 1.424 . S
C2642 N2639 1.361 . S
C2642 C2641 1.413 . S
C2643 H2632 0.931 . S
C2643 C2641 1.416 . S
C2643 C2644 1.332 . S
C2644 H2623 0.929 . S
C2644 C2640 1.407 . S
C2644 C2643 1.332 . S
H2645 C2638 0.930 . S
H2646 C2669 0.930 . S
H2647 C2670 0.929 . S
O2648 Tb2604 2.465 . S
O2648 C2668 1.264 . S
O2649 Tb2604 2.387 . S
O2649 C2660 1.264 . S
O2650 Tb2615 2.349 . S
O2650 C2660 1.243 . S
O2651 Tb2604 2.428 . S
O2651 C2668 1.256 . S
O2652 Tb2604 2.308 . S
O2652 C2667 1.266 . S
O2653 Tb2615 2.393 . S
O2653 C2667 1.248 . S
O2654 Tb2615 2.465 . S
O2654 C2679 1.264 . S
O2655 Tb2615 2.387 . S
O2655 C2671 1.264 . S
O2656 Tb2604 2.349 . S
O2656 C2671 1.243 . S
O2657 Tb2615 2.428 . S
O2657 C2679 1.256 . S
O2658 Tb2615 2.308 . S
O2658 C2678 1.266 . S
O2659 Tb2604 2.393 . S
O2659 C2678 1.248 . S
C2660 O2649 1.264 . S
C2660 O2650 1.243 . S
C2661 C2664 1.399 . S
C2661 C2666 1.383 . S
C2661 C2668 1.496 . S
C2662 C2663 1.399 . S
C2662 C2666 1.389 . S
C2663 C2662 1.399 . S
C2663 C2665 1.380 . S
C2663 H2680 0.929 . S
C2664 C2661 1.399 . S
C2664 C2665 1.392 . S
C2664 H2681 0.929 . S
C2665 C2663 1.380 . S
C2665 C2664 1.392 . S
C2665 H2682 0.929 . S
C2666 C2661 1.383 . S
C2666 C2662 1.389 . S
C2666 H2683 0.931 . S
C2667 O2652 1.266 . S
C2667 O2653 1.248 . S
C2668 Tb2604 2.802 . S
C2668 O2648 1.264 . S
C2668 O2651 1.256 . S
C2668 C2661 1.496 . S
C2669 C2636 1.448 . S
C2669 H2646 0.930 . S
C2669 C2670 1.328 . S
C2670 C2641 1.427 . S
C2670 H2647 0.929 . S
C2670 C2669 1.328 . S
C2671 O2655 1.264 . S
C2671 O2656 1.243 . S
C2672 C2675 1.399 . S
C2672 C2676 1.383 . S
C2672 C2679 1.496 . S
C2673 C2674 1.399 . S
C2673 C2676 1.389 . S
C2674 C2673 1.399 . S
C2674 C2677 1.380 . S
C2674 H2684 0.929 . S
C2675 C2672 1.399 . S
C2675 C2677 1.392 . S
C2675 H2685 0.929 . S
C2676 C2672 1.383 . S
C2676 C2673 1.389 . S
C2676 H2686 0.931 . S
C2677 C2674 1.380 . S
C2677 C2675 1.392 . S
C2677 H2687 0.929 . S
C2678 O2658 1.266 . S
C2678 O2659 1.248 . S
C2679 Tb2615 2.802 . S
C2679 O2654 1.264 . S
C2679 O2657 1.256 . S
C2679 C2672 1.496 . S
H2680 C2663 0.929 . S
H2681 C2664 0.929 . S
H2682 C2665 0.929 . S
H2683 C2666 0.931 . S
H2684 C2674 0.929 . S
H2685 C2675 0.929 . S
H2686 C2676 0.931 . S
H2687 C2677 0.929 . S
H2688 C2694 0.930 . S
H2689 C2698 0.930 . S
H2690 C2703 0.929 . S
H2691 C2701 0.929 . S
H2692 C2696 0.929 . S
H2693 C2702 0.929 . S
C2694 H2688 0.930 . S
C2694 C2695 1.367 . S
C2694 C2702 1.378 . S
C2695 C2694 1.367 . S
C2695 C2703 1.433 . S
C2696 H2692 0.929 . S
C2696 C2698 1.378 . S
C2696 C2700 1.350 . S
C2697 C2700 1.463 . S
C2697 C2702 1.350 . S
C2697 N2705 1.427 . S
C2698 H2689 0.930 . S
C2698 C2696 1.378 . S
C2698 C2699 1.367 . S
C2699 C2698 1.367 . S
C2699 C2701 1.433 . S
C2700 C2696 1.350 . S
C2700 C2697 1.463 . S
C2700 N2704 1.427 . S
C2701 H2691 0.929 . S
C2701 C2699 1.433 . S
C2701 N2704 1.384 . S
C2702 H2693 0.929 . S
C2702 C2694 1.378 . S
C2702 C2697 1.350 . S
C2703 H2690 0.929 . S
C2703 C2695 1.433 . S
C2703 N2705 1.384 . S
N2704 C2700 1.427 . S
N2704 C2701 1.384 . S
N2705 C2697 1.427 . S
N2705 C2703 1.384 . S
H2706 C2712 0.930 . S
H2707 C2716 0.930 . S
H2708 C2721 0.929 . S
H2709 C2719 0.929 . S
H2710 C2714 0.929 . S
H2711 C2720 0.929 . S
C2712 H2706 0.930 . S
C2712 C2713 1.367 . S
C2712 C2720 1.378 . S
C2713 C2712 1.367 . S
C2713 C2721 1.433 . S
C2714 H2710 0.929 . S
C2714 C2716 1.378 . S
C2714 C2718 1.350 . S
C2715 C2718 1.463 . S
C2715 C2720 1.350 . S
C2715 N2723 1.427 . S
C2716 H2707 0.930 . S
C2716 C2714 1.378 . S
C2716 C2717 1.367 . S
C2717 C2716 1.367 . S
C2717 C2719 1.433 . S
C2718 C2714 1.350 . S
C2718 C2715 1.463 . S
C2718 N2722 1.427 . S
C2719 H2709 0.929 . S
C2719 C2717 1.433 . S
C2719 N2722 1.384 . S
C2720 H2711 0.929 . S
C2720 C2712 1.378 . S
C2720 C2715 1.350 . S
C2721 H2708 0.929 . S
C2721 C2713 1.433 . S
C2721 N2723 1.384 . S
N2722 C2718 1.427 . S
N2722 C2719 1.384 . S
N2723 C2715 1.427 . S
N2723 C2721 1.384 . S
H2724 C2730 0.930 . S
H2725 C2734 0.930 . S
H2726 C2739 0.929 . S
H2727 C2737 0.929 . S
H2728 C2732 0.929 . S
H2729 C2738 0.929 . S
C2730 H2724 0.930 . S
C2730 C2731 1.367 . S
C2730 C2738 1.378 . S
C2731 C2730 1.367 . S
C2731 C2739 1.433 . S
C2732 H2728 0.929 . S
C2732 C2734 1.378 . S
C2732 C2736 1.350 . S
C2733 C2736 1.463 . S
C2733 C2738 1.350 . S
C2733 N2741 1.427 . S
C2734 H2725 0.930 . S
C2734 C2732 1.378 . S
C2734 C2735 1.367 . S
C2735 C2734 1.367 . S
C2735 C2737 1.433 . S
C2736 C2732 1.350 . S
C2736 C2733 1.463 . S
C2736 N2740 1.427 . S
C2737 H2727 0.929 . S
C2737 C2735 1.433 . S
C2737 N2740 1.384 . S
C2738 H2729 0.929 . S
C2738 C2730 1.378 . S
C2738 C2733 1.350 . S
C2739 H2726 0.929 . S
C2739 C2731 1.433 . S
C2739 N2741 1.384 . S
N2740 C2736 1.427 . S
N2740 C2737 1.384 . S
N2741 C2733 1.427 . S
N2741 C2739 1.384 . S
H2742 C2748 0.930 . S
H2743 C2752 0.930 . S
H2744 C2757 0.929 . S
H2745 C2755 0.929 . S
H2746 C2750 0.929 . S
H2747 C2756 0.929 . S
C2748 H2742 0.930 . S
C2748 C2749 1.367 . S
C2748 C2756 1.378 . S
C2749 C2748 1.367 . S
C2749 C2757 1.433 . S
C2750 H2746 0.929 . S
C2750 C2752 1.378 . S
C2750 C2754 1.350 . S
C2751 C2754 1.463 . S
C2751 C2756 1.350 . S
C2751 N2759 1.427 . S
C2752 H2743 0.930 . S
C2752 C2750 1.378 . S
C2752 C2753 1.367 . S
C2753 C2752 1.367 . S
C2753 C2755 1.433 . S
C2754 C2750 1.350 . S
C2754 C2751 1.463 . S
C2754 N2758 1.427 . S
C2755 H2745 0.929 . S
C2755 C2753 1.433 . S
C2755 N2758 1.384 . S
C2756 H2747 0.929 . S
C2756 C2748 1.378 . S
C2756 C2751 1.350 . S
C2757 H2744 0.929 . S
C2757 C2749 1.433 . S
C2757 N2759 1.384 . S
N2758 C2754 1.427 . S
N2758 C2755 1.384 . S
N2759 C2751 1.427 . S
N2759 C2757 1.384 . S
H2760 C2766 0.930 . S
H2761 C2770 0.930 . S
H2762 C2775 0.929 . S
H2763 C2773 0.929 . S
H2764 C2768 0.929 . S
H2765 C2774 0.929 . S
C2766 H2760 0.930 . S
C2766 C2767 1.367 . S
C2766 C2774 1.378 . S
C2767 C2766 1.367 . S
C2767 C2775 1.433 . S
C2768 H2764 0.929 . S
C2768 C2770 1.378 . S
C2768 C2772 1.350 . S
C2769 C2772 1.463 . S
C2769 C2774 1.350 . S
C2769 N2777 1.427 . S
C2770 H2761 0.930 . S
C2770 C2768 1.378 . S
C2770 C2771 1.367 . S
C2771 C2770 1.367 . S
C2771 C2773 1.433 . S
C2772 C2768 1.350 . S
C2772 C2769 1.463 . S
C2772 N2776 1.427 . S
C2773 H2763 0.929 . S
C2773 C2771 1.433 . S
C2773 N2776 1.384 . S
C2774 H2765 0.929 . S
C2774 C2766 1.378 . S
C2774 C2769 1.350 . S
C2775 H2762 0.929 . S
C2775 C2767 1.433 . S
C2775 N2777 1.384 . S
N2776 C2772 1.427 . S
N2776 C2773 1.384 . S
N2777 C2769 1.427 . S
N2777 C2775 1.384 . S
H2778 C2784 0.930 . S
H2779 C2788 0.930 . S
H2780 C2793 0.929 . S
H2781 C2791 0.929 . S
H2782 C2786 0.929 . S
H2783 C2792 0.929 . S
C2784 H2778 0.930 . S
C2784 C2785 1.367 . S
C2784 C2792 1.378 . S
C2785 C2784 1.367 . S
C2785 C2793 1.433 . S
C2786 H2782 0.929 . S
C2786 C2788 1.378 . S
C2786 C2790 1.350 . S
C2787 C2790 1.463 . S
C2787 C2792 1.350 . S
C2787 N2795 1.427 . S
C2788 H2779 0.930 . S
C2788 C2786 1.378 . S
C2788 C2789 1.367 . S
C2789 C2788 1.367 . S
C2789 C2791 1.433 . S
C2790 C2786 1.350 . S
C2790 C2787 1.463 . S
C2790 N2794 1.427 . S
C2791 H2781 0.929 . S
C2791 C2789 1.433 . S
C2791 N2794 1.384 . S
C2792 H2783 0.929 . S
C2792 C2784 1.378 . S
C2792 C2787 1.350 . S
C2793 H2780 0.929 . S
C2793 C2785 1.433 . S
C2793 N2795 1.384 . S
N2794 C2790 1.427 . S
N2794 C2791 1.384 . S
N2795 C2787 1.427 . S
N2795 C2793 1.384 . S
H2796 C2802 0.930 . S
H2797 C2806 0.930 . S
H2798 C2811 0.929 . S
H2799 C2809 0.929 . S
H2800 C2804 0.929 . S
H2801 C2810 0.929 . S
C2802 H2796 0.930 . S
C2802 C2803 1.367 . S
C2802 C2810 1.378 . S
C2803 C2802 1.367 . S
C2803 C2811 1.433 . S
C2804 H2800 0.929 . S
C2804 C2806 1.378 . S
C2804 C2808 1.350 . S
C2805 C2808 1.463 . S
C2805 C2810 1.350 . S
C2805 N2813 1.427 . S
C2806 H2797 0.930 . S
C2806 C2804 1.378 . S
C2806 C2807 1.367 . S
C2807 C2806 1.367 . S
C2807 C2809 1.433 . S
C2808 C2804 1.350 . S
C2808 C2805 1.463 . S
C2808 N2812 1.427 . S
C2809 H2799 0.929 . S
C2809 C2807 1.433 . S
C2809 N2812 1.384 . S
C2810 H2801 0.929 . S
C2810 C2802 1.378 . S
C2810 C2805 1.350 . S
C2811 H2798 0.929 . S
C2811 C2803 1.433 . S
C2811 N2813 1.384 . S
N2812 C2808 1.427 . S
N2812 C2809 1.384 . S
N2813 C2805 1.427 . S
N2813 C2811 1.384 . S
H2814 C2820 0.930 . S
H2815 C2824 0.930 . S
H2816 C2829 0.929 . S
H2817 C2827 0.929 . S
H2818 C2822 0.929 . S
H2819 C2828 0.929 . S
C2820 H2814 0.930 . S
C2820 C2821 1.367 . S
C2820 C2828 1.378 . S
C2821 C2820 1.367 . S
C2821 C2829 1.433 . S
C2822 H2818 0.929 . S
C2822 C2824 1.378 . S
C2822 C2826 1.350 . S
C2823 C2826 1.463 . S
C2823 C2828 1.350 . S
C2823 N2831 1.427 . S
C2824 H2815 0.930 . S
C2824 C2822 1.378 . S
C2824 C2825 1.367 . S
C2825 C2824 1.367 . S
C2825 C2827 1.433 . S
C2826 C2822 1.350 . S
C2826 C2823 1.463 . S
C2826 N2830 1.427 . S
C2827 H2817 0.929 . S
C2827 C2825 1.433 . S
C2827 N2830 1.384 . S
C2828 H2819 0.929 . S
C2828 C2820 1.378 . S
C2828 C2823 1.350 . S
C2829 H2816 0.929 . S
C2829 C2821 1.433 . S
C2829 N2831 1.384 . S
N2830 C2826 1.427 . S
N2830 C2827 1.384 . S
N2831 C2823 1.427 . S
N2831 C2829 1.384 . S
H2832 C2838 0.930 . S
H2833 C2842 0.930 . S
H2834 C2847 0.929 . S
H2835 C2845 0.929 . S
H2836 C2840 0.929 . S
H2837 C2846 0.929 . S
C2838 H2832 0.930 . S
C2838 C2839 1.367 . S
C2838 C2846 1.378 . S
C2839 C2838 1.367 . S
C2839 C2847 1.433 . S
C2840 H2836 0.929 . S
C2840 C2842 1.378 . S
C2840 C2844 1.350 . S
C2841 C2844 1.463 . S
C2841 C2846 1.350 . S
C2841 N2849 1.427 . S
C2842 H2833 0.930 . S
C2842 C2840 1.378 . S
C2842 C2843 1.367 . S
C2843 C2842 1.367 . S
C2843 C2845 1.433 . S
C2844 C2840 1.350 . S
C2844 C2841 1.463 . S
C2844 N2848 1.427 . S
C2845 H2835 0.929 . S
C2845 C2843 1.433 . S
C2845 N2848 1.384 . S
C2846 H2837 0.929 . S
C2846 C2838 1.378 . S
C2846 C2841 1.350 . S
C2847 H2834 0.929 . S
C2847 C2839 1.433 . S
C2847 N2849 1.384 . S
N2848 C2844 1.427 . S
N2848 C2845 1.384 . S
N2849 C2841 1.427 . S
N2849 C2847 1.384 . S
H2850 C2856 0.930 . S
H2851 C2860 0.930 . S
H2852 C2865 0.929 . S
H2853 C2863 0.929 . S
H2854 C2858 0.929 . S
H2855 C2864 0.929 . S
C2856 H2850 0.930 . S
C2856 C2857 1.367 . S
C2856 C2864 1.378 . S
C2857 C2856 1.367 . S
C2857 C2865 1.433 . S
C2858 H2854 0.929 . S
C2858 C2860 1.378 . S
C2858 C2862 1.350 . S
C2859 C2862 1.463 . S
C2859 C2864 1.350 . S
C2859 N2867 1.427 . S
C2860 H2851 0.930 . S
C2860 C2858 1.378 . S
C2860 C2861 1.367 . S
C2861 C2860 1.367 . S
C2861 C2863 1.433 . S
C2862 C2858 1.350 . S
C2862 C2859 1.463 . S
C2862 N2866 1.427 . S
C2863 H2853 0.929 . S
C2863 C2861 1.433 . S
C2863 N2866 1.384 . S
C2864 H2855 0.929 . S
C2864 C2856 1.378 . S
C2864 C2859 1.350 . S
C2865 H2852 0.929 . S
C2865 C2857 1.433 . S
C2865 N2867 1.384 . S
N2866 C2862 1.427 . S
N2866 C2863 1.384 . S
N2867 C2859 1.427 . S
N2867 C2865 1.384 . S
H2868 C2874 0.930 . S
H2869 C2878 0.930 . S
H2870 C2883 0.929 . S
H2871 C2881 0.929 . S
H2872 C2876 0.929 . S
H2873 C2882 0.929 . S
C2874 H2868 0.930 . S
C2874 C2875 1.367 . S
C2874 C2882 1.378 . S
C2875 C2874 1.367 . S
C2875 C2883 1.433 . S
C2876 H2872 0.929 . S
C2876 C2878 1.378 . S
C2876 C2880 1.350 . S
C2877 C2880 1.463 . S
C2877 C2882 1.350 . S
C2877 N2885 1.427 . S
C2878 H2869 0.930 . S
C2878 C2876 1.378 . S
C2878 C2879 1.367 . S
C2879 C2878 1.367 . S
C2879 C2881 1.433 . S
C2880 C2876 1.350 . S
C2880 C2877 1.463 . S
C2880 N2884 1.427 . S
C2881 H2871 0.929 . S
C2881 C2879 1.433 . S
C2881 N2884 1.384 . S
C2882 H2873 0.929 . S
C2882 C2874 1.378 . S
C2882 C2877 1.350 . S
C2883 H2870 0.929 . S
C2883 C2875 1.433 . S
C2883 N2885 1.384 . S
N2884 C2880 1.427 . S
N2884 C2881 1.384 . S
N2885 C2877 1.427 . S
N2885 C2883 1.384 . S
H2886 C2892 0.930 . S
H2887 C2896 0.930 . S
H2888 C2901 0.929 . S
H2889 C2899 0.929 . S
H2890 C2894 0.929 . S
H2891 C2900 0.929 . S
C2892 H2886 0.930 . S
C2892 C2893 1.367 . S
C2892 C2900 1.378 . S
C2893 C2892 1.367 . S
C2893 C2901 1.433 . S
C2894 H2890 0.929 . S
C2894 C2896 1.378 . S
C2894 C2898 1.350 . S
C2895 C2898 1.463 . S
C2895 C2900 1.350 . S
C2895 N2903 1.427 . S
C2896 H2887 0.930 . S
C2896 C2894 1.378 . S
C2896 C2897 1.367 . S
C2897 C2896 1.367 . S
C2897 C2899 1.433 . S
C2898 C2894 1.350 . S
C2898 C2895 1.463 . S
C2898 N2902 1.427 . S
C2899 H2889 0.929 . S
C2899 C2897 1.433 . S
C2899 N2902 1.384 . S
C2900 H2891 0.929 . S
C2900 C2892 1.378 . S
C2900 C2895 1.350 . S
C2901 H2888 0.929 . S
C2901 C2893 1.433 . S
C2901 N2903 1.384 . S
N2902 C2898 1.427 . S
N2902 C2899 1.384 . S
N2903 C2895 1.427 . S
N2903 C2901 1.384 . S
H2904 C2910 0.930 . S
H2905 C2914 0.930 . S
H2906 C2919 0.929 . S
H2907 C2917 0.929 . S
H2908 C2912 0.929 . S
H2909 C2918 0.929 . S
C2910 H2904 0.930 . S
C2910 C2911 1.367 . S
C2910 C2918 1.378 . S
C2911 C2910 1.367 . S
C2911 C2919 1.433 . S
C2912 H2908 0.929 . S
C2912 C2914 1.378 . S
C2912 C2916 1.350 . S
C2913 C2916 1.463 . S
C2913 C2918 1.350 . S
C2913 N2921 1.427 . S
C2914 H2905 0.930 . S
C2914 C2912 1.378 . S
C2914 C2915 1.367 . S
C2915 C2914 1.367 . S
C2915 C2917 1.433 . S
C2916 C2912 1.350 . S
C2916 C2913 1.463 . S
C2916 N2920 1.427 . S
C2917 H2907 0.929 . S
C2917 C2915 1.433 . S
C2917 N2920 1.384 . S
C2918 H2909 0.929 . S
C2918 C2910 1.378 . S
C2918 C2913 1.350 . S
C2919 H2906 0.929 . S
C2919 C2911 1.433 . S
C2919 N2921 1.384 . S
N2920 C2916 1.427 . S
N2920 C2917 1.384 . S
N2921 C2913 1.427 . S
N2921 C2919 1.384 . S
H2922 C2928 0.930 . S
H2923 C2932 0.930 . S
H2924 C2937 0.929 . S
H2925 C2935 0.929 . S
H2926 C2930 0.929 . S
H2927 C2936 0.929 . S
C2928 H2922 0.930 . S
C2928 C2929 1.367 . S
C2928 C2936 1.378 . S
C2929 C2928 1.367 . S
C2929 C2937 1.433 . S
C2930 H2926 0.929 . S
C2930 C2932 1.378 . S
C2930 C2934 1.350 . S
C2931 C2934 1.463 . S
C2931 C2936 1.350 . S
C2931 N2939 1.427 . S
C2932 H2923 0.930 . S
C2932 C2930 1.378 . S
C2932 C2933 1.367 . S
C2933 C2932 1.367 . S
C2933 C2935 1.433 . S
C2934 C2930 1.350 . S
C2934 C2931 1.463 . S
C2934 N2938 1.427 . S
C2935 H2925 0.929 . S
C2935 C2933 1.433 . S
C2935 N2938 1.384 . S
C2936 H2927 0.929 . S
C2936 C2928 1.378 . S
C2936 C2931 1.350 . S
C2937 H2924 0.929 . S
C2937 C2929 1.433 . S
C2937 N2939 1.384 . S
N2938 C2934 1.427 . S
N2938 C2935 1.384 . S
N2939 C2931 1.427 . S
N2939 C2937 1.384 . S
H2940 C2946 0.930 . S
H2941 C2950 0.930 . S
H2942 C2955 0.929 . S
H2943 C2953 0.929 . S
H2944 C2948 0.929 . S
H2945 C2954 0.929 . S
C2946 H2940 0.930 . S
C2946 C2947 1.367 . S
C2946 C2954 1.378 . S
C2947 C2946 1.367 . S
C2947 C2955 1.433 . S
C2948 H2944 0.929 . S
C2948 C2950 1.378 . S
C2948 C2952 1.350 . S
C2949 C2952 1.463 . S
C2949 C2954 1.350 . S
C2949 N2957 1.427 . S
C2950 H2941 0.930 . S
C2950 C2948 1.378 . S
C2950 C2951 1.367 . S
C2951 C2950 1.367 . S
C2951 C2953 1.433 . S
C2952 C2948 1.350 . S
C2952 C2949 1.463 . S
C2952 N2956 1.427 . S
C2953 H2943 0.929 . S
C2953 C2951 1.433 . S
C2953 N2956 1.384 . S
C2954 H2945 0.929 . S
C2954 C2946 1.378 . S
C2954 C2949 1.350 . S
C2955 H2942 0.929 . S
C2955 C2947 1.433 . S
C2955 N2957 1.384 . S
N2956 C2952 1.427 . S
N2956 C2953 1.384 . S
N2957 C2949 1.427 . S
N2957 C2955 1.384 . S
H2958 C2964 0.930 . S
H2959 C2968 0.930 . S
H2960 C2973 0.929 . S
H2961 C2971 0.929 . S
H2962 C2966 0.929 . S
H2963 C2972 0.929 . S
C2964 H2958 0.930 . S
C2964 C2965 1.367 . S
C2964 C2972 1.378 . S
C2965 C2964 1.367 . S
C2965 C2973 1.433 . S
C2966 H2962 0.929 . S
C2966 C2968 1.378 . S
C2966 C2970 1.350 . S
C2967 C2970 1.463 . S
C2967 C2972 1.350 . S
C2967 N2975 1.427 . S
C2968 H2959 0.930 . S
C2968 C2966 1.378 . S
C2968 C2969 1.367 . S
C2969 C2968 1.367 . S
C2969 C2971 1.433 . S
C2970 C2966 1.350 . S
C2970 C2967 1.463 . S
C2970 N2974 1.427 . S
C2971 H2961 0.929 . S
C2971 C2969 1.433 . S
C2971 N2974 1.384 . S
C2972 H2963 0.929 . S
C2972 C2964 1.378 . S
C2972 C2967 1.350 . S
C2973 H2960 0.929 . S
C2973 C2965 1.433 . S
C2973 N2975 1.384 . S
N2974 C2970 1.427 . S
N2974 C2971 1.384 . S
N2975 C2967 1.427 . S
N2975 C2973 1.384 . S
H2976 C2982 0.930 . S
H2977 C2986 0.930 . S
H2978 C2991 0.929 . S
H2979 C2989 0.929 . S
H2980 C2984 0.929 . S
H2981 C2990 0.929 . S
C2982 H2976 0.930 . S
C2982 C2983 1.367 . S
C2982 C2990 1.378 . S
C2983 C2982 1.367 . S
C2983 C2991 1.433 . S
C2984 H2980 0.929 . S
C2984 C2986 1.378 . S
C2984 C2988 1.350 . S
C2985 C2988 1.463 . S
C2985 C2990 1.350 . S
C2985 N2993 1.427 . S
C2986 H2977 0.930 . S
C2986 C2984 1.378 . S
C2986 C2987 1.367 . S
C2987 C2986 1.367 . S
C2987 C2989 1.433 . S
C2988 C2984 1.350 . S
C2988 C2985 1.463 . S
C2988 N2992 1.427 . S
C2989 H2979 0.929 . S
C2989 C2987 1.433 . S
C2989 N2992 1.384 . S
C2990 H2981 0.929 . S
C2990 C2982 1.378 . S
C2990 C2985 1.350 . S
C2991 H2978 0.929 . S
C2991 C2983 1.433 . S
C2991 N2993 1.384 . S
N2992 C2988 1.427 . S
N2992 C2989 1.384 . S
N2993 C2985 1.427 . S
N2993 C2991 1.384 . S
H2994 C3000 0.930 . S
H2995 C3004 0.930 . S
H2996 C3009 0.929 . S
H2997 C3007 0.929 . S
H2998 C3002 0.929 . S
H2999 C3008 0.929 . S
C3000 H2994 0.930 . S
C3000 C3001 1.367 . S
C3000 C3008 1.378 . S
C3001 C3000 1.367 . S
C3001 C3009 1.433 . S
C3002 H2998 0.929 . S
C3002 C3004 1.378 . S
C3002 C3006 1.350 . S
C3003 C3006 1.463 . S
C3003 C3008 1.350 . S
C3003 N3011 1.427 . S
C3004 H2995 0.930 . S
C3004 C3002 1.378 . S
C3004 C3005 1.367 . S
C3005 C3004 1.367 . S
C3005 C3007 1.433 . S
C3006 C3002 1.350 . S
C3006 C3003 1.463 . S
C3006 N3010 1.427 . S
C3007 H2997 0.929 . S
C3007 C3005 1.433 . S
C3007 N3010 1.384 . S
C3008 H2999 0.929 . S
C3008 C3000 1.378 . S
C3008 C3003 1.350 . S
C3009 H2996 0.929 . S
C3009 C3001 1.433 . S
C3009 N3011 1.384 . S
N3010 C3006 1.427 . S
N3010 C3007 1.384 . S
N3011 C3003 1.427 . S
N3011 C3009 1.384 . S
H3012 C3018 0.930 . S
H3013 C3022 0.930 . S
H3014 C3027 0.929 . S
H3015 C3025 0.929 . S
H3016 C3020 0.929 . S
H3017 C3026 0.929 . S
C3018 H3012 0.930 . S
C3018 C3019 1.367 . S
C3018 C3026 1.378 . S
C3019 C3018 1.367 . S
C3019 C3027 1.433 . S
C3020 H3016 0.929 . S
C3020 C3022 1.378 . S
C3020 C3024 1.350 . S
C3021 C3024 1.463 . S
C3021 C3026 1.350 . S
C3021 N3029 1.427 . S
C3022 H3013 0.930 . S
C3022 C3020 1.378 . S
C3022 C3023 1.367 . S
C3023 C3022 1.367 . S
C3023 C3025 1.433 . S
C3024 C3020 1.350 . S
C3024 C3021 1.463 . S
C3024 N3028 1.427 . S
C3025 H3015 0.929 . S
C3025 C3023 1.433 . S
C3025 N3028 1.384 . S
C3026 H3017 0.929 . S
C3026 C3018 1.378 . S
C3026 C3021 1.350 . S
C3027 H3014 0.929 . S
C3027 C3019 1.433 . S
C3027 N3029 1.384 . S
N3028 C3024 1.427 . S
N3028 C3025 1.384 . S
N3029 C3021 1.427 . S
N3029 C3027 1.384 . S
H3030 C3036 0.930 . S
H3031 C3040 0.930 . S
H3032 C3045 0.929 . S
H3033 C3043 0.929 . S
H3034 C3038 0.929 . S
H3035 C3044 0.929 . S
C3036 H3030 0.930 . S
C3036 C3037 1.367 . S
C3036 C3044 1.378 . S
C3037 C3036 1.367 . S
C3037 C3045 1.433 . S
C3038 H3034 0.929 . S
C3038 C3040 1.378 . S
C3038 C3042 1.350 . S
C3039 C3042 1.463 . S
C3039 C3044 1.350 . S
C3039 N3047 1.427 . S
C3040 H3031 0.930 . S
C3040 C3038 1.378 . S
C3040 C3041 1.367 . S
C3041 C3040 1.367 . S
C3041 C3043 1.433 . S
C3042 C3038 1.350 . S
C3042 C3039 1.463 . S
C3042 N3046 1.427 . S
C3043 H3033 0.929 . S
C3043 C3041 1.433 . S
C3043 N3046 1.384 . S
C3044 H3035 0.929 . S
C3044 C3036 1.378 . S
C3044 C3039 1.350 . S
C3045 H3032 0.929 . S
C3045 C3037 1.433 . S
C3045 N3047 1.384 . S
N3046 C3042 1.427 . S
N3046 C3043 1.384 . S
N3047 C3039 1.427 . S
N3047 C3045 1.384 . S
H3048 C3054 0.930 . S
H3049 C3058 0.930 . S
H3050 C3063 0.929 . S
H3051 C3061 0.929 . S
H3052 C3056 0.929 . S
H3053 C3062 0.929 . S
C3054 H3048 0.930 . S
C3054 C3055 1.367 . S
C3054 C3062 1.378 . S
C3055 C3054 1.367 . S
C3055 C3063 1.433 . S
C3056 H3052 0.929 . S
C3056 C3058 1.378 . S
C3056 C3060 1.350 . S
C3057 C3060 1.463 . S
C3057 C3062 1.350 . S
C3057 N3065 1.427 . S
C3058 H3049 0.930 . S
C3058 C3056 1.378 . S
C3058 C3059 1.367 . S
C3059 C3058 1.367 . S
C3059 C3061 1.433 . S
C3060 C3056 1.350 . S
C3060 C3057 1.463 . S
C3060 N3064 1.427 . S
C3061 H3051 0.929 . S
C3061 C3059 1.433 . S
C3061 N3064 1.384 . S
C3062 H3053 0.929 . S
C3062 C3054 1.378 . S
C3062 C3057 1.350 . S
C3063 H3050 0.929 . S
C3063 C3055 1.433 . S
C3063 N3065 1.384 . S
N3064 C3060 1.427 . S
N3064 C3061 1.384 . S
N3065 C3057 1.427 . S
N3065 C3063 1.384 . S
H3066 C3072 0.930 . S
H3067 C3076 0.930 . S
H3068 C3081 0.929 . S
H3069 C3079 0.929 . S
H3070 C3074 0.929 . S
H3071 C3080 0.929 . S
C3072 H3066 0.930 . S
C3072 C3073 1.367 . S
C3072 C3080 1.378 . S
C3073 C3072 1.367 . S
C3073 C3081 1.433 . S
C3074 H3070 0.929 . S
C3074 C3076 1.378 . S
C3074 C3078 1.350 . S
C3075 C3078 1.463 . S
C3075 C3080 1.350 . S
C3075 N3083 1.427 . S
C3076 H3067 0.930 . S
C3076 C3074 1.378 . S
C3076 C3077 1.367 . S
C3077 C3076 1.367 . S
C3077 C3079 1.433 . S
C3078 C3074 1.350 . S
C3078 C3075 1.463 . S
C3078 N3082 1.427 . S
C3079 H3069 0.929 . S
C3079 C3077 1.433 . S
C3079 N3082 1.384 . S
C3080 H3071 0.929 . S
C3080 C3072 1.378 . S
C3080 C3075 1.350 . S
C3081 H3068 0.929 . S
C3081 C3073 1.433 . S
C3081 N3083 1.384 . S
N3082 C3078 1.427 . S
N3082 C3079 1.384 . S
N3083 C3075 1.427 . S
N3083 C3081 1.384 . S
H3084 C3090 0.930 . S
H3085 C3094 0.930 . S
H3086 C3099 0.929 . S
H3087 C3097 0.929 . S
H3088 C3092 0.929 . S
H3089 C3098 0.929 . S
C3090 H3084 0.930 . S
C3090 C3091 1.367 . S
C3090 C3098 1.378 . S
C3091 C3090 1.367 . S
C3091 C3099 1.433 . S
C3092 H3088 0.929 . S
C3092 C3094 1.378 . S
C3092 C3096 1.350 . S
C3093 C3096 1.463 . S
C3093 C3098 1.350 . S
C3093 N3101 1.427 . S
C3094 H3085 0.930 . S
C3094 C3092 1.378 . S
C3094 C3095 1.367 . S
C3095 C3094 1.367 . S
C3095 C3097 1.433 . S
C3096 C3092 1.350 . S
C3096 C3093 1.463 . S
C3096 N3100 1.427 . S
C3097 H3087 0.929 . S
C3097 C3095 1.433 . S
C3097 N3100 1.384 . S
C3098 H3089 0.929 . S
C3098 C3090 1.378 . S
C3098 C3093 1.350 . S
C3099 H3086 0.929 . S
C3099 C3091 1.433 . S
C3099 N3101 1.384 . S
N3100 C3096 1.427 . S
N3100 C3097 1.384 . S
N3101 C3093 1.427 . S
N3101 C3099 1.384 . S
H3102 C3108 0.930 . S
H3103 C3112 0.930 . S
H3104 C3117 0.929 . S
H3105 C3115 0.929 . S
H3106 C3110 0.929 . S
H3107 C3116 0.929 . S
C3108 H3102 0.930 . S
C3108 C3109 1.367 . S
C3108 C3116 1.378 . S
C3109 C3108 1.367 . S
C3109 C3117 1.433 . S
C3110 H3106 0.929 . S
C3110 C3112 1.378 . S
C3110 C3114 1.350 . S
C3111 C3114 1.463 . S
C3111 C3116 1.350 . S
C3111 N3119 1.427 . S
C3112 H3103 0.930 . S
C3112 C3110 1.378 . S
C3112 C3113 1.367 . S
C3113 C3112 1.367 . S
C3113 C3115 1.433 . S
C3114 C3110 1.350 . S
C3114 C3111 1.463 . S
C3114 N3118 1.427 . S
C3115 H3105 0.929 . S
C3115 C3113 1.433 . S
C3115 N3118 1.384 . S
C3116 H3107 0.929 . S
C3116 C3108 1.378 . S
C3116 C3111 1.350 . S
C3117 H3104 0.929 . S
C3117 C3109 1.433 . S
C3117 N3119 1.384 . S
N3118 C3114 1.427 . S
N3118 C3115 1.384 . S
N3119 C3111 1.427 . S
N3119 C3117 1.384 . S
H3120 C3126 0.930 . S
H3121 C3130 0.930 . S
H3122 C3135 0.929 . S
H3123 C3133 0.929 . S
H3124 C3128 0.929 . S
H3125 C3134 0.929 . S
C3126 H3120 0.930 . S
C3126 C3127 1.367 . S
C3126 C3134 1.378 . S
C3127 C3126 1.367 . S
C3127 C3135 1.433 . S
C3128 H3124 0.929 . S
C3128 C3130 1.378 . S
C3128 C3132 1.350 . S
C3129 C3132 1.463 . S
C3129 C3134 1.350 . S
C3129 N3137 1.427 . S
C3130 H3121 0.930 . S
C3130 C3128 1.378 . S
C3130 C3131 1.367 . S
C3131 C3130 1.367 . S
C3131 C3133 1.433 . S
C3132 C3128 1.350 . S
C3132 C3129 1.463 . S
C3132 N3136 1.427 . S
C3133 H3123 0.929 . S
C3133 C3131 1.433 . S
C3133 N3136 1.384 . S
C3134 H3125 0.929 . S
C3134 C3126 1.378 . S
C3134 C3129 1.350 . S
C3135 H3122 0.929 . S
C3135 C3127 1.433 . S
C3135 N3137 1.384 . S
N3136 C3132 1.427 . S
N3136 C3133 1.384 . S
N3137 C3129 1.427 . S
N3137 C3135 1.384 . S
H3138 C3144 0.930 . S
H3139 C3148 0.930 . S
H3140 C3153 0.929 . S
H3141 C3151 0.929 . S
H3142 C3146 0.929 . S
H3143 C3152 0.929 . S
C3144 H3138 0.930 . S
C3144 C3145 1.367 . S
C3144 C3152 1.378 . S
C3145 C3144 1.367 . S
C3145 C3153 1.433 . S
C3146 H3142 0.929 . S
C3146 C3148 1.378 . S
C3146 C3150 1.350 . S
C3147 C3150 1.463 . S
C3147 C3152 1.350 . S
C3147 N3155 1.427 . S
C3148 H3139 0.930 . S
C3148 C3146 1.378 . S
C3148 C3149 1.367 . S
C3149 C3148 1.367 . S
C3149 C3151 1.433 . S
C3150 C3146 1.350 . S
C3150 C3147 1.463 . S
C3150 N3154 1.427 . S
C3151 H3141 0.929 . S
C3151 C3149 1.433 . S
C3151 N3154 1.384 . S
C3152 H3143 0.929 . S
C3152 C3144 1.378 . S
C3152 C3147 1.350 . S
C3153 H3140 0.929 . S
C3153 C3145 1.433 . S
C3153 N3155 1.384 . S
N3154 C3150 1.427 . S
N3154 C3151 1.384 . S
N3155 C3147 1.427 . S
N3155 C3153 1.384 . S
H3156 C3162 0.930 . S
H3157 C3166 0.930 . S
H3158 C3171 0.929 . S
H3159 C3169 0.929 . S
H3160 C3164 0.929 . S
H3161 C3170 0.929 . S
C3162 H3156 0.930 . S
C3162 C3163 1.367 . S
C3162 C3170 1.378 . S
C3163 C3162 1.367 . S
C3163 C3171 1.433 . S
C3164 H3160 0.929 . S
C3164 C3166 1.378 . S
C3164 C3168 1.350 . S
C3165 C3168 1.463 . S
C3165 C3170 1.350 . S
C3165 N3173 1.427 . S
C3166 H3157 0.930 . S
C3166 C3164 1.378 . S
C3166 C3167 1.367 . S
C3167 C3166 1.367 . S
C3167 C3169 1.433 . S
C3168 C3164 1.350 . S
C3168 C3165 1.463 . S
C3168 N3172 1.427 . S
C3169 H3159 0.929 . S
C3169 C3167 1.433 . S
C3169 N3172 1.384 . S
C3170 H3161 0.929 . S
C3170 C3162 1.378 . S
C3170 C3165 1.350 . S
C3171 H3158 0.929 . S
C3171 C3163 1.433 . S
C3171 N3173 1.384 . S
N3172 C3168 1.427 . S
N3172 C3169 1.384 . S
N3173 C3165 1.427 . S
N3173 C3171 1.384 . S
H3174 C3180 0.930 . S
H3175 C3184 0.930 . S
H3176 C3189 0.929 . S
H3177 C3187 0.929 . S
H3178 C3182 0.929 . S
H3179 C3188 0.929 . S
C3180 H3174 0.930 . S
C3180 C3181 1.367 . S
C3180 C3188 1.378 . S
C3181 C3180 1.367 . S
C3181 C3189 1.433 . S
C3182 H3178 0.929 . S
C3182 C3184 1.378 . S
C3182 C3186 1.350 . S
C3183 C3186 1.463 . S
C3183 C3188 1.350 . S
C3183 N3191 1.427 . S
C3184 H3175 0.930 . S
C3184 C3182 1.378 . S
C3184 C3185 1.367 . S
C3185 C3184 1.367 . S
C3185 C3187 1.433 . S
C3186 C3182 1.350 . S
C3186 C3183 1.463 . S
C3186 N3190 1.427 . S
C3187 H3177 0.929 . S
C3187 C3185 1.433 . S
C3187 N3190 1.384 . S
C3188 H3179 0.929 . S
C3188 C3180 1.378 . S
C3188 C3183 1.350 . S
C3189 H3176 0.929 . S
C3189 C3181 1.433 . S
C3189 N3191 1.384 . S
N3190 C3186 1.427 . S
N3190 C3187 1.384 . S
N3191 C3183 1.427 . S
N3191 C3189 1.384 . S
H3192 C3198 0.930 . S
H3193 C3202 0.930 . S
H3194 C3207 0.929 . S
H3195 C3205 0.929 . S
H3196 C3200 0.929 . S
H3197 C3206 0.929 . S
C3198 H3192 0.930 . S
C3198 C3199 1.367 . S
C3198 C3206 1.378 . S
C3199 C3198 1.367 . S
C3199 C3207 1.433 . S
C3200 H3196 0.929 . S
C3200 C3202 1.378 . S
C3200 C3204 1.350 . S
C3201 C3204 1.463 . S
C3201 C3206 1.350 . S
C3201 N3209 1.427 . S
C3202 H3193 0.930 . S
C3202 C3200 1.378 . S
C3202 C3203 1.367 . S
C3203 C3202 1.367 . S
C3203 C3205 1.433 . S
C3204 C3200 1.350 . S
C3204 C3201 1.463 . S
C3204 N3208 1.427 . S
C3205 H3195 0.929 . S
C3205 C3203 1.433 . S
C3205 N3208 1.384 . S
C3206 H3197 0.929 . S
C3206 C3198 1.378 . S
C3206 C3201 1.350 . S
C3207 H3194 0.929 . S
C3207 C3199 1.433 . S
C3207 N3209 1.384 . S
N3208 C3204 1.427 . S
N3208 C3205 1.384 . S
N3209 C3201 1.427 . S
N3209 C3207 1.384 . S
H3210 C3216 0.930 . S
H3211 C3220 0.930 . S
H3212 C3225 0.929 . S
H3213 C3223 0.929 . S
H3214 C3218 0.929 . S
H3215 C3224 0.929 . S
C3216 H3210 0.930 . S
C3216 C3217 1.367 . S
C3216 C3224 1.378 . S
C3217 C3216 1.367 . S
C3217 C3225 1.433 . S
C3218 H3214 0.929 . S
C3218 C3220 1.378 . S
C3218 C3222 1.350 . S
C3219 C3222 1.463 . S
C3219 C3224 1.350 . S
C3219 N3227 1.427 . S
C3220 H3211 0.930 . S
C3220 C3218 1.378 . S
C3220 C3221 1.367 . S
C3221 C3220 1.367 . S
C3221 C3223 1.433 . S
C3222 C3218 1.350 . S
C3222 C3219 1.463 . S
C3222 N3226 1.427 . S
C3223 H3213 0.929 . S
C3223 C3221 1.433 . S
C3223 N3226 1.384 . S
C3224 H3215 0.929 . S
C3224 C3216 1.378 . S
C3224 C3219 1.350 . S
C3225 H3212 0.929 . S
C3225 C3217 1.433 . S
C3225 N3227 1.384 . S
N3226 C3222 1.427 . S
N3226 C3223 1.384 . S
N3227 C3219 1.427 . S
N3227 C3225 1.384 . S
H3228 C3234 0.930 . S
H3229 C3238 0.930 . S
H3230 C3243 0.929 . S
H3231 C3241 0.929 . S
H3232 C3236 0.929 . S
H3233 C3242 0.929 . S
C3234 H3228 0.930 . S
C3234 C3235 1.367 . S
C3234 C3242 1.378 . S
C3235 C3234 1.367 . S
C3235 C3243 1.433 . S
C3236 H3232 0.929 . S
C3236 C3238 1.378 . S
C3236 C3240 1.350 . S
C3237 C3240 1.463 . S
C3237 C3242 1.350 . S
C3237 N3245 1.427 . S
C3238 H3229 0.930 . S
C3238 C3236 1.378 . S
C3238 C3239 1.367 . S
C3239 C3238 1.367 . S
C3239 C3241 1.433 . S
C3240 C3236 1.350 . S
C3240 C3237 1.463 . S
C3240 N3244 1.427 . S
C3241 H3231 0.929 . S
C3241 C3239 1.433 . S
C3241 N3244 1.384 . S
C3242 H3233 0.929 . S
C3242 C3234 1.378 . S
C3242 C3237 1.350 . S
C3243 H3230 0.929 . S
C3243 C3235 1.433 . S
C3243 N3245 1.384 . S
N3244 C3240 1.427 . S
N3244 C3241 1.384 . S
N3245 C3237 1.427 . S
N3245 C3243 1.384 . S
H3246 C3252 0.930 . S
H3247 C3256 0.930 . S
H3248 C3261 0.929 . S
H3249 C3259 0.929 . S
H3250 C3254 0.929 . S
H3251 C3260 0.929 . S
C3252 H3246 0.930 . S
C3252 C3253 1.367 . S
C3252 C3260 1.378 . S
C3253 C3252 1.367 . S
C3253 C3261 1.433 . S
C3254 H3250 0.929 . S
C3254 C3256 1.378 . S
C3254 C3258 1.350 . S
C3255 C3258 1.463 . S
C3255 C3260 1.350 . S
C3255 N3263 1.427 . S
C3256 H3247 0.930 . S
C3256 C3254 1.378 . S
C3256 C3257 1.367 . S
C3257 C3256 1.367 . S
C3257 C3259 1.433 . S
C3258 C3254 1.350 . S
C3258 C3255 1.463 . S
C3258 N3262 1.427 . S
C3259 H3249 0.929 . S
C3259 C3257 1.433 . S
C3259 N3262 1.384 . S
C3260 H3251 0.929 . S
C3260 C3252 1.378 . S
C3260 C3255 1.350 . S
C3261 H3248 0.929 . S
C3261 C3253 1.433 . S
C3261 N3263 1.384 . S
N3262 C3258 1.427 . S
N3262 C3259 1.384 . S
N3263 C3255 1.427 . S
N3263 C3261 1.384 . S
H3264 C3270 0.930 . S
H3265 C3274 0.930 . S
H3266 C3279 0.929 . S
H3267 C3277 0.929 . S
H3268 C3272 0.929 . S
H3269 C3278 0.929 . S
C3270 H3264 0.930 . S
C3270 C3271 1.367 . S
C3270 C3278 1.378 . S
C3271 C3270 1.367 . S
C3271 C3279 1.433 . S
C3272 H3268 0.929 . S
C3272 C3274 1.378 . S
C3272 C3276 1.350 . S
C3273 C3276 1.463 1_455 S
C3273 C3278 1.350 . S
C3273 N3281 1.427 . S
C3274 H3265 0.930 . S
C3274 C3272 1.378 . S
C3274 C3275 1.367 . S
C3275 C3274 1.367 . S
C3275 C3277 1.433 . S
C3276 C3272 1.350 . S
C3276 C3273 1.463 1_655 S
C3276 N3280 1.427 . S
C3277 H3267 0.929 . S
C3277 C3275 1.433 . S
C3277 N3280 1.384 . S
C3278 H3269 0.929 . S
C3278 C3270 1.378 . S
C3278 C3273 1.350 . S
C3279 H3266 0.929 . S
C3279 C3271 1.433 . S
C3279 N3281 1.384 . S
N3280 C3276 1.427 . S
N3280 C3277 1.384 . S
N3281 C3273 1.427 . S
N3281 C3279 1.384 . S
H3282 C3288 0.930 . S
H3283 C3292 0.930 . S
H3284 C3297 0.929 . S
H3285 C3295 0.929 . S
H3286 C3290 0.929 . S
H3287 C3296 0.929 . S
C3288 H3282 0.930 . S
C3288 C3289 1.367 1_455 S
C3288 C3296 1.378 . S
C3289 C3288 1.367 1_655 S
C3289 C3297 1.433 . S
C3290 H3286 0.929 . S
C3290 C3292 1.378 . S
C3290 C3294 1.350 1_655 S
C3291 C3294 1.463 1_655 S
C3291 C3296 1.350 1_655 S
C3291 N3299 1.427 . S
C3292 H3283 0.930 . S
C3292 C3290 1.378 . S
C3292 C3293 1.367 1_655 S
C3293 C3292 1.367 1_455 S
C3293 C3295 1.433 . S
C3294 C3290 1.350 1_455 S
C3294 C3291 1.463 1_455 S
C3294 N3298 1.427 . S
C3295 H3285 0.929 . S
C3295 C3293 1.433 . S
C3295 N3298 1.384 . S
C3296 H3287 0.929 . S
C3296 C3288 1.378 . S
C3296 C3291 1.350 1_455 S
C3297 H3284 0.929 . S
C3297 C3289 1.433 . S
C3297 N3299 1.384 . S
N3298 C3294 1.427 . S
N3298 C3295 1.384 . S
N3299 C3291 1.427 . S
N3299 C3297 1.384 . S
H3300 C3306 0.930 . S
H3301 C3310 0.930 . S
H3302 C3315 0.929 . S
H3303 C3313 0.929 . S
H3304 C3308 0.929 . S
H3305 C3314 0.929 . S
C3306 H3300 0.930 . S
C3306 C3307 1.367 . S
C3306 C3314 1.378 . S
C3307 C3306 1.367 . S
C3307 C3315 1.433 . S
C3308 H3304 0.929 . S
C3308 C3310 1.378 . S
C3308 C3312 1.350 . S
C3309 C3312 1.463 . S
C3309 C3314 1.350 . S
C3309 N3317 1.427 . S
C3310 H3301 0.930 . S
C3310 C3308 1.378 . S
C3310 C3311 1.367 . S
C3311 C3310 1.367 . S
C3311 C3313 1.433 . S
C3312 C3308 1.350 . S
C3312 C3309 1.463 . S
C3312 N3316 1.427 . S
C3313 H3303 0.929 . S
C3313 C3311 1.433 . S
C3313 N3316 1.384 . S
C3314 H3305 0.929 . S
C3314 C3306 1.378 . S
C3314 C3309 1.350 . S
C3315 H3302 0.929 . S
C3315 C3307 1.433 . S
C3315 N3317 1.384 . S
N3316 C3312 1.427 . S
N3316 C3313 1.384 . S
N3317 C3309 1.427 . S
N3317 C3315 1.384 . S
H3318 C3324 0.930 . S
H3319 C3328 0.930 . S
H3320 C3333 0.929 . S
H3321 C3331 0.929 . S
H3322 C3326 0.929 . S
H3323 C3332 0.929 . S
C3324 H3318 0.930 . S
C3324 C3325 1.367 . S
C3324 C3332 1.378 . S
C3325 C3324 1.367 . S
C3325 C3333 1.433 . S
C3326 H3322 0.929 . S
C3326 C3328 1.378 . S
C3326 C3330 1.350 . S
C3327 C3330 1.463 . S
C3327 C3332 1.350 . S
C3327 N3335 1.427 . S
C3328 H3319 0.930 . S
C3328 C3326 1.378 . S
C3328 C3329 1.367 . S
C3329 C3328 1.367 . S
C3329 C3331 1.433 . S
C3330 C3326 1.350 . S
C3330 C3327 1.463 . S
C3330 N3334 1.427 . S
C3331 H3321 0.929 . S
C3331 C3329 1.433 . S
C3331 N3334 1.384 . S
C3332 H3323 0.929 . S
C3332 C3324 1.378 . S
C3332 C3327 1.350 . S
C3333 H3320 0.929 . S
C3333 C3325 1.433 . S
C3333 N3335 1.384 . S
N3334 C3330 1.427 . S
N3334 C3331 1.384 . S
N3335 C3327 1.427 . S
N3335 C3333 1.384 . S
H3336 C3342 0.930 . S
H3337 C3346 0.930 . S
H3338 C3351 0.929 . S
H3339 C3349 0.929 . S
H3340 C3344 0.929 . S
H3341 C3350 0.929 . S
C3342 H3336 0.930 . S
C3342 C3343 1.367 . S
C3342 C3350 1.378 . S
C3343 C3342 1.367 . S
C3343 C3351 1.433 . S
C3344 H3340 0.929 . S
C3344 C3346 1.378 . S
C3344 C3348 1.350 . S
C3345 C3348 1.463 1_655 S
C3345 C3350 1.350 . S
C3345 N3353 1.427 . S
C3346 H3337 0.930 . S
C3346 C3344 1.378 . S
C3346 C3347 1.367 . S
C3347 C3346 1.367 . S
C3347 C3349 1.433 . S
C3348 C3344 1.350 . S
C3348 C3345 1.463 1_455 S
C3348 N3352 1.427 . S
C3349 H3339 0.929 . S
C3349 C3347 1.433 . S
C3349 N3352 1.384 . S
C3350 H3341 0.929 . S
C3350 C3342 1.378 . S
C3350 C3345 1.350 . S
C3351 H3338 0.929 . S
C3351 C3343 1.433 . S
C3351 N3353 1.384 . S
N3352 C3348 1.427 . S
N3352 C3349 1.384 . S
N3353 C3345 1.427 . S
N3353 C3351 1.384 . S
H3354 C3360 0.930 . S
H3355 C3364 0.930 . S
H3356 C3369 0.929 . S
H3357 C3367 0.929 . S
H3358 C3362 0.929 . S
H3359 C3368 0.929 . S
C3360 H3354 0.930 . S
C3360 C3361 1.367 . S
C3360 C3368 1.378 . S
C3361 C3360 1.367 . S
C3361 C3369 1.433 . S
C3362 H3358 0.929 . S
C3362 C3364 1.378 . S
C3362 C3366 1.350 . S
C3363 C3366 1.463 . S
C3363 C3368 1.350 . S
C3363 N3371 1.427 . S
C3364 H3355 0.930 . S
C3364 C3362 1.378 . S
C3364 C3365 1.367 . S
C3365 C3364 1.367 . S
C3365 C3367 1.433 . S
C3366 C3362 1.350 . S
C3366 C3363 1.463 . S
C3366 N3370 1.427 . S
C3367 H3357 0.929 . S
C3367 C3365 1.433 . S
C3367 N3370 1.384 . S
C3368 H3359 0.929 . S
C3368 C3360 1.378 . S
C3368 C3363 1.350 . S
C3369 H3356 0.929 . S
C3369 C3361 1.433 . S
C3369 N3371 1.384 . S
N3370 C3366 1.427 . S
N3370 C3367 1.384 . S
N3371 C3363 1.427 . S
N3371 C3369 1.384 . S
H3372 C3378 0.930 . S
H3373 C3382 0.930 . S
H3374 C3387 0.929 . S
H3375 C3385 0.929 . S
H3376 C3380 0.929 . S
H3377 C3386 0.929 . S
C3378 H3372 0.930 . S
C3378 C3379 1.367 . S
C3378 C3386 1.378 . S
C3379 C3378 1.367 . S
C3379 C3387 1.433 . S
C3380 H3376 0.929 . S
C3380 C3382 1.378 . S
C3380 C3384 1.350 . S
C3381 C3384 1.463 . S
C3381 C3386 1.350 . S
C3381 N3389 1.427 . S
C3382 H3373 0.930 . S
C3382 C3380 1.378 . S
C3382 C3383 1.367 . S
C3383 C3382 1.367 . S
C3383 C3385 1.433 . S
C3384 C3380 1.350 . S
C3384 C3381 1.463 . S
C3384 N3388 1.427 . S
C3385 H3375 0.929 . S
C3385 C3383 1.433 . S
C3385 N3388 1.384 . S
C3386 H3377 0.929 . S
C3386 C3378 1.378 . S
C3386 C3381 1.350 . S
C3387 H3374 0.929 . S
C3387 C3379 1.433 . S
C3387 N3389 1.384 . S
N3388 C3384 1.427 . S
N3388 C3385 1.384 . S
N3389 C3381 1.427 . S
N3389 C3387 1.384 . S
H3390 C3396 0.930 . S
H3391 C3400 0.930 . S
H3392 C3405 0.929 . S
H3393 C3403 0.929 . S
H3394 C3398 0.929 . S
H3395 C3404 0.929 . S
C3396 H3390 0.930 . S
C3396 C3397 1.367 1_655 S
C3396 C3404 1.378 . S
C3397 C3396 1.367 1_455 S
C3397 C3405 1.433 . S
C3398 H3394 0.929 . S
C3398 C3400 1.378 . S
C3398 C3402 1.325 1_455 S
C3399 C3402 1.460 1_455 S
C3399 C3404 1.325 1_455 S
C3399 N3407 1.458 . S
C3400 H3391 0.930 . S
C3400 C3398 1.378 . S
C3400 C3401 1.367 1_455 S
C3401 C3400 1.367 1_655 S
C3401 C3403 1.433 . S
C3402 C3398 1.325 1_655 S
C3402 C3399 1.460 1_655 S
C3402 N3406 1.458 . S
C3403 H3393 0.929 . S
C3403 C3401 1.433 . S
C3403 N3406 1.384 . S
C3404 H3395 0.929 . S
C3404 C3396 1.378 . S
C3404 C3399 1.325 1_655 S
C3405 H3392 0.929 . S
C3405 C3397 1.433 . S
C3405 N3407 1.384 . S
N3406 C3402 1.458 . S
N3406 C3403 1.384 . S
N3407 C3399 1.458 . S
N3407 C3405 1.384 . S
H3408 C3414 0.930 . S
H3409 C3418 0.930 . S
H3410 C3423 0.929 . S
H3411 C3421 0.929 . S
H3412 C3416 0.929 . S
H3413 C3422 0.929 . S
C3414 H3408 0.930 . S
C3414 C3415 1.367 . S
C3414 C3422 1.378 . S
C3415 C3414 1.367 . S
C3415 C3423 1.433 . S
C3416 H3412 0.929 . S
C3416 C3418 1.378 . S
C3416 C3420 1.350 . S
C3417 C3420 1.463 1_455 S
C3417 C3422 1.350 . S
C3417 N3425 1.427 . S
C3418 H3409 0.930 . S
C3418 C3416 1.378 . S
C3418 C3419 1.367 . S
C3419 C3418 1.367 . S
C3419 C3421 1.433 . S
C3420 C3416 1.350 . S
C3420 C3417 1.463 1_655 S
C3420 N3424 1.427 . S
C3421 H3411 0.929 . S
C3421 C3419 1.433 . S
C3421 N3424 1.384 . S
C3422 H3413 0.929 . S
C3422 C3414 1.378 . S
C3422 C3417 1.350 . S
C3423 H3410 0.929 . S
C3423 C3415 1.433 . S
C3423 N3425 1.384 . S
N3424 C3420 1.427 . S
N3424 C3421 1.384 . S
N3425 C3417 1.427 . S
N3425 C3423 1.384 . S
H3426 C3432 0.930 . S
H3427 C3436 0.930 . S
H3428 C3441 0.929 . S
H3429 C3439 0.929 . S
H3430 C3434 0.929 . S
H3431 C3440 0.929 . S
C3432 H3426 0.930 . S
C3432 C3433 1.367 1_455 S
C3432 C3440 1.378 . S
C3433 C3432 1.367 1_655 S
C3433 C3441 1.433 . S
C3434 H3430 0.929 . S
C3434 C3436 1.378 . S
C3434 C3438 1.324 1_655 S
C3435 C3438 1.461 1_655 S
C3435 C3440 1.324 1_655 S
C3435 N3443 1.457 . S
C3436 H3427 0.930 . S
C3436 C3434 1.378 . S
C3436 C3437 1.367 1_655 S
C3437 C3436 1.367 1_455 S
C3437 C3439 1.433 . S
C3438 C3434 1.324 1_455 S
C3438 C3435 1.461 1_455 S
C3438 N3442 1.457 . S
C3439 H3429 0.929 . S
C3439 C3437 1.433 . S
C3439 N3442 1.384 . S
C3440 H3431 0.929 . S
C3440 C3432 1.378 . S
C3440 C3435 1.324 1_455 S
C3441 H3428 0.929 . S
C3441 C3433 1.433 . S
C3441 N3443 1.384 . S
N3442 C3438 1.457 . S
N3442 C3439 1.384 . S
N3443 C3435 1.457 . S
N3443 C3441 1.384 . S
H3444 C3450 0.930 . S
H3445 C3454 0.930 . S
H3446 C3459 0.929 . S
H3447 C3457 0.929 . S
H3448 C3452 0.929 . S
H3449 C3458 0.929 . S
C3450 H3444 0.930 . S
C3450 C3451 1.367 . S
C3450 C3458 1.378 . S
C3451 C3450 1.367 . S
C3451 C3459 1.433 . S
C3452 H3448 0.929 . S
C3452 C3454 1.378 . S
C3452 C3456 1.350 . S
C3453 C3456 1.463 . S
C3453 C3458 1.350 . S
C3453 N3461 1.427 . S
C3454 H3445 0.930 . S
C3454 C3452 1.378 . S
C3454 C3455 1.367 . S
C3455 C3454 1.367 . S
C3455 C3457 1.433 . S
C3456 C3452 1.350 . S
C3456 C3453 1.463 . S
C3456 N3460 1.427 . S
C3457 H3447 0.929 . S
C3457 C3455 1.433 . S
C3457 N3460 1.384 . S
C3458 H3449 0.929 . S
C3458 C3450 1.378 . S
C3458 C3453 1.350 . S
C3459 H3446 0.929 . S
C3459 C3451 1.433 . S
C3459 N3461 1.384 . S
N3460 C3456 1.427 . S
N3460 C3457 1.384 . S
N3461 C3453 1.427 . S
N3461 C3459 1.384 . S
H3462 C3468 0.930 . S
H3463 C3472 0.930 . S
H3464 C3477 0.929 . S
H3465 C3475 0.929 . S
H3466 C3470 0.929 . S
H3467 C3476 0.929 . S
C3468 H3462 0.930 . S
C3468 C3469 1.367 . S
C3468 C3476 1.378 . S
C3469 C3468 1.367 . S
C3469 C3477 1.433 . S
C3470 H3466 0.929 . S
C3470 C3472 1.378 . S
C3470 C3474 1.350 . S
C3471 C3474 1.463 . S
C3471 C3476 1.350 . S
C3471 N3479 1.427 . S
C3472 H3463 0.930 . S
C3472 C3470 1.378 . S
C3472 C3473 1.367 . S
C3473 C3472 1.367 . S
C3473 C3475 1.433 . S
C3474 C3470 1.350 . S
C3474 C3471 1.463 . S
C3474 N3478 1.427 . S
C3475 H3465 0.929 . S
C3475 C3473 1.433 . S
C3475 N3478 1.384 . S
C3476 H3467 0.929 . S
C3476 C3468 1.378 . S
C3476 C3471 1.350 . S
C3477 H3464 0.929 . S
C3477 C3469 1.433 . S
C3477 N3479 1.384 . S
N3478 C3474 1.427 . S
N3478 C3475 1.384 . S
N3479 C3471 1.427 . S
N3479 C3477 1.384 . S
H3480 C3486 0.930 . S
H3481 C3490 0.930 . S
H3482 C3495 0.929 . S
H3483 C3493 0.929 . S
H3484 C3488 0.929 . S
H3485 C3494 0.929 . S
C3486 H3480 0.930 . S
C3486 C3487 1.367 . S
C3486 C3494 1.378 . S
C3487 C3486 1.367 . S
C3487 C3495 1.433 . S
C3488 H3484 0.929 . S
C3488 C3490 1.378 . S
C3488 C3492 1.350 . S
C3489 C3492 1.463 1_455 S
C3489 C3494 1.350 . S
C3489 N3497 1.427 . S
C3490 H3481 0.930 . S
C3490 C3488 1.378 . S
C3490 C3491 1.367 . S
C3491 C3490 1.367 . S
C3491 C3493 1.433 . S
C3492 C3488 1.350 . S
C3492 C3489 1.463 1_655 S
C3492 N3496 1.427 . S
C3493 H3483 0.929 . S
C3493 C3491 1.433 . S
C3493 N3496 1.384 . S
C3494 H3485 0.929 . S
C3494 C3486 1.378 . S
C3494 C3489 1.350 . S
C3495 H3482 0.929 . S
C3495 C3487 1.433 . S
C3495 N3497 1.384 . S
N3496 C3492 1.427 . S
N3496 C3493 1.384 . S
N3497 C3489 1.427 . S
N3497 C3495 1.384 . S
H3498 C3504 0.930 . S
H3499 C3508 0.930 . S
H3500 C3513 0.929 . S
H3501 C3511 0.929 . S
H3502 C3506 0.929 . S
H3503 C3512 0.929 . S
C3504 H3498 0.930 . S
C3504 C3505 1.367 . S
C3504 C3512 1.378 . S
C3505 C3504 1.367 . S
C3505 C3513 1.433 . S
C3506 H3502 0.929 . S
C3506 C3508 1.378 . S
C3506 C3510 1.350 . S
C3507 C3510 1.463 . S
C3507 C3512 1.350 . S
C3507 N3515 1.427 . S
C3508 H3499 0.930 . S
C3508 C3506 1.378 . S
C3508 C3509 1.367 . S
C3509 C3508 1.367 . S
C3509 C3511 1.433 . S
C3510 C3506 1.350 . S
C3510 C3507 1.463 . S
C3510 N3514 1.427 . S
C3511 H3501 0.929 . S
C3511 C3509 1.433 . S
C3511 N3514 1.384 . S
C3512 H3503 0.929 . S
C3512 C3504 1.378 . S
C3512 C3507 1.350 . S
C3513 H3500 0.929 . S
C3513 C3505 1.433 . S
C3513 N3515 1.384 . S
N3514 C3510 1.427 . S
N3514 C3511 1.384 . S
N3515 C3507 1.427 . S
N3515 C3513 1.384 . S
H3516 C3522 0.930 . S
H3517 C3526 0.930 . S
H3518 C3531 0.929 . S
H3519 C3529 0.929 . S
H3520 C3524 0.929 . S
H3521 C3530 0.929 . S
C3522 H3516 0.930 . S
C3522 C3523 1.367 . S
C3522 C3530 1.378 . S
C3523 C3522 1.367 . S
C3523 C3531 1.433 . S
C3524 H3520 0.929 . S
C3524 C3526 1.378 . S
C3524 C3528 1.350 . S
C3525 C3528 1.463 . S
C3525 C3530 1.350 . S
C3525 N3533 1.427 . S
C3526 H3517 0.930 . S
C3526 C3524 1.378 . S
C3526 C3527 1.367 . S
C3527 C3526 1.367 . S
C3527 C3529 1.433 . S
C3528 C3524 1.350 . S
C3528 C3525 1.463 . S
C3528 N3532 1.427 . S
C3529 H3519 0.929 . S
C3529 C3527 1.433 . S
C3529 N3532 1.384 . S
C3530 H3521 0.929 . S
C3530 C3522 1.378 . S
C3530 C3525 1.350 . S
C3531 H3518 0.929 . S
C3531 C3523 1.433 . S
C3531 N3533 1.384 . S
N3532 C3528 1.427 . S
N3532 C3529 1.384 . S
N3533 C3525 1.427 . S
N3533 C3531 1.384 . S
H3534 C3540 0.930 . S
H3535 C3544 0.930 . S
H3536 C3549 0.929 . S
H3537 C3547 0.929 . S
H3538 C3542 0.929 . S
H3539 C3548 0.929 . S
C3540 H3534 0.930 . S
C3540 C3541 1.367 1_455 S
C3540 C3548 1.378 . S
C3541 C3540 1.367 1_655 S
C3541 C3549 1.433 . S
C3542 H3538 0.929 . S
C3542 C3544 1.378 . S
C3542 C3546 1.350 1_655 S
C3543 C3546 1.463 1_655 S
C3543 C3548 1.350 1_655 S
C3543 N3551 1.427 . S
C3544 H3535 0.930 . S
C3544 C3542 1.378 . S
C3544 C3545 1.367 1_655 S
C3545 C3544 1.367 1_455 S
C3545 C3547 1.433 . S
C3546 C3542 1.350 1_455 S
C3546 C3543 1.463 1_455 S
C3546 N3550 1.427 . S
C3547 H3537 0.929 . S
C3547 C3545 1.433 . S
C3547 N3550 1.384 . S
C3548 H3539 0.929 . S
C3548 C3540 1.378 . S
C3548 C3543 1.350 1_455 S
C3549 H3536 0.929 . S
C3549 C3541 1.433 . S
C3549 N3551 1.384 . S
N3550 C3546 1.427 . S
N3550 C3547 1.384 . S
N3551 C3543 1.427 . S
N3551 C3549 1.384 . S
H3552 C3558 0.930 . S
H3553 C3562 0.930 . S
H3554 C3567 0.929 . S
H3555 C3565 0.929 . S
H3556 C3560 0.929 . S
H3557 C3566 0.929 . S
C3558 H3552 0.930 . S
C3558 C3559 1.367 . S
C3558 C3566 1.378 . S
C3559 C3558 1.367 . S
C3559 C3567 1.433 . S
C3560 H3556 0.929 . S
C3560 C3562 1.378 . S
C3560 C3564 1.350 . S
C3561 C3564 1.463 . S
C3561 C3566 1.350 . S
C3561 N3569 1.427 . S
C3562 H3553 0.930 . S
C3562 C3560 1.378 . S
C3562 C3563 1.367 . S
C3563 C3562 1.367 . S
C3563 C3565 1.433 . S
C3564 C3560 1.350 . S
C3564 C3561 1.463 . S
C3564 N3568 1.427 . S
C3565 H3555 0.929 . S
C3565 C3563 1.433 . S
C3565 N3568 1.384 . S
C3566 H3557 0.929 . S
C3566 C3558 1.378 . S
C3566 C3561 1.350 . S
C3567 H3554 0.929 . S
C3567 C3559 1.433 . S
C3567 N3569 1.384 . S
N3568 C3564 1.427 . S
N3568 C3565 1.384 . S
N3569 C3561 1.427 . S
N3569 C3567 1.384 . S
H3570 C3576 0.930 . S
H3571 C3580 0.930 . S
H3572 C3585 0.929 . S
H3573 C3583 0.929 . S
H3574 C3578 0.929 . S
H3575 C3584 0.929 . S
C3576 H3570 0.930 . S
C3576 C3577 1.367 1_455 S
C3576 C3584 1.378 . S
C3577 C3576 1.367 1_655 S
C3577 C3585 1.433 . S
C3578 H3574 0.929 . S
C3578 C3580 1.378 . S
C3578 C3582 1.350 1_655 S
C3579 C3582 1.463 1_645 S
C3579 C3584 1.350 1_655 S
C3579 N3587 1.427 . S
C3580 H3571 0.930 . S
C3580 C3578 1.378 . S
C3580 C3581 1.367 1_655 S
C3581 C3580 1.367 1_455 S
C3581 C3583 1.433 . S
C3582 C3578 1.350 1_455 S
C3582 C3579 1.463 1_465 S
C3582 N3586 1.427 . S
C3583 H3573 0.929 . S
C3583 C3581 1.433 . S
C3583 N3586 1.384 . S
C3584 H3575 0.929 . S
C3584 C3576 1.378 . S
C3584 C3579 1.350 1_455 S
C3585 H3572 0.929 . S
C3585 C3577 1.433 . S
C3585 N3587 1.384 . S
N3586 C3582 1.427 . S
N3586 C3583 1.384 . S
N3587 C3579 1.427 . S
N3587 C3585 1.384 . S
H3588 C3594 0.930 . S
H3589 C3598 0.930 . S
H3590 C3603 0.929 . S
H3591 C3601 0.929 . S
H3592 C3596 0.929 . S
H3593 C3602 0.929 . S
C3594 H3588 0.930 . S
C3594 C3595 1.367 . S
C3594 C3602 1.378 . S
C3595 C3594 1.367 . S
C3595 C3603 1.433 . S
C3596 H3592 0.929 . S
C3596 C3598 1.378 . S
C3596 C3600 1.350 . S
C3597 C3600 1.463 . S
C3597 C3602 1.350 . S
C3597 N3605 1.427 . S
C3598 H3589 0.930 . S
C3598 C3596 1.378 . S
C3598 C3599 1.367 . S
C3599 C3598 1.367 . S
C3599 C3601 1.433 . S
C3600 C3596 1.350 . S
C3600 C3597 1.463 . S
C3600 N3604 1.427 . S
C3601 H3591 0.929 . S
C3601 C3599 1.433 . S
C3601 N3604 1.384 . S
C3602 H3593 0.929 . S
C3602 C3594 1.378 . S
C3602 C3597 1.350 . S
C3603 H3590 0.929 . S
C3603 C3595 1.433 . S
C3603 N3605 1.384 . S
N3604 C3600 1.427 . S
N3604 C3601 1.384 . S
N3605 C3597 1.427 . S
N3605 C3603 1.384 . S
H3606 C3612 0.930 . S
H3607 C3616 0.930 . S
H3608 C3621 0.929 . S
H3609 C3619 0.929 . S
H3610 C3614 0.929 . S
H3611 C3620 0.929 . S
C3612 H3606 0.930 . S
C3612 C3613 1.367 . S
C3612 C3620 1.378 . S
C3613 C3612 1.367 . S
C3613 C3621 1.433 1_545 S
C3614 H3610 0.929 . S
C3614 C3616 1.378 . S
C3614 C3618 1.350 . S
C3615 C3618 1.463 1_544 S
C3615 C3620 1.350 . S
C3615 N3623 1.427 1_545 S
C3616 H3607 0.930 . S
C3616 C3614 1.378 . S
C3616 C3617 1.367 . S
C3617 C3616 1.367 . S
C3617 C3619 1.433 1_565 S
C3618 C3614 1.350 . S
C3618 C3615 1.463 1_566 S
C3618 N3622 1.427 1_565 S
C3619 H3609 0.929 . S
C3619 C3617 1.433 1_545 S
C3619 N3622 1.384 . S
C3620 H3611 0.929 . S
C3620 C3612 1.378 . S
C3620 C3615 1.350 . S
C3621 H3608 0.929 . S
C3621 C3613 1.433 1_565 S
C3621 N3623 1.384 . S
N3622 C3618 1.427 1_545 S
N3622 C3619 1.384 . S
N3623 C3615 1.427 1_565 S
N3623 C3621 1.384 . S
H3624 C3630 0.930 . S
H3625 C3634 0.930 . S
H3626 C3639 0.929 . S
H3627 C3637 0.929 . S
H3628 C3632 0.929 . S
H3629 C3638 0.929 . S
C3630 H3624 0.930 . S
C3630 C3631 1.367 . S
C3630 C3638 1.378 . S
C3631 C3630 1.367 . S
C3631 C3639 1.433 . S
C3632 H3628 0.929 . S
C3632 C3634 1.378 . S
C3632 C3636 1.350 . S
C3633 C3636 1.463 . S
C3633 C3638 1.350 . S
C3633 N3641 1.427 . S
C3634 H3625 0.930 . S
C3634 C3632 1.378 . S
C3634 C3635 1.367 . S
C3635 C3634 1.367 . S
C3635 C3637 1.433 . S
C3636 C3632 1.350 . S
C3636 C3633 1.463 . S
C3636 N3640 1.427 . S
C3637 H3627 0.929 . S
C3637 C3635 1.433 . S
C3637 N3640 1.384 . S
C3638 H3629 0.929 . S
C3638 C3630 1.378 . S
C3638 C3633 1.350 . S
C3639 H3626 0.929 . S
C3639 C3631 1.433 . S
C3639 N3641 1.384 . S
N3640 C3636 1.427 . S
N3640 C3637 1.384 . S
N3641 C3633 1.427 . S
N3641 C3639 1.384 . S
H3642 C3648 0.930 . S
H3643 C3652 0.930 . S
H3644 C3657 0.929 . S
H3645 C3655 0.929 . S
H3646 C3650 0.929 . S
H3647 C3656 0.929 . S
C3648 H3642 0.930 . S
C3648 C3649 1.367 1_565 S
C3648 C3656 1.378 . S
C3649 C3648 1.367 1_545 S
C3649 C3657 1.433 . S
C3650 H3646 0.929 . S
C3650 C3652 1.378 . S
C3650 C3654 1.350 1_545 S
C3651 C3654 1.463 1_545 S
C3651 C3656 1.350 1_545 S
C3651 N3659 1.427 . S
C3652 H3643 0.930 . S
C3652 C3650 1.378 . S
C3652 C3653 1.367 1_545 S
C3653 C3652 1.367 1_565 S
C3653 C3655 1.433 . S
C3654 C3650 1.350 1_565 S
C3654 C3651 1.463 1_565 S
C3654 N3658 1.427 . S
C3655 H3645 0.929 . S
C3655 C3653 1.433 . S
C3655 N3658 1.384 . S
C3656 H3647 0.929 . S
C3656 C3648 1.378 . S
C3656 C3651 1.350 1_565 S
C3657 H3644 0.929 . S
C3657 C3649 1.433 . S
C3657 N3659 1.384 . S
N3658 C3654 1.427 . S
N3658 C3655 1.384 . S
N3659 C3651 1.427 . S
N3659 C3657 1.384 . S
H3660 C3666 0.930 . S
H3661 C3670 0.930 . S
H3662 C3675 0.929 . S
H3663 C3673 0.929 . S
H3664 C3668 0.929 . S
H3665 C3674 0.929 . S
C3666 H3660 0.930 . S
C3666 C3667 1.367 . S
C3666 C3674 1.378 . S
C3667 C3666 1.367 . S
C3667 C3675 1.433 . S
C3668 H3664 0.929 . S
C3668 C3670 1.378 . S
C3668 C3672 1.350 . S
C3669 C3672 1.463 . S
C3669 C3674 1.350 . S
C3669 N3677 1.427 . S
C3670 H3661 0.930 . S
C3670 C3668 1.378 . S
C3670 C3671 1.367 . S
C3671 C3670 1.367 . S
C3671 C3673 1.433 . S
C3672 C3668 1.350 . S
C3672 C3669 1.463 . S
C3672 N3676 1.427 . S
C3673 H3663 0.929 . S
C3673 C3671 1.433 . S
C3673 N3676 1.384 . S
C3674 H3665 0.929 . S
C3674 C3666 1.378 . S
C3674 C3669 1.350 . S
C3675 H3662 0.929 . S
C3675 C3667 1.433 . S
C3675 N3677 1.384 . S
N3676 C3672 1.427 . S
N3676 C3673 1.384 . S
N3677 C3669 1.427 . S
N3677 C3675 1.384 . S
H3678 C3684 0.930 . S
H3679 C3688 0.930 . S
H3680 C3693 0.931 . S
H3681 C3691 0.931 . S
H3682 C3686 0.929 . S
H3683 C3692 0.929 . S
C3684 H3678 0.930 . S
C3684 C3685 1.367 . S
C3684 C3692 1.378 . S
C3685 C3684 1.367 . S
C3685 C3693 1.430 1_445 S
C3686 H3682 0.929 . S
C3686 C3688 1.378 . S
C3686 C3690 1.350 . S
C3687 C3690 1.463 1_446 S
C3687 C3692 1.350 . S
C3687 N3695 1.427 1_445 S
C3688 H3679 0.930 . S
C3688 C3686 1.378 . S
C3688 C3689 1.367 . S
C3689 C3688 1.367 . S
C3689 C3691 1.430 1_665 S
C3690 C3686 1.350 . S
C3690 C3687 1.463 1_664 S
C3690 N3694 1.427 1_665 S
C3691 H3681 0.931 . S
C3691 C3689 1.430 1_445 S
C3691 N3694 1.385 . S
C3692 H3683 0.929 . S
C3692 C3684 1.378 . S
C3692 C3687 1.350 . S
C3693 H3680 0.931 . S
C3693 C3685 1.430 1_665 S
C3693 N3695 1.385 . S
N3694 C3690 1.427 1_445 S
N3694 C3691 1.385 . S
N3695 C3687 1.427 1_665 S
N3695 C3693 1.385 . S
H3696 C3702 0.930 . S
H3697 C3706 0.930 . S
H3698 C3711 0.929 . S
H3699 C3709 0.929 . S
H3700 C3704 0.929 . S
H3701 C3710 0.929 . S
C3702 H3696 0.930 . S
C3702 C3703 1.367 . S
C3702 C3710 1.378 . S
C3703 C3702 1.367 . S
C3703 C3711 1.433 . S
C3704 H3700 0.929 . S
C3704 C3706 1.378 . S
C3704 C3708 1.350 . S
C3705 C3708 1.463 . S
C3705 C3710 1.350 . S
C3705 N3713 1.427 . S
C3706 H3697 0.930 . S
C3706 C3704 1.378 . S
C3706 C3707 1.367 . S
C3707 C3706 1.367 . S
C3707 C3709 1.433 . S
C3708 C3704 1.350 . S
C3708 C3705 1.463 . S
C3708 N3712 1.427 . S
C3709 H3699 0.929 . S
C3709 C3707 1.433 . S
C3709 N3712 1.384 . S
C3710 H3701 0.929 . S
C3710 C3702 1.378 . S
C3710 C3705 1.350 . S
C3711 H3698 0.929 . S
C3711 C3703 1.433 . S
C3711 N3713 1.384 . S
N3712 C3708 1.427 . S
N3712 C3709 1.384 . S
N3713 C3705 1.427 . S
N3713 C3711 1.384 . S
H3714 C3720 0.930 . S
H3715 C3724 0.930 . S
H3716 C3729 0.929 . S
H3717 C3727 0.929 . S
H3718 C3722 0.929 . S
H3719 C3728 0.929 . S
C3720 H3714 0.930 . S
C3720 C3721 1.367 . S
C3720 C3728 1.378 . S
C3721 C3720 1.367 . S
C3721 C3729 1.433 . S
C3722 H3718 0.929 . S
C3722 C3724 1.378 . S
C3722 C3726 1.350 . S
C3723 C3726 1.463 . S
C3723 C3728 1.350 . S
C3723 N3731 1.427 . S
C3724 H3715 0.930 . S
C3724 C3722 1.378 . S
C3724 C3725 1.367 . S
C3725 C3724 1.367 . S
C3725 C3727 1.433 . S
C3726 C3722 1.350 . S
C3726 C3723 1.463 . S
C3726 N3730 1.427 . S
C3727 H3717 0.929 . S
C3727 C3725 1.433 . S
C3727 N3730 1.384 . S
C3728 H3719 0.929 . S
C3728 C3720 1.378 . S
C3728 C3723 1.350 . S
C3729 H3716 0.929 . S
C3729 C3721 1.433 . S
C3729 N3731 1.384 . S
N3730 C3726 1.427 . S
N3730 C3727 1.384 . S
N3731 C3723 1.427 . S
N3731 C3729 1.384 . S
H3732 C3738 0.930 . S
H3733 C3742 0.930 . S
H3734 C3747 0.929 . S
H3735 C3745 0.929 . S
H3736 C3740 0.929 . S
H3737 C3746 0.929 . S
C3738 H3732 0.930 . S
C3738 C3739 1.367 . S
C3738 C3746 1.378 . S
C3739 C3738 1.367 . S
C3739 C3747 1.433 . S
C3740 H3736 0.929 . S
C3740 C3742 1.378 . S
C3740 C3744 1.350 . S
C3741 C3744 1.463 . S
C3741 C3746 1.350 . S
C3741 N3749 1.427 . S
C3742 H3733 0.930 . S
C3742 C3740 1.378 . S
C3742 C3743 1.367 . S
C3743 C3742 1.367 . S
C3743 C3745 1.433 . S
C3744 C3740 1.350 . S
C3744 C3741 1.463 . S
C3744 N3748 1.427 . S
C3745 H3735 0.929 . S
C3745 C3743 1.433 . S
C3745 N3748 1.384 . S
C3746 H3737 0.929 . S
C3746 C3738 1.378 . S
C3746 C3741 1.350 . S
C3747 H3734 0.929 . S
C3747 C3739 1.433 . S
C3747 N3749 1.384 . S
N3748 C3744 1.427 . S
N3748 C3745 1.384 . S
N3749 C3741 1.427 . S
N3749 C3747 1.384 . S
H3750 C3756 0.930 . S
H3751 C3760 0.930 . S
H3752 C3765 0.929 . S
H3753 C3763 0.929 . S
H3754 C3758 0.929 . S
H3755 C3764 0.929 . S
C3756 H3750 0.930 . S
C3756 C3757 1.367 . S
C3756 C3764 1.378 . S
C3757 C3756 1.367 . S
C3757 C3765 1.433 . S
C3758 H3754 0.929 . S
C3758 C3760 1.378 . S
C3758 C3762 1.350 . S
C3759 C3762 1.463 . S
C3759 C3764 1.350 . S
C3759 N3767 1.427 . S
C3760 H3751 0.930 . S
C3760 C3758 1.378 . S
C3760 C3761 1.367 . S
C3761 C3760 1.367 . S
C3761 C3763 1.433 . S
C3762 C3758 1.350 . S
C3762 C3759 1.463 . S
C3762 N3766 1.427 . S
C3763 H3753 0.929 . S
C3763 C3761 1.433 . S
C3763 N3766 1.384 . S
C3764 H3755 0.929 . S
C3764 C3756 1.378 . S
C3764 C3759 1.350 . S
C3765 H3752 0.929 . S
C3765 C3757 1.433 . S
C3765 N3767 1.384 . S
N3766 C3762 1.427 . S
N3766 C3763 1.384 . S
N3767 C3759 1.427 . S
N3767 C3765 1.384 . S
H3768 C3774 0.930 . S
H3769 C3778 0.930 . S
H3770 C3783 0.929 . S
H3771 C3781 0.929 . S
H3772 C3776 0.929 . S
H3773 C3782 0.929 . S
C3774 H3768 0.930 . S
C3774 C3775 1.367 . S
C3774 C3782 1.378 . S
C3775 C3774 1.367 . S
C3775 C3783 1.433 . S
C3776 H3772 0.929 . S
C3776 C3778 1.378 . S
C3776 C3780 1.350 . S
C3777 C3780 1.463 1_554 S
C3777 C3782 1.350 . S
C3777 N3785 1.427 . S
C3778 H3769 0.930 . S
C3778 C3776 1.378 . S
C3778 C3779 1.367 . S
C3779 C3778 1.367 . S
C3779 C3781 1.433 . S
C3780 C3776 1.350 . S
C3780 C3777 1.463 1_556 S
C3780 N3784 1.427 . S
C3781 H3771 0.929 . S
C3781 C3779 1.433 . S
C3781 N3784 1.384 . S
C3782 H3773 0.929 . S
C3782 C3774 1.378 . S
C3782 C3777 1.350 . S
C3783 H3770 0.929 . S
C3783 C3775 1.433 . S
C3783 N3785 1.384 . S
N3784 C3780 1.427 . S
N3784 C3781 1.384 . S
N3785 C3777 1.427 . S
N3785 C3783 1.384 . S
H3786 C3792 0.930 . S
H3787 C3796 0.930 . S
H3788 C3801 0.929 . S
H3789 C3799 0.929 . S
H3790 C3794 0.938 . S
H3791 C3800 0.938 . S
C3792 H3786 0.930 . S
C3792 C3793 1.367 . S
C3792 C3800 1.372 1_655 S
C3793 C3792 1.367 . S
C3793 C3801 1.433 . S
C3794 H3790 0.938 . S
C3794 C3796 1.372 1_655 S
C3794 C3798 1.347 1_655 S
C3795 C3798 1.463 1_655 S
C3795 C3800 1.347 1_655 S
C3795 N3803 1.427 . S
C3796 H3787 0.930 . S
C3796 C3794 1.372 1_455 S
C3796 C3797 1.367 . S
C3797 C3796 1.367 . S
C3797 C3799 1.433 . S
C3798 C3794 1.347 1_455 S
C3798 C3795 1.463 1_455 S
C3798 N3802 1.427 . S
C3799 H3789 0.929 . S
C3799 C3797 1.433 . S
C3799 N3802 1.384 . S
C3800 H3791 0.938 . S
C3800 C3792 1.372 1_455 S
C3800 C3795 1.347 1_455 S
C3801 H3788 0.929 . S
C3801 C3793 1.433 . S
C3801 N3803 1.384 . S
N3802 C3798 1.427 . S
N3802 C3799 1.384 . S
N3803 C3795 1.427 . S
N3803 C3801 1.384 . S
H3804 C3810 0.930 . S
H3805 C3814 0.930 . S
H3806 C3819 0.929 . S
H3807 C3817 0.929 . S
H3808 C3812 0.929 . S
H3809 C3818 0.929 . S
C3810 H3804 0.930 . S
C3810 C3811 1.367 1_655 S
C3810 C3818 1.378 . S
C3811 C3810 1.367 1_455 S
C3811 C3819 1.433 . S
C3812 H3808 0.929 . S
C3812 C3814 1.378 . S
C3812 C3816 1.350 1_455 S
C3813 C3816 1.463 1_454 S
C3813 C3818 1.350 1_455 S
C3813 N3821 1.427 . S
C3814 H3805 0.930 . S
C3814 C3812 1.378 . S
C3814 C3815 1.367 1_455 S
C3815 C3814 1.367 1_655 S
C3815 C3817 1.433 . S
C3816 C3812 1.350 1_655 S
C3816 C3813 1.463 1_656 S
C3816 N3820 1.427 . S
C3817 H3807 0.929 . S
C3817 C3815 1.433 . S
C3817 N3820 1.384 . S
C3818 H3809 0.929 . S
C3818 C3810 1.378 . S
C3818 C3813 1.350 1_655 S
C3819 H3806 0.929 . S
C3819 C3811 1.433 . S
C3819 N3821 1.384 . S
N3820 C3816 1.427 . S
N3820 C3817 1.384 . S
N3821 C3813 1.427 . S
N3821 C3819 1.384 . S
H3822 C3828 0.930 . S
H3823 C3832 0.930 . S
H3824 C3837 0.929 . S
H3825 C3835 0.929 . S
H3826 C3830 0.929 . S
H3827 C3836 0.929 . S
C3828 H3822 0.930 . S
C3828 C3829 1.367 . S
C3828 C3836 1.378 . S
C3829 C3828 1.367 . S
C3829 C3837 1.433 . S
C3830 H3826 0.929 . S
C3830 C3832 1.378 . S
C3830 C3834 1.350 . S
C3831 C3834 1.463 . S
C3831 C3836 1.350 . S
C3831 N3839 1.427 . S
C3832 H3823 0.930 . S
C3832 C3830 1.378 . S
C3832 C3833 1.367 . S
C3833 C3832 1.367 . S
C3833 C3835 1.433 . S
C3834 C3830 1.350 . S
C3834 C3831 1.463 . S
C3834 N3838 1.427 . S
C3835 H3825 0.929 . S
C3835 C3833 1.433 . S
C3835 N3838 1.384 . S
C3836 H3827 0.929 . S
C3836 C3828 1.378 . S
C3836 C3831 1.350 . S
C3837 H3824 0.929 . S
C3837 C3829 1.433 . S
C3837 N3839 1.384 . S
N3838 C3834 1.427 . S
N3838 C3835 1.384 . S
N3839 C3831 1.427 . S
N3839 C3837 1.384 . S
H3840 C3846 0.930 . S
H3841 C3850 0.930 . S
H3842 C3855 0.929 . S
H3843 C3853 0.929 . S
H3844 C3848 0.929 . S
H3845 C3854 0.929 . S
C3846 H3840 0.930 . S
C3846 C3847 1.367 . S
C3846 C3854 1.378 . S
C3847 C3846 1.367 . S
C3847 C3855 1.433 . S
C3848 H3844 0.929 . S
C3848 C3850 1.378 . S
C3848 C3852 1.350 . S
C3849 C3852 1.463 . S
C3849 C3854 1.350 . S
C3849 N3857 1.427 . S
C3850 H3841 0.930 . S
C3850 C3848 1.378 . S
C3850 C3851 1.367 . S
C3851 C3850 1.367 . S
C3851 C3853 1.433 . S
C3852 C3848 1.350 . S
C3852 C3849 1.463 . S
C3852 N3856 1.427 . S
C3853 H3843 0.929 . S
C3853 C3851 1.433 . S
C3853 N3856 1.384 . S
C3854 H3845 0.929 . S
C3854 C3846 1.378 . S
C3854 C3849 1.350 . S
C3855 H3842 0.929 . S
C3855 C3847 1.433 . S
C3855 N3857 1.384 . S
N3856 C3852 1.427 . S
N3856 C3853 1.384 . S
N3857 C3849 1.427 . S
N3857 C3855 1.384 . S
H3858 C3864 0.930 . S
H3859 C3868 0.930 . S
H3860 C3873 0.929 . S
H3861 C3871 0.929 . S
H3862 C3866 0.929 . S
H3863 C3872 0.929 . S
C3864 H3858 0.930 . S
C3864 C3865 1.367 . S
C3864 C3872 1.378 . S
C3865 C3864 1.367 . S
C3865 C3873 1.433 . S
C3866 H3862 0.929 . S
C3866 C3868 1.378 . S
C3866 C3870 1.350 . S
C3867 C3870 1.463 . S
C3867 C3872 1.350 . S
C3867 N3875 1.427 . S
C3868 H3859 0.930 . S
C3868 C3866 1.378 . S
C3868 C3869 1.367 . S
C3869 C3868 1.367 . S
C3869 C3871 1.433 . S
C3870 C3866 1.350 . S
C3870 C3867 1.463 . S
C3870 N3874 1.427 . S
C3871 H3861 0.929 . S
C3871 C3869 1.433 . S
C3871 N3874 1.384 . S
C3872 H3863 0.929 . S
C3872 C3864 1.378 . S
C3872 C3867 1.350 . S
C3873 H3860 0.929 . S
C3873 C3865 1.433 . S
C3873 N3875 1.384 . S
N3874 C3870 1.427 . S
N3874 C3871 1.384 . S
N3875 C3867 1.427 . S
N3875 C3873 1.384 . S
H3876 C3882 0.930 . S
H3877 C3886 0.930 . S
H3878 C3891 0.929 . S
H3879 C3889 0.929 . S
H3880 C3884 0.929 . S
H3881 C3890 0.929 . S
C3882 H3876 0.930 . S
C3882 C3883 1.367 . S
C3882 C3890 1.378 . S
C3883 C3882 1.367 . S
C3883 C3891 1.433 . S
C3884 H3880 0.929 . S
C3884 C3886 1.378 . S
C3884 C3888 1.350 . S
C3885 C3888 1.463 . S
C3885 C3890 1.350 . S
C3885 N3893 1.427 . S
C3886 H3877 0.930 . S
C3886 C3884 1.378 . S
C3886 C3887 1.367 . S
C3887 C3886 1.367 . S
C3887 C3889 1.433 . S
C3888 C3884 1.350 . S
C3888 C3885 1.463 . S
C3888 N3892 1.427 . S
C3889 H3879 0.929 . S
C3889 C3887 1.433 . S
C3889 N3892 1.384 . S
C3890 H3881 0.929 . S
C3890 C3882 1.378 . S
C3890 C3885 1.350 . S
C3891 H3878 0.929 . S
C3891 C3883 1.433 . S
C3891 N3893 1.384 . S
N3892 C3888 1.427 . S
N3892 C3889 1.384 . S
N3893 C3885 1.427 . S
N3893 C3891 1.384 . S
H3894 C3900 0.930 . S
H3895 C3904 0.930 . S
H3896 C3909 0.929 . S
H3897 C3907 0.929 . S
H3898 C3902 0.929 . S
H3899 C3908 0.929 . S
C3900 H3894 0.930 . S
C3900 C3901 1.367 . S
C3900 C3908 1.378 . S
C3901 C3900 1.367 . S
C3901 C3909 1.433 . S
C3902 H3898 0.929 . S
C3902 C3904 1.378 . S
C3902 C3906 1.350 . S
C3903 C3906 1.463 . S
C3903 C3908 1.350 . S
C3903 N3911 1.427 . S
C3904 H3895 0.930 . S
C3904 C3902 1.378 . S
C3904 C3905 1.367 . S
C3905 C3904 1.367 . S
C3905 C3907 1.433 . S
C3906 C3902 1.350 . S
C3906 C3903 1.463 . S
C3906 N3910 1.427 . S
C3907 H3897 0.929 . S
C3907 C3905 1.433 . S
C3907 N3910 1.384 . S
C3908 H3899 0.929 . S
C3908 C3900 1.378 . S
C3908 C3903 1.350 . S
C3909 H3896 0.929 . S
C3909 C3901 1.433 . S
C3909 N3911 1.384 . S
N3910 C3906 1.427 . S
N3910 C3907 1.384 . S
N3911 C3903 1.427 . S
N3911 C3909 1.384 . S
H3912 C3918 0.930 . S
H3913 C3922 0.930 . S
H3914 C3927 0.929 . S
H3915 C3925 0.929 . S
H3916 C3920 0.929 . S
H3917 C3926 0.929 . S
C3918 H3912 0.930 . S
C3918 C3919 1.367 . S
C3918 C3926 1.378 . S
C3919 C3918 1.367 . S
C3919 C3927 1.433 . S
C3920 H3916 0.929 . S
C3920 C3922 1.378 . S
C3920 C3924 1.350 . S
C3921 C3924 1.463 . S
C3921 C3926 1.350 . S
C3921 N3929 1.427 . S
C3922 H3913 0.930 . S
C3922 C3920 1.378 . S
C3922 C3923 1.367 . S
C3923 C3922 1.367 . S
C3923 C3925 1.433 . S
C3924 C3920 1.350 . S
C3924 C3921 1.463 . S
C3924 N3928 1.427 . S
C3925 H3915 0.929 . S
C3925 C3923 1.433 . S
C3925 N3928 1.384 . S
C3926 H3917 0.929 . S
C3926 C3918 1.378 . S
C3926 C3921 1.350 . S
C3927 H3914 0.929 . S
C3927 C3919 1.433 . S
C3927 N3929 1.384 . S
N3928 C3924 1.427 . S
N3928 C3925 1.384 . S
N3929 C3921 1.427 . S
N3929 C3927 1.384 . S
H3930 C3936 0.930 . S
H3931 C3940 0.930 . S
H3932 C3945 0.929 . S
H3933 C3943 0.929 . S
H3934 C3938 0.929 . S
H3935 C3944 0.929 . S
C3936 H3930 0.930 . S
C3936 C3937 1.367 . S
C3936 C3944 1.378 . S
C3937 C3936 1.367 . S
C3937 C3945 1.433 . S
C3938 H3934 0.929 . S
C3938 C3940 1.378 . S
C3938 C3942 1.350 . S
C3939 C3942 1.463 . S
C3939 C3944 1.350 . S
C3939 N3947 1.427 . S
C3940 H3931 0.930 . S
C3940 C3938 1.378 . S
C3940 C3941 1.367 . S
C3941 C3940 1.367 . S
C3941 C3943 1.433 . S
C3942 C3938 1.350 . S
C3942 C3939 1.463 . S
C3942 N3946 1.427 . S
C3943 H3933 0.929 . S
C3943 C3941 1.433 . S
C3943 N3946 1.384 . S
C3944 H3935 0.929 . S
C3944 C3936 1.378 . S
C3944 C3939 1.350 . S
C3945 H3932 0.929 . S
C3945 C3937 1.433 . S
C3945 N3947 1.384 . S
N3946 C3942 1.427 . S
N3946 C3943 1.384 . S
N3947 C3939 1.427 . S
N3947 C3945 1.384 . S
H3948 C3954 0.930 . S
H3949 C3958 0.930 . S
H3950 C3963 0.929 . S
H3951 C3961 0.929 . S
H3952 C3956 0.929 . S
H3953 C3962 0.929 . S
C3954 H3948 0.930 . S
C3954 C3955 1.367 . S
C3954 C3962 1.378 . S
C3955 C3954 1.367 . S
C3955 C3963 1.433 . S
C3956 H3952 0.929 . S
C3956 C3958 1.378 . S
C3956 C3960 1.350 . S
C3957 C3960 1.463 . S
C3957 C3962 1.350 . S
C3957 N3965 1.427 . S
C3958 H3949 0.930 . S
C3958 C3956 1.378 . S
C3958 C3959 1.367 . S
C3959 C3958 1.367 . S
C3959 C3961 1.433 . S
C3960 C3956 1.350 . S
C3960 C3957 1.463 . S
C3960 N3964 1.427 . S
C3961 H3951 0.929 . S
C3961 C3959 1.433 . S
C3961 N3964 1.384 . S
C3962 H3953 0.929 . S
C3962 C3954 1.378 . S
C3962 C3957 1.350 . S
C3963 H3950 0.929 . S
C3963 C3955 1.433 . S
C3963 N3965 1.384 . S
N3964 C3960 1.427 . S
N3964 C3961 1.384 . S
N3965 C3957 1.427 . S
N3965 C3963 1.384 . S
H3966 C3972 0.930 . S
H3967 C3976 0.930 . S
H3968 C3981 0.929 . S
H3969 C3979 0.929 . S
H3970 C3974 0.929 . S
H3971 C3980 0.929 . S
C3972 H3966 0.930 . S
C3972 C3973 1.367 . S
C3972 C3980 1.378 . S
C3973 C3972 1.367 . S
C3973 C3981 1.433 . S
C3974 H3970 0.929 . S
C3974 C3976 1.378 . S
C3974 C3978 1.350 . S
C3975 C3978 1.463 . S
C3975 C3980 1.350 . S
C3975 N3983 1.427 . S
C3976 H3967 0.930 . S
C3976 C3974 1.378 . S
C3976 C3977 1.367 . S
C3977 C3976 1.367 . S
C3977 C3979 1.433 . S
C3978 C3974 1.350 . S
C3978 C3975 1.463 . S
C3978 N3982 1.427 . S
C3979 H3969 0.929 . S
C3979 C3977 1.433 . S
C3979 N3982 1.384 . S
C3980 H3971 0.929 . S
C3980 C3972 1.378 . S
C3980 C3975 1.350 . S
C3981 H3968 0.929 . S
C3981 C3973 1.433 . S
C3981 N3983 1.384 . S
N3982 C3978 1.427 . S
N3982 C3979 1.384 . S
N3983 C3975 1.427 . S
N3983 C3981 1.384 . S
H3984 C3990 0.930 . S
H3985 C3994 0.930 . S
H3986 C3999 0.929 . S
H3987 C3997 0.929 . S
H3988 C3992 0.929 . S
H3989 C3998 0.929 . S
C3990 H3984 0.930 . S
C3990 C3991 1.367 . S
C3990 C3998 1.378 . S
C3991 C3990 1.367 . S
C3991 C3999 1.433 . S
C3992 H3988 0.929 . S
C3992 C3994 1.378 . S
C3992 C3996 1.350 . S
C3993 C3996 1.463 . S
C3993 C3998 1.350 . S
C3993 N4001 1.427 . S
C3994 H3985 0.930 . S
C3994 C3992 1.378 . S
C3994 C3995 1.367 . S
C3995 C3994 1.367 . S
C3995 C3997 1.433 . S
C3996 C3992 1.350 . S
C3996 C3993 1.463 . S
C3996 N4000 1.427 . S
C3997 H3987 0.929 . S
C3997 C3995 1.433 . S
C3997 N4000 1.384 . S
C3998 H3989 0.929 . S
C3998 C3990 1.378 . S
C3998 C3993 1.350 . S
C3999 H3986 0.929 . S
C3999 C3991 1.433 . S
C3999 N4001 1.384 . S
N4000 C3996 1.427 . S
N4000 C3997 1.384 . S
N4001 C3993 1.427 . S
N4001 C3999 1.384 . S
H4002 C4008 0.930 . S
H4003 C4012 0.930 . S
H4004 C4017 0.929 . S
H4005 C4015 0.929 . S
H4006 C4010 0.929 . S
H4007 C4016 0.929 . S
C4008 H4002 0.930 . S
C4008 C4009 1.367 . S
C4008 C4016 1.378 . S
C4009 C4008 1.367 . S
C4009 C4017 1.433 . S
C4010 H4006 0.929 . S
C4010 C4012 1.378 . S
C4010 C4014 1.350 . S
C4011 C4014 1.463 . S
C4011 C4016 1.350 . S
C4011 N4019 1.427 . S
C4012 H4003 0.930 . S
C4012 C4010 1.378 . S
C4012 C4013 1.367 . S
C4013 C4012 1.367 . S
C4013 C4015 1.433 . S
C4014 C4010 1.350 . S
C4014 C4011 1.463 . S
C4014 N4018 1.427 . S
C4015 H4005 0.929 . S
C4015 C4013 1.433 . S
C4015 N4018 1.384 . S
C4016 H4007 0.929 . S
C4016 C4008 1.378 . S
C4016 C4011 1.350 . S
C4017 H4004 0.929 . S
C4017 C4009 1.433 . S
C4017 N4019 1.384 . S
N4018 C4014 1.427 . S
N4018 C4015 1.384 . S
N4019 C4011 1.427 . S
N4019 C4017 1.384 . S
H4020 C4026 0.930 . S
H4021 C4030 0.930 . S
H4022 C4035 0.929 . S
H4023 C4033 0.929 . S
H4024 C4028 0.929 . S
H4025 C4034 0.929 . S
C4026 H4020 0.930 . S
C4026 C4027 1.367 . S
C4026 C4034 1.378 . S
C4027 C4026 1.367 . S
C4027 C4035 1.433 . S
C4028 H4024 0.929 . S
C4028 C4030 1.378 . S
C4028 C4032 1.350 . S
C4029 C4032 1.463 . S
C4029 C4034 1.350 . S
C4029 N4037 1.427 . S
C4030 H4021 0.930 . S
C4030 C4028 1.378 . S
C4030 C4031 1.367 . S
C4031 C4030 1.367 . S
C4031 C4033 1.433 . S
C4032 C4028 1.350 . S
C4032 C4029 1.463 . S
C4032 N4036 1.427 . S
C4033 H4023 0.929 . S
C4033 C4031 1.433 . S
C4033 N4036 1.384 . S
C4034 H4025 0.929 . S
C4034 C4026 1.378 . S
C4034 C4029 1.350 . S
C4035 H4022 0.929 . S
C4035 C4027 1.433 . S
C4035 N4037 1.384 . S
N4036 C4032 1.427 . S
N4036 C4033 1.384 . S
N4037 C4029 1.427 . S
N4037 C4035 1.384 . S
H4038 C4044 0.930 . S
H4039 C4048 0.930 . S
H4040 C4053 0.929 . S
H4041 C4051 0.929 . S
H4042 C4046 0.929 . S
H4043 C4052 0.929 . S
C4044 H4038 0.930 . S
C4044 C4045 1.367 . S
C4044 C4052 1.378 . S
C4045 C4044 1.367 . S
C4045 C4053 1.433 . S
C4046 H4042 0.929 . S
C4046 C4048 1.378 . S
C4046 C4050 1.350 . S
C4047 C4050 1.463 . S
C4047 C4052 1.350 . S
C4047 N4055 1.427 . S
C4048 H4039 0.930 . S
C4048 C4046 1.378 . S
C4048 C4049 1.367 . S
C4049 C4048 1.367 . S
C4049 C4051 1.433 . S
C4050 C4046 1.350 . S
C4050 C4047 1.463 . S
C4050 N4054 1.427 . S
C4051 H4041 0.929 . S
C4051 C4049 1.433 . S
C4051 N4054 1.384 . S
C4052 H4043 0.929 . S
C4052 C4044 1.378 . S
C4052 C4047 1.350 . S
C4053 H4040 0.929 . S
C4053 C4045 1.433 . S
C4053 N4055 1.384 . S
N4054 C4050 1.427 . S
N4054 C4051 1.384 . S
N4055 C4047 1.427 . S
N4055 C4053 1.384 . S
H4056 C4062 0.930 . S
H4057 C4066 0.930 . S
H4058 C4071 0.929 . S
H4059 C4069 0.929 . S
H4060 C4064 0.929 . S
H4061 C4070 0.929 . S
C4062 H4056 0.930 . S
C4062 C4063 1.367 . S
C4062 C4070 1.378 . S
C4063 C4062 1.367 . S
C4063 C4071 1.433 . S
C4064 H4060 0.929 . S
C4064 C4066 1.378 . S
C4064 C4068 1.350 . S
C4065 C4068 1.463 . S
C4065 C4070 1.350 . S
C4065 N4073 1.427 . S
C4066 H4057 0.930 . S
C4066 C4064 1.378 . S
C4066 C4067 1.367 . S
C4067 C4066 1.367 . S
C4067 C4069 1.433 . S
C4068 C4064 1.350 . S
C4068 C4065 1.463 . S
C4068 N4072 1.427 . S
C4069 H4059 0.929 . S
C4069 C4067 1.433 . S
C4069 N4072 1.384 . S
C4070 H4061 0.929 . S
C4070 C4062 1.378 . S
C4070 C4065 1.350 . S
C4071 H4058 0.929 . S
C4071 C4063 1.433 . S
C4071 N4073 1.384 . S
N4072 C4068 1.427 . S
N4072 C4069 1.384 . S
N4073 C4065 1.427 . S
N4073 C4071 1.384 . S
H4074 C4080 0.930 . S
H4075 C4084 0.930 . S
H4076 C4089 0.929 . S
H4077 C4087 0.929 . S
H4078 C4082 0.929 . S
H4079 C4088 0.929 . S
C4080 H4074 0.930 . S
C4080 C4081 1.367 . S
C4080 C4088 1.378 . S
C4081 C4080 1.367 . S
C4081 C4089 1.433 . S
C4082 H4078 0.929 . S
C4082 C4084 1.378 . S
C4082 C4086 1.350 . S
C4083 C4086 1.463 . S
C4083 C4088 1.350 . S
C4083 N4091 1.427 . S
C4084 H4075 0.930 . S
C4084 C4082 1.378 . S
C4084 C4085 1.367 . S
C4085 C4084 1.367 . S
C4085 C4087 1.433 . S
C4086 C4082 1.350 . S
C4086 C4083 1.463 . S
C4086 N4090 1.427 . S
C4087 H4077 0.929 . S
C4087 C4085 1.433 . S
C4087 N4090 1.384 . S
C4088 H4079 0.929 . S
C4088 C4080 1.378 . S
C4088 C4083 1.350 . S
C4089 H4076 0.929 . S
C4089 C4081 1.433 . S
C4089 N4091 1.384 . S
N4090 C4086 1.427 . S
N4090 C4087 1.384 . S
N4091 C4083 1.427 . S
N4091 C4089 1.384 . S
H4092 C4098 0.930 . S
H4093 C4102 0.930 . S
H4094 C4107 0.929 . S
H4095 C4105 0.929 . S
H4096 C4100 0.929 . S
H4097 C4106 0.929 . S
C4098 H4092 0.930 . S
C4098 C4099 1.367 . S
C4098 C4106 1.378 . S
C4099 C4098 1.367 . S
C4099 C4107 1.433 . S
C4100 H4096 0.929 . S
C4100 C4102 1.378 . S
C4100 C4104 1.350 . S
C4101 C4104 1.463 . S
C4101 C4106 1.350 . S
C4101 N4109 1.427 . S
C4102 H4093 0.930 . S
C4102 C4100 1.378 . S
C4102 C4103 1.367 . S
C4103 C4102 1.367 . S
C4103 C4105 1.433 . S
C4104 C4100 1.350 . S
C4104 C4101 1.463 . S
C4104 N4108 1.427 . S
C4105 H4095 0.929 . S
C4105 C4103 1.433 . S
C4105 N4108 1.384 . S
C4106 H4097 0.929 . S
C4106 C4098 1.378 . S
C4106 C4101 1.350 . S
C4107 H4094 0.929 . S
C4107 C4099 1.433 . S
C4107 N4109 1.384 . S
N4108 C4104 1.427 . S
N4108 C4105 1.384 . S
N4109 C4101 1.427 . S
N4109 C4107 1.384 . S
H4110 C4116 0.930 . S
H4111 C4120 0.930 . S
H4112 C4125 0.929 . S
H4113 C4123 0.929 . S
H4114 C4118 0.929 . S
H4115 C4124 0.929 . S
C4116 H4110 0.930 . S
C4116 C4117 1.367 . S
C4116 C4124 1.378 . S
C4117 C4116 1.367 . S
C4117 C4125 1.433 . S
C4118 H4114 0.929 . S
C4118 C4120 1.378 . S
C4118 C4122 1.350 . S
C4119 C4122 1.463 . S
C4119 C4124 1.350 . S
C4119 N4127 1.427 . S
C4120 H4111 0.930 . S
C4120 C4118 1.378 . S
C4120 C4121 1.367 . S
C4121 C4120 1.367 . S
C4121 C4123 1.433 . S
C4122 C4118 1.350 . S
C4122 C4119 1.463 . S
C4122 N4126 1.427 . S
C4123 H4113 0.929 . S
C4123 C4121 1.433 . S
C4123 N4126 1.384 . S
C4124 H4115 0.929 . S
C4124 C4116 1.378 . S
C4124 C4119 1.350 . S
C4125 H4112 0.929 . S
C4125 C4117 1.433 . S
C4125 N4127 1.384 . S
N4126 C4122 1.427 . S
N4126 C4123 1.384 . S
N4127 C4119 1.427 . S
N4127 C4125 1.384 . S
H4128 C4134 0.930 . S
H4129 C4138 0.930 . S
H4130 C4143 0.929 . S
H4131 C4141 0.929 . S
H4132 C4136 0.929 . S
H4133 C4142 0.929 . S
C4134 H4128 0.930 . S
C4134 C4135 1.367 . S
C4134 C4142 1.378 . S
C4135 C4134 1.367 . S
C4135 C4143 1.433 . S
C4136 H4132 0.929 . S
C4136 C4138 1.378 . S
C4136 C4140 1.350 . S
C4137 C4140 1.463 1_545 S
C4137 C4142 1.350 . S
C4137 N4145 1.427 . S
C4138 H4129 0.930 . S
C4138 C4136 1.378 . S
C4138 C4139 1.367 . S
C4139 C4138 1.367 . S
C4139 C4141 1.433 . S
C4140 C4136 1.350 . S
C4140 C4137 1.463 1_565 S
C4140 N4144 1.427 . S
C4141 H4131 0.929 . S
C4141 C4139 1.433 . S
C4141 N4144 1.384 . S
C4142 H4133 0.929 . S
C4142 C4134 1.378 . S
C4142 C4137 1.350 . S
C4143 H4130 0.929 . S
C4143 C4135 1.433 . S
C4143 N4145 1.384 . S
N4144 C4140 1.427 . S
N4144 C4141 1.384 . S
N4145 C4137 1.427 . S
N4145 C4143 1.384 . S
H4146 C4152 0.930 . S
H4147 C4156 0.930 . S
H4148 C4161 0.929 . S
H4149 C4159 0.929 . S
H4150 C4154 0.929 . S
H4151 C4160 0.929 . S
C4152 H4146 0.930 . S
C4152 C4153 1.367 1_545 S
C4152 C4160 1.378 . S
C4153 C4152 1.367 1_565 S
C4153 C4161 1.433 . S
C4154 H4150 0.929 . S
C4154 C4156 1.378 . S
C4154 C4158 1.350 . S
C4155 C4158 1.463 . S
C4155 C4160 1.350 1_565 S
C4155 N4163 1.427 . S
C4156 H4147 0.930 . S
C4156 C4154 1.378 . S
C4156 C4157 1.367 . S
C4157 C4156 1.367 . S
C4157 C4159 1.433 1_565 S
C4158 C4154 1.350 . S
C4158 C4155 1.463 . S
C4158 N4162 1.427 1_565 S
C4159 H4149 0.929 . S
C4159 C4157 1.433 1_545 S
C4159 N4162 1.384 . S
C4160 H4151 0.929 . S
C4160 C4152 1.378 . S
C4160 C4155 1.350 1_545 S
C4161 H4148 0.929 . S
C4161 C4153 1.433 . S
C4161 N4163 1.384 . S
N4162 C4158 1.427 1_545 S
N4162 C4159 1.384 . S
N4163 C4155 1.427 . S
N4163 C4161 1.384 . S
H4164 C4170 0.930 . S
H4165 C4174 0.930 . S
H4166 C4179 0.929 . S
H4167 C4177 0.929 . S
H4168 C4172 0.929 . S
H4169 C4178 0.929 . S
C4170 H4164 0.930 . S
C4170 C4171 1.367 . S
C4170 C4178 1.378 . S
C4171 C4170 1.367 . S
C4171 C4179 1.433 . S
C4172 H4168 0.929 . S
C4172 C4174 1.378 . S
C4172 C4176 1.350 . S
C4173 C4176 1.463 1_545 S
C4173 C4178 1.350 . S
C4173 N4181 1.427 . S
C4174 H4165 0.930 . S
C4174 C4172 1.378 . S
C4174 C4175 1.367 . S
C4175 C4174 1.367 . S
C4175 C4177 1.433 . S
C4176 C4172 1.350 . S
C4176 C4173 1.463 1_565 S
C4176 N4180 1.427 . S
C4177 H4167 0.929 . S
C4177 C4175 1.433 . S
C4177 N4180 1.384 . S
C4178 H4169 0.929 . S
C4178 C4170 1.378 . S
C4178 C4173 1.350 . S
C4179 H4166 0.929 . S
C4179 C4171 1.433 . S
C4179 N4181 1.384 . S
N4180 C4176 1.427 . S
N4180 C4177 1.384 . S
N4181 C4173 1.427 . S
N4181 C4179 1.384 . S
H4182 C4188 0.930 . S
H4183 C4192 0.930 . S
H4184 C4197 0.929 . S
H4185 C4195 0.929 . S
H4186 C4190 0.929 . S
H4187 C4196 0.929 . S
C4188 H4182 0.930 . S
C4188 C4189 1.367 1_565 S
C4188 C4196 1.378 . S
C4189 C4188 1.367 1_545 S
C4189 C4197 1.433 . S
C4190 H4186 0.929 . S
C4190 C4192 1.378 . S
C4190 C4194 1.350 . S
C4191 C4194 1.463 1_556 S
C4191 C4196 1.350 1_545 S
C4191 N4199 1.427 . S
C4192 H4183 0.930 . S
C4192 C4190 1.378 . S
C4192 C4193 1.367 . S
C4193 C4192 1.367 . S
C4193 C4195 1.433 1_545 S
C4194 C4190 1.350 . S
C4194 C4191 1.463 1_554 S
C4194 N4198 1.427 1_545 S
C4195 H4185 0.929 . S
C4195 C4193 1.433 1_565 S
C4195 N4198 1.384 . S
C4196 H4187 0.929 . S
C4196 C4188 1.378 . S
C4196 C4191 1.350 1_565 S
C4197 H4184 0.929 . S
C4197 C4189 1.433 . S
C4197 N4199 1.384 . S
N4198 C4194 1.427 1_565 S
N4198 C4195 1.384 . S
N4199 C4191 1.427 . S
N4199 C4197 1.384 . S
H4200 C4206 0.930 . S
H4201 C4210 0.930 . S
H4202 C4215 0.929 . S
H4203 C4213 0.929 . S
H4204 C4208 0.929 1_565 S
H4205 C4214 0.929 1_545 S
C4206 H4200 0.930 . S
C4206 C4207 1.367 . S
C4206 C4214 1.378 . S
C4207 C4206 1.367 . S
C4207 C4215 1.433 . S
C4208 H4204 0.929 1_545 S
C4208 C4210 1.378 . S
C4208 C4212 1.350 . S
C4209 C4212 1.463 1_565 S
C4209 C4214 1.350 . S
C4209 N4217 1.427 . S
C4210 H4201 0.930 . S
C4210 C4208 1.378 . S
C4210 C4211 1.367 . S
C4211 C4210 1.367 . S
C4211 C4213 1.433 . S
C4212 C4208 1.350 . S
C4212 C4209 1.463 1_545 S
C4212 N4216 1.427 . S
C4213 H4203 0.929 . S
C4213 C4211 1.433 . S
C4213 N4216 1.384 . S
C4214 H4205 0.929 1_565 S
C4214 C4206 1.378 . S
C4214 C4209 1.350 . S
C4215 H4202 0.929 . S
C4215 C4207 1.433 . S
C4215 N4217 1.384 . S
N4216 C4212 1.427 . S
N4216 C4213 1.384 . S
N4217 C4209 1.427 . S
N4217 C4215 1.384 . S
H4218 C4224 0.930 . S
H4219 C4228 0.930 . S
H4220 C4233 0.929 . S
H4221 C4231 0.929 . S
H4222 C4226 0.929 . S
H4223 C4232 0.929 . S
C4224 H4218 0.930 . S
C4224 C4225 1.367 1_565 S
C4224 C4232 1.378 . S
C4225 C4224 1.367 1_545 S
C4225 C4233 1.433 . S
C4226 H4222 0.929 . S
C4226 C4228 1.378 . S
C4226 C4230 1.350 . S
C4227 C4230 1.463 . S
C4227 C4232 1.350 1_545 S
C4227 N4235 1.427 . S
C4228 H4219 0.930 . S
C4228 C4226 1.378 . S
C4228 C4229 1.367 . S
C4229 C4228 1.367 . S
C4229 C4231 1.433 1_545 S
C4230 C4226 1.350 . S
C4230 C4227 1.463 . S
C4230 N4234 1.427 1_545 S
C4231 H4221 0.929 . S
C4231 C4229 1.433 1_565 S
C4231 N4234 1.384 . S
C4232 H4223 0.929 . S
C4232 C4224 1.378 . S
C4232 C4227 1.350 1_565 S
C4233 H4220 0.929 . S
C4233 C4225 1.433 . S
C4233 N4235 1.384 . S
N4234 C4230 1.427 1_565 S
N4234 C4231 1.384 . S
N4235 C4227 1.427 . S
N4235 C4233 1.384 . S
H4236 C4242 0.930 . S
H4237 C4246 0.930 . S
H4238 C4251 0.929 . S
H4239 C4249 0.929 . S
H4240 C4244 0.929 . S
H4241 C4250 0.929 . S
C4242 H4236 0.930 . S
C4242 C4243 1.367 . S
C4242 C4250 1.378 . S
C4243 C4242 1.367 . S
C4243 C4251 1.433 . S
C4244 H4240 0.929 . S
C4244 C4246 1.378 . S
C4244 C4248 1.350 . S
C4245 C4248 1.463 1_565 S
C4245 C4250 1.350 . S
C4245 N4253 1.427 . S
C4246 H4237 0.930 . S
C4246 C4244 1.378 . S
C4246 C4247 1.367 . S
C4247 C4246 1.367 . S
C4247 C4249 1.433 . S
C4248 C4244 1.350 . S
C4248 C4245 1.463 1_545 S
C4248 N4252 1.427 . S
C4249 H4239 0.929 . S
C4249 C4247 1.433 . S
C4249 N4252 1.384 . S
C4250 H4241 0.929 . S
C4250 C4242 1.378 . S
C4250 C4245 1.350 . S
C4251 H4238 0.929 . S
C4251 C4243 1.433 . S
C4251 N4253 1.384 . S
N4252 C4248 1.427 . S
N4252 C4249 1.384 . S
N4253 C4245 1.427 . S
N4253 C4251 1.384 . S
H4254 C4260 0.930 . S
H4255 C4264 0.930 . S
H4256 C4269 0.929 . S
H4257 C4267 0.929 . S
H4258 C4262 0.929 1_554 S
H4259 C4268 0.929 1_556 S
C4260 H4254 0.930 . S
C4260 C4261 1.367 1_545 S
C4260 C4268 1.378 . S
C4261 C4260 1.367 1_565 S
C4261 C4269 1.433 . S
C4262 H4258 0.929 1_556 S
C4262 C4264 1.378 . S
C4262 C4266 1.350 . S
C4263 C4266 1.463 1_554 S
C4263 C4268 1.350 1_565 S
C4263 N4271 1.427 . S
C4264 H4255 0.930 . S
C4264 C4262 1.378 . S
C4264 C4265 1.367 . S
C4265 C4264 1.367 . S
C4265 C4267 1.433 1_565 S
C4266 C4262 1.350 . S
C4266 C4263 1.463 1_556 S
C4266 N4270 1.427 1_565 S
C4267 H4257 0.929 . S
C4267 C4265 1.433 1_545 S
C4267 N4270 1.384 . S
C4268 H4259 0.929 1_554 S
C4268 C4260 1.378 . S
C4268 C4263 1.350 1_545 S
C4269 H4256 0.929 . S
C4269 C4261 1.433 . S
C4269 N4271 1.384 . S
N4270 C4266 1.427 1_545 S
N4270 C4267 1.384 . S
N4271 C4263 1.427 . S
N4271 C4269 1.384 . S
H4272 C4278 0.930 . S
H4273 C4282 0.930 . S
H4274 C4287 0.929 . S
H4275 C4285 0.929 . S
H4276 C4280 0.929 . S
H4277 C4286 0.929 . S
C4278 H4272 0.930 . S
C4278 C4279 1.367 . S
C4278 C4286 1.378 . S
C4279 C4278 1.367 . S
C4279 C4287 1.433 . S
C4280 H4276 0.929 . S
C4280 C4282 1.378 . S
C4280 C4284 1.350 . S
C4281 C4284 1.463 . S
C4281 C4286 1.350 . S
C4281 N4289 1.427 . S
C4282 H4273 0.930 . S
C4282 C4280 1.378 . S
C4282 C4283 1.367 . S
C4283 C4282 1.367 . S
C4283 C4285 1.433 . S
C4284 C4280 1.350 . S
C4284 C4281 1.463 . S
C4284 N4288 1.427 . S
C4285 H4275 0.929 . S
C4285 C4283 1.433 . S
C4285 N4288 1.384 . S
C4286 H4277 0.929 . S
C4286 C4278 1.378 . S
C4286 C4281 1.350 . S
C4287 H4274 0.929 . S
C4287 C4279 1.433 . S
C4287 N4289 1.384 . S
N4288 C4284 1.427 . S
N4288 C4285 1.384 . S
N4289 C4281 1.427 . S
N4289 C4287 1.384 . S
H4290 C4296 0.930 . S
H4291 C4300 0.930 . S
H4292 C4305 0.929 . S
H4293 C4303 0.929 . S
H4294 C4298 0.877 1_556 S
H4295 C4304 0.877 1_554 S
C4296 H4290 0.930 . S
C4296 C4297 1.367 . S
C4296 C4304 1.378 . S
C4297 C4296 1.367 . S
C4297 C4305 1.433 . S
C4298 H4294 0.877 1_554 S
C4298 C4300 1.378 . S
C4298 C4302 1.350 . S
C4299 C4302 1.463 1_556 S
C4299 C4304 1.350 . S
C4299 N4307 1.427 . S
C4300 H4291 0.930 . S
C4300 C4298 1.378 . S
C4300 C4301 1.367 . S
C4301 C4300 1.367 . S
C4301 C4303 1.433 . S
C4302 C4298 1.350 . S
C4302 C4299 1.463 1_554 S
C4302 N4306 1.427 . S
C4303 H4293 0.929 . S
C4303 C4301 1.433 . S
C4303 N4306 1.384 . S
C4304 H4295 0.877 1_556 S
C4304 C4296 1.378 . S
C4304 C4299 1.350 . S
C4305 H4292 0.929 . S
C4305 C4297 1.433 . S
C4305 N4307 1.384 . S
N4306 C4302 1.427 . S
N4306 C4303 1.384 . S
N4307 C4299 1.427 . S
N4307 C4305 1.384 . S
H4308 C4314 0.930 . S
H4309 C4318 0.930 . S
H4310 C4323 0.929 . S
H4311 C4321 0.929 . S
H4312 C4316 0.929 . S
H4313 C4322 0.929 . S
C4314 H4308 0.930 . S
C4314 C4315 1.367 . S
C4314 C4322 1.378 . S
C4315 C4314 1.367 . S
C4315 C4323 1.433 . S
C4316 H4312 0.929 . S
C4316 C4318 1.378 . S
C4316 C4320 1.350 . S
C4317 C4320 1.463 . S
C4317 C4322 1.350 . S
C4317 N4325 1.427 . S
C4318 H4309 0.930 . S
C4318 C4316 1.378 . S
C4318 C4319 1.367 . S
C4319 C4318 1.367 . S
C4319 C4321 1.433 . S
C4320 C4316 1.350 . S
C4320 C4317 1.463 . S
C4320 N4324 1.427 . S
C4321 H4311 0.929 . S
C4321 C4319 1.433 . S
C4321 N4324 1.384 . S
C4322 H4313 0.929 . S
C4322 C4314 1.378 . S
C4322 C4317 1.350 . S
C4323 H4310 0.929 . S
C4323 C4315 1.433 . S
C4323 N4325 1.384 . S
N4324 C4320 1.427 . S
N4324 C4321 1.384 . S
N4325 C4317 1.427 . S
N4325 C4323 1.384 . S
H4326 C4332 0.930 . S
H4327 C4336 0.930 . S
H4328 C4341 0.929 . S
H4329 C4339 0.929 . S
H4330 C4334 0.929 . S
H4331 C4340 0.929 . S
C4332 H4326 0.930 . S
C4332 C4333 1.367 . S
C4332 C4340 1.378 . S
C4333 C4332 1.367 . S
C4333 C4341 1.433 . S
C4334 H4330 0.929 . S
C4334 C4336 1.378 . S
C4334 C4338 1.350 . S
C4335 C4338 1.463 . S
C4335 C4340 1.350 . S
C4335 N4343 1.427 . S
C4336 H4327 0.930 . S
C4336 C4334 1.378 . S
C4336 C4337 1.367 . S
C4337 C4336 1.367 . S
C4337 C4339 1.433 . S
C4338 C4334 1.350 . S
C4338 C4335 1.463 . S
C4338 N4342 1.427 . S
C4339 H4329 0.929 . S
C4339 C4337 1.433 . S
C4339 N4342 1.384 . S
C4340 H4331 0.929 . S
C4340 C4332 1.378 . S
C4340 C4335 1.350 . S
C4341 H4328 0.929 . S
C4341 C4333 1.433 . S
C4341 N4343 1.384 . S
N4342 C4338 1.427 . S
N4342 C4339 1.384 . S
N4343 C4335 1.427 . S
N4343 C4341 1.384 . S
H4344 C4350 0.930 . S
H4345 C4354 0.930 . S
H4346 C4359 0.929 . S
H4347 C4357 0.929 . S
H4348 C4352 0.929 . S
H4349 C4358 0.929 . S
C4350 H4344 0.930 . S
C4350 C4351 1.367 . S
C4350 C4358 1.378 . S
C4351 C4350 1.367 . S
C4351 C4359 1.433 . S
C4352 H4348 0.929 . S
C4352 C4354 1.378 . S
C4352 C4356 1.350 . S
C4353 C4356 1.463 . S
C4353 C4358 1.350 . S
C4353 N4361 1.427 . S
C4354 H4345 0.930 . S
C4354 C4352 1.378 . S
C4354 C4355 1.367 . S
C4355 C4354 1.367 . S
C4355 C4357 1.433 . S
C4356 C4352 1.350 . S
C4356 C4353 1.463 . S
C4356 N4360 1.427 . S
C4357 H4347 0.929 . S
C4357 C4355 1.433 . S
C4357 N4360 1.384 . S
C4358 H4349 0.929 . S
C4358 C4350 1.378 . S
C4358 C4353 1.350 . S
C4359 H4346 0.929 . S
C4359 C4351 1.433 . S
C4359 N4361 1.384 . S
N4360 C4356 1.427 . S
N4360 C4357 1.384 . S
N4361 C4353 1.427 . S
N4361 C4359 1.384 . S
H4362 C4368 0.930 . S
H4363 C4372 0.930 . S
H4364 C4377 0.929 . S
H4365 C4375 0.929 . S
H4366 C4370 0.897 1_556 S
H4367 C4376 0.897 1_554 S
C4368 H4362 0.930 . S
C4368 C4369 1.367 . S
C4368 C4376 1.400 . S
C4369 C4368 1.367 . S
C4369 C4377 1.433 . S
C4370 H4366 0.897 1_554 S
C4370 C4372 1.400 . S
C4370 C4374 1.360 . S
C4371 C4374 1.463 1_556 S
C4371 C4376 1.360 . S
C4371 N4379 1.427 . S
C4372 H4363 0.930 . S
C4372 C4370 1.400 . S
C4372 C4373 1.367 . S
C4373 C4372 1.367 . S
C4373 C4375 1.433 . S
C4374 C4370 1.360 . S
C4374 C4371 1.463 1_554 S
C4374 N4378 1.427 . S
C4375 H4365 0.929 . S
C4375 C4373 1.433 . S
C4375 N4378 1.384 . S
C4376 H4367 0.897 1_556 S
C4376 C4368 1.400 . S
C4376 C4371 1.360 . S
C4377 H4364 0.929 . S
C4377 C4369 1.433 . S
C4377 N4379 1.384 . S
N4378 C4374 1.427 . S
N4378 C4375 1.384 . S
N4379 C4371 1.427 . S
N4379 C4377 1.384 . S
H4380 C4386 0.930 . S
H4381 C4390 0.930 . S
H4382 C4395 0.929 . S
H4383 C4393 0.929 . S
H4384 C4388 0.929 . S
H4385 C4394 0.929 . S
C4386 H4380 0.930 . S
C4386 C4387 1.367 . S
C4386 C4394 1.378 . S
C4387 C4386 1.367 . S
C4387 C4395 1.433 . S
C4388 H4384 0.929 . S
C4388 C4390 1.378 . S
C4388 C4392 1.350 . S
C4389 C4392 1.463 . S
C4389 C4394 1.350 . S
C4389 N4397 1.427 . S
C4390 H4381 0.930 . S
C4390 C4388 1.378 . S
C4390 C4391 1.367 . S
C4391 C4390 1.367 . S
C4391 C4393 1.433 . S
C4392 C4388 1.350 . S
C4392 C4389 1.463 . S
C4392 N4396 1.427 . S
C4393 H4383 0.929 . S
C4393 C4391 1.433 . S
C4393 N4396 1.384 . S
C4394 H4385 0.929 . S
C4394 C4386 1.378 . S
C4394 C4389 1.350 . S
C4395 H4382 0.929 . S
C4395 C4387 1.433 . S
C4395 N4397 1.384 . S
N4396 C4392 1.427 . S
N4396 C4393 1.384 . S
N4397 C4389 1.427 . S
N4397 C4395 1.384 . S
H4398 C4404 0.930 . S
H4399 C4408 0.930 . S
H4400 C4413 0.929 . S
H4401 C4411 0.929 . S
H4402 C4406 0.929 . S
H4403 C4412 0.929 . S
C4404 H4398 0.930 . S
C4404 C4405 1.367 . S
C4404 C4412 1.378 . S
C4405 C4404 1.367 . S
C4405 C4413 1.433 . S
C4406 H4402 0.929 . S
C4406 C4408 1.378 . S
C4406 C4410 1.350 . S
C4407 C4410 1.463 . S
C4407 C4412 1.350 . S
C4407 N4415 1.427 . S
C4408 H4399 0.930 . S
C4408 C4406 1.378 . S
C4408 C4409 1.367 . S
C4409 C4408 1.367 . S
C4409 C4411 1.433 . S
C4410 C4406 1.350 . S
C4410 C4407 1.463 . S
C4410 N4414 1.427 . S
C4411 H4401 0.929 . S
C4411 C4409 1.433 . S
C4411 N4414 1.384 . S
C4412 H4403 0.929 . S
C4412 C4404 1.378 . S
C4412 C4407 1.350 . S
C4413 H4400 0.929 . S
C4413 C4405 1.433 . S
C4413 N4415 1.384 . S
N4414 C4410 1.427 . S
N4414 C4411 1.384 . S
N4415 C4407 1.427 . S
N4415 C4413 1.384 . S
C2695 C69 0.408 . S
C2699 C2335 0.339 . S
C2713 C153 0.392 . S
C2717 C739 0.368 . S
C2731 C237 0.393 . S
C2735 C2167 0.368 . S
C2749 C907 0.357 . S
C2753 C321 0.413 . S
C2767 C405 0.438 . S
C2771 C2503 0.314 . S
C2785 C1243 0.338 . S
C2789 C489 0.409 . S
C2803 C2671 0.319 . S
C2807 C573 0.430 . S
C2821 C657 0.390 . S
C2825 C1075 0.366 . S
C2839 C730 0.434 . S
C2843 C1652 0.316 . S
C2857 C814 0.404 . S
C2861 C56 0.343 . S
C2875 C1484 0.368 . S
C2879 C898 0.392 . S
C2893 C224 0.313 . S
C2897 C982 0.442 . S
C2911 C1066 0.439 . S
C2915 C1820 0.314 . S
C2929 C1150 0.443 . S
C2933 C560 0.321 . S
C2947 C1234 0.428 . S
C2951 C1988 0.320 . S
C2965 C392 0.316 . S
C2969 C1318 0.444 . S
C2983 C991 0.356 . S
C2987 C1413 0.414 . S
C3001 C2083 0.359 . S
C3005 C1497 0.392 . S
C3019 C823 0.329 . S
C3023 C1581 0.418 . S
C3037 C1665 0.407 . S
C3041 C2251 0.340 . S
C3055 C1159 0.367 . S
C3059 C1749 0.390 . S
C3073 C2587 0.366 . S
C3077 C1833 0.390 . S
C3091 C1327 0.361 . S
C3095 C1917 0.391 . S
C3109 C2001 0.393 . S
C3113 C2419 0.356 . S
C3127 C2074 0.391 . S
C3131 C308 0.367 . S
C3145 C2158 0.442 . S
C3149 C1400 0.323 . S
C3163 C2242 0.405 . S
C3167 C140 0.342 . S
C3181 C2326 0.392 . S
C3185 C1568 0.368 . S
C3199 C476 0.319 . S
C3203 C2410 0.430 . S
C3217 C1904 0.318 . S
C3221 C2494 0.444 . S
C3235 C2578 0.410 . S
C3239 C644 0.360 . S
C3253 C2662 0.400 . S
C3257 C1736 0.347 . S
C3271 C74 3.206 . S
C3275 C1586 3.206 . S
C3289 C1670 3.211 . S
C3293 C158 3.210 . S
C3307 C242 3.207 . S
C3311 C1418 3.206 . S
C3325 C326 3.210 . S
C3329 C1502 3.209 . S
C3343 C1922 3.207 . S
C3347 C410 3.208 . S
C3361 C494 3.206 . S
C3365 C2006 3.206 . S
C3379 C1754 3.206 . S
C3383 C578 3.206 . S
C3397 C662 3.212 . S
C3401 C1838 3.211 . S
C3415 C2247 3.211 . S
C3419 C735 3.211 . S
C3433 C819 3.212 . S
C3437 C2331 3.212 . S
C3451 C903 3.207 . S
C3455 C2079 3.206 . S
C3469 C987 3.211 . S
C3473 C2163 3.211 . S
C3487 C2583 3.209 . S
C3491 C1071 3.210 . S
C3505 C2667 3.212 . S
C3509 C1155 3.212 . S
C3523 C1239 3.206 . S
C3527 C2415 3.206 . S
C3541 C1323 3.210 . S
C3545 C2499 3.211 . S
C3559 C67 2.778 . S
C3563 C2072 2.778 . S
C3577 C812 2.779 . S
C3581 C151 2.779 . S
C3595 C235 2.777 . S
C3599 C2240 2.777 . S
C3613 C319 2.777 . S
C3617 C980 2.777 . S
C3631 C2408 2.778 . S
C3635 C403 2.778 . S
C3649 C1148 2.780 . S
C3653 C487 2.780 . S
C3667 C571 2.779 . S
C3671 C2576 2.779 . S
C3685 C655 2.777 . S
C3689 C1316 2.777 . S
C3703 C1411 2.780 . S
C3707 C728 2.780 . S
C3721 C1579 2.780 . S
C3725 C896 2.780 . S
C3739 C1747 2.780 . S
C3743 C1064 2.780 . S
C3757 C1232 2.779 . S
C3761 C1915 2.779 . S
C3775 C1495 2.777 . S
C3779 C2156 2.777 . S
C3793 C1663 2.777 . S
C3797 C2324 2.777 . S
C3811 C2492 2.779 . S
C3815 C1831 2.779 . S
C3829 C2660 2.777 . S
C3833 C1999 2.777 . S
C3847 C63 4.186 . S
C3851 C483 4.185 1_545 S
C3865 C567 4.183 . S
C3869 C147 4.183 1_545 S
C3883 C651 4.190 1_565 S
C3887 C231 4.190 . S
C3901 C399 4.189 . S
C3905 C315 4.189 1_565 S
C3919 C746 4.183 . S
C3923 C1166 4.183 1_565 S
C3937 C830 4.189 1_565 S
C3941 C1250 4.188 . S
C3955 C1334 4.189 1_545 S
C3959 C914 4.190 . S
C3973 C998 4.186 1_545 S
C3977 C1082 4.187 . S
C3991 C1407 4.188 . S
C3995 C1827 4.189 . S
C4009 C1491 4.188 . S
C4013 C1911 4.189 . S
C4027 C1575 4.185 . S
C4031 C1995 4.186 . S
C4045 C1743 4.183 . S
C4049 C1659 4.183 . S
C4063 C2090 4.183 . S
C4067 C2510 4.183 . S
C4081 C2174 4.184 . S
C4085 C2594 4.183 . S
C4099 C2678 4.183 . S
C4103 C2258 4.183 . S
C4117 C2342 4.188 . S
C4121 C2426 4.189 . S
C4135 C58 0.894 . S
C4139 C394 0.931 . S
C4153 C142 0.931 . S
C4157 C478 0.895 . S
C4171 C562 0.931 . S
C4175 C226 0.898 . S
C4189 C646 0.929 . S
C4193 C310 0.891 . S
C4207 C741 0.929 . S
C4211 C1077 0.904 . S
C4225 C1161 0.918 . S
C4229 C825 0.892 . S
C4243 C1245 0.894 . S
C4247 C909 0.915 . S
C4261 C1329 0.919 . S
C4265 C993 0.892 . S
C4279 C1402 0.912 . S
C4283 C1738 0.895 . S
C4297 C1822 0.890 . S
C4301 C1486 0.924 . S
C4315 C1570 0.912 . S
C4319 C1906 0.896 . S
C4333 C1990 0.931 . S
C4337 C1654 0.895 . S
C4351 C2421 0.928 . S
C4355 C2085 0.891 . S
C4369 C2169 0.911 . S
C4373 C2505 0.896 . S
C4387 C2253 0.905 . S
C4391 C2589 0.929 . S
C4405 C2337 0.928 . S
C4409 C2673 0.891 . S
