# Generated by pormake.
# Topology vby, (6)-cn, num edge types: 1
# Building blocks:
#     Node 0, Type 0, BuildingBlock: CUKXOW_clean_sbu_0, # of connection points: 6
#     Node 1, Type 0, BuildingBlock: CUKXOW_clean_sbu_0, # of connection points: 6
#     Node 2, Type 0, BuildingBlock: CUKXOW_clean_sbu_0, # of connection points: 6
#     Node 3, Type 0, BuildingBlock: CUKXOW_clean_sbu_0, # of connection points: 6
#     Node 4, Type 0, BuildingBlock: CUKXOW_clean_sbu_0, # of connection points: 6
#     Node 5, Type 0, BuildingBlock: CUKXOW_clean_sbu_0, # of connection points: 6
#     Node 6, Type 0, BuildingBlock: CUKXOW_clean_sbu_0, # of connection points: 6
#     Node 7, Type 0, BuildingBlock: CUKXOW_clean_sbu_0, # of connection points: 6
#     Edge 8, Type (0, 0), BuildingBlock: UVAHIK_clean_linker_0, # of connection points: 2
#     Edge 9, Type (0, 0), BuildingBlock: UVAHIK_clean_linker_0, # of connection points: 2
#     Edge 10, Type (0, 0), BuildingBlock: UVAHIK_clean_linker_0, # of connection points: 2
#     Edge 11, Type (0, 0), BuildingBlock: UVAHIK_clean_linker_0, # of connection points: 2
#     Edge 12, Type (0, 0), BuildingBlock: UVAHIK_clean_linker_0, # of connection points: 2
#     Edge 13, Type (0, 0), BuildingBlock: UVAHIK_clean_linker_0, # of connection points: 2
#     Edge 14, Type (0, 0), BuildingBlock: UVAHIK_clean_linker_0, # of connection points: 2
#     Edge 15, Type (0, 0), BuildingBlock: UVAHIK_clean_linker_0, # of connection points: 2
#     Edge 16, Type (0, 0), BuildingBlock: UVAHIK_clean_linker_0, # of connection points: 2
#     Edge 17, Type (0, 0), BuildingBlock: UVAHIK_clean_linker_0, # of connection points: 2
#     Edge 18, Type (0, 0), BuildingBlock: UVAHIK_clean_linker_0, # of connection points: 2
#     Edge 19, Type (0, 0), BuildingBlock: UVAHIK_clean_linker_0, # of connection points: 2
#     Edge 20, Type (0, 0), BuildingBlock: UVAHIK_clean_linker_0, # of connection points: 2
#     Edge 21, Type (0, 0), BuildingBlock: UVAHIK_clean_linker_0, # of connection points: 2
#     Edge 22, Type (0, 0), BuildingBlock: UVAHIK_clean_linker_0, # of connection points: 2
#     Edge 23, Type (0, 0), BuildingBlock: UVAHIK_clean_linker_0, # of connection points: 2
#     Edge 24, Type (0, 0), BuildingBlock: UVAHIK_clean_linker_0, # of connection points: 2
#     Edge 25, Type (0, 0), BuildingBlock: UVAHIK_clean_linker_0, # of connection points: 2
#     Edge 26, Type (0, 0), BuildingBlock: UVAHIK_clean_linker_0, # of connection points: 2
#     Edge 27, Type (0, 0), BuildingBlock: UVAHIK_clean_linker_0, # of connection points: 2
#     Edge 28, Type (0, 0), BuildingBlock: UVAHIK_clean_linker_0, # of connection points: 2
#     Edge 29, Type (0, 0), BuildingBlock: UVAHIK_clean_linker_0, # of connection points: 2
#     Edge 30, Type (0, 0), BuildingBlock: UVAHIK_clean_linker_0, # of connection points: 2
#     Edge 31, Type (0, 0), BuildingBlock: UVAHIK_clean_linker_0, # of connection points: 2
# Relax obj value: 0.106
# Max RMSD: 0.176
# Mean RMSD: 0.176
data_MOF--net-vby--node1-CUKXOW_clean_sbu_0--edge1-UVAHIK_clean_linker_0
_symmetry_space_group_name_H-M    P1
_symmetry_Int_Tables_number       1
_symmetry_cell_setting            triclinic
loop_
_symmetry_equiv_pos_as_xyz
'x, y, z'
_cell_length_a     22.691369
_cell_length_b     70.348145
_cell_length_c     38.924107
_cell_angle_alpha  105.92361
_cell_angle_beta   89.919305
_cell_angle_gamma 89.991578
loop_
_atom_site_label
_atom_site_type_symbol
_atom_site_fract_x
_atom_site_fract_y
_atom_site_fract_z
_atom_type_partial_charge
Tb0 Tb 1.00012 0.37932 0.01778 0.0
C1 C 0.06427 0.38898 0.09016 0.0
Tb2 Tb 0.13185 0.38583 0.01833 0.0
O3 O 0.01418 0.35238 0.03534 0.0
O4 O 0.07592 0.36116 0.00347 0.0
O5 O 0.01591 0.39225 0.07389 0.0
C6 C 0.2487 0.38255 0.01138 0.0
O7 O 0.11394 0.38297 0.07232 0.0
C8 C 0.06966 0.41868 0.0383 0.0
C9 C 0.06217 0.37822 0.94489 0.0
O10 O 0.21529 0.37168 0.0254 0.0
O11 O 0.21629 0.39521 0.00119 0.0
O12 O 0.12171 0.41635 0.05031 0.0
O13 O 0.05633 0.4031 0.01448 0.0
O14 O 0.11473 0.37985 0.96068 0.0
O15 O 0.01194 0.3787 0.96247 0.0
C16 C 0.883 0.38032 0.01298 0.0
O17 O 0.91652 0.36589 0.99568 0.0
O18 O 0.91545 0.39422 0.03292 0.0
C19 C 0.06572 0.34878 0.02055 0.0
Tb20 Tb 0.87392 0.64621 0.02899 0.0
C21 C 0.94475 0.65469 0.10211 0.0
Tb22 Tb 0.00565 0.65247 0.02841 0.0
O23 O 0.88299 0.61553 0.99789 0.0
O24 O 0.94952 0.62888 0.03293 0.0
O25 O 0.89194 0.6528 0.0866 0.0
C26 C 0.12285 0.65157 0.03276 0.0
O27 O 0.9947 0.65398 0.08418 0.0
C28 C 0.94002 0.68283 0.02462 0.0
C29 C 0.94014 0.64215 0.95644 0.0
O30 O 0.08941 0.66613 0.04962 0.0
O31 O 0.09028 0.63748 0.01347 0.0
O32 O 0.99126 0.67897 0.00952 0.0
O33 O 0.93029 0.6708 0.04249 0.0
O34 O 0.98884 0.63902 0.97256 0.0
O35 O 0.89083 0.64836 0.97451 0.0
C36 C 0.7572 0.64982 0.03624 0.0
O37 O 0.79072 0.6604 0.02166 0.0
O38 O 0.78944 0.63729 0.04689 0.0
C39 C 0.93525 0.61321 0.0096 0.0
Tb40 Tb 1.00255 0.6533 0.52987 0.0
C41 C 0.06673 0.64415 0.45726 0.0
Tb42 Tb 0.13429 0.64659 0.52871 0.0
O43 O 0.01691 0.67998 0.51181 0.0
O44 O 0.07852 0.67135 0.54406 0.0
O45 O 0.01813 0.64095 0.47353 0.0
C46 C 0.25128 0.64927 0.53554 0.0
O47 O 0.11664 0.64982 0.475 0.0
C48 C 0.07156 0.61403 0.50769 0.0
C49 C 0.06504 0.65437 0.60257 0.0
O50 O 0.21905 0.63513 0.54096 0.0
O51 O 0.21762 0.662 0.52644 0.0
O52 O 0.12313 0.61651 0.49515 0.0
O53 O 0.05866 0.62933 0.53235 0.0
O54 O 0.1172 0.6514 0.58616 0.0
O55 O 0.01491 0.65526 0.5857 0.0
C56 C 0.88538 0.65237 0.53525 0.0
O57 O 0.91829 0.66779 0.54781 0.0
O58 O 0.91845 0.6374 0.51975 0.0
C59 C 0.06817 0.68369 0.52686 0.0
Tb60 Tb 0.87083 0.38734 0.51988 0.0
C61 C 0.9344 0.37731 0.44307 0.0
Tb62 Tb 1.0009 0.37868 0.51329 0.0
O63 O 0.88673 0.41817 0.54625 0.0
O64 O 0.94634 0.40248 0.50785 0.0
O65 O 0.8837 0.37946 0.46113 0.0
C66 C 0.11868 0.37993 0.51652 0.0
O67 O 0.98633 0.37865 0.45884 0.0
C68 C 0.93129 0.3477 0.5052 0.0
C69 C 0.94266 0.38964 0.58975 0.0
O70 O 0.08682 0.36407 0.51015 0.0
O71 O 0.08424 0.39515 0.52126 0.0
O72 O 0.98176 0.34706 0.48923 0.0
O73 O 0.92506 0.36453 0.52649 0.0
O74 O 0.9912 0.3898 0.57091 0.0
O75 O 0.89008 0.38568 0.57427 0.0
C76 C 0.75311 0.38551 0.51646 0.0
O77 O 0.78388 0.40123 0.53044 0.0
O78 O 0.78861 0.37074 0.50418 0.0
C79 C 0.93695 0.41887 0.53072 0.0
Tb80 Tb 0.50481 0.88003 0.01773 0.0
C81 C 0.56963 0.88916 0.0893 0.0
Tb82 Tb 0.64147 0.88363 0.0169 0.0
O83 O 0.5146 0.85254 0.03434 0.0
O84 O 0.57845 0.86082 0.00332 0.0
O85 O 0.52215 0.89339 0.07326 0.0
C86 C 0.75634 0.87548 0.01715 0.0
O87 O 0.61811 0.88168 0.07114 0.0
C88 C 0.59451 0.91885 0.02613 0.0
C89 C 0.56938 0.88085 0.94594 0.0
O90 O 0.72619 0.88573 0.0442 0.0
O91 O 0.72166 0.86957 0.9898 0.0
O92 O 0.65076 0.91541 0.02441 0.0
O93 O 0.56844 0.9026 0.02269 0.0
O94 O 0.62246 0.87971 0.95998 0.0
O95 O 0.51965 0.88288 0.96452 0.0
C96 C 0.38801 0.88113 0.01204 0.0
O97 O 0.42235 0.86786 0.99205 0.0
O98 O 0.4195 0.89394 0.03513 0.0
C99 C 0.56617 0.84837 0.01985 0.0
Tb100 Tb 0.36493 0.14718 0.02138 0.0
C101 C 0.43792 0.14945 0.09184 0.0
Tb102 Tb 0.50162 0.15045 0.02002 0.0
O103 O 0.35501 0.11534 0.01313 0.0
O104 O 0.43752 0.12799 0.01479 0.0
O105 O 0.38486 0.15119 0.07826 0.0
C106 C 0.61836 0.14902 0.02544 0.0
O107 O 0.4872 0.14694 0.07279 0.0
C108 C 0.44049 0.18241 0.01912 0.0
C109 C 0.43611 0.14188 0.9488 0.0
O110 O 0.58429 0.16213 0.04605 0.0
O111 O 0.58666 0.13658 0.00185 0.0
O112 O 0.4919 0.17828 0.00436 0.0
O113 O 0.42849 0.16976 0.03524 0.0
O114 O 0.48362 0.1374 0.96448 0.0
O115 O 0.388 0.14946 0.96728 0.0
C116 C 0.25015 0.15553 0.02173 0.0
O117 O 0.28074 0.14643 0.99397 0.0
O118 O 0.28437 0.1602 0.04948 0.0
C119 C 0.41118 0.11177 0.01115 0.0
Tb120 Tb 0.50337 0.15139 0.52423 0.0
C121 C 0.56438 0.14288 0.45071 0.0
Tb122 Tb 0.64115 0.14731 0.52083 0.0
O123 O 0.50846 0.17947 0.50932 0.0
O124 O 0.57827 0.17016 0.53487 0.0
O125 O 0.51762 0.13898 0.46792 0.0
C126 C 0.75646 0.1545 0.52036 0.0
O127 O 0.6148 0.14949 0.46735 0.0
C128 C 0.59247 0.11243 0.51316 0.0
C129 C 0.57384 0.15088 0.59417 0.0
O130 O 0.72662 0.14345 0.494 0.0
O131 O 0.72113 0.16191 0.54695 0.0
O132 O 0.64885 0.1154 0.5129 0.0
O133 O 0.56746 0.12892 0.51756 0.0
O134 O 0.62583 0.15121 0.57825 0.0
O135 O 0.52249 0.14942 0.57746 0.0
C136 C 0.38739 0.14882 0.53157 0.0
O137 O 0.42067 0.16272 0.55075 0.0
O138 O 0.41951 0.13622 0.50841 0.0
C139 C 0.56285 0.18281 0.51935 0.0
Tb140 Tb 0.36562 0.88394 0.51727 0.0
C141 C 0.43683 0.88148 0.44594 0.0
Tb142 Tb 0.50262 0.88052 0.51718 0.0
O143 O 0.35596 0.91579 0.52557 0.0
O144 O 0.4384 0.90296 0.52294 0.0
O145 O 0.38398 0.88032 0.46032 0.0
C146 C 0.61932 0.8819 0.51115 0.0
O147 O 0.48688 0.88346 0.46412 0.0
C148 C 0.44181 0.84873 0.51925 0.0
C149 C 0.43842 0.8891 0.58911 0.0
O150 O 0.58525 0.8685 0.49135 0.0
O151 O 0.58761 0.8947 0.53421 0.0
O152 O 0.49359 0.85286 0.53338 0.0
O153 O 0.42918 0.86131 0.50306 0.0
O154 O 0.48561 0.89348 0.57292 0.0
O155 O 0.38975 0.8817 0.57117 0.0
C156 C 0.25085 0.87568 0.51764 0.0
O157 O 0.2809 0.8859 0.5447 0.0
O158 O 0.28559 0.86984 0.49023 0.0
C159 C 0.41219 0.91924 0.52699 0.0
C160 C 0.34467 0.39345 0.9919 0.0
C161 C 0.31346 0.38139 0.00892 0.0
C162 C 0.40622 0.39294 0.99069 0.0
C163 C 0.53518 0.36272 0.00207 0.0
H164 H 0.61929 0.41215 0.01492 0.0
C165 C 0.786 0.39607 0.03369 0.0
C166 C 0.8182 0.38061 0.01101 0.0
C167 C 0.72444 0.39609 0.03246 0.0
C168 C 0.59655 0.39823 0.01159 0.0
H169 H 0.32158 0.35921 0.03776 0.0
H170 H 0.42915 0.35856 0.03639 0.0
H171 H 0.51209 0.41211 0.01526 0.0
H172 H 0.81185 0.3532 0.96892 0.0
H173 H 0.7044 0.35339 0.96612 0.0
H174 H 0.61967 0.34894 0.99966 0.0
C175 C 0.4063 0.36819 0.02338 0.0
C176 C 0.53498 0.39817 0.01128 0.0
C177 C 0.3447 0.36863 0.02437 0.0
C178 C 0.78795 0.36526 0.98681 0.0
C179 C 0.72641 0.36532 0.98541 0.0
C180 C 0.59678 0.3628 0.00256 0.0
C181 C 0.43787 0.38043 0.0067 0.0
C182 C 0.50348 0.38042 0.00654 0.0
C183 C 0.69384 0.38068 0.00835 0.0
C184 C 0.62826 0.38056 0.00738 0.0
H185 H 0.32154 0.40336 0.97961 0.0
H186 H 0.42896 0.4023 0.97707 0.0
H187 H 0.51244 0.34875 0.99795 0.0
H188 H 0.80835 0.40805 0.0527 0.0
H189 H 0.70085 0.408 0.05089 0.0
C190 C 0.21991 0.63574 0.01232 0.0
C191 C 0.18767 0.65134 0.0346 0.0
C192 C 0.28148 0.63578 0.01351 0.0
C193 C 0.4094 0.63394 0.03469 0.0
H194 H 0.49326 0.68339 0.04724 0.0
C195 C 0.66094 0.63914 0.05577 0.0
C196 C 0.69242 0.65101 0.03848 0.0
C197 C 0.59938 0.63961 0.0566 0.0
C198 C 0.4706 0.66942 0.04343 0.0
H199 H 0.19395 0.67906 0.07595 0.0
H200 H 0.30136 0.67896 0.07873 0.0
H201 H 0.38607 0.68308 0.04502 0.0
H202 H 0.68476 0.67281 0.00879 0.0
H203 H 0.57719 0.67337 0.0095 0.0
H204 H 0.49393 0.62017 0.03183 0.0
C205 C 0.27941 0.66688 0.05974 0.0
C206 C 0.40902 0.66928 0.04264 0.0
C207 C 0.21788 0.66689 0.05836 0.0
C208 C 0.66144 0.66355 0.0224 0.0
C209 C 0.59983 0.66394 0.02301 0.0
C210 C 0.47097 0.63406 0.03529 0.0
C211 C 0.31204 0.65137 0.03721 0.0
C212 C 0.37762 0.65154 0.03825 0.0
C213 C 0.56799 0.65187 0.03992 0.0
C214 C 0.50238 0.65181 0.03967 0.0
H215 H 0.19758 0.62361 0.99365 0.0
H216 H 0.30512 0.62374 0.99541 0.0
H217 H 0.38673 0.62004 0.03169 0.0
H218 H 0.68388 0.62941 0.06853 0.0
H219 H 0.57642 0.63039 0.07042 0.0
C220 C 0.78903 0.67003 0.547 0.0
C221 C 0.82054 0.65217 0.53716 0.0
C222 C 0.72745 0.66995 0.54775 0.0
C223 C 0.60027 0.64058 0.55834 0.0
H224 H 0.5147 0.67149 0.50627 0.0
C225 C 0.34841 0.63341 0.53921 0.0
C226 C 0.31608 0.65016 0.53774 0.0
C227 C 0.40996 0.63391 0.53996 0.0
C228 C 0.53767 0.66305 0.52154 0.0
H229 H 0.81296 0.62026 0.52099 0.0
H230 H 0.70495 0.6201 0.5232 0.0
H231 H 0.62208 0.67202 0.50673 0.0
H232 H 0.32213 0.68071 0.53674 0.0
H233 H 0.42954 0.68196 0.53965 0.0
H234 H 0.51643 0.63201 0.57418 0.0
C235 C 0.72796 0.63413 0.53002 0.0
C236 C 0.59926 0.66328 0.52157 0.0
C237 C 0.78958 0.63422 0.52864 0.0
C238 C 0.34619 0.66755 0.53765 0.0
C239 C 0.40779 0.66818 0.53902 0.0
C240 C 0.53866 0.6406 0.55885 0.0
C241 C 0.69637 0.652 0.53929 0.0
C242 C 0.6311 0.65196 0.53978 0.0
C243 C 0.44062 0.65131 0.5399 0.0
C244 C 0.50641 0.65173 0.54024 0.0
H245 H 0.81193 0.68407 0.55365 0.0
H246 H 0.70408 0.68391 0.55521 0.0
H247 H 0.62388 0.63189 0.57292 0.0
H248 H 0.32616 0.61976 0.53904 0.0
H249 H 0.43339 0.6205 0.53989 0.0
C250 C 0.65885 0.36652 0.50266 0.0
C251 C 0.68821 0.38464 0.51548 0.0
C252 C 0.59721 0.3658 0.50244 0.0
C253 C 0.46537 0.39667 0.50377 0.0
H254 H 0.38533 0.35636 0.53706 0.0
C255 C 0.21374 0.39855 0.52674 0.0
C256 C 0.18361 0.38045 0.51711 0.0
C257 C 0.27537 0.39897 0.52669 0.0
C258 C 0.40691 0.36757 0.52723 0.0
H259 H 0.67664 0.41618 0.53803 0.0
H260 H 0.56912 0.41496 0.53761 0.0
H261 H 0.49273 0.35701 0.53571 0.0
H262 H 0.19378 0.34863 0.49978 0.0
H263 H 0.30123 0.34931 0.49889 0.0
H264 H 0.37979 0.40715 0.49492 0.0
C265 C 0.59351 0.40133 0.52748 0.0
C266 C 0.4685 0.36794 0.5265 0.0
C267 C 0.65504 0.40202 0.52789 0.0
C268 C 0.21602 0.36279 0.5075 0.0
C269 C 0.2776 0.3632 0.50721 0.0
C270 C 0.4038 0.39624 0.50429 0.0
C271 C 0.56387 0.38321 0.51484 0.0
C272 C 0.49842 0.38254 0.51489 0.0
C273 C 0.30811 0.3813 0.51676 0.0
C274 C 0.37374 0.38172 0.51614 0.0
H275 H 0.6835 0.3529 0.49297 0.0
H276 H 0.57563 0.35164 0.49224 0.0
H277 H 0.48715 0.40795 0.4942 0.0
H278 H 0.1897 0.41238 0.53439 0.0
H279 H 0.29732 0.41317 0.53475 0.0
C280 C 0.85388 0.88341 0.04651 0.0
C281 C 0.8208 0.87315 0.01679 0.0
C282 C 0.91531 0.88283 0.04542 0.0
C283 C 0.03957 0.87288 0.98137 0.0
H284 H 0.13084 0.87507 0.06655 0.0
C285 C 0.29427 0.8668 0.98286 0.0
C286 C 0.32323 0.88059 0.01068 0.0
C287 C 0.23286 0.86539 0.98265 0.0
C288 C 0.10584 0.87459 0.04264 0.0
H289 H 0.82542 0.85364 0.9631 0.0
H290 H 0.93314 0.85209 0.96143 0.0
H291 H 0.02395 0.872 0.06814 0.0
H292 H 0.31125 0.90387 0.05981 0.0
H293 H 0.20367 0.90129 0.05964 0.0
H294 H 0.12199 0.87519 0.95585 0.0
C295 C 0.9117 0.86101 0.98531 0.0
C296 C 0.0446 0.87286 0.04351 0.0
C297 C 0.85008 0.86175 0.98631 0.0
C298 C 0.28987 0.89314 0.03804 0.0
C299 C 0.22848 0.89157 0.03806 0.0
C300 C 0.10093 0.87439 0.98041 0.0
C301 C 0.94509 0.87179 0.01469 0.0
C302 C 0.01058 0.87223 0.01302 0.0
C303 C 0.19944 0.87759 0.01049 0.0
C304 C 0.13455 0.87549 0.01115 0.0
H305 H 0.83233 0.8924 0.07029 0.0
H306 H 0.93937 0.89157 0.06834 0.0
H307 H 0.01482 0.87275 0.95755 0.0
H308 H 0.31912 0.85695 0.96147 0.0
H309 H 0.2116 0.85442 0.96119 0.0
C310 C 0.15297 0.14796 0.99179 0.0
C311 C 0.18558 0.15747 0.02226 0.0
C312 C 0.09156 0.14778 0.99303 0.0
C313 C 0.96213 0.17277 0.04039 0.0
H314 H 0.88771 0.12144 0.00548 0.0
C315 C 0.71226 0.16232 0.05569 0.0
C316 C 0.68311 0.14923 0.02705 0.0
C317 C 0.77374 0.16329 0.0564 0.0
C318 C 0.9076 0.13593 0.01489 0.0
H319 H 0.18008 0.17493 0.07747 0.0
H320 H 0.072 0.17493 0.07947 0.0
H321 H 0.99459 0.12411 0.00339 0.0
H322 H 0.69471 0.12684 0.97677 0.0
H323 H 0.80198 0.12886 0.97734 0.0
H324 H 0.87527 0.18472 0.05106 0.0
C325 C 0.09414 0.16752 0.05475 0.0
C326 C 0.96885 0.13743 0.01379 0.0
C327 C 0.15579 0.1675 0.05363 0.0
C328 C 0.71628 0.13696 0.99928 0.0
C329 C 0.77775 0.13808 0.99976 0.0
C330 C 0.90073 0.17132 0.0411 0.0
C331 C 0.06159 0.15729 0.02465 0.0
C332 C 0.99666 0.15586 0.0264 0.0
C333 C 0.80728 0.15133 0.02824 0.0
C334 C 0.87267 0.15287 0.02826 0.0
H335 H 0.17493 0.14013 0.96725 0.0
H336 H 0.06743 0.14001 0.96933 0.0
H337 H 0.98256 0.18716 0.05004 0.0
H338 H 0.68753 0.17188 0.07752 0.0
H339 H 0.79492 0.1734 0.07907 0.0
C340 C 0.29022 0.13505 0.50714 0.0
C341 C 0.3227 0.14857 0.53347 0.0
C342 C 0.22874 0.1359 0.50725 0.0
C343 C 0.1053 0.17025 0.54193 0.0
H344 H 0.01168 0.12247 0.51191 0.0
C345 C 0.84987 0.16812 0.55138 0.0
C346 C 0.82106 0.15616 0.52129 0.0
C347 C 0.9114 0.16804 0.55345 0.0
C348 C 0.03736 0.13594 0.5201 0.0
H349 H 0.31704 0.17313 0.58121 0.0
H350 H 0.20954 0.17429 0.58211 0.0
H351 H 0.1184 0.11999 0.51601 0.0
H352 H 0.83336 0.13523 0.46934 0.0
H353 H 0.94069 0.13501 0.47301 0.0
H354 H 0.0237 0.18613 0.54647 0.0
C355 C 0.23135 0.16335 0.56083 0.0
C356 C 0.09848 0.13453 0.52239 0.0
C357 C 0.29285 0.16259 0.56051 0.0
C358 C 0.85457 0.14457 0.49288 0.0
C359 C 0.91588 0.14433 0.49507 0.0
C360 C 0.04404 0.17164 0.53996 0.0
C361 C 0.19856 0.15019 0.53391 0.0
C362 C 0.13328 0.15167 0.53302 0.0
C363 C 0.94484 0.15582 0.52559 0.0
C364 C 0.0096 0.15449 0.52868 0.0
H365 H 0.31234 0.12417 0.48588 0.0
H366 H 0.20501 0.12571 0.48583 0.0
H367 H 0.13078 0.18377 0.54967 0.0
H368 H 0.82486 0.17717 0.57364 0.0
H369 H 0.9327 0.17699 0.57731 0.0
C370 C 0.71335 0.8676 0.48213 0.0
C371 C 0.68412 0.88146 0.50977 0.0
C372 C 0.77476 0.8662 0.48204 0.0
C373 C 0.90095 0.87555 0.54238 0.0
H374 H 0.99326 0.87324 0.45742 0.0
C375 C 0.1531 0.8838 0.54684 0.0
C376 C 0.18636 0.87342 0.51723 0.0
C377 C 0.09167 0.88335 0.54562 0.0
C378 C 0.96815 0.87349 0.48122 0.0
H379 H 0.69562 0.90492 0.55867 0.0
H380 H 0.80319 0.90238 0.55872 0.0
H381 H 0.88617 0.87582 0.45537 0.0
H382 H 0.18208 0.85385 0.4636 0.0
H383 H 0.07436 0.8525 0.46172 0.0
H384 H 0.98237 0.87292 0.5682 0.0
C385 C 0.7786 0.89258 0.53719 0.0
C386 C 0.90683 0.8751 0.48005 0.0
C387 C 0.71721 0.89412 0.53704 0.0
C388 C 0.15727 0.86203 0.48674 0.0
C389 C 0.09565 0.86142 0.4856 0.0
C390 C 0.96214 0.87372 0.54346 0.0
C391 C 0.8079 0.87849 0.50984 0.0
C392 C 0.87275 0.87636 0.51074 0.0
C393 C 0.06208 0.87233 0.51486 0.0
C394 C 0.99663 0.87291 0.51301 0.0
H395 H 0.68871 0.85764 0.46082 0.0
H396 H 0.79624 0.85516 0.46075 0.0
H397 H 0.87559 0.87614 0.56625 0.0
H398 H 0.17452 0.8928 0.57063 0.0
H399 H 0.06748 0.89219 0.56844 0.0
C400 C 0.93262 0.57656 0.98524 0.0
C401 C 0.95782 0.59338 0.00878 0.0
C402 C 0.94641 0.55765 0.98786 0.0
C403 C 0.99798 0.53242 0.0536 0.0
H404 H 0.01223 0.48703 0.97084 0.0
C405 C 0.07222 0.45533 0.06278 0.0
C406 C 0.04716 0.43852 0.03914 0.0
C407 C 0.0586 0.47424 0.06013 0.0
C408 C 0.00747 0.4995 0.99425 0.0
H409 H 0.0196 0.60359 0.05232 0.0
H410 H 0.04439 0.57046 0.0567 0.0
H411 H 0.99954 0.5199 0.96256 0.0
H412 H 0.98576 0.42833 0.99538 0.0
H413 H 0.9612 0.46147 0.99097 0.0
H414 H 0.00585 0.51202 0.08529 0.0
C415 C 0.01312 0.57193 0.03659 0.0
C416 C 1.00048 0.51838 0.98949 0.0
C417 C 0.99943 0.59088 0.03386 0.0
C418 C 0.00583 0.44103 0.01392 0.0
C419 C 0.99228 0.45999 0.01118 0.0
C420 C 0.00495 0.51355 0.05836 0.0
C421 C 0.98574 0.55511 0.01413 0.0
C422 C 0.99564 0.53509 0.01911 0.0
C423 C 0.01956 0.47681 0.03373 0.0
C424 C 0.00978 0.49684 0.02874 0.0
H425 H 0.90042 0.57805 0.96561 0.0
H426 H 0.92419 0.54509 0.97028 0.0
H427 H 0.99323 0.5449 0.07701 0.0
H428 H 0.10422 0.45383 0.08251 0.0
H429 H 0.08074 0.4868 0.07778 0.0
C430 C 0.94599 0.45513 0.55614 0.0
C431 C 0.96247 0.43801 0.52966 0.0
C432 C 0.9613 0.4738 0.55314 0.0
C433 C 0.99913 0.49956 0.48546 0.0
H434 H 0.03321 0.54302 0.56884 0.0
C435 C 0.07075 0.57772 0.47912 0.0
C436 C 0.0491 0.59404 0.50564 0.0
C437 C 0.0582 0.55846 0.48032 0.0
C438 C 0.023 0.53109 0.54536 0.0
H439 H 0.01038 0.42687 0.48005 0.0
H440 H 0.03829 0.45971 0.47494 0.0
H441 H 0.02291 0.50969 0.57517 0.0
H442 H 0.99462 0.6031 0.55309 0.0
H443 H 0.97238 0.56937 0.55517 0.0
H444 H 0.99977 0.52108 0.45567 0.0
C445 C 0.01255 0.45865 0.49779 0.0
C446 C 0.01731 0.51195 0.54894 0.0
C447 C 0.99719 0.43986 0.50087 0.0
C448 C 0.01196 0.59078 0.53233 0.0
C449 C 0.99974 0.57148 0.53369 0.0
C450 C 0.00517 0.51873 0.48185 0.0
C451 C 0.9937 0.47586 0.52357 0.0
C452 C 0.0047 0.49595 0.51912 0.0
C453 C 0.02398 0.55512 0.5082 0.0
C454 C 0.01662 0.53474 0.51183 0.0
H455 H 0.9192 0.45414 0.57865 0.0
H456 H 0.9454 0.48664 0.57331 0.0
H457 H 0.98849 0.48767 0.46202 0.0
H458 H 0.09945 0.57983 0.4582 0.0
H459 H 0.0777 0.54621 0.46036 0.0
C460 C 0.60676 0.95499 0.04052 0.0
C461 C 0.56946 0.93856 0.02896 0.0
C462 C 0.58877 0.97365 0.03902 0.0
C463 C 0.46035 1.00407 0.0306 0.0
H464 H 0.57746 0.03451 0.99567 0.0
C465 C 0.39837 0.07564 0.99654 0.0
C466 C 0.43594 0.092 0.00807 0.0
C467 C 0.41617 0.05692 0.99786 0.0
C468 C 0.54451 0.02632 0.00585 0.0
H469 H 0.48306 0.92878 0.008 0.0
H470 H 0.45099 0.96176 0.0051 0.0
H471 H 0.60239 1.00173 0.00106 0.0
H472 H 0.5226 0.1016 0.0288 0.0
H473 H 0.55431 0.06854 0.03139 0.0
H474 H 0.40248 0.02866 0.03542 0.0
C475 C 0.49432 0.96011 0.01555 0.0
C476 C 0.55868 1.00751 0.00892 0.0
C477 C 0.51243 0.94127 0.01725 0.0
C478 C 0.49302 0.08917 0.01957 0.0
C479 C 0.51093 0.07028 0.02109 0.0
C480 C 0.44618 0.02289 0.02753 0.0
C481 C 0.53302 0.97641 0.02562 0.0
C482 C 0.51685 0.99617 0.02145 0.0
C483 C 0.47199 0.05405 0.01104 0.0
C484 C 0.48803 0.03423 0.01504 0.0
H485 H 0.65083 0.95336 0.05004 0.0
H486 H 0.61906 0.98591 0.04794 0.0
H487 H 0.42741 0.99588 0.04079 0.0
H488 H 0.35424 0.07737 0.98721 0.0
H489 H 0.38568 0.04472 0.98897 0.0
C490 C 0.5112 0.09049 0.52483 0.0
C491 C 0.5666 0.09287 0.51053 0.0
C492 C 0.49317 0.07167 0.52673 0.0
C493 C 0.55813 0.02363 0.52892 0.0
H494 H 0.39951 1.00344 0.50871 0.0
C495 C 0.49296 0.94191 0.5175 0.0
C496 C 0.43706 0.93904 0.53065 0.0
C497 C 0.51037 0.96092 0.51643 0.0
C498 C 0.44393 1.00895 0.51487 0.0
H499 H 0.64482 0.07758 0.48502 0.0
H500 H 0.61309 0.04509 0.4875 0.0
H501 H 0.42335 0.03634 0.50349 0.0
H502 H 0.35721 0.95366 0.55502 0.0
H503 H 0.38796 0.98653 0.55416 0.0
H504 H 0.57876 0.99625 0.5403 0.0
C505 C 0.58416 0.05756 0.49826 0.0
C506 C 0.45747 0.02782 0.51188 0.0
C507 C 0.60208 0.07618 0.49655 0.0
C508 C 0.40039 0.95544 0.54437 0.0
C509 C 0.41776 0.97428 0.54357 0.0
C510 C 0.54458 1.00476 0.53195 0.0
C511 C 0.53036 0.0551 0.51428 0.0
C512 C 0.51481 0.03535 0.51868 0.0
C513 C 0.47215 0.97723 0.52865 0.0
C514 C 0.4873 0.99718 0.52499 0.0
H515 H 0.4833 0.10318 0.53597 0.0
H516 H 0.45134 0.07023 0.5392 0.0
H517 H 0.60259 0.02912 0.53495 0.0
H518 H 0.52178 0.92944 0.50656 0.0
H519 H 0.55263 0.9627 0.50473 0.0
C520 C 0.15533 0.32818 0.99943 0.0
C521 C 0.10454 0.33193 0.02091 0.0
C522 C 0.19201 0.31217 0.99926 0.0
C523 C 0.23006 0.27703 0.05155 0.0
H524 H 0.29686 0.24611 0.96182 0.0
C525 C 0.35141 0.20333 0.03951 0.0
C526 C 0.40248 0.19939 0.01833 0.0
C527 C 0.31537 0.21944 0.03944 0.0
C528 C 0.27917 0.25471 0.98718 0.0
H529 H 0.05218 0.32189 0.05907 0.0
H530 H 0.11581 0.29371 0.05851 0.0
H531 H 0.23342 0.27423 0.96276 0.0
H532 H 0.45601 0.20917 0.98036 0.0
H533 H 0.39337 0.23756 0.98046 0.0
H534 H 0.27572 0.25751 0.07597 0.0
C535 C 0.12784 0.3033 0.04212 0.0
C536 C 0.24272 0.27087 0.98773 0.0
C537 C 0.09114 0.31936 0.04229 0.0
C538 C 0.4168 0.21186 0.99693 0.0
C539 C 0.3807 0.22804 0.99684 0.0
C540 C 0.26648 0.26088 0.051 0.0
C541 C 0.17871 0.29945 0.0205 0.0
C542 C 0.2176 0.28223 0.01993 0.0
C543 C 0.32961 0.23209 0.01826 0.0
C544 C 0.29144 0.24947 0.0188 0.0
H545 H 0.16662 0.33756 0.98253 0.0
H546 H 0.23116 0.30987 0.98267 0.0
H547 H 0.21237 0.28562 0.07693 0.0
H548 H 0.33954 0.19407 0.0565 0.0
H549 H 0.27603 0.22189 0.05587 0.0
C550 C 0.65482 0.82715 0.99992 0.0
C551 C 0.60416 0.83153 0.0214 0.0
C552 C 0.69098 0.81121 1.00089 0.0
C553 C 0.69102 0.76395 0.02548 0.0
H554 H 0.86081 0.76903 0.02073 0.0
C555 C 0.85094 0.70375 0.04557 0.0
C556 C 0.90121 0.69958 0.02368 0.0
C557 C 0.81437 0.71971 0.04519 0.0
C558 C 0.81346 0.76727 0.02163 0.0
H559 H 0.55144 0.82269 0.06079 0.0
H560 H 0.61482 0.7948 0.06271 0.0
H561 H 0.79806 0.79723 0.02124 0.0
H562 H 0.95258 0.70872 0.98409 0.0
H563 H 0.88859 0.7366 0.98324 0.0
H564 H 0.70649 0.73397 0.02586 0.0
C565 C 0.62639 0.80359 0.04483 0.0
C566 C 0.77742 0.78347 0.02198 0.0
C567 C 0.59021 0.81961 0.04387 0.0
C568 C 0.9142 0.71166 0.00134 0.0
C569 C 0.87767 0.72767 0.00101 0.0
C570 C 0.72709 0.74774 0.02515 0.0
C571 C 0.67729 0.79919 0.02331 0.0
C572 C 0.71569 0.78202 0.02381 0.0
C573 C 0.82732 0.73194 0.02301 0.0
C574 C 0.78881 0.74917 0.02315 0.0
H575 H 0.66607 0.83586 0.98187 0.0
H576 H 0.72913 0.8081 0.98348 0.0
H577 H 0.64368 0.76218 0.02633 0.0
H578 H 0.84018 0.69482 0.06336 0.0
H579 H 0.77652 0.72268 0.06286 0.0
C580 C 0.09439 0.71233 0.5032 0.0
C581 C 0.10699 0.70043 0.5259 0.0
C582 C 0.13108 0.72824 0.50257 0.0
C583 C 0.24427 0.7617 0.55611 0.0
H584 H 0.27953 0.77286 0.46613 0.0
C585 C 0.41822 0.81999 0.54339 0.0
C586 C 0.40402 0.83188 0.52093 0.0
C587 C 0.3823 0.80395 0.54445 0.0
C588 C 0.26965 0.77009 0.49156 0.0
H589 H 0.16738 0.69592 0.566 0.0
H590 H 0.23212 0.72335 0.5644 0.0
H591 H 0.2165 0.74493 0.46683 0.0
H592 H 0.34165 0.83624 0.48175 0.0
H593 H 0.2784 0.80862 0.48402 0.0
H594 H 0.29756 0.78688 0.5808 0.0
C595 C 0.19361 0.72061 0.54734 0.0
C596 C 0.23342 0.75406 0.49196 0.0
C597 C 0.15687 0.70474 0.548 0.0
C598 C 0.35331 0.82747 0.4996 0.0
C599 C 0.31746 0.81147 0.50061 0.0
C600 C 0.28059 0.77773 0.5557 0.0
C601 C 0.18117 0.73262 0.52468 0.0
C602 C 0.22011 0.74966 0.52424 0.0
C603 C 0.33155 0.79943 0.52292 0.0
C604 C 0.29361 0.78218 0.52343 0.0
H605 H 0.0561 0.70936 0.48595 0.0
H606 H 0.11966 0.7373 0.48512 0.0
H607 H 0.2343 0.75897 0.58154 0.0
H608 H 0.45716 0.82307 0.56009 0.0
H609 H 0.39481 0.79488 0.56168 0.0
C610 C 0.9086 0.31138 0.48477 0.0
C611 C 0.89297 0.33057 0.50454 0.0
C612 C 0.8728 0.29522 0.48534 0.0
C613 C 0.74707 0.28111 0.53662 0.0
H614 H 0.74141 0.23479 0.4551 0.0
C615 C 0.57406 0.21798 0.51807 0.0
C616 C 0.59942 0.19941 0.51524 0.0
C617 C 0.60938 0.23395 0.51587 0.0
C618 C 0.7427 0.24766 0.47802 0.0
H619 H 0.82795 0.34786 0.54067 0.0
H620 H 0.76343 0.32026 0.53946 0.0
H621 H 0.80296 0.26283 0.45256 0.0
H622 H 0.68034 0.18263 0.50577 0.0
H623 H 0.74211 0.21036 0.50096 0.0
H624 H 0.68458 0.26603 0.56123 0.0
C625 C 0.80417 0.31729 0.52446 0.0
C626 C 0.7784 0.26372 0.4768 0.0
C627 C 0.84072 0.3333 0.52462 0.0
C628 C 0.66017 0.19689 0.50888 0.0
C629 C 0.69526 0.21268 0.50576 0.0
C630 C 0.71034 0.26526 0.53743 0.0
C631 C 0.81982 0.29791 0.50517 0.0
C632 C 0.7814 0.28071 0.50617 0.0
C633 C 0.67031 0.23142 0.5097 0.0
C634 C 0.70804 0.24838 0.50823 0.0
H635 H 0.94902 0.30881 0.46934 0.0
H636 H 0.88742 0.2806 0.47069 0.0
H637 H 0.74898 0.29353 0.56025 0.0
H638 H 0.52722 0.22027 0.52289 0.0
H639 H 0.58915 0.24826 0.51884 0.0
C640 C 0.01355 0.40191 0.14853 0.0
C641 C 0.05908 0.39042 0.1286 0.0
C642 C 1.00037 0.40077 0.18288 0.0
C643 C 0.05549 0.38404 0.25885 0.0
H644 H 0.88892 0.37984 0.27857 0.0
C645 C 0.98066 0.36346 0.38398 0.0
C646 C 0.93559 0.37494 0.40429 0.0
C647 C 0.9921 0.36431 0.34929 0.0
C648 C 0.9355 0.38118 0.27361 0.0
H649 H 0.12857 0.36949 0.12969 0.0
H650 H 0.1055 0.36745 0.1901 0.0
H651 H 0.91995 0.38449 0.22137 0.0
H652 H 0.86486 0.39549 0.40379 0.0
H653 H 0.88506 0.39716 0.3427 0.0
H654 H 0.07112 0.38079 0.31107 0.0
C655 C 0.08014 0.37741 0.17907 0.0
C656 C 0.95336 0.38387 0.24088 0.0
C657 C 0.09353 0.37861 0.14455 0.0
C658 C 0.89945 0.38634 0.38847 0.0
C659 C 0.91128 0.38735 0.35361 0.0
C660 C 0.03764 0.38137 0.29157 0.0
C661 C 0.03223 0.38806 0.19816 0.0
C662 C 0.01358 0.38533 0.23312 0.0
C663 C 0.95917 0.37686 0.33417 0.0
C664 C 0.97746 0.3798 0.29929 0.0
H665 H 0.98664 0.41135 0.13711 0.0
H666 H 0.96427 0.40956 0.19721 0.0
H667 H 0.10208 0.38538 0.25392 0.0
H668 H 0.00885 0.3544 0.39553 0.0
H669 H 0.02813 0.3556 0.33471 0.0
C670 C 1.00048 0.66598 0.15885 0.0
C671 C 0.95027 0.65671 0.14069 0.0
C672 C 0.01213 0.66534 0.19362 0.0
C673 C 0.9478 0.6541 0.27317 0.0
H674 H 0.11085 0.64351 0.29188 0.0
C675 C 0.01395 0.63267 0.39935 0.0
C676 C 0.06191 0.64284 0.41885 0.0
C677 C 1.00249 0.63383 0.36486 0.0
C678 C 0.06531 0.64665 0.28716 0.0
H679 H 0.8713 0.64028 0.14516 0.0
H680 H 0.89202 0.63888 0.20619 0.0
H681 H 0.08339 0.64747 0.2337 0.0
H682 H 0.13738 0.66136 0.41678 0.0
H683 H 0.11743 0.66334 0.35595 0.0
H684 H 0.92973 0.65305 0.32657 0.0
C685 C 0.92213 0.64683 0.19356 0.0
C686 C 0.04948 0.64897 0.25388 0.0
C687 C 0.91014 0.64764 0.15867 0.0
C688 C 0.10027 0.6533 0.40232 0.0
C689 C 0.08873 0.65447 0.36759 0.0
C690 C 0.9636 0.65169 0.30639 0.0
C691 C 0.97417 0.65522 0.21101 0.0
C692 C 0.99055 0.65278 0.24651 0.0
C693 C 0.0387 0.64519 0.34896 0.0
C694 C 0.02249 0.6479 0.31371 0.0
H695 H 0.03182 0.67334 0.1458 0.0
H696 H 0.05166 0.67246 0.20662 0.0
H697 H 0.90224 0.65727 0.26856 0.0
H698 H 0.98399 0.62423 0.41113 0.0
H699 H 0.9645 0.62612 0.35086 0.0
C700 C 0.9908 0.62935 0.89798 0.0
C701 C 0.94444 0.64039 0.91784 0.0
C702 C 1.00258 0.63024 0.86333 0.0
C703 C 0.9428 0.64494 0.78647 0.0
H704 H 0.10775 0.6523 0.76678 0.0
C705 C 0.01214 0.66592 0.66041 0.0
C706 C 0.06019 0.65575 0.64098 0.0
C707 C 1.0003 0.66471 0.69485 0.0
C708 C 0.06164 0.65004 0.77169 0.0
H709 H 0.87199 0.66021 0.91631 0.0
H710 H 0.89259 0.66178 0.85534 0.0
H711 H 0.07904 0.64773 0.82438 0.0
H712 H 0.13534 0.63711 0.64293 0.0
H713 H 0.11433 0.63476 0.70343 0.0
H714 H 0.92534 0.64716 0.73377 0.0
C715 C 0.91972 0.65238 0.86671 0.0
C716 C 0.04513 0.64741 0.80468 0.0
C717 C 0.90778 0.65145 0.90155 0.0
C718 C 0.09823 0.64519 0.65743 0.0
C719 C 0.08605 0.64383 0.692 0.0
C720 C 0.95931 0.64752 0.75345 0.0
C721 C 0.96838 0.64224 0.84769 0.0
C722 C 0.98553 0.64484 0.81243 0.0
C723 C 0.0359 0.65313 0.71065 0.0
C724 C 0.0189 0.6502 0.74573 0.0
H725 H 0.01939 0.62047 0.90965 0.0
H726 H 0.03941 0.62186 0.84905 0.0
H727 H 0.89667 0.64275 0.79148 0.0
H728 H 0.98248 0.67442 0.64857 0.0
H729 H 0.96239 0.67253 0.70882 0.0
C730 C 1.00256 0.39968 0.64528 0.0
C731 C 0.95011 0.39157 0.62824 0.0
C732 C 0.01471 0.39905 0.68002 0.0
C733 C 0.94866 0.39114 0.76168 0.0
H734 H 0.10744 0.3751 0.77828 0.0
C735 C 0.00564 0.36894 0.88819 0.0
C736 C 0.05725 0.37688 0.90648 0.0
C737 C 0.9951 0.37028 0.85372 0.0
C738 C 0.06317 0.3798 0.77418 0.0
H739 H 0.86794 0.37727 0.63484 0.0
H740 H 0.88933 0.37606 0.69581 0.0
H741 H 0.08144 0.37942 0.72008 0.0
H742 H 0.13985 0.39153 0.90234 0.0
H743 H 0.12126 0.39398 0.84162 0.0
H744 H 0.9303 0.39144 0.8157 0.0
C745 C 0.92092 0.38301 0.68224 0.0
C746 C 0.04821 0.3823 0.74087 0.0
C747 C 0.9086 0.3837 0.64735 0.0
C748 C 0.09981 0.38523 0.8888 0.0
C749 C 0.08907 0.38666 0.85412 0.0
C750 C 0.9636 0.38863 0.79495 0.0
C751 C 0.97483 0.39024 0.69858 0.0
C752 C 0.99072 0.38794 0.73422 0.0
C753 C 0.03575 0.37968 0.83668 0.0
C754 C 0.0209 0.3828 0.80149 0.0
H755 H 0.03514 0.4061 0.63143 0.0
H756 H 0.05591 0.4052 0.69216 0.0
H757 H 0.90432 0.39578 0.7576 0.0
H758 H 0.97237 0.36212 0.9009 0.0
H759 H 0.95442 0.36426 0.84065 0.0
C760 C 0.59995 0.87993 0.14489 0.0
C761 C 0.56407 0.8909 0.12797 0.0
C762 C 0.58736 0.87936 0.17991 0.0
C763 C 0.49812 0.90401 0.26077 0.0
H764 H 0.50824 0.8528 0.27964 0.0
C765 C 0.40268 0.88931 0.38973 0.0
C766 C 0.4428 0.88018 0.40757 0.0
C767 C 0.41467 0.89013 0.35473 0.0
C768 C 0.50527 0.86722 0.27478 0.0
H769 H 0.48908 0.9108 0.13529 0.0
H770 H 0.46694 0.9096 0.19547 0.0
H771 H 0.54047 0.85642 0.22198 0.0
H772 H 0.52493 0.86384 0.40238 0.0
H773 H 0.54508 0.86497 0.34171 0.0
H774 H 0.46234 0.9147 0.31358 0.0
C775 C 0.50495 0.90151 0.18217 0.0
C776 C 0.52428 0.86934 0.24184 0.0
C777 C 0.51748 0.90208 0.1474 0.0
C778 C 0.49331 0.87107 0.38933 0.0
C779 C 0.50475 0.87162 0.35446 0.0
C780 C 0.47873 0.90185 0.29363 0.0
C781 C 0.53879 0.88981 0.19866 0.0
C782 C 0.52112 0.88778 0.23441 0.0
C783 C 0.4663 0.88148 0.33696 0.0
C784 C 0.48234 0.88344 0.30105 0.0
H785 H 0.63608 0.87113 0.13062 0.0
H786 H 0.615 0.87046 0.19205 0.0
H787 H 0.49568 0.9185 0.25621 0.0
H788 H 0.36364 0.89653 0.40329 0.0
H789 H 0.38403 0.89771 0.34174 0.0
C790 C 0.40202 0.14361 0.14956 0.0
C791 C 0.4451 0.15058 0.13012 0.0
C792 C 0.41395 0.14274 0.18452 0.0
C793 C 0.54168 0.14152 0.24387 0.0
H794 H 0.4246 0.15284 0.31927 0.0
C795 C 0.59661 0.15007 0.39345 0.0
C796 C 0.55646 0.14144 0.41226 0.0
C797 C 0.5841 0.15059 0.35841 0.0
C798 C 0.45768 0.14948 0.29837 0.0
H799 H 0.53258 0.16338 0.13278 0.0
H800 H 0.5524 0.16242 0.19335 0.0
H801 H 0.39798 0.15539 0.25995 0.0
H802 H 0.47316 0.12569 0.40818 0.0
H803 H 0.45194 0.12662 0.34766 0.0
H804 H 0.60151 0.13585 0.28247 0.0
C805 C 0.51042 0.15688 0.18154 0.0
C806 C 0.44233 0.15089 0.26435 0.0
C807 C 0.49882 0.15756 0.14681 0.0
C808 C 0.5049 0.1327 0.39478 0.0
C809 C 0.49239 0.1333 0.36006 0.0
C810 C 0.55709 0.14025 0.27793 0.0
C811 C 0.46892 0.14899 0.2006 0.0
C812 C 0.48422 0.147 0.23668 0.0
C813 C 0.53116 0.14258 0.34169 0.0
C814 C 0.51528 0.1442 0.30556 0.0
H815 H 0.36033 0.13809 0.13729 0.0
H816 H 0.38095 0.13654 0.19844 0.0
H817 H 0.57483 0.138 0.22304 0.0
H818 H 0.63656 0.15699 0.40615 0.0
H819 H 0.61485 0.15786 0.34488 0.0
C820 C 0.4854 0.12813 0.89004 0.0
C821 C 0.44142 0.14035 0.91022 0.0
C822 C 0.49884 0.1289 0.85549 0.0
C823 C 0.49063 0.16298 0.79878 0.0
H824 H 0.54043 0.11694 0.72403 0.0
C825 C 0.52373 0.16344 0.65251 0.0
C826 C 0.57028 0.1525 0.63273 0.0
C827 C 0.51236 0.16279 0.68734 0.0
C828 C 0.52756 0.12997 0.74483 0.0
H829 H 0.37485 0.16225 0.90918 0.0
H830 H 0.39761 0.16338 0.84816 0.0
H831 H 0.50475 0.11295 0.78081 0.0
H832 H 0.64282 0.13277 0.63416 0.0
H833 H 0.62274 0.13149 0.69569 0.0
H834 H 0.51272 0.17994 0.76255 0.0
C835 C 0.42243 0.15342 0.8595 0.0
C836 C 0.50676 0.12769 0.77734 0.0
C837 C 0.40881 0.15261 0.89426 0.0
C838 C 0.60702 0.14147 0.64901 0.0
C839 C 0.59507 0.14059 0.68398 0.0
C840 C 0.51116 0.16524 0.76624 0.0
C841 C 0.46865 0.14191 0.84005 0.0
C842 C 0.48795 0.14417 0.80474 0.0
C843 C 0.54688 0.15099 0.70324 0.0
C844 C 0.52972 0.14876 0.73884 0.0
H845 H 0.5112 0.11843 0.90147 0.0
H846 H 0.53493 0.11994 0.84158 0.0
H847 H 0.4778 0.17605 0.8195 0.0
H848 H 0.4947 0.17207 0.64056 0.0
H849 H 0.47466 0.17082 0.7012 0.0
C850 C 0.49213 0.90131 0.64676 0.0
C851 C 0.44451 0.89061 0.62768 0.0
C852 C 0.50473 0.90058 0.6814 0.0
C853 C 0.44461 0.88867 0.76061 0.0
H854 H 0.60857 0.87947 0.77957 0.0
C855 C 0.51161 0.87074 0.88992 0.0
C856 C 0.56272 0.87958 0.90763 0.0
C857 C 0.49921 0.87155 0.85533 0.0
C858 C 0.56277 0.88229 0.77493 0.0
H859 H 0.37093 0.87153 0.63085 0.0
H860 H 0.39271 0.87042 0.69201 0.0
H861 H 0.57995 0.88265 0.72101 0.0
H862 H 0.64226 0.89555 0.90255 0.0
H863 H 0.62014 0.89734 0.84174 0.0
H864 H 0.42733 0.88862 0.81456 0.0
C865 C 0.42035 0.87932 0.67981 0.0
C866 C 0.5463 0.88407 0.74132 0.0
C867 C 0.40775 0.87999 0.64486 0.0
C868 C 0.60273 0.88853 0.88939 0.0
C869 C 0.58991 0.88955 0.85463 0.0
C870 C 0.4611 0.88703 0.79428 0.0
C871 C 0.46996 0.8892 0.69804 0.0
C872 C 0.48701 0.88724 0.73377 0.0
C873 C 0.53718 0.88145 0.83754 0.0
C874 C 0.52035 0.88369 0.80183 0.0
H875 H 0.52098 0.90989 0.63457 0.0
H876 H 0.54237 0.90873 0.69501 0.0
H877 H 0.39878 0.89138 0.75578 0.0
H878 H 0.48034 0.86346 0.90314 0.0
H879 H 0.45924 0.86459 0.84271 0.0
loop_
_geom_bond_atom_site_label_1
_geom_bond_atom_site_label_2
_geom_bond_distance
_geom_bond_site_symmetry_2
_ccdc_geom_bond_type
Tb0 O3 2.450 1_655 S
Tb0 O4 2.596 1_655 S
Tb0 O5 2.374 1_655 S
Tb0 O13 2.343 1_655 S
Tb0 O15 2.353 1_654 S
Tb0 O17 2.427 1_554 S
Tb0 O18 2.513 . S
C1 O5 1.251 . S
C1 O7 1.263 . S
Tb2 O4 2.343 . S
Tb2 O7 2.353 . S
Tb2 O10 2.427 . S
Tb2 O11 2.513 1_554 S
Tb2 O12 2.453 . S
Tb2 O13 2.596 . S
Tb2 O14 2.374 1_554 S
O3 Tb0 2.450 1_455 S
O3 C19 1.252 . S
O4 Tb0 2.596 1_455 S
O4 Tb2 2.343 . S
O4 C19 1.259 . S
O5 Tb0 2.374 1_455 S
O5 C1 1.251 . S
C6 O10 1.275 . S
C6 O11 1.246 1_554 S
O7 C1 1.263 . S
O7 Tb2 2.353 . S
C8 O12 1.245 . S
C8 O13 1.259 . S
C9 O14 1.250 . S
C9 O15 1.263 . S
O10 Tb2 2.427 . S
O10 C6 1.275 . S
O11 Tb2 2.513 1_556 S
O11 C6 1.246 1_556 S
O12 Tb2 2.453 . S
O12 C8 1.245 . S
O13 Tb0 2.343 1_455 S
O13 Tb2 2.596 . S
O13 C8 1.259 . S
O14 Tb2 2.374 1_556 S
O14 C9 1.250 . S
O15 Tb0 2.353 1_456 S
O15 C9 1.263 . S
C16 O17 1.275 1_554 S
C16 O18 1.246 . S
O17 Tb0 2.427 1_556 S
O17 C16 1.275 1_556 S
O18 Tb0 2.513 . S
O18 C16 1.246 . S
C19 O3 1.252 . S
C19 O4 1.259 . S
Tb20 O23 2.453 . S
Tb20 O24 2.596 . S
Tb20 O25 2.374 . S
Tb20 O33 2.343 . S
Tb20 O35 2.353 1_554 S
Tb20 O37 2.427 1_554 S
Tb20 O38 2.513 . S
C21 O25 1.251 . S
C21 O27 1.263 . S
Tb22 O24 2.343 1_455 S
Tb22 O27 2.353 1_455 S
Tb22 O30 2.427 . S
Tb22 O31 2.513 1_554 S
Tb22 O32 2.453 1_455 S
Tb22 O33 2.596 1_455 S
Tb22 O34 2.374 1_454 S
O23 Tb20 2.453 . S
O23 C39 1.245 . S
O24 Tb20 2.596 . S
O24 Tb22 2.343 1_655 S
O24 C39 1.259 . S
O25 Tb20 2.374 . S
O25 C21 1.251 . S
C26 O30 1.275 . S
C26 O31 1.246 1_554 S
O27 C21 1.263 . S
O27 Tb22 2.353 1_655 S
C28 O32 1.245 . S
C28 O33 1.259 . S
C29 O34 1.250 . S
C29 O35 1.263 . S
O30 Tb22 2.427 . S
O30 C26 1.275 . S
O31 Tb22 2.513 1_556 S
O31 C26 1.246 1_556 S
O32 Tb22 2.453 1_655 S
O32 C28 1.245 . S
O33 Tb20 2.343 . S
O33 Tb22 2.596 1_655 S
O33 C28 1.259 . S
O34 Tb22 2.374 1_656 S
O34 C29 1.250 . S
O35 Tb20 2.353 1_556 S
O35 C29 1.263 . S
C36 O37 1.275 1_554 S
C36 O38 1.246 . S
O37 Tb20 2.427 1_556 S
O37 C36 1.275 1_556 S
O38 Tb20 2.513 . S
O38 C36 1.246 . S
C39 O23 1.245 . S
C39 O24 1.259 . S
Tb40 O43 2.453 1_655 S
Tb40 O44 2.596 1_655 S
Tb40 O45 2.374 1_655 S
Tb40 O53 2.343 1_655 S
Tb40 O55 2.353 1_655 S
Tb40 O57 2.427 . S
Tb40 O58 2.513 . S
C41 O45 1.251 . S
C41 O47 1.263 . S
Tb42 O44 2.343 . S
Tb42 O47 2.353 . S
Tb42 O50 2.427 . S
Tb42 O51 2.513 . S
Tb42 O52 2.453 . S
Tb42 O53 2.596 . S
Tb42 O54 2.374 . S
O43 Tb40 2.453 1_455 S
O43 C59 1.245 . S
O44 Tb40 2.596 1_455 S
O44 Tb42 2.343 . S
O44 C59 1.259 . S
O45 Tb40 2.374 1_455 S
O45 C41 1.251 . S
C46 O50 1.275 . S
C46 O51 1.246 . S
O47 C41 1.263 . S
O47 Tb42 2.353 . S
C48 O52 1.245 . S
C48 O53 1.259 . S
C49 O54 1.250 . S
C49 O55 1.263 . S
O50 Tb42 2.427 . S
O50 C46 1.275 . S
O51 Tb42 2.513 . S
O51 C46 1.246 . S
O52 Tb42 2.453 . S
O52 C48 1.245 . S
O53 Tb40 2.343 1_455 S
O53 Tb42 2.596 . S
O53 C48 1.259 . S
O54 Tb42 2.374 . S
O54 C49 1.250 . S
O55 Tb40 2.353 1_455 S
O55 C49 1.263 . S
C56 O57 1.275 . S
C56 O58 1.246 . S
O57 Tb40 2.427 . S
O57 C56 1.275 . S
O58 Tb40 2.513 . S
O58 C56 1.246 . S
C59 O43 1.245 . S
C59 O44 1.259 . S
Tb60 O63 2.453 . S
Tb60 O64 2.596 . S
Tb60 O65 2.374 . S
Tb60 O73 2.343 . S
Tb60 O75 2.353 . S
Tb60 O77 2.427 . S
Tb60 O78 2.513 . S
C61 O65 1.251 . S
C61 O67 1.263 . S
Tb62 O64 2.343 1_455 S
Tb62 O67 2.353 1_455 S
Tb62 O70 2.427 . S
Tb62 O71 2.513 . S
Tb62 O72 2.453 1_455 S
Tb62 O73 2.596 1_455 S
Tb62 O74 2.374 1_455 S
O63 Tb60 2.453 . S
O63 C79 1.245 . S
O64 Tb60 2.596 . S
O64 Tb62 2.343 1_655 S
O64 C79 1.259 . S
O65 Tb60 2.374 . S
O65 C61 1.251 . S
C66 O70 1.275 . S
C66 O71 1.246 . S
O67 C61 1.263 . S
O67 Tb62 2.353 1_655 S
C68 O72 1.245 . S
C68 O73 1.259 . S
C69 O74 1.250 . S
C69 O75 1.263 . S
O70 Tb62 2.427 . S
O70 C66 1.275 . S
O71 Tb62 2.513 . S
O71 C66 1.246 . S
O72 Tb62 2.453 1_655 S
O72 C68 1.245 . S
O73 Tb60 2.343 . S
O73 Tb62 2.596 1_655 S
O73 C68 1.259 . S
O74 Tb62 2.374 1_655 S
O74 C69 1.250 . S
O75 Tb60 2.353 . S
O75 C69 1.263 . S
C76 O77 1.275 . S
C76 O78 1.246 . S
O77 Tb60 2.427 . S
O77 C76 1.275 . S
O78 Tb60 2.513 . S
O78 C76 1.246 . S
C79 O63 1.245 . S
C79 O64 1.259 . S
Tb80 O83 2.450 . S
Tb80 O84 2.596 . S
Tb80 O85 2.374 . S
Tb80 O93 2.343 . S
Tb80 O95 2.353 1_554 S
Tb80 O97 2.427 1_554 S
Tb80 O98 2.513 . S
C81 O85 1.251 . S
C81 O87 1.263 . S
Tb82 O84 2.343 . S
Tb82 O87 2.353 . S
Tb82 O90 2.427 . S
Tb82 O91 2.513 1_554 S
Tb82 O92 2.453 . S
Tb82 O93 2.596 . S
Tb82 O94 2.374 1_554 S
O83 Tb80 2.450 . S
O83 C99 1.252 . S
O84 Tb80 2.596 . S
O84 Tb82 2.343 . S
O84 C99 1.259 . S
O85 Tb80 2.374 . S
O85 C81 1.251 . S
C86 O90 1.275 . S
C86 O91 1.246 1_554 S
O87 C81 1.263 . S
O87 Tb82 2.353 . S
C88 O92 1.245 . S
C88 O93 1.259 . S
C89 O94 1.250 . S
C89 O95 1.263 . S
O90 Tb82 2.427 . S
O90 C86 1.275 . S
O91 Tb82 2.513 1_556 S
O91 C86 1.246 1_556 S
O92 Tb82 2.453 . S
O92 C88 1.245 . S
O93 Tb80 2.343 . S
O93 Tb82 2.596 . S
O93 C88 1.259 . S
O94 Tb82 2.374 1_556 S
O94 C89 1.250 . S
O95 Tb80 2.353 1_556 S
O95 C89 1.263 . S
C96 O97 1.275 1_554 S
C96 O98 1.246 . S
O97 Tb80 2.427 1_556 S
O97 C96 1.275 1_556 S
O98 Tb80 2.513 . S
O98 C96 1.246 . S
C99 O83 1.252 . S
C99 O84 1.259 . S
Tb100 O103 2.453 . S
Tb100 O104 2.596 . S
Tb100 O105 2.374 . S
Tb100 O113 2.343 . S
Tb100 O115 2.353 1_554 S
Tb100 O117 2.427 1_554 S
Tb100 O118 2.513 . S
C101 O105 1.251 . S
C101 O107 1.263 . S
Tb102 O104 2.343 . S
Tb102 O107 2.353 . S
Tb102 O110 2.427 . S
Tb102 O111 2.513 1_554 S
Tb102 O112 2.453 . S
Tb102 O113 2.596 . S
Tb102 O114 2.374 1_554 S
O103 Tb100 2.453 . S
O103 C119 1.245 . S
O104 Tb100 2.596 . S
O104 Tb102 2.343 . S
O104 C119 1.259 . S
O105 Tb100 2.374 . S
O105 C101 1.251 . S
C106 O110 1.275 . S
C106 O111 1.246 1_554 S
O107 C101 1.263 . S
O107 Tb102 2.353 . S
C108 O112 1.245 . S
C108 O113 1.259 . S
C109 O114 1.250 . S
C109 O115 1.263 . S
O110 Tb102 2.427 . S
O110 C106 1.275 . S
O111 Tb102 2.513 1_556 S
O111 C106 1.246 1_556 S
O112 Tb102 2.453 . S
O112 C108 1.245 . S
O113 Tb100 2.343 . S
O113 Tb102 2.596 . S
O113 C108 1.259 . S
O114 Tb102 2.374 1_556 S
O114 C109 1.250 . S
O115 Tb100 2.353 1_556 S
O115 C109 1.263 . S
C116 O117 1.275 1_554 S
C116 O118 1.246 . S
O117 Tb100 2.427 1_556 S
O117 C116 1.275 1_556 S
O118 Tb100 2.513 . S
O118 C116 1.246 . S
C119 O103 1.245 . S
C119 O104 1.259 . S
Tb120 O123 2.453 . S
Tb120 O124 2.596 . S
Tb120 O125 2.374 . S
Tb120 O133 2.343 . S
Tb120 O135 2.353 . S
Tb120 O137 2.427 . S
Tb120 O138 2.513 . S
C121 O125 1.251 . S
C121 O127 1.263 . S
Tb122 O124 2.343 . S
Tb122 O127 2.353 . S
Tb122 O130 2.427 . S
Tb122 O131 2.513 . S
Tb122 O132 2.453 . S
Tb122 O133 2.596 . S
Tb122 O134 2.374 . S
O123 Tb120 2.453 . S
O123 C139 1.245 . S
O124 Tb120 2.596 . S
O124 Tb122 2.343 . S
O124 C139 1.259 . S
O125 Tb120 2.374 . S
O125 C121 1.251 . S
C126 O130 1.275 . S
C126 O131 1.246 . S
O127 C121 1.263 . S
O127 Tb122 2.353 . S
C128 O132 1.245 . S
C128 O133 1.259 . S
C129 O134 1.250 . S
C129 O135 1.263 . S
O130 Tb122 2.427 . S
O130 C126 1.275 . S
O131 Tb122 2.513 . S
O131 C126 1.246 . S
O132 Tb122 2.453 . S
O132 C128 1.245 . S
O133 Tb120 2.343 . S
O133 Tb122 2.596 . S
O133 C128 1.259 . S
O134 Tb122 2.374 . S
O134 C129 1.250 . S
O135 Tb120 2.353 . S
O135 C129 1.263 . S
C136 O137 1.275 . S
C136 O138 1.246 . S
O137 Tb120 2.427 . S
O137 C136 1.275 . S
O138 Tb120 2.513 . S
O138 C136 1.246 . S
C139 O123 1.245 . S
C139 O124 1.259 . S
Tb140 O143 2.453 . S
Tb140 O144 2.596 . S
Tb140 O145 2.374 . S
Tb140 O153 2.343 . S
Tb140 O155 2.353 . S
Tb140 O157 2.427 . S
Tb140 O158 2.513 . S
C141 O145 1.251 . S
C141 O147 1.263 . S
Tb142 O144 2.343 . S
Tb142 O147 2.353 . S
Tb142 O150 2.427 . S
Tb142 O151 2.513 . S
Tb142 O152 2.453 . S
Tb142 O153 2.596 . S
Tb142 O154 2.374 . S
O143 Tb140 2.453 . S
O143 C159 1.245 . S
O144 Tb140 2.596 . S
O144 Tb142 2.343 . S
O144 C159 1.259 . S
O145 Tb140 2.374 . S
O145 C141 1.251 . S
C146 O150 1.275 . S
C146 O151 1.246 . S
O147 C141 1.263 . S
O147 Tb142 2.353 . S
C148 O152 1.245 . S
C148 O153 1.259 . S
C149 O154 1.250 . S
C149 O155 1.263 . S
O150 Tb142 2.427 . S
O150 C146 1.275 . S
O151 Tb142 2.513 . S
O151 C146 1.246 . S
O152 Tb142 2.453 . S
O152 C148 1.245 . S
O153 Tb140 2.343 . S
O153 Tb142 2.596 . S
O153 C148 1.259 . S
O154 Tb142 2.374 . S
O154 C149 1.250 . S
O155 Tb140 2.353 . S
O155 C149 1.263 . S
C156 O157 1.275 . S
C156 O158 1.246 . S
O157 Tb140 2.427 . S
O157 C156 1.275 . S
O158 Tb140 2.513 . S
O158 C156 1.246 . S
C159 O143 1.245 . S
C159 O144 1.259 . S
C160 C161 1.349 1_556 S
C160 C162 1.327 . S
C160 H185 0.950 . S
C161 C160 1.349 1_554 S
C161 C177 1.349 . S
C162 C160 1.327 . S
C162 C181 1.429 1_556 S
C162 H186 0.950 . S
C163 C180 1.574 . S
C163 C182 1.368 . S
C163 H187 0.949 . S
H164 C168 0.949 . S
C165 C166 1.349 . S
C165 C167 1.327 . S
C165 H188 0.950 . S
C166 C165 1.349 . S
C166 C178 1.349 1_554 S
C167 C165 1.327 . S
C167 C183 1.429 . S
C167 H189 0.950 . S
C168 H164 0.949 . S
C168 C176 1.574 . S
C168 C184 1.368 1_556 S
H169 C177 0.950 . S
H170 C175 0.950 . S
H171 C176 0.949 . S
H172 C178 0.950 . S
H173 C179 0.950 . S
H174 C180 0.949 . S
C175 H170 0.950 . S
C175 C177 1.327 . S
C175 C181 1.429 . S
C176 C168 1.574 . S
C176 H171 0.949 . S
C176 C182 1.368 1_556 S
C177 C161 1.349 . S
C177 H169 0.950 . S
C177 C175 1.327 . S
C178 C166 1.349 1_556 S
C178 H172 0.950 . S
C178 C179 1.327 . S
C179 H173 0.950 . S
C179 C178 1.327 . S
C179 C183 1.429 1_556 S
C180 C163 1.574 . S
C180 H174 0.949 . S
C180 C184 1.368 . S
C181 C162 1.429 1_554 S
C181 C175 1.429 . S
C181 C182 1.523 . S
C182 C163 1.368 . S
C182 C176 1.368 1_554 S
C182 C181 1.523 . S
C183 C167 1.429 . S
C183 C179 1.429 1_554 S
C183 C184 1.523 . S
C184 C168 1.368 1_554 S
C184 C180 1.368 . S
C184 C183 1.523 . S
H185 C160 0.950 . S
H186 C162 0.950 . S
H187 C163 0.949 . S
H188 C165 0.950 . S
H189 C167 0.950 . S
C190 C191 1.349 . S
C190 C192 1.327 . S
C190 H215 0.950 1_554 S
C191 C190 1.349 . S
C191 C207 1.349 . S
C192 C190 1.327 . S
C192 C211 1.431 . S
C192 H216 0.947 1_554 S
C193 C210 1.574 . S
C193 C212 1.368 . S
C193 H217 0.949 . S
H194 C198 0.949 . S
C195 C196 1.349 . S
C195 C197 1.327 . S
C195 H218 0.950 . S
C196 C195 1.349 . S
C196 C208 1.349 1_554 S
C197 C195 1.327 . S
C197 C213 1.429 . S
C197 H219 0.950 . S
C198 H194 0.949 . S
C198 C206 1.574 . S
C198 C214 1.368 1_556 S
H199 C207 0.950 . S
H200 C205 0.950 . S
H201 C206 0.949 . S
H202 C208 0.950 . S
H203 C209 0.950 . S
H204 C210 0.949 . S
C205 H200 0.950 . S
C205 C207 1.327 . S
C205 C211 1.429 . S
C206 C198 1.574 . S
C206 H201 0.949 . S
C206 C212 1.368 1_556 S
C207 C191 1.349 . S
C207 H199 0.950 . S
C207 C205 1.327 . S
C208 C196 1.349 1_556 S
C208 H202 0.950 . S
C208 C209 1.327 . S
C209 H203 0.950 . S
C209 C208 1.327 . S
C209 C213 1.429 1_556 S
C210 C193 1.574 . S
C210 H204 0.949 . S
C210 C214 1.368 . S
C211 C192 1.431 . S
C211 C205 1.429 . S
C211 C212 1.523 . S
C212 C193 1.368 . S
C212 C206 1.368 1_554 S
C212 C211 1.523 . S
C213 C197 1.429 . S
C213 C209 1.429 1_554 S
C213 C214 1.523 . S
C214 C198 1.368 1_554 S
C214 C210 1.368 . S
C214 C213 1.523 . S
H215 C190 0.950 1_556 S
H216 C192 0.947 1_556 S
H217 C193 0.949 . S
H218 C195 0.950 . S
H219 C197 0.950 . S
C220 C221 1.349 . S
C220 C222 1.327 . S
C220 H245 0.950 . S
C221 C220 1.349 . S
C221 C237 1.349 . S
C222 C220 1.327 . S
C222 C241 1.429 . S
C222 H246 0.950 . S
C223 C240 1.574 . S
C223 C242 1.368 . S
C223 H247 0.949 . S
H224 C228 0.949 . S
C225 C226 1.349 . S
C225 C227 1.327 . S
C225 H248 0.950 . S
C226 C225 1.349 . S
C226 C238 1.349 . S
C227 C225 1.327 . S
C227 C243 1.429 . S
C227 H249 0.950 . S
C228 H224 0.949 . S
C228 C236 1.574 . S
C228 C244 1.368 . S
H229 C237 0.950 . S
H230 C235 0.950 . S
H231 C236 0.949 . S
H232 C238 0.950 . S
H233 C239 0.950 . S
H234 C240 0.949 . S
C235 H230 0.950 . S
C235 C237 1.327 . S
C235 C241 1.429 . S
C236 C228 1.574 . S
C236 H231 0.949 . S
C236 C242 1.368 . S
C237 C221 1.349 . S
C237 H229 0.950 . S
C237 C235 1.327 . S
C238 C226 1.349 . S
C238 H232 0.950 . S
C238 C239 1.327 . S
C239 H233 0.950 . S
C239 C238 1.327 . S
C239 C243 1.429 . S
C240 C223 1.574 . S
C240 H234 0.949 . S
C240 C244 1.368 . S
C241 C222 1.429 . S
C241 C235 1.429 . S
C241 C242 1.523 . S
C242 C223 1.368 . S
C242 C236 1.368 . S
C242 C241 1.523 . S
C243 C227 1.429 . S
C243 C239 1.429 . S
C243 C244 1.523 . S
C244 C228 1.368 . S
C244 C240 1.368 . S
C244 C243 1.523 . S
H245 C220 0.950 . S
H246 C222 0.950 . S
H247 C223 0.949 . S
H248 C225 0.950 . S
H249 C227 0.950 . S
C250 C251 1.349 . S
C250 C252 1.327 . S
C250 H275 0.950 . S
C251 C250 1.349 . S
C251 C267 1.349 . S
C252 C250 1.327 . S
C252 C271 1.429 . S
C252 H276 0.950 . S
C253 C270 1.574 . S
C253 C272 1.368 . S
C253 H277 0.949 . S
H254 C258 0.949 . S
C255 C256 1.349 . S
C255 C257 1.327 . S
C255 H278 0.950 . S
C256 C255 1.349 . S
C256 C268 1.349 . S
C257 C255 1.327 . S
C257 C273 1.429 . S
C257 H279 0.950 . S
C258 H254 0.949 . S
C258 C266 1.574 . S
C258 C274 1.368 . S
H259 C267 0.950 . S
H260 C265 0.950 . S
H261 C266 0.949 . S
H262 C268 0.950 . S
H263 C269 0.950 . S
H264 C270 0.949 . S
C265 H260 0.950 . S
C265 C267 1.327 . S
C265 C271 1.429 . S
C266 C258 1.574 . S
C266 H261 0.949 . S
C266 C272 1.368 . S
C267 C251 1.349 . S
C267 H259 0.950 . S
C267 C265 1.327 . S
C268 C256 1.349 . S
C268 H262 0.950 . S
C268 C269 1.327 . S
C269 H263 0.950 . S
C269 C268 1.327 . S
C269 C273 1.429 . S
C270 C253 1.574 . S
C270 H264 0.949 . S
C270 C274 1.368 . S
C271 C252 1.429 . S
C271 C265 1.429 . S
C271 C272 1.523 . S
C272 C253 1.368 . S
C272 C266 1.368 . S
C272 C271 1.523 . S
C273 C257 1.429 . S
C273 C269 1.429 . S
C273 C274 1.523 . S
C274 C258 1.368 . S
C274 C270 1.368 . S
C274 C273 1.523 . S
H275 C250 0.950 . S
H276 C252 0.950 . S
H277 C253 0.949 . S
H278 C255 0.950 . S
H279 C257 0.950 . S
C280 C281 1.349 . S
C280 C282 1.327 . S
C280 H305 0.950 . S
C281 C280 1.349 . S
C281 C297 1.349 1_554 S
C282 C280 1.327 . S
C282 C301 1.429 . S
C282 H306 0.950 . S
C283 C300 1.574 . S
C283 C302 1.368 1_556 S
C283 H307 0.949 1_455 S
H284 C288 0.949 . S
C285 C286 1.349 1_556 S
C285 C287 1.327 . S
C285 H308 0.950 . S
C286 C285 1.349 1_554 S
C286 C298 1.349 . S
C287 C285 1.327 . S
C287 C303 1.429 1_556 S
C287 H309 0.950 . S
C288 H284 0.949 . S
C288 C296 1.574 . S
C288 C304 1.368 . S
H289 C297 0.950 . S
H290 C295 0.950 . S
H291 C296 0.949 . S
H292 C298 0.950 . S
H293 C299 0.950 . S
H294 C300 0.949 . S
C295 H290 0.950 . S
C295 C297 1.327 . S
C295 C301 1.429 1_556 S
C296 C288 1.574 . S
C296 H291 0.949 . S
C296 C302 1.368 . S
C297 C281 1.349 1_556 S
C297 H289 0.950 . S
C297 C295 1.327 . S
C298 C286 1.349 . S
C298 H292 0.950 . S
C298 C299 1.327 . S
C299 H293 0.950 . S
C299 C298 1.327 . S
C299 C303 1.429 . S
C300 C283 1.574 . S
C300 H294 0.949 . S
C300 C304 1.368 1_556 S
C301 C282 1.429 . S
C301 C295 1.429 1_554 S
C301 C302 1.523 1_655 S
C302 C283 1.368 1_554 S
C302 C296 1.368 . S
C302 C301 1.523 1_455 S
C303 C287 1.429 1_554 S
C303 C299 1.429 . S
C303 C304 1.523 . S
C304 C288 1.368 . S
C304 C300 1.368 1_554 S
C304 C303 1.523 . S
H305 C280 0.950 . S
H306 C282 0.950 . S
H307 C283 0.949 1_655 S
H308 C285 0.950 . S
H309 C287 0.950 . S
C310 C311 1.349 1_556 S
C310 C312 1.327 . S
C310 H335 0.950 . S
C311 C310 1.349 1_554 S
C311 C327 1.349 . S
C312 C310 1.327 . S
C312 C331 1.429 1_556 S
C312 H336 0.950 . S
C313 C330 1.574 . S
C313 C332 1.368 . S
C313 H337 0.949 . S
H314 C318 0.949 . S
C315 C316 1.349 . S
C315 C317 1.327 . S
C315 H338 0.950 . S
C316 C315 1.349 . S
C316 C328 1.349 1_554 S
C317 C315 1.327 . S
C317 C333 1.429 . S
C317 H339 0.950 . S
C318 H314 0.949 . S
C318 C326 1.574 . S
C318 C334 1.368 1_556 S
H319 C327 0.950 . S
H320 C325 0.950 . S
H321 C326 0.949 . S
H322 C328 0.950 . S
H323 C329 0.950 . S
H324 C330 0.949 . S
C325 H320 0.950 . S
C325 C327 1.327 . S
C325 C331 1.429 . S
C326 C318 1.574 . S
C326 H321 0.949 . S
C326 C332 1.368 1_556 S
C327 C311 1.349 . S
C327 H319 0.950 . S
C327 C325 1.327 . S
C328 C316 1.349 1_556 S
C328 H322 0.950 . S
C328 C329 1.327 . S
C329 H323 0.950 . S
C329 C328 1.327 . S
C329 C333 1.429 1_556 S
C330 C313 1.574 . S
C330 H324 0.949 . S
C330 C334 1.368 . S
C331 C312 1.429 1_554 S
C331 C325 1.429 . S
C331 C332 1.523 1_455 S
C332 C313 1.368 . S
C332 C326 1.368 1_554 S
C332 C331 1.523 1_655 S
C333 C317 1.429 . S
C333 C329 1.429 1_554 S
C333 C334 1.523 . S
C334 C318 1.368 1_554 S
C334 C330 1.368 . S
C334 C333 1.523 . S
H335 C310 0.950 . S
H336 C312 0.950 . S
H337 C313 0.949 . S
H338 C315 0.950 . S
H339 C317 0.950 . S
C340 C341 1.349 . S
C340 C342 1.327 . S
C340 H365 0.950 . S
C341 C340 1.349 . S
C341 C357 1.349 . S
C342 C340 1.327 . S
C342 C361 1.429 . S
C342 H366 0.950 . S
C343 C360 1.574 . S
C343 C362 1.368 . S
C343 H367 0.949 . S
H344 C348 0.941 1_655 S
C345 C346 1.349 . S
C345 C347 1.327 . S
C345 H368 0.950 . S
C346 C345 1.349 . S
C346 C358 1.349 . S
C347 C345 1.327 . S
C347 C363 1.429 . S
C347 H369 0.950 . S
C348 H344 0.941 1_455 S
C348 C356 1.574 . S
C348 C364 1.368 . S
H349 C357 0.950 . S
H350 C355 0.950 . S
H351 C356 0.949 . S
H352 C358 0.950 . S
H353 C359 0.950 . S
H354 C360 0.949 . S
C355 H350 0.950 . S
C355 C357 1.327 . S
C355 C361 1.429 . S
C356 C348 1.574 . S
C356 H351 0.949 . S
C356 C362 1.368 . S
C357 C341 1.349 . S
C357 H349 0.950 . S
C357 C355 1.327 . S
C358 C346 1.349 . S
C358 H352 0.950 . S
C358 C359 1.327 . S
C359 H353 0.950 . S
C359 C358 1.327 . S
C359 C363 1.429 . S
C360 C343 1.574 . S
C360 H354 0.949 . S
C360 C364 1.368 . S
C361 C342 1.429 . S
C361 C355 1.429 . S
C361 C362 1.523 . S
C362 C343 1.368 . S
C362 C356 1.368 . S
C362 C361 1.523 . S
C363 C347 1.429 . S
C363 C359 1.429 . S
C363 C364 1.523 1_655 S
C364 C348 1.368 . S
C364 C360 1.368 . S
C364 C363 1.523 1_455 S
H365 C340 0.950 . S
H366 C342 0.950 . S
H367 C343 0.949 . S
H368 C345 0.950 . S
H369 C347 0.950 . S
C370 C371 1.349 . S
C370 C372 1.327 . S
C370 H395 0.950 . S
C371 C370 1.349 . S
C371 C387 1.349 . S
C372 C370 1.327 . S
C372 C391 1.429 . S
C372 H396 0.950 . S
C373 C390 1.574 . S
C373 C392 1.368 . S
C373 H397 0.949 . S
H374 C378 0.949 1_455 S
C375 C376 1.349 . S
C375 C377 1.327 . S
C375 H398 0.950 . S
C376 C375 1.349 . S
C376 C388 1.349 . S
C377 C375 1.327 . S
C377 C393 1.429 . S
C377 H399 0.950 . S
C378 H374 0.949 1_655 S
C378 C386 1.574 . S
C378 C394 1.368 . S
H379 C387 0.950 . S
H380 C385 0.950 . S
H381 C386 0.949 . S
H382 C388 0.950 . S
H383 C389 0.950 . S
H384 C390 0.949 . S
C385 H380 0.950 . S
C385 C387 1.327 . S
C385 C391 1.429 . S
C386 C378 1.574 . S
C386 H381 0.949 . S
C386 C392 1.368 . S
C387 C371 1.349 . S
C387 H379 0.950 . S
C387 C385 1.327 . S
C388 C376 1.349 . S
C388 H382 0.950 . S
C388 C389 1.327 . S
C389 H383 0.950 . S
C389 C388 1.327 . S
C389 C393 1.429 . S
C390 C373 1.574 . S
C390 H384 0.949 . S
C390 C394 1.368 . S
C391 C372 1.429 . S
C391 C385 1.429 . S
C391 C392 1.523 . S
C392 C373 1.368 . S
C392 C386 1.368 . S
C392 C391 1.523 . S
C393 C377 1.429 . S
C393 C389 1.429 . S
C393 C394 1.523 1_455 S
C394 C378 1.368 . S
C394 C390 1.368 . S
C394 C393 1.523 1_655 S
H395 C370 0.950 . S
H396 C372 0.950 . S
H397 C373 0.949 . S
H398 C375 0.950 . S
H399 C377 0.950 . S
C400 C401 1.351 1_556 S
C400 C402 1.327 . S
C400 H425 0.950 . S
C401 C400 1.351 1_554 S
C401 C417 1.347 1_455 S
C402 C400 1.327 . S
C402 C421 1.429 1_556 S
C402 H426 0.950 . S
C403 C420 1.574 . S
C403 C422 1.369 1_655 S
C403 H427 0.949 . S
H404 C408 0.949 . S
C405 C406 1.351 . S
C405 C407 1.327 . S
C405 H428 0.950 . S
C406 C405 1.351 . S
C406 C418 1.347 1_654 S
C407 C405 1.327 . S
C407 C423 1.429 . S
C407 H429 0.950 . S
C408 H404 0.949 . S
C408 C416 1.574 . S
C408 C424 1.369 1_456 S
H409 C417 0.950 . S
H410 C415 0.950 . S
H411 C416 0.949 . S
H412 C418 0.950 . S
H413 C419 0.950 . S
H414 C420 0.949 . S
C415 H410 0.950 . S
C415 C417 1.327 . S
C415 C421 1.428 1_655 S
C416 C408 1.574 . S
C416 H411 0.949 . S
C416 C422 1.368 1_556 S
C417 C401 1.347 1_655 S
C417 H409 0.950 . S
C417 C415 1.327 . S
C418 C406 1.347 1_456 S
C418 H412 0.950 . S
C418 C419 1.327 . S
C419 H413 0.950 . S
C419 C418 1.327 . S
C419 C423 1.428 1_456 S
C420 C403 1.574 . S
C420 H414 0.949 . S
C420 C424 1.368 . S
C421 C402 1.429 1_554 S
C421 C415 1.428 1_455 S
C421 C422 1.523 . S
C422 C403 1.369 1_455 S
C422 C416 1.368 1_554 S
C422 C421 1.523 . S
C423 C407 1.429 . S
C423 C419 1.428 1_654 S
C423 C424 1.523 . S
C424 C408 1.369 1_654 S
C424 C420 1.368 . S
C424 C423 1.523 . S
H425 C400 0.950 . S
H426 C402 0.950 . S
H427 C403 0.949 . S
H428 C405 0.950 . S
H429 C407 0.950 . S
C430 C431 1.351 . S
C430 C432 1.327 . S
C430 H455 0.950 . S
C431 C430 1.351 . S
C431 C447 1.347 1_455 S
C432 C430 1.327 . S
C432 C451 1.429 . S
C432 H456 0.950 . S
C433 C450 1.574 . S
C433 C452 1.369 1_655 S
C433 H457 0.949 . S
H434 C438 0.949 . S
C435 C436 1.351 . S
C435 C437 1.327 . S
C435 H458 0.950 . S
C436 C435 1.351 . S
C436 C448 1.347 1_655 S
C437 C435 1.327 . S
C437 C453 1.429 . S
C437 H459 0.950 . S
C438 H434 0.949 . S
C438 C446 1.574 . S
C438 C454 1.369 1_455 S
H439 C447 0.950 . S
H440 C445 0.950 . S
H441 C446 0.949 . S
H442 C448 0.950 . S
H443 C449 0.950 . S
H444 C450 0.949 . S
C445 H440 0.950 . S
C445 C447 1.327 . S
C445 C451 1.428 1_655 S
C446 C438 1.574 . S
C446 H441 0.949 . S
C446 C452 1.368 . S
C447 C431 1.347 1_655 S
C447 H439 0.950 . S
C447 C445 1.327 . S
C448 C436 1.347 1_455 S
C448 H442 0.950 . S
C448 C449 1.327 . S
C449 H443 0.950 . S
C449 C448 1.327 . S
C449 C453 1.428 1_455 S
C450 C433 1.574 . S
C450 H444 0.949 . S
C450 C454 1.368 . S
C451 C432 1.429 . S
C451 C445 1.428 1_455 S
C451 C452 1.523 . S
C452 C433 1.369 1_455 S
C452 C446 1.368 . S
C452 C451 1.523 . S
C453 C437 1.429 . S
C453 C449 1.428 1_655 S
C453 C454 1.523 . S
C454 C438 1.369 1_655 S
C454 C450 1.368 . S
C454 C453 1.523 . S
H455 C430 0.950 . S
H456 C432 0.950 . S
H457 C433 0.949 . S
H458 C435 0.950 . S
H459 C437 0.950 . S
C460 C461 1.349 . S
C460 C462 1.327 . S
C460 H485 0.950 . S
C461 C460 1.349 . S
C461 C477 1.349 1_554 S
C462 C460 1.327 . S
C462 C481 1.429 . S
C462 H486 0.950 . S
C463 C480 1.574 1_565 S
C463 C482 1.368 1_556 S
C463 H487 0.949 . S
H464 C468 0.949 . S
C465 C466 1.349 1_556 S
C465 C467 1.327 . S
C465 H488 0.950 . S
C466 C465 1.349 1_554 S
C466 C478 1.349 . S
C467 C465 1.327 . S
C467 C483 1.429 1_556 S
C467 H489 0.950 . S
C468 H464 0.949 . S
C468 C476 1.574 1_545 S
C468 C484 1.368 . S
H469 C477 0.950 . S
H470 C475 0.950 . S
H471 C476 0.949 . S
H472 C478 0.950 . S
H473 C479 0.950 . S
H474 C480 0.949 . S
C475 H470 0.950 . S
C475 C477 1.327 . S
C475 C481 1.429 1_556 S
C476 C468 1.574 1_565 S
C476 H471 0.949 . S
C476 C482 1.368 . S
C477 C461 1.349 1_556 S
C477 H469 0.950 . S
C477 C475 1.327 . S
C478 C466 1.349 . S
C478 H472 0.950 . S
C478 C479 1.327 . S
C479 H473 0.950 . S
C479 C478 1.327 . S
C479 C483 1.429 . S
C480 C463 1.574 1_545 S
C480 H474 0.949 . S
C480 C484 1.368 1_556 S
C481 C462 1.429 . S
C481 C475 1.429 1_554 S
C481 C482 1.523 . S
C482 C463 1.368 1_554 S
C482 C476 1.368 . S
C482 C481 1.523 . S
C483 C467 1.429 1_554 S
C483 C479 1.429 . S
C483 C484 1.523 . S
C484 C468 1.368 . S
C484 C480 1.368 1_554 S
C484 C483 1.523 . S
H485 C460 0.950 . S
H486 C462 0.950 . S
H487 C463 0.949 . S
H488 C465 0.950 . S
H489 C467 0.950 . S
C490 C491 1.349 . S
C490 C492 1.327 . S
C490 H515 0.950 . S
C491 C490 1.349 . S
C491 C507 1.349 . S
C492 C490 1.327 . S
C492 C511 1.429 . S
C492 H516 0.950 . S
C493 C510 1.574 1_545 S
C493 C512 1.368 . S
C493 H517 0.949 . S
H494 C498 0.949 . S
C495 C496 1.349 . S
C495 C497 1.327 . S
C495 H518 0.950 . S
C496 C495 1.349 . S
C496 C508 1.349 . S
C497 C495 1.327 . S
C497 C513 1.429 . S
C497 H519 0.950 . S
C498 H494 0.949 . S
C498 C506 1.574 1_565 S
C498 C514 1.368 . S
H499 C507 0.950 . S
H500 C505 0.950 . S
H501 C506 0.949 . S
H502 C508 0.950 . S
H503 C509 0.950 . S
H504 C510 0.949 . S
C505 H500 0.950 . S
C505 C507 1.327 . S
C505 C511 1.429 . S
C506 C498 1.574 1_545 S
C506 H501 0.949 . S
C506 C512 1.368 . S
C507 C491 1.349 . S
C507 H499 0.950 . S
C507 C505 1.327 . S
C508 C496 1.349 . S
C508 H502 0.950 . S
C508 C509 1.327 . S
C509 H503 0.950 . S
C509 C508 1.327 . S
C509 C513 1.429 . S
C510 C493 1.574 1_565 S
C510 H504 0.949 . S
C510 C514 1.368 . S
C511 C492 1.429 . S
C511 C505 1.429 . S
C511 C512 1.523 . S
C512 C493 1.368 . S
C512 C506 1.368 . S
C512 C511 1.523 . S
C513 C497 1.429 . S
C513 C509 1.429 . S
C513 C514 1.523 . S
C514 C498 1.368 . S
C514 C510 1.368 . S
C514 C513 1.523 . S
H515 C490 0.950 . S
H516 C492 0.950 . S
H517 C493 0.949 . S
H518 C495 0.950 . S
H519 C497 0.950 . S
C520 C521 1.349 1_556 S
C520 C522 1.327 . S
C520 H545 0.950 . S
C521 C520 1.349 1_554 S
C521 C537 1.349 . S
C522 C520 1.327 . S
C522 C541 1.429 1_556 S
C522 H546 0.950 . S
C523 C540 1.574 . S
C523 C542 1.368 . S
C523 H547 0.949 . S
H524 C528 0.949 . S
C525 C526 1.349 . S
C525 C527 1.327 . S
C525 H548 0.950 . S
C526 C525 1.349 . S
C526 C538 1.349 1_554 S
C527 C525 1.327 . S
C527 C543 1.429 . S
C527 H549 0.950 . S
C528 H524 0.949 . S
C528 C536 1.574 . S
C528 C544 1.368 1_556 S
H529 C537 0.950 . S
H530 C535 0.950 . S
H531 C536 0.949 . S
H532 C538 0.950 . S
H533 C539 0.950 . S
H534 C540 0.949 . S
C535 H530 0.950 . S
C535 C537 1.327 . S
C535 C541 1.429 . S
C536 C528 1.574 . S
C536 H531 0.949 . S
C536 C542 1.368 1_556 S
C537 C521 1.349 . S
C537 H529 0.950 . S
C537 C535 1.327 . S
C538 C526 1.349 1_556 S
C538 H532 0.950 . S
C538 C539 1.327 . S
C539 H533 0.950 . S
C539 C538 1.327 . S
C539 C543 1.429 1_556 S
C540 C523 1.574 . S
C540 H534 0.949 . S
C540 C544 1.368 . S
C541 C522 1.429 1_554 S
C541 C535 1.429 . S
C541 C542 1.523 . S
C542 C523 1.368 . S
C542 C536 1.368 1_554 S
C542 C541 1.523 . S
C543 C527 1.429 . S
C543 C539 1.429 1_554 S
C543 C544 1.523 . S
C544 C528 1.368 1_554 S
C544 C540 1.368 . S
C544 C543 1.523 . S
H545 C520 0.950 . S
H546 C522 0.950 . S
H547 C523 0.949 . S
H548 C525 0.950 . S
H549 C527 0.950 . S
C550 C551 1.349 . S
C550 C552 1.327 . S
C550 H575 0.950 . S
C551 C550 1.349 . S
C551 C567 1.342 1_554 S
C552 C550 1.327 . S
C552 C571 1.429 . S
C552 H576 0.950 . S
C553 C570 1.567 1_556 S
C553 C572 1.369 1_556 S
C553 H577 0.948 . S
H554 C558 0.949 . S
C555 C556 1.349 . S
C555 C557 1.327 . S
C555 H578 0.950 1_554 S
C556 C555 1.349 . S
C556 C568 1.349 . S
C557 C555 1.327 . S
C557 C573 1.429 . S
C557 H579 0.950 1_554 S
C558 H554 0.949 . S
C558 C566 1.574 . S
C558 C574 1.368 . S
H559 C567 0.964 . S
H560 C565 0.955 . S
H561 C566 0.949 . S
H562 C568 0.950 . S
H563 C569 0.950 . S
H564 C570 0.943 1_556 S
C565 H560 0.955 . S
C565 C567 1.325 . S
C565 C571 1.419 1_556 S
C566 C558 1.574 . S
C566 H561 0.949 . S
C566 C572 1.368 . S
C567 C551 1.342 1_556 S
C567 H559 0.964 . S
C567 C565 1.325 . S
C568 C556 1.349 . S
C568 H562 0.950 . S
C568 C569 1.327 . S
C569 H563 0.950 . S
C569 C568 1.327 . S
C569 C573 1.429 . S
C570 C553 1.567 1_554 S
C570 H564 0.943 1_554 S
C570 C574 1.383 . S
C571 C552 1.429 . S
C571 C565 1.419 1_554 S
C571 C572 1.523 . S
C572 C553 1.369 1_554 S
C572 C566 1.368 . S
C572 C571 1.523 . S
C573 C557 1.429 . S
C573 C569 1.429 . S
C573 C574 1.523 . S
C574 C558 1.368 . S
C574 C570 1.383 . S
C574 C573 1.523 . S
H575 C550 0.950 . S
H576 C552 0.950 . S
H577 C553 0.948 . S
H578 C555 0.950 1_556 S
H579 C557 0.950 1_556 S
C580 C581 1.349 . S
C580 C582 1.327 . S
C580 H605 0.950 . S
C581 C580 1.349 . S
C581 C597 1.349 . S
C582 C580 1.327 . S
C582 C601 1.429 . S
C582 H606 0.950 . S
C583 C600 1.574 . S
C583 C602 1.368 . S
C583 H607 0.949 . S
H584 C588 0.949 . S
C585 C586 1.349 . S
C585 C587 1.327 . S
C585 H608 0.950 . S
C586 C585 1.349 . S
C586 C598 1.349 . S
C587 C585 1.327 . S
C587 C603 1.429 . S
C587 H609 0.950 . S
C588 H584 0.949 . S
C588 C596 1.574 . S
C588 C604 1.368 . S
H589 C597 0.950 . S
H590 C595 0.950 . S
H591 C596 0.949 . S
H592 C598 0.950 . S
H593 C599 0.950 . S
H594 C600 0.949 . S
C595 H590 0.950 . S
C595 C597 1.327 . S
C595 C601 1.429 . S
C596 C588 1.574 . S
C596 H591 0.949 . S
C596 C602 1.368 . S
C597 C581 1.349 . S
C597 H589 0.950 . S
C597 C595 1.327 . S
C598 C586 1.349 . S
C598 H592 0.950 . S
C598 C599 1.327 . S
C599 H593 0.950 . S
C599 C598 1.327 . S
C599 C603 1.429 . S
C600 C583 1.574 . S
C600 H594 0.949 . S
C600 C604 1.368 . S
C601 C582 1.429 . S
C601 C595 1.429 . S
C601 C602 1.523 . S
C602 C583 1.368 . S
C602 C596 1.368 . S
C602 C601 1.523 . S
C603 C587 1.429 . S
C603 C599 1.429 . S
C603 C604 1.523 . S
C604 C588 1.368 . S
C604 C600 1.368 . S
C604 C603 1.523 . S
H605 C580 0.950 . S
H606 C582 0.950 . S
H607 C583 0.949 . S
H608 C585 0.950 . S
H609 C587 0.950 . S
C610 C611 1.349 . S
C610 C612 1.327 . S
C610 H635 0.950 . S
C611 C610 1.349 . S
C611 C627 1.349 . S
C612 C610 1.327 . S
C612 C631 1.429 . S
C612 H636 0.950 . S
C613 C630 1.574 . S
C613 C632 1.368 . S
C613 H637 0.949 . S
H614 C618 0.949 . S
C615 C616 1.349 . S
C615 C617 1.327 . S
C615 H638 0.950 . S
C616 C615 1.349 . S
C616 C628 1.349 . S
C617 C615 1.327 . S
C617 C633 1.429 . S
C617 H639 0.950 . S
C618 H614 0.949 . S
C618 C626 1.574 . S
C618 C634 1.368 . S
H619 C627 0.950 . S
H620 C625 0.950 . S
H621 C626 0.949 . S
H622 C628 0.950 . S
H623 C629 0.950 . S
H624 C630 0.949 . S
C625 H620 0.950 . S
C625 C627 1.327 . S
C625 C631 1.429 . S
C626 C618 1.574 . S
C626 H621 0.949 . S
C626 C632 1.368 . S
C627 C611 1.349 . S
C627 H619 0.950 . S
C627 C625 1.327 . S
C628 C616 1.349 . S
C628 H622 0.950 . S
C628 C629 1.327 . S
C629 H623 0.950 . S
C629 C628 1.327 . S
C629 C633 1.429 . S
C630 C613 1.574 . S
C630 H624 0.949 . S
C630 C634 1.368 . S
C631 C612 1.429 . S
C631 C625 1.429 . S
C631 C632 1.523 . S
C632 C613 1.368 . S
C632 C626 1.368 . S
C632 C631 1.523 . S
C633 C617 1.429 . S
C633 C629 1.429 . S
C633 C634 1.523 . S
C634 C618 1.368 . S
C634 C630 1.368 . S
C634 C633 1.523 . S
H635 C610 0.950 . S
H636 C612 0.950 . S
H637 C613 0.949 . S
H638 C615 0.950 . S
H639 C617 0.950 . S
C640 C641 1.349 . S
C640 C642 1.327 1_455 S
C640 H665 0.950 1_455 S
C641 C640 1.349 . S
C641 C657 1.349 . S
C642 C640 1.327 1_655 S
C642 C661 1.429 1_655 S
C642 H666 0.950 . S
C643 C660 1.574 . S
C643 C662 1.368 . S
C643 H667 0.949 . S
H644 C648 0.949 . S
C645 C646 1.347 . S
C645 C647 1.328 1_655 S
C645 H668 0.951 1_655 S
C646 C645 1.347 . S
C646 C658 1.349 . S
C647 C645 1.328 1_455 S
C647 C663 1.429 1_455 S
C647 H669 0.950 . S
C648 H644 0.949 . S
C648 C656 1.574 . S
C648 C664 1.368 . S
H649 C657 0.950 . S
H650 C655 0.950 . S
H651 C656 0.949 . S
H652 C658 0.950 . S
H653 C659 0.950 . S
H654 C660 0.949 . S
C655 H650 0.950 . S
C655 C657 1.327 . S
C655 C661 1.429 . S
C656 C648 1.574 . S
C656 H651 0.949 . S
C656 C662 1.368 1_655 S
C657 C641 1.349 . S
C657 H649 0.950 . S
C657 C655 1.327 . S
C658 C646 1.349 . S
C658 H652 0.950 . S
C658 C659 1.327 . S
C659 H653 0.950 . S
C659 C658 1.327 . S
C659 C663 1.429 . S
C660 C643 1.574 . S
C660 H654 0.949 . S
C660 C664 1.368 1_455 S
C661 C642 1.429 1_455 S
C661 C655 1.429 . S
C661 C662 1.523 . S
C662 C643 1.368 . S
C662 C656 1.368 1_455 S
C662 C661 1.523 . S
C663 C647 1.429 1_655 S
C663 C659 1.429 . S
C663 C664 1.523 . S
C664 C648 1.368 . S
C664 C660 1.368 1_655 S
C664 C663 1.523 . S
H665 C640 0.950 1_655 S
H666 C642 0.950 . S
H667 C643 0.949 . S
H668 C645 0.951 1_455 S
H669 C647 0.950 . S
C670 C671 1.349 . S
C670 C672 1.327 . S
C670 H695 0.950 . S
C671 C670 1.349 . S
C671 C687 1.349 . S
C672 C670 1.327 . S
C672 C691 1.429 . S
C672 H696 0.950 1_655 S
C673 C690 1.574 . S
C673 C692 1.368 . S
C673 H697 0.949 . S
H674 C678 0.949 . S
C675 C676 1.349 . S
C675 C677 1.327 . S
C675 H698 0.950 . S
C676 C675 1.349 . S
C676 C688 1.349 . S
C677 C675 1.327 . S
C677 C693 1.429 . S
C677 H699 0.950 1_455 S
C678 H674 0.949 . S
C678 C686 1.574 . S
C678 C694 1.368 . S
H679 C687 0.950 . S
H680 C685 0.950 . S
H681 C686 0.949 . S
H682 C688 0.950 . S
H683 C689 0.950 . S
H684 C690 0.949 . S
C685 H680 0.950 . S
C685 C687 1.327 . S
C685 C691 1.429 . S
C686 C678 1.574 . S
C686 H681 0.949 . S
C686 C692 1.368 1_455 S
C687 C671 1.349 . S
C687 H679 0.950 . S
C687 C685 1.327 . S
C688 C676 1.349 . S
C688 H682 0.950 . S
C688 C689 1.327 . S
C689 H683 0.950 . S
C689 C688 1.327 . S
C689 C693 1.429 . S
C690 C673 1.574 . S
C690 H684 0.949 . S
C690 C694 1.368 1_655 S
C691 C672 1.429 . S
C691 C685 1.429 . S
C691 C692 1.523 . S
C692 C673 1.368 . S
C692 C686 1.368 1_655 S
C692 C691 1.523 . S
C693 C677 1.429 . S
C693 C689 1.429 . S
C693 C694 1.523 . S
C694 C678 1.368 . S
C694 C690 1.368 1_455 S
C694 C693 1.523 . S
H695 C670 0.950 . S
H696 C672 0.950 1_455 S
H697 C673 0.949 . S
H698 C675 0.950 . S
H699 C677 0.950 1_655 S
C700 C701 1.349 . S
C700 C702 1.327 . S
C700 H725 0.950 1_655 S
C701 C700 1.349 . S
C701 C717 1.349 . S
C702 C700 1.327 . S
C702 C721 1.429 . S
C702 H726 0.950 1_655 S
C703 C720 1.574 . S
C703 C722 1.368 . S
C703 H727 0.949 . S
H704 C708 0.949 . S
C705 C706 1.349 . S
C705 C707 1.327 1_455 S
C705 H728 0.950 1_455 S
C706 C705 1.349 . S
C706 C718 1.349 . S
C707 C705 1.327 1_655 S
C707 C723 1.429 1_655 S
C707 H729 0.950 . S
C708 H704 0.949 . S
C708 C716 1.574 . S
C708 C724 1.368 . S
H709 C717 0.950 . S
H710 C715 0.950 . S
H711 C716 0.949 . S
H712 C718 0.950 . S
H713 C719 0.950 . S
H714 C720 0.949 . S
C715 H710 0.950 . S
C715 C717 1.327 . S
C715 C721 1.429 . S
C716 C708 1.574 . S
C716 H711 0.949 . S
C716 C722 1.368 1_455 S
C717 C701 1.349 . S
C717 H709 0.950 . S
C717 C715 1.327 . S
C718 C706 1.349 . S
C718 H712 0.950 . S
C718 C719 1.327 . S
C719 H713 0.950 . S
C719 C718 1.327 . S
C719 C723 1.429 . S
C720 C703 1.574 . S
C720 H714 0.949 . S
C720 C724 1.368 1_655 S
C721 C702 1.429 . S
C721 C715 1.429 . S
C721 C722 1.523 . S
C722 C703 1.368 . S
C722 C716 1.368 1_655 S
C722 C721 1.523 . S
C723 C707 1.429 1_455 S
C723 C719 1.429 . S
C723 C724 1.523 . S
C724 C708 1.368 . S
C724 C720 1.368 1_455 S
C724 C723 1.523 . S
H725 C700 0.950 1_455 S
H726 C702 0.950 1_455 S
H727 C703 0.949 . S
H728 C705 0.950 1_655 S
H729 C707 0.950 . S
C730 C731 1.349 . S
C730 C732 1.327 . S
C730 H755 0.950 . S
C731 C730 1.349 . S
C731 C747 1.349 . S
C732 C730 1.327 . S
C732 C751 1.429 . S
C732 H756 0.950 1_655 S
C733 C750 1.574 . S
C733 C752 1.368 . S
C733 H757 0.949 . S
H734 C738 0.949 . S
C735 C736 1.349 . S
C735 C737 1.332 . S
C735 H758 0.944 1_455 S
C736 C735 1.349 . S
C736 C748 1.349 . S
C737 C735 1.332 . S
C737 C753 1.435 . S
C737 H759 0.938 1_455 S
C738 H734 0.949 . S
C738 C746 1.574 . S
C738 C754 1.368 . S
H739 C747 0.950 . S
H740 C745 0.950 . S
H741 C746 0.949 . S
H742 C748 0.950 . S
H743 C749 0.950 . S
H744 C750 0.949 . S
C745 H740 0.950 . S
C745 C747 1.327 . S
C745 C751 1.429 . S
C746 C738 1.574 . S
C746 H741 0.949 . S
C746 C752 1.368 1_455 S
C747 C731 1.349 . S
C747 H739 0.950 . S
C747 C745 1.327 . S
C748 C736 1.349 . S
C748 H742 0.950 . S
C748 C749 1.327 . S
C749 H743 0.950 . S
C749 C748 1.327 . S
C749 C753 1.429 . S
C750 C733 1.574 . S
C750 H744 0.949 . S
C750 C754 1.368 1_655 S
C751 C732 1.429 . S
C751 C745 1.429 . S
C751 C752 1.523 . S
C752 C733 1.368 . S
C752 C746 1.368 1_655 S
C752 C751 1.523 . S
C753 C737 1.435 . S
C753 C749 1.429 . S
C753 C754 1.523 . S
C754 C738 1.368 . S
C754 C750 1.368 1_455 S
C754 C753 1.523 . S
H755 C730 0.950 . S
H756 C732 0.950 1_455 S
H757 C733 0.949 . S
H758 C735 0.944 1_655 S
H759 C737 0.938 1_655 S
C760 C761 1.349 . S
C760 C762 1.327 . S
C760 H785 0.950 . S
C761 C760 1.349 . S
C761 C777 1.349 . S
C762 C760 1.327 . S
C762 C781 1.429 . S
C762 H786 0.950 . S
C763 C780 1.574 . S
C763 C782 1.368 . S
C763 H787 0.949 . S
H764 C768 0.949 . S
C765 C766 1.349 . S
C765 C767 1.327 . S
C765 H788 0.950 . S
C766 C765 1.349 . S
C766 C778 1.349 . S
C767 C765 1.327 . S
C767 C783 1.429 . S
C767 H789 0.950 . S
C768 H764 0.949 . S
C768 C776 1.574 . S
C768 C784 1.368 . S
H769 C777 0.950 . S
H770 C775 0.950 . S
H771 C776 0.949 . S
H772 C778 0.950 . S
H773 C779 0.950 . S
H774 C780 0.949 . S
C775 H770 0.950 . S
C775 C777 1.327 . S
C775 C781 1.429 . S
C776 C768 1.574 . S
C776 H771 0.949 . S
C776 C782 1.368 . S
C777 C761 1.349 . S
C777 H769 0.950 . S
C777 C775 1.327 . S
C778 C766 1.349 . S
C778 H772 0.950 . S
C778 C779 1.327 . S
C779 H773 0.950 . S
C779 C778 1.327 . S
C779 C783 1.429 . S
C780 C763 1.574 . S
C780 H774 0.949 . S
C780 C784 1.368 . S
C781 C762 1.429 . S
C781 C775 1.429 . S
C781 C782 1.523 . S
C782 C763 1.368 . S
C782 C776 1.368 . S
C782 C781 1.523 . S
C783 C767 1.429 . S
C783 C779 1.429 . S
C783 C784 1.523 . S
C784 C768 1.368 . S
C784 C780 1.368 . S
C784 C783 1.523 . S
H785 C760 0.950 . S
H786 C762 0.950 . S
H787 C763 0.949 . S
H788 C765 0.950 . S
H789 C767 0.950 . S
C790 C791 1.349 . S
C790 C792 1.327 . S
C790 H815 0.950 . S
C791 C790 1.349 . S
C791 C807 1.349 . S
C792 C790 1.327 . S
C792 C811 1.429 . S
C792 H816 0.950 . S
C793 C810 1.574 . S
C793 C812 1.368 . S
C793 H817 0.949 . S
H794 C798 0.949 . S
C795 C796 1.349 . S
C795 C797 1.327 . S
C795 H818 0.950 . S
C796 C795 1.349 . S
C796 C808 1.349 . S
C797 C795 1.327 . S
C797 C813 1.429 . S
C797 H819 0.950 . S
C798 H794 0.949 . S
C798 C806 1.574 . S
C798 C814 1.368 . S
H799 C807 0.950 . S
H800 C805 0.950 . S
H801 C806 0.949 . S
H802 C808 0.950 . S
H803 C809 0.950 . S
H804 C810 0.949 . S
C805 H800 0.950 . S
C805 C807 1.327 . S
C805 C811 1.429 . S
C806 C798 1.574 . S
C806 H801 0.949 . S
C806 C812 1.368 . S
C807 C791 1.349 . S
C807 H799 0.950 . S
C807 C805 1.327 . S
C808 C796 1.349 . S
C808 H802 0.950 . S
C808 C809 1.327 . S
C809 H803 0.950 . S
C809 C808 1.327 . S
C809 C813 1.429 . S
C810 C793 1.574 . S
C810 H804 0.949 . S
C810 C814 1.368 . S
C811 C792 1.429 . S
C811 C805 1.429 . S
C811 C812 1.523 . S
C812 C793 1.368 . S
C812 C806 1.368 . S
C812 C811 1.523 . S
C813 C797 1.429 . S
C813 C809 1.429 . S
C813 C814 1.523 . S
C814 C798 1.368 . S
C814 C810 1.368 . S
C814 C813 1.523 . S
H815 C790 0.950 . S
H816 C792 0.950 . S
H817 C793 0.949 . S
H818 C795 0.950 . S
H819 C797 0.950 . S
C820 C821 1.349 . S
C820 C822 1.327 . S
C820 H845 0.950 . S
C821 C820 1.349 . S
C821 C837 1.349 . S
C822 C820 1.327 . S
C822 C841 1.429 . S
C822 H846 0.950 . S
C823 C840 1.574 . S
C823 C842 1.368 . S
C823 H847 0.949 . S
H824 C828 0.949 . S
C825 C826 1.349 . S
C825 C827 1.327 . S
C825 H848 0.950 . S
C826 C825 1.349 . S
C826 C838 1.349 . S
C827 C825 1.327 . S
C827 C843 1.429 . S
C827 H849 0.950 . S
C828 H824 0.949 . S
C828 C836 1.574 . S
C828 C844 1.368 . S
H829 C837 0.950 . S
H830 C835 0.950 . S
H831 C836 0.949 . S
H832 C838 0.950 . S
H833 C839 0.950 . S
H834 C840 0.949 . S
C835 H830 0.950 . S
C835 C837 1.327 . S
C835 C841 1.429 . S
C836 C828 1.574 . S
C836 H831 0.949 . S
C836 C842 1.368 . S
C837 C821 1.349 . S
C837 H829 0.950 . S
C837 C835 1.327 . S
C838 C826 1.349 . S
C838 H832 0.950 . S
C838 C839 1.327 . S
C839 H833 0.950 . S
C839 C838 1.327 . S
C839 C843 1.429 . S
C840 C823 1.574 . S
C840 H834 0.949 . S
C840 C844 1.368 . S
C841 C822 1.429 . S
C841 C835 1.429 . S
C841 C842 1.523 . S
C842 C823 1.368 . S
C842 C836 1.368 . S
C842 C841 1.523 . S
C843 C827 1.429 . S
C843 C839 1.429 . S
C843 C844 1.523 . S
C844 C828 1.368 . S
C844 C840 1.368 . S
C844 C843 1.523 . S
H845 C820 0.950 . S
H846 C822 0.950 . S
H847 C823 0.949 . S
H848 C825 0.950 . S
H849 C827 0.950 . S
C850 C851 1.349 . S
C850 C852 1.327 . S
C850 H875 0.950 . S
C851 C850 1.349 . S
C851 C867 1.349 . S
C852 C850 1.327 . S
C852 C871 1.429 . S
C852 H876 0.950 . S
C853 C870 1.574 . S
C853 C872 1.368 . S
C853 H877 0.949 . S
H854 C858 0.949 . S
C855 C856 1.349 . S
C855 C857 1.327 . S
C855 H878 0.950 . S
C856 C855 1.349 . S
C856 C868 1.349 . S
C857 C855 1.327 . S
C857 C873 1.429 . S
C857 H879 0.950 . S
C858 H854 0.949 . S
C858 C866 1.574 . S
C858 C874 1.368 . S
H859 C867 0.950 . S
H860 C865 0.950 . S
H861 C866 0.949 . S
H862 C868 0.950 . S
H863 C869 0.950 . S
H864 C870 0.949 . S
C865 H860 0.950 . S
C865 C867 1.327 . S
C865 C871 1.429 . S
C866 C858 1.574 . S
C866 H861 0.949 . S
C866 C872 1.368 . S
C867 C851 1.349 . S
C867 H859 0.950 . S
C867 C865 1.327 . S
C868 C856 1.349 . S
C868 H862 0.950 . S
C868 C869 1.327 . S
C869 H863 0.950 . S
C869 C868 1.327 . S
C869 C873 1.429 . S
C870 C853 1.574 . S
C870 H864 0.949 . S
C870 C874 1.368 . S
C871 C852 1.429 . S
C871 C865 1.429 . S
C871 C872 1.523 . S
C872 C853 1.368 . S
C872 C866 1.368 . S
C872 C871 1.523 . S
C873 C857 1.429 . S
C873 C869 1.429 . S
C873 C874 1.523 . S
C874 C858 1.368 . S
C874 C870 1.368 . S
C874 C873 1.523 . S
H875 C850 0.950 . S
H876 C852 0.950 . S
H877 C853 0.949 . S
H878 C855 0.950 . S
H879 C857 0.950 . S
C161 C6 1.698 . S
C166 C16 1.698 . S
C191 C26 1.698 . S
C196 C36 1.698 . S
C221 C56 1.698 . S
C226 C46 1.698 . S
C251 C76 1.698 . S
C256 C66 1.698 . S
C281 C86 1.698 . S
C286 C96 1.698 . S
C311 C116 1.698 . S
C316 C106 1.698 . S
C341 C136 1.698 . S
C346 C126 1.698 . S
C371 C146 1.698 . S
C376 C156 1.698 . S
C401 C39 1.592 1_455 S
C406 C8 1.592 1_655 S
C431 C79 1.592 1_455 S
C436 C48 1.592 1_655 S
C461 C88 1.593 . S
C466 C119 1.593 . S
C491 C128 1.593 . S
C496 C159 1.593 . S
C521 C19 1.538 . S
C526 C108 1.538 . S
C551 C99 1.538 . S
C556 C28 1.538 . S
C581 C59 1.539 . S
C586 C148 1.539 . S
C611 C68 1.539 . S
C616 C139 1.539 . S
C641 C1 1.579 . S
C646 C61 1.610 . S
C671 C21 1.611 . S
C676 C41 1.579 . S
C701 C29 1.579 . S
C706 C49 1.610 . S
C731 C69 1.579 . S
C736 C9 1.610 . S
C761 C81 1.579 . S
C766 C141 1.610 . S
C791 C101 1.611 . S
C796 C121 1.579 . S
C821 C109 1.579 . S
C826 C129 1.610 . S
C851 C149 1.579 . S
C856 C89 1.610 . S
