# Generated by pormake.
# Topology uos, (4)-cn, num edge types: 1
# Building blocks:
#     Node 0, Type 0, BuildingBlock: NAHDIM_clean_sbu_0, # of connection points: 4
#     Node 1, Type 0, BuildingBlock: NAHDIM_clean_sbu_0, # of connection points: 4
#     Node 2, Type 0, BuildingBlock: NAHDIM_clean_sbu_0, # of connection points: 4
#     Node 3, Type 0, BuildingBlock: NAHDIM_clean_sbu_0, # of connection points: 4
#     Node 4, Type 0, BuildingBlock: NAHDIM_clean_sbu_0, # of connection points: 4
#     Node 5, Type 0, BuildingBlock: NAHDIM_clean_sbu_0, # of connection points: 4
#     Node 6, Type 0, BuildingBlock: NAHDIM_clean_sbu_0, # of connection points: 4
#     Node 7, Type 0, BuildingBlock: NAHDIM_clean_sbu_0, # of connection points: 4
#     Node 8, Type 0, BuildingBlock: NAHDIM_clean_sbu_0, # of connection points: 4
#     Node 9, Type 0, BuildingBlock: NAHDIM_clean_sbu_0, # of connection points: 4
#     Node 10, Type 0, BuildingBlock: NAHDIM_clean_sbu_0, # of connection points: 4
#     Node 11, Type 0, BuildingBlock: NAHDIM_clean_sbu_0, # of connection points: 4
#     Node 12, Type 0, BuildingBlock: NAHDIM_clean_sbu_0, # of connection points: 4
#     Node 13, Type 0, BuildingBlock: NAHDIM_clean_sbu_0, # of connection points: 4
#     Node 14, Type 0, BuildingBlock: NAHDIM_clean_sbu_0, # of connection points: 4
#     Node 15, Type 0, BuildingBlock: NAHDIM_clean_sbu_0, # of connection points: 4
#     Node 16, Type 0, BuildingBlock: NAHDIM_clean_sbu_0, # of connection points: 4
#     Node 17, Type 0, BuildingBlock: NAHDIM_clean_sbu_0, # of connection points: 4
#     Node 18, Type 0, BuildingBlock: NAHDIM_clean_sbu_0, # of connection points: 4
#     Node 19, Type 0, BuildingBlock: NAHDIM_clean_sbu_0, # of connection points: 4
#     Node 20, Type 0, BuildingBlock: NAHDIM_clean_sbu_0, # of connection points: 4
#     Node 21, Type 0, BuildingBlock: NAHDIM_clean_sbu_0, # of connection points: 4
#     Node 22, Type 0, BuildingBlock: NAHDIM_clean_sbu_0, # of connection points: 4
#     Node 23, Type 0, BuildingBlock: NAHDIM_clean_sbu_0, # of connection points: 4
#     Node 24, Type 0, BuildingBlock: NAHDIM_clean_sbu_0, # of connection points: 4
#     Node 25, Type 0, BuildingBlock: NAHDIM_clean_sbu_0, # of connection points: 4
#     Node 26, Type 0, BuildingBlock: NAHDIM_clean_sbu_0, # of connection points: 4
#     Node 27, Type 0, BuildingBlock: NAHDIM_clean_sbu_0, # of connection points: 4
#     Node 28, Type 0, BuildingBlock: NAHDIM_clean_sbu_0, # of connection points: 4
#     Node 29, Type 0, BuildingBlock: NAHDIM_clean_sbu_0, # of connection points: 4
#     Node 30, Type 0, BuildingBlock: NAHDIM_clean_sbu_0, # of connection points: 4
#     Node 31, Type 0, BuildingBlock: NAHDIM_clean_sbu_0, # of connection points: 4
#     Edge 32, Type (0, 0), BuildingBlock: XIVTED_clean_linker_0, # of connection points: 2
#     Edge 33, Type (0, 0), BuildingBlock: XIVTED_clean_linker_0, # of connection points: 2
#     Edge 34, Type (0, 0), BuildingBlock: XIVTED_clean_linker_0, # of connection points: 2
#     Edge 35, Type (0, 0), BuildingBlock: XIVTED_clean_linker_0, # of connection points: 2
#     Edge 36, Type (0, 0), BuildingBlock: XIVTED_clean_linker_0, # of connection points: 2
#     Edge 37, Type (0, 0), BuildingBlock: XIVTED_clean_linker_0, # of connection points: 2
#     Edge 38, Type (0, 0), BuildingBlock: XIVTED_clean_linker_0, # of connection points: 2
#     Edge 39, Type (0, 0), BuildingBlock: XIVTED_clean_linker_0, # of connection points: 2
#     Edge 40, Type (0, 0), BuildingBlock: XIVTED_clean_linker_0, # of connection points: 2
#     Edge 41, Type (0, 0), BuildingBlock: XIVTED_clean_linker_0, # of connection points: 2
#     Edge 42, Type (0, 0), BuildingBlock: XIVTED_clean_linker_0, # of connection points: 2
#     Edge 43, Type (0, 0), BuildingBlock: XIVTED_clean_linker_0, # of connection points: 2
#     Edge 44, Type (0, 0), BuildingBlock: XIVTED_clean_linker_0, # of connection points: 2
#     Edge 45, Type (0, 0), BuildingBlock: XIVTED_clean_linker_0, # of connection points: 2
#     Edge 46, Type (0, 0), BuildingBlock: XIVTED_clean_linker_0, # of connection points: 2
#     Edge 47, Type (0, 0), BuildingBlock: XIVTED_clean_linker_0, # of connection points: 2
#     Edge 48, Type (0, 0), BuildingBlock: XIVTED_clean_linker_0, # of connection points: 2
#     Edge 49, Type (0, 0), BuildingBlock: XIVTED_clean_linker_0, # of connection points: 2
#     Edge 50, Type (0, 0), BuildingBlock: XIVTED_clean_linker_0, # of connection points: 2
#     Edge 51, Type (0, 0), BuildingBlock: XIVTED_clean_linker_0, # of connection points: 2
#     Edge 52, Type (0, 0), BuildingBlock: XIVTED_clean_linker_0, # of connection points: 2
#     Edge 53, Type (0, 0), BuildingBlock: XIVTED_clean_linker_0, # of connection points: 2
#     Edge 54, Type (0, 0), BuildingBlock: XIVTED_clean_linker_0, # of connection points: 2
#     Edge 55, Type (0, 0), BuildingBlock: XIVTED_clean_linker_0, # of connection points: 2
#     Edge 56, Type (0, 0), BuildingBlock: XIVTED_clean_linker_0, # of connection points: 2
#     Edge 57, Type (0, 0), BuildingBlock: XIVTED_clean_linker_0, # of connection points: 2
#     Edge 58, Type (0, 0), BuildingBlock: XIVTED_clean_linker_0, # of connection points: 2
#     Edge 59, Type (0, 0), BuildingBlock: XIVTED_clean_linker_0, # of connection points: 2
#     Edge 60, Type (0, 0), BuildingBlock: XIVTED_clean_linker_0, # of connection points: 2
#     Edge 61, Type (0, 0), BuildingBlock: XIVTED_clean_linker_0, # of connection points: 2
#     Edge 62, Type (0, 0), BuildingBlock: XIVTED_clean_linker_0, # of connection points: 2
#     Edge 63, Type (0, 0), BuildingBlock: XIVTED_clean_linker_0, # of connection points: 2
#     Edge 64, Type (0, 0), BuildingBlock: XIVTED_clean_linker_0, # of connection points: 2
#     Edge 65, Type (0, 0), BuildingBlock: XIVTED_clean_linker_0, # of connection points: 2
#     Edge 66, Type (0, 0), BuildingBlock: XIVTED_clean_linker_0, # of connection points: 2
#     Edge 67, Type (0, 0), BuildingBlock: XIVTED_clean_linker_0, # of connection points: 2
#     Edge 68, Type (0, 0), BuildingBlock: XIVTED_clean_linker_0, # of connection points: 2
#     Edge 69, Type (0, 0), BuildingBlock: XIVTED_clean_linker_0, # of connection points: 2
#     Edge 70, Type (0, 0), BuildingBlock: XIVTED_clean_linker_0, # of connection points: 2
#     Edge 71, Type (0, 0), BuildingBlock: XIVTED_clean_linker_0, # of connection points: 2
#     Edge 72, Type (0, 0), BuildingBlock: XIVTED_clean_linker_0, # of connection points: 2
#     Edge 73, Type (0, 0), BuildingBlock: XIVTED_clean_linker_0, # of connection points: 2
#     Edge 74, Type (0, 0), BuildingBlock: XIVTED_clean_linker_0, # of connection points: 2
#     Edge 75, Type (0, 0), BuildingBlock: XIVTED_clean_linker_0, # of connection points: 2
#     Edge 76, Type (0, 0), BuildingBlock: XIVTED_clean_linker_0, # of connection points: 2
#     Edge 77, Type (0, 0), BuildingBlock: XIVTED_clean_linker_0, # of connection points: 2
#     Edge 78, Type (0, 0), BuildingBlock: XIVTED_clean_linker_0, # of connection points: 2
#     Edge 79, Type (0, 0), BuildingBlock: XIVTED_clean_linker_0, # of connection points: 2
#     Edge 80, Type (0, 0), BuildingBlock: XIVTED_clean_linker_0, # of connection points: 2
#     Edge 81, Type (0, 0), BuildingBlock: XIVTED_clean_linker_0, # of connection points: 2
#     Edge 82, Type (0, 0), BuildingBlock: XIVTED_clean_linker_0, # of connection points: 2
#     Edge 83, Type (0, 0), BuildingBlock: XIVTED_clean_linker_0, # of connection points: 2
#     Edge 84, Type (0, 0), BuildingBlock: XIVTED_clean_linker_0, # of connection points: 2
#     Edge 85, Type (0, 0), BuildingBlock: XIVTED_clean_linker_0, # of connection points: 2
#     Edge 86, Type (0, 0), BuildingBlock: XIVTED_clean_linker_0, # of connection points: 2
#     Edge 87, Type (0, 0), BuildingBlock: XIVTED_clean_linker_0, # of connection points: 2
#     Edge 88, Type (0, 0), BuildingBlock: XIVTED_clean_linker_0, # of connection points: 2
#     Edge 89, Type (0, 0), BuildingBlock: XIVTED_clean_linker_0, # of connection points: 2
#     Edge 90, Type (0, 0), BuildingBlock: XIVTED_clean_linker_0, # of connection points: 2
#     Edge 91, Type (0, 0), BuildingBlock: XIVTED_clean_linker_0, # of connection points: 2
#     Edge 92, Type (0, 0), BuildingBlock: XIVTED_clean_linker_0, # of connection points: 2
#     Edge 93, Type (0, 0), BuildingBlock: XIVTED_clean_linker_0, # of connection points: 2
#     Edge 94, Type (0, 0), BuildingBlock: XIVTED_clean_linker_0, # of connection points: 2
#     Edge 95, Type (0, 0), BuildingBlock: XIVTED_clean_linker_0, # of connection points: 2
# Relax obj value: 0.053
# Max RMSD: 0.085
# Mean RMSD: 0.085
data_MOF--net-uos--node1-NAHDIM_clean_sbu_0--edge1-XIVTED_clean_linker_0
_symmetry_space_group_name_H-M    P1
_symmetry_Int_Tables_number       1
_symmetry_cell_setting            triclinic
loop_
_symmetry_equiv_pos_as_xyz
'x, y, z'
_cell_length_a     85.216
_cell_length_b     85.14377
_cell_length_c     23.929939
_cell_angle_alpha  89.973822
_cell_angle_beta   89.968504
_cell_angle_gamma 89.973454
loop_
_atom_site_label
_atom_site_type_symbol
_atom_site_fract_x
_atom_site_fract_y
_atom_site_fract_z
_atom_type_partial_charge
C0 C 0.14894 0.12901 0.07779 0.0
O1 O 0.1429 0.12457 0.12578 0.0
O2 O 0.15434 0.17819 0.11797 0.0
Zn3 Zn 0.15931 0.15603 0.14162 0.0
O4 O 0.14489 0.1494 0.2039 0.0
C5 C 0.18836 0.16776 0.18519 0.0
O6 O 0.18047 0.181 0.18331 0.0
O7 O 0.15657 0.14181 0.07516 0.0
C8 C 0.14758 0.15319 0.25434 0.0
O9 O 0.15994 0.16178 0.26608 0.0
C10 C 0.14266 0.18608 0.13551 0.0
O11 O 0.1325 0.17943 0.16935 0.0
O12 O 0.18176 0.15516 0.16896 0.0
C13 C 0.09095 0.89538 0.27429 0.0
O14 O 0.08079 0.88752 0.30469 0.0
O15 O 0.06104 0.91482 0.3538 0.0
Zn16 Zn 0.0846 0.91581 0.36146 0.0
O17 O 0.09189 0.90077 0.42014 0.0
C18 C 0.08311 0.94928 0.36474 0.0
O19 O 0.07251 0.94679 0.32589 0.0
O20 O 0.09478 0.90915 0.28948 0.0
C21 C 0.08905 0.90269 0.47175 0.0
O22 O 0.08091 0.91498 0.48799 0.0
C23 C 0.0526 0.90389 0.37394 0.0
O24 O 0.0593 0.89228 0.40109 0.0
O25 O 0.09057 0.93766 0.38476 0.0
C26 C 0.34931 0.86209 0.58056 0.0
O27 O 0.3567 0.85947 0.62778 0.0
O28 O 0.33043 0.82166 0.62929 0.0
Zn29 Zn 0.32578 0.84472 0.63806 0.0
O30 O 0.33429 0.85285 0.71066 0.0
C31 C 0.29305 0.83747 0.62212 0.0
O32 O 0.29873 0.82585 0.59214 0.0
O33 O 0.3354 0.85693 0.57454 0.0
C34 C 0.33861 0.84439 0.75159 0.0
O35 O 0.33786 0.82902 0.74785 0.0
C36 C 0.34405 0.81556 0.63001 0.0
O37 O 0.35638 0.82462 0.63656 0.0
O38 O 0.30242 0.84751 0.6427 0.0
C39 C 0.40014 0.09746 0.77648 0.0
O40 O 0.41024 0.10585 0.80519 0.0
O41 O 0.4297 0.08228 0.86273 0.0
Zn42 Zn 0.40639 0.07815 0.86783 0.0
O43 O 0.39627 0.09168 0.92666 0.0
C44 C 0.4132 0.04901 0.92006 0.0
O45 O 0.42527 0.05736 0.93673 0.0
O46 O 0.39629 0.08396 0.79459 0.0
C47 C 0.40017 0.09156 0.97787 0.0
O48 O 0.4116 0.08233 -0.00551 0.0
C49 C 0.43679 0.09393 0.88432 0.0
O50 O 0.42873 0.10462 0.91156 0.0
O51 O 0.40313 0.05528 0.88775 0.0
C52 C 0.14087 0.84091 0.94843 0.0
O53 O 0.13224 0.83062 0.92145 0.0
O54 O 0.15739 0.80889 0.87528 0.0
Zn55 Zn 0.15952 0.83208 0.8599 0.0
O56 O 0.14404 0.83964 0.80265 0.0
C57 C 0.18782 0.82579 0.80146 0.0
O58 O 0.18052 0.81234 0.79473 0.0
O59 O 0.15456 0.84391 0.93032 0.0
C60 C 0.14446 0.83591 0.7513 0.0
O61 O 0.1551 0.82591 0.73369 0.0
C62 C 0.14679 0.80003 0.85532 0.0
O63 O 0.13589 0.80604 0.82299 0.0
O64 O 0.18132 0.83648 0.83056 0.0
C65 C 0.4086 0.90787 0.25846 0.0
O66 O 0.42396 0.90906 0.25995 0.0
O67 O 0.43507 0.90734 0.14173 0.0
Zn68 Zn 0.41209 0.91261 0.13817 0.0
O69 O 0.40142 0.89817 0.08419 0.0
C70 C 0.40734 0.93848 0.06122 0.0
O71 O 0.4058 0.92712 0.02453 0.0
O72 O 0.40149 0.90944 0.21217 0.0
C73 C 0.38683 0.9 0.07559 0.0
O74 O 0.37931 0.91121 0.10219 0.0
C75 C 0.4422 0.90485 0.09594 0.0
O76 O 0.43423 0.90538 0.04899 0.0
O77 O 0.4099 0.93508 0.1122 0.0
C78 C 0.34927 0.14957 0.44799 0.0
O79 O 0.35813 0.15832 0.41558 0.0
O80 O 0.33371 0.18382 0.38359 0.0
Zn81 Zn 0.32855 0.16104 0.36937 0.0
O82 O 0.34138 0.15251 0.306 0.0
C83 C 0.29875 0.17098 0.32957 0.0
O84 O 0.30686 0.18392 0.32223 0.0
O85 O 0.33469 0.14861 0.43735 0.0
C86 C 0.33826 0.15435 0.25455 0.0
O87 O 0.32596 0.1627 0.2399 0.0
C88 C 0.34475 0.19137 0.36006 0.0
O89 O 0.35403 0.1841 0.32468 0.0
O90 O 0.3055 0.15903 0.35058 0.0
C91 C 0.11214 0.08248 0.71987 0.0
O92 O 0.11938 0.08585 0.67288 0.0
O93 O 0.06363 0.07931 0.65879 0.0
Zn94 Zn 0.08664 0.07611 0.64498 0.0
O95 O 0.09492 0.09279 0.59313 0.0
C96 C 0.08028 0.0519 0.56798 0.0
O97 O 0.06918 0.06201 0.55561 0.0
O98 O 0.0981 0.07747 0.71816 0.0
C99 C 0.087 0.09892 0.55375 0.0
O100 O 0.0723 0.09477 0.54659 0.0
C101 C 0.05755 0.09254 0.67045 0.0
O102 O 0.0666 0.10496 0.67475 0.0
O103 O 0.08969 0.05508 0.60762 0.0
C104 C 0.85415 0.85401 0.90971 0.0
O105 O 0.86487 0.85104 0.8717 0.0
O106 O 0.84292 0.81363 0.84267 0.0
Zn107 Zn 0.83606 0.83606 0.83354 0.0
O108 O 0.84706 0.84626 0.7689 0.0
C109 C 0.80391 0.82514 0.82832 0.0
O110 O 0.80929 0.81355 0.8591 0.0
O111 O 0.84041 0.8485 0.90324 0.0
C112 C 0.8422 0.85992 0.75644 0.0
O113 O 0.83099 0.86625 0.78671 0.0
C114 C 0.84317 0.80486 0.79976 0.0
O115 O 0.83995 0.81102 0.75073 0.0
O116 O 0.81307 0.83627 0.8147 0.0
C117 C 0.88419 0.09438 0.70798 0.0
O118 O 0.87815 0.09849 0.65962 0.0
O119 O 0.93267 0.08546 0.65473 0.0
Zn120 Zn 0.90966 0.08417 0.63839 0.0
O121 O 0.90375 0.10057 0.58204 0.0
C122 C 0.89721 0.05945 0.56548 0.0
O123 O 0.88951 0.07082 0.54046 0.0
O124 O 0.89751 0.08768 0.70915 0.0
C125 C 0.91052 0.1017 0.53494 0.0
O126 O 0.922 0.09199 0.52265 0.0
C127 C 0.94035 0.09818 0.65916 0.0
O128 O 0.93302 0.11167 0.65367 0.0
O129 O 0.90571 0.06256 0.60769 0.0
C130 C 0.64662 0.14453 0.45528 0.0
O131 O 0.6379 0.15276 0.42081 0.0
O132 O 0.66098 0.17694 0.38026 0.0
Zn133 Zn 0.66706 0.15405 0.37322 0.0
O134 O 0.65453 0.14378 0.31229 0.0
C135 C 0.69582 0.16389 0.32558 0.0
O136 O 0.68678 0.17597 0.31412 0.0
O137 O 0.66116 0.14301 0.44464 0.0
C138 C 0.65621 0.14674 0.26061 0.0
O139 O 0.66671 0.15709 0.24462 0.0
C140 C 0.64935 0.18318 0.35544 0.0
O141 O 0.64018 0.17443 0.32427 0.0
O142 O 0.69016 0.15252 0.35364 0.0
C143 C 0.59507 0.904 0.23077 0.0
O144 O 0.58003 0.90728 0.23366 0.0
O145 O 0.56763 0.904 0.11934 0.0
Zn146 Zn 0.59066 0.90905 0.1123 0.0
O147 O 0.60025 0.8952 0.05383 0.0
C148 C 0.58283 0.94168 0.10521 0.0
O149 O 0.57158 0.93727 0.13937 0.0
O150 O 0.60197 0.90461 0.18381 0.0
C151 C 0.60267 0.89997 0.0043 0.0
O152 O 0.59864 0.91435 0.99043 0.0
C153 C 0.55937 0.90313 0.07527 0.0
O154 O 0.56617 0.90506 0.0265 0.0
O155 O 0.59295 0.93165 0.08953 0.0
C156 C 0.84436 0.13658 0.06981 0.0
O157 O 0.84728 0.12976 0.11795 0.0
O158 O 0.8362 0.18517 0.12825 0.0
Zn159 Zn 0.83534 0.16193 0.14142 0.0
O160 O 0.85166 0.1556 0.1972 0.0
C161 C 0.80234 0.16353 0.14801 0.0
O162 O 0.8049 0.1723 0.10375 0.0
O163 O 0.83893 0.15048 0.06933 0.0
C164 C 0.85156 0.16129 0.24621 0.0
O165 O 0.84084 0.17173 0.25957 0.0
C166 C 0.8486 0.19315 0.12075 0.0
O167 O 0.8623 0.18606 0.12113 0.0
O168 O 0.81394 0.157 0.17193 0.0
C169 C 0.59383 0.09516 0.78547 0.0
O170 O 0.58452 0.10424 0.81498 0.0
O171 O 0.56132 0.08114 0.86123 0.0
Zn172 Zn 0.58425 0.07602 0.872 0.0
O173 O 0.5938 0.08946 0.93184 0.0
C174 C 0.5749 0.04728 0.92215 0.0
O175 O 0.56221 0.05573 0.93033 0.0
O176 O 0.59589 0.08104 0.80113 0.0
C177 C 0.59101 0.08766 0.98358 0.0
O178 O 0.58102 0.07683 -0.0003 0.0
C179 C 0.55416 0.09242 0.8849 0.0
O180 O 0.56198 0.10205 0.91746 0.0
O181 O 0.58634 0.05329 0.89547 0.0
C182 C 0.64766 0.84354 0.53512 0.0
O183 O 0.63848 0.83711 0.57282 0.0
O184 O 0.66264 0.80555 0.59196 0.0
Zn185 Zn 0.66856 0.82814 0.60475 0.0
O186 O 0.65677 0.83741 0.66918 0.0
C187 C 0.69747 0.81837 0.6514 0.0
O188 O 0.68867 0.80615 0.6633 0.0
O189 O 0.66236 0.84106 0.53786 0.0
C190 C 0.65652 0.8328 0.7196 0.0
O191 O 0.66449 0.82026 0.73428 0.0
C192 C 0.65023 0.79908 0.61034 0.0
O193 O 0.64005 0.80746 0.63879 0.0
O194 O 0.69158 0.8296 0.62331 0.0
C195 C 0.88248 0.91444 0.25416 0.0
O196 O 0.87305 0.91463 0.29756 0.0
O197 O 0.92899 0.92183 0.33169 0.0
Zn198 Zn 0.90568 0.92537 0.33403 0.0
O199 O 0.89637 0.91222 0.39576 0.0
C200 C 0.90852 0.95196 0.39942 0.0
O201 O 0.91667 0.94132 0.42669 0.0
O202 O 0.89656 0.91908 0.25979 0.0
C203 C 0.88446 0.91713 0.42257 0.0
O204 O 0.87799 0.93054 0.40816 0.0
C205 C 0.93529 0.90915 0.34844 0.0
O206 O 0.92633 0.89771 0.36686 0.0
O207 O 0.90212 0.94812 0.35343 0.0
C208 C 0.65864 0.62559 0.57297 0.0
O209 O 0.65481 0.6197 0.62186 0.0
O210 O 0.65962 0.67547 0.61639 0.0
Zn211 Zn 0.66479 0.65329 0.63851 0.0
O212 O 0.64946 0.64538 0.69591 0.0
C213 C 0.6918 0.66521 0.69558 0.0
O214 O 0.68331 0.67809 0.6948 0.0
O215 O 0.66367 0.63962 0.57018 0.0
C216 C 0.64899 0.6511 0.74489 0.0
O217 O 0.65829 0.66285 0.75769 0.0
C218 C 0.64664 0.68231 0.62599 0.0
O219 O 0.63523 0.67453 0.65034 0.0
O220 O 0.68647 0.65285 0.67256 0.0
C221 C 0.58979 0.39406 0.76834 0.0
O222 O 0.58102 0.38551 0.80172 0.0
O223 O 0.55773 0.41252 0.84364 0.0
Zn224 Zn 0.58123 0.41516 0.85114 0.0
O225 O 0.58947 0.40101 0.91144 0.0
C226 C 0.57613 0.44523 0.89964 0.0
O227 O 0.56241 0.43875 0.90937 0.0
O228 O 0.59182 0.40849 0.77986 0.0
C229 C 0.58587 0.40243 0.96269 0.0
O230 O 0.57617 0.41361 0.97812 0.0
C231 C 0.55031 0.40091 0.86415 0.0
O232 O 0.5581 0.38978 0.89011 0.0
O233 O 0.5864 0.4375 0.8726 0.0
C234 C 0.82929 0.34294 0.98826 0.0
O235 O 0.8231 0.32883 0.98541 0.0
O236 O 0.82654 0.31631 0.10146 0.0
Zn237 Zn 0.82239 0.33954 0.10553 0.0
O238 O 0.83413 0.34903 0.16979 0.0
C239 C 0.78941 0.33303 0.10202 0.0
O240 O 0.79413 0.32163 0.06908 0.0
O241 O 0.82962 0.35001 0.03496 0.0
C242 C 0.84093 0.34104 0.20756 0.0
O243 O 0.84058 0.32564 0.20536 0.0
C244 C 0.83973 0.31023 0.0893 0.0
O245 O 0.85174 0.31941 0.07847 0.0
O246 O 0.79943 0.34278 0.12041 0.0
C247 C 0.89551 0.59713 0.3173 0.0
O248 O 0.90369 0.60505 0.3543 0.0
O249 O 0.92789 0.57964 0.38583 0.0
Zn250 Zn 0.9049 0.57448 0.39275 0.0
O251 O 0.89458 0.58557 0.4573 0.0
C252 C 0.91276 0.54504 0.4375 0.0
O253 O 0.92364 0.55405 0.45937 0.0
O254 O 0.89404 0.58237 0.32354 0.0
C255 C 0.89901 0.58575 0.50798 0.0
O256 O 0.91189 0.57834 0.52255 0.0
C257 C 0.93522 0.5907 0.41004 0.0
O258 O 0.92761 0.60032 0.4433 0.0
O259 O 0.90284 0.55106 0.40407 0.0
C260 C 0.63851 0.33979 0.43994 0.0
O261 O 0.62991 0.3295 0.41285 0.0
O262 O 0.65376 0.30835 0.36289 0.0
Zn263 Zn 0.65706 0.33155 0.35006 0.0
O264 O 0.64231 0.33997 0.29189 0.0
C265 C 0.68551 0.32413 0.2944 0.0
O266 O 0.67778 0.31092 0.28779 0.0
O267 O 0.65208 0.34308 0.42124 0.0
C268 C 0.64302 0.33618 0.24063 0.0
O269 O 0.65343 0.32578 0.22427 0.0
C270 C 0.64258 0.3003 0.34262 0.0
O271 O 0.63184 0.30723 0.31199 0.0
O272 O 0.67923 0.33514 0.3226 0.0
C273 C 0.89835 0.38361 0.68254 0.0
O274 O 0.90371 0.37353 0.64561 0.0
O275 O 0.93766 0.39932 0.62308 0.0
Zn276 Zn 0.91482 0.40387 0.61035 0.0
O277 O 0.90633 0.39151 0.54573 0.0
C278 C 0.91399 0.4313 0.5418 0.0
O279 O 0.91702 0.4208 0.50307 0.0
O280 O 0.90202 0.39802 0.67777 0.0
C281 C 0.89242 0.39476 0.53057 0.0
O282 O 0.88467 0.40582 0.55716 0.0
C283 C 0.94513 0.3884 0.59856 0.0
O284 O 0.93764 0.37903 0.5641 0.0
O285 O 0.91256 0.42689 0.59237 0.0
C286 C 0.84709 0.65405 0.99414 0.0
O287 O 0.85575 0.66464 0.96872 0.0
O288 O 0.83467 0.68212 0.89346 0.0
Zn289 Zn 0.82865 0.65922 0.89778 0.0
O290 O 0.84101 0.64725 0.84042 0.0
C291 C 0.79604 0.6681 0.88874 0.0
O292 O 0.80102 0.68112 0.91224 0.0
O293 O 0.83411 0.65003 0.97244 0.0
C294 C 0.83512 0.64319 0.79388 0.0
O295 O 0.82053 0.64698 0.7824 0.0
C296 C 0.83533 0.68858 0.84562 0.0
O297 O 0.83221 0.68013 0.8011 0.0
O298 O 0.80565 0.65691 0.88088 0.0
C299 C 0.61815 0.58255 0.21582 0.0
O300 O 0.62441 0.58588 0.16707 0.0
O301 O 0.56878 0.58045 0.16419 0.0
Zn302 Zn 0.59129 0.5752 0.148 0.0
O303 O 0.59932 0.58975 0.08859 0.0
C304 C 0.60151 0.54775 0.08455 0.0
O305 O 0.61325 0.55668 0.06849 0.0
O306 O 0.60416 0.57741 0.21785 0.0
C307 C 0.59357 0.58943 0.03965 0.0
O308 O 0.58225 0.57946 0.02827 0.0
C309 C 0.56287 0.59396 0.15606 0.0
O310 O 0.57189 0.60547 0.1386 0.0
O311 O 0.59152 0.55311 0.11908 0.0
C312 C 0.33165 0.34295 0.50464 0.0
O313 O 0.32947 0.3277 0.50732 0.0
O314 O 0.33346 0.31507 0.39516 0.0
Zn315 Zn 0.32857 0.33805 0.38547 0.0
O316 O 0.34336 0.34778 0.33083 0.0
C317 C 0.29623 0.33023 0.36906 0.0
O318 O 0.29951 0.3197 0.40746 0.0
O319 O 0.33106 0.34976 0.45749 0.0
C320 C 0.34313 0.34391 0.27964 0.0
O321 O 0.33326 0.33304 0.26286 0.0
C322 C 0.34627 0.30853 0.38096 0.0
O323 O 0.35763 0.31709 0.35976 0.0
O324 O 0.30677 0.33995 0.35443 0.0
C325 C 0.40548 0.60473 0.21935 0.0
O326 O 0.41483 0.61322 0.18787 0.0
O327 O 0.43777 0.58736 0.14888 0.0
Zn328 Zn 0.41452 0.5848 0.1352 0.0
O329 O 0.40683 0.59989 0.07681 0.0
C330 C 0.42074 0.55635 0.07816 0.0
O331 O 0.43398 0.56391 0.07013 0.0
O332 O 0.40302 0.5905 0.20591 0.0
C333 C 0.41127 0.6001 0.02617 0.0
O334 O 0.42198 0.59009 0.00918 0.0
C335 C 0.446 0.59886 0.13195 0.0
O336 O 0.4393 0.61027 0.10371 0.0
O337 O 0.41013 0.56272 0.10794 0.0
C338 C 0.14456 0.6428 0.91683 0.0
O339 O 0.13652 0.65121 0.88077 0.0
O340 O 0.15957 0.67574 0.84786 0.0
Zn341 Zn 0.16687 0.65336 0.84266 0.0
O342 O 0.15766 0.64309 0.77492 0.0
C343 C 0.19382 0.66155 0.788 0.0
O344 O 0.18252 0.66864 0.76038 0.0
O345 O 0.15933 0.64162 0.91044 0.0
C346 C 0.14709 0.64923 0.74458 0.0
O347 O 0.14133 0.66304 0.75799 0.0
C348 C 0.16484 0.68451 0.88639 0.0
O349 O 0.1748 0.67865 0.92274 0.0
O350 O 0.19025 0.65346 0.83087 0.0
C351 C 0.10831 0.39291 0.67105 0.0
O352 O 0.1044 0.38263 0.63256 0.0
O353 O 0.06825 0.40618 0.61097 0.0
Zn354 Zn 0.09073 0.41226 0.59828 0.0
O355 O 0.09968 0.40077 0.53231 0.0
C356 C 0.08732 0.43931 0.53183 0.0
O357 O 0.0827 0.42837 0.49684 0.0
O358 O 0.1036 0.40701 0.66613 0.0
C359 C 0.11348 0.40442 0.51719 0.0
O360 O 0.12113 0.41522 0.54541 0.0
C361 C 0.06204 0.3939 0.59051 0.0
O362 O 0.07062 0.38433 0.56016 0.0
O363 O 0.0915 0.43536 0.58086 0.0
C364 C 0.35628 0.6593 0.54634 0.0
O365 O 0.36463 0.6698 0.57336 0.0
O366 O 0.33834 0.68986 0.62823 0.0
Zn367 Zn 0.33687 0.66635 0.63682 0.0
O368 O 0.3518 0.65875 0.69517 0.0
C369 C 0.30355 0.66822 0.63808 0.0
O370 O 0.30645 0.67835 0.59794 0.0
O371 O 0.3428 0.65567 0.56501 0.0
C372 C 0.34978 0.66149 0.74678 0.0
O373 O 0.33764 0.66988 0.76278 0.0
C374 C 0.34972 0.69815 0.64571 0.0
O375 O 0.36162 0.6913 0.6707 0.0
O376 O 0.31493 0.66096 0.66052 0.0
C377 C 0.08668 0.59524 0.2396 0.0
O378 O 0.07439 0.60272 0.25945 0.0
O379 O 0.05896 0.58209 0.33901 0.0
Zn380 Zn 0.08231 0.5784 0.34058 0.0
O381 O 0.09215 0.5923 0.39804 0.0
C382 C 0.08408 0.55211 0.41286 0.0
O383 O 0.08013 0.56303 0.44899 0.0
O384 O 0.09216 0.58364 0.26667 0.0
C385 C 0.10611 0.58997 0.41453 0.0
O386 O 0.11426 0.57838 0.3928 0.0
C387 C 0.05217 0.59049 0.37572 0.0
O388 O 0.06058 0.59721 0.41494 0.0
O389 O 0.08597 0.55586 0.36186 0.0
C390 C 0.16204 0.35617 0.0184 0.0
O391 O 0.16253 0.36515 0.06297 0.0
O392 O 0.1618 0.3083 0.0898 0.0
Zn393 Zn 0.16854 0.33082 0.09697 0.0
O394 O 0.15638 0.34159 0.15833 0.0
C395 C 0.19388 0.32282 0.16412 0.0
O396 O 0.18224 0.31499 0.1869 0.0
O397 O 0.16478 0.34156 0.0232 0.0
C398 C 0.16305 0.35262 0.18508 0.0
O399 O 0.17729 0.35693 0.17061 0.0
C400 C 0.14924 0.3027 0.11035 0.0
O401 O 0.13959 0.31201 0.13749 0.0
O402 O 0.19124 0.33084 0.12026 0.0
C403 C 0.38823 0.39855 0.81069 0.0
O404 O 0.39545 0.38959 0.84724 0.0
O405 O 0.42564 0.4166 0.8656 0.0
Zn406 Zn 0.40266 0.42028 0.88041 0.0
O407 O 0.39563 0.40704 0.94469 0.0
C408 C 0.40854 0.45335 0.88096 0.0
O409 O 0.41896 0.44921 0.84323 0.0
O410 O 0.38978 0.41337 0.81424 0.0
C411 C 0.39905 0.40912 -0.00428 0.0
O412 O 0.40798 0.42102 0.01015 0.0
C413 C 0.43302 0.40455 0.88276 0.0
O414 O 0.42543 0.39363 0.91053 0.0
O415 O 0.39946 0.44296 0.90107 0.0
H416 H 0.28035 0.19541 0.29651 0.0
H417 H 0.20725 0.14228 0.20707 0.0
H418 H 0.27953 0.14514 0.32011 0.0
H419 H 0.20636 0.19295 0.2138 0.0
H420 H 0.23403 0.1427 0.24446 0.0
H421 H 0.25349 0.19436 0.2624 0.0
C422 C 0.2745 0.18413 0.29465 0.0
C423 C 0.28221 0.17033 0.31115 0.0
C424 C 0.22793 0.1537 0.23781 0.0
C425 C 0.25136 0.16904 0.27172 0.0
C426 C 0.21268 0.15347 0.21631 0.0
C427 C 0.20456 0.1676 0.20721 0.0
C428 C 0.23511 0.16815 0.24987 0.0
C429 C 0.21214 0.18176 0.22012 0.0
C430 C 0.25912 0.18354 0.2752 0.0
C431 C 0.274 0.15607 0.30793 0.0
N432 N 0.22698 0.18167 0.2406 0.0
N433 N 0.25902 0.15577 0.28829 0.0
H434 H 0.10255 0.95825 0.45038 0.0
H435 H 0.06334 0.04319 0.47654 0.0
H436 H 0.06744 0.97621 0.33708 0.0
H437 H 0.10061 0.02722 0.58472 0.0
H438 H 0.06548 0.01895 0.42334 0.0
H439 H 0.10306 0.98371 0.49761 0.0
C440 C 0.09506 0.96758 0.43505 0.0
C441 C 0.08485 0.96505 0.38989 0.0
C442 C 0.07324 0.02073 0.45857 0.0
C443 C 0.08529 0.99415 0.4441 0.0
C444 C 0.072 0.03458 0.48916 0.0
C445 C 0.08176 0.03722 0.5354 0.0
C446 C 0.08429 0.00932 0.47435 0.0
C447 C 0.09282 0.02565 0.54947 0.0
C448 C 0.09534 0.9821 0.46215 0.0
C449 C 0.07544 0.97758 0.37185 0.0
N450 N 0.09373 0.01215 0.51919 0.0
N451 N 0.07581 0.99154 0.39924 0.0
H452 H 0.20698 0.85172 0.8077 0.0
H453 H 0.27042 0.81591 0.59593 0.0
H454 H 0.20292 0.80631 0.72875 0.0
H455 H 0.27784 0.85863 0.68943 0.0
H456 H 0.24415 0.81395 0.63591 0.0
H457 H 0.23177 0.8559 0.758 0.0
C458 C 0.21129 0.84263 0.77999 0.0
C459 C 0.20291 0.8286 0.77265 0.0
C460 C 0.25148 0.82382 0.6474 0.0
C461 C 0.23114 0.83336 0.71538 0.0
C462 C 0.26647 0.82499 0.62433 0.0
C463 C 0.27641 0.83737 0.63974 0.0
C464 C 0.24638 0.83511 0.68618 0.0
C465 C 0.27061 0.84882 0.67664 0.0
C466 C 0.22542 0.84504 0.75155 0.0
C467 C 0.20901 0.81727 0.73601 0.0
N468 N 0.25602 0.84735 0.69895 0.0
N469 N 0.22274 0.81989 0.70884 0.0
H470 H 0.39386 0.02583 0.87946 0.0
H471 H 0.41665 0.96454 0.11918 0.0
H472 H 0.42804 0.03531 0.00818 0.0
H473 H 0.39699 0.95008 0.96113 0.0
H474 H 0.41711 0.99167 0.08569 0.0
H475 H 0.3913 -0.0011 0.91522 0.0
C476 C 0.40077 0.02226 0.91525 0.0
C477 C 0.41123 0.03278 0.94072 0.0
C478 C 0.41266 0.98255 0.05842 0.0
C479 C 0.40823 0.00221 0.982 0.0
C480 C 0.41233 0.96708 0.07758 0.0
C481 C 0.40686 0.95503 0.04275 0.0
C482 C 0.40731 0.98602 0.00431 0.0
C483 C 0.40141 0.95901 0.9892 0.0
C484 C 0.39934 0.00692 0.9355 0.0
C485 C 0.41992 0.02757 0.98698 0.0
N486 N 0.40176 0.97419 0.97158 0.0
N487 N 0.41818 0.01268 0.00623 0.0
H488 H 0.78193 0.80204 0.84218 0.0
H489 H 0.71863 0.84253 0.64076 0.0
H490 H 0.78937 0.8467 0.76085 0.0
H491 H 0.71271 0.79683 0.71618 0.0
H492 H 0.74444 0.84455 0.68504 0.0
H493 H 0.75614 0.80039 0.79832 0.0
C494 C 0.77811 0.81155 0.81539 0.0
C495 C 0.78784 0.82452 0.80514 0.0
C496 C 0.73749 0.83407 0.69174 0.0
C497 C 0.75834 0.82266 0.75439 0.0
C498 C 0.72278 0.83289 0.66634 0.0
C499 C 0.71348 0.81949 0.67479 0.0
C500 C 0.74291 0.82178 0.7259 0.0
C501 C 0.71945 0.80738 0.70847 0.0
C502 C 0.76339 0.81058 0.79016 0.0
C503 C 0.78226 0.83648 0.76992 0.0
N504 N 0.73375 0.80883 0.73287 0.0
N505 N 0.76789 0.83524 0.74572 0.0
H506 H 0.9203 0.96291 0.49767 0.0
H507 H 0.8832 0.04891 0.46906 0.0
H508 H 0.89177 0.97697 0.3572 0.0
H509 H 0.91149 0.03337 0.60819 0.0
H510 H 0.88526 0.0226 0.42825 0.0
H511 H 0.91652 0.9887 0.53901 0.0
C512 C 0.91324 0.97144 0.47539 0.0
C513 C 0.90638 0.96777 0.42377 0.0
C514 C 0.89094 0.02496 0.46782 0.0
C515 C 0.90194 -0.00254 0.4712 0.0
C516 C 0.88974 0.03996 0.49124 0.0
C517 C 0.89724 0.04338 0.54204 0.0
C518 C 0.89971 0.01334 0.49545 0.0
C519 C 0.90556 0.03132 0.56887 0.0
C520 C 0.91106 0.98619 0.49915 0.0
C521 C 0.89732 0.97932 0.39701 0.0
N522 N 0.90661 0.01689 0.54515 0.0
N523 N 0.89537 0.99368 0.42104 0.0
H524 H 0.71904 0.14197 0.34468 0.0
H525 H 0.77604 0.17915 0.11451 0.0
H526 H 0.70895 0.18419 0.2513 0.0
H527 H 0.79234 0.14557 0.2367 0.0
H528 H 0.75021 0.17867 0.15799 0.0
H529 H 0.74507 0.14099 0.30054 0.0
C530 C 0.7223 0.15103 0.31511 0.0
C531 C 0.71181 0.16319 0.30172 0.0
C532 C 0.75942 0.17138 0.17532 0.0
C533 C 0.74135 0.16202 0.25083 0.0
C534 C 0.77417 0.17159 0.15032 0.0
C535 C 0.78641 0.16244 0.17214 0.0
C536 C 0.75679 0.16188 0.22237 0.0
C537 C 0.78325 0.15286 0.21866 0.0
C538 C 0.73712 0.15046 0.28999 0.0
C539 C 0.71663 0.17462 0.26309 0.0
N540 N 0.76873 0.15283 0.24233 0.0
N541 N 0.73098 0.17371 0.23891 0.0
H542 H 0.55327 0.03253 0.98762 0.0
H543 H 0.60416 0.95469 0.03282 0.0
H544 H 0.59938 0.02626 0.91606 0.0
H545 H 0.56118 0.96492 0.12133 0.0
H546 H 0.60259 0.98045 0.98779 0.0
H547 H 0.55573 0.00719 0.03373 0.0
C548 C 0.56392 0.0258 0.98137 0.0
C549 C 0.57615 0.03155 0.94788 0.0
C550 C 0.59356 0.97708 0.0173 0.0
C551 C 0.57906 0.00244 0.001 0.0
C552 C 0.59445 0.96239 0.0431 0.0
C553 C 0.58275 0.95763 0.08085 0.0
C554 C 0.58083 0.98702 0.02908 0.0
C555 C 0.57046 0.96808 0.09252 0.0
C556 C 0.56533 0.01133 0.00798 0.0
C557 C 0.58966 0.02227 0.9415 0.0
N558 N 0.56978 0.98223 0.06653 0.0
N559 N 0.59076 0.00815 0.96783 0.0
H560 H 0.71273 0.64084 0.70569 0.0
H561 H 0.7731 0.69059 0.89127 0.0
H562 H 0.70546 0.68919 0.75361 0.0
H563 H 0.78239 0.64344 0.8336 0.0
H564 H 0.74741 0.68954 0.84638 0.0
H565 H 0.73764 0.64095 0.75655 0.0
C566 C 0.71637 0.65147 0.72682 0.0
C567 C 0.70702 0.66504 0.72522 0.0
C568 C 0.75504 0.67939 0.84374 0.0
C569 C 0.73543 0.66522 0.78372 0.0
C570 C 0.76969 0.67996 0.86956 0.0
C571 C 0.77995 0.66711 0.86601 0.0
C572 C 0.75057 0.66587 0.81412 0.0
C573 C 0.77488 0.65365 0.8373 0.0
C574 C 0.73058 0.65152 0.75592 0.0
C575 C 0.7123 0.67847 0.75352 0.0
N576 N 0.76058 0.6534 0.81225 0.0
N577 N 0.72614 0.67821 0.78156 0.0
H578 H 0.55739 0.46332 0.96581 0.0
H579 H 0.61981 0.53244 0.00706 0.0
H580 H 0.60344 0.46229 0.89048 0.0
H581 H 0.577 0.52774 0.10229 0.0
H582 H 0.61392 0.50751 0.96035 0.0
H583 H 0.56404 0.48798 0.01115 0.0
C584 C 0.5689 0.46831 0.95854 0.0
C585 C 0.57989 0.46069 0.92435 0.0
C586 C 0.60588 0.51193 0.99168 0.0
C587 C 0.58764 0.48901 0.9766 0.0
C588 C 0.60924 0.52614 0.01842 0.0
C589 C 0.59887 0.53221 0.0586 0.0
C590 C 0.59201 0.50384 0.00501 0.0
C591 C 0.58535 0.52355 0.07159 0.0
C592 C 0.57272 0.4824 0.98471 0.0
C593 C 0.59462 0.46777 0.91656 0.0
N594 N 0.58229 0.50988 0.04471 0.0
N595 N 0.59808 0.48155 0.94256 0.0
H596 H 0.70558 0.34941 0.29994 0.0
H597 H 0.76583 0.31223 0.07947 0.0
H598 H 0.6999 0.30399 0.22235 0.0
H599 H 0.77608 0.35397 0.17521 0.0
H600 H 0.74016 0.31082 0.12418 0.0
H601 H 0.73032 0.35276 0.24885 0.0
C602 C 0.70954 0.34014 0.27231 0.0
C603 C 0.70069 0.32637 0.2656 0.0
C604 C 0.74798 0.32034 0.13524 0.0
C605 C 0.72881 0.33019 0.20674 0.0
C606 C 0.76263 0.3212 0.10949 0.0
C607 C 0.77318 0.33316 0.12391 0.0
C608 C 0.74381 0.33154 0.17572 0.0
C609 C 0.76834 0.34448 0.16303 0.0
C610 C 0.72363 0.34207 0.24311 0.0
C611 C 0.70635 0.31477 0.22909 0.0
N612 N 0.75403 0.34334 0.18784 0.0
N613 N 0.72001 0.31696 0.20106 0.0
H614 H 0.90845 0.44369 0.43839 0.0
H615 H 0.92561 0.53139 0.52936 0.0
H616 H 0.91613 0.45691 0.61033 0.0
H617 H 0.89813 0.52075 0.38272 0.0
H618 H 0.92478 0.50372 0.55579 0.0
H619 H 0.90698 0.47153 0.41317 0.0
C620 C 0.90981 0.45245 0.47083 0.0
C621 C 0.91248 0.44801 0.52652 0.0
C622 C 0.91887 0.50745 0.51797 0.0
C623 C 0.91095 0.47977 0.49784 0.0
C624 C 0.91941 0.52321 0.50265 0.0
C625 C 0.91196 0.52834 0.45366 0.0
C626 C 0.91107 0.49666 0.48358 0.0
C627 C 0.904 0.51726 0.42087 0.0
C628 C 0.90889 0.46831 0.45642 0.0
C629 C 0.91404 0.45983 0.56693 0.0
N630 N 0.90388 0.50186 0.43615 0.0
N631 N 0.91342 0.47519 0.55168 0.0
H632 H 0.28659 0.34852 0.28117 0.0
H633 H 0.20332 0.30578 0.25456 0.0
H634 H 0.27119 0.31097 0.38939 0.0
H635 H 0.21945 0.34115 0.13869 0.0
H636 H 0.22807 0.30782 0.30485 0.0
H637 H 0.26188 0.34658 0.22982 0.0
C638 C 0.27798 0.33993 0.29437 0.0
C639 C 0.28098 0.32988 0.33969 0.0
C640 C 0.22625 0.31511 0.26833 0.0
C641 C 0.25272 0.32754 0.28082 0.0
C642 C 0.2121 0.31394 0.23949 0.0
C643 C 0.20929 0.32333 0.19234 0.0
C644 C 0.2377 0.3258 0.25013 0.0
C645 C 0.22114 0.33367 0.17477 0.0
C646 C 0.2639 0.33879 0.26486 0.0
C647 C 0.26941 0.31895 0.35475 0.0
N648 N 0.23481 0.33467 0.20382 0.0
N649 N 0.25581 0.31806 0.32536 0.0
H650 H 0.39561 0.5362 0.08838 0.0
H651 H 0.42838 0.47743 0.85451 0.0
H652 H 0.43963 0.54217 0.00146 0.0
H653 H 0.38955 0.46569 0.96275 0.0
H654 H 0.43058 0.50278 0.90107 0.0
H655 H 0.39144 0.51157 0.0372 0.0
C656 C 0.40439 0.53233 0.05868 0.0
C657 C 0.41801 0.54123 0.04935 0.0
C658 C 0.42152 0.49469 0.91453 0.0
C659 C 0.41324 0.51326 0.99041 0.0
C660 C 0.42021 0.48023 0.88775 0.0
C661 C 0.40883 0.46936 0.90496 0.0
C662 C 0.41136 0.49839 0.95886 0.0
C663 C 0.39855 0.47369 0.94826 0.0
C664 C 0.402 0.51831 0.02948 0.0
C665 C 0.42898 0.53568 0.01028 0.0
N666 N 0.4001 0.48785 0.97392 0.0
N667 N 0.42634 0.5221 0.98224 0.0
H668 H 0.29357 0.64982 0.72541 0.0
H669 H 0.20453 0.67879 0.70018 0.0
H670 H 0.27676 0.68228 0.60033 0.0
H671 H 0.22024 0.64665 0.82811 0.0
H672 H 0.23108 0.67991 0.66339 0.0
H673 H 0.26693 0.64797 0.76314 0.0
C674 C 0.28427 0.65649 0.70568 0.0
C675 C 0.28741 0.66624 0.65963 0.0
C676 C 0.22878 0.67261 0.69954 0.0
C677 C 0.25696 0.66424 0.70281 0.0
C678 C 0.21358 0.67197 0.7207 0.0
C679 C 0.21013 0.66259 0.76732 0.0
C680 C 0.24071 0.66379 0.72503 0.0
C681 C 0.22239 0.65405 0.79211 0.0
C682 C 0.26908 0.65546 0.72736 0.0
C683 C 0.27492 0.67463 0.63587 0.0
N684 N 0.23716 0.65483 0.77057 0.0
N685 N 0.26027 0.67346 0.6578 0.0
H686 H 0.08342 0.45089 0.42637 0.0
H687 H 0.08457 0.54079 0.5198 0.0
H688 H 0.09199 0.46554 0.59633 0.0
H689 H 0.08724 0.52586 0.34766 0.0
H690 H 0.08617 0.51335 0.5492 0.0
H691 H 0.08356 0.47835 0.39726 0.0
C692 C 0.08534 0.45988 0.45761 0.0
C693 C 0.08766 0.45592 0.51393 0.0
C694 C 0.08648 0.51609 0.50502 0.0
C695 C 0.08779 0.48741 0.48081 0.0
C696 C 0.08553 0.53175 0.48817 0.0
C697 C 0.08572 0.53562 0.43115 0.0
C698 C 0.08747 0.5042 0.46456 0.0
C699 C 0.08706 0.52341 0.39205 0.0
C700 C 0.08547 0.47556 0.44089 0.0
C701 C 0.09016 0.46808 0.55248 0.0
N702 N 0.08778 0.50824 0.40948 0.0
N703 N 0.09008 0.48329 0.53525 0.0
H704 H 0.16169 0.13325 0.97387 0.0
H705 H 0.10126 0.07569 0.82488 0.0
H706 H 0.12892 0.10413 0.06448 0.0
H707 H 0.13962 0.09826 0.7385 0.0
H708 H 0.11199 0.0849 0.91363 0.0
H709 H 0.15458 0.11963 0.88779 0.0
C710 C 0.15308 0.12391 0.97575 0.0
C711 C 0.14578 0.11993 0.02638 0.0
C712 C 0.11816 0.08769 0.87532 0.0
C713 C 0.1375 0.10435 0.92787 0.0
C714 C 0.11203 0.08245 0.8246 0.0
C715 C 0.11947 0.08634 0.77413 0.0
C716 C 0.13173 0.09704 0.87555 0.0
C717 C 0.13344 0.09504 0.77635 0.0
C718 C 0.14905 0.11611 0.92657 0.0
C719 C 0.13479 0.10765 0.02635 0.0
N720 N 0.13902 0.10026 0.82617 0.0
N721 N 0.13086 0.10041 0.97774 0.0
H722 H 0.15301 0.86625 0.00526 0.0
H723 H 0.08239 0.86788 0.22531 0.0
H724 H 0.11363 0.83436 0.0029 0.0
H725 H 0.11605 0.90557 0.21161 0.0
H726 H 0.0949 0.85475 0.14687 0.0
H727 H 0.14095 0.88006 0.08444 0.0
C728 C 0.14189 0.86212 0.02151 0.0
C729 C 0.1343 0.84914 -0.00256 0.0
C730 C 0.09955 0.86592 0.16077 0.0
C731 C 0.1205 0.86484 0.08755 0.0
C732 C 0.09241 0.87343 0.20567 0.0
C733 C 0.09818 0.88785 0.22505 0.0
C734 C 0.11267 0.87278 0.13504 0.0
C735 C 0.1112 0.89448 0.19783 0.0
C736 C 0.13499 0.87004 0.06646 0.0
C737 C 0.11989 0.84432 0.01997 0.0
N738 N 0.11807 0.88685 0.15424 0.0
N739 N 0.11349 0.85215 0.06371 0.0
H740 H 0.41978 0.90243 0.36419 0.0
H741 H 0.33756 0.87009 0.47767 0.0
H742 H 0.37704 0.90261 0.26735 0.0
H743 H 0.37945 0.87304 0.5786 0.0
H744 H 0.35161 0.88289 0.40112 0.0
H745 H 0.40498 0.89269 0.44457 0.0
C746 C 0.40727 0.90054 0.35992 0.0
C747 C 0.39967 0.90325 0.30884 0.0
C748 C 0.35771 0.88081 0.44012 0.0
C749 C 0.38266 0.89201 0.40052 0.0
C750 C 0.34969 0.87348 0.48382 0.0
C751 C 0.35736 0.87041 0.53453 0.0
C752 C 0.37353 0.88504 0.44708 0.0
C753 C 0.37307 0.87511 0.54019 0.0
C754 C 0.39882 0.89496 0.40582 0.0
C755 C 0.38342 0.90062 0.30581 0.0
N756 N 0.38065 0.88212 0.49691 0.0
N757 N 0.37549 0.89505 0.35088 0.0
H758 H 0.41034 0.12262 0.71688 0.0
H759 H 0.33586 0.12715 0.51586 0.0
H760 H 0.37369 0.08765 0.72054 0.0
H761 H 0.37893 0.15269 0.48825 0.0
H762 H 0.34838 0.11344 0.59441 0.0
H763 H 0.39791 0.1347 0.6361 0.0
C764 C 0.39968 0.11744 0.70053 0.0
C765 C 0.39302 0.10413 0.72551 0.0
C766 C 0.35506 0.12202 0.5709 0.0
C767 C 0.37862 0.11801 0.63301 0.0
C768 C 0.34791 0.12988 0.52632 0.0
C769 C 0.35636 0.14111 0.49558 0.0
C770 C 0.37066 0.12556 0.585 0.0
C771 C 0.37196 0.14414 0.51072 0.0
C772 C 0.39259 0.12434 0.65427 0.0
C773 C 0.37922 0.09789 0.70236 0.0
N774 N 0.37857 0.13648 0.55444 0.0
N775 N 0.37238 0.10497 0.65752 0.0
H776 H 0.88192 0.86865 0.93279 0.0
H777 H 0.85368 0.90202 0.22871 0.0
H778 H 0.83521 0.86178 -0.00167 0.0
H779 H 0.89961 0.91037 0.15844 0.0
H780 H 0.84625 0.88818 0.14327 0.0
H781 H 0.88827 0.88464 0.01417 0.0
C782 C 0.87298 0.8705 0.9643 0.0
C783 C 0.85802 0.8638 0.95881 0.0
C784 C 0.85792 0.89312 0.14643 0.0
C785 C 0.86522 0.88216 0.05227 0.0
C786 C 0.86217 0.90106 0.19517 0.0
C787 C 0.87733 0.9073 0.20091 0.0
C788 C 0.86893 0.89136 0.10318 0.0
C789 C 0.88781 0.90571 0.15601 0.0
C790 C 0.87661 0.87967 0.01075 0.0
C791 C 0.8469 0.86668 0.00091 0.0
N792 N 0.88345 0.89782 0.10923 0.0
N793 N 0.85075 0.8756 0.04596 0.0
H794 H 0.86077 0.10924 0.05554 0.0
H795 H 0.85866 0.11352 0.72165 0.0
H796 H 0.83703 0.14581 0.96338 0.0
H797 H 0.89172 0.08524 0.81432 0.0
H798 H 0.8472 0.12238 0.80985 0.0
H799 H 0.86881 0.0973 0.96715 0.0
C800 C 0.85714 0.11469 0.01674 0.0
C801 C 0.84833 0.12862 0.01682 0.0
C802 C 0.8569 0.11416 0.8108 0.0
C803 C 0.85746 0.115 0.91567 0.0
C804 C 0.86342 0.10905 0.7605 0.0
C805 C 0.87626 0.09873 0.76065 0.0
C806 C 0.8632 0.10882 0.86158 0.0
C807 C 0.88192 0.09331 0.81227 0.0
C808 C 0.86177 0.10789 0.96633 0.0
C809 C 0.84393 0.13514 0.96527 0.0
N810 N 0.87538 0.09847 0.86068 0.0
N811 N 0.84858 0.1283 0.91675 0.0
H812 H 0.61882 0.08271 0.72738 0.0
H813 H 0.61794 0.15091 0.49894 0.0
H814 H 0.58728 0.12239 0.73115 0.0
H815 H 0.65851 0.12134 0.52368 0.0
H816 H 0.60529 0.13843 0.57841 0.0
H817 H 0.63232 0.09456 0.6469 0.0
C818 C 0.6147 0.09385 0.71115 0.0
C819 C 0.60192 0.10159 0.73594 0.0
C820 C 0.61698 0.13467 0.56669 0.0
C821 C 0.61719 0.11509 0.64439 0.0
C822 C 0.62421 0.14178 0.52117 0.0
C823 C 0.63932 0.13717 0.50471 0.0
C824 C 0.6248 0.12272 0.59588 0.0
C825 C 0.64688 0.12528 0.53524 0.0
C826 C 0.62245 0.10062 0.66555 0.0
C827 C 0.5971 0.11603 0.71352 0.0
N828 N 0.63949 0.11838 0.57935 0.0
N829 N 0.6047 0.12226 0.66898 0.0
H830 H 0.66231 0.85719 0.44487 0.0
H831 H 0.58319 0.89748 0.33452 0.0
H832 H 0.61737 0.85346 0.5273 0.0
H833 H 0.62611 0.89598 0.23864 0.0
H834 H 0.59663 0.88425 0.4113 0.0
H835 H 0.65019 0.87397 0.37365 0.0
C836 C 0.64993 0.85992 0.44805 0.0
C837 C 0.64082 0.85383 0.49182 0.0
C838 C 0.60314 0.8869 0.37358 0.0
C839 C 0.62694 0.87304 0.41101 0.0
C840 C 0.59548 0.89452 0.3298 0.0
C841 C 0.60349 0.8977 0.27987 0.0
C842 C 0.61893 0.88244 0.36743 0.0
C843 C 0.61944 0.89363 0.27623 0.0
C844 C 0.64302 0.8695 0.40747 0.0
C845 C 0.62484 0.85779 0.49407 0.0
N846 N 0.62661 0.88611 0.31929 0.0
N847 N 0.61842 0.86711 0.45422 0.0
H848 H 0.64219 0.59817 0.56178 0.0
H849 H 0.64532 0.59935 0.22774 0.0
H850 H 0.66764 0.63284 0.46617 0.0
H851 H 0.61024 0.57432 0.32278 0.0
H852 H 0.65756 0.60773 0.31519 0.0
H853 H 0.63443 0.58538 0.47463 0.0
C854 C 0.64631 0.60299 0.52253 0.0
C855 C 0.65543 0.61671 0.5212 0.0
C856 C 0.64726 0.60029 0.31681 0.0
C857 C 0.64659 0.60212 0.4215 0.0
C858 C 0.64029 0.59546 0.26695 0.0
C859 C 0.62663 0.58627 0.268 0.0
C860 C 0.64059 0.5958 0.36803 0.0
C861 C 0.62066 0.58155 0.32004 0.0
C862 C 0.64183 0.59571 0.47283 0.0
C863 C 0.66046 0.62239 0.46911 0.0
N864 N 0.62764 0.58643 0.368 0.0
N865 N 0.6559 0.61511 0.42129 0.0
H866 H 0.61258 0.4063 0.6993 0.0
H867 H 0.61273 0.33125 0.4994 0.0
H868 H 0.58429 0.36493 0.72631 0.0
H869 H 0.6494 0.36619 0.4938 0.0
H870 H 0.60117 0.34469 0.57902 0.0
H871 H 0.6252 0.3931 0.61984 0.0
C872 C 0.60899 0.39449 0.68843 0.0
C873 C 0.59736 0.3867 0.71941 0.0
C874 C 0.61178 0.34942 0.56064 0.0
C875 C 0.61168 0.37162 0.62901 0.0
C876 C 0.61839 0.34176 0.51504 0.0
C877 C 0.63204 0.34762 0.48991 0.0
C878 C 0.61877 0.36318 0.58116 0.0
C879 C 0.63888 0.36126 0.51213 0.0
C880 C 0.61624 0.38696 0.64334 0.0
C881 C 0.59321 0.37139 0.70373 0.0
N882 N 0.63211 0.36866 0.55643 0.0
N883 N 0.60032 0.36439 0.65961 0.0
H884 H 0.88656 0.40061 0.77053 0.0
H885 H 0.83493 0.32916 0.88691 0.0
H886 H 0.88537 0.35453 0.69538 0.0
H887 H 0.8427 0.37206 0.97901 0.0
H888 H 0.85093 0.33955 0.81073 0.0
H889 H 0.86836 0.39142 0.84264 0.0
C890 C 0.88249 0.38857 0.7692 0.0
C891 C 0.88756 0.3783 0.72704 0.0
C892 C 0.84907 0.34672 0.8475 0.0
C893 C 0.86666 0.36777 0.809 0.0
C894 C 0.83987 0.34082 0.89092 0.0
C895 C 0.83756 0.34971 0.93959 0.0
C896 C 0.85597 0.36162 0.85266 0.0
C897 C 0.84425 0.36476 0.94239 0.0
C898 C 0.8721 0.38334 0.81033 0.0
C899 C 0.88186 0.36284 0.72726 0.0
N900 N 0.85321 0.37022 0.89962 0.0
N901 N 0.87172 0.35805 0.76755 0.0
H902 H 0.90057 0.62733 0.28486 0.0
H903 H 0.83588 0.62723 0.04359 0.0
H904 H 0.87353 0.58613 0.24277 0.0
H905 H 0.8721 0.66241 0.05877 0.0
H906 H 0.84728 0.6132 0.12323 0.0
H907 H 0.8881 0.64145 0.20832 0.0
C908 C 0.892 0.62124 0.25948 0.0
C909 C 0.88811 0.60551 0.27014 0.0
C910 C 0.85269 0.62401 0.10912 0.0
C911 C 0.8737 0.62168 0.18245 0.0
C912 C 0.84614 0.63207 0.06393 0.0
C913 C 0.85308 0.64599 0.04446 0.0
C914 C 0.86614 0.63001 0.13528 0.0
C915 C 0.8664 0.65169 0.07222 0.0
C916 C 0.8849 0.62931 0.2157 0.0
C917 C 0.87692 0.59823 0.2358 0.0
N918 N 0.87249 0.64368 0.11623 0.0
N919 N 0.87005 0.60641 0.1935 0.0
H920 H 0.33787 0.33157 0.6093 0.0
H921 H 0.37374 0.41264 0.72096 0.0
H922 H 0.33777 0.37445 0.51286 0.0
H923 H 0.37973 0.36782 0.80276 0.0
H924 H 0.3576 0.39976 0.64962 0.0
H925 H 0.34988 0.34575 0.68685 0.0
C926 C 0.3402 0.344 0.60462 0.0
C927 C 0.33697 0.35179 0.55427 0.0
C928 C 0.36242 0.39279 0.68336 0.0
C929 C 0.35085 0.36807 0.64275 0.0
C930 C 0.37163 0.40013 0.724 0.0
C931 C 0.3782 0.39127 0.76757 0.0
C932 C 0.3597 0.37653 0.68665 0.0
C933 C 0.37503 0.37511 0.76966 0.0
C934 C 0.34712 0.35209 0.64886 0.0
C935 C 0.34019 0.36794 0.55075 0.0
N936 N 0.36604 0.36827 0.72976 0.0
N937 N 0.34707 0.37553 0.59424 0.0
H938 H 0.3826 0.6674 0.48888 0.0
H939 H 0.38173 0.59293 0.28549 0.0
H940 H 0.34529 0.63312 0.49156 0.0
H941 H 0.41191 0.63324 0.26462 0.0
H942 H 0.36911 0.60615 0.365 0.0
H943 H 0.39436 0.65377 0.41 0.0
C944 C 0.37684 0.65701 0.47275 0.0
C945 C 0.36294 0.65139 0.49683 0.0
C946 C 0.37849 0.61205 0.34284 0.0
C947 C 0.37643 0.63561 0.40643 0.0
C948 C 0.38573 0.6045 0.29772 0.0
C949 C 0.39788 0.61201 0.2684 0.0
C950 C 0.38357 0.6271 0.35881 0.0
C951 C 0.40257 0.62701 0.28583 0.0
C952 C 0.38357 0.64923 0.4276 0.0
C953 C 0.356 0.63787 0.47405 0.0
N954 N 0.39544 0.63402 0.32985 0.0
N955 N 0.36287 0.63037 0.43017 0.0
H956 H 0.1566 0.62234 -0.00508 0.0
H957 H 0.07607 0.61711 0.16533 0.0
H958 H 0.1137 0.64539 0.9449 0.0
H959 H 0.11563 0.58687 0.19909 0.0
H960 H 0.09012 0.62803 0.08554 0.0
H961 H 0.14231 0.60972 0.07179 0.0
C962 C 0.14421 0.62474 8e-05 0.0
C963 C 0.13635 0.63496 0.96353 0.0
C964 C 0.09572 0.61894 0.11016 0.0
C965 C 0.11998 0.62062 0.05111 0.0
C966 C 0.08769 0.61271 0.15578 0.0
C967 C 0.0947 0.60109 0.18899 0.0
C968 C 0.11095 0.61365 0.09785 0.0
C969 C 0.10978 0.5958 0.17451 0.0
C970 C 0.13605 0.61751 0.04379 0.0
C971 C 0.12027 0.63762 0.97203 0.0
N972 N 0.11746 0.6022 0.1302 0.0
N973 N 0.11265 0.63055 0.01498 0.0
H974 H 0.1214 0.36414 0.69035 0.0
H975 H 0.15312 0.38639 -0.00548 0.0
H976 H 0.117 0.41045 0.76215 0.0
H977 H 0.15826 0.34057 0.91938 0.0
H978 H 0.14154 0.39601 0.90757 0.0
H979 H 0.13636 0.35584 0.77193 0.0
C980 C 0.1236 0.37259 0.72323 0.0
C981 C 0.11784 0.38799 0.71957 0.0
C982 C 0.14531 0.38388 0.91 0.0
C983 C 0.135 0.37854 0.81332 0.0
C984 C 0.15196 0.37838 0.9596 0.0
C985 C 0.15655 0.3626 0.96443 0.0
C986 C 0.14321 0.37352 0.86496 0.0
C987 C 0.1548 0.35279 0.91773 0.0
C988 C 0.13219 0.36784 0.76982 0.0
C989 C 0.12117 0.39844 0.76334 0.0
N990 N 0.14817 0.35839 0.87014 0.0
N991 N 0.12946 0.39349 0.80858 0.0
H992 H 0.12533 0.28589 0.1588 0.0
H993 H 0.16144 0.20322 0.06583 0.0
H994 H 0.16625 0.28059 0.05398 0.0
H995 H 0.12164 0.20763 0.1765 0.0
H996 H 0.16138 0.23159 0.05278 0.0
H997 H 0.1219 0.25735 0.15794 0.0
C998 C 0.13352 0.27875 0.13525 0.0
C999 C 0.14619 0.28564 0.10685 0.0
C1000 C 0.15257 0.22637 0.07962 0.0
C1001 C 0.14234 0.25301 0.10576 0.0
C1002 C 0.15259 0.21014 0.08705 0.0
C1003 C 0.14162 0.20304 0.12277 0.0
C1004 C 0.14156 0.23563 0.1083 0.0
C1005 C 0.13037 0.21261 0.14883 0.0
C1006 C 0.13156 0.26246 0.13482 0.0
C1007 C 0.15639 0.27581 0.07688 0.0
N1008 N 0.13072 0.22845 0.14147 0.0
N1009 N 0.1543 0.26002 0.07741 0.0
H1010 H 0.95287 0.88453 0.38766 0.0
H1011 H 0.03493 0.92664 0.32323 0.0
H1012 H 0.9571 0.93031 0.31144 0.0
H1013 H 0.03098 0.88227 0.40959 0.0
H1014 H 0.00643 0.92749 0.31436 0.0
H1015 H 0.98149 0.88277 0.39173 0.0
C1016 C 0.95981 0.89419 0.37158 0.0
C1017 C 0.95257 0.90761 0.34931 0.0
C1018 C 0.01179 0.91755 0.33518 0.0
C1019 C 0.98531 0.90568 0.35393 0.0
C1020 C 0.02808 0.91705 0.34025 0.0
C1021 C 0.03536 0.90437 0.36734 0.0
C1022 C 0.00268 0.90528 0.35731 0.0
C1023 C 0.02587 0.89228 0.3885 0.0
C1024 C 0.97614 0.89318 0.374 0.0
C1025 C 0.96215 0.91976 0.32909 0.0
N1026 N 0.01001 0.89305 0.3831 0.0
N1027 N 0.97802 0.91851 0.33198 0.0
H1028 H 0.37051 0.79789 0.64811 0.0
H1029 H 0.32595 0.7161 0.60319 0.0
H1030 H 0.3214 0.7939 0.6061 0.0
H1031 H 0.37256 0.71953 0.67279 0.0
H1032 H 0.3251 0.74463 0.59501 0.0
H1033 H 0.37248 0.7692 0.6483 0.0
C1034 C 0.36017 0.791 0.63858 0.0
C1035 C 0.34575 0.79831 0.62733 0.0
C1036 C 0.33553 0.73916 0.61199 0.0
C1037 C 0.34793 0.76553 0.62748 0.0
C1038 C 0.33604 0.72285 0.61661 0.0
C1039 C 0.34932 0.71541 0.63898 0.0
C1040 C 0.34842 0.74814 0.62966 0.0
C1041 C 0.36205 0.72478 0.65554 0.0
C1042 C 0.3613 0.77463 0.63887 0.0
C1043 C 0.33274 0.78878 0.61532 0.0
N1044 N 0.36128 0.74067 0.65063 0.0
N1045 N 0.33414 0.77291 0.61579 0.0
H1046 H 0.45615 0.11604 0.9311 0.0
H1047 H 0.53452 0.07416 0.82227 0.0
H1048 H 0.45678 0.07442 0.82805 0.0
H1049 H 0.53458 0.11398 0.93398 0.0
H1050 H 0.50599 0.07558 0.81777 0.0
H1051 H 0.48482 0.11688 0.92682 0.0
C1052 C 0.4623 0.10712 0.90735 0.0
C1053 C 0.45405 0.09509 0.88014 0.0
C1054 C 0.51223 0.08406 0.84309 0.0
C1055 C 0.48683 0.09599 0.87511 0.0
C1056 C 0.52854 0.08328 0.84563 0.0
C1057 C 0.53696 0.09392 0.87886 0.0
C1058 C 0.50422 0.09555 0.87406 0.0
C1059 C 0.52857 0.1055 0.90802 0.0
C1060 C 0.47867 0.10761 0.90497 0.0
C1061 C 0.46264 0.08387 0.84992 0.0
N1062 N 0.51264 0.10596 0.90517 0.0
N1063 N 0.47855 0.08457 0.84838 0.0
H1064 H 0.12885 0.77691 0.8077 0.0
H1065 H 0.1761 0.70721 0.95665 0.0
H1066 H 0.16641 0.78417 0.92594 0.0
H1067 H 0.14386 0.70011 0.81982 0.0
H1068 H 0.17015 0.73527 0.95444 0.0
H1069 H 0.13169 0.74854 0.82022 0.0
C1070 C 0.1376 0.77256 0.83661 0.0
C1071 C 0.14749 0.78293 0.86547 0.0
C1072 C 0.16432 0.72756 0.92507 0.0
C1073 C 0.15081 0.75051 0.87992 0.0
C1074 C 0.16769 0.71153 0.92637 0.0
C1075 C 0.16057 0.70132 0.88805 0.0
C1076 C 0.15372 0.73342 0.88527 0.0
C1077 C 0.14972 0.70757 0.84989 0.0
C1078 C 0.13924 0.75636 0.84363 0.0
C1079 C 0.15861 0.77661 0.90248 0.0
N1080 N 0.14668 0.72324 0.84931 0.0
N1081 N 0.16001 0.76082 0.90846 0.0
H1082 H 0.46261 0.90413 0.1846 0.0
H1083 H 0.53864 0.89961 0.98914 0.0
H1084 H 0.46096 0.90012 0.00483 0.0
H1085 H 0.54088 0.90222 0.16915 0.0
H1086 H 0.51012 0.89816 -0.00507 0.0
H1087 H 0.4912 0.90184 0.1807 0.0
C1088 C 0.46824 0.90267 0.14435 0.0
C1089 C 0.45938 0.90243 0.09492 0.0
C1090 C 0.51683 0.89896 0.03323 0.0
C1091 C 0.49208 0.89985 0.09017 0.0
C1092 C 0.53314 0.89979 0.02996 0.0
C1093 C 0.54216 0.90114 0.07873 0.0
C1094 C 0.50944 0.89956 0.08566 0.0
C1095 C 0.53438 0.90124 0.13045 0.0
C1096 C 0.48457 0.90137 0.14216 0.0
C1097 C 0.46731 0.90046 0.04399 0.0
N1098 N 0.51845 0.90057 0.13255 0.0
N1099 N 0.4832 0.89934 0.04292 0.0
H1100 H 0.32658 0.21008 0.42666 0.0
H1101 H 0.36973 0.28986 0.3389 0.0
H1102 H 0.36655 0.21159 0.31574 0.0
H1103 H 0.32613 0.28784 0.43065 0.0
H1104 H 0.37071 0.26112 0.33911 0.0
H1105 H 0.32826 0.23847 0.43766 0.0
C1106 C 0.33578 0.21636 0.40484 0.0
C1107 C 0.34638 0.20844 0.36986 0.0
C1108 C 0.36098 0.26699 0.35946 0.0
C1109 C 0.34832 0.24104 0.38222 0.0
C1110 C 0.36044 0.28339 0.3595 0.0
C1111 C 0.34777 0.29126 0.38444 0.0
C1112 C 0.34881 0.25843 0.38475 0.0
C1113 C 0.33606 0.28228 0.41054 0.0
C1114 C 0.33671 0.2326 0.4111 0.0
C1115 C 0.35808 0.21723 0.34287 0.0
N1116 N 0.33685 0.26636 0.40981 0.0
N1117 N 0.35869 0.23308 0.34939 0.0
H1118 H 0.95862 0.07219 0.67375 0.0
H1119 H 0.03982 0.11936 0.68019 0.0
H1120 H 0.96123 0.12276 0.66377 0.0
H1121 H 0.03601 0.06884 0.67225 0.0
H1122 H 0.01112 0.12115 0.68315 0.0
H1123 H 0.98703 0.07109 0.68248 0.0
C1124 C 0.96517 0.08309 0.67359 0.0
C1125 C 0.95752 0.0976 0.6676 0.0
C1126 C 0.0166 0.10969 0.68103 0.0
C1127 C 0.99019 0.0964 0.67746 0.0
C1128 C 0.03297 0.10865 0.67946 0.0
C1129 C 0.04032 0.09394 0.67565 0.0
C1130 C 0.00757 0.0959 0.67901 0.0
C1131 C 0.03087 0.08045 0.67483 0.0
C1132 C 0.98142 0.08245 0.67856 0.0
C1133 C 0.96664 0.11133 0.66806 0.0
N1134 N 0.01501 0.08177 0.67633 0.0
N1135 N 0.98253 0.11039 0.67262 0.0
H1136 H 0.84074 0.7101 0.92882 0.0
H1137 H 0.84401 0.78275 0.71693 0.0
H1138 H 0.83787 0.70566 0.74938 0.0
H1139 H 0.84633 0.78776 0.89628 0.0
H1140 H 0.84421 0.75427 0.72805 0.0
H1141 H 0.84505 0.73834 0.91784 0.0
C1142 C 0.8411 0.71504 0.88712 0.0
C1143 C 0.83882 0.70551 0.83996 0.0
C1144 C 0.84479 0.76159 0.765 0.0
C1145 C 0.84373 0.73781 0.82711 0.0
C1146 C 0.8447 0.77787 0.75866 0.0
C1147 C 0.84502 0.78767 0.80576 0.0
C1148 C 0.84512 0.75502 0.81885 0.0
C1149 C 0.84599 0.78066 0.85879 0.0
C1150 C 0.84357 0.73116 0.88088 0.0
C1151 C 0.83947 0.71255 0.78695 0.0
N1152 N 0.84588 0.76476 0.86392 0.0
N1153 N 0.84178 0.72826 0.78201 0.0
H1154 H 0.62629 0.20064 0.30532 0.0
H1155 H 0.66259 0.2825 0.40558 0.0
H1156 H 0.66663 0.20477 0.41345 0.0
H1157 H 0.62203 0.2789 0.29825 0.0
H1158 H 0.66306 0.25398 0.4139 0.0
H1159 H 0.62337 0.2292 0.3071 0.0
C1160 C 0.63448 0.20753 0.32972 0.0
C1161 C 0.64679 0.20031 0.359 0.0
C1162 C 0.654 0.25941 0.38875 0.0
C1163 C 0.64354 0.23298 0.36107 0.0
C1164 C 0.65372 0.27571 0.38397 0.0
C1165 C 0.6423 0.2831 0.35085 0.0
C1166 C 0.64283 0.25037 0.36003 0.0
C1167 C 0.63107 0.2737 0.32406 0.0
C1168 C 0.63281 0.22384 0.33069 0.0
C1169 C 0.65701 0.20983 0.39003 0.0
N1170 N 0.63168 0.2578 0.32895 0.0
N1171 N 0.6552 0.22567 0.39 0.0
H1172 H 0.86673 0.29287 0.07729 0.0
H1173 H 0.82201 0.21097 0.11763 0.0
H1174 H 0.81678 0.28824 0.10278 0.0
H1175 H 0.87246 0.21452 0.10562 0.0
H1176 H 0.82005 0.23929 0.10666 0.0
H1177 H 0.86922 0.26422 0.082 0.0
C1178 C 0.85629 0.28585 0.08363 0.0
C1179 C 0.84153 0.29297 0.08987 0.0
C1180 C 0.83157 0.23391 0.10635 0.0
C1181 C 0.8443 0.26026 0.09528 0.0
C1182 C 0.83271 0.2177 0.1126 0.0
C1183 C 0.84744 0.21034 0.11276 0.0
C1184 C 0.84525 0.24292 0.10018 0.0
C1185 C 0.86086 0.21971 0.10588 0.0
C1186 C 0.85773 0.2695 0.08642 0.0
C1187 C 0.82841 0.28329 0.09802 0.0
N1188 N 0.85945 0.23555 0.09997 0.0
N1189 N 0.83012 0.26747 0.10055 0.0
H1190 H 0.62274 0.70217 0.65662 0.0
H1191 H 0.66888 0.77858 0.55284 0.0
H1192 H 0.66718 0.70121 0.5699 0.0
H1193 H 0.62662 0.78057 0.65226 0.0
H1194 H 0.66642 0.75012 0.54847 0.0
H1195 H 0.62199 0.73074 0.64523 0.0
C1196 C 0.63225 0.70793 0.63467 0.0
C1197 C 0.64512 0.69931 0.61466 0.0
C1198 C 0.65761 0.75677 0.57097 0.0
C1199 C 0.64435 0.73193 0.60166 0.0
C1200 C 0.65901 0.77305 0.57347 0.0
C1201 C 0.64802 0.78198 0.60346 0.0
C1202 C 0.64517 0.7493 0.59882 0.0
C1203 C 0.63541 0.77414 0.62897 0.0
C1204 C 0.63183 0.72424 0.62832 0.0
C1205 C 0.65709 0.70739 0.58647 0.0
N1206 N 0.6344 0.75822 0.62645 0.0
N1207 N 0.65646 0.72323 0.58114 0.0
H1208 H 0.53076 0.37809 0.90472 0.0
H1209 H 0.45238 0.42527 0.82886 0.0
H1210 H 0.53036 0.42259 0.81808 0.0
H1211 H 0.45273 0.38104 0.91719 0.0
H1212 H 0.48085 0.42369 0.81949 0.0
H1213 H 0.50211 0.37817 0.90466 0.0
C1214 C 0.52466 0.38785 0.88541 0.0
C1215 C 0.53298 0.40039 0.8616 0.0
C1216 C 0.4747 0.41429 0.84071 0.0
C1217 C 0.50016 0.40057 0.86155 0.0
C1218 C 0.45843 0.41518 0.84606 0.0
C1219 C 0.45015 0.4033 0.87413 0.0
C1220 C 0.48279 0.40144 0.86367 0.0
C1221 C 0.45863 0.39049 0.89541 0.0
C1222 C 0.50829 0.38788 0.88543 0.0
C1223 C 0.52444 0.41269 0.83707 0.0
N1224 N 0.47449 0.38994 0.88996 0.0
N1225 N 0.5085 0.4125 0.83791 0.0
H1226 H 0.95565 0.61017 0.46522 0.0
H1227 H 0.03108 0.57689 0.30437 0.0
H1228 H 0.95377 0.57475 0.33632 0.0
H1229 H 0.03389 0.60737 0.44821 0.0
H1230 H 0.00251 0.57823 0.30931 0.0
H1231 H 0.98416 0.61148 0.45357 0.0
C1232 C 0.96121 0.60274 0.43427 0.0
C1233 C 0.95233 0.59227 0.40193 0.0
C1234 C 0.00937 0.58467 0.3397 0.0
C1235 C 0.98488 0.59371 0.38837 0.0
C1236 C 0.0257 0.58393 0.33684 0.0
C1237 C 0.03489 0.59194 0.37618 0.0
C1238 C 0.00217 0.5935 0.38214 0.0
C1239 C 0.02726 0.60093 0.41719 0.0
C1240 C 0.97748 0.60347 0.42772 0.0
C1241 C 0.96015 0.58292 0.36244 0.0
N1242 N 0.01134 0.60142 0.41924 0.0
N1243 N 0.97597 0.58384 0.35688 0.0
H1244 H 0.96401 0.40579 0.66698 0.0
H1245 H 0.04393 0.37084 0.54299 0.0
H1246 H 0.96552 0.36851 0.54483 0.0
H1247 H 0.04141 0.41052 0.65494 0.0
H1248 H 0.01547 0.36772 0.55091 0.0
H1249 H 0.99257 0.40549 0.6711 0.0
C1250 C 0.97034 0.39745 0.64127 0.0
C1251 C 0.96235 0.38726 0.60506 0.0
C1252 C 0.02117 0.37704 0.57399 0.0
C1253 C 0.99514 0.38691 0.6094 0.0
C1254 C 0.03742 0.37882 0.56956 0.0
C1255 C 0.04505 0.39105 0.59795 0.0
C1256 C 0.01252 0.38755 0.60714 0.0
C1257 C 0.03602 0.40101 0.63191 0.0
C1258 C 0.98668 0.3973 0.64361 0.0
C1259 C 0.9712 0.37664 0.57308 0.0
N1260 N 0.02024 0.39908 0.63531 0.0
N1261 N 0.98714 0.37682 0.57568 0.0
H1262 H 0.4636 0.57676 0.18625 0.0
H1263 H 0.54541 0.61973 0.12641 0.0
H1264 H 0.46736 0.62139 0.10153 0.0
H1265 H 0.54121 0.57312 0.19601 0.0
H1266 H 0.51678 0.62196 0.12648 0.0
H1267 H 0.49197 0.57662 0.19922 0.0
C1268 C 0.47038 0.58658 0.17056 0.0
C1269 C 0.46309 0.59906 0.14238 0.0
C1270 C 0.52215 0.61129 0.14207 0.0
C1271 C 0.49564 0.59896 0.15708 0.0
C1272 C 0.53849 0.61003 0.14222 0.0
C1273 C 0.54572 0.59616 0.1608 0.0
C1274 C 0.51299 0.59862 0.16077 0.0
C1275 C 0.53616 0.58398 0.18088 0.0
C1276 C 0.48659 0.58649 0.17799 0.0
C1277 C 0.47249 0.61149 0.12322 0.0
N1278 N 0.5203 0.58547 0.18004 0.0
N1279 N 0.4883 0.61109 0.13069 0.0
H1280 H 0.11913 0.13858 0.24441 0.0
H1281 H 0.11559 0.11319 0.56366 0.0
H1282 H 0.15275 0.15435 0.36706 0.0
H1283 H 0.07624 0.10839 0.45141 0.0
H1284 H 0.12938 0.12841 0.49239 0.0
H1285 H 0.10321 0.12742 0.31951 0.0
C1286 C 0.12312 0.13977 0.28717 0.0
C1287 C 0.13734 0.1473 0.2995 0.0
C1288 C 0.11767 0.12416 0.48355 0.0
C1289 C 0.11923 0.1345 0.38552 0.0
C1290 C 0.1098 0.11545 0.52417 0.0
C1291 C 0.09479 0.10942 0.51326 0.0
C1292 C 0.11057 0.12668 0.43139 0.0
C1293 C 0.08781 0.11278 0.46153 0.0
C1294 C 0.114 0.13345 0.33003 0.0
C1295 C 0.14189 0.1486 0.35566 0.0
N1296 N 0.09583 0.12104 0.42223 0.0
N1297 N 0.13293 0.14211 0.39657 0.0
H1298 H 0.10575 0.87593 0.45096 0.0
H1299 H 0.12195 0.85798 0.77355 0.0
H1300 H 0.08668 0.90365 0.58601 0.0
H1301 H 0.14324 0.83225 0.63772 0.0
H1302 H 0.10666 0.87299 0.70587 0.0
H1303 H 0.11735 0.85813 0.51917 0.0
C1304 C 0.10394 0.87825 0.49501 0.0
C1305 C 0.09535 0.8914 0.51284 0.0
C1306 C 0.11459 0.86399 0.69089 0.0
C1307 C 0.10863 0.87102 0.59121 0.0
C1308 C 0.12332 0.85538 0.7295 0.0
C1309 C 0.13402 0.84394 0.71121 0.0
C1310 C 0.11659 0.86115 0.63355 0.0
C1311 C 0.13522 0.84103 0.65368 0.0
C1312 C 0.11057 0.86806 0.53394 0.0
C1313 C 0.0933 0.89372 0.57041 0.0
N1314 N 0.12669 0.84967 0.61687 0.0
N1315 N 0.09998 0.88368 0.60759 0.0
H1316 H 0.39653 0.87234 0.02889 0.0
H1317 H 0.33388 0.87455 0.78551 0.0
H1318 H 0.35895 0.90634 0.02421 0.0
H1319 H 0.35695 0.83147 0.83357 0.0
H1320 H 0.34462 0.8873 0.86848 0.0
H1321 H 0.38377 0.85786 0.95307 0.0
C1322 C 0.38556 0.8767 0.0121 0.0
C1323 C 0.3788 0.89058 0.03263 0.0
C1324 C 0.34724 0.87503 0.86106 0.0
C1325 C 0.36432 0.87422 0.94585 0.0
C1326 C 0.34119 0.86777 0.81362 0.0
C1327 C 0.34459 0.85195 0.80267 0.0
C1328 C 0.35698 0.8665 0.89724 0.0
C1329 C 0.35404 0.84368 0.84062 0.0
C1330 C 0.37827 0.86841 0.96908 0.0
C1331 C 0.36455 0.89568 0.00962 0.0
N1332 N 0.36007 0.85111 0.88605 0.0
N1333 N 0.35786 0.8876 0.96697 0.0
H1334 H 0.40563 0.09446 0.09002 0.0
H1335 H 0.33424 0.15396 0.14076 0.0
H1336 H 0.37575 0.11171 0.95783 0.0
H1337 H 0.36455 0.13665 0.27164 0.0
H1338 H 0.34994 0.13952 0.07226 0.0
H1339 H 0.39127 0.11074 0.15654 0.0
C1340 C 0.39607 0.1017 0.07494 0.0
C1341 C 0.39185 0.10167 0.01831 0.0
C1342 C 0.35318 0.13894 0.11596 0.0
C1343 C 0.37533 0.12035 0.09429 0.0
C1344 C 0.34423 0.1472 0.15507 0.0
C1345 C 0.34803 0.14644 0.21204 0.0
C1346 C 0.36599 0.12988 0.13402 0.0
C1347 C 0.36112 0.13751 0.22819 0.0
C1348 C 0.38788 0.11101 0.11296 0.0
C1349 C 0.37938 0.11133 0.00115 0.0
N1350 N 0.36958 0.12954 0.18942 0.0
N1351 N 0.37153 0.12024 0.03903 0.0
H1352 H 0.89474 0.88886 0.46366 0.0
H1353 H 0.83346 0.88872 0.71721 0.0
H1354 H 0.86015 0.92512 0.49135 0.0
H1355 H 0.86554 0.85053 0.68475 0.0
H1356 H 0.84369 0.90246 0.63567 0.0
H1357 H 0.88466 0.87477 0.54522 0.0
C1358 C 0.88501 0.89384 0.48677 0.0
C1359 C 0.87827 0.90819 0.47066 0.0
C1360 C 0.84851 0.89107 0.64631 0.0
C1361 C 0.86675 0.89217 0.56406 0.0
C1362 C 0.84269 0.88322 0.69299 0.0
C1363 C 0.84864 0.86844 0.7078 0.0
C1364 C 0.86042 0.88412 0.61413 0.0
C1365 C 0.8606 0.8619 0.6748 0.0
C1366 C 0.87927 0.88579 0.53334 0.0
C1367 C 0.8657 0.91409 0.50217 0.0
N1368 N 0.8661 0.8698 0.62945 0.0
N1369 N 0.86037 0.90607 0.54738 0.0
H1370 H 0.85211 0.16781 0.35826 0.0
H1371 H 0.91837 0.10377 0.42408 0.0
H1372 H 0.87584 0.14067 0.23134 0.0
H1373 H 0.88864 0.1248 0.54966 0.0
H1374 H 0.90605 0.12049 0.35342 0.0
H1375 H 0.86861 0.15542 0.42922 0.0
C1376 C 0.86089 0.15936 0.34523 0.0
C1377 C 0.86247 0.15513 0.28887 0.0
C1378 C 0.90233 0.12152 0.39654 0.0
C1379 C 0.88135 0.14089 0.36983 0.0
C1380 C 0.90938 0.11202 0.43691 0.0
C1381 C 0.9044 0.11277 0.49273 0.0
C1382 C 0.89027 0.13189 0.4122 0.0
C1383 C 0.89273 0.12371 0.507 0.0
C1384 C 0.87028 0.15227 0.38578 0.0
C1385 C 0.8741 0.14417 0.27439 0.0
N1386 N 0.886 0.13276 0.46693 0.0
N1387 N 0.88303 0.13735 0.31467 0.0
H1388 H 0.65649 0.15007 0.14676 0.0
H1389 H 0.58892 0.08624 0.09766 0.0
H1390 H 0.63302 0.12524 0.2802 0.0
H1391 H 0.61263 0.11076 0.96405 0.0
H1392 H 0.60422 0.10124 0.1654 0.0
H1393 H 0.63986 0.13646 0.0792 0.0
C1394 C 0.64784 0.14177 0.16186 0.0
C1395 C 0.64618 0.13874 0.21918 0.0
C1396 C 0.60604 0.10337 0.12125 0.0
C1397 C 0.62712 0.12315 0.14216 0.0
C1398 C 0.59729 0.09482 0.08256 0.0
C1399 C 0.59955 0.09719 0.02512 0.0
C1400 C 0.61714 0.11435 0.10236 0.0
C1401 C 0.61054 0.1085 0.00794 0.0
C1402 C 0.63834 0.13401 0.12328 0.0
C1403 C 0.63475 0.1279 0.23638 0.0
N1404 N 0.61896 0.11661 0.04641 0.0
N1405 N 0.62568 0.12048 0.19802 0.0
H1406 H 0.63946 0.85942 0.70163 0.0
H1407 H 0.61471 0.87052 0.02128 0.0
H1408 H 0.65341 0.8273 0.83227 0.0
H1409 H 0.60734 0.90544 0.89301 0.0
H1410 H 0.62718 0.8535 0.95202 0.0
H1411 H 0.62577 0.87527 0.77062 0.0
C1412 C 0.63962 0.85566 0.74488 0.0
C1413 C 0.64768 0.84203 0.76126 0.0
C1414 C 0.62282 0.86488 0.93909 0.0
C1415 C 0.63197 0.86022 0.84065 0.0
C1416 C 0.61568 0.8746 0.97853 0.0
C1417 C 0.61001 0.88945 0.96288 0.0
C1418 C 0.62422 0.87002 0.88359 0.0
C1419 C 0.61158 0.89412 0.90698 0.0
C1420 C 0.6318 0.86476 0.7843 0.0
C1421 C 0.64739 0.83774 0.81786 0.0
N1422 N 0.61854 0.88443 0.86937 0.0
N1423 N 0.63968 0.84684 0.85564 0.0
H1424 H 0.58705 0.58912 0.92759 0.0
H1425 H 0.64785 0.65791 0.85653 0.0
H1426 H 0.61473 0.61331 0.05172 0.0
H1427 H 0.62742 0.62757 0.73168 0.0
H1428 H 0.63283 0.64417 0.92842 0.0
H1429 H 0.59892 0.60555 0.85515 0.0
C1430 C 0.59555 0.59794 0.93966 0.0
C1431 C 0.6 0.59977 -0.00429 0.0
C1432 C 0.63158 0.64058 0.88525 0.0
C1433 C 0.61358 0.6186 0.91316 0.0
C1434 C 0.64011 0.64845 0.84415 0.0
C1435 C 0.63899 0.64379 0.78807 0.0
C1436 C 0.6218 0.628 0.87015 0.0
C1437 C 0.62874 0.63147 0.77447 0.0
C1438 C 0.60234 0.60729 0.89829 0.0
C1439 C 0.61104 0.61141 0.00897 0.0
N1440 N 0.62058 0.62396 0.81528 0.0
N1441 N 0.61748 0.62036 0.96796 0.0
H1442 H 0.64251 0.33225 0.12713 0.0
H1443 H 0.58201 0.40276 0.07639 0.0
H1444 H 0.62071 0.35864 0.26033 0.0
H1445 H 0.6054 0.37752 0.94379 0.0
H1446 H 0.59446 0.38536 0.1445 0.0
H1447 H 0.62725 0.34729 0.05934 0.0
C1448 C 0.63443 0.34113 0.14216 0.0
C1449 C 0.63298 0.34428 0.19945 0.0
C1450 C 0.59681 0.38359 0.10047 0.0
C1451 C 0.61553 0.36158 0.1221 0.0
C1452 C 0.58971 0.39352 0.06158 0.0
C1453 C 0.59276 0.39166 0.00436 0.0
C1454 C 0.60702 0.37172 0.08197 0.0
C1455 C 0.60279 0.37946 0.98752 0.0
C1456 C 0.62574 0.34973 0.10342 0.0
C1457 C 0.62228 0.35588 0.21653 0.0
N1458 N 0.6096 0.37 0.02617 0.0
N1459 N 0.61404 0.36417 0.17798 0.0
H1460 H 0.90199 0.36744 0.48086 0.0
H1461 H 0.8384 0.37187 0.23752 0.0
H1462 H 0.86649 0.40355 0.47167 0.0
H1463 H 0.86139 0.32857 0.28378 0.0
H1464 H 0.8512 0.38496 0.31597 0.0
H1465 H 0.88968 0.35419 0.40127 0.0
C1466 C 0.89163 0.37258 0.46204 0.0
C1467 C 0.88521 0.38659 0.48285 0.0
C1468 C 0.85342 0.37259 0.30895 0.0
C1469 C 0.87124 0.37161 0.39195 0.0
C1470 C 0.84618 0.36512 0.26408 0.0
C1471 C 0.84881 0.3491 0.25426 0.0
C1472 C 0.86352 0.36402 0.3438 0.0
C1473 C 0.85898 0.34093 0.29008 0.0
C1474 C 0.8846 0.365 0.41686 0.0
C1475 C 0.87177 0.39273 0.45709 0.0
N1476 N 0.86604 0.34851 0.33324 0.0
N1477 N 0.86526 0.38524 0.41275 0.0
H1478 H 0.8648 0.63145 0.80719 0.0
H1479 H 0.87092 0.60059 0.49259 0.0
H1480 H 0.82727 0.6353 0.68675 0.0
H1481 H 0.90561 0.59028 0.61895 0.0
H1482 H 0.85537 0.61447 0.56233 0.0
H1483 H 0.88049 0.61738 0.73793 0.0
C1484 C 0.85985 0.62934 0.76618 0.0
C1485 C 0.84469 0.63456 0.75269 0.0
C1486 C 0.86637 0.60916 0.57487 0.0
C1487 C 0.86261 0.61852 0.67329 0.0
C1488 C 0.87529 0.60125 0.53503 0.0
C1489 C 0.8896 0.59425 0.54998 0.0
C1490 C 0.87182 0.61016 0.63009 0.0
C1491 C 0.89464 0.59549 0.60561 0.0
C1492 C 0.86881 0.62128 0.72672 0.0
C1493 C 0.83888 0.63147 0.69899 0.0
N1494 N 0.88576 0.60332 0.64368 0.0
N1495 N 0.84787 0.62369 0.66121 0.0
H1496 H 0.36429 0.36733 0.30072 0.0
H1497 H 0.38226 0.38237 0.97753 0.0
H1498 H 0.3449 0.33957 0.16651 0.0
H1499 H 0.40095 0.41122 0.1101 0.0
H1500 H 0.37023 0.36535 0.04704 0.0
H1501 H 0.3795 0.38224 0.23246 0.0
C1502 C 0.3633 0.3643 0.25691 0.0
C1503 C 0.3532 0.35226 0.23921 0.0
C1504 C 0.37701 0.37536 0.06105 0.0
C1505 C 0.37057 0.36931 0.16093 0.0
C1506 C 0.38388 0.38511 0.02135 0.0
C1507 C 0.39252 0.39834 0.03805 0.0
C1508 C 0.37871 0.37884 0.11802 0.0
C1509 C 0.39433 0.4012 0.0954 0.0
C1510 C 0.37199 0.37283 0.21798 0.0
C1511 C 0.35246 0.34881 0.182 0.0
N1512 N 0.38738 0.39157 0.13339 0.0
N1513 N 0.36096 0.35735 0.14487 0.0
H1514 H 0.38911 0.62248 0.04837 0.0
H1515 H 0.37611 0.64404 0.7268 0.0
H1516 H 0.41631 0.60262 0.91342 0.0
H1517 H 0.34783 0.66272 0.86105 0.0
H1518 H 0.39254 0.63071 0.79538 0.0
H1519 H 0.37549 0.63916 0.98123 0.0
C1520 C 0.39229 0.62168 0.00463 0.0
C1521 C 0.40377 0.61103 0.98639 0.0
C1522 C 0.3828 0.63779 0.8099 0.0
C1523 C 0.38818 0.63009 0.90929 0.0
C1524 C 0.3734 0.64542 0.77076 0.0
C1525 C 0.36047 0.65439 0.78822 0.0
C1526 C 0.37924 0.6391 0.86698 0.0
C1527 C 0.35761 0.65584 0.84571 0.0
C1528 C 0.38449 0.63122 0.96631 0.0
C1529 C 0.40747 0.61059 0.92929 0.0
N1530 N 0.36687 0.64818 0.88305 0.0
N1531 N 0.39961 0.61992 0.8927 0.0
H1532 H 0.15894 0.62232 0.69902 0.0
H1533 H 0.09317 0.61603 0.46286 0.0
H1534 H 0.12268 0.65714 0.67556 0.0
H1535 H 0.13385 0.58583 0.47021 0.0
H1536 H 0.10351 0.63104 0.5415 0.0
H1537 H 0.14955 0.6085 0.61639 0.0
C1538 C 0.14899 0.62707 0.67649 0.0
C1539 C 0.14154 0.64089 0.69433 0.0
C1540 C 0.11022 0.62118 0.52572 0.0
C1541 C 0.13073 0.62509 0.59962 0.0
C1542 C 0.10432 0.61259 0.48086 0.0
C1543 C 0.11265 0.59962 0.46008 0.0
C1544 C 0.12449 0.6167 0.55027 0.0
C1545 C 0.12704 0.59574 0.48492 0.0
C1546 C 0.14367 0.61918 0.62918 0.0
C1547 C 0.12875 0.64652 0.66332 0.0
N1548 N 0.13246 0.6042 0.52895 0.0
N1549 N 0.12371 0.63856 0.61756 0.0
H1550 H 0.1338 0.34655 0.22814 0.0
H1551 H 0.14243 0.41014 0.47261 0.0
H1552 H 0.17439 0.37623 0.25065 0.0
H1553 H 0.1011 0.38154 0.44982 0.0
H1554 H 0.15424 0.39772 0.39105 0.0
H1555 H 0.12146 0.35919 0.30878 0.0
C1556 C 0.1401 0.35574 0.24992 0.0
C1557 C 0.15516 0.36033 0.23266 0.0
C1558 C 0.14258 0.39415 0.40382 0.0
C1559 C 0.14114 0.37479 0.32491 0.0
C1560 C 0.13583 0.40123 0.45047 0.0
C1561 C 0.12076 0.39687 0.46808 0.0
C1562 C 0.13422 0.38258 0.37449 0.0
C1563 C 0.11276 0.38526 0.4377 0.0
C1564 C 0.13305 0.36294 0.29596 0.0
C1565 C 0.16277 0.3723 0.26244 0.0
N1566 N 0.11959 0.37851 0.39236 0.0
N1567 N 0.15569 0.37909 0.30711 0.0
loop_
_geom_bond_atom_site_label_1
_geom_bond_atom_site_label_2
_geom_bond_distance
_geom_bond_site_symmetry_2
_ccdc_geom_bond_type
C0 O1 1.160 . S
C0 O7 1.185 . S
O1 C0 1.160 . S
O2 Zn3 1.899 . S
O2 C10 1.284 . S
Zn3 O2 1.899 . S
Zn3 O4 2.032 . S
Zn3 O7 2.086 . S
Zn3 O12 1.977 . S
O4 Zn3 2.032 . S
O4 C8 1.278 . S
C5 O6 1.203 . S
C5 O12 1.267 . S
O6 C5 1.203 . S
O7 C0 1.185 . S
O7 Zn3 2.086 . S
C8 O4 1.278 . S
C8 O9 1.211 . S
O9 C8 1.211 . S
C10 O2 1.284 . S
C10 O11 1.273 . S
O11 C10 1.273 . S
O12 Zn3 1.977 . S
O12 C5 1.267 . S
C13 O14 1.160 . S
C13 O20 1.185 . S
O14 C13 1.160 . S
O15 Zn16 1.899 . S
O15 C23 1.284 . S
Zn16 O15 1.899 . S
Zn16 O17 2.032 . S
Zn16 O20 2.086 . S
Zn16 O25 1.977 . S
O17 Zn16 2.032 . S
O17 C21 1.278 . S
C18 O19 1.203 . S
C18 O25 1.267 . S
O19 C18 1.203 . S
O20 C13 1.185 . S
O20 Zn16 2.086 . S
C21 O17 1.278 . S
C21 O22 1.211 . S
O22 C21 1.211 . S
C23 O15 1.284 . S
C23 O24 1.273 . S
O24 C23 1.273 . S
O25 Zn16 1.977 . S
O25 C18 1.267 . S
C26 O27 1.160 . S
C26 O33 1.185 . S
O27 C26 1.160 . S
O28 Zn29 1.899 . S
O28 C36 1.284 . S
Zn29 O28 1.899 . S
Zn29 O30 2.032 . S
Zn29 O33 2.086 . S
Zn29 O38 1.977 . S
O30 Zn29 2.032 . S
O30 C34 1.278 . S
C31 O32 1.203 . S
C31 O38 1.267 . S
O32 C31 1.203 . S
O33 C26 1.185 . S
O33 Zn29 2.086 . S
C34 O30 1.278 . S
C34 O35 1.211 . S
O35 C34 1.211 . S
C36 O28 1.284 . S
C36 O37 1.273 . S
O37 C36 1.273 . S
O38 Zn29 1.977 . S
O38 C31 1.267 . S
C39 O40 1.160 . S
C39 O46 1.185 . S
O40 C39 1.160 . S
O41 Zn42 1.899 . S
O41 C49 1.284 . S
Zn42 O41 1.899 . S
Zn42 O43 2.032 . S
Zn42 O46 2.086 . S
Zn42 O51 1.977 . S
O43 Zn42 2.032 . S
O43 C47 1.278 . S
C44 O45 1.203 . S
C44 O51 1.267 . S
O45 C44 1.203 . S
O46 C39 1.185 . S
O46 Zn42 2.086 . S
C47 O43 1.278 . S
C47 O48 1.211 1_556 S
O48 C47 1.211 1_554 S
C49 O41 1.284 . S
C49 O50 1.273 . S
O50 C49 1.273 . S
O51 Zn42 1.977 . S
O51 C44 1.267 . S
C52 O53 1.160 . S
C52 O59 1.185 . S
O53 C52 1.160 . S
O54 Zn55 1.899 . S
O54 C62 1.284 . S
Zn55 O54 1.899 . S
Zn55 O56 2.032 . S
Zn55 O59 2.086 . S
Zn55 O64 1.977 . S
O56 Zn55 2.032 . S
O56 C60 1.278 . S
C57 O58 1.203 . S
C57 O64 1.267 . S
O58 C57 1.203 . S
O59 C52 1.185 . S
O59 Zn55 2.086 . S
C60 O56 1.278 . S
C60 O61 1.211 . S
O61 C60 1.211 . S
C62 O54 1.284 . S
C62 O63 1.273 . S
O63 C62 1.273 . S
O64 Zn55 1.977 . S
O64 C57 1.267 . S
C65 O66 1.160 . S
C65 O72 1.185 . S
O66 C65 1.160 . S
O67 Zn68 1.899 . S
O67 C75 1.284 . S
Zn68 O67 1.899 . S
Zn68 O69 2.032 . S
Zn68 O72 2.086 . S
Zn68 O77 1.977 . S
O69 Zn68 2.032 . S
O69 C73 1.278 . S
C70 O71 1.203 . S
C70 O77 1.267 . S
O71 C70 1.203 . S
O72 C65 1.185 . S
O72 Zn68 2.086 . S
C73 O69 1.278 . S
C73 O74 1.211 1_554 S
O74 C73 1.211 1_556 S
C75 O67 1.284 . S
C75 O76 1.273 . S
O76 C75 1.273 . S
O77 Zn68 1.977 . S
O77 C70 1.267 . S
C78 O79 1.160 . S
C78 O85 1.185 . S
O79 C78 1.160 . S
O80 Zn81 1.899 . S
O80 C88 1.284 . S
Zn81 O80 1.899 . S
Zn81 O82 2.032 . S
Zn81 O85 2.086 . S
Zn81 O90 1.977 . S
O82 Zn81 2.032 . S
O82 C86 1.278 . S
C83 O84 1.203 . S
C83 O90 1.267 . S
O84 C83 1.203 . S
O85 C78 1.185 . S
O85 Zn81 2.086 . S
C86 O82 1.278 . S
C86 O87 1.211 . S
O87 C86 1.211 . S
C88 O80 1.284 . S
C88 O89 1.273 . S
O89 C88 1.273 . S
O90 Zn81 1.977 . S
O90 C83 1.267 . S
C91 O92 1.160 . S
C91 O98 1.185 . S
O92 C91 1.160 . S
O93 Zn94 1.899 . S
O93 C101 1.284 . S
Zn94 O93 1.899 . S
Zn94 O95 2.032 . S
Zn94 O98 2.086 . S
Zn94 O103 1.977 . S
O95 Zn94 2.032 . S
O95 C99 1.278 . S
C96 O97 1.203 . S
C96 O103 1.267 . S
O97 C96 1.203 . S
O98 C91 1.185 . S
O98 Zn94 2.086 . S
C99 O95 1.278 . S
C99 O100 1.211 . S
O100 C99 1.211 . S
C101 O93 1.284 . S
C101 O102 1.273 . S
O102 C101 1.273 . S
O103 Zn94 1.977 . S
O103 C96 1.267 . S
C104 O105 1.160 . S
C104 O111 1.185 . S
O105 C104 1.160 . S
O106 Zn107 1.899 . S
O106 C114 1.284 . S
Zn107 O106 1.899 . S
Zn107 O108 2.032 . S
Zn107 O111 2.086 . S
Zn107 O116 1.977 . S
O108 Zn107 2.032 . S
O108 C112 1.278 . S
C109 O110 1.203 . S
C109 O116 1.267 . S
O110 C109 1.203 . S
O111 C104 1.185 . S
O111 Zn107 2.086 . S
C112 O108 1.278 . S
C112 O113 1.211 . S
O113 C112 1.211 . S
C114 O106 1.284 . S
C114 O115 1.273 . S
O115 C114 1.273 . S
O116 Zn107 1.977 . S
O116 C109 1.267 . S
C117 O118 1.160 . S
C117 O124 1.185 . S
O118 C117 1.160 . S
O119 Zn120 1.899 . S
O119 C127 1.284 . S
Zn120 O119 1.899 . S
Zn120 O121 2.032 . S
Zn120 O124 2.086 . S
Zn120 O129 1.977 . S
O121 Zn120 2.032 . S
O121 C125 1.278 . S
C122 O123 1.203 . S
C122 O129 1.267 . S
O123 C122 1.203 . S
O124 C117 1.185 . S
O124 Zn120 2.086 . S
C125 O121 1.278 . S
C125 O126 1.211 . S
O126 C125 1.211 . S
C127 O119 1.284 . S
C127 O128 1.273 . S
O128 C127 1.273 . S
O129 Zn120 1.977 . S
O129 C122 1.267 . S
C130 O131 1.160 . S
C130 O137 1.185 . S
O131 C130 1.160 . S
O132 Zn133 1.899 . S
O132 C140 1.284 . S
Zn133 O132 1.899 . S
Zn133 O134 2.032 . S
Zn133 O137 2.086 . S
Zn133 O142 1.977 . S
O134 Zn133 2.032 . S
O134 C138 1.278 . S
C135 O136 1.203 . S
C135 O142 1.267 . S
O136 C135 1.203 . S
O137 C130 1.185 . S
O137 Zn133 2.086 . S
C138 O134 1.278 . S
C138 O139 1.211 . S
O139 C138 1.211 . S
C140 O132 1.284 . S
C140 O141 1.273 . S
O141 C140 1.273 . S
O142 Zn133 1.977 . S
O142 C135 1.267 . S
C143 O144 1.160 . S
C143 O150 1.185 . S
O144 C143 1.160 . S
O145 Zn146 1.899 . S
O145 C153 1.284 . S
Zn146 O145 1.899 . S
Zn146 O147 2.032 . S
Zn146 O150 2.086 . S
Zn146 O155 1.977 . S
O147 Zn146 2.032 . S
O147 C151 1.278 . S
C148 O149 1.203 . S
C148 O155 1.267 . S
O149 C148 1.203 . S
O150 C143 1.185 . S
O150 Zn146 2.086 . S
C151 O147 1.278 . S
C151 O152 1.211 1_554 S
O152 C151 1.211 1_556 S
C153 O145 1.284 . S
C153 O154 1.273 . S
O154 C153 1.273 . S
O155 Zn146 1.977 . S
O155 C148 1.267 . S
C156 O157 1.160 . S
C156 O163 1.185 . S
O157 C156 1.160 . S
O158 Zn159 1.899 . S
O158 C166 1.284 . S
Zn159 O158 1.899 . S
Zn159 O160 2.032 . S
Zn159 O163 2.086 . S
Zn159 O168 1.977 . S
O160 Zn159 2.032 . S
O160 C164 1.278 . S
C161 O162 1.203 . S
C161 O168 1.267 . S
O162 C161 1.203 . S
O163 C156 1.185 . S
O163 Zn159 2.086 . S
C164 O160 1.278 . S
C164 O165 1.211 . S
O165 C164 1.211 . S
C166 O158 1.284 . S
C166 O167 1.273 . S
O167 C166 1.273 . S
O168 Zn159 1.977 . S
O168 C161 1.267 . S
C169 O170 1.160 . S
C169 O176 1.185 . S
O170 C169 1.160 . S
O171 Zn172 1.899 . S
O171 C179 1.284 . S
Zn172 O171 1.899 . S
Zn172 O173 2.032 . S
Zn172 O176 2.086 . S
Zn172 O181 1.977 . S
O173 Zn172 2.032 . S
O173 C177 1.278 . S
C174 O175 1.203 . S
C174 O181 1.267 . S
O175 C174 1.203 . S
O176 C169 1.185 . S
O176 Zn172 2.086 . S
C177 O173 1.278 . S
C177 O178 1.211 1_556 S
O178 C177 1.211 1_554 S
C179 O171 1.284 . S
C179 O180 1.273 . S
O180 C179 1.273 . S
O181 Zn172 1.977 . S
O181 C174 1.267 . S
C182 O183 1.160 . S
C182 O189 1.185 . S
O183 C182 1.160 . S
O184 Zn185 1.899 . S
O184 C192 1.284 . S
Zn185 O184 1.899 . S
Zn185 O186 2.032 . S
Zn185 O189 2.086 . S
Zn185 O194 1.977 . S
O186 Zn185 2.032 . S
O186 C190 1.278 . S
C187 O188 1.203 . S
C187 O194 1.267 . S
O188 C187 1.203 . S
O189 C182 1.185 . S
O189 Zn185 2.086 . S
C190 O186 1.278 . S
C190 O191 1.211 . S
O191 C190 1.211 . S
C192 O184 1.284 . S
C192 O193 1.273 . S
O193 C192 1.273 . S
O194 Zn185 1.977 . S
O194 C187 1.267 . S
C195 O196 1.160 . S
C195 O202 1.185 . S
O196 C195 1.160 . S
O197 Zn198 1.899 . S
O197 C205 1.284 . S
Zn198 O197 1.899 . S
Zn198 O199 2.032 . S
Zn198 O202 2.086 . S
Zn198 O207 1.977 . S
O199 Zn198 2.032 . S
O199 C203 1.278 . S
C200 O201 1.203 . S
C200 O207 1.267 . S
O201 C200 1.203 . S
O202 C195 1.185 . S
O202 Zn198 2.086 . S
C203 O199 1.278 . S
C203 O204 1.211 . S
O204 C203 1.211 . S
C205 O197 1.284 . S
C205 O206 1.273 . S
O206 C205 1.273 . S
O207 Zn198 1.977 . S
O207 C200 1.267 . S
C208 O209 1.160 . S
C208 O215 1.185 . S
O209 C208 1.160 . S
O210 Zn211 1.899 . S
O210 C218 1.284 . S
Zn211 O210 1.899 . S
Zn211 O212 2.032 . S
Zn211 O215 2.086 . S
Zn211 O220 1.977 . S
O212 Zn211 2.032 . S
O212 C216 1.278 . S
C213 O214 1.203 . S
C213 O220 1.267 . S
O214 C213 1.203 . S
O215 C208 1.185 . S
O215 Zn211 2.086 . S
C216 O212 1.278 . S
C216 O217 1.211 . S
O217 C216 1.211 . S
C218 O210 1.284 . S
C218 O219 1.273 . S
O219 C218 1.273 . S
O220 Zn211 1.977 . S
O220 C213 1.267 . S
C221 O222 1.160 . S
C221 O228 1.185 . S
O222 C221 1.160 . S
O223 Zn224 1.899 . S
O223 C231 1.284 . S
Zn224 O223 1.899 . S
Zn224 O225 2.032 . S
Zn224 O228 2.086 . S
Zn224 O233 1.977 . S
O225 Zn224 2.032 . S
O225 C229 1.278 . S
C226 O227 1.203 . S
C226 O233 1.267 . S
O227 C226 1.203 . S
O228 C221 1.185 . S
O228 Zn224 2.086 . S
C229 O225 1.278 . S
C229 O230 1.211 1_556 S
O230 C229 1.211 1_554 S
C231 O223 1.284 . S
C231 O232 1.273 . S
O232 C231 1.273 . S
O233 Zn224 1.977 . S
O233 C226 1.267 . S
C234 O235 1.160 . S
C234 O241 1.185 . S
O235 C234 1.160 . S
O236 Zn237 1.899 . S
O236 C244 1.284 . S
Zn237 O236 1.899 . S
Zn237 O238 2.032 . S
Zn237 O241 2.086 . S
Zn237 O246 1.977 . S
O238 Zn237 2.032 . S
O238 C242 1.278 . S
C239 O240 1.203 . S
C239 O246 1.267 . S
O240 C239 1.203 . S
O241 C234 1.185 . S
O241 Zn237 2.086 . S
C242 O238 1.278 . S
C242 O243 1.211 . S
O243 C242 1.211 . S
C244 O236 1.284 . S
C244 O245 1.273 . S
O245 C244 1.273 . S
O246 Zn237 1.977 . S
O246 C239 1.267 . S
C247 O248 1.160 . S
C247 O254 1.185 . S
O248 C247 1.160 . S
O249 Zn250 1.899 . S
O249 C257 1.284 . S
Zn250 O249 1.899 . S
Zn250 O251 2.032 . S
Zn250 O254 2.086 . S
Zn250 O259 1.977 . S
O251 Zn250 2.032 . S
O251 C255 1.278 . S
C252 O253 1.203 . S
C252 O259 1.267 . S
O253 C252 1.203 . S
O254 C247 1.185 . S
O254 Zn250 2.086 . S
C255 O251 1.278 . S
C255 O256 1.211 . S
O256 C255 1.211 . S
C257 O249 1.284 . S
C257 O258 1.273 . S
O258 C257 1.273 . S
O259 Zn250 1.977 . S
O259 C252 1.267 . S
C260 O261 1.160 . S
C260 O267 1.185 . S
O261 C260 1.160 . S
O262 Zn263 1.899 . S
O262 C270 1.284 . S
Zn263 O262 1.899 . S
Zn263 O264 2.032 . S
Zn263 O267 2.086 . S
Zn263 O272 1.977 . S
O264 Zn263 2.032 . S
O264 C268 1.278 . S
C265 O266 1.203 . S
C265 O272 1.267 . S
O266 C265 1.203 . S
O267 C260 1.185 . S
O267 Zn263 2.086 . S
C268 O264 1.278 . S
C268 O269 1.211 . S
O269 C268 1.211 . S
C270 O262 1.284 . S
C270 O271 1.273 . S
O271 C270 1.273 . S
O272 Zn263 1.977 . S
O272 C265 1.267 . S
C273 O274 1.160 . S
C273 O280 1.185 . S
O274 C273 1.160 . S
O275 Zn276 1.899 . S
O275 C283 1.284 . S
Zn276 O275 1.899 . S
Zn276 O277 2.032 . S
Zn276 O280 2.086 . S
Zn276 O285 1.977 . S
O277 Zn276 2.032 . S
O277 C281 1.278 . S
C278 O279 1.203 . S
C278 O285 1.267 . S
O279 C278 1.203 . S
O280 C273 1.185 . S
O280 Zn276 2.086 . S
C281 O277 1.278 . S
C281 O282 1.211 . S
O282 C281 1.211 . S
C283 O275 1.284 . S
C283 O284 1.273 . S
O284 C283 1.273 . S
O285 Zn276 1.977 . S
O285 C278 1.267 . S
C286 O287 1.160 . S
C286 O293 1.185 . S
O287 C286 1.160 . S
O288 Zn289 1.899 . S
O288 C296 1.284 . S
Zn289 O288 1.899 . S
Zn289 O290 2.032 . S
Zn289 O293 2.086 . S
Zn289 O298 1.977 . S
O290 Zn289 2.032 . S
O290 C294 1.278 . S
C291 O292 1.203 . S
C291 O298 1.267 . S
O292 C291 1.203 . S
O293 C286 1.185 . S
O293 Zn289 2.086 . S
C294 O290 1.278 . S
C294 O295 1.211 . S
O295 C294 1.211 . S
C296 O288 1.284 . S
C296 O297 1.273 . S
O297 C296 1.273 . S
O298 Zn289 1.977 . S
O298 C291 1.267 . S
C299 O300 1.160 . S
C299 O306 1.185 . S
O300 C299 1.160 . S
O301 Zn302 1.899 . S
O301 C309 1.284 . S
Zn302 O301 1.899 . S
Zn302 O303 2.032 . S
Zn302 O306 2.086 . S
Zn302 O311 1.977 . S
O303 Zn302 2.032 . S
O303 C307 1.278 . S
C304 O305 1.203 . S
C304 O311 1.267 . S
O305 C304 1.203 . S
O306 C299 1.185 . S
O306 Zn302 2.086 . S
C307 O303 1.278 . S
C307 O308 1.211 1_554 S
O308 C307 1.211 1_556 S
C309 O301 1.284 . S
C309 O310 1.273 . S
O310 C309 1.273 . S
O311 Zn302 1.977 . S
O311 C304 1.267 . S
C312 O313 1.160 . S
C312 O319 1.185 . S
O313 C312 1.160 . S
O314 Zn315 1.899 . S
O314 C322 1.284 . S
Zn315 O314 1.899 . S
Zn315 O316 2.032 . S
Zn315 O319 2.086 . S
Zn315 O324 1.977 . S
O316 Zn315 2.032 . S
O316 C320 1.278 . S
C317 O318 1.203 . S
C317 O324 1.267 . S
O318 C317 1.203 . S
O319 C312 1.185 . S
O319 Zn315 2.086 . S
C320 O316 1.278 . S
C320 O321 1.211 . S
O321 C320 1.211 . S
C322 O314 1.284 . S
C322 O323 1.273 . S
O323 C322 1.273 . S
O324 Zn315 1.977 . S
O324 C317 1.267 . S
C325 O326 1.160 . S
C325 O332 1.185 . S
O326 C325 1.160 . S
O327 Zn328 1.899 . S
O327 C335 1.284 . S
Zn328 O327 1.899 . S
Zn328 O329 2.032 . S
Zn328 O332 2.086 . S
Zn328 O337 1.977 . S
O329 Zn328 2.032 . S
O329 C333 1.278 . S
C330 O331 1.203 . S
C330 O337 1.267 . S
O331 C330 1.203 . S
O332 C325 1.185 . S
O332 Zn328 2.086 . S
C333 O329 1.278 . S
C333 O334 1.211 1_554 S
O334 C333 1.211 1_556 S
C335 O327 1.284 . S
C335 O336 1.273 . S
O336 C335 1.273 . S
O337 Zn328 1.977 . S
O337 C330 1.267 . S
C338 O339 1.160 . S
C338 O345 1.185 . S
O339 C338 1.160 . S
O340 Zn341 1.899 . S
O340 C348 1.284 . S
Zn341 O340 1.899 . S
Zn341 O342 2.032 . S
Zn341 O345 2.086 . S
Zn341 O350 1.977 . S
O342 Zn341 2.032 . S
O342 C346 1.278 . S
C343 O344 1.203 . S
C343 O350 1.267 . S
O344 C343 1.203 . S
O345 C338 1.185 . S
O345 Zn341 2.086 . S
C346 O342 1.278 . S
C346 O347 1.211 . S
O347 C346 1.211 . S
C348 O340 1.284 . S
C348 O349 1.273 . S
O349 C348 1.273 . S
O350 Zn341 1.977 . S
O350 C343 1.267 . S
C351 O352 1.160 . S
C351 O358 1.185 . S
O352 C351 1.160 . S
O353 Zn354 1.899 . S
O353 C361 1.284 . S
Zn354 O353 1.899 . S
Zn354 O355 2.032 . S
Zn354 O358 2.086 . S
Zn354 O363 1.977 . S
O355 Zn354 2.032 . S
O355 C359 1.278 . S
C356 O357 1.203 . S
C356 O363 1.267 . S
O357 C356 1.203 . S
O358 C351 1.185 . S
O358 Zn354 2.086 . S
C359 O355 1.278 . S
C359 O360 1.211 . S
O360 C359 1.211 . S
C361 O353 1.284 . S
C361 O362 1.273 . S
O362 C361 1.273 . S
O363 Zn354 1.977 . S
O363 C356 1.267 . S
C364 O365 1.160 . S
C364 O371 1.185 . S
O365 C364 1.160 . S
O366 Zn367 1.899 . S
O366 C374 1.284 . S
Zn367 O366 1.899 . S
Zn367 O368 2.032 . S
Zn367 O371 2.086 . S
Zn367 O376 1.977 . S
O368 Zn367 2.032 . S
O368 C372 1.278 . S
C369 O370 1.203 . S
C369 O376 1.267 . S
O370 C369 1.203 . S
O371 C364 1.185 . S
O371 Zn367 2.086 . S
C372 O368 1.278 . S
C372 O373 1.211 . S
O373 C372 1.211 . S
C374 O366 1.284 . S
C374 O375 1.273 . S
O375 C374 1.273 . S
O376 Zn367 1.977 . S
O376 C369 1.267 . S
C377 O378 1.160 . S
C377 O384 1.185 . S
O378 C377 1.160 . S
O379 Zn380 1.899 . S
O379 C387 1.284 . S
Zn380 O379 1.899 . S
Zn380 O381 2.032 . S
Zn380 O384 2.086 . S
Zn380 O389 1.977 . S
O381 Zn380 2.032 . S
O381 C385 1.278 . S
C382 O383 1.203 . S
C382 O389 1.267 . S
O383 C382 1.203 . S
O384 C377 1.185 . S
O384 Zn380 2.086 . S
C385 O381 1.278 . S
C385 O386 1.211 . S
O386 C385 1.211 . S
C387 O379 1.284 . S
C387 O388 1.273 . S
O388 C387 1.273 . S
O389 Zn380 1.977 . S
O389 C382 1.267 . S
C390 O391 1.160 . S
C390 O397 1.185 . S
O391 C390 1.160 . S
O392 Zn393 1.899 . S
O392 C400 1.284 . S
Zn393 O392 1.899 . S
Zn393 O394 2.032 . S
Zn393 O397 2.086 . S
Zn393 O402 1.977 . S
O394 Zn393 2.032 . S
O394 C398 1.278 . S
C395 O396 1.203 . S
C395 O402 1.267 . S
O396 C395 1.203 . S
O397 C390 1.185 . S
O397 Zn393 2.086 . S
C398 O394 1.278 . S
C398 O399 1.211 . S
O399 C398 1.211 . S
C400 O392 1.284 . S
C400 O401 1.273 . S
O401 C400 1.273 . S
O402 Zn393 1.977 . S
O402 C395 1.267 . S
C403 O404 1.160 . S
C403 O410 1.185 . S
O404 C403 1.160 . S
O405 Zn406 1.899 . S
O405 C413 1.284 . S
Zn406 O405 1.899 . S
Zn406 O407 2.032 . S
Zn406 O410 2.086 . S
Zn406 O415 1.977 . S
O407 Zn406 2.032 . S
O407 C411 1.278 . S
C408 O409 1.203 . S
C408 O415 1.267 . S
O409 C408 1.203 . S
O410 C403 1.185 . S
O410 Zn406 2.086 . S
C411 O407 1.278 . S
C411 O412 1.211 1_556 S
O412 C411 1.211 1_554 S
C413 O405 1.284 . S
C413 O414 1.273 . S
O414 C413 1.273 . S
O415 Zn406 1.977 . S
O415 C408 1.267 . S
H416 C422 0.930 . S
H417 C426 0.930 . S
H418 C431 0.929 . S
H419 C429 0.929 . S
H420 C424 0.929 . S
H421 C430 0.929 . S
C422 H416 0.930 . S
C422 C423 1.367 . S
C422 C430 1.378 . S
C423 C422 1.367 . S
C423 C431 1.433 . S
C424 H420 0.929 . S
C424 C426 1.378 . S
C424 C428 1.350 . S
C425 C428 1.463 . S
C425 C430 1.350 . S
C425 N433 1.427 . S
C426 H417 0.930 . S
C426 C424 1.378 . S
C426 C427 1.367 . S
C427 C426 1.367 . S
C427 C429 1.433 . S
C428 C424 1.350 . S
C428 C425 1.463 . S
C428 N432 1.427 . S
C429 H419 0.929 . S
C429 C427 1.433 . S
C429 N432 1.384 . S
C430 H421 0.929 . S
C430 C422 1.378 . S
C430 C425 1.350 . S
C431 H418 0.929 . S
C431 C423 1.433 . S
C431 N433 1.384 . S
N432 C428 1.427 . S
N432 C429 1.384 . S
N433 C425 1.427 . S
N433 C431 1.384 . S
H434 C440 0.930 . S
H435 C444 0.930 . S
H436 C449 0.929 . S
H437 C447 0.929 . S
H438 C442 0.929 . S
H439 C448 0.929 . S
C440 H434 0.930 . S
C440 C441 1.367 . S
C440 C448 1.378 . S
C441 C440 1.367 . S
C441 C449 1.433 . S
C442 H438 0.929 . S
C442 C444 1.378 . S
C442 C446 1.350 . S
C443 C446 1.463 1_565 S
C443 C448 1.350 . S
C443 N451 1.427 . S
C444 H435 0.930 . S
C444 C442 1.378 . S
C444 C445 1.367 . S
C445 C444 1.367 . S
C445 C447 1.433 . S
C446 C442 1.350 . S
C446 C443 1.463 1_545 S
C446 N450 1.427 . S
C447 H437 0.929 . S
C447 C445 1.433 . S
C447 N450 1.384 . S
C448 H439 0.929 . S
C448 C440 1.378 . S
C448 C443 1.350 . S
C449 H436 0.929 . S
C449 C441 1.433 . S
C449 N451 1.384 . S
N450 C446 1.427 . S
N450 C447 1.384 . S
N451 C443 1.427 . S
N451 C449 1.384 . S
H452 C458 0.930 . S
H453 C462 0.930 . S
H454 C467 0.929 . S
H455 C465 0.929 . S
H456 C460 0.929 . S
H457 C466 0.929 . S
C458 H452 0.930 . S
C458 C459 1.367 . S
C458 C466 1.378 . S
C459 C458 1.367 . S
C459 C467 1.433 . S
C460 H456 0.929 . S
C460 C462 1.378 . S
C460 C464 1.350 . S
C461 C464 1.463 . S
C461 C466 1.350 . S
C461 N469 1.427 . S
C462 H453 0.930 . S
C462 C460 1.378 . S
C462 C463 1.367 . S
C463 C462 1.367 . S
C463 C465 1.433 . S
C464 C460 1.350 . S
C464 C461 1.463 . S
C464 N468 1.427 . S
C465 H455 0.929 . S
C465 C463 1.433 . S
C465 N468 1.384 . S
C466 H457 0.929 . S
C466 C458 1.378 . S
C466 C461 1.350 . S
C467 H454 0.929 . S
C467 C459 1.433 . S
C467 N469 1.384 . S
N468 C464 1.427 . S
N468 C465 1.384 . S
N469 C461 1.427 . S
N469 C467 1.384 . S
H470 C476 0.930 . S
H471 C480 0.930 . S
H472 C485 0.929 . S
H473 C483 0.929 . S
H474 C478 0.929 . S
H475 C484 0.929 . S
C476 H470 0.930 . S
C476 C477 1.367 . S
C476 C484 1.378 . S
C477 C476 1.367 . S
C477 C485 1.433 1_556 S
C478 H474 0.929 . S
C478 C480 1.378 . S
C478 C482 1.350 . S
C479 C482 1.463 1_546 S
C479 C484 1.350 . S
C479 N487 1.427 1_556 S
C480 H471 0.930 . S
C480 C478 1.378 . S
C480 C481 1.367 . S
C481 C480 1.367 . S
C481 C483 1.433 1_554 S
C482 C478 1.350 . S
C482 C479 1.463 1_564 S
C482 N486 1.427 1_554 S
C483 H473 0.929 . S
C483 C481 1.433 1_556 S
C483 N486 1.384 . S
C484 H475 0.929 . S
C484 C476 1.378 . S
C484 C479 1.350 . S
C485 H472 0.929 . S
C485 C477 1.433 1_554 S
C485 N487 1.384 . S
N486 C482 1.427 1_556 S
N486 C483 1.384 . S
N487 C479 1.427 1_554 S
N487 C485 1.384 . S
H488 C494 0.930 . S
H489 C498 0.930 . S
H490 C503 0.929 . S
H491 C501 0.929 . S
H492 C496 0.929 . S
H493 C502 0.929 . S
C494 H488 0.930 . S
C494 C495 1.367 . S
C494 C502 1.378 . S
C495 C494 1.367 . S
C495 C503 1.433 . S
C496 H492 0.929 . S
C496 C498 1.378 . S
C496 C500 1.350 . S
C497 C500 1.463 . S
C497 C502 1.350 . S
C497 N505 1.427 . S
C498 H489 0.930 . S
C498 C496 1.378 . S
C498 C499 1.367 . S
C499 C498 1.367 . S
C499 C501 1.433 . S
C500 C496 1.350 . S
C500 C497 1.463 . S
C500 N504 1.427 . S
C501 H491 0.929 . S
C501 C499 1.433 . S
C501 N504 1.384 . S
C502 H493 0.929 . S
C502 C494 1.378 . S
C502 C497 1.350 . S
C503 H490 0.929 . S
C503 C495 1.433 . S
C503 N505 1.384 . S
N504 C500 1.427 . S
N504 C501 1.384 . S
N505 C497 1.427 . S
N505 C503 1.384 . S
H506 C512 0.930 . S
H507 C516 0.930 . S
H508 C521 0.929 . S
H509 C519 0.929 . S
H510 C514 0.929 . S
H511 C520 0.929 . S
C512 H506 0.930 . S
C512 C513 1.367 . S
C512 C520 1.378 . S
C513 C512 1.367 . S
C513 C521 1.433 . S
C514 H510 0.929 . S
C514 C516 1.378 . S
C514 C518 1.350 . S
C515 C518 1.463 1_565 S
C515 C520 1.350 . S
C515 N523 1.427 . S
C516 H507 0.930 . S
C516 C514 1.378 . S
C516 C517 1.367 . S
C517 C516 1.367 . S
C517 C519 1.433 . S
C518 C514 1.350 . S
C518 C515 1.463 1_545 S
C518 N522 1.427 . S
C519 H509 0.929 . S
C519 C517 1.433 . S
C519 N522 1.384 . S
C520 H511 0.929 . S
C520 C512 1.378 . S
C520 C515 1.350 . S
C521 H508 0.929 . S
C521 C513 1.433 . S
C521 N523 1.384 . S
N522 C518 1.427 . S
N522 C519 1.384 . S
N523 C515 1.427 . S
N523 C521 1.384 . S
H524 C530 0.930 . S
H525 C534 0.930 . S
H526 C539 0.929 . S
H527 C537 0.929 . S
H528 C532 0.929 . S
H529 C538 0.929 . S
C530 H524 0.930 . S
C530 C531 1.367 . S
C530 C538 1.378 . S
C531 C530 1.367 . S
C531 C539 1.433 . S
C532 H528 0.929 . S
C532 C534 1.378 . S
C532 C536 1.350 . S
C533 C536 1.463 . S
C533 C538 1.350 . S
C533 N541 1.427 . S
C534 H525 0.930 . S
C534 C532 1.378 . S
C534 C535 1.367 . S
C535 C534 1.367 . S
C535 C537 1.433 . S
C536 C532 1.350 . S
C536 C533 1.463 . S
C536 N540 1.427 . S
C537 H527 0.929 . S
C537 C535 1.433 . S
C537 N540 1.384 . S
C538 H529 0.929 . S
C538 C530 1.378 . S
C538 C533 1.350 . S
C539 H526 0.929 . S
C539 C531 1.433 . S
C539 N541 1.384 . S
N540 C536 1.427 . S
N540 C537 1.384 . S
N541 C533 1.427 . S
N541 C539 1.384 . S
H542 C548 0.930 . S
H543 C552 0.930 . S
H544 C557 0.929 . S
H545 C555 0.929 . S
H546 C550 0.929 . S
H547 C556 0.929 . S
C548 H542 0.930 . S
C548 C549 1.367 . S
C548 C556 1.378 1_556 S
C549 C548 1.367 . S
C549 C557 1.433 . S
C550 H546 0.929 . S
C550 C552 1.378 1_556 S
C550 C554 1.350 1_556 S
C551 C554 1.463 1_546 S
C551 C556 1.350 1_556 S
C551 N559 1.427 . S
C552 H543 0.930 . S
C552 C550 1.378 1_554 S
C552 C553 1.367 . S
C553 C552 1.367 . S
C553 C555 1.433 . S
C554 C550 1.350 1_554 S
C554 C551 1.463 1_564 S
C554 N558 1.427 . S
C555 H545 0.929 . S
C555 C553 1.433 . S
C555 N558 1.384 . S
C556 H547 0.929 . S
C556 C548 1.378 1_554 S
C556 C551 1.350 1_554 S
C557 H544 0.929 . S
C557 C549 1.433 . S
C557 N559 1.384 . S
N558 C554 1.427 . S
N558 C555 1.384 . S
N559 C551 1.427 . S
N559 C557 1.384 . S
H560 C566 0.930 . S
H561 C570 0.930 . S
H562 C575 0.929 . S
H563 C573 0.929 . S
H564 C568 0.929 . S
H565 C574 0.929 . S
C566 H560 0.930 . S
C566 C567 1.367 . S
C566 C574 1.378 . S
C567 C566 1.367 . S
C567 C575 1.433 . S
C568 H564 0.929 . S
C568 C570 1.378 . S
C568 C572 1.350 . S
C569 C572 1.463 . S
C569 C574 1.350 . S
C569 N577 1.427 . S
C570 H561 0.930 . S
C570 C568 1.378 . S
C570 C571 1.367 . S
C571 C570 1.367 . S
C571 C573 1.433 . S
C572 C568 1.350 . S
C572 C569 1.463 . S
C572 N576 1.427 . S
C573 H563 0.929 . S
C573 C571 1.433 . S
C573 N576 1.384 . S
C574 H565 0.929 . S
C574 C566 1.378 . S
C574 C569 1.350 . S
C575 H562 0.929 . S
C575 C567 1.433 . S
C575 N577 1.384 . S
N576 C572 1.427 . S
N576 C573 1.384 . S
N577 C569 1.427 . S
N577 C575 1.384 . S
H578 C584 0.930 . S
H579 C588 0.930 . S
H580 C593 0.929 . S
H581 C591 0.929 . S
H582 C586 0.929 . S
H583 C592 0.929 . S
C584 H578 0.930 . S
C584 C585 1.367 1_554 S
C584 C592 1.378 . S
C585 C584 1.367 1_556 S
C585 C593 1.433 . S
C586 H582 0.929 . S
C586 C588 1.378 . S
C586 C590 1.350 1_556 S
C587 C590 1.463 1_556 S
C587 C592 1.350 1_556 S
C587 N595 1.427 . S
C588 H579 0.930 . S
C588 C586 1.378 . S
C588 C589 1.367 1_556 S
C589 C588 1.367 1_554 S
C589 C591 1.433 . S
C590 C586 1.350 1_554 S
C590 C587 1.463 1_554 S
C590 N594 1.427 . S
C591 H581 0.929 . S
C591 C589 1.433 . S
C591 N594 1.384 . S
C592 H583 0.929 . S
C592 C584 1.378 . S
C592 C587 1.350 1_554 S
C593 H580 0.929 . S
C593 C585 1.433 . S
C593 N595 1.384 . S
N594 C590 1.427 . S
N594 C591 1.384 . S
N595 C587 1.427 . S
N595 C593 1.384 . S
H596 C602 0.930 . S
H597 C606 0.930 . S
H598 C611 0.929 . S
H599 C609 0.929 . S
H600 C604 0.929 . S
H601 C610 0.929 . S
C602 H596 0.930 . S
C602 C603 1.367 . S
C602 C610 1.378 . S
C603 C602 1.367 . S
C603 C611 1.433 . S
C604 H600 0.929 . S
C604 C606 1.378 . S
C604 C608 1.350 . S
C605 C608 1.463 . S
C605 C610 1.350 . S
C605 N613 1.427 . S
C606 H597 0.930 . S
C606 C604 1.378 . S
C606 C607 1.367 . S
C607 C606 1.367 . S
C607 C609 1.433 . S
C608 C604 1.350 . S
C608 C605 1.463 . S
C608 N612 1.427 . S
C609 H599 0.929 . S
C609 C607 1.433 . S
C609 N612 1.384 . S
C610 H601 0.929 . S
C610 C602 1.378 . S
C610 C605 1.350 . S
C611 H598 0.929 . S
C611 C603 1.433 . S
C611 N613 1.384 . S
N612 C608 1.427 . S
N612 C609 1.384 . S
N613 C605 1.427 . S
N613 C611 1.384 . S
H614 C620 0.930 . S
H615 C624 0.930 . S
H616 C629 0.929 . S
H617 C627 0.929 . S
H618 C622 0.929 . S
H619 C628 0.929 . S
C620 H614 0.930 . S
C620 C621 1.367 . S
C620 C628 1.378 . S
C621 C620 1.367 . S
C621 C629 1.433 . S
C622 H618 0.929 . S
C622 C624 1.378 . S
C622 C626 1.350 . S
C623 C626 1.463 . S
C623 C628 1.350 . S
C623 N631 1.427 . S
C624 H615 0.930 . S
C624 C622 1.378 . S
C624 C625 1.367 . S
C625 C624 1.367 . S
C625 C627 1.433 . S
C626 C622 1.350 . S
C626 C623 1.463 . S
C626 N630 1.427 . S
C627 H617 0.929 . S
C627 C625 1.433 . S
C627 N630 1.384 . S
C628 H619 0.929 . S
C628 C620 1.378 . S
C628 C623 1.350 . S
C629 H616 0.929 . S
C629 C621 1.433 . S
C629 N631 1.384 . S
N630 C626 1.427 . S
N630 C627 1.384 . S
N631 C623 1.427 . S
N631 C629 1.384 . S
H632 C638 0.930 . S
H633 C642 0.930 . S
H634 C647 0.929 . S
H635 C645 0.929 . S
H636 C640 0.929 . S
H637 C646 0.929 . S
C638 H632 0.930 . S
C638 C639 1.367 . S
C638 C646 1.378 . S
C639 C638 1.367 . S
C639 C647 1.433 . S
C640 H636 0.929 . S
C640 C642 1.378 . S
C640 C644 1.350 . S
C641 C644 1.463 . S
C641 C646 1.350 . S
C641 N649 1.427 . S
C642 H633 0.930 . S
C642 C640 1.378 . S
C642 C643 1.367 . S
C643 C642 1.367 . S
C643 C645 1.433 . S
C644 C640 1.350 . S
C644 C641 1.463 . S
C644 N648 1.427 . S
C645 H635 0.929 . S
C645 C643 1.433 . S
C645 N648 1.384 . S
C646 H637 0.929 . S
C646 C638 1.378 . S
C646 C641 1.350 . S
C647 H634 0.929 . S
C647 C639 1.433 . S
C647 N649 1.384 . S
N648 C644 1.427 . S
N648 C645 1.384 . S
N649 C641 1.427 . S
N649 C647 1.384 . S
H650 C656 0.930 . S
H651 C660 0.930 . S
H652 C665 0.929 . S
H653 C663 0.929 . S
H654 C658 0.929 . S
H655 C664 0.929 . S
C656 H650 0.930 . S
C656 C657 1.367 . S
C656 C664 1.378 . S
C657 C656 1.367 . S
C657 C665 1.433 . S
C658 H654 0.929 . S
C658 C660 1.378 . S
C658 C662 1.350 . S
C659 C662 1.463 1_554 S
C659 C664 1.350 . S
C659 N667 1.427 1_554 S
C660 H651 0.930 . S
C660 C658 1.378 . S
C660 C661 1.367 . S
C661 C660 1.367 . S
C661 C663 1.433 . S
C662 C658 1.350 . S
C662 C659 1.463 1_556 S
C662 N666 1.427 1_556 S
C663 H653 0.929 . S
C663 C661 1.433 . S
C663 N666 1.384 1_556 S
C664 H655 0.929 . S
C664 C656 1.378 . S
C664 C659 1.350 . S
C665 H652 0.929 . S
C665 C657 1.433 . S
C665 N667 1.384 1_554 S
N666 C662 1.427 1_554 S
N666 C663 1.384 1_554 S
N667 C659 1.427 1_556 S
N667 C665 1.384 1_556 S
H668 C674 0.930 . S
H669 C678 0.930 . S
H670 C683 0.929 . S
H671 C681 0.929 . S
H672 C676 0.929 . S
H673 C682 0.929 . S
C674 H668 0.930 . S
C674 C675 1.367 . S
C674 C682 1.378 . S
C675 C674 1.367 . S
C675 C683 1.433 . S
C676 H672 0.929 . S
C676 C678 1.378 . S
C676 C680 1.350 . S
C677 C680 1.463 . S
C677 C682 1.350 . S
C677 N685 1.427 . S
C678 H669 0.930 . S
C678 C676 1.378 . S
C678 C679 1.367 . S
C679 C678 1.367 . S
C679 C681 1.433 . S
C680 C676 1.350 . S
C680 C677 1.463 . S
C680 N684 1.427 . S
C681 H671 0.929 . S
C681 C679 1.433 . S
C681 N684 1.384 . S
C682 H673 0.929 . S
C682 C674 1.378 . S
C682 C677 1.350 . S
C683 H670 0.929 . S
C683 C675 1.433 . S
C683 N685 1.384 . S
N684 C680 1.427 . S
N684 C681 1.384 . S
N685 C677 1.427 . S
N685 C683 1.384 . S
H686 C692 0.930 . S
H687 C696 0.930 . S
H688 C701 0.929 . S
H689 C699 0.929 . S
H690 C694 0.929 . S
H691 C700 0.929 . S
C692 H686 0.930 . S
C692 C693 1.367 . S
C692 C700 1.378 . S
C693 C692 1.367 . S
C693 C701 1.433 . S
C694 H690 0.929 . S
C694 C696 1.378 . S
C694 C698 1.350 . S
C695 C698 1.463 . S
C695 C700 1.350 . S
C695 N703 1.427 . S
C696 H687 0.930 . S
C696 C694 1.378 . S
C696 C697 1.367 . S
C697 C696 1.367 . S
C697 C699 1.433 . S
C698 C694 1.350 . S
C698 C695 1.463 . S
C698 N702 1.427 . S
C699 H689 0.929 . S
C699 C697 1.433 . S
C699 N702 1.384 . S
C700 H691 0.929 . S
C700 C692 1.378 . S
C700 C695 1.350 . S
C701 H688 0.929 . S
C701 C693 1.433 . S
C701 N703 1.384 . S
N702 C698 1.427 . S
N702 C699 1.384 . S
N703 C695 1.427 . S
N703 C701 1.384 . S
H704 C710 0.930 . S
H705 C714 0.930 . S
H706 C719 0.922 1_554 S
H707 C717 0.929 . S
H708 C712 0.929 . S
H709 C718 0.929 . S
C710 H704 0.930 . S
C710 C711 1.367 . S
C710 C718 1.378 . S
C711 C710 1.367 . S
C711 C719 1.434 . S
C712 H708 0.929 . S
C712 C714 1.378 . S
C712 C716 1.350 . S
C713 C716 1.463 . S
C713 C718 1.350 . S
C713 N721 1.427 . S
C714 H705 0.930 . S
C714 C712 1.378 . S
C714 C715 1.367 . S
C715 C714 1.367 . S
C715 C717 1.433 . S
C716 C712 1.350 . S
C716 C713 1.463 . S
C716 N720 1.427 . S
C717 H707 0.929 . S
C717 C715 1.433 . S
C717 N720 1.384 . S
C718 H709 0.929 . S
C718 C710 1.378 . S
C718 C713 1.350 . S
C719 H706 0.922 1_556 S
C719 C711 1.434 . S
C719 N721 1.390 . S
N720 C716 1.427 . S
N720 C717 1.384 . S
N721 C713 1.427 . S
N721 C719 1.390 . S
H722 C728 0.930 1_556 S
H723 C732 0.930 . S
H724 C737 0.929 . S
H725 C735 0.929 . S
H726 C730 0.929 . S
H727 C736 0.929 . S
C728 H722 0.930 1_554 S
C728 C729 1.367 . S
C728 C736 1.378 . S
C729 C728 1.367 . S
C729 C737 1.433 . S
C730 H726 0.929 . S
C730 C732 1.378 . S
C730 C734 1.350 . S
C731 C734 1.463 . S
C731 C736 1.350 . S
C731 N739 1.427 . S
C732 H723 0.930 . S
C732 C730 1.378 . S
C732 C733 1.367 . S
C733 C732 1.367 . S
C733 C735 1.433 . S
C734 C730 1.350 . S
C734 C731 1.463 . S
C734 N738 1.427 . S
C735 H725 0.929 . S
C735 C733 1.433 . S
C735 N738 1.384 . S
C736 H727 0.929 . S
C736 C728 1.378 . S
C736 C731 1.350 . S
C737 H724 0.929 . S
C737 C729 1.433 . S
C737 N739 1.384 . S
N738 C734 1.427 . S
N738 C735 1.384 . S
N739 C731 1.427 . S
N739 C737 1.384 . S
H740 C746 0.930 . S
H741 C750 0.930 . S
H742 C755 0.929 . S
H743 C753 0.929 . S
H744 C748 0.929 . S
H745 C754 0.929 . S
C746 H740 0.930 . S
C746 C747 1.367 . S
C746 C754 1.378 . S
C747 C746 1.367 . S
C747 C755 1.433 . S
C748 H744 0.929 . S
C748 C750 1.378 . S
C748 C752 1.350 . S
C749 C752 1.463 . S
C749 C754 1.350 . S
C749 N757 1.427 . S
C750 H741 0.930 . S
C750 C748 1.378 . S
C750 C751 1.367 . S
C751 C750 1.367 . S
C751 C753 1.433 . S
C752 C748 1.350 . S
C752 C749 1.463 . S
C752 N756 1.427 . S
C753 H743 0.929 . S
C753 C751 1.433 . S
C753 N756 1.384 . S
C754 H745 0.929 . S
C754 C746 1.378 . S
C754 C749 1.350 . S
C755 H742 0.929 . S
C755 C747 1.433 . S
C755 N757 1.384 . S
N756 C752 1.427 . S
N756 C753 1.384 . S
N757 C749 1.427 . S
N757 C755 1.384 . S
H758 C764 0.930 . S
H759 C768 0.930 . S
H760 C773 0.929 . S
H761 C771 0.929 . S
H762 C766 0.929 . S
H763 C772 0.929 . S
C764 H758 0.930 . S
C764 C765 1.367 . S
C764 C772 1.378 . S
C765 C764 1.367 . S
C765 C773 1.433 . S
C766 H762 0.929 . S
C766 C768 1.378 . S
C766 C770 1.350 . S
C767 C770 1.463 . S
C767 C772 1.350 . S
C767 N775 1.427 . S
C768 H759 0.930 . S
C768 C766 1.378 . S
C768 C769 1.367 . S
C769 C768 1.367 . S
C769 C771 1.433 . S
C770 C766 1.350 . S
C770 C767 1.463 . S
C770 N774 1.427 . S
C771 H761 0.929 . S
C771 C769 1.433 . S
C771 N774 1.384 . S
C772 H763 0.929 . S
C772 C764 1.378 . S
C772 C767 1.350 . S
C773 H760 0.929 . S
C773 C765 1.433 . S
C773 N775 1.384 . S
N774 C770 1.427 . S
N774 C771 1.384 . S
N775 C767 1.427 . S
N775 C773 1.384 . S
H776 C782 0.930 1_556 S
H777 C786 0.930 . S
H778 C791 0.929 . S
H779 C789 0.929 . S
H780 C784 0.929 . S
H781 C790 0.929 . S
C782 H776 0.930 1_554 S
C782 C783 1.367 . S
C782 C790 1.378 . S
C783 C782 1.367 . S
C783 C791 1.433 . S
C784 H780 0.929 . S
C784 C786 1.378 . S
C784 C788 1.350 . S
C785 C788 1.463 . S
C785 C790 1.350 . S
C785 N793 1.427 . S
C786 H777 0.930 . S
C786 C784 1.378 . S
C786 C787 1.367 . S
C787 C786 1.367 . S
C787 C789 1.433 . S
C788 C784 1.350 . S
C788 C785 1.463 . S
C788 N792 1.427 . S
C789 H779 0.929 . S
C789 C787 1.433 . S
C789 N792 1.384 . S
C790 H781 0.929 . S
C790 C782 1.378 . S
C790 C785 1.350 . S
C791 H778 0.929 . S
C791 C783 1.433 . S
C791 N793 1.384 . S
N792 C788 1.427 . S
N792 C789 1.384 . S
N793 C785 1.427 . S
N793 C791 1.384 . S
H794 C800 0.929 1_554 S
H795 C804 0.930 . S
H796 C809 0.929 . S
H797 C807 0.929 . S
H798 C802 0.929 . S
H799 C808 0.929 . S
C800 H794 0.929 1_556 S
C800 C801 1.367 . S
C800 C808 1.379 . S
C801 C800 1.367 . S
C801 C809 1.433 . S
C802 H798 0.929 . S
C802 C804 1.378 . S
C802 C806 1.350 . S
C803 C806 1.463 . S
C803 C808 1.350 . S
C803 N811 1.427 . S
C804 H795 0.930 . S
C804 C802 1.378 . S
C804 C805 1.367 . S
C805 C804 1.367 . S
C805 C807 1.433 . S
C806 C802 1.350 . S
C806 C803 1.463 . S
C806 N810 1.427 . S
C807 H797 0.929 . S
C807 C805 1.433 . S
C807 N810 1.384 . S
C808 H799 0.929 . S
C808 C800 1.379 . S
C808 C803 1.350 . S
C809 H796 0.929 . S
C809 C801 1.433 . S
C809 N811 1.384 . S
N810 C806 1.427 . S
N810 C807 1.384 . S
N811 C803 1.427 . S
N811 C809 1.384 . S
H812 C818 0.930 . S
H813 C822 0.930 . S
H814 C827 0.929 . S
H815 C825 0.929 . S
H816 C820 0.929 . S
H817 C826 0.929 . S
C818 H812 0.930 . S
C818 C819 1.367 . S
C818 C826 1.378 . S
C819 C818 1.367 . S
C819 C827 1.433 . S
C820 H816 0.929 . S
C820 C822 1.378 . S
C820 C824 1.350 . S
C821 C824 1.463 . S
C821 C826 1.350 . S
C821 N829 1.427 . S
C822 H813 0.930 . S
C822 C820 1.378 . S
C822 C823 1.367 . S
C823 C822 1.367 . S
C823 C825 1.433 . S
C824 C820 1.350 . S
C824 C821 1.463 . S
C824 N828 1.427 . S
C825 H815 0.929 . S
C825 C823 1.433 . S
C825 N828 1.384 . S
C826 H817 0.929 . S
C826 C818 1.378 . S
C826 C821 1.350 . S
C827 H814 0.929 . S
C827 C819 1.433 . S
C827 N829 1.384 . S
N828 C824 1.427 . S
N828 C825 1.384 . S
N829 C821 1.427 . S
N829 C827 1.384 . S
H830 C836 0.930 . S
H831 C840 0.930 . S
H832 C845 0.929 . S
H833 C843 0.929 . S
H834 C838 0.929 . S
H835 C844 0.929 . S
C836 H830 0.930 . S
C836 C837 1.367 . S
C836 C844 1.378 . S
C837 C836 1.367 . S
C837 C845 1.433 . S
C838 H834 0.929 . S
C838 C840 1.378 . S
C838 C842 1.350 . S
C839 C842 1.463 . S
C839 C844 1.350 . S
C839 N847 1.427 . S
C840 H831 0.930 . S
C840 C838 1.378 . S
C840 C841 1.367 . S
C841 C840 1.367 . S
C841 C843 1.433 . S
C842 C838 1.350 . S
C842 C839 1.463 . S
C842 N846 1.427 . S
C843 H833 0.929 . S
C843 C841 1.433 . S
C843 N846 1.384 . S
C844 H835 0.929 . S
C844 C836 1.378 . S
C844 C839 1.350 . S
C845 H832 0.929 . S
C845 C837 1.433 . S
C845 N847 1.384 . S
N846 C842 1.427 . S
N846 C843 1.384 . S
N847 C839 1.427 . S
N847 C845 1.384 . S
H848 C854 0.930 . S
H849 C858 0.930 . S
H850 C863 0.929 . S
H851 C861 0.929 . S
H852 C856 0.929 . S
H853 C862 0.929 . S
C854 H848 0.930 . S
C854 C855 1.367 . S
C854 C862 1.378 . S
C855 C854 1.367 . S
C855 C863 1.433 . S
C856 H852 0.929 . S
C856 C858 1.378 . S
C856 C860 1.350 . S
C857 C860 1.463 . S
C857 C862 1.350 . S
C857 N865 1.427 . S
C858 H849 0.930 . S
C858 C856 1.378 . S
C858 C859 1.367 . S
C859 C858 1.367 . S
C859 C861 1.433 . S
C860 C856 1.350 . S
C860 C857 1.463 . S
C860 N864 1.427 . S
C861 H851 0.929 . S
C861 C859 1.433 . S
C861 N864 1.384 . S
C862 H853 0.929 . S
C862 C854 1.378 . S
C862 C857 1.350 . S
C863 H850 0.929 . S
C863 C855 1.433 . S
C863 N865 1.384 . S
N864 C860 1.427 . S
N864 C861 1.384 . S
N865 C857 1.427 . S
N865 C863 1.384 . S
H866 C872 0.930 . S
H867 C876 0.930 . S
H868 C881 0.929 . S
H869 C879 0.929 . S
H870 C874 0.929 . S
H871 C880 0.929 . S
C872 H866 0.930 . S
C872 C873 1.367 . S
C872 C880 1.378 . S
C873 C872 1.367 . S
C873 C881 1.433 . S
C874 H870 0.929 . S
C874 C876 1.378 . S
C874 C878 1.350 . S
C875 C878 1.463 . S
C875 C880 1.350 . S
C875 N883 1.427 . S
C876 H867 0.930 . S
C876 C874 1.378 . S
C876 C877 1.367 . S
C877 C876 1.367 . S
C877 C879 1.433 . S
C878 C874 1.350 . S
C878 C875 1.463 . S
C878 N882 1.427 . S
C879 H869 0.929 . S
C879 C877 1.433 . S
C879 N882 1.384 . S
C880 H871 0.929 . S
C880 C872 1.378 . S
C880 C875 1.350 . S
C881 H868 0.929 . S
C881 C873 1.433 . S
C881 N883 1.384 . S
N882 C878 1.427 . S
N882 C879 1.384 . S
N883 C875 1.427 . S
N883 C881 1.384 . S
H884 C890 0.930 . S
H885 C894 0.930 . S
H886 C899 0.929 . S
H887 C897 0.929 1_554 S
H888 C892 0.929 . S
H889 C898 0.929 . S
C890 H884 0.930 . S
C890 C891 1.367 . S
C890 C898 1.378 . S
C891 C890 1.367 . S
C891 C899 1.433 . S
C892 H888 0.929 . S
C892 C894 1.378 . S
C892 C896 1.350 . S
C893 C896 1.463 . S
C893 C898 1.350 . S
C893 N901 1.427 . S
C894 H885 0.930 . S
C894 C892 1.378 . S
C894 C895 1.367 . S
C895 C894 1.367 . S
C895 C897 1.433 . S
C896 C892 1.350 . S
C896 C893 1.463 . S
C896 N900 1.427 . S
C897 H887 0.929 1_556 S
C897 C895 1.433 . S
C897 N900 1.384 . S
C898 H889 0.929 . S
C898 C890 1.378 . S
C898 C893 1.350 . S
C899 H886 0.929 . S
C899 C891 1.433 . S
C899 N901 1.384 . S
N900 C896 1.427 . S
N900 C897 1.384 . S
N901 C893 1.427 . S
N901 C899 1.384 . S
H902 C908 0.930 . S
H903 C912 0.930 1_556 S
H904 C917 0.929 . S
H905 C915 0.929 . S
H906 C910 0.929 . S
H907 C916 0.929 . S
C908 H902 0.930 . S
C908 C909 1.367 . S
C908 C916 1.378 . S
C909 C908 1.367 . S
C909 C917 1.433 . S
C910 H906 0.929 . S
C910 C912 1.378 . S
C910 C914 1.350 . S
C911 C914 1.463 . S
C911 C916 1.350 . S
C911 N919 1.427 . S
C912 H903 0.930 1_554 S
C912 C910 1.378 . S
C912 C913 1.367 . S
C913 C912 1.367 . S
C913 C915 1.433 . S
C914 C910 1.350 . S
C914 C911 1.463 . S
C914 N918 1.427 . S
C915 H905 0.929 . S
C915 C913 1.433 . S
C915 N918 1.384 . S
C916 H907 0.929 . S
C916 C908 1.378 . S
C916 C911 1.350 . S
C917 H904 0.929 . S
C917 C909 1.433 . S
C917 N919 1.384 . S
N918 C914 1.427 . S
N918 C915 1.384 . S
N919 C911 1.427 . S
N919 C917 1.384 . S
H920 C926 0.930 . S
H921 C930 0.930 . S
H922 C935 0.929 . S
H923 C933 0.929 . S
H924 C928 0.929 . S
H925 C934 0.929 . S
C926 H920 0.930 . S
C926 C927 1.367 . S
C926 C934 1.378 . S
C927 C926 1.367 . S
C927 C935 1.433 . S
C928 H924 0.929 . S
C928 C930 1.378 . S
C928 C932 1.350 . S
C929 C932 1.463 . S
C929 C934 1.350 . S
C929 N937 1.427 . S
C930 H921 0.930 . S
C930 C928 1.378 . S
C930 C931 1.367 . S
C931 C930 1.367 . S
C931 C933 1.433 . S
C932 C928 1.350 . S
C932 C929 1.463 . S
C932 N936 1.427 . S
C933 H923 0.929 . S
C933 C931 1.433 . S
C933 N936 1.384 . S
C934 H925 0.929 . S
C934 C926 1.378 . S
C934 C929 1.350 . S
C935 H922 0.929 . S
C935 C927 1.433 . S
C935 N937 1.384 . S
N936 C932 1.427 . S
N936 C933 1.384 . S
N937 C929 1.427 . S
N937 C935 1.384 . S
H938 C944 0.930 . S
H939 C948 0.930 . S
H940 C953 0.929 . S
H941 C951 0.929 . S
H942 C946 0.929 . S
H943 C952 0.929 . S
C944 H938 0.930 . S
C944 C945 1.367 . S
C944 C952 1.378 . S
C945 C944 1.367 . S
C945 C953 1.433 . S
C946 H942 0.929 . S
C946 C948 1.378 . S
C946 C950 1.350 . S
C947 C950 1.463 . S
C947 C952 1.350 . S
C947 N955 1.427 . S
C948 H939 0.930 . S
C948 C946 1.378 . S
C948 C949 1.367 . S
C949 C948 1.367 . S
C949 C951 1.433 . S
C950 C946 1.350 . S
C950 C947 1.463 . S
C950 N954 1.427 . S
C951 H941 0.929 . S
C951 C949 1.433 . S
C951 N954 1.384 . S
C952 H943 0.929 . S
C952 C944 1.378 . S
C952 C947 1.350 . S
C953 H940 0.929 . S
C953 C945 1.433 . S
C953 N955 1.384 . S
N954 C950 1.427 . S
N954 C951 1.384 . S
N955 C947 1.427 . S
N955 C953 1.384 . S
H956 C962 0.930 . S
H957 C966 0.930 . S
H958 C971 0.929 . S
H959 C969 0.929 . S
H960 C964 0.929 . S
H961 C970 0.929 . S
C962 H956 0.930 . S
C962 C963 1.367 . S
C962 C970 1.378 . S
C963 C962 1.367 . S
C963 C971 1.433 . S
C964 H960 0.929 . S
C964 C966 1.378 . S
C964 C968 1.350 . S
C965 C968 1.463 . S
C965 C970 1.350 . S
C965 N973 1.427 . S
C966 H957 0.930 . S
C966 C964 1.378 . S
C966 C967 1.367 . S
C967 C966 1.367 . S
C967 C969 1.433 . S
C968 C964 1.350 . S
C968 C965 1.463 . S
C968 N972 1.427 . S
C969 H959 0.929 . S
C969 C967 1.433 . S
C969 N972 1.384 . S
C970 H961 0.929 . S
C970 C962 1.378 . S
C970 C965 1.350 . S
C971 H958 0.929 . S
C971 C963 1.433 . S
C971 N973 1.384 . S
N972 C968 1.427 . S
N972 C969 1.384 . S
N973 C965 1.427 . S
N973 C971 1.384 . S
H974 C980 0.930 . S
H975 C984 0.930 1_554 S
H976 C989 0.929 . S
H977 C987 0.929 . S
H978 C982 0.929 . S
H979 C988 0.929 . S
C980 H974 0.930 . S
C980 C981 1.367 . S
C980 C988 1.378 . S
C981 C980 1.367 . S
C981 C989 1.433 . S
C982 H978 0.929 . S
C982 C984 1.378 . S
C982 C986 1.350 . S
C983 C986 1.463 . S
C983 C988 1.350 . S
C983 N991 1.427 . S
C984 H975 0.930 1_556 S
C984 C982 1.378 . S
C984 C985 1.367 . S
C985 C984 1.367 . S
C985 C987 1.433 . S
C986 C982 1.350 . S
C986 C983 1.463 . S
C986 N990 1.427 . S
C987 H977 0.929 . S
C987 C985 1.433 . S
C987 N990 1.384 . S
C988 H979 0.929 . S
C988 C980 1.378 . S
C988 C983 1.350 . S
C989 H976 0.929 . S
C989 C981 1.433 . S
C989 N991 1.384 . S
N990 C986 1.427 . S
N990 C987 1.384 . S
N991 C983 1.427 . S
N991 C989 1.384 . S
H992 C998 0.930 . S
H993 C1002 0.930 . S
H994 C1007 0.929 . S
H995 C1005 0.929 . S
H996 C1000 0.929 . S
H997 C1006 0.929 . S
C998 H992 0.930 . S
C998 C999 1.367 . S
C998 C1006 1.378 . S
C999 C998 1.367 . S
C999 C1007 1.433 . S
C1000 H996 0.929 . S
C1000 C1002 1.378 . S
C1000 C1004 1.350 . S
C1001 C1004 1.463 . S
C1001 C1006 1.350 . S
C1001 N1009 1.427 . S
C1002 H993 0.930 . S
C1002 C1000 1.378 . S
C1002 C1003 1.367 . S
C1003 C1002 1.367 . S
C1003 C1005 1.433 . S
C1004 C1000 1.350 . S
C1004 C1001 1.463 . S
C1004 N1008 1.427 . S
C1005 H995 0.929 . S
C1005 C1003 1.433 . S
C1005 N1008 1.384 . S
C1006 H997 0.929 . S
C1006 C998 1.378 . S
C1006 C1001 1.350 . S
C1007 H994 0.929 . S
C1007 C999 1.433 . S
C1007 N1009 1.384 . S
N1008 C1004 1.427 . S
N1008 C1005 1.384 . S
N1009 C1001 1.427 . S
N1009 C1007 1.384 . S
H1010 C1016 0.930 . S
H1011 C1020 0.930 . S
H1012 C1025 0.929 . S
H1013 C1023 0.929 . S
H1014 C1018 0.929 . S
H1015 C1024 0.929 . S
C1016 H1010 0.930 . S
C1016 C1017 1.367 . S
C1016 C1024 1.378 . S
C1017 C1016 1.367 . S
C1017 C1025 1.433 . S
C1018 H1014 0.929 . S
C1018 C1020 1.378 . S
C1018 C1022 1.350 . S
C1019 C1022 1.463 1_655 S
C1019 C1024 1.350 . S
C1019 N1027 1.427 . S
C1020 H1011 0.930 . S
C1020 C1018 1.378 . S
C1020 C1021 1.367 . S
C1021 C1020 1.367 . S
C1021 C1023 1.433 . S
C1022 C1018 1.350 . S
C1022 C1019 1.463 1_455 S
C1022 N1026 1.427 . S
C1023 H1013 0.929 . S
C1023 C1021 1.433 . S
C1023 N1026 1.384 . S
C1024 H1015 0.929 . S
C1024 C1016 1.378 . S
C1024 C1019 1.350 . S
C1025 H1012 0.929 . S
C1025 C1017 1.433 . S
C1025 N1027 1.384 . S
N1026 C1022 1.427 . S
N1026 C1023 1.384 . S
N1027 C1019 1.427 . S
N1027 C1025 1.384 . S
H1028 C1034 0.930 . S
H1029 C1038 0.930 . S
H1030 C1043 0.929 . S
H1031 C1041 0.929 . S
H1032 C1036 0.929 . S
H1033 C1042 0.929 . S
C1034 H1028 0.930 . S
C1034 C1035 1.367 . S
C1034 C1042 1.378 . S
C1035 C1034 1.367 . S
C1035 C1043 1.433 . S
C1036 H1032 0.929 . S
C1036 C1038 1.378 . S
C1036 C1040 1.350 . S
C1037 C1040 1.463 . S
C1037 C1042 1.350 . S
C1037 N1045 1.427 . S
C1038 H1029 0.930 . S
C1038 C1036 1.378 . S
C1038 C1039 1.367 . S
C1039 C1038 1.367 . S
C1039 C1041 1.433 . S
C1040 C1036 1.350 . S
C1040 C1037 1.463 . S
C1040 N1044 1.427 . S
C1041 H1031 0.929 . S
C1041 C1039 1.433 . S
C1041 N1044 1.384 . S
C1042 H1033 0.929 . S
C1042 C1034 1.378 . S
C1042 C1037 1.350 . S
C1043 H1030 0.929 . S
C1043 C1035 1.433 . S
C1043 N1045 1.384 . S
N1044 C1040 1.427 . S
N1044 C1041 1.384 . S
N1045 C1037 1.427 . S
N1045 C1043 1.384 . S
H1046 C1052 0.930 . S
H1047 C1056 0.930 . S
H1048 C1061 0.929 . S
H1049 C1059 0.929 . S
H1050 C1054 0.929 . S
H1051 C1060 0.929 . S
C1052 H1046 0.930 . S
C1052 C1053 1.367 . S
C1052 C1060 1.378 . S
C1053 C1052 1.367 . S
C1053 C1061 1.433 . S
C1054 H1050 0.929 . S
C1054 C1056 1.378 . S
C1054 C1058 1.350 . S
C1055 C1058 1.463 . S
C1055 C1060 1.350 . S
C1055 N1063 1.427 . S
C1056 H1047 0.930 . S
C1056 C1054 1.378 . S
C1056 C1057 1.367 . S
C1057 C1056 1.367 . S
C1057 C1059 1.433 . S
C1058 C1054 1.350 . S
C1058 C1055 1.463 . S
C1058 N1062 1.427 . S
C1059 H1049 0.929 . S
C1059 C1057 1.433 . S
C1059 N1062 1.384 . S
C1060 H1051 0.929 . S
C1060 C1052 1.378 . S
C1060 C1055 1.350 . S
C1061 H1048 0.929 . S
C1061 C1053 1.433 . S
C1061 N1063 1.384 . S
N1062 C1058 1.427 . S
N1062 C1059 1.384 . S
N1063 C1055 1.427 . S
N1063 C1061 1.384 . S
H1064 C1070 0.930 . S
H1065 C1074 0.930 . S
H1066 C1079 0.929 . S
H1067 C1077 0.929 . S
H1068 C1072 0.929 . S
H1069 C1078 0.929 . S
C1070 H1064 0.930 . S
C1070 C1071 1.367 . S
C1070 C1078 1.378 . S
C1071 C1070 1.367 . S
C1071 C1079 1.433 . S
C1072 H1068 0.929 . S
C1072 C1074 1.378 . S
C1072 C1076 1.350 . S
C1073 C1076 1.463 . S
C1073 C1078 1.350 . S
C1073 N1081 1.427 . S
C1074 H1065 0.930 . S
C1074 C1072 1.378 . S
C1074 C1075 1.367 . S
C1075 C1074 1.367 . S
C1075 C1077 1.433 . S
C1076 C1072 1.350 . S
C1076 C1073 1.463 . S
C1076 N1080 1.427 . S
C1077 H1067 0.929 . S
C1077 C1075 1.433 . S
C1077 N1080 1.384 . S
C1078 H1069 0.929 . S
C1078 C1070 1.378 . S
C1078 C1073 1.350 . S
C1079 H1066 0.929 . S
C1079 C1071 1.433 . S
C1079 N1081 1.384 . S
N1080 C1076 1.427 . S
N1080 C1077 1.384 . S
N1081 C1073 1.427 . S
N1081 C1079 1.384 . S
H1082 C1088 0.930 . S
H1083 C1092 0.930 . S
H1084 C1097 0.929 . S
H1085 C1095 0.929 . S
H1086 C1090 0.929 . S
H1087 C1096 0.929 . S
C1088 H1082 0.930 . S
C1088 C1089 1.367 . S
C1088 C1096 1.378 . S
C1089 C1088 1.367 . S
C1089 C1097 1.433 . S
C1090 H1086 0.929 . S
C1090 C1092 1.378 . S
C1090 C1094 1.350 . S
C1091 C1094 1.463 . S
C1091 C1096 1.350 . S
C1091 N1099 1.427 . S
C1092 H1083 0.930 . S
C1092 C1090 1.378 . S
C1092 C1093 1.367 . S
C1093 C1092 1.367 . S
C1093 C1095 1.433 . S
C1094 C1090 1.350 . S
C1094 C1091 1.463 . S
C1094 N1098 1.427 . S
C1095 H1085 0.929 . S
C1095 C1093 1.433 . S
C1095 N1098 1.384 . S
C1096 H1087 0.929 . S
C1096 C1088 1.378 . S
C1096 C1091 1.350 . S
C1097 H1084 0.929 . S
C1097 C1089 1.433 . S
C1097 N1099 1.384 . S
N1098 C1094 1.427 . S
N1098 C1095 1.384 . S
N1099 C1091 1.427 . S
N1099 C1097 1.384 . S
H1100 C1106 0.930 . S
H1101 C1110 0.930 . S
H1102 C1115 0.929 . S
H1103 C1113 0.929 . S
H1104 C1108 0.929 . S
H1105 C1114 0.929 . S
C1106 H1100 0.930 . S
C1106 C1107 1.367 . S
C1106 C1114 1.378 . S
C1107 C1106 1.367 . S
C1107 C1115 1.433 . S
C1108 H1104 0.929 . S
C1108 C1110 1.378 . S
C1108 C1112 1.350 . S
C1109 C1112 1.463 . S
C1109 C1114 1.350 . S
C1109 N1117 1.427 . S
C1110 H1101 0.930 . S
C1110 C1108 1.378 . S
C1110 C1111 1.367 . S
C1111 C1110 1.367 . S
C1111 C1113 1.433 . S
C1112 C1108 1.350 . S
C1112 C1109 1.463 . S
C1112 N1116 1.427 . S
C1113 H1103 0.929 . S
C1113 C1111 1.433 . S
C1113 N1116 1.384 . S
C1114 H1105 0.929 . S
C1114 C1106 1.378 . S
C1114 C1109 1.350 . S
C1115 H1102 0.929 . S
C1115 C1107 1.433 . S
C1115 N1117 1.384 . S
N1116 C1112 1.427 . S
N1116 C1113 1.384 . S
N1117 C1109 1.427 . S
N1117 C1115 1.384 . S
H1118 C1124 0.930 . S
H1119 C1128 0.930 . S
H1120 C1133 0.929 . S
H1121 C1131 0.929 . S
H1122 C1126 0.929 . S
H1123 C1132 0.929 . S
C1124 H1118 0.930 . S
C1124 C1125 1.367 . S
C1124 C1132 1.378 . S
C1125 C1124 1.367 . S
C1125 C1133 1.433 . S
C1126 H1122 0.929 . S
C1126 C1128 1.378 . S
C1126 C1130 1.350 . S
C1127 C1130 1.463 1_655 S
C1127 C1132 1.350 . S
C1127 N1135 1.427 . S
C1128 H1119 0.930 . S
C1128 C1126 1.378 . S
C1128 C1129 1.367 . S
C1129 C1128 1.367 . S
C1129 C1131 1.433 . S
C1130 C1126 1.350 . S
C1130 C1127 1.463 1_455 S
C1130 N1134 1.427 . S
C1131 H1121 0.929 . S
C1131 C1129 1.433 . S
C1131 N1134 1.384 . S
C1132 H1123 0.929 . S
C1132 C1124 1.378 . S
C1132 C1127 1.350 . S
C1133 H1120 0.929 . S
C1133 C1125 1.433 . S
C1133 N1135 1.384 . S
N1134 C1130 1.427 . S
N1134 C1131 1.384 . S
N1135 C1127 1.427 . S
N1135 C1133 1.384 . S
H1136 C1142 0.930 . S
H1137 C1146 0.930 . S
H1138 C1151 0.929 . S
H1139 C1149 0.929 . S
H1140 C1144 0.929 . S
H1141 C1150 0.929 . S
C1142 H1136 0.930 . S
C1142 C1143 1.367 . S
C1142 C1150 1.378 . S
C1143 C1142 1.367 . S
C1143 C1151 1.433 . S
C1144 H1140 0.929 . S
C1144 C1146 1.378 . S
C1144 C1148 1.350 . S
C1145 C1148 1.463 . S
C1145 C1150 1.350 . S
C1145 N1153 1.427 . S
C1146 H1137 0.930 . S
C1146 C1144 1.378 . S
C1146 C1147 1.367 . S
C1147 C1146 1.367 . S
C1147 C1149 1.433 . S
C1148 C1144 1.350 . S
C1148 C1145 1.463 . S
C1148 N1152 1.427 . S
C1149 H1139 0.929 . S
C1149 C1147 1.433 . S
C1149 N1152 1.384 . S
C1150 H1141 0.929 . S
C1150 C1142 1.378 . S
C1150 C1145 1.350 . S
C1151 H1138 0.929 . S
C1151 C1143 1.433 . S
C1151 N1153 1.384 . S
N1152 C1148 1.427 . S
N1152 C1149 1.384 . S
N1153 C1145 1.427 . S
N1153 C1151 1.384 . S
H1154 C1160 0.930 . S
H1155 C1164 0.930 . S
H1156 C1169 0.929 . S
H1157 C1167 0.929 . S
H1158 C1162 0.929 . S
H1159 C1168 0.929 . S
C1160 H1154 0.930 . S
C1160 C1161 1.367 . S
C1160 C1168 1.378 . S
C1161 C1160 1.367 . S
C1161 C1169 1.433 . S
C1162 H1158 0.929 . S
C1162 C1164 1.378 . S
C1162 C1166 1.350 . S
C1163 C1166 1.463 . S
C1163 C1168 1.350 . S
C1163 N1171 1.427 . S
C1164 H1155 0.930 . S
C1164 C1162 1.378 . S
C1164 C1165 1.367 . S
C1165 C1164 1.367 . S
C1165 C1167 1.433 . S
C1166 C1162 1.350 . S
C1166 C1163 1.463 . S
C1166 N1170 1.427 . S
C1167 H1157 0.929 . S
C1167 C1165 1.433 . S
C1167 N1170 1.384 . S
C1168 H1159 0.929 . S
C1168 C1160 1.378 . S
C1168 C1163 1.350 . S
C1169 H1156 0.929 . S
C1169 C1161 1.433 . S
C1169 N1171 1.384 . S
N1170 C1166 1.427 . S
N1170 C1167 1.384 . S
N1171 C1163 1.427 . S
N1171 C1169 1.384 . S
H1172 C1178 0.930 . S
H1173 C1182 0.930 . S
H1174 C1187 0.929 . S
H1175 C1185 0.929 . S
H1176 C1180 0.929 . S
H1177 C1186 0.929 . S
C1178 H1172 0.930 . S
C1178 C1179 1.367 . S
C1178 C1186 1.378 . S
C1179 C1178 1.367 . S
C1179 C1187 1.433 . S
C1180 H1176 0.929 . S
C1180 C1182 1.378 . S
C1180 C1184 1.350 . S
C1181 C1184 1.463 . S
C1181 C1186 1.350 . S
C1181 N1189 1.427 . S
C1182 H1173 0.930 . S
C1182 C1180 1.378 . S
C1182 C1183 1.367 . S
C1183 C1182 1.367 . S
C1183 C1185 1.433 . S
C1184 C1180 1.350 . S
C1184 C1181 1.463 . S
C1184 N1188 1.427 . S
C1185 H1175 0.929 . S
C1185 C1183 1.433 . S
C1185 N1188 1.384 . S
C1186 H1177 0.929 . S
C1186 C1178 1.378 . S
C1186 C1181 1.350 . S
C1187 H1174 0.929 . S
C1187 C1179 1.433 . S
C1187 N1189 1.384 . S
N1188 C1184 1.427 . S
N1188 C1185 1.384 . S
N1189 C1181 1.427 . S
N1189 C1187 1.384 . S
H1190 C1196 0.930 . S
H1191 C1200 0.930 . S
H1192 C1205 0.929 . S
H1193 C1203 0.929 . S
H1194 C1198 0.929 . S
H1195 C1204 0.929 . S
C1196 H1190 0.930 . S
C1196 C1197 1.367 . S
C1196 C1204 1.378 . S
C1197 C1196 1.367 . S
C1197 C1205 1.433 . S
C1198 H1194 0.929 . S
C1198 C1200 1.378 . S
C1198 C1202 1.350 . S
C1199 C1202 1.463 . S
C1199 C1204 1.350 . S
C1199 N1207 1.427 . S
C1200 H1191 0.930 . S
C1200 C1198 1.378 . S
C1200 C1201 1.367 . S
C1201 C1200 1.367 . S
C1201 C1203 1.433 . S
C1202 C1198 1.350 . S
C1202 C1199 1.463 . S
C1202 N1206 1.427 . S
C1203 H1193 0.929 . S
C1203 C1201 1.433 . S
C1203 N1206 1.384 . S
C1204 H1195 0.929 . S
C1204 C1196 1.378 . S
C1204 C1199 1.350 . S
C1205 H1192 0.929 . S
C1205 C1197 1.433 . S
C1205 N1207 1.384 . S
N1206 C1202 1.427 . S
N1206 C1203 1.384 . S
N1207 C1199 1.427 . S
N1207 C1205 1.384 . S
H1208 C1214 0.930 . S
H1209 C1218 0.930 . S
H1210 C1223 0.929 . S
H1211 C1221 0.929 . S
H1212 C1216 0.929 . S
H1213 C1222 0.929 . S
C1214 H1208 0.930 . S
C1214 C1215 1.367 . S
C1214 C1222 1.378 . S
C1215 C1214 1.367 . S
C1215 C1223 1.433 . S
C1216 H1212 0.929 . S
C1216 C1218 1.378 . S
C1216 C1220 1.350 . S
C1217 C1220 1.463 . S
C1217 C1222 1.350 . S
C1217 N1225 1.427 . S
C1218 H1209 0.930 . S
C1218 C1216 1.378 . S
C1218 C1219 1.367 . S
C1219 C1218 1.367 . S
C1219 C1221 1.433 . S
C1220 C1216 1.350 . S
C1220 C1217 1.463 . S
C1220 N1224 1.427 . S
C1221 H1211 0.929 . S
C1221 C1219 1.433 . S
C1221 N1224 1.384 . S
C1222 H1213 0.929 . S
C1222 C1214 1.378 . S
C1222 C1217 1.350 . S
C1223 H1210 0.929 . S
C1223 C1215 1.433 . S
C1223 N1225 1.384 . S
N1224 C1220 1.427 . S
N1224 C1221 1.384 . S
N1225 C1217 1.427 . S
N1225 C1223 1.384 . S
H1226 C1232 0.930 . S
H1227 C1236 0.930 . S
H1228 C1241 0.929 . S
H1229 C1239 0.929 . S
H1230 C1234 0.929 . S
H1231 C1240 0.929 . S
C1232 H1226 0.930 . S
C1232 C1233 1.367 . S
C1232 C1240 1.378 . S
C1233 C1232 1.367 . S
C1233 C1241 1.433 . S
C1234 H1230 0.929 . S
C1234 C1236 1.378 . S
C1234 C1238 1.350 . S
C1235 C1238 1.463 1_655 S
C1235 C1240 1.350 . S
C1235 N1243 1.427 . S
C1236 H1227 0.930 . S
C1236 C1234 1.378 . S
C1236 C1237 1.367 . S
C1237 C1236 1.367 . S
C1237 C1239 1.433 . S
C1238 C1234 1.350 . S
C1238 C1235 1.463 1_455 S
C1238 N1242 1.427 . S
C1239 H1229 0.929 . S
C1239 C1237 1.433 . S
C1239 N1242 1.384 . S
C1240 H1231 0.929 . S
C1240 C1232 1.378 . S
C1240 C1235 1.350 . S
C1241 H1228 0.929 . S
C1241 C1233 1.433 . S
C1241 N1243 1.384 . S
N1242 C1238 1.427 . S
N1242 C1239 1.384 . S
N1243 C1235 1.427 . S
N1243 C1241 1.384 . S
H1244 C1250 0.930 . S
H1245 C1254 0.930 . S
H1246 C1259 0.929 . S
H1247 C1257 0.929 . S
H1248 C1252 0.929 . S
H1249 C1258 0.929 . S
C1250 H1244 0.930 . S
C1250 C1251 1.367 . S
C1250 C1258 1.378 . S
C1251 C1250 1.367 . S
C1251 C1259 1.433 . S
C1252 H1248 0.929 . S
C1252 C1254 1.378 . S
C1252 C1256 1.350 . S
C1253 C1256 1.463 1_655 S
C1253 C1258 1.350 . S
C1253 N1261 1.427 . S
C1254 H1245 0.930 . S
C1254 C1252 1.378 . S
C1254 C1255 1.367 . S
C1255 C1254 1.367 . S
C1255 C1257 1.433 . S
C1256 C1252 1.350 . S
C1256 C1253 1.463 1_455 S
C1256 N1260 1.427 . S
C1257 H1247 0.929 . S
C1257 C1255 1.433 . S
C1257 N1260 1.384 . S
C1258 H1249 0.929 . S
C1258 C1250 1.378 . S
C1258 C1253 1.350 . S
C1259 H1246 0.929 . S
C1259 C1251 1.433 . S
C1259 N1261 1.384 . S
N1260 C1256 1.427 . S
N1260 C1257 1.384 . S
N1261 C1253 1.427 . S
N1261 C1259 1.384 . S
H1262 C1268 0.930 . S
H1263 C1272 0.930 . S
H1264 C1277 0.929 . S
H1265 C1275 0.929 . S
H1266 C1270 0.929 . S
H1267 C1276 0.929 . S
C1268 H1262 0.930 . S
C1268 C1269 1.367 . S
C1268 C1276 1.378 . S
C1269 C1268 1.367 . S
C1269 C1277 1.433 . S
C1270 H1266 0.929 . S
C1270 C1272 1.378 . S
C1270 C1274 1.350 . S
C1271 C1274 1.463 . S
C1271 C1276 1.350 . S
C1271 N1279 1.427 . S
C1272 H1263 0.930 . S
C1272 C1270 1.378 . S
C1272 C1273 1.367 . S
C1273 C1272 1.367 . S
C1273 C1275 1.433 . S
C1274 C1270 1.350 . S
C1274 C1271 1.463 . S
C1274 N1278 1.427 . S
C1275 H1265 0.929 . S
C1275 C1273 1.433 . S
C1275 N1278 1.384 . S
C1276 H1267 0.929 . S
C1276 C1268 1.378 . S
C1276 C1271 1.350 . S
C1277 H1264 0.929 . S
C1277 C1269 1.433 . S
C1277 N1279 1.384 . S
N1278 C1274 1.427 . S
N1278 C1275 1.384 . S
N1279 C1271 1.427 . S
N1279 C1277 1.384 . S
H1280 C1286 0.930 . S
H1281 C1290 0.930 . S
H1282 C1295 0.929 . S
H1283 C1293 0.929 . S
H1284 C1288 0.929 . S
H1285 C1294 0.929 . S
C1286 H1280 0.930 . S
C1286 C1287 1.367 . S
C1286 C1294 1.378 . S
C1287 C1286 1.367 . S
C1287 C1295 1.433 . S
C1288 H1284 0.929 . S
C1288 C1290 1.378 . S
C1288 C1292 1.350 . S
C1289 C1292 1.463 . S
C1289 C1294 1.350 . S
C1289 N1297 1.427 . S
C1290 H1281 0.930 . S
C1290 C1288 1.378 . S
C1290 C1291 1.367 . S
C1291 C1290 1.367 . S
C1291 C1293 1.433 . S
C1292 C1288 1.350 . S
C1292 C1289 1.463 . S
C1292 N1296 1.427 . S
C1293 H1283 0.929 . S
C1293 C1291 1.433 . S
C1293 N1296 1.384 . S
C1294 H1285 0.929 . S
C1294 C1286 1.378 . S
C1294 C1289 1.350 . S
C1295 H1282 0.929 . S
C1295 C1287 1.433 . S
C1295 N1297 1.384 . S
N1296 C1292 1.427 . S
N1296 C1293 1.384 . S
N1297 C1289 1.427 . S
N1297 C1295 1.384 . S
H1298 C1304 0.930 . S
H1299 C1308 0.930 . S
H1300 C1313 0.929 . S
H1301 C1311 0.929 . S
H1302 C1306 0.929 . S
H1303 C1312 0.929 . S
C1304 H1298 0.930 . S
C1304 C1305 1.367 . S
C1304 C1312 1.378 . S
C1305 C1304 1.367 . S
C1305 C1313 1.433 . S
C1306 H1302 0.929 . S
C1306 C1308 1.378 . S
C1306 C1310 1.350 . S
C1307 C1310 1.463 . S
C1307 C1312 1.350 . S
C1307 N1315 1.427 . S
C1308 H1299 0.930 . S
C1308 C1306 1.378 . S
C1308 C1309 1.367 . S
C1309 C1308 1.367 . S
C1309 C1311 1.433 . S
C1310 C1306 1.350 . S
C1310 C1307 1.463 . S
C1310 N1314 1.427 . S
C1311 H1301 0.929 . S
C1311 C1309 1.433 . S
C1311 N1314 1.384 . S
C1312 H1303 0.929 . S
C1312 C1304 1.378 . S
C1312 C1307 1.350 . S
C1313 H1300 0.929 . S
C1313 C1305 1.433 . S
C1313 N1315 1.384 . S
N1314 C1310 1.427 . S
N1314 C1311 1.384 . S
N1315 C1307 1.427 . S
N1315 C1313 1.384 . S
H1316 C1322 0.930 1_554 S
H1317 C1326 0.930 . S
H1318 C1331 0.929 . S
H1319 C1329 0.929 . S
H1320 C1324 0.929 . S
H1321 C1330 0.929 . S
C1322 H1316 0.930 1_556 S
C1322 C1323 1.367 . S
C1322 C1330 1.378 . S
C1323 C1322 1.367 . S
C1323 C1331 1.433 . S
C1324 H1320 0.929 . S
C1324 C1326 1.378 . S
C1324 C1328 1.350 . S
C1325 C1328 1.463 . S
C1325 C1330 1.350 . S
C1325 N1333 1.427 . S
C1326 H1317 0.930 . S
C1326 C1324 1.378 . S
C1326 C1327 1.367 . S
C1327 C1326 1.367 . S
C1327 C1329 1.433 . S
C1328 C1324 1.350 . S
C1328 C1325 1.463 . S
C1328 N1332 1.427 . S
C1329 H1319 0.929 . S
C1329 C1327 1.433 . S
C1329 N1332 1.384 . S
C1330 H1321 0.929 . S
C1330 C1322 1.378 . S
C1330 C1325 1.350 . S
C1331 H1318 0.929 . S
C1331 C1323 1.433 . S
C1331 N1333 1.384 . S
N1332 C1328 1.427 . S
N1332 C1329 1.384 . S
N1333 C1325 1.427 . S
N1333 C1331 1.384 . S
H1334 C1340 0.930 . S
H1335 C1344 0.930 . S
H1336 C1349 0.929 1_556 S
H1337 C1347 0.929 . S
H1338 C1342 0.929 . S
H1339 C1348 0.929 . S
C1340 H1334 0.930 . S
C1340 C1341 1.367 . S
C1340 C1348 1.378 . S
C1341 C1340 1.367 . S
C1341 C1349 1.433 . S
C1342 H1338 0.929 . S
C1342 C1344 1.378 . S
C1342 C1346 1.350 . S
C1343 C1346 1.463 . S
C1343 C1348 1.350 . S
C1343 N1351 1.427 . S
C1344 H1335 0.930 . S
C1344 C1342 1.378 . S
C1344 C1345 1.367 . S
C1345 C1344 1.367 . S
C1345 C1347 1.433 . S
C1346 C1342 1.350 . S
C1346 C1343 1.463 . S
C1346 N1350 1.427 . S
C1347 H1337 0.929 . S
C1347 C1345 1.433 . S
C1347 N1350 1.384 . S
C1348 H1339 0.929 . S
C1348 C1340 1.378 . S
C1348 C1343 1.350 . S
C1349 H1336 0.929 1_554 S
C1349 C1341 1.433 . S
C1349 N1351 1.384 . S
N1350 C1346 1.427 . S
N1350 C1347 1.384 . S
N1351 C1343 1.427 . S
N1351 C1349 1.384 . S
H1352 C1358 0.930 . S
H1353 C1362 0.930 . S
H1354 C1367 0.929 . S
H1355 C1365 0.929 . S
H1356 C1360 0.929 . S
H1357 C1366 0.929 . S
C1358 H1352 0.930 . S
C1358 C1359 1.367 . S
C1358 C1366 1.378 . S
C1359 C1358 1.367 . S
C1359 C1367 1.433 . S
C1360 H1356 0.929 . S
C1360 C1362 1.378 . S
C1360 C1364 1.350 . S
C1361 C1364 1.463 . S
C1361 C1366 1.350 . S
C1361 N1369 1.427 . S
C1362 H1353 0.930 . S
C1362 C1360 1.378 . S
C1362 C1363 1.367 . S
C1363 C1362 1.367 . S
C1363 C1365 1.433 . S
C1364 C1360 1.350 . S
C1364 C1361 1.463 . S
C1364 N1368 1.427 . S
C1365 H1355 0.929 . S
C1365 C1363 1.433 . S
C1365 N1368 1.384 . S
C1366 H1357 0.929 . S
C1366 C1358 1.378 . S
C1366 C1361 1.350 . S
C1367 H1354 0.929 . S
C1367 C1359 1.433 . S
C1367 N1369 1.384 . S
N1368 C1364 1.427 . S
N1368 C1365 1.384 . S
N1369 C1361 1.427 . S
N1369 C1367 1.384 . S
H1370 C1376 0.930 . S
H1371 C1380 0.930 . S
H1372 C1385 0.929 . S
H1373 C1383 0.929 . S
H1374 C1378 0.929 . S
H1375 C1384 0.929 . S
C1376 H1370 0.930 . S
C1376 C1377 1.367 . S
C1376 C1384 1.378 . S
C1377 C1376 1.367 . S
C1377 C1385 1.433 . S
C1378 H1374 0.929 . S
C1378 C1380 1.378 . S
C1378 C1382 1.350 . S
C1379 C1382 1.463 . S
C1379 C1384 1.350 . S
C1379 N1387 1.427 . S
C1380 H1371 0.930 . S
C1380 C1378 1.378 . S
C1380 C1381 1.367 . S
C1381 C1380 1.367 . S
C1381 C1383 1.433 . S
C1382 C1378 1.350 . S
C1382 C1379 1.463 . S
C1382 N1386 1.427 . S
C1383 H1373 0.929 . S
C1383 C1381 1.433 . S
C1383 N1386 1.384 . S
C1384 H1375 0.929 . S
C1384 C1376 1.378 . S
C1384 C1379 1.350 . S
C1385 H1372 0.929 . S
C1385 C1377 1.433 . S
C1385 N1387 1.384 . S
N1386 C1382 1.427 . S
N1386 C1383 1.384 . S
N1387 C1379 1.427 . S
N1387 C1385 1.384 . S
H1388 C1394 0.930 . S
H1389 C1398 0.930 . S
H1390 C1403 0.929 . S
H1391 C1401 0.929 1_556 S
H1392 C1396 0.929 . S
H1393 C1402 0.929 . S
C1394 H1388 0.930 . S
C1394 C1395 1.367 . S
C1394 C1402 1.378 . S
C1395 C1394 1.367 . S
C1395 C1403 1.433 . S
C1396 H1392 0.929 . S
C1396 C1398 1.378 . S
C1396 C1400 1.350 . S
C1397 C1400 1.463 . S
C1397 C1402 1.350 . S
C1397 N1405 1.427 . S
C1398 H1389 0.930 . S
C1398 C1396 1.378 . S
C1398 C1399 1.367 . S
C1399 C1398 1.367 . S
C1399 C1401 1.433 . S
C1400 C1396 1.350 . S
C1400 C1397 1.463 . S
C1400 N1404 1.427 . S
C1401 H1391 0.929 1_554 S
C1401 C1399 1.433 . S
C1401 N1404 1.384 . S
C1402 H1393 0.929 . S
C1402 C1394 1.378 . S
C1402 C1397 1.350 . S
C1403 H1390 0.929 . S
C1403 C1395 1.433 . S
C1403 N1405 1.384 . S
N1404 C1400 1.427 . S
N1404 C1401 1.384 . S
N1405 C1397 1.427 . S
N1405 C1403 1.384 . S
H1406 C1412 0.930 . S
H1407 C1416 0.930 1_554 S
H1408 C1421 0.929 . S
H1409 C1419 0.929 . S
H1410 C1414 0.929 . S
H1411 C1420 0.929 . S
C1412 H1406 0.930 . S
C1412 C1413 1.367 . S
C1412 C1420 1.378 . S
C1413 C1412 1.367 . S
C1413 C1421 1.433 . S
C1414 H1410 0.929 . S
C1414 C1416 1.378 . S
C1414 C1418 1.350 . S
C1415 C1418 1.463 . S
C1415 C1420 1.350 . S
C1415 N1423 1.427 . S
C1416 H1407 0.930 1_556 S
C1416 C1414 1.378 . S
C1416 C1417 1.367 . S
C1417 C1416 1.367 . S
C1417 C1419 1.433 . S
C1418 C1414 1.350 . S
C1418 C1415 1.463 . S
C1418 N1422 1.427 . S
C1419 H1409 0.929 . S
C1419 C1417 1.433 . S
C1419 N1422 1.384 . S
C1420 H1411 0.929 . S
C1420 C1412 1.378 . S
C1420 C1415 1.350 . S
C1421 H1408 0.929 . S
C1421 C1413 1.433 . S
C1421 N1423 1.384 . S
N1422 C1418 1.427 . S
N1422 C1419 1.384 . S
N1423 C1415 1.427 . S
N1423 C1421 1.384 . S
H1424 C1430 0.930 . S
H1425 C1434 0.930 . S
H1426 C1439 0.929 1_554 S
H1427 C1437 0.929 . S
H1428 C1432 0.929 . S
H1429 C1438 0.929 . S
C1430 H1424 0.930 . S
C1430 C1431 1.367 . S
C1430 C1438 1.378 . S
C1431 C1430 1.367 . S
C1431 C1439 1.433 . S
C1432 H1428 0.929 . S
C1432 C1434 1.378 . S
C1432 C1436 1.350 . S
C1433 C1436 1.463 . S
C1433 C1438 1.350 . S
C1433 N1441 1.427 . S
C1434 H1425 0.930 . S
C1434 C1432 1.378 . S
C1434 C1435 1.367 . S
C1435 C1434 1.367 . S
C1435 C1437 1.433 . S
C1436 C1432 1.350 . S
C1436 C1433 1.463 . S
C1436 N1440 1.427 . S
C1437 H1427 0.929 . S
C1437 C1435 1.433 . S
C1437 N1440 1.384 . S
C1438 H1429 0.929 . S
C1438 C1430 1.378 . S
C1438 C1433 1.350 . S
C1439 H1426 0.929 1_556 S
C1439 C1431 1.433 . S
C1439 N1441 1.384 . S
N1440 C1436 1.427 . S
N1440 C1437 1.384 . S
N1441 C1433 1.427 . S
N1441 C1439 1.384 . S
H1442 C1448 0.930 . S
H1443 C1452 0.930 . S
H1444 C1457 0.929 . S
H1445 C1455 0.929 1_556 S
H1446 C1450 0.929 . S
H1447 C1456 0.929 . S
C1448 H1442 0.930 . S
C1448 C1449 1.367 . S
C1448 C1456 1.378 . S
C1449 C1448 1.367 . S
C1449 C1457 1.433 . S
C1450 H1446 0.929 . S
C1450 C1452 1.378 . S
C1450 C1454 1.350 . S
C1451 C1454 1.463 . S
C1451 C1456 1.350 . S
C1451 N1459 1.427 . S
C1452 H1443 0.930 . S
C1452 C1450 1.378 . S
C1452 C1453 1.367 . S
C1453 C1452 1.367 . S
C1453 C1455 1.433 . S
C1454 C1450 1.350 . S
C1454 C1451 1.463 . S
C1454 N1458 1.427 . S
C1455 H1445 0.929 1_554 S
C1455 C1453 1.433 . S
C1455 N1458 1.384 . S
C1456 H1447 0.929 . S
C1456 C1448 1.378 . S
C1456 C1451 1.350 . S
C1457 H1444 0.929 . S
C1457 C1449 1.433 . S
C1457 N1459 1.384 . S
N1458 C1454 1.427 . S
N1458 C1455 1.384 . S
N1459 C1451 1.427 . S
N1459 C1457 1.384 . S
H1460 C1466 0.930 . S
H1461 C1470 0.930 . S
H1462 C1475 0.929 . S
H1463 C1473 0.929 . S
H1464 C1468 0.929 . S
H1465 C1474 0.929 . S
C1466 H1460 0.930 . S
C1466 C1467 1.367 . S
C1466 C1474 1.378 . S
C1467 C1466 1.367 . S
C1467 C1475 1.433 . S
C1468 H1464 0.929 . S
C1468 C1470 1.378 . S
C1468 C1472 1.350 . S
C1469 C1472 1.463 . S
C1469 C1474 1.350 . S
C1469 N1477 1.427 . S
C1470 H1461 0.930 . S
C1470 C1468 1.378 . S
C1470 C1471 1.367 . S
C1471 C1470 1.367 . S
C1471 C1473 1.433 . S
C1472 C1468 1.350 . S
C1472 C1469 1.463 . S
C1472 N1476 1.427 . S
C1473 H1463 0.929 . S
C1473 C1471 1.433 . S
C1473 N1476 1.384 . S
C1474 H1465 0.929 . S
C1474 C1466 1.378 . S
C1474 C1469 1.350 . S
C1475 H1462 0.929 . S
C1475 C1467 1.433 . S
C1475 N1477 1.384 . S
N1476 C1472 1.427 . S
N1476 C1473 1.384 . S
N1477 C1469 1.427 . S
N1477 C1475 1.384 . S
H1478 C1484 0.930 . S
H1479 C1488 0.930 . S
H1480 C1493 0.929 . S
H1481 C1491 0.929 . S
H1482 C1486 0.929 . S
H1483 C1492 0.929 . S
C1484 H1478 0.930 . S
C1484 C1485 1.367 . S
C1484 C1492 1.378 . S
C1485 C1484 1.367 . S
C1485 C1493 1.433 . S
C1486 H1482 0.929 . S
C1486 C1488 1.378 . S
C1486 C1490 1.350 . S
C1487 C1490 1.463 . S
C1487 C1492 1.350 . S
C1487 N1495 1.427 . S
C1488 H1479 0.930 . S
C1488 C1486 1.378 . S
C1488 C1489 1.367 . S
C1489 C1488 1.367 . S
C1489 C1491 1.433 . S
C1490 C1486 1.350 . S
C1490 C1487 1.463 . S
C1490 N1494 1.427 . S
C1491 H1481 0.929 . S
C1491 C1489 1.433 . S
C1491 N1494 1.384 . S
C1492 H1483 0.929 . S
C1492 C1484 1.378 . S
C1492 C1487 1.350 . S
C1493 H1480 0.929 . S
C1493 C1485 1.433 . S
C1493 N1495 1.384 . S
N1494 C1490 1.427 . S
N1494 C1491 1.384 . S
N1495 C1487 1.427 . S
N1495 C1493 1.384 . S
H1496 C1502 0.930 . S
H1497 C1506 0.930 1_556 S
H1498 C1511 0.929 . S
H1499 C1509 0.929 . S
H1500 C1504 0.929 . S
H1501 C1510 0.929 . S
C1502 H1496 0.930 . S
C1502 C1503 1.367 . S
C1502 C1510 1.378 . S
C1503 C1502 1.367 . S
C1503 C1511 1.433 . S
C1504 H1500 0.929 . S
C1504 C1506 1.378 . S
C1504 C1508 1.350 . S
C1505 C1508 1.463 . S
C1505 C1510 1.350 . S
C1505 N1513 1.427 . S
C1506 H1497 0.930 1_554 S
C1506 C1504 1.378 . S
C1506 C1507 1.367 . S
C1507 C1506 1.367 . S
C1507 C1509 1.433 . S
C1508 C1504 1.350 . S
C1508 C1505 1.463 . S
C1508 N1512 1.427 . S
C1509 H1499 0.929 . S
C1509 C1507 1.433 . S
C1509 N1512 1.384 . S
C1510 H1501 0.929 . S
C1510 C1502 1.378 . S
C1510 C1505 1.350 . S
C1511 H1498 0.929 . S
C1511 C1503 1.433 . S
C1511 N1513 1.384 . S
N1512 C1508 1.427 . S
N1512 C1509 1.384 . S
N1513 C1505 1.427 . S
N1513 C1511 1.384 . S
H1514 C1520 0.930 1_554 S
H1515 C1524 0.930 . S
H1516 C1529 0.929 . S
H1517 C1527 0.929 . S
H1518 C1522 0.929 . S
H1519 C1528 0.929 . S
C1520 H1514 0.930 1_556 S
C1520 C1521 1.367 . S
C1520 C1528 1.378 . S
C1521 C1520 1.367 . S
C1521 C1529 1.433 . S
C1522 H1518 0.929 . S
C1522 C1524 1.378 . S
C1522 C1526 1.350 . S
C1523 C1526 1.463 . S
C1523 C1528 1.350 . S
C1523 N1531 1.427 . S
C1524 H1515 0.930 . S
C1524 C1522 1.378 . S
C1524 C1525 1.367 . S
C1525 C1524 1.367 . S
C1525 C1527 1.433 . S
C1526 C1522 1.350 . S
C1526 C1523 1.463 . S
C1526 N1530 1.427 . S
C1527 H1517 0.929 . S
C1527 C1525 1.433 . S
C1527 N1530 1.384 . S
C1528 H1519 0.929 . S
C1528 C1520 1.378 . S
C1528 C1523 1.350 . S
C1529 H1516 0.929 . S
C1529 C1521 1.433 . S
C1529 N1531 1.384 . S
N1530 C1526 1.427 . S
N1530 C1527 1.384 . S
N1531 C1523 1.427 . S
N1531 C1529 1.384 . S
H1532 C1538 0.930 . S
H1533 C1542 0.930 . S
H1534 C1547 0.929 . S
H1535 C1545 0.929 . S
H1536 C1540 0.929 . S
H1537 C1546 0.929 . S
C1538 H1532 0.930 . S
C1538 C1539 1.367 . S
C1538 C1546 1.378 . S
C1539 C1538 1.367 . S
C1539 C1547 1.433 . S
C1540 H1536 0.929 . S
C1540 C1542 1.378 . S
C1540 C1544 1.350 . S
C1541 C1544 1.463 . S
C1541 C1546 1.350 . S
C1541 N1549 1.427 . S
C1542 H1533 0.930 . S
C1542 C1540 1.378 . S
C1542 C1543 1.367 . S
C1543 C1542 1.367 . S
C1543 C1545 1.433 . S
C1544 C1540 1.350 . S
C1544 C1541 1.463 . S
C1544 N1548 1.427 . S
C1545 H1535 0.929 . S
C1545 C1543 1.433 . S
C1545 N1548 1.384 . S
C1546 H1537 0.929 . S
C1546 C1538 1.378 . S
C1546 C1541 1.350 . S
C1547 H1534 0.929 . S
C1547 C1539 1.433 . S
C1547 N1549 1.384 . S
N1548 C1544 1.427 . S
N1548 C1545 1.384 . S
N1549 C1541 1.427 . S
N1549 C1547 1.384 . S
H1550 C1556 0.930 . S
H1551 C1560 0.930 . S
H1552 C1565 0.929 . S
H1553 C1563 0.929 . S
H1554 C1558 0.929 . S
H1555 C1564 0.929 . S
C1556 H1550 0.930 . S
C1556 C1557 1.367 . S
C1556 C1564 1.378 . S
C1557 C1556 1.367 . S
C1557 C1565 1.433 . S
C1558 H1554 0.929 . S
C1558 C1560 1.378 . S
C1558 C1562 1.350 . S
C1559 C1562 1.463 . S
C1559 C1564 1.350 . S
C1559 N1567 1.427 . S
C1560 H1551 0.930 . S
C1560 C1558 1.378 . S
C1560 C1561 1.367 . S
C1561 C1560 1.367 . S
C1561 C1563 1.433 . S
C1562 C1558 1.350 . S
C1562 C1559 1.463 . S
C1562 N1566 1.427 . S
C1563 H1553 0.929 . S
C1563 C1561 1.433 . S
C1563 N1566 1.384 . S
C1564 H1555 0.929 . S
C1564 C1556 1.378 . S
C1564 C1559 1.350 . S
C1565 H1552 0.929 . S
C1565 C1557 1.433 . S
C1565 N1567 1.384 . S
N1566 C1562 1.427 . S
N1566 C1563 1.384 . S
N1567 C1559 1.427 . S
N1567 C1565 1.384 . S
C423 C83 1.440 . S
C427 C5 1.449 . S
C441 C18 1.449 . S
C445 C96 1.440 . S
C459 C57 1.455 . S
C463 C31 1.445 . S
C477 C44 1.450 . S
C481 C70 1.454 . S
C495 C109 1.445 . S
C499 C187 1.455 . S
C513 C200 1.440 . S
C517 C122 1.445 . S
C531 C135 1.455 . S
C535 C161 1.448 . S
C549 C174 1.440 . S
C553 C148 1.449 . S
C567 C213 1.455 . S
C571 C291 1.446 . S
C585 C226 1.441 . S
C589 C304 1.444 . S
C603 C265 1.455 . S
C607 C239 1.445 . S
C621 C278 1.442 . S
C625 C252 1.443 . S
C639 C317 1.451 . S
C643 C395 1.440 . S
C657 C330 1.455 . S
C661 C408 1.444 . S
C675 C369 1.451 . S
C679 C343 1.440 . S
C693 C356 1.441 . S
C697 C382 1.444 . S
C711 C0 1.515 1_556 S
C715 C91 1.512 . S
C729 C52 1.521 1_554 S
C733 C13 1.514 . S
C747 C65 1.511 . S
C751 C26 1.520 . S
C765 C39 1.511 . S
C769 C78 1.520 . S
C783 C104 1.516 1_554 S
C787 C195 1.519 . S
C801 C156 1.518 1_556 S
C805 C117 1.518 . S
C819 C169 1.520 . S
C823 C130 1.510 . S
C837 C182 1.520 . S
C841 C143 1.511 . S
C855 C208 1.518 . S
C859 C299 1.518 . S
C873 C221 1.521 . S
C877 C260 1.511 . S
C891 C273 1.519 . S
C895 C234 1.510 1_556 S
C909 C247 1.512 . S
C913 C286 1.521 1_554 S
C927 C312 1.511 . S
C931 C403 1.517 . S
C945 C364 1.512 . S
C949 C325 1.521 . S
C963 C338 1.521 1_554 S
C967 C377 1.511 . S
C981 C351 1.516 . S
C985 C390 1.519 1_556 S
C999 C400 1.426 . S
C1003 C10 1.432 . S
C1017 C205 1.430 . S
C1021 C23 1.429 . S
C1035 C36 1.427 . S
C1039 C374 1.432 . S
C1053 C49 1.426 . S
C1057 C179 1.432 . S
C1071 C62 1.427 . S
C1075 C348 1.431 . S
C1089 C75 1.432 . S
C1093 C153 1.426 . S
C1107 C88 1.432 . S
C1111 C322 1.427 . S
C1125 C127 1.429 . S
C1129 C101 1.430 . S
C1143 C296 1.432 . S
C1147 C114 1.427 . S
C1161 C140 1.427 . S
C1165 C270 1.431 . S
C1179 C244 1.431 . S
C1183 C166 1.428 . S
C1197 C218 1.427 . S
C1201 C192 1.432 . S
C1215 C231 1.427 . S
C1219 C413 1.431 . S
C1233 C257 1.426 . S
C1237 C387 1.432 . S
C1251 C283 1.432 . S
C1255 C361 1.427 . S
C1269 C335 1.429 . S
C1273 C309 1.430 . S
C1287 C8 1.008 . S
C1291 C99 1.009 . S
C1305 C21 1.008 . S
C1309 C60 1.008 . S
C1323 C73 1.010 1_556 S
C1327 C34 0.998 . S
C1341 C47 1.002 1_554 S
C1345 C86 0.992 . S
C1359 C203 1.009 . S
C1363 C112 0.996 . S
C1377 C164 0.993 . S
C1381 C125 0.997 . S
C1395 C138 0.998 . S
C1399 C177 0.992 1_554 S
C1413 C190 1.010 . S
C1417 C151 1.006 1_556 S
C1431 C307 0.994 1_556 S
C1435 C216 0.995 . S
C1449 C268 0.999 . S
C1453 C229 0.992 1_554 S
C1467 C281 1.001 . S
C1471 C242 1.011 . S
C1485 C294 1.006 . S
C1489 C255 1.010 . S
C1503 C320 1.001 . S
C1507 C411 1.011 1_554 S
C1521 C333 1.011 1_556 S
C1525 C372 1.000 . S
C1539 C346 1.001 . S
C1543 C385 1.011 . S
C1557 C398 1.009 . S
C1561 C359 0.996 . S
