# Generated by pormake.
# Topology xfu, (5)-cn, num edge types: 1
# Building blocks:
#     Node 0, Type 0, BuildingBlock: XOMCOT_clean_sbu_0, # of connection points: 5
#     Node 1, Type 0, BuildingBlock: XOMCOT_clean_sbu_0, # of connection points: 5
#     Node 2, Type 0, BuildingBlock: XOMCOT_clean_sbu_0, # of connection points: 5
#     Node 3, Type 0, BuildingBlock: XOMCOT_clean_sbu_0, # of connection points: 5
#     Node 4, Type 0, BuildingBlock: XOMCOT_clean_sbu_0, # of connection points: 5
#     Node 5, Type 0, BuildingBlock: XOMCOT_clean_sbu_0, # of connection points: 5
#     Node 6, Type 0, BuildingBlock: XOMCOT_clean_sbu_0, # of connection points: 5
#     Node 7, Type 0, BuildingBlock: XOMCOT_clean_sbu_0, # of connection points: 5
#     Edge 8, Type (0, 0), BuildingBlock: KIFKEQ_clean_linker_1, # of connection points: 2
#     Edge 9, Type (0, 0), BuildingBlock: KIFKEQ_clean_linker_1, # of connection points: 2
#     Edge 10, Type (0, 0), BuildingBlock: KIFKEQ_clean_linker_1, # of connection points: 2
#     Edge 11, Type (0, 0), BuildingBlock: KIFKEQ_clean_linker_1, # of connection points: 2
#     Edge 12, Type (0, 0), BuildingBlock: KIFKEQ_clean_linker_1, # of connection points: 2
#     Edge 13, Type (0, 0), BuildingBlock: KIFKEQ_clean_linker_1, # of connection points: 2
#     Edge 14, Type (0, 0), BuildingBlock: KIFKEQ_clean_linker_1, # of connection points: 2
#     Edge 15, Type (0, 0), BuildingBlock: KIFKEQ_clean_linker_1, # of connection points: 2
#     Edge 16, Type (0, 0), BuildingBlock: KIFKEQ_clean_linker_1, # of connection points: 2
#     Edge 17, Type (0, 0), BuildingBlock: KIFKEQ_clean_linker_1, # of connection points: 2
#     Edge 18, Type (0, 0), BuildingBlock: KIFKEQ_clean_linker_1, # of connection points: 2
#     Edge 19, Type (0, 0), BuildingBlock: KIFKEQ_clean_linker_1, # of connection points: 2
#     Edge 20, Type (0, 0), BuildingBlock: KIFKEQ_clean_linker_1, # of connection points: 2
#     Edge 21, Type (0, 0), BuildingBlock: KIFKEQ_clean_linker_1, # of connection points: 2
#     Edge 22, Type (0, 0), BuildingBlock: KIFKEQ_clean_linker_1, # of connection points: 2
#     Edge 23, Type (0, 0), BuildingBlock: KIFKEQ_clean_linker_1, # of connection points: 2
#     Edge 24, Type (0, 0), BuildingBlock: KIFKEQ_clean_linker_1, # of connection points: 2
#     Edge 25, Type (0, 0), BuildingBlock: KIFKEQ_clean_linker_1, # of connection points: 2
#     Edge 26, Type (0, 0), BuildingBlock: KIFKEQ_clean_linker_1, # of connection points: 2
#     Edge 27, Type (0, 0), BuildingBlock: KIFKEQ_clean_linker_1, # of connection points: 2
# Relax obj value: 0.384
# Max RMSD: 0.269
# Mean RMSD: 0.269
data_MOF--net-xfu--node1-XOMCOT_clean_sbu_0--edge1-KIFKEQ_clean_linker_1
_symmetry_space_group_name_H-M    P1
_symmetry_Int_Tables_number       1
_symmetry_cell_setting            triclinic
loop_
_symmetry_equiv_pos_as_xyz
'x, y, z'
_cell_length_a     30.722648
_cell_length_b     30.627813
_cell_length_c     50.576376
_cell_angle_alpha  90.166154
_cell_angle_beta   89.993372
_cell_angle_gamma 89.809953
loop_
_atom_site_label
_atom_site_type_symbol
_atom_site_fract_x
_atom_site_fract_y
_atom_site_fract_z
_atom_type_partial_charge
Co0 Co 0.09806 0.23762 0.62333 0.0
C1 C 0.08426 0.16831 0.58404 0.0
C2 C 0.12107 0.14497 0.61722 0.0
C3 C 0.1152 0.11098 0.59971 0.0
N4 N 0.10146 0.18066 0.60735 0.0
N5 N 0.09204 0.12567 0.57878 0.0
H6 H 0.06667 0.19041 0.57125 0.0
H7 H 0.13822 0.14363 0.63587 0.0
C8 C 0.07881 0.22262 0.68029 0.0
O9 O 0.04929 0.25368 0.67877 0.0
N10 N 0.0964 0.29522 0.63971 0.0
C11 C 0.07327 0.3314 0.63366 0.0
C12 C 0.08433 0.36426 0.65106 0.0
C13 C 0.12227 0.30735 0.65999 0.0
N14 N 0.11492 0.34891 0.66776 0.0
C15 C 0.0133 0.26002 0.6039 0.0
C16 C 0.96774 0.1998 0.63347 0.0
C17 C 0.94459 0.22973 0.61795 0.0
C18 C 0.96803 0.25927 0.6024 0.0
C19 C 0.01305 0.20183 0.63438 0.0
N20 N 0.03503 0.23387 0.62125 0.0
H21 H 0.03085 0.28182 0.59107 0.0
H22 H 0.03034 0.17741 0.64561 0.0
H23 H 0.05017 0.33469 0.61782 0.0
H24 H 0.14591 0.28575 0.66899 0.0
O25 O 0.10978 0.26435 0.58943 0.0
O26 O 0.15962 0.24454 0.61902 0.0
O27 O 0.09954 0.21036 0.65962 0.0
C28 C 0.15049 0.26211 0.59631 0.0
H29 H 0.12668 0.07791 0.60254 0.0
H30 H 0.07014 0.39663 0.65166 0.0
H31 H 0.95103 0.17498 0.64477 0.0
H32 H 0.95166 0.28236 0.5896 0.0
Co33 Co 0.85885 0.62026 0.11524 0.0
C34 C 0.92752 0.58353 0.08031 0.0
C35 C 0.9538 0.60336 0.11761 0.0
C36 C 0.98745 0.58862 0.10195 0.0
N37 N 0.91585 0.59876 0.10441 0.0
N38 N 0.97072 0.57642 0.07851 0.0
H39 H 0.90554 0.5798 0.06383 0.0
H40 H 0.95754 0.61881 0.13669 0.0
C41 C 0.89498 0.59052 0.16841 0.0
O42 O 0.90635 0.55207 0.15905 0.0
N43 N 0.8025 0.64254 0.12587 0.0
C44 C 0.7648 0.63894 0.1125 0.0
C45 C 0.73173 0.65577 0.12793 0.0
C46 C 0.792 0.6616 0.14905 0.0
N47 N 0.74882 0.66979 0.15107 0.0
C48 C 0.83269 0.53869 0.09312 0.0
C49 C 0.7998 0.50301 0.13906 0.0
C50 C 0.80055 0.47763 0.11594 0.0
C51 C 0.81608 0.49653 0.09261 0.0
C52 C 0.81643 0.54539 0.13858 0.0
N53 N 0.83505 0.5617 0.11616 0.0
H54 H 0.84272 0.55306 0.07476 0.0
H55 H 0.81422 0.56504 0.15629 0.0
H56 H 0.76138 0.62399 0.09322 0.0
H57 H 0.81532 0.66776 0.16449 0.0
O58 O 0.8452 0.63524 0.07899 0.0
O59 O 0.87829 0.67838 0.10812 0.0
O60 O 0.87671 0.61872 0.15351 0.0
C61 C 0.86298 0.6727 0.0844 0.0
H62 H 0.02177 0.58931 0.10678 0.0
H63 H 0.69769 0.65665 0.12254 0.0
H64 H 0.78718 0.49013 0.15743 0.0
H65 H 0.81512 0.47904 0.07397 0.0
Co66 Co 0.48417 0.36122 0.62205 0.0
C67 C 0.51615 0.42942 0.58537 0.0
C68 C 0.49494 0.45704 0.62209 0.0
C69 C 0.50627 0.49054 0.60543 0.0
N70 N 0.50241 0.41848 0.60985 0.0
N71 N 0.51935 0.47302 0.58233 0.0
H72 H 0.52126 0.4064 0.56948 0.0
H73 H 0.47944 0.46107 0.6411 0.0
C74 C 0.51256 0.40233 0.67423 0.0
O75 O 0.55039 0.41454 0.66469 0.0
N76 N 0.46496 0.30444 0.63417 0.0
C77 C 0.46512 0.26667 0.62035 0.0
C78 C 0.4531 0.23313 0.63695 0.0
C79 C 0.45305 0.29332 0.65891 0.0
N80 N 0.44604 0.2501 0.66117 0.0
C81 C 0.56693 0.33671 0.60055 0.0
C82 C 0.60204 0.30504 0.64704 0.0
C83 C 0.62703 0.30348 0.6239 0.0
C84 C 0.60884 0.31919 0.60038 0.0
C85 C 0.56015 0.32264 0.64627 0.0
N86 N 0.5437 0.33989 0.62345 0.0
H87 H 0.55281 0.34638 0.58203 0.0
H88 H 0.54071 0.32145 0.66401 0.0
H89 H 0.47496 0.26335 0.59991 0.0
H90 H 0.45072 0.31589 0.67529 0.0
O91 O 0.46944 0.34444 0.58616 0.0
O92 O 0.42521 0.37757 0.61474 0.0
O93 O 0.48524 0.38208 0.65973 0.0
C94 C 0.43121 0.36077 0.59138 0.0
H95 H 0.50238 0.5251 0.60936 0.0
H96 H 0.45191 0.19875 0.63199 0.0
H97 H 0.61438 0.29189 0.66544 0.0
H98 H 0.62682 0.31803 0.58197 0.0
Co99 Co 0.75311 0.00388 0.11869 0.0
C100 C 0.68296 0.02024 0.08036 0.0
C101 C 0.66264 0.97665 0.11116 0.0
C102 C 0.62852 0.98244 0.09387 0.0
N103 N 0.69653 0.00047 0.10264 0.0
N104 N 0.64136 0.00983 0.0745 0.0
H105 H 0.70345 0.04118 0.06852 0.0
H106 H 0.6628 0.95637 0.12862 0.0
C107 C 0.73704 0.01829 0.17617 0.0
O108 O 0.76651 0.0493 0.17562 0.0
N109 N 0.81027 0.00523 0.13521 0.0
C110 C 0.84619 0.02907 0.1301 0.0
C111 C 0.87886 0.01644 0.14723 0.0
C112 C 0.82226 0.97762 0.15463 0.0
N113 N 0.86345 0.98434 0.16278 0.0
C114 C 0.7734 0.09012 0.10143 0.0
C115 C 0.71097 0.13313 0.13114 0.0
C116 C 0.73918 0.15748 0.11527 0.0
C117 C 0.77018 0.13535 0.09992 0.0
C118 C 0.7152 0.08776 0.13191 0.0
N119 N 0.7479 0.06706 0.11842 0.0
H120 H 0.79616 0.07362 0.08859 0.0
H121 H 0.69163 0.06937 0.14307 0.0
H122 H 0.84938 0.05369 0.11511 0.0
H123 H 0.80088 0.95304 0.16274 0.0
O124 O 0.78013 -0.00478 0.08446 0.0
O125 O 0.76157 0.9427 0.11256 0.0
O126 O 0.72581 -0.00104 0.15481 0.0
C127 C 0.77886 0.9539 0.09014 0.0
H128 H 0.59661 0.9679 0.09565 0.0
H129 H 0.91107 0.03048 0.14851 0.0
H130 H 0.68546 0.14892 0.14249 0.0
H131 H 0.7922 0.15283 0.08703 0.0
Co132 Co -0.00605 0.83283 0.3817 0.0
C133 C 0.00888 0.90801 0.41668 0.0
C134 C 0.95627 0.92008 0.38968 0.0
C135 C 0.96014 0.95556 0.40635 0.0
N136 N 0.98687 0.89048 0.39626 0.0
N137 N -0.00669 0.94782 0.4232 0.0
H138 H 0.03468 0.89128 0.42717 0.0
H139 H 0.93222 0.91569 0.37429 0.0
C140 C 0.00089 0.84731 0.32283 0.0
O141 O 0.03176 0.81762 0.32112 0.0
N142 N -0.00016 0.77435 0.36707 0.0
C143 C 0.02768 0.74197 0.37366 0.0
C144 C 0.01933 0.70609 0.35802 0.0
C145 C 0.97387 0.75694 0.34831 0.0
N146 N 0.98558 0.71567 0.34202 0.0
C147 C 0.08131 0.82176 0.3995 0.0
C148 C 0.12063 0.87465 0.36239 0.0
C149 C 0.14642 0.85074 0.37995 0.0
C150 C 0.12637 0.8253 0.39927 0.0
C151 C 0.0754 0.871 0.3638 0.0
N152 N 0.05649 0.84208 0.38082 0.0
H153 H 0.0665 0.80193 0.41458 0.0
H154 H 0.05598 0.89163 0.35122 0.0
H155 H 0.05218 0.74338 0.38884 0.0
H156 H 0.94786 0.77486 0.33878 0.0
O157 O 0.98851 0.80847 0.41692 0.0
O158 O 0.93405 0.8208 0.38889 0.0
O159 O 0.98474 0.85767 0.34528 0.0
C160 C 0.9471 0.80702 0.41183 0.0
H161 H 0.94001 0.98463 0.4062 0.0
H162 H 0.03675 0.67533 0.35842 0.0
H163 H 0.13529 0.89593 0.34784 0.0
H164 H 0.14544 0.80707 0.41352 0.0
Co165 Co 0.26813 0.48753 0.88566 0.0
C166 C 0.18712 0.5056 0.91665 0.0
C167 C 0.18041 0.4517 0.88992 0.0
C168 C 0.14349 0.45412 0.90527 0.0
N169 N 0.20774 0.48424 0.89687 0.0
N170 N 0.14787 0.48813 0.92193 0.0
H171 H 0.20124 0.53098 0.92857 0.0
H172 H 0.18788 0.42647 0.87561 0.0
C173 C 0.21639 0.49132 0.83573 0.0
O174 O 0.19108 0.52052 0.8471 0.0
N175 N 0.32811 0.48909 0.8746 0.0
C176 C 0.3599 0.51518 0.88388 0.0
C177 C 0.39676 0.50861 0.86878 0.0
C178 C 0.34596 0.46657 0.85444 0.0
N179 N 0.38781 0.47797 0.85036 0.0
C180 C 0.26353 0.57671 0.90306 0.0
C181 C 0.27849 0.61354 0.85409 0.0
C182 C 0.2737 0.64073 0.87614 0.0
C183 C 0.26604 0.62198 0.90086 0.0
C184 C 0.2749 0.56849 0.8571 0.0
N185 N 0.26584 0.55054 0.88122 0.0
H186 H 0.26231 0.56278 0.92256 0.0
H187 H 0.28172 0.54809 0.84017 0.0
H188 H 0.35609 0.53835 0.8999 0.0
H189 H 0.32807 0.44377 0.84223 0.0
O190 O 0.28658 0.48449 0.92235 0.0
O191 O 0.27512 0.42779 0.89562 0.0
O192 O 0.24954 0.47632 0.84801 0.0
C193 C 0.28592 0.4424 0.91883 0.0
H194 H 0.11626 0.43178 0.90488 0.0
H195 H 0.42742 0.52558 0.87085 0.0
H196 H 0.28592 0.62694 0.83481 0.0
H197 H 0.26433 0.64201 0.91853 0.0
Co198 Co 0.61579 0.75616 0.38093 0.0
C199 C 0.5865 0.68342 0.41377 0.0
C200 C 0.6263 0.66101 0.38158 0.0
C201 C 0.61734 0.62613 0.3978 0.0
N202 N 0.60693 0.69674 0.39172 0.0
N203 N 0.59249 0.64029 0.41818 0.0
H204 H 0.56914 0.7055 0.42676 0.0
H205 H 0.64746 0.66081 0.36449 0.0
C206 C 0.60418 0.75435 0.32183 0.0
O207 O 0.57839 0.78859 0.32343 0.0
N208 N 0.6262 0.81605 0.37001 0.0
C209 C 0.60889 0.85375 0.37914 0.0
C210 C 0.62342 0.88763 0.36367 0.0
C211 C 0.65283 0.82806 0.35013 0.0
N212 N 0.65052 0.87126 0.34514 0.0
C213 C 0.53416 0.78884 0.39941 0.0
C214 C 0.48279 0.74992 0.36128 0.0
C215 C 0.46377 0.77864 0.3795 0.0
C216 C 0.48964 0.79708 0.39928 0.0
C217 C 0.52749 0.74191 0.36251 0.0
N218 N 0.55308 0.76413 0.38006 0.0
H219 H 0.55338 0.80255 0.41518 0.0
H220 H 0.54129 0.71783 0.34934 0.0
H221 H 0.58676 0.85713 0.3955 0.0
H222 H 0.67233 0.80518 0.33886 0.0
O223 O 0.62654 0.77261 0.4174 0.0
O224 O 0.67655 0.74998 0.38858 0.0
O225 O 0.61898 0.73645 0.34283 0.0
C226 C 0.66688 0.76289 0.41237 0.0
H227 H 0.63038 0.59351 0.39544 0.0
H228 H 0.61296 0.92133 0.36514 0.0
H229 H 0.46322 0.73349 0.3465 0.0
H230 H 0.47573 0.81836 0.41423 0.0
Co231 Co 0.33644 0.11662 0.886 0.0
C232 C 0.41461 0.09712 0.91877 0.0
C233 C 0.42677 0.14695 0.89019 0.0
C234 C 0.46311 0.14271 0.90594 0.0
N235 N 0.39661 0.11764 0.89786 0.0
N236 N 0.45521 0.11148 0.924 0.0
H237 H 0.39805 0.07365 0.93081 0.0
H238 H 0.42194 0.17115 0.87493 0.0
C239 C 0.38854 0.11028 0.83599 0.0
O240 O 0.41501 0.0825 0.84757 0.0
N241 N 0.27675 0.11712 0.87439 0.0
C242 C 0.24407 0.09188 0.88328 0.0
C243 C 0.20816 0.09855 0.86742 0.0
C244 C 0.26034 0.13933 0.85373 0.0
N245 N 0.2186 0.12839 0.84893 0.0
C246 C 0.33692 0.0277 0.90391 0.0
C247 C 0.32339 0.99016 0.85486 0.0
C248 C 0.32653 0.96335 0.87708 0.0
C249 C 0.33337 0.98246 0.90186 0.0
C250 C 0.32798 0.03517 0.85774 0.0
N251 N 0.33643 0.05344 0.88192 0.0
H252 H 0.33754 0.04199 0.92337 0.0
H253 H 0.32238 0.05527 0.84061 0.0
H254 H 0.24671 0.06899 0.89944 0.0
H255 H 0.27919 0.16139 0.84162 0.0
O256 O 0.3172 0.12139 0.92248 0.0
O257 O 0.33168 0.17687 0.89556 0.0
O258 O 0.35572 0.12582 0.84836 0.0
C259 C 0.31965 0.16331 0.91874 0.0
H260 H 0.49208 0.16266 0.90503 0.0
H261 H 0.17716 0.08208 0.86899 0.0
H262 H 0.31662 0.97653 0.83551 0.0
H263 H 0.33378 0.96277 0.91963 0.0
H264 H 0.94389 0.00088 0.45377 0.0
H265 H 0.07558 0.95629 0.44109 0.0
H266 H 0.968 0.04458 0.49134 0.0
H267 H 0.10029 0.001 0.47807 0.0
H268 H 0.12244 0.04649 0.56226 0.0
H269 H 0.09795 0.00426 0.52462 0.0
H270 H 0.00764 0.10715 0.50403 0.0
H271 H 0.02994 0.14819 0.54269 0.0
C272 C 0.97813 0.001 0.45882 0.0
C273 C 0.00786 0.97512 0.44461 0.0
C274 C -0.00795 0.02612 0.48031 0.0
C275 C 0.03614 0.02632 0.48786 0.0
C276 C 0.06596 0.00098 0.47323 0.0
C277 C 0.05191 0.97547 0.45197 0.0
C278 C 0.097 0.06009 0.55001 0.0
C279 C 0.07825 0.10099 0.55585 0.0
C280 C 0.08334 0.03599 0.52807 0.0
C281 C 0.05086 0.05226 0.51114 0.0
C282 C 0.03233 0.09326 0.51679 0.0
C283 C 0.04566 0.11718 0.5389 0.0
H284 H 0.95627 0.60113 0.02809 0.0
H285 H 0.03903 0.52118 0.07711 0.0
H286 H -0.00207 0.57886 0.98893 0.0
H287 H 0.08032 0.49824 0.03787 0.0
H288 H 0.10512 0.43375 0.95476 0.0
H289 H 0.0603 0.4546 0.99296 0.0
H290 H 0.08202 0.59064 0.97546 0.0
H291 H 0.12749 0.56969 0.93758 0.0
C292 C 0.98311 0.57846 0.03037 0.0
C293 C -0.00545 0.56272 0.0555 0.0
C294 C 0.007 0.56597 0.00808 0.0
C295 C 0.04212 0.53682 0.0105 0.0
C296 C 0.05316 0.52055 0.03555 0.0
C297 C 0.02984 0.5338 0.05792 0.0
C298 C 0.09986 0.46804 0.95899 0.0
C299 C 0.11951 0.50021 0.94332 0.0
C300 C 0.0746 0.47992 0.98086 0.0
C301 C 0.06786 0.52415 0.98702 0.0
C302 C 0.08664 0.55632 0.97098 0.0
C303 C 0.11267 0.54442 0.94947 0.0
H304 H 0.56144 0.54982 0.5788 0.0
H305 H 0.50067 0.44896 0.53207 0.0
H306 H 0.57885 0.58996 0.53861 0.0
H307 H 0.5168 0.48943 0.49186 0.0
H308 H 0.59089 0.5519 0.42377 0.0
H309 H 0.57436 0.51105 0.46354 0.0
H310 H 0.54573 0.63156 0.50473 0.0
H311 H 0.56492 0.67254 0.46571 0.0
C312 C 0.55155 0.53648 0.55989 0.0
C313 C 0.52989 0.49628 0.55853 0.0
C314 C 0.5613 0.55949 0.53686 0.0
C315 C 0.54909 0.54305 0.51193 0.0
C316 C 0.52737 0.50274 0.51064 0.0
C317 C 0.51807 0.47952 0.53368 0.0
C318 C 0.58152 0.56986 0.44131 0.0
C319 C 0.5797 0.61579 0.4413 0.0
C320 C 0.57146 0.54629 0.46411 0.0
C321 C 0.55888 0.56796 0.48745 0.0
C322 C 0.55608 0.61376 0.48729 0.0
C323 C 0.56653 0.63734 0.46461 0.0
H324 H 0.54338 0.11475 0.92613 0.0
H325 H 0.42973 0.07885 0.97135 0.0
H326 H 0.58999 0.09061 0.96248 0.0
H327 H 0.47609 0.05442 0.00728 0.0
H328 H 0.57241 0.96896 0.05212 0.0
H329 H 0.52819 -0.00538 0.01541 0.0
H330 H 0.60836 0.10967 0.00916 0.0
H331 H 0.65252 0.08424 0.04617 0.0
C332 C 0.52833 0.10201 0.94383 0.0
C333 C 0.48281 0.09831 0.94564 0.0
C334 C 0.55501 0.08817 0.96463 0.0
C335 C 0.53669 0.07025 0.98762 0.0
C336 C 0.49121 0.06723 0.98959 0.0
C337 C 0.46461 0.08115 0.9689 0.0
C338 C 0.58047 -9e-05 0.04314 0.0
C339 C 0.61593 0.02461 0.05227 0.0
C340 C 0.55513 0.01458 0.02204 0.0
C341 C 0.56466 0.05428 0.00949 0.0
C342 C 0.60049 0.07873 0.01828 0.0
C343 C 0.62581 0.0641 0.03948 0.0
H344 H 0.2171 0.20819 0.82659 0.0
H345 H 0.16255 0.07889 0.82073 0.0
H346 H 0.17765 0.22983 0.78664 0.0
H347 H 0.12322 0.1004 0.78068 0.0
H348 H 0.1211 0.14627 0.69115 0.0
H349 H 0.15028 0.12272 0.73382 0.0
H350 H 0.09777 0.23876 0.77069 0.0
H351 H 0.06811 0.26214 0.72817 0.0
C352 C 0.19641 0.18457 0.81682 0.0
C353 C 0.1928 0.14194 0.82669 0.0
C354 C 0.17367 0.19697 0.79413 0.0
C355 C 0.14746 0.16672 0.78065 0.0
C356 C 0.14333 0.12425 0.79071 0.0
C357 C 0.16552 0.11208 0.81367 0.0
C358 C 0.11524 0.16638 0.70846 0.0
C359 C 0.09227 0.20594 0.70638 0.0
C360 C 0.13178 0.15284 0.73284 0.0
C361 C 0.12629 0.17902 0.75546 0.0
C362 C 0.10254 0.21811 0.7535 0.0
C363 C 0.08533 0.23127 0.72922 0.0
H364 H 0.90369 0.71699 0.32236 0.0
H365 H 0.02931 0.65529 0.31297 0.0
H366 H 0.87786 0.68011 0.2826 0.0
H367 H 0.00368 0.61866 0.27309 0.0
H368 H 0.93531 0.54197 0.20725 0.0
H369 H 0.95345 0.56573 0.25227 0.0
H370 H 0.89549 0.69167 0.23647 0.0
H371 H 0.87746 0.66837 0.19223 0.0
C372 C 0.92569 0.69536 0.31189 0.0
C373 C 0.96871 0.68958 0.32061 0.0
C374 C 0.91092 0.67417 0.28914 0.0
C375 C 0.93892 0.6469 0.27448 0.0
C376 C 0.98118 0.63914 0.28403 0.0
C377 C -0.0041 0.66023 0.30689 0.0
C378 C 0.92616 0.57456 0.21354 0.0
C379 C 0.90475 0.60312 0.19609 0.0
C380 C 0.93663 0.58818 0.23927 0.0
C381 C 0.92558 0.63047 0.24803 0.0
C382 C 0.90363 0.65858 0.23064 0.0
C383 C 0.89346 0.64515 0.20509 0.0
H384 H 0.3893 0.39819 0.82785 0.0
H385 H 0.4472 0.52614 0.82372 0.0
H386 H 0.42659 0.37723 0.78718 0.0
H387 H 0.48412 0.50552 0.78267 0.0
H388 H 0.56094 0.44201 0.71352 0.0
H389 H 0.53777 0.45753 0.75909 0.0
H390 H 0.41223 0.40078 0.74224 0.0
H391 H 0.43487 0.38533 0.69755 0.0
C392 C 0.41032 0.42168 0.81831 0.0
C393 C 0.41482 0.46395 0.82869 0.0
C394 C 0.43167 0.40975 0.79505 0.0
C395 C 0.45768 0.44001 0.78146 0.0
C396 C 0.46448 0.48142 0.79274 0.0
C397 C 0.44329 0.49326 0.81621 0.0
C398 C 0.52852 0.43274 0.71968 0.0
C399 C 0.49997 0.41211 0.7019 0.0
C400 C 0.51525 0.44166 0.74572 0.0
C401 C 0.47339 0.42979 0.75437 0.0
C402 C 0.44507 0.40933 0.73648 0.0
C403 C 0.45811 0.40067 0.71068 0.0
H404 H 0.66857 0.83541 0.29726 0.0
H405 H 0.6675 0.95773 0.34007 0.0
H406 H 0.68937 0.87341 0.25724 0.0
H407 H 0.68681 -0.00382 0.29949 0.0
H408 H 0.76554 0.04009 0.22573 0.0
H409 H 0.74619 0.00532 0.26742 0.0
H410 H 0.65442 0.92297 0.22624 0.0
H411 H 0.67422 0.95708 0.18456 0.0
C412 C 0.67329 0.87035 0.29829 0.0
C413 C 0.66641 0.89349 0.322 0.0
C414 C 0.68456 0.89226 0.27516 0.0
C415 C 0.68917 0.93789 0.2751 0.0
C416 C 0.68358 0.96099 0.29892 0.0
C417 C 0.67224 0.93902 0.32212 0.0
C418 C 0.7408 0.01498 0.22562 0.0
C419 C 0.72152 0.00125 0.2018 0.0
C420 C 0.72973 -0.00493 0.24953 0.0
C421 C 0.69915 0.96106 0.25009 0.0
C422 C 0.67877 0.94847 0.22639 0.0
C423 C 0.68986 0.96829 0.20252 0.0
H424 H 0.02458 0.83302 0.27111 0.0
H425 H 0.93823 0.91031 0.32006 0.0
H426 H -0.00734 0.86611 0.23157 0.0
H427 H 0.90699 0.94337 0.2808 0.0
H428 H 0.82498 0.95231 0.20666 0.0
H429 H 0.86028 0.91874 0.2445 0.0
H430 H 0.98581 0.93764 0.20788 0.0
H431 H 0.95009 0.97037 0.16938 0.0
C432 C -0.00089 0.85726 0.27347 0.0
C433 C 0.98383 0.86882 0.29875 0.0
C434 C 0.98097 0.8763 0.25083 0.0
C435 C 0.94706 0.90705 0.25308 0.0
C436 C 0.93254 0.91922 0.27839 0.0
C437 C 0.95068 0.90038 0.30092 0.0
C438 C 0.86005 0.94879 0.20644 0.0
C439 C 0.88473 0.96386 0.18493 0.0
C440 C 0.88034 0.93002 0.2283 0.0
C441 C 0.92587 0.92579 0.22926 0.0
C442 C 0.95065 0.94027 0.20763 0.0
C443 C 0.93027 0.95934 0.18572 0.0
H444 H 0.14902 0.51579 0.80354 0.0
H445 H 0.25857 0.42716 0.80798 0.0
H446 H 0.12746 0.48281 0.7616 0.0
H447 H 0.23717 0.39458 0.76594 0.0
H448 H 0.14853 0.31146 0.71188 0.0
H449 H 0.1764 0.3483 0.75093 0.0
H450 H 0.15011 0.4733 0.71491 0.0
H451 H 0.12254 0.43637 0.67551 0.0
C452 C 0.16878 0.48961 0.79545 0.0
C453 C 0.20534 0.47394 0.80922 0.0
C454 C 0.15653 0.47087 0.77134 0.0
C455 C 0.18047 0.43592 0.76053 0.0
C456 C 0.21771 0.42106 0.77394 0.0
C457 C 0.23008 0.43991 0.79797 0.0
C458 C 0.14937 0.34677 0.71197 0.0
C459 C 0.1333 0.3709 0.69042 0.0
C460 C 0.16533 0.36792 0.73444 0.0
C461 C 0.16549 0.41373 0.73601 0.0
C462 C 0.14993 0.43794 0.7144 0.0
C463 C 0.1341 0.41677 0.69184 0.0
H464 H 0.67225 0.6992 0.31239 0.0
H465 H 0.57582 0.77825 0.27249 0.0
H466 H 0.70555 0.68136 0.27002 0.0
H467 H 0.60921 0.75966 0.22986 0.0
H468 H 0.66117 0.66742 0.16057 0.0
H469 H 0.62377 0.68884 0.20104 0.0
H470 H 0.74591 0.72877 0.23524 0.0
H471 H 0.78346 0.70912 0.19476 0.0
C472 C 0.65777 0.71235 0.29457 0.0
C473 C 0.62132 0.74016 0.29583 0.0
C474 C 0.6771 0.70236 0.27033 0.0
C475 C 0.66012 0.71943 0.24676 0.0
C476 C 0.62283 0.74605 0.2478 0.0
C477 C 0.6038 0.75665 0.27217 0.0
C478 C 0.68024 0.68137 0.1764 0.0
C479 C 0.7258 0.68569 0.17419 0.0
C480 C 0.65863 0.69358 0.19965 0.0
C481 C 0.68208 0.70986 0.22132 0.0
C482 C 0.72719 0.71553 0.21895 0.0
C483 C 0.74872 0.70399 0.19564 0.0
H484 H 0.46661 0.1134 0.81036 0.0
H485 H 0.32955 0.14052 0.80019 0.0
H486 H 0.48123 0.14417 0.76658 0.0
H487 H 0.3442 0.17037 0.75627 0.0
H488 H 0.39225 0.18147 0.66807 0.0
H489 H 0.3782 0.14261 0.70971 0.0
H490 H 0.46953 0.22658 0.74986 0.0
H491 H 0.48283 0.26568 0.70855 0.0
C492 C 0.4396 0.12526 0.7986 0.0
C493 C 0.39701 0.12483 0.80869 0.0
C494 C 0.44798 0.14296 0.77367 0.0
C495 C 0.4138 0.15957 0.75819 0.0
C496 C 0.37102 0.15751 0.76781 0.0
C497 C 0.36274 0.14069 0.79295 0.0
C498 C 0.40929 0.19134 0.68584 0.0
C499 C 0.43831 0.22663 0.68527 0.0
C500 C 0.40124 0.16932 0.70955 0.0
C501 C 0.42299 0.1816 0.73284 0.0
C502 C 0.45264 0.21632 0.7321 0.0
C503 C 0.45993 0.23888 0.70859 0.0
H504 H 0.89185 0.22119 0.66104 0.0
H505 H 0.88838 0.24249 0.57662 0.0
H506 H 0.8133 0.23149 0.66318 0.0
H507 H 0.81019 0.25491 0.57898 0.0
H508 H 0.66454 0.24773 0.58822 0.0
H509 H 0.73991 0.22232 0.58726 0.0
H510 H 0.76586 0.29424 0.65919 0.0
H511 H 0.69052 0.31911 0.66026 0.0
C512 C 0.87426 0.22748 0.64288 0.0
C513 C 0.89639 0.23139 0.61868 0.0
C514 C 0.82933 0.2339 0.64417 0.0
C515 C 0.8056 0.2445 0.62131 0.0
C516 C 0.82746 0.24652 0.59693 0.0
C517 C 0.87236 0.23995 0.59563 0.0
C518 C 0.68641 0.25797 0.60383 0.0
C519 C 0.67182 0.28563 0.62422 0.0
C520 C 0.72951 0.24343 0.60329 0.0
C521 C 0.75888 0.25638 0.62309 0.0
C522 C 0.74389 0.28308 0.64386 0.0
C523 C 0.70078 0.29746 0.64445 0.0
H524 H 0.83805 0.40929 0.09005 0.0
H525 H 0.73093 0.44142 0.14213 0.0
H526 H 0.81497 0.33364 0.08922 0.0
H527 H 0.70833 0.36478 0.14169 0.0
H528 H 0.73106 0.21276 0.15746 0.0
H529 H 0.73956 0.2921 0.15741 0.0
H530 H 0.752 0.29007 0.07236 0.0
H531 H 0.74332 0.21097 0.07236 0.0
C532 C 0.80921 0.40033 0.10107 0.0
C533 C 0.78609 0.43151 0.11594 0.0
C534 C 0.79601 0.35695 0.10058 0.0
C535 C 0.75955 0.34354 0.11512 0.0
C536 C 0.73659 0.37439 0.13032 0.0
C537 C 0.74965 0.41811 0.13065 0.0
C538 C 0.73454 0.22944 0.13872 0.0
C539 C 0.7373 0.20572 0.11494 0.0
C540 C 0.73938 0.27478 0.13871 0.0
C541 C 0.7471 0.29699 0.11492 0.0
C542 C 0.74695 0.27355 0.09102 0.0
C543 C 0.74207 0.22836 0.09102 0.0
H544 H 0.40402 0.773 0.4188 0.0
H545 H 0.41947 0.80988 0.33708 0.0
H546 H 0.32798 0.79546 0.41739 0.0
H547 H 0.34373 0.83443 0.33577 0.0
H548 H 0.19331 0.82527 0.33731 0.0
H549 H 0.27112 0.80918 0.33603 0.0
H550 H 0.28407 0.85848 0.41592 0.0
H551 H 0.20583 0.87224 0.41741 0.0
C552 C 0.39097 0.78617 0.40058 0.0
C553 C 0.41722 0.78974 0.37805 0.0
C554 C 0.34762 0.79951 0.39979 0.0
C555 C 0.32986 0.81742 0.37656 0.0
C556 C 0.35622 0.82046 0.3539 0.0
C557 C 0.39948 0.80644 0.3546 0.0
C558 C 0.21319 0.83342 0.35431 0.0
C559 C 0.19403 0.84975 0.37748 0.0
C560 C 0.25769 0.82426 0.35363 0.0
C561 C 0.28375 0.83185 0.37604 0.0
C562 C 0.26474 0.85104 0.39859 0.0
C563 C 0.22017 0.85944 0.3994 0.0
H564 H 0.37922 0.89832 0.89486 0.0
H565 H 0.25767 0.92217 0.8545 0.0
H566 H 0.36603 0.81948 0.89252 0.0
H567 H 0.24414 0.84339 0.85256 0.0
H568 H 0.21944 0.7055 0.89283 0.0
H569 H 0.23235 0.78442 0.89103 0.0
H570 H 0.35641 0.76112 0.85336 0.0
H571 H 0.34319 0.68229 0.85475 0.0
C572 C 0.34982 0.88655 0.88545 0.0
C573 C 0.31948 0.91595 0.87478 0.0
C574 C 0.34239 0.84169 0.884 0.0
C575 C 0.30412 0.82573 0.87236 0.0
C576 C 0.27381 0.85513 0.86167 0.0
C577 C 0.28164 0.89995 0.86265 0.0
C578 C 0.24923 0.71743 0.88399 0.0
C579 C 0.2803 0.68818 0.87385 0.0
C580 C 0.25651 0.76234 0.88287 0.0
C581 C 0.29534 0.77848 0.87209 0.0
C582 C 0.3263 0.74924 0.86182 0.0
C583 C 0.31865 0.70439 0.86248 0.0
H584 H 0.40693 0.28584 0.56745 0.0
H585 H 0.37095 0.42104 0.57724 0.0
H586 H 0.33258 0.26819 0.55534 0.0
H587 H 0.29699 0.40446 0.56296 0.0
H588 H 0.18195 0.34051 0.60822 0.0
H589 H 0.24901 0.3722 0.59245 0.0
H590 H 0.26298 0.26659 0.53589 0.0
H591 H 0.19549 0.23421 0.55284 0.0
C592 C 0.38354 0.31219 0.56542 0.0
C593 C 0.39394 0.35449 0.57382 0.0
C594 C 0.34077 0.30218 0.55836 0.0
C595 C 0.30821 0.33468 0.55921 0.0
C596 C 0.32085 0.37836 0.56317 0.0
C597 C 0.36322 0.38803 0.5711 0.0
C598 C 0.19877 0.32497 0.59183 0.0
C599 C 0.18426 0.28512 0.58174 0.0
C600 C 0.23712 0.34328 0.5825 0.0
C601 C 0.26193 0.32186 0.5629 0.0
C602 C 0.24505 0.28364 0.55121 0.0
C603 C 0.20646 0.26521 0.56073 0.0
H604 H 0.79149 0.70121 0.05876 0.0
H605 H 0.92768 0.72808 0.07065 0.0
H606 H 0.77937 0.77625 0.04544 0.0
H607 H 0.91678 0.80264 0.0551 0.0
H608 H 0.8567 0.92037 0.10111 0.0
H609 H 0.88674 0.85308 0.084 0.0
H610 H 0.78232 0.84595 0.02658 0.0
H611 H 0.75157 0.91365 0.04492 0.0
C612 C 0.8193 0.72267 0.05692 0.0
C613 C 0.86018 0.70972 0.06632 0.0
C614 C 0.81251 0.76584 0.04914 0.0
C615 C 0.84684 0.79621 0.0503 0.0
C616 C 0.88928 0.78061 0.0551 0.0
C617 C 0.89571 0.7379 0.0638 0.0
C618 C 0.84119 0.9051 0.0842 0.0
C619 C 0.80194 0.92139 0.07437 0.0
C620 C 0.85856 0.86658 0.07409 0.0
C621 C 0.83667 0.84336 0.05402 0.0
C622 C 0.79959 0.86251 0.04233 0.0
C623 C 0.78209 0.90126 0.05263 0.0
H624 H 0.70478 0.83704 0.42908 0.0
H625 H 0.70662 0.69733 0.43856 0.0
H626 H 0.77786 0.84152 0.4471 0.0
H627 H 0.77932 0.70143 0.45802 0.0
H628 H 0.90847 0.72899 0.40987 0.0
H629 H 0.83777 0.71277 0.42834 0.0
H630 H 0.84175 0.83295 0.47352 0.0
H631 H 0.91302 0.84914 0.45423 0.0
C632 C 0.7201 0.80761 0.43653 0.0
C633 C 0.70102 0.76687 0.43219 0.0
C634 C 0.76197 0.81002 0.44707 0.0
C635 C 0.78512 0.77155 0.45326 0.0
C636 C 0.76281 0.73149 0.45277 0.0
C637 C 0.72125 0.72907 0.44175 0.0
C638 C 0.89511 0.75067 0.42481 0.0
C639 C 0.91545 0.79025 0.43062 0.0
C640 C 0.85454 0.74141 0.43561 0.0
C641 C 0.83341 0.77217 0.452 0.0
C642 C 0.85681 0.80903 0.4606 0.0
C643 C 0.89762 0.81821 0.44975 0.0
H644 H 0.37509 0.19602 0.95516 0.0
H645 H 0.24336 0.2043 0.92647 0.0
H646 H 0.36792 0.26858 0.97508 0.0
H647 H 0.23601 0.27664 0.94553 0.0
H648 H 0.23046 0.41041 0.95534 0.0
H649 H 0.23758 0.33791 0.97508 0.0
H650 H 0.36982 0.3301 0.94599 0.0
H651 H 0.36248 0.40234 0.92709 0.0
C652 C 0.34385 0.21253 0.95442 0.0
C653 C 0.30974 0.1952 0.93936 0.0
C654 C 0.33978 0.25413 0.96563 0.0
C655 C 0.30187 0.27905 0.96128 0.0
C656 C 0.26572 0.25866 0.94941 0.0
C657 C 0.26981 0.21712 0.93834 0.0
C658 C 0.26178 0.39403 0.95473 0.0
C659 C 0.29597 0.41135 0.93978 0.0
C660 C 0.26581 0.35244 0.96581 0.0
C661 C 0.30378 0.32756 0.96146 0.0
C662 C 0.34004 0.34803 0.94984 0.0
C663 C 0.33597 0.38955 0.93888 0.0
loop_
_geom_bond_atom_site_label_1
_geom_bond_atom_site_label_2
_geom_bond_distance
_geom_bond_site_symmetry_2
_ccdc_geom_bond_type
Co0 N4 2.148 . S
Co0 N10 2.128 . S
Co0 N20 2.194 . S
Co0 O25 2.351 . S
Co0 O26 2.155 . S
Co0 O27 2.096 . S
C1 N4 1.301 . S
C1 N5 1.328 . S
C1 H6 0.930 . S
C2 C3 1.333 . S
C2 N4 1.317 . S
C2 H7 0.930 . S
C3 C2 1.333 . S
C3 N5 1.350 . S
C3 H29 0.931 . S
N4 Co0 2.148 . S
N4 C1 1.301 . S
N4 C2 1.317 . S
N5 C1 1.328 . S
N5 C3 1.350 . S
H6 C1 0.930 . S
H7 C2 0.930 . S
C8 O9 1.224 . S
C8 O27 1.247 . S
O9 C8 1.224 . S
N10 Co0 2.128 . S
N10 C11 1.355 . S
N10 C13 1.311 . S
C11 N10 1.355 . S
C11 C12 1.363 . S
C11 H23 0.929 . S
C12 C11 1.363 . S
C12 N14 1.375 . S
C12 H30 0.931 . S
C13 N10 1.311 . S
C13 N14 1.347 . S
C13 H24 0.929 . S
N14 C12 1.375 . S
N14 C13 1.347 . S
C15 C18 1.365 1_455 S
C15 N20 1.328 . S
C15 H21 0.929 . S
C16 C17 1.362 . S
C16 C19 1.378 1_655 S
C16 H31 0.929 . S
C17 C16 1.362 . S
C17 C18 1.366 . S
C18 C15 1.365 1_655 S
C18 C17 1.366 . S
C18 H32 0.930 . S
C19 C16 1.378 1_455 S
C19 N20 1.315 . S
C19 H22 0.930 . S
N20 Co0 2.194 . S
N20 C15 1.328 . S
N20 C19 1.315 . S
H21 C15 0.929 . S
H22 C19 0.930 . S
H23 C11 0.929 . S
H24 C13 0.929 . S
O25 Co0 2.351 . S
O25 C28 1.244 . S
O26 Co0 2.155 . S
O26 C28 1.240 . S
O27 Co0 2.096 . S
O27 C8 1.247 . S
C28 O25 1.244 . S
C28 O26 1.240 . S
H29 C3 0.931 . S
H30 C12 0.931 . S
H31 C16 0.929 . S
H32 C18 0.930 . S
Co33 N37 2.148 . S
Co33 N43 2.128 . S
Co33 N53 2.194 . S
Co33 O58 2.351 . S
Co33 O59 2.155 . S
Co33 O60 2.096 . S
C34 N37 1.301 . S
C34 N38 1.328 . S
C34 H39 0.930 . S
C35 C36 1.333 . S
C35 N37 1.317 . S
C35 H40 0.930 . S
C36 C35 1.333 . S
C36 N38 1.350 . S
C36 H62 0.931 . S
N37 Co33 2.148 . S
N37 C34 1.301 . S
N37 C35 1.317 . S
N38 C34 1.328 . S
N38 C36 1.350 . S
H39 C34 0.930 . S
H40 C35 0.930 . S
C41 O42 1.224 . S
C41 O60 1.247 . S
O42 C41 1.224 . S
N43 Co33 2.128 . S
N43 C44 1.355 . S
N43 C46 1.311 . S
C44 N43 1.355 . S
C44 C45 1.363 . S
C44 H56 0.929 . S
C45 C44 1.363 . S
C45 N47 1.375 . S
C45 H63 0.931 . S
C46 N43 1.311 . S
C46 N47 1.347 . S
C46 H57 0.929 . S
N47 C45 1.375 . S
N47 C46 1.347 . S
C48 C51 1.365 . S
C48 N53 1.328 . S
C48 H54 0.929 . S
C49 C50 1.362 . S
C49 C52 1.378 . S
C49 H64 0.929 . S
C50 C49 1.362 . S
C50 C51 1.366 . S
C51 C48 1.365 . S
C51 C50 1.366 . S
C51 H65 0.930 . S
C52 C49 1.378 . S
C52 N53 1.315 . S
C52 H55 0.930 . S
N53 Co33 2.194 . S
N53 C48 1.328 . S
N53 C52 1.315 . S
H54 C48 0.929 . S
H55 C52 0.930 . S
H56 C44 0.929 . S
H57 C46 0.929 . S
O58 Co33 2.351 . S
O58 C61 1.244 . S
O59 Co33 2.155 . S
O59 C61 1.240 . S
O60 Co33 2.096 . S
O60 C41 1.247 . S
C61 O58 1.244 . S
C61 O59 1.240 . S
H62 C36 0.931 . S
H63 C45 0.931 . S
H64 C49 0.929 . S
H65 C51 0.930 . S
Co66 N70 2.148 . S
Co66 N76 2.128 . S
Co66 N86 2.194 . S
Co66 O91 2.351 . S
Co66 O92 2.155 . S
Co66 O93 2.096 . S
C67 N70 1.301 . S
C67 N71 1.328 . S
C67 H72 0.930 . S
C68 C69 1.333 . S
C68 N70 1.317 . S
C68 H73 0.930 . S
C69 C68 1.333 . S
C69 N71 1.350 . S
C69 H95 0.931 . S
N70 Co66 2.148 . S
N70 C67 1.301 . S
N70 C68 1.317 . S
N71 C67 1.328 . S
N71 C69 1.350 . S
H72 C67 0.930 . S
H73 C68 0.930 . S
C74 O75 1.224 . S
C74 O93 1.247 . S
O75 C74 1.224 . S
N76 Co66 2.128 . S
N76 C77 1.355 . S
N76 C79 1.311 . S
C77 N76 1.355 . S
C77 C78 1.363 . S
C77 H89 0.929 . S
C78 C77 1.363 . S
C78 N80 1.375 . S
C78 H96 0.931 . S
C79 N76 1.311 . S
C79 N80 1.347 . S
C79 H90 0.929 . S
N80 C78 1.375 . S
N80 C79 1.347 . S
C81 C84 1.365 . S
C81 N86 1.328 . S
C81 H87 0.929 . S
C82 C83 1.362 . S
C82 C85 1.378 . S
C82 H97 0.929 . S
C83 C82 1.362 . S
C83 C84 1.366 . S
C84 C81 1.365 . S
C84 C83 1.366 . S
C84 H98 0.930 . S
C85 C82 1.378 . S
C85 N86 1.315 . S
C85 H88 0.930 . S
N86 Co66 2.194 . S
N86 C81 1.328 . S
N86 C85 1.315 . S
H87 C81 0.929 . S
H88 C85 0.930 . S
H89 C77 0.929 . S
H90 C79 0.929 . S
O91 Co66 2.351 . S
O91 C94 1.244 . S
O92 Co66 2.155 . S
O92 C94 1.240 . S
O93 Co66 2.096 . S
O93 C74 1.247 . S
C94 O91 1.244 . S
C94 O92 1.240 . S
H95 C69 0.931 . S
H96 C78 0.931 . S
H97 C82 0.929 . S
H98 C84 0.930 . S
Co99 N103 2.148 . S
Co99 N109 2.128 1_545 S
Co99 N119 2.197 . S
Co99 O124 2.350 1_545 S
Co99 O125 2.151 1_545 S
Co99 O126 2.094 1_545 S
C100 N103 1.301 . S
C100 N104 1.328 . S
C100 H105 0.930 . S
C101 C102 1.333 . S
C101 N103 1.317 . S
C101 H106 0.928 1_545 S
C102 C101 1.333 . S
C102 N104 1.350 . S
C102 H128 0.931 . S
N103 Co99 2.148 . S
N103 C100 1.301 . S
N103 C101 1.317 . S
N104 C100 1.328 . S
N104 C102 1.350 . S
H105 C100 0.930 . S
H106 C101 0.928 1_565 S
C107 O108 1.207 1_565 S
C107 O126 1.260 . S
O108 C107 1.207 1_545 S
N109 Co99 2.128 1_565 S
N109 C110 1.355 1_565 S
N109 C112 1.310 . S
C110 N109 1.355 1_545 S
C110 C111 1.363 . S
C110 H122 0.929 . S
C111 C110 1.363 . S
C111 N113 1.375 1_545 S
C111 H129 0.931 . S
C112 N109 1.310 . S
C112 N113 1.347 . S
C112 H123 0.929 . S
N113 C111 1.375 1_565 S
N113 C112 1.347 . S
C114 C117 1.365 . S
C114 N119 1.328 . S
C114 H120 0.929 . S
C115 C116 1.362 . S
C115 C118 1.378 . S
C115 H130 0.929 . S
C116 C115 1.362 . S
C116 C117 1.366 . S
C117 C114 1.365 . S
C117 C116 1.366 . S
C117 H131 0.930 . S
C118 C115 1.378 . S
C118 N119 1.315 . S
C118 H121 0.930 . S
N119 Co99 2.197 . S
N119 C114 1.328 . S
N119 C118 1.315 . S
H120 C114 0.929 . S
H121 C118 0.930 . S
H122 C110 0.929 . S
H123 C112 0.929 . S
O124 Co99 2.350 1_565 S
O124 C127 1.244 . S
O125 Co99 2.151 1_565 S
O125 C127 1.240 . S
O126 Co99 2.094 1_565 S
O126 C107 1.260 . S
C127 O124 1.244 . S
C127 O125 1.240 . S
H128 C102 0.931 . S
H129 C111 0.931 . S
H130 C115 0.929 . S
H131 C117 0.930 . S
Co132 N136 2.148 . S
Co132 N142 2.128 1_455 S
Co132 N152 2.197 . S
Co132 O157 2.350 1_455 S
Co132 O158 2.152 1_455 S
Co132 O159 2.094 1_455 S
C133 N136 1.301 . S
C133 N137 1.328 . S
C133 H138 0.930 . S
C134 C135 1.333 . S
C134 N136 1.317 . S
C134 H139 0.928 1_455 S
C135 C134 1.333 . S
C135 N137 1.350 . S
C135 H161 0.931 . S
N136 Co132 2.148 . S
N136 C133 1.301 . S
N136 C134 1.317 . S
N137 C133 1.328 . S
N137 C135 1.350 . S
H138 C133 0.930 . S
H139 C134 0.928 1_655 S
C140 O141 1.206 1_655 S
C140 O159 1.260 . S
O141 C140 1.206 1_455 S
N142 Co132 2.128 1_655 S
N142 C143 1.355 1_655 S
N142 C145 1.310 . S
C143 N142 1.355 1_455 S
C143 C144 1.363 . S
C143 H155 0.929 . S
C144 C143 1.363 . S
C144 N146 1.375 1_455 S
C144 H162 0.931 . S
C145 N142 1.310 . S
C145 N146 1.347 . S
C145 H156 0.929 . S
N146 C144 1.375 1_655 S
N146 C145 1.347 . S
C147 C150 1.365 . S
C147 N152 1.328 . S
C147 H153 0.929 . S
C148 C149 1.362 . S
C148 C151 1.378 . S
C148 H163 0.929 . S
C149 C148 1.362 . S
C149 C150 1.366 . S
C150 C147 1.365 . S
C150 C149 1.366 . S
C150 H164 0.930 . S
C151 C148 1.378 . S
C151 N152 1.315 . S
C151 H154 0.930 . S
N152 Co132 2.197 . S
N152 C147 1.328 . S
N152 C151 1.315 . S
H153 C147 0.929 . S
H154 C151 0.930 . S
H155 C143 0.929 . S
H156 C145 0.929 . S
O157 Co132 2.350 1_655 S
O157 C160 1.244 . S
O158 Co132 2.152 1_655 S
O158 C160 1.240 . S
O159 Co132 2.094 1_655 S
O159 C140 1.260 . S
C160 O157 1.244 . S
C160 O158 1.240 . S
H161 C135 0.931 . S
H162 C144 0.931 . S
H163 C148 0.929 . S
H164 C150 0.930 . S
Co165 N169 2.148 . S
Co165 N175 2.128 . S
Co165 N185 2.194 . S
Co165 O190 2.351 . S
Co165 O191 2.155 . S
Co165 O192 2.096 . S
C166 N169 1.301 . S
C166 N170 1.328 . S
C166 H171 0.930 . S
C167 C168 1.333 . S
C167 N169 1.317 . S
C167 H172 0.930 . S
C168 C167 1.333 . S
C168 N170 1.350 . S
C168 H194 0.931 . S
N169 Co165 2.148 . S
N169 C166 1.301 . S
N169 C167 1.317 . S
N170 C166 1.328 . S
N170 C168 1.350 . S
H171 C166 0.930 . S
H172 C167 0.930 . S
C173 O174 1.224 . S
C173 O192 1.247 . S
O174 C173 1.224 . S
N175 Co165 2.128 . S
N175 C176 1.355 . S
N175 C178 1.311 . S
C176 N175 1.355 . S
C176 C177 1.363 . S
C176 H188 0.929 . S
C177 C176 1.363 . S
C177 N179 1.375 . S
C177 H195 0.931 . S
C178 N175 1.311 . S
C178 N179 1.347 . S
C178 H189 0.929 . S
N179 C177 1.375 . S
N179 C178 1.347 . S
C180 C183 1.365 . S
C180 N185 1.328 . S
C180 H186 0.929 . S
C181 C182 1.362 . S
C181 C184 1.378 . S
C181 H196 0.929 . S
C182 C181 1.362 . S
C182 C183 1.366 . S
C183 C180 1.365 . S
C183 C182 1.366 . S
C183 H197 0.930 . S
C184 C181 1.378 . S
C184 N185 1.315 . S
C184 H187 0.930 . S
N185 Co165 2.194 . S
N185 C180 1.328 . S
N185 C184 1.315 . S
H186 C180 0.929 . S
H187 C184 0.930 . S
H188 C176 0.929 . S
H189 C178 0.929 . S
O190 Co165 2.351 . S
O190 C193 1.244 . S
O191 Co165 2.155 . S
O191 C193 1.240 . S
O192 Co165 2.096 . S
O192 C173 1.247 . S
C193 O190 1.244 . S
C193 O191 1.240 . S
H194 C168 0.931 . S
H195 C177 0.931 . S
H196 C181 0.929 . S
H197 C183 0.930 . S
Co198 N202 2.148 . S
Co198 N208 2.128 . S
Co198 N218 2.194 . S
Co198 O223 2.351 . S
Co198 O224 2.155 . S
Co198 O225 2.096 . S
C199 N202 1.301 . S
C199 N203 1.328 . S
C199 H204 0.930 . S
C200 C201 1.333 . S
C200 N202 1.317 . S
C200 H205 0.930 . S
C201 C200 1.333 . S
C201 N203 1.350 . S
C201 H227 0.931 . S
N202 Co198 2.148 . S
N202 C199 1.301 . S
N202 C200 1.317 . S
N203 C199 1.328 . S
N203 C201 1.350 . S
H204 C199 0.930 . S
H205 C200 0.930 . S
C206 O207 1.224 . S
C206 O225 1.247 . S
O207 C206 1.224 . S
N208 Co198 2.128 . S
N208 C209 1.355 . S
N208 C211 1.311 . S
C209 N208 1.355 . S
C209 C210 1.363 . S
C209 H221 0.929 . S
C210 C209 1.363 . S
C210 N212 1.375 . S
C210 H228 0.931 . S
C211 N208 1.311 . S
C211 N212 1.347 . S
C211 H222 0.929 . S
N212 C210 1.375 . S
N212 C211 1.347 . S
C213 C216 1.365 . S
C213 N218 1.328 . S
C213 H219 0.929 . S
C214 C215 1.362 . S
C214 C217 1.378 . S
C214 H229 0.929 . S
C215 C214 1.362 . S
C215 C216 1.366 . S
C216 C213 1.365 . S
C216 C215 1.366 . S
C216 H230 0.930 . S
C217 C214 1.378 . S
C217 N218 1.315 . S
C217 H220 0.930 . S
N218 Co198 2.194 . S
N218 C213 1.328 . S
N218 C217 1.315 . S
H219 C213 0.929 . S
H220 C217 0.930 . S
H221 C209 0.929 . S
H222 C211 0.929 . S
O223 Co198 2.351 . S
O223 C226 1.244 . S
O224 Co198 2.155 . S
O224 C226 1.240 . S
O225 Co198 2.096 . S
O225 C206 1.247 . S
C226 O223 1.244 . S
C226 O224 1.240 . S
H227 C201 0.931 . S
H228 C210 0.931 . S
H229 C214 0.929 . S
H230 C216 0.930 . S
Co231 N235 2.148 . S
Co231 N241 2.128 . S
Co231 N251 2.194 . S
Co231 O256 2.351 . S
Co231 O257 2.155 . S
Co231 O258 2.096 . S
C232 N235 1.301 . S
C232 N236 1.328 . S
C232 H237 0.930 . S
C233 C234 1.333 . S
C233 N235 1.317 . S
C233 H238 0.930 . S
C234 C233 1.333 . S
C234 N236 1.350 . S
C234 H260 0.931 . S
N235 Co231 2.148 . S
N235 C232 1.301 . S
N235 C233 1.317 . S
N236 C232 1.328 . S
N236 C234 1.350 . S
H237 C232 0.930 . S
H238 C233 0.930 . S
C239 O240 1.224 . S
C239 O258 1.247 . S
O240 C239 1.224 . S
N241 Co231 2.128 . S
N241 C242 1.355 . S
N241 C244 1.311 . S
C242 N241 1.355 . S
C242 C243 1.363 . S
C242 H254 0.929 . S
C243 C242 1.363 . S
C243 N245 1.375 . S
C243 H261 0.931 . S
C244 N241 1.311 . S
C244 N245 1.347 . S
C244 H255 0.929 . S
N245 C243 1.375 . S
N245 C244 1.347 . S
C246 C249 1.365 1_545 S
C246 N251 1.328 . S
C246 H252 0.929 . S
C247 C248 1.362 . S
C247 C250 1.378 1_565 S
C247 H262 0.929 . S
C248 C247 1.362 . S
C248 C249 1.366 . S
C249 C246 1.365 1_565 S
C249 C248 1.366 . S
C249 H263 0.930 . S
C250 C247 1.378 1_545 S
C250 N251 1.315 . S
C250 H253 0.930 . S
N251 Co231 2.194 . S
N251 C246 1.328 . S
N251 C250 1.315 . S
H252 C246 0.929 . S
H253 C250 0.930 . S
H254 C242 0.929 . S
H255 C244 0.929 . S
O256 Co231 2.351 . S
O256 C259 1.244 . S
O257 Co231 2.155 . S
O257 C259 1.240 . S
O258 Co231 2.096 . S
O258 C239 1.247 . S
C259 O256 1.244 . S
C259 O257 1.240 . S
H260 C234 0.931 . S
H261 C243 0.931 . S
H262 C247 0.929 . S
H263 C249 0.930 . S
H264 C272 0.950 . S
H265 C277 0.950 . S
H266 C274 0.950 1_655 S
H267 C276 0.950 . S
H268 C278 0.950 . S
H269 C280 0.950 . S
H270 C282 0.950 . S
H271 C283 0.950 . S
C272 H264 0.950 . S
C272 C273 1.386 1_655 S
C272 C274 1.391 1_665 S
C273 C272 1.386 1_455 S
C273 C277 1.393 . S
C274 H266 0.950 1_455 S
C274 C272 1.391 1_445 S
C274 C275 1.400 . S
C275 C274 1.400 . S
C275 C276 1.398 . S
C275 C281 1.491 . S
C276 H267 0.950 . S
C276 C275 1.398 . S
C276 C277 1.391 1_545 S
C277 H265 0.950 . S
C277 C273 1.393 . S
C277 C276 1.391 1_565 S
C278 H268 0.950 . S
C278 C279 1.386 . S
C278 C280 1.391 . S
C279 C278 1.386 . S
C279 C283 1.393 . S
C280 H269 0.950 . S
C280 C278 1.391 . S
C280 C281 1.400 . S
C281 C275 1.491 . S
C281 C280 1.400 . S
C281 C282 1.398 . S
C282 H270 0.950 . S
C282 C281 1.398 . S
C282 C283 1.391 . S
C283 H271 0.950 . S
C283 C279 1.393 . S
C283 C282 1.391 . S
H284 C292 0.950 . S
H285 C297 0.950 1_655 S
H286 C294 0.950 1_556 S
H287 C296 0.950 . S
H288 C298 0.950 . S
H289 C300 0.950 1_554 S
H290 C302 0.950 . S
H291 C303 0.950 . S
C292 H284 0.950 . S
C292 C293 1.386 . S
C292 C294 1.391 1_655 S
C293 C292 1.386 . S
C293 C297 1.393 1_655 S
C294 H286 0.950 1_554 S
C294 C292 1.391 1_455 S
C294 C295 1.400 . S
C295 C294 1.400 . S
C295 C296 1.398 . S
C295 C301 1.491 1_554 S
C296 H287 0.950 . S
C296 C295 1.398 . S
C296 C297 1.390 . S
C297 H285 0.950 1_455 S
C297 C293 1.393 1_455 S
C297 C296 1.390 . S
C298 H288 0.950 . S
C298 C299 1.386 . S
C298 C300 1.391 . S
C299 C298 1.386 . S
C299 C303 1.393 . S
C300 H289 0.950 1_556 S
C300 C298 1.391 . S
C300 C301 1.400 . S
C301 C295 1.491 1_556 S
C301 C300 1.400 . S
C301 C302 1.398 . S
C302 H290 0.950 . S
C302 C301 1.398 . S
C302 C303 1.391 . S
C303 H291 0.950 . S
C303 C299 1.393 . S
C303 C302 1.391 . S
H304 C312 0.950 . S
H305 C317 0.950 . S
H306 C314 0.950 . S
H307 C316 0.950 . S
H308 C318 0.950 . S
H309 C320 0.950 . S
H310 C322 0.950 . S
H311 C323 0.950 . S
C312 H304 0.950 . S
C312 C313 1.386 . S
C312 C314 1.391 . S
C313 C312 1.386 . S
C313 C317 1.393 . S
C314 H306 0.950 . S
C314 C312 1.391 . S
C314 C315 1.400 . S
C315 C314 1.400 . S
C315 C316 1.398 . S
C315 C321 1.491 . S
C316 H307 0.950 . S
C316 C315 1.398 . S
C316 C317 1.391 . S
C317 H305 0.950 . S
C317 C313 1.393 . S
C317 C316 1.391 . S
C318 H308 0.950 . S
C318 C319 1.386 . S
C318 C320 1.391 . S
C319 C318 1.386 . S
C319 C323 1.393 . S
C320 H309 0.950 . S
C320 C318 1.391 . S
C320 C321 1.400 . S
C321 C315 1.491 . S
C321 C320 1.400 . S
C321 C322 1.398 . S
C322 H310 0.950 . S
C322 C321 1.398 . S
C322 C323 1.391 . S
C323 H311 0.950 . S
C323 C319 1.393 . S
C323 C322 1.391 . S
H324 C332 0.950 . S
H325 C337 0.950 . S
H326 C334 0.950 . S
H327 C336 0.950 . S
H328 C338 0.950 . S
H329 C340 0.950 1_565 S
H330 C342 0.950 . S
H331 C343 0.950 . S
C332 H324 0.950 . S
C332 C333 1.386 . S
C332 C334 1.391 . S
C333 C332 1.386 . S
C333 C337 1.393 . S
C334 H326 0.950 . S
C334 C332 1.391 . S
C334 C335 1.400 . S
C335 C334 1.400 . S
C335 C336 1.398 . S
C335 C341 1.491 1_556 S
C336 H327 0.950 . S
C336 C335 1.398 . S
C336 C337 1.391 . S
C337 H325 0.950 . S
C337 C333 1.393 . S
C337 C336 1.391 . S
C338 H328 0.950 . S
C338 C339 1.386 1_565 S
C338 C340 1.391 1_565 S
C339 C338 1.386 1_545 S
C339 C343 1.393 . S
C340 H329 0.950 1_545 S
C340 C338 1.391 1_545 S
C340 C341 1.400 . S
C341 C335 1.491 1_554 S
C341 C340 1.400 . S
C341 C342 1.398 . S
C342 H330 0.950 . S
C342 C341 1.398 . S
C342 C343 1.391 . S
C343 H331 0.950 . S
C343 C339 1.393 . S
C343 C342 1.391 . S
H344 C352 0.950 . S
H345 C357 0.950 . S
H346 C354 0.950 . S
H347 C356 0.950 . S
H348 C358 0.950 . S
H349 C360 0.950 . S
H350 C362 0.950 . S
H351 C363 0.950 . S
C352 H344 0.950 . S
C352 C353 1.386 . S
C352 C354 1.391 . S
C353 C352 1.386 . S
C353 C357 1.393 . S
C354 H346 0.950 . S
C354 C352 1.391 . S
C354 C355 1.400 . S
C355 C354 1.400 . S
C355 C356 1.398 . S
C355 C361 1.491 . S
C356 H347 0.950 . S
C356 C355 1.398 . S
C356 C357 1.391 . S
C357 H345 0.950 . S
C357 C353 1.393 . S
C357 C356 1.391 . S
C358 H348 0.950 . S
C358 C359 1.386 . S
C358 C360 1.391 . S
C359 C358 1.386 . S
C359 C363 1.393 . S
C360 H349 0.950 . S
C360 C358 1.391 . S
C360 C361 1.400 . S
C361 C355 1.491 . S
C361 C360 1.400 . S
C361 C362 1.398 . S
C362 H350 0.950 . S
C362 C361 1.398 . S
C362 C363 1.391 . S
C363 H351 0.950 . S
C363 C359 1.393 . S
C363 C362 1.391 . S
H364 C372 0.950 1_455 S
H365 C377 0.950 . S
H366 C374 0.950 . S
H367 C376 0.950 . S
H368 C378 0.950 . S
H369 C380 0.950 . S
H370 C382 0.950 . S
H371 C383 0.950 . S
C372 H364 0.950 1_655 S
C372 C373 1.386 . S
C372 C374 1.391 . S
C373 C372 1.386 . S
C373 C377 1.393 . S
C374 H366 0.950 . S
C374 C372 1.391 . S
C374 C375 1.400 . S
C375 C374 1.400 . S
C375 C376 1.398 . S
C375 C381 1.491 . S
C376 H367 0.950 . S
C376 C375 1.398 . S
C376 C377 1.391 . S
C377 H365 0.950 . S
C377 C373 1.393 . S
C377 C376 1.391 . S
C378 H368 0.950 . S
C378 C379 1.386 . S
C378 C380 1.391 . S
C379 C378 1.386 . S
C379 C383 1.393 . S
C380 H369 0.950 . S
C380 C378 1.391 . S
C380 C381 1.400 . S
C381 C375 1.491 . S
C381 C380 1.400 . S
C381 C382 1.398 . S
C382 H370 0.950 . S
C382 C381 1.398 . S
C382 C383 1.391 . S
C383 H371 0.950 . S
C383 C379 1.393 . S
C383 C382 1.391 . S
H384 C392 0.950 . S
H385 C397 0.950 . S
H386 C394 0.950 . S
H387 C396 0.950 . S
H388 C398 0.950 . S
H389 C400 0.950 . S
H390 C402 0.950 . S
H391 C403 0.950 . S
C392 H384 0.950 . S
C392 C393 1.386 . S
C392 C394 1.391 . S
C393 C392 1.386 . S
C393 C397 1.393 . S
C394 H386 0.950 . S
C394 C392 1.391 . S
C394 C395 1.400 . S
C395 C394 1.400 . S
C395 C396 1.398 . S
C395 C401 1.491 . S
C396 H387 0.950 . S
C396 C395 1.398 . S
C396 C397 1.391 . S
C397 H385 0.950 . S
C397 C393 1.393 . S
C397 C396 1.391 . S
C398 H388 0.950 . S
C398 C399 1.386 . S
C398 C400 1.391 . S
C399 C398 1.386 . S
C399 C403 1.393 . S
C400 H389 0.950 . S
C400 C398 1.391 . S
C400 C401 1.400 . S
C401 C395 1.491 . S
C401 C400 1.400 . S
C401 C402 1.398 . S
C402 H390 0.950 . S
C402 C401 1.398 . S
C402 C403 1.391 . S
C403 H391 0.950 . S
C403 C399 1.393 . S
C403 C402 1.391 . S
H404 C412 0.950 . S
H405 C417 0.950 . S
H406 C414 0.950 . S
H407 C416 0.950 . S
H408 C418 0.950 . S
H409 C420 0.950 1_545 S
H410 C422 0.950 . S
H411 C423 0.950 . S
C412 H404 0.950 . S
C412 C413 1.386 . S
C412 C414 1.391 . S
C413 C412 1.386 . S
C413 C417 1.393 . S
C414 H406 0.950 . S
C414 C412 1.391 . S
C414 C415 1.400 . S
C415 C414 1.400 . S
C415 C416 1.398 . S
C415 C421 1.491 . S
C416 H407 0.950 . S
C416 C415 1.398 . S
C416 C417 1.391 . S
C417 H405 0.950 . S
C417 C413 1.393 . S
C417 C416 1.391 . S
C418 H408 0.950 . S
C418 C419 1.386 1_545 S
C418 C420 1.391 1_545 S
C419 C418 1.386 1_565 S
C419 C423 1.393 . S
C420 H409 0.950 1_565 S
C420 C418 1.391 1_565 S
C420 C421 1.400 . S
C421 C415 1.491 . S
C421 C420 1.400 . S
C421 C422 1.398 . S
C422 H410 0.950 . S
C422 C421 1.398 . S
C422 C423 1.391 . S
C423 H411 0.950 . S
C423 C419 1.393 . S
C423 C422 1.391 . S
H424 C432 0.950 . S
H425 C437 0.950 . S
H426 C434 0.950 . S
H427 C436 0.950 . S
H428 C438 0.950 . S
H429 C440 0.950 . S
H430 C442 0.950 1_545 S
H431 C443 0.950 . S
C432 H424 0.950 . S
C432 C433 1.386 1_455 S
C432 C434 1.391 1_455 S
C433 C432 1.386 1_655 S
C433 C437 1.393 . S
C434 H426 0.950 . S
C434 C432 1.391 1_655 S
C434 C435 1.400 . S
C435 C434 1.400 . S
C435 C436 1.398 . S
C435 C441 1.491 . S
C436 H427 0.950 . S
C436 C435 1.398 . S
C436 C437 1.391 . S
C437 H425 0.950 . S
C437 C433 1.393 . S
C437 C436 1.391 . S
C438 H428 0.950 . S
C438 C439 1.386 . S
C438 C440 1.391 . S
C439 C438 1.386 . S
C439 C443 1.393 1_565 S
C440 H429 0.950 . S
C440 C438 1.391 . S
C440 C441 1.400 . S
C441 C435 1.491 . S
C441 C440 1.400 . S
C441 C442 1.398 . S
C442 H430 0.950 1_565 S
C442 C441 1.398 . S
C442 C443 1.391 1_565 S
C443 H431 0.950 . S
C443 C439 1.393 1_545 S
C443 C442 1.391 1_545 S
H444 C452 0.950 . S
H445 C457 0.950 . S
H446 C454 0.950 . S
H447 C456 0.950 . S
H448 C458 0.950 . S
H449 C460 0.950 . S
H450 C462 0.950 . S
H451 C463 0.950 . S
C452 H444 0.950 . S
C452 C453 1.386 . S
C452 C454 1.391 . S
C453 C452 1.386 . S
C453 C457 1.393 . S
C454 H446 0.950 . S
C454 C452 1.391 . S
C454 C455 1.400 . S
C455 C454 1.400 . S
C455 C456 1.398 . S
C455 C461 1.491 . S
C456 H447 0.950 . S
C456 C455 1.398 . S
C456 C457 1.391 . S
C457 H445 0.950 . S
C457 C453 1.393 . S
C457 C456 1.391 . S
C458 H448 0.950 . S
C458 C459 1.386 . S
C458 C460 1.391 . S
C459 C458 1.386 . S
C459 C463 1.393 . S
C460 H449 0.950 . S
C460 C458 1.391 . S
C460 C461 1.400 . S
C461 C455 1.491 . S
C461 C460 1.400 . S
C461 C462 1.398 . S
C462 H450 0.950 . S
C462 C461 1.398 . S
C462 C463 1.391 . S
C463 H451 0.950 . S
C463 C459 1.393 . S
C463 C462 1.391 . S
H464 C472 0.950 . S
H465 C477 0.950 . S
H466 C474 0.950 . S
H467 C476 0.950 . S
H468 C478 0.950 . S
H469 C480 0.950 . S
H470 C482 0.950 . S
H471 C483 0.950 . S
C472 H464 0.950 . S
C472 C473 1.386 . S
C472 C474 1.391 . S
C473 C472 1.386 . S
C473 C477 1.393 . S
C474 H466 0.950 . S
C474 C472 1.391 . S
C474 C475 1.400 . S
C475 C474 1.400 . S
C475 C476 1.398 . S
C475 C481 1.491 . S
C476 H467 0.950 . S
C476 C475 1.398 . S
C476 C477 1.391 . S
C477 H465 0.950 . S
C477 C473 1.393 . S
C477 C476 1.391 . S
C478 H468 0.950 . S
C478 C479 1.386 . S
C478 C480 1.391 . S
C479 C478 1.386 . S
C479 C483 1.393 . S
C480 H469 0.950 . S
C480 C478 1.391 . S
C480 C481 1.400 . S
C481 C475 1.491 . S
C481 C480 1.400 . S
C481 C482 1.398 . S
C482 H470 0.950 . S
C482 C481 1.398 . S
C482 C483 1.391 . S
C483 H471 0.950 . S
C483 C479 1.393 . S
C483 C482 1.391 . S
H484 C492 0.950 . S
H485 C497 0.950 . S
H486 C494 0.950 . S
H487 C496 0.950 . S
H488 C498 0.950 . S
H489 C500 0.950 . S
H490 C502 0.950 . S
H491 C503 0.950 . S
C492 H484 0.950 . S
C492 C493 1.386 . S
C492 C494 1.391 . S
C493 C492 1.386 . S
C493 C497 1.393 . S
C494 H486 0.950 . S
C494 C492 1.391 . S
C494 C495 1.400 . S
C495 C494 1.400 . S
C495 C496 1.398 . S
C495 C501 1.491 . S
C496 H487 0.950 . S
C496 C495 1.398 . S
C496 C497 1.391 . S
C497 H485 0.950 . S
C497 C493 1.393 . S
C497 C496 1.391 . S
C498 H488 0.950 . S
C498 C499 1.386 . S
C498 C500 1.391 . S
C499 C498 1.386 . S
C499 C503 1.393 . S
C500 H489 0.950 . S
C500 C498 1.391 . S
C500 C501 1.400 . S
C501 C495 1.491 . S
C501 C500 1.400 . S
C501 C502 1.398 . S
C502 H490 0.950 . S
C502 C501 1.398 . S
C502 C503 1.391 . S
C503 H491 0.950 . S
C503 C499 1.393 . S
C503 C502 1.391 . S
H504 C512 0.950 . S
H505 C517 0.950 . S
H506 C514 0.950 . S
H507 C516 0.950 . S
H508 C518 0.950 . S
H509 C520 0.950 . S
H510 C522 0.950 . S
H511 C523 0.950 . S
C512 H504 0.950 . S
C512 C513 1.386 . S
C512 C514 1.391 . S
C513 C512 1.386 . S
C513 C517 1.393 . S
C514 H506 0.950 . S
C514 C512 1.391 . S
C514 C515 1.400 . S
C515 C514 1.400 . S
C515 C516 1.398 . S
C515 C521 1.491 . S
C516 H507 0.950 . S
C516 C515 1.398 . S
C516 C517 1.391 . S
C517 H505 0.950 . S
C517 C513 1.393 . S
C517 C516 1.391 . S
C518 H508 0.950 . S
C518 C519 1.386 . S
C518 C520 1.391 . S
C519 C518 1.386 . S
C519 C523 1.393 . S
C520 H509 0.950 . S
C520 C518 1.391 . S
C520 C521 1.400 . S
C521 C515 1.491 . S
C521 C520 1.400 . S
C521 C522 1.398 . S
C522 H510 0.950 . S
C522 C521 1.398 . S
C522 C523 1.391 . S
C523 H511 0.950 . S
C523 C519 1.393 . S
C523 C522 1.391 . S
H524 C532 0.950 . S
H525 C537 0.950 . S
H526 C534 0.950 . S
H527 C536 0.950 . S
H528 C538 0.950 . S
H529 C540 0.950 . S
H530 C542 0.950 . S
H531 C543 0.950 . S
C532 H524 0.950 . S
C532 C533 1.386 . S
C532 C534 1.391 . S
C533 C532 1.386 . S
C533 C537 1.393 . S
C534 H526 0.950 . S
C534 C532 1.391 . S
C534 C535 1.400 . S
C535 C534 1.400 . S
C535 C536 1.398 . S
C535 C541 1.491 . S
C536 H527 0.950 . S
C536 C535 1.398 . S
C536 C537 1.391 . S
C537 H525 0.950 . S
C537 C533 1.393 . S
C537 C536 1.391 . S
C538 H528 0.950 . S
C538 C539 1.386 . S
C538 C540 1.391 . S
C539 C538 1.386 . S
C539 C543 1.393 . S
C540 H529 0.950 . S
C540 C538 1.391 . S
C540 C541 1.400 . S
C541 C535 1.491 . S
C541 C540 1.400 . S
C541 C542 1.398 . S
C542 H530 0.950 . S
C542 C541 1.398 . S
C542 C543 1.391 . S
C543 H531 0.950 . S
C543 C539 1.393 . S
C543 C542 1.391 . S
H544 C552 0.950 . S
H545 C557 0.950 . S
H546 C554 0.950 . S
H547 C556 0.950 . S
H548 C558 0.950 . S
H549 C560 0.950 . S
H550 C562 0.950 . S
H551 C563 0.950 . S
C552 H544 0.950 . S
C552 C553 1.386 . S
C552 C554 1.391 . S
C553 C552 1.386 . S
C553 C557 1.393 . S
C554 H546 0.950 . S
C554 C552 1.391 . S
C554 C555 1.400 . S
C555 C554 1.400 . S
C555 C556 1.398 . S
C555 C561 1.491 . S
C556 H547 0.950 . S
C556 C555 1.398 . S
C556 C557 1.391 . S
C557 H545 0.950 . S
C557 C553 1.393 . S
C557 C556 1.391 . S
C558 H548 0.950 . S
C558 C559 1.386 . S
C558 C560 1.391 . S
C559 C558 1.386 . S
C559 C563 1.393 . S
C560 H549 0.950 . S
C560 C558 1.391 . S
C560 C561 1.400 . S
C561 C555 1.491 . S
C561 C560 1.400 . S
C561 C562 1.398 . S
C562 H550 0.950 . S
C562 C561 1.398 . S
C562 C563 1.391 . S
C563 H551 0.950 . S
C563 C559 1.393 . S
C563 C562 1.391 . S
H564 C572 0.950 . S
H565 C577 0.950 . S
H566 C574 0.950 . S
H567 C576 0.950 . S
H568 C578 0.950 . S
H569 C580 0.950 . S
H570 C582 0.950 . S
H571 C583 0.950 . S
C572 H564 0.950 . S
C572 C573 1.386 . S
C572 C574 1.391 . S
C573 C572 1.386 . S
C573 C577 1.393 . S
C574 H566 0.950 . S
C574 C572 1.391 . S
C574 C575 1.400 . S
C575 C574 1.400 . S
C575 C576 1.398 . S
C575 C581 1.491 . S
C576 H567 0.950 . S
C576 C575 1.398 . S
C576 C577 1.391 . S
C577 H565 0.950 . S
C577 C573 1.393 . S
C577 C576 1.391 . S
C578 H568 0.950 . S
C578 C579 1.386 . S
C578 C580 1.391 . S
C579 C578 1.386 . S
C579 C583 1.393 . S
C580 H569 0.950 . S
C580 C578 1.391 . S
C580 C581 1.400 . S
C581 C575 1.491 . S
C581 C580 1.400 . S
C581 C582 1.398 . S
C582 H570 0.950 . S
C582 C581 1.398 . S
C582 C583 1.391 . S
C583 H571 0.950 . S
C583 C579 1.393 . S
C583 C582 1.391 . S
H584 C592 0.950 . S
H585 C597 0.950 . S
H586 C594 0.950 . S
H587 C596 0.950 . S
H588 C598 0.950 . S
H589 C600 0.950 . S
H590 C602 0.950 . S
H591 C603 0.950 . S
C592 H584 0.950 . S
C592 C593 1.386 . S
C592 C594 1.391 . S
C593 C592 1.386 . S
C593 C597 1.393 . S
C594 H586 0.950 . S
C594 C592 1.391 . S
C594 C595 1.400 . S
C595 C594 1.400 . S
C595 C596 1.398 . S
C595 C601 1.491 . S
C596 H587 0.950 . S
C596 C595 1.398 . S
C596 C597 1.391 . S
C597 H585 0.950 . S
C597 C593 1.393 . S
C597 C596 1.391 . S
C598 H588 0.950 . S
C598 C599 1.386 . S
C598 C600 1.391 . S
C599 C598 1.386 . S
C599 C603 1.393 . S
C600 H589 0.950 . S
C600 C598 1.391 . S
C600 C601 1.400 . S
C601 C595 1.491 . S
C601 C600 1.400 . S
C601 C602 1.398 . S
C602 H590 0.950 . S
C602 C601 1.398 . S
C602 C603 1.391 . S
C603 H591 0.950 . S
C603 C599 1.393 . S
C603 C602 1.391 . S
H604 C612 0.950 . S
H605 C617 0.950 . S
H606 C614 0.950 . S
H607 C616 0.950 . S
H608 C618 0.950 . S
H609 C620 0.950 . S
H610 C622 0.950 . S
H611 C623 0.950 . S
C612 H604 0.950 . S
C612 C613 1.386 . S
C612 C614 1.391 . S
C613 C612 1.386 . S
C613 C617 1.393 . S
C614 H606 0.950 . S
C614 C612 1.391 . S
C614 C615 1.400 . S
C615 C614 1.400 . S
C615 C616 1.398 . S
C615 C621 1.491 . S
C616 H607 0.950 . S
C616 C615 1.398 . S
C616 C617 1.391 . S
C617 H605 0.950 . S
C617 C613 1.393 . S
C617 C616 1.391 . S
C618 H608 0.950 . S
C618 C619 1.386 . S
C618 C620 1.391 . S
C619 C618 1.386 . S
C619 C623 1.393 . S
C620 H609 0.950 . S
C620 C618 1.391 . S
C620 C621 1.400 . S
C621 C615 1.491 . S
C621 C620 1.400 . S
C621 C622 1.398 . S
C622 H610 0.950 . S
C622 C621 1.398 . S
C622 C623 1.391 . S
C623 H611 0.950 . S
C623 C619 1.393 . S
C623 C622 1.391 . S
H624 C632 0.950 . S
H625 C637 0.950 . S
H626 C634 0.950 . S
H627 C636 0.950 . S
H628 C638 0.950 . S
H629 C640 0.950 . S
H630 C642 0.950 . S
H631 C643 0.950 . S
C632 H624 0.950 . S
C632 C633 1.386 . S
C632 C634 1.391 . S
C633 C632 1.386 . S
C633 C637 1.393 . S
C634 H626 0.950 . S
C634 C632 1.391 . S
C634 C635 1.400 . S
C635 C634 1.400 . S
C635 C636 1.398 . S
C635 C641 1.491 . S
C636 H627 0.950 . S
C636 C635 1.398 . S
C636 C637 1.391 . S
C637 H625 0.950 . S
C637 C633 1.393 . S
C637 C636 1.391 . S
C638 H628 0.950 . S
C638 C639 1.386 . S
C638 C640 1.391 . S
C639 C638 1.386 . S
C639 C643 1.393 . S
C640 H629 0.950 . S
C640 C638 1.391 . S
C640 C641 1.400 . S
C641 C635 1.491 . S
C641 C640 1.400 . S
C641 C642 1.398 . S
C642 H630 0.950 . S
C642 C641 1.398 . S
C642 C643 1.391 . S
C643 H631 0.950 . S
C643 C639 1.393 . S
C643 C642 1.391 . S
H644 C652 0.950 . S
H645 C657 0.950 . S
H646 C654 0.950 . S
H647 C656 0.950 . S
H648 C658 0.950 . S
H649 C660 0.950 . S
H650 C662 0.950 . S
H651 C663 0.950 . S
C652 H644 0.950 . S
C652 C653 1.386 . S
C652 C654 1.391 . S
C653 C652 1.386 . S
C653 C657 1.393 . S
C654 H646 0.950 . S
C654 C652 1.391 . S
C654 C655 1.400 . S
C655 C654 1.400 . S
C655 C656 1.398 . S
C655 C661 1.491 . S
C656 H647 0.950 . S
C656 C655 1.398 . S
C656 C657 1.391 . S
C657 H645 0.950 . S
C657 C653 1.393 . S
C657 C656 1.391 . S
C658 H648 0.950 . S
C658 C659 1.386 . S
C658 C660 1.391 . S
C659 C658 1.386 . S
C659 C663 1.393 . S
C660 H649 0.950 . S
C660 C658 1.391 . S
C660 C661 1.400 . S
C661 C655 1.491 . S
C661 C660 1.400 . S
C661 C662 1.398 . S
C662 H650 0.950 . S
C662 C661 1.398 . S
C662 C663 1.391 . S
C663 H651 0.950 . S
C663 C659 1.393 . S
C663 C662 1.391 . S
C273 N137 1.540 . S
C279 N5 1.540 . S
C293 N38 1.522 . S
C299 N170 1.522 . S
C313 N71 1.533 . S
C319 N203 1.533 . S
C333 N236 1.541 . S
C339 N104 1.541 . S
C353 N245 1.006 . S
C359 C8 1.003 . S
C373 N146 1.007 . S
C379 C41 0.990 . S
C393 N179 1.008 . S
C399 C74 0.990 . S
C413 N212 1.009 . S
C419 C107 0.996 . S
C433 C140 1.002 . S
C439 N113 1.009 . S
C453 C173 0.990 . S
C459 N14 1.008 . S
C473 C206 1.002 . S
C479 N47 0.996 . S
C493 C239 1.007 . S
C499 N80 1.002 . S
C513 C17 1.037 . S
C519 C83 1.032 . S
C533 C50 1.008 . S
C539 C116 1.009 . S
C553 C215 1.043 . S
C559 C149 1.040 . S
C573 C248 1.040 . S
C579 C182 1.036 . S
C593 C94 0.818 . S
C599 C28 0.856 . S
C613 C61 0.818 . S
C619 C127 0.877 . S
C633 C226 0.882 . S
C639 C160 0.827 . S
C653 C259 0.830 . S
C659 C193 0.883 . S
