# Generated by pormake.
# Topology uoz, (4)-cn, num edge types: 1
# Building blocks:
#     Node 0, Type 0, BuildingBlock: CEKHIL_clean_sbu_0, # of connection points: 4
#     Node 1, Type 0, BuildingBlock: CEKHIL_clean_sbu_0, # of connection points: 4
#     Node 2, Type 0, BuildingBlock: CEKHIL_clean_sbu_0, # of connection points: 4
#     Node 3, Type 0, BuildingBlock: CEKHIL_clean_sbu_0, # of connection points: 4
#     Node 4, Type 0, BuildingBlock: CEKHIL_clean_sbu_0, # of connection points: 4
#     Node 5, Type 0, BuildingBlock: CEKHIL_clean_sbu_0, # of connection points: 4
#     Node 6, Type 0, BuildingBlock: CEKHIL_clean_sbu_0, # of connection points: 4
#     Node 7, Type 0, BuildingBlock: CEKHIL_clean_sbu_0, # of connection points: 4
#     Node 8, Type 0, BuildingBlock: CEKHIL_clean_sbu_0, # of connection points: 4
#     Node 9, Type 0, BuildingBlock: CEKHIL_clean_sbu_0, # of connection points: 4
#     Node 10, Type 0, BuildingBlock: CEKHIL_clean_sbu_0, # of connection points: 4
#     Node 11, Type 0, BuildingBlock: CEKHIL_clean_sbu_0, # of connection points: 4
#     Node 12, Type 0, BuildingBlock: CEKHIL_clean_sbu_0, # of connection points: 4
#     Node 13, Type 0, BuildingBlock: CEKHIL_clean_sbu_0, # of connection points: 4
#     Node 14, Type 0, BuildingBlock: CEKHIL_clean_sbu_0, # of connection points: 4
#     Node 15, Type 0, BuildingBlock: CEKHIL_clean_sbu_0, # of connection points: 4
#     Edge 16, Type (0, 0), BuildingBlock: CIFDUS_clean_linker_0, # of connection points: 2
#     Edge 17, Type (0, 0), BuildingBlock: CIFDUS_clean_linker_0, # of connection points: 2
#     Edge 18, Type (0, 0), BuildingBlock: CIFDUS_clean_linker_0, # of connection points: 2
#     Edge 19, Type (0, 0), BuildingBlock: CIFDUS_clean_linker_0, # of connection points: 2
#     Edge 20, Type (0, 0), BuildingBlock: CIFDUS_clean_linker_0, # of connection points: 2
#     Edge 21, Type (0, 0), BuildingBlock: CIFDUS_clean_linker_0, # of connection points: 2
#     Edge 22, Type (0, 0), BuildingBlock: CIFDUS_clean_linker_0, # of connection points: 2
#     Edge 23, Type (0, 0), BuildingBlock: CIFDUS_clean_linker_0, # of connection points: 2
#     Edge 24, Type (0, 0), BuildingBlock: CIFDUS_clean_linker_0, # of connection points: 2
#     Edge 25, Type (0, 0), BuildingBlock: CIFDUS_clean_linker_0, # of connection points: 2
#     Edge 26, Type (0, 0), BuildingBlock: CIFDUS_clean_linker_0, # of connection points: 2
#     Edge 27, Type (0, 0), BuildingBlock: CIFDUS_clean_linker_0, # of connection points: 2
#     Edge 28, Type (0, 0), BuildingBlock: CIFDUS_clean_linker_0, # of connection points: 2
#     Edge 29, Type (0, 0), BuildingBlock: CIFDUS_clean_linker_0, # of connection points: 2
#     Edge 30, Type (0, 0), BuildingBlock: CIFDUS_clean_linker_0, # of connection points: 2
#     Edge 31, Type (0, 0), BuildingBlock: CIFDUS_clean_linker_0, # of connection points: 2
#     Edge 32, Type (0, 0), BuildingBlock: CIFDUS_clean_linker_0, # of connection points: 2
#     Edge 33, Type (0, 0), BuildingBlock: CIFDUS_clean_linker_0, # of connection points: 2
#     Edge 34, Type (0, 0), BuildingBlock: CIFDUS_clean_linker_0, # of connection points: 2
#     Edge 35, Type (0, 0), BuildingBlock: CIFDUS_clean_linker_0, # of connection points: 2
#     Edge 36, Type (0, 0), BuildingBlock: CIFDUS_clean_linker_0, # of connection points: 2
#     Edge 37, Type (0, 0), BuildingBlock: CIFDUS_clean_linker_0, # of connection points: 2
#     Edge 38, Type (0, 0), BuildingBlock: CIFDUS_clean_linker_0, # of connection points: 2
#     Edge 39, Type (0, 0), BuildingBlock: CIFDUS_clean_linker_0, # of connection points: 2
#     Edge 40, Type (0, 0), BuildingBlock: CIFDUS_clean_linker_0, # of connection points: 2
#     Edge 41, Type (0, 0), BuildingBlock: CIFDUS_clean_linker_0, # of connection points: 2
#     Edge 42, Type (0, 0), BuildingBlock: CIFDUS_clean_linker_0, # of connection points: 2
#     Edge 43, Type (0, 0), BuildingBlock: CIFDUS_clean_linker_0, # of connection points: 2
#     Edge 44, Type (0, 0), BuildingBlock: CIFDUS_clean_linker_0, # of connection points: 2
#     Edge 45, Type (0, 0), BuildingBlock: CIFDUS_clean_linker_0, # of connection points: 2
#     Edge 46, Type (0, 0), BuildingBlock: CIFDUS_clean_linker_0, # of connection points: 2
#     Edge 47, Type (0, 0), BuildingBlock: CIFDUS_clean_linker_0, # of connection points: 2
# Relax obj value: 0.184
# Max RMSD: 0.171
# Mean RMSD: 0.171
data_MOF--net-uoz--node1-CEKHIL_clean_sbu_0--edge1-CIFDUS_clean_linker_0
_symmetry_space_group_name_H-M    P1
_symmetry_Int_Tables_number       1
_symmetry_cell_setting            triclinic
loop_
_symmetry_equiv_pos_as_xyz
'x, y, z'
_cell_length_a     52.505398
_cell_length_b     52.466596
_cell_length_c     18.16433
_cell_angle_alpha  90.004141
_cell_angle_beta   90.202744
_cell_angle_gamma 90.049836
loop_
_atom_site_label
_atom_site_type_symbol
_atom_site_fract_x
_atom_site_fract_y
_atom_site_fract_z
_atom_type_partial_charge
Co0 Co 0.0333 0.58673 0.3017 0.0
O1 O 0.01917 0.55633 0.35001 0.0
O2 O 0.05441 0.57536 0.38493 0.0
C3 C 0.99585 0.60887 0.2901 0.0
O4 O 0.05375 0.61851 0.26966 0.0
Co5 Co 0.01526 0.60624 0.1457 0.0
O6 O 0.03791 0.63538 0.16482 0.0
C7 C 0.05457 0.56564 0.15859 0.0
C8 C 0.03823 0.55696 0.39579 0.0
C9 C 0.05379 0.63551 0.2179 0.0
O10 O 0.05391 0.56532 0.22985 0.0
O11 O 0.03994 0.5794 0.11872 0.0
O12 O 0.00814 0.60881 0.35255 0.0
O13 O 1.00522 0.59414 0.24095 0.0
Co14 Co 0.70379 0.74841 0.56964 0.0
O15 O 0.73246 0.73153 0.61881 0.0
O16 O 0.71449 0.76675 0.65841 0.0
C17 C 0.68 0.71288 0.54555 0.0
O18 O 0.67374 0.77119 0.53625 0.0
Co19 Co 0.68883 0.73647 0.40537 0.0
O20 O 0.65989 0.75934 0.42352 0.0
C21 C 0.732 0.77094 0.43902 0.0
C22 C 0.73225 0.74972 0.66732 0.0
C23 C 0.65839 0.77336 0.48053 0.0
O24 O 0.7281 0.76952 0.50889 0.0
O25 O 0.71946 0.75809 0.39128 0.0
O26 O 0.67956 0.72327 0.61071 0.0
O27 O 0.69631 0.72258 0.50113 0.0
Co28 Co 0.55562 0.42144 0.81895 0.0
O29 O 0.57449 0.4494 0.86373 0.0
O30 O 0.5391 0.43363 0.90945 0.0
C31 C 0.5899 0.39628 0.79364 0.0
O32 O 0.53144 0.39203 0.78887 0.0
Co33 Co 0.56572 0.40577 0.65417 0.0
O34 O 0.54311 0.377 0.67742 0.0
C35 C 0.53233 0.44959 0.68865 0.0
C36 C 0.55738 0.45033 0.91493 0.0
C37 C 0.52907 0.3762 0.73439 0.0
O38 O 0.53467 0.44612 0.75859 0.0
O39 O 0.54429 0.43657 0.64036 0.0
O40 O 0.58019 0.39649 0.85952 0.0
O41 O 0.58036 0.41273 0.74916 0.0
Co42 Co 0.87793 0.26473 0.05857 0.0
O43 O 0.84827 0.28041 0.10541 0.0
O44 O 0.86752 0.246 0.14642 0.0
C45 C 0.90056 0.30103 0.03593 0.0
O46 O 0.90904 0.24317 0.02847 0.0
Co47 Co 0.89402 0.27672 0.89576 0.0
O48 O 0.92412 0.25578 0.91823 0.0
C49 C 0.85177 0.24083 0.9258 0.0
C50 C 0.84902 0.26225 0.15402 0.0
C51 C 0.92537 0.2418 0.97538 0.0
O52 O 0.85498 0.24258 0.99599 0.0
O53 O 0.86433 0.25396 0.87899 0.0
O54 O 0.90081 0.2908 0.10131 0.0
O55 O 0.88497 0.2907 0.99018 0.0
Co56 Co 0.0328 0.42231 0.82069 0.0
O57 O 0.01531 0.45187 0.77898 0.0
O58 O 0.05016 0.43568 0.73224 0.0
C59 C 0.99686 0.3983 0.83941 0.0
O60 O 0.05582 0.39147 0.84624 0.0
Co61 Co 0.02033 0.40129 0.97959 0.0
O62 O 0.04272 0.37295 0.95177 0.0
C63 C 0.05694 0.4441 0.95951 0.0
C64 C 0.03232 0.45283 0.72744 0.0
C65 C 0.05751 0.37397 0.89649 0.0
O66 O 0.05431 0.44452 0.8886 0.0
O67 O 0.04426 0.42942 1.00196 0.0
O68 O 0.00727 0.39926 0.7745 0.0
O69 O 0.00708 0.41305 0.8873 0.0
Co70 Co 0.87268 0.74004 0.07254 0.0
O71 O 0.84407 0.72155 0.02923 0.0
O72 O 0.86012 0.75664 0.98224 0.0
C73 C 0.89759 0.70541 0.09767 0.0
O74 O 0.90253 0.76395 0.10024 0.0
Co75 Co 0.88955 0.73025 0.23689 0.0
O76 O 0.91804 0.75302 0.21201 0.0
C77 C 0.84593 0.76418 0.20348 0.0
C78 C 0.84308 0.73866 0.97773 0.0
C79 C 0.91857 0.76669 0.15411 0.0
O80 O 0.84882 0.76153 0.13348 0.0
O81 O 0.85914 0.75219 0.25154 0.0
O82 O 0.89688 0.71495 0.03149 0.0
O83 O 0.88169 0.7153 0.14293 0.0
Co84 Co 0.55059 0.59095 0.31751 0.0
O85 O 0.5672 0.56186 0.27013 0.0
O86 O 0.53202 0.57989 0.22977 0.0
C87 C 0.58609 0.61491 0.3403 0.0
O88 O 0.52797 0.62123 0.34824 0.0
Co89 Co 0.56242 0.60734 0.48048 0.0
O90 O 0.53988 0.63639 0.45935 0.0
C91 C 0.52812 0.56377 0.45017 0.0
C92 C 0.54887 0.56193 0.22185 0.0
C93 C 0.52589 0.63726 0.40206 0.0
O94 O 0.52947 0.56713 0.38001 0.0
O95 O 0.54096 0.57673 0.49698 0.0
O96 O 0.57572 0.61487 0.275 0.0
O97 O 0.57642 0.59887 0.3857 0.0
Co98 Co 0.7096 0.26663 0.55887 0.0
O99 O 0.73759 0.28555 0.5149 0.0
O100 O 0.7216 0.2504 0.46761 0.0
C101 C 0.68467 0.30097 0.58545 0.0
O102 O 0.68005 0.24255 0.58794 0.0
Co103 Co 0.69435 0.27629 0.72418 0.0
O104 O 0.66543 0.25392 0.7001 0.0
C105 C 0.73788 0.24274 0.68817 0.0
C106 C 0.73835 0.26866 0.46288 0.0
C107 C 0.66434 0.24014 0.64248 0.0
O108 O 0.73425 0.24531 0.61835 0.0
O109 O 0.72504 0.25463 0.73701 0.0
O110 O 0.6848 0.29148 0.51921 0.0
O111 O 0.70111 0.29121 0.62964 0.0
Co112 Co 0.37625 0.24661 0.56668 0.0
O113 O 0.34662 0.23096 0.51822 0.0
O114 O 0.36612 0.26522 0.47779 0.0
C115 C 0.39868 0.21012 0.5904 0.0
O116 O 0.40731 0.26818 0.59881 0.0
Co117 Co 0.39155 0.23407 0.73052 0.0
O118 O 0.42114 0.25606 0.71126 0.0
C119 C 0.35095 0.27176 0.69847 0.0
C120 C 0.34764 0.24894 0.46912 0.0
C121 C 0.42286 0.27 0.65415 0.0
O122 O 0.35343 0.26916 0.62826 0.0
O123 O 0.36327 0.25853 0.74574 0.0
O124 O 0.39914 0.22037 0.5251 0.0
O125 O 0.38296 0.22049 0.63532 0.0
Co126 Co 0.20206 0.77088 0.04984 0.0
O127 O 0.22995 0.78977 1.00522 0.0
O128 O 0.21415 0.75432 0.95924 0.0
C129 C 0.17701 0.80532 0.07537 0.0
O130 O 0.17279 0.74659 0.07966 0.0
Co131 Co 0.18653 0.78103 0.21466 0.0
O132 O 0.15829 0.7576 0.19223 0.0
C133 C 0.23029 0.74756 0.17991 0.0
C134 C 0.23083 0.77262 0.95392 0.0
C135 C 0.15737 0.74375 0.13472 0.0
O136 O 0.22679 0.74993 0.11 0.0
O137 O 0.21733 0.75954 0.2283 0.0
O138 O 0.1771 0.79551 1.00949 0.0
O139 O 0.19343 0.79569 0.11986 0.0
Co140 Co 0.21232 0.24354 0.04882 0.0
O141 O 0.24086 0.2254 0.09386 0.0
O142 O 0.22159 0.25795 0.14545 0.0
C143 C 0.19037 0.20829 1.00888 0.0
O144 O 0.18181 0.26659 0.02024 0.0
Co145 Co 0.19988 0.23801 0.87986 0.0
O146 O 0.16939 0.25796 0.9037 0.0
C147 C 0.24031 0.27345 0.93054 0.0
C148 C 0.23962 0.24097 0.1492 0.0
C149 C 0.16681 0.26995 0.96411 0.0
O150 O 0.23644 0.26819 0.99895 0.0
O151 O 0.22867 0.26243 0.87741 0.0
O152 O 0.18852 0.21572 0.0771 0.0
O153 O 0.20679 0.22066 0.97085 0.0
Co154 Co 0.37089 0.76602 0.55146 0.0
O155 O 0.34141 0.78217 0.59789 0.0
O156 O 0.36006 0.74746 0.63921 0.0
C157 C 0.39403 0.80202 0.5292 0.0
O158 O 0.40172 0.74398 0.5217 0.0
Co159 Co 0.38721 0.77788 0.38867 0.0
O160 O 0.41677 0.75617 0.41099 0.0
C161 C 0.34432 0.74275 0.41843 0.0
C162 C 0.34181 0.76401 0.64656 0.0
C163 C 0.41789 0.74226 0.46829 0.0
O164 O 0.34765 0.74425 0.48861 0.0
O165 O 0.35704 0.75578 0.37177 0.0
O166 O 0.39406 0.79176 0.59453 0.0
O167 O 0.37838 0.7919 0.4832 0.0
Co168 Co 0.53185 0.08969 0.80355 0.0
O169 O 0.51661 0.05975 0.85167 0.0
O170 O 0.55194 0.07815 0.88857 0.0
C171 C 0.49498 0.11262 0.78822 0.0
O172 O 0.55346 0.1208 0.77249 0.0
Co173 Co 0.51603 0.10938 0.64585 0.0
O174 O 0.5394 0.13785 0.66585 0.0
C175 C 0.55407 0.06776 0.66293 0.0
C176 C 0.53532 0.0601 0.89869 0.0
C177 C 0.55469 0.1376 0.72034 0.0
O178 O 0.55258 0.06755 0.73405 0.0
O179 O 0.54037 0.08192 0.62153 0.0
O180 O 0.50667 0.11249 0.85165 0.0
O181 O 0.50455 0.0976 0.74012 0.0
Co182 Co 0.04591 0.92305 0.30861 0.0
O183 O 0.06163 0.9529 0.35505 0.0
O184 O 0.02884 0.93216 0.40053 0.0
C185 C 0.08236 0.90122 0.28245 0.0
O186 O 0.02454 0.89162 0.27843 0.0
Co187 Co 0.05697 0.90786 0.14417 0.0
O188 O 0.03611 0.87766 0.16588 0.0
C189 C 0.0199 0.94888 0.17863 0.0
C190 C 0.04501 0.95082 0.40747 0.0
C191 C 0.02268 0.87581 0.22383 0.0
O192 O 0.0225 0.94585 0.24882 0.0
O193 O 0.03297 0.93672 0.13085 0.0
O194 O 0.07271 0.90051 0.34828 0.0
O195 O 0.07139 0.91685 0.23806 0.0
Co196 Co 0.52576 0.92516 0.32234 0.0
O197 O 0.50871 0.95485 0.27986 0.0
O198 O 0.54397 0.93873 0.23559 0.0
C199 C 0.48963 0.90109 0.33764 0.0
O200 O 0.54849 0.89428 0.34919 0.0
Co201 Co 0.51141 0.90384 0.4798 0.0
O202 O 0.53463 0.87589 0.45416 0.0
C203 C 0.54868 0.9463 0.46366 0.0
C204 C 0.52619 0.9559 0.22968 0.0
C205 C 0.54987 0.87692 0.3999 0.0
O206 O 0.54673 0.94706 0.39257 0.0
O207 O 0.53536 0.93168 0.50458 0.0
O208 O 0.50067 0.9022 0.27363 0.0
O209 O 0.49936 0.91579 0.38648 0.0
Co210 Co 0.05183 0.08585 0.82508 0.0
O211 O 0.0664 0.05568 0.77774 0.0
O212 O 0.03644 0.0796 0.72849 0.0
C213 C 0.08895 0.10444 0.86417 0.0
O214 O 0.03196 0.11813 0.85507 0.0
Co215 Co 0.05936 0.09763 0.99362 0.0
O216 O 0.04209 0.12992 0.97094 0.0
C217 C 0.02096 0.05958 0.94424 0.0
C218 C 0.05105 0.0597 0.72272 0.0
C219 C 0.03012 0.13344 0.91075 0.0
O220 O 0.02546 0.06368 0.87541 0.0
O221 O 0.03343 0.07013 0.99663 0.0
O222 O 0.08133 0.10717 0.79632 0.0
O223 O 0.07558 0.08883 0.90242 0.0
H224 H 0.13946 0.71927 0.25477 0.0
H225 H 0.13315 0.72046 0.01786 0.0
H226 H 0.10031 0.68717 0.02358 0.0
H227 H 0.07285 0.65867 0.09643 0.0
H228 H 0.08088 0.65617 0.3329 0.0
H229 H 0.11378 0.68928 0.32684 0.0
C230 C 0.13088 0.71233 0.20418 0.0
C231 C 0.13851 0.72262 0.13583 0.0
C232 C 0.11235 0.69307 0.20802 0.0
C233 C 0.1276 0.71295 0.07097 0.0
C234 C 0.10878 0.69399 0.07438 0.0
C235 C 0.0817 0.66544 0.14682 0.0
C236 C 0.07412 0.6552 0.21534 0.0
C237 C 0.10087 0.6841 0.14266 0.0
C238 C 0.08624 0.66377 0.27971 0.0
C239 C 0.10502 0.68271 0.27617 0.0
H240 H 0.57154 0.85553 0.52006 0.0
H241 H 0.57658 0.85697 0.28301 0.0
H242 H 0.61076 0.82508 0.28797 0.0
H243 H 0.63826 0.79624 0.35977 0.0
H244 H 0.63448 0.79647 0.59712 0.0
H245 H 0.60059 0.82855 0.59197 0.0
C246 C 0.58001 0.84881 0.46924 0.0
C247 C 0.57121 0.85833 0.40096 0.0
C248 C 0.59981 0.83087 0.47277 0.0
C249 C 0.58288 0.84989 0.33604 0.0
C250 C 0.60236 0.83164 0.33899 0.0
C251 C 0.63 0.80324 0.41054 0.0
C252 C 0.63869 0.79368 0.47893 0.0
C253 C 0.61081 0.82188 0.40704 0.0
C254 C 0.62814 0.80341 0.54398 0.0
C255 C 0.60872 0.82169 0.54093 0.0
H256 H 0.50702 0.35501 0.61417 0.0
H257 H 0.50424 0.35413 0.85165 0.0
H258 H 0.47133 0.3209 0.84684 0.0
H259 H 0.44411 0.29183 0.77504 0.0
H260 H 0.44565 0.29424 0.53752 0.0
H261 H 0.47858 0.32735 0.54254 0.0
C262 C 0.49933 0.34753 0.66514 0.0
C263 C 0.50836 0.35686 0.73343 0.0
C264 C 0.48031 0.32874 0.66177 0.0
C265 C 0.49772 0.34729 0.79857 0.0
C266 C 0.47897 0.32825 0.79572 0.0
C267 C 0.45172 0.29946 0.72418 0.0
C268 C 0.44265 0.29027 0.65576 0.0
C269 C 0.47028 0.31874 0.72762 0.0
C270 C 0.45234 0.30084 0.59069 0.0
C271 C 0.47117 0.31975 0.59364 0.0
H272 H 0.94992 0.22146 0.85804 0.0
H273 H 0.94588 0.21722 0.09509 0.0
H274 H 0.97878 0.18414 0.0952 0.0
H275 H 0.00786 0.1561 0.02801 0.0
H276 H 0.01009 0.15835 0.79053 0.0
H277 H 0.97855 0.1928 0.79057 0.0
C278 C 0.95635 0.21348 0.90994 0.0
C279 C 0.94557 0.22201 0.97671 0.0
C280 C 0.97485 0.19415 0.90937 0.0
C281 C 0.95383 0.21106 0.04311 0.0
C282 C 0.97265 0.19218 0.04312 0.0
C283 C 1.00169 0.16424 0.97607 0.0
C284 C 0.01159 0.15481 0.9092 0.0
C285 C 0.98321 0.18356 0.97657 0.0
C286 C 1.00288 0.16528 0.84262 0.0
C287 C 0.98486 0.18496 0.84271 0.0
H288 H 0.07841 0.34989 0.01399 0.0
H289 H 0.08467 0.35612 0.77775 0.0
H290 H 0.11901 0.32442 0.77896 0.0
H291 H 0.14659 0.29479 0.84694 0.0
H292 H 0.14167 0.28999 0.08374 0.0
H293 H 0.10726 0.32162 0.08251 0.0
C294 C 0.08714 0.34425 0.96248 0.0
C295 C 0.07867 0.35514 0.8955 0.0
C296 C 0.10705 0.32638 0.9639 0.0
C297 C 0.09068 0.348 0.8298 0.0
C298 C 0.11028 0.32986 0.8306 0.0
C299 C 0.13795 0.30052 0.8985 0.0
C300 C 0.14651 0.28971 0.96551 0.0
C301 C 0.1185 0.31888 0.89728 0.0
C302 C 0.13545 0.29788 0.0316 0.0
C303 C 0.11575 0.31591 0.03077 0.0
H304 H 1.00075 0.85323 0.10513 0.0
H305 H 0.99983 0.85302 0.3428 0.0
H306 H 0.96766 0.81913 0.3411 0.0
H307 H 0.94029 0.78958 0.27226 0.0
H308 H 0.93959 0.79112 0.03464 0.0
H309 H 0.97206 0.82479 0.03617 0.0
C310 C 0.99366 0.8457 0.15676 0.0
C311 C 1.00298 0.85545 0.22423 0.0
C312 C 0.97491 0.82658 0.15521 0.0
C313 C 0.9931 0.84583 0.29031 0.0
C314 C 0.97474 0.82644 0.28926 0.0
C315 C 0.94729 0.79714 0.22057 0.0
C316 C 0.93773 0.78756 0.15319 0.0
C317 C 0.96561 0.81665 0.22205 0.0
C318 C 0.94665 0.79805 0.08706 0.0
C319 C 0.96524 0.81725 0.08803 0.0
H320 H 0.44047 0.7202 0.35063 0.0
H321 H 0.43998 0.7191 0.58822 0.0
H322 H 0.47369 0.68677 0.5879 0.0
H323 H 0.50332 0.65926 0.52001 0.0
H324 H 0.50213 0.65874 0.28239 0.0
H325 H 0.46882 0.69145 0.2828 0.0
C326 C 0.4478 0.71301 0.40251 0.0
C327 C 0.43792 0.72231 0.46955 0.0
C328 C 0.46679 0.69419 0.40175 0.0
C329 C 0.44728 0.71235 0.53604 0.0
C330 C 0.46656 0.69391 0.53578 0.0
C331 C 0.4959 0.66638 0.46816 0.0
C332 C 0.50545 0.65678 0.40107 0.0
C333 C 0.4765 0.68479 0.46896 0.0
C334 C 0.49519 0.66583 0.3346 0.0
C335 C 0.47619 0.68455 0.33491 0.0
H336 H 0.6444 0.21672 0.76161 0.0
H337 H 0.64005 0.21768 0.52432 0.0
H338 H 0.60542 0.18622 0.52838 0.0
H339 H 0.57584 0.1595 0.59983 0.0
H340 H 0.58173 0.15727 0.83684 0.0
H341 H 0.61647 0.18848 0.83243 0.0
C342 C 0.63588 0.21011 0.71055 0.0
C343 C 0.6446 0.21982 0.64258 0.0
C344 C 0.61626 0.19196 0.71347 0.0
C345 C 0.63371 0.21058 0.57717 0.0
C346 C 0.61385 0.19269 0.57962 0.0
C347 C 0.5846 0.16593 0.6507 0.0
C348 C 0.5759 0.15634 0.71887 0.0
C349 C 0.60483 0.18347 0.64751 0.0
C350 C 0.58793 0.16443 0.7839 0.0
C351 C 0.60777 0.18226 0.78129 0.0
H352 H 0.98127 0.38804 0.97875 0.0
H353 H 0.96856 0.36551 0.75307 0.0
H354 H 0.93693 0.33413 0.79434 0.0
H355 H 0.91337 0.31325 0.89468 0.0
H356 H 0.92974 0.33295 0.12064 0.0
H357 H 0.95997 0.36543 0.0788 0.0
C358 C 0.97195 0.37614 0.93817 0.0
C359 C 0.97753 0.37911 0.86257 0.0
C360 C 0.95451 0.35768 0.96253 0.0
C361 C 0.96475 0.36363 0.81138 0.0
C362 C 0.94668 0.3457 0.83508 0.0
C363 C 0.9236 0.32445 0.93509 0.0
C364 C 0.9192 0.32058 1.01106 0.0
C365 C 0.94148 0.34253 0.91057 0.0
C366 C 0.93273 0.33545 0.06212 0.0
C367 C 0.94999 0.35403 0.03811 0.0
H368 H 0.47658 0.12075 0.65019 0.0
H369 H 0.46916 0.14759 0.87369 0.0
H370 H 0.43799 0.17945 0.83208 0.0
H371 H 0.41362 0.19977 0.73176 0.0
H372 H 0.42526 0.1759 0.50706 0.0
H373 H 0.4547 0.14278 0.54976 0.0
C374 C 0.46857 0.13372 0.69018 0.0
C375 C 0.47553 0.1318 0.7653 0.0
C376 C 0.45153 0.15252 0.6654 0.0
C377 C 0.46428 0.14859 0.81578 0.0
C378 C 0.4465 0.16684 0.79184 0.0
C379 C 0.42261 0.1875 0.69179 0.0
C380 C 0.41709 0.19038 0.61593 0.0
C381 C 0.4401 0.16903 0.71669 0.0
C382 C 0.42914 0.17419 0.56546 0.0
C383 C 0.44593 0.15522 0.58998 0.0
H384 H 0.59927 0.62607 0.48186 0.0
H385 H 0.61516 0.64756 0.25736 0.0
H386 H 0.64605 0.67923 0.30149 0.0
H387 H 0.66838 0.70042 0.40367 0.0
H388 H 0.64941 0.68171 0.6282 0.0
H389 H 0.61946 0.64919 0.58395 0.0
C390 C 0.60923 0.63775 0.44222 0.0
C391 C 0.60479 0.63436 0.36604 0.0
C392 C 0.62634 0.65637 0.46814 0.0
C393 C 0.61815 0.64972 0.31605 0.0
C394 C 0.6358 0.66782 0.34138 0.0
C395 C 0.65764 0.68944 0.44326 0.0
C396 C 0.66124 0.69356 0.51949 0.0
C397 C 0.64002 0.67129 0.4173 0.0
C398 C 0.64703 0.679 0.56946 0.0
C399 C 0.62994 0.66038 0.54408 0.0
H400 H 0.16609 0.8178 0.21701 0.0
H401 H 0.14534 0.83567 0.99287 0.0
H402 H 0.11506 0.86768 0.03747 0.0
H403 H 0.09489 0.89052 0.14008 0.0
H404 H 0.11308 0.86989 0.36415 0.0
H405 H 0.14429 0.83892 0.3194 0.0
C406 C 0.1549 0.82852 0.17762 0.0
C407 C 0.15805 0.82429 0.10143 0.0
C408 C 0.13719 0.84642 0.20377 0.0
C409 C 0.14328 0.83848 0.05161 0.0
C410 C 0.12602 0.85681 0.07719 0.0
C411 C 0.1055 0.87921 0.1794 0.0
C412 C 0.10156 0.88259 0.25567 0.0
C413 C 0.12285 0.86094 0.15316 0.0
C414 C 0.11569 0.86771 0.30537 0.0
C415 C 0.13351 0.84999 0.27972 0.0
H416 H 0.97521 0.61585 0.15454 0.0
H417 H 0.97174 0.64484 0.37663 0.0
H418 H 0.94052 0.67692 0.3366 0.0
H419 H 0.91501 0.69693 0.23753 0.0
H420 H 0.92272 0.67044 0.01385 0.0
H421 H 0.95232 0.63734 0.0554 0.0
C422 C 0.96805 0.62933 0.19452 0.0
C423 C 0.97613 0.62797 0.26874 0.0
C424 C 0.95103 0.64823 0.17049 0.0
C425 C 0.96596 0.64539 0.31937 0.0
C426 C 0.94818 0.66378 0.29631 0.0
C427 C 0.92319 0.68402 0.19768 0.0
C428 C 0.91651 0.68613 0.12242 0.0
C429 C 0.94071 0.66545 0.22186 0.0
C430 C 0.92755 0.6693 0.07178 0.0
C431 C 0.94439 0.65032 0.09566 0.0
H432 H 0.12106 0.13961 0.80145 0.0
H433 H 0.09991 0.10732 1.01091 0.0
H434 H 0.12783 0.13698 0.07468 0.0
H435 H 0.15843 0.17288 0.07225 0.0
H436 H 0.18327 0.20133 0.86153 0.0
H437 H 0.1542 0.17288 0.79848 0.0
C438 C 0.12263 0.13901 0.86096 0.0
C439 C 0.10784 0.12152 0.90091 0.0
C440 C 0.13949 0.15572 0.89783 0.0
C441 C 0.11053 0.12084 0.9782 0.0
C442 C 0.12666 0.13782 0.01514 0.0
C443 C 0.15743 0.17287 1.01262 0.0
C444 C 0.17274 0.18983 0.97236 0.0
C445 C 0.14116 0.15553 0.9757 0.0
C446 C 0.17149 0.18906 0.89479 0.0
C447 C 0.15485 0.17257 0.85812 0.0
H448 H 0.6731 0.31237 0.72764 0.0
H449 H 0.65306 0.33148 0.50377 0.0
H450 H 0.62237 0.36294 0.549 0.0
H451 H 0.602 0.38521 0.65178 0.0
H452 H 0.61949 0.36375 0.87562 0.0
H453 H 0.65066 0.33271 0.8305 0.0
C454 C 0.66196 0.32323 0.68846 0.0
C455 C 0.66547 0.31956 0.61214 0.0
C456 C 0.644 0.34081 0.71495 0.0
C457 C 0.65075 0.33389 0.56259 0.0
C458 C 0.63325 0.35189 0.58851 0.0
C459 C 0.61241 0.37368 0.69101 0.0
C460 C 0.60838 0.37689 0.76727 0.0
C461 C 0.62979 0.35554 0.66455 0.0
C462 C 0.62218 0.36169 0.81684 0.0
C463 C 0.64001 0.34397 0.79097 0.0
H464 H 0.40876 0.81318 0.38879 0.0
H465 H 0.42098 0.83543 0.61489 0.0
H466 H 0.45045 0.86879 0.57431 0.0
H467 H 0.47206 0.89158 0.47531 0.0
H468 H 0.46373 0.86667 0.25003 0.0
H469 H 0.43282 0.83433 0.28972 0.0
C470 C 0.41791 0.82516 0.42948 0.0
C471 C 0.41255 0.82177 0.5051 0.0
C472 C 0.43534 0.84381 0.40576 0.0
C473 C 0.42476 0.83755 0.55662 0.0
C474 C 0.44155 0.85665 0.53333 0.0
C475 C 0.46389 0.87894 0.43451 0.0
C476 C 0.47049 0.88153 0.35948 0.0
C477 C 0.44695 0.85992 0.4581 0.0
C478 C 0.4591 0.86514 0.30792 0.0
C479 C 0.44147 0.84662 0.33074 0.0
H480 H 0.07435 0.5198 0.20287 0.0
H481 H 0.07169 0.57175 0.01893 0.0
H482 H 0.07938 0.537 0.9337 0.0
H483 H 0.07228 0.49118 0.912 0.0
H484 H 0.07799 0.43932 0.09557 0.0
H485 H 0.08472 0.47467 0.17966 0.0
C486 C 0.07666 0.52369 0.14461 0.0
C487 C 0.07075 0.54784 0.11674 0.0
C488 C 0.08105 0.50355 0.09533 0.0
C489 C 0.07483 0.55286 0.04135 0.0
C490 C 0.07921 0.53301 0.99225 0.0
C491 C 0.07624 0.48753 0.9697 0.0
C492 C 0.07292 0.463 0.99833 0.0
C493 C 0.08002 0.50801 0.01831 0.0
C494 C 0.07912 0.45838 0.07282 0.0
C495 C 0.08292 0.47858 0.12127 0.0
H496 H 0.84133 0.78326 0.34077 0.0
H497 H 0.80301 0.78012 0.13023 0.0
H498 H 0.76295 0.79184 0.18908 0.0
H499 H 0.73791 0.78942 0.30178 0.0
H500 H 0.77573 0.78424 0.51257 0.0
H501 H 0.81687 0.79042 0.45286 0.0
C502 C 0.82431 0.78573 0.30744 0.0
C503 C 0.82474 0.77965 0.23194 0.0
C504 C 0.80118 0.7907 0.34225 0.0
C505 C 0.80297 0.78404 0.18878 0.0
C506 C 0.78004 0.79057 0.22254 0.0
C507 C 0.75514 0.7904 0.33487 0.0
C508 C 0.75407 0.78518 0.41081 0.0
C509 C 0.77867 0.79184 0.29965 0.0
C510 C 0.77619 0.78761 0.45373 0.0
C511 C 0.79973 0.79083 0.41945 0.0
H512 H 0.51084 0.55839 0.58891 0.0
H513 H 0.5134 0.52008 0.37876 0.0
H514 H 0.50607 0.47925 0.43969 0.0
H515 H 0.51262 0.45466 0.5522 0.0
H516 H 0.51832 0.49312 0.76174 0.0
H517 H 0.50803 0.5336 0.70226 0.0
C518 C 0.5091 0.54116 0.55623 0.0
C519 C 0.51384 0.54195 0.48 0.0
C520 C 0.5069 0.51773 0.59204 0.0
C521 C 0.51043 0.51982 0.43775 0.0
C522 C 0.50651 0.49645 0.47271 0.0
C523 C 0.51099 0.47183 0.58518 0.0
C524 C 0.51736 0.47125 0.66052 0.0
C525 C 0.50691 0.49511 0.54994 0.0
C526 C 0.5141 0.49325 0.70331 0.0
C527 C 0.50843 0.51641 0.66917 0.0
H528 H 0.84686 0.22312 0.78705 0.0
H529 H 0.80871 0.22468 0.99711 0.0
H530 H 0.76808 0.21621 0.93605 0.0
H531 H 0.74325 0.22242 0.82364 0.0
H532 H 0.78134 0.22929 0.61437 0.0
H533 H 0.82205 0.21965 0.67361 0.0
C534 C 0.82973 0.22089 0.81968 0.0
C535 C 0.83045 0.22573 0.89591 0.0
C536 C 0.80634 0.21806 0.78379 0.0
C537 C 0.80849 0.22167 0.9381 0.0
C538 C 0.78522 0.21709 0.90306 0.0
C539 C 0.7604 0.22115 0.79066 0.0
C540 C 0.75963 0.22773 0.71554 0.0
C541 C 0.78379 0.2175 0.82585 0.0
C542 C 0.78161 0.22492 0.67266 0.0
C543 C 0.8049 0.21963 0.70669 0.0
H544 H 0.24503 0.29881 0.80242 0.0
H545 H 0.28342 0.2856 1.00929 0.0
H546 H 0.32435 0.29442 0.95113 0.0
H547 H 0.34826 0.28992 0.83713 0.0
H548 H 0.30903 0.2917 0.62792 0.0
H549 H 0.26971 0.30398 0.68999 0.0
C550 C 0.26234 0.29865 0.83526 0.0
C551 C 0.26153 0.2902 0.90883 0.0
C552 C 0.28577 0.30098 0.79984 0.0
C553 C 0.2837 0.29133 0.95199 0.0
C554 C 0.30712 0.29603 0.91839 0.0
C555 C 0.33123 0.29361 0.80484 0.0
C556 C 0.33106 0.28857 0.72863 0.0
C557 C 0.30837 0.29829 0.84139 0.0
C558 C 0.30939 0.2947 0.68693 0.0
C559 C 0.28687 0.30151 0.72256 0.0
H560 H 0.33897 0.72526 0.27962 0.0
H561 H 0.30085 0.72773 0.48964 0.0
H562 H 0.25998 0.72064 0.42843 0.0
H563 H 0.23537 0.72767 0.31603 0.0
H564 H 0.27366 0.7334 0.10676 0.0
H565 H 0.31408 0.7227 0.16611 0.0
C566 C 0.32177 0.72352 0.31219 0.0
C567 C 0.32262 0.72822 0.38848 0.0
C568 C 0.29831 0.72149 0.27624 0.0
C569 C 0.30054 0.72479 0.4306 0.0
C570 C 0.27715 0.72102 0.39548 0.0
C571 C 0.25248 0.72596 0.28307 0.0
C572 C 0.25189 0.73247 0.20789 0.0
C573 C 0.27574 0.72159 0.31826 0.0
C574 C 0.27381 0.72909 0.16509 0.0
C575 C 0.29694 0.72317 0.19915 0.0
H576 H 0.56758 0.99242 0.41809 0.0
H577 H 0.56742 0.94039 0.60206 0.0
H578 H 0.57661 0.97503 0.68645 0.0
H579 H 0.57023 0.02085 0.70908 0.0
H580 H 0.57356 0.07282 0.52544 0.0
H581 H 0.57873 0.03749 0.44042 0.0
C582 C 0.5707 0.9885 0.47606 0.0
C583 C 0.56507 0.96435 0.50444 0.0
C584 C 0.57606 0.00857 0.52491 0.0
C585 C 0.57025 0.95928 0.57935 0.0
C586 C 0.57554 0.97906 0.62799 0.0
C587 C 0.57338 0.02452 0.65104 0.0
C588 C 0.56978 0.04907 0.6229 0.0
C589 C 0.5762 1.00406 0.60196 0.0
C590 C 0.57494 0.05373 0.54789 0.0
C591 C 0.5778 0.03354 0.49893 0.0
H592 H 0.99648 0.0559 0.07386 0.0
H593 H 0.00657 0.01689 0.86697 0.0
H594 H 0.99678 0.97631 0.9264 0.0
H595 H 1.00098 0.95223 0.04068 0.0
H596 H 1.00204 0.99161 0.24931 0.0
H597 H 0.99115 0.03144 0.18704 0.0
C598 C 0.99568 0.03856 0.04131 0.0
C599 C 1.00347 0.03906 0.96712 0.0
C600 C 0.99276 0.01521 0.07731 0.0
C601 C 1.00125 0.01687 0.92455 0.0
C602 C 0.99603 0.99362 0.9589 0.0
C603 C 0.99816 0.96942 0.07284 0.0
C604 C 1.00354 0.96935 0.14896 0.0
C605 C 0.99426 0.99248 0.03606 0.0
C606 C 0.99865 0.99134 0.19045 0.0
C607 C 0.99267 0.01416 0.15465 0.0
H608 H 0.07038 0.47742 0.64774 0.0
H609 H 0.98881 0.47097 0.66585 0.0
H610 H 0.98326 0.50113 0.56462 0.0
H611 H 1.00129 0.53006 0.47024 0.0
H612 H 0.08259 0.54029 0.4597 0.0
H613 H 0.08846 0.50847 0.55717 0.0
C614 C 0.05141 0.48256 0.62935 0.0
C615 C 0.03004 0.47157 0.66466 0.0
C616 C 0.04826 0.50085 0.57193 0.0
C617 C 0.00564 0.47896 0.6403 0.0
C618 C 1.00242 0.49628 0.58202 0.0
C619 C 0.02032 0.52531 0.48912 0.0
C620 C 0.04147 0.53761 0.45666 0.0
C621 C 0.02353 0.50745 0.54731 0.0
C622 C 0.06591 0.5313 0.48318 0.0
C623 C 0.06929 0.51298 0.53912 0.0
H624 H 0.81585 0.77756 0.9115 0.0
H625 H 0.82561 0.69604 0.90929 0.0
H626 H 0.79313 0.69208 0.81303 0.0
H627 H 0.76133 0.71162 0.72911 0.0
H628 H 0.74834 0.79262 0.73967 0.0
H629 H 0.78215 0.79689 0.83213 0.0
C630 C 0.81097 0.75897 0.88952 0.0
C631 C 0.82354 0.73714 0.91724 0.0
C632 C 0.7914 0.7567 0.83557 0.0
C633 C 0.81645 0.71317 0.88902 0.0
C634 C 0.79779 0.71088 0.83383 0.0
C635 C 0.76584 0.73021 0.75174 0.0
C636 C 0.75218 0.75178 0.72681 0.0
C637 C 0.78501 0.73247 0.80668 0.0
C638 C 0.7583 0.77564 0.75766 0.0
C639 C 0.7778 0.77813 0.81055 0.0
H640 H 0.58619 0.5313 0.16314 0.0
H641 H 0.50573 0.54679 0.14923 0.0
H642 H 0.50064 0.51284 0.05791 0.0
H643 H 0.51913 0.47851 0.97984 0.0
H644 H 0.60021 0.4661 0.98548 0.0
H645 H 0.60491 0.49854 0.08131 0.0
C646 C 0.56754 0.52728 0.14007 0.0
C647 C 0.54637 0.54171 0.16361 0.0
C648 C 0.56482 0.50799 0.08583 0.0
C649 C 0.52241 0.53622 0.13227 0.0
C650 C 0.51945 0.51665 0.08003 0.0
C651 C 0.53777 0.48277 1.00261 0.0
C652 C 0.55926 0.46952 0.97595 0.0
C653 C 0.5405 0.50233 0.05622 0.0
C654 C 0.58333 0.47581 1.00503 0.0
C655 C 0.58605 0.49445 0.05992 0.0
H656 H 0.81778 0.29894 0.21333 0.0
H657 H 0.83504 0.2188 0.22664 0.0
H658 H 0.80152 0.21305 0.31854 0.0
H659 H 0.76706 0.23089 0.39729 0.0
H660 H 0.753 0.31175 0.39235 0.0
H661 H 0.78498 0.31705 0.29591 0.0
C662 C 0.81423 0.28022 0.23637 0.0
C663 C 0.82903 0.25933 0.21249 0.0
C664 C 0.79522 0.27713 0.29098 0.0
C665 C 0.82417 0.23527 0.24385 0.0
C666 C 0.80485 0.23193 0.29642 0.0
C667 C 0.77087 0.2496 0.37454 0.0
C668 C 0.75727 0.27085 0.40154 0.0
C669 C 0.79017 0.2527 0.32058 0.0
C670 C 0.76298 0.29505 0.3725 0.0
C671 C 0.78135 0.29811 0.31727 0.0
H672 H 0.31639 0.21197 0.40918 0.0
H673 H 0.33467 0.29183 0.3919 0.0
H674 H 0.30211 0.29705 0.29629 0.0
H675 H 0.26817 0.27887 0.21537 0.0
H676 H 0.2532 0.19822 0.22396 0.0
H677 H 0.28416 0.19343 0.32422 0.0
C678 C 0.31327 0.23053 0.38453 0.0
C679 C 0.32809 0.2515 0.40854 0.0
C680 C 0.2948 0.2333 0.32768 0.0
C681 C 0.32377 0.2753 0.37488 0.0
C682 C 0.305 0.27833 0.3201 0.0
C683 C 0.27154 0.26031 0.23974 0.0
C684 C 0.25794 0.23897 0.2127 0.0
C685 C 0.2903 0.2575 0.29588 0.0
C686 C 0.26314 0.21498 0.24384 0.0
C687 C 0.28094 0.21222 0.30126 0.0
H688 H 0.31118 0.8013 0.70531 0.0
H689 H 0.327 0.72086 0.71932 0.0
H690 H 0.29326 0.71579 0.81089 0.0
H691 H 0.25901 0.73432 0.88906 0.0
H692 H 0.24638 0.81542 0.88336 0.0
H693 H 0.2786 0.82006 0.78735 0.0
C694 C 0.30727 0.78266 0.72843 0.0
C695 C 0.32172 0.76149 0.70485 0.0
C696 C 0.28814 0.77996 0.78283 0.0
C697 C 0.31639 0.73755 0.73631 0.0
C698 C 0.29695 0.7346 0.78869 0.0
C699 C 0.26318 0.75295 0.86625 0.0
C700 C 0.24992 0.77446 0.89292 0.0
C701 C 0.28261 0.75565 0.81253 0.0
C702 C 0.25609 0.79852 0.86379 0.0
C703 C 0.27461 0.80121 0.80879 0.0
H704 H 0.56497 0.98034 0.15255 0.0
H705 H 0.48324 0.97442 0.16565 0.0
H706 H 0.47864 1.00467 0.06425 0.0
H707 H 0.49756 0.03349 0.97092 0.0
H708 H 0.57901 0.04311 0.96547 0.0
H709 H 0.58391 0.01128 0.06328 0.0
C710 C 0.54617 0.98562 0.13306 0.0
C711 C 0.52448 0.97474 0.16699 0.0
C712 C 0.54356 1.00395 0.07552 0.0
C713 C 0.50031 0.98231 0.14118 0.0
C714 C 0.49763 0.99968 0.08279 0.0
C715 C 0.5164 0.02861 0.99099 0.0
C716 C 0.53789 0.04074 0.95982 0.0
C717 C 0.51907 0.01072 0.04938 0.0
C718 C 0.56208 0.03425 0.98789 0.0
C719 C 0.56491 0.01592 0.04404 0.0
H720 H 0.04638 0.00763 0.7181 0.0
H721 H 0.05361 0.07348 0.57827 0.0
H722 H 0.05352 0.04602 0.46892 0.0
H723 H 0.05154 1.00284 0.41214 0.0
H724 H 0.03869 0.93765 0.5513 0.0
H725 H 0.04072 0.96491 0.66077 0.0
C726 C 0.04797 0.01592 0.66362 0.0
C727 C 0.05035 0.04263 0.65656 0.0
C728 C 0.04684 0.99999 0.60051 0.0
C729 C 0.05186 0.05306 0.58541 0.0
C730 C 0.05183 0.03731 0.52276 0.0
C731 C 0.04915 0.99464 0.46647 0.0
C732 C 0.0452 0.9681 0.47331 0.0
C733 C 0.04937 0.0107 0.52943 0.0
C734 C 0.04174 0.95793 0.54421 0.0
C735 C 0.04297 0.97355 0.607 0.0
loop_
_geom_bond_atom_site_label_1
_geom_bond_atom_site_label_2
_geom_bond_distance
_geom_bond_site_symmetry_2
_ccdc_geom_bond_type
Co0 O1 2.216 . S
Co0 O2 2.091 . S
Co0 O4 2.004 . S
Co0 O10 2.021 . S
Co0 O12 2.137 . S
Co0 O13 2.244 . S
O1 Co0 2.216 . S
O1 C8 1.247 . S
O2 Co0 2.091 . S
O2 C8 1.261 . S
C3 O12 1.247 1_655 S
C3 O13 1.272 1_655 S
O4 Co0 2.004 . S
O4 C9 1.259 . S
Co5 O6 2.061 . S
Co5 O11 2.052 . S
Co5 O13 2.135 . S
O6 Co5 2.061 . S
O6 C9 1.235 . S
C7 O10 1.238 . S
C7 O11 1.241 . S
C8 O1 1.247 . S
C8 O2 1.261 . S
C9 O4 1.259 . S
C9 O6 1.235 . S
O10 Co0 2.021 . S
O10 C7 1.238 . S
O11 Co5 2.052 . S
O11 C7 1.241 . S
O12 Co0 2.137 . S
O12 C3 1.247 1_455 S
O13 Co0 2.244 . S
O13 C3 1.272 1_455 S
O13 Co5 2.135 . S
Co14 O15 2.216 . S
Co14 O16 2.091 . S
Co14 O18 2.004 . S
Co14 O24 2.021 . S
Co14 O26 2.137 . S
Co14 O27 2.244 . S
O15 Co14 2.216 . S
O15 C22 1.247 . S
O16 Co14 2.091 . S
O16 C22 1.261 . S
C17 O26 1.247 . S
C17 O27 1.272 . S
O18 Co14 2.004 . S
O18 C23 1.259 . S
Co19 O20 2.061 . S
Co19 O25 2.052 . S
Co19 O27 2.135 . S
O20 Co19 2.061 . S
O20 C23 1.235 . S
C21 O24 1.238 . S
C21 O25 1.241 . S
C22 O15 1.247 . S
C22 O16 1.261 . S
C23 O18 1.259 . S
C23 O20 1.235 . S
O24 Co14 2.021 . S
O24 C21 1.238 . S
O25 Co19 2.052 . S
O25 C21 1.241 . S
O26 Co14 2.137 . S
O26 C17 1.247 . S
O27 Co14 2.244 . S
O27 C17 1.272 . S
O27 Co19 2.135 . S
Co28 O29 2.216 . S
Co28 O30 2.091 . S
Co28 O32 2.004 . S
Co28 O38 2.021 . S
Co28 O40 2.137 . S
Co28 O41 2.244 . S
O29 Co28 2.216 . S
O29 C36 1.247 . S
O30 Co28 2.091 . S
O30 C36 1.261 . S
C31 O40 1.247 . S
C31 O41 1.272 . S
O32 Co28 2.004 . S
O32 C37 1.259 . S
Co33 O34 2.061 . S
Co33 O39 2.052 . S
Co33 O41 2.135 . S
O34 Co33 2.061 . S
O34 C37 1.235 . S
C35 O38 1.238 . S
C35 O39 1.241 . S
C36 O29 1.247 . S
C36 O30 1.261 . S
C37 O32 1.259 . S
C37 O34 1.235 . S
O38 Co28 2.021 . S
O38 C35 1.238 . S
O39 Co33 2.052 . S
O39 C35 1.241 . S
O40 Co28 2.137 . S
O40 C31 1.247 . S
O41 Co28 2.244 . S
O41 C31 1.272 . S
O41 Co33 2.135 . S
Co42 O43 2.216 . S
Co42 O44 2.091 . S
Co42 O46 2.004 . S
Co42 O52 2.021 1_554 S
Co42 O54 2.137 . S
Co42 O55 2.244 1_554 S
O43 Co42 2.216 . S
O43 C50 1.247 . S
O44 Co42 2.091 . S
O44 C50 1.261 . S
C45 O54 1.247 . S
C45 O55 1.272 1_554 S
O46 Co42 2.004 . S
O46 C51 1.259 1_554 S
Co47 O48 2.061 . S
Co47 O53 2.052 . S
Co47 O55 2.135 . S
O48 Co47 2.061 . S
O48 C51 1.235 . S
C49 O52 1.238 . S
C49 O53 1.241 . S
C50 O43 1.247 . S
C50 O44 1.261 . S
C51 O46 1.259 1_556 S
C51 O48 1.235 . S
O52 Co42 2.021 1_556 S
O52 C49 1.238 . S
O53 Co47 2.052 . S
O53 C49 1.241 . S
O54 Co42 2.137 . S
O54 C45 1.247 . S
O55 Co42 2.244 1_556 S
O55 C45 1.272 1_556 S
O55 Co47 2.135 . S
Co56 O57 2.216 . S
Co56 O58 2.091 . S
Co56 O60 2.004 . S
Co56 O66 2.021 . S
Co56 O68 2.137 . S
Co56 O69 2.244 . S
O57 Co56 2.216 . S
O57 C64 1.247 . S
O58 Co56 2.091 . S
O58 C64 1.261 . S
C59 O68 1.247 1_655 S
C59 O69 1.272 1_655 S
O60 Co56 2.004 . S
O60 C65 1.259 . S
Co61 O62 2.061 . S
Co61 O67 2.052 . S
Co61 O69 2.135 . S
O62 Co61 2.061 . S
O62 C65 1.235 . S
C63 O66 1.238 . S
C63 O67 1.241 . S
C64 O57 1.247 . S
C64 O58 1.261 . S
C65 O60 1.259 . S
C65 O62 1.235 . S
O66 Co56 2.021 . S
O66 C63 1.238 . S
O67 Co61 2.052 . S
O67 C63 1.241 . S
O68 Co56 2.137 . S
O68 C59 1.247 1_455 S
O69 Co56 2.244 . S
O69 C59 1.272 1_455 S
O69 Co61 2.135 . S
Co70 O71 2.216 . S
Co70 O72 2.091 1_554 S
Co70 O74 2.004 . S
Co70 O80 2.021 . S
Co70 O82 2.137 . S
Co70 O83 2.244 . S
O71 Co70 2.216 . S
O71 C78 1.247 1_554 S
O72 Co70 2.091 1_556 S
O72 C78 1.261 . S
C73 O82 1.247 . S
C73 O83 1.272 . S
O74 Co70 2.004 . S
O74 C79 1.259 . S
Co75 O76 2.061 . S
Co75 O81 2.052 . S
Co75 O83 2.135 . S
O76 Co75 2.061 . S
O76 C79 1.235 . S
C77 O80 1.238 . S
C77 O81 1.241 . S
C78 O71 1.247 1_556 S
C78 O72 1.261 . S
C79 O74 1.259 . S
C79 O76 1.235 . S
O80 Co70 2.021 . S
O80 C77 1.238 . S
O81 Co75 2.052 . S
O81 C77 1.241 . S
O82 Co70 2.137 . S
O82 C73 1.247 . S
O83 Co70 2.244 . S
O83 C73 1.272 . S
O83 Co75 2.135 . S
Co84 O85 2.216 . S
Co84 O86 2.091 . S
Co84 O88 2.004 . S
Co84 O94 2.021 . S
Co84 O96 2.137 . S
Co84 O97 2.244 . S
O85 Co84 2.216 . S
O85 C92 1.247 . S
O86 Co84 2.091 . S
O86 C92 1.261 . S
C87 O96 1.247 . S
C87 O97 1.272 . S
O88 Co84 2.004 . S
O88 C93 1.259 . S
Co89 O90 2.061 . S
Co89 O95 2.052 . S
Co89 O97 2.135 . S
O90 Co89 2.061 . S
O90 C93 1.235 . S
C91 O94 1.238 . S
C91 O95 1.241 . S
C92 O85 1.247 . S
C92 O86 1.261 . S
C93 O88 1.259 . S
C93 O90 1.235 . S
O94 Co84 2.021 . S
O94 C91 1.238 . S
O95 Co89 2.052 . S
O95 C91 1.241 . S
O96 Co84 2.137 . S
O96 C87 1.247 . S
O97 Co84 2.244 . S
O97 C87 1.272 . S
O97 Co89 2.135 . S
Co98 O99 2.216 . S
Co98 O100 2.091 . S
Co98 O102 2.004 . S
Co98 O108 2.021 . S
Co98 O110 2.137 . S
Co98 O111 2.244 . S
O99 Co98 2.216 . S
O99 C106 1.247 . S
O100 Co98 2.091 . S
O100 C106 1.261 . S
C101 O110 1.247 . S
C101 O111 1.272 . S
O102 Co98 2.004 . S
O102 C107 1.259 . S
Co103 O104 2.061 . S
Co103 O109 2.052 . S
Co103 O111 2.135 . S
O104 Co103 2.061 . S
O104 C107 1.235 . S
C105 O108 1.238 . S
C105 O109 1.241 . S
C106 O99 1.247 . S
C106 O100 1.261 . S
C107 O102 1.259 . S
C107 O104 1.235 . S
O108 Co98 2.021 . S
O108 C105 1.238 . S
O109 Co103 2.052 . S
O109 C105 1.241 . S
O110 Co98 2.137 . S
O110 C101 1.247 . S
O111 Co98 2.244 . S
O111 C101 1.272 . S
O111 Co103 2.135 . S
Co112 O113 2.216 . S
Co112 O114 2.091 . S
Co112 O116 2.004 . S
Co112 O122 2.021 . S
Co112 O124 2.137 . S
Co112 O125 2.244 . S
O113 Co112 2.216 . S
O113 C120 1.247 . S
O114 Co112 2.091 . S
O114 C120 1.261 . S
C115 O124 1.247 . S
C115 O125 1.272 . S
O116 Co112 2.004 . S
O116 C121 1.259 . S
Co117 O118 2.061 . S
Co117 O123 2.052 . S
Co117 O125 2.135 . S
O118 Co117 2.061 . S
O118 C121 1.235 . S
C119 O122 1.238 . S
C119 O123 1.241 . S
C120 O113 1.247 . S
C120 O114 1.261 . S
C121 O116 1.259 . S
C121 O118 1.235 . S
O122 Co112 2.021 . S
O122 C119 1.238 . S
O123 Co117 2.052 . S
O123 C119 1.241 . S
O124 Co112 2.137 . S
O124 C115 1.247 . S
O125 Co112 2.244 . S
O125 C115 1.272 . S
O125 Co117 2.135 . S
Co126 O127 2.216 . S
Co126 O128 2.091 1_554 S
Co126 O130 2.004 . S
Co126 O136 2.021 . S
Co126 O138 2.137 . S
Co126 O139 2.244 . S
O127 Co126 2.216 . S
O127 C134 1.247 1_554 S
O128 Co126 2.091 1_556 S
O128 C134 1.261 . S
C129 O138 1.247 . S
C129 O139 1.272 . S
O130 Co126 2.004 . S
O130 C135 1.259 . S
Co131 O132 2.061 . S
Co131 O137 2.052 . S
Co131 O139 2.135 . S
O132 Co131 2.061 . S
O132 C135 1.235 . S
C133 O136 1.238 . S
C133 O137 1.241 . S
C134 O127 1.247 1_556 S
C134 O128 1.261 . S
C135 O130 1.259 . S
C135 O132 1.235 . S
O136 Co126 2.021 . S
O136 C133 1.238 . S
O137 Co131 2.052 . S
O137 C133 1.241 . S
O138 Co126 2.137 . S
O138 C129 1.247 . S
O139 Co126 2.244 . S
O139 C129 1.272 . S
O139 Co131 2.135 . S
Co140 O141 2.216 . S
Co140 O142 2.091 . S
Co140 O144 2.004 . S
Co140 O150 2.021 1_554 S
Co140 O152 2.137 . S
Co140 O153 2.244 1_554 S
O141 Co140 2.216 . S
O141 C148 1.247 . S
O142 Co140 2.091 . S
O142 C148 1.261 . S
C143 O152 1.247 . S
C143 O153 1.272 1_554 S
O144 Co140 2.004 . S
O144 C149 1.259 1_554 S
Co145 O146 2.061 . S
Co145 O151 2.052 . S
Co145 O153 2.135 . S
O146 Co145 2.061 . S
O146 C149 1.235 . S
C147 O150 1.238 . S
C147 O151 1.241 . S
C148 O141 1.247 . S
C148 O142 1.261 . S
C149 O144 1.259 1_556 S
C149 O146 1.235 . S
O150 Co140 2.021 1_556 S
O150 C147 1.238 . S
O151 Co145 2.052 . S
O151 C147 1.241 . S
O152 Co140 2.137 . S
O152 C143 1.247 . S
O153 Co140 2.244 1_556 S
O153 C143 1.272 1_556 S
O153 Co145 2.135 . S
Co154 O155 2.216 . S
Co154 O156 2.091 . S
Co154 O158 2.004 . S
Co154 O164 2.021 . S
Co154 O166 2.137 . S
Co154 O167 2.244 . S
O155 Co154 2.216 . S
O155 C162 1.247 . S
O156 Co154 2.091 . S
O156 C162 1.261 . S
C157 O166 1.247 . S
C157 O167 1.272 . S
O158 Co154 2.004 . S
O158 C163 1.259 . S
Co159 O160 2.061 . S
Co159 O165 2.052 . S
Co159 O167 2.135 . S
O160 Co159 2.061 . S
O160 C163 1.235 . S
C161 O164 1.238 . S
C161 O165 1.241 . S
C162 O155 1.247 . S
C162 O156 1.261 . S
C163 O158 1.259 . S
C163 O160 1.235 . S
O164 Co154 2.021 . S
O164 C161 1.238 . S
O165 Co159 2.052 . S
O165 C161 1.241 . S
O166 Co154 2.137 . S
O166 C157 1.247 . S
O167 Co154 2.244 . S
O167 C157 1.272 . S
O167 Co159 2.135 . S
Co168 O169 2.216 . S
Co168 O170 2.091 . S
Co168 O172 2.004 . S
Co168 O178 2.021 . S
Co168 O180 2.137 . S
Co168 O181 2.244 . S
O169 Co168 2.216 . S
O169 C176 1.247 . S
O170 Co168 2.091 . S
O170 C176 1.261 . S
C171 O180 1.247 . S
C171 O181 1.272 . S
O172 Co168 2.004 . S
O172 C177 1.259 . S
Co173 O174 2.061 . S
Co173 O179 2.052 . S
Co173 O181 2.135 . S
O174 Co173 2.061 . S
O174 C177 1.235 . S
C175 O178 1.238 . S
C175 O179 1.241 . S
C176 O169 1.247 . S
C176 O170 1.261 . S
C177 O172 1.259 . S
C177 O174 1.235 . S
O178 Co168 2.021 . S
O178 C175 1.238 . S
O179 Co173 2.052 . S
O179 C175 1.241 . S
O180 Co168 2.137 . S
O180 C171 1.247 . S
O181 Co168 2.244 . S
O181 C171 1.272 . S
O181 Co173 2.135 . S
Co182 O183 2.216 . S
Co182 O184 2.091 . S
Co182 O186 2.004 . S
Co182 O192 2.021 . S
Co182 O194 2.137 . S
Co182 O195 2.244 . S
O183 Co182 2.216 . S
O183 C190 1.247 . S
O184 Co182 2.091 . S
O184 C190 1.261 . S
C185 O194 1.247 . S
C185 O195 1.272 . S
O186 Co182 2.004 . S
O186 C191 1.259 . S
Co187 O188 2.061 . S
Co187 O193 2.052 . S
Co187 O195 2.135 . S
O188 Co187 2.061 . S
O188 C191 1.235 . S
C189 O192 1.238 . S
C189 O193 1.241 . S
C190 O183 1.247 . S
C190 O184 1.261 . S
C191 O186 1.259 . S
C191 O188 1.235 . S
O192 Co182 2.021 . S
O192 C189 1.238 . S
O193 Co187 2.052 . S
O193 C189 1.241 . S
O194 Co182 2.137 . S
O194 C185 1.247 . S
O195 Co182 2.244 . S
O195 C185 1.272 . S
O195 Co187 2.135 . S
Co196 O197 2.216 . S
Co196 O198 2.091 . S
Co196 O200 2.004 . S
Co196 O206 2.021 . S
Co196 O208 2.137 . S
Co196 O209 2.244 . S
O197 Co196 2.216 . S
O197 C204 1.247 . S
O198 Co196 2.091 . S
O198 C204 1.261 . S
C199 O208 1.247 . S
C199 O209 1.272 . S
O200 Co196 2.004 . S
O200 C205 1.259 . S
Co201 O202 2.061 . S
Co201 O207 2.052 . S
Co201 O209 2.135 . S
O202 Co201 2.061 . S
O202 C205 1.235 . S
C203 O206 1.238 . S
C203 O207 1.241 . S
C204 O197 1.247 . S
C204 O198 1.261 . S
C205 O200 1.259 . S
C205 O202 1.235 . S
O206 Co196 2.021 . S
O206 C203 1.238 . S
O207 Co201 2.052 . S
O207 C203 1.241 . S
O208 Co196 2.137 . S
O208 C199 1.247 . S
O209 Co196 2.244 . S
O209 C199 1.272 . S
O209 Co201 2.135 . S
Co210 O211 2.216 . S
Co210 O212 2.091 . S
Co210 O214 2.004 . S
Co210 O220 2.021 . S
Co210 O222 2.137 . S
Co210 O223 2.244 . S
O211 Co210 2.216 . S
O211 C218 1.247 . S
O212 Co210 2.091 . S
O212 C218 1.261 . S
C213 O222 1.247 . S
C213 O223 1.272 . S
O214 Co210 2.004 . S
O214 C219 1.259 . S
Co215 O216 2.061 . S
Co215 O221 2.052 . S
Co215 O223 2.135 . S
O216 Co215 2.061 . S
O216 C219 1.235 . S
C217 O220 1.238 . S
C217 O221 1.241 . S
C218 O211 1.247 . S
C218 O212 1.261 . S
C219 O214 1.259 . S
C219 O216 1.235 . S
O220 Co210 2.021 . S
O220 C217 1.238 . S
O221 Co215 2.052 . S
O221 C217 1.241 . S
O222 Co210 2.137 . S
O222 C213 1.247 . S
O223 Co210 2.244 . S
O223 C213 1.272 . S
O223 Co215 2.135 . S
H224 C230 0.930 . S
H225 C233 0.930 . S
H226 C234 0.930 . S
H227 C235 0.930 . S
H228 C238 0.930 . S
H229 C239 0.930 . S
C230 H224 0.930 . S
C230 C231 1.355 . S
C230 C232 1.415 . S
C231 C230 1.355 . S
C231 C233 1.419 . S
C232 C230 1.415 . S
C232 C237 1.425 . S
C232 C239 1.409 . S
C233 H225 0.930 . S
C233 C231 1.419 . S
C233 C234 1.362 . S
C234 H226 0.930 . S
C234 C233 1.362 . S
C234 C237 1.409 . S
C235 H227 0.930 . S
C235 C236 1.355 . S
C235 C237 1.415 . S
C236 C235 1.355 . S
C236 C238 1.419 . S
C237 C232 1.425 . S
C237 C234 1.409 . S
C237 C235 1.415 . S
C238 H228 0.930 . S
C238 C236 1.419 . S
C238 C239 1.362 . S
C239 H229 0.930 . S
C239 C232 1.409 . S
C239 C238 1.362 . S
H240 C246 0.930 . S
H241 C249 0.930 . S
H242 C250 0.930 . S
H243 C251 0.930 . S
H244 C254 0.930 . S
H245 C255 0.930 . S
C246 H240 0.930 . S
C246 C247 1.355 . S
C246 C248 1.415 . S
C247 C246 1.355 . S
C247 C249 1.419 . S
C248 C246 1.415 . S
C248 C253 1.425 . S
C248 C255 1.409 . S
C249 H241 0.930 . S
C249 C247 1.419 . S
C249 C250 1.362 . S
C250 H242 0.930 . S
C250 C249 1.362 . S
C250 C253 1.409 . S
C251 H243 0.930 . S
C251 C252 1.355 . S
C251 C253 1.415 . S
C252 C251 1.355 . S
C252 C254 1.419 . S
C253 C248 1.425 . S
C253 C250 1.409 . S
C253 C251 1.415 . S
C254 H244 0.930 . S
C254 C252 1.419 . S
C254 C255 1.362 . S
C255 H245 0.930 . S
C255 C248 1.409 . S
C255 C254 1.362 . S
H256 C262 0.930 . S
H257 C265 0.930 . S
H258 C266 0.930 . S
H259 C267 0.930 . S
H260 C270 0.930 . S
H261 C271 0.930 . S
C262 H256 0.930 . S
C262 C263 1.355 . S
C262 C264 1.415 . S
C263 C262 1.355 . S
C263 C265 1.419 . S
C264 C262 1.415 . S
C264 C269 1.425 . S
C264 C271 1.409 . S
C265 H257 0.930 . S
C265 C263 1.419 . S
C265 C266 1.362 . S
C266 H258 0.930 . S
C266 C265 1.362 . S
C266 C269 1.409 . S
C267 H259 0.930 . S
C267 C268 1.355 . S
C267 C269 1.415 . S
C268 C267 1.355 . S
C268 C270 1.419 . S
C269 C264 1.425 . S
C269 C266 1.409 . S
C269 C267 1.415 . S
C270 H260 0.930 . S
C270 C268 1.419 . S
C270 C271 1.362 . S
C271 H261 0.930 . S
C271 C264 1.409 . S
C271 C270 1.362 . S
H272 C278 0.930 . S
H273 C281 0.930 1_554 S
H274 C282 0.930 1_554 S
H275 C283 0.930 . S
H276 C286 0.915 1_455 S
H277 C287 0.930 . S
C278 H272 0.930 . S
C278 C279 1.355 . S
C278 C280 1.415 . S
C279 C278 1.355 . S
C279 C281 1.419 . S
C280 C278 1.415 . S
C280 C285 1.425 . S
C280 C287 1.409 . S
C281 H273 0.930 1_556 S
C281 C279 1.419 . S
C281 C282 1.362 . S
C282 H274 0.930 1_556 S
C282 C281 1.362 . S
C282 C285 1.409 . S
C283 H275 0.930 . S
C283 C284 1.355 . S
C283 C285 1.415 . S
C284 C283 1.355 . S
C284 C286 1.419 . S
C285 C280 1.425 . S
C285 C282 1.409 . S
C285 C283 1.415 . S
C286 H276 0.915 1_655 S
C286 C284 1.419 . S
C286 C287 1.362 . S
C287 H277 0.930 . S
C287 C280 1.409 . S
C287 C286 1.362 . S
H288 C294 0.930 . S
H289 C297 0.930 . S
H290 C298 0.930 . S
H291 C299 0.930 . S
H292 C302 0.930 . S
H293 C303 0.930 . S
C294 H288 0.930 . S
C294 C295 1.355 . S
C294 C296 1.415 . S
C295 C294 1.355 . S
C295 C297 1.419 . S
C296 C294 1.415 . S
C296 C301 1.425 . S
C296 C303 1.409 . S
C297 H289 0.930 . S
C297 C295 1.419 . S
C297 C298 1.362 . S
C298 H290 0.930 . S
C298 C297 1.362 . S
C298 C301 1.409 . S
C299 H291 0.930 . S
C299 C300 1.355 . S
C299 C301 1.415 . S
C300 C299 1.355 . S
C300 C302 1.419 . S
C301 C296 1.425 . S
C301 C298 1.409 . S
C301 C299 1.415 . S
C302 H292 0.930 . S
C302 C300 1.419 . S
C302 C303 1.362 . S
C303 H293 0.930 . S
C303 C296 1.409 . S
C303 C302 1.362 . S
H304 C310 0.930 . S
H305 C313 0.936 . S
H306 C314 0.930 . S
H307 C315 0.930 . S
H308 C318 0.930 . S
H309 C319 0.930 . S
C310 H304 0.930 . S
C310 C311 1.355 . S
C310 C312 1.415 . S
C311 C310 1.355 . S
C311 C313 1.419 . S
C312 C310 1.415 . S
C312 C317 1.425 . S
C312 C319 1.409 . S
C313 H305 0.936 . S
C313 C311 1.419 . S
C313 C314 1.362 . S
C314 H306 0.930 . S
C314 C313 1.362 . S
C314 C317 1.409 . S
C315 H307 0.930 . S
C315 C316 1.355 . S
C315 C317 1.415 . S
C316 C315 1.355 . S
C316 C318 1.419 . S
C317 C312 1.425 . S
C317 C314 1.409 . S
C317 C315 1.415 . S
C318 H308 0.930 . S
C318 C316 1.419 . S
C318 C319 1.362 . S
C319 H309 0.930 . S
C319 C312 1.409 . S
C319 C318 1.362 . S
H320 C326 0.930 . S
H321 C329 0.930 . S
H322 C330 0.930 . S
H323 C331 0.930 . S
H324 C334 0.930 . S
H325 C335 0.930 . S
C326 H320 0.930 . S
C326 C327 1.355 . S
C326 C328 1.415 . S
C327 C326 1.355 . S
C327 C329 1.419 . S
C328 C326 1.415 . S
C328 C333 1.425 . S
C328 C335 1.409 . S
C329 H321 0.930 . S
C329 C327 1.419 . S
C329 C330 1.362 . S
C330 H322 0.930 . S
C330 C329 1.362 . S
C330 C333 1.409 . S
C331 H323 0.930 . S
C331 C332 1.355 . S
C331 C333 1.415 . S
C332 C331 1.355 . S
C332 C334 1.419 . S
C333 C328 1.425 . S
C333 C330 1.409 . S
C333 C331 1.415 . S
C334 H324 0.930 . S
C334 C332 1.419 . S
C334 C335 1.362 . S
C335 H325 0.930 . S
C335 C328 1.409 . S
C335 C334 1.362 . S
H336 C342 0.930 . S
H337 C345 0.930 . S
H338 C346 0.930 . S
H339 C347 0.930 . S
H340 C350 0.930 . S
H341 C351 0.930 . S
C342 H336 0.930 . S
C342 C343 1.355 . S
C342 C344 1.415 . S
C343 C342 1.355 . S
C343 C345 1.419 . S
C344 C342 1.415 . S
C344 C349 1.425 . S
C344 C351 1.409 . S
C345 H337 0.930 . S
C345 C343 1.419 . S
C345 C346 1.362 . S
C346 H338 0.930 . S
C346 C345 1.362 . S
C346 C349 1.409 . S
C347 H339 0.930 . S
C347 C348 1.355 . S
C347 C349 1.415 . S
C348 C347 1.355 . S
C348 C350 1.419 . S
C349 C344 1.425 . S
C349 C346 1.409 . S
C349 C347 1.415 . S
C350 H340 0.930 . S
C350 C348 1.419 . S
C350 C351 1.362 . S
C351 H341 0.930 . S
C351 C344 1.409 . S
C351 C350 1.362 . S
H352 C358 0.930 . S
H353 C361 0.930 . S
H354 C362 0.930 . S
H355 C363 0.930 . S
H356 C366 0.930 . S
H357 C367 0.930 1_554 S
C358 H352 0.930 . S
C358 C359 1.355 . S
C358 C360 1.415 . S
C359 C358 1.355 . S
C359 C361 1.419 . S
C360 C358 1.415 . S
C360 C365 1.425 . S
C360 C367 1.410 . S
C361 H353 0.930 . S
C361 C359 1.419 . S
C361 C362 1.362 . S
C362 H354 0.930 . S
C362 C361 1.362 . S
C362 C365 1.409 . S
C363 H355 0.930 . S
C363 C364 1.355 . S
C363 C365 1.415 . S
C364 C363 1.355 . S
C364 C366 1.419 1_556 S
C365 C360 1.425 . S
C365 C362 1.409 . S
C365 C363 1.415 . S
C366 H356 0.930 . S
C366 C364 1.419 1_554 S
C366 C367 1.362 1_554 S
C367 H357 0.930 1_556 S
C367 C360 1.410 . S
C367 C366 1.362 1_556 S
H368 C374 0.930 . S
H369 C377 0.930 . S
H370 C378 0.930 . S
H371 C379 0.930 . S
H372 C382 0.930 . S
H373 C383 0.930 . S
C374 H368 0.930 . S
C374 C375 1.355 . S
C374 C376 1.415 . S
C375 C374 1.355 . S
C375 C377 1.419 . S
C376 C374 1.415 . S
C376 C381 1.425 . S
C376 C383 1.409 . S
C377 H369 0.930 . S
C377 C375 1.419 . S
C377 C378 1.362 . S
C378 H370 0.930 . S
C378 C377 1.362 . S
C378 C381 1.409 . S
C379 H371 0.930 . S
C379 C380 1.355 . S
C379 C381 1.415 . S
C380 C379 1.355 . S
C380 C382 1.419 . S
C381 C376 1.425 . S
C381 C378 1.409 . S
C381 C379 1.415 . S
C382 H372 0.930 . S
C382 C380 1.419 . S
C382 C383 1.362 . S
C383 H373 0.930 . S
C383 C376 1.409 . S
C383 C382 1.362 . S
H384 C390 0.930 . S
H385 C393 0.930 . S
H386 C394 0.930 . S
H387 C395 0.930 . S
H388 C398 0.930 . S
H389 C399 0.930 . S
C390 H384 0.930 . S
C390 C391 1.355 . S
C390 C392 1.415 . S
C391 C390 1.355 . S
C391 C393 1.419 . S
C392 C390 1.415 . S
C392 C397 1.425 . S
C392 C399 1.409 . S
C393 H385 0.930 . S
C393 C391 1.419 . S
C393 C394 1.362 . S
C394 H386 0.930 . S
C394 C393 1.362 . S
C394 C397 1.409 . S
C395 H387 0.930 . S
C395 C396 1.355 . S
C395 C397 1.415 . S
C396 C395 1.355 . S
C396 C398 1.419 . S
C397 C392 1.425 . S
C397 C394 1.409 . S
C397 C395 1.415 . S
C398 H388 0.930 . S
C398 C396 1.419 . S
C398 C399 1.362 . S
C399 H389 0.930 . S
C399 C392 1.409 . S
C399 C398 1.362 . S
H400 C406 0.930 . S
H401 C409 0.930 . S
H402 C410 0.930 . S
H403 C411 0.930 . S
H404 C414 0.930 . S
H405 C415 0.930 . S
C406 H400 0.930 . S
C406 C407 1.355 . S
C406 C408 1.415 . S
C407 C406 1.355 . S
C407 C409 1.419 . S
C408 C406 1.415 . S
C408 C413 1.425 . S
C408 C415 1.409 . S
C409 H401 0.930 . S
C409 C407 1.419 . S
C409 C410 1.362 . S
C410 H402 0.930 . S
C410 C409 1.362 . S
C410 C413 1.409 . S
C411 H403 0.930 . S
C411 C412 1.355 . S
C411 C413 1.415 . S
C412 C411 1.355 . S
C412 C414 1.419 . S
C413 C408 1.425 . S
C413 C410 1.409 . S
C413 C411 1.415 . S
C414 H404 0.930 . S
C414 C412 1.419 . S
C414 C415 1.362 . S
C415 H405 0.930 . S
C415 C408 1.409 . S
C415 C414 1.362 . S
H416 C422 0.930 . S
H417 C425 0.930 . S
H418 C426 0.930 . S
H419 C427 0.930 . S
H420 C430 0.930 . S
H421 C431 0.930 . S
C422 H416 0.930 . S
C422 C423 1.355 . S
C422 C424 1.415 . S
C423 C422 1.355 . S
C423 C425 1.419 . S
C424 C422 1.415 . S
C424 C429 1.425 . S
C424 C431 1.409 . S
C425 H417 0.930 . S
C425 C423 1.419 . S
C425 C426 1.362 . S
C426 H418 0.930 . S
C426 C425 1.362 . S
C426 C429 1.409 . S
C427 H419 0.930 . S
C427 C428 1.355 . S
C427 C429 1.415 . S
C428 C427 1.355 . S
C428 C430 1.419 . S
C429 C424 1.425 . S
C429 C426 1.409 . S
C429 C427 1.415 . S
C430 H420 0.930 . S
C430 C428 1.419 . S
C430 C431 1.362 . S
C431 H421 0.930 . S
C431 C424 1.409 . S
C431 C430 1.362 . S
H432 C438 0.930 . S
H433 C441 0.930 . S
H434 C442 0.930 1_554 S
H435 C443 0.930 . S
H436 C446 0.930 . S
H437 C447 0.930 . S
C438 H432 0.930 . S
C438 C439 1.355 . S
C438 C440 1.415 . S
C439 C438 1.355 . S
C439 C441 1.419 . S
C440 C438 1.415 . S
C440 C445 1.425 . S
C440 C447 1.409 . S
C441 H433 0.930 . S
C441 C439 1.419 . S
C441 C442 1.362 . S
C442 H434 0.930 1_556 S
C442 C441 1.362 . S
C442 C445 1.409 . S
C443 H435 0.930 . S
C443 C444 1.355 1_554 S
C443 C445 1.415 1_554 S
C444 C443 1.355 1_556 S
C444 C446 1.419 . S
C445 C440 1.425 . S
C445 C442 1.409 . S
C445 C443 1.415 1_556 S
C446 H436 0.930 . S
C446 C444 1.419 . S
C446 C447 1.362 . S
C447 H437 0.930 . S
C447 C440 1.409 . S
C447 C446 1.362 . S
H448 C454 0.930 . S
H449 C457 0.930 . S
H450 C458 0.930 . S
H451 C459 0.930 . S
H452 C462 0.930 . S
H453 C463 0.930 . S
C454 H448 0.930 . S
C454 C455 1.355 . S
C454 C456 1.415 . S
C455 C454 1.355 . S
C455 C457 1.419 . S
C456 C454 1.415 . S
C456 C461 1.425 . S
C456 C463 1.409 . S
C457 H449 0.930 . S
C457 C455 1.419 . S
C457 C458 1.362 . S
C458 H450 0.930 . S
C458 C457 1.362 . S
C458 C461 1.409 . S
C459 H451 0.930 . S
C459 C460 1.355 . S
C459 C461 1.415 . S
C460 C459 1.355 . S
C460 C462 1.419 . S
C461 C456 1.425 . S
C461 C458 1.409 . S
C461 C459 1.415 . S
C462 H452 0.930 . S
C462 C460 1.419 . S
C462 C463 1.362 . S
C463 H453 0.930 . S
C463 C456 1.409 . S
C463 C462 1.362 . S
H464 C470 0.930 . S
H465 C473 0.930 . S
H466 C474 0.930 . S
H467 C475 0.930 . S
H468 C478 0.930 . S
H469 C479 0.930 . S
C470 H464 0.930 . S
C470 C471 1.355 . S
C470 C472 1.415 . S
C471 C470 1.355 . S
C471 C473 1.419 . S
C472 C470 1.415 . S
C472 C477 1.425 . S
C472 C479 1.409 . S
C473 H465 0.930 . S
C473 C471 1.419 . S
C473 C474 1.362 . S
C474 H466 0.930 . S
C474 C473 1.362 . S
C474 C477 1.409 . S
C475 H467 0.930 . S
C475 C476 1.355 . S
C475 C477 1.415 . S
C476 C475 1.355 . S
C476 C478 1.419 . S
C477 C472 1.425 . S
C477 C474 1.409 . S
C477 C475 1.415 . S
C478 H468 0.930 . S
C478 C476 1.419 . S
C478 C479 1.362 . S
C479 H469 0.930 . S
C479 C472 1.409 . S
C479 C478 1.362 . S
H480 C486 0.930 . S
H481 C489 0.930 . S
H482 C490 0.930 1_556 S
H483 C491 0.930 . S
H484 C494 0.930 . S
H485 C495 0.930 . S
C486 H480 0.930 . S
C486 C487 1.355 . S
C486 C488 1.415 . S
C487 C486 1.355 . S
C487 C489 1.419 . S
C488 C486 1.415 . S
C488 C493 1.425 . S
C488 C495 1.409 . S
C489 H481 0.930 . S
C489 C487 1.419 . S
C489 C490 1.362 . S
C490 H482 0.930 1_554 S
C490 C489 1.362 . S
C490 C493 1.409 . S
C491 H483 0.930 . S
C491 C492 1.355 . S
C491 C493 1.415 1_556 S
C492 C491 1.355 . S
C492 C494 1.419 1_556 S
C493 C488 1.425 . S
C493 C490 1.409 . S
C493 C491 1.415 1_554 S
C494 H484 0.930 . S
C494 C492 1.419 1_554 S
C494 C495 1.362 . S
C495 H485 0.930 . S
C495 C488 1.409 . S
C495 C494 1.362 . S
H496 C502 0.930 . S
H497 C505 0.930 . S
H498 C506 0.930 . S
H499 C507 0.930 . S
H500 C510 0.930 . S
H501 C511 0.930 . S
C502 H496 0.930 . S
C502 C503 1.355 . S
C502 C504 1.415 . S
C503 C502 1.355 . S
C503 C505 1.419 . S
C504 C502 1.415 . S
C504 C509 1.425 . S
C504 C511 1.409 . S
C505 H497 0.930 . S
C505 C503 1.419 . S
C505 C506 1.362 . S
C506 H498 0.930 . S
C506 C505 1.362 . S
C506 C509 1.409 . S
C507 H499 0.930 . S
C507 C508 1.355 . S
C507 C509 1.415 . S
C508 C507 1.355 . S
C508 C510 1.419 . S
C509 C504 1.425 . S
C509 C506 1.409 . S
C509 C507 1.415 . S
C510 H500 0.930 . S
C510 C508 1.419 . S
C510 C511 1.362 . S
C511 H501 0.930 . S
C511 C504 1.409 . S
C511 C510 1.362 . S
H512 C518 0.930 . S
H513 C521 0.930 . S
H514 C522 0.930 . S
H515 C523 0.930 . S
H516 C526 0.930 . S
H517 C527 0.930 . S
C518 H512 0.930 . S
C518 C519 1.355 . S
C518 C520 1.415 . S
C519 C518 1.355 . S
C519 C521 1.419 . S
C520 C518 1.415 . S
C520 C525 1.425 . S
C520 C527 1.409 . S
C521 H513 0.930 . S
C521 C519 1.419 . S
C521 C522 1.362 . S
C522 H514 0.930 . S
C522 C521 1.362 . S
C522 C525 1.409 . S
C523 H515 0.930 . S
C523 C524 1.355 . S
C523 C525 1.415 . S
C524 C523 1.355 . S
C524 C526 1.419 . S
C525 C520 1.425 . S
C525 C522 1.409 . S
C525 C523 1.415 . S
C526 H516 0.930 . S
C526 C524 1.419 . S
C526 C527 1.362 . S
C527 H517 0.930 . S
C527 C520 1.409 . S
C527 C526 1.362 . S
H528 C534 0.930 . S
H529 C537 0.930 . S
H530 C538 0.930 . S
H531 C539 0.930 . S
H532 C542 0.930 . S
H533 C543 0.930 . S
C534 H528 0.930 . S
C534 C535 1.355 . S
C534 C536 1.415 . S
C535 C534 1.355 . S
C535 C537 1.419 . S
C536 C534 1.415 . S
C536 C541 1.425 . S
C536 C543 1.409 . S
C537 H529 0.930 . S
C537 C535 1.419 . S
C537 C538 1.362 . S
C538 H530 0.930 . S
C538 C537 1.362 . S
C538 C541 1.409 . S
C539 H531 0.930 . S
C539 C540 1.355 . S
C539 C541 1.415 . S
C540 C539 1.355 . S
C540 C542 1.419 . S
C541 C536 1.425 . S
C541 C538 1.409 . S
C541 C539 1.415 . S
C542 H532 0.930 . S
C542 C540 1.419 . S
C542 C543 1.362 . S
C543 H533 0.930 . S
C543 C536 1.409 . S
C543 C542 1.362 . S
H544 C550 0.930 . S
H545 C553 0.930 . S
H546 C554 0.930 . S
H547 C555 0.930 . S
H548 C558 0.930 . S
H549 C559 0.930 . S
C550 H544 0.930 . S
C550 C551 1.355 . S
C550 C552 1.415 . S
C551 C550 1.355 . S
C551 C553 1.419 . S
C552 C550 1.415 . S
C552 C557 1.425 . S
C552 C559 1.409 . S
C553 H545 0.930 . S
C553 C551 1.419 . S
C553 C554 1.362 . S
C554 H546 0.930 . S
C554 C553 1.362 . S
C554 C557 1.409 . S
C555 H547 0.930 . S
C555 C556 1.355 . S
C555 C557 1.415 . S
C556 C555 1.355 . S
C556 C558 1.419 . S
C557 C552 1.425 . S
C557 C554 1.409 . S
C557 C555 1.415 . S
C558 H548 0.930 . S
C558 C556 1.419 . S
C558 C559 1.362 . S
C559 H549 0.930 . S
C559 C552 1.409 . S
C559 C558 1.362 . S
H560 C566 0.930 . S
H561 C569 0.930 . S
H562 C570 0.930 . S
H563 C571 0.930 . S
H564 C574 0.930 . S
H565 C575 0.930 . S
C566 H560 0.930 . S
C566 C567 1.355 . S
C566 C568 1.415 . S
C567 C566 1.355 . S
C567 C569 1.419 . S
C568 C566 1.415 . S
C568 C573 1.425 . S
C568 C575 1.409 . S
C569 H561 0.930 . S
C569 C567 1.419 . S
C569 C570 1.362 . S
C570 H562 0.930 . S
C570 C569 1.362 . S
C570 C573 1.409 . S
C571 H563 0.930 . S
C571 C572 1.355 . S
C571 C573 1.415 . S
C572 C571 1.355 . S
C572 C574 1.419 . S
C573 C568 1.425 . S
C573 C570 1.409 . S
C573 C571 1.415 . S
C574 H564 0.930 . S
C574 C572 1.419 . S
C574 C575 1.362 . S
C575 H565 0.930 . S
C575 C568 1.409 . S
C575 C574 1.362 . S
H576 C582 0.930 . S
H577 C585 0.930 . S
H578 C586 0.930 . S
H579 C587 0.930 . S
H580 C590 0.930 . S
H581 C591 0.930 . S
C582 H576 0.930 . S
C582 C583 1.355 . S
C582 C584 1.415 1_565 S
C583 C582 1.355 . S
C583 C585 1.419 . S
C584 C582 1.415 1_545 S
C584 C589 1.425 1_545 S
C584 C591 1.409 . S
C585 H577 0.930 . S
C585 C583 1.419 . S
C585 C586 1.362 . S
C586 H578 0.930 . S
C586 C585 1.362 . S
C586 C589 1.409 . S
C587 H579 0.930 . S
C587 C588 1.355 . S
C587 C589 1.415 1_545 S
C588 C587 1.355 . S
C588 C590 1.419 . S
C589 C584 1.425 1_565 S
C589 C586 1.409 . S
C589 C587 1.415 1_565 S
C590 H580 0.930 . S
C590 C588 1.419 . S
C590 C591 1.362 . S
C591 H581 0.930 . S
C591 C584 1.409 . S
C591 C590 1.362 . S
H592 C598 0.930 . S
H593 C601 0.930 . S
H594 C602 0.930 . S
H595 C603 0.930 . S
H596 C606 0.930 . S
H597 C607 0.930 . S
C598 H592 0.930 . S
C598 C599 1.355 1_554 S
C598 C600 1.415 . S
C599 C598 1.355 1_556 S
C599 C601 1.419 . S
C600 C598 1.415 . S
C600 C605 1.425 1_545 S
C600 C607 1.409 . S
C601 H593 0.930 . S
C601 C599 1.419 . S
C601 C602 1.362 1_545 S
C602 H594 0.930 . S
C602 C601 1.362 1_565 S
C602 C605 1.409 1_556 S
C603 H595 0.930 . S
C603 C604 1.355 . S
C603 C605 1.415 . S
C604 C603 1.355 . S
C604 C606 1.419 . S
C605 C600 1.425 1_565 S
C605 C602 1.409 1_554 S
C605 C603 1.415 . S
C606 H596 0.930 . S
C606 C604 1.419 . S
C606 C607 1.362 1_565 S
C607 H597 0.930 . S
C607 C600 1.409 . S
C607 C606 1.362 1_545 S
H608 C614 0.930 . S
H609 C617 0.930 1_655 S
H610 C618 0.930 . S
H611 C619 0.930 1_655 S
H612 C622 0.930 . S
H613 C623 0.930 . S
C614 H608 0.930 . S
C614 C615 1.355 . S
C614 C616 1.415 . S
C615 C614 1.355 . S
C615 C617 1.419 . S
C616 C614 1.415 . S
C616 C621 1.425 . S
C616 C623 1.409 . S
C617 H609 0.930 1_455 S
C617 C615 1.419 . S
C617 C618 1.362 1_455 S
C618 H610 0.930 . S
C618 C617 1.362 1_655 S
C618 C621 1.409 1_655 S
C619 H611 0.930 1_455 S
C619 C620 1.355 . S
C619 C621 1.415 . S
C620 C619 1.355 . S
C620 C622 1.419 . S
C621 C616 1.425 . S
C621 C618 1.409 1_455 S
C621 C619 1.415 . S
C622 H612 0.930 . S
C622 C620 1.419 . S
C622 C623 1.362 . S
C623 H613 0.930 . S
C623 C616 1.409 . S
C623 C622 1.362 . S
H624 C630 0.930 . S
H625 C633 0.930 . S
H626 C634 0.930 . S
H627 C635 0.930 . S
H628 C638 0.930 . S
H629 C639 0.930 . S
C630 H624 0.930 . S
C630 C631 1.355 . S
C630 C632 1.415 . S
C631 C630 1.355 . S
C631 C633 1.419 . S
C632 C630 1.415 . S
C632 C637 1.425 . S
C632 C639 1.409 . S
C633 H625 0.930 . S
C633 C631 1.419 . S
C633 C634 1.362 . S
C634 H626 0.930 . S
C634 C633 1.362 . S
C634 C637 1.409 . S
C635 H627 0.930 . S
C635 C636 1.355 . S
C635 C637 1.415 . S
C636 C635 1.355 . S
C636 C638 1.419 . S
C637 C632 1.425 . S
C637 C634 1.409 . S
C637 C635 1.415 . S
C638 H628 0.930 . S
C638 C636 1.419 . S
C638 C639 1.362 . S
C639 H629 0.930 . S
C639 C632 1.409 . S
C639 C638 1.362 . S
H640 C646 0.930 . S
H641 C649 0.930 . S
H642 C650 0.930 . S
H643 C651 0.930 . S
H644 C654 0.930 . S
H645 C655 0.930 . S
C646 H640 0.930 . S
C646 C647 1.355 . S
C646 C648 1.415 . S
C647 C646 1.355 . S
C647 C649 1.419 . S
C648 C646 1.415 . S
C648 C653 1.425 . S
C648 C655 1.409 . S
C649 H641 0.930 . S
C649 C647 1.419 . S
C649 C650 1.362 . S
C650 H642 0.930 . S
C650 C649 1.362 . S
C650 C653 1.409 . S
C651 H643 0.930 . S
C651 C652 1.355 . S
C651 C653 1.415 1_556 S
C652 C651 1.355 . S
C652 C654 1.419 . S
C653 C648 1.425 . S
C653 C650 1.409 . S
C653 C651 1.415 1_554 S
C654 H644 0.930 . S
C654 C652 1.419 . S
C654 C655 1.362 1_556 S
C655 H645 0.930 . S
C655 C648 1.409 . S
C655 C654 1.362 1_554 S
H656 C662 0.930 . S
H657 C665 0.930 . S
H658 C666 0.930 . S
H659 C667 0.930 . S
H660 C670 0.930 . S
H661 C671 0.930 . S
C662 H656 0.930 . S
C662 C663 1.355 . S
C662 C664 1.415 . S
C663 C662 1.355 . S
C663 C665 1.419 . S
C664 C662 1.415 . S
C664 C669 1.425 . S
C664 C671 1.409 . S
C665 H657 0.930 . S
C665 C663 1.419 . S
C665 C666 1.362 . S
C666 H658 0.930 . S
C666 C665 1.362 . S
C666 C669 1.409 . S
C667 H659 0.930 . S
C667 C668 1.355 . S
C667 C669 1.415 . S
C668 C667 1.355 . S
C668 C670 1.419 . S
C669 C664 1.425 . S
C669 C666 1.409 . S
C669 C667 1.415 . S
C670 H660 0.930 . S
C670 C668 1.419 . S
C670 C671 1.362 . S
C671 H661 0.930 . S
C671 C664 1.409 . S
C671 C670 1.362 . S
H672 C678 0.930 . S
H673 C681 0.930 . S
H674 C682 0.930 . S
H675 C683 0.930 . S
H676 C686 0.930 . S
H677 C687 0.930 . S
C678 H672 0.930 . S
C678 C679 1.355 . S
C678 C680 1.415 . S
C679 C678 1.355 . S
C679 C681 1.419 . S
C680 C678 1.415 . S
C680 C685 1.425 . S
C680 C687 1.409 . S
C681 H673 0.930 . S
C681 C679 1.419 . S
C681 C682 1.362 . S
C682 H674 0.930 . S
C682 C681 1.362 . S
C682 C685 1.409 . S
C683 H675 0.930 . S
C683 C684 1.355 . S
C683 C685 1.415 . S
C684 C683 1.355 . S
C684 C686 1.419 . S
C685 C680 1.425 . S
C685 C682 1.409 . S
C685 C683 1.415 . S
C686 H676 0.930 . S
C686 C684 1.419 . S
C686 C687 1.362 . S
C687 H677 0.930 . S
C687 C680 1.409 . S
C687 C686 1.362 . S
H688 C694 0.930 . S
H689 C697 0.930 . S
H690 C698 0.930 . S
H691 C699 0.930 . S
H692 C702 0.930 . S
H693 C703 0.930 . S
C694 H688 0.930 . S
C694 C695 1.355 . S
C694 C696 1.415 . S
C695 C694 1.355 . S
C695 C697 1.419 . S
C696 C694 1.415 . S
C696 C701 1.425 . S
C696 C703 1.409 . S
C697 H689 0.930 . S
C697 C695 1.419 . S
C697 C698 1.362 . S
C698 H690 0.930 . S
C698 C697 1.362 . S
C698 C701 1.409 . S
C699 H691 0.930 . S
C699 C700 1.355 . S
C699 C701 1.415 . S
C700 C699 1.355 . S
C700 C702 1.419 . S
C701 C696 1.425 . S
C701 C698 1.409 . S
C701 C699 1.415 . S
C702 H692 0.930 . S
C702 C700 1.419 . S
C702 C703 1.362 . S
C703 H693 0.930 . S
C703 C696 1.409 . S
C703 C702 1.362 . S
H704 C710 0.930 . S
H705 C713 0.930 . S
H706 C714 0.930 . S
H707 C715 0.930 . S
H708 C718 0.930 . S
H709 C719 0.930 . S
C710 H704 0.930 . S
C710 C711 1.355 . S
C710 C712 1.409 1_565 S
C711 C710 1.355 . S
C711 C713 1.419 . S
C712 C710 1.409 1_545 S
C712 C717 1.425 1_545 S
C712 C719 1.415 . S
C713 H705 0.930 . S
C713 C711 1.419 . S
C713 C714 1.362 . S
C714 H706 0.930 . S
C714 C713 1.362 . S
C714 C717 1.415 . S
C715 H707 0.930 . S
C715 C716 1.355 . S
C715 C717 1.409 1_546 S
C716 C715 1.355 . S
C716 C718 1.419 . S
C717 C712 1.425 1_565 S
C717 C714 1.415 . S
C717 C715 1.409 1_564 S
C718 H708 0.930 . S
C718 C716 1.419 . S
C718 C719 1.362 1_556 S
C719 H709 0.930 . S
C719 C712 1.415 . S
C719 C718 1.362 1_554 S
H720 C726 0.934 . S
H721 C729 0.930 . S
H722 C730 0.930 . S
H723 C731 0.933 . S
H724 C734 0.930 . S
H725 C735 0.930 . S
C726 H720 0.934 . S
C726 C727 1.355 . S
C726 C728 1.415 1_545 S
C727 C726 1.355 . S
C727 C729 1.419 . S
C728 C726 1.415 1_565 S
C728 C733 1.425 1_565 S
C728 C735 1.409 . S
C729 H721 0.930 . S
C729 C727 1.419 . S
C729 C730 1.362 . S
C730 H722 0.930 . S
C730 C729 1.362 . S
C730 C733 1.409 . S
C731 H723 0.933 . S
C731 C732 1.355 . S
C731 C733 1.415 1_565 S
C732 C731 1.355 . S
C732 C734 1.419 . S
C733 C728 1.425 1_545 S
C733 C730 1.409 . S
C733 C731 1.415 1_545 S
C734 H724 0.930 . S
C734 C732 1.419 . S
C734 C735 1.362 . S
C735 H725 0.930 . S
C735 C728 1.409 . S
C735 C734 1.362 . S
C231 C135 1.480 . S
C236 C9 1.455 . S
C247 C205 1.488 . S
C252 C23 1.456 . S
C263 C37 1.485 . S
C268 C121 1.468 . S
C279 C51 1.488 . S
C284 C219 1.460 1_655 S
C295 C65 1.456 . S
C300 C149 1.488 . S
C311 C191 1.470 1_655 S
C316 C79 1.483 . S
C327 C163 1.459 . S
C332 C93 1.488 . S
C343 C107 1.478 . S
C348 C177 1.476 . S
C359 C59 1.604 . S
C364 C45 1.598 1_556 S
C375 C171 1.603 . S
C380 C115 1.598 . S
C391 C87 1.582 . S
C396 C17 1.594 . S
C407 C129 1.565 . S
C412 C185 1.577 . S
C423 C3 1.604 . S
C428 C73 1.599 . S
C439 C213 1.556 . S
C444 C143 1.557 1_556 S
C455 C101 1.598 . S
C460 C31 1.603 . S
C471 C157 1.591 . S
C476 C199 1.578 . S
C487 C7 0.657 . S
C492 C63 0.678 . S
C503 C77 0.683 . S
C508 C21 0.734 . S
C519 C91 0.671 . S
C524 C35 0.718 . S
C535 C49 0.767 . S
C540 C105 0.786 . S
C551 C147 0.775 . S
C556 C119 0.785 . S
C567 C161 0.746 . S
C572 C133 0.694 . S
C583 C203 0.658 . S
C588 C175 0.675 . S
C599 C217 0.775 . S
C604 C189 0.785 . S
C615 C64 1.725 . S
C620 C8 1.716 . S
C631 C78 1.726 . S
C636 C22 1.716 . S
C647 C92 1.718 . S
C652 C36 1.737 . S
C663 C50 1.715 . S
C668 C106 1.727 . S
C679 C120 1.732 . S
C684 C148 1.730 . S
C695 C162 1.723 . S
C700 C134 1.736 . S
C711 C204 1.736 . S
C716 C176 1.715 . S
C727 C218 1.733 . S
C732 C190 1.728 . S
