# Generated by pormake.
# Topology smn, (6)-cn, num edge types: 1
# Building blocks:
#     Node 0, Type 0, BuildingBlock: OJICUG_clean_sbu_0, # of connection points: 6
#     Node 1, Type 0, BuildingBlock: OJICUG_clean_sbu_0, # of connection points: 6
#     Node 2, Type 0, BuildingBlock: OJICUG_clean_sbu_0, # of connection points: 6
#     Node 3, Type 0, BuildingBlock: OJICUG_clean_sbu_0, # of connection points: 6
#     Node 4, Type 0, BuildingBlock: OJICUG_clean_sbu_0, # of connection points: 6
#     Node 5, Type 0, BuildingBlock: OJICUG_clean_sbu_0, # of connection points: 6
#     Node 6, Type 0, BuildingBlock: OJICUG_clean_sbu_0, # of connection points: 6
#     Node 7, Type 0, BuildingBlock: OJICUG_clean_sbu_0, # of connection points: 6
#     Node 8, Type 0, BuildingBlock: OJICUG_clean_sbu_0, # of connection points: 6
#     Node 9, Type 0, BuildingBlock: OJICUG_clean_sbu_0, # of connection points: 6
#     Node 10, Type 0, BuildingBlock: OJICUG_clean_sbu_0, # of connection points: 6
#     Node 11, Type 0, BuildingBlock: OJICUG_clean_sbu_0, # of connection points: 6
#     Node 12, Type 0, BuildingBlock: OJICUG_clean_sbu_0, # of connection points: 6
#     Node 13, Type 0, BuildingBlock: OJICUG_clean_sbu_0, # of connection points: 6
#     Node 14, Type 0, BuildingBlock: OJICUG_clean_sbu_0, # of connection points: 6
#     Node 15, Type 0, BuildingBlock: OJICUG_clean_sbu_0, # of connection points: 6
#     Node 16, Type 0, BuildingBlock: OJICUG_clean_sbu_0, # of connection points: 6
#     Node 17, Type 0, BuildingBlock: OJICUG_clean_sbu_0, # of connection points: 6
#     Edge 18, Type (0, 0), BuildingBlock: XIVTED_clean_linker_0, # of connection points: 2
#     Edge 19, Type (0, 0), BuildingBlock: XIVTED_clean_linker_0, # of connection points: 2
#     Edge 20, Type (0, 0), BuildingBlock: XIVTED_clean_linker_0, # of connection points: 2
#     Edge 21, Type (0, 0), BuildingBlock: XIVTED_clean_linker_0, # of connection points: 2
#     Edge 22, Type (0, 0), BuildingBlock: XIVTED_clean_linker_0, # of connection points: 2
#     Edge 23, Type (0, 0), BuildingBlock: XIVTED_clean_linker_0, # of connection points: 2
#     Edge 24, Type (0, 0), BuildingBlock: XIVTED_clean_linker_0, # of connection points: 2
#     Edge 25, Type (0, 0), BuildingBlock: XIVTED_clean_linker_0, # of connection points: 2
#     Edge 26, Type (0, 0), BuildingBlock: XIVTED_clean_linker_0, # of connection points: 2
#     Edge 27, Type (0, 0), BuildingBlock: XIVTED_clean_linker_0, # of connection points: 2
#     Edge 28, Type (0, 0), BuildingBlock: XIVTED_clean_linker_0, # of connection points: 2
#     Edge 29, Type (0, 0), BuildingBlock: XIVTED_clean_linker_0, # of connection points: 2
#     Edge 30, Type (0, 0), BuildingBlock: XIVTED_clean_linker_0, # of connection points: 2
#     Edge 31, Type (0, 0), BuildingBlock: XIVTED_clean_linker_0, # of connection points: 2
#     Edge 32, Type (0, 0), BuildingBlock: XIVTED_clean_linker_0, # of connection points: 2
#     Edge 33, Type (0, 0), BuildingBlock: XIVTED_clean_linker_0, # of connection points: 2
#     Edge 34, Type (0, 0), BuildingBlock: XIVTED_clean_linker_0, # of connection points: 2
#     Edge 35, Type (0, 0), BuildingBlock: XIVTED_clean_linker_0, # of connection points: 2
#     Edge 36, Type (0, 0), BuildingBlock: XIVTED_clean_linker_0, # of connection points: 2
#     Edge 37, Type (0, 0), BuildingBlock: XIVTED_clean_linker_0, # of connection points: 2
#     Edge 38, Type (0, 0), BuildingBlock: XIVTED_clean_linker_0, # of connection points: 2
#     Edge 39, Type (0, 0), BuildingBlock: XIVTED_clean_linker_0, # of connection points: 2
#     Edge 40, Type (0, 0), BuildingBlock: XIVTED_clean_linker_0, # of connection points: 2
#     Edge 41, Type (0, 0), BuildingBlock: XIVTED_clean_linker_0, # of connection points: 2
#     Edge 42, Type (0, 0), BuildingBlock: XIVTED_clean_linker_0, # of connection points: 2
#     Edge 43, Type (0, 0), BuildingBlock: XIVTED_clean_linker_0, # of connection points: 2
#     Edge 44, Type (0, 0), BuildingBlock: XIVTED_clean_linker_0, # of connection points: 2
#     Edge 45, Type (0, 0), BuildingBlock: XIVTED_clean_linker_0, # of connection points: 2
#     Edge 46, Type (0, 0), BuildingBlock: XIVTED_clean_linker_0, # of connection points: 2
#     Edge 47, Type (0, 0), BuildingBlock: XIVTED_clean_linker_0, # of connection points: 2
#     Edge 48, Type (0, 0), BuildingBlock: XIVTED_clean_linker_0, # of connection points: 2
#     Edge 49, Type (0, 0), BuildingBlock: XIVTED_clean_linker_0, # of connection points: 2
#     Edge 50, Type (0, 0), BuildingBlock: XIVTED_clean_linker_0, # of connection points: 2
#     Edge 51, Type (0, 0), BuildingBlock: XIVTED_clean_linker_0, # of connection points: 2
#     Edge 52, Type (0, 0), BuildingBlock: XIVTED_clean_linker_0, # of connection points: 2
#     Edge 53, Type (0, 0), BuildingBlock: XIVTED_clean_linker_0, # of connection points: 2
#     Edge 54, Type (0, 0), BuildingBlock: XIVTED_clean_linker_0, # of connection points: 2
#     Edge 55, Type (0, 0), BuildingBlock: XIVTED_clean_linker_0, # of connection points: 2
#     Edge 56, Type (0, 0), BuildingBlock: XIVTED_clean_linker_0, # of connection points: 2
#     Edge 57, Type (0, 0), BuildingBlock: XIVTED_clean_linker_0, # of connection points: 2
#     Edge 58, Type (0, 0), BuildingBlock: XIVTED_clean_linker_0, # of connection points: 2
#     Edge 59, Type (0, 0), BuildingBlock: XIVTED_clean_linker_0, # of connection points: 2
#     Edge 60, Type (0, 0), BuildingBlock: XIVTED_clean_linker_0, # of connection points: 2
#     Edge 61, Type (0, 0), BuildingBlock: XIVTED_clean_linker_0, # of connection points: 2
#     Edge 62, Type (0, 0), BuildingBlock: XIVTED_clean_linker_0, # of connection points: 2
#     Edge 63, Type (0, 0), BuildingBlock: XIVTED_clean_linker_0, # of connection points: 2
#     Edge 64, Type (0, 0), BuildingBlock: XIVTED_clean_linker_0, # of connection points: 2
#     Edge 65, Type (0, 0), BuildingBlock: XIVTED_clean_linker_0, # of connection points: 2
#     Edge 66, Type (0, 0), BuildingBlock: XIVTED_clean_linker_0, # of connection points: 2
#     Edge 67, Type (0, 0), BuildingBlock: XIVTED_clean_linker_0, # of connection points: 2
#     Edge 68, Type (0, 0), BuildingBlock: XIVTED_clean_linker_0, # of connection points: 2
#     Edge 69, Type (0, 0), BuildingBlock: XIVTED_clean_linker_0, # of connection points: 2
#     Edge 70, Type (0, 0), BuildingBlock: XIVTED_clean_linker_0, # of connection points: 2
#     Edge 71, Type (0, 0), BuildingBlock: XIVTED_clean_linker_0, # of connection points: 2
# Relax obj value: 0.148
# Max RMSD: 0.236
# Mean RMSD: 0.236
data_MOF--net-smn--node1-OJICUG_clean_sbu_0--edge1-XIVTED_clean_linker_0
_symmetry_space_group_name_H-M    P1
_symmetry_Int_Tables_number       1
_symmetry_cell_setting            triclinic
loop_
_symmetry_equiv_pos_as_xyz
'x, y, z'
_cell_length_a     65.979408
_cell_length_b     65.980498
_cell_length_c     18.275601
_cell_angle_alpha  89.962526
_cell_angle_beta   90.061437
_cell_angle_gamma 120.02392
loop_
_atom_site_label
_atom_site_type_symbol
_atom_site_fract_x
_atom_site_fract_y
_atom_site_fract_z
_atom_type_partial_charge
Sc0 Sc 0.00765 0.17285 0.75129 0.0
Sc1 Sc 0.02054 0.22658 0.83019 0.0
Sc2 Sc 0.99025 0.20918 0.66285 0.0
O3 O 0.00615 0.20283 0.74804 0.0
C4 C 0.02113 0.19039 0.58669 0.0
C5 C 0.05697 0.20806 0.82246 0.0
C6 C 0.03554 0.25954 0.69145 0.0
C7 C 0.99241 0.17771 0.91311 0.0
C8 C 0.95734 0.15379 0.67934 0.0
C9 C 0.97328 0.22736 0.79589 0.0
O10 O 0.0207 0.17812 0.64109 0.0
O11 O 0.05101 0.22275 0.84268 0.0
O12 O 0.0172 0.24535 0.65639 0.0
O13 O 0.99445 0.16576 0.86184 0.0
O14 O 0.96125 0.17361 0.65629 0.0
O15 O 0.99195 0.23332 0.83162 0.0
O16 O 0.97239 0.15125 0.71499 0.0
O17 O 0.00092 0.19978 0.91002 0.0
O18 O 0.96898 0.21712 0.73412 0.0
O19 O 0.0433 0.18961 0.78757 0.0
O20 O 0.01101 0.20252 0.58596 0.0
O21 O 0.04038 0.25505 0.75477 0.0
Sc22 Sc 0.78518 0.80367 0.83297 0.0
Sc23 Sc 0.79611 0.78557 0.66239 0.0
Sc24 Sc 0.83655 0.8404 0.73478 0.0
O25 O 0.80585 0.80987 0.74331 0.0
C26 C 0.80598 0.85874 0.81473 0.0
C27 C 0.74831 0.78464 0.70287 0.0
C28 C 0.81494 0.83388 0.57572 0.0
C29 C 0.77963 0.75317 0.80349 0.0
C30 C 0.83666 0.82328 0.89766 0.0
C31 C 0.85099 0.80513 0.66526 0.0
O32 O 0.79071 0.83889 0.83946 0.0
O33 O 0.76109 0.77963 0.66366 0.0
O34 O 0.82809 0.84673 0.62709 0.0
O35 O 0.77688 0.76784 0.84083 0.0
O36 O 0.84679 0.83525 0.84093 0.0
O37 O 0.83036 0.78885 0.65065 0.0
O38 O 0.81446 0.81171 0.90525 0.0
O39 O 0.78742 0.75719 0.73825 0.0
O40 O 0.85516 0.82436 0.69319 0.0
O41 O 0.75445 0.79415 0.76586 0.0
O42 O 0.82307 0.86145 0.77618 0.0
O43 O 0.80289 0.81164 0.57942 0.0
Sc44 Sc 0.16855 0.00319 0.75011 0.0
Sc45 Sc 0.2046 0.98409 0.82929 0.0
Sc46 Sc 0.22163 0.01654 0.66612 0.0
O47 O 0.1982 0.00124 0.74842 0.0
C48 C 0.17236 0.9902 0.58441 0.0
C49 C 0.14883 0.95249 0.8166 0.0
C50 C 0.22128 0.96806 0.69166 0.0
C51 C 0.18777 0.01518 0.91402 0.0
C52 C 0.2039 0.0533 0.68524 0.0
C53 C 0.25572 0.02802 0.79898 0.0
O54 O 0.16097 0.99209 0.63765 0.0
O55 O 0.16851 0.95625 0.84053 0.0
O56 O 0.22804 0.98758 0.65985 0.0
O57 O 0.17425 0.0143 0.86274 0.0
O58 O 0.21822 0.04754 0.65972 0.0
O59 O 0.24145 0.00897 0.83053 0.0
O60 O 0.18584 0.03919 0.72073 0.0
O61 O 0.20044 0.00566 0.91015 0.0
O62 O 0.25054 0.03535 0.74143 0.0
O63 O 0.14661 0.96753 0.77999 0.0
O64 O 0.19434 0.99797 0.58619 0.0
O65 O 0.21027 0.96259 0.75228 0.0
Sc66 Sc -0.00057 0.83454 0.24984 0.0
Sc67 Sc 0.98734 0.78157 0.16745 0.0
Sc68 Sc 0.01767 0.79839 0.33496 0.0
O69 O 0.00151 0.80488 0.25079 0.0
C70 C 0.04993 0.85402 0.32043 0.0
C71 C 0.01439 0.83077 0.08647 0.0
C72 C 0.03493 0.7812 0.2 0.0
C73 C 0.95026 0.79917 0.17881 0.0
C74 C 0.98657 0.81636 0.41405 0.0
C75 C 0.97274 0.74791 0.30437 0.0
O76 O 0.03475 0.85636 0.28485 0.0
O77 O 0.00657 0.80881 0.08863 0.0
O78 O 0.03922 0.79117 0.26225 0.0
O79 O 0.96361 0.81731 0.21549 0.0
O80 O 0.99664 0.80419 0.41334 0.0
O81 O 0.96779 0.75273 0.24169 0.0
O82 O 0.98691 0.82888 0.36058 0.0
O83 O 0.95665 0.78505 0.15601 0.0
O84 O 0.99106 0.762 0.33975 0.0
O85 O 0.01204 0.84221 0.13872 0.0
O86 O 0.04631 0.83424 0.34304 0.0
O87 O 0.0162 0.77526 0.16463 0.0
Sc88 Sc 0.22445 0.20587 0.16699 0.0
Sc89 Sc 0.21171 0.22341 0.33584 0.0
Sc90 Sc 0.17184 0.16908 0.25929 0.0
O91 O 0.20276 0.19947 0.25412 0.0
C92 C 0.17377 0.18726 0.09671 0.0
C93 C 0.23004 0.25644 0.19648 0.0
C94 C 0.15693 0.204 0.32869 0.0
C95 C 0.25983 0.22425 0.30134 0.0
C96 C 0.2029 0.15066 0.18232 0.0
C97 C 0.19178 0.17457 0.42024 0.0
O98 O 0.19604 0.19827 0.09113 0.0
O99 O 0.22152 0.25221 0.2608 0.0
O100 O 0.15301 0.18488 0.30065 0.0
O101 O 0.25435 0.21497 0.23784 0.0
O102 O 0.18532 0.14801 0.21794 0.0
O103 O 0.20373 0.19684 0.418 0.0
O104 O 0.21885 0.17059 0.16028 0.0
O105 O 0.24664 0.22917 0.33875 0.0
O106 O 0.17933 0.16195 0.36733 0.0
O107 O 0.23302 0.24182 0.15963 0.0
O108 O 0.16282 0.17542 0.15277 0.0
O109 O 0.17746 0.22033 0.34407 0.0
Sc110 Sc 0.83858 0.00667 0.24755 0.0
Sc111 Sc 0.80127 0.02349 0.16366 0.0
Sc112 Sc 0.78506 0.99239 0.33079 0.0
O113 O 0.8083 0.00756 0.24738 0.0
C114 C 0.80397 0.95646 0.31379 0.0
C115 C 0.82111 0.99429 0.08245 0.0
C116 C 0.75126 0.97779 0.19352 0.0
C117 C 0.85662 0.05728 0.1805 0.0
C118 C 0.83426 0.01971 0.41264 0.0
C119 C 0.78279 0.0392 0.29985 0.0
O120 O 0.82215 0.97093 0.27944 0.0
O121 O 0.80834 0.0037 0.08384 0.0
O122 O 0.75601 0.97309 0.25667 0.0
O123 O 0.8594 0.04225 0.2152 0.0
O124 O 0.81219 0.01133 0.41097 0.0
O125 O 0.79244 0.04365 0.23705 0.0
O126 O 0.8459 0.01844 0.35915 0.0
O127 O 0.83672 0.05314 0.15722 0.0
O128 O 0.77814 0.02093 0.33617 0.0
O129 O 0.83367 0.99482 0.13607 0.0
O130 O 0.78904 0.96168 0.33761 0.0
O131 O 0.76535 0.99593 0.15753 0.0
Sc132 Sc 0.66776 0.50603 0.07725 0.0
Sc133 Sc 0.68507 0.56006 0.16309 0.0
Sc134 Sc 0.65533 0.54661 0.99422 0.0
O135 O 0.66939 0.53757 0.07825 0.0
C136 C 0.68271 0.5248 0.91384 0.0
C137 C 0.71833 0.53794 0.14648 0.0
C138 C 0.70203 0.59515 0.02936 0.0
C139 C 0.65502 0.51072 0.24206 0.0
C140 C 0.6186 0.4917 0.00576 0.0
C141 C 0.63977 0.56484 0.13118 0.0
O142 O 0.67994 0.51079 0.96584 0.0
O143 O 0.71422 0.55366 0.17025 0.0
O144 O 0.68373 0.58203 0.9926 0.0
O145 O 0.65565 0.49885 0.18825 0.0
O146 O 0.62503 0.51209 0.98157 0.0
O147 O 0.65784 0.56885 0.16762 0.0
O148 O 0.63181 0.48713 0.04415 0.0
O149 O 0.66451 0.53291 0.24142 0.0
O150 O 0.63523 0.55553 0.06778 0.0
O151 O 0.70334 0.52029 0.11083 0.0
O152 O 0.67525 0.53923 0.91603 0.0
O153 O 0.70621 0.58943 0.09173 0.0
Sc154 Sc 0.5025 0.16949 0.08116 0.0
Sc155 Sc 0.44853 0.13042 0.16193 0.0
Sc156 Sc 0.46567 0.11504 -0.00094 0.0
O157 O 0.47227 0.13835 0.08073 0.0
C158 C 0.48422 0.16366 0.91637 0.0
C159 C 0.46784 0.18532 0.14516 0.0
C160 C 0.41487 0.10887 0.02768 0.0
C161 C 0.49734 0.15161 0.24589 0.0
C162 C 0.52124 0.13781 0.01377 0.0
C163 C 0.44779 0.08183 0.13589 0.0
O164 O 0.49763 0.17577 0.9686 0.0
O165 O 0.45285 0.1652 0.16894 0.0
O166 O 0.42903 0.10391 0.99646 0.0
O167 O 0.50929 0.16501 0.19353 0.0
O168 O 0.50149 0.12241 0.98873 0.0
O169 O 0.44125 0.09479 0.16741 0.0
O170 O 0.52378 0.15502 0.0513 0.0
O171 O 0.47525 0.13803 0.24304 0.0
O172 O 0.45899 0.0873 0.07555 0.0
O173 O 0.48602 0.18896 0.111 0.0
O174 O 0.47095 0.14149 0.91904 0.0
O175 O 0.42004 0.12122 0.08555 0.0
Sc176 Sc 0.84247 0.34076 0.07797 0.0
Sc177 Sc 0.87803 0.32211 0.16474 0.0
Sc178 Sc 0.89491 0.35137 0.99533 0.0
O179 O 0.87179 0.33807 0.07944 0.0
C180 C 0.84549 0.32473 0.91542 0.0
C181 C 0.82232 0.29044 0.15023 0.0
C182 C 0.89453 0.30362 0.03121 0.0
C183 C 0.86069 0.35395 0.24211 0.0
C184 C 0.87834 0.38932 0.00515 0.0
C185 C 0.92894 0.36618 0.13151 0.0
O186 O 0.83446 0.32788 0.96722 0.0
O187 O 0.84197 0.29388 0.17371 0.0
O188 O 0.90057 0.32211 0.99448 0.0
O189 O 0.84822 0.35354 0.18838 0.0
O190 O 0.89201 0.38238 0.98215 0.0
O191 O 0.91458 0.34834 0.16826 0.0
O192 O 0.86029 0.37646 0.04283 0.0
O193 O 0.87274 0.34376 0.24202 0.0
O194 O 0.92417 0.3709 0.06839 0.0
O195 O 0.8203 0.30562 0.11356 0.0
O196 O 0.86734 0.33194 0.91749 0.0
O197 O 0.88475 0.29987 0.09364 0.0
Sc198 Sc 0.65592 0.12002 0.49465 0.0
Sc199 Sc 0.68628 0.13492 0.66309 0.0
Sc200 Sc 0.67146 0.17374 0.57937 0.0
O201 O 0.67121 0.14287 0.57904 0.0
C202 C 0.68569 0.1696 0.4158 0.0
C203 C 0.70187 0.11629 0.52704 0.0
C204 C 0.72128 0.19005 0.65075 0.0
C205 C 0.63987 0.08564 0.63068 0.0
C206 C 0.62147 0.14085 0.50779 0.0
C207 C 0.65725 0.15527 0.74288 0.0
O208 O 0.67599 0.14736 0.41613 0.0
O209 O 0.7062 0.12569 0.5902 0.0
O210 O 0.70664 0.19357 0.61662 0.0
O211 O 0.6356 0.09077 0.56742 0.0
O212 O 0.6363 0.15882 0.54227 0.0
O213 O 0.66669 0.14252 0.74206 0.0
O214 O 0.62585 0.12511 0.48621 0.0
O215 O 0.658 0.09934 0.66741 0.0
O216 O 0.65812 0.16803 0.68934 0.0
O217 O 0.68384 0.11211 0.4901 0.0
O218 O 0.68484 0.18143 0.4695 0.0
O219 O 0.71663 0.16978 0.67163 0.0
Sc220 Sc 0.88853 0.54299 0.493 0.0
Sc221 Sc 0.87134 0.55409 0.6651 0.0
Sc222 Sc 0.83455 0.50212 0.56952 0.0
O223 O 0.86482 0.53318 0.57575 0.0
C224 C 0.83933 0.5229 0.40996 0.0
C225 C 0.88966 0.59081 0.5344 0.0
C226 C 0.81616 0.53267 0.64996 0.0
C227 C 0.92188 0.5602 0.63241 0.0
C228 C 0.86986 0.48828 0.49679 0.0
C229 C 0.85278 0.50293 0.73127 0.0
O230 O 0.86159 0.53527 0.41187 0.0
O231 O 0.88078 0.58481 0.59819 0.0
O232 O 0.8134 0.51522 0.61322 0.0
O233 O 0.9177 0.55264 0.56685 0.0
O234 O 0.85071 0.48385 0.52595 0.0
O235 O 0.86369 0.52514 0.73839 0.0
O236 O 0.88583 0.50899 0.4816 0.0
O237 O 0.90715 0.56238 0.67128 0.0
O238 O 0.84091 0.49241 0.67479 0.0
O239 O 0.894 0.57782 0.49382 0.0
O240 O 0.82706 0.50997 0.46257 0.0
O241 O 0.83613 0.54851 0.6722 0.0
Sc242 Sc 0.46519 0.35102 0.49239 0.0
Sc243 Sc 0.45302 0.32182 0.66291 0.0
Sc244 Sc 0.50438 0.3352 0.5668 0.0
O245 O 0.47412 0.33596 0.574 0.0
C246 C 0.48325 0.32067 0.40702 0.0
C247 C 0.41678 0.30452 0.53082 0.0
C248 C 0.47272 0.28651 0.64727 0.0
C249 C 0.44842 0.36727 0.63186 0.0
C250 C 0.52027 0.38528 0.49662 0.0
C251 C 0.50449 0.35272 0.72942 0.0
O252 O 0.47181 0.33149 0.40995 0.0
O253 O 0.42252 0.30092 0.59423 0.0
O254 O 0.48998 0.30049 0.60847 0.0
O255 O 0.45662 0.37106 0.56715 0.0
O256 O 0.52391 0.36987 0.52483 0.0
O257 O 0.48227 0.34281 0.73587 0.0
O258 O 0.49982 0.38149 0.48206 0.0
O259 O 0.44521 0.34971 0.66938 0.0
O260 O 0.51453 0.35036 0.67329 0.0
O261 O 0.42992 0.32239 0.49228 0.0
O262 O 0.49591 0.32044 0.45914 0.0
O263 O 0.45782 0.29169 0.67133 0.0
Sc264 Sc 0.33655 0.83706 0.41584 0.0
Sc265 Sc 0.34992 0.8899 0.50255 0.0
Sc266 Sc 0.32045 0.875 0.33257 0.0
O267 O 0.33562 0.86733 0.41703 0.0
C268 C 0.35098 0.8563 0.25321 0.0
C269 C 0.38589 0.87095 0.48936 0.0
C270 C 0.36593 0.92469 0.36742 0.0
C271 C 0.32133 0.83985 0.5794 0.0
C272 C 0.28666 0.8196 0.3433 0.0
C273 C 0.30327 0.89212 0.46855 0.0
O274 O 0.35024 0.84348 0.30633 0.0
O275 O 0.38062 0.88597 0.5118 0.0
O276 O 0.34812 0.91085 0.3297 0.0
O277 O 0.32296 0.82858 0.52536 0.0
O278 O 0.29079 0.83974 0.32276 0.0
O279 O 0.32121 0.89658 0.50636 0.0
O280 O 0.30155 0.8165 0.37764 0.0
O281 O 0.33017 0.862 0.57984 0.0
O282 O 0.29956 0.88318 0.4048 0.0
O283 O 0.3717 0.85295 0.45367 0.0
O284 O 0.34098 0.86854 0.25403 0.0
O285 O 0.36997 0.91959 0.43103 0.0
Sc286 Sc 0.11966 0.46516 0.50486 0.0
Sc287 Sc 0.13703 0.45374 0.33361 0.0
Sc288 Sc 0.17415 0.50542 0.42995 0.0
O289 O 0.14359 0.47467 0.42286 0.0
C290 C 0.13915 0.52006 0.50045 0.0
C291 C 0.08656 0.44802 0.36514 0.0
C292 C 0.15664 0.50506 0.26722 0.0
C293 C 0.11824 0.41713 0.46453 0.0
C294 C 0.16841 0.48441 0.58959 0.0
C295 C 0.19213 0.47443 0.35054 0.0
O296 O 0.12294 0.49946 0.51577 0.0
O297 O 0.10124 0.44557 0.32687 0.0
O298 O 0.16868 0.51535 0.32372 0.0
O299 O 0.11375 0.43017 0.50432 0.0
O300 O 0.181 0.49737 0.53754 0.0
O301 O 0.17219 0.45904 0.32664 0.0
O302 O 0.14615 0.47233 0.58685 0.0
O303 O 0.12739 0.42305 0.40102 0.0
O304 O 0.195 0.49173 0.38825 0.0
O305 O 0.09077 0.45587 0.43034 0.0
O306 O 0.15827 0.52416 0.4718 0.0
O307 O 0.14504 0.48283 0.26048 0.0
Sc308 Sc 0.50333 0.67225 0.41812 0.0
Sc309 Sc 0.54223 0.65804 0.50491 0.0
Sc310 Sc 0.55773 0.68857 0.33729 0.0
O311 O 0.53442 0.67295 0.42011 0.0
C312 C 0.50865 0.65763 0.25634 0.0
C313 C 0.48728 0.62266 0.49144 0.0
C314 C 0.56189 0.64299 0.37046 0.0
C315 C 0.52141 0.68723 0.58153 0.0
C316 C 0.53596 0.72219 0.34566 0.0
C317 C 0.59118 0.705 0.47544 0.0
O318 O 0.49628 0.65817 0.30895 0.0
O319 O 0.5076 0.62744 0.51211 0.0
O320 O 0.56623 0.66116 0.33422 0.0
O321 O 0.50885 0.68627 0.52721 0.0
O322 O 0.5522 0.71821 0.32717 0.0
O323 O 0.5776 0.68656 0.511 0.0
O324 O 0.51772 0.70717 0.37855 0.0
O325 O 0.53399 0.67758 0.58236 0.0
O326 O 0.5863 0.7093 0.41189 0.0
O327 O 0.48362 0.63722 0.45739 0.0
O328 O 0.53094 0.66804 0.25769 0.0
O329 O 0.55206 0.6383 0.43299 0.0
Sc330 Sc 0.33934 0.503 0.91994 0.0
Sc331 Sc 0.32463 0.44943 0.83624 0.0
Sc332 Sc 0.35548 0.46521 0.00399 0.0
O333 O 0.33983 0.47252 0.92007 0.0
C334 C 0.3896 0.52054 0.98973 0.0
C335 C 0.35319 0.49882 0.7559 0.0
C336 C 0.37126 0.44685 0.86757 0.0
C337 C 0.28926 0.46905 0.85087 0.0
C338 C 0.32593 0.48493 0.0841 0.0
C339 C 0.30965 0.41535 0.97261 0.0
O340 O 0.37466 0.52348 0.95512 0.0
O341 O 0.34399 0.47664 0.75683 0.0
O342 O 0.37572 0.45641 0.93059 0.0
O343 O 0.30389 0.48722 0.88494 0.0
O344 O 0.33551 0.4723 0.08325 0.0
O345 O 0.30502 0.42026 0.90961 0.0
O346 O 0.32661 0.49756 0.03047 0.0
O347 O 0.29411 0.45371 0.8286 0.0
O348 O 0.32776 0.42933 0.00895 0.0
O349 O 0.35213 0.51057 0.80947 0.0
O350 O 0.38536 0.50052 0.01202 0.0
O351 O 0.35301 0.44229 0.83132 0.0
Sc352 Sc 0.55839 0.87941 0.83322 0.0
Sc353 Sc 0.54316 0.89447 0.0017 0.0
Sc354 Sc 0.5047 0.84089 0.91708 0.0
O355 O 0.53544 0.87161 0.91733 0.0
C356 C 0.50897 0.85937 0.7536 0.0
C357 C 0.56165 0.92884 0.86574 0.0
C358 C 0.48798 0.87403 0.9883 0.0
C359 C 0.59262 0.89781 0.96938 0.0
C360 C 0.53783 0.82418 0.84585 0.0
C361 C 0.52308 0.8449 0.08077 0.0
O362 O 0.53117 0.87216 0.75435 0.0
O363 O 0.55216 0.9237 0.92881 0.0
O364 O 0.48469 0.85607 0.95355 0.0
O365 O 0.58755 0.88837 0.90623 0.0
O366 O 0.51985 0.82089 0.88049 0.0
O367 O 0.53578 0.86713 0.08041 0.0
O368 O 0.55347 0.84435 0.82423 0.0
O369 O 0.57885 0.90213 0.006 0.0
O370 O 0.5103 0.83318 0.02703 0.0
O371 O 0.56607 0.91512 0.82917 0.0
O372 O 0.49712 0.84654 0.80703 0.0
O373 O 0.50813 0.88959 0.01034 0.0
Sc374 Sc 0.12952 0.68538 0.83373 0.0
Sc375 Sc 0.11351 0.65609 0.0031 0.0
Sc376 Sc 0.16592 0.66738 0.91821 0.0
O377 O 0.13634 0.66962 0.91828 0.0
C378 C 0.1469 0.65369 0.75506 0.0
C379 C 0.07905 0.64089 0.86799 0.0
C380 C 0.13085 0.61875 0.99271 0.0
C381 C 0.11311 0.70352 0.96848 0.0
C382 C 0.18519 0.71756 0.84538 0.0
C383 C 0.16327 0.68346 0.08097 0.0
O384 O 0.13484 0.66387 0.75577 0.0
O385 O 0.08404 0.63621 0.93084 0.0
O386 O 0.14873 0.63176 0.95457 0.0
O387 O 0.12271 0.7074 0.90572 0.0
O388 O 0.18767 0.7025 0.88118 0.0
O389 O 0.14132 0.67581 0.08 0.0
O390 O 0.16532 0.7139 0.82362 0.0
O391 O 0.10738 0.68504 0.00491 0.0
O392 O 0.17429 0.6806 0.0285 0.0
O393 O 0.09314 0.65886 0.8313 0.0
O394 O 0.15963 0.65423 0.8082 0.0
O395 O 0.11695 0.62538 0.01582 0.0
H396 H 0.02576 0.15642 0.51805 0.0
H397 H 0.1548 0.23866 0.40769 0.0
H398 H 0.0535 0.23105 0.52318 0.0
H399 H 0.11152 0.17377 0.29248 0.0
H400 H 0.11905 0.23728 0.45309 0.0
H401 H 0.05786 0.16243 0.43726 0.0
C402 C 0.03835 0.17401 0.50059 0.0
C403 C 0.03703 0.19325 0.52651 0.0
C404 C 0.11755 0.22364 0.41672 0.0
C405 C 0.07413 0.20036 0.43706 0.0
C406 C 0.13789 0.22438 0.39102 0.0
C407 C 0.13621 0.20603 0.34768 0.0
C408 C 0.09559 0.2043 0.39963 0.0
C409 C 0.11378 0.18804 0.32723 0.0
C410 C 0.05664 0.17747 0.45474 0.0
C411 C 0.05388 0.21578 0.50334 0.0
N412 N 0.09441 0.1874 0.35452 0.0
N413 N 0.07214 0.21881 0.4611 0.0
H414 H 0.83311 0.94033 0.27258 0.0
H415 H 0.77336 0.82527 0.51825 0.0
H416 H 0.76975 0.91999 0.39498 0.0
H417 H 0.84796 0.87046 0.49693 0.0
H418 H 0.76729 0.85145 0.43661 0.0
H419 H 0.83334 0.90579 0.31787 0.0
C420 C 0.81901 0.92847 0.30815 0.0
C421 C 0.80165 0.93345 0.33142 0.0
C422 C 0.78493 0.85522 0.44851 0.0
C423 C 0.80183 0.89365 0.38247 0.0
C424 C 0.78841 0.84025 0.49423 0.0
C425 C 0.8112 0.84583 0.51384 0.0
C426 C 0.8044 0.87547 0.42131 0.0
C427 C 0.83015 0.86563 0.48284 0.0
C428 C 0.81921 0.90874 0.33381 0.0
C429 C 0.78366 0.91707 0.37652 0.0
N430 N 0.82634 0.87981 0.43814 0.0
N431 N 0.78435 0.89795 0.40137 0.0
H432 H 0.13236 0.98541 0.52397 0.0
H433 H 0.08977 0.85843 0.38531 0.0
H434 H 0.18043 0.95921 0.50965 0.0
H435 H 0.05979 0.8992 0.30396 0.0
H436 H 0.1232 0.89457 0.43231 0.0
H437 H 0.10534 0.95382 0.44316 0.0
C438 C 0.13743 0.97331 0.50233 0.0
C439 C 0.15862 0.9749 0.52326 0.0
C440 C 0.10943 0.89554 0.40305 0.0
C441 C 0.12754 0.93831 0.43315 0.0
C442 C 0.09031 0.87493 0.37652 0.0
C443 C 0.07175 0.87567 0.34138 0.0
C444 C 0.10972 0.91688 0.39554 0.0
C445 C 0.07352 0.89764 0.33116 0.0
C446 C 0.12203 0.95527 0.4564 0.0
C447 C 0.16432 0.95868 0.49421 0.0
N448 N 0.09193 0.91726 0.35918 0.0
N449 N 0.14862 0.9407 0.45184 0.0
H450 H 0.22898 0.0469 0.97749 0.0
H451 H 0.16971 0.10534 0.21092 0.0
H452 H 0.15455 0.02026 0.98647 0.0
H453 H 0.23693 0.14663 0.10606 0.0
H454 H 0.16762 0.07 0.16279 0.0
H455 H 0.2351 0.07923 0.05857 0.0
C456 C 0.21391 0.04744 -0.00146 0.0
C457 C 0.19121 0.03096 0.97558 0.0
C458 C 0.18295 0.08679 0.15115 0.0
C459 C 0.19809 0.06762 0.0675 0.0
C460 C 0.18423 0.10705 0.17857 0.0
C461 C 0.20338 0.12917 0.16142 0.0
C462 C 0.201 0.08846 0.10682 0.0
C463 C 0.2217 0.13003 0.11988 0.0
C464 C 0.21745 0.06598 0.04395 0.0
C465 C 0.1723 0.03265 0.00303 0.0
N466 N 0.21998 0.10993 0.0934 0.0
N467 N 0.17617 0.05072 0.04746 0.0
H468 H 0.90186 0.0697 0.2116 0.0
H469 H 0.96131 0.18743 0.97933 0.0
H470 H 0.86071 0.09538 0.10413 0.0
H471 H 0.98598 0.13797 0.98048 0.0
H472 H 0.92899 0.16127 0.06024 0.0
H473 H 0.93725 0.1027 0.16257 0.0
C474 C 0.90019 0.08243 0.17863 0.0
C475 C 0.87809 0.07942 0.1608 0.0
C476 C 0.9418 0.15647 0.04385 0.0
C477 C 0.91884 0.11745 0.10538 0.0
C478 C 0.96033 0.17141 0.99845 0.0
C479 C 0.97628 0.16475 0.97338 0.0
C480 C 0.93964 0.1351 0.06546 0.0
C481 C 0.97401 0.14366 -0.00143 0.0
C482 C 0.92048 0.10125 0.15069 0.0
C483 C 0.87729 0.0968 0.11852 0.0
N484 N 0.95597 0.12954 0.04325 0.0
N485 N 0.89742 0.11504 0.09161 0.0
H486 H 0.87599 0.82253 0.86353 0.0
H487 H 0.92512 0.8181 0.23762 0.0
H488 H 0.83054 0.81296 0.04623 0.0
H489 H 0.92457 0.77468 0.06006 0.0
H490 H 0.89336 0.82094 0.17701 0.0
H491 H 0.89879 0.81156 0.9411 0.0
C492 C 0.871 0.81852 0.92048 0.0
C493 C 0.85145 0.81897 0.94876 0.0
C494 C 0.89985 0.81031 0.15268 0.0
C495 C 0.87759 0.80616 0.03761 0.0
C496 C 0.91798 0.80873 0.18685 0.0
C497 C 0.92777 0.79645 0.15313 0.0
C498 C 0.89202 0.80003 0.08384 0.0
C499 C 0.91773 0.78449 0.08776 0.0
C500 C 0.88386 0.8119 0.96429 0.0
C501 C 0.84559 0.81299 0.02263 0.0
N502 N 0.90081 0.78709 0.05426 0.0
N503 N 0.85888 0.8071 0.06523 0.0
H504 H 0.85263 0.77035 0.58543 0.0
H505 H 0.98369 0.85033 0.48891 0.0
H506 H 0.8964 0.83445 0.70375 0.0
H507 H 0.95264 0.77544 0.47187 0.0
H508 H 0.95145 0.84471 0.56823 0.0
H509 H 0.88815 0.77077 0.54258 0.0
C510 C 0.86959 0.78428 0.60322 0.0
C511 C 0.87151 0.80269 0.64672 0.0
C512 C 0.95195 0.82948 0.54861 0.0
C513 C 0.91191 0.8033 0.59789 0.0
C514 C 0.97035 0.83272 0.50366 0.0
C515 C 0.97077 0.81333 0.47468 0.0
C516 C 0.93346 0.8067 0.56228 0.0
C517 C 0.95295 0.7908 0.4942 0.0
C518 C 0.88981 0.78446 0.57903 0.0
C519 C 0.89398 0.82018 0.66874 0.0
N520 N 0.93462 0.78805 0.53557 0.0
N521 N 0.91326 0.82027 0.64304 0.0
H522 H 0.23845 0.08925 0.60371 0.0
H523 H 0.15795 0.13782 0.49622 0.0
H524 H 0.17528 0.07014 0.72563 0.0
H525 H 0.23274 0.18293 0.48165 0.0
H526 H 0.16396 0.1125 0.58072 0.0
H527 H 0.23781 0.12392 0.55807 0.0
C528 C 0.22471 0.0925 0.6219 0.0
C529 C 0.20661 0.07643 0.66727 0.0
C530 C 0.17906 0.12824 0.56046 0.0
C531 C 0.2057 0.11573 0.61483 0.0
C532 C 0.1756 0.14264 0.51246 0.0
C533 C 0.19487 0.16242 0.4827 0.0
C534 C 0.20194 0.13325 0.5764 0.0
C535 C 0.21746 0.16788 0.5044 0.0
C536 C 0.22442 0.11231 0.59606 0.0
C537 C 0.18937 0.08172 0.6896 0.0
N538 N 0.22044 0.15302 0.54873 0.0
N539 N 0.18907 0.10062 0.66192 0.0
H540 H 0.87334 0.02324 0.47538 0.0
H541 H 0.91781 0.15022 0.61527 0.0
H542 H 0.82647 0.05091 0.48728 0.0
H543 H 0.94654 0.10833 0.69652 0.0
H544 H 0.8839 0.11447 0.56859 0.0
H545 H 0.90027 0.05416 0.55815 0.0
C546 C 0.86851 0.03553 0.49693 0.0
C547 C 0.84773 0.03458 0.47474 0.0
C548 C 0.89749 0.11316 0.5978 0.0
C549 C 0.87871 0.07041 0.56709 0.0
C550 C 0.91689 0.13355 0.62412 0.0
C551 C 0.93526 0.13238 0.65898 0.0
C552 C 0.89671 0.09159 0.60527 0.0
C553 C 0.93297 0.11021 0.66942 0.0
C554 C 0.88386 0.05318 0.544 0.0
C555 C 0.84229 0.05099 0.5037 0.0
N556 N 0.91429 0.09078 0.64157 0.0
N557 N 0.85797 0.06862 0.54719 0.0
H558 H 0.85558 0.98979 0.01642 0.0
H559 H 0.77129 0.86222 0.88818 0.0
H560 H 0.7811 0.96308 0.01239 0.0
H561 H 0.8396 0.90418 0.79069 0.0
H562 H 0.77379 0.89819 0.93589 0.0
H563 H 0.85013 0.95821 0.93411 0.0
C564 C 0.83816 0.97757 0.99663 0.0
C565 C 0.81878 0.979 0.02069 0.0
C566 C 0.78799 0.89942 0.90291 0.0
C567 C 0.81229 0.94244 0.92922 0.0
C568 C 0.78664 0.87893 0.87601 0.0
C569 C 0.80539 0.88009 0.83624 0.0
C570 C 0.80839 0.92106 0.89106 0.0
C571 C 0.82478 0.9023 0.82167 0.0
C572 C 0.83503 0.95956 0.94989 0.0
C573 C 0.7965 0.96264 0.99427 0.0
N574 N 0.82595 0.92182 0.85015 0.0
N575 N 0.79375 0.94464 0.95113 0.0
H576 H 0.10379 0.9427 0.79711 0.0
H577 H 0.04452 0.82145 0.01176 0.0
H578 H 0.14409 0.91287 0.88391 0.0
H579 H 0.02047 0.87129 0.02591 0.0
H580 H 0.07607 0.8483 0.92992 0.0
H581 H 0.06835 0.90964 0.84605 0.0
C582 C 0.10523 0.92905 0.82547 0.0
C583 C 0.12711 0.93081 0.83742 0.0
C584 C 0.06356 0.85306 0.94991 0.0
C585 C 0.08638 0.8928 0.89284 0.0
C586 C 0.04546 0.83773 0.99591 0.0
C587 C 0.02996 0.84428 0.02569 0.0
C588 C 0.06577 0.87477 0.93259 0.0
C589 C 0.03215 0.86568 0.00434 0.0
C590 C 0.08493 0.91022 0.85344 0.0
C591 C 0.12767 0.91241 0.87424 0.0
N592 N 0.04981 0.88023 0.95916 0.0
N593 N 0.10756 0.89418 0.90117 0.0
H594 H 0.08552 0.23683 0.9307 0.0
H595 H 0.17376 0.18722 0.94464 0.0
H596 H 0.07991 0.18564 0.77255 0.0
H597 H 0.14322 0.20088 0.1334 0.0
H598 H 0.14924 0.19683 0.86508 0.0
H599 H 0.11828 0.23544 0.98779 0.0
C600 C 0.09147 0.22569 0.9069 0.0
C601 C 0.07962 0.21096 0.84768 0.0
C602 C 0.14817 0.1978 0.92399 0.0
C603 C 0.11711 0.20939 0.91277 0.0
C604 C 0.16201 0.19229 0.96904 0.0
C605 C 0.16005 0.19282 0.04533 0.0
C606 C 0.13317 0.20466 0.95612 0.0
C607 C 0.14485 0.19978 0.07474 0.0
C608 C 0.1101 0.22485 0.93972 0.0
C609 C 0.08828 0.19696 0.81905 0.0
N610 N 0.13211 0.2055 0.03019 0.0
N611 N 0.10638 0.19629 0.85242 0.0
H612 H 0.77068 0.49826 0.63161 0.0
H613 H 0.71483 0.56425 0.84269 0.0
H614 H 0.81274 0.56831 0.71726 0.0
H615 H 0.68684 0.48956 0.8512 0.0
H616 H 0.74645 0.56785 0.76311 0.0
H617 H 0.73576 0.49734 0.67882 0.0
C618 C 0.77263 0.51361 0.65954 0.0
C619 C 0.79484 0.53331 0.67145 0.0
C620 C 0.73308 0.55067 0.78133 0.0
C621 C 0.75467 0.53226 0.725 0.0
C622 C 0.71494 0.54855 0.82597 0.0
C623 C 0.69829 0.52655 0.85354 0.0
C624 C 0.7342 0.5306 0.76323 0.0
C625 C 0.69941 0.50682 0.83126 0.0
C626 C 0.75262 0.51299 0.68649 0.0
C627 C 0.79605 0.55266 0.70765 0.0
N628 N 0.71714 0.50932 0.78756 0.0
N629 N 0.77621 0.55161 0.73362 0.0
H630 H 0.51898 0.20118 0.84534 0.0
H631 H 0.43757 0.24926 0.72303 0.0
H632 H 0.44397 0.15671 0.85195 0.0
H633 H 0.50515 0.27305 0.6234 0.0
H634 H 0.43884 0.21524 0.77187 0.0
H635 H 0.51423 0.22794 0.7638 0.0
C636 C 0.50154 0.19681 0.82802 0.0
C637 C 0.48185 0.17673 0.85482 0.0
C638 C 0.45316 0.22777 0.73824 0.0
C639 C 0.47621 0.20761 0.76416 0.0
C640 C 0.4525 0.24723 0.71064 0.0
C641 C 0.47141 0.26427 0.66982 0.0
C642 C 0.47303 0.22562 0.72598 0.0
C643 C 0.49024 0.26057 0.65512 0.0
C644 C 0.49881 0.21207 0.78173 0.0
C645 C 0.45958 0.17193 0.8316 0.0
N646 N 0.49073 0.24191 0.68416 0.0
N647 N 0.45731 0.18756 0.78876 0.0
H648 H 0.80634 0.32082 0.85143 0.0
H649 H 0.7591 0.19221 0.7234 0.0
H650 H 0.85221 0.29185 0.84741 0.0
H651 H 0.73453 0.23587 0.62708 0.0
H652 H 0.79318 0.22759 0.77178 0.0
H653 H 0.77916 0.28921 0.77089 0.0
C654 C 0.81088 0.30806 0.83224 0.0
C655 C 0.8315 0.30892 0.85572 0.0
C656 C 0.78045 0.22931 0.73894 0.0
C657 C 0.80026 0.27239 0.76597 0.0
C658 C 0.76098 0.20915 0.71156 0.0
C659 C 0.74368 0.21096 0.67205 0.0
C660 C 0.78232 0.25126 0.72771 0.0
C661 C 0.74717 0.23346 0.658 0.0
C662 C 0.7954 0.29004 0.78643 0.0
C663 C 0.83655 0.29188 0.82984 0.0
N664 N 0.76584 0.25264 0.68686 0.0
N665 N 0.82076 0.27396 0.78749 0.0
H666 H 0.90498 0.48735 0.41683 0.0
H667 H 0.82642 0.3562 0.31701 0.0
H668 H 0.84079 0.44263 0.53333 0.0
H669 H 0.90141 0.38833 0.29989 0.0
H670 H 0.83151 0.38814 0.39687 0.0
H671 H 0.90511 0.45222 0.3728 0.0
C672 C 0.89114 0.47026 0.43396 0.0
C673 C 0.87256 0.46797 0.47736 0.0
C674 C 0.84689 0.38796 0.37709 0.0
C675 C 0.87258 0.428 0.42717 0.0
C676 C 0.84395 0.36973 0.33181 0.0
C677 C 0.86352 0.3697 0.3027 0.0
C678 C 0.86954 0.40666 0.39098 0.0
C679 C 0.88593 0.38773 0.32231 0.0
C680 C 0.89128 0.45027 0.4091 0.0
C681 C 0.8552 0.44535 0.4985 0.0
N682 N 0.88838 0.40588 0.36406 0.0
N683 N 0.85542 0.42629 0.47217 0.0
H684 H 0.52237 0.42333 0.42571 0.0
H685 H 0.6525 0.47319 0.31171 0.0
H686 H 0.566 0.39906 0.52405 0.0
H687 H 0.6217 0.51741 0.30666 0.0
H688 H 0.62083 0.44593 0.39152 0.0
H689 H 0.55789 0.45829 0.38225 0.0
C690 C 0.53933 0.42544 0.43894 0.0
C691 C 0.54112 0.40795 0.47725 0.0
C692 C 0.62125 0.46185 0.37442 0.0
C693 C 0.58158 0.44766 0.42766 0.0
C694 C 0.63934 0.4774 0.32915 0.0
C695 C 0.63965 0.4975 0.30322 0.0
C696 C 0.60294 0.46609 0.39169 0.0
C697 C 0.6221 0.50213 0.32642 0.0
C698 C 0.55956 0.44542 0.41444 0.0
C699 C 0.56362 0.41177 0.49345 0.0
N700 N 0.60406 0.48622 0.36814 0.0
N701 N 0.58289 0.43097 0.46757 0.0
H702 H 0.60849 0.17335 0.53668 0.0
H703 H 0.48904 0.11119 0.3121 0.0
H704 H 0.58338 0.10608 0.43297 0.0
H705 H 0.53623 0.18583 0.31409 0.0
H706 H 0.51639 0.10618 0.3911 0.0
H707 H 0.57459 0.17449 0.4899 0.0
C708 C 0.59574 0.15861 0.50485 0.0
C709 C 0.59912 0.13973 0.48765 0.0
C710 C 0.52042 0.12364 0.37543 0.0
C711 C 0.56001 0.14102 0.43468 0.0
C712 C 0.50477 0.12656 0.33124 0.0
C713 C 0.51046 0.14899 0.30686 0.0
C714 C 0.54154 0.14333 0.39645 0.0
C715 C 0.53124 0.16828 0.33182 0.0
C716 C 0.57638 0.15936 0.47821 0.0
C717 C 0.58169 0.1211 0.44684 0.0
N718 N 0.54608 0.165 0.37519 0.0
N719 N 0.5629 0.12229 0.42117 0.0
H720 H 0.52518 0.1034 0.94023 0.0
H721 H 0.65143 0.18929 0.80686 0.0
H722 H 0.56655 0.17169 0.03859 0.0
H723 H 0.62678 0.1152 0.81406 0.0
H724 H 0.61986 0.18327 0.89015 0.0
H725 H 0.56129 0.10658 0.89114 0.0
C726 C 0.54179 0.11887 0.95241 0.0
C727 C 0.54273 0.13743 0.99269 0.0
C728 C 0.62167 0.1684 0.87475 0.0
C729 C 0.58384 0.14124 0.93615 0.0
C730 C 0.63965 0.17185 0.82738 0.0
C731 C 0.64168 0.15273 0.80404 0.0
C732 C 0.60518 0.14558 0.8968 0.0
C733 C 0.62588 0.13041 0.83155 0.0
C734 C 0.56236 0.12062 0.92466 0.0
C735 C 0.56483 0.15701 0.00719 0.0
N736 N 0.6079 0.12733 0.87533 0.0
N737 N 0.58442 0.15858 0.97778 0.0
H738 H 0.90304 0.41455 0.88593 0.0
H739 H 0.86164 0.50876 0.88063 0.0
H740 H 0.86028 0.41528 0.06356 0.0
H741 H 0.85697 0.46558 0.69662 0.0
H742 H 0.8729 0.48527 0.95885 0.0
H743 H 0.90012 0.44631 0.82743 0.0
C744 C 0.89359 0.42179 0.9137 0.0
C745 C 0.88148 0.41193 0.97896 0.0
C746 C 0.86936 0.48115 0.90125 0.0
C747 C 0.87821 0.44822 0.91241 0.0
C748 C 0.86286 0.49436 0.85697 0.0
C749 C 0.85791 0.48878 0.78253 0.0
C750 C 0.8718 0.46309 0.86961 0.0
C751 C 0.86008 0.47019 0.75404 0.0
C752 C 0.89185 0.43981 0.88009 0.0
C753 C 0.86952 0.42212 0.01247 0.0
N754 N 0.86705 0.4582 0.7974 0.0
N755 N 0.86791 0.43959 0.97832 0.0
H756 H 0.59208 0.44873 0.07068 0.0
H757 H 0.54922 0.38743 0.7071 0.0
H758 H 0.59486 0.48886 0.88042 0.0
H759 H 0.49443 0.36103 0.8702 0.0
H760 H 0.57254 0.4214 0.78334 0.0
H761 H 0.56053 0.41339 0.01215 0.0
C762 C 0.58569 0.45022 0.01748 0.0
C763 C 0.59628 0.47172 0.9799 0.0
C764 C 0.55547 0.40804 0.80254 0.0
C765 C 0.56083 0.43157 0.91314 0.0
C766 C 0.54218 0.38844 0.75963 0.0
C767 C 0.51971 0.37118 0.78221 0.0
C768 C 0.54665 0.41035 0.86951 0.0
C769 C 0.51164 0.37388 0.85075 0.0
C770 C 0.56769 0.43012 0.98453 0.0
C771 C 0.58728 0.4727 0.91128 0.0
N772 N 0.52524 0.39315 0.89262 0.0
N773 N 0.57051 0.45275 0.87921 0.0
H774 H 0.43233 0.18706 0.21963 0.0
H775 H 0.44201 0.29213 0.33742 0.0
H776 H 0.49865 0.23106 0.11289 0.0
H777 H 0.51515 0.31252 0.33913 0.0
H778 H 0.43412 0.25937 0.25587 0.0
H779 H 0.43305 0.22234 0.26526 0.0
C780 C 0.44676 0.20406 0.20451 0.0
C781 C 0.46562 0.20601 0.16333 0.0
C782 C 0.4519 0.27125 0.27337 0.0
C783 C 0.46649 0.24631 0.21494 0.0
C784 C 0.45647 0.29009 0.31888 0.0
C785 C 0.47925 0.30487 0.34511 0.0
C786 C 0.47034 0.26755 0.25354 0.0
C787 C 0.49735 0.30138 0.32036 0.0
C788 C 0.44707 0.22419 0.23009 0.0
C789 C 0.48384 0.22857 0.14525 0.0
N790 N 0.49249 0.28301 0.27604 0.0
N791 N 0.48406 0.24777 0.17255 0.0
H792 H 0.77742 0.2808 0.12829 0.0
H793 H 0.71595 0.15969 0.34444 0.0
H794 H 0.817 0.25087 0.22007 0.0
H795 H 0.69249 0.21004 0.35329 0.0
H796 H 0.74834 0.18639 0.26443 0.0
H797 H 0.74166 0.24795 0.1763 0.0
C798 C 0.77865 0.26719 0.15764 0.0
C799 C 0.80043 0.26887 0.17112 0.0
C800 C 0.73577 0.19129 0.28279 0.0
C801 C 0.75927 0.23104 0.22556 0.0
C802 C 0.7172 0.17603 0.32762 0.0
C803 C 0.7016 0.18276 0.35528 0.0
C804 C 0.73833 0.21309 0.26449 0.0
C805 C 0.7042 0.20427 0.33311 0.0
C806 C 0.75815 0.24846 0.18507 0.0
C807 C 0.80068 0.25047 0.20914 0.0
N808 N 0.72228 0.21871 0.28906 0.0
N809 N 0.78037 0.23234 0.23553 0.0
H810 H 0.80129 0.48877 0.33936 0.0
H811 H 0.75686 0.57291 0.21809 0.0
H812 H 0.84775 0.56348 0.34446 0.0
H813 H 0.73054 0.50471 0.11979 0.0
H814 H 0.79068 0.57073 0.26402 0.0
H815 H 0.77527 0.4944 0.25705 0.0
C816 C 0.80624 0.50632 0.32156 0.0
C817 C 0.82663 0.52568 0.34823 0.0
C818 C 0.77765 0.55648 0.23123 0.0
C819 C 0.79665 0.53236 0.25663 0.0
C820 C 0.7583 0.55765 0.20528 0.0
C821 C 0.74057 0.53881 0.16604 0.0
C822 C 0.779 0.53617 0.21885 0.0
C823 C 0.74354 0.51957 0.15059 0.0
C824 C 0.79142 0.50955 0.27478 0.0
C825 C 0.83224 0.54811 0.3243 0.0
N826 N 0.76212 0.51858 0.17811 0.0
N827 N 0.81702 0.55092 0.28103 0.0
H828 H 0.35646 0.82296 0.18342 0.0
H829 H 0.48496 0.90785 0.06926 0.0
H830 H 0.38298 0.89738 0.19047 0.0
H831 H 0.44253 0.84261 0.95479 0.0
H832 H 0.44896 0.90524 0.11741 0.0
H833 H 0.38872 0.82975 0.10209 0.0
C834 C 0.36881 0.84067 0.16634 0.0
C835 C 0.36707 0.85962 0.19294 0.0
C836 C 0.44768 0.89179 0.08061 0.0
C837 C 0.40438 0.86761 0.10274 0.0
C838 C 0.46818 0.89322 0.05332 0.0
C839 C 0.46687 0.87522 0.00899 0.0
C840 C 0.4259 0.87206 0.06435 0.0
C841 C 0.44456 0.85674 0.98975 0.0
C842 C 0.3872 0.84456 0.12017 0.0
C843 C 0.38365 0.88231 0.17015 0.0
N844 N 0.42503 0.85542 0.01865 0.0
N845 N 0.402 0.88577 0.12751 0.0
H846 H 0.1426 0.49619 0.12184 0.0
H847 H 0.10822 0.59462 0.11576 0.0
H848 H 0.16027 0.547 0.29474 0.0
H849 H 0.14819 0.59244 0.93202 0.0
H850 H 0.11216 0.5634 0.17412 0.0
H851 H 0.13193 0.52009 0.04355 0.0
C852 C 0.14445 0.51236 0.14299 0.0
C853 C 0.15262 0.51974 0.21459 0.0
C854 C 0.11953 0.56943 0.12015 0.0
C855 C 0.13948 0.54609 0.12761 0.0
C856 C 0.11721 0.58713 0.08664 0.0
C857 C 0.12824 0.59641 0.0195 0.0
C858 C 0.13255 0.56068 0.08573 0.0
C859 C 0.13974 0.586 0.98442 0.0
C860 C 0.13827 0.52581 0.09865 0.0
C861 C 0.15443 0.54072 0.23968 0.0
N862 N 0.14185 0.56878 0.01838 0.0
N863 N 0.14763 0.55293 0.19666 0.0
H864 H 0.40299 0.56571 0.95421 0.0
H865 H 0.51896 0.6263 0.1951 0.0
H866 H 0.42681 0.52461 0.07171 0.0
H867 H 0.46937 0.65069 0.18526 0.0
H868 H 0.49321 0.59329 0.11524 0.0
H869 H 0.4358 0.60118 0.00354 0.0
C870 C 0.41527 0.56405 0.98954 0.0
C871 C 0.41176 0.54195 0.01002 0.0
C872 C 0.48831 0.60619 0.12945 0.0
C873 C 0.44963 0.58283 0.06577 0.0
C874 C 0.50302 0.6251 0.17415 0.0
C875 C 0.4962 0.64119 0.19629 0.0
C876 C 0.46704 0.60384 0.1056 0.0
C877 C 0.4752 0.63865 0.16917 0.0
C878 C 0.43399 0.58439 0.0176 0.0
C879 C 0.42862 0.54119 0.05517 0.0
N880 N 0.46134 0.62028 0.12514 0.0
N881 N 0.44679 0.56139 0.08219 0.0
H882 H 0.57209 0.82112 0.76753 0.0
H883 H 0.48752 0.6931 0.64606 0.0
H884 H 0.50565 0.77868 0.8756 0.0
H885 H 0.56185 0.71892 0.64827 0.0
H886 H 0.49372 0.72537 0.72656 0.0
H887 H 0.56951 0.78514 0.719 0.0
C888 C 0.55719 0.80434 0.78196 0.0
C889 C 0.53889 0.80303 0.82471 0.0
C890 C 0.50862 0.72369 0.71065 0.0
C891 C 0.53576 0.76212 0.76886 0.0
C892 C 0.50506 0.7053 0.66495 0.0
C893 C 0.52417 0.70335 0.64123 0.0
C894 C 0.53152 0.74065 0.7305 0.0
C895 C 0.54665 0.71973 0.66634 0.0
C896 C 0.55577 0.78386 0.75446 0.0
C897 C 0.52005 0.78072 0.842 0.0
N898 N 0.54981 0.73808 0.70847 0.0
N899 N 0.51877 0.76123 0.81291 0.0
H900 H 0.31623 0.79976 0.63928 0.0
H901 H 0.18929 0.75711 0.77939 0.0
H902 H 0.28994 0.84777 0.65248 0.0
H903 H 0.23046 0.72756 0.86062 0.0
H904 H 0.22523 0.79045 0.73101 0.0
H905 H 0.28459 0.77276 0.71988 0.0
C906 C 0.30406 0.80479 0.66056 0.0
C907 C 0.30567 0.82597 0.63957 0.0
C908 C 0.22633 0.77679 0.76052 0.0
C909 C 0.26904 0.79493 0.72948 0.0
C910 C 0.20584 0.75772 0.78783 0.0
C911 C 0.20674 0.73931 0.82337 0.0
C912 C 0.24773 0.77718 0.76767 0.0
C913 C 0.22877 0.74118 0.83313 0.0
C914 C 0.286 0.78941 0.7064 0.0
C915 C 0.28938 0.83166 0.66809 0.0
N916 N 0.24827 0.75953 0.8044 0.0
N917 N 0.27139 0.81597 0.71046 0.0
H918 H 0.20543 0.51774 0.66604 0.0
H919 H 0.25259 0.43489 0.77002 0.0
H920 H 0.16016 0.44307 0.64807 0.0
H921 H 0.27411 0.49935 0.88757 0.0
H922 H 0.21842 0.43652 0.72418 0.0
H923 H 0.23106 0.51125 0.74764 0.0
C924 C 0.20064 0.5 0.68096 0.0
C925 C 0.18069 0.48092 0.65106 0.0
C926 C 0.23047 0.45001 0.76116 0.0
C927 C 0.21026 0.47329 0.74149 0.0
C928 C 0.25 0.44914 0.78712 0.0
C929 C 0.26656 0.46724 0.83155 0.0
C930 C 0.2278 0.46927 0.7789 0.0
C931 C 0.26213 0.48519 0.85238 0.0
C932 C 0.21524 0.49627 0.72727 0.0
C933 C 0.1753 0.45821 0.67101 0.0
N934 N 0.24347 0.48597 0.82479 0.0
N935 N 0.19033 0.45497 0.71378 0.0
H936 H 0.23766 0.50762 0.37614 0.0
H937 H 0.29435 0.44475 0.1527 0.0
H938 H 0.19543 0.43956 0.27714 0.0
H939 H 0.32135 0.5193 0.15066 0.0
H940 H 0.26243 0.44 0.23338 0.0
H941 H 0.27265 0.5088 0.32857 0.0
C942 C 0.23567 0.49273 0.34523 0.0
C943 C 0.2134 0.47359 0.32955 0.0
C944 C 0.27568 0.45739 0.21644 0.0
C945 C 0.25367 0.47492 0.27571 0.0
C946 C 0.29398 0.46016 0.17125 0.0
C947 C 0.31041 0.48247 0.14531 0.0
C948 C 0.27427 0.47714 0.23678 0.0
C949 C 0.30896 0.50183 0.16958 0.0
C950 C 0.25573 0.4935 0.31813 0.0
C951 C 0.21216 0.45479 0.28972 0.0
N952 N 0.29114 0.49872 0.2139 0.0
N953 N 0.23206 0.45599 0.26362 0.0
H954 H 0.57261 0.76138 0.28195 0.0
H955 H 0.5624 0.85633 0.16077 0.0
H956 H 0.50158 0.7335 0.35826 0.0
H957 H 0.49004 0.80273 0.13553 0.0
H958 H 0.56855 0.82991 0.24046 0.0
H959 H 0.57156 0.79551 0.23357 0.0
C960 C 0.55697 0.76258 0.28965 0.0
C961 C 0.5371 0.74438 0.32368 0.0
C962 C 0.55131 0.82407 0.21793 0.0
C963 C 0.53584 0.78337 0.26904 0.0
C964 C 0.54768 0.83922 0.17349 0.0
C965 C 0.52569 0.83157 0.14122 0.0
C966 C 0.53272 0.8013 0.23056 0.0
C967 C 0.50729 0.8092 0.15887 0.0
C968 C 0.55646 0.78217 0.26261 0.0
C969 C 0.51731 0.74695 0.33211 0.0
N970 N 0.51123 0.79482 0.20222 0.0
N971 N 0.51705 0.76581 0.3038 0.0
H972 H 0.24818 0.81649 0.2723 0.0
H973 H 0.20306 0.68827 0.14286 0.0
H974 H 0.27476 0.77405 0.3649 0.0
H975 H 0.156 0.71582 0.15015 0.0
H976 H 0.23019 0.72019 0.22253 0.0
H977 H 0.21443 0.78071 0.22446 0.0
C978 C 0.24682 0.79973 0.28338 0.0
C979 C 0.26456 0.79839 0.32177 0.0
C980 C 0.21371 0.71898 0.2079 0.0
C981 C 0.2263 0.75764 0.26678 0.0
C982 C 0.19826 0.70078 0.1626 0.0
C983 C 0.17731 0.69944 0.14028 0.0
C984 C 0.20848 0.73633 0.22903 0.0
C985 C 0.17193 0.71617 0.16683 0.0
C986 C 0.22754 0.77934 0.25634 0.0
C987 C 0.26175 0.7761 0.33491 0.0
N988 N 0.18767 0.73427 0.20867 0.0
N989 N 0.24324 0.75671 0.30642 0.0
H990 H 0.10586 0.62002 0.6964 0.0
H991 H 0.16887 0.56554 0.46327 0.0
H992 H 0.18071 0.65032 0.68086 0.0
H993 H 0.10412 0.52185 0.57853 0.0
H994 H 0.1684 0.60004 0.50699 0.0
H995 H 0.10081 0.58752 0.6177 0.0
C996 C 0.12119 0.62021 0.67426 0.0
C997 C 0.14375 0.63776 0.69459 0.0
C998 C 0.15416 0.58289 0.52193 0.0
C999 C 0.1381 0.60105 0.60554 0.0
C1000 C 0.15438 0.5631 0.49727 0.0
C1001 C 0.13678 0.54064 0.51886 0.0
C1002 C 0.13615 0.58037 0.56806 0.0
C1003 C 0.11822 0.53879 0.56151 0.0
C1004 C 0.11828 0.60162 0.63026 0.0
C1005 C 0.16307 0.63708 0.6661 0.0
N1006 N 0.11852 0.55848 0.58556 0.0
N1007 N 0.1598 0.61896 0.62304 0.0
H1008 H 0.38158 0.48789 0.67719 0.0
H1009 H 0.48581 0.58436 0.55809 0.0
H1010 H 0.36128 0.54042 0.69908 0.0
H1011 H 0.44127 0.60964 0.47389 0.0
H1012 H 0.45096 0.54976 0.60591 0.0
H1013 H 0.41388 0.51447 0.59705 0.0
C1014 C 0.38356 0.50477 0.66356 0.0
C1015 C 0.36888 0.51211 0.69504 0.0
C1016 C 0.44885 0.56262 0.57525 0.0
C1017 C 0.40583 0.54254 0.60512 0.0
C1018 C 0.46874 0.58248 0.5485 0.0
C1019 C 0.46656 0.6001 0.51253 0.0
C1020 C 0.42673 0.56061 0.56658 0.0
C1021 C 0.44394 0.59666 0.50166 0.0
C1022 C 0.40218 0.52002 0.61886 0.0
C1023 C 0.37233 0.53421 0.6763 0.0
N1024 N 0.425 0.57758 0.52982 0.0
N1025 N 0.3905 0.54868 0.63266 0.0
H1026 H 0.42241 0.90579 0.56885 0.0
H1027 H 0.47091 0.82489 0.68378 0.0
H1028 H 0.40104 0.84033 0.45765 0.0
H1029 H 0.51634 0.89977 0.69001 0.0
H1030 H 0.44438 0.83014 0.60253 0.0
H1031 H 0.45674 0.90477 0.61638 0.0
C1032 C 0.42505 0.89142 0.55355 0.0
C1033 C 0.40853 0.87292 0.51024 0.0
C1034 C 0.46042 0.84541 0.62035 0.0
C1035 C 0.44745 0.87159 0.56482 0.0
C1036 C 0.47552 0.84239 0.66647 0.0
C1037 C 0.4958 0.86191 0.69289 0.0
C1038 C 0.46526 0.86813 0.6028 0.0
C1039 C 0.50094 0.88429 0.66983 0.0
C1040 C 0.44467 0.89091 0.58044 0.0
C1041 C 0.41302 0.85483 0.49176 0.0
N1042 N 0.48545 0.88687 0.62727 0.0
N1043 N 0.43177 0.85441 0.52023 0.0
H1044 H 0.0384 0.27015 0.54604 0.0
H1045 H 0.11948 0.40646 0.60711 0.0
H1046 H 0.06967 0.3003 0.75469 0.0
H1047 H 0.10227 0.37523 0.39233 0.0
H1048 H 0.10333 0.36766 0.66117 0.0
H1049 H 0.063 0.30801 0.48801 0.0
C1050 C 0.0505 0.28474 0.57974 0.0
C1051 C 0.0517 0.28212 0.6557 0.0
C1052 C 0.10334 0.36922 0.60218 0.0
C1053 C 0.08 0.32561 0.58918 0.0
C1054 C 0.11253 0.39138 0.57123 0.0
C1055 C 0.11196 0.394 0.49514 0.0
C1056 C 0.09307 0.34941 0.5569 0.0
C1057 C 0.103 0.37393 0.45122 0.0
C1058 C 0.06467 0.30633 0.54634 0.0
C1059 C 0.06803 0.30154 0.69614 0.0
N1060 N 0.09352 0.35239 0.48286 0.0
N1061 N 0.08132 0.32255 0.66251 0.0
H1062 H 0.7379 0.78505 0.55955 0.0
H1063 H 0.60121 0.71008 0.62125 0.0
H1064 H 0.70666 0.77108 0.77427 0.0
H1065 H 0.63222 0.73801 0.41065 0.0
H1066 H 0.63919 0.73441 0.67902 0.0
H1067 H 0.69939 0.77048 0.50498 0.0
C1068 C 0.72289 0.7791 0.5953 0.0
C1069 C 0.72541 0.77896 0.67158 0.0
C1070 C 0.63768 0.73546 0.6203 0.0
C1071 C 0.68111 0.76193 0.60919 0.0
C1072 C 0.61602 0.72146 0.58711 0.0
C1073 C 0.61363 0.72171 0.51073 0.0
C1074 C 0.65726 0.74962 0.57685 0.0
C1075 C 0.6333 0.73713 0.46957 0.0
C1076 C 0.7009 0.77085 0.56403 0.0
C1077 C 0.70545 0.77139 0.71524 0.0
N1078 N 0.65439 0.75021 0.50306 0.0
N1079 N 0.68402 0.76277 0.68333 0.0
H1080 H 0.22781 0.96398 0.54651 0.0
H1081 H 0.29509 0.8949 0.61327 0.0
H1082 H 0.22935 0.93529 0.75731 0.0
H1083 H 0.27314 0.90304 0.39803 0.0
H1084 H 0.27038 0.90875 0.66701 0.0
H1085 H 0.24333 0.94096 0.49057 0.0
C1086 C 0.23121 0.95263 0.58094 0.0
C1087 C 0.22755 0.95174 0.65683 0.0
C1088 C 0.27072 0.90725 0.60808 0.0
C1089 C 0.24558 0.92554 0.59316 0.0
C1090 C 0.28493 0.89947 0.57728 0.0
C1091 C 0.2864 0.89811 0.50095 0.0
C1092 C 0.25816 0.91414 0.56229 0.0
C1093 C 0.27259 0.90392 0.45708 0.0
C1094 C 0.23998 0.93943 0.54888 0.0
C1095 C 0.23198 0.93653 0.69865 0.0
N1096 N 0.25931 0.91204 0.48837 0.0
N1097 N 0.24114 0.92431 0.66641 0.0
H1098 H 0.27963 0.0098 0.86482 0.0
H1099 H 0.3846 0.12649 0.02553 0.0
H1100 H 0.28561 0.07591 0.80567 0.0
H1101 H 0.39132 0.06755 0.95685 0.0
H1102 H 0.34559 0.10815 0.96672 0.0
H1103 H 0.31807 0.03064 0.92193 0.0
C1104 C 0.28908 0.02876 0.86389 0.0
C1105 C 0.2795 0.04117 0.83024 0.0
C1106 C 0.35579 0.09943 0.96465 0.0
C1107 C 0.32346 0.06515 0.89656 0.0
C1108 C 0.37783 0.10972 -0.00146 0.0
C1109 C 0.39115 0.0985 0.99592 0.0
C1110 C 0.347 0.07761 0.93002 0.0
C1111 C 0.38173 0.07689 0.95985 0.0
C1112 C 0.31103 0.04063 0.89636 0.0
C1113 C 0.29256 0.06575 0.8305 0.0
N1114 N 0.36022 0.0671 0.92897 0.0
N1115 N 0.31394 0.07705 0.86387 0.0
H1116 H 0.94046 0.235 0.72783 0.0
H1117 H 0.90441 0.27262 0.10107 0.0
H1118 H 0.96698 0.23165 0.9408 0.0
H1119 H 0.89644 0.2952 0.88667 0.0
H1120 H 0.91857 0.24841 0.04334 0.0
H1121 H 0.91554 0.24817 0.78628 0.0
C1122 C 0.9408 0.23673 0.78682 0.0
C1123 C 0.95612 0.2327 0.8294 0.0
C1124 C 0.91341 0.25846 0.00906 0.0
C1125 C 0.92768 0.24749 0.89641 0.0
C1126 C 0.90525 0.27215 0.04195 0.0
C1127 C 0.89969 0.28622 -0.00139 0.0
C1128 C 0.91571 0.25869 0.93247 0.0
C1129 C 0.90102 0.28496 0.92216 0.0
C1130 C 0.92666 0.24429 0.82011 0.0
C1131 C 0.95579 0.23508 0.90574 0.0
N1132 N 0.90906 0.2716 0.89155 0.0
N1133 N 0.94194 0.24245 0.93674 0.0
H1134 H 0.7744 0.74261 0.94928 0.0
H1135 H 0.71038 0.60574 0.88495 0.0
H1136 H 0.76973 0.7118 0.73714 0.0
H1137 H 0.73114 0.6367 0.09942 0.0
H1138 H 0.73354 0.64438 0.83013 0.0
H1139 H 0.76007 0.70431 0.00563 0.0
C1140 C 0.77047 0.7278 0.91448 0.0
C1141 C 0.77298 0.73038 0.83813 0.0
C1142 C 0.73331 0.64277 0.88914 0.0
C1143 C 0.75647 0.68639 0.90262 0.0
C1144 C 0.72002 0.62071 0.92053 0.0
C1145 C 0.71862 0.61809 0.99692 0.0
C1146 C 0.74501 0.66248 0.93437 0.0
C1147 C 0.73171 0.638 0.04033 0.0
C1148 C 0.76241 0.70594 0.94686 0.0
C1149 C 0.76795 0.71062 0.79609 0.0
N1150 N 0.74409 0.65946 0.00843 0.0
N1151 N 0.75963 0.68939 0.82882 0.0
H1152 H 0.9054 0.63224 0.60894 0.0
H1153 H 0.93792 0.70794 0.23967 0.0
H1154 H 0.88903 0.60234 0.39222 0.0
H1155 H 0.97051 0.73606 0.44863 0.0
H1156 H 0.91308 0.66999 0.29843 0.0
H1157 H 0.92219 0.67144 0.55425 0.0
C1158 C 0.90492 0.63391 0.55008 0.0
C1159 C 0.89613 0.61412 0.50494 0.0
C1160 C 0.92559 0.68455 0.33138 0.0
C1161 C 0.91524 0.65861 0.44225 0.0
C1162 C 0.93975 0.7062 0.29788 0.0
C1163 C 0.95659 0.72512 0.33898 0.0
C1164 C 0.92811 0.68187 0.40661 0.0
C1165 C 0.95807 0.72186 0.41445 0.0
C1166 C 0.91463 0.65623 0.51888 0.0
C1167 C 0.89598 0.61722 0.42892 0.0
N1168 N 0.9441 0.70065 0.44573 0.0
N1169 N 0.90554 0.63902 0.39997 0.0
H1170 H 0.26963 0.22594 0.44639 0.0
H1171 H 0.40672 0.29598 0.38617 0.0
H1172 H 0.30158 0.23575 0.23374 0.0
H1173 H 0.37519 0.27411 0.59952 0.0
H1174 H 0.36864 0.27144 0.32981 0.0
H1175 H 0.30783 0.24057 0.50345 0.0
C1176 C 0.28471 0.231 0.41163 0.0
C1177 C 0.28248 0.22998 0.33503 0.0
C1178 C 0.37001 0.27174 0.3889 0.0
C1179 C 0.32642 0.24697 0.40035 0.0
C1180 C 0.39175 0.28585 0.42128 0.0
C1181 C 0.39407 0.28738 0.49784 0.0
C1182 C 0.35022 0.25925 0.43322 0.0
C1183 C 0.37416 0.27355 0.54038 0.0
C1184 C 0.30652 0.23928 0.44438 0.0
C1185 C 0.30253 0.23637 0.29289 0.0
N1186 N 0.35296 0.26033 0.50747 0.0
N1187 N 0.32376 0.24497 0.32612 0.0
H1188 H 0.7723 0.06965 0.22945 0.0
H1189 H 0.73307 0.1068 0.59723 0.0
H1190 H 0.77714 0.04527 0.44443 0.0
H1191 H 0.70761 0.11014 0.38244 0.0
H1192 H 0.75694 0.09197 0.54159 0.0
H1193 H 0.75624 0.09248 0.28504 0.0
C1194 C 0.77031 0.06937 0.28833 0.0
C1195 C 0.77577 0.05532 0.33228 0.0
C1196 C 0.74625 0.09615 0.50673 0.0
C1197 C 0.75755 0.08136 0.39605 0.0
C1198 C 0.7327 0.10467 0.5384 0.0
C1199 C 0.71808 0.1094 0.49454 0.0
C1200 C 0.7454 0.09265 0.43066 0.0
C1201 C 0.71833 0.10635 0.41849 0.0
C1202 C 0.76105 0.08229 0.31996 0.0
C1203 C 0.77282 0.05559 0.40836 0.0
N1204 N 0.73169 0.09811 0.38901 0.0
N1205 N 0.76384 0.0683 0.43777 0.0
H1206 H 0.6035 0.90177 0.11437 0.0
H1207 H 0.74027 0.97268 0.0483 0.0
H1208 H 0.63409 0.9096 0.90026 0.0
H1209 H 0.70998 0.94665 0.26102 0.0
H1210 H 0.70172 0.94914 0.99291 0.0
H1211 H 0.6422 0.91734 0.16914 0.0
C1212 C 0.61838 0.90663 0.07886 0.0
C1213 C 0.61562 0.90467 0.00251 0.0
C1214 C 0.70351 0.94837 0.0516 0.0
C1215 C 0.66006 0.92269 0.06502 0.0
C1216 C 0.7255 0.96191 0.08339 0.0
C1217 C 0.72829 0.96186 0.1596 0.0
C1218 C 0.68403 0.93492 0.09631 0.0
C1219 C 0.7086 0.94729 0.20213 0.0
C1220 C 0.64046 0.91542 0.11025 0.0
C1221 C 0.63545 0.9109 0.9593 0.0
N1222 N 0.68722 0.93465 0.16999 0.0
N1223 N 0.65692 0.91998 0.99112 0.0
H1224 H 0.04192 0.77863 0.05463 0.0
H1225 H 0.11188 0.71184 0.11345 0.0
H1226 H 0.0668 0.77182 0.26653 0.0
H1227 H 0.10249 0.73433 0.90069 0.0
H1228 H 0.0981 0.73613 0.17037 0.0
H1229 H 0.06633 0.76511 0.99712 0.0
C1230 C 0.0527 0.77444 0.08908 0.0
C1231 C 0.05205 0.77596 0.16562 0.0
C1232 C 0.09933 0.73605 0.1113 0.0
C1233 C 0.07996 0.76029 0.09993 0.0
C1234 C 0.1071 0.7221 0.07868 0.0
C1235 C 0.10795 0.7208 0.00213 0.0
C1236 C 0.09195 0.74853 0.06714 0.0
C1237 C 0.10196 0.73475 0.95985 0.0
C1238 C 0.06673 0.76684 0.05611 0.0
C1239 C 0.06668 0.77075 0.20741 0.0
N1240 N 0.0938 0.74774 0.99292 0.0
N1241 N 0.07976 0.76274 0.17405 0.0
H1242 H 0.23584 0.26744 0.0511 0.0
H1243 H 0.30349 0.40434 0.11763 0.0
H1244 H 0.24113 0.29795 0.26414 0.0
H1245 H 0.27973 0.37388 0.90372 0.0
H1246 H 0.28037 0.36563 0.17233 0.0
H1247 H 0.2514 0.30609 0.99593 0.0
C1248 C 0.24016 0.28227 0.08632 0.0
C1249 C 0.23743 0.27949 0.16255 0.0
C1250 C 0.27999 0.36741 0.11351 0.0
C1251 C 0.2554 0.32387 0.09949 0.0
C1252 C 0.29328 0.38949 0.08215 0.0
C1253 C 0.29375 0.39229 0.00586 0.0
C1254 C 0.26734 0.34784 0.0683 0.0
C1255 C 0.27992 0.37249 0.96271 0.0
C1256 C 0.24894 0.30432 0.05465 0.0
C1257 C 0.24303 0.29929 0.20522 0.0
N1258 N 0.26752 0.35102 0.99448 0.0
N1259 N 0.25205 0.3207 0.17319 0.0
H1260 H 0.96994 0.39773 0.06329 0.0
H1261 H 0.04484 0.43492 0.43463 0.0
H1262 H 0.94058 0.37059 0.27624 0.0
H1263 H 0.07541 0.44374 0.21996 0.0
H1264 H 0.00609 0.41821 0.37757 0.0
H1265 H 0.00844 0.42145 0.12068 0.0
C1266 C 0.97154 0.3969 0.12206 0.0
C1267 C 0.95208 0.38191 0.16486 0.0
C1268 C 0.02134 0.424 0.34306 0.0
C1269 C 0.99591 0.40908 0.23078 0.0
C1270 C 0.04345 0.43364 0.37556 0.0
C1271 C 0.06335 0.44045 0.33208 0.0
C1272 C 0.01919 0.42144 0.2666 0.0
C1273 C 0.0605 0.43839 0.2557 0.0
C1274 C 0.99349 0.41038 0.15473 0.0
C1275 C 0.95516 0.38161 0.2409 0.0
N1276 N 0.03884 0.42899 0.22544 0.0
N1277 N 0.97665 0.39492 0.27135 0.0
H1278 H 0.60891 0.57546 0.06387 0.0
H1279 H 0.57268 0.61234 0.43847 0.0
H1280 H 0.63414 0.5697 0.27652 0.0
H1281 H 0.5666 0.63707 0.22541 0.0
H1282 H 0.58775 0.58904 0.37982 0.0
H1283 H 0.58571 0.59054 0.12285 0.0
C1284 C 0.60935 0.5771 0.1229 0.0
C1285 C 0.62374 0.57168 0.16522 0.0
C1286 C 0.58291 0.59944 0.34604 0.0
C1287 C 0.59725 0.58873 0.23289 0.0
C1288 C 0.57425 0.61264 0.37944 0.0
C1289 C 0.56874 0.62692 0.33686 0.0
C1290 C 0.58574 0.60032 0.2696 0.0
C1291 C 0.57105 0.62663 0.26047 0.0
C1292 C 0.5962 0.58577 0.15649 0.0
C1293 C 0.6236 0.57408 0.24163 0.0
N1294 N 0.57945 0.61365 0.22935 0.0
N1295 N 0.61067 0.58252 0.27295 0.0
H1296 H 0.37373 0.93503 0.22239 0.0
H1297 H 0.4419 0.07197 0.28145 0.0
H1298 H 0.39578 0.96634 0.43604 0.0
H1299 H 0.43866 0.04037 0.07197 0.0
H1300 H 0.42619 0.03371 0.33953 0.0
H1301 H 0.39817 0.9733 0.16653 0.0
C1302 C 0.38382 0.94998 0.25762 0.0
C1303 C 0.38247 0.94756 0.33412 0.0
C1304 C 0.42919 0.03514 0.28102 0.0
C1305 C 0.41047 0.99153 0.27023 0.0
C1306 C 0.43807 0.05696 0.24773 0.0
C1307 C 0.44132 0.05928 0.17159 0.0
C1308 C 0.42308 0.01534 0.23781 0.0
C1309 C 0.43636 0.03933 0.13076 0.0
C1310 C 0.3979 0.97181 0.22558 0.0
C1311 C 0.39623 0.96746 0.37691 0.0
N1312 N 0.42711 0.0181 0.16425 0.0
N1313 N 0.4094 0.9887 0.34438 0.0
H1314 H 0.57184 0.97 0.93434 0.0
H1315 H 0.60906 0.04443 0.5619 0.0
H1316 H 0.56659 0.93988 0.72071 0.0
H1317 H 0.63354 0.07466 0.77571 0.0
H1318 H 0.58565 0.0059 0.61957 0.0
H1319 H 0.58682 0.0085 0.87661 0.0
C1320 C 0.57355 0.97143 0.87535 0.0
C1321 C 0.56831 0.95179 0.8324 0.0
C1322 C 0.596 0.02105 0.65376 0.0
C1323 C 0.58524 0.9956 0.76614 0.0
C1324 C 0.60926 0.04302 0.62091 0.0
C1325 C 0.62353 0.06269 0.66395 0.0
C1326 C 0.59681 0.01886 0.73014 0.0
C1327 C 0.62311 0.05987 0.74029 0.0
C1328 C 0.58217 0.99338 0.84247 0.0
C1329 C 0.57081 0.95463 0.75609 0.0
N1330 N 0.61008 0.03837 0.77088 0.0
N1331 N 0.57918 0.97612 0.72547 0.0
H1332 H 0.03791 0.60946 0.93605 0.0
H1333 H 0.96366 0.57326 0.56321 0.0
H1334 H 0.06775 0.63598 0.72315 0.0
H1335 H 0.93281 0.5639 0.77763 0.0
H1336 H 0.00228 0.58937 0.62083 0.0
H1337 H -0.00054 0.58582 0.87806 0.0
C1338 C 0.03643 0.61014 0.87719 0.0
C1339 C 0.05598 0.62497 0.83455 0.0
C1340 C 0.98699 0.5836 0.65516 0.0
C1341 C 0.01225 0.59795 0.76797 0.0
C1342 C 0.96496 0.57431 0.62232 0.0
C1343 C 0.94503 0.56754 0.66557 0.0
C1344 C 0.98903 0.58586 0.73173 0.0
C1345 C 0.94775 0.56927 0.74204 0.0
C1346 C 0.0145 0.59673 0.84416 0.0
C1347 C 0.05307 0.62512 0.75836 0.0
N1348 N 0.96933 0.57835 0.77262 0.0
N1349 N 0.03163 0.6119 0.72761 0.0
H1350 H 0.438 0.39814 0.56364 0.0
H1351 H 0.40189 0.43616 0.9362 0.0
H1352 H 0.44351 0.37332 0.77724 0.0
H1353 H 0.37735 0.44202 0.72254 0.0
H1354 H 0.42485 0.42056 0.87849 0.0
H1355 H 0.42324 0.42176 0.62147 0.0
C1356 C 0.43638 0.39786 0.62265 0.0
C1357 C 0.44169 0.38348 0.66553 0.0
C1358 C 0.41459 0.42549 0.84435 0.0
C1359 C 0.42497 0.41049 0.73195 0.0
C1360 C 0.40159 0.43448 0.8772 0.0
C1361 C 0.38745 0.44008 0.83421 0.0
C1362 C 0.41363 0.42239 0.76802 0.0
C1363 C 0.38772 0.43756 0.75791 0.0
C1364 C 0.42788 0.41127 0.65559 0.0
C1365 C 0.43928 0.38385 0.74188 0.0
N1366 N 0.40049 0.42882 0.72732 0.0
N1367 N 0.43101 0.39704 0.77258 0.0
loop_
_geom_bond_atom_site_label_1
_geom_bond_atom_site_label_2
_geom_bond_distance
_geom_bond_site_symmetry_2
_ccdc_geom_bond_type
Sc0 O3 2.025 . S
Sc0 O10 2.105 . S
Sc0 O13 2.105 1_455 S
Sc0 O16 2.105 1_455 S
Sc0 O19 2.105 . S
Sc1 O3 2.025 . S
Sc1 O11 2.105 . S
Sc1 O15 2.105 1_455 S
Sc1 O17 2.105 1_455 S
Sc1 O21 2.105 . S
Sc2 O3 2.025 . S
Sc2 O12 2.105 . S
Sc2 O14 2.105 1_455 S
Sc2 O18 2.105 1_455 S
Sc2 O20 2.105 . S
O3 Sc0 2.025 . S
O3 Sc1 2.025 . S
O3 Sc2 2.025 . S
C4 O10 1.268 . S
C4 O20 1.268 . S
C5 O11 1.268 . S
C5 O19 1.268 . S
C6 O12 1.268 . S
C6 O21 1.268 . S
C7 O13 1.268 . S
C7 O17 1.268 . S
C8 O14 1.268 . S
C8 O16 1.268 . S
C9 O15 1.268 . S
C9 O18 1.268 . S
O10 Sc0 2.105 . S
O10 C4 1.268 . S
O11 Sc1 2.105 . S
O11 C5 1.268 . S
O12 Sc2 2.105 . S
O12 C6 1.268 . S
O13 Sc0 2.105 1_655 S
O13 C7 1.268 . S
O14 Sc2 2.105 1_655 S
O14 C8 1.268 . S
O15 Sc1 2.105 1_655 S
O15 C9 1.268 . S
O16 Sc0 2.105 1_655 S
O16 C8 1.268 . S
O17 Sc1 2.105 1_655 S
O17 C7 1.268 . S
O18 Sc2 2.105 1_655 S
O18 C9 1.268 . S
O19 Sc0 2.105 . S
O19 C5 1.268 . S
O20 Sc2 2.105 . S
O20 C4 1.268 . S
O21 Sc1 2.105 . S
O21 C6 1.268 . S
Sc22 O25 2.025 . S
Sc22 O32 2.105 . S
Sc22 O35 2.105 . S
Sc22 O38 2.105 . S
Sc22 O41 2.105 . S
Sc23 O25 2.025 . S
Sc23 O33 2.105 . S
Sc23 O37 2.105 . S
Sc23 O39 2.105 . S
Sc23 O43 2.105 . S
Sc24 O25 2.025 . S
Sc24 O34 2.105 . S
Sc24 O36 2.105 . S
Sc24 O40 2.105 . S
Sc24 O42 2.105 . S
O25 Sc22 2.025 . S
O25 Sc23 2.025 . S
O25 Sc24 2.025 . S
C26 O32 1.268 . S
C26 O42 1.268 . S
C27 O33 1.268 . S
C27 O41 1.268 . S
C28 O34 1.268 . S
C28 O43 1.268 . S
C29 O35 1.268 . S
C29 O39 1.268 . S
C30 O36 1.268 . S
C30 O38 1.268 . S
C31 O37 1.268 . S
C31 O40 1.268 . S
O32 Sc22 2.105 . S
O32 C26 1.268 . S
O33 Sc23 2.105 . S
O33 C27 1.268 . S
O34 Sc24 2.105 . S
O34 C28 1.268 . S
O35 Sc22 2.105 . S
O35 C29 1.268 . S
O36 Sc24 2.105 . S
O36 C30 1.268 . S
O37 Sc23 2.105 . S
O37 C31 1.268 . S
O38 Sc22 2.105 . S
O38 C30 1.268 . S
O39 Sc23 2.105 . S
O39 C29 1.268 . S
O40 Sc24 2.105 . S
O40 C31 1.268 . S
O41 Sc22 2.105 . S
O41 C27 1.268 . S
O42 Sc24 2.105 . S
O42 C26 1.268 . S
O43 Sc23 2.105 . S
O43 C28 1.268 . S
Sc44 O47 2.025 . S
Sc44 O54 2.105 1_545 S
Sc44 O57 2.105 . S
Sc44 O60 2.105 . S
Sc44 O63 2.105 1_545 S
Sc45 O47 2.025 . S
Sc45 O55 2.105 1_545 S
Sc45 O59 2.105 . S
Sc45 O61 2.105 . S
Sc45 O65 2.105 1_545 S
Sc46 O47 2.025 . S
Sc46 O56 2.105 1_545 S
Sc46 O58 2.105 . S
Sc46 O62 2.105 . S
Sc46 O64 2.105 1_545 S
O47 Sc44 2.025 . S
O47 Sc45 2.025 . S
O47 Sc46 2.025 . S
C48 O54 1.268 . S
C48 O64 1.268 . S
C49 O55 1.268 . S
C49 O63 1.268 . S
C50 O56 1.268 . S
C50 O65 1.268 . S
C51 O57 1.268 . S
C51 O61 1.268 . S
C52 O58 1.268 . S
C52 O60 1.268 . S
C53 O59 1.268 . S
C53 O62 1.268 . S
O54 Sc44 2.105 1_565 S
O54 C48 1.268 . S
O55 Sc45 2.105 1_565 S
O55 C49 1.268 . S
O56 Sc46 2.105 1_565 S
O56 C50 1.268 . S
O57 Sc44 2.105 . S
O57 C51 1.268 . S
O58 Sc46 2.105 . S
O58 C52 1.268 . S
O59 Sc45 2.105 . S
O59 C53 1.268 . S
O60 Sc44 2.105 . S
O60 C52 1.268 . S
O61 Sc45 2.105 . S
O61 C51 1.268 . S
O62 Sc46 2.105 . S
O62 C53 1.268 . S
O63 Sc44 2.105 1_565 S
O63 C49 1.268 . S
O64 Sc46 2.105 1_565 S
O64 C48 1.268 . S
O65 Sc45 2.105 1_565 S
O65 C50 1.268 . S
Sc66 O69 2.025 . S
Sc66 O76 2.105 . S
Sc66 O79 2.105 1_455 S
Sc66 O82 2.105 1_455 S
Sc66 O85 2.105 . S
Sc67 O69 2.025 . S
Sc67 O77 2.105 . S
Sc67 O81 2.105 1_455 S
Sc67 O83 2.105 1_455 S
Sc67 O87 2.105 . S
Sc68 O69 2.025 . S
Sc68 O78 2.105 . S
Sc68 O80 2.105 1_455 S
Sc68 O84 2.105 1_455 S
Sc68 O86 2.105 . S
O69 Sc66 2.025 . S
O69 Sc67 2.025 . S
O69 Sc68 2.025 . S
C70 O76 1.268 . S
C70 O86 1.268 . S
C71 O77 1.268 . S
C71 O85 1.268 . S
C72 O78 1.268 . S
C72 O87 1.268 . S
C73 O79 1.268 . S
C73 O83 1.268 . S
C74 O80 1.268 . S
C74 O82 1.268 . S
C75 O81 1.268 . S
C75 O84 1.268 . S
O76 Sc66 2.105 . S
O76 C70 1.268 . S
O77 Sc67 2.105 . S
O77 C71 1.268 . S
O78 Sc68 2.105 . S
O78 C72 1.268 . S
O79 Sc66 2.105 1_655 S
O79 C73 1.268 . S
O80 Sc68 2.105 1_655 S
O80 C74 1.268 . S
O81 Sc67 2.105 1_655 S
O81 C75 1.268 . S
O82 Sc66 2.105 1_655 S
O82 C74 1.268 . S
O83 Sc67 2.105 1_655 S
O83 C73 1.268 . S
O84 Sc68 2.105 1_655 S
O84 C75 1.268 . S
O85 Sc66 2.105 . S
O85 C71 1.268 . S
O86 Sc68 2.105 . S
O86 C70 1.268 . S
O87 Sc67 2.105 . S
O87 C72 1.268 . S
Sc88 O91 2.025 . S
Sc88 O98 2.105 . S
Sc88 O101 2.105 . S
Sc88 O104 2.105 . S
Sc88 O107 2.105 . S
Sc89 O91 2.025 . S
Sc89 O99 2.105 . S
Sc89 O103 2.105 . S
Sc89 O105 2.105 . S
Sc89 O109 2.105 . S
Sc90 O91 2.025 . S
Sc90 O100 2.105 . S
Sc90 O102 2.105 . S
Sc90 O106 2.105 . S
Sc90 O108 2.105 . S
O91 Sc88 2.025 . S
O91 Sc89 2.025 . S
O91 Sc90 2.025 . S
C92 O98 1.268 . S
C92 O108 1.268 . S
C93 O99 1.268 . S
C93 O107 1.268 . S
C94 O100 1.268 . S
C94 O109 1.268 . S
C95 O101 1.268 . S
C95 O105 1.268 . S
C96 O102 1.268 . S
C96 O104 1.268 . S
C97 O103 1.268 . S
C97 O106 1.268 . S
O98 Sc88 2.105 . S
O98 C92 1.268 . S
O99 Sc89 2.105 . S
O99 C93 1.268 . S
O100 Sc90 2.105 . S
O100 C94 1.268 . S
O101 Sc88 2.105 . S
O101 C95 1.268 . S
O102 Sc90 2.105 . S
O102 C96 1.268 . S
O103 Sc89 2.105 . S
O103 C97 1.268 . S
O104 Sc88 2.105 . S
O104 C96 1.268 . S
O105 Sc89 2.105 . S
O105 C95 1.268 . S
O106 Sc90 2.105 . S
O106 C97 1.268 . S
O107 Sc88 2.105 . S
O107 C93 1.268 . S
O108 Sc90 2.105 . S
O108 C92 1.268 . S
O109 Sc89 2.105 . S
O109 C94 1.268 . S
Sc110 O113 2.025 . S
Sc110 O120 2.105 1_545 S
Sc110 O123 2.105 . S
Sc110 O126 2.105 . S
Sc110 O129 2.105 1_545 S
Sc111 O113 2.025 . S
Sc111 O121 2.105 1_545 S
Sc111 O125 2.105 . S
Sc111 O127 2.105 . S
Sc111 O131 2.105 1_545 S
Sc112 O113 2.025 . S
Sc112 O122 2.105 1_545 S
Sc112 O124 2.105 . S
Sc112 O128 2.105 . S
Sc112 O130 2.105 1_545 S
O113 Sc110 2.025 . S
O113 Sc111 2.025 . S
O113 Sc112 2.025 . S
C114 O120 1.268 . S
C114 O130 1.268 . S
C115 O121 1.268 . S
C115 O129 1.268 . S
C116 O122 1.268 . S
C116 O131 1.268 . S
C117 O123 1.268 . S
C117 O127 1.268 . S
C118 O124 1.268 . S
C118 O126 1.268 . S
C119 O125 1.268 . S
C119 O128 1.268 . S
O120 Sc110 2.105 1_565 S
O120 C114 1.268 . S
O121 Sc111 2.105 1_565 S
O121 C115 1.268 . S
O122 Sc112 2.105 1_565 S
O122 C116 1.268 . S
O123 Sc110 2.105 . S
O123 C117 1.268 . S
O124 Sc112 2.105 . S
O124 C118 1.268 . S
O125 Sc111 2.105 . S
O125 C119 1.268 . S
O126 Sc110 2.105 . S
O126 C118 1.268 . S
O127 Sc111 2.105 . S
O127 C117 1.268 . S
O128 Sc112 2.105 . S
O128 C119 1.268 . S
O129 Sc110 2.105 1_565 S
O129 C115 1.268 . S
O130 Sc112 2.105 1_565 S
O130 C114 1.268 . S
O131 Sc111 2.105 1_565 S
O131 C116 1.268 . S
Sc132 O135 2.025 . S
Sc132 O142 2.105 1_554 S
Sc132 O145 2.105 . S
Sc132 O148 2.105 . S
Sc132 O151 2.105 . S
Sc133 O135 2.025 . S
Sc133 O143 2.105 . S
Sc133 O147 2.105 . S
Sc133 O149 2.105 . S
Sc133 O153 2.105 . S
Sc134 O135 2.025 1_556 S
Sc134 O144 2.105 1_556 S
Sc134 O146 2.105 . S
Sc134 O150 2.105 1_556 S
Sc134 O152 2.105 . S
O135 Sc132 2.025 . S
O135 Sc133 2.025 . S
O135 Sc134 2.025 1_554 S
C136 O142 1.268 . S
C136 O152 1.268 . S
C137 O143 1.268 . S
C137 O151 1.268 . S
C138 O144 1.268 . S
C138 O153 1.268 . S
C139 O145 1.268 . S
C139 O149 1.268 . S
C140 O146 1.268 . S
C140 O148 1.268 1_556 S
C141 O147 1.268 . S
C141 O150 1.268 . S
O142 Sc132 2.105 1_556 S
O142 C136 1.268 . S
O143 Sc133 2.105 . S
O143 C137 1.268 . S
O144 Sc134 2.105 1_554 S
O144 C138 1.268 . S
O145 Sc132 2.105 . S
O145 C139 1.268 . S
O146 Sc134 2.105 . S
O146 C140 1.268 . S
O147 Sc133 2.105 . S
O147 C141 1.268 . S
O148 Sc132 2.105 . S
O148 C140 1.268 1_554 S
O149 Sc133 2.105 . S
O149 C139 1.268 . S
O150 Sc134 2.105 1_554 S
O150 C141 1.268 . S
O151 Sc132 2.105 . S
O151 C137 1.268 . S
O152 Sc134 2.105 . S
O152 C136 1.268 . S
O153 Sc133 2.105 . S
O153 C138 1.268 . S
Sc154 O157 2.025 . S
Sc154 O164 2.105 1_554 S
Sc154 O167 2.105 . S
Sc154 O170 2.105 . S
Sc154 O173 2.105 . S
Sc155 O157 2.025 . S
Sc155 O165 2.105 . S
Sc155 O169 2.105 . S
Sc155 O171 2.105 . S
Sc155 O175 2.105 . S
Sc156 O157 2.025 1_556 S
Sc156 O166 2.105 1_556 S
Sc156 O168 2.105 . S
Sc156 O172 2.105 1_556 S
Sc156 O174 2.105 . S
O157 Sc154 2.025 . S
O157 Sc155 2.025 . S
O157 Sc156 2.025 1_554 S
C158 O164 1.268 . S
C158 O174 1.268 . S
C159 O165 1.268 . S
C159 O173 1.268 . S
C160 O166 1.268 . S
C160 O175 1.268 . S
C161 O167 1.268 . S
C161 O171 1.268 . S
C162 O168 1.268 . S
C162 O170 1.268 1_556 S
C163 O169 1.268 . S
C163 O172 1.268 . S
O164 Sc154 2.105 1_556 S
O164 C158 1.268 . S
O165 Sc155 2.105 . S
O165 C159 1.268 . S
O166 Sc156 2.105 1_554 S
O166 C160 1.268 . S
O167 Sc154 2.105 . S
O167 C161 1.268 . S
O168 Sc156 2.105 . S
O168 C162 1.268 . S
O169 Sc155 2.105 . S
O169 C163 1.268 . S
O170 Sc154 2.105 . S
O170 C162 1.268 1_554 S
O171 Sc155 2.105 . S
O171 C161 1.268 . S
O172 Sc156 2.105 1_554 S
O172 C163 1.268 . S
O173 Sc154 2.105 . S
O173 C159 1.268 . S
O174 Sc156 2.105 . S
O174 C158 1.268 . S
O175 Sc155 2.105 . S
O175 C160 1.268 . S
Sc176 O179 2.025 . S
Sc176 O186 2.105 1_554 S
Sc176 O189 2.105 . S
Sc176 O192 2.105 . S
Sc176 O195 2.105 . S
Sc177 O179 2.025 . S
Sc177 O187 2.105 . S
Sc177 O191 2.105 . S
Sc177 O193 2.105 . S
Sc177 O197 2.105 . S
Sc178 O179 2.025 1_556 S
Sc178 O188 2.105 1_556 S
Sc178 O190 2.105 . S
Sc178 O194 2.105 1_556 S
Sc178 O196 2.105 . S
O179 Sc176 2.025 . S
O179 Sc177 2.025 . S
O179 Sc178 2.025 1_554 S
C180 O186 1.268 . S
C180 O196 1.268 . S
C181 O187 1.268 . S
C181 O195 1.268 . S
C182 O188 1.268 . S
C182 O197 1.268 . S
C183 O189 1.268 . S
C183 O193 1.268 . S
C184 O190 1.268 . S
C184 O192 1.268 1_556 S
C185 O191 1.268 . S
C185 O194 1.268 . S
O186 Sc176 2.105 1_556 S
O186 C180 1.268 . S
O187 Sc177 2.105 . S
O187 C181 1.268 . S
O188 Sc178 2.105 1_554 S
O188 C182 1.268 . S
O189 Sc176 2.105 . S
O189 C183 1.268 . S
O190 Sc178 2.105 . S
O190 C184 1.268 . S
O191 Sc177 2.105 . S
O191 C185 1.268 . S
O192 Sc176 2.105 . S
O192 C184 1.268 1_554 S
O193 Sc177 2.105 . S
O193 C183 1.268 . S
O194 Sc178 2.105 1_554 S
O194 C185 1.268 . S
O195 Sc176 2.105 . S
O195 C181 1.268 . S
O196 Sc178 2.105 . S
O196 C180 1.268 . S
O197 Sc177 2.105 . S
O197 C182 1.268 . S
Sc198 O201 2.025 . S
Sc198 O208 2.105 . S
Sc198 O211 2.105 . S
Sc198 O214 2.105 . S
Sc198 O217 2.105 . S
Sc199 O201 2.025 . S
Sc199 O209 2.105 . S
Sc199 O213 2.105 . S
Sc199 O215 2.105 . S
Sc199 O219 2.105 . S
Sc200 O201 2.025 . S
Sc200 O210 2.105 . S
Sc200 O212 2.105 . S
Sc200 O216 2.105 . S
Sc200 O218 2.105 . S
O201 Sc198 2.025 . S
O201 Sc199 2.025 . S
O201 Sc200 2.025 . S
C202 O208 1.268 . S
C202 O218 1.268 . S
C203 O209 1.268 . S
C203 O217 1.268 . S
C204 O210 1.268 . S
C204 O219 1.268 . S
C205 O211 1.268 . S
C205 O215 1.268 . S
C206 O212 1.268 . S
C206 O214 1.268 . S
C207 O213 1.268 . S
C207 O216 1.268 . S
O208 Sc198 2.105 . S
O208 C202 1.268 . S
O209 Sc199 2.105 . S
O209 C203 1.268 . S
O210 Sc200 2.105 . S
O210 C204 1.268 . S
O211 Sc198 2.105 . S
O211 C205 1.268 . S
O212 Sc200 2.105 . S
O212 C206 1.268 . S
O213 Sc199 2.105 . S
O213 C207 1.268 . S
O214 Sc198 2.105 . S
O214 C206 1.268 . S
O215 Sc199 2.105 . S
O215 C205 1.268 . S
O216 Sc200 2.105 . S
O216 C207 1.268 . S
O217 Sc198 2.105 . S
O217 C203 1.268 . S
O218 Sc200 2.105 . S
O218 C202 1.268 . S
O219 Sc199 2.105 . S
O219 C204 1.268 . S
Sc220 O223 2.025 . S
Sc220 O230 2.105 . S
Sc220 O233 2.105 . S
Sc220 O236 2.105 . S
Sc220 O239 2.105 . S
Sc221 O223 2.025 . S
Sc221 O231 2.105 . S
Sc221 O235 2.105 . S
Sc221 O237 2.105 . S
Sc221 O241 2.105 . S
Sc222 O223 2.025 . S
Sc222 O232 2.105 . S
Sc222 O234 2.105 . S
Sc222 O238 2.105 . S
Sc222 O240 2.105 . S
O223 Sc220 2.025 . S
O223 Sc221 2.025 . S
O223 Sc222 2.025 . S
C224 O230 1.268 . S
C224 O240 1.268 . S
C225 O231 1.268 . S
C225 O239 1.268 . S
C226 O232 1.268 . S
C226 O241 1.268 . S
C227 O233 1.268 . S
C227 O237 1.268 . S
C228 O234 1.268 . S
C228 O236 1.268 . S
C229 O235 1.268 . S
C229 O238 1.268 . S
O230 Sc220 2.105 . S
O230 C224 1.268 . S
O231 Sc221 2.105 . S
O231 C225 1.268 . S
O232 Sc222 2.105 . S
O232 C226 1.268 . S
O233 Sc220 2.105 . S
O233 C227 1.268 . S
O234 Sc222 2.105 . S
O234 C228 1.268 . S
O235 Sc221 2.105 . S
O235 C229 1.268 . S
O236 Sc220 2.105 . S
O236 C228 1.268 . S
O237 Sc221 2.105 . S
O237 C227 1.268 . S
O238 Sc222 2.105 . S
O238 C229 1.268 . S
O239 Sc220 2.105 . S
O239 C225 1.268 . S
O240 Sc222 2.105 . S
O240 C224 1.268 . S
O241 Sc221 2.105 . S
O241 C226 1.268 . S
Sc242 O245 2.025 . S
Sc242 O252 2.105 . S
Sc242 O255 2.105 . S
Sc242 O258 2.105 . S
Sc242 O261 2.105 . S
Sc243 O245 2.025 . S
Sc243 O253 2.105 . S
Sc243 O257 2.105 . S
Sc243 O259 2.105 . S
Sc243 O263 2.105 . S
Sc244 O245 2.025 . S
Sc244 O254 2.105 . S
Sc244 O256 2.105 . S
Sc244 O260 2.105 . S
Sc244 O262 2.105 . S
O245 Sc242 2.025 . S
O245 Sc243 2.025 . S
O245 Sc244 2.025 . S
C246 O252 1.268 . S
C246 O262 1.268 . S
C247 O253 1.268 . S
C247 O261 1.268 . S
C248 O254 1.268 . S
C248 O263 1.268 . S
C249 O255 1.268 . S
C249 O259 1.268 . S
C250 O256 1.268 . S
C250 O258 1.268 . S
C251 O257 1.268 . S
C251 O260 1.268 . S
O252 Sc242 2.105 . S
O252 C246 1.268 . S
O253 Sc243 2.105 . S
O253 C247 1.268 . S
O254 Sc244 2.105 . S
O254 C248 1.268 . S
O255 Sc242 2.105 . S
O255 C249 1.268 . S
O256 Sc244 2.105 . S
O256 C250 1.268 . S
O257 Sc243 2.105 . S
O257 C251 1.268 . S
O258 Sc242 2.105 . S
O258 C250 1.268 . S
O259 Sc243 2.105 . S
O259 C249 1.268 . S
O260 Sc244 2.105 . S
O260 C251 1.268 . S
O261 Sc242 2.105 . S
O261 C247 1.268 . S
O262 Sc244 2.105 . S
O262 C246 1.268 . S
O263 Sc243 2.105 . S
O263 C248 1.268 . S
Sc264 O267 2.025 . S
Sc264 O274 2.105 . S
Sc264 O277 2.105 . S
Sc264 O280 2.105 . S
Sc264 O283 2.105 . S
Sc265 O267 2.025 . S
Sc265 O275 2.105 . S
Sc265 O279 2.105 . S
Sc265 O281 2.105 . S
Sc265 O285 2.105 . S
Sc266 O267 2.025 . S
Sc266 O276 2.105 . S
Sc266 O278 2.105 . S
Sc266 O282 2.105 . S
Sc266 O284 2.105 . S
O267 Sc264 2.025 . S
O267 Sc265 2.025 . S
O267 Sc266 2.025 . S
C268 O274 1.268 . S
C268 O284 1.268 . S
C269 O275 1.268 . S
C269 O283 1.268 . S
C270 O276 1.268 . S
C270 O285 1.268 . S
C271 O277 1.268 . S
C271 O281 1.268 . S
C272 O278 1.268 . S
C272 O280 1.268 . S
C273 O279 1.268 . S
C273 O282 1.268 . S
O274 Sc264 2.105 . S
O274 C268 1.268 . S
O275 Sc265 2.105 . S
O275 C269 1.268 . S
O276 Sc266 2.105 . S
O276 C270 1.268 . S
O277 Sc264 2.105 . S
O277 C271 1.268 . S
O278 Sc266 2.105 . S
O278 C272 1.268 . S
O279 Sc265 2.105 . S
O279 C273 1.268 . S
O280 Sc264 2.105 . S
O280 C272 1.268 . S
O281 Sc265 2.105 . S
O281 C271 1.268 . S
O282 Sc266 2.105 . S
O282 C273 1.268 . S
O283 Sc264 2.105 . S
O283 C269 1.268 . S
O284 Sc266 2.105 . S
O284 C268 1.268 . S
O285 Sc265 2.105 . S
O285 C270 1.268 . S
Sc286 O289 2.025 . S
Sc286 O296 2.105 . S
Sc286 O299 2.105 . S
Sc286 O302 2.105 . S
Sc286 O305 2.105 . S
Sc287 O289 2.025 . S
Sc287 O297 2.105 . S
Sc287 O301 2.105 . S
Sc287 O303 2.105 . S
Sc287 O307 2.105 . S
Sc288 O289 2.025 . S
Sc288 O298 2.105 . S
Sc288 O300 2.105 . S
Sc288 O304 2.105 . S
Sc288 O306 2.105 . S
O289 Sc286 2.025 . S
O289 Sc287 2.025 . S
O289 Sc288 2.025 . S
C290 O296 1.268 . S
C290 O306 1.268 . S
C291 O297 1.268 . S
C291 O305 1.268 . S
C292 O298 1.268 . S
C292 O307 1.268 . S
C293 O299 1.268 . S
C293 O303 1.268 . S
C294 O300 1.268 . S
C294 O302 1.268 . S
C295 O301 1.268 . S
C295 O304 1.268 . S
O296 Sc286 2.105 . S
O296 C290 1.268 . S
O297 Sc287 2.105 . S
O297 C291 1.268 . S
O298 Sc288 2.105 . S
O298 C292 1.268 . S
O299 Sc286 2.105 . S
O299 C293 1.268 . S
O300 Sc288 2.105 . S
O300 C294 1.268 . S
O301 Sc287 2.105 . S
O301 C295 1.268 . S
O302 Sc286 2.105 . S
O302 C294 1.268 . S
O303 Sc287 2.105 . S
O303 C293 1.268 . S
O304 Sc288 2.105 . S
O304 C295 1.268 . S
O305 Sc286 2.105 . S
O305 C291 1.268 . S
O306 Sc288 2.105 . S
O306 C290 1.268 . S
O307 Sc287 2.105 . S
O307 C292 1.268 . S
Sc308 O311 2.025 . S
Sc308 O318 2.105 . S
Sc308 O321 2.105 . S
Sc308 O324 2.105 . S
Sc308 O327 2.105 . S
Sc309 O311 2.025 . S
Sc309 O319 2.105 . S
Sc309 O323 2.105 . S
Sc309 O325 2.105 . S
Sc309 O329 2.105 . S
Sc310 O311 2.025 . S
Sc310 O320 2.105 . S
Sc310 O322 2.105 . S
Sc310 O326 2.105 . S
Sc310 O328 2.105 . S
O311 Sc308 2.025 . S
O311 Sc309 2.025 . S
O311 Sc310 2.025 . S
C312 O318 1.268 . S
C312 O328 1.268 . S
C313 O319 1.268 . S
C313 O327 1.268 . S
C314 O320 1.268 . S
C314 O329 1.268 . S
C315 O321 1.268 . S
C315 O325 1.268 . S
C316 O322 1.268 . S
C316 O324 1.268 . S
C317 O323 1.268 . S
C317 O326 1.268 . S
O318 Sc308 2.105 . S
O318 C312 1.268 . S
O319 Sc309 2.105 . S
O319 C313 1.268 . S
O320 Sc310 2.105 . S
O320 C314 1.268 . S
O321 Sc308 2.105 . S
O321 C315 1.268 . S
O322 Sc310 2.105 . S
O322 C316 1.268 . S
O323 Sc309 2.105 . S
O323 C317 1.268 . S
O324 Sc308 2.105 . S
O324 C316 1.268 . S
O325 Sc309 2.105 . S
O325 C315 1.268 . S
O326 Sc310 2.105 . S
O326 C317 1.268 . S
O327 Sc308 2.105 . S
O327 C313 1.268 . S
O328 Sc310 2.105 . S
O328 C312 1.268 . S
O329 Sc309 2.105 . S
O329 C314 1.268 . S
Sc330 O333 2.025 . S
Sc330 O340 2.105 . S
Sc330 O343 2.105 . S
Sc330 O346 2.105 1_556 S
Sc330 O349 2.105 . S
Sc331 O333 2.025 . S
Sc331 O341 2.105 . S
Sc331 O345 2.105 . S
Sc331 O347 2.105 . S
Sc331 O351 2.105 . S
Sc332 O333 2.025 1_554 S
Sc332 O342 2.105 1_554 S
Sc332 O344 2.105 . S
Sc332 O348 2.105 1_554 S
Sc332 O350 2.105 . S
O333 Sc330 2.025 . S
O333 Sc331 2.025 . S
O333 Sc332 2.025 1_556 S
C334 O340 1.268 1_554 S
C334 O350 1.268 . S
C335 O341 1.268 . S
C335 O349 1.268 . S
C336 O342 1.268 . S
C336 O351 1.268 . S
C337 O343 1.268 . S
C337 O347 1.268 . S
C338 O344 1.268 . S
C338 O346 1.268 . S
C339 O345 1.268 . S
C339 O348 1.268 . S
O340 Sc330 2.105 . S
O340 C334 1.268 1_556 S
O341 Sc331 2.105 . S
O341 C335 1.268 . S
O342 Sc332 2.105 1_556 S
O342 C336 1.268 . S
O343 Sc330 2.105 . S
O343 C337 1.268 . S
O344 Sc332 2.105 . S
O344 C338 1.268 . S
O345 Sc331 2.105 . S
O345 C339 1.268 . S
O346 Sc330 2.105 1_554 S
O346 C338 1.268 . S
O347 Sc331 2.105 . S
O347 C337 1.268 . S
O348 Sc332 2.105 1_556 S
O348 C339 1.268 . S
O349 Sc330 2.105 . S
O349 C335 1.268 . S
O350 Sc332 2.105 . S
O350 C334 1.268 . S
O351 Sc331 2.105 . S
O351 C336 1.268 . S
Sc352 O355 2.025 . S
Sc352 O362 2.105 . S
Sc352 O365 2.105 . S
Sc352 O368 2.105 . S
Sc352 O371 2.105 . S
Sc353 O355 2.025 1_554 S
Sc353 O363 2.105 1_554 S
Sc353 O367 2.105 . S
Sc353 O369 2.105 1_554 S
Sc353 O373 2.105 . S
Sc354 O355 2.025 . S
Sc354 O364 2.105 . S
Sc354 O366 2.105 . S
Sc354 O370 2.105 1_556 S
Sc354 O372 2.105 . S
O355 Sc352 2.025 . S
O355 Sc353 2.025 1_556 S
O355 Sc354 2.025 . S
C356 O362 1.268 . S
C356 O372 1.268 . S
C357 O363 1.268 . S
C357 O371 1.268 . S
C358 O364 1.268 1_554 S
C358 O373 1.268 . S
C359 O365 1.268 . S
C359 O369 1.268 . S
C360 O366 1.268 . S
C360 O368 1.268 . S
C361 O367 1.268 . S
C361 O370 1.268 . S
O362 Sc352 2.105 . S
O362 C356 1.268 . S
O363 Sc353 2.105 1_556 S
O363 C357 1.268 . S
O364 Sc354 2.105 . S
O364 C358 1.268 1_556 S
O365 Sc352 2.105 . S
O365 C359 1.268 . S
O366 Sc354 2.105 . S
O366 C360 1.268 . S
O367 Sc353 2.105 . S
O367 C361 1.268 . S
O368 Sc352 2.105 . S
O368 C360 1.268 . S
O369 Sc353 2.105 1_556 S
O369 C359 1.268 . S
O370 Sc354 2.105 1_554 S
O370 C361 1.268 . S
O371 Sc352 2.105 . S
O371 C357 1.268 . S
O372 Sc354 2.105 . S
O372 C356 1.268 . S
O373 Sc353 2.105 . S
O373 C358 1.268 . S
Sc374 O377 2.025 . S
Sc374 O384 2.105 . S
Sc374 O387 2.105 . S
Sc374 O390 2.105 . S
Sc374 O393 2.105 . S
Sc375 O377 2.025 1_554 S
Sc375 O385 2.105 1_554 S
Sc375 O389 2.105 . S
Sc375 O391 2.105 1_554 S
Sc375 O395 2.105 . S
Sc376 O377 2.025 . S
Sc376 O386 2.105 . S
Sc376 O388 2.105 . S
Sc376 O392 2.105 1_556 S
Sc376 O394 2.105 . S
O377 Sc374 2.025 . S
O377 Sc375 2.025 1_556 S
O377 Sc376 2.025 . S
C378 O384 1.268 . S
C378 O394 1.268 . S
C379 O385 1.268 . S
C379 O393 1.268 . S
C380 O386 1.268 1_554 S
C380 O395 1.268 . S
C381 O387 1.268 . S
C381 O391 1.268 . S
C382 O388 1.268 . S
C382 O390 1.268 . S
C383 O389 1.268 . S
C383 O392 1.268 . S
O384 Sc374 2.105 . S
O384 C378 1.268 . S
O385 Sc375 2.105 1_556 S
O385 C379 1.268 . S
O386 Sc376 2.105 . S
O386 C380 1.268 1_556 S
O387 Sc374 2.105 . S
O387 C381 1.268 . S
O388 Sc376 2.105 . S
O388 C382 1.268 . S
O389 Sc375 2.105 . S
O389 C383 1.268 . S
O390 Sc374 2.105 . S
O390 C382 1.268 . S
O391 Sc375 2.105 1_556 S
O391 C381 1.268 . S
O392 Sc376 2.105 1_554 S
O392 C383 1.268 . S
O393 Sc374 2.105 . S
O393 C379 1.268 . S
O394 Sc376 2.105 . S
O394 C378 1.268 . S
O395 Sc375 2.105 . S
O395 C380 1.268 . S
H396 C402 0.930 . S
H397 C406 0.930 . S
H398 C411 0.929 . S
H399 C409 0.929 . S
H400 C404 0.929 . S
H401 C410 0.929 . S
C402 H396 0.930 . S
C402 C403 1.367 . S
C402 C410 1.378 . S
C403 C402 1.367 . S
C403 C411 1.433 . S
C404 H400 0.929 . S
C404 C406 1.378 . S
C404 C408 1.350 . S
C405 C408 1.463 . S
C405 C410 1.350 . S
C405 N413 1.427 . S
C406 H397 0.930 . S
C406 C404 1.378 . S
C406 C407 1.367 . S
C407 C406 1.367 . S
C407 C409 1.433 . S
C408 C404 1.350 . S
C408 C405 1.463 . S
C408 N412 1.427 . S
C409 H399 0.929 . S
C409 C407 1.433 . S
C409 N412 1.384 . S
C410 H401 0.929 . S
C410 C402 1.378 . S
C410 C405 1.350 . S
C411 H398 0.929 . S
C411 C403 1.433 . S
C411 N413 1.384 . S
N412 C408 1.427 . S
N412 C409 1.384 . S
N413 C405 1.427 . S
N413 C411 1.384 . S
H414 C420 0.930 . S
H415 C424 0.930 . S
H416 C429 0.929 . S
H417 C427 0.929 . S
H418 C422 0.929 . S
H419 C428 0.929 . S
C420 H414 0.930 . S
C420 C421 1.367 . S
C420 C428 1.378 . S
C421 C420 1.367 . S
C421 C429 1.433 . S
C422 H418 0.929 . S
C422 C424 1.378 . S
C422 C426 1.350 . S
C423 C426 1.463 . S
C423 C428 1.350 . S
C423 N431 1.427 . S
C424 H415 0.930 . S
C424 C422 1.378 . S
C424 C425 1.367 . S
C425 C424 1.367 . S
C425 C427 1.433 . S
C426 C422 1.350 . S
C426 C423 1.463 . S
C426 N430 1.427 . S
C427 H417 0.929 . S
C427 C425 1.433 . S
C427 N430 1.384 . S
C428 H419 0.929 . S
C428 C420 1.378 . S
C428 C423 1.350 . S
C429 H416 0.929 . S
C429 C421 1.433 . S
C429 N431 1.384 . S
N430 C426 1.427 . S
N430 C427 1.384 . S
N431 C423 1.427 . S
N431 C429 1.384 . S
H432 C438 0.930 . S
H433 C442 0.930 . S
H434 C447 0.929 . S
H435 C445 0.929 . S
H436 C440 0.929 . S
H437 C446 0.929 . S
C438 H432 0.930 . S
C438 C439 1.367 . S
C438 C446 1.378 . S
C439 C438 1.367 . S
C439 C447 1.433 . S
C440 H436 0.929 . S
C440 C442 1.378 . S
C440 C444 1.350 . S
C441 C444 1.463 . S
C441 C446 1.350 . S
C441 N449 1.427 . S
C442 H433 0.930 . S
C442 C440 1.378 . S
C442 C443 1.367 . S
C443 C442 1.367 . S
C443 C445 1.433 . S
C444 C440 1.350 . S
C444 C441 1.463 . S
C444 N448 1.427 . S
C445 H435 0.929 . S
C445 C443 1.433 . S
C445 N448 1.384 . S
C446 H437 0.929 . S
C446 C438 1.378 . S
C446 C441 1.350 . S
C447 H434 0.929 . S
C447 C439 1.433 . S
C447 N449 1.384 . S
N448 C444 1.427 . S
N448 C445 1.384 . S
N449 C441 1.427 . S
N449 C447 1.384 . S
H450 C456 0.930 . S
H451 C460 0.930 . S
H452 C465 0.929 . S
H453 C463 0.929 . S
H454 C458 0.929 . S
H455 C464 0.929 1_554 S
C456 H450 0.930 . S
C456 C457 1.367 . S
C456 C464 1.378 . S
C457 C456 1.367 . S
C457 C465 1.433 . S
C458 H454 0.929 . S
C458 C460 1.378 . S
C458 C462 1.350 . S
C459 C462 1.463 1_556 S
C459 C464 1.350 . S
C459 N467 1.427 . S
C460 H451 0.930 . S
C460 C458 1.378 . S
C460 C461 1.367 . S
C461 C460 1.367 . S
C461 C463 1.433 . S
C462 C458 1.350 . S
C462 C459 1.463 1_554 S
C462 N466 1.427 . S
C463 H453 0.929 . S
C463 C461 1.433 . S
C463 N466 1.384 . S
C464 H455 0.929 1_556 S
C464 C456 1.378 . S
C464 C459 1.350 . S
C465 H452 0.929 . S
C465 C457 1.433 . S
C465 N467 1.384 . S
N466 C462 1.427 . S
N466 C463 1.384 . S
N467 C459 1.427 . S
N467 C465 1.384 . S
H468 C474 0.930 . S
H469 C478 0.930 . S
H470 C483 0.929 . S
H471 C481 0.929 . S
H472 C476 0.929 . S
H473 C482 0.929 . S
C474 H468 0.930 . S
C474 C475 1.367 . S
C474 C482 1.378 . S
C475 C474 1.367 . S
C475 C483 1.433 . S
C476 H472 0.929 . S
C476 C478 1.378 . S
C476 C480 1.350 . S
C477 C480 1.463 1_554 S
C477 C482 1.350 . S
C477 N485 1.427 . S
C478 H469 0.930 . S
C478 C476 1.378 . S
C478 C479 1.367 . S
C479 C478 1.367 . S
C479 C481 1.433 . S
C480 C476 1.350 . S
C480 C477 1.463 1_556 S
C480 N484 1.427 1_556 S
C481 H471 0.929 . S
C481 C479 1.433 . S
C481 N484 1.384 1_556 S
C482 H473 0.929 . S
C482 C474 1.378 . S
C482 C477 1.350 . S
C483 H470 0.929 . S
C483 C475 1.433 . S
C483 N485 1.384 . S
N484 C480 1.427 1_554 S
N484 C481 1.384 1_554 S
N485 C477 1.427 . S
N485 C483 1.384 . S
H486 C492 0.930 . S
H487 C496 0.930 . S
H488 C501 0.929 . S
H489 C499 0.929 . S
H490 C494 0.929 . S
H491 C500 0.929 . S
C492 H486 0.930 . S
C492 C493 1.367 . S
C492 C500 1.378 . S
C493 C492 1.367 . S
C493 C501 1.433 1_556 S
C494 H490 0.929 . S
C494 C496 1.378 . S
C494 C498 1.350 . S
C495 C498 1.463 1_556 S
C495 C500 1.350 . S
C495 N503 1.427 1_556 S
C496 H487 0.930 . S
C496 C494 1.378 . S
C496 C497 1.367 . S
C497 C496 1.367 . S
C497 C499 1.433 . S
C498 C494 1.350 . S
C498 C495 1.463 1_554 S
C498 N502 1.427 1_554 S
C499 H489 0.929 . S
C499 C497 1.433 . S
C499 N502 1.384 1_554 S
C500 H491 0.929 . S
C500 C492 1.378 . S
C500 C495 1.350 . S
C501 H488 0.929 . S
C501 C493 1.433 1_554 S
C501 N503 1.384 . S
N502 C498 1.427 1_556 S
N502 C499 1.384 1_556 S
N503 C495 1.427 1_554 S
N503 C501 1.384 . S
H504 C510 0.930 . S
H505 C514 0.930 . S
H506 C519 0.929 . S
H507 C517 0.929 . S
H508 C512 0.929 . S
H509 C518 0.929 . S
C510 H504 0.930 . S
C510 C511 1.367 . S
C510 C518 1.378 . S
C511 C510 1.367 . S
C511 C519 1.433 . S
C512 H508 0.929 . S
C512 C514 1.378 . S
C512 C516 1.350 . S
C513 C516 1.463 . S
C513 C518 1.350 . S
C513 N521 1.427 . S
C514 H505 0.930 . S
C514 C512 1.378 . S
C514 C515 1.367 . S
C515 C514 1.367 . S
C515 C517 1.433 . S
C516 C512 1.350 . S
C516 C513 1.463 . S
C516 N520 1.427 . S
C517 H507 0.929 . S
C517 C515 1.433 . S
C517 N520 1.384 . S
C518 H509 0.929 . S
C518 C510 1.378 . S
C518 C513 1.350 . S
C519 H506 0.929 . S
C519 C511 1.433 . S
C519 N521 1.384 . S
N520 C516 1.427 . S
N520 C517 1.384 . S
N521 C513 1.427 . S
N521 C519 1.384 . S
H522 C528 0.930 . S
H523 C532 0.930 . S
H524 C537 0.929 . S
H525 C535 0.929 . S
H526 C530 0.929 . S
H527 C536 0.929 . S
C528 H522 0.930 . S
C528 C529 1.367 . S
C528 C536 1.378 . S
C529 C528 1.367 . S
C529 C537 1.433 . S
C530 H526 0.929 . S
C530 C532 1.378 . S
C530 C534 1.350 . S
C531 C534 1.463 . S
C531 C536 1.350 . S
C531 N539 1.427 . S
C532 H523 0.930 . S
C532 C530 1.378 . S
C532 C533 1.367 . S
C533 C532 1.367 . S
C533 C535 1.433 . S
C534 C530 1.350 . S
C534 C531 1.463 . S
C534 N538 1.427 . S
C535 H525 0.929 . S
C535 C533 1.433 . S
C535 N538 1.384 . S
C536 H527 0.929 . S
C536 C528 1.378 . S
C536 C531 1.350 . S
C537 H524 0.929 . S
C537 C529 1.433 . S
C537 N539 1.384 . S
N538 C534 1.427 . S
N538 C535 1.384 . S
N539 C531 1.427 . S
N539 C537 1.384 . S
H540 C546 0.930 . S
H541 C550 0.930 . S
H542 C555 0.929 . S
H543 C553 0.929 . S
H544 C548 0.929 . S
H545 C554 0.929 . S
C546 H540 0.930 . S
C546 C547 1.367 . S
C546 C554 1.378 . S
C547 C546 1.367 . S
C547 C555 1.433 . S
C548 H544 0.929 . S
C548 C550 1.378 . S
C548 C552 1.350 . S
C549 C552 1.463 . S
C549 C554 1.350 . S
C549 N557 1.427 . S
C550 H541 0.930 . S
C550 C548 1.378 . S
C550 C551 1.367 . S
C551 C550 1.367 . S
C551 C553 1.433 . S
C552 C548 1.350 . S
C552 C549 1.463 . S
C552 N556 1.427 . S
C553 H543 0.929 . S
C553 C551 1.433 . S
C553 N556 1.384 . S
C554 H545 0.929 . S
C554 C546 1.378 . S
C554 C549 1.350 . S
C555 H542 0.929 . S
C555 C547 1.433 . S
C555 N557 1.384 . S
N556 C552 1.427 . S
N556 C553 1.384 . S
N557 C549 1.427 . S
N557 C555 1.384 . S
H558 C564 0.930 . S
H559 C568 0.930 . S
H560 C573 0.929 . S
H561 C571 0.929 . S
H562 C566 0.929 1_554 S
H563 C572 0.929 . S
C564 H558 0.930 . S
C564 C565 1.367 . S
C564 C572 1.378 1_554 S
C565 C564 1.367 . S
C565 C573 1.433 . S
C566 H562 0.929 1_556 S
C566 C568 1.378 . S
C566 C570 1.350 . S
C567 C570 1.458 1_554 S
C567 C572 1.348 1_554 S
C567 N575 1.434 . S
C568 H559 0.930 . S
C568 C566 1.378 . S
C568 C569 1.367 . S
C569 C568 1.367 . S
C569 C571 1.433 . S
C570 C566 1.350 . S
C570 C567 1.458 1_556 S
C570 N574 1.427 . S
C571 H561 0.929 . S
C571 C569 1.433 . S
C571 N574 1.384 . S
C572 H563 0.929 . S
C572 C564 1.378 1_556 S
C572 C567 1.348 1_556 S
C573 H560 0.929 . S
C573 C565 1.433 . S
C573 N575 1.384 . S
N574 C570 1.427 . S
N574 C571 1.384 . S
N575 C567 1.434 . S
N575 C573 1.384 . S
H576 C582 0.930 . S
H577 C586 0.930 . S
H578 C591 0.929 . S
H579 C589 0.929 . S
H580 C584 0.929 . S
H581 C590 0.929 1_554 S
C582 H576 0.930 . S
C582 C583 1.367 . S
C582 C590 1.378 . S
C583 C582 1.367 . S
C583 C591 1.433 . S
C584 H580 0.929 . S
C584 C586 1.378 1_556 S
C584 C588 1.348 1_556 S
C585 C588 1.460 1_556 S
C585 C590 1.350 . S
C585 N593 1.427 . S
C586 H577 0.930 . S
C586 C584 1.378 1_554 S
C586 C587 1.367 . S
C587 C586 1.367 . S
C587 C589 1.433 . S
C588 C584 1.348 1_554 S
C588 C585 1.460 1_554 S
C588 N592 1.432 . S
C589 H579 0.929 . S
C589 C587 1.433 . S
C589 N592 1.384 . S
C590 H581 0.929 1_556 S
C590 C582 1.378 . S
C590 C585 1.350 . S
C591 H578 0.929 . S
C591 C583 1.433 . S
C591 N593 1.384 . S
N592 C588 1.432 . S
N592 C589 1.384 . S
N593 C585 1.427 . S
N593 C591 1.384 . S
H594 C600 0.930 . S
H595 C604 0.930 1_556 S
H596 C609 0.929 . S
H597 C607 0.929 . S
H598 C602 0.929 . S
H599 C608 0.929 1_554 S
C600 H594 0.930 . S
C600 C601 1.367 . S
C600 C608 1.378 . S
C601 C600 1.367 . S
C601 C609 1.433 . S
C602 H598 0.929 . S
C602 C604 1.378 1_556 S
C602 C606 1.350 . S
C603 C606 1.462 . S
C603 C608 1.350 . S
C603 N611 1.427 . S
C604 H595 0.930 1_554 S
C604 C602 1.378 1_554 S
C604 C605 1.367 . S
C605 C604 1.367 . S
C605 C607 1.433 . S
C606 C602 1.350 . S
C606 C603 1.462 . S
C606 N610 1.428 1_556 S
C607 H597 0.929 . S
C607 C605 1.433 . S
C607 N610 1.384 . S
C608 H599 0.929 1_556 S
C608 C600 1.378 . S
C608 C603 1.350 . S
C609 H596 0.929 . S
C609 C601 1.433 . S
C609 N611 1.384 . S
N610 C606 1.428 1_554 S
N610 C607 1.384 . S
N611 C603 1.427 . S
N611 C609 1.384 . S
H612 C618 0.930 . S
H613 C622 0.930 . S
H614 C627 0.929 . S
H615 C625 0.929 . S
H616 C620 0.929 . S
H617 C626 0.929 . S
C618 H612 0.930 . S
C618 C619 1.367 . S
C618 C626 1.378 . S
C619 C618 1.367 . S
C619 C627 1.433 . S
C620 H616 0.929 . S
C620 C622 1.378 . S
C620 C624 1.350 . S
C621 C624 1.463 . S
C621 C626 1.350 . S
C621 N629 1.427 . S
C622 H613 0.930 . S
C622 C620 1.378 . S
C622 C623 1.367 . S
C623 C622 1.367 . S
C623 C625 1.433 . S
C624 C620 1.350 . S
C624 C621 1.463 . S
C624 N628 1.427 . S
C625 H615 0.929 . S
C625 C623 1.433 . S
C625 N628 1.384 . S
C626 H617 0.929 . S
C626 C618 1.378 . S
C626 C621 1.350 . S
C627 H614 0.929 . S
C627 C619 1.433 . S
C627 N629 1.384 . S
N628 C624 1.427 . S
N628 C625 1.384 . S
N629 C621 1.427 . S
N629 C627 1.384 . S
H630 C636 0.930 . S
H631 C640 0.930 . S
H632 C645 0.929 . S
H633 C643 0.929 . S
H634 C638 0.929 . S
H635 C644 0.929 . S
C636 H630 0.930 . S
C636 C637 1.367 . S
C636 C644 1.378 . S
C637 C636 1.367 . S
C637 C645 1.433 . S
C638 H634 0.929 . S
C638 C640 1.378 . S
C638 C642 1.350 . S
C639 C642 1.463 . S
C639 C644 1.350 . S
C639 N647 1.427 . S
C640 H631 0.930 . S
C640 C638 1.378 . S
C640 C641 1.367 . S
C641 C640 1.367 . S
C641 C643 1.433 . S
C642 C638 1.350 . S
C642 C639 1.463 . S
C642 N646 1.427 . S
C643 H633 0.929 . S
C643 C641 1.433 . S
C643 N646 1.384 . S
C644 H635 0.929 . S
C644 C636 1.378 . S
C644 C639 1.350 . S
C645 H632 0.929 . S
C645 C637 1.433 . S
C645 N647 1.384 . S
N646 C642 1.427 . S
N646 C643 1.384 . S
N647 C639 1.427 . S
N647 C645 1.384 . S
H648 C654 0.930 . S
H649 C658 0.930 . S
H650 C663 0.929 . S
H651 C661 0.929 . S
H652 C656 0.929 . S
H653 C662 0.929 . S
C654 H648 0.930 . S
C654 C655 1.367 . S
C654 C662 1.378 . S
C655 C654 1.367 . S
C655 C663 1.433 . S
C656 H652 0.929 . S
C656 C658 1.378 . S
C656 C660 1.350 . S
C657 C660 1.463 . S
C657 C662 1.350 . S
C657 N665 1.427 . S
C658 H649 0.930 . S
C658 C656 1.378 . S
C658 C659 1.367 . S
C659 C658 1.367 . S
C659 C661 1.433 . S
C660 C656 1.350 . S
C660 C657 1.463 . S
C660 N664 1.427 . S
C661 H651 0.929 . S
C661 C659 1.433 . S
C661 N664 1.384 . S
C662 H653 0.929 . S
C662 C654 1.378 . S
C662 C657 1.350 . S
C663 H650 0.929 . S
C663 C655 1.433 . S
C663 N665 1.384 . S
N664 C660 1.427 . S
N664 C661 1.384 . S
N665 C657 1.427 . S
N665 C663 1.384 . S
H666 C672 0.930 . S
H667 C676 0.930 . S
H668 C681 0.929 . S
H669 C679 0.929 . S
H670 C674 0.929 . S
H671 C680 0.929 . S
C672 H666 0.930 . S
C672 C673 1.367 . S
C672 C680 1.378 . S
C673 C672 1.367 . S
C673 C681 1.433 . S
C674 H670 0.929 . S
C674 C676 1.378 . S
C674 C678 1.350 . S
C675 C678 1.463 . S
C675 C680 1.350 . S
C675 N683 1.427 . S
C676 H667 0.930 . S
C676 C674 1.378 . S
C676 C677 1.367 . S
C677 C676 1.367 . S
C677 C679 1.433 . S
C678 C674 1.350 . S
C678 C675 1.463 . S
C678 N682 1.427 . S
C679 H669 0.929 . S
C679 C677 1.433 . S
C679 N682 1.384 . S
C680 H671 0.929 . S
C680 C672 1.378 . S
C680 C675 1.350 . S
C681 H668 0.929 . S
C681 C673 1.433 . S
C681 N683 1.384 . S
N682 C678 1.427 . S
N682 C679 1.384 . S
N683 C675 1.427 . S
N683 C681 1.384 . S
H684 C690 0.930 . S
H685 C694 0.930 . S
H686 C699 0.929 . S
H687 C697 0.929 . S
H688 C692 0.929 . S
H689 C698 0.929 . S
C690 H684 0.930 . S
C690 C691 1.367 . S
C690 C698 1.378 . S
C691 C690 1.367 . S
C691 C699 1.433 . S
C692 H688 0.929 . S
C692 C694 1.378 . S
C692 C696 1.350 . S
C693 C696 1.463 . S
C693 C698 1.350 . S
C693 N701 1.427 . S
C694 H685 0.930 . S
C694 C692 1.378 . S
C694 C695 1.367 . S
C695 C694 1.367 . S
C695 C697 1.433 . S
C696 C692 1.350 . S
C696 C693 1.463 . S
C696 N700 1.427 . S
C697 H687 0.929 . S
C697 C695 1.433 . S
C697 N700 1.384 . S
C698 H689 0.929 . S
C698 C690 1.378 . S
C698 C693 1.350 . S
C699 H686 0.929 . S
C699 C691 1.433 . S
C699 N701 1.384 . S
N700 C696 1.427 . S
N700 C697 1.384 . S
N701 C693 1.427 . S
N701 C699 1.384 . S
H702 C708 0.930 . S
H703 C712 0.930 . S
H704 C717 0.929 . S
H705 C715 0.929 . S
H706 C710 0.929 . S
H707 C716 0.929 . S
C708 H702 0.930 . S
C708 C709 1.367 . S
C708 C716 1.378 . S
C709 C708 1.367 . S
C709 C717 1.433 . S
C710 H706 0.929 . S
C710 C712 1.378 . S
C710 C714 1.350 . S
C711 C714 1.463 . S
C711 C716 1.350 . S
C711 N719 1.427 . S
C712 H703 0.930 . S
C712 C710 1.378 . S
C712 C713 1.367 . S
C713 C712 1.367 . S
C713 C715 1.433 . S
C714 C710 1.350 . S
C714 C711 1.463 . S
C714 N718 1.427 . S
C715 H705 0.929 . S
C715 C713 1.433 . S
C715 N718 1.384 . S
C716 H707 0.929 . S
C716 C708 1.378 . S
C716 C711 1.350 . S
C717 H704 0.929 . S
C717 C709 1.433 . S
C717 N719 1.384 . S
N718 C714 1.427 . S
N718 C715 1.384 . S
N719 C711 1.427 . S
N719 C717 1.384 . S
H720 C726 0.930 . S
H721 C730 0.930 . S
H722 C735 0.929 1_554 S
H723 C733 0.929 . S
H724 C728 0.929 . S
H725 C734 0.929 . S
C726 H720 0.930 . S
C726 C727 1.367 . S
C726 C734 1.378 . S
C727 C726 1.367 . S
C727 C735 1.433 . S
C728 H724 0.929 . S
C728 C730 1.378 . S
C728 C732 1.350 . S
C729 C732 1.463 . S
C729 C734 1.350 . S
C729 N737 1.427 . S
C730 H721 0.930 . S
C730 C728 1.378 . S
C730 C731 1.367 . S
C731 C730 1.367 . S
C731 C733 1.433 . S
C732 C728 1.350 . S
C732 C729 1.463 . S
C732 N736 1.427 . S
C733 H723 0.929 . S
C733 C731 1.433 . S
C733 N736 1.384 . S
C734 H725 0.929 . S
C734 C726 1.378 . S
C734 C729 1.350 . S
C735 H722 0.929 1_556 S
C735 C727 1.433 . S
C735 N737 1.384 . S
N736 C732 1.427 . S
N736 C733 1.384 . S
N737 C729 1.427 . S
N737 C735 1.384 . S
H738 C744 0.930 . S
H739 C748 0.930 . S
H740 C753 0.929 1_554 S
H741 C751 0.929 . S
H742 C746 0.929 . S
H743 C752 0.929 . S
C744 H738 0.930 . S
C744 C745 1.367 . S
C744 C752 1.378 . S
C745 C744 1.367 . S
C745 C753 1.433 . S
C746 H742 0.929 . S
C746 C748 1.378 . S
C746 C750 1.350 . S
C747 C750 1.463 . S
C747 C752 1.350 . S
C747 N755 1.427 . S
C748 H739 0.930 . S
C748 C746 1.378 . S
C748 C749 1.367 . S
C749 C748 1.367 . S
C749 C751 1.433 . S
C750 C746 1.350 . S
C750 C747 1.463 . S
C750 N754 1.427 . S
C751 H741 0.929 . S
C751 C749 1.433 . S
C751 N754 1.384 . S
C752 H743 0.929 . S
C752 C744 1.378 . S
C752 C747 1.350 . S
C753 H740 0.929 1_556 S
C753 C745 1.433 . S
C753 N755 1.384 . S
N754 C750 1.427 . S
N754 C751 1.384 . S
N755 C747 1.427 . S
N755 C753 1.384 . S
H756 C762 0.930 1_554 S
H757 C766 0.930 . S
H758 C771 0.929 . S
H759 C769 0.929 . S
H760 C764 0.929 . S
H761 C770 0.929 . S
C762 H756 0.930 1_556 S
C762 C763 1.367 . S
C762 C770 1.378 . S
C763 C762 1.367 . S
C763 C771 1.433 . S
C764 H760 0.929 . S
C764 C766 1.378 . S
C764 C768 1.350 . S
C765 C768 1.463 . S
C765 C770 1.350 . S
C765 N773 1.427 . S
C766 H757 0.930 . S
C766 C764 1.378 . S
C766 C767 1.367 . S
C767 C766 1.367 . S
C767 C769 1.433 . S
C768 C764 1.350 . S
C768 C765 1.463 . S
C768 N772 1.427 . S
C769 H759 0.929 . S
C769 C767 1.433 . S
C769 N772 1.384 . S
C770 H761 0.929 . S
C770 C762 1.378 . S
C770 C765 1.350 . S
C771 H758 0.929 . S
C771 C763 1.433 . S
C771 N773 1.384 . S
N772 C768 1.427 . S
N772 C769 1.384 . S
N773 C765 1.427 . S
N773 C771 1.384 . S
H774 C780 0.930 . S
H775 C784 0.930 . S
H776 C789 0.929 . S
H777 C787 0.929 . S
H778 C782 0.929 . S
H779 C788 0.929 . S
C780 H774 0.930 . S
C780 C781 1.367 . S
C780 C788 1.378 . S
C781 C780 1.367 . S
C781 C789 1.433 . S
C782 H778 0.929 . S
C782 C784 1.378 . S
C782 C786 1.350 . S
C783 C786 1.463 . S
C783 C788 1.350 . S
C783 N791 1.427 . S
C784 H775 0.930 . S
C784 C782 1.378 . S
C784 C785 1.367 . S
C785 C784 1.367 . S
C785 C787 1.433 . S
C786 C782 1.350 . S
C786 C783 1.463 . S
C786 N790 1.427 . S
C787 H777 0.929 . S
C787 C785 1.433 . S
C787 N790 1.384 . S
C788 H779 0.929 . S
C788 C780 1.378 . S
C788 C783 1.350 . S
C789 H776 0.929 . S
C789 C781 1.433 . S
C789 N791 1.384 . S
N790 C786 1.427 . S
N790 C787 1.384 . S
N791 C783 1.427 . S
N791 C789 1.384 . S
H792 C798 0.930 . S
H793 C802 0.930 . S
H794 C807 0.929 . S
H795 C805 0.929 . S
H796 C800 0.929 . S
H797 C806 0.929 . S
C798 H792 0.930 . S
C798 C799 1.367 . S
C798 C806 1.378 . S
C799 C798 1.367 . S
C799 C807 1.433 . S
C800 H796 0.929 . S
C800 C802 1.378 . S
C800 C804 1.350 . S
C801 C804 1.463 . S
C801 C806 1.350 . S
C801 N809 1.427 . S
C802 H793 0.930 . S
C802 C800 1.378 . S
C802 C803 1.367 . S
C803 C802 1.367 . S
C803 C805 1.433 . S
C804 C800 1.350 . S
C804 C801 1.463 . S
C804 N808 1.427 . S
C805 H795 0.929 . S
C805 C803 1.433 . S
C805 N808 1.384 . S
C806 H797 0.929 . S
C806 C798 1.378 . S
C806 C801 1.350 . S
C807 H794 0.929 . S
C807 C799 1.433 . S
C807 N809 1.384 . S
N808 C804 1.427 . S
N808 C805 1.384 . S
N809 C801 1.427 . S
N809 C807 1.384 . S
H810 C816 0.930 . S
H811 C820 0.930 . S
H812 C825 0.929 . S
H813 C823 0.929 . S
H814 C818 0.929 . S
H815 C824 0.929 . S
C816 H810 0.930 . S
C816 C817 1.367 . S
C816 C824 1.378 . S
C817 C816 1.367 . S
C817 C825 1.433 . S
C818 H814 0.929 . S
C818 C820 1.378 . S
C818 C822 1.350 . S
C819 C822 1.463 . S
C819 C824 1.350 . S
C819 N827 1.427 . S
C820 H811 0.930 . S
C820 C818 1.378 . S
C820 C821 1.367 . S
C821 C820 1.367 . S
C821 C823 1.433 . S
C822 C818 1.350 . S
C822 C819 1.463 . S
C822 N826 1.427 . S
C823 H813 0.929 . S
C823 C821 1.433 . S
C823 N826 1.384 . S
C824 H815 0.929 . S
C824 C816 1.378 . S
C824 C819 1.350 . S
C825 H812 0.929 . S
C825 C817 1.433 . S
C825 N827 1.384 . S
N826 C822 1.427 . S
N826 C823 1.384 . S
N827 C819 1.427 . S
N827 C825 1.384 . S
H828 C834 0.930 . S
H829 C838 0.930 . S
H830 C843 0.929 . S
H831 C841 0.929 1_556 S
H832 C836 0.929 . S
H833 C842 0.929 . S
C834 H828 0.930 . S
C834 C835 1.367 . S
C834 C842 1.378 . S
C835 C834 1.367 . S
C835 C843 1.433 . S
C836 H832 0.929 . S
C836 C838 1.378 . S
C836 C840 1.350 . S
C837 C840 1.463 . S
C837 C842 1.350 . S
C837 N845 1.427 . S
C838 H829 0.930 . S
C838 C836 1.378 . S
C838 C839 1.367 . S
C839 C838 1.367 . S
C839 C841 1.433 . S
C840 C836 1.350 . S
C840 C837 1.463 . S
C840 N844 1.427 . S
C841 H831 0.929 1_554 S
C841 C839 1.433 . S
C841 N844 1.384 . S
C842 H833 0.929 . S
C842 C834 1.378 . S
C842 C837 1.350 . S
C843 H830 0.929 . S
C843 C835 1.433 . S
C843 N845 1.384 . S
N844 C840 1.427 . S
N844 C841 1.384 . S
N845 C837 1.427 . S
N845 C843 1.384 . S
H846 C852 0.930 . S
H847 C856 0.930 . S
H848 C861 0.929 . S
H849 C859 0.929 1_556 S
H850 C854 0.929 . S
H851 C860 0.929 . S
C852 H846 0.930 . S
C852 C853 1.367 . S
C852 C860 1.378 . S
C853 C852 1.367 . S
C853 C861 1.433 . S
C854 H850 0.929 . S
C854 C856 1.378 . S
C854 C858 1.350 . S
C855 C858 1.463 . S
C855 C860 1.350 . S
C855 N863 1.427 . S
C856 H847 0.930 . S
C856 C854 1.378 . S
C856 C857 1.367 . S
C857 C856 1.367 . S
C857 C859 1.433 . S
C858 C854 1.350 . S
C858 C855 1.463 . S
C858 N862 1.427 . S
C859 H849 0.929 1_554 S
C859 C857 1.433 . S
C859 N862 1.384 . S
C860 H851 0.929 . S
C860 C852 1.378 . S
C860 C855 1.350 . S
C861 H848 0.929 . S
C861 C853 1.433 . S
C861 N863 1.384 . S
N862 C858 1.427 . S
N862 C859 1.384 . S
N863 C855 1.427 . S
N863 C861 1.384 . S
H864 C870 0.930 . S
H865 C874 0.930 . S
H866 C879 0.929 . S
H867 C877 0.929 . S
H868 C872 0.929 . S
H869 C878 0.929 . S
C870 H864 0.930 . S
C870 C871 1.367 . S
C870 C878 1.378 . S
C871 C870 1.367 . S
C871 C879 1.433 . S
C872 H868 0.929 . S
C872 C874 1.378 . S
C872 C876 1.350 . S
C873 C876 1.463 . S
C873 C878 1.350 . S
C873 N881 1.427 . S
C874 H865 0.930 . S
C874 C872 1.378 . S
C874 C875 1.367 . S
C875 C874 1.367 . S
C875 C877 1.433 . S
C876 C872 1.350 . S
C876 C873 1.463 . S
C876 N880 1.427 . S
C877 H867 0.929 . S
C877 C875 1.433 . S
C877 N880 1.384 . S
C878 H869 0.929 . S
C878 C870 1.378 . S
C878 C873 1.350 . S
C879 H866 0.929 . S
C879 C871 1.433 . S
C879 N881 1.384 . S
N880 C876 1.427 . S
N880 C877 1.384 . S
N881 C873 1.427 . S
N881 C879 1.384 . S
H882 C888 0.930 . S
H883 C892 0.930 . S
H884 C897 0.929 . S
H885 C895 0.929 . S
H886 C890 0.929 . S
H887 C896 0.929 . S
C888 H882 0.930 . S
C888 C889 1.367 . S
C888 C896 1.378 . S
C889 C888 1.367 . S
C889 C897 1.433 . S
C890 H886 0.929 . S
C890 C892 1.378 . S
C890 C894 1.350 . S
C891 C894 1.463 . S
C891 C896 1.350 . S
C891 N899 1.427 . S
C892 H883 0.930 . S
C892 C890 1.378 . S
C892 C893 1.367 . S
C893 C892 1.367 . S
C893 C895 1.433 . S
C894 C890 1.350 . S
C894 C891 1.463 . S
C894 N898 1.427 . S
C895 H885 0.929 . S
C895 C893 1.433 . S
C895 N898 1.384 . S
C896 H887 0.929 . S
C896 C888 1.378 . S
C896 C891 1.350 . S
C897 H884 0.929 . S
C897 C889 1.433 . S
C897 N899 1.384 . S
N898 C894 1.427 . S
N898 C895 1.384 . S
N899 C891 1.427 . S
N899 C897 1.384 . S
H900 C906 0.930 . S
H901 C910 0.930 . S
H902 C915 0.929 . S
H903 C913 0.929 . S
H904 C908 0.929 . S
H905 C914 0.929 . S
C906 H900 0.930 . S
C906 C907 1.367 . S
C906 C914 1.378 . S
C907 C906 1.367 . S
C907 C915 1.433 . S
C908 H904 0.929 . S
C908 C910 1.378 . S
C908 C912 1.350 . S
C909 C912 1.463 . S
C909 C914 1.350 . S
C909 N917 1.427 . S
C910 H901 0.930 . S
C910 C908 1.378 . S
C910 C911 1.367 . S
C911 C910 1.367 . S
C911 C913 1.433 . S
C912 C908 1.350 . S
C912 C909 1.463 . S
C912 N916 1.427 . S
C913 H903 0.929 . S
C913 C911 1.433 . S
C913 N916 1.384 . S
C914 H905 0.929 . S
C914 C906 1.378 . S
C914 C909 1.350 . S
C915 H902 0.929 . S
C915 C907 1.433 . S
C915 N917 1.384 . S
N916 C912 1.427 . S
N916 C913 1.384 . S
N917 C909 1.427 . S
N917 C915 1.384 . S
H918 C924 0.930 . S
H919 C928 0.930 . S
H920 C933 0.929 . S
H921 C931 0.929 . S
H922 C926 0.929 . S
H923 C932 0.929 . S
C924 H918 0.930 . S
C924 C925 1.367 . S
C924 C932 1.378 . S
C925 C924 1.367 . S
C925 C933 1.433 . S
C926 H922 0.929 . S
C926 C928 1.378 . S
C926 C930 1.350 . S
C927 C930 1.463 . S
C927 C932 1.350 . S
C927 N935 1.427 . S
C928 H919 0.930 . S
C928 C926 1.378 . S
C928 C929 1.367 . S
C929 C928 1.367 . S
C929 C931 1.433 . S
C930 C926 1.350 . S
C930 C927 1.463 . S
C930 N934 1.427 . S
C931 H921 0.929 . S
C931 C929 1.433 . S
C931 N934 1.384 . S
C932 H923 0.929 . S
C932 C924 1.378 . S
C932 C927 1.350 . S
C933 H920 0.929 . S
C933 C925 1.433 . S
C933 N935 1.384 . S
N934 C930 1.427 . S
N934 C931 1.384 . S
N935 C927 1.427 . S
N935 C933 1.384 . S
H936 C942 0.930 . S
H937 C946 0.930 . S
H938 C951 0.929 . S
H939 C949 0.929 . S
H940 C944 0.929 . S
H941 C950 0.929 . S
C942 H936 0.930 . S
C942 C943 1.367 . S
C942 C950 1.378 . S
C943 C942 1.367 . S
C943 C951 1.433 . S
C944 H940 0.929 . S
C944 C946 1.378 . S
C944 C948 1.350 . S
C945 C948 1.463 . S
C945 C950 1.350 . S
C945 N953 1.427 . S
C946 H937 0.930 . S
C946 C944 1.378 . S
C946 C947 1.367 . S
C947 C946 1.367 . S
C947 C949 1.433 . S
C948 C944 1.350 . S
C948 C945 1.463 . S
C948 N952 1.427 . S
C949 H939 0.929 . S
C949 C947 1.433 . S
C949 N952 1.384 . S
C950 H941 0.929 . S
C950 C942 1.378 . S
C950 C945 1.350 . S
C951 H938 0.929 . S
C951 C943 1.433 . S
C951 N953 1.384 . S
N952 C948 1.427 . S
N952 C949 1.384 . S
N953 C945 1.427 . S
N953 C951 1.384 . S
H954 C960 0.930 . S
H955 C964 0.930 . S
H956 C969 0.929 . S
H957 C967 0.929 . S
H958 C962 0.929 . S
H959 C968 0.929 . S
C960 H954 0.930 . S
C960 C961 1.367 . S
C960 C968 1.378 . S
C961 C960 1.367 . S
C961 C969 1.433 . S
C962 H958 0.929 . S
C962 C964 1.378 . S
C962 C966 1.350 . S
C963 C966 1.463 . S
C963 C968 1.350 . S
C963 N971 1.427 . S
C964 H955 0.930 . S
C964 C962 1.378 . S
C964 C965 1.367 . S
C965 C964 1.367 . S
C965 C967 1.433 . S
C966 C962 1.350 . S
C966 C963 1.463 . S
C966 N970 1.427 . S
C967 H957 0.929 . S
C967 C965 1.433 . S
C967 N970 1.384 . S
C968 H959 0.929 . S
C968 C960 1.378 . S
C968 C963 1.350 . S
C969 H956 0.929 . S
C969 C961 1.433 . S
C969 N971 1.384 . S
N970 C966 1.427 . S
N970 C967 1.384 . S
N971 C963 1.427 . S
N971 C969 1.384 . S
H972 C978 0.930 . S
H973 C982 0.930 . S
H974 C987 0.929 . S
H975 C985 0.929 . S
H976 C980 0.929 . S
H977 C986 0.929 . S
C978 H972 0.930 . S
C978 C979 1.367 . S
C978 C986 1.378 . S
C979 C978 1.367 . S
C979 C987 1.433 . S
C980 H976 0.929 . S
C980 C982 1.378 . S
C980 C984 1.350 . S
C981 C984 1.463 . S
C981 C986 1.350 . S
C981 N989 1.427 . S
C982 H973 0.930 . S
C982 C980 1.378 . S
C982 C983 1.367 . S
C983 C982 1.367 . S
C983 C985 1.433 . S
C984 C980 1.350 . S
C984 C981 1.463 . S
C984 N988 1.427 . S
C985 H975 0.929 . S
C985 C983 1.433 . S
C985 N988 1.384 . S
C986 H977 0.929 . S
C986 C978 1.378 . S
C986 C981 1.350 . S
C987 H974 0.929 . S
C987 C979 1.433 . S
C987 N989 1.384 . S
N988 C984 1.427 . S
N988 C985 1.384 . S
N989 C981 1.427 . S
N989 C987 1.384 . S
H990 C996 0.930 . S
H991 C1000 0.930 . S
H992 C1005 0.929 . S
H993 C1003 0.929 . S
H994 C998 0.929 . S
H995 C1004 0.929 . S
C996 H990 0.930 . S
C996 C997 1.367 . S
C996 C1004 1.378 . S
C997 C996 1.367 . S
C997 C1005 1.433 . S
C998 H994 0.929 . S
C998 C1000 1.378 . S
C998 C1002 1.350 . S
C999 C1002 1.463 . S
C999 C1004 1.350 . S
C999 N1007 1.427 . S
C1000 H991 0.930 . S
C1000 C998 1.378 . S
C1000 C1001 1.367 . S
C1001 C1000 1.367 . S
C1001 C1003 1.433 . S
C1002 C998 1.350 . S
C1002 C999 1.463 . S
C1002 N1006 1.427 . S
C1003 H993 0.929 . S
C1003 C1001 1.433 . S
C1003 N1006 1.384 . S
C1004 H995 0.929 . S
C1004 C996 1.378 . S
C1004 C999 1.350 . S
C1005 H992 0.929 . S
C1005 C997 1.433 . S
C1005 N1007 1.384 . S
N1006 C1002 1.427 . S
N1006 C1003 1.384 . S
N1007 C999 1.427 . S
N1007 C1005 1.384 . S
H1008 C1014 0.930 . S
H1009 C1018 0.930 . S
H1010 C1023 0.929 . S
H1011 C1021 0.929 . S
H1012 C1016 0.929 . S
H1013 C1022 0.929 . S
C1014 H1008 0.930 . S
C1014 C1015 1.367 . S
C1014 C1022 1.378 . S
C1015 C1014 1.367 . S
C1015 C1023 1.433 . S
C1016 H1012 0.929 . S
C1016 C1018 1.378 . S
C1016 C1020 1.350 . S
C1017 C1020 1.463 . S
C1017 C1022 1.350 . S
C1017 N1025 1.427 . S
C1018 H1009 0.930 . S
C1018 C1016 1.378 . S
C1018 C1019 1.367 . S
C1019 C1018 1.367 . S
C1019 C1021 1.433 . S
C1020 C1016 1.350 . S
C1020 C1017 1.463 . S
C1020 N1024 1.427 . S
C1021 H1011 0.929 . S
C1021 C1019 1.433 . S
C1021 N1024 1.384 . S
C1022 H1013 0.929 . S
C1022 C1014 1.378 . S
C1022 C1017 1.350 . S
C1023 H1010 0.929 . S
C1023 C1015 1.433 . S
C1023 N1025 1.384 . S
N1024 C1020 1.427 . S
N1024 C1021 1.384 . S
N1025 C1017 1.427 . S
N1025 C1023 1.384 . S
H1026 C1032 0.930 . S
H1027 C1036 0.930 . S
H1028 C1041 0.929 . S
H1029 C1039 0.929 . S
H1030 C1034 0.929 . S
H1031 C1040 0.929 . S
C1032 H1026 0.930 . S
C1032 C1033 1.367 . S
C1032 C1040 1.378 . S
C1033 C1032 1.367 . S
C1033 C1041 1.433 . S
C1034 H1030 0.929 . S
C1034 C1036 1.378 . S
C1034 C1038 1.350 . S
C1035 C1038 1.463 . S
C1035 C1040 1.350 . S
C1035 N1043 1.427 . S
C1036 H1027 0.930 . S
C1036 C1034 1.378 . S
C1036 C1037 1.367 . S
C1037 C1036 1.367 . S
C1037 C1039 1.433 . S
C1038 C1034 1.350 . S
C1038 C1035 1.463 . S
C1038 N1042 1.427 . S
C1039 H1029 0.929 . S
C1039 C1037 1.433 . S
C1039 N1042 1.384 . S
C1040 H1031 0.929 . S
C1040 C1032 1.378 . S
C1040 C1035 1.350 . S
C1041 H1028 0.929 . S
C1041 C1033 1.433 . S
C1041 N1043 1.384 . S
N1042 C1038 1.427 . S
N1042 C1039 1.384 . S
N1043 C1035 1.427 . S
N1043 C1041 1.384 . S
H1044 C1050 0.930 . S
H1045 C1054 0.930 . S
H1046 C1059 0.929 . S
H1047 C1057 0.929 . S
H1048 C1052 0.929 . S
H1049 C1058 0.929 . S
C1050 H1044 0.930 . S
C1050 C1051 1.367 . S
C1050 C1058 1.378 . S
C1051 C1050 1.367 . S
C1051 C1059 1.433 . S
C1052 H1048 0.929 . S
C1052 C1054 1.378 . S
C1052 C1056 1.350 . S
C1053 C1056 1.463 . S
C1053 C1058 1.350 . S
C1053 N1061 1.427 . S
C1054 H1045 0.930 . S
C1054 C1052 1.378 . S
C1054 C1055 1.367 . S
C1055 C1054 1.367 . S
C1055 C1057 1.433 . S
C1056 C1052 1.350 . S
C1056 C1053 1.463 . S
C1056 N1060 1.427 . S
C1057 H1047 0.929 . S
C1057 C1055 1.433 . S
C1057 N1060 1.384 . S
C1058 H1049 0.929 . S
C1058 C1050 1.378 . S
C1058 C1053 1.350 . S
C1059 H1046 0.929 . S
C1059 C1051 1.433 . S
C1059 N1061 1.384 . S
N1060 C1056 1.427 . S
N1060 C1057 1.384 . S
N1061 C1053 1.427 . S
N1061 C1059 1.384 . S
H1062 C1068 0.930 . S
H1063 C1072 0.930 . S
H1064 C1077 0.929 . S
H1065 C1075 0.929 . S
H1066 C1070 0.929 . S
H1067 C1076 0.929 . S
C1068 H1062 0.930 . S
C1068 C1069 1.367 . S
C1068 C1076 1.378 . S
C1069 C1068 1.367 . S
C1069 C1077 1.433 . S
C1070 H1066 0.929 . S
C1070 C1072 1.378 . S
C1070 C1074 1.350 . S
C1071 C1074 1.463 . S
C1071 C1076 1.350 . S
C1071 N1079 1.427 . S
C1072 H1063 0.930 . S
C1072 C1070 1.378 . S
C1072 C1073 1.367 . S
C1073 C1072 1.367 . S
C1073 C1075 1.433 . S
C1074 C1070 1.350 . S
C1074 C1071 1.463 . S
C1074 N1078 1.427 . S
C1075 H1065 0.929 . S
C1075 C1073 1.433 . S
C1075 N1078 1.384 . S
C1076 H1067 0.929 . S
C1076 C1068 1.378 . S
C1076 C1071 1.350 . S
C1077 H1064 0.929 . S
C1077 C1069 1.433 . S
C1077 N1079 1.384 . S
N1078 C1074 1.427 . S
N1078 C1075 1.384 . S
N1079 C1071 1.427 . S
N1079 C1077 1.384 . S
H1080 C1086 0.930 . S
H1081 C1090 0.930 . S
H1082 C1095 0.929 . S
H1083 C1093 0.929 . S
H1084 C1088 0.929 . S
H1085 C1094 0.929 . S
C1086 H1080 0.930 . S
C1086 C1087 1.367 . S
C1086 C1094 1.378 . S
C1087 C1086 1.367 . S
C1087 C1095 1.433 . S
C1088 H1084 0.929 . S
C1088 C1090 1.378 . S
C1088 C1092 1.350 . S
C1089 C1092 1.463 . S
C1089 C1094 1.350 . S
C1089 N1097 1.427 . S
C1090 H1081 0.930 . S
C1090 C1088 1.378 . S
C1090 C1091 1.367 . S
C1091 C1090 1.367 . S
C1091 C1093 1.433 . S
C1092 C1088 1.350 . S
C1092 C1089 1.463 . S
C1092 N1096 1.427 . S
C1093 H1083 0.929 . S
C1093 C1091 1.433 . S
C1093 N1096 1.384 . S
C1094 H1085 0.929 . S
C1094 C1086 1.378 . S
C1094 C1089 1.350 . S
C1095 H1082 0.929 . S
C1095 C1087 1.433 . S
C1095 N1097 1.384 . S
N1096 C1092 1.427 . S
N1096 C1093 1.384 . S
N1097 C1089 1.427 . S
N1097 C1095 1.384 . S
H1098 C1104 0.930 . S
H1099 C1108 0.930 1_554 S
H1100 C1113 0.929 . S
H1101 C1111 0.929 . S
H1102 C1106 0.929 . S
H1103 C1112 0.929 . S
C1104 H1098 0.930 . S
C1104 C1105 1.367 . S
C1104 C1112 1.378 . S
C1105 C1104 1.367 . S
C1105 C1113 1.433 . S
C1106 H1102 0.929 . S
C1106 C1108 1.378 . S
C1106 C1110 1.350 . S
C1107 C1110 1.463 . S
C1107 C1112 1.350 . S
C1107 N1115 1.427 . S
C1108 H1099 0.930 1_556 S
C1108 C1106 1.378 . S
C1108 C1109 1.367 1_556 S
C1109 C1108 1.367 1_554 S
C1109 C1111 1.433 . S
C1110 C1106 1.350 . S
C1110 C1107 1.463 . S
C1110 N1114 1.427 . S
C1111 H1101 0.929 . S
C1111 C1109 1.433 . S
C1111 N1114 1.384 1_554 S
C1112 H1103 0.929 . S
C1112 C1104 1.378 . S
C1112 C1107 1.350 . S
C1113 H1100 0.929 . S
C1113 C1105 1.433 . S
C1113 N1115 1.384 . S
N1114 C1110 1.427 . S
N1114 C1111 1.384 1_556 S
N1115 C1107 1.427 . S
N1115 C1113 1.384 . S
H1116 C1122 0.930 . S
H1117 C1126 0.930 . S
H1118 C1131 0.929 . S
H1119 C1129 0.929 . S
H1120 C1124 0.929 . S
H1121 C1130 0.929 . S
C1122 H1116 0.930 . S
C1122 C1123 1.367 . S
C1122 C1130 1.378 . S
C1123 C1122 1.367 . S
C1123 C1131 1.433 . S
C1124 H1120 0.929 . S
C1124 C1126 1.378 . S
C1124 C1128 1.350 1_554 S
C1125 C1128 1.463 . S
C1125 C1130 1.350 . S
C1125 N1133 1.427 . S
C1126 H1117 0.930 . S
C1126 C1124 1.378 . S
C1126 C1127 1.367 . S
C1127 C1126 1.367 . S
C1127 C1129 1.433 1_554 S
C1128 C1124 1.350 1_556 S
C1128 C1125 1.463 . S
C1128 N1132 1.427 . S
C1129 H1119 0.929 . S
C1129 C1127 1.433 1_556 S
C1129 N1132 1.384 . S
C1130 H1121 0.929 . S
C1130 C1122 1.378 . S
C1130 C1125 1.350 . S
C1131 H1118 0.929 . S
C1131 C1123 1.433 . S
C1131 N1133 1.384 . S
N1132 C1128 1.427 . S
N1132 C1129 1.384 . S
N1133 C1125 1.427 . S
N1133 C1131 1.384 . S
H1134 C1140 0.930 . S
H1135 C1144 0.930 . S
H1136 C1149 0.929 . S
H1137 C1147 0.929 . S
H1138 C1142 0.929 . S
H1139 C1148 0.929 . S
C1140 H1134 0.930 . S
C1140 C1141 1.367 . S
C1140 C1148 1.378 . S
C1141 C1140 1.367 . S
C1141 C1149 1.433 . S
C1142 H1138 0.929 . S
C1142 C1144 1.378 . S
C1142 C1146 1.350 . S
C1143 C1146 1.463 . S
C1143 C1148 1.350 . S
C1143 N1151 1.427 . S
C1144 H1135 0.930 . S
C1144 C1142 1.378 . S
C1144 C1145 1.367 1_556 S
C1145 C1144 1.367 1_554 S
C1145 C1147 1.433 . S
C1146 C1142 1.350 . S
C1146 C1143 1.463 . S
C1146 N1150 1.427 . S
C1147 H1137 0.929 . S
C1147 C1145 1.433 . S
C1147 N1150 1.384 1_554 S
C1148 H1139 0.929 . S
C1148 C1140 1.378 . S
C1148 C1143 1.350 . S
C1149 H1136 0.929 . S
C1149 C1141 1.433 . S
C1149 N1151 1.384 . S
N1150 C1146 1.427 . S
N1150 C1147 1.384 1_556 S
N1151 C1143 1.427 . S
N1151 C1149 1.384 . S
H1152 C1158 0.930 . S
H1153 C1162 0.930 . S
H1154 C1167 0.929 . S
H1155 C1165 0.929 . S
H1156 C1160 0.929 . S
H1157 C1166 0.929 . S
C1158 H1152 0.930 . S
C1158 C1159 1.367 . S
C1158 C1166 1.378 . S
C1159 C1158 1.367 . S
C1159 C1167 1.433 . S
C1160 H1156 0.929 . S
C1160 C1162 1.378 . S
C1160 C1164 1.350 . S
C1161 C1164 1.463 . S
C1161 C1166 1.350 . S
C1161 N1169 1.427 . S
C1162 H1153 0.930 . S
C1162 C1160 1.378 . S
C1162 C1163 1.367 . S
C1163 C1162 1.367 . S
C1163 C1165 1.433 . S
C1164 C1160 1.350 . S
C1164 C1161 1.463 . S
C1164 N1168 1.427 . S
C1165 H1155 0.929 . S
C1165 C1163 1.433 . S
C1165 N1168 1.384 . S
C1166 H1157 0.929 . S
C1166 C1158 1.378 . S
C1166 C1161 1.350 . S
C1167 H1154 0.929 . S
C1167 C1159 1.433 . S
C1167 N1169 1.384 . S
N1168 C1164 1.427 . S
N1168 C1165 1.384 . S
N1169 C1161 1.427 . S
N1169 C1167 1.384 . S
H1170 C1176 0.930 . S
H1171 C1180 0.930 . S
H1172 C1185 0.929 . S
H1173 C1183 0.929 . S
H1174 C1178 0.929 . S
H1175 C1184 0.929 . S
C1176 H1170 0.930 . S
C1176 C1177 1.367 . S
C1176 C1184 1.378 . S
C1177 C1176 1.367 . S
C1177 C1185 1.433 . S
C1178 H1174 0.929 . S
C1178 C1180 1.378 . S
C1178 C1182 1.350 . S
C1179 C1182 1.463 . S
C1179 C1184 1.350 . S
C1179 N1187 1.427 . S
C1180 H1171 0.930 . S
C1180 C1178 1.378 . S
C1180 C1181 1.367 . S
C1181 C1180 1.367 . S
C1181 C1183 1.433 . S
C1182 C1178 1.350 . S
C1182 C1179 1.463 . S
C1182 N1186 1.427 . S
C1183 H1173 0.929 . S
C1183 C1181 1.433 . S
C1183 N1186 1.384 . S
C1184 H1175 0.929 . S
C1184 C1176 1.378 . S
C1184 C1179 1.350 . S
C1185 H1172 0.929 . S
C1185 C1177 1.433 . S
C1185 N1187 1.384 . S
N1186 C1182 1.427 . S
N1186 C1183 1.384 . S
N1187 C1179 1.427 . S
N1187 C1185 1.384 . S
H1188 C1194 0.930 . S
H1189 C1198 0.930 . S
H1190 C1203 0.929 . S
H1191 C1201 0.929 . S
H1192 C1196 0.929 . S
H1193 C1202 0.929 . S
C1194 H1188 0.930 . S
C1194 C1195 1.367 . S
C1194 C1202 1.378 . S
C1195 C1194 1.367 . S
C1195 C1203 1.433 . S
C1196 H1192 0.929 . S
C1196 C1198 1.378 . S
C1196 C1200 1.350 . S
C1197 C1200 1.463 . S
C1197 C1202 1.350 . S
C1197 N1205 1.427 . S
C1198 H1189 0.930 . S
C1198 C1196 1.378 . S
C1198 C1199 1.367 . S
C1199 C1198 1.367 . S
C1199 C1201 1.433 . S
C1200 C1196 1.350 . S
C1200 C1197 1.463 . S
C1200 N1204 1.427 . S
C1201 H1191 0.929 . S
C1201 C1199 1.433 . S
C1201 N1204 1.384 . S
C1202 H1193 0.929 . S
C1202 C1194 1.378 . S
C1202 C1197 1.350 . S
C1203 H1190 0.929 . S
C1203 C1195 1.433 . S
C1203 N1205 1.384 . S
N1204 C1200 1.427 . S
N1204 C1201 1.384 . S
N1205 C1197 1.427 . S
N1205 C1203 1.384 . S
H1206 C1212 0.930 . S
H1207 C1216 0.930 . S
H1208 C1221 0.929 . S
H1209 C1219 0.929 . S
H1210 C1214 0.929 . S
H1211 C1220 0.929 . S
C1212 H1206 0.930 . S
C1212 C1213 1.367 1_554 S
C1212 C1220 1.378 . S
C1213 C1212 1.367 1_556 S
C1213 C1221 1.433 . S
C1214 H1210 0.929 . S
C1214 C1216 1.378 . S
C1214 C1218 1.350 . S
C1215 C1218 1.463 . S
C1215 C1220 1.350 . S
C1215 N1223 1.427 . S
C1216 H1207 0.930 . S
C1216 C1214 1.378 . S
C1216 C1217 1.367 . S
C1217 C1216 1.367 . S
C1217 C1219 1.433 . S
C1218 C1214 1.350 . S
C1218 C1215 1.463 . S
C1218 N1222 1.427 . S
C1219 H1209 0.929 . S
C1219 C1217 1.433 . S
C1219 N1222 1.384 . S
C1220 H1211 0.929 . S
C1220 C1212 1.378 . S
C1220 C1215 1.350 . S
C1221 H1208 0.929 . S
C1221 C1213 1.433 . S
C1221 N1223 1.384 1_556 S
N1222 C1218 1.427 . S
N1222 C1219 1.384 . S
N1223 C1215 1.427 . S
N1223 C1221 1.384 1_554 S
H1224 C1230 0.930 . S
H1225 C1234 0.930 . S
H1226 C1239 0.929 . S
H1227 C1237 0.929 . S
H1228 C1232 0.929 . S
H1229 C1238 0.929 . S
C1230 H1224 0.930 . S
C1230 C1231 1.367 . S
C1230 C1238 1.378 . S
C1231 C1230 1.367 . S
C1231 C1239 1.433 . S
C1232 H1228 0.929 . S
C1232 C1234 1.378 . S
C1232 C1236 1.350 . S
C1233 C1236 1.463 . S
C1233 C1238 1.350 . S
C1233 N1241 1.427 . S
C1234 H1225 0.930 . S
C1234 C1232 1.378 . S
C1234 C1235 1.367 1_554 S
C1235 C1234 1.367 1_556 S
C1235 C1237 1.433 . S
C1236 C1232 1.350 . S
C1236 C1233 1.463 . S
C1236 N1240 1.427 1_554 S
C1237 H1227 0.929 . S
C1237 C1235 1.433 . S
C1237 N1240 1.384 . S
C1238 H1229 0.929 . S
C1238 C1230 1.378 . S
C1238 C1233 1.350 . S
C1239 H1226 0.929 . S
C1239 C1231 1.433 . S
C1239 N1241 1.384 . S
N1240 C1236 1.427 1_556 S
N1240 C1237 1.384 . S
N1241 C1233 1.427 . S
N1241 C1239 1.384 . S
H1242 C1248 0.930 . S
H1243 C1252 0.930 . S
H1244 C1257 0.929 . S
H1245 C1255 0.929 . S
H1246 C1250 0.929 . S
H1247 C1256 0.929 . S
C1248 H1242 0.930 . S
C1248 C1249 1.367 . S
C1248 C1256 1.378 . S
C1249 C1248 1.367 . S
C1249 C1257 1.433 . S
C1250 H1246 0.929 . S
C1250 C1252 1.378 . S
C1250 C1254 1.350 . S
C1251 C1254 1.463 . S
C1251 C1256 1.350 . S
C1251 N1259 1.427 . S
C1252 H1243 0.930 . S
C1252 C1250 1.378 . S
C1252 C1253 1.367 1_554 S
C1253 C1252 1.367 1_556 S
C1253 C1255 1.433 . S
C1254 C1250 1.350 . S
C1254 C1251 1.463 . S
C1254 N1258 1.427 1_554 S
C1255 H1245 0.929 . S
C1255 C1253 1.433 . S
C1255 N1258 1.384 . S
C1256 H1247 0.929 . S
C1256 C1248 1.378 . S
C1256 C1251 1.350 . S
C1257 H1244 0.929 . S
C1257 C1249 1.433 . S
C1257 N1259 1.384 . S
N1258 C1254 1.427 1_556 S
N1258 C1255 1.384 . S
N1259 C1251 1.427 . S
N1259 C1257 1.384 . S
H1260 C1266 0.930 . S
H1261 C1270 0.930 . S
H1262 C1275 0.929 . S
H1263 C1273 0.929 . S
H1264 C1268 0.929 . S
H1265 C1274 0.929 1_455 S
C1266 H1260 0.930 . S
C1266 C1267 1.367 . S
C1266 C1274 1.378 . S
C1267 C1266 1.367 . S
C1267 C1275 1.433 . S
C1268 H1264 0.929 . S
C1268 C1270 1.378 . S
C1268 C1272 1.350 . S
C1269 C1272 1.463 1_655 S
C1269 C1274 1.350 . S
C1269 N1277 1.427 . S
C1270 H1261 0.930 . S
C1270 C1268 1.378 . S
C1270 C1271 1.367 . S
C1271 C1270 1.367 . S
C1271 C1273 1.433 . S
C1272 C1268 1.350 . S
C1272 C1269 1.463 1_455 S
C1272 N1276 1.427 . S
C1273 H1263 0.929 . S
C1273 C1271 1.433 . S
C1273 N1276 1.384 . S
C1274 H1265 0.929 1_655 S
C1274 C1266 1.378 . S
C1274 C1269 1.350 . S
C1275 H1262 0.929 . S
C1275 C1267 1.433 . S
C1275 N1277 1.384 . S
N1276 C1272 1.427 . S
N1276 C1273 1.384 . S
N1277 C1269 1.427 . S
N1277 C1275 1.384 . S
H1278 C1284 0.930 . S
H1279 C1288 0.930 . S
H1280 C1293 0.929 . S
H1281 C1291 0.929 . S
H1282 C1286 0.929 . S
H1283 C1292 0.929 . S
C1284 H1278 0.930 . S
C1284 C1285 1.367 . S
C1284 C1292 1.378 . S
C1285 C1284 1.367 . S
C1285 C1293 1.433 . S
C1286 H1282 0.929 . S
C1286 C1288 1.378 . S
C1286 C1290 1.350 . S
C1287 C1290 1.463 . S
C1287 C1292 1.350 . S
C1287 N1295 1.427 . S
C1288 H1279 0.930 . S
C1288 C1286 1.378 . S
C1288 C1289 1.367 . S
C1289 C1288 1.367 . S
C1289 C1291 1.433 . S
C1290 C1286 1.350 . S
C1290 C1287 1.463 . S
C1290 N1294 1.427 . S
C1291 H1281 0.929 . S
C1291 C1289 1.433 . S
C1291 N1294 1.384 . S
C1292 H1283 0.929 . S
C1292 C1284 1.378 . S
C1292 C1287 1.350 . S
C1293 H1280 0.929 . S
C1293 C1285 1.433 . S
C1293 N1295 1.384 . S
N1294 C1290 1.427 . S
N1294 C1291 1.384 . S
N1295 C1287 1.427 . S
N1295 C1293 1.384 . S
H1296 C1302 0.930 . S
H1297 C1306 0.930 . S
H1298 C1311 0.929 . S
H1299 C1309 0.929 . S
H1300 C1304 0.929 . S
H1301 C1310 0.929 . S
C1302 H1296 0.930 . S
C1302 C1303 1.367 . S
C1302 C1310 1.378 . S
C1303 C1302 1.367 . S
C1303 C1311 1.433 . S
C1304 H1300 0.929 . S
C1304 C1306 1.378 . S
C1304 C1308 1.350 . S
C1305 C1308 1.463 1_565 S
C1305 C1310 1.350 . S
C1305 N1313 1.427 . S
C1306 H1297 0.930 . S
C1306 C1304 1.378 . S
C1306 C1307 1.367 . S
C1307 C1306 1.367 . S
C1307 C1309 1.433 . S
C1308 C1304 1.350 . S
C1308 C1305 1.463 1_545 S
C1308 N1312 1.427 . S
C1309 H1299 0.929 . S
C1309 C1307 1.433 . S
C1309 N1312 1.384 . S
C1310 H1301 0.929 . S
C1310 C1302 1.378 . S
C1310 C1305 1.350 . S
C1311 H1298 0.929 . S
C1311 C1303 1.433 . S
C1311 N1313 1.384 . S
N1312 C1308 1.427 . S
N1312 C1309 1.384 . S
N1313 C1305 1.427 . S
N1313 C1311 1.384 . S
H1314 C1320 0.930 . S
H1315 C1324 0.930 . S
H1316 C1329 0.929 . S
H1317 C1327 0.929 . S
H1318 C1322 0.929 . S
H1319 C1328 0.929 1_545 S
C1320 H1314 0.930 . S
C1320 C1321 1.367 . S
C1320 C1328 1.378 . S
C1321 C1320 1.367 . S
C1321 C1329 1.433 . S
C1322 H1318 0.929 . S
C1322 C1324 1.378 . S
C1322 C1326 1.350 . S
C1323 C1326 1.463 1_565 S
C1323 C1328 1.350 . S
C1323 N1331 1.427 . S
C1324 H1315 0.930 . S
C1324 C1322 1.378 . S
C1324 C1325 1.367 . S
C1325 C1324 1.367 . S
C1325 C1327 1.433 . S
C1326 C1322 1.350 . S
C1326 C1323 1.463 1_545 S
C1326 N1330 1.427 . S
C1327 H1317 0.929 . S
C1327 C1325 1.433 . S
C1327 N1330 1.384 . S
C1328 H1319 0.929 1_565 S
C1328 C1320 1.378 . S
C1328 C1323 1.350 . S
C1329 H1316 0.929 . S
C1329 C1321 1.433 . S
C1329 N1331 1.384 . S
N1330 C1326 1.427 . S
N1330 C1327 1.384 . S
N1331 C1323 1.427 . S
N1331 C1329 1.384 . S
H1332 C1338 0.930 . S
H1333 C1342 0.930 . S
H1334 C1347 0.929 . S
H1335 C1345 0.929 . S
H1336 C1340 0.929 1_455 S
H1337 C1346 0.929 . S
C1338 H1332 0.930 . S
C1338 C1339 1.367 . S
C1338 C1346 1.378 . S
C1339 C1338 1.367 . S
C1339 C1347 1.433 . S
C1340 H1336 0.929 1_655 S
C1340 C1342 1.378 . S
C1340 C1344 1.350 . S
C1341 C1344 1.463 1_455 S
C1341 C1346 1.350 . S
C1341 N1349 1.427 . S
C1342 H1333 0.930 . S
C1342 C1340 1.378 . S
C1342 C1343 1.367 . S
C1343 C1342 1.367 . S
C1343 C1345 1.433 . S
C1344 C1340 1.350 . S
C1344 C1341 1.463 1_655 S
C1344 N1348 1.427 . S
C1345 H1335 0.929 . S
C1345 C1343 1.433 . S
C1345 N1348 1.384 . S
C1346 H1337 0.929 . S
C1346 C1338 1.378 . S
C1346 C1341 1.350 . S
C1347 H1334 0.929 . S
C1347 C1339 1.433 . S
C1347 N1349 1.384 . S
N1348 C1344 1.427 . S
N1348 C1345 1.384 . S
N1349 C1341 1.427 . S
N1349 C1347 1.384 . S
H1350 C1356 0.930 . S
H1351 C1360 0.930 . S
H1352 C1365 0.929 . S
H1353 C1363 0.929 . S
H1354 C1358 0.929 . S
H1355 C1364 0.929 . S
C1356 H1350 0.930 . S
C1356 C1357 1.367 . S
C1356 C1364 1.378 . S
C1357 C1356 1.367 . S
C1357 C1365 1.433 . S
C1358 H1354 0.929 . S
C1358 C1360 1.378 . S
C1358 C1362 1.350 . S
C1359 C1362 1.463 . S
C1359 C1364 1.350 . S
C1359 N1367 1.427 . S
C1360 H1351 0.930 . S
C1360 C1358 1.378 . S
C1360 C1361 1.367 . S
C1361 C1360 1.367 . S
C1361 C1363 1.433 . S
C1362 C1358 1.350 . S
C1362 C1359 1.463 . S
C1362 N1366 1.427 . S
C1363 H1353 0.929 . S
C1363 C1361 1.433 . S
C1363 N1366 1.384 . S
C1364 H1355 0.929 . S
C1364 C1356 1.378 . S
C1364 C1359 1.350 . S
C1365 H1352 0.929 . S
C1365 C1357 1.433 . S
C1365 N1367 1.384 . S
N1366 C1362 1.427 . S
N1366 C1363 1.384 . S
N1367 C1359 1.427 . S
N1367 C1365 1.384 . S
C403 C4 1.322 . S
C407 C94 1.315 . S
C421 C114 1.308 . S
C425 C28 1.326 . S
C439 C48 1.324 . S
C443 C70 1.310 . S
C457 C51 1.326 . S
C461 C96 1.305 . S
C475 C117 1.309 . S
C479 C7 1.325 . S
C493 C30 1.323 . S
C497 C73 1.314 . S
C511 C31 1.307 . S
C515 C74 1.325 . S
C529 C52 1.310 . S
C533 C97 1.324 . S
C547 C118 1.323 . S
C551 C8 1.312 . S
C565 C115 1.322 . S
C569 C26 1.313 . S
C583 C49 1.305 . S
C587 C71 1.327 . S
C601 C5 1.310 . S
C605 C92 1.324 . S
C619 C226 1.305 . S
C623 C136 1.326 . S
C637 C158 1.323 . S
C641 C248 1.312 . S
C655 C180 1.322 . S
C659 C204 1.315 . S
C673 C228 1.313 . S
C677 C183 1.322 . S
C691 C250 1.312 . S
C695 C139 1.323 . S
C709 C206 1.305 . S
C713 C161 1.326 . S
C727 C162 1.311 . S
C731 C207 1.323 . S
C745 C184 1.306 . S
C749 C229 1.326 . S
C763 C140 1.314 . S
C767 C251 1.323 . S
C781 C159 1.306 . S
C785 C246 1.326 . S
C799 C181 1.314 . S
C803 C202 1.323 . S
C817 C224 1.322 . S
C821 C137 1.314 . S
C835 C268 1.323 . S
C839 C358 1.311 . S
C853 C292 1.326 . S
C857 C380 1.307 . S
C871 C334 1.305 . S
C875 C312 1.327 . S
C889 C360 1.313 . S
C893 C315 1.322 . S
C907 C271 1.322 . S
C911 C382 1.315 . S
C925 C294 1.322 . S
C929 C337 1.315 . S
C943 C295 1.306 . S
C947 C338 1.326 . S
C961 C316 1.305 . S
C965 C361 1.326 . S
C979 C272 1.316 . S
C983 C383 1.321 . S
C997 C378 1.326 . S
C1001 C290 1.307 . S
C1015 C335 1.325 . S
C1019 C313 1.307 . S
C1033 C269 1.315 . S
C1037 C356 1.321 . S
C1051 C6 1.812 . S
C1055 C293 1.815 . S
C1069 C27 1.814 . S
C1073 C317 1.813 . S
C1087 C50 1.816 . S
C1091 C273 1.812 . S
C1105 C53 1.811 . S
C1109 C160 1.823 . S
C1123 C9 1.825 . S
C1127 C182 1.820 . S
C1141 C29 1.811 . S
C1145 C138 1.822 . S
C1159 C225 1.818 . S
C1163 C75 1.825 . S
C1177 C95 1.821 . S
C1181 C247 1.811 . S
C1195 C119 1.814 . S
C1199 C203 1.825 . S
C1213 C359 1.820 . S
C1217 C116 1.811 . S
C1231 C72 1.811 . S
C1235 C381 1.816 . S
C1249 C93 1.811 . S
C1253 C339 1.818 . S
C1267 C185 1.826 . S
C1271 C291 1.817 . S
C1285 C141 1.817 . S
C1289 C314 1.826 . S
C1303 C270 1.811 . S
C1307 C163 1.820 . S
C1321 C357 1.817 . S
C1325 C205 1.826 . S
C1339 C379 1.826 . S
C1343 C227 1.816 . S
C1357 C249 1.821 . S
C1361 C336 1.824 . S
