# Generated by pormake.
# Topology qtz-e, (6)-cn, num edge types: 1
# Building blocks:
#     Node 0, Type 0, BuildingBlock: KUMBUR_clean_sbu_1, # of connection points: 6
#     Node 1, Type 0, BuildingBlock: KUMBUR_clean_sbu_1, # of connection points: 6
#     Node 2, Type 0, BuildingBlock: KUMBUR_clean_sbu_1, # of connection points: 6
#     Node 3, Type 0, BuildingBlock: KUMBUR_clean_sbu_1, # of connection points: 6
#     Node 4, Type 0, BuildingBlock: KUMBUR_clean_sbu_1, # of connection points: 6
#     Node 5, Type 0, BuildingBlock: KUMBUR_clean_sbu_1, # of connection points: 6
#     Edge 6, Type (0, 0), BuildingBlock: AJUNOK_clean_linker_0, # of connection points: 2
#     Edge 7, Type (0, 0), BuildingBlock: AJUNOK_clean_linker_0, # of connection points: 2
#     Edge 8, Type (0, 0), BuildingBlock: AJUNOK_clean_linker_0, # of connection points: 2
#     Edge 9, Type (0, 0), BuildingBlock: AJUNOK_clean_linker_0, # of connection points: 2
#     Edge 10, Type (0, 0), BuildingBlock: AJUNOK_clean_linker_0, # of connection points: 2
#     Edge 11, Type (0, 0), BuildingBlock: AJUNOK_clean_linker_0, # of connection points: 2
#     Edge 12, Type (0, 0), BuildingBlock: AJUNOK_clean_linker_0, # of connection points: 2
#     Edge 13, Type (0, 0), BuildingBlock: AJUNOK_clean_linker_0, # of connection points: 2
#     Edge 14, Type (0, 0), BuildingBlock: AJUNOK_clean_linker_0, # of connection points: 2
#     Edge 15, Type (0, 0), BuildingBlock: AJUNOK_clean_linker_0, # of connection points: 2
#     Edge 16, Type (0, 0), BuildingBlock: AJUNOK_clean_linker_0, # of connection points: 2
#     Edge 17, Type (0, 0), BuildingBlock: AJUNOK_clean_linker_0, # of connection points: 2
#     Edge 18, Type (0, 0), BuildingBlock: AJUNOK_clean_linker_0, # of connection points: 2
#     Edge 19, Type (0, 0), BuildingBlock: AJUNOK_clean_linker_0, # of connection points: 2
#     Edge 20, Type (0, 0), BuildingBlock: AJUNOK_clean_linker_0, # of connection points: 2
#     Edge 21, Type (0, 0), BuildingBlock: AJUNOK_clean_linker_0, # of connection points: 2
#     Edge 22, Type (0, 0), BuildingBlock: AJUNOK_clean_linker_0, # of connection points: 2
#     Edge 23, Type (0, 0), BuildingBlock: AJUNOK_clean_linker_0, # of connection points: 2
# Relax obj value: 0.152
# Max RMSD: 0.217
# Mean RMSD: 0.217
data_MOF--net-qtz-e--node1-KUMBUR_clean_sbu_1--edge1-AJUNOK_clean_linker_0
_symmetry_space_group_name_H-M    P1
_symmetry_Int_Tables_number       1
_symmetry_cell_setting            triclinic
loop_
_symmetry_equiv_pos_as_xyz
'x, y, z'
_cell_length_a     21.084879
_cell_length_b     21.046669
_cell_length_c     39.557225
_cell_angle_alpha  89.724333
_cell_angle_beta   90.605069
_cell_angle_gamma 120.06219
loop_
_atom_site_label
_atom_site_type_symbol
_atom_site_fract_x
_atom_site_fract_y
_atom_site_fract_z
_atom_type_partial_charge
Tb0 Tb 0.18084 0.35793 0.98672 0.0
C1 C 0.41243 0.68716 0.05381 0.0
N2 N 0.39815 0.62059 0.06552 0.0
C3 C 0.52557 0.66997 0.07881 0.0
C4 C 0.4847 0.74677 0.05217 0.0
C5 C 0.45278 0.61267 0.07986 0.0
C6 C 0.5418 0.73697 0.06426 0.0
C7 C 0.36617 0.76379 0.03169 0.0
C8 C 0.35393 0.69552 0.04395 0.0
C9 C 0.43823 0.82276 0.02888 0.0
C10 C 0.49739 0.8143 0.03914 0.0
Tb11 Tb 0.27869 0.52838 0.06348 0.0
N12 N 0.28508 0.63657 0.04652 0.0
C13 C 0.30566 0.77095 0.02297 0.0
C14 C 0.22601 0.64492 0.03965 0.0
C15 C 0.23526 0.71151 0.02745 0.0
H16 H 0.44022 0.563 0.09295 0.0
H17 H 0.1879 0.71703 0.02175 0.0
H18 H 0.01363 0.33174 0.97046 0.0
H19 H 0.27761 0.17238 0.02171 0.0
H20 H 0.17142 0.60173 0.04398 0.0
H21 H 0.31263 0.82244 0.0135 0.0
H22 H 0.28906 0.29351 0.01434 0.0
H23 H 0.56892 0.66272 0.0896 0.0
H24 H 0.44872 0.87543 0.01927 0.0
H25 H 0.55261 0.86057 0.03736 0.0
H26 H 0.88903 0.22608 0.96416 0.0
H27 H 0.59807 0.78144 0.06355 0.0
H28 H 0.15884 0.0598 0.01091 0.0
N29 N 0.06191 0.26649 0.9829 0.0
C30 C 0.05111 0.19753 0.98653 0.0
C31 C 0.9341 0.21732 0.97061 0.0
C32 C 0.98113 0.13543 0.98182 0.0
C33 C 1.00485 0.27729 0.97479 0.0
C34 C 0.9222 0.14607 0.97399 0.0
N35 N 0.1767 0.25081 1.0009 0.0
C36 C 0.23633 0.24538 0.01031 0.0
C37 C 0.10197 0.11883 0.99873 0.0
C38 C 0.11068 0.18933 0.99515 0.0
C39 C 0.16296 0.11294 0.00822 0.0
C40 C 0.23018 0.17645 0.01434 0.0
H41 H 0.8675 0.09973 0.97027 0.0
H42 H 0.91941 0.01648 0.9805 0.0
H43 H 0.02556 1.00223 0.9939 0.0
O44 O 0.24298 0.35466 0.9458 0.0
O45 O 0.14081 0.30451 0.03632 0.0
O46 O 0.21057 0.41561 0.05059 0.0
O47 O 0.14088 0.35084 0.93703 0.0
O48 O 0.30074 0.40874 0.99794 0.0
O49 O 0.31752 0.45084 0.0534 0.0
O50 O 0.24265 0.55554 0.10777 0.0
O51 O 0.32635 0.56711 0.01341 0.0
O52 O 0.22408 0.47364 0.99534 0.0
O53 O 0.31036 0.50308 0.10939 0.0
O54 O 0.16145 0.48679 0.05144 0.0
O55 O 0.12262 0.42135 0.99916 0.0
C56 C 0.16335 0.35013 0.0614 0.0
C57 C 0.1708 0.28156 0.89953 0.0
C58 C 0.19939 0.22278 0.85299 0.0
C59 C 0.12688 0.16394 0.85402 0.0
C60 C 0.09888 0.22156 0.89973 0.0
C61 C 0.07741 0.16328 0.87731 0.0
C62 C 0.22098 0.28198 0.87586 0.0
C63 C 0.34355 0.44181 0.02468 0.0
C64 C 0.19298 0.3439 0.92342 0.0
C65 C 0.97248 0.06498 0.98464 0.0
C66 C 0.03292 0.0568 0.99261 0.0
C67 C 0.28749 0.52862 0.98764 0.0
C68 C 0.27316 0.52594 0.16263 0.0
C69 C 0.27171 0.58224 0.21491 0.0
C70 C 0.2768 0.52742 0.233 0.0
C71 C 0.27747 0.47026 0.18041 0.0
C72 C 0.26916 0.58116 0.1799 0.0
C73 C 0.27891 0.47096 0.21568 0.0
C74 C 0.11346 0.45567 0.02596 0.0
C75 C 0.27513 0.52834 0.12612 0.0
H76 H 0.10776 0.11888 0.83625 0.0
H77 H 0.05851 0.21983 0.91687 0.0
H78 H 0.02168 0.11771 0.87767 0.0
H79 H 0.27651 0.32807 0.87529 0.0
H80 H 0.27993 0.52891 0.26034 0.0
H81 H 0.27998 0.42674 0.16708 0.0
H82 H 0.26629 0.6245 0.16621 0.0
H83 H 0.28263 0.42844 0.22952 0.0
Tb84 Tb 0.84659 0.17945 0.31912 0.0
C85 C 0.81614 0.44169 0.40868 0.0
N86 N 0.85502 0.40646 0.4118 0.0
C87 C 0.95913 0.5175 0.43224 0.0
C88 C 0.84793 0.51701 0.41623 0.0
C89 C 0.92523 0.44273 0.42428 0.0
C90 C 0.92063 0.55505 0.42781 0.0
C91 C 0.69948 0.43418 0.39724 0.0
C92 C 0.74313 0.40103 0.39956 0.0
C93 C 0.73144 0.50987 0.40336 0.0
C94 C 0.80555 0.55122 0.41287 0.0
Tb95 Tb 0.79302 0.28376 0.39951 0.0
N96 N 0.71438 0.32813 0.394 0.0
C97 C 0.62482 0.38987 0.38959 0.0
C98 C 0.64085 0.28388 0.38828 0.0
C99 C 0.59524 0.31424 0.38544 0.0
H100 H 0.95523 0.41404 0.42822 0.0
H101 H 0.53732 0.27931 0.38019 0.0
H102 H 0.71415 0.01264 0.30005 0.0
H103 H 0.11738 0.28178 0.3736 0.0
H104 H 0.61773 0.22542 0.38521 0.0
H105 H 0.58933 0.41321 0.38754 0.0
H106 H 1.00811 0.28894 0.35845 0.0
H107 H 0.01499 0.54615 0.44167 0.0
H108 H 0.699 0.53661 0.40148 0.0
H109 H 0.82914 0.60921 0.41824 0.0
H110 H 0.70079 0.88945 0.29442 0.0
H111 H 0.94708 0.61297 0.43393 0.0
H112 H 0.11983 0.16704 0.36355 0.0
N113 N 0.82552 0.06325 0.31604 0.0
C114 C 0.88397 0.05498 0.3231 0.0
C115 C 0.75265 0.93558 0.30246 0.0
C116 C 0.87959 0.98639 0.31944 0.0
C117 C 0.76017 1.00517 0.30592 0.0
C118 C 0.8128 0.92623 0.309 0.0
N119 N 0.94792 0.17942 0.33991 0.0
C120 C 1.00761 0.23853 0.35391 0.0
C121 C 0.00924 0.10877 0.34329 0.0
C122 C 0.94756 0.11524 0.3352 0.0
C123 C 0.07126 0.16975 0.35693 0.0
C124 C 0.07004 0.23459 0.36266 0.0
H125 H 0.80705 0.87243 0.30602 0.0
H126 H 0.94034 0.92851 0.3229 0.0
H127 H 0.05474 0.03674 0.34191 0.0
O128 O 0.91717 0.2251 0.2771 0.0
O129 O 0.82941 0.12335 0.36837 0.0
O130 O 0.85605 0.2292 0.39182 0.0
O131 O 0.80157 0.14466 0.27012 0.0
O132 O 0.916 0.30224 0.3238 0.0
O133 O 0.90536 0.32605 0.37995 0.0
O134 O 0.72045 0.21685 0.43735 0.0
O135 O 0.76095 0.31314 0.35117 0.0
O136 O 0.80078 0.24235 0.33647 0.0
O137 O 0.83023 0.30082 0.44972 0.0
O138 O 0.70408 0.17411 0.38087 0.0
O139 O 0.72623 0.12425 0.33089 0.0
C140 C 0.83105 0.15875 0.39582 0.0
C141 C 0.87432 0.19177 0.21833 0.0
C142 C 0.95089 0.23169 0.16726 0.0
C143 C 0.88679 0.19651 0.14744 0.0
C144 C 0.81176 0.15705 0.19747 0.0
C145 C 0.81804 0.15979 0.16241 0.0
C146 C 0.94459 0.22989 0.20299 0.0
C147 C 0.92911 0.34952 0.34892 0.0
C148 C 0.86424 0.18732 0.25572 0.0
C149 C 0.94182 0.9803 0.32628 0.0
C150 C 1.00678 0.04171 0.33762 0.0
C151 C 0.77156 0.28056 0.3261 0.0
C152 C 0.7369 0.29023 0.48459 0.0
C153 C 0.6429 0.27618 0.52303 0.0
C154 C 0.67314 0.35279 0.52391 0.0
C155 C 0.7691 0.36711 0.48706 0.0
C156 C 0.67419 0.24491 0.50306 0.0
C157 C 0.73632 0.39805 0.506 0.0
C158 C 0.68312 0.12432 0.35587 0.0
C159 C 0.76532 0.25705 0.46125 0.0
H160 H 0.89006 0.19717 0.1201 0.0
H161 H 0.7575 0.1276 0.20827 0.0
H162 H 0.76923 0.13288 0.1467 0.0
H163 H 0.99367 0.25677 0.21856 0.0
H164 H 0.65017 0.3777 0.53993 0.0
H165 H 0.81967 0.40371 0.4746 0.0
H166 H 0.65045 0.18574 0.50235 0.0
H167 H 0.76091 0.45712 0.50746 0.0
Tb168 Tb 0.66282 0.8459 0.6629 0.0
C169 C 0.33185 0.76741 0.71258 0.0
N170 N 0.39753 0.79901 0.72919 0.0
C171 C 0.37076 0.88629 0.75437 0.0
C172 C 0.28511 0.79704 0.7146 0.0
C173 C 0.41508 0.85456 0.75166 0.0
C174 C 0.30643 0.85862 0.7351 0.0
C175 C 0.23928 0.66425 0.68008 0.0
C176 C 0.30818 0.70087 0.69628 0.0
C177 C 0.1945 0.69608 0.68016 0.0
C178 C 0.21724 0.7622 0.69749 0.0
Tb179 Tb 0.46331 0.74045 0.72367 0.0
N180 N 0.35294 0.67158 0.69696 0.0
C181 C 0.21709 0.59619 0.66487 0.0
C182 C 0.33061 0.60403 0.68325 0.0
C183 C 0.26269 0.56572 0.66672 0.0
H184 H 0.46388 0.87525 0.76724 0.0
H185 H 0.24547 0.51265 0.65549 0.0
H186 H 0.68927 0.72008 0.62474 0.0
H187 H 0.84847 0.09161 0.73107 0.0
H188 H 0.36549 0.58012 0.68472 0.0
H189 H 0.16443 0.5662 0.65215 0.0
H190 H 0.7347 0.00795 0.69953 0.0
H191 H 0.38612 0.93193 0.7714 0.0
H192 H 0.14142 0.66907 0.66766 0.0
H193 H 0.18103 0.78478 0.69834 0.0
H194 H 0.7825 0.68236 0.62568 0.0
H195 H 0.27218 0.88318 0.73736 0.0
H196 H 0.9453 0.05878 0.73888 0.0
N197 N 0.74584 0.80652 0.66051 0.0
C198 C 0.80917 0.84742 0.67802 0.0
C199 C 0.7901 0.72804 0.64108 0.0
C200 C 0.86432 0.82826 0.6791 0.0
C201 C 0.73696 0.74928 0.64089 0.0
C202 C 0.85347 0.7668 0.6608 0.0
N203 N 0.76696 0.92878 0.69031 0.0
C204 C 0.77698 0.99366 0.70274 0.0
C205 C 0.88593 0.95681 0.71096 0.0
C206 C 0.82032 0.91107 0.69333 0.0
C207 C 0.89564 0.02208 0.72505 0.0
C208 C 0.84114 0.04088 0.72064 0.0
H209 H 0.89463 0.75035 0.66082 0.0
H210 H 0.97202 0.85823 0.69897 0.0
H211 H 0.99015 0.96998 0.72723 0.0
O212 O 0.69735 0.93765 0.63099 0.0
O213 O 0.67712 0.84965 0.71849 0.0
O214 O 0.56995 0.74475 0.73223 0.0
O215 O 0.66368 0.83251 0.6097 0.0
O216 O 0.60758 0.91045 0.67632 0.0
O217 O 0.54543 0.85856 0.726 0.0
O218 O 0.3982 0.64616 0.75261 0.0
O219 O 0.43826 0.74874 0.67049 0.0
O220 O 0.55227 0.79158 0.67073 0.0
O221 O 0.46581 0.7513 0.77634 0.0
O222 O 0.49685 0.66774 0.69982 0.0
O223 O 0.60076 0.71994 0.66308 0.0
C224 C 0.63353 0.80163 0.74127 0.0
C225 C 0.74929 0.93832 0.57812 0.0
C226 C 0.80075 0.01164 0.52607 0.0
C227 C 0.86813 0.01658 0.53428 0.0
C228 C 0.81744 0.94453 0.58514 0.0
C229 C 0.87616 0.98312 0.56331 0.0
C230 C 0.74075 0.97158 0.54821 0.0
C231 C 0.56253 0.90582 0.70099 0.0
C232 C 0.68916 0.9018 0.60315 0.0
C233 C 0.92918 0.87232 0.6975 0.0
C234 C 0.93976 0.93628 0.71349 0.0
C235 C 0.49593 0.77654 0.65244 0.0
C236 C 0.35418 0.67322 0.80168 0.0
C237 C 0.30397 0.6582 0.85765 0.0
C238 C 0.24436 0.66277 0.84423 0.0
C239 C 0.29233 0.67313 0.78821 0.0
C240 C 0.35958 0.66536 0.83632 0.0
C241 C 0.23857 0.66993 0.80949 0.0
C242 C 0.5431 0.66294 0.67857 0.0
C243 C 0.41489 0.6834 0.78059 0.0
H244 H 0.91499 0.04636 0.51797 0.0
H245 H 0.82552 0.92033 0.60783 0.0
H246 H 0.92861 0.98774 0.5691 0.0
H247 H 0.68856 0.96791 0.54272 0.0
H248 H 0.20068 0.65707 0.86042 0.0
H249 H 0.28468 0.67414 0.76148 0.0
H250 H 0.40529 0.66089 0.84634 0.0
H251 H 0.19138 0.67075 0.79896 0.0
Tb252 Tb 0.82208 0.64102 0.99331 0.0
C253 C 0.61544 0.31367 0.0287 0.0
N254 N 0.61853 0.37112 0.04566 0.0
C255 C 0.48715 0.30899 0.04679 0.0
C256 C 0.54799 0.2533 0.01841 0.0
C257 C 0.55564 0.36735 0.05649 0.0
C258 C 0.4833 0.25231 0.02705 0.0
C259 C 0.68012 0.25599 0.0057 0.0
C260 C 0.68047 0.31505 0.02253 0.0
C261 C 0.61343 0.1972 0.99389 0.0
C262 C 0.54743 0.19572 1.00035 0.0
Tb263 Tb 0.73304 0.46718 0.05787 0.0
N264 N 0.74377 0.37325 0.03421 0.0
C265 C 0.74648 0.25687 0.00219 0.0
C266 C 0.80665 0.36972 0.03426 0.0
C267 C 0.80976 0.31313 0.01733 0.0
H268 H 0.55839 0.40751 0.07391 0.0
H269 H 0.86054 0.31207 0.01669 0.0
H270 H 0.98822 0.68571 0.96848 0.0
H271 H 0.71858 0.78747 0.06557 0.0
H272 H 0.85372 0.40837 0.04846 0.0
H273 H 0.74877 0.21269 0.98937 0.0
H274 H 0.70743 0.68687 0.03042 0.0
H275 H 0.43747 0.30714 0.05506 0.0
H276 H 0.61212 0.15172 0.98054 0.0
H277 H 0.49623 0.14927 0.9918 0.0
H278 H 0.11454 0.78866 0.97724 0.0
H279 H 0.43024 0.20698 0.01964 0.0
H280 H 0.84063 0.89445 0.07801 0.0
N281 N 0.93931 0.73624 0.99612 0.0
C282 C 0.95005 0.79537 0.01438 0.0
C283 C 0.06873 0.79124 0.98779 0.0
C284 C 0.02116 0.85428 0.02082 0.0
C285 C 0.9972 0.73313 0.98285 0.0
C286 C 0.08082 0.852 0.00696 0.0
N287 N 0.82245 0.73323 0.02404 0.0
C288 C 0.76122 0.73163 0.03607 0.0
C289 C 0.89851 0.85308 0.04881 0.0
C290 C 0.88955 0.79416 0.02859 0.0
C291 C 0.83618 0.85016 0.06243 0.0
C292 C 0.76721 0.78961 0.05565 0.0
H293 H 0.13638 0.89631 0.01128 0.0
H294 H 0.08476 0.95716 0.04763 0.0
H295 H 0.9774 0.9574 0.07119 0.0
O296 O 0.75833 0.66241 0.95827 0.0
O297 O 0.86987 0.6603 0.04519 0.0
O298 O 0.7721 0.57945 0.07635 0.0
O299 O 0.86487 0.68218 0.94503 0.0
O300 O 0.70171 0.5796 1.00052 0.0
O301 O 0.68474 0.53741 0.05508 0.0
O302 O 0.7757 0.43308 0.09804 0.0
O303 O 0.69822 0.45218 0.00438 0.0
O304 O 0.79979 0.53487 0.97456 0.0
O305 O 0.67585 0.4365 0.10329 0.0
O306 O 0.85155 0.52285 0.04947 0.0
O307 O 0.8794 0.57641 0.99577 0.0
C308 C 0.83985 0.63424 0.07479 0.0
C309 C 0.82076 0.75134 0.91495 0.0
C310 C 0.79022 0.80626 0.86634 0.0
C311 C 0.85467 0.87313 0.8736 0.0
C312 C 0.88214 0.81993 0.92208 0.0
C313 C 0.89903 0.88007 0.90142 0.0
C314 C 0.77433 0.74479 0.88718 0.0
C315 C 0.65924 0.54984 0.02697 0.0
C316 C 0.80783 0.68569 0.93484 0.0
C317 C 0.03049 0.91209 0.04177 0.0
C318 C 0.9693 0.91199 0.05537 0.0
C319 C 0.74091 0.47025 0.97794 0.0
C320 C 0.68624 0.34902 0.13565 0.0
C321 C 0.67432 0.28826 0.18943 0.0
C322 C 0.60937 0.227 0.1774 0.0
C323 C 0.62234 0.28716 0.12371 0.0
C324 C 0.7135 0.34814 0.16781 0.0
C325 C 0.58445 0.22612 0.14451 0.0
C326 C 0.8935 0.54657 0.02247 0.0
C327 C 0.72042 0.41848 0.11731 0.0
H328 H 0.87211 0.92049 0.85741 0.0
H329 H 0.91828 0.82665 0.94311 0.0
H330 H 0.94772 0.93231 0.90664 0.0
H331 H 0.7264 0.692 0.88181 0.0
H332 H 0.57719 0.1801 0.1935 0.0
H333 H 0.60052 0.28656 0.09888 0.0
H334 H 0.76457 0.39517 0.17609 0.0
H335 H 0.53454 0.17886 0.13546 0.0
Tb336 Tb 0.19452 0.83383 0.32867 0.0
C337 C 0.3182 0.60926 0.37956 0.0
N338 N 0.26066 0.61803 0.38783 0.0
C339 C 0.1868 0.48876 0.39829 0.0
C340 C 0.31062 0.5389 0.37807 0.0
C341 C 0.19648 0.55956 0.39857 0.0
C342 C 0.24369 0.47819 0.38743 0.0
C343 C 0.44623 0.66451 0.36432 0.0
C344 C 0.38571 0.67145 0.37378 0.0
C345 C 0.43792 0.59427 0.36103 0.0
C346 C 0.37049 0.53166 0.3682 0.0
Tb347 Tb 0.28538 0.736 0.39173 0.0
N348 N 0.39193 0.73863 0.37779 0.0
C349 C 0.51347 0.72837 0.35887 0.0
C350 C 0.45848 0.80096 0.3742 0.0
C351 C 0.51969 0.79682 0.36409 0.0
H352 H 0.15237 0.56711 0.40735 0.0
H353 H 0.57192 0.84651 0.36074 0.0
H354 H 0.33235 1.00174 0.30842 0.0
H355 H 0.92836 0.7508 0.37973 0.0
H356 H 0.46582 0.85415 0.37961 0.0
H357 H 0.5612 0.72543 0.35135 0.0
H358 H 0.0198 0.73374 0.34817 0.0
H359 H 0.13531 0.44239 0.4062 0.0
H360 H 0.48375 0.58784 0.35367 0.0
H361 H 0.36548 0.47797 0.36647 0.0
H362 H 0.37571 0.12851 0.32701 0.0
H363 H 0.23579 0.42322 0.38691 0.0
H364 H 0.96338 0.87259 0.40396 0.0
N365 N 0.2353 0.95566 0.33806 0.0
C366 C 0.19122 0.97019 0.35734 0.0
C367 C 0.32407 0.08429 0.33612 0.0
C368 C 0.21366 0.0418 0.36862 0.0
C369 C 0.29956 0.01195 0.32596 0.0
C370 C 0.28166 0.09913 0.35813 0.0
N371 N 0.10379 0.84504 0.35372 0.0
C372 C 0.03452 0.78732 0.35791 0.0
C373 C 0.0736 0.92491 0.38422 0.0
C374 C 0.12231 0.91306 0.36489 0.0
C375 C 1.00288 0.86571 0.3895 0.0
C376 C 0.98293 0.79683 0.37586 0.0
H377 H 0.30098 0.1551 0.36612 0.0
H378 H 0.18398 0.10803 0.3992 0.0
H379 H 0.06136 1.0053 0.41316 0.0
O380 O 0.12261 0.76742 0.29005 0.0
O381 O 0.17321 0.82411 0.38432 0.0
O382 O 0.28138 0.83592 0.40492 0.0
O383 O 0.20244 0.87813 0.27943 0.0
O384 O 0.1275 0.71268 0.33146 0.0
O385 O 0.16568 0.68342 0.38126 0.0
O386 O 0.34373 0.73698 0.43471 0.0
O387 O 0.2936 0.70762 0.33982 0.0
O388 O 0.25427 0.78184 0.33747 0.0
O389 O 0.22599 0.6931 0.43611 0.0
O390 O 0.35527 0.85652 0.38091 0.0
O391 O 0.31944 0.89001 0.32963 0.0
C392 C 0.22219 0.84124 0.40915 0.0
C393 C 0.08958 0.82396 0.24734 0.0
C394 C 0.99914 0.78353 0.20015 0.0
C395 C 0.97305 0.82775 0.21367 0.0
C396 C 0.06137 0.86691 0.25983 0.0
C397 C 1.00394 0.86898 0.24302 0.0
C398 C 0.05838 0.78226 0.21719 0.0
C399 C 0.12871 0.6638 0.35232 0.0
C400 C 0.14713 0.81829 0.26724 0.0
C401 C 0.16716 0.05366 0.38963 0.0
C402 C 0.09732 0.99515 0.39758 0.0
C403 C 0.27453 0.74349 0.32018 0.0
C404 C 0.29535 0.75113 0.48471 0.0
C405 C 0.36667 0.79991 0.53546 0.0
C406 C 0.32157 0.82788 0.54527 0.0
C407 C 0.24782 0.77592 0.49495 0.0
C408 C 0.35423 0.76312 0.50506 0.0
C409 C 0.26192 0.81555 0.52498 0.0
C410 C 0.36945 0.9003 0.35384 0.0
C411 C 0.28551 0.71127 0.4535 0.0
H412 H 0.9284 0.83062 0.20137 0.0
H413 H 0.08322 0.89824 0.28293 0.0
H414 H 0.98266 0.90234 0.253 0.0
H415 H 0.07867 0.74766 0.20766 0.0
H416 H 0.33023 0.85577 0.5692 0.0
H417 H 0.19996 0.7643 0.48002 0.0
H418 H 0.3893 0.74144 0.49779 0.0
H419 H 0.22565 0.83497 0.53295 0.0
Tb420 Tb 0.3524 0.17695 0.66686 0.0
C421 C 0.68666 0.33485 0.67527 0.0
N422 N 0.64216 0.27465 0.6938 0.0
C423 C 0.71322 0.21924 0.67811 0.0
C424 C 0.74311 0.3377 0.65543 0.0
C425 C 0.658 0.21951 0.69733 0.0
C426 C 0.75471 0.27778 0.65629 0.0
C427 C 0.72801 0.46191 0.66274 0.0
C428 C 0.67873 0.39543 0.67869 0.0
C429 C 0.78062 0.46378 0.64055 0.0
C430 C 0.78812 0.40157 0.63687 0.0
Tb431 Tb 0.54677 0.27605 0.72073 0.0
N432 N 0.62865 0.39144 0.70111 0.0
C433 C 0.72599 0.52524 0.67135 0.0
C434 C 0.63297 0.45457 0.71261 0.0
C435 C 0.67967 0.52197 0.69714 0.0
H436 H 0.62716 0.17547 0.71441 0.0
H437 H 0.68078 0.57142 0.7055 0.0
H438 H 0.32562 0.31917 0.64875 0.0
H439 H 0.1764 0.92098 0.7299 0.0
H440 H 0.60043 0.45289 0.73379 0.0
H441 H 0.76323 0.57754 0.65989 0.0
H442 H 0.27711 1.0046 0.69222 0.0
H443 H 0.72372 0.17401 0.68017 0.0
H444 H 0.81809 0.51398 0.6275 0.0
H445 H 0.83102 0.40458 0.62093 0.0
H446 H 0.25247 0.36978 0.67168 0.0
H447 H 0.79759 0.27768 0.64147 0.0
H448 H 0.10027 0.964 0.75789 0.0
N449 N 0.28075 0.22618 0.6817 0.0
C450 C 0.22584 0.18541 0.70363 0.0
C451 C 0.24527 0.31838 0.68135 0.0
C452 C 0.18145 0.21159 0.71694 0.0
C453 C 0.28791 0.28998 0.66891 0.0
C454 C 0.19284 0.27977 0.706 0.0
N455 N 0.25737 0.09345 0.69882 0.0
C456 C 0.24357 0.02347 0.70403 0.0
C457 C 0.1561 0.07121 0.73428 0.0
C458 C 0.21278 0.11608 0.712 0.0
C459 C 0.14352 1.00043 0.741 0.0
C460 C 0.18664 0.97605 0.72533 0.0
H461 H 0.15991 0.30191 0.71559 0.0
H462 H 0.09287 0.18817 0.7513 0.0
H463 H 0.07174 0.06584 0.76705 0.0
O464 O 0.33326 0.10002 0.62612 0.0
O465 O 0.35649 0.16567 0.7223 0.0
O466 O 0.44993 0.27782 0.74005 0.0
O467 O 0.28102 0.16565 0.62759 0.0
O468 O 0.40287 0.10706 0.67666 0.0
O469 O 0.47331 0.15699 0.72526 0.0
O470 O 0.6241 0.33727 0.75893 0.0
O471 O 0.54325 0.22701 0.67142 0.0
O472 O 0.46007 0.25139 0.6491 0.0
O473 O 0.54426 0.22324 0.76609 0.0
O474 O 0.49067 0.3392 0.71195 0.0
O475 O 0.42421 0.30084 0.66153 0.0
C476 C 0.38364 0.22076 0.74384 0.0
C477 C 0.24667 0.08604 0.57824 0.0
C478 C 0.21213 0.01208 0.52517 0.0
C479 C 0.16533 0.03964 0.51709 0.0
C480 C 0.1971 0.1095 0.5688 0.0
C481 C 0.15755 0.08696 0.5387 0.0
C482 C 0.2545 0.0368 0.55593 0.0
C483 C 0.44461 0.10554 0.70187 0.0
C484 C 0.28859 0.11691 0.61098 0.0
C485 C 0.12666 0.16846 0.7403 0.0
C486 C 0.11434 0.09859 0.74911 0.0
C487 C 0.50612 0.22877 0.64518 0.0
C488 C 0.64635 0.27361 0.80299 0.0
C489 C 0.69395 0.29124 0.86047 0.0
C490 C 0.72949 0.25191 0.85247 0.0
C491 C 0.68072 0.23332 0.7952 0.0
C492 C 0.65368 0.3028 0.83532 0.0
C493 C 0.72273 0.22305 0.81993 0.0
C494 C 0.46368 0.3531 0.68441 0.0
C495 C 0.59719 0.28215 0.77964 0.0
H496 H 0.13458 0.02494 0.49352 0.0
H497 H 0.18889 0.14653 0.58466 0.0
H498 H 0.12061 0.10678 0.53193 0.0
H499 H 0.29222 0.01778 0.56244 0.0
H500 H 0.76205 0.24335 0.87134 0.0
H501 H 0.67469 0.20952 0.7704 0.0
H502 H 0.6278 0.33497 0.84088 0.0
H503 H 0.74966 0.19225 0.81395 0.0
C504 C 0.20545 0.68 0.26924 0.0
C505 C 0.27171 0.73381 0.28384 0.0
C506 C 0.20554 0.63414 0.24398 0.0
C507 C 0.27187 0.64237 0.23273 0.0
H508 H 0.15347 0.66522 0.28038 0.0
H509 H 0.1539 0.5877 0.23579 0.0
S510 S 0.45901 0.78684 0.25659 0.0
N511 N 0.40436 0.80213 0.28057 0.0
N512 N 0.40452 0.7159 0.23249 0.0
C513 C 0.33799 0.70272 0.24325 0.0
C514 C 0.3378 0.74933 0.26885 0.0
C515 C 0.57627 0.19507 0.60656 0.0
C516 C 0.5221 0.2143 0.61109 0.0
C517 C 0.60903 0.20417 0.57515 0.0
C518 C 0.58745 0.23189 0.54779 0.0
H519 H 0.59817 0.17956 0.62785 0.0
H520 H 0.65706 0.1982 0.57344 0.0
S521 S 0.43102 0.26449 0.54364 0.0
N522 N 0.4355 0.24351 0.58351 0.0
N523 N 0.49726 0.25927 0.52431 0.0
C524 C 0.52493 0.23825 0.55048 0.0
C525 C 0.49199 0.22984 0.5824 0.0
C526 C 0.23532 0.53407 0.93252 0.0
C527 C 0.29636 0.56274 0.95444 0.0
C528 C 0.2379 0.56754 0.90195 0.0
C529 C 0.30138 0.63162 0.89218 0.0
H530 H 0.18405 0.48609 0.93909 0.0
H531 H 0.19011 0.54182 0.8855 0.0
S532 S 0.47517 0.7316 0.94106 0.0
N533 N 0.42178 0.66012 0.96486 0.0
N534 N 0.42629 0.72487 0.90693 0.0
C535 C 0.36279 0.66213 0.91394 0.0
C536 C 0.36032 0.62731 0.94522 0.0
C537 C 0.71675 0.22234 0.27086 0.0
C538 C 0.75069 0.2854 0.29109 0.0
C539 C 0.69425 0.22451 0.23792 0.0
C540 C 0.70105 0.28929 0.22434 0.0
H541 H 0.70414 0.16975 0.2806 0.0
H542 H 0.67037 0.1744 0.2232 0.0
S543 S 0.77655 0.46806 0.26925 0.0
N544 N 0.78621 0.4138 0.29651 0.0
N545 N 0.73789 0.41744 0.23525 0.0
C546 C 0.73192 0.35264 0.24496 0.0
C547 C 0.75735 0.35061 0.27828 0.0
C548 C 0.44386 0.72401 0.59821 0.0
C549 C 0.49308 0.78722 0.61614 0.0
C550 C 0.40683 0.72905 0.57001 0.0
C551 C 0.41885 0.79766 0.559 0.0
H552 H 0.42729 0.66998 0.60837 0.0
H553 H 0.36387 0.67879 0.55872 0.0
S554 S 0.55654 0.98049 0.59073 0.0
N555 N 0.56234 0.92149 0.61637 0.0
N556 N 0.49311 0.92985 0.56255 0.0
C557 C 0.47514 0.86147 0.5734 0.0
C558 C 0.51293 0.85656 0.60223 0.0
C559 C 0.78468 0.41637 0.93491 0.0
C560 C 0.7256 0.41615 0.95118 0.0
C561 C 0.77348 0.37173 0.90689 0.0
C562 C 0.70269 0.32566 0.89399 0.0
H563 H 0.84031 0.45299 0.94328 0.0
H564 H 0.82088 0.37647 0.89413 0.0
S565 S 0.52904 0.30106 0.92904 0.0
N566 N 0.59374 0.36386 0.95356 0.0
N567 N 0.57187 0.27801 0.90117 0.0
C568 C 0.64265 0.32203 0.91114 0.0
C569 C 0.65428 0.36776 0.93971 0.0
C570 C 0.46224 0.47617 0.05385 0.0
C571 C 0.42322 0.46582 0.02346 0.0
C572 C 0.53879 0.51037 0.05463 0.0
C573 C 0.57962 0.52644 0.02478 0.0
H574 H 0.43341 0.45882 0.07759 0.0
H575 H 0.5658 0.52056 0.07908 0.0
S576 S 0.50377 0.50409 0.93764 0.0
N577 N 0.43163 0.47564 0.96219 0.0
N578 N 0.57452 0.52797 0.96328 0.0
C579 C 0.54123 0.51364 0.99382 0.0
C580 C 0.46328 0.48438 0.99319 0.0
C581 C 1.00108 0.5551 0.35108 0.0
C582 C 0.07638 0.58469 0.34586 0.0
C583 C 0.95258 0.47887 0.34887 0.0
C584 C 0.97811 0.42958 0.34315 0.0
H585 H 0.97981 0.59072 0.35773 0.0
H586 H 0.89486 0.45818 0.35242 0.0
S587 S 0.16316 0.48192 0.31263 0.0
N588 N 0.16901 0.5607 0.32293 0.0
N589 N 0.07866 0.41745 0.32156 0.0
C590 C 0.05096 0.45924 0.333 0.0
C591 C 0.10001 0.53696 0.33398 0.0
C592 C 0.51775 0.05218 0.72773 0.0
C593 C 0.46685 0.04814 0.70301 0.0
C594 C 0.55084 0.00857 0.72587 0.0
C595 C 0.53055 0.95503 0.70068 0.0
H596 H 0.53486 0.09158 0.74815 0.0
H597 H 0.59173 0.01597 0.74468 0.0
S598 S 0.3767 0.90013 0.63943 0.0
N599 N 0.38609 0.97502 0.65729 0.0
N600 N 0.43953 0.88579 0.65725 0.0
C601 C 0.47244 0.94352 0.67873 0.0
C602 C 0.4421 0.99113 0.67928 0.0
C603 C 0.52213 0.54587 0.6484 0.0
C604 C 0.53178 0.58673 0.67815 0.0
C605 C 0.49694 0.46915 0.6498 0.0
C606 C 0.47933 0.43081 0.68091 0.0
H607 H 0.53238 0.57274 0.62403 0.0
H608 H 0.49228 0.44008 0.62656 0.0
S609 S 0.4948 0.51294 0.76582 0.0
N610 N 0.52417 0.58257 0.73946 0.0
N611 N 0.4717 0.44088 0.74173 0.0
C612 C 0.48766 0.47158 0.71041 0.0
C613 C 0.51567 0.54868 0.70914 0.0
C614 C 0.02599 0.48404 0.99381 0.0
C615 C 0.0542 0.47497 0.02483 0.0
C616 C 0.97774 0.51228 0.99259 0.0
C617 C 0.95617 0.53266 0.02232 0.0
H618 H 0.04223 0.47049 0.97027 0.0
H619 H 0.95606 0.51657 0.96834 0.0
S620 S 0.01768 0.52455 0.10975 0.0
N621 N 0.05664 0.48989 0.08596 0.0
N622 N 0.97141 0.54723 0.0833 0.0
C623 C 0.98642 0.52668 0.05322 0.0
C624 C 0.0331 0.49591 0.05461 0.0
C625 C 0.4902 0.97985 0.3233 0.0
C626 C 0.4464 0.96403 0.35229 0.0
C627 C 0.56671 0.03067 0.32448 0.0
C628 C 0.60242 0.06809 0.35465 0.0
H629 H 0.46587 0.95095 0.29992 0.0
H630 H 0.59795 0.04055 0.30156 0.0
S631 S 0.51113 0.04695 0.43729 0.0
N632 N 0.44451 0.99167 0.41145 0.0
N633 N 0.58565 0.08454 0.41412 0.0
C634 C 0.55832 0.05312 0.38348 0.0
C635 C 0.4813 1.00207 0.38215 0.0
C636 C 0.33245 0.28298 0.77917 0.0
C637 C 0.33814 0.2205 0.77235 0.0
C638 C 0.28967 0.28431 0.80591 0.0
C639 C 0.25025 0.22275 0.82684 0.0
H640 H 0.35902 0.33032 0.76295 0.0
H641 H 0.28551 0.33309 0.80947 0.0
S642 S 0.24945 0.04619 0.82045 0.0
N643 N 0.30257 0.09625 0.7892 0.0
N644 N 0.22225 0.09803 0.83947 0.0
C645 C 0.25617 0.15998 0.82043 0.0
C646 C 0.29982 0.1589 0.79318 0.0
C647 C 0.05769 0.34238 0.14082 0.0
C648 C 0.0224 0.26719 0.14906 0.0
C649 C 0.10992 0.37174 0.11467 0.0
C650 C 0.12815 0.32706 0.09543 0.0
H651 H 0.04065 0.37753 0.15279 0.0
H652 H 0.13096 0.42815 0.10785 0.0
S653 S 0.05834 0.12858 0.1101 0.0
N654 N 0.01531 0.15052 0.13833 0.0
N655 N 0.11249 0.20516 0.08953 0.0
C656 C 0.09755 0.25318 0.10548 0.0
C657 C 0.04495 0.22346 0.13209 0.0
C658 C 0.84733 0.1256 0.49001 0.0
C659 C 0.79672 0.05014 0.49451 0.0
C660 C 0.85546 0.16092 0.4586 0.0
C661 C 0.81409 0.12236 0.42994 0.0
H662 H 0.88308 0.15716 0.51076 0.0
H663 H 0.89722 0.21818 0.45638 0.0
S664 S 0.67023 0.92539 0.42831 0.0
N665 N 0.70136 0.93928 0.46769 0.0
N666 N 0.7172 1.00505 0.40874 0.0
C667 C 0.76132 0.04759 0.43432 0.0
C668 C 0.75232 0.0118 0.46651 0.0
C669 C 0.67481 0.73955 0.78415 0.0
C670 C 0.66741 0.80009 0.77441 0.0
C671 C 0.71208 0.74053 0.81431 0.0
C672 C 0.74286 0.80182 0.83626 0.0
H673 H 0.65418 0.6922 0.76771 0.0
H674 H 0.71904 0.69391 0.81975 0.0
S675 S 0.72845 0.96986 0.8241 0.0
N676 N 0.68905 0.92036 0.78994 0.0
N677 N 0.75424 0.9211 0.84724 0.0
C678 C 0.73178 0.8609 0.82738 0.0
C679 C 0.69558 0.86039 0.79637 0.0
C680 C 0.88447 0.69457 0.16774 0.0
C681 C 0.96164 0.739 0.1688 0.0
C682 C 0.84603 0.6601 0.13769 0.0
C683 C 0.88255 0.66932 0.10683 0.0
H684 H 0.85316 0.68735 0.19041 0.0
H685 H 0.78682 0.62741 0.13854 0.0
S686 S 0.08469 0.77624 0.09583 0.0
N687 N 0.07329 0.78709 0.13624 0.0
N688 N 1.00173 0.72331 0.07992 0.0
C689 C 0.95995 0.71197 0.10767 0.0
C690 C 0.99919 0.7463 0.13849 0.0
C691 C 0.28169 0.97381 0.48544 0.0
C692 C 0.21511 0.96003 0.49969 0.0
C693 C 0.28313 0.93439 0.45679 0.0
C694 C 0.21848 0.88073 0.4403 0.0
H695 H 0.33305 0.01707 0.49571 0.0
H696 H 0.33565 0.94706 0.44723 0.0
S697 S 0.03017 0.81352 0.47137 0.0
N698 N 0.08266 0.8802 0.49787 0.0
N699 N 0.08618 0.80931 0.44378 0.0
C700 C 0.15181 0.86385 0.45538 0.0
C701 C 0.15009 0.90246 0.48499 0.0
loop_
_geom_bond_atom_site_label_1
_geom_bond_atom_site_label_2
_geom_bond_distance
_geom_bond_site_symmetry_2
_ccdc_geom_bond_type
Tb0 N29 2.616 1_556 S
Tb0 N35 2.572 1_556 S
Tb0 O44 2.465 . S
Tb0 O45 2.387 1_556 S
Tb0 O47 2.428 . S
Tb0 O48 2.308 1_556 S
Tb0 O52 2.349 . S
Tb0 O55 2.393 . S
Tb0 C64 2.802 . S
C1 N2 1.379 . S
C1 C4 1.416 . S
C1 C8 1.424 . S
N2 C1 1.379 . S
N2 C5 1.334 . S
N2 Tb11 2.617 . S
C3 C5 1.390 . S
C3 C6 1.339 . S
C3 H23 0.930 . S
C4 C1 1.416 . S
C4 C6 1.416 . S
C4 C10 1.448 . S
C5 N2 1.334 . S
C5 C3 1.390 . S
C5 H16 0.930 . S
C6 C3 1.339 . S
C6 C4 1.416 . S
C6 H27 0.930 . S
C7 C8 1.413 . S
C7 C9 1.427 . S
C7 C13 1.415 1_554 S
C8 C1 1.424 . S
C8 C7 1.413 . S
C8 N12 1.361 . S
C9 C7 1.427 . S
C9 C10 1.328 . S
C9 H24 0.929 1_554 S
C10 C4 1.448 . S
C10 C9 1.328 . S
C10 H25 0.930 . S
Tb11 N2 2.617 . S
Tb11 N12 2.572 . S
Tb11 O46 2.349 . S
Tb11 O49 2.393 . S
Tb11 O50 2.465 . S
Tb11 O51 2.387 1_554 S
Tb11 O53 2.428 . S
Tb11 O54 2.308 . S
Tb11 C75 2.802 . S
N12 C8 1.361 . S
N12 Tb11 2.572 . S
N12 C14 1.340 . S
C13 C7 1.415 1_556 S
C13 C15 1.331 1_556 S
C13 H21 0.934 . S
C14 N12 1.340 . S
C14 C15 1.407 . S
C14 H20 0.930 . S
C15 C13 1.331 1_554 S
C15 C14 1.407 . S
C15 H17 0.929 . S
H16 C5 0.930 . S
H17 C15 0.929 . S
H18 C33 0.930 . S
H19 C40 0.929 . S
H20 C14 0.930 . S
H21 C13 0.934 . S
H22 C36 0.930 . S
H23 C3 0.930 . S
H24 C9 0.929 1_556 S
H25 C10 0.930 . S
H26 C31 0.930 . S
H27 C6 0.930 . S
H28 C39 0.931 . S
N29 Tb0 2.616 1_554 S
N29 C30 1.388 . S
N29 C33 1.329 1_454 S
C30 N29 1.388 . S
C30 C32 1.416 1_455 S
C30 C38 1.424 . S
C31 H26 0.930 . S
C31 C33 1.390 . S
C31 C34 1.339 1_556 S
C32 C30 1.416 1_655 S
C32 C34 1.416 . S
C32 C65 1.448 . S
C33 H18 0.930 . S
C33 N29 1.329 1_656 S
C33 C31 1.390 . S
C34 C31 1.339 1_554 S
C34 C32 1.416 . S
C34 H41 0.930 . S
N35 Tb0 2.572 1_554 S
N35 C36 1.340 . S
N35 C38 1.361 . S
C36 H22 0.930 . S
C36 N35 1.340 . S
C36 C40 1.407 . S
C37 C38 1.413 . S
C37 C39 1.416 . S
C37 C66 1.427 1_455 S
C38 C30 1.424 . S
C38 N35 1.361 . S
C38 C37 1.413 . S
C39 H28 0.931 . S
C39 C37 1.416 . S
C39 C40 1.332 . S
C40 H19 0.929 . S
C40 C36 1.407 . S
C40 C39 1.332 . S
H41 C34 0.930 . S
H42 C65 0.930 1_565 S
H43 C66 0.929 1_565 S
O44 Tb0 2.465 . S
O44 C64 1.264 . S
O45 Tb0 2.387 1_554 S
O45 C56 1.264 . S
O46 Tb11 2.349 . S
O46 C56 1.243 . S
O47 Tb0 2.428 . S
O47 C64 1.256 . S
O48 Tb0 2.308 1_554 S
O48 C63 1.266 . S
O49 Tb11 2.393 . S
O49 C63 1.248 . S
O50 Tb11 2.465 . S
O50 C75 1.264 . S
O51 Tb11 2.387 1_556 S
O51 C67 1.264 . S
O52 Tb0 2.349 . S
O52 C67 1.243 . S
O53 Tb11 2.428 . S
O53 C75 1.256 . S
O54 Tb11 2.308 . S
O54 C74 1.266 . S
O55 Tb0 2.393 . S
O55 C74 1.248 1_556 S
C56 O45 1.264 . S
C56 O46 1.243 . S
C57 C60 1.399 . S
C57 C62 1.383 . S
C57 C64 1.496 . S
C58 C59 1.399 . S
C58 C62 1.389 . S
C59 C58 1.399 . S
C59 C61 1.380 . S
C59 H76 0.929 . S
C60 C57 1.399 . S
C60 C61 1.392 . S
C60 H77 0.929 . S
C61 C59 1.380 . S
C61 C60 1.392 . S
C61 H78 0.929 . S
C62 C57 1.383 . S
C62 C58 1.389 . S
C62 H79 0.931 . S
C63 O48 1.266 . S
C63 O49 1.248 . S
C64 Tb0 2.802 . S
C64 O44 1.264 . S
C64 O47 1.256 . S
C64 C57 1.496 . S
C65 C32 1.448 . S
C65 H42 0.930 1_545 S
C65 C66 1.328 . S
C66 C37 1.427 1_655 S
C66 H43 0.929 1_545 S
C66 C65 1.328 . S
C67 O51 1.264 . S
C67 O52 1.243 . S
C68 C71 1.399 . S
C68 C72 1.383 . S
C68 C75 1.496 . S
C69 C70 1.399 . S
C69 C72 1.389 . S
C70 C69 1.399 . S
C70 C73 1.380 . S
C70 H80 0.929 . S
C71 C68 1.399 . S
C71 C73 1.392 . S
C71 H81 0.929 . S
C72 C68 1.383 . S
C72 C69 1.389 . S
C72 H82 0.931 . S
C73 C70 1.380 . S
C73 C71 1.392 . S
C73 H83 0.929 . S
C74 O54 1.266 . S
C74 O55 1.248 1_554 S
C75 Tb11 2.802 . S
C75 O50 1.264 . S
C75 O53 1.256 . S
C75 C68 1.496 . S
H76 C59 0.929 . S
H77 C60 0.929 . S
H78 C61 0.929 . S
H79 C62 0.931 . S
H80 C70 0.929 . S
H81 C71 0.929 . S
H82 C72 0.931 . S
H83 C73 0.929 . S
Tb84 N113 2.617 . S
Tb84 N119 2.572 . S
Tb84 O128 2.465 . S
Tb84 O129 2.387 . S
Tb84 O131 2.428 . S
Tb84 O132 2.308 . S
Tb84 O136 2.349 . S
Tb84 O139 2.393 . S
Tb84 C148 2.802 . S
C85 N86 1.379 . S
C85 C88 1.416 . S
C85 C92 1.424 . S
N86 C85 1.379 . S
N86 C89 1.334 . S
N86 Tb95 2.617 . S
C87 C89 1.390 . S
C87 C90 1.339 . S
C87 H107 0.930 . S
C88 C85 1.416 . S
C88 C90 1.416 . S
C88 C94 1.448 . S
C89 N86 1.334 . S
C89 C87 1.390 . S
C89 H100 0.930 . S
C90 C87 1.339 . S
C90 C88 1.416 . S
C90 H111 0.930 . S
C91 C92 1.413 . S
C91 C93 1.427 . S
C91 C97 1.416 . S
C92 C85 1.424 . S
C92 C91 1.413 . S
C92 N96 1.361 . S
C93 C91 1.427 . S
C93 C94 1.328 . S
C93 H108 0.929 . S
C94 C88 1.448 . S
C94 C93 1.328 . S
C94 H109 0.930 . S
Tb95 N86 2.617 . S
Tb95 N96 2.572 . S
Tb95 O130 2.349 . S
Tb95 O133 2.393 . S
Tb95 O134 2.465 . S
Tb95 O135 2.387 . S
Tb95 O137 2.428 . S
Tb95 O138 2.308 . S
Tb95 C159 2.802 . S
N96 C92 1.361 . S
N96 Tb95 2.572 . S
N96 C98 1.340 . S
C97 C91 1.416 . S
C97 C99 1.332 . S
C97 H105 0.931 . S
C98 N96 1.340 . S
C98 C99 1.407 . S
C98 H104 0.930 . S
C99 C97 1.332 . S
C99 C98 1.407 . S
C99 H101 0.929 . S
H100 C89 0.930 . S
H101 C99 0.929 . S
H102 C117 0.930 . S
H103 C124 0.929 . S
H104 C98 0.930 . S
H105 C97 0.931 . S
H106 C120 0.930 . S
H107 C87 0.930 . S
H108 C93 0.929 . S
H109 C94 0.930 . S
H110 C115 0.930 . S
H111 C90 0.930 . S
H112 C123 0.931 . S
N113 Tb84 2.617 . S
N113 C114 1.379 . S
N113 C117 1.334 1_545 S
C114 N113 1.379 . S
C114 C116 1.416 1_545 S
C114 C122 1.424 . S
C115 H110 0.930 . S
C115 C117 1.390 . S
C115 C118 1.339 . S
C116 C114 1.416 1_565 S
C116 C118 1.416 . S
C116 C149 1.448 . S
C117 H102 0.930 . S
C117 N113 1.334 1_565 S
C117 C115 1.390 . S
C118 C115 1.339 . S
C118 C116 1.416 . S
C118 H125 0.930 . S
N119 Tb84 2.572 . S
N119 C120 1.340 1_655 S
N119 C122 1.361 . S
C120 H106 0.930 . S
C120 N119 1.340 1_455 S
C120 C124 1.407 . S
C121 C122 1.413 . S
C121 C123 1.416 1_655 S
C121 C150 1.427 1_545 S
C122 C114 1.424 . S
C122 N119 1.361 . S
C122 C121 1.413 . S
C123 H112 0.931 . S
C123 C121 1.416 1_455 S
C123 C124 1.332 . S
C124 H103 0.929 . S
C124 C120 1.407 . S
C124 C123 1.332 . S
H125 C118 0.930 . S
H126 C149 0.930 . S
H127 C150 0.929 . S
O128 Tb84 2.465 . S
O128 C148 1.264 . S
O129 Tb84 2.387 . S
O129 C140 1.264 . S
O130 Tb95 2.349 . S
O130 C140 1.243 . S
O131 Tb84 2.428 . S
O131 C148 1.256 . S
O132 Tb84 2.308 . S
O132 C147 1.266 . S
O133 Tb95 2.393 . S
O133 C147 1.248 . S
O134 Tb95 2.465 . S
O134 C159 1.264 . S
O135 Tb95 2.387 . S
O135 C151 1.264 . S
O136 Tb84 2.349 . S
O136 C151 1.243 . S
O137 Tb95 2.428 . S
O137 C159 1.256 . S
O138 Tb95 2.308 . S
O138 C158 1.266 . S
O139 Tb84 2.393 . S
O139 C158 1.248 . S
C140 O129 1.264 . S
C140 O130 1.243 . S
C141 C144 1.399 . S
C141 C146 1.383 1_655 S
C141 C148 1.496 . S
C142 C143 1.399 . S
C142 C146 1.389 . S
C143 C142 1.399 . S
C143 C145 1.380 1_455 S
C143 H160 0.929 . S
C144 C141 1.399 . S
C144 C145 1.392 . S
C144 H161 0.929 . S
C145 C143 1.380 1_655 S
C145 C144 1.392 . S
C145 H162 0.929 . S
C146 C141 1.383 1_455 S
C146 C142 1.389 . S
C146 H163 0.931 . S
C147 O132 1.266 . S
C147 O133 1.248 . S
C148 Tb84 2.802 . S
C148 O128 1.264 . S
C148 O131 1.256 . S
C148 C141 1.496 . S
C149 C116 1.448 . S
C149 H126 0.930 . S
C149 C150 1.328 . S
C150 C121 1.427 1_565 S
C150 H127 0.929 . S
C150 C149 1.328 . S
C151 O135 1.264 . S
C151 O136 1.243 . S
C152 C155 1.399 . S
C152 C156 1.383 . S
C152 C159 1.496 . S
C153 C154 1.399 . S
C153 C156 1.389 . S
C154 C153 1.399 . S
C154 C157 1.380 . S
C154 H164 0.929 . S
C155 C152 1.399 . S
C155 C157 1.392 . S
C155 H165 0.929 . S
C156 C152 1.383 . S
C156 C153 1.389 . S
C156 H166 0.931 . S
C157 C154 1.380 . S
C157 C155 1.392 . S
C157 H167 0.929 . S
C158 O138 1.266 . S
C158 O139 1.248 . S
C159 Tb95 2.802 . S
C159 O134 1.264 . S
C159 O137 1.256 . S
C159 C152 1.496 . S
H160 C143 0.929 . S
H161 C144 0.929 . S
H162 C145 0.929 . S
H163 C146 0.931 . S
H164 C154 0.929 . S
H165 C155 0.929 . S
H166 C156 0.931 . S
H167 C157 0.929 . S
Tb168 N197 2.617 . S
Tb168 N203 2.572 . S
Tb168 O212 2.465 . S
Tb168 O213 2.387 . S
Tb168 O215 2.428 . S
Tb168 O216 2.308 . S
Tb168 O220 2.349 . S
Tb168 O223 2.393 . S
Tb168 C232 2.802 . S
C169 N170 1.379 . S
C169 C172 1.416 . S
C169 C176 1.424 . S
N170 C169 1.379 . S
N170 C173 1.334 . S
N170 Tb179 2.617 . S
C171 C173 1.390 . S
C171 C174 1.339 . S
C171 H191 0.930 . S
C172 C169 1.416 . S
C172 C174 1.416 . S
C172 C178 1.448 . S
C173 N170 1.334 . S
C173 C171 1.390 . S
C173 H184 0.930 . S
C174 C171 1.339 . S
C174 C172 1.416 . S
C174 H195 0.930 . S
C175 C176 1.413 . S
C175 C177 1.427 . S
C175 C181 1.416 . S
C176 C169 1.424 . S
C176 C175 1.413 . S
C176 N180 1.361 . S
C177 C175 1.427 . S
C177 C178 1.328 . S
C177 H192 0.929 . S
C178 C172 1.448 . S
C178 C177 1.328 . S
C178 H193 0.930 . S
Tb179 N170 2.617 . S
Tb179 N180 2.572 . S
Tb179 O214 2.349 . S
Tb179 O217 2.393 . S
Tb179 O218 2.465 . S
Tb179 O219 2.387 . S
Tb179 O221 2.428 . S
Tb179 O222 2.308 . S
Tb179 C243 2.802 . S
N180 C176 1.361 . S
N180 Tb179 2.572 . S
N180 C182 1.340 . S
C181 C175 1.416 . S
C181 C183 1.332 . S
C181 H189 0.931 . S
C182 N180 1.340 . S
C182 C183 1.407 . S
C182 H188 0.930 . S
C183 C181 1.332 . S
C183 C182 1.407 . S
C183 H185 0.929 . S
H184 C173 0.930 . S
H185 C183 0.929 . S
H186 C201 0.930 . S
H187 C208 0.929 . S
H188 C182 0.930 . S
H189 C181 0.931 . S
H190 C204 0.930 . S
H191 C171 0.930 . S
H192 C177 0.929 . S
H193 C178 0.930 . S
H194 C199 0.930 . S
H195 C174 0.930 . S
H196 C207 0.931 . S
N197 Tb168 2.617 . S
N197 C198 1.379 . S
N197 C201 1.334 . S
C198 N197 1.379 . S
C198 C200 1.416 . S
C198 C206 1.424 . S
C199 H194 0.930 . S
C199 C201 1.390 . S
C199 C202 1.339 . S
C200 C198 1.416 . S
C200 C202 1.416 . S
C200 C233 1.448 . S
C201 H186 0.930 . S
C201 N197 1.334 . S
C201 C199 1.390 . S
C202 C199 1.339 . S
C202 C200 1.416 . S
C202 H209 0.930 . S
N203 Tb168 2.572 . S
N203 C204 1.340 1_565 S
N203 C206 1.361 . S
C204 H190 0.930 . S
C204 N203 1.340 1_545 S
C204 C208 1.407 . S
C205 C206 1.413 . S
C205 C207 1.416 1_565 S
C205 C234 1.427 . S
C206 C198 1.424 . S
C206 N203 1.361 . S
C206 C205 1.413 . S
C207 H196 0.931 . S
C207 C205 1.416 1_545 S
C207 C208 1.332 . S
C208 H187 0.929 . S
C208 C204 1.407 . S
C208 C207 1.332 . S
H209 C202 0.930 . S
H210 C233 0.930 1_455 S
H211 C234 0.929 1_455 S
O212 Tb168 2.465 . S
O212 C232 1.264 . S
O213 Tb168 2.387 . S
O213 C224 1.264 . S
O214 Tb179 2.349 . S
O214 C224 1.243 . S
O215 Tb168 2.428 . S
O215 C232 1.256 . S
O216 Tb168 2.308 . S
O216 C231 1.266 . S
O217 Tb179 2.393 . S
O217 C231 1.248 . S
O218 Tb179 2.465 . S
O218 C243 1.264 . S
O219 Tb179 2.387 . S
O219 C235 1.264 . S
O220 Tb168 2.349 . S
O220 C235 1.243 . S
O221 Tb179 2.428 . S
O221 C243 1.256 . S
O222 Tb179 2.308 . S
O222 C242 1.266 . S
O223 Tb168 2.393 . S
O223 C242 1.248 . S
C224 O213 1.264 . S
C224 O214 1.243 . S
C225 C228 1.399 . S
C225 C230 1.383 1_565 S
C225 C232 1.496 . S
C226 C227 1.399 . S
C226 C230 1.389 . S
C227 C226 1.399 . S
C227 C229 1.380 1_545 S
C227 H244 0.929 . S
C228 C225 1.399 . S
C228 C229 1.392 . S
C228 H245 0.929 . S
C229 C227 1.380 1_565 S
C229 C228 1.392 . S
C229 H246 0.929 . S
C230 C225 1.383 1_545 S
C230 C226 1.389 . S
C230 H247 0.931 . S
C231 O216 1.266 . S
C231 O217 1.248 . S
C232 Tb168 2.802 . S
C232 O212 1.264 . S
C232 O215 1.256 . S
C232 C225 1.496 . S
C233 C200 1.448 . S
C233 H210 0.930 1_655 S
C233 C234 1.328 . S
C234 C205 1.427 . S
C234 H211 0.929 1_655 S
C234 C233 1.328 . S
C235 O219 1.264 . S
C235 O220 1.243 . S
C236 C239 1.399 . S
C236 C240 1.383 . S
C236 C243 1.496 . S
C237 C238 1.399 . S
C237 C240 1.389 . S
C238 C237 1.399 . S
C238 C241 1.380 . S
C238 H248 0.929 . S
C239 C236 1.399 . S
C239 C241 1.392 . S
C239 H249 0.929 . S
C240 C236 1.383 . S
C240 C237 1.389 . S
C240 H250 0.931 . S
C241 C238 1.380 . S
C241 C239 1.392 . S
C241 H251 0.929 . S
C242 O222 1.266 . S
C242 O223 1.248 . S
C243 Tb179 2.802 . S
C243 O218 1.264 . S
C243 O221 1.256 . S
C243 C236 1.496 . S
H244 C227 0.929 . S
H245 C228 0.929 . S
H246 C229 0.929 . S
H247 C230 0.931 . S
H248 C238 0.929 . S
H249 C239 0.929 . S
H250 C240 0.931 . S
H251 C241 0.929 . S
Tb252 N281 2.616 1_556 S
Tb252 N287 2.572 1_556 S
Tb252 O296 2.465 . S
Tb252 O297 2.387 1_556 S
Tb252 O299 2.428 . S
Tb252 O300 2.308 1_556 S
Tb252 O304 2.349 . S
Tb252 O307 2.393 . S
Tb252 C316 2.802 . S
C253 N254 1.379 . S
C253 C256 1.416 . S
C253 C260 1.424 . S
N254 C253 1.379 . S
N254 C257 1.334 . S
N254 Tb263 2.617 . S
C255 C257 1.390 . S
C255 C258 1.339 . S
C255 H275 0.930 . S
C256 C253 1.416 . S
C256 C258 1.416 . S
C256 C262 1.448 . S
C257 N254 1.334 . S
C257 C255 1.390 . S
C257 H268 0.930 . S
C258 C255 1.339 . S
C258 C256 1.416 . S
C258 H279 0.930 . S
C259 C260 1.413 . S
C259 C261 1.427 . S
C259 C265 1.415 1_554 S
C260 C253 1.424 . S
C260 C259 1.413 . S
C260 N264 1.361 . S
C261 C259 1.427 . S
C261 C262 1.328 . S
C261 H276 0.929 1_554 S
C262 C256 1.448 . S
C262 C261 1.328 . S
C262 H277 0.930 . S
Tb263 N254 2.617 . S
Tb263 N264 2.572 . S
Tb263 O298 2.349 . S
Tb263 O301 2.393 . S
Tb263 O302 2.465 . S
Tb263 O303 2.387 1_554 S
Tb263 O305 2.428 . S
Tb263 O306 2.308 . S
Tb263 C327 2.802 . S
N264 C260 1.361 . S
N264 Tb263 2.572 . S
N264 C266 1.340 . S
C265 C259 1.415 1_556 S
C265 C267 1.331 1_556 S
C265 H273 0.934 . S
C266 N264 1.340 . S
C266 C267 1.407 . S
C266 H272 0.930 . S
C267 C265 1.331 1_554 S
C267 C266 1.407 . S
C267 H269 0.929 . S
H268 C257 0.930 . S
H269 C267 0.929 . S
H270 C285 0.930 . S
H271 C292 0.929 . S
H272 C266 0.930 . S
H273 C265 0.934 . S
H274 C288 0.930 . S
H275 C255 0.930 . S
H276 C261 0.929 1_556 S
H277 C262 0.930 . S
H278 C283 0.930 . S
H279 C258 0.930 . S
H280 C291 0.931 . S
N281 Tb252 2.616 1_554 S
N281 C282 1.388 . S
N281 C285 1.329 1_654 S
C282 N281 1.388 . S
C282 C284 1.416 1_655 S
C282 C290 1.424 . S
C283 H278 0.930 . S
C283 C285 1.390 . S
C283 C286 1.339 1_556 S
C284 C282 1.416 1_455 S
C284 C286 1.416 . S
C284 C317 1.448 . S
C285 H270 0.930 . S
C285 N281 1.329 1_456 S
C285 C283 1.390 . S
C286 C283 1.339 1_554 S
C286 C284 1.416 . S
C286 H293 0.930 . S
N287 Tb252 2.572 1_554 S
N287 C288 1.340 . S
N287 C290 1.361 . S
C288 H274 0.930 . S
C288 N287 1.340 . S
C288 C292 1.407 . S
C289 C290 1.413 . S
C289 C291 1.416 . S
C289 C318 1.427 1_655 S
C290 C282 1.424 . S
C290 N287 1.361 . S
C290 C289 1.413 . S
C291 H280 0.931 . S
C291 C289 1.416 . S
C291 C292 1.332 . S
C292 H271 0.929 . S
C292 C288 1.407 . S
C292 C291 1.332 . S
H293 C286 0.930 . S
H294 C317 0.930 1_545 S
H295 C318 0.929 1_545 S
O296 Tb252 2.465 . S
O296 C316 1.264 . S
O297 Tb252 2.387 1_554 S
O297 C308 1.264 . S
O298 Tb263 2.349 . S
O298 C308 1.243 . S
O299 Tb252 2.428 . S
O299 C316 1.256 . S
O300 Tb252 2.308 1_554 S
O300 C315 1.266 . S
O301 Tb263 2.393 . S
O301 C315 1.248 . S
O302 Tb263 2.465 . S
O302 C327 1.264 . S
O303 Tb263 2.387 1_556 S
O303 C319 1.264 . S
O304 Tb252 2.349 . S
O304 C319 1.243 . S
O305 Tb263 2.428 . S
O305 C327 1.256 . S
O306 Tb263 2.308 . S
O306 C326 1.266 . S
O307 Tb252 2.393 . S
O307 C326 1.248 1_556 S
C308 O297 1.264 . S
C308 O298 1.243 . S
C309 C312 1.399 . S
C309 C314 1.383 . S
C309 C316 1.496 . S
C310 C311 1.399 . S
C310 C314 1.389 . S
C311 C310 1.399 . S
C311 C313 1.380 . S
C311 H328 0.929 . S
C312 C309 1.399 . S
C312 C313 1.392 . S
C312 H329 0.929 . S
C313 C311 1.380 . S
C313 C312 1.392 . S
C313 H330 0.929 . S
C314 C309 1.383 . S
C314 C310 1.389 . S
C314 H331 0.931 . S
C315 O300 1.266 . S
C315 O301 1.248 . S
C316 Tb252 2.802 . S
C316 O296 1.264 . S
C316 O299 1.256 . S
C316 C309 1.496 . S
C317 C284 1.448 . S
C317 H294 0.930 1_565 S
C317 C318 1.328 . S
C318 C289 1.427 1_455 S
C318 H295 0.929 1_565 S
C318 C317 1.328 . S
C319 O303 1.264 . S
C319 O304 1.243 . S
C320 C323 1.399 . S
C320 C324 1.383 . S
C320 C327 1.496 . S
C321 C322 1.399 . S
C321 C324 1.389 . S
C322 C321 1.399 . S
C322 C325 1.380 . S
C322 H332 0.929 . S
C323 C320 1.399 . S
C323 C325 1.392 . S
C323 H333 0.929 . S
C324 C320 1.383 . S
C324 C321 1.389 . S
C324 H334 0.931 . S
C325 C322 1.380 . S
C325 C323 1.392 . S
C325 H335 0.929 . S
C326 O306 1.266 . S
C326 O307 1.248 1_554 S
C327 Tb263 2.802 . S
C327 O302 1.264 . S
C327 O305 1.256 . S
C327 C320 1.496 . S
H328 C311 0.929 . S
H329 C312 0.929 . S
H330 C313 0.929 . S
H331 C314 0.931 . S
H332 C322 0.929 . S
H333 C323 0.929 . S
H334 C324 0.931 . S
H335 C325 0.929 . S
Tb336 N365 2.617 . S
Tb336 N371 2.572 . S
Tb336 O380 2.465 . S
Tb336 O381 2.387 . S
Tb336 O383 2.428 . S
Tb336 O384 2.308 . S
Tb336 O388 2.349 . S
Tb336 O391 2.393 . S
Tb336 C400 2.802 . S
C337 N338 1.379 . S
C337 C340 1.416 . S
C337 C344 1.424 . S
N338 C337 1.379 . S
N338 C341 1.334 . S
N338 Tb347 2.617 . S
C339 C341 1.390 . S
C339 C342 1.339 . S
C339 H359 0.930 . S
C340 C337 1.416 . S
C340 C342 1.416 . S
C340 C346 1.448 . S
C341 N338 1.334 . S
C341 C339 1.390 . S
C341 H352 0.930 . S
C342 C339 1.339 . S
C342 C340 1.416 . S
C342 H363 0.930 . S
C343 C344 1.413 . S
C343 C345 1.427 . S
C343 C349 1.416 . S
C344 C337 1.424 . S
C344 C343 1.413 . S
C344 N348 1.361 . S
C345 C343 1.427 . S
C345 C346 1.328 . S
C345 H360 0.929 . S
C346 C340 1.448 . S
C346 C345 1.328 . S
C346 H361 0.930 . S
Tb347 N338 2.617 . S
Tb347 N348 2.572 . S
Tb347 O382 2.349 . S
Tb347 O385 2.393 . S
Tb347 O386 2.465 . S
Tb347 O387 2.387 . S
Tb347 O389 2.428 . S
Tb347 O390 2.308 . S
Tb347 C411 2.802 . S
N348 C344 1.361 . S
N348 Tb347 2.572 . S
N348 C350 1.340 . S
C349 C343 1.416 . S
C349 C351 1.332 . S
C349 H357 0.931 . S
C350 N348 1.340 . S
C350 C351 1.407 . S
C350 H356 0.930 . S
C351 C349 1.332 . S
C351 C350 1.407 . S
C351 H353 0.929 . S
H352 C341 0.930 . S
H353 C351 0.929 . S
H354 C369 0.930 . S
H355 C376 0.929 . S
H356 C350 0.930 . S
H357 C349 0.931 . S
H358 C372 0.930 . S
H359 C339 0.930 . S
H360 C345 0.929 . S
H361 C346 0.930 . S
H362 C367 0.930 . S
H363 C342 0.930 . S
H364 C375 0.931 . S
N365 Tb336 2.617 . S
N365 C366 1.379 . S
N365 C369 1.334 1_565 S
C366 N365 1.379 . S
C366 C368 1.416 1_565 S
C366 C374 1.424 . S
C367 H362 0.930 . S
C367 C369 1.390 . S
C367 C370 1.339 . S
C368 C366 1.416 1_545 S
C368 C370 1.416 . S
C368 C401 1.448 . S
C369 H354 0.930 . S
C369 N365 1.334 1_545 S
C369 C367 1.390 . S
C370 C367 1.339 . S
C370 C368 1.416 . S
C370 H377 0.930 . S
N371 Tb336 2.572 . S
N371 C372 1.340 1_455 S
N371 C374 1.361 . S
C372 H358 0.930 . S
C372 N371 1.340 1_655 S
C372 C376 1.407 . S
C373 C374 1.413 . S
C373 C375 1.416 1_455 S
C373 C402 1.427 1_565 S
C374 C366 1.424 . S
C374 N371 1.361 . S
C374 C373 1.413 . S
C375 H364 0.931 . S
C375 C373 1.416 1_655 S
C375 C376 1.332 . S
C376 H355 0.929 . S
C376 C372 1.407 . S
C376 C375 1.332 . S
H377 C370 0.930 . S
H378 C401 0.930 . S
H379 C402 0.929 . S
O380 Tb336 2.465 . S
O380 C400 1.264 . S
O381 Tb336 2.387 . S
O381 C392 1.264 . S
O382 Tb347 2.349 . S
O382 C392 1.243 . S
O383 Tb336 2.428 . S
O383 C400 1.256 . S
O384 Tb336 2.308 . S
O384 C399 1.266 . S
O385 Tb347 2.393 . S
O385 C399 1.248 . S
O386 Tb347 2.465 . S
O386 C411 1.264 . S
O387 Tb347 2.387 . S
O387 C403 1.264 . S
O388 Tb336 2.349 . S
O388 C403 1.243 . S
O389 Tb347 2.428 . S
O389 C411 1.256 . S
O390 Tb347 2.308 . S
O390 C410 1.266 . S
O391 Tb336 2.393 . S
O391 C410 1.248 . S
C392 O381 1.264 . S
C392 O382 1.243 . S
C393 C396 1.399 . S
C393 C398 1.383 1_455 S
C393 C400 1.496 . S
C394 C395 1.399 . S
C394 C398 1.389 . S
C395 C394 1.399 . S
C395 C397 1.380 1_655 S
C395 H412 0.929 . S
C396 C393 1.399 . S
C396 C397 1.392 . S
C396 H413 0.929 . S
C397 C395 1.380 1_455 S
C397 C396 1.392 . S
C397 H414 0.929 . S
C398 C393 1.383 1_655 S
C398 C394 1.389 . S
C398 H415 0.931 . S
C399 O384 1.266 . S
C399 O385 1.248 . S
C400 Tb336 2.802 . S
C400 O380 1.264 . S
C400 O383 1.256 . S
C400 C393 1.496 . S
C401 C368 1.448 . S
C401 H378 0.930 . S
C401 C402 1.328 . S
C402 C373 1.427 1_545 S
C402 H379 0.929 . S
C402 C401 1.328 . S
C403 O387 1.264 . S
C403 O388 1.243 . S
C404 C407 1.399 . S
C404 C408 1.383 . S
C404 C411 1.496 . S
C405 C406 1.399 . S
C405 C408 1.389 . S
C406 C405 1.399 . S
C406 C409 1.380 . S
C406 H416 0.929 . S
C407 C404 1.399 . S
C407 C409 1.392 . S
C407 H417 0.929 . S
C408 C404 1.383 . S
C408 C405 1.389 . S
C408 H418 0.931 . S
C409 C406 1.380 . S
C409 C407 1.392 . S
C409 H419 0.929 . S
C410 O390 1.266 . S
C410 O391 1.248 . S
C411 Tb347 2.802 . S
C411 O386 1.264 . S
C411 O389 1.256 . S
C411 C404 1.496 . S
H412 C395 0.929 . S
H413 C396 0.929 . S
H414 C397 0.929 . S
H415 C398 0.931 . S
H416 C406 0.929 . S
H417 C407 0.929 . S
H418 C408 0.931 . S
H419 C409 0.929 . S
Tb420 N449 2.617 . S
Tb420 N455 2.572 . S
Tb420 O464 2.465 . S
Tb420 O465 2.387 . S
Tb420 O467 2.428 . S
Tb420 O468 2.308 . S
Tb420 O472 2.349 . S
Tb420 O475 2.393 . S
Tb420 C484 2.802 . S
C421 N422 1.379 . S
C421 C424 1.416 . S
C421 C428 1.424 . S
N422 C421 1.379 . S
N422 C425 1.334 . S
N422 Tb431 2.617 . S
C423 C425 1.390 . S
C423 C426 1.339 . S
C423 H443 0.930 . S
C424 C421 1.416 . S
C424 C426 1.416 . S
C424 C430 1.448 . S
C425 N422 1.334 . S
C425 C423 1.390 . S
C425 H436 0.930 . S
C426 C423 1.339 . S
C426 C424 1.416 . S
C426 H447 0.930 . S
C427 C428 1.413 . S
C427 C429 1.427 . S
C427 C433 1.416 . S
C428 C421 1.424 . S
C428 C427 1.413 . S
C428 N432 1.361 . S
C429 C427 1.427 . S
C429 C430 1.328 . S
C429 H444 0.929 . S
C430 C424 1.448 . S
C430 C429 1.328 . S
C430 H445 0.930 . S
Tb431 N422 2.617 . S
Tb431 N432 2.572 . S
Tb431 O466 2.349 . S
Tb431 O469 2.393 . S
Tb431 O470 2.465 . S
Tb431 O471 2.387 . S
Tb431 O473 2.428 . S
Tb431 O474 2.308 . S
Tb431 C495 2.802 . S
N432 C428 1.361 . S
N432 Tb431 2.572 . S
N432 C434 1.340 . S
C433 C427 1.416 . S
C433 C435 1.332 . S
C433 H441 0.931 . S
C434 N432 1.340 . S
C434 C435 1.407 . S
C434 H440 0.930 . S
C435 C433 1.332 . S
C435 C434 1.407 . S
C435 H437 0.929 . S
H436 C425 0.930 . S
H437 C435 0.929 . S
H438 C453 0.930 . S
H439 C460 0.929 . S
H440 C434 0.930 . S
H441 C433 0.931 . S
H442 C456 0.930 . S
H443 C423 0.930 . S
H444 C429 0.929 . S
H445 C430 0.930 . S
H446 C451 0.930 . S
H447 C426 0.930 . S
H448 C459 0.931 . S
N449 Tb420 2.617 . S
N449 C450 1.379 . S
N449 C453 1.334 . S
C450 N449 1.379 . S
C450 C452 1.416 . S
C450 C458 1.424 . S
C451 H446 0.930 . S
C451 C453 1.390 . S
C451 C454 1.339 . S
C452 C450 1.416 . S
C452 C454 1.416 . S
C452 C485 1.448 . S
C453 H438 0.930 . S
C453 N449 1.334 . S
C453 C451 1.390 . S
C454 C451 1.339 . S
C454 C452 1.416 . S
C454 H461 0.930 . S
N455 Tb420 2.572 . S
N455 C456 1.340 1_545 S
N455 C458 1.361 . S
C456 H442 0.930 . S
C456 N455 1.340 1_565 S
C456 C460 1.407 . S
C457 C458 1.413 . S
C457 C459 1.416 1_545 S
C457 C486 1.427 . S
C458 C450 1.424 . S
C458 N455 1.361 . S
C458 C457 1.413 . S
C459 H448 0.931 . S
C459 C457 1.416 1_565 S
C459 C460 1.332 . S
C460 H439 0.929 . S
C460 C456 1.407 . S
C460 C459 1.332 . S
H461 C454 0.930 . S
H462 C485 0.930 1_655 S
H463 C486 0.929 1_655 S
O464 Tb420 2.465 . S
O464 C484 1.264 . S
O465 Tb420 2.387 . S
O465 C476 1.264 . S
O466 Tb431 2.349 . S
O466 C476 1.243 . S
O467 Tb420 2.428 . S
O467 C484 1.256 . S
O468 Tb420 2.308 . S
O468 C483 1.266 . S
O469 Tb431 2.393 . S
O469 C483 1.248 . S
O470 Tb431 2.465 . S
O470 C495 1.264 . S
O471 Tb431 2.387 . S
O471 C487 1.264 . S
O472 Tb420 2.349 . S
O472 C487 1.243 . S
O473 Tb431 2.428 . S
O473 C495 1.256 . S
O474 Tb431 2.308 . S
O474 C494 1.266 . S
O475 Tb420 2.393 . S
O475 C494 1.248 . S
C476 O465 1.264 . S
C476 O466 1.243 . S
C477 C480 1.399 . S
C477 C482 1.383 1_545 S
C477 C484 1.496 . S
C478 C479 1.399 . S
C478 C482 1.389 . S
C479 C478 1.399 . S
C479 C481 1.380 1_565 S
C479 H496 0.929 . S
C480 C477 1.399 . S
C480 C481 1.392 . S
C480 H497 0.929 . S
C481 C479 1.380 1_545 S
C481 C480 1.392 . S
C481 H498 0.929 . S
C482 C477 1.383 1_565 S
C482 C478 1.389 . S
C482 H499 0.931 . S
C483 O468 1.266 . S
C483 O469 1.248 . S
C484 Tb420 2.802 . S
C484 O464 1.264 . S
C484 O467 1.256 . S
C484 C477 1.496 . S
C485 C452 1.448 . S
C485 H462 0.930 1_455 S
C485 C486 1.328 . S
C486 C457 1.427 . S
C486 H463 0.929 1_455 S
C486 C485 1.328 . S
C487 O471 1.264 . S
C487 O472 1.243 . S
C488 C491 1.399 . S
C488 C492 1.383 . S
C488 C495 1.496 . S
C489 C490 1.399 . S
C489 C492 1.389 . S
C490 C489 1.399 . S
C490 C493 1.380 . S
C490 H500 0.929 . S
C491 C488 1.399 . S
C491 C493 1.392 . S
C491 H501 0.929 . S
C492 C488 1.383 . S
C492 C489 1.389 . S
C492 H502 0.931 . S
C493 C490 1.380 . S
C493 C491 1.392 . S
C493 H503 0.929 . S
C494 O474 1.266 . S
C494 O475 1.248 . S
C495 Tb431 2.802 . S
C495 O470 1.264 . S
C495 O473 1.256 . S
C495 C488 1.496 . S
H496 C479 0.929 . S
H497 C480 0.929 . S
H498 C481 0.929 . S
H499 C482 0.931 . S
H500 C490 0.929 . S
H501 C491 0.929 . S
H502 C492 0.931 . S
H503 C493 0.929 . S
C504 C505 1.369 . S
C504 C506 1.419 . S
C504 H508 0.930 . S
C505 C504 1.369 . S
C505 C514 1.429 . S
C506 C504 1.419 . S
C506 C507 1.363 . S
C506 H509 0.929 . S
C507 C506 1.363 . S
C507 C513 1.428 . S
H508 C504 0.930 . S
H509 C506 0.929 . S
S510 N511 1.613 . S
S510 N512 1.610 . S
N511 S510 1.613 . S
N511 C514 1.350 . S
N512 S510 1.610 . S
N512 C513 1.351 . S
C513 C507 1.428 . S
C513 N512 1.351 . S
C513 C514 1.434 . S
C514 C505 1.429 . S
C514 N511 1.350 . S
C514 C513 1.434 . S
C515 C516 1.369 . S
C515 C517 1.419 . S
C515 H519 0.930 . S
C516 C515 1.369 . S
C516 C525 1.429 . S
C517 C515 1.419 . S
C517 C518 1.363 . S
C517 H520 0.929 . S
C518 C517 1.363 . S
C518 C524 1.428 . S
H519 C515 0.930 . S
H520 C517 0.929 . S
S521 N522 1.613 . S
S521 N523 1.610 . S
N522 S521 1.613 . S
N522 C525 1.350 . S
N523 S521 1.610 . S
N523 C524 1.351 . S
C524 C518 1.428 . S
C524 N523 1.351 . S
C524 C525 1.434 . S
C525 C516 1.429 . S
C525 N522 1.350 . S
C525 C524 1.434 . S
C526 C527 1.369 . S
C526 C528 1.419 . S
C526 H530 0.930 . S
C527 C526 1.369 . S
C527 C536 1.429 . S
C528 C526 1.419 . S
C528 C529 1.363 . S
C528 H531 0.929 . S
C529 C528 1.363 . S
C529 C535 1.428 . S
H530 C526 0.930 . S
H531 C528 0.929 . S
S532 N533 1.613 . S
S532 N534 1.610 . S
N533 S532 1.613 . S
N533 C536 1.350 . S
N534 S532 1.610 . S
N534 C535 1.351 . S
C535 C529 1.428 . S
C535 N534 1.351 . S
C535 C536 1.434 . S
C536 C527 1.429 . S
C536 N533 1.350 . S
C536 C535 1.434 . S
C537 C538 1.369 . S
C537 C539 1.419 . S
C537 H541 0.930 . S
C538 C537 1.369 . S
C538 C547 1.429 . S
C539 C537 1.419 . S
C539 C540 1.363 . S
C539 H542 0.929 . S
C540 C539 1.363 . S
C540 C546 1.428 . S
H541 C537 0.930 . S
H542 C539 0.929 . S
S543 N544 1.613 . S
S543 N545 1.610 . S
N544 S543 1.613 . S
N544 C547 1.350 . S
N545 S543 1.610 . S
N545 C546 1.351 . S
C546 C540 1.428 . S
C546 N545 1.351 . S
C546 C547 1.434 . S
C547 C538 1.429 . S
C547 N544 1.350 . S
C547 C546 1.434 . S
C548 C549 1.369 . S
C548 C550 1.419 . S
C548 H552 0.930 . S
C549 C548 1.369 . S
C549 C558 1.429 . S
C550 C548 1.419 . S
C550 C551 1.363 . S
C550 H553 0.929 . S
C551 C550 1.363 . S
C551 C557 1.428 . S
H552 C548 0.930 . S
H553 C550 0.929 . S
S554 N555 1.613 . S
S554 N556 1.610 . S
N555 S554 1.613 . S
N555 C558 1.350 . S
N556 S554 1.610 . S
N556 C557 1.351 . S
C557 C551 1.428 . S
C557 N556 1.351 . S
C557 C558 1.434 . S
C558 C549 1.429 . S
C558 N555 1.350 . S
C558 C557 1.434 . S
C559 C560 1.369 . S
C559 C561 1.419 . S
C559 H563 0.930 . S
C560 C559 1.369 . S
C560 C569 1.429 . S
C561 C559 1.419 . S
C561 C562 1.363 . S
C561 H564 0.929 . S
C562 C561 1.363 . S
C562 C568 1.428 . S
H563 C559 0.930 . S
H564 C561 0.929 . S
S565 N566 1.613 . S
S565 N567 1.610 . S
N566 S565 1.613 . S
N566 C569 1.350 . S
N567 S565 1.610 . S
N567 C568 1.351 . S
C568 C562 1.428 . S
C568 N567 1.351 . S
C568 C569 1.434 . S
C569 C560 1.429 . S
C569 N566 1.350 . S
C569 C568 1.434 . S
C570 C571 1.369 . S
C570 C572 1.419 . S
C570 H574 0.930 . S
C571 C570 1.369 . S
C571 C580 1.429 . S
C572 C570 1.419 . S
C572 C573 1.363 . S
C572 H575 0.929 . S
C573 C572 1.363 . S
C573 C579 1.428 . S
H574 C570 0.930 . S
H575 C572 0.929 . S
S576 N577 1.613 . S
S576 N578 1.610 . S
N577 S576 1.613 . S
N577 C580 1.350 1_556 S
N578 S576 1.610 . S
N578 C579 1.351 1_556 S
C579 C573 1.428 . S
C579 N578 1.351 1_554 S
C579 C580 1.434 . S
C580 C571 1.429 . S
C580 N577 1.350 1_554 S
C580 C579 1.434 . S
C581 C582 1.369 1_655 S
C581 C583 1.419 . S
C581 H585 0.930 . S
C582 C581 1.369 1_455 S
C582 C591 1.429 . S
C583 C581 1.419 . S
C583 C584 1.363 . S
C583 H586 0.929 . S
C584 C583 1.363 . S
C584 C590 1.428 1_655 S
H585 C581 0.930 . S
H586 C583 0.929 . S
S587 N588 1.613 . S
S587 N589 1.610 . S
N588 S587 1.613 . S
N588 C591 1.350 . S
N589 S587 1.610 . S
N589 C590 1.351 . S
C590 C584 1.428 1_455 S
C590 N589 1.351 . S
C590 C591 1.434 . S
C591 C582 1.429 . S
C591 N588 1.350 . S
C591 C590 1.434 . S
C592 C593 1.369 . S
C592 C594 1.419 . S
C592 H596 0.930 . S
C593 C592 1.369 . S
C593 C602 1.429 1_545 S
C594 C592 1.419 . S
C594 C595 1.363 1_545 S
C594 H597 0.929 . S
C595 C594 1.363 1_565 S
C595 C601 1.428 . S
H596 C592 0.930 . S
H597 C594 0.929 . S
S598 N599 1.613 . S
S598 N600 1.610 . S
N599 S598 1.613 . S
N599 C602 1.350 . S
N600 S598 1.610 . S
N600 C601 1.351 . S
C601 C595 1.428 . S
C601 N600 1.351 . S
C601 C602 1.434 . S
C602 C593 1.429 1_565 S
C602 N599 1.350 . S
C602 C601 1.434 . S
C603 C604 1.369 . S
C603 C605 1.419 . S
C603 H607 0.930 . S
C604 C603 1.369 . S
C604 C613 1.429 . S
C605 C603 1.419 . S
C605 C606 1.363 . S
C605 H608 0.929 . S
C606 C605 1.363 . S
C606 C612 1.428 . S
H607 C603 0.930 . S
H608 C605 0.929 . S
S609 N610 1.613 . S
S609 N611 1.610 . S
N610 S609 1.613 . S
N610 C613 1.350 . S
N611 S609 1.610 . S
N611 C612 1.351 . S
C612 C606 1.428 . S
C612 N611 1.351 . S
C612 C613 1.434 . S
C613 C604 1.429 . S
C613 N610 1.350 . S
C613 C612 1.434 . S
C614 C615 1.370 1_656 S
C614 C616 1.419 1_556 S
C614 H618 0.930 . S
C615 C614 1.370 1_454 S
C615 C624 1.429 . S
C616 C614 1.419 1_554 S
C616 C617 1.364 . S
C616 H619 0.928 1_554 S
C617 C616 1.364 . S
C617 C623 1.428 1_655 S
H618 C614 0.930 . S
H619 C616 0.928 1_556 S
S620 N621 1.613 . S
S620 N622 1.610 . S
N621 S620 1.613 . S
N621 C624 1.350 . S
N622 S620 1.610 . S
N622 C623 1.351 . S
C623 C617 1.428 1_455 S
C623 N622 1.351 . S
C623 C624 1.434 . S
C624 C615 1.429 . S
C624 N621 1.350 . S
C624 C623 1.434 . S
C625 C626 1.369 . S
C625 C627 1.419 . S
C625 H629 0.930 . S
C626 C625 1.369 . S
C626 C635 1.429 1_565 S
C627 C625 1.419 . S
C627 C628 1.363 1_565 S
C627 H630 0.929 . S
C628 C627 1.363 1_545 S
C628 C634 1.428 . S
H629 C625 0.930 . S
H630 C627 0.929 . S
S631 N632 1.613 . S
S631 N633 1.610 . S
N632 S631 1.613 . S
N632 C635 1.350 . S
N633 S631 1.610 . S
N633 C634 1.351 . S
C634 C628 1.428 . S
C634 N633 1.351 . S
C634 C635 1.434 . S
C635 C626 1.429 1_545 S
C635 N632 1.350 . S
C635 C634 1.434 . S
C636 C637 1.369 . S
C636 C638 1.419 . S
C636 H640 0.930 . S
C637 C636 1.369 . S
C637 C646 1.429 . S
C638 C636 1.419 . S
C638 C639 1.363 . S
C638 H641 0.929 . S
C639 C638 1.363 . S
C639 C645 1.428 . S
H640 C636 0.930 . S
H641 C638 0.929 . S
S642 N643 1.613 1_565 S
S642 N644 1.610 1_565 S
N643 S642 1.613 1_545 S
N643 C646 1.350 . S
N644 S642 1.610 1_545 S
N644 C645 1.351 . S
C645 C639 1.428 . S
C645 N644 1.351 . S
C645 C646 1.434 . S
C646 C637 1.429 . S
C646 N643 1.350 . S
C646 C645 1.434 . S
C647 C648 1.369 . S
C647 C649 1.419 . S
C647 H651 0.930 . S
C648 C647 1.369 . S
C648 C657 1.429 . S
C649 C647 1.419 . S
C649 C650 1.363 . S
C649 H652 0.929 . S
C650 C649 1.363 . S
C650 C656 1.428 . S
H651 C647 0.930 . S
H652 C649 0.929 . S
S653 N654 1.613 . S
S653 N655 1.610 . S
N654 S653 1.613 . S
N654 C657 1.350 . S
N655 S653 1.610 . S
N655 C656 1.351 . S
C656 C650 1.428 . S
C656 N655 1.351 . S
C656 C657 1.434 . S
C657 C648 1.429 . S
C657 N654 1.350 . S
C657 C656 1.434 . S
C658 C659 1.369 . S
C658 C660 1.419 . S
C658 H662 0.930 . S
C659 C658 1.369 . S
C659 C668 1.429 . S
C660 C658 1.419 . S
C660 C661 1.363 . S
C660 H663 0.929 . S
C661 C660 1.363 . S
C661 C667 1.428 . S
H662 C658 0.930 . S
H663 C660 0.929 . S
S664 N665 1.613 . S
S664 N666 1.610 1_565 S
N665 S664 1.613 . S
N665 C668 1.350 1_565 S
N666 S664 1.610 1_545 S
N666 C667 1.351 . S
C667 C661 1.428 . S
C667 N666 1.351 . S
C667 C668 1.434 . S
C668 C659 1.429 . S
C668 N665 1.350 1_545 S
C668 C667 1.434 . S
C669 C670 1.369 . S
C669 C671 1.419 . S
C669 H673 0.930 . S
C670 C669 1.369 . S
C670 C679 1.429 . S
C671 C669 1.419 . S
C671 C672 1.363 . S
C671 H674 0.929 . S
C672 C671 1.363 . S
C672 C678 1.428 . S
H673 C669 0.930 . S
H674 C671 0.929 . S
S675 N676 1.613 . S
S675 N677 1.610 . S
N676 S675 1.613 . S
N676 C679 1.350 . S
N677 S675 1.610 . S
N677 C678 1.351 . S
C678 C672 1.428 . S
C678 N677 1.351 . S
C678 C679 1.434 . S
C679 C670 1.429 . S
C679 N676 1.350 . S
C679 C678 1.434 . S
C680 C681 1.369 . S
C680 C682 1.419 . S
C680 H684 0.930 . S
C681 C680 1.369 . S
C681 C690 1.429 . S
C682 C680 1.419 . S
C682 C683 1.363 . S
C682 H685 0.929 . S
C683 C682 1.363 . S
C683 C689 1.428 . S
H684 C680 0.930 . S
H685 C682 0.929 . S
S686 N687 1.613 . S
S686 N688 1.610 1_455 S
N687 S686 1.613 . S
N687 C690 1.350 1_455 S
N688 S686 1.610 1_655 S
N688 C689 1.351 . S
C689 C683 1.428 . S
C689 N688 1.351 . S
C689 C690 1.434 . S
C690 C681 1.429 . S
C690 N687 1.350 1_655 S
C690 C689 1.434 . S
C691 C692 1.369 . S
C691 C693 1.419 . S
C691 H695 0.930 . S
C692 C691 1.369 . S
C692 C701 1.429 . S
C693 C691 1.419 . S
C693 C694 1.363 . S
C693 H696 0.929 . S
C694 C693 1.363 . S
C694 C700 1.428 . S
H695 C691 0.930 . S
H696 C693 0.929 . S
S697 N698 1.613 . S
S697 N699 1.610 . S
N698 S697 1.613 . S
N698 C701 1.350 . S
N699 S697 1.610 . S
N699 C700 1.351 . S
C700 C694 1.428 . S
C700 N699 1.351 . S
C700 C701 1.434 . S
C701 C692 1.429 . S
C701 N698 1.350 . S
C701 C700 1.434 . S
C505 C403 1.284 . S
C507 C69 1.007 . S
C516 C487 1.275 . S
C518 C153 1.020 . S
C527 C67 1.284 . S
C529 C237 1.006 . S
C538 C151 1.279 . S
C540 C321 1.013 . S
C549 C235 1.277 . S
C551 C405 1.015 . S
C560 C319 1.284 . S
C562 C489 1.005 . S
C571 C63 1.801 . S
C573 C315 1.792 . S
C582 C399 1.790 . S
C584 C147 1.799 . S
C593 C483 1.801 . S
C595 C231 1.793 . S
C604 C242 1.867 . S
C606 C494 1.866 . S
C615 C74 1.866 . S
C617 C326 1.867 . S
C626 C410 1.867 . S
C628 C158 1.863 . S
C637 C476 1.232 . S
C639 C58 1.082 . S
C648 C142 1.079 . S
C650 C56 1.231 . S
C659 C226 1.072 . S
C661 C140 1.229 . S
C670 C224 1.229 . S
C672 C310 1.088 . S
C681 C394 1.072 . S
C683 C308 1.229 . S
C692 C478 1.092 . S
C694 C392 1.228 . S
