# Generated by pormake.
# Topology umw, (4)-cn, num edge types: 1
# Building blocks:
#     Node 0, Type 0, BuildingBlock: TATPOV_clean_sbu_0, # of connection points: 4
#     Node 1, Type 0, BuildingBlock: TATPOV_clean_sbu_0, # of connection points: 4
#     Node 2, Type 0, BuildingBlock: TATPOV_clean_sbu_0, # of connection points: 4
#     Node 3, Type 0, BuildingBlock: TATPOV_clean_sbu_0, # of connection points: 4
#     Node 4, Type 0, BuildingBlock: TATPOV_clean_sbu_0, # of connection points: 4
#     Node 5, Type 0, BuildingBlock: TATPOV_clean_sbu_0, # of connection points: 4
#     Node 6, Type 0, BuildingBlock: TATPOV_clean_sbu_0, # of connection points: 4
#     Node 7, Type 0, BuildingBlock: TATPOV_clean_sbu_0, # of connection points: 4
#     Edge 8, Type (0, 0), BuildingBlock: ZUJKAS_clean_linker_0, # of connection points: 2
#     Edge 9, Type (0, 0), BuildingBlock: ZUJKAS_clean_linker_0, # of connection points: 2
#     Edge 10, Type (0, 0), BuildingBlock: ZUJKAS_clean_linker_0, # of connection points: 2
#     Edge 11, Type (0, 0), BuildingBlock: ZUJKAS_clean_linker_0, # of connection points: 2
#     Edge 12, Type (0, 0), BuildingBlock: ZUJKAS_clean_linker_0, # of connection points: 2
#     Edge 13, Type (0, 0), BuildingBlock: ZUJKAS_clean_linker_0, # of connection points: 2
#     Edge 14, Type (0, 0), BuildingBlock: ZUJKAS_clean_linker_0, # of connection points: 2
#     Edge 15, Type (0, 0), BuildingBlock: ZUJKAS_clean_linker_0, # of connection points: 2
#     Edge 16, Type (0, 0), BuildingBlock: ZUJKAS_clean_linker_0, # of connection points: 2
#     Edge 17, Type (0, 0), BuildingBlock: ZUJKAS_clean_linker_0, # of connection points: 2
#     Edge 18, Type (0, 0), BuildingBlock: ZUJKAS_clean_linker_0, # of connection points: 2
#     Edge 19, Type (0, 0), BuildingBlock: ZUJKAS_clean_linker_0, # of connection points: 2
#     Edge 20, Type (0, 0), BuildingBlock: ZUJKAS_clean_linker_0, # of connection points: 2
#     Edge 21, Type (0, 0), BuildingBlock: ZUJKAS_clean_linker_0, # of connection points: 2
#     Edge 22, Type (0, 0), BuildingBlock: ZUJKAS_clean_linker_0, # of connection points: 2
#     Edge 23, Type (0, 0), BuildingBlock: ZUJKAS_clean_linker_0, # of connection points: 2
# Relax obj value: 0.145
# Max RMSD: 0.109
# Mean RMSD: 0.109
data_MOF--net-umw--node1-TATPOV_clean_sbu_0--edge1-ZUJKAS_clean_linker_0
_symmetry_space_group_name_H-M    P1
_symmetry_Int_Tables_number       1
_symmetry_cell_setting            triclinic
loop_
_symmetry_equiv_pos_as_xyz
'x, y, z'
_cell_length_a     54.778779
_cell_length_b     54.763903
_cell_length_c     31.614905
_cell_angle_alpha  90.015028
_cell_angle_beta   89.98357
_cell_angle_gamma 89.985728
loop_
_atom_site_label
_atom_site_type_symbol
_atom_site_fract_x
_atom_site_fract_y
_atom_site_fract_z
_atom_type_partial_charge
Zn0 Zn 0.43144 0.13447 0.24919 0.0
Zn1 Zn 0.39538 0.16443 0.26986 0.0
O2 O 0.40968 0.18083 0.21592 0.0
O3 O 0.43838 0.15457 0.19788 0.0
O4 O 0.3679 0.18674 0.28754 0.0
O5 O 0.44846 0.14144 0.30438 0.0
O6 O 0.41849 0.16641 0.32108 0.0
C7 C 0.42668 0.17408 0.19093 0.0
C8 C 0.38598 0.10955 0.25224 0.0
O9 O 0.37809 0.13069 0.26249 0.0
O10 O 0.40843 0.10644 0.2446 0.0
C11 C 0.3724 0.20873 0.29782 0.0
O12 O 0.39495 0.21677 0.29532 0.0
C13 C 0.43877 0.15626 0.33013 0.0
Zn14 Zn 0.86429 0.42973 0.50187 0.0
Zn15 Zn 0.82957 0.3978 0.52398 0.0
O16 O 0.81517 0.41401 0.46995 0.0
O17 O 0.84521 0.43817 0.44997 0.0
O18 O 0.80356 0.374 0.54267 0.0
O19 O 0.85875 0.44832 0.55631 0.0
O20 O 0.83134 0.42098 0.57489 0.0
C21 C 0.82412 0.42942 0.44396 0.0
C22 C 0.88261 0.38111 0.50743 0.0
O23 O 0.86055 0.37616 0.51704 0.0
O24 O 0.88903 0.40282 0.49965 0.0
C25 C 0.8083 0.35918 0.57254 0.0
O26 O 0.83021 0.35934 0.58945 0.0
C27 C 0.84349 0.44026 0.58297 0.0
Zn28 Zn 0.56649 0.85864 0.74736 0.0
Zn29 Zn 0.60185 0.82888 0.77269 0.0
O30 O 0.58818 0.81109 0.71947 0.0
O31 O 0.56063 0.83745 0.69707 0.0
O32 O 0.62759 0.80601 0.79533 0.0
O33 O 0.54773 0.85327 0.80149 0.0
O34 O 0.57793 0.82985 0.82276 0.0
C35 C 0.572 0.81751 0.69265 0.0
C36 C 0.61281 0.88272 0.75127 0.0
O37 O 0.62029 0.86172 0.7631 0.0
O38 O 0.59047 0.88599 0.7428 0.0
C39 C 0.64937 0.80461 0.78168 0.0
O40 O 0.65613 0.81849 0.74988 0.0
C41 C 0.55734 0.83991 0.8296 0.0
Zn42 Zn 0.13691 0.57164 0.98683 0.0
Zn43 Zn 0.16768 0.60682 0.01042 0.0
O44 O 0.18483 0.59204 0.95756 0.0
O45 O 0.15818 0.56427 0.93702 0.0
O46 O 0.19064 0.63335 0.03019 0.0
O47 O 0.14166 0.55435 0.04264 0.0
O48 O 0.1669 0.58362 0.06158 0.0
C49 C 0.17818 0.5754 0.93179 0.0
C50 C 0.11381 0.61833 0.98885 0.0
O51 O 0.13492 0.6254 0.00078 0.0
O52 O 0.11011 0.59604 0.98054 0.0
C53 C 0.21001 0.62773 0.05012 0.0
O54 O 0.21521 0.60455 0.05602 0.0
C55 C 0.15584 0.56372 0.06978 0.0
Zn56 Zn 0.43547 0.85876 0.32068 0.0
Zn57 Zn 0.40064 0.82798 0.29739 0.0
O58 O 0.41573 0.81103 0.3503 0.0
O59 O 0.44274 0.83829 0.37127 0.0
O60 O 0.37502 0.80418 0.27736 0.0
O61 O 0.45351 0.85325 0.26589 0.0
O62 O 0.42363 0.82902 0.246 0.0
C63 C 0.43206 0.81804 0.3764 0.0
C64 C 0.38861 0.88172 0.31804 0.0
O65 O 0.38152 0.86043 0.3071 0.0
O66 O 0.41096 0.88563 0.32553 0.0
C67 C 0.3608 0.81013 0.2473 0.0
O68 O 0.36241 0.83217 0.23112 0.0
C69 C 0.4439 0.83952 0.23832 0.0
Zn70 Zn 0.13653 0.43575 0.55677 0.0
Zn71 Zn 0.16934 0.40253 0.53211 0.0
O72 O 0.18504 0.41703 0.58647 0.0
O73 O 0.15722 0.44361 0.60711 0.0
O74 O 0.19367 0.37738 0.51208 0.0
O75 O 0.14105 0.45365 0.50119 0.0
O76 O 0.16879 0.42663 0.48253 0.0
C77 C 0.17756 0.43314 0.61259 0.0
C78 C 0.11573 0.38823 0.55116 0.0
O79 O 0.13711 0.38264 0.53835 0.0
O80 O 0.11093 0.40993 0.56212 0.0
C81 C 0.18957 0.36646 0.4773 0.0
O82 O 0.16945 0.37155 0.45644 0.0
C83 C 0.15649 0.44582 0.47459 0.0
Zn84 Zn 0.56314 0.13493 0.81206 0.0
Zn85 Zn 0.59877 0.16568 0.79171 0.0
O86 O 0.58383 0.18202 0.84517 0.0
O87 O 0.5556 0.15521 0.86295 0.0
O88 O 0.62582 0.18855 0.77386 0.0
O89 O 0.54616 0.1412 0.75658 0.0
O90 O 0.57577 0.16663 0.74022 0.0
C91 C 0.56684 0.17499 0.86992 0.0
C92 C 0.60932 0.11113 0.81039 0.0
O93 O 0.61681 0.13241 0.80012 0.0
O94 O 0.58687 0.10753 0.81738 0.0
C95 C 0.62071 0.20857 0.75552 0.0
O96 O 0.59768 0.21451 0.75002 0.0
C97 C 0.55575 0.15609 0.73088 0.0
Zn98 Zn 0.86417 0.56891 0.068 0.0
Zn99 Zn 0.83372 0.60371 0.04361 0.0
O100 O 0.81677 0.58991 0.09764 0.0
O101 O 0.84417 0.56332 0.11979 0.0
O102 O 0.81084 0.62987 0.02234 0.0
O103 O 0.85758 0.54969 0.01481 0.0
O104 O 0.83389 0.5797 0.99353 0.0
C105 C 0.82399 0.5742 0.12469 0.0
C106 C 0.88795 0.61507 0.062 0.0
O107 O 0.8666 0.62227 0.05174 0.0
O108 O 0.89169 0.59277 0.0702 0.0
C109 C 0.81703 0.64153 0.98925 0.0
O110 O 0.83814 0.63655 0.97144 0.0
C111 C 0.84384 0.55902 0.98696 0.0
H112 H 0.42899 0.19313 0.38642 0.0
H113 H 0.44969 0.20128 0.4537 0.0
H114 H 0.49607 0.13866 0.4335 0.0
H115 H 0.47618 0.13094 0.366 0.0
H116 H 0.45217 0.17472 0.52278 0.0
H117 H 0.54611 0.18836 0.465 0.0
H118 H 0.5202 0.18782 0.42976 0.0
H119 H 0.53452 0.15974 0.44633 0.0
C120 C 0.44376 0.18125 0.39621 0.0
C121 C 0.45106 0.16148 0.37077 0.0
C122 C 0.45559 0.18595 0.43459 0.0
C123 C 0.47485 0.17094 0.44817 0.0
C124 C 0.48187 0.15102 0.42304 0.0
H125 H 0.51915 0.13 0.69409 0.0
H126 H 0.49922 0.13771 0.62658 0.0
C127 C 0.4703 0.14649 0.38457 0.0
C128 C 0.48663 0.17488 0.48985 0.0
H129 H 0.54228 0.17558 0.53826 0.0
C130 C 0.47187 0.17537 0.52612 0.0
C131 C 0.5123 0.17639 0.49431 0.0
C132 C 0.52913 0.17835 0.45667 0.0
C133 C 0.48213 0.17567 0.56676 0.0
C134 C 0.50783 0.17463 0.57118 0.0
C135 C 0.52258 0.17585 0.53493 0.0
C136 C 0.51971 0.17057 0.61274 0.0
C137 C 0.46527 0.17685 0.60445 0.0
C138 C 0.5386 0.18591 0.62675 0.0
C139 C 0.55047 0.18122 0.66509 0.0
C140 C 0.54355 0.16114 0.6901 0.0
C141 C 0.52472 0.14578 0.67584 0.0
C142 C 0.51312 0.15031 0.63738 0.0
H143 H 0.44806 0.18656 0.59644 0.0
H144 H 0.46032 0.15803 0.61421 0.0
H145 H 0.47398 0.18625 0.63166 0.0
H146 H 0.54416 0.20151 0.60802 0.0
H147 H 0.56491 0.19338 0.67523 0.0
H148 H 0.8628 0.48412 0.60678 0.0
H149 H 0.85958 0.50407 0.67559 0.0
H150 H 0.81432 0.44523 0.721 0.0
H151 H 0.81705 0.42524 0.65184 0.0
H152 H 0.79773 0.49164 0.74554 0.0
H153 H 0.89633 0.47959 0.77982 0.0
H154 H 0.89041 0.49513 0.73091 0.0
H155 H 0.88116 0.46382 0.73716 0.0
C156 C 0.85208 0.47541 0.6313 0.0
C157 C 0.84039 0.45295 0.62395 0.0
C158 C 0.85034 0.48682 0.67065 0.0
C159 C 0.83711 0.47588 0.70355 0.0
C160 C 0.82473 0.45388 0.69601 0.0
H161 H 0.85675 0.51223 0.96755 0.0
H162 H 0.8527 0.49147 0.89965 0.0
C163 C 0.82635 0.44248 0.65652 0.0
C164 C 0.83678 0.48713 0.7461 0.0
H165 H 0.87406 0.50507 0.82669 0.0
C166 C 0.81437 0.49451 0.76345 0.0
C167 C 0.8585 0.49048 0.76957 0.0
C168 C 0.88294 0.48163 0.75366 0.0
C169 C 0.81318 0.50564 0.80344 0.0
C170 C 0.83502 0.50981 0.82618 0.0
C171 C 0.85735 0.50203 0.80905 0.0
C172 C 0.83535 0.52193 0.86807 0.0
C173 C 0.78854 0.51245 0.82123 0.0
C174 C 0.82679 0.54593 0.87294 0.0
C175 C 0.82894 0.55785 0.9119 0.0
C176 C 0.84 0.54605 0.94646 0.0
C177 C 0.84824 0.52189 0.94154 0.0
C178 C 0.84592 0.50997 0.90276 0.0
H179 H 0.77359 0.50207 0.80572 0.0
H180 H 0.78776 0.50907 0.85583 0.0
H181 H 0.78522 0.53218 0.81566 0.0
H182 H 0.81908 0.5557 0.84633 0.0
H183 H 0.82255 0.5765 0.9146 0.0
H184 H 0.42603 0.81665 0.16766 0.0
H185 H 0.44549 0.81363 0.09814 0.0
H186 H 0.50863 0.85172 0.14594 0.0
H187 H 0.48922 0.85525 0.21513 0.0
H188 H 0.49174 0.8711 0.07238 0.0
H189 H 0.50147 0.77059 0.05722 0.0
H190 H 0.47095 0.78057 0.06878 0.0
H191 H 0.49479 0.78536 0.10697 0.0
C192 C 0.44416 0.82416 0.16348 0.0
C193 C 0.45606 0.83624 0.19691 0.0
C194 C 0.45531 0.82228 0.1238 0.0
C195 C 0.47862 0.83218 0.11706 0.0
C196 C 0.49066 0.84389 0.15054 0.0
H197 H 0.57455 0.81653 0.90018 0.0
H198 H 0.55496 0.81389 0.96964 0.0
C199 C 0.47951 0.8459 0.19006 0.0
C200 C 0.48992 0.83183 0.07452 0.0
H201 H 0.50983 0.79416 0.99563 0.0
C202 C 0.49576 0.85427 0.05565 0.0
C203 C 0.49536 0.80984 0.053 0.0
C204 C 0.49055 0.7852 0.07262 0.0
C205 C 0.5067 0.85537 0.01564 0.0
C206 C 0.51145 0.83342 0.99353 0.0
C207 C 0.50591 0.81094 0.01254 0.0
C208 C 0.52248 0.83358 0.95083 0.0
C209 C 0.51348 0.88001 0.99775 0.0
C210 C 0.51042 0.845 0.9171 0.0
C211 C 0.52158 0.84668 0.87752 0.0
C212 C 0.54495 0.83675 0.87084 0.0
C213 C 0.55659 0.82447 0.90431 0.0
C214 C 0.54543 0.8229 0.94399 0.0
H215 H 0.51447 0.89421 0.02279 0.0
H216 H 0.53134 0.87922 0.98119 0.0
H217 H 0.4994 0.88573 0.97456 0.0
H218 H 0.49248 0.85292 0.92156 0.0
H219 H 0.51198 0.85603 0.85233 0.0
H220 H 0.12681 0.48052 0.44013 0.0
H221 H 0.13094 0.50045 0.37151 0.0
H222 H 0.19789 0.46106 0.34881 0.0
H223 H 0.19341 0.44029 0.41693 0.0
H224 H 0.16498 0.52983 0.33948 0.0
H225 H 0.16016 0.44504 0.24354 0.0
H226 H 0.15351 0.44545 0.29938 0.0
H227 H 0.18464 0.44525 0.28122 0.0
C228 C 0.14243 0.47606 0.42057 0.0
C229 C 0.15968 0.45866 0.43381 0.0
C230 C 0.14478 0.48751 0.38135 0.0
C231 C 0.16449 0.48195 0.35468 0.0
C232 C 0.18218 0.46515 0.36836 0.0
H233 H 0.19115 0.57247 0.12931 0.0
H234 H 0.19584 0.55261 0.19823 0.0
C235 C 0.17967 0.45342 0.4074 0.0
C236 C 0.16622 0.49373 0.31255 0.0
H237 H 0.16762 0.48176 0.20662 0.0
C238 C 0.16562 0.51934 0.31039 0.0
C239 C 0.16682 0.47998 0.27464 0.0
C240 C 0.16609 0.45242 0.27463 0.0
C241 C 0.16512 0.53159 0.27142 0.0
C242 C 0.16601 0.51785 0.23353 0.0
C243 C 0.16711 0.49226 0.2357 0.0
C244 C 0.16405 0.52945 0.19128 0.0
C245 C 0.16257 0.55904 0.27132 0.0
C246 C 0.14518 0.52242 0.16385 0.0
C247 C 0.14275 0.53336 0.12425 0.0
C248 C 0.15905 0.55172 0.11131 0.0
C249 C 0.17815 0.55857 0.13857 0.0
C250 C 0.18076 0.54734 0.17806 0.0
H251 H 0.15577 0.56602 0.30215 0.0
H252 H 0.1807 0.56741 0.26539 0.0
H253 H 0.14989 0.56516 0.24606 0.0
H254 H 0.13209 0.50863 0.17333 0.0
H255 H 0.12782 0.52768 0.10404 0.0
H256 H 0.32456 0.1969 0.31262 0.0
H257 H 0.29255 0.22318 0.34179 0.0
H258 H 0.34371 0.28281 0.34996 0.0
H259 H 0.37579 0.25678 0.3206 0.0
H260 H 0.29266 0.24753 0.42083 0.0
H261 H 0.28493 0.31252 0.28674 0.0
H262 H 0.29978 0.2832 0.28185 0.0
H263 H 0.31546 0.30835 0.30625 0.0
C264 C 0.32898 0.21566 0.32032 0.0
C265 C 0.35273 0.22476 0.31413 0.0
C266 C 0.31067 0.23062 0.33707 0.0
C267 C 0.3157 0.25499 0.34758 0.0
C268 C 0.33935 0.26416 0.3414 0.0
H269 H 0.23372 0.35285 0.51064 0.0
H270 H 0.26381 0.32504 0.4797 0.0
C271 C 0.35769 0.24921 0.32477 0.0
C272 C 0.2964 0.27066 0.36615 0.0
H273 H 0.26411 0.32316 0.35003 0.0
C274 C 0.28632 0.26402 0.40532 0.0
C275 C 0.28802 0.292 0.3456 0.0
C276 C 0.29741 0.2994 0.3026 0.0
C277 C 0.26837 0.27844 0.42491 0.0
C278 C 0.26055 0.30021 0.40498 0.0
C279 C 0.2703 0.30658 0.36542 0.0
C280 C 0.24211 0.31657 0.42441 0.0
C281 C 0.25771 0.2701 0.46647 0.0
C282 C 0.22011 0.32134 0.40328 0.0
C283 C 0.20294 0.33731 0.42075 0.0
C284 C 0.2075 0.34894 0.45962 0.0
C285 C 0.22957 0.3441 0.48078 0.0
C286 C 0.24674 0.32811 0.46325 0.0
H287 H 0.26095 0.25033 0.47199 0.0
H288 H 0.26645 0.28038 0.49264 0.0
H289 H 0.23776 0.27363 0.46768 0.0
H290 H 0.21622 0.3127 0.3732 0.0
H291 H 0.18616 0.34065 0.40357 0.0
H292 H 0.81397 0.32196 0.62918 0.0
H293 H 0.78233 0.2956 0.65891 0.0
H294 H 0.72774 0.3333 0.58542 0.0
H295 H 0.75937 0.35933 0.55466 0.0
H296 H 0.74342 0.30799 0.70651 0.0
H297 H 0.71149 0.26313 0.5594 0.0
H298 H 0.73934 0.28067 0.56163 0.0
H299 H 0.71032 0.29582 0.5567 0.0
C300 C 0.79526 0.32451 0.61901 0.0
C301 C 0.78921 0.34268 0.58938 0.0
C302 C 0.77719 0.30943 0.6361 0.0
C303 C 0.7527 0.31221 0.62396 0.0
C304 C 0.74658 0.33039 0.59448 0.0
H305 H 0.61567 0.24961 0.70714 0.0
H306 H 0.64803 0.2748 0.67656 0.0
C307 C 0.76468 0.34536 0.57709 0.0
C308 C 0.7335 0.29674 0.64351 0.0
H309 H 0.68695 0.25734 0.62082 0.0
C310 C 0.73119 0.29679 0.68778 0.0
C311 C 0.71755 0.2821 0.61905 0.0
C312 C 0.71991 0.28019 0.5716 0.0
C313 C 0.71309 0.28297 0.70817 0.0
C314 C 0.697 0.26861 0.68366 0.0
C315 C 0.6993 0.26848 0.63946 0.0
C316 C 0.67756 0.25363 0.70329 0.0
C317 C 0.71097 0.28416 0.7557 0.0
C318 C 0.6835 0.23334 0.72835 0.0
C319 C 0.66505 0.21883 0.7458 0.0
C320 C 0.64033 0.22439 0.73849 0.0
C321 C 0.6345 0.24486 0.71356 0.0
C322 C 0.65295 0.25925 0.69595 0.0
H323 H 0.72145 0.2997 0.76915 0.0
H324 H 0.69157 0.28592 0.76542 0.0
H325 H 0.71823 0.26702 0.76955 0.0
H326 H 0.70241 0.22853 0.73392 0.0
H327 H 0.67017 0.20316 0.76473 0.0
H328 H 0.82582 0.67047 0.92056 0.0
H329 H 0.79792 0.69924 0.88665 0.0
H330 H 0.74248 0.68193 0.97876 0.0
H331 H 0.77043 0.65338 0.01339 0.0
H332 H 0.75338 0.68936 0.8504 0.0
H333 H 0.74276 0.75623 0.98098 0.0
H334 H 0.76663 0.7335 0.98048 0.0
H335 H 0.73612 0.72533 0.996 0.0
C336 C 0.80777 0.67291 0.93389 0.0
C337 C 0.80039 0.65967 0.9698 0.0
C338 C 0.79184 0.68936 0.9144 0.0
C339 C 0.76824 0.69298 0.93047 0.0
C340 C 0.76079 0.67983 0.96635 0.0
H341 H 0.64145 0.77491 0.84982 0.0
H342 H 0.67062 0.74779 0.88464 0.0
C343 C 0.77676 0.66341 0.98598 0.0
C344 C 0.75112 0.70974 0.90853 0.0
H345 H 0.71582 0.76053 0.92248 0.0
C346 C 0.74528 0.70501 0.86606 0.0
C347 C 0.74057 0.73013 0.92906 0.0
C348 C 0.74698 0.73679 0.97402 0.0
C349 C 0.7288 0.71985 0.84379 0.0
C350 C 0.71813 0.74013 0.8644 0.0
C351 C 0.72401 0.74492 0.90681 0.0
C352 C 0.70057 0.75646 0.84267 0.0
C353 C 0.72247 0.71336 0.79872 0.0
C354 C 0.70781 0.77047 0.80767 0.0
C355 C 0.69117 0.78602 0.78761 0.0
C356 C 0.667 0.78789 0.80233 0.0
C357 C 0.65988 0.77387 0.83754 0.0
C358 C 0.67653 0.75838 0.85757 0.0
H359 H 0.72771 0.69428 0.79087 0.0
H360 H 0.70261 0.71564 0.79287 0.0
H361 H 0.73243 0.72574 0.77695 0.0
H362 H 0.7264 0.76955 0.79611 0.0
H363 H 0.69729 0.79664 0.76074 0.0
H364 H 0.20632 0.67732 0.04019 0.0
H365 H 0.232 0.70888 0.07227 0.0
H366 H 0.27451 0.65324 0.13466 0.0
H367 H 0.24937 0.62163 0.10206 0.0
H368 H 0.23927 0.71907 0.15575 0.0
H369 H 0.32732 0.69428 0.08083 0.0
H370 H 0.2985 0.6823 0.06262 0.0
H371 H 0.31335 0.66916 0.10801 0.0
C372 C 0.22128 0.67179 0.06043 0.0
C373 C 0.22589 0.64694 0.06834 0.0
C374 C 0.23591 0.68985 0.07879 0.0
C375 C 0.25543 0.68342 0.10532 0.0
C376 C 0.25996 0.65863 0.11346 0.0
H377 H 0.35777 0.76124 0.26464 0.0
H378 H 0.33124 0.73102 0.23081 0.0
C379 C 0.24545 0.64057 0.09495 0.0
C380 C 0.27051 0.7026 0.12575 0.0
H381 H 0.32924 0.72224 0.1386 0.0
C382 C 0.25891 0.71989 0.15173 0.0
C383 C 0.29616 0.70366 0.12045 0.0
C384 C 0.30955 0.68651 0.09113 0.0
C385 C 0.27234 0.73785 0.17329 0.0
C386 C 0.29797 0.73859 0.16853 0.0
C387 C 0.30957 0.72146 0.14237 0.0
C388 C 0.31313 0.75713 0.19022 0.0
C389 C 0.25912 0.7556 0.20172 0.0
C390 C 0.31168 0.78178 0.17852 0.0
C391 C 0.32688 0.79908 0.19761 0.0
C392 C 0.34377 0.79202 0.22881 0.0
C393 C 0.34491 0.76731 0.24086 0.0
C394 C 0.32982 0.75001 0.22152 0.0
H395 H 0.24008 0.74974 0.20826 0.0
H396 H 0.26894 0.75769 0.23223 0.0
H397 H 0.25851 0.77377 0.18622 0.0
H398 H 0.2991 0.78756 0.15406 0.0
H399 H 0.32556 0.81794 0.18756 0.0
H400 H 0.39618 0.92519 0.35656 0.0
H401 H 0.37335 0.96252 0.3475 0.0
H402 H 0.31936 0.92409 0.27363 0.0
H403 H 0.34305 0.88619 0.2815 0.0
H404 H 0.33311 0.96166 0.23203 0.0
H405 H 0.31539 0.99665 0.39039 0.0
H406 H 0.34676 0.98767 0.39074 0.0
H407 H 0.3233 0.96499 0.38194 0.0
C408 C 0.37916 0.92441 0.33916 0.0
C409 C 0.37159 0.90274 0.31935 0.0
C410 C 0.36581 0.94585 0.33454 0.0
C411 C 0.34426 0.94623 0.31055 0.0
C412 C 0.3358 0.92426 0.29267 0.0
H413 H 0.34026 0.10391 0.28789 0.0
H414 H 0.31761 0.06539 0.29593 0.0
C415 C 0.34931 0.9026 0.29724 0.0
C416 C 0.33369 0.97032 0.29866 0.0
H417 H 0.33179 0.02807 0.33862 0.0
C418 C 0.33184 0.97606 0.25548 0.0
C419 C 0.33073 0.98925 0.32877 0.0
C420 C 0.32885 0.98413 0.37551 0.0
C421 C 0.33118 1.00044 0.24184 0.0
C422 C 0.33339 0.01941 0.27204 0.0
C423 C 0.33111 0.01364 0.31514 0.0
C424 C 0.3436 0.04369 0.26048 0.0
C425 C 0.32983 0.00553 0.19503 0.0
C426 C 0.36549 0.04448 0.23741 0.0
C427 C 0.37826 0.06626 0.23272 0.0
C428 C 0.36976 0.08789 0.25155 0.0
C429 C 0.34723 0.08754 0.27292 0.0
C430 C 0.33431 0.06554 0.27757 0.0
H431 H 0.31691 0.99269 0.17959 0.0
H432 H 0.3239 0.02454 0.18839 0.0
H433 H 0.34804 0.00244 0.18056 0.0
H434 H 0.37364 0.02793 0.2251 0.0
H435 H 0.39549 0.06582 0.21591 0.0
H436 H 0.903 0.35559 0.44273 0.0
H437 H 0.94302 0.33552 0.44447 0.0
H438 H 0.94715 0.34869 0.57896 0.0
H439 H 0.90681 0.36734 0.57728 0.0
H440 H 0.98027 0.36073 0.45931 0.0
H441 H 0.98423 0.28735 0.5769 0.0
H442 H 0.95547 0.29843 0.55662 0.0
H443 H 0.96987 0.31304 0.6014 0.0
C444 C 0.91197 0.35286 0.47289 0.0
C445 C 0.90184 0.36254 0.51 0.0
C446 C 0.9349 0.34156 0.47391 0.0
C447 C 0.94824 0.34032 0.51191 0.0
C448 C 0.93715 0.34855 0.54945 0.0
H449 H 0.07634 0.38668 0.60277 0.0
H450 H 0.03803 0.36533 0.58973 0.0
C451 C 0.91407 0.35939 0.54851 0.0
C452 C 0.97505 0.33573 0.51122 0.0
H453 H 0.02137 0.31364 0.57268 0.0
C454 C 0.98924 0.34963 0.48306 0.0
C455 C 0.987 0.3212 0.54199 0.0
C456 C 0.97323 0.30399 0.57053 0.0
C457 C 0.01463 0.35142 0.48765 0.0
C458 C 0.02621 0.33895 0.52125 0.0
C459 C 0.01242 0.32334 0.54711 0.0
C460 C 0.05115 0.34594 0.53462 0.0
C461 C 0.02859 0.36846 0.45891 0.0
C462 C 0.07164 0.34111 0.5092 0.0
C463 C 0.09376 0.35325 0.51681 0.0
C464 C 0.09542 0.37052 0.5496 0.0
C465 C 0.07549 0.37361 0.57708 0.0
C466 C 0.05362 0.36132 0.56978 0.0
H467 H 0.01654 0.37795 0.43591 0.0
H468 H 0.03835 0.38245 0.47793 0.0
H469 H 0.04246 0.35796 0.44091 0.0
H470 H 0.07006 0.32923 0.48194 0.0
H471 H 0.10883 0.35061 0.49509 0.0
H472 H 0.60449 0.92566 0.71147 0.0
H473 H 0.62636 0.96359 0.71996 0.0
H474 H 0.68067 0.92714 0.79614 0.0
H475 H 0.65796 0.88863 0.78879 0.0
H476 H 0.66568 0.96484 0.83631 0.0
H477 H 0.68387 0.99857 0.67733 0.0
H478 H 0.65274 0.98884 0.6765 0.0
H479 H 0.67667 0.96682 0.68658 0.0
C480 C 0.62138 0.92544 0.72929 0.0
C481 C 0.62931 0.90414 0.74988 0.0
C482 C 0.63419 0.94723 0.73358 0.0
C483 C 0.65555 0.94834 0.75803 0.0
C484 C 0.66438 0.92675 0.77673 0.0
H485 H 0.65548 0.10629 0.77608 0.0
H486 H 0.67915 0.06826 0.7697 0.0
C487 C 0.65142 0.90474 0.77248 0.0
C488 C 0.66546 0.97279 0.76941 0.0
H489 H 0.66628 0.03013 0.72771 0.0
C490 C 0.6668 0.97902 0.81245 0.0
C491 C 0.66821 0.99146 0.73879 0.0
C492 C 0.6706 0.98589 0.69227 0.0
C493 C 0.66675 0.00355 0.82534 0.0
C494 C 0.66432 0.02214 0.7945 0.0
C495 C 0.66712 0.01597 0.75164 0.0
C496 C 0.65338 0.04627 0.80504 0.0
C497 C 0.66755 0.00916 0.87201 0.0
C498 C 0.63127 0.04672 0.82747 0.0
C499 C 0.61791 0.06821 0.83119 0.0
C500 C 0.62604 0.08988 0.81203 0.0
C501 C 0.64877 0.08989 0.79129 0.0
C502 C 0.66229 0.06817 0.78759 0.0
H503 H 0.68065 0.99681 0.88819 0.0
H504 H 0.67296 0.02837 0.8782 0.0
H505 H 0.6493 0.00579 0.8861 0.0
H506 H 0.62342 0.03009 0.84001 0.0
H507 H 0.60054 0.06751 0.84754 0.0
H508 H 0.93246 0.60681 0.09634 0.0
H509 H 0.96947 0.62994 0.08592 0.0
H510 H 0.92929 0.68495 0.01728 0.0
H511 H 0.89167 0.661 0.02652 0.0
H512 H 0.96649 0.6724 0.97307 0.0
H513 H 0.00334 0.68761 0.1309 0.0
H514 H 0.99461 0.65617 0.12989 0.0
H515 H 0.97165 0.67961 0.12323 0.0
C516 C 0.93124 0.62407 0.07976 0.0
C517 C 0.90911 0.63192 0.0619 0.0
C518 C 0.95251 0.63758 0.07437 0.0
C519 C 0.95227 0.65958 0.05157 0.0
C520 C 0.92993 0.66819 0.03542 0.0
H521 H 0.10901 0.6637 0.02609 0.0
H522 H 0.0709 0.68685 0.03498 0.0
C523 C 0.90845 0.65452 0.04075 0.0
C524 C 0.97603 0.67067 0.03927 0.0
H525 H 0.03419 0.67243 0.07709 0.0
C526 C 0.98118 0.67338 0.996 0.0
C527 C 0.99529 0.67332 0.06877 0.0
C528 C 0.99075 0.67432 0.11578 0.0
C529 C 0.00537 0.67455 0.98145 0.0
C530 C 0.02474 0.67192 0.01077 0.0
C531 C 0.01949 0.67342 0.05419 0.0
C532 C 0.0489 0.66194 0.99783 0.0
C533 C 0.00984 0.6769 0.93458 0.0
C534 C 0.04946 0.6406 0.97321 0.0
C535 C 0.07105 0.62757 0.96795 0.0
C536 C 0.09268 0.63522 0.98778 0.0
C537 C 0.09264 0.65736 0.01036 0.0
C538 C 0.07085 0.67057 0.01551 0.0
H539 H 0.99689 0.69027 0.92059 0.0
H540 H 0.02878 0.68285 0.92752 0.0
H541 H 0.00638 0.65907 0.91901 0.0
H542 H 0.03284 0.63292 0.96035 0.0
H543 H 0.07041 0.61067 0.95017 0.0
H544 H 0.55544 0.15847 0.94749 0.0
H545 H 0.53292 0.1801 0.00231 0.0
H546 H 0.53616 0.24635 0.92873 0.0
H547 H 0.55921 0.22451 0.87331 0.0
H548 H 0.53986 0.22579 0.05068 0.0
H549 H 0.46179 0.22685 0.93743 0.0
H550 H 0.48788 0.20759 0.92743 0.0
H551 H 0.49074 0.24012 0.92309 0.0
C552 C 0.55202 0.17783 0.94355 0.0
C553 C 0.55891 0.18983 0.90624 0.0
C554 C 0.5392 0.1902 0.97491 0.0
C555 C 0.53268 0.21475 0.96939 0.0
C556 C 0.54098 0.22737 0.93345 0.0
H557 H 0.43345 0.22371 0.18741 0.0
H558 H 0.45601 0.24585 0.1318 0.0
C559 C 0.55423 0.21496 0.90205 0.0
C560 C 0.51445 0.22518 -0.0011 0.0
H561 H 0.45251 0.22514 0.00977 0.0
C562 C 0.52076 0.22687 0.0418 0.0
C563 C 0.48959 0.22662 0.98704 0.0
C564 C 0.48188 0.22524 0.94129 0.0
C565 C 0.50276 0.22675 0.07341 0.0
C566 C 0.47791 0.22493 0.06156 0.0
C567 C 0.47158 0.2265 0.01866 0.0
C568 C 0.45985 0.21429 0.09112 0.0
C569 C 0.5105 0.2255 0.11916 0.0
C570 C 0.45365 0.18965 0.08563 0.0
C571 C 0.4411 0.17711 0.1171 0.0
C572 C 0.43416 0.18902 0.15447 0.0
C573 C 0.43846 0.21422 0.15861 0.0
C574 C 0.45145 0.22681 0.1271 0.0
H575 H 0.53057 0.22735 0.123 0.0
H576 H 0.50148 0.24031 0.13733 0.0
H577 H 0.50471 0.20781 0.13308 0.0
H578 H 0.46001 0.17963 0.05818 0.0
H579 H 0.43796 0.1577 0.1132 0.0
H580 H 0.8394 0.56633 0.20425 0.0
H581 H 0.81821 0.54342 0.25902 0.0
H582 H 0.75342 0.54105 0.18154 0.0
H583 H 0.77487 0.56432 0.12607 0.0
H584 H 0.77306 0.54637 0.30562 0.0
H585 H 0.7764 0.46885 0.19112 0.0
H586 H 0.79338 0.49647 0.18127 0.0
H587 H 0.76072 0.49658 0.1771 0.0
C588 C 0.82038 0.56166 0.19945 0.0
C589 C 0.80879 0.5669 0.16097 0.0
C590 C 0.80824 0.54859 0.23079 0.0
C591 C 0.78436 0.54021 0.22411 0.0
C592 C 0.77193 0.54719 0.18713 0.0
H593 H 0.77471 0.43797 0.4392 0.0
H594 H 0.75369 0.46197 0.38415 0.0
C595 C 0.78409 0.56062 0.15569 0.0
C596 C 0.7748 0.52133 0.25332 0.0
H597 H 0.77647 0.4593 0.2631 0.0
C598 C 0.77268 0.5273 0.29634 0.0
C599 C 0.77429 0.49648 0.24099 0.0
C600 C 0.77633 0.489 0.19518 0.0
C601 C 0.77311 0.5091 0.32763 0.0
C602 C 0.77558 0.48438 0.31535 0.0
C603 C 0.77461 0.47829 0.27229 0.0
C604 C 0.78584 0.46614 0.34502 0.0
C605 C 0.7738 0.51657 0.37355 0.0
C606 C 0.81047 0.45974 0.34023 0.0
C607 C 0.82239 0.44633 0.37136 0.0
C608 C 0.80988 0.43876 0.40781 0.0
C609 C 0.78471 0.4435 0.41124 0.0
C610 C 0.77276 0.45731 0.38005 0.0
H611 H 0.77181 0.53662 0.37773 0.0
H612 H 0.75882 0.50737 0.39101 0.0
H613 H 0.79134 0.51076 0.38799 0.0
H614 H 0.82092 0.46639 0.31348 0.0
H615 H 0.84175 0.44282 0.36781 0.0
H616 H 0.5631 0.83193 0.61291 0.0
H617 H 0.54099 0.80936 0.55885 0.0
H618 H 0.54139 0.74516 0.63794 0.0
H619 H 0.56386 0.76802 0.69273 0.0
H620 H 0.54599 0.76397 0.51341 0.0
H621 H 0.46825 0.76466 0.62751 0.0
H622 H 0.49501 0.78296 0.63742 0.0
H623 H 0.49669 0.75033 0.64163 0.0
C624 C 0.55918 0.81277 0.61825 0.0
C625 C 0.56498 0.80172 0.65696 0.0
C626 C 0.54659 0.79985 0.5873 0.0
C627 C 0.53924 0.77568 0.59459 0.0
C628 C 0.54674 0.76386 0.63187 0.0
H629 H 0.43937 0.76837 0.37766 0.0
H630 H 0.46213 0.74555 0.43218 0.0
C631 C 0.5597 0.77684 0.66293 0.0
C632 C 0.52082 0.76511 0.56554 0.0
H633 H 0.45883 0.76558 0.55543 0.0
C634 C 0.52692 0.76314 0.52256 0.0
C635 C 0.49598 0.7639 0.57772 0.0
C636 C 0.48838 0.76556 0.62352 0.0
C637 C 0.50879 0.76343 0.49116 0.0
C638 C 0.48402 0.76556 0.50332 0.0
C639 C 0.47786 0.76404 0.54631 0.0
C640 C 0.46595 0.77656 0.47412 0.0
C641 C 0.51639 0.76454 0.44532 0.0
C642 C 0.45963 0.80109 0.48066 0.0
C643 C 0.44692 0.814 0.44986 0.0
C644 C 0.43997 0.8026 0.41202 0.0
C645 C 0.44443 0.77748 0.40677 0.0
C646 C 0.45754 0.76452 0.43767 0.0
H647 H 0.53644 0.76263 0.44127 0.0
H648 H 0.50728 0.74971 0.42738 0.0
H649 H 0.5106 0.78221 0.43132 0.0
H650 H 0.46597 0.81076 0.5085 0.0
H651 H 0.44363 0.83331 0.4547 0.0
H652 H 0.22624 0.56188 0.93331 0.0
H653 H 0.2476 0.53882 0.87748 0.0
H654 H 0.18534 0.54795 0.79543 0.0
H655 H 0.16411 0.57036 0.85085 0.0
H656 H 0.22747 0.4951 0.84958 0.0
H657 H 0.24175 0.55522 0.71242 0.0
H658 H 0.23855 0.56694 0.76565 0.0
H659 H 0.21194 0.56027 0.73412 0.0
C660 C 0.21767 0.55976 0.90266 0.0
C661 C 0.19365 0.5679 0.89606 0.0
C662 C 0.2298 0.54654 0.87093 0.0
C663 C 0.21821 0.54194 0.83206 0.0
C664 C 0.19492 0.55175 0.82467 0.0
H665 H 0.16216 0.44045 0.69241 0.0
H666 H 0.18338 0.46261 0.74812 0.0
C667 C 0.18272 0.56446 0.85643 0.0
C668 C 0.22765 0.52337 0.80209 0.0
H669 H 0.22873 0.51297 0.69585 0.0
C670 C 0.22879 0.49905 0.81603 0.0
C671 C 0.22991 0.5284 0.75842 0.0
C672 C 0.23074 0.5542 0.74189 0.0
C673 C 0.22861 0.47963 0.78705 0.0
C674 C 0.22706 0.48476 0.74333 0.0
C675 C 0.22948 0.50899 0.72944 0.0
C676 C 0.21714 0.4666 0.71311 0.0
C677 C 0.22801 0.45382 0.80357 0.0
C678 C 0.22919 0.46101 0.67506 0.0
C679 C 0.21706 0.44794 0.64317 0.0
C680 C 0.19258 0.44097 0.64872 0.0
C681 C 0.18108 0.44549 0.68757 0.0
C682 C 0.19328 0.45804 0.71951 0.0
H683 H 0.23842 0.4523 0.83361 0.0
H684 H 0.20882 0.44859 0.8103 0.0
H685 H 0.23566 0.44075 0.78019 0.0
H686 H 0.24748 0.46777 0.66929 0.0
H687 H 0.22614 0.44495 0.61317 0.0
loop_
_geom_bond_atom_site_label_1
_geom_bond_atom_site_label_2
_geom_bond_distance
_geom_bond_site_symmetry_2
_ccdc_geom_bond_type
Zn0 O3 2.031 . S
Zn0 O5 2.049 . S
Zn0 O10 2.067 . S
Zn1 O2 1.962 . S
Zn1 O4 1.986 . S
Zn1 O6 1.996 . S
Zn1 O9 1.943 . S
O2 Zn1 1.962 . S
O2 C7 1.254 . S
O3 Zn0 2.031 . S
O3 C7 1.269 . S
O4 Zn1 1.986 . S
O4 C11 1.262 . S
O5 Zn0 2.049 . S
O5 C13 1.260 . S
O6 Zn1 1.996 . S
O6 C13 1.257 . S
C7 O2 1.254 . S
C7 O3 1.269 . S
C8 O9 1.249 . S
C8 O10 1.270 . S
O9 Zn1 1.943 . S
O9 C8 1.249 . S
O10 Zn0 2.067 . S
O10 C8 1.270 . S
C11 O4 1.262 . S
C11 O12 1.232 . S
O12 C11 1.232 . S
C13 O5 1.260 . S
C13 O6 1.257 . S
Zn14 O17 2.031 . S
Zn14 O19 2.049 . S
Zn14 O24 2.067 . S
Zn15 O16 1.962 . S
Zn15 O18 1.986 . S
Zn15 O20 1.996 . S
Zn15 O23 1.943 . S
O16 Zn15 1.962 . S
O16 C21 1.254 . S
O17 Zn14 2.031 . S
O17 C21 1.269 . S
O18 Zn15 1.986 . S
O18 C25 1.262 . S
O19 Zn14 2.049 . S
O19 C27 1.260 . S
O20 Zn15 1.996 . S
O20 C27 1.257 . S
C21 O16 1.254 . S
C21 O17 1.269 . S
C22 O23 1.249 . S
C22 O24 1.270 . S
O23 Zn15 1.943 . S
O23 C22 1.249 . S
O24 Zn14 2.067 . S
O24 C22 1.270 . S
C25 O18 1.262 . S
C25 O26 1.232 . S
O26 C25 1.232 . S
C27 O19 1.260 . S
C27 O20 1.257 . S
Zn28 O31 2.031 . S
Zn28 O33 2.049 . S
Zn28 O38 2.067 . S
Zn29 O30 1.962 . S
Zn29 O32 1.986 . S
Zn29 O34 1.996 . S
Zn29 O37 1.943 . S
O30 Zn29 1.962 . S
O30 C35 1.254 . S
O31 Zn28 2.031 . S
O31 C35 1.269 . S
O32 Zn29 1.986 . S
O32 C39 1.262 . S
O33 Zn28 2.049 . S
O33 C41 1.260 . S
O34 Zn29 1.996 . S
O34 C41 1.257 . S
C35 O30 1.254 . S
C35 O31 1.269 . S
C36 O37 1.249 . S
C36 O38 1.270 . S
O37 Zn29 1.943 . S
O37 C36 1.249 . S
O38 Zn28 2.067 . S
O38 C36 1.270 . S
C39 O32 1.262 . S
C39 O40 1.232 . S
O40 C39 1.232 . S
C41 O33 1.260 . S
C41 O34 1.257 . S
Zn42 O45 2.031 1_554 S
Zn42 O47 2.049 . S
Zn42 O52 2.067 . S
Zn43 O44 1.962 1_554 S
Zn43 O46 1.986 . S
Zn43 O48 1.996 . S
Zn43 O51 1.943 . S
O44 Zn43 1.962 1_556 S
O44 C49 1.254 . S
O45 Zn42 2.031 1_556 S
O45 C49 1.269 . S
O46 Zn43 1.986 . S
O46 C53 1.262 . S
O47 Zn42 2.049 . S
O47 C55 1.260 . S
O48 Zn43 1.996 . S
O48 C55 1.257 . S
C49 O44 1.254 . S
C49 O45 1.269 . S
C50 O51 1.249 . S
C50 O52 1.270 . S
O51 Zn43 1.943 . S
O51 C50 1.249 . S
O52 Zn42 2.067 . S
O52 C50 1.270 . S
C53 O46 1.262 . S
C53 O54 1.232 . S
O54 C53 1.232 . S
C55 O47 1.260 . S
C55 O48 1.257 . S
Zn56 O59 2.031 . S
Zn56 O61 2.049 . S
Zn56 O66 2.067 . S
Zn57 O58 1.962 . S
Zn57 O60 1.986 . S
Zn57 O62 1.996 . S
Zn57 O65 1.943 . S
O58 Zn57 1.962 . S
O58 C63 1.254 . S
O59 Zn56 2.031 . S
O59 C63 1.269 . S
O60 Zn57 1.986 . S
O60 C67 1.262 . S
O61 Zn56 2.049 . S
O61 C69 1.260 . S
O62 Zn57 1.996 . S
O62 C69 1.257 . S
C63 O58 1.254 . S
C63 O59 1.269 . S
C64 O65 1.249 . S
C64 O66 1.270 . S
O65 Zn57 1.943 . S
O65 C64 1.249 . S
O66 Zn56 2.067 . S
O66 C64 1.270 . S
C67 O60 1.262 . S
C67 O68 1.232 . S
O68 C67 1.232 . S
C69 O61 1.260 . S
C69 O62 1.257 . S
Zn70 O73 2.031 . S
Zn70 O75 2.049 . S
Zn70 O80 2.067 . S
Zn71 O72 1.962 . S
Zn71 O74 1.986 . S
Zn71 O76 1.996 . S
Zn71 O79 1.943 . S
O72 Zn71 1.962 . S
O72 C77 1.254 . S
O73 Zn70 2.031 . S
O73 C77 1.269 . S
O74 Zn71 1.986 . S
O74 C81 1.262 . S
O75 Zn70 2.049 . S
O75 C83 1.260 . S
O76 Zn71 1.996 . S
O76 C83 1.257 . S
C77 O72 1.254 . S
C77 O73 1.269 . S
C78 O79 1.249 . S
C78 O80 1.270 . S
O79 Zn71 1.943 . S
O79 C78 1.249 . S
O80 Zn70 2.067 . S
O80 C78 1.270 . S
C81 O74 1.262 . S
C81 O82 1.232 . S
O82 C81 1.232 . S
C83 O75 1.260 . S
C83 O76 1.257 . S
Zn84 O87 2.031 . S
Zn84 O89 2.049 . S
Zn84 O94 2.067 . S
Zn85 O86 1.962 . S
Zn85 O88 1.986 . S
Zn85 O90 1.996 . S
Zn85 O93 1.943 . S
O86 Zn85 1.962 . S
O86 C91 1.254 . S
O87 Zn84 2.031 . S
O87 C91 1.269 . S
O88 Zn85 1.986 . S
O88 C95 1.262 . S
O89 Zn84 2.049 . S
O89 C97 1.260 . S
O90 Zn85 1.996 . S
O90 C97 1.257 . S
C91 O86 1.254 . S
C91 O87 1.269 . S
C92 O93 1.249 . S
C92 O94 1.270 . S
O93 Zn85 1.943 . S
O93 C92 1.249 . S
O94 Zn84 2.067 . S
O94 C92 1.270 . S
C95 O88 1.262 . S
C95 O96 1.232 . S
O96 C95 1.232 . S
C97 O89 1.260 . S
C97 O90 1.257 . S
Zn98 O101 2.031 . S
Zn98 O103 2.049 1_554 S
Zn98 O108 2.067 . S
Zn99 O100 1.962 . S
Zn99 O102 1.986 1_554 S
Zn99 O104 1.996 1_554 S
Zn99 O107 1.943 . S
O100 Zn99 1.962 . S
O100 C105 1.254 . S
O101 Zn98 2.031 . S
O101 C105 1.269 . S
O102 Zn99 1.986 1_556 S
O102 C109 1.262 1_556 S
O103 Zn98 2.049 1_556 S
O103 C111 1.260 . S
O104 Zn99 1.996 1_556 S
O104 C111 1.257 . S
C105 O100 1.254 . S
C105 O101 1.269 . S
C106 O107 1.249 . S
C106 O108 1.270 . S
O107 Zn99 1.943 . S
O107 C106 1.249 . S
O108 Zn98 2.067 . S
O108 C106 1.270 . S
C109 O102 1.262 1_554 S
C109 O110 1.232 . S
O110 C109 1.232 . S
C111 O103 1.260 . S
C111 O104 1.257 . S
H112 C120 0.929 . S
H113 C122 0.930 . S
H114 C124 0.930 . S
H115 C127 0.929 . S
H116 C130 0.930 . S
H117 C132 0.960 . S
H118 C132 0.960 . S
H119 C132 0.960 . S
C120 H112 0.929 . S
C120 C121 1.377 . S
C120 C122 1.384 . S
C121 C120 1.377 . S
C121 C127 1.390 . S
C122 H113 0.930 . S
C122 C120 1.384 . S
C122 C123 1.372 . S
C123 C122 1.372 . S
C123 C124 1.400 . S
C123 C128 1.490 . S
C124 H114 0.930 . S
C124 C123 1.400 . S
C124 C127 1.386 . S
H125 C141 0.930 . S
H126 C142 0.931 . S
C127 H115 0.929 . S
C127 C121 1.390 . S
C127 C124 1.386 . S
C128 C123 1.490 . S
C128 C130 1.395 . S
C128 C131 1.403 . S
H129 C135 0.930 . S
C130 H116 0.930 . S
C130 C128 1.395 . S
C130 C133 1.403 . S
C131 C128 1.403 . S
C131 C132 1.524 . S
C131 C135 1.400 . S
C132 H117 0.960 . S
C132 H118 0.960 . S
C132 H119 0.960 . S
C132 C131 1.524 . S
C133 C130 1.403 . S
C133 C134 1.392 . S
C133 C137 1.495 . S
C134 C133 1.392 . S
C134 C135 1.385 . S
C134 C136 1.478 . S
C135 H129 0.930 . S
C135 C131 1.400 . S
C135 C134 1.385 . S
C136 C134 1.478 . S
C136 C138 1.381 . S
C136 C142 1.383 . S
C137 C133 1.495 . S
C137 H143 0.959 . S
C137 H144 0.961 . S
C137 H145 0.960 . S
C138 C136 1.381 . S
C138 C139 1.394 . S
C138 H146 0.930 . S
C139 C138 1.394 . S
C139 C140 1.383 . S
C139 H147 0.929 . S
C140 C139 1.383 . S
C140 C141 1.377 . S
C141 H125 0.930 . S
C141 C140 1.377 . S
C141 C142 1.379 . S
C142 H126 0.931 . S
C142 C136 1.383 . S
C142 C141 1.379 . S
H143 C137 0.959 . S
H144 C137 0.961 . S
H145 C137 0.960 . S
H146 C138 0.930 . S
H147 C139 0.929 . S
H148 C156 0.929 . S
H149 C158 0.930 . S
H150 C160 0.930 . S
H151 C163 0.929 . S
H152 C166 0.930 . S
H153 C168 0.960 . S
H154 C168 0.960 . S
H155 C168 0.960 . S
C156 H148 0.929 . S
C156 C157 1.377 . S
C156 C158 1.384 . S
C157 C156 1.377 . S
C157 C163 1.390 . S
C158 H149 0.930 . S
C158 C156 1.384 . S
C158 C159 1.372 . S
C159 C158 1.372 . S
C159 C160 1.400 . S
C159 C164 1.490 . S
C160 H150 0.930 . S
C160 C159 1.400 . S
C160 C163 1.386 . S
H161 C177 0.930 . S
H162 C178 0.931 . S
C163 H151 0.929 . S
C163 C157 1.390 . S
C163 C160 1.386 . S
C164 C159 1.490 . S
C164 C166 1.395 . S
C164 C167 1.403 . S
H165 C171 0.930 . S
C166 H152 0.930 . S
C166 C164 1.395 . S
C166 C169 1.403 . S
C167 C164 1.403 . S
C167 C168 1.524 . S
C167 C171 1.400 . S
C168 H153 0.960 . S
C168 H154 0.960 . S
C168 H155 0.960 . S
C168 C167 1.524 . S
C169 C166 1.403 . S
C169 C170 1.392 . S
C169 C173 1.495 . S
C170 C169 1.392 . S
C170 C171 1.385 . S
C170 C172 1.478 . S
C171 H165 0.930 . S
C171 C167 1.400 . S
C171 C170 1.385 . S
C172 C170 1.478 . S
C172 C174 1.381 . S
C172 C178 1.383 . S
C173 C169 1.495 . S
C173 H179 0.959 . S
C173 H180 0.961 . S
C173 H181 0.960 . S
C174 C172 1.381 . S
C174 C175 1.394 . S
C174 H182 0.930 . S
C175 C174 1.394 . S
C175 C176 1.383 . S
C175 H183 0.929 . S
C176 C175 1.383 . S
C176 C177 1.377 . S
C177 H161 0.930 . S
C177 C176 1.377 . S
C177 C178 1.379 . S
C178 H162 0.931 . S
C178 C172 1.383 . S
C178 C177 1.379 . S
H179 C173 0.959 . S
H180 C173 0.961 . S
H181 C173 0.960 . S
H182 C174 0.930 . S
H183 C175 0.929 . S
H184 C192 0.929 . S
H185 C194 0.930 . S
H186 C196 0.930 . S
H187 C199 0.929 . S
H188 C202 0.930 . S
H189 C204 0.960 . S
H190 C204 0.960 . S
H191 C204 0.960 . S
C192 H184 0.929 . S
C192 C193 1.377 . S
C192 C194 1.384 . S
C193 C192 1.377 . S
C193 C199 1.390 . S
C194 H185 0.930 . S
C194 C192 1.384 . S
C194 C195 1.372 . S
C195 C194 1.372 . S
C195 C196 1.400 . S
C195 C200 1.490 . S
C196 H186 0.930 . S
C196 C195 1.400 . S
C196 C199 1.386 . S
H197 C213 0.930 . S
H198 C214 0.931 . S
C199 H187 0.929 . S
C199 C193 1.390 . S
C199 C196 1.386 . S
C200 C195 1.490 . S
C200 C202 1.395 . S
C200 C203 1.403 . S
H201 C207 0.930 1_556 S
C202 H188 0.930 . S
C202 C200 1.395 . S
C202 C205 1.403 . S
C203 C200 1.403 . S
C203 C204 1.524 . S
C203 C207 1.400 . S
C204 H189 0.960 . S
C204 H190 0.960 . S
C204 H191 0.960 . S
C204 C203 1.524 . S
C205 C202 1.403 . S
C205 C206 1.392 1_554 S
C205 C209 1.495 . S
C206 C205 1.392 1_556 S
C206 C207 1.385 1_556 S
C206 C208 1.478 . S
C207 H201 0.930 1_554 S
C207 C203 1.400 . S
C207 C206 1.385 1_554 S
C208 C206 1.478 . S
C208 C210 1.381 . S
C208 C214 1.383 . S
C209 C205 1.495 . S
C209 H215 0.959 . S
C209 H216 0.961 . S
C209 H217 0.960 1_554 S
C210 C208 1.381 . S
C210 C211 1.394 . S
C210 H218 0.930 . S
C211 C210 1.394 . S
C211 C212 1.383 . S
C211 H219 0.929 . S
C212 C211 1.383 . S
C212 C213 1.377 . S
C213 H197 0.930 . S
C213 C212 1.377 . S
C213 C214 1.379 . S
C214 H198 0.931 . S
C214 C208 1.383 . S
C214 C213 1.379 . S
H215 C209 0.959 . S
H216 C209 0.961 . S
H217 C209 0.960 1_556 S
H218 C210 0.930 . S
H219 C211 0.929 . S
H220 C228 0.929 . S
H221 C230 0.930 . S
H222 C232 0.930 . S
H223 C235 0.929 . S
H224 C238 0.930 . S
H225 C240 0.960 . S
H226 C240 0.960 . S
H227 C240 0.960 . S
C228 H220 0.929 . S
C228 C229 1.377 . S
C228 C230 1.384 . S
C229 C228 1.377 . S
C229 C235 1.390 . S
C230 H221 0.930 . S
C230 C228 1.384 . S
C230 C231 1.372 . S
C231 C230 1.372 . S
C231 C232 1.400 . S
C231 C236 1.490 . S
C232 H222 0.930 . S
C232 C231 1.400 . S
C232 C235 1.386 . S
H233 C249 0.930 . S
H234 C250 0.931 . S
C235 H223 0.929 . S
C235 C229 1.390 . S
C235 C232 1.386 . S
C236 C231 1.490 . S
C236 C238 1.395 . S
C236 C239 1.403 . S
H237 C243 0.930 . S
C238 H224 0.930 . S
C238 C236 1.395 . S
C238 C241 1.403 . S
C239 C236 1.403 . S
C239 C240 1.524 . S
C239 C243 1.400 . S
C240 H225 0.960 . S
C240 H226 0.960 . S
C240 H227 0.960 . S
C240 C239 1.524 . S
C241 C238 1.403 . S
C241 C242 1.392 . S
C241 C245 1.495 . S
C242 C241 1.392 . S
C242 C243 1.385 . S
C242 C244 1.478 . S
C243 H237 0.930 . S
C243 C239 1.400 . S
C243 C242 1.385 . S
C244 C242 1.478 . S
C244 C246 1.381 . S
C244 C250 1.383 . S
C245 C241 1.495 . S
C245 H251 0.959 . S
C245 H252 0.961 . S
C245 H253 0.960 . S
C246 C244 1.381 . S
C246 C247 1.394 . S
C246 H254 0.930 . S
C247 C246 1.394 . S
C247 C248 1.383 . S
C247 H255 0.929 . S
C248 C247 1.383 . S
C248 C249 1.377 . S
C249 H233 0.930 . S
C249 C248 1.377 . S
C249 C250 1.379 . S
C250 H234 0.931 . S
C250 C244 1.383 . S
C250 C249 1.379 . S
H251 C245 0.959 . S
H252 C245 0.961 . S
H253 C245 0.960 . S
H254 C246 0.930 . S
H255 C247 0.929 . S
H256 C264 0.929 . S
H257 C266 0.930 . S
H258 C268 0.930 . S
H259 C271 0.929 . S
H260 C274 0.930 . S
H261 C276 0.960 . S
H262 C276 0.960 . S
H263 C276 0.960 . S
C264 H256 0.929 . S
C264 C265 1.377 . S
C264 C266 1.384 . S
C265 C264 1.377 . S
C265 C271 1.390 . S
C266 H257 0.930 . S
C266 C264 1.384 . S
C266 C267 1.372 . S
C267 C266 1.372 . S
C267 C268 1.400 . S
C267 C272 1.490 . S
C268 H258 0.930 . S
C268 C267 1.400 . S
C268 C271 1.386 . S
H269 C285 0.930 . S
H270 C286 0.931 . S
C271 H259 0.929 . S
C271 C265 1.390 . S
C271 C268 1.386 . S
C272 C267 1.490 . S
C272 C274 1.395 . S
C272 C275 1.403 . S
H273 C279 0.930 . S
C274 H260 0.930 . S
C274 C272 1.395 . S
C274 C277 1.403 . S
C275 C272 1.403 . S
C275 C276 1.524 . S
C275 C279 1.400 . S
C276 H261 0.960 . S
C276 H262 0.960 . S
C276 H263 0.960 . S
C276 C275 1.524 . S
C277 C274 1.403 . S
C277 C278 1.392 . S
C277 C281 1.495 . S
C278 C277 1.392 . S
C278 C279 1.385 . S
C278 C280 1.478 . S
C279 H273 0.930 . S
C279 C275 1.400 . S
C279 C278 1.385 . S
C280 C278 1.478 . S
C280 C282 1.381 . S
C280 C286 1.383 . S
C281 C277 1.495 . S
C281 H287 0.959 . S
C281 H288 0.961 . S
C281 H289 0.960 . S
C282 C280 1.381 . S
C282 C283 1.394 . S
C282 H290 0.930 . S
C283 C282 1.394 . S
C283 C284 1.383 . S
C283 H291 0.929 . S
C284 C283 1.383 . S
C284 C285 1.377 . S
C285 H269 0.930 . S
C285 C284 1.377 . S
C285 C286 1.379 . S
C286 H270 0.931 . S
C286 C280 1.383 . S
C286 C285 1.379 . S
H287 C281 0.959 . S
H288 C281 0.961 . S
H289 C281 0.960 . S
H290 C282 0.930 . S
H291 C283 0.929 . S
H292 C300 0.929 . S
H293 C302 0.930 . S
H294 C304 0.930 . S
H295 C307 0.929 . S
H296 C310 0.930 . S
H297 C312 0.960 . S
H298 C312 0.960 . S
H299 C312 0.960 . S
C300 H292 0.929 . S
C300 C301 1.377 . S
C300 C302 1.384 . S
C301 C300 1.377 . S
C301 C307 1.390 . S
C302 H293 0.930 . S
C302 C300 1.384 . S
C302 C303 1.372 . S
C303 C302 1.372 . S
C303 C304 1.400 . S
C303 C308 1.490 . S
C304 H294 0.930 . S
C304 C303 1.400 . S
C304 C307 1.386 . S
H305 C321 0.930 . S
H306 C322 0.931 . S
C307 H295 0.929 . S
C307 C301 1.390 . S
C307 C304 1.386 . S
C308 C303 1.490 . S
C308 C310 1.395 . S
C308 C311 1.403 . S
H309 C315 0.930 . S
C310 H296 0.930 . S
C310 C308 1.395 . S
C310 C313 1.403 . S
C311 C308 1.403 . S
C311 C312 1.524 . S
C311 C315 1.400 . S
C312 H297 0.960 . S
C312 H298 0.960 . S
C312 H299 0.960 . S
C312 C311 1.524 . S
C313 C310 1.403 . S
C313 C314 1.392 . S
C313 C317 1.495 . S
C314 C313 1.392 . S
C314 C315 1.385 . S
C314 C316 1.478 . S
C315 H309 0.930 . S
C315 C311 1.400 . S
C315 C314 1.385 . S
C316 C314 1.478 . S
C316 C318 1.381 . S
C316 C322 1.383 . S
C317 C313 1.495 . S
C317 H323 0.959 . S
C317 H324 0.961 . S
C317 H325 0.960 . S
C318 C316 1.381 . S
C318 C319 1.394 . S
C318 H326 0.930 . S
C319 C318 1.394 . S
C319 C320 1.383 . S
C319 H327 0.929 . S
C320 C319 1.383 . S
C320 C321 1.377 . S
C321 H305 0.930 . S
C321 C320 1.377 . S
C321 C322 1.379 . S
C322 H306 0.931 . S
C322 C316 1.383 . S
C322 C321 1.379 . S
H323 C317 0.959 . S
H324 C317 0.961 . S
H325 C317 0.960 . S
H326 C318 0.930 . S
H327 C319 0.929 . S
H328 C336 0.929 . S
H329 C338 0.930 . S
H330 C340 0.930 . S
H331 C343 0.929 . S
H332 C346 0.930 . S
H333 C348 0.960 . S
H334 C348 0.960 1_554 S
H335 C348 0.960 . S
C336 H328 0.929 . S
C336 C337 1.377 . S
C336 C338 1.384 . S
C337 C336 1.377 . S
C337 C343 1.390 . S
C338 H329 0.930 . S
C338 C336 1.384 . S
C338 C339 1.372 . S
C339 C338 1.372 . S
C339 C340 1.400 . S
C339 C344 1.490 . S
C340 H330 0.930 . S
C340 C339 1.400 . S
C340 C343 1.386 . S
H341 C357 0.930 . S
H342 C358 0.931 . S
C343 H331 0.929 . S
C343 C337 1.390 . S
C343 C340 1.386 . S
C344 C339 1.490 . S
C344 C346 1.395 . S
C344 C347 1.403 . S
H345 C351 0.930 . S
C346 H332 0.930 . S
C346 C344 1.395 . S
C346 C349 1.403 . S
C347 C344 1.403 . S
C347 C348 1.524 . S
C347 C351 1.400 . S
C348 H333 0.960 . S
C348 H334 0.960 1_556 S
C348 H335 0.960 . S
C348 C347 1.524 . S
C349 C346 1.403 . S
C349 C350 1.392 . S
C349 C353 1.495 . S
C350 C349 1.392 . S
C350 C351 1.385 . S
C350 C352 1.478 . S
C351 H345 0.930 . S
C351 C347 1.400 . S
C351 C350 1.385 . S
C352 C350 1.478 . S
C352 C354 1.381 . S
C352 C358 1.383 . S
C353 C349 1.495 . S
C353 H359 0.959 . S
C353 H360 0.961 . S
C353 H361 0.960 . S
C354 C352 1.381 . S
C354 C355 1.394 . S
C354 H362 0.930 . S
C355 C354 1.394 . S
C355 C356 1.383 . S
C355 H363 0.929 . S
C356 C355 1.383 . S
C356 C357 1.377 . S
C357 H341 0.930 . S
C357 C356 1.377 . S
C357 C358 1.379 . S
C358 H342 0.931 . S
C358 C352 1.383 . S
C358 C357 1.379 . S
H359 C353 0.959 . S
H360 C353 0.961 . S
H361 C353 0.960 . S
H362 C354 0.930 . S
H363 C355 0.929 . S
H364 C372 0.929 . S
H365 C374 0.930 . S
H366 C376 0.930 . S
H367 C379 0.929 . S
H368 C382 0.930 . S
H369 C384 0.960 . S
H370 C384 0.960 . S
H371 C384 0.960 . S
C372 H364 0.929 . S
C372 C373 1.377 . S
C372 C374 1.384 . S
C373 C372 1.377 . S
C373 C379 1.390 . S
C374 H365 0.930 . S
C374 C372 1.384 . S
C374 C375 1.372 . S
C375 C374 1.372 . S
C375 C376 1.400 . S
C375 C380 1.490 . S
C376 H366 0.930 . S
C376 C375 1.400 . S
C376 C379 1.386 . S
H377 C393 0.930 . S
H378 C394 0.931 . S
C379 H367 0.929 . S
C379 C373 1.390 . S
C379 C376 1.386 . S
C380 C375 1.490 . S
C380 C382 1.395 . S
C380 C383 1.403 . S
H381 C387 0.930 . S
C382 H368 0.930 . S
C382 C380 1.395 . S
C382 C385 1.403 . S
C383 C380 1.403 . S
C383 C384 1.524 . S
C383 C387 1.400 . S
C384 H369 0.960 . S
C384 H370 0.960 . S
C384 H371 0.960 . S
C384 C383 1.524 . S
C385 C382 1.403 . S
C385 C386 1.392 . S
C385 C389 1.495 . S
C386 C385 1.392 . S
C386 C387 1.385 . S
C386 C388 1.478 . S
C387 H381 0.930 . S
C387 C383 1.400 . S
C387 C386 1.385 . S
C388 C386 1.478 . S
C388 C390 1.381 . S
C388 C394 1.383 . S
C389 C385 1.495 . S
C389 H395 0.959 . S
C389 H396 0.961 . S
C389 H397 0.960 . S
C390 C388 1.381 . S
C390 C391 1.394 . S
C390 H398 0.930 . S
C391 C390 1.394 . S
C391 C392 1.383 . S
C391 H399 0.929 . S
C392 C391 1.383 . S
C392 C393 1.377 . S
C393 H377 0.930 . S
C393 C392 1.377 . S
C393 C394 1.379 . S
C394 H378 0.931 . S
C394 C388 1.383 . S
C394 C393 1.379 . S
H395 C389 0.959 . S
H396 C389 0.961 . S
H397 C389 0.960 . S
H398 C390 0.930 . S
H399 C391 0.929 . S
H400 C408 0.929 . S
H401 C410 0.930 . S
H402 C412 0.930 . S
H403 C415 0.929 . S
H404 C418 0.930 . S
H405 C420 0.960 . S
H406 C420 0.960 . S
H407 C420 0.960 . S
C408 H400 0.929 . S
C408 C409 1.377 . S
C408 C410 1.384 . S
C409 C408 1.377 . S
C409 C415 1.390 . S
C410 H401 0.930 . S
C410 C408 1.384 . S
C410 C411 1.372 . S
C411 C410 1.372 . S
C411 C412 1.400 . S
C411 C416 1.490 . S
C412 H402 0.930 . S
C412 C411 1.400 . S
C412 C415 1.386 . S
H413 C429 0.930 . S
H414 C430 0.931 . S
C415 H403 0.929 . S
C415 C409 1.390 . S
C415 C412 1.386 . S
C416 C411 1.490 . S
C416 C418 1.395 . S
C416 C419 1.403 . S
H417 C423 0.930 . S
C418 H404 0.930 . S
C418 C416 1.395 . S
C418 C421 1.403 1_565 S
C419 C416 1.403 . S
C419 C420 1.524 . S
C419 C423 1.400 1_565 S
C420 H405 0.960 . S
C420 H406 0.960 . S
C420 H407 0.960 . S
C420 C419 1.524 . S
C421 C418 1.403 1_545 S
C421 C422 1.392 . S
C421 C425 1.495 . S
C422 C421 1.392 . S
C422 C423 1.385 . S
C422 C424 1.478 . S
C423 H417 0.930 . S
C423 C419 1.400 1_545 S
C423 C422 1.385 . S
C424 C422 1.478 . S
C424 C426 1.381 . S
C424 C430 1.383 . S
C425 C421 1.495 . S
C425 H431 0.959 . S
C425 H432 0.961 . S
C425 H433 0.960 . S
C426 C424 1.381 . S
C426 C427 1.394 . S
C426 H434 0.930 . S
C427 C426 1.394 . S
C427 C428 1.383 . S
C427 H435 0.929 . S
C428 C427 1.383 . S
C428 C429 1.377 . S
C429 H413 0.930 . S
C429 C428 1.377 . S
C429 C430 1.379 . S
C430 H414 0.931 . S
C430 C424 1.383 . S
C430 C429 1.379 . S
H431 C425 0.959 . S
H432 C425 0.961 . S
H433 C425 0.960 . S
H434 C426 0.930 . S
H435 C427 0.929 . S
H436 C444 0.929 . S
H437 C446 0.930 . S
H438 C448 0.930 . S
H439 C451 0.929 . S
H440 C454 0.930 . S
H441 C456 0.960 . S
H442 C456 0.960 . S
H443 C456 0.960 . S
C444 H436 0.929 . S
C444 C445 1.377 . S
C444 C446 1.384 . S
C445 C444 1.377 . S
C445 C451 1.390 . S
C446 H437 0.930 . S
C446 C444 1.384 . S
C446 C447 1.372 . S
C447 C446 1.372 . S
C447 C448 1.400 . S
C447 C452 1.490 . S
C448 H438 0.930 . S
C448 C447 1.400 . S
C448 C451 1.386 . S
H449 C465 0.930 . S
H450 C466 0.931 . S
C451 H439 0.929 . S
C451 C445 1.390 . S
C451 C448 1.386 . S
C452 C447 1.490 . S
C452 C454 1.395 . S
C452 C455 1.403 . S
H453 C459 0.930 . S
C454 H440 0.930 . S
C454 C452 1.395 . S
C454 C457 1.403 1_655 S
C455 C452 1.403 . S
C455 C456 1.524 . S
C455 C459 1.400 1_655 S
C456 H441 0.960 . S
C456 H442 0.960 . S
C456 H443 0.960 . S
C456 C455 1.524 . S
C457 C454 1.403 1_455 S
C457 C458 1.392 . S
C457 C461 1.495 . S
C458 C457 1.392 . S
C458 C459 1.385 . S
C458 C460 1.478 . S
C459 H453 0.930 . S
C459 C455 1.400 1_455 S
C459 C458 1.385 . S
C460 C458 1.478 . S
C460 C462 1.381 . S
C460 C466 1.383 . S
C461 C457 1.495 . S
C461 H467 0.959 . S
C461 H468 0.961 . S
C461 H469 0.960 . S
C462 C460 1.381 . S
C462 C463 1.394 . S
C462 H470 0.930 . S
C463 C462 1.394 . S
C463 C464 1.383 . S
C463 H471 0.929 . S
C464 C463 1.383 . S
C464 C465 1.377 . S
C465 H449 0.930 . S
C465 C464 1.377 . S
C465 C466 1.379 . S
C466 H450 0.931 . S
C466 C460 1.383 . S
C466 C465 1.379 . S
H467 C461 0.959 . S
H468 C461 0.961 . S
H469 C461 0.960 . S
H470 C462 0.930 . S
H471 C463 0.929 . S
H472 C480 0.929 . S
H473 C482 0.930 . S
H474 C484 0.930 . S
H475 C487 0.929 . S
H476 C490 0.930 . S
H477 C492 0.960 . S
H478 C492 0.960 . S
H479 C492 0.960 . S
C480 H472 0.929 . S
C480 C481 1.377 . S
C480 C482 1.384 . S
C481 C480 1.377 . S
C481 C487 1.390 . S
C482 H473 0.930 . S
C482 C480 1.384 . S
C482 C483 1.372 . S
C483 C482 1.372 . S
C483 C484 1.400 . S
C483 C488 1.490 . S
C484 H474 0.930 . S
C484 C483 1.400 . S
C484 C487 1.386 . S
H485 C501 0.930 . S
H486 C502 0.931 . S
C487 H475 0.929 . S
C487 C481 1.390 . S
C487 C484 1.386 . S
C488 C483 1.490 . S
C488 C490 1.395 . S
C488 C491 1.403 . S
H489 C495 0.930 . S
C490 H476 0.930 . S
C490 C488 1.395 . S
C490 C493 1.403 1_565 S
C491 C488 1.403 . S
C491 C492 1.524 . S
C491 C495 1.400 1_565 S
C492 H477 0.960 . S
C492 H478 0.960 . S
C492 H479 0.960 . S
C492 C491 1.524 . S
C493 C490 1.403 1_545 S
C493 C494 1.392 . S
C493 C497 1.495 . S
C494 C493 1.392 . S
C494 C495 1.385 . S
C494 C496 1.478 . S
C495 H489 0.930 . S
C495 C491 1.400 1_545 S
C495 C494 1.385 . S
C496 C494 1.478 . S
C496 C498 1.381 . S
C496 C502 1.383 . S
C497 C493 1.495 . S
C497 H503 0.959 . S
C497 H504 0.961 . S
C497 H505 0.960 . S
C498 C496 1.381 . S
C498 C499 1.394 . S
C498 H506 0.930 . S
C499 C498 1.394 . S
C499 C500 1.383 . S
C499 H507 0.929 . S
C500 C499 1.383 . S
C500 C501 1.377 . S
C501 H485 0.930 . S
C501 C500 1.377 . S
C501 C502 1.379 . S
C502 H486 0.931 . S
C502 C496 1.383 . S
C502 C501 1.379 . S
H503 C497 0.959 . S
H504 C497 0.961 . S
H505 C497 0.960 . S
H506 C498 0.930 . S
H507 C499 0.929 . S
H508 C516 0.916 1_556 S
H509 C518 0.930 1_556 S
H510 C520 0.930 . S
H511 C523 0.929 . S
H512 C526 0.930 . S
H513 C528 0.960 . S
H514 C528 0.960 . S
H515 C528 0.960 . S
C516 H508 0.916 1_554 S
C516 C517 1.391 . S
C516 C518 1.384 . S
C517 C516 1.391 . S
C517 C523 1.390 . S
C518 H509 0.930 1_554 S
C518 C516 1.384 . S
C518 C519 1.372 . S
C519 C518 1.372 . S
C519 C520 1.400 . S
C519 C524 1.490 . S
C520 H510 0.930 . S
C520 C519 1.400 . S
C520 C523 1.386 . S
H521 C537 0.930 . S
H522 C538 0.931 . S
C523 H511 0.929 . S
C523 C517 1.390 . S
C523 C520 1.386 . S
C524 C519 1.490 . S
C524 C526 1.395 1_554 S
C524 C527 1.403 . S
H525 C531 0.930 . S
C526 H512 0.930 . S
C526 C524 1.395 1_556 S
C526 C529 1.403 1_655 S
C527 C524 1.403 . S
C527 C528 1.524 . S
C527 C531 1.400 1_655 S
C528 H513 0.960 . S
C528 H514 0.960 . S
C528 H515 0.960 . S
C528 C527 1.524 . S
C529 C526 1.403 1_455 S
C529 C530 1.392 1_556 S
C529 C533 1.495 . S
C530 C529 1.392 1_554 S
C530 C531 1.385 . S
C530 C532 1.478 . S
C531 H525 0.930 . S
C531 C527 1.400 1_455 S
C531 C530 1.385 . S
C532 C530 1.478 . S
C532 C534 1.381 . S
C532 C538 1.383 . S
C533 C529 1.495 . S
C533 H539 0.959 . S
C533 H540 0.961 . S
C533 H541 0.960 . S
C534 C532 1.381 . S
C534 C535 1.394 . S
C534 H542 0.930 1_554 S
C535 C534 1.394 . S
C535 C536 1.383 . S
C535 H543 0.929 1_554 S
C536 C535 1.383 . S
C536 C537 1.377 . S
C537 H521 0.930 . S
C537 C536 1.377 . S
C537 C538 1.379 . S
C538 H522 0.931 . S
C538 C532 1.383 . S
C538 C537 1.379 . S
H539 C533 0.959 . S
H540 C533 0.961 . S
H541 C533 0.960 . S
H542 C534 0.930 1_556 S
H543 C535 0.929 1_556 S
H544 C552 0.929 . S
H545 C554 0.930 . S
H546 C556 0.930 . S
H547 C559 0.929 . S
H548 C562 0.930 . S
H549 C564 0.960 . S
H550 C564 0.960 . S
H551 C564 0.960 . S
C552 H544 0.929 . S
C552 C553 1.377 . S
C552 C554 1.384 . S
C553 C552 1.377 . S
C553 C559 1.390 . S
C554 H545 0.930 . S
C554 C552 1.384 . S
C554 C555 1.372 . S
C555 C554 1.372 . S
C555 C556 1.400 . S
C555 C560 1.490 . S
C556 H546 0.930 . S
C556 C555 1.400 . S
C556 C559 1.386 . S
H557 C573 0.930 . S
H558 C574 0.931 . S
C559 H547 0.929 . S
C559 C553 1.390 . S
C559 C556 1.386 . S
C560 C555 1.490 . S
C560 C562 1.395 1_556 S
C560 C563 1.403 . S
H561 C567 0.930 . S
C562 H548 0.930 . S
C562 C560 1.395 1_554 S
C562 C565 1.403 . S
C563 C560 1.403 . S
C563 C564 1.524 . S
C563 C567 1.400 1_556 S
C564 H549 0.960 . S
C564 H550 0.960 . S
C564 H551 0.960 . S
C564 C563 1.524 . S
C565 C562 1.403 . S
C565 C566 1.392 . S
C565 C569 1.495 . S
C566 C565 1.392 . S
C566 C567 1.385 . S
C566 C568 1.478 . S
C567 H561 0.930 . S
C567 C563 1.400 1_554 S
C567 C566 1.385 . S
C568 C566 1.478 . S
C568 C570 1.381 . S
C568 C574 1.383 . S
C569 C565 1.495 . S
C569 H575 0.959 . S
C569 H576 0.961 . S
C569 H577 0.960 . S
C570 C568 1.381 . S
C570 C571 1.394 . S
C570 H578 0.930 . S
C571 C570 1.394 . S
C571 C572 1.383 . S
C571 H579 0.929 . S
C572 C571 1.383 . S
C572 C573 1.377 . S
C573 H557 0.930 . S
C573 C572 1.377 . S
C573 C574 1.379 . S
C574 H558 0.931 . S
C574 C568 1.383 . S
C574 C573 1.379 . S
H575 C569 0.959 . S
H576 C569 0.961 . S
H577 C569 0.960 . S
H578 C570 0.930 . S
H579 C571 0.929 . S
H580 C588 0.929 . S
H581 C590 0.930 . S
H582 C592 0.930 . S
H583 C595 0.929 . S
H584 C598 0.930 . S
H585 C600 0.960 . S
H586 C600 0.960 . S
H587 C600 0.960 . S
C588 H580 0.929 . S
C588 C589 1.377 . S
C588 C590 1.384 . S
C589 C588 1.377 . S
C589 C595 1.390 . S
C590 H581 0.930 . S
C590 C588 1.384 . S
C590 C591 1.372 . S
C591 C590 1.372 . S
C591 C592 1.400 . S
C591 C596 1.490 . S
C592 H582 0.930 . S
C592 C591 1.400 . S
C592 C595 1.386 . S
H593 C609 0.930 . S
H594 C610 0.931 . S
C595 H583 0.929 . S
C595 C589 1.390 . S
C595 C592 1.386 . S
C596 C591 1.490 . S
C596 C598 1.395 . S
C596 C599 1.403 . S
H597 C603 0.930 . S
C598 H584 0.930 . S
C598 C596 1.395 . S
C598 C601 1.403 . S
C599 C596 1.403 . S
C599 C600 1.524 . S
C599 C603 1.400 . S
C600 H585 0.960 . S
C600 H586 0.960 . S
C600 H587 0.960 . S
C600 C599 1.524 . S
C601 C598 1.403 . S
C601 C602 1.392 . S
C601 C605 1.495 . S
C602 C601 1.392 . S
C602 C603 1.385 . S
C602 C604 1.478 . S
C603 H597 0.930 . S
C603 C599 1.400 . S
C603 C602 1.385 . S
C604 C602 1.478 . S
C604 C606 1.381 . S
C604 C610 1.383 . S
C605 C601 1.495 . S
C605 H611 0.959 . S
C605 H612 0.961 . S
C605 H613 0.960 . S
C606 C604 1.381 . S
C606 C607 1.394 . S
C606 H614 0.930 . S
C607 C606 1.394 . S
C607 C608 1.383 . S
C607 H615 0.929 . S
C608 C607 1.383 . S
C608 C609 1.377 . S
C609 H593 0.930 . S
C609 C608 1.377 . S
C609 C610 1.379 . S
C610 H594 0.931 . S
C610 C604 1.383 . S
C610 C609 1.379 . S
H611 C605 0.959 . S
H612 C605 0.961 . S
H613 C605 0.960 . S
H614 C606 0.930 . S
H615 C607 0.929 . S
H616 C624 0.929 . S
H617 C626 0.930 . S
H618 C628 0.930 . S
H619 C631 0.929 . S
H620 C634 0.930 . S
H621 C636 0.960 . S
H622 C636 0.960 . S
H623 C636 0.960 . S
C624 H616 0.929 . S
C624 C625 1.377 . S
C624 C626 1.384 . S
C625 C624 1.377 . S
C625 C631 1.390 . S
C626 H617 0.930 . S
C626 C624 1.384 . S
C626 C627 1.372 . S
C627 C626 1.372 . S
C627 C628 1.400 . S
C627 C632 1.490 . S
C628 H618 0.930 . S
C628 C627 1.400 . S
C628 C631 1.386 . S
H629 C645 0.930 . S
H630 C646 0.931 . S
C631 H619 0.929 . S
C631 C625 1.390 . S
C631 C628 1.386 . S
C632 C627 1.490 . S
C632 C634 1.395 . S
C632 C635 1.403 . S
H633 C639 0.930 . S
C634 H620 0.930 . S
C634 C632 1.395 . S
C634 C637 1.403 . S
C635 C632 1.403 . S
C635 C636 1.524 . S
C635 C639 1.400 . S
C636 H621 0.960 . S
C636 H622 0.960 . S
C636 H623 0.960 . S
C636 C635 1.524 . S
C637 C634 1.403 . S
C637 C638 1.392 . S
C637 C641 1.495 . S
C638 C637 1.392 . S
C638 C639 1.385 . S
C638 C640 1.478 . S
C639 H633 0.930 . S
C639 C635 1.400 . S
C639 C638 1.385 . S
C640 C638 1.478 . S
C640 C642 1.381 . S
C640 C646 1.383 . S
C641 C637 1.495 . S
C641 H647 0.959 . S
C641 H648 0.961 . S
C641 H649 0.960 . S
C642 C640 1.381 . S
C642 C643 1.394 . S
C642 H650 0.930 . S
C643 C642 1.394 . S
C643 C644 1.383 . S
C643 H651 0.929 . S
C644 C643 1.383 . S
C644 C645 1.377 . S
C645 H629 0.930 . S
C645 C644 1.377 . S
C645 C646 1.379 . S
C646 H630 0.931 . S
C646 C640 1.383 . S
C646 C645 1.379 . S
H647 C641 0.959 . S
H648 C641 0.961 . S
H649 C641 0.960 . S
H650 C642 0.930 . S
H651 C643 0.929 . S
H652 C660 0.929 . S
H653 C662 0.930 . S
H654 C664 0.930 . S
H655 C667 0.929 . S
H656 C670 0.930 . S
H657 C672 0.960 . S
H658 C672 0.960 . S
H659 C672 0.960 . S
C660 H652 0.929 . S
C660 C661 1.377 . S
C660 C662 1.384 . S
C661 C660 1.377 . S
C661 C667 1.390 . S
C662 H653 0.930 . S
C662 C660 1.384 . S
C662 C663 1.372 . S
C663 C662 1.372 . S
C663 C664 1.400 . S
C663 C668 1.490 . S
C664 H654 0.930 . S
C664 C663 1.400 . S
C664 C667 1.386 . S
H665 C681 0.930 . S
H666 C682 0.931 . S
C667 H655 0.929 . S
C667 C661 1.390 . S
C667 C664 1.386 . S
C668 C663 1.490 . S
C668 C670 1.395 . S
C668 C671 1.403 . S
H669 C675 0.930 . S
C670 H656 0.930 . S
C670 C668 1.395 . S
C670 C673 1.403 . S
C671 C668 1.403 . S
C671 C672 1.524 . S
C671 C675 1.400 . S
C672 H657 0.960 . S
C672 H658 0.960 . S
C672 H659 0.960 . S
C672 C671 1.524 . S
C673 C670 1.403 . S
C673 C674 1.392 . S
C673 C677 1.495 . S
C674 C673 1.392 . S
C674 C675 1.385 . S
C674 C676 1.478 . S
C675 H669 0.930 . S
C675 C671 1.400 . S
C675 C674 1.385 . S
C676 C674 1.478 . S
C676 C678 1.381 . S
C676 C682 1.383 . S
C677 C673 1.495 . S
C677 H683 0.959 . S
C677 H684 0.961 . S
C677 H685 0.960 . S
C678 C676 1.381 . S
C678 C679 1.394 . S
C678 H686 0.930 . S
C679 C678 1.394 . S
C679 C680 1.383 . S
C679 H687 0.929 . S
C680 C679 1.383 . S
C680 C681 1.377 . S
C681 H665 0.930 . S
C681 C680 1.377 . S
C681 C682 1.379 . S
C682 H666 0.931 . S
C682 C676 1.383 . S
C682 C681 1.379 . S
H683 C677 0.959 . S
H684 C677 0.961 . S
H685 C677 0.960 . S
H686 C678 0.930 . S
H687 C679 0.929 . S
C121 C13 0.744 . S
C140 C97 0.681 . S
C157 C27 0.735 . S
C176 C111 0.806 . S
C193 C69 0.754 . S
C212 C41 0.731 . S
C229 C83 0.739 . S
C248 C55 0.799 . S
C265 C11 1.276 . S
C284 C81 1.271 . S
C301 C25 1.276 . S
C320 C95 1.282 . S
C337 C109 1.278 1_556 S
C356 C39 1.286 . S
C373 C53 1.277 . S
C392 C67 1.273 . S
C409 C64 1.158 . S
C428 C8 1.184 . S
C445 C22 1.170 . S
C464 C78 1.131 . S
C481 C36 1.163 . S
C500 C92 1.161 . S
C517 C106 1.157 . S
C536 C50 1.190 . S
C553 C91 1.656 . S
C572 C7 1.638 . S
C589 C105 1.657 . S
C608 C21 1.638 . S
C625 C35 1.656 . S
C644 C63 1.637 . S
C661 C49 1.660 . S
C680 C77 1.656 . S
