# Generated by pormake.
# Topology upd, (4)-cn, num edge types: 1
# Building blocks:
#     Node 0, Type 0, BuildingBlock: NAWXER_clean_sbu_0, # of connection points: 4
#     Node 1, Type 0, BuildingBlock: NAWXER_clean_sbu_0, # of connection points: 4
#     Node 2, Type 0, BuildingBlock: NAWXER_clean_sbu_0, # of connection points: 4
#     Node 3, Type 0, BuildingBlock: NAWXER_clean_sbu_0, # of connection points: 4
#     Node 4, Type 0, BuildingBlock: NAWXER_clean_sbu_0, # of connection points: 4
#     Node 5, Type 0, BuildingBlock: NAWXER_clean_sbu_0, # of connection points: 4
#     Node 6, Type 0, BuildingBlock: NAWXER_clean_sbu_0, # of connection points: 4
#     Node 7, Type 0, BuildingBlock: NAWXER_clean_sbu_0, # of connection points: 4
#     Node 8, Type 0, BuildingBlock: NAWXER_clean_sbu_0, # of connection points: 4
#     Node 9, Type 0, BuildingBlock: NAWXER_clean_sbu_0, # of connection points: 4
#     Node 10, Type 0, BuildingBlock: NAWXER_clean_sbu_0, # of connection points: 4
#     Node 11, Type 0, BuildingBlock: NAWXER_clean_sbu_0, # of connection points: 4
#     Node 12, Type 0, BuildingBlock: NAWXER_clean_sbu_0, # of connection points: 4
#     Node 13, Type 0, BuildingBlock: NAWXER_clean_sbu_0, # of connection points: 4
#     Node 14, Type 0, BuildingBlock: NAWXER_clean_sbu_0, # of connection points: 4
#     Node 15, Type 0, BuildingBlock: NAWXER_clean_sbu_0, # of connection points: 4
#     Node 16, Type 0, BuildingBlock: NAWXER_clean_sbu_0, # of connection points: 4
#     Node 17, Type 0, BuildingBlock: NAWXER_clean_sbu_0, # of connection points: 4
#     Node 18, Type 0, BuildingBlock: NAWXER_clean_sbu_0, # of connection points: 4
#     Node 19, Type 0, BuildingBlock: NAWXER_clean_sbu_0, # of connection points: 4
#     Node 20, Type 0, BuildingBlock: NAWXER_clean_sbu_0, # of connection points: 4
#     Node 21, Type 0, BuildingBlock: NAWXER_clean_sbu_0, # of connection points: 4
#     Node 22, Type 0, BuildingBlock: NAWXER_clean_sbu_0, # of connection points: 4
#     Node 23, Type 0, BuildingBlock: NAWXER_clean_sbu_0, # of connection points: 4
#     Node 24, Type 0, BuildingBlock: NAWXER_clean_sbu_0, # of connection points: 4
#     Node 25, Type 0, BuildingBlock: NAWXER_clean_sbu_0, # of connection points: 4
#     Node 26, Type 0, BuildingBlock: NAWXER_clean_sbu_0, # of connection points: 4
#     Node 27, Type 0, BuildingBlock: NAWXER_clean_sbu_0, # of connection points: 4
#     Node 28, Type 0, BuildingBlock: NAWXER_clean_sbu_0, # of connection points: 4
#     Node 29, Type 0, BuildingBlock: NAWXER_clean_sbu_0, # of connection points: 4
#     Node 30, Type 0, BuildingBlock: NAWXER_clean_sbu_0, # of connection points: 4
#     Node 31, Type 0, BuildingBlock: NAWXER_clean_sbu_0, # of connection points: 4
#     Edge 32, Type (0, 0), BuildingBlock: UVAHIK_clean_linker_0, # of connection points: 2
#     Edge 33, Type (0, 0), BuildingBlock: UVAHIK_clean_linker_0, # of connection points: 2
#     Edge 34, Type (0, 0), BuildingBlock: UVAHIK_clean_linker_0, # of connection points: 2
#     Edge 35, Type (0, 0), BuildingBlock: UVAHIK_clean_linker_0, # of connection points: 2
#     Edge 36, Type (0, 0), BuildingBlock: UVAHIK_clean_linker_0, # of connection points: 2
#     Edge 37, Type (0, 0), BuildingBlock: UVAHIK_clean_linker_0, # of connection points: 2
#     Edge 38, Type (0, 0), BuildingBlock: UVAHIK_clean_linker_0, # of connection points: 2
#     Edge 39, Type (0, 0), BuildingBlock: UVAHIK_clean_linker_0, # of connection points: 2
#     Edge 40, Type (0, 0), BuildingBlock: UVAHIK_clean_linker_0, # of connection points: 2
#     Edge 41, Type (0, 0), BuildingBlock: UVAHIK_clean_linker_0, # of connection points: 2
#     Edge 42, Type (0, 0), BuildingBlock: UVAHIK_clean_linker_0, # of connection points: 2
#     Edge 43, Type (0, 0), BuildingBlock: UVAHIK_clean_linker_0, # of connection points: 2
#     Edge 44, Type (0, 0), BuildingBlock: UVAHIK_clean_linker_0, # of connection points: 2
#     Edge 45, Type (0, 0), BuildingBlock: UVAHIK_clean_linker_0, # of connection points: 2
#     Edge 46, Type (0, 0), BuildingBlock: UVAHIK_clean_linker_0, # of connection points: 2
#     Edge 47, Type (0, 0), BuildingBlock: UVAHIK_clean_linker_0, # of connection points: 2
#     Edge 48, Type (0, 0), BuildingBlock: UVAHIK_clean_linker_0, # of connection points: 2
#     Edge 49, Type (0, 0), BuildingBlock: UVAHIK_clean_linker_0, # of connection points: 2
#     Edge 50, Type (0, 0), BuildingBlock: UVAHIK_clean_linker_0, # of connection points: 2
#     Edge 51, Type (0, 0), BuildingBlock: UVAHIK_clean_linker_0, # of connection points: 2
#     Edge 52, Type (0, 0), BuildingBlock: UVAHIK_clean_linker_0, # of connection points: 2
#     Edge 53, Type (0, 0), BuildingBlock: UVAHIK_clean_linker_0, # of connection points: 2
#     Edge 54, Type (0, 0), BuildingBlock: UVAHIK_clean_linker_0, # of connection points: 2
#     Edge 55, Type (0, 0), BuildingBlock: UVAHIK_clean_linker_0, # of connection points: 2
#     Edge 56, Type (0, 0), BuildingBlock: UVAHIK_clean_linker_0, # of connection points: 2
#     Edge 57, Type (0, 0), BuildingBlock: UVAHIK_clean_linker_0, # of connection points: 2
#     Edge 58, Type (0, 0), BuildingBlock: UVAHIK_clean_linker_0, # of connection points: 2
#     Edge 59, Type (0, 0), BuildingBlock: UVAHIK_clean_linker_0, # of connection points: 2
#     Edge 60, Type (0, 0), BuildingBlock: UVAHIK_clean_linker_0, # of connection points: 2
#     Edge 61, Type (0, 0), BuildingBlock: UVAHIK_clean_linker_0, # of connection points: 2
#     Edge 62, Type (0, 0), BuildingBlock: UVAHIK_clean_linker_0, # of connection points: 2
#     Edge 63, Type (0, 0), BuildingBlock: UVAHIK_clean_linker_0, # of connection points: 2
#     Edge 64, Type (0, 0), BuildingBlock: UVAHIK_clean_linker_0, # of connection points: 2
#     Edge 65, Type (0, 0), BuildingBlock: UVAHIK_clean_linker_0, # of connection points: 2
#     Edge 66, Type (0, 0), BuildingBlock: UVAHIK_clean_linker_0, # of connection points: 2
#     Edge 67, Type (0, 0), BuildingBlock: UVAHIK_clean_linker_0, # of connection points: 2
#     Edge 68, Type (0, 0), BuildingBlock: UVAHIK_clean_linker_0, # of connection points: 2
#     Edge 69, Type (0, 0), BuildingBlock: UVAHIK_clean_linker_0, # of connection points: 2
#     Edge 70, Type (0, 0), BuildingBlock: UVAHIK_clean_linker_0, # of connection points: 2
#     Edge 71, Type (0, 0), BuildingBlock: UVAHIK_clean_linker_0, # of connection points: 2
#     Edge 72, Type (0, 0), BuildingBlock: UVAHIK_clean_linker_0, # of connection points: 2
#     Edge 73, Type (0, 0), BuildingBlock: UVAHIK_clean_linker_0, # of connection points: 2
#     Edge 74, Type (0, 0), BuildingBlock: UVAHIK_clean_linker_0, # of connection points: 2
#     Edge 75, Type (0, 0), BuildingBlock: UVAHIK_clean_linker_0, # of connection points: 2
#     Edge 76, Type (0, 0), BuildingBlock: UVAHIK_clean_linker_0, # of connection points: 2
#     Edge 77, Type (0, 0), BuildingBlock: UVAHIK_clean_linker_0, # of connection points: 2
#     Edge 78, Type (0, 0), BuildingBlock: UVAHIK_clean_linker_0, # of connection points: 2
#     Edge 79, Type (0, 0), BuildingBlock: UVAHIK_clean_linker_0, # of connection points: 2
#     Edge 80, Type (0, 0), BuildingBlock: UVAHIK_clean_linker_0, # of connection points: 2
#     Edge 81, Type (0, 0), BuildingBlock: UVAHIK_clean_linker_0, # of connection points: 2
#     Edge 82, Type (0, 0), BuildingBlock: UVAHIK_clean_linker_0, # of connection points: 2
#     Edge 83, Type (0, 0), BuildingBlock: UVAHIK_clean_linker_0, # of connection points: 2
#     Edge 84, Type (0, 0), BuildingBlock: UVAHIK_clean_linker_0, # of connection points: 2
#     Edge 85, Type (0, 0), BuildingBlock: UVAHIK_clean_linker_0, # of connection points: 2
#     Edge 86, Type (0, 0), BuildingBlock: UVAHIK_clean_linker_0, # of connection points: 2
#     Edge 87, Type (0, 0), BuildingBlock: UVAHIK_clean_linker_0, # of connection points: 2
#     Edge 88, Type (0, 0), BuildingBlock: UVAHIK_clean_linker_0, # of connection points: 2
#     Edge 89, Type (0, 0), BuildingBlock: UVAHIK_clean_linker_0, # of connection points: 2
#     Edge 90, Type (0, 0), BuildingBlock: UVAHIK_clean_linker_0, # of connection points: 2
#     Edge 91, Type (0, 0), BuildingBlock: UVAHIK_clean_linker_0, # of connection points: 2
#     Edge 92, Type (0, 0), BuildingBlock: UVAHIK_clean_linker_0, # of connection points: 2
#     Edge 93, Type (0, 0), BuildingBlock: UVAHIK_clean_linker_0, # of connection points: 2
#     Edge 94, Type (0, 0), BuildingBlock: UVAHIK_clean_linker_0, # of connection points: 2
#     Edge 95, Type (0, 0), BuildingBlock: UVAHIK_clean_linker_0, # of connection points: 2
# Relax obj value: 0.044
# Max RMSD: 0.097
# Mean RMSD: 0.097
data_MOF--net-upd--node1-NAWXER_clean_sbu_0--edge1-UVAHIK_clean_linker_0
_symmetry_space_group_name_H-M    P1
_symmetry_Int_Tables_number       1
_symmetry_cell_setting            triclinic
loop_
_symmetry_equiv_pos_as_xyz
'x, y, z'
_cell_length_a     51.937288
_cell_length_b     51.881467
_cell_length_c     99.236898
_cell_angle_alpha  89.999812
_cell_angle_beta   90.010398
_cell_angle_gamma 90.020205
loop_
_atom_site_label
_atom_site_type_symbol
_atom_site_fract_x
_atom_site_fract_y
_atom_site_fract_z
_atom_type_partial_charge
C0 C 0.12128 0.10852 0.29909 0.0
C1 C 0.12166 0.19282 0.32109 0.0
O2 O 0.10293 0.12464 0.2998 0.0
Zn3 Zn 0.12014 0.15026 0.31073 0.0
O4 O 0.14234 0.11303 0.30543 0.0
Zn5 Zn 0.15794 0.14279 0.31802 0.0
O6 O 0.16254 0.128 0.33576 0.0
O7 O 0.12167 0.13363 0.33043 0.0
O8 O 0.14234 0.17983 0.32291 0.0
O9 O 0.10302 0.18282 0.31459 0.0
O10 O 0.15131 0.16345 0.29809 0.0
O11 O 0.18793 0.15326 0.30811 0.0
C12 C 0.13889 0.12654 0.3389 0.0
C13 C 0.17603 0.16369 0.29833 0.0
C14 C 0.08983 0.91763 0.54751 0.0
C15 C 0.11802 0.87098 0.5875 0.0
O16 O 0.09991 0.92718 0.55808 0.0
Zn17 Zn 0.10627 0.89501 0.56721 0.0
O18 O 0.0881 0.89307 0.54625 0.0
Zn19 Zn 0.09675 0.85906 0.55779 0.0
O20 O 0.06226 0.84431 0.56006 0.0
O21 O 0.06764 0.88212 0.56991 0.0
O22 O 0.11096 0.85609 0.5779 0.0
O23 O 0.11838 0.89524 0.58574 0.0
O24 O 0.13679 0.87825 0.55565 0.0
O25 O 0.12284 0.84153 0.54715 0.0
C26 C 0.05316 0.86304 0.56686 0.0
C27 C 0.14077 0.85803 0.54851 0.0
C28 C 0.37838 0.78947 0.81209 0.0
C29 C 0.37863 0.87395 0.78982 0.0
O30 O 0.39609 0.79788 0.80438 0.0
Zn31 Zn 0.3808 0.83204 0.8015 0.0
O32 O 0.35959 0.80414 0.81537 0.0
Zn33 Zn 0.34605 0.84239 0.81193 0.0
O34 O 0.31265 0.83435 0.80444 0.0
O35 O 0.34531 0.82194 0.79168 0.0
O36 O 0.35969 0.8708 0.79795 0.0
O37 O 0.39597 0.8567 0.78904 0.0
O38 O 0.38665 0.8489 0.82071 0.0
O39 O 0.34895 0.85743 0.82991 0.0
C40 C 0.32098 0.82354 0.79376 0.0
C41 C 0.37338 0.85731 0.83065 0.0
C42 C 0.4666 0.13435 0.06432 0.0
C43 C 0.37997 0.13761 0.04473 0.0
O44 O 0.45806 0.15184 0.05651 0.0
Zn45 Zn 0.42383 0.13692 0.05425 0.0
O46 O 0.45193 0.11565 0.06781 0.0
Zn47 Zn 0.4134 0.10228 0.06474 0.0
O48 O 0.41999 0.06903 0.05655 0.0
O49 O 0.43269 0.10167 0.04391 0.0
O50 O 0.38354 0.1181 0.05245 0.0
O51 O 0.39817 0.15364 0.04296 0.0
O52 O 0.4092 0.14239 0.0741 0.0
O53 O 0.39968 0.10469 0.08305 0.0
C54 C 0.43063 0.07729 0.04583 0.0
C55 C 0.40104 0.1291 0.08411 0.0
C56 C 0.13773 0.81233 0.18354 0.0
C57 C 0.13002 0.89483 0.20697 0.0
O58 O 0.12185 0.81788 0.19288 0.0
Zn59 Zn 0.13353 0.85301 0.19535 0.0
O60 O 0.15438 0.82912 0.17974 0.0
Zn61 Zn 0.1646 0.8687 0.18397 0.0
O62 O 0.19973 0.86471 0.19002 0.0
O63 O 0.1712 0.84704 0.2037 0.0
O64 O 0.14855 0.89476 0.19842 0.0
O65 O 0.11588 0.87499 0.20811 0.0
O66 O 0.12342 0.86718 0.17591 0.0
O67 O 0.15784 0.88427 0.1664 0.0
C68 C 0.19469 0.85214 0.2007 0.0
C69 C 0.13424 0.87788 0.16576 0.0
C70 C 0.37355 0.85955 0.47142 0.0
C71 C 0.4464 0.86578 0.43999 0.0
O72 O 0.39249 0.84408 0.47059 0.0
Zn73 Zn 0.41058 0.86154 0.45599 0.0
O74 O 0.37219 0.87883 0.46338 0.0
Zn75 Zn 0.3934 0.89516 0.44701 0.0
O76 O 0.37011 0.89099 0.43172 0.0
O77 O 0.38586 0.85424 0.43925 0.0
O78 O 0.42914 0.88317 0.43844 0.0
O79 O 0.44371 0.84896 0.44923 0.0
O80 O 0.42171 0.89759 0.46471 0.0
O81 O 0.40239 0.92919 0.45379 0.0
C82 C 0.3717 0.86656 0.43087 0.0
C83 C 0.41769 0.92176 0.46302 0.0
C84 C 0.34416 0.17031 0.71554 0.0
C85 C 0.40576 0.14461 0.68118 0.0
O86 O 0.33434 0.15526 0.70667 0.0
Zn87 Zn 0.34679 0.13393 0.68937 0.0
O88 O 0.36812 0.17525 0.7152 0.0
Zn89 Zn 0.37602 0.15549 0.69927 0.0
O90 O 0.35417 0.17596 0.68425 0.0
O91 O 0.32574 0.14935 0.67527 0.0
O92 O 0.41009 0.15812 0.69163 0.0
O93 O 0.38355 0.1343 0.67949 0.0
O94 O 0.34127 0.09835 0.69456 0.0
O95 O 0.37323 0.11614 0.70584 0.0
C96 C 0.33592 0.17166 0.67584 0.0
C97 C 0.35899 0.0965 0.70333 0.0
C98 C 0.14472 0.13748 0.93473 0.0
C99 C 0.09002 0.08613 0.96453 0.0
O100 O 0.14283 0.11302 0.93474 0.0
Zn101 Zn 0.11797 0.11087 0.94937 0.0
O102 O 0.13123 0.15093 0.94293 0.0
Zn103 Zn 0.10337 0.1455 0.95852 0.0
O104 O 0.12149 0.16065 0.97373 0.0
O105 O 0.13958 0.12481 0.96629 0.0
O106 O 0.08819 0.11048 0.96651 0.0
O107 O 0.1052 0.0777 0.95549 0.0
O108 O 0.08491 0.12694 0.93989 0.0
O109 O 0.07244 0.16162 0.95098 0.0
C110 C 0.13925 0.14382 0.97455 0.0
C111 C 0.06932 0.14586 0.94129 0.0
C112 C 0.86836 0.89445 0.66746 0.0
C113 C 0.80974 0.86261 0.70211 0.0
O114 O 0.87991 0.88384 0.67744 0.0
Zn115 Zn 0.87054 0.86629 0.69633 0.0
O116 O 0.84414 0.89801 0.66798 0.0
Zn117 Zn 0.83884 0.88173 0.68543 0.0
O118 O 0.85575 0.9081 0.69969 0.0
O119 O 0.88761 0.88743 0.70958 0.0
O120 O 0.80404 0.87627 0.69191 0.0
O121 O 0.83348 0.85801 0.70476 0.0
O122 O 0.88362 0.83193 0.69275 0.0
O123 O 0.85027 0.84306 0.68022 0.0
C124 C 0.87426 0.90777 0.70827 0.0
C125 C 0.86756 0.82655 0.68347 0.0
C126 C 0.89558 0.12179 0.42482 0.0
C127 C 0.92701 0.06893 0.46207 0.0
O128 O 0.90526 0.13479 0.43456 0.0
Zn129 Zn 0.92164 0.12881 0.45395 0.0
O130 O 0.89336 0.09746 0.42592 0.0
Zn131 Zn 0.9089 0.09442 0.44373 0.0
O132 O 0.88135 0.11072 0.45718 0.0
O133 O 0.89772 0.14611 0.46606 0.0
O134 O 0.91549 0.06088 0.45155 0.0
O135 O 0.92987 0.09321 0.46395 0.0
O136 O 0.95663 0.14188 0.45091 0.0
O137 O 0.94733 0.10644 0.4396 0.0
C138 C 0.87919 0.13019 0.46505 0.0
C139 C 0.96339 0.1242 0.44272 0.0
C140 C 0.6188 0.19676 0.19393 0.0
C141 C 0.61734 0.11198 0.21609 0.0
O142 O 0.63828 0.18254 0.19114 0.0
Zn143 Zn 0.65291 0.14465 0.19581 0.0
O144 O 0.6016 0.18839 0.20196 0.0
Zn145 Zn 0.61772 0.15507 0.20532 0.0
O146 O 0.65185 0.16666 0.21586 0.0
O147 O 0.6854 0.15318 0.20421 0.0
O148 O 0.6013 0.13033 0.21724 0.0
O149 O 0.63704 0.11494 0.20845 0.0
O150 O 0.6529 0.12967 0.17789 0.0
O151 O 0.61408 0.13881 0.18555 0.0
C152 C 0.67632 0.16506 0.21435 0.0
C153 C 0.62868 0.13055 0.17606 0.0
C154 C 0.58359 0.91439 0.95973 0.0
C155 C 0.63367 0.8652 0.92675 0.0
O156 O 0.58169 0.8899 0.96118 0.0
Zn157 Zn 0.5957 0.85541 0.95188 0.0
O158 O 0.59781 0.92346 0.95043 0.0
Zn159 Zn 0.60952 0.89075 0.94318 0.0
O160 O 0.57515 0.87582 0.93456 0.0
O161 O 0.56377 0.84007 0.94502 0.0
O162 O 0.6323 0.88963 0.9276 0.0
O163 O 0.62126 0.85107 0.93512 0.0
O164 O 0.61536 0.839 0.96619 0.0
O165 O 0.63268 0.8755 0.95914 0.0
C166 C 0.5596 0.85685 0.93591 0.0
C167 C 0.63308 0.85587 0.96699 0.0
C168 C 0.87438 0.21226 0.81715 0.0
C169 C 0.88939 0.12927 0.79447 0.0
O170 O 0.85943 0.19385 0.82067 0.0
Zn171 Zn 0.85231 0.1543 0.81693 0.0
O172 O 0.89209 0.20799 0.80855 0.0
Zn173 Zn 0.88385 0.17129 0.80574 0.0
O174 O 0.84692 0.17426 0.79659 0.0
O175 O 0.81741 0.15649 0.80965 0.0
O176 O 0.9022 0.14994 0.79277 0.0
O177 O 0.87105 0.12883 0.80313 0.0
O178 O 0.85922 0.13988 0.83472 0.0
O179 O 0.89406 0.15519 0.82477 0.0
C180 C 0.82337 0.16837 0.79886 0.0
C181 C 0.88332 0.14431 0.83491 0.0
C182 C 0.55898 0.14584 0.56302 0.0
C183 C 0.6416 0.13883 0.53982 0.0
O184 O 0.57107 0.12487 0.56553 0.0
Zn185 Zn 0.60688 0.10656 0.56056 0.0
O186 O 0.56852 0.16234 0.55495 0.0
Zn187 Zn 0.59941 0.14256 0.55099 0.0
O188 O 0.58392 0.10932 0.5407 0.0
O189 O 0.59492 0.07499 0.55249 0.0
O190 O 0.62514 0.15685 0.53905 0.0
O191 O 0.637 0.11928 0.54737 0.0
O192 O 0.6223 0.10575 0.57852 0.0
O193 O 0.6167 0.14497 0.57049 0.0
C194 C 0.58339 0.08479 0.54242 0.0
C195 C 0.62374 0.13004 0.58008 0.0
C196 C 0.6165 0.87786 0.29429 0.0
C197 C 0.62249 0.79487 0.31843 0.0
O198 O 0.63624 0.876 0.30199 0.0
Zn199 Zn 0.65368 0.84823 0.31507 0.0
O200 O 0.60101 0.85892 0.29339 0.0
Zn201 Zn 0.61832 0.83558 0.30592 0.0
O202 O 0.61437 0.85441 0.32504 0.0
O203 O 0.65307 0.86453 0.33269 0.0
O204 O 0.60447 0.80121 0.31036 0.0
O205 O 0.64095 0.81069 0.32059 0.0
O206 O 0.6862 0.84026 0.30632 0.0
O207 O 0.65254 0.82526 0.29526 0.0
C208 C 0.62877 0.86397 0.33428 0.0
C209 C 0.677 0.82781 0.29638 0.0
C210 C 0.92147 0.92271 0.04132 0.0
C211 C 0.89332 0.87055 0.07957 0.0
O212 O 0.92339 0.89839 0.03918 0.0
Zn213 Zn 0.91454 0.86296 0.04942 0.0
O214 O 0.91101 0.93069 0.05213 0.0
Zn215 Zn 0.90475 0.89734 0.06012 0.0
O216 O 0.94349 0.884 0.06254 0.0
O217 O 0.94865 0.84772 0.05116 0.0
O218 O 0.89252 0.89499 0.07868 0.0
O219 O 0.90057 0.85718 0.0694 0.0
O220 O 0.88877 0.84647 0.03828 0.0
O221 O 0.87418 0.8817 0.04809 0.0
C222 C 0.95779 0.86523 0.05877 0.0
C223 C 0.87052 0.86231 0.04029 0.0
C224 C 0.6422 0.62007 0.79034 0.0
C225 C 0.66337 0.69526 0.81816 0.0
O226 O 0.62544 0.63806 0.78903 0.0
Zn227 Zn 0.6201 0.67657 0.79662 0.0
O228 O 0.66145 0.62373 0.79798 0.0
Zn229 Zn 0.65348 0.6582 0.80417 0.0
O230 O 0.61967 0.65457 0.81653 0.0
O231 O 0.58772 0.67459 0.80628 0.0
O232 O 0.67597 0.67428 0.81725 0.0
O233 O 0.64293 0.69839 0.81106 0.0
O234 O 0.62228 0.69845 0.78081 0.0
O235 O 0.65981 0.68266 0.78708 0.0
C236 C 0.59616 0.66212 0.81639 0.0
C237 C 0.64652 0.69708 0.77921 0.0
C238 C 0.56495 0.42676 0.04806 0.0
C239 C 0.59507 0.37212 0.08515 0.0
O240 O 0.57505 0.43449 0.05904 0.0
Zn241 Zn 0.58214 0.40051 0.06633 0.0
O242 O 0.56308 0.40251 0.04572 0.0
Zn243 Zn 0.57183 0.36644 0.05536 0.0
O244 O 0.53757 0.35156 0.05711 0.0
O245 O 0.54353 0.38703 0.06907 0.0
O246 O 0.58664 0.35942 0.075 0.0
O247 O 0.59662 0.39654 0.0844 0.0
O248 O 0.61105 0.38692 0.0527 0.0
O249 O 0.59689 0.35109 0.04329 0.0
C250 C 0.52888 0.36864 0.06512 0.0
C251 C 0.61434 0.36812 0.04449 0.0
C252 C 0.88542 0.30085 0.31911 0.0
C253 C 0.88876 0.38499 0.29702 0.0
O254 O 0.9034 0.3095 0.31167 0.0
Zn255 Zn 0.88734 0.34251 0.30783 0.0
O256 O 0.86568 0.31494 0.32152 0.0
Zn257 Zn 0.85142 0.3526 0.31658 0.0
O258 O 0.81966 0.34416 0.3075 0.0
O259 O 0.85407 0.33076 0.29652 0.0
O260 O 0.86847 0.38221 0.30426 0.0
O261 O 0.90469 0.3665 0.29608 0.0
O262 O 0.88947 0.36085 0.32722 0.0
O263 O 0.84977 0.36794 0.33434 0.0
C264 C 0.82949 0.33231 0.29754 0.0
C265 C 0.87393 0.36915 0.33627 0.0
C266 C 0.94158 0.58904 0.57313 0.0
C267 C 0.86657 0.60926 0.54541 0.0
O268 O 0.94426 0.61009 0.56648 0.0
Zn269 Zn 0.92199 0.63321 0.55251 0.0
O270 O 0.92082 0.57618 0.57205 0.0
Zn271 Zn 0.90417 0.59909 0.55946 0.0
O272 O 0.92825 0.59474 0.54198 0.0
O273 O 0.9439 0.633 0.53678 0.0
O274 O 0.87033 0.59 0.55304 0.0
O275 O 0.88406 0.62663 0.54441 0.0
O276 O 0.9185 0.66501 0.56239 0.0
O277 O 0.89847 0.63239 0.57204 0.0
C278 C 0.94238 0.60897 0.53442 0.0
C279 C 0.90523 0.65617 0.5721 0.0
C280 C 0.67208 0.32372 0.71008 0.0
C281 C 0.63101 0.36873 0.67255 0.0
O282 O 0.68308 0.33406 0.69999 0.0
Zn283 Zn 0.65266 0.34885 0.6918 0.0
O284 O 0.64768 0.32614 0.71155 0.0
Zn285 Zn 0.61589 0.34313 0.70107 0.0
O286 O 0.59542 0.31236 0.69687 0.0
O287 O 0.6322 0.31508 0.68574 0.0
O288 O 0.61514 0.36198 0.6818 0.0
O289 O 0.65506 0.36545 0.6743 0.0
O290 O 0.64163 0.37887 0.70552 0.0
O291 O 0.60309 0.36933 0.71338 0.0
C292 C 0.61107 0.30332 0.6882 0.0
C293 C 0.62236 0.38444 0.71307 0.0
C294 C 0.83232 0.38756 0.95528 0.0
C295 C 0.91344 0.38528 0.93083 0.0
O296 O 0.84986 0.37059 0.95534 0.0
Zn297 Zn 0.87339 0.38687 0.9431 0.0
O298 O 0.83502 0.40774 0.94792 0.0
Zn299 Zn 0.86379 0.42237 0.93421 0.0
O300 O 0.84737 0.42388 0.91675 0.0
O301 O 0.85502 0.38422 0.92372 0.0
O302 O 0.90055 0.40589 0.92844 0.0
O303 O 0.90466 0.36858 0.93901 0.0
O304 O 0.88795 0.42065 0.95346 0.0
O305 O 0.87399 0.45446 0.94213 0.0
C306 C 0.84677 0.39975 0.91465 0.0
C307 C 0.88681 0.44521 0.95188 0.0
C308 C 0.83561 0.66797 0.21147 0.0
C309 C 0.88565 0.6172 0.17911 0.0
O310 O 0.82679 0.65359 0.20217 0.0
Zn311 Zn 0.85968 0.64173 0.19505 0.0
O312 O 0.86 0.66977 0.21311 0.0
Zn313 Zn 0.89456 0.65547 0.20436 0.0
O314 O 0.91051 0.68721 0.19756 0.0
O315 O 0.87544 0.67576 0.18652 0.0
O316 O 0.89946 0.62949 0.18768 0.0
O317 O 0.86122 0.61906 0.17948 0.0
O318 O 0.87485 0.61766 0.21063 0.0
O319 O 0.90978 0.63577 0.21907 0.0
C320 C 0.89441 0.69122 0.18811 0.0
C321 C 0.89376 0.61719 0.21893 0.0
C322 C 0.63788 0.62541 0.46304 0.0
C323 C 0.55732 0.64034 0.43888 0.0
O324 O 0.62391 0.64549 0.46298 0.0
Zn325 Zn 0.59696 0.63319 0.45121 0.0
O326 O 0.63108 0.60581 0.456 0.0
Zn327 Zn 0.59981 0.59576 0.44283 0.0
O328 O 0.61499 0.5907 0.42516 0.0
O329 O 0.61486 0.63135 0.43171 0.0
O330 O 0.56662 0.61775 0.43705 0.0
O331 O 0.56883 0.65623 0.44657 0.0
O332 O 0.57761 0.60313 0.46254 0.0
O333 O 0.58426 0.56674 0.45157 0.0
C334 C 0.61981 0.61427 0.42275 0.0
C335 C 0.57425 0.57868 0.46145 0.0
C336 C 0.358 0.3716 0.17233 0.0
C337 C 0.31035 0.33612 0.21028 0.0
O338 O 0.37253 0.36405 0.182 0.0
Zn339 Zn 0.36884 0.34793 0.20173 0.0
O340 O 0.3337 0.37137 0.17385 0.0
Zn341 Zn 0.33348 0.35648 0.19177 0.0
O342 O 0.34728 0.38672 0.2047 0.0
O343 O 0.38363 0.37331 0.21376 0.0
O344 O 0.301 0.34678 0.19984 0.0
O345 O 0.33481 0.33569 0.21201 0.0
O346 O 0.38625 0.31515 0.19891 0.0
O347 O 0.34979 0.31912 0.18764 0.0
C348 C 0.36649 0.39063 0.21258 0.0
C349 C 0.36967 0.30578 0.19081 0.0
C350 C 0.43371 0.63581 0.93199 0.0
C351 C 0.35448 0.6252 0.95838 0.0
O352 O 0.4224 0.61409 0.93044 0.0
Zn353 Zn 0.38872 0.59411 0.93692 0.0
O354 O 0.42416 0.65251 0.93997 0.0
Zn355 Zn 0.39439 0.6317 0.94532 0.0
O356 O 0.41236 0.60057 0.95617 0.0
O357 O 0.4038 0.5643 0.9454 0.0
O358 O 0.36894 0.64496 0.95789 0.0
O359 O 0.35985 0.60554 0.95107 0.0
O360 O 0.37119 0.59053 0.91969 0.0
O361 O 0.37467 0.6309 0.92645 0.0
C362 C 0.41464 0.57601 0.95513 0.0
C363 C 0.36763 0.61444 0.91756 0.0
C364 C 0.11231 0.60816 0.71903 0.0
C365 C 0.10863 0.68105 0.68762 0.0
O366 O 0.13117 0.60903 0.7107 0.0
Zn367 Zn 0.14394 0.63173 0.69404 0.0
O368 O 0.09418 0.62457 0.71815 0.0
Zn369 Zn 0.10846 0.64429 0.70324 0.0
O370 O 0.10404 0.61848 0.68667 0.0
O371 O 0.14249 0.6087 0.67863 0.0
O372 O 0.09207 0.67604 0.69671 0.0
O373 O 0.12784 0.66594 0.68596 0.0
O374 O 0.17666 0.64465 0.7006 0.0
O375 O 0.14304 0.65944 0.71185 0.0
C376 C 0.11814 0.60647 0.67814 0.0
C377 C 0.16746 0.65847 0.71005 0.0
C378 C 0.14545 0.38498 0.45604 0.0
C379 C 0.0605 0.39655 0.43531 0.0
O380 O 0.1447 0.40432 0.44801 0.0
Zn381 Zn 0.11752 0.42217 0.43485 0.0
O382 O 0.12547 0.37117 0.45752 0.0
Zn383 Zn 0.10236 0.39017 0.44573 0.0
O384 O 0.115 0.38177 0.4257 0.0
O385 O 0.13159 0.41721 0.4169 0.0
O386 O 0.06662 0.3795 0.44399 0.0
O387 O 0.07742 0.41296 0.4314 0.0
O388 O 0.11456 0.45677 0.44191 0.0
O389 O 0.09708 0.42718 0.45503 0.0
C390 C 0.12548 0.3936 0.4158 0.0
C391 C 0.10213 0.45092 0.45252 0.0
C392 C 0.34607 0.69767 0.3217 0.0
C393 C 0.36265 0.62241 0.29311 0.0
O394 O 0.33278 0.67708 0.32104 0.0
Zn395 Zn 0.35393 0.66015 0.30755 0.0
O396 O 0.36601 0.70015 0.31417 0.0
Zn397 Zn 0.38687 0.67815 0.29921 0.0
O398 O 0.38418 0.70011 0.2836 0.0
O399 O 0.34684 0.68453 0.29041 0.0
O400 O 0.37936 0.64031 0.29132 0.0
O401 O 0.34476 0.62579 0.30164 0.0
O402 O 0.38892 0.6551 0.31883 0.0
O403 O 0.41995 0.67532 0.30791 0.0
C404 C 0.35987 0.69878 0.28233 0.0
C405 C 0.41252 0.66225 0.31802 0.0
C406 C 0.05846 0.57863 0.07341 0.0
C407 C 0.13236 0.59972 0.04475 0.0
O408 O 0.07927 0.56583 0.07232 0.0
Zn409 Zn 0.09534 0.5883 0.05912 0.0
O410 O 0.0554 0.59927 0.06648 0.0
Zn411 Zn 0.07652 0.62219 0.05213 0.0
O412 O 0.05412 0.62066 0.03654 0.0
O413 O 0.07068 0.58296 0.04204 0.0
O414 O 0.1143 0.6165 0.04394 0.0
O415 O 0.12935 0.58015 0.05229 0.0
O416 O 0.10097 0.62201 0.07127 0.0
O417 O 0.07983 0.65428 0.06193 0.0
C418 C 0.05601 0.59656 0.03447 0.0
C419 C 0.09384 0.64567 0.07143 0.0
C420 C 0.175 0.31971 0.83495 0.0
C421 C 0.14864 0.39185 0.80644 0.0
O422 O 0.18407 0.34249 0.8351 0.0
Zn423 Zn 0.16261 0.3559 0.8207 0.0
O424 O 0.15692 0.31398 0.82668 0.0
Zn425 Zn 0.13436 0.33234 0.81131 0.0
O426 O 0.143 0.31215 0.79567 0.0
O427 O 0.17598 0.33403 0.80375 0.0
O428 O 0.1353 0.37146 0.80427 0.0
O429 O 0.16688 0.39123 0.81497 0.0
O430 O 0.12535 0.35579 0.83016 0.0
O431 O 0.10031 0.32909 0.81878 0.0
C432 C 0.16673 0.31804 0.79517 0.0
C433 C 0.10354 0.34459 0.82855 0.0
C434 C 0.44616 0.36455 0.56916 0.0
C435 C 0.37261 0.36349 0.53786 0.0
O436 O 0.42903 0.38178 0.57133 0.0
Zn437 Zn 0.3933 0.39491 0.56371 0.0
O438 O 0.44298 0.34861 0.55953 0.0
Zn439 Zn 0.40963 0.36212 0.55324 0.0
O440 O 0.42039 0.39917 0.54568 0.0
O441 O 0.40237 0.42973 0.55797 0.0
O442 O 0.39107 0.34733 0.53791 0.0
O443 O 0.3718 0.38136 0.54678 0.0
O444 O 0.37037 0.38854 0.57898 0.0
O445 O 0.38421 0.35278 0.56931 0.0
C446 C 0.41676 0.42315 0.54816 0.0
C447 C 0.37059 0.36404 0.57831 0.0
C448 C 0.14738 0.37223 0.39629 0.0
C449 C 0.12491 0.38099 0.40259 0.0
C450 C 0.14565 0.35649 0.38484 0.0
C451 C 0.09997 0.31073 0.36946 0.0
H452 H 0.14959 0.30901 0.34033 0.0
C453 C 0.09631 0.23137 0.32891 0.0
C454 C 0.12005 0.21901 0.32689 0.0
C455 C 0.09523 0.25494 0.33579 0.0
C456 C 0.13555 0.30931 0.34839 0.0
H457 H 0.08329 0.3818 0.40174 0.0
H458 H 0.0802 0.35522 0.38156 0.0
H459 H 0.15141 0.34381 0.35691 0.0
H460 H 0.16137 0.2224 0.32975 0.0
H461 H 0.15945 0.26307 0.34171 0.0
H462 H 0.08456 0.27593 0.36123 0.0
C463 C 0.09911 0.35973 0.38551 0.0
C464 C 0.13666 0.32918 0.35791 0.0
C465 C 0.10086 0.3751 0.39698 0.0
C466 C 0.14272 0.23128 0.33125 0.0
C467 C 0.14166 0.25479 0.338 0.0
C468 C 0.09884 0.29095 0.35996 0.0
C469 C 0.12141 0.34949 0.37956 0.0
C470 C 0.11914 0.32987 0.36869 0.0
C471 C 0.11791 0.26664 0.34063 0.0
C472 C 0.11692 0.28971 0.34947 0.0
H473 H 0.16609 0.37643 0.40059 0.0
H474 H 0.1632 0.34876 0.38056 0.0
H475 H 0.08644 0.31034 0.37776 0.0
H476 H 0.07854 0.22241 0.32562 0.0
H477 H 0.07664 0.26375 0.33757 0.0
C478 C 0.01423 0.8872 0.57384 0.0
C479 C 0.02644 0.86332 0.57191 0.0
C480 C 0.99147 0.88889 0.58122 0.0
C481 C 0.94013 0.88798 0.59574 0.0
H482 H 0.94832 0.85241 0.62981 0.0
C483 C 0.87046 0.89635 0.64219 0.0
C484 C 0.88291 0.8977 0.65476 0.0
C485 C 0.88478 0.89241 0.63037 0.0
C486 C 0.94574 0.86247 0.62033 0.0
H487 H 0.02349 0.82222 0.57529 0.0
H488 H 0.98345 0.82512 0.58837 0.0
H489 H 0.97713 0.84242 0.61122 0.0
H490 H 0.92014 0.89842 0.66466 0.0
H491 H 0.94493 0.89201 0.64416 0.0
H492 H 0.90927 0.90878 0.6052 0.0
C493 C 0.99165 0.84257 0.58419 0.0
C494 C 0.96199 0.85644 0.6096 0.0
C495 C 0.01442 0.84084 0.57663 0.0
C496 C 0.90995 0.8972 0.65515 0.0
C497 C 0.92415 0.89326 0.64342 0.0
C498 C 0.9237 0.89393 0.6065 0.0
C499 C 0.98047 0.86675 0.58697 0.0
C500 C 0.9599 0.86964 0.59729 0.0
C501 C 0.9117 0.88974 0.631 0.0
C502 C 0.92693 0.8818 0.61904 0.0
H503 H 0.02302 0.90484 0.57022 0.0
H504 H 0.98359 0.90783 0.58323 0.0
H505 H 0.93789 0.89834 0.58634 0.0
H506 H 0.84964 0.8965 0.64157 0.0
H507 H 0.8747 0.88994 0.6209 0.0
C508 C 0.34976 0.64914 0.90303 0.0
C509 C 0.36006 0.62421 0.90414 0.0
C510 C 0.34874 0.66155 0.89057 0.0
C511 C 0.38383 0.66376 0.85872 0.0
H512 H 0.33003 0.71215 0.84918 0.0
C513 C 0.35539 0.74913 0.81767 0.0
C514 C 0.37852 0.76311 0.8176 0.0
C515 C 0.35284 0.72701 0.82554 0.0
C516 C 0.34512 0.69844 0.85148 0.0
H517 H 0.37607 0.59214 0.89294 0.0
H518 H 0.37419 0.61389 0.87103 0.0
H519 H 0.32331 0.68245 0.86773 0.0
H520 H 0.41761 0.76434 0.82507 0.0
H521 H 0.41307 0.72587 0.83922 0.0
H522 H 0.4058 0.68014 0.84253 0.0
C523 C 0.36702 0.62383 0.87987 0.0
C524 C 0.34132 0.68156 0.86224 0.0
C525 C 0.36775 0.61125 0.89237 0.0
C526 C 0.39969 0.75366 0.82485 0.0
C527 C 0.39701 0.73164 0.83295 0.0
C528 C 0.38766 0.68071 0.8479 0.0
C529 C 0.35821 0.64941 0.87891 0.0
C530 C 0.36081 0.66443 0.8662 0.0
C531 C 0.37318 0.71867 0.8338 0.0
C532 C 0.36851 0.69861 0.8443 0.0
H533 H 0.34382 0.65965 0.91194 0.0
H534 H 0.34202 0.6813 0.89024 0.0
H535 H 0.39935 0.65095 0.86159 0.0
H536 H 0.33881 0.75605 0.8121 0.0
H537 H 0.33446 0.71714 0.82563 0.0
C538 C 0.50355 0.15963 0.07387 0.0
C539 C 0.49244 0.13583 0.07048 0.0
C540 C 0.52484 0.16055 0.08255 0.0
C541 C 0.57392 0.12016 0.10035 0.0
H542 H 0.55839 0.16485 0.13057 0.0
C543 C 0.59033 0.12647 0.16114 0.0
C544 C 0.61726 0.12617 0.16258 0.0
C545 C 0.57908 0.12785 0.14841 0.0
C546 C 0.56305 0.15233 0.12218 0.0
H547 H 0.49624 0.09437 0.07236 0.0
H548 H 0.53316 0.09595 0.08734 0.0
H549 H 0.53365 0.16883 0.10986 0.0
H550 H 0.65345 0.12527 0.15167 0.0
H551 H 0.63355 0.12725 0.12927 0.0
H552 H 0.60268 0.10297 0.11305 0.0
C553 C 0.52564 0.11391 0.08342 0.0
C554 C 0.54913 0.15486 0.11023 0.0
C555 C 0.50432 0.11301 0.0749 0.0
C556 C 0.63265 0.12543 0.15091 0.0
C557 C 0.62129 0.12668 0.13809 0.0
C558 C 0.58802 0.11775 0.11232 0.0
C559 C 0.53547 0.13768 0.08782 0.0
C560 C 0.55384 0.1383 0.09931 0.0
C561 C 0.59443 0.12884 0.13678 0.0
C562 C 0.58209 0.13325 0.1235 0.0
H563 H 0.49474 0.1775 0.07062 0.0
H564 H 0.53219 0.17916 0.08566 0.0
H565 H 0.57813 0.10725 0.09206 0.0
H566 H 0.57786 0.1268 0.16989 0.0
H567 H 0.55829 0.12882 0.14769 0.0
C568 C 0.15487 0.78143 0.1666 0.0
C569 C 0.135 0.78856 0.17545 0.0
C570 C 0.15073 0.7628 0.15671 0.0
C571 C 0.14027 0.71693 0.13881 0.0
H572 H 0.07575 0.72406 0.11949 0.0
C573 C 0.11344 0.65091 0.09425 0.0
C574 C 0.10024 0.66183 0.08327 0.0
C575 C 0.11771 0.6651 0.10598 0.0
C576 C 0.09395 0.72198 0.12471 0.0
H577 H 0.0957 0.78051 0.18147 0.0
H578 H 0.08855 0.74745 0.16428 0.0
H579 H 0.08311 0.7492 0.13988 0.0
H580 H 0.08171 0.69653 0.07591 0.0
H581 H 0.08976 0.72162 0.09632 0.0
H582 H 0.15158 0.69057 0.12336 0.0
C583 C 0.10722 0.75668 0.16487 0.0
C584 C 0.09799 0.73605 0.13654 0.0
C585 C 0.11141 0.77536 0.17482 0.0
C586 C 0.09192 0.68754 0.08419 0.0
C587 C 0.09632 0.70183 0.09594 0.0
C588 C 0.13628 0.70296 0.12696 0.0
C589 C 0.1266 0.75079 0.15544 0.0
C590 C 0.1213 0.73389 0.14366 0.0
C591 C 0.10905 0.69067 0.10703 0.0
C592 C 0.11315 0.70545 0.1197 0.0
H593 H 0.1733 0.79122 0.16683 0.0
H594 H 0.16604 0.75893 0.14959 0.0
H595 H 0.15836 0.71465 0.1441 0.0
H596 H 0.12 0.63111 0.09396 0.0
H597 H 0.12726 0.65576 0.11436 0.0
C598 C 0.4681 0.88109 0.4191 0.0
C599 C 0.469 0.86599 0.43085 0.0
C600 C 0.48928 0.88271 0.41054 0.0
C601 C 0.54987 0.85031 0.4009 0.0
H602 H 0.56089 0.91509 0.38222 0.0
C603 C 0.628 0.86407 0.3595 0.0
C604 C 0.61674 0.87129 0.34719 0.0
C605 C 0.61394 0.86595 0.37152 0.0
C606 C 0.55818 0.89695 0.38744 0.0
H607 H 0.49293 0.84042 0.44272 0.0
H608 H 0.53044 0.84355 0.42775 0.0
H609 H 0.52894 0.91261 0.40015 0.0
H610 H 0.58271 0.88742 0.33782 0.0
H611 H 0.55862 0.89175 0.35883 0.0
H612 H 0.57919 0.83477 0.388 0.0
C613 C 0.51308 0.85397 0.42515 0.0
C614 C 0.53973 0.89542 0.39764 0.0
C615 C 0.49163 0.85218 0.43373 0.0
C616 C 0.59188 0.88189 0.3472 0.0
C617 C 0.57812 0.88435 0.35921 0.0
C618 C 0.56863 0.85196 0.39079 0.0
C619 C 0.51221 0.86952 0.4135 0.0
C620 C 0.53463 0.87185 0.40417 0.0
C621 C 0.58869 0.87571 0.37143 0.0
C622 C 0.57236 0.87511 0.38368 0.0
H623 H 0.45089 0.89173 0.41643 0.0
H624 H 0.48749 0.8942 0.40148 0.0
H625 H 0.54643 0.83183 0.40565 0.0
H626 H 0.64701 0.85548 0.35972 0.0
H627 H 0.6225 0.85919 0.38083 0.0
C628 C 0.33478 0.21815 0.66946 0.0
C629 C 0.32851 0.19244 0.66638 0.0
C630 C 0.33158 0.23762 0.6599 0.0
C631 C 0.33387 0.24593 0.62364 0.0
H632 H 0.31305 0.31613 0.6315 0.0
C633 C 0.34626 0.32411 0.58362 0.0
C634 C 0.35623 0.34784 0.58796 0.0
C635 C 0.33649 0.30639 0.59287 0.0
C636 C 0.31908 0.29667 0.62915 0.0
H637 H 0.31272 0.16721 0.65107 0.0
H638 H 0.30737 0.20134 0.63422 0.0
H639 H 0.30685 0.28242 0.64842 0.0
H640 H 0.36277 0.37226 0.6053 0.0
H641 H 0.34659 0.34089 0.62166 0.0
H642 H 0.34738 0.26003 0.60475 0.0
C643 C 0.31479 0.20633 0.64408 0.0
C644 C 0.31539 0.27734 0.63883 0.0
C645 C 0.31769 0.18683 0.65374 0.0
C646 C 0.35502 0.35414 0.6017 0.0
C647 C 0.34569 0.33612 0.61105 0.0
C648 C 0.3378 0.26522 0.61405 0.0
C649 C 0.32229 0.23183 0.64697 0.0
C650 C 0.32307 0.25181 0.63623 0.0
C651 C 0.33704 0.31166 0.60677 0.0
C652 C 0.33075 0.29095 0.61671 0.0
H653 H 0.34302 0.22312 0.67915 0.0
H654 H 0.33774 0.25698 0.66242 0.0
H655 H 0.34047 0.22658 0.62142 0.0
H656 H 0.34669 0.31891 0.57304 0.0
H657 H 0.32926 0.28817 0.58913 0.0
C658 C 0.02453 0.16001 0.93471 0.0
C659 C 0.04835 0.14887 0.93132 0.0
C660 C 0.0044 0.16062 0.92524 0.0
C661 C 0.99248 0.16037 0.88897 0.0
H662 H 0.92689 0.12755 0.89639 0.0
C663 C 0.92555 0.13497 0.84559 0.0
C664 C 0.89909 0.13965 0.84707 0.0
C665 C 0.94189 0.1356 0.85673 0.0
C666 C 0.94495 0.13711 0.8942 0.0
H667 H 0.07002 0.13039 0.91533 0.0
H668 H 0.03542 0.13217 0.89885 0.0
H669 H 0.95877 0.13229 0.91449 0.0
H670 H 0.86872 0.14742 0.86145 0.0
H671 H 0.89748 0.14906 0.88104 0.0
H672 H 0.97907 0.16547 0.86884 0.0
C673 C 0.03209 0.14012 0.90879 0.0
C674 C 0.96314 0.13984 0.90457 0.0
C675 C 0.05187 0.13904 0.91826 0.0
C676 C 0.88904 0.14353 0.86006 0.0
C677 C 0.90554 0.14454 0.87126 0.0
C678 C 0.97433 0.1579 0.8787 0.0
C679 C 0.0081 0.1507 0.91218 0.0
C680 C 0.98731 0.15095 0.90194 0.0
C681 C 0.93232 0.14145 0.86964 0.0
C682 C 0.95059 0.14559 0.88105 0.0
H683 H 0.02126 0.16756 0.94474 0.0
H684 H 0.98606 0.16894 0.92806 0.0
H685 H 0.01084 0.16931 0.88671 0.0
H686 H 0.93379 0.13168 0.83571 0.0
H687 H 0.96224 0.1322 0.85514 0.0
C688 C 0.887 0.6616 0.59528 0.0
C689 C 0.89939 0.67239 0.58401 0.0
C690 C 0.88341 0.67604 0.607 0.0
C691 C 0.90841 0.73339 0.6249 0.0
H692 H 0.84489 0.72771 0.64521 0.0
C693 C 0.84998 0.79586 0.66651 0.0
C694 C 0.87015 0.803 0.67519 0.0
C695 C 0.85358 0.77676 0.65681 0.0
C696 C 0.86275 0.72951 0.63966 0.0
H697 H 0.91715 0.7071 0.57613 0.0
H698 H 0.91038 0.73252 0.59651 0.0
H699 H 0.85051 0.70235 0.62476 0.0
H700 H 0.90948 0.79462 0.68102 0.0
H701 H 0.91573 0.76086 0.66409 0.0
H702 H 0.92023 0.76132 0.63952 0.0
C703 C 0.90392 0.71267 0.59637 0.0
C704 C 0.86607 0.71481 0.62799 0.0
C705 C 0.90757 0.69818 0.58463 0.0
C706 C 0.89356 0.78951 0.67449 0.0
C707 C 0.89722 0.77039 0.66471 0.0
C708 C 0.90508 0.74812 0.63656 0.0
C709 C 0.89205 0.70168 0.60775 0.0
C710 C 0.88882 0.71679 0.62037 0.0
C711 C 0.87745 0.7643 0.65553 0.0
C712 C 0.88207 0.7466 0.64399 0.0
H713 H 0.88057 0.64174 0.59518 0.0
H714 H 0.87444 0.66687 0.6156 0.0
H715 H 0.92634 0.73508 0.6194 0.0
H716 H 0.83166 0.80582 0.66681 0.0
H717 H 0.83801 0.77276 0.64986 0.0
C718 C 0.14362 0.13172 0.36376 0.0
C719 C 0.13086 0.12039 0.35276 0.0
C720 C 0.13257 0.13096 0.37663 0.0
C721 C 0.08924 0.09803 0.39898 0.0
H722 H 0.05735 0.16334 0.40812 0.0
C723 C 0.99578 0.10229 0.42828 0.0
C724 C 0.98916 0.12362 0.4363 0.0
C725 C 0.01879 0.10178 0.42113 0.0
C726 C 0.06665 0.14511 0.40603 0.0
H727 H 0.0976 0.09817 0.3466 0.0
H728 H 0.07901 0.09565 0.36924 0.0
H729 H 0.08884 0.16132 0.38987 0.0
H730 H 0.00223 0.16079 0.44353 0.0
H731 H 0.04307 0.15979 0.43107 0.0
H732 H 0.06706 0.08156 0.41492 0.0
C733 C 0.09726 0.10543 0.36786 0.0
C734 C 0.08461 0.14397 0.39554 0.0
C735 C 0.10788 0.10682 0.35496 0.0
C736 C 0.00674 0.14412 0.43741 0.0
C737 C 0.03005 0.14357 0.43021 0.0
C738 C 0.07174 0.09922 0.40964 0.0
C739 C 0.10909 0.11818 0.37869 0.0
C740 C 0.0952 0.12025 0.39161 0.0
C741 C 0.03617 0.12248 0.42184 0.0
C742 C 0.05921 0.12253 0.41286 0.0
H743 H 0.16115 0.14267 0.36225 0.0
H744 H 0.14187 0.14103 0.38487 0.0
H745 H 0.0973 0.07956 0.39612 0.0
H746 H 0.98284 0.08605 0.42718 0.0
H747 H 0.02234 0.08547 0.41459 0.0
C748 C 0.60556 0.37122 0.11003 0.0
C749 C 0.60027 0.35811 0.09792 0.0
C750 C 0.60731 0.35763 0.12224 0.0
C751 C 0.58485 0.29712 0.1378 0.0
H752 H 0.64039 0.30638 0.16344 0.0
C753 C 0.63732 0.23258 0.1802 0.0
C754 C 0.61593 0.22168 0.18677 0.0
C755 C 0.63439 0.2537 0.17162 0.0
C756 C 0.62466 0.30369 0.15641 0.0
H757 H 0.59386 0.32029 0.08914 0.0
H758 H 0.59696 0.29693 0.11023 0.0
H759 H 0.63796 0.33415 0.14351 0.0
H760 H 0.57486 0.22538 0.19006 0.0
H761 H 0.56967 0.26242 0.17498 0.0
H762 H 0.57201 0.26613 0.15031 0.0
C763 C 0.59931 0.31768 0.11038 0.0
C764 C 0.6232 0.3197 0.14505 0.0
C765 C 0.59774 0.33112 0.09825 0.0
C766 C 0.59171 0.23333 0.18515 0.0
C767 C 0.58873 0.25441 0.17644 0.0
C768 C 0.5862 0.28128 0.14916 0.0
C769 C 0.60358 0.33076 0.12256 0.0
C770 C 0.60367 0.31608 0.13544 0.0
C771 C 0.60995 0.2644 0.1693 0.0
C772 C 0.60647 0.28392 0.15844 0.0
H773 H 0.60757 0.39199 0.11014 0.0
H774 H 0.6107 0.36821 0.13148 0.0
H775 H 0.56933 0.29412 0.13068 0.0
H776 H 0.6563 0.22416 0.18129 0.0
H777 H 0.65112 0.26069 0.16622 0.0
C778 C 0.53906 0.86815 0.91411 0.0
C779 C 0.53771 0.85481 0.92642 0.0
C780 C 0.51878 0.86724 0.90497 0.0
C781 C 0.45022 0.85996 0.90104 0.0
H782 H 0.46837 0.84445 0.86401 0.0
C783 C 0.37742 0.85514 0.85579 0.0
C784 C 0.38706 0.86339 0.84328 0.0
C785 C 0.39352 0.8546 0.86716 0.0
C786 C 0.46297 0.84913 0.87427 0.0
H787 H 0.51378 0.83017 0.93884 0.0
H788 H 0.47765 0.82892 0.9227 0.0
H789 H 0.50065 0.84031 0.8816 0.0
H790 H 0.42004 0.87982 0.83307 0.0
H791 H 0.44763 0.87999 0.85287 0.0
H792 H 0.41259 0.86954 0.89354 0.0
C793 C 0.49473 0.83995 0.92025 0.0
C794 C 0.48143 0.8465 0.88435 0.0
C795 C 0.51539 0.84053 0.9294 0.0
C796 C 0.4122 0.87317 0.84258 0.0
C797 C 0.42808 0.87296 0.85389 0.0
C798 C 0.43163 0.86277 0.89086 0.0
C799 C 0.49642 0.85318 0.9079 0.0
C800 C 0.47546 0.85244 0.89778 0.0
C801 C 0.41939 0.86249 0.86615 0.0
C802 C 0.43806 0.85804 0.8773 0.0
H803 H 0.55597 0.87928 0.91145 0.0
H804 H 0.52052 0.87778 0.89558 0.0
H805 H 0.44521 0.86476 0.91133 0.0
H806 H 0.35816 0.84726 0.85656 0.0
H807 H 0.38621 0.84651 0.87646 0.0
C808 C 0.85209 0.40161 0.88972 0.0
C809 C 0.84149 0.38943 0.9011 0.0
C810 C 0.85325 0.38865 0.87735 0.0
C811 C 0.82691 0.33622 0.85731 0.0
H812 H 0.89705 0.31741 0.84809 0.0
C813 C 0.84935 0.24096 0.83231 0.0
C814 C 0.87015 0.23792 0.82338 0.0
C815 C 0.84493 0.2643 0.83876 0.0
C816 C 0.87737 0.32297 0.85022 0.0
H817 H 0.82235 0.35507 0.90835 0.0
H818 H 0.82309 0.33298 0.88657 0.0
H819 H 0.88916 0.35097 0.86491 0.0
H820 H 0.90246 0.25745 0.81407 0.0
H821 H 0.89458 0.29886 0.82544 0.0
H822 H 0.81492 0.30812 0.84289 0.0
C823 C 0.83084 0.35232 0.88726 0.0
C824 C 0.87288 0.34213 0.85988 0.0
C825 C 0.83035 0.36494 0.89968 0.0
C826 C 0.8863 0.25916 0.8209 0.0
C827 C 0.8818 0.28281 0.82744 0.0
C828 C 0.83136 0.31746 0.8475 0.0
C829 C 0.84311 0.36368 0.87613 0.0
C830 C 0.84762 0.3481 0.86388 0.0
C831 C 0.86102 0.28558 0.83647 0.0
C832 C 0.85663 0.30965 0.84433 0.0
H833 H 0.86124 0.4203 0.89061 0.0
H834 H 0.86286 0.39769 0.8689 0.0
H835 H 0.80728 0.34068 0.86018 0.0
H836 H 0.83644 0.22512 0.83455 0.0
H837 H 0.82919 0.26532 0.8459 0.0
C838 C 0.42177 0.12482 0.65989 0.0
C839 C 0.42461 0.14345 0.67005 0.0
C840 C 0.43653 0.12611 0.64817 0.0
C841 C 0.46941 0.17255 0.62656 0.0
H842 H 0.49917 0.11158 0.61026 0.0
C843 C 0.53656 0.17365 0.57964 0.0
C844 C 0.53646 0.15165 0.57142 0.0
C845 C 0.52067 0.17479 0.59103 0.0
C846 C 0.49056 0.12875 0.61452 0.0
H847 H 0.4458 0.17756 0.67611 0.0
H848 H 0.47168 0.17983 0.65551 0.0
H849 H 0.4785 0.10834 0.63215 0.0
H850 H 0.51827 0.11482 0.56773 0.0
H851 H 0.48942 0.11741 0.58705 0.0
H852 H 0.48125 0.19291 0.6088 0.0
C853 C 0.4579 0.1643 0.65666 0.0
C854 C 0.47891 0.12689 0.62714 0.0
C855 C 0.44332 0.16282 0.6685 0.0
C856 C 0.51854 0.13203 0.57392 0.0
C857 C 0.50237 0.13335 0.58512 0.0
C858 C 0.48095 0.1744 0.61384 0.0
C859 C 0.45429 0.14622 0.64628 0.0
C860 C 0.46808 0.1487 0.63326 0.0
C861 C 0.5043 0.15402 0.59423 0.0
C862 C 0.49146 0.15244 0.60762 0.0
H863 H 0.4075 0.10969 0.66079 0.0
H864 H 0.43323 0.11198 0.64032 0.0
H865 H 0.46093 0.18963 0.63099 0.0
H866 H 0.55063 0.18876 0.57804 0.0
H867 H 0.5227 0.19098 0.59783 0.0
C868 C 0.64309 0.7649 0.33479 0.0
C869 C 0.62265 0.77001 0.32588 0.0
C870 C 0.64354 0.74254 0.34252 0.0
C871 C 0.6014 0.69241 0.35689 0.0
H872 H 0.66742 0.66408 0.36768 0.0
C873 C 0.61274 0.61307 0.39789 0.0
C874 C 0.6262 0.6231 0.40902 0.0
C875 C 0.61342 0.62579 0.38544 0.0
C876 C 0.64885 0.6716 0.36464 0.0
H877 H 0.58674 0.75506 0.31797 0.0
H878 H 0.58768 0.71533 0.33146 0.0
H879 H 0.66544 0.69549 0.34942 0.0
H880 H 0.65199 0.65328 0.4157 0.0
H881 H 0.65433 0.67468 0.39376 0.0
H882 H 0.58499 0.66834 0.37226 0.0
C883 C 0.60327 0.72905 0.33251 0.0
C884 C 0.64766 0.68975 0.35426 0.0
C885 C 0.60276 0.75173 0.32473 0.0
C886 C 0.64173 0.64498 0.40724 0.0
C887 C 0.64298 0.65725 0.39472 0.0
C888 C 0.60257 0.67382 0.36712 0.0
C889 C 0.62368 0.72425 0.34156 0.0
C890 C 0.62406 0.70127 0.35063 0.0
C891 C 0.62815 0.64829 0.38384 0.0
C892 C 0.62641 0.66396 0.37139 0.0
H893 H 0.65876 0.77847 0.33606 0.0
H894 H 0.65923 0.74006 0.34959 0.0
H895 H 0.58292 0.70087 0.35446 0.0
H896 H 0.60021 0.59653 0.39907 0.0
H897 H 0.60181 0.61857 0.37719 0.0
C898 C 0.12127 0.89641 0.14322 0.0
C899 C 0.12077 0.87642 0.15273 0.0
C900 C 0.10744 0.89397 0.13111 0.0
C901 C 0.054 0.85477 0.11648 0.0
H902 H 0.0745 0.88671 0.08284 0.0
C903 C 0.99368 0.84005 0.06914 0.0
C904 C 0.98393 0.8636 0.06445 0.0
C905 C 0.01511 0.8397 0.07769 0.0
C906 C 0.06875 0.87751 0.09217 0.0
H907 H 0.10744 0.83754 0.15669 0.0
H908 H 0.08483 0.83273 0.13558 0.0
H909 H 0.10242 0.89052 0.10267 0.0
H910 H 0.99017 0.90489 0.06382 0.0
H911 H 0.02792 0.90419 0.07846 0.0
H912 H 0.02051 0.84168 0.10602 0.0
C913 C 0.09436 0.8509 0.13758 0.0
C914 C 0.08455 0.87992 0.10356 0.0
C915 C 0.10746 0.8536 0.1497 0.0
C916 C 0.99734 0.88648 0.06736 0.0
C917 C 0.01898 0.88608 0.07568 0.0
C918 C 0.03858 0.85198 0.10509 0.0
C919 C 0.09351 0.87124 0.12824 0.0
C920 C 0.07728 0.86867 0.1159 0.0
C921 C 0.02731 0.86285 0.08144 0.0
C922 C 0.04566 0.86345 0.09286 0.0
H923 H 0.13166 0.91406 0.14532 0.0
H924 H 0.10717 0.9101 0.12419 0.0
H925 H 0.04722 0.84648 0.12584 0.0
H926 H 0.98357 0.8222 0.0671 0.0
H927 H 0.02129 0.82152 0.08198 0.0
C928 C 0.6853 0.70909 0.83951 0.0
C929 C 0.67055 0.71529 0.8281 0.0
C930 C 0.6885 0.72708 0.8499 0.0
C931 C 0.68219 0.79599 0.85911 0.0
H932 H 0.66028 0.76934 0.89372 0.0
C933 C 0.64601 0.86154 0.90244 0.0
C934 C 0.64777 0.85242 0.91571 0.0
C935 C 0.65473 0.84632 0.89169 0.0
C936 C 0.66712 0.77718 0.88427 0.0
H937 H 0.6491 0.74575 0.81819 0.0
H938 H 0.65501 0.77717 0.8362 0.0
H939 H 0.66587 0.74004 0.87494 0.0
H940 H 0.66193 0.82153 0.92835 0.0
H941 H 0.67858 0.79577 0.90981 0.0
H942 H 0.68331 0.83322 0.86842 0.0
C943 C 0.66397 0.75841 0.83718 0.0
C944 C 0.67023 0.76026 0.87345 0.0
C945 C 0.66046 0.74034 0.8269 0.0
C946 C 0.66014 0.82885 0.91816 0.0
C947 C 0.6694 0.81397 0.9075 0.0
C948 C 0.67943 0.81295 0.87 0.0
C949 C 0.67737 0.75174 0.84896 0.0
C950 C 0.67734 0.7695 0.8607 0.0
C951 C 0.66581 0.82191 0.89406 0.0
C952 C 0.6714 0.80384 0.8827 0.0
H953 H 0.69327 0.68994 0.84074 0.0
H954 H 0.69907 0.72149 0.85885 0.0
H955 H 0.68783 0.80362 0.84939 0.0
H956 H 0.6363 0.87956 0.90029 0.0
H957 H 0.65141 0.85311 0.88152 0.0
C958 C 0.4906 0.34356 0.07327 0.0
C959 C 0.50258 0.3673 0.07068 0.0
C960 C 0.46824 0.34259 0.08116 0.0
C961 C 0.44101 0.34763 0.10812 0.0
H962 H 0.38792 0.4002 0.10976 0.0
C963 C 0.3968 0.37725 0.15793 0.0
C964 C 0.36983 0.37642 0.159 0.0
C965 C 0.4087 0.376 0.14538 0.0
C966 C 0.40243 0.38522 0.10933 0.0
H967 H 0.49938 0.40871 0.0731 0.0
H968 H 0.46059 0.40706 0.08673 0.0
H969 H 0.41457 0.39605 0.08946 0.0
H970 H 0.33416 0.37566 0.14762 0.0
H971 H 0.35524 0.374 0.12549 0.0
H972 H 0.42969 0.3375 0.12815 0.0
C973 C 0.46826 0.38917 0.08278 0.0
C974 C 0.41769 0.38287 0.09776 0.0
C975 C 0.49066 0.39011 0.07507 0.0
C976 C 0.35498 0.37635 0.14713 0.0
C977 C 0.36699 0.37527 0.13448 0.0
C978 C 0.42596 0.35014 0.11968 0.0
C979 C 0.4574 0.36538 0.0864 0.0
C980 C 0.43766 0.36452 0.09721 0.0
C981 C 0.39396 0.37408 0.13357 0.0
C982 C 0.40712 0.36947 0.12056 0.0
H983 H 0.49941 0.32571 0.06999 0.0
H984 H 0.46014 0.32398 0.0837 0.0
H985 H 0.45636 0.3335 0.10811 0.0
H986 H 0.40885 0.3776 0.16684 0.0
H987 H 0.42955 0.37573 0.14492 0.0
C988 C 0.88735 0.1218 0.39977 0.0
C989 C 0.89017 0.13529 0.41199 0.0
C990 C 0.88688 0.13519 0.38748 0.0
C991 C 0.91127 0.19524 0.37307 0.0
H992 H 0.85929 0.18815 0.34529 0.0
C993 C 0.865 0.26407 0.33122 0.0
C994 C 0.88722 0.2753 0.32564 0.0
C995 C 0.8667 0.2418 0.33903 0.0
C996 C 0.87409 0.19014 0.35291 0.0
H997 H 0.8928 0.17342 0.42092 0.0
H998 H 0.89196 0.19645 0.39966 0.0
H999 H 0.85847 0.15943 0.36492 0.0
H1000 H 0.92845 0.27105 0.32317 0.0
H1001 H 0.93149 0.23203 0.33698 0.0
H1002 H 0.92632 0.22654 0.36152 0.0
C1003 C 0.89064 0.17561 0.39952 0.0
C1004 C 0.87367 0.17364 0.36408 0.0
C1005 C 0.89096 0.16237 0.41171 0.0
C1006 C 0.91103 0.2629 0.32738 0.0
C1007 C 0.91276 0.24064 0.33532 0.0
C1008 C 0.91182 0.21154 0.3619 0.0
C1009 C 0.8894 0.16217 0.38727 0.0
C1010 C 0.89175 0.17668 0.37447 0.0
C1011 C 0.89068 0.23027 0.34153 0.0
C1012 C 0.89278 0.20973 0.3519 0.0
H1013 H 0.88673 0.10094 0.39966 0.0
H1014 H 0.88572 0.12443 0.37815 0.0
H1015 H 0.92567 0.19773 0.38086 0.0
H1016 H 0.84631 0.27302 0.32996 0.0
H1017 H 0.84936 0.23451 0.34375 0.0
C1018 C 0.11334 0.59546 0.65379 0.0
C1019 C 0.10534 0.59227 0.66718 0.0
C1020 C 0.09758 0.58716 0.64318 0.0
C1021 C 0.02827 0.57433 0.63717 0.0
H1022 H 0.05171 0.55973 0.60089 0.0
C1023 C 0.95682 0.56393 0.59321 0.0
C1024 C 0.96214 0.58087 0.58252 0.0
C1025 C 0.97554 0.55889 0.60301 0.0
C1026 C 0.04493 0.56363 0.611 0.0
H1027 H 0.07611 0.57587 0.68013 0.0
H1028 H 0.04946 0.55986 0.66176 0.0
H1029 H 0.08288 0.56121 0.61934 0.0
H1030 H 0.99169 0.60448 0.57322 0.0
H1031 H 0.02437 0.59543 0.59022 0.0
H1032 H 0.99042 0.57694 0.6288 0.0
C1033 C 0.06714 0.56985 0.6593 0.0
C1034 C 0.06277 0.56464 0.62158 0.0
C1035 C 0.08254 0.57873 0.66985 0.0
C1036 C 0.98696 0.59148 0.5814 0.0
C1037 C 0.00575 0.58615 0.59107 0.0
C1038 C 0.01048 0.57293 0.62666 0.0
C1039 C 0.07377 0.57508 0.64582 0.0
C1040 C 0.05475 0.57059 0.63477 0.0
C1041 C 1.00003 0.57035 0.60216 0.0
C1042 C 0.01866 0.56814 0.61343 0.0
H1043 H 0.13075 0.6061 0.65149 0.0
H1044 H 0.10335 0.59176 0.63298 0.0
H1045 H 0.02125 0.57959 0.64706 0.0
H1046 H 0.93788 0.55546 0.59434 0.0
H1047 H 0.97069 0.54654 0.61144 0.0
C1048 C 0.62269 0.12836 0.60542 0.0
C1049 C 0.62844 0.14179 0.59346 0.0
C1050 C 0.61979 0.14177 0.61763 0.0
C1051 C 0.59612 0.20351 0.62823 0.0
H1052 H 0.63173 0.19628 0.66235 0.0
C1053 C 0.60408 0.2862 0.66541 0.0
C1054 C 0.60424 0.28169 0.67933 0.0
C1055 C 0.60284 0.26574 0.65636 0.0
C1056 C 0.62116 0.19813 0.653 0.0
H1057 H 0.6382 0.17925 0.5852 0.0
H1058 H 0.63314 0.20238 0.60635 0.0
H1059 H 0.64067 0.16585 0.64395 0.0
H1060 H 0.6029 0.25247 0.69485 0.0
H1061 H 0.60066 0.21611 0.67887 0.0
H1062 H 0.5769 0.23584 0.63697 0.0
C1063 C 0.6305 0.18166 0.60628 0.0
C1064 C 0.62642 0.18082 0.64247 0.0
C1065 C 0.63354 0.16836 0.59419 0.0
C1066 C 0.60229 0.25633 0.68413 0.0
C1067 C 0.60133 0.23562 0.675 0.0
C1068 C 0.59071 0.22055 0.63871 0.0
C1069 C 0.62252 0.16871 0.61796 0.0
C1070 C 0.61461 0.18403 0.62986 0.0
C1071 C 0.60202 0.24014 0.661 0.0
C1072 C 0.60388 0.21874 0.65105 0.0
H1073 H 0.61847 0.10792 0.60517 0.0
H1074 H 0.61371 0.1314 0.62655 0.0
H1075 H 0.5864 0.20605 0.61866 0.0
H1076 H 0.60601 0.30562 0.6615 0.0
H1077 H 0.6039 0.27 0.64569 0.0
C1078 C 0.06416 0.33002 0.84097 0.0
C1079 C 0.08294 0.34896 0.83851 0.0
C1080 C 0.04619 0.33334 0.85132 0.0
C1081 C 0.01298 0.38181 0.87107 0.0
H1082 H 0.00817 0.3301 0.89919 0.0
C1083 C 0.95128 0.40069 0.91774 0.0
C1084 C 0.93675 0.38009 0.92284 0.0
C1085 C 0.97072 0.3963 0.90832 0.0
C1086 C 0.00896 0.34458 0.89134 0.0
H1087 H 0.09714 0.38651 0.8446 0.0
H1088 H 0.06519 0.39263 0.86237 0.0
H1089 H 0.03719 0.32329 0.88014 0.0
H1090 H 0.93163 0.33867 0.9225 0.0
H1091 H 0.96487 0.33097 0.90565 0.0
H1092 H 0.98427 0.40277 0.8818 0.0
C1093 C 0.06464 0.37512 0.85642 0.0
C1094 C 0.02563 0.34066 0.88046 0.0
C1095 C 0.08291 0.37159 0.84629 0.0
C1096 C 0.94275 0.35487 0.91881 0.0
C1097 C 0.96185 0.3505 0.90915 0.0
C1098 C 0.99601 0.38554 0.88178 0.0
C1099 C 0.04638 0.35589 0.85915 0.0
C1100 C 0.02789 0.35935 0.87031 0.0
C1101 C 0.97563 0.37126 0.90351 0.0
C1102 C 0.99393 0.36711 0.89215 0.0
H1103 H 0.06388 0.31232 0.83518 0.0
H1104 H 0.03214 0.31833 0.85322 0.0
H1105 H 0.01426 0.39637 0.86327 0.0
H1106 H 0.94716 0.42032 0.92079 0.0
H1107 H 0.98146 0.41269 0.90457 0.0
C1108 C 0.88135 0.83109 0.09223 0.0
C1109 C 0.88895 0.85704 0.09247 0.0
C1110 C 0.88252 0.81611 0.10387 0.0
C1111 C 0.88979 0.81619 0.14093 0.0
H1112 H 0.91769 0.74819 0.13376 0.0
C1113 C 0.9107 0.73546 0.18154 0.0
C1114 C 0.89741 0.71262 0.17837 0.0
C1115 C 0.91201 0.75569 0.17213 0.0
C1116 C 0.91005 0.76718 0.13594 0.0
H1117 H 0.90223 0.88816 0.10527 0.0
H1118 H 0.90454 0.86172 0.12576 0.0
H1119 H 0.91375 0.7791 0.11546 0.0
H1120 H 0.87558 0.6929 0.16281 0.0
H1121 H 0.87839 0.72757 0.14651 0.0
H1122 H 0.88593 0.8037 0.16152 0.0
C1123 C 0.89752 0.85306 0.11653 0.0
C1124 C 0.90755 0.78482 0.12544 0.0
C1125 C 0.8961 0.86822 0.10483 0.0
C1126 C 0.88588 0.71025 0.16562 0.0
C1127 C 0.88756 0.73007 0.15623 0.0
C1128 C 0.89246 0.79844 0.15153 0.0
C1129 C 0.89168 0.82658 0.11602 0.0
C1130 C 0.89659 0.80923 0.12769 0.0
C1131 C 0.90055 0.75299 0.15935 0.0
C1132 C 0.90191 0.77352 0.149 0.0
H1133 H 0.87549 0.82203 0.08288 0.0
H1134 H 0.87708 0.79599 0.10321 0.0
H1135 H 0.8814 0.83489 0.14299 0.0
H1136 H 0.91965 0.73784 0.19133 0.0
H1137 H 0.92217 0.77323 0.17473 0.0
C1138 C 0.53845 0.67068 0.4222 0.0
C1139 C 0.53603 0.64835 0.43007 0.0
C1140 C 0.5232 0.67389 0.41068 0.0
C1141 C 0.48884 0.63245 0.38628 0.0
H1142 H 0.46778 0.69731 0.37035 0.0
C1143 C 0.42312 0.6399 0.33959 0.0
C1144 C 0.42967 0.65816 0.3297 0.0
C1145 C 0.43676 0.63869 0.35169 0.0
C1146 C 0.47381 0.67909 0.37465 0.0
H1147 H 0.51433 0.6132 0.433 0.0
H1148 H 0.4866 0.61951 0.41348 0.0
H1149 H 0.48715 0.69699 0.39281 0.0
H1150 H 0.4562 0.68894 0.32458 0.0
H1151 H 0.48001 0.68686 0.34585 0.0
H1152 H 0.47513 0.61456 0.36821 0.0
C1153 C 0.50094 0.63403 0.41575 0.0
C1154 C 0.48485 0.67889 0.38752 0.0
C1155 C 0.5165 0.63059 0.42707 0.0
C1156 C 0.4508 0.67454 0.33197 0.0
C1157 C 0.46424 0.67357 0.34418 0.0
C1158 C 0.4776 0.63265 0.37351 0.0
C1159 C 0.50507 0.65496 0.40699 0.0
C1160 C 0.49242 0.65552 0.39352 0.0
C1161 C 0.45705 0.65592 0.35424 0.0
C1162 C 0.46995 0.65594 0.36756 0.0
H1163 H 0.55371 0.6844 0.4242 0.0
H1164 H 0.52699 0.69022 0.40418 0.0
H1165 H 0.49513 0.61414 0.39035 0.0
H1166 H 0.4069 0.62705 0.33814 0.0
H1167 H 0.43074 0.62495 0.35928 0.0
C1168 C 0.39724 0.16962 0.09744 0.0
C1169 C 0.3956 0.14257 0.09699 0.0
C1170 C 0.39529 0.18278 0.10963 0.0
C1171 C 0.37109 0.18005 0.14404 0.0
H1172 H 0.42085 0.23491 0.14944 0.0
C1173 C 0.39822 0.2694 0.18319 0.0
C1174 C 0.37364 0.28054 0.18414 0.0
C1175 C 0.40225 0.24775 0.175 0.0
C1176 C 0.40708 0.21939 0.14827 0.0
H1177 H 0.3895 0.10823 0.10903 0.0
H1178 H 0.38567 0.13155 0.13051 0.0
H1179 H 0.425 0.20639 0.1301 0.0
H1180 H 0.33369 0.27661 0.17805 0.0
H1181 H 0.34071 0.23915 0.16386 0.0
H1182 H 0.35274 0.19361 0.16206 0.0
C1183 C 0.3887 0.14237 0.12131 0.0
C1184 C 0.40929 0.20322 0.13709 0.0
C1185 C 0.39084 0.12906 0.10903 0.0
C1186 C 0.35293 0.26862 0.17746 0.0
C1187 C 0.3569 0.24695 0.16939 0.0
C1188 C 0.36877 0.19637 0.15523 0.0
C1189 C 0.39154 0.16934 0.12174 0.0
C1190 C 0.39092 0.18387 0.13463 0.0
C1191 C 0.38173 0.23671 0.16772 0.0
C1192 C 0.38638 0.21666 0.15727 0.0
H1193 H 0.40064 0.18077 0.08838 0.0
H1194 H 0.39693 0.2036 0.10958 0.0
H1195 H 0.35668 0.16528 0.14241 0.0
H1196 H 0.41455 0.27812 0.18823 0.0
H1197 H 0.42157 0.24014 0.17403 0.0
C1198 C 0.46916 0.62071 0.91722 0.0
C1199 C 0.45615 0.64141 0.9233 0.0
C1200 C 0.48688 0.62495 0.90695 0.0
C1201 C 0.53018 0.63755 0.88815 0.0
H1202 H 0.51128 0.68797 0.86109 0.0
C1203 C 0.59252 0.65299 0.84098 0.0
C1204 C 0.58038 0.65907 0.82873 0.0
C1205 C 0.57861 0.65244 0.85299 0.0
C1206 C 0.51669 0.6736 0.86847 0.0
H1207 H 0.45266 0.683 0.92388 0.0
H1208 H 0.48439 0.69059 0.90599 0.0
H1209 H 0.48627 0.68484 0.8818 0.0
H1210 H 0.54392 0.66895 0.81946 0.0
H1211 H 0.51921 0.66675 0.8404 0.0
H1212 H 0.55949 0.62514 0.8746 0.0
C1213 C 0.48038 0.67097 0.90906 0.0
C1214 C 0.50263 0.67215 0.88049 0.0
C1215 C 0.46248 0.66668 0.91942 0.0
C1216 C 0.55381 0.66413 0.82873 0.0
C1217 C 0.53973 0.66317 0.84078 0.0
C1218 C 0.54397 0.63875 0.8761 0.0
C1219 C 0.49231 0.65007 0.90247 0.0
C1220 C 0.50898 0.65384 0.89041 0.0
C1221 C 0.55202 0.6575 0.8531 0.0
C1222 C 0.53734 0.65665 0.86603 0.0
H1223 H 0.46478 0.60099 0.91999 0.0
H1224 H 0.49532 0.60832 0.90206 0.0
H1225 H 0.53592 0.62346 0.89562 0.0
H1226 H 0.61305 0.64941 0.84141 0.0
H1227 H 0.58895 0.64858 0.86224 0.0
C1228 C 0.12251 0.70569 0.66746 0.0
C1229 C 0.10723 0.70448 0.67912 0.0
C1230 C 0.12424 0.72831 0.66 0.0
C1231 C 0.09301 0.78945 0.65201 0.0
H1232 H 0.16113 0.80517 0.63816 0.0
C1233 C 0.11212 0.87009 0.61252 0.0
C1234 C 0.123 0.85944 0.60081 0.0
C1235 C 0.11196 0.856 0.62458 0.0
C1236 C 0.14205 0.80122 0.64207 0.0
H1237 H 0.08084 0.7259 0.6918 0.0
H1238 H 0.08381 0.76594 0.67855 0.0
H1239 H 0.15579 0.77089 0.65472 0.0
H1240 H 0.14346 0.82667 0.59261 0.0
H1241 H 0.14416 0.80259 0.6137 0.0
H1242 H 0.07929 0.81941 0.63892 0.0
C1243 C 0.09453 0.74915 0.67531 0.0
C1244 C 0.13894 0.78152 0.65149 0.0
C1245 C 0.09276 0.72626 0.68285 0.0
C1246 C 0.13513 0.83534 0.60153 0.0
C1247 C 0.13552 0.8216 0.6136 0.0
C1248 C 0.09617 0.80937 0.64261 0.0
C1249 C 0.11084 0.75051 0.66399 0.0
C1250 C 0.11427 0.77464 0.65612 0.0
C1251 C 0.12328 0.83141 0.62514 0.0
C1252 C 0.12061 0.81471 0.63717 0.0
H1253 H 0.1336 0.68918 0.66414 0.0
H1254 H 0.13631 0.72842 0.6511 0.0
H1255 H 0.07378 0.7846 0.65539 0.0
H1256 H 0.1023 0.88849 0.61213 0.0
H1257 H 0.10241 0.86395 0.63334 0.0
C1258 C 0.0153 0.37936 0.43251 0.0
C1259 C 0.0347 0.39697 0.42892 0.0
C1260 C 0.9918 0.37902 0.42552 0.0
C1261 C 0.95321 0.41681 0.40033 0.0
H1262 H 0.92773 0.34962 0.38962 0.0
C1263 C 0.90777 0.39203 0.34931 0.0
C1264 C 0.88457 0.37817 0.34919 0.0
C1265 C 0.9202 0.39735 0.36146 0.0
C1266 C 0.9343 0.36852 0.39275 0.0
H1267 H 0.04431 0.42839 0.41535 0.0
H1268 H 0.00429 0.42728 0.40309 0.0
H1269 H 0.96103 0.35272 0.40691 0.0
H1270 H 0.85583 0.35936 0.36159 0.0
H1271 H 0.87833 0.36784 0.38296 0.0
H1272 H 0.92793 0.43229 0.38528 0.0
C1273 C 0.00661 0.41414 0.41147 0.0
C1274 C 0.95334 0.37035 0.40269 0.0
C1275 C 0.02983 0.4146 0.41847 0.0
C1276 C 0.87356 0.37037 0.36147 0.0
C1277 C 0.88643 0.37507 0.37364 0.0
C1278 C 0.93457 0.41491 0.39023 0.0
C1279 C 0.98732 0.39621 0.41478 0.0
C1280 C 0.96373 0.39448 0.40625 0.0
C1281 C 0.91002 0.38831 0.37368 0.0
C1282 C 0.92553 0.39072 0.3861 0.0
H1283 H 0.01842 0.36558 0.44054 0.0
H1284 H 0.9773 0.36509 0.42843 0.0
H1285 H 0.96017 0.43577 0.40307 0.0
H1286 H 0.91665 0.39813 0.33996 0.0
H1287 H 0.9385 0.40739 0.36124 0.0
C1288 C 0.31833 0.71662 0.34006 0.0
C1289 C 0.33985 0.71831 0.33152 0.0
C1290 C 0.314 0.73541 0.34997 0.0
C1291 C 0.32115 0.76609 0.37585 0.0
H1292 H 0.34581 0.83611 0.37132 0.0
C1293 C 0.36011 0.82488 0.41991 0.0
C1294 C 0.35879 0.85195 0.41993 0.0
C1295 C 0.3507 0.81065 0.40907 0.0
C1296 C 0.3383 0.81684 0.37276 0.0
H1297 H 0.37328 0.74153 0.32647 0.0
H1298 H 0.36625 0.77351 0.34379 0.0
H1299 H 0.34153 0.80823 0.35176 0.0
H1300 H 0.34531 0.88523 0.40877 0.0
H1301 H 0.32842 0.86022 0.38978 0.0
H1302 H 0.31776 0.77474 0.39684 0.0
C1303 C 0.35226 0.75816 0.34274 0.0
C1304 C 0.33622 0.80066 0.36154 0.0
C1305 C 0.35646 0.73956 0.33284 0.0
C1306 C 0.34671 0.86441 0.40905 0.0
C1307 C 0.33718 0.85007 0.39814 0.0
C1308 C 0.32294 0.78235 0.38705 0.0
C1309 C 0.33118 0.75622 0.35158 0.0
C1310 C 0.32865 0.77475 0.36301 0.0
C1311 C 0.33951 0.823 0.39791 0.0
C1312 C 0.33259 0.80759 0.38574 0.0
H1313 H 0.30508 0.70057 0.33926 0.0
H1314 H 0.29739 0.73344 0.35647 0.0
H1315 H 0.31525 0.74631 0.37744 0.0
H1316 H 0.36919 0.81456 0.42812 0.0
H1317 H 0.35332 0.78995 0.40922 0.0
C1318 C 0.04447 0.55732 0.09492 0.0
C1319 C 0.03833 0.57133 0.08324 0.0
C1320 C 0.02622 0.5544 0.10521 0.0
C1321 C 0.95697 0.56093 0.11377 0.0
H1322 H 0.9825 0.58606 0.14801 0.0
C1323 C 0.89043 0.60282 0.15514 0.0
C1324 C 0.89886 0.60216 0.16856 0.0
C1325 C 0.90594 0.59271 0.14485 0.0
C1326 C 0.97497 0.57834 0.13867 0.0
H1327 H 0.00782 0.59157 0.07272 0.0
H1328 H 0.97603 0.58617 0.09054 0.0
H1329 H 0.01241 0.57843 0.12971 0.0
H1330 H 0.92877 0.58855 0.18198 0.0
H1331 H 0.95505 0.56964 0.16426 0.0
H1332 H 0.91942 0.56112 0.12269 0.0
C1333 C 0.99487 0.57757 0.09182 0.0
C1334 C 0.99224 0.57403 0.12814 0.0
C1335 C 0.01316 0.58081 0.08165 0.0
C1336 C 0.92201 0.58956 0.17166 0.0
C1337 C 0.93718 0.57896 0.16147 0.0
C1338 C 0.93966 0.56494 0.12439 0.0
C1339 C 0.00143 0.56505 0.10388 0.0
C1340 C 0.9834 0.56581 0.11549 0.0
C1341 C 0.92993 0.58134 0.14786 0.0
C1342 C 0.94836 0.57423 0.13692 0.0
H1343 H 0.06373 0.54985 0.09643 0.0
H1344 H 0.03174 0.54451 0.11438 0.0
H1345 H 0.94964 0.55443 0.10413 0.0
H1346 H 0.87272 0.61263 0.15249 0.0
H1347 H 0.89972 0.59514 0.13452 0.0
C1348 C 0.17788 0.27381 0.84221 0.0
C1349 C 0.18394 0.29984 0.84456 0.0
C1350 C 0.18308 0.25512 0.85193 0.0
C1351 C 0.18664 0.24964 0.88827 0.0
H1352 H 0.20483 0.17861 0.88064 0.0
C1353 C 0.17372 0.17385 0.9291 0.0
C1354 C 0.16116 0.15122 0.92501 0.0
C1355 C 0.18481 0.19027 0.91962 0.0
C1356 C 0.19968 0.19834 0.88294 0.0
H1357 H 0.20159 0.32648 0.85862 0.0
H1358 H 0.21053 0.29368 0.87576 0.0
H1359 H 0.20965 0.21137 0.8631 0.0
H1360 H 0.15159 0.12707 0.90797 0.0
H1361 H 0.1701 0.15624 0.89121 0.0
H1362 H 0.17526 0.23675 0.90775 0.0
C1363 C 0.20164 0.28785 0.86637 0.0
C1364 C 0.20254 0.21712 0.87291 0.0
C1365 C 0.19662 0.30659 0.85655 0.0
C1366 C 0.16136 0.14435 0.91135 0.0
C1367 C 0.17202 0.1611 0.90178 0.0
C1368 C 0.18361 0.23092 0.89823 0.0
C1369 C 0.19433 0.26202 0.86428 0.0
C1370 C 0.19549 0.24287 0.87539 0.0
C1371 C 0.18298 0.18477 0.90577 0.0
C1372 C 0.18956 0.20491 0.89563 0.0
H1373 H 0.16829 0.26794 0.83301 0.0
H1374 H 0.17697 0.23548 0.85005 0.0
H1375 H 0.1806 0.26919 0.89044 0.0
H1376 H 0.17402 0.1794 0.93963 0.0
H1377 H 0.19377 0.20789 0.92311 0.0
C1378 C 0.4697 0.38002 0.58945 0.0
C1379 C 0.46943 0.36442 0.57786 0.0
C1380 C 0.49165 0.38194 0.59743 0.0
C1381 C 0.55204 0.34987 0.60674 0.0
H1382 H 0.56633 0.41696 0.62236 0.0
C1383 C 0.63085 0.36523 0.64743 0.0
C1384 C 0.62042 0.37585 0.65926 0.0
C1385 C 0.617 0.36619 0.6353 0.0
C1386 C 0.56272 0.39815 0.61801 0.0
H1387 H 0.49205 0.338 0.56579 0.0
H1388 H 0.53087 0.34137 0.57991 0.0
H1389 H 0.53327 0.41277 0.60506 0.0
H1390 H 0.58827 0.39712 0.66756 0.0
H1391 H 0.56464 0.39973 0.64637 0.0
H1392 H 0.58125 0.33527 0.62001 0.0
C1393 C 0.51384 0.35213 0.58272 0.0
C1394 C 0.5437 0.39568 0.60815 0.0
C1395 C 0.49164 0.35018 0.57465 0.0
C1396 C 0.59685 0.38901 0.65856 0.0
C1397 C 0.58333 0.39046 0.64642 0.0
C1398 C 0.57129 0.35239 0.61657 0.0
C1399 C 0.51416 0.36841 0.59409 0.0
C1400 C 0.53741 0.37137 0.60277 0.0
C1401 C 0.59281 0.37831 0.63477 0.0
C1402 C 0.57618 0.37643 0.62263 0.0
H1403 H 0.4529 0.39103 0.59239 0.0
H1404 H 0.49087 0.39402 0.60632 0.0
H1405 H 0.54766 0.33088 0.60284 0.0
H1406 H 0.64877 0.35457 0.64775 0.0
H1407 H 0.62478 0.35674 0.62646 0.0
C1408 C 0.30457 0.31233 0.23187 0.0
C1409 C 0.29377 0.3222 0.21996 0.0
C1410 C 0.29023 0.29643 0.24033 0.0
C1411 C 0.23561 0.25166 0.23964 0.0
H1412 H 0.24366 0.25389 0.27848 0.0
C1413 C 0.17688 0.18874 0.27683 0.0
C1414 C 0.19013 0.17852 0.28798 0.0
C1415 C 0.18913 0.20575 0.26802 0.0
C1416 C 0.24145 0.25286 0.26764 0.0
H1417 H 0.25905 0.32401 0.20785 0.0
H1418 H 0.23374 0.29633 0.22281 0.0
H1419 H 0.26396 0.28687 0.26461 0.0
H1420 H 0.22697 0.17718 0.29825 0.0
H1421 H 0.2484 0.20684 0.28279 0.0
H1422 H 0.21299 0.21761 0.24274 0.0
C1423 C 0.2535 0.30066 0.22545 0.0
C1424 C 0.25299 0.2718 0.25969 0.0
C1425 C 0.2679 0.31668 0.21696 0.0
C1426 C 0.21622 0.18475 0.28977 0.0
C1427 C 0.22843 0.2019 0.281 0.0
C1428 C 0.22394 0.23276 0.24761 0.0
C1429 C 0.26469 0.29002 0.23711 0.0
C1430 C 0.25048 0.27124 0.24559 0.0
C1431 C 0.21483 0.213 0.27021 0.0
C1432 C 0.22701 0.23301 0.26168 0.0
H1433 H 0.32443 0.31623 0.23451 0.0
H1434 H 0.29955 0.28835 0.24913 0.0
H1435 H 0.23361 0.25046 0.22879 0.0
H1436 H 0.15676 0.18427 0.27514 0.0
H1437 H 0.17814 0.21406 0.25982 0.0
C1438 C 0.06735 0.92348 0.52547 0.0
C1439 C 0.07709 0.9343 0.53742 0.0
C1440 C 0.05159 0.93788 0.51693 0.0
C1441 C 0.00648 0.99203 0.5182 0.0
H1442 H 0.00956 0.98856 0.4792 0.0
C1443 C 0.94926 0.0603 0.48384 0.0
C1444 C 0.93954 0.05091 0.47156 0.0
C1445 C 0.96451 0.04476 0.49205 0.0
C1446 C 0.00819 0.98938 0.49008 0.0
H1447 H 0.07907 0.96921 0.5494 0.0
H1448 H 0.05166 0.99449 0.53439 0.0
H1449 H 0.04149 0.96552 0.49265 0.0
H1450 H 0.93719 0.01739 0.45858 0.0
H1451 H 0.96373 0.98997 0.47308 0.0
H1452 H 0.9732 0.01581 0.51567 0.0
C1453 C 0.05595 0.97469 0.53176 0.0
C1454 C 0.02657 0.97632 0.49777 0.0
C1455 C 0.07186 0.9603 0.54028 0.0
C1456 C 0.94438 0.02516 0.46798 0.0
C1457 C 0.95979 0.00957 0.47621 0.0
C1458 C 0.98808 0.00501 0.51051 0.0
C1459 C 0.04513 0.96342 0.52017 0.0
C1460 C 0.02602 0.97766 0.51192 0.0
C1461 C 0.97045 0.0194 0.4882 0.0
C1462 C 0.98882 0.004 0.49636 0.0
H1463 H 0.07108 0.90351 0.52295 0.0
H1464 H 0.04348 0.92861 0.50812 0.0
H1465 H 0.00519 0.99296 0.52908 0.0
H1466 H 0.94584 0.08003 0.48693 0.0
H1467 H 0.97257 0.05305 0.50113 0.0
C1468 C 0.1737 0.68596 0.73036 0.0
C1469 C 0.1842 0.67429 0.71881 0.0
C1470 C 0.1885 0.70239 0.7383 0.0
C1471 C 0.24457 0.74504 0.73691 0.0
H1472 H 0.24019 0.74202 0.7759 0.0
C1473 C 0.31303 0.80091 0.77201 0.0
C1474 C 0.3033 0.81079 0.78418 0.0
C1475 C 0.29759 0.78592 0.76361 0.0
C1476 C 0.24129 0.7434 0.76503 0.0
H1477 H 0.21869 0.67034 0.70669 0.0
H1478 H 0.24477 0.69922 0.72069 0.0
H1479 H 0.21642 0.71094 0.76233 0.0
H1480 H 0.26931 0.8137 0.79677 0.0
H1481 H 0.2421 0.78766 0.78194 0.0
H1482 H 0.26944 0.77753 0.73961 0.0
C1483 C 0.22492 0.69568 0.72348 0.0
C1484 C 0.2278 0.72549 0.75726 0.0
C1485 C 0.21008 0.67903 0.71553 0.0
C1486 C 0.27738 0.80633 0.78747 0.0
C1487 C 0.26188 0.79124 0.77904 0.0
C1488 C 0.25803 0.763 0.74469 0.0
C1489 C 0.21418 0.70766 0.73489 0.0
C1490 C 0.2293 0.72611 0.74312 0.0
C1491 C 0.27201 0.78045 0.76716 0.0
C1492 C 0.25658 0.76235 0.75884 0.0
H1493 H 0.15383 0.68269 0.73321 0.0
H1494 H 0.17958 0.71152 0.74694 0.0
H1495 H 0.24575 0.74626 0.72603 0.0
H1496 H 0.3329 0.80405 0.76912 0.0
H1497 H 0.30608 0.77774 0.7546 0.0
C1498 C 0.44423 0.03277 0.03868 0.0
C1499 C 0.44271 0.05935 0.03606 0.0
C1500 C 0.45817 0.01653 0.03008 0.0
C1501 C 0.48782 0.01308 0.99596 0.0
H1502 H 0.53205 0.96206 0.01265 0.0
C1503 C 0.56669 0.95817 0.96623 0.0
C1504 C 0.56843 0.93154 0.96868 0.0
C1505 C 0.55118 0.9738 0.9744 0.0
C1506 C 0.51964 0.97606 0.00782 0.0
H1507 H 0.45392 0.08951 0.02207 0.0
H1508 H 0.47826 0.0614 0.00726 0.0
H1509 H 0.50387 0.98833 0.02667 0.0
H1510 H 0.55553 0.90057 0.98177 0.0
H1511 H 0.52864 0.92772 0.99589 0.0
H1512 H 0.50385 1.00092 0.97711 0.0
C1513 C 0.46854 0.05296 0.01585 0.0
C1514 C 0.50339 0.99106 0.01585 0.0
C1515 C 0.45465 0.06914 0.02441 0.0
C1516 C 0.55468 0.92101 0.97958 0.0
C1517 C 0.53933 0.9366 0.98774 0.0
C1518 C 0.50415 0.99813 0.98792 0.0
C1519 C 0.47084 0.02652 0.01867 0.0
C1520 C 0.48729 0.00979 0.01003 0.0
C1521 C 0.53724 0.96315 0.98521 0.0
C1522 C 0.52026 0.97945 0.99376 0.0
H1523 H 0.43523 0.0246 0.04755 0.0
H1524 H 0.45921 0.99618 0.03244 0.0
H1525 H 0.47545 0.02709 0.99111 0.0
H1526 H 0.57702 0.96689 0.95792 0.0
H1527 H 0.55018 0.99426 0.97228 0.0
C1528 C 0.3597 0.73041 0.26309 0.0
C1529 C 0.34618 0.71531 0.27252 0.0
C1530 C 0.34652 0.74784 0.25479 0.0
C1531 C 0.28815 0.78673 0.25452 0.0
H1532 H 0.29343 0.78744 0.21555 0.0
C1533 C 0.20924 0.82939 0.22147 0.0
C1534 C 0.21552 0.84186 0.20934 0.0
C1535 C 0.22823 0.81752 0.22918 0.0
C1536 C 0.29214 0.78789 0.22644 0.0
H1537 H 0.30819 0.70616 0.28032 0.0
H1538 H 0.28548 0.7366 0.266 0.0
H1539 H 0.32136 0.75893 0.22872 0.0
H1540 H 0.24692 0.85228 0.196 0.0
H1541 H 0.28036 0.83159 0.20964 0.0
H1542 H 0.25891 0.81538 0.25239 0.0
C1543 C 0.30621 0.73505 0.26507 0.0
C1544 C 0.30805 0.7715 0.23395 0.0
C1545 C 0.31924 0.71749 0.2732 0.0
C1546 C 0.24146 0.84283 0.2053 0.0
C1547 C 0.26057 0.83084 0.21305 0.0
C1548 C 0.27248 0.80323 0.24707 0.0
C1549 C 0.31972 0.75068 0.25596 0.0
C1550 C 0.30558 0.77023 0.24802 0.0
C1551 C 0.25409 0.81783 0.22502 0.0
C1552 C 0.27366 0.8034 0.23292 0.0
H1553 H 0.38046 0.72914 0.26231 0.0
H1554 H 0.35733 0.75966 0.2478 0.0
H1555 H 0.28625 0.78646 0.2654 0.0
H1556 H 0.18947 0.82824 0.2249 0.0
H1557 H 0.22244 0.80732 0.23821 0.0
C1558 C 0.43247 0.96689 0.46848 0.0
C1559 C 0.43198 0.94043 0.47153 0.0
C1560 C 0.44773 0.98383 0.47609 0.0
C1561 C 0.4819 0.98942 0.50883 0.0
H1562 H 0.52445 0.0394 0.49019 0.0
C1563 C 0.565 0.04187 0.53573 0.0
C1564 C 0.56768 0.06843 0.53331 0.0
C1565 C 0.54829 0.02696 0.52789 0.0
C1566 C 0.5125 0.02574 0.49556 0.0
H1567 H 0.44666 0.91117 0.48516 0.0
H1568 H 0.47306 0.94046 0.49826 0.0
H1569 H 0.49411 0.01298 0.47741 0.0
H1570 H 0.55539 0.09996 0.52045 0.0
H1571 H 0.52624 0.07397 0.50683 0.0
H1572 H 0.50032 0.00197 0.52696 0.0
C1573 C 0.46161 0.94828 0.4901 0.0
C1574 C 0.49505 0.01065 0.48824 0.0
C1575 C 0.44654 0.93142 0.48251 0.0
C1576 C 0.55384 0.07955 0.5226 0.0
C1577 C 0.53716 0.06463 0.51474 0.0
C1578 C 0.49931 0.00446 0.51614 0.0
C1579 C 0.46261 0.97465 0.48694 0.0
C1580 C 0.47975 0.9921 0.49477 0.0
C1581 C 0.53388 0.03823 0.51742 0.0
C1582 C 0.51503 0.02262 0.50959 0.0
H1583 H 0.42151 0.97444 0.46008 0.0
H1584 H 0.4479 0.00409 0.47347 0.0
H1585 H 0.47008 0.97564 0.51422 0.0
H1586 H 0.5754 0.03265 0.54387 0.0
H1587 H 0.54657 0.00658 0.53007 0.0
C1588 C 0.17564 0.28433 0.77766 0.0
C1589 C 0.18429 0.30494 0.78565 0.0
C1590 C 0.19303 0.27016 0.76987 0.0
C1591 C 0.26194 0.25362 0.76834 0.0
H1592 H 0.24524 0.22919 0.73248 0.0
C1593 C 0.33597 0.20402 0.73317 0.0
C1594 C 0.32698 0.1835 0.72521 0.0
C1595 C 0.31881 0.21841 0.74101 0.0
C1596 C 0.25006 0.23561 0.74256 0.0
H1597 H 0.2178 0.32758 0.79125 0.0
H1598 H 0.24795 0.30311 0.77755 0.0
H1599 H 0.21451 0.2561 0.74459 0.0
H1600 H 0.29317 0.16115 0.71979 0.0
H1601 H 0.26347 0.18596 0.73357 0.0
H1602 H 0.29749 0.2331 0.7663 0.0
C1603 C 0.22785 0.29756 0.77751 0.0
C1604 C 0.23247 0.25106 0.74948 0.0
C1605 C 0.2105 0.3117 0.78528 0.0
C1606 C 0.30072 0.17699 0.72571 0.0
C1607 C 0.28363 0.19132 0.73353 0.0
C1608 C 0.27954 0.23816 0.76142 0.0
C1609 C 0.21941 0.27633 0.76992 0.0
C1610 C 0.2382 0.26022 0.76245 0.0
C1611 C 0.29237 0.21253 0.74104 0.0
C1612 C 0.27376 0.22893 0.74847 0.0
H1613 H 0.15558 0.2786 0.77774 0.0
H1614 H 0.18596 0.2538 0.76418 0.0
H1615 H 0.26675 0.26003 0.77842 0.0
H1616 H 0.35607 0.20956 0.73298 0.0
H1617 H 0.32612 0.23473 0.74665 0.0
C1618 C 0.07102 0.04232 0.96908 0.0
C1619 C 0.07351 0.0685 0.97248 0.0
C1620 C 0.05394 0.02643 0.97618 0.0
C1621 C 0.01839 0.02174 0.00838 0.0
H1622 H 0.9734 0.97557 0.98864 0.0
C1623 C 0.93653 0.96717 0.0351 0.0
C1624 C 0.93421 0.94088 0.03192 0.0
C1625 C 0.95191 0.98337 0.02721 0.0
C1626 C 0.98595 0.98822 0.99431 0.0
H1627 H 0.06039 0.09835 0.9862 0.0
H1628 H 0.03083 0.07078 0.99849 0.0
H1629 H 0.00503 1.00146 0.97645 0.0
H1630 H 0.94519 0.91132 0.01754 0.0
H1631 H 0.97204 0.93943 0.00392 0.0
H1632 H 0.99957 0.00845 0.02623 0.0
C1633 C 0.0421 0.06243 0.99041 0.0
C1634 C 0.00413 0.00298 0.98733 0.0
C1635 C 0.05899 0.07828 0.98329 0.0
C1636 C 0.94656 0.93147 0.0203 0.0
C1637 C 0.96191 0.94764 0.01243 0.0
C1638 C 1.00028 0.00697 0.01535 0.0
C1639 C 0.0392 0.03638 0.98689 0.0
C1640 C 0.02051 0.01995 0.99429 0.0
C1641 C 0.96528 0.97364 0.01597 0.0
C1642 C 0.98381 0.99005 0.00841 0.0
H1643 H 0.0819 0.03421 0.96079 0.0
H1644 H 0.0523 0.00634 0.97333 0.0
H1645 H 0.03097 0.03437 0.01406 0.0
H1646 H 0.92723 0.97506 0.04396 0.0
H1647 H 0.95372 0.00344 0.03006 0.0
C1648 C 0.76329 0.85174 0.70686 0.0
C1649 C 0.78947 0.85028 0.71043 0.0
C1650 C 0.74471 0.83795 0.71416 0.0
C1651 C 0.73512 0.8033 0.74665 0.0
H1652 H 0.68351 0.76433 0.72705 0.0
C1653 C 0.6871 0.71477 0.76943 0.0
C1654 C 0.66003 0.714 0.76946 0.0
C1655 C 0.70024 0.73294 0.76171 0.0
C1656 C 0.69763 0.77536 0.73265 0.0
H1657 H 0.8165 0.83363 0.72466 0.0
H1658 H 0.78449 0.8096 0.73715 0.0
H1659 H 0.71126 0.79473 0.71494 0.0
H1660 H 0.62561 0.73095 0.76081 0.0
H1661 H 0.64889 0.76258 0.747 0.0
H1662 H 0.72226 0.78319 0.76423 0.0
C1663 C 0.77808 0.82161 0.72888 0.0
C1664 C 0.71346 0.79284 0.72575 0.0
C1665 C 0.79653 0.83531 0.72163 0.0
C1666 C 0.64646 0.73106 0.76102 0.0
C1667 C 0.65973 0.74914 0.75313 0.0
C1668 C 0.71956 0.78572 0.75348 0.0
C1669 C 0.75195 0.82253 0.7252 0.0
C1670 C 0.73284 0.80654 0.73264 0.0
C1671 C 0.68672 0.75065 0.7537 0.0
C1672 C 0.70109 0.77114 0.74651 0.0
H1673 H 0.75721 0.86306 0.69826 0.0
H1674 H 0.72473 0.83927 0.71113 0.0
H1675 H 0.74936 0.81399 0.75234 0.0
H1676 H 0.69824 0.7019 0.77574 0.0
H1677 H 0.72108 0.73341 0.76215 0.0
C1678 C 0.6829 0.19189 0.23498 0.0
C1679 C 0.69343 0.17916 0.22375 0.0
C1680 C 0.69818 0.20776 0.24304 0.0
C1681 C 0.75742 0.24659 0.24175 0.0
H1682 H 0.7483 0.25001 0.28049 0.0
C1683 C 0.82427 0.3052 0.27687 0.0
C1684 C 0.81306 0.31804 0.28789 0.0
C1685 C 0.80952 0.28905 0.26868 0.0
C1686 C 0.75083 0.24953 0.26966 0.0
H1687 H 0.72857 0.17238 0.2125 0.0
H1688 H 0.75541 0.19992 0.22673 0.0
H1689 H 0.72403 0.21848 0.26744 0.0
H1690 H 0.77727 0.32478 0.29859 0.0
H1691 H 0.75143 0.29673 0.28416 0.0
H1692 H 0.78426 0.27764 0.24399 0.0
C1693 C 0.73518 0.19788 0.22914 0.0
C1694 C 0.73699 0.23139 0.26218 0.0
C1695 C 0.71986 0.18193 0.22106 0.0
C1696 C 0.78652 0.31515 0.2902 0.0
C1697 C 0.77176 0.2989 0.28201 0.0
C1698 C 0.77129 0.26472 0.24923 0.0
C1699 C 0.7244 0.21131 0.2401 0.0
C1700 C 0.74004 0.22976 0.24813 0.0
C1701 C 0.78321 0.2853 0.27131 0.0
C1702 C 0.76809 0.26645 0.26327 0.0
H1703 H 0.66261 0.19022 0.23735 0.0
H1704 H 0.68918 0.21799 0.25131 0.0
H1705 H 0.75989 0.24616 0.23091 0.0
H1706 H 0.84467 0.30699 0.27479 0.0
H1707 H 0.81898 0.27874 0.26058 0.0
C1708 C 0.77812 0.182 0.79315 0.0
C1709 C 0.8037 0.17751 0.7892 0.0
C1710 C 0.7611 0.19487 0.78447 0.0
C1711 C 0.75305 0.21657 0.74885 0.0
H1712 H 0.71442 0.27278 0.76477 0.0
C1713 C 0.71213 0.29996 0.71696 0.0
C1714 C 0.68671 0.30758 0.71972 0.0
C1715 C 0.72496 0.28291 0.72558 0.0
C1716 C 0.72488 0.25699 0.76019 0.0
H1717 H 0.831 0.18144 0.77277 0.0
H1718 H 0.80168 0.20373 0.75782 0.0
H1719 H 0.73778 0.2429 0.77931 0.0
H1720 H 0.65514 0.30384 0.73393 0.0
H1721 H 0.67759 0.27431 0.74895 0.0
H1722 H 0.74068 0.23108 0.72972 0.0
C1723 C 0.79453 0.19738 0.76752 0.0
C1724 C 0.73814 0.23977 0.76852 0.0
C1725 C 0.81144 0.18473 0.77616 0.0
C1726 C 0.67471 0.29835 0.73148 0.0
C1727 C 0.68759 0.28148 0.74013 0.0
C1728 C 0.73992 0.23386 0.74053 0.0
C1729 C 0.76934 0.20321 0.77166 0.0
C1730 C 0.75272 0.21957 0.76294 0.0
C1731 C 0.71273 0.27329 0.73719 0.0
C1732 C 0.72599 0.25448 0.74609 0.0
H1733 H 0.77164 0.17672 0.80315 0.0
H1734 H 0.7417 0.1988 0.78789 0.0
H1735 H 0.76373 0.20098 0.74422 0.0
H1736 H 0.72192 0.3067 0.70799 0.0
H1737 H 0.74448 0.27723 0.72315 0.0
C1738 C 0.72066 0.81268 0.28867 0.0
C1739 C 0.69395 0.81447 0.28659 0.0
C1740 C 0.73595 0.79775 0.28005 0.0
C1741 C 0.73102 0.74291 0.25642 0.0
H1742 H 0.79905 0.7645 0.24505 0.0
C1743 C 0.79182 0.68535 0.21759 0.0
C1744 C 0.81837 0.68356 0.22015 0.0
C1745 C 0.77622 0.70146 0.22546 0.0
C1746 C 0.78018 0.75805 0.24825 0.0
H1747 H 0.66259 0.80283 0.27344 0.0
H1748 H 0.6892 0.77722 0.25843 0.0
H1749 H 0.77316 0.79306 0.25908 0.0
H1750 H 0.84918 0.69675 0.23326 0.0
H1751 H 0.82207 0.72429 0.247 0.0
H1752 H 0.7381 0.70782 0.24568 0.0
C1753 C 0.69829 0.78687 0.26686 0.0
C1754 C 0.76535 0.77445 0.25629 0.0
C1755 C 0.68306 0.80174 0.27544 0.0
C1756 C 0.82884 0.69778 0.23091 0.0
C1757 C 0.81331 0.71377 0.23875 0.0
C1758 C 0.74586 0.72649 0.24839 0.0
C1759 C 0.72484 0.7843 0.26918 0.0
C1760 C 0.74061 0.76706 0.2605 0.0
C1761 C 0.78687 0.71608 0.23605 0.0
C1762 C 0.77068 0.7338 0.24426 0.0
H1763 H 0.72964 0.82217 0.29719 0.0
H1764 H 0.75634 0.79605 0.28217 0.0
H1765 H 0.71218 0.73643 0.25966 0.0
H1766 H 0.78317 0.67472 0.20936 0.0
H1767 H 0.75593 0.70291 0.22306 0.0
C1768 C 0.5505 0.47128 0.04127 0.0
C1769 C 0.55394 0.44507 0.03817 0.0
C1770 C 0.5378 0.48764 0.0322 0.0
C1771 C 0.51635 0.4923 0.99648 0.0
H1772 H 0.4636 0.53749 0.01081 0.0
C1773 C 0.43665 0.53567 0.96305 0.0
C1774 C 0.43069 0.56182 0.965 0.0
C1775 C 0.45289 0.52279 0.97205 0.0
C1776 C 0.47845 0.52518 0.00666 0.0
H1777 H 0.54756 0.41575 0.0229 0.0
H1778 H 0.52541 0.44396 0.00732 0.0
H1779 H 0.49128 0.51352 0.02625 0.0
H1780 H 0.43677 0.59482 0.97808 0.0
H1781 H 0.46499 0.57229 0.99376 0.0
H1782 H 0.50315 0.50352 0.97691 0.0
C1783 C 0.53264 0.45208 0.01664 0.0
C1784 C 0.49439 0.51153 0.01551 0.0
C1785 C 0.54521 0.43581 0.02566 0.0
C1786 C 0.44097 0.57466 0.97627 0.0
C1787 C 0.45707 0.56174 0.9853 0.0
C1788 C 0.50036 0.50583 0.98766 0.0
C1789 C 0.52846 0.47811 0.01984 0.0
C1790 C 0.51328 0.49463 0.01052 0.0
C1791 C 0.46339 0.53573 0.98323 0.0
C1792 C 0.481 0.52216 0.99265 0.0
H1793 H 0.55701 0.47899 0.05082 0.0
H1794 H 0.5351 0.50768 0.0349 0.0
H1795 H 0.53102 0.47981 0.9923 0.0
H1796 H 0.42905 0.52521 0.95448 0.0
H1797 H 0.45714 0.50263 0.97029 0.0
C1798 C 0.09309 0.49749 0.45798 0.0
C1799 C 0.09044 0.47114 0.46109 0.0
C1800 C 0.07852 0.51602 0.46489 0.0
C1801 C 0.01642 0.52177 0.4808 0.0
H1802 H 0.04229 0.58002 0.50119 0.0
C1803 C 0.95592 0.57018 0.5214 0.0
C1804 C 0.95797 0.59683 0.52367 0.0
C1805 C 0.97194 0.55793 0.51215 0.0
C1806 C 0.0347 0.56417 0.4953 0.0
H1807 H 0.07157 0.44384 0.47444 0.0
H1808 H 0.04615 0.47599 0.48624 0.0
H1809 H 0.07231 0.55302 0.48835 0.0
H1810 H 0.97808 0.63165 0.5177 0.0
H1811 H 0.00599 0.61014 0.50129 0.0
H1812 H 0.97897 0.53252 0.48763 0.0
C1813 C 0.05933 0.48227 0.47843 0.0
C1814 C 0.05191 0.54871 0.48802 0.0
C1815 C 0.07401 0.4639 0.4717 0.0
C1816 C 0.97602 0.61109 0.51618 0.0
C1817 C 0.99212 0.59875 0.50685 0.0
C1818 C 0.99926 0.5373 0.4879 0.0
C1819 C 0.06093 0.50837 0.47486 0.0
C1820 C 0.04293 0.52693 0.48108 0.0
C1821 C 0.99038 0.57197 0.50483 0.0
C1822 C 0.00826 0.55816 0.49562 0.0
H1823 H 0.10561 0.5037 0.44988 0.0
H1824 H 0.08009 0.5361 0.46203 0.0
H1825 H 0.00902 0.5053 0.47531 0.0
H1826 H 0.94232 0.55855 0.52701 0.0
H1827 H 0.97035 0.53722 0.51107 0.0
C1828 C 0.02187 0.59716 0.01644 0.0
C1829 C 0.04015 0.58354 0.02409 0.0
C1830 C 0.0055 0.58407 0.00754 0.0
C1831 C 0.99739 0.52121 0.98993 0.0
H1832 H 0.92491 0.53916 0.98979 0.0
C1833 C 0.9204 0.45209 0.9696 0.0
C1834 C 0.90213 0.46245 0.96067 0.0
C1835 C 0.93678 0.46826 0.97689 0.0
C1836 C 0.94514 0.5341 0.98964 0.0
H1837 H 0.05593 0.54556 0.02812 0.0
H1838 H 0.02739 0.52292 0.0129 0.0
H1839 H 0.95531 0.56541 0.00266 0.0
H1840 H 0.88609 0.49801 0.95278 0.0
H1841 H 0.91459 0.52627 0.96568 0.0
H1842 H 0.98712 0.48952 0.97722 0.0
C1843 C 0.02583 0.5437 0.01355 0.0
C1844 C 0.96259 0.54919 0.99695 0.0
C1845 C 0.04215 0.55672 0.02238 0.0
C1846 C 0.89998 0.4894 0.95957 0.0
C1847 C 0.91624 0.5056 0.96697 0.0
C1848 C 0.97996 0.50605 0.98274 0.0
C1849 C 0.00712 0.55712 0.00611 0.0
C1850 C 0.98888 0.54267 0.99735 0.0
C1851 C 0.93513 0.49516 0.9755 0.0
C1852 C 0.95361 0.5121 0.98267 0.0
H1853 H 0.01985 0.61783 0.01752 0.0
H1854 H 0.9915 0.59503 1.00183 0.0
H1855 H 0.01757 0.51595 0.98976 0.0
H1856 H 0.92258 0.43143 0.97071 0.0
H1857 H 0.95091 0.45969 0.98355 0.0
C1858 C 0.55225 0.53844 0.46936 0.0
C1859 C 0.55772 0.56473 0.47122 0.0
C1860 C 0.53542 0.52559 0.47803 0.0
C1861 C 0.50583 0.52783 0.51176 0.0
H1862 H 0.45687 0.48064 0.49557 0.0
C1863 C 0.43109 0.46868 0.54303 0.0
C1864 C 0.42978 0.44246 0.5395 0.0
C1865 C 0.44468 0.48616 0.53489 0.0
C1866 C 0.47048 0.49368 0.50026 0.0
H1867 H 0.55019 0.59797 0.48389 0.0
H1868 H 0.52078 0.57539 0.49908 0.0
H1869 H 0.48527 0.5059 0.4812 0.0
H1870 H 0.44135 0.4142 0.52452 0.0
H1871 H 0.46479 0.44434 0.51055 0.0
H1872 H 0.49126 0.5151 0.53087 0.0
C1873 C 0.5296 0.56478 0.4909 0.0
C1874 C 0.48679 0.50811 0.49203 0.0
C1875 C 0.54639 0.57771 0.48217 0.0
C1876 C 0.44193 0.43423 0.52759 0.0
C1877 C 0.45526 0.45159 0.51948 0.0
C1878 C 0.48947 0.5133 0.52004 0.0
C1879 C 0.52366 0.53865 0.48881 0.0
C1880 C 0.50505 0.52493 0.49767 0.0
C1881 C 0.45691 0.47774 0.52302 0.0
C1882 C 0.47202 0.49562 0.51437 0.0
H1883 H 0.56069 0.52781 0.46107 0.0
H1884 H 0.53162 0.50533 0.47629 0.0
H1885 H 0.51974 0.54059 0.51641 0.0
H1886 H 0.42198 0.4756 0.55216 0.0
H1887 H 0.44554 0.50624 0.53785 0.0
C1888 C 0.0954 0.07639 0.28575 0.0
C1889 C 0.11938 0.08564 0.29022 0.0
C1890 C 0.09409 0.05559 0.27675 0.0
C1891 C 0.12932 0.02595 0.24956 0.0
H1892 H 0.09392 0.962 0.25763 0.0
C1893 C 0.14615 0.93541 0.21755 0.0
C1894 C 0.12618 0.91745 0.21584 0.0
C1895 C 0.1433 0.95624 0.22632 0.0
C1896 C 0.10348 0.97988 0.25505 0.0
H1897 H 0.16074 0.08029 0.28881 0.0
H1898 H 0.15837 0.04459 0.27286 0.0
H1899 H 0.092 0.9978 0.27363 0.0
H1900 H 0.08731 0.90753 0.22184 0.0
H1901 H 0.08184 0.94455 0.23677 0.0
H1902 H 0.14034 0.00875 0.2309 0.0
C1903 C 0.14065 0.05323 0.27644 0.0
C1904 C 0.10245 1.0003 0.26428 0.0
C1905 C 0.14196 0.07356 0.28562 0.0
C1906 C 0.10309 0.92101 0.22298 0.0
C1907 C 0.10005 0.94216 0.23162 0.0
C1908 C 0.12995 0.00581 0.24023 0.0
C1909 C 0.11675 0.04416 0.27186 0.0
C1910 C 0.11581 0.02329 0.26171 0.0
C1911 C 0.12019 0.96002 0.23347 0.0
C1912 C 0.11754 0.98223 0.24296 0.0
H1913 H 0.07769 0.08529 0.28914 0.0
H1914 H 0.07544 0.0489 0.27332 0.0
H1915 H 0.1395 0.04366 0.24729 0.0
H1916 H 0.16432 0.93307 0.21233 0.0
H1917 H 0.15953 0.96907 0.22768 0.0
C1918 C 0.18317 0.8755 0.54086 0.0
C1919 C 0.16603 0.85461 0.54174 0.0
C1920 C 0.20693 0.87284 0.53444 0.0
C1921 C 0.24278 0.83145 0.51025 0.0
H1922 H 0.30027 0.87272 0.5228 0.0
C1923 C 0.34524 0.83098 0.48563 0.0
C1924 C 0.35275 0.85574 0.48142 0.0
C1925 C 0.32385 0.82781 0.49412 0.0
C1926 C 0.28442 0.86098 0.51923 0.0
H1927 H 0.16059 0.81436 0.53663 0.0
H1928 H 0.20254 0.80943 0.52572 0.0
H1929 H 0.26029 0.87224 0.53562 0.0
H1930 H 0.34447 0.89656 0.48317 0.0
H1931 H 0.30788 0.89106 0.49829 0.0
H1932 H 0.26738 0.82014 0.49388 0.0
C1933 C 0.19735 0.82809 0.52977 0.0
C1934 C 0.26138 0.86085 0.5265 0.0
C1935 C 0.17333 0.83086 0.53608 0.0
C1936 C 0.3391 0.87723 0.48622 0.0
C1937 C 0.31822 0.87411 0.49491 0.0
C1938 C 0.26605 0.83127 0.50309 0.0
C1939 C 0.2145 0.84908 0.52886 0.0
C1940 C 0.23994 0.8467 0.52191 0.0
C1941 C 0.31013 0.8494 0.4988 0.0
C1942 C 0.28684 0.84656 0.50734 0.0
H1943 H 0.1781 0.89416 0.54497 0.0
H1944 H 0.21916 0.88967 0.53366 0.0
H1945 H 0.22673 0.82047 0.50631 0.0
H1946 H 0.35533 0.81408 0.482 0.0
H1947 H 0.31798 0.80855 0.497 0.0
C1948 C 0.3866 0.06693 0.71712 0.0
C1949 C 0.36281 0.07226 0.71099 0.0
C1950 C 0.38998 0.04463 0.72486 0.0
C1951 C 0.35863 0.98131 0.73331 0.0
H1952 H 0.4043 0.98434 0.7642 0.0
C1953 C 0.35563 0.90933 0.77772 0.0
C1954 C 0.37887 0.89669 0.78076 0.0
C1955 C 0.35514 0.93001 0.76871 0.0
C1956 C 0.39167 0.98319 0.75553 0.0
H1957 H 0.32383 0.05843 0.70822 0.0
H1958 H 0.32917 0.02028 0.7222 0.0
H1959 H 0.40012 0.02181 0.74953 0.0
H1960 H 0.41994 0.89621 0.7769 0.0
H1961 H 0.41917 0.93328 0.76145 0.0
H1962 H 0.34924 0.94306 0.73991 0.0
C1963 C 0.34566 0.03269 0.72069 0.0
C1964 C 0.38932 0.00462 0.74703 0.0
C1965 C 0.34248 0.05473 0.71271 0.0
C1966 C 0.40175 0.90555 0.77475 0.0
C1967 C 0.40133 0.92673 0.76595 0.0
C1968 C 0.36058 0.96014 0.74198 0.0
C1969 C 0.36946 0.0273 0.72694 0.0
C1970 C 0.37265 0.00409 0.7358 0.0
C1971 C 0.37794 0.93893 0.76275 0.0
C1972 C 0.37704 0.96091 0.75319 0.0
H1973 H 0.40272 0.07998 0.71589 0.0
H1974 H 0.40878 0.04103 0.72917 0.0
H1975 H 0.34609 0.97971 0.72464 0.0
H1976 H 0.33763 0.90289 0.78209 0.0
H1977 H 0.3369 0.9392 0.76647 0.0
C1978 C 0.34712 0.16495 0.03267 0.0
C1979 C 0.35458 0.1411 0.03813 0.0
C1980 C 0.32258 0.16809 0.02699 0.0
C1981 C 0.25776 0.13657 0.02588 0.0
H1982 H 0.24811 0.17832 0.99387 0.0
C1983 C 0.17332 0.12417 0.98892 0.0
C1984 C 0.16052 0.14637 0.98437 0.0
C1985 C 0.19528 0.12619 0.99697 0.0
C1986 C 0.25047 0.1669 0.00293 0.0
H1987 H 0.34241 0.10163 0.04152 0.0
H1988 H 0.30038 0.10673 0.03126 0.0
H1989 H 0.29043 0.17654 0.0046 0.0
H1990 H 0.16044 0.18812 0.9848 0.0
H1991 H 0.1995 0.19167 0.99868 0.0
H1992 H 0.21808 0.12597 0.02375 0.0
C1993 C 0.31291 0.12339 0.03175 0.0
C1994 C 0.27472 0.16588 0.0091 0.0
C1995 C 0.3372 0.12037 0.03755 0.0
C1996 C 0.16981 0.1707 0.98827 0.0
C1997 C 0.19221 0.17274 0.99611 0.0
C1998 C 0.2337 0.13731 0.01959 0.0
C1999 C 0.30506 0.14734 0.02652 0.0
C2000 C 0.27883 0.15029 0.02053 0.0
C2001 C 0.20526 0.15046 1.00042 0.0
C2002 C 0.22991 0.15215 0.00794 0.0
H2003 H 0.36004 0.18133 0.03302 0.0
H2004 H 0.31721 0.18688 0.02318 0.0
H2005 H 0.25988 0.12494 0.03487 0.0
H2006 H 0.1666 0.10517 0.98606 0.0
H2007 H 0.20504 0.10871 1.00006 0.0
C2008 C 0.88211 0.08262 0.78946 0.0
C2009 C 0.89407 0.10606 0.78607 0.0
C2010 C 0.88413 0.06118 0.78103 0.0
C2011 C 0.89464 0.04373 0.74561 0.0
H2012 H 0.89914 0.97449 0.76015 0.0
C2013 C 0.86517 0.95349 0.71509 0.0
C2014 C 0.87977 0.93086 0.71664 0.0
C2015 C 0.86996 0.97508 0.72317 0.0
C2016 C 0.89817 0.99367 0.75588 0.0
H2017 H 0.91818 0.12509 0.77127 0.0
H2018 H 0.92176 0.08744 0.75647 0.0
H2019 H 0.90351 0.01141 0.77516 0.0
H2020 H 0.91117 0.9134 0.7278 0.0
H2021 H 0.91957 0.95109 0.74184 0.0
H2022 H 0.88919 0.02596 0.72633 0.0
C2023 C 0.91066 0.08581 0.76567 0.0
C2024 C 0.90043 0.01486 0.76451 0.0
C2025 C 0.90877 0.10731 0.77419 0.0
C2026 C 0.89947 0.93046 0.72637 0.0
C2027 C 0.90422 0.95205 0.73446 0.0
C2028 C 0.8923 0.02252 0.73697 0.0
C2029 C 0.89809 0.06257 0.76892 0.0
C2030 C 0.8983 0.04015 0.75953 0.0
C2031 C 0.88944 0.97459 0.73302 0.0
C2032 C 0.89367 0.99721 0.74202 0.0
H2033 H 0.87065 0.08091 0.79854 0.0
H2034 H 0.87394 0.04374 0.78379 0.0
H2035 H 0.8927 0.06293 0.74145 0.0
H2036 H 0.84983 0.9545 0.70772 0.0
H2037 H 0.85795 0.99197 0.7219 0.0
C2038 C 0.67537 0.16365 0.52712 0.0
C2039 C 0.66587 0.14004 0.53201 0.0
C2040 C 0.69846 0.16456 0.51982 0.0
C2041 C 0.73897 0.12585 0.4979 0.0
H2042 H 0.79576 0.16973 0.50877 0.0
C2043 C 0.8393 0.11183 0.47518 0.0
C2044 C 0.85523 0.1333 0.47299 0.0
C2045 C 0.8163 0.11426 0.48231 0.0
C2046 C 0.77998 0.15768 0.50543 0.0
H2047 H 0.673 0.09889 0.53297 0.0
H2048 H 0.71283 0.10045 0.51994 0.0
H2049 H 0.75501 0.17147 0.52112 0.0
H2050 H 0.8596 0.17422 0.47666 0.0
H2051 H 0.81877 0.17877 0.48876 0.0
H2052 H 0.76323 0.11243 0.48205 0.0
C2053 C 0.70256 0.11824 0.52187 0.0
C2054 C 0.75669 0.15863 0.51255 0.0
C2055 C 0.67982 0.11739 0.52938 0.0
C2056 C 0.84773 0.15732 0.47823 0.0
C2057 C 0.82437 0.15986 0.48521 0.0
C2058 C 0.762 0.1252 0.49065 0.0
C2059 C 0.71212 0.14181 0.51704 0.0
C2060 C 0.73616 0.14237 0.50899 0.0
C2061 C 0.80823 0.13835 0.48726 0.0
C2062 C 0.78306 0.14069 0.49447 0.0
H2063 H 0.6651 0.18145 0.52903 0.0
H2064 H 0.70541 0.18296 0.51616 0.0
H2065 H 0.72328 0.1134 0.49483 0.0
H2066 H 0.8447 0.09296 0.47147 0.0
H2067 H 0.80494 0.09706 0.48401 0.0
C2068 C 0.62933 0.06595 0.22085 0.0
C2069 C 0.61374 0.08747 0.22365 0.0
C2070 C 0.62657 0.04305 0.22818 0.0
C2071 C 0.60449 0.01839 0.26092 0.0
H2072 H 0.608 0.95164 0.24339 0.0
C2073 C 0.62653 0.92427 0.28972 0.0
C2074 C 0.61248 0.90194 0.28643 0.0
C2075 C 0.62389 0.94681 0.28213 0.0
C2076 C 0.60674 0.97012 0.24843 0.0
H2077 H 0.58281 0.10158 0.23634 0.0
H2078 H 0.57817 0.06164 0.24922 0.0
H2079 H 0.60841 0.99096 0.22978 0.0
H2080 H 0.58445 0.88597 0.27256 0.0
H2081 H 0.58008 0.92544 0.25914 0.0
H2082 H 0.60325 0.9976 0.27957 0.0
C2083 C 0.59257 0.06256 0.24134 0.0
C2084 C 0.60722 0.99266 0.24064 0.0
C2085 C 0.59515 0.08541 0.23391 0.0
C2086 C 0.59551 0.90283 0.27539 0.0
C2087 C 0.59311 0.92538 0.26766 0.0
C2088 C 0.60429 0.99588 0.2687 0.0
C2089 C 0.6083 0.04112 0.23859 0.0
C2090 C 0.60633 0.01709 0.24679 0.0
C2091 C 0.60734 0.94763 0.27093 0.0
C2092 C 0.60567 0.97147 0.26257 0.0
H2093 H 0.64384 0.06681 0.21302 0.0
H2094 H 0.63919 0.02703 0.22589 0.0
H2095 H 0.60396 0.03687 0.26599 0.0
H2096 H 0.63975 0.92434 0.29816 0.0
H2097 H 0.63535 0.96347 0.28484 0.0
C2098 C 0.6638 0.82884 0.98058 0.0
C2099 C 0.65458 0.85319 0.97666 0.0
C2100 C 0.68585 0.82681 0.98868 0.0
C2101 C 0.72533 0.8619 0.01313 0.0
H2102 H 0.78361 0.82392 0.99894 0.0
C2103 C 0.82746 0.87919 0.0333 0.0
C2104 C 0.84513 0.85872 0.03372 0.0
C2105 C 0.80344 0.87613 0.02717 0.0
C2106 C 0.76744 0.83421 0.00323 0.0
H2107 H 0.66049 0.8944 0.97856 0.0
H2108 H 0.69831 0.89083 0.993 0.0
H2109 H 0.74217 0.82201 0.98733 0.0
H2110 H 0.85131 0.81882 0.02814 0.0
H2111 H 0.80901 0.81314 0.01779 0.0
H2112 H 0.75016 0.87399 0.02907 0.0
C2113 C 0.68877 0.87336 0.9897 0.0
C2114 C 0.74371 0.83312 0.99654 0.0
C2115 C 0.66719 0.87538 0.98139 0.0
C2116 C 0.83817 0.83502 0.02791 0.0
C2117 C 0.81393 0.83182 0.02192 0.0
C2118 C 0.74887 0.86267 0.01993 0.0
C2119 C 0.69856 0.84909 0.99326 0.0
C2120 C 0.72262 0.84743 1.00126 0.0
C2121 C 0.79621 0.85236 0.02147 0.0
C2122 C 0.77048 0.84939 0.0149 0.0
H2123 H 0.65454 0.81143 0.977 0.0
H2124 H 0.69304 0.80787 0.99133 0.0
H2125 H 0.70927 0.8729 0.01705 0.0
H2126 H 0.83229 0.8978 0.03756 0.0
H2127 H 0.79072 0.89263 0.02675 0.0
C2128 C 0.64678 0.42007 0.72436 0.0
C2129 C 0.62309 0.40814 0.72147 0.0
C2130 C 0.64781 0.44232 0.7323 0.0
C2131 C 0.611 0.49878 0.74251 0.0
H2132 H 0.65897 0.50233 0.77239 0.0
C2133 C 0.61522 0.58819 0.77751 0.0
C2134 C 0.63919 0.59538 0.78291 0.0
C2135 C 0.61239 0.56493 0.77048 0.0
C2136 C 0.64575 0.50195 0.76396 0.0
H2137 H 0.58184 0.41045 0.72457 0.0
H2138 H 0.58363 0.44989 0.73819 0.0
H2139 H 0.65577 0.46291 0.75915 0.0
H2140 H 0.67909 0.58389 0.78498 0.0
H2141 H 0.67455 0.54404 0.77229 0.0
H2142 H 0.60164 0.53803 0.74686 0.0
C2143 C 0.6014 0.44174 0.73438 0.0
C2144 C 0.64381 0.47921 0.75643 0.0
C2145 C 0.60039 0.41913 0.72664 0.0
C2146 C 0.6603 0.57883 0.78105 0.0
C2147 C 0.65759 0.5558 0.77383 0.0
C2148 C 0.61325 0.52171 0.74989 0.0
C2149 C 0.62515 0.45348 0.73735 0.0
C2150 C 0.62647 0.47739 0.74561 0.0
C2151 C 0.63357 0.5484 0.76846 0.0
C2152 C 0.63073 0.52372 0.76072 0.0
H2153 H 0.66464 0.41207 0.72058 0.0
H2154 H 0.66637 0.45104 0.73433 0.0
H2155 H 0.59766 0.498 0.73413 0.0
H2156 H 0.5985 0.60041 0.77885 0.0
H2157 H 0.59345 0.55985 0.76678 0.0
C2158 C 0.79419 0.40562 0.96751 0.0
C2159 C 0.80919 0.38426 0.96382 0.0
C2160 C 0.7729 0.4026 0.976 0.0
C2161 C 0.74308 0.35606 1.00021 0.0
H2162 H 0.68453 0.40185 0.99652 0.0
C2163 C 0.64501 0.34538 0.02882 0.0
C2164 C 0.63741 0.36781 0.03571 0.0
C2165 C 0.6661 0.34594 0.02 0.0
C2166 C 0.70078 0.38895 0.99765 0.0
H2167 H 0.81328 0.34286 0.96584 0.0
H2168 H 0.77555 0.33736 0.98011 0.0
H2169 H 0.72034 0.40535 0.98079 0.0
H2170 H 0.64598 0.40837 0.03874 0.0
H2171 H 0.68221 0.40937 0.02314 0.0
H2172 H 0.72278 0.33926 0.0169 0.0
C2173 C 0.78063 0.35664 0.97688 0.0
C2174 C 0.72146 0.39105 0.98871 0.0
C2175 C 0.8022 0.35974 0.9686 0.0
C2176 C 0.65139 0.3907 0.03366 0.0
C2177 C 0.67204 0.39136 0.02467 0.0
C2178 C 0.72212 0.35364 0.00899 0.0
C2179 C 0.76575 0.37805 0.9808 0.0
C2180 C 0.74311 0.3749 0.98997 0.0
C2181 C 0.67951 0.36906 0.0177 0.0
C2182 C 0.70098 0.37032 0.0079 0.0
H2183 H 0.79924 0.42479 0.9641 0.0
H2184 H 0.76237 0.41968 0.97898 0.0
H2185 H 0.75948 0.34352 1.00169 0.0
H2186 H 0.63462 0.32747 0.0302 0.0
H2187 H 0.67152 0.3285 0.01471 0.0
C2188 C 0.91336 0.41189 0.28033 0.0
C2189 C 0.89343 0.40965 0.28985 0.0
C2190 C 0.91718 0.43501 0.27334 0.0
C2191 C 0.90267 0.50487 0.27404 0.0
H2192 H 0.90936 0.50027 0.2352 0.0
C2193 C 0.91412 0.59432 0.23872 0.0
C2194 C 0.89706 0.5943 0.22771 0.0
C2195 C 0.9168 0.57226 0.24679 0.0
C2196 C 0.90764 0.50186 0.24605 0.0
H2197 H 0.8623 0.4302 0.29971 0.0
H2198 H 0.869 0.47043 0.28752 0.0
H2199 H 0.90834 0.46092 0.24865 0.0
H2200 H 0.86971 0.57099 0.21648 0.0
H2201 H 0.8746 0.53284 0.23039 0.0
H2202 H 0.90131 0.54589 0.27133 0.0
C2203 C 0.88174 0.45436 0.28551 0.0
C2204 C 0.90726 0.47933 0.25376 0.0
C2205 C 0.87778 0.43121 0.29241 0.0
C2206 C 0.88296 0.57177 0.2249 0.0
C2207 C 0.8859 0.54978 0.23281 0.0
C2208 C 0.90332 0.52746 0.26632 0.0
C2209 C 0.90132 0.45646 0.2758 0.0
C2210 C 0.90425 0.48054 0.26782 0.0
C2211 C 0.90282 0.54972 0.24383 0.0
C2212 C 0.90524 0.52613 0.25222 0.0
H2213 H 0.92582 0.39568 0.27815 0.0
H2214 H 0.93254 0.43609 0.26598 0.0
H2215 H 0.90058 0.50641 0.28487 0.0
H2216 H 0.92523 0.61137 0.24114 0.0
H2217 H 0.93001 0.57271 0.25524 0.0
C2218 C 0.67294 0.64687 0.4764 0.0
C2219 C 0.66153 0.62427 0.47139 0.0
C2220 C 0.69518 0.64562 0.48435 0.0
C2221 C 0.74849 0.60088 0.49417 0.0
H2222 H 0.75851 0.65035 0.52299 0.0
C2223 C 0.82686 0.58969 0.53526 0.0
C2224 C 0.84251 0.61142 0.53745 0.0
C2225 C 0.80473 0.5915 0.52728 0.0
C2226 C 0.756 0.6365 0.51493 0.0
H2227 H 0.66427 0.58258 0.47098 0.0
H2228 H 0.70228 0.58027 0.48521 0.0
H2229 H 0.71997 0.65288 0.50899 0.0
H2230 H 0.84686 0.6522 0.53321 0.0
H2231 H 0.80784 0.65543 0.51951 0.0
H2232 H 0.78424 0.58409 0.50047 0.0
C2233 C 0.6947 0.5991 0.48268 0.0
C2234 C 0.73398 0.638 0.50683 0.0
C2235 C 0.67274 0.60039 0.47457 0.0
C2236 C 0.83526 0.63509 0.53169 0.0
C2237 C 0.81287 0.63699 0.5239 0.0
C2238 C 0.77027 0.59915 0.50241 0.0
C2239 C 0.70634 0.62169 0.48767 0.0
C2240 C 0.7299 0.62023 0.49631 0.0
C2241 C 0.79753 0.61516 0.5215 0.0
C2242 C 0.77427 0.61696 0.51285 0.0
H2243 H 0.66486 0.66559 0.47406 0.0
H2244 H 0.70376 0.66349 0.48776 0.0
H2245 H 0.74645 0.58717 0.48602 0.0
H2246 H 0.83195 0.57116 0.53952 0.0
H2247 H 0.79314 0.57441 0.52567 0.0
C2248 C 0.3485 0.57694 0.28825 0.0
C2249 C 0.36413 0.59826 0.2851 0.0
C2250 C 0.3498 0.55434 0.28055 0.0
C2251 C 0.36753 0.53069 0.24687 0.0
H2252 H 0.36939 0.46347 0.26395 0.0
C2253 C 0.35139 0.43552 0.21763 0.0
C2254 C 0.36797 0.41483 0.22054 0.0
C2255 C 0.35193 0.45799 0.22542 0.0
C2256 C 0.36903 0.48211 0.25904 0.0
H2257 H 0.3934 0.61244 0.27138 0.0
H2258 H 0.39544 0.57316 0.25791 0.0
H2259 H 0.36834 0.50239 0.27787 0.0
H2260 H 0.39823 0.40163 0.23393 0.0
H2261 H 0.399 0.44085 0.24761 0.0
H2262 H 0.36806 0.51045 0.22805 0.0
C2263 C 0.38217 0.57394 0.26632 0.0
C2264 C 0.36819 0.50438 0.26701 0.0
C2265 C 0.38109 0.59641 0.27409 0.0
C2266 C 0.38524 0.41722 0.23139 0.0
C2267 C 0.38557 0.4396 0.23929 0.0
C2268 C 0.36806 0.50843 0.23891 0.0
C2269 C 0.36653 0.55265 0.26944 0.0
C2270 C 0.36745 0.52893 0.26101 0.0
C2271 C 0.36887 0.46022 0.23641 0.0
C2272 C 0.36882 0.48388 0.2449 0.0
H2273 H 0.33524 0.57769 0.29666 0.0
H2274 H 0.33735 0.53834 0.28314 0.0
H2275 H 0.36677 0.5493 0.24195 0.0
H2276 H 0.33783 0.43435 0.20936 0.0
H2277 H 0.33867 0.47343 0.22301 0.0
C2278 C 0.32139 0.60009 0.97113 0.0
C2279 C 0.33213 0.62409 0.96766 0.0
C2280 C 0.30069 0.59856 0.98008 0.0
C2281 C 0.24551 0.63405 0.99288 0.0
H2282 H 0.24803 0.58562 0.02261 0.0
C2283 C 0.16259 0.62758 0.03153 0.0
C2284 C 0.15629 0.60324 0.03681 0.0
C2285 C 0.18476 0.63098 0.02374 0.0
C2286 C 0.24676 0.59898 0.01426 0.0
H2287 H 0.32933 0.66534 0.97079 0.0
H2288 H 0.29251 0.66266 0.98624 0.0
H2289 H 0.28505 0.59001 0.00769 0.0
H2290 H 0.16835 0.56334 0.03802 0.0
H2291 H 0.20646 0.56894 0.024 0.0
H2292 H 0.20696 0.64237 0.999 0.0
C2293 C 0.30041 0.64506 0.98207 0.0
C2294 C 0.2681 0.6016 0.00577 0.0
C2295 C 0.3215 0.64658 0.97327 0.0
C2296 C 0.17276 0.58238 0.03417 0.0
C2297 C 0.19475 0.58568 0.02618 0.0
C2298 C 0.22399 0.63116 1.00124 0.0
C2299 C 0.28992 0.621 0.98562 0.0
C2300 C 0.26766 0.61909 0.99497 0.0
C2301 C 0.20106 0.61004 0.02081 0.0
C2302 C 0.22425 0.61351 0.01205 0.0
H2303 H 0.32918 0.58237 0.96705 0.0
H2304 H 0.29286 0.57978 0.98254 0.0
H2305 H 0.24454 0.64747 0.98453 0.0
H2306 H 0.15043 0.64412 0.03349 0.0
H2307 H 0.18915 0.65014 0.02009 0.0
C2308 C 0.11812 0.41919 0.7932 0.0
C2309 C 0.14254 0.41584 0.79904 0.0
C2310 C 0.11231 0.44156 0.78598 0.0
C2311 C 0.13632 0.50828 0.77896 0.0
H2312 H 0.09311 0.50186 0.74725 0.0
C2313 C 0.13664 0.57944 0.73451 0.0
C2314 C 0.11279 0.58855 0.72981 0.0
C2315 C 0.1378 0.56021 0.74429 0.0
C2316 C 0.10489 0.50399 0.75619 0.0
H2317 H 0.18004 0.43327 0.80188 0.0
H2318 H 0.17042 0.47177 0.78877 0.0
H2319 H 0.10053 0.46435 0.76151 0.0
H2320 H 0.07141 0.58485 0.73174 0.0
H2321 H 0.07347 0.55022 0.74867 0.0
H2322 H 0.14179 0.54767 0.77305 0.0
C2323 C 0.15536 0.45758 0.79012 0.0
C2324 C 0.10914 0.48251 0.76442 0.0
C2325 C 0.161 0.43539 0.79756 0.0
C2326 C 0.09002 0.5782 0.73522 0.0
C2327 C 0.0912 0.55841 0.74484 0.0
C2328 C 0.13243 0.5296 0.77059 0.0
C2329 C 0.13093 0.46098 0.78418 0.0
C2330 C 0.12518 0.48426 0.77585 0.0
C2331 C 0.11514 0.54927 0.74943 0.0
C2332 C 0.11691 0.52756 0.75906 0.0
H2333 H 0.10337 0.40458 0.79431 0.0
H2334 H 0.09312 0.44361 0.78185 0.0
H2335 H 0.14826 0.51066 0.78782 0.0
H2336 H 0.15451 0.58718 0.73059 0.0
H2337 H 0.15647 0.55335 0.74758 0.0
C2338 C 0.17352 0.3556 0.46996 0.0
C2339 C 0.16927 0.37965 0.46379 0.0
C2340 C 0.19598 0.35117 0.47748 0.0
C2341 C 0.24245 0.385 0.4981 0.0
H2342 H 0.29083 0.32978 0.49088 0.0
C2343 C 0.34102 0.38588 0.52325 0.0
C2344 C 0.35189 0.36262 0.52766 0.0
C2345 C 0.31944 0.38594 0.51491 0.0
C2346 C 0.27735 0.34506 0.49318 0.0
H2347 H 0.18532 0.41781 0.46063 0.0
H2348 H 0.22395 0.41025 0.474 0.0
H2349 H 0.25103 0.33299 0.47766 0.0
H2350 H 0.34928 0.32106 0.52647 0.0
H2351 H 0.31069 0.321 0.51217 0.0
H2352 H 0.26787 0.39689 0.51377 0.0
C2353 C 0.21007 0.39478 0.47291 0.0
C2354 C 0.25462 0.34691 0.48558 0.0
C2355 C 0.18797 0.39905 0.46523 0.0
C2356 C 0.34129 0.33926 0.52315 0.0
C2357 C 0.31921 0.33929 0.51495 0.0
C2358 C 0.26481 0.38294 0.50581 0.0
C2359 C 0.21426 0.37088 0.47916 0.0
C2360 C 0.23726 0.36723 0.48781 0.0
C2361 C 0.30764 0.3627 0.511 0.0
C2362 C 0.28295 0.36336 0.50326 0.0
H2363 H 0.15951 0.34025 0.46899 0.0
H2364 H 0.19876 0.3326 0.48225 0.0
H2365 H 0.22915 0.40059 0.50018 0.0
H2366 H 0.34905 0.40419 0.52642 0.0
H2367 H 0.31179 0.40435 0.5117 0.0
loop_
_geom_bond_atom_site_label_1
_geom_bond_atom_site_label_2
_geom_bond_distance
_geom_bond_site_symmetry_2
_ccdc_geom_bond_type
C0 O2 1.247 . S
C0 O4 1.258 . S
C1 O8 1.247 . S
C1 O9 1.258 . S
O2 C0 1.247 . S
O2 Zn3 2.028 . S
Zn3 O2 2.028 . S
Zn3 O7 2.035 . S
Zn3 O9 2.035 . S
Zn3 O10 2.028 . S
O4 C0 1.258 . S
O4 Zn5 2.035 . S
Zn5 O4 2.035 . S
Zn5 O6 2.028 . S
Zn5 O8 2.028 . S
Zn5 O11 2.035 . S
O6 Zn5 2.028 . S
O6 C12 1.247 . S
O7 Zn3 2.035 . S
O7 C12 1.258 . S
O8 C1 1.247 . S
O8 Zn5 2.028 . S
O9 C1 1.258 . S
O9 Zn3 2.035 . S
O10 Zn3 2.028 . S
O10 C13 1.247 . S
O11 Zn5 2.035 . S
O11 C13 1.258 . S
C12 O6 1.247 . S
C12 O7 1.258 . S
C13 O10 1.247 . S
C13 O11 1.258 . S
C14 O16 1.247 . S
C14 O18 1.258 . S
C15 O22 1.247 . S
C15 O23 1.258 . S
O16 C14 1.247 . S
O16 Zn17 2.028 . S
Zn17 O16 2.028 . S
Zn17 O21 2.035 . S
Zn17 O23 2.035 . S
Zn17 O24 2.028 . S
O18 C14 1.258 . S
O18 Zn19 2.035 . S
Zn19 O18 2.035 . S
Zn19 O20 2.028 . S
Zn19 O22 2.028 . S
Zn19 O25 2.035 . S
O20 Zn19 2.028 . S
O20 C26 1.247 . S
O21 Zn17 2.035 . S
O21 C26 1.258 . S
O22 C15 1.247 . S
O22 Zn19 2.028 . S
O23 C15 1.258 . S
O23 Zn17 2.035 . S
O24 Zn17 2.028 . S
O24 C27 1.247 . S
O25 Zn19 2.035 . S
O25 C27 1.258 . S
C26 O20 1.247 . S
C26 O21 1.258 . S
C27 O24 1.247 . S
C27 O25 1.258 . S
C28 O30 1.247 . S
C28 O32 1.258 . S
C29 O36 1.247 . S
C29 O37 1.258 . S
O30 C28 1.247 . S
O30 Zn31 2.028 . S
Zn31 O30 2.028 . S
Zn31 O35 2.035 . S
Zn31 O37 2.035 . S
Zn31 O38 2.028 . S
O32 C28 1.258 . S
O32 Zn33 2.035 . S
Zn33 O32 2.035 . S
Zn33 O34 2.028 . S
Zn33 O36 2.028 . S
Zn33 O39 2.035 . S
O34 Zn33 2.028 . S
O34 C40 1.247 . S
O35 Zn31 2.035 . S
O35 C40 1.258 . S
O36 C29 1.247 . S
O36 Zn33 2.028 . S
O37 C29 1.258 . S
O37 Zn31 2.035 . S
O38 Zn31 2.028 . S
O38 C41 1.247 . S
O39 Zn33 2.035 . S
O39 C41 1.258 . S
C40 O34 1.247 . S
C40 O35 1.258 . S
C41 O38 1.247 . S
C41 O39 1.258 . S
C42 O44 1.247 . S
C42 O46 1.258 . S
C43 O50 1.247 . S
C43 O51 1.258 . S
O44 C42 1.247 . S
O44 Zn45 2.028 . S
Zn45 O44 2.028 . S
Zn45 O49 2.035 . S
Zn45 O51 2.035 . S
Zn45 O52 2.028 . S
O46 C42 1.258 . S
O46 Zn47 2.035 . S
Zn47 O46 2.035 . S
Zn47 O48 2.028 . S
Zn47 O50 2.028 . S
Zn47 O53 2.035 . S
O48 Zn47 2.028 . S
O48 C54 1.247 . S
O49 Zn45 2.035 . S
O49 C54 1.258 . S
O50 C43 1.247 . S
O50 Zn47 2.028 . S
O51 C43 1.258 . S
O51 Zn45 2.035 . S
O52 Zn45 2.028 . S
O52 C55 1.247 . S
O53 Zn47 2.035 . S
O53 C55 1.258 . S
C54 O48 1.247 . S
C54 O49 1.258 . S
C55 O52 1.247 . S
C55 O53 1.258 . S
C56 O58 1.247 . S
C56 O60 1.258 . S
C57 O64 1.247 . S
C57 O65 1.258 . S
O58 C56 1.247 . S
O58 Zn59 2.028 . S
Zn59 O58 2.028 . S
Zn59 O63 2.035 . S
Zn59 O65 2.035 . S
Zn59 O66 2.028 . S
O60 C56 1.258 . S
O60 Zn61 2.035 . S
Zn61 O60 2.035 . S
Zn61 O62 2.028 . S
Zn61 O64 2.028 . S
Zn61 O67 2.035 . S
O62 Zn61 2.028 . S
O62 C68 1.247 . S
O63 Zn59 2.035 . S
O63 C68 1.258 . S
O64 C57 1.247 . S
O64 Zn61 2.028 . S
O65 C57 1.258 . S
O65 Zn59 2.035 . S
O66 Zn59 2.028 . S
O66 C69 1.247 . S
O67 Zn61 2.035 . S
O67 C69 1.258 . S
C68 O62 1.247 . S
C68 O63 1.258 . S
C69 O66 1.247 . S
C69 O67 1.258 . S
C70 O72 1.247 . S
C70 O74 1.258 . S
C71 O78 1.247 . S
C71 O79 1.258 . S
O72 C70 1.247 . S
O72 Zn73 2.028 . S
Zn73 O72 2.028 . S
Zn73 O77 2.035 . S
Zn73 O79 2.035 . S
Zn73 O80 2.028 . S
O74 C70 1.258 . S
O74 Zn75 2.035 . S
Zn75 O74 2.035 . S
Zn75 O76 2.028 . S
Zn75 O78 2.028 . S
Zn75 O81 2.035 . S
O76 Zn75 2.028 . S
O76 C82 1.247 . S
O77 Zn73 2.035 . S
O77 C82 1.258 . S
O78 C71 1.247 . S
O78 Zn75 2.028 . S
O79 C71 1.258 . S
O79 Zn73 2.035 . S
O80 Zn73 2.028 . S
O80 C83 1.247 . S
O81 Zn75 2.035 . S
O81 C83 1.258 . S
C82 O76 1.247 . S
C82 O77 1.258 . S
C83 O80 1.247 . S
C83 O81 1.258 . S
C84 O86 1.247 . S
C84 O88 1.258 . S
C85 O92 1.247 . S
C85 O93 1.258 . S
O86 C84 1.247 . S
O86 Zn87 2.028 . S
Zn87 O86 2.028 . S
Zn87 O91 2.035 . S
Zn87 O93 2.035 . S
Zn87 O94 2.028 . S
O88 C84 1.258 . S
O88 Zn89 2.035 . S
Zn89 O88 2.035 . S
Zn89 O90 2.028 . S
Zn89 O92 2.028 . S
Zn89 O95 2.035 . S
O90 Zn89 2.028 . S
O90 C96 1.247 . S
O91 Zn87 2.035 . S
O91 C96 1.258 . S
O92 C85 1.247 . S
O92 Zn89 2.028 . S
O93 C85 1.258 . S
O93 Zn87 2.035 . S
O94 Zn87 2.028 . S
O94 C97 1.247 . S
O95 Zn89 2.035 . S
O95 C97 1.258 . S
C96 O90 1.247 . S
C96 O91 1.258 . S
C97 O94 1.247 . S
C97 O95 1.258 . S
C98 O100 1.247 . S
C98 O102 1.258 . S
C99 O106 1.247 . S
C99 O107 1.258 . S
O100 C98 1.247 . S
O100 Zn101 2.028 . S
Zn101 O100 2.028 . S
Zn101 O105 2.035 . S
Zn101 O107 2.035 . S
Zn101 O108 2.028 . S
O102 C98 1.258 . S
O102 Zn103 2.035 . S
Zn103 O102 2.035 . S
Zn103 O104 2.028 . S
Zn103 O106 2.028 . S
Zn103 O109 2.035 . S
O104 Zn103 2.028 . S
O104 C110 1.247 . S
O105 Zn101 2.035 . S
O105 C110 1.258 . S
O106 C99 1.247 . S
O106 Zn103 2.028 . S
O107 C99 1.258 . S
O107 Zn101 2.035 . S
O108 Zn101 2.028 . S
O108 C111 1.247 . S
O109 Zn103 2.035 . S
O109 C111 1.258 . S
C110 O104 1.247 . S
C110 O105 1.258 . S
C111 O108 1.247 . S
C111 O109 1.258 . S
C112 O114 1.247 . S
C112 O116 1.258 . S
C113 O120 1.247 . S
C113 O121 1.258 . S
O114 C112 1.247 . S
O114 Zn115 2.028 . S
Zn115 O114 2.028 . S
Zn115 O119 2.035 . S
Zn115 O121 2.035 . S
Zn115 O122 2.028 . S
O116 C112 1.258 . S
O116 Zn117 2.035 . S
Zn117 O116 2.035 . S
Zn117 O118 2.028 . S
Zn117 O120 2.028 . S
Zn117 O123 2.035 . S
O118 Zn117 2.028 . S
O118 C124 1.247 . S
O119 Zn115 2.035 . S
O119 C124 1.258 . S
O120 C113 1.247 . S
O120 Zn117 2.028 . S
O121 C113 1.258 . S
O121 Zn115 2.035 . S
O122 Zn115 2.028 . S
O122 C125 1.247 . S
O123 Zn117 2.035 . S
O123 C125 1.258 . S
C124 O118 1.247 . S
C124 O119 1.258 . S
C125 O122 1.247 . S
C125 O123 1.258 . S
C126 O128 1.247 . S
C126 O130 1.258 . S
C127 O134 1.247 . S
C127 O135 1.258 . S
O128 C126 1.247 . S
O128 Zn129 2.028 . S
Zn129 O128 2.028 . S
Zn129 O133 2.035 . S
Zn129 O135 2.035 . S
Zn129 O136 2.028 . S
O130 C126 1.258 . S
O130 Zn131 2.035 . S
Zn131 O130 2.035 . S
Zn131 O132 2.028 . S
Zn131 O134 2.028 . S
Zn131 O137 2.035 . S
O132 Zn131 2.028 . S
O132 C138 1.247 . S
O133 Zn129 2.035 . S
O133 C138 1.258 . S
O134 C127 1.247 . S
O134 Zn131 2.028 . S
O135 C127 1.258 . S
O135 Zn129 2.035 . S
O136 Zn129 2.028 . S
O136 C139 1.247 . S
O137 Zn131 2.035 . S
O137 C139 1.258 . S
C138 O132 1.247 . S
C138 O133 1.258 . S
C139 O136 1.247 . S
C139 O137 1.258 . S
C140 O142 1.247 . S
C140 O144 1.258 . S
C141 O148 1.247 . S
C141 O149 1.258 . S
O142 C140 1.247 . S
O142 Zn143 2.028 . S
Zn143 O142 2.028 . S
Zn143 O147 2.035 . S
Zn143 O149 2.035 . S
Zn143 O150 2.028 . S
O144 C140 1.258 . S
O144 Zn145 2.035 . S
Zn145 O144 2.035 . S
Zn145 O146 2.028 . S
Zn145 O148 2.028 . S
Zn145 O151 2.035 . S
O146 Zn145 2.028 . S
O146 C152 1.247 . S
O147 Zn143 2.035 . S
O147 C152 1.258 . S
O148 C141 1.247 . S
O148 Zn145 2.028 . S
O149 C141 1.258 . S
O149 Zn143 2.035 . S
O150 Zn143 2.028 . S
O150 C153 1.247 . S
O151 Zn145 2.035 . S
O151 C153 1.258 . S
C152 O146 1.247 . S
C152 O147 1.258 . S
C153 O150 1.247 . S
C153 O151 1.258 . S
C154 O156 1.247 . S
C154 O158 1.258 . S
C155 O162 1.247 . S
C155 O163 1.258 . S
O156 C154 1.247 . S
O156 Zn157 2.028 . S
Zn157 O156 2.028 . S
Zn157 O161 2.035 . S
Zn157 O163 2.035 . S
Zn157 O164 2.028 . S
O158 C154 1.258 . S
O158 Zn159 2.035 . S
Zn159 O158 2.035 . S
Zn159 O160 2.028 . S
Zn159 O162 2.028 . S
Zn159 O165 2.035 . S
O160 Zn159 2.028 . S
O160 C166 1.247 . S
O161 Zn157 2.035 . S
O161 C166 1.258 . S
O162 C155 1.247 . S
O162 Zn159 2.028 . S
O163 C155 1.258 . S
O163 Zn157 2.035 . S
O164 Zn157 2.028 . S
O164 C167 1.247 . S
O165 Zn159 2.035 . S
O165 C167 1.258 . S
C166 O160 1.247 . S
C166 O161 1.258 . S
C167 O164 1.247 . S
C167 O165 1.258 . S
C168 O170 1.247 . S
C168 O172 1.258 . S
C169 O176 1.247 . S
C169 O177 1.258 . S
O170 C168 1.247 . S
O170 Zn171 2.028 . S
Zn171 O170 2.028 . S
Zn171 O175 2.035 . S
Zn171 O177 2.035 . S
Zn171 O178 2.028 . S
O172 C168 1.258 . S
O172 Zn173 2.035 . S
Zn173 O172 2.035 . S
Zn173 O174 2.028 . S
Zn173 O176 2.028 . S
Zn173 O179 2.035 . S
O174 Zn173 2.028 . S
O174 C180 1.247 . S
O175 Zn171 2.035 . S
O175 C180 1.258 . S
O176 C169 1.247 . S
O176 Zn173 2.028 . S
O177 C169 1.258 . S
O177 Zn171 2.035 . S
O178 Zn171 2.028 . S
O178 C181 1.247 . S
O179 Zn173 2.035 . S
O179 C181 1.258 . S
C180 O174 1.247 . S
C180 O175 1.258 . S
C181 O178 1.247 . S
C181 O179 1.258 . S
C182 O184 1.247 . S
C182 O186 1.258 . S
C183 O190 1.247 . S
C183 O191 1.258 . S
O184 C182 1.247 . S
O184 Zn185 2.028 . S
Zn185 O184 2.028 . S
Zn185 O189 2.035 . S
Zn185 O191 2.035 . S
Zn185 O192 2.028 . S
O186 C182 1.258 . S
O186 Zn187 2.035 . S
Zn187 O186 2.035 . S
Zn187 O188 2.028 . S
Zn187 O190 2.028 . S
Zn187 O193 2.035 . S
O188 Zn187 2.028 . S
O188 C194 1.247 . S
O189 Zn185 2.035 . S
O189 C194 1.258 . S
O190 C183 1.247 . S
O190 Zn187 2.028 . S
O191 C183 1.258 . S
O191 Zn185 2.035 . S
O192 Zn185 2.028 . S
O192 C195 1.247 . S
O193 Zn187 2.035 . S
O193 C195 1.258 . S
C194 O188 1.247 . S
C194 O189 1.258 . S
C195 O192 1.247 . S
C195 O193 1.258 . S
C196 O198 1.247 . S
C196 O200 1.258 . S
C197 O204 1.247 . S
C197 O205 1.258 . S
O198 C196 1.247 . S
O198 Zn199 2.028 . S
Zn199 O198 2.028 . S
Zn199 O203 2.035 . S
Zn199 O205 2.035 . S
Zn199 O206 2.028 . S
O200 C196 1.258 . S
O200 Zn201 2.035 . S
Zn201 O200 2.035 . S
Zn201 O202 2.028 . S
Zn201 O204 2.028 . S
Zn201 O207 2.035 . S
O202 Zn201 2.028 . S
O202 C208 1.247 . S
O203 Zn199 2.035 . S
O203 C208 1.258 . S
O204 C197 1.247 . S
O204 Zn201 2.028 . S
O205 C197 1.258 . S
O205 Zn199 2.035 . S
O206 Zn199 2.028 . S
O206 C209 1.247 . S
O207 Zn201 2.035 . S
O207 C209 1.258 . S
C208 O202 1.247 . S
C208 O203 1.258 . S
C209 O206 1.247 . S
C209 O207 1.258 . S
C210 O212 1.247 . S
C210 O214 1.258 . S
C211 O218 1.247 . S
C211 O219 1.258 . S
O212 C210 1.247 . S
O212 Zn213 2.028 . S
Zn213 O212 2.028 . S
Zn213 O217 2.035 . S
Zn213 O219 2.035 . S
Zn213 O220 2.028 . S
O214 C210 1.258 . S
O214 Zn215 2.035 . S
Zn215 O214 2.035 . S
Zn215 O216 2.028 . S
Zn215 O218 2.028 . S
Zn215 O221 2.035 . S
O216 Zn215 2.028 . S
O216 C222 1.247 . S
O217 Zn213 2.035 . S
O217 C222 1.258 . S
O218 C211 1.247 . S
O218 Zn215 2.028 . S
O219 C211 1.258 . S
O219 Zn213 2.035 . S
O220 Zn213 2.028 . S
O220 C223 1.247 . S
O221 Zn215 2.035 . S
O221 C223 1.258 . S
C222 O216 1.247 . S
C222 O217 1.258 . S
C223 O220 1.247 . S
C223 O221 1.258 . S
C224 O226 1.247 . S
C224 O228 1.258 . S
C225 O232 1.247 . S
C225 O233 1.258 . S
O226 C224 1.247 . S
O226 Zn227 2.028 . S
Zn227 O226 2.028 . S
Zn227 O231 2.035 . S
Zn227 O233 2.035 . S
Zn227 O234 2.028 . S
O228 C224 1.258 . S
O228 Zn229 2.035 . S
Zn229 O228 2.035 . S
Zn229 O230 2.028 . S
Zn229 O232 2.028 . S
Zn229 O235 2.035 . S
O230 Zn229 2.028 . S
O230 C236 1.247 . S
O231 Zn227 2.035 . S
O231 C236 1.258 . S
O232 C225 1.247 . S
O232 Zn229 2.028 . S
O233 C225 1.258 . S
O233 Zn227 2.035 . S
O234 Zn227 2.028 . S
O234 C237 1.247 . S
O235 Zn229 2.035 . S
O235 C237 1.258 . S
C236 O230 1.247 . S
C236 O231 1.258 . S
C237 O234 1.247 . S
C237 O235 1.258 . S
C238 O240 1.247 . S
C238 O242 1.258 . S
C239 O246 1.247 . S
C239 O247 1.258 . S
O240 C238 1.247 . S
O240 Zn241 2.028 . S
Zn241 O240 2.028 . S
Zn241 O245 2.035 . S
Zn241 O247 2.035 . S
Zn241 O248 2.028 . S
O242 C238 1.258 . S
O242 Zn243 2.035 . S
Zn243 O242 2.035 . S
Zn243 O244 2.028 . S
Zn243 O246 2.028 . S
Zn243 O249 2.035 . S
O244 Zn243 2.028 . S
O244 C250 1.247 . S
O245 Zn241 2.035 . S
O245 C250 1.258 . S
O246 C239 1.247 . S
O246 Zn243 2.028 . S
O247 C239 1.258 . S
O247 Zn241 2.035 . S
O248 Zn241 2.028 . S
O248 C251 1.247 . S
O249 Zn243 2.035 . S
O249 C251 1.258 . S
C250 O244 1.247 . S
C250 O245 1.258 . S
C251 O248 1.247 . S
C251 O249 1.258 . S
C252 O254 1.247 . S
C252 O256 1.258 . S
C253 O260 1.247 . S
C253 O261 1.258 . S
O254 C252 1.247 . S
O254 Zn255 2.028 . S
Zn255 O254 2.028 . S
Zn255 O259 2.035 . S
Zn255 O261 2.035 . S
Zn255 O262 2.028 . S
O256 C252 1.258 . S
O256 Zn257 2.035 . S
Zn257 O256 2.035 . S
Zn257 O258 2.028 . S
Zn257 O260 2.028 . S
Zn257 O263 2.035 . S
O258 Zn257 2.028 . S
O258 C264 1.247 . S
O259 Zn255 2.035 . S
O259 C264 1.258 . S
O260 C253 1.247 . S
O260 Zn257 2.028 . S
O261 C253 1.258 . S
O261 Zn255 2.035 . S
O262 Zn255 2.028 . S
O262 C265 1.247 . S
O263 Zn257 2.035 . S
O263 C265 1.258 . S
C264 O258 1.247 . S
C264 O259 1.258 . S
C265 O262 1.247 . S
C265 O263 1.258 . S
C266 O268 1.247 . S
C266 O270 1.258 . S
C267 O274 1.247 . S
C267 O275 1.258 . S
O268 C266 1.247 . S
O268 Zn269 2.028 . S
Zn269 O268 2.028 . S
Zn269 O273 2.035 . S
Zn269 O275 2.035 . S
Zn269 O276 2.028 . S
O270 C266 1.258 . S
O270 Zn271 2.035 . S
Zn271 O270 2.035 . S
Zn271 O272 2.028 . S
Zn271 O274 2.028 . S
Zn271 O277 2.035 . S
O272 Zn271 2.028 . S
O272 C278 1.247 . S
O273 Zn269 2.035 . S
O273 C278 1.258 . S
O274 C267 1.247 . S
O274 Zn271 2.028 . S
O275 C267 1.258 . S
O275 Zn269 2.035 . S
O276 Zn269 2.028 . S
O276 C279 1.247 . S
O277 Zn271 2.035 . S
O277 C279 1.258 . S
C278 O272 1.247 . S
C278 O273 1.258 . S
C279 O276 1.247 . S
C279 O277 1.258 . S
C280 O282 1.247 . S
C280 O284 1.258 . S
C281 O288 1.247 . S
C281 O289 1.258 . S
O282 C280 1.247 . S
O282 Zn283 2.028 . S
Zn283 O282 2.028 . S
Zn283 O287 2.035 . S
Zn283 O289 2.035 . S
Zn283 O290 2.028 . S
O284 C280 1.258 . S
O284 Zn285 2.035 . S
Zn285 O284 2.035 . S
Zn285 O286 2.028 . S
Zn285 O288 2.028 . S
Zn285 O291 2.035 . S
O286 Zn285 2.028 . S
O286 C292 1.247 . S
O287 Zn283 2.035 . S
O287 C292 1.258 . S
O288 C281 1.247 . S
O288 Zn285 2.028 . S
O289 C281 1.258 . S
O289 Zn283 2.035 . S
O290 Zn283 2.028 . S
O290 C293 1.247 . S
O291 Zn285 2.035 . S
O291 C293 1.258 . S
C292 O286 1.247 . S
C292 O287 1.258 . S
C293 O290 1.247 . S
C293 O291 1.258 . S
C294 O296 1.247 . S
C294 O298 1.258 . S
C295 O302 1.247 . S
C295 O303 1.258 . S
O296 C294 1.247 . S
O296 Zn297 2.028 . S
Zn297 O296 2.028 . S
Zn297 O301 2.035 . S
Zn297 O303 2.035 . S
Zn297 O304 2.028 . S
O298 C294 1.258 . S
O298 Zn299 2.035 . S
Zn299 O298 2.035 . S
Zn299 O300 2.028 . S
Zn299 O302 2.028 . S
Zn299 O305 2.035 . S
O300 Zn299 2.028 . S
O300 C306 1.247 . S
O301 Zn297 2.035 . S
O301 C306 1.258 . S
O302 C295 1.247 . S
O302 Zn299 2.028 . S
O303 C295 1.258 . S
O303 Zn297 2.035 . S
O304 Zn297 2.028 . S
O304 C307 1.247 . S
O305 Zn299 2.035 . S
O305 C307 1.258 . S
C306 O300 1.247 . S
C306 O301 1.258 . S
C307 O304 1.247 . S
C307 O305 1.258 . S
C308 O310 1.247 . S
C308 O312 1.258 . S
C309 O316 1.247 . S
C309 O317 1.258 . S
O310 C308 1.247 . S
O310 Zn311 2.028 . S
Zn311 O310 2.028 . S
Zn311 O315 2.035 . S
Zn311 O317 2.035 . S
Zn311 O318 2.028 . S
O312 C308 1.258 . S
O312 Zn313 2.035 . S
Zn313 O312 2.035 . S
Zn313 O314 2.028 . S
Zn313 O316 2.028 . S
Zn313 O319 2.035 . S
O314 Zn313 2.028 . S
O314 C320 1.247 . S
O315 Zn311 2.035 . S
O315 C320 1.258 . S
O316 C309 1.247 . S
O316 Zn313 2.028 . S
O317 C309 1.258 . S
O317 Zn311 2.035 . S
O318 Zn311 2.028 . S
O318 C321 1.247 . S
O319 Zn313 2.035 . S
O319 C321 1.258 . S
C320 O314 1.247 . S
C320 O315 1.258 . S
C321 O318 1.247 . S
C321 O319 1.258 . S
C322 O324 1.247 . S
C322 O326 1.258 . S
C323 O330 1.247 . S
C323 O331 1.258 . S
O324 C322 1.247 . S
O324 Zn325 2.028 . S
Zn325 O324 2.028 . S
Zn325 O329 2.035 . S
Zn325 O331 2.035 . S
Zn325 O332 2.028 . S
O326 C322 1.258 . S
O326 Zn327 2.035 . S
Zn327 O326 2.035 . S
Zn327 O328 2.028 . S
Zn327 O330 2.028 . S
Zn327 O333 2.035 . S
O328 Zn327 2.028 . S
O328 C334 1.247 . S
O329 Zn325 2.035 . S
O329 C334 1.258 . S
O330 C323 1.247 . S
O330 Zn327 2.028 . S
O331 C323 1.258 . S
O331 Zn325 2.035 . S
O332 Zn325 2.028 . S
O332 C335 1.247 . S
O333 Zn327 2.035 . S
O333 C335 1.258 . S
C334 O328 1.247 . S
C334 O329 1.258 . S
C335 O332 1.247 . S
C335 O333 1.258 . S
C336 O338 1.247 . S
C336 O340 1.258 . S
C337 O344 1.247 . S
C337 O345 1.258 . S
O338 C336 1.247 . S
O338 Zn339 2.028 . S
Zn339 O338 2.028 . S
Zn339 O343 2.035 . S
Zn339 O345 2.035 . S
Zn339 O346 2.028 . S
O340 C336 1.258 . S
O340 Zn341 2.035 . S
Zn341 O340 2.035 . S
Zn341 O342 2.028 . S
Zn341 O344 2.028 . S
Zn341 O347 2.035 . S
O342 Zn341 2.028 . S
O342 C348 1.247 . S
O343 Zn339 2.035 . S
O343 C348 1.258 . S
O344 C337 1.247 . S
O344 Zn341 2.028 . S
O345 C337 1.258 . S
O345 Zn339 2.035 . S
O346 Zn339 2.028 . S
O346 C349 1.247 . S
O347 Zn341 2.035 . S
O347 C349 1.258 . S
C348 O342 1.247 . S
C348 O343 1.258 . S
C349 O346 1.247 . S
C349 O347 1.258 . S
C350 O352 1.247 . S
C350 O354 1.258 . S
C351 O358 1.247 . S
C351 O359 1.258 . S
O352 C350 1.247 . S
O352 Zn353 2.028 . S
Zn353 O352 2.028 . S
Zn353 O357 2.035 . S
Zn353 O359 2.035 . S
Zn353 O360 2.028 . S
O354 C350 1.258 . S
O354 Zn355 2.035 . S
Zn355 O354 2.035 . S
Zn355 O356 2.028 . S
Zn355 O358 2.028 . S
Zn355 O361 2.035 . S
O356 Zn355 2.028 . S
O356 C362 1.247 . S
O357 Zn353 2.035 . S
O357 C362 1.258 . S
O358 C351 1.247 . S
O358 Zn355 2.028 . S
O359 C351 1.258 . S
O359 Zn353 2.035 . S
O360 Zn353 2.028 . S
O360 C363 1.247 . S
O361 Zn355 2.035 . S
O361 C363 1.258 . S
C362 O356 1.247 . S
C362 O357 1.258 . S
C363 O360 1.247 . S
C363 O361 1.258 . S
C364 O366 1.247 . S
C364 O368 1.258 . S
C365 O372 1.247 . S
C365 O373 1.258 . S
O366 C364 1.247 . S
O366 Zn367 2.028 . S
Zn367 O366 2.028 . S
Zn367 O371 2.035 . S
Zn367 O373 2.035 . S
Zn367 O374 2.028 . S
O368 C364 1.258 . S
O368 Zn369 2.035 . S
Zn369 O368 2.035 . S
Zn369 O370 2.028 . S
Zn369 O372 2.028 . S
Zn369 O375 2.035 . S
O370 Zn369 2.028 . S
O370 C376 1.247 . S
O371 Zn367 2.035 . S
O371 C376 1.258 . S
O372 C365 1.247 . S
O372 Zn369 2.028 . S
O373 C365 1.258 . S
O373 Zn367 2.035 . S
O374 Zn367 2.028 . S
O374 C377 1.247 . S
O375 Zn369 2.035 . S
O375 C377 1.258 . S
C376 O370 1.247 . S
C376 O371 1.258 . S
C377 O374 1.247 . S
C377 O375 1.258 . S
C378 O380 1.247 . S
C378 O382 1.258 . S
C379 O386 1.247 . S
C379 O387 1.258 . S
O380 C378 1.247 . S
O380 Zn381 2.028 . S
Zn381 O380 2.028 . S
Zn381 O385 2.035 . S
Zn381 O387 2.035 . S
Zn381 O388 2.028 . S
O382 C378 1.258 . S
O382 Zn383 2.035 . S
Zn383 O382 2.035 . S
Zn383 O384 2.028 . S
Zn383 O386 2.028 . S
Zn383 O389 2.035 . S
O384 Zn383 2.028 . S
O384 C390 1.247 . S
O385 Zn381 2.035 . S
O385 C390 1.258 . S
O386 C379 1.247 . S
O386 Zn383 2.028 . S
O387 C379 1.258 . S
O387 Zn381 2.035 . S
O388 Zn381 2.028 . S
O388 C391 1.247 . S
O389 Zn383 2.035 . S
O389 C391 1.258 . S
C390 O384 1.247 . S
C390 O385 1.258 . S
C391 O388 1.247 . S
C391 O389 1.258 . S
C392 O394 1.247 . S
C392 O396 1.258 . S
C393 O400 1.247 . S
C393 O401 1.258 . S
O394 C392 1.247 . S
O394 Zn395 2.028 . S
Zn395 O394 2.028 . S
Zn395 O399 2.035 . S
Zn395 O401 2.035 . S
Zn395 O402 2.028 . S
O396 C392 1.258 . S
O396 Zn397 2.035 . S
Zn397 O396 2.035 . S
Zn397 O398 2.028 . S
Zn397 O400 2.028 . S
Zn397 O403 2.035 . S
O398 Zn397 2.028 . S
O398 C404 1.247 . S
O399 Zn395 2.035 . S
O399 C404 1.258 . S
O400 C393 1.247 . S
O400 Zn397 2.028 . S
O401 C393 1.258 . S
O401 Zn395 2.035 . S
O402 Zn395 2.028 . S
O402 C405 1.247 . S
O403 Zn397 2.035 . S
O403 C405 1.258 . S
C404 O398 1.247 . S
C404 O399 1.258 . S
C405 O402 1.247 . S
C405 O403 1.258 . S
C406 O408 1.247 . S
C406 O410 1.258 . S
C407 O414 1.247 . S
C407 O415 1.258 . S
O408 C406 1.247 . S
O408 Zn409 2.028 . S
Zn409 O408 2.028 . S
Zn409 O413 2.035 . S
Zn409 O415 2.035 . S
Zn409 O416 2.028 . S
O410 C406 1.258 . S
O410 Zn411 2.035 . S
Zn411 O410 2.035 . S
Zn411 O412 2.028 . S
Zn411 O414 2.028 . S
Zn411 O417 2.035 . S
O412 Zn411 2.028 . S
O412 C418 1.247 . S
O413 Zn409 2.035 . S
O413 C418 1.258 . S
O414 C407 1.247 . S
O414 Zn411 2.028 . S
O415 C407 1.258 . S
O415 Zn409 2.035 . S
O416 Zn409 2.028 . S
O416 C419 1.247 . S
O417 Zn411 2.035 . S
O417 C419 1.258 . S
C418 O412 1.247 . S
C418 O413 1.258 . S
C419 O416 1.247 . S
C419 O417 1.258 . S
C420 O422 1.247 . S
C420 O424 1.258 . S
C421 O428 1.247 . S
C421 O429 1.258 . S
O422 C420 1.247 . S
O422 Zn423 2.028 . S
Zn423 O422 2.028 . S
Zn423 O427 2.035 . S
Zn423 O429 2.035 . S
Zn423 O430 2.028 . S
O424 C420 1.258 . S
O424 Zn425 2.035 . S
Zn425 O424 2.035 . S
Zn425 O426 2.028 . S
Zn425 O428 2.028 . S
Zn425 O431 2.035 . S
O426 Zn425 2.028 . S
O426 C432 1.247 . S
O427 Zn423 2.035 . S
O427 C432 1.258 . S
O428 C421 1.247 . S
O428 Zn425 2.028 . S
O429 C421 1.258 . S
O429 Zn423 2.035 . S
O430 Zn423 2.028 . S
O430 C433 1.247 . S
O431 Zn425 2.035 . S
O431 C433 1.258 . S
C432 O426 1.247 . S
C432 O427 1.258 . S
C433 O430 1.247 . S
C433 O431 1.258 . S
C434 O436 1.247 . S
C434 O438 1.258 . S
C435 O442 1.247 . S
C435 O443 1.258 . S
O436 C434 1.247 . S
O436 Zn437 2.028 . S
Zn437 O436 2.028 . S
Zn437 O441 2.035 . S
Zn437 O443 2.035 . S
Zn437 O444 2.028 . S
O438 C434 1.258 . S
O438 Zn439 2.035 . S
Zn439 O438 2.035 . S
Zn439 O440 2.028 . S
Zn439 O442 2.028 . S
Zn439 O445 2.035 . S
O440 Zn439 2.028 . S
O440 C446 1.247 . S
O441 Zn437 2.035 . S
O441 C446 1.258 . S
O442 C435 1.247 . S
O442 Zn439 2.028 . S
O443 C435 1.258 . S
O443 Zn437 2.035 . S
O444 Zn437 2.028 . S
O444 C447 1.247 . S
O445 Zn439 2.035 . S
O445 C447 1.258 . S
C446 O440 1.247 . S
C446 O441 1.258 . S
C447 O444 1.247 . S
C447 O445 1.258 . S
C448 C449 1.349 . S
C448 C450 1.327 . S
C448 H473 0.950 . S
C449 C448 1.349 . S
C449 C465 1.349 . S
C450 C448 1.327 . S
C450 C469 1.429 . S
C450 H474 0.950 . S
C451 C468 1.574 . S
C451 C470 1.368 . S
C451 H475 0.949 . S
H452 C456 0.949 . S
C453 C454 1.349 . S
C453 C455 1.327 . S
C453 H476 0.950 . S
C454 C453 1.349 . S
C454 C466 1.349 . S
C455 C453 1.327 . S
C455 C471 1.429 . S
C455 H477 0.950 . S
C456 H452 0.949 . S
C456 C464 1.574 . S
C456 C472 1.368 . S
H457 C465 0.950 . S
H458 C463 0.950 . S
H459 C464 0.949 . S
H460 C466 0.950 . S
H461 C467 0.950 . S
H462 C468 0.949 . S
C463 H458 0.950 . S
C463 C465 1.327 . S
C463 C469 1.429 . S
C464 C456 1.574 . S
C464 H459 0.949 . S
C464 C470 1.368 . S
C465 C449 1.349 . S
C465 H457 0.950 . S
C465 C463 1.327 . S
C466 C454 1.349 . S
C466 H460 0.950 . S
C466 C467 1.327 . S
C467 H461 0.950 . S
C467 C466 1.327 . S
C467 C471 1.429 . S
C468 C451 1.574 . S
C468 H462 0.949 . S
C468 C472 1.368 . S
C469 C450 1.429 . S
C469 C463 1.429 . S
C469 C470 1.523 . S
C470 C451 1.368 . S
C470 C464 1.368 . S
C470 C469 1.523 . S
C471 C455 1.429 . S
C471 C467 1.429 . S
C471 C472 1.523 . S
C472 C456 1.368 . S
C472 C468 1.368 . S
C472 C471 1.523 . S
H473 C448 0.950 . S
H474 C450 0.950 . S
H475 C451 0.949 . S
H476 C453 0.950 . S
H477 C455 0.950 . S
C478 C479 1.349 . S
C478 C480 1.327 . S
C478 H503 0.950 . S
C479 C478 1.349 . S
C479 C495 1.349 . S
C480 C478 1.327 . S
C480 C499 1.429 . S
C480 H504 0.950 . S
C481 C498 1.574 . S
C481 C500 1.368 . S
C481 H505 0.949 . S
H482 C486 0.949 . S
C483 C484 1.349 . S
C483 C485 1.327 . S
C483 H506 0.950 . S
C484 C483 1.349 . S
C484 C496 1.349 . S
C485 C483 1.327 . S
C485 C501 1.429 . S
C485 H507 0.950 . S
C486 H482 0.949 . S
C486 C494 1.574 . S
C486 C502 1.368 . S
H487 C495 0.950 . S
H488 C493 0.950 1_655 S
H489 C494 0.949 . S
H490 C496 0.950 . S
H491 C497 0.950 . S
H492 C498 0.949 . S
C493 H488 0.950 1_455 S
C493 C495 1.327 . S
C493 C499 1.429 . S
C494 C486 1.574 . S
C494 H489 0.949 . S
C494 C500 1.368 . S
C495 C479 1.349 . S
C495 H487 0.950 . S
C495 C493 1.327 . S
C496 C484 1.349 . S
C496 H490 0.950 . S
C496 C497 1.327 . S
C497 H491 0.950 . S
C497 C496 1.327 . S
C497 C501 1.429 . S
C498 C481 1.574 . S
C498 H492 0.949 . S
C498 C502 1.368 . S
C499 C480 1.429 . S
C499 C493 1.429 . S
C499 C500 1.523 1_455 S
C500 C481 1.368 . S
C500 C494 1.368 . S
C500 C499 1.523 1_655 S
C501 C485 1.429 . S
C501 C497 1.429 . S
C501 C502 1.523 . S
C502 C486 1.368 . S
C502 C498 1.368 . S
C502 C501 1.523 . S
H503 C478 0.950 . S
H504 C480 0.950 . S
H505 C481 0.949 . S
H506 C483 0.950 . S
H507 C485 0.950 . S
C508 C509 1.349 . S
C508 C510 1.327 . S
C508 H533 0.950 . S
C509 C508 1.349 . S
C509 C525 1.349 . S
C510 C508 1.327 . S
C510 C529 1.429 . S
C510 H534 0.950 . S
C511 C528 1.574 . S
C511 C530 1.368 . S
C511 H535 0.949 . S
H512 C516 0.949 . S
C513 C514 1.349 . S
C513 C515 1.327 . S
C513 H536 0.950 . S
C514 C513 1.349 . S
C514 C526 1.349 . S
C515 C513 1.327 . S
C515 C531 1.429 . S
C515 H537 0.950 . S
C516 H512 0.949 . S
C516 C524 1.574 . S
C516 C532 1.368 . S
H517 C525 0.950 . S
H518 C523 0.950 . S
H519 C524 0.949 . S
H520 C526 0.950 . S
H521 C527 0.950 . S
H522 C528 0.949 . S
C523 H518 0.950 . S
C523 C525 1.327 . S
C523 C529 1.429 . S
C524 C516 1.574 . S
C524 H519 0.949 . S
C524 C530 1.368 . S
C525 C509 1.349 . S
C525 H517 0.950 . S
C525 C523 1.327 . S
C526 C514 1.349 . S
C526 H520 0.950 . S
C526 C527 1.327 . S
C527 H521 0.950 . S
C527 C526 1.327 . S
C527 C531 1.429 . S
C528 C511 1.574 . S
C528 H522 0.949 . S
C528 C532 1.368 . S
C529 C510 1.429 . S
C529 C523 1.429 . S
C529 C530 1.523 . S
C530 C511 1.368 . S
C530 C524 1.368 . S
C530 C529 1.523 . S
C531 C515 1.429 . S
C531 C527 1.429 . S
C531 C532 1.523 . S
C532 C516 1.368 . S
C532 C528 1.368 . S
C532 C531 1.523 . S
H533 C508 0.950 . S
H534 C510 0.950 . S
H535 C511 0.949 . S
H536 C513 0.950 . S
H537 C515 0.950 . S
C538 C539 1.349 . S
C538 C540 1.327 . S
C538 H563 0.950 . S
C539 C538 1.349 . S
C539 C555 1.349 . S
C540 C538 1.327 . S
C540 C559 1.429 . S
C540 H564 0.950 . S
C541 C558 1.574 . S
C541 C560 1.368 . S
C541 H565 0.949 . S
H542 C546 0.949 . S
C543 C544 1.349 . S
C543 C545 1.327 . S
C543 H566 0.950 . S
C544 C543 1.349 . S
C544 C556 1.349 . S
C545 C543 1.327 . S
C545 C561 1.429 . S
C545 H567 0.950 . S
C546 H542 0.949 . S
C546 C554 1.574 . S
C546 C562 1.368 . S
H547 C555 0.950 . S
H548 C553 0.950 . S
H549 C554 0.949 . S
H550 C556 0.950 . S
H551 C557 0.950 . S
H552 C558 0.949 . S
C553 H548 0.950 . S
C553 C555 1.327 . S
C553 C559 1.429 . S
C554 C546 1.574 . S
C554 H549 0.949 . S
C554 C560 1.368 . S
C555 C539 1.349 . S
C555 H547 0.950 . S
C555 C553 1.327 . S
C556 C544 1.349 . S
C556 H550 0.950 . S
C556 C557 1.327 . S
C557 H551 0.950 . S
C557 C556 1.327 . S
C557 C561 1.429 . S
C558 C541 1.574 . S
C558 H552 0.949 . S
C558 C562 1.368 . S
C559 C540 1.429 . S
C559 C553 1.429 . S
C559 C560 1.523 . S
C560 C541 1.368 . S
C560 C554 1.368 . S
C560 C559 1.523 . S
C561 C545 1.429 . S
C561 C557 1.429 . S
C561 C562 1.523 . S
C562 C546 1.368 . S
C562 C558 1.368 . S
C562 C561 1.523 . S
H563 C538 0.950 . S
H564 C540 0.950 . S
H565 C541 0.949 . S
H566 C543 0.950 . S
H567 C545 0.950 . S
C568 C569 1.349 . S
C568 C570 1.327 . S
C568 H593 0.950 . S
C569 C568 1.349 . S
C569 C585 1.349 . S
C570 C568 1.327 . S
C570 C589 1.429 . S
C570 H594 0.950 . S
C571 C588 1.574 . S
C571 C590 1.368 . S
C571 H595 0.949 . S
H572 C576 0.949 . S
C573 C574 1.349 . S
C573 C575 1.327 . S
C573 H596 0.950 . S
C574 C573 1.349 . S
C574 C586 1.349 . S
C575 C573 1.327 . S
C575 C591 1.429 . S
C575 H597 0.950 . S
C576 H572 0.949 . S
C576 C584 1.574 . S
C576 C592 1.368 . S
H577 C585 0.950 . S
H578 C583 0.950 . S
H579 C584 0.949 . S
H580 C586 0.950 . S
H581 C587 0.950 . S
H582 C588 0.949 . S
C583 H578 0.950 . S
C583 C585 1.327 . S
C583 C589 1.429 . S
C584 C576 1.574 . S
C584 H579 0.949 . S
C584 C590 1.368 . S
C585 C569 1.349 . S
C585 H577 0.950 . S
C585 C583 1.327 . S
C586 C574 1.349 . S
C586 H580 0.950 . S
C586 C587 1.327 . S
C587 H581 0.950 . S
C587 C586 1.327 . S
C587 C591 1.429 . S
C588 C571 1.574 . S
C588 H582 0.949 . S
C588 C592 1.368 . S
C589 C570 1.429 . S
C589 C583 1.429 . S
C589 C590 1.523 . S
C590 C571 1.368 . S
C590 C584 1.368 . S
C590 C589 1.523 . S
C591 C575 1.429 . S
C591 C587 1.429 . S
C591 C592 1.523 . S
C592 C576 1.368 . S
C592 C588 1.368 . S
C592 C591 1.523 . S
H593 C568 0.950 . S
H594 C570 0.950 . S
H595 C571 0.949 . S
H596 C573 0.950 . S
H597 C575 0.950 . S
C598 C599 1.349 . S
C598 C600 1.327 . S
C598 H623 0.950 . S
C599 C598 1.349 . S
C599 C615 1.349 . S
C600 C598 1.327 . S
C600 C619 1.429 . S
C600 H624 0.950 . S
C601 C618 1.574 . S
C601 C620 1.368 . S
C601 H625 0.949 . S
H602 C606 0.949 . S
C603 C604 1.349 . S
C603 C605 1.327 . S
C603 H626 0.950 . S
C604 C603 1.349 . S
C604 C616 1.349 . S
C605 C603 1.327 . S
C605 C621 1.429 . S
C605 H627 0.950 . S
C606 H602 0.949 . S
C606 C614 1.574 . S
C606 C622 1.368 . S
H607 C615 0.950 . S
H608 C613 0.950 . S
H609 C614 0.949 . S
H610 C616 0.950 . S
H611 C617 0.950 . S
H612 C618 0.949 . S
C613 H608 0.950 . S
C613 C615 1.327 . S
C613 C619 1.429 . S
C614 C606 1.574 . S
C614 H609 0.949 . S
C614 C620 1.368 . S
C615 C599 1.349 . S
C615 H607 0.950 . S
C615 C613 1.327 . S
C616 C604 1.349 . S
C616 H610 0.950 . S
C616 C617 1.327 . S
C617 H611 0.950 . S
C617 C616 1.327 . S
C617 C621 1.429 . S
C618 C601 1.574 . S
C618 H612 0.949 . S
C618 C622 1.368 . S
C619 C600 1.429 . S
C619 C613 1.429 . S
C619 C620 1.523 . S
C620 C601 1.368 . S
C620 C614 1.368 . S
C620 C619 1.523 . S
C621 C605 1.429 . S
C621 C617 1.429 . S
C621 C622 1.523 . S
C622 C606 1.368 . S
C622 C618 1.368 . S
C622 C621 1.523 . S
H623 C598 0.950 . S
H624 C600 0.950 . S
H625 C601 0.949 . S
H626 C603 0.950 . S
H627 C605 0.950 . S
C628 C629 1.349 . S
C628 C630 1.327 . S
C628 H653 0.950 . S
C629 C628 1.349 . S
C629 C645 1.349 . S
C630 C628 1.327 . S
C630 C649 1.429 . S
C630 H654 0.950 . S
C631 C648 1.574 . S
C631 C650 1.368 . S
C631 H655 0.949 . S
H632 C636 0.949 . S
C633 C634 1.349 . S
C633 C635 1.327 . S
C633 H656 0.950 . S
C634 C633 1.349 . S
C634 C646 1.349 . S
C635 C633 1.327 . S
C635 C651 1.429 . S
C635 H657 0.950 . S
C636 H632 0.949 . S
C636 C644 1.574 . S
C636 C652 1.368 . S
H637 C645 0.950 . S
H638 C643 0.950 . S
H639 C644 0.949 . S
H640 C646 0.950 . S
H641 C647 0.950 . S
H642 C648 0.949 . S
C643 H638 0.950 . S
C643 C645 1.327 . S
C643 C649 1.429 . S
C644 C636 1.574 . S
C644 H639 0.949 . S
C644 C650 1.368 . S
C645 C629 1.349 . S
C645 H637 0.950 . S
C645 C643 1.327 . S
C646 C634 1.349 . S
C646 H640 0.950 . S
C646 C647 1.327 . S
C647 H641 0.950 . S
C647 C646 1.327 . S
C647 C651 1.429 . S
C648 C631 1.574 . S
C648 H642 0.949 . S
C648 C652 1.368 . S
C649 C630 1.429 . S
C649 C643 1.429 . S
C649 C650 1.523 . S
C650 C631 1.368 . S
C650 C644 1.368 . S
C650 C649 1.523 . S
C651 C635 1.429 . S
C651 C647 1.429 . S
C651 C652 1.523 . S
C652 C636 1.368 . S
C652 C648 1.368 . S
C652 C651 1.523 . S
H653 C628 0.950 . S
H654 C630 0.950 . S
H655 C631 0.949 . S
H656 C633 0.950 . S
H657 C635 0.950 . S
C658 C659 1.349 . S
C658 C660 1.327 . S
C658 H683 0.950 . S
C659 C658 1.349 . S
C659 C675 1.349 . S
C660 C658 1.327 . S
C660 C679 1.429 . S
C660 H684 0.950 1_455 S
C661 C678 1.574 . S
C661 C680 1.368 . S
C661 H685 0.949 . S
H662 C666 0.949 . S
C663 C664 1.349 . S
C663 C665 1.327 . S
C663 H686 0.950 . S
C664 C663 1.349 . S
C664 C676 1.349 . S
C665 C663 1.327 . S
C665 C681 1.429 . S
C665 H687 0.950 . S
C666 H662 0.949 . S
C666 C674 1.574 . S
C666 C682 1.368 . S
H667 C675 0.950 . S
H668 C673 0.950 . S
H669 C674 0.949 . S
H670 C676 0.950 . S
H671 C677 0.950 . S
H672 C678 0.949 . S
C673 H668 0.950 . S
C673 C675 1.327 . S
C673 C679 1.429 . S
C674 C666 1.574 . S
C674 H669 0.949 . S
C674 C680 1.368 . S
C675 C659 1.349 . S
C675 H667 0.950 . S
C675 C673 1.327 . S
C676 C664 1.349 . S
C676 H670 0.950 . S
C676 C677 1.327 . S
C677 H671 0.950 . S
C677 C676 1.327 . S
C677 C681 1.429 . S
C678 C661 1.574 . S
C678 H672 0.949 . S
C678 C682 1.368 . S
C679 C660 1.429 . S
C679 C673 1.429 . S
C679 C680 1.523 1_455 S
C680 C661 1.368 . S
C680 C674 1.368 . S
C680 C679 1.523 1_655 S
C681 C665 1.429 . S
C681 C677 1.429 . S
C681 C682 1.523 . S
C682 C666 1.368 . S
C682 C678 1.368 . S
C682 C681 1.523 . S
H683 C658 0.950 . S
H684 C660 0.950 1_655 S
H685 C661 0.949 . S
H686 C663 0.950 . S
H687 C665 0.950 . S
C688 C689 1.349 . S
C688 C690 1.327 . S
C688 H713 0.950 . S
C689 C688 1.349 . S
C689 C705 1.349 . S
C690 C688 1.327 . S
C690 C709 1.429 . S
C690 H714 0.950 . S
C691 C708 1.574 . S
C691 C710 1.368 . S
C691 H715 0.949 . S
H692 C696 0.949 . S
C693 C694 1.349 . S
C693 C695 1.327 . S
C693 H716 0.950 . S
C694 C693 1.349 . S
C694 C706 1.349 . S
C695 C693 1.327 . S
C695 C711 1.429 . S
C695 H717 0.950 . S
C696 H692 0.949 . S
C696 C704 1.574 . S
C696 C712 1.368 . S
H697 C705 0.950 . S
H698 C703 0.950 . S
H699 C704 0.949 . S
H700 C706 0.950 . S
H701 C707 0.950 . S
H702 C708 0.949 . S
C703 H698 0.950 . S
C703 C705 1.327 . S
C703 C709 1.429 . S
C704 C696 1.574 . S
C704 H699 0.949 . S
C704 C710 1.368 . S
C705 C689 1.349 . S
C705 H697 0.950 . S
C705 C703 1.327 . S
C706 C694 1.349 . S
C706 H700 0.950 . S
C706 C707 1.327 . S
C707 H701 0.950 . S
C707 C706 1.327 . S
C707 C711 1.429 . S
C708 C691 1.574 . S
C708 H702 0.949 . S
C708 C712 1.368 . S
C709 C690 1.429 . S
C709 C703 1.429 . S
C709 C710 1.523 . S
C710 C691 1.368 . S
C710 C704 1.368 . S
C710 C709 1.523 . S
C711 C695 1.429 . S
C711 C707 1.429 . S
C711 C712 1.523 . S
C712 C696 1.368 . S
C712 C708 1.368 . S
C712 C711 1.523 . S
H713 C688 0.950 . S
H714 C690 0.950 . S
H715 C691 0.949 . S
H716 C693 0.950 . S
H717 C695 0.950 . S
C718 C719 1.349 . S
C718 C720 1.327 . S
C718 H743 0.950 . S
C719 C718 1.349 . S
C719 C735 1.349 . S
C720 C718 1.327 . S
C720 C739 1.429 . S
C720 H744 0.950 . S
C721 C738 1.574 . S
C721 C740 1.368 . S
C721 H745 0.949 . S
H722 C726 0.949 . S
C723 C724 1.349 . S
C723 C725 1.327 . S
C723 H746 0.950 . S
C724 C723 1.349 . S
C724 C736 1.349 . S
C725 C723 1.327 . S
C725 C741 1.429 . S
C725 H747 0.950 . S
C726 H722 0.949 . S
C726 C734 1.574 . S
C726 C742 1.368 . S
H727 C735 0.950 . S
H728 C733 0.950 . S
H729 C734 0.949 . S
H730 C736 0.950 . S
H731 C737 0.950 . S
H732 C738 0.949 . S
C733 H728 0.950 . S
C733 C735 1.327 . S
C733 C739 1.429 . S
C734 C726 1.574 . S
C734 H729 0.949 . S
C734 C740 1.368 . S
C735 C719 1.349 . S
C735 H727 0.950 . S
C735 C733 1.327 . S
C736 C724 1.349 . S
C736 H730 0.950 . S
C736 C737 1.327 . S
C737 H731 0.950 . S
C737 C736 1.327 . S
C737 C741 1.429 . S
C738 C721 1.574 . S
C738 H732 0.949 . S
C738 C742 1.368 . S
C739 C720 1.429 . S
C739 C733 1.429 . S
C739 C740 1.523 . S
C740 C721 1.368 . S
C740 C734 1.368 . S
C740 C739 1.523 . S
C741 C725 1.429 . S
C741 C737 1.429 . S
C741 C742 1.523 1_655 S
C742 C726 1.368 . S
C742 C738 1.368 . S
C742 C741 1.523 1_455 S
H743 C718 0.950 . S
H744 C720 0.950 . S
H745 C721 0.949 . S
H746 C723 0.950 . S
H747 C725 0.950 . S
C748 C749 1.349 . S
C748 C750 1.327 . S
C748 H773 0.950 . S
C749 C748 1.349 . S
C749 C765 1.349 . S
C750 C748 1.327 . S
C750 C769 1.429 . S
C750 H774 0.950 . S
C751 C768 1.574 . S
C751 C770 1.368 . S
C751 H775 0.949 . S
H752 C756 0.949 . S
C753 C754 1.349 . S
C753 C755 1.327 . S
C753 H776 0.950 . S
C754 C753 1.349 . S
C754 C766 1.349 . S
C755 C753 1.327 . S
C755 C771 1.429 . S
C755 H777 0.950 . S
C756 H752 0.949 . S
C756 C764 1.574 . S
C756 C772 1.368 . S
H757 C765 0.950 . S
H758 C763 0.950 . S
H759 C764 0.949 . S
H760 C766 0.950 . S
H761 C767 0.950 . S
H762 C768 0.949 . S
C763 H758 0.950 . S
C763 C765 1.327 . S
C763 C769 1.429 . S
C764 C756 1.574 . S
C764 H759 0.949 . S
C764 C770 1.368 . S
C765 C749 1.349 . S
C765 H757 0.950 . S
C765 C763 1.327 . S
C766 C754 1.349 . S
C766 H760 0.950 . S
C766 C767 1.327 . S
C767 H761 0.950 . S
C767 C766 1.327 . S
C767 C771 1.429 . S
C768 C751 1.574 . S
C768 H762 0.949 . S
C768 C772 1.368 . S
C769 C750 1.429 . S
C769 C763 1.429 . S
C769 C770 1.523 . S
C770 C751 1.368 . S
C770 C764 1.368 . S
C770 C769 1.523 . S
C771 C755 1.429 . S
C771 C767 1.429 . S
C771 C772 1.523 . S
C772 C756 1.368 . S
C772 C768 1.368 . S
C772 C771 1.523 . S
H773 C748 0.950 . S
H774 C750 0.950 . S
H775 C751 0.949 . S
H776 C753 0.950 . S
H777 C755 0.950 . S
C778 C779 1.349 . S
C778 C780 1.327 . S
C778 H803 0.950 . S
C779 C778 1.349 . S
C779 C795 1.349 . S
C780 C778 1.327 . S
C780 C799 1.429 . S
C780 H804 0.950 . S
C781 C798 1.574 . S
C781 C800 1.368 . S
C781 H805 0.949 . S
H782 C786 0.949 . S
C783 C784 1.349 . S
C783 C785 1.327 . S
C783 H806 0.950 . S
C784 C783 1.349 . S
C784 C796 1.349 . S
C785 C783 1.327 . S
C785 C801 1.429 . S
C785 H807 0.950 . S
C786 H782 0.949 . S
C786 C794 1.574 . S
C786 C802 1.368 . S
H787 C795 0.950 . S
H788 C793 0.950 . S
H789 C794 0.949 . S
H790 C796 0.950 . S
H791 C797 0.950 . S
H792 C798 0.949 . S
C793 H788 0.950 . S
C793 C795 1.327 . S
C793 C799 1.429 . S
C794 C786 1.574 . S
C794 H789 0.949 . S
C794 C800 1.368 . S
C795 C779 1.349 . S
C795 H787 0.950 . S
C795 C793 1.327 . S
C796 C784 1.349 . S
C796 H790 0.950 . S
C796 C797 1.327 . S
C797 H791 0.950 . S
C797 C796 1.327 . S
C797 C801 1.429 . S
C798 C781 1.574 . S
C798 H792 0.949 . S
C798 C802 1.368 . S
C799 C780 1.429 . S
C799 C793 1.429 . S
C799 C800 1.523 . S
C800 C781 1.368 . S
C800 C794 1.368 . S
C800 C799 1.523 . S
C801 C785 1.429 . S
C801 C797 1.429 . S
C801 C802 1.523 . S
C802 C786 1.368 . S
C802 C798 1.368 . S
C802 C801 1.523 . S
H803 C778 0.950 . S
H804 C780 0.950 . S
H805 C781 0.949 . S
H806 C783 0.950 . S
H807 C785 0.950 . S
C808 C809 1.349 . S
C808 C810 1.327 . S
C808 H833 0.950 . S
C809 C808 1.349 . S
C809 C825 1.349 . S
C810 C808 1.327 . S
C810 C829 1.429 . S
C810 H834 0.950 . S
C811 C828 1.574 . S
C811 C830 1.368 . S
C811 H835 0.949 . S
H812 C816 0.949 . S
C813 C814 1.349 . S
C813 C815 1.327 . S
C813 H836 0.950 . S
C814 C813 1.349 . S
C814 C826 1.349 . S
C815 C813 1.327 . S
C815 C831 1.429 . S
C815 H837 0.950 . S
C816 H812 0.949 . S
C816 C824 1.574 . S
C816 C832 1.368 . S
H817 C825 0.950 . S
H818 C823 0.950 . S
H819 C824 0.949 . S
H820 C826 0.950 . S
H821 C827 0.950 . S
H822 C828 0.949 . S
C823 H818 0.950 . S
C823 C825 1.327 . S
C823 C829 1.429 . S
C824 C816 1.574 . S
C824 H819 0.949 . S
C824 C830 1.368 . S
C825 C809 1.349 . S
C825 H817 0.950 . S
C825 C823 1.327 . S
C826 C814 1.349 . S
C826 H820 0.950 . S
C826 C827 1.327 . S
C827 H821 0.950 . S
C827 C826 1.327 . S
C827 C831 1.429 . S
C828 C811 1.574 . S
C828 H822 0.949 . S
C828 C832 1.368 . S
C829 C810 1.429 . S
C829 C823 1.429 . S
C829 C830 1.523 . S
C830 C811 1.368 . S
C830 C824 1.368 . S
C830 C829 1.523 . S
C831 C815 1.429 . S
C831 C827 1.429 . S
C831 C832 1.523 . S
C832 C816 1.368 . S
C832 C828 1.368 . S
C832 C831 1.523 . S
H833 C808 0.950 . S
H834 C810 0.950 . S
H835 C811 0.949 . S
H836 C813 0.950 . S
H837 C815 0.950 . S
C838 C839 1.349 . S
C838 C840 1.327 . S
C838 H863 0.950 . S
C839 C838 1.349 . S
C839 C855 1.349 . S
C840 C838 1.327 . S
C840 C859 1.429 . S
C840 H864 0.950 . S
C841 C858 1.574 . S
C841 C860 1.368 . S
C841 H865 0.949 . S
H842 C846 0.949 . S
C843 C844 1.349 . S
C843 C845 1.327 . S
C843 H866 0.950 . S
C844 C843 1.349 . S
C844 C856 1.349 . S
C845 C843 1.327 . S
C845 C861 1.429 . S
C845 H867 0.950 . S
C846 H842 0.949 . S
C846 C854 1.574 . S
C846 C862 1.368 . S
H847 C855 0.950 . S
H848 C853 0.950 . S
H849 C854 0.949 . S
H850 C856 0.950 . S
H851 C857 0.950 . S
H852 C858 0.949 . S
C853 H848 0.950 . S
C853 C855 1.327 . S
C853 C859 1.429 . S
C854 C846 1.574 . S
C854 H849 0.949 . S
C854 C860 1.368 . S
C855 C839 1.349 . S
C855 H847 0.950 . S
C855 C853 1.327 . S
C856 C844 1.349 . S
C856 H850 0.950 . S
C856 C857 1.327 . S
C857 H851 0.950 . S
C857 C856 1.327 . S
C857 C861 1.429 . S
C858 C841 1.574 . S
C858 H852 0.949 . S
C858 C862 1.368 . S
C859 C840 1.429 . S
C859 C853 1.429 . S
C859 C860 1.523 . S
C860 C841 1.368 . S
C860 C854 1.368 . S
C860 C859 1.523 . S
C861 C845 1.429 . S
C861 C857 1.429 . S
C861 C862 1.523 . S
C862 C846 1.368 . S
C862 C858 1.368 . S
C862 C861 1.523 . S
H863 C838 0.950 . S
H864 C840 0.950 . S
H865 C841 0.949 . S
H866 C843 0.950 . S
H867 C845 0.950 . S
C868 C869 1.349 . S
C868 C870 1.327 . S
C868 H893 0.950 . S
C869 C868 1.349 . S
C869 C885 1.349 . S
C870 C868 1.327 . S
C870 C889 1.429 . S
C870 H894 0.950 . S
C871 C888 1.574 . S
C871 C890 1.368 . S
C871 H895 0.949 . S
H872 C876 0.949 . S
C873 C874 1.349 . S
C873 C875 1.327 . S
C873 H896 0.950 . S
C874 C873 1.349 . S
C874 C886 1.349 . S
C875 C873 1.327 . S
C875 C891 1.429 . S
C875 H897 0.950 . S
C876 H872 0.949 . S
C876 C884 1.574 . S
C876 C892 1.368 . S
H877 C885 0.950 . S
H878 C883 0.950 . S
H879 C884 0.949 . S
H880 C886 0.950 . S
H881 C887 0.950 . S
H882 C888 0.949 . S
C883 H878 0.950 . S
C883 C885 1.327 . S
C883 C889 1.429 . S
C884 C876 1.574 . S
C884 H879 0.949 . S
C884 C890 1.368 . S
C885 C869 1.349 . S
C885 H877 0.950 . S
C885 C883 1.327 . S
C886 C874 1.349 . S
C886 H880 0.950 . S
C886 C887 1.327 . S
C887 H881 0.950 . S
C887 C886 1.327 . S
C887 C891 1.429 . S
C888 C871 1.574 . S
C888 H882 0.949 . S
C888 C892 1.368 . S
C889 C870 1.429 . S
C889 C883 1.429 . S
C889 C890 1.523 . S
C890 C871 1.368 . S
C890 C884 1.368 . S
C890 C889 1.523 . S
C891 C875 1.429 . S
C891 C887 1.429 . S
C891 C892 1.523 . S
C892 C876 1.368 . S
C892 C888 1.368 . S
C892 C891 1.523 . S
H893 C868 0.950 . S
H894 C870 0.950 . S
H895 C871 0.949 . S
H896 C873 0.950 . S
H897 C875 0.950 . S
C898 C899 1.349 . S
C898 C900 1.327 . S
C898 H923 0.950 . S
C899 C898 1.349 . S
C899 C915 1.349 . S
C900 C898 1.327 . S
C900 C919 1.429 . S
C900 H924 0.950 . S
C901 C918 1.574 . S
C901 C920 1.368 . S
C901 H925 0.949 . S
H902 C906 0.949 . S
C903 C904 1.349 . S
C903 C905 1.327 . S
C903 H926 0.950 . S
C904 C903 1.349 . S
C904 C916 1.349 . S
C905 C903 1.327 . S
C905 C921 1.429 . S
C905 H927 0.950 . S
C906 H902 0.949 . S
C906 C914 1.574 . S
C906 C922 1.368 . S
H907 C915 0.950 . S
H908 C913 0.950 . S
H909 C914 0.949 . S
H910 C916 0.950 . S
H911 C917 0.950 1_455 S
H912 C918 0.949 . S
C913 H908 0.950 . S
C913 C915 1.327 . S
C913 C919 1.429 . S
C914 C906 1.574 . S
C914 H909 0.949 . S
C914 C920 1.368 . S
C915 C899 1.349 . S
C915 H907 0.950 . S
C915 C913 1.327 . S
C916 C904 1.349 . S
C916 H910 0.950 . S
C916 C917 1.327 . S
C917 H911 0.950 1_655 S
C917 C916 1.327 . S
C917 C921 1.429 . S
C918 C901 1.574 . S
C918 H912 0.949 . S
C918 C922 1.368 . S
C919 C900 1.429 . S
C919 C913 1.429 . S
C919 C920 1.523 . S
C920 C901 1.368 . S
C920 C914 1.368 . S
C920 C919 1.523 . S
C921 C905 1.429 . S
C921 C917 1.429 . S
C921 C922 1.523 1_655 S
C922 C906 1.368 . S
C922 C918 1.368 . S
C922 C921 1.523 1_455 S
H923 C898 0.950 . S
H924 C900 0.950 . S
H925 C901 0.949 . S
H926 C903 0.950 . S
H927 C905 0.950 . S
C928 C929 1.349 . S
C928 C930 1.327 . S
C928 H953 0.950 . S
C929 C928 1.349 . S
C929 C945 1.349 . S
C930 C928 1.327 . S
C930 C949 1.429 . S
C930 H954 0.950 . S
C931 C948 1.574 . S
C931 C950 1.368 . S
C931 H955 0.949 . S
H932 C936 0.949 . S
C933 C934 1.349 . S
C933 C935 1.327 . S
C933 H956 0.950 . S
C934 C933 1.349 . S
C934 C946 1.349 . S
C935 C933 1.327 . S
C935 C951 1.429 . S
C935 H957 0.950 . S
C936 H932 0.949 . S
C936 C944 1.574 . S
C936 C952 1.368 . S
H937 C945 0.950 . S
H938 C943 0.950 . S
H939 C944 0.949 . S
H940 C946 0.950 . S
H941 C947 0.950 . S
H942 C948 0.949 . S
C943 H938 0.950 . S
C943 C945 1.327 . S
C943 C949 1.429 . S
C944 C936 1.574 . S
C944 H939 0.949 . S
C944 C950 1.368 . S
C945 C929 1.349 . S
C945 H937 0.950 . S
C945 C943 1.327 . S
C946 C934 1.349 . S
C946 H940 0.950 . S
C946 C947 1.327 . S
C947 H941 0.950 . S
C947 C946 1.327 . S
C947 C951 1.429 . S
C948 C931 1.574 . S
C948 H942 0.949 . S
C948 C952 1.368 . S
C949 C930 1.429 . S
C949 C943 1.429 . S
C949 C950 1.523 . S
C950 C931 1.368 . S
C950 C944 1.368 . S
C950 C949 1.523 . S
C951 C935 1.429 . S
C951 C947 1.429 . S
C951 C952 1.523 . S
C952 C936 1.368 . S
C952 C948 1.368 . S
C952 C951 1.523 . S
H953 C928 0.950 . S
H954 C930 0.950 . S
H955 C931 0.949 . S
H956 C933 0.950 . S
H957 C935 0.950 . S
C958 C959 1.349 . S
C958 C960 1.327 . S
C958 H983 0.950 . S
C959 C958 1.349 . S
C959 C975 1.349 . S
C960 C958 1.327 . S
C960 C979 1.429 . S
C960 H984 0.950 . S
C961 C978 1.574 . S
C961 C980 1.368 . S
C961 H985 0.949 . S
H962 C966 0.949 . S
C963 C964 1.349 . S
C963 C965 1.327 . S
C963 H986 0.950 . S
C964 C963 1.349 . S
C964 C976 1.349 . S
C965 C963 1.327 . S
C965 C981 1.429 . S
C965 H987 0.950 . S
C966 H962 0.949 . S
C966 C974 1.574 . S
C966 C982 1.368 . S
H967 C975 0.950 . S
H968 C973 0.950 . S
H969 C974 0.949 . S
H970 C976 0.950 . S
H971 C977 0.950 . S
H972 C978 0.949 . S
C973 H968 0.950 . S
C973 C975 1.327 . S
C973 C979 1.429 . S
C974 C966 1.574 . S
C974 H969 0.949 . S
C974 C980 1.368 . S
C975 C959 1.349 . S
C975 H967 0.950 . S
C975 C973 1.327 . S
C976 C964 1.349 . S
C976 H970 0.950 . S
C976 C977 1.327 . S
C977 H971 0.950 . S
C977 C976 1.327 . S
C977 C981 1.429 . S
C978 C961 1.574 . S
C978 H972 0.949 . S
C978 C982 1.368 . S
C979 C960 1.429 . S
C979 C973 1.429 . S
C979 C980 1.523 . S
C980 C961 1.368 . S
C980 C974 1.368 . S
C980 C979 1.523 . S
C981 C965 1.429 . S
C981 C977 1.429 . S
C981 C982 1.523 . S
C982 C966 1.368 . S
C982 C978 1.368 . S
C982 C981 1.523 . S
H983 C958 0.950 . S
H984 C960 0.950 . S
H985 C961 0.949 . S
H986 C963 0.950 . S
H987 C965 0.950 . S
C988 C989 1.349 . S
C988 C990 1.327 . S
C988 H1013 0.950 . S
C989 C988 1.349 . S
C989 C1005 1.349 . S
C990 C988 1.327 . S
C990 C1009 1.429 . S
C990 H1014 0.950 . S
C991 C1008 1.574 . S
C991 C1010 1.368 . S
C991 H1015 0.949 . S
H992 C996 0.949 . S
C993 C994 1.349 . S
C993 C995 1.327 . S
C993 H1016 0.950 . S
C994 C993 1.349 . S
C994 C1006 1.349 . S
C995 C993 1.327 . S
C995 C1011 1.429 . S
C995 H1017 0.950 . S
C996 H992 0.949 . S
C996 C1004 1.574 . S
C996 C1012 1.368 . S
H997 C1005 0.950 . S
H998 C1003 0.950 . S
H999 C1004 0.949 . S
H1000 C1006 0.950 . S
H1001 C1007 0.950 . S
H1002 C1008 0.949 . S
C1003 H998 0.950 . S
C1003 C1005 1.327 . S
C1003 C1009 1.429 . S
C1004 C996 1.574 . S
C1004 H999 0.949 . S
C1004 C1010 1.368 . S
C1005 C989 1.349 . S
C1005 H997 0.950 . S
C1005 C1003 1.327 . S
C1006 C994 1.349 . S
C1006 H1000 0.950 . S
C1006 C1007 1.327 . S
C1007 H1001 0.950 . S
C1007 C1006 1.327 . S
C1007 C1011 1.429 . S
C1008 C991 1.574 . S
C1008 H1002 0.949 . S
C1008 C1012 1.368 . S
C1009 C990 1.429 . S
C1009 C1003 1.429 . S
C1009 C1010 1.523 . S
C1010 C991 1.368 . S
C1010 C1004 1.368 . S
C1010 C1009 1.523 . S
C1011 C995 1.429 . S
C1011 C1007 1.429 . S
C1011 C1012 1.523 . S
C1012 C996 1.368 . S
C1012 C1008 1.368 . S
C1012 C1011 1.523 . S
H1013 C988 0.950 . S
H1014 C990 0.950 . S
H1015 C991 0.949 . S
H1016 C993 0.950 . S
H1017 C995 0.950 . S
C1018 C1019 1.349 . S
C1018 C1020 1.327 . S
C1018 H1043 0.950 . S
C1019 C1018 1.349 . S
C1019 C1035 1.349 . S
C1020 C1018 1.327 . S
C1020 C1039 1.429 . S
C1020 H1044 0.950 . S
C1021 C1038 1.574 . S
C1021 C1040 1.368 . S
C1021 H1045 0.949 . S
H1022 C1026 0.949 . S
C1023 C1024 1.349 . S
C1023 C1025 1.327 . S
C1023 H1046 0.950 . S
C1024 C1023 1.349 . S
C1024 C1036 1.349 . S
C1025 C1023 1.327 . S
C1025 C1041 1.429 . S
C1025 H1047 0.950 . S
C1026 H1022 0.949 . S
C1026 C1034 1.574 . S
C1026 C1042 1.368 . S
H1027 C1035 0.950 . S
H1028 C1033 0.950 . S
H1029 C1034 0.949 . S
H1030 C1036 0.950 . S
H1031 C1037 0.950 1_455 S
H1032 C1038 0.949 . S
C1033 H1028 0.950 . S
C1033 C1035 1.327 . S
C1033 C1039 1.429 . S
C1034 C1026 1.574 . S
C1034 H1029 0.949 . S
C1034 C1040 1.368 . S
C1035 C1019 1.349 . S
C1035 H1027 0.950 . S
C1035 C1033 1.327 . S
C1036 C1024 1.349 . S
C1036 H1030 0.950 . S
C1036 C1037 1.327 . S
C1037 H1031 0.950 1_655 S
C1037 C1036 1.327 . S
C1037 C1041 1.429 . S
C1038 C1021 1.574 . S
C1038 H1032 0.949 . S
C1038 C1042 1.368 . S
C1039 C1020 1.429 . S
C1039 C1033 1.429 . S
C1039 C1040 1.523 . S
C1040 C1021 1.368 . S
C1040 C1034 1.368 . S
C1040 C1039 1.523 . S
C1041 C1025 1.429 . S
C1041 C1037 1.429 . S
C1041 C1042 1.523 1_655 S
C1042 C1026 1.368 . S
C1042 C1038 1.368 . S
C1042 C1041 1.523 1_455 S
H1043 C1018 0.950 . S
H1044 C1020 0.950 . S
H1045 C1021 0.949 . S
H1046 C1023 0.950 . S
H1047 C1025 0.950 . S
C1048 C1049 1.349 . S
C1048 C1050 1.327 . S
C1048 H1073 0.950 . S
C1049 C1048 1.349 . S
C1049 C1065 1.349 . S
C1050 C1048 1.327 . S
C1050 C1069 1.429 . S
C1050 H1074 0.950 . S
C1051 C1068 1.574 . S
C1051 C1070 1.368 . S
C1051 H1075 0.949 . S
H1052 C1056 0.949 . S
C1053 C1054 1.349 . S
C1053 C1055 1.327 . S
C1053 H1076 0.950 . S
C1054 C1053 1.349 . S
C1054 C1066 1.349 . S
C1055 C1053 1.327 . S
C1055 C1071 1.429 . S
C1055 H1077 0.950 . S
C1056 H1052 0.949 . S
C1056 C1064 1.574 . S
C1056 C1072 1.368 . S
H1057 C1065 0.950 . S
H1058 C1063 0.950 . S
H1059 C1064 0.949 . S
H1060 C1066 0.950 . S
H1061 C1067 0.950 . S
H1062 C1068 0.949 . S
C1063 H1058 0.950 . S
C1063 C1065 1.327 . S
C1063 C1069 1.429 . S
C1064 C1056 1.574 . S
C1064 H1059 0.949 . S
C1064 C1070 1.368 . S
C1065 C1049 1.349 . S
C1065 H1057 0.950 . S
C1065 C1063 1.327 . S
C1066 C1054 1.349 . S
C1066 H1060 0.950 . S
C1066 C1067 1.327 . S
C1067 H1061 0.950 . S
C1067 C1066 1.327 . S
C1067 C1071 1.429 . S
C1068 C1051 1.574 . S
C1068 H1062 0.949 . S
C1068 C1072 1.368 . S
C1069 C1050 1.429 . S
C1069 C1063 1.429 . S
C1069 C1070 1.523 . S
C1070 C1051 1.368 . S
C1070 C1064 1.368 . S
C1070 C1069 1.523 . S
C1071 C1055 1.429 . S
C1071 C1067 1.429 . S
C1071 C1072 1.523 . S
C1072 C1056 1.368 . S
C1072 C1068 1.368 . S
C1072 C1071 1.523 . S
H1073 C1048 0.950 . S
H1074 C1050 0.950 . S
H1075 C1051 0.949 . S
H1076 C1053 0.950 . S
H1077 C1055 0.950 . S
C1078 C1079 1.349 . S
C1078 C1080 1.327 . S
C1078 H1103 0.950 . S
C1079 C1078 1.349 . S
C1079 C1095 1.349 . S
C1080 C1078 1.327 . S
C1080 C1099 1.429 . S
C1080 H1104 0.950 . S
C1081 C1098 1.574 . S
C1081 C1100 1.368 . S
C1081 H1105 0.949 . S
H1082 C1086 0.949 . S
C1083 C1084 1.349 . S
C1083 C1085 1.327 . S
C1083 H1106 0.950 . S
C1084 C1083 1.349 . S
C1084 C1096 1.349 . S
C1085 C1083 1.327 . S
C1085 C1101 1.429 . S
C1085 H1107 0.950 . S
C1086 H1082 0.949 . S
C1086 C1094 1.574 . S
C1086 C1102 1.368 . S
H1087 C1095 0.950 . S
H1088 C1093 0.950 . S
H1089 C1094 0.949 . S
H1090 C1096 0.950 . S
H1091 C1097 0.950 . S
H1092 C1098 0.949 . S
C1093 H1088 0.950 . S
C1093 C1095 1.327 . S
C1093 C1099 1.429 . S
C1094 C1086 1.574 . S
C1094 H1089 0.949 . S
C1094 C1100 1.368 . S
C1095 C1079 1.349 . S
C1095 H1087 0.950 . S
C1095 C1093 1.327 . S
C1096 C1084 1.349 . S
C1096 H1090 0.950 . S
C1096 C1097 1.327 . S
C1097 H1091 0.950 . S
C1097 C1096 1.327 . S
C1097 C1101 1.429 . S
C1098 C1081 1.574 . S
C1098 H1092 0.949 . S
C1098 C1102 1.368 . S
C1099 C1080 1.429 . S
C1099 C1093 1.429 . S
C1099 C1100 1.523 . S
C1100 C1081 1.368 . S
C1100 C1094 1.368 . S
C1100 C1099 1.523 . S
C1101 C1085 1.429 . S
C1101 C1097 1.429 . S
C1101 C1102 1.523 1_655 S
C1102 C1086 1.368 . S
C1102 C1098 1.368 . S
C1102 C1101 1.523 1_455 S
H1103 C1078 0.950 . S
H1104 C1080 0.950 . S
H1105 C1081 0.949 . S
H1106 C1083 0.950 . S
H1107 C1085 0.950 . S
C1108 C1109 1.349 . S
C1108 C1110 1.327 . S
C1108 H1133 0.950 . S
C1109 C1108 1.349 . S
C1109 C1125 1.349 . S
C1110 C1108 1.327 . S
C1110 C1129 1.429 . S
C1110 H1134 0.950 . S
C1111 C1128 1.574 . S
C1111 C1130 1.368 . S
C1111 H1135 0.949 . S
H1112 C1116 0.949 . S
C1113 C1114 1.349 . S
C1113 C1115 1.327 . S
C1113 H1136 0.950 . S
C1114 C1113 1.349 . S
C1114 C1126 1.349 . S
C1115 C1113 1.327 . S
C1115 C1131 1.429 . S
C1115 H1137 0.950 . S
C1116 H1112 0.949 . S
C1116 C1124 1.574 . S
C1116 C1132 1.368 . S
H1117 C1125 0.950 . S
H1118 C1123 0.950 . S
H1119 C1124 0.949 . S
H1120 C1126 0.950 . S
H1121 C1127 0.950 . S
H1122 C1128 0.949 . S
C1123 H1118 0.950 . S
C1123 C1125 1.327 . S
C1123 C1129 1.429 . S
C1124 C1116 1.574 . S
C1124 H1119 0.949 . S
C1124 C1130 1.368 . S
C1125 C1109 1.349 . S
C1125 H1117 0.950 . S
C1125 C1123 1.327 . S
C1126 C1114 1.349 . S
C1126 H1120 0.950 . S
C1126 C1127 1.327 . S
C1127 H1121 0.950 . S
C1127 C1126 1.327 . S
C1127 C1131 1.429 . S
C1128 C1111 1.574 . S
C1128 H1122 0.949 . S
C1128 C1132 1.368 . S
C1129 C1110 1.429 . S
C1129 C1123 1.429 . S
C1129 C1130 1.523 . S
C1130 C1111 1.368 . S
C1130 C1124 1.368 . S
C1130 C1129 1.523 . S
C1131 C1115 1.429 . S
C1131 C1127 1.429 . S
C1131 C1132 1.523 . S
C1132 C1116 1.368 . S
C1132 C1128 1.368 . S
C1132 C1131 1.523 . S
H1133 C1108 0.950 . S
H1134 C1110 0.950 . S
H1135 C1111 0.949 . S
H1136 C1113 0.950 . S
H1137 C1115 0.950 . S
C1138 C1139 1.349 . S
C1138 C1140 1.327 . S
C1138 H1163 0.950 . S
C1139 C1138 1.349 . S
C1139 C1155 1.349 . S
C1140 C1138 1.327 . S
C1140 C1159 1.429 . S
C1140 H1164 0.950 . S
C1141 C1158 1.574 . S
C1141 C1160 1.368 . S
C1141 H1165 0.949 . S
H1142 C1146 0.949 . S
C1143 C1144 1.349 . S
C1143 C1145 1.327 . S
C1143 H1166 0.950 . S
C1144 C1143 1.349 . S
C1144 C1156 1.349 . S
C1145 C1143 1.327 . S
C1145 C1161 1.429 . S
C1145 H1167 0.950 . S
C1146 H1142 0.949 . S
C1146 C1154 1.574 . S
C1146 C1162 1.368 . S
H1147 C1155 0.950 . S
H1148 C1153 0.950 . S
H1149 C1154 0.949 . S
H1150 C1156 0.950 . S
H1151 C1157 0.950 . S
H1152 C1158 0.949 . S
C1153 H1148 0.950 . S
C1153 C1155 1.327 . S
C1153 C1159 1.429 . S
C1154 C1146 1.574 . S
C1154 H1149 0.949 . S
C1154 C1160 1.368 . S
C1155 C1139 1.349 . S
C1155 H1147 0.950 . S
C1155 C1153 1.327 . S
C1156 C1144 1.349 . S
C1156 H1150 0.950 . S
C1156 C1157 1.327 . S
C1157 H1151 0.950 . S
C1157 C1156 1.327 . S
C1157 C1161 1.429 . S
C1158 C1141 1.574 . S
C1158 H1152 0.949 . S
C1158 C1162 1.368 . S
C1159 C1140 1.429 . S
C1159 C1153 1.429 . S
C1159 C1160 1.523 . S
C1160 C1141 1.368 . S
C1160 C1154 1.368 . S
C1160 C1159 1.523 . S
C1161 C1145 1.429 . S
C1161 C1157 1.429 . S
C1161 C1162 1.523 . S
C1162 C1146 1.368 . S
C1162 C1158 1.368 . S
C1162 C1161 1.523 . S
H1163 C1138 0.950 . S
H1164 C1140 0.950 . S
H1165 C1141 0.949 . S
H1166 C1143 0.950 . S
H1167 C1145 0.950 . S
C1168 C1169 1.349 . S
C1168 C1170 1.327 . S
C1168 H1193 0.950 . S
C1169 C1168 1.349 . S
C1169 C1185 1.349 . S
C1170 C1168 1.327 . S
C1170 C1189 1.429 . S
C1170 H1194 0.950 . S
C1171 C1188 1.574 . S
C1171 C1190 1.368 . S
C1171 H1195 0.949 . S
H1172 C1176 0.949 . S
C1173 C1174 1.349 . S
C1173 C1175 1.327 . S
C1173 H1196 0.950 . S
C1174 C1173 1.349 . S
C1174 C1186 1.349 . S
C1175 C1173 1.327 . S
C1175 C1191 1.429 . S
C1175 H1197 0.950 . S
C1176 H1172 0.949 . S
C1176 C1184 1.574 . S
C1176 C1192 1.368 . S
H1177 C1185 0.950 . S
H1178 C1183 0.950 . S
H1179 C1184 0.949 . S
H1180 C1186 0.950 . S
H1181 C1187 0.950 . S
H1182 C1188 0.949 . S
C1183 H1178 0.950 . S
C1183 C1185 1.327 . S
C1183 C1189 1.429 . S
C1184 C1176 1.574 . S
C1184 H1179 0.949 . S
C1184 C1190 1.368 . S
C1185 C1169 1.349 . S
C1185 H1177 0.950 . S
C1185 C1183 1.327 . S
C1186 C1174 1.349 . S
C1186 H1180 0.950 . S
C1186 C1187 1.327 . S
C1187 H1181 0.950 . S
C1187 C1186 1.327 . S
C1187 C1191 1.429 . S
C1188 C1171 1.574 . S
C1188 H1182 0.949 . S
C1188 C1192 1.368 . S
C1189 C1170 1.429 . S
C1189 C1183 1.429 . S
C1189 C1190 1.523 . S
C1190 C1171 1.368 . S
C1190 C1184 1.368 . S
C1190 C1189 1.523 . S
C1191 C1175 1.429 . S
C1191 C1187 1.429 . S
C1191 C1192 1.523 . S
C1192 C1176 1.368 . S
C1192 C1188 1.368 . S
C1192 C1191 1.523 . S
H1193 C1168 0.950 . S
H1194 C1170 0.950 . S
H1195 C1171 0.949 . S
H1196 C1173 0.950 . S
H1197 C1175 0.950 . S
C1198 C1199 1.349 . S
C1198 C1200 1.327 . S
C1198 H1223 0.950 . S
C1199 C1198 1.349 . S
C1199 C1215 1.349 . S
C1200 C1198 1.327 . S
C1200 C1219 1.429 . S
C1200 H1224 0.950 . S
C1201 C1218 1.574 . S
C1201 C1220 1.368 . S
C1201 H1225 0.949 . S
H1202 C1206 0.949 . S
C1203 C1204 1.349 . S
C1203 C1205 1.327 . S
C1203 H1226 0.950 . S
C1204 C1203 1.349 . S
C1204 C1216 1.349 . S
C1205 C1203 1.327 . S
C1205 C1221 1.429 . S
C1205 H1227 0.950 . S
C1206 H1202 0.949 . S
C1206 C1214 1.574 . S
C1206 C1222 1.368 . S
H1207 C1215 0.950 . S
H1208 C1213 0.950 . S
H1209 C1214 0.949 . S
H1210 C1216 0.950 . S
H1211 C1217 0.950 . S
H1212 C1218 0.949 . S
C1213 H1208 0.950 . S
C1213 C1215 1.327 . S
C1213 C1219 1.429 . S
C1214 C1206 1.574 . S
C1214 H1209 0.949 . S
C1214 C1220 1.368 . S
C1215 C1199 1.349 . S
C1215 H1207 0.950 . S
C1215 C1213 1.327 . S
C1216 C1204 1.349 . S
C1216 H1210 0.950 . S
C1216 C1217 1.327 . S
C1217 H1211 0.950 . S
C1217 C1216 1.327 . S
C1217 C1221 1.429 . S
C1218 C1201 1.574 . S
C1218 H1212 0.949 . S
C1218 C1222 1.368 . S
C1219 C1200 1.429 . S
C1219 C1213 1.429 . S
C1219 C1220 1.523 . S
C1220 C1201 1.368 . S
C1220 C1214 1.368 . S
C1220 C1219 1.523 . S
C1221 C1205 1.429 . S
C1221 C1217 1.429 . S
C1221 C1222 1.523 . S
C1222 C1206 1.368 . S
C1222 C1218 1.368 . S
C1222 C1221 1.523 . S
H1223 C1198 0.950 . S
H1224 C1200 0.950 . S
H1225 C1201 0.949 . S
H1226 C1203 0.950 . S
H1227 C1205 0.950 . S
C1228 C1229 1.349 . S
C1228 C1230 1.327 . S
C1228 H1253 0.950 . S
C1229 C1228 1.349 . S
C1229 C1245 1.349 . S
C1230 C1228 1.327 . S
C1230 C1249 1.429 . S
C1230 H1254 0.950 . S
C1231 C1248 1.574 . S
C1231 C1250 1.368 . S
C1231 H1255 0.949 . S
H1232 C1236 0.949 . S
C1233 C1234 1.349 . S
C1233 C1235 1.327 . S
C1233 H1256 0.950 . S
C1234 C1233 1.349 . S
C1234 C1246 1.349 . S
C1235 C1233 1.327 . S
C1235 C1251 1.429 . S
C1235 H1257 0.950 . S
C1236 H1232 0.949 . S
C1236 C1244 1.574 . S
C1236 C1252 1.368 . S
H1237 C1245 0.950 . S
H1238 C1243 0.950 . S
H1239 C1244 0.949 . S
H1240 C1246 0.950 . S
H1241 C1247 0.950 . S
H1242 C1248 0.949 . S
C1243 H1238 0.950 . S
C1243 C1245 1.327 . S
C1243 C1249 1.429 . S
C1244 C1236 1.574 . S
C1244 H1239 0.949 . S
C1244 C1250 1.368 . S
C1245 C1229 1.349 . S
C1245 H1237 0.950 . S
C1245 C1243 1.327 . S
C1246 C1234 1.349 . S
C1246 H1240 0.950 . S
C1246 C1247 1.327 . S
C1247 H1241 0.950 . S
C1247 C1246 1.327 . S
C1247 C1251 1.429 . S
C1248 C1231 1.574 . S
C1248 H1242 0.949 . S
C1248 C1252 1.368 . S
C1249 C1230 1.429 . S
C1249 C1243 1.429 . S
C1249 C1250 1.523 . S
C1250 C1231 1.368 . S
C1250 C1244 1.368 . S
C1250 C1249 1.523 . S
C1251 C1235 1.429 . S
C1251 C1247 1.429 . S
C1251 C1252 1.523 . S
C1252 C1236 1.368 . S
C1252 C1248 1.368 . S
C1252 C1251 1.523 . S
H1253 C1228 0.950 . S
H1254 C1230 0.950 . S
H1255 C1231 0.949 . S
H1256 C1233 0.950 . S
H1257 C1235 0.950 . S
C1258 C1259 1.349 . S
C1258 C1260 1.327 . S
C1258 H1283 0.950 . S
C1259 C1258 1.349 . S
C1259 C1275 1.349 . S
C1260 C1258 1.327 . S
C1260 C1279 1.429 . S
C1260 H1284 0.950 . S
C1261 C1278 1.574 . S
C1261 C1280 1.368 . S
C1261 H1285 0.949 . S
H1262 C1266 0.949 . S
C1263 C1264 1.349 . S
C1263 C1265 1.327 . S
C1263 H1286 0.950 . S
C1264 C1263 1.349 . S
C1264 C1276 1.349 . S
C1265 C1263 1.327 . S
C1265 C1281 1.429 . S
C1265 H1287 0.950 . S
C1266 H1262 0.949 . S
C1266 C1274 1.574 . S
C1266 C1282 1.368 . S
H1267 C1275 0.950 . S
H1268 C1273 0.950 . S
H1269 C1274 0.949 . S
H1270 C1276 0.950 . S
H1271 C1277 0.950 . S
H1272 C1278 0.949 . S
C1273 H1268 0.950 . S
C1273 C1275 1.327 . S
C1273 C1279 1.429 . S
C1274 C1266 1.574 . S
C1274 H1269 0.949 . S
C1274 C1280 1.368 . S
C1275 C1259 1.349 . S
C1275 H1267 0.950 . S
C1275 C1273 1.327 . S
C1276 C1264 1.349 . S
C1276 H1270 0.950 . S
C1276 C1277 1.327 . S
C1277 H1271 0.950 . S
C1277 C1276 1.327 . S
C1277 C1281 1.429 . S
C1278 C1261 1.574 . S
C1278 H1272 0.949 . S
C1278 C1282 1.368 . S
C1279 C1260 1.429 . S
C1279 C1273 1.429 . S
C1279 C1280 1.523 1_455 S
C1280 C1261 1.368 . S
C1280 C1274 1.368 . S
C1280 C1279 1.523 1_655 S
C1281 C1265 1.429 . S
C1281 C1277 1.429 . S
C1281 C1282 1.523 . S
C1282 C1266 1.368 . S
C1282 C1278 1.368 . S
C1282 C1281 1.523 . S
H1283 C1258 0.950 . S
H1284 C1260 0.950 . S
H1285 C1261 0.949 . S
H1286 C1263 0.950 . S
H1287 C1265 0.950 . S
C1288 C1289 1.349 . S
C1288 C1290 1.327 . S
C1288 H1313 0.950 . S
C1289 C1288 1.349 . S
C1289 C1305 1.349 . S
C1290 C1288 1.327 . S
C1290 C1309 1.429 . S
C1290 H1314 0.950 . S
C1291 C1308 1.574 . S
C1291 C1310 1.368 . S
C1291 H1315 0.949 . S
H1292 C1296 0.949 . S
C1293 C1294 1.349 . S
C1293 C1295 1.327 . S
C1293 H1316 0.950 . S
C1294 C1293 1.349 . S
C1294 C1306 1.349 . S
C1295 C1293 1.327 . S
C1295 C1311 1.429 . S
C1295 H1317 0.950 . S
C1296 H1292 0.949 . S
C1296 C1304 1.574 . S
C1296 C1312 1.368 . S
H1297 C1305 0.950 . S
H1298 C1303 0.950 . S
H1299 C1304 0.949 . S
H1300 C1306 0.950 . S
H1301 C1307 0.950 . S
H1302 C1308 0.949 . S
C1303 H1298 0.950 . S
C1303 C1305 1.327 . S
C1303 C1309 1.429 . S
C1304 C1296 1.574 . S
C1304 H1299 0.949 . S
C1304 C1310 1.368 . S
C1305 C1289 1.349 . S
C1305 H1297 0.950 . S
C1305 C1303 1.327 . S
C1306 C1294 1.349 . S
C1306 H1300 0.950 . S
C1306 C1307 1.327 . S
C1307 H1301 0.950 . S
C1307 C1306 1.327 . S
C1307 C1311 1.429 . S
C1308 C1291 1.574 . S
C1308 H1302 0.949 . S
C1308 C1312 1.368 . S
C1309 C1290 1.429 . S
C1309 C1303 1.429 . S
C1309 C1310 1.523 . S
C1310 C1291 1.368 . S
C1310 C1304 1.368 . S
C1310 C1309 1.523 . S
C1311 C1295 1.429 . S
C1311 C1307 1.429 . S
C1311 C1312 1.523 . S
C1312 C1296 1.368 . S
C1312 C1308 1.368 . S
C1312 C1311 1.523 . S
H1313 C1288 0.950 . S
H1314 C1290 0.950 . S
H1315 C1291 0.949 . S
H1316 C1293 0.950 . S
H1317 C1295 0.950 . S
C1318 C1319 1.349 . S
C1318 C1320 1.327 . S
C1318 H1343 0.950 . S
C1319 C1318 1.349 . S
C1319 C1335 1.349 . S
C1320 C1318 1.327 . S
C1320 C1339 1.429 . S
C1320 H1344 0.950 . S
C1321 C1338 1.574 . S
C1321 C1340 1.368 . S
C1321 H1345 0.949 . S
H1322 C1326 0.949 . S
C1323 C1324 1.349 . S
C1323 C1325 1.327 . S
C1323 H1346 0.950 . S
C1324 C1323 1.349 . S
C1324 C1336 1.349 . S
C1325 C1323 1.327 . S
C1325 C1341 1.429 . S
C1325 H1347 0.950 . S
C1326 H1322 0.949 . S
C1326 C1334 1.574 . S
C1326 C1342 1.368 . S
H1327 C1335 0.950 . S
H1328 C1333 0.925 1_655 S
H1329 C1334 0.949 . S
H1330 C1336 0.950 . S
H1331 C1337 0.950 . S
H1332 C1338 0.949 . S
C1333 H1328 0.925 1_455 S
C1333 C1335 1.327 . S
C1333 C1339 1.429 . S
C1334 C1326 1.574 . S
C1334 H1329 0.949 . S
C1334 C1340 1.368 . S
C1335 C1319 1.349 . S
C1335 H1327 0.950 . S
C1335 C1333 1.327 . S
C1336 C1324 1.349 . S
C1336 H1330 0.950 . S
C1336 C1337 1.327 . S
C1337 H1331 0.950 . S
C1337 C1336 1.327 . S
C1337 C1341 1.429 . S
C1338 C1321 1.574 . S
C1338 H1332 0.949 . S
C1338 C1342 1.368 . S
C1339 C1320 1.429 . S
C1339 C1333 1.429 . S
C1339 C1340 1.523 1_455 S
C1340 C1321 1.368 . S
C1340 C1334 1.368 . S
C1340 C1339 1.523 1_655 S
C1341 C1325 1.429 . S
C1341 C1337 1.429 . S
C1341 C1342 1.523 . S
C1342 C1326 1.368 . S
C1342 C1338 1.368 . S
C1342 C1341 1.523 . S
H1343 C1318 0.950 . S
H1344 C1320 0.950 . S
H1345 C1321 0.949 . S
H1346 C1323 0.950 . S
H1347 C1325 0.950 . S
C1348 C1349 1.349 . S
C1348 C1350 1.327 . S
C1348 H1373 0.950 . S
C1349 C1348 1.349 . S
C1349 C1365 1.349 . S
C1350 C1348 1.327 . S
C1350 C1369 1.429 . S
C1350 H1374 0.950 . S
C1351 C1368 1.574 . S
C1351 C1370 1.368 . S
C1351 H1375 0.949 . S
H1352 C1356 0.949 . S
C1353 C1354 1.349 . S
C1353 C1355 1.327 . S
C1353 H1376 0.950 . S
C1354 C1353 1.349 . S
C1354 C1366 1.349 . S
C1355 C1353 1.327 . S
C1355 C1371 1.429 . S
C1355 H1377 0.950 . S
C1356 H1352 0.949 . S
C1356 C1364 1.574 . S
C1356 C1372 1.368 . S
H1357 C1365 0.950 . S
H1358 C1363 0.950 . S
H1359 C1364 0.949 . S
H1360 C1366 0.950 . S
H1361 C1367 0.950 . S
H1362 C1368 0.949 . S
C1363 H1358 0.950 . S
C1363 C1365 1.327 . S
C1363 C1369 1.429 . S
C1364 C1356 1.574 . S
C1364 H1359 0.949 . S
C1364 C1370 1.368 . S
C1365 C1349 1.349 . S
C1365 H1357 0.950 . S
C1365 C1363 1.327 . S
C1366 C1354 1.349 . S
C1366 H1360 0.950 . S
C1366 C1367 1.327 . S
C1367 H1361 0.950 . S
C1367 C1366 1.327 . S
C1367 C1371 1.429 . S
C1368 C1351 1.574 . S
C1368 H1362 0.949 . S
C1368 C1372 1.368 . S
C1369 C1350 1.429 . S
C1369 C1363 1.429 . S
C1369 C1370 1.523 . S
C1370 C1351 1.368 . S
C1370 C1364 1.368 . S
C1370 C1369 1.523 . S
C1371 C1355 1.429 . S
C1371 C1367 1.429 . S
C1371 C1372 1.523 . S
C1372 C1356 1.368 . S
C1372 C1368 1.368 . S
C1372 C1371 1.523 . S
H1373 C1348 0.950 . S
H1374 C1350 0.950 . S
H1375 C1351 0.949 . S
H1376 C1353 0.950 . S
H1377 C1355 0.950 . S
C1378 C1379 1.349 . S
C1378 C1380 1.327 . S
C1378 H1403 0.950 . S
C1379 C1378 1.349 . S
C1379 C1395 1.349 . S
C1380 C1378 1.327 . S
C1380 C1399 1.429 . S
C1380 H1404 0.950 . S
C1381 C1398 1.574 . S
C1381 C1400 1.368 . S
C1381 H1405 0.949 . S
H1382 C1386 0.949 . S
C1383 C1384 1.349 . S
C1383 C1385 1.327 . S
C1383 H1406 0.950 . S
C1384 C1383 1.349 . S
C1384 C1396 1.349 . S
C1385 C1383 1.327 . S
C1385 C1401 1.429 . S
C1385 H1407 0.950 . S
C1386 H1382 0.949 . S
C1386 C1394 1.574 . S
C1386 C1402 1.368 . S
H1387 C1395 0.950 . S
H1388 C1393 0.950 . S
H1389 C1394 0.949 . S
H1390 C1396 0.950 . S
H1391 C1397 0.950 . S
H1392 C1398 0.949 . S
C1393 H1388 0.950 . S
C1393 C1395 1.327 . S
C1393 C1399 1.429 . S
C1394 C1386 1.574 . S
C1394 H1389 0.949 . S
C1394 C1400 1.368 . S
C1395 C1379 1.349 . S
C1395 H1387 0.950 . S
C1395 C1393 1.327 . S
C1396 C1384 1.349 . S
C1396 H1390 0.950 . S
C1396 C1397 1.327 . S
C1397 H1391 0.950 . S
C1397 C1396 1.327 . S
C1397 C1401 1.429 . S
C1398 C1381 1.574 . S
C1398 H1392 0.949 . S
C1398 C1402 1.368 . S
C1399 C1380 1.429 . S
C1399 C1393 1.429 . S
C1399 C1400 1.523 . S
C1400 C1381 1.368 . S
C1400 C1394 1.368 . S
C1400 C1399 1.523 . S
C1401 C1385 1.429 . S
C1401 C1397 1.429 . S
C1401 C1402 1.523 . S
C1402 C1386 1.368 . S
C1402 C1398 1.368 . S
C1402 C1401 1.523 . S
H1403 C1378 0.950 . S
H1404 C1380 0.950 . S
H1405 C1381 0.949 . S
H1406 C1383 0.950 . S
H1407 C1385 0.950 . S
C1408 C1409 1.349 . S
C1408 C1410 1.327 . S
C1408 H1433 0.950 . S
C1409 C1408 1.349 . S
C1409 C1425 1.349 . S
C1410 C1408 1.327 . S
C1410 C1429 1.429 . S
C1410 H1434 0.950 . S
C1411 C1428 1.574 . S
C1411 C1430 1.368 . S
C1411 H1435 0.949 . S
H1412 C1416 0.949 . S
C1413 C1414 1.349 . S
C1413 C1415 1.327 . S
C1413 H1436 0.950 . S
C1414 C1413 1.349 . S
C1414 C1426 1.349 . S
C1415 C1413 1.327 . S
C1415 C1431 1.429 . S
C1415 H1437 0.950 . S
C1416 H1412 0.949 . S
C1416 C1424 1.574 . S
C1416 C1432 1.368 . S
H1417 C1425 0.950 . S
H1418 C1423 0.950 . S
H1419 C1424 0.949 . S
H1420 C1426 0.950 . S
H1421 C1427 0.950 . S
H1422 C1428 0.949 . S
C1423 H1418 0.950 . S
C1423 C1425 1.327 . S
C1423 C1429 1.429 . S
C1424 C1416 1.574 . S
C1424 H1419 0.949 . S
C1424 C1430 1.368 . S
C1425 C1409 1.349 . S
C1425 H1417 0.950 . S
C1425 C1423 1.327 . S
C1426 C1414 1.349 . S
C1426 H1420 0.950 . S
C1426 C1427 1.327 . S
C1427 H1421 0.950 . S
C1427 C1426 1.327 . S
C1427 C1431 1.429 . S
C1428 C1411 1.574 . S
C1428 H1422 0.949 . S
C1428 C1432 1.368 . S
C1429 C1410 1.429 . S
C1429 C1423 1.429 . S
C1429 C1430 1.523 . S
C1430 C1411 1.368 . S
C1430 C1424 1.368 . S
C1430 C1429 1.523 . S
C1431 C1415 1.429 . S
C1431 C1427 1.429 . S
C1431 C1432 1.523 . S
C1432 C1416 1.368 . S
C1432 C1428 1.368 . S
C1432 C1431 1.523 . S
H1433 C1408 0.950 . S
H1434 C1410 0.950 . S
H1435 C1411 0.949 . S
H1436 C1413 0.950 . S
H1437 C1415 0.950 . S
C1438 C1439 1.349 . S
C1438 C1440 1.327 1_565 S
C1438 H1463 0.950 1_565 S
C1439 C1438 1.349 . S
C1439 C1455 1.349 . S
C1440 C1438 1.327 1_545 S
C1440 C1459 1.429 1_545 S
C1440 H1464 0.950 . S
C1441 C1458 1.574 . S
C1441 C1460 1.368 1_655 S
C1441 H1465 0.949 . S
H1442 C1446 0.949 . S
C1443 C1444 1.349 . S
C1443 C1445 1.327 1_545 S
C1443 H1466 0.950 1_545 S
C1444 C1443 1.349 . S
C1444 C1456 1.349 . S
C1445 C1443 1.327 1_565 S
C1445 C1461 1.429 1_565 S
C1445 H1467 0.950 . S
C1446 H1442 0.949 . S
C1446 C1454 1.574 . S
C1446 C1462 1.368 1_455 S
H1447 C1455 0.950 . S
H1448 C1453 0.950 . S
H1449 C1454 0.949 . S
H1450 C1456 0.950 . S
H1451 C1457 0.950 . S
H1452 C1458 0.949 . S
C1453 H1448 0.950 . S
C1453 C1455 1.327 . S
C1453 C1459 1.429 . S
C1454 C1446 1.574 . S
C1454 H1449 0.949 . S
C1454 C1460 1.368 1_545 S
C1455 C1439 1.349 . S
C1455 H1447 0.950 . S
C1455 C1453 1.327 . S
C1456 C1444 1.349 . S
C1456 H1450 0.950 . S
C1456 C1457 1.327 . S
C1457 H1451 0.950 . S
C1457 C1456 1.327 . S
C1457 C1461 1.429 . S
C1458 C1441 1.574 . S
C1458 H1452 0.949 . S
C1458 C1462 1.368 1_565 S
C1459 C1440 1.429 1_565 S
C1459 C1453 1.429 . S
C1459 C1460 1.523 . S
C1460 C1441 1.368 1_455 S
C1460 C1454 1.368 1_565 S
C1460 C1459 1.523 . S
C1461 C1445 1.429 1_545 S
C1461 C1457 1.429 . S
C1461 C1462 1.523 . S
C1462 C1446 1.368 1_655 S
C1462 C1458 1.368 1_545 S
C1462 C1461 1.523 . S
H1463 C1438 0.950 1_545 S
H1464 C1440 0.950 . S
H1465 C1441 0.949 . S
H1466 C1443 0.950 1_565 S
H1467 C1445 0.950 . S
C1468 C1469 1.349 . S
C1468 C1470 1.327 . S
C1468 H1493 0.950 . S
C1469 C1468 1.349 . S
C1469 C1485 1.349 . S
C1470 C1468 1.327 . S
C1470 C1489 1.429 . S
C1470 H1494 0.950 . S
C1471 C1488 1.574 . S
C1471 C1490 1.368 . S
C1471 H1495 0.949 . S
H1472 C1476 0.949 . S
C1473 C1474 1.349 . S
C1473 C1475 1.327 . S
C1473 H1496 0.950 . S
C1474 C1473 1.349 . S
C1474 C1486 1.349 . S
C1475 C1473 1.327 . S
C1475 C1491 1.429 . S
C1475 H1497 0.950 . S
C1476 H1472 0.949 . S
C1476 C1484 1.574 . S
C1476 C1492 1.368 . S
H1477 C1485 0.950 . S
H1478 C1483 0.950 . S
H1479 C1484 0.949 . S
H1480 C1486 0.950 . S
H1481 C1487 0.950 . S
H1482 C1488 0.949 . S
C1483 H1478 0.950 . S
C1483 C1485 1.327 . S
C1483 C1489 1.429 . S
C1484 C1476 1.574 . S
C1484 H1479 0.949 . S
C1484 C1490 1.368 . S
C1485 C1469 1.349 . S
C1485 H1477 0.950 . S
C1485 C1483 1.327 . S
C1486 C1474 1.349 . S
C1486 H1480 0.950 . S
C1486 C1487 1.327 . S
C1487 H1481 0.950 . S
C1487 C1486 1.327 . S
C1487 C1491 1.429 . S
C1488 C1471 1.574 . S
C1488 H1482 0.949 . S
C1488 C1492 1.368 . S
C1489 C1470 1.429 . S
C1489 C1483 1.429 . S
C1489 C1490 1.523 . S
C1490 C1471 1.368 . S
C1490 C1484 1.368 . S
C1490 C1489 1.523 . S
C1491 C1475 1.429 . S
C1491 C1487 1.429 . S
C1491 C1492 1.523 . S
C1492 C1476 1.368 . S
C1492 C1488 1.368 . S
C1492 C1491 1.523 . S
H1493 C1468 0.950 . S
H1494 C1470 0.950 . S
H1495 C1471 0.949 . S
H1496 C1473 0.950 . S
H1497 C1475 0.950 . S
C1498 C1499 1.326 1_565 S
C1498 C1500 1.333 . S
C1498 H1523 0.967 . S
C1499 C1498 1.326 1_545 S
C1499 C1515 1.349 . S
C1500 C1498 1.333 . S
C1500 C1519 1.429 1_565 S
C1500 H1524 0.950 . S
C1501 C1518 1.574 1_554 S
C1501 C1520 1.368 . S
C1501 H1525 0.949 . S
H1502 C1506 0.949 . S
C1503 C1504 1.326 1_545 S
C1503 C1505 1.333 . S
C1503 H1526 0.967 . S
C1504 C1503 1.326 1_565 S
C1504 C1516 1.349 . S
C1505 C1503 1.333 . S
C1505 C1521 1.429 1_545 S
C1505 H1527 0.950 . S
C1506 H1502 0.949 . S
C1506 C1514 1.574 1_556 S
C1506 C1522 1.368 . S
H1507 C1515 0.950 . S
H1508 C1513 0.950 . S
H1509 C1514 0.949 . S
H1510 C1516 0.950 . S
H1511 C1517 0.950 . S
H1512 C1518 0.949 . S
C1513 H1508 0.950 . S
C1513 C1515 1.327 . S
C1513 C1519 1.429 . S
C1514 C1506 1.574 1_554 S
C1514 H1509 0.949 . S
C1514 C1520 1.368 1_565 S
C1515 C1499 1.349 . S
C1515 H1507 0.950 . S
C1515 C1513 1.327 . S
C1516 C1504 1.349 . S
C1516 H1510 0.950 . S
C1516 C1517 1.327 . S
C1517 H1511 0.950 . S
C1517 C1516 1.327 . S
C1517 C1521 1.429 . S
C1518 C1501 1.574 1_556 S
C1518 H1512 0.949 . S
C1518 C1522 1.368 1_545 S
C1519 C1500 1.429 1_545 S
C1519 C1513 1.429 . S
C1519 C1520 1.523 . S
C1520 C1501 1.368 . S
C1520 C1514 1.368 1_545 S
C1520 C1519 1.523 . S
C1521 C1505 1.429 1_565 S
C1521 C1517 1.429 . S
C1521 C1522 1.523 . S
C1522 C1506 1.368 . S
C1522 C1518 1.368 1_565 S
C1522 C1521 1.523 . S
H1523 C1498 0.967 . S
H1524 C1500 0.950 . S
H1525 C1501 0.949 . S
H1526 C1503 0.967 . S
H1527 C1505 0.950 . S
C1528 C1529 1.349 . S
C1528 C1530 1.327 . S
C1528 H1553 0.950 . S
C1529 C1528 1.349 . S
C1529 C1545 1.349 . S
C1530 C1528 1.327 . S
C1530 C1549 1.429 . S
C1530 H1554 0.950 . S
C1531 C1548 1.574 . S
C1531 C1550 1.368 . S
C1531 H1555 0.949 . S
H1532 C1536 0.949 . S
C1533 C1534 1.349 . S
C1533 C1535 1.327 . S
C1533 H1556 0.950 . S
C1534 C1533 1.349 . S
C1534 C1546 1.349 . S
C1535 C1533 1.327 . S
C1535 C1551 1.429 . S
C1535 H1557 0.950 . S
C1536 H1532 0.949 . S
C1536 C1544 1.574 . S
C1536 C1552 1.368 . S
H1537 C1545 0.950 . S
H1538 C1543 0.950 . S
H1539 C1544 0.949 . S
H1540 C1546 0.950 . S
H1541 C1547 0.950 . S
H1542 C1548 0.949 . S
C1543 H1538 0.950 . S
C1543 C1545 1.327 . S
C1543 C1549 1.429 . S
C1544 C1536 1.574 . S
C1544 H1539 0.949 . S
C1544 C1550 1.368 . S
C1545 C1529 1.349 . S
C1545 H1537 0.950 . S
C1545 C1543 1.327 . S
C1546 C1534 1.349 . S
C1546 H1540 0.950 . S
C1546 C1547 1.327 . S
C1547 H1541 0.950 . S
C1547 C1546 1.327 . S
C1547 C1551 1.429 . S
C1548 C1531 1.574 . S
C1548 H1542 0.949 . S
C1548 C1552 1.368 . S
C1549 C1530 1.429 . S
C1549 C1543 1.429 . S
C1549 C1550 1.523 . S
C1550 C1531 1.368 . S
C1550 C1544 1.368 . S
C1550 C1549 1.523 . S
C1551 C1535 1.429 . S
C1551 C1547 1.429 . S
C1551 C1552 1.523 . S
C1552 C1536 1.368 . S
C1552 C1548 1.368 . S
C1552 C1551 1.523 . S
H1553 C1528 0.950 . S
H1554 C1530 0.950 . S
H1555 C1531 0.949 . S
H1556 C1533 0.950 . S
H1557 C1535 0.950 . S
C1558 C1559 1.365 . S
C1558 C1560 1.323 1_565 S
C1558 H1583 0.938 1_565 S
C1559 C1558 1.365 . S
C1559 C1575 1.349 . S
C1560 C1558 1.323 1_545 S
C1560 C1579 1.429 1_545 S
C1560 H1584 0.950 . S
C1561 C1578 1.574 . S
C1561 C1580 1.368 . S
C1561 H1585 0.949 . S
H1562 C1566 0.949 . S
C1563 C1564 1.365 . S
C1563 C1565 1.323 1_545 S
C1563 H1586 0.938 1_545 S
C1564 C1563 1.365 . S
C1564 C1576 1.349 . S
C1565 C1563 1.323 1_565 S
C1565 C1581 1.429 1_565 S
C1565 H1587 0.950 . S
C1566 H1562 0.949 . S
C1566 C1574 1.574 . S
C1566 C1582 1.368 . S
H1567 C1575 0.950 . S
H1568 C1573 0.950 . S
H1569 C1574 0.949 . S
H1570 C1576 0.950 . S
H1571 C1577 0.950 . S
H1572 C1578 0.949 . S
C1573 H1568 0.950 . S
C1573 C1575 1.327 . S
C1573 C1579 1.429 . S
C1574 C1566 1.574 . S
C1574 H1569 0.949 . S
C1574 C1580 1.368 1_545 S
C1575 C1559 1.349 . S
C1575 H1567 0.950 . S
C1575 C1573 1.327 . S
C1576 C1564 1.349 . S
C1576 H1570 0.950 . S
C1576 C1577 1.327 . S
C1577 H1571 0.950 . S
C1577 C1576 1.327 . S
C1577 C1581 1.429 . S
C1578 C1561 1.574 . S
C1578 H1572 0.949 . S
C1578 C1582 1.368 1_565 S
C1579 C1560 1.429 1_565 S
C1579 C1573 1.429 . S
C1579 C1580 1.523 . S
C1580 C1561 1.368 . S
C1580 C1574 1.368 1_565 S
C1580 C1579 1.523 . S
C1581 C1565 1.429 1_545 S
C1581 C1577 1.429 . S
C1581 C1582 1.523 . S
C1582 C1566 1.368 . S
C1582 C1578 1.368 1_545 S
C1582 C1581 1.523 . S
H1583 C1558 0.938 1_545 S
H1584 C1560 0.950 . S
H1585 C1561 0.949 . S
H1586 C1563 0.938 1_565 S
H1587 C1565 0.950 . S
C1588 C1589 1.349 . S
C1588 C1590 1.327 . S
C1588 H1613 0.950 . S
C1589 C1588 1.349 . S
C1589 C1605 1.349 . S
C1590 C1588 1.327 . S
C1590 C1609 1.429 . S
C1590 H1614 0.950 . S
C1591 C1608 1.574 . S
C1591 C1610 1.368 . S
C1591 H1615 0.949 . S
H1592 C1596 0.949 . S
C1593 C1594 1.349 . S
C1593 C1595 1.327 . S
C1593 H1616 0.950 . S
C1594 C1593 1.349 . S
C1594 C1606 1.349 . S
C1595 C1593 1.327 . S
C1595 C1611 1.429 . S
C1595 H1617 0.950 . S
C1596 H1592 0.949 . S
C1596 C1604 1.574 . S
C1596 C1612 1.368 . S
H1597 C1605 0.950 . S
H1598 C1603 0.950 . S
H1599 C1604 0.949 . S
H1600 C1606 0.950 . S
H1601 C1607 0.950 . S
H1602 C1608 0.949 . S
C1603 H1598 0.950 . S
C1603 C1605 1.327 . S
C1603 C1609 1.429 . S
C1604 C1596 1.574 . S
C1604 H1599 0.949 . S
C1604 C1610 1.368 . S
C1605 C1589 1.349 . S
C1605 H1597 0.950 . S
C1605 C1603 1.327 . S
C1606 C1594 1.349 . S
C1606 H1600 0.950 . S
C1606 C1607 1.327 . S
C1607 H1601 0.950 . S
C1607 C1606 1.327 . S
C1607 C1611 1.429 . S
C1608 C1591 1.574 . S
C1608 H1602 0.949 . S
C1608 C1612 1.368 . S
C1609 C1590 1.429 . S
C1609 C1603 1.429 . S
C1609 C1610 1.523 . S
C1610 C1591 1.368 . S
C1610 C1604 1.368 . S
C1610 C1609 1.523 . S
C1611 C1595 1.429 . S
C1611 C1607 1.429 . S
C1611 C1612 1.523 . S
C1612 C1596 1.368 . S
C1612 C1608 1.368 . S
C1612 C1611 1.523 . S
H1613 C1588 0.950 . S
H1614 C1590 0.950 . S
H1615 C1591 0.949 . S
H1616 C1593 0.950 . S
H1617 C1595 0.950 . S
C1618 C1619 1.367 . S
C1618 C1620 1.322 1_545 S
C1618 H1643 0.936 1_545 S
C1619 C1618 1.367 . S
C1619 C1635 1.349 . S
C1620 C1618 1.322 1_565 S
C1620 C1639 1.429 1_565 S
C1620 H1644 0.950 . S
C1621 C1638 1.574 1_556 S
C1621 C1640 1.368 1_655 S
C1621 H1645 0.949 . S
H1622 C1626 0.949 . S
C1623 C1624 1.368 . S
C1623 C1625 1.322 1_565 S
C1623 H1646 0.936 1_565 S
C1624 C1623 1.368 . S
C1624 C1636 1.349 . S
C1625 C1623 1.322 1_545 S
C1625 C1641 1.429 1_545 S
C1625 H1647 0.950 . S
C1626 H1622 0.949 . S
C1626 C1634 1.574 1_554 S
C1626 C1642 1.368 1_455 S
H1627 C1635 0.950 . S
H1628 C1633 0.950 . S
H1629 C1634 0.949 . S
H1630 C1636 0.950 . S
H1631 C1637 0.950 . S
H1632 C1638 0.949 . S
C1633 H1628 0.950 . S
C1633 C1635 1.327 . S
C1633 C1639 1.429 . S
C1634 C1626 1.574 1_556 S
C1634 H1629 0.949 . S
C1634 C1640 1.368 1_565 S
C1635 C1619 1.349 . S
C1635 H1627 0.950 . S
C1635 C1633 1.327 . S
C1636 C1624 1.349 . S
C1636 H1630 0.950 . S
C1636 C1637 1.327 . S
C1637 H1631 0.950 . S
C1637 C1636 1.327 . S
C1637 C1641 1.429 . S
C1638 C1621 1.574 1_554 S
C1638 H1632 0.949 . S
C1638 C1642 1.368 1_545 S
C1639 C1620 1.429 1_545 S
C1639 C1633 1.429 . S
C1639 C1640 1.523 . S
C1640 C1621 1.368 1_455 S
C1640 C1634 1.368 1_545 S
C1640 C1639 1.523 . S
C1641 C1625 1.429 1_565 S
C1641 C1637 1.429 . S
C1641 C1642 1.523 . S
C1642 C1626 1.368 1_655 S
C1642 C1638 1.368 1_565 S
C1642 C1641 1.523 . S
H1643 C1618 0.936 1_565 S
H1644 C1620 0.950 . S
H1645 C1621 0.949 . S
H1646 C1623 0.936 1_545 S
H1647 C1625 0.950 . S
C1648 C1649 1.349 . S
C1648 C1650 1.327 . S
C1648 H1673 0.950 . S
C1649 C1648 1.349 . S
C1649 C1665 1.349 . S
C1650 C1648 1.327 . S
C1650 C1669 1.429 . S
C1650 H1674 0.950 . S
C1651 C1668 1.574 . S
C1651 C1670 1.368 . S
C1651 H1675 0.949 . S
H1652 C1656 0.949 . S
C1653 C1654 1.349 . S
C1653 C1655 1.327 . S
C1653 H1676 0.950 . S
C1654 C1653 1.349 . S
C1654 C1666 1.349 . S
C1655 C1653 1.327 . S
C1655 C1671 1.429 . S
C1655 H1677 0.950 . S
C1656 H1652 0.949 . S
C1656 C1664 1.574 . S
C1656 C1672 1.368 . S
H1657 C1665 0.950 . S
H1658 C1663 0.950 . S
H1659 C1664 0.949 . S
H1660 C1666 0.950 . S
H1661 C1667 0.950 . S
H1662 C1668 0.949 . S
C1663 H1658 0.950 . S
C1663 C1665 1.327 . S
C1663 C1669 1.429 . S
C1664 C1656 1.574 . S
C1664 H1659 0.949 . S
C1664 C1670 1.368 . S
C1665 C1649 1.349 . S
C1665 H1657 0.950 . S
C1665 C1663 1.327 . S
C1666 C1654 1.349 . S
C1666 H1660 0.950 . S
C1666 C1667 1.327 . S
C1667 H1661 0.950 . S
C1667 C1666 1.327 . S
C1667 C1671 1.429 . S
C1668 C1651 1.574 . S
C1668 H1662 0.949 . S
C1668 C1672 1.368 . S
C1669 C1650 1.429 . S
C1669 C1663 1.429 . S
C1669 C1670 1.523 . S
C1670 C1651 1.368 . S
C1670 C1664 1.368 . S
C1670 C1669 1.523 . S
C1671 C1655 1.429 . S
C1671 C1667 1.429 . S
C1671 C1672 1.523 . S
C1672 C1656 1.368 . S
C1672 C1668 1.368 . S
C1672 C1671 1.523 . S
H1673 C1648 0.950 . S
H1674 C1650 0.950 . S
H1675 C1651 0.949 . S
H1676 C1653 0.950 . S
H1677 C1655 0.950 . S
C1678 C1679 1.349 . S
C1678 C1680 1.327 . S
C1678 H1703 0.950 . S
C1679 C1678 1.349 . S
C1679 C1695 1.349 . S
C1680 C1678 1.327 . S
C1680 C1699 1.429 . S
C1680 H1704 0.950 . S
C1681 C1698 1.574 . S
C1681 C1700 1.368 . S
C1681 H1705 0.949 . S
H1682 C1686 0.949 . S
C1683 C1684 1.349 . S
C1683 C1685 1.327 . S
C1683 H1706 0.950 . S
C1684 C1683 1.349 . S
C1684 C1696 1.349 . S
C1685 C1683 1.327 . S
C1685 C1701 1.429 . S
C1685 H1707 0.950 . S
C1686 H1682 0.949 . S
C1686 C1694 1.574 . S
C1686 C1702 1.368 . S
H1687 C1695 0.950 . S
H1688 C1693 0.950 . S
H1689 C1694 0.949 . S
H1690 C1696 0.950 . S
H1691 C1697 0.950 . S
H1692 C1698 0.949 . S
C1693 H1688 0.950 . S
C1693 C1695 1.327 . S
C1693 C1699 1.429 . S
C1694 C1686 1.574 . S
C1694 H1689 0.949 . S
C1694 C1700 1.368 . S
C1695 C1679 1.349 . S
C1695 H1687 0.950 . S
C1695 C1693 1.327 . S
C1696 C1684 1.349 . S
C1696 H1690 0.950 . S
C1696 C1697 1.327 . S
C1697 H1691 0.950 . S
C1697 C1696 1.327 . S
C1697 C1701 1.429 . S
C1698 C1681 1.574 . S
C1698 H1692 0.949 . S
C1698 C1702 1.368 . S
C1699 C1680 1.429 . S
C1699 C1693 1.429 . S
C1699 C1700 1.523 . S
C1700 C1681 1.368 . S
C1700 C1694 1.368 . S
C1700 C1699 1.523 . S
C1701 C1685 1.429 . S
C1701 C1697 1.429 . S
C1701 C1702 1.523 . S
C1702 C1686 1.368 . S
C1702 C1698 1.368 . S
C1702 C1701 1.523 . S
H1703 C1678 0.950 . S
H1704 C1680 0.950 . S
H1705 C1681 0.949 . S
H1706 C1683 0.950 . S
H1707 C1685 0.950 . S
C1708 C1709 1.349 . S
C1708 C1710 1.327 . S
C1708 H1733 0.950 . S
C1709 C1708 1.349 . S
C1709 C1725 1.349 . S
C1710 C1708 1.327 . S
C1710 C1729 1.429 . S
C1710 H1734 0.950 . S
C1711 C1728 1.574 . S
C1711 C1730 1.368 . S
C1711 H1735 0.949 . S
H1712 C1716 0.949 . S
C1713 C1714 1.349 . S
C1713 C1715 1.327 . S
C1713 H1736 0.950 . S
C1714 C1713 1.349 . S
C1714 C1726 1.349 . S
C1715 C1713 1.327 . S
C1715 C1731 1.429 . S
C1715 H1737 0.950 . S
C1716 H1712 0.949 . S
C1716 C1724 1.574 . S
C1716 C1732 1.368 . S
H1717 C1725 0.950 . S
H1718 C1723 0.950 . S
H1719 C1724 0.949 . S
H1720 C1726 0.950 . S
H1721 C1727 0.950 . S
H1722 C1728 0.949 . S
C1723 H1718 0.950 . S
C1723 C1725 1.327 . S
C1723 C1729 1.429 . S
C1724 C1716 1.574 . S
C1724 H1719 0.949 . S
C1724 C1730 1.368 . S
C1725 C1709 1.349 . S
C1725 H1717 0.950 . S
C1725 C1723 1.327 . S
C1726 C1714 1.349 . S
C1726 H1720 0.950 . S
C1726 C1727 1.327 . S
C1727 H1721 0.950 . S
C1727 C1726 1.327 . S
C1727 C1731 1.429 . S
C1728 C1711 1.574 . S
C1728 H1722 0.949 . S
C1728 C1732 1.368 . S
C1729 C1710 1.429 . S
C1729 C1723 1.429 . S
C1729 C1730 1.523 . S
C1730 C1711 1.368 . S
C1730 C1724 1.368 . S
C1730 C1729 1.523 . S
C1731 C1715 1.429 . S
C1731 C1727 1.429 . S
C1731 C1732 1.523 . S
C1732 C1716 1.368 . S
C1732 C1728 1.368 . S
C1732 C1731 1.523 . S
H1733 C1708 0.950 . S
H1734 C1710 0.950 . S
H1735 C1711 0.949 . S
H1736 C1713 0.950 . S
H1737 C1715 0.950 . S
C1738 C1739 1.349 . S
C1738 C1740 1.327 . S
C1738 H1763 0.950 . S
C1739 C1738 1.349 . S
C1739 C1755 1.349 . S
C1740 C1738 1.327 . S
C1740 C1759 1.429 . S
C1740 H1764 0.950 . S
C1741 C1758 1.574 . S
C1741 C1760 1.368 . S
C1741 H1765 0.949 . S
H1742 C1746 0.949 . S
C1743 C1744 1.349 . S
C1743 C1745 1.327 . S
C1743 H1766 0.950 . S
C1744 C1743 1.349 . S
C1744 C1756 1.349 . S
C1745 C1743 1.327 . S
C1745 C1761 1.429 . S
C1745 H1767 0.950 . S
C1746 H1742 0.949 . S
C1746 C1754 1.574 . S
C1746 C1762 1.368 . S
H1747 C1755 0.950 . S
H1748 C1753 0.950 . S
H1749 C1754 0.949 . S
H1750 C1756 0.950 . S
H1751 C1757 0.950 . S
H1752 C1758 0.949 . S
C1753 H1748 0.950 . S
C1753 C1755 1.327 . S
C1753 C1759 1.429 . S
C1754 C1746 1.574 . S
C1754 H1749 0.949 . S
C1754 C1760 1.368 . S
C1755 C1739 1.349 . S
C1755 H1747 0.950 . S
C1755 C1753 1.327 . S
C1756 C1744 1.349 . S
C1756 H1750 0.950 . S
C1756 C1757 1.327 . S
C1757 H1751 0.950 . S
C1757 C1756 1.327 . S
C1757 C1761 1.429 . S
C1758 C1741 1.574 . S
C1758 H1752 0.949 . S
C1758 C1762 1.368 . S
C1759 C1740 1.429 . S
C1759 C1753 1.429 . S
C1759 C1760 1.523 . S
C1760 C1741 1.368 . S
C1760 C1754 1.368 . S
C1760 C1759 1.523 . S
C1761 C1745 1.429 . S
C1761 C1757 1.429 . S
C1761 C1762 1.523 . S
C1762 C1746 1.368 . S
C1762 C1758 1.368 . S
C1762 C1761 1.523 . S
H1763 C1738 0.950 . S
H1764 C1740 0.950 . S
H1765 C1741 0.949 . S
H1766 C1743 0.950 . S
H1767 C1745 0.950 . S
C1768 C1769 1.349 . S
C1768 C1770 1.327 . S
C1768 H1793 0.950 . S
C1769 C1768 1.349 . S
C1769 C1785 1.349 . S
C1770 C1768 1.327 . S
C1770 C1789 1.429 . S
C1770 H1794 0.950 . S
C1771 C1788 1.574 1_554 S
C1771 C1790 1.368 . S
C1771 H1795 0.949 . S
H1772 C1776 0.949 . S
C1773 C1774 1.349 . S
C1773 C1775 1.327 . S
C1773 H1796 0.950 . S
C1774 C1773 1.349 . S
C1774 C1786 1.349 . S
C1775 C1773 1.327 . S
C1775 C1791 1.429 . S
C1775 H1797 0.950 . S
C1776 H1772 0.949 . S
C1776 C1784 1.574 1_556 S
C1776 C1792 1.368 . S
H1777 C1785 0.950 . S
H1778 C1783 0.950 . S
H1779 C1784 0.949 . S
H1780 C1786 0.950 . S
H1781 C1787 0.950 . S
H1782 C1788 0.949 . S
C1783 H1778 0.950 . S
C1783 C1785 1.327 . S
C1783 C1789 1.429 . S
C1784 C1776 1.574 1_554 S
C1784 H1779 0.949 . S
C1784 C1790 1.368 . S
C1785 C1769 1.349 . S
C1785 H1777 0.950 . S
C1785 C1783 1.327 . S
C1786 C1774 1.349 . S
C1786 H1780 0.950 . S
C1786 C1787 1.327 . S
C1787 H1781 0.950 . S
C1787 C1786 1.327 . S
C1787 C1791 1.429 . S
C1788 C1771 1.574 1_556 S
C1788 H1782 0.949 . S
C1788 C1792 1.368 . S
C1789 C1770 1.429 . S
C1789 C1783 1.429 . S
C1789 C1790 1.523 . S
C1790 C1771 1.368 . S
C1790 C1784 1.368 . S
C1790 C1789 1.523 . S
C1791 C1775 1.429 . S
C1791 C1787 1.429 . S
C1791 C1792 1.523 . S
C1792 C1776 1.368 . S
C1792 C1788 1.368 . S
C1792 C1791 1.523 . S
H1793 C1768 0.950 . S
H1794 C1770 0.950 . S
H1795 C1771 0.949 . S
H1796 C1773 0.950 . S
H1797 C1775 0.950 . S
C1798 C1799 1.349 . S
C1798 C1800 1.327 . S
C1798 H1823 0.950 . S
C1799 C1798 1.349 . S
C1799 C1815 1.349 . S
C1800 C1798 1.327 . S
C1800 C1819 1.429 . S
C1800 H1824 0.950 . S
C1801 C1818 1.574 . S
C1801 C1820 1.368 . S
C1801 H1825 0.949 . S
H1802 C1806 0.949 . S
C1803 C1804 1.349 . S
C1803 C1805 1.327 . S
C1803 H1826 0.950 . S
C1804 C1803 1.349 . S
C1804 C1816 1.349 . S
C1805 C1803 1.327 . S
C1805 C1821 1.429 . S
C1805 H1827 0.950 . S
C1806 H1802 0.949 . S
C1806 C1814 1.574 . S
C1806 C1822 1.368 . S
H1807 C1815 0.950 . S
H1808 C1813 0.950 . S
H1809 C1814 0.949 . S
H1810 C1816 0.950 . S
H1811 C1817 0.950 . S
H1812 C1818 0.949 . S
C1813 H1808 0.950 . S
C1813 C1815 1.327 . S
C1813 C1819 1.429 . S
C1814 C1806 1.574 . S
C1814 H1809 0.949 . S
C1814 C1820 1.368 1_655 S
C1815 C1799 1.349 . S
C1815 H1807 0.950 . S
C1815 C1813 1.327 . S
C1816 C1804 1.349 . S
C1816 H1810 0.950 . S
C1816 C1817 1.327 . S
C1817 H1811 0.950 . S
C1817 C1816 1.327 . S
C1817 C1821 1.429 . S
C1818 C1801 1.574 . S
C1818 H1812 0.949 . S
C1818 C1822 1.368 1_455 S
C1819 C1800 1.429 . S
C1819 C1813 1.429 . S
C1819 C1820 1.523 . S
C1820 C1801 1.368 . S
C1820 C1814 1.368 1_455 S
C1820 C1819 1.523 . S
C1821 C1805 1.429 . S
C1821 C1817 1.429 . S
C1821 C1822 1.523 . S
C1822 C1806 1.368 . S
C1822 C1818 1.368 1_655 S
C1822 C1821 1.523 . S
H1823 C1798 0.950 . S
H1824 C1800 0.950 . S
H1825 C1801 0.949 . S
H1826 C1803 0.950 . S
H1827 C1805 0.950 . S
C1828 C1829 1.349 . S
C1828 C1830 1.327 . S
C1828 H1853 0.950 . S
C1829 C1828 1.349 . S
C1829 C1845 1.349 . S
C1830 C1828 1.327 . S
C1830 C1849 1.429 . S
C1830 H1854 0.950 . S
C1831 C1848 1.612 1_455 S
C1831 C1850 1.368 . S
C1831 H1855 0.949 . S
H1832 C1836 0.949 . S
C1833 C1834 1.349 . S
C1833 C1835 1.327 . S
C1833 H1856 0.950 . S
C1834 C1833 1.349 . S
C1834 C1846 1.349 . S
C1835 C1833 1.327 . S
C1835 C1851 1.429 . S
C1835 H1857 0.950 . S
C1836 H1832 0.949 . S
C1836 C1844 1.612 1_655 S
C1836 C1852 1.368 . S
H1837 C1845 0.950 . S
H1838 C1843 0.950 . S
H1839 C1844 0.949 . S
H1840 C1846 0.950 . S
H1841 C1847 0.950 . S
H1842 C1848 0.949 . S
C1843 H1838 0.950 . S
C1843 C1845 1.327 . S
C1843 C1849 1.429 . S
C1844 C1836 1.612 1_455 S
C1844 H1839 0.949 . S
C1844 C1850 1.330 1_556 S
C1845 C1829 1.349 . S
C1845 H1837 0.950 . S
C1845 C1843 1.327 . S
C1846 C1834 1.349 . S
C1846 H1840 0.950 . S
C1846 C1847 1.327 . S
C1847 H1841 0.950 . S
C1847 C1846 1.327 . S
C1847 C1851 1.429 . S
C1848 C1831 1.612 1_655 S
C1848 H1842 0.949 . S
C1848 C1852 1.329 1_554 S
C1849 C1830 1.429 . S
C1849 C1843 1.429 . S
C1849 C1850 1.523 . S
C1850 C1831 1.368 . S
C1850 C1844 1.330 1_554 S
C1850 C1849 1.523 . S
C1851 C1835 1.429 . S
C1851 C1847 1.429 . S
C1851 C1852 1.523 . S
C1852 C1836 1.368 . S
C1852 C1848 1.329 1_556 S
C1852 C1851 1.523 . S
H1853 C1828 0.950 . S
H1854 C1830 0.950 . S
H1855 C1831 0.949 . S
H1856 C1833 0.950 . S
H1857 C1835 0.950 . S
C1858 C1859 1.349 . S
C1858 C1860 1.327 . S
C1858 H1883 0.950 . S
C1859 C1858 1.349 . S
C1859 C1875 1.349 . S
C1860 C1858 1.327 . S
C1860 C1879 1.429 . S
C1860 H1884 0.950 . S
C1861 C1878 1.574 . S
C1861 C1880 1.368 . S
C1861 H1885 0.949 . S
H1862 C1866 0.949 . S
C1863 C1864 1.349 . S
C1863 C1865 1.327 . S
C1863 H1886 0.950 . S
C1864 C1863 1.349 . S
C1864 C1876 1.349 . S
C1865 C1863 1.327 . S
C1865 C1881 1.429 . S
C1865 H1887 0.950 . S
C1866 H1862 0.949 . S
C1866 C1874 1.574 . S
C1866 C1882 1.368 . S
H1867 C1875 0.950 . S
H1868 C1873 0.950 . S
H1869 C1874 0.949 . S
H1870 C1876 0.950 . S
H1871 C1877 0.950 . S
H1872 C1878 0.949 . S
C1873 H1868 0.950 . S
C1873 C1875 1.327 . S
C1873 C1879 1.429 . S
C1874 C1866 1.574 . S
C1874 H1869 0.949 . S
C1874 C1880 1.368 . S
C1875 C1859 1.349 . S
C1875 H1867 0.950 . S
C1875 C1873 1.327 . S
C1876 C1864 1.349 . S
C1876 H1870 0.950 . S
C1876 C1877 1.327 . S
C1877 H1871 0.950 . S
C1877 C1876 1.327 . S
C1877 C1881 1.429 . S
C1878 C1861 1.574 . S
C1878 H1872 0.949 . S
C1878 C1882 1.368 . S
C1879 C1860 1.429 . S
C1879 C1873 1.429 . S
C1879 C1880 1.523 . S
C1880 C1861 1.368 . S
C1880 C1874 1.368 . S
C1880 C1879 1.523 . S
C1881 C1865 1.429 . S
C1881 C1877 1.429 . S
C1881 C1882 1.523 . S
C1882 C1866 1.368 . S
C1882 C1878 1.368 . S
C1882 C1881 1.523 . S
H1883 C1858 0.950 . S
H1884 C1860 0.950 . S
H1885 C1861 0.949 . S
H1886 C1863 0.950 . S
H1887 C1865 0.950 . S
C1888 C1889 1.349 . S
C1888 C1890 1.327 . S
C1888 H1913 0.950 . S
C1889 C1888 1.349 . S
C1889 C1905 1.349 . S
C1890 C1888 1.327 . S
C1890 C1909 1.429 . S
C1890 H1914 0.950 . S
C1891 C1908 1.574 1_545 S
C1891 C1910 1.368 . S
C1891 H1915 0.949 . S
H1892 C1896 0.949 . S
C1893 C1894 1.349 . S
C1893 C1895 1.327 . S
C1893 H1916 0.950 . S
C1894 C1893 1.349 . S
C1894 C1906 1.349 . S
C1895 C1893 1.327 . S
C1895 C1911 1.429 . S
C1895 H1917 0.950 . S
C1896 H1892 0.949 . S
C1896 C1904 1.574 1_565 S
C1896 C1912 1.368 . S
H1897 C1905 0.950 . S
H1898 C1903 0.950 . S
H1899 C1904 0.949 . S
H1900 C1906 0.950 . S
H1901 C1907 0.950 . S
H1902 C1908 0.949 . S
C1903 H1898 0.950 . S
C1903 C1905 1.327 . S
C1903 C1909 1.429 . S
C1904 C1896 1.574 1_545 S
C1904 H1899 0.949 . S
C1904 C1910 1.368 . S
C1905 C1889 1.349 . S
C1905 H1897 0.950 . S
C1905 C1903 1.327 . S
C1906 C1894 1.349 . S
C1906 H1900 0.950 . S
C1906 C1907 1.327 . S
C1907 H1901 0.950 . S
C1907 C1906 1.327 . S
C1907 C1911 1.429 . S
C1908 C1891 1.574 1_565 S
C1908 H1902 0.949 . S
C1908 C1912 1.368 . S
C1909 C1890 1.429 . S
C1909 C1903 1.429 . S
C1909 C1910 1.523 . S
C1910 C1891 1.368 . S
C1910 C1904 1.368 . S
C1910 C1909 1.523 . S
C1911 C1895 1.429 . S
C1911 C1907 1.429 . S
C1911 C1912 1.523 . S
C1912 C1896 1.368 . S
C1912 C1908 1.368 . S
C1912 C1911 1.523 . S
H1913 C1888 0.950 . S
H1914 C1890 0.950 . S
H1915 C1891 0.949 . S
H1916 C1893 0.950 . S
H1917 C1895 0.950 . S
C1918 C1919 1.349 . S
C1918 C1920 1.327 . S
C1918 H1943 0.950 . S
C1919 C1918 1.349 . S
C1919 C1935 1.349 . S
C1920 C1918 1.327 . S
C1920 C1939 1.429 . S
C1920 H1944 0.950 . S
C1921 C1938 1.574 . S
C1921 C1940 1.368 . S
C1921 H1945 0.949 . S
H1922 C1926 0.949 . S
C1923 C1924 1.349 . S
C1923 C1925 1.327 . S
C1923 H1946 0.950 . S
C1924 C1923 1.349 . S
C1924 C1936 1.349 . S
C1925 C1923 1.327 . S
C1925 C1941 1.429 . S
C1925 H1947 0.950 . S
C1926 H1922 0.949 . S
C1926 C1934 1.574 . S
C1926 C1942 1.368 . S
H1927 C1935 0.950 . S
H1928 C1933 0.950 . S
H1929 C1934 0.949 . S
H1930 C1936 0.950 . S
H1931 C1937 0.950 . S
H1932 C1938 0.949 . S
C1933 H1928 0.950 . S
C1933 C1935 1.327 . S
C1933 C1939 1.429 . S
C1934 C1926 1.574 . S
C1934 H1929 0.949 . S
C1934 C1940 1.368 . S
C1935 C1919 1.349 . S
C1935 H1927 0.950 . S
C1935 C1933 1.327 . S
C1936 C1924 1.349 . S
C1936 H1930 0.950 . S
C1936 C1937 1.327 . S
C1937 H1931 0.950 . S
C1937 C1936 1.327 . S
C1937 C1941 1.429 . S
C1938 C1921 1.574 . S
C1938 H1932 0.949 . S
C1938 C1942 1.368 . S
C1939 C1920 1.429 . S
C1939 C1933 1.429 . S
C1939 C1940 1.523 . S
C1940 C1921 1.368 . S
C1940 C1934 1.368 . S
C1940 C1939 1.523 . S
C1941 C1925 1.429 . S
C1941 C1937 1.429 . S
C1941 C1942 1.523 . S
C1942 C1926 1.368 . S
C1942 C1938 1.368 . S
C1942 C1941 1.523 . S
H1943 C1918 0.950 . S
H1944 C1920 0.950 . S
H1945 C1921 0.949 . S
H1946 C1923 0.950 . S
H1947 C1925 0.950 . S
C1948 C1949 1.349 . S
C1948 C1950 1.327 . S
C1948 H1973 0.950 . S
C1949 C1948 1.349 . S
C1949 C1965 1.349 . S
C1950 C1948 1.327 . S
C1950 C1969 1.429 . S
C1950 H1974 0.950 . S
C1951 C1968 1.574 1_545 S
C1951 C1970 1.368 . S
C1951 H1975 0.949 . S
H1952 C1956 0.949 . S
C1953 C1954 1.349 . S
C1953 C1955 1.327 . S
C1953 H1976 0.950 . S
C1954 C1953 1.349 . S
C1954 C1966 1.349 . S
C1955 C1953 1.327 . S
C1955 C1971 1.429 . S
C1955 H1977 0.950 . S
C1956 H1952 0.949 . S
C1956 C1964 1.574 1_565 S
C1956 C1972 1.368 . S
H1957 C1965 0.950 . S
H1958 C1963 0.950 . S
H1959 C1964 0.949 . S
H1960 C1966 0.950 . S
H1961 C1967 0.950 . S
H1962 C1968 0.949 . S
C1963 H1958 0.950 . S
C1963 C1965 1.327 . S
C1963 C1969 1.429 . S
C1964 C1956 1.574 1_545 S
C1964 H1959 0.949 . S
C1964 C1970 1.368 . S
C1965 C1949 1.349 . S
C1965 H1957 0.950 . S
C1965 C1963 1.327 . S
C1966 C1954 1.349 . S
C1966 H1960 0.950 . S
C1966 C1967 1.327 . S
C1967 H1961 0.950 . S
C1967 C1966 1.327 . S
C1967 C1971 1.429 . S
C1968 C1951 1.574 1_565 S
C1968 H1962 0.949 . S
C1968 C1972 1.368 . S
C1969 C1950 1.429 . S
C1969 C1963 1.429 . S
C1969 C1970 1.523 . S
C1970 C1951 1.368 . S
C1970 C1964 1.368 . S
C1970 C1969 1.523 . S
C1971 C1955 1.429 . S
C1971 C1967 1.429 . S
C1971 C1972 1.523 . S
C1972 C1956 1.368 . S
C1972 C1968 1.368 . S
C1972 C1971 1.523 . S
H1973 C1948 0.950 . S
H1974 C1950 0.950 . S
H1975 C1951 0.949 . S
H1976 C1953 0.950 . S
H1977 C1955 0.950 . S
C1978 C1979 1.349 . S
C1978 C1980 1.327 . S
C1978 H2003 0.950 . S
C1979 C1978 1.349 . S
C1979 C1995 1.349 . S
C1980 C1978 1.327 . S
C1980 C1999 1.429 . S
C1980 H2004 0.950 . S
C1981 C1998 1.535 1_554 S
C1981 C2000 1.368 . S
C1981 H2005 0.949 . S
H1982 C1986 0.949 . S
C1983 C1984 1.349 . S
C1983 C1985 1.327 . S
C1983 H2006 0.950 . S
C1984 C1983 1.349 . S
C1984 C1996 1.349 . S
C1985 C1983 1.327 . S
C1985 C2001 1.429 . S
C1985 H2007 0.950 . S
C1986 H1982 0.949 . S
C1986 C1994 1.535 1_556 S
C1986 C2002 1.368 . S
H1987 C1995 0.950 . S
H1988 C1993 0.950 . S
H1989 C1994 0.954 . S
H1990 C1996 0.950 . S
H1991 C1997 0.950 . S
H1992 C1998 0.954 . S
C1993 H1988 0.950 . S
C1993 C1995 1.327 . S
C1993 C1999 1.429 . S
C1994 C1986 1.535 1_554 S
C1994 H1989 0.954 . S
C1994 C2000 1.404 . S
C1995 C1979 1.349 . S
C1995 H1987 0.950 . S
C1995 C1993 1.327 . S
C1996 C1984 1.349 . S
C1996 H1990 0.950 . S
C1996 C1997 1.327 . S
C1997 H1991 0.950 . S
C1997 C1996 1.327 . S
C1997 C2001 1.429 . S
C1998 C1981 1.535 1_556 S
C1998 H1992 0.954 . S
C1998 C2002 1.404 . S
C1999 C1980 1.429 . S
C1999 C1993 1.429 . S
C1999 C2000 1.523 . S
C2000 C1981 1.368 . S
C2000 C1994 1.404 . S
C2000 C1999 1.523 . S
C2001 C1985 1.429 . S
C2001 C1997 1.429 . S
C2001 C2002 1.523 . S
C2002 C1986 1.368 . S
C2002 C1998 1.404 . S
C2002 C2001 1.523 . S
H2003 C1978 0.950 . S
H2004 C1980 0.950 . S
H2005 C1981 0.949 . S
H2006 C1983 0.950 . S
H2007 C1985 0.950 . S
C2008 C2009 1.349 . S
C2008 C2010 1.327 . S
C2008 H2033 0.950 . S
C2009 C2008 1.349 . S
C2009 C2025 1.349 . S
C2010 C2008 1.327 . S
C2010 C2029 1.429 . S
C2010 H2034 0.950 . S
C2011 C2028 1.574 . S
C2011 C2030 1.368 . S
C2011 H2035 0.949 . S
H2012 C2016 0.949 . S
C2013 C2014 1.349 . S
C2013 C2015 1.327 . S
C2013 H2036 0.950 . S
C2014 C2013 1.349 . S
C2014 C2026 1.349 . S
C2015 C2013 1.327 . S
C2015 C2031 1.429 . S
C2015 H2037 0.950 . S
C2016 H2012 0.949 . S
C2016 C2024 1.574 . S
C2016 C2032 1.368 . S
H2017 C2025 0.950 . S
H2018 C2023 0.950 . S
H2019 C2024 0.949 . S
H2020 C2026 0.950 . S
H2021 C2027 0.950 . S
H2022 C2028 0.949 . S
C2023 H2018 0.950 . S
C2023 C2025 1.327 . S
C2023 C2029 1.429 . S
C2024 C2016 1.574 . S
C2024 H2019 0.949 . S
C2024 C2030 1.368 1_565 S
C2025 C2009 1.349 . S
C2025 H2017 0.950 . S
C2025 C2023 1.327 . S
C2026 C2014 1.349 . S
C2026 H2020 0.950 . S
C2026 C2027 1.327 . S
C2027 H2021 0.950 . S
C2027 C2026 1.327 . S
C2027 C2031 1.429 . S
C2028 C2011 1.574 . S
C2028 H2022 0.949 . S
C2028 C2032 1.368 1_545 S
C2029 C2010 1.429 . S
C2029 C2023 1.429 . S
C2029 C2030 1.523 . S
C2030 C2011 1.368 . S
C2030 C2024 1.368 1_545 S
C2030 C2029 1.523 . S
C2031 C2015 1.429 . S
C2031 C2027 1.429 . S
C2031 C2032 1.523 . S
C2032 C2016 1.368 . S
C2032 C2028 1.368 1_565 S
C2032 C2031 1.523 . S
H2033 C2008 0.950 . S
H2034 C2010 0.950 . S
H2035 C2011 0.949 . S
H2036 C2013 0.950 . S
H2037 C2015 0.950 . S
C2038 C2039 1.349 . S
C2038 C2040 1.327 . S
C2038 H2063 0.950 . S
C2039 C2038 1.349 . S
C2039 C2055 1.349 . S
C2040 C2038 1.327 . S
C2040 C2059 1.429 . S
C2040 H2064 0.950 . S
C2041 C2058 1.574 . S
C2041 C2060 1.368 . S
C2041 H2065 0.949 . S
H2042 C2046 0.949 . S
C2043 C2044 1.349 . S
C2043 C2045 1.327 . S
C2043 H2066 0.950 . S
C2044 C2043 1.349 . S
C2044 C2056 1.349 . S
C2045 C2043 1.327 . S
C2045 C2061 1.429 . S
C2045 H2067 0.950 . S
C2046 H2042 0.949 . S
C2046 C2054 1.574 . S
C2046 C2062 1.368 . S
H2047 C2055 0.950 . S
H2048 C2053 0.950 . S
H2049 C2054 0.949 . S
H2050 C2056 0.950 . S
H2051 C2057 0.950 . S
H2052 C2058 0.949 . S
C2053 H2048 0.950 . S
C2053 C2055 1.327 . S
C2053 C2059 1.429 . S
C2054 C2046 1.574 . S
C2054 H2049 0.949 . S
C2054 C2060 1.368 . S
C2055 C2039 1.349 . S
C2055 H2047 0.950 . S
C2055 C2053 1.327 . S
C2056 C2044 1.349 . S
C2056 H2050 0.950 . S
C2056 C2057 1.327 . S
C2057 H2051 0.950 . S
C2057 C2056 1.327 . S
C2057 C2061 1.429 . S
C2058 C2041 1.574 . S
C2058 H2052 0.949 . S
C2058 C2062 1.368 . S
C2059 C2040 1.429 . S
C2059 C2053 1.429 . S
C2059 C2060 1.523 . S
C2060 C2041 1.368 . S
C2060 C2054 1.368 . S
C2060 C2059 1.523 . S
C2061 C2045 1.429 . S
C2061 C2057 1.429 . S
C2061 C2062 1.523 . S
C2062 C2046 1.368 . S
C2062 C2058 1.368 . S
C2062 C2061 1.523 . S
H2063 C2038 0.950 . S
H2064 C2040 0.950 . S
H2065 C2041 0.949 . S
H2066 C2043 0.950 . S
H2067 C2045 0.950 . S
C2068 C2069 1.349 . S
C2068 C2070 1.327 . S
C2068 H2093 0.950 . S
C2069 C2068 1.349 . S
C2069 C2085 1.349 . S
C2070 C2068 1.327 . S
C2070 C2089 1.429 . S
C2070 H2094 0.950 . S
C2071 C2088 1.574 . S
C2071 C2090 1.368 . S
C2071 H2095 0.949 . S
H2072 C2076 0.949 . S
C2073 C2074 1.349 . S
C2073 C2075 1.327 . S
C2073 H2096 0.950 . S
C2074 C2073 1.349 . S
C2074 C2086 1.349 . S
C2075 C2073 1.327 . S
C2075 C2091 1.429 . S
C2075 H2097 0.950 . S
C2076 H2072 0.949 . S
C2076 C2084 1.574 . S
C2076 C2092 1.368 . S
H2077 C2085 0.950 . S
H2078 C2083 0.950 . S
H2079 C2084 0.949 . S
H2080 C2086 0.950 . S
H2081 C2087 0.950 . S
H2082 C2088 0.949 . S
C2083 H2078 0.950 . S
C2083 C2085 1.327 . S
C2083 C2089 1.429 . S
C2084 C2076 1.574 . S
C2084 H2079 0.949 . S
C2084 C2090 1.368 1_565 S
C2085 C2069 1.349 . S
C2085 H2077 0.950 . S
C2085 C2083 1.327 . S
C2086 C2074 1.349 . S
C2086 H2080 0.950 . S
C2086 C2087 1.327 . S
C2087 H2081 0.950 . S
C2087 C2086 1.327 . S
C2087 C2091 1.429 . S
C2088 C2071 1.574 . S
C2088 H2082 0.949 . S
C2088 C2092 1.368 1_545 S
C2089 C2070 1.429 . S
C2089 C2083 1.429 . S
C2089 C2090 1.523 . S
C2090 C2071 1.368 . S
C2090 C2084 1.368 1_545 S
C2090 C2089 1.523 . S
C2091 C2075 1.429 . S
C2091 C2087 1.429 . S
C2091 C2092 1.523 . S
C2092 C2076 1.368 . S
C2092 C2088 1.368 1_565 S
C2092 C2091 1.523 . S
H2093 C2068 0.950 . S
H2094 C2070 0.950 . S
H2095 C2071 0.949 . S
H2096 C2073 0.950 . S
H2097 C2075 0.950 . S
C2098 C2099 1.349 . S
C2098 C2100 1.327 . S
C2098 H2123 0.950 . S
C2099 C2098 1.349 . S
C2099 C2115 1.349 . S
C2100 C2098 1.327 . S
C2100 C2119 1.429 . S
C2100 H2124 0.950 . S
C2101 C2118 1.535 1_556 S
C2101 C2120 1.404 . S
C2101 H2125 0.954 . S
H2102 C2106 0.954 . S
C2103 C2104 1.349 . S
C2103 C2105 1.327 . S
C2103 H2126 0.950 . S
C2104 C2103 1.349 . S
C2104 C2116 1.349 . S
C2105 C2103 1.327 . S
C2105 C2121 1.429 . S
C2105 H2127 0.950 . S
C2106 H2102 0.954 . S
C2106 C2114 1.535 1_554 S
C2106 C2122 1.404 . S
H2107 C2115 0.950 . S
H2108 C2113 0.950 . S
H2109 C2114 0.949 . S
H2110 C2116 0.950 . S
H2111 C2117 0.950 . S
H2112 C2118 0.949 . S
C2113 H2108 0.950 . S
C2113 C2115 1.327 . S
C2113 C2119 1.429 . S
C2114 C2106 1.535 1_556 S
C2114 H2109 0.949 . S
C2114 C2120 1.368 . S
C2115 C2099 1.349 . S
C2115 H2107 0.950 . S
C2115 C2113 1.327 . S
C2116 C2104 1.349 . S
C2116 H2110 0.950 . S
C2116 C2117 1.327 . S
C2117 H2111 0.950 . S
C2117 C2116 1.327 . S
C2117 C2121 1.429 . S
C2118 C2101 1.535 1_554 S
C2118 H2112 0.949 . S
C2118 C2122 1.368 . S
C2119 C2100 1.429 . S
C2119 C2113 1.429 . S
C2119 C2120 1.523 . S
C2120 C2101 1.404 . S
C2120 C2114 1.368 . S
C2120 C2119 1.523 . S
C2121 C2105 1.429 . S
C2121 C2117 1.429 . S
C2121 C2122 1.523 . S
C2122 C2106 1.404 . S
C2122 C2118 1.368 . S
C2122 C2121 1.523 . S
H2123 C2098 0.950 . S
H2124 C2100 0.950 . S
H2125 C2101 0.954 . S
H2126 C2103 0.950 . S
H2127 C2105 0.950 . S
C2128 C2129 1.349 . S
C2128 C2130 1.327 . S
C2128 H2153 0.950 . S
C2129 C2128 1.349 . S
C2129 C2145 1.349 . S
C2130 C2128 1.327 . S
C2130 C2149 1.429 . S
C2130 H2154 0.950 . S
C2131 C2148 1.574 . S
C2131 C2150 1.368 . S
C2131 H2155 0.949 . S
H2132 C2136 0.949 . S
C2133 C2134 1.349 . S
C2133 C2135 1.327 . S
C2133 H2156 0.950 . S
C2134 C2133 1.349 . S
C2134 C2146 1.349 . S
C2135 C2133 1.327 . S
C2135 C2151 1.429 . S
C2135 H2157 0.950 . S
C2136 H2132 0.949 . S
C2136 C2144 1.574 . S
C2136 C2152 1.368 . S
H2137 C2145 0.950 . S
H2138 C2143 0.950 . S
H2139 C2144 0.949 . S
H2140 C2146 0.950 . S
H2141 C2147 0.950 . S
H2142 C2148 0.949 . S
C2143 H2138 0.950 . S
C2143 C2145 1.327 . S
C2143 C2149 1.429 . S
C2144 C2136 1.574 . S
C2144 H2139 0.949 . S
C2144 C2150 1.368 . S
C2145 C2129 1.349 . S
C2145 H2137 0.950 . S
C2145 C2143 1.327 . S
C2146 C2134 1.349 . S
C2146 H2140 0.950 . S
C2146 C2147 1.327 . S
C2147 H2141 0.950 . S
C2147 C2146 1.327 . S
C2147 C2151 1.429 . S
C2148 C2131 1.574 . S
C2148 H2142 0.949 . S
C2148 C2152 1.368 . S
C2149 C2130 1.429 . S
C2149 C2143 1.429 . S
C2149 C2150 1.523 . S
C2150 C2131 1.368 . S
C2150 C2144 1.368 . S
C2150 C2149 1.523 . S
C2151 C2135 1.429 . S
C2151 C2147 1.429 . S
C2151 C2152 1.523 . S
C2152 C2136 1.368 . S
C2152 C2148 1.368 . S
C2152 C2151 1.523 . S
H2153 C2128 0.950 . S
H2154 C2130 0.950 . S
H2155 C2131 0.949 . S
H2156 C2133 0.950 . S
H2157 C2135 0.950 . S
C2158 C2159 1.349 . S
C2158 C2160 1.327 . S
C2158 H2183 0.950 . S
C2159 C2158 1.349 . S
C2159 C2175 1.349 . S
C2160 C2158 1.327 . S
C2160 C2179 1.429 . S
C2160 H2184 0.950 . S
C2161 C2178 1.535 1_556 S
C2161 C2180 1.404 . S
C2161 H2185 0.954 . S
H2162 C2166 0.954 . S
C2163 C2164 1.349 . S
C2163 C2165 1.327 . S
C2163 H2186 0.950 . S
C2164 C2163 1.349 . S
C2164 C2176 1.349 . S
C2165 C2163 1.327 . S
C2165 C2181 1.429 . S
C2165 H2187 0.950 . S
C2166 H2162 0.954 . S
C2166 C2174 1.535 1_554 S
C2166 C2182 1.404 . S
H2167 C2175 0.950 . S
H2168 C2173 0.950 . S
H2169 C2174 0.949 . S
H2170 C2176 0.950 . S
H2171 C2177 0.950 . S
H2172 C2178 0.949 . S
C2173 H2168 0.950 . S
C2173 C2175 1.327 . S
C2173 C2179 1.429 . S
C2174 C2166 1.535 1_556 S
C2174 H2169 0.949 . S
C2174 C2180 1.368 . S
C2175 C2159 1.349 . S
C2175 H2167 0.950 . S
C2175 C2173 1.327 . S
C2176 C2164 1.349 . S
C2176 H2170 0.950 . S
C2176 C2177 1.327 . S
C2177 H2171 0.950 . S
C2177 C2176 1.327 . S
C2177 C2181 1.429 . S
C2178 C2161 1.535 1_554 S
C2178 H2172 0.949 . S
C2178 C2182 1.368 . S
C2179 C2160 1.429 . S
C2179 C2173 1.429 . S
C2179 C2180 1.523 . S
C2180 C2161 1.404 . S
C2180 C2174 1.368 . S
C2180 C2179 1.523 . S
C2181 C2165 1.429 . S
C2181 C2177 1.429 . S
C2181 C2182 1.523 . S
C2182 C2166 1.404 . S
C2182 C2178 1.368 . S
C2182 C2181 1.523 . S
H2183 C2158 0.950 . S
H2184 C2160 0.950 . S
H2185 C2161 0.954 . S
H2186 C2163 0.950 . S
H2187 C2165 0.950 . S
C2188 C2189 1.349 . S
C2188 C2190 1.327 . S
C2188 H2213 0.950 . S
C2189 C2188 1.349 . S
C2189 C2205 1.349 . S
C2190 C2188 1.327 . S
C2190 C2209 1.429 . S
C2190 H2214 0.950 . S
C2191 C2208 1.574 . S
C2191 C2210 1.368 . S
C2191 H2215 0.949 . S
H2192 C2196 0.949 . S
C2193 C2194 1.349 . S
C2193 C2195 1.327 . S
C2193 H2216 0.950 . S
C2194 C2193 1.349 . S
C2194 C2206 1.349 . S
C2195 C2193 1.327 . S
C2195 C2211 1.429 . S
C2195 H2217 0.950 . S
C2196 H2192 0.949 . S
C2196 C2204 1.574 . S
C2196 C2212 1.368 . S
H2197 C2205 0.950 . S
H2198 C2203 0.950 . S
H2199 C2204 0.949 . S
H2200 C2206 0.950 . S
H2201 C2207 0.950 . S
H2202 C2208 0.949 . S
C2203 H2198 0.950 . S
C2203 C2205 1.327 . S
C2203 C2209 1.429 . S
C2204 C2196 1.574 . S
C2204 H2199 0.949 . S
C2204 C2210 1.368 . S
C2205 C2189 1.349 . S
C2205 H2197 0.950 . S
C2205 C2203 1.327 . S
C2206 C2194 1.349 . S
C2206 H2200 0.950 . S
C2206 C2207 1.327 . S
C2207 H2201 0.950 . S
C2207 C2206 1.327 . S
C2207 C2211 1.429 . S
C2208 C2191 1.574 . S
C2208 H2202 0.949 . S
C2208 C2212 1.368 . S
C2209 C2190 1.429 . S
C2209 C2203 1.429 . S
C2209 C2210 1.523 . S
C2210 C2191 1.368 . S
C2210 C2204 1.368 . S
C2210 C2209 1.523 . S
C2211 C2195 1.429 . S
C2211 C2207 1.429 . S
C2211 C2212 1.523 . S
C2212 C2196 1.368 . S
C2212 C2208 1.368 . S
C2212 C2211 1.523 . S
H2213 C2188 0.950 . S
H2214 C2190 0.950 . S
H2215 C2191 0.949 . S
H2216 C2193 0.950 . S
H2217 C2195 0.950 . S
C2218 C2219 1.349 . S
C2218 C2220 1.327 . S
C2218 H2243 0.950 . S
C2219 C2218 1.349 . S
C2219 C2235 1.349 . S
C2220 C2218 1.327 . S
C2220 C2239 1.429 . S
C2220 H2244 0.950 . S
C2221 C2238 1.574 . S
C2221 C2240 1.368 . S
C2221 H2245 0.949 . S
H2222 C2226 0.949 . S
C2223 C2224 1.349 . S
C2223 C2225 1.327 . S
C2223 H2246 0.950 . S
C2224 C2223 1.349 . S
C2224 C2236 1.349 . S
C2225 C2223 1.327 . S
C2225 C2241 1.429 . S
C2225 H2247 0.950 . S
C2226 H2222 0.949 . S
C2226 C2234 1.574 . S
C2226 C2242 1.368 . S
H2227 C2235 0.950 . S
H2228 C2233 0.950 . S
H2229 C2234 0.949 . S
H2230 C2236 0.950 . S
H2231 C2237 0.950 . S
H2232 C2238 0.949 . S
C2233 H2228 0.950 . S
C2233 C2235 1.327 . S
C2233 C2239 1.429 . S
C2234 C2226 1.574 . S
C2234 H2229 0.949 . S
C2234 C2240 1.368 . S
C2235 C2219 1.349 . S
C2235 H2227 0.950 . S
C2235 C2233 1.327 . S
C2236 C2224 1.349 . S
C2236 H2230 0.950 . S
C2236 C2237 1.327 . S
C2237 H2231 0.950 . S
C2237 C2236 1.327 . S
C2237 C2241 1.429 . S
C2238 C2221 1.574 . S
C2238 H2232 0.949 . S
C2238 C2242 1.368 . S
C2239 C2220 1.429 . S
C2239 C2233 1.429 . S
C2239 C2240 1.523 . S
C2240 C2221 1.368 . S
C2240 C2234 1.368 . S
C2240 C2239 1.523 . S
C2241 C2225 1.429 . S
C2241 C2237 1.429 . S
C2241 C2242 1.523 . S
C2242 C2226 1.368 . S
C2242 C2238 1.368 . S
C2242 C2241 1.523 . S
H2243 C2218 0.950 . S
H2244 C2220 0.950 . S
H2245 C2221 0.949 . S
H2246 C2223 0.950 . S
H2247 C2225 0.950 . S
C2248 C2249 1.349 . S
C2248 C2250 1.327 . S
C2248 H2273 0.950 . S
C2249 C2248 1.349 . S
C2249 C2265 1.349 . S
C2250 C2248 1.327 . S
C2250 C2269 1.429 . S
C2250 H2274 0.950 . S
C2251 C2268 1.574 . S
C2251 C2270 1.368 . S
C2251 H2275 0.949 . S
H2252 C2256 0.949 . S
C2253 C2254 1.349 . S
C2253 C2255 1.327 . S
C2253 H2276 0.950 . S
C2254 C2253 1.349 . S
C2254 C2266 1.349 . S
C2255 C2253 1.327 . S
C2255 C2271 1.429 . S
C2255 H2277 0.950 . S
C2256 H2252 0.949 . S
C2256 C2264 1.574 . S
C2256 C2272 1.368 . S
H2257 C2265 0.950 . S
H2258 C2263 0.950 . S
H2259 C2264 0.949 . S
H2260 C2266 0.950 . S
H2261 C2267 0.950 . S
H2262 C2268 0.949 . S
C2263 H2258 0.950 . S
C2263 C2265 1.327 . S
C2263 C2269 1.429 . S
C2264 C2256 1.574 . S
C2264 H2259 0.949 . S
C2264 C2270 1.368 . S
C2265 C2249 1.349 . S
C2265 H2257 0.950 . S
C2265 C2263 1.327 . S
C2266 C2254 1.349 . S
C2266 H2260 0.950 . S
C2266 C2267 1.327 . S
C2267 H2261 0.950 . S
C2267 C2266 1.327 . S
C2267 C2271 1.429 . S
C2268 C2251 1.574 . S
C2268 H2262 0.949 . S
C2268 C2272 1.368 . S
C2269 C2250 1.429 . S
C2269 C2263 1.429 . S
C2269 C2270 1.523 . S
C2270 C2251 1.368 . S
C2270 C2264 1.368 . S
C2270 C2269 1.523 . S
C2271 C2255 1.429 . S
C2271 C2267 1.429 . S
C2271 C2272 1.523 . S
C2272 C2256 1.368 . S
C2272 C2268 1.368 . S
C2272 C2271 1.523 . S
H2273 C2248 0.950 . S
H2274 C2250 0.950 . S
H2275 C2251 0.949 . S
H2276 C2253 0.950 . S
H2277 C2255 0.950 . S
C2278 C2279 1.349 . S
C2278 C2280 1.327 . S
C2278 H2303 0.950 . S
C2279 C2278 1.349 . S
C2279 C2295 1.349 . S
C2280 C2278 1.327 . S
C2280 C2299 1.429 . S
C2280 H2304 0.950 . S
C2281 C2298 1.535 1_556 S
C2281 C2300 1.368 . S
C2281 H2305 0.949 . S
H2282 C2286 0.949 . S
C2283 C2284 1.349 . S
C2283 C2285 1.327 . S
C2283 H2306 0.950 . S
C2284 C2283 1.349 . S
C2284 C2296 1.349 . S
C2285 C2283 1.327 . S
C2285 C2301 1.429 . S
C2285 H2307 0.950 . S
C2286 H2282 0.949 . S
C2286 C2294 1.535 1_554 S
C2286 C2302 1.368 . S
H2287 C2295 0.950 . S
H2288 C2293 0.950 . S
H2289 C2294 0.954 . S
H2290 C2296 0.950 . S
H2291 C2297 0.950 . S
H2292 C2298 0.954 . S
C2293 H2288 0.950 . S
C2293 C2295 1.327 . S
C2293 C2299 1.429 . S
C2294 C2286 1.535 1_556 S
C2294 H2289 0.954 . S
C2294 C2300 1.404 . S
C2295 C2279 1.349 . S
C2295 H2287 0.950 . S
C2295 C2293 1.327 . S
C2296 C2284 1.349 . S
C2296 H2290 0.950 . S
C2296 C2297 1.327 . S
C2297 H2291 0.950 . S
C2297 C2296 1.327 . S
C2297 C2301 1.429 . S
C2298 C2281 1.535 1_554 S
C2298 H2292 0.954 . S
C2298 C2302 1.404 . S
C2299 C2280 1.429 . S
C2299 C2293 1.429 . S
C2299 C2300 1.523 . S
C2300 C2281 1.368 . S
C2300 C2294 1.404 . S
C2300 C2299 1.523 . S
C2301 C2285 1.429 . S
C2301 C2297 1.429 . S
C2301 C2302 1.523 . S
C2302 C2286 1.368 . S
C2302 C2298 1.404 . S
C2302 C2301 1.523 . S
H2303 C2278 0.950 . S
H2304 C2280 0.950 . S
H2305 C2281 0.949 . S
H2306 C2283 0.950 . S
H2307 C2285 0.950 . S
C2308 C2309 1.349 . S
C2308 C2310 1.327 . S
C2308 H2333 0.950 . S
C2309 C2308 1.349 . S
C2309 C2325 1.349 . S
C2310 C2308 1.327 . S
C2310 C2329 1.429 . S
C2310 H2334 0.950 . S
C2311 C2328 1.574 . S
C2311 C2330 1.368 . S
C2311 H2335 0.949 . S
H2312 C2316 0.949 . S
C2313 C2314 1.349 . S
C2313 C2315 1.327 . S
C2313 H2336 0.950 . S
C2314 C2313 1.349 . S
C2314 C2326 1.349 . S
C2315 C2313 1.327 . S
C2315 C2331 1.429 . S
C2315 H2337 0.950 . S
C2316 H2312 0.949 . S
C2316 C2324 1.574 . S
C2316 C2332 1.368 . S
H2317 C2325 0.950 . S
H2318 C2323 0.950 . S
H2319 C2324 0.949 . S
H2320 C2326 0.950 . S
H2321 C2327 0.950 . S
H2322 C2328 0.949 . S
C2323 H2318 0.950 . S
C2323 C2325 1.327 . S
C2323 C2329 1.429 . S
C2324 C2316 1.574 . S
C2324 H2319 0.949 . S
C2324 C2330 1.368 . S
C2325 C2309 1.349 . S
C2325 H2317 0.950 . S
C2325 C2323 1.327 . S
C2326 C2314 1.349 . S
C2326 H2320 0.950 . S
C2326 C2327 1.327 . S
C2327 H2321 0.950 . S
C2327 C2326 1.327 . S
C2327 C2331 1.429 . S
C2328 C2311 1.574 . S
C2328 H2322 0.949 . S
C2328 C2332 1.368 . S
C2329 C2310 1.429 . S
C2329 C2323 1.429 . S
C2329 C2330 1.523 . S
C2330 C2311 1.368 . S
C2330 C2324 1.368 . S
C2330 C2329 1.523 . S
C2331 C2315 1.429 . S
C2331 C2327 1.429 . S
C2331 C2332 1.523 . S
C2332 C2316 1.368 . S
C2332 C2328 1.368 . S
C2332 C2331 1.523 . S
H2333 C2308 0.950 . S
H2334 C2310 0.950 . S
H2335 C2311 0.949 . S
H2336 C2313 0.950 . S
H2337 C2315 0.950 . S
C2338 C2339 1.349 . S
C2338 C2340 1.327 . S
C2338 H2363 0.950 . S
C2339 C2338 1.349 . S
C2339 C2355 1.349 . S
C2340 C2338 1.327 . S
C2340 C2359 1.429 . S
C2340 H2364 0.950 . S
C2341 C2358 1.574 . S
C2341 C2360 1.368 . S
C2341 H2365 0.949 . S
H2342 C2346 0.949 . S
C2343 C2344 1.349 . S
C2343 C2345 1.327 . S
C2343 H2366 0.950 . S
C2344 C2343 1.349 . S
C2344 C2356 1.349 . S
C2345 C2343 1.327 . S
C2345 C2361 1.429 . S
C2345 H2367 0.950 . S
C2346 H2342 0.949 . S
C2346 C2354 1.574 . S
C2346 C2362 1.368 . S
H2347 C2355 0.950 . S
H2348 C2353 0.950 . S
H2349 C2354 0.949 . S
H2350 C2356 0.950 . S
H2351 C2357 0.950 . S
H2352 C2358 0.949 . S
C2353 H2348 0.950 . S
C2353 C2355 1.327 . S
C2353 C2359 1.429 . S
C2354 C2346 1.574 . S
C2354 H2349 0.949 . S
C2354 C2360 1.368 . S
C2355 C2339 1.349 . S
C2355 H2347 0.950 . S
C2355 C2353 1.327 . S
C2356 C2344 1.349 . S
C2356 H2350 0.950 . S
C2356 C2357 1.327 . S
C2357 H2351 0.950 . S
C2357 C2356 1.327 . S
C2357 C2361 1.429 . S
C2358 C2341 1.574 . S
C2358 H2352 0.949 . S
C2358 C2362 1.368 . S
C2359 C2340 1.429 . S
C2359 C2353 1.429 . S
C2359 C2360 1.523 . S
C2360 C2341 1.368 . S
C2360 C2354 1.368 . S
C2360 C2359 1.523 . S
C2361 C2345 1.429 . S
C2361 C2357 1.429 . S
C2361 C2362 1.523 . S
C2362 C2346 1.368 . S
C2362 C2358 1.368 . S
C2362 C2361 1.523 . S
H2363 C2338 0.950 . S
H2364 C2340 0.950 . S
H2365 C2341 0.949 . S
H2366 C2343 0.950 . S
H2367 C2345 0.950 . S
C449 C390 1.457 . S
C454 C1 1.475 . S
C479 C26 1.474 . S
C484 C112 1.457 . S
C509 C363 1.459 . S
C514 C28 1.474 . S
C539 C42 1.474 . S
C544 C153 1.459 . S
C569 C56 1.474 . S
C574 C419 1.459 . S
C599 C71 1.475 . S
C604 C208 1.457 . S
C629 C96 1.474 . S
C634 C447 1.459 . S
C659 C111 1.475 . S
C664 C181 1.459 . S
C689 C279 1.457 . S
C694 C125 1.474 . S
C719 C12 1.459 . S
C724 C139 1.474 . S
C749 C239 1.457 . S
C754 C140 1.475 . S
C779 C166 1.475 . S
C784 C41 1.457 . S
C809 C306 1.459 . S
C814 C168 1.475 . S
C839 C85 1.457 . S
C844 C182 1.475 . S
C869 C197 1.474 . S
C874 C334 1.459 . S
C899 C69 1.457 . S
C904 C222 1.475 . S
C929 C225 1.475 . S
C934 C155 1.459 . S
C959 C250 1.474 . S
C964 C336 1.457 . S
C989 C126 1.457 . S
C994 C252 1.474 . S
C1019 C376 1.457 . S
C1024 C266 1.474 . S
C1049 C195 1.459 . S
C1054 C292 1.474 . S
C1079 C433 1.459 . S
C1084 C295 1.475 . S
C1109 C211 1.459 . S
C1114 C320 1.474 . S
C1139 C323 1.475 . S
C1144 C405 1.459 . S
C1169 C55 1.457 . S
C1174 C349 1.474 . S
C1199 C350 1.475 . S
C1204 C236 1.459 . S
C1229 C365 1.474 . S
C1234 C15 1.457 . S
C1259 C379 1.474 . S
C1264 C265 1.457 . S
C1289 C392 1.475 . S
C1294 C82 1.459 . S
C1319 C406 1.475 . S
C1324 C309 1.457 . S
C1349 C420 1.475 . S
C1354 C98 1.459 . S
C1379 C434 1.475 . S
C1384 C281 1.457 . S
C1409 C337 1.677 . S
C1414 C13 1.675 . S
C1439 C14 1.677 . S
C1444 C127 1.677 . S
C1469 C377 1.677 . S
C1474 C40 1.677 . S
C1499 C54 1.677 . S
C1504 C154 1.675 . S
C1529 C404 1.675 . S
C1534 C68 1.677 . S
C1559 C83 1.675 . S
C1564 C194 1.675 . S
C1589 C432 1.675 . S
C1594 C84 1.677 . S
C1619 C99 1.675 . S
C1624 C210 1.675 . S
C1649 C113 1.677 . S
C1654 C237 1.675 . S
C1679 C152 1.675 . S
C1684 C264 1.677 . S
C1709 C180 1.675 . S
C1714 C280 1.677 . S
C1739 C209 1.677 . S
C1744 C308 1.677 . S
C1769 C238 1.677 . S
C1774 C362 1.675 . S
C1799 C391 1.677 . S
C1804 C278 1.677 . S
C1829 C418 1.675 . S
C1834 C307 1.675 . S
C1859 C335 1.675 . S
C1864 C446 1.675 . S
C1889 C0 2.053 . S
C1894 C57 2.054 . S
C1919 C27 2.054 . S
C1924 C70 2.053 . S
C1949 C97 2.054 . S
C1954 C29 2.054 . S
C1979 C43 2.054 . S
C1984 C110 2.053 . S
C2009 C169 2.053 . S
C2014 C124 2.054 . S
C2039 C183 2.053 . S
C2044 C138 2.054 . S
C2069 C141 2.053 . S
C2074 C196 2.054 . S
C2099 C167 2.053 . S
C2104 C223 2.053 . S
C2129 C293 2.054 . S
C2134 C224 2.053 . S
C2159 C294 2.053 . S
C2164 C251 2.054 . S
C2189 C253 2.054 . S
C2194 C321 2.054 . S
C2219 C322 2.053 . S
C2224 C267 2.054 . S
C2249 C393 2.053 . S
C2254 C348 2.054 . S
C2279 C351 2.053 . S
C2284 C407 2.053 . S
C2309 C421 2.053 . S
C2314 C364 2.054 . S
C2339 C378 2.054 . S
C2344 C435 2.053 . S
