# Generated by pormake.
# Topology uop, (4)-cn, num edge types: 1
# Building blocks:
#     Node 0, Type 0, BuildingBlock: CEKHIL_clean_sbu_0, # of connection points: 4
#     Node 1, Type 0, BuildingBlock: CEKHIL_clean_sbu_0, # of connection points: 4
#     Node 2, Type 0, BuildingBlock: CEKHIL_clean_sbu_0, # of connection points: 4
#     Node 3, Type 0, BuildingBlock: CEKHIL_clean_sbu_0, # of connection points: 4
#     Node 4, Type 0, BuildingBlock: CEKHIL_clean_sbu_0, # of connection points: 4
#     Node 5, Type 0, BuildingBlock: CEKHIL_clean_sbu_0, # of connection points: 4
#     Node 6, Type 0, BuildingBlock: CEKHIL_clean_sbu_0, # of connection points: 4
#     Node 7, Type 0, BuildingBlock: CEKHIL_clean_sbu_0, # of connection points: 4
#     Node 8, Type 0, BuildingBlock: CEKHIL_clean_sbu_0, # of connection points: 4
#     Node 9, Type 0, BuildingBlock: CEKHIL_clean_sbu_0, # of connection points: 4
#     Node 10, Type 0, BuildingBlock: CEKHIL_clean_sbu_0, # of connection points: 4
#     Node 11, Type 0, BuildingBlock: CEKHIL_clean_sbu_0, # of connection points: 4
#     Edge 12, Type (0, 0), BuildingBlock: AJUNOK_clean_linker_0, # of connection points: 2
#     Edge 13, Type (0, 0), BuildingBlock: AJUNOK_clean_linker_0, # of connection points: 2
#     Edge 14, Type (0, 0), BuildingBlock: AJUNOK_clean_linker_0, # of connection points: 2
#     Edge 15, Type (0, 0), BuildingBlock: AJUNOK_clean_linker_0, # of connection points: 2
#     Edge 16, Type (0, 0), BuildingBlock: AJUNOK_clean_linker_0, # of connection points: 2
#     Edge 17, Type (0, 0), BuildingBlock: AJUNOK_clean_linker_0, # of connection points: 2
#     Edge 18, Type (0, 0), BuildingBlock: AJUNOK_clean_linker_0, # of connection points: 2
#     Edge 19, Type (0, 0), BuildingBlock: AJUNOK_clean_linker_0, # of connection points: 2
#     Edge 20, Type (0, 0), BuildingBlock: AJUNOK_clean_linker_0, # of connection points: 2
#     Edge 21, Type (0, 0), BuildingBlock: AJUNOK_clean_linker_0, # of connection points: 2
#     Edge 22, Type (0, 0), BuildingBlock: AJUNOK_clean_linker_0, # of connection points: 2
#     Edge 23, Type (0, 0), BuildingBlock: AJUNOK_clean_linker_0, # of connection points: 2
#     Edge 24, Type (0, 0), BuildingBlock: AJUNOK_clean_linker_0, # of connection points: 2
#     Edge 25, Type (0, 0), BuildingBlock: AJUNOK_clean_linker_0, # of connection points: 2
#     Edge 26, Type (0, 0), BuildingBlock: AJUNOK_clean_linker_0, # of connection points: 2
#     Edge 27, Type (0, 0), BuildingBlock: AJUNOK_clean_linker_0, # of connection points: 2
#     Edge 28, Type (0, 0), BuildingBlock: AJUNOK_clean_linker_0, # of connection points: 2
#     Edge 29, Type (0, 0), BuildingBlock: AJUNOK_clean_linker_0, # of connection points: 2
#     Edge 30, Type (0, 0), BuildingBlock: AJUNOK_clean_linker_0, # of connection points: 2
#     Edge 31, Type (0, 0), BuildingBlock: AJUNOK_clean_linker_0, # of connection points: 2
#     Edge 32, Type (0, 0), BuildingBlock: AJUNOK_clean_linker_0, # of connection points: 2
#     Edge 33, Type (0, 0), BuildingBlock: AJUNOK_clean_linker_0, # of connection points: 2
#     Edge 34, Type (0, 0), BuildingBlock: AJUNOK_clean_linker_0, # of connection points: 2
#     Edge 35, Type (0, 0), BuildingBlock: AJUNOK_clean_linker_0, # of connection points: 2
# Relax obj value: 0.153
# Max RMSD: 0.167
# Mean RMSD: 0.162
data_MOF--net-uop--node1-CEKHIL_clean_sbu_0--edge1-AJUNOK_clean_linker_0
_symmetry_space_group_name_H-M    P1
_symmetry_Int_Tables_number       1
_symmetry_cell_setting            triclinic
loop_
_symmetry_equiv_pos_as_xyz
'x, y, z'
_cell_length_a     24.406978
_cell_length_b     23.513509
_cell_length_c     32.601006
_cell_angle_alpha  90.021493
_cell_angle_beta   89.983573
_cell_angle_gamma 121.27897
loop_
_atom_site_label
_atom_site_type_symbol
_atom_site_fract_x
_atom_site_fract_y
_atom_site_fract_z
_atom_type_partial_charge
Co0 Co 0.22592 0.37772 0.22249 0.0
O1 O 0.13715 0.33105 0.2368 0.0
O2 O 0.1746 0.32341 0.17658 0.0
C3 C 0.26003 0.35464 0.27999 0.0
O4 O 0.3171 0.41893 0.19969 0.0
Co5 Co 0.31339 0.50126 0.27675 0.0
O6 O 0.38141 0.50295 0.24276 0.0
C7 C 0.23287 0.5108 0.21451 0.0
C8 C 0.12529 0.30536 0.20048 0.0
C9 C 0.37283 0.46659 0.2115 0.0
O10 O 0.21929 0.45376 0.20097 0.0
O11 O 0.26467 0.5363 0.24751 0.0
O12 O 0.23685 0.31169 0.25029 0.0
O13 O 0.2542 0.40596 0.27601 0.0
Co14 Co 0.84856 0.25406 0.53043 0.0
O15 O 0.92564 0.26677 0.55436 0.0
O16 O 0.8638 0.30052 0.58168 0.0
C17 C 0.80426 0.14634 0.51459 0.0
O18 O 0.76508 0.24762 0.5154 0.0
Co19 Co 0.82526 0.22764 0.43862 0.0
O20 O 0.73774 0.20824 0.45127 0.0
C21 C 0.91649 0.36295 0.46488 0.0
C22 C 0.91478 0.29633 0.58412 0.0
C23 C 0.72528 0.22557 0.48531 0.0
O24 O 0.89973 0.3414 0.50158 0.0
O25 O 0.89471 0.32475 0.43354 0.0
O26 O 0.80026 0.16479 0.55141 0.0
O27 O 0.84154 0.19387 0.48934 0.0
Co28 Co 0.60683 0.84688 0.86859 0.0
O29 O 0.65916 0.81223 0.88416 0.0
O30 O 0.6546 0.84528 0.82136 0.0
C31 C 0.63232 0.91633 0.92149 0.0
O32 O 0.55855 0.88825 0.84382 0.0
Co33 Co 0.49418 0.81307 0.92755 0.0
O34 O 0.48373 0.87342 0.89043 0.0
C35 C 0.48244 0.71094 0.87135 0.0
C36 C 0.67864 0.82076 0.84658 0.0
C37 C 0.51324 0.89679 0.85658 0.0
O38 O 0.53485 0.75503 0.85429 0.0
O39 O 0.4609 0.72217 0.90419 0.0
O40 O 0.66953 0.93392 0.88964 0.0
O41 O 0.58619 0.85479 0.9226 0.0
Co42 Co 0.7661 0.6084 0.22498 0.0
O43 O 0.85572 0.65969 0.23752 0.0
O44 O 0.81407 0.65706 0.17679 0.0
C45 C 0.73131 0.63585 0.2805 0.0
O46 O 0.67412 0.56158 0.20295 0.0
Co47 Co 0.68303 0.49009 0.28324 0.0
O48 O 0.61247 0.47991 0.24791 0.0
C49 C 0.76576 0.47825 0.22426 0.0
C50 C 0.865 0.67925 0.19971 0.0
C51 C 0.61925 0.51341 0.21554 0.0
O52 O 0.77549 0.53214 0.20769 0.0
O53 O 0.73489 0.45551 0.25784 0.0
O54 O 0.75301 0.67557 0.24912 0.0
O55 O 0.7397 0.58585 0.27952 0.0
Co56 Co 0.15094 0.75884 0.53432 0.0
O57 O 0.07474 0.74775 0.55849 0.0
O58 O 0.13436 0.7105 0.58509 0.0
C59 C 0.1961 0.86737 0.51946 0.0
O60 O 0.23375 0.764 0.51882 0.0
Co61 Co 0.17383 0.78733 0.44267 0.0
O62 O 0.2597 0.80099 0.4541 0.0
C63 C 0.08503 0.65076 0.4678 0.0
C64 C 0.08458 0.71677 0.58773 0.0
C65 C 0.27222 0.78343 0.48806 0.0
O66 O 0.09976 0.67207 0.50473 0.0
O67 O 0.10616 0.68972 0.4368 0.0
O68 O 0.20031 0.84795 0.55594 0.0
O69 O 0.15857 0.82033 0.49404 0.0
Co70 Co 0.37732 0.15438 0.87165 0.0
O71 O 0.32979 0.19409 0.88858 0.0
O72 O 0.32759 0.15688 0.82594 0.0
C73 C 0.35208 0.08599 0.92505 0.0
O74 O 0.41961 0.1076 0.84554 0.0
Co75 Co 0.49173 0.18298 0.92795 0.0
O76 O 0.49704 0.1208 0.88946 0.0
C77 C 0.50592 0.28602 0.87164 0.0
C78 C 0.30708 0.1842 0.85175 0.0
C79 C 0.46471 0.09758 0.85651 0.0
O80 O 0.45193 0.24381 0.85525 0.0
O81 O 0.52743 0.27388 0.90411 0.0
O82 O 0.31286 0.06944 0.89436 0.0
O83 O 0.40033 0.14644 0.9251 0.0
Co84 Co 0.60518 0.7525 0.469 0.0
O85 O 0.67343 0.745 0.44637 0.0
O86 O 0.5755 0.69972 0.41973 0.0
C87 C 0.66382 0.86235 0.48058 0.0
O88 O 0.5244 0.75326 0.48236 0.0
Co89 Co 0.60694 0.78806 0.55901 0.0
O90 O 0.53776 0.80399 0.54291 0.0
C91 C 0.56962 0.65181 0.53928 0.0
C92 C 0.63316 0.70999 0.41764 0.0
C93 C 0.50679 0.77991 0.50969 0.0
O94 O 0.57537 0.66921 0.50152 0.0
O95 O 0.58207 0.69262 0.5688 0.0
O96 O 0.64025 0.83914 0.44455 0.0
O97 O 0.65649 0.81851 0.50791 0.0
Co98 Co 0.84439 0.61912 0.7767 0.0
O99 O 0.80435 0.66701 0.76011 0.0
O100 O 0.84185 0.67027 0.82242 0.0
C101 C 0.90953 0.64486 0.72285 0.0
O102 O 0.89134 0.57704 0.80262 0.0
Co103 Co 0.81477 0.49814 0.7226 0.0
O104 O 0.87606 0.49387 0.76033 0.0
C105 C 0.71661 0.48631 0.77839 0.0
C106 C 0.81333 0.68975 0.79721 0.0
C107 C 0.90056 0.52967 0.79224 0.0
O108 O 0.7589 0.54212 0.79406 0.0
O109 O 0.72703 0.46244 0.74611 0.0
O110 O 0.92482 0.68641 0.75306 0.0
O111 O 0.85163 0.59377 0.72346 0.0
Co112 Co 0.22329 0.83583 0.11387 0.0
O113 O 0.13412 0.79473 0.1014 0.0
O114 O 0.17638 0.83459 0.16239 0.0
C115 C 0.25978 0.90177 0.05888 0.0
O116 O 0.31533 0.88424 0.13543 0.0
Co117 Co 0.30311 0.80554 0.05268 0.0
O118 O 0.37483 0.87134 0.08733 0.0
C119 C 0.22308 0.70553 0.11364 0.0
C120 C 0.1256 0.80569 0.13903 0.0
C121 C 0.36937 0.89541 0.12109 0.0
O122 O 0.21107 0.74754 0.13005 0.0
O123 O 0.25404 0.71662 0.08002 0.0
O124 O 0.24038 0.91948 0.0908 0.0
O125 O 0.24823 0.84157 0.0592 0.0
Co126 Co 0.3953 0.26041 0.47282 0.0
O127 O 0.32974 0.2746 0.45311 0.0
O128 O 0.42338 0.30976 0.42223 0.0
C129 C 0.33099 0.15159 0.48616 0.0
O130 O 0.47215 0.25152 0.48319 0.0
Co131 Co 0.39652 0.22727 0.56315 0.0
O132 O 0.46219 0.20664 0.5455 0.0
C133 C 0.44669 0.36577 0.54133 0.0
C134 C 0.36753 0.30423 0.42226 0.0
C135 C 0.49015 0.22584 0.5109 0.0
O136 O 0.43612 0.34618 0.50394 0.0
O137 O 0.43038 0.32545 0.57157 0.0
O138 O 0.35173 0.17263 0.44941 0.0
O139 O 0.3438 0.19748 0.51341 0.0
Co140 Co 0.14339 0.38323 0.77783 0.0
O141 O 0.17567 0.32738 0.76324 0.0
O142 O 0.13986 0.33118 0.82497 0.0
C143 C 0.08167 0.36259 0.72288 0.0
O144 O 0.1042 0.43463 0.80172 0.0
Co145 Co 0.18449 0.5047 0.7209 0.0
O146 O 0.12428 0.51552 0.75616 0.0
C147 C 0.27734 0.50743 0.77805 0.0
C148 C 0.16564 0.30707 0.80088 0.0
C149 C 0.09834 0.48322 0.78907 0.0
O150 O 0.23162 0.45501 0.79505 0.0
O151 O 0.27023 0.53187 0.74487 0.0
O152 O 0.06053 0.32155 0.75366 0.0
O153 O 0.14151 0.40874 0.72401 0.0
Co154 Co 0.76828 0.15141 0.11695 0.0
O155 O 0.85745 0.18993 0.10553 0.0
O156 O 0.81183 0.14584 0.16519 0.0
C157 C 0.73151 0.09111 0.05981 0.0
O158 O 0.67556 0.10499 0.13721 0.0
Co159 Co 0.69512 0.19327 0.05779 0.0
O160 O 0.62068 0.12722 0.09053 0.0
C161 C 0.775 0.2848 0.12245 0.0
C162 C 0.86374 0.17569 0.14287 0.0
C163 C 0.62326 0.09881 0.12318 0.0
O164 O 0.78402 0.23949 0.13667 0.0
O165 O 0.74614 0.27888 0.08854 0.0
O166 O 0.74835 0.06887 0.09078 0.0
O167 O 0.74594 0.1522 0.06235 0.0
C168 C 0.20994 0.65104 0.18136 0.0
C169 C 0.21049 0.64719 0.13825 0.0
C170 C 0.21379 0.60456 0.20599 0.0
C171 C 0.21716 0.55187 0.18848 0.0
H172 H 0.21098 0.69274 0.19632 0.0
H173 H 0.21677 0.61159 0.23894 0.0
S174 S 0.20937 0.51343 0.07726 0.0
N175 N 0.20698 0.58225 0.07919 0.0
N176 N 0.21323 0.49408 0.1254 0.0
C177 C 0.21208 0.54413 0.1455 0.0
C178 C 0.20901 0.59204 0.12041 0.0
C179 C 0.63985 0.21967 0.53026 0.0
C180 C 0.66333 0.22183 0.49054 0.0
C181 C 0.58294 0.21917 0.53646 0.0
C182 C 0.54763 0.22168 0.50315 0.0
H183 H 0.66578 0.21866 0.55697 0.0
H184 H 0.56747 0.21852 0.56769 0.0
S185 S 0.58684 0.22499 0.39278 0.0
N186 N 0.64568 0.22421 0.4172 0.0
N187 N 0.53869 0.22358 0.42886 0.0
C188 C 0.56979 0.22249 0.46319 0.0
C189 C 0.62755 0.22239 0.45683 0.0
C190 C 0.38406 0.59791 0.86773 0.0
C191 C 0.43965 0.64879 0.84852 0.0
C192 C 0.33372 0.54798 0.84472 0.0
C193 C 0.33692 0.54764 0.80164 0.0
H194 H 0.37735 0.59909 0.90051 0.0
H195 H 0.29003 0.51289 0.86065 0.0
S196 S 0.47787 0.65872 0.73733 0.0
N197 N 0.49985 0.6875 0.78443 0.0
N198 N 0.40416 0.59405 0.74131 0.0
C199 C 0.39483 0.59333 0.78246 0.0
C200 C 0.44662 0.64376 0.80591 0.0
C201 C 0.78912 0.44459 0.15723 0.0
C202 C 0.78298 0.43655 0.20013 0.0
C203 C 0.79172 0.39774 0.1323 0.0
C204 C 0.78923 0.34157 0.1493 0.0
H205 H 0.78753 0.48491 0.14237 0.0
H206 H 0.79214 0.40378 0.09933 0.0
S207 S 0.78721 0.30524 0.26048 0.0
N208 N 0.78448 0.3739 0.25897 0.0
N209 N 0.79031 0.28594 0.2122 0.0
C210 C 0.78993 0.33663 0.19241 0.0
C211 C 0.78641 0.38403 0.21781 0.0
C212 C 0.41651 0.79034 0.53654 0.0
C213 C 0.44756 0.78143 0.50295 0.0
C214 C 0.36003 0.79113 0.53134 0.0
C215 C 0.33279 0.78401 0.49228 0.0
H216 H 0.43544 0.79593 0.5673 0.0
H217 H 0.33773 0.79771 0.5582 0.0
S218 S 0.39548 0.76023 0.3941 0.0
N219 N 0.44702 0.76593 0.42905 0.0
N220 N 0.34096 0.76783 0.41931 0.0
C221 C 0.36359 0.77581 0.4583 0.0
C222 C 0.42084 0.77429 0.46363 0.0
C223 C 0.55241 0.34061 0.80488 0.0
C224 C 0.55066 0.34562 0.8478 0.0
C225 C 0.60459 0.38876 0.78212 0.0
C226 C 0.65635 0.44415 0.80139 0.0
H227 H 0.5158 0.29665 0.78904 0.0
H228 H 0.60578 0.38067 0.7495 0.0
S229 S 0.66775 0.48656 0.91221 0.0
N230 N 0.59997 0.41426 0.90803 0.0
N231 N 0.6976 0.50602 0.86538 0.0
C232 C 0.65181 0.45307 0.84381 0.0
C233 C 0.59907 0.40339 0.86701 0.0
C234 C 0.50546 0.43483 0.19637 0.0
C235 C 0.55906 0.50032 0.19599 0.0
C236 C 0.44276 0.42258 0.19456 0.0
C237 C 0.43191 0.47557 0.19286 0.0
H238 H 0.51183 0.39328 0.20232 0.0
H239 H 0.40311 0.3723 0.19974 0.0
S240 S 0.55529 0.65446 0.18175 0.0
N241 N 0.59687 0.61738 0.18604 0.0
N242 N 0.47906 0.59446 0.18329 0.0
C243 C 0.48488 0.54024 0.18684 0.0
C244 C 0.54866 0.55265 0.1882 0.0
C245 C 0.04386 0.53718 0.49512 0.0
C246 C 0.04515 0.57728 0.46263 0.0
C247 C 0.00431 0.46822 0.49415 0.0
C248 C 0.96365 0.43532 0.46069 0.0
H249 H 0.0732 0.55915 0.52219 0.0
H250 H 0.00484 0.44052 0.52058 0.0
S251 S 0.95144 0.51591 0.36617 0.0
N252 N 0.00484 0.57859 0.39459 0.0
N253 N 0.92942 0.44759 0.39291 0.0
C254 C 0.96622 0.474 0.42693 0.0
C255 C 0.00713 0.54521 0.42789 0.0
C256 C 0.42359 0.98187 0.83489 0.0
C257 C 0.47416 0.04847 0.83473 0.0
C258 C 0.43624 0.93013 0.83566 0.0
C259 C 0.49968 0.94366 0.83546 0.0
H260 H 0.37489 0.96988 0.84012 0.0
H261 H 0.39667 0.87996 0.84128 0.0
S262 S 0.64682 0.10907 0.82235 0.0
N263 N 0.58834 0.12477 0.82523 0.0
N264 N 0.61207 0.02733 0.8254 0.0
C265 C 0.5495 0.00925 0.82806 0.0
C266 C 0.53669 0.06194 0.82805 0.0
C267 C 0.5614 0.54675 0.51783 0.0
C268 C 0.5465 0.58068 0.54704 0.0
C269 C 0.53103 0.47761 0.5181 0.0
C270 C 0.4843 0.43883 0.54762 0.0
H271 H 0.59506 0.5737 0.4933 0.0
H272 H 0.5428 0.45413 0.49387 0.0
S273 S 0.43273 0.5033 0.63375 0.0
N274 N 0.48582 0.57081 0.60862 0.0
N275 N 0.42854 0.43958 0.60922 0.0
C276 C 0.47206 0.47196 0.57893 0.0
C277 C 0.50323 0.54322 0.57862 0.0
C278 C 0.01429 0.57559 0.80884 0.0
C279 C 0.95063 0.52271 0.81252 0.0
C280 C 0.06466 0.56334 0.80698 0.0
C281 C 0.05285 0.49803 0.80932 0.0
H282 H 0.02447 0.62521 0.8018 0.0
H283 H 0.11209 0.60433 0.79921 0.0
S284 S 0.89642 0.34583 0.83159 0.0
N285 N 0.87976 0.40528 0.8273 0.0
N286 N 0.97474 0.3824 0.82511 0.0
C287 C 0.99082 0.44658 0.81987 0.0
C288 C 0.93943 0.45894 0.82108 0.0
C289 C 0.47984 0.93154 0.14338 0.0
C290 C 0.43018 0.94519 0.14049 0.0
C291 C 0.54436 0.98316 0.14418 0.0
C292 C 0.56088 0.0498 0.14129 0.0
H293 H 0.46901 0.88077 0.14072 0.0
H294 H 0.5811 0.97052 0.14191 0.0
S295 S 0.44876 0.11169 0.14111 0.0
N296 N 0.40166 0.02984 0.14153 0.0
N297 N 0.52291 0.12701 0.14219 0.0
C298 C 0.51162 0.06402 0.14353 0.0
C299 C 0.44604 0.01152 0.14338 0.0
C300 C 0.33883 0.39556 0.33771 0.0
C301 C 0.28759 0.34252 0.31645 0.0
C302 C 0.36651 0.3834 0.37176 0.0
C303 C 0.34227 0.31813 0.38567 0.0
H304 H 0.35814 0.44638 0.32763 0.0
H305 H 0.40603 0.42495 0.38763 0.0
S306 S 0.2088 0.1628 0.34118 0.0
N307 N 0.21428 0.2227 0.31177 0.0
N308 N 0.26516 0.20044 0.37632 0.0
C309 C 0.29109 0.26508 0.36489 0.0
C310 C 0.26394 0.27713 0.33003 0.0
C311 C 0.02285 0.34171 0.61431 0.0
C312 C 0.95811 0.32186 0.61953 0.0
C313 C 0.06379 0.35861 0.64802 0.0
C314 C 0.04064 0.35431 0.68795 0.0
H315 H 0.04168 0.34284 0.58401 0.0
H316 H 0.11292 0.37183 0.64295 0.0
S317 S 0.87717 0.31168 0.71783 0.0
N318 N 0.87435 0.30483 0.66734 0.0
N319 N 0.95111 0.33423 0.73102 0.0
C320 C 0.97692 0.33733 0.69356 0.0
C321 C 0.93561 0.32179 0.65917 0.0
C322 C 0.63646 0.93618 0.99634 0.0
C323 C 0.64776 0.96158 0.95629 0.0
C324 C 0.66189 0.97901 0.02997 0.0
C325 C 0.69806 0.04839 0.02452 0.0
H326 H 0.61118 0.88298 0.00164 0.0
H327 H 0.65474 0.95756 0.06035 0.0
S328 S 0.73268 0.13933 0.92604 0.0
N329 N 0.69183 0.05991 0.91302 0.0
N330 N 0.73815 0.14071 0.97657 0.0
C331 C 0.70537 0.07444 0.98487 0.0
C332 C 0.68059 0.03081 0.95056 0.0
C333 C 0.70467 0.73701 0.35839 0.0
C334 C 0.65467 0.68846 0.38243 0.0
C335 C 0.72854 0.71891 0.32526 0.0
C336 C 0.70448 0.65164 0.31593 0.0
H337 H 0.72521 0.78939 0.36513 0.0
H338 H 0.76692 0.75801 0.30722 0.0
S339 S 0.57353 0.50578 0.37044 0.0
N340 N 0.58089 0.57083 0.39511 0.0
N341 N 0.62776 0.53619 0.33346 0.0
C342 C 0.65472 0.60246 0.3401 0.0
C343 C 0.62915 0.62109 0.37327 0.0
C344 C 0.04362 0.7444 0.64837 0.0
C345 C 0.04351 0.69549 0.62385 0.0
C346 C 0.00049 0.72683 0.68075 0.0
C347 C 0.95465 0.65978 0.68894 0.0
H348 H 0.07685 0.79669 0.64214 0.0
H349 H 0.00204 0.76635 0.69881 0.0
S350 S 0.93644 0.51303 0.63363 0.0
N351 N 0.99628 0.57766 0.60996 0.0
N352 N 0.91308 0.54404 0.67052 0.0
C353 C 0.95446 0.61019 0.66473 0.0
C354 C -0.00039 0.62825 0.63218 0.0
C355 C 0.32353 0.0169 0.03193 0.0
C356 C 0.29202 0.94796 0.02473 0.0
C357 C 0.34731 0.06219 -0.00061 0.0
C358 C 0.33884 0.03958 0.95877 0.0
H359 H 0.32821 0.03593 0.06282 0.0
H360 H 0.36892 0.11476 0.00594 0.0
S361 S 0.26714 0.86509 0.92391 0.0
N362 N 0.25998 0.85983 0.97437 0.0
N363 N 0.30287 0.94516 0.91299 0.0
C364 C 0.31079 0.97123 0.95127 0.0
C365 C 0.28787 0.92521 0.98441 0.0
C366 C 0.98012 0.22071 0.13112 0.0
C367 C 0.92854 0.19792 0.15889 0.0
C368 C 0.04369 0.25203 0.1448 0.0
C369 C 0.05809 0.2621 0.18678 0.0
H370 H 0.97164 0.21657 0.09834 0.0
H371 H 0.08178 0.27131 0.12223 0.0
S372 S 0.94018 0.20434 0.27231 0.0
N373 N 0.89587 0.18208 0.23038 0.0
N374 N 0.01517 0.24062 0.25637 0.0
C375 C 0.00674 0.23575 0.21501 0.0
C376 C 0.94197 0.20364 0.20101 0.0
C377 C 0.74715 0.02761 0.53649 0.0
C378 C 0.77071 0.07466 0.50437 0.0
C379 C 0.7134 0.95913 0.52859 0.0
C380 C 0.70105 0.93493 0.48826 0.0
H381 H 0.75485 0.04368 0.5682 0.0
H382 H 0.69607 0.92499 0.55431 0.0
S383 S 0.75309 0.03716 0.39313 0.0
N384 N 0.78029 0.0922 0.43072 0.0
N385 N 0.7161 0.96348 0.41554 0.0
C386 C 0.72462 0.9814 0.45575 0.0
C387 C 0.75972 0.05126 0.46388 0.0
C388 C 0.75539 0.74861 0.78079 0.0
C389 C 0.78757 0.73186 0.80988 0.0
C390 C 0.72327 0.78109 0.79236 0.0
C391 C 0.72199 0.79785 0.83347 0.0
H392 H 0.7529 0.73444 0.74891 0.0
H393 H 0.69672 0.7901 0.76928 0.0
S394 S 0.8061 0.77372 0.92062 0.0
N395 N 0.82144 0.74069 0.88087 0.0
N396 N 0.76145 0.80203 0.90274 0.0
C397 C 0.75732 0.78524 0.86246 0.0
C398 C 0.79004 0.75218 0.85064 0.0
C399 C 0.9835 0.74196 0.21079 0.0
C400 C 0.93125 0.71994 0.18364 0.0
C401 C 0.04671 0.77271 0.1964 0.0
C402 C 0.06008 0.78232 0.15427 0.0
H403 H 0.97555 0.73347 0.24349 0.0
H404 H 0.08493 0.78637 0.21833 0.0
S405 S 0.94161 0.74163 0.07069 0.0
N406 N 0.89798 0.71567 0.1129 0.0
N407 N 0.01657 0.77352 0.0857 0.0
C408 C 0.00871 0.76404 0.12693 0.0
C409 C 0.94436 0.7329 0.14163 0.0
C410 C 0.25863 0.98635 0.54182 0.0
C411 C 0.22817 0.93936 0.51 0.0
C412 C 0.29018 0.055 0.53431 0.0
C413 C 0.29312 0.07927 0.49462 0.0
H414 H 0.25843 0.97014 0.57294 0.0
H415 H 0.31373 0.08917 0.55956 0.0
S416 S 0.21858 0.9776 0.4009 0.0
N417 N 0.20101 0.92236 0.43759 0.0
N418 N 0.26049 0.05107 0.42321 0.0
C419 C 0.26193 0.03291 0.4626 0.0
C420 C 0.22941 0.96305 0.47035 0.0
C421 C 0.21281 0.23717 0.78659 0.0
C422 C 0.19061 0.26525 0.81553 0.0
C423 C 0.24796 0.2082 0.79861 0.0
C424 C 0.26243 0.20635 0.84004 0.0
H425 H 0.20529 0.23993 0.75408 0.0
H426 H 0.26615 0.18975 0.77508 0.0
S427 S 0.20826 0.26508 0.92843 0.0
N428 N 0.18034 0.28358 0.88772 0.0
N429 N 0.24595 0.22882 0.91062 0.0
C430 C 0.23687 0.23028 0.86958 0.0
C431 C 0.20095 0.25969 0.85726 0.0
loop_
_geom_bond_atom_site_label_1
_geom_bond_atom_site_label_2
_geom_bond_distance
_geom_bond_site_symmetry_2
_ccdc_geom_bond_type
Co0 O1 2.216 . S
Co0 O2 2.091 . S
Co0 O4 2.004 . S
Co0 O10 2.021 . S
Co0 O12 2.137 . S
Co0 O13 2.244 . S
O1 Co0 2.216 . S
O1 C8 1.247 . S
O2 Co0 2.091 . S
O2 C8 1.261 . S
C3 O12 1.247 . S
C3 O13 1.272 . S
O4 Co0 2.004 . S
O4 C9 1.259 . S
Co5 O6 2.061 . S
Co5 O11 2.052 . S
Co5 O13 2.135 . S
O6 Co5 2.061 . S
O6 C9 1.235 . S
C7 O10 1.238 . S
C7 O11 1.241 . S
C8 O1 1.247 . S
C8 O2 1.261 . S
C9 O4 1.259 . S
C9 O6 1.235 . S
O10 Co0 2.021 . S
O10 C7 1.238 . S
O11 Co5 2.052 . S
O11 C7 1.241 . S
O12 Co0 2.137 . S
O12 C3 1.247 . S
O13 Co0 2.244 . S
O13 C3 1.272 . S
O13 Co5 2.135 . S
Co14 O15 2.216 . S
Co14 O16 2.091 . S
Co14 O18 2.004 . S
Co14 O24 2.021 . S
Co14 O26 2.137 . S
Co14 O27 2.244 . S
O15 Co14 2.216 . S
O15 C22 1.247 . S
O16 Co14 2.091 . S
O16 C22 1.261 . S
C17 O26 1.247 . S
C17 O27 1.272 . S
O18 Co14 2.004 . S
O18 C23 1.259 . S
Co19 O20 2.061 . S
Co19 O25 2.052 . S
Co19 O27 2.135 . S
O20 Co19 2.061 . S
O20 C23 1.235 . S
C21 O24 1.238 . S
C21 O25 1.241 . S
C22 O15 1.247 . S
C22 O16 1.261 . S
C23 O18 1.259 . S
C23 O20 1.235 . S
O24 Co14 2.021 . S
O24 C21 1.238 . S
O25 Co19 2.052 . S
O25 C21 1.241 . S
O26 Co14 2.137 . S
O26 C17 1.247 . S
O27 Co14 2.244 . S
O27 C17 1.272 . S
O27 Co19 2.135 . S
Co28 O29 2.216 . S
Co28 O30 2.091 . S
Co28 O32 2.004 . S
Co28 O38 2.021 . S
Co28 O40 2.137 . S
Co28 O41 2.244 . S
O29 Co28 2.216 . S
O29 C36 1.247 . S
O30 Co28 2.091 . S
O30 C36 1.261 . S
C31 O40 1.247 . S
C31 O41 1.272 . S
O32 Co28 2.004 . S
O32 C37 1.259 . S
Co33 O34 2.061 . S
Co33 O39 2.052 . S
Co33 O41 2.135 . S
O34 Co33 2.061 . S
O34 C37 1.235 . S
C35 O38 1.238 . S
C35 O39 1.241 . S
C36 O29 1.247 . S
C36 O30 1.261 . S
C37 O32 1.259 . S
C37 O34 1.235 . S
O38 Co28 2.021 . S
O38 C35 1.238 . S
O39 Co33 2.052 . S
O39 C35 1.241 . S
O40 Co28 2.137 . S
O40 C31 1.247 . S
O41 Co28 2.244 . S
O41 C31 1.272 . S
O41 Co33 2.135 . S
Co42 O43 2.216 . S
Co42 O44 2.091 . S
Co42 O46 2.004 . S
Co42 O52 2.021 . S
Co42 O54 2.137 . S
Co42 O55 2.244 . S
O43 Co42 2.216 . S
O43 C50 1.247 . S
O44 Co42 2.091 . S
O44 C50 1.261 . S
C45 O54 1.247 . S
C45 O55 1.272 . S
O46 Co42 2.004 . S
O46 C51 1.259 . S
Co47 O48 2.061 . S
Co47 O53 2.052 . S
Co47 O55 2.135 . S
O48 Co47 2.061 . S
O48 C51 1.235 . S
C49 O52 1.238 . S
C49 O53 1.241 . S
C50 O43 1.247 . S
C50 O44 1.261 . S
C51 O46 1.259 . S
C51 O48 1.235 . S
O52 Co42 2.021 . S
O52 C49 1.238 . S
O53 Co47 2.052 . S
O53 C49 1.241 . S
O54 Co42 2.137 . S
O54 C45 1.247 . S
O55 Co42 2.244 . S
O55 C45 1.272 . S
O55 Co47 2.135 . S
Co56 O57 2.216 . S
Co56 O58 2.091 . S
Co56 O60 2.004 . S
Co56 O66 2.021 . S
Co56 O68 2.137 . S
Co56 O69 2.244 . S
O57 Co56 2.216 . S
O57 C64 1.247 . S
O58 Co56 2.091 . S
O58 C64 1.261 . S
C59 O68 1.247 . S
C59 O69 1.272 . S
O60 Co56 2.004 . S
O60 C65 1.259 . S
Co61 O62 2.061 . S
Co61 O67 2.052 . S
Co61 O69 2.135 . S
O62 Co61 2.061 . S
O62 C65 1.235 . S
C63 O66 1.238 . S
C63 O67 1.241 . S
C64 O57 1.247 . S
C64 O58 1.261 . S
C65 O60 1.259 . S
C65 O62 1.235 . S
O66 Co56 2.021 . S
O66 C63 1.238 . S
O67 Co61 2.052 . S
O67 C63 1.241 . S
O68 Co56 2.137 . S
O68 C59 1.247 . S
O69 Co56 2.244 . S
O69 C59 1.272 . S
O69 Co61 2.135 . S
Co70 O71 2.216 . S
Co70 O72 2.091 . S
Co70 O74 2.004 . S
Co70 O80 2.021 . S
Co70 O82 2.137 . S
Co70 O83 2.244 . S
O71 Co70 2.216 . S
O71 C78 1.247 . S
O72 Co70 2.091 . S
O72 C78 1.261 . S
C73 O82 1.247 . S
C73 O83 1.272 . S
O74 Co70 2.004 . S
O74 C79 1.259 . S
Co75 O76 2.061 . S
Co75 O81 2.052 . S
Co75 O83 2.135 . S
O76 Co75 2.061 . S
O76 C79 1.235 . S
C77 O80 1.238 . S
C77 O81 1.241 . S
C78 O71 1.247 . S
C78 O72 1.261 . S
C79 O74 1.259 . S
C79 O76 1.235 . S
O80 Co70 2.021 . S
O80 C77 1.238 . S
O81 Co75 2.052 . S
O81 C77 1.241 . S
O82 Co70 2.137 . S
O82 C73 1.247 . S
O83 Co70 2.244 . S
O83 C73 1.272 . S
O83 Co75 2.135 . S
Co84 O85 2.216 . S
Co84 O86 2.091 . S
Co84 O88 2.004 . S
Co84 O94 2.021 . S
Co84 O96 2.137 . S
Co84 O97 2.244 . S
O85 Co84 2.216 . S
O85 C92 1.247 . S
O86 Co84 2.091 . S
O86 C92 1.261 . S
C87 O96 1.247 . S
C87 O97 1.272 . S
O88 Co84 2.004 . S
O88 C93 1.259 . S
Co89 O90 2.061 . S
Co89 O95 2.052 . S
Co89 O97 2.135 . S
O90 Co89 2.061 . S
O90 C93 1.235 . S
C91 O94 1.238 . S
C91 O95 1.241 . S
C92 O85 1.247 . S
C92 O86 1.261 . S
C93 O88 1.259 . S
C93 O90 1.235 . S
O94 Co84 2.021 . S
O94 C91 1.238 . S
O95 Co89 2.052 . S
O95 C91 1.241 . S
O96 Co84 2.137 . S
O96 C87 1.247 . S
O97 Co84 2.244 . S
O97 C87 1.272 . S
O97 Co89 2.135 . S
Co98 O99 2.216 . S
Co98 O100 2.091 . S
Co98 O102 2.004 . S
Co98 O108 2.021 . S
Co98 O110 2.137 . S
Co98 O111 2.244 . S
O99 Co98 2.216 . S
O99 C106 1.247 . S
O100 Co98 2.091 . S
O100 C106 1.261 . S
C101 O110 1.247 . S
C101 O111 1.272 . S
O102 Co98 2.004 . S
O102 C107 1.259 . S
Co103 O104 2.061 . S
Co103 O109 2.052 . S
Co103 O111 2.135 . S
O104 Co103 2.061 . S
O104 C107 1.235 . S
C105 O108 1.238 . S
C105 O109 1.241 . S
C106 O99 1.247 . S
C106 O100 1.261 . S
C107 O102 1.259 . S
C107 O104 1.235 . S
O108 Co98 2.021 . S
O108 C105 1.238 . S
O109 Co103 2.052 . S
O109 C105 1.241 . S
O110 Co98 2.137 . S
O110 C101 1.247 . S
O111 Co98 2.244 . S
O111 C101 1.272 . S
O111 Co103 2.135 . S
Co112 O113 2.216 . S
Co112 O114 2.091 . S
Co112 O116 2.004 . S
Co112 O122 2.021 . S
Co112 O124 2.137 . S
Co112 O125 2.244 . S
O113 Co112 2.216 . S
O113 C120 1.247 . S
O114 Co112 2.091 . S
O114 C120 1.261 . S
C115 O124 1.247 . S
C115 O125 1.272 . S
O116 Co112 2.004 . S
O116 C121 1.259 . S
Co117 O118 2.061 . S
Co117 O123 2.052 . S
Co117 O125 2.135 . S
O118 Co117 2.061 . S
O118 C121 1.235 . S
C119 O122 1.238 . S
C119 O123 1.241 . S
C120 O113 1.247 . S
C120 O114 1.261 . S
C121 O116 1.259 . S
C121 O118 1.235 . S
O122 Co112 2.021 . S
O122 C119 1.238 . S
O123 Co117 2.052 . S
O123 C119 1.241 . S
O124 Co112 2.137 . S
O124 C115 1.247 . S
O125 Co112 2.244 . S
O125 C115 1.272 . S
O125 Co117 2.135 . S
Co126 O127 2.216 . S
Co126 O128 2.091 . S
Co126 O130 2.004 . S
Co126 O136 2.021 . S
Co126 O138 2.137 . S
Co126 O139 2.244 . S
O127 Co126 2.216 . S
O127 C134 1.247 . S
O128 Co126 2.091 . S
O128 C134 1.261 . S
C129 O138 1.247 . S
C129 O139 1.272 . S
O130 Co126 2.004 . S
O130 C135 1.259 . S
Co131 O132 2.061 . S
Co131 O137 2.052 . S
Co131 O139 2.135 . S
O132 Co131 2.061 . S
O132 C135 1.235 . S
C133 O136 1.238 . S
C133 O137 1.241 . S
C134 O127 1.247 . S
C134 O128 1.261 . S
C135 O130 1.259 . S
C135 O132 1.235 . S
O136 Co126 2.021 . S
O136 C133 1.238 . S
O137 Co131 2.052 . S
O137 C133 1.241 . S
O138 Co126 2.137 . S
O138 C129 1.247 . S
O139 Co126 2.244 . S
O139 C129 1.272 . S
O139 Co131 2.135 . S
Co140 O141 2.216 . S
Co140 O142 2.091 . S
Co140 O144 2.004 . S
Co140 O150 2.021 . S
Co140 O152 2.137 . S
Co140 O153 2.244 . S
O141 Co140 2.216 . S
O141 C148 1.247 . S
O142 Co140 2.091 . S
O142 C148 1.261 . S
C143 O152 1.247 . S
C143 O153 1.272 . S
O144 Co140 2.004 . S
O144 C149 1.259 . S
Co145 O146 2.061 . S
Co145 O151 2.052 . S
Co145 O153 2.135 . S
O146 Co145 2.061 . S
O146 C149 1.235 . S
C147 O150 1.238 . S
C147 O151 1.241 . S
C148 O141 1.247 . S
C148 O142 1.261 . S
C149 O144 1.259 . S
C149 O146 1.235 . S
O150 Co140 2.021 . S
O150 C147 1.238 . S
O151 Co145 2.052 . S
O151 C147 1.241 . S
O152 Co140 2.137 . S
O152 C143 1.247 . S
O153 Co140 2.244 . S
O153 C143 1.272 . S
O153 Co145 2.135 . S
Co154 O155 2.216 . S
Co154 O156 2.091 . S
Co154 O158 2.004 . S
Co154 O164 2.021 . S
Co154 O166 2.137 . S
Co154 O167 2.244 . S
O155 Co154 2.216 . S
O155 C162 1.247 . S
O156 Co154 2.091 . S
O156 C162 1.261 . S
C157 O166 1.247 . S
C157 O167 1.272 . S
O158 Co154 2.004 . S
O158 C163 1.259 . S
Co159 O160 2.061 . S
Co159 O165 2.052 . S
Co159 O167 2.135 . S
O160 Co159 2.061 . S
O160 C163 1.235 . S
C161 O164 1.238 . S
C161 O165 1.241 . S
C162 O155 1.247 . S
C162 O156 1.261 . S
C163 O158 1.259 . S
C163 O160 1.235 . S
O164 Co154 2.021 . S
O164 C161 1.238 . S
O165 Co159 2.052 . S
O165 C161 1.241 . S
O166 Co154 2.137 . S
O166 C157 1.247 . S
O167 Co154 2.244 . S
O167 C157 1.272 . S
O167 Co159 2.135 . S
C168 C169 1.369 . S
C168 C170 1.419 . S
C168 H172 0.930 . S
C169 C168 1.369 . S
C169 C178 1.429 . S
C170 C168 1.419 . S
C170 C171 1.363 . S
C170 H173 0.929 . S
C171 C170 1.363 . S
C171 C177 1.428 . S
H172 C168 0.930 . S
H173 C170 0.929 . S
S174 N175 1.613 . S
S174 N176 1.610 . S
N175 S174 1.613 . S
N175 C178 1.350 . S
N176 S174 1.610 . S
N176 C177 1.351 . S
C177 C171 1.428 . S
C177 N176 1.351 . S
C177 C178 1.434 . S
C178 C169 1.429 . S
C178 N175 1.350 . S
C178 C177 1.434 . S
C179 C180 1.369 . S
C179 C181 1.419 . S
C179 H183 0.930 . S
C180 C179 1.369 . S
C180 C189 1.429 . S
C181 C179 1.419 . S
C181 C182 1.363 . S
C181 H184 0.929 . S
C182 C181 1.363 . S
C182 C188 1.428 . S
H183 C179 0.930 . S
H184 C181 0.929 . S
S185 N186 1.613 . S
S185 N187 1.610 . S
N186 S185 1.613 . S
N186 C189 1.350 . S
N187 S185 1.610 . S
N187 C188 1.351 . S
C188 C182 1.428 . S
C188 N187 1.351 . S
C188 C189 1.434 . S
C189 C180 1.429 . S
C189 N186 1.350 . S
C189 C188 1.434 . S
C190 C191 1.369 . S
C190 C192 1.419 . S
C190 H194 0.930 . S
C191 C190 1.369 . S
C191 C200 1.429 . S
C192 C190 1.419 . S
C192 C193 1.363 . S
C192 H195 0.929 . S
C193 C192 1.363 . S
C193 C199 1.428 . S
H194 C190 0.930 . S
H195 C192 0.929 . S
S196 N197 1.613 . S
S196 N198 1.610 . S
N197 S196 1.613 . S
N197 C200 1.350 . S
N198 S196 1.610 . S
N198 C199 1.351 . S
C199 C193 1.428 . S
C199 N198 1.351 . S
C199 C200 1.434 . S
C200 C191 1.429 . S
C200 N197 1.350 . S
C200 C199 1.434 . S
C201 C202 1.369 . S
C201 C203 1.419 . S
C201 H205 0.930 . S
C202 C201 1.369 . S
C202 C211 1.429 . S
C203 C201 1.419 . S
C203 C204 1.363 . S
C203 H206 0.929 . S
C204 C203 1.363 . S
C204 C210 1.428 . S
H205 C201 0.930 . S
H206 C203 0.929 . S
S207 N208 1.613 . S
S207 N209 1.610 . S
N208 S207 1.613 . S
N208 C211 1.350 . S
N209 S207 1.610 . S
N209 C210 1.351 . S
C210 C204 1.428 . S
C210 N209 1.351 . S
C210 C211 1.434 . S
C211 C202 1.429 . S
C211 N208 1.350 . S
C211 C210 1.434 . S
C212 C213 1.369 . S
C212 C214 1.419 . S
C212 H216 0.930 . S
C213 C212 1.369 . S
C213 C222 1.429 . S
C214 C212 1.419 . S
C214 C215 1.363 . S
C214 H217 0.929 . S
C215 C214 1.363 . S
C215 C221 1.428 . S
H216 C212 0.930 . S
H217 C214 0.929 . S
S218 N219 1.613 . S
S218 N220 1.610 . S
N219 S218 1.613 . S
N219 C222 1.350 . S
N220 S218 1.610 . S
N220 C221 1.351 . S
C221 C215 1.428 . S
C221 N220 1.351 . S
C221 C222 1.434 . S
C222 C213 1.429 . S
C222 N219 1.350 . S
C222 C221 1.434 . S
C223 C224 1.369 . S
C223 C225 1.419 . S
C223 H227 0.930 . S
C224 C223 1.369 . S
C224 C233 1.429 . S
C225 C223 1.419 . S
C225 C226 1.363 . S
C225 H228 0.929 . S
C226 C225 1.363 . S
C226 C232 1.428 . S
H227 C223 0.930 . S
H228 C225 0.929 . S
S229 N230 1.613 . S
S229 N231 1.610 . S
N230 S229 1.613 . S
N230 C233 1.350 . S
N231 S229 1.610 . S
N231 C232 1.351 . S
C232 C226 1.428 . S
C232 N231 1.351 . S
C232 C233 1.434 . S
C233 C224 1.429 . S
C233 N230 1.350 . S
C233 C232 1.434 . S
C234 C235 1.369 . S
C234 C236 1.419 . S
C234 H238 0.930 . S
C235 C234 1.369 . S
C235 C244 1.429 . S
C236 C234 1.419 . S
C236 C237 1.363 . S
C236 H239 0.929 . S
C237 C236 1.363 . S
C237 C243 1.428 . S
H238 C234 0.930 . S
H239 C236 0.929 . S
S240 N241 1.613 . S
S240 N242 1.610 . S
N241 S240 1.613 . S
N241 C244 1.350 . S
N242 S240 1.610 . S
N242 C243 1.351 . S
C243 C237 1.428 . S
C243 N242 1.351 . S
C243 C244 1.434 . S
C244 C235 1.429 . S
C244 N241 1.350 . S
C244 C243 1.434 . S
C245 C246 1.369 . S
C245 C247 1.419 . S
C245 H249 0.930 . S
C246 C245 1.369 . S
C246 C255 1.429 1_455 S
C247 C245 1.419 . S
C247 C248 1.363 1_455 S
C247 H250 0.929 . S
C248 C247 1.363 1_655 S
C248 C254 1.428 . S
H249 C245 0.930 . S
H250 C247 0.929 . S
S251 N252 1.613 . S
S251 N253 1.610 . S
N252 S251 1.613 . S
N252 C255 1.350 . S
N253 S251 1.610 . S
N253 C254 1.351 . S
C254 C248 1.428 . S
C254 N253 1.351 . S
C254 C255 1.434 . S
C255 C246 1.429 1_655 S
C255 N252 1.350 . S
C255 C254 1.434 . S
C256 C257 1.369 1_565 S
C256 C258 1.419 . S
C256 H260 0.930 . S
C257 C256 1.369 1_545 S
C257 C266 1.429 . S
C258 C256 1.419 . S
C258 C259 1.363 . S
C258 H261 0.929 . S
C259 C258 1.363 . S
C259 C265 1.428 1_565 S
H260 C256 0.930 . S
H261 C258 0.929 . S
S262 N263 1.613 . S
S262 N264 1.610 . S
N263 S262 1.613 . S
N263 C266 1.350 . S
N264 S262 1.610 . S
N264 C265 1.351 . S
C265 C259 1.428 1_545 S
C265 N264 1.351 . S
C265 C266 1.434 . S
C266 C257 1.429 . S
C266 N263 1.350 . S
C266 C265 1.434 . S
C267 C268 1.369 . S
C267 C269 1.419 . S
C267 H271 0.930 . S
C268 C267 1.369 . S
C268 C277 1.429 . S
C269 C267 1.419 . S
C269 C270 1.363 . S
C269 H272 0.929 . S
C270 C269 1.363 . S
C270 C276 1.428 . S
H271 C267 0.930 . S
H272 C269 0.929 . S
S273 N274 1.613 . S
S273 N275 1.610 . S
N274 S273 1.613 . S
N274 C277 1.350 . S
N275 S273 1.610 . S
N275 C276 1.351 . S
C276 C270 1.428 . S
C276 N275 1.351 . S
C276 C277 1.434 . S
C277 C268 1.429 . S
C277 N274 1.350 . S
C277 C276 1.434 . S
C278 C279 1.369 1_455 S
C278 C280 1.419 . S
C278 H282 0.930 . S
C279 C278 1.369 1_655 S
C279 C288 1.429 . S
C280 C278 1.419 . S
C280 C281 1.363 . S
C280 H283 0.929 . S
C281 C280 1.363 . S
C281 C287 1.428 1_455 S
H282 C278 0.930 . S
H283 C280 0.929 . S
S284 N285 1.613 . S
S284 N286 1.610 . S
N285 S284 1.613 . S
N285 C288 1.350 . S
N286 S284 1.610 . S
N286 C287 1.351 . S
C287 C281 1.428 1_655 S
C287 N286 1.351 . S
C287 C288 1.434 . S
C288 C279 1.429 . S
C288 N285 1.350 . S
C288 C287 1.434 . S
C289 C290 1.369 . S
C289 C291 1.419 . S
C289 H293 0.930 . S
C290 C289 1.369 . S
C290 C299 1.429 1_565 S
C291 C289 1.419 . S
C291 C292 1.363 1_565 S
C291 H294 0.929 . S
C292 C291 1.363 1_545 S
C292 C298 1.428 . S
H293 C289 0.930 . S
H294 C291 0.929 . S
S295 N296 1.613 . S
S295 N297 1.610 . S
N296 S295 1.613 . S
N296 C299 1.350 . S
N297 S295 1.610 . S
N297 C298 1.351 . S
C298 C292 1.428 . S
C298 N297 1.351 . S
C298 C299 1.434 . S
C299 C290 1.429 1_545 S
C299 N296 1.350 . S
C299 C298 1.434 . S
C300 C301 1.369 . S
C300 C302 1.419 . S
C300 H304 0.930 . S
C301 C300 1.369 . S
C301 C310 1.429 . S
C302 C300 1.419 . S
C302 C303 1.363 . S
C302 H305 0.929 . S
C303 C302 1.363 . S
C303 C309 1.428 . S
H304 C300 0.930 . S
H305 C302 0.929 . S
S306 N307 1.613 . S
S306 N308 1.610 . S
N307 S306 1.613 . S
N307 C310 1.350 . S
N308 S306 1.610 . S
N308 C309 1.351 . S
C309 C303 1.428 . S
C309 N308 1.351 . S
C309 C310 1.434 . S
C310 C301 1.429 . S
C310 N307 1.350 . S
C310 C309 1.434 . S
C311 C312 1.369 1_455 S
C311 C313 1.419 . S
C311 H315 0.930 . S
C312 C311 1.369 1_655 S
C312 C321 1.429 . S
C313 C311 1.419 . S
C313 C314 1.363 . S
C313 H316 0.929 . S
C314 C313 1.363 . S
C314 C320 1.426 . S
H315 C311 0.930 . S
H316 C313 0.929 . S
S317 N318 1.613 . S
S317 N319 1.610 . S
N318 S317 1.613 . S
N318 C321 1.350 . S
N319 S317 1.610 . S
N319 C320 1.352 1_655 S
C320 C314 1.426 . S
C320 N319 1.352 1_455 S
C320 C321 1.435 1_455 S
C321 C312 1.429 . S
C321 N318 1.350 . S
C321 C320 1.435 1_655 S
C322 C323 1.369 . S
C322 C324 1.419 1_556 S
C322 H326 0.930 . S
C323 C322 1.369 . S
C323 C332 1.429 1_565 S
C324 C322 1.419 1_554 S
C324 C325 1.363 1_565 S
C324 H327 0.929 . S
C325 C324 1.363 1_545 S
C325 C331 1.428 . S
H326 C322 0.930 . S
H327 C324 0.929 . S
S328 N329 1.613 . S
S328 N330 1.610 . S
N329 S328 1.613 . S
N329 C332 1.350 . S
N330 S328 1.610 . S
N330 C331 1.351 1_556 S
C331 C325 1.428 . S
C331 N330 1.351 1_554 S
C331 C332 1.434 1_554 S
C332 C323 1.429 1_545 S
C332 N329 1.350 . S
C332 C331 1.434 1_556 S
C333 C334 1.369 . S
C333 C335 1.419 . S
C333 H337 0.930 . S
C334 C333 1.369 . S
C334 C343 1.429 . S
C335 C333 1.419 . S
C335 C336 1.363 . S
C335 H338 0.929 . S
C336 C335 1.363 . S
C336 C342 1.428 . S
H337 C333 0.930 . S
H338 C335 0.929 . S
S339 N340 1.613 . S
S339 N341 1.610 . S
N340 S339 1.613 . S
N340 C343 1.350 . S
N341 S339 1.610 . S
N341 C342 1.351 . S
C342 C336 1.428 . S
C342 N341 1.351 . S
C342 C343 1.434 . S
C343 C334 1.429 . S
C343 N340 1.350 . S
C343 C342 1.434 . S
C344 C345 1.369 . S
C344 C346 1.419 1_455 S
C344 H348 0.930 . S
C345 C344 1.369 . S
C345 C354 1.429 1_455 S
C346 C344 1.419 1_655 S
C346 C347 1.363 . S
C346 H349 0.929 . S
C347 C346 1.363 . S
C347 C353 1.428 . S
H348 C344 0.930 . S
H349 C346 0.929 . S
S350 N351 1.613 . S
S350 N352 1.610 . S
N351 S350 1.613 . S
N351 C354 1.350 . S
N352 S350 1.610 . S
N352 C353 1.351 . S
C353 C347 1.428 . S
C353 N352 1.351 . S
C353 C354 1.434 . S
C354 C345 1.429 1_655 S
C354 N351 1.350 . S
C354 C353 1.434 . S
C355 C356 1.369 1_545 S
C355 C357 1.419 1_554 S
C355 H359 0.930 . S
C356 C355 1.369 1_565 S
C356 C365 1.429 . S
C357 C355 1.419 1_556 S
C357 C358 1.363 . S
C357 H360 0.929 . S
C358 C357 1.363 . S
C358 C364 1.428 1_545 S
H359 C355 0.930 . S
H360 C357 0.929 . S
S361 N362 1.613 1_556 S
S361 N363 1.610 . S
N362 S361 1.613 1_554 S
N362 C365 1.350 . S
N363 S361 1.610 . S
N363 C364 1.351 . S
C364 C358 1.428 1_565 S
C364 N363 1.351 . S
C364 C365 1.434 1_556 S
C365 C356 1.429 . S
C365 N362 1.350 . S
C365 C364 1.434 1_554 S
C366 C367 1.369 . S
C366 C368 1.419 1_655 S
C366 H370 0.930 . S
C367 C366 1.369 . S
C367 C376 1.429 . S
C368 C366 1.419 1_455 S
C368 C369 1.363 . S
C368 H371 0.929 . S
C369 C368 1.363 . S
C369 C375 1.428 . S
H370 C366 0.930 . S
H371 C368 0.929 . S
S372 N373 1.613 1_455 S
S372 N374 1.610 . S
N373 S372 1.613 1_655 S
N373 C376 1.350 . S
N374 S372 1.610 . S
N374 C375 1.351 . S
C375 C369 1.428 . S
C375 N374 1.351 . S
C375 C376 1.434 1_455 S
C376 C367 1.429 . S
C376 N373 1.350 . S
C376 C375 1.434 1_655 S
C377 C378 1.369 . S
C377 C379 1.419 1_545 S
C377 H381 0.930 . S
C378 C377 1.369 . S
C378 C387 1.429 . S
C379 C377 1.419 1_565 S
C379 C380 1.363 . S
C379 H382 0.929 . S
C380 C379 1.363 . S
C380 C386 1.428 . S
H381 C377 0.930 . S
H382 C379 0.929 . S
S383 N384 1.613 1_565 S
S383 N385 1.610 . S
N384 S383 1.613 1_545 S
N384 C387 1.350 . S
N385 S383 1.610 . S
N385 C386 1.351 . S
C386 C380 1.428 . S
C386 N385 1.351 . S
C386 C387 1.434 1_565 S
C387 C378 1.429 . S
C387 N384 1.350 . S
C387 C386 1.434 1_545 S
C388 C389 1.369 . S
C388 C390 1.419 . S
C388 H392 0.930 . S
C389 C388 1.369 . S
C389 C398 1.429 . S
C390 C388 1.419 . S
C390 C391 1.363 . S
C390 H393 0.929 . S
C391 C390 1.363 . S
C391 C397 1.428 . S
H392 C388 0.930 . S
H393 C390 0.929 . S
S394 N395 1.613 . S
S394 N396 1.610 . S
N395 S394 1.613 . S
N395 C398 1.350 . S
N396 S394 1.610 . S
N396 C397 1.351 . S
C397 C391 1.428 . S
C397 N396 1.351 . S
C397 C398 1.434 . S
C398 C389 1.429 . S
C398 N395 1.350 . S
C398 C397 1.434 . S
C399 C400 1.369 . S
C399 C401 1.419 1_655 S
C399 H403 0.930 . S
C400 C399 1.369 . S
C400 C409 1.429 . S
C401 C399 1.419 1_455 S
C401 C402 1.363 . S
C401 H404 0.929 . S
C402 C401 1.363 . S
C402 C408 1.428 . S
H403 C399 0.930 . S
H404 C401 0.929 . S
S405 N406 1.613 1_455 S
S405 N407 1.610 . S
N406 S405 1.613 1_655 S
N406 C409 1.350 . S
N407 S405 1.610 . S
N407 C408 1.351 . S
C408 C402 1.428 . S
C408 N407 1.351 . S
C408 C409 1.434 1_455 S
C409 C400 1.429 . S
C409 N406 1.350 . S
C409 C408 1.434 1_655 S
C410 C411 1.369 . S
C410 C412 1.419 1_565 S
C410 H414 0.930 . S
C411 C410 1.369 . S
C411 C420 1.429 . S
C412 C410 1.419 1_545 S
C412 C413 1.363 . S
C412 H415 0.929 . S
C413 C412 1.363 . S
C413 C419 1.428 . S
H414 C410 0.930 . S
H415 C412 0.929 . S
S416 N417 1.613 1_545 S
S416 N418 1.610 . S
N417 S416 1.613 1_565 S
N417 C420 1.350 . S
N418 S416 1.610 . S
N418 C419 1.351 . S
C419 C413 1.428 . S
C419 N418 1.351 . S
C419 C420 1.434 1_545 S
C420 C411 1.429 . S
C420 N417 1.350 . S
C420 C419 1.434 1_565 S
C421 C422 1.369 . S
C421 C423 1.419 . S
C421 H425 0.930 . S
C422 C421 1.369 . S
C422 C431 1.429 . S
C423 C421 1.419 . S
C423 C424 1.363 . S
C423 H426 0.929 . S
C424 C423 1.363 . S
C424 C430 1.428 . S
H425 C421 0.930 . S
H426 C423 0.929 . S
S427 N428 1.613 . S
S427 N429 1.610 . S
N428 S427 1.613 . S
N428 C431 1.350 . S
N429 S427 1.610 . S
N429 C430 1.351 . S
C430 C424 1.428 . S
C430 N429 1.351 . S
C430 C431 1.434 . S
C431 C422 1.429 . S
C431 N428 1.350 . S
C431 C430 1.434 . S
C169 C119 1.669 . S
C171 C7 1.684 . S
C180 C23 1.769 . S
C182 C135 1.769 . S
C191 C35 1.676 . S
C193 C147 1.683 . S
C202 C49 1.681 . S
C204 C161 1.672 . S
C213 C93 1.769 . S
C215 C65 1.769 . S
C224 C77 1.674 . S
C226 C105 1.687 . S
C235 C51 1.184 . S
C237 C9 1.183 . S
C246 C63 1.306 . S
C248 C21 1.297 . S
C257 C79 1.088 . S
C259 C37 1.087 . S
C268 C91 1.301 . S
C270 C133 1.302 . S
C279 C107 1.184 . S
C281 C149 1.193 . S
C290 C121 1.090 . S
C292 C163 1.082 . S
C301 C3 1.569 . S
C303 C134 1.563 . S
C312 C22 1.560 . S
C314 C143 1.567 . S
C323 C31 1.552 . S
C325 C157 1.554 . S
C334 C92 1.561 . S
C336 C45 1.568 . S
C345 C64 1.560 . S
C347 C101 1.568 . S
C356 C115 1.553 . S
C358 C73 1.552 . S
C367 C162 1.375 . S
C369 C8 1.370 . S
C378 C17 1.423 . S
C380 C87 1.418 . S
C389 C106 1.377 . S
C391 C36 1.374 . S
C400 C50 1.374 . S
C402 C120 1.373 . S
C411 C59 1.429 . S
C413 C129 1.420 . S
C422 C148 1.368 . S
C424 C78 1.376 . S
