# Generated by pormake.
# Topology umw, (4)-cn, num edge types: 1
# Building blocks:
#     Node 0, Type 0, BuildingBlock: QUQFOY_clean_sbu_3, # of connection points: 4
#     Node 1, Type 0, BuildingBlock: QUQFOY_clean_sbu_3, # of connection points: 4
#     Node 2, Type 0, BuildingBlock: QUQFOY_clean_sbu_3, # of connection points: 4
#     Node 3, Type 0, BuildingBlock: QUQFOY_clean_sbu_3, # of connection points: 4
#     Node 4, Type 0, BuildingBlock: QUQFOY_clean_sbu_3, # of connection points: 4
#     Node 5, Type 0, BuildingBlock: QUQFOY_clean_sbu_3, # of connection points: 4
#     Node 6, Type 0, BuildingBlock: QUQFOY_clean_sbu_3, # of connection points: 4
#     Node 7, Type 0, BuildingBlock: QUQFOY_clean_sbu_3, # of connection points: 4
#     Edge 8, Type (0, 0), BuildingBlock: AJUNOK_clean_linker_0, # of connection points: 2
#     Edge 9, Type (0, 0), BuildingBlock: AJUNOK_clean_linker_0, # of connection points: 2
#     Edge 10, Type (0, 0), BuildingBlock: AJUNOK_clean_linker_0, # of connection points: 2
#     Edge 11, Type (0, 0), BuildingBlock: AJUNOK_clean_linker_0, # of connection points: 2
#     Edge 12, Type (0, 0), BuildingBlock: AJUNOK_clean_linker_0, # of connection points: 2
#     Edge 13, Type (0, 0), BuildingBlock: AJUNOK_clean_linker_0, # of connection points: 2
#     Edge 14, Type (0, 0), BuildingBlock: AJUNOK_clean_linker_0, # of connection points: 2
#     Edge 15, Type (0, 0), BuildingBlock: AJUNOK_clean_linker_0, # of connection points: 2
#     Edge 16, Type (0, 0), BuildingBlock: AJUNOK_clean_linker_0, # of connection points: 2
#     Edge 17, Type (0, 0), BuildingBlock: AJUNOK_clean_linker_0, # of connection points: 2
#     Edge 18, Type (0, 0), BuildingBlock: AJUNOK_clean_linker_0, # of connection points: 2
#     Edge 19, Type (0, 0), BuildingBlock: AJUNOK_clean_linker_0, # of connection points: 2
#     Edge 20, Type (0, 0), BuildingBlock: AJUNOK_clean_linker_0, # of connection points: 2
#     Edge 21, Type (0, 0), BuildingBlock: AJUNOK_clean_linker_0, # of connection points: 2
#     Edge 22, Type (0, 0), BuildingBlock: AJUNOK_clean_linker_0, # of connection points: 2
#     Edge 23, Type (0, 0), BuildingBlock: AJUNOK_clean_linker_0, # of connection points: 2
# Relax obj value: 0.122
# Max RMSD: 0.102
# Mean RMSD: 0.102
data_MOF--net-umw--node1-QUQFOY_clean_sbu_3--edge1-AJUNOK_clean_linker_0
_symmetry_space_group_name_H-M    P1
_symmetry_Int_Tables_number       1
_symmetry_cell_setting            triclinic
loop_
_symmetry_equiv_pos_as_xyz
'x, y, z'
_cell_length_a     31.916921
_cell_length_b     31.804212
_cell_length_c     20.057484
_cell_angle_alpha  89.614009
_cell_angle_beta   89.955107
_cell_angle_gamma 89.800679
loop_
_atom_site_label
_atom_site_type_symbol
_atom_site_fract_x
_atom_site_fract_y
_atom_site_fract_z
_atom_type_partial_charge
C0 C 0.47664 0.22164 0.14151 0.0
O1 O 0.5091 0.2074 0.17022 0.0
Cd2 Cd 0.51111 0.16458 0.26506 0.0
O3 O 0.44023 0.21564 0.16648 0.0
Cd4 Cd 0.41394 0.18554 0.27502 0.0
C5 C 0.43657 0.08801 0.22896 0.0
O6 O 0.47264 0.2024 0.34349 0.0
O7 O 0.43682 0.14854 0.37535 0.0
O8 O 0.3817 0.2488 0.31552 0.0
C9 C 0.46475 0.17547 0.38813 0.0
O10 O 0.47414 0.09998 0.23842 0.0
C11 C 0.34741 0.2324 0.33389 0.0
O12 O 0.40584 0.11336 0.23575 0.0
O13 O 0.34122 0.19445 0.31701 0.0
C14 C 0.79981 0.46909 0.42303 0.0
O15 O 0.80746 0.49923 0.46229 0.0
Cd16 Cd 0.82526 0.49506 0.57562 0.0
O17 O 0.80184 0.43076 0.44303 0.0
Cd18 Cd 0.8164 0.39291 0.5513 0.0
C19 C 0.91434 0.43269 0.55924 0.0
O20 O 0.77552 0.44458 0.60726 0.0
O21 O 0.80842 0.40241 0.67239 0.0
O22 O 0.76333 0.34057 0.52883 0.0
C23 C 0.78166 0.43155 0.66574 0.0
O24 O 0.89629 0.46728 0.57347 0.0
C25 C 0.78085 0.31167 0.56301 0.0
O26 O 0.8929 0.40014 0.54563 0.0
O27 O 0.818 0.31865 0.5824 0.0
C28 C 0.50599 0.79553 0.66356 0.0
O29 O 0.47565 0.80304 0.7026 0.0
Cd30 Cd 0.47667 0.81608 0.81737 0.0
O31 O 0.54365 0.79377 0.68558 0.0
Cd32 Cd 0.57536 0.80225 0.80037 0.0
C33 C 0.54199 0.90218 0.81537 0.0
O34 O 0.52193 0.76378 0.85978 0.0
O35 O 0.55769 0.80661 0.91825 0.0
O36 O 0.62651 0.74535 0.8015 0.0
C37 C 0.53151 0.77689 0.91687 0.0
O38 O 0.50628 0.88629 0.82823 0.0
C39 C 0.65525 0.76703 0.8282 0.0
O40 O 0.57254 0.87887 0.79787 0.0
O41 O 0.64877 0.80623 0.83317 0.0
C42 C 0.20519 0.5308 0.91767 0.0
O43 O 0.1959 0.49842 0.95177 0.0
Cd44 Cd 0.16799 0.49447 0.05887 0.0
O45 O 0.19915 0.56793 0.94034 0.0
Cd46 Cd 0.17349 0.59655 0.05002 0.0
C47 C 0.07808 0.55279 0.03131 0.0
O48 O 0.21295 0.54348 0.10825 0.0
O49 O 0.16931 0.57778 0.16831 0.0
O50 O 0.22167 0.6564 0.0504 0.0
C51 C 0.19939 0.5519 0.16543 0.0
O52 O 0.09602 0.51808 0.04564 0.0
C53 C 0.19761 0.67922 0.08562 0.0
O54 O 0.09917 0.58653 0.02591 0.0
O55 O 0.1608 0.66584 0.09578 0.0
C56 C 0.46195 0.79812 0.38228 0.0
O57 O 0.49065 0.80235 0.33899 0.0
Cd58 Cd 0.48401 0.81424 0.22304 0.0
O59 O 0.42324 0.80038 0.36558 0.0
Cd60 Cd 0.38408 0.81173 0.25786 0.0
C61 C 0.42652 0.90682 0.22725 0.0
O62 O 0.43025 0.76809 0.19209 0.0
O63 O 0.3905 0.81024 0.13776 0.0
O64 O 0.32741 0.76151 0.27621 0.0
C65 C 0.41719 0.78082 0.13615 0.0
O66 O 0.45937 0.88652 0.21074 0.0
C67 C 0.30013 0.78428 0.24696 0.0
O68 O 0.39517 0.88786 0.25277 0.0
O69 O 0.3104 0.82187 0.23344 0.0
C70 C 0.21185 0.4907 0.64081 0.0
O71 O 0.20042 0.51934 0.6003 0.0
Cd72 Cd 0.17592 0.51112 0.49138 0.0
O73 O 0.21204 0.4519 0.62384 0.0
Cd74 Cd 0.19693 0.40971 0.52087 0.0
C75 C 0.09552 0.44029 0.52705 0.0
O76 O 0.22632 0.4636 0.45318 0.0
O77 O 0.19255 0.41675 0.39925 0.0
O78 O 0.25886 0.36606 0.53197 0.0
C79 C 0.21589 0.44879 0.39767 0.0
O80 O 0.10927 0.47616 0.50895 0.0
C81 C 0.24239 0.33356 0.5065 0.0
O82 O 0.12052 0.40962 0.5378 0.0
O83 O 0.20292 0.33442 0.49868 0.0
C84 C 0.51286 0.21933 0.86789 0.0
O85 O 0.48373 0.20902 0.82839 0.0
Cd86 Cd 0.49303 0.16843 0.73213 0.0
O87 O 0.55105 0.21029 0.85466 0.0
Cd88 Cd 0.59049 0.17771 0.75988 0.0
C89 C 0.55135 0.08376 0.79443 0.0
O90 O 0.54672 0.20097 0.67116 0.0
O91 O 0.57972 0.14277 0.65381 0.0
O92 O 0.6336 0.23706 0.7349 0.0
C93 C 0.55846 0.17317 0.63056 0.0
O94 O 0.51802 0.0998 0.77003 0.0
C95 C 0.66701 0.21643 0.72468 0.0
O96 O 0.5843 0.10582 0.8018 0.0
O97 O 0.66719 0.17784 0.74163 0.0
C98 C 0.78913 0.50789 0.14128 0.0
O99 O 0.79704 0.47733 0.10283 0.0
Cd100 Cd 0.81204 0.47859 -0.01175 0.0
O101 O 0.7877 0.5457 0.11898 0.0
Cd102 Cd 0.79685 0.58008 0.00683 0.0
C103 C 0.89709 0.54495 -0.00119 0.0
O104 O 0.75965 0.52508 0.95054 0.0
O105 O 0.79288 0.56778 0.88717 0.0
O106 O 0.74228 0.63316 0.02061 0.0
C107 C 0.76786 0.53718 0.89212 0.0
O108 O 0.88176 0.50909 -0.01471 0.0
C109 C 0.76188 0.66127 -0.01222 0.0
O110 O 0.87326 0.57595 0.01229 0.0
O111 O 0.7997 0.65333 0.97276 0.0
C112 C 0.50923 0.20969 0.47168 0.0
C113 C 0.49081 0.17278 0.44762 0.0
C114 C 0.5326 0.20905 0.53016 0.0
C115 C 0.53896 0.17136 0.56527 0.0
H116 H 0.50444 0.23953 0.44637 0.0
H117 H 0.54514 0.23837 0.54873 0.0
S118 S 0.49995 0.0657 0.52041 0.0
N119 N 0.48194 0.0972 0.46115 0.0
N120 N 0.52693 0.09594 0.57128 0.0
C121 C 0.52231 0.13386 0.54044 0.0
C122 C 0.49777 0.13461 0.48143 0.0
C123 C 0.7678 0.50122 0.71498 0.0
C124 C 0.76933 0.4573 0.72248 0.0
C125 C 0.76429 0.52708 0.77048 0.0
C126 C 0.76112 0.50976 0.83477 0.0
H127 H 0.77213 0.51586 0.66657 0.0
H128 H 0.76617 0.56084 0.7633 0.0
S129 S 0.75416 0.39632 0.87831 0.0
N130 N 0.76154 0.39732 0.79681 0.0
N131 N 0.75261 0.446 0.90166 0.0
C132 C 0.75795 0.46582 0.84205 0.0
C133 C 0.76278 0.43949 0.78559 0.0
C134 C 0.44093 0.80545 0.02538 0.0
C135 C 0.44269 0.77478 0.07613 0.0
C136 C 0.46986 0.80537 0.97355 0.0
C137 C 0.50071 0.77409 0.96986 0.0
H138 H 0.41849 0.83105 0.02726 0.0
H139 H 0.46874 0.83064 0.93714 0.0
S140 S 0.51642 0.68447 0.08543 0.0
N141 N 0.47639 0.71076 0.11706 0.0
N142 N 0.53028 0.71022 0.0171 0.0
C143 C 0.50176 0.74201 0.01775 0.0
C144 C 0.47268 0.74238 0.07154 0.0
C145 C 0.21466 0.51864 0.34302 0.0
C146 C 0.21849 0.47476 0.33767 0.0
C147 C 0.20971 0.54367 0.28635 0.0
C148 C 0.21013 0.5257 0.22284 0.0
H149 H 0.2133 0.53366 0.39121 0.0
H150 H 0.2046 0.57714 0.29229 0.0
S151 S 0.22629 0.4131 0.18238 0.0
N152 N 0.22637 0.41469 0.26466 0.0
N153 N 0.2197 0.4622 0.15708 0.0
C154 C 0.2175 0.48229 0.21656 0.0
C155 C 0.22103 0.45662 0.27445 0.0
C156 C 0.33638 0.28788 0.41875 0.0
C157 C 0.3194 0.25524 0.38035 0.0
C158 C 0.31186 0.31044 0.46392 0.0
C159 C 0.26892 0.30196 0.47202 0.0
H160 H 0.36908 0.29641 0.41378 0.0
H161 H 0.32646 0.33616 0.49023 0.0
S162 S 0.20986 0.21707 0.38768 0.0
N163 N 0.25781 0.21311 0.35722 0.0
N164 N 0.21101 0.25645 0.44095 0.0
C165 C 0.25181 0.26811 0.43612 0.0
C166 C 0.27717 0.24459 0.39055 0.0
C167 C 0.769 0.25892 0.65437 0.0
C168 C 0.75547 0.27782 0.59406 0.0
C169 C 0.7409 0.23705 0.69601 0.0
C170 C 0.69853 0.2338 0.6786 0.0
H171 H 0.80071 0.26356 0.67198 0.0
H172 H 0.7518 0.22485 0.7435 0.0
S173 S 0.64925 0.26937 0.52049 0.0
N174 N 0.69825 0.2855 0.51484 0.0
N175 N 0.64567 0.245 0.59317 0.0
C176 C 0.68555 0.24911 0.61603 0.0
C177 C 0.71401 0.27088 0.57358 0.0
C178 C 0.75191 0.70961 0.89045 0.0
C179 C 0.73901 0.69607 0.9545 0.0
C180 C 0.72547 0.73408 0.84964 0.0
C181 C 0.68578 0.74629 0.8723 0.0
H182 H 0.7814 0.69885 0.86979 0.0
H183 H 0.73541 0.74204 0.79948 0.0
S184 S 0.63942 0.72427 0.03835 0.0
N185 N 0.68535 0.70019 0.04018 0.0
N186 N 0.63621 0.74691 0.96418 0.0
C187 C 0.67373 0.73555 0.93758 0.0
C188 C 0.70027 0.7103 -0.02134 0.0
C189 C 0.2365 0.74648 0.10166 0.0
C190 C 0.2153 0.71188 0.12882 0.0
C191 C 0.26033 0.77288 0.14254 0.0
C192 C 0.26507 0.7644 0.2113 0.0
H193 H 0.23609 0.75211 0.04833 0.0
H194 H 0.27802 0.79796 0.11905 0.0
S195 S 0.21429 0.67846 0.30639 0.0
N196 N 0.19803 0.67203 0.22896 0.0
N197 N 0.24494 0.72021 0.30486 0.0
C198 C 0.24262 0.7309 0.23926 0.0
C199 C 0.21721 0.70494 0.19815 0.0
C200 C 0.39502 0.97766 0.2512 0.0
C201 C 0.4258 0.95326 0.21891 0.0
C202 C 0.39674 0.02178 0.25018 0.0
C203 C 0.42938 0.0429 0.21707 0.0
H204 H 0.37043 0.96268 0.27992 0.0
H205 H 0.37386 0.03929 0.27881 0.0
S206 S 0.51324 0.9944 0.11499 0.0
N207 N 0.48658 0.95418 0.14518 0.0
N208 N 0.48994 0.0368 0.14446 0.0
C209 C 0.45855 0.01911 0.18082 0.0
C210 C 0.45674 0.97436 0.18142 0.0
C211 C 0.98241 0.47061 0.5562 0.0
C212 C 0.9608 0.43214 0.55432 0.0
C213 C 0.02574 0.47243 0.54797 0.0
C214 C 0.0498 0.43588 0.538 0.0
H215 H 0.96575 0.50001 0.56291 0.0
H216 H 0.04044 0.50307 0.54936 0.0
S217 S 0.00919 0.3268 0.53177 0.0
N218 N 0.96706 0.35614 0.54358 0.0
N219 N 0.0491 0.35968 0.52862 0.0
C220 C 0.029 0.39694 0.53761 0.0
C221 C 0.98442 0.39505 0.5455 0.0
C222 C 0.51082 0.97392 0.82453 0.0
C223 C 0.54675 0.94857 0.81743 0.0
C224 C 0.51315 0.01769 0.82029 0.0
C225 C 0.55155 0.03815 0.80939 0.0
H226 H 0.48018 0.95995 0.8312 0.0
H227 H 0.48429 0.03558 0.82382 0.0
S228 S 0.65568 0.98687 0.79431 0.0
N229 N 0.62263 0.94747 0.8041 0.0
N230 N 0.6269 0.03009 0.79634 0.0
C231 C 0.58815 0.01352 0.80589 0.0
C232 C 0.58577 0.96867 0.8097 0.0
C233 C 0.96835 0.51268 0.0007 0.0
C234 C 0.94331 0.54915 0.00322 0.0
C235 C 0.01169 0.51451 0.00915 0.0
C236 C 0.03219 0.55293 0.02001 0.0
H237 H 0.9544 0.48205 -0.00659 0.0
H238 H 0.02921 0.4853 0.0074 0.0
S239 S 0.98163 0.6581 0.02788 0.0
N240 N 0.94249 0.6253 0.01521 0.0
N241 N 0.02436 0.62873 0.03077 0.0
C242 C 0.00786 0.58993 0.02097 0.0
C243 C 0.96338 0.58804 0.01275 0.0
C244 C 0.4597 0.2285 0.9577 0.0
C245 C 0.50106 0.23468 0.93475 0.0
C246 C 0.45021 0.22973 0.02574 0.0
C247 C 0.48175 0.23743 0.07272 0.0
H248 H 0.43523 0.21865 0.92391 0.0
H249 H 0.41918 0.22027 0.04168 0.0
S250 S 0.59101 0.27005 0.03639 0.0
N251 N 0.57093 0.25909 0.96272 0.0
N252 N 0.55295 0.26212 0.0908 0.0
C253 C 0.52139 0.25031 0.04954 0.0
C254 C 0.53115 0.24867 -0.01965 0.0
C255 C 0.79077 0.45695 0.23635 0.0
C256 C 0.78543 0.4987 0.21354 0.0
C257 C 0.79349 0.44738 0.30426 0.0
C258 C 0.79094 0.47913 0.35228 0.0
H259 H 0.79449 0.43132 0.20151 0.0
H260 H 0.79934 0.41503 0.31887 0.0
S261 S 0.77006 0.59259 0.31965 0.0
N262 N 0.77285 0.57139 0.24491 0.0
N263 N 0.77753 0.5535 0.37289 0.0
C264 C 0.78269 0.52067 0.33055 0.0
C265 C 0.78001 0.53042 0.26115 0.0
C266 C 0.45409 0.79349 0.5706 0.0
C267 C 0.49628 0.79142 0.59151 0.0
C268 C 0.44327 0.79422 0.50312 0.0
C269 C 0.47411 0.79284 0.45331 0.0
H270 H 0.42887 0.79568 0.60659 0.0
H271 H 0.41044 0.79708 0.49014 0.0
S272 S 0.58905 0.78241 0.48101 0.0
N273 N 0.56893 0.78462 0.55672 0.0
N274 N 0.54883 0.7856 0.42954 0.0
C275 C 0.51642 0.78862 0.47331 0.0
C276 C 0.52743 0.78797 0.54238 0.0
C277 C 0.20756 0.5541 0.79919 0.0
C278 C 0.21796 0.5241 0.84794 0.0
C279 C 0.20862 0.54376 0.73162 0.0
C280 C 0.21998 0.503 0.71053 0.0
H281 H 0.1955 0.58467 0.81327 0.0
H282 H 0.19776 0.56722 0.6962 0.0
S283 S 0.26023 0.41682 0.81838 0.0
N284 N 0.24776 0.45481 0.87053 0.0
N285 N 0.24921 0.43524 0.74325 0.0
C286 C 0.23478 0.47428 0.75846 0.0
C287 C 0.23394 0.4849 0.82728 0.0
loop_
_geom_bond_atom_site_label_1
_geom_bond_atom_site_label_2
_geom_bond_distance
_geom_bond_site_symmetry_2
_ccdc_geom_bond_type
C0 O1 1.306 . S
C0 O3 1.160 . S
O1 C0 1.306 . S
O1 Cd2 2.228 . S
Cd2 O1 2.228 . S
Cd2 O6 2.273 . S
Cd2 O10 2.277 . S
O3 C0 1.160 . S
O3 Cd4 2.203 . S
Cd4 O3 2.203 . S
Cd4 O6 2.411 . S
Cd4 O7 2.333 . S
Cd4 O8 2.352 . S
Cd4 O12 2.277 . S
Cd4 O13 2.356 . S
C5 O10 1.209 . S
C5 O12 1.226 . S
O6 Cd2 2.273 . S
O6 Cd4 2.411 . S
O6 C9 1.320 . S
O7 Cd4 2.333 . S
O7 C9 1.214 . S
O8 Cd4 2.352 . S
O8 C11 1.258 . S
C9 O6 1.320 . S
C9 O7 1.214 . S
O10 Cd2 2.277 . S
O10 C5 1.209 . S
C11 O8 1.258 . S
C11 O13 1.282 . S
O12 Cd4 2.277 . S
O12 C5 1.226 . S
O13 Cd4 2.356 . S
O13 C11 1.282 . S
C14 O15 1.306 . S
C14 O17 1.160 . S
O15 C14 1.306 . S
O15 Cd16 2.228 . S
Cd16 O15 2.228 . S
Cd16 O20 2.273 . S
Cd16 O24 2.277 . S
O17 C14 1.160 . S
O17 Cd18 2.203 . S
Cd18 O17 2.203 . S
Cd18 O20 2.411 . S
Cd18 O21 2.333 . S
Cd18 O22 2.352 . S
Cd18 O26 2.277 . S
Cd18 O27 2.356 . S
C19 O24 1.209 . S
C19 O26 1.226 . S
O20 Cd16 2.273 . S
O20 Cd18 2.411 . S
O20 C23 1.320 . S
O21 Cd18 2.333 . S
O21 C23 1.214 . S
O22 Cd18 2.352 . S
O22 C25 1.258 . S
C23 O20 1.320 . S
C23 O21 1.214 . S
O24 Cd16 2.277 . S
O24 C19 1.209 . S
C25 O22 1.258 . S
C25 O27 1.282 . S
O26 Cd18 2.277 . S
O26 C19 1.226 . S
O27 Cd18 2.356 . S
O27 C25 1.282 . S
C28 O29 1.306 . S
C28 O31 1.160 . S
O29 C28 1.306 . S
O29 Cd30 2.228 . S
Cd30 O29 2.228 . S
Cd30 O34 2.273 . S
Cd30 O38 2.277 . S
O31 C28 1.160 . S
O31 Cd32 2.203 . S
Cd32 O31 2.203 . S
Cd32 O34 2.411 . S
Cd32 O35 2.333 . S
Cd32 O36 2.352 . S
Cd32 O40 2.277 . S
Cd32 O41 2.356 . S
C33 O38 1.209 . S
C33 O40 1.226 . S
O34 Cd30 2.273 . S
O34 Cd32 2.411 . S
O34 C37 1.320 . S
O35 Cd32 2.333 . S
O35 C37 1.214 . S
O36 Cd32 2.352 . S
O36 C39 1.258 . S
C37 O34 1.320 . S
C37 O35 1.214 . S
O38 Cd30 2.277 . S
O38 C33 1.209 . S
C39 O36 1.258 . S
C39 O41 1.282 . S
O40 Cd32 2.277 . S
O40 C33 1.226 . S
O41 Cd32 2.356 . S
O41 C39 1.282 . S
C42 O43 1.306 . S
C42 O45 1.160 . S
O43 C42 1.306 . S
O43 Cd44 2.228 1_556 S
Cd44 O43 2.228 1_554 S
Cd44 O48 2.273 . S
Cd44 O52 2.277 . S
O45 C42 1.160 . S
O45 Cd46 2.203 1_556 S
Cd46 O45 2.203 1_554 S
Cd46 O48 2.411 . S
Cd46 O49 2.333 . S
Cd46 O50 2.352 . S
Cd46 O54 2.277 . S
Cd46 O55 2.356 . S
C47 O52 1.209 . S
C47 O54 1.226 . S
O48 Cd44 2.273 . S
O48 Cd46 2.411 . S
O48 C51 1.320 . S
O49 Cd46 2.333 . S
O49 C51 1.214 . S
O50 Cd46 2.352 . S
O50 C53 1.258 . S
C51 O48 1.320 . S
C51 O49 1.214 . S
O52 Cd44 2.277 . S
O52 C47 1.209 . S
C53 O50 1.258 . S
C53 O55 1.282 . S
O54 Cd46 2.277 . S
O54 C47 1.226 . S
O55 Cd46 2.356 . S
O55 C53 1.282 . S
C56 O57 1.306 . S
C56 O59 1.160 . S
O57 C56 1.306 . S
O57 Cd58 2.228 . S
Cd58 O57 2.228 . S
Cd58 O62 2.273 . S
Cd58 O66 2.277 . S
O59 C56 1.160 . S
O59 Cd60 2.203 . S
Cd60 O59 2.203 . S
Cd60 O62 2.411 . S
Cd60 O63 2.333 . S
Cd60 O64 2.352 . S
Cd60 O68 2.277 . S
Cd60 O69 2.356 . S
C61 O66 1.209 . S
C61 O68 1.226 . S
O62 Cd58 2.273 . S
O62 Cd60 2.411 . S
O62 C65 1.320 . S
O63 Cd60 2.333 . S
O63 C65 1.214 . S
O64 Cd60 2.352 . S
O64 C67 1.258 . S
C65 O62 1.320 . S
C65 O63 1.214 . S
O66 Cd58 2.277 . S
O66 C61 1.209 . S
C67 O64 1.258 . S
C67 O69 1.282 . S
O68 Cd60 2.277 . S
O68 C61 1.226 . S
O69 Cd60 2.356 . S
O69 C67 1.282 . S
C70 O71 1.306 . S
C70 O73 1.160 . S
O71 C70 1.306 . S
O71 Cd72 2.228 . S
Cd72 O71 2.228 . S
Cd72 O76 2.273 . S
Cd72 O80 2.277 . S
O73 C70 1.160 . S
O73 Cd74 2.203 . S
Cd74 O73 2.203 . S
Cd74 O76 2.411 . S
Cd74 O77 2.333 . S
Cd74 O78 2.352 . S
Cd74 O82 2.277 . S
Cd74 O83 2.356 . S
C75 O80 1.209 . S
C75 O82 1.226 . S
O76 Cd72 2.273 . S
O76 Cd74 2.411 . S
O76 C79 1.320 . S
O77 Cd74 2.333 . S
O77 C79 1.214 . S
O78 Cd74 2.352 . S
O78 C81 1.258 . S
C79 O76 1.320 . S
C79 O77 1.214 . S
O80 Cd72 2.277 . S
O80 C75 1.209 . S
C81 O78 1.258 . S
C81 O83 1.282 . S
O82 Cd74 2.277 . S
O82 C75 1.226 . S
O83 Cd74 2.356 . S
O83 C81 1.282 . S
C84 O85 1.306 . S
C84 O87 1.160 . S
O85 C84 1.306 . S
O85 Cd86 2.228 . S
Cd86 O85 2.228 . S
Cd86 O90 2.273 . S
Cd86 O94 2.277 . S
O87 C84 1.160 . S
O87 Cd88 2.203 . S
Cd88 O87 2.203 . S
Cd88 O90 2.411 . S
Cd88 O91 2.333 . S
Cd88 O92 2.352 . S
Cd88 O96 2.277 . S
Cd88 O97 2.356 . S
C89 O94 1.209 . S
C89 O96 1.226 . S
O90 Cd86 2.273 . S
O90 Cd88 2.411 . S
O90 C93 1.320 . S
O91 Cd88 2.333 . S
O91 C93 1.214 . S
O92 Cd88 2.352 . S
O92 C95 1.258 . S
C93 O90 1.320 . S
C93 O91 1.214 . S
O94 Cd86 2.277 . S
O94 C89 1.209 . S
C95 O92 1.258 . S
C95 O97 1.282 . S
O96 Cd88 2.277 . S
O96 C89 1.226 . S
O97 Cd88 2.356 . S
O97 C95 1.282 . S
C98 O99 1.306 . S
C98 O101 1.160 . S
O99 C98 1.306 . S
O99 Cd100 2.228 . S
Cd100 O99 2.228 . S
Cd100 O104 2.273 1_554 S
Cd100 O108 2.277 . S
O101 C98 1.160 . S
O101 Cd102 2.203 . S
Cd102 O101 2.203 . S
Cd102 O104 2.411 1_554 S
Cd102 O105 2.333 1_554 S
Cd102 O106 2.352 . S
Cd102 O110 2.277 . S
Cd102 O111 2.356 1_554 S
C103 O108 1.209 . S
C103 O110 1.226 . S
O104 Cd100 2.273 1_556 S
O104 Cd102 2.411 1_556 S
O104 C107 1.320 . S
O105 Cd102 2.333 1_556 S
O105 C107 1.214 . S
O106 Cd102 2.352 . S
O106 C109 1.258 . S
C107 O104 1.320 . S
C107 O105 1.214 . S
O108 Cd100 2.277 . S
O108 C103 1.209 . S
C109 O106 1.258 . S
C109 O111 1.282 1_554 S
O110 Cd102 2.277 . S
O110 C103 1.226 . S
O111 Cd102 2.356 1_556 S
O111 C109 1.282 1_556 S
C112 C113 1.369 . S
C112 C114 1.419 . S
C112 H116 0.930 . S
C113 C112 1.369 . S
C113 C122 1.429 . S
C114 C112 1.419 . S
C114 C115 1.363 . S
C114 H117 0.929 . S
C115 C114 1.363 . S
C115 C121 1.428 . S
H116 C112 0.930 . S
H117 C114 0.929 . S
S118 N119 1.613 . S
S118 N120 1.610 . S
N119 S118 1.613 . S
N119 C122 1.350 . S
N120 S118 1.610 . S
N120 C121 1.351 . S
C121 C115 1.428 . S
C121 N120 1.351 . S
C121 C122 1.434 . S
C122 C113 1.429 . S
C122 N119 1.350 . S
C122 C121 1.434 . S
C123 C124 1.369 . S
C123 C125 1.419 . S
C123 H127 0.930 . S
C124 C123 1.369 . S
C124 C133 1.429 . S
C125 C123 1.419 . S
C125 C126 1.363 . S
C125 H128 0.929 . S
C126 C125 1.363 . S
C126 C132 1.428 . S
H127 C123 0.930 . S
H128 C125 0.929 . S
S129 N130 1.613 . S
S129 N131 1.610 . S
N130 S129 1.613 . S
N130 C133 1.350 . S
N131 S129 1.610 . S
N131 C132 1.351 . S
C132 C126 1.428 . S
C132 N131 1.351 . S
C132 C133 1.434 . S
C133 C124 1.429 . S
C133 N130 1.350 . S
C133 C132 1.434 . S
C134 C135 1.369 . S
C134 C136 1.419 . S
C134 H138 0.930 . S
C135 C134 1.369 . S
C135 C144 1.429 . S
C136 C134 1.419 . S
C136 C137 1.363 1_554 S
C136 H139 0.929 . S
C137 C136 1.363 1_556 S
C137 C143 1.433 . S
H138 C134 0.930 . S
H139 C136 0.929 . S
S140 N141 1.613 . S
S140 N142 1.610 1_554 S
N141 S140 1.613 . S
N141 C144 1.350 . S
N142 S140 1.610 1_556 S
N142 C143 1.361 . S
C143 C137 1.433 . S
C143 N142 1.361 . S
C143 C144 1.418 1_556 S
C144 C135 1.429 . S
C144 N141 1.350 . S
C144 C143 1.418 1_554 S
C145 C146 1.369 . S
C145 C147 1.419 . S
C145 H149 0.930 . S
C146 C145 1.369 . S
C146 C155 1.429 . S
C147 C145 1.419 . S
C147 C148 1.363 . S
C147 H150 0.929 . S
C148 C147 1.363 . S
C148 C154 1.428 . S
H149 C145 0.930 . S
H150 C147 0.929 . S
S151 N152 1.613 . S
S151 N153 1.610 . S
N152 S151 1.613 . S
N152 C155 1.350 . S
N153 S151 1.610 . S
N153 C154 1.351 . S
C154 C148 1.428 . S
C154 N153 1.351 . S
C154 C155 1.434 . S
C155 C146 1.429 . S
C155 N152 1.350 . S
C155 C154 1.434 . S
C156 C157 1.369 . S
C156 C158 1.419 . S
C156 H160 0.930 . S
C157 C156 1.369 . S
C157 C166 1.429 . S
C158 C156 1.419 . S
C158 C159 1.363 . S
C158 H161 0.929 . S
C159 C158 1.363 . S
C159 C165 1.428 . S
H160 C156 0.930 . S
H161 C158 0.929 . S
S162 N163 1.613 . S
S162 N164 1.610 . S
N163 S162 1.613 . S
N163 C166 1.350 . S
N164 S162 1.610 . S
N164 C165 1.351 . S
C165 C159 1.428 . S
C165 N164 1.351 . S
C165 C166 1.434 . S
C166 C157 1.429 . S
C166 N163 1.350 . S
C166 C165 1.434 . S
C167 C168 1.369 . S
C167 C169 1.419 . S
C167 H171 0.930 . S
C168 C167 1.369 . S
C168 C177 1.429 . S
C169 C167 1.419 . S
C169 C170 1.363 . S
C169 H172 0.929 . S
C170 C169 1.363 . S
C170 C176 1.428 . S
H171 C167 0.930 . S
H172 C169 0.929 . S
S173 N174 1.613 . S
S173 N175 1.610 . S
N174 S173 1.613 . S
N174 C177 1.350 . S
N175 S173 1.610 . S
N175 C176 1.351 . S
C176 C170 1.428 . S
C176 N175 1.351 . S
C176 C177 1.434 . S
C177 C168 1.429 . S
C177 N174 1.350 . S
C177 C176 1.434 . S
C178 C179 1.369 . S
C178 C180 1.419 . S
C178 H182 0.930 . S
C179 C178 1.369 . S
C179 C188 1.429 . S
C180 C178 1.419 . S
C180 C181 1.363 . S
C180 H183 0.929 . S
C181 C180 1.363 . S
C181 C187 1.428 . S
H182 C178 0.930 . S
H183 C180 0.929 . S
S184 N185 1.613 . S
S184 N186 1.610 1_554 S
N185 S184 1.613 . S
N185 C188 1.350 1_554 S
N186 S184 1.610 1_556 S
N186 C187 1.351 . S
C187 C181 1.428 . S
C187 N186 1.351 . S
C187 C188 1.434 . S
C188 C179 1.429 . S
C188 N185 1.350 1_556 S
C188 C187 1.434 . S
C189 C190 1.369 . S
C189 C191 1.419 . S
C189 H193 0.930 . S
C190 C189 1.369 . S
C190 C199 1.429 . S
C191 C189 1.419 . S
C191 C192 1.363 . S
C191 H194 0.929 . S
C192 C191 1.363 . S
C192 C198 1.428 . S
H193 C189 0.930 . S
H194 C191 0.929 . S
S195 N196 1.613 . S
S195 N197 1.610 . S
N196 S195 1.613 . S
N196 C199 1.350 . S
N197 S195 1.610 . S
N197 C198 1.351 . S
C198 C192 1.428 . S
C198 N197 1.351 . S
C198 C199 1.434 . S
C199 C190 1.429 . S
C199 N196 1.350 . S
C199 C198 1.434 . S
C200 C201 1.369 . S
C200 C202 1.419 1_565 S
C200 H204 0.930 . S
C201 C200 1.369 . S
C201 C210 1.429 . S
C202 C200 1.419 1_545 S
C202 C203 1.363 . S
C202 H205 0.929 . S
C203 C202 1.363 . S
C203 C209 1.428 . S
H204 C200 0.930 . S
H205 C202 0.929 . S
S206 N207 1.613 1_545 S
S206 N208 1.610 . S
N207 S206 1.613 1_565 S
N207 C210 1.350 . S
N208 S206 1.610 . S
N208 C209 1.351 . S
C209 C203 1.428 . S
C209 N208 1.351 . S
C209 C210 1.434 1_545 S
C210 C201 1.429 . S
C210 N207 1.350 . S
C210 C209 1.434 1_565 S
C211 C212 1.369 . S
C211 C213 1.419 1_655 S
C211 H215 0.930 . S
C212 C211 1.369 . S
C212 C221 1.429 . S
C213 C211 1.419 1_455 S
C213 C214 1.363 . S
C213 H216 0.929 . S
C214 C213 1.363 . S
C214 C220 1.428 . S
H215 C211 0.930 . S
H216 C213 0.929 . S
S217 N218 1.613 1_455 S
S217 N219 1.610 . S
N218 S217 1.613 1_655 S
N218 C221 1.350 . S
N219 S217 1.610 . S
N219 C220 1.351 . S
C220 C214 1.428 . S
C220 N219 1.351 . S
C220 C221 1.434 1_455 S
C221 C212 1.429 . S
C221 N218 1.350 . S
C221 C220 1.434 1_655 S
C222 C223 1.369 . S
C222 C224 1.419 1_565 S
C222 H226 0.930 . S
C223 C222 1.369 . S
C223 C232 1.429 . S
C224 C222 1.419 1_545 S
C224 C225 1.363 . S
C224 H227 0.929 . S
C225 C224 1.363 . S
C225 C231 1.428 . S
H226 C222 0.930 . S
H227 C224 0.929 . S
S228 N229 1.613 1_545 S
S228 N230 1.610 . S
N229 S228 1.613 1_565 S
N229 C232 1.350 . S
N230 S228 1.610 . S
N230 C231 1.351 . S
C231 C225 1.428 . S
C231 N230 1.351 . S
C231 C232 1.434 1_545 S
C232 C223 1.429 . S
C232 N229 1.350 . S
C232 C231 1.434 1_565 S
C233 C234 1.369 . S
C233 C235 1.419 1_655 S
C233 H237 0.930 . S
C234 C233 1.369 . S
C234 C243 1.429 . S
C235 C233 1.419 1_455 S
C235 C236 1.363 . S
C235 H238 0.929 . S
C236 C235 1.363 . S
C236 C242 1.428 . S
H237 C233 0.930 . S
H238 C235 0.929 . S
S239 N240 1.613 1_455 S
S239 N241 1.610 . S
N240 S239 1.613 1_655 S
N240 C243 1.350 1_556 S
N241 S239 1.610 . S
N241 C242 1.351 1_556 S
C242 C236 1.428 . S
C242 N241 1.351 1_554 S
C242 C243 1.434 1_455 S
C243 C234 1.429 . S
C243 N240 1.350 1_554 S
C243 C242 1.434 1_655 S
C244 C245 1.369 1_554 S
C244 C246 1.419 . S
C244 H248 0.930 . S
C245 C244 1.369 1_556 S
C245 C254 1.429 1_556 S
C246 C244 1.419 . S
C246 C247 1.363 . S
C246 H249 0.929 . S
C247 C246 1.363 . S
C247 C253 1.428 . S
H248 C244 0.930 . S
H249 C246 0.929 . S
S250 N251 1.613 1_554 S
S250 N252 1.610 . S
N251 S250 1.613 1_556 S
N251 C254 1.350 1_556 S
N252 S250 1.610 . S
N252 C253 1.351 . S
C253 C247 1.428 . S
C253 N252 1.351 . S
C253 C254 1.434 . S
C254 C245 1.429 1_554 S
C254 N251 1.350 1_554 S
C254 C253 1.434 . S
C255 C256 1.369 . S
C255 C257 1.419 . S
C255 H259 0.930 . S
C256 C255 1.369 . S
C256 C265 1.429 . S
C257 C255 1.419 . S
C257 C258 1.363 . S
C257 H260 0.929 . S
C258 C257 1.363 . S
C258 C264 1.428 . S
H259 C255 0.930 . S
H260 C257 0.929 . S
S261 N262 1.613 . S
S261 N263 1.610 . S
N262 S261 1.613 . S
N262 C265 1.350 . S
N263 S261 1.610 . S
N263 C264 1.351 . S
C264 C258 1.428 . S
C264 N263 1.351 . S
C264 C265 1.434 . S
C265 C256 1.429 . S
C265 N262 1.350 . S
C265 C264 1.434 . S
C266 C267 1.369 . S
C266 C268 1.419 . S
C266 H270 0.930 . S
C267 C266 1.369 . S
C267 C276 1.429 . S
C268 C266 1.419 . S
C268 C269 1.363 . S
C268 H271 0.929 . S
C269 C268 1.363 . S
C269 C275 1.428 . S
H270 C266 0.930 . S
H271 C268 0.929 . S
S272 N273 1.613 . S
S272 N274 1.610 . S
N273 S272 1.613 . S
N273 C276 1.350 . S
N274 S272 1.610 . S
N274 C275 1.351 . S
C275 C269 1.428 . S
C275 N274 1.351 . S
C275 C276 1.434 . S
C276 C267 1.429 . S
C276 N273 1.350 . S
C276 C275 1.434 . S
C277 C278 1.369 . S
C277 C279 1.419 . S
C277 H281 0.930 . S
C278 C277 1.369 . S
C278 C287 1.429 . S
C279 C277 1.419 . S
C279 C280 1.363 . S
C279 H282 0.929 . S
C280 C279 1.363 . S
C280 C286 1.428 . S
H281 C277 0.930 . S
H282 C279 0.929 . S
S283 N284 1.613 . S
S283 N285 1.610 . S
N284 S283 1.613 . S
N284 C287 1.350 . S
N285 S283 1.610 . S
N285 C286 1.351 . S
C286 C280 1.428 . S
C286 N285 1.351 . S
C286 C287 1.434 . S
C287 C278 1.429 . S
C287 N284 1.350 . S
C287 C286 1.434 . S
C113 C9 0.932 . S
C115 C93 0.927 . S
C124 C23 0.925 . S
C126 C107 0.933 . S
C135 C65 0.928 . S
C137 C37 0.931 . S
C146 C79 0.926 . S
C148 C51 0.933 . S
C157 C11 1.555 . S
C159 C81 1.561 . S
C168 C25 1.563 . S
C170 C95 1.557 . S
C179 C109 1.562 1_556 S
C181 C39 1.557 . S
C190 C53 1.554 . S
C192 C67 1.563 . S
C201 C61 1.501 . S
C203 C5 1.501 . S
C212 C19 1.501 . S
C214 C75 1.502 . S
C223 C33 1.501 . S
C225 C89 1.502 . S
C234 C103 1.502 . S
C236 C47 1.502 . S
C245 C84 1.510 . S
C247 C0 1.508 . S
C256 C98 1.505 . S
C258 C14 1.504 . S
C267 C28 1.510 . S
C269 C56 1.508 . S
C278 C42 1.510 . S
C280 C70 1.508 . S
