# Generated by pormake.
# Topology smu, (6)-cn, num edge types: 1
# Building blocks:
#     Node 0, Type 0, BuildingBlock: CUWYAW_clean_sbu_0, # of connection points: 6
#     Node 1, Type 0, BuildingBlock: CUWYAW_clean_sbu_0, # of connection points: 6
#     Node 2, Type 0, BuildingBlock: CUWYAW_clean_sbu_0, # of connection points: 6
#     Node 3, Type 0, BuildingBlock: CUWYAW_clean_sbu_0, # of connection points: 6
#     Node 4, Type 0, BuildingBlock: CUWYAW_clean_sbu_0, # of connection points: 6
#     Node 5, Type 0, BuildingBlock: CUWYAW_clean_sbu_0, # of connection points: 6
#     Edge 6, Type (0, 0), BuildingBlock: ZUJKAS_clean_linker_0, # of connection points: 2
#     Edge 7, Type (0, 0), BuildingBlock: ZUJKAS_clean_linker_0, # of connection points: 2
#     Edge 8, Type (0, 0), BuildingBlock: ZUJKAS_clean_linker_0, # of connection points: 2
#     Edge 9, Type (0, 0), BuildingBlock: ZUJKAS_clean_linker_0, # of connection points: 2
#     Edge 10, Type (0, 0), BuildingBlock: ZUJKAS_clean_linker_0, # of connection points: 2
#     Edge 11, Type (0, 0), BuildingBlock: ZUJKAS_clean_linker_0, # of connection points: 2
#     Edge 12, Type (0, 0), BuildingBlock: ZUJKAS_clean_linker_0, # of connection points: 2
#     Edge 13, Type (0, 0), BuildingBlock: ZUJKAS_clean_linker_0, # of connection points: 2
#     Edge 14, Type (0, 0), BuildingBlock: ZUJKAS_clean_linker_0, # of connection points: 2
#     Edge 15, Type (0, 0), BuildingBlock: ZUJKAS_clean_linker_0, # of connection points: 2
#     Edge 16, Type (0, 0), BuildingBlock: ZUJKAS_clean_linker_0, # of connection points: 2
#     Edge 17, Type (0, 0), BuildingBlock: ZUJKAS_clean_linker_0, # of connection points: 2
#     Edge 18, Type (0, 0), BuildingBlock: ZUJKAS_clean_linker_0, # of connection points: 2
#     Edge 19, Type (0, 0), BuildingBlock: ZUJKAS_clean_linker_0, # of connection points: 2
#     Edge 20, Type (0, 0), BuildingBlock: ZUJKAS_clean_linker_0, # of connection points: 2
#     Edge 21, Type (0, 0), BuildingBlock: ZUJKAS_clean_linker_0, # of connection points: 2
#     Edge 22, Type (0, 0), BuildingBlock: ZUJKAS_clean_linker_0, # of connection points: 2
#     Edge 23, Type (0, 0), BuildingBlock: ZUJKAS_clean_linker_0, # of connection points: 2
# Relax obj value: 0.213
# Max RMSD: 0.299
# Mean RMSD: 0.299
data_MOF--net-smu--node1-CUWYAW_clean_sbu_0--edge1-ZUJKAS_clean_linker_0
_symmetry_space_group_name_H-M    P1
_symmetry_Int_Tables_number       1
_symmetry_cell_setting            triclinic
loop_
_symmetry_equiv_pos_as_xyz
'x, y, z'
_cell_length_a     47.490579
_cell_length_b     47.651747
_cell_length_c     34.185762
_cell_angle_alpha  90.149662
_cell_angle_beta   89.782615
_cell_angle_gamma 120.03488
loop_
_atom_site_label
_atom_site_type_symbol
_atom_site_fract_x
_atom_site_fract_y
_atom_site_fract_z
_atom_type_partial_charge
C0 C 0.29398 1.01137 0.26082 0.0
Eu1 Eu 0.33157 0.07122 0.28324 0.0
C2 C 0.25837 0.99074 0.25979 0.0
C3 C 0.24397 0.95696 0.25779 0.0
C4 C 0.21005 0.93733 0.25878 0.0
C5 C 0.19003 0.95124 0.26174 0.0
C6 C 0.20469 0.98519 0.26339 0.0
C7 C 0.23851 1.00473 0.26254 0.0
C8 C 0.33349 0.08692 0.36025 0.0
C9 C 0.30248 0.11761 0.29262 0.0
C10 C 0.41216 0.20131 0.31687 0.0
Eu11 Eu 0.37817 0.13991 0.29718 0.0
C12 C 0.43532 0.23488 0.30371 0.0
C13 C 0.42499 0.25283 0.28137 0.0
C14 C 0.44599 0.28597 0.27436 0.0
C15 C 0.47772 0.302 0.28977 0.0
C16 C 0.48832 0.28367 0.31084 0.0
C17 C 0.46738 0.25062 0.31782 0.0
C18 C 0.37157 0.12049 0.22028 0.0
C19 C 0.40786 0.09503 0.29672 0.0
O20 O 0.30644 0.036 0.23683 0.0
O21 O 0.30673 0.01932 0.29568 0.0
O22 O 0.30728 0.06918 0.34035 0.0
O23 O 0.3582 0.09712 0.33809 0.0
O24 O 0.29861 0.092 0.27314 0.0
O25 O 0.32975 0.13604 0.31173 0.0
O26 O 0.42279 0.18093 0.32033 0.0
O27 O 0.38219 0.18733 0.30442 0.0
O28 O 0.39929 0.14031 0.23607 0.0
O29 O 0.34965 0.11341 0.24502 0.0
O30 O 0.4087 0.11917 0.31629 0.0
O31 O 0.38184 0.07547 0.27577 0.0
H32 H 0.25893 0.94576 0.25583 0.0
H33 H 0.19951 0.91128 0.25709 0.0
H34 H 0.19005 0.99668 0.26627 0.0
H35 H 0.24917 0.03077 0.26454 0.0
H36 H 0.40033 0.24161 0.27041 0.0
H37 H 0.43686 0.2993 0.25829 0.0
H38 H 0.51273 0.29501 0.32261 0.0
H39 H 0.47599 0.23759 0.33544 0.0
C40 C 0.74852 0.75311 0.26544 0.0
Eu41 Eu 0.76878 0.7142 0.28869 0.0
C42 C 0.76565 0.78879 0.26235 0.0
C43 C 0.74898 0.80564 0.26951 0.0
C44 C 0.76579 0.8396 0.27017 0.0
C45 C 0.79966 0.85737 0.26378 0.0
C46 C 0.81612 0.84032 0.25585 0.0
C47 C 0.79932 0.80643 0.25522 0.0
C48 C 0.78093 0.71047 0.36567 0.0
C49 C 0.84422 0.74368 0.29938 0.0
C50 C 0.82297 0.63753 0.32495 0.0
Eu51 Eu 0.7923 0.66778 0.30364 0.0
C52 C 0.82744 0.6093 0.31988 0.0
C53 C 0.81697 0.5898 0.2862 0.0
C54 C 0.82504 0.56545 0.28062 0.0
C55 C 0.844 0.56055 0.30841 0.0
C56 C 0.8536 0.57966 0.34249 0.0
C57 C 0.84536 0.60371 0.34813 0.0
C58 C 0.78015 0.67453 0.2272 0.0
C59 C 0.7167 0.63622 0.29668 0.0
O60 O 0.75803 0.73806 0.24145 0.0
O61 O 0.7442 0.74167 0.301 0.0
O62 O 0.78911 0.73708 0.347 0.0
O63 O 0.76719 0.68654 0.34256 0.0
O64 O 0.82261 0.74708 0.27904 0.0
O65 O 0.83539 0.71673 0.31895 0.0
O66 O 0.79663 0.63349 0.3424 0.0
O67 O 0.8322 0.65822 0.29612 0.0
O68 O 0.77252 0.64679 0.24274 0.0
O69 O 0.79433 0.69652 0.25206 0.0
O70 O 0.73983 0.63287 0.31321 0.0
O71 O 0.72273 0.66412 0.28065 0.0
H72 H 0.72306 0.79252 0.27528 0.0
H73 H 0.75226 0.85194 0.27588 0.0
H74 H 0.8422 0.85311 0.25131 0.0
H75 H 0.81282 0.79401 0.24997 0.0
H76 H 0.8033 0.59392 0.2639 0.0
H77 H 0.81736 0.55119 0.25402 0.0
H78 H 0.86772 0.57616 0.36476 0.0
H79 H 0.85376 0.61858 0.37425 0.0
C80 C 0.03259 0.29816 0.26922 0.0
Eu81 Eu 0.97242 0.27594 0.29148 0.0
C82 C 0.05321 0.28328 0.26432 0.0
C83 C 0.08639 0.30126 0.27333 0.0
C84 C 0.10562 0.2866 0.27272 0.0
C85 C 0.09198 0.2535 0.26336 0.0
C86 C 0.05881 0.23578 0.25331 0.0
C87 C 0.03967 0.25053 0.25371 0.0
C88 C 0.95619 0.27701 0.36737 0.0
C89 C 0.94192 0.19941 0.31039 0.0
C90 C 0.84088 0.20245 0.32293 0.0
Eu91 Eu 0.9028 0.23395 0.30465 0.0
C92 C 0.80781 0.19554 0.31147 0.0
C93 C 0.78695 0.16683 0.29114 0.0
C94 C 0.75435 0.15765 0.28474 0.0
C95 C 0.74158 0.1768 0.29876 0.0
C96 C 0.7627 0.20602 0.31814 0.0
C97 C 0.79537 0.21523 0.32451 0.0
C98 C 0.92333 0.23903 0.22836 0.0
C99 C 0.93073 0.31127 0.29094 0.0
O100 O 1.00841 0.28904 0.24481 0.0
O101 O 0.0242 0.29983 0.30517 0.0
O102 O 0.97567 0.30227 0.34689 0.0
O103 O 0.94487 0.25154 0.34646 0.0
O104 O 0.96194 0.22332 0.28723 0.0
O105 O 0.92022 0.20262 0.33056 0.0
O106 O 0.86154 0.2311 0.33694 0.0
O107 O 0.85499 0.19057 0.30094 0.0
O108 O 0.90306 0.21173 0.2446 0.0
O109 O 0.93109 0.26126 0.25263 0.0
O110 O 0.90726 0.28358 0.30525 0.0
O111 O 0.95864 0.3142 0.27891 0.0
H112 H 0.09734 0.32654 0.2816 0.0
H113 H 0.13117 0.30122 0.27985 0.0
H114 H 0.04731 0.21023 0.2463 0.0
H115 H 1.01412 0.2361 0.24655 0.0
H116 H 0.79551 0.15077 0.28129 0.0
H117 H 0.73882 0.1348 0.2702 0.0
H118 H 0.75387 0.22161 0.32892 0.0
H119 H 0.81061 0.23734 0.3406 0.0
C120 C 0.0911 0.41875 0.76682 0.0
Eu121 Eu 0.10162 0.37294 0.79181 0.0
C122 C 0.10964 0.45364 0.75723 0.0
C123 C 0.14266 0.47253 0.76702 0.0
C124 C 0.15849 0.50642 0.76484 0.0
C125 C 0.14147 0.52214 0.75323 0.0
C126 C 0.10875 0.503 0.74176 0.0
C127 C 0.09302 0.46911 0.74376 0.0
C128 C 0.08598 0.35043 0.86627 0.0
C129 C 0.17842 0.40296 0.81171 0.0
C130 C 0.15092 0.29398 0.84555 0.0
Eu131 Eu 0.12574 0.32679 0.81591 0.0
C132 C 0.15532 0.26626 0.83586 0.0
C133 C 0.15858 0.259 0.79682 0.0
C134 C 0.16825 0.23633 0.78822 0.0
C135 C 0.17459 0.22033 0.81849 0.0
C136 C 0.16968 0.2265 0.85747 0.0
C137 C 0.16025 0.24936 0.86605 0.0
C138 C 0.11384 0.32594 0.73783 0.0
C139 C 0.05073 0.29728 0.79643 0.0
O140 O 0.09328 0.39814 0.74329 0.0
O141 O 0.09199 0.41204 0.80363 0.0
O142 O 0.06753 0.35542 0.84303 0.0
O143 O 0.11308 0.35866 0.84996 0.0
O144 O 0.15602 0.40801 0.79595 0.0
O145 O 0.1714 0.37436 0.82515 0.0
O146 O 0.12163 0.28818 0.85459 0.0
O147 O 0.16681 0.31947 0.82323 0.0
O148 O 0.1111 0.3015 0.75733 0.0
O149 O 0.12607 0.35072 0.75962 0.0
O150 O 0.07145 0.29571 0.82087 0.0
O151 O 0.0587 0.32369 0.77547 0.0
H152 H 0.15577 0.46118 0.77821 0.0
H153 H 0.18357 0.52032 0.77426 0.0
H154 H 0.09502 0.51426 0.73217 0.0
H155 H 0.06745 0.45504 0.73643 0.0
H156 H 0.15486 0.27175 0.77301 0.0
H157 H 0.17136 0.23176 0.75791 0.0
H158 H 0.17458 0.21477 0.88146 0.0
H159 H 0.1581 0.25479 0.89634 0.0
C160 C 0.36585 0.96264 0.76384 0.0
Eu161 Eu 0.30623 0.94007 0.7883 0.0
C162 C 0.3867 0.94782 0.76551 0.0
C163 C 0.37352 0.91564 0.77815 0.0
C164 C 0.39284 0.9012 0.78012 0.0
C165 C 0.42597 0.91872 0.76987 0.0
C166 C 0.43925 0.95114 0.75755 0.0
C167 C 0.41972 0.96552 0.75526 0.0
C168 C 0.29147 0.93173 0.8668 0.0
C169 C 0.26384 0.86423 0.80052 0.0
C170 C 0.17464 0.87995 0.83059 0.0
Eu171 Eu 0.23478 0.91207 0.80607 0.0
C172 C 0.14154 0.87397 0.82331 0.0
C173 C 0.13155 0.87752 0.78593 0.0
C174 C 0.09883 0.86777 0.77895 0.0
C175 C 0.0756 0.85433 0.80922 0.0
C176 C 0.0861 0.85173 0.8468 0.0
C177 C 0.1187 0.86146 0.85371 0.0
C178 C 0.25081 0.92863 0.72989 0.0
C179 C 0.27642 0.98819 0.79752 0.0
O180 O 0.34048 0.94807 0.74102 0.0
O181 O 0.35858 0.97032 0.7976 0.0
O182 O 0.31194 0.92515 0.84976 0.0
O183 O 0.2792 0.94126 0.84126 0.0
O184 O 0.28823 0.88675 0.78017 0.0
O185 O 0.24453 0.87138 0.82056 0.0
O186 O 0.19614 0.9081 0.84499 0.0
O187 O 0.18685 0.86918 0.80416 0.0
O188 O 0.22761 0.93013 0.748 0.0
O189 O 0.26223 0.91536 0.75167 0.0
O190 O 0.25139 0.96441 0.81599 0.0
O191 O 0.2988 0.98372 0.77964 0.0
H192 H 0.34825 0.90165 0.78678 0.0
H193 H 0.38193 0.87642 0.79037 0.0
H194 H 0.46463 0.96525 0.74927 0.0
H195 H 0.4304 0.99043 0.74558 0.0
H196 H 0.14885 0.88708 0.76201 0.0
H197 H 0.0917 0.87052 0.7498 0.0
H198 H 0.06893 0.84106 0.87069 0.0
H199 H 0.12589 0.85822 0.88264 0.0
C200 C 0.62802 0.67917 0.76687 0.0
Eu201 Eu 0.6659 0.73785 0.79302 0.0
C202 C 0.59237 0.65811 0.76891 0.0
C203 C 0.57768 0.6249 0.76067 0.0
C204 C 0.5438 0.60501 0.76335 0.0
C205 C 0.52404 0.61808 0.77416 0.0
C206 C 0.539 0.65143 0.78237 0.0
C207 C 0.57277 0.67117 0.77991 0.0
C208 C 0.67272 0.75074 0.87187 0.0
C209 C 0.63477 0.78193 0.80964 0.0
C210 C 0.74227 0.86738 0.83994 0.0
Eu211 Eu 0.71139 0.80818 0.81307 0.0
C212 C 0.76646 0.90051 0.82743 0.0
C213 C 0.76208 0.91436 0.79336 0.0
C214 C 0.78367 0.94686 0.78421 0.0
C215 C 0.81009 0.96612 0.80887 0.0
C216 C 0.81499 0.95179 0.84217 0.0
C217 C 0.79333 0.91938 0.8514 0.0
C218 C 0.7103 0.79477 0.73559 0.0
C219 C 0.74327 0.7646 0.80088 0.0
O220 O 0.63848 0.70513 0.74532 0.0
O221 O 0.64332 0.68537 0.80024 0.0
O222 O 0.64541 0.7311 0.8549 0.0
O223 O 0.6947 0.7628 0.84633 0.0
O224 O 0.6317 0.75767 0.78795 0.0
O225 O 0.66163 0.79983 0.8296 0.0
O226 O 0.75242 0.84673 0.84516 0.0
O227 O 0.71364 0.85421 0.8235 0.0
O228 O 0.73525 0.81753 0.75353 0.0
O229 O 0.68606 0.7829 0.75834 0.0
O230 O 0.74461 0.78829 0.82238 0.0
O231 O 0.71642 0.74418 0.78168 0.0
H232 H 0.5924 0.61434 0.75225 0.0
H233 H 0.53305 0.57947 0.75655 0.0
H234 H 0.52464 0.66223 0.79138 0.0
H235 H 0.5836 0.69667 0.78684 0.0
H236 H 0.74156 0.90037 0.77425 0.0
H237 H 0.77903 0.95714 0.7585 0.0
H238 H 0.83546 0.96569 0.86137 0.0
H239 H 0.79722 0.90921 0.87775 0.0
H240 H 0.33264 0.93138 0.92304 0.0
H241 H 0.34795 0.96176 0.98495 0.0
H242 H 0.27889 0.99342 0.96313 0.0
H243 H 0.26323 0.963 0.90171 0.0
H244 H 0.34795 0.04474 0.97927 0.0
H245 H 0.29391 0.9463 0.09051 0.0
H246 H 0.31612 0.94187 0.0504 0.0
H247 H 0.27842 0.9407 1.04119 0.0
C248 C 0.32018 0.94419 0.9319 0.0
C249 C 0.29673 0.94477 0.90737 0.0
C250 C 0.32903 0.96163 0.96722 0.0
C251 C 0.31465 0.97998 0.9786 0.0
C252 C 0.29036 0.97952 0.95492 0.0
H253 H 0.31389 0.08329 0.18399 0.0
H254 H 0.30292 0.04993 0.12538 0.0
C255 C 0.28133 0.96194 0.91987 0.0
C256 C 0.32605 1.00119 1.01388 0.0
H257 H 0.32355 1.0 0.11388 0.0
C258 C 0.34288 0.03499 1.00872 0.0
C259 C 0.31928 0.98842 0.05224 0.0
C260 C 0.3008 0.95235 0.05928 0.0
C261 C 0.35285 0.05631 1.0409 0.0
C262 C 0.34579 0.04355 0.07926 0.0
C263 C 0.32918 1.00975 0.08444 0.0
C264 C 0.35331 0.06482 0.11424 0.0
C265 C 0.36998 0.09236 1.03378 0.0
C266 C 0.38543 0.08463 0.12735 0.0
C267 C 0.39181 0.10368 0.16123 0.0
C268 C 0.36613 0.10319 0.18242 0.0
C269 C 0.33418 0.084 0.16851 0.0
C270 C 0.32783 0.06486 0.13503 0.0
H271 H 0.37044 0.0983 1.00229 0.0
H272 H 0.35786 0.10341 0.05048 0.0
H273 H 0.39543 0.10356 0.04431 0.0
H274 H 0.40547 0.08488 0.11181 0.0
H275 H 0.41664 0.1181 0.17136 0.0
H276 H 0.66178 0.74792 0.68968 0.0
H277 H 0.66878 0.72207 0.63084 0.0
H278 H 0.77277 0.78446 0.63862 0.0
H279 H 0.766 0.8091 0.69765 0.0
H280 H 0.69522 0.74727 0.56057 0.0
H281 H 0.76734 0.69816 0.62693 0.0
H282 H 0.7458 0.71304 0.65609 0.0
H283 H 0.7855 0.7407 0.63652 0.0
C284 C 0.68607 0.75562 0.67911 0.0
C285 C 0.71331 0.78007 0.6987 0.0
C286 C 0.69008 0.741 0.64541 0.0
C287 C 0.7214 0.75061 0.63088 0.0
C288 C 0.74844 0.77575 0.64989 0.0
H289 H 0.81411 0.75737 0.41912 0.0
H290 H 0.79693 0.76062 0.48577 0.0
C291 C 0.74447 0.79016 0.68344 0.0
C292 C 0.72623 0.73594 0.59474 0.0
H293 H 0.77257 0.70592 0.55652 0.0
C294 C 0.71152 0.73752 0.55988 0.0
C295 C 0.74738 0.72298 0.59373 0.0
C296 C 0.7621 0.71829 0.63044 0.0
C297 C 0.71902 0.72847 0.52384 0.0
C298 C 0.74176 0.71758 0.52261 0.0
C299 C 0.75525 0.71444 0.55757 0.0
C300 C 0.75425 0.71286 0.48479 0.0
C301 C 0.70391 0.73212 0.48688 0.0
C302 C 0.73654 0.68438 0.46274 0.0
C303 C 0.74658 0.68228 0.42468 0.0
C304 C 0.77423 0.70884 0.40814 0.0
C305 C 0.79277 0.73653 0.43119 0.0
C306 C 0.78296 0.73846 0.4692 0.0
H307 H 0.68645 0.74073 0.49275 0.0
H308 H 0.72327 0.74961 0.46699 0.0
H309 H 0.69094 0.70849 0.4714 0.0
H310 H 0.71428 0.66438 0.47434 0.0
H311 H 0.73164 0.66078 0.40743 0.0
H312 H 0.92807 0.19386 0.18235 0.0
H313 H 0.96127 0.20463 0.12264 0.0
H314 H 0.99049 0.30599 0.13038 0.0
H315 H 0.95819 0.2955 0.18971 0.0
H316 H 0.95884 0.22858 0.05213 0.0
H317 H 0.07763 0.31213 0.11806 0.0
H318 H 0.04205 0.28687 0.14731 0.0
H319 H 0.04919 0.32536 0.12904 0.0
C320 C 0.94151 0.21835 0.17105 0.0
C321 C 0.94066 0.24386 0.19069 0.0
C322 C 0.96063 0.22454 0.13715 0.0
C323 C 0.97921 0.25633 0.12257 0.0
C324 C 0.97738 0.28148 0.14166 0.0
H325 H 0.03003 0.33745 0.90139 0.0
H326 H 1.00745 0.31005 0.96289 0.0
C327 C 0.95855 0.27537 0.17538 0.0
C328 C 0.99929 0.26357 0.08634 0.0
H329 H 0.07313 0.31902 0.048 0.0
C330 C 0.98404 0.24786 0.05141 0.0
C331 C 0.03253 0.28808 0.08524 0.0
C332 C 0.05137 0.30377 0.12205 0.0
C333 C 1.0002 0.25792 1.01522 0.0
C334 C 0.03219 0.28495 1.01372 0.0
C335 C 0.04842 0.29875 0.04892 0.0
C336 C 0.04716 0.3017 0.97613 0.0
C337 C 0.98239 0.24007 0.97873 0.0
C338 C 0.07796 0.30759 0.96354 0.0
C339 C 0.09137 0.32387 0.928 0.0
C340 C 0.0742 0.33464 0.90489 0.0
C341 C 0.04385 0.32927 0.91822 0.0
C342 C 0.03066 0.31326 0.95336 0.0
H343 H 0.9648 0.21421 0.98522 0.0
H344 H 0.96836 0.25113 0.9672 0.0
H345 H 0.99947 0.24125 0.95565 0.0
H346 H 0.09138 0.29929 0.98093 0.0
H347 H 0.1148 0.32769 0.91846 0.0
H348 H 0.38354 0.09074 0.4051 0.0
H349 H 0.37843 0.06758 0.47088 0.0
H350 H 0.27801 0.04316 0.47573 0.0
H351 H 0.2829 0.06621 0.41059 0.0
H352 H 0.34867 0.07825 0.54959 0.0
H353 H 0.28369 0.95523 0.48315 0.0
H354 H 0.31094 0.991 0.45544 0.0
H355 H 0.27083 0.98312 0.4676 0.0
C356 C 0.36067 0.08127 0.4207 0.0
C357 C 0.33355 0.08016 0.4026 0.0
C358 C 0.35774 0.06788 0.45815 0.0
C359 C 0.32769 0.05323 0.47789 0.0
C360 C 0.3013 0.05404 0.46086 0.0
H361 H 0.24118 0.97481 0.69723 0.0
H362 H 0.26513 1.0058 0.6376 0.0
C363 C 0.3042 0.06737 0.42368 0.0
C364 C 0.32272 0.03499 0.51493 0.0
H365 H 0.2814 0.95819 0.55237 0.0
C366 C 0.3344 0.052 0.55021 0.0
C367 C 0.3043 1.00071 0.51567 0.0
C368 C 0.29184 0.98127 0.47848 0.0
C369 C 0.32676 0.03562 0.58636 0.0
C370 C 0.30686 1.00142 0.58719 0.0
C371 C 0.2966 0.98437 0.55176 0.0
C372 C 0.29387 0.98328 0.62447 0.0
C373 C 0.33948 0.05502 0.62351 0.0
C374 C 0.30166 0.95983 0.63679 0.0
C375 C 0.288 0.942 0.67127 0.0
C376 C 0.26587 0.94696 0.69343 0.0
C377 C 0.25803 0.97027 0.68075 0.0
C378 C 0.27193 0.98826 0.6468 0.0
H379 H 0.36089 0.07933 0.6178 0.0
H380 H 0.32012 0.0585 0.63691 0.0
H381 H 0.34639 0.04207 0.64497 0.0
H382 H 0.3183 0.95535 0.61977 0.0
H383 H 0.29435 0.9241 0.68025 0.0
H384 H 0.6306 0.70976 0.92793 0.0
H385 H 0.64519 0.69499 0.99042 0.0
H386 H 0.74621 0.76426 0.96915 0.0
H387 H 0.73191 0.77935 0.90717 0.0
H388 H 0.72806 0.69498 0.9858 0.0
H389 H 0.68324 0.75024 0.09554 0.0
H390 H 0.65703 0.72812 0.05525 0.0
H391 H 0.69384 0.76555 0.04617 0.0
C392 C 0.65581 0.72235 0.93702 0.0
C393 C 0.6801 0.74566 0.91253 0.0
C394 C 0.66412 0.71382 0.97266 0.0
C395 C 0.69681 0.72844 0.98431 0.0
C396 C 0.72087 0.75262 0.96066 0.0
H397 H 0.8004 0.73177 0.19032 0.0
H398 H 0.77801 0.74201 0.13131 0.0
C399 C 0.7126 0.76131 0.92531 0.0
C400 C 0.70641 0.71737 1.01983 0.0
H401 H 0.70774 0.72131 0.11969 0.0
C402 C 0.72337 0.70045 1.01511 0.0
C403 C 0.70039 0.72469 0.05795 0.0
C404 C 0.68277 0.74328 0.06441 0.0
C405 C 0.73478 0.69096 0.04754 0.0
C406 C 0.72909 0.69861 0.08566 0.0
C407 C 0.71186 0.71527 0.09041 0.0
C408 C 0.74285 0.69159 0.12082 0.0
C409 C 0.75377 0.67375 1.04091 0.0
C410 C 0.73072 0.65972 0.13436 0.0
C411 C 0.7434 0.65378 0.16839 0.0
C412 C 0.76839 0.67965 0.18929 0.0
C413 C 0.78097 0.71136 0.175 0.0
C414 C 0.76819 0.71728 0.14132 0.0
H415 H 0.7595 0.67311 1.00949 0.0
H416 H 0.77687 0.68585 0.05766 0.0
H417 H 0.73937 0.64845 0.05166 0.0
H418 H 0.71105 0.63955 0.11903 0.0
H419 H 0.73313 0.62913 0.17886 0.0
H420 H 0.95057 0.22815 0.4155 0.0
H421 H 0.97217 0.23474 0.48222 0.0
H422 H 0.99783 0.3353 0.48109 0.0
H423 H 0.97592 0.32869 0.41518 0.0
H424 H 0.03604 0.27533 0.49986 0.0
H425 H 0.96103 0.30981 0.58992 0.0
H426 H 0.94848 0.2917 0.54208 0.0
H427 H 0.97688 0.33441 0.54695 0.0
C428 C 0.95974 0.2513 0.43009 0.0
C429 C 0.96148 0.27789 0.41017 0.0
C430 C 0.97234 0.25515 0.46809 0.0
C431 C 0.98649 0.2855 0.48694 0.0
C432 C 0.98651 0.3115 0.46773 0.0
H433 H 0.11379 0.37276 0.6902 0.0
H434 H 0.08292 0.36372 0.62909 0.0
C435 C 0.97405 0.3077 0.4299 0.0
C436 C 1.00451 0.29116 0.52447 0.0
H437 H 1.01226 0.32157 0.61713 0.0
C438 C 0.03057 0.2851 0.52561 0.0
C439 C 0.99773 0.30433 0.55802 0.0
C440 C 0.96931 0.31016 0.55939 0.0
C441 C 0.05027 0.29231 0.55895 0.0
C442 C 0.0436 0.30562 0.59237 0.0
C443 C 1.01756 0.31167 0.59137 0.0
C444 C 0.06233 0.31163 0.62928 0.0
C445 C 0.0785 0.28615 0.5579 0.0
C446 C 0.06082 0.28546 0.6497 0.0
C447 C 0.07816 0.29056 0.68439 0.0
C448 C 0.0973 0.32198 0.69977 0.0
C449 C 0.09897 0.34831 0.67931 0.0
C450 C 0.08142 0.34314 0.64442 0.0
H451 H 0.08539 0.28388 0.52745 0.0
H452 H 0.10007 0.30594 0.57281 0.0
H453 H 0.07154 0.26315 0.57341 0.0
H454 H 0.04591 0.26092 0.63898 0.0
H455 H 0.07609 0.26966 0.69952 0.0
H456 H 0.45493 0.11695 0.35195 0.0
H457 H 0.50891 0.12305 0.34682 0.0
H458 H 0.4841 0.07562 0.2344 0.0
H459 H 0.42957 0.06963 0.23924 0.0
H460 H 0.53089 0.07833 0.33609 0.0
H461 H 0.56557 0.16478 0.21167 0.0
H462 H 0.52994 0.15353 0.24129 0.0
H463 H 0.52971 0.12571 0.20564 0.0
C464 C 0.4607 0.10735 0.32632 0.0
C465 C 0.43799 0.09291 0.29591 0.0
C466 C 0.49163 0.11087 0.32345 0.0
C467 C 0.50082 0.10033 0.28997 0.0
C468 C 0.47771 0.08441 0.26026 0.0
H469 H 0.70121 0.14635 0.23616 0.0
H470 H 0.64241 0.12493 0.23205 0.0
C471 C 0.44645 0.08065 0.26325 0.0
C472 C 0.53509 0.10761 0.28617 0.0
H473 H 0.60638 0.15624 0.23766 0.0
C474 C 0.54732 0.09508 0.31429 0.0
C475 C 0.55657 0.1295 0.25772 0.0
C476 C 0.54503 0.14443 0.22744 0.0
C477 C 0.58044 0.1043 0.31525 0.0
C478 C 0.60219 0.12724 0.28786 0.0
C479 C 0.58977 0.13882 0.25878 0.0
C480 C 0.63801 0.14055 0.29008 0.0
C481 C 0.59186 0.08941 0.34574 0.0
C482 C 0.65532 0.15711 0.32371 0.0
C483 C 0.68888 0.16929 0.32622 0.0
C484 C 0.70608 0.16539 0.29502 0.0
C485 C 0.68876 0.14942 0.26097 0.0
C486 C 0.65514 0.13728 0.25848 0.0
H487 H 0.57162 0.06578 0.35616 0.0
H488 H 0.61159 0.08563 0.33414 0.0
H489 H 0.60141 0.10592 0.37131 0.0
H490 H 0.64282 0.16058 0.34817 0.0
H491 H 0.70122 0.18113 0.35304 0.0
H492 H 0.6735 0.61503 0.23541 0.0
H493 H 0.62542 0.56054 0.22807 0.0
H494 H 0.64025 0.53617 0.34467 0.0
H495 H 0.68786 0.58997 0.35195 0.0
H496 H 0.62885 0.50228 0.23394 0.0
H497 H 0.54191 0.50219 0.34218 0.0
H498 H 0.57557 0.53913 0.32297 0.0
H499 H 0.58199 0.51756 0.36183 0.0
C500 C 0.66576 0.59832 0.25983 0.0
C501 C 0.68421 0.60676 0.29436 0.0
C502 C 0.63851 0.56716 0.25552 0.0
C503 C 0.62902 0.54434 0.28598 0.0
C504 C 0.64666 0.55345 0.32103 0.0
H505 H 0.51735 0.34501 0.34531 0.0
H506 H 0.552 0.40368 0.33974 0.0
C507 C 0.67395 0.58422 0.32512 0.0
C508 C 0.60289 0.51003 0.28053 0.0
H509 H 0.53401 0.45 0.32366 0.0
C510 C 0.60769 0.49091 0.25293 0.0
C511 C 0.57542 0.49519 0.30549 0.0
C512 C 0.56819 0.51464 0.33454 0.0
C513 C 0.58684 0.45709 0.25122 0.0
C514 C 0.56013 0.44206 0.27737 0.0
C515 C 0.55455 0.46143 0.30376 0.0
C516 C 0.53902 0.40616 0.27979 0.0
C517 C 0.59461 0.43752 0.22296 0.0
C518 C 0.51997 0.38787 0.24796 0.0
C519 C 0.50021 0.35409 0.25095 0.0
C520 C 0.49907 0.3379 0.28587 0.0
C521 C 0.51805 0.35645 0.3177 0.0
C522 C 0.53769 0.39011 0.3147 0.0
H523 H 0.61955 0.45186 0.21064 0.0
H524 H 0.59233 0.41566 0.23749 0.0
H525 H 0.5771 0.42935 0.19834 0.0
H526 H 0.52018 0.39973 0.2209 0.0
H527 H 0.48603 0.34063 0.22581 0.0
H528 H 0.87192 0.30789 0.29136 0.0
H529 H 0.86033 0.35213 0.2895 0.0
H530 H 0.96308 0.42124 0.28333 0.0
H531 H 0.97491 0.37659 0.28385 0.0
H532 H 0.87592 0.3985 0.34131 0.0
H533 H 0.93002 0.45528 0.19841 0.0
H534 H 0.92407 0.41621 0.2125 0.0
H535 H 0.95819 0.45276 0.23102 0.0
C536 C 0.89216 0.33247 0.28926 0.0
C537 C 0.92441 0.3387 0.2878 0.0
C538 C 0.88544 0.3578 0.28819 0.0
C539 C 0.91073 0.39012 0.28591 0.0
C540 C 0.94305 0.39652 0.28417 0.0
H541 H 0.90434 0.56811 0.32014 0.0
H542 H 0.92106 0.52734 0.31317 0.0
C543 C 0.94982 0.371 0.28471 0.0
C544 C 0.90282 0.41671 0.28752 0.0
H545 H 0.91096 0.48306 0.2388 0.0
C546 C 0.88353 0.41688 0.31875 0.0
C547 C 0.91271 0.4408 0.25815 0.0
C548 C 0.93213 0.44118 0.22292 0.0
C549 C 0.87388 0.44027 0.32137 0.0
C550 C 0.88376 0.46424 0.2921 0.0
C551 C 0.90338 0.46452 0.26114 0.0
C552 C 0.87401 0.48934 0.29369 0.0
C553 C 0.85329 0.43942 0.35557 0.0
C554 C 0.8421 0.48153 0.28453 0.0
C555 C 0.83244 0.50479 0.28842 0.0
C556 C 0.85449 0.53619 0.30191 0.0
C557 C 0.88664 0.54402 0.31024 0.0
C558 C 0.89632 0.52086 0.30602 0.0
H559 H 0.85087 0.42166 0.37821 0.0
H560 H 0.86395 0.4638 0.36922 0.0
H561 H 0.82861 0.43267 0.34504 0.0
H562 H 0.82455 0.45728 0.27493 0.0
H563 H 0.80751 0.49796 0.28194 0.0
H564 H 0.11473 0.55737 0.78151 0.0
H565 H 0.14059 0.61617 0.78889 0.0
H566 H 0.22947 0.62754 0.73997 0.0
H567 H 0.20361 0.56855 0.73199 0.0
H568 H 0.20055 0.6571 0.8334 0.0
H569 H 0.20989 0.6913 0.6763 0.0
H570 H 0.18168 0.65089 0.69346 0.0
H571 H 0.22423 0.66416 0.68996 0.0
C572 C 0.13961 0.57234 0.77167 0.0
C573 C 0.15699 0.55816 0.75586 0.0
C574 C 0.15444 0.60597 0.77622 0.0
C575 C 0.18687 0.62627 0.76474 0.0
C576 C 0.20431 0.61235 0.74867 0.0
H577 H 0.29862 0.83951 0.76422 0.0
H578 H 0.28335 0.78235 0.75755 0.0
C579 C 0.18955 0.57862 0.74435 0.0
C580 C 0.20247 0.6619 0.77075 0.0
H581 H 0.23043 0.73372 0.72235 0.0
C582 C 0.20723 0.6739 0.80914 0.0
C583 C 0.21149 0.6838 0.73908 0.0
C584 C 0.20648 0.67207 0.69729 0.0
C585 C 0.22046 0.70717 0.81675 0.0
C586 C 0.22833 0.72902 0.78509 0.0
C587 C 0.22438 0.71707 0.74665 0.0
C588 C 0.23887 0.76393 0.79118 0.0
C589 C 0.22612 0.71855 0.85871 0.0
C590 C 0.21904 0.77274 0.81228 0.0
C591 C 0.22781 0.80532 0.8164 0.0
C592 C 0.25644 0.82998 0.79902 0.0
C593 C 0.27647 0.8212 0.77812 0.0
C594 C 0.26772 0.7885 0.77418 0.0
H595 H 0.22959 0.70166 0.87777 0.0
H596 H 0.24775 0.74315 0.86149 0.0
H597 H 0.20451 0.71935 0.86968 0.0
H598 H 0.19624 0.75432 0.82479 0.0
H599 H 0.21157 0.81104 0.83234 0.0
H600 H 0.48757 0.94441 0.7997 0.0
H601 H 0.52008 0.91776 0.80655 0.0
H602 H 0.44299 0.83104 0.75399 0.0
H603 H 0.41047 0.85755 0.7467 0.0
H604 H 0.49908 0.85571 0.84845 0.0
H605 H 0.52752 0.85193 0.69111 0.0
H606 H 0.51543 0.87982 0.70988 0.0
H607 H 0.48567 0.83783 0.70347 0.0
C608 C 0.4777 0.91982 0.78914 0.0
C609 C 0.44642 0.90315 0.7726 0.0
C610 C 0.49622 0.90456 0.7933 0.0
C611 C 0.48404 0.8725 0.78054 0.0
C612 C 0.45298 0.85588 0.76371 0.0
H613 H 0.57553 0.75174 0.77224 0.0
H614 H 0.53628 0.77078 0.76736 0.0
C615 C 0.43435 0.87101 0.75982 0.0
C616 C 0.50348 0.85619 0.78577 0.0
H617 H 0.5455 0.82662 0.73567 0.0
C618 C 0.50925 0.84933 0.82382 0.0
C619 C 0.51633 0.8475 0.75358 0.0
C620 C 0.51121 0.85475 0.71214 0.0
C621 C 0.52758 0.83405 0.83059 0.0
C622 C 0.54133 0.82622 0.79845 0.0
C623 C 0.53501 0.83257 0.76033 0.0
C624 C 0.56376 0.81313 0.80376 0.0
C625 C 0.53158 0.82604 0.87214 0.0
C626 C 0.59224 0.83044 0.8259 0.0
C627 C 0.6145 0.81951 0.82901 0.0
C628 C 0.60914 0.79118 0.80955 0.0
C629 C 0.58039 0.77356 0.78774 0.0
C630 C 0.55797 0.78449 0.78482 0.0
H631 H 0.51124 0.82321 0.89105 0.0
H632 H 0.53281 0.8034 0.87361 0.0
H633 H 0.55446 0.84617 0.8843 0.0
H634 H 0.59779 0.85303 0.83994 0.0
H635 H 0.63647 0.83394 0.84575 0.0
H636 H 0.20684 0.46216 0.77431 0.0
H637 H 0.26513 0.50142 0.76832 0.0
H638 H 0.28699 0.44165 0.84209 0.0
H639 H 0.22913 0.40257 0.84857 0.0
H640 H 0.31631 0.53523 0.82987 0.0
H641 H 0.33577 0.45114 0.73577 0.0
H642 H 0.29608 0.44663 0.74369 0.0
H643 H 0.3142 0.43411 0.78072 0.0
C644 C 0.22395 0.45765 0.78989 0.0
C645 C 0.21315 0.42906 0.8118 0.0
C646 C 0.2573 0.48006 0.78627 0.0
C647 C 0.28036 0.47415 0.80425 0.0
C648 C 0.26961 0.44642 0.82749 0.0
H649 H 0.48935 0.55733 0.8062 0.0
H650 H 0.43026 0.52372 0.81305 0.0
C651 C 0.23643 0.42414 0.83123 0.0
C652 C 0.31574 0.49609 0.79773 0.0
H653 H 0.3829 0.49845 0.75765 0.0
C654 C 0.33091 0.52737 0.81384 0.0
C655 C 0.33466 0.48568 0.77691 0.0
C656 C 0.31942 0.45266 0.75795 0.0
C657 C 0.36475 0.5482 0.81068 0.0
C658 C 0.38377 0.53768 0.79007 0.0
C659 C 0.3684 0.50651 0.77353 0.0
C660 C 0.41968 0.55833 0.78574 0.0
C661 C 0.37992 0.58083 0.83061 0.0
C662 C 0.43347 0.58875 0.76748 0.0
C663 C 0.46726 0.60802 0.76355 0.0
C664 C 0.48802 0.59713 0.77738 0.0
C665 C 0.4741 0.56635 0.79493 0.0
C666 C 0.44031 0.54718 0.79904 0.0
H667 H 0.36378 0.58156 0.85371 0.0
H668 H 0.40361 0.58704 0.84402 0.0
H669 H 0.38428 0.59969 0.80864 0.0
H670 H 0.41809 0.59753 0.75596 0.0
H671 H 0.47712 0.63134 0.74925 0.0
H672 H 0.24806 0.09304 0.24624 0.0
H673 H 0.21003 0.11348 0.23993 0.0
H674 H 0.26117 0.1836 0.33078 0.0
H675 H 0.29953 0.16394 0.33667 0.0
H676 H 0.16825 0.1198 0.29152 0.0
H677 H 0.26447 0.24072 0.24106 0.0
H678 H 0.27074 0.20644 0.24408 0.0
H679 H 0.27373 0.22948 0.28724 0.0
C680 C 0.25107 0.11267 0.26506 0.0
C681 C 0.27713 0.12714 0.29159 0.0
C682 C 0.22932 0.12434 0.26139 0.0
C683 C 0.23324 0.15064 0.28418 0.0
C684 C 0.2582 0.16393 0.31208 0.0
H685 H 0.13918 0.26364 0.31677 0.0
H686 H 0.17205 0.23743 0.32002 0.0
C687 C 0.28002 0.15248 0.31557 0.0
C688 C 0.21183 0.16479 0.27842 0.0
H689 H 0.21365 0.23597 0.25861 0.0
C690 C 0.17812 0.14512 0.28398 0.0
C691 C 0.22467 0.1978 0.26828 0.0
C692 C 0.26034 0.21977 0.25942 0.0
C693 C 0.15712 0.15789 0.28108 0.0
C694 C 0.17017 0.19109 0.27207 0.0
C695 C 0.20374 0.21057 0.26579 0.0
C696 C 0.1496 0.20642 0.26995 0.0
C697 C 0.12127 0.13606 0.28878 0.0
C698 C 0.12628 0.19796 0.2404 0.0
C699 C 0.10766 0.21324 0.23808 0.0
C700 C 0.11201 0.23735 0.2653 0.0
C701 C 0.13548 0.24568 0.29486 0.0
C702 C 0.15415 0.23051 0.297 0.0
H703 H 0.11595 0.11276 0.30241 0.0
H704 H 0.1119 0.14827 0.30822 0.0
H705 H 0.10787 0.13058 0.26071 0.0
H706 H 0.12278 0.17983 0.21879 0.0
H707 H 0.09021 0.2065 0.21459 0.0
H708 H 0.89419 0.74405 0.33888 0.0
H709 H 0.95223 0.78233 0.33202 0.0
H710 H 0.93175 0.83842 0.25012 0.0
H711 H 0.87331 0.80024 0.25701 0.0
H712 H 0.98625 0.79498 0.26043 0.0
H713 H 0.99813 0.90737 0.32591 0.0
H714 H 0.96329 0.86779 0.3348 0.0
H715 H 0.96724 0.88802 0.28917 0.0
C716 C 0.90188 0.76475 0.3198 0.0
C717 C 0.87905 0.76901 0.29839 0.0
C718 C 0.93512 0.7866 0.3159 0.0
C719 C 0.9463 0.81328 0.29073 0.0
C720 C 0.92361 0.81823 0.27014 0.0
H721 H 0.14392 0.96041 0.22533 0.0
H722 H 0.08469 0.92703 0.23076 0.0
C723 C 0.89023 0.79632 0.27402 0.0
C724 C 0.98174 0.83443 0.28423 0.0
H725 H 0.04525 0.91141 0.29673 0.0
C726 C 0.99917 0.82044 0.26838 0.0
C727 C 0.99844 0.86767 0.29432 0.0
C728 C 0.98097 0.88368 0.31228 0.0
C729 C 0.0329 0.83877 0.26238 0.0
C730 C 0.04978 0.87184 0.27331 0.0
C731 C 0.03227 0.88601 0.28851 0.0
C732 C 0.08568 0.89194 0.26989 0.0
C733 C 0.05007 0.8226 0.24392 0.0
C734 C 0.10589 0.88346 0.29039 0.0
C735 C 0.13972 0.90245 0.28735 0.0
C736 C 0.15403 0.93052 0.26403 0.0
C737 C 0.13369 0.93909 0.24377 0.0
C738 C 0.09984 0.92001 0.24675 0.0
H739 H 0.03294 0.80056 0.22725 0.0
H740 H 0.06975 0.83943 0.22389 0.0
H741 H 0.06112 0.8151 0.26724 0.0
H742 H 0.0955 0.86232 0.30916 0.0
H743 H 0.15467 0.89553 0.30394 0.0
H744 H 0.96291 0.17429 0.25216 0.0
H745 H 0.94519 0.11668 0.24202 0.0
H746 H 0.89461 0.09336 0.35259 0.0
H747 H 0.91205 0.15047 0.36295 0.0
H748 H 0.94609 0.06372 0.29645 0.0
H749 H 0.82489 0.04782 0.26021 0.0
H750 H 0.86185 0.08669 0.25784 0.0
H751 H 0.84342 0.07 0.30432 0.0
C752 C 0.94888 0.15701 0.27484 0.0
C753 C 0.9386 0.16685 0.30818 0.0
C754 C 0.93867 0.12412 0.26892 0.0
C755 C 0.91821 0.10081 0.29632 0.0
C756 C 0.91014 0.11097 0.33096 0.0
H757 H 0.79112 0.8955 0.31713 0.0
H758 H 0.82159 0.95454 0.32271 0.0
C759 C 0.92019 0.14364 0.33683 0.0
C760 C 0.90233 0.06569 0.28742 0.0
H761 H 0.8279 1.00008 0.2679 0.0
C762 C 0.92035 0.04975 0.28978 0.0
C763 C 0.86875 0.04766 0.27876 0.0
C764 C 0.84851 0.06383 0.27479 0.0
C765 C 0.90528 0.01589 0.28512 0.0
C766 C 0.87147 0.99775 0.2773 0.0
C767 C 0.85375 1.01395 0.27403 0.0
C768 C 0.85359 0.96182 0.27379 0.0
C769 C 0.92537 0.99968 0.29008 0.0
C770 C 0.86112 0.94622 0.24409 0.0
C771 C 0.84357 0.91238 0.24066 0.0
C772 C 0.81795 0.89346 0.26672 0.0
C773 C 0.81034 0.90926 0.29621 0.0
C774 C 0.82791 0.94303 0.29962 0.0
H775 H 0.9489 0.01583 0.30476 0.0
H776 H 0.91191 0.97703 0.30739 0.0
H777 H 0.9307 0.99321 0.26087 0.0
H778 H 0.88031 0.96023 0.22324 0.0
H779 H 0.84979 0.90108 0.21726 0.0
H780 H 0.15715 0.16128 0.8509 0.0
H781 H 0.182 0.12761 0.83928 0.0
H782 H 0.24748 0.19689 0.75505 0.0
H783 H 0.22293 0.23087 0.76659 0.0
H784 H 0.195 0.10696 0.752 0.0
H785 H 0.29981 0.17883 0.85163 0.0
H786 H 0.26094 0.17612 0.86006 0.0
H787 H 0.28555 0.199 0.8194 0.0
C788 C 0.17679 0.16933 0.82985 0.0
C789 C 0.18806 0.19874 0.80968 0.0
C790 C 0.19084 0.15003 0.82314 0.0
C791 C 0.21656 0.1599 0.79641 0.0
C792 C 0.2276 0.18893 0.77575 0.0
H793 H 0.29568 0.0315 0.73666 0.0
H794 H 0.28665 0.07802 0.73146 0.0
C795 C 0.21342 0.20816 0.78224 0.0
C796 C 0.23229 0.14007 0.79109 0.0
H797 H 0.29432 0.13051 0.82572 0.0
C798 C 0.21704 0.11233 0.76748 0.0
C799 C 0.26096 0.14727 0.81147 0.0
C800 C 0.27798 0.17688 0.83719 0.0
C801 C 0.22916 0.09086 0.76481 0.0
C802 C 0.25724 0.09745 0.78629 0.0
C803 C 0.27305 0.12578 0.80894 0.0
C804 C 0.2674 0.07284 0.79016 0.0
C805 C 0.21095 0.06036 0.74077 0.0
C806 C 0.26063 0.05544 0.82521 0.0
C807 C 0.26552 0.02903 0.8281 0.0
C808 C 0.27771 0.01974 0.79616 0.0
C809 C 0.28653 0.0384 0.7618 0.0
C810 C 0.28117 0.06474 0.75872 0.0
H811 H 0.18813 0.05761 0.7283 0.0
H812 H 0.22664 0.06084 0.71633 0.0
H813 H 0.20485 0.03878 0.75901 0.0
H814 H 0.25003 0.06134 0.84978 0.0
H815 H 0.25861 0.01508 0.85496 0.0
H816 H 0.03167 0.85949 0.85645 0.0
H817 H 0.97312 0.83516 0.84686 0.0
H818 H 0.98082 0.79714 0.73532 0.0
H819 H 0.03955 0.82082 0.74501 0.0
H820 H 0.94093 0.82849 0.73723 0.0
H821 H 0.90746 0.73548 0.85261 0.0
H822 H 0.93641 0.77587 0.86814 0.0
H823 H 0.94748 0.75661 0.83067 0.0
C824 C 1.02098 0.84578 0.82996 0.0
C825 C 0.04037 0.84186 0.80171 0.0
C826 C 0.98749 0.83193 0.82451 0.0
C827 C 0.97258 0.81387 0.79071 0.0
C828 C 0.99187 0.81082 0.76173 0.0
H829 H 0.76355 0.74104 0.73987 0.0
H830 H 0.81768 0.74648 0.73208 0.0
C831 C 0.02546 0.82458 0.76723 0.0
C832 C 0.93681 0.79834 0.78613 0.0
H833 H 0.8655 0.74589 0.8317 0.0
C834 C 0.92427 0.80995 0.7573 0.0
C835 C 0.91522 0.77396 0.81216 0.0
C836 C 0.92723 0.75947 0.84243 0.0
C837 C 0.89084 0.79952 0.75571 0.0
C838 C 0.86948 0.77652 0.78331 0.0
C839 C 0.88188 0.76351 0.81057 0.0
C840 C 0.83548 0.76946 0.78839 0.0
C841 C 0.87895 0.81474 0.72624 0.0
C842 C 0.82715 0.77927 0.82313 0.0
C843 C 0.79651 0.77604 0.82766 0.0
C844 C 0.77331 0.76269 0.79766 0.0
C845 C 0.78091 0.75122 0.76357 0.0
C846 C 0.8119 0.75466 0.75893 0.0
H847 H 0.89931 0.83532 0.71054 0.0
H848 H 0.86345 0.79627 0.70431 0.0
H849 H 0.86395 0.8236 0.74086 0.0
H850 H 0.84485 0.79063 0.8463 0.0
H851 H 0.79131 0.78491 0.85438 0.0
H852 H 1.01463 0.27247 0.72967 0.0
H853 H 0.96849 0.21701 0.72143 0.0
H854 H 0.96982 0.2002 0.84517 0.0
H855 H 1.01582 0.25491 0.85335 0.0
H856 H 0.97852 0.15695 0.79366 0.0
H857 H 0.86987 0.16733 0.75649 0.0
H858 H 0.90762 0.19297 0.73129 0.0
H859 H 0.90422 0.19902 0.78246 0.0
C860 C 1.00431 0.25719 0.75517 0.0
C861 C 1.0188 0.26774 0.79208 0.0
C862 C 0.97805 0.22557 0.75045 0.0
C863 C 0.96587 0.20454 0.78272 0.0
C864 C 0.97895 0.21602 0.81992 0.0
H865 H 0.83546 0.01596 0.8616 0.0
H866 H 0.87263 0.07344 0.84904 0.0
C867 C 1.00519 0.24726 0.82454 0.0
C868 C 0.94236 0.16954 0.77789 0.0
H869 H 0.86195 0.11458 0.76373 0.0
C870 C 0.95312 0.14767 0.78657 0.0
C871 C 0.90934 0.15761 0.76848 0.0
C872 C 0.89679 0.18029 0.75926 0.0
C873 C 0.93146 0.1142 0.78764 0.0
C874 C 0.89821 0.10233 0.77999 0.0
C875 C 0.88756 0.12396 0.76957 0.0
C876 C 0.87407 0.06781 0.78644 0.0
C877 C 0.94394 0.09169 0.79835 0.0
C878 C 0.8626 0.04577 0.75524 0.0
C879 C 0.84164 1.0127 0.76234 0.0
C880 C 0.83186 1.00126 0.80078 0.0
C881 C 0.843 0.02375 0.83176 0.0
C882 C 0.86395 0.05666 0.82464 0.0
H883 H 0.97094 0.10415 0.7979 0.0
H884 H 0.93538 0.08198 0.82821 0.0
H885 H 0.93419 0.07079 0.77788 0.0
H886 H 0.87042 0.05404 0.72559 0.0
H887 H 0.83372 0.99604 0.73786 0.0
loop_
_geom_bond_atom_site_label_1
_geom_bond_atom_site_label_2
_geom_bond_distance
_geom_bond_site_symmetry_2
_ccdc_geom_bond_type
C0 Eu1 2.835 . S
C0 C2 1.500 1_545 S
C0 O20 1.257 . S
C0 O21 1.260 . S
Eu1 C0 2.835 . S
Eu1 O20 2.473 . S
Eu1 O21 2.480 . S
Eu1 O22 2.430 . S
Eu1 O23 2.670 . S
Eu1 O24 2.394 . S
Eu1 O29 2.355 . S
Eu1 O31 2.374 . S
C2 C0 1.500 1_565 S
C2 C3 1.377 . S
C2 C7 1.377 . S
C3 C2 1.377 . S
C3 C4 1.395 . S
C3 H32 0.931 . S
C4 C3 1.395 . S
C4 C5 1.383 . S
C4 H33 0.931 . S
C5 C4 1.383 . S
C5 C6 1.394 . S
C6 C5 1.394 . S
C6 C7 1.378 . S
C6 H34 0.931 . S
C7 C2 1.377 . S
C7 C6 1.378 . S
C7 H35 0.931 . S
C8 O22 1.259 . S
C8 O23 1.270 . S
C9 O24 1.251 . S
C9 O25 1.251 . S
C10 Eu11 2.835 . S
C10 C12 1.500 . S
C10 O26 1.257 . S
C10 O27 1.260 . S
Eu11 C10 2.835 . S
Eu11 O23 2.355 . S
Eu11 O25 2.374 . S
Eu11 O26 2.473 . S
Eu11 O27 2.480 . S
Eu11 O28 2.430 . S
Eu11 O29 2.670 . S
Eu11 O30 2.394 . S
C12 C10 1.500 . S
C12 C13 1.377 . S
C12 C17 1.377 . S
C13 C12 1.377 . S
C13 C14 1.395 . S
C13 H36 0.931 . S
C14 C13 1.395 . S
C14 C15 1.383 . S
C14 H37 0.931 . S
C15 C14 1.383 . S
C15 C16 1.394 . S
C16 C15 1.394 . S
C16 C17 1.378 . S
C16 H38 0.931 . S
C17 C12 1.377 . S
C17 C16 1.378 . S
C17 H39 0.931 . S
C18 O28 1.259 . S
C18 O29 1.270 . S
C19 O30 1.251 . S
C19 O31 1.251 . S
O20 C0 1.257 . S
O20 Eu1 2.473 . S
O21 C0 1.260 . S
O21 Eu1 2.480 . S
O22 Eu1 2.430 . S
O22 C8 1.259 . S
O23 Eu1 2.670 . S
O23 C8 1.270 . S
O23 Eu11 2.355 . S
O24 Eu1 2.394 . S
O24 C9 1.251 . S
O25 C9 1.251 . S
O25 Eu11 2.374 . S
O26 C10 1.257 . S
O26 Eu11 2.473 . S
O27 C10 1.260 . S
O27 Eu11 2.480 . S
O28 Eu11 2.430 . S
O28 C18 1.259 . S
O29 Eu1 2.355 . S
O29 Eu11 2.670 . S
O29 C18 1.270 . S
O30 Eu11 2.394 . S
O30 C19 1.251 . S
O31 Eu1 2.374 . S
O31 C19 1.251 . S
H32 C3 0.931 . S
H33 C4 0.931 . S
H34 C6 0.931 . S
H35 C7 0.931 . S
H36 C13 0.931 . S
H37 C14 0.931 . S
H38 C16 0.931 . S
H39 C17 0.931 . S
C40 Eu41 2.835 . S
C40 C42 1.500 . S
C40 O60 1.257 . S
C40 O61 1.260 . S
Eu41 C40 2.835 . S
Eu41 O60 2.473 . S
Eu41 O61 2.480 . S
Eu41 O62 2.430 . S
Eu41 O63 2.670 . S
Eu41 O64 2.394 . S
Eu41 O69 2.355 . S
Eu41 O71 2.374 . S
C42 C40 1.500 . S
C42 C43 1.377 . S
C42 C47 1.377 . S
C43 C42 1.377 . S
C43 C44 1.395 . S
C43 H72 0.931 . S
C44 C43 1.395 . S
C44 C45 1.383 . S
C44 H73 0.931 . S
C45 C44 1.383 . S
C45 C46 1.394 . S
C46 C45 1.394 . S
C46 C47 1.378 . S
C46 H74 0.931 . S
C47 C42 1.377 . S
C47 C46 1.378 . S
C47 H75 0.931 . S
C48 O62 1.259 . S
C48 O63 1.270 . S
C49 O64 1.251 . S
C49 O65 1.251 . S
C50 Eu51 2.835 . S
C50 C52 1.500 . S
C50 O66 1.257 . S
C50 O67 1.260 . S
Eu51 C50 2.835 . S
Eu51 O63 2.355 . S
Eu51 O65 2.374 . S
Eu51 O66 2.473 . S
Eu51 O67 2.480 . S
Eu51 O68 2.430 . S
Eu51 O69 2.670 . S
Eu51 O70 2.394 . S
C52 C50 1.500 . S
C52 C53 1.377 . S
C52 C57 1.377 . S
C53 C52 1.377 . S
C53 C54 1.395 . S
C53 H76 0.931 . S
C54 C53 1.395 . S
C54 C55 1.383 . S
C54 H77 0.931 . S
C55 C54 1.383 . S
C55 C56 1.394 . S
C56 C55 1.394 . S
C56 C57 1.378 . S
C56 H78 0.931 . S
C57 C52 1.377 . S
C57 C56 1.378 . S
C57 H79 0.931 . S
C58 O68 1.259 . S
C58 O69 1.270 . S
C59 O70 1.251 . S
C59 O71 1.251 . S
O60 C40 1.257 . S
O60 Eu41 2.473 . S
O61 C40 1.260 . S
O61 Eu41 2.480 . S
O62 Eu41 2.430 . S
O62 C48 1.259 . S
O63 Eu41 2.670 . S
O63 C48 1.270 . S
O63 Eu51 2.355 . S
O64 Eu41 2.394 . S
O64 C49 1.251 . S
O65 C49 1.251 . S
O65 Eu51 2.374 . S
O66 C50 1.257 . S
O66 Eu51 2.473 . S
O67 C50 1.260 . S
O67 Eu51 2.480 . S
O68 Eu51 2.430 . S
O68 C58 1.259 . S
O69 Eu41 2.355 . S
O69 Eu51 2.670 . S
O69 C58 1.270 . S
O70 Eu51 2.394 . S
O70 C59 1.251 . S
O71 Eu41 2.374 . S
O71 C59 1.251 . S
H72 C43 0.931 . S
H73 C44 0.931 . S
H74 C46 0.931 . S
H75 C47 0.931 . S
H76 C53 0.931 . S
H77 C54 0.931 . S
H78 C56 0.931 . S
H79 C57 0.931 . S
C80 Eu81 2.835 . S
C80 C82 1.500 1_655 S
C80 O100 1.257 . S
C80 O101 1.260 . S
Eu81 C80 2.835 . S
Eu81 O100 2.473 . S
Eu81 O101 2.480 . S
Eu81 O102 2.430 . S
Eu81 O103 2.670 . S
Eu81 O104 2.394 . S
Eu81 O109 2.355 . S
Eu81 O111 2.374 . S
C82 C80 1.500 1_455 S
C82 C83 1.377 . S
C82 C87 1.377 . S
C83 C82 1.377 . S
C83 C84 1.395 . S
C83 H112 0.931 . S
C84 C83 1.395 . S
C84 C85 1.383 . S
C84 H113 0.931 . S
C85 C84 1.383 . S
C85 C86 1.394 . S
C86 C85 1.394 . S
C86 C87 1.378 . S
C86 H114 0.931 . S
C87 C82 1.377 . S
C87 C86 1.378 . S
C87 H115 0.931 . S
C88 O102 1.259 . S
C88 O103 1.270 . S
C89 O104 1.251 . S
C89 O105 1.251 . S
C90 Eu91 2.835 . S
C90 C92 1.500 . S
C90 O106 1.257 . S
C90 O107 1.260 . S
Eu91 C90 2.835 . S
Eu91 O103 2.355 . S
Eu91 O105 2.374 . S
Eu91 O106 2.473 . S
Eu91 O107 2.480 . S
Eu91 O108 2.430 . S
Eu91 O109 2.670 . S
Eu91 O110 2.394 . S
C92 C90 1.500 . S
C92 C93 1.377 . S
C92 C97 1.377 . S
C93 C92 1.377 . S
C93 C94 1.395 . S
C93 H116 0.931 . S
C94 C93 1.395 . S
C94 C95 1.383 . S
C94 H117 0.931 . S
C95 C94 1.383 . S
C95 C96 1.394 . S
C96 C95 1.394 . S
C96 C97 1.378 . S
C96 H118 0.931 . S
C97 C92 1.377 . S
C97 C96 1.378 . S
C97 H119 0.931 . S
C98 O108 1.259 . S
C98 O109 1.270 . S
C99 O110 1.251 . S
C99 O111 1.251 . S
O100 C80 1.257 . S
O100 Eu81 2.473 . S
O101 C80 1.260 . S
O101 Eu81 2.480 . S
O102 Eu81 2.430 . S
O102 C88 1.259 . S
O103 Eu81 2.670 . S
O103 C88 1.270 . S
O103 Eu91 2.355 . S
O104 Eu81 2.394 . S
O104 C89 1.251 . S
O105 C89 1.251 . S
O105 Eu91 2.374 . S
O106 C90 1.257 . S
O106 Eu91 2.473 . S
O107 C90 1.260 . S
O107 Eu91 2.480 . S
O108 Eu91 2.430 . S
O108 C98 1.259 . S
O109 Eu81 2.355 . S
O109 Eu91 2.670 . S
O109 C98 1.270 . S
O110 Eu91 2.394 . S
O110 C99 1.251 . S
O111 Eu81 2.374 . S
O111 C99 1.251 . S
H112 C83 0.931 . S
H113 C84 0.931 . S
H114 C86 0.931 . S
H115 C87 0.931 . S
H116 C93 0.931 . S
H117 C94 0.931 . S
H118 C96 0.931 . S
H119 C97 0.931 . S
C120 Eu121 2.835 . S
C120 C122 1.500 . S
C120 O140 1.257 . S
C120 O141 1.260 . S
Eu121 C120 2.835 . S
Eu121 O140 2.473 . S
Eu121 O141 2.480 . S
Eu121 O142 2.430 . S
Eu121 O143 2.670 . S
Eu121 O144 2.394 . S
Eu121 O149 2.355 . S
Eu121 O151 2.374 . S
C122 C120 1.500 . S
C122 C123 1.377 . S
C122 C127 1.377 . S
C123 C122 1.377 . S
C123 C124 1.395 . S
C123 H152 0.931 . S
C124 C123 1.395 . S
C124 C125 1.383 . S
C124 H153 0.931 . S
C125 C124 1.383 . S
C125 C126 1.394 . S
C126 C125 1.394 . S
C126 C127 1.378 . S
C126 H154 0.931 . S
C127 C122 1.377 . S
C127 C126 1.378 . S
C127 H155 0.931 . S
C128 O142 1.259 . S
C128 O143 1.270 . S
C129 O144 1.251 . S
C129 O145 1.251 . S
C130 Eu131 2.835 . S
C130 C132 1.500 . S
C130 O146 1.257 . S
C130 O147 1.260 . S
Eu131 C130 2.835 . S
Eu131 O143 2.355 . S
Eu131 O145 2.374 . S
Eu131 O146 2.473 . S
Eu131 O147 2.480 . S
Eu131 O148 2.430 . S
Eu131 O149 2.670 . S
Eu131 O150 2.394 . S
C132 C130 1.500 . S
C132 C133 1.377 . S
C132 C137 1.377 . S
C133 C132 1.377 . S
C133 C134 1.395 . S
C133 H156 0.931 . S
C134 C133 1.395 . S
C134 C135 1.383 . S
C134 H157 0.931 . S
C135 C134 1.383 . S
C135 C136 1.394 . S
C136 C135 1.394 . S
C136 C137 1.378 . S
C136 H158 0.931 . S
C137 C132 1.377 . S
C137 C136 1.378 . S
C137 H159 0.931 . S
C138 O148 1.259 . S
C138 O149 1.270 . S
C139 O150 1.251 . S
C139 O151 1.251 . S
O140 C120 1.257 . S
O140 Eu121 2.473 . S
O141 C120 1.260 . S
O141 Eu121 2.480 . S
O142 Eu121 2.430 . S
O142 C128 1.259 . S
O143 Eu121 2.670 . S
O143 C128 1.270 . S
O143 Eu131 2.355 . S
O144 Eu121 2.394 . S
O144 C129 1.251 . S
O145 C129 1.251 . S
O145 Eu131 2.374 . S
O146 C130 1.257 . S
O146 Eu131 2.473 . S
O147 C130 1.260 . S
O147 Eu131 2.480 . S
O148 Eu131 2.430 . S
O148 C138 1.259 . S
O149 Eu121 2.355 . S
O149 Eu131 2.670 . S
O149 C138 1.270 . S
O150 Eu131 2.394 . S
O150 C139 1.251 . S
O151 Eu121 2.374 . S
O151 C139 1.251 . S
H152 C123 0.931 . S
H153 C124 0.931 . S
H154 C126 0.931 . S
H155 C127 0.931 . S
H156 C133 0.931 . S
H157 C134 0.931 . S
H158 C136 0.931 . S
H159 C137 0.931 . S
C160 Eu161 2.835 . S
C160 C162 1.500 . S
C160 O180 1.257 . S
C160 O181 1.260 . S
Eu161 C160 2.835 . S
Eu161 O180 2.473 . S
Eu161 O181 2.480 . S
Eu161 O182 2.430 . S
Eu161 O183 2.670 . S
Eu161 O184 2.394 . S
Eu161 O189 2.355 . S
Eu161 O191 2.374 . S
C162 C160 1.500 . S
C162 C163 1.377 . S
C162 C167 1.377 . S
C163 C162 1.377 . S
C163 C164 1.395 . S
C163 H192 0.931 . S
C164 C163 1.395 . S
C164 C165 1.383 . S
C164 H193 0.931 . S
C165 C164 1.383 . S
C165 C166 1.394 . S
C166 C165 1.394 . S
C166 C167 1.378 . S
C166 H194 0.931 . S
C167 C162 1.377 . S
C167 C166 1.378 . S
C167 H195 0.931 . S
C168 O182 1.259 . S
C168 O183 1.270 . S
C169 O184 1.251 . S
C169 O185 1.251 . S
C170 Eu171 2.835 . S
C170 C172 1.500 . S
C170 O186 1.257 . S
C170 O187 1.260 . S
Eu171 C170 2.835 . S
Eu171 O183 2.355 . S
Eu171 O185 2.374 . S
Eu171 O186 2.473 . S
Eu171 O187 2.480 . S
Eu171 O188 2.430 . S
Eu171 O189 2.670 . S
Eu171 O190 2.394 . S
C172 C170 1.500 . S
C172 C173 1.377 . S
C172 C177 1.377 . S
C173 C172 1.377 . S
C173 C174 1.395 . S
C173 H196 0.931 . S
C174 C173 1.395 . S
C174 C175 1.383 . S
C174 H197 0.931 . S
C175 C174 1.383 . S
C175 C176 1.394 . S
C176 C175 1.394 . S
C176 C177 1.378 . S
C176 H198 0.931 . S
C177 C172 1.377 . S
C177 C176 1.378 . S
C177 H199 0.931 . S
C178 O188 1.259 . S
C178 O189 1.270 . S
C179 O190 1.251 . S
C179 O191 1.251 . S
O180 C160 1.257 . S
O180 Eu161 2.473 . S
O181 C160 1.260 . S
O181 Eu161 2.480 . S
O182 Eu161 2.430 . S
O182 C168 1.259 . S
O183 Eu161 2.670 . S
O183 C168 1.270 . S
O183 Eu171 2.355 . S
O184 Eu161 2.394 . S
O184 C169 1.251 . S
O185 C169 1.251 . S
O185 Eu171 2.374 . S
O186 C170 1.257 . S
O186 Eu171 2.473 . S
O187 C170 1.260 . S
O187 Eu171 2.480 . S
O188 Eu171 2.430 . S
O188 C178 1.259 . S
O189 Eu161 2.355 . S
O189 Eu171 2.670 . S
O189 C178 1.270 . S
O190 Eu171 2.394 . S
O190 C179 1.251 . S
O191 Eu161 2.374 . S
O191 C179 1.251 . S
H192 C163 0.931 . S
H193 C164 0.931 . S
H194 C166 0.931 . S
H195 C167 0.931 . S
H196 C173 0.931 . S
H197 C174 0.931 . S
H198 C176 0.931 . S
H199 C177 0.931 . S
C200 Eu201 2.835 . S
C200 C202 1.500 . S
C200 O220 1.257 . S
C200 O221 1.260 . S
Eu201 C200 2.835 . S
Eu201 O220 2.473 . S
Eu201 O221 2.480 . S
Eu201 O222 2.430 . S
Eu201 O223 2.670 . S
Eu201 O224 2.394 . S
Eu201 O229 2.355 . S
Eu201 O231 2.374 . S
C202 C200 1.500 . S
C202 C203 1.377 . S
C202 C207 1.377 . S
C203 C202 1.377 . S
C203 C204 1.395 . S
C203 H232 0.931 . S
C204 C203 1.395 . S
C204 C205 1.383 . S
C204 H233 0.931 . S
C205 C204 1.383 . S
C205 C206 1.394 . S
C206 C205 1.394 . S
C206 C207 1.378 . S
C206 H234 0.931 . S
C207 C202 1.377 . S
C207 C206 1.378 . S
C207 H235 0.931 . S
C208 O222 1.259 . S
C208 O223 1.270 . S
C209 O224 1.251 . S
C209 O225 1.251 . S
C210 Eu211 2.835 . S
C210 C212 1.500 . S
C210 O226 1.257 . S
C210 O227 1.260 . S
Eu211 C210 2.835 . S
Eu211 O223 2.355 . S
Eu211 O225 2.374 . S
Eu211 O226 2.473 . S
Eu211 O227 2.480 . S
Eu211 O228 2.430 . S
Eu211 O229 2.670 . S
Eu211 O230 2.394 . S
C212 C210 1.500 . S
C212 C213 1.377 . S
C212 C217 1.377 . S
C213 C212 1.377 . S
C213 C214 1.395 . S
C213 H236 0.931 . S
C214 C213 1.395 . S
C214 C215 1.383 . S
C214 H237 0.931 . S
C215 C214 1.383 . S
C215 C216 1.394 . S
C216 C215 1.394 . S
C216 C217 1.378 . S
C216 H238 0.931 . S
C217 C212 1.377 . S
C217 C216 1.378 . S
C217 H239 0.931 . S
C218 O228 1.259 . S
C218 O229 1.270 . S
C219 O230 1.251 . S
C219 O231 1.251 . S
O220 C200 1.257 . S
O220 Eu201 2.473 . S
O221 C200 1.260 . S
O221 Eu201 2.480 . S
O222 Eu201 2.430 . S
O222 C208 1.259 . S
O223 Eu201 2.670 . S
O223 C208 1.270 . S
O223 Eu211 2.355 . S
O224 Eu201 2.394 . S
O224 C209 1.251 . S
O225 C209 1.251 . S
O225 Eu211 2.374 . S
O226 C210 1.257 . S
O226 Eu211 2.473 . S
O227 C210 1.260 . S
O227 Eu211 2.480 . S
O228 Eu211 2.430 . S
O228 C218 1.259 . S
O229 Eu201 2.355 . S
O229 Eu211 2.670 . S
O229 C218 1.270 . S
O230 Eu211 2.394 . S
O230 C219 1.251 . S
O231 Eu201 2.374 . S
O231 C219 1.251 . S
H232 C203 0.931 . S
H233 C204 0.931 . S
H234 C206 0.931 . S
H235 C207 0.931 . S
H236 C213 0.931 . S
H237 C214 0.931 . S
H238 C216 0.931 . S
H239 C217 0.931 . S
H240 C248 0.929 . S
H241 C250 0.930 . S
H242 C252 0.930 . S
H243 C255 0.929 . S
H244 C258 0.930 . S
H245 C260 0.960 . S
H246 C260 0.960 1_556 S
H247 C260 0.960 . S
C248 H240 0.929 . S
C248 C249 1.377 . S
C248 C250 1.384 . S
C249 C248 1.377 . S
C249 C255 1.390 . S
C250 H241 0.930 . S
C250 C248 1.384 . S
C250 C251 1.372 . S
C251 C250 1.372 . S
C251 C252 1.400 . S
C251 C256 1.490 . S
C252 H242 0.930 . S
C252 C251 1.400 . S
C252 C255 1.386 . S
H253 C269 0.930 . S
H254 C270 0.931 . S
C255 H243 0.929 . S
C255 C249 1.390 . S
C255 C252 1.386 . S
C256 C251 1.490 . S
C256 C258 1.395 1_565 S
C256 C259 1.403 1_556 S
H257 C263 0.930 . S
C258 H244 0.930 . S
C258 C256 1.395 1_545 S
C258 C261 1.403 . S
C259 C256 1.403 1_554 S
C259 C260 1.524 . S
C259 C263 1.400 . S
C260 H245 0.960 . S
C260 H246 0.960 1_554 S
C260 H247 0.960 . S
C260 C259 1.524 . S
C261 C258 1.403 . S
C261 C262 1.392 1_556 S
C261 C265 1.495 . S
C262 C261 1.392 1_554 S
C262 C263 1.385 1_545 S
C262 C264 1.478 . S
C263 H257 0.930 . S
C263 C259 1.400 . S
C263 C262 1.385 1_565 S
C264 C262 1.478 . S
C264 C266 1.381 . S
C264 C270 1.383 . S
C265 C261 1.495 . S
C265 H271 0.959 . S
C265 H272 0.961 1_556 S
C265 H273 0.960 . S
C266 C264 1.381 . S
C266 C267 1.394 . S
C266 H274 0.930 . S
C267 C266 1.394 . S
C267 C268 1.383 . S
C267 H275 0.929 . S
C268 C267 1.383 . S
C268 C269 1.377 . S
C269 H253 0.930 . S
C269 C268 1.377 . S
C269 C270 1.379 . S
C270 H254 0.931 . S
C270 C264 1.383 . S
C270 C269 1.379 . S
H271 C265 0.959 . S
H272 C265 0.961 1_554 S
H273 C265 0.960 . S
H274 C266 0.930 . S
H275 C267 0.929 . S
H276 C284 0.929 . S
H277 C286 0.930 . S
H278 C288 0.930 . S
H279 C291 0.929 . S
H280 C294 0.930 . S
H281 C296 0.960 . S
H282 C296 0.960 . S
H283 C296 0.960 . S
C284 H276 0.929 . S
C284 C285 1.377 . S
C284 C286 1.384 . S
C285 C284 1.377 . S
C285 C291 1.390 . S
C286 H277 0.930 . S
C286 C284 1.384 . S
C286 C287 1.372 . S
C287 C286 1.372 . S
C287 C288 1.400 . S
C287 C292 1.490 . S
C288 H278 0.930 . S
C288 C287 1.400 . S
C288 C291 1.386 . S
H289 C305 0.930 . S
H290 C306 0.931 . S
C291 H279 0.929 . S
C291 C285 1.390 . S
C291 C288 1.386 . S
C292 C287 1.490 . S
C292 C294 1.395 . S
C292 C295 1.403 . S
H293 C299 0.930 . S
C294 H280 0.930 . S
C294 C292 1.395 . S
C294 C297 1.403 . S
C295 C292 1.403 . S
C295 C296 1.524 . S
C295 C299 1.400 . S
C296 H281 0.960 . S
C296 H282 0.960 . S
C296 H283 0.960 . S
C296 C295 1.524 . S
C297 C294 1.403 . S
C297 C298 1.392 . S
C297 C301 1.495 . S
C298 C297 1.392 . S
C298 C299 1.385 . S
C298 C300 1.478 . S
C299 H293 0.930 . S
C299 C295 1.400 . S
C299 C298 1.385 . S
C300 C298 1.478 . S
C300 C302 1.381 . S
C300 C306 1.383 . S
C301 C297 1.495 . S
C301 H307 0.959 . S
C301 H308 0.961 . S
C301 H309 0.960 . S
C302 C300 1.381 . S
C302 C303 1.394 . S
C302 H310 0.930 . S
C303 C302 1.394 . S
C303 C304 1.383 . S
C303 H311 0.929 . S
C304 C303 1.383 . S
C304 C305 1.377 . S
C305 H289 0.930 . S
C305 C304 1.377 . S
C305 C306 1.379 . S
C306 H290 0.931 . S
C306 C300 1.383 . S
C306 C305 1.379 . S
H307 C301 0.959 . S
H308 C301 0.961 . S
H309 C301 0.960 . S
H310 C302 0.930 . S
H311 C303 0.929 . S
H312 C320 0.929 . S
H313 C322 0.930 . S
H314 C324 0.930 . S
H315 C327 0.929 . S
H316 C330 0.930 . S
H317 C332 0.960 . S
H318 C332 0.960 . S
H319 C332 0.960 . S
C320 H312 0.929 . S
C320 C321 1.377 . S
C320 C322 1.384 . S
C321 C320 1.377 . S
C321 C327 1.390 . S
C322 H313 0.930 . S
C322 C320 1.384 . S
C322 C323 1.372 . S
C323 C322 1.372 . S
C323 C324 1.400 . S
C323 C328 1.490 . S
C324 H314 0.930 . S
C324 C323 1.400 . S
C324 C327 1.386 . S
H325 C341 0.930 . S
H326 C342 0.931 . S
C327 H315 0.929 . S
C327 C321 1.390 . S
C327 C324 1.386 . S
C328 C323 1.490 . S
C328 C330 1.395 1_554 S
C328 C331 1.403 1_655 S
H329 C335 0.930 . S
C330 H316 0.930 . S
C330 C328 1.395 1_556 S
C330 C333 1.403 . S
C331 C328 1.403 1_455 S
C331 C332 1.524 . S
C331 C335 1.400 1_554 S
C332 H317 0.960 . S
C332 H318 0.960 . S
C332 H319 0.960 . S
C332 C331 1.524 . S
C333 C330 1.403 . S
C333 C334 1.392 1_655 S
C333 C337 1.495 . S
C334 C333 1.392 1_455 S
C334 C335 1.385 . S
C334 C336 1.478 . S
C335 H329 0.930 . S
C335 C331 1.400 1_556 S
C335 C334 1.385 . S
C336 C334 1.478 . S
C336 C338 1.381 . S
C336 C342 1.383 . S
C337 C333 1.495 . S
C337 H343 0.959 . S
C337 H344 0.961 . S
C337 H345 0.960 . S
C338 C336 1.381 . S
C338 C339 1.394 . S
C338 H346 0.930 . S
C339 C338 1.394 . S
C339 C340 1.383 . S
C339 H347 0.929 . S
C340 C339 1.383 . S
C340 C341 1.377 . S
C341 H325 0.930 . S
C341 C340 1.377 . S
C341 C342 1.379 . S
C342 H326 0.931 . S
C342 C336 1.383 . S
C342 C341 1.379 . S
H343 C337 0.959 . S
H344 C337 0.961 . S
H345 C337 0.960 . S
H346 C338 0.930 . S
H347 C339 0.929 . S
H348 C356 0.929 . S
H349 C358 0.930 . S
H350 C360 0.930 . S
H351 C363 0.929 . S
H352 C366 0.930 . S
H353 C368 0.960 . S
H354 C368 0.960 . S
H355 C368 0.960 . S
C356 H348 0.929 . S
C356 C357 1.377 . S
C356 C358 1.384 . S
C357 C356 1.377 . S
C357 C363 1.390 . S
C358 H349 0.930 . S
C358 C356 1.384 . S
C358 C359 1.372 . S
C359 C358 1.372 . S
C359 C360 1.400 . S
C359 C364 1.490 . S
C360 H350 0.930 . S
C360 C359 1.400 . S
C360 C363 1.386 . S
H361 C377 0.930 . S
H362 C378 0.931 . S
C363 H351 0.929 . S
C363 C357 1.390 . S
C363 C360 1.386 . S
C364 C359 1.490 . S
C364 C366 1.395 . S
C364 C367 1.403 1_545 S
H365 C371 0.930 . S
C366 H352 0.930 . S
C366 C364 1.395 . S
C366 C369 1.403 . S
C367 C364 1.403 1_565 S
C367 C368 1.524 . S
C367 C371 1.400 . S
C368 H353 0.960 . S
C368 H354 0.960 . S
C368 H355 0.960 . S
C368 C367 1.524 . S
C369 C366 1.403 . S
C369 C370 1.392 1_545 S
C369 C373 1.495 . S
C370 C369 1.392 1_565 S
C370 C371 1.385 . S
C370 C372 1.478 . S
C371 H365 0.930 . S
C371 C367 1.400 . S
C371 C370 1.385 . S
C372 C370 1.478 . S
C372 C374 1.381 . S
C372 C378 1.383 . S
C373 C369 1.495 . S
C373 H379 0.959 . S
C373 H380 0.961 . S
C373 H381 0.960 . S
C374 C372 1.381 . S
C374 C375 1.394 . S
C374 H382 0.930 . S
C375 C374 1.394 . S
C375 C376 1.383 . S
C375 H383 0.929 . S
C376 C375 1.383 . S
C376 C377 1.377 . S
C377 H361 0.930 . S
C377 C376 1.377 . S
C377 C378 1.379 . S
C378 H362 0.931 . S
C378 C372 1.383 . S
C378 C377 1.379 . S
H379 C373 0.959 . S
H380 C373 0.961 . S
H381 C373 0.960 . S
H382 C374 0.930 . S
H383 C375 0.929 . S
H384 C392 0.929 . S
H385 C394 0.930 . S
H386 C396 0.930 . S
H387 C399 0.929 . S
H388 C402 0.930 . S
H389 C404 0.960 . S
H390 C404 0.960 1_556 S
H391 C404 0.960 . S
C392 H384 0.929 . S
C392 C393 1.377 . S
C392 C394 1.384 . S
C393 C392 1.377 . S
C393 C399 1.390 . S
C394 H385 0.930 . S
C394 C392 1.384 . S
C394 C395 1.372 . S
C395 C394 1.372 . S
C395 C396 1.400 . S
C395 C400 1.490 . S
C396 H386 0.930 . S
C396 C395 1.400 . S
C396 C399 1.386 . S
H397 C413 0.930 . S
H398 C414 0.931 . S
C399 H387 0.929 . S
C399 C393 1.390 . S
C399 C396 1.386 . S
C400 C395 1.490 . S
C400 C402 1.395 . S
C400 C403 1.403 1_556 S
H401 C407 0.930 . S
C402 H388 0.930 . S
C402 C400 1.395 . S
C402 C405 1.403 . S
C403 C400 1.403 1_554 S
C403 C404 1.524 . S
C403 C407 1.400 . S
C404 H389 0.960 . S
C404 H390 0.960 1_554 S
C404 H391 0.960 . S
C404 C403 1.524 . S
C405 C402 1.403 . S
C405 C406 1.392 1_556 S
C405 C409 1.495 . S
C406 C405 1.392 1_554 S
C406 C407 1.385 . S
C406 C408 1.478 . S
C407 H401 0.930 . S
C407 C403 1.400 . S
C407 C406 1.385 . S
C408 C406 1.478 . S
C408 C410 1.381 . S
C408 C414 1.383 . S
C409 C405 1.495 . S
C409 H415 0.959 . S
C409 H416 0.944 1_556 S
C409 H417 0.960 . S
C410 C408 1.381 . S
C410 C411 1.394 . S
C410 H418 0.930 . S
C411 C410 1.394 . S
C411 C412 1.383 . S
C411 H419 0.929 . S
C412 C411 1.383 . S
C412 C413 1.377 . S
C413 H397 0.930 . S
C413 C412 1.377 . S
C413 C414 1.379 . S
C414 H398 0.931 . S
C414 C408 1.383 . S
C414 C413 1.379 . S
H415 C409 0.959 . S
H416 C409 0.944 1_554 S
H417 C409 0.960 . S
H418 C410 0.930 . S
H419 C411 0.929 . S
H420 C428 0.929 . S
H421 C430 0.930 . S
H422 C432 0.930 . S
H423 C435 0.929 . S
H424 C438 0.930 . S
H425 C440 0.960 . S
H426 C440 0.960 . S
H427 C440 0.960 . S
C428 H420 0.929 . S
C428 C429 1.377 . S
C428 C430 1.384 . S
C429 C428 1.377 . S
C429 C435 1.390 . S
C430 H421 0.930 . S
C430 C428 1.384 . S
C430 C431 1.372 . S
C431 C430 1.372 . S
C431 C432 1.400 . S
C431 C436 1.490 . S
C432 H422 0.930 . S
C432 C431 1.400 . S
C432 C435 1.386 . S
H433 C449 0.930 . S
H434 C450 0.931 . S
C435 H423 0.929 . S
C435 C429 1.390 . S
C435 C432 1.386 . S
C436 C431 1.490 . S
C436 C438 1.395 1_655 S
C436 C439 1.403 . S
H437 C443 0.930 . S
C438 H424 0.930 . S
C438 C436 1.395 1_455 S
C438 C441 1.403 . S
C439 C436 1.403 . S
C439 C440 1.524 . S
C439 C443 1.400 . S
C440 H425 0.960 . S
C440 H426 0.960 . S
C440 H427 0.960 . S
C440 C439 1.524 . S
C441 C438 1.403 . S
C441 C442 1.392 . S
C441 C445 1.495 . S
C442 C441 1.392 . S
C442 C443 1.385 1_455 S
C442 C444 1.478 . S
C443 H437 0.930 . S
C443 C439 1.400 . S
C443 C442 1.385 1_655 S
C444 C442 1.478 . S
C444 C446 1.381 . S
C444 C450 1.383 . S
C445 C441 1.495 . S
C445 H451 0.959 . S
C445 H452 0.961 . S
C445 H453 0.960 . S
C446 C444 1.381 . S
C446 C447 1.394 . S
C446 H454 0.930 . S
C447 C446 1.394 . S
C447 C448 1.383 . S
C447 H455 0.929 . S
C448 C447 1.383 . S
C448 C449 1.377 . S
C449 H433 0.930 . S
C449 C448 1.377 . S
C449 C450 1.379 . S
C450 H434 0.931 . S
C450 C444 1.383 . S
C450 C449 1.379 . S
H451 C445 0.959 . S
H452 C445 0.961 . S
H453 C445 0.960 . S
H454 C446 0.930 . S
H455 C447 0.929 . S
H456 C464 0.929 . S
H457 C466 0.930 . S
H458 C468 0.930 . S
H459 C471 0.929 . S
H460 C474 0.930 . S
H461 C476 0.960 . S
H462 C476 0.960 . S
H463 C476 0.960 . S
C464 H456 0.929 . S
C464 C465 1.377 . S
C464 C466 1.384 . S
C465 C464 1.377 . S
C465 C471 1.390 . S
C466 H457 0.930 . S
C466 C464 1.384 . S
C466 C467 1.372 . S
C467 C466 1.372 . S
C467 C468 1.400 . S
C467 C472 1.490 . S
C468 H458 0.930 . S
C468 C467 1.400 . S
C468 C471 1.386 . S
H469 C485 0.930 . S
H470 C486 0.931 . S
C471 H459 0.929 . S
C471 C465 1.390 . S
C471 C468 1.386 . S
C472 C467 1.490 . S
C472 C474 1.395 . S
C472 C475 1.403 . S
H473 C479 0.930 . S
C474 H460 0.930 . S
C474 C472 1.395 . S
C474 C477 1.403 . S
C475 C472 1.403 . S
C475 C476 1.524 . S
C475 C479 1.400 . S
C476 H461 0.960 . S
C476 H462 0.960 . S
C476 H463 0.960 . S
C476 C475 1.524 . S
C477 C474 1.403 . S
C477 C478 1.392 . S
C477 C481 1.495 . S
C478 C477 1.392 . S
C478 C479 1.385 . S
C478 C480 1.478 . S
C479 H473 0.930 . S
C479 C475 1.400 . S
C479 C478 1.385 . S
C480 C478 1.478 . S
C480 C482 1.381 . S
C480 C486 1.383 . S
C481 C477 1.495 . S
C481 H487 0.959 . S
C481 H488 0.961 . S
C481 H489 0.960 . S
C482 C480 1.381 . S
C482 C483 1.394 . S
C482 H490 0.930 . S
C483 C482 1.394 . S
C483 C484 1.383 . S
C483 H491 0.929 . S
C484 C483 1.383 . S
C484 C485 1.377 . S
C485 H469 0.930 . S
C485 C484 1.377 . S
C485 C486 1.379 . S
C486 H470 0.931 . S
C486 C480 1.383 . S
C486 C485 1.379 . S
H487 C481 0.959 . S
H488 C481 0.961 . S
H489 C481 0.960 . S
H490 C482 0.930 . S
H491 C483 0.929 . S
H492 C500 0.929 . S
H493 C502 0.930 . S
H494 C504 0.930 . S
H495 C507 0.929 . S
H496 C510 0.930 . S
H497 C512 0.960 . S
H498 C512 0.960 . S
H499 C512 0.960 . S
C500 H492 0.929 . S
C500 C501 1.377 . S
C500 C502 1.384 . S
C501 C500 1.377 . S
C501 C507 1.390 . S
C502 H493 0.930 . S
C502 C500 1.384 . S
C502 C503 1.372 . S
C503 C502 1.372 . S
C503 C504 1.400 . S
C503 C508 1.490 . S
C504 H494 0.930 . S
C504 C503 1.400 . S
C504 C507 1.386 . S
H505 C521 0.930 . S
H506 C522 0.931 . S
C507 H495 0.929 . S
C507 C501 1.390 . S
C507 C504 1.386 . S
C508 C503 1.490 . S
C508 C510 1.395 . S
C508 C511 1.403 . S
H509 C515 0.930 . S
C510 H496 0.930 . S
C510 C508 1.395 . S
C510 C513 1.403 . S
C511 C508 1.403 . S
C511 C512 1.524 . S
C511 C515 1.400 . S
C512 H497 0.960 . S
C512 H498 0.960 . S
C512 H499 0.960 . S
C512 C511 1.524 . S
C513 C510 1.403 . S
C513 C514 1.392 . S
C513 C517 1.495 . S
C514 C513 1.392 . S
C514 C515 1.385 . S
C514 C516 1.478 . S
C515 H509 0.930 . S
C515 C511 1.400 . S
C515 C514 1.385 . S
C516 C514 1.478 . S
C516 C518 1.381 . S
C516 C522 1.383 . S
C517 C513 1.495 . S
C517 H523 0.959 . S
C517 H524 0.961 . S
C517 H525 0.960 . S
C518 C516 1.381 . S
C518 C519 1.394 . S
C518 H526 0.930 . S
C519 C518 1.394 . S
C519 C520 1.383 . S
C519 H527 0.929 . S
C520 C519 1.383 . S
C520 C521 1.377 . S
C521 H505 0.930 . S
C521 C520 1.377 . S
C521 C522 1.379 . S
C522 H506 0.931 . S
C522 C516 1.383 . S
C522 C521 1.379 . S
H523 C517 0.959 . S
H524 C517 0.961 . S
H525 C517 0.960 . S
H526 C518 0.930 . S
H527 C519 0.929 . S
H528 C536 0.929 . S
H529 C538 0.930 . S
H530 C540 0.930 . S
H531 C543 0.929 . S
H532 C546 0.930 . S
H533 C548 0.960 . S
H534 C548 0.960 . S
H535 C548 0.960 . S
C536 H528 0.929 . S
C536 C537 1.377 . S
C536 C538 1.384 . S
C537 C536 1.377 . S
C537 C543 1.390 . S
C538 H529 0.930 . S
C538 C536 1.384 . S
C538 C539 1.372 . S
C539 C538 1.372 . S
C539 C540 1.400 . S
C539 C544 1.490 . S
C540 H530 0.930 . S
C540 C539 1.400 . S
C540 C543 1.386 . S
H541 C557 0.930 . S
H542 C558 0.931 . S
C543 H531 0.929 . S
C543 C537 1.390 . S
C543 C540 1.386 . S
C544 C539 1.490 . S
C544 C546 1.395 . S
C544 C547 1.403 . S
H545 C551 0.930 . S
C546 H532 0.930 . S
C546 C544 1.395 . S
C546 C549 1.403 . S
C547 C544 1.403 . S
C547 C548 1.524 . S
C547 C551 1.400 . S
C548 H533 0.960 . S
C548 H534 0.960 . S
C548 H535 0.960 . S
C548 C547 1.524 . S
C549 C546 1.403 . S
C549 C550 1.392 . S
C549 C553 1.495 . S
C550 C549 1.392 . S
C550 C551 1.385 . S
C550 C552 1.478 . S
C551 H545 0.930 . S
C551 C547 1.400 . S
C551 C550 1.385 . S
C552 C550 1.478 . S
C552 C554 1.381 . S
C552 C558 1.383 . S
C553 C549 1.495 . S
C553 H559 0.959 . S
C553 H560 0.961 . S
C553 H561 0.960 . S
C554 C552 1.381 . S
C554 C555 1.394 . S
C554 H562 0.930 . S
C555 C554 1.394 . S
C555 C556 1.383 . S
C555 H563 0.929 . S
C556 C555 1.383 . S
C556 C557 1.377 . S
C557 H541 0.930 . S
C557 C556 1.377 . S
C557 C558 1.379 . S
C558 H542 0.931 . S
C558 C552 1.383 . S
C558 C557 1.379 . S
H559 C553 0.959 . S
H560 C553 0.961 . S
H561 C553 0.960 . S
H562 C554 0.930 . S
H563 C555 0.929 . S
H564 C572 0.929 . S
H565 C574 0.930 . S
H566 C576 0.930 . S
H567 C579 0.929 . S
H568 C582 0.930 . S
H569 C584 0.960 . S
H570 C584 0.960 . S
H571 C584 0.960 . S
C572 H564 0.929 . S
C572 C573 1.377 . S
C572 C574 1.384 . S
C573 C572 1.377 . S
C573 C579 1.390 . S
C574 H565 0.930 . S
C574 C572 1.384 . S
C574 C575 1.372 . S
C575 C574 1.372 . S
C575 C576 1.400 . S
C575 C580 1.490 . S
C576 H566 0.930 . S
C576 C575 1.400 . S
C576 C579 1.386 . S
H577 C593 0.930 . S
H578 C594 0.931 . S
C579 H567 0.929 . S
C579 C573 1.390 . S
C579 C576 1.386 . S
C580 C575 1.490 . S
C580 C582 1.395 . S
C580 C583 1.403 . S
H581 C587 0.930 . S
C582 H568 0.930 . S
C582 C580 1.395 . S
C582 C585 1.403 . S
C583 C580 1.403 . S
C583 C584 1.524 . S
C583 C587 1.400 . S
C584 H569 0.960 . S
C584 H570 0.960 . S
C584 H571 0.960 . S
C584 C583 1.524 . S
C585 C582 1.403 . S
C585 C586 1.392 . S
C585 C589 1.495 . S
C586 C585 1.392 . S
C586 C587 1.385 . S
C586 C588 1.478 . S
C587 H581 0.930 . S
C587 C583 1.400 . S
C587 C586 1.385 . S
C588 C586 1.478 . S
C588 C590 1.381 . S
C588 C594 1.383 . S
C589 C585 1.495 . S
C589 H595 0.959 . S
C589 H596 0.961 . S
C589 H597 0.960 . S
C590 C588 1.381 . S
C590 C591 1.394 . S
C590 H598 0.930 . S
C591 C590 1.394 . S
C591 C592 1.383 . S
C591 H599 0.929 . S
C592 C591 1.383 . S
C592 C593 1.377 . S
C593 H577 0.930 . S
C593 C592 1.377 . S
C593 C594 1.379 . S
C594 H578 0.931 . S
C594 C588 1.383 . S
C594 C593 1.379 . S
H595 C589 0.959 . S
H596 C589 0.961 . S
H597 C589 0.960 . S
H598 C590 0.930 . S
H599 C591 0.929 . S
H600 C608 0.929 . S
H601 C610 0.930 . S
H602 C612 0.930 . S
H603 C615 0.929 . S
H604 C618 0.930 . S
H605 C620 0.960 . S
H606 C620 0.960 . S
H607 C620 0.960 . S
C608 H600 0.929 . S
C608 C609 1.377 . S
C608 C610 1.384 . S
C609 C608 1.377 . S
C609 C615 1.390 . S
C610 H601 0.930 . S
C610 C608 1.384 . S
C610 C611 1.372 . S
C611 C610 1.372 . S
C611 C612 1.400 . S
C611 C616 1.490 . S
C612 H602 0.930 . S
C612 C611 1.400 . S
C612 C615 1.386 . S
H613 C629 0.930 . S
H614 C630 0.931 . S
C615 H603 0.929 . S
C615 C609 1.390 . S
C615 C612 1.386 . S
C616 C611 1.490 . S
C616 C618 1.395 . S
C616 C619 1.403 . S
H617 C623 0.930 . S
C618 H604 0.930 . S
C618 C616 1.395 . S
C618 C621 1.403 . S
C619 C616 1.403 . S
C619 C620 1.524 . S
C619 C623 1.400 . S
C620 H605 0.960 . S
C620 H606 0.960 . S
C620 H607 0.960 . S
C620 C619 1.524 . S
C621 C618 1.403 . S
C621 C622 1.392 . S
C621 C625 1.495 . S
C622 C621 1.392 . S
C622 C623 1.385 . S
C622 C624 1.478 . S
C623 H617 0.930 . S
C623 C619 1.400 . S
C623 C622 1.385 . S
C624 C622 1.478 . S
C624 C626 1.381 . S
C624 C630 1.383 . S
C625 C621 1.495 . S
C625 H631 0.959 . S
C625 H632 0.961 . S
C625 H633 0.960 . S
C626 C624 1.381 . S
C626 C627 1.394 . S
C626 H634 0.930 . S
C627 C626 1.394 . S
C627 C628 1.383 . S
C627 H635 0.929 . S
C628 C627 1.383 . S
C628 C629 1.377 . S
C629 H613 0.930 . S
C629 C628 1.377 . S
C629 C630 1.379 . S
C630 H614 0.931 . S
C630 C624 1.383 . S
C630 C629 1.379 . S
H631 C625 0.959 . S
H632 C625 0.961 . S
H633 C625 0.960 . S
H634 C626 0.930 . S
H635 C627 0.929 . S
H636 C644 0.929 . S
H637 C646 0.930 . S
H638 C648 0.930 . S
H639 C651 0.929 . S
H640 C654 0.930 . S
H641 C656 0.960 . S
H642 C656 0.960 . S
H643 C656 0.960 . S
C644 H636 0.929 . S
C644 C645 1.377 . S
C644 C646 1.384 . S
C645 C644 1.377 . S
C645 C651 1.390 . S
C646 H637 0.930 . S
C646 C644 1.384 . S
C646 C647 1.372 . S
C647 C646 1.372 . S
C647 C648 1.400 . S
C647 C652 1.490 . S
C648 H638 0.930 . S
C648 C647 1.400 . S
C648 C651 1.386 . S
H649 C665 0.930 . S
H650 C666 0.931 . S
C651 H639 0.929 . S
C651 C645 1.390 . S
C651 C648 1.386 . S
C652 C647 1.490 . S
C652 C654 1.395 . S
C652 C655 1.403 . S
H653 C659 0.930 . S
C654 H640 0.930 . S
C654 C652 1.395 . S
C654 C657 1.403 . S
C655 C652 1.403 . S
C655 C656 1.524 . S
C655 C659 1.400 . S
C656 H641 0.960 . S
C656 H642 0.960 . S
C656 H643 0.960 . S
C656 C655 1.524 . S
C657 C654 1.403 . S
C657 C658 1.392 . S
C657 C661 1.495 . S
C658 C657 1.392 . S
C658 C659 1.385 . S
C658 C660 1.478 . S
C659 H653 0.930 . S
C659 C655 1.400 . S
C659 C658 1.385 . S
C660 C658 1.478 . S
C660 C662 1.381 . S
C660 C666 1.383 . S
C661 C657 1.495 . S
C661 H667 0.959 . S
C661 H668 0.961 . S
C661 H669 0.960 . S
C662 C660 1.381 . S
C662 C663 1.394 . S
C662 H670 0.930 . S
C663 C662 1.394 . S
C663 C664 1.383 . S
C663 H671 0.929 . S
C664 C663 1.383 . S
C664 C665 1.377 . S
C665 H649 0.930 . S
C665 C664 1.377 . S
C665 C666 1.379 . S
C666 H650 0.931 . S
C666 C660 1.383 . S
C666 C665 1.379 . S
H667 C661 0.959 . S
H668 C661 0.961 . S
H669 C661 0.960 . S
H670 C662 0.930 . S
H671 C663 0.929 . S
H672 C680 0.929 . S
H673 C682 0.930 . S
H674 C684 0.930 . S
H675 C687 0.929 . S
H676 C690 0.930 . S
H677 C692 0.960 . S
H678 C692 0.960 . S
H679 C692 0.960 . S
C680 H672 0.929 . S
C680 C681 1.377 . S
C680 C682 1.384 . S
C681 C680 1.377 . S
C681 C687 1.390 . S
C682 H673 0.930 . S
C682 C680 1.384 . S
C682 C683 1.372 . S
C683 C682 1.372 . S
C683 C684 1.400 . S
C683 C688 1.490 . S
C684 H674 0.930 . S
C684 C683 1.400 . S
C684 C687 1.386 . S
H685 C701 0.930 . S
H686 C702 0.931 . S
C687 H675 0.929 . S
C687 C681 1.390 . S
C687 C684 1.386 . S
C688 C683 1.490 . S
C688 C690 1.395 . S
C688 C691 1.403 . S
H689 C695 0.930 . S
C690 H676 0.930 . S
C690 C688 1.395 . S
C690 C693 1.403 . S
C691 C688 1.403 . S
C691 C692 1.524 . S
C691 C695 1.400 . S
C692 H677 0.960 . S
C692 H678 0.960 . S
C692 H679 0.960 . S
C692 C691 1.524 . S
C693 C690 1.403 . S
C693 C694 1.392 . S
C693 C697 1.495 . S
C694 C693 1.392 . S
C694 C695 1.385 . S
C694 C696 1.478 . S
C695 H689 0.930 . S
C695 C691 1.400 . S
C695 C694 1.385 . S
C696 C694 1.478 . S
C696 C698 1.381 . S
C696 C702 1.383 . S
C697 C693 1.495 . S
C697 H703 0.959 . S
C697 H704 0.961 . S
C697 H705 0.960 . S
C698 C696 1.381 . S
C698 C699 1.394 . S
C698 H706 0.930 . S
C699 C698 1.394 . S
C699 C700 1.383 . S
C699 H707 0.929 . S
C700 C699 1.383 . S
C700 C701 1.377 . S
C701 H685 0.930 . S
C701 C700 1.377 . S
C701 C702 1.379 . S
C702 H686 0.931 . S
C702 C696 1.383 . S
C702 C701 1.379 . S
H703 C697 0.959 . S
H704 C697 0.961 . S
H705 C697 0.960 . S
H706 C698 0.930 . S
H707 C699 0.929 . S
H708 C716 0.929 . S
H709 C718 0.930 . S
H710 C720 0.930 . S
H711 C723 0.929 . S
H712 C726 0.930 . S
H713 C728 0.960 . S
H714 C728 0.960 . S
H715 C728 0.960 . S
C716 H708 0.929 . S
C716 C717 1.377 . S
C716 C718 1.384 . S
C717 C716 1.377 . S
C717 C723 1.390 . S
C718 H709 0.930 . S
C718 C716 1.384 . S
C718 C719 1.372 . S
C719 C718 1.372 . S
C719 C720 1.400 . S
C719 C724 1.490 . S
C720 H710 0.930 . S
C720 C719 1.400 . S
C720 C723 1.386 . S
H721 C737 0.930 . S
H722 C738 0.931 . S
C723 H711 0.929 . S
C723 C717 1.390 . S
C723 C720 1.386 . S
C724 C719 1.490 . S
C724 C726 1.395 . S
C724 C727 1.403 . S
H725 C731 0.930 . S
C726 H712 0.930 . S
C726 C724 1.395 . S
C726 C729 1.403 1_655 S
C727 C724 1.403 . S
C727 C728 1.524 . S
C727 C731 1.400 1_655 S
C728 H713 0.960 . S
C728 H714 0.960 . S
C728 H715 0.960 . S
C728 C727 1.524 . S
C729 C726 1.403 1_455 S
C729 C730 1.392 . S
C729 C733 1.495 . S
C730 C729 1.392 . S
C730 C731 1.385 . S
C730 C732 1.478 . S
C731 H725 0.930 . S
C731 C727 1.400 1_455 S
C731 C730 1.385 . S
C732 C730 1.478 . S
C732 C734 1.381 . S
C732 C738 1.383 . S
C733 C729 1.495 . S
C733 H739 0.959 . S
C733 H740 0.961 . S
C733 H741 0.960 . S
C734 C732 1.381 . S
C734 C735 1.394 . S
C734 H742 0.930 . S
C735 C734 1.394 . S
C735 C736 1.383 . S
C735 H743 0.929 . S
C736 C735 1.383 . S
C736 C737 1.377 . S
C737 H721 0.930 . S
C737 C736 1.377 . S
C737 C738 1.379 . S
C738 H722 0.931 . S
C738 C732 1.383 . S
C738 C737 1.379 . S
H739 C733 0.959 . S
H740 C733 0.961 . S
H741 C733 0.960 . S
H742 C734 0.930 . S
H743 C735 0.929 . S
H744 C752 0.929 . S
H745 C754 0.930 . S
H746 C756 0.930 . S
H747 C759 0.929 . S
H748 C762 0.930 . S
H749 C764 0.960 . S
H750 C764 0.960 . S
H751 C764 0.960 . S
C752 H744 0.929 . S
C752 C753 1.377 . S
C752 C754 1.384 . S
C753 C752 1.377 . S
C753 C759 1.390 . S
C754 H745 0.930 . S
C754 C752 1.384 . S
C754 C755 1.372 . S
C755 C754 1.372 . S
C755 C756 1.400 . S
C755 C760 1.490 . S
C756 H746 0.930 . S
C756 C755 1.400 . S
C756 C759 1.386 . S
H757 C773 0.930 . S
H758 C774 0.931 . S
C759 H747 0.929 . S
C759 C753 1.390 . S
C759 C756 1.386 . S
C760 C755 1.490 . S
C760 C762 1.395 . S
C760 C763 1.403 . S
H761 C767 0.930 . S
C762 H748 0.930 . S
C762 C760 1.395 . S
C762 C765 1.403 . S
C763 C760 1.403 . S
C763 C764 1.524 . S
C763 C767 1.400 1_545 S
C764 H749 0.960 . S
C764 H750 0.960 . S
C764 H751 0.960 . S
C764 C763 1.524 . S
C765 C762 1.403 . S
C765 C766 1.392 1_545 S
C765 C769 1.495 1_545 S
C766 C765 1.392 1_565 S
C766 C767 1.385 . S
C766 C768 1.478 . S
C767 H761 0.930 . S
C767 C763 1.400 1_565 S
C767 C766 1.385 . S
C768 C766 1.478 . S
C768 C770 1.381 . S
C768 C774 1.383 . S
C769 C765 1.495 1_565 S
C769 H775 0.959 1_565 S
C769 H776 0.961 . S
C769 H777 0.960 . S
C770 C768 1.381 . S
C770 C771 1.394 . S
C770 H778 0.930 . S
C771 C770 1.394 . S
C771 C772 1.383 . S
C771 H779 0.929 . S
C772 C771 1.383 . S
C772 C773 1.377 . S
C773 H757 0.930 . S
C773 C772 1.377 . S
C773 C774 1.379 . S
C774 H758 0.931 . S
C774 C768 1.383 . S
C774 C773 1.379 . S
H775 C769 0.959 1_545 S
H776 C769 0.961 . S
H777 C769 0.960 . S
H778 C770 0.930 . S
H779 C771 0.929 . S
H780 C788 0.929 . S
H781 C790 0.930 . S
H782 C792 0.930 . S
H783 C795 0.929 . S
H784 C798 0.930 . S
H785 C800 0.960 . S
H786 C800 0.960 . S
H787 C800 0.960 . S
C788 H780 0.929 . S
C788 C789 1.377 . S
C788 C790 1.384 . S
C789 C788 1.377 . S
C789 C795 1.390 . S
C790 H781 0.930 . S
C790 C788 1.384 . S
C790 C791 1.372 . S
C791 C790 1.372 . S
C791 C792 1.400 . S
C791 C796 1.490 . S
C792 H782 0.930 . S
C792 C791 1.400 . S
C792 C795 1.386 . S
H793 C809 0.930 . S
H794 C810 0.931 . S
C795 H783 0.929 . S
C795 C789 1.390 . S
C795 C792 1.386 . S
C796 C791 1.490 . S
C796 C798 1.395 . S
C796 C799 1.403 . S
H797 C803 0.930 . S
C798 H784 0.930 . S
C798 C796 1.395 . S
C798 C801 1.403 . S
C799 C796 1.403 . S
C799 C800 1.524 . S
C799 C803 1.400 . S
C800 H785 0.960 . S
C800 H786 0.960 . S
C800 H787 0.960 . S
C800 C799 1.524 . S
C801 C798 1.403 . S
C801 C802 1.392 . S
C801 C805 1.495 . S
C802 C801 1.392 . S
C802 C803 1.385 . S
C802 C804 1.478 . S
C803 H797 0.930 . S
C803 C799 1.400 . S
C803 C802 1.385 . S
C804 C802 1.478 . S
C804 C806 1.381 1_545 S
C804 C810 1.383 . S
C805 C801 1.495 . S
C805 H811 0.959 . S
C805 H812 0.961 . S
C805 H813 0.960 1_545 S
C806 C804 1.381 1_565 S
C806 C807 1.394 . S
C806 H814 0.930 . S
C807 C806 1.394 . S
C807 C808 1.383 . S
C807 H815 0.929 . S
C808 C807 1.383 . S
C808 C809 1.377 1_565 S
C809 H793 0.930 . S
C809 C808 1.377 1_545 S
C809 C810 1.379 . S
C810 H794 0.931 . S
C810 C804 1.383 . S
C810 C809 1.379 . S
H811 C805 0.959 . S
H812 C805 0.961 . S
H813 C805 0.960 1_565 S
H814 C806 0.930 . S
H815 C807 0.929 . S
H816 C824 0.929 . S
H817 C826 0.930 . S
H818 C828 0.930 . S
H819 C831 0.929 . S
H820 C834 0.930 . S
H821 C836 0.960 . S
H822 C836 0.960 . S
H823 C836 0.960 . S
C824 H816 0.929 . S
C824 C825 1.377 . S
C824 C826 1.384 1_455 S
C825 C824 1.377 . S
C825 C831 1.390 . S
C826 H817 0.930 . S
C826 C824 1.384 1_655 S
C826 C827 1.372 . S
C827 C826 1.372 . S
C827 C828 1.400 . S
C827 C832 1.490 . S
C828 H818 0.930 . S
C828 C827 1.400 . S
C828 C831 1.386 1_655 S
H829 C845 0.930 . S
H830 C846 0.931 . S
C831 H819 0.929 . S
C831 C825 1.390 . S
C831 C828 1.386 1_455 S
C832 C827 1.490 . S
C832 C834 1.395 . S
C832 C835 1.403 . S
H833 C839 0.930 . S
C834 H820 0.930 . S
C834 C832 1.395 . S
C834 C837 1.403 . S
C835 C832 1.403 . S
C835 C836 1.524 . S
C835 C839 1.400 . S
C836 H821 0.960 . S
C836 H822 0.960 . S
C836 H823 0.960 . S
C836 C835 1.524 . S
C837 C834 1.403 . S
C837 C838 1.392 . S
C837 C841 1.495 . S
C838 C837 1.392 . S
C838 C839 1.385 . S
C838 C840 1.478 . S
C839 H833 0.930 . S
C839 C835 1.400 . S
C839 C838 1.385 . S
C840 C838 1.478 . S
C840 C842 1.381 . S
C840 C846 1.383 . S
C841 C837 1.495 . S
C841 H847 0.959 . S
C841 H848 0.961 . S
C841 H849 0.960 . S
C842 C840 1.381 . S
C842 C843 1.394 . S
C842 H850 0.930 . S
C843 C842 1.394 . S
C843 C844 1.383 . S
C843 H851 0.929 . S
C844 C843 1.383 . S
C844 C845 1.377 . S
C845 H829 0.930 . S
C845 C844 1.377 . S
C845 C846 1.379 . S
C846 H830 0.931 . S
C846 C840 1.383 . S
C846 C845 1.379 . S
H847 C841 0.959 . S
H848 C841 0.961 . S
H849 C841 0.960 . S
H850 C842 0.930 . S
H851 C843 0.929 . S
H852 C860 0.929 . S
H853 C862 0.930 . S
H854 C864 0.930 . S
H855 C867 0.926 . S
H856 C870 0.930 1_455 S
H857 C872 0.960 . S
H858 C872 0.960 . S
H859 C872 0.960 . S
C860 H852 0.929 . S
C860 C861 1.377 . S
C860 C862 1.384 . S
C861 C860 1.377 . S
C861 C867 1.394 1_455 S
C862 H853 0.930 . S
C862 C860 1.384 . S
C862 C863 1.372 1_455 S
C863 C862 1.372 1_655 S
C863 C864 1.400 . S
C863 C868 1.490 . S
C864 H854 0.930 . S
C864 C863 1.400 . S
C864 C867 1.385 . S
H865 C881 0.930 . S
H866 C882 0.931 . S
C867 H855 0.926 . S
C867 C861 1.394 1_655 S
C867 C864 1.385 . S
C868 C863 1.490 . S
C868 C870 1.395 . S
C868 C871 1.403 . S
H869 C875 0.930 . S
C870 H856 0.930 1_655 S
C870 C868 1.395 . S
C870 C873 1.403 . S
C871 C868 1.403 . S
C871 C872 1.524 . S
C871 C875 1.400 . S
C872 H857 0.960 . S
C872 H858 0.960 . S
C872 H859 0.960 . S
C872 C871 1.524 . S
C873 C870 1.403 . S
C873 C874 1.392 . S
C873 C877 1.495 . S
C874 C873 1.392 . S
C874 C875 1.385 . S
C874 C876 1.478 . S
C875 H869 0.930 . S
C875 C871 1.400 . S
C875 C874 1.385 . S
C876 C874 1.478 . S
C876 C878 1.381 . S
C876 C882 1.383 . S
C877 C873 1.495 . S
C877 H883 0.959 1_655 S
C877 H884 0.961 . S
C877 H885 0.960 . S
C878 C876 1.381 . S
C878 C879 1.394 1_545 S
C878 H886 0.930 . S
C879 C878 1.394 1_565 S
C879 C880 1.383 . S
C879 H887 0.929 . S
C880 C879 1.383 . S
C880 C881 1.377 . S
C881 H865 0.930 . S
C881 C880 1.377 . S
C881 C882 1.379 1_565 S
C882 H866 0.931 . S
C882 C876 1.383 . S
C882 C881 1.379 1_545 S
H883 C877 0.959 1_455 S
H884 C877 0.961 . S
H885 C877 0.960 . S
H886 C878 0.930 . S
H887 C879 0.929 . S
C249 C168 2.231 . S
C268 C18 2.515 . S
C285 C218 2.536 . S
C304 C48 2.201 . S
C321 C98 2.519 . S
C340 C128 2.200 . S
C357 C8 2.230 . S
C376 C178 2.526 . S
C393 C208 2.231 . S
C412 C58 2.516 . S
C429 C88 2.237 . S
C448 C138 2.538 . S
C465 C19 1.951 . S
C484 C95 1.896 . S
C501 C59 1.950 . S
C520 C15 1.932 . S
C537 C99 1.950 . S
C556 C55 1.932 . S
C573 C125 1.861 . S
C592 C169 1.807 . S
C609 C165 1.861 . S
C628 C209 1.807 . S
C645 C129 1.828 . S
C664 C205 1.850 . S
C681 C9 0.890 . S
C700 C85 0.886 . S
C717 C49 0.903 . S
C736 C5 0.915 . S
C753 C89 0.893 . S
C772 C45 0.876 . S
C789 C135 0.980 . S
C808 C179 0.972 . S
C825 C175 0.977 . S
C844 C219 0.962 . S
C861 C139 0.984 . S
C880 C215 1.006 . S
