# Generated by pormake.
# Topology ske, (6)-cn, num edge types: 1
# Building blocks:
#     Node 0, Type 0, BuildingBlock: MIFKUJ_clean_sbu_0, # of connection points: 6
#     Node 1, Type 0, BuildingBlock: MIFKUJ_clean_sbu_0, # of connection points: 6
#     Node 2, Type 0, BuildingBlock: MIFKUJ_clean_sbu_0, # of connection points: 6
#     Node 3, Type 0, BuildingBlock: MIFKUJ_clean_sbu_0, # of connection points: 6
#     Node 4, Type 0, BuildingBlock: MIFKUJ_clean_sbu_0, # of connection points: 6
#     Node 5, Type 0, BuildingBlock: MIFKUJ_clean_sbu_0, # of connection points: 6
#     Node 6, Type 0, BuildingBlock: MIFKUJ_clean_sbu_0, # of connection points: 6
#     Node 7, Type 0, BuildingBlock: MIFKUJ_clean_sbu_0, # of connection points: 6
#     Edge 8, Type (0, 0), BuildingBlock: AJUNOK_clean_linker_0, # of connection points: 2
#     Edge 9, Type (0, 0), BuildingBlock: AJUNOK_clean_linker_0, # of connection points: 2
#     Edge 10, Type (0, 0), BuildingBlock: AJUNOK_clean_linker_0, # of connection points: 2
#     Edge 11, Type (0, 0), BuildingBlock: AJUNOK_clean_linker_0, # of connection points: 2
#     Edge 12, Type (0, 0), BuildingBlock: AJUNOK_clean_linker_0, # of connection points: 2
#     Edge 13, Type (0, 0), BuildingBlock: AJUNOK_clean_linker_0, # of connection points: 2
#     Edge 14, Type (0, 0), BuildingBlock: AJUNOK_clean_linker_0, # of connection points: 2
#     Edge 15, Type (0, 0), BuildingBlock: AJUNOK_clean_linker_0, # of connection points: 2
#     Edge 16, Type (0, 0), BuildingBlock: AJUNOK_clean_linker_0, # of connection points: 2
#     Edge 17, Type (0, 0), BuildingBlock: AJUNOK_clean_linker_0, # of connection points: 2
#     Edge 18, Type (0, 0), BuildingBlock: AJUNOK_clean_linker_0, # of connection points: 2
#     Edge 19, Type (0, 0), BuildingBlock: AJUNOK_clean_linker_0, # of connection points: 2
#     Edge 20, Type (0, 0), BuildingBlock: AJUNOK_clean_linker_0, # of connection points: 2
#     Edge 21, Type (0, 0), BuildingBlock: AJUNOK_clean_linker_0, # of connection points: 2
#     Edge 22, Type (0, 0), BuildingBlock: AJUNOK_clean_linker_0, # of connection points: 2
#     Edge 23, Type (0, 0), BuildingBlock: AJUNOK_clean_linker_0, # of connection points: 2
#     Edge 24, Type (0, 0), BuildingBlock: AJUNOK_clean_linker_0, # of connection points: 2
#     Edge 25, Type (0, 0), BuildingBlock: AJUNOK_clean_linker_0, # of connection points: 2
#     Edge 26, Type (0, 0), BuildingBlock: AJUNOK_clean_linker_0, # of connection points: 2
#     Edge 27, Type (0, 0), BuildingBlock: AJUNOK_clean_linker_0, # of connection points: 2
#     Edge 28, Type (0, 0), BuildingBlock: AJUNOK_clean_linker_0, # of connection points: 2
#     Edge 29, Type (0, 0), BuildingBlock: AJUNOK_clean_linker_0, # of connection points: 2
#     Edge 30, Type (0, 0), BuildingBlock: AJUNOK_clean_linker_0, # of connection points: 2
#     Edge 31, Type (0, 0), BuildingBlock: AJUNOK_clean_linker_0, # of connection points: 2
# Relax obj value: 0.143
# Max RMSD: 0.178
# Mean RMSD: 0.158
data_MOF--net-ske--node1-MIFKUJ_clean_sbu_0--edge1-AJUNOK_clean_linker_0
_symmetry_space_group_name_H-M    P1
_symmetry_Int_Tables_number       1
_symmetry_cell_setting            triclinic
loop_
_symmetry_equiv_pos_as_xyz
'x, y, z'
_cell_length_a     56.166355
_cell_length_b     20.258746
_cell_length_c     13.330584
_cell_angle_alpha  91.52667
_cell_angle_beta   90.377662
_cell_angle_gamma 84.561695
loop_
_atom_site_label
_atom_site_type_symbol
_atom_site_fract_x
_atom_site_fract_y
_atom_site_fract_z
_atom_type_partial_charge
Zn0 Zn 0.15624 0.24448 0.70663 0.0
Zn1 Zn 0.10288 0.24713 0.53062 0.0
C2 C 0.14979 0.24879 0.92214 0.0
O3 O 0.16738 0.28696 0.91712 0.0
C4 C 0.10979 0.20647 0.31704 0.0
O5 O 0.08985 0.17828 0.32712 0.0
O6 O 0.19178 0.24748 0.72708 0.0
O7 O 0.15299 0.16742 0.61064 0.0
O8 O 0.11394 0.17284 0.62158 0.0
C9 C 0.20505 0.19361 0.73683 0.0
O10 O 0.19505 0.13756 0.7366 0.0
O11 O 0.14162 0.22521 0.84086 0.0
C12 C 0.05567 0.29039 0.45915 0.0
O13 O 0.06754 0.33465 0.41597 0.0
O14 O 0.06714 0.24701 0.51267 0.0
O15 O 0.10946 0.33854 0.57576 0.0
O16 O 0.14353 0.33534 0.6619 0.0
O17 O 0.11858 0.23462 0.39339 0.0
C18 C 0.13369 0.14019 0.59983 0.0
C19 C 0.12599 0.3676 0.6188 0.0
Zn20 Zn 0.90553 0.24831 0.46225 0.0
Zn21 Zn 0.85128 0.2414 0.6461 0.0
C22 C 0.89989 0.24641 0.25326 0.0
O23 O 0.91448 0.19287 0.26806 0.0
C24 C 0.86131 0.28641 0.84948 0.0
O25 O 0.84445 0.33366 0.82907 0.0
O26 O 0.94164 0.24456 0.46416 0.0
O27 O 0.89332 0.307 0.57675 0.0
O28 O 0.85457 0.32632 0.57628 0.0
C29 C 0.95202 0.28879 0.42013 0.0
O30 O 0.93888 0.33476 0.37169 0.0
O31 O 0.89316 0.28283 0.32895 0.0
C32 C 0.80659 0.20949 0.73584 0.0
O33 O 0.82057 0.17052 0.79296 0.0
O34 O 0.81593 0.24209 0.66878 0.0
O35 O 0.86305 0.15585 0.57025 0.0
O36 O 0.89482 0.15622 0.46964 0.0
O37 O 0.86747 0.24273 0.78182 0.0
C38 C 0.87485 0.34572 0.55885 0.0
C39 C 0.87837 0.12666 0.50966 0.0
Zn40 Zn 0.15818 0.73376 0.40106 0.0
Zn41 Zn 0.10392 0.74139 0.58091 0.0
C42 C 0.14688 0.69586 0.19306 0.0
O43 O 0.16573 0.65273 0.20178 0.0
C44 C 0.10684 0.74551 0.79336 0.0
O45 O 0.09215 0.79848 0.77655 0.0
O46 O 0.19335 0.72592 0.37268 0.0
O47 O 0.14972 0.82387 0.4677 0.0
O48 O 0.11698 0.82858 0.56225 0.0
C49 C 0.20242 0.75972 0.30649 0.0
O50 O 0.18832 0.80197 0.25505 0.0
O51 O 0.14024 0.73256 0.26863 0.0
C52 C 0.05512 0.71049 0.58962 0.0
O53 O 0.06533 0.65025 0.60277 0.0
O54 O 0.0682 0.75745 0.57814 0.0
O55 O 0.11446 0.67498 0.47418 0.0
O56 O 0.15323 0.65461 0.48279 0.0
O57 O 0.11462 0.70978 0.71846 0.0
C58 C 0.13398 0.85606 0.52302 0.0
C59 C 0.1326 0.63749 0.50026 0.0
Zn60 Zn 0.85292 0.72923 0.32793 0.0
Zn61 Zn 0.90466 0.71439 0.50706 0.0
C62 C 0.861 0.7308 0.11693 0.0
O63 O 0.84195 0.77354 0.12462 0.0
C64 C 0.90164 0.67663 0.71785 0.0
O65 O 0.92367 0.64987 0.70509 0.0
O66 O 0.81756 0.73359 0.29864 0.0
O67 O 0.85792 0.65237 0.4211 0.0
O68 O 0.89694 0.64166 0.41079 0.0
C69 C 0.80964 0.6797 0.26834 0.0
O70 O 0.82487 0.62688 0.25535 0.0
O71 O 0.86989 0.70503 0.19645 0.0
C72 C 0.95143 0.75307 0.55886 0.0
O73 O 0.93918 0.80858 0.58833 0.0
O74 O 0.94035 0.70632 0.52172 0.0
O75 O 0.89354 0.8083 0.4736 0.0
O76 O 0.86094 0.82033 0.37706 0.0
O77 O 0.89034 0.70261 0.64346 0.0
C78 C 0.87765 0.61685 0.42891 0.0
C79 C 0.87727 0.84452 0.42912 0.0
Zn80 Zn 0.65887 0.7398 0.168 0.0
Zn81 Zn 0.60399 0.76979 0.98201 0.0
C82 C 0.64684 0.79113 0.36928 0.0
O83 O 0.6642 0.82854 0.35269 0.0
C84 C 0.60757 0.76649 0.76962 0.0
O85 O 0.59381 0.71857 0.78337 0.0
O86 O 0.6941 0.72824 0.20029 0.0
O87 O 0.64911 0.65652 0.09462 0.0
O88 O 0.61723 0.67542 0.9952 0.0
C89 C 0.70729 0.67376 0.19494 0.0
O90 O 0.69763 0.61927 0.16899 0.0
O91 O 0.64105 0.75119 0.29993 0.0
C92 C 0.55424 0.81841 0.95055 0.0
O93 O 0.56345 0.86827 0.90905 0.0
O94 O 0.56819 0.77227 0.98761 0.0
O95 O 0.6162 0.82452 0.09216 0.0
O96 O 0.65499 0.82304 0.08924 0.0
O97 O 0.61425 0.79894 0.84608 0.0
C98 C 0.63347 0.63603 0.03426 0.0
C99 C 0.63464 0.85135 0.06736 0.0
Zn100 Zn 0.40464 0.76299 0.97303 0.0
Zn101 Zn 0.35093 0.75163 0.15793 0.0
C102 C 0.39997 0.76188 0.7635 0.0
O103 O 0.41525 0.70972 0.77803 0.0
C104 C 0.36103 0.80009 0.36021 0.0
O105 O 0.34449 0.84791 0.33867 0.0
O106 O 0.44055 0.76104 0.97523 0.0
O107 O 0.39204 0.8228 0.08563 0.0
O108 O 0.35316 0.83603 0.08684 0.0
C109 C 0.45066 0.80954 0.94198 0.0
O110 O 0.43729 0.85981 0.90462 0.0
O111 O 0.3924 0.79673 0.83948 0.0
C112 C 0.30574 0.72471 0.25003 0.0
O113 O 0.31921 0.69426 0.31884 0.0
O114 O 0.31564 0.74972 0.17667 0.0
O115 O 0.36374 0.66694 0.08403 0.0
O116 O 0.39499 0.66958 0.98149 0.0
O117 O 0.3668 0.75516 0.29393 0.0
C118 C 0.37281 0.85829 0.06722 0.0
C119 C 0.37921 0.63857 0.02351 0.0
Zn120 Zn 0.65641 0.23596 0.86681 0.0
Zn121 Zn 0.60369 0.25308 0.03829 0.0
C122 C 0.64797 0.22911 0.65311 0.0
O123 O 0.66414 0.17819 0.66112 0.0
C124 C 0.60873 0.28787 0.25396 0.0
O125 O 0.58815 0.32344 0.24225 0.0
O126 O 0.6919 0.21821 0.84628 0.0
O127 O 0.652 0.31383 0.96496 0.0
O128 O 0.61277 0.32695 0.95223 0.0
C129 C 0.70364 0.25745 0.79813 0.0
O130 O 0.69222 0.3109 0.76064 0.0
O131 O 0.64129 0.26192 0.73242 0.0
C132 C 0.55625 0.21871 0.08047 0.0
O133 O 0.56805 0.16232 0.10495 0.0
O134 O 0.56784 0.26576 0.05206 0.0
O135 O 0.61166 0.15954 0.98942 0.0
O136 O 0.64587 0.14843 0.90608 0.0
O137 O 0.61855 0.2574 0.17792 0.0
C138 C 0.63257 0.35128 0.96567 0.0
C139 C 0.6285 0.12347 0.94636 0.0
Zn140 Zn 0.35221 0.24539 0.83881 0.0
Zn141 Zn 0.40433 0.22411 0.01736 0.0
C142 C 0.36027 0.24734 0.6275 0.0
O143 O 0.34239 0.29386 0.63632 0.0
C144 C 0.3995 0.18575 0.22765 0.0
O145 O 0.42035 0.15152 0.2147 0.0
O146 O 0.31661 0.25362 0.8123 0.0
O147 O 0.3564 0.16847 0.9321 0.0
O148 O 0.39543 0.1515 0.9229 0.0
C149 C 0.30829 0.20149 0.77702 0.0
O150 O 0.32333 0.14951 0.75516 0.0
O151 O 0.36849 0.21925 0.70637 0.0
C152 C 0.45226 0.25743 0.06623 0.0
O153 O 0.44124 0.31582 0.08997 0.0
O154 O 0.44009 0.2117 0.03324 0.0
O155 O 0.39459 0.31853 0.98268 0.0
O156 O 0.36172 0.33471 0.88845 0.0
O157 O 0.38956 0.21607 0.15381 0.0
C158 C 0.37541 0.12972 0.93829 0.0
C159 C 0.37868 0.35661 0.93934 0.0
C160 C 0.24152 0.25439 0.76436 0.0
C161 C 0.2314 0.19413 0.74656 0.0
C162 C 0.26634 0.25636 0.77379 0.0
C163 C 0.2821 0.19824 0.76478 0.0
H164 H 0.23019 0.30058 0.77184 0.0
H165 H 0.27319 0.30396 0.78801 0.0
S166 S 0.26482 0.02754 0.71681 0.0
N167 N 0.23921 0.07474 0.7197 0.0
N168 N 0.28572 0.07845 0.7364 0.0
C169 C 0.27224 0.13764 0.74622 0.0
C170 C 0.24696 0.13556 0.73749 0.0
C171 C 0.74184 0.28173 0.71787 0.0
C172 C 0.72982 0.243 0.78333 0.0
C173 C 0.76652 0.26982 0.70235 0.0
C174 C 0.78034 0.21891 0.75212 0.0
H175 H 0.73215 0.32173 0.67785 0.0
H176 H 0.77482 0.30149 0.65145 0.0
S177 S 0.75754 0.10247 0.93086 0.0
N178 N 0.73362 0.15083 0.89782 0.0
N179 N 0.78004 0.12875 0.86899 0.0
C180 C 0.76856 0.17948 0.81757 0.0
C181 C 0.74333 0.19139 0.83302 0.0
C182 C 0.26839 0.70359 0.34026 0.0
C183 C 0.27931 0.73305 0.26041 0.0
C184 C 0.24358 0.71229 0.35396 0.0
C185 C 0.2286 0.75112 0.2887 0.0
H186 H 0.27906 0.67367 0.39322 0.0
H187 H 0.23615 0.68869 0.41703 0.0
S188 S 0.2481 0.8382 0.06626 0.0
N189 N 0.27307 0.80205 0.11374 0.0
N190 N 0.22651 0.81842 0.13986 0.0
C191 C 0.23922 0.78054 0.20798 0.0
C192 C 0.26452 0.77147 0.19371 0.0
C193 C 0.74324 0.73261 0.24058 0.0
C194 C 0.7334 0.673 0.21462 0.0
C195 C 0.76782 0.73421 0.25765 0.0
C196 C 0.78368 0.6763 0.24941 0.0
H197 H 0.73191 0.77882 0.24759 0.0
H198 H 0.77439 0.78148 0.27718 0.0
S199 S 0.76713 0.50686 0.18497 0.0
N200 N 0.74155 0.55417 0.18261 0.0
N201 N 0.7877 0.55711 0.21463 0.0
C202 C 0.77412 0.61615 0.22396 0.0
C203 C 0.74903 0.61452 0.20667 0.0
C204 C 0.11402 0.96688 0.57403 0.0
C205 C 0.13473 0.9284 0.5402 0.0
C206 C 0.11384 0.03523 0.59129 0.0
C207 C 0.13444 0.06811 0.5766 0.0
H208 H 0.09763 0.94422 0.58695 0.0
H209 H 0.0974 0.06222 0.61768 0.0
S210 S 0.19337 -0.00945 0.4874 0.0
N211 N 0.17642 0.9284 0.49128 0.0
N212 N 0.17614 0.05717 0.52447 0.0
C213 C 0.1553 0.03047 0.54209 0.0
C214 C 0.15543 0.96064 0.52366 0.0
C215 C 0.85597 0.45024 0.48567 0.0
C216 C 0.87666 0.41319 0.52092 0.0
C217 C 0.85657 0.51566 0.4555 0.0
C218 C 0.8779 0.54686 0.45893 0.0
H219 H 0.83902 0.42881 0.48208 0.0
H220 H 0.84008 0.54197 0.42949 0.0
S221 S 0.93716 0.47189 0.54546 0.0
N222 N 0.91918 0.41276 0.55791 0.0
N223 N 0.92038 0.53555 0.49987 0.0
C224 C 0.89887 0.51016 0.4925 0.0
C225 C 0.89822 0.44343 0.52373 0.0
C226 C 0.87569 0.94279 0.54529 0.0
C227 C 0.87645 0.91682 0.44635 0.0
C228 C 0.87569 0.01111 0.565 0.0
C229 C 0.8773 0.05539 0.48654 0.0
H230 H 0.87499 0.90998 0.60789 0.0
H231 H 0.87504 0.02922 0.64225 0.0
S232 S 0.87973 0.01224 0.21451 0.0
N233 N 0.87828 0.94042 0.26912 0.0
N234 N 0.87945 0.06881 0.30627 0.0
C235 C 0.87816 0.03003 0.38729 0.0
C236 C 0.87741 0.96066 0.36711 0.0
C237 C 0.10944 0.53997 0.52161 0.0
C238 C 0.12978 0.5728 0.54483 0.0
C239 C 0.10773 0.4749 0.55132 0.0
C240 C 0.12629 0.44012 0.60579 0.0
H241 H 0.09522 0.5634 0.47575 0.0
H242 H 0.09215 0.45088 0.52735 0.0
S243 S 0.18143 0.50912 0.70072 0.0
N244 N 0.16744 0.56959 0.63614 0.0
N245 N 0.16432 0.44725 0.69288 0.0
C246 C 0.14592 0.47447 0.63611 0.0
C247 C 0.14768 0.54072 0.60516 0.0
C248 C 0.65184 0.51869 0.04913 0.0
C249 C 0.63349 0.56373 0.01154 0.0
C250 C 0.65168 0.45012 0.03231 0.0
C251 C 0.63301 0.42385 0.97833 0.0
H252 H 0.66639 0.53625 0.09279 0.0
H253 H 0.66602 0.41741 0.06383 0.0
S254 S 0.58147 0.51961 0.85768 0.0
N255 N 0.59665 0.57634 0.91284 0.0
N256 N 0.59639 0.44777 0.8825 0.0
C257 C 0.61481 0.46805 0.93848 0.0
C258 C 0.61505 0.53785 0.95465 0.0
C259 C 0.39472 0.95646 0.0284 0.0
C260 C 0.37322 0.9261 0.02859 0.0
C261 C 0.39531 0.02196 0.99802 0.0
C262 C 0.37436 0.05991 0.96723 0.0
H263 H 0.41122 0.93001 0.05398 0.0
H264 H 0.41227 0.04331 1.00061 0.0
S265 S 0.31359 0.00233 0.94824 0.0
N266 N 0.33058 0.93803 0.99052 0.0
N267 N 0.33161 0.06121 0.93494 0.0
C268 C 0.35278 0.02976 0.96535 0.0
C269 C 0.35222 0.96291 0.99558 0.0
C270 C 0.38008 0.47297 0.88239 0.0
C271 C 0.37841 0.42836 0.96036 0.0
C272 C 0.38077 0.54115 0.90339 0.0
C273 C 0.37901 0.56673 1.00262 0.0
H274 H 0.3813 0.4549 0.80519 0.0
H275 H 0.38231 0.57418 0.84164 0.0
S276 S 0.37395 0.46999 0.23242 0.0
N277 N 0.37521 0.41393 0.13987 0.0
N278 N 0.37541 0.54214 0.17899 0.0
C279 C 0.37696 0.52253 0.08075 0.0
C280 C 0.37695 0.45323 0.05966 0.0
C281 C 0.60923 0.02282 0.99463 0.0
C282 C 0.62927 0.05054 0.95643 0.0
C283 C 0.61076 0.95695 0.02472 0.0
C284 C 0.63243 0.91629 0.01838 0.0
H285 H 0.59243 0.05298 1.00575 0.0
H286 H 0.59515 0.93906 0.05822 0.0
S287 S 0.68886 0.96033 0.90542 0.0
N288 N 0.67054 0.02884 0.90014 0.0
N289 N 0.67338 0.905 0.95725 0.0
C290 C 0.65203 0.94138 0.9723 0.0
C291 C 0.65045 0.00846 0.94093 0.0
C292 C 0.13888 0.25432 0.20397 0.0
C293 C 0.12053 0.21241 0.216 0.0
C294 C 0.14822 0.26511 0.10914 0.0
C295 C 0.13972 0.23444 0.02165 0.0
H296 H 0.14587 0.28026 0.26817 0.0
H297 H 0.16209 0.29858 0.10466 0.0
S298 S 0.09297 0.11637 0.01198 0.0
N299 N 0.09497 0.13739 0.13204 0.0
N300 N 0.11255 0.1576 0.95399 0.0
C301 C 0.12178 0.19105 0.03259 0.0
C302 C 0.11221 0.18007 0.1295 0.0
C303 C 0.89693 0.21539 0.07134 0.0
C304 C 0.89067 0.26091 0.1506 0.0
C305 C 0.88775 0.225 0.97443 0.0
C306 C 0.87182 0.28057 0.95204 0.0
H307 H 0.90879 0.17105 0.08417 0.0
H308 H 0.89294 0.18764 0.91703 0.0
S309 S 0.85076 0.41713 0.13132 0.0
N310 N 0.8683 0.36554 0.19922 0.0
N311 N 0.85097 0.3837 0.01693 0.0
C312 C 0.86581 0.32756 0.02998 0.0
C313 C 0.87523 0.31772 0.12912 0.0
C314 C 0.14338 0.66762 0.00913 0.0
C315 C 0.13497 0.70601 0.09362 0.0
C316 C 0.1338 0.67953 0.913 0.0
C317 C 0.11543 0.73052 0.89703 0.0
H318 H 0.15784 0.62869 0.01666 0.0
H319 H 0.14126 0.64933 0.85045 0.0
S320 S 0.08588 0.84263 0.09388 0.0
N321 N 0.10623 0.79514 0.15523 0.0
N322 N 0.08832 0.81754 0.97532 0.0
C323 C 0.10633 0.76799 0.9813 0.0
C324 C 0.11606 0.75574 0.07923 0.0
C325 C 0.8697 0.72641 0.83441 0.0
C326 C 0.89102 0.68488 0.81996 0.0
C327 C 0.86021 0.7403 0.93033 0.0
C328 C 0.8715 0.71308 0.01646 0.0
H329 H 0.86042 0.74984 0.7713 0.0
H330 H 0.84393 0.77333 0.93666 0.0
S331 S 0.92692 0.59745 0.01984 0.0
N332 N 0.9226 0.61395 0.90011 0.0
N333 N 0.90467 0.63985 0.08052 0.0
C334 C 0.89248 0.66988 1.00319 0.0
C335 C 0.90224 0.65586 0.90509 0.0
C336 C 0.61963 0.74309 0.49011 0.0
C337 C 0.63566 0.79044 0.4703 0.0
C338 C 0.61026 0.73712 0.58625 0.0
C339 C 0.61646 0.77826 0.66725 0.0
H340 H 0.6146 0.70902 0.4314 0.0
H341 H 0.59842 0.69877 0.59725 0.0
S342 S 0.6561 0.91448 0.65426 0.0
N343 N 0.65616 0.88237 0.53909 0.0
N344 N 0.63853 0.87108 0.71973 0.0
C345 C 0.63179 0.82756 0.64803 0.0
C346 C 0.64138 0.83365 0.54976 0.0
C347 C 0.3974 0.73123 0.58138 0.0
C348 C 0.39075 0.77621 0.66083 0.0
C349 C 0.38808 0.74038 0.48464 0.0
C350 C 0.37168 0.79502 0.46256 0.0
H351 H 0.40963 0.68758 0.594 0.0
H352 H 0.39356 0.70339 0.4271 0.0
S353 S 0.34966 0.93029 0.64234 0.0
N354 N 0.36762 0.87958 0.70994 0.0
N355 N 0.35008 0.89698 0.52784 0.0
C356 C 0.36536 0.84166 0.5406 0.0
C357 C 0.37488 0.83222 0.63965 0.0
C358 C 0.63739 0.22555 0.37063 0.0
C359 C 0.61919 0.27719 0.35608 0.0
C360 C 0.64653 0.21093 0.4665 0.0
C361 C 0.63802 0.24745 0.5525 0.0
H362 H 0.6444 0.19502 0.30764 0.0
H363 H 0.66031 0.17008 0.47291 0.0
S364 S 0.59149 0.39064 0.55542 0.0
N365 N 0.59364 0.36696 0.43607 0.0
N366 N 0.6109 0.33972 0.61602 0.0
C367 C 0.6202 0.30033 0.53903 0.0
C368 C 0.61078 0.31508 0.44109 0.0
C369 C 0.3709 0.2488 0.34642 0.0
C370 C 0.38901 0.19679 0.32961 0.0
C371 C 0.36179 0.26423 0.4426 0.0
C372 C 0.37029 0.2283 0.5266 0.0
H373 H 0.36397 0.2791 0.28511 0.0
H374 H 0.3481 0.30539 0.45093 0.0
S375 S 0.41631 0.0839 0.52255 0.0
N376 N 0.41429 0.10693 0.40466 0.0
N377 N 0.39708 0.13574 0.5856 0.0
C378 C 0.38798 0.17498 0.51075 0.0
C379 C 0.39734 0.15931 0.4124 0.0
C380 C 0.01707 0.24162 0.49061 0.0
C381 C 0.02931 0.29084 0.44621 0.0
C382 C 0.99221 0.24108 0.48099 0.0
C383 C 0.97845 0.28976 0.42658 0.0
H384 H 0.02672 0.20306 0.53366 0.0
H385 H 0.98375 0.20221 0.51718 0.0
S386 S 1.00172 0.42956 0.2947 0.0
N387 N 0.02566 0.3895 0.34476 0.0
N388 N 0.97904 0.38854 0.32681 0.0
C389 C 0.99045 0.33913 0.38115 0.0
C390 C 0.01581 0.33965 0.39091 0.0
C391 C 0.98981 0.67992 0.56159 0.0
C392 C 0.97781 0.74409 0.56931 0.0
C393 C 0.01474 0.66957 0.56976 0.0
C394 C 0.02873 0.72301 0.58483 0.0
H395 H 0.97989 0.63707 0.54934 0.0
H396 H 0.02309 0.61924 0.5627 0.0
S397 S 0.00609 0.9009 0.61184 0.0
N398 N 0.98182 0.86193 0.59449 0.0
N399 N 0.0287 0.84257 0.60915 0.0
C400 C 0.01697 0.78749 0.59337 0.0
C401 C 0.99153 0.79798 0.58591 0.0
C402 C 0.5126 0.86787 0.91411 0.0
C403 C 0.52792 0.81496 0.95111 0.0
C404 C 0.48774 0.86555 0.91163 0.0
C405 C 0.47709 0.81018 0.94597 0.0
H406 H 0.51981 0.91166 0.88654 0.0
H407 H 0.47683 0.90772 0.88236 0.0
S408 S 0.50917 0.65827 0.05064 0.0
N409 N 0.53054 0.70531 0.02339 0.0
N410 N 0.48391 0.70101 0.01873 0.0
C411 C 0.49218 0.75692 0.98364 0.0
C412 C 0.51753 0.75931 0.98624 0.0
C413 C 0.49252 0.30011 0.08063 0.0
C414 C 0.47866 0.24582 0.07412 0.0
C415 C 0.51756 0.29079 0.08351 0.0
C416 C 0.52975 0.2268 0.08156 0.0
H417 H 0.48402 0.3504 0.08149 0.0
H418 H 0.52743 0.33423 0.08712 0.0
S419 S 0.50181 0.06776 0.0685 0.0
N420 N 0.47901 0.12549 0.06825 0.0
N421 N 0.52601 0.10803 0.07471 0.0
C422 C 0.51611 0.17195 0.07729 0.0
C423 C 0.4906 0.18144 0.07318 0.0
loop_
_geom_bond_atom_site_label_1
_geom_bond_atom_site_label_2
_geom_bond_distance
_geom_bond_site_symmetry_2
_ccdc_geom_bond_type
Zn0 O6 1.969 . S
Zn0 O7 1.965 . S
Zn0 O11 2.024 . S
Zn0 O16 1.969 . S
Zn1 O8 1.969 . S
Zn1 O14 1.969 . S
Zn1 O15 1.965 . S
Zn1 O17 2.024 . S
C2 O3 1.229 . S
C2 O11 1.058 . S
O3 C2 1.229 . S
C4 O5 1.229 . S
C4 O17 1.058 . S
O5 C4 1.229 . S
O6 Zn0 1.969 . S
O6 C9 1.267 . S
O7 Zn0 1.965 . S
O7 C18 1.260 . S
O8 Zn1 1.969 . S
O8 C18 1.258 . S
C9 O6 1.267 . S
C9 O10 1.228 . S
O10 C9 1.228 . S
O11 Zn0 2.024 . S
O11 C2 1.058 . S
C12 O13 1.228 . S
C12 O14 1.267 . S
O13 C12 1.228 . S
O14 Zn1 1.969 . S
O14 C12 1.267 . S
O15 Zn1 1.965 . S
O15 C19 1.260 . S
O16 Zn0 1.969 . S
O16 C19 1.258 . S
O17 Zn1 2.024 . S
O17 C4 1.058 . S
C18 O7 1.260 . S
C18 O8 1.258 . S
C19 O15 1.260 . S
C19 O16 1.258 . S
Zn20 O26 1.969 . S
Zn20 O27 1.965 . S
Zn20 O31 2.024 . S
Zn20 O36 1.969 . S
Zn21 O28 1.969 . S
Zn21 O34 1.969 . S
Zn21 O35 1.965 . S
Zn21 O37 2.024 . S
C22 O23 1.229 . S
C22 O31 1.058 . S
O23 C22 1.229 . S
C24 O25 1.229 . S
C24 O37 1.058 . S
O25 C24 1.229 . S
O26 Zn20 1.969 . S
O26 C29 1.267 . S
O27 Zn20 1.965 . S
O27 C38 1.260 . S
O28 Zn21 1.969 . S
O28 C38 1.258 . S
C29 O26 1.267 . S
C29 O30 1.228 . S
O30 C29 1.228 . S
O31 Zn20 2.024 . S
O31 C22 1.058 . S
C32 O33 1.228 . S
C32 O34 1.267 . S
O33 C32 1.228 . S
O34 Zn21 1.969 . S
O34 C32 1.267 . S
O35 Zn21 1.965 . S
O35 C39 1.260 . S
O36 Zn20 1.969 . S
O36 C39 1.258 . S
O37 Zn21 2.024 . S
O37 C24 1.058 . S
C38 O27 1.260 . S
C38 O28 1.258 . S
C39 O35 1.260 . S
C39 O36 1.258 . S
Zn40 O46 1.969 . S
Zn40 O47 1.965 . S
Zn40 O51 2.024 . S
Zn40 O56 1.969 . S
Zn41 O48 1.969 . S
Zn41 O54 1.969 . S
Zn41 O55 1.965 . S
Zn41 O57 2.024 . S
C42 O43 1.229 . S
C42 O51 1.058 . S
O43 C42 1.229 . S
C44 O45 1.229 . S
C44 O57 1.058 . S
O45 C44 1.229 . S
O46 Zn40 1.969 . S
O46 C49 1.267 . S
O47 Zn40 1.965 . S
O47 C58 1.260 . S
O48 Zn41 1.969 . S
O48 C58 1.258 . S
C49 O46 1.267 . S
C49 O50 1.228 . S
O50 C49 1.228 . S
O51 Zn40 2.024 . S
O51 C42 1.058 . S
C52 O53 1.228 . S
C52 O54 1.267 . S
O53 C52 1.228 . S
O54 Zn41 1.969 . S
O54 C52 1.267 . S
O55 Zn41 1.965 . S
O55 C59 1.260 . S
O56 Zn40 1.969 . S
O56 C59 1.258 . S
O57 Zn41 2.024 . S
O57 C44 1.058 . S
C58 O47 1.260 . S
C58 O48 1.258 . S
C59 O55 1.260 . S
C59 O56 1.258 . S
Zn60 O66 1.969 . S
Zn60 O67 1.965 . S
Zn60 O71 2.024 . S
Zn60 O76 1.969 . S
Zn61 O68 1.969 . S
Zn61 O74 1.969 . S
Zn61 O75 1.965 . S
Zn61 O77 2.024 . S
C62 O63 1.229 . S
C62 O71 1.058 . S
O63 C62 1.229 . S
C64 O65 1.229 . S
C64 O77 1.058 . S
O65 C64 1.229 . S
O66 Zn60 1.969 . S
O66 C69 1.267 . S
O67 Zn60 1.965 . S
O67 C78 1.260 . S
O68 Zn61 1.969 . S
O68 C78 1.258 . S
C69 O66 1.267 . S
C69 O70 1.228 . S
O70 C69 1.228 . S
O71 Zn60 2.024 . S
O71 C62 1.058 . S
C72 O73 1.228 . S
C72 O74 1.267 . S
O73 C72 1.228 . S
O74 Zn61 1.969 . S
O74 C72 1.267 . S
O75 Zn61 1.965 . S
O75 C79 1.260 . S
O76 Zn60 1.969 . S
O76 C79 1.258 . S
O77 Zn61 2.024 . S
O77 C64 1.058 . S
C78 O67 1.260 . S
C78 O68 1.258 . S
C79 O75 1.260 . S
C79 O76 1.258 . S
Zn80 O86 1.969 . S
Zn80 O87 1.965 . S
Zn80 O91 2.024 . S
Zn80 O96 1.969 . S
Zn81 O88 1.969 . S
Zn81 O94 1.969 . S
Zn81 O95 1.965 1_556 S
Zn81 O97 2.024 . S
C82 O83 1.229 . S
C82 O91 1.058 . S
O83 C82 1.229 . S
C84 O85 1.229 . S
C84 O97 1.058 . S
O85 C84 1.229 . S
O86 Zn80 1.969 . S
O86 C89 1.267 . S
O87 Zn80 1.965 . S
O87 C98 1.260 1_554 S
O88 Zn81 1.969 . S
O88 C98 1.258 . S
C89 O86 1.267 . S
C89 O90 1.228 . S
O90 C89 1.228 . S
O91 Zn80 2.024 . S
O91 C82 1.058 . S
C92 O93 1.228 . S
C92 O94 1.267 . S
O93 C92 1.228 . S
O94 Zn81 1.969 . S
O94 C92 1.267 . S
O95 Zn81 1.965 1_554 S
O95 C99 1.260 . S
O96 Zn80 1.969 . S
O96 C99 1.258 . S
O97 Zn81 2.024 . S
O97 C84 1.058 . S
C98 O87 1.260 1_556 S
C98 O88 1.258 . S
C99 O95 1.260 . S
C99 O96 1.258 . S
Zn100 O106 1.969 . S
Zn100 O107 1.965 1_556 S
Zn100 O111 2.024 . S
Zn100 O116 1.969 . S
Zn101 O108 1.969 . S
Zn101 O114 1.969 . S
Zn101 O115 1.965 . S
Zn101 O117 2.024 . S
C102 O103 1.229 . S
C102 O111 1.058 . S
O103 C102 1.229 . S
C104 O105 1.229 . S
C104 O117 1.058 . S
O105 C104 1.229 . S
O106 Zn100 1.969 . S
O106 C109 1.267 . S
O107 Zn100 1.965 1_554 S
O107 C118 1.260 . S
O108 Zn101 1.969 . S
O108 C118 1.258 . S
C109 O106 1.267 . S
C109 O110 1.228 . S
O110 C109 1.228 . S
O111 Zn100 2.024 . S
O111 C102 1.058 . S
C112 O113 1.228 . S
C112 O114 1.267 . S
O113 C112 1.228 . S
O114 Zn101 1.969 . S
O114 C112 1.267 . S
O115 Zn101 1.965 . S
O115 C119 1.260 1_554 S
O116 Zn100 1.969 . S
O116 C119 1.258 . S
O117 Zn101 2.024 . S
O117 C104 1.058 . S
C118 O107 1.260 . S
C118 O108 1.258 . S
C119 O115 1.260 1_556 S
C119 O116 1.258 . S
Zn120 O126 1.969 . S
Zn120 O127 1.965 . S
Zn120 O131 2.024 . S
Zn120 O136 1.969 . S
Zn121 O128 1.969 . S
Zn121 O134 1.969 . S
Zn121 O135 1.965 1_554 S
Zn121 O137 2.024 . S
C122 O123 1.229 . S
C122 O131 1.058 . S
O123 C122 1.229 . S
C124 O125 1.229 . S
C124 O137 1.058 . S
O125 C124 1.229 . S
O126 Zn120 1.969 . S
O126 C129 1.267 . S
O127 Zn120 1.965 . S
O127 C138 1.260 1_556 S
O128 Zn121 1.969 . S
O128 C138 1.258 . S
C129 O126 1.267 . S
C129 O130 1.228 . S
O130 C129 1.228 . S
O131 Zn120 2.024 . S
O131 C122 1.058 . S
C132 O133 1.228 . S
C132 O134 1.267 . S
O133 C132 1.228 . S
O134 Zn121 1.969 . S
O134 C132 1.267 . S
O135 Zn121 1.965 1_556 S
O135 C139 1.260 . S
O136 Zn120 1.969 . S
O136 C139 1.258 . S
O137 Zn121 2.024 . S
O137 C124 1.058 . S
C138 O127 1.260 1_554 S
C138 O128 1.258 . S
C139 O135 1.260 . S
C139 O136 1.258 . S
Zn140 O146 1.969 . S
Zn140 O147 1.965 . S
Zn140 O151 2.024 . S
Zn140 O156 1.969 . S
Zn141 O148 1.969 . S
Zn141 O154 1.969 . S
Zn141 O155 1.965 1_554 S
Zn141 O157 2.024 . S
C142 O143 1.229 . S
C142 O151 1.058 . S
O143 C142 1.229 . S
C144 O145 1.229 . S
C144 O157 1.058 . S
O145 C144 1.229 . S
O146 Zn140 1.969 . S
O146 C149 1.267 . S
O147 Zn140 1.965 . S
O147 C158 1.260 1_556 S
O148 Zn141 1.969 . S
O148 C158 1.258 . S
C149 O146 1.267 . S
C149 O150 1.228 . S
O150 C149 1.228 . S
O151 Zn140 2.024 . S
O151 C142 1.058 . S
C152 O153 1.228 . S
C152 O154 1.267 . S
O153 C152 1.228 . S
O154 Zn141 1.969 . S
O154 C152 1.267 . S
O155 Zn141 1.965 1_556 S
O155 C159 1.260 . S
O156 Zn140 1.969 . S
O156 C159 1.258 . S
O157 Zn141 2.024 . S
O157 C144 1.058 . S
C158 O147 1.260 1_554 S
C158 O148 1.258 . S
C159 O155 1.260 . S
C159 O156 1.258 . S
C160 C161 1.369 . S
C160 C162 1.419 . S
C160 H164 0.930 . S
C161 C160 1.369 . S
C161 C170 1.429 . S
C162 C160 1.419 . S
C162 C163 1.363 . S
C162 H165 0.929 . S
C163 C162 1.363 . S
C163 C169 1.428 . S
H164 C160 0.930 . S
H165 C162 0.929 . S
S166 N167 1.613 . S
S166 N168 1.610 . S
N167 S166 1.613 . S
N167 C170 1.350 . S
N168 S166 1.610 . S
N168 C169 1.351 . S
C169 C163 1.428 . S
C169 N168 1.351 . S
C169 C170 1.434 . S
C170 C161 1.429 . S
C170 N167 1.350 . S
C170 C169 1.434 . S
C171 C172 1.369 . S
C171 C173 1.419 . S
C171 H175 0.930 . S
C172 C171 1.369 . S
C172 C181 1.429 . S
C173 C171 1.419 . S
C173 C174 1.363 . S
C173 H176 0.929 . S
C174 C173 1.363 . S
C174 C180 1.428 . S
H175 C171 0.930 . S
H176 C173 0.929 . S
S177 N178 1.613 . S
S177 N179 1.610 . S
N178 S177 1.613 . S
N178 C181 1.350 . S
N179 S177 1.610 . S
N179 C180 1.351 . S
C180 C174 1.428 . S
C180 N179 1.351 . S
C180 C181 1.434 . S
C181 C172 1.429 . S
C181 N178 1.350 . S
C181 C180 1.434 . S
C182 C183 1.369 . S
C182 C184 1.419 . S
C182 H186 0.930 . S
C183 C182 1.369 . S
C183 C192 1.429 . S
C184 C182 1.419 . S
C184 C185 1.363 . S
C184 H187 0.929 . S
C185 C184 1.363 . S
C185 C191 1.428 . S
H186 C182 0.930 . S
H187 C184 0.929 . S
S188 N189 1.613 . S
S188 N190 1.610 . S
N189 S188 1.613 . S
N189 C192 1.350 . S
N190 S188 1.610 . S
N190 C191 1.351 . S
C191 C185 1.428 . S
C191 N190 1.351 . S
C191 C192 1.434 . S
C192 C183 1.429 . S
C192 N189 1.350 . S
C192 C191 1.434 . S
C193 C194 1.369 . S
C193 C195 1.419 . S
C193 H197 0.930 . S
C194 C193 1.369 . S
C194 C203 1.429 . S
C195 C193 1.419 . S
C195 C196 1.363 . S
C195 H198 0.929 . S
C196 C195 1.363 . S
C196 C202 1.428 . S
H197 C193 0.930 . S
H198 C195 0.929 . S
S199 N200 1.613 . S
S199 N201 1.610 . S
N200 S199 1.613 . S
N200 C203 1.350 . S
N201 S199 1.610 . S
N201 C202 1.351 . S
C202 C196 1.428 . S
C202 N201 1.351 . S
C202 C203 1.434 . S
C203 C194 1.429 . S
C203 N200 1.350 . S
C203 C202 1.434 . S
C204 C205 1.369 . S
C204 C206 1.419 1_565 S
C204 H208 0.930 . S
C205 C204 1.369 . S
C205 C214 1.429 . S
C206 C204 1.419 1_545 S
C206 C207 1.363 . S
C206 H209 0.929 . S
C207 C206 1.363 . S
C207 C213 1.428 . S
H208 C204 0.930 . S
H209 C206 0.929 . S
S210 N211 1.613 . S
S210 N212 1.610 1_565 S
N211 S210 1.613 . S
N211 C214 1.350 . S
N212 S210 1.610 1_545 S
N212 C213 1.351 . S
C213 C207 1.428 . S
C213 N212 1.351 . S
C213 C214 1.434 1_545 S
C214 C205 1.429 . S
C214 N211 1.350 . S
C214 C213 1.434 1_565 S
C215 C216 1.369 . S
C215 C217 1.419 . S
C215 H219 0.930 . S
C216 C215 1.369 . S
C216 C225 1.429 . S
C217 C215 1.419 . S
C217 C218 1.363 . S
C217 H220 0.929 . S
C218 C217 1.363 . S
C218 C224 1.428 . S
H219 C215 0.930 . S
H220 C217 0.929 . S
S221 N222 1.613 . S
S221 N223 1.610 . S
N222 S221 1.613 . S
N222 C225 1.350 . S
N223 S221 1.610 . S
N223 C224 1.351 . S
C224 C218 1.428 . S
C224 N223 1.351 . S
C224 C225 1.434 . S
C225 C216 1.429 . S
C225 N222 1.350 . S
C225 C224 1.434 . S
C226 C227 1.369 . S
C226 C228 1.419 1_565 S
C226 H230 0.930 . S
C227 C226 1.369 . S
C227 C236 1.429 . S
C228 C226 1.419 1_545 S
C228 C229 1.363 . S
C228 H231 0.929 . S
C229 C228 1.363 . S
C229 C235 1.428 . S
H230 C226 0.930 . S
H231 C228 0.929 . S
S232 N233 1.613 1_545 S
S232 N234 1.610 . S
N233 S232 1.613 1_565 S
N233 C236 1.350 . S
N234 S232 1.610 . S
N234 C235 1.351 . S
C235 C229 1.428 . S
C235 N234 1.351 . S
C235 C236 1.434 1_545 S
C236 C227 1.429 . S
C236 N233 1.350 . S
C236 C235 1.434 1_565 S
C237 C238 1.369 . S
C237 C239 1.419 . S
C237 H241 0.930 . S
C238 C237 1.369 . S
C238 C247 1.429 . S
C239 C237 1.419 . S
C239 C240 1.363 . S
C239 H242 0.929 . S
C240 C239 1.363 . S
C240 C246 1.428 . S
H241 C237 0.930 . S
H242 C239 0.929 . S
S243 N244 1.613 . S
S243 N245 1.610 . S
N244 S243 1.613 . S
N244 C247 1.350 . S
N245 S243 1.610 . S
N245 C246 1.351 . S
C246 C240 1.428 . S
C246 N245 1.351 . S
C246 C247 1.434 . S
C247 C238 1.429 . S
C247 N244 1.350 . S
C247 C246 1.434 . S
C248 C249 1.369 . S
C248 C250 1.419 . S
C248 H252 0.930 . S
C249 C248 1.369 . S
C249 C258 1.429 . S
C250 C248 1.419 . S
C250 C251 1.363 1_554 S
C250 H253 0.929 . S
C251 C250 1.363 1_556 S
C251 C257 1.428 . S
H252 C248 0.930 . S
H253 C250 0.929 . S
S254 N255 1.613 . S
S254 N256 1.610 1_554 S
N255 S254 1.613 . S
N255 C258 1.350 . S
N256 S254 1.610 1_556 S
N256 C257 1.351 . S
C257 C251 1.428 . S
C257 N256 1.351 . S
C257 C258 1.434 1_556 S
C258 C249 1.429 . S
C258 N255 1.350 . S
C258 C257 1.434 1_554 S
C259 C260 1.369 1_556 S
C259 C261 1.419 1_565 S
C259 H263 0.930 . S
C260 C259 1.369 1_554 S
C260 C269 1.429 . S
C261 C259 1.419 1_545 S
C261 C262 1.363 . S
C261 H264 0.929 . S
C262 C261 1.363 . S
C262 C268 1.428 1_556 S
H263 C259 0.930 . S
H264 C261 0.929 . S
S265 N266 1.613 1_545 S
S265 N267 1.610 . S
N266 S265 1.613 1_565 S
N266 C269 1.350 . S
N267 S265 1.610 . S
N267 C268 1.351 . S
C268 C262 1.428 1_554 S
C268 N267 1.351 . S
C268 C269 1.434 1_545 S
C269 C260 1.429 . S
C269 N266 1.350 . S
C269 C268 1.434 1_565 S
C270 C271 1.369 . S
C270 C272 1.419 . S
C270 H274 0.930 . S
C271 C270 1.369 . S
C271 C280 1.429 1_556 S
C272 C270 1.419 . S
C272 C273 1.363 1_556 S
C272 H275 0.929 . S
C273 C272 1.363 1_554 S
C273 C279 1.428 . S
H274 C270 0.930 . S
H275 C272 0.929 . S
S276 N277 1.613 . S
S276 N278 1.610 . S
N277 S276 1.613 . S
N277 C280 1.350 . S
N278 S276 1.610 . S
N278 C279 1.351 . S
C279 C273 1.428 . S
C279 N278 1.351 . S
C279 C280 1.434 . S
C280 C271 1.429 1_554 S
C280 N277 1.350 . S
C280 C279 1.434 . S
C281 C282 1.369 1_554 S
C281 C283 1.419 1_545 S
C281 H285 0.930 . S
C282 C281 1.369 1_556 S
C282 C291 1.429 . S
C283 C281 1.419 1_565 S
C283 C284 1.363 . S
C283 H286 0.929 . S
C284 C283 1.363 . S
C284 C290 1.428 1_554 S
H285 C281 0.930 . S
H286 C283 0.929 . S
S287 N288 1.613 1_565 S
S287 N289 1.610 . S
N288 S287 1.613 1_545 S
N288 C291 1.350 . S
N289 S287 1.610 . S
N289 C290 1.351 . S
C290 C284 1.428 1_556 S
C290 N289 1.351 . S
C290 C291 1.434 1_565 S
C291 C282 1.429 . S
C291 N288 1.350 . S
C291 C290 1.434 1_545 S
C292 C293 1.369 . S
C292 C294 1.419 1_554 S
C292 H296 0.930 . S
C293 C292 1.369 . S
C293 C302 1.429 . S
C294 C292 1.419 1_556 S
C294 C295 1.363 . S
C294 H297 0.929 . S
C295 C294 1.363 . S
C295 C301 1.428 . S
H296 C292 0.930 . S
H297 C294 0.929 . S
S298 N299 1.613 1_556 S
S298 N300 1.610 . S
N299 S298 1.613 1_554 S
N299 C302 1.350 . S
N300 S298 1.610 . S
N300 C301 1.351 . S
C301 C295 1.428 . S
C301 N300 1.351 . S
C301 C302 1.434 1_556 S
C302 C293 1.429 . S
C302 N299 1.350 . S
C302 C301 1.434 1_554 S
C303 C304 1.369 . S
C303 C305 1.419 1_554 S
C303 H307 0.930 . S
C304 C303 1.369 . S
C304 C313 1.429 . S
C305 C303 1.419 1_556 S
C305 C306 1.363 . S
C305 H308 0.929 . S
C306 C305 1.363 . S
C306 C312 1.428 . S
H307 C303 0.930 . S
H308 C305 0.929 . S
S309 N310 1.613 1_556 S
S309 N311 1.610 . S
N310 S309 1.613 1_554 S
N310 C313 1.350 . S
N311 S309 1.610 . S
N311 C312 1.351 . S
C312 C306 1.428 . S
C312 N311 1.351 . S
C312 C313 1.434 1_556 S
C313 C304 1.429 . S
C313 N310 1.350 . S
C313 C312 1.434 1_554 S
C314 C315 1.369 . S
C314 C316 1.419 1_554 S
C314 H318 0.930 . S
C315 C314 1.369 . S
C315 C324 1.429 . S
C316 C314 1.419 1_556 S
C316 C317 1.363 . S
C316 H319 0.929 . S
C317 C316 1.363 . S
C317 C323 1.428 . S
H318 C314 0.930 . S
H319 C316 0.929 . S
S320 N321 1.613 . S
S320 N322 1.610 1_554 S
N321 S320 1.613 . S
N321 C324 1.350 . S
N322 S320 1.610 1_556 S
N322 C323 1.351 . S
C323 C317 1.428 . S
C323 N322 1.351 . S
C323 C324 1.434 1_556 S
C324 C315 1.429 . S
C324 N321 1.350 . S
C324 C323 1.434 1_554 S
C325 C326 1.369 . S
C325 C327 1.419 1_556 S
C325 H329 0.930 . S
C326 C325 1.369 . S
C326 C335 1.429 . S
C327 C325 1.419 1_554 S
C327 C328 1.363 . S
C327 H330 0.929 . S
C328 C327 1.363 . S
C328 C334 1.428 . S
H329 C325 0.930 . S
H330 C327 0.929 . S
S331 N332 1.613 1_554 S
S331 N333 1.610 . S
N332 S331 1.613 1_556 S
N332 C335 1.350 . S
N333 S331 1.610 . S
N333 C334 1.351 . S
C334 C328 1.428 . S
C334 N333 1.351 . S
C334 C335 1.434 1_554 S
C335 C326 1.429 . S
C335 N332 1.350 . S
C335 C334 1.434 1_556 S
C336 C337 1.369 . S
C336 C338 1.419 . S
C336 H340 0.930 . S
C337 C336 1.369 . S
C337 C346 1.429 . S
C338 C336 1.419 . S
C338 C339 1.363 . S
C338 H341 0.929 . S
C339 C338 1.363 . S
C339 C345 1.428 . S
H340 C336 0.930 . S
H341 C338 0.929 . S
S342 N343 1.613 . S
S342 N344 1.610 . S
N343 S342 1.613 . S
N343 C346 1.350 . S
N344 S342 1.610 . S
N344 C345 1.351 . S
C345 C339 1.428 . S
C345 N344 1.351 . S
C345 C346 1.434 . S
C346 C337 1.429 . S
C346 N343 1.350 . S
C346 C345 1.434 . S
C347 C348 1.369 . S
C347 C349 1.419 . S
C347 H351 0.930 . S
C348 C347 1.369 . S
C348 C357 1.429 . S
C349 C347 1.419 . S
C349 C350 1.363 . S
C349 H352 0.929 . S
C350 C349 1.363 . S
C350 C356 1.428 . S
H351 C347 0.930 . S
H352 C349 0.929 . S
S353 N354 1.613 . S
S353 N355 1.610 . S
N354 S353 1.613 . S
N354 C357 1.350 . S
N355 S353 1.610 . S
N355 C356 1.351 . S
C356 C350 1.428 . S
C356 N355 1.351 . S
C356 C357 1.434 . S
C357 C348 1.429 . S
C357 N354 1.350 . S
C357 C356 1.434 . S
C358 C359 1.369 . S
C358 C360 1.419 . S
C358 H362 0.930 . S
C359 C358 1.369 . S
C359 C368 1.429 . S
C360 C358 1.419 . S
C360 C361 1.363 . S
C360 H363 0.929 . S
C361 C360 1.363 . S
C361 C367 1.428 . S
H362 C358 0.930 . S
H363 C360 0.929 . S
S364 N365 1.613 . S
S364 N366 1.610 . S
N365 S364 1.613 . S
N365 C368 1.350 . S
N366 S364 1.610 . S
N366 C367 1.351 . S
C367 C361 1.428 . S
C367 N366 1.351 . S
C367 C368 1.434 . S
C368 C359 1.429 . S
C368 N365 1.350 . S
C368 C367 1.434 . S
C369 C370 1.369 . S
C369 C371 1.419 . S
C369 H373 0.930 . S
C370 C369 1.369 . S
C370 C379 1.429 . S
C371 C369 1.419 . S
C371 C372 1.363 . S
C371 H374 0.929 . S
C372 C371 1.363 . S
C372 C378 1.428 . S
H373 C369 0.930 . S
H374 C371 0.929 . S
S375 N376 1.613 . S
S375 N377 1.610 . S
N376 S375 1.613 . S
N376 C379 1.350 . S
N377 S375 1.610 . S
N377 C378 1.351 . S
C378 C372 1.428 . S
C378 N377 1.351 . S
C378 C379 1.434 . S
C379 C370 1.429 . S
C379 N376 1.350 . S
C379 C378 1.434 . S
C380 C381 1.369 . S
C380 C382 1.419 1_455 S
C380 H384 0.930 . S
C381 C380 1.369 . S
C381 C390 1.429 . S
C382 C380 1.419 1_655 S
C382 C383 1.363 . S
C382 H385 0.929 . S
C383 C382 1.363 . S
C383 C389 1.428 . S
H384 C380 0.930 . S
H385 C382 0.929 . S
S386 N387 1.613 1_655 S
S386 N388 1.610 . S
N387 S386 1.613 1_455 S
N387 C390 1.350 . S
N388 S386 1.610 . S
N388 C389 1.351 . S
C389 C383 1.428 . S
C389 N388 1.351 . S
C389 C390 1.434 1_655 S
C390 C381 1.429 . S
C390 N387 1.350 . S
C390 C389 1.434 1_455 S
C391 C392 1.369 . S
C391 C393 1.419 1_655 S
C391 H395 0.930 . S
C392 C391 1.369 . S
C392 C401 1.429 . S
C393 C391 1.419 1_455 S
C393 C394 1.363 . S
C393 H396 0.929 . S
C394 C393 1.363 . S
C394 C400 1.428 . S
H395 C391 0.930 . S
H396 C393 0.929 . S
S397 N398 1.613 . S
S397 N399 1.610 1_655 S
N398 S397 1.613 . S
N398 C401 1.350 . S
N399 S397 1.610 1_455 S
N399 C400 1.351 . S
C400 C394 1.428 . S
C400 N399 1.351 . S
C400 C401 1.434 1_455 S
C401 C392 1.429 . S
C401 N398 1.350 . S
C401 C400 1.434 1_655 S
C402 C403 1.369 . S
C402 C404 1.419 . S
C402 H406 0.930 . S
C403 C402 1.369 . S
C403 C412 1.429 . S
C404 C402 1.419 . S
C404 C405 1.363 . S
C404 H407 0.929 . S
C405 C404 1.363 . S
C405 C411 1.428 . S
H406 C402 0.930 . S
H407 C404 0.929 . S
S408 N409 1.613 . S
S408 N410 1.610 . S
N409 S408 1.613 . S
N409 C412 1.350 1_554 S
N410 S408 1.610 . S
N410 C411 1.351 1_554 S
C411 C405 1.428 . S
C411 N410 1.351 1_556 S
C411 C412 1.434 . S
C412 C403 1.429 . S
C412 N409 1.350 1_556 S
C412 C411 1.434 . S
C413 C414 1.369 . S
C413 C415 1.419 . S
C413 H417 0.930 . S
C414 C413 1.369 . S
C414 C423 1.429 . S
C415 C413 1.419 . S
C415 C416 1.363 . S
C415 H418 0.929 . S
C416 C415 1.363 . S
C416 C422 1.428 . S
H417 C413 0.930 . S
H418 C415 0.929 . S
S419 N420 1.613 . S
S419 N421 1.610 . S
N420 S419 1.613 . S
N420 C423 1.350 . S
N421 S419 1.610 . S
N421 C422 1.351 . S
C422 C416 1.428 . S
C422 N421 1.351 . S
C422 C423 1.434 . S
C423 C414 1.429 . S
C423 N420 1.350 . S
C423 C422 1.434 . S
C161 C9 1.634 . S
C163 C149 1.638 . S
C172 C129 1.624 . S
C174 C32 1.614 . S
C183 C112 1.623 . S
C185 C49 1.614 . S
C194 C89 1.641 . S
C196 C69 1.632 . S
C205 C58 1.480 . S
C207 C18 1.471 . S
C216 C38 1.256 . S
C218 C78 1.237 . S
C227 C79 1.730 . S
C229 C39 1.718 . S
C238 C59 1.518 . S
C240 C19 1.506 . S
C249 C98 1.470 1_554 S
C251 C138 1.479 1_556 S
C260 C118 1.252 . S
C262 C158 1.237 1_556 S
C271 C159 1.733 . S
C273 C119 1.723 1_554 S
C282 C139 1.514 . S
C284 C99 1.508 . S
C293 C4 1.526 . S
C295 C2 1.528 . S
C304 C22 1.522 . S
C306 C24 1.523 . S
C315 C42 1.523 . S
C317 C44 1.520 . S
C326 C64 1.515 . S
C328 C62 1.521 . S
C337 C82 1.528 . S
C339 C84 1.526 . S
C348 C102 1.525 . S
C350 C104 1.520 . S
C359 C124 1.520 . S
C361 C122 1.522 . S
C370 C144 1.519 . S
C372 C142 1.518 . S
C381 C12 1.921 . S
C383 C29 1.915 . S
C392 C72 1.899 . S
C394 C52 1.900 . S
C403 C92 1.922 . S
C405 C109 1.916 . S
C414 C152 1.900 . S
C416 C132 1.900 . S
