# Generated by pormake.
# Topology ukb, (4)-cn, num edge types: 1
# Building blocks:
#     Node 0, Type 0, BuildingBlock: QUQFOY_clean_sbu_3, # of connection points: 4
#     Node 1, Type 0, BuildingBlock: QUQFOY_clean_sbu_3, # of connection points: 4
#     Node 2, Type 0, BuildingBlock: QUQFOY_clean_sbu_3, # of connection points: 4
#     Node 3, Type 0, BuildingBlock: QUQFOY_clean_sbu_3, # of connection points: 4
#     Node 4, Type 0, BuildingBlock: QUQFOY_clean_sbu_3, # of connection points: 4
#     Node 5, Type 0, BuildingBlock: QUQFOY_clean_sbu_3, # of connection points: 4
#     Node 6, Type 0, BuildingBlock: QUQFOY_clean_sbu_3, # of connection points: 4
#     Node 7, Type 0, BuildingBlock: QUQFOY_clean_sbu_3, # of connection points: 4
#     Node 8, Type 0, BuildingBlock: QUQFOY_clean_sbu_3, # of connection points: 4
#     Node 9, Type 0, BuildingBlock: QUQFOY_clean_sbu_3, # of connection points: 4
#     Node 10, Type 0, BuildingBlock: QUQFOY_clean_sbu_3, # of connection points: 4
#     Node 11, Type 0, BuildingBlock: QUQFOY_clean_sbu_3, # of connection points: 4
#     Node 12, Type 0, BuildingBlock: QUQFOY_clean_sbu_3, # of connection points: 4
#     Node 13, Type 0, BuildingBlock: QUQFOY_clean_sbu_3, # of connection points: 4
#     Node 14, Type 0, BuildingBlock: QUQFOY_clean_sbu_3, # of connection points: 4
#     Node 15, Type 0, BuildingBlock: QUQFOY_clean_sbu_3, # of connection points: 4
#     Edge 16, Type (0, 0), BuildingBlock: AJUNOK_clean_linker_0, # of connection points: 2
#     Edge 17, Type (0, 0), BuildingBlock: AJUNOK_clean_linker_0, # of connection points: 2
#     Edge 18, Type (0, 0), BuildingBlock: AJUNOK_clean_linker_0, # of connection points: 2
#     Edge 19, Type (0, 0), BuildingBlock: AJUNOK_clean_linker_0, # of connection points: 2
#     Edge 20, Type (0, 0), BuildingBlock: AJUNOK_clean_linker_0, # of connection points: 2
#     Edge 21, Type (0, 0), BuildingBlock: AJUNOK_clean_linker_0, # of connection points: 2
#     Edge 22, Type (0, 0), BuildingBlock: AJUNOK_clean_linker_0, # of connection points: 2
#     Edge 23, Type (0, 0), BuildingBlock: AJUNOK_clean_linker_0, # of connection points: 2
#     Edge 24, Type (0, 0), BuildingBlock: AJUNOK_clean_linker_0, # of connection points: 2
#     Edge 25, Type (0, 0), BuildingBlock: AJUNOK_clean_linker_0, # of connection points: 2
#     Edge 26, Type (0, 0), BuildingBlock: AJUNOK_clean_linker_0, # of connection points: 2
#     Edge 27, Type (0, 0), BuildingBlock: AJUNOK_clean_linker_0, # of connection points: 2
#     Edge 28, Type (0, 0), BuildingBlock: AJUNOK_clean_linker_0, # of connection points: 2
#     Edge 29, Type (0, 0), BuildingBlock: AJUNOK_clean_linker_0, # of connection points: 2
#     Edge 30, Type (0, 0), BuildingBlock: AJUNOK_clean_linker_0, # of connection points: 2
#     Edge 31, Type (0, 0), BuildingBlock: AJUNOK_clean_linker_0, # of connection points: 2
#     Edge 32, Type (0, 0), BuildingBlock: AJUNOK_clean_linker_0, # of connection points: 2
#     Edge 33, Type (0, 0), BuildingBlock: AJUNOK_clean_linker_0, # of connection points: 2
#     Edge 34, Type (0, 0), BuildingBlock: AJUNOK_clean_linker_0, # of connection points: 2
#     Edge 35, Type (0, 0), BuildingBlock: AJUNOK_clean_linker_0, # of connection points: 2
#     Edge 36, Type (0, 0), BuildingBlock: AJUNOK_clean_linker_0, # of connection points: 2
#     Edge 37, Type (0, 0), BuildingBlock: AJUNOK_clean_linker_0, # of connection points: 2
#     Edge 38, Type (0, 0), BuildingBlock: AJUNOK_clean_linker_0, # of connection points: 2
#     Edge 39, Type (0, 0), BuildingBlock: AJUNOK_clean_linker_0, # of connection points: 2
#     Edge 40, Type (0, 0), BuildingBlock: AJUNOK_clean_linker_0, # of connection points: 2
#     Edge 41, Type (0, 0), BuildingBlock: AJUNOK_clean_linker_0, # of connection points: 2
#     Edge 42, Type (0, 0), BuildingBlock: AJUNOK_clean_linker_0, # of connection points: 2
#     Edge 43, Type (0, 0), BuildingBlock: AJUNOK_clean_linker_0, # of connection points: 2
#     Edge 44, Type (0, 0), BuildingBlock: AJUNOK_clean_linker_0, # of connection points: 2
#     Edge 45, Type (0, 0), BuildingBlock: AJUNOK_clean_linker_0, # of connection points: 2
#     Edge 46, Type (0, 0), BuildingBlock: AJUNOK_clean_linker_0, # of connection points: 2
#     Edge 47, Type (0, 0), BuildingBlock: AJUNOK_clean_linker_0, # of connection points: 2
# Relax obj value: 0.083
# Max RMSD: 0.049
# Mean RMSD: 0.049
data_MOF--net-ukb--node1-QUQFOY_clean_sbu_3--edge1-AJUNOK_clean_linker_0
_symmetry_space_group_name_H-M    P1
_symmetry_Int_Tables_number       1
_symmetry_cell_setting            triclinic
loop_
_symmetry_equiv_pos_as_xyz
'x, y, z'
_cell_length_a     34.439579
_cell_length_b     34.240536
_cell_length_c     30.513264
_cell_angle_alpha  90.343485
_cell_angle_beta   90.269553
_cell_angle_gamma 90.162696
loop_
_atom_site_label
_atom_site_type_symbol
_atom_site_fract_x
_atom_site_fract_y
_atom_site_fract_z
_atom_type_partial_charge
C0 C 0.52 0.19252 0.04701 0.0
O1 O 0.55312 0.17646 0.04646 0.0
Cd2 Cd 0.59004 0.17122 0.11222 0.0
O3 O 0.50217 0.19821 0.08299 0.0
Cd4 Cd 0.50905 0.17616 0.1608 0.0
C5 C 0.56182 0.25747 0.16552 0.0
O6 O 0.55896 0.12507 0.15749 0.0
O7 O 0.55149 0.15397 0.21967 0.0
O8 O 0.45087 0.137 0.15085 0.0
C9 C 0.56861 0.12774 0.19758 0.0
O10 O 0.58646 0.23718 0.14425 0.0
C11 C 0.43462 0.14778 0.18615 0.0
O12 O 0.52928 0.24299 0.17688 0.0
O13 O 0.45245 0.17311 0.20938 0.0
C14 C 0.27334 0.526 0.55068 0.0
O15 O 0.28997 0.55906 0.55307 0.0
Cd16 Cd 0.30145 0.59213 0.62097 0.0
O17 O 0.26822 0.50533 0.5848 0.0
Cd18 Cd 0.2909 0.50673 0.66301 0.0
C19 C 0.21552 0.56681 0.67566 0.0
O20 O 0.34436 0.55437 0.6631 0.0
O21 O 0.31608 0.54437 0.72467 0.0
O22 O 0.32808 0.44778 0.64976 0.0
C23 C 0.34244 0.56206 0.70378 0.0
O24 O 0.23798 0.59111 0.65685 0.0
C25 C 0.3169 0.42995 0.68383 0.0
O26 O 0.22623 0.53159 0.68179 0.0
O27 O 0.29164 0.44702 0.70739 0.0
C28 C 0.94314 0.27164 0.04445 0.0
O29 O 0.90803 0.28274 0.04335 0.0
Cd30 Cd 0.87012 0.29646 0.10624 0.0
O31 O 0.96296 0.27267 0.07992 0.0
Cd32 Cd 0.95558 0.29961 0.15645 0.0
C33 C 0.90151 0.21844 0.17088 0.0
O34 O 0.9043 0.34657 0.14274 0.0
O35 O 0.91582 0.33522 0.2107 0.0
O36 O 0.01432 0.33793 0.14497 0.0
C37 C 0.89615 0.35358 0.1824 0.0
O38 O 0.87652 0.23546 0.14674 0.0
C39 C 0.02981 0.32983 0.18165 0.0
O40 O 0.93375 0.23476 0.18079 0.0
O41 O 0.01157 0.30598 0.20589 0.0
C42 C 0.19086 0.93782 0.54476 0.0
O43 O 0.17968 0.90246 0.5449 0.0
Cd44 Cd 0.16773 0.86512 0.60887 0.0
O45 O 0.19161 0.9583 0.57983 0.0
Cd46 Cd 0.16876 0.95173 0.65753 0.0
C47 C 0.24811 0.8952 0.671 0.0
O48 O 0.12036 0.90078 0.6471 0.0
O49 O 0.13533 0.91307 0.7142 0.0
O50 O 0.13078 0.01076 0.64734 0.0
C51 C 0.1152 0.89328 0.68721 0.0
O52 O 0.2295 0.86989 0.64832 0.0
C53 C 0.14124 0.02699 0.68305 0.0
O54 O 0.23349 0.9286 0.67939 0.0
O55 O 0.16644 0.00908 0.70588 0.0
C56 C 0.51732 0.27141 0.88529 0.0
O57 O 0.55091 0.2867 0.88518 0.0
Cd58 Cd 0.58652 0.29731 0.81969 0.0
O59 O 0.49765 0.26769 0.84999 0.0
Cd60 Cd 0.50248 0.29128 0.77263 0.0
C61 C 0.55932 0.21274 0.76178 0.0
O62 O 0.55177 0.34298 0.77767 0.0
O63 O 0.54271 0.31704 0.7141 0.0
O64 O 0.44412 0.33007 0.78224 0.0
C65 C 0.56055 0.34216 0.73736 0.0
O66 O 0.58398 0.23334 0.78312 0.0
C67 C 0.42763 0.31885 0.74702 0.0
O68 O 0.52547 0.2258 0.75333 0.0
O69 O 0.44504 0.29282 0.7247 0.0
C70 C 0.1938 0.52843 0.3875 0.0
O71 O 0.17872 0.56218 0.38759 0.0
Cd72 Cd 0.1705 0.59818 0.32159 0.0
O73 O 0.19737 0.509 0.35197 0.0
Cd74 Cd 0.17322 0.51454 0.27464 0.0
C75 C 0.25379 0.56788 0.2653 0.0
O76 O 0.12431 0.56683 0.27616 0.0
O77 O 0.15385 0.5566 0.21508 0.0
O78 O 0.13047 0.45846 0.28261 0.0
C79 C 0.12857 0.57577 0.23615 0.0
O80 O 0.23419 0.59338 0.2863 0.0
C81 C 0.14151 0.44097 0.24804 0.0
O82 O 0.23953 0.53428 0.25659 0.0
O83 O 0.16913 0.45668 0.2269 0.0
C84 C 0.94451 0.19023 0.88405 0.0
O85 O 0.91069 0.17545 0.88365 0.0
Cd86 Cd 0.87461 0.16522 0.81788 0.0
O87 O 0.9639 0.1938 0.84878 0.0
Cd88 Cd 0.95793 0.16935 0.77123 0.0
C89 C 0.90239 0.24827 0.75906 0.0
O90 O 0.90809 0.11825 0.77601 0.0
O91 O 0.91698 0.14352 0.7125 0.0
O92 O 0.01561 0.13007 0.78242 0.0
C93 C 0.8991 0.11876 0.73566 0.0
O94 O 0.87772 0.22855 0.78085 0.0
C95 C 0.03235 0.14 0.74721 0.0
O96 O 0.93597 0.23461 0.75064 0.0
O97 O 0.01522 0.16528 0.72371 0.0
C98 C 0.27063 0.94687 0.38412 0.0
O99 O 0.28645 0.91349 0.3834 0.0
Cd100 Cd 0.29635 0.87954 0.31627 0.0
O101 O 0.26703 0.96688 0.34924 0.0
Cd102 Cd 0.29243 0.96352 0.27243 0.0
C103 C 0.21298 0.90938 0.25929 0.0
O104 O 0.34336 0.91384 0.2757 0.0
O105 O 0.31621 0.9224 0.21287 0.0
O106 O 0.33259 0.02111 0.28405 0.0
C107 C 0.34199 0.90512 0.23526 0.0
O108 O 0.23263 0.88393 0.28015 0.0
C109 C 0.32194 0.03844 0.24934 0.0
O110 O 0.22704 0.94308 0.25145 0.0
O111 O 0.29556 0.02187 0.22656 0.0
C112 C 0.44078 0.77469 0.88814 0.0
O113 O 0.4072 0.78976 0.88712 0.0
Cd114 Cd 0.37199 0.79621 0.82042 0.0
O115 O 0.46027 0.76975 0.85309 0.0
Cd116 Cd 0.45551 0.79138 0.77465 0.0
C117 C 0.40203 0.71048 0.76692 0.0
O118 O 0.40528 0.842 0.77708 0.0
O119 O 0.41427 0.81376 0.71484 0.0
O120 O 0.51311 0.83154 0.78538 0.0
C121 C 0.39637 0.83953 0.73679 0.0
O122 O 0.37694 0.73089 0.78737 0.0
C123 C 0.52995 0.82095 0.75036 0.0
O124 O 0.43516 0.72459 0.75715 0.0
O125 O 0.51293 0.79499 0.72723 0.0
C126 C 0.69075 0.43484 0.37994 0.0
O127 O 0.68143 0.39973 0.37131 0.0
Cd128 Cd 0.66779 0.37256 0.30088 0.0
O129 O 0.69085 0.46078 0.35014 0.0
Cd130 Cd 0.67092 0.46191 0.27101 0.0
C131 C 0.74819 0.40718 0.2456 0.0
O132 O 0.61959 0.41217 0.26945 0.0
O133 O 0.6448 0.42587 0.2074 0.0
O134 O 0.63174 0.51996 0.28389 0.0
C135 C 0.61958 0.40666 0.2284 0.0
O136 O 0.72754 0.37854 0.25841 0.0
C137 C 0.64369 0.5384 0.25056 0.0
O138 O 0.73668 0.44234 0.2498 0.0
O139 O 0.67039 0.52231 0.22831 0.0
C140 C 0.0237 0.69552 0.88539 0.0
O141 O 0.05887 0.68483 0.88272 0.0
Cd142 Cd 0.09254 0.66798 0.81677 0.0
O143 O 0.0011 0.6939 0.85224 0.0
Cd144 Cd 0.00527 0.66801 0.7757 0.0
C145 C 0.06061 0.74637 0.75468 0.0
O146 O 0.05765 0.61927 0.77872 0.0
O147 O 0.04494 0.64448 0.71586 0.0
O148 O 0.94841 0.6262 0.78407 0.0
C149 C 0.06518 0.6209 0.73809 0.0
O150 O 0.08817 0.72686 0.7719 0.0
C151 C 0.9315 0.63751 0.7493 0.0
O152 O 0.02568 0.73388 0.75453 0.0
O153 O 0.9478 0.66487 0.72818 0.0
C154 C 0.77445 0.02847 0.38836 0.0
O155 O 0.78881 0.06262 0.38773 0.0
Cd156 Cd 0.79822 0.09748 0.32115 0.0
O157 O 0.77114 0.00831 0.35325 0.0
Cd158 Cd 0.7948 0.01314 0.27575 0.0
C159 C 0.71528 0.06788 0.26302 0.0
O160 O 0.84527 0.06431 0.27904 0.0
O161 O 0.8191 0.05282 0.21611 0.0
O162 O 0.83529 0.95594 0.28708 0.0
C163 C 0.84409 0.07172 0.23833 0.0
O164 O 0.7349 0.09333 0.28439 0.0
C165 C 0.82454 0.9379 0.25261 0.0
O166 O 0.72919 0.0341 0.25503 0.0
O167 O 0.79836 0.9541 0.22952 0.0
C168 C 0.4428 0.69685 0.05118 0.0
O169 O 0.40971 0.68051 0.05136 0.0
Cd170 Cd 0.37511 0.67123 0.11787 0.0
O171 O 0.46219 0.70146 0.08654 0.0
Cd172 Cd 0.45826 0.67786 0.16401 0.0
C173 C 0.4027 0.75685 0.17357 0.0
O174 O 0.40925 0.62569 0.16102 0.0
O175 O 0.41792 0.65403 0.22343 0.0
O176 O 0.51666 0.63968 0.1528 0.0
C177 C 0.40062 0.62771 0.20135 0.0
O178 O 0.37787 0.73598 0.15283 0.0
C179 C 0.53338 0.65024 0.18812 0.0
O180 O 0.43648 0.74374 0.18222 0.0
O181 O 0.51589 0.67535 0.21166 0.0
C182 C 0.76279 0.43266 0.54782 0.0
O183 O 0.77427 0.39759 0.5503 0.0
Cd184 Cd 0.78977 0.36528 0.61656 0.0
O185 O 0.76357 0.45531 0.58115 0.0
Cd186 Cd 0.78903 0.45213 0.65838 0.0
C187 C 0.70926 0.39797 0.67509 0.0
O188 O 0.83885 0.40134 0.65318 0.0
O189 O 0.8159 0.41252 0.71741 0.0
O190 O 0.82897 0.50994 0.64668 0.0
C191 C 0.83987 0.394 0.69388 0.0
O192 O 0.72805 0.37143 0.65489 0.0
C193 C 0.81953 0.5271 0.68205 0.0
O194 O 0.72373 0.43192 0.68113 0.0
O195 O 0.79404 0.51036 0.70544 0.0
C196 C 0.02316 0.77879 0.04659 0.0
O197 O 0.0559 0.79587 0.0472 0.0
Cd198 Cd 0.0914 0.80959 0.11283 0.0
O199 O 0.00374 0.77416 0.0817 0.0
Cd200 Cd 0.00811 0.79861 0.15943 0.0
C201 C 0.06975 0.72417 0.17119 0.0
O202 O 0.05508 0.85259 0.15637 0.0
O203 O 0.04813 0.82433 0.21861 0.0
O204 O 0.94906 0.83661 0.15072 0.0
C205 C 0.06453 0.85088 0.19657 0.0
O206 O 0.09273 0.74681 0.15067 0.0
C207 C 0.93341 0.8255 0.18615 0.0
O208 O 0.03468 0.73429 0.17843 0.0
O209 O 0.95123 0.79936 0.20775 0.0
C210 C 0.69277 0.02255 0.54892 0.0
O211 O 0.67683 0.05587 0.54933 0.0
Cd212 Cd 0.66689 0.09016 0.61628 0.0
O213 O 0.69622 0.00274 0.58399 0.0
Cd214 Cd 0.67045 0.00668 0.66089 0.0
C215 C 0.75012 0.0608 0.67365 0.0
O216 O 0.61958 0.05667 0.6574 0.0
O217 O 0.64709 0.04838 0.72008 0.0
O218 O 0.63013 0.94875 0.65063 0.0
C219 C 0.62119 0.06558 0.69779 0.0
O220 O 0.73062 0.08613 0.65245 0.0
C221 C 0.64085 0.93202 0.68569 0.0
O222 O 0.7359 0.02722 0.68183 0.0
O223 O 0.66731 0.94898 0.70799 0.0
C224 C 0.39516 0.12088 0.24725 0.0
C225 C 0.39957 0.12745 0.20212 0.0
C226 C 0.36782 0.0939 0.26266 0.0
C227 C 0.34344 0.07311 0.23355 0.0
H228 H 0.41484 0.13443 0.27064 0.0
H229 H 0.36722 0.08782 0.29746 0.0
S230 S 0.33889 0.08538 0.11283 0.0
N231 N 0.3742 0.11495 0.12894 0.0
N232 N 0.32211 0.06496 0.15785 0.0
C233 C 0.34508 0.0823 0.18869 0.0
C234 C 0.37339 0.10926 0.17297 0.0
C235 C 0.34248 0.38827 0.74406 0.0
C236 C 0.33738 0.39449 0.69889 0.0
C237 C 0.36996 0.36146 0.75952 0.0
C238 C 0.39275 0.33936 0.73039 0.0
H239 H 0.32738 0.40633 0.76772 0.0
H240 H 0.37481 0.35959 0.79455 0.0
S241 S 0.38539 0.33986 0.60899 0.0
N242 N 0.35374 0.373 0.62523 0.0
N243 N 0.40469 0.32191 0.65421 0.0
C244 C 0.38517 0.34258 0.68519 0.0
C245 C 0.35768 0.37038 0.66946 0.0
C246 C 0.06916 0.35767 0.24324 0.0
C247 C 0.06427 0.35159 0.19791 0.0
C248 C 0.09609 0.38502 0.2594 0.0
C249 C 0.11969 0.40673 0.23091 0.0
H250 H 0.05028 0.34318 0.26637 0.0
H251 H 0.09717 0.39042 0.29441 0.0
S252 S 0.12233 0.39721 0.10972 0.0
N253 N 0.0881 0.36635 0.12499 0.0
N254 N 0.13937 0.4171 0.15537 0.0
C255 C 0.1174 0.39849 0.18573 0.0
C256 C 0.08948 0.37112 0.16922 0.0
C257 C 0.09805 0.08439 0.67056 0.0
C258 C 0.12086 0.06218 0.69954 0.0
C259 C 0.07175 0.11233 0.6862 0.0
C260 C 0.06683 0.11853 0.73142 0.0
H261 H 0.09902 0.07878 0.6356 0.0
H262 H 0.05318 0.127 0.66277 0.0
S263 S 0.12374 0.07261 0.82069 0.0
N264 N 0.14033 0.05208 0.77542 0.0
N265 N 0.09024 0.10393 0.80473 0.0
C266 C 0.09158 0.09882 0.76055 0.0
C267 C 0.11882 0.07083 0.74462 0.0
C268 C 0.56934 0.84794 0.68915 0.0
C269 C 0.56453 0.84219 0.7344 0.0
C270 C 0.59611 0.87536 0.67339 0.0
C271 C 0.61957 0.89745 0.70225 0.0
H272 H 0.55041 0.83325 0.66582 0.0
H273 H 0.59706 0.88063 0.63843 0.0
S274 S 0.62255 0.88838 0.82341 0.0
N275 N 0.5884 0.85735 0.8076 0.0
N276 N 0.63942 0.90815 0.77806 0.0
C277 C 0.61746 0.88935 0.74736 0.0
C278 C 0.5897 0.86194 0.76342 0.0
C279 C 0.57271 0.62244 0.24913 0.0
C280 C 0.56825 0.6295 0.20404 0.0
C281 C 0.59941 0.59476 0.26439 0.0
C282 C 0.62315 0.57378 0.23518 0.0
H283 H 0.55342 0.63611 0.27257 0.0
H284 H 0.59996 0.58827 0.29909 0.0
S285 S 0.62732 0.58681 0.11458 0.0
N286 N 0.59291 0.61701 0.13085 0.0
N287 N 0.64385 0.56577 0.15948 0.0
C288 C 0.62156 0.5834 0.19041 0.0
C289 C 0.59385 0.61104 0.17484 0.0
C290 C 0.87431 0.59361 0.76007 0.0
C291 C 0.89726 0.61616 0.73174 0.0
C292 C 0.84666 0.56709 0.74366 0.0
C293 C 0.84158 0.56152 0.69826 0.0
H294 H 0.8789 0.59519 0.79519 0.0
H295 H 0.83113 0.54896 0.76672 0.0
S296 S 0.89104 0.61662 0.61025 0.0
N297 N 0.91012 0.63408 0.65611 0.0
N298 N 0.8589 0.5835 0.62532 0.0
C299 C 0.8625 0.58567 0.66964 0.0
C300 C 0.89014 0.61322 0.68638 0.0
C301 C 0.84849 0.89518 0.19191 0.0
C302 C 0.84557 0.90275 0.23714 0.0
C303 C 0.87521 0.86791 0.17565 0.0
C304 C 0.8994 0.8466 0.20405 0.0
H305 H 0.83203 0.91235 0.16866 0.0
H306 H 0.87829 0.86493 0.14048 0.0
S307 S 0.89872 0.85132 0.32561 0.0
N308 N 0.86605 0.88377 0.31031 0.0
N309 N 0.91559 0.83189 0.27987 0.0
C310 C 0.8943 0.85142 0.24949 0.0
C311 C 0.86759 0.87971 0.26601 0.0
C312 C 0.56062 0.31308 0.21905 0.0
C313 C 0.57223 0.29789 0.1783 0.0
C314 C 0.57465 0.34928 0.23417 0.0
C315 C 0.60033 0.37181 0.2088 0.0
H316 H 0.5421 0.29608 0.24033 0.0
H317 H 0.56634 0.35899 0.26664 0.0
S318 S 0.63453 0.34734 0.09665 0.0
N319 N 0.6075 0.30965 0.11086 0.0
N320 N 0.63328 0.3779 0.13867 0.0
C321 C 0.60993 0.35803 0.16663 0.0
C322 C 0.59608 0.32098 0.15158 0.0
C323 C 0.15454 0.55786 0.71989 0.0
C324 C 0.17657 0.58021 0.69029 0.0
C325 C 0.11836 0.57099 0.7352 0.0
C326 C 0.10256 0.60648 0.72071 0.0
H327 H 0.16559 0.53034 0.73197 0.0
H328 H 0.10261 0.55322 0.75843 0.0
S329 S 0.14849 0.6765 0.64417 0.0
N330 N 0.17966 0.64016 0.64767 0.0
N331 N 0.11192 0.66426 0.67601 0.0
C332 C 0.12407 0.62897 0.69097 0.0
C333 C 0.16098 0.61598 0.67587 0.0
C334 C 0.88367 0.13315 0.24705 0.0
C335 C 0.86401 0.1063 0.21955 0.0
C336 C 0.89782 0.16877 0.23076 0.0
C337 C 0.89237 0.1788 0.18658 0.0
H338 H 0.88682 0.12739 0.28175 0.0
H339 H 0.91129 0.18935 0.25328 0.0
S340 S 0.84868 0.11656 0.09953 0.0
N341 N 0.84441 0.09056 0.14465 0.0
N342 N 0.87024 0.15762 0.11462 0.0
C343 C 0.87496 0.15136 0.15829 0.0
C344 C 0.86101 0.11505 0.17461 0.0
C345 C 0.30907 0.85689 0.66372 0.0
C346 C 0.28747 0.88494 0.68694 0.0
C347 C 0.34502 0.84387 0.67918 0.0
C348 C 0.36072 0.85789 0.71892 0.0
H349 H 0.2979 0.84439 0.63347 0.0
H350 H 0.3599 0.82159 0.66039 0.0
S351 S 0.31697 0.9335 0.79092 0.0
N352 N 0.28535 0.9281 0.75045 0.0
N353 N 0.35288 0.90311 0.78006 0.0
C354 C 0.34012 0.88699 0.74181 0.0
C355 C 0.30355 0.90066 0.72567 0.0
C356 C 0.60072 0.15364 0.76957 0.0
C357 C 0.57111 0.17328 0.74678 0.0
C358 C 0.61534 0.11798 0.75448 0.0
C359 C 0.60142 0.10067 0.71551 0.0
H360 H 0.61323 0.1662 0.79912 0.0
H361 H 0.63879 0.10467 0.77282 0.0
S362 S 0.52204 0.13872 0.64516 0.0
N363 N 0.52658 0.17161 0.6847 0.0
N364 N 0.55457 0.10467 0.65579 0.0
C365 C 0.5708 0.11921 0.69316 0.0
C366 C 0.55549 0.15544 0.70895 0.0
C367 C 0.34963 0.62169 0.25868 0.0
C368 C 0.36575 0.60799 0.2192 0.0
C369 C 0.31406 0.60752 0.27384 0.0
C370 C 0.29332 0.5786 0.25059 0.0
H371 H 0.36378 0.64471 0.27736 0.0
H372 H 0.30238 0.61995 0.30373 0.0
S373 S 0.32452 0.53009 0.14763 0.0
N374 N 0.35947 0.56186 0.1586 0.0
N375 N 0.29266 0.53474 0.18761 0.0
C376 C 0.30999 0.56303 0.21231 0.0
C377 C 0.34614 0.57788 0.19647 0.0
C378 C 0.84997 0.3449 0.75285 0.0
C379 C 0.86015 0.35915 0.71125 0.0
C380 C 0.86477 0.30957 0.76836 0.0
C381 C 0.89091 0.28736 0.74337 0.0
H382 H 0.82933 0.36031 0.77303 0.0
H383 H 0.8551 0.29928 0.80001 0.0
S384 S 0.92928 0.31293 0.63385 0.0
N385 N 0.89965 0.34916 0.64623 0.0
N386 N 0.92806 0.28291 0.67601 0.0
C387 C 0.9029 0.30203 0.70266 0.0
C388 C 0.88733 0.33787 0.68648 0.0
C389 C 0.11578 0.85803 0.25405 0.0
C390 C 0.0999 0.87051 0.21392 0.0
C391 C 0.15185 0.87168 0.26882 0.0
C392 C 0.17333 0.89889 0.24451 0.0
H393 H 0.101 0.83635 0.27363 0.0
H394 H 0.16328 0.86029 0.29931 0.0
S395 S 0.14339 0.94369 0.13932 0.0
N396 N 0.10746 0.91362 0.15138 0.0
N397 N 0.17519 0.93984 0.17975 0.0
C398 C 0.15702 0.9133 0.20551 0.0
C399 C 0.12035 0.89895 0.19006 0.0
C400 C 0.3878 0.61929 0.69741 0.0
C401 C 0.36222 0.59681 0.72301 0.0
C402 C 0.40241 0.65525 0.71269 0.0
C403 C 0.39149 0.6702 0.75381 0.0
H404 H 0.39555 0.60975 0.6647 0.0
H405 H 0.42077 0.67231 0.6913 0.0
S406 S 0.32986 0.62073 0.83605 0.0
N407 N 0.33025 0.59051 0.79372 0.0
N408 N 0.35703 0.65826 0.8217 0.0
C409 C 0.36777 0.64714 0.78066 0.0
C410 C 0.35336 0.61037 0.76548 0.0
C411 C 0.82442 0.35884 0.17567 0.0
C412 C 0.85926 0.37212 0.19481 0.0
C413 C 0.78844 0.37143 0.19151 0.0
C414 C 0.78618 0.39866 0.226 0.0
H415 H 0.82482 0.33705 0.14984 0.0
H416 H 0.76217 0.35916 0.17731 0.0
S417 S 0.86894 0.44455 0.28488 0.0
N418 N 0.88943 0.4149 0.2489 0.0
N419 N 0.82157 0.44013 0.2773 0.0
C420 C 0.82075 0.41373 0.24389 0.0
C421 C 0.85741 0.39999 0.22865 0.0
C422 C 0.09936 0.78522 0.70231 0.0
C423 C 0.07019 0.78391 0.73428 0.0
C424 C 0.11226 0.82089 0.68549 0.0
C425 C 0.09719 0.85641 0.70105 0.0
H426 H 0.11275 0.75848 0.6908 0.0
H427 H 0.13545 0.82066 0.66167 0.0
S428 S 0.02024 0.86865 0.78436 0.0
N429 N 0.02572 0.82084 0.77996 0.0
N430 N 0.05135 0.88826 0.74968 0.0
C431 C 0.06772 0.85551 0.73264 0.0
C432 C 0.05379 0.81909 0.7489 0.0
C433 C 0.61909 0.12058 0.25586 0.0
C434 C 0.60369 0.10814 0.2153 0.0
C435 C 0.65459 0.10642 0.2714 0.0
C436 C 0.67598 0.07871 0.24746 0.0
H437 H 0.60435 0.14254 0.27526 0.0
H438 H 0.66568 0.11783 0.30222 0.0
S439 S 0.64729 0.03417 0.14102 0.0
N440 N 0.6117 0.06476 0.15251 0.0
N441 N 0.67834 0.03765 0.18229 0.0
C442 C 0.66017 0.06449 0.2079 0.0
C443 C 0.62409 0.07935 0.19167 0.0
C444 C 0.36131 0.81588 0.16501 0.0
C445 C 0.39121 0.79662 0.18774 0.0
C446 C 0.34699 0.85186 0.1795 0.0
C447 C 0.36154 0.86986 0.21777 0.0
H448 H 0.34832 0.80276 0.13603 0.0
H449 H 0.32326 0.86485 0.16135 0.0
S450 S 0.44201 0.83314 0.28742 0.0
N451 N 0.43677 0.79947 0.24884 0.0
N452 N 0.40934 0.86701 0.2766 0.0
C453 C 0.39249 0.85173 0.23995 0.0
C454 C 0.40749 0.81518 0.22478 0.0
C455 C 0.64637 0.36366 0.66429 0.0
C456 C 0.66963 0.38861 0.6901 0.0
C457 C 0.61025 0.3506 0.67901 0.0
C458 C 0.59616 0.36136 0.72058 0.0
H459 H 0.65646 0.35355 0.63262 0.0
H460 H 0.59401 0.33066 0.65815 0.0
S461 S 0.64504 0.42834 0.7997 0.0
N462 N 0.67531 0.42565 0.75795 0.0
N463 N 0.60751 0.40048 0.78636 0.0
C464 C 0.61848 0.38762 0.74608 0.0
C465 C 0.65519 0.40142 0.73066 0.0
C466 C 0.07662 0.62683 0.23114 0.0
C467 C 0.11322 0.6128 0.21845 0.0
C468 C 0.06237 0.66252 0.21521 0.0
C469 C 0.08458 0.6858 0.18669 0.0
H470 H 0.0588 0.61003 0.25336 0.0
H471 H 0.03398 0.67212 0.22584 0.0
S472 S 0.18361 0.66267 0.14581 0.0
N473 N 0.17195 0.62525 0.1769 0.0
N474 N 0.1458 0.69209 0.14739 0.0
C475 C 0.12152 0.67201 0.17419 0.0
C476 C 0.13567 0.6356 0.18995 0.0
C477 C 0.84792 0.11113 0.6781 0.0
C478 C 0.86337 0.09948 0.71875 0.0
C479 C 0.81175 0.09757 0.66346 0.0
C480 C 0.78978 0.07126 0.68844 0.0
H481 H 0.86315 0.13208 0.65796 0.0
H482 H 0.80066 0.1083 0.63251 0.0
S483 S 0.8183 0.02902 0.79544 0.0
N484 N 0.85474 0.05824 0.78269 0.0
N485 N 0.78686 0.03218 0.75458 0.0
C486 C 0.80559 0.05774 0.72808 0.0
C487 C 0.84233 0.07202 0.74339 0.0
C488 C 0.50504 0.25243 0.00547 0.0
C489 C 0.50657 0.21143 0.00664 0.0
C490 C 0.50494 0.27226 -0.0346 0.0
C491 C 0.50503 0.25159 0.92548 0.0
H492 H 0.50768 0.26929 0.03552 0.0
H493 H 0.50741 0.30381 -0.0344 0.0
S494 S 0.50391 0.14409 0.9113 0.0
N495 N 0.50502 0.15088 0.96496 0.0
N496 N 0.50284 0.18814 0.88953 0.0
C497 C 0.50281 0.21066 0.92636 0.0
C498 C 0.50412 0.19051 -0.03292 0.0
C499 C 0.19386 0.51302 0.46711 0.0
C500 C 0.21418 0.51605 0.42746 0.0
C501 C 0.21378 0.51188 0.50733 0.0
C502 C 0.25448 0.51516 0.50899 0.0
H503 H 0.16241 0.51381 0.46716 0.0
H504 H 0.1971 0.51188 0.53735 0.0
S505 S 0.32092 0.52127 0.4142 0.0
N506 N 0.27709 0.5192 0.39204 0.0
N507 N 0.31443 0.51905 0.46775 0.0
C508 C 0.27511 0.51611 0.46949 0.0
C509 C 0.25494 0.51605 0.42859 0.0
C510 C 0.961 0.27069 -0.03427 0.0
C511 C 0.95763 0.25081 0.00569 0.0
C512 C 0.9617 0.25012 0.92582 0.0
C513 C 0.95771 0.20925 0.92482 0.0
H514 H 0.9602 0.30232 -0.03483 0.0
H515 H 0.96143 0.26652 0.89554 0.0
S516 S 0.95146 0.14377 0.02069 0.0
N517 N 0.95409 0.18812 0.04215 0.0
N518 N 0.95358 0.14954 -0.03298 0.0
C519 C 0.95704 0.18901 0.96465 0.0
C520 C 0.95745 0.20985 0.00522 0.0
C521 C 0.26842 0.9627 0.46373 0.0
C522 C 0.24884 0.95749 0.42362 0.0
C523 C 0.24825 0.96096 0.50355 0.0
C524 C 0.20826 0.95262 0.50423 0.0
H525 H 0.29975 0.96555 0.4644 0.0
H526 H 0.26463 0.96247 0.53392 0.0
S527 S 0.14365 0.93919 0.40794 0.0
N528 N 0.18704 0.94694 0.38677 0.0
N529 N 0.14946 0.9418 0.46166 0.0
C530 C 0.1881 0.9497 0.4643 0.0
C531 C 0.20838 0.9526 0.42387 0.0
C532 C 0.45761 0.71591 0.93112 0.0
C533 C 0.45346 0.75671 0.92942 0.0
C534 C 0.45741 0.69634 -0.02859 0.0
C535 C 0.45443 0.71718 0.01104 0.0
H536 H 0.45741 0.69876 0.90115 0.0
H537 H 0.45721 0.6647 -0.02854 0.0
S538 S 0.4472 0.82452 0.02409 0.0
N539 N 0.44888 0.8174 -0.02948 0.0
N540 N 0.45049 0.78078 0.04635 0.0
C541 C 0.45368 0.75814 0.00981 0.0
C542 C 0.45269 0.77793 -0.03114 0.0
C543 C 0.75922 0.461 0.47262 0.0
C544 C 0.74079 0.44343 0.50846 0.0
C545 C 0.74108 0.46165 0.43121 0.0
C546 C 0.70453 0.44397 0.42464 0.0
H547 H 0.78862 0.47196 0.47595 0.0
H548 H 0.75704 0.47314 0.40359 0.0
S549 S 0.643 0.39823 0.50951 0.0
N550 N 0.68287 0.41162 0.53597 0.0
N551 N 0.64921 0.41198 0.45821 0.0
C552 C 0.68497 0.42873 0.461 0.0
C553 C 0.70308 0.42863 0.50297 0.0
C554 C 0.00919 0.7177 0.00521 0.0
C555 C 0.0115 0.75873 0.0058 0.0
C556 C 0.01004 0.69684 -0.03455 0.0
C557 C 0.01188 0.71651 0.92525 0.0
H558 H 0.01022 0.70157 0.03565 0.0
H559 H 0.01156 0.66525 -0.03376 0.0
S560 S 0.01417 0.8236 0.90916 0.0
N561 N 0.01313 0.81818 0.96293 0.0
N562 N 0.01283 0.77902 0.88817 0.0
C563 C 0.01096 0.75747 0.92538 0.0
C564 C 0.01123 0.77863 -0.03425 0.0
C565 C 0.69522 0.00729 0.46913 0.0
C566 C 0.71463 0.01169 0.50946 0.0
C567 C 0.71574 0.00839 0.42949 0.0
C568 C 0.75601 0.01535 0.42915 0.0
H569 H 0.66382 0.0054 0.46814 0.0
H570 H 0.69954 0.0073 0.39897 0.0
S571 S 0.82028 0.02626 0.52612 0.0
N572 N 0.77649 0.02003 0.54687 0.0
N573 N 0.81479 0.02406 0.47233 0.0
C574 C 0.77591 0.01763 0.4693 0.0
C575 C 0.75523 0.0153 0.50956 0.0
loop_
_geom_bond_atom_site_label_1
_geom_bond_atom_site_label_2
_geom_bond_distance
_geom_bond_site_symmetry_2
_ccdc_geom_bond_type
C0 O1 1.306 . S
C0 O3 1.160 . S
O1 C0 1.306 . S
O1 Cd2 2.228 . S
Cd2 O1 2.228 . S
Cd2 O6 2.273 . S
Cd2 O10 2.277 . S
O3 C0 1.160 . S
O3 Cd4 2.203 . S
Cd4 O3 2.203 . S
Cd4 O6 2.411 . S
Cd4 O7 2.333 . S
Cd4 O8 2.352 . S
Cd4 O12 2.277 . S
Cd4 O13 2.356 . S
C5 O10 1.209 . S
C5 O12 1.226 . S
O6 Cd2 2.273 . S
O6 Cd4 2.411 . S
O6 C9 1.320 . S
O7 Cd4 2.333 . S
O7 C9 1.214 . S
O8 Cd4 2.352 . S
O8 C11 1.258 . S
C9 O6 1.320 . S
C9 O7 1.214 . S
O10 Cd2 2.277 . S
O10 C5 1.209 . S
C11 O8 1.258 . S
C11 O13 1.282 . S
O12 Cd4 2.277 . S
O12 C5 1.226 . S
O13 Cd4 2.356 . S
O13 C11 1.282 . S
C14 O15 1.306 . S
C14 O17 1.160 . S
O15 C14 1.306 . S
O15 Cd16 2.228 . S
Cd16 O15 2.228 . S
Cd16 O20 2.273 . S
Cd16 O24 2.277 . S
O17 C14 1.160 . S
O17 Cd18 2.203 . S
Cd18 O17 2.203 . S
Cd18 O20 2.411 . S
Cd18 O21 2.333 . S
Cd18 O22 2.352 . S
Cd18 O26 2.277 . S
Cd18 O27 2.356 . S
C19 O24 1.209 . S
C19 O26 1.226 . S
O20 Cd16 2.273 . S
O20 Cd18 2.411 . S
O20 C23 1.320 . S
O21 Cd18 2.333 . S
O21 C23 1.214 . S
O22 Cd18 2.352 . S
O22 C25 1.258 . S
C23 O20 1.320 . S
C23 O21 1.214 . S
O24 Cd16 2.277 . S
O24 C19 1.209 . S
C25 O22 1.258 . S
C25 O27 1.282 . S
O26 Cd18 2.277 . S
O26 C19 1.226 . S
O27 Cd18 2.356 . S
O27 C25 1.282 . S
C28 O29 1.306 . S
C28 O31 1.160 1_655 S
O29 C28 1.306 . S
O29 Cd30 2.228 . S
Cd30 O29 2.228 . S
Cd30 O34 2.273 . S
Cd30 O38 2.277 . S
O31 C28 1.160 1_455 S
O31 Cd32 2.203 1_455 S
Cd32 O31 2.203 1_655 S
Cd32 O34 2.411 . S
Cd32 O35 2.333 . S
Cd32 O36 2.352 1_655 S
Cd32 O40 2.277 . S
Cd32 O41 2.356 1_655 S
C33 O38 1.209 . S
C33 O40 1.226 . S
O34 Cd30 2.273 . S
O34 Cd32 2.411 . S
O34 C37 1.320 . S
O35 Cd32 2.333 . S
O35 C37 1.214 . S
O36 Cd32 2.352 1_455 S
O36 C39 1.258 . S
C37 O34 1.320 . S
C37 O35 1.214 . S
O38 Cd30 2.277 . S
O38 C33 1.209 . S
C39 O36 1.258 . S
C39 O41 1.282 . S
O40 Cd32 2.277 . S
O40 C33 1.226 . S
O41 Cd32 2.356 1_455 S
O41 C39 1.282 . S
C42 O43 1.306 . S
C42 O45 1.160 1_565 S
O43 C42 1.306 . S
O43 Cd44 2.228 . S
Cd44 O43 2.228 . S
Cd44 O48 2.273 . S
Cd44 O52 2.277 . S
O45 C42 1.160 1_545 S
O45 Cd46 2.203 1_545 S
Cd46 O45 2.203 1_565 S
Cd46 O48 2.411 . S
Cd46 O49 2.333 . S
Cd46 O50 2.352 1_565 S
Cd46 O54 2.277 . S
Cd46 O55 2.356 1_565 S
C47 O52 1.209 . S
C47 O54 1.226 . S
O48 Cd44 2.273 . S
O48 Cd46 2.411 . S
O48 C51 1.320 . S
O49 Cd46 2.333 . S
O49 C51 1.214 . S
O50 Cd46 2.352 1_545 S
O50 C53 1.258 . S
C51 O48 1.320 . S
C51 O49 1.214 . S
O52 Cd44 2.277 . S
O52 C47 1.209 . S
C53 O50 1.258 . S
C53 O55 1.282 . S
O54 Cd46 2.277 . S
O54 C47 1.226 . S
O55 Cd46 2.356 1_545 S
O55 C53 1.282 . S
C56 O57 1.306 . S
C56 O59 1.160 . S
O57 C56 1.306 . S
O57 Cd58 2.228 . S
Cd58 O57 2.228 . S
Cd58 O62 2.273 . S
Cd58 O66 2.277 . S
O59 C56 1.160 . S
O59 Cd60 2.203 . S
Cd60 O59 2.203 . S
Cd60 O62 2.411 . S
Cd60 O63 2.333 . S
Cd60 O64 2.352 . S
Cd60 O68 2.277 . S
Cd60 O69 2.356 . S
C61 O66 1.209 . S
C61 O68 1.226 . S
O62 Cd58 2.273 . S
O62 Cd60 2.411 . S
O62 C65 1.320 . S
O63 Cd60 2.333 . S
O63 C65 1.214 . S
O64 Cd60 2.352 . S
O64 C67 1.258 . S
C65 O62 1.320 . S
C65 O63 1.214 . S
O66 Cd58 2.277 . S
O66 C61 1.209 . S
C67 O64 1.258 . S
C67 O69 1.282 . S
O68 Cd60 2.277 . S
O68 C61 1.226 . S
O69 Cd60 2.356 . S
O69 C67 1.282 . S
C70 O71 1.306 . S
C70 O73 1.160 . S
O71 C70 1.306 . S
O71 Cd72 2.228 . S
Cd72 O71 2.228 . S
Cd72 O76 2.273 . S
Cd72 O80 2.277 . S
O73 C70 1.160 . S
O73 Cd74 2.203 . S
Cd74 O73 2.203 . S
Cd74 O76 2.411 . S
Cd74 O77 2.333 . S
Cd74 O78 2.352 . S
Cd74 O82 2.277 . S
Cd74 O83 2.356 . S
C75 O80 1.209 . S
C75 O82 1.226 . S
O76 Cd72 2.273 . S
O76 Cd74 2.411 . S
O76 C79 1.320 . S
O77 Cd74 2.333 . S
O77 C79 1.214 . S
O78 Cd74 2.352 . S
O78 C81 1.258 . S
C79 O76 1.320 . S
C79 O77 1.214 . S
O80 Cd72 2.277 . S
O80 C75 1.209 . S
C81 O78 1.258 . S
C81 O83 1.282 . S
O82 Cd74 2.277 . S
O82 C75 1.226 . S
O83 Cd74 2.356 . S
O83 C81 1.282 . S
C84 O85 1.306 . S
C84 O87 1.160 1_655 S
O85 C84 1.306 . S
O85 Cd86 2.228 . S
Cd86 O85 2.228 . S
Cd86 O90 2.273 . S
Cd86 O94 2.277 . S
O87 C84 1.160 1_455 S
O87 Cd88 2.203 1_455 S
Cd88 O87 2.203 1_655 S
Cd88 O90 2.411 . S
Cd88 O91 2.333 . S
Cd88 O92 2.352 1_655 S
Cd88 O96 2.277 . S
Cd88 O97 2.356 1_655 S
C89 O94 1.209 . S
C89 O96 1.226 . S
O90 Cd86 2.273 . S
O90 Cd88 2.411 . S
O90 C93 1.320 . S
O91 Cd88 2.333 . S
O91 C93 1.214 . S
O92 Cd88 2.352 1_455 S
O92 C95 1.258 . S
C93 O90 1.320 . S
C93 O91 1.214 . S
O94 Cd86 2.277 . S
O94 C89 1.209 . S
C95 O92 1.258 . S
C95 O97 1.282 . S
O96 Cd88 2.277 . S
O96 C89 1.226 . S
O97 Cd88 2.356 1_455 S
O97 C95 1.282 . S
C98 O99 1.306 . S
C98 O101 1.160 1_565 S
O99 C98 1.306 . S
O99 Cd100 2.228 . S
Cd100 O99 2.228 . S
Cd100 O104 2.273 . S
Cd100 O108 2.277 . S
O101 C98 1.160 1_545 S
O101 Cd102 2.203 1_545 S
Cd102 O101 2.203 1_565 S
Cd102 O104 2.411 . S
Cd102 O105 2.333 . S
Cd102 O106 2.352 1_565 S
Cd102 O110 2.277 . S
Cd102 O111 2.356 1_565 S
C103 O108 1.209 . S
C103 O110 1.226 . S
O104 Cd100 2.273 . S
O104 Cd102 2.411 . S
O104 C107 1.320 . S
O105 Cd102 2.333 . S
O105 C107 1.214 . S
O106 Cd102 2.352 1_545 S
O106 C109 1.258 . S
C107 O104 1.320 . S
C107 O105 1.214 . S
O108 Cd100 2.277 . S
O108 C103 1.209 . S
C109 O106 1.258 . S
C109 O111 1.282 . S
O110 Cd102 2.277 . S
O110 C103 1.226 . S
O111 Cd102 2.356 1_545 S
O111 C109 1.282 . S
C112 O113 1.306 . S
C112 O115 1.160 . S
O113 C112 1.306 . S
O113 Cd114 2.228 . S
Cd114 O113 2.228 . S
Cd114 O118 2.273 . S
Cd114 O122 2.277 . S
O115 C112 1.160 . S
O115 Cd116 2.203 . S
Cd116 O115 2.203 . S
Cd116 O118 2.411 . S
Cd116 O119 2.333 . S
Cd116 O120 2.352 . S
Cd116 O124 2.277 . S
Cd116 O125 2.356 . S
C117 O122 1.209 . S
C117 O124 1.226 . S
O118 Cd114 2.273 . S
O118 Cd116 2.411 . S
O118 C121 1.320 . S
O119 Cd116 2.333 . S
O119 C121 1.214 . S
O120 Cd116 2.352 . S
O120 C123 1.258 . S
C121 O118 1.320 . S
C121 O119 1.214 . S
O122 Cd114 2.277 . S
O122 C117 1.209 . S
C123 O120 1.258 . S
C123 O125 1.282 . S
O124 Cd116 2.277 . S
O124 C117 1.226 . S
O125 Cd116 2.356 . S
O125 C123 1.282 . S
C126 O127 1.306 . S
C126 O129 1.160 . S
O127 C126 1.306 . S
O127 Cd128 2.228 . S
Cd128 O127 2.228 . S
Cd128 O132 2.273 . S
Cd128 O136 2.277 . S
O129 C126 1.160 . S
O129 Cd130 2.203 . S
Cd130 O129 2.203 . S
Cd130 O132 2.411 . S
Cd130 O133 2.333 . S
Cd130 O134 2.352 . S
Cd130 O138 2.277 . S
Cd130 O139 2.356 . S
C131 O136 1.209 . S
C131 O138 1.226 . S
O132 Cd128 2.273 . S
O132 Cd130 2.411 . S
O132 C135 1.320 . S
O133 Cd130 2.333 . S
O133 C135 1.214 . S
O134 Cd130 2.352 . S
O134 C137 1.258 . S
C135 O132 1.320 . S
C135 O133 1.214 . S
O136 Cd128 2.277 . S
O136 C131 1.209 . S
C137 O134 1.258 . S
C137 O139 1.282 . S
O138 Cd130 2.277 . S
O138 C131 1.226 . S
O139 Cd130 2.356 . S
O139 C137 1.282 . S
C140 O141 1.306 . S
C140 O143 1.160 1_455 S
O141 C140 1.306 . S
O141 Cd142 2.228 . S
Cd142 O141 2.228 . S
Cd142 O146 2.273 . S
Cd142 O150 2.277 . S
O143 C140 1.160 1_655 S
O143 Cd144 2.203 1_655 S
Cd144 O143 2.203 1_455 S
Cd144 O146 2.411 . S
Cd144 O147 2.333 . S
Cd144 O148 2.352 1_455 S
Cd144 O152 2.277 . S
Cd144 O153 2.356 1_455 S
C145 O150 1.209 . S
C145 O152 1.226 . S
O146 Cd142 2.273 . S
O146 Cd144 2.411 . S
O146 C149 1.320 . S
O147 Cd144 2.333 . S
O147 C149 1.214 . S
O148 Cd144 2.352 1_655 S
O148 C151 1.258 . S
C149 O146 1.320 . S
C149 O147 1.214 . S
O150 Cd142 2.277 . S
O150 C145 1.209 . S
C151 O148 1.258 . S
C151 O153 1.282 . S
O152 Cd144 2.277 . S
O152 C145 1.226 . S
O153 Cd144 2.356 1_655 S
O153 C151 1.282 . S
C154 O155 1.306 . S
C154 O157 1.160 1_545 S
O155 C154 1.306 . S
O155 Cd156 2.228 . S
Cd156 O155 2.228 . S
Cd156 O160 2.273 . S
Cd156 O164 2.277 . S
O157 C154 1.160 1_565 S
O157 Cd158 2.203 1_565 S
Cd158 O157 2.203 1_545 S
Cd158 O160 2.411 . S
Cd158 O161 2.333 . S
Cd158 O162 2.352 1_545 S
Cd158 O166 2.277 . S
Cd158 O167 2.356 1_545 S
C159 O164 1.209 . S
C159 O166 1.226 . S
O160 Cd156 2.273 . S
O160 Cd158 2.411 . S
O160 C163 1.320 . S
O161 Cd158 2.333 . S
O161 C163 1.214 . S
O162 Cd158 2.352 1_565 S
O162 C165 1.258 . S
C163 O160 1.320 . S
C163 O161 1.214 . S
O164 Cd156 2.277 . S
O164 C159 1.209 . S
C165 O162 1.258 . S
C165 O167 1.282 . S
O166 Cd158 2.277 . S
O166 C159 1.226 . S
O167 Cd158 2.356 1_565 S
O167 C165 1.282 . S
C168 O169 1.306 . S
C168 O171 1.160 . S
O169 C168 1.306 . S
O169 Cd170 2.228 . S
Cd170 O169 2.228 . S
Cd170 O174 2.273 . S
Cd170 O178 2.277 . S
O171 C168 1.160 . S
O171 Cd172 2.203 . S
Cd172 O171 2.203 . S
Cd172 O174 2.411 . S
Cd172 O175 2.333 . S
Cd172 O176 2.352 . S
Cd172 O180 2.277 . S
Cd172 O181 2.356 . S
C173 O178 1.209 . S
C173 O180 1.226 . S
O174 Cd170 2.273 . S
O174 Cd172 2.411 . S
O174 C177 1.320 . S
O175 Cd172 2.333 . S
O175 C177 1.214 . S
O176 Cd172 2.352 . S
O176 C179 1.258 . S
C177 O174 1.320 . S
C177 O175 1.214 . S
O178 Cd170 2.277 . S
O178 C173 1.209 . S
C179 O176 1.258 . S
C179 O181 1.282 . S
O180 Cd172 2.277 . S
O180 C173 1.226 . S
O181 Cd172 2.356 . S
O181 C179 1.282 . S
C182 O183 1.306 . S
C182 O185 1.160 . S
O183 C182 1.306 . S
O183 Cd184 2.228 . S
Cd184 O183 2.228 . S
Cd184 O188 2.273 . S
Cd184 O192 2.277 . S
O185 C182 1.160 . S
O185 Cd186 2.203 . S
Cd186 O185 2.203 . S
Cd186 O188 2.411 . S
Cd186 O189 2.333 . S
Cd186 O190 2.352 . S
Cd186 O194 2.277 . S
Cd186 O195 2.356 . S
C187 O192 1.209 . S
C187 O194 1.226 . S
O188 Cd184 2.273 . S
O188 Cd186 2.411 . S
O188 C191 1.320 . S
O189 Cd186 2.333 . S
O189 C191 1.214 . S
O190 Cd186 2.352 . S
O190 C193 1.258 . S
C191 O188 1.320 . S
C191 O189 1.214 . S
O192 Cd184 2.277 . S
O192 C187 1.209 . S
C193 O190 1.258 . S
C193 O195 1.282 . S
O194 Cd186 2.277 . S
O194 C187 1.226 . S
O195 Cd186 2.356 . S
O195 C193 1.282 . S
C196 O197 1.306 . S
C196 O199 1.160 1_455 S
O197 C196 1.306 . S
O197 Cd198 2.228 . S
Cd198 O197 2.228 . S
Cd198 O202 2.273 . S
Cd198 O206 2.277 . S
O199 C196 1.160 1_655 S
O199 Cd200 2.203 1_655 S
Cd200 O199 2.203 1_455 S
Cd200 O202 2.411 . S
Cd200 O203 2.333 . S
Cd200 O204 2.352 1_455 S
Cd200 O208 2.277 . S
Cd200 O209 2.356 1_455 S
C201 O206 1.209 . S
C201 O208 1.226 . S
O202 Cd198 2.273 . S
O202 Cd200 2.411 . S
O202 C205 1.320 . S
O203 Cd200 2.333 . S
O203 C205 1.214 . S
O204 Cd200 2.352 1_655 S
O204 C207 1.258 . S
C205 O202 1.320 . S
C205 O203 1.214 . S
O206 Cd198 2.277 . S
O206 C201 1.209 . S
C207 O204 1.258 . S
C207 O209 1.282 . S
O208 Cd200 2.277 . S
O208 C201 1.226 . S
O209 Cd200 2.356 1_655 S
O209 C207 1.282 . S
C210 O211 1.306 . S
C210 O213 1.160 1_545 S
O211 C210 1.306 . S
O211 Cd212 2.228 . S
Cd212 O211 2.228 . S
Cd212 O216 2.273 . S
Cd212 O220 2.277 . S
O213 C210 1.160 1_565 S
O213 Cd214 2.203 1_565 S
Cd214 O213 2.203 1_545 S
Cd214 O216 2.411 . S
Cd214 O217 2.333 . S
Cd214 O218 2.352 1_545 S
Cd214 O222 2.277 . S
Cd214 O223 2.356 1_545 S
C215 O220 1.209 . S
C215 O222 1.226 . S
O216 Cd212 2.273 . S
O216 Cd214 2.411 . S
O216 C219 1.320 . S
O217 Cd214 2.333 . S
O217 C219 1.214 . S
O218 Cd214 2.352 1_565 S
O218 C221 1.258 . S
C219 O216 1.320 . S
C219 O217 1.214 . S
O220 Cd212 2.277 . S
O220 C215 1.209 . S
C221 O218 1.258 . S
C221 O223 1.282 . S
O222 Cd214 2.277 . S
O222 C215 1.226 . S
O223 Cd214 2.356 1_565 S
O223 C221 1.282 . S
C224 C225 1.369 . S
C224 C226 1.419 . S
C224 H228 0.930 . S
C225 C224 1.369 . S
C225 C234 1.429 . S
C226 C224 1.419 . S
C226 C227 1.363 . S
C226 H229 0.929 . S
C227 C226 1.363 . S
C227 C233 1.428 . S
H228 C224 0.930 . S
H229 C226 0.929 . S
S230 N231 1.613 . S
S230 N232 1.610 . S
N231 S230 1.613 . S
N231 C234 1.350 . S
N232 S230 1.610 . S
N232 C233 1.351 . S
C233 C227 1.428 . S
C233 N232 1.351 . S
C233 C234 1.434 . S
C234 C225 1.429 . S
C234 N231 1.350 . S
C234 C233 1.434 . S
C235 C236 1.369 . S
C235 C237 1.419 . S
C235 H239 0.930 . S
C236 C235 1.369 . S
C236 C245 1.429 . S
C237 C235 1.419 . S
C237 C238 1.363 . S
C237 H240 0.929 . S
C238 C237 1.363 . S
C238 C244 1.428 . S
H239 C235 0.930 . S
H240 C237 0.929 . S
S241 N242 1.613 . S
S241 N243 1.610 . S
N242 S241 1.613 . S
N242 C245 1.350 . S
N243 S241 1.610 . S
N243 C244 1.351 . S
C244 C238 1.428 . S
C244 N243 1.351 . S
C244 C245 1.434 . S
C245 C236 1.429 . S
C245 N242 1.350 . S
C245 C244 1.434 . S
C246 C247 1.369 . S
C246 C248 1.419 . S
C246 H250 0.930 . S
C247 C246 1.369 . S
C247 C256 1.429 . S
C248 C246 1.419 . S
C248 C249 1.363 . S
C248 H251 0.929 . S
C249 C248 1.363 . S
C249 C255 1.428 . S
H250 C246 0.930 . S
H251 C248 0.929 . S
S252 N253 1.613 . S
S252 N254 1.610 . S
N253 S252 1.613 . S
N253 C256 1.350 . S
N254 S252 1.610 . S
N254 C255 1.351 . S
C255 C249 1.428 . S
C255 N254 1.351 . S
C255 C256 1.434 . S
C256 C247 1.429 . S
C256 N253 1.350 . S
C256 C255 1.434 . S
C257 C258 1.369 . S
C257 C259 1.419 . S
C257 H261 0.930 . S
C258 C257 1.369 . S
C258 C267 1.429 . S
C259 C257 1.419 . S
C259 C260 1.363 . S
C259 H262 0.929 . S
C260 C259 1.363 . S
C260 C266 1.428 . S
H261 C257 0.930 . S
H262 C259 0.929 . S
S263 N264 1.613 . S
S263 N265 1.610 . S
N264 S263 1.613 . S
N264 C267 1.350 . S
N265 S263 1.610 . S
N265 C266 1.351 . S
C266 C260 1.428 . S
C266 N265 1.351 . S
C266 C267 1.434 . S
C267 C258 1.429 . S
C267 N264 1.350 . S
C267 C266 1.434 . S
C268 C269 1.369 . S
C268 C270 1.419 . S
C268 H272 0.930 . S
C269 C268 1.369 . S
C269 C278 1.429 . S
C270 C268 1.419 . S
C270 C271 1.363 . S
C270 H273 0.929 . S
C271 C270 1.363 . S
C271 C277 1.428 . S
H272 C268 0.930 . S
H273 C270 0.929 . S
S274 N275 1.613 . S
S274 N276 1.610 . S
N275 S274 1.613 . S
N275 C278 1.350 . S
N276 S274 1.610 . S
N276 C277 1.351 . S
C277 C271 1.428 . S
C277 N276 1.351 . S
C277 C278 1.434 . S
C278 C269 1.429 . S
C278 N275 1.350 . S
C278 C277 1.434 . S
C279 C280 1.369 . S
C279 C281 1.419 . S
C279 H283 0.930 . S
C280 C279 1.369 . S
C280 C289 1.429 . S
C281 C279 1.419 . S
C281 C282 1.363 . S
C281 H284 0.929 . S
C282 C281 1.363 . S
C282 C288 1.428 . S
H283 C279 0.930 . S
H284 C281 0.929 . S
S285 N286 1.613 . S
S285 N287 1.610 . S
N286 S285 1.613 . S
N286 C289 1.350 . S
N287 S285 1.610 . S
N287 C288 1.351 . S
C288 C282 1.428 . S
C288 N287 1.351 . S
C288 C289 1.434 . S
C289 C280 1.429 . S
C289 N286 1.350 . S
C289 C288 1.434 . S
C290 C291 1.369 . S
C290 C292 1.419 . S
C290 H294 0.930 . S
C291 C290 1.369 . S
C291 C300 1.429 . S
C292 C290 1.419 . S
C292 C293 1.363 . S
C292 H295 0.929 . S
C293 C292 1.363 . S
C293 C299 1.428 . S
H294 C290 0.930 . S
H295 C292 0.929 . S
S296 N297 1.613 . S
S296 N298 1.610 . S
N297 S296 1.613 . S
N297 C300 1.350 . S
N298 S296 1.610 . S
N298 C299 1.351 . S
C299 C293 1.428 . S
C299 N298 1.351 . S
C299 C300 1.434 . S
C300 C291 1.429 . S
C300 N297 1.350 . S
C300 C299 1.434 . S
C301 C302 1.369 . S
C301 C303 1.419 . S
C301 H305 0.930 . S
C302 C301 1.369 . S
C302 C311 1.429 . S
C303 C301 1.419 . S
C303 C304 1.363 . S
C303 H306 0.929 . S
C304 C303 1.363 . S
C304 C310 1.428 . S
H305 C301 0.930 . S
H306 C303 0.929 . S
S307 N308 1.613 . S
S307 N309 1.610 . S
N308 S307 1.613 . S
N308 C311 1.350 . S
N309 S307 1.610 . S
N309 C310 1.351 . S
C310 C304 1.428 . S
C310 N309 1.351 . S
C310 C311 1.434 . S
C311 C302 1.429 . S
C311 N308 1.350 . S
C311 C310 1.434 . S
C312 C313 1.369 . S
C312 C314 1.419 . S
C312 H316 0.930 . S
C313 C312 1.369 . S
C313 C322 1.429 . S
C314 C312 1.419 . S
C314 C315 1.363 . S
C314 H317 0.929 . S
C315 C314 1.363 . S
C315 C321 1.428 . S
H316 C312 0.930 . S
H317 C314 0.929 . S
S318 N319 1.613 . S
S318 N320 1.610 . S
N319 S318 1.613 . S
N319 C322 1.350 . S
N320 S318 1.610 . S
N320 C321 1.351 . S
C321 C315 1.428 . S
C321 N320 1.351 . S
C321 C322 1.434 . S
C322 C313 1.429 . S
C322 N319 1.350 . S
C322 C321 1.434 . S
C323 C324 1.369 . S
C323 C325 1.419 . S
C323 H327 0.930 . S
C324 C323 1.369 . S
C324 C333 1.429 . S
C325 C323 1.419 . S
C325 C326 1.363 . S
C325 H328 0.929 . S
C326 C325 1.363 . S
C326 C332 1.428 . S
H327 C323 0.930 . S
H328 C325 0.929 . S
S329 N330 1.613 . S
S329 N331 1.610 . S
N330 S329 1.613 . S
N330 C333 1.350 . S
N331 S329 1.610 . S
N331 C332 1.351 . S
C332 C326 1.428 . S
C332 N331 1.351 . S
C332 C333 1.434 . S
C333 C324 1.429 . S
C333 N330 1.350 . S
C333 C332 1.434 . S
C334 C335 1.369 . S
C334 C336 1.419 . S
C334 H338 0.930 . S
C335 C334 1.369 . S
C335 C344 1.429 . S
C336 C334 1.419 . S
C336 C337 1.363 . S
C336 H339 0.929 . S
C337 C336 1.363 . S
C337 C343 1.428 . S
H338 C334 0.930 . S
H339 C336 0.929 . S
S340 N341 1.613 . S
S340 N342 1.610 . S
N341 S340 1.613 . S
N341 C344 1.350 . S
N342 S340 1.610 . S
N342 C343 1.351 . S
C343 C337 1.428 . S
C343 N342 1.351 . S
C343 C344 1.434 . S
C344 C335 1.429 . S
C344 N341 1.350 . S
C344 C343 1.434 . S
C345 C346 1.369 . S
C345 C347 1.419 . S
C345 H349 0.930 . S
C346 C345 1.369 . S
C346 C355 1.429 . S
C347 C345 1.419 . S
C347 C348 1.363 . S
C347 H350 0.929 . S
C348 C347 1.363 . S
C348 C354 1.428 . S
H349 C345 0.930 . S
H350 C347 0.929 . S
S351 N352 1.613 . S
S351 N353 1.610 . S
N352 S351 1.613 . S
N352 C355 1.350 . S
N353 S351 1.610 . S
N353 C354 1.351 . S
C354 C348 1.428 . S
C354 N353 1.351 . S
C354 C355 1.434 . S
C355 C346 1.429 . S
C355 N352 1.350 . S
C355 C354 1.434 . S
C356 C357 1.369 . S
C356 C358 1.419 . S
C356 H360 0.930 . S
C357 C356 1.369 . S
C357 C366 1.429 . S
C358 C356 1.419 . S
C358 C359 1.363 . S
C358 H361 0.929 . S
C359 C358 1.363 . S
C359 C365 1.428 . S
H360 C356 0.930 . S
H361 C358 0.929 . S
S362 N363 1.613 . S
S362 N364 1.610 . S
N363 S362 1.613 . S
N363 C366 1.350 . S
N364 S362 1.610 . S
N364 C365 1.351 . S
C365 C359 1.428 . S
C365 N364 1.351 . S
C365 C366 1.434 . S
C366 C357 1.429 . S
C366 N363 1.350 . S
C366 C365 1.434 . S
C367 C368 1.369 . S
C367 C369 1.419 . S
C367 H371 0.930 . S
C368 C367 1.369 . S
C368 C377 1.429 . S
C369 C367 1.419 . S
C369 C370 1.363 . S
C369 H372 0.929 . S
C370 C369 1.363 . S
C370 C376 1.428 . S
H371 C367 0.930 . S
H372 C369 0.929 . S
S373 N374 1.613 . S
S373 N375 1.610 . S
N374 S373 1.613 . S
N374 C377 1.350 . S
N375 S373 1.610 . S
N375 C376 1.351 . S
C376 C370 1.428 . S
C376 N375 1.351 . S
C376 C377 1.434 . S
C377 C368 1.429 . S
C377 N374 1.350 . S
C377 C376 1.434 . S
C378 C379 1.369 . S
C378 C380 1.419 . S
C378 H382 0.930 . S
C379 C378 1.369 . S
C379 C388 1.429 . S
C380 C378 1.419 . S
C380 C381 1.363 . S
C380 H383 0.929 . S
C381 C380 1.363 . S
C381 C387 1.428 . S
H382 C378 0.930 . S
H383 C380 0.929 . S
S384 N385 1.613 . S
S384 N386 1.610 . S
N385 S384 1.613 . S
N385 C388 1.350 . S
N386 S384 1.610 . S
N386 C387 1.351 . S
C387 C381 1.428 . S
C387 N386 1.351 . S
C387 C388 1.434 . S
C388 C379 1.429 . S
C388 N385 1.350 . S
C388 C387 1.434 . S
C389 C390 1.369 . S
C389 C391 1.419 . S
C389 H393 0.930 . S
C390 C389 1.369 . S
C390 C399 1.429 . S
C391 C389 1.419 . S
C391 C392 1.363 . S
C391 H394 0.929 . S
C392 C391 1.363 . S
C392 C398 1.428 . S
H393 C389 0.930 . S
H394 C391 0.929 . S
S395 N396 1.613 . S
S395 N397 1.610 . S
N396 S395 1.613 . S
N396 C399 1.350 . S
N397 S395 1.610 . S
N397 C398 1.351 . S
C398 C392 1.428 . S
C398 N397 1.351 . S
C398 C399 1.434 . S
C399 C390 1.429 . S
C399 N396 1.350 . S
C399 C398 1.434 . S
C400 C401 1.369 . S
C400 C402 1.419 . S
C400 H404 0.930 . S
C401 C400 1.369 . S
C401 C410 1.429 . S
C402 C400 1.419 . S
C402 C403 1.363 . S
C402 H405 0.929 . S
C403 C402 1.363 . S
C403 C409 1.428 . S
H404 C400 0.930 . S
H405 C402 0.929 . S
S406 N407 1.613 . S
S406 N408 1.610 . S
N407 S406 1.613 . S
N407 C410 1.350 . S
N408 S406 1.610 . S
N408 C409 1.351 . S
C409 C403 1.428 . S
C409 N408 1.351 . S
C409 C410 1.434 . S
C410 C401 1.429 . S
C410 N407 1.350 . S
C410 C409 1.434 . S
C411 C412 1.369 . S
C411 C413 1.419 . S
C411 H415 0.930 . S
C412 C411 1.369 . S
C412 C421 1.429 . S
C413 C411 1.419 . S
C413 C414 1.363 . S
C413 H416 0.929 . S
C414 C413 1.363 . S
C414 C420 1.428 . S
H415 C411 0.930 . S
H416 C413 0.929 . S
S417 N418 1.613 . S
S417 N419 1.610 . S
N418 S417 1.613 . S
N418 C421 1.350 . S
N419 S417 1.610 . S
N419 C420 1.351 . S
C420 C414 1.428 . S
C420 N419 1.351 . S
C420 C421 1.434 . S
C421 C412 1.429 . S
C421 N418 1.350 . S
C421 C420 1.434 . S
C422 C423 1.369 . S
C422 C424 1.419 . S
C422 H426 0.930 . S
C423 C422 1.369 . S
C423 C432 1.429 . S
C424 C422 1.419 . S
C424 C425 1.363 . S
C424 H427 0.929 . S
C425 C424 1.363 . S
C425 C431 1.428 . S
H426 C422 0.930 . S
H427 C424 0.929 . S
S428 N429 1.613 . S
S428 N430 1.610 . S
N429 S428 1.613 . S
N429 C432 1.350 . S
N430 S428 1.610 . S
N430 C431 1.351 . S
C431 C425 1.428 . S
C431 N430 1.351 . S
C431 C432 1.434 . S
C432 C423 1.429 . S
C432 N429 1.350 . S
C432 C431 1.434 . S
C433 C434 1.369 . S
C433 C435 1.419 . S
C433 H437 0.930 . S
C434 C433 1.369 . S
C434 C443 1.429 . S
C435 C433 1.419 . S
C435 C436 1.363 . S
C435 H438 0.929 . S
C436 C435 1.363 . S
C436 C442 1.428 . S
H437 C433 0.930 . S
H438 C435 0.929 . S
S439 N440 1.613 . S
S439 N441 1.610 . S
N440 S439 1.613 . S
N440 C443 1.350 . S
N441 S439 1.610 . S
N441 C442 1.351 . S
C442 C436 1.428 . S
C442 N441 1.351 . S
C442 C443 1.434 . S
C443 C434 1.429 . S
C443 N440 1.350 . S
C443 C442 1.434 . S
C444 C445 1.369 . S
C444 C446 1.419 . S
C444 H448 0.930 . S
C445 C444 1.369 . S
C445 C454 1.429 . S
C446 C444 1.419 . S
C446 C447 1.363 . S
C446 H449 0.929 . S
C447 C446 1.363 . S
C447 C453 1.428 . S
H448 C444 0.930 . S
H449 C446 0.929 . S
S450 N451 1.613 . S
S450 N452 1.610 . S
N451 S450 1.613 . S
N451 C454 1.350 . S
N452 S450 1.610 . S
N452 C453 1.351 . S
C453 C447 1.428 . S
C453 N452 1.351 . S
C453 C454 1.434 . S
C454 C445 1.429 . S
C454 N451 1.350 . S
C454 C453 1.434 . S
C455 C456 1.369 . S
C455 C457 1.419 . S
C455 H459 0.930 . S
C456 C455 1.369 . S
C456 C465 1.429 . S
C457 C455 1.419 . S
C457 C458 1.363 . S
C457 H460 0.929 . S
C458 C457 1.363 . S
C458 C464 1.428 . S
H459 C455 0.930 . S
H460 C457 0.929 . S
S461 N462 1.613 . S
S461 N463 1.610 . S
N462 S461 1.613 . S
N462 C465 1.350 . S
N463 S461 1.610 . S
N463 C464 1.351 . S
C464 C458 1.428 . S
C464 N463 1.351 . S
C464 C465 1.434 . S
C465 C456 1.429 . S
C465 N462 1.350 . S
C465 C464 1.434 . S
C466 C467 1.369 . S
C466 C468 1.419 . S
C466 H470 0.930 . S
C467 C466 1.369 . S
C467 C476 1.429 . S
C468 C466 1.419 . S
C468 C469 1.363 . S
C468 H471 0.929 . S
C469 C468 1.363 . S
C469 C475 1.428 . S
H470 C466 0.930 . S
H471 C468 0.929 . S
S472 N473 1.613 . S
S472 N474 1.610 . S
N473 S472 1.613 . S
N473 C476 1.350 . S
N474 S472 1.610 . S
N474 C475 1.351 . S
C475 C469 1.428 . S
C475 N474 1.351 . S
C475 C476 1.434 . S
C476 C467 1.429 . S
C476 N473 1.350 . S
C476 C475 1.434 . S
C477 C478 1.369 . S
C477 C479 1.419 . S
C477 H481 0.930 . S
C478 C477 1.369 . S
C478 C487 1.429 . S
C479 C477 1.419 . S
C479 C480 1.363 . S
C479 H482 0.929 . S
C480 C479 1.363 . S
C480 C486 1.428 . S
H481 C477 0.930 . S
H482 C479 0.929 . S
S483 N484 1.613 . S
S483 N485 1.610 . S
N484 S483 1.613 . S
N484 C487 1.350 . S
N485 S483 1.610 . S
N485 C486 1.351 . S
C486 C480 1.428 . S
C486 N485 1.351 . S
C486 C487 1.434 . S
C487 C478 1.429 . S
C487 N484 1.350 . S
C487 C486 1.434 . S
C488 C489 1.369 . S
C488 C490 1.419 1_554 S
C488 H492 0.930 . S
C489 C488 1.369 . S
C489 C498 1.429 . S
C490 C488 1.419 1_556 S
C490 C491 1.363 . S
C490 H493 0.929 . S
C491 C490 1.363 . S
C491 C497 1.428 . S
H492 C488 0.930 . S
H493 C490 0.929 . S
S494 N495 1.613 1_556 S
S494 N496 1.610 . S
N495 S494 1.613 1_554 S
N495 C498 1.350 . S
N496 S494 1.610 . S
N496 C497 1.351 . S
C497 C491 1.428 . S
C497 N496 1.351 . S
C497 C498 1.434 1_556 S
C498 C489 1.429 . S
C498 N495 1.350 . S
C498 C497 1.434 1_554 S
C499 C500 1.369 . S
C499 C501 1.419 . S
C499 H503 0.930 . S
C500 C499 1.369 . S
C500 C509 1.429 . S
C501 C499 1.419 . S
C501 C502 1.363 . S
C501 H504 0.929 . S
C502 C501 1.363 . S
C502 C508 1.428 . S
H503 C499 0.930 . S
H504 C501 0.929 . S
S505 N506 1.613 . S
S505 N507 1.610 . S
N506 S505 1.613 . S
N506 C509 1.350 . S
N507 S505 1.610 . S
N507 C508 1.351 . S
C508 C502 1.428 . S
C508 N507 1.351 . S
C508 C509 1.434 . S
C509 C500 1.429 . S
C509 N506 1.350 . S
C509 C508 1.434 . S
C510 C511 1.369 . S
C510 C512 1.419 1_554 S
C510 H514 0.930 . S
C511 C510 1.369 . S
C511 C520 1.429 1_655 S
C512 C510 1.419 1_556 S
C512 C513 1.363 . S
C512 H515 0.929 . S
C513 C512 1.363 . S
C513 C519 1.428 1_655 S
H514 C510 0.930 . S
H515 C512 0.929 . S
S516 N517 1.613 . S
S516 N518 1.610 1_554 S
N517 S516 1.613 . S
N517 C520 1.350 . S
N518 S516 1.610 1_556 S
N518 C519 1.351 . S
C519 C513 1.428 1_455 S
C519 N518 1.351 . S
C519 C520 1.434 1_556 S
C520 C511 1.429 1_455 S
C520 N517 1.350 . S
C520 C519 1.434 1_554 S
C521 C522 1.369 1_545 S
C521 C523 1.419 . S
C521 H525 0.930 . S
C522 C521 1.369 1_565 S
C522 C531 1.429 . S
C523 C521 1.419 . S
C523 C524 1.363 1_545 S
C523 H526 0.929 . S
C524 C523 1.363 1_565 S
C524 C530 1.428 . S
H525 C521 0.930 . S
H526 C523 0.929 . S
S527 N528 1.613 . S
S527 N529 1.610 . S
N528 S527 1.613 . S
N528 C531 1.350 . S
N529 S527 1.610 . S
N529 C530 1.351 . S
C530 C524 1.428 . S
C530 N529 1.351 . S
C530 C531 1.434 . S
C531 C522 1.429 . S
C531 N528 1.350 . S
C531 C530 1.434 . S
C532 C533 1.369 . S
C532 C534 1.419 1_556 S
C532 H536 0.930 . S
C533 C532 1.369 . S
C533 C542 1.429 . S
C534 C532 1.419 1_554 S
C534 C535 1.363 . S
C534 H537 0.929 . S
C535 C534 1.363 . S
C535 C541 1.428 . S
H536 C532 0.930 . S
H537 C534 0.929 . S
S538 N539 1.613 1_554 S
S538 N540 1.610 . S
N539 S538 1.613 1_556 S
N539 C542 1.350 . S
N540 S538 1.610 . S
N540 C541 1.351 . S
C541 C535 1.428 . S
C541 N540 1.351 . S
C541 C542 1.434 1_554 S
C542 C533 1.429 . S
C542 N539 1.350 . S
C542 C541 1.434 1_556 S
C543 C544 1.369 . S
C543 C545 1.419 . S
C543 H547 0.930 . S
C544 C543 1.369 . S
C544 C553 1.429 . S
C545 C543 1.419 . S
C545 C546 1.363 . S
C545 H548 0.929 . S
C546 C545 1.363 . S
C546 C552 1.428 . S
H547 C543 0.930 . S
H548 C545 0.929 . S
S549 N550 1.613 . S
S549 N551 1.610 . S
N550 S549 1.613 . S
N550 C553 1.350 . S
N551 S549 1.610 . S
N551 C552 1.351 . S
C552 C546 1.428 . S
C552 N551 1.351 . S
C552 C553 1.434 . S
C553 C544 1.429 . S
C553 N550 1.350 . S
C553 C552 1.434 . S
C554 C555 1.369 1_655 S
C554 C556 1.419 1_554 S
C554 H558 0.930 . S
C555 C554 1.369 1_455 S
C555 C564 1.429 . S
C556 C554 1.419 1_556 S
C556 C557 1.363 1_655 S
C556 H559 0.929 . S
C557 C556 1.363 1_455 S
C557 C563 1.428 . S
H558 C554 0.930 . S
H559 C556 0.929 . S
S560 N561 1.613 1_556 S
S560 N562 1.610 . S
N561 S560 1.613 1_554 S
N561 C564 1.350 . S
N562 S560 1.610 . S
N562 C563 1.351 . S
C563 C557 1.428 . S
C563 N562 1.351 . S
C563 C564 1.434 1_556 S
C564 C555 1.429 . S
C564 N561 1.350 . S
C564 C563 1.434 1_554 S
C565 C566 1.369 1_565 S
C565 C567 1.419 . S
C565 H569 0.930 . S
C566 C565 1.369 1_545 S
C566 C575 1.429 . S
C567 C565 1.419 . S
C567 C568 1.363 1_565 S
C567 H570 0.929 . S
C568 C567 1.363 1_545 S
C568 C574 1.428 . S
H569 C565 0.930 . S
H570 C567 0.929 . S
S571 N572 1.613 . S
S571 N573 1.610 . S
N572 S571 1.613 . S
N572 C575 1.350 . S
N573 S571 1.610 . S
N573 C574 1.351 . S
C574 C568 1.428 . S
C574 N573 1.351 . S
C574 C575 1.434 . S
C575 C566 1.429 . S
C575 N572 1.350 . S
C575 C574 1.434 . S
C225 C11 1.379 . S
C227 C109 1.379 . S
C236 C25 1.380 . S
C238 C67 1.377 . S
C247 C39 1.378 . S
C249 C81 1.376 . S
C258 C53 1.376 . S
C260 C95 1.379 . S
C269 C123 1.379 . S
C271 C221 1.376 . S
C280 C179 1.380 . S
C282 C137 1.378 . S
C291 C151 1.375 . S
C293 C193 1.377 . S
C302 C165 1.376 . S
C304 C207 1.377 . S
C313 C5 1.467 . S
C315 C135 1.498 . S
C324 C19 1.468 . S
C326 C149 1.498 . S
C335 C163 1.496 . S
C337 C33 1.472 . S
C346 C47 1.473 . S
C348 C121 1.497 . S
C357 C61 1.473 . S
C359 C219 1.497 . S
C368 C177 1.496 . S
C370 C75 1.473 . S
C379 C191 1.499 . S
C381 C89 1.468 . S
C390 C205 1.497 . S
C392 C103 1.471 . S
C401 C23 1.499 . S
C403 C117 1.467 . S
C412 C37 1.496 . S
C414 C131 1.472 . S
C423 C145 1.473 . S
C425 C51 1.497 . S
C434 C9 1.498 . S
C436 C159 1.470 . S
C445 C173 1.473 . S
C447 C107 1.496 . S
C456 C187 1.467 . S
C458 C65 1.498 . S
C467 C79 1.499 . S
C469 C201 1.468 . S
C478 C93 1.498 . S
C480 C215 1.470 . S
C489 C0 1.563 . S
C491 C56 1.564 . S
C500 C70 1.563 . S
C502 C14 1.563 . S
C511 C28 1.567 . S
C513 C84 1.566 . S
C522 C98 1.562 . S
C524 C42 1.562 . S
C533 C112 1.562 . S
C535 C168 1.563 . S
C544 C182 1.561 . S
C546 C126 1.562 . S
C555 C196 1.563 . S
C557 C140 1.563 . S
C566 C210 1.562 . S
C568 C154 1.562 . S
