# Generated by pormake.
# Topology uoa, (4)-cn, num edge types: 1
# Building blocks:
#     Node 0, Type 0, BuildingBlock: CEKHIL_clean_sbu_0, # of connection points: 4
#     Node 1, Type 0, BuildingBlock: CEKHIL_clean_sbu_0, # of connection points: 4
#     Node 2, Type 0, BuildingBlock: CEKHIL_clean_sbu_0, # of connection points: 4
#     Node 3, Type 0, BuildingBlock: CEKHIL_clean_sbu_0, # of connection points: 4
#     Node 4, Type 0, BuildingBlock: CEKHIL_clean_sbu_0, # of connection points: 4
#     Node 5, Type 0, BuildingBlock: CEKHIL_clean_sbu_0, # of connection points: 4
#     Node 6, Type 0, BuildingBlock: CEKHIL_clean_sbu_0, # of connection points: 4
#     Node 7, Type 0, BuildingBlock: CEKHIL_clean_sbu_0, # of connection points: 4
#     Node 8, Type 0, BuildingBlock: CEKHIL_clean_sbu_0, # of connection points: 4
#     Node 9, Type 0, BuildingBlock: CEKHIL_clean_sbu_0, # of connection points: 4
#     Node 10, Type 0, BuildingBlock: CEKHIL_clean_sbu_0, # of connection points: 4
#     Node 11, Type 0, BuildingBlock: CEKHIL_clean_sbu_0, # of connection points: 4
#     Node 12, Type 0, BuildingBlock: CEKHIL_clean_sbu_0, # of connection points: 4
#     Node 13, Type 0, BuildingBlock: CEKHIL_clean_sbu_0, # of connection points: 4
#     Node 14, Type 0, BuildingBlock: CEKHIL_clean_sbu_0, # of connection points: 4
#     Node 15, Type 0, BuildingBlock: CEKHIL_clean_sbu_0, # of connection points: 4
#     Node 16, Type 0, BuildingBlock: CEKHIL_clean_sbu_0, # of connection points: 4
#     Node 17, Type 0, BuildingBlock: CEKHIL_clean_sbu_0, # of connection points: 4
#     Node 18, Type 0, BuildingBlock: CEKHIL_clean_sbu_0, # of connection points: 4
#     Node 19, Type 0, BuildingBlock: CEKHIL_clean_sbu_0, # of connection points: 4
#     Node 20, Type 0, BuildingBlock: CEKHIL_clean_sbu_0, # of connection points: 4
#     Node 21, Type 0, BuildingBlock: CEKHIL_clean_sbu_0, # of connection points: 4
#     Node 22, Type 0, BuildingBlock: CEKHIL_clean_sbu_0, # of connection points: 4
#     Node 23, Type 0, BuildingBlock: CEKHIL_clean_sbu_0, # of connection points: 4
#     Node 24, Type 0, BuildingBlock: CEKHIL_clean_sbu_0, # of connection points: 4
#     Node 25, Type 0, BuildingBlock: CEKHIL_clean_sbu_0, # of connection points: 4
#     Node 26, Type 0, BuildingBlock: CEKHIL_clean_sbu_0, # of connection points: 4
#     Node 27, Type 0, BuildingBlock: CEKHIL_clean_sbu_0, # of connection points: 4
#     Node 28, Type 0, BuildingBlock: CEKHIL_clean_sbu_0, # of connection points: 4
#     Node 29, Type 0, BuildingBlock: CEKHIL_clean_sbu_0, # of connection points: 4
#     Node 30, Type 0, BuildingBlock: CEKHIL_clean_sbu_0, # of connection points: 4
#     Node 31, Type 0, BuildingBlock: CEKHIL_clean_sbu_0, # of connection points: 4
#     Edge 32, Type (0, 0), BuildingBlock: AJUNOK_clean_linker_0, # of connection points: 2
#     Edge 33, Type (0, 0), BuildingBlock: AJUNOK_clean_linker_0, # of connection points: 2
#     Edge 34, Type (0, 0), BuildingBlock: AJUNOK_clean_linker_0, # of connection points: 2
#     Edge 35, Type (0, 0), BuildingBlock: AJUNOK_clean_linker_0, # of connection points: 2
#     Edge 36, Type (0, 0), BuildingBlock: AJUNOK_clean_linker_0, # of connection points: 2
#     Edge 37, Type (0, 0), BuildingBlock: AJUNOK_clean_linker_0, # of connection points: 2
#     Edge 38, Type (0, 0), BuildingBlock: AJUNOK_clean_linker_0, # of connection points: 2
#     Edge 39, Type (0, 0), BuildingBlock: AJUNOK_clean_linker_0, # of connection points: 2
#     Edge 40, Type (0, 0), BuildingBlock: AJUNOK_clean_linker_0, # of connection points: 2
#     Edge 41, Type (0, 0), BuildingBlock: AJUNOK_clean_linker_0, # of connection points: 2
#     Edge 42, Type (0, 0), BuildingBlock: AJUNOK_clean_linker_0, # of connection points: 2
#     Edge 43, Type (0, 0), BuildingBlock: AJUNOK_clean_linker_0, # of connection points: 2
#     Edge 44, Type (0, 0), BuildingBlock: AJUNOK_clean_linker_0, # of connection points: 2
#     Edge 45, Type (0, 0), BuildingBlock: AJUNOK_clean_linker_0, # of connection points: 2
#     Edge 46, Type (0, 0), BuildingBlock: AJUNOK_clean_linker_0, # of connection points: 2
#     Edge 47, Type (0, 0), BuildingBlock: AJUNOK_clean_linker_0, # of connection points: 2
#     Edge 48, Type (0, 0), BuildingBlock: AJUNOK_clean_linker_0, # of connection points: 2
#     Edge 49, Type (0, 0), BuildingBlock: AJUNOK_clean_linker_0, # of connection points: 2
#     Edge 50, Type (0, 0), BuildingBlock: AJUNOK_clean_linker_0, # of connection points: 2
#     Edge 51, Type (0, 0), BuildingBlock: AJUNOK_clean_linker_0, # of connection points: 2
#     Edge 52, Type (0, 0), BuildingBlock: AJUNOK_clean_linker_0, # of connection points: 2
#     Edge 53, Type (0, 0), BuildingBlock: AJUNOK_clean_linker_0, # of connection points: 2
#     Edge 54, Type (0, 0), BuildingBlock: AJUNOK_clean_linker_0, # of connection points: 2
#     Edge 55, Type (0, 0), BuildingBlock: AJUNOK_clean_linker_0, # of connection points: 2
#     Edge 56, Type (0, 0), BuildingBlock: AJUNOK_clean_linker_0, # of connection points: 2
#     Edge 57, Type (0, 0), BuildingBlock: AJUNOK_clean_linker_0, # of connection points: 2
#     Edge 58, Type (0, 0), BuildingBlock: AJUNOK_clean_linker_0, # of connection points: 2
#     Edge 59, Type (0, 0), BuildingBlock: AJUNOK_clean_linker_0, # of connection points: 2
#     Edge 60, Type (0, 0), BuildingBlock: AJUNOK_clean_linker_0, # of connection points: 2
#     Edge 61, Type (0, 0), BuildingBlock: AJUNOK_clean_linker_0, # of connection points: 2
#     Edge 62, Type (0, 0), BuildingBlock: AJUNOK_clean_linker_0, # of connection points: 2
#     Edge 63, Type (0, 0), BuildingBlock: AJUNOK_clean_linker_0, # of connection points: 2
#     Edge 64, Type (0, 0), BuildingBlock: AJUNOK_clean_linker_0, # of connection points: 2
#     Edge 65, Type (0, 0), BuildingBlock: AJUNOK_clean_linker_0, # of connection points: 2
#     Edge 66, Type (0, 0), BuildingBlock: AJUNOK_clean_linker_0, # of connection points: 2
#     Edge 67, Type (0, 0), BuildingBlock: AJUNOK_clean_linker_0, # of connection points: 2
#     Edge 68, Type (0, 0), BuildingBlock: AJUNOK_clean_linker_0, # of connection points: 2
#     Edge 69, Type (0, 0), BuildingBlock: AJUNOK_clean_linker_0, # of connection points: 2
#     Edge 70, Type (0, 0), BuildingBlock: AJUNOK_clean_linker_0, # of connection points: 2
#     Edge 71, Type (0, 0), BuildingBlock: AJUNOK_clean_linker_0, # of connection points: 2
#     Edge 72, Type (0, 0), BuildingBlock: AJUNOK_clean_linker_0, # of connection points: 2
#     Edge 73, Type (0, 0), BuildingBlock: AJUNOK_clean_linker_0, # of connection points: 2
#     Edge 74, Type (0, 0), BuildingBlock: AJUNOK_clean_linker_0, # of connection points: 2
#     Edge 75, Type (0, 0), BuildingBlock: AJUNOK_clean_linker_0, # of connection points: 2
#     Edge 76, Type (0, 0), BuildingBlock: AJUNOK_clean_linker_0, # of connection points: 2
#     Edge 77, Type (0, 0), BuildingBlock: AJUNOK_clean_linker_0, # of connection points: 2
#     Edge 78, Type (0, 0), BuildingBlock: AJUNOK_clean_linker_0, # of connection points: 2
#     Edge 79, Type (0, 0), BuildingBlock: AJUNOK_clean_linker_0, # of connection points: 2
#     Edge 80, Type (0, 0), BuildingBlock: AJUNOK_clean_linker_0, # of connection points: 2
#     Edge 81, Type (0, 0), BuildingBlock: AJUNOK_clean_linker_0, # of connection points: 2
#     Edge 82, Type (0, 0), BuildingBlock: AJUNOK_clean_linker_0, # of connection points: 2
#     Edge 83, Type (0, 0), BuildingBlock: AJUNOK_clean_linker_0, # of connection points: 2
#     Edge 84, Type (0, 0), BuildingBlock: AJUNOK_clean_linker_0, # of connection points: 2
#     Edge 85, Type (0, 0), BuildingBlock: AJUNOK_clean_linker_0, # of connection points: 2
#     Edge 86, Type (0, 0), BuildingBlock: AJUNOK_clean_linker_0, # of connection points: 2
#     Edge 87, Type (0, 0), BuildingBlock: AJUNOK_clean_linker_0, # of connection points: 2
#     Edge 88, Type (0, 0), BuildingBlock: AJUNOK_clean_linker_0, # of connection points: 2
#     Edge 89, Type (0, 0), BuildingBlock: AJUNOK_clean_linker_0, # of connection points: 2
#     Edge 90, Type (0, 0), BuildingBlock: AJUNOK_clean_linker_0, # of connection points: 2
#     Edge 91, Type (0, 0), BuildingBlock: AJUNOK_clean_linker_0, # of connection points: 2
#     Edge 92, Type (0, 0), BuildingBlock: AJUNOK_clean_linker_0, # of connection points: 2
#     Edge 93, Type (0, 0), BuildingBlock: AJUNOK_clean_linker_0, # of connection points: 2
#     Edge 94, Type (0, 0), BuildingBlock: AJUNOK_clean_linker_0, # of connection points: 2
#     Edge 95, Type (0, 0), BuildingBlock: AJUNOK_clean_linker_0, # of connection points: 2
# Relax obj value: 0.137
# Max RMSD: 0.207
# Mean RMSD: 0.207
data_MOF--net-uoa--node1-CEKHIL_clean_sbu_0--edge1-AJUNOK_clean_linker_0
_symmetry_space_group_name_H-M    P1
_symmetry_Int_Tables_number       1
_symmetry_cell_setting            triclinic
loop_
_symmetry_equiv_pos_as_xyz
'x, y, z'
_cell_length_a     56.027512
_cell_length_b     56.037184
_cell_length_c     19.726547
_cell_angle_alpha  90.038558
_cell_angle_beta   90.010246
_cell_angle_gamma 89.988511
loop_
_atom_site_label
_atom_site_type_symbol
_atom_site_fract_x
_atom_site_fract_y
_atom_site_fract_z
_atom_type_partial_charge
Co0 Co 0.04658 0.10314 0.01297 0.0
O1 O 0.06307 0.13297 0.02254 0.0
O2 O 0.07619 0.09873 0.06379 0.0
C3 C 0.03836 0.10801 0.90209 0.0
O4 O 0.03392 0.06866 0.00998 0.0
Co5 Co 0.99281 0.10366 0.97441 0.0
O6 O 0.99722 0.06883 0.96344 0.0
C7 C 1.0071 0.11268 0.11587 0.0
C8 C 0.07944 0.12159 0.05559 0.0
C9 C 0.01517 0.05772 0.98746 0.0
O10 O 0.02896 0.10877 0.09992 0.0
O11 O 0.9901 0.1129 0.07249 0.0
O12 O 0.05896 0.09977 0.92127 0.0
O13 O 0.02435 0.11479 0.95035 0.0
Co14 Co 0.15985 0.79397 0.2619 0.0
O15 O 0.12915 0.80793 0.27728 0.0
O16 O 0.16292 0.82344 0.31489 0.0
C17 C 0.15418 0.78688 0.1506 0.0
O18 O 0.19492 0.78324 0.25328 0.0
Co19 Co 0.16046 0.74045 0.22064 0.0
O20 O 0.19476 0.74671 0.20518 0.0
C21 C 0.15338 0.75322 0.3637 0.0
C22 C 0.1397 0.82464 0.31106 0.0
C23 C 0.20584 0.76494 0.22764 0.0
O24 O 0.15662 0.77519 0.34793 0.0
O25 O 0.15285 0.73641 0.31972 0.0
O26 O 0.16115 0.80771 0.17158 0.0
O27 O 0.14862 0.77189 0.19786 0.0
Co28 Co 0.4721 0.90995 0.52273 0.0
O29 O 0.45477 0.88059 0.5349 0.0
O30 O 0.44337 0.91553 0.57617 0.0
C31 C 0.47866 0.90482 0.41042 0.0
O32 O 0.4854 0.94411 0.51822 0.0
Co33 Co 0.52514 0.9086 0.47894 0.0
O34 O 0.52169 0.94361 0.46935 0.0
C35 C 0.51277 0.90032 0.62263 0.0
C36 C 0.43926 0.8928 0.56899 0.0
C37 C 0.50409 0.95487 0.49487 0.0
O38 O 0.49068 0.90411 0.60861 0.0
O39 O 0.52908 0.89977 0.57719 0.0
O40 O 0.45859 0.91349 0.43232 0.0
O41 O 0.49325 0.8977 0.45703 0.0
Co42 Co 0.35696 0.22585 0.76429 0.0
O43 O 0.3878 0.2122 0.7789 0.0
O44 O 0.3544 0.19578 0.81492 0.0
C45 C 0.36313 0.23373 0.65311 0.0
O46 O 0.32172 0.23591 0.7554 0.0
Co47 Co 0.35523 0.27941 0.72271 0.0
O48 O 0.32104 0.27243 0.70759 0.0
C49 C 0.36207 0.26664 0.86653 0.0
C50 C 0.37761 0.19472 0.81026 0.0
C51 C 0.31036 0.25396 0.72993 0.0
O52 O 0.35961 0.24441 0.85171 0.0
O53 O 0.3627 0.28311 0.82163 0.0
O54 O 0.3562 0.21271 0.67251 0.0
O55 O 0.36808 0.24838 0.70162 0.0
Co56 Co 0.03855 0.90756 0.4834 0.0
O57 O 0.05337 0.87712 0.47084 0.0
O58 O 0.0681 0.91067 0.43054 0.0
C59 C 0.03187 0.90254 0.59563 0.0
O60 O 0.02717 0.94246 0.48954 0.0
Co61 Co 0.98531 0.90781 0.52692 0.0
O62 O 0.99071 0.94247 0.53776 0.0
C63 C 0.99746 0.90045 0.38292 0.0
C64 C 0.07019 0.8876 0.4374 0.0
C65 C 0.00871 0.9535 0.51385 0.0
O66 O 0.01966 0.90326 0.39736 0.0
O67 O 0.98107 0.90002 0.42813 0.0
O68 O 0.05238 0.90998 0.57368 0.0
O69 O 0.01689 0.89634 0.54895 0.0
Co70 Co 0.35616 0.79241 0.73014 0.0
O71 O 0.3858 0.80915 0.719 0.0
O72 O 0.35119 0.82203 0.67961 0.0
C73 C 0.36185 0.78442 0.84074 0.0
O74 O 0.32179 0.77937 0.7355 0.0
Co75 Co 0.35763 0.73869 0.7686 0.0
O76 O 0.323 0.74296 0.78375 0.0
C77 C 0.36503 0.75292 0.62651 0.0
C78 C 0.37407 0.82549 0.68695 0.0
C79 C 0.31137 0.76068 0.76045 0.0
O80 O 0.36131 0.77478 0.64288 0.0
O81 O 0.36563 0.73589 0.6697 0.0
O82 O 0.35333 0.80491 0.82173 0.0
O83 O 0.3685 0.77038 0.79234 0.0
Co84 Co 0.47233 0.10353 0.97718 0.0
O85 O 0.45893 0.13467 0.9656 0.0
O86 O 0.44274 0.10178 0.92427 0.0
C87 C 0.47962 0.10749 0.08916 0.0
O88 O 0.48227 0.06819 0.98156 0.0
Co89 Co 0.52579 0.10102 0.01822 0.0
O90 O 0.51867 0.0667 0.03018 0.0
C91 C 0.51324 0.11074 0.87611 0.0
C92 C 0.44196 0.12493 0.93085 0.0
C93 C 0.50026 0.05644 0.00582 0.0
O94 O 0.49116 0.10768 0.89127 0.0
O95 O 0.52998 0.11022 0.92032 0.0
O96 O 0.45864 0.10122 0.06759 0.0
O97 O 0.49467 0.11338 0.04238 0.0
Co98 Co 0.16216 0.21975 0.22694 0.0
O99 O 0.13287 0.20259 0.21191 0.0
O100 O 0.16822 0.19111 0.17363 0.0
C101 C 0.15601 0.22617 0.33883 0.0
O102 O 0.19629 0.23287 0.23455 0.0
Co103 Co 0.1606 0.27273 0.27103 0.0
O104 O 0.1955 0.26916 0.28327 0.0
C105 C 0.15365 0.26056 0.12668 0.0
C106 C 0.1454 0.18711 0.17864 0.0
C107 C 0.20693 0.2515 0.25875 0.0
O108 O 0.15726 0.23846 0.14088 0.0
O109 O 0.15272 0.27686 0.17214 0.0
O110 O 0.16476 0.20609 0.31731 0.0
O111 O 0.14937 0.24087 0.29191 0.0
Co112 Co 0.96811 0.91096 0.9831 0.0
O113 O 0.94992 0.88219 0.97076 0.0
O114 O 0.93974 0.91735 0.92866 0.0
C115 C 0.97419 0.90558 0.09531 0.0
O116 O 0.98267 0.94464 0.98867 0.0
Co117 Co 0.02101 0.907 0.02714 0.0
O118 O 0.01872 0.94202 0.03842 0.0
C119 C 0.0085 0.8999 0.88334 0.0
C120 C 0.93494 0.89475 0.93592 0.0
C121 C 1.00171 0.95434 0.01367 0.0
O122 O 0.98662 0.90456 0.89756 0.0
O123 O 0.0248 0.89846 0.92866 0.0
O124 O 0.95448 0.91495 0.07315 0.0
O125 O 0.98858 0.89788 0.04892 0.0
Co126 Co 0.85457 0.2226 0.72467 0.0
O127 O 0.88508 0.20833 0.70774 0.0
O128 O 0.85089 0.19296 0.67281 0.0
C129 C 0.86122 0.23007 0.83515 0.0
O130 O 0.81965 0.23354 0.73523 0.0
Co131 Co 0.85458 0.27628 0.76417 0.0
O132 O 0.8203 0.27038 0.78124 0.0
C133 C 0.86007 0.26295 0.62098 0.0
C134 C 0.87411 0.19157 0.67531 0.0
C135 C 0.80898 0.25208 0.7603 0.0
O136 O 0.85708 0.24106 0.63797 0.0
O137 O 0.86121 0.27992 0.66441 0.0
O138 O 0.85397 0.20919 0.81532 0.0
O139 O 0.86646 0.24487 0.78713 0.0
Co140 Co 0.54512 0.10374 0.47835 0.0
O141 O 0.56045 0.13381 0.4608 0.0
O142 O 0.57438 0.09892 0.42623 0.0
C143 C 0.53782 0.11071 0.58939 0.0
O144 O 0.53353 0.06907 0.48934 0.0
Co145 Co 0.49171 0.10421 0.52076 0.0
O146 O 0.49723 0.0699 0.53844 0.0
C147 C 0.50424 0.10976 0.37646 0.0
C148 C 0.57681 0.12203 0.42883 0.0
C149 C 0.51525 0.05849 0.51597 0.0
O150 O 0.52637 0.1066 0.39142 0.0
O151 O 0.48785 0.11112 0.42149 0.0
O152 O 0.55855 0.10297 0.56966 0.0
O153 O 0.52324 0.11617 0.5411 0.0
Co154 Co 0.66275 0.7957 0.23207 0.0
O155 O 0.63262 0.81171 0.22244 0.0
O156 O 0.66658 0.82518 0.18025 0.0
C157 C 0.65816 0.78802 0.34375 0.0
O158 O 0.69746 0.78361 0.23527 0.0
Co159 Co 0.66315 0.74224 0.27319 0.0
O160 O 0.69794 0.74719 0.2834 0.0
C161 C 0.65377 0.75541 0.13072 0.0
C162 C 0.6437 0.82816 0.18897 0.0
C163 C 0.70875 0.76518 0.25857 0.0
O164 O 0.65732 0.77749 0.14541 0.0
O165 O 0.65362 0.73889 0.17551 0.0
O166 O 0.66606 0.80861 0.3235 0.0
O167 O 0.65154 0.77369 0.29607 0.0
Co168 Co 0.97427 0.10519 0.51247 0.0
O169 O 0.96085 0.13635 0.52204 0.0
O170 O 0.94377 0.10387 0.56161 0.0
C171 C 0.98306 0.10963 0.40173 0.0
O172 O 0.98397 0.06976 0.50904 0.0
Co173 Co 0.02808 0.10163 0.47464 0.0
O174 O 0.02079 0.06733 0.46348 0.0
C175 C 0.01419 0.11144 0.61609 0.0
C176 C 0.94291 0.12696 0.55323 0.0
C177 C 1.00199 0.05752 0.48683 0.0
O178 O 0.99211 0.10909 0.59994 0.0
O179 O 0.03121 0.1106 0.57281 0.0
O180 O 0.96183 0.10312 0.42054 0.0
O181 O 0.99751 0.11504 0.45033 0.0
Co182 Co 0.65722 0.22426 0.26002 0.0
O183 O 0.6273 0.20832 0.27207 0.0
O184 O 0.66159 0.19428 0.30981 0.0
C185 C 0.65134 0.23242 0.14948 0.0
O186 O 0.6918 0.23669 0.2535 0.0
Co187 Co 0.65586 0.27811 0.22202 0.0
O188 O 0.69047 0.27346 0.20766 0.0
C189 C 0.64904 0.26379 0.36412 0.0
C190 C 0.63861 0.19139 0.30281 0.0
C191 C 0.70218 0.25561 0.22979 0.0
O192 O 0.65278 0.24194 0.34754 0.0
O193 O 0.64811 0.28083 0.32102 0.0
O194 O 0.65948 0.21175 0.16823 0.0
O195 O 0.64504 0.24649 0.19817 0.0
Co196 Co 0.54317 0.90901 0.02186 0.0
O197 O 0.56095 0.88012 0.03744 0.0
O198 O 0.57175 0.91576 0.07494 0.0
C199 C 0.53692 0.90248 0.91012 0.0
O200 O 0.52923 0.94281 0.01294 0.0
Co201 Co 0.49019 0.90581 0.97802 0.0
O202 O 0.49325 0.94058 0.96259 0.0
C203 C 0.5025 0.90026 0.1227 0.0
C204 C 0.57625 0.89303 0.07015 0.0
C205 C 0.51052 0.9527 0.98661 0.0
O206 O 0.52454 0.90407 0.10818 0.0
O207 O 0.48619 0.89876 0.0774 0.0
O208 O 0.55683 0.91161 0.93154 0.0
O209 O 0.52237 0.89556 0.95713 0.0
Co210 Co 0.85598 0.79365 0.76796 0.0
O211 O 0.88465 0.81213 0.77917 0.0
O212 O 0.84921 0.82282 0.81839 0.0
C213 C 0.86202 0.78567 0.65737 0.0
O214 O 0.8223 0.77912 0.76304 0.0
Co215 Co 0.85938 0.74004 0.72959 0.0
O216 O 0.8244 0.74239 0.71733 0.0
C217 C 0.86693 0.75469 0.87138 0.0
C218 C 0.8718 0.82767 0.81123 0.0
C219 C 0.81233 0.7599 0.74012 0.0
O220 O 0.86208 0.77637 0.85537 0.0
O221 O 0.86817 0.73774 0.82798 0.0
O222 O 0.85253 0.80579 0.67609 0.0
O223 O 0.8693 0.77205 0.70595 0.0
Co224 Co 0.54106 0.60666 0.51414 0.0
O225 O 0.55441 0.6378 0.52648 0.0
O226 O 0.57081 0.60488 0.56628 0.0
C227 C 0.53358 0.61109 0.40242 0.0
O228 O 0.53152 0.57126 0.50843 0.0
Co229 Co 0.48768 0.60349 0.47336 0.0
O230 O 0.49526 0.56936 0.45931 0.0
C231 C 0.50019 0.61248 0.61602 0.0
C232 C 0.57168 0.62803 0.55998 0.0
C233 C 0.51382 0.5593 0.48337 0.0
O234 O 0.52234 0.61023 0.60048 0.0
O235 O 0.48341 0.61171 0.57197 0.0
O236 O 0.5546 0.60484 0.42362 0.0
O237 O 0.5185 0.61664 0.44952 0.0
Co238 Co 0.66029 0.2955 0.76086 0.0
O239 O 0.6308 0.31269 0.76942 0.0
O240 O 0.66525 0.32511 0.8112 0.0
C241 C 0.65539 0.28718 0.65006 0.0
O242 O 0.69452 0.28217 0.75897 0.0
Co243 Co 0.65919 0.24174 0.72274 0.0
O244 O 0.69416 0.24537 0.71309 0.0
C245 C 0.64957 0.25641 0.86368 0.0
C246 C 0.6425 0.32889 0.8023 0.0
C247 C 0.70535 0.26324 0.7373 0.0
O248 O 0.65402 0.27818 0.84792 0.0
O249 O 0.64927 0.2394 0.82032 0.0
O250 O 0.6641 0.30761 0.66906 0.0
O251 O 0.64832 0.27335 0.69838 0.0
Co252 Co 0.97296 0.40651 0.01275 0.0
O253 O 0.95481 0.37771 0.02537 0.0
O254 O 0.9444 0.41302 0.06618 0.0
C255 C 0.97922 0.40086 0.90066 0.0
O256 O 0.98722 0.44025 0.00669 0.0
Co257 Co 0.02591 0.40316 0.96912 0.0
O258 O 0.02343 0.43817 0.95792 0.0
C259 C 0.01341 0.39647 0.11319 0.0
C260 C 0.93957 0.39043 0.05893 0.0
C261 C 1.00619 0.45024 0.98231 0.0
O262 O 0.99141 0.40053 0.09877 0.0
O263 O 0.02975 0.39523 0.06795 0.0
O264 O 0.95944 0.41015 0.92253 0.0
O265 O 0.99366 0.3934 0.94727 0.0
Co266 Co 0.85713 0.72233 0.26753 0.0
O267 O 0.88652 0.70511 0.27905 0.0
O268 O 0.85162 0.69268 0.31741 0.0
C269 C 0.86318 0.7305 0.15704 0.0
O270 O 0.82291 0.73571 0.26163 0.0
Co271 Co 0.85926 0.77609 0.22961 0.0
O272 O 0.82456 0.7723 0.21477 0.0
C273 C 0.86656 0.76159 0.37153 0.0
C274 C 0.87444 0.68886 0.31048 0.0
C275 C 0.81269 0.7546 0.23725 0.0
O276 O 0.86234 0.7398 0.3552 0.0
O277 O 0.86755 0.77859 0.3283 0.0
O278 O 0.85438 0.71006 0.17554 0.0
O279 O 0.86986 0.74433 0.20585 0.0
Co280 Co 0.54393 0.41087 0.97032 0.0
O281 O 0.56185 0.38213 0.95466 0.0
O282 O 0.57274 0.41794 0.9187 0.0
C283 C 0.53692 0.40377 0.08143 0.0
O284 O 0.52976 0.44457 0.97937 0.0
Co285 Co 0.49068 0.40694 0.01218 0.0
O286 O 0.49311 0.44188 0.02525 0.0
C287 C 0.50388 0.40147 0.86827 0.0
C288 C 0.57723 0.39518 0.92278 0.0
C289 C 0.5105 0.45425 0.00304 0.0
O290 O 0.52575 0.40605 0.88316 0.0
O291 O 0.48753 0.39928 0.91316 0.0
O292 O 0.55696 0.41318 0.06186 0.0
O293 O 0.52289 0.39704 0.03311 0.0
Co294 Co 0.85244 0.29493 0.2225 0.0
O295 O 0.88236 0.3114 0.21247 0.0
O296 O 0.848 0.32418 0.17058 0.0
C297 C 0.85699 0.28707 0.33393 0.0
O298 O 0.81786 0.2826 0.22593 0.0
Co299 Co 0.85226 0.24145 0.26219 0.0
O300 O 0.81737 0.24579 0.27137 0.0
C301 C 0.86256 0.25492 0.12111 0.0
C302 C 0.87084 0.3275 0.17871 0.0
C303 C 0.80655 0.264 0.2479 0.0
O304 O 0.85807 0.27684 0.13567 0.0
O305 O 0.86309 0.23842 0.16586 0.0
O306 O 0.84912 0.30774 0.31411 0.0
O307 O 0.86379 0.27287 0.28609 0.0
Co308 Co 0.96973 0.60057 0.47225 0.0
O309 O 0.95367 0.63059 0.45901 0.0
O310 O 0.94043 0.59593 0.42042 0.0
C311 C 0.97729 0.60625 0.58377 0.0
O312 O 0.98174 0.56592 0.47848 0.0
Co313 Co 0.02312 0.60034 0.51445 0.0
O314 O 0.01823 0.56559 0.52621 0.0
C315 C 0.01029 0.60839 0.37101 0.0
C316 C 0.93743 0.61889 0.42633 0.0
C317 C 1.00016 0.55471 0.50206 0.0
O318 O 0.98816 0.60502 0.38538 0.0
O319 O 0.02668 0.60899 0.41621 0.0
O320 O 0.95667 0.5983 0.5638 0.0
O321 O 0.99169 0.61239 0.53578 0.0
Co322 Co 0.66098 0.72358 0.73238 0.0
O323 O 0.62979 0.71057 0.71831 0.0
O324 O 0.66289 0.69392 0.67992 0.0
C325 C 0.6559 0.73102 0.84382 0.0
O326 O 0.69642 0.73299 0.7393 0.0
Co327 Co 0.66407 0.77697 0.77352 0.0
O328 O 0.6983 0.7696 0.78634 0.0
C329 C 0.65559 0.76445 0.63073 0.0
C330 C 0.63968 0.69342 0.6846 0.0
C331 C 0.70839 0.75092 0.76308 0.0
O332 O 0.65797 0.74235 0.64626 0.0
O333 O 0.65607 0.78125 0.67477 0.0
O334 O 0.6622 0.70998 0.82288 0.0
O335 O 0.65076 0.74616 0.79654 0.0
Co336 Co 0.47286 0.41135 0.46964 0.0
O337 O 0.45458 0.38256 0.45862 0.0
O338 O 0.44398 0.41769 0.41729 0.0
C339 C 0.47978 0.40609 0.58133 0.0
O340 O 0.4871 0.44514 0.47442 0.0
Co341 Co 0.52609 0.40843 0.51096 0.0
O342 O 0.52308 0.44328 0.52471 0.0
C343 C 0.51276 0.40082 0.36799 0.0
C344 C 0.43913 0.39513 0.42537 0.0
C345 C 0.50581 0.45523 0.50004 0.0
O346 O 0.49083 0.40489 0.3832 0.0
O347 O 0.52953 0.40035 0.41209 0.0
O348 O 0.45988 0.41534 0.56021 0.0
O349 O 0.49399 0.39849 0.53431 0.0
Co350 Co 0.35448 0.72171 0.22935 0.0
O351 O 0.38407 0.70476 0.22004 0.0
O352 O 0.34967 0.69219 0.17845 0.0
C353 C 0.35944 0.72983 0.34026 0.0
O354 O 0.32019 0.73485 0.23168 0.0
Co355 Co 0.35537 0.77541 0.26808 0.0
O356 O 0.32042 0.77161 0.27792 0.0
C357 C 0.36472 0.76101 0.12681 0.0
C358 C 0.37247 0.68859 0.18676 0.0
C359 C 0.3093 0.75372 0.25351 0.0
O360 O 0.3605 0.73922 0.14262 0.0
O361 O 0.36497 0.77802 0.17021 0.0
O362 O 0.35085 0.70938 0.32094 0.0
O363 O 0.36638 0.7438 0.29212 0.0
Co364 Co 0.04262 0.60149 0.97237 0.0
O365 O 0.05616 0.63251 0.95872 0.0
O366 O 0.07229 0.59916 0.92014 0.0
C367 C 0.03521 0.60635 0.08405 0.0
O368 O 0.03279 0.56618 0.97887 0.0
Co369 Co 0.98923 0.59892 0.01329 0.0
O370 O 0.9962 0.5646 0.02592 0.0
C371 C 1.00177 0.60761 0.87062 0.0
C372 C 0.0732 0.62235 0.92519 0.0
C373 C 0.01479 0.55435 0.00268 0.0
O374 O 0.02387 0.60492 0.88604 0.0
O375 O 0.98501 0.60724 0.91476 0.0
O376 O 0.05618 0.5999 0.06292 0.0
O377 O 0.02017 0.61188 0.03682 0.0
Co378 Co 0.16012 0.29119 0.72642 0.0
O379 O 0.13019 0.3077 0.71602 0.0
O380 O 0.16446 0.3201 0.67285 0.0
C381 C 0.15583 0.28448 0.83887 0.0
O382 O 0.1947 0.279 0.72965 0.0
Co383 Co 0.16085 0.23818 0.77007 0.0
O384 O 0.19575 0.24281 0.77877 0.0
C385 C 0.1519 0.25021 0.62641 0.0
C386 C 0.1417 0.32367 0.68172 0.0
C387 C 0.20627 0.26077 0.75286 0.0
O388 O 0.1545 0.27246 0.64062 0.0
O389 O 0.15231 0.23386 0.67173 0.0
O390 O 0.16375 0.30479 0.81665 0.0
O391 O 0.14891 0.26965 0.79257 0.0
Co392 Co 0.46839 0.60355 0.01412 0.0
O393 O 0.45193 0.63321 0.02922 0.0
O394 O 0.43932 0.59807 0.066 0.0
C395 C 0.4758 0.60989 0.90287 0.0
O396 O 0.48082 0.56916 0.00628 0.0
Co397 Co 0.52174 0.60424 0.97205 0.0
O398 O 0.5176 0.56938 0.96062 0.0
C399 C 0.50883 0.61192 0.11544 0.0
C400 C 0.436 0.62102 0.06172 0.0
C401 C 0.4995 0.55822 0.98348 0.0
O402 O 0.48682 0.60787 0.101 0.0
O403 O 0.52518 0.61308 0.07025 0.0
O404 O 0.45529 0.60158 0.92256 0.0
O405 O 0.49015 0.61601 0.95106 0.0
Co406 Co 0.16062 0.72184 0.76246 0.0
O407 O 0.12961 0.70802 0.77253 0.0
O408 O 0.16239 0.69181 0.81359 0.0
C409 C 0.15628 0.72977 0.65076 0.0
O410 O 0.19591 0.7322 0.759 0.0
Co411 Co 0.16299 0.7754 0.72152 0.0
O412 O 0.19745 0.76868 0.71093 0.0
C413 C 0.15305 0.76243 0.86377 0.0
C414 C 0.13928 0.69068 0.80576 0.0
C415 C 0.20769 0.75032 0.73558 0.0
O416 O 0.15624 0.74028 0.84921 0.0
O417 O 0.15319 0.77893 0.81891 0.0
O418 O 0.16307 0.70878 0.67088 0.0
O419 O 0.15049 0.74437 0.69862 0.0
Co420 Co 0.04332 0.40665 0.51285 0.0
O421 O 0.06079 0.37746 0.52622 0.0
O422 O 0.07191 0.41257 0.56682 0.0
C423 C 0.03702 0.40091 0.40077 0.0
O424 O 0.0297 0.44072 0.5061 0.0
Co425 Co 0.99031 0.40401 0.46899 0.0
O426 O 0.99364 0.43888 0.45621 0.0
C427 C 1.00264 0.39714 0.61301 0.0
C428 C 0.07615 0.38982 0.56034 0.0
C429 C 0.01097 0.45083 0.48056 0.0
O430 O 0.02465 0.40115 0.59872 0.0
O431 O 0.98632 0.39597 0.56769 0.0
O432 O 0.05699 0.40982 0.42257 0.0
O433 O 0.02245 0.39384 0.44748 0.0
Co434 Co 0.35397 0.29808 0.2656 0.0
O435 O 0.38282 0.31635 0.27559 0.0
O436 O 0.34789 0.32684 0.31873 0.0
C437 C 0.3585 0.29125 0.15355 0.0
O438 O 0.32023 0.28359 0.26215 0.0
Co439 Co 0.35764 0.24486 0.22407 0.0
O440 O 0.3227 0.2476 0.21201 0.0
C441 C 0.36548 0.2582 0.36674 0.0
C442 C 0.37042 0.33165 0.30982 0.0
C443 C 0.31045 0.26464 0.23685 0.0
O444 O 0.36096 0.28004 0.35161 0.0
O445 O 0.36619 0.24145 0.32258 0.0
O446 O 0.34938 0.31114 0.17533 0.0
O447 O 0.3666 0.27716 0.20011 0.0
C448 C 0.04311 0.10548 0.71082 0.0
C449 C 0.02036 0.11285 0.68895 0.0
C450 C 0.04868 0.10403 0.7798 0.0
C451 C 0.03183 0.11008 0.82973 0.0
H452 H 0.05656 0.10005 0.67451 0.0
H453 H 0.06633 0.0979 0.79395 0.0
S454 S 0.97027 0.13226 0.79925 0.0
N455 N 0.98122 0.1275 0.72277 0.0
N456 N 0.99179 0.12497 0.85253 0.0
C457 C 0.00924 0.1182 0.80868 0.0
C458 C 1.00349 0.11954 0.73831 0.0
C459 C 0.15027 0.75142 0.98696 0.0
C460 C 0.15106 0.76925 0.93652 0.0
C461 C 0.15082 0.75725 0.0561 0.0
C462 C 0.15239 0.7811 0.0776 0.0
H463 H 0.14966 0.73272 0.97313 0.0
H464 H 0.15059 0.7429 0.09286 0.0
S465 S 0.15305 0.83473 0.96716 0.0
N466 N 0.15203 0.81202 0.91398 0.0
N467 N 0.15322 0.82279 0.04356 0.0
C468 C 0.15245 0.79915 0.0281 0.0
C469 C 0.1517 0.79328 0.95773 0.0
C470 C 0.51323 0.89675 0.24604 0.0
C471 C 0.49558 0.89948 0.19564 0.0
C472 C 0.50758 0.89816 0.31527 0.0
C473 C 0.4841 0.90267 0.33703 0.0
H474 H 0.53168 0.89375 0.23203 0.0
H475 H 0.52183 0.89616 0.35192 0.0
S476 S 0.431 0.91028 0.22643 0.0
N477 N 0.45334 0.90614 0.17319 0.0
N478 N 0.44287 0.90895 0.30288 0.0
C479 C 0.46619 0.90499 0.28746 0.0
C480 C 0.47187 0.90332 0.21698 0.0
C481 C 0.36016 0.22904 0.46137 0.0
C482 C 0.36746 0.25179 0.43947 0.0
C483 C 0.35898 0.22338 0.53046 0.0
C484 C 0.36521 0.24017 0.58049 0.0
H485 H 0.35448 0.2157 0.425 0.0
H486 H 0.35279 0.20577 0.54465 0.0
S487 S 0.38798 0.30142 0.54973 0.0
N488 N 0.38268 0.29065 0.47326 0.0
N489 N 0.38064 0.27997 0.60309 0.0
C490 C 0.37341 0.26269 0.5593 0.0
C491 C 0.37449 0.26851 0.48886 0.0
C492 C 0.99744 0.89589 0.7605 0.0
C493 C 0.01528 0.89824 0.81051 0.0
C494 C 1.00295 0.89691 0.69118 0.0
C495 C 0.02651 0.90057 0.66901 0.0
H496 H 0.97893 0.89359 0.77488 0.0
H497 H 0.98855 0.89532 0.65482 0.0
S498 S 0.08012 0.90658 0.77852 0.0
N499 N 0.05777 0.90341 0.83219 0.0
N500 N 0.06804 0.90544 0.70231 0.0
C501 C 0.04463 0.90235 0.7182 0.0
C502 C 0.03906 0.90111 0.78877 0.0
C503 C 0.3595 0.79548 0.96275 0.0
C504 C 0.36421 0.77808 0.91312 0.0
C505 C 0.36088 0.79008 0.03181 0.0
C506 C 0.3668 0.76699 0.05403 0.0
H507 H 0.3544 0.81342 0.9483 0.0
H508 H 0.35639 0.80396 0.06791 0.0
S509 S 0.38254 0.71537 0.9446 0.0
N510 N 0.37647 0.73713 0.89093 0.0
N511 N 0.37882 0.72688 0.0209 0.0
C512 C 0.37229 0.74957 0.00497 0.0
C513 C 0.37106 0.75514 0.93449 0.0
C514 C 0.5093 0.10952 0.18376 0.0
C515 C 0.48541 0.10865 0.16232 0.0
C516 C 0.51516 0.11014 0.25286 0.0
C517 C 0.49737 0.11042 0.30346 0.0
H518 H 0.52365 0.10926 0.14698 0.0
H519 H 0.53385 0.11004 0.2665 0.0
S520 S 0.43185 0.10907 0.27315 0.0
N521 N 0.44373 0.10842 0.19667 0.0
N522 N 0.45459 0.11006 0.3262 0.0
C523 C 0.47331 0.10994 0.28235 0.0
C524 C 0.46739 0.10895 0.21197 0.0
C525 C 0.14775 0.26079 0.50308 0.0
C526 C 0.15058 0.24318 0.55355 0.0
C527 C 0.1491 0.2551 0.43386 0.0
C528 C 0.15358 0.23162 0.41214 0.0
H529 H 0.14487 0.27927 0.517 0.0
H530 H 0.14715 0.26935 0.3972 0.0
S531 S 0.16089 0.1785 0.5227 0.0
N532 N 0.15693 0.20088 0.57593 0.0
N533 N 0.1596 0.19036 0.44627 0.0
C534 C 0.1558 0.21371 0.46171 0.0
C535 C 0.15422 0.21942 0.53219 0.0
C536 C 0.00809 0.89599 0.25991 0.0
C537 C 0.99055 0.89972 0.31006 0.0
C538 C 1.0026 0.89758 0.19066 0.0
C539 C 0.97941 0.90324 0.16868 0.0
H540 H 0.02636 0.89209 0.27413 0.0
H541 H 0.01678 0.8948 0.15418 0.0
S542 S 0.92664 0.91373 0.27861 0.0
N543 N 0.94868 0.90855 0.33209 0.0
N544 N 0.9385 0.91166 0.20229 0.0
C545 C 0.96157 0.90654 0.218 0.0
C546 C 0.96708 0.9047 0.28851 0.0
C547 C 0.86492 0.26596 -0.00209 0.0
C548 C 0.865 0.24817 0.0485 0.0
C549 C 0.86432 0.26002 0.92885 0.0
C550 C 0.86354 0.23608 0.90776 0.0
H551 H 0.86477 0.28468 0.01157 0.0
H552 H 0.86375 0.2743 0.89191 0.0
S553 S 0.86576 0.18261 0.01857 0.0
N554 N 0.86605 0.20541 0.07149 0.0
N555 N 0.86471 0.19444 0.9421 0.0
C556 C 0.86455 0.21811 0.95735 0.0
C557 C 0.86537 0.2241 0.02757 0.0
C558 C 0.54251 0.1064 0.781 0.0
C559 C 0.51961 0.11306 0.80336 0.0
C560 C 0.54822 0.10596 0.71184 0.0
C561 C 0.53135 0.11232 0.66217 0.0
H562 H 0.55597 0.10073 0.81698 0.0
H563 H 0.56597 0.10023 0.6973 0.0
S564 S 0.46948 0.1333 0.69431 0.0
N565 N 0.48036 0.12765 0.77037 0.0
N566 N 0.49117 0.127 0.64057 0.0
C567 C 0.50863 0.11986 0.68387 0.0
C568 C 0.50276 0.12018 0.75435 0.0
C569 C 0.66203 0.79314 0.53529 0.0
C570 C 0.65412 0.77068 0.55782 0.0
C571 C 0.66322 0.79854 0.46602 0.0
C572 C 0.6564 0.78177 0.41654 0.0
H573 H 0.66803 0.80646 0.57128 0.0
H574 H 0.66978 0.81596 0.45127 0.0
S575 S 0.63251 0.72101 0.44914 0.0
N576 N 0.63806 0.73198 0.52518 0.0
N577 N 0.64018 0.74217 0.39518 0.0
C578 C 0.64777 0.75948 0.4384 0.0
C579 C 0.64666 0.75393 0.50894 0.0
C580 C 0.97239 0.10687 0.27949 0.0
C581 C 0.98965 0.11165 0.32944 0.0
C582 C 0.97794 0.10832 0.21053 0.0
C583 C 1.00104 0.11444 0.1887 0.0
H584 H 0.95444 0.10169 0.29358 0.0
H585 H 0.96416 0.1038 0.17418 0.0
S586 S 0.05226 0.13054 0.29914 0.0
N587 N 0.03046 0.12419 0.35241 0.0
N588 N 0.04098 0.12674 0.2226 0.0
C589 C 0.01833 0.11995 0.2381 0.0
C590 C 0.01262 0.1186 0.30849 0.0
C591 C 0.65428 0.2217 0.0274 0.0
C592 C 0.64922 0.23895 0.07717 0.0
C593 C 0.65323 0.22725 0.95841 0.0
C594 C 0.64729 0.25037 0.93636 0.0
H595 H 0.65942 0.20376 0.04167 0.0
H596 H 0.65797 0.21348 0.92227 0.0
S597 S 0.63055 0.30157 0.04606 0.0
N598 N 0.63651 0.27974 0.09961 0.0
N599 N 0.63482 0.2903 0.96968 0.0
C600 C 0.64145 0.26764 0.9855 0.0
C601 C 0.64234 0.2619 0.05594 0.0
C602 C 0.50209 0.89571 0.74574 0.0
C603 C 0.51975 0.89853 0.69539 0.0
C604 C 0.50782 0.89648 0.81501 0.0
C605 C 0.53139 0.90036 0.83682 0.0
H606 H 0.48355 0.89328 0.7317 0.0
H607 H 0.49355 0.89459 0.85166 0.0
S608 S 0.58461 0.90741 0.72645 0.0
N609 N 0.56214 0.90424 0.67312 0.0
N610 N 0.57275 0.90582 0.80285 0.0
C611 C 0.54933 0.90255 0.78731 0.0
C612 C 0.54357 0.90156 0.7168 0.0
C613 C 0.85939 0.79621 0.53499 0.0
C614 C 0.8646 0.77915 0.58509 0.0
C615 C 0.86111 0.79063 0.46606 0.0
C616 C 0.86786 0.76768 0.44441 0.0
H617 H 0.8537 0.81402 0.54897 0.0
H618 H 0.85631 0.80425 0.42956 0.0
S619 S 0.88501 0.71696 0.55513 0.0
N620 N 0.87815 0.73868 0.60826 0.0
N621 N 0.88102 0.72808 0.4785 0.0
C622 C 0.87373 0.75059 0.4939 0.0
C623 C 0.8722 0.75635 0.56426 0.0
C624 C 0.498 0.61492 0.23878 0.0
C625 C 0.51574 0.61357 0.18819 0.0
C626 C 0.50389 0.61445 0.30792 0.0
C627 C 0.52773 0.61238 0.32928 0.0
H628 H 0.47931 0.61606 0.22506 0.0
H629 H 0.48959 0.61527 0.3448 0.0
S630 S 0.58115 0.60942 0.21811 0.0
N631 N 0.55841 0.611 0.16519 0.0
N632 N 0.56934 0.60999 0.29466 0.0
C633 C 0.54571 0.61152 0.27952 0.0
C634 C 0.53976 0.61219 0.20918 0.0
C635 C 0.65545 0.29259 0.45881 0.0
C636 C 0.64828 0.26977 0.4371 0.0
C637 C 0.65771 0.29796 0.52776 0.0
C638 C 0.65267 0.28081 0.57775 0.0
H639 H 0.66012 0.30625 0.42231 0.0
H640 H 0.66363 0.31569 0.54182 0.0
S641 S 0.63151 0.21888 0.54766 0.0
N642 N 0.63499 0.23021 0.47109 0.0
N643 N 0.63899 0.24038 0.60083 0.0
C644 C 0.64476 0.25813 0.55688 0.0
C645 C 0.64263 0.25259 0.48654 0.0
C646 C 0.01343 0.39262 0.73593 0.0
C647 C 0.99576 0.39587 0.68584 0.0
C648 C 0.0079 0.39383 0.80523 0.0
C649 C 0.98453 0.39861 0.82731 0.0
H650 H 0.03181 0.38944 0.7216 0.0
H651 H 0.02218 0.39152 0.84167 0.0
S652 S 0.93136 0.40729 0.71755 0.0
N653 N 0.95359 0.40311 0.66397 0.0
N654 N 0.94331 0.40549 0.79383 0.0
C655 C 0.96656 0.40131 0.77803 0.0
C656 C 0.97213 0.39986 0.70748 0.0
C657 C 0.86083 0.71989 0.03467 0.0
C658 C 0.86566 0.73707 0.08481 0.0
C659 C 0.86239 0.7255 0.96575 0.0
C660 C 0.86859 0.7486 0.94417 0.0
H661 H 0.85553 0.70196 0.04858 0.0
H662 H 0.85785 0.71178 0.92923 0.0
S663 S 0.88473 0.79966 0.05502 0.0
N664 N 0.87835 0.77781 0.10811 0.0
N665 N 0.88094 0.78845 0.97837 0.0
C666 C 0.87413 0.76581 0.99371 0.0
C667 C 0.87276 0.76002 0.06405 0.0
C668 C 0.54709 0.40868 0.20397 0.0
C669 C 0.53066 0.40135 0.15417 0.0
C670 C 0.54152 0.40743 0.27311 0.0
C671 C 0.51919 0.39902 0.29529 0.0
H672 H 0.56434 0.41579 0.18956 0.0
H673 H 0.55455 0.41392 0.3093 0.0
S674 S 0.47072 0.37543 0.18603 0.0
N675 N 0.49175 0.38364 0.13229 0.0
N676 N 0.48115 0.38169 0.26227 0.0
C677 C 0.50285 0.39094 0.24624 0.0
C678 C 0.50862 0.39199 0.17574 0.0
C679 C 0.85704 0.29829 0.45656 0.0
C680 C 0.85846 0.28049 0.40645 0.0
C681 C 0.85832 0.29258 0.52567 0.0
C682 C 0.86069 0.26877 0.54746 0.0
H683 H 0.85498 0.31685 0.44239 0.0
H684 H 0.85692 0.30696 0.56218 0.0
S685 S 0.86516 0.21539 0.43585 0.0
N686 N 0.86286 0.23811 0.38318 0.0
N687 N 0.86434 0.22719 0.51239 0.0
C688 C 0.86219 0.25078 0.49754 0.0
C689 C 0.86132 0.25668 0.42727 0.0
C690 C 0.97269 0.60206 0.77547 0.0
C691 C 0.9954 0.60938 0.79775 0.0
C692 C 0.96702 0.60125 0.70629 0.0
C693 C 0.98375 0.60789 0.65655 0.0
H694 H 0.95935 0.59621 0.81157 0.0
H695 H 0.94941 0.59509 0.69179 0.0
S696 S 0.0451 0.6304 0.68845 0.0
N697 N 0.03431 0.62475 0.76459 0.0
N698 N 0.0236 0.62341 0.63479 0.0
C699 C 1.00629 0.616 0.67818 0.0
C700 C 0.01212 0.61669 0.74865 0.0
C701 C 0.6517 0.76649 0.00745 0.0
C702 C 0.65189 0.74865 0.05788 0.0
C703 C 0.6526 0.76068 0.93832 0.0
C704 C 0.65392 0.73681 0.91682 0.0
H705 H 0.65133 0.7852 0.02128 0.0
H706 H 0.6528 0.77504 0.9016 0.0
S707 S 0.65301 0.68315 0.02715 0.0
N708 N 0.65202 0.70586 0.08033 0.0
N709 N 0.65387 0.6951 0.9508 0.0
C710 C 0.65338 0.71874 0.96627 0.0
C711 C 0.65227 0.72461 0.03662 0.0
C712 C 0.51463 0.39796 0.74503 0.0
C713 C 0.49701 0.40068 0.79546 0.0
C714 C 0.50889 0.39934 0.67586 0.0
C715 C 0.48538 0.40384 0.65443 0.0
H716 H 0.53309 0.39499 0.75899 0.0
H717 H 0.52309 0.39736 0.63903 0.0
S718 S 0.43239 0.41153 0.76538 0.0
N719 N 0.4548 0.40739 0.81836 0.0
N720 N 0.44418 0.41015 0.68885 0.0
C721 C 0.46751 0.40617 0.70408 0.0
C722 C 0.47327 0.40452 0.7744 0.0
C723 C 0.3566 0.71896 0.46244 0.0
C724 C 0.36209 0.73606 0.41269 0.0
C725 C 0.35868 0.72425 0.53149 0.0
C726 C 0.36612 0.74693 0.55356 0.0
H727 H 0.35042 0.70135 0.4481 0.0
H728 H 0.35362 0.71065 0.56777 0.0
S729 S 0.38432 0.79754 0.4438 0.0
N730 N 0.37663 0.77624 0.39026 0.0
N731 N 0.38028 0.78626 0.5202 0.0
C732 C 0.37228 0.76403 0.50438 0.0
C733 C 0.37032 0.75858 0.43394 0.0
C734 C 1.00564 0.61127 0.17845 0.0
C735 C 0.02936 0.60788 0.15722 0.0
C736 C 0.99972 0.61208 0.24756 0.0
C737 C 0.01731 0.60974 0.29828 0.0
H738 H 0.99145 0.61292 0.14147 0.0
H739 H 0.98112 0.61427 0.26119 0.0
S740 S 0.0824 0.60167 0.26886 0.0
N741 N 0.07071 0.603 0.19222 0.0
N742 N 0.05974 0.60461 0.32157 0.0
C743 C 0.04123 0.60696 0.27745 0.0
C744 C 0.0472 0.60597 0.20715 0.0
C745 C 0.15044 0.25545 0.93425 0.0
C746 C 0.15427 0.27901 0.91233 0.0
C747 C 0.14961 0.24978 0.00351 0.0
C748 C 0.15231 0.26748 0.05382 0.0
H749 H 0.14851 0.24116 0.89769 0.0
H750 H 0.1471 0.23127 0.01757 0.0
S751 S 0.16135 0.33228 0.02263 0.0
N752 N 0.15981 0.32038 0.94623 0.0
N753 N 0.15811 0.30986 0.07602 0.0
C754 C 0.15546 0.29127 0.03235 0.0
C755 C 0.15652 0.29698 0.96181 0.0
C756 C 0.47113 0.60659 0.71102 0.0
C757 C 0.49382 0.61406 0.68896 0.0
C758 C 0.46548 0.60547 0.78017 0.0
C759 C 0.48221 0.61193 0.83013 0.0
H760 H 0.45779 0.60085 0.67475 0.0
H761 H 0.4479 0.5992 0.79446 0.0
S762 S 0.54352 0.63468 0.79906 0.0
N763 N 0.53271 0.62936 0.72271 0.0
N764 N 0.52203 0.62743 0.85246 0.0
C765 C 0.50471 0.62019 0.80879 0.0
C766 C 0.51053 0.62121 0.73834 0.0
C767 C 0.15888 0.7243 0.45912 0.0
C768 C 0.15206 0.74714 0.43674 0.0
C769 C 0.16019 0.71891 0.52838 0.0
C770 C 0.15455 0.73607 0.57801 0.0
H771 H 0.16395 0.71065 0.42298 0.0
H772 H 0.16587 0.70117 0.54301 0.0
S773 S 0.13382 0.79801 0.54599 0.0
N774 N 0.13834 0.78669 0.46983 0.0
N775 N 0.14063 0.7765 0.59976 0.0
C776 C 0.14702 0.75877 0.55636 0.0
C777 C 0.14581 0.76431 0.48584 0.0
C778 C 1.00259 0.39267 0.23633 0.0
C779 C 0.0203 0.39533 0.18608 0.0
C780 C 0.00819 0.39409 0.30558 0.0
C781 C 0.03166 0.39852 0.32746 0.0
H782 H 0.98412 0.38981 0.22217 0.0
H783 H 0.99389 0.39221 0.34213 0.0
S784 S 0.08492 0.40571 0.21732 0.0
N785 N 0.0626 0.40168 0.16393 0.0
N786 N 0.07297 0.40451 0.29368 0.0
C787 C 0.04964 0.40067 0.27806 0.0
C788 C 0.04402 0.39899 0.20757 0.0
C789 C 0.36638 0.26243 0.05887 0.0
C790 C 0.35998 0.28551 0.08031 0.0
C791 C 0.36746 0.25658 0.98972 0.0
C792 C 0.36247 0.27366 0.93926 0.0
H793 H 0.37028 0.24866 0.09573 0.0
H794 H 0.37214 0.23847 0.97581 0.0
S795 S 0.34526 0.33689 0.96903 0.0
N796 N 0.34891 0.32567 0.0456 0.0
N797 N 0.35102 0.31481 0.91617 0.0
C798 C 0.35642 0.29694 0.96021 0.0
C799 C 0.35512 0.30282 0.03053 0.0
C800 C 0.99476 0.01913 0.95787 0.0
C801 C 0.01304 0.03121 0.99334 0.0
C802 C 0.9909 0.99453 0.96578 0.0
C803 C 1.00514 0.98076 0.00953 0.0
H804 H 0.98317 0.02876 0.92346 0.0
H805 H 0.97678 0.98623 0.93657 0.0
S806 S 0.05484 1.00372 0.11664 0.0
N807 N 0.04517 0.02743 0.07538 0.0
N808 N 0.03803 0.98134 0.09054 0.0
C809 C 0.02345 0.99261 0.0457 0.0
C810 C 0.0274 0.01771 0.03745 0.0
C811 C 0.24559 0.77642 0.2775 0.0
C812 C 0.23243 0.76331 0.22956 0.0
C813 C 0.27027 0.77287 0.28555 0.0
C814 C 0.28289 0.75599 0.2462 0.0
H815 H 0.23669 0.7891 0.31039 0.0
H816 H 0.27949 0.78334 0.32356 0.0
S817 S 0.25726 0.71864 0.10889 0.0
N818 N 0.23432 0.73385 0.13871 0.0
N819 N 0.28046 0.72715 0.15444 0.0
C820 C 0.27005 0.74314 0.19705 0.0
C821 C 0.24496 0.74684 0.18851 0.0
C822 C 0.52657 0.01847 0.4677 0.0
C823 C 0.51351 0.03191 0.51516 0.0
C824 C 0.52311 0.99374 0.46095 0.0
C825 C 0.50639 0.98131 0.50123 0.0
H826 H 0.53916 0.02718 0.43417 0.0
H827 H 0.53353 0.98433 0.42319 0.0
S828 S 0.46925 0.00773 0.63785 0.0
N829 N 0.48427 0.03053 0.60653 0.0
N830 N 0.47777 0.98426 0.59342 0.0
C831 C 0.4936 0.99444 0.54997 0.0
C832 C 0.49719 0.0196 0.5571 0.0
C833 C 0.27072 0.23973 0.77475 0.0
C834 C 0.2837 0.25479 0.73131 0.0
C835 C 0.24585 0.24203 0.7819 0.0
C836 C 0.2328 0.25954 0.74605 0.0
H837 H 0.27985 0.22637 0.80477 0.0
H838 H 0.23684 0.23003 0.81646 0.0
S839 S 0.25796 0.30237 0.62163 0.0
N840 N 0.28125 0.28709 0.64873 0.0
N841 N 0.2348 0.29143 0.6628 0.0
C842 C 0.2455 0.27443 0.70147 0.0
C843 C 0.27079 0.27202 0.69386 0.0
C844 C 0.02291 0.993 0.4685 0.0
C845 C 1.00704 0.9801 0.50969 0.0
C846 C 0.02062 0.01778 0.46013 0.0
C847 C 1.00236 0.03093 0.49261 0.0
H848 H 0.0371 0.9839 0.44163 0.0
H849 H 0.03346 0.02668 0.42782 0.0
S850 S 0.9564 1.00592 0.60787 0.0
N851 N 0.97249 0.98263 0.58476 0.0
N852 N 0.96831 0.02902 0.56865 0.0
C853 C 0.98634 0.01829 0.53403 0.0
C854 C 0.98869 0.99302 0.54277 0.0
C855 C 0.24703 0.76817 0.70168 0.0
C856 C 0.23426 0.75145 0.74115 0.0
C857 C 0.27171 0.77154 0.70952 0.0
C858 C 0.28485 0.75831 0.75712 0.0
H859 H 0.23787 0.77891 0.66417 0.0
H860 H 0.28058 0.78436 0.67708 0.0
S861 S 0.25997 0.71315 0.87604 0.0
N862 N 0.2367 0.7221 0.83146 0.0
N863 N 0.28299 0.72829 0.84636 0.0
C864 C 0.27232 0.7416 0.79738 0.0
C865 C 0.24713 0.73817 0.78927 0.0
C866 C 0.52111 0.99263 0.0357 0.0
C867 C 0.50777 0.97917 0.98902 0.0
C868 C 0.51784 0.01734 0.0421 0.0
C869 C 0.50114 0.02986 0.00195 0.0
H870 H 0.53402 0.984 0.06842 0.0
H871 H 0.52871 0.02672 0.0789 0.0
S872 S 0.4623 1.00322 0.86967 0.0
N873 N 0.47744 0.98039 0.90047 0.0
N874 N 0.47147 0.02682 0.9125 0.0
C875 C 0.48764 0.01666 0.95499 0.0
C876 C 0.49095 0.9914 0.94842 0.0
C877 C 0.24542 0.27173 0.29081 0.0
C878 C 0.23344 0.25373 0.25395 0.0
C879 C 0.27011 0.27547 0.28407 0.0
C880 C 0.284 0.26141 0.24012 0.0
H881 H 0.23566 0.28314 0.32541 0.0
H882 H 0.27836 0.28934 0.31431 0.0
S883 S 0.26129 0.21265 0.12916 0.0
N884 N 0.23745 0.22216 0.17016 0.0
N885 N 0.28362 0.22914 0.15709 0.0
C886 C 0.27222 0.24345 0.20243 0.0
C887 C 0.24709 0.2396 0.20952 0.0
C888 C 0.76887 0.2398 0.7144 0.0
C889 C 0.78237 0.25383 0.75937 0.0
C890 C 0.74416 0.24327 0.70701 0.0
C891 C 0.7318 0.26095 0.74413 0.0
H892 H 0.77751 0.22643 0.68324 0.0
H893 H 0.73471 0.23205 0.67122 0.0
S894 S 0.75843 0.30116 0.87318 0.0
N895 N 0.78112 0.28522 0.84498 0.0
N896 N 0.73492 0.29173 0.83049 0.0
C897 C 0.74499 0.27478 0.79033 0.0
C898 C 0.77013 0.27118 0.79819 0.0
C899 C 0.74766 0.74532 0.28826 0.0
C900 C 0.73533 0.76354 0.25323 0.0
C901 C 0.77243 0.74216 0.28156 0.0
C902 C 0.78612 0.75709 0.23955 0.0
H903 H 0.73813 0.73326 0.32152 0.0
H904 H 0.78091 0.7281 0.3105 0.0
S905 S 0.76257 0.80685 0.13382 0.0
N906 N 0.73883 0.79629 0.17318 0.0
N907 N 0.78519 0.79045 0.16023 0.0
C908 C 0.77401 0.77528 0.20359 0.0
C909 C 0.74875 0.77851 0.2106 0.0
C910 C 0.74291 0.2397 0.2604 0.0
C911 C 0.72883 0.25785 0.23172 0.0
C912 C 0.7678 0.24204 0.26593 0.0
C913 C 0.77991 0.26267 0.2431 0.0
H914 H 0.73467 0.22354 0.27934 0.0
H915 H 0.77759 0.22739 0.28843 0.0
S916 S 0.75159 0.31555 0.16325 0.0
N917 N 0.72917 0.29735 0.17937 0.0
N918 N 0.7757 0.30159 0.19022 0.0
C919 C 0.7661 0.28096 0.21412 0.0
C920 C 0.74073 0.27859 0.20826 0.0
C921 C 0.74766 0.76985 0.7926 0.0
C922 C 0.73503 0.75145 0.75919 0.0
C923 C 0.77239 0.77264 0.78526 0.0
C924 C 0.78584 0.7571 0.74439 0.0
H925 H 0.73835 0.78252 0.82456 0.0
H926 H 0.78102 0.78705 0.81245 0.0
S927 S 0.7617 0.70592 0.64535 0.0
N928 N 0.73809 0.71739 0.68336 0.0
N929 N 0.78455 0.72245 0.6696 0.0
C930 C 0.77355 0.73843 0.71102 0.0
C931 C 0.74825 0.73561 0.71851 0.0
C932 C 0.49619 0.52001 0.44843 0.0
C933 C 0.5135 0.53267 0.48608 0.0
C934 C 0.49363 0.49519 0.45399 0.0
C935 C 0.50832 0.48175 0.49729 0.0
H936 H 0.48424 0.52934 0.41438 0.0
H937 H 0.48009 0.4865 0.42352 0.0
S938 S 0.5563 0.50607 0.60816 0.0
N939 N 0.5455 0.52971 0.56882 0.0
N940 N 0.54086 0.48312 0.57936 0.0
C941 C 0.52587 0.49411 0.53506 0.0
C942 C 0.52846 0.51947 0.52934 0.0
C943 C 0.99251 0.49045 0.02334 0.0
C944 C 0.00895 0.47676 0.98611 0.0
C945 C 0.99508 0.51524 0.02982 0.0
C946 C 0.01418 0.52769 -0.00078 0.0
H947 H 0.9775 0.482 0.04819 0.0
H948 H 0.98169 0.52471 0.0589 0.0
S949 S 0.06237 0.50038 0.89597 0.0
N950 N 0.04532 0.47768 0.91809 0.0
N951 N 0.04997 0.5242 0.93033 0.0
C952 C 0.03092 0.51425 0.96226 0.0
C953 C 0.02833 0.4889 0.95559 0.0
C954 C 0.5244 0.49503 0.96687 0.0
C955 C 0.50747 0.48077 0.00046 0.0
C956 C 0.52135 0.51979 0.9606 0.0
C957 C 0.5012 0.53161 0.98765 0.0
H958 H 0.54015 0.48702 0.94454 0.0
H959 H 0.53509 0.52973 0.93431 0.0
S960 S 0.45153 0.50272 0.08139 0.0
N961 N 0.46968 0.48056 0.06195 0.0
N962 N 0.46405 0.52694 0.04991 0.0
C963 C 0.48408 0.51761 0.02138 0.0
C964 C 0.48719 0.49233 0.02795 0.0
C965 C 0.0228 0.49102 0.52689 0.0
C966 C 0.0083 0.47738 0.48345 0.0
C967 C 0.01958 0.51578 0.53364 0.0
C968 C 1.00171 0.52813 0.49726 0.0
H969 H 0.0366 0.48252 0.55679 0.0
H970 H 0.03132 0.5253 0.56787 0.0
S971 S 0.95958 0.50103 0.37403 0.0
N972 N 0.97571 0.47838 0.40153 0.0
N973 N 0.96974 0.52471 0.41454 0.0
C974 C 0.98713 0.51475 0.45335 0.0
C975 C 0.99044 0.48951 0.44628 0.0
C976 C 0.10833 0.1552 0.04819 0.0
C977 C 0.10008 0.13494 0.08337 0.0
C978 C 0.12472 0.17103 0.0776 0.0
C979 C 0.13333 0.16728 0.14348 0.0
H980 H 0.1013 0.15941 -0.00156 0.0
H981 H 0.12962 0.18703 0.0501 0.0
S982 S 0.11833 0.11663 0.25626 0.0
N983 N 0.10282 0.11141 0.1865 0.0
N984 N 0.13324 0.14161 0.24249 0.0
C985 C 0.12608 0.14666 0.17831 0.0
C986 C 0.10961 0.13029 0.14794 0.0
C987 C 0.10528 0.83286 0.38503 0.0
C988 C 0.12489 0.84191 0.34916 0.0
C989 C 0.08837 0.84795 0.41432 0.0
C990 C 0.08993 0.87296 0.40825 0.0
H991 H 0.10266 0.81375 0.38939 0.0
H992 H 0.07354 0.83969 0.44056 0.0
S993 S 0.13847 0.90582 0.32061 0.0
N994 N 0.14565 0.87742 0.31058 0.0
N995 N 0.11342 0.90617 0.36498 0.0
C996 C 0.10985 0.88241 0.37378 0.0
C997 C 0.12745 0.86681 0.34449 0.0
C998 C 0.40651 0.85558 0.69737 0.0
C999 C 0.38704 0.84652 0.66014 0.0
C1000 C 0.42224 0.87234 0.66921 0.0
C1001 C 0.41925 0.88042 0.60249 0.0
H1002 H 0.41021 0.84891 0.74784 0.0
H1003 H 0.43768 0.87787 0.69838 0.0
S1004 S 0.37073 0.86327 0.48449 0.0
N1005 N 0.36496 0.84799 0.55427 0.0
N1006 N 0.39505 0.87898 0.50052 0.0
C1007 C 0.39938 0.87233 0.56556 0.0
C1008 C 0.38306 0.85556 0.59471 0.0
C1009 C 0.43301 0.16227 0.86988 0.0
C1010 C 0.42454 0.14058 0.89594 0.0
C1011 C 0.41756 0.17917 0.84212 0.0
C1012 C 0.39272 0.17542 0.83969 0.0
H1013 H 0.4519 0.1664 0.87136 0.0
H1014 H 0.42535 0.19558 0.82339 0.0
S1015 S 0.36133 0.12114 0.90021 0.0
N1016 N 0.38977 0.11572 0.91645 0.0
N1017 N 0.36033 0.14786 0.86475 0.0
C1018 C 0.38387 0.15359 0.86475 0.0
C1019 C 0.39987 0.13605 0.89251 0.0
C1020 C 0.88315 0.85247 0.91125 0.0
C1021 C 0.88328 0.84901 0.84073 0.0
C1022 C 0.89889 0.8688 0.94186 0.0
C1023 C 0.91458 0.88277 0.90272 0.0
H1024 H 0.87219 0.84123 0.94327 0.0
H1025 H 0.89963 0.86965 -0.0033 0.0
S1026 S 0.92014 0.8819 0.71577 0.0
N1027 N 0.89949 0.86168 0.7324 0.0
N1028 N 0.92809 0.89321 0.78979 0.0
C1029 C 0.91357 0.88071 0.83196 0.0
C1030 C 0.89814 0.86358 0.80097 0.0
C1031 C 0.905 0.13391 0.62138 0.0
C1032 C 0.92315 0.14256 0.57824 0.0
C1033 C 0.88781 0.14948 0.64984 0.0
C1034 C 0.88842 0.17413 0.63628 0.0
H1035 H 0.90455 0.1152 0.63505 0.0
H1036 H 0.87481 0.1424 0.68513 0.0
S1037 S 0.9305 0.20562 0.52243 0.0
N1038 N 0.93889 0.17743 0.51915 0.0
N1039 N 0.9076 0.20622 0.57486 0.0
C1040 C 0.9058 0.18274 0.59152 0.0
C1041 C 0.92287 0.16709 0.56185 0.0
C1042 C 0.6325 0.15778 0.38673 0.0
C1043 C 0.62513 0.17038 0.32855 0.0
C1044 C 0.61749 0.14059 0.41717 0.0
C1045 C 0.59492 0.13527 0.38961 0.0
H1046 H 0.64926 0.1622 0.41106 0.0
H1047 H 0.62303 0.13235 0.46428 0.0
S1048 S 0.56829 0.16133 0.23472 0.0
N1049 N 0.59444 0.17465 0.24188 0.0
N1050 N 0.56659 0.14281 0.29955 0.0
C1051 C 0.58801 0.14679 0.32984 0.0
C1052 C 0.60306 0.16418 0.29906 0.0
C1053 C 0.59435 0.87382 0.171 0.0
C1054 C 0.59675 0.88147 0.10366 0.0
C1055 C 0.61063 0.85762 0.19938 0.0
C1056 C 0.63004 0.84868 0.1617 0.0
H1057 H 0.57897 0.87924 0.20058 0.0
H1058 H 0.6074 0.85125 0.25042 0.0
S1059 S 0.64472 0.86418 0.984 0.0
N1060 N 0.62025 0.87962 0.00045 0.0
N1061 N 0.6513 0.84965 0.05446 0.0
C1062 C 0.63339 0.85726 0.09549 0.0
C1063 C 0.61654 0.87348 0.0662 0.0
C1064 C 0.58568 0.6681 0.59605 0.0
C1065 C 0.59036 0.64349 0.59088 0.0
C1066 C 0.6021 0.6838 0.62501 0.0
C1067 C 0.62424 0.67582 0.64953 0.0
H1068 H 0.5689 0.67546 0.57849 0.0
H1069 H 0.5973 0.7025 0.62837 0.0
S1070 S 0.64595 0.61333 0.64688 0.0
N1071 N 0.61914 0.61183 0.61209 0.0
N1072 N 0.65041 0.64173 0.66588 0.0
C1073 C 0.62962 0.65138 0.6436 0.0
C1074 C 0.61256 0.63513 0.61471 0.0
C1075 C 0.5942 0.3755 0.82143 0.0
C1076 C 0.59744 0.38364 0.88804 0.0
C1077 C 0.60993 0.35887 0.79265 0.0
C1078 C 0.6296 0.34994 0.82923 0.0
H1079 H 0.57853 0.38081 0.79297 0.0
H1080 H 0.60603 0.35212 0.74238 0.0
S1081 S 0.64665 0.36694 0.00419 0.0
N1082 N 0.62214 0.38248 0.98904 0.0
N1083 N 0.65221 0.35167 0.93421 0.0
C1084 C 0.63388 0.3591 0.89441 0.0
C1085 C 0.61758 0.37579 0.92414 0.0
C1086 C 0.89939 0.36145 0.18859 0.0
C1087 C 0.88403 0.34758 0.14803 0.0
C1088 C 0.91604 0.37716 0.15939 0.0
C1089 C 0.91832 0.37891 0.08868 0.0
H1090 H 0.89923 0.35935 0.24318 0.0
H1091 H 0.92831 0.38666 0.19219 0.0
S1092 S 0.88198 0.34694 0.96046 0.0
N1093 N 0.87137 0.33755 0.03392 0.0
N1094 N 0.90337 0.36618 0.9789 0.0
C1095 C 0.90252 0.36577 0.04773 0.0
C1096 C 0.88515 0.35033 0.07746 0.0
C1097 C 0.92132 0.64057 0.32696 0.0
C1098 C 0.91785 0.63203 0.39304 0.0
C1099 C 0.90621 0.65803 0.29945 0.0
C1100 C 0.88691 0.66742 0.33672 0.0
H1101 H 0.93667 0.63478 0.29784 0.0
H1102 H 0.91025 0.66494 0.24945 0.0
S1103 S 0.86971 0.6501 0.5112 0.0
N1104 N 0.89349 0.63363 0.49467 0.0
N1105 N 0.86459 0.666 0.44215 0.0
C1106 C 0.88249 0.65807 0.40156 0.0
C1107 C 0.89816 0.64053 0.43004 0.0
C1108 C 0.38751 0.35201 0.41053 0.0
C1109 C 0.38254 0.35232 0.34086 0.0
C1110 C 0.405 0.36706 0.43833 0.0
C1111 C 0.41751 0.38351 0.39774 0.0
H1112 H 0.37909 0.33888 0.44277 0.0
H1113 H 0.4095 0.3651 0.49147 0.0
S1114 S 0.40852 0.39354 0.21397 0.0
N1115 N 0.39001 0.37155 0.23273 0.0
N1116 N 0.42188 0.4009 0.28573 0.0
C1117 C 0.41118 0.38543 0.32912 0.0
C1118 C 0.39393 0.36953 0.30043 0.0
C1119 C 0.40639 0.65997 0.19193 0.0
C1120 C 0.38552 0.66776 0.15879 0.0
C1121 C 0.42169 0.64318 0.16214 0.0
C1122 C 0.41676 0.6336 0.09798 0.0
H1123 H 0.41148 0.66762 0.24029 0.0
H1124 H 0.43818 0.63866 0.18788 0.0
S1125 S 0.36422 0.64719 0.99072 0.0
N1126 N 0.36024 0.66367 0.05932 0.0
N1127 N 0.38938 0.63237 0.00273 0.0
C1128 C 0.39555 0.6404 0.06529 0.0
C1129 C 0.37976 0.65736 0.096 0.0
C1130 C 0.08295 0.65872 0.86048 0.0
C1131 C 0.09104 0.63747 0.89024 0.0
C1132 C 0.09881 0.67524 0.83278 0.0
C1133 C 0.1237 0.67159 0.83429 0.0
H1134 H 0.06404 0.66279 0.85913 0.0
H1135 H 0.09131 0.69135 0.81116 0.0
S1136 S 0.15416 0.61838 0.90545 0.0
N1137 N 0.12548 0.61308 0.91835 0.0
N1138 N 0.15568 0.64456 0.86701 0.0
C1139 C 0.13215 0.65017 0.863 0.0
C1140 C 0.11574 0.63299 0.89059 0.0
C1141 C 0.11257 0.36436 0.55293 0.0
C1142 C 0.0965 0.37762 0.59289 0.0
C1143 C 0.12878 0.34826 0.58257 0.0
C1144 C 0.12879 0.34432 0.6529 0.0
H1145 H 0.11189 0.3657 0.49817 0.0
H1146 H 0.14014 0.33764 0.5499 0.0
S1147 S 0.09086 0.37515 0.77971 0.0
N1148 N 0.08258 0.38673 0.70636 0.0
N1149 N 0.11212 0.35568 0.76192 0.0
C1150 C 0.11338 0.35806 0.69346 0.0
C1151 C 0.09745 0.37494 0.66348 0.0
loop_
_geom_bond_atom_site_label_1
_geom_bond_atom_site_label_2
_geom_bond_distance
_geom_bond_site_symmetry_2
_ccdc_geom_bond_type
Co0 O1 2.216 . S
Co0 O2 2.091 . S
Co0 O4 2.004 . S
Co0 O10 2.021 . S
Co0 O12 2.137 1_554 S
Co0 O13 2.238 1_454 S
O1 Co0 2.216 . S
O1 C8 1.247 . S
O2 Co0 2.091 . S
O2 C8 1.261 . S
C3 O12 1.247 . S
C3 O13 1.282 1_455 S
O4 Co0 2.004 . S
O4 C9 1.259 . S
Co5 O6 2.061 . S
Co5 O11 2.052 . S
Co5 O13 2.129 1_554 S
O6 Co5 2.061 . S
O6 C9 1.235 1_655 S
C7 O10 1.238 1_655 S
C7 O11 1.241 . S
C8 O1 1.247 . S
C8 O2 1.261 . S
C9 O4 1.259 . S
C9 O6 1.235 1_455 S
O10 Co0 2.021 . S
O10 C7 1.238 1_455 S
O11 Co5 2.052 . S
O11 C7 1.241 . S
O12 Co0 2.137 1_556 S
O12 C3 1.247 . S
O13 Co0 2.238 1_656 S
O13 C3 1.282 1_655 S
O13 Co5 2.129 1_556 S
Co14 O15 2.216 . S
Co14 O16 2.091 . S
Co14 O18 2.004 . S
Co14 O24 2.021 . S
Co14 O26 2.137 . S
Co14 O27 2.244 . S
O15 Co14 2.216 . S
O15 C22 1.247 . S
O16 Co14 2.091 . S
O16 C22 1.261 . S
C17 O26 1.247 . S
C17 O27 1.272 . S
O18 Co14 2.004 . S
O18 C23 1.259 . S
Co19 O20 2.061 . S
Co19 O25 2.052 . S
Co19 O27 2.135 . S
O20 Co19 2.061 . S
O20 C23 1.235 . S
C21 O24 1.238 . S
C21 O25 1.241 . S
C22 O15 1.247 . S
C22 O16 1.261 . S
C23 O18 1.259 . S
C23 O20 1.235 . S
O24 Co14 2.021 . S
O24 C21 1.238 . S
O25 Co19 2.052 . S
O25 C21 1.241 . S
O26 Co14 2.137 . S
O26 C17 1.247 . S
O27 Co14 2.244 . S
O27 C17 1.272 . S
O27 Co19 2.135 . S
Co28 O29 2.216 . S
Co28 O30 2.091 . S
Co28 O32 2.004 . S
Co28 O38 2.021 . S
Co28 O40 2.137 . S
Co28 O41 2.244 . S
O29 Co28 2.216 . S
O29 C36 1.247 . S
O30 Co28 2.091 . S
O30 C36 1.261 . S
C31 O40 1.247 . S
C31 O41 1.272 . S
O32 Co28 2.004 . S
O32 C37 1.259 . S
Co33 O34 2.061 . S
Co33 O39 2.052 . S
Co33 O41 2.135 . S
O34 Co33 2.061 . S
O34 C37 1.235 . S
C35 O38 1.238 . S
C35 O39 1.241 . S
C36 O29 1.247 . S
C36 O30 1.261 . S
C37 O32 1.259 . S
C37 O34 1.235 . S
O38 Co28 2.021 . S
O38 C35 1.238 . S
O39 Co33 2.052 . S
O39 C35 1.241 . S
O40 Co28 2.137 . S
O40 C31 1.247 . S
O41 Co28 2.244 . S
O41 C31 1.272 . S
O41 Co33 2.135 . S
Co42 O43 2.216 . S
Co42 O44 2.091 . S
Co42 O46 2.004 . S
Co42 O52 2.021 . S
Co42 O54 2.137 . S
Co42 O55 2.244 . S
O43 Co42 2.216 . S
O43 C50 1.247 . S
O44 Co42 2.091 . S
O44 C50 1.261 . S
C45 O54 1.247 . S
C45 O55 1.272 . S
O46 Co42 2.004 . S
O46 C51 1.259 . S
Co47 O48 2.061 . S
Co47 O53 2.052 . S
Co47 O55 2.135 . S
O48 Co47 2.061 . S
O48 C51 1.235 . S
C49 O52 1.238 . S
C49 O53 1.241 . S
C50 O43 1.247 . S
C50 O44 1.261 . S
C51 O46 1.259 . S
C51 O48 1.235 . S
O52 Co42 2.021 . S
O52 C49 1.238 . S
O53 Co47 2.052 . S
O53 C49 1.241 . S
O54 Co42 2.137 . S
O54 C45 1.247 . S
O55 Co42 2.244 . S
O55 C45 1.272 . S
O55 Co47 2.135 . S
Co56 O57 2.216 . S
Co56 O58 2.091 . S
Co56 O60 2.004 . S
Co56 O66 2.021 . S
Co56 O68 2.137 . S
Co56 O69 2.244 1_455 S
O57 Co56 2.216 . S
O57 C64 1.247 . S
O58 Co56 2.091 . S
O58 C64 1.261 . S
C59 O68 1.247 . S
C59 O69 1.272 1_455 S
O60 Co56 2.004 . S
O60 C65 1.259 . S
Co61 O62 2.061 . S
Co61 O67 2.052 . S
Co61 O69 2.135 . S
O62 Co61 2.061 . S
O62 C65 1.235 1_655 S
C63 O66 1.238 1_655 S
C63 O67 1.241 . S
C64 O57 1.247 . S
C64 O58 1.261 . S
C65 O60 1.259 . S
C65 O62 1.235 1_455 S
O66 Co56 2.021 . S
O66 C63 1.238 1_455 S
O67 Co61 2.052 . S
O67 C63 1.241 . S
O68 Co56 2.137 . S
O68 C59 1.247 . S
O69 Co56 2.244 1_655 S
O69 C59 1.272 1_655 S
O69 Co61 2.135 . S
Co70 O71 2.216 . S
Co70 O72 2.091 . S
Co70 O74 2.004 . S
Co70 O80 2.021 . S
Co70 O82 2.137 . S
Co70 O83 2.244 . S
O71 Co70 2.216 . S
O71 C78 1.247 . S
O72 Co70 2.091 . S
O72 C78 1.261 . S
C73 O82 1.247 . S
C73 O83 1.272 . S
O74 Co70 2.004 . S
O74 C79 1.259 . S
Co75 O76 2.061 . S
Co75 O81 2.052 . S
Co75 O83 2.135 . S
O76 Co75 2.061 . S
O76 C79 1.235 . S
C77 O80 1.238 . S
C77 O81 1.241 . S
C78 O71 1.247 . S
C78 O72 1.261 . S
C79 O74 1.259 . S
C79 O76 1.235 . S
O80 Co70 2.021 . S
O80 C77 1.238 . S
O81 Co75 2.052 . S
O81 C77 1.241 . S
O82 Co70 2.137 . S
O82 C73 1.247 . S
O83 Co70 2.244 . S
O83 C73 1.272 . S
O83 Co75 2.135 . S
Co84 O85 2.216 . S
Co84 O86 2.091 . S
Co84 O88 2.004 . S
Co84 O94 2.021 . S
Co84 O96 2.137 1_556 S
Co84 O97 2.239 1_556 S
O85 Co84 2.216 . S
O85 C92 1.247 . S
O86 Co84 2.091 . S
O86 C92 1.261 . S
C87 O96 1.247 . S
C87 O97 1.281 . S
O88 Co84 2.004 . S
O88 C93 1.259 . S
Co89 O90 2.061 . S
Co89 O95 2.052 . S
Co89 O97 2.130 1_556 S
O90 Co89 2.061 . S
O90 C93 1.235 . S
C91 O94 1.238 . S
C91 O95 1.241 . S
C92 O85 1.247 . S
C92 O86 1.261 . S
C93 O88 1.259 . S
C93 O90 1.235 . S
O94 Co84 2.021 . S
O94 C91 1.238 . S
O95 Co89 2.052 . S
O95 C91 1.241 . S
O96 Co84 2.137 1_554 S
O96 C87 1.247 . S
O97 Co84 2.239 1_554 S
O97 C87 1.281 . S
O97 Co89 2.130 1_554 S
Co98 O99 2.216 . S
Co98 O100 2.091 . S
Co98 O102 2.004 . S
Co98 O108 2.021 . S
Co98 O110 2.137 . S
Co98 O111 2.244 . S
O99 Co98 2.216 . S
O99 C106 1.247 . S
O100 Co98 2.091 . S
O100 C106 1.261 . S
C101 O110 1.247 . S
C101 O111 1.272 . S
O102 Co98 2.004 . S
O102 C107 1.259 . S
Co103 O104 2.061 . S
Co103 O109 2.052 . S
Co103 O111 2.135 . S
O104 Co103 2.061 . S
O104 C107 1.235 . S
C105 O108 1.238 . S
C105 O109 1.241 . S
C106 O99 1.247 . S
C106 O100 1.261 . S
C107 O102 1.259 . S
C107 O104 1.235 . S
O108 Co98 2.021 . S
O108 C105 1.238 . S
O109 Co103 2.052 . S
O109 C105 1.241 . S
O110 Co98 2.137 . S
O110 C101 1.247 . S
O111 Co98 2.244 . S
O111 C101 1.272 . S
O111 Co103 2.135 . S
Co112 O113 2.216 . S
Co112 O114 2.091 . S
Co112 O116 2.004 . S
Co112 O122 2.021 . S
Co112 O124 2.137 1_556 S
Co112 O125 2.238 1_656 S
O113 Co112 2.216 . S
O113 C120 1.247 . S
O114 Co112 2.091 . S
O114 C120 1.261 . S
C115 O124 1.247 . S
C115 O125 1.282 1_655 S
O116 Co112 2.004 . S
O116 C121 1.259 . S
Co117 O118 2.061 . S
Co117 O123 2.052 . S
Co117 O125 2.129 1_556 S
O118 Co117 2.061 . S
O118 C121 1.235 1_455 S
C119 O122 1.238 1_455 S
C119 O123 1.241 . S
C120 O113 1.247 . S
C120 O114 1.261 . S
C121 O116 1.259 . S
C121 O118 1.235 1_655 S
O122 Co112 2.021 . S
O122 C119 1.238 1_655 S
O123 Co117 2.052 . S
O123 C119 1.241 . S
O124 Co112 2.137 1_554 S
O124 C115 1.247 . S
O125 Co112 2.238 1_454 S
O125 C115 1.282 1_455 S
O125 Co117 2.129 1_554 S
Co126 O127 2.216 . S
Co126 O128 2.091 . S
Co126 O130 2.004 . S
Co126 O136 2.021 . S
Co126 O138 2.137 . S
Co126 O139 2.244 . S
O127 Co126 2.216 . S
O127 C134 1.247 . S
O128 Co126 2.091 . S
O128 C134 1.261 . S
C129 O138 1.247 . S
C129 O139 1.272 . S
O130 Co126 2.004 . S
O130 C135 1.259 . S
Co131 O132 2.061 . S
Co131 O137 2.052 . S
Co131 O139 2.135 . S
O132 Co131 2.061 . S
O132 C135 1.235 . S
C133 O136 1.238 . S
C133 O137 1.241 . S
C134 O127 1.247 . S
C134 O128 1.261 . S
C135 O130 1.259 . S
C135 O132 1.235 . S
O136 Co126 2.021 . S
O136 C133 1.238 . S
O137 Co131 2.052 . S
O137 C133 1.241 . S
O138 Co126 2.137 . S
O138 C129 1.247 . S
O139 Co126 2.244 . S
O139 C129 1.272 . S
O139 Co131 2.135 . S
Co140 O141 2.216 . S
Co140 O142 2.091 . S
Co140 O144 2.004 . S
Co140 O150 2.021 . S
Co140 O152 2.137 . S
Co140 O153 2.244 . S
O141 Co140 2.216 . S
O141 C148 1.247 . S
O142 Co140 2.091 . S
O142 C148 1.261 . S
C143 O152 1.247 . S
C143 O153 1.272 . S
O144 Co140 2.004 . S
O144 C149 1.259 . S
Co145 O146 2.061 . S
Co145 O151 2.052 . S
Co145 O153 2.135 . S
O146 Co145 2.061 . S
O146 C149 1.235 . S
C147 O150 1.238 . S
C147 O151 1.241 . S
C148 O141 1.247 . S
C148 O142 1.261 . S
C149 O144 1.259 . S
C149 O146 1.235 . S
O150 Co140 2.021 . S
O150 C147 1.238 . S
O151 Co145 2.052 . S
O151 C147 1.241 . S
O152 Co140 2.137 . S
O152 C143 1.247 . S
O153 Co140 2.244 . S
O153 C143 1.272 . S
O153 Co145 2.135 . S
Co154 O155 2.216 . S
Co154 O156 2.091 . S
Co154 O158 2.004 . S
Co154 O164 2.021 . S
Co154 O166 2.137 . S
Co154 O167 2.244 . S
O155 Co154 2.216 . S
O155 C162 1.247 . S
O156 Co154 2.091 . S
O156 C162 1.261 . S
C157 O166 1.247 . S
C157 O167 1.272 . S
O158 Co154 2.004 . S
O158 C163 1.259 . S
Co159 O160 2.061 . S
Co159 O165 2.052 . S
Co159 O167 2.135 . S
O160 Co159 2.061 . S
O160 C163 1.235 . S
C161 O164 1.238 . S
C161 O165 1.241 . S
C162 O155 1.247 . S
C162 O156 1.261 . S
C163 O158 1.259 . S
C163 O160 1.235 . S
O164 Co154 2.021 . S
O164 C161 1.238 . S
O165 Co159 2.052 . S
O165 C161 1.241 . S
O166 Co154 2.137 . S
O166 C157 1.247 . S
O167 Co154 2.244 . S
O167 C157 1.272 . S
O167 Co159 2.135 . S
Co168 O169 2.216 . S
Co168 O170 2.091 . S
Co168 O172 2.004 . S
Co168 O178 2.021 . S
Co168 O180 2.137 . S
Co168 O181 2.244 1_655 S
O169 Co168 2.216 . S
O169 C176 1.247 . S
O170 Co168 2.091 . S
O170 C176 1.261 . S
C171 O180 1.247 . S
C171 O181 1.272 1_655 S
O172 Co168 2.004 . S
O172 C177 1.259 . S
Co173 O174 2.061 . S
Co173 O179 2.052 . S
Co173 O181 2.135 . S
O174 Co173 2.061 . S
O174 C177 1.235 1_455 S
C175 O178 1.238 1_455 S
C175 O179 1.241 . S
C176 O169 1.247 . S
C176 O170 1.261 . S
C177 O172 1.259 . S
C177 O174 1.235 1_655 S
O178 Co168 2.021 . S
O178 C175 1.238 1_655 S
O179 Co173 2.052 . S
O179 C175 1.241 . S
O180 Co168 2.137 . S
O180 C171 1.247 . S
O181 Co168 2.244 1_455 S
O181 C171 1.272 1_455 S
O181 Co173 2.135 . S
Co182 O183 2.216 . S
Co182 O184 2.091 . S
Co182 O186 2.004 . S
Co182 O192 2.021 . S
Co182 O194 2.137 . S
Co182 O195 2.244 . S
O183 Co182 2.216 . S
O183 C190 1.247 . S
O184 Co182 2.091 . S
O184 C190 1.261 . S
C185 O194 1.247 . S
C185 O195 1.272 . S
O186 Co182 2.004 . S
O186 C191 1.259 . S
Co187 O188 2.061 . S
Co187 O193 2.052 . S
Co187 O195 2.135 . S
O188 Co187 2.061 . S
O188 C191 1.235 . S
C189 O192 1.238 . S
C189 O193 1.241 . S
C190 O183 1.247 . S
C190 O184 1.261 . S
C191 O186 1.259 . S
C191 O188 1.235 . S
O192 Co182 2.021 . S
O192 C189 1.238 . S
O193 Co187 2.052 . S
O193 C189 1.241 . S
O194 Co182 2.137 . S
O194 C185 1.247 . S
O195 Co182 2.244 . S
O195 C185 1.272 . S
O195 Co187 2.135 . S
Co196 O197 2.216 . S
Co196 O198 2.091 . S
Co196 O200 2.004 . S
Co196 O206 2.021 . S
Co196 O208 2.137 1_554 S
Co196 O209 2.239 1_554 S
O197 Co196 2.216 . S
O197 C204 1.247 . S
O198 Co196 2.091 . S
O198 C204 1.261 . S
C199 O208 1.247 . S
C199 O209 1.281 . S
O200 Co196 2.004 . S
O200 C205 1.259 . S
Co201 O202 2.061 . S
Co201 O207 2.052 . S
Co201 O209 2.130 1_554 S
O202 Co201 2.061 . S
O202 C205 1.235 . S
C203 O206 1.238 . S
C203 O207 1.241 . S
C204 O197 1.247 . S
C204 O198 1.261 . S
C205 O200 1.259 . S
C205 O202 1.235 . S
O206 Co196 2.021 . S
O206 C203 1.238 . S
O207 Co201 2.052 . S
O207 C203 1.241 . S
O208 Co196 2.137 1_556 S
O208 C199 1.247 . S
O209 Co196 2.239 1_556 S
O209 C199 1.281 . S
O209 Co201 2.130 1_556 S
Co210 O211 2.216 . S
Co210 O212 2.091 . S
Co210 O214 2.004 . S
Co210 O220 2.021 . S
Co210 O222 2.137 . S
Co210 O223 2.244 . S
O211 Co210 2.216 . S
O211 C218 1.247 . S
O212 Co210 2.091 . S
O212 C218 1.261 . S
C213 O222 1.247 . S
C213 O223 1.272 . S
O214 Co210 2.004 . S
O214 C219 1.259 . S
Co215 O216 2.061 . S
Co215 O221 2.052 . S
Co215 O223 2.135 . S
O216 Co215 2.061 . S
O216 C219 1.235 . S
C217 O220 1.238 . S
C217 O221 1.241 . S
C218 O211 1.247 . S
C218 O212 1.261 . S
C219 O214 1.259 . S
C219 O216 1.235 . S
O220 Co210 2.021 . S
O220 C217 1.238 . S
O221 Co215 2.052 . S
O221 C217 1.241 . S
O222 Co210 2.137 . S
O222 C213 1.247 . S
O223 Co210 2.244 . S
O223 C213 1.272 . S
O223 Co215 2.135 . S
Co224 O225 2.216 . S
Co224 O226 2.091 . S
Co224 O228 2.004 . S
Co224 O234 2.021 . S
Co224 O236 2.137 . S
Co224 O237 2.244 . S
O225 Co224 2.216 . S
O225 C232 1.247 . S
O226 Co224 2.091 . S
O226 C232 1.261 . S
C227 O236 1.247 . S
C227 O237 1.272 . S
O228 Co224 2.004 . S
O228 C233 1.259 . S
Co229 O230 2.061 . S
Co229 O235 2.052 . S
Co229 O237 2.135 . S
O230 Co229 2.061 . S
O230 C233 1.235 . S
C231 O234 1.238 . S
C231 O235 1.241 . S
C232 O225 1.247 . S
C232 O226 1.261 . S
C233 O228 1.259 . S
C233 O230 1.235 . S
O234 Co224 2.021 . S
O234 C231 1.238 . S
O235 Co229 2.052 . S
O235 C231 1.241 . S
O236 Co224 2.137 . S
O236 C227 1.247 . S
O237 Co224 2.244 . S
O237 C227 1.272 . S
O237 Co229 2.135 . S
Co238 O239 2.216 . S
Co238 O240 2.091 . S
Co238 O242 2.004 . S
Co238 O248 2.021 . S
Co238 O250 2.137 . S
Co238 O251 2.244 . S
O239 Co238 2.216 . S
O239 C246 1.247 . S
O240 Co238 2.091 . S
O240 C246 1.261 . S
C241 O250 1.247 . S
C241 O251 1.272 . S
O242 Co238 2.004 . S
O242 C247 1.259 . S
Co243 O244 2.061 . S
Co243 O249 2.052 . S
Co243 O251 2.135 . S
O244 Co243 2.061 . S
O244 C247 1.235 . S
C245 O248 1.238 . S
C245 O249 1.241 . S
C246 O239 1.247 . S
C246 O240 1.261 . S
C247 O242 1.259 . S
C247 O244 1.235 . S
O248 Co238 2.021 . S
O248 C245 1.238 . S
O249 Co243 2.052 . S
O249 C245 1.241 . S
O250 Co238 2.137 . S
O250 C241 1.247 . S
O251 Co238 2.244 . S
O251 C241 1.272 . S
O251 Co243 2.135 . S
Co252 O253 2.216 . S
Co252 O254 2.091 . S
Co252 O256 2.004 . S
Co252 O262 2.021 . S
Co252 O264 2.137 1_554 S
Co252 O265 2.238 1_654 S
O253 Co252 2.216 . S
O253 C260 1.247 . S
O254 Co252 2.091 . S
O254 C260 1.261 . S
C255 O264 1.247 . S
C255 O265 1.282 1_655 S
O256 Co252 2.004 . S
O256 C261 1.259 . S
Co257 O258 2.061 . S
Co257 O263 2.052 . S
Co257 O265 2.129 1_554 S
O258 Co257 2.061 . S
O258 C261 1.235 1_455 S
C259 O262 1.238 1_455 S
C259 O263 1.241 . S
C260 O253 1.247 . S
C260 O254 1.261 . S
C261 O256 1.259 . S
C261 O258 1.235 1_655 S
O262 Co252 2.021 . S
O262 C259 1.238 1_655 S
O263 Co257 2.052 . S
O263 C259 1.241 . S
O264 Co252 2.137 1_556 S
O264 C255 1.247 . S
O265 Co252 2.238 1_456 S
O265 C255 1.282 1_455 S
O265 Co257 2.129 1_556 S
Co266 O267 2.216 . S
Co266 O268 2.091 . S
Co266 O270 2.004 . S
Co266 O276 2.021 . S
Co266 O278 2.137 . S
Co266 O279 2.244 . S
O267 Co266 2.216 . S
O267 C274 1.247 . S
O268 Co266 2.091 . S
O268 C274 1.261 . S
C269 O278 1.247 . S
C269 O279 1.272 . S
O270 Co266 2.004 . S
O270 C275 1.259 . S
Co271 O272 2.061 . S
Co271 O277 2.052 . S
Co271 O279 2.135 . S
O272 Co271 2.061 . S
O272 C275 1.235 . S
C273 O276 1.238 . S
C273 O277 1.241 . S
C274 O267 1.247 . S
C274 O268 1.261 . S
C275 O270 1.259 . S
C275 O272 1.235 . S
O276 Co266 2.021 . S
O276 C273 1.238 . S
O277 Co271 2.052 . S
O277 C273 1.241 . S
O278 Co266 2.137 . S
O278 C269 1.247 . S
O279 Co266 2.244 . S
O279 C269 1.272 . S
O279 Co271 2.135 . S
Co280 O281 2.216 . S
Co280 O282 2.091 . S
Co280 O284 2.004 . S
Co280 O290 2.021 . S
Co280 O292 2.137 1_556 S
Co280 O293 2.239 1_556 S
O281 Co280 2.216 . S
O281 C288 1.247 . S
O282 Co280 2.091 . S
O282 C288 1.261 . S
C283 O292 1.247 . S
C283 O293 1.281 . S
O284 Co280 2.004 . S
O284 C289 1.259 . S
Co285 O286 2.061 . S
Co285 O291 2.052 . S
Co285 O293 2.130 1_556 S
O286 Co285 2.061 . S
O286 C289 1.235 . S
C287 O290 1.238 . S
C287 O291 1.241 . S
C288 O281 1.247 . S
C288 O282 1.261 . S
C289 O284 1.259 . S
C289 O286 1.235 . S
O290 Co280 2.021 . S
O290 C287 1.238 . S
O291 Co285 2.052 . S
O291 C287 1.241 . S
O292 Co280 2.137 1_554 S
O292 C283 1.247 . S
O293 Co280 2.239 1_554 S
O293 C283 1.281 . S
O293 Co285 2.130 1_554 S
Co294 O295 2.216 . S
Co294 O296 2.091 . S
Co294 O298 2.004 . S
Co294 O304 2.021 . S
Co294 O306 2.137 . S
Co294 O307 2.244 . S
O295 Co294 2.216 . S
O295 C302 1.247 . S
O296 Co294 2.091 . S
O296 C302 1.261 . S
C297 O306 1.247 . S
C297 O307 1.272 . S
O298 Co294 2.004 . S
O298 C303 1.259 . S
Co299 O300 2.061 . S
Co299 O305 2.052 . S
Co299 O307 2.135 . S
O300 Co299 2.061 . S
O300 C303 1.235 . S
C301 O304 1.238 . S
C301 O305 1.241 . S
C302 O295 1.247 . S
C302 O296 1.261 . S
C303 O298 1.259 . S
C303 O300 1.235 . S
O304 Co294 2.021 . S
O304 C301 1.238 . S
O305 Co299 2.052 . S
O305 C301 1.241 . S
O306 Co294 2.137 . S
O306 C297 1.247 . S
O307 Co294 2.244 . S
O307 C297 1.272 . S
O307 Co299 2.135 . S
Co308 O309 2.216 . S
Co308 O310 2.091 . S
Co308 O312 2.004 . S
Co308 O318 2.021 . S
Co308 O320 2.137 . S
Co308 O321 2.244 1_655 S
O309 Co308 2.216 . S
O309 C316 1.247 . S
O310 Co308 2.091 . S
O310 C316 1.261 . S
C311 O320 1.247 . S
C311 O321 1.272 1_655 S
O312 Co308 2.004 . S
O312 C317 1.259 . S
Co313 O314 2.061 . S
Co313 O319 2.052 . S
Co313 O321 2.135 . S
O314 Co313 2.061 . S
O314 C317 1.235 1_455 S
C315 O318 1.238 1_455 S
C315 O319 1.241 . S
C316 O309 1.247 . S
C316 O310 1.261 . S
C317 O312 1.259 . S
C317 O314 1.235 1_655 S
O318 Co308 2.021 . S
O318 C315 1.238 1_655 S
O319 Co313 2.052 . S
O319 C315 1.241 . S
O320 Co308 2.137 . S
O320 C311 1.247 . S
O321 Co308 2.244 1_455 S
O321 C311 1.272 1_455 S
O321 Co313 2.135 . S
Co322 O323 2.216 . S
Co322 O324 2.091 . S
Co322 O326 2.004 . S
Co322 O332 2.021 . S
Co322 O334 2.137 . S
Co322 O335 2.244 . S
O323 Co322 2.216 . S
O323 C330 1.247 . S
O324 Co322 2.091 . S
O324 C330 1.261 . S
C325 O334 1.247 . S
C325 O335 1.272 . S
O326 Co322 2.004 . S
O326 C331 1.259 . S
Co327 O328 2.061 . S
Co327 O333 2.052 . S
Co327 O335 2.135 . S
O328 Co327 2.061 . S
O328 C331 1.235 . S
C329 O332 1.238 . S
C329 O333 1.241 . S
C330 O323 1.247 . S
C330 O324 1.261 . S
C331 O326 1.259 . S
C331 O328 1.235 . S
O332 Co322 2.021 . S
O332 C329 1.238 . S
O333 Co327 2.052 . S
O333 C329 1.241 . S
O334 Co322 2.137 . S
O334 C325 1.247 . S
O335 Co322 2.244 . S
O335 C325 1.272 . S
O335 Co327 2.135 . S
Co336 O337 2.216 . S
Co336 O338 2.091 . S
Co336 O340 2.004 . S
Co336 O346 2.021 . S
Co336 O348 2.137 . S
Co336 O349 2.244 . S
O337 Co336 2.216 . S
O337 C344 1.247 . S
O338 Co336 2.091 . S
O338 C344 1.261 . S
C339 O348 1.247 . S
C339 O349 1.272 . S
O340 Co336 2.004 . S
O340 C345 1.259 . S
Co341 O342 2.061 . S
Co341 O347 2.052 . S
Co341 O349 2.135 . S
O342 Co341 2.061 . S
O342 C345 1.235 . S
C343 O346 1.238 . S
C343 O347 1.241 . S
C344 O337 1.247 . S
C344 O338 1.261 . S
C345 O340 1.259 . S
C345 O342 1.235 . S
O346 Co336 2.021 . S
O346 C343 1.238 . S
O347 Co341 2.052 . S
O347 C343 1.241 . S
O348 Co336 2.137 . S
O348 C339 1.247 . S
O349 Co336 2.244 . S
O349 C339 1.272 . S
O349 Co341 2.135 . S
Co350 O351 2.216 . S
Co350 O352 2.091 . S
Co350 O354 2.004 . S
Co350 O360 2.021 . S
Co350 O362 2.137 . S
Co350 O363 2.244 . S
O351 Co350 2.216 . S
O351 C358 1.247 . S
O352 Co350 2.091 . S
O352 C358 1.261 . S
C353 O362 1.247 . S
C353 O363 1.272 . S
O354 Co350 2.004 . S
O354 C359 1.259 . S
Co355 O356 2.061 . S
Co355 O361 2.052 . S
Co355 O363 2.135 . S
O356 Co355 2.061 . S
O356 C359 1.235 . S
C357 O360 1.238 . S
C357 O361 1.241 . S
C358 O351 1.247 . S
C358 O352 1.261 . S
C359 O354 1.259 . S
C359 O356 1.235 . S
O360 Co350 2.021 . S
O360 C357 1.238 . S
O361 Co355 2.052 . S
O361 C357 1.241 . S
O362 Co350 2.137 . S
O362 C353 1.247 . S
O363 Co350 2.244 . S
O363 C353 1.272 . S
O363 Co355 2.135 . S
Co364 O365 2.216 . S
Co364 O366 2.091 . S
Co364 O368 2.004 . S
Co364 O374 2.021 . S
Co364 O376 2.137 1_556 S
Co364 O377 2.238 1_456 S
O365 Co364 2.216 . S
O365 C372 1.247 . S
O366 Co364 2.091 . S
O366 C372 1.261 . S
C367 O376 1.247 . S
C367 O377 1.282 1_455 S
O368 Co364 2.004 . S
O368 C373 1.259 . S
Co369 O370 2.061 . S
Co369 O375 2.052 . S
Co369 O377 2.129 1_556 S
O370 Co369 2.061 . S
O370 C373 1.235 1_655 S
C371 O374 1.238 1_655 S
C371 O375 1.241 . S
C372 O365 1.247 . S
C372 O366 1.261 . S
C373 O368 1.259 . S
C373 O370 1.235 1_455 S
O374 Co364 2.021 . S
O374 C371 1.238 1_455 S
O375 Co369 2.052 . S
O375 C371 1.241 . S
O376 Co364 2.137 1_554 S
O376 C367 1.247 . S
O377 Co364 2.238 1_654 S
O377 C367 1.282 1_655 S
O377 Co369 2.129 1_554 S
Co378 O379 2.216 . S
Co378 O380 2.091 . S
Co378 O382 2.004 . S
Co378 O388 2.021 . S
Co378 O390 2.137 . S
Co378 O391 2.244 . S
O379 Co378 2.216 . S
O379 C386 1.247 . S
O380 Co378 2.091 . S
O380 C386 1.261 . S
C381 O390 1.247 . S
C381 O391 1.272 . S
O382 Co378 2.004 . S
O382 C387 1.259 . S
Co383 O384 2.061 . S
Co383 O389 2.052 . S
Co383 O391 2.135 . S
O384 Co383 2.061 . S
O384 C387 1.235 . S
C385 O388 1.238 . S
C385 O389 1.241 . S
C386 O379 1.247 . S
C386 O380 1.261 . S
C387 O382 1.259 . S
C387 O384 1.235 . S
O388 Co378 2.021 . S
O388 C385 1.238 . S
O389 Co383 2.052 . S
O389 C385 1.241 . S
O390 Co378 2.137 . S
O390 C381 1.247 . S
O391 Co378 2.244 . S
O391 C381 1.272 . S
O391 Co383 2.135 . S
Co392 O393 2.216 . S
Co392 O394 2.091 . S
Co392 O396 2.004 . S
Co392 O402 2.021 . S
Co392 O404 2.137 1_554 S
Co392 O405 2.239 1_554 S
O393 Co392 2.216 . S
O393 C400 1.247 . S
O394 Co392 2.091 . S
O394 C400 1.261 . S
C395 O404 1.247 . S
C395 O405 1.281 . S
O396 Co392 2.004 . S
O396 C401 1.259 . S
Co397 O398 2.061 . S
Co397 O403 2.052 . S
Co397 O405 2.130 1_554 S
O398 Co397 2.061 . S
O398 C401 1.235 . S
C399 O402 1.238 . S
C399 O403 1.241 . S
C400 O393 1.247 . S
C400 O394 1.261 . S
C401 O396 1.259 . S
C401 O398 1.235 . S
O402 Co392 2.021 . S
O402 C399 1.238 . S
O403 Co397 2.052 . S
O403 C399 1.241 . S
O404 Co392 2.137 1_556 S
O404 C395 1.247 . S
O405 Co392 2.239 1_556 S
O405 C395 1.281 . S
O405 Co397 2.130 1_556 S
Co406 O407 2.216 . S
Co406 O408 2.091 . S
Co406 O410 2.004 . S
Co406 O416 2.021 . S
Co406 O418 2.137 . S
Co406 O419 2.244 . S
O407 Co406 2.216 . S
O407 C414 1.247 . S
O408 Co406 2.091 . S
O408 C414 1.261 . S
C409 O418 1.247 . S
C409 O419 1.272 . S
O410 Co406 2.004 . S
O410 C415 1.259 . S
Co411 O412 2.061 . S
Co411 O417 2.052 . S
Co411 O419 2.135 . S
O412 Co411 2.061 . S
O412 C415 1.235 . S
C413 O416 1.238 . S
C413 O417 1.241 . S
C414 O407 1.247 . S
C414 O408 1.261 . S
C415 O410 1.259 . S
C415 O412 1.235 . S
O416 Co406 2.021 . S
O416 C413 1.238 . S
O417 Co411 2.052 . S
O417 C413 1.241 . S
O418 Co406 2.137 . S
O418 C409 1.247 . S
O419 Co406 2.244 . S
O419 C409 1.272 . S
O419 Co411 2.135 . S
Co420 O421 2.216 . S
Co420 O422 2.091 . S
Co420 O424 2.004 . S
Co420 O430 2.021 . S
Co420 O432 2.137 . S
Co420 O433 2.244 1_455 S
O421 Co420 2.216 . S
O421 C428 1.247 . S
O422 Co420 2.091 . S
O422 C428 1.261 . S
C423 O432 1.247 . S
C423 O433 1.272 1_455 S
O424 Co420 2.004 . S
O424 C429 1.259 . S
Co425 O426 2.061 . S
Co425 O431 2.052 . S
Co425 O433 2.135 . S
O426 Co425 2.061 . S
O426 C429 1.235 1_655 S
C427 O430 1.238 1_655 S
C427 O431 1.241 . S
C428 O421 1.247 . S
C428 O422 1.261 . S
C429 O424 1.259 . S
C429 O426 1.235 1_455 S
O430 Co420 2.021 . S
O430 C427 1.238 1_455 S
O431 Co425 2.052 . S
O431 C427 1.241 . S
O432 Co420 2.137 . S
O432 C423 1.247 . S
O433 Co420 2.244 1_655 S
O433 C423 1.272 1_655 S
O433 Co425 2.135 . S
Co434 O435 2.216 . S
Co434 O436 2.091 . S
Co434 O438 2.004 . S
Co434 O444 2.021 . S
Co434 O446 2.137 . S
Co434 O447 2.244 . S
O435 Co434 2.216 . S
O435 C442 1.247 . S
O436 Co434 2.091 . S
O436 C442 1.261 . S
C437 O446 1.247 . S
C437 O447 1.272 . S
O438 Co434 2.004 . S
O438 C443 1.259 . S
Co439 O440 2.061 . S
Co439 O445 2.052 . S
Co439 O447 2.135 . S
O440 Co439 2.061 . S
O440 C443 1.235 . S
C441 O444 1.238 . S
C441 O445 1.241 . S
C442 O435 1.247 . S
C442 O436 1.261 . S
C443 O438 1.259 . S
C443 O440 1.235 . S
O444 Co434 2.021 . S
O444 C441 1.238 . S
O445 Co439 2.052 . S
O445 C441 1.241 . S
O446 Co434 2.137 . S
O446 C437 1.247 . S
O447 Co434 2.244 . S
O447 C437 1.272 . S
O447 Co439 2.135 . S
C448 C449 1.369 . S
C448 C450 1.419 . S
C448 H452 0.930 . S
C449 C448 1.369 . S
C449 C458 1.429 1_455 S
C450 C448 1.419 . S
C450 C451 1.369 . S
C450 H453 0.929 . S
C451 C450 1.369 . S
C451 C457 1.424 1_455 S
H452 C448 0.930 . S
H453 C450 0.929 . S
S454 N455 1.613 . S
S454 N456 1.610 . S
N455 S454 1.613 . S
N455 C458 1.350 . S
N456 S454 1.610 . S
N456 C457 1.351 . S
C457 C451 1.424 1_655 S
C457 N456 1.351 . S
C457 C458 1.434 . S
C458 C449 1.429 1_655 S
C458 N455 1.350 . S
C458 C457 1.434 . S
C459 C460 1.369 1_554 S
C459 C461 1.419 . S
C459 H463 0.933 . S
C460 C459 1.369 1_556 S
C460 C469 1.429 1_556 S
C461 C459 1.419 . S
C461 C462 1.363 . S
C461 H464 0.929 . S
C462 C461 1.363 . S
C462 C468 1.428 . S
H463 C459 0.933 . S
H464 C461 0.929 . S
S465 N466 1.613 . S
S465 N467 1.610 . S
N466 S465 1.613 . S
N466 C469 1.350 . S
N467 S465 1.610 . S
N467 C468 1.351 . S
C468 C462 1.428 . S
C468 N467 1.351 . S
C468 C469 1.434 . S
C469 C460 1.429 1_554 S
C469 N466 1.350 . S
C469 C468 1.434 . S
C470 C471 1.369 . S
C470 C472 1.419 . S
C470 H474 0.930 . S
C471 C470 1.369 . S
C471 C480 1.429 . S
C472 C470 1.419 . S
C472 C473 1.363 . S
C472 H475 0.929 . S
C473 C472 1.363 . S
C473 C479 1.428 . S
H474 C470 0.930 . S
H475 C472 0.929 . S
S476 N477 1.613 . S
S476 N478 1.610 . S
N477 S476 1.613 . S
N477 C480 1.350 . S
N478 S476 1.610 . S
N478 C479 1.351 . S
C479 C473 1.428 . S
C479 N478 1.351 . S
C479 C480 1.434 . S
C480 C471 1.429 . S
C480 N477 1.350 . S
C480 C479 1.434 . S
C481 C482 1.369 . S
C481 C483 1.419 . S
C481 H485 0.930 . S
C482 C481 1.369 . S
C482 C491 1.429 . S
C483 C481 1.419 . S
C483 C484 1.363 . S
C483 H486 0.929 . S
C484 C483 1.363 . S
C484 C490 1.428 . S
H485 C481 0.930 . S
H486 C483 0.929 . S
S487 N488 1.613 . S
S487 N489 1.610 . S
N488 S487 1.613 . S
N488 C491 1.350 . S
N489 S487 1.610 . S
N489 C490 1.351 . S
C490 C484 1.428 . S
C490 N489 1.351 . S
C490 C491 1.434 . S
C491 C482 1.429 . S
C491 N488 1.350 . S
C491 C490 1.434 . S
C492 C493 1.369 1_655 S
C492 C494 1.419 . S
C492 H496 0.930 . S
C493 C492 1.369 1_455 S
C493 C502 1.429 . S
C494 C492 1.419 . S
C494 C495 1.342 1_655 S
C494 H497 0.929 . S
C495 C494 1.342 1_455 S
C495 C501 1.451 . S
H496 C492 0.930 . S
H497 C494 0.929 . S
S498 N499 1.613 . S
S498 N500 1.610 . S
N499 S498 1.613 . S
N499 C502 1.350 . S
N500 S498 1.610 . S
N500 C501 1.351 . S
C501 C495 1.451 . S
C501 N500 1.351 . S
C501 C502 1.434 . S
C502 C493 1.429 . S
C502 N499 1.350 . S
C502 C501 1.434 . S
C503 C504 1.369 . S
C503 C505 1.419 . S
C503 H507 0.930 . S
C504 C503 1.369 . S
C504 C513 1.429 . S
C505 C503 1.419 . S
C505 C506 1.363 1_556 S
C505 H508 0.929 . S
C506 C505 1.363 1_554 S
C506 C512 1.428 1_554 S
H507 C503 0.930 . S
H508 C505 0.929 . S
S509 N510 1.613 . S
S509 N511 1.610 1_556 S
N510 S509 1.613 . S
N510 C513 1.350 . S
N511 S509 1.610 1_554 S
N511 C512 1.351 1_554 S
C512 C506 1.428 1_556 S
C512 N511 1.351 1_556 S
C512 C513 1.434 . S
C513 C504 1.429 . S
C513 N510 1.350 . S
C513 C512 1.434 . S
C514 C515 1.369 . S
C514 C516 1.419 . S
C514 H518 0.930 . S
C515 C514 1.369 . S
C515 C524 1.429 . S
C516 C514 1.419 . S
C516 C517 1.363 . S
C516 H519 0.929 . S
C517 C516 1.363 . S
C517 C523 1.428 . S
H518 C514 0.930 . S
H519 C516 0.929 . S
S520 N521 1.613 . S
S520 N522 1.610 . S
N521 S520 1.613 . S
N521 C524 1.350 . S
N522 S520 1.610 . S
N522 C523 1.351 . S
C523 C517 1.428 . S
C523 N522 1.351 . S
C523 C524 1.434 . S
C524 C515 1.429 . S
C524 N521 1.350 . S
C524 C523 1.434 . S
C525 C526 1.369 . S
C525 C527 1.419 . S
C525 H529 0.930 . S
C526 C525 1.369 . S
C526 C535 1.429 . S
C527 C525 1.419 . S
C527 C528 1.363 . S
C527 H530 0.929 . S
C528 C527 1.363 . S
C528 C534 1.428 . S
H529 C525 0.930 . S
H530 C527 0.929 . S
S531 N532 1.613 . S
S531 N533 1.610 . S
N532 S531 1.613 . S
N532 C535 1.350 . S
N533 S531 1.610 . S
N533 C534 1.351 . S
C534 C528 1.428 . S
C534 N533 1.351 . S
C534 C535 1.434 . S
C535 C526 1.429 . S
C535 N532 1.350 . S
C535 C534 1.434 . S
C536 C537 1.369 1_455 S
C536 C538 1.419 . S
C536 H540 0.930 . S
C537 C536 1.369 1_655 S
C537 C546 1.429 . S
C538 C536 1.419 . S
C538 C539 1.345 1_455 S
C538 H541 0.929 . S
C539 C538 1.345 1_655 S
C539 C545 1.449 . S
H540 C536 0.930 . S
H541 C538 0.929 . S
S542 N543 1.613 . S
S542 N544 1.610 . S
N543 S542 1.613 . S
N543 C546 1.350 . S
N544 S542 1.610 . S
N544 C545 1.351 . S
C545 C539 1.449 . S
C545 N544 1.351 . S
C545 C546 1.434 . S
C546 C537 1.429 . S
C546 N543 1.350 . S
C546 C545 1.434 . S
C547 C548 1.369 1_556 S
C547 C549 1.419 . S
C547 H551 0.930 1_556 S
C548 C547 1.369 1_554 S
C548 C557 1.429 1_554 S
C549 C547 1.419 . S
C549 C550 1.363 . S
C549 H552 0.929 . S
C550 C549 1.363 . S
C550 C556 1.428 . S
H551 C547 0.930 1_554 S
H552 C549 0.929 . S
S553 N554 1.613 . S
S553 N555 1.610 . S
N554 S553 1.613 . S
N554 C557 1.350 . S
N555 S553 1.610 . S
N555 C556 1.351 . S
C556 C550 1.428 . S
C556 N555 1.351 . S
C556 C557 1.434 . S
C557 C548 1.429 1_556 S
C557 N554 1.350 . S
C557 C556 1.434 . S
C558 C559 1.369 . S
C558 C560 1.419 . S
C558 H562 0.930 . S
C559 C558 1.369 . S
C559 C568 1.429 . S
C560 C558 1.419 . S
C560 C561 1.363 . S
C560 H563 0.929 . S
C561 C560 1.363 . S
C561 C567 1.428 . S
H562 C558 0.930 . S
H563 C560 0.929 . S
S564 N565 1.613 . S
S564 N566 1.610 . S
N565 S564 1.613 . S
N565 C568 1.350 . S
N566 S564 1.610 . S
N566 C567 1.351 . S
C567 C561 1.428 . S
C567 N566 1.351 . S
C567 C568 1.434 . S
C568 C559 1.429 . S
C568 N565 1.350 . S
C568 C567 1.434 . S
C569 C570 1.369 . S
C569 C571 1.419 . S
C569 H573 0.930 . S
C570 C569 1.369 . S
C570 C579 1.429 . S
C571 C569 1.419 . S
C571 C572 1.363 . S
C571 H574 0.929 . S
C572 C571 1.363 . S
C572 C578 1.428 . S
H573 C569 0.930 . S
H574 C571 0.929 . S
S575 N576 1.613 . S
S575 N577 1.610 . S
N576 S575 1.613 . S
N576 C579 1.350 . S
N577 S575 1.610 . S
N577 C578 1.351 . S
C578 C572 1.428 . S
C578 N577 1.351 . S
C578 C579 1.434 . S
C579 C570 1.429 . S
C579 N576 1.350 . S
C579 C578 1.434 . S
C580 C581 1.375 . S
C580 C582 1.419 . S
C580 H584 0.930 . S
C581 C580 1.375 . S
C581 C590 1.424 1_655 S
C582 C580 1.419 . S
C582 C583 1.363 . S
C582 H585 0.929 . S
C583 C582 1.363 . S
C583 C589 1.428 1_655 S
H584 C580 0.930 . S
H585 C582 0.929 . S
S586 N587 1.613 . S
S586 N588 1.610 . S
N587 S586 1.613 . S
N587 C590 1.350 . S
N588 S586 1.610 . S
N588 C589 1.351 . S
C589 C583 1.428 1_455 S
C589 N588 1.351 . S
C589 C590 1.434 . S
C590 C581 1.424 1_455 S
C590 N587 1.350 . S
C590 C589 1.434 . S
C591 C592 1.369 . S
C591 C593 1.419 . S
C591 H595 0.930 . S
C592 C591 1.369 . S
C592 C601 1.429 . S
C593 C591 1.419 . S
C593 C594 1.363 1_554 S
C593 H596 0.929 1_554 S
C594 C593 1.363 1_556 S
C594 C600 1.428 1_556 S
H595 C591 0.930 . S
H596 C593 0.929 1_556 S
S597 N598 1.613 . S
S597 N599 1.610 . S
N598 S597 1.613 . S
N598 C601 1.350 . S
N599 S597 1.610 . S
N599 C600 1.351 . S
C600 C594 1.428 1_554 S
C600 N599 1.351 . S
C600 C601 1.434 . S
C601 C592 1.429 . S
C601 N598 1.350 . S
C601 C600 1.434 . S
C602 C603 1.369 . S
C602 C604 1.419 . S
C602 H606 0.930 . S
C603 C602 1.369 . S
C603 C612 1.429 . S
C604 C602 1.419 . S
C604 C605 1.363 . S
C604 H607 0.929 . S
C605 C604 1.363 . S
C605 C611 1.428 . S
H606 C602 0.930 . S
H607 C604 0.929 . S
S608 N609 1.613 . S
S608 N610 1.610 . S
N609 S608 1.613 . S
N609 C612 1.350 . S
N610 S608 1.610 . S
N610 C611 1.351 . S
C611 C605 1.428 . S
C611 N610 1.351 . S
C611 C612 1.434 . S
C612 C603 1.429 . S
C612 N609 1.350 . S
C612 C611 1.434 . S
C613 C614 1.369 . S
C613 C615 1.419 . S
C613 H617 0.930 . S
C614 C613 1.369 . S
C614 C623 1.429 . S
C615 C613 1.419 . S
C615 C616 1.363 . S
C615 H618 0.929 . S
C616 C615 1.363 . S
C616 C622 1.428 . S
H617 C613 0.930 . S
H618 C615 0.929 . S
S619 N620 1.613 . S
S619 N621 1.610 . S
N620 S619 1.613 . S
N620 C623 1.350 . S
N621 S619 1.610 . S
N621 C622 1.351 . S
C622 C616 1.428 . S
C622 N621 1.351 . S
C622 C623 1.434 . S
C623 C614 1.429 . S
C623 N620 1.350 . S
C623 C622 1.434 . S
C624 C625 1.369 . S
C624 C626 1.419 . S
C624 H628 0.930 . S
C625 C624 1.369 . S
C625 C634 1.429 . S
C626 C624 1.419 . S
C626 C627 1.363 . S
C626 H629 0.929 . S
C627 C626 1.363 . S
C627 C633 1.428 . S
H628 C624 0.930 . S
H629 C626 0.929 . S
S630 N631 1.613 . S
S630 N632 1.610 . S
N631 S630 1.613 . S
N631 C634 1.350 . S
N632 S630 1.610 . S
N632 C633 1.351 . S
C633 C627 1.428 . S
C633 N632 1.351 . S
C633 C634 1.434 . S
C634 C625 1.429 . S
C634 N631 1.350 . S
C634 C633 1.434 . S
C635 C636 1.369 . S
C635 C637 1.419 . S
C635 H639 0.930 . S
C636 C635 1.369 . S
C636 C645 1.429 . S
C637 C635 1.419 . S
C637 C638 1.363 . S
C637 H640 0.929 . S
C638 C637 1.363 . S
C638 C644 1.428 . S
H639 C635 0.930 . S
H640 C637 0.929 . S
S641 N642 1.613 . S
S641 N643 1.610 . S
N642 S641 1.613 . S
N642 C645 1.350 . S
N643 S641 1.610 . S
N643 C644 1.351 . S
C644 C638 1.428 . S
C644 N643 1.351 . S
C644 C645 1.434 . S
C645 C636 1.429 . S
C645 N642 1.350 . S
C645 C644 1.434 . S
C646 C647 1.369 1_455 S
C646 C648 1.419 . S
C646 H650 0.930 . S
C647 C646 1.369 1_655 S
C647 C656 1.429 . S
C648 C646 1.419 . S
C648 C649 1.342 1_455 S
C648 H651 0.929 . S
C649 C648 1.342 1_655 S
C649 C655 1.452 . S
H650 C646 0.930 . S
H651 C648 0.929 . S
S652 N653 1.613 . S
S652 N654 1.610 . S
N653 S652 1.613 . S
N653 C656 1.350 . S
N654 S652 1.610 . S
N654 C655 1.351 . S
C655 C649 1.452 . S
C655 N654 1.351 . S
C655 C656 1.434 . S
C656 C647 1.429 . S
C656 N653 1.350 . S
C656 C655 1.434 . S
C657 C658 1.369 . S
C657 C659 1.419 . S
C657 H661 0.930 . S
C658 C657 1.369 . S
C658 C667 1.429 . S
C659 C657 1.419 . S
C659 C660 1.363 1_554 S
C659 H662 0.929 . S
C660 C659 1.363 1_556 S
C660 C666 1.428 1_556 S
H661 C657 0.930 . S
H662 C659 0.929 . S
S663 N664 1.613 . S
S663 N665 1.610 1_554 S
N664 S663 1.613 . S
N664 C667 1.350 . S
N665 S663 1.610 1_556 S
N665 C666 1.351 1_556 S
C666 C660 1.428 1_554 S
C666 N665 1.351 1_554 S
C666 C667 1.434 . S
C667 C658 1.429 . S
C667 N664 1.350 . S
C667 C666 1.434 . S
C668 C669 1.369 . S
C668 C670 1.419 . S
C668 H672 0.930 . S
C669 C668 1.369 . S
C669 C678 1.429 . S
C670 C668 1.419 . S
C670 C671 1.363 . S
C670 H673 0.929 . S
C671 C670 1.363 . S
C671 C677 1.428 . S
H672 C668 0.930 . S
H673 C670 0.929 . S
S674 N675 1.613 . S
S674 N676 1.610 . S
N675 S674 1.613 . S
N675 C678 1.350 . S
N676 S674 1.610 . S
N676 C677 1.351 . S
C677 C671 1.428 . S
C677 N676 1.351 . S
C677 C678 1.434 . S
C678 C669 1.429 . S
C678 N675 1.350 . S
C678 C677 1.434 . S
C679 C680 1.369 . S
C679 C681 1.419 . S
C679 H683 0.930 . S
C680 C679 1.369 . S
C680 C689 1.429 . S
C681 C679 1.419 . S
C681 C682 1.363 . S
C681 H684 0.929 . S
C682 C681 1.363 . S
C682 C688 1.428 . S
H683 C679 0.930 . S
H684 C681 0.929 . S
S685 N686 1.613 . S
S685 N687 1.610 . S
N686 S685 1.613 . S
N686 C689 1.350 . S
N687 S685 1.610 . S
N687 C688 1.351 . S
C688 C682 1.428 . S
C688 N687 1.351 . S
C688 C689 1.434 . S
C689 C680 1.429 . S
C689 N686 1.350 . S
C689 C688 1.434 . S
C690 C691 1.369 . S
C690 C692 1.419 . S
C690 H694 0.930 . S
C691 C690 1.369 . S
C691 C700 1.429 1_655 S
C692 C690 1.419 . S
C692 C693 1.365 . S
C692 H695 0.929 . S
C693 C692 1.365 . S
C693 C699 1.427 1_655 S
H694 C690 0.930 . S
H695 C692 0.929 . S
S696 N697 1.613 . S
S696 N698 1.610 . S
N697 S696 1.613 . S
N697 C700 1.350 . S
N698 S696 1.610 . S
N698 C699 1.351 . S
C699 C693 1.427 1_455 S
C699 N698 1.351 . S
C699 C700 1.434 . S
C700 C691 1.429 1_455 S
C700 N697 1.350 . S
C700 C699 1.434 . S
C701 C702 1.369 1_556 S
C701 C703 1.419 . S
C701 H705 0.930 . S
C702 C701 1.369 1_554 S
C702 C711 1.429 1_554 S
C703 C701 1.419 . S
C703 C704 1.363 . S
C703 H706 0.929 . S
C704 C703 1.363 . S
C704 C710 1.428 . S
H705 C701 0.930 . S
H706 C703 0.929 . S
S707 N708 1.613 1_556 S
S707 N709 1.610 . S
N708 S707 1.613 1_554 S
N708 C711 1.350 1_554 S
N709 S707 1.610 . S
N709 C710 1.351 . S
C710 C704 1.428 . S
C710 N709 1.351 . S
C710 C711 1.434 . S
C711 C702 1.429 1_556 S
C711 N708 1.350 1_556 S
C711 C710 1.434 . S
C712 C713 1.369 . S
C712 C714 1.419 . S
C712 H716 0.930 . S
C713 C712 1.369 . S
C713 C722 1.429 . S
C714 C712 1.419 . S
C714 C715 1.363 . S
C714 H717 0.929 . S
C715 C714 1.363 . S
C715 C721 1.428 . S
H716 C712 0.930 . S
H717 C714 0.929 . S
S718 N719 1.613 . S
S718 N720 1.610 . S
N719 S718 1.613 . S
N719 C722 1.350 . S
N720 S718 1.610 . S
N720 C721 1.351 . S
C721 C715 1.428 . S
C721 N720 1.351 . S
C721 C722 1.434 . S
C722 C713 1.429 . S
C722 N719 1.350 . S
C722 C721 1.434 . S
C723 C724 1.369 . S
C723 C725 1.419 . S
C723 H727 0.930 . S
C724 C723 1.369 . S
C724 C733 1.429 . S
C725 C723 1.419 . S
C725 C726 1.363 . S
C725 H728 0.929 . S
C726 C725 1.363 . S
C726 C732 1.428 . S
H727 C723 0.930 . S
H728 C725 0.929 . S
S729 N730 1.613 . S
S729 N731 1.610 . S
N730 S729 1.613 . S
N730 C733 1.350 . S
N731 S729 1.610 . S
N731 C732 1.351 . S
C732 C726 1.428 . S
C732 N731 1.351 . S
C732 C733 1.434 . S
C733 C724 1.429 . S
C733 N730 1.350 . S
C733 C732 1.434 . S
C734 C735 1.366 1_655 S
C734 C736 1.419 . S
C734 H738 0.930 . S
C735 C734 1.366 1_455 S
C735 C744 1.432 . S
C736 C734 1.419 . S
C736 C737 1.363 1_655 S
C736 H739 0.929 . S
C737 C736 1.363 1_455 S
C737 C743 1.428 . S
H738 C734 0.930 . S
H739 C736 0.929 . S
S740 N741 1.613 . S
S740 N742 1.610 . S
N741 S740 1.613 . S
N741 C744 1.350 . S
N742 S740 1.610 . S
N742 C743 1.351 . S
C743 C737 1.428 . S
C743 N742 1.351 . S
C743 C744 1.434 . S
C744 C735 1.432 . S
C744 N741 1.350 . S
C744 C743 1.434 . S
C745 C746 1.369 . S
C745 C747 1.419 . S
C745 H749 0.930 . S
C746 C745 1.369 . S
C746 C755 1.429 . S
C747 C745 1.419 . S
C747 C748 1.363 1_556 S
C747 H750 0.929 . S
C748 C747 1.363 1_554 S
C748 C754 1.428 1_554 S
H749 C745 0.930 . S
H750 C747 0.929 . S
S751 N752 1.613 . S
S751 N753 1.610 1_556 S
N752 S751 1.613 . S
N752 C755 1.350 . S
N753 S751 1.610 1_554 S
N753 C754 1.351 1_554 S
C754 C748 1.428 1_556 S
C754 N753 1.351 1_556 S
C754 C755 1.434 . S
C755 C746 1.429 . S
C755 N752 1.350 . S
C755 C754 1.434 . S
C756 C757 1.369 . S
C756 C758 1.419 . S
C756 H760 0.930 . S
C757 C756 1.369 . S
C757 C766 1.429 . S
C758 C756 1.419 . S
C758 C759 1.363 . S
C758 H761 0.929 . S
C759 C758 1.363 . S
C759 C765 1.428 . S
H760 C756 0.930 . S
H761 C758 0.929 . S
S762 N763 1.613 . S
S762 N764 1.610 . S
N763 S762 1.613 . S
N763 C766 1.350 . S
N764 S762 1.610 . S
N764 C765 1.351 . S
C765 C759 1.428 . S
C765 N764 1.351 . S
C765 C766 1.434 . S
C766 C757 1.429 . S
C766 N763 1.350 . S
C766 C765 1.434 . S
C767 C768 1.369 . S
C767 C769 1.419 . S
C767 H771 0.930 . S
C768 C767 1.369 . S
C768 C777 1.429 . S
C769 C767 1.419 . S
C769 C770 1.363 . S
C769 H772 0.929 . S
C770 C769 1.363 . S
C770 C776 1.428 . S
H771 C767 0.930 . S
H772 C769 0.929 . S
S773 N774 1.613 . S
S773 N775 1.610 . S
N774 S773 1.613 . S
N774 C777 1.350 . S
N775 S773 1.610 . S
N775 C776 1.351 . S
C776 C770 1.428 . S
C776 N775 1.351 . S
C776 C777 1.434 . S
C777 C768 1.429 . S
C777 N774 1.350 . S
C777 C776 1.434 . S
C778 C779 1.369 1_655 S
C778 C780 1.419 . S
C778 H782 0.930 . S
C779 C778 1.369 1_455 S
C779 C788 1.429 . S
C780 C778 1.419 . S
C780 C781 1.342 1_655 S
C780 H783 0.929 . S
C781 C780 1.342 1_455 S
C781 C787 1.451 . S
H782 C778 0.930 . S
H783 C780 0.929 . S
S784 N785 1.613 . S
S784 N786 1.610 . S
N785 S784 1.613 . S
N785 C788 1.350 . S
N786 S784 1.610 . S
N786 C787 1.351 . S
C787 C781 1.451 . S
C787 N786 1.351 . S
C787 C788 1.434 . S
C788 C779 1.429 . S
C788 N785 1.350 . S
C788 C787 1.434 . S
C789 C790 1.369 . S
C789 C791 1.419 . S
C789 H793 0.930 . S
C790 C789 1.369 . S
C790 C799 1.429 . S
C791 C789 1.419 . S
C791 C792 1.363 1_554 S
C791 H794 0.929 1_554 S
C792 C791 1.363 1_556 S
C792 C798 1.428 1_556 S
H793 C789 0.930 . S
H794 C791 0.929 1_556 S
S795 N796 1.613 . S
S795 N797 1.610 . S
N796 S795 1.613 . S
N796 C799 1.350 . S
N797 S795 1.610 . S
N797 C798 1.351 . S
C798 C792 1.428 1_554 S
C798 N797 1.351 . S
C798 C799 1.434 . S
C799 C790 1.429 . S
C799 N796 1.350 . S
C799 C798 1.434 . S
C800 C801 1.369 1_656 S
C800 C802 1.423 . S
C800 H804 0.930 . S
C801 C800 1.369 1_454 S
C801 C810 1.429 1_545 S
C802 C800 1.423 . S
C802 C803 1.359 1_545 S
C802 H805 0.930 . S
C803 C802 1.359 1_565 S
C803 C809 1.428 1_656 S
H804 C800 0.930 . S
H805 C802 0.930 . S
S806 N807 1.613 . S
S806 N808 1.610 . S
N807 S806 1.613 . S
N807 C810 1.350 . S
N808 S806 1.610 . S
N808 C809 1.351 . S
C809 C803 1.428 1_454 S
C809 N808 1.351 . S
C809 C810 1.434 . S
C810 C801 1.429 1_565 S
C810 N807 1.350 . S
C810 C809 1.434 . S
C811 C812 1.369 . S
C811 C813 1.419 . S
C811 H815 0.930 . S
C812 C811 1.369 . S
C812 C821 1.429 . S
C813 C811 1.419 . S
C813 C814 1.363 . S
C813 H816 0.929 . S
C814 C813 1.363 . S
C814 C820 1.428 . S
H815 C811 0.930 . S
H816 C813 0.929 . S
S817 N818 1.613 . S
S817 N819 1.610 . S
N818 S817 1.613 . S
N818 C821 1.350 . S
N819 S817 1.610 . S
N819 C820 1.351 . S
C820 C814 1.428 . S
C820 N819 1.351 . S
C820 C821 1.434 . S
C821 C812 1.429 . S
C821 N818 1.350 . S
C821 C820 1.434 . S
C822 C823 1.404 . S
C822 C824 1.384 1_545 S
C822 H826 0.930 . S
C823 C822 1.404 . S
C823 C832 1.429 . S
C824 C822 1.384 1_565 S
C824 C825 1.363 . S
C824 H827 0.929 . S
C825 C824 1.363 . S
C825 C831 1.433 . S
H826 C822 0.930 . S
H827 C824 0.929 . S
S828 N829 1.613 . S
S828 N830 1.610 . S
N829 S828 1.613 . S
N829 C832 1.350 . S
N830 S828 1.610 . S
N830 C831 1.350 1_545 S
C831 C825 1.433 . S
C831 N830 1.350 1_565 S
C831 C832 1.429 1_565 S
C832 C823 1.429 . S
C832 N829 1.350 . S
C832 C831 1.429 1_545 S
C833 C834 1.369 . S
C833 C835 1.419 . S
C833 H837 0.930 . S
C834 C833 1.369 . S
C834 C843 1.429 . S
C835 C833 1.419 . S
C835 C836 1.363 . S
C835 H838 0.929 . S
C836 C835 1.363 . S
C836 C842 1.428 . S
H837 C833 0.930 . S
H838 C835 0.929 . S
S839 N840 1.613 . S
S839 N841 1.610 . S
N840 S839 1.613 . S
N840 C843 1.350 . S
N841 S839 1.610 . S
N841 C842 1.351 . S
C842 C836 1.428 . S
C842 N841 1.351 . S
C842 C843 1.434 . S
C843 C834 1.429 . S
C843 N840 1.350 . S
C843 C842 1.434 . S
C844 C845 1.369 . S
C844 C846 1.419 1_565 S
C844 H848 0.930 . S
C845 C844 1.369 . S
C845 C854 1.429 1_455 S
C846 C844 1.419 1_545 S
C846 C847 1.363 1_455 S
C846 H849 0.929 . S
C847 C846 1.363 1_655 S
C847 C853 1.428 . S
H848 C844 0.930 . S
H849 C846 0.929 . S
S850 N851 1.613 . S
S850 N852 1.610 1_565 S
N851 S850 1.613 . S
N851 C854 1.350 . S
N852 S850 1.610 1_545 S
N852 C853 1.351 . S
C853 C847 1.428 . S
C853 N852 1.351 . S
C853 C854 1.434 1_545 S
C854 C845 1.429 1_655 S
C854 N851 1.350 . S
C854 C853 1.434 1_565 S
C855 C856 1.369 . S
C855 C857 1.419 . S
C855 H859 0.930 . S
C856 C855 1.369 . S
C856 C865 1.429 . S
C857 C855 1.419 . S
C857 C858 1.363 . S
C857 H860 0.929 . S
C858 C857 1.363 . S
C858 C864 1.428 . S
H859 C855 0.930 . S
H860 C857 0.929 . S
S861 N862 1.613 . S
S861 N863 1.610 . S
N862 S861 1.613 . S
N862 C865 1.350 . S
N863 S861 1.610 . S
N863 C864 1.351 . S
C864 C858 1.428 . S
C864 N863 1.351 . S
C864 C865 1.434 . S
C865 C856 1.429 . S
C865 N862 1.350 . S
C865 C864 1.434 . S
C866 C867 1.352 1_545 S
C866 C868 1.435 . S
C866 H870 0.932 . S
C867 C866 1.352 1_565 S
C867 C876 1.429 1_554 S
C868 C866 1.435 . S
C868 C869 1.363 1_554 S
C868 H871 0.929 . S
C869 C868 1.363 1_556 S
C869 C875 1.428 1_545 S
H870 C866 0.932 . S
H871 C868 0.929 . S
S872 N873 1.613 . S
S872 N874 1.610 . S
N873 S872 1.613 . S
N873 C876 1.350 . S
N874 S872 1.610 . S
N874 C875 1.351 . S
C875 C869 1.428 1_565 S
C875 N874 1.351 . S
C875 C876 1.434 . S
C876 C867 1.429 1_556 S
C876 N873 1.350 . S
C876 C875 1.434 . S
C877 C878 1.369 . S
C877 C879 1.419 . S
C877 H881 0.930 . S
C878 C877 1.369 . S
C878 C887 1.429 . S
C879 C877 1.419 . S
C879 C880 1.363 . S
C879 H882 0.929 . S
C880 C879 1.363 . S
C880 C886 1.428 . S
H881 C877 0.930 . S
H882 C879 0.929 . S
S883 N884 1.613 . S
S883 N885 1.610 . S
N884 S883 1.613 . S
N884 C887 1.350 . S
N885 S883 1.610 . S
N885 C886 1.351 . S
C886 C880 1.428 . S
C886 N885 1.351 . S
C886 C887 1.434 . S
C887 C878 1.429 . S
C887 N884 1.350 . S
C887 C886 1.434 . S
C888 C889 1.369 . S
C888 C890 1.419 . S
C888 H892 0.930 . S
C889 C888 1.369 . S
C889 C898 1.429 . S
C890 C888 1.419 . S
C890 C891 1.363 . S
C890 H893 0.929 . S
C891 C890 1.363 . S
C891 C897 1.428 . S
H892 C888 0.930 . S
H893 C890 0.929 . S
S894 N895 1.613 . S
S894 N896 1.610 . S
N895 S894 1.613 . S
N895 C898 1.350 . S
N896 S894 1.610 . S
N896 C897 1.351 . S
C897 C891 1.428 . S
C897 N896 1.351 . S
C897 C898 1.434 . S
C898 C889 1.429 . S
C898 N895 1.350 . S
C898 C897 1.434 . S
C899 C900 1.369 . S
C899 C901 1.419 . S
C899 H903 0.930 . S
C900 C899 1.369 . S
C900 C909 1.429 . S
C901 C899 1.419 . S
C901 C902 1.363 . S
C901 H904 0.929 . S
C902 C901 1.363 . S
C902 C908 1.428 . S
H903 C899 0.930 . S
H904 C901 0.929 . S
S905 N906 1.613 . S
S905 N907 1.610 . S
N906 S905 1.613 . S
N906 C909 1.350 . S
N907 S905 1.610 . S
N907 C908 1.351 . S
C908 C902 1.428 . S
C908 N907 1.351 . S
C908 C909 1.434 . S
C909 C900 1.429 . S
C909 N906 1.350 . S
C909 C908 1.434 . S
C910 C911 1.369 . S
C910 C912 1.419 . S
C910 H914 0.930 . S
C911 C910 1.369 . S
C911 C920 1.429 . S
C912 C910 1.419 . S
C912 C913 1.363 . S
C912 H915 0.929 . S
C913 C912 1.363 . S
C913 C919 1.428 . S
H914 C910 0.930 . S
H915 C912 0.929 . S
S916 N917 1.613 . S
S916 N918 1.610 . S
N917 S916 1.613 . S
N917 C920 1.350 . S
N918 S916 1.610 . S
N918 C919 1.351 . S
C919 C913 1.428 . S
C919 N918 1.351 . S
C919 C920 1.434 . S
C920 C911 1.429 . S
C920 N917 1.350 . S
C920 C919 1.434 . S
C921 C922 1.369 . S
C921 C923 1.419 . S
C921 H925 0.930 . S
C922 C921 1.369 . S
C922 C931 1.429 . S
C923 C921 1.419 . S
C923 C924 1.363 . S
C923 H926 0.929 . S
C924 C923 1.363 . S
C924 C930 1.428 . S
H925 C921 0.930 . S
H926 C923 0.929 . S
S927 N928 1.613 . S
S927 N929 1.610 . S
N928 S927 1.613 . S
N928 C931 1.350 . S
N929 S927 1.610 . S
N929 C930 1.351 . S
C930 C924 1.428 . S
C930 N929 1.351 . S
C930 C931 1.434 . S
C931 C922 1.429 . S
C931 N928 1.350 . S
C931 C930 1.434 . S
C932 C933 1.369 . S
C932 C934 1.419 . S
C932 H936 0.930 . S
C933 C932 1.369 . S
C933 C942 1.429 . S
C934 C932 1.419 . S
C934 C935 1.363 . S
C934 H937 0.929 . S
C935 C934 1.363 . S
C935 C941 1.428 . S
H936 C932 0.930 . S
H937 C934 0.929 . S
S938 N939 1.613 . S
S938 N940 1.610 . S
N939 S938 1.613 . S
N939 C942 1.350 . S
N940 S938 1.610 . S
N940 C941 1.351 . S
C941 C935 1.428 . S
C941 N940 1.351 . S
C941 C942 1.434 . S
C942 C933 1.429 . S
C942 N939 1.350 . S
C942 C941 1.434 . S
C943 C944 1.369 1_556 S
C943 C945 1.419 . S
C943 H947 0.930 . S
C944 C943 1.369 1_554 S
C944 C953 1.429 1_655 S
C945 C943 1.419 . S
C945 C946 1.363 1_655 S
C945 H948 0.929 . S
C946 C945 1.363 1_455 S
C946 C952 1.428 1_556 S
H947 C943 0.930 . S
H948 C945 0.929 . S
S949 N950 1.613 . S
S949 N951 1.610 . S
N950 S949 1.613 . S
N950 C953 1.350 . S
N951 S949 1.610 . S
N951 C952 1.351 . S
C952 C946 1.428 1_554 S
C952 N951 1.351 . S
C952 C953 1.434 . S
C953 C944 1.429 1_455 S
C953 N950 1.350 . S
C953 C952 1.434 . S
C954 C955 1.369 1_554 S
C954 C956 1.419 . S
C954 H958 0.930 . S
C955 C954 1.369 1_556 S
C955 C964 1.429 . S
C956 C954 1.419 . S
C956 C957 1.363 . S
C956 H959 0.929 . S
C957 C956 1.363 . S
C957 C963 1.428 1_554 S
H958 C954 0.930 . S
H959 C956 0.929 . S
S960 N961 1.613 . S
S960 N962 1.610 . S
N961 S960 1.613 . S
N961 C964 1.350 . S
N962 S960 1.610 . S
N962 C963 1.351 . S
C963 C957 1.428 1_556 S
C963 N962 1.351 . S
C963 C964 1.434 . S
C964 C955 1.429 . S
C964 N961 1.350 . S
C964 C963 1.434 . S
C965 C966 1.369 . S
C965 C967 1.419 . S
C965 H969 0.930 . S
C966 C965 1.369 . S
C966 C975 1.429 1_455 S
C967 C965 1.419 . S
C967 C968 1.363 1_455 S
C967 H970 0.929 . S
C968 C967 1.363 1_655 S
C968 C974 1.428 . S
H969 C965 0.930 . S
H970 C967 0.929 . S
S971 N972 1.613 . S
S971 N973 1.610 . S
N972 S971 1.613 . S
N972 C975 1.350 . S
N973 S971 1.610 . S
N973 C974 1.351 . S
C974 C968 1.428 . S
C974 N973 1.351 . S
C974 C975 1.434 . S
C975 C966 1.429 1_655 S
C975 N972 1.350 . S
C975 C974 1.434 . S
C976 C977 1.369 . S
C976 C978 1.419 . S
C976 H980 0.930 . S
C977 C976 1.369 . S
C977 C986 1.429 . S
C978 C976 1.419 . S
C978 C979 1.363 . S
C978 H981 0.929 . S
C979 C978 1.363 . S
C979 C985 1.428 . S
H980 C976 0.930 . S
H981 C978 0.929 . S
S982 N983 1.613 . S
S982 N984 1.610 . S
N983 S982 1.613 . S
N983 C986 1.350 . S
N984 S982 1.610 . S
N984 C985 1.351 . S
C985 C979 1.428 . S
C985 N984 1.351 . S
C985 C986 1.434 . S
C986 C977 1.429 . S
C986 N983 1.350 . S
C986 C985 1.434 . S
C987 C988 1.369 . S
C987 C989 1.419 . S
C987 H991 0.930 . S
C988 C987 1.369 . S
C988 C997 1.429 . S
C989 C987 1.419 . S
C989 C990 1.363 . S
C989 H992 0.929 . S
C990 C989 1.363 . S
C990 C996 1.428 . S
H991 C987 0.930 . S
H992 C989 0.929 . S
S993 N994 1.613 . S
S993 N995 1.610 . S
N994 S993 1.613 . S
N994 C997 1.350 . S
N995 S993 1.610 . S
N995 C996 1.351 . S
C996 C990 1.428 . S
C996 N995 1.351 . S
C996 C997 1.434 . S
C997 C988 1.429 . S
C997 N994 1.350 . S
C997 C996 1.434 . S
C998 C999 1.369 . S
C998 C1000 1.419 . S
C998 H1002 0.930 . S
C999 C998 1.369 . S
C999 C1008 1.429 . S
C1000 C998 1.419 . S
C1000 C1001 1.363 . S
C1000 H1003 0.929 . S
C1001 C1000 1.363 . S
C1001 C1007 1.428 . S
H1002 C998 0.930 . S
H1003 C1000 0.929 . S
S1004 N1005 1.613 . S
S1004 N1006 1.610 . S
N1005 S1004 1.613 . S
N1005 C1008 1.350 . S
N1006 S1004 1.610 . S
N1006 C1007 1.351 . S
C1007 C1001 1.428 . S
C1007 N1006 1.351 . S
C1007 C1008 1.434 . S
C1008 C999 1.429 . S
C1008 N1005 1.350 . S
C1008 C1007 1.434 . S
C1009 C1010 1.369 . S
C1009 C1011 1.419 . S
C1009 H1013 0.930 . S
C1010 C1009 1.369 . S
C1010 C1019 1.429 . S
C1011 C1009 1.419 . S
C1011 C1012 1.363 . S
C1011 H1014 0.929 . S
C1012 C1011 1.363 . S
C1012 C1018 1.428 . S
H1013 C1009 0.930 . S
H1014 C1011 0.929 . S
S1015 N1016 1.613 . S
S1015 N1017 1.610 . S
N1016 S1015 1.613 . S
N1016 C1019 1.350 . S
N1017 S1015 1.610 . S
N1017 C1018 1.351 . S
C1018 C1012 1.428 . S
C1018 N1017 1.351 . S
C1018 C1019 1.434 . S
C1019 C1010 1.429 . S
C1019 N1016 1.350 . S
C1019 C1018 1.434 . S
C1020 C1021 1.369 . S
C1020 C1022 1.419 . S
C1020 H1024 0.930 . S
C1021 C1020 1.369 . S
C1021 C1030 1.429 . S
C1022 C1020 1.419 . S
C1022 C1023 1.363 . S
C1022 H1025 0.929 . S
C1023 C1022 1.363 . S
C1023 C1029 1.428 . S
H1024 C1020 0.930 . S
H1025 C1022 0.929 . S
S1026 N1027 1.613 . S
S1026 N1028 1.610 . S
N1027 S1026 1.613 . S
N1027 C1030 1.350 . S
N1028 S1026 1.610 . S
N1028 C1029 1.351 . S
C1029 C1023 1.428 . S
C1029 N1028 1.351 . S
C1029 C1030 1.434 . S
C1030 C1021 1.429 . S
C1030 N1027 1.350 . S
C1030 C1029 1.434 . S
C1031 C1032 1.369 . S
C1031 C1033 1.419 . S
C1031 H1035 0.930 . S
C1032 C1031 1.369 . S
C1032 C1041 1.429 . S
C1033 C1031 1.419 . S
C1033 C1034 1.363 . S
C1033 H1036 0.929 . S
C1034 C1033 1.363 . S
C1034 C1040 1.428 . S
H1035 C1031 0.930 . S
H1036 C1033 0.929 . S
S1037 N1038 1.613 . S
S1037 N1039 1.610 . S
N1038 S1037 1.613 . S
N1038 C1041 1.350 . S
N1039 S1037 1.610 . S
N1039 C1040 1.351 . S
C1040 C1034 1.428 . S
C1040 N1039 1.351 . S
C1040 C1041 1.434 . S
C1041 C1032 1.429 . S
C1041 N1038 1.350 . S
C1041 C1040 1.434 . S
C1042 C1043 1.369 . S
C1042 C1044 1.419 . S
C1042 H1046 0.930 . S
C1043 C1042 1.369 . S
C1043 C1052 1.429 . S
C1044 C1042 1.419 . S
C1044 C1045 1.363 . S
C1044 H1047 0.929 . S
C1045 C1044 1.363 . S
C1045 C1051 1.428 . S
H1046 C1042 0.930 . S
H1047 C1044 0.929 . S
S1048 N1049 1.613 . S
S1048 N1050 1.610 . S
N1049 S1048 1.613 . S
N1049 C1052 1.350 . S
N1050 S1048 1.610 . S
N1050 C1051 1.351 . S
C1051 C1045 1.428 . S
C1051 N1050 1.351 . S
C1051 C1052 1.434 . S
C1052 C1043 1.429 . S
C1052 N1049 1.350 . S
C1052 C1051 1.434 . S
C1053 C1054 1.369 . S
C1053 C1055 1.419 . S
C1053 H1057 0.930 . S
C1054 C1053 1.369 . S
C1054 C1063 1.429 . S
C1055 C1053 1.419 . S
C1055 C1056 1.363 . S
C1055 H1058 0.929 . S
C1056 C1055 1.363 . S
C1056 C1062 1.428 . S
H1057 C1053 0.930 . S
H1058 C1055 0.929 . S
S1059 N1060 1.613 . S
S1059 N1061 1.610 1_556 S
N1060 S1059 1.613 . S
N1060 C1063 1.350 1_556 S
N1061 S1059 1.610 1_554 S
N1061 C1062 1.351 . S
C1062 C1056 1.428 . S
C1062 N1061 1.351 . S
C1062 C1063 1.434 . S
C1063 C1054 1.429 . S
C1063 N1060 1.350 1_554 S
C1063 C1062 1.434 . S
C1064 C1065 1.369 . S
C1064 C1066 1.419 . S
C1064 H1068 0.930 . S
C1065 C1064 1.369 . S
C1065 C1074 1.429 . S
C1066 C1064 1.419 . S
C1066 C1067 1.363 . S
C1066 H1069 0.929 . S
C1067 C1066 1.363 . S
C1067 C1073 1.428 . S
H1068 C1064 0.930 . S
H1069 C1066 0.929 . S
S1070 N1071 1.613 . S
S1070 N1072 1.610 . S
N1071 S1070 1.613 . S
N1071 C1074 1.350 . S
N1072 S1070 1.610 . S
N1072 C1073 1.351 . S
C1073 C1067 1.428 . S
C1073 N1072 1.351 . S
C1073 C1074 1.434 . S
C1074 C1065 1.429 . S
C1074 N1071 1.350 . S
C1074 C1073 1.434 . S
C1075 C1076 1.369 . S
C1075 C1077 1.419 . S
C1075 H1079 0.930 . S
C1076 C1075 1.369 . S
C1076 C1085 1.429 . S
C1077 C1075 1.419 . S
C1077 C1078 1.363 . S
C1077 H1080 0.929 . S
C1078 C1077 1.363 . S
C1078 C1084 1.428 . S
H1079 C1075 0.930 . S
H1080 C1077 0.929 . S
S1081 N1082 1.613 1_554 S
S1081 N1083 1.610 1_554 S
N1082 S1081 1.613 1_556 S
N1082 C1085 1.350 . S
N1083 S1081 1.610 1_556 S
N1083 C1084 1.351 . S
C1084 C1078 1.428 . S
C1084 N1083 1.351 . S
C1084 C1085 1.434 . S
C1085 C1076 1.429 . S
C1085 N1082 1.350 . S
C1085 C1084 1.434 . S
C1086 C1087 1.369 . S
C1086 C1088 1.419 . S
C1086 H1090 0.930 . S
C1087 C1086 1.369 . S
C1087 C1096 1.429 . S
C1088 C1086 1.419 . S
C1088 C1089 1.363 . S
C1088 H1091 0.929 . S
C1089 C1088 1.363 . S
C1089 C1095 1.428 . S
H1090 C1086 0.930 . S
H1091 C1088 0.929 . S
S1092 N1093 1.613 . S
S1092 N1094 1.610 . S
N1093 S1092 1.613 . S
N1093 C1096 1.350 . S
N1094 S1092 1.610 . S
N1094 C1095 1.351 . S
C1095 C1089 1.428 . S
C1095 N1094 1.351 . S
C1095 C1096 1.434 . S
C1096 C1087 1.429 . S
C1096 N1093 1.350 . S
C1096 C1095 1.434 . S
C1097 C1098 1.369 . S
C1097 C1099 1.419 . S
C1097 H1101 0.930 . S
C1098 C1097 1.369 . S
C1098 C1107 1.429 . S
C1099 C1097 1.419 . S
C1099 C1100 1.363 . S
C1099 H1102 0.929 . S
C1100 C1099 1.363 . S
C1100 C1106 1.428 . S
H1101 C1097 0.930 . S
H1102 C1099 0.929 . S
S1103 N1104 1.613 . S
S1103 N1105 1.610 . S
N1104 S1103 1.613 . S
N1104 C1107 1.350 . S
N1105 S1103 1.610 . S
N1105 C1106 1.351 . S
C1106 C1100 1.428 . S
C1106 N1105 1.351 . S
C1106 C1107 1.434 . S
C1107 C1098 1.429 . S
C1107 N1104 1.350 . S
C1107 C1106 1.434 . S
C1108 C1109 1.369 . S
C1108 C1110 1.419 . S
C1108 H1112 0.930 . S
C1109 C1108 1.369 . S
C1109 C1118 1.429 . S
C1110 C1108 1.419 . S
C1110 C1111 1.363 . S
C1110 H1113 0.929 . S
C1111 C1110 1.363 . S
C1111 C1117 1.428 . S
H1112 C1108 0.930 . S
H1113 C1110 0.929 . S
S1114 N1115 1.613 . S
S1114 N1116 1.610 . S
N1115 S1114 1.613 . S
N1115 C1118 1.350 . S
N1116 S1114 1.610 . S
N1116 C1117 1.351 . S
C1117 C1111 1.428 . S
C1117 N1116 1.351 . S
C1117 C1118 1.434 . S
C1118 C1109 1.429 . S
C1118 N1115 1.350 . S
C1118 C1117 1.434 . S
C1119 C1120 1.369 . S
C1119 C1121 1.419 . S
C1119 H1123 0.930 . S
C1120 C1119 1.369 . S
C1120 C1129 1.429 . S
C1121 C1119 1.419 . S
C1121 C1122 1.363 . S
C1121 H1124 0.929 . S
C1122 C1121 1.363 . S
C1122 C1128 1.428 . S
H1123 C1119 0.930 . S
H1124 C1121 0.929 . S
S1125 N1126 1.613 . S
S1125 N1127 1.610 . S
N1126 S1125 1.613 . S
N1126 C1129 1.350 . S
N1127 S1125 1.610 . S
N1127 C1128 1.351 . S
C1128 C1122 1.428 . S
C1128 N1127 1.351 . S
C1128 C1129 1.434 . S
C1129 C1120 1.429 . S
C1129 N1126 1.350 . S
C1129 C1128 1.434 . S
C1130 C1131 1.369 . S
C1130 C1132 1.419 . S
C1130 H1134 0.930 . S
C1131 C1130 1.369 . S
C1131 C1140 1.429 . S
C1132 C1130 1.419 . S
C1132 C1133 1.363 . S
C1132 H1135 0.929 . S
C1133 C1132 1.363 . S
C1133 C1139 1.428 . S
H1134 C1130 0.930 . S
H1135 C1132 0.929 . S
S1136 N1137 1.610 1_554 S
S1136 N1138 1.610 1_554 S
N1137 S1136 1.610 1_556 S
N1137 C1140 1.364 . S
N1138 S1136 1.610 1_556 S
N1138 C1139 1.351 . S
C1139 C1133 1.428 . S
C1139 N1138 1.351 . S
C1139 C1140 1.434 . S
C1140 C1131 1.429 . S
C1140 N1137 1.364 . S
C1140 C1139 1.434 . S
C1141 C1142 1.369 . S
C1141 C1143 1.419 . S
C1141 H1145 0.930 . S
C1142 C1141 1.369 . S
C1142 C1151 1.429 . S
C1143 C1141 1.419 . S
C1143 C1144 1.363 . S
C1143 H1146 0.929 . S
C1144 C1143 1.363 . S
C1144 C1150 1.428 . S
H1145 C1141 0.930 . S
H1146 C1143 0.929 . S
S1147 N1148 1.613 . S
S1147 N1149 1.610 . S
N1148 S1147 1.613 . S
N1148 C1151 1.350 . S
N1149 S1147 1.610 . S
N1149 C1150 1.351 . S
C1150 C1144 1.428 . S
C1150 N1149 1.351 . S
C1150 C1151 1.434 . S
C1151 C1142 1.429 . S
C1151 N1148 1.350 . S
C1151 C1150 1.434 . S
C449 C175 1.281 . S
C451 C3 1.219 . S
C460 C413 1.282 . S
C462 C17 1.207 . S
C471 C203 1.283 . S
C473 C31 1.211 . S
C482 C441 1.279 . S
C484 C45 1.213 . S
C493 C119 1.281 . S
C495 C59 1.213 . S
C504 C73 1.218 . S
C506 C357 1.280 . S
C515 C87 1.211 . S
C517 C147 1.282 . S
C526 C385 1.281 . S
C528 C101 1.206 . S
C537 C63 1.282 . S
C539 C115 1.214 . S
C548 C301 1.281 . S
C550 C129 1.206 . S
C559 C91 1.279 . S
C561 C143 1.216 . S
C570 C329 1.280 . S
C572 C157 1.217 . S
C581 C171 1.220 . S
C583 C7 1.281 . S
C592 C185 1.216 . S
C594 C245 1.279 . S
C603 C35 1.282 . S
C605 C199 1.213 . S
C614 C213 1.216 . S
C616 C273 1.281 . S
C625 C399 1.282 . S
C627 C227 1.207 . S
C636 C189 1.280 . S
C638 C241 1.217 . S
C647 C427 1.282 . S
C649 C255 1.214 . S
C658 C269 1.217 . S
C660 C217 1.280 . S
C669 C283 1.206 . S
C671 C343 1.280 . S
C680 C297 1.206 . S
C682 C133 1.280 . S
C691 C371 1.279 . S
C693 C311 1.215 . S
C702 C161 1.283 . S
C704 C325 1.210 . S
C713 C287 1.280 . S
C715 C339 1.207 . S
C724 C353 1.217 . S
C726 C77 1.279 . S
C735 C367 1.211 . S
C737 C315 1.280 . S
C746 C381 1.209 . S
C748 C105 1.282 . S
C757 C231 1.280 . S
C759 C395 1.207 . S
C768 C21 1.279 . S
C770 C409 1.213 . S
C779 C259 1.282 . S
C781 C423 1.216 . S
C790 C437 1.212 . S
C792 C49 1.279 . S
C801 C9 1.417 . S
C803 C121 1.406 . S
C812 C23 1.409 . S
C814 C359 1.413 . S
C823 C149 1.409 . S
C825 C37 1.413 . S
C834 C51 1.407 . S
C836 C387 1.414 . S
C845 C65 1.408 . S
C847 C177 1.413 . S
C856 C415 1.416 . S
C858 C79 1.407 . S
C867 C205 1.407 . S
C869 C93 1.414 . S
C878 C107 1.417 . S
C880 C443 1.406 . S
C889 C135 1.405 . S
C891 C247 1.416 . S
C900 C163 1.417 . S
C902 C275 1.406 . S
C911 C191 1.412 . S
C913 C303 1.410 . S
C922 C331 1.410 . S
C924 C219 1.411 . S
C933 C233 1.417 . S
C935 C345 1.407 . S
C944 C261 1.413 . S
C946 C373 1.410 . S
C955 C289 1.414 . S
C957 C401 1.409 . S
C966 C429 1.406 . S
C968 C317 1.415 . S
C977 C8 1.425 . S
C979 C106 1.429 . S
C988 C22 1.428 . S
C990 C64 1.427 . S
C999 C78 1.426 . S
C1001 C36 1.429 . S
C1010 C92 1.428 . S
C1012 C50 1.427 . S
C1021 C218 1.429 . S
C1023 C120 1.426 . S
C1032 C176 1.427 . S
C1034 C134 1.427 . S
C1043 C190 1.426 . S
C1045 C148 1.428 . S
C1054 C204 1.429 . S
C1056 C162 1.426 . S
C1065 C232 1.426 . S
C1067 C330 1.429 . S
C1076 C288 1.428 . S
C1078 C246 1.427 . S
C1087 C302 1.426 . S
C1089 C260 1.428 . S
C1098 C316 1.429 . S
C1100 C274 1.426 . S
C1109 C442 1.429 . S
C1111 C344 1.426 . S
C1120 C358 1.427 . S
C1122 C400 1.428 . S
C1131 C372 1.429 . S
C1133 C414 1.426 . S
C1142 C428 1.425 . S
C1144 C386 1.429 . S
